# Generated by pormake.
# Topology pyr, (3,6)-cn, num edge types: 1
# Building blocks:
#     Node 0, Type 0, BuildingBlock: BETDAH_clean_linker_0, # of connection points: 3
#     Node 1, Type 0, BuildingBlock: BETDAH_clean_linker_0, # of connection points: 3
#     Node 2, Type 0, BuildingBlock: BETDAH_clean_linker_0, # of connection points: 3
#     Node 3, Type 0, BuildingBlock: BETDAH_clean_linker_0, # of connection points: 3
#     Node 4, Type 0, BuildingBlock: BETDAH_clean_linker_0, # of connection points: 3
#     Node 5, Type 0, BuildingBlock: BETDAH_clean_linker_0, # of connection points: 3
#     Node 6, Type 0, BuildingBlock: BETDAH_clean_linker_0, # of connection points: 3
#     Node 7, Type 0, BuildingBlock: BETDAH_clean_linker_0, # of connection points: 3
#     Node 8, Type 1, BuildingBlock: GEDQOX_clean_sbu_0, # of connection points: 6
#     Node 9, Type 1, BuildingBlock: GEDQOX_clean_sbu_0, # of connection points: 6
#     Node 10, Type 1, BuildingBlock: GEDQOX_clean_sbu_0, # of connection points: 6
#     Node 11, Type 1, BuildingBlock: GEDQOX_clean_sbu_0, # of connection points: 6
#     Edge 12, Type (0, 1), BuildingBlock: CIFDUS_clean_linker_0, # of connection points: 2
#     Edge 13, Type (0, 1), BuildingBlock: CIFDUS_clean_linker_0, # of connection points: 2
#     Edge 14, Type (0, 1), BuildingBlock: CIFDUS_clean_linker_0, # of connection points: 2
#     Edge 15, Type (0, 1), BuildingBlock: CIFDUS_clean_linker_0, # of connection points: 2
#     Edge 16, Type (0, 1), BuildingBlock: CIFDUS_clean_linker_0, # of connection points: 2
#     Edge 17, Type (0, 1), BuildingBlock: CIFDUS_clean_linker_0, # of connection points: 2
#     Edge 18, Type (0, 1), BuildingBlock: CIFDUS_clean_linker_0, # of connection points: 2
#     Edge 19, Type (0, 1), BuildingBlock: CIFDUS_clean_linker_0, # of connection points: 2
#     Edge 20, Type (0, 1), BuildingBlock: CIFDUS_clean_linker_0, # of connection points: 2
#     Edge 21, Type (0, 1), BuildingBlock: CIFDUS_clean_linker_0, # of connection points: 2
#     Edge 22, Type (0, 1), BuildingBlock: CIFDUS_clean_linker_0, # of connection points: 2
#     Edge 23, Type (0, 1), BuildingBlock: CIFDUS_clean_linker_0, # of connection points: 2
#     Edge 24, Type (0, 1), BuildingBlock: CIFDUS_clean_linker_0, # of connection points: 2
#     Edge 25, Type (0, 1), BuildingBlock: CIFDUS_clean_linker_0, # of connection points: 2
#     Edge 26, Type (0, 1), BuildingBlock: CIFDUS_clean_linker_0, # of connection points: 2
#     Edge 27, Type (0, 1), BuildingBlock: CIFDUS_clean_linker_0, # of connection points: 2
#     Edge 28, Type (0, 1), BuildingBlock: CIFDUS_clean_linker_0, # of connection points: 2
#     Edge 29, Type (0, 1), BuildingBlock: CIFDUS_clean_linker_0, # of connection points: 2
#     Edge 30, Type (0, 1), BuildingBlock: CIFDUS_clean_linker_0, # of connection points: 2
#     Edge 31, Type (0, 1), BuildingBlock: CIFDUS_clean_linker_0, # of connection points: 2
#     Edge 32, Type (0, 1), BuildingBlock: CIFDUS_clean_linker_0, # of connection points: 2
#     Edge 33, Type (0, 1), BuildingBlock: CIFDUS_clean_linker_0, # of connection points: 2
#     Edge 34, Type (0, 1), BuildingBlock: CIFDUS_clean_linker_0, # of connection points: 2
#     Edge 35, Type (0, 1), BuildingBlock: CIFDUS_clean_linker_0, # of connection points: 2
# Relax obj value: 0.224
# Max RMSD: 0.207
# Mean RMSD: 0.152
data_MOF--net-pyr--node1-GEDQOX_clean_sbu_0--node2-BETDAH_clean_linker_0--edge1-CIFDUS_clean_linker_0
_symmetry_space_group_name_H-M    P1
_symmetry_Int_Tables_number       1
_symmetry_cell_setting            triclinic
loop_
_symmetry_equiv_pos_as_xyz
'x, y, z'
_cell_length_a     34.179259
_cell_length_b     34.366386
_cell_length_c     31.913494
_cell_angle_alpha  89.672498
_cell_angle_beta   92.797455
_cell_angle_gamma 93.885768
loop_
_atom_site_label
_atom_site_type_symbol
_atom_site_fract_x
_atom_site_fract_y
_atom_site_fract_z
_atom_type_partial_charge
H0 H 0.26899 0.1232 0.23941 0.0
H1 H 0.27357 0.22164 0.15404 0.0
H2 H 0.18654 0.21337 0.24722 0.0
C3 C 0.25713 0.14976 0.22781 0.0
C4 C 0.22389 0.1644 0.24862 0.0
C5 C 0.2759 0.16876 0.19246 0.0
C6 C 0.25931 0.20482 0.1784 0.0
C7 C 0.22626 0.22136 0.19681 0.0
C8 C 0.21003 0.20043 0.23196 0.0
N9 N 0.21829 0.26315 0.19058 0.0
C10 C 0.19546 0.28669 0.1614 0.0
H11 H 0.47584 0.78137 0.83635 0.0
H12 H 0.36872 0.81936 0.88377 0.0
H13 H 0.36313 0.72567 0.79606 0.0
C14 C 0.44413 0.77878 0.83713 0.0
C15 C 0.42214 0.74962 0.81308 0.0
C16 C 0.42497 0.80464 0.86234 0.0
C17 C 0.38392 0.80046 0.86392 0.0
C18 C 0.36208 0.77188 0.84034 0.0
C19 C 0.38095 0.74699 0.81479 0.0
N20 N 0.32084 0.76804 0.8426 0.0
C21 C 0.29716 0.78506 0.81221 0.0
H22 H 0.77715 0.43995 0.97129 0.0
H23 H 0.75709 0.56019 0.94412 0.0
H24 H 0.66049 0.47411 0.93861 0.0
C25 C 0.75741 0.46228 0.96236 0.0
C26 C 0.71702 0.45211 0.95571 0.0
C27 C 0.77231 0.50126 0.95848 0.0
C28 C 0.74625 0.53009 0.94812 0.0
C29 C 0.70619 0.52022 0.94103 0.0
C30 C 0.69158 0.4814 0.94481 0.0
N31 N 0.68087 0.54943 0.92878 0.0
C32 C 0.66859 0.5531 0.887 0.0
H33 H 0.82892 0.88931 0.37003 0.0
H34 H 0.86263 0.95098 0.25865 0.0
H35 H 0.79102 0.84295 0.24887 0.0
C36 C 0.82782 0.89155 0.33608 0.0
C37 C 0.8076 0.86215 0.31177 0.0
C38 C 0.84777 0.92337 0.31722 0.0
C39 C 0.84655 0.92678 0.27342 0.0
C40 C 0.82598 0.8979 0.24858 0.0
C41 C 0.8064 0.86566 0.26793 0.0
N42 N 0.82758 0.90013 0.20432 0.0
C43 C 0.83094 0.86653 0.18127 0.0
H44 H 0.96176 0.8388 0.83665 0.0
H45 H 0.87843 0.84902 0.93343 0.0
H46 H 0.88605 0.93496 0.83495 0.0
C47 C 0.93829 0.85358 0.84961 0.0
C48 C 0.92606 0.8888 0.82876 0.0
C49 C 0.92169 0.8371 0.88722 0.0
C50 C 0.8904 0.85837 0.90403 0.0
C51 C 0.87579 0.89338 0.88534 0.0
C52 C 0.89509 0.9078 0.8483 0.0
N53 N 0.85223 0.92019 0.90909 0.0
C54 C 0.81161 0.92295 0.92106 0.0
H55 H 0.73421 0.22588 0.29429 0.0
H56 H 0.71817 0.32291 0.37543 0.0
H57 H 0.63974 0.30028 0.26811 0.0
C58 C 0.71776 0.25028 0.30274 0.0
C59 C 0.68487 0.25945 0.27723 0.0
C60 C 0.73025 0.27285 0.33833 0.0
C61 C 0.70926 0.30534 0.34812 0.0
C62 C 0.67699 0.31542 0.32226 0.0
C63 C 0.66525 0.2926 0.28707 0.0
N64 N 0.65608 0.34887 0.32969 0.0
C65 C 0.65308 0.36657 0.36842 0.0
H66 H 0.3181 0.6718 0.18499 0.0
H67 H 0.28232 0.5677 0.25188 0.0
H68 H 0.38735 0.63561 0.29286 0.0
C69 C 0.32322 0.65145 0.21044 0.0
C70 C 0.35632 0.65753 0.23813 0.0
C71 C 0.29678 0.61896 0.21484 0.0
C72 C 0.30283 0.59279 0.24805 0.0
C73 C 0.33486 0.599 0.27682 0.0
C74 C 0.36185 0.63124 0.27153 0.0
N75 N 0.33899 0.57219 0.31051 0.0
C76 C 0.36885 0.57553 0.3417 0.0
H77 H 0.25821 0.23669 0.70512 0.0
H78 H 0.27917 0.27919 0.83059 0.0
H79 H 0.23511 0.16015 0.80951 0.0
C80 C 0.25824 0.23168 0.73871 0.0
C81 C 0.2457 0.19488 0.75399 0.0
C82 C 0.27011 0.26221 0.76632 0.0
C83 C 0.26997 0.25545 0.80961 0.0
C84 C 0.25746 0.21862 0.82559 0.0
C85 C 0.24537 0.18839 0.79751 0.0
N86 N 0.25583 0.21185 0.86953 0.0
C87 C 0.25558 0.24246 0.89783 0.0
Nd88 Nd 0.0854 1.00587 0.5332 0.0
Nd89 Nd 0.03857 0.07017 0.54006 0.0
C90 C 0.11382 0.93636 0.52926 0.0
C91 C 0.12821 0.90948 0.56141 0.0
C92 C 0.14933 0.87795 0.55007 0.0
C93 C 0.16713 0.85517 0.58106 0.0
C94 C 0.16418 0.86383 0.62379 0.0
C95 C 0.14171 0.89464 0.63488 0.0
C96 C 0.12401 0.91735 0.60396 0.0
C97 C 0.12043 0.06239 0.58644 0.0
C98 C 1.02419 1.00297 0.61532 0.0
C99 C 1.00384 0.1369 0.54267 0.0
C100 C 0.97564 0.15517 0.51366 0.0
C101 C 0.95623 0.1874 0.5265 0.0
C102 C 0.92489 0.20088 0.50176 0.0
C103 C 0.91224 0.18207 0.46392 0.0
C104 C 0.93292 0.15071 0.45047 0.0
C105 C 0.96425 0.13738 0.47511 0.0
C106 C 1.00191 1.01409 0.48801 0.0
C107 C 0.10457 0.07455 0.46176 0.0
O108 O 0.07618 0.94147 0.52818 0.0
O109 O 0.13527 0.96906 0.52618 0.0
O110 O 0.13934 0.04379 0.55962 0.0
O111 O 0.08491 0.05051 0.58519 0.0
O112 O 0.04464 0.9821 0.58976 0.0
O113 O 1.0217 0.04052 0.60513 0.0
O114 O 0.03953 0.13457 0.53036 0.0
O115 O 0.99013 0.10448 0.55946 0.0
O116 O 0.98483 0.03238 0.51634 0.0
O117 O 0.03778 0.0252 0.48786 0.0
O118 O 0.08309 0.09426 0.48752 0.0
O119 O 0.10706 0.03671 0.47017 0.0
H120 H 0.15311 0.87175 0.51732 0.0
H121 H 0.18453 0.83185 0.57154 0.0
H122 H 0.13843 0.90168 0.66751 0.0
H123 H 0.10805 0.9418 0.61328 0.0
H124 H 0.96428 0.20117 0.55644 0.0
H125 H 0.90943 0.22485 0.51321 0.0
H126 H 0.92433 0.1359 0.42124 0.0
H127 H 0.97865 0.1122 0.46485 0.0
Nd128 Nd 0.54485 1.01898 0.09206 0.0
Nd129 Nd 0.54787 0.06474 0.03313 0.0
C130 C 0.54377 0.95821 0.14421 0.0
C131 C 0.52239 0.91994 0.15005 0.0
C132 C 0.52859 0.88804 0.12436 0.0
C133 C 0.5094 0.85161 0.13141 0.0
C134 C 0.48353 0.8463 0.1642 0.0
C135 C 0.47732 0.8783 0.18977 0.0
C136 C 0.49673 0.91465 0.18291 0.0
C137 C 0.48282 0.07038 0.10666 0.0
C138 C 0.50141 0.98754 1.00535 0.0
C139 C 0.55037 0.12685 0.98274 0.0
C140 C 0.56747 0.1673 0.98412 0.0
C141 C 0.5694 0.18923 1.02127 0.0
C142 C 0.58643 0.2274 1.02191 0.0
C143 C 0.60199 0.24419 0.98547 0.0
C144 C 0.60006 0.22203 0.94842 0.0
C145 C 0.58294 0.18395 0.94779 0.0
C146 C 0.61075 1.01431 1.02085 0.0
C147 C 0.59644 0.09239 0.11839 0.0
O148 O 0.56604 0.96208 0.11237 0.0
O149 O 0.52495 0.98919 0.15019 0.0
O150 O 0.51131 0.06135 0.13254 0.0
O151 O 0.49013 0.05474 0.07105 0.0
O152 O 0.51937 0.97674 0.04016 0.0
O153 O 0.50272 0.02466 0.99629 0.0
O154 O 0.52183 0.11785 1.0073 0.0
O155 O 0.57509 0.09984 0.98207 0.0
O156 O 0.58291 0.02195 0.99346 0.0
O157 O 0.60238 0.0306 0.05554 0.0
O158 O 0.57511 0.10523 0.08666 0.0
O159 O 0.59522 0.0549 0.12453 0.0
H160 H 0.54852 0.89103 0.09899 0.0
H161 H 0.51524 0.82749 0.11147 0.0
H162 H 0.4571 0.87543 0.21486 0.0
H163 H 0.49168 0.93866 0.20338 0.0
H164 H 0.55784 0.17687 0.04979 0.0
H165 H 0.58786 0.24361 0.05102 0.0
H166 H 0.61134 0.23431 0.91973 0.0
H167 H 0.58177 0.16745 0.91887 0.0
Nd168 Nd 0.52931 0.54768 0.5905 0.0
Nd169 Nd 0.59649 0.60613 0.58099 0.0
C170 C 0.46004 0.5085 0.5888 0.0
C171 C 0.43123 0.49195 0.61743 0.0
C172 C 0.40224 0.46452 0.60174 0.0
C173 C 0.37886 0.44277 0.62909 0.0
C174 C 0.38398 0.4482 0.67277 0.0
C175 C 0.41168 0.47751 0.68821 0.0
C176 C 0.43532 0.49914 0.66068 0.0
C177 C 0.58873 0.53899 0.6507 0.0
C178 C 0.53157 0.63034 0.64326 0.0
C179 C 0.66398 0.64713 0.57336 0.0
C180 C 0.68475 0.66628 0.5386 0.0
C181 C 0.72308 0.65704 0.53093 0.0
C182 C 0.74357 0.67608 0.49903 0.0
C183 C 0.72617 0.70498 0.47445 0.0
C184 C 0.6874 0.71347 0.48168 0.0
C185 C 0.66684 0.69421 0.51321 0.0
C186 C 0.53568 0.61201 0.5214 0.0
C187 C 0.59847 0.52157 0.53536 0.0
O188 O 0.46418 0.54653 0.58561 0.0
O189 O 0.49339 0.49198 0.5902 0.0
O190 O 0.56702 0.51023 0.63396 0.0
O191 O 0.57723 0.57098 0.63722 0.0
O192 O 0.50895 0.60138 0.62588 0.0
O193 O 0.56922 0.63464 0.63596 0.0
O194 O 0.66098 0.60901 0.57343 0.0
O195 O 0.63186 0.66227 0.58399 0.0
O196 O 0.55602 0.64202 0.53706 0.0
O197 O 0.54952 0.58137 0.53489 0.0
O198 O 0.62001 0.54991 0.55487 0.0
O199 O 0.56005 0.51887 0.53802 0.0
H200 H 0.39908 0.45841 0.56842 0.0
H201 H 0.35848 0.42004 0.61597 0.0
H202 H 0.41605 0.48275 0.72159 0.0
H203 H 0.45786 0.5202 0.67321 0.0
H204 H 0.73733 0.63538 0.54992 0.0
H205 H 0.77318 0.66843 0.49394 0.0
H206 H 0.67324 0.73599 0.46394 0.0
H207 H 0.63717 0.7018 0.51813 0.0
Nd208 Nd 1.03054 0.56228 0.05695 0.0
Nd209 Nd 0.08233 0.55547 0.98681 0.0
C210 C 0.97588 0.56159 0.11226 0.0
C211 C 0.95449 0.59462 0.12691 0.0
C212 C 0.91873 0.60357 0.10654 0.0
C213 C 0.9032 0.63954 0.11304 0.0
C214 C 0.9231 0.66707 0.14016 0.0
C215 C 0.95695 0.65677 0.16319 0.0
C216 C 0.97244 0.6209 0.15674 0.0
C217 C 0.10168 0.6044 0.06836 0.0
C218 C 1.02769 0.6346 0.98475 0.0
C219 C 0.141 0.54695 0.93767 0.0
C220 C 0.17446 0.5223 0.94048 0.0
C221 C 0.18504 0.50451 0.97872 0.0
C222 C 0.20946 0.47351 0.97951 0.0
C223 C 0.22415 0.4604 0.94215 0.0
C224 C 0.2163 0.48054 0.90454 0.0
C225 C 0.19132 0.51112 0.90367 0.0
C226 C 1.00554 0.53157 0.96791 0.0
C227 C 0.087 0.48383 0.06109 0.0
O228 O 0.96843 0.55159 0.073 0.0
O229 O 1.0134 0.56223 0.12305 0.0
O230 O 0.06844 0.61817 0.07643 0.0
O231 O 0.09588 0.57049 0.05401 0.0
O232 O 1.00788 0.61471 1.01397 0.0
O233 O 0.06122 0.62016 0.97341 0.0
O234 O 0.14113 0.57529 0.96505 0.0
O235 O 0.10686 0.52748 0.93278 0.0
O236 O 1.02667 0.55264 0.94264 0.0
O237 O 1.02484 0.52358 1.00094 0.0
O238 O 0.09967 0.49754 1.02442 0.0
O239 O 0.05973 0.50346 0.07936 0.0
H240 H 0.90394 0.58373 0.08373 0.0
H241 H 0.87692 0.64663 0.09506 0.0
H242 H 0.9723 0.67708 0.18515 0.0
H243 H 0.99968 0.61478 0.17348 0.0
H244 H 0.17259 0.51299 1.00757 0.0
H245 H 0.21526 0.45851 1.00888 0.0
H246 H 0.22698 0.47072 0.87526 0.0
H247 H 0.18324 0.52435 0.87387 0.0
H248 H 0.17493 0.1908 0.31395 0.0
H249 H 0.2251 0.08569 0.27502 0.0
H250 H 0.19566 0.05054 0.33334 0.0
H251 H 0.15394 0.04696 0.39765 0.0
H252 H 0.10338 0.15189 0.43572 0.0
H253 H 0.13339 0.18734 0.37749 0.0
C254 C 0.17974 0.16014 0.31735 0.0
C255 C 0.20391 0.14241 0.2876 0.0
C256 C 0.16183 0.13886 0.35227 0.0
C257 C 0.20831 0.10209 0.2957 0.0
C258 C 0.19076 0.08122 0.3298 0.0
C259 C 0.14922 0.07763 0.39366 0.0
C260 C 0.12525 0.09569 0.42323 0.0
C261 C 0.16726 0.09891 0.35875 0.0
C262 C 0.12085 0.13591 0.41525 0.0
C263 C 0.13839 0.15669 0.38117 0.0
H264 H 0.41052 0.88125 0.86609 0.0
H265 H 0.48787 0.79724 0.91756 0.0
H266 H 0.51776 0.8462 0.9671 0.0
H267 H 0.51968 0.91216 0.99787 0.0
H268 H 0.44408 0.99682 0.94419 0.0
H269 H 0.41531 0.94825 0.89379 0.0
C270 C 0.43416 0.87379 0.88797 0.0
C271 C 0.44688 0.83561 0.88828 0.0
C272 C 0.45108 0.90206 0.91631 0.0
C273 C 0.47779 0.82646 0.91646 0.0
C274 C 0.4946 0.85436 0.94503 0.0
C275 C 0.49677 0.91991 0.97524 0.0
C276 C 0.48361 0.95794 0.97516 0.0
C277 C 0.48105 0.89207 0.94568 0.0
C278 C 0.45452 0.96774 0.94509 0.0
C279 C 0.43813 0.93999 0.91621 0.0
H280 H 0.65524 0.49527 0.83126 0.0
H281 H 0.65652 0.61986 0.84587 0.0
H282 H 0.63529 0.62701 0.77187 0.0
H283 H 0.61322 0.59736 0.70439 0.0
H284 H 0.60963 0.47239 0.69004 0.0
H285 H 0.63565 0.46569 0.76235 0.0
C286 C 0.65092 0.52388 0.81793 0.0
C287 C 0.65697 0.55704 0.84338 0.0
C288 C 0.63856 0.52761 0.77557 0.0
C289 C 0.65167 0.59407 0.82642 0.0
C290 C 0.63966 0.59811 0.78426 0.0
C291 C 0.6186 0.56869 0.71691 0.0
C292 C 0.60938 0.53538 0.69207 0.0
C293 C 0.63264 0.56505 0.75867 0.0
C294 C 0.61645 0.49844 0.70868 0.0
C295 C 0.63113 0.49458 0.75004 0.0
H296 H 0.90033 0.84639 0.15868 0.0
H297 H 0.78035 0.80316 0.1714 0.0
H298 H 0.79781 0.73651 0.1571 0.0
H299 H 0.84885 0.69018 0.14739 0.0
H300 H 0.96925 0.73434 0.13705 0.0
H301 H 0.95022 0.80098 0.14413 0.0
C302 C 0.87799 0.82236 0.15726 0.0
C303 C 0.83921 0.82914 0.16534 0.0
C304 C 0.88851 0.78434 0.15023 0.0
C305 C 0.81033 0.7982 0.16447 0.0
C306 C 0.82039 0.76021 0.15671 0.0
C307 C 0.87076 0.71448 0.14625 0.0
C308 C 0.91046 0.70736 0.14247 0.0
C309 C 0.85962 0.75282 0.15053 0.0
C310 C 0.93862 0.73906 0.14101 0.0
C311 C 0.92776 0.77717 0.14472 0.0
H312 H 0.33786 0.11885 0.22212 0.0
H313 H 0.30043 0.1784 0.10948 0.0
H314 H 0.35545 0.15473 0.07334 0.0
H315 H 0.41775 0.11655 0.0713 0.0
H316 H 0.45525 0.05923 0.18534 0.0
H317 H 0.39919 0.08151 0.22035 0.0
C318 C 0.34102 0.12692 0.18956 0.0
C319 C 0.31261 0.15178 0.1701 0.0
C320 C 0.3743 0.11286 0.16778 0.0
C321 C 0.32015 0.16058 0.12736 0.0
C322 C 0.35239 0.14646 0.10587 0.0
C323 C 0.41385 0.10824 0.10367 0.0
C324 C 0.44286 0.08463 0.12429 0.0
C325 C 0.38027 0.12241 0.12532 0.0
C326 C 0.43519 0.07641 0.16702 0.0
C327 C 0.40232 0.08953 0.18775 0.0
H328 H 0.25452 0.75199 0.74738 0.0
H329 H 0.28803 0.8617 0.80801 0.0
H330 H 0.24897 0.89604 0.75501 0.0
H331 H 0.20648 0.89476 0.69099 0.0
H332 H 0.17239 0.78518 0.62986 0.0
H333 H 0.21077 0.75071 0.68321 0.0
C334 C 0.253 0.78339 0.7488 0.0
C335 C 0.27369 0.80459 0.78115 0.0
C336 C 0.2306 0.8028 0.71819 0.0
C337 C 0.27202 0.84511 0.78313 0.0
C338 C 0.24979 0.86464 0.75293 0.0
C339 C 0.20698 0.86327 0.68964 0.0
C340 C 0.18643 0.84253 0.65666 0.0
C341 C 0.22902 0.84377 0.72032 0.0
C342 C 0.18815 0.80182 0.65481 0.0
C343 C 0.20996 0.78211 0.68536 0.0
H344 H 0.8325 0.4622 0.93017 0.0
H345 H 0.80805 0.56459 0.99952 0.0
H346 H 0.87804 0.58395 1.00652 0.0
H347 H 0.94616 0.57147 0.99359 0.0
H348 H 0.97152 0.46834 0.92689 0.0
H349 H 0.90103 0.44926 0.91819 0.0
C350 C 0.84252 0.48846 0.94731 0.0
C351 C 0.81505 0.51192 0.96426 0.0
C352 C 0.88286 0.49926 0.95156 0.0
C353 C 0.82851 0.54625 0.98574 0.0
C354 C 0.86854 0.55726 0.98995 0.0
C355 C 0.93617 0.54485 0.97724 0.0
C356 C 0.9635 0.5212 0.96089 0.0
C357 C 0.89592 0.53402 0.97296 0.0
C358 C 0.95057 0.48688 0.93951 0.0
C359 C 0.91044 0.47599 0.93472 0.0
H360 H 0.83884 0.8208 0.37595 0.0
H361 H 0.73478 0.82577 0.29452 0.0
H362 H 0.70174 0.77368 0.33508 0.0
H363 H 0.70057 0.73154 0.39768 0.0
H364 H 0.80333 0.73159 0.48209 0.0
H365 H 0.83888 0.77651 0.43599 0.0
C366 C 0.80889 0.81051 0.36709 0.0
C367 C 0.78899 0.82758 0.33282 0.0
C368 C 0.78986 0.78149 0.39111 0.0
C369 C 0.75067 0.81313 0.32086 0.0
C370 C 0.73171 0.78355 0.34419 0.0
C371 C 0.73074 0.74136 0.40601 0.0
C372 C 0.74904 0.72837 0.44357 0.0
C373 C 0.7507 0.7683 0.38005 0.0
C374 C 0.78851 0.74067 0.45326 0.0
C375 C 0.80882 0.76672 0.42711 0.0
H376 H 0.13708 0.33776 0.18321 0.0
H377 H 0.21179 0.31571 0.08247 0.0
H378 H 0.18722 0.37169 0.04371 0.0
H379 H 0.14409 0.42968 0.03673 0.0
H380 H 0.06918 0.45063 0.13791 0.0
H381 H 0.0934 0.3945 0.17585 0.0
C382 C 0.14791 0.34458 0.1525 0.0
C383 C 0.17675 0.32044 0.13652 0.0
C384 C 0.13319 0.37794 0.12947 0.0
C385 C 0.18975 0.33196 0.0965 0.0
C386 C 0.17549 0.36473 0.07392 0.0
C387 C 0.13268 0.42226 0.06703 0.0
C388 C 0.10376 0.44637 0.0833 0.0
C389 C 0.14712 0.38845 0.08974 0.0
C390 C 0.09074 0.43429 0.1232 0.0
C391 C 0.10489 0.40146 0.14547 0.0
H392 H 0.65197 0.42447 0.99506 0.0
H393 H 0.74738 0.38732 0.92474 0.0
H394 H 0.72098 0.31961 0.929 0.0
H395 H 0.66981 0.27121 0.95103 0.0
H396 H 0.57394 0.30836 1.02064 0.0
H397 H 0.60158 0.37579 1.01856 0.0
C398 C 0.66685 0.40154 0.98051 0.0
C399 C 0.70147 0.41091 0.95946 0.0
C400 C 0.65146 0.36271 0.98301 0.0
C401 C 0.72085 0.38083 0.9414 0.0
C402 C 0.70566 0.34215 0.94365 0.0
C403 C 0.65489 0.29412 0.96558 0.0
C404 C 0.61976 0.28483 0.98574 0.0
C405 C 0.67085 0.3328 0.96409 0.0
C406 C 0.60116 0.3147 1.00518 0.0
C407 C 0.61683 0.35328 1.00378 0.0
H408 H 0.92679 0.92904 0.32561 0.0
H409 H 0.82306 0.97531 0.37161 0.0
H410 H 0.86237 1.00844 0.42864 0.0
H411 H 0.92477 1.01883 0.46872 0.0
H412 H 1.02913 0.97201 0.42444 0.0
H413 H 0.99103 0.94388 0.36341 0.0
C414 C 0.91322 0.94739 0.3475 0.0
C415 C 0.87242 0.95045 0.34443 0.0
C416 C 0.93586 0.96521 0.38091 0.0
C417 C 0.8546 0.97329 0.37331 0.0
C418 C 0.87696 0.99175 0.40607 0.0
C419 C 0.93924 1.00245 0.44575 0.0
C420 C 0.97952 0.99689 0.45126 0.0
C421 C 0.91735 0.98691 0.41083 0.0
C422 C 0.99801 0.97623 0.42093 0.0
C423 C 0.9763 0.96035 0.38604 0.0
H424 H 0.4848 0.76417 0.76307 0.0
H425 H 0.40218 0.67183 0.8016 0.0
H426 H 0.42698 0.62768 0.75139 0.0
H427 H 0.47115 0.61516 0.695 0.0
H428 H 0.55704 0.7056 0.65984 0.0
H429 H 0.53221 0.7502 0.71009 0.0
C430 C 0.47262 0.73425 0.76099 0.0
C431 C 0.44109 0.7218 0.78575 0.0
C432 C 0.48742 0.70855 0.73224 0.0
C433 C 0.42574 0.68275 0.78231 0.0
C434 C 0.44001 0.65728 0.75364 0.0
C435 C 0.48425 0.6447 0.69822 0.0
C436 C 0.51557 0.65716 0.67337 0.0
C437 C 0.47045 0.66997 0.72798 0.0
C438 C 0.53278 0.6953 0.6785 0.0
C439 C 0.51863 0.72085 0.70729 0.0
H440 H 0.9323 0.96615 0.79003 0.0
H441 H 0.96625 0.84957 0.76814 0.0
H442 H 0.99846 0.87207 0.70542 0.0
H443 H 1.01858 0.92505 0.65288 0.0
H444 H 0.98325 0.04107 0.67384 0.0
H445 H 0.95148 1.01869 0.73736 0.0
C446 C 0.94644 0.94506 0.77196 0.0
C447 C 0.94603 0.90518 0.78703 0.0
C448 C 0.96555 0.95844 0.73381 0.0
C449 C 0.96562 0.88023 0.76065 0.0
C450 C 0.98432 0.89326 0.72341 0.0
C451 C 1.00404 0.94583 0.67102 0.0
C452 C 1.00439 0.98574 0.65632 0.0
C453 C 0.98487 0.9324 0.70915 0.0
C454 C 0.98453 1.01062 0.6823 0.0
C455 C 0.9659 0.99758 0.71953 0.0
H456 H 0.68224 0.18003 0.27357 0.0
H457 H 0.65386 0.28088 0.19982 0.0
H458 H 0.62499 0.2385 0.14367 0.0
H459 H 0.60535 0.17237 0.11652 0.0
H460 H 0.6362 0.07223 0.19023 0.0
H461 H 0.66724 0.11478 0.24461 0.0
C462 C 0.67048 0.19292 0.24495 0.0
C463 C 0.6701 0.23376 0.24135 0.0
C464 C 0.65423 0.16841 0.21256 0.0
C465 C 0.65398 0.24961 0.20405 0.0
C466 C 0.63762 0.22536 0.17171 0.0
C467 C 0.61914 0.15989 0.14431 0.0
C468 C 0.61813 0.11908 0.14924 0.0
C469 C 0.63711 0.18465 0.17581 0.0
C470 C 0.63635 0.10347 0.18547 0.0
C471 C 0.65411 0.12781 0.21677 0.0
H472 H 0.40797 0.63928 0.37574 0.0
H473 H 0.3967 0.51376 0.38137 0.0
H474 H 0.44744 0.51406 0.4383 0.0
H475 H 0.49476 0.54992 0.48612 0.0
H476 H 0.50701 0.67556 0.4813 0.0
H477 H 0.456 0.67558 0.42444 0.0
C478 C 0.41685 0.61215 0.38957 0.0
C479 C 0.39908 0.57651 0.37478 0.0
C480 C 0.44601 0.61264 0.42229 0.0
C481 C 0.41033 0.54141 0.39255 0.0
C482 C 0.43921 0.5416 0.42501 0.0
C483 C 0.4863 0.57733 0.47261 0.0
C484 C 0.50461 0.6127 0.48768 0.0
C485 C 0.45722 0.57702 0.44009 0.0
C486 C 0.49327 0.64798 0.47009 0.0
C487 C 0.46419 0.64798 0.43761 0.0
H488 H 0.30231 0.30801 0.89372 0.0
H489 H 0.1998 0.2564 0.95135 0.0
H490 H 0.18444 0.32058 0.97665 0.0
H491 H 0.19418 0.39188 0.97163 0.0
H492 H 0.29281 0.44403 0.90763 0.0
H493 H 0.31555 0.37927 0.8946 0.0
C494 C 0.27699 0.31089 0.91238 0.0
C495 C 0.25194 0.278 0.9206 0.0
C496 C 0.26739 0.34801 0.92485 0.0
C497 C 0.21942 0.28161 0.94497 0.0
C498 C 0.21051 0.31826 0.95905 0.0
C499 C 0.22139 0.38901 0.95616 0.0
C500 C 0.24205 0.42247 0.9409 0.0
C501 C 0.23342 0.35178 0.94771 0.0
C502 C 0.27657 0.41854 0.91965 0.0
C503 C 0.28947 0.3816 0.91218 0.0
H504 H 0.78846 0.95222 0.99998 0.0
H505 H 0.74131 0.92676 0.8748 0.0
H506 H 0.67848 0.95121 0.89295 0.0
H507 H 0.6345 0.98164 0.94403 0.0
H508 H 0.68083 1.00657 0.06958 0.0
H509 H 0.74359 0.98135 0.0519 0.0
C510 C 0.76454 0.95148 0.97641 0.0
C511 C 0.77145 0.93636 0.93526 0.0
C512 C 0.727 0.96618 0.98738 0.0
C513 C 0.73861 0.93711 0.90644 0.0
C514 C 0.70196 0.95155 0.91702 0.0
C515 C 0.65806 0.98168 0.96799 0.0
C516 C 0.65092 0.99696 1.00896 0.0
C517 C 0.69534 0.96646 0.95734 0.0
C518 C 0.6835 0.99573 0.03814 0.0
C519 C 0.72018 0.981 1.02776 0.0
H520 H 0.75191 0.20022 0.36048 0.0
H521 H 0.78827 0.32231 0.37537 0.0
H522 H 0.84705 0.3053 0.41618 0.0
H523 H 0.8895 0.25553 0.44576 0.0
H524 H 0.85341 0.13363 0.42862 0.0
H525 H 0.79396 0.15086 0.38957 0.0
C526 C 0.77282 0.22321 0.37224 0.0
C527 C 0.7655 0.26255 0.3646 0.0
C528 C 0.80697 0.21323 0.39498 0.0
C529 C 0.79269 0.2918 0.38109 0.0
C530 C 0.82656 0.28208 0.40418 0.0
C531 C 0.86851 0.23275 0.43364 0.0
C532 C 0.87619 0.19331 0.43989 0.0
C533 C 0.83416 0.24288 0.41112 0.0
C534 C 0.84873 0.1642 0.42368 0.0
C535 C 0.81452 0.17403 0.40158 0.0
H536 H 0.24094 0.66853 0.19146 0.0
H537 H 0.27858 0.55355 0.16904 0.0
H538 H 0.22381 0.54103 0.11764 0.0
H539 H 0.16403 0.56142 0.08193 0.0
H540 H 0.12202 0.67392 0.10817 0.0
H541 H 0.18035 0.68937 0.15461 0.0
C542 C 0.23708 0.64087 0.17509 0.0
C543 C 0.26345 0.61186 0.18397 0.0
C544 C 0.20506 0.63364 0.14622 0.0
C545 C 0.25827 0.57603 0.16291 0.0
C546 C 0.22717 0.56899 0.13344 0.0
C547 C 0.16776 0.58956 0.0974 0.0
C548 C 0.1388 0.61657 0.0917 0.0
C549 C 0.20024 0.59742 0.12519 0.0
C550 C 0.14401 0.65275 0.11209 0.0
C551 C 0.17717 0.66144 0.13878 0.0
H552 H 0.33524 0.30775 0.79009 0.0
H553 H 0.23276 0.30373 0.70543 0.0
H554 H 0.25639 0.36495 0.67305 0.0
H555 H 0.30896 0.41589 0.66452 0.0
H556 H 0.41403 0.41668 0.74544 0.0
H557 H 0.38572 0.36174 0.78491 0.0
C558 C 0.31783 0.32068 0.76501 0.0
C559 C 0.28263 0.30112 0.74972 0.0
C560 C 0.33193 0.35545 0.74608 0.0
C561 C 0.26034 0.31799 0.71713 0.0
C562 C 0.27373 0.35302 0.69878 0.0
C563 C 0.32564 0.40417 0.69091 0.0
C564 C 0.3638 0.42015 0.70152 0.0
C565 C 0.30998 0.37141 0.71225 0.0
C566 C 0.3845 0.40527 0.73661 0.0
C567 C 0.36853 0.37345 0.75894 0.0
H568 H 0.99322 0.7958 0.87946 0.0
H569 H 0.8862 0.78593 0.94641 0.0
H570 H 0.9077 0.72742 0.98117 0.0
H571 H 0.95677 0.67545 0.99423 0.0
H572 H 0.06277 0.68442 0.92609 0.0
H573 H 0.0417 0.74389 0.89182 0.0
C574 C 0.97387 0.78133 0.90136 0.0
C575 C 0.93711 0.79826 0.90911 0.0
C576 C 0.98656 0.74577 0.92203 0.0
C577 C 0.91454 0.77658 0.93877 0.0
C578 C 0.92694 0.74189 0.95909 0.0
C579 C 0.97568 0.69013 0.97198 0.0
C580 C 1.01234 0.67341 0.9639 0.0
C581 C 0.96297 0.72571 0.95133 0.0
C582 C 1.03488 0.69474 0.93417 0.0
C583 C 1.02257 0.72955 0.91408 0.0
H584 H 0.3827 0.68582 0.16424 0.0
H585 H 0.39431 0.70523 0.29796 0.0
H586 H 0.43749 0.76355 0.2869 0.0
H587 H 0.46823 0.81131 0.23905 0.0
H588 H 0.4515 0.79457 0.10517 0.0
H589 H 0.414 0.73289 0.11659 0.0
C590 C 0.39436 0.70297 0.19101 0.0
C591 C 0.3848 0.6914 0.23183 0.0
C592 C 0.41816 0.73702 0.18439 0.0
C593 C 0.40127 0.7133 0.2662 0.0
C594 C 0.42573 0.74684 0.25988 0.0
C595 C 0.45615 0.79433 0.21234 0.0
C596 C 0.46249 0.80778 0.17132 0.0
C597 C 0.43372 0.75936 0.21909 0.0
C598 C 0.44746 0.78484 0.13709 0.0
C599 C 0.42574 0.74966 0.14358 0.0
H600 H 0.17208 0.16167 0.74763 0.0
H601 H 0.2842 0.16293 0.6915 0.0
H602 H 0.25566 0.12068 0.6347 0.0
H603 H 0.19756 0.08679 0.59881 0.0
H604 H 0.08474 0.08932 0.65345 0.0
H605 H 0.11454 0.12679 0.71276 0.0
C606 C 0.19029 0.15191 0.72337 0.0
C607 C 0.23011 0.16473 0.72376 0.0
C608 C 0.17339 0.12887 0.69022 0.0
C609 C 0.25347 0.15289 0.69179 0.0
C610 C 0.23712 0.12904 0.65926 0.0
C611 C 0.17963 0.09553 0.62379 0.0
C612 C 0.13908 0.08542 0.62174 0.0
C613 C 0.19692 0.11747 0.65771 0.0
C614 C 0.11605 0.0969 0.65423 0.0
C615 C 0.13306 0.11822 0.68826 0.0
H616 H 0.692 0.42913 0.40606 0.0
H617 H 0.58802 0.35134 0.41032 0.0
H618 H 0.56236 0.39169 0.46425 0.0
H619 H 0.56726 0.4516 0.50613 0.0
H620 H 0.67137 0.52968 0.50296 0.0
H621 H 0.69938 0.48677 0.45307 0.0
C622 C 0.66413 0.42077 0.41956 0.0
C623 C 0.64188 0.38737 0.40474 0.0
C624 C 0.64945 0.44438 0.45037 0.0
C625 C 0.60565 0.37684 0.42177 0.0
C626 C 0.59091 0.40001 0.45235 0.0
C627 C 0.5962 0.45915 0.49475 0.0
C628 C 0.61698 0.49404 0.50795 0.0
C629 C 0.61216 0.43428 0.46624 0.0
C630 C 0.65467 0.50306 0.49328 0.0
C631 C 0.67069 0.47856 0.46464 0.0
loop_
_geom_bond_atom_site_label_1
_geom_bond_atom_site_label_2
_geom_bond_distance
_geom_bond_site_symmetry_2
_ccdc_geom_bond_type
H0 C3 0.929 . S
H1 C6 0.929 . S
H2 C8 0.930 . S
C3 H0 0.929 . S
C3 C4 1.398 . S
C3 C5 1.396 . S
C4 C3 1.398 . S
C4 C8 1.407 . S
C5 C3 1.396 . S
C5 C6 1.394 . S
C6 H1 0.929 . S
C6 C5 1.394 . S
C6 C7 1.382 . S
C7 C6 1.382 . S
C7 C8 1.392 . S
C7 N9 1.420 . S
C8 H2 0.930 . S
C8 C4 1.407 . S
C8 C7 1.392 . S
N9 C7 1.420 . S
N9 C10 1.244 . S
C10 N9 1.244 . S
H11 C14 0.929 . S
H12 C17 0.929 . S
H13 C19 0.930 . S
C14 H11 0.929 . S
C14 C15 1.398 . S
C14 C16 1.396 . S
C15 C14 1.398 . S
C15 C19 1.407 . S
C16 C14 1.396 . S
C16 C17 1.394 . S
C17 H12 0.929 . S
C17 C16 1.394 . S
C17 C18 1.382 . S
C18 C17 1.382 . S
C18 C19 1.392 . S
C18 N20 1.420 . S
C19 H13 0.930 . S
C19 C15 1.407 . S
C19 C18 1.392 . S
N20 C18 1.420 . S
N20 C21 1.244 . S
C21 N20 1.244 . S
H22 C25 0.929 . S
H23 C28 0.929 . S
H24 C30 0.930 . S
C25 H22 0.929 . S
C25 C26 1.398 . S
C25 C27 1.396 . S
C26 C25 1.398 . S
C26 C30 1.407 . S
C27 C25 1.396 . S
C27 C28 1.394 . S
C28 H23 0.929 . S
C28 C27 1.394 . S
C28 C29 1.382 . S
C29 C28 1.382 . S
C29 C30 1.392 . S
C29 N31 1.420 . S
C30 H24 0.930 . S
C30 C26 1.407 . S
C30 C29 1.392 . S
N31 C29 1.420 . S
N31 C32 1.244 . S
C32 N31 1.244 . S
H33 C36 0.929 . S
H34 C39 0.929 . S
H35 C41 0.930 . S
C36 H33 0.929 . S
C36 C37 1.398 . S
C36 C38 1.396 . S
C37 C36 1.398 . S
C37 C41 1.407 . S
C38 C36 1.396 . S
C38 C39 1.394 . S
C39 H34 0.929 . S
C39 C38 1.394 . S
C39 C40 1.382 . S
C40 C39 1.382 . S
C40 C41 1.392 . S
C40 N42 1.420 . S
C41 H35 0.930 . S
C41 C37 1.407 . S
C41 C40 1.392 . S
N42 C40 1.420 . S
N42 C43 1.244 . S
C43 N42 1.244 . S
H44 C47 0.929 . S
H45 C50 0.929 . S
H46 C52 0.930 . S
C47 H44 0.929 . S
C47 C48 1.398 . S
C47 C49 1.396 . S
C48 C47 1.398 . S
C48 C52 1.407 . S
C49 C47 1.396 . S
C49 C50 1.394 . S
C50 H45 0.929 . S
C50 C49 1.394 . S
C50 C51 1.382 . S
C51 C50 1.382 . S
C51 C52 1.392 . S
C51 N53 1.420 . S
C52 H46 0.930 . S
C52 C48 1.407 . S
C52 C51 1.392 . S
N53 C51 1.420 . S
N53 C54 1.244 . S
C54 N53 1.244 . S
H55 C58 0.929 . S
H56 C61 0.929 . S
H57 C63 0.930 . S
C58 H55 0.929 . S
C58 C59 1.398 . S
C58 C60 1.396 . S
C59 C58 1.398 . S
C59 C63 1.407 . S
C60 C58 1.396 . S
C60 C61 1.394 . S
C61 H56 0.929 . S
C61 C60 1.394 . S
C61 C62 1.382 . S
C62 C61 1.382 . S
C62 C63 1.392 . S
C62 N64 1.420 . S
C63 H57 0.930 . S
C63 C59 1.407 . S
C63 C62 1.392 . S
N64 C62 1.420 . S
N64 C65 1.244 . S
C65 N64 1.244 . S
H66 C69 0.929 . S
H67 C72 0.929 . S
H68 C74 0.930 . S
C69 H66 0.929 . S
C69 C70 1.398 . S
C69 C71 1.396 . S
C70 C69 1.398 . S
C70 C74 1.407 . S
C71 C69 1.396 . S
C71 C72 1.394 . S
C72 H67 0.929 . S
C72 C71 1.394 . S
C72 C73 1.382 . S
C73 C72 1.382 . S
C73 C74 1.392 . S
C73 N75 1.420 . S
C74 H68 0.930 . S
C74 C70 1.407 . S
C74 C73 1.392 . S
N75 C73 1.420 . S
N75 C76 1.244 . S
C76 N75 1.244 . S
H77 C80 0.929 . S
H78 C83 0.929 . S
H79 C85 0.930 . S
C80 H77 0.929 . S
C80 C81 1.398 . S
C80 C82 1.396 . S
C81 C80 1.398 . S
C81 C85 1.407 . S
C82 C80 1.396 . S
C82 C83 1.394 . S
C83 H78 0.929 . S
C83 C82 1.394 . S
C83 C84 1.382 . S
C84 C83 1.382 . S
C84 C85 1.392 . S
C84 N86 1.420 . S
C85 H79 0.930 . S
C85 C81 1.407 . S
C85 C84 1.392 . S
N86 C84 1.420 . S
N86 C87 1.244 . S
C87 N86 1.244 . S
Nd88 C90 2.836 . S
Nd88 O108 2.500 . S
Nd88 O109 2.492 . S
Nd88 O110 2.487 1_565 S
Nd88 O111 2.682 1_565 S
Nd88 O112 2.410 . S
Nd88 O117 2.414 1_455 S
Nd88 O119 2.424 1_565 S
Nd89 C99 2.836 . S
Nd89 O111 2.414 1_655 S
Nd89 O113 2.424 1_545 S
Nd89 O114 2.500 . S
Nd89 O115 2.492 . S
Nd89 O116 2.487 1_545 S
Nd89 O117 2.682 1_545 S
Nd89 O118 2.410 . S
C90 Nd88 2.836 . S
C90 C91 1.498 . S
C90 O108 1.258 . S
C90 O109 1.239 . S
C91 C90 1.498 . S
C91 C92 1.366 . S
C91 C96 1.407 . S
C92 C91 1.366 . S
C92 C93 1.392 . S
C92 H120 0.930 . S
C93 C92 1.392 . S
C93 C94 1.398 . S
C93 H121 0.929 . S
C94 C93 1.398 . S
C94 C95 1.352 . S
C95 C94 1.352 . S
C95 C96 1.384 . S
C95 H122 0.930 . S
C96 C91 1.407 . S
C96 C95 1.384 . S
C96 H123 0.929 . S
C97 O110 1.241 . S
C97 O111 1.273 . S
C98 O112 1.251 1_655 S
C98 O113 1.268 . S
C99 Nd89 2.836 . S
C99 C100 1.498 . S
C99 O114 1.258 . S
C99 O115 1.239 . S
C100 C99 1.498 . S
C100 C101 1.366 . S
C100 C105 1.407 . S
C101 C100 1.366 . S
C101 C102 1.392 . S
C101 H124 0.930 . S
C102 C101 1.392 . S
C102 C103 1.398 . S
C102 H125 0.929 . S
C103 C102 1.398 . S
C103 C104 1.352 . S
C104 C103 1.352 . S
C104 C105 1.384 . S
C104 H126 0.930 . S
C105 C100 1.407 . S
C105 C104 1.384 . S
C105 H127 0.929 . S
C106 O116 1.241 . S
C106 O117 1.273 . S
C107 O118 1.251 1_455 S
C107 O119 1.268 . S
O108 Nd88 2.500 . S
O108 C90 1.258 . S
O109 Nd88 2.492 . S
O109 C90 1.239 . S
O110 Nd88 2.487 1_545 S
O110 C97 1.241 . S
O111 Nd88 2.682 1_545 S
O111 Nd89 2.414 1_455 S
O111 C97 1.273 . S
O112 Nd88 2.410 . S
O112 C98 1.251 1_455 S
O113 Nd89 2.424 1_565 S
O113 C98 1.268 . S
O114 Nd89 2.500 . S
O114 C99 1.258 . S
O115 Nd89 2.492 . S
O115 C99 1.239 . S
O116 Nd89 2.487 1_565 S
O116 C106 1.241 . S
O117 Nd88 2.414 1_655 S
O117 Nd89 2.682 1_565 S
O117 C106 1.273 . S
O118 Nd89 2.410 . S
O118 C107 1.251 1_655 S
O119 Nd88 2.424 1_545 S
O119 C107 1.268 . S
H120 C92 0.930 . S
H121 C93 0.929 . S
H122 C95 0.930 . S
H123 C96 0.929 . S
H124 C101 0.930 . S
H125 C102 0.929 . S
H126 C104 0.930 . S
H127 C105 0.929 . S
Nd128 C130 2.836 . S
Nd128 O148 2.500 . S
Nd128 O149 2.492 . S
Nd128 O150 2.487 1_565 S
Nd128 O151 2.682 1_565 S
Nd128 O152 2.410 . S
Nd128 O157 2.414 . S
Nd128 O159 2.424 1_565 S
Nd129 C139 2.836 . S
Nd129 O151 2.414 1_556 S
Nd129 O153 2.424 1_545 S
Nd129 O154 2.500 1_556 S
Nd129 O155 2.492 . S
Nd129 O156 2.487 . S
Nd129 O157 2.658 1_546 S
Nd129 O158 2.410 1_556 S
C130 Nd128 2.836 . S
C130 C131 1.498 . S
C130 O148 1.258 . S
C130 O149 1.239 . S
C131 C130 1.498 . S
C131 C132 1.366 . S
C131 C136 1.407 . S
C132 C131 1.366 . S
C132 C133 1.392 . S
C132 H160 0.930 . S
C133 C132 1.392 . S
C133 C134 1.398 . S
C133 H161 0.929 . S
C134 C133 1.398 . S
C134 C135 1.352 . S
C135 C134 1.352 . S
C135 C136 1.384 . S
C135 H162 0.930 . S
C136 C131 1.407 . S
C136 C135 1.384 . S
C136 H163 0.929 . S
C137 O150 1.241 . S
C137 O151 1.273 . S
C138 O152 1.251 1_556 S
C138 O153 1.268 . S
C139 Nd129 2.836 . S
C139 C140 1.498 . S
C139 O154 1.259 1_556 S
C139 O155 1.239 . S
C140 C139 1.498 . S
C140 C141 1.366 . S
C140 C145 1.407 . S
C141 C140 1.366 . S
C141 C142 1.392 . S
C141 H164 0.930 1_556 S
C142 C141 1.392 . S
C142 C143 1.398 . S
C142 H165 0.929 1_556 S
C143 C142 1.398 . S
C143 C144 1.352 . S
C144 C143 1.352 . S
C144 C145 1.384 . S
C144 H166 0.930 . S
C145 C140 1.407 . S
C145 C144 1.384 . S
C145 H167 0.929 . S
C146 O156 1.239 1_564 S
C146 O157 1.276 . S
C147 O158 1.251 . S
C147 O159 1.268 . S
O148 Nd128 2.500 . S
O148 C130 1.258 . S
O149 Nd128 2.492 . S
O149 C130 1.239 . S
O150 Nd128 2.487 1_545 S
O150 C137 1.241 . S
O151 Nd128 2.682 1_545 S
O151 Nd129 2.414 1_554 S
O151 C137 1.273 . S
O152 Nd128 2.410 . S
O152 C138 1.251 1_554 S
O153 Nd129 2.424 1_565 S
O153 C138 1.268 . S
O154 Nd129 2.500 1_554 S
O154 C139 1.259 1_554 S
O155 Nd129 2.492 . S
O155 C139 1.239 . S
O156 Nd129 2.487 . S
O156 C146 1.239 1_546 S
O157 Nd128 2.414 . S
O157 Nd129 2.658 1_564 S
O157 C146 1.276 . S
O158 Nd129 2.410 1_554 S
O158 C147 1.251 . S
O159 Nd128 2.424 1_545 S
O159 C147 1.268 . S
H160 C132 0.930 . S
H161 C133 0.929 . S
H162 C135 0.930 . S
H163 C136 0.929 . S
H164 C141 0.930 1_554 S
H165 C142 0.929 1_554 S
H166 C144 0.930 . S
H167 C145 0.929 . S
Nd168 C170 2.836 . S
Nd168 O188 2.500 . S
Nd168 O189 2.492 . S
Nd168 O190 2.487 . S
Nd168 O191 2.682 . S
Nd168 O192 2.410 . S
Nd168 O197 2.414 . S
Nd168 O199 2.424 . S
Nd169 C179 2.836 . S
Nd169 O191 2.414 . S
Nd169 O193 2.424 . S
Nd169 O194 2.500 . S
Nd169 O195 2.492 . S
Nd169 O196 2.487 . S
Nd169 O197 2.682 . S
Nd169 O198 2.410 . S
C170 Nd168 2.836 . S
C170 C171 1.498 . S
C170 O188 1.258 . S
C170 O189 1.239 . S
C171 C170 1.498 . S
C171 C172 1.366 . S
C171 C176 1.407 . S
C172 C171 1.366 . S
C172 C173 1.392 . S
C172 H200 0.930 . S
C173 C172 1.392 . S
C173 C174 1.398 . S
C173 H201 0.929 . S
C174 C173 1.398 . S
C174 C175 1.352 . S
C175 C174 1.352 . S
C175 C176 1.384 . S
C175 H202 0.930 . S
C176 C171 1.407 . S
C176 C175 1.384 . S
C176 H203 0.929 . S
C177 O190 1.241 . S
C177 O191 1.273 . S
C178 O192 1.251 . S
C178 O193 1.268 . S
C179 Nd169 2.836 . S
C179 C180 1.498 . S
C179 O194 1.258 . S
C179 O195 1.239 . S
C180 C179 1.498 . S
C180 C181 1.366 . S
C180 C185 1.407 . S
C181 C180 1.366 . S
C181 C182 1.392 . S
C181 H204 0.930 . S
C182 C181 1.392 . S
C182 C183 1.398 . S
C182 H205 0.929 . S
C183 C182 1.398 . S
C183 C184 1.352 . S
C184 C183 1.352 . S
C184 C185 1.384 . S
C184 H206 0.930 . S
C185 C180 1.407 . S
C185 C184 1.384 . S
C185 H207 0.929 . S
C186 O196 1.241 . S
C186 O197 1.273 . S
C187 O198 1.251 . S
C187 O199 1.268 . S
O188 Nd168 2.500 . S
O188 C170 1.258 . S
O189 Nd168 2.492 . S
O189 C170 1.239 . S
O190 Nd168 2.487 . S
O190 C177 1.241 . S
O191 Nd168 2.682 . S
O191 Nd169 2.414 . S
O191 C177 1.273 . S
O192 Nd168 2.410 . S
O192 C178 1.251 . S
O193 Nd169 2.424 . S
O193 C178 1.268 . S
O194 Nd169 2.500 . S
O194 C179 1.258 . S
O195 Nd169 2.492 . S
O195 C179 1.239 . S
O196 Nd169 2.487 . S
O196 C186 1.241 . S
O197 Nd168 2.414 . S
O197 Nd169 2.682 . S
O197 C186 1.273 . S
O198 Nd169 2.410 . S
O198 C187 1.251 . S
O199 Nd168 2.424 . S
O199 C187 1.268 . S
H200 C172 0.930 . S
H201 C173 0.929 . S
H202 C175 0.930 . S
H203 C176 0.929 . S
H204 C181 0.930 . S
H205 C182 0.929 . S
H206 C184 0.930 . S
H207 C185 0.929 . S
Nd208 C210 2.836 1_455 S
Nd208 O228 2.500 1_455 S
Nd208 O229 2.492 . S
Nd208 O230 2.487 . S
Nd208 O231 2.682 . S
Nd208 O232 2.410 . S
Nd208 O237 2.414 1_454 S
Nd208 O239 2.424 . S
Nd209 C219 2.836 . S
Nd209 O231 2.414 1_556 S
Nd209 O233 2.424 . S
Nd209 O234 2.500 . S
Nd209 O235 2.492 . S
Nd209 O236 2.487 1_455 S
Nd209 O237 2.682 1_455 S
Nd209 O238 2.410 . S
C210 Nd208 2.836 1_655 S
C210 C211 1.498 . S
C210 O228 1.258 . S
C210 O229 1.239 1_655 S
C211 C210 1.498 . S
C211 C212 1.366 . S
C211 C216 1.407 . S
C212 C211 1.366 . S
C212 C213 1.392 . S
C212 H240 0.930 . S
C213 C212 1.392 . S
C213 C214 1.398 . S
C213 H241 0.929 . S
C214 C213 1.398 . S
C214 C215 1.352 . S
C215 C214 1.352 . S
C215 C216 1.384 . S
C215 H242 0.930 . S
C216 C211 1.407 . S
C216 C215 1.384 . S
C216 H243 0.929 1_655 S
C217 O230 1.241 . S
C217 O231 1.273 . S
C218 O232 1.251 1_556 S
C218 O233 1.268 . S
C219 Nd209 2.836 . S
C219 C220 1.498 . S
C219 O234 1.258 . S
C219 O235 1.239 . S
C220 C219 1.498 . S
C220 C221 1.366 . S
C220 C225 1.407 . S
C221 C220 1.366 . S
C221 C222 1.392 . S
C221 H244 0.930 . S
C222 C221 1.392 . S
C222 C223 1.398 . S
C222 H245 0.929 . S
C223 C222 1.398 . S
C223 C224 1.352 . S
C224 C223 1.352 . S
C224 C225 1.384 . S
C224 H246 0.930 . S
C225 C220 1.407 . S
C225 C224 1.384 . S
C225 H247 0.929 . S
C226 O236 1.241 . S
C226 O237 1.273 . S
C227 O238 1.251 1_554 S
C227 O239 1.268 . S
O228 Nd208 2.500 1_655 S
O228 C210 1.258 . S
O229 Nd208 2.492 . S
O229 C210 1.239 1_455 S
O230 Nd208 2.487 . S
O230 C217 1.241 . S
O231 Nd208 2.682 . S
O231 Nd209 2.414 1_554 S
O231 C217 1.273 . S
O232 Nd208 2.410 . S
O232 C218 1.251 1_554 S
O233 Nd209 2.424 . S
O233 C218 1.268 . S
O234 Nd209 2.500 . S
O234 C219 1.258 . S
O235 Nd209 2.492 . S
O235 C219 1.239 . S
O236 Nd209 2.487 1_655 S
O236 C226 1.241 . S
O237 Nd208 2.414 1_656 S
O237 Nd209 2.682 1_655 S
O237 C226 1.273 . S
O238 Nd209 2.410 . S
O238 C227 1.251 1_556 S
O239 Nd208 2.424 . S
O239 C227 1.268 . S
H240 C212 0.930 . S
H241 C213 0.929 . S
H242 C215 0.930 . S
H243 C216 0.929 1_455 S
H244 C221 0.930 . S
H245 C222 0.929 . S
H246 C224 0.930 . S
H247 C225 0.929 . S
H248 C254 0.930 . S
H249 C257 0.930 . S
H250 C258 0.930 . S
H251 C259 0.930 . S
H252 C262 0.930 . S
H253 C263 0.930 . S
C254 H248 0.930 . S
C254 C255 1.355 . S
C254 C256 1.415 . S
C255 C254 1.355 . S
C255 C257 1.419 . S
C256 C254 1.415 . S
C256 C261 1.425 . S
C256 C263 1.409 . S
C257 H249 0.930 . S
C257 C255 1.419 . S
C257 C258 1.362 . S
C258 H250 0.930 . S
C258 C257 1.362 . S
C258 C261 1.409 . S
C259 H251 0.930 . S
C259 C260 1.355 . S
C259 C261 1.415 . S
C260 C259 1.355 . S
C260 C262 1.419 . S
C261 C256 1.425 . S
C261 C258 1.409 . S
C261 C259 1.415 . S
C262 H252 0.930 . S
C262 C260 1.419 . S
C262 C263 1.362 . S
C263 H253 0.930 . S
C263 C256 1.409 . S
C263 C262 1.362 . S
H264 C270 0.930 . S
H265 C273 0.930 . S
H266 C274 0.930 . S
H267 C275 0.930 . S
H268 C278 0.930 . S
H269 C279 0.930 . S
C270 H264 0.930 . S
C270 C271 1.355 . S
C270 C272 1.415 . S
C271 C270 1.355 . S
C271 C273 1.419 . S
C272 C270 1.415 . S
C272 C277 1.425 . S
C272 C279 1.409 . S
C273 H265 0.930 . S
C273 C271 1.419 . S
C273 C274 1.362 . S
C274 H266 0.930 . S
C274 C273 1.362 . S
C274 C277 1.409 . S
C275 H267 0.930 . S
C275 C276 1.355 . S
C275 C277 1.415 . S
C276 C275 1.355 . S
C276 C278 1.419 . S
C277 C272 1.425 . S
C277 C274 1.409 . S
C277 C275 1.415 . S
C278 H268 0.930 . S
C278 C276 1.419 . S
C278 C279 1.362 . S
C279 H269 0.930 . S
C279 C272 1.409 . S
C279 C278 1.362 . S
H280 C286 0.930 . S
H281 C289 0.930 . S
H282 C290 0.930 . S
H283 C291 0.930 . S
H284 C294 0.930 . S
H285 C295 0.930 . S
C286 H280 0.930 . S
C286 C287 1.355 . S
C286 C288 1.415 . S
C287 C286 1.355 . S
C287 C289 1.419 . S
C288 C286 1.415 . S
C288 C293 1.425 . S
C288 C295 1.409 . S
C289 H281 0.930 . S
C289 C287 1.419 . S
C289 C290 1.362 . S
C290 H282 0.930 . S
C290 C289 1.362 . S
C290 C293 1.409 . S
C291 H283 0.930 . S
C291 C292 1.355 . S
C291 C293 1.415 . S
C292 C291 1.355 . S
C292 C294 1.419 . S
C293 C288 1.425 . S
C293 C290 1.409 . S
C293 C291 1.415 . S
C294 H284 0.930 . S
C294 C292 1.419 . S
C294 C295 1.362 . S
C295 H285 0.930 . S
C295 C288 1.409 . S
C295 C294 1.362 . S
H296 C302 0.930 . S
H297 C305 0.930 . S
H298 C306 0.930 . S
H299 C307 0.930 . S
H300 C310 0.930 . S
H301 C311 0.930 . S
C302 H296 0.930 . S
C302 C303 1.355 . S
C302 C304 1.415 . S
C303 C302 1.355 . S
C303 C305 1.419 . S
C304 C302 1.415 . S
C304 C309 1.425 . S
C304 C311 1.409 . S
C305 H297 0.930 . S
C305 C303 1.419 . S
C305 C306 1.362 . S
C306 H298 0.930 . S
C306 C305 1.362 . S
C306 C309 1.409 . S
C307 H299 0.930 . S
C307 C308 1.355 . S
C307 C309 1.415 . S
C308 C307 1.355 . S
C308 C310 1.419 . S
C309 C304 1.425 . S
C309 C306 1.409 . S
C309 C307 1.415 . S
C310 H300 0.930 . S
C310 C308 1.419 . S
C310 C311 1.362 . S
C311 H301 0.930 . S
C311 C304 1.409 . S
C311 C310 1.362 . S
H312 C318 0.930 . S
H313 C321 0.930 . S
H314 C322 0.930 . S
H315 C323 0.930 . S
H316 C326 0.930 . S
H317 C327 0.930 . S
C318 H312 0.930 . S
C318 C319 1.355 . S
C318 C320 1.415 . S
C319 C318 1.355 . S
C319 C321 1.419 . S
C320 C318 1.415 . S
C320 C325 1.425 . S
C320 C327 1.409 . S
C321 H313 0.930 . S
C321 C319 1.419 . S
C321 C322 1.362 . S
C322 H314 0.930 . S
C322 C321 1.362 . S
C322 C325 1.409 . S
C323 H315 0.930 . S
C323 C324 1.355 . S
C323 C325 1.415 . S
C324 C323 1.355 . S
C324 C326 1.419 . S
C325 C320 1.425 . S
C325 C322 1.409 . S
C325 C323 1.415 . S
C326 H316 0.930 . S
C326 C324 1.419 . S
C326 C327 1.362 . S
C327 H317 0.930 . S
C327 C320 1.409 . S
C327 C326 1.362 . S
H328 C334 0.930 . S
H329 C337 0.930 . S
H330 C338 0.930 . S
H331 C339 0.930 . S
H332 C342 0.930 . S
H333 C343 0.930 . S
C334 H328 0.930 . S
C334 C335 1.355 . S
C334 C336 1.415 . S
C335 C334 1.355 . S
C335 C337 1.419 . S
C336 C334 1.415 . S
C336 C341 1.425 . S
C336 C343 1.409 . S
C337 H329 0.930 . S
C337 C335 1.419 . S
C337 C338 1.362 . S
C338 H330 0.930 . S
C338 C337 1.362 . S
C338 C341 1.409 . S
C339 H331 0.930 . S
C339 C340 1.355 . S
C339 C341 1.415 . S
C340 C339 1.355 . S
C340 C342 1.419 . S
C341 C336 1.425 . S
C341 C338 1.409 . S
C341 C339 1.415 . S
C342 H332 0.930 . S
C342 C340 1.419 . S
C342 C343 1.362 . S
C343 H333 0.930 . S
C343 C336 1.409 . S
C343 C342 1.362 . S
H344 C350 0.930 . S
H345 C353 0.930 . S
H346 C354 0.930 . S
H347 C355 0.930 . S
H348 C358 0.930 1_554 S
H349 C359 0.930 . S
C350 H344 0.930 . S
C350 C351 1.355 . S
C350 C352 1.415 . S
C351 C350 1.355 . S
C351 C353 1.419 . S
C352 C350 1.415 . S
C352 C357 1.425 . S
C352 C359 1.409 . S
C353 H345 0.930 . S
C353 C351 1.419 . S
C353 C354 1.362 . S
C354 H346 0.930 . S
C354 C353 1.362 . S
C354 C357 1.409 . S
C355 H347 0.930 . S
C355 C356 1.355 . S
C355 C357 1.415 . S
C356 C355 1.355 . S
C356 C358 1.419 . S
C357 C352 1.425 . S
C357 C354 1.409 . S
C357 C355 1.415 . S
C358 H348 0.930 1_556 S
C358 C356 1.419 . S
C358 C359 1.362 . S
C359 H349 0.930 . S
C359 C352 1.409 . S
C359 C358 1.362 . S
H360 C366 0.930 . S
H361 C369 0.930 . S
H362 C370 0.930 . S
H363 C371 0.930 . S
H364 C374 0.930 . S
H365 C375 0.930 . S
C366 H360 0.930 . S
C366 C367 1.355 . S
C366 C368 1.415 . S
C367 C366 1.355 . S
C367 C369 1.419 . S
C368 C366 1.415 . S
C368 C373 1.425 . S
C368 C375 1.409 . S
C369 H361 0.930 . S
C369 C367 1.419 . S
C369 C370 1.362 . S
C370 H362 0.930 . S
C370 C369 1.362 . S
C370 C373 1.409 . S
C371 H363 0.930 . S
C371 C372 1.355 . S
C371 C373 1.415 . S
C372 C371 1.355 . S
C372 C374 1.419 . S
C373 C368 1.425 . S
C373 C370 1.409 . S
C373 C371 1.415 . S
C374 H364 0.930 . S
C374 C372 1.419 . S
C374 C375 1.362 . S
C375 H365 0.930 . S
C375 C368 1.409 . S
C375 C374 1.362 . S
H376 C382 0.930 . S
H377 C385 0.930 . S
H378 C386 0.930 . S
H379 C387 0.930 . S
H380 C390 0.930 . S
H381 C391 0.930 . S
C382 H376 0.930 . S
C382 C383 1.355 . S
C382 C384 1.415 . S
C383 C382 1.355 . S
C383 C385 1.419 . S
C384 C382 1.415 . S
C384 C389 1.425 . S
C384 C391 1.409 . S
C385 H377 0.930 . S
C385 C383 1.419 . S
C385 C386 1.362 . S
C386 H378 0.930 . S
C386 C385 1.362 . S
C386 C389 1.409 . S
C387 H379 0.930 . S
C387 C388 1.355 . S
C387 C389 1.415 . S
C388 C387 1.355 . S
C388 C390 1.419 . S
C389 C384 1.425 . S
C389 C386 1.409 . S
C389 C387 1.415 . S
C390 H380 0.930 . S
C390 C388 1.419 . S
C390 C391 1.362 . S
C391 H381 0.930 . S
C391 C384 1.409 . S
C391 C390 1.362 . S
H392 C398 0.930 . S
H393 C401 0.930 . S
H394 C402 0.930 . S
H395 C403 0.930 . S
H396 C406 0.930 . S
H397 C407 0.930 . S
C398 H392 0.930 . S
C398 C399 1.355 . S
C398 C400 1.415 . S
C399 C398 1.355 . S
C399 C401 1.419 . S
C400 C398 1.415 . S
C400 C405 1.425 . S
C400 C407 1.409 . S
C401 H393 0.930 . S
C401 C399 1.419 . S
C401 C402 1.362 . S
C402 H394 0.930 . S
C402 C401 1.362 . S
C402 C405 1.409 . S
C403 H395 0.930 . S
C403 C404 1.355 . S
C403 C405 1.415 . S
C404 C403 1.355 . S
C404 C406 1.419 . S
C405 C400 1.425 . S
C405 C402 1.409 . S
C405 C403 1.415 . S
C406 H396 0.930 . S
C406 C404 1.419 . S
C406 C407 1.362 . S
C407 H397 0.930 . S
C407 C400 1.409 . S
C407 C406 1.362 . S
H408 C414 0.930 . S
H409 C417 0.930 . S
H410 C418 0.930 . S
H411 C419 0.930 . S
H412 C422 0.930 . S
H413 C423 0.930 . S
C414 H408 0.930 . S
C414 C415 1.355 . S
C414 C416 1.415 . S
C415 C414 1.355 . S
C415 C417 1.419 . S
C416 C414 1.415 . S
C416 C421 1.425 . S
C416 C423 1.409 . S
C417 H409 0.930 . S
C417 C415 1.419 . S
C417 C418 1.362 . S
C418 H410 0.930 . S
C418 C417 1.362 . S
C418 C421 1.409 . S
C419 H411 0.930 . S
C419 C420 1.355 . S
C419 C421 1.415 . S
C420 C419 1.355 . S
C420 C422 1.419 . S
C421 C416 1.425 . S
C421 C418 1.409 . S
C421 C419 1.415 . S
C422 H412 0.930 . S
C422 C420 1.419 . S
C422 C423 1.362 . S
C423 H413 0.930 . S
C423 C416 1.409 . S
C423 C422 1.362 . S
H424 C430 0.930 . S
H425 C433 0.930 . S
H426 C434 0.930 . S
H427 C435 0.930 . S
H428 C438 0.930 . S
H429 C439 0.930 . S
C430 H424 0.930 . S
C430 C431 1.355 . S
C430 C432 1.415 . S
C431 C430 1.355 . S
C431 C433 1.419 . S
C432 C430 1.415 . S
C432 C437 1.425 . S
C432 C439 1.409 . S
C433 H425 0.930 . S
C433 C431 1.419 . S
C433 C434 1.362 . S
C434 H426 0.930 . S
C434 C433 1.362 . S
C434 C437 1.409 . S
C435 H427 0.930 . S
C435 C436 1.355 . S
C435 C437 1.415 . S
C436 C435 1.355 . S
C436 C438 1.419 . S
C437 C432 1.425 . S
C437 C434 1.409 . S
C437 C435 1.415 . S
C438 H428 0.930 . S
C438 C436 1.419 . S
C438 C439 1.362 . S
C439 H429 0.930 . S
C439 C432 1.409 . S
C439 C438 1.362 . S
H440 C446 0.930 . S
H441 C449 0.930 . S
H442 C450 0.930 . S
H443 C451 0.930 . S
H444 C454 0.930 . S
H445 C455 0.930 . S
C446 H440 0.930 . S
C446 C447 1.355 . S
C446 C448 1.415 . S
C447 C446 1.355 . S
C447 C449 1.419 . S
C448 C446 1.415 . S
C448 C453 1.425 . S
C448 C455 1.409 . S
C449 H441 0.930 . S
C449 C447 1.419 . S
C449 C450 1.362 . S
C450 H442 0.930 . S
C450 C449 1.362 . S
C450 C453 1.409 . S
C451 H443 0.930 . S
C451 C452 1.355 . S
C451 C453 1.415 . S
C452 C451 1.355 . S
C452 C454 1.419 . S
C453 C448 1.425 . S
C453 C450 1.409 . S
C453 C451 1.415 . S
C454 H444 0.930 . S
C454 C452 1.419 . S
C454 C455 1.362 . S
C455 H445 0.930 . S
C455 C448 1.409 . S
C455 C454 1.362 . S
H456 C462 0.930 . S
H457 C465 0.930 . S
H458 C466 0.930 . S
H459 C467 0.930 . S
H460 C470 0.930 . S
H461 C471 0.930 . S
C462 H456 0.930 . S
C462 C463 1.355 . S
C462 C464 1.415 . S
C463 C462 1.355 . S
C463 C465 1.419 . S
C464 C462 1.415 . S
C464 C469 1.425 . S
C464 C471 1.409 . S
C465 H457 0.930 . S
C465 C463 1.419 . S
C465 C466 1.362 . S
C466 H458 0.930 . S
C466 C465 1.362 . S
C466 C469 1.409 . S
C467 H459 0.930 . S
C467 C468 1.355 . S
C467 C469 1.415 . S
C468 C467 1.355 . S
C468 C470 1.419 . S
C469 C464 1.425 . S
C469 C466 1.409 . S
C469 C467 1.415 . S
C470 H460 0.930 . S
C470 C468 1.419 . S
C470 C471 1.362 . S
C471 H461 0.930 . S
C471 C464 1.409 . S
C471 C470 1.362 . S
H472 C478 0.930 . S
H473 C481 0.930 . S
H474 C482 0.930 . S
H475 C483 0.930 . S
H476 C486 0.930 . S
H477 C487 0.930 . S
C478 H472 0.930 . S
C478 C479 1.355 . S
C478 C480 1.415 . S
C479 C478 1.355 . S
C479 C481 1.419 . S
C480 C478 1.415 . S
C480 C485 1.425 . S
C480 C487 1.409 . S
C481 H473 0.930 . S
C481 C479 1.419 . S
C481 C482 1.362 . S
C482 H474 0.930 . S
C482 C481 1.362 . S
C482 C485 1.409 . S
C483 H475 0.930 . S
C483 C484 1.355 . S
C483 C485 1.415 . S
C484 C483 1.355 . S
C484 C486 1.419 . S
C485 C480 1.425 . S
C485 C482 1.409 . S
C485 C483 1.415 . S
C486 H476 0.930 . S
C486 C484 1.419 . S
C486 C487 1.362 . S
C487 H477 0.930 . S
C487 C480 1.409 . S
C487 C486 1.362 . S
H488 C494 0.930 . S
H489 C497 0.930 . S
H490 C498 0.930 . S
H491 C499 0.930 . S
H492 C502 0.930 . S
H493 C503 0.930 . S
C494 H488 0.930 . S
C494 C495 1.355 . S
C494 C496 1.415 . S
C495 C494 1.355 . S
C495 C497 1.419 . S
C496 C494 1.415 . S
C496 C501 1.425 . S
C496 C503 1.409 . S
C497 H489 0.930 . S
C497 C495 1.419 . S
C497 C498 1.362 . S
C498 H490 0.930 . S
C498 C497 1.362 . S
C498 C501 1.409 . S
C499 H491 0.930 . S
C499 C500 1.355 . S
C499 C501 1.415 . S
C500 C499 1.355 . S
C500 C502 1.419 . S
C501 C496 1.425 . S
C501 C498 1.409 . S
C501 C499 1.415 . S
C502 H492 0.930 . S
C502 C500 1.419 . S
C502 C503 1.362 . S
C503 H493 0.930 . S
C503 C496 1.409 . S
C503 C502 1.362 . S
H504 C510 0.930 . S
H505 C513 0.930 . S
H506 C514 0.930 . S
H507 C515 0.930 . S
H508 C518 0.951 . S
H509 C519 0.930 1_545 S
C510 H504 0.930 . S
C510 C511 1.355 . S
C510 C512 1.415 . S
C511 C510 1.355 . S
C511 C513 1.419 . S
C512 C510 1.415 . S
C512 C517 1.425 . S
C512 C519 1.409 . S
C513 H505 0.930 . S
C513 C511 1.419 . S
C513 C514 1.362 . S
C514 H506 0.930 . S
C514 C513 1.362 . S
C514 C517 1.409 . S
C515 H507 0.930 . S
C515 C516 1.355 1_556 S
C515 C517 1.415 . S
C516 C515 1.355 1_554 S
C516 C518 1.405 1_565 S
C517 C512 1.425 . S
C517 C514 1.409 . S
C517 C515 1.415 . S
C518 H508 0.951 . S
C518 C516 1.405 1_545 S
C518 C519 1.356 1_544 S
C519 H509 0.930 1_565 S
C519 C512 1.409 . S
C519 C518 1.356 1_566 S
H520 C526 0.930 . S
H521 C529 0.930 . S
H522 C530 0.930 . S
H523 C531 0.930 . S
H524 C534 0.930 . S
H525 C535 0.930 . S
C526 H520 0.930 . S
C526 C527 1.355 . S
C526 C528 1.415 . S
C527 C526 1.355 . S
C527 C529 1.419 . S
C528 C526 1.415 . S
C528 C533 1.425 . S
C528 C535 1.409 . S
C529 H521 0.930 . S
C529 C527 1.419 . S
C529 C530 1.362 . S
C530 H522 0.930 . S
C530 C529 1.362 . S
C530 C533 1.409 . S
C531 H523 0.930 . S
C531 C532 1.355 . S
C531 C533 1.415 . S
C532 C531 1.355 . S
C532 C534 1.419 . S
C533 C528 1.425 . S
C533 C530 1.409 . S
C533 C531 1.415 . S
C534 H524 0.930 . S
C534 C532 1.419 . S
C534 C535 1.362 . S
C535 H525 0.930 . S
C535 C528 1.409 . S
C535 C534 1.362 . S
H536 C542 0.930 . S
H537 C545 0.930 . S
H538 C546 0.930 . S
H539 C547 0.930 . S
H540 C550 0.930 . S
H541 C551 0.930 . S
C542 H536 0.930 . S
C542 C543 1.355 . S
C542 C544 1.415 . S
C543 C542 1.355 . S
C543 C545 1.419 . S
C544 C542 1.415 . S
C544 C549 1.425 . S
C544 C551 1.409 . S
C545 H537 0.930 . S
C545 C543 1.419 . S
C545 C546 1.362 . S
C546 H538 0.930 . S
C546 C545 1.362 . S
C546 C549 1.409 . S
C547 H539 0.930 . S
C547 C548 1.355 . S
C547 C549 1.415 . S
C548 C547 1.355 . S
C548 C550 1.419 . S
C549 C544 1.425 . S
C549 C546 1.409 . S
C549 C547 1.415 . S
C550 H540 0.930 . S
C550 C548 1.419 . S
C550 C551 1.362 . S
C551 H541 0.930 . S
C551 C544 1.409 . S
C551 C550 1.362 . S
H552 C558 0.930 . S
H553 C561 0.930 . S
H554 C562 0.930 . S
H555 C563 0.930 . S
H556 C566 0.930 . S
H557 C567 0.930 . S
C558 H552 0.930 . S
C558 C559 1.355 . S
C558 C560 1.415 . S
C559 C558 1.355 . S
C559 C561 1.419 . S
C560 C558 1.415 . S
C560 C565 1.425 . S
C560 C567 1.409 . S
C561 H553 0.930 . S
C561 C559 1.419 . S
C561 C562 1.362 . S
C562 H554 0.930 . S
C562 C561 1.362 . S
C562 C565 1.409 . S
C563 H555 0.930 . S
C563 C564 1.355 . S
C563 C565 1.415 . S
C564 C563 1.355 . S
C564 C566 1.419 . S
C565 C560 1.425 . S
C565 C562 1.409 . S
C565 C563 1.415 . S
C566 H556 0.930 . S
C566 C564 1.419 . S
C566 C567 1.362 . S
C567 H557 0.930 . S
C567 C560 1.409 . S
C567 C566 1.362 . S
H568 C574 0.930 . S
H569 C577 0.930 . S
H570 C578 0.930 . S
H571 C579 0.930 . S
H572 C582 0.930 1_554 S
H573 C583 0.930 1_454 S
C574 H568 0.930 . S
C574 C575 1.355 . S
C574 C576 1.415 . S
C575 C574 1.355 . S
C575 C577 1.419 . S
C576 C574 1.415 . S
C576 C581 1.425 . S
C576 C583 1.409 . S
C577 H569 0.930 . S
C577 C575 1.419 . S
C577 C578 1.362 . S
C578 H570 0.930 . S
C578 C577 1.362 . S
C578 C581 1.409 . S
C579 H571 0.930 . S
C579 C580 1.355 . S
C579 C581 1.415 . S
C580 C579 1.355 . S
C580 C582 1.419 1_655 S
C581 C576 1.425 . S
C581 C578 1.409 . S
C581 C579 1.415 . S
C582 H572 0.930 1_556 S
C582 C580 1.419 1_455 S
C582 C583 1.362 1_455 S
C583 H573 0.930 1_656 S
C583 C576 1.409 . S
C583 C582 1.362 1_655 S
H584 C590 0.930 . S
H585 C593 0.930 . S
H586 C594 0.930 . S
H587 C595 0.930 . S
H588 C598 0.930 . S
H589 C599 0.930 . S
C590 H584 0.930 . S
C590 C591 1.355 . S
C590 C592 1.415 . S
C591 C590 1.355 . S
C591 C593 1.419 . S
C592 C590 1.415 . S
C592 C597 1.425 . S
C592 C599 1.409 . S
C593 H585 0.930 . S
C593 C591 1.419 . S
C593 C594 1.362 . S
C594 H586 0.930 . S
C594 C593 1.362 . S
C594 C597 1.409 . S
C595 H587 0.930 . S
C595 C596 1.355 . S
C595 C597 1.415 . S
C596 C595 1.355 . S
C596 C598 1.419 . S
C597 C592 1.425 . S
C597 C594 1.409 . S
C597 C595 1.415 . S
C598 H588 0.930 . S
C598 C596 1.419 . S
C598 C599 1.362 . S
C599 H589 0.930 . S
C599 C592 1.409 . S
C599 C598 1.362 . S
H600 C606 0.930 . S
H601 C609 0.930 . S
H602 C610 0.930 . S
H603 C611 0.930 . S
H604 C614 0.930 . S
H605 C615 0.930 . S
C606 H600 0.930 . S
C606 C607 1.355 . S
C606 C608 1.415 . S
C607 C606 1.355 . S
C607 C609 1.419 . S
C608 C606 1.415 . S
C608 C613 1.425 . S
C608 C615 1.409 . S
C609 H601 0.930 . S
C609 C607 1.419 . S
C609 C610 1.362 . S
C610 H602 0.930 . S
C610 C609 1.362 . S
C610 C613 1.409 . S
C611 H603 0.930 . S
C611 C612 1.355 . S
C611 C613 1.415 . S
C612 C611 1.355 . S
C612 C614 1.419 . S
C613 C608 1.425 . S
C613 C610 1.409 . S
C613 C611 1.415 . S
C614 H604 0.930 . S
C614 C612 1.419 . S
C614 C615 1.362 . S
C615 H605 0.930 . S
C615 C608 1.409 . S
C615 C614 1.362 . S
H616 C622 0.930 . S
H617 C625 0.930 . S
H618 C626 0.930 . S
H619 C627 0.930 . S
H620 C630 0.930 . S
H621 C631 0.930 . S
C622 H616 0.930 . S
C622 C623 1.355 . S
C622 C624 1.415 . S
C623 C622 1.355 . S
C623 C625 1.419 . S
C624 C622 1.415 . S
C624 C629 1.425 . S
C624 C631 1.409 . S
C625 H617 0.930 . S
C625 C623 1.419 . S
C625 C626 1.362 . S
C626 H618 0.930 . S
C626 C625 1.362 . S
C626 C629 1.409 . S
C627 H619 0.930 . S
C627 C628 1.355 . S
C627 C629 1.415 . S
C628 C627 1.355 . S
C628 C630 1.419 . S
C629 C624 1.425 . S
C629 C626 1.409 . S
C629 C627 1.415 . S
C630 H620 0.930 . S
C630 C628 1.419 . S
C630 C631 1.362 . S
C631 H621 0.930 . S
C631 C624 1.409 . S
C631 C630 1.362 . S
C255 C4 3.065 . S
C260 C107 3.031 . S
C271 C16 2.366 . S
C276 C138 2.441 . S
C292 C177 0.945 . S
C287 C32 1.024 . S
C303 C43 0.530 . S
C308 C214 0.582 . S
C324 C137 3.201 . S
C319 C5 3.295 . S
C340 C94 1.180 . S
C335 C21 1.159 . S
C356 C226 1.296 . S
C351 C27 1.322 . S
C372 C183 1.082 . S
C367 C37 1.078 . S
C383 C10 2.439 . S
C388 C227 2.436 . S
C404 C143 1.433 . S
C399 C26 1.456 . S
C415 C38 0.423 . S
C420 C106 0.614 . S
C431 C15 2.392 . S
C436 C178 2.406 . S
C452 C98 3.020 . S
C447 C48 3.069 . S
C463 C59 2.160 . S
C468 C147 2.210 . S
C479 C76 1.312 . S
C484 C186 1.244 . S
C495 C87 0.611 . S
C500 C223 0.624 . S
C511 C54 2.743 . S
C516 C146 2.622 . S
C532 C103 1.575 . S
C527 C60 1.594 . S
C548 C217 1.281 . S
C543 C71 1.370 . S
C564 C174 1.059 . S
C559 C82 1.086 . S
C575 C49 2.570 . S
C580 C218 2.584 1_655 S
C596 C134 1.308 . S
C591 C70 1.304 . S
C612 C97 0.549 . S
C607 C81 0.537 . S
C623 C65 2.229 . S
C628 C187 2.281 . S
