# Generated by pormake.
# Topology rtl, (3,6)-cn, num edge types: 1
# Building blocks:
#     Node 0, Type 0, BuildingBlock: BELTOD_clean_linker_0, # of connection points: 3
#     Node 1, Type 0, BuildingBlock: BELTOD_clean_linker_0, # of connection points: 3
#     Node 2, Type 0, BuildingBlock: BELTOD_clean_linker_0, # of connection points: 3
#     Node 3, Type 0, BuildingBlock: BELTOD_clean_linker_0, # of connection points: 3
#     Node 4, Type 1, BuildingBlock: LEVNOQ01_clean_sbu_1, # of connection points: 6
#     Node 5, Type 1, BuildingBlock: LEVNOQ01_clean_sbu_1, # of connection points: 6
#     Edge 6, Type (0, 1), BuildingBlock: EZIPEK_clean_linker_0, # of connection points: 2
#     Edge 7, Type (0, 1), BuildingBlock: EZIPEK_clean_linker_0, # of connection points: 2
#     Edge 8, Type (0, 1), BuildingBlock: EZIPEK_clean_linker_0, # of connection points: 2
#     Edge 9, Type (0, 1), BuildingBlock: EZIPEK_clean_linker_0, # of connection points: 2
#     Edge 10, Type (0, 1), BuildingBlock: EZIPEK_clean_linker_0, # of connection points: 2
#     Edge 11, Type (0, 1), BuildingBlock: EZIPEK_clean_linker_0, # of connection points: 2
#     Edge 12, Type (0, 1), BuildingBlock: EZIPEK_clean_linker_0, # of connection points: 2
#     Edge 13, Type (0, 1), BuildingBlock: EZIPEK_clean_linker_0, # of connection points: 2
#     Edge 14, Type (0, 1), BuildingBlock: EZIPEK_clean_linker_0, # of connection points: 2
#     Edge 15, Type (0, 1), BuildingBlock: EZIPEK_clean_linker_0, # of connection points: 2
#     Edge 16, Type (0, 1), BuildingBlock: EZIPEK_clean_linker_0, # of connection points: 2
#     Edge 17, Type (0, 1), BuildingBlock: EZIPEK_clean_linker_0, # of connection points: 2
# Relax obj value: 0.023
# Max RMSD: 0.060
# Mean RMSD: 0.042
data_MOF--net-rtl--node1-LEVNOQ01_clean_sbu_1--node2-BELTOD_clean_linker_0--edge1-EZIPEK_clean_linker_0
_symmetry_space_group_name_H-M    P1
_symmetry_Int_Tables_number       1
_symmetry_cell_setting            triclinic
loop_
_symmetry_equiv_pos_as_xyz
'x, y, z'
_cell_length_a     26.825727
_cell_length_b     30.068588
_cell_length_c     20.750564
_cell_angle_alpha  89.342995
_cell_angle_beta   98.089587
_cell_angle_gamma 89.533564
loop_
_atom_site_label
_atom_site_type_symbol
_atom_site_fract_x
_atom_site_fract_y
_atom_site_fract_z
_atom_type_partial_charge
P0 P 0.3213 0.93467 0.10769 0.0
H1 H 0.3511 0.94771 0.24657 0.0
H2 H 0.30265 0.96379 0.33608 0.0
H3 H 0.16698 0.97552 0.19816 0.0
H4 H 0.21489 0.95946 0.10908 0.0
H5 H 0.40367 0.88628 0.06299 0.0
H6 H 0.42544 0.80694 0.06514 0.0
H7 H 0.31037 0.78016 0.18555 0.0
H8 H 0.28818 0.85961 0.18312 0.0
H9 H 0.30221 0.00221 0.00419 0.0
H10 H 0.25289 0.86906 0.03998 0.0
O11 O 0.3698 0.96877 0.10547 0.0
H12 H 0.24428 0.00516 0.90136 0.0
H13 H 0.19544 0.872 0.93703 0.0
C14 C 0.28662 0.95225 0.1713 0.0
C15 C 0.31108 0.95453 0.23555 0.0
C16 C 0.28362 0.96379 0.28645 0.0
C17 C 0.23141 0.97094 0.27341 0.0
C18 C 0.20732 0.97035 0.2089 0.0
C19 C 0.23472 0.96099 0.15813 0.0
C20 C 0.34486 0.87889 0.12355 0.0
C21 C 0.38424 0.86364 0.09168 0.0
C22 C 0.39667 0.81847 0.09294 0.0
C23 C 0.36964 0.78798 0.12581 0.0
C24 C 0.33201 0.80342 0.16076 0.0
C25 C 0.31944 0.84871 0.15926 0.0
C26 C 0.28236 0.93526 0.02936 0.0
C27 C 0.27965 0.9734 0.9895 0.0
C28 C 0.24677 0.97505 0.93087 0.0
C29 C 0.21592 0.9387 0.91166 0.0
C30 C 0.21933 0.90018 0.95087 0.0
C31 C 0.25209 0.89861 0.00959 0.0
P32 P 0.81267 0.59811 0.60033 0.0
H33 H 0.83355 0.61226 0.46791 0.0
H34 H 0.78208 0.60522 0.36076 0.0
H35 H 0.65483 0.56732 0.45417 0.0
H36 H 0.7059 0.57453 0.56114 0.0
H37 H 0.90221 0.63172 0.68091 0.0
H38 H 0.94416 0.70435 0.68435 0.0
H39 H 0.82425 0.7565 0.54263 0.0
H40 H 0.78164 0.68484 0.54086 0.0
H41 H 0.80875 0.52103 0.68723 0.0
H42 H 0.74006 0.65136 0.65919 0.0
O43 O 0.85932 0.56085 0.60238 0.0
H44 H 0.76003 0.50613 0.77682 0.0
H45 H 0.691 0.63621 0.74828 0.0
C46 C 0.77362 0.59395 0.52247 0.0
C47 C 0.79448 0.60273 0.46535 0.0
C48 C 0.76519 0.59895 0.40439 0.0
C49 C 0.71475 0.58591 0.39985 0.0
C50 C 0.69366 0.57766 0.45694 0.0
C51 C 0.72291 0.58163 0.51793 0.0
C52 C 0.83987 0.65255 0.60885 0.0
C53 C 0.8847 0.65899 0.65124 0.0
C54 C 0.90845 0.70032 0.65351 0.0
C55 C 0.88771 0.73534 0.61273 0.0
C56 C 0.8411 0.72964 0.57379 0.0
C57 C 0.81707 0.68862 0.57232 0.0
C58 C 0.7783 0.5875 0.66718 0.0
C59 C 0.78353 0.54653 0.70062 0.0
C60 C 0.75586 0.53799 0.75163 0.0
C61 C 0.72212 0.57013 0.76899 0.0
C62 C 0.71704 0.61113 0.73558 0.0
C63 C 0.74493 0.61973 0.6849 0.0
P64 P 0.81104 0.19553 0.9927 0.0
H65 H 0.864 0.19476 0.87983 0.0
H66 H 0.86782 0.14163 0.79273 0.0
H67 H 0.75951 0.05882 0.87063 0.0
H68 H 0.75661 0.11209 0.95997 0.0
H69 H 0.79098 0.27665 0.05749 0.0
H70 H 0.71802 0.32657 0.04982 0.0
H71 H 0.64078 0.24763 0.89514 0.0
H72 H 0.71366 0.19645 0.9043 0.0
H73 H 0.88617 0.13316 0.05534 0.0
H74 H 0.74964 0.19478 0.10092 0.0
O75 O 0.86221 0.22697 0.99465 0.0
H76 H 0.9004 0.09899 0.16459 0.0
H77 H 0.76461 0.16132 0.21024 0.0
C78 C 0.81068 0.15696 0.92692 0.0
C79 C 0.8411 0.16523 0.87865 0.0
C80 C 0.84316 0.13498 0.82877 0.0
C81 C 0.81438 0.09613 0.82571 0.0
C82 C 0.78233 0.08844 0.87263 0.0
C83 C 0.78074 0.1187 0.92336 0.0
C84 C 0.75763 0.23279 0.98183 0.0
C85 C 0.75847 0.27006 0.02175 0.0
C86 C 0.71692 0.29854 0.0173 0.0
C87 C 0.67389 0.29056 0.97231 0.0
C88 C 0.67355 0.25409 0.93048 0.0
C89 C 0.71508 0.22497 0.93579 0.0
C90 C 0.81698 0.16656 0.0699 0.0
C91 C 0.85914 0.13909 0.08854 0.0
C92 C 0.86744 0.11988 0.15081 0.0
C93 C 0.83377 0.12811 0.19532 0.0
C94 C 0.79111 0.15497 0.17649 0.0
C95 C 0.78263 0.17395 0.114 0.0
P96 P 0.28251 0.35708 0.47826 0.0
H97 H 0.34271 0.32411 0.59673 0.0
H98 H 0.3672 0.35794 0.70308 0.0
H99 H 0.26389 0.46687 0.64786 0.0
H100 H 0.23997 0.43337 0.54033 0.0
H101 H 0.27132 0.2766 0.40132 0.0
H102 H 0.2147 0.21321 0.40367 0.0
H103 H 0.12837 0.28605 0.52842 0.0
H104 H 0.18534 0.34942 0.52673 0.0
H105 H 0.35051 0.42624 0.45219 0.0
H106 H 0.20016 0.38593 0.37507 0.0
O107 O 0.33586 0.33074 0.46818 0.0
H108 H 0.35541 0.46991 0.35364 0.0
H109 H 0.20412 0.43185 0.27699 0.0
C110 C 0.29082 0.37709 0.56023 0.0
C111 C 0.32454 0.35482 0.6078 0.0
C112 C 0.33812 0.37378 0.66868 0.0
C113 C 0.31741 0.41481 0.68293 0.0
C114 C 0.27995 0.435 0.63758 0.0
C115 C 0.26675 0.41618 0.57623 0.0
C116 C 0.23322 0.31694 0.46558 0.0
C117 C 0.23946 0.27942 0.42784 0.0
C118 C 0.20701 0.24345 0.42858 0.0
C119 C 0.16777 0.24511 0.46644 0.0
C120 C 0.15852 0.28444 0.49882 0.0
C121 C 0.19115 0.32036 0.49827 0.0
C122 C 0.27574 0.40182 0.41971 0.0
C123 C 0.31778 0.42825 0.41513 0.0
C124 C 0.32048 0.45331 0.35896 0.0
C125 C 0.28081 0.45269 0.30713 0.0
C126 C 0.23549 0.43189 0.31605 0.0
C127 C 0.23332 0.40564 0.37186 0.0
O128 O 0.9378 0.07806 0.65602 0.0
Mg129 Mg 0.0152 0.07911 0.6549 0.0
O130 O 0.93596 0.01172 0.61113 0.0
Mg131 Mg 0.00288 0.00593 0.54834 0.0
O132 O 0.03469 0.07659 0.56448 0.0
O133 O 0.04712 0.13637 0.62705 0.0
O134 O 0.06914 0.99804 0.48569 0.0
O135 O 0.94546 0.03915 0.46329 0.0
Mg136 Mg 0.97208 0.94691 0.43535 0.0
O137 O 0.97532 0.93266 0.5329 0.0
O138 O 0.04226 0.95423 0.40335 0.0
O139 O 0.9128 0.98817 0.39572 0.0
O140 O 0.95204 0.884 0.4531 0.0
C141 C 0.07365 0.99317 0.69464 0.0
C142 C 0.9157 0.04178 0.64219 0.0
C143 C 0.0525 0.11635 0.57376 0.0
C144 C 0.0763 0.97792 0.43382 0.0
C145 C 0.9129 0.02772 0.41549 0.0
C146 C 0.95971 0.89332 0.51422 0.0
O147 O 0.06061 0.03142 0.7121 0.0
O148 O 0.05762 0.97789 0.63819 0.0
O149 O 0.56331 0.49529 0.20169 0.0
Mg150 Mg 0.51258 0.45536 0.14369 0.0
O151 O 0.55156 0.55079 0.13033 0.0
Mg152 Mg 0.49382 0.52592 0.04012 0.0
O153 O 0.52585 0.45288 0.04858 0.0
O154 O 0.54096 0.39622 0.12007 0.0
O155 O 0.44186 0.50087 0.9477 0.0
O156 O 0.56012 0.5374 0.97986 0.0
Mg157 Mg 0.47342 0.59989 0.93768 0.0
O158 O 0.4591 0.59791 0.03182 0.0
O159 O 0.42353 0.5582 0.88006 0.0
O160 O 0.54855 0.59889 0.92039 0.0
O161 O 0.445 0.65764 0.96605 0.0
C162 C 0.40932 0.48596 0.1353 0.0
C163 C 0.57359 0.53417 0.18413 0.0
C164 C 0.54221 0.41247 0.06248 0.0
C165 C 0.41917 0.51749 0.89448 0.0
C166 C 0.57524 0.56543 0.94054 0.0
C167 C 0.44151 0.63826 0.02109 0.0
O168 O 0.43789 0.45465 0.1593 0.0
O169 O 0.42441 0.51416 0.09618 0.0
C170 C 0.09818 0.18919 0.44612 0.0
C171 C 0.14346 0.20349 0.48361 0.0
C172 C 0.13704 0.14476 0.56435 0.0
C173 C 0.08792 0.13596 0.53318 0.0
N174 N 0.02841 0.13708 0.4358 0.0
N175 N 0.20827 0.19436 0.57639 0.0
C176 C 0.07058 0.15409 0.47088 0.0
C177 C 0.16418 0.18041 0.54145 0.0
N178 N 0.08085 0.21061 0.3888 0.0
N179 N 0.1575 0.11835 0.61556 0.0
H180 H 0.23051 0.2192 0.56002 0.0
H181 H 0.22192 0.18295 0.62312 0.0
H182 H 0.13823 0.09131 0.6318 0.0
H183 H 0.19468 0.12025 0.63776 0.0
H184 H 0.04622 0.2046 0.3611 0.0
H185 H 0.10119 0.23561 0.36926 0.0
H186 H 0.01421 0.14683 0.3885 0.0
H187 H 0.01013 0.10979 0.45274 0.0
C188 C 0.34762 0.72106 0.05813 0.0
C189 C 0.37592 0.73987 0.11406 0.0
C190 C 0.43043 0.67374 0.12764 0.0
C191 C 0.41006 0.66101 0.06437 0.0
N192 N 0.337 0.6587 0.98379 0.0
N193 N 0.44017 0.73276 0.20721 0.0
C194 C 0.36413 0.68014 0.03465 0.0
C195 C 0.41536 0.71521 0.15144 0.0
N196 N 0.30757 0.74399 0.02504 0.0
N197 N 0.46219 0.6454 0.1653 0.0
H198 H 0.42861 0.76237 0.22661 0.0
H199 H 0.47298 0.71891 0.23261 0.0
H200 H 0.47083 0.614 0.14885 0.0
H201 H 0.47432 0.65058 0.2145 0.0
H202 H 0.28883 0.73478 0.97993 0.0
H203 H 0.29372 0.77351 0.04195 0.0
H204 H 0.30141 0.66872 0.96165 0.0
H205 H 0.34883 0.62808 0.96767 0.0
C206 C 0.95801 0.77617 0.57041 0.0
C207 C 0.91614 0.77683 0.60537 0.0
C208 C 0.9124 0.85824 0.59779 0.0
C209 C 0.95298 0.85713 0.56086 0.0
N210 N 0.02511 0.8182 0.53228 0.0
N211 N 0.86348 0.81786 0.66894 0.0
C212 C 0.97963 0.81701 0.55472 0.0
C213 C 0.8969 0.81784 0.62501 0.0
N214 N 0.97464 0.73707 0.54754 0.0
N215 N 0.88656 0.89705 0.60294 0.0
H216 H 0.85178 0.78854 0.68941 0.0
H217 H 0.85122 0.8467 0.68945 0.0
H218 H 0.89744 0.92724 0.58435 0.0
H219 H 0.85307 0.89899 0.6228 0.0
H220 H 0.00095 0.73556 0.51517 0.0
H221 H 0.95948 0.70621 0.55649 0.0
H222 H 0.04848 0.79041 0.53163 0.0
H223 H 0.04159 0.84809 0.52079 0.0
C224 C 0.58654 0.30642 0.99861 0.0
C225 C 0.62961 0.32069 0.97183 0.0
C226 C 0.60696 0.39845 0.9867 0.0
C227 C 0.56474 0.38419 0.01567 0.0
N228 N 0.50439 0.32663 0.02569 0.0
N229 N 0.66951 0.37876 0.91778 0.0
C230 C 0.551 0.33875 0.01291 0.0
C231 C 0.63542 0.36633 0.95742 0.0
N232 N 0.58135 0.26278 0.01523 0.0
N233 N 0.62318 0.44131 0.99258 0.0
H234 H 0.69084 0.35544 0.89627 0.0
H235 H 0.67249 0.41134 0.90113 0.0
H236 H 0.60553 0.46549 0.01691 0.0
H237 H 0.65678 0.45196 0.97801 0.0
H238 H 0.55378 0.25179 0.04219 0.0
H239 H 0.60656 0.23789 0.00611 0.0
H240 H 0.49082 0.29434 0.01979 0.0
H241 H 0.47758 0.35006 0.03545 0.0
C242 C 0.18347 0.01653 0.34522 0.0
C243 C 0.20054 0.97431 0.32716 0.0
C244 C 0.14981 0.93792 0.40121 0.0
C245 C 0.12554 0.9791 0.40921 0.0
N246 N 0.11915 0.05839 0.39068 0.0
N247 N 0.19956 0.89421 0.33603 0.0
C248 C 0.14304 0.01891 0.38293 0.0
C249 C 0.18424 0.9348 0.35545 0.0
N250 N 0.20587 0.05413 0.32596 0.0
N251 N 0.13987 0.90186 0.43792 0.0
H252 H 0.22569 0.89037 0.30368 0.0
H253 H 0.18401 0.86428 0.34866 0.0
H254 H 0.11537 0.9036 0.47272 0.0
H255 H 0.15948 0.87179 0.43874 0.0
H256 H 0.19851 0.08583 0.34218 0.0
H257 H 0.23519 0.0531 0.29784 0.0
H258 H 0.12623 0.0878 0.36676 0.0
H259 H 0.09017 0.06135 0.41895 0.0
C260 C 0.64842 0.53246 0.80807 0.0
C261 C 0.6906 0.56082 0.82084 0.0
C262 C 0.66329 0.5836 0.9235 0.0
C263 C 0.62052 0.55626 0.90959 0.0
N264 N 0.58051 0.49448 0.8507 0.0
N265 N 0.74567 0.60391 0.89734 0.0
C266 C 0.61608 0.527 0.85608 0.0
C267 C 0.70054 0.58327 0.88101 0.0
N268 N 0.63723 0.51315 0.74849 0.0
N269 N 0.66729 0.6108 0.97624 0.0
H270 H 0.77365 0.60389 0.8671 0.0
H271 H 0.75714 0.61767 0.94275 0.0
H272 H 0.64193 0.60962 0.01005 0.0
H273 H 0.69435 0.63542 0.98522 0.0
H274 H 0.60361 0.49673 0.73365 0.0
H275 H 0.65972 0.51639 0.71165 0.0
H276 H 0.57856 0.46953 0.81607 0.0
H277 H 0.556 0.48973 0.88488 0.0
C278 C 0.87702 0.12857 0.31098 0.0
C279 C 0.8433 0.10791 0.26151 0.0
C280 C 0.83674 0.04413 0.33391 0.0
C281 C 0.87828 0.06051 0.37646 0.0
N282 N 0.9129 0.12771 0.42501 0.0
N283 N 0.78705 0.04787 0.22688 0.0
C284 C 0.89118 0.10576 0.37129 0.0
C285 C 0.82095 0.06665 0.27388 0.0
N286 N 0.89699 0.16904 0.29939 0.0
N287 N 0.81148 0.00808 0.35281 0.0
H288 H 0.77377 0.06393 0.18292 0.0
H289 H 0.77393 0.01554 0.22989 0.0
H290 H 0.82081 0.99343 0.39887 0.0
H291 H 0.77843 0.99607 0.32679 0.0
H292 H 0.92634 0.18314 0.33051 0.0
H293 H 0.88592 0.18745 0.25676 0.0
H294 H 0.9196 0.16178 0.42542 0.0
H295 H 0.9178 0.11295 0.47121 0.0
C296 C 0.38261 0.46885 0.7278 0.0
C297 C 0.34257 0.44046 0.73857 0.0
C298 C 0.35256 0.46157 0.85359 0.0
C299 C 0.39424 0.4882 0.84313 0.0
N300 N 0.45715 0.50747 0.77512 0.0
N301 N 0.29401 0.4038 0.81232 0.0
C302 C 0.41155 0.48911 0.78156 0.0
C303 C 0.32898 0.43487 0.80182 0.0
N304 N 0.39281 0.47692 0.66596 0.0
N305 N 0.33433 0.46321 0.91182 0.0
H306 H 0.27498 0.38492 0.7749 0.0
H307 H 0.28629 0.39462 0.85839 0.0
H308 H 0.35065 0.48242 0.95057 0.0
H309 H 0.30112 0.44804 0.92043 0.0
H310 H 0.41697 0.50188 0.65462 0.0
H311 H 0.37448 0.46115 0.62493 0.0
H312 H 0.47431 0.50462 0.73333 0.0
H313 H 0.4806 0.52156 0.81368 0.0
C314 C 0.69143 0.53749 0.30299 0.0
C315 C 0.68469 0.57792 0.33531 0.0
C316 C 0.6137 0.59838 0.25152 0.0
C317 C 0.61742 0.55584 0.2237 0.0
N318 N 0.67162 0.49482 0.20449 0.0
N319 N 0.64768 0.65112 0.33459 0.0
C320 C 0.66037 0.52869 0.24358 0.0
C321 C 0.64841 0.60991 0.30747 0.0
N322 N 0.72552 0.50637 0.33081 0.0
N323 N 0.57724 0.62738 0.22438 0.0
H324 H 0.67299 0.66022 0.37506 0.0
H325 H 0.62406 0.67714 0.31593 0.0
H326 H 0.55697 0.62194 0.17875 0.0
H327 H 0.56838 0.65728 0.24491 0.0
H328 H 0.72768 0.47417 0.31337 0.0
H329 H 0.74942 0.51149 0.37418 0.0
H330 H 0.70477 0.47609 0.21306 0.0
H331 H 0.65019 0.48888 0.15942 0.0
C332 C 0.80235 0.07779 0.70802 0.0
C333 C 0.81993 0.06427 0.7729 0.0
C334 C 0.87662 0.01035 0.73281 0.0
C335 C 0.87002 0.03353 0.67261 0.0
N336 N 0.81988 0.08131 0.59599 0.0
N337 N 0.8685 0.01318 0.84768 0.0
C338 C 0.82938 0.06377 0.6575 0.0
C339 C 0.85424 0.02799 0.78531 0.0
N340 N 0.76155 0.1056 0.69616 0.0
N341 N 0.9063 0.97308 0.74005 0.0
H342 H 0.85183 0.02481 0.88677 0.0
H343 H 0.89782 0.99056 0.86105 0.0
H344 H 0.92293 0.96039 0.70154 0.0
H345 H 0.91049 0.95277 0.78145 0.0
H346 H 0.74512 0.11566 0.64982 0.0
H347 H 0.74188 0.11589 0.73347 0.0
H348 H 0.79409 0.10685 0.58206 0.0
H349 H 0.83912 0.06995 0.55883 0.0
C350 C 0.30265 0.43427 0.19669 0.0
C351 C 0.29189 0.46702 0.24189 0.0
C352 C 0.34181 0.52162 0.19087 0.0
C353 C 0.35756 0.48706 0.15232 0.0
N354 N 0.33664 0.41892 0.09678 0.0
N355 N 0.2854 0.54434 0.26708 0.0
C356 C 0.33143 0.44649 0.14727 0.0
C357 C 0.30567 0.51187 0.23307 0.0
N358 N 0.29029 0.39073 0.20463 0.0
N359 N 0.36374 0.56239 0.19034 0.0
H360 H 0.25903 0.53704 0.29813 0.0
H361 H 0.29116 0.57817 0.26037 0.0
H362 H 0.38831 0.57074 0.15757 0.0
H363 H 0.35823 0.58757 0.22268 0.0
H364 H 0.3036 0.36495 0.17839 0.0
H365 H 0.26918 0.37954 0.23979 0.0
H366 H 0.31566 0.39013 0.08728 0.0
H367 H 0.35841 0.42776 0.06073 0.0
C368 C 0.12635 0.95201 0.86112 0.0
C369 C 0.17709 0.94283 0.85325 0.0
C370 C 0.15716 0.95625 0.73547 0.0
C371 C 0.1067 0.96627 0.74387 0.0
N372 N 0.03989 0.96004 0.80935 0.0
N373 N 0.23797 0.92456 0.78263 0.0
C374 C 0.09026 0.95938 0.80512 0.0
C375 C 0.19151 0.94097 0.7901 0.0
N376 N 0.11315 0.95634 0.92206 0.0
N377 N 0.17304 0.9639 0.67662 0.0
H378 H 0.26381 0.9134 0.82194 0.0
H379 H 0.24915 0.91837 0.73749 0.0
H380 H 0.14881 0.97418 0.63533 0.0
H381 H 0.21065 0.96235 0.66945 0.0
H382 H 0.07815 0.96829 0.93056 0.0
H383 H 0.13832 0.95121 0.96462 0.0
H384 H 0.02499 0.95145 0.85147 0.0
H385 H 0.01276 0.96474 0.76853 0.0
loop_
_geom_bond_atom_site_label_1
_geom_bond_atom_site_label_2
_geom_bond_distance
_geom_bond_site_symmetry_2
_ccdc_geom_bond_type
P0 O11 1.490 . S
P0 C14 1.812 . S
P0 C20 1.803 . S
P0 C26 1.819 . S
H1 C15 0.941 . S
H2 C16 0.939 . S
H3 C18 0.940 . S
H4 C19 0.940 . S
H5 C21 0.939 . S
H6 C22 0.942 . S
H7 C24 0.940 . S
H8 C25 0.939 . S
H9 C27 0.933 1_545 S
H10 C31 0.939 . S
O11 P0 1.490 . S
H12 C28 0.939 1_545 S
H13 C30 0.940 . S
C14 P0 1.812 . S
C14 C15 1.389 . S
C14 C19 1.391 . S
C15 H1 0.941 . S
C15 C14 1.389 . S
C15 C16 1.397 . S
C16 H2 0.939 . S
C16 C15 1.397 . S
C16 C17 1.378 . S
C17 C16 1.378 . S
C17 C18 1.378 . S
C18 H3 0.940 . S
C18 C17 1.378 . S
C18 C19 1.396 . S
C19 H4 0.940 . S
C19 C14 1.391 . S
C19 C18 1.396 . S
C20 P0 1.803 . S
C20 C21 1.378 . S
C20 C25 1.400 . S
C21 H5 0.939 . S
C21 C20 1.378 . S
C21 C22 1.361 . S
C22 H6 0.942 . S
C22 C21 1.361 . S
C22 C23 1.369 . S
C23 C22 1.369 . S
C23 C24 1.404 . S
C24 H7 0.940 . S
C24 C23 1.404 . S
C24 C25 1.389 . S
C25 H8 0.939 . S
C25 C20 1.400 . S
C25 C24 1.389 . S
C26 P0 1.819 . S
C26 C27 1.391 . S
C26 C31 1.391 1_554 S
C27 H9 0.933 1_565 S
C27 C26 1.391 . S
C27 C28 1.396 1_554 S
C28 H12 0.939 1_565 S
C28 C27 1.396 1_556 S
C28 C29 1.397 . S
C29 C28 1.397 . S
C29 C30 1.385 . S
C30 H13 0.940 . S
C30 C29 1.385 . S
C30 C31 1.388 . S
C31 H10 0.939 . S
C31 C26 1.391 1_556 S
C31 C30 1.388 . S
P32 O43 1.490 . S
P32 C46 1.812 . S
P32 C52 1.803 . S
P32 C58 1.819 . S
H33 C47 0.941 . S
H34 C48 0.939 . S
H35 C50 0.940 . S
H36 C51 0.940 . S
H37 C53 0.939 . S
H38 C54 0.942 . S
H39 C56 0.940 . S
H40 C57 0.939 . S
H41 C59 0.941 . S
H42 C63 0.939 . S
O43 P32 1.490 . S
H44 C60 0.939 . S
H45 C62 0.940 . S
C46 P32 1.812 . S
C46 C47 1.389 . S
C46 C51 1.391 . S
C47 H33 0.941 . S
C47 C46 1.389 . S
C47 C48 1.397 . S
C48 H34 0.939 . S
C48 C47 1.397 . S
C48 C49 1.378 . S
C49 C48 1.378 . S
C49 C50 1.378 . S
C50 H35 0.940 . S
C50 C49 1.378 . S
C50 C51 1.396 . S
C51 H36 0.940 . S
C51 C46 1.391 . S
C51 C50 1.396 . S
C52 P32 1.803 . S
C52 C53 1.378 . S
C52 C57 1.400 . S
C53 H37 0.939 . S
C53 C52 1.378 . S
C53 C54 1.361 . S
C54 H38 0.942 . S
C54 C53 1.361 . S
C54 C55 1.369 . S
C55 C54 1.369 . S
C55 C56 1.404 . S
C56 H39 0.940 . S
C56 C55 1.404 . S
C56 C57 1.389 . S
C57 H40 0.939 . S
C57 C52 1.400 . S
C57 C56 1.389 . S
C58 P32 1.819 . S
C58 C59 1.391 . S
C58 C63 1.391 . S
C59 H41 0.941 . S
C59 C58 1.391 . S
C59 C60 1.396 . S
C60 H44 0.939 . S
C60 C59 1.396 . S
C60 C61 1.397 . S
C61 C60 1.397 . S
C61 C62 1.385 . S
C62 H45 0.940 . S
C62 C61 1.385 . S
C62 C63 1.388 . S
C63 H42 0.939 . S
C63 C58 1.391 . S
C63 C62 1.388 . S
P64 O75 1.490 . S
P64 C78 1.812 1_554 S
P64 C84 1.803 1_554 S
P64 C90 1.819 . S
H65 C79 0.941 . S
H66 C80 0.939 . S
H67 C82 0.940 . S
H68 C83 0.940 . S
H69 C85 0.939 . S
H70 C86 0.942 . S
H71 C88 0.940 . S
H72 C89 0.939 . S
H73 C91 0.941 . S
H74 C95 0.939 . S
O75 P64 1.490 . S
H76 C92 0.939 . S
H77 C94 0.940 . S
C78 P64 1.812 1_556 S
C78 C79 1.389 . S
C78 C83 1.391 . S
C79 H65 0.941 . S
C79 C78 1.389 . S
C79 C80 1.397 . S
C80 H66 0.939 . S
C80 C79 1.397 . S
C80 C81 1.378 . S
C81 C80 1.378 . S
C81 C82 1.378 . S
C82 H67 0.940 . S
C82 C81 1.378 . S
C82 C83 1.396 . S
C83 H68 0.940 . S
C83 C78 1.391 . S
C83 C82 1.396 . S
C84 P64 1.803 1_556 S
C84 C85 1.378 1_556 S
C84 C89 1.400 . S
C85 H69 0.939 . S
C85 C84 1.378 1_554 S
C85 C86 1.361 . S
C86 H70 0.942 . S
C86 C85 1.361 . S
C86 C87 1.369 1_554 S
C87 C86 1.369 1_556 S
C87 C88 1.404 . S
C88 H71 0.940 . S
C88 C87 1.404 . S
C88 C89 1.389 . S
C89 H72 0.939 . S
C89 C84 1.400 . S
C89 C88 1.389 . S
C90 P64 1.819 . S
C90 C91 1.391 . S
C90 C95 1.391 . S
C91 H73 0.941 . S
C91 C90 1.391 . S
C91 C92 1.396 . S
C92 H76 0.939 . S
C92 C91 1.396 . S
C92 C93 1.397 . S
C93 C92 1.397 . S
C93 C94 1.385 . S
C94 H77 0.940 . S
C94 C93 1.385 . S
C94 C95 1.388 . S
C95 H74 0.939 . S
C95 C90 1.391 . S
C95 C94 1.388 . S
P96 O107 1.490 . S
P96 C110 1.812 . S
P96 C116 1.803 . S
P96 C122 1.819 . S
H97 C111 0.941 . S
H98 C112 0.939 . S
H99 C114 0.940 . S
H100 C115 0.940 . S
H101 C117 0.939 . S
H102 C118 0.942 . S
H103 C120 0.940 . S
H104 C121 0.939 . S
H105 C123 0.941 . S
H106 C127 0.939 . S
O107 P96 1.490 . S
H108 C124 0.939 . S
H109 C126 0.940 . S
C110 P96 1.812 . S
C110 C111 1.389 . S
C110 C115 1.391 . S
C111 H97 0.941 . S
C111 C110 1.389 . S
C111 C112 1.397 . S
C112 H98 0.939 . S
C112 C111 1.397 . S
C112 C113 1.378 . S
C113 C112 1.378 . S
C113 C114 1.378 . S
C114 H99 0.940 . S
C114 C113 1.378 . S
C114 C115 1.396 . S
C115 H100 0.940 . S
C115 C110 1.391 . S
C115 C114 1.396 . S
C116 P96 1.803 . S
C116 C117 1.378 . S
C116 C121 1.400 . S
C117 H101 0.939 . S
C117 C116 1.378 . S
C117 C118 1.361 . S
C118 H102 0.942 . S
C118 C117 1.361 . S
C118 C119 1.369 . S
C119 C118 1.369 . S
C119 C120 1.404 . S
C120 H103 0.940 . S
C120 C119 1.404 . S
C120 C121 1.389 . S
C121 H104 0.939 . S
C121 C116 1.400 . S
C121 C120 1.389 . S
C122 P96 1.819 . S
C122 C123 1.391 . S
C122 C127 1.391 . S
C123 H105 0.941 . S
C123 C122 1.391 . S
C123 C124 1.396 . S
C124 H108 0.939 . S
C124 C123 1.396 . S
C124 C125 1.397 . S
C125 C124 1.397 . S
C125 C126 1.385 . S
C126 H109 0.940 . S
C126 C125 1.385 . S
C126 C127 1.388 . S
C127 H106 0.939 . S
C127 C122 1.391 . S
C127 C126 1.388 . S
O128 Mg129 1.990 1_655 S
O128 C142 1.253 . S
Mg129 O128 1.990 1_455 S
Mg129 O132 2.180 . S
Mg129 O133 2.117 . S
Mg129 O147 2.030 . S
O130 Mg131 2.072 1_655 S
O130 C142 1.260 . S
Mg131 O130 2.072 1_455 S
Mg131 O132 2.099 . S
Mg131 O134 2.079 1_545 S
Mg131 O135 2.072 1_455 S
Mg131 O137 2.099 1_445 S
Mg131 O148 2.079 1_545 S
O132 Mg129 2.180 . S
O132 Mg131 2.099 . S
O132 C143 1.279 . S
O133 Mg129 2.117 . S
O133 C143 1.250 . S
O134 Mg131 2.079 1_565 S
O134 C144 1.264 . S
O135 Mg131 2.072 1_655 S
O135 C145 1.260 . S
Mg136 O137 2.180 . S
Mg136 O138 2.030 1_655 S
Mg136 O139 1.970 1_565 S
Mg136 O140 2.117 . S
O137 Mg131 2.099 1_665 S
O137 Mg136 2.180 . S
O137 C146 1.279 . S
O138 Mg136 2.030 1_455 S
O138 C144 1.248 . S
O139 Mg136 1.970 1_545 S
O139 C145 1.273 . S
O140 Mg136 2.117 . S
O140 C146 1.250 . S
C141 O147 1.248 1_565 S
C141 O148 1.264 . S
C142 O128 1.253 . S
C142 O130 1.260 . S
C143 O132 1.279 . S
C143 O133 1.250 . S
C144 O134 1.264 . S
C144 O138 1.248 . S
C145 O135 1.260 . S
C145 O139 1.273 . S
C146 O137 1.279 . S
C146 O140 1.250 . S
O147 Mg129 2.030 . S
O147 C141 1.248 1_545 S
O148 Mg131 2.079 1_565 S
O148 C141 1.264 . S
O149 Mg150 1.990 . S
O149 C163 1.253 . S
Mg150 O149 1.990 . S
Mg150 O153 2.180 . S
Mg150 O154 2.117 . S
Mg150 O168 2.030 . S
O151 Mg152 2.072 . S
O151 C163 1.260 . S
Mg152 O151 2.072 . S
Mg152 O153 2.099 . S
Mg152 O155 2.079 1_554 S
Mg152 O156 2.072 1_554 S
Mg152 O158 2.099 . S
Mg152 O169 2.079 . S
O153 Mg150 2.180 . S
O153 Mg152 2.099 . S
O153 C164 1.279 . S
O154 Mg150 2.117 . S
O154 C164 1.250 . S
O155 Mg152 2.079 1_556 S
O155 C165 1.264 . S
O156 Mg152 2.072 1_556 S
O156 C166 1.260 . S
Mg157 O158 2.180 1_556 S
Mg157 O159 2.030 . S
Mg157 O160 1.990 . S
Mg157 O161 2.117 . S
O158 Mg152 2.099 . S
O158 Mg157 2.180 1_554 S
O158 C167 1.279 . S
O159 Mg157 2.030 . S
O159 C165 1.248 . S
O160 Mg157 1.990 . S
O160 C166 1.253 . S
O161 Mg157 2.117 . S
O161 C167 1.250 1_556 S
C162 O168 1.248 . S
C162 O169 1.264 . S
C163 O149 1.253 . S
C163 O151 1.260 . S
C164 O153 1.279 . S
C164 O154 1.250 . S
C165 O155 1.264 . S
C165 O159 1.248 . S
C166 O156 1.260 . S
C166 O160 1.253 . S
C167 O158 1.279 . S
C167 O161 1.250 1_554 S
O168 Mg150 2.030 . S
O168 C162 1.248 . S
O169 Mg152 2.079 . S
O169 C162 1.264 . S
C170 C171 1.363 . S
C170 C176 1.379 . S
C170 N178 1.356 . S
C171 C170 1.363 . S
C171 C177 1.363 . S
C172 C173 1.363 . S
C172 C177 1.379 . S
C172 N179 1.356 . S
C173 C172 1.363 . S
C173 C176 1.363 . S
N174 C176 1.356 . S
N174 H186 0.984 . S
N174 H187 0.985 . S
N175 C177 1.356 . S
N175 H180 0.984 . S
N175 H181 0.985 . S
C176 C170 1.379 . S
C176 C173 1.363 . S
C176 N174 1.356 . S
C177 C171 1.363 . S
C177 C172 1.379 . S
C177 N175 1.356 . S
N178 C170 1.356 . S
N178 H184 0.984 . S
N178 H185 0.984 . S
N179 C172 1.356 . S
N179 H182 0.984 . S
N179 H183 0.985 . S
H180 N175 0.984 . S
H181 N175 0.985 . S
H182 N179 0.984 . S
H183 N179 0.985 . S
H184 N178 0.984 . S
H185 N178 0.984 . S
H186 N174 0.984 . S
H187 N174 0.985 . S
C188 C189 1.363 . S
C188 C194 1.379 . S
C188 N196 1.356 1_554 S
C189 C188 1.363 . S
C189 C195 1.363 . S
C190 C191 1.363 . S
C190 C195 1.379 . S
C190 N197 1.356 . S
C191 C190 1.363 . S
C191 C194 1.363 . S
N192 C194 1.356 1_556 S
N192 H204 0.984 . S
N192 H205 0.985 . S
N193 C195 1.356 . S
N193 H198 0.984 . S
N193 H199 0.985 . S
C194 C188 1.379 . S
C194 C191 1.363 . S
C194 N192 1.356 1_554 S
C195 C189 1.363 . S
C195 C190 1.379 . S
C195 N193 1.356 . S
N196 C188 1.356 1_556 S
N196 H202 0.984 . S
N196 H203 0.984 1_556 S
N197 C190 1.356 . S
N197 H200 0.984 . S
N197 H201 0.985 . S
H198 N193 0.984 . S
H199 N193 0.985 . S
H200 N197 0.984 . S
H201 N197 0.985 . S
H202 N196 0.984 . S
H203 N196 0.984 1_554 S
H204 N192 0.984 . S
H205 N192 0.985 . S
C206 C207 1.363 . S
C206 C212 1.379 . S
C206 N214 1.356 . S
C207 C206 1.363 . S
C207 C213 1.363 . S
C208 C209 1.363 . S
C208 C213 1.379 . S
C208 N215 1.356 . S
C209 C208 1.363 . S
C209 C212 1.363 . S
N210 C212 1.356 . S
N210 H222 0.984 . S
N210 H223 0.985 . S
N211 C213 1.356 . S
N211 H216 0.984 . S
N211 H217 0.985 . S
C212 C206 1.379 . S
C212 C209 1.363 . S
C212 N210 1.356 . S
C213 C207 1.363 . S
C213 C208 1.379 . S
C213 N211 1.356 . S
N214 C206 1.356 . S
N214 H220 0.984 . S
N214 H221 0.984 . S
N215 C208 1.356 . S
N215 H218 0.984 . S
N215 H219 0.985 . S
H216 N211 0.984 . S
H217 N211 0.985 . S
H218 N215 0.984 . S
H219 N215 0.985 . S
H220 N214 0.984 . S
H221 N214 0.984 . S
H222 N210 0.984 . S
H223 N210 0.985 . S
C224 C225 1.360 1_554 S
C224 C230 1.379 . S
C224 N232 1.356 . S
C225 C224 1.360 1_556 S
C225 C231 1.365 . S
C226 C227 1.363 1_556 S
C226 C231 1.379 . S
C226 N233 1.356 . S
C227 C226 1.363 1_554 S
C227 C230 1.363 . S
N228 C230 1.356 . S
N228 H240 0.984 . S
N228 H241 0.985 . S
N229 C231 1.356 . S
N229 H234 0.984 . S
N229 H235 0.985 . S
C230 C224 1.379 . S
C230 C227 1.363 . S
C230 N228 1.356 . S
C231 C225 1.365 . S
C231 C226 1.379 . S
C231 N229 1.356 . S
N232 C224 1.356 . S
N232 H238 0.984 . S
N232 H239 0.984 . S
N233 C226 1.356 . S
N233 H236 0.984 . S
N233 H237 0.985 . S
H234 N229 0.984 . S
H235 N229 0.985 . S
H236 N233 0.984 . S
H237 N233 0.985 . S
H238 N232 0.984 . S
H239 N232 0.984 . S
H240 N228 0.984 . S
H241 N228 0.985 . S
C242 C243 1.363 . S
C242 C248 1.379 . S
C242 N250 1.356 1_565 S
C243 C242 1.363 . S
C243 C249 1.363 . S
C244 C245 1.363 . S
C244 C249 1.379 . S
C244 N251 1.356 . S
C245 C244 1.363 . S
C245 C248 1.363 . S
N246 C248 1.356 1_545 S
N246 H258 0.984 . S
N246 H259 0.985 . S
N247 C249 1.356 . S
N247 H252 0.984 . S
N247 H253 0.985 . S
C248 C242 1.379 . S
C248 C245 1.363 . S
C248 N246 1.356 1_565 S
C249 C243 1.363 . S
C249 C244 1.379 . S
C249 N247 1.356 . S
N250 C242 1.356 1_545 S
N250 H256 0.984 . S
N250 H257 0.984 1_545 S
N251 C244 1.356 . S
N251 H254 0.984 . S
N251 H255 0.985 . S
H252 N247 0.984 . S
H253 N247 0.985 . S
H254 N251 0.984 . S
H255 N251 0.985 . S
H256 N250 0.984 . S
H257 N250 0.984 1_565 S
H258 N246 0.984 . S
H259 N246 0.985 . S
C260 C261 1.363 . S
C260 C266 1.379 . S
C260 N268 1.356 . S
C261 C260 1.363 . S
C261 C267 1.363 . S
C262 C263 1.363 . S
C262 C267 1.379 . S
C262 N269 1.356 . S
C263 C262 1.363 . S
C263 C266 1.363 . S
N264 C266 1.356 . S
N264 H276 0.984 . S
N264 H277 0.985 . S
N265 C267 1.356 . S
N265 H270 0.984 . S
N265 H271 0.985 . S
C266 C260 1.379 . S
C266 C263 1.363 . S
C266 N264 1.356 . S
C267 C261 1.363 . S
C267 C262 1.379 . S
C267 N265 1.356 . S
N268 C260 1.356 . S
N268 H274 0.984 . S
N268 H275 0.984 . S
N269 C262 1.356 . S
N269 H272 0.984 . S
N269 H273 0.980 1_556 S
H270 N265 0.984 . S
H271 N265 0.985 . S
H272 N269 0.984 . S
H273 N269 0.980 1_554 S
H274 N268 0.984 . S
H275 N268 0.984 . S
H276 N264 0.984 . S
H277 N264 0.985 . S
C278 C279 1.363 . S
C278 C284 1.379 . S
C278 N286 1.356 . S
C279 C278 1.363 . S
C279 C285 1.363 . S
C280 C281 1.363 . S
C280 C285 1.379 . S
C280 N287 1.356 . S
C281 C280 1.363 . S
C281 C284 1.363 . S
N282 C284 1.356 . S
N282 H294 0.984 . S
N282 H295 0.985 . S
N283 C285 1.356 . S
N283 H288 0.984 . S
N283 H289 0.985 1_545 S
C284 C278 1.379 . S
C284 C281 1.363 . S
C284 N282 1.356 . S
C285 C279 1.363 . S
C285 C280 1.379 . S
C285 N283 1.356 . S
N286 C278 1.356 . S
N286 H292 0.984 . S
N286 H293 0.984 . S
N287 C280 1.356 . S
N287 H290 0.984 . S
N287 H291 0.985 1_545 S
H288 N283 0.984 . S
H289 N283 0.985 1_565 S
H290 N287 0.984 . S
H291 N287 0.985 1_565 S
H292 N286 0.984 . S
H293 N286 0.984 . S
H294 N282 0.984 . S
H295 N282 0.985 . S
C296 C297 1.363 . S
C296 C302 1.379 . S
C296 N304 1.356 . S
C297 C296 1.363 . S
C297 C303 1.363 . S
C298 C299 1.363 . S
C298 C303 1.379 . S
C298 N305 1.356 . S
C299 C298 1.363 . S
C299 C302 1.363 . S
N300 C302 1.356 . S
N300 H312 0.984 . S
N300 H313 0.985 . S
N301 C303 1.356 . S
N301 H306 0.984 . S
N301 H307 0.985 . S
C302 C296 1.379 . S
C302 C299 1.363 . S
C302 N300 1.356 . S
C303 C297 1.363 . S
C303 C298 1.379 . S
C303 N301 1.356 . S
N304 C296 1.356 . S
N304 H310 0.984 . S
N304 H311 0.984 . S
N305 C298 1.356 . S
N305 H308 0.984 . S
N305 H309 0.985 . S
H306 N301 0.984 . S
H307 N301 0.985 . S
H308 N305 0.984 . S
H309 N305 0.985 . S
H310 N304 0.984 . S
H311 N304 0.984 . S
H312 N300 0.984 . S
H313 N300 0.985 . S
C314 C315 1.363 . S
C314 C320 1.379 . S
C314 N322 1.356 . S
C315 C314 1.363 . S
C315 C321 1.363 . S
C316 C317 1.363 . S
C316 C321 1.379 . S
C316 N323 1.356 . S
C317 C316 1.363 . S
C317 C320 1.363 . S
N318 C320 1.356 . S
N318 H330 0.984 . S
N318 H331 0.985 . S
N319 C321 1.356 . S
N319 H324 0.984 . S
N319 H325 0.985 . S
C320 C314 1.379 . S
C320 C317 1.363 . S
C320 N318 1.356 . S
C321 C315 1.363 . S
C321 C316 1.379 . S
C321 N319 1.356 . S
N322 C314 1.356 . S
N322 H328 0.984 . S
N322 H329 0.984 . S
N323 C316 1.356 . S
N323 H326 0.984 . S
N323 H327 0.985 . S
H324 N319 0.984 . S
H325 N319 0.985 . S
H326 N323 0.984 . S
H327 N323 0.985 . S
H328 N322 0.984 . S
H329 N322 0.984 . S
H330 N318 0.984 . S
H331 N318 0.985 . S
C332 C333 1.363 . S
C332 C338 1.379 . S
C332 N340 1.356 . S
C333 C332 1.363 . S
C333 C339 1.363 . S
C334 C335 1.363 . S
C334 C339 1.379 . S
C334 N341 1.356 . S
C335 C334 1.363 . S
C335 C338 1.363 . S
N336 C338 1.356 . S
N336 H348 0.984 . S
N336 H349 0.985 . S
N337 C339 1.356 . S
N337 H342 0.984 . S
N337 H343 0.985 . S
C338 C332 1.379 . S
C338 C335 1.363 . S
C338 N336 1.356 . S
C339 C333 1.363 . S
C339 C334 1.379 . S
C339 N337 1.356 . S
N340 C332 1.356 . S
N340 H346 0.984 . S
N340 H347 0.984 . S
N341 C334 1.356 . S
N341 H344 0.984 . S
N341 H345 0.985 1_545 S
H342 N337 0.984 . S
H343 N337 0.985 . S
H344 N341 0.984 . S
H345 N341 0.985 1_565 S
H346 N340 0.984 . S
H347 N340 0.984 . S
H348 N336 0.984 . S
H349 N336 0.985 . S
C350 C351 1.363 . S
C350 C356 1.379 . S
C350 N358 1.356 . S
C351 C350 1.363 . S
C351 C357 1.363 . S
C352 C353 1.363 . S
C352 C357 1.379 . S
C352 N359 1.356 . S
C353 C352 1.363 . S
C353 C356 1.363 . S
N354 C356 1.356 . S
N354 H366 0.984 . S
N354 H367 0.985 . S
N355 C357 1.356 . S
N355 H360 0.984 . S
N355 H361 0.985 . S
C356 C350 1.379 . S
C356 C353 1.363 . S
C356 N354 1.356 . S
C357 C351 1.363 . S
C357 C352 1.379 . S
C357 N355 1.356 . S
N358 C350 1.356 . S
N358 H364 0.984 . S
N358 H365 0.984 . S
N359 C352 1.356 . S
N359 H362 0.984 . S
N359 H363 0.985 . S
H360 N355 0.984 . S
H361 N355 0.985 . S
H362 N359 0.984 . S
H363 N359 0.985 . S
H364 N358 0.984 . S
H365 N358 0.984 . S
H366 N354 0.984 . S
H367 N354 0.985 . S
C368 C369 1.363 . S
C368 C374 1.379 . S
C368 N376 1.356 1_565 S
C369 C368 1.363 . S
C369 C375 1.363 . S
C370 C371 1.363 . S
C370 C375 1.379 . S
C370 N377 1.356 . S
C371 C370 1.363 . S
C371 C374 1.363 . S
N372 C374 1.356 1_545 S
N372 H384 0.984 . S
N372 H385 0.985 . S
N373 C375 1.356 . S
N373 H378 0.984 . S
N373 H379 0.985 . S
C374 C368 1.379 . S
C374 C371 1.363 . S
C374 N372 1.356 1_565 S
C375 C369 1.363 . S
C375 C370 1.379 . S
C375 N373 1.356 . S
N376 C368 1.356 1_545 S
N376 H382 0.984 . S
N376 H383 0.984 1_545 S
N377 C370 1.356 . S
N377 H380 0.984 . S
N377 H381 0.985 . S
H378 N373 0.984 . S
H379 N373 0.985 . S
H380 N377 0.984 . S
H381 N377 0.985 . S
H382 N376 0.984 . S
H383 N376 0.984 1_565 S
H384 N372 0.984 . S
H385 N372 0.985 . S
C173 C143 1.371 . S
C171 C119 1.430 . S
C189 C23 1.552 . S
C191 C167 1.358 . S
C207 C55 1.650 . S
C209 C146 1.451 . S
C225 C87 1.543 . S
C227 C164 1.440 . S
C245 C144 1.588 . S
C243 C17 1.603 . S
C263 C166 1.564 . S
C261 C61 1.603 . S
C279 C93 1.485 . S
C281 C145 1.493 . S
C297 C113 1.474 . S
C299 C165 1.489 . S
C317 C163 1.494 . S
C315 C49 1.595 . S
C335 C142 1.559 . S
C333 C81 1.527 . S
C353 C162 1.596 . S
C351 C125 1.472 . S
C369 C29 1.601 . S
C371 C141 1.490 . S
