# Generated by pormake.
# Topology dag, (6,3)-cn, num edge types: 1
# Building blocks:
#     Node 0, Type 0, BuildingBlock: OJICUG_clean_sbu_0, # of connection points: 6
#     Node 1, Type 0, BuildingBlock: OJICUG_clean_sbu_0, # of connection points: 6
#     Node 2, Type 0, BuildingBlock: OJICUG_clean_sbu_0, # of connection points: 6
#     Node 3, Type 0, BuildingBlock: OJICUG_clean_sbu_0, # of connection points: 6
#     Node 4, Type 1, BuildingBlock: CUQRIR_clean_linker_1, # of connection points: 3
#     Node 5, Type 1, BuildingBlock: CUQRIR_clean_linker_1, # of connection points: 3
#     Node 6, Type 1, BuildingBlock: CUQRIR_clean_linker_1, # of connection points: 3
#     Node 7, Type 1, BuildingBlock: CUQRIR_clean_linker_1, # of connection points: 3
#     Node 8, Type 1, BuildingBlock: CUQRIR_clean_linker_1, # of connection points: 3
#     Node 9, Type 1, BuildingBlock: CUQRIR_clean_linker_1, # of connection points: 3
#     Node 10, Type 1, BuildingBlock: CUQRIR_clean_linker_1, # of connection points: 3
#     Node 11, Type 1, BuildingBlock: CUQRIR_clean_linker_1, # of connection points: 3
#     Edge 12, Type (0, 1), BuildingBlock: KIFKEQ_clean_linker_1, # of connection points: 2
#     Edge 13, Type (0, 1), BuildingBlock: KIFKEQ_clean_linker_1, # of connection points: 2
#     Edge 14, Type (0, 1), BuildingBlock: KIFKEQ_clean_linker_1, # of connection points: 2
#     Edge 15, Type (0, 1), BuildingBlock: KIFKEQ_clean_linker_1, # of connection points: 2
#     Edge 16, Type (0, 1), BuildingBlock: KIFKEQ_clean_linker_1, # of connection points: 2
#     Edge 17, Type (0, 1), BuildingBlock: KIFKEQ_clean_linker_1, # of connection points: 2
#     Edge 18, Type (0, 1), BuildingBlock: KIFKEQ_clean_linker_1, # of connection points: 2
#     Edge 19, Type (0, 1), BuildingBlock: KIFKEQ_clean_linker_1, # of connection points: 2
#     Edge 20, Type (0, 1), BuildingBlock: KIFKEQ_clean_linker_1, # of connection points: 2
#     Edge 21, Type (0, 1), BuildingBlock: KIFKEQ_clean_linker_1, # of connection points: 2
#     Edge 22, Type (0, 1), BuildingBlock: KIFKEQ_clean_linker_1, # of connection points: 2
#     Edge 23, Type (0, 1), BuildingBlock: KIFKEQ_clean_linker_1, # of connection points: 2
#     Edge 24, Type (0, 1), BuildingBlock: KIFKEQ_clean_linker_1, # of connection points: 2
#     Edge 25, Type (0, 1), BuildingBlock: KIFKEQ_clean_linker_1, # of connection points: 2
#     Edge 26, Type (0, 1), BuildingBlock: KIFKEQ_clean_linker_1, # of connection points: 2
#     Edge 27, Type (0, 1), BuildingBlock: KIFKEQ_clean_linker_1, # of connection points: 2
#     Edge 28, Type (0, 1), BuildingBlock: KIFKEQ_clean_linker_1, # of connection points: 2
#     Edge 29, Type (0, 1), BuildingBlock: KIFKEQ_clean_linker_1, # of connection points: 2
#     Edge 30, Type (0, 1), BuildingBlock: KIFKEQ_clean_linker_1, # of connection points: 2
#     Edge 31, Type (0, 1), BuildingBlock: KIFKEQ_clean_linker_1, # of connection points: 2
#     Edge 32, Type (0, 1), BuildingBlock: KIFKEQ_clean_linker_1, # of connection points: 2
#     Edge 33, Type (0, 1), BuildingBlock: KIFKEQ_clean_linker_1, # of connection points: 2
#     Edge 34, Type (0, 1), BuildingBlock: KIFKEQ_clean_linker_1, # of connection points: 2
#     Edge 35, Type (0, 1), BuildingBlock: KIFKEQ_clean_linker_1, # of connection points: 2
# Relax obj value: 0.084
# Max RMSD: 0.086
# Mean RMSD: 0.076
data_MOF--net-dag--node1-OJICUG_clean_sbu_0--node2-CUQRIR_clean_linker_1--edge1-KIFKEQ_clean_linker_1
_symmetry_space_group_name_H-M    P1
_symmetry_Int_Tables_number       1
_symmetry_cell_setting            triclinic
loop_
_symmetry_equiv_pos_as_xyz
'x, y, z'
_cell_length_a     35.851758
_cell_length_b     36.400193
_cell_length_c     37.511537
_cell_angle_alpha  92.60401
_cell_angle_beta   90.040546
_cell_angle_gamma 90.081443
loop_
_atom_site_label
_atom_site_type_symbol
_atom_site_fract_x
_atom_site_fract_y
_atom_site_fract_z
_atom_type_partial_charge
Sc0 Sc 0.07811 0.91402 0.01515 0.0
Sc1 Sc 0.10021 0.81992 0.01781 0.0
Sc2 Sc 0.16856 0.88729 0.03912 0.0
O3 O 0.11564 0.87371 0.02402 0.0
C4 C 0.15274 0.94702 0.98221 0.0
C5 C 0.0607 0.85595 0.95143 0.0
C6 C 0.18232 0.81786 0.98535 0.0
C7 C 0.02743 0.8549 0.05351 0.0
C8 C 0.11998 0.94708 0.08404 0.0
C9 C 0.15093 0.82026 0.088 0.0
O10 O 0.11768 0.94651 0.98712 0.0
O11 O 0.07134 0.82828 0.96828 0.0
O12 O 0.19335 0.84631 0.00329 0.0
O13 O 0.03355 0.88673 0.04215 0.0
O14 O 0.15016 0.92996 0.07684 0.0
O15 O 0.12695 0.80555 0.06678 0.0
O16 O 0.09066 0.94305 0.06513 0.0
O17 O 0.04971 0.82816 0.04793 0.0
O18 O 0.16759 0.85015 0.08189 0.0
O19 O 0.06263 0.88885 0.96421 0.0
O20 O 0.17498 0.92597 -0.00206 0.0
O21 O 0.14915 0.80565 0.98701 0.0
Sc22 Sc 0.66782 0.61035 0.47812 0.0
Sc23 Sc 0.60063 0.6776 0.50275 0.0
Sc24 Sc 0.57813 0.58324 0.50442 0.0
O25 O 0.61553 0.62375 0.49516 0.0
C26 C 0.61815 0.55104 0.43399 0.0
C27 C 0.64787 0.67844 0.43079 0.0
C28 C 0.52609 0.64268 0.46903 0.0
C29 C 0.68458 0.67893 0.53162 0.0
C30 C 0.65335 0.54939 0.53466 0.0
C31 C 0.56296 0.64096 0.56965 0.0
O32 O 0.64781 0.56975 0.43903 0.0
O33 O 0.62323 0.69201 0.45191 0.0
O34 O 0.53374 0.61005 0.4772 0.0
O35 O 0.69412 0.6493 0.51492 0.0
O36 O 0.61803 0.55118 0.53244 0.0
O37 O 0.57628 0.66859 0.55434 0.0
O38 O 0.6751 0.56954 0.51728 0.0
O39 O 0.65199 0.6924 0.52965 0.0
O40 O 0.56187 0.60885 0.5548 0.0
O41 O 0.66613 0.64955 0.43714 0.0
O42 O 0.59045 0.55325 0.4551 0.0
O43 O 0.54748 0.66978 0.47661 0.0
Sc44 Sc 0.90055 0.17828 0.00094 0.0
Sc45 Sc 0.83199 0.11131 0.97937 0.0
Sc46 Sc 0.92264 0.08382 0.00233 0.0
O47 O 0.88509 0.12449 0.99418 0.0
C48 C 0.97373 0.14315 0.96515 0.0
C49 C 0.8492 0.17984 0.9317 0.0
C50 C 0.87963 0.05216 0.9332 0.0
C51 C 0.81824 0.17956 0.03385 0.0
C52 C 0.94035 0.1415 0.06681 0.0
C53 C 0.84849 0.04985 0.03484 0.0
O54 O 0.95219 0.17014 0.9724 0.0
O55 O 0.83116 0.15104 0.93888 0.0
O56 O 0.9083 0.05425 0.9532 0.0
O57 O 0.85059 0.19326 0.03019 0.0
O58 O 0.94023 0.10918 0.05242 0.0
O59 O 0.82626 0.07024 0.01836 0.0
O60 O 0.9274 0.16922 0.05141 0.0
O61 O 0.80788 0.1499 0.01764 0.0
O62 O 0.88369 0.05146 0.03136 0.0
O63 O 0.87552 0.1929 0.95121 0.0
O64 O 0.96675 0.11069 0.97437 0.0
O65 O 0.85027 0.07097 0.93937 0.0
Sc66 Sc 0.41878 0.413 0.51327 0.0
Sc67 Sc 0.32989 0.3854 0.54139 0.0
Sc68 Sc 0.39735 0.31856 0.51649 0.0
O69 O 0.38201 0.3723 0.52368 0.0
C70 C 0.43452 0.35408 0.44904 0.0
C71 C 0.34307 0.44507 0.48294 0.0
C72 C 0.3131 0.31659 0.48824 0.0
C73 C 0.37894 0.44576 0.58403 0.0
C74 C 0.47156 0.35523 0.54983 0.0
C75 C 0.35108 0.31771 0.58881 0.0
O76 O 0.43648 0.38606 0.46402 0.0
O77 O 0.32213 0.42699 0.50312 0.0
O78 O 0.34551 0.30286 0.49095 0.0
O79 O 0.40535 0.44496 0.5614 0.0
O80 O 0.45096 0.32771 0.54143 0.0
O81 O 0.33189 0.34584 0.58199 0.0
O82 O 0.46315 0.38791 0.54231 0.0
O83 O 0.3503 0.42528 0.58078 0.0
O84 O 0.37618 0.3046 0.56797 0.0
O85 O 0.37841 0.44225 0.48292 0.0
O86 O 0.42027 0.32682 0.4642 0.0
O87 O 0.30363 0.34678 0.50403 0.0
C88 C 0.09979 0.18492 0.31544 0.0
N89 N 0.0891 0.15904 0.29058 0.0
N90 N 0.13169 0.17469 0.33165 0.0
C91 C 0.07948 0.22046 0.32317 0.0
C92 C 0.14021 0.14181 0.31525 0.0
N93 N 0.11419 0.13226 0.29039 0.0
C94 C 0.17549 0.1207 0.32156 0.0
H95 H 0.08941 0.24116 0.30452 0.0
H96 H 0.08477 0.231 0.35094 0.0
H97 H 0.04906 0.21661 0.31893 0.0
H98 H 0.17389 0.1084 0.34803 0.0
H99 H 0.1998 0.13962 0.32194 0.0
H100 H 0.17991 0.0982 0.3011 0.0
C101 C 0.35537 0.64523 0.80915 0.0
N102 N 0.38271 0.63643 0.78554 0.0
N103 N 0.36287 0.67782 0.82657 0.0
C104 C 0.31977 0.62382 0.81277 0.0
C105 C 0.39573 0.6886 0.81258 0.0
N106 N 0.40776 0.66338 0.78761 0.0
C107 C 0.41423 0.72501 0.82114 0.0
H108 H 0.3009 0.63001 0.79037 0.0
H109 H 0.30554 0.6312 0.83836 0.0
H110 H 0.32541 0.59386 0.81128 0.0
H111 H 0.4124 0.73227 0.8501 0.0
H112 H 0.39948 0.74662 0.80671 0.0
H113 H 0.44396 0.72459 0.81295 0.0
C114 C 0.73111 0.83586 0.2005 0.0
N115 N 0.75998 0.845 0.1795 0.0
N116 N 0.73923 0.80506 0.21789 0.0
C117 C 0.69474 0.85621 0.20329 0.0
C118 C 0.7742 0.79605 0.207 0.0
N119 N 0.78674 0.82033 0.18364 0.0
C120 C 0.79716 0.76556 0.22155 0.0
H121 H 0.69703 0.8782 0.22464 0.0
H122 H 0.67173 0.83743 0.21027 0.0
H123 H 0.68815 0.86922 0.17785 0.0
H124 H 0.7911 0.7397 0.2058 0.0
H125 H 0.78995 0.76134 0.24983 0.0
H126 H 0.82744 0.77143 0.21955 0.0
C127 C 0.76782 0.33309 0.69841 0.0
N128 N 0.74145 0.34149 0.67429 0.0
N129 N 0.75768 0.30275 0.71567 0.0
C130 C 0.8019 0.35589 0.70706 0.0
C131 C 0.72428 0.29307 0.70115 0.0
N132 N 0.71448 0.31657 0.676 0.0
C133 C 0.69982 0.26261 0.7136 0.0
H134 H 0.82585 0.33811 0.71341 0.0
H135 H 0.79608 0.3741 0.73093 0.0
H136 H 0.80954 0.37311 0.68452 0.0
H137 H 0.67893 0.2744 0.73268 0.0
H138 H 0.71647 0.24164 0.7271 0.0
H139 H 0.68454 0.24924 0.6908 0.0
C140 C 0.60324 0.30501 0.20791 0.0
N141 N 0.59168 0.32974 0.23347 0.0
N142 N 0.6366 0.31526 0.19453 0.0
C143 C 0.58159 0.27144 0.19551 0.0
C144 C 0.64498 0.34701 0.21313 0.0
N145 N 0.61759 0.35583 0.23672 0.0
C146 C 0.68162 0.36705 0.21107 0.0
H147 H 0.58914 0.24828 0.21233 0.0
H148 H 0.58825 0.26355 0.16731 0.0
H149 H 0.55117 0.27638 0.19827 0.0
H150 H 0.67961 0.3876 0.1902 0.0
H151 H 0.70461 0.34776 0.20381 0.0
H152 H 0.6885 0.38174 0.23679 0.0
C153 C 0.23208 0.20897 0.82261 0.0
N154 N 0.2186 0.18321 0.8441 0.0
N155 N 0.26461 0.1975 0.80745 0.0
C156 C 0.21231 0.24399 0.81433 0.0
C157 C 0.27035 0.16389 0.82045 0.0
N158 N 0.24255 0.15537 0.84284 0.0
C159 C 0.30129 0.13818 0.80903 0.0
H160 H 0.19791 0.24006 0.78825 0.0
H161 H 0.23249 0.26686 0.81219 0.0
H162 H 0.19147 0.25177 0.83516 0.0
H163 H 0.32523 0.15348 0.79819 0.0
H164 H 0.29065 0.11844 0.788 0.0
H165 H 0.31079 0.12219 0.83181 0.0
C166 C 0.23168 0.66091 0.31695 0.0
N167 N 0.25861 0.65169 0.34002 0.0
N168 N 0.23976 0.69357 0.30284 0.0
C169 C 0.19755 0.63818 0.30846 0.0
C170 C 0.27279 0.70364 0.318 0.0
N171 N 0.28413 0.67815 0.34072 0.0
C172 C 0.29568 0.7362 0.30777 0.0
H173 H 0.2043 0.61757 0.28673 0.0
H174 H 0.17434 0.65567 0.29949 0.0
H175 H 0.18865 0.62318 0.33212 0.0
H176 H 0.28603 0.7609 0.32354 0.0
H177 H 0.292 0.74139 0.27906 0.0
H178 H 0.32574 0.73213 0.31333 0.0
C179 C 0.8531 0.84824 0.71024 0.0
N180 N 0.87882 0.85817 0.73519 0.0
N181 N 0.86507 0.8187 0.69018 0.0
C182 C 0.8148 0.8649 0.70791 0.0
C183 C 0.89894 0.81094 0.70403 0.0
N184 N 0.90737 0.83502 0.73143 0.0
C185 C 0.92428 0.7809 0.68974 0.0
H186 H 0.80623 0.87831 0.73375 0.0
H187 H 0.79382 0.84369 0.69981 0.0
H188 H 0.81516 0.88601 0.68748 0.0
H189 H 0.91946 0.77538 0.66076 0.0
H190 H 0.91832 0.75531 0.70367 0.0
H191 H 0.95396 0.78842 0.69439 0.0
H192 H 0.17927 0.97279 0.1238 0.0
H193 H 0.05919 0.98044 0.11589 0.0
H194 H 0.17846 0.01629 0.17511 0.0
H195 H 0.05862 0.02411 0.1673 0.0
H196 H 0.0721 0.07119 0.28358 0.0
H197 H 0.073 0.02502 0.2337 0.0
H198 H 0.16348 0.08363 0.18556 0.0
H199 H 0.16175 0.12984 0.23528 0.0
C200 C 0.15267 0.98362 0.13302 0.0
C201 C 0.11928 0.97312 0.11562 0.0
C202 C 0.15229 0.00869 0.16232 0.0
C203 C 0.11851 0.02357 0.17515 0.0
C204 C 0.08505 0.0128 0.15814 0.0
C205 C 0.08543 0.98797 0.12857 0.0
C206 C 0.09211 0.07384 0.26226 0.0
C207 C 0.11696 0.10358 0.26294 0.0
C208 C 0.0926 0.04771 0.23378 0.0
C209 C 0.11831 0.05078 0.20578 0.0
C210 C 0.14364 0.08035 0.20696 0.0
C211 C 0.14278 0.10666 0.23523 0.0
H212 H 0.55856 0.70483 0.61151 0.0
H213 H 0.5301 0.58924 0.60987 0.0
H214 H 0.52802 0.71372 0.66945 0.0
H215 H 0.49907 0.59836 0.66691 0.0
H216 H 0.46388 0.61538 0.77901 0.0
H217 H 0.50863 0.61224 0.72972 0.0
H218 H 0.46384 0.71337 0.69139 0.0
H219 H 0.41979 0.71642 0.74122 0.0
C220 C 0.54604 0.68129 0.62351 0.0
C221 C 0.54669 0.64635 0.60585 0.0
C222 C 0.52844 0.68644 0.65666 0.0
C223 C 0.51122 0.65675 0.67286 0.0
C224 C 0.51268 0.62171 0.65558 0.0
C225 C 0.53025 0.61656 0.62259 0.0
C226 C 0.46466 0.63739 0.76055 0.0
C227 C 0.43887 0.66621 0.76375 0.0
C228 C 0.48986 0.6355 0.7322 0.0
C229 C 0.48946 0.66231 0.70635 0.0
C230 C 0.46517 0.69248 0.711 0.0
C231 C 0.44006 0.69439 0.73951 0.0
H232 H 0.77939 0.04915 0.06586 0.0
H233 H 0.88155 0.98664 0.05483 0.0
H234 H 0.75212 0.00034 0.10054 0.0
H235 H 0.85399 0.93796 0.08888 0.0
H236 H 0.77647 0.84203 0.10981 0.0
H237 H 0.79566 0.89379 0.07454 0.0
H238 H 0.76952 0.96905 0.16324 0.0
H239 H 0.75159 0.91682 0.1989 0.0
C240 C 0.79601 0.0251 0.07089 0.0
C241 C 0.83259 0.02167 0.05757 0.0
C242 C 0.78042 0.99733 0.09074 0.0
C243 C 0.8009 0.96544 0.0969 0.0
C244 C 0.83756 0.9622 0.08404 0.0
C245 C 0.85337 0.99017 0.06481 0.0
C246 C 0.77422 0.86975 0.12136 0.0
C247 C 0.76283 0.87571 0.1569 0.0
C248 C 0.78528 0.8992 0.10139 0.0
C249 C 0.78438 0.93517 0.11645 0.0
C250 C 0.77032 0.94147 0.15113 0.0
C251 C 0.75982 0.91181 0.17136 0.0
H252 H 0.52484 0.40592 0.57055 0.0
H253 H 0.49865 0.29001 0.57282 0.0
H254 H 0.58312 0.39524 0.60174 0.0
H255 H 0.55664 0.2796 0.60463 0.0
H256 H 0.66455 0.36977 0.69057 0.0
H257 H 0.60485 0.37883 0.66047 0.0
H258 H 0.62418 0.28005 0.5947 0.0
H259 H 0.68382 0.27131 0.62538 0.0
C260 C 0.53135 0.37819 0.57782 0.0
C261 C 0.50694 0.34884 0.56913 0.0
C262 C 0.56471 0.37211 0.59589 0.0
C263 C 0.57444 0.33658 0.60576 0.0
C264 C 0.55013 0.30723 0.59705 0.0
C265 C 0.51677 0.31327 0.57896 0.0
C266 C 0.65559 0.35 0.66986 0.0
C267 C 0.6782 0.31982 0.66018 0.0
C268 C 0.62174 0.35523 0.65246 0.0
C269 C 0.60986 0.33024 0.62507 0.0
C270 C 0.63234 0.29955 0.61595 0.0
C271 C 0.66631 0.29445 0.63338 0.0
H272 H 0.56831 0.49486 0.42216 0.0
H273 H 0.66408 0.54686 0.37563 0.0
H274 H 0.56787 0.44863 0.37303 0.0
H275 H 0.66344 0.50047 0.32649 0.0
H276 H 0.62278 0.42855 0.22727 0.0
H277 H 0.62188 0.47815 0.27406 0.0
H278 H 0.61274 0.39714 0.35428 0.0
H279 H 0.61478 0.34805 0.30761 0.0
C280 C 0.58908 0.49665 0.40134 0.0
C281 C 0.61639 0.52445 0.40296 0.0
C282 C 0.58891 0.47005 0.37334 0.0
C283 C 0.61576 0.47091 0.34615 0.0
C284 C 0.64233 0.49931 0.34706 0.0
C285 C 0.64279 0.52571 0.3753 0.0
C286 C 0.62088 0.42168 0.25499 0.0
C287 C 0.61838 0.38483 0.26408 0.0
C288 C 0.62031 0.44983 0.28164 0.0
C289 C 0.61684 0.44141 0.3177 0.0
C290 C 0.61476 0.40441 0.32666 0.0
C291 C 0.6159 0.37639 0.3001 0.0
H292 H 0.99155 0.20211 0.92563 0.0
H293 H 0.03607 0.09999 0.96196 0.0
H294 H 0.05088 0.21444 0.89627 0.0
H295 H 0.09529 0.11262 0.93285 0.0
H296 H 0.20697 0.17149 0.91336 0.0
H297 H 0.14675 0.16209 0.94249 0.0
H298 H 0.09005 0.1842 0.84418 0.0
H299 H 0.1505 0.1922 0.81487 0.0
C300 C 0.01393 0.1823 0.92734 0.0
C301 C 0.0091 0.15008 0.94619 0.0
C302 C 0.04778 0.18933 0.91044 0.0
C303 C 0.07763 0.1646 0.91256 0.0
C304 C 0.0728 0.13233 0.93118 0.0
C305 C 0.03881 0.125 0.94761 0.0
C306 C 0.18152 0.17459 0.89823 0.0
C307 C 0.18314 0.18285 0.86211 0.0
C308 C 0.14721 0.1691 0.91474 0.0
C309 C 0.11384 0.17233 0.8955 0.0
C310 C 0.1154 0.18188 0.85965 0.0
C311 C 0.14982 0.18674 0.84299 0.0
H312 H 0.37184 0.47242 0.42214 0.0
H313 H 0.27494 0.47781 0.49073 0.0
H314 H 0.34455 0.51941 0.38557 0.0
H315 H 0.24812 0.5252 0.45435 0.0
H316 H 0.25858 0.64732 0.41094 0.0
H317 H 0.27411 0.59299 0.4444 0.0
H318 H 0.2834 0.52841 0.34537 0.0
H319 H 0.26697 0.5829 0.31219 0.0
C320 C 0.34465 0.48343 0.42925 0.0
C321 C 0.3256 0.47156 0.45938 0.0
C322 C 0.32896 0.51005 0.40818 0.0
C323 C 0.29428 0.52567 0.41723 0.0
C324 C 0.2749 0.51343 0.44692 0.0
C325 C 0.29024 0.48632 0.46762 0.0
C326 C 0.26287 0.62113 0.39667 0.0
C327 C 0.26129 0.61872 0.35935 0.0
C328 C 0.27175 0.59023 0.41561 0.0
C329 C 0.27991 0.5567 0.39733 0.0
C330 C 0.27716 0.55404 0.35995 0.0
C331 C 0.26751 0.58486 0.34107 0.0
H332 H 0.07409 0.89446 0.89234 0.0
H333 H 0.01101 0.80317 0.93014 0.0
H334 H 0.04588 0.88523 0.83353 0.0
H335 H 0.98 0.7957 0.87275 0.0
H336 H 0.93329 0.77672 0.76589 0.0
H337 H 0.97839 0.77817 0.81437 0.0
H338 H 0.99344 0.8951 0.80243 0.0
H339 H 0.95204 0.89191 0.75122 0.0
C340 C 0.05387 0.87256 0.88796 0.0
C341 C 0.04454 0.84957 0.9156 0.0
C342 C 0.03739 0.86735 0.85432 0.0
C343 C 0.01015 0.83984 0.84793 0.0
C344 C 0.00136 0.81661 0.87585 0.0
C345 C 0.01881 0.82107 0.90907 0.0
C346 C 0.94766 0.80224 0.77273 0.0
C347 C 0.93904 0.83428 0.75511 0.0
C348 C 0.97287 0.80342 0.80119 0.0
C349 C 0.98903 0.837 0.81349 0.0
C350 C 0.9821 0.86854 0.79405 0.0
C351 C 0.95797 0.86695 0.76479 0.0
H352 H 0.83109 0.04805 0.87675 0.0
H353 H 0.92802 0.99519 0.92003 0.0
H354 H 0.82884 0.00116 0.82809 0.0
H355 H 0.92558 0.94848 0.8714 0.0
H356 H 0.8797 0.84869 0.80589 0.0
H357 H 0.87997 0.89709 0.85348 0.0
H358 H 0.86867 0.97924 0.7746 0.0
H359 H 0.86922 0.93049 0.72708 0.0
C360 C 0.852 0.02658 0.87582 0.0
C361 C 0.87966 0.02531 0.90237 0.0
C362 C 0.85075 -0.00014 0.8479 0.0
C363 C 0.87683 0.97111 0.84624 0.0
C364 C 0.90483 0.97013 0.87237 0.0
C365 C 0.90637 0.99705 0.90004 0.0
C366 C 0.87716 0.87714 0.79898 0.0
C367 C 0.87485 0.88624 0.76314 0.0
C368 C 0.87746 0.90474 0.82601 0.0
C369 C 0.87472 0.94187 0.81761 0.0
C370 C 0.87073 0.95082 0.78175 0.0
C371 C 0.87095 0.92315 0.75468 0.0
H372 H 0.46972 0.40495 0.40963 0.0
H373 H 0.43622 0.29064 0.40627 0.0
H374 H 0.50036 0.3955 0.35251 0.0
H375 H 0.46634 0.28144 0.34813 0.0
H376 H 0.5371 0.37971 0.24149 0.0
H377 H 0.49108 0.38334 0.28967 0.0
H378 H 0.53016 0.27915 0.32611 0.0
H379 H 0.57535 0.2756 0.27728 0.0
C380 C 0.46837 0.37786 0.3965 0.0
C381 C 0.45067 0.34849 0.41281 0.0
C382 C 0.48569 0.37253 0.36343 0.0
C383 C 0.48563 0.33774 0.34558 0.0
C384 C 0.46711 0.30851 0.36134 0.0
C385 C 0.44978 0.31383 0.39461 0.0
C386 C 0.53475 0.35717 0.25923 0.0
C387 C 0.55944 0.32743 0.25599 0.0
C388 C 0.50882 0.35932 0.28697 0.0
C389 C 0.5074 0.33183 0.31213 0.0
C390 C 0.53027 0.30065 0.30708 0.0
C391 C 0.55606 0.29846 0.27914 0.0
H392 H 0.22593 0.95714 0.96355 0.0
H393 H 0.11461 -0.00177 0.94565 0.0
H394 H 0.2512 0.00356 0.92526 0.0
H395 H 0.13996 0.04481 0.90824 0.0
H396 H 0.18991 0.10744 0.82087 0.0
H397 H 0.17033 0.05239 0.85109 0.0
H398 H 0.25874 0.07086 0.92836 0.0
H399 H 0.27831 0.12556 0.8973 0.0
C400 C 0.20683 0.97592 0.95141 0.0
C401 C 0.16822 0.97398 0.95779 0.0
C402 C 0.22136 0.00257 0.92959 0.0
C403 C 0.19758 0.02772 0.91366 0.0
C404 C 0.15898 0.02539 0.91959 0.0
C405 C 0.14446 -0.00119 0.94132 0.0
C406 C 0.20547 0.09893 0.84383 0.0
C407 C 0.23545 0.12015 0.857 0.0
C408 C 0.19421 0.06781 0.86128 0.0
C409 C 0.21276 0.05754 0.89232 0.0
C410 C 0.24412 0.07786 0.90433 0.0
C411 C 0.25537 0.10902 0.88672 0.0
H412 H 0.49855 0.70822 0.44694 0.0
H413 H 0.47321 0.59203 0.44784 0.0
H414 H 0.44051 0.71849 0.41488 0.0
H415 H 0.41518 0.60252 0.41644 0.0
H416 H 0.33614 0.627 0.32617 0.0
H417 H 0.39551 0.61941 0.35705 0.0
H418 H 0.37208 0.71658 0.42381 0.0
H419 H 0.31251 0.72384 0.39235 0.0
C420 C 0.48063 0.68489 0.44043 0.0
C421 C 0.4907 0.64926 0.44989 0.0
C422 C 0.44728 0.69085 0.42223 0.0
C423 C 0.42339 0.6613 0.413 0.0
C424 C 0.43331 0.62578 0.42267 0.0
C425 C 0.46654 0.61981 0.44087 0.0
C426 C 0.34393 0.64659 0.34747 0.0
C427 C 0.32007 0.67572 0.35736 0.0
C428 C 0.37769 0.64228 0.36519 0.0
C429 C 0.38829 0.66719 0.39312 0.0
C430 C 0.36476 0.69708 0.40227 0.0
C431 C 0.33082 0.70127 0.38447 0.0
H432 H 0.33855 0.4455 0.64589 0.0
H433 H 0.42425 0.50608 0.59251 0.0
H434 H 0.34011 0.49091 0.69585 0.0
H435 H 0.42556 0.55143 0.6425 0.0
H436 H 0.3769 0.64629 0.71534 0.0
H437 H 0.37816 0.59874 0.66703 0.0
H438 H 0.3858 0.51508 0.74477 0.0
H439 H 0.38568 0.5632 0.79303 0.0
C440 C 0.35779 0.46841 0.64484 0.0
C441 C 0.38113 0.47228 0.6151 0.0
C442 C 0.35881 0.49423 0.67355 0.0
C443 C 0.38281 0.52469 0.67289 0.0
C444 C 0.40653 0.52834 0.64347 0.0
C445 C 0.40589 0.50227 0.61497 0.0
C446 C 0.37902 0.6177 0.72188 0.0
C447 C 0.38122 0.60809 0.75758 0.0
C448 C 0.37984 0.59058 0.6944 0.0
C449 C 0.38224 0.55329 0.70223 0.0
C450 C 0.38373 0.54364 0.73808 0.0
C451 C 0.38352 0.57094 0.76557 0.0
H452 H 0.00467 0.79158 0.084 0.0
H453 H 0.97176 0.90427 0.06979 0.0
H454 H 0.94796 0.78176 0.11811 0.0
H455 H 0.91489 0.89411 0.10324 0.0
H456 H 0.82049 0.77013 0.13987 0.0
H457 H 0.88028 0.77745 0.10911 0.0
H458 H 0.8951 0.88351 0.164 0.0
H459 H 0.83532 0.87585 0.19421 0.0
C460 C 0.98536 0.81424 0.08803 0.0
C461 C 0.99288 0.84875 0.07414 0.0
C462 C 0.95277 0.80852 0.10745 0.0
C463 C 0.92702 0.83718 0.11349 0.0
C464 C 0.93449 0.87164 0.09957 0.0
C465 C 0.96702 0.87737 0.08017 0.0
C466 C 0.83709 0.79457 0.14559 0.0
C467 C 0.82369 0.82253 0.16903 0.0
C468 C 0.87115 0.79886 0.1281 0.0
C469 C 0.89224 0.83124 0.13388 0.0
C470 C 0.87921 0.85856 0.15847 0.0
C471 C 0.84528 0.85417 0.17592 0.0
H472 H 0.62097 0.48567 0.55396 0.0
H473 H 0.72293 0.54881 0.56493 0.0
H474 H 0.64917 0.43661 0.58698 0.0
H475 H 0.75079 0.49961 0.59882 0.0
H476 H 0.74576 0.41276 0.69748 0.0
H477 H 0.72882 0.46611 0.66304 0.0
H478 H 0.71177 0.39434 0.5697 0.0
H479 H 0.73023 0.34144 0.60378 0.0
C480 C 0.64923 0.48927 0.56375 0.0
C481 C 0.66978 0.52105 0.5568 0.0
C482 C 0.66538 0.46111 0.5824 0.0
C483 C 0.70212 0.46446 0.595 0.0
C484 C 0.72243 0.49657 0.58915 0.0
C485 C 0.70651 0.52454 0.56979 0.0
C486 C 0.73998 0.4088 0.66925 0.0
C487 C 0.73946 0.37328 0.653 0.0
C488 C 0.73002 0.4391 0.64971 0.0
C489 C 0.71882 0.434 0.61397 0.0
C490 C 0.72021 0.39876 0.59731 0.0
C491 C 0.73082 0.36869 0.61663 0.0
H492 H 0.96289 0.08861 0.1115 0.0
H493 H 0.95597 0.20661 0.10372 0.0
H494 H 0.99395 0.09706 0.16885 0.0
H495 H 0.98685 0.21492 0.16163 0.0
H496 H 0.09222 0.20441 0.23643 0.0
H497 H 0.05107 0.20334 0.18414 0.0
H498 H 0.98348 0.1199 0.23118 0.0
H499 H 0.02491 0.12145 0.28333 0.0
C500 C 0.96766 0.11639 0.12212 0.0
C501 C 0.95712 0.14694 0.1028 0.0
C502 C 0.9852 0.1212 0.15521 0.0
C503 C 0.99273 0.15666 0.16978 0.0
C504 C 0.98158 0.18727 0.15091 0.0
C505 C 0.96379 0.18247 0.11782 0.0
C506 C 0.0679 0.18671 0.23572 0.0
C507 C 0.06143 0.16294 0.26339 0.0
C508 C 0.04441 0.18601 0.20597 0.0
C509 C 0.01423 0.1613 0.20346 0.0
C510 C 0.00681 0.13885 0.23218 0.0
C511 C 0.03024 0.13977 0.26196 0.0
H512 H 0.12465 0.75422 0.11006 0.0
H513 H 0.19795 0.84456 0.14142 0.0
H514 H 0.1413 0.72344 0.16425 0.0
H515 H 0.21486 0.81349 0.19503 0.0
H516 H 0.21542 0.76332 0.30281 0.0
H517 H 0.18929 0.79461 0.25196 0.0
H518 H 0.19734 0.69351 0.18737 0.0
H519 H 0.22326 0.66266 0.23836 0.0
C520 C 0.14423 0.76756 0.12846 0.0
C521 C 0.1601 0.8018 0.12124 0.0
C522 C 0.15382 0.74986 0.15943 0.0
C523 C 0.17934 0.76608 0.18387 0.0
C524 C 0.1947 0.80054 0.17696 0.0
C525 C 0.18522 0.81819 0.14602 0.0
C526 C 0.21111 0.74797 0.27773 0.0
C527 C 0.22108 0.71079 0.27421 0.0
C528 C 0.19636 0.76573 0.2487 0.0
C529 C 0.19142 0.74652 0.21565 0.0
C530 C 0.20033 0.70891 0.2126 0.0
C531 C 0.21511 0.69123 0.24165 0.0
H532 H 0.75388 0.65506 0.55081 0.0
H533 H 0.67951 0.74829 0.56254 0.0
H534 H 0.80071 0.68854 0.58663 0.0
H535 H 0.72629 0.78146 0.59849 0.0
H536 H 0.83197 0.84356 0.63161 0.0
H537 H 0.78955 0.80912 0.5911 0.0
H538 H 0.80773 0.71157 0.65021 0.0
H539 H 0.84963 0.74636 0.69075 0.0
C540 C 0.74748 0.68266 0.56098 0.0
C541 C 0.71288 0.69897 0.55379 0.0
C542 C 0.77429 0.70175 0.58159 0.0
C543 C 0.7672 0.73764 0.59517 0.0
C544 C 0.73272 0.754 0.58793 0.0
C545 C 0.7058 0.73485 0.56758 0.0
C546 C 0.82699 0.81468 0.63554 0.0
C547 C 0.8439 0.79745 0.66404 0.0
C548 C 0.80274 0.79504 0.61259 0.0
C549 C 0.79519 0.75773 0.61767 0.0
C550 C 0.81331 0.74018 0.64544 0.0
C551 C 0.83735 0.75995 0.66851 0.0
H552 H 0.8234 0.24961 0.06341 0.0
H553 H 0.75143 0.15404 0.05775 0.0
H554 H 0.77784 0.28215 0.10138 0.0
H555 H 0.70598 0.18678 0.09551 0.0
H556 H 0.65844 0.24487 0.19869 0.0
H557 H 0.70195 0.21135 0.15893 0.0
H558 H 0.71274 0.30717 0.09582 0.0
H559 H 0.66864 0.3403 0.1355 0.0
C560 C 0.79795 0.23551 0.07028 0.0
C561 C 0.79109 0.19921 0.05751 0.0
C562 C 0.77176 0.25426 0.09179 0.0
C563 C 0.73836 0.237 0.10126 0.0
C564 C 0.73161 0.20065 0.0888 0.0
C565 C 0.75761 0.182 0.06705 0.0
C566 C 0.66961 0.25835 0.17587 0.0
C567 C 0.66021 0.29492 0.16982 0.0
C568 C 0.69455 0.23933 0.15325 0.0
C569 C 0.71079 0.25673 0.12439 0.0
C570 C 0.70098 0.29325 0.11813 0.0
C571 C 0.67577 0.31213 0.14062 0.0
H572 H 0.37192 0.24871 0.60758 0.0
H573 H 0.31324 0.34616 0.64661 0.0
H574 H 0.35636 0.21851 0.66261 0.0
H575 H 0.29772 0.31595 0.70114 0.0
H576 H 0.30101 0.26213 0.80756 0.0
H577 H 0.32756 0.29125 0.75549 0.0
H578 H 0.29606 0.19628 0.68883 0.0
H579 H 0.26933 0.16776 0.74093 0.0
C580 C 0.35599 0.26376 0.62794 0.0
C581 C 0.34355 0.2997 0.6226 0.0
C582 C 0.34701 0.24644 0.65933 0.0
C583 C 0.32589 0.26494 0.68608 0.0
C584 C 0.3144 0.30119 0.68114 0.0
C585 C 0.32301 0.31834 0.64972 0.0
C586 C 0.3001 0.24768 0.7817 0.0
C587 C 0.2831 0.21308 0.77781 0.0
C588 C 0.31521 0.26414 0.75205 0.0
C589 C 0.31374 0.24601 0.71816 0.0
C590 C 0.29797 0.21068 0.71469 0.0
C591 C 0.28264 0.19442 0.7443 0.0
H592 H 0.69698 0.65652 0.37853 0.0
H593 H 0.61756 0.74226 0.40708 0.0
H594 H 0.71286 0.68764 0.32488 0.0
H595 H 0.63313 0.77314 0.35255 0.0
H596 H 0.71458 0.83735 0.27922 0.0
H597 H 0.68671 0.8065 0.3294 0.0
H598 H 0.68865 0.70345 0.26736 0.0
H599 H 0.71713 0.73464 0.21767 0.0
C600 C 0.68261 0.68187 0.37327 0.0
C601 C 0.65613 0.69698 0.39734 0.0
C602 C 0.69151 0.69955 0.34223 0.0
C603 C 0.67411 0.73277 0.33435 0.0
C604 C 0.64719 0.7477 0.35805 0.0
C605 C 0.63822 0.72994 0.38923 0.0
C606 C 0.70813 0.8083 0.27629 0.0
C607 C 0.71793 0.78811 0.245 0.0
C608 C 0.6922 0.79063 0.30485 0.0
C609 C 0.68583 0.75245 0.30246 0.0
C610 C 0.69385 0.73275 0.27025 0.0
C611 C 0.7099 0.75045 0.24182 0.0
H612 H 0.88979 0.22977 0.89496 0.0
H613 H 0.78317 0.1741 0.89619 0.0
H614 H 0.86988 0.26239 0.84239 0.0
H615 H 0.76353 0.2068 0.84429 0.0
H616 H 0.72643 0.30389 0.78047 0.0
H617 H 0.75089 0.27567 0.8337 0.0
H618 H 0.85026 0.24312 0.77549 0.0
H619 H 0.825 0.2708 0.72189 0.0
C620 C 0.86219 0.22455 0.8841 0.0
C621 C 0.83803 0.1994 0.89974 0.0
C622 C 0.85093 0.24306 0.85402 0.0
C623 C 0.81515 0.23719 0.83961 0.0
C624 C 0.79113 0.21206 0.85518 0.0
C625 C 0.80251 0.1932 0.88476 0.0
C626 C 0.75353 0.2908 0.77931 0.0
C627 C 0.7739 0.28914 0.74742 0.0
C628 C 0.7675 0.27475 0.80956 0.0
C629 C 0.80232 0.25713 0.80849 0.0
C630 C 0.82345 0.25679 0.77695 0.0
C631 C 0.80916 0.27252 0.74647 0.0
H632 H 0.24735 0.34244 0.46192 0.0
H633 H 0.31538 0.24458 0.46433 0.0
H634 H 0.20131 0.30856 0.42526 0.0
H635 H 0.26927 0.21092 0.42784 0.0
H636 H 0.15864 0.15444 0.39483 0.0
H637 H 0.202 0.18931 0.43406 0.0
H638 H 0.19977 0.27873 0.36225 0.0
H639 H 0.15736 0.24325 0.3227 0.0
C640 C 0.25245 0.31373 0.45474 0.0
C641 C 0.28508 0.29624 0.46602 0.0
C642 C 0.22616 0.29443 0.43365 0.0
C643 C 0.23172 0.25713 0.42386 0.0
C644 C 0.26413 0.23956 0.43534 0.0
C645 C 0.29064 0.25894 0.45601 0.0
C646 C 0.1676 0.1815 0.38757 0.0
C647 C 0.15481 0.19629 0.35594 0.0
C648 C 0.19227 0.20143 0.4099 0.0
C649 C 0.20422 0.23668 0.40112 0.0
C650 C 0.19066 0.2518 0.36985 0.0
C651 C 0.16636 0.23165 0.34734 0.0
H652 H 0.25747 0.83015 0.97952 0.0
H653 H 0.16849 0.76044 0.93745 0.0
H654 H 0.30184 0.79717 0.94067 0.0
H655 H 0.21301 0.72738 0.89899 0.0
H656 H 0.29605 0.70392 0.80805 0.0
H657 H 0.25226 0.73889 0.84644 0.0
H658 H 0.33037 0.73491 0.93401 0.0
H659 H 0.37392 0.69979 0.89519 0.0
C660 C 0.24732 0.80783 0.96204 0.0
C661 C 0.20934 0.79799 0.96164 0.0
C662 C 0.27283 0.78881 0.93994 0.0
C663 C 0.26089 0.75973 0.9168 0.0
C664 C 0.22296 0.74996 0.91627 0.0
C665 C 0.19749 0.7688 0.93849 0.0
C666 C 0.30359 0.71065 0.83554 0.0
C667 C 0.33802 0.6994 0.84895 0.0
C668 C 0.27865 0.73046 0.8575 0.0
C669 C 0.28785 0.73952 0.89327 0.0
C670 C 0.32269 0.72865 0.90647 0.0
C671 C 0.34754 0.70863 0.88445 0.0
loop_
_geom_bond_atom_site_label_1
_geom_bond_atom_site_label_2
_geom_bond_distance
_geom_bond_site_symmetry_2
_ccdc_geom_bond_type
Sc0 O3 2.025 . S
Sc0 O10 2.105 1_554 S
Sc0 O13 2.105 . S
Sc0 O16 2.105 . S
Sc0 O19 2.105 1_554 S
Sc1 O3 2.025 . S
Sc1 O11 2.105 1_554 S
Sc1 O15 2.105 . S
Sc1 O17 2.105 . S
Sc1 O21 2.105 1_554 S
Sc2 O3 2.025 . S
Sc2 O12 2.105 1_554 S
Sc2 O14 2.105 . S
Sc2 O18 2.105 . S
Sc2 O20 2.105 1_554 S
O3 Sc0 2.025 . S
O3 Sc1 2.025 . S
O3 Sc2 2.025 . S
C4 O10 1.268 . S
C4 O20 1.268 . S
C5 O11 1.268 . S
C5 O19 1.268 . S
C6 O12 1.268 . S
C6 O21 1.268 . S
C7 O13 1.268 . S
C7 O17 1.268 . S
C8 O14 1.268 . S
C8 O16 1.268 . S
C9 O15 1.268 . S
C9 O18 1.268 . S
O10 Sc0 2.105 1_556 S
O10 C4 1.268 . S
O11 Sc1 2.105 1_556 S
O11 C5 1.268 . S
O12 Sc2 2.105 1_556 S
O12 C6 1.268 . S
O13 Sc0 2.105 . S
O13 C7 1.268 . S
O14 Sc2 2.105 . S
O14 C8 1.268 . S
O15 Sc1 2.105 . S
O15 C9 1.268 . S
O16 Sc0 2.105 . S
O16 C8 1.268 . S
O17 Sc1 2.105 . S
O17 C7 1.268 . S
O18 Sc2 2.105 . S
O18 C9 1.268 . S
O19 Sc0 2.105 1_556 S
O19 C5 1.268 . S
O20 Sc2 2.105 1_556 S
O20 C4 1.268 . S
O21 Sc1 2.105 1_556 S
O21 C6 1.268 . S
Sc22 O25 2.025 . S
Sc22 O32 2.105 . S
Sc22 O35 2.105 . S
Sc22 O38 2.105 . S
Sc22 O41 2.105 . S
Sc23 O25 2.025 . S
Sc23 O33 2.105 . S
Sc23 O37 2.105 . S
Sc23 O39 2.105 . S
Sc23 O43 2.105 . S
Sc24 O25 2.025 . S
Sc24 O34 2.105 . S
Sc24 O36 2.105 . S
Sc24 O40 2.105 . S
Sc24 O42 2.105 . S
O25 Sc22 2.025 . S
O25 Sc23 2.025 . S
O25 Sc24 2.025 . S
C26 O32 1.268 . S
C26 O42 1.268 . S
C27 O33 1.268 . S
C27 O41 1.268 . S
C28 O34 1.268 . S
C28 O43 1.268 . S
C29 O35 1.268 . S
C29 O39 1.268 . S
C30 O36 1.268 . S
C30 O38 1.268 . S
C31 O37 1.268 . S
C31 O40 1.268 . S
O32 Sc22 2.105 . S
O32 C26 1.268 . S
O33 Sc23 2.105 . S
O33 C27 1.268 . S
O34 Sc24 2.105 . S
O34 C28 1.268 . S
O35 Sc22 2.105 . S
O35 C29 1.268 . S
O36 Sc24 2.105 . S
O36 C30 1.268 . S
O37 Sc23 2.105 . S
O37 C31 1.268 . S
O38 Sc22 2.105 . S
O38 C30 1.268 . S
O39 Sc23 2.105 . S
O39 C29 1.268 . S
O40 Sc24 2.105 . S
O40 C31 1.268 . S
O41 Sc22 2.105 . S
O41 C27 1.268 . S
O42 Sc24 2.105 . S
O42 C26 1.268 . S
O43 Sc23 2.105 . S
O43 C28 1.268 . S
Sc44 O47 2.025 . S
Sc44 O54 2.105 1_554 S
Sc44 O57 2.105 . S
Sc44 O60 2.105 . S
Sc44 O63 2.105 1_554 S
Sc45 O47 2.025 1_556 S
Sc45 O55 2.105 . S
Sc45 O59 2.105 1_556 S
Sc45 O61 2.105 1_556 S
Sc45 O65 2.105 . S
Sc46 O47 2.025 . S
Sc46 O56 2.105 1_554 S
Sc46 O58 2.105 . S
Sc46 O62 2.105 . S
Sc46 O64 2.105 1_554 S
O47 Sc44 2.025 . S
O47 Sc45 2.025 1_554 S
O47 Sc46 2.025 . S
C48 O54 1.268 . S
C48 O64 1.268 . S
C49 O55 1.268 . S
C49 O63 1.268 . S
C50 O56 1.268 . S
C50 O65 1.268 . S
C51 O57 1.268 . S
C51 O61 1.268 . S
C52 O58 1.268 . S
C52 O60 1.268 . S
C53 O59 1.268 . S
C53 O62 1.268 . S
O54 Sc44 2.105 1_556 S
O54 C48 1.268 . S
O55 Sc45 2.105 . S
O55 C49 1.268 . S
O56 Sc46 2.105 1_556 S
O56 C50 1.268 . S
O57 Sc44 2.105 . S
O57 C51 1.268 . S
O58 Sc46 2.105 . S
O58 C52 1.268 . S
O59 Sc45 2.105 1_554 S
O59 C53 1.268 . S
O60 Sc44 2.105 . S
O60 C52 1.268 . S
O61 Sc45 2.105 1_554 S
O61 C51 1.268 . S
O62 Sc46 2.105 . S
O62 C53 1.268 . S
O63 Sc44 2.105 1_556 S
O63 C49 1.268 . S
O64 Sc46 2.105 1_556 S
O64 C48 1.268 . S
O65 Sc45 2.105 . S
O65 C50 1.268 . S
Sc66 O69 2.025 . S
Sc66 O76 2.105 . S
Sc66 O79 2.105 . S
Sc66 O82 2.105 . S
Sc66 O85 2.105 . S
Sc67 O69 2.025 . S
Sc67 O77 2.105 . S
Sc67 O81 2.105 . S
Sc67 O83 2.105 . S
Sc67 O87 2.105 . S
Sc68 O69 2.025 . S
Sc68 O78 2.105 . S
Sc68 O80 2.105 . S
Sc68 O84 2.105 . S
Sc68 O86 2.105 . S
O69 Sc66 2.025 . S
O69 Sc67 2.025 . S
O69 Sc68 2.025 . S
C70 O76 1.268 . S
C70 O86 1.268 . S
C71 O77 1.268 . S
C71 O85 1.268 . S
C72 O78 1.268 . S
C72 O87 1.268 . S
C73 O79 1.268 . S
C73 O83 1.268 . S
C74 O80 1.268 . S
C74 O82 1.268 . S
C75 O81 1.268 . S
C75 O84 1.268 . S
O76 Sc66 2.105 . S
O76 C70 1.268 . S
O77 Sc67 2.105 . S
O77 C71 1.268 . S
O78 Sc68 2.105 . S
O78 C72 1.268 . S
O79 Sc66 2.105 . S
O79 C73 1.268 . S
O80 Sc68 2.105 . S
O80 C74 1.268 . S
O81 Sc67 2.105 . S
O81 C75 1.268 . S
O82 Sc66 2.105 . S
O82 C74 1.268 . S
O83 Sc67 2.105 . S
O83 C73 1.268 . S
O84 Sc68 2.105 . S
O84 C75 1.268 . S
O85 Sc66 2.105 . S
O85 C71 1.268 . S
O86 Sc68 2.105 . S
O86 C70 1.268 . S
O87 Sc67 2.105 . S
O87 C72 1.268 . S
C88 N89 1.317 . S
C88 N90 1.348 . S
C88 C91 1.485 . S
N89 C88 1.317 . S
N89 N93 1.370 . S
N90 C88 1.348 . S
N90 C92 1.346 . S
C91 C88 1.485 . S
C91 H95 0.960 . S
C91 H96 0.961 . S
C91 H97 0.960 . S
C92 N90 1.346 . S
C92 N93 1.307 . S
C92 C94 1.486 . S
N93 N89 1.370 . S
N93 C92 1.307 . S
C94 C92 1.486 . S
C94 H98 0.960 . S
C94 H99 0.960 . S
C94 H100 0.959 . S
H95 C91 0.960 . S
H96 C91 0.961 . S
H97 C91 0.960 . S
H98 C94 0.960 . S
H99 C94 0.960 . S
H100 C94 0.959 . S
C101 N102 1.317 . S
C101 N103 1.348 . S
C101 C104 1.485 . S
N102 C101 1.317 . S
N102 N106 1.370 . S
N103 C101 1.348 . S
N103 C105 1.346 . S
C104 C101 1.485 . S
C104 H108 0.960 . S
C104 H109 0.961 . S
C104 H110 0.960 . S
C105 N103 1.346 . S
C105 N106 1.307 . S
C105 C107 1.486 . S
N106 N102 1.370 . S
N106 C105 1.307 . S
C107 C105 1.486 . S
C107 H111 0.960 . S
C107 H112 0.960 . S
C107 H113 0.959 . S
H108 C104 0.960 . S
H109 C104 0.961 . S
H110 C104 0.960 . S
H111 C107 0.960 . S
H112 C107 0.960 . S
H113 C107 0.959 . S
C114 N115 1.317 . S
C114 N116 1.348 . S
C114 C117 1.485 . S
N115 C114 1.317 . S
N115 N119 1.370 . S
N116 C114 1.348 . S
N116 C118 1.346 . S
C117 C114 1.485 . S
C117 H121 0.960 . S
C117 H122 0.961 . S
C117 H123 0.960 . S
C118 N116 1.346 . S
C118 N119 1.307 . S
C118 C120 1.486 . S
N119 N115 1.370 . S
N119 C118 1.307 . S
C120 C118 1.486 . S
C120 H124 0.960 . S
C120 H125 0.960 . S
C120 H126 0.959 . S
H121 C117 0.960 . S
H122 C117 0.961 . S
H123 C117 0.960 . S
H124 C120 0.960 . S
H125 C120 0.960 . S
H126 C120 0.959 . S
C127 N128 1.317 . S
C127 N129 1.348 . S
C127 C130 1.485 . S
N128 C127 1.317 . S
N128 N132 1.370 . S
N129 C127 1.348 . S
N129 C131 1.346 . S
C130 C127 1.485 . S
C130 H134 0.960 . S
C130 H135 0.961 . S
C130 H136 0.960 . S
C131 N129 1.346 . S
C131 N132 1.307 . S
C131 C133 1.486 . S
N132 N128 1.370 . S
N132 C131 1.307 . S
C133 C131 1.486 . S
C133 H137 0.960 . S
C133 H138 0.960 . S
C133 H139 0.959 . S
H134 C130 0.960 . S
H135 C130 0.961 . S
H136 C130 0.960 . S
H137 C133 0.960 . S
H138 C133 0.960 . S
H139 C133 0.959 . S
C140 N141 1.317 . S
C140 N142 1.348 . S
C140 C143 1.485 . S
N141 C140 1.317 . S
N141 N145 1.370 . S
N142 C140 1.348 . S
N142 C144 1.346 . S
C143 C140 1.485 . S
C143 H147 0.960 . S
C143 H148 0.961 . S
C143 H149 0.960 . S
C144 N142 1.346 . S
C144 N145 1.307 . S
C144 C146 1.486 . S
N145 N141 1.370 . S
N145 C144 1.307 . S
C146 C144 1.486 . S
C146 H150 0.960 . S
C146 H151 0.960 . S
C146 H152 0.959 . S
H147 C143 0.960 . S
H148 C143 0.961 . S
H149 C143 0.960 . S
H150 C146 0.960 . S
H151 C146 0.960 . S
H152 C146 0.959 . S
C153 N154 1.317 . S
C153 N155 1.348 . S
C153 C156 1.485 . S
N154 C153 1.317 . S
N154 N158 1.370 . S
N155 C153 1.348 . S
N155 C157 1.346 . S
C156 C153 1.485 . S
C156 H160 0.960 . S
C156 H161 0.961 . S
C156 H162 0.960 . S
C157 N155 1.346 . S
C157 N158 1.307 . S
C157 C159 1.486 . S
N158 N154 1.370 . S
N158 C157 1.307 . S
C159 C157 1.486 . S
C159 H163 0.960 . S
C159 H164 0.960 . S
C159 H165 0.959 . S
H160 C156 0.960 . S
H161 C156 0.961 . S
H162 C156 0.960 . S
H163 C159 0.960 . S
H164 C159 0.960 . S
H165 C159 0.959 . S
C166 N167 1.317 . S
C166 N168 1.348 . S
C166 C169 1.485 . S
N167 C166 1.317 . S
N167 N171 1.370 . S
N168 C166 1.348 . S
N168 C170 1.346 . S
C169 C166 1.485 . S
C169 H173 0.960 . S
C169 H174 0.961 . S
C169 H175 0.960 . S
C170 N168 1.346 . S
C170 N171 1.307 . S
C170 C172 1.486 . S
N171 N167 1.370 . S
N171 C170 1.307 . S
C172 C170 1.486 . S
C172 H176 0.960 . S
C172 H177 0.960 . S
C172 H178 0.959 . S
H173 C169 0.960 . S
H174 C169 0.961 . S
H175 C169 0.960 . S
H176 C172 0.960 . S
H177 C172 0.960 . S
H178 C172 0.959 . S
C179 N180 1.317 . S
C179 N181 1.348 . S
C179 C182 1.485 . S
N180 C179 1.317 . S
N180 N184 1.370 . S
N181 C179 1.348 . S
N181 C183 1.346 . S
C182 C179 1.485 . S
C182 H186 0.960 . S
C182 H187 0.961 . S
C182 H188 0.960 . S
C183 N181 1.346 . S
C183 N184 1.307 . S
C183 C185 1.486 . S
N184 N180 1.370 . S
N184 C183 1.307 . S
C185 C183 1.486 . S
C185 H189 0.960 . S
C185 H190 0.960 . S
C185 H191 0.959 . S
H186 C182 0.960 . S
H187 C182 0.961 . S
H188 C182 0.960 . S
H189 C185 0.960 . S
H190 C185 0.960 . S
H191 C185 0.959 . S
H192 C200 0.950 . S
H193 C205 0.950 . S
H194 C202 0.950 . S
H195 C204 0.950 . S
H196 C206 0.950 . S
H197 C208 0.950 . S
H198 C210 0.950 . S
H199 C211 0.950 . S
C200 H192 0.950 . S
C200 C201 1.386 . S
C200 C202 1.391 1_565 S
C201 C200 1.386 . S
C201 C205 1.393 . S
C202 H194 0.950 . S
C202 C200 1.391 1_545 S
C202 C203 1.400 . S
C203 C202 1.400 . S
C203 C204 1.398 1_545 S
C203 C209 1.491 . S
C204 H195 0.950 . S
C204 C203 1.398 1_565 S
C204 C205 1.391 . S
C205 H193 0.950 . S
C205 C201 1.393 . S
C205 C204 1.391 . S
C206 H196 0.950 . S
C206 C207 1.386 . S
C206 C208 1.391 . S
C207 C206 1.386 . S
C207 C211 1.393 . S
C208 H197 0.950 . S
C208 C206 1.391 . S
C208 C209 1.400 . S
C209 C203 1.491 . S
C209 C208 1.400 . S
C209 C210 1.398 . S
C210 H198 0.950 . S
C210 C209 1.398 . S
C210 C211 1.391 . S
C211 H199 0.950 . S
C211 C207 1.393 . S
C211 C210 1.391 . S
H212 C220 0.950 . S
H213 C225 0.950 . S
H214 C222 0.950 . S
H215 C224 0.950 . S
H216 C226 0.950 . S
H217 C228 0.950 . S
H218 C230 0.950 . S
H219 C231 0.950 . S
C220 H212 0.950 . S
C220 C221 1.386 . S
C220 C222 1.391 . S
C221 C220 1.386 . S
C221 C225 1.393 . S
C222 H214 0.950 . S
C222 C220 1.391 . S
C222 C223 1.400 . S
C223 C222 1.400 . S
C223 C224 1.398 . S
C223 C229 1.491 . S
C224 H215 0.950 . S
C224 C223 1.398 . S
C224 C225 1.391 . S
C225 H213 0.950 . S
C225 C221 1.393 . S
C225 C224 1.391 . S
C226 H216 0.950 . S
C226 C227 1.386 . S
C226 C228 1.391 . S
C227 C226 1.386 . S
C227 C231 1.393 . S
C228 H217 0.950 . S
C228 C226 1.391 . S
C228 C229 1.400 . S
C229 C223 1.491 . S
C229 C228 1.400 . S
C229 C230 1.398 . S
C230 H218 0.950 . S
C230 C229 1.398 . S
C230 C231 1.391 . S
C231 H219 0.950 . S
C231 C227 1.393 . S
C231 C230 1.391 . S
H232 C240 0.950 . S
H233 C245 0.950 . S
H234 C242 0.950 . S
H235 C244 0.950 . S
H236 C246 0.950 . S
H237 C248 0.950 . S
H238 C250 0.950 . S
H239 C251 0.950 . S
C240 H232 0.950 . S
C240 C241 1.386 . S
C240 C242 1.391 . S
C241 C240 1.386 . S
C241 C245 1.393 . S
C242 H234 0.950 . S
C242 C240 1.391 . S
C242 C243 1.400 1_545 S
C243 C242 1.400 1_565 S
C243 C244 1.398 . S
C243 C249 1.491 . S
C244 H235 0.950 . S
C244 C243 1.398 . S
C244 C245 1.391 1_565 S
C245 H233 0.950 . S
C245 C241 1.393 . S
C245 C244 1.391 1_545 S
C246 H236 0.950 . S
C246 C247 1.386 . S
C246 C248 1.391 . S
C247 C246 1.386 . S
C247 C251 1.393 . S
C248 H237 0.950 . S
C248 C246 1.391 . S
C248 C249 1.400 . S
C249 C243 1.491 . S
C249 C248 1.400 . S
C249 C250 1.398 . S
C250 H238 0.950 . S
C250 C249 1.398 . S
C250 C251 1.391 . S
C251 H239 0.950 . S
C251 C247 1.393 . S
C251 C250 1.391 . S
H252 C260 0.950 . S
H253 C265 0.950 . S
H254 C262 0.950 . S
H255 C264 0.950 . S
H256 C266 0.950 . S
H257 C268 0.950 . S
H258 C270 0.950 . S
H259 C271 0.950 . S
C260 H252 0.950 . S
C260 C261 1.386 . S
C260 C262 1.391 . S
C261 C260 1.386 . S
C261 C265 1.393 . S
C262 H254 0.950 . S
C262 C260 1.391 . S
C262 C263 1.400 . S
C263 C262 1.400 . S
C263 C264 1.398 . S
C263 C269 1.491 . S
C264 H255 0.950 . S
C264 C263 1.398 . S
C264 C265 1.391 . S
C265 H253 0.950 . S
C265 C261 1.393 . S
C265 C264 1.391 . S
C266 H256 0.950 . S
C266 C267 1.386 . S
C266 C268 1.391 . S
C267 C266 1.386 . S
C267 C271 1.393 . S
C268 H257 0.950 . S
C268 C266 1.391 . S
C268 C269 1.400 . S
C269 C263 1.491 . S
C269 C268 1.400 . S
C269 C270 1.398 . S
C270 H258 0.950 . S
C270 C269 1.398 . S
C270 C271 1.391 . S
C271 H259 0.950 . S
C271 C267 1.393 . S
C271 C270 1.391 . S
H272 C280 0.950 . S
H273 C285 0.950 . S
H274 C282 0.950 . S
H275 C284 0.950 . S
H276 C286 0.950 . S
H277 C288 0.950 . S
H278 C290 0.950 . S
H279 C291 0.950 . S
C280 H272 0.950 . S
C280 C281 1.386 . S
C280 C282 1.391 . S
C281 C280 1.386 . S
C281 C285 1.393 . S
C282 H274 0.950 . S
C282 C280 1.391 . S
C282 C283 1.400 . S
C283 C282 1.400 . S
C283 C284 1.398 . S
C283 C289 1.491 . S
C284 H275 0.950 . S
C284 C283 1.398 . S
C284 C285 1.391 . S
C285 H273 0.950 . S
C285 C281 1.393 . S
C285 C284 1.391 . S
C286 H276 0.950 . S
C286 C287 1.386 . S
C286 C288 1.391 . S
C287 C286 1.386 . S
C287 C291 1.393 . S
C288 H277 0.950 . S
C288 C286 1.391 . S
C288 C289 1.400 . S
C289 C283 1.491 . S
C289 C288 1.400 . S
C289 C290 1.398 . S
C290 H278 0.950 . S
C290 C289 1.398 . S
C290 C291 1.391 . S
C291 H279 0.950 . S
C291 C287 1.393 . S
C291 C290 1.391 . S
H292 C300 0.950 . S
H293 C305 0.950 . S
H294 C302 0.950 . S
H295 C304 0.950 . S
H296 C306 0.950 . S
H297 C308 0.950 . S
H298 C310 0.950 . S
H299 C311 0.950 . S
C300 H292 0.950 . S
C300 C301 1.386 . S
C300 C302 1.391 1_655 S
C301 C300 1.386 . S
C301 C305 1.393 1_655 S
C302 H294 0.950 . S
C302 C300 1.391 1_455 S
C302 C303 1.400 . S
C303 C302 1.400 . S
C303 C304 1.398 . S
C303 C309 1.491 . S
C304 H295 0.950 . S
C304 C303 1.398 . S
C304 C305 1.391 . S
C305 H293 0.950 . S
C305 C301 1.393 1_455 S
C305 C304 1.391 . S
C306 H296 0.950 . S
C306 C307 1.386 . S
C306 C308 1.391 . S
C307 C306 1.386 . S
C307 C311 1.393 . S
C308 H297 0.950 . S
C308 C306 1.391 . S
C308 C309 1.400 . S
C309 C303 1.491 . S
C309 C308 1.400 . S
C309 C310 1.398 . S
C310 H298 0.950 . S
C310 C309 1.398 . S
C310 C311 1.391 . S
C311 H299 0.950 . S
C311 C307 1.393 . S
C311 C310 1.391 . S
H312 C320 0.950 . S
H313 C325 0.950 . S
H314 C322 0.950 . S
H315 C324 0.950 . S
H316 C326 0.950 . S
H317 C328 0.950 . S
H318 C330 0.950 . S
H319 C331 0.950 . S
C320 H312 0.950 . S
C320 C321 1.386 . S
C320 C322 1.391 . S
C321 C320 1.386 . S
C321 C325 1.393 . S
C322 H314 0.950 . S
C322 C320 1.391 . S
C322 C323 1.400 . S
C323 C322 1.400 . S
C323 C324 1.398 . S
C323 C329 1.491 . S
C324 H315 0.950 . S
C324 C323 1.398 . S
C324 C325 1.391 . S
C325 H313 0.950 . S
C325 C321 1.393 . S
C325 C324 1.391 . S
C326 H316 0.950 . S
C326 C327 1.386 . S
C326 C328 1.391 . S
C327 C326 1.386 . S
C327 C331 1.393 . S
C328 H317 0.950 . S
C328 C326 1.391 . S
C328 C329 1.400 . S
C329 C323 1.491 . S
C329 C328 1.400 . S
C329 C330 1.398 . S
C330 H318 0.950 . S
C330 C329 1.398 . S
C330 C331 1.391 . S
C331 H319 0.950 . S
C331 C327 1.393 . S
C331 C330 1.391 . S
H332 C340 0.950 . S
H333 C345 0.950 . S
H334 C342 0.950 . S
H335 C344 0.950 . S
H336 C346 0.950 . S
H337 C348 0.950 . S
H338 C350 0.950 1_455 S
H339 C351 0.950 . S
C340 H332 0.950 . S
C340 C341 1.386 . S
C340 C342 1.391 . S
C341 C340 1.386 . S
C341 C345 1.393 . S
C342 H334 0.950 . S
C342 C340 1.391 . S
C342 C343 1.400 . S
C343 C342 1.400 . S
C343 C344 1.398 1_455 S
C343 C349 1.491 1_455 S
C344 H335 0.950 . S
C344 C343 1.398 1_655 S
C344 C345 1.391 1_655 S
C345 H333 0.950 . S
C345 C341 1.393 . S
C345 C344 1.391 1_455 S
C346 H336 0.950 . S
C346 C347 1.386 . S
C346 C348 1.391 . S
C347 C346 1.386 . S
C347 C351 1.393 . S
C348 H337 0.950 . S
C348 C346 1.391 . S
C348 C349 1.400 . S
C349 C343 1.491 1_655 S
C349 C348 1.400 . S
C349 C350 1.398 . S
C350 H338 0.950 1_655 S
C350 C349 1.398 . S
C350 C351 1.391 . S
C351 H339 0.950 . S
C351 C347 1.393 . S
C351 C350 1.391 . S
H352 C360 0.950 . S
H353 C365 0.950 . S
H354 C362 0.950 . S
H355 C364 0.950 . S
H356 C366 0.950 . S
H357 C368 0.950 . S
H358 C370 0.950 . S
H359 C371 0.950 . S
C360 H352 0.950 . S
C360 C361 1.386 . S
C360 C362 1.391 . S
C361 C360 1.386 . S
C361 C365 1.393 . S
C362 H354 0.950 . S
C362 C360 1.391 . S
C362 C363 1.400 1_545 S
C363 C362 1.400 1_565 S
C363 C364 1.398 . S
C363 C369 1.491 . S
C364 H355 0.950 . S
C364 C363 1.398 . S
C364 C365 1.391 1_565 S
C365 H353 0.950 . S
C365 C361 1.393 . S
C365 C364 1.391 1_545 S
C366 H356 0.950 . S
C366 C367 1.386 . S
C366 C368 1.391 . S
C367 C366 1.386 . S
C367 C371 1.393 . S
C368 H357 0.950 . S
C368 C366 1.391 . S
C368 C369 1.400 . S
C369 C363 1.491 . S
C369 C368 1.400 . S
C369 C370 1.398 . S
C370 H358 0.950 . S
C370 C369 1.398 . S
C370 C371 1.391 . S
C371 H359 0.950 . S
C371 C367 1.393 . S
C371 C370 1.391 . S
H372 C380 0.950 . S
H373 C385 0.950 . S
H374 C382 0.950 . S
H375 C384 0.950 . S
H376 C386 0.950 . S
H377 C388 0.950 . S
H378 C390 0.950 . S
H379 C391 0.950 . S
C380 H372 0.950 . S
C380 C381 1.386 . S
C380 C382 1.391 . S
C381 C380 1.386 . S
C381 C385 1.393 . S
C382 H374 0.950 . S
C382 C380 1.391 . S
C382 C383 1.400 . S
C383 C382 1.400 . S
C383 C384 1.398 . S
C383 C389 1.491 . S
C384 H375 0.950 . S
C384 C383 1.398 . S
C384 C385 1.391 . S
C385 H373 0.950 . S
C385 C381 1.393 . S
C385 C384 1.391 . S
C386 H376 0.950 . S
C386 C387 1.386 . S
C386 C388 1.391 . S
C387 C386 1.386 . S
C387 C391 1.393 . S
C388 H377 0.950 . S
C388 C386 1.391 . S
C388 C389 1.400 . S
C389 C383 1.491 . S
C389 C388 1.400 . S
C389 C390 1.398 . S
C390 H378 0.950 . S
C390 C389 1.398 . S
C390 C391 1.391 . S
C391 H379 0.950 . S
C391 C387 1.393 . S
C391 C390 1.391 . S
H392 C400 0.950 . S
H393 C405 0.950 . S
H394 C402 0.950 . S
H395 C404 0.950 . S
H396 C406 0.950 . S
H397 C408 0.950 . S
H398 C410 0.950 . S
H399 C411 0.950 . S
C400 H392 0.950 . S
C400 C401 1.386 . S
C400 C402 1.391 . S
C401 C400 1.386 . S
C401 C405 1.393 . S
C402 H394 0.950 . S
C402 C400 1.391 . S
C402 C403 1.400 1_565 S
C403 C402 1.400 1_545 S
C403 C404 1.398 . S
C403 C409 1.491 . S
C404 H395 0.950 . S
C404 C403 1.398 . S
C404 C405 1.391 1_545 S
C405 H393 0.950 . S
C405 C401 1.393 . S
C405 C404 1.391 1_565 S
C406 H396 0.950 . S
C406 C407 1.386 . S
C406 C408 1.391 . S
C407 C406 1.386 . S
C407 C411 1.393 . S
C408 H397 0.950 . S
C408 C406 1.391 . S
C408 C409 1.400 . S
C409 C403 1.491 . S
C409 C408 1.400 . S
C409 C410 1.398 . S
C410 H398 0.950 . S
C410 C409 1.398 . S
C410 C411 1.391 . S
C411 H399 0.950 . S
C411 C407 1.393 . S
C411 C410 1.391 . S
H412 C420 0.950 . S
H413 C425 0.950 . S
H414 C422 0.950 . S
H415 C424 0.950 . S
H416 C426 0.950 . S
H417 C428 0.950 . S
H418 C430 0.950 . S
H419 C431 0.950 . S
C420 H412 0.950 . S
C420 C421 1.386 . S
C420 C422 1.391 . S
C421 C420 1.386 . S
C421 C425 1.393 . S
C422 H414 0.950 . S
C422 C420 1.391 . S
C422 C423 1.400 . S
C423 C422 1.400 . S
C423 C424 1.398 . S
C423 C429 1.491 . S
C424 H415 0.950 . S
C424 C423 1.398 . S
C424 C425 1.391 . S
C425 H413 0.950 . S
C425 C421 1.393 . S
C425 C424 1.391 . S
C426 H416 0.950 . S
C426 C427 1.386 . S
C426 C428 1.391 . S
C427 C426 1.386 . S
C427 C431 1.393 . S
C428 H417 0.950 . S
C428 C426 1.391 . S
C428 C429 1.400 . S
C429 C423 1.491 . S
C429 C428 1.400 . S
C429 C430 1.398 . S
C430 H418 0.950 . S
C430 C429 1.398 . S
C430 C431 1.391 . S
C431 H419 0.950 . S
C431 C427 1.393 . S
C431 C430 1.391 . S
H432 C440 0.950 . S
H433 C445 0.950 . S
H434 C442 0.950 . S
H435 C444 0.950 . S
H436 C446 0.950 . S
H437 C448 0.950 . S
H438 C450 0.950 . S
H439 C451 0.950 . S
C440 H432 0.950 . S
C440 C441 1.386 . S
C440 C442 1.391 . S
C441 C440 1.386 . S
C441 C445 1.393 . S
C442 H434 0.950 . S
C442 C440 1.391 . S
C442 C443 1.400 . S
C443 C442 1.400 . S
C443 C444 1.398 . S
C443 C449 1.491 . S
C444 H435 0.950 . S
C444 C443 1.398 . S
C444 C445 1.391 . S
C445 H433 0.950 . S
C445 C441 1.393 . S
C445 C444 1.391 . S
C446 H436 0.950 . S
C446 C447 1.386 . S
C446 C448 1.391 . S
C447 C446 1.386 . S
C447 C451 1.393 . S
C448 H437 0.950 . S
C448 C446 1.391 . S
C448 C449 1.400 . S
C449 C443 1.491 . S
C449 C448 1.400 . S
C449 C450 1.398 . S
C450 H438 0.950 . S
C450 C449 1.398 . S
C450 C451 1.391 . S
C451 H439 0.950 . S
C451 C447 1.393 . S
C451 C450 1.391 . S
H452 C460 0.950 . S
H453 C465 0.950 . S
H454 C462 0.950 . S
H455 C464 0.950 . S
H456 C466 0.950 . S
H457 C468 0.950 . S
H458 C470 0.950 . S
H459 C471 0.950 . S
C460 H452 0.950 . S
C460 C461 1.386 . S
C460 C462 1.391 1_455 S
C461 C460 1.386 . S
C461 C465 1.393 1_455 S
C462 H454 0.950 . S
C462 C460 1.391 1_655 S
C462 C463 1.400 . S
C463 C462 1.400 . S
C463 C464 1.398 . S
C463 C469 1.491 . S
C464 H455 0.950 . S
C464 C463 1.398 . S
C464 C465 1.391 . S
C465 H453 0.950 . S
C465 C461 1.393 1_655 S
C465 C464 1.391 . S
C466 H456 0.950 . S
C466 C467 1.386 . S
C466 C468 1.391 . S
C467 C466 1.386 . S
C467 C471 1.393 . S
C468 H457 0.950 . S
C468 C466 1.391 . S
C468 C469 1.400 . S
C469 C463 1.491 . S
C469 C468 1.400 . S
C469 C470 1.398 . S
C470 H458 0.950 . S
C470 C469 1.398 . S
C470 C471 1.391 . S
C471 H459 0.950 . S
C471 C467 1.393 . S
C471 C470 1.391 . S
H472 C480 0.950 . S
H473 C485 0.950 . S
H474 C482 0.950 . S
H475 C484 0.950 . S
H476 C486 0.950 . S
H477 C488 0.950 . S
H478 C490 0.950 . S
H479 C491 0.950 . S
C480 H472 0.950 . S
C480 C481 1.386 . S
C480 C482 1.391 . S
C481 C480 1.386 . S
C481 C485 1.393 . S
C482 H474 0.950 . S
C482 C480 1.391 . S
C482 C483 1.400 . S
C483 C482 1.400 . S
C483 C484 1.398 . S
C483 C489 1.491 . S
C484 H475 0.950 . S
C484 C483 1.398 . S
C484 C485 1.391 . S
C485 H473 0.950 . S
C485 C481 1.393 . S
C485 C484 1.391 . S
C486 H476 0.950 . S
C486 C487 1.386 . S
C486 C488 1.391 . S
C487 C486 1.386 . S
C487 C491 1.393 . S
C488 H477 0.950 . S
C488 C486 1.391 . S
C488 C489 1.400 . S
C489 C483 1.491 . S
C489 C488 1.400 . S
C489 C490 1.398 . S
C490 H478 0.950 . S
C490 C489 1.398 . S
C490 C491 1.391 . S
C491 H479 0.950 . S
C491 C487 1.393 . S
C491 C490 1.391 . S
H492 C500 0.950 . S
H493 C505 0.950 . S
H494 C502 0.950 . S
H495 C504 0.947 1_455 S
H496 C506 0.950 . S
H497 C508 0.950 . S
H498 C510 0.950 . S
H499 C511 0.950 . S
C500 H492 0.950 . S
C500 C501 1.386 . S
C500 C502 1.391 . S
C501 C500 1.386 . S
C501 C505 1.393 . S
C502 H494 0.950 . S
C502 C500 1.391 . S
C502 C503 1.400 . S
C503 C502 1.400 . S
C503 C504 1.398 . S
C503 C509 1.491 1_655 S
C504 H495 0.947 1_655 S
C504 C503 1.398 . S
C504 C505 1.391 . S
C505 H493 0.950 . S
C505 C501 1.393 . S
C505 C504 1.391 . S
C506 H496 0.950 . S
C506 C507 1.386 . S
C506 C508 1.391 . S
C507 C506 1.386 . S
C507 C511 1.393 . S
C508 H497 0.950 . S
C508 C506 1.391 . S
C508 C509 1.400 . S
C509 C503 1.491 1_455 S
C509 C508 1.400 . S
C509 C510 1.398 . S
C510 H498 0.950 . S
C510 C509 1.398 . S
C510 C511 1.391 . S
C511 H499 0.950 . S
C511 C507 1.393 . S
C511 C510 1.391 . S
H512 C520 0.950 . S
H513 C525 0.950 . S
H514 C522 0.950 . S
H515 C524 0.950 . S
H516 C526 0.950 . S
H517 C528 0.950 . S
H518 C530 0.950 . S
H519 C531 0.950 . S
C520 H512 0.950 . S
C520 C521 1.386 . S
C520 C522 1.391 . S
C521 C520 1.386 . S
C521 C525 1.393 . S
C522 H514 0.950 . S
C522 C520 1.391 . S
C522 C523 1.400 . S
C523 C522 1.400 . S
C523 C524 1.398 . S
C523 C529 1.491 . S
C524 H515 0.950 . S
C524 C523 1.398 . S
C524 C525 1.391 . S
C525 H513 0.950 . S
C525 C521 1.393 . S
C525 C524 1.391 . S
C526 H516 0.950 . S
C526 C527 1.386 . S
C526 C528 1.391 . S
C527 C526 1.386 . S
C527 C531 1.393 . S
C528 H517 0.950 . S
C528 C526 1.391 . S
C528 C529 1.400 . S
C529 C523 1.491 . S
C529 C528 1.400 . S
C529 C530 1.398 . S
C530 H518 0.950 . S
C530 C529 1.398 . S
C530 C531 1.391 . S
C531 H519 0.950 . S
C531 C527 1.393 . S
C531 C530 1.391 . S
H532 C540 0.950 . S
H533 C545 0.950 . S
H534 C542 0.950 . S
H535 C544 0.950 . S
H536 C546 0.950 . S
H537 C548 0.950 . S
H538 C550 0.950 . S
H539 C551 0.950 . S
C540 H532 0.950 . S
C540 C541 1.386 . S
C540 C542 1.391 . S
C541 C540 1.386 . S
C541 C545 1.393 . S
C542 H534 0.950 . S
C542 C540 1.391 . S
C542 C543 1.400 . S
C543 C542 1.400 . S
C543 C544 1.398 . S
C543 C549 1.491 . S
C544 H535 0.950 . S
C544 C543 1.398 . S
C544 C545 1.391 . S
C545 H533 0.950 . S
C545 C541 1.393 . S
C545 C544 1.391 . S
C546 H536 0.950 . S
C546 C547 1.386 . S
C546 C548 1.391 . S
C547 C546 1.386 . S
C547 C551 1.393 . S
C548 H537 0.950 . S
C548 C546 1.391 . S
C548 C549 1.400 . S
C549 C543 1.491 . S
C549 C548 1.400 . S
C549 C550 1.398 . S
C550 H538 0.950 . S
C550 C549 1.398 . S
C550 C551 1.391 . S
C551 H539 0.950 . S
C551 C547 1.393 . S
C551 C550 1.391 . S
H552 C560 0.950 . S
H553 C565 0.950 . S
H554 C562 0.950 . S
H555 C564 0.950 . S
H556 C566 0.950 . S
H557 C568 0.950 . S
H558 C570 0.950 . S
H559 C571 0.950 . S
C560 H552 0.950 . S
C560 C561 1.386 . S
C560 C562 1.391 . S
C561 C560 1.386 . S
C561 C565 1.393 . S
C562 H554 0.950 . S
C562 C560 1.391 . S
C562 C563 1.400 . S
C563 C562 1.400 . S
C563 C564 1.398 . S
C563 C569 1.491 . S
C564 H555 0.950 . S
C564 C563 1.398 . S
C564 C565 1.391 . S
C565 H553 0.950 . S
C565 C561 1.393 . S
C565 C564 1.391 . S
C566 H556 0.950 . S
C566 C567 1.386 . S
C566 C568 1.391 . S
C567 C566 1.386 . S
C567 C571 1.393 . S
C568 H557 0.950 . S
C568 C566 1.391 . S
C568 C569 1.400 . S
C569 C563 1.491 . S
C569 C568 1.400 . S
C569 C570 1.398 . S
C570 H558 0.950 . S
C570 C569 1.398 . S
C570 C571 1.391 . S
C571 H559 0.950 . S
C571 C567 1.393 . S
C571 C570 1.391 . S
H572 C580 0.950 . S
H573 C585 0.950 . S
H574 C582 0.950 . S
H575 C584 0.950 . S
H576 C586 0.950 . S
H577 C588 0.950 . S
H578 C590 0.950 . S
H579 C591 0.950 . S
C580 H572 0.950 . S
C580 C581 1.386 . S
C580 C582 1.391 . S
C581 C580 1.386 . S
C581 C585 1.393 . S
C582 H574 0.950 . S
C582 C580 1.391 . S
C582 C583 1.400 . S
C583 C582 1.400 . S
C583 C584 1.398 . S
C583 C589 1.491 . S
C584 H575 0.950 . S
C584 C583 1.398 . S
C584 C585 1.391 . S
C585 H573 0.950 . S
C585 C581 1.393 . S
C585 C584 1.391 . S
C586 H576 0.950 . S
C586 C587 1.386 . S
C586 C588 1.391 . S
C587 C586 1.386 . S
C587 C591 1.393 . S
C588 H577 0.950 . S
C588 C586 1.391 . S
C588 C589 1.400 . S
C589 C583 1.491 . S
C589 C588 1.400 . S
C589 C590 1.398 . S
C590 H578 0.950 . S
C590 C589 1.398 . S
C590 C591 1.391 . S
C591 H579 0.950 . S
C591 C587 1.393 . S
C591 C590 1.391 . S
H592 C600 0.950 . S
H593 C605 0.950 . S
H594 C602 0.950 . S
H595 C604 0.950 . S
H596 C606 0.950 . S
H597 C608 0.950 . S
H598 C610 0.950 . S
H599 C611 0.950 . S
C600 H592 0.950 . S
C600 C601 1.386 . S
C600 C602 1.391 . S
C601 C600 1.386 . S
C601 C605 1.393 . S
C602 H594 0.950 . S
C602 C600 1.391 . S
C602 C603 1.400 . S
C603 C602 1.400 . S
C603 C604 1.398 . S
C603 C609 1.491 . S
C604 H595 0.950 . S
C604 C603 1.398 . S
C604 C605 1.391 . S
C605 H593 0.950 . S
C605 C601 1.393 . S
C605 C604 1.391 . S
C606 H596 0.950 . S
C606 C607 1.386 . S
C606 C608 1.391 . S
C607 C606 1.386 . S
C607 C611 1.393 . S
C608 H597 0.950 . S
C608 C606 1.391 . S
C608 C609 1.400 . S
C609 C603 1.491 . S
C609 C608 1.400 . S
C609 C610 1.398 . S
C610 H598 0.950 . S
C610 C609 1.398 . S
C610 C611 1.391 . S
C611 H599 0.950 . S
C611 C607 1.393 . S
C611 C610 1.391 . S
H612 C620 0.950 . S
H613 C625 0.950 . S
H614 C622 0.950 . S
H615 C624 0.950 . S
H616 C626 0.950 . S
H617 C628 0.950 . S
H618 C630 0.950 . S
H619 C631 0.950 . S
C620 H612 0.950 . S
C620 C621 1.386 . S
C620 C622 1.391 . S
C621 C620 1.386 . S
C621 C625 1.393 . S
C622 H614 0.950 . S
C622 C620 1.391 . S
C622 C623 1.400 . S
C623 C622 1.400 . S
C623 C624 1.398 . S
C623 C629 1.491 . S
C624 H615 0.950 . S
C624 C623 1.398 . S
C624 C625 1.391 . S
C625 H613 0.950 . S
C625 C621 1.393 . S
C625 C624 1.391 . S
C626 H616 0.950 . S
C626 C627 1.386 . S
C626 C628 1.391 . S
C627 C626 1.386 . S
C627 C631 1.393 . S
C628 H617 0.950 . S
C628 C626 1.391 . S
C628 C629 1.400 . S
C629 C623 1.491 . S
C629 C628 1.400 . S
C629 C630 1.398 . S
C630 H618 0.950 . S
C630 C629 1.398 . S
C630 C631 1.391 . S
C631 H619 0.950 . S
C631 C627 1.393 . S
C631 C630 1.391 . S
H632 C640 0.950 . S
H633 C645 0.950 . S
H634 C642 0.950 . S
H635 C644 0.950 . S
H636 C646 0.950 . S
H637 C648 0.950 . S
H638 C650 0.950 . S
H639 C651 0.950 . S
C640 H632 0.950 . S
C640 C641 1.386 . S
C640 C642 1.391 . S
C641 C640 1.386 . S
C641 C645 1.393 . S
C642 H634 0.950 . S
C642 C640 1.391 . S
C642 C643 1.400 . S
C643 C642 1.400 . S
C643 C644 1.398 . S
C643 C649 1.491 . S
C644 H635 0.950 . S
C644 C643 1.398 . S
C644 C645 1.391 . S
C645 H633 0.950 . S
C645 C641 1.393 . S
C645 C644 1.391 . S
C646 H636 0.950 . S
C646 C647 1.386 . S
C646 C648 1.391 . S
C647 C646 1.386 . S
C647 C651 1.393 . S
C648 H637 0.950 . S
C648 C646 1.391 . S
C648 C649 1.400 . S
C649 C643 1.491 . S
C649 C648 1.400 . S
C649 C650 1.398 . S
C650 H638 0.950 . S
C650 C649 1.398 . S
C650 C651 1.391 . S
C651 H639 0.950 . S
C651 C647 1.393 . S
C651 C650 1.391 . S
H652 C660 0.950 . S
H653 C665 0.950 . S
H654 C662 0.950 . S
H655 C664 0.950 . S
H656 C666 0.950 . S
H657 C668 0.950 . S
H658 C670 0.950 . S
H659 C671 0.950 . S
C660 H652 0.950 . S
C660 C661 1.386 . S
C660 C662 1.391 . S
C661 C660 1.386 . S
C661 C665 1.393 . S
C662 H654 0.950 . S
C662 C660 1.391 . S
C662 C663 1.400 . S
C663 C662 1.400 . S
C663 C664 1.398 . S
C663 C669 1.491 . S
C664 H655 0.950 . S
C664 C663 1.398 . S
C664 C665 1.391 . S
C665 H653 0.950 . S
C665 C661 1.393 . S
C665 C664 1.391 . S
C666 H656 0.950 . S
C666 C667 1.386 . S
C666 C668 1.391 . S
C667 C666 1.386 . S
C667 C671 1.393 . S
C668 H657 0.950 . S
C668 C666 1.391 . S
C668 C669 1.400 . S
C669 C663 1.491 . S
C669 C668 1.400 . S
C669 C670 1.398 . S
C670 H658 0.950 . S
C670 C669 1.398 . S
C670 C671 1.391 . S
C671 H659 0.950 . S
C671 C667 1.393 . S
C671 C670 1.391 . S
C201 C8 1.334 . S
C207 N93 1.365 . S
C221 C31 1.264 . S
C227 N106 1.298 . S
C241 C53 1.299 . S
C247 N115 1.326 . S
C267 N132 1.368 . S
C261 C74 1.340 . S
C287 N145 1.361 . S
C281 C26 1.340 . S
C301 C48 1.336 . S
C307 N154 1.367 . S
C321 C71 1.313 . S
C327 N167 1.325 . S
C341 C5 1.283 . S
C347 N184 1.293 . S
C361 C50 1.337 . S
C367 N180 1.363 . S
C387 N141 1.288 . S
C381 C70 1.277 . S
C407 N158 1.332 . S
C401 C4 1.313 . S
C421 C28 1.349 . S
C427 N171 1.369 . S
C447 N102 1.363 . S
C441 C73 1.336 . S
C461 C7 1.335 . S
C467 N119 1.370 . S
C487 N128 1.311 . S
C481 C30 1.296 . S
C507 N89 1.299 . S
C501 C52 1.264 . S
C527 N168 1.373 . S
C521 C9 1.366 . S
C547 N181 1.365 . S
C541 C29 1.356 . S
C561 C51 1.347 . S
C567 N142 1.363 . S
C587 N155 1.367 . S
C581 C75 1.375 . S
C607 N116 1.371 . S
C601 C27 1.373 . S
C621 C49 1.367 . S
C627 N129 1.362 . S
C647 N90 1.372 . S
C641 C72 1.360 . S
C667 N103 1.368 . S
C661 C6 1.350 . S
