# Generated by pormake.
# Topology the, (3,8)-cn, num edge types: 1
# Building blocks:
#     Node 0, Type 0, BuildingBlock: MIDCAF_clean_linker_0, # of connection points: 3
#     Node 1, Type 0, BuildingBlock: MIDCAF_clean_linker_0, # of connection points: 3
#     Node 2, Type 0, BuildingBlock: MIDCAF_clean_linker_0, # of connection points: 3
#     Node 3, Type 0, BuildingBlock: MIDCAF_clean_linker_0, # of connection points: 3
#     Node 4, Type 0, BuildingBlock: MIDCAF_clean_linker_0, # of connection points: 3
#     Node 5, Type 0, BuildingBlock: MIDCAF_clean_linker_0, # of connection points: 3
#     Node 6, Type 0, BuildingBlock: MIDCAF_clean_linker_0, # of connection points: 3
#     Node 7, Type 0, BuildingBlock: MIDCAF_clean_linker_0, # of connection points: 3
#     Node 8, Type 1, BuildingBlock: GIZVER_clean_sbu_0, # of connection points: 8
#     Node 9, Type 1, BuildingBlock: GIZVER_clean_sbu_0, # of connection points: 8
#     Node 10, Type 1, BuildingBlock: GIZVER_clean_sbu_0, # of connection points: 8
#     Edge 11, Type (0, 1), BuildingBlock: MIFKUJ_clean_linker_0, # of connection points: 2
#     Edge 12, Type (0, 1), BuildingBlock: MIFKUJ_clean_linker_0, # of connection points: 2
#     Edge 13, Type (0, 1), BuildingBlock: MIFKUJ_clean_linker_0, # of connection points: 2
#     Edge 14, Type (0, 1), BuildingBlock: MIFKUJ_clean_linker_0, # of connection points: 2
#     Edge 15, Type (0, 1), BuildingBlock: MIFKUJ_clean_linker_0, # of connection points: 2
#     Edge 16, Type (0, 1), BuildingBlock: MIFKUJ_clean_linker_0, # of connection points: 2
#     Edge 17, Type (0, 1), BuildingBlock: MIFKUJ_clean_linker_0, # of connection points: 2
#     Edge 18, Type (0, 1), BuildingBlock: MIFKUJ_clean_linker_0, # of connection points: 2
#     Edge 19, Type (0, 1), BuildingBlock: MIFKUJ_clean_linker_0, # of connection points: 2
#     Edge 20, Type (0, 1), BuildingBlock: MIFKUJ_clean_linker_0, # of connection points: 2
#     Edge 21, Type (0, 1), BuildingBlock: MIFKUJ_clean_linker_0, # of connection points: 2
#     Edge 22, Type (0, 1), BuildingBlock: MIFKUJ_clean_linker_0, # of connection points: 2
#     Edge 23, Type (0, 1), BuildingBlock: MIFKUJ_clean_linker_0, # of connection points: 2
#     Edge 24, Type (0, 1), BuildingBlock: MIFKUJ_clean_linker_0, # of connection points: 2
#     Edge 25, Type (0, 1), BuildingBlock: MIFKUJ_clean_linker_0, # of connection points: 2
#     Edge 26, Type (0, 1), BuildingBlock: MIFKUJ_clean_linker_0, # of connection points: 2
#     Edge 27, Type (0, 1), BuildingBlock: MIFKUJ_clean_linker_0, # of connection points: 2
#     Edge 28, Type (0, 1), BuildingBlock: MIFKUJ_clean_linker_0, # of connection points: 2
#     Edge 29, Type (0, 1), BuildingBlock: MIFKUJ_clean_linker_0, # of connection points: 2
#     Edge 30, Type (0, 1), BuildingBlock: MIFKUJ_clean_linker_0, # of connection points: 2
#     Edge 31, Type (0, 1), BuildingBlock: MIFKUJ_clean_linker_0, # of connection points: 2
#     Edge 32, Type (0, 1), BuildingBlock: MIFKUJ_clean_linker_0, # of connection points: 2
#     Edge 33, Type (0, 1), BuildingBlock: MIFKUJ_clean_linker_0, # of connection points: 2
#     Edge 34, Type (0, 1), BuildingBlock: MIFKUJ_clean_linker_0, # of connection points: 2
# Relax obj value: 0.044
# Max RMSD: 0.139
# Mean RMSD: 0.063
data_MOF--net-the--node1-GIZVER_clean_sbu_0--node2-MIDCAF_clean_linker_0--edge1-MIFKUJ_clean_linker_0
_symmetry_space_group_name_H-M    P1
_symmetry_Int_Tables_number       1
_symmetry_cell_setting            triclinic
loop_
_symmetry_equiv_pos_as_xyz
'x, y, z'
_cell_length_a     61.596301
_cell_length_b     58.142804
_cell_length_c     54.092786
_cell_angle_alpha  86.937229
_cell_angle_beta   93.199926
_cell_angle_gamma 99.605655
loop_
_atom_site_label
_atom_site_type_symbol
_atom_site_fract_x
_atom_site_fract_y
_atom_site_fract_z
_atom_type_partial_charge
C0 C 0.24702 0.37128 0.40926 0.0
C1 C 0.23911 0.35851 0.43063 0.0
C2 C 0.24842 0.33891 0.43906 0.0
C3 C 0.26515 0.33206 0.42624 0.0
H4 H 0.303 0.28199 0.42722 0.0
H5 H 0.31869 0.24815 0.44321 0.0
H6 H 0.36563 0.25958 0.38562 0.0
H7 H 0.35014 0.29367 0.36961 0.0
H8 H 0.34754 0.33485 0.32959 0.0
H9 H 0.35892 0.35414 0.29043 0.0
H10 H 0.30415 0.39206 0.28867 0.0
H11 H 0.29304 0.37321 0.32838 0.0
H12 H 0.26923 0.37449 0.37983 0.0
H13 H 0.23994 0.38631 0.40215 0.0
H14 H 0.24279 0.32886 0.4556 0.0
H15 H 0.27185 0.31676 0.43323 0.0
N16 N 0.29966 0.31847 0.39965 0.0
N17 N 0.32183 0.32216 0.36543 0.0
N18 N 0.29667 0.34786 0.3689 0.0
C19 C 0.31546 0.31099 0.38718 0.0
C20 C 0.31248 0.3406 0.35613 0.0
C21 C 0.29022 0.3369 0.39073 0.0
C22 C 0.32528 0.2906 0.39707 0.0
C23 C 0.31671 0.27741 0.41795 0.0
C24 C 0.32561 0.25791 0.42707 0.0
C25 C 0.34334 0.25123 0.41565 0.0
C26 C 0.35208 0.26449 0.39495 0.0
C27 C 0.34311 0.28394 0.3857 0.0
C28 C 0.31934 0.35243 0.33219 0.0
C29 C 0.33784 0.34726 0.3209 0.0
C30 C 0.34431 0.35822 0.29829 0.0
C31 C 0.33234 0.37451 0.28625 0.0
C32 C 0.31385 0.37975 0.29754 0.0
C33 C 0.30744 0.36887 0.32028 0.0
C34 C 0.27288 0.34461 0.40462 0.0
C35 C 0.2637 0.3644 0.39636 0.0
C36 C 0.67215 0.24919 0.36278 0.0
C37 C 0.65367 0.2365 0.35032 0.0
C38 C 0.64699 0.24489 0.32674 0.0
C39 C 0.65803 0.26572 0.31619 0.0
H40 H 0.65139 0.31184 0.25963 0.0
H41 H 0.63185 0.32896 0.22516 0.0
H42 H 0.67619 0.39439 0.23235 0.0
H43 H 0.69629 0.37702 0.26679 0.0
H44 H 0.73843 0.37755 0.30597 0.0
H45 H 0.77313 0.3972 0.32457 0.0
H46 H 0.77602 0.3375 0.37494 0.0
H47 H 0.7416 0.3177 0.35627 0.0
H48 H 0.69721 0.27958 0.36245 0.0
H49 H 0.67765 0.24337 0.38107 0.0
H50 H 0.63315 0.23534 0.31634 0.0
H51 H 0.65218 0.27164 0.29809 0.0
N52 N 0.67746 0.31144 0.29788 0.0
N53 N 0.70595 0.34367 0.29826 0.0
N54 N 0.70631 0.31279 0.32809 0.0
C55 C 0.68669 0.33249 0.28789 0.0
C56 C 0.71594 0.33386 0.31833 0.0
C57 C 0.68706 0.30146 0.31794 0.0
C58 C 0.6754 0.34306 0.2662 0.0
C59 C 0.65709 0.32989 0.25396 0.0
C60 C 0.64574 0.33977 0.2342 0.0
C61 C 0.65223 0.36316 0.22613 0.0
C62 C 0.67081 0.37628 0.23799 0.0
C63 C 0.68229 0.36633 0.25781 0.0
C64 C 0.73711 0.34598 0.32956 0.0
C65 C 0.74646 0.36855 0.32097 0.0
C66 C 0.76632 0.37989 0.33172 0.0
C67 C 0.7774 0.36891 0.35121 0.0
C68 C 0.7681 0.34634 0.35973 0.0
C69 C 0.74822 0.33504 0.34909 0.0
C70 C 0.67619 0.27872 0.32884 0.0
C71 C 0.68331 0.27004 0.35214 0.0
C72 C 0.67579 0.66425 0.23492 0.0
C73 C 0.65386 0.66666 0.22833 0.0
C74 C 0.64381 0.6819 0.24153 0.0
C75 C 0.65536 0.69428 0.26103 0.0
H76 H 0.66665 0.76199 0.29611 0.0
H77 H 0.65308 0.79443 0.31328 0.0
H78 H 0.6839 0.77871 0.38462 0.0
H79 H 0.69849 0.74721 0.36694 0.0
H80 H 0.74472 0.72361 0.36023 0.0
H81 H 0.77776 0.7098 0.37812 0.0
H82 H 0.76966 0.65624 0.32447 0.0
H83 H 0.73711 0.67021 0.3063 0.0
H84 H 0.704 0.67379 0.25939 0.0
H85 H 0.68392 0.6525 0.22525 0.0
H86 H 0.62699 0.68426 0.23676 0.0
H87 H 0.64703 0.7057 0.27091 0.0
N88 N 0.68153 0.72166 0.29938 0.0
N89 N 0.71033 0.72455 0.33002 0.0
N90 N 0.70739 0.69622 0.3002 0.0
C91 C 0.69208 0.73227 0.31955 0.0
C92 C 0.71815 0.70655 0.32039 0.0
C93 C 0.68906 0.70356 0.28961 0.0
C94 C 0.68368 0.75199 0.33013 0.0
C95 C 0.67057 0.76553 0.31545 0.0
C96 C 0.66264 0.7841 0.32541 0.0
C97 C 0.66724 0.7894 0.35048 0.0
C98 C 0.68032 0.77569 0.36513 0.0
C99 C 0.6886 0.75741 0.35504 0.0
C100 C 0.73818 0.69813 0.3317 0.0
C101 C 0.74999 0.7089 0.3522 0.0
C102 C 0.7689 0.70091 0.36257 0.0
C103 C 0.77651 0.68198 0.35267 0.0
C104 C 0.76459 0.67114 0.33231 0.0
C105 C 0.74575 0.67911 0.32196 0.0
C106 C 0.67714 0.69145 0.26803 0.0
C107 C 0.68724 0.67637 0.25462 0.0
C108 C 0.23185 0.67658 0.35411 0.0
C109 C 0.22257 0.65385 0.34734 0.0
C110 C 0.23461 0.64194 0.33242 0.0
C111 C 0.25531 0.65241 0.32451 0.0
H112 H 0.30395 0.64079 0.28218 0.0
H113 H 0.32025 0.62122 0.25127 0.0
H114 H 0.36977 0.68247 0.24038 0.0
H115 H 0.35382 0.70187 0.27216 0.0
H116 H 0.36216 0.73415 0.32398 0.0
H117 H 0.38197 0.76837 0.34451 0.0
H118 H 0.32154 0.77941 0.37522 0.0
H119 H 0.30164 0.74525 0.35473 0.0
H120 H 0.25928 0.70451 0.35193 0.0
H121 H 0.22296 0.68644 0.36528 0.0
H122 H 0.22827 0.62427 0.3272 0.0
H123 H 0.26408 0.64253 0.31322 0.0
N124 N 0.29681 0.67546 0.30616 0.0
N125 N 0.32791 0.70476 0.30873 0.0
N126 N 0.29774 0.70583 0.33317 0.0
C127 C 0.31721 0.68478 0.29864 0.0
C128 C 0.31828 0.71539 0.32606 0.0
C129 C 0.2869 0.68583 0.32332 0.0
C130 C 0.32751 0.67299 0.27972 0.0
C131 C 0.31831 0.65018 0.27324 0.0
C132 C 0.32761 0.63896 0.25529 0.0
C133 C 0.34627 0.65026 0.24304 0.0
C134 C 0.35555 0.67307 0.24957 0.0
C135 C 0.34634 0.68426 0.26775 0.0
C136 C 0.33026 0.73681 0.3377 0.0
C137 C 0.35302 0.7439 0.33498 0.0
C138 C 0.36444 0.76345 0.34688 0.0
C139 C 0.35335 0.77657 0.36156 0.0
C140 C 0.33053 0.76979 0.36389 0.0
C141 C 0.31916 0.75009 0.35223 0.0
C142 C 0.26468 0.67504 0.33146 0.0
C143 C 0.25267 0.68701 0.34634 0.0
C144 C 0.25238 0.63474 0.67742 0.0
C145 C 0.244 0.64471 0.6554 0.0
C146 C 0.25597 0.66542 0.6452 0.0
C147 C 0.27589 0.6758 0.65656 0.0
H148 H 0.32685 0.73082 0.64684 0.0
H149 H 0.34683 0.76731 0.62942 0.0
H150 H 0.3919 0.77224 0.69378 0.0
H151 H 0.37245 0.73558 0.71079 0.0
H152 H 0.37707 0.68732 0.73982 0.0
H153 H 0.39455 0.66924 0.77521 0.0
H154 H 0.33379 0.62188 0.78756 0.0
H155 H 0.31637 0.63959 0.75133 0.0
H156 H 0.27842 0.63681 0.7056 0.0
H157 H 0.24366 0.6187 0.68567 0.0
H158 H 0.24985 0.67379 0.62848 0.0
H159 H 0.28457 0.69172 0.64802 0.0
N160 N 0.31667 0.69734 0.68046 0.0
N161 N 0.3452 0.69692 0.71086 0.0
N162 N 0.31505 0.66637 0.71042 0.0
C163 C 0.3363 0.70759 0.69075 0.0
C164 C 0.33479 0.67635 0.72083 0.0
C165 C 0.30588 0.67676 0.69016 0.0
C166 C 0.34805 0.7301 0.6802 0.0
C167 C 0.34102 0.73968 0.65729 0.0
C168 C 0.35243 0.76071 0.64733 0.0
C169 C 0.37109 0.77276 0.6601 0.0
C170 C 0.3779 0.76328 0.68314 0.0
C171 C 0.36662 0.74223 0.693 0.0
C172 C 0.34522 0.66501 0.74266 0.0
C173 C 0.36733 0.67309 0.75003 0.0
C174 C 0.37737 0.66277 0.77054 0.0
C175 C 0.36559 0.64419 0.78453 0.0
C176 C 0.34348 0.636 0.77713 0.0
C177 C 0.33344 0.64623 0.75639 0.0
C178 C 0.28446 0.66575 0.67844 0.0
C179 C 0.2724 0.64509 0.68877 0.0
C180 C 0.24135 0.33799 0.6671 0.0
C181 C 0.23871 0.33811 0.64116 0.0
C182 C 0.25334 0.32811 0.62771 0.0
C183 C 0.27041 0.31824 0.64001 0.0
H184 H 0.30347 0.25916 0.63999 0.0
H185 H 0.31935 0.22851 0.6221 0.0
H186 H 0.3718 0.23584 0.67893 0.0
H187 H 0.35615 0.26667 0.69672 0.0
H188 H 0.35398 0.29961 0.74133 0.0
H189 H 0.37163 0.31865 0.77795 0.0
H190 H 0.32643 0.36825 0.77087 0.0
H191 H 0.30839 0.3489 0.73463 0.0
H192 H 0.26065 0.32921 0.69936 0.0
H193 H 0.23033 0.34574 0.67782 0.0
H194 H 0.2516 0.32805 0.60767 0.0
H195 H 0.28156 0.31084 0.62914 0.0
N196 N 0.30133 0.29253 0.66906 0.0
N197 N 0.32795 0.29421 0.70198 0.0
N198 N 0.30155 0.3191 0.70028 0.0
C199 C 0.31899 0.28452 0.6806 0.0
C200 C 0.31937 0.31155 0.71195 0.0
C201 C 0.29247 0.30973 0.67885 0.0
C202 C 0.32851 0.26555 0.66983 0.0
C203 C 0.31839 0.25429 0.64873 0.0
C204 C 0.32742 0.23656 0.63853 0.0
C205 C 0.34687 0.2297 0.64904 0.0
C206 C 0.35694 0.24087 0.67017 0.0
C207 C 0.34787 0.25851 0.68046 0.0
C208 C 0.32974 0.32268 0.73485 0.0
C209 C 0.3477 0.31451 0.74758 0.0
C210 C 0.35794 0.32555 0.76856 0.0
C211 C 0.35058 0.34513 0.77736 0.0
C212 C 0.33242 0.35309 0.76485 0.0
C213 C 0.32213 0.34201 0.74391 0.0
C214 C 0.27352 0.31875 0.66594 0.0
C215 C 0.25875 0.32865 0.67936 0.0
C216 C 0.67997 0.25856 0.63404 0.0
C217 C 0.66194 0.2446 0.64527 0.0
C218 C 0.65531 0.25152 0.66786 0.0
C219 C 0.66636 0.27177 0.67885 0.0
H220 H 0.65697 0.32492 0.72631 0.0
H221 H 0.64105 0.34382 0.75856 0.0
H222 H 0.70328 0.38915 0.77122 0.0
H223 H 0.71929 0.37025 0.73931 0.0
H224 H 0.75936 0.36712 0.70685 0.0
H225 H 0.79479 0.38632 0.69249 0.0
H226 H 0.78154 0.351 0.6236 0.0
H227 H 0.74639 0.33101 0.63848 0.0
H228 H 0.70491 0.28889 0.63586 0.0
H229 H 0.68535 0.25416 0.61643 0.0
H230 H 0.64176 0.24111 0.67734 0.0
H231 H 0.66084 0.27639 0.69631 0.0
N232 N 0.68792 0.31607 0.69866 0.0
N233 N 0.71917 0.34518 0.70159 0.0
N234 N 0.71664 0.31711 0.67158 0.0
C235 C 0.6991 0.33534 0.70973 0.0
C236 C 0.72807 0.33625 0.68256 0.0
C237 C 0.69661 0.3068 0.6796 0.0
C238 C 0.68944 0.34604 0.73006 0.0
C239 C 0.66733 0.33881 0.73605 0.0
C240 C 0.65814 0.34975 0.75445 0.0
C241 C 0.67087 0.36804 0.76746 0.0
C242 C 0.69306 0.37496 0.76177 0.0
C243 C 0.7022 0.36417 0.7433 0.0
C244 C 0.74992 0.34755 0.67381 0.0
C245 C 0.76399 0.36338 0.68865 0.0
C246 C 0.78433 0.37454 0.68031 0.0
C247 C 0.7911 0.37045 0.65674 0.0
C248 C 0.7771 0.35441 0.64199 0.0
C249 C 0.75683 0.34301 0.65047 0.0
C250 C 0.6845 0.28555 0.6677 0.0
C251 C 0.69114 0.27866 0.64514 0.0
C252 C 0.6596 0.64445 0.72361 0.0
C253 C 0.66973 0.62586 0.73352 0.0
C254 C 0.69056 0.62351 0.72571 0.0
C255 C 0.70094 0.6393 0.70796 0.0
H256 H 0.75038 0.64763 0.65826 0.0
H257 H 0.7774 0.63486 0.63354 0.0
H258 H 0.76787 0.68812 0.57696 0.0
H259 H 0.74122 0.70147 0.6022 0.0
H260 H 0.71772 0.74316 0.61913 0.0
H261 H 0.70324 0.77899 0.60808 0.0
H262 H 0.65891 0.76447 0.66816 0.0
H263 H 0.67303 0.72842 0.67905 0.0
H264 H 0.66179 0.67452 0.69882 0.0
H265 H 0.64364 0.64678 0.72959 0.0
H266 H 0.69867 0.60928 0.73309 0.0
H267 H 0.71693 0.63694 0.70212 0.0
N268 N 0.71752 0.66831 0.66555 0.0
N269 N 0.71997 0.70372 0.64221 0.0
N270 N 0.69484 0.69528 0.67372 0.0
C271 C 0.72679 0.68284 0.64716 0.0
C272 C 0.7041 0.71014 0.65556 0.0
C273 C 0.7015 0.67437 0.67885 0.0
C274 C 0.7436 0.67555 0.6322 0.0
C275 C 0.754 0.65664 0.64055 0.0
C276 C 0.76939 0.64919 0.62625 0.0
C277 C 0.77461 0.66027 0.6031 0.0
C278 C 0.76434 0.67931 0.59479 0.0
C279 C 0.74904 0.68693 0.60924 0.0
C280 C 0.6964 0.73273 0.64983 0.0
C281 C 0.705 0.74763 0.63013 0.0
C282 C 0.69682 0.76829 0.62389 0.0
C283 C 0.67989 0.77449 0.63721 0.0
C284 C 0.67177 0.75998 0.65736 0.0
C285 C 0.67993 0.73933 0.66362 0.0
C286 C 0.69081 0.65794 0.69802 0.0
C287 C 0.67009 0.66042 0.70616 0.0
Co288 Co 0.05288 0.48902 0.51748 0.0
Co289 Co 0.02837 0.47782 0.47636 0.0
Co290 Co 0.00733 0.51425 0.50337 0.0
O291 O 0.02179 0.48594 0.50807 0.0
H292 H 0.01285 0.47303 0.51665 0.0
O293 O 0.99315 0.54275 0.49837 0.0
Co294 Co 0.96311 0.53992 0.4858 0.0
Co295 Co 0.98397 0.55147 0.52817 0.0
H296 H 1.00262 0.55569 0.49056 0.0
O297 O 0.03441 0.44812 0.47137 0.0
O298 O 0.05815 0.47938 0.48419 0.0
O299 O 0.02732 0.50039 0.44876 0.0
O300 O 0.02563 0.52818 0.47473 0.0
O301 O 0.98463 0.49653 0.48029 0.0
O302 O 0.93602 0.53977 0.47299 0.0
O303 O 0.96472 0.56932 0.47202 0.0
O304 O 0.95746 0.50862 0.49772 0.0
O305 O 0.9888 0.5004 0.53217 0.0
O306 O 0.98371 0.52912 0.55571 0.0
O307 O 0.95462 0.55014 0.51752 0.0
O308 O 0.97731 0.58123 0.53222 0.0
C309 C 0.074 0.46783 0.53352 0.0
C310 C 0.05062 0.53432 0.52151 0.0
C311 C 0.03056 0.52176 0.45384 0.0
C312 C 0.05432 0.45781 0.47771 0.0
C313 C 0.94411 0.56111 0.46612 0.0
C314 C 0.96419 0.49413 0.48449 0.0
C315 C 0.98216 0.50753 0.552 0.0
C316 C 0.95777 0.57153 0.52447 0.0
O317 O 0.08099 0.48945 0.52673 0.0
O318 O 0.05304 0.45931 0.53019 0.0
O319 O 0.03027 0.53171 0.52634 0.0
O320 O 0.05701 0.52075 0.5068 0.0
Co321 Co 0.53742 0.96402 0.49175 0.0
Co322 Co 0.54689 0.98163 0.53461 0.0
Co323 Co 0.50973 0.0069 0.50742 0.0
O324 O 0.53768 0.99412 0.50463 0.0
H325 H 0.54935 0.00571 0.49822 0.0
O326 O 0.48174 0.01971 0.51017 0.0
Co327 Co 0.48263 0.04971 0.52366 0.0
Co328 Co 0.47275 0.03301 0.48021 0.0
H329 H 0.46999 0.00813 0.51648 0.0
O330 O 0.57595 0.97855 0.54113 0.0
O331 O 0.54872 0.95217 0.52435 0.0
O332 O 0.52635 0.97657 0.56062 0.0
O333 O 0.4984 0.98463 0.53568 0.0
O334 O 0.52621 0.03011 0.53097 0.0
O335 O 0.48173 0.07634 0.53728 0.0
O336 O 0.45526 0.04459 0.53627 0.0
O337 O 0.51143 0.05908 0.51312 0.0
O338 O 0.52117 0.02913 0.47915 0.0
O339 O 0.49376 0.03942 0.45482 0.0
O340 O 0.47024 0.06182 0.49186 0.0
O341 O 0.44364 0.03598 0.4735 0.0
C342 C 0.55855 0.94832 0.47284 0.0
C343 C 0.493 0.96182 0.48745 0.0
C344 C 0.50584 0.9755 0.55577 0.0
C345 C 0.56862 0.9575 0.53423 0.0
C346 C 0.46225 0.06591 0.54315 0.0
C347 C 0.52665 0.05201 0.52677 0.0
C348 C 0.51415 0.0394 0.45956 0.0
C349 C 0.45015 0.05635 0.4826 0.0
O350 O 0.53916 0.93726 0.47821 0.0
O351 O 0.56519 0.96942 0.48045 0.0
O352 O 0.49328 0.98376 0.48384 0.0
O353 O 0.50817 0.95448 0.50098 0.0
Co354 Co 0.47509 0.50858 0.05884 0.0
Co355 Co 0.46656 0.46679 0.04215 0.0
Co356 Co 0.50195 0.49754 0.00852 0.0
O357 O 0.4742 0.49594 0.02662 0.0
H358 H 0.46208 0.49981 0.01597 0.0
O359 O 0.52967 0.49941 0.99048 0.0
Co360 Co 0.52974 0.4874 0.95812 0.0
Co361 Co 0.53762 0.52957 0.97615 0.0
H362 H 0.5417 0.49547 1.00121 0.0
O363 O 0.43787 0.45593 0.04994 0.0
O364 O 0.4645 0.47702 0.0736 0.0
O365 O 0.48821 0.44642 0.04503 0.0
O366 O 0.51488 0.47396 0.03132 0.0
O367 O 0.48605 0.4722 0.98721 0.0
O368 O 0.53243 0.47619 0.92884 0.0
O369 O 0.55856 0.4835 0.95943 0.0
O370 O 0.49958 0.48894 0.9525 0.0
O371 O 0.48914 0.52086 0.9853 0.0
O372 O 0.51576 0.54997 0.97487 0.0
O373 O 0.53736 0.51949 0.94422 0.0
O374 O 0.56591 0.54054 0.96463 0.0
C375 C 0.45437 0.5234 0.07935 0.0
C376 C 0.51873 0.51978 0.05372 0.0
C377 C 0.50848 0.45427 0.04251 0.0
C378 C 0.44461 0.46525 0.07088 0.0
C379 C 0.55257 0.476 0.93731 0.0
C380 C 0.48543 0.47416 0.96358 0.0
C381 C 0.4955 0.54118 0.97545 0.0
C382 C 0.55723 0.53113 0.94441 0.0
O383 O 0.47409 0.52106 0.08769 0.0
O384 O 0.44708 0.51531 0.05778 0.0
O385 O 0.51781 0.52276 0.03013 0.0
O386 O 0.50461 0.50436 0.06409 0.0
H387 H 0.23344 0.40223 0.44214 0.0
H388 H 0.20119 0.41343 0.45964 0.0
H389 H 0.17092 0.34102 0.46588 0.0
H390 H 0.20295 0.32973 0.44788 0.0
H391 H 0.14444 0.36798 0.44133 0.0
H392 H 0.18883 0.37086 0.51558 0.0
H393 H 0.22195 0.3818 0.54271 0.0
H394 H 0.21401 0.45382 0.53481 0.0
H395 H 0.18126 0.44349 0.50695 0.0
H396 H 0.05132 0.41043 0.48182 0.0
H397 H 0.08166 0.38792 0.48349 0.0
H398 H 0.12833 0.45196 0.47765 0.0
H399 H 0.09819 0.47449 0.47661 0.0
H400 H 0.14372 0.42126 0.50976 0.0
H401 H 0.10926 0.42028 0.4265 0.0
H402 H 0.07804 0.4119 0.39594 0.0
H403 H 0.06911 0.33931 0.41928 0.0
H404 H 0.10014 0.34734 0.45021 0.0
C405 C 0.21997 0.3887 0.44741 0.0
C406 C 0.22063 0.36514 0.44351 0.0
C407 C 0.20168 0.39509 0.45766 0.0
C408 C 0.18377 0.37802 0.46425 0.0
C409 C 0.18465 0.35442 0.46106 0.0
C410 C 0.20298 0.34801 0.45087 0.0
C411 C 0.16327 0.38512 0.47188 0.0
C412 C 0.14416 0.37918 0.45669 0.0
C413 C 0.16307 0.40006 0.49168 0.0
C414 C 0.18261 0.40635 0.50888 0.0
C415 C 0.19423 0.38907 0.51938 0.0
C416 C 0.213 0.39519 0.53487 0.0
C417 C 0.22015 0.41851 0.54038 0.0
C418 C 0.20849 0.43576 0.53048 0.0
C419 C 0.18982 0.42977 0.51478 0.0
C420 C 0.06807 0.41966 0.48087 0.0
C421 C 0.07245 0.44416 0.47871 0.0
C422 C 0.08536 0.40681 0.48197 0.0
C423 C 0.1072 0.41828 0.48043 0.0
C424 C 0.11159 0.44277 0.4789 0.0
C425 C 0.09436 0.45561 0.47809 0.0
C426 C 0.12547 0.40503 0.47847 0.0
C427 C 0.14401 0.40965 0.4948 0.0
C428 C 0.1254 0.38928 0.45943 0.0
C429 C 0.10679 0.38445 0.44085 0.0
C430 C 0.10052 0.40256 0.42523 0.0
C431 C 0.08289 0.39788 0.40783 0.0
C432 C 0.07155 0.3751 0.40573 0.0
C433 C 0.07787 0.35695 0.42098 0.0
C434 C 0.09547 0.36156 0.43844 0.0
H435 H 0.05791 0.3715 0.39224 0.0
H436 H 0.23467 0.42321 0.55241 0.0
H437 H 0.60892 0.22299 0.34904 0.0
H438 H 0.58788 0.18773 0.36756 0.0
H439 H 0.64808 0.16631 0.39767 0.0
H440 H 0.66947 0.20127 0.37818 0.0
H441 H 0.62104 0.12986 0.37952 0.0
H442 H 0.61475 0.18889 0.43416 0.0
H443 H 0.60773 0.22668 0.44764 0.0
H444 H 0.54013 0.21032 0.4213 0.0
H445 H 0.54681 0.17255 0.40728 0.0
H446 H 0.55934 0.04599 0.46475 0.0
H447 H 0.5853 0.07756 0.44571 0.0
H448 H 0.53171 0.10131 0.40251 0.0
H449 H 0.50564 0.06987 0.42125 0.0
H450 H 0.55812 0.13601 0.43081 0.0
H451 H 0.56688 0.07689 0.37405 0.0
H452 H 0.57515 0.03865 0.36342 0.0
H453 H 0.63995 0.05507 0.39806 0.0
H454 H 0.63194 0.09331 0.4092 0.0
C455 C 0.61779 0.21069 0.35933 0.0
C456 C 0.64094 0.215 0.36203 0.0
C457 C 0.60568 0.19062 0.37017 0.0
C458 C 0.61635 0.17449 0.38432 0.0
C459 C 0.63947 0.17856 0.38693 0.0
C460 C 0.65166 0.19866 0.37596 0.0
C461 C 0.6032 0.15343 0.39622 0.0
C462 C 0.6075 0.13123 0.39105 0.0
C463 C 0.58545 0.15514 0.41121 0.0
C464 C 0.58135 0.17795 0.41944 0.0
C465 C 0.59844 0.19345 0.43097 0.0
C466 C 0.59451 0.21485 0.43878 0.0
C467 C 0.57351 0.22093 0.43527 0.0
C468 C 0.55639 0.20559 0.42399 0.0
C469 C 0.56024 0.18417 0.41614 0.0
C470 C 0.55309 0.05757 0.45077 0.0
C471 C 0.53032 0.05537 0.44462 0.0
C472 C 0.56798 0.07564 0.43995 0.0
C473 C 0.56039 0.09182 0.42281 0.0
C474 C 0.53787 0.08904 0.41579 0.0
C475 C 0.523 0.07093 0.42643 0.0
C476 C 0.57555 0.11258 0.41343 0.0
C477 C 0.5717 0.13472 0.41928 0.0
C478 C 0.59388 0.11077 0.39947 0.0
C479 C 0.59873 0.08785 0.39269 0.0
C480 C 0.58282 0.07226 0.37959 0.0
C481 C 0.58747 0.05061 0.37343 0.0
C482 C 0.60804 0.04441 0.38012 0.0
C483 C 0.62401 0.05989 0.39292 0.0
C484 C 0.61943 0.08156 0.39915 0.0
H485 H 0.61161 0.02764 0.37533 0.0
H486 H 0.5705 0.2375 0.44135 0.0
H487 H 0.78997 0.67705 0.40183 0.0
H488 H 0.82202 0.66066 0.41906 0.0
H489 H 0.84062 0.65078 0.34517 0.0
H490 H 0.80893 0.66739 0.32782 0.0
H491 H 0.84085 0.61222 0.37273 0.0
H492 H 0.86838 0.6923 0.38026 0.0
H493 H 0.87045 0.73285 0.39238 0.0
H494 H 0.87547 0.71065 0.46916 0.0
H495 H 0.87299 0.66986 0.45752 0.0
H496 H 0.95487 0.60512 0.44409 0.0
H497 H 0.92961 0.62879 0.42229 0.0
H498 H 0.87463 0.57465 0.43838 0.0
H499 H 0.89957 0.55081 0.45912 0.0
H500 H 0.89666 0.64794 0.43516 0.0
H501 H 0.83652 0.56944 0.3957 0.0
H502 H 0.83807 0.53086 0.37951 0.0
H503 H 0.90446 0.55492 0.35833 0.0
H504 H 0.90341 0.59344 0.37471 0.0
C505 C 0.80108 0.67176 0.38922 0.0
C506 C 0.79671 0.67338 0.3634 0.0
C507 C 0.8194 0.66236 0.39912 0.0
C508 C 0.83377 0.65448 0.38342 0.0
C509 C 0.82971 0.65658 0.35767 0.0
C510 C 0.81148 0.66599 0.34778 0.0
C511 C 0.85226 0.64276 0.39372 0.0
C512 C 0.85302 0.62012 0.38637 0.0
C513 C 0.86862 0.65325 0.411 0.0
C514 C 0.86995 0.67784 0.41802 0.0
C515 C 0.86954 0.69595 0.39975 0.0
C516 C 0.87089 0.71903 0.40653 0.0
C517 C 0.87295 0.72432 0.43153 0.0
C518 C 0.87379 0.70654 0.44979 0.0
C519 C 0.87237 0.68342 0.44311 0.0
C520 C 0.93741 0.59825 0.44278 0.0
C521 C 0.92931 0.57595 0.45305 0.0
C522 C 0.92298 0.61182 0.43041 0.0
C523 C 0.90022 0.60334 0.42821 0.0
C524 C 0.89214 0.58136 0.43913 0.0
C525 C 0.90649 0.56775 0.45112 0.0
C526 C 0.88467 0.61726 0.41475 0.0
C527 C 0.88445 0.64021 0.42148 0.0
C528 C 0.86918 0.60744 0.39632 0.0
C529 C 0.86991 0.58424 0.38655 0.0
C530 C 0.85144 0.56646 0.38758 0.0
C531 C 0.85227 0.54457 0.37848 0.0
C532 C 0.87141 0.54037 0.36804 0.0
C533 C 0.88974 0.55807 0.36666 0.0
C534 C 0.88907 0.5799 0.37595 0.0
H535 H 0.87202 0.52344 0.36096 0.0
H536 H 0.87401 0.7422 0.43673 0.0
H537 H 0.39269 0.77941 0.38817 0.0
H538 H 0.41268 0.81265 0.41043 0.0
H539 H 0.36178 0.85301 0.38746 0.0
H540 H 0.34169 0.81978 0.36502 0.0
H541 H 0.40437 0.87776 0.38159 0.0
H542 H 0.36357 0.83187 0.44481 0.0
H543 H 0.35018 0.79616 0.46984 0.0
H544 H 0.4165 0.79149 0.49588 0.0
H545 H 0.43036 0.8269 0.4706 0.0
H546 H 0.45494 0.9691 0.46089 0.0
H547 H 0.42742 0.93967 0.44057 0.0
H548 H 0.46531 0.8861 0.46573 0.0
H549 H 0.49219 0.91495 0.48651 0.0
H550 H 0.42423 0.87016 0.47145 0.0
H551 H 0.46568 0.91153 0.40457 0.0
H552 H 0.48044 0.9463 0.37879 0.0
H553 H 0.41466 0.95865 0.35947 0.0
H554 H 0.39952 0.92409 0.3854 0.0
C555 C 0.38581 0.7954 0.38772 0.0
C556 C 0.3656 0.79695 0.37482 0.0
C557 C 0.39717 0.81433 0.40061 0.0
C558 C 0.38863 0.83526 0.4008 0.0
C559 C 0.36862 0.83701 0.38765 0.0
C560 C 0.35712 0.81797 0.37495 0.0
C561 C 0.4008 0.8553 0.41458 0.0
C562 C 0.40841 0.87626 0.40133 0.0
C563 C 0.40634 0.85323 0.44026 0.0
C564 C 0.39803 0.83192 0.45555 0.0
C565 C 0.37534 0.8231 0.45565 0.0
C566 C 0.36766 0.80291 0.4699 0.0
C567 C 0.3825 0.79147 0.48429 0.0
C568 C 0.40504 0.80029 0.4846 0.0
C569 C 0.41281 0.82043 0.47032 0.0
C570 C 0.45731 0.95103 0.46213 0.0
C571 C 0.47582 0.94445 0.4753 0.0
C572 C 0.44162 0.93422 0.45042 0.0
C573 C 0.44435 0.91061 0.45136 0.0
C574 C 0.4627 0.90411 0.46475 0.0
C575 C 0.47817 0.92074 0.4766 0.0
C576 C 0.42847 0.89243 0.43834 0.0
C577 C 0.42004 0.8718 0.45175 0.0
C578 C 0.42241 0.89471 0.41277 0.0
C579 C 0.43149 0.91541 0.39714 0.0
C580 C 0.45438 0.92177 0.39496 0.0
C581 C 0.46281 0.94142 0.38031 0.0
C582 C 0.4485 0.95472 0.36757 0.0
C583 C 0.42573 0.94836 0.3694 0.0
C584 C 0.41721 0.92874 0.38405 0.0
H585 H 0.45506 0.96993 0.35623 0.0
H586 H 0.37651 0.77588 0.49536 0.0
H587 H 0.23507 0.63902 0.6058 0.0
H588 H 0.20027 0.62241 0.58495 0.0
H589 H 0.17035 0.60847 0.65557 0.0
H590 H 0.20529 0.62509 0.67664 0.0
H591 H 0.15763 0.57233 0.62608 0.0
H592 H 0.16011 0.65487 0.61796 0.0
H593 H 0.17616 0.69583 0.60791 0.0
H594 H 0.17984 0.67988 0.53181 0.0
H595 H 0.1641 0.63873 0.54148 0.0
H596 H 0.04937 0.5496 0.56843 0.0
H597 H 0.08022 0.57132 0.59283 0.0
H598 H 0.12087 0.57712 0.52971 0.0
H599 H 0.09037 0.55517 0.50545 0.0
H600 H 0.12556 0.61894 0.55814 0.0
H601 H 0.12654 0.53554 0.5681 0.0
H602 H 0.10738 0.49552 0.57731 0.0
H603 H 0.09531 0.51429 0.6504 0.0
H604 H 0.11409 0.55459 0.64145 0.0
C605 C 0.22107 0.63256 0.61693 0.0
C606 C 0.22294 0.63363 0.64289 0.0
C607 C 0.20115 0.62303 0.60497 0.0
C608 C 0.18252 0.61455 0.61863 0.0
C609 C 0.18446 0.61497 0.64461 0.0
C610 C 0.20446 0.62443 0.65663 0.0
C611 C 0.16106 0.60554 0.60563 0.0
C612 C 0.15048 0.58272 0.61154 0.0
C613 C 0.15169 0.61891 0.58643 0.0
C614 C 0.16109 0.64367 0.5805 0.0
C615 C 0.16449 0.66006 0.59912 0.0
C616 C 0.17351 0.68331 0.59348 0.0
C617 C 0.17906 0.69044 0.56925 0.0
C618 C 0.17555 0.67433 0.55058 0.0
C619 C 0.16656 0.65104 0.55612 0.0
C620 C 0.06474 0.55595 0.55965 0.0
C621 C 0.06756 0.55059 0.53513 0.0
C622 C 0.08234 0.56826 0.5736 0.0
C623 C 0.10284 0.57567 0.56308 0.0
C624 C 0.1052 0.57158 0.53815 0.0
C625 C 0.08779 0.55896 0.52437 0.0
C626 C 0.12244 0.58585 0.57846 0.0
C627 C 0.13267 0.60878 0.57292 0.0
C628 C 0.13141 0.57266 0.59802 0.0
C629 C 0.12148 0.54811 0.60402 0.0
C630 C 0.11972 0.53115 0.5861 0.0
C631 C 0.10885 0.50845 0.59122 0.0
C632 C 0.09991 0.50244 0.61431 0.0
C633 C 0.10211 0.51902 0.63245 0.0
C634 C 0.11289 0.54179 0.62738 0.0
H635 H 0.0915 0.48485 0.61824 0.0
H636 H 0.18604 0.70846 0.56492 0.0
H637 H 0.39046 0.22948 0.64178 0.0
H638 H 0.40688 0.19941 0.62331 0.0
H639 H 0.34242 0.15822 0.61184 0.0
H640 H 0.32586 0.18811 0.63084 0.0
H641 H 0.3721 0.13099 0.62949 0.0
H642 H 0.36716 0.18634 0.56276 0.0
H643 H 0.37109 0.22492 0.5407 0.0
H644 H 0.4414 0.23341 0.55286 0.0
H645 H 0.43787 0.19496 0.57526 0.0
H646 H 0.41721 0.05638 0.54859 0.0
H647 H 0.39446 0.08166 0.56647 0.0
H648 H 0.45288 0.1313 0.5838 0.0
H649 H 0.47545 0.10643 0.56624 0.0
H650 H 0.42198 0.15249 0.56009 0.0
H651 H 0.42497 0.09531 0.62838 0.0
H652 H 0.41896 0.05554 0.64777 0.0
H653 H 0.34954 0.04921 0.62944 0.0
H654 H 0.35519 0.08886 0.6097 0.0
C655 C 0.37976 0.21395 0.63554 0.0
C656 C 0.35682 0.21125 0.6378 0.0
C657 C 0.38916 0.19684 0.62477 0.0
C658 C 0.37587 0.17663 0.61595 0.0
C659 C 0.353 0.17369 0.61845 0.0
C660 C 0.34355 0.19088 0.62914 0.0
C661 C 0.38604 0.1587 0.60416 0.0
C662 C 0.38277 0.13561 0.61409 0.0
C663 C 0.39999 0.16464 0.58408 0.0
C664 C 0.40223 0.18791 0.57094 0.0
C665 C 0.38344 0.19655 0.56096 0.0
C666 C 0.3856 0.21836 0.54833 0.0
C667 C 0.40648 0.23164 0.54545 0.0
C668 C 0.42524 0.22311 0.55515 0.0
C669 C 0.42317 0.2013 0.56779 0.0
C670 C 0.42517 0.07251 0.55657 0.0
C671 C 0.44814 0.07936 0.55598 0.0
C672 C 0.41215 0.087 0.56669 0.0
C673 C 0.42195 0.10848 0.57639 0.0
C674 C 0.4449 0.11494 0.57628 0.0
C675 C 0.45781 0.10059 0.56626 0.0
C676 C 0.40865 0.12496 0.58592 0.0
C677 C 0.41132 0.14785 0.57551 0.0
C678 C 0.39393 0.11867 0.60526 0.0
C679 C 0.39054 0.09492 0.61726 0.0
C680 C 0.40845 0.08536 0.62829 0.0
C681 C 0.4051 0.06286 0.6394 0.0
C682 C 0.38389 0.04982 0.63975 0.0
C683 C 0.36597 0.0593 0.62909 0.0
C684 C 0.36923 0.08179 0.61796 0.0
H685 H 0.38133 0.0324 0.64836 0.0
H686 H 0.40812 0.24852 0.53565 0.0
H687 H 0.81042 0.41573 0.66462 0.0
H688 H 0.84512 0.43664 0.64969 0.0
H689 H 0.85447 0.37598 0.6116 0.0
H690 H 0.82035 0.35434 0.62782 0.0
H691 H 0.89235 0.39524 0.63147 0.0
H692 H 0.83591 0.42399 0.58089 0.0
H693 H 0.80213 0.44094 0.57128 0.0
H694 H 0.83113 0.50309 0.60813 0.0
H695 H 0.86498 0.48636 0.61829 0.0
H696 H 0.96907 0.46043 0.54666 0.0
H697 H 0.93923 0.43509 0.56756 0.0
H698 H 0.93225 0.49103 0.61418 0.0
H699 H 0.962 0.51648 0.59352 0.0
H700 H 0.89359 0.47328 0.58928 0.0
H701 H 0.951 0.44327 0.63863 0.0
H702 H 0.98475 0.42574 0.64551 0.0
H703 H 0.9537 0.36521 0.60718 0.0
H704 H 0.91984 0.38252 0.59976 0.0
C705 C 0.81996 0.40661 0.65342 0.0
C706 C 0.81242 0.38325 0.64746 0.0
C707 C 0.83973 0.41876 0.64458 0.0
C708 C 0.8523 0.40809 0.6291 0.0
C709 C 0.84505 0.38468 0.62339 0.0
C710 C 0.82535 0.37239 0.63247 0.0
C711 C 0.87285 0.42147 0.61877 0.0
C712 C 0.89254 0.41217 0.62196 0.0
C713 C 0.87327 0.44372 0.60657 0.0
C714 C 0.85289 0.45381 0.60058 0.0
C715 C 0.83501 0.44119 0.58713 0.0
C716 C 0.81586 0.45077 0.58155 0.0
C717 C 0.81446 0.47305 0.58915 0.0
C718 C 0.83222 0.48581 0.6023 0.0
C719 C 0.8514 0.4763 0.60796 0.0
C720 C 0.96164 0.46719 0.56183 0.0
C721 C 0.96791 0.49063 0.56823 0.0
C722 C 0.94453 0.45264 0.57375 0.0
C723 C 0.93341 0.4612 0.59234 0.0
C724 C 0.94052 0.48409 0.59979 0.0
C725 C 0.95766 0.4986 0.588 0.0
C726 C 0.91307 0.44722 0.60233 0.0
C727 C 0.89338 0.45638 0.59888 0.0
C728 C 0.91264 0.42476 0.61391 0.0
C729 C 0.93296 0.4143 0.61843 0.0
C730 C 0.95143 0.42631 0.63148 0.0
C731 C 0.97057 0.41639 0.63552 0.0
C732 C 0.97139 0.3944 0.62673 0.0
C733 C 0.95305 0.38225 0.61395 0.0
C734 C 0.93387 0.3921 0.60984 0.0
H735 H 0.98622 0.38675 0.62988 0.0
H736 H 0.79962 0.48044 0.58479 0.0
H737 H 0.63617 0.77756 0.63347 0.0
H738 H 0.61913 0.81042 0.61669 0.0
H739 H 0.68338 0.85077 0.60488 0.0
H740 H 0.70068 0.81803 0.62225 0.0
H741 H 0.65267 0.87672 0.62332 0.0
H742 H 0.65734 0.82512 0.5574 0.0
H743 H 0.65184 0.78726 0.53749 0.0
H744 H 0.58196 0.7802 0.54488 0.0
H745 H 0.5871 0.81786 0.56521 0.0
H746 H 0.61312 0.96207 0.54321 0.0
H747 H 0.63395 0.93198 0.55997 0.0
H748 H 0.57406 0.88133 0.55928 0.0
H749 H 0.55348 0.91101 0.54131 0.0
H750 H 0.60448 0.86126 0.54754 0.0
H751 H 0.59833 0.91104 0.61343 0.0
H752 H 0.60212 0.94823 0.63439 0.0
H753 H 0.67238 0.95797 0.62906 0.0
H754 H 0.66898 0.92096 0.60776 0.0
C755 C 0.64672 0.79358 0.62781 0.0
C756 C 0.66977 0.79519 0.62907 0.0
C757 C 0.63695 0.81227 0.61808 0.0
C758 C 0.65003 0.83285 0.60932 0.0
C759 C 0.67305 0.83496 0.61151 0.0
C760 C 0.68287 0.81621 0.62122 0.0
C761 C 0.63952 0.85147 0.59641 0.0
C762 C 0.64242 0.87355 0.60648 0.0
C763 C 0.62572 0.847 0.57489 0.0
C764 C 0.62262 0.8242 0.563 0.0
C765 C 0.64083 0.81537 0.55501 0.0
C766 C 0.63777 0.79398 0.5436 0.0
C767 C 0.61657 0.78131 0.53997 0.0
C768 C 0.59838 0.79001 0.54775 0.0
C769 C 0.60135 0.81137 0.55922 0.0
C770 C 0.6045 0.94442 0.54636 0.0
C771 C 0.58167 0.9389 0.54122 0.0
C772 C 0.61636 0.92729 0.55616 0.0
C773 C 0.60548 0.90454 0.56169 0.0
C774 C 0.58284 0.89879 0.55542 0.0
C775 C 0.57107 0.91577 0.54509 0.0
C776 C 0.61749 0.8867 0.57421 0.0
C777 C 0.61488 0.86464 0.56414 0.0
C778 C 0.63128 0.89114 0.5959 0.0
C779 C 0.63338 0.91336 0.60877 0.0
C780 C 0.61458 0.9212 0.61657 0.0
C781 C 0.61666 0.94223 0.62853 0.0
C782 C 0.63747 0.95549 0.63299 0.0
C783 C 0.65627 0.9477 0.62555 0.0
C784 C 0.65427 0.92669 0.61355 0.0
H785 H 0.63905 0.97177 0.64226 0.0
H786 H 0.61423 0.76478 0.53109 0.0
H787 H 0.38666 0.2468 0.4233 0.0
H788 H 0.40171 0.21182 0.43768 0.0
H789 H 0.33577 0.17344 0.44355 0.0
H790 H 0.32063 0.20845 0.42939 0.0
H791 H 0.36128 0.16258 0.4821 0.0
H792 H 0.36547 0.16744 0.39417 0.0
H793 H 0.3751 0.18606 0.35333 0.0
H794 H 0.44383 0.19507 0.37588 0.0
H795 H 0.43459 0.17679 0.417 0.0
H796 H 0.41129 0.05405 0.45538 0.0
H797 H 0.38886 0.08483 0.44771 0.0
H798 H 0.43242 0.1291 0.49701 0.0
H799 H 0.45584 0.09903 0.50361 0.0
H800 H 0.41444 0.13408 0.43046 0.0
H801 H 0.37857 0.15467 0.52401 0.0
H802 H 0.3622 0.13418 0.56126 0.0
H803 H 0.3516 0.06934 0.52471 0.0
H804 H 0.36598 0.08961 0.48653 0.0
C805 C 0.3754 0.23088 0.4276 0.0
C806 C 0.35249 0.23028 0.42508 0.0
C807 C 0.384 0.21094 0.43584 0.0
C808 C 0.36984 0.18997 0.44137 0.0
C809 C 0.34697 0.18946 0.43942 0.0
C810 C 0.33835 0.20945 0.43133 0.0
C811 C 0.37895 0.16842 0.44853 0.0
C812 C 0.373 0.15633 0.47095 0.0
C813 C 0.39369 0.16001 0.43348 0.0
C814 C 0.39932 0.17094 0.40874 0.0
C815 C 0.38263 0.17355 0.39048 0.0
C816 C 0.38802 0.18402 0.36727 0.0
C817 C 0.41006 0.19179 0.36203 0.0
C818 C 0.42676 0.18906 0.37998 0.0
C819 C 0.42146 0.17863 0.40323 0.0
C820 C 0.416 0.07018 0.4649 0.0
C821 C 0.43535 0.07402 0.48021 0.0
C822 C 0.40307 0.08767 0.46059 0.0
C823 C 0.4088 0.10894 0.47221 0.0
C824 C 0.42754 0.11254 0.48831 0.0
C825 C 0.4409 0.09533 0.49204 0.0
C826 C 0.39731 0.1286 0.46443 0.0
C827 C 0.40288 0.14038 0.4418 0.0
C828 C 0.38187 0.13632 0.47911 0.0
C829 C 0.37411 0.12365 0.50245 0.0
C830 C 0.3728 0.13602 0.52385 0.0
C831 C 0.36367 0.12447 0.54511 0.0
C832 C 0.35626 0.10043 0.54552 0.0
C833 C 0.35761 0.08793 0.52449 0.0
C834 C 0.36619 0.09948 0.50295 0.0
H835 H 0.34933 0.09152 0.56206 0.0
H836 H 0.41419 0.19989 0.34405 0.0
H837 H 0.81464 0.35055 0.36519 0.0
H838 H 0.84829 0.36985 0.3865 0.0
H839 H 0.82137 0.43381 0.38519 0.0
H840 H 0.78768 0.41464 0.36379 0.0
H841 H 0.86402 0.44313 0.37549 0.0
H842 H 0.82031 0.39762 0.43724 0.0
H843 H 0.79908 0.36192 0.45615 0.0
H844 H 0.85662 0.3289 0.45994 0.0
H845 H 0.87813 0.36433 0.44072 0.0
H846 H 0.92297 0.47681 0.49896 0.0
H847 H 0.89343 0.45272 0.47556 0.0
H848 H 0.93782 0.44845 0.41769 0.0
H849 H 0.96768 0.47262 0.44121 0.0
H850 H 0.88736 0.40873 0.45662 0.0
H851 H 0.90798 0.45615 0.36289 0.0
H852 H 0.9285 0.49383 0.34742 0.0
H853 H 0.91352 0.5267 0.4122 0.0
H854 H 0.89267 0.48931 0.42785 0.0
C855 C 0.81586 0.36872 0.36947 0.0
C856 C 0.79837 0.38099 0.36296 0.0
C857 C 0.83514 0.37975 0.38161 0.0
C858 C 0.83728 0.40322 0.38775 0.0
C859 C 0.82013 0.41571 0.38062 0.0
C860 C 0.80088 0.40472 0.36836 0.0
C861 C 0.85699 0.4145 0.40242 0.0
C862 C 0.86916 0.43549 0.39314 0.0
C863 C 0.86362 0.40481 0.42567 0.0
C864 C 0.85075 0.38353 0.43731 0.0
C865 C 0.82839 0.38268 0.44194 0.0
C866 C 0.81631 0.36251 0.45274 0.0
C867 C 0.82648 0.34313 0.45918 0.0
C868 C 0.84876 0.34391 0.4549 0.0
C869 C 0.8609 0.36404 0.44407 0.0
C870 C 0.92656 0.47047 0.48141 0.0
C871 C 0.94759 0.47676 0.4718 0.0
C872 C 0.90967 0.45661 0.46813 0.0
C873 C 0.91336 0.44899 0.4448 0.0
C874 C 0.93461 0.4543 0.43562 0.0
C875 C 0.95166 0.468 0.44909 0.0
C876 C 0.89446 0.43707 0.42951 0.0
C877 C 0.88239 0.41608 0.43875 0.0
C878 C 0.88761 0.44704 0.40655 0.0
C879 C 0.89902 0.46988 0.39665 0.0
C880 C 0.90895 0.47146 0.37373 0.0
C881 C 0.92067 0.49275 0.36496 0.0
C882 C 0.92248 0.51258 0.37893 0.0
C883 C 0.91227 0.51127 0.40151 0.0
C884 C 0.90048 0.49005 0.41031 0.0
H885 H 0.93176 0.52897 0.37222 0.0
H886 H 0.81711 0.32753 0.46754 0.0
H887 H 0.6277 0.80473 0.33857 0.0
H888 H 0.61275 0.83575 0.35711 0.0
H889 H 0.67019 0.8484 0.40673 0.0
H890 H 0.68605 0.81842 0.3874 0.0
H891 H 0.62654 0.84011 0.42913 0.0
H892 H 0.66719 0.88741 0.36568 0.0
H893 H 0.67787 0.89787 0.32277 0.0
H894 H 0.61096 0.90425 0.30095 0.0
H895 H 0.59981 0.89347 0.34369 0.0
H896 H 0.60124 0.94203 0.48349 0.0
H897 H 0.6222 0.9176 0.46135 0.0
H898 H 0.56812 0.90366 0.40721 0.0
H899 H 0.5469 0.92712 0.42979 0.0
H900 H 0.61181 0.9141 0.3867 0.0
H901 H 0.56945 0.8652 0.44515 0.0
H902 H 0.55448 0.84948 0.48499 0.0
H903 H 0.61939 0.84082 0.51293 0.0
H904 H 0.63485 0.85739 0.47369 0.0
C905 C 0.63752 0.8144 0.35299 0.0
C906 C 0.6582 0.80881 0.36139 0.0
C907 C 0.62881 0.83208 0.36368 0.0
C908 C 0.64039 0.84439 0.38324 0.0
C909 C 0.66098 0.83905 0.39166 0.0
C910 C 0.66991 0.82168 0.3807 0.0
C911 C 0.63041 0.86192 0.3958 0.0
C912 C 0.62378 0.85655 0.42009 0.0
C913 C 0.62595 0.88285 0.38353 0.0
C914 C 0.63263 0.88941 0.35785 0.0
C915 C 0.65471 0.89082 0.35169 0.0
C916 C 0.66086 0.89686 0.32741 0.0
C917 C 0.6451 0.90166 0.30913 0.0
C918 C 0.62315 0.9005 0.31512 0.0
C919 C 0.61691 0.89445 0.33938 0.0
C920 C 0.59406 0.93403 0.46664 0.0
C921 C 0.57257 0.93649 0.45819 0.0
C922 C 0.60596 0.92004 0.45409 0.0
C923 C 0.5967 0.90885 0.43261 0.0
C924 C 0.57561 0.91222 0.42363 0.0
C925 C 0.56351 0.92556 0.43655 0.0
C926 C 0.60834 0.89249 0.42029 0.0
C927 C 0.61501 0.89792 0.39596 0.0
C928 C 0.61239 0.87128 0.43228 0.0
C929 C 0.60339 0.86302 0.45663 0.0
C930 C 0.58062 0.86056 0.46003 0.0
C931 C 0.57201 0.85137 0.48249 0.0
C932 C 0.58595 0.84421 0.50156 0.0
C933 C 0.60857 0.84647 0.49828 0.0
C934 C 0.6173 0.85588 0.47596 0.0
H935 H 0.57917 0.83681 0.5188 0.0
H936 H 0.64989 0.90634 0.29034 0.0
H937 H 0.20548 0.65671 0.39271 0.0
H938 H 0.17038 0.63664 0.40768 0.0
H939 H 0.15538 0.60376 0.33776 0.0
H940 H 0.18992 0.62482 0.3221 0.0
H941 H 0.11936 0.61527 0.35325 0.0
H942 H 0.17512 0.57466 0.38971 0.0
H943 H 0.20967 0.5695 0.41299 0.0
H944 H 0.18618 0.59452 0.47812 0.0
H945 H 0.1516 0.60016 0.45511 0.0
H946 H 0.04384 0.51668 0.40692 0.0
H947 H 0.07368 0.54187 0.38546 0.0
H948 H 0.08111 0.58977 0.44462 0.0
H949 H 0.05119 0.56526 0.46585 0.0
H950 H 0.12023 0.56974 0.43342 0.0
H951 H 0.06339 0.60933 0.39483 0.0
H952 H 0.02868 0.6116 0.37054 0.0
H953 H 0.05436 0.5844 0.30803 0.0
H954 H 0.08913 0.58164 0.3321 0.0
C955 C 0.19459 0.64556 0.3803 0.0
C956 C 0.20071 0.64231 0.35621 0.0
C957 C 0.17459 0.63383 0.38902 0.0
C958 C 0.16038 0.61828 0.37405 0.0
C959 C 0.1661 0.61552 0.34975 0.0
C960 C 0.18602 0.6274 0.34092 0.0
C961 C 0.13983 0.60454 0.38394 0.0
C962 C 0.11962 0.6051 0.37064 0.0
C963 C 0.14004 0.59132 0.40671 0.0
C964 C 0.16087 0.58808 0.4206 0.0
C965 C 0.1774 0.57926 0.40893 0.0
C966 C 0.19698 0.57621 0.42209 0.0
C967 C 0.20015 0.58174 0.447 0.0
C968 C 0.18372 0.59029 0.45881 0.0
C969 C 0.16413 0.5934 0.44572 0.0
C970 C 0.05142 0.53289 0.41502 0.0
C971 C 0.04513 0.53884 0.43817 0.0
C972 C 0.06848 0.54723 0.40276 0.0
C973 C 0.07964 0.56756 0.41358 0.0
C974 C 0.07269 0.57412 0.436 0.0
C975 C 0.05547 0.56008 0.44804 0.0
C976 C 0.0999 0.5808 0.40292 0.0
C977 C 0.12005 0.57998 0.41605 0.0
C978 C 0.09965 0.59338 0.37986 0.0
C979 C 0.07876 0.59501 0.36537 0.0
C980 C 0.06155 0.60359 0.376 0.0
C981 C 0.04189 0.60503 0.36225 0.0
C982 C 0.03929 0.59808 0.33778 0.0
C983 C 0.05638 0.58974 0.327 0.0
C984 C 0.07607 0.58825 0.34068 0.0
H985 H 0.02405 0.59921 0.32716 0.0
H986 H 0.21531 0.57935 0.45716 0.0
H987 H 0.35466 0.80871 0.63424 0.0
H988 H 0.37531 0.84542 0.61769 0.0
H989 H 0.43618 0.82427 0.64584 0.0
H990 H 0.41582 0.78737 0.66187 0.0
H991 H 0.43344 0.8691 0.65745 0.0
H992 H 0.42166 0.82239 0.58488 0.0
H993 H 0.39939 0.7986 0.5532 0.0
H994 H 0.36542 0.85575 0.53148 0.0
H995 H 0.3873 0.8798 0.56322 0.0
H996 H 0.51552 0.94479 0.5933 0.0
H997 H 0.49016 0.91345 0.61294 0.0
H998 H 0.43521 0.9381 0.57314 0.0
H999 H 0.46064 0.9692 0.55273 0.0
H1000 H 0.43178 0.89364 0.56824 0.0
H1001 H 0.44445 0.94156 0.63788 0.0
H1002 H 0.4661 0.9662 0.66924 0.0
H1003 H 0.49696 0.90834 0.69682 0.0
H1004 H 0.47571 0.88341 0.6654 0.0
C1005 C 0.37246 0.8117 0.63663 0.0
C1006 C 0.38353 0.79502 0.6495 0.0
C1007 C 0.38424 0.83276 0.62723 0.0
C1008 C 0.4073 0.83758 0.63049 0.0
C1009 C 0.41838 0.82099 0.64324 0.0
C1010 C 0.40667 0.79992 0.65251 0.0
C1011 C 0.42001 0.86002 0.621 0.0
C1012 C 0.43324 0.8744 0.63791 0.0
C1013 C 0.41913 0.86733 0.59564 0.0
C1014 C 0.4059 0.85278 0.57667 0.0
C1015 C 0.40928 0.82981 0.57352 0.0
C1016 C 0.39677 0.81629 0.55551 0.0
C1017 C 0.38092 0.82562 0.54045 0.0
C1018 C 0.37765 0.84853 0.54323 0.0
C1019 C 0.3901 0.86211 0.56121 0.0
C1020 C 0.49802 0.94395 0.5891 0.0
C1021 C 0.49018 0.95956 0.57135 0.0
C1022 C 0.48346 0.92596 0.60044 0.0
C1023 C 0.46068 0.92339 0.59468 0.0
C1024 C 0.4527 0.93964 0.57786 0.0
C1025 C 0.46728 0.95752 0.56631 0.0
C1026 C 0.44552 0.9027 0.60465 0.0
C1027 C 0.43182 0.88857 0.58784 0.0
C1028 C 0.4458 0.89575 0.63015 0.0
C1029 C 0.45859 0.91066 0.64914 0.0
C1030 C 0.45597 0.93412 0.65051 0.0
C1031 C 0.46815 0.94814 0.66832 0.0
C1032 C 0.48293 0.93885 0.68498 0.0
C1033 C 0.48551 0.91551 0.6839 0.0
C1034 C 0.47338 0.90142 0.66611 0.0
H1035 H 0.49234 0.94973 0.69875 0.0
H1036 H 0.37115 0.81512 0.52663 0.0
H1037 H 0.1941 0.32807 0.64573 0.0
H1038 H 0.16583 0.3485 0.62479 0.0
H1039 H 0.21663 0.39578 0.58784 0.0
H1040 H 0.24467 0.37482 0.60778 0.0
H1041 H 0.18842 0.4188 0.60736 0.0
H1042 H 0.18341 0.35244 0.55815 0.0
H1043 H 0.17816 0.31098 0.54837 0.0
H1044 H 0.11244 0.30096 0.57419 0.0
H1045 H 0.11735 0.3424 0.58432 0.0
H1046 H 0.11839 0.47718 0.52956 0.0
H1047 H 0.14584 0.4538 0.54497 0.0
H1048 H 0.09471 0.40185 0.57538 0.0
H1049 H 0.06676 0.42487 0.55862 0.0
H1050 H 0.12379 0.38079 0.55715 0.0
H1051 H 0.13243 0.44288 0.61647 0.0
H1052 H 0.13793 0.48363 0.62931 0.0
H1053 H 0.19516 0.50035 0.5859 0.0
H1054 H 0.19056 0.45941 0.57371 0.0
C1055 C 0.19909 0.34263 0.6328 0.0
C1056 C 0.22146 0.34977 0.62809 0.0
C1057 C 0.18298 0.35422 0.6208 0.0
C1058 C 0.18905 0.37338 0.60422 0.0
C1059 C 0.21148 0.38071 0.59995 0.0
C1060 C 0.22749 0.36879 0.61142 0.0
C1061 C 0.17221 0.38653 0.59221 0.0
C1062 C 0.17443 0.41047 0.59615 0.0
C1063 C 0.15369 0.37565 0.57795 0.0
C1064 C 0.15081 0.35061 0.5721 0.0
C1065 C 0.16787 0.34144 0.56185 0.0
C1066 C 0.16495 0.3179 0.55623 0.0
C1067 C 0.14499 0.30333 0.56068 0.0
C1068 C 0.1279 0.31227 0.57075 0.0
C1069 C 0.13074 0.3358 0.5764 0.0
C1070 C 0.11289 0.46083 0.53962 0.0
C1071 C 0.09035 0.45307 0.5432 0.0
C1072 C 0.12871 0.4475 0.54861 0.0
C1073 C 0.12255 0.42634 0.56211 0.0
C1074 C 0.09997 0.41822 0.56523 0.0
C1075 C 0.08399 0.43141 0.55574 0.0
C1076 C 0.13972 0.41288 0.57292 0.0
C1077 C 0.13771 0.38899 0.56851 0.0
C1078 C 0.15838 0.42364 0.58704 0.0
C1079 C 0.16101 0.44825 0.59397 0.0
C1080 C 0.14612 0.45531 0.6096 0.0
C1081 C 0.14912 0.47839 0.61682 0.0
C1082 C 0.16666 0.49467 0.60812 0.0
C1083 C 0.18151 0.48777 0.59253 0.0
C1084 C 0.17885 0.46459 0.58565 0.0
H1085 H 0.16881 0.51258 0.61358 0.0
H1086 H 0.14276 0.28511 0.55632 0.0
H1087 H 0.61756 0.22691 0.64426 0.0
H1088 H 0.59844 0.1916 0.62507 0.0
H1089 H 0.65997 0.17824 0.59944 0.0
H1090 H 0.67943 0.2131 0.61928 0.0
H1091 H 0.62656 0.17338 0.56272 0.0
H1092 H 0.63813 0.14581 0.64657 0.0
H1093 H 0.63694 0.14625 0.69202 0.0
H1094 H 0.56633 0.13881 0.68598 0.0
H1095 H 0.56712 0.13866 0.64044 0.0
H1096 H 0.56006 0.04506 0.56116 0.0
H1097 H 0.58702 0.07518 0.58136 0.0
H1098 H 0.55845 0.12883 0.53944 0.0
H1099 H 0.53198 0.09922 0.51911 0.0
H1100 H 0.58063 0.10994 0.6106 0.0
H1101 H 0.59675 0.17485 0.52622 0.0
H1102 H 0.59761 0.1738 0.48084 0.0
H1103 H 0.61457 0.10499 0.48794 0.0
H1104 H 0.61409 0.10573 0.53347 0.0
C1105 C 0.62716 0.21634 0.6349 0.0
C1106 C 0.65014 0.22299 0.63346 0.0
C1107 C 0.61614 0.19617 0.62381 0.0
C1108 C 0.62778 0.18217 0.61092 0.0
C1109 C 0.65063 0.18879 0.60922 0.0
C1110 C 0.66172 0.20886 0.6205 0.0
C1111 C 0.61598 0.16083 0.59898 0.0
C1112 C 0.61662 0.15945 0.5732 0.0
C1113 C 0.60326 0.14245 0.61268 0.0
C1114 C 0.60271 0.1424 0.64007 0.0
C1115 C 0.62236 0.14444 0.65492 0.0
C1116 C 0.62176 0.14461 0.6807 0.0
C1117 C 0.60158 0.14261 0.69188 0.0
C1118 C 0.58195 0.14037 0.6773 0.0
C1119 C 0.58247 0.14022 0.6515 0.0
C1120 C 0.5597 0.06327 0.55611 0.0
C1121 C 0.54386 0.06966 0.53847 0.0
C1122 C 0.57505 0.08046 0.56772 0.0
C1123 C 0.57494 0.10429 0.56172 0.0
C1124 C 0.55917 0.11061 0.54409 0.0
C1125 C 0.54393 0.09356 0.53254 0.0
C1126 C 0.59073 0.1228 0.57425 0.0
C1127 C 0.5908 0.12371 0.60014 0.0
C1128 C 0.60419 0.14069 0.56064 0.0
C1129 C 0.6053 0.14034 0.53329 0.0
C1130 C 0.60086 0.15957 0.51813 0.0
C1131 C 0.60124 0.159 0.49235 0.0
C1132 C 0.60616 0.13935 0.48148 0.0
C1133 C 0.61075 0.12021 0.49638 0.0
C1134 C 0.6104 0.12068 0.52219 0.0
H1135 H 0.60647 0.13896 0.46152 0.0
H1136 H 0.60114 0.14274 0.71185 0.0
H1137 H 0.80655 0.68679 0.57556 0.0
H1138 H 0.83591 0.6732 0.55453 0.0
H1139 H 0.80978 0.60204 0.57644 0.0
H1140 H 0.77989 0.61525 0.59664 0.0
H1141 H 0.85523 0.61838 0.59173 0.0
H1142 H 0.8068 0.61034 0.51749 0.0
H1143 H 0.78111 0.62456 0.48586 0.0
H1144 H 0.83035 0.68347 0.46761 0.0
H1145 H 0.85641 0.6695 0.49912 0.0
H1146 H 0.915 0.55642 0.50902 0.0
H1147 H 0.88315 0.57533 0.51399 0.0
H1148 H 0.92532 0.63308 0.54779 0.0
H1149 H 0.95756 0.61478 0.54194 0.0
H1150 H 0.87156 0.62413 0.50249 0.0
H1151 H 0.90105 0.63335 0.60377 0.0
H1152 H 0.92504 0.61605 0.63509 0.0
H1153 H 0.91005 0.55035 0.60003 0.0
H1154 H 0.88574 0.56718 0.56878 0.0
C1155 C 0.80669 0.6682 0.57536 0.0
C1156 C 0.79105 0.65212 0.58809 0.0
C1157 C 0.8235 0.6605 0.56338 0.0
C1158 C 0.82495 0.63668 0.5641 0.0
C1159 C 0.8089 0.62052 0.57585 0.0
C1160 C 0.79198 0.62814 0.58756 0.0
C1161 C 0.8444 0.62878 0.55487 0.0
C1162 C 0.85882 0.6197 0.57224 0.0
C1163 C 0.84894 0.63044 0.52948 0.0
C1164 C 0.83351 0.63888 0.51052 0.0
C1165 C 0.81213 0.62633 0.5067 0.0
C1166 C 0.79755 0.63431 0.48879 0.0
C1167 C 0.80416 0.65485 0.47465 0.0
C1168 C 0.82536 0.66748 0.47845 0.0
C1169 C 0.84006 0.6595 0.49625 0.0
C1170 C 0.91767 0.57348 0.5168 0.0
C1171 C 0.93885 0.58406 0.52514 0.0
C1172 C 0.89942 0.5843 0.51949 0.0
C1173 C 0.90198 0.60554 0.53119 0.0
C1174 C 0.92314 0.61671 0.53855 0.0
C1175 C 0.94149 0.60613 0.53538 0.0
C1176 C 0.8824 0.6139 0.53945 0.0
C1177 C 0.86804 0.62307 0.52199 0.0
C1178 C 0.87766 0.61203 0.56481 0.0
C1179 C 0.89184 0.60161 0.58381 0.0
C1180 C 0.90284 0.6152 0.60283 0.0
C1181 C 0.91649 0.60548 0.62055 0.0
C1182 C 0.91914 0.58215 0.61949 0.0
C1183 C 0.90806 0.56845 0.60077 0.0
C1184 C 0.89438 0.57808 0.58304 0.0
H1185 H 0.92973 0.57467 0.63321 0.0
H1186 H 0.79286 0.66102 0.4608 0.0
H1187 H 0.34797 0.355 0.24739 0.0
H1188 H 0.36372 0.37494 0.21006 0.0
H1189 H 0.34814 0.44003 0.2327 0.0
H1190 H 0.33289 0.42036 0.27064 0.0
H1191 H 0.34054 0.43123 0.17926 0.0
H1192 H 0.39634 0.4347 0.24536 0.0
H1193 H 0.41728 0.41805 0.2801 0.0
H1194 H 0.43908 0.37186 0.23099 0.0
H1195 H 0.41796 0.38799 0.19602 0.0
H1196 H 0.45258 0.48261 0.11717 0.0
H1197 H 0.43 0.47272 0.1531 0.0
H1198 H 0.38219 0.42728 0.10906 0.0
H1199 H 0.40426 0.43761 0.07289 0.0
H1200 H 0.42096 0.43175 0.17555 0.0
H1201 H 0.32999 0.42292 0.13434 0.0
H1202 H 0.30894 0.44116 0.10091 0.0
H1203 H 0.35822 0.50277 0.10085 0.0
H1204 H 0.37947 0.48515 0.13441 0.0
C1205 C 0.34785 0.37355 0.24449 0.0
C1206 C 0.33949 0.38615 0.26224 0.0
C1207 C 0.35665 0.38485 0.22303 0.0
C1208 C 0.35716 0.40892 0.21879 0.0
C1209 C 0.34775 0.42139 0.23567 0.0
C1210 C 0.33906 0.41011 0.25731 0.0
C1211 C 0.36948 0.42124 0.19799 0.0
C1212 C 0.3581 0.4314 0.17826 0.0
C1213 C 0.39247 0.42193 0.19726 0.0
C1214 C 0.40542 0.4124 0.21815 0.0
C1215 C 0.40546 0.42086 0.24202 0.0
C1216 C 0.41738 0.41154 0.26174 0.0
C1217 C 0.42946 0.39387 0.25777 0.0
C1218 C 0.4297 0.38553 0.23404 0.0
C1219 C 0.41777 0.39477 0.21427 0.0
C1220 C 0.43708 0.47081 0.11501 0.0
C1221 C 0.43026 0.46083 0.09218 0.0
C1222 C 0.42422 0.46515 0.13558 0.0
C1223 C 0.40437 0.44935 0.13374 0.0
C1224 C 0.39727 0.4398 0.11083 0.0
C1225 C 0.41 0.44562 0.0902 0.0
C1226 C 0.39201 0.44135 0.15616 0.0
C1227 C 0.4034 0.43182 0.17631 0.0
C1228 C 0.3691 0.44159 0.15725 0.0
C1229 C 0.3564 0.45258 0.13701 0.0
C1230 C 0.3363 0.44042 0.12735 0.0
C1231 C 0.32434 0.45066 0.10831 0.0
C1232 C 0.33225 0.4731 0.09876 0.0
C1233 C 0.35213 0.48538 0.10824 0.0
C1234 C 0.36416 0.47523 0.12728 0.0
H1235 H 0.32296 0.48099 0.08401 0.0
H1236 H 0.43868 0.38667 0.27306 0.0
H1237 H 0.39538 0.66625 0.8188 0.0
H1238 H 0.41533 0.64861 0.85301 0.0
H1239 H 0.38025 0.58049 0.83547 0.0
H1240 H 0.36064 0.59788 0.80054 0.0
H1241 H 0.38408 0.58872 0.88716 0.0
H1242 H 0.42999 0.59466 0.81738 0.0
H1243 H 0.45049 0.61461 0.78233 0.0
H1244 H 0.49027 0.6613 0.83207 0.0
H1245 H 0.46974 0.64187 0.86739 0.0
H1246 H 0.45548 0.52114 0.95569 0.0
H1247 H 0.43137 0.53878 0.92579 0.0
H1248 H 0.47433 0.60523 0.93113 0.0
H1249 H 0.4991 0.58734 0.96029 0.0
H1250 H 0.46549 0.59754 0.88546 0.0
H1251 H 0.42076 0.59125 0.95583 0.0
H1252 H 0.40061 0.57139 0.99116 0.0
H1253 H 0.35861 0.52639 0.94162 0.0
H1254 H 0.37857 0.54586 0.90601 0.0
C1255 C 0.39198 0.64748 0.82199 0.0
C1256 C 0.37654 0.6335 0.80658 0.0
C1257 C 0.40332 0.63745 0.84171 0.0
C1258 C 0.39943 0.61323 0.84665 0.0
C1259 C 0.38348 0.59925 0.83198 0.0
C1260 C 0.37223 0.60925 0.81206 0.0
C1261 C 0.41262 0.60253 0.86658 0.0
C1262 C 0.40186 0.59037 0.88674 0.0
C1263 C 0.43585 0.60519 0.86624 0.0
C1264 C 0.44815 0.61697 0.845 0.0
C1265 C 0.44295 0.60933 0.82082 0.0
C1266 C 0.45461 0.62052 0.80091 0.0
C1267 C 0.47163 0.63926 0.80496 0.0
C1268 C 0.47705 0.64681 0.82895 0.0
C1269 C 0.46541 0.63572 0.84892 0.0
C1270 C 0.4596 0.53964 0.95091 0.0
C1271 C 0.47922 0.55287 0.96047 0.0
C1272 C 0.44572 0.54974 0.93377 0.0
C1273 C 0.45082 0.57346 0.92626 0.0
C1274 C 0.47 0.58689 0.93652 0.0
C1275 C 0.48412 0.57669 0.95331 0.0
C1276 C 0.43708 0.5839 0.9065 0.0
C1277 C 0.44773 0.59594 0.88617 0.0
C1278 C 0.41376 0.58123 0.90685 0.0
C1279 C 0.40145 0.56977 0.92825 0.0
C1280 C 0.40735 0.57699 0.95247 0.0
C1281 C 0.39591 0.56584 0.97256 0.0
C1282 C 0.37841 0.54757 0.96866 0.0
C1283 C 0.37221 0.5405 0.94464 0.0
C1284 C 0.38358 0.5516 0.92449 0.0
H1285 H 0.3696 0.53894 0.98423 0.0
H1286 H 0.48065 0.64788 0.78952 0.0
H1287 H 0.39498 0.35427 0.78883 0.0
H1288 H 0.41393 0.37419 0.82443 0.0
H1289 H 0.35161 0.38457 0.85067 0.0
H1290 H 0.33238 0.36431 0.81514 0.0
H1291 H 0.38268 0.42414 0.85415 0.0
H1292 H 0.37776 0.34362 0.87912 0.0
H1293 H 0.38111 0.30234 0.87503 0.0
H1294 H 0.45105 0.32155 0.86878 0.0
H1295 H 0.44809 0.363 0.87247 0.0
H1296 H 0.44165 0.45834 0.97173 0.0
H1297 H 0.41465 0.43465 0.94393 0.0
H1298 H 0.46601 0.43092 0.89404 0.0
H1299 H 0.49254 0.45503 0.92092 0.0
H1300 H 0.43557 0.38602 0.90791 0.0
H1301 H 0.43909 0.46613 0.87544 0.0
H1302 H 0.43676 0.50766 0.87969 0.0
H1303 H 0.36974 0.48886 0.90085 0.0
H1304 H 0.37182 0.4471 0.89713 0.0
C1305 C 0.38521 0.36049 0.8023 0.0
C1306 C 0.36209 0.35744 0.79915 0.0
C1307 C 0.3961 0.37198 0.82264 0.0
C1308 C 0.38419 0.38064 0.84044 0.0
C1309 C 0.36115 0.37803 0.8372 0.0
C1310 C 0.3502 0.36648 0.81682 0.0
C1311 C 0.39599 0.39238 0.86231 0.0
C1312 C 0.39386 0.4156 0.86623 0.0
C1313 C 0.41077 0.38139 0.87801 0.0
C1314 C 0.41267 0.35645 0.87591 0.0
C1315 C 0.39384 0.33906 0.8767 0.0
C1316 C 0.39567 0.31563 0.87448 0.0
C1317 C 0.41627 0.30933 0.8716 0.0
C1318 C 0.4351 0.32645 0.871 0.0
C1319 C 0.43336 0.34992 0.87319 0.0
C1320 C 0.4471 0.45227 0.95491 0.0
C1321 C 0.46915 0.45855 0.94842 0.0
C1322 C 0.43173 0.43884 0.93908 0.0
C1323 C 0.43842 0.43106 0.91699 0.0
C1324 C 0.46056 0.4367 0.91102 0.0
C1325 C 0.47568 0.45057 0.92637 0.0
C1326 C 0.4225 0.41773 0.89934 0.0
C1327 C 0.42395 0.39428 0.89617 0.0
C1328 C 0.40714 0.42848 0.88439 0.0
C1329 C 0.4057 0.45351 0.88633 0.0
C1330 C 0.42393 0.47083 0.88124 0.0
C1331 C 0.42264 0.4944 0.8835 0.0
C1332 C 0.40313 0.50087 0.89057 0.0
C1333 C 0.38485 0.48379 0.89539 0.0
C1334 C 0.38607 0.46017 0.89321 0.0
H1335 H 0.40219 0.51913 0.8922 0.0
H1336 H 0.41765 0.29118 0.86988 0.0
H1337 H 0.63051 0.38214 0.76496 0.0
H1338 H 0.61478 0.40329 0.79554 0.0
H1339 H 0.67321 0.40331 0.84333 0.0
H1340 H 0.68892 0.38176 0.81295 0.0
H1341 H 0.63564 0.39238 0.86911 0.0
H1342 H 0.66555 0.45109 0.81019 0.0
H1343 H 0.67166 0.46935 0.76848 0.0
H1344 H 0.60316 0.47547 0.75914 0.0
H1345 H 0.59643 0.45641 0.80043 0.0
H1346 H 0.59537 0.46934 0.94879 0.0
H1347 H 0.62022 0.45456 0.92173 0.0
H1348 H 0.57011 0.45028 0.86241 0.0
H1349 H 0.54556 0.46515 0.88893 0.0
H1350 H 0.60947 0.46698 0.84491 0.0
H1351 H 0.57876 0.40207 0.89964 0.0
H1352 H 0.57164 0.38206 0.94046 0.0
H1353 H 0.64128 0.38813 0.95725 0.0
H1354 H 0.64879 0.40844 0.91662 0.0
C1355 C 0.63994 0.38643 0.78207 0.0
C1356 C 0.661 0.38028 0.78646 0.0
C1357 C 0.63101 0.39872 0.79946 0.0
C1358 C 0.64293 0.40517 0.82162 0.0
C1359 C 0.66376 0.39864 0.82631 0.0
C1360 C 0.67277 0.38645 0.80886 0.0
C1361 C 0.63352 0.41864 0.83984 0.0
C1362 C 0.63027 0.40891 0.86394 0.0
C1363 C 0.62637 0.44014 0.83308 0.0
C1364 C 0.63043 0.45201 0.80835 0.0
C1365 C 0.65172 0.45604 0.79914 0.0
C1366 C 0.65528 0.46647 0.77552 0.0
C1367 C 0.63779 0.47344 0.76111 0.0
C1368 C 0.61668 0.46998 0.77029 0.0
C1369 C 0.61297 0.45929 0.79378 0.0
C1370 C 0.58974 0.46534 0.92994 0.0
C1371 C 0.56836 0.46812 0.92117 0.0
C1372 C 0.60392 0.45686 0.91451 0.0
C1373 C 0.59694 0.45103 0.89008 0.0
C1374 C 0.5759 0.4546 0.88114 0.0
C1375 C 0.56179 0.46297 0.89647 0.0
C1376 C 0.61089 0.4403 0.87385 0.0
C1377 C 0.6151 0.45061 0.85015 0.0
C1378 C 0.61884 0.4193 0.88091 0.0
C1379 C 0.61433 0.40701 0.90525 0.0
C1380 C 0.59254 0.39928 0.91212 0.0
C1381 C 0.58844 0.38787 0.9352 0.0
C1382 C 0.606 0.38389 0.95148 0.0
C1383 C 0.6277 0.39127 0.94466 0.0
C1384 C 0.63189 0.40272 0.9216 0.0
H1385 H 0.60279 0.37505 0.96934 0.0
H1386 H 0.64062 0.48167 0.74289 0.0
H1387 H 0.68698 0.6119 0.77819 0.0
H1388 H 0.66745 0.58772 0.81102 0.0
H1389 H 0.6081 0.57808 0.76374 0.0
H1390 H 0.62746 0.60283 0.73118 0.0
H1391 H 0.59924 0.59107 0.80595 0.0
H1392 H 0.63847 0.53423 0.78013 0.0
H1393 H 0.67067 0.51792 0.76857 0.0
H1394 H 0.69815 0.52371 0.84308 0.0
H1395 H 0.66675 0.54138 0.85483 0.0
H1396 H 0.54138 0.51937 0.89794 0.0
H1397 H 0.56068 0.52709 0.85941 0.0
H1398 H 0.62001 0.55652 0.90029 0.0
H1399 H 0.60084 0.54885 0.9391 0.0
H1400 H 0.62606 0.52797 0.8584 0.0
H1401 H 0.5895 0.59242 0.87948 0.0
H1402 H 0.55698 0.60888 0.89009 0.0
H1403 H 0.5231 0.58514 0.82229 0.0
H1404 H 0.55534 0.56821 0.81147 0.0
C1405 C 0.66987 0.60426 0.77472 0.0
C1406 C 0.65864 0.60929 0.7523 0.0
C1407 C 0.65875 0.59037 0.79341 0.0
C1408 C 0.63634 0.58091 0.78978 0.0
C1409 C 0.62536 0.58522 0.76698 0.0
C1410 C 0.63639 0.59937 0.74844 0.0
C1411 C 0.62384 0.56855 0.81056 0.0
C1412 C 0.60492 0.57692 0.81702 0.0
C1413 C 0.63135 0.55024 0.82526 0.0
C1414 C 0.65026 0.53941 0.81832 0.0
C1415 C 0.65149 0.53236 0.79401 0.0
C1416 C 0.66964 0.52288 0.78741 0.0
C1417 C 0.68639 0.51967 0.8051 0.0
C1418 C 0.68514 0.52618 0.82939 0.0
C1419 C 0.66722 0.53607 0.83601 0.0
C1420 C 0.55862 0.5272 0.89883 0.0
C1421 C 0.56952 0.53388 0.92151 0.0
C1422 C 0.56961 0.53148 0.8768 0.0
C1423 C 0.59166 0.54249 0.8771 0.0
C1424 C 0.60298 0.54794 0.8998 0.0
C1425 C 0.59196 0.54378 0.92187 0.0
C1426 C 0.60204 0.55096 0.8537 0.0
C1427 C 0.62042 0.54186 0.84688 0.0
C1428 C 0.59398 0.56843 0.83841 0.0
C1429 C 0.57471 0.57882 0.84482 0.0
C1430 C 0.57505 0.59054 0.86694 0.0
C1431 C 0.55668 0.59998 0.87298 0.0
C1432 C 0.53795 0.59799 0.85691 0.0
C1433 C 0.53759 0.58662 0.83474 0.0
C1434 C 0.55591 0.57711 0.82865 0.0
H1435 H 0.52375 0.60531 0.86161 0.0
H1436 H 0.70033 0.51214 0.79997 0.0
H1437 H 0.61217 0.64176 0.22941 0.0
H1438 H 0.59203 0.61741 0.1973 0.0
H1439 H 0.64692 0.63547 0.14996 0.0
H1440 H 0.66725 0.65985 0.18213 0.0
H1441 H 0.60413 0.63704 0.12545 0.0
H1442 H 0.64182 0.58504 0.1772 0.0
H1443 H 0.65319 0.56653 0.21682 0.0
H1444 H 0.58551 0.53966 0.23074 0.0
H1445 H 0.5737 0.55832 0.19137 0.0
H1446 H 0.55644 0.54951 0.04039 0.0
H1447 H 0.58235 0.5747 0.06751 0.0
H1448 H 0.54234 0.55064 0.12973 0.0
H1449 H 0.51738 0.52481 0.1033 0.0
H1450 H 0.58192 0.55227 0.14462 0.0
H1451 H 0.54332 0.60647 0.09639 0.0
H1452 H 0.53036 0.62582 0.05799 0.0
H1453 H 0.59734 0.64923 0.03849 0.0
H1454 H 0.61068 0.62976 0.07666 0.0
C1455 C 0.61988 0.64074 0.21208 0.0
C1456 C 0.64132 0.65271 0.20832 0.0
C1457 C 0.6084 0.62673 0.1938 0.0
C1458 C 0.61804 0.62452 0.1713 0.0
C1459 C 0.63921 0.63691 0.1672 0.0
C1460 C 0.65083 0.6507 0.18563 0.0
C1461 C 0.60609 0.6088 0.15243 0.0
C1462 C 0.59955 0.61842 0.12941 0.0
C1463 C 0.5998 0.58461 0.1578 0.0
C1464 C 0.60687 0.57327 0.18143 0.0
C1465 C 0.62935 0.57536 0.18881 0.0
C1466 C 0.63588 0.5648 0.2112 0.0
C1467 C 0.62008 0.55197 0.22631 0.0
C1468 C 0.59773 0.54962 0.21903 0.0
C1469 C 0.59111 0.56017 0.19666 0.0
C1470 C 0.55325 0.54963 0.05986 0.0
C1471 C 0.53475 0.53522 0.06959 0.0
C1472 C 0.56799 0.56415 0.07535 0.0
C1473 C 0.5642 0.56495 0.10072 0.0
C1474 C 0.54576 0.55045 0.11032 0.0
C1475 C 0.53136 0.5357 0.09505 0.0
C1476 C 0.57932 0.58049 0.11764 0.0
C1477 C 0.58658 0.57082 0.14038 0.0
C1478 C 0.58598 0.60468 0.11211 0.0
C1479 C 0.57799 0.61644 0.08922 0.0
C1480 C 0.55527 0.6156 0.08382 0.0
C1481 C 0.54786 0.62661 0.06211 0.0
C1482 C 0.56302 0.63869 0.04577 0.0
C1483 C 0.58562 0.63984 0.05114 0.0
C1484 C 0.59312 0.62883 0.07281 0.0
H1485 H 0.55725 0.6472 0.02897 0.0
H1486 H 0.62517 0.54381 0.24364 0.0
H1487 H 0.39007 0.65217 0.23383 0.0
H1488 H 0.4058 0.63099 0.20331 0.0
H1489 H 0.34057 0.59886 0.17868 0.0
H1490 H 0.32458 0.62056 0.20846 0.0
H1491 H 0.37065 0.56713 0.18963 0.0
H1492 H 0.36754 0.63965 0.14244 0.0
H1493 H 0.37509 0.68247 0.13577 0.0
H1494 H 0.44467 0.68159 0.14447 0.0
H1495 H 0.43753 0.63879 0.15153 0.0
H1496 H 0.40902 0.51731 0.08189 0.0
H1497 H 0.38801 0.53757 0.10891 0.0
H1498 H 0.4488 0.57656 0.13835 0.0
H1499 H 0.46965 0.55637 0.11209 0.0
H1500 H 0.4181 0.6046 0.1228 0.0
H1501 H 0.42502 0.5371 0.17257 0.0
H1502 H 0.42229 0.497 0.1905 0.0
H1503 H 0.35169 0.48924 0.18572 0.0
H1504 H 0.35393 0.52915 0.16699 0.0
C1505 C 0.37899 0.64097 0.22164 0.0
C1506 C 0.356 0.63809 0.22378 0.0
C1507 C 0.38804 0.62877 0.20426 0.0
C1508 C 0.37434 0.61339 0.18868 0.0
C1509 C 0.35144 0.61058 0.19058 0.0
C1510 C 0.34235 0.62292 0.20777 0.0
C1511 C 0.38395 0.59958 0.17106 0.0
C1512 C 0.38055 0.57518 0.17454 0.0
C1513 C 0.39768 0.61031 0.1522 0.0
C1514 C 0.40198 0.63602 0.14769 0.0
C1515 C 0.38445 0.6486 0.1431 0.0
C1516 C 0.38866 0.67287 0.13922 0.0
C1517 C 0.41035 0.68475 0.13974 0.0
C1518 C 0.42788 0.67237 0.14408 0.0
C1519 C 0.42376 0.6481 0.14799 0.0
C1520 C 0.4178 0.53026 0.0941 0.0
C1521 C 0.44095 0.5354 0.09475 0.0
C1522 C 0.40583 0.54164 0.10964 0.0
C1523 C 0.41687 0.55856 0.12564 0.0
C1524 C 0.43994 0.56362 0.12616 0.0
C1525 C 0.45183 0.55203 0.11112 0.0
C1526 C 0.4047 0.57193 0.1412 0.0
C1527 C 0.4077 0.59634 0.1374 0.0
C1528 C 0.39115 0.5612 0.16028 0.0
C1529 C 0.38965 0.53609 0.16794 0.0
C1530 C 0.40889 0.52666 0.17457 0.0
C1531 C 0.40743 0.50401 0.1851 0.0
C1532 C 0.38685 0.49069 0.18941 0.0
C1533 C 0.36763 0.49969 0.18253 0.0
C1534 C 0.36898 0.52226 0.17177 0.0
H1535 H 0.38581 0.47344 0.19823 0.0
H1536 H 0.41357 0.70354 0.13674 0.0
H1537 H 0.60745 0.3569 0.21822 0.0
H1538 H 0.5862 0.3721 0.18357 0.0
H1539 H 0.64614 0.40898 0.15318 0.0
H1540 H 0.66771 0.39344 0.18775 0.0
H1541 H 0.61251 0.43584 0.15133 0.0
H1542 H 0.62209 0.36027 0.12763 0.0
H1543 H 0.62146 0.3178 0.13316 0.0
H1544 H 0.55157 0.30716 0.14176 0.0
H1545 H 0.55182 0.34962 0.13665 0.0
H1546 H 0.55351 0.46428 0.0406 0.0
H1547 H 0.58081 0.4482 0.06786 0.0
H1548 H 0.52864 0.40176 0.10369 0.0
H1549 H 0.50134 0.41719 0.07612 0.0
H1550 H 0.56228 0.38006 0.09941 0.0
H1551 H 0.5532 0.4555 0.12752 0.0
H1552 H 0.55336 0.49794 0.12242 0.0
H1553 H 0.62182 0.50886 0.10603 0.0
H1554 H 0.622 0.46643 0.11077 0.0
C1555 C 0.6162 0.36807 0.20409 0.0
C1556 C 0.63935 0.37367 0.20563 0.0
C1557 C 0.60399 0.37682 0.18432 0.0
C1558 C 0.6146 0.39138 0.16558 0.0
C1559 C 0.63763 0.3977 0.16741 0.0
C1560 C 0.64992 0.38887 0.18722 0.0
C1561 C 0.60146 0.39962 0.14404 0.0
C1562 C 0.60182 0.42369 0.13967 0.0
C1563 C 0.58727 0.38373 0.12906 0.0
C1564 C 0.58701 0.35815 0.13193 0.0
C1565 C 0.60661 0.34889 0.13087 0.0
C1566 C 0.60632 0.32482 0.13391 0.0
C1567 C 0.5865 0.30979 0.13785 0.0
C1568 C 0.56691 0.31882 0.13871 0.0
C1569 C 0.56712 0.34289 0.13572 0.0
C1570 C 0.54785 0.45036 0.054 0.0
C1571 C 0.52518 0.44219 0.05627 0.0
C1572 C 0.56349 0.4413 0.0697 0.0
C1573 C 0.55677 0.42414 0.08824 0.0
C1574 C 0.53425 0.41507 0.08964 0.0
C1575 C 0.51863 0.42394 0.07381 0.0
C1576 C 0.57292 0.4163 0.10699 0.0
C1577 C 0.57314 0.39227 0.11085 0.0
C1578 C 0.58755 0.43224 0.12157 0.0
C1579 C 0.58755 0.45778 0.11923 0.0
C1580 C 0.56825 0.46694 0.1227 0.0
C1581 C 0.56828 0.491 0.11988 0.0
C1582 C 0.58756 0.50607 0.11378 0.0
C1583 C 0.60689 0.49714 0.11068 0.0
C1584 C 0.60694 0.47311 0.11346 0.0
H1585 H 0.58757 0.52465 0.11148 0.0
H1586 H 0.5863 0.29116 0.14021 0.0
loop_
_geom_bond_atom_site_label_1
_geom_bond_atom_site_label_2
_geom_bond_distance
_geom_bond_site_symmetry_2
_ccdc_geom_bond_type
C0 C1 1.384 . S
C0 H13 0.947 . S
C0 C35 1.382 . S
C1 C0 1.384 . S
C1 C2 1.378 . S
C2 C1 1.378 . S
C2 C3 1.378 . S
C2 H14 0.952 . S
C3 C2 1.378 . S
C3 H15 0.950 . S
C3 C34 1.383 . S
H4 C23 0.947 . S
H5 C24 0.946 . S
H6 C26 0.953 . S
H7 C27 0.945 . S
H8 C29 0.952 . S
H9 C30 0.949 . S
H10 C32 0.950 . S
H11 C33 0.948 . S
H12 C35 0.951 . S
H13 C0 0.947 . S
H14 C2 0.952 . S
H15 C3 0.950 . S
N16 C19 1.382 . S
N16 C21 1.363 . S
N17 C19 1.371 . S
N17 C20 1.372 . S
N18 C20 1.361 . S
N18 C21 1.377 . S
C19 N16 1.382 . S
C19 N17 1.371 . S
C19 C22 1.480 . S
C20 N17 1.372 . S
C20 N18 1.361 . S
C20 C28 1.457 . S
C21 N16 1.363 . S
C21 N18 1.377 . S
C21 C34 1.479 . S
C22 C19 1.480 . S
C22 C23 1.383 . S
C22 C27 1.385 . S
C23 H4 0.947 . S
C23 C22 1.383 . S
C23 C24 1.388 . S
C24 H5 0.946 . S
C24 C23 1.388 . S
C24 C25 1.384 . S
C25 C24 1.384 . S
C25 C26 1.377 . S
C26 H6 0.953 . S
C26 C25 1.377 . S
C26 C27 1.369 . S
C27 H7 0.945 . S
C27 C22 1.385 . S
C27 C26 1.369 . S
C28 C20 1.457 . S
C28 C29 1.372 . S
C28 C33 1.364 . S
C29 H8 0.952 . S
C29 C28 1.372 . S
C29 C30 1.389 . S
C30 H9 0.949 . S
C30 C29 1.389 . S
C30 C31 1.387 . S
C31 C30 1.387 . S
C31 C32 1.372 . S
C32 H10 0.950 . S
C32 C31 1.372 . S
C32 C33 1.379 . S
C33 H11 0.948 . S
C33 C28 1.364 . S
C33 C32 1.379 . S
C34 C3 1.383 . S
C34 C21 1.479 . S
C34 C35 1.398 . S
C35 C0 1.382 . S
C35 H12 0.951 . S
C35 C34 1.398 . S
C36 C37 1.384 . S
C36 H49 0.947 . S
C36 C71 1.382 . S
C37 C36 1.384 . S
C37 C38 1.378 . S
C38 C37 1.378 . S
C38 C39 1.378 . S
C38 H50 0.952 . S
C39 C38 1.378 . S
C39 H51 0.950 . S
C39 C70 1.383 . S
H40 C59 0.947 . S
H41 C60 0.946 . S
H42 C62 0.953 . S
H43 C63 0.945 . S
H44 C65 0.952 . S
H45 C66 0.949 . S
H46 C68 0.950 . S
H47 C69 0.948 . S
H48 C71 0.951 . S
H49 C36 0.947 . S
H50 C38 0.952 . S
H51 C39 0.950 . S
N52 C55 1.382 . S
N52 C57 1.363 . S
N53 C55 1.371 . S
N53 C56 1.372 . S
N54 C56 1.361 . S
N54 C57 1.377 . S
C55 N52 1.382 . S
C55 N53 1.371 . S
C55 C58 1.480 . S
C56 N53 1.372 . S
C56 N54 1.361 . S
C56 C64 1.457 . S
C57 N52 1.363 . S
C57 N54 1.377 . S
C57 C70 1.479 . S
C58 C55 1.480 . S
C58 C59 1.383 . S
C58 C63 1.385 . S
C59 H40 0.947 . S
C59 C58 1.383 . S
C59 C60 1.388 . S
C60 H41 0.946 . S
C60 C59 1.388 . S
C60 C61 1.384 . S
C61 C60 1.384 . S
C61 C62 1.377 . S
C62 H42 0.953 . S
C62 C61 1.377 . S
C62 C63 1.369 . S
C63 H43 0.945 . S
C63 C58 1.385 . S
C63 C62 1.369 . S
C64 C56 1.457 . S
C64 C65 1.372 . S
C64 C69 1.364 . S
C65 H44 0.952 . S
C65 C64 1.372 . S
C65 C66 1.389 . S
C66 H45 0.949 . S
C66 C65 1.389 . S
C66 C67 1.387 . S
C67 C66 1.387 . S
C67 C68 1.372 . S
C68 H46 0.950 . S
C68 C67 1.372 . S
C68 C69 1.379 . S
C69 H47 0.948 . S
C69 C64 1.364 . S
C69 C68 1.379 . S
C70 C39 1.383 . S
C70 C57 1.479 . S
C70 C71 1.398 . S
C71 C36 1.382 . S
C71 H48 0.951 . S
C71 C70 1.398 . S
C72 C73 1.384 . S
C72 H85 0.947 . S
C72 C107 1.382 . S
C73 C72 1.384 . S
C73 C74 1.378 . S
C74 C73 1.378 . S
C74 C75 1.378 . S
C74 H86 0.952 . S
C75 C74 1.378 . S
C75 H87 0.950 . S
C75 C106 1.383 . S
H76 C95 0.947 . S
H77 C96 0.946 . S
H78 C98 0.953 . S
H79 C99 0.945 . S
H80 C101 0.952 . S
H81 C102 0.949 . S
H82 C104 0.950 . S
H83 C105 0.948 . S
H84 C107 0.951 . S
H85 C72 0.947 . S
H86 C74 0.952 . S
H87 C75 0.950 . S
N88 C91 1.382 . S
N88 C93 1.363 . S
N89 C91 1.371 . S
N89 C92 1.372 . S
N90 C92 1.361 . S
N90 C93 1.377 . S
C91 N88 1.382 . S
C91 N89 1.371 . S
C91 C94 1.480 . S
C92 N89 1.372 . S
C92 N90 1.361 . S
C92 C100 1.457 . S
C93 N88 1.363 . S
C93 N90 1.377 . S
C93 C106 1.479 . S
C94 C91 1.480 . S
C94 C95 1.383 . S
C94 C99 1.385 . S
C95 H76 0.947 . S
C95 C94 1.383 . S
C95 C96 1.388 . S
C96 H77 0.946 . S
C96 C95 1.388 . S
C96 C97 1.384 . S
C97 C96 1.384 . S
C97 C98 1.377 . S
C98 H78 0.953 . S
C98 C97 1.377 . S
C98 C99 1.369 . S
C99 H79 0.945 . S
C99 C94 1.385 . S
C99 C98 1.369 . S
C100 C92 1.457 . S
C100 C101 1.372 . S
C100 C105 1.364 . S
C101 H80 0.952 . S
C101 C100 1.372 . S
C101 C102 1.389 . S
C102 H81 0.949 . S
C102 C101 1.389 . S
C102 C103 1.387 . S
C103 C102 1.387 . S
C103 C104 1.372 . S
C104 H82 0.950 . S
C104 C103 1.372 . S
C104 C105 1.379 . S
C105 H83 0.948 . S
C105 C100 1.364 . S
C105 C104 1.379 . S
C106 C75 1.383 . S
C106 C93 1.479 . S
C106 C107 1.398 . S
C107 C72 1.382 . S
C107 H84 0.951 . S
C107 C106 1.398 . S
C108 C109 1.384 . S
C108 H121 0.947 . S
C108 C143 1.382 . S
C109 C108 1.384 . S
C109 C110 1.378 . S
C110 C109 1.378 . S
C110 C111 1.378 . S
C110 H122 0.952 . S
C111 C110 1.378 . S
C111 H123 0.950 . S
C111 C142 1.383 . S
H112 C131 0.947 . S
H113 C132 0.946 . S
H114 C134 0.953 . S
H115 C135 0.945 . S
H116 C137 0.952 . S
H117 C138 0.949 . S
H118 C140 0.950 . S
H119 C141 0.948 . S
H120 C143 0.951 . S
H121 C108 0.947 . S
H122 C110 0.952 . S
H123 C111 0.950 . S
N124 C127 1.382 . S
N124 C129 1.363 . S
N125 C127 1.371 . S
N125 C128 1.372 . S
N126 C128 1.361 . S
N126 C129 1.377 . S
C127 N124 1.382 . S
C127 N125 1.371 . S
C127 C130 1.480 . S
C128 N125 1.372 . S
C128 N126 1.361 . S
C128 C136 1.457 . S
C129 N124 1.363 . S
C129 N126 1.377 . S
C129 C142 1.479 . S
C130 C127 1.480 . S
C130 C131 1.383 . S
C130 C135 1.385 . S
C131 H112 0.947 . S
C131 C130 1.383 . S
C131 C132 1.388 . S
C132 H113 0.946 . S
C132 C131 1.388 . S
C132 C133 1.384 . S
C133 C132 1.384 . S
C133 C134 1.377 . S
C134 H114 0.953 . S
C134 C133 1.377 . S
C134 C135 1.369 . S
C135 H115 0.945 . S
C135 C130 1.385 . S
C135 C134 1.369 . S
C136 C128 1.457 . S
C136 C137 1.372 . S
C136 C141 1.364 . S
C137 H116 0.952 . S
C137 C136 1.372 . S
C137 C138 1.389 . S
C138 H117 0.949 . S
C138 C137 1.389 . S
C138 C139 1.387 . S
C139 C138 1.387 . S
C139 C140 1.372 . S
C140 H118 0.950 . S
C140 C139 1.372 . S
C140 C141 1.379 . S
C141 H119 0.948 . S
C141 C136 1.364 . S
C141 C140 1.379 . S
C142 C111 1.383 . S
C142 C129 1.479 . S
C142 C143 1.398 . S
C143 C108 1.382 . S
C143 H120 0.951 . S
C143 C142 1.398 . S
C144 C145 1.384 . S
C144 H157 0.947 . S
C144 C179 1.382 . S
C145 C144 1.384 . S
C145 C146 1.378 . S
C146 C145 1.378 . S
C146 C147 1.378 . S
C146 H158 0.952 . S
C147 C146 1.378 . S
C147 H159 0.950 . S
C147 C178 1.383 . S
H148 C167 0.947 . S
H149 C168 0.946 . S
H150 C170 0.953 . S
H151 C171 0.945 . S
H152 C173 0.952 . S
H153 C174 0.949 . S
H154 C176 0.950 . S
H155 C177 0.948 . S
H156 C179 0.951 . S
H157 C144 0.947 . S
H158 C146 0.952 . S
H159 C147 0.950 . S
N160 C163 1.382 . S
N160 C165 1.363 . S
N161 C163 1.371 . S
N161 C164 1.372 . S
N162 C164 1.361 . S
N162 C165 1.377 . S
C163 N160 1.382 . S
C163 N161 1.371 . S
C163 C166 1.480 . S
C164 N161 1.372 . S
C164 N162 1.361 . S
C164 C172 1.457 . S
C165 N160 1.363 . S
C165 N162 1.377 . S
C165 C178 1.479 . S
C166 C163 1.480 . S
C166 C167 1.383 . S
C166 C171 1.385 . S
C167 H148 0.947 . S
C167 C166 1.383 . S
C167 C168 1.388 . S
C168 H149 0.946 . S
C168 C167 1.388 . S
C168 C169 1.384 . S
C169 C168 1.384 . S
C169 C170 1.377 . S
C170 H150 0.953 . S
C170 C169 1.377 . S
C170 C171 1.369 . S
C171 H151 0.945 . S
C171 C166 1.385 . S
C171 C170 1.369 . S
C172 C164 1.457 . S
C172 C173 1.372 . S
C172 C177 1.364 . S
C173 H152 0.952 . S
C173 C172 1.372 . S
C173 C174 1.389 . S
C174 H153 0.949 . S
C174 C173 1.389 . S
C174 C175 1.387 . S
C175 C174 1.387 . S
C175 C176 1.372 . S
C176 H154 0.950 . S
C176 C175 1.372 . S
C176 C177 1.379 . S
C177 H155 0.948 . S
C177 C172 1.364 . S
C177 C176 1.379 . S
C178 C147 1.383 . S
C178 C165 1.479 . S
C178 C179 1.398 . S
C179 C144 1.382 . S
C179 H156 0.951 . S
C179 C178 1.398 . S
C180 C181 1.384 . S
C180 H193 0.947 . S
C180 C215 1.382 . S
C181 C180 1.384 . S
C181 C182 1.378 . S
C182 C181 1.378 . S
C182 C183 1.378 . S
C182 H194 0.952 . S
C183 C182 1.378 . S
C183 H195 0.950 . S
C183 C214 1.383 . S
H184 C203 0.947 . S
H185 C204 0.946 . S
H186 C206 0.953 . S
H187 C207 0.945 . S
H188 C209 0.952 . S
H189 C210 0.949 . S
H190 C212 0.950 . S
H191 C213 0.948 . S
H192 C215 0.951 . S
H193 C180 0.947 . S
H194 C182 0.952 . S
H195 C183 0.950 . S
N196 C199 1.382 . S
N196 C201 1.363 . S
N197 C199 1.371 . S
N197 C200 1.372 . S
N198 C200 1.361 . S
N198 C201 1.377 . S
C199 N196 1.382 . S
C199 N197 1.371 . S
C199 C202 1.480 . S
C200 N197 1.372 . S
C200 N198 1.361 . S
C200 C208 1.457 . S
C201 N196 1.363 . S
C201 N198 1.377 . S
C201 C214 1.479 . S
C202 C199 1.480 . S
C202 C203 1.383 . S
C202 C207 1.385 . S
C203 H184 0.947 . S
C203 C202 1.383 . S
C203 C204 1.388 . S
C204 H185 0.946 . S
C204 C203 1.388 . S
C204 C205 1.384 . S
C205 C204 1.384 . S
C205 C206 1.377 . S
C206 H186 0.953 . S
C206 C205 1.377 . S
C206 C207 1.369 . S
C207 H187 0.945 . S
C207 C202 1.385 . S
C207 C206 1.369 . S
C208 C200 1.457 . S
C208 C209 1.372 . S
C208 C213 1.364 . S
C209 H188 0.952 . S
C209 C208 1.372 . S
C209 C210 1.389 . S
C210 H189 0.949 . S
C210 C209 1.389 . S
C210 C211 1.387 . S
C211 C210 1.387 . S
C211 C212 1.372 . S
C212 H190 0.950 . S
C212 C211 1.372 . S
C212 C213 1.379 . S
C213 H191 0.948 . S
C213 C208 1.364 . S
C213 C212 1.379 . S
C214 C183 1.383 . S
C214 C201 1.479 . S
C214 C215 1.398 . S
C215 C180 1.382 . S
C215 H192 0.951 . S
C215 C214 1.398 . S
C216 C217 1.384 . S
C216 H229 0.947 . S
C216 C251 1.382 . S
C217 C216 1.384 . S
C217 C218 1.378 . S
C218 C217 1.378 . S
C218 C219 1.378 . S
C218 H230 0.952 . S
C219 C218 1.378 . S
C219 H231 0.950 . S
C219 C250 1.383 . S
H220 C239 0.947 . S
H221 C240 0.946 . S
H222 C242 0.953 . S
H223 C243 0.945 . S
H224 C245 0.952 . S
H225 C246 0.949 . S
H226 C248 0.950 . S
H227 C249 0.948 . S
H228 C251 0.951 . S
H229 C216 0.947 . S
H230 C218 0.952 . S
H231 C219 0.950 . S
N232 C235 1.382 . S
N232 C237 1.363 . S
N233 C235 1.371 . S
N233 C236 1.372 . S
N234 C236 1.361 . S
N234 C237 1.377 . S
C235 N232 1.382 . S
C235 N233 1.371 . S
C235 C238 1.480 . S
C236 N233 1.372 . S
C236 N234 1.361 . S
C236 C244 1.457 . S
C237 N232 1.363 . S
C237 N234 1.377 . S
C237 C250 1.479 . S
C238 C235 1.480 . S
C238 C239 1.383 . S
C238 C243 1.385 . S
C239 H220 0.947 . S
C239 C238 1.383 . S
C239 C240 1.388 . S
C240 H221 0.946 . S
C240 C239 1.388 . S
C240 C241 1.384 . S
C241 C240 1.384 . S
C241 C242 1.377 . S
C242 H222 0.953 . S
C242 C241 1.377 . S
C242 C243 1.369 . S
C243 H223 0.945 . S
C243 C238 1.385 . S
C243 C242 1.369 . S
C244 C236 1.457 . S
C244 C245 1.372 . S
C244 C249 1.364 . S
C245 H224 0.952 . S
C245 C244 1.372 . S
C245 C246 1.389 . S
C246 H225 0.949 . S
C246 C245 1.389 . S
C246 C247 1.387 . S
C247 C246 1.387 . S
C247 C248 1.372 . S
C248 H226 0.950 . S
C248 C247 1.372 . S
C248 C249 1.379 . S
C249 H227 0.948 . S
C249 C244 1.364 . S
C249 C248 1.379 . S
C250 C219 1.383 . S
C250 C237 1.479 . S
C250 C251 1.398 . S
C251 C216 1.382 . S
C251 H228 0.951 . S
C251 C250 1.398 . S
C252 C253 1.384 . S
C252 H265 0.947 . S
C252 C287 1.382 . S
C253 C252 1.384 . S
C253 C254 1.378 . S
C254 C253 1.378 . S
C254 C255 1.378 . S
C254 H266 0.952 . S
C255 C254 1.378 . S
C255 H267 0.950 . S
C255 C286 1.383 . S
H256 C275 0.947 . S
H257 C276 0.946 . S
H258 C278 0.953 . S
H259 C279 0.945 . S
H260 C281 0.952 . S
H261 C282 0.949 . S
H262 C284 0.950 . S
H263 C285 0.948 . S
H264 C287 0.951 . S
H265 C252 0.947 . S
H266 C254 0.952 . S
H267 C255 0.950 . S
N268 C271 1.382 . S
N268 C273 1.363 . S
N269 C271 1.371 . S
N269 C272 1.372 . S
N270 C272 1.361 . S
N270 C273 1.377 . S
C271 N268 1.382 . S
C271 N269 1.371 . S
C271 C274 1.480 . S
C272 N269 1.372 . S
C272 N270 1.361 . S
C272 C280 1.457 . S
C273 N268 1.363 . S
C273 N270 1.377 . S
C273 C286 1.479 . S
C274 C271 1.480 . S
C274 C275 1.383 . S
C274 C279 1.385 . S
C275 H256 0.947 . S
C275 C274 1.383 . S
C275 C276 1.388 . S
C276 H257 0.946 . S
C276 C275 1.388 . S
C276 C277 1.384 . S
C277 C276 1.384 . S
C277 C278 1.377 . S
C278 H258 0.953 . S
C278 C277 1.377 . S
C278 C279 1.369 . S
C279 H259 0.945 . S
C279 C274 1.385 . S
C279 C278 1.369 . S
C280 C272 1.457 . S
C280 C281 1.372 . S
C280 C285 1.364 . S
C281 H260 0.952 . S
C281 C280 1.372 . S
C281 C282 1.389 . S
C282 H261 0.949 . S
C282 C281 1.389 . S
C282 C283 1.387 . S
C283 C282 1.387 . S
C283 C284 1.372 . S
C284 H262 0.950 . S
C284 C283 1.372 . S
C284 C285 1.379 . S
C285 H263 0.948 . S
C285 C280 1.364 . S
C285 C284 1.379 . S
C286 C255 1.383 . S
C286 C273 1.479 . S
C286 C287 1.398 . S
C287 C252 1.382 . S
C287 H264 0.951 . S
C287 C286 1.398 . S
Co288 O291 2.042 . S
Co288 O298 2.264 . S
Co288 O317 2.286 . S
Co288 O318 2.069 . S
Co288 O320 2.015 . S
Co289 O291 2.122 . S
Co289 O297 2.073 . S
Co289 O298 2.327 . S
Co289 O299 1.976 . S
Co290 O291 2.087 . S
Co290 O293 2.087 1_455 S
Co290 O300 2.111 . S
Co290 O301 2.143 1_455 S
Co290 O305 2.111 1_455 S
Co290 O319 2.143 . S
O291 Co288 2.042 . S
O291 Co289 2.122 . S
O291 Co290 2.087 . S
O291 H292 0.980 . S
H292 O291 0.980 . S
O293 Co290 2.087 1_655 S
O293 Co294 2.042 . S
O293 Co295 2.122 . S
O293 H296 0.980 . S
Co294 O293 2.042 . S
Co294 O302 2.286 . S
Co294 O303 2.069 . S
Co294 O304 2.015 . S
Co294 O307 2.264 . S
Co295 O293 2.122 . S
Co295 O306 1.976 . S
Co295 O307 2.327 . S
Co295 O308 2.073 . S
H296 O293 0.980 . S
O297 Co289 2.073 . S
O297 C312 1.245 . S
O298 Co288 2.264 . S
O298 Co289 2.327 . S
O298 C312 1.257 . S
O299 Co289 1.976 . S
O299 C311 1.251 . S
O300 Co290 2.111 . S
O300 C311 1.274 . S
O301 Co290 2.143 1_655 S
O301 C314 1.246 . S
O302 Co294 2.286 . S
O302 C313 1.259 . S
O303 Co294 2.069 . S
O303 C313 1.289 . S
O304 Co294 2.015 . S
O304 C314 1.257 . S
O305 Co290 2.111 1_655 S
O305 C315 1.274 . S
O306 Co295 1.976 . S
O306 C315 1.251 . S
O307 Co294 2.264 . S
O307 Co295 2.327 . S
O307 C316 1.257 . S
O308 Co295 2.073 . S
O308 C316 1.245 . S
C309 O317 1.259 . S
C309 O318 1.289 . S
C310 O319 1.246 . S
C310 O320 1.257 . S
C311 O299 1.251 . S
C311 O300 1.274 . S
C312 O297 1.245 . S
C312 O298 1.257 . S
C313 O302 1.259 . S
C313 O303 1.289 . S
C314 O301 1.246 . S
C314 O304 1.257 . S
C315 O305 1.274 . S
C315 O306 1.251 . S
C316 O307 1.257 . S
C316 O308 1.245 . S
O317 Co288 2.286 . S
O317 C309 1.259 . S
O318 Co288 2.069 . S
O318 C309 1.289 . S
O319 Co290 2.143 . S
O319 C310 1.246 . S
O320 Co288 2.015 . S
O320 C310 1.257 . S
Co321 O324 2.042 . S
Co321 O331 2.264 . S
Co321 O350 2.286 . S
Co321 O351 2.069 . S
Co321 O353 2.015 . S
Co322 O324 2.122 . S
Co322 O330 2.073 . S
Co322 O331 2.327 . S
Co322 O332 1.976 . S
Co323 O324 2.087 1_545 S
Co323 O326 2.087 . S
Co323 O333 2.111 1_545 S
Co323 O334 2.143 . S
Co323 O338 2.111 . S
Co323 O352 2.143 1_545 S
O324 Co321 2.042 . S
O324 Co322 2.122 . S
O324 Co323 2.087 1_565 S
O324 H325 0.980 . S
H325 O324 0.980 . S
O326 Co323 2.087 . S
O326 Co327 2.042 . S
O326 Co328 2.122 . S
O326 H329 0.980 . S
Co327 O326 2.042 . S
Co327 O335 2.286 . S
Co327 O336 2.069 . S
Co327 O337 2.015 . S
Co327 O340 2.264 . S
Co328 O326 2.122 . S
Co328 O339 1.976 . S
Co328 O340 2.327 . S
Co328 O341 2.073 . S
H329 O326 0.980 . S
O330 Co322 2.073 . S
O330 C345 1.245 . S
O331 Co321 2.264 . S
O331 Co322 2.327 . S
O331 C345 1.257 . S
O332 Co322 1.976 . S
O332 C344 1.251 . S
O333 Co323 2.111 1_565 S
O333 C344 1.274 . S
O334 Co323 2.143 . S
O334 C347 1.246 . S
O335 Co327 2.286 . S
O335 C346 1.259 . S
O336 Co327 2.069 . S
O336 C346 1.289 . S
O337 Co327 2.015 . S
O337 C347 1.257 . S
O338 Co323 2.111 . S
O338 C348 1.274 . S
O339 Co328 1.976 . S
O339 C348 1.251 . S
O340 Co327 2.264 . S
O340 Co328 2.327 . S
O340 C349 1.257 . S
O341 Co328 2.073 . S
O341 C349 1.245 . S
C342 O350 1.259 . S
C342 O351 1.289 . S
C343 O352 1.246 . S
C343 O353 1.257 . S
C344 O332 1.251 . S
C344 O333 1.274 . S
C345 O330 1.245 . S
C345 O331 1.257 . S
C346 O335 1.259 . S
C346 O336 1.289 . S
C347 O334 1.246 . S
C347 O337 1.257 . S
C348 O338 1.274 . S
C348 O339 1.251 . S
C349 O340 1.257 . S
C349 O341 1.245 . S
O350 Co321 2.286 . S
O350 C342 1.259 . S
O351 Co321 2.069 . S
O351 C342 1.289 . S
O352 Co323 2.143 1_565 S
O352 C343 1.246 . S
O353 Co321 2.015 . S
O353 C343 1.257 . S
Co354 O357 2.042 . S
Co354 O364 2.264 . S
Co354 O383 2.286 . S
Co354 O384 2.069 . S
Co354 O386 2.015 . S
Co355 O357 2.122 . S
Co355 O363 2.073 . S
Co355 O364 2.327 . S
Co355 O365 1.976 . S
Co356 O357 2.087 . S
Co356 O359 2.087 1_554 S
Co356 O366 2.111 . S
Co356 O367 2.143 1_554 S
Co356 O371 2.111 1_554 S
Co356 O385 2.143 . S
O357 Co354 2.042 . S
O357 Co355 2.122 . S
O357 Co356 2.087 . S
O357 H358 0.980 . S
H358 O357 0.980 . S
O359 Co356 2.087 1_556 S
O359 Co360 2.042 . S
O359 Co361 2.122 . S
O359 H362 0.980 . S
Co360 O359 2.042 . S
Co360 O368 2.286 . S
Co360 O369 2.069 . S
Co360 O370 2.015 . S
Co360 O373 2.264 . S
Co361 O359 2.122 . S
Co361 O372 1.976 . S
Co361 O373 2.327 . S
Co361 O374 2.073 . S
H362 O359 0.980 . S
O363 Co355 2.073 . S
O363 C378 1.245 . S
O364 Co354 2.264 . S
O364 Co355 2.327 . S
O364 C378 1.257 . S
O365 Co355 1.976 . S
O365 C377 1.251 . S
O366 Co356 2.111 . S
O366 C377 1.274 . S
O367 Co356 2.143 1_556 S
O367 C380 1.246 . S
O368 Co360 2.286 . S
O368 C379 1.259 . S
O369 Co360 2.069 . S
O369 C379 1.289 . S
O370 Co360 2.015 . S
O370 C380 1.257 . S
O371 Co356 2.111 1_556 S
O371 C381 1.274 . S
O372 Co361 1.976 . S
O372 C381 1.251 . S
O373 Co360 2.264 . S
O373 Co361 2.327 . S
O373 C382 1.257 . S
O374 Co361 2.073 . S
O374 C382 1.245 . S
C375 O383 1.259 . S
C375 O384 1.289 . S
C376 O385 1.246 . S
C376 O386 1.257 . S
C377 O365 1.251 . S
C377 O366 1.274 . S
C378 O363 1.245 . S
C378 O364 1.257 . S
C379 O368 1.259 . S
C379 O369 1.289 . S
C380 O367 1.246 . S
C380 O370 1.257 . S
C381 O371 1.274 . S
C381 O372 1.251 . S
C382 O373 1.257 . S
C382 O374 1.245 . S
O383 Co354 2.286 . S
O383 C375 1.259 . S
O384 Co354 2.069 . S
O384 C375 1.289 . S
O385 Co356 2.143 . S
O385 C376 1.246 . S
O386 Co354 2.015 . S
O386 C376 1.257 . S
H387 C405 0.951 . S
H388 C407 0.951 . S
H389 C409 0.950 . S
H390 C410 0.950 . S
H391 C412 0.950 . S
H392 C415 0.950 . S
H393 C416 0.950 . S
H394 C418 0.950 . S
H395 C419 0.950 . S
H396 C420 0.951 . S
H397 C422 0.951 . S
H398 C424 0.950 . S
H399 C425 0.950 . S
H400 C427 0.950 . S
H401 C430 0.950 . S
H402 C431 0.950 . S
H403 C433 0.950 . S
H404 C434 0.950 . S
C405 H387 0.951 . S
C405 C406 1.366 . S
C405 C407 1.388 . S
C406 C405 1.366 . S
C406 C410 1.385 . S
C407 H388 0.951 . S
C407 C405 1.388 . S
C407 C408 1.366 . S
C408 C407 1.366 . S
C408 C409 1.414 . S
C408 C411 1.499 . S
C409 H389 0.950 . S
C409 C408 1.414 . S
C409 C410 1.374 . S
C410 H390 0.950 . S
C410 C406 1.385 . S
C410 C409 1.374 . S
C411 C408 1.499 . S
C411 C412 1.373 . S
C411 C413 1.389 . S
C412 H391 0.950 . S
C412 C411 1.373 . S
C412 C428 1.377 . S
C413 C411 1.389 . S
C413 C414 1.524 . S
C413 C427 1.377 . S
C414 C413 1.524 . S
C414 C415 1.397 . S
C414 C419 1.363 . S
C415 H392 0.950 . S
C415 C414 1.397 . S
C415 C416 1.334 . S
C416 H393 0.950 . S
C416 C415 1.334 . S
C416 C417 1.287 . S
C417 C416 1.287 . S
C417 C418 1.524 . S
C417 H436 0.913 . S
C418 H394 0.950 . S
C418 C417 1.524 . S
C418 C419 1.415 . S
C419 H395 0.950 . S
C419 C414 1.363 . S
C419 C418 1.415 . S
C420 H396 0.951 . S
C420 C421 1.366 . S
C420 C422 1.388 . S
C421 C420 1.366 . S
C421 C425 1.385 . S
C422 H397 0.951 . S
C422 C420 1.388 . S
C422 C423 1.366 . S
C423 C422 1.366 . S
C423 C424 1.414 . S
C423 C426 1.499 . S
C424 H398 0.950 . S
C424 C423 1.414 . S
C424 C425 1.374 . S
C425 H399 0.950 . S
C425 C421 1.385 . S
C425 C424 1.374 . S
C426 C423 1.499 . S
C426 C427 1.373 . S
C426 C428 1.389 . S
C427 H400 0.950 . S
C427 C413 1.377 . S
C427 C426 1.373 . S
C428 C412 1.377 . S
C428 C426 1.389 . S
C428 C429 1.524 . S
C429 C428 1.524 . S
C429 C430 1.397 . S
C429 C434 1.363 . S
C430 H401 0.950 . S
C430 C429 1.397 . S
C430 C431 1.334 . S
C431 H402 0.950 . S
C431 C430 1.334 . S
C431 C432 1.287 . S
C432 C431 1.287 . S
C432 C433 1.524 . S
C432 H435 0.999 . S
C433 H403 0.950 . S
C433 C432 1.524 . S
C433 C434 1.415 . S
C434 H404 0.950 . S
C434 C429 1.363 . S
C434 C433 1.415 . S
H435 C432 0.999 . S
H436 C417 0.913 . S
H437 C455 0.951 . S
H438 C457 0.951 . S
H439 C459 0.950 . S
H440 C460 0.950 . S
H441 C462 0.950 . S
H442 C465 0.950 . S
H443 C466 0.950 . S
H444 C468 0.950 . S
H445 C469 0.950 . S
H446 C470 0.951 . S
H447 C472 0.951 . S
H448 C474 0.950 . S
H449 C475 0.950 . S
H450 C477 0.950 . S
H451 C480 0.950 . S
H452 C481 0.950 . S
H453 C483 0.950 . S
H454 C484 0.950 . S
C455 H437 0.951 . S
C455 C456 1.366 . S
C455 C457 1.388 . S
C456 C455 1.366 . S
C456 C460 1.385 . S
C457 H438 0.951 . S
C457 C455 1.388 . S
C457 C458 1.366 . S
C458 C457 1.366 . S
C458 C459 1.414 . S
C458 C461 1.499 . S
C459 H439 0.950 . S
C459 C458 1.414 . S
C459 C460 1.374 . S
C460 H440 0.950 . S
C460 C456 1.385 . S
C460 C459 1.374 . S
C461 C458 1.499 . S
C461 C462 1.373 . S
C461 C463 1.389 . S
C462 H441 0.950 . S
C462 C461 1.373 . S
C462 C478 1.377 . S
C463 C461 1.389 . S
C463 C464 1.524 . S
C463 C477 1.377 . S
C464 C463 1.524 . S
C464 C465 1.397 . S
C464 C469 1.363 . S
C465 H442 0.950 . S
C465 C464 1.397 . S
C465 C466 1.334 . S
C466 H443 0.950 . S
C466 C465 1.334 . S
C466 C467 1.287 . S
C467 C466 1.287 . S
C467 C468 1.524 . S
C467 H486 0.913 . S
C468 H444 0.950 . S
C468 C467 1.524 . S
C468 C469 1.415 . S
C469 H445 0.950 . S
C469 C464 1.363 . S
C469 C468 1.415 . S
C470 H446 0.951 . S
C470 C471 1.366 . S
C470 C472 1.388 . S
C471 C470 1.366 . S
C471 C475 1.385 . S
C472 H447 0.951 . S
C472 C470 1.388 . S
C472 C473 1.366 . S
C473 C472 1.366 . S
C473 C474 1.414 . S
C473 C476 1.499 . S
C474 H448 0.950 . S
C474 C473 1.414 . S
C474 C475 1.374 . S
C475 H449 0.950 . S
C475 C471 1.385 . S
C475 C474 1.374 . S
C476 C473 1.499 . S
C476 C477 1.373 . S
C476 C478 1.389 . S
C477 H450 0.950 . S
C477 C463 1.377 . S
C477 C476 1.373 . S
C478 C462 1.377 . S
C478 C476 1.389 . S
C478 C479 1.524 . S
C479 C478 1.524 . S
C479 C480 1.397 . S
C479 C484 1.363 . S
C480 H451 0.950 . S
C480 C479 1.397 . S
C480 C481 1.334 . S
C481 H452 0.950 . S
C481 C480 1.334 . S
C481 C482 1.287 . S
C482 C481 1.287 . S
C482 C483 1.524 . S
C482 H485 0.999 . S
C483 H453 0.950 . S
C483 C482 1.524 . S
C483 C484 1.415 . S
C484 H454 0.950 . S
C484 C479 1.363 . S
C484 C483 1.415 . S
H485 C482 0.999 . S
H486 C467 0.913 . S
H487 C505 0.951 . S
H488 C507 0.951 . S
H489 C509 0.950 . S
H490 C510 0.950 . S
H491 C512 0.950 . S
H492 C515 0.950 . S
H493 C516 0.950 . S
H494 C518 0.950 . S
H495 C519 0.950 . S
H496 C520 0.951 . S
H497 C522 0.951 . S
H498 C524 0.950 . S
H499 C525 0.950 . S
H500 C527 0.950 . S
H501 C530 0.950 . S
H502 C531 0.950 . S
H503 C533 0.950 . S
H504 C534 0.950 . S
C505 H487 0.951 . S
C505 C506 1.366 . S
C505 C507 1.388 . S
C506 C505 1.366 . S
C506 C510 1.385 . S
C507 H488 0.951 . S
C507 C505 1.388 . S
C507 C508 1.366 . S
C508 C507 1.366 . S
C508 C509 1.414 . S
C508 C511 1.499 . S
C509 H489 0.950 . S
C509 C508 1.414 . S
C509 C510 1.374 . S
C510 H490 0.950 . S
C510 C506 1.385 . S
C510 C509 1.374 . S
C511 C508 1.499 . S
C511 C512 1.373 . S
C511 C513 1.389 . S
C512 H491 0.950 . S
C512 C511 1.373 . S
C512 C528 1.377 . S
C513 C511 1.389 . S
C513 C514 1.524 . S
C513 C527 1.377 . S
C514 C513 1.524 . S
C514 C515 1.397 . S
C514 C519 1.363 . S
C515 H492 0.950 . S
C515 C514 1.397 . S
C515 C516 1.334 . S
C516 H493 0.950 . S
C516 C515 1.334 . S
C516 C517 1.287 . S
C517 C516 1.287 . S
C517 C518 1.524 . S
C517 H536 0.913 . S
C518 H494 0.950 . S
C518 C517 1.524 . S
C518 C519 1.415 . S
C519 H495 0.950 . S
C519 C514 1.363 . S
C519 C518 1.415 . S
C520 H496 0.951 . S
C520 C521 1.366 . S
C520 C522 1.388 . S
C521 C520 1.366 . S
C521 C525 1.385 . S
C522 H497 0.951 . S
C522 C520 1.388 . S
C522 C523 1.366 . S
C523 C522 1.366 . S
C523 C524 1.414 . S
C523 C526 1.499 . S
C524 H498 0.950 . S
C524 C523 1.414 . S
C524 C525 1.374 . S
C525 H499 0.950 . S
C525 C521 1.385 . S
C525 C524 1.374 . S
C526 C523 1.499 . S
C526 C527 1.373 . S
C526 C528 1.389 . S
C527 H500 0.950 . S
C527 C513 1.377 . S
C527 C526 1.373 . S
C528 C512 1.377 . S
C528 C526 1.389 . S
C528 C529 1.524 . S
C529 C528 1.524 . S
C529 C530 1.397 . S
C529 C534 1.363 . S
C530 H501 0.950 . S
C530 C529 1.397 . S
C530 C531 1.334 . S
C531 H502 0.950 . S
C531 C530 1.334 . S
C531 C532 1.287 . S
C532 C531 1.287 . S
C532 C533 1.524 . S
C532 H535 0.999 . S
C533 H503 0.950 . S
C533 C532 1.524 . S
C533 C534 1.415 . S
C534 H504 0.950 . S
C534 C529 1.363 . S
C534 C533 1.415 . S
H535 C532 0.999 . S
H536 C517 0.913 . S
H537 C555 0.951 . S
H538 C557 0.951 . S
H539 C559 0.950 . S
H540 C560 0.950 . S
H541 C562 0.950 . S
H542 C565 0.950 . S
H543 C566 0.950 . S
H544 C568 0.950 . S
H545 C569 0.950 . S
H546 C570 0.951 . S
H547 C572 0.951 . S
H548 C574 0.950 . S
H549 C575 0.950 . S
H550 C577 0.950 . S
H551 C580 0.950 . S
H552 C581 0.950 . S
H553 C583 0.950 . S
H554 C584 0.950 . S
C555 H537 0.951 . S
C555 C556 1.366 . S
C555 C557 1.388 . S
C556 C555 1.366 . S
C556 C560 1.385 . S
C557 H538 0.951 . S
C557 C555 1.388 . S
C557 C558 1.366 . S
C558 C557 1.366 . S
C558 C559 1.414 . S
C558 C561 1.499 . S
C559 H539 0.950 . S
C559 C558 1.414 . S
C559 C560 1.374 . S
C560 H540 0.950 . S
C560 C556 1.385 . S
C560 C559 1.374 . S
C561 C558 1.499 . S
C561 C562 1.373 . S
C561 C563 1.389 . S
C562 H541 0.950 . S
C562 C561 1.373 . S
C562 C578 1.377 . S
C563 C561 1.389 . S
C563 C564 1.524 . S
C563 C577 1.377 . S
C564 C563 1.524 . S
C564 C565 1.397 . S
C564 C569 1.363 . S
C565 H542 0.950 . S
C565 C564 1.397 . S
C565 C566 1.334 . S
C566 H543 0.950 . S
C566 C565 1.334 . S
C566 C567 1.287 . S
C567 C566 1.287 . S
C567 C568 1.524 . S
C567 H586 0.913 . S
C568 H544 0.950 . S
C568 C567 1.524 . S
C568 C569 1.415 . S
C569 H545 0.950 . S
C569 C564 1.363 . S
C569 C568 1.415 . S
C570 H546 0.951 . S
C570 C571 1.366 . S
C570 C572 1.388 . S
C571 C570 1.366 . S
C571 C575 1.385 . S
C572 H547 0.951 . S
C572 C570 1.388 . S
C572 C573 1.366 . S
C573 C572 1.366 . S
C573 C574 1.414 . S
C573 C576 1.499 . S
C574 H548 0.950 . S
C574 C573 1.414 . S
C574 C575 1.374 . S
C575 H549 0.950 . S
C575 C571 1.385 . S
C575 C574 1.374 . S
C576 C573 1.499 . S
C576 C577 1.373 . S
C576 C578 1.389 . S
C577 H550 0.950 . S
C577 C563 1.377 . S
C577 C576 1.373 . S
C578 C562 1.377 . S
C578 C576 1.389 . S
C578 C579 1.524 . S
C579 C578 1.524 . S
C579 C580 1.397 . S
C579 C584 1.363 . S
C580 H551 0.950 . S
C580 C579 1.397 . S
C580 C581 1.334 . S
C581 H552 0.950 . S
C581 C580 1.334 . S
C581 C582 1.287 . S
C582 C581 1.287 . S
C582 C583 1.524 . S
C582 H585 0.999 . S
C583 H553 0.950 . S
C583 C582 1.524 . S
C583 C584 1.415 . S
C584 H554 0.950 . S
C584 C579 1.363 . S
C584 C583 1.415 . S
H585 C582 0.999 . S
H586 C567 0.913 . S
H587 C605 0.951 . S
H588 C607 0.951 . S
H589 C609 0.950 . S
H590 C610 0.950 . S
H591 C612 0.950 . S
H592 C615 0.950 . S
H593 C616 0.950 . S
H594 C618 0.950 . S
H595 C619 0.950 . S
H596 C620 0.951 . S
H597 C622 0.951 . S
H598 C624 0.950 . S
H599 C625 0.950 . S
H600 C627 0.950 . S
H601 C630 0.950 . S
H602 C631 0.950 . S
H603 C633 0.950 . S
H604 C634 0.950 . S
C605 H587 0.951 . S
C605 C606 1.366 . S
C605 C607 1.388 . S
C606 C605 1.366 . S
C606 C610 1.385 . S
C607 H588 0.951 . S
C607 C605 1.388 . S
C607 C608 1.366 . S
C608 C607 1.366 . S
C608 C609 1.414 . S
C608 C611 1.499 . S
C609 H589 0.950 . S
C609 C608 1.414 . S
C609 C610 1.374 . S
C610 H590 0.950 . S
C610 C606 1.385 . S
C610 C609 1.374 . S
C611 C608 1.499 . S
C611 C612 1.373 . S
C611 C613 1.389 . S
C612 H591 0.950 . S
C612 C611 1.373 . S
C612 C628 1.377 . S
C613 C611 1.389 . S
C613 C614 1.524 . S
C613 C627 1.377 . S
C614 C613 1.524 . S
C614 C615 1.397 . S
C614 C619 1.363 . S
C615 H592 0.950 . S
C615 C614 1.397 . S
C615 C616 1.334 . S
C616 H593 0.950 . S
C616 C615 1.334 . S
C616 C617 1.287 . S
C617 C616 1.287 . S
C617 C618 1.524 . S
C617 H636 0.913 . S
C618 H594 0.950 . S
C618 C617 1.524 . S
C618 C619 1.415 . S
C619 H595 0.950 . S
C619 C614 1.363 . S
C619 C618 1.415 . S
C620 H596 0.951 . S
C620 C621 1.366 . S
C620 C622 1.388 . S
C621 C620 1.366 . S
C621 C625 1.385 . S
C622 H597 0.951 . S
C622 C620 1.388 . S
C622 C623 1.366 . S
C623 C622 1.366 . S
C623 C624 1.414 . S
C623 C626 1.499 . S
C624 H598 0.950 . S
C624 C623 1.414 . S
C624 C625 1.374 . S
C625 H599 0.950 . S
C625 C621 1.385 . S
C625 C624 1.374 . S
C626 C623 1.499 . S
C626 C627 1.373 . S
C626 C628 1.389 . S
C627 H600 0.950 . S
C627 C613 1.377 . S
C627 C626 1.373 . S
C628 C612 1.377 . S
C628 C626 1.389 . S
C628 C629 1.524 . S
C629 C628 1.524 . S
C629 C630 1.397 . S
C629 C634 1.363 . S
C630 H601 0.950 . S
C630 C629 1.397 . S
C630 C631 1.334 . S
C631 H602 0.950 . S
C631 C630 1.334 . S
C631 C632 1.287 . S
C632 C631 1.287 . S
C632 C633 1.524 . S
C632 H635 0.999 . S
C633 H603 0.950 . S
C633 C632 1.524 . S
C633 C634 1.415 . S
C634 H604 0.950 . S
C634 C629 1.363 . S
C634 C633 1.415 . S
H635 C632 0.999 . S
H636 C617 0.913 . S
H637 C655 0.951 . S
H638 C657 0.951 . S
H639 C659 0.950 . S
H640 C660 0.950 . S
H641 C662 0.950 . S
H642 C665 0.950 . S
H643 C666 0.950 . S
H644 C668 0.950 . S
H645 C669 0.950 . S
H646 C670 0.951 . S
H647 C672 0.951 . S
H648 C674 0.950 . S
H649 C675 0.950 . S
H650 C677 0.950 . S
H651 C680 0.950 . S
H652 C681 0.950 . S
H653 C683 0.950 . S
H654 C684 0.950 . S
C655 H637 0.951 . S
C655 C656 1.366 . S
C655 C657 1.388 . S
C656 C655 1.366 . S
C656 C660 1.385 . S
C657 H638 0.951 . S
C657 C655 1.388 . S
C657 C658 1.366 . S
C658 C657 1.366 . S
C658 C659 1.414 . S
C658 C661 1.499 . S
C659 H639 0.950 . S
C659 C658 1.414 . S
C659 C660 1.374 . S
C660 H640 0.950 . S
C660 C656 1.385 . S
C660 C659 1.374 . S
C661 C658 1.499 . S
C661 C662 1.373 . S
C661 C663 1.389 . S
C662 H641 0.950 . S
C662 C661 1.373 . S
C662 C678 1.377 . S
C663 C661 1.389 . S
C663 C664 1.524 . S
C663 C677 1.377 . S
C664 C663 1.524 . S
C664 C665 1.397 . S
C664 C669 1.363 . S
C665 H642 0.950 . S
C665 C664 1.397 . S
C665 C666 1.334 . S
C666 H643 0.950 . S
C666 C665 1.334 . S
C666 C667 1.287 . S
C667 C666 1.287 . S
C667 C668 1.524 . S
C667 H686 0.913 . S
C668 H644 0.950 . S
C668 C667 1.524 . S
C668 C669 1.415 . S
C669 H645 0.950 . S
C669 C664 1.363 . S
C669 C668 1.415 . S
C670 H646 0.951 . S
C670 C671 1.366 . S
C670 C672 1.388 . S
C671 C670 1.366 . S
C671 C675 1.385 . S
C672 H647 0.951 . S
C672 C670 1.388 . S
C672 C673 1.366 . S
C673 C672 1.366 . S
C673 C674 1.414 . S
C673 C676 1.499 . S
C674 H648 0.950 . S
C674 C673 1.414 . S
C674 C675 1.374 . S
C675 H649 0.950 . S
C675 C671 1.385 . S
C675 C674 1.374 . S
C676 C673 1.499 . S
C676 C677 1.373 . S
C676 C678 1.389 . S
C677 H650 0.950 . S
C677 C663 1.377 . S
C677 C676 1.373 . S
C678 C662 1.377 . S
C678 C676 1.389 . S
C678 C679 1.524 . S
C679 C678 1.524 . S
C679 C680 1.397 . S
C679 C684 1.363 . S
C680 H651 0.950 . S
C680 C679 1.397 . S
C680 C681 1.334 . S
C681 H652 0.950 . S
C681 C680 1.334 . S
C681 C682 1.287 . S
C682 C681 1.287 . S
C682 C683 1.524 . S
C682 H685 0.999 . S
C683 H653 0.950 . S
C683 C682 1.524 . S
C683 C684 1.415 . S
C684 H654 0.950 . S
C684 C679 1.363 . S
C684 C683 1.415 . S
H685 C682 0.999 . S
H686 C667 0.913 . S
H687 C705 0.951 . S
H688 C707 0.951 . S
H689 C709 0.950 . S
H690 C710 0.950 . S
H691 C712 0.950 . S
H692 C715 0.950 . S
H693 C716 0.950 . S
H694 C718 0.950 . S
H695 C719 0.950 . S
H696 C720 0.951 . S
H697 C722 0.951 . S
H698 C724 0.950 . S
H699 C725 0.950 . S
H700 C727 0.950 . S
H701 C730 0.950 . S
H702 C731 0.950 . S
H703 C733 0.950 . S
H704 C734 0.950 . S
C705 H687 0.951 . S
C705 C706 1.366 . S
C705 C707 1.388 . S
C706 C705 1.366 . S
C706 C710 1.385 . S
C707 H688 0.951 . S
C707 C705 1.388 . S
C707 C708 1.366 . S
C708 C707 1.366 . S
C708 C709 1.414 . S
C708 C711 1.499 . S
C709 H689 0.950 . S
C709 C708 1.414 . S
C709 C710 1.374 . S
C710 H690 0.950 . S
C710 C706 1.385 . S
C710 C709 1.374 . S
C711 C708 1.499 . S
C711 C712 1.373 . S
C711 C713 1.389 . S
C712 H691 0.950 . S
C712 C711 1.373 . S
C712 C728 1.377 . S
C713 C711 1.389 . S
C713 C714 1.524 . S
C713 C727 1.377 . S
C714 C713 1.524 . S
C714 C715 1.397 . S
C714 C719 1.363 . S
C715 H692 0.950 . S
C715 C714 1.397 . S
C715 C716 1.334 . S
C716 H693 0.950 . S
C716 C715 1.334 . S
C716 C717 1.287 . S
C717 C716 1.287 . S
C717 C718 1.524 . S
C717 H736 0.913 . S
C718 H694 0.950 . S
C718 C717 1.524 . S
C718 C719 1.415 . S
C719 H695 0.950 . S
C719 C714 1.363 . S
C719 C718 1.415 . S
C720 H696 0.951 . S
C720 C721 1.366 . S
C720 C722 1.388 . S
C721 C720 1.366 . S
C721 C725 1.385 . S
C722 H697 0.951 . S
C722 C720 1.388 . S
C722 C723 1.366 . S
C723 C722 1.366 . S
C723 C724 1.414 . S
C723 C726 1.499 . S
C724 H698 0.950 . S
C724 C723 1.414 . S
C724 C725 1.374 . S
C725 H699 0.950 . S
C725 C721 1.385 . S
C725 C724 1.374 . S
C726 C723 1.499 . S
C726 C727 1.373 . S
C726 C728 1.389 . S
C727 H700 0.950 . S
C727 C713 1.377 . S
C727 C726 1.373 . S
C728 C712 1.377 . S
C728 C726 1.389 . S
C728 C729 1.524 . S
C729 C728 1.524 . S
C729 C730 1.397 . S
C729 C734 1.363 . S
C730 H701 0.950 . S
C730 C729 1.397 . S
C730 C731 1.334 . S
C731 H702 0.950 . S
C731 C730 1.334 . S
C731 C732 1.287 . S
C732 C731 1.287 . S
C732 C733 1.524 . S
C732 H735 0.999 . S
C733 H703 0.950 . S
C733 C732 1.524 . S
C733 C734 1.415 . S
C734 H704 0.950 . S
C734 C729 1.363 . S
C734 C733 1.415 . S
H735 C732 0.999 . S
H736 C717 0.913 . S
H737 C755 0.951 . S
H738 C757 0.951 . S
H739 C759 0.950 . S
H740 C760 0.950 . S
H741 C762 0.950 . S
H742 C765 0.950 . S
H743 C766 0.950 . S
H744 C768 0.950 . S
H745 C769 0.950 . S
H746 C770 0.951 . S
H747 C772 0.951 . S
H748 C774 0.950 . S
H749 C775 0.950 . S
H750 C777 0.950 . S
H751 C780 0.950 . S
H752 C781 0.950 . S
H753 C783 0.950 . S
H754 C784 0.950 . S
C755 H737 0.951 . S
C755 C756 1.366 . S
C755 C757 1.388 . S
C756 C755 1.366 . S
C756 C760 1.385 . S
C757 H738 0.951 . S
C757 C755 1.388 . S
C757 C758 1.366 . S
C758 C757 1.366 . S
C758 C759 1.414 . S
C758 C761 1.499 . S
C759 H739 0.950 . S
C759 C758 1.414 . S
C759 C760 1.374 . S
C760 H740 0.950 . S
C760 C756 1.385 . S
C760 C759 1.374 . S
C761 C758 1.499 . S
C761 C762 1.373 . S
C761 C763 1.389 . S
C762 H741 0.950 . S
C762 C761 1.373 . S
C762 C778 1.377 . S
C763 C761 1.389 . S
C763 C764 1.524 . S
C763 C777 1.377 . S
C764 C763 1.524 . S
C764 C765 1.397 . S
C764 C769 1.363 . S
C765 H742 0.950 . S
C765 C764 1.397 . S
C765 C766 1.334 . S
C766 H743 0.950 . S
C766 C765 1.334 . S
C766 C767 1.287 . S
C767 C766 1.287 . S
C767 C768 1.524 . S
C767 H786 0.913 . S
C768 H744 0.950 . S
C768 C767 1.524 . S
C768 C769 1.415 . S
C769 H745 0.950 . S
C769 C764 1.363 . S
C769 C768 1.415 . S
C770 H746 0.951 . S
C770 C771 1.366 . S
C770 C772 1.388 . S
C771 C770 1.366 . S
C771 C775 1.385 . S
C772 H747 0.951 . S
C772 C770 1.388 . S
C772 C773 1.366 . S
C773 C772 1.366 . S
C773 C774 1.414 . S
C773 C776 1.499 . S
C774 H748 0.950 . S
C774 C773 1.414 . S
C774 C775 1.374 . S
C775 H749 0.950 . S
C775 C771 1.385 . S
C775 C774 1.374 . S
C776 C773 1.499 . S
C776 C777 1.373 . S
C776 C778 1.389 . S
C777 H750 0.950 . S
C777 C763 1.377 . S
C777 C776 1.373 . S
C778 C762 1.377 . S
C778 C776 1.389 . S
C778 C779 1.524 . S
C779 C778 1.524 . S
C779 C780 1.397 . S
C779 C784 1.363 . S
C780 H751 0.950 . S
C780 C779 1.397 . S
C780 C781 1.334 . S
C781 H752 0.950 . S
C781 C780 1.334 . S
C781 C782 1.287 . S
C782 C781 1.287 . S
C782 C783 1.524 . S
C782 H785 0.999 . S
C783 H753 0.950 . S
C783 C782 1.524 . S
C783 C784 1.415 . S
C784 H754 0.950 . S
C784 C779 1.363 . S
C784 C783 1.415 . S
H785 C782 0.999 . S
H786 C767 0.913 . S
H787 C805 0.951 . S
H788 C807 0.951 . S
H789 C809 0.950 . S
H790 C810 0.950 . S
H791 C812 0.950 . S
H792 C815 0.950 . S
H793 C816 0.950 . S
H794 C818 0.950 . S
H795 C819 0.950 . S
H796 C820 0.951 . S
H797 C822 0.951 . S
H798 C824 0.950 . S
H799 C825 0.950 . S
H800 C827 0.950 . S
H801 C830 0.950 . S
H802 C831 0.950 . S
H803 C833 0.950 . S
H804 C834 0.950 . S
C805 H787 0.951 . S
C805 C806 1.366 . S
C805 C807 1.388 . S
C806 C805 1.366 . S
C806 C810 1.385 . S
C807 H788 0.951 . S
C807 C805 1.388 . S
C807 C808 1.366 . S
C808 C807 1.366 . S
C808 C809 1.414 . S
C808 C811 1.499 . S
C809 H789 0.950 . S
C809 C808 1.414 . S
C809 C810 1.374 . S
C810 H790 0.950 . S
C810 C806 1.385 . S
C810 C809 1.374 . S
C811 C808 1.499 . S
C811 C812 1.373 . S
C811 C813 1.389 . S
C812 H791 0.950 . S
C812 C811 1.373 . S
C812 C828 1.377 . S
C813 C811 1.389 . S
C813 C814 1.524 . S
C813 C827 1.377 . S
C814 C813 1.524 . S
C814 C815 1.397 . S
C814 C819 1.363 . S
C815 H792 0.950 . S
C815 C814 1.397 . S
C815 C816 1.334 . S
C816 H793 0.950 . S
C816 C815 1.334 . S
C816 C817 1.287 . S
C817 C816 1.287 . S
C817 C818 1.524 . S
C817 H836 0.913 . S
C818 H794 0.950 . S
C818 C817 1.524 . S
C818 C819 1.415 . S
C819 H795 0.950 . S
C819 C814 1.363 . S
C819 C818 1.415 . S
C820 H796 0.951 . S
C820 C821 1.366 . S
C820 C822 1.388 . S
C821 C820 1.366 . S
C821 C825 1.385 . S
C822 H797 0.951 . S
C822 C820 1.388 . S
C822 C823 1.366 . S
C823 C822 1.366 . S
C823 C824 1.414 . S
C823 C826 1.499 . S
C824 H798 0.950 . S
C824 C823 1.414 . S
C824 C825 1.374 . S
C825 H799 0.950 . S
C825 C821 1.385 . S
C825 C824 1.374 . S
C826 C823 1.499 . S
C826 C827 1.373 . S
C826 C828 1.389 . S
C827 H800 0.950 . S
C827 C813 1.377 . S
C827 C826 1.373 . S
C828 C812 1.377 . S
C828 C826 1.389 . S
C828 C829 1.524 . S
C829 C828 1.524 . S
C829 C830 1.397 . S
C829 C834 1.363 . S
C830 H801 0.950 . S
C830 C829 1.397 . S
C830 C831 1.334 . S
C831 H802 0.950 . S
C831 C830 1.334 . S
C831 C832 1.287 . S
C832 C831 1.287 . S
C832 C833 1.524 . S
C832 H835 0.999 . S
C833 H803 0.950 . S
C833 C832 1.524 . S
C833 C834 1.415 . S
C834 H804 0.950 . S
C834 C829 1.363 . S
C834 C833 1.415 . S
H835 C832 0.999 . S
H836 C817 0.913 . S
H837 C855 0.951 . S
H838 C857 0.951 . S
H839 C859 0.950 . S
H840 C860 0.950 . S
H841 C862 0.950 . S
H842 C865 0.950 . S
H843 C866 0.950 . S
H844 C868 0.950 . S
H845 C869 0.950 . S
H846 C870 0.951 . S
H847 C872 0.951 . S
H848 C874 0.950 . S
H849 C875 0.950 . S
H850 C877 0.950 . S
H851 C880 0.950 . S
H852 C881 0.950 . S
H853 C883 0.950 . S
H854 C884 0.950 . S
C855 H837 0.951 . S
C855 C856 1.366 . S
C855 C857 1.388 . S
C856 C855 1.366 . S
C856 C860 1.385 . S
C857 H838 0.951 . S
C857 C855 1.388 . S
C857 C858 1.366 . S
C858 C857 1.366 . S
C858 C859 1.414 . S
C858 C861 1.499 . S
C859 H839 0.950 . S
C859 C858 1.414 . S
C859 C860 1.374 . S
C860 H840 0.950 . S
C860 C856 1.385 . S
C860 C859 1.374 . S
C861 C858 1.499 . S
C861 C862 1.373 . S
C861 C863 1.389 . S
C862 H841 0.950 . S
C862 C861 1.373 . S
C862 C878 1.377 . S
C863 C861 1.389 . S
C863 C864 1.524 . S
C863 C877 1.377 . S
C864 C863 1.524 . S
C864 C865 1.397 . S
C864 C869 1.363 . S
C865 H842 0.950 . S
C865 C864 1.397 . S
C865 C866 1.334 . S
C866 H843 0.950 . S
C866 C865 1.334 . S
C866 C867 1.287 . S
C867 C866 1.287 . S
C867 C868 1.524 . S
C867 H886 0.913 . S
C868 H844 0.950 . S
C868 C867 1.524 . S
C868 C869 1.415 . S
C869 H845 0.950 . S
C869 C864 1.363 . S
C869 C868 1.415 . S
C870 H846 0.951 . S
C870 C871 1.366 . S
C870 C872 1.388 . S
C871 C870 1.366 . S
C871 C875 1.385 . S
C872 H847 0.951 . S
C872 C870 1.388 . S
C872 C873 1.366 . S
C873 C872 1.366 . S
C873 C874 1.414 . S
C873 C876 1.499 . S
C874 H848 0.950 . S
C874 C873 1.414 . S
C874 C875 1.374 . S
C875 H849 0.950 . S
C875 C871 1.385 . S
C875 C874 1.374 . S
C876 C873 1.499 . S
C876 C877 1.373 . S
C876 C878 1.389 . S
C877 H850 0.950 . S
C877 C863 1.377 . S
C877 C876 1.373 . S
C878 C862 1.377 . S
C878 C876 1.389 . S
C878 C879 1.524 . S
C879 C878 1.524 . S
C879 C880 1.397 . S
C879 C884 1.363 . S
C880 H851 0.950 . S
C880 C879 1.397 . S
C880 C881 1.334 . S
C881 H852 0.950 . S
C881 C880 1.334 . S
C881 C882 1.287 . S
C882 C881 1.287 . S
C882 C883 1.524 . S
C882 H885 0.999 . S
C883 H853 0.950 . S
C883 C882 1.524 . S
C883 C884 1.415 . S
C884 H854 0.950 . S
C884 C879 1.363 . S
C884 C883 1.415 . S
H885 C882 0.999 . S
H886 C867 0.913 . S
H887 C905 0.951 . S
H888 C907 0.951 . S
H889 C909 0.950 . S
H890 C910 0.950 . S
H891 C912 0.950 . S
H892 C915 0.950 . S
H893 C916 0.950 . S
H894 C918 0.950 . S
H895 C919 0.950 . S
H896 C920 0.951 . S
H897 C922 0.951 . S
H898 C924 0.950 . S
H899 C925 0.950 . S
H900 C927 0.950 . S
H901 C930 0.950 . S
H902 C931 0.950 . S
H903 C933 0.950 . S
H904 C934 0.950 . S
C905 H887 0.951 . S
C905 C906 1.366 . S
C905 C907 1.388 . S
C906 C905 1.366 . S
C906 C910 1.385 . S
C907 H888 0.951 . S
C907 C905 1.388 . S
C907 C908 1.366 . S
C908 C907 1.366 . S
C908 C909 1.414 . S
C908 C911 1.499 . S
C909 H889 0.950 . S
C909 C908 1.414 . S
C909 C910 1.374 . S
C910 H890 0.950 . S
C910 C906 1.385 . S
C910 C909 1.374 . S
C911 C908 1.499 . S
C911 C912 1.373 . S
C911 C913 1.389 . S
C912 H891 0.950 . S
C912 C911 1.373 . S
C912 C928 1.377 . S
C913 C911 1.389 . S
C913 C914 1.524 . S
C913 C927 1.377 . S
C914 C913 1.524 . S
C914 C915 1.397 . S
C914 C919 1.363 . S
C915 H892 0.950 . S
C915 C914 1.397 . S
C915 C916 1.334 . S
C916 H893 0.950 . S
C916 C915 1.334 . S
C916 C917 1.287 . S
C917 C916 1.287 . S
C917 C918 1.524 . S
C917 H936 0.913 . S
C918 H894 0.950 . S
C918 C917 1.524 . S
C918 C919 1.415 . S
C919 H895 0.950 . S
C919 C914 1.363 . S
C919 C918 1.415 . S
C920 H896 0.951 . S
C920 C921 1.366 . S
C920 C922 1.388 . S
C921 C920 1.366 . S
C921 C925 1.385 . S
C922 H897 0.951 . S
C922 C920 1.388 . S
C922 C923 1.366 . S
C923 C922 1.366 . S
C923 C924 1.414 . S
C923 C926 1.499 . S
C924 H898 0.950 . S
C924 C923 1.414 . S
C924 C925 1.374 . S
C925 H899 0.950 . S
C925 C921 1.385 . S
C925 C924 1.374 . S
C926 C923 1.499 . S
C926 C927 1.373 . S
C926 C928 1.389 . S
C927 H900 0.950 . S
C927 C913 1.377 . S
C927 C926 1.373 . S
C928 C912 1.377 . S
C928 C926 1.389 . S
C928 C929 1.524 . S
C929 C928 1.524 . S
C929 C930 1.397 . S
C929 C934 1.363 . S
C930 H901 0.950 . S
C930 C929 1.397 . S
C930 C931 1.334 . S
C931 H902 0.950 . S
C931 C930 1.334 . S
C931 C932 1.287 . S
C932 C931 1.287 . S
C932 C933 1.524 . S
C932 H935 0.999 . S
C933 H903 0.950 . S
C933 C932 1.524 . S
C933 C934 1.415 . S
C934 H904 0.950 . S
C934 C929 1.363 . S
C934 C933 1.415 . S
H935 C932 0.999 . S
H936 C917 0.913 . S
H937 C955 0.951 . S
H938 C957 0.951 . S
H939 C959 0.950 . S
H940 C960 0.950 . S
H941 C962 0.950 . S
H942 C965 0.950 . S
H943 C966 0.950 . S
H944 C968 0.950 . S
H945 C969 0.950 . S
H946 C970 0.951 . S
H947 C972 0.951 . S
H948 C974 0.950 . S
H949 C975 0.950 . S
H950 C977 0.950 . S
H951 C980 0.950 . S
H952 C981 0.950 . S
H953 C983 0.950 . S
H954 C984 0.950 . S
C955 H937 0.951 . S
C955 C956 1.366 . S
C955 C957 1.388 . S
C956 C955 1.366 . S
C956 C960 1.385 . S
C957 H938 0.951 . S
C957 C955 1.388 . S
C957 C958 1.366 . S
C958 C957 1.366 . S
C958 C959 1.414 . S
C958 C961 1.499 . S
C959 H939 0.950 . S
C959 C958 1.414 . S
C959 C960 1.374 . S
C960 H940 0.950 . S
C960 C956 1.385 . S
C960 C959 1.374 . S
C961 C958 1.499 . S
C961 C962 1.373 . S
C961 C963 1.389 . S
C962 H941 0.950 . S
C962 C961 1.373 . S
C962 C978 1.377 . S
C963 C961 1.389 . S
C963 C964 1.524 . S
C963 C977 1.377 . S
C964 C963 1.524 . S
C964 C965 1.397 . S
C964 C969 1.363 . S
C965 H942 0.950 . S
C965 C964 1.397 . S
C965 C966 1.334 . S
C966 H943 0.950 . S
C966 C965 1.334 . S
C966 C967 1.287 . S
C967 C966 1.287 . S
C967 C968 1.524 . S
C967 H986 0.913 . S
C968 H944 0.950 . S
C968 C967 1.524 . S
C968 C969 1.415 . S
C969 H945 0.950 . S
C969 C964 1.363 . S
C969 C968 1.415 . S
C970 H946 0.951 . S
C970 C971 1.366 . S
C970 C972 1.388 . S
C971 C970 1.366 . S
C971 C975 1.385 . S
C972 H947 0.951 . S
C972 C970 1.388 . S
C972 C973 1.366 . S
C973 C972 1.366 . S
C973 C974 1.414 . S
C973 C976 1.499 . S
C974 H948 0.950 . S
C974 C973 1.414 . S
C974 C975 1.374 . S
C975 H949 0.950 . S
C975 C971 1.385 . S
C975 C974 1.374 . S
C976 C973 1.499 . S
C976 C977 1.373 . S
C976 C978 1.389 . S
C977 H950 0.950 . S
C977 C963 1.377 . S
C977 C976 1.373 . S
C978 C962 1.377 . S
C978 C976 1.389 . S
C978 C979 1.524 . S
C979 C978 1.524 . S
C979 C980 1.397 . S
C979 C984 1.363 . S
C980 H951 0.950 . S
C980 C979 1.397 . S
C980 C981 1.334 . S
C981 H952 0.950 . S
C981 C980 1.334 . S
C981 C982 1.287 . S
C982 C981 1.287 . S
C982 C983 1.524 . S
C982 H985 0.999 . S
C983 H953 0.950 . S
C983 C982 1.524 . S
C983 C984 1.415 . S
C984 H954 0.950 . S
C984 C979 1.363 . S
C984 C983 1.415 . S
H985 C982 0.999 . S
H986 C967 0.913 . S
H987 C1005 0.951 . S
H988 C1007 0.951 . S
H989 C1009 0.950 . S
H990 C1010 0.950 . S
H991 C1012 0.950 . S
H992 C1015 0.950 . S
H993 C1016 0.950 . S
H994 C1018 0.950 . S
H995 C1019 0.950 . S
H996 C1020 0.951 . S
H997 C1022 0.951 . S
H998 C1024 0.950 . S
H999 C1025 0.950 . S
H1000 C1027 0.950 . S
H1001 C1030 0.950 . S
H1002 C1031 0.950 . S
H1003 C1033 0.950 . S
H1004 C1034 0.950 . S
C1005 H987 0.951 . S
C1005 C1006 1.366 . S
C1005 C1007 1.388 . S
C1006 C1005 1.366 . S
C1006 C1010 1.385 . S
C1007 H988 0.951 . S
C1007 C1005 1.388 . S
C1007 C1008 1.366 . S
C1008 C1007 1.366 . S
C1008 C1009 1.414 . S
C1008 C1011 1.499 . S
C1009 H989 0.950 . S
C1009 C1008 1.414 . S
C1009 C1010 1.374 . S
C1010 H990 0.950 . S
C1010 C1006 1.385 . S
C1010 C1009 1.374 . S
C1011 C1008 1.499 . S
C1011 C1012 1.373 . S
C1011 C1013 1.389 . S
C1012 H991 0.950 . S
C1012 C1011 1.373 . S
C1012 C1028 1.377 . S
C1013 C1011 1.389 . S
C1013 C1014 1.524 . S
C1013 C1027 1.377 . S
C1014 C1013 1.524 . S
C1014 C1015 1.397 . S
C1014 C1019 1.363 . S
C1015 H992 0.950 . S
C1015 C1014 1.397 . S
C1015 C1016 1.334 . S
C1016 H993 0.950 . S
C1016 C1015 1.334 . S
C1016 C1017 1.287 . S
C1017 C1016 1.287 . S
C1017 C1018 1.524 . S
C1017 H1036 0.913 . S
C1018 H994 0.950 . S
C1018 C1017 1.524 . S
C1018 C1019 1.415 . S
C1019 H995 0.950 . S
C1019 C1014 1.363 . S
C1019 C1018 1.415 . S
C1020 H996 0.951 . S
C1020 C1021 1.366 . S
C1020 C1022 1.388 . S
C1021 C1020 1.366 . S
C1021 C1025 1.385 . S
C1022 H997 0.951 . S
C1022 C1020 1.388 . S
C1022 C1023 1.366 . S
C1023 C1022 1.366 . S
C1023 C1024 1.414 . S
C1023 C1026 1.499 . S
C1024 H998 0.950 . S
C1024 C1023 1.414 . S
C1024 C1025 1.374 . S
C1025 H999 0.950 . S
C1025 C1021 1.385 . S
C1025 C1024 1.374 . S
C1026 C1023 1.499 . S
C1026 C1027 1.373 . S
C1026 C1028 1.389 . S
C1027 H1000 0.950 . S
C1027 C1013 1.377 . S
C1027 C1026 1.373 . S
C1028 C1012 1.377 . S
C1028 C1026 1.389 . S
C1028 C1029 1.524 . S
C1029 C1028 1.524 . S
C1029 C1030 1.397 . S
C1029 C1034 1.363 . S
C1030 H1001 0.950 . S
C1030 C1029 1.397 . S
C1030 C1031 1.334 . S
C1031 H1002 0.950 . S
C1031 C1030 1.334 . S
C1031 C1032 1.287 . S
C1032 C1031 1.287 . S
C1032 C1033 1.524 . S
C1032 H1035 0.999 . S
C1033 H1003 0.950 . S
C1033 C1032 1.524 . S
C1033 C1034 1.415 . S
C1034 H1004 0.950 . S
C1034 C1029 1.363 . S
C1034 C1033 1.415 . S
H1035 C1032 0.999 . S
H1036 C1017 0.913 . S
H1037 C1055 0.951 . S
H1038 C1057 0.951 . S
H1039 C1059 0.950 . S
H1040 C1060 0.950 . S
H1041 C1062 0.950 . S
H1042 C1065 0.950 . S
H1043 C1066 0.950 . S
H1044 C1068 0.950 . S
H1045 C1069 0.950 . S
H1046 C1070 0.951 . S
H1047 C1072 0.951 . S
H1048 C1074 0.950 . S
H1049 C1075 0.950 . S
H1050 C1077 0.950 . S
H1051 C1080 0.950 . S
H1052 C1081 0.950 . S
H1053 C1083 0.950 . S
H1054 C1084 0.950 . S
C1055 H1037 0.951 . S
C1055 C1056 1.366 . S
C1055 C1057 1.388 . S
C1056 C1055 1.366 . S
C1056 C1060 1.385 . S
C1057 H1038 0.951 . S
C1057 C1055 1.388 . S
C1057 C1058 1.366 . S
C1058 C1057 1.366 . S
C1058 C1059 1.414 . S
C1058 C1061 1.499 . S
C1059 H1039 0.950 . S
C1059 C1058 1.414 . S
C1059 C1060 1.374 . S
C1060 H1040 0.950 . S
C1060 C1056 1.385 . S
C1060 C1059 1.374 . S
C1061 C1058 1.499 . S
C1061 C1062 1.373 . S
C1061 C1063 1.389 . S
C1062 H1041 0.950 . S
C1062 C1061 1.373 . S
C1062 C1078 1.377 . S
C1063 C1061 1.389 . S
C1063 C1064 1.524 . S
C1063 C1077 1.377 . S
C1064 C1063 1.524 . S
C1064 C1065 1.397 . S
C1064 C1069 1.363 . S
C1065 H1042 0.950 . S
C1065 C1064 1.397 . S
C1065 C1066 1.334 . S
C1066 H1043 0.950 . S
C1066 C1065 1.334 . S
C1066 C1067 1.287 . S
C1067 C1066 1.287 . S
C1067 C1068 1.524 . S
C1067 H1086 0.913 . S
C1068 H1044 0.950 . S
C1068 C1067 1.524 . S
C1068 C1069 1.415 . S
C1069 H1045 0.950 . S
C1069 C1064 1.363 . S
C1069 C1068 1.415 . S
C1070 H1046 0.951 . S
C1070 C1071 1.366 . S
C1070 C1072 1.388 . S
C1071 C1070 1.366 . S
C1071 C1075 1.385 . S
C1072 H1047 0.951 . S
C1072 C1070 1.388 . S
C1072 C1073 1.366 . S
C1073 C1072 1.366 . S
C1073 C1074 1.414 . S
C1073 C1076 1.499 . S
C1074 H1048 0.950 . S
C1074 C1073 1.414 . S
C1074 C1075 1.374 . S
C1075 H1049 0.950 . S
C1075 C1071 1.385 . S
C1075 C1074 1.374 . S
C1076 C1073 1.499 . S
C1076 C1077 1.373 . S
C1076 C1078 1.389 . S
C1077 H1050 0.950 . S
C1077 C1063 1.377 . S
C1077 C1076 1.373 . S
C1078 C1062 1.377 . S
C1078 C1076 1.389 . S
C1078 C1079 1.524 . S
C1079 C1078 1.524 . S
C1079 C1080 1.397 . S
C1079 C1084 1.363 . S
C1080 H1051 0.950 . S
C1080 C1079 1.397 . S
C1080 C1081 1.334 . S
C1081 H1052 0.950 . S
C1081 C1080 1.334 . S
C1081 C1082 1.287 . S
C1082 C1081 1.287 . S
C1082 C1083 1.524 . S
C1082 H1085 0.999 . S
C1083 H1053 0.950 . S
C1083 C1082 1.524 . S
C1083 C1084 1.415 . S
C1084 H1054 0.950 . S
C1084 C1079 1.363 . S
C1084 C1083 1.415 . S
H1085 C1082 0.999 . S
H1086 C1067 0.913 . S
H1087 C1105 0.951 . S
H1088 C1107 0.951 . S
H1089 C1109 0.950 . S
H1090 C1110 0.950 . S
H1091 C1112 0.950 . S
H1092 C1115 0.950 . S
H1093 C1116 0.950 . S
H1094 C1118 0.950 . S
H1095 C1119 0.950 . S
H1096 C1120 0.951 . S
H1097 C1122 0.951 . S
H1098 C1124 0.950 . S
H1099 C1125 0.950 . S
H1100 C1127 0.950 . S
H1101 C1130 0.950 . S
H1102 C1131 0.950 . S
H1103 C1133 0.950 . S
H1104 C1134 0.950 . S
C1105 H1087 0.951 . S
C1105 C1106 1.366 . S
C1105 C1107 1.388 . S
C1106 C1105 1.366 . S
C1106 C1110 1.385 . S
C1107 H1088 0.951 . S
C1107 C1105 1.388 . S
C1107 C1108 1.366 . S
C1108 C1107 1.366 . S
C1108 C1109 1.414 . S
C1108 C1111 1.499 . S
C1109 H1089 0.950 . S
C1109 C1108 1.414 . S
C1109 C1110 1.374 . S
C1110 H1090 0.950 . S
C1110 C1106 1.385 . S
C1110 C1109 1.374 . S
C1111 C1108 1.499 . S
C1111 C1112 1.373 . S
C1111 C1113 1.389 . S
C1112 H1091 0.950 . S
C1112 C1111 1.373 . S
C1112 C1128 1.377 . S
C1113 C1111 1.389 . S
C1113 C1114 1.524 . S
C1113 C1127 1.377 . S
C1114 C1113 1.524 . S
C1114 C1115 1.397 . S
C1114 C1119 1.363 . S
C1115 H1092 0.950 . S
C1115 C1114 1.397 . S
C1115 C1116 1.334 . S
C1116 H1093 0.950 . S
C1116 C1115 1.334 . S
C1116 C1117 1.287 . S
C1117 C1116 1.287 . S
C1117 C1118 1.524 . S
C1117 H1136 0.913 . S
C1118 H1094 0.950 . S
C1118 C1117 1.524 . S
C1118 C1119 1.415 . S
C1119 H1095 0.950 . S
C1119 C1114 1.363 . S
C1119 C1118 1.415 . S
C1120 H1096 0.951 . S
C1120 C1121 1.366 . S
C1120 C1122 1.388 . S
C1121 C1120 1.366 . S
C1121 C1125 1.385 . S
C1122 H1097 0.951 . S
C1122 C1120 1.388 . S
C1122 C1123 1.366 . S
C1123 C1122 1.366 . S
C1123 C1124 1.414 . S
C1123 C1126 1.499 . S
C1124 H1098 0.950 . S
C1124 C1123 1.414 . S
C1124 C1125 1.374 . S
C1125 H1099 0.950 . S
C1125 C1121 1.385 . S
C1125 C1124 1.374 . S
C1126 C1123 1.499 . S
C1126 C1127 1.373 . S
C1126 C1128 1.389 . S
C1127 H1100 0.950 . S
C1127 C1113 1.377 . S
C1127 C1126 1.373 . S
C1128 C1112 1.377 . S
C1128 C1126 1.389 . S
C1128 C1129 1.524 . S
C1129 C1128 1.524 . S
C1129 C1130 1.397 . S
C1129 C1134 1.363 . S
C1130 H1101 0.950 . S
C1130 C1129 1.397 . S
C1130 C1131 1.334 . S
C1131 H1102 0.950 . S
C1131 C1130 1.334 . S
C1131 C1132 1.287 . S
C1132 C1131 1.287 . S
C1132 C1133 1.524 . S
C1132 H1135 0.999 . S
C1133 H1103 0.950 . S
C1133 C1132 1.524 . S
C1133 C1134 1.415 . S
C1134 H1104 0.950 . S
C1134 C1129 1.363 . S
C1134 C1133 1.415 . S
H1135 C1132 0.999 . S
H1136 C1117 0.913 . S
H1137 C1155 0.951 . S
H1138 C1157 0.951 . S
H1139 C1159 0.950 . S
H1140 C1160 0.950 . S
H1141 C1162 0.950 . S
H1142 C1165 0.950 . S
H1143 C1166 0.950 . S
H1144 C1168 0.950 . S
H1145 C1169 0.950 . S
H1146 C1170 0.951 . S
H1147 C1172 0.951 . S
H1148 C1174 0.950 . S
H1149 C1175 0.950 . S
H1150 C1177 0.950 . S
H1151 C1180 0.950 . S
H1152 C1181 0.950 . S
H1153 C1183 0.950 . S
H1154 C1184 0.950 . S
C1155 H1137 0.951 . S
C1155 C1156 1.366 . S
C1155 C1157 1.388 . S
C1156 C1155 1.366 . S
C1156 C1160 1.385 . S
C1157 H1138 0.951 . S
C1157 C1155 1.388 . S
C1157 C1158 1.366 . S
C1158 C1157 1.366 . S
C1158 C1159 1.414 . S
C1158 C1161 1.499 . S
C1159 H1139 0.950 . S
C1159 C1158 1.414 . S
C1159 C1160 1.374 . S
C1160 H1140 0.950 . S
C1160 C1156 1.385 . S
C1160 C1159 1.374 . S
C1161 C1158 1.499 . S
C1161 C1162 1.373 . S
C1161 C1163 1.389 . S
C1162 H1141 0.950 . S
C1162 C1161 1.373 . S
C1162 C1178 1.377 . S
C1163 C1161 1.389 . S
C1163 C1164 1.524 . S
C1163 C1177 1.377 . S
C1164 C1163 1.524 . S
C1164 C1165 1.397 . S
C1164 C1169 1.363 . S
C1165 H1142 0.950 . S
C1165 C1164 1.397 . S
C1165 C1166 1.334 . S
C1166 H1143 0.950 . S
C1166 C1165 1.334 . S
C1166 C1167 1.287 . S
C1167 C1166 1.287 . S
C1167 C1168 1.524 . S
C1167 H1186 0.913 . S
C1168 H1144 0.950 . S
C1168 C1167 1.524 . S
C1168 C1169 1.415 . S
C1169 H1145 0.950 . S
C1169 C1164 1.363 . S
C1169 C1168 1.415 . S
C1170 H1146 0.951 . S
C1170 C1171 1.366 . S
C1170 C1172 1.388 . S
C1171 C1170 1.366 . S
C1171 C1175 1.385 . S
C1172 H1147 0.951 . S
C1172 C1170 1.388 . S
C1172 C1173 1.366 . S
C1173 C1172 1.366 . S
C1173 C1174 1.414 . S
C1173 C1176 1.499 . S
C1174 H1148 0.950 . S
C1174 C1173 1.414 . S
C1174 C1175 1.374 . S
C1175 H1149 0.950 . S
C1175 C1171 1.385 . S
C1175 C1174 1.374 . S
C1176 C1173 1.499 . S
C1176 C1177 1.373 . S
C1176 C1178 1.389 . S
C1177 H1150 0.950 . S
C1177 C1163 1.377 . S
C1177 C1176 1.373 . S
C1178 C1162 1.377 . S
C1178 C1176 1.389 . S
C1178 C1179 1.524 . S
C1179 C1178 1.524 . S
C1179 C1180 1.397 . S
C1179 C1184 1.363 . S
C1180 H1151 0.950 . S
C1180 C1179 1.397 . S
C1180 C1181 1.334 . S
C1181 H1152 0.950 . S
C1181 C1180 1.334 . S
C1181 C1182 1.287 . S
C1182 C1181 1.287 . S
C1182 C1183 1.524 . S
C1182 H1185 0.999 . S
C1183 H1153 0.950 . S
C1183 C1182 1.524 . S
C1183 C1184 1.415 . S
C1184 H1154 0.950 . S
C1184 C1179 1.363 . S
C1184 C1183 1.415 . S
H1185 C1182 0.999 . S
H1186 C1167 0.913 . S
H1187 C1205 0.951 . S
H1188 C1207 0.951 . S
H1189 C1209 0.950 . S
H1190 C1210 0.950 . S
H1191 C1212 0.950 . S
H1192 C1215 0.950 . S
H1193 C1216 0.950 . S
H1194 C1218 0.950 . S
H1195 C1219 0.950 . S
H1196 C1220 0.951 . S
H1197 C1222 0.951 . S
H1198 C1224 0.950 . S
H1199 C1225 0.950 . S
H1200 C1227 0.950 . S
H1201 C1230 0.950 . S
H1202 C1231 0.950 . S
H1203 C1233 0.950 . S
H1204 C1234 0.950 . S
C1205 H1187 0.951 . S
C1205 C1206 1.366 . S
C1205 C1207 1.388 . S
C1206 C1205 1.366 . S
C1206 C1210 1.385 . S
C1207 H1188 0.951 . S
C1207 C1205 1.388 . S
C1207 C1208 1.366 . S
C1208 C1207 1.366 . S
C1208 C1209 1.414 . S
C1208 C1211 1.499 . S
C1209 H1189 0.950 . S
C1209 C1208 1.414 . S
C1209 C1210 1.374 . S
C1210 H1190 0.950 . S
C1210 C1206 1.385 . S
C1210 C1209 1.374 . S
C1211 C1208 1.499 . S
C1211 C1212 1.373 . S
C1211 C1213 1.389 . S
C1212 H1191 0.950 . S
C1212 C1211 1.373 . S
C1212 C1228 1.377 . S
C1213 C1211 1.389 . S
C1213 C1214 1.524 . S
C1213 C1227 1.377 . S
C1214 C1213 1.524 . S
C1214 C1215 1.397 . S
C1214 C1219 1.363 . S
C1215 H1192 0.950 . S
C1215 C1214 1.397 . S
C1215 C1216 1.334 . S
C1216 H1193 0.950 . S
C1216 C1215 1.334 . S
C1216 C1217 1.287 . S
C1217 C1216 1.287 . S
C1217 C1218 1.524 . S
C1217 H1236 0.913 . S
C1218 H1194 0.950 . S
C1218 C1217 1.524 . S
C1218 C1219 1.415 . S
C1219 H1195 0.950 . S
C1219 C1214 1.363 . S
C1219 C1218 1.415 . S
C1220 H1196 0.951 . S
C1220 C1221 1.366 . S
C1220 C1222 1.388 . S
C1221 C1220 1.366 . S
C1221 C1225 1.385 . S
C1222 H1197 0.951 . S
C1222 C1220 1.388 . S
C1222 C1223 1.366 . S
C1223 C1222 1.366 . S
C1223 C1224 1.414 . S
C1223 C1226 1.499 . S
C1224 H1198 0.950 . S
C1224 C1223 1.414 . S
C1224 C1225 1.374 . S
C1225 H1199 0.950 . S
C1225 C1221 1.385 . S
C1225 C1224 1.374 . S
C1226 C1223 1.499 . S
C1226 C1227 1.373 . S
C1226 C1228 1.389 . S
C1227 H1200 0.950 . S
C1227 C1213 1.377 . S
C1227 C1226 1.373 . S
C1228 C1212 1.377 . S
C1228 C1226 1.389 . S
C1228 C1229 1.524 . S
C1229 C1228 1.524 . S
C1229 C1230 1.397 . S
C1229 C1234 1.363 . S
C1230 H1201 0.950 . S
C1230 C1229 1.397 . S
C1230 C1231 1.334 . S
C1231 H1202 0.950 . S
C1231 C1230 1.334 . S
C1231 C1232 1.287 . S
C1232 C1231 1.287 . S
C1232 C1233 1.524 . S
C1232 H1235 0.999 . S
C1233 H1203 0.950 . S
C1233 C1232 1.524 . S
C1233 C1234 1.415 . S
C1234 H1204 0.950 . S
C1234 C1229 1.363 . S
C1234 C1233 1.415 . S
H1235 C1232 0.999 . S
H1236 C1217 0.913 . S
H1237 C1255 0.951 . S
H1238 C1257 0.951 . S
H1239 C1259 0.950 . S
H1240 C1260 0.950 . S
H1241 C1262 0.950 . S
H1242 C1265 0.950 . S
H1243 C1266 0.950 . S
H1244 C1268 0.950 . S
H1245 C1269 0.950 . S
H1246 C1270 0.951 . S
H1247 C1272 0.951 . S
H1248 C1274 0.950 . S
H1249 C1275 0.950 . S
H1250 C1277 0.950 . S
H1251 C1280 0.950 . S
H1252 C1281 0.950 . S
H1253 C1283 0.950 . S
H1254 C1284 0.950 . S
C1255 H1237 0.951 . S
C1255 C1256 1.366 . S
C1255 C1257 1.388 . S
C1256 C1255 1.366 . S
C1256 C1260 1.385 . S
C1257 H1238 0.951 . S
C1257 C1255 1.388 . S
C1257 C1258 1.366 . S
C1258 C1257 1.366 . S
C1258 C1259 1.414 . S
C1258 C1261 1.499 . S
C1259 H1239 0.950 . S
C1259 C1258 1.414 . S
C1259 C1260 1.374 . S
C1260 H1240 0.950 . S
C1260 C1256 1.385 . S
C1260 C1259 1.374 . S
C1261 C1258 1.499 . S
C1261 C1262 1.373 . S
C1261 C1263 1.389 . S
C1262 H1241 0.950 . S
C1262 C1261 1.373 . S
C1262 C1278 1.377 . S
C1263 C1261 1.389 . S
C1263 C1264 1.524 . S
C1263 C1277 1.377 . S
C1264 C1263 1.524 . S
C1264 C1265 1.397 . S
C1264 C1269 1.363 . S
C1265 H1242 0.950 . S
C1265 C1264 1.397 . S
C1265 C1266 1.334 . S
C1266 H1243 0.950 . S
C1266 C1265 1.334 . S
C1266 C1267 1.287 . S
C1267 C1266 1.287 . S
C1267 C1268 1.524 . S
C1267 H1286 0.913 . S
C1268 H1244 0.950 . S
C1268 C1267 1.524 . S
C1268 C1269 1.415 . S
C1269 H1245 0.950 . S
C1269 C1264 1.363 . S
C1269 C1268 1.415 . S
C1270 H1246 0.951 . S
C1270 C1271 1.366 . S
C1270 C1272 1.388 . S
C1271 C1270 1.366 . S
C1271 C1275 1.385 . S
C1272 H1247 0.951 . S
C1272 C1270 1.388 . S
C1272 C1273 1.366 . S
C1273 C1272 1.366 . S
C1273 C1274 1.414 . S
C1273 C1276 1.499 . S
C1274 H1248 0.950 . S
C1274 C1273 1.414 . S
C1274 C1275 1.374 . S
C1275 H1249 0.950 . S
C1275 C1271 1.385 . S
C1275 C1274 1.374 . S
C1276 C1273 1.499 . S
C1276 C1277 1.373 . S
C1276 C1278 1.389 . S
C1277 H1250 0.950 . S
C1277 C1263 1.377 . S
C1277 C1276 1.373 . S
C1278 C1262 1.377 . S
C1278 C1276 1.389 . S
C1278 C1279 1.524 . S
C1279 C1278 1.524 . S
C1279 C1280 1.397 . S
C1279 C1284 1.363 . S
C1280 H1251 0.950 . S
C1280 C1279 1.397 . S
C1280 C1281 1.334 . S
C1281 H1252 0.950 . S
C1281 C1280 1.334 . S
C1281 C1282 1.287 . S
C1282 C1281 1.287 . S
C1282 C1283 1.524 . S
C1282 H1285 0.999 . S
C1283 H1253 0.950 . S
C1283 C1282 1.524 . S
C1283 C1284 1.415 . S
C1284 H1254 0.950 . S
C1284 C1279 1.363 . S
C1284 C1283 1.415 . S
H1285 C1282 0.999 . S
H1286 C1267 0.913 . S
H1287 C1305 0.951 . S
H1288 C1307 0.951 . S
H1289 C1309 0.950 . S
H1290 C1310 0.950 . S
H1291 C1312 0.950 . S
H1292 C1315 0.950 . S
H1293 C1316 0.950 . S
H1294 C1318 0.950 . S
H1295 C1319 0.950 . S
H1296 C1320 0.951 . S
H1297 C1322 0.951 . S
H1298 C1324 0.950 . S
H1299 C1325 0.950 . S
H1300 C1327 0.950 . S
H1301 C1330 0.950 . S
H1302 C1331 0.950 . S
H1303 C1333 0.950 . S
H1304 C1334 0.950 . S
C1305 H1287 0.951 . S
C1305 C1306 1.366 . S
C1305 C1307 1.388 . S
C1306 C1305 1.366 . S
C1306 C1310 1.385 . S
C1307 H1288 0.951 . S
C1307 C1305 1.388 . S
C1307 C1308 1.366 . S
C1308 C1307 1.366 . S
C1308 C1309 1.414 . S
C1308 C1311 1.499 . S
C1309 H1289 0.950 . S
C1309 C1308 1.414 . S
C1309 C1310 1.374 . S
C1310 H1290 0.950 . S
C1310 C1306 1.385 . S
C1310 C1309 1.374 . S
C1311 C1308 1.499 . S
C1311 C1312 1.373 . S
C1311 C1313 1.389 . S
C1312 H1291 0.950 . S
C1312 C1311 1.373 . S
C1312 C1328 1.377 . S
C1313 C1311 1.389 . S
C1313 C1314 1.524 . S
C1313 C1327 1.377 . S
C1314 C1313 1.524 . S
C1314 C1315 1.397 . S
C1314 C1319 1.363 . S
C1315 H1292 0.950 . S
C1315 C1314 1.397 . S
C1315 C1316 1.334 . S
C1316 H1293 0.950 . S
C1316 C1315 1.334 . S
C1316 C1317 1.287 . S
C1317 C1316 1.287 . S
C1317 C1318 1.524 . S
C1317 H1336 0.913 . S
C1318 H1294 0.950 . S
C1318 C1317 1.524 . S
C1318 C1319 1.415 . S
C1319 H1295 0.950 . S
C1319 C1314 1.363 . S
C1319 C1318 1.415 . S
C1320 H1296 0.951 . S
C1320 C1321 1.366 . S
C1320 C1322 1.388 . S
C1321 C1320 1.366 . S
C1321 C1325 1.385 . S
C1322 H1297 0.951 . S
C1322 C1320 1.388 . S
C1322 C1323 1.366 . S
C1323 C1322 1.366 . S
C1323 C1324 1.414 . S
C1323 C1326 1.499 . S
C1324 H1298 0.950 . S
C1324 C1323 1.414 . S
C1324 C1325 1.374 . S
C1325 H1299 0.950 . S
C1325 C1321 1.385 . S
C1325 C1324 1.374 . S
C1326 C1323 1.499 . S
C1326 C1327 1.373 . S
C1326 C1328 1.389 . S
C1327 H1300 0.950 . S
C1327 C1313 1.377 . S
C1327 C1326 1.373 . S
C1328 C1312 1.377 . S
C1328 C1326 1.389 . S
C1328 C1329 1.524 . S
C1329 C1328 1.524 . S
C1329 C1330 1.397 . S
C1329 C1334 1.363 . S
C1330 H1301 0.950 . S
C1330 C1329 1.397 . S
C1330 C1331 1.334 . S
C1331 H1302 0.950 . S
C1331 C1330 1.334 . S
C1331 C1332 1.287 . S
C1332 C1331 1.287 . S
C1332 C1333 1.524 . S
C1332 H1335 0.999 . S
C1333 H1303 0.950 . S
C1333 C1332 1.524 . S
C1333 C1334 1.415 . S
C1334 H1304 0.950 . S
C1334 C1329 1.363 . S
C1334 C1333 1.415 . S
H1335 C1332 0.999 . S
H1336 C1317 0.913 . S
H1337 C1355 0.951 . S
H1338 C1357 0.951 . S
H1339 C1359 0.950 . S
H1340 C1360 0.950 . S
H1341 C1362 0.950 . S
H1342 C1365 0.950 . S
H1343 C1366 0.950 . S
H1344 C1368 0.950 . S
H1345 C1369 0.950 . S
H1346 C1370 0.951 . S
H1347 C1372 0.951 . S
H1348 C1374 0.950 . S
H1349 C1375 0.950 . S
H1350 C1377 0.950 . S
H1351 C1380 0.950 . S
H1352 C1381 0.950 . S
H1353 C1383 0.950 . S
H1354 C1384 0.950 . S
C1355 H1337 0.951 . S
C1355 C1356 1.366 . S
C1355 C1357 1.388 . S
C1356 C1355 1.366 . S
C1356 C1360 1.385 . S
C1357 H1338 0.951 . S
C1357 C1355 1.388 . S
C1357 C1358 1.366 . S
C1358 C1357 1.366 . S
C1358 C1359 1.414 . S
C1358 C1361 1.499 . S
C1359 H1339 0.950 . S
C1359 C1358 1.414 . S
C1359 C1360 1.374 . S
C1360 H1340 0.950 . S
C1360 C1356 1.385 . S
C1360 C1359 1.374 . S
C1361 C1358 1.499 . S
C1361 C1362 1.373 . S
C1361 C1363 1.389 . S
C1362 H1341 0.950 . S
C1362 C1361 1.373 . S
C1362 C1378 1.377 . S
C1363 C1361 1.389 . S
C1363 C1364 1.524 . S
C1363 C1377 1.377 . S
C1364 C1363 1.524 . S
C1364 C1365 1.397 . S
C1364 C1369 1.363 . S
C1365 H1342 0.950 . S
C1365 C1364 1.397 . S
C1365 C1366 1.334 . S
C1366 H1343 0.950 . S
C1366 C1365 1.334 . S
C1366 C1367 1.287 . S
C1367 C1366 1.287 . S
C1367 C1368 1.524 . S
C1367 H1386 0.913 . S
C1368 H1344 0.950 . S
C1368 C1367 1.524 . S
C1368 C1369 1.415 . S
C1369 H1345 0.950 . S
C1369 C1364 1.363 . S
C1369 C1368 1.415 . S
C1370 H1346 0.951 . S
C1370 C1371 1.366 . S
C1370 C1372 1.388 . S
C1371 C1370 1.366 . S
C1371 C1375 1.385 . S
C1372 H1347 0.951 . S
C1372 C1370 1.388 . S
C1372 C1373 1.366 . S
C1373 C1372 1.366 . S
C1373 C1374 1.414 . S
C1373 C1376 1.499 . S
C1374 H1348 0.950 . S
C1374 C1373 1.414 . S
C1374 C1375 1.374 . S
C1375 H1349 0.950 . S
C1375 C1371 1.385 . S
C1375 C1374 1.374 . S
C1376 C1373 1.499 . S
C1376 C1377 1.373 . S
C1376 C1378 1.389 . S
C1377 H1350 0.950 . S
C1377 C1363 1.377 . S
C1377 C1376 1.373 . S
C1378 C1362 1.377 . S
C1378 C1376 1.389 . S
C1378 C1379 1.524 . S
C1379 C1378 1.524 . S
C1379 C1380 1.397 . S
C1379 C1384 1.363 . S
C1380 H1351 0.950 . S
C1380 C1379 1.397 . S
C1380 C1381 1.334 . S
C1381 H1352 0.950 . S
C1381 C1380 1.334 . S
C1381 C1382 1.287 . S
C1382 C1381 1.287 . S
C1382 C1383 1.524 . S
C1382 H1385 0.999 . S
C1383 H1353 0.950 . S
C1383 C1382 1.524 . S
C1383 C1384 1.415 . S
C1384 H1354 0.950 . S
C1384 C1379 1.363 . S
C1384 C1383 1.415 . S
H1385 C1382 0.999 . S
H1386 C1367 0.913 . S
H1387 C1405 0.951 . S
H1388 C1407 0.951 . S
H1389 C1409 0.950 . S
H1390 C1410 0.950 . S
H1391 C1412 0.950 . S
H1392 C1415 0.950 . S
H1393 C1416 0.950 . S
H1394 C1418 0.950 . S
H1395 C1419 0.950 . S
H1396 C1420 0.951 . S
H1397 C1422 0.951 . S
H1398 C1424 0.950 . S
H1399 C1425 0.950 . S
H1400 C1427 0.950 . S
H1401 C1430 0.950 . S
H1402 C1431 0.950 . S
H1403 C1433 0.950 . S
H1404 C1434 0.950 . S
C1405 H1387 0.951 . S
C1405 C1406 1.366 . S
C1405 C1407 1.388 . S
C1406 C1405 1.366 . S
C1406 C1410 1.385 . S
C1407 H1388 0.951 . S
C1407 C1405 1.388 . S
C1407 C1408 1.366 . S
C1408 C1407 1.366 . S
C1408 C1409 1.414 . S
C1408 C1411 1.499 . S
C1409 H1389 0.950 . S
C1409 C1408 1.414 . S
C1409 C1410 1.374 . S
C1410 H1390 0.950 . S
C1410 C1406 1.385 . S
C1410 C1409 1.374 . S
C1411 C1408 1.499 . S
C1411 C1412 1.373 . S
C1411 C1413 1.389 . S
C1412 H1391 0.950 . S
C1412 C1411 1.373 . S
C1412 C1428 1.377 . S
C1413 C1411 1.389 . S
C1413 C1414 1.524 . S
C1413 C1427 1.377 . S
C1414 C1413 1.524 . S
C1414 C1415 1.397 . S
C1414 C1419 1.363 . S
C1415 H1392 0.950 . S
C1415 C1414 1.397 . S
C1415 C1416 1.334 . S
C1416 H1393 0.950 . S
C1416 C1415 1.334 . S
C1416 C1417 1.287 . S
C1417 C1416 1.287 . S
C1417 C1418 1.524 . S
C1417 H1436 0.913 . S
C1418 H1394 0.950 . S
C1418 C1417 1.524 . S
C1418 C1419 1.415 . S
C1419 H1395 0.950 . S
C1419 C1414 1.363 . S
C1419 C1418 1.415 . S
C1420 H1396 0.951 . S
C1420 C1421 1.366 . S
C1420 C1422 1.388 . S
C1421 C1420 1.366 . S
C1421 C1425 1.385 . S
C1422 H1397 0.951 . S
C1422 C1420 1.388 . S
C1422 C1423 1.366 . S
C1423 C1422 1.366 . S
C1423 C1424 1.414 . S
C1423 C1426 1.499 . S
C1424 H1398 0.950 . S
C1424 C1423 1.414 . S
C1424 C1425 1.374 . S
C1425 H1399 0.950 . S
C1425 C1421 1.385 . S
C1425 C1424 1.374 . S
C1426 C1423 1.499 . S
C1426 C1427 1.373 . S
C1426 C1428 1.389 . S
C1427 H1400 0.950 . S
C1427 C1413 1.377 . S
C1427 C1426 1.373 . S
C1428 C1412 1.377 . S
C1428 C1426 1.389 . S
C1428 C1429 1.524 . S
C1429 C1428 1.524 . S
C1429 C1430 1.397 . S
C1429 C1434 1.363 . S
C1430 H1401 0.950 . S
C1430 C1429 1.397 . S
C1430 C1431 1.334 . S
C1431 H1402 0.950 . S
C1431 C1430 1.334 . S
C1431 C1432 1.287 . S
C1432 C1431 1.287 . S
C1432 C1433 1.524 . S
C1432 H1435 0.999 . S
C1433 H1403 0.950 . S
C1433 C1432 1.524 . S
C1433 C1434 1.415 . S
C1434 H1404 0.950 . S
C1434 C1429 1.363 . S
C1434 C1433 1.415 . S
H1435 C1432 0.999 . S
H1436 C1417 0.913 . S
H1437 C1455 0.951 . S
H1438 C1457 0.951 . S
H1439 C1459 0.950 . S
H1440 C1460 0.950 . S
H1441 C1462 0.950 . S
H1442 C1465 0.950 . S
H1443 C1466 0.950 . S
H1444 C1468 0.950 . S
H1445 C1469 0.950 . S
H1446 C1470 0.951 . S
H1447 C1472 0.951 . S
H1448 C1474 0.950 . S
H1449 C1475 0.950 . S
H1450 C1477 0.950 . S
H1451 C1480 0.950 . S
H1452 C1481 0.950 . S
H1453 C1483 0.950 . S
H1454 C1484 0.950 . S
C1455 H1437 0.951 . S
C1455 C1456 1.366 . S
C1455 C1457 1.388 . S
C1456 C1455 1.366 . S
C1456 C1460 1.385 . S
C1457 H1438 0.951 . S
C1457 C1455 1.388 . S
C1457 C1458 1.366 . S
C1458 C1457 1.366 . S
C1458 C1459 1.414 . S
C1458 C1461 1.499 . S
C1459 H1439 0.950 . S
C1459 C1458 1.414 . S
C1459 C1460 1.374 . S
C1460 H1440 0.950 . S
C1460 C1456 1.385 . S
C1460 C1459 1.374 . S
C1461 C1458 1.499 . S
C1461 C1462 1.373 . S
C1461 C1463 1.389 . S
C1462 H1441 0.950 . S
C1462 C1461 1.373 . S
C1462 C1478 1.377 . S
C1463 C1461 1.389 . S
C1463 C1464 1.524 . S
C1463 C1477 1.377 . S
C1464 C1463 1.524 . S
C1464 C1465 1.397 . S
C1464 C1469 1.363 . S
C1465 H1442 0.950 . S
C1465 C1464 1.397 . S
C1465 C1466 1.334 . S
C1466 H1443 0.950 . S
C1466 C1465 1.334 . S
C1466 C1467 1.287 . S
C1467 C1466 1.287 . S
C1467 C1468 1.524 . S
C1467 H1486 0.913 . S
C1468 H1444 0.950 . S
C1468 C1467 1.524 . S
C1468 C1469 1.415 . S
C1469 H1445 0.950 . S
C1469 C1464 1.363 . S
C1469 C1468 1.415 . S
C1470 H1446 0.951 . S
C1470 C1471 1.366 . S
C1470 C1472 1.388 . S
C1471 C1470 1.366 . S
C1471 C1475 1.385 . S
C1472 H1447 0.951 . S
C1472 C1470 1.388 . S
C1472 C1473 1.366 . S
C1473 C1472 1.366 . S
C1473 C1474 1.414 . S
C1473 C1476 1.499 . S
C1474 H1448 0.950 . S
C1474 C1473 1.414 . S
C1474 C1475 1.374 . S
C1475 H1449 0.950 . S
C1475 C1471 1.385 . S
C1475 C1474 1.374 . S
C1476 C1473 1.499 . S
C1476 C1477 1.373 . S
C1476 C1478 1.389 . S
C1477 H1450 0.950 . S
C1477 C1463 1.377 . S
C1477 C1476 1.373 . S
C1478 C1462 1.377 . S
C1478 C1476 1.389 . S
C1478 C1479 1.524 . S
C1479 C1478 1.524 . S
C1479 C1480 1.397 . S
C1479 C1484 1.363 . S
C1480 H1451 0.950 . S
C1480 C1479 1.397 . S
C1480 C1481 1.334 . S
C1481 H1452 0.950 . S
C1481 C1480 1.334 . S
C1481 C1482 1.287 . S
C1482 C1481 1.287 . S
C1482 C1483 1.524 . S
C1482 H1485 0.999 . S
C1483 H1453 0.950 . S
C1483 C1482 1.524 . S
C1483 C1484 1.415 . S
C1484 H1454 0.950 . S
C1484 C1479 1.363 . S
C1484 C1483 1.415 . S
H1485 C1482 0.999 . S
H1486 C1467 0.913 . S
H1487 C1505 0.951 . S
H1488 C1507 0.951 . S
H1489 C1509 0.950 . S
H1490 C1510 0.950 . S
H1491 C1512 0.950 . S
H1492 C1515 0.950 . S
H1493 C1516 0.950 . S
H1494 C1518 0.950 . S
H1495 C1519 0.950 . S
H1496 C1520 0.951 . S
H1497 C1522 0.951 . S
H1498 C1524 0.950 . S
H1499 C1525 0.950 . S
H1500 C1527 0.950 . S
H1501 C1530 0.950 . S
H1502 C1531 0.950 . S
H1503 C1533 0.950 . S
H1504 C1534 0.950 . S
C1505 H1487 0.951 . S
C1505 C1506 1.366 . S
C1505 C1507 1.388 . S
C1506 C1505 1.366 . S
C1506 C1510 1.385 . S
C1507 H1488 0.951 . S
C1507 C1505 1.388 . S
C1507 C1508 1.366 . S
C1508 C1507 1.366 . S
C1508 C1509 1.414 . S
C1508 C1511 1.499 . S
C1509 H1489 0.950 . S
C1509 C1508 1.414 . S
C1509 C1510 1.374 . S
C1510 H1490 0.950 . S
C1510 C1506 1.385 . S
C1510 C1509 1.374 . S
C1511 C1508 1.499 . S
C1511 C1512 1.373 . S
C1511 C1513 1.389 . S
C1512 H1491 0.950 . S
C1512 C1511 1.373 . S
C1512 C1528 1.377 . S
C1513 C1511 1.389 . S
C1513 C1514 1.524 . S
C1513 C1527 1.377 . S
C1514 C1513 1.524 . S
C1514 C1515 1.397 . S
C1514 C1519 1.363 . S
C1515 H1492 0.950 . S
C1515 C1514 1.397 . S
C1515 C1516 1.334 . S
C1516 H1493 0.950 . S
C1516 C1515 1.334 . S
C1516 C1517 1.287 . S
C1517 C1516 1.287 . S
C1517 C1518 1.524 . S
C1517 H1536 0.913 . S
C1518 H1494 0.950 . S
C1518 C1517 1.524 . S
C1518 C1519 1.415 . S
C1519 H1495 0.950 . S
C1519 C1514 1.363 . S
C1519 C1518 1.415 . S
C1520 H1496 0.951 . S
C1520 C1521 1.366 . S
C1520 C1522 1.388 . S
C1521 C1520 1.366 . S
C1521 C1525 1.385 . S
C1522 H1497 0.951 . S
C1522 C1520 1.388 . S
C1522 C1523 1.366 . S
C1523 C1522 1.366 . S
C1523 C1524 1.414 . S
C1523 C1526 1.499 . S
C1524 H1498 0.950 . S
C1524 C1523 1.414 . S
C1524 C1525 1.374 . S
C1525 H1499 0.950 . S
C1525 C1521 1.385 . S
C1525 C1524 1.374 . S
C1526 C1523 1.499 . S
C1526 C1527 1.373 . S
C1526 C1528 1.389 . S
C1527 H1500 0.950 . S
C1527 C1513 1.377 . S
C1527 C1526 1.373 . S
C1528 C1512 1.377 . S
C1528 C1526 1.389 . S
C1528 C1529 1.524 . S
C1529 C1528 1.524 . S
C1529 C1530 1.397 . S
C1529 C1534 1.363 . S
C1530 H1501 0.950 . S
C1530 C1529 1.397 . S
C1530 C1531 1.334 . S
C1531 H1502 0.950 . S
C1531 C1530 1.334 . S
C1531 C1532 1.287 . S
C1532 C1531 1.287 . S
C1532 C1533 1.524 . S
C1532 H1535 0.999 . S
C1533 H1503 0.950 . S
C1533 C1532 1.524 . S
C1533 C1534 1.415 . S
C1534 H1504 0.950 . S
C1534 C1529 1.363 . S
C1534 C1533 1.415 . S
H1535 C1532 0.999 . S
H1536 C1517 0.913 . S
H1537 C1555 0.951 . S
H1538 C1557 0.951 . S
H1539 C1559 0.950 . S
H1540 C1560 0.950 . S
H1541 C1562 0.950 . S
H1542 C1565 0.950 . S
H1543 C1566 0.950 . S
H1544 C1568 0.950 . S
H1545 C1569 0.950 . S
H1546 C1570 0.951 . S
H1547 C1572 0.951 . S
H1548 C1574 0.950 . S
H1549 C1575 0.950 . S
H1550 C1577 0.950 . S
H1551 C1580 0.950 . S
H1552 C1581 0.950 . S
H1553 C1583 0.950 . S
H1554 C1584 0.950 . S
C1555 H1537 0.951 . S
C1555 C1556 1.366 . S
C1555 C1557 1.388 . S
C1556 C1555 1.366 . S
C1556 C1560 1.385 . S
C1557 H1538 0.951 . S
C1557 C1555 1.388 . S
C1557 C1558 1.366 . S
C1558 C1557 1.366 . S
C1558 C1559 1.414 . S
C1558 C1561 1.499 . S
C1559 H1539 0.950 . S
C1559 C1558 1.414 . S
C1559 C1560 1.374 . S
C1560 H1540 0.950 . S
C1560 C1556 1.385 . S
C1560 C1559 1.374 . S
C1561 C1558 1.499 . S
C1561 C1562 1.373 . S
C1561 C1563 1.389 . S
C1562 H1541 0.950 . S
C1562 C1561 1.373 . S
C1562 C1578 1.377 . S
C1563 C1561 1.389 . S
C1563 C1564 1.524 . S
C1563 C1577 1.377 . S
C1564 C1563 1.524 . S
C1564 C1565 1.397 . S
C1564 C1569 1.363 . S
C1565 H1542 0.950 . S
C1565 C1564 1.397 . S
C1565 C1566 1.334 . S
C1566 H1543 0.950 . S
C1566 C1565 1.334 . S
C1566 C1567 1.287 . S
C1567 C1566 1.287 . S
C1567 C1568 1.524 . S
C1567 H1586 0.913 . S
C1568 H1544 0.950 . S
C1568 C1567 1.524 . S
C1568 C1569 1.415 . S
C1569 H1545 0.950 . S
C1569 C1564 1.363 . S
C1569 C1568 1.415 . S
C1570 H1546 0.951 . S
C1570 C1571 1.366 . S
C1570 C1572 1.388 . S
C1571 C1570 1.366 . S
C1571 C1575 1.385 . S
C1572 H1547 0.951 . S
C1572 C1570 1.388 . S
C1572 C1573 1.366 . S
C1573 C1572 1.366 . S
C1573 C1574 1.414 . S
C1573 C1576 1.499 . S
C1574 H1548 0.950 . S
C1574 C1573 1.414 . S
C1574 C1575 1.374 . S
C1575 H1549 0.950 . S
C1575 C1571 1.385 . S
C1575 C1574 1.374 . S
C1576 C1573 1.499 . S
C1576 C1577 1.373 . S
C1576 C1578 1.389 . S
C1577 H1550 0.950 . S
C1577 C1563 1.377 . S
C1577 C1576 1.373 . S
C1578 C1562 1.377 . S
C1578 C1576 1.389 . S
C1578 C1579 1.524 . S
C1579 C1578 1.524 . S
C1579 C1580 1.397 . S
C1579 C1584 1.363 . S
C1580 H1551 0.950 . S
C1580 C1579 1.397 . S
C1580 C1581 1.334 . S
C1581 H1552 0.950 . S
C1581 C1580 1.334 . S
C1581 C1582 1.287 . S
C1582 C1581 1.287 . S
C1582 C1583 1.524 . S
C1582 H1585 0.999 . S
C1583 H1553 0.950 . S
C1583 C1582 1.524 . S
C1583 C1584 1.415 . S
C1584 H1554 0.950 . S
C1584 C1579 1.363 . S
C1584 C1583 1.415 . S
H1585 C1582 0.999 . S
H1586 C1567 0.913 . S
C421 C312 0.975 . S
C406 C1 1.009 . S
C471 C348 1.647 . S
C456 C37 1.754 . S
C521 C313 1.394 . S
C506 C103 1.406 . S
C571 C343 1.549 . S
C556 C139 1.580 . S
C621 C310 1.441 . S
C606 C145 1.479 . S
C656 C205 1.722 . S
C671 C346 1.718 . S
C706 C247 1.120 . S
C721 C315 1.046 . S
C771 C345 1.402 . S
C756 C283 1.428 . S
C821 C349 1.406 . S
C806 C25 1.420 . S
C871 C314 1.450 . S
C856 C67 1.515 . S
C921 C342 1.707 . S
C906 C97 1.715 . S
C971 C311 1.038 . S
C956 C109 1.113 . S
C1021 C344 1.638 . S
C1006 C169 1.713 . S
C1056 C181 1.403 . S
C1071 C309 1.389 . S
C1106 C217 1.549 . S
C1121 C347 1.520 . S
C1171 C316 0.958 . S
C1156 C277 0.992 . S
C1221 C378 1.754 . S
C1206 C31 1.847 . S
C1256 C175 2.003 . S
C1271 C381 1.904 . S
C1321 C380 1.706 . S
C1306 C211 1.779 . S
C1356 C241 2.142 . S
C1371 C379 2.156 . S
C1421 C382 1.729 . S
C1406 C253 1.833 . S
C1456 C73 1.761 . S
C1471 C376 1.692 . S
C1521 C375 2.150 . S
C1506 C133 2.136 . S
C1556 C61 2.032 . S
C1571 C377 1.898 . S
