# Generated by pormake.
# Topology zzz, (3,6)-cn, num edge types: 1
# Building blocks:
#     Node 0, Type 0, BuildingBlock: CUQRIR_clean_linker_1, # of connection points: 3
#     Node 1, Type 0, BuildingBlock: CUQRIR_clean_linker_1, # of connection points: 3
#     Node 2, Type 0, BuildingBlock: CUQRIR_clean_linker_1, # of connection points: 3
#     Node 3, Type 0, BuildingBlock: CUQRIR_clean_linker_1, # of connection points: 3
#     Node 4, Type 0, BuildingBlock: CUQRIR_clean_linker_1, # of connection points: 3
#     Node 5, Type 0, BuildingBlock: CUQRIR_clean_linker_1, # of connection points: 3
#     Node 6, Type 0, BuildingBlock: CUQRIR_clean_linker_1, # of connection points: 3
#     Node 7, Type 0, BuildingBlock: CUQRIR_clean_linker_1, # of connection points: 3
#     Node 8, Type 1, BuildingBlock: LEVNOQ01_clean_sbu_1, # of connection points: 6
#     Node 9, Type 1, BuildingBlock: LEVNOQ01_clean_sbu_1, # of connection points: 6
#     Node 10, Type 1, BuildingBlock: LEVNOQ01_clean_sbu_1, # of connection points: 6
#     Node 11, Type 1, BuildingBlock: LEVNOQ01_clean_sbu_1, # of connection points: 6
#     Edge 12, Type (0, 1), BuildingBlock: UVAHIK_clean_linker_0, # of connection points: 2
#     Edge 13, Type (0, 1), BuildingBlock: UVAHIK_clean_linker_0, # of connection points: 2
#     Edge 14, Type (0, 1), BuildingBlock: UVAHIK_clean_linker_0, # of connection points: 2
#     Edge 15, Type (0, 1), BuildingBlock: UVAHIK_clean_linker_0, # of connection points: 2
#     Edge 16, Type (0, 1), BuildingBlock: UVAHIK_clean_linker_0, # of connection points: 2
#     Edge 17, Type (0, 1), BuildingBlock: UVAHIK_clean_linker_0, # of connection points: 2
#     Edge 18, Type (0, 1), BuildingBlock: UVAHIK_clean_linker_0, # of connection points: 2
#     Edge 19, Type (0, 1), BuildingBlock: UVAHIK_clean_linker_0, # of connection points: 2
#     Edge 20, Type (0, 1), BuildingBlock: UVAHIK_clean_linker_0, # of connection points: 2
#     Edge 21, Type (0, 1), BuildingBlock: UVAHIK_clean_linker_0, # of connection points: 2
#     Edge 22, Type (0, 1), BuildingBlock: UVAHIK_clean_linker_0, # of connection points: 2
#     Edge 23, Type (0, 1), BuildingBlock: UVAHIK_clean_linker_0, # of connection points: 2
#     Edge 24, Type (0, 1), BuildingBlock: UVAHIK_clean_linker_0, # of connection points: 2
#     Edge 25, Type (0, 1), BuildingBlock: UVAHIK_clean_linker_0, # of connection points: 2
#     Edge 26, Type (0, 1), BuildingBlock: UVAHIK_clean_linker_0, # of connection points: 2
#     Edge 27, Type (0, 1), BuildingBlock: UVAHIK_clean_linker_0, # of connection points: 2
#     Edge 28, Type (0, 1), BuildingBlock: UVAHIK_clean_linker_0, # of connection points: 2
#     Edge 29, Type (0, 1), BuildingBlock: UVAHIK_clean_linker_0, # of connection points: 2
#     Edge 30, Type (0, 1), BuildingBlock: UVAHIK_clean_linker_0, # of connection points: 2
#     Edge 31, Type (0, 1), BuildingBlock: UVAHIK_clean_linker_0, # of connection points: 2
#     Edge 32, Type (0, 1), BuildingBlock: UVAHIK_clean_linker_0, # of connection points: 2
#     Edge 33, Type (0, 1), BuildingBlock: UVAHIK_clean_linker_0, # of connection points: 2
#     Edge 34, Type (0, 1), BuildingBlock: UVAHIK_clean_linker_0, # of connection points: 2
#     Edge 35, Type (0, 1), BuildingBlock: UVAHIK_clean_linker_0, # of connection points: 2
# Relax obj value: 0.149
# Max RMSD: 0.186
# Mean RMSD: 0.114
data_MOF--net-zzz--node1-LEVNOQ01_clean_sbu_1--node2-CUQRIR_clean_linker_1--edge1-UVAHIK_clean_linker_0
_symmetry_space_group_name_H-M    P1
_symmetry_Int_Tables_number       1
_symmetry_cell_setting            triclinic
loop_
_symmetry_equiv_pos_as_xyz
'x, y, z'
_cell_length_a     62.017508
_cell_length_b     61.767581
_cell_length_c     18.680258
_cell_angle_alpha  90.071403
_cell_angle_beta   89.93308
_cell_angle_gamma 89.958386
loop_
_atom_site_label
_atom_site_type_symbol
_atom_site_fract_x
_atom_site_fract_y
_atom_site_fract_z
_atom_type_partial_charge
C0 C 0.75034 0.55313 0.18909 0.0
N1 N 0.77182 0.55655 0.18327 0.0
N2 N 0.73992 0.56058 0.1302 0.0
C3 C 0.73981 0.54109 0.24943 0.0
C4 C 0.75595 0.56837 0.08813 0.0
N5 N 0.77533 0.56588 0.1203 0.0
C6 C 0.75275 0.57671 0.0132 0.0
H7 H 0.7413 0.52345 0.23926 0.0
H8 H 0.72246 0.54529 0.25349 0.0
H9 H 0.74803 0.54475 0.30077 0.0
H10 H 0.73944 0.58868 0.01208 0.0
H11 H 0.74814 0.56303 0.9778 0.0
H12 H 0.76753 0.58451 0.99202 0.0
C13 C 0.95172 0.74891 0.19936 0.0
N14 N 0.95169 0.77079 0.19278 0.0
N15 N 0.95164 0.73941 0.13375 0.0
C16 C 0.95282 0.73691 0.26896 0.0
C17 C 0.95161 0.75622 0.08739 0.0
N18 N 0.95162 0.77516 0.12319 0.0
C19 C 0.95301 0.7541 0.0073 0.0
H20 H 0.97 0.73435 0.28314 0.0
H21 H 0.94499 0.72083 0.2642 0.0
H22 H 0.94507 0.7464 0.31241 0.0
H23 H 0.94546 0.76819 0.98041 0.0
H24 H 0.94507 0.73899 0.9889 0.0
H25 H 0.97024 0.75345 0.99143 0.0
C26 C 0.75743 0.94974 0.21347 0.0
N27 N 0.73572 0.94914 0.20523 0.0
N28 N 0.76744 0.94557 0.15033 0.0
C29 C 0.76885 0.95523 0.28181 0.0
C30 C 0.75109 0.94291 0.10328 0.0
N31 N 0.73184 0.94508 0.13654 0.0
C32 C 0.75423 0.9414 0.02341 0.0
H33 H 0.77088 0.97306 0.285 0.0
H34 H 0.78507 0.94765 0.28299 0.0
H35 H 0.75928 0.94987 0.32877 0.0
H36 H 0.76309 0.92628 0.01059 0.0
H37 H 0.76431 0.95515 0.00488 0.0
H38 H 0.73882 0.94147 0.99355 0.0
C39 C 0.55616 0.75995 0.19684 0.0
N40 N 0.55576 0.7381 0.18958 0.0
N41 N 0.55676 0.76958 0.13158 0.0
C42 C 0.55522 0.77186 0.26674 0.0
C43 C 0.55651 0.75289 0.08467 0.0
N44 N 0.55594 0.73387 0.11986 0.0
C45 C 0.55494 0.75528 0.00478 0.0
H46 H 0.53808 0.77469 0.28103 0.0
H47 H 0.56334 0.7878 0.26229 0.0
H48 H 0.56279 0.76216 0.30993 0.0
H49 H 0.56207 0.74109 0.97707 0.0
H50 H 0.56315 0.77027 0.98671 0.0
H51 H 0.53767 0.75641 0.98967 0.0
C52 C 0.25671 0.45041 0.19469 0.0
N53 N 0.23497 0.44884 0.19997 0.0
N54 N 0.26587 0.44956 0.2606 0.0
C55 C 0.26879 0.45463 0.12658 0.0
C56 C 0.24891 0.44783 0.3058 0.0
N57 N 0.23023 0.44722 0.26907 0.0
C58 C 0.25044 0.44886 0.38601 0.0
H59 H 0.28525 0.44764 0.12938 0.0
H60 H 0.27029 0.47239 0.11907 0.0
H61 H 0.26 0.44781 0.08003 0.0
H62 H 0.24998 0.46607 0.40309 0.0
H63 H 0.26582 0.44164 0.40476 0.0
H64 H 0.23664 0.44032 0.41115 0.0
C65 C 0.05819 0.25873 0.19904 0.0
N66 N 0.05901 0.23691 0.20549 0.0
N67 N 0.0624 0.26832 0.26284 0.0
C68 C 0.05221 0.27062 0.132 0.0
C69 C 0.06525 0.25155 0.3084 0.0
N70 N 0.06334 0.2325 0.2735 0.0
C71 C 0.06681 0.25381 0.38838 0.0
H72 H 0.05967 0.28695 0.13135 0.0
H73 H 0.03443 0.2726 0.13042 0.0
H74 H 0.05727 0.26133 0.08395 0.0
H75 H 0.05062 0.25781 0.41009 0.0
H76 H 0.07788 0.26722 0.40268 0.0
H77 H 0.07256 0.23859 0.41346 0.0
C78 C 0.24554 0.0612 0.18356 0.0
N79 N 0.26726 0.06017 0.19103 0.0
N80 N 0.23586 0.06273 0.24868 0.0
C81 C 0.23384 0.06051 0.11342 0.0
C82 C 0.25244 0.06204 0.29575 0.0
N83 N 0.27141 0.06058 0.26071 0.0
C84 C 0.24987 0.06049 0.37576 0.0
H85 H 0.21805 0.06889 0.11761 0.0
H86 H 0.23089 0.04336 0.09871 0.0
H87 H 0.24372 0.06802 0.07058 0.0
H88 H 0.23565 0.05042 0.38957 0.0
H89 H 0.24714 0.07697 0.3977 0.0
H90 H 0.26439 0.05354 0.40162 0.0
C91 C 0.45075 0.25239 0.19697 0.0
N92 N 0.44859 0.27405 0.20527 0.0
N93 N 0.44728 0.24213 0.26003 0.0
C94 C 0.4582 0.24151 0.12955 0.0
C95 C 0.44336 0.25834 0.30701 0.0
N96 N 0.44406 0.27772 0.27367 0.0
C97 C 0.44058 0.25529 0.38628 0.0
H98 H 0.45265 0.22443 0.12782 0.0
H99 H 0.47608 0.24165 0.12823 0.0
H100 H 0.45222 0.25038 0.0819 0.0
H101 H 0.45672 0.25384 0.41138 0.0
H102 H 0.43154 0.24017 0.39746 0.0
H103 H 0.43202 0.26927 0.41056 0.0
O104 O 0.02953 0.96707 0.81097 0.0
Mg105 Mg 0.03545 0.97422 0.70316 0.0
O106 O -0.00051 0.98511 0.79403 0.0
Mg107 Mg 0.00041 0.0063 0.69145 0.0
O108 O 0.03838 0.00586 0.67073 0.0
O109 O 0.0661 0.98272 0.68422 0.0
O110 O 0.00089 0.02754 0.58663 0.0
O111 O 0.00698 0.03678 0.76346 0.0
Mg112 Mg 0.96347 0.03709 0.66889 0.0
O113 O 0.96335 0.0076 0.71761 0.0
O114 O 0.96777 0.03644 0.55802 0.0
O115 O 0.98147 0.05998 0.73051 0.0
O116 O 0.93368 0.02791 0.70357 0.0
C117 C 0.00293 0.95864 0.59912 0.0
C118 C 0.01099 0.97254 0.83213 0.0
C119 C 0.05899 0.00151 0.66548 0.0
C120 C 0.9875 0.0355 0.54188 0.0
C121 C -0.00175 0.05552 0.76667 0.0
C122 C 0.94276 0.01059 0.72764 0.0
O123 O 0.02142 0.95433 0.62404 0.0
O124 O 0.99286 0.97579 0.61828 0.0
O125 O 0.45006 0.98291 0.74394 0.0
Mg126 Mg 0.47259 0.96884 0.67251 0.0
O127 O 0.47134 0.01015 0.77414 0.0
Mg128 Mg 0.50173 0.00531 0.69846 0.0
O129 O 0.50284 0.96746 0.71649 0.0
O130 O 0.48213 0.93838 0.69566 0.0
O131 O 0.53243 0.00144 0.62533 0.0
O132 O 0.52436 0.0041 0.7965 0.0
Mg133 Mg 0.53039 0.04471 0.72946 0.0
O134 O 0.50146 0.04259 0.6793 0.0
O135 O 0.55324 0.02869 0.66132 0.0
O136 O 0.52919 0.03669 0.83874 0.0
O137 O 0.5181 0.0741 0.69934 0.0
C138 C 0.46988 0.99529 0.5528 0.0
C139 C 0.45348 -0.0001 0.7805 0.0
C140 C 0.49977 0.94658 0.72027 0.0
C141 C 0.55029 0.01188 0.62289 0.0
C142 C 0.53163 0.01651 0.84505 0.0
C143 C 0.50234 0.06347 0.6712 0.0
O144 O 0.46849 0.97517 0.563 0.0
O145 O 0.47966 0.00701 0.59844 0.0
O146 O 0.5229 0.44943 0.72279 0.0
Mg147 Mg 0.54067 0.47166 0.65794 0.0
O148 O 0.49766 0.47265 0.75861 0.0
Mg149 Mg 0.50394 0.5036 0.68892 0.0
O150 O 0.54103 0.50093 0.70819 0.0
O151 O 0.57082 0.48132 0.68924 0.0
O152 O 0.51163 0.53425 0.61722 0.0
O153 O 0.50656 0.52403 0.79379 0.0
Mg154 Mg 0.47025 0.53628 0.70659 0.0
O155 O 0.46583 0.50508 0.67165 0.0
O156 O 0.48398 0.55666 0.62824 0.0
O157 O 0.47681 0.54224 0.81448 0.0
O158 O 0.43921 0.52914 0.68992 0.0
C159 C 0.51386 0.47473 0.53587 0.0
C160 C 0.50637 0.45386 0.76052 0.0
C161 C 0.56169 0.49824 0.71624 0.0
C162 C 0.50202 0.55187 0.60069 0.0
C163 C 0.49538 0.53641 0.83392 0.0
C164 C 0.44537 0.51022 0.66886 0.0
O165 O 0.53377 0.47264 0.54816 0.0
O166 O 0.50165 0.48325 0.58323 0.0
O167 O 0.96105 0.47146 0.81898 0.0
Mg168 Mg 0.96882 0.46246 0.71345 0.0
O169 O 0.97793 0.50248 0.80249 0.0
Mg170 Mg 0.00103 0.50223 0.70404 0.0
O171 O 0.00041 0.46498 0.68557 0.0
O172 O 0.98323 0.43325 0.69279 0.0
O173 O 0.02396 0.50245 0.60354 0.0
O174 O 0.03037 0.49472 0.78191 0.0
Mg175 Mg 0.03308 0.53818 0.7077 0.0
O176 O 0.00056 0.54015 0.72534 0.0
O177 O 0.04316 0.53245 0.60311 0.0
O178 O 0.05071 0.52395 0.79164 0.0
O179 O 0.02312 0.56864 0.72427 0.0
C180 C 0.95527 0.49668 0.60502 0.0
C181 C 0.96519 0.4906 0.83892 0.0
C182 C 0.00015 0.44415 0.67507 0.0
C183 C 0.0377 0.51491 0.57353 0.0
C184 C 0.04647 0.50466 0.80928 0.0
C185 C 0.00399 0.56089 0.73356 0.0
O186 O 0.95141 0.478 0.63045 0.0
O187 O 0.97148 0.50791 0.62604 0.0
C188 C 0.20442 0.07795 0.31107 0.0
C189 C 0.21333 0.06188 0.26687 0.0
C190 C 0.18446 0.07475 0.34432 0.0
C191 C 0.15309 0.02924 0.41228 0.0
H192 H 0.11115 0.07311 0.46512 0.0
C193 C 0.09669 0.01334 0.644 0.0
C194 C 0.07458 0.01651 0.63159 0.0
C195 C 0.11204 0.02246 0.59868 0.0
C196 C 0.12267 0.06068 0.45046 0.0
H197 H 0.20802 0.03055 0.21877 0.0
H198 H 0.17283 0.02492 0.2757 0.0
H199 H 0.13937 0.08159 0.37717 0.0
H200 H 0.05137 0.03412 0.5688 0.0
H201 H 0.07829 0.04972 0.4866 0.0
H202 H 0.13671 0.00835 0.48508 0.0
C203 C 0.18133 0.03995 0.28544 0.0
C204 C 0.13886 0.06554 0.40037 0.0
C205 C 0.20129 0.04322 0.25208 0.0
C206 C 0.06826 0.03101 0.57779 0.0
C207 C 0.08369 0.03997 0.53126 0.0
C208 C 0.13708 0.02446 0.46223 0.0
C209 C 0.17309 0.0553 0.33426 0.0
C210 C 0.15441 0.0499 0.38128 0.0
C211 C 0.10569 0.03479 0.53919 0.0
C212 C 0.1219 0.04019 0.48307 0.0
H213 H 0.21361 0.09238 0.32336 0.0
H214 H 0.17873 0.08684 0.38183 0.0
H215 H 0.16493 0.01688 0.39989 0.0
H216 H 0.10216 0.00268 0.68629 0.0
H217 H 0.1289 0.01885 0.60807 0.0
C218 C 0.43304 0.20586 0.28469 0.0
C219 C 0.4507 0.21979 0.27764 0.0
C220 C 0.43572 0.18522 0.31418 0.0
C221 C 0.47664 0.14419 0.36726 0.0
H222 H 0.43565 0.13065 0.5177 0.0
C223 C 0.48807 0.06971 0.54878 0.0
C224 C 0.48802 0.0751 0.62176 0.0
C225 C 0.47964 0.08412 0.49817 0.0
C226 C 0.44711 0.1341 0.47544 0.0
H227 H 0.48494 0.22344 0.29368 0.0
H228 H 0.48989 0.18731 0.34547 0.0
H229 H 0.42966 0.16215 0.44161 0.0
H230 H 0.47877 0.09929 0.6997 0.0
H231 H 0.46359 0.12428 0.61193 0.0
H232 H 0.49457 0.11663 0.40332 0.0
C233 C 0.474 0.19201 0.32723 0.0
C234 C 0.44362 0.15206 0.43144 0.0
C235 C 0.47125 0.21264 0.29774 0.0
C236 C 0.47847 0.09458 0.64381 0.0
C237 C 0.46984 0.10887 0.59348 0.0
C238 C 0.48005 0.12613 0.41097 0.0
C239 C 0.45616 0.17825 0.33747 0.0
C240 C 0.4586 0.15762 0.3779 0.0
C241 C 0.47104 0.10416 0.51989 0.0
C242 C 0.46559 0.12118 0.46667 0.0
H243 H 0.41706 0.21134 0.27003 0.0
H244 H 0.42171 0.17495 0.32059 0.0
H245 H 0.48838 0.14793 0.32614 0.0
H246 H 0.4959 0.05502 0.53045 0.0
H247 H 0.48069 0.08001 0.44188 0.0
C248 C 0.29265 0.474 0.31293 0.0
C249 C 0.28773 0.45411 0.28094 0.0
C250 C 0.31263 0.47724 0.34556 0.0
C251 C 0.35673 0.44693 0.43228 0.0
H252 H 0.3826 0.50401 0.4389 0.0
C253 C 0.43477 0.47863 0.58985 0.0
C254 C 0.42902 0.49623 0.63379 0.0
C255 C 0.41949 0.46939 0.54327 0.0
C256 C 0.37568 0.48791 0.43691 0.0
H257 H 0.2996 0.42214 0.25592 0.0
H258 H 0.33508 0.42782 0.31181 0.0
H259 H 0.35318 0.49696 0.3558 0.0
H260 H 0.40204 0.51585 0.67044 0.0
H261 H 0.37588 0.49992 0.58988 0.0
H262 H 0.37932 0.43824 0.51496 0.0
C263 C 0.32344 0.4409 0.3123 0.0
C264 C 0.35873 0.4839 0.38975 0.0
C265 C 0.30335 0.4377 0.27957 0.0
C266 C 0.40727 0.50273 0.636 0.0
C267 C 0.3922 0.49364 0.58983 0.0
C268 C 0.37394 0.45094 0.47925 0.0
C269 C 0.32818 0.4606 0.34695 0.0
C270 C 0.3485 0.4636 0.3885 0.0
C271 C 0.39836 0.47762 0.54084 0.0
C272 C 0.38306 0.47168 0.48336 0.0
H273 H 0.28058 0.48666 0.31548 0.0
H274 H 0.31544 0.49248 0.37272 0.0
H275 H 0.34917 0.43115 0.43314 0.0
H276 H 0.45124 0.47287 0.58871 0.0
H277 H 0.42444 0.45676 0.50655 0.0
C278 C 0.07825 0.3024 0.3052 0.0
C279 C 0.06015 0.29066 0.28278 0.0
C280 C 0.07581 0.32269 0.33749 0.0
C281 C 0.03606 0.36672 0.37419 0.0
H282 H 0.06998 0.37492 0.54643 0.0
C283 C 0.01851 0.43846 0.55942 0.0
C284 C 0.01658 0.43306 0.6319 0.0
C285 C 0.02884 0.42444 0.51158 0.0
C286 C 0.06042 0.37294 0.49839 0.0
H287 H 0.02547 0.29075 0.27419 0.0
H288 H 0.02092 0.32619 0.33119 0.0
H289 H 0.07714 0.34396 0.4691 0.0
H290 H 0.02375 0.40887 0.71191 0.0
H291 H 0.0416 0.38412 0.62882 0.0
H292 H 0.01849 0.39494 0.40556 0.0
C293 C 0.0371 0.32008 0.32279 0.0
C294 C 0.06468 0.35529 0.4535 0.0
C295 C 0.03961 0.29982 0.29015 0.0
C296 C 0.02574 0.41371 0.65656 0.0
C297 C 0.03594 0.39954 0.60876 0.0
C298 C 0.03177 0.38433 0.41914 0.0
C299 C 0.05515 0.33154 0.34855 0.0
C300 C 0.05224 0.35169 0.39159 0.0
C301 C 0.03688 0.40436 0.53512 0.0
C302 C 0.04359 0.38742 0.48265 0.0
H303 H 0.09419 0.29539 0.30025 0.0
H304 H 0.09008 0.33118 0.35556 0.0
H305 H 0.02635 0.36464 0.32653 0.0
H306 H 0.01033 0.45262 0.53869 0.0
H307 H 0.0294 0.42877 0.45545 0.0
C308 C 0.80127 0.93098 0.10185 0.0
C309 C 0.78974 0.94836 0.13131 0.0
C310 C 0.82106 0.93446 0.06776 0.0
C311 C 0.86421 0.9755 0.03553 0.0
H312 H 0.87006 0.94539 0.85425 0.0
C313 C 0.93557 0.99309 0.84531 0.0
C314 C 0.92981 -0.00377 0.7735 0.0
C315 C 0.92099 0.98365 0.89341 0.0
C316 C 0.86872 0.95392 0.90474 0.0
H317 H 0.78978 0.98282 0.15039 0.0
H318 H 0.82436 0.98918 0.09056 0.0
H319 H 0.8401 0.9367 0.93332 0.0
H320 H 0.90448 0.99213 0.69524 0.0
H321 H 0.879 0.97568 0.77853 0.0
H322 H 0.89225 0.99349 0.00508 0.0
C323 C 0.81848 0.97273 0.09484 0.0
C324 C 0.85165 0.94876 0.95063 0.0
C325 C 0.79874 0.96916 0.12935 0.0
C326 C 0.90947 0.98933 0.75003 0.0
C327 C 0.8949 0.9799 0.79787 0.0
C328 C 0.8813 0.98068 0.98955 0.0
C329 C 0.8296 0.9555 0.06171 0.0
C330 C 0.84896 0.9597 0.01622 0.0
C331 C 0.90025 0.97745 0.87064 0.0
C332 C 0.88356 0.9702 0.92298 0.0
H333 H 0.7944 0.91487 0.10232 0.0
H334 H 0.82931 0.92076 0.04408 0.0
H335 H 0.86279 0.98412 0.08584 0.0
H336 H 0.95086 -0.00094 0.86516 0.0
H337 H 0.92571 0.98187 0.94889 0.0
C338 C 0.57393 0.80454 0.10542 0.0
C339 C 0.55516 0.79211 0.11346 0.0
C340 C 0.57309 0.82467 0.07087 0.0
C341 C 0.55694 0.8489 0.92364 0.0
H342 H 0.53554 0.90395 0.99435 0.0
C343 C 0.51359 0.90959 0.74513 0.0
C344 C 0.51488 0.93195 0.75822 0.0
C345 C 0.52425 0.89485 0.78901 0.0
C346 C 0.542 0.88886 0.97391 0.0
H347 H 0.52088 0.79081 0.09423 0.0
H348 H 0.51923 0.8263 0.035 0.0
H349 H 0.5424 0.87421 0.0784 0.0
H350 H 0.52953 0.95649 0.82539 0.0
H351 H 0.54844 0.93049 0.90278 0.0
H352 H 0.55568 0.86291 0.81903 0.0
C353 C 0.53449 0.82062 0.05598 0.0
C354 C 0.54577 0.87186 0.02202 0.0
C355 C 0.53538 0.80048 0.08996 0.0
C356 C 0.52826 0.93935 0.81385 0.0
C357 C 0.53891 0.92446 0.8585 0.0
C358 C 0.55307 0.86579 0.87559 0.0
C359 C 0.55342 0.83258 0.04454 0.0
C360 C 0.55278 0.85163 0.99686 0.0
C361 C 0.53655 0.90199 0.84755 0.0
C362 C 0.54487 0.88577 0.89978 0.0
H363 H 0.58936 0.79804 0.12192 0.0
H364 H 0.58788 0.83356 0.06176 0.0
H365 H 0.56225 0.83336 0.90321 0.0
H366 H 0.50347 0.90333 0.70264 0.0
H367 H 0.52178 0.87774 0.7793 0.0
C368 C 0.71052 0.53575 0.09677 0.0
C369 C 0.71794 0.55688 0.10875 0.0
C370 C 0.69039 0.53222 0.06493 0.0
C371 C 0.65289 0.55899 0.94143 0.0
H372 H 0.6155 0.51068 0.98728 0.0
C373 C 0.59457 0.52011 0.73894 0.0
C374 C 0.57466 0.51224 0.76322 0.0
C375 C 0.60932 0.52914 0.78697 0.0
C376 C 0.62557 0.52445 0.97436 0.0
H377 H 0.70999 0.59082 0.10107 0.0
H378 H 0.6747 0.58483 0.04534 0.0
H379 H 0.64609 0.51897 0.06487 0.0
H380 H 0.55455 0.5073 0.85637 0.0
H381 H 0.5802 0.52347 0.94079 0.0
H382 H 0.63267 0.5642 0.85012 0.0
C383 C 0.68447 0.57095 0.05958 0.0
C384 C 0.64325 0.52905 0.01843 0.0
C385 C 0.70454 0.57441 0.09168 0.0
C386 C 0.56952 0.51396 0.83614 0.0
C387 C 0.58434 0.52287 0.88448 0.0
C388 C 0.63532 0.55432 0.89717 0.0
C389 C 0.67736 0.54982 0.04419 0.0
C390 C 0.65733 0.54616 0.00184 0.0
C391 C 0.60464 0.5301 0.86064 0.0
C392 C 0.62166 0.53676 0.91236 0.0
H393 H 0.72077 0.52204 0.10886 0.0
H394 H 0.68555 0.51575 0.05325 0.0
H395 H 0.66351 0.57216 0.92661 0.0
H396 H 0.5991 0.51839 0.68318 0.0
H397 H 0.62491 0.53421 0.76689 0.0
C398 C 0.93524 0.70345 0.11806 0.0
C399 C 0.95342 0.71694 0.11482 0.0
C400 C 0.9353 0.68337 0.0829 0.0
C401 C 0.94911 0.66124 0.92252 0.0
H402 H 0.96506 0.60422 0.9911 0.0
C403 C 0.98962 0.59809 0.74678 0.0
C404 C 0.98736 0.5759 0.76113 0.0
C405 C 0.97873 0.61345 0.78782 0.0
C406 C 0.96 0.61989 0.97125 0.0
H407 H 0.98607 0.71998 0.07595 0.0
H408 H 0.98629 0.6848 0.01461 0.0
H409 H 0.96037 0.63407 0.07657 0.0
H410 H 0.97014 0.55228 0.82412 0.0
H411 H 0.95084 0.57933 0.89703 0.0
H412 H 0.94947 0.64759 0.81724 0.0
C413 C 0.97212 0.68963 0.04466 0.0
C414 C 0.95748 0.63694 0.02019 0.0
C415 C 0.97205 0.70959 0.07981 0.0
C416 C 0.97228 0.56928 0.8127 0.0
C417 C 0.96144 0.58475 0.85466 0.0
C418 C 0.95154 0.64426 0.87373 0.0
C419 C 0.95355 0.67668 0.04425 0.0
C420 C 0.95263 0.65783 0.99575 0.0
C421 C 0.96529 0.60701 0.84454 0.0
C422 C 0.9578 0.62355 0.89716 0.0
H423 H 0.92062 0.7091 0.1437 0.0
H424 H 0.92077 0.67365 0.08253 0.0
H425 H 0.94536 0.67729 0.90274 0.0
H426 H 0.00103 0.6037 0.70693 0.0
H427 H 0.98222 0.63038 0.77845 0.0
C428 C 0.03685 0.20772 0.32389 0.0
C429 C 0.05828 0.21218 0.30611 0.0
C430 C 0.03094 0.18708 0.34613 0.0
C431 C 0.047 0.13022 0.33173 0.0
H432 H 0.00416 0.1232 0.4812 0.0
C433 C 0.01731 0.04962 0.46436 0.0
C434 C -0.00462 0.04944 0.48316 0.0
C435 C 0.02626 0.06772 0.43054 0.0
C436 C 0.01598 0.12494 0.43882 0.0
H437 H 0.09056 0.19934 0.29812 0.0
H438 H 0.08036 0.16277 0.33824 0.0
H439 H 0.01866 0.15896 0.45658 0.0
H440 H 0.96481 0.06613 0.46879 0.0
H441 H 0.98027 0.09725 0.4087 0.0
H442 H 0.0443 0.09588 0.315 0.0
C443 C 0.06808 0.1752 0.33454 0.0
C444 C 0.02433 0.14539 0.42494 0.0
C445 C 0.07398 0.196 0.31244 0.0
C446 C 0.98191 0.06595 0.45695 0.0
C447 C 0.99077 0.08389 0.42296 0.0
C448 C 0.03872 0.1096 0.34612 0.0
C449 C 0.04643 0.17051 0.35081 0.0
C450 C 0.03957 0.14835 0.37029 0.0
C451 C 0.01317 0.08558 0.41413 0.0
C452 C 0.02276 0.10694 0.39868 0.0
H453 H 0.0246 0.2201 0.31793 0.0
H454 H 0.01409 0.18391 0.35716 0.0
H455 H 0.05866 0.13208 0.28895 0.0
H456 H 0.02774 0.03649 0.48029 0.0
H457 H 0.04355 0.06845 0.42278 0.0
C458 C 0.30148 0.03539 0.27633 0.0
C459 C 0.29195 0.05544 0.29133 0.0
C460 C 0.32241 0.03103 0.29885 0.0
C461 C 0.36383 0.0475 0.42744 0.0
H462 H 0.40221 0.01813 0.29469 0.0
C463 C 0.44999 0.02761 0.50873 0.0
C464 C 0.45546 0.00567 0.50024 0.0
C465 C 0.43239 0.03635 0.47269 0.0
C466 C 0.39166 0.02635 0.3322 0.0
H467 H 0.29595 0.08645 0.34288 0.0
H468 H 0.3329 0.07891 0.38352 0.0
H469 H 0.36584 0.02797 0.25661 0.0
H470 H 0.44772 0.97609 0.44314 0.0
H471 H 0.41675 0.99131 0.38062 0.0
H472 H 0.38943 0.0455 0.5035 0.0
C473 C 0.32421 0.06654 0.35427 0.0
C474 C 0.37086 0.03189 0.31062 0.0
C475 C 0.30321 0.07087 0.33141 0.0
C476 C 0.44396 0.99307 0.45061 0.0
C477 C 0.42625 0.00181 0.41469 0.0
C478 C 0.38464 0.04199 0.44897 0.0
C479 C 0.33413 0.04669 0.33704 0.0
C480 C 0.35663 0.0422 0.35844 0.0
C481 C 0.41978 0.02328 0.42781 0.0
C482 C 0.39866 0.0311 0.40186 0.0
H483 H 0.29278 0.02329 0.24588 0.0
H484 H 0.32943 0.01543 0.28622 0.0
H485 H 0.35313 0.05521 0.46566 0.0
H486 H 0.45813 0.0376 0.54773 0.0
H487 H 0.42793 0.05303 0.48304 0.0
C488 C 0.46291 0.30365 0.35027 0.0
C489 C 0.44526 0.29862 0.30681 0.0
C490 C 0.46637 0.32491 0.3724 0.0
C491 C 0.45501 0.38078 0.31726 0.0
H492 H 0.48189 0.39371 0.49966 0.0
C493 C 0.48184 0.46251 0.46501 0.0
C494 C 0.50417 0.4617 0.4778 0.0
C495 C 0.47149 0.44519 0.43107 0.0
C496 C 0.47423 0.39028 0.44876 0.0
H497 H 0.41699 0.31115 0.25377 0.0
H498 H 0.42265 0.3486 0.29386 0.0
H499 H 0.46808 0.35739 0.47709 0.0
H500 H 0.53362 0.44393 0.45422 0.0
H501 H 0.51549 0.4139 0.39554 0.0
H502 H 0.46151 0.41396 0.28956 0.0
C503 C 0.43398 0.33622 0.31015 0.0
C504 C 0.46644 0.36954 0.43566 0.0
C505 C 0.43061 0.31489 0.28781 0.0
C506 C 0.51634 0.44494 0.44648 0.0
C507 C 0.50601 0.42769 0.4129 0.0
C508 C 0.46268 0.4017 0.33079 0.0
C509 C 0.45217 0.34152 0.3515 0.0
C510 C 0.45733 0.36435 0.36901 0.0
C511 C 0.48348 0.42716 0.40889 0.0
C512 C 0.47283 0.40631 0.39593 0.0
H513 H 0.47462 0.2913 0.36375 0.0
H514 H 0.48078 0.32846 0.40294 0.0
H515 H 0.44824 0.37724 0.26513 0.0
H516 H 0.47221 0.47564 0.48619 0.0
H517 H 0.45406 0.44507 0.42753 0.0
C518 C 0.19434 0.43524 0.30782 0.0
C519 C 0.20934 0.45186 0.29784 0.0
C520 C 0.17294 0.44024 0.32447 0.0
C521 C 0.13383 0.4852 0.31273 0.0
H522 H 0.10357 0.45436 0.46281 0.0
C523 C 0.06575 0.5213 0.48012 0.0
C524 C 0.05031 0.5075 0.51095 0.0
C525 C 0.08169 0.51299 0.43516 0.0
C526 C 0.11155 0.46281 0.41946 0.0
H527 H 0.21465 0.48636 0.29878 0.0
H528 H 0.17739 0.49534 0.3306 0.0
H529 H 0.13935 0.44244 0.42672 0.0
H530 H 0.03806 0.47486 0.51204 0.0
H531 H 0.06562 0.4602 0.43257 0.0
H532 H 0.10633 0.5061 0.3075 0.0
C533 C 0.18182 0.47849 0.32394 0.0
C534 C 0.13211 0.45602 0.39908 0.0
C535 C 0.20311 0.47345 0.30703 0.0
C536 C 0.04977 0.48574 0.48966 0.0
C537 C 0.06569 0.47737 0.44457 0.0
C538 C 0.11327 0.49201 0.33315 0.0
C539 C 0.16641 0.46196 0.33142 0.0
C540 C 0.14369 0.46755 0.34704 0.0
C541 C 0.08242 0.49073 0.41985 0.0
C542 C 0.10217 0.48124 0.38814 0.0
H543 H 0.19904 0.41852 0.29996 0.0
H544 H 0.1614 0.42719 0.32974 0.0
H545 H 0.14222 0.49408 0.2712 0.0
H546 H 0.06653 0.53826 0.49477 0.0
H547 H 0.09438 0.52374 0.41724 0.0
C548 C 0.93896 0.80752 0.05969 0.0
C549 C 0.95557 0.79615 0.09361 0.0
C550 C 0.94189 0.8292 0.04096 0.0
C551 C 0.97567 0.87656 0.0859 0.0
H552 H 0.95793 0.89755 0.89965 0.0
C553 C 0.01373 0.94831 0.9385 0.0
C554 C 0.00092 0.96009 0.89041 0.0
C555 C 0.00467 0.93165 0.97903 0.0
C556 C 0.96253 0.89213 0.95262 0.0
H557 H 0.9882 0.79758 0.13319 0.0
H558 H 0.99377 0.83537 0.09884 0.0
H559 H 0.94931 0.86066 0.93441 0.0
H560 H 0.96851 0.96453 0.85027 0.0
H561 H 0.9525 0.9363 0.92326 0.0
H562 H 0.98969 0.90785 0.10266 0.0
C563 C 0.97833 0.82788 0.08798 0.0
C564 C 0.95765 0.87095 0.97235 0.0
C565 C 0.97534 0.80629 0.10665 0.0
C566 C 0.97861 0.95629 0.88854 0.0
C567 C 0.96953 0.93976 0.92925 0.0
C568 C 0.98061 0.89776 0.06605 0.0
C569 C 0.9615 0.83969 0.05614 0.0
C570 C 0.96465 0.86279 0.03841 0.0
C571 C 0.98269 0.92654 0.97187 0.0
C572 C 0.9745 0.90558 0.99857 0.0
H573 H 0.92352 0.79984 0.05051 0.0
H574 H 0.92863 0.83793 0.0167 0.0
H575 H 0.98086 0.87081 0.13786 0.0
H576 H 0.031 0.95085 0.94075 0.0
H577 H 0.01525 0.92165 0.01115 0.0
C578 C 0.70416 0.97174 0.10816 0.0
C579 C 0.71199 0.9506 0.10187 0.0
C580 C 0.68473 0.97749 0.07683 0.0
C581 C 0.63457 0.95494 0.00021 0.0
H582 H 0.62896 0.01441 0.93738 0.0
C583 C 0.55165 0.99257 0.9302 0.0
C584 C 0.55143 0.00923 0.87953 0.0
C585 C 0.57136 0.9843 0.95449 0.0
C586 C 0.63016 -0.00241 0.95306 0.0
H587 H 0.70636 0.91883 0.05741 0.0
H588 H 0.67242 0.92909 0.9983 0.0
H589 H 0.66349 0.00134 0.97608 0.0
H590 H 0.57099 0.02927 0.81008 0.0
H591 H 0.60492 0.01414 0.84798 0.0
H592 H 0.60139 0.95089 0.97222 0.0
C593 C 0.68097 0.94109 0.02956 0.0
C594 C 0.65002 0.9902 0.97686 0.0
C595 C 0.70036 0.93523 0.06258 0.0
C596 C 0.57089 0.01702 0.85162 0.0
C597 C 0.59039 0.00831 0.8736 0.0
C598 C 0.61471 0.96219 0.97415 0.0
C599 C 0.67296 0.96234 0.03645 0.0
C600 C 0.65236 0.96901 0.00284 0.0
C601 C 0.591 0.99206 0.92617 0.0
C602 C 0.61216 0.98376 0.95146 0.0
H603 H 0.71313 0.98378 0.13796 0.0
H604 H 0.67888 0.99382 0.08511 0.0
H605 H 0.63578 0.93852 0.02 0.0
H606 H 0.53668 0.98596 0.95062 0.0
H607 H 0.57116 0.97191 0.9954 0.0
C608 C 0.53169 0.70318 0.10224 0.0
C609 C 0.55165 0.713 0.08961 0.0
C610 C 0.52844 0.68158 0.08398 0.0
C611 C 0.54908 0.63759 0.97116 0.0
H612 H 0.51675 0.60161 0.10343 0.0
C613 C 0.52806 0.552 0.89081 0.0
C614 C 0.50574 0.54832 0.89297 0.0
C615 C 0.53722 0.56856 0.93134 0.0
C616 C 0.5259 0.61144 0.06624 0.0
H617 H 0.58376 0.70871 0.04736 0.0
H618 H 0.5782 0.67062 0.01427 0.0
H619 H 0.52537 0.63893 0.136 0.0
H620 H 0.4758 0.55755 0.94463 0.0
H621 H 0.49165 0.58676 0.01445 0.0
H622 H 0.54905 0.61047 0.90041 0.0
C623 C 0.56498 0.67961 0.03788 0.0
C624 C 0.53072 0.6328 0.0846 0.0
C625 C 0.56817 0.7013 0.05619 0.0
C626 C 0.49307 0.56004 0.94189 0.0
C627 C 0.50219 0.57673 0.98213 0.0
C628 C 0.5443 0.61625 0.95287 0.0
C629 C 0.5452 0.66943 0.05295 0.0
C630 C 0.54189 0.64623 0.03645 0.0
C631 C 0.52413 0.58191 0.97407 0.0
C632 C 0.53225 0.60309 -0.00047 0.0
H633 H 0.51889 0.71214 0.12845 0.0
H634 H 0.51288 0.67433 0.09475 0.0
H635 H 0.55753 0.6476 0.93273 0.0
H636 H 0.53809 0.54369 0.85233 0.0
H637 H 0.55424 0.572 0.92489 0.0
C638 C 0.80099 0.55542 0.02639 0.0
C639 C 0.79624 0.56768 0.08751 0.0
C640 C 0.82211 0.55392 0.00148 0.0
C641 C 0.87657 0.55352 0.07084 0.0
H642 H 0.89064 0.54605 0.87 0.0
C643 C 0.95629 0.52071 0.92439 0.0
C644 C 0.95079 0.50091 0.89193 0.0
C645 C 0.94038 0.53339 0.9575 0.0
C646 C 0.88705 0.5485 0.92623 0.0
H647 H 0.80935 0.58864 0.16924 0.0
H648 H 0.84671 0.58578 0.12637 0.0
H649 H 0.85635 0.56274 0.9037 0.0
H650 H 0.92475 0.47799 0.87435 0.0
H651 H 0.89724 0.50016 0.93118 0.0
H652 H 0.90697 0.53816 0.0927 0.0
C653 C 0.83405 0.57746 0.09746 0.0
C654 C 0.86745 0.55791 0.94551 0.0
C655 C 0.81279 0.57915 0.12183 0.0
C656 C 0.9296 0.49312 0.89888 0.0
C657 C 0.91377 0.50586 0.93082 0.0
C658 C 0.89628 0.54415 0.0514 0.0
C659 C 0.83897 0.56444 0.03787 0.0
C660 C 0.86159 0.55961 0.01796 0.0
C661 C 0.91889 0.52638 0.95776 0.0
C662 C 0.90117 0.54084 0.97902 0.0
H663 H 0.78852 0.54603 0.00035 0.0
H664 H 0.8254 0.54341 0.95631 0.0
H665 H 0.87242 0.55446 0.1271 0.0
H666 H 0.97259 0.52689 0.92073 0.0
H667 H 0.9446 0.54908 0.97919 0.0
C668 C 0.03324 0.21874 0.12439 0.0
C669 C 0.05407 0.2206 0.15274 0.0
C670 C 0.02762 0.2007 0.08272 0.0
C671 C 0.04455 0.14388 0.04521 0.0
H672 H 0.0073 0.1502 0.88033 0.0
C673 C 0.01129 0.06993 0.8848 0.0
C674 C 0.00776 0.07282 0.81122 0.0
C675 C 0.0176 0.0875 0.9278 0.0
C676 C 0.01795 0.14807 0.92565 0.0
H677 H 0.08542 0.2056 0.15947 0.0
H678 H 0.07595 0.17429 0.08572 0.0
H679 H 0.01698 0.18191 0.95005 0.0
H680 H 0.00916 0.09574 0.72398 0.0
H681 H 0.02136 0.12593 0.79733 0.0
H682 H 0.04607 0.1101 0.01941 0.0
C683 C 0.06376 0.18645 0.09614 0.0
C684 C 0.02323 0.16631 0.96644 0.0
C685 C 0.06931 0.20446 0.13754 0.0
C686 C 0.01159 0.09319 0.78079 0.0
C687 C 0.01835 0.11055 0.82317 0.0
C688 C 0.03937 0.1256 0.00407 0.0
C689 C 0.04275 0.18414 0.06889 0.0
C690 C 0.03671 0.16453 0.02652 0.0
C691 C 0.02085 0.10819 0.89767 0.0
C692 C 0.02614 0.12746 0.9432 0.0
H693 H 0.02111 0.23077 0.13709 0.0
H694 H 0.01122 0.19939 0.06342 0.0
H695 H 0.05468 0.14179 0.0919 0.0
H696 H 0.00821 0.05438 0.90954 0.0
H697 H 0.01916 0.085 0.98491 0.0
C698 C 0.30116 0.07261 0.13657 0.0
C699 C 0.28372 0.05812 0.13671 0.0
C700 C 0.31992 0.06801 0.09773 0.0
C701 C 0.34995 0.02099 0.02811 0.0
H702 H 0.38379 0.0635 0.92466 0.0
C703 C 0.4169 0.99544 0.83484 0.0
C704 C 0.43592 0.00772 0.82868 0.0
C705 C 0.39964 0.00262 0.87645 0.0
C706 C 0.37472 0.0515 0.95427 0.0
H707 H 0.27177 0.0279 0.09436 0.0
H708 H 0.30431 0.01997 0.02426 0.0
H709 H 0.35025 0.07446 0.98372 0.0
H710 H 0.45162 0.03732 0.86298 0.0
H711 H 0.42124 0.0499 0.93692 0.0
H712 H 0.37427 -0.00196 -0.00073 0.0
C713 C 0.30365 0.03482 0.05507 0.0
C714 C 0.35541 0.05776 0.98783 0.0
C715 C 0.28485 0.03949 0.09394 0.0
C716 C 0.43724 0.02742 0.86647 0.0
C717 C 0.41979 0.03469 0.90848 0.0
C718 C 0.36921 0.01477 0.99497 0.0
C719 C 0.32167 0.04871 0.05818 0.0
C720 C 0.34255 0.04246 0.0239 0.0
C721 C 0.40073 0.02233 0.91383 0.0
C722 C 0.38164 0.0298 0.95618 0.0
H723 H 0.30068 0.08692 0.17012 0.0
H724 H 0.33346 0.079 0.10189 0.0
H725 H 0.34086 0.00891 0.05733 0.0
H726 H 0.4151 0.98023 0.80658 0.0
H727 H 0.38516 0.99284 0.87787 0.0
C728 C 0.43755 0.2995 0.11119 0.0
C729 C 0.45376 0.29075 0.15454 0.0
C730 C 0.44158 0.31798 0.07 0.0
C731 C 0.47794 0.36538 0.05706 0.0
H732 H 0.45809 0.36776 0.86046 0.0
C733 C 0.48741 0.44127 0.87251 0.0
C734 C 0.49731 0.43656 0.80652 0.0
C735 C 0.48041 0.42445 0.91742 0.0
C736 C 0.46365 0.36736 0.9154 0.0
H737 H 0.48663 0.29421 0.19043 0.0
H738 H 0.49408 0.3263 0.11696 0.0
H739 H 0.44974 0.33615 0.93373 0.0
H740 H 0.50696 0.41066 0.73489 0.0
H741 H 0.49421 0.38153 0.81186 0.0
H742 H 0.49216 0.39655 0.03788 0.0
C743 C 0.47819 0.31907 0.1149 0.0
C744 C 0.45877 0.34932 0.95752 0.0
C745 C 0.47412 0.30057 0.15595 0.0
C746 C 0.49948 0.41481 0.78551 0.0
C747 C 0.49208 0.39812 0.82943 0.0
C748 C 0.48263 0.38358 0.01504 0.0
C749 C 0.4619 0.32812 0.0718 0.0
C750 C 0.46615 0.34792 0.02849 0.0
C751 C 0.48268 0.40269 0.89617 0.0
C752 C 0.47584 0.38458 0.94336 0.0
H753 H 0.42159 0.29241 0.11129 0.0
H754 H 0.42859 0.32468 0.03825 0.0
H755 H 0.48361 0.36495 0.11186 0.0
H756 H 0.48566 0.45789 0.89024 0.0
H757 H 0.47317 0.42843 0.96858 0.0
C758 C 0.21582 0.4713 0.11087 0.0
C759 C 0.21885 0.45129 0.14497 0.0
C760 C 0.19705 0.47523 0.071 0.0
C761 C 0.14036 0.45996 0.06592 0.0
H762 H 0.13958 0.48372 0.8739 0.0
C763 C 0.06663 0.50058 0.92404 0.0
C764 C 0.06226 0.49319 0.85444 0.0
C765 C 0.08475 0.49301 0.96122 0.0
C766 C 0.13958 0.47699 0.92743 0.0
H767 H 0.20532 0.41955 0.16239 0.0
H768 H 0.17236 0.4264 0.09372 0.0
H769 H 0.17417 0.47607 0.93223 0.0
H770 H 0.07309 0.4721 0.76913 0.0
H771 H 0.1052 0.45935 0.8333 0.0
H772 H 0.10575 0.46154 0.0619 0.0
C773 C 0.18442 0.43902 0.09747 0.0
C774 C 0.15935 0.47276 0.96088 0.0
C775 C 0.2033 0.43503 0.13605 0.0
C776 C 0.07591 0.47767 0.82334 0.0
C777 C 0.09436 0.47057 0.85968 0.0
C778 C 0.12059 0.46464 0.03304 0.0
C779 C 0.18087 0.45931 0.06578 0.0
C780 C 0.15994 0.46406 0.03027 0.0
C781 C 0.09919 0.47851 0.92838 0.0
C782 C 0.12002 0.47306 0.96326 0.0
H783 H 0.22736 0.48423 0.11861 0.0
H784 H 0.19466 0.49105 0.04739 0.0
H785 H 0.14036 0.45344 0.11976 0.0
H786 H 0.0565 0.51283 0.9485 0.0
H787 H 0.08815 0.49944 0.014 0.0
C788 C 0.93768 0.80446 0.24532 0.0
C789 C 0.95249 0.78725 0.24771 0.0
C790 C 0.94117 0.82332 0.28501 0.0
C791 C 0.96716 0.8467 0.44067 0.0
H792 H 0.97104 0.89961 0.32933 0.0
C793 C 0.9738 0.93217 0.56927 0.0
C794 C 0.99301 0.94272 0.55024 0.0
C795 C 0.96688 0.91393 0.53084 0.0
C796 C 0.96984 0.88498 0.36104 0.0
H797 H 0.98198 0.77578 0.29615 0.0
H798 H 0.98751 0.80845 0.3696 0.0
H799 H 0.96282 0.86519 0.26941 0.0
H800 H 0.0195 0.94328 0.47476 0.0
H801 H 0.00676 0.91213 0.40519 0.0
H802 H 0.97389 0.86656 0.53241 0.0
C803 C 0.97337 0.80738 0.3358 0.0
C804 C 0.96513 0.86534 0.3269 0.0
C805 C 0.9701 0.78863 0.29462 0.0
C806 C 0.00452 0.93552 0.48992 0.0
C807 C -0.00273 0.9177 0.45033 0.0
C808 C 0.97135 0.86644 0.47505 0.0
C809 C 0.95928 0.82516 0.32955 0.0
C810 C 0.96391 0.84598 0.36634 0.0
C811 C 0.97876 0.90632 0.47173 0.0
C812 C 0.97287 0.88573 0.43551 0.0
H813 H 0.92401 0.80373 0.20942 0.0
H814 H 0.92996 0.83668 0.27968 0.0
H815 H 0.96627 0.83203 0.47222 0.0
H816 H 0.96487 0.93723 0.61628 0.0
H817 H 0.95253 0.90544 0.54826 0.0
C818 C 0.71787 0.97348 0.29278 0.0
C819 C 0.71901 0.95346 0.2574 0.0
C820 C 0.69948 0.97908 0.33261 0.0
C821 C 0.65042 0.95632 0.41974 0.0
H822 H 0.62838 0.01464 0.3975 0.0
C823 C 0.56837 0.98401 0.54307 0.0
C824 C 0.56832 0.00456 0.57575 0.0
C825 C 0.5861 0.97718 0.50177 0.0
C826 C 0.63438 -0.00166 0.40493 0.0
H827 H 0.70218 0.92353 0.23648 0.0
H828 H 0.67021 0.93301 0.30672 0.0
H829 H 0.66116 0.0039 0.33479 0.0
H830 H 0.58685 0.0341 0.58912 0.0
H831 H 0.61739 0.02226 0.51814 0.0
H832 H 0.62366 0.95081 0.49026 0.0
C833 C 0.68348 0.94438 0.30453 0.0
C834 C 0.65326 0.99219 0.36904 0.0
C835 C 0.70177 0.9389 0.26445 0.0
C836 C 0.58623 0.01816 0.56502 0.0
C837 C 0.60378 0.01142 0.52364 0.0
C838 C 0.63153 0.96249 0.45583 0.0
C839 C 0.68189 0.96471 0.33812 0.0
C840 C 0.66168 0.97116 0.37643 0.0
C841 C 0.60408 0.99081 0.49166 0.0
C842 C 0.62337 0.98366 0.44952 0.0
H843 H 0.7307 0.9852 0.28657 0.0
H844 H 0.69891 0.9948 0.35822 0.0
H845 H 0.65647 0.94002 0.42705 0.0
H846 H 0.55489 0.97309 0.55026 0.0
H847 H 0.58568 0.96126 0.47748 0.0
C848 C 0.56896 0.70406 0.24165 0.0
C849 C 0.5545 0.72156 0.24406 0.0
C850 C 0.5651 0.68532 0.28141 0.0
C851 C 0.53835 0.66294 0.43771 0.0
H852 H 0.53488 0.60944 0.32897 0.0
C853 C 0.53097 0.57847 0.57113 0.0
C854 C 0.51199 0.56762 0.55154 0.0
C855 C 0.53803 0.59646 0.53187 0.0
C856 C 0.53595 0.62424 0.35994 0.0
H857 H 0.52519 0.73363 0.29245 0.0
H858 H 0.51899 0.70115 0.36593 0.0
H859 H 0.54353 0.64349 0.26767 0.0
H860 H 0.48602 0.56627 0.47445 0.0
H861 H 0.49899 0.59704 0.40348 0.0
H862 H 0.53106 0.64363 0.5301 0.0
C863 C 0.53316 0.7019 0.33209 0.0
C864 C 0.54091 0.64368 0.32503 0.0
C865 C 0.53681 0.72055 0.29088 0.0
C866 C 0.50083 0.57428 0.49002 0.0
C867 C 0.50821 0.59187 0.44964 0.0
C868 C 0.5339 0.64342 0.47287 0.0
C869 C 0.54695 0.68387 0.32602 0.0
C870 C 0.54201 0.66325 0.36352 0.0
C871 C 0.5265 0.60354 0.47144 0.0
C872 C 0.53252 0.62391 0.43429 0.0
H873 H 0.5827 0.70452 0.20587 0.0
H874 H 0.5761 0.67176 0.27625 0.0
H875 H 0.53914 0.67777 0.46857 0.0
H876 H 0.53964 0.5738 0.61903 0.0
H877 H 0.55221 0.60517 0.54962 0.0
C878 C 0.79465 0.56123 0.28974 0.0
C879 C 0.78856 0.54887 0.23018 0.0
C880 C 0.8133 0.55599 0.32825 0.0
C881 C 0.85103 0.51166 0.36742 0.0
H882 H 0.89161 0.55751 0.41163 0.0
C883 C 0.93214 0.49114 0.49799 0.0
C884 C 0.94006 0.50516 0.55096 0.0
C885 C 0.91512 0.49743 0.45373 0.0
C886 C 0.88039 0.54452 0.40065 0.0
H887 H 0.79667 0.52139 0.16396 0.0
H888 H 0.82907 0.51168 0.23233 0.0
H889 H 0.85821 0.56601 0.34844 0.0
H890 H 0.93695 0.53703 0.59783 0.0
H891 H 0.90656 0.5479 0.52245 0.0
H892 H 0.87256 0.49022 0.42116 0.0
C893 C 0.81948 0.52539 0.2496 0.0
C894 C 0.86123 0.54941 0.36424 0.0
C895 C 0.80096 0.53081 0.21076 0.0
C896 C 0.93125 0.52601 0.55686 0.0
C897 C 0.91382 0.53219 0.51349 0.0
C898 C 0.86999 0.5068 0.40459 0.0
C899 C 0.82607 0.53814 0.30811 0.0
C900 C 0.84636 0.53303 0.34719 0.0
C901 C 0.90511 0.51773 0.46254 0.0
C902 C 0.88504 0.52312 0.42163 0.0
H903 H 0.78542 0.57544 0.30447 0.0
H904 H 0.81784 0.566 0.37342 0.0
H905 H 0.83979 0.49872 0.35577 0.0
H906 H 0.9388 0.47501 0.49193 0.0
H907 H 0.90951 0.48609 0.41367 0.0
loop_
_geom_bond_atom_site_label_1
_geom_bond_atom_site_label_2
_geom_bond_distance
_geom_bond_site_symmetry_2
_ccdc_geom_bond_type
C0 N1 1.317 . S
C0 N2 1.348 . S
C0 C3 1.485 . S
N1 C0 1.317 . S
N1 N5 1.370 . S
N2 C0 1.348 . S
N2 C4 1.346 . S
C3 C0 1.485 . S
C3 H7 0.960 . S
C3 H8 0.961 . S
C3 H9 0.960 . S
C4 N2 1.346 . S
C4 N5 1.307 . S
C4 C6 1.486 1_554 S
N5 N1 1.370 . S
N5 C4 1.307 . S
C6 C4 1.486 1_556 S
C6 H10 0.960 . S
C6 H11 0.960 . S
C6 H12 0.959 . S
H7 C3 0.960 . S
H8 C3 0.961 . S
H9 C3 0.960 . S
H10 C6 0.960 . S
H11 C6 0.960 . S
H12 C6 0.959 . S
C13 N14 1.317 . S
C13 N15 1.348 . S
C13 C16 1.485 . S
N14 C13 1.317 . S
N14 N18 1.370 . S
N15 C13 1.348 . S
N15 C17 1.346 . S
C16 C13 1.485 . S
C16 H20 0.960 . S
C16 H21 0.961 . S
C16 H22 0.960 . S
C17 N15 1.346 . S
C17 N18 1.307 . S
C17 C19 1.486 1_554 S
N18 N14 1.370 . S
N18 C17 1.307 . S
C19 C17 1.486 1_556 S
C19 H23 0.960 . S
C19 H24 0.960 . S
C19 H25 0.959 . S
H20 C16 0.960 . S
H21 C16 0.961 . S
H22 C16 0.960 . S
H23 C19 0.960 . S
H24 C19 0.960 . S
H25 C19 0.959 . S
C26 N27 1.317 . S
C26 N28 1.348 . S
C26 C29 1.485 . S
N27 C26 1.317 . S
N27 N31 1.370 . S
N28 C26 1.348 . S
N28 C30 1.346 . S
C29 C26 1.485 . S
C29 H33 0.960 . S
C29 H34 0.961 . S
C29 H35 0.960 . S
C30 N28 1.346 . S
C30 N31 1.307 . S
C30 C32 1.486 1_554 S
N31 N27 1.370 . S
N31 C30 1.307 . S
C32 C30 1.486 1_556 S
C32 H36 0.960 . S
C32 H37 0.960 . S
C32 H38 0.959 . S
H33 C29 0.960 . S
H34 C29 0.961 . S
H35 C29 0.960 . S
H36 C32 0.960 . S
H37 C32 0.960 . S
H38 C32 0.959 . S
C39 N40 1.317 . S
C39 N41 1.348 . S
C39 C42 1.485 . S
N40 C39 1.317 . S
N40 N44 1.370 . S
N41 C39 1.348 . S
N41 C43 1.346 . S
C42 C39 1.485 . S
C42 H46 0.960 . S
C42 H47 0.961 . S
C42 H48 0.960 . S
C43 N41 1.346 . S
C43 N44 1.307 . S
C43 C45 1.486 1_554 S
N44 N40 1.370 . S
N44 C43 1.307 . S
C45 C43 1.486 1_556 S
C45 H49 0.960 . S
C45 H50 0.960 . S
C45 H51 0.959 . S
H46 C42 0.960 . S
H47 C42 0.961 . S
H48 C42 0.960 . S
H49 C45 0.960 . S
H50 C45 0.960 . S
H51 C45 0.959 . S
C52 N53 1.317 . S
C52 N54 1.348 . S
C52 C55 1.485 . S
N53 C52 1.317 . S
N53 N57 1.370 . S
N54 C52 1.348 . S
N54 C56 1.346 . S
C55 C52 1.485 . S
C55 H59 0.960 . S
C55 H60 0.961 . S
C55 H61 0.960 . S
C56 N54 1.346 . S
C56 N57 1.307 . S
C56 C58 1.486 . S
N57 N53 1.370 . S
N57 C56 1.307 . S
C58 C56 1.486 . S
C58 H62 0.960 . S
C58 H63 0.960 . S
C58 H64 0.959 . S
H59 C55 0.960 . S
H60 C55 0.961 . S
H61 C55 0.960 . S
H62 C58 0.960 . S
H63 C58 0.960 . S
H64 C58 0.959 . S
C65 N66 1.317 . S
C65 N67 1.348 . S
C65 C68 1.485 . S
N66 C65 1.317 . S
N66 N70 1.370 . S
N67 C65 1.348 . S
N67 C69 1.346 . S
C68 C65 1.485 . S
C68 H72 0.960 . S
C68 H73 0.961 . S
C68 H74 0.960 . S
C69 N67 1.346 . S
C69 N70 1.307 . S
C69 C71 1.486 . S
N70 N66 1.370 . S
N70 C69 1.307 . S
C71 C69 1.486 . S
C71 H75 0.960 . S
C71 H76 0.960 . S
C71 H77 0.959 . S
H72 C68 0.960 . S
H73 C68 0.961 . S
H74 C68 0.960 . S
H75 C71 0.960 . S
H76 C71 0.960 . S
H77 C71 0.959 . S
C78 N79 1.317 . S
C78 N80 1.348 . S
C78 C81 1.485 . S
N79 C78 1.317 . S
N79 N83 1.370 . S
N80 C78 1.348 . S
N80 C82 1.346 . S
C81 C78 1.485 . S
C81 H85 0.960 . S
C81 H86 0.961 . S
C81 H87 0.960 . S
C82 N80 1.346 . S
C82 N83 1.307 . S
C82 C84 1.486 . S
N83 N79 1.370 . S
N83 C82 1.307 . S
C84 C82 1.486 . S
C84 H88 0.960 . S
C84 H89 0.960 . S
C84 H90 0.959 . S
H85 C81 0.960 . S
H86 C81 0.961 . S
H87 C81 0.960 . S
H88 C84 0.960 . S
H89 C84 0.960 . S
H90 C84 0.959 . S
C91 N92 1.317 . S
C91 N93 1.348 . S
C91 C94 1.485 . S
N92 C91 1.317 . S
N92 N96 1.370 . S
N93 C91 1.348 . S
N93 C95 1.346 . S
C94 C91 1.485 . S
C94 H98 0.960 . S
C94 H99 0.961 . S
C94 H100 0.960 . S
C95 N93 1.346 . S
C95 N96 1.307 . S
C95 C97 1.486 . S
N96 N92 1.370 . S
N96 C95 1.307 . S
C97 C95 1.486 . S
C97 H101 0.960 . S
C97 H102 0.960 . S
C97 H103 0.959 . S
H98 C94 0.960 . S
H99 C94 0.961 . S
H100 C94 0.960 . S
H101 C97 0.960 . S
H102 C97 0.960 . S
H103 C97 0.959 . S
O104 Mg105 1.990 . S
O104 C118 1.253 . S
Mg105 O104 1.990 . S
Mg105 O108 2.180 1_565 S
Mg105 O109 2.117 . S
Mg105 O123 2.030 . S
O106 Mg107 2.072 1_565 S
O106 C118 1.260 . S
Mg107 O106 2.072 1_545 S
Mg107 O108 2.099 . S
Mg107 O110 2.079 . S
Mg107 O111 2.072 . S
Mg107 O113 2.099 1_455 S
Mg107 O124 2.079 1_445 S
O108 Mg105 2.180 1_545 S
O108 Mg107 2.099 . S
O108 C119 1.279 . S
O109 Mg105 2.117 . S
O109 C119 1.250 1_565 S
O110 Mg107 2.079 . S
O110 C120 1.264 . S
O111 Mg107 2.072 . S
O111 C121 1.260 . S
Mg112 O113 2.180 . S
Mg112 O114 2.030 . S
Mg112 O115 1.990 . S
Mg112 O116 2.117 . S
O113 Mg107 2.099 1_655 S
O113 Mg112 2.180 . S
O113 C122 1.279 . S
O114 Mg112 2.030 . S
O114 C120 1.248 1_655 S
O115 Mg112 1.990 . S
O115 C121 1.253 1_655 S
O116 Mg112 2.117 . S
O116 C122 1.250 . S
C117 O123 1.249 . S
C117 O124 1.263 1_455 S
C118 O104 1.253 . S
C118 O106 1.260 . S
C119 O108 1.279 . S
C119 O109 1.250 1_545 S
C120 O110 1.264 . S
C120 O114 1.248 1_455 S
C121 O111 1.260 . S
C121 O115 1.253 1_455 S
C122 O113 1.279 . S
C122 O116 1.250 . S
O123 Mg105 2.030 . S
O123 C117 1.249 . S
O124 Mg107 2.079 1_665 S
O124 C117 1.263 1_655 S
O125 Mg126 1.990 . S
O125 C139 1.253 1_565 S
Mg126 O125 1.990 . S
Mg126 O129 2.180 . S
Mg126 O130 2.117 . S
Mg126 O144 2.030 . S
O127 Mg128 2.072 . S
O127 C139 1.260 . S
Mg128 O127 2.072 . S
Mg128 O129 2.099 1_545 S
Mg128 O131 2.079 1_545 S
Mg128 O132 2.072 . S
Mg128 O134 2.099 . S
Mg128 O145 2.079 . S
O129 Mg126 2.180 . S
O129 Mg128 2.099 1_565 S
O129 C140 1.279 . S
O130 Mg126 2.117 . S
O130 C140 1.250 . S
O131 Mg128 2.079 1_565 S
O131 C141 1.258 1_565 S
O132 Mg128 2.072 . S
O132 C142 1.260 . S
Mg133 O134 2.180 . S
Mg133 O135 2.030 . S
Mg133 O136 1.990 . S
Mg133 O137 2.117 . S
O134 Mg128 2.099 . S
O134 Mg133 2.180 . S
O134 C143 1.279 . S
O135 Mg133 2.030 . S
O135 C141 1.275 . S
O136 Mg133 1.990 . S
O136 C142 1.253 . S
O137 Mg133 2.117 . S
O137 C143 1.250 . S
C138 O144 1.248 1_545 S
C138 O145 1.264 . S
C139 O125 1.253 1_545 S
C139 O127 1.260 . S
C140 O129 1.279 . S
C140 O130 1.250 . S
C141 O131 1.258 1_545 S
C141 O135 1.275 . S
C142 O132 1.260 . S
C142 O136 1.253 . S
C143 O134 1.279 . S
C143 O137 1.250 . S
O144 Mg126 2.030 . S
O144 C138 1.248 1_565 S
O145 Mg128 2.079 . S
O145 C138 1.264 . S
O146 Mg147 1.990 . S
O146 C160 1.253 . S
Mg147 O146 1.990 . S
Mg147 O150 2.180 . S
Mg147 O151 2.117 . S
Mg147 O165 2.030 . S
O148 Mg149 2.072 . S
O148 C160 1.260 . S
Mg149 O148 2.072 . S
Mg149 O150 2.099 . S
Mg149 O152 2.079 . S
Mg149 O153 2.072 . S
Mg149 O155 2.099 . S
Mg149 O166 2.079 . S
O150 Mg147 2.180 . S
O150 Mg149 2.099 . S
O150 C161 1.279 . S
O151 Mg147 2.117 . S
O151 C161 1.250 . S
O152 Mg149 2.079 . S
O152 C162 1.264 . S
O153 Mg149 2.072 . S
O153 C163 1.260 . S
Mg154 O155 2.180 . S
Mg154 O156 2.030 . S
Mg154 O157 1.990 . S
Mg154 O158 2.117 . S
O155 Mg149 2.099 . S
O155 Mg154 2.180 . S
O155 C164 1.279 . S
O156 Mg154 2.030 . S
O156 C162 1.248 . S
O157 Mg154 1.990 . S
O157 C163 1.253 . S
O158 Mg154 2.117 . S
O158 C164 1.250 . S
C159 O165 1.248 . S
C159 O166 1.264 . S
C160 O146 1.253 . S
C160 O148 1.260 . S
C161 O150 1.279 . S
C161 O151 1.250 . S
C162 O152 1.264 . S
C162 O156 1.248 . S
C163 O153 1.260 . S
C163 O157 1.253 . S
C164 O155 1.279 . S
C164 O158 1.250 . S
O165 Mg147 2.030 . S
O165 C159 1.248 . S
O166 Mg149 2.079 . S
O166 C159 1.264 . S
O167 Mg168 1.990 . S
O167 C181 1.253 . S
Mg168 O167 1.990 . S
Mg168 O171 2.158 1_655 S
Mg168 O172 2.117 . S
Mg168 O186 2.030 . S
O169 Mg170 2.072 1_655 S
O169 C181 1.260 . S
Mg170 O169 2.072 1_455 S
Mg170 O171 2.104 . S
Mg170 O173 2.079 . S
Mg170 O174 2.072 . S
Mg170 O176 2.099 . S
Mg170 O187 2.079 1_455 S
O171 Mg168 2.158 1_455 S
O171 Mg170 2.104 . S
O171 C182 1.281 . S
O172 Mg168 2.117 . S
O172 C182 1.250 1_655 S
O173 Mg170 2.079 . S
O173 C183 1.264 . S
O174 Mg170 2.072 . S
O174 C184 1.260 . S
Mg175 O176 2.180 . S
Mg175 O177 2.030 . S
Mg175 O178 1.990 . S
Mg175 O179 2.117 . S
O176 Mg170 2.099 . S
O176 Mg175 2.180 . S
O176 C185 1.279 . S
O177 Mg175 2.030 . S
O177 C183 1.248 . S
O178 Mg175 1.990 . S
O178 C184 1.253 . S
O179 Mg175 2.117 . S
O179 C185 1.250 . S
C180 O186 1.248 . S
C180 O187 1.264 . S
C181 O167 1.253 . S
C181 O169 1.260 . S
C182 O171 1.281 . S
C182 O172 1.250 1_455 S
C183 O173 1.264 . S
C183 O177 1.248 . S
C184 O174 1.260 . S
C184 O178 1.253 . S
C185 O176 1.279 . S
C185 O179 1.250 . S
O186 Mg168 2.030 . S
O186 C180 1.248 . S
O187 Mg170 2.079 1_655 S
O187 C180 1.264 . S
C188 C189 1.349 . S
C188 C190 1.327 . S
C188 H213 0.950 . S
C189 C188 1.349 . S
C189 C205 1.349 . S
C190 C188 1.327 . S
C190 C209 1.429 . S
C190 H214 0.950 . S
C191 C208 1.574 . S
C191 C210 1.368 . S
C191 H215 0.949 . S
H192 C196 0.949 . S
C193 C194 1.333 1_565 S
C193 C195 1.324 1_565 S
C193 H216 0.969 . S
C194 C193 1.333 1_545 S
C194 C206 1.349 . S
C195 C193 1.324 1_545 S
C195 C211 1.429 . S
C195 H217 0.950 1_545 S
C196 H192 0.949 . S
C196 C204 1.574 . S
C196 C212 1.368 . S
H197 C205 0.950 . S
H198 C203 0.950 . S
H199 C204 0.949 . S
H200 C206 0.950 . S
H201 C207 0.950 . S
H202 C208 0.949 1_565 S
C203 H198 0.950 . S
C203 C205 1.327 . S
C203 C209 1.429 . S
C204 C196 1.574 . S
C204 H199 0.949 . S
C204 C210 1.368 . S
C205 C189 1.349 . S
C205 H197 0.950 . S
C205 C203 1.327 . S
C206 C194 1.349 . S
C206 H200 0.950 . S
C206 C207 1.327 . S
C207 H201 0.950 . S
C207 C206 1.327 . S
C207 C211 1.429 . S
C208 C191 1.574 . S
C208 H202 0.949 1_545 S
C208 C212 1.368 . S
C209 C190 1.429 . S
C209 C203 1.429 . S
C209 C210 1.523 . S
C210 C191 1.368 . S
C210 C204 1.368 . S
C210 C209 1.523 . S
C211 C195 1.429 . S
C211 C207 1.429 . S
C211 C212 1.523 . S
C212 C196 1.368 . S
C212 C208 1.368 . S
C212 C211 1.523 . S
H213 C188 0.950 . S
H214 C190 0.950 . S
H215 C191 0.949 . S
H216 C193 0.969 . S
H217 C195 0.950 1_565 S
C218 C219 1.349 . S
C218 C220 1.327 . S
C218 H243 0.950 . S
C219 C218 1.349 . S
C219 C235 1.349 . S
C220 C218 1.327 . S
C220 C239 1.429 . S
C220 H244 0.950 . S
C221 C238 1.574 . S
C221 C240 1.368 . S
C221 H245 0.949 . S
H222 C226 0.949 . S
C223 C224 1.349 . S
C223 C225 1.327 . S
C223 H246 0.950 . S
C224 C223 1.349 . S
C224 C236 1.349 . S
C225 C223 1.327 . S
C225 C241 1.429 . S
C225 H247 0.950 . S
C226 H222 0.949 . S
C226 C234 1.574 . S
C226 C242 1.368 . S
H227 C235 0.950 . S
H228 C233 0.950 . S
H229 C234 0.949 . S
H230 C236 0.950 . S
H231 C237 0.950 . S
H232 C238 0.949 . S
C233 H228 0.950 . S
C233 C235 1.327 . S
C233 C239 1.429 . S
C234 C226 1.574 . S
C234 H229 0.949 . S
C234 C240 1.368 . S
C235 C219 1.349 . S
C235 H227 0.950 . S
C235 C233 1.327 . S
C236 C224 1.349 . S
C236 H230 0.950 . S
C236 C237 1.327 . S
C237 H231 0.950 . S
C237 C236 1.327 . S
C237 C241 1.429 . S
C238 C221 1.574 . S
C238 H232 0.949 . S
C238 C242 1.368 . S
C239 C220 1.429 . S
C239 C233 1.429 . S
C239 C240 1.523 . S
C240 C221 1.368 . S
C240 C234 1.368 . S
C240 C239 1.523 . S
C241 C225 1.429 . S
C241 C237 1.429 . S
C241 C242 1.523 . S
C242 C226 1.368 . S
C242 C238 1.368 . S
C242 C241 1.523 . S
H243 C218 0.950 . S
H244 C220 0.950 . S
H245 C221 0.949 . S
H246 C223 0.950 . S
H247 C225 0.950 . S
C248 C249 1.349 . S
C248 C250 1.327 . S
C248 H273 0.950 . S
C249 C248 1.349 . S
C249 C265 1.349 . S
C250 C248 1.327 . S
C250 C269 1.429 . S
C250 H274 0.950 . S
C251 C268 1.574 . S
C251 C270 1.368 . S
C251 H275 0.949 . S
H252 C256 0.949 . S
C253 C254 1.349 . S
C253 C255 1.327 . S
C253 H276 0.950 . S
C254 C253 1.349 . S
C254 C266 1.349 . S
C255 C253 1.327 . S
C255 C271 1.429 . S
C255 H277 0.950 . S
C256 H252 0.949 . S
C256 C264 1.574 . S
C256 C272 1.368 . S
H257 C265 0.950 . S
H258 C263 0.950 . S
H259 C264 0.949 . S
H260 C266 0.950 . S
H261 C267 0.950 . S
H262 C268 0.949 . S
C263 H258 0.950 . S
C263 C265 1.327 . S
C263 C269 1.429 . S
C264 C256 1.574 . S
C264 H259 0.949 . S
C264 C270 1.368 . S
C265 C249 1.349 . S
C265 H257 0.950 . S
C265 C263 1.327 . S
C266 C254 1.349 . S
C266 H260 0.950 . S
C266 C267 1.327 . S
C267 H261 0.950 . S
C267 C266 1.327 . S
C267 C271 1.429 . S
C268 C251 1.574 . S
C268 H262 0.949 . S
C268 C272 1.368 . S
C269 C250 1.429 . S
C269 C263 1.429 . S
C269 C270 1.523 . S
C270 C251 1.368 . S
C270 C264 1.368 . S
C270 C269 1.523 . S
C271 C255 1.429 . S
C271 C267 1.429 . S
C271 C272 1.523 . S
C272 C256 1.368 . S
C272 C268 1.368 . S
C272 C271 1.523 . S
H273 C248 0.950 . S
H274 C250 0.950 . S
H275 C251 0.949 . S
H276 C253 0.950 . S
H277 C255 0.950 . S
C278 C279 1.349 . S
C278 C280 1.327 . S
C278 H303 0.950 . S
C279 C278 1.349 . S
C279 C295 1.349 . S
C280 C278 1.327 . S
C280 C299 1.429 . S
C280 H304 0.950 . S
C281 C298 1.574 . S
C281 C300 1.368 . S
C281 H305 0.949 . S
H282 C286 0.949 . S
C283 C284 1.349 . S
C283 C285 1.327 . S
C283 H306 0.950 1_455 S
C284 C283 1.349 . S
C284 C296 1.349 . S
C285 C283 1.327 . S
C285 C301 1.429 . S
C285 H307 0.950 1_455 S
C286 H282 0.949 . S
C286 C294 1.574 . S
C286 C302 1.368 . S
H287 C295 0.950 . S
H288 C293 0.950 . S
H289 C294 0.949 . S
H290 C296 0.950 . S
H291 C297 0.950 . S
H292 C298 0.951 . S
C293 H288 0.950 . S
C293 C295 1.327 . S
C293 C299 1.429 . S
C294 C286 1.574 . S
C294 H289 0.949 . S
C294 C300 1.368 . S
C295 C279 1.349 . S
C295 H287 0.950 . S
C295 C293 1.327 . S
C296 C284 1.349 . S
C296 H290 0.950 . S
C296 C297 1.327 . S
C297 H291 0.950 . S
C297 C296 1.327 . S
C297 C301 1.429 . S
C298 C281 1.574 . S
C298 H292 0.951 . S
C298 C302 1.368 . S
C299 C280 1.429 . S
C299 C293 1.429 . S
C299 C300 1.523 . S
C300 C281 1.368 . S
C300 C294 1.368 . S
C300 C299 1.523 . S
C301 C285 1.429 . S
C301 C297 1.429 . S
C301 C302 1.523 . S
C302 C286 1.368 . S
C302 C298 1.368 . S
C302 C301 1.523 . S
H303 C278 0.950 . S
H304 C280 0.950 . S
H305 C281 0.949 . S
H306 C283 0.950 1_655 S
H307 C285 0.950 1_655 S
C308 C309 1.349 1_556 S
C308 C310 1.327 . S
C308 H333 0.950 . S
C309 C308 1.349 1_554 S
C309 C325 1.349 . S
C310 C308 1.327 . S
C310 C329 1.429 . S
C310 H334 0.950 . S
C311 C328 1.569 1_565 S
C311 C330 1.392 . S
C311 H335 0.933 1_566 S
H312 C316 0.949 . S
C313 C314 1.349 . S
C313 C315 1.327 . S
C313 H336 0.950 . S
C314 C313 1.349 . S
C314 C326 1.349 1_545 S
C315 C313 1.327 . S
C315 C331 1.429 1_545 S
C315 H337 0.950 . S
C316 H312 0.949 . S
C316 C324 1.574 . S
C316 C332 1.368 . S
H317 C325 0.950 . S
H318 C323 0.950 1_545 S
H319 C324 0.949 . S
H320 C326 0.950 . S
H321 C327 0.950 . S
H322 C328 0.949 . S
C323 H318 0.950 1_565 S
C323 C325 1.327 . S
C323 C329 1.429 1_554 S
C324 C316 1.574 . S
C324 H319 0.949 . S
C324 C330 1.368 . S
C325 C309 1.349 . S
C325 H317 0.950 . S
C325 C323 1.327 . S
C326 C314 1.349 1_565 S
C326 H320 0.950 . S
C326 C327 1.327 . S
C327 H321 0.950 . S
C327 C326 1.327 . S
C327 C331 1.429 . S
C328 C311 1.569 1_545 S
C328 H322 0.949 . S
C328 C332 1.368 1_545 S
C329 C310 1.429 . S
C329 C323 1.429 1_556 S
C329 C330 1.523 . S
C330 C311 1.392 . S
C330 C324 1.368 . S
C330 C329 1.523 . S
C331 C315 1.429 1_565 S
C331 C327 1.429 . S
C331 C332 1.523 . S
C332 C316 1.368 . S
C332 C328 1.368 1_565 S
C332 C331 1.523 . S
H333 C308 0.950 . S
H334 C310 0.950 . S
H335 C311 0.933 1_544 S
H336 C313 0.950 . S
H337 C315 0.950 . S
C338 C339 1.349 . S
C338 C340 1.327 . S
C338 H363 0.950 . S
C339 C338 1.349 . S
C339 C355 1.349 1_554 S
C340 C338 1.327 . S
C340 C359 1.429 1_554 S
C340 H364 0.950 . S
C341 C358 1.574 . S
C341 C360 1.368 . S
C341 H365 0.949 . S
H342 C346 0.949 . S
C343 C344 1.349 . S
C343 C345 1.327 . S
C343 H366 0.950 . S
C344 C343 1.349 . S
C344 C356 1.349 . S
C345 C343 1.327 . S
C345 C361 1.429 . S
C345 H367 0.950 . S
C346 H342 0.949 . S
C346 C354 1.574 . S
C346 C362 1.368 . S
H347 C355 0.950 . S
H348 C353 0.950 . S
H349 C354 0.949 . S
H350 C356 0.950 . S
H351 C357 0.950 . S
H352 C358 0.949 . S
C353 H348 0.950 . S
C353 C355 1.327 . S
C353 C359 1.429 . S
C354 C346 1.574 . S
C354 H349 0.949 . S
C354 C360 1.368 . S
C355 C339 1.349 1_556 S
C355 H347 0.950 . S
C355 C353 1.327 . S
C356 C344 1.349 . S
C356 H350 0.950 . S
C356 C357 1.327 . S
C357 H351 0.950 . S
C357 C356 1.327 . S
C357 C361 1.429 . S
C358 C341 1.574 . S
C358 H352 0.949 . S
C358 C362 1.368 . S
C359 C340 1.429 1_556 S
C359 C353 1.429 . S
C359 C360 1.523 . S
C360 C341 1.368 . S
C360 C354 1.368 . S
C360 C359 1.523 . S
C361 C345 1.429 . S
C361 C357 1.429 . S
C361 C362 1.523 . S
C362 C346 1.368 . S
C362 C358 1.368 . S
C362 C361 1.523 . S
H363 C338 0.950 . S
H364 C340 0.950 . S
H365 C341 0.949 . S
H366 C343 0.950 . S
H367 C345 0.950 . S
C368 C369 1.349 . S
C368 C370 1.327 . S
C368 H393 0.950 . S
C369 C368 1.349 . S
C369 C385 1.349 1_554 S
C370 C368 1.327 . S
C370 C389 1.429 1_554 S
C370 H394 0.950 . S
C371 C388 1.574 . S
C371 C390 1.368 . S
C371 H395 0.949 . S
H372 C376 0.949 . S
C373 C374 1.349 . S
C373 C375 1.327 . S
C373 H396 0.950 . S
C374 C373 1.349 . S
C374 C386 1.349 . S
C375 C373 1.327 . S
C375 C391 1.429 . S
C375 H397 0.950 . S
C376 H372 0.949 . S
C376 C384 1.574 . S
C376 C392 1.368 . S
H377 C385 0.950 . S
H378 C383 0.950 . S
H379 C384 0.949 . S
H380 C386 0.950 . S
H381 C387 0.950 . S
H382 C388 0.949 . S
C383 H378 0.950 . S
C383 C385 1.327 . S
C383 C389 1.429 . S
C384 C376 1.574 . S
C384 H379 0.949 . S
C384 C390 1.368 . S
C385 C369 1.349 1_556 S
C385 H377 0.950 . S
C385 C383 1.327 . S
C386 C374 1.349 . S
C386 H380 0.950 . S
C386 C387 1.327 . S
C387 H381 0.950 . S
C387 C386 1.327 . S
C387 C391 1.429 . S
C388 C371 1.574 . S
C388 H382 0.949 . S
C388 C392 1.368 . S
C389 C370 1.429 1_556 S
C389 C383 1.429 . S
C389 C390 1.523 . S
C390 C371 1.368 . S
C390 C384 1.368 . S
C390 C389 1.523 . S
C391 C375 1.429 . S
C391 C387 1.429 . S
C391 C392 1.523 . S
C392 C376 1.368 . S
C392 C388 1.368 . S
C392 C391 1.523 . S
H393 C368 0.950 . S
H394 C370 0.950 . S
H395 C371 0.949 . S
H396 C373 0.950 . S
H397 C375 0.950 . S
C398 C399 1.349 . S
C398 C400 1.327 . S
C398 H423 0.950 . S
C399 C398 1.349 . S
C399 C415 1.349 1_554 S
C400 C398 1.327 . S
C400 C419 1.429 1_554 S
C400 H424 0.950 . S
C401 C418 1.574 . S
C401 C420 1.368 . S
C401 H425 0.949 . S
H402 C406 0.949 . S
C403 C404 1.349 . S
C403 C405 1.327 . S
C403 H426 0.950 . S
C404 C403 1.349 . S
C404 C416 1.349 1_455 S
C405 C403 1.327 . S
C405 C421 1.429 1_455 S
C405 H427 0.950 . S
C406 H402 0.949 . S
C406 C414 1.574 . S
C406 C422 1.368 . S
H407 C415 0.950 . S
H408 C413 0.950 . S
H409 C414 0.949 1_554 S
H410 C416 0.950 . S
H411 C417 0.950 . S
H412 C418 0.949 1_455 S
C413 H408 0.950 . S
C413 C415 1.327 . S
C413 C419 1.429 . S
C414 C406 1.574 . S
C414 H409 0.949 1_556 S
C414 C420 1.368 . S
C415 C399 1.349 1_556 S
C415 H407 0.950 . S
C415 C413 1.327 . S
C416 C404 1.349 1_655 S
C416 H410 0.950 . S
C416 C417 1.327 . S
C417 H411 0.950 . S
C417 C416 1.327 . S
C417 C421 1.429 . S
C418 C401 1.574 . S
C418 H412 0.949 1_655 S
C418 C422 1.368 . S
C419 C400 1.429 1_556 S
C419 C413 1.429 . S
C419 C420 1.523 . S
C420 C401 1.368 . S
C420 C414 1.368 . S
C420 C419 1.523 . S
C421 C405 1.429 1_655 S
C421 C417 1.429 . S
C421 C422 1.523 . S
C422 C406 1.368 . S
C422 C418 1.368 . S
C422 C421 1.523 . S
H423 C398 0.950 . S
H424 C400 0.950 . S
H425 C401 0.949 . S
H426 C403 0.950 . S
H427 C405 0.950 . S
C428 C429 1.349 . S
C428 C430 1.327 . S
C428 H453 0.950 . S
C429 C428 1.349 . S
C429 C445 1.349 . S
C430 C428 1.327 . S
C430 C449 1.429 . S
C430 H454 0.950 . S
C431 C448 1.574 . S
C431 C450 1.368 . S
C431 H455 0.949 . S
H432 C436 0.949 1_655 S
C433 C434 1.349 . S
C433 C435 1.327 . S
C433 H456 0.950 . S
C434 C433 1.349 . S
C434 C446 1.349 1_455 S
C435 C433 1.327 . S
C435 C451 1.429 . S
C435 H457 0.950 . S
C436 H432 0.949 1_455 S
C436 C444 1.574 . S
C436 C452 1.368 . S
H437 C445 0.950 . S
H438 C443 0.950 . S
H439 C444 0.949 . S
H440 C446 0.950 . S
H441 C447 0.950 . S
H442 C448 0.949 . S
C443 H438 0.950 . S
C443 C445 1.327 . S
C443 C449 1.429 . S
C444 C436 1.574 . S
C444 H439 0.949 . S
C444 C450 1.368 . S
C445 C429 1.349 . S
C445 H437 0.950 . S
C445 C443 1.327 . S
C446 C434 1.349 1_655 S
C446 H440 0.950 . S
C446 C447 1.327 . S
C447 H441 0.950 . S
C447 C446 1.327 . S
C447 C451 1.429 1_655 S
C448 C431 1.574 . S
C448 H442 0.949 . S
C448 C452 1.368 . S
C449 C430 1.429 . S
C449 C443 1.429 . S
C449 C450 1.523 . S
C450 C431 1.368 . S
C450 C444 1.368 . S
C450 C449 1.523 . S
C451 C435 1.429 . S
C451 C447 1.429 1_455 S
C451 C452 1.523 . S
C452 C436 1.368 . S
C452 C448 1.368 . S
C452 C451 1.523 . S
H453 C428 0.950 . S
H454 C430 0.950 . S
H455 C431 0.949 . S
H456 C433 0.950 . S
H457 C435 0.950 . S
C458 C459 1.349 . S
C458 C460 1.327 . S
C458 H483 0.950 . S
C459 C458 1.349 . S
C459 C475 1.349 . S
C460 C458 1.327 . S
C460 C479 1.429 . S
C460 H484 0.950 . S
C461 C478 1.574 . S
C461 C480 1.368 . S
C461 H485 0.949 . S
H462 C466 0.949 . S
C463 C464 1.349 . S
C463 C465 1.327 . S
C463 H486 0.950 . S
C464 C463 1.349 . S
C464 C476 1.349 . S
C465 C463 1.327 . S
C465 C481 1.429 . S
C465 H487 0.950 . S
C466 H462 0.949 . S
C466 C474 1.574 . S
C466 C482 1.368 . S
H467 C475 0.950 . S
H468 C473 0.950 . S
H469 C474 0.949 . S
H470 C476 0.950 1_565 S
H471 C477 0.950 . S
H472 C478 0.949 . S
C473 H468 0.950 . S
C473 C475 1.327 . S
C473 C479 1.429 . S
C474 C466 1.574 . S
C474 H469 0.949 . S
C474 C480 1.368 . S
C475 C459 1.349 . S
C475 H467 0.950 . S
C475 C473 1.327 . S
C476 C464 1.349 . S
C476 H470 0.950 1_545 S
C476 C477 1.327 . S
C477 H471 0.950 . S
C477 C476 1.327 . S
C477 C481 1.429 . S
C478 C461 1.574 . S
C478 H472 0.949 . S
C478 C482 1.368 . S
C479 C460 1.429 . S
C479 C473 1.429 . S
C479 C480 1.523 . S
C480 C461 1.368 . S
C480 C474 1.368 . S
C480 C479 1.523 . S
C481 C465 1.429 . S
C481 C477 1.429 . S
C481 C482 1.523 . S
C482 C466 1.368 . S
C482 C478 1.368 . S
C482 C481 1.523 . S
H483 C458 0.950 . S
H484 C460 0.950 . S
H485 C461 0.949 . S
H486 C463 0.950 . S
H487 C465 0.950 . S
C488 C489 1.349 . S
C488 C490 1.327 . S
C488 H513 0.950 . S
C489 C488 1.349 . S
C489 C505 1.349 . S
C490 C488 1.327 . S
C490 C509 1.429 . S
C490 H514 0.950 . S
C491 C508 1.574 . S
C491 C510 1.368 . S
C491 H515 0.949 . S
H492 C496 0.949 . S
C493 C494 1.349 . S
C493 C495 1.327 . S
C493 H516 0.950 . S
C494 C493 1.349 . S
C494 C506 1.349 . S
C495 C493 1.327 . S
C495 C511 1.429 . S
C495 H517 0.950 . S
C496 H492 0.949 . S
C496 C504 1.574 . S
C496 C512 1.368 . S
H497 C505 0.950 . S
H498 C503 0.950 . S
H499 C504 0.949 . S
H500 C506 0.950 . S
H501 C507 0.950 . S
H502 C508 0.949 . S
C503 H498 0.950 . S
C503 C505 1.327 . S
C503 C509 1.429 . S
C504 C496 1.574 . S
C504 H499 0.949 . S
C504 C510 1.368 . S
C505 C489 1.349 . S
C505 H497 0.950 . S
C505 C503 1.327 . S
C506 C494 1.349 . S
C506 H500 0.950 . S
C506 C507 1.327 . S
C507 H501 0.950 . S
C507 C506 1.327 . S
C507 C511 1.429 . S
C508 C491 1.574 . S
C508 H502 0.949 . S
C508 C512 1.368 . S
C509 C490 1.429 . S
C509 C503 1.429 . S
C509 C510 1.523 . S
C510 C491 1.368 . S
C510 C504 1.368 . S
C510 C509 1.523 . S
C511 C495 1.429 . S
C511 C507 1.429 . S
C511 C512 1.523 . S
C512 C496 1.368 . S
C512 C508 1.368 . S
C512 C511 1.523 . S
H513 C488 0.950 . S
H514 C490 0.950 . S
H515 C491 0.949 . S
H516 C493 0.950 . S
H517 C495 0.950 . S
C518 C519 1.349 . S
C518 C520 1.327 . S
C518 H543 0.950 . S
C519 C518 1.349 . S
C519 C535 1.349 . S
C520 C518 1.327 . S
C520 C539 1.429 . S
C520 H544 0.950 . S
C521 C538 1.574 . S
C521 C540 1.368 . S
C521 H545 0.949 . S
H522 C526 0.949 . S
C523 C524 1.349 . S
C523 C525 1.327 . S
C523 H546 0.950 . S
C524 C523 1.349 . S
C524 C536 1.349 . S
C525 C523 1.327 . S
C525 C541 1.429 . S
C525 H547 0.950 . S
C526 H522 0.949 . S
C526 C534 1.574 . S
C526 C542 1.368 . S
H527 C535 0.950 . S
H528 C533 0.950 . S
H529 C534 0.949 . S
H530 C536 0.950 . S
H531 C537 0.950 . S
H532 C538 0.949 . S
C533 H528 0.950 . S
C533 C535 1.327 . S
C533 C539 1.429 . S
C534 C526 1.574 . S
C534 H529 0.949 . S
C534 C540 1.368 . S
C535 C519 1.349 . S
C535 H527 0.950 . S
C535 C533 1.327 . S
C536 C524 1.349 . S
C536 H530 0.950 . S
C536 C537 1.327 . S
C537 H531 0.950 . S
C537 C536 1.327 . S
C537 C541 1.429 . S
C538 C521 1.574 . S
C538 H532 0.949 . S
C538 C542 1.368 . S
C539 C520 1.429 . S
C539 C533 1.429 . S
C539 C540 1.523 . S
C540 C521 1.368 . S
C540 C534 1.368 . S
C540 C539 1.523 . S
C541 C525 1.429 . S
C541 C537 1.429 . S
C541 C542 1.523 . S
C542 C526 1.368 . S
C542 C538 1.368 . S
C542 C541 1.523 . S
H543 C518 0.950 . S
H544 C520 0.950 . S
H545 C521 0.949 . S
H546 C523 0.950 . S
H547 C525 0.950 . S
C548 C549 1.349 1_556 S
C548 C550 1.327 . S
C548 H573 0.950 . S
C549 C548 1.349 1_554 S
C549 C565 1.349 . S
C550 C548 1.327 . S
C550 C569 1.429 . S
C550 H574 0.950 . S
C551 C568 1.574 . S
C551 C570 1.368 . S
C551 H575 0.949 1_556 S
H552 C556 0.949 . S
C553 C554 1.349 . S
C553 C555 1.327 . S
C553 H576 0.950 . S
C554 C553 1.349 . S
C554 C566 1.349 . S
C555 C553 1.327 . S
C555 C571 1.430 . S
C555 H577 0.950 . S
C556 H552 0.949 . S
C556 C564 1.574 . S
C556 C572 1.368 . S
H557 C565 0.950 . S
H558 C563 0.950 . S
H559 C564 0.949 . S
H560 C566 0.950 . S
H561 C567 0.950 . S
H562 C568 0.949 1_455 S
C563 H558 0.950 . S
C563 C565 1.327 . S
C563 C569 1.429 1_554 S
C564 C556 1.574 . S
C564 H559 0.949 . S
C564 C570 1.368 . S
C565 C549 1.349 . S
C565 H557 0.950 . S
C565 C563 1.327 . S
C566 C554 1.349 . S
C566 H560 0.950 . S
C566 C567 1.327 1_455 S
C567 H561 0.950 . S
C567 C566 1.327 1_655 S
C567 C571 1.428 1_655 S
C568 C551 1.574 . S
C568 H562 0.949 1_655 S
C568 C572 1.368 . S
C569 C550 1.429 . S
C569 C563 1.429 1_556 S
C569 C570 1.523 . S
C570 C551 1.368 . S
C570 C564 1.368 . S
C570 C569 1.523 . S
C571 C555 1.430 . S
C571 C567 1.428 1_455 S
C571 C572 1.522 1_455 S
C572 C556 1.368 . S
C572 C568 1.368 . S
C572 C571 1.522 1_655 S
H573 C548 0.950 . S
H574 C550 0.950 . S
H575 C551 0.949 1_554 S
H576 C553 0.950 . S
H577 C555 0.950 . S
C578 C579 1.349 . S
C578 C580 1.327 1_554 S
C578 H603 0.978 . S
C579 C578 1.349 . S
C579 C595 1.349 . S
C580 C578 1.327 1_556 S
C580 C599 1.429 . S
C580 H604 0.950 1_565 S
C581 C598 1.574 . S
C581 C600 1.368 . S
C581 H605 0.949 . S
H582 C586 0.949 . S
C583 C584 1.349 1_565 S
C583 C585 1.327 . S
C583 H606 0.950 . S
C584 C583 1.349 1_545 S
C584 C596 1.349 . S
C585 C583 1.327 . S
C585 C601 1.406 1_565 S
C585 H607 0.950 . S
C586 H582 0.949 . S
C586 C594 1.574 . S
C586 C602 1.368 1_545 S
H587 C595 0.950 . S
H588 C593 0.950 . S
H589 C594 0.949 . S
H590 C596 0.950 . S
H591 C597 0.950 . S
H592 C598 0.949 . S
C593 H588 0.950 . S
C593 C595 1.327 . S
C593 C599 1.429 1_554 S
C594 C586 1.574 . S
C594 H589 0.949 . S
C594 C600 1.368 1_545 S
C595 C579 1.349 . S
C595 H587 0.950 . S
C595 C593 1.327 . S
C596 C584 1.349 . S
C596 H590 0.950 . S
C596 C597 1.327 . S
C597 H591 0.950 . S
C597 C596 1.327 . S
C597 C601 1.461 . S
C598 C581 1.574 . S
C598 H592 0.949 . S
C598 C602 1.368 . S
C599 C580 1.429 . S
C599 C593 1.429 1_556 S
C599 C600 1.523 . S
C600 C581 1.368 . S
C600 C594 1.368 1_565 S
C600 C599 1.523 . S
C601 C585 1.406 1_545 S
C601 C597 1.461 . S
C601 C602 1.515 1_545 S
C602 C586 1.368 1_565 S
C602 C598 1.368 . S
C602 C601 1.515 1_565 S
H603 C578 0.978 . S
H604 C580 0.950 1_545 S
H605 C581 0.949 . S
H606 C583 0.950 . S
H607 C585 0.950 . S
C608 C609 1.349 . S
C608 C610 1.327 . S
C608 H633 0.950 . S
C609 C608 1.349 . S
C609 C625 1.349 1_554 S
C610 C608 1.327 . S
C610 C629 1.429 1_554 S
C610 H634 0.950 . S
C611 C628 1.574 . S
C611 C630 1.368 . S
C611 H635 0.949 . S
H612 C616 0.949 . S
C613 C614 1.349 . S
C613 C615 1.327 . S
C613 H636 0.950 . S
C614 C613 1.349 . S
C614 C626 1.349 . S
C615 C613 1.327 . S
C615 C631 1.429 . S
C615 H637 0.950 . S
C616 H612 0.949 . S
C616 C624 1.574 . S
C616 C632 1.368 . S
H617 C625 0.950 . S
H618 C623 0.950 . S
H619 C624 0.949 1_554 S
H620 C626 0.950 . S
H621 C627 0.950 . S
H622 C628 0.949 . S
C623 H618 0.950 . S
C623 C625 1.327 . S
C623 C629 1.429 . S
C624 C616 1.574 . S
C624 H619 0.949 1_556 S
C624 C630 1.368 . S
C625 C609 1.349 1_556 S
C625 H617 0.950 . S
C625 C623 1.327 . S
C626 C614 1.349 . S
C626 H620 0.950 . S
C626 C627 1.327 . S
C627 H621 0.950 . S
C627 C626 1.327 . S
C627 C631 1.429 . S
C628 C611 1.574 . S
C628 H622 0.949 . S
C628 C632 1.368 . S
C629 C610 1.429 1_556 S
C629 C623 1.429 . S
C629 C630 1.523 . S
C630 C611 1.368 . S
C630 C624 1.368 . S
C630 C629 1.523 . S
C631 C615 1.429 . S
C631 C627 1.429 . S
C631 C632 1.523 . S
C632 C616 1.368 . S
C632 C628 1.368 . S
C632 C631 1.523 . S
H633 C608 0.950 . S
H634 C610 0.950 . S
H635 C611 0.949 . S
H636 C613 0.950 . S
H637 C615 0.950 . S
C638 C639 1.349 1_556 S
C638 C640 1.327 . S
C638 H663 0.950 . S
C639 C638 1.349 1_554 S
C639 C655 1.349 . S
C640 C638 1.327 . S
C640 C659 1.429 . S
C640 H664 0.950 . S
C641 C658 1.574 . S
C641 C660 1.368 . S
C641 H665 0.949 1_556 S
H642 C646 0.949 . S
C643 C644 1.349 . S
C643 C645 1.327 . S
C643 H666 0.950 . S
C644 C643 1.349 . S
C644 C656 1.349 . S
C645 C643 1.327 . S
C645 C661 1.429 . S
C645 H667 0.950 . S
C646 H642 0.949 . S
C646 C654 1.574 . S
C646 C662 1.368 . S
H647 C655 0.950 . S
H648 C653 0.950 . S
H649 C654 0.949 . S
H650 C656 0.950 . S
H651 C657 0.950 . S
H652 C658 0.949 . S
C653 H648 0.950 . S
C653 C655 1.327 . S
C653 C659 1.429 1_554 S
C654 C646 1.574 . S
C654 H649 0.949 . S
C654 C660 1.368 . S
C655 C639 1.349 . S
C655 H647 0.950 . S
C655 C653 1.327 . S
C656 C644 1.349 . S
C656 H650 0.950 . S
C656 C657 1.327 . S
C657 H651 0.950 . S
C657 C656 1.327 . S
C657 C661 1.429 . S
C658 C641 1.574 . S
C658 H652 0.949 . S
C658 C662 1.368 . S
C659 C640 1.429 . S
C659 C653 1.429 1_556 S
C659 C660 1.523 . S
C660 C641 1.368 . S
C660 C654 1.368 . S
C660 C659 1.523 . S
C661 C645 1.429 . S
C661 C657 1.429 . S
C661 C662 1.523 . S
C662 C646 1.368 . S
C662 C658 1.368 . S
C662 C661 1.523 . S
H663 C638 0.950 . S
H664 C640 0.950 . S
H665 C641 0.949 1_554 S
H666 C643 0.950 . S
H667 C645 0.950 . S
C668 C669 1.349 . S
C668 C670 1.327 . S
C668 H693 0.950 . S
C669 C668 1.349 . S
C669 C685 1.349 . S
C670 C668 1.327 . S
C670 C689 1.429 . S
C670 H694 0.950 . S
C671 C688 1.574 . S
C671 C690 1.368 . S
C671 H695 0.949 . S
H672 C676 0.949 . S
C673 C674 1.349 . S
C673 C675 1.327 . S
C673 H696 0.950 . S
C674 C673 1.349 . S
C674 C686 1.349 . S
C675 C673 1.327 . S
C675 C691 1.429 . S
C675 H697 0.943 1_556 S
C676 H672 0.949 . S
C676 C684 1.574 1_556 S
C676 C692 1.368 . S
H677 C685 0.950 . S
H678 C683 0.950 . S
H679 C684 0.949 1_556 S
H680 C686 0.950 . S
H681 C687 0.950 . S
H682 C688 0.949 . S
C683 H678 0.950 . S
C683 C685 1.327 . S
C683 C689 1.429 . S
C684 C676 1.574 1_554 S
C684 H679 0.949 1_554 S
C684 C690 1.368 . S
C685 C669 1.349 . S
C685 H677 0.950 . S
C685 C683 1.327 . S
C686 C674 1.349 . S
C686 H680 0.950 . S
C686 C687 1.327 . S
C687 H681 0.950 . S
C687 C686 1.327 . S
C687 C691 1.429 . S
C688 C671 1.574 . S
C688 H682 0.949 . S
C688 C692 1.368 1_554 S
C689 C670 1.429 . S
C689 C683 1.429 . S
C689 C690 1.523 . S
C690 C671 1.368 . S
C690 C684 1.368 . S
C690 C689 1.523 . S
C691 C675 1.429 . S
C691 C687 1.429 . S
C691 C692 1.523 . S
C692 C676 1.368 . S
C692 C688 1.368 1_556 S
C692 C691 1.523 . S
H693 C668 0.950 . S
H694 C670 0.950 . S
H695 C671 0.949 . S
H696 C673 0.950 . S
H697 C675 0.943 1_554 S
C698 C699 1.349 . S
C698 C700 1.327 . S
C698 H723 0.950 . S
C699 C698 1.349 . S
C699 C715 1.349 . S
C700 C698 1.327 . S
C700 C719 1.429 . S
C700 H724 0.950 . S
C701 C718 1.574 1_554 S
C701 C720 1.368 . S
C701 H725 0.949 . S
H702 C706 0.949 . S
C703 C704 1.349 . S
C703 C705 1.327 . S
C703 H726 0.950 1_545 S
C704 C703 1.349 . S
C704 C716 1.349 . S
C705 C703 1.327 . S
C705 C721 1.429 . S
C705 H727 0.976 . S
C706 H702 0.949 . S
C706 C714 1.574 . S
C706 C722 1.368 1_554 S
H707 C715 0.950 . S
H708 C713 0.950 . S
H709 C714 0.949 . S
H710 C716 0.950 . S
H711 C717 0.950 . S
H712 C718 0.949 . S
C713 H708 0.950 . S
C713 C715 1.327 . S
C713 C719 1.429 . S
C714 C706 1.574 . S
C714 H709 0.949 . S
C714 C720 1.368 . S
C715 C699 1.349 . S
C715 H707 0.950 . S
C715 C713 1.327 . S
C716 C704 1.349 . S
C716 H710 0.950 . S
C716 C717 1.327 . S
C717 H711 0.950 . S
C717 C716 1.327 . S
C717 C721 1.429 . S
C718 C701 1.574 1_556 S
C718 H712 0.949 . S
C718 C722 1.368 . S
C719 C700 1.429 . S
C719 C713 1.429 . S
C719 C720 1.523 . S
C720 C701 1.368 . S
C720 C714 1.368 . S
C720 C719 1.523 . S
C721 C705 1.429 . S
C721 C717 1.429 . S
C721 C722 1.523 . S
C722 C706 1.368 1_556 S
C722 C718 1.368 . S
C722 C721 1.523 . S
H723 C698 0.950 . S
H724 C700 0.950 . S
H725 C701 0.949 . S
H726 C703 0.950 1_565 S
H727 C705 0.976 . S
C728 C729 1.349 . S
C728 C730 1.327 . S
C728 H753 0.950 . S
C729 C728 1.349 . S
C729 C745 1.349 . S
C730 C728 1.327 . S
C730 C749 1.429 . S
C730 H754 0.950 . S
C731 C748 1.574 . S
C731 C750 1.368 . S
C731 H755 0.949 . S
H732 C736 0.949 . S
C733 C734 1.349 . S
C733 C735 1.327 . S
C733 H756 0.950 . S
C734 C733 1.349 . S
C734 C746 1.349 . S
C735 C733 1.327 . S
C735 C751 1.429 . S
C735 H757 0.950 1_556 S
C736 H732 0.949 . S
C736 C744 1.574 1_556 S
C736 C752 1.368 . S
H737 C745 0.950 . S
H738 C743 0.950 . S
H739 C744 0.949 1_556 S
H740 C746 0.950 . S
H741 C747 0.950 . S
H742 C748 0.949 . S
C743 H738 0.950 . S
C743 C745 1.327 . S
C743 C749 1.429 . S
C744 C736 1.574 1_554 S
C744 H739 0.949 1_554 S
C744 C750 1.368 . S
C745 C729 1.349 . S
C745 H737 0.950 . S
C745 C743 1.327 . S
C746 C734 1.349 . S
C746 H740 0.950 . S
C746 C747 1.327 . S
C747 H741 0.950 . S
C747 C746 1.327 . S
C747 C751 1.429 . S
C748 C731 1.574 . S
C748 H742 0.949 . S
C748 C752 1.368 1_554 S
C749 C730 1.429 . S
C749 C743 1.429 . S
C749 C750 1.523 . S
C750 C731 1.368 . S
C750 C744 1.368 . S
C750 C749 1.523 . S
C751 C735 1.429 . S
C751 C747 1.429 . S
C751 C752 1.523 . S
C752 C736 1.368 . S
C752 C748 1.368 1_556 S
C752 C751 1.523 . S
H753 C728 0.950 . S
H754 C730 0.950 . S
H755 C731 0.949 . S
H756 C733 0.950 . S
H757 C735 0.950 1_554 S
C758 C759 1.349 . S
C758 C760 1.327 . S
C758 H783 0.950 . S
C759 C758 1.349 . S
C759 C775 1.349 . S
C760 C758 1.327 . S
C760 C779 1.429 . S
C760 H784 0.950 . S
C761 C778 1.574 . S
C761 C780 1.368 . S
C761 H785 0.949 . S
H762 C766 0.949 . S
C763 C764 1.349 . S
C763 C765 1.327 . S
C763 H786 0.950 . S
C764 C763 1.349 . S
C764 C776 1.349 . S
C765 C763 1.327 . S
C765 C781 1.429 . S
C765 H787 0.950 . S
C766 H762 0.949 . S
C766 C774 1.574 1_556 S
C766 C782 1.368 . S
H767 C775 0.950 . S
H768 C773 0.950 . S
H769 C774 0.949 . S
H770 C776 0.950 . S
H771 C777 0.950 . S
H772 C778 0.949 . S
C773 H768 0.950 . S
C773 C775 1.327 . S
C773 C779 1.429 . S
C774 C766 1.574 1_554 S
C774 H769 0.949 . S
C774 C780 1.368 . S
C775 C759 1.349 . S
C775 H767 0.950 . S
C775 C773 1.327 . S
C776 C764 1.349 . S
C776 H770 0.950 . S
C776 C777 1.327 . S
C777 H771 0.950 . S
C777 C776 1.327 . S
C777 C781 1.429 . S
C778 C761 1.574 . S
C778 H772 0.949 . S
C778 C782 1.368 1_554 S
C779 C760 1.429 . S
C779 C773 1.429 . S
C779 C780 1.523 . S
C780 C761 1.368 . S
C780 C774 1.368 . S
C780 C779 1.523 . S
C781 C765 1.429 . S
C781 C777 1.429 . S
C781 C782 1.523 . S
C782 C766 1.368 . S
C782 C778 1.368 1_556 S
C782 C781 1.523 . S
H783 C758 0.950 . S
H784 C760 0.950 . S
H785 C761 0.949 . S
H786 C763 0.950 . S
H787 C765 0.950 . S
C788 C789 1.349 . S
C788 C790 1.327 . S
C788 H813 0.950 . S
C789 C788 1.349 . S
C789 C805 1.349 . S
C790 C788 1.327 . S
C790 C809 1.429 . S
C790 H814 0.950 . S
C791 C808 1.574 . S
C791 C810 1.368 . S
C791 H815 0.949 . S
H792 C796 0.949 . S
C793 C794 1.349 . S
C793 C795 1.327 . S
C793 H816 0.950 . S
C794 C793 1.349 . S
C794 C806 1.349 . S
C795 C793 1.327 . S
C795 C811 1.429 . S
C795 H817 0.950 . S
C796 H792 0.949 . S
C796 C804 1.574 . S
C796 C812 1.368 . S
H797 C805 0.950 . S
H798 C803 0.950 . S
H799 C804 0.949 . S
H800 C806 0.950 . S
H801 C807 0.950 . S
H802 C808 0.949 . S
C803 H798 0.950 . S
C803 C805 1.327 . S
C803 C809 1.429 . S
C804 C796 1.574 . S
C804 H799 0.949 . S
C804 C810 1.368 . S
C805 C789 1.349 . S
C805 H797 0.950 . S
C805 C803 1.327 . S
C806 C794 1.349 . S
C806 H800 0.950 . S
C806 C807 1.327 . S
C807 H801 0.950 . S
C807 C806 1.327 . S
C807 C811 1.429 . S
C808 C791 1.574 . S
C808 H802 0.949 . S
C808 C812 1.368 . S
C809 C790 1.429 . S
C809 C803 1.429 . S
C809 C810 1.523 . S
C810 C791 1.368 . S
C810 C804 1.368 . S
C810 C809 1.523 . S
C811 C795 1.429 . S
C811 C807 1.429 . S
C811 C812 1.523 . S
C812 C796 1.368 . S
C812 C808 1.368 . S
C812 C811 1.523 . S
H813 C788 0.950 . S
H814 C790 0.950 . S
H815 C791 0.949 . S
H816 C793 0.950 . S
H817 C795 0.950 . S
C818 C819 1.349 . S
C818 C820 1.327 . S
C818 H843 0.950 . S
C819 C818 1.349 . S
C819 C835 1.349 . S
C820 C818 1.327 . S
C820 C839 1.429 . S
C820 H844 0.950 1_565 S
C821 C838 1.574 . S
C821 C840 1.368 . S
C821 H845 0.949 . S
H822 C826 0.913 1_545 S
C823 C824 1.349 . S
C823 C825 1.327 . S
C823 H846 0.950 . S
C824 C823 1.349 . S
C824 C836 1.349 1_565 S
C825 C823 1.327 . S
C825 C841 1.429 . S
C825 H847 0.950 . S
C826 H822 0.913 1_565 S
C826 C834 1.580 . S
C826 C842 1.404 . S
H827 C835 0.950 . S
H828 C833 0.950 . S
H829 C834 0.949 1_545 S
H830 C836 0.950 . S
H831 C837 0.950 . S
H832 C838 0.949 . S
C833 H828 0.950 . S
C833 C835 1.327 . S
C833 C839 1.429 . S
C834 C826 1.580 . S
C834 H829 0.949 1_565 S
C834 C840 1.368 . S
C835 C819 1.349 . S
C835 H827 0.950 . S
C835 C833 1.327 . S
C836 C824 1.349 1_545 S
C836 H830 0.950 . S
C836 C837 1.327 . S
C837 H831 0.950 . S
C837 C836 1.327 . S
C837 C841 1.429 1_545 S
C838 C821 1.574 . S
C838 H832 0.949 . S
C838 C842 1.368 . S
C839 C820 1.429 . S
C839 C833 1.429 . S
C839 C840 1.523 . S
C840 C821 1.368 . S
C840 C834 1.368 . S
C840 C839 1.523 . S
C841 C825 1.429 . S
C841 C837 1.429 1_565 S
C841 C842 1.523 . S
C842 C826 1.404 . S
C842 C838 1.368 . S
C842 C841 1.523 . S
H843 C818 0.950 . S
H844 C820 0.950 1_545 S
H845 C821 0.949 . S
H846 C823 0.950 . S
H847 C825 0.950 . S
C848 C849 1.349 . S
C848 C850 1.327 . S
C848 H873 0.950 . S
C849 C848 1.349 . S
C849 C865 1.349 . S
C850 C848 1.327 . S
C850 C869 1.429 . S
C850 H874 0.950 . S
C851 C868 1.574 . S
C851 C870 1.368 . S
C851 H875 0.949 . S
H852 C856 0.949 . S
C853 C854 1.349 . S
C853 C855 1.327 . S
C853 H876 0.950 . S
C854 C853 1.349 . S
C854 C866 1.349 . S
C855 C853 1.327 . S
C855 C871 1.429 . S
C855 H877 0.950 . S
C856 H852 0.949 . S
C856 C864 1.574 . S
C856 C872 1.368 . S
H857 C865 0.950 . S
H858 C863 0.950 . S
H859 C864 0.949 . S
H860 C866 0.950 . S
H861 C867 0.950 . S
H862 C868 0.949 . S
C863 H858 0.950 . S
C863 C865 1.327 . S
C863 C869 1.429 . S
C864 C856 1.574 . S
C864 H859 0.949 . S
C864 C870 1.368 . S
C865 C849 1.349 . S
C865 H857 0.950 . S
C865 C863 1.327 . S
C866 C854 1.349 . S
C866 H860 0.950 . S
C866 C867 1.327 . S
C867 H861 0.950 . S
C867 C866 1.327 . S
C867 C871 1.429 . S
C868 C851 1.574 . S
C868 H862 0.949 . S
C868 C872 1.368 . S
C869 C850 1.429 . S
C869 C863 1.429 . S
C869 C870 1.523 . S
C870 C851 1.368 . S
C870 C864 1.368 . S
C870 C869 1.523 . S
C871 C855 1.429 . S
C871 C867 1.429 . S
C871 C872 1.523 . S
C872 C856 1.368 . S
C872 C868 1.368 . S
C872 C871 1.523 . S
H873 C848 0.950 . S
H874 C850 0.950 . S
H875 C851 0.949 . S
H876 C853 0.950 . S
H877 C855 0.950 . S
C878 C879 1.349 . S
C878 C880 1.327 . S
C878 H903 0.950 . S
C879 C878 1.349 . S
C879 C895 1.349 . S
C880 C878 1.327 . S
C880 C899 1.429 . S
C880 H904 0.950 . S
C881 C898 1.574 . S
C881 C900 1.368 . S
C881 H905 0.949 . S
H882 C886 0.949 . S
C883 C884 1.349 . S
C883 C885 1.327 . S
C883 H906 0.950 . S
C884 C883 1.349 . S
C884 C896 1.349 . S
C885 C883 1.327 . S
C885 C901 1.429 . S
C885 H907 0.950 . S
C886 H882 0.949 . S
C886 C894 1.574 . S
C886 C902 1.368 . S
H887 C895 0.950 . S
H888 C893 0.950 . S
H889 C894 0.949 . S
H890 C896 0.950 . S
H891 C897 0.950 . S
H892 C898 0.949 . S
C893 H888 0.950 . S
C893 C895 1.327 . S
C893 C899 1.429 . S
C894 C886 1.574 . S
C894 H889 0.949 . S
C894 C900 1.368 . S
C895 C879 1.349 . S
C895 H887 0.950 . S
C895 C893 1.327 . S
C896 C884 1.349 . S
C896 H890 0.950 . S
C896 C897 1.327 . S
C897 H891 0.950 . S
C897 C896 1.327 . S
C897 C901 1.429 . S
C898 C881 1.574 . S
C898 H892 0.949 . S
C898 C902 1.368 . S
C899 C880 1.429 . S
C899 C893 1.429 . S
C899 C900 1.523 . S
C900 C881 1.368 . S
C900 C894 1.368 . S
C900 C899 1.523 . S
C901 C885 1.429 . S
C901 C897 1.429 . S
C901 C902 1.523 . S
C902 C886 1.368 . S
C902 C898 1.368 . S
C902 C901 1.523 . S
H903 C878 0.950 . S
H904 C880 0.950 . S
H905 C881 0.949 . S
H906 C883 0.950 . S
H907 C885 0.950 . S
C189 N80 1.572 . S
C194 C119 1.394 . S
C224 C143 1.394 . S
C219 N93 1.572 . S
C254 C164 1.394 . S
C249 N54 1.572 . S
C284 C182 1.394 . S
C279 N67 1.572 . S
C314 C122 1.336 . S
C309 N28 1.514 . S
C339 N41 1.514 . S
C344 C140 1.336 . S
C369 N2 1.514 . S
C374 C161 1.336 . S
C399 N15 1.515 . S
C404 C185 1.336 . S
C434 C120 0.437 . S
C429 N70 0.354 . S
C464 C138 0.437 . S
C459 N83 0.354 . S
C494 C159 0.437 . S
C489 N96 0.354 . S
C519 N57 0.354 . S
C524 C183 0.437 . S
C549 N18 0.469 . S
C554 C118 0.499 . S
C584 C142 0.499 . S
C579 N31 0.469 . S
C614 C163 0.499 . S
C609 N44 0.469 . S
C639 N5 0.469 . S
C644 C181 0.499 . S
C669 N66 1.629 . S
C674 C121 1.541 . S
C699 N79 1.629 . S
C704 C139 1.541 . S
C734 C160 1.541 . S
C729 N92 1.629 . S
C764 C184 1.541 . S
C759 N53 1.629 . S
C789 N14 1.481 . S
C794 C117 1.392 1_655 S
C824 C141 1.379 1_565 S
C819 N27 1.481 . S
C854 C162 1.393 . S
C849 N40 1.481 . S
C879 N1 1.481 . S
C884 C180 1.393 . S
