# Generated by pormake.
# Topology csq, (4,8)-cn, num edge types: 1
# Building blocks:
#     Node 0, Type 0, BuildingBlock: KUFVIS_clean_linker_0, # of connection points: 4
#     Node 1, Type 0, BuildingBlock: KUFVIS_clean_linker_0, # of connection points: 4
#     Node 2, Type 0, BuildingBlock: KUFVIS_clean_linker_0, # of connection points: 4
#     Node 3, Type 0, BuildingBlock: KUFVIS_clean_linker_0, # of connection points: 4
#     Node 4, Type 0, BuildingBlock: KUFVIS_clean_linker_0, # of connection points: 4
#     Node 5, Type 0, BuildingBlock: KUFVIS_clean_linker_0, # of connection points: 4
#     Node 6, Type 1, BuildingBlock: TAGTUT_clean_sbu_1, # of connection points: 8
#     Node 7, Type 1, BuildingBlock: TAGTUT_clean_sbu_1, # of connection points: 8
#     Node 8, Type 1, BuildingBlock: TAGTUT_clean_sbu_1, # of connection points: 8
#     Edge 9, Type (0, 1), BuildingBlock: ZUJKAS_clean_linker_0, # of connection points: 2
#     Edge 10, Type (0, 1), BuildingBlock: ZUJKAS_clean_linker_0, # of connection points: 2
#     Edge 11, Type (0, 1), BuildingBlock: ZUJKAS_clean_linker_0, # of connection points: 2
#     Edge 12, Type (0, 1), BuildingBlock: ZUJKAS_clean_linker_0, # of connection points: 2
#     Edge 13, Type (0, 1), BuildingBlock: ZUJKAS_clean_linker_0, # of connection points: 2
#     Edge 14, Type (0, 1), BuildingBlock: ZUJKAS_clean_linker_0, # of connection points: 2
#     Edge 15, Type (0, 1), BuildingBlock: ZUJKAS_clean_linker_0, # of connection points: 2
#     Edge 16, Type (0, 1), BuildingBlock: ZUJKAS_clean_linker_0, # of connection points: 2
#     Edge 17, Type (0, 1), BuildingBlock: ZUJKAS_clean_linker_0, # of connection points: 2
#     Edge 18, Type (0, 1), BuildingBlock: ZUJKAS_clean_linker_0, # of connection points: 2
#     Edge 19, Type (0, 1), BuildingBlock: ZUJKAS_clean_linker_0, # of connection points: 2
#     Edge 20, Type (0, 1), BuildingBlock: ZUJKAS_clean_linker_0, # of connection points: 2
#     Edge 21, Type (0, 1), BuildingBlock: ZUJKAS_clean_linker_0, # of connection points: 2
#     Edge 22, Type (0, 1), BuildingBlock: ZUJKAS_clean_linker_0, # of connection points: 2
#     Edge 23, Type (0, 1), BuildingBlock: ZUJKAS_clean_linker_0, # of connection points: 2
#     Edge 24, Type (0, 1), BuildingBlock: ZUJKAS_clean_linker_0, # of connection points: 2
#     Edge 25, Type (0, 1), BuildingBlock: ZUJKAS_clean_linker_0, # of connection points: 2
#     Edge 26, Type (0, 1), BuildingBlock: ZUJKAS_clean_linker_0, # of connection points: 2
#     Edge 27, Type (0, 1), BuildingBlock: ZUJKAS_clean_linker_0, # of connection points: 2
#     Edge 28, Type (0, 1), BuildingBlock: ZUJKAS_clean_linker_0, # of connection points: 2
#     Edge 29, Type (0, 1), BuildingBlock: ZUJKAS_clean_linker_0, # of connection points: 2
#     Edge 30, Type (0, 1), BuildingBlock: ZUJKAS_clean_linker_0, # of connection points: 2
#     Edge 31, Type (0, 1), BuildingBlock: ZUJKAS_clean_linker_0, # of connection points: 2
#     Edge 32, Type (0, 1), BuildingBlock: ZUJKAS_clean_linker_0, # of connection points: 2
# Relax obj value: 0.043
# Max RMSD: 0.134
# Mean RMSD: 0.100
data_MOF--net-csq--node1-TAGTUT_clean_sbu_1--node2-KUFVIS_clean_linker_0--edge1-ZUJKAS_clean_linker_0
_symmetry_space_group_name_H-M    P1
_symmetry_Int_Tables_number       1
_symmetry_cell_setting            triclinic
loop_
_symmetry_equiv_pos_as_xyz
'x, y, z'
_cell_length_a     68.689622
_cell_length_b     68.338478
_cell_length_c     23.22647
_cell_angle_alpha  92.226919
_cell_angle_beta   91.701468
_cell_angle_gamma 119.74489
loop_
_atom_site_label
_atom_site_type_symbol
_atom_site_fract_x
_atom_site_fract_y
_atom_site_fract_z
_atom_type_partial_charge
H0 H 0.32921 0.50137 0.16085 0.0
H1 H 0.27507 0.50283 0.24294 0.0
H2 H 0.27111 0.48837 0.05781 0.0
H3 H 0.24794 0.50052 0.05421 0.0
H4 H 0.18821 0.49048 0.13089 0.0
H5 H 0.23917 0.48839 0.23622 0.0
C6 C 0.31284 0.50011 0.1576 0.0
C7 C 0.30168 0.49587 0.1033 0.0
C8 C 0.303 0.50201 0.20789 0.0
C9 C 0.28169 0.50012 0.20373 0.0
C10 C 0.26958 0.49545 0.1498 0.0
C11 C 0.27978 0.4927 0.09987 0.0
C12 C 0.24683 0.49405 0.14547 0.0
C13 C 0.23818 0.49659 0.09198 0.0
C14 C 0.21703 0.49495 0.0863 0.0
C15 C 0.20449 0.49156 0.13504 0.0
C16 C 0.2127 0.48977 0.18929 0.0
C17 C 0.23366 0.4907 0.19428 0.0
H18 H 0.70427 0.19107 0.12899 0.0
H19 H 0.76619 0.24133 0.21577 0.0
H20 H 0.75752 0.23792 0.02989 0.0
H21 H 0.79513 0.24952 0.03857 0.0
H22 H 0.84824 0.31294 0.11 0.0
H23 H 0.78667 0.27959 0.19677 0.0
C24 C 0.72095 0.20557 0.12719 0.0
C25 C 0.72946 0.21322 0.07342 0.0
C26 C 0.73391 0.21579 0.17871 0.0
C27 C 0.75602 0.23375 0.17603 0.0
C28 C 0.76491 0.24197 0.12237 0.0
C29 C 0.75133 0.23154 0.07139 0.0
C30 C 0.78812 0.2616 0.1193 0.0
C31 C 0.80138 0.26288 0.07245 0.0
C32 C 0.82293 0.28153 0.06929 0.0
C33 C 0.8314 0.29877 0.1128 0.0
C34 C 0.81841 0.29845 0.1584 0.0
C35 C 0.79686 0.27967 0.16198 0.0
H36 H 0.53245 0.83386 0.05343 0.0
H37 H 0.53663 0.7833 0.14732 0.0
H38 H 0.53555 0.78027 0.96018 0.0
H39 H 0.51572 0.74222 0.97563 0.0
H40 H 0.53714 0.70049 0.05776 0.0
H41 H 0.55699 0.76581 0.1357 0.0
C42 C 0.53319 0.81836 0.05354 0.0
C43 C 0.53336 0.80778 0.00123 0.0
C44 C 0.53472 0.80977 0.10592 0.0
C45 C 0.53608 0.79 0.1062 0.0
C46 C 0.53607 0.77874 0.05386 0.0
C47 C 0.53498 0.78807 0.00109 0.0
C48 C 0.53672 0.75717 0.05469 0.0
C49 C 0.52521 0.74001 0.0103 0.0
C50 C 0.52508 0.71945 0.01174 0.0
C51 C 0.53692 0.71624 0.0569 0.0
C52 C 0.54807 0.73261 0.10188 0.0
C53 C 0.54802 0.75311 0.1009 0.0
H54 H 0.8445 0.53004 0.08621 0.0
H55 H 0.79199 0.53549 0.1657 0.0
H56 H 0.78674 0.5177 0.98239 0.0
H57 H 0.76048 0.52614 0.9783 0.0
H58 H 0.70239 0.5166 0.06369 0.0
H59 H 0.7563 0.51769 0.16261 0.0
C60 C 0.82849 0.52954 0.08271 0.0
C61 C 0.81737 0.52523 0.02821 0.0
C62 C 0.81907 0.53257 0.1326 0.0
C63 C 0.79811 0.53141 0.12741 0.0
C64 C 0.78549 0.52546 0.07399 0.0
C65 C 0.79553 0.52229 0.02433 0.0
C66 C 0.76214 0.52271 0.07091 0.0
C67 C 0.75183 0.52334 0.01782 0.0
C68 C 0.72995 0.52016 0.01477 0.0
C69 C 0.71872 0.51774 0.0657 0.0
C70 C 0.72843 0.51746 0.11923 0.0
C71 C 0.7498 0.51935 0.12131 0.0
H72 H 0.33398 0.8302 0.0943 0.0
H73 H 0.27853 0.78783 0.19241 0.0
H74 H 0.27621 0.77504 0.00692 0.0
H75 H 0.24165 0.75272 0.00946 0.0
H76 H 0.19059 0.70443 0.10867 0.0
H77 H 0.25099 0.75529 0.19681 0.0
C78 C 0.3174 0.81553 0.09596 0.0
C79 C 0.30574 0.8034 0.04469 0.0
C80 C 0.30774 0.80952 0.14921 0.0
C81 C 0.2857 0.79139 0.15085 0.0
C82 C 0.27352 0.77813 0.10014 0.0
C83 C 0.28413 0.78458 0.04707 0.0
C84 C 0.25022 0.75769 0.10274 0.0
C85 C 0.23647 0.7467 0.05162 0.0
C86 C 0.21524 0.7275 0.05408 0.0
C87 C 0.2071 0.71928 0.10716 0.0
C88 C 0.21993 0.72951 0.15821 0.0
C89 C 0.24141 0.7485 0.15626 0.0
H90 H 0.52138 0.32261 0.14044 0.0
H91 H 0.50517 0.26634 0.24222 0.0
H92 H 0.50686 0.25961 0.05621 0.0
H93 H 0.48154 0.22403 0.07034 0.0
H94 H 0.48055 0.17191 0.16863 0.0
H95 H 0.51644 0.24017 0.23939 0.0
C96 C 0.51795 0.30537 0.14299 0.0
C97 C 0.5145 0.29216 0.09222 0.0
C98 C 0.5148 0.29618 0.1968 0.0
C99 C 0.50861 0.27343 0.20037 0.0
C100 C 0.50615 0.25985 0.15014 0.0
C101 C 0.50897 0.2695 0.09583 0.0
C102 C 0.49954 0.2355 0.15468 0.0
C103 C 0.48666 0.21924 0.10938 0.0
C104 C 0.47986 0.19639 0.11447 0.0
C105 C 0.48549 0.18956 0.1651 0.0
C106 C 0.49849 0.2052 0.21004 0.0
C107 C 0.50583 0.22819 0.20472 0.0
C108 C 0.99333 0.44127 0.75196 0.0
C109 C 0.0604 0.48635 0.69394 0.0
C110 C 0.03993 0.5514 0.71317 0.0
Mg111 Mg 0.01323 0.45992 0.63436 0.0
O112 O 1.00668 0.48225 0.66188 0.0
Mg113 Mg 0.02055 0.49809 0.73899 0.0
Mg114 Mg 0.01651 0.50923 0.6161 0.0
O115 O 0.02632 0.53615 0.56982 0.0
Mg116 Mg 0.01996 0.55885 0.59434 0.0
Mg117 Mg 0.01349 0.52065 0.4919 0.0
C118 C 0.99141 0.46708 0.51874 0.0
C119 C 0.05406 0.51104 0.52743 0.0
O120 O 1.00132 0.46166 0.77354 0.0
O121 O 0.99589 0.43681 0.69951 0.0
O122 O 0.05213 0.49516 0.72784 0.0
O123 O 0.04879 0.47286 0.65105 0.0
O124 O 0.99718 0.45476 0.54717 0.0
O125 O 0.99594 0.48681 0.5382 0.0
C126 C 0.97936 0.5072 0.70614 0.0
O127 O 0.98595 0.51101 0.65429 0.0
O128 O 0.98967 0.50195 0.744 0.0
O129 O 0.03407 0.55676 0.45774 0.0
O130 O 0.03965 0.58188 0.53106 0.0
O131 O 0.98232 0.52459 0.49838 0.0
C132 C 0.04288 0.57722 0.47941 0.0
O133 O 0.9847 0.54683 0.57413 0.0
O134 O 0.03396 0.56318 0.68305 0.0
C135 C 0.97375 0.53373 0.53004 0.0
O136 O 0.037 0.53215 0.69395 0.0
O137 O 0.04697 0.50698 0.57867 0.0
O138 O 0.04425 0.51653 0.48897 0.0
C139 C 0.47289 0.02207 0.77543 0.0
C140 C 0.45388 0.95879 0.6847 0.0
C141 C 0.54064 0.98452 0.68675 0.0
Mg142 Mg 0.47135 0.0068 0.64655 0.0
O143 O 0.50111 0.01559 0.67084 0.0
Mg144 Mg 0.50563 1.00011 0.73718 0.0
Mg145 Mg 0.51873 0.00988 0.61339 0.0
O146 O 0.53624 0.00415 0.55567 0.0
Mg147 Mg 0.5659 0.0119 0.57768 0.0
Mg148 Mg 0.53163 0.01955 0.48924 0.0
C149 C 0.49711 0.03522 0.53941 0.0
C150 C 0.48324 0.97559 0.51108 0.0
O151 O 0.48724 0.01582 0.78909 0.0
O152 O 0.46489 0.02013 0.72364 0.0
O153 O 0.47169 0.96747 0.71797 0.0
O154 O 0.45063 0.97043 0.64781 0.0
O155 O 0.47933 0.02617 0.5685 0.0
O156 O 0.51404 0.03261 0.55159 0.0
C157 C 0.5537 0.04452 0.71567 0.0
O158 O 0.54995 0.0397 0.66107 0.0
O159 O 0.53949 0.03233 0.7517 0.0
O160 O 0.54856 0.00277 0.43673 0.0
O161 O 0.57041 0.99698 0.50023 0.0
O162 O 0.56623 0.05181 0.50707 0.0
C163 C 0.56192 0.99519 0.44907 0.0
O164 O 0.5875 0.04802 0.57509 0.0
O165 O 0.55815 0.99317 0.65661 0.0
C166 C 0.58436 0.05997 0.53902 0.0
O167 O 0.52375 0.98732 0.67527 0.0
O168 O 0.48732 0.98005 0.56574 0.0
O169 O 0.49736 0.98787 0.47507 0.0
C170 C 0.55098 0.56967 0.45498 0.0
C171 C 0.57751 0.5268 0.50776 0.0
C172 C 0.49193 0.46119 0.51693 0.0
Mg173 Mg 0.55916 0.55388 0.57346 0.0
O174 O 0.52937 0.53126 0.5527 0.0
Mg175 Mg 0.52327 0.51349 0.47752 0.0
Mg176 Mg 0.51483 0.50606 0.60473 0.0
O177 O 0.50046 0.48108 0.65784 0.0
Mg178 Mg 0.47073 0.45762 0.64159 0.0
Mg179 Mg 0.50717 0.49922 0.7329 0.0
C180 C 0.53536 0.55115 0.69235 0.0
C181 C 0.55503 0.50779 0.68725 0.0
O182 O 0.53797 0.54892 0.43625 0.0
O183 O 0.56045 0.57501 0.50598 0.0
O184 O 0.55847 0.51694 0.47949 0.0
O185 O 0.58151 0.54093 0.55053 0.0
O186 O 0.55219 0.56223 0.66099 0.0
O187 O 0.52002 0.53081 0.67818 0.0
C188 C 0.47551 0.50579 0.52214 0.0
O189 O 0.48131 0.50351 0.57341 0.0
O190 O 0.48854 0.50976 0.48045 0.0
O191 O 0.49495 0.46463 0.77495 0.0
O192 O 0.47226 0.43718 0.70819 0.0
O193 O 0.47154 0.49476 0.73466 0.0
C194 C 0.48289 0.44361 0.75782 0.0
O195 O 0.44769 0.46928 0.6674 0.0
O196 O 0.47614 0.45059 0.55162 0.0
C197 C 0.45202 0.48393 0.70899 0.0
O198 O 0.50869 0.481 0.53052 0.0
O199 O 0.54875 0.50901 0.63557 0.0
O200 O 0.54217 0.50417 0.72899 0.0
H201 H 0.16944 0.45768 0.20474 0.0
H202 H 0.14461 0.4591 0.27626 0.0
H203 H 0.20005 0.51988 0.35758 0.0
H204 H 0.22514 0.5181 0.28673 0.0
H205 H 0.16981 0.49201 0.43787 0.0
H206 H 0.12478 0.50553 0.25532 0.0
H207 H 0.12539 0.47964 0.24682 0.0
H208 H 0.15115 0.50623 0.24777 0.0
C209 C 0.17645 0.47099 0.23885 0.0
C210 C 0.1992 0.48783 0.24005 0.0
C211 C 0.16221 0.4719 0.27946 0.0
C212 C 0.17027 0.48992 0.32152 0.0
C213 C 0.19337 0.50587 0.32542 0.0
H214 H 0.08671 0.53945 0.46099 0.0
H215 H 0.11636 0.53483 0.41867 0.0
C216 C 0.20773 0.5048 0.28507 0.0
C217 C 0.15428 0.49325 0.35728 0.0
H218 H 0.10896 0.50115 0.34593 0.0
C219 C 0.1565 0.49403 0.41787 0.0
C220 C 0.13709 0.49627 0.33134 0.0
C221 C 0.13453 0.49711 0.26681 0.0
C222 C 0.14187 0.49747 0.45297 0.0
C223 C 0.12435 0.49991 0.42679 0.0
C224 C 0.12226 0.49919 0.36626 0.0
C225 C 0.10839 0.50414 0.46037 0.0
C226 C 0.14567 0.49902 0.51767 0.0
C227 C 0.09424 0.48882 0.49954 0.0
C228 C 0.07731 0.49166 0.52461 0.0
C229 C 0.07407 0.50969 0.51035 0.0
C230 C 0.08876 0.52538 0.47287 0.0
C231 C 0.10573 0.52272 0.44852 0.0
H232 H 0.16297 0.50285 0.53056 0.0
H233 H 0.14274 0.51223 0.53813 0.0
H234 H 0.13372 0.48259 0.53477 0.0
H235 H 0.0955 0.47406 0.50857 0.0
H236 H 0.06594 0.47898 0.55204 0.0
H237 H 0.69275 0.20653 0.21245 0.0
H238 H 0.6737 0.1869 0.29655 0.0
H239 H 0.73306 0.18545 0.35575 0.0
H240 H 0.75216 0.20481 0.27031 0.0
H241 H 0.69558 0.14391 0.35077 0.0
H242 H 0.67697 0.20435 0.46599 0.0
H243 H 0.66815 0.20063 0.39103 0.0
H244 H 0.69754 0.21281 0.41187 0.0
C245 C 0.70189 0.20235 0.24383 0.0
C246 C 0.72392 0.2071 0.23459 0.0
C247 C 0.69105 0.19134 0.29232 0.0
C248 C 0.70201 0.18496 0.3331 0.0
C249 C 0.72433 0.1904 0.32517 0.0
H250 H 0.6287 0.08012 0.57825 0.0
H251 H 0.66037 0.11339 0.54091 0.0
C252 C 0.73527 0.20154 0.27652 0.0
C253 C 0.6891 0.17034 0.37967 0.0
H254 H 0.65222 0.16474 0.48206 0.0
C255 C 0.68655 0.14865 0.38055 0.0
C256 C 0.67727 0.1765 0.41851 0.0
C257 C 0.68031 0.19994 0.42224 0.0
C258 C 0.67131 0.13247 0.41614 0.0
C259 C 0.65853 0.13825 0.45263 0.0
C260 C 0.66197 0.16031 0.45404 0.0
C261 C 0.63972 0.12085 0.48396 0.0
C262 C 0.66793 0.10887 0.41155 0.0
C263 C 0.61758 0.11486 0.46708 0.0
C264 C 0.59948 0.09599 0.48848 0.0
C265 C 0.60312 0.08267 0.52735 0.0
C266 C 0.62527 0.08984 0.548 0.0
C267 C 0.64342 0.10878 0.5264 0.0
H268 H 0.67643 0.10623 0.37453 0.0
H269 H 0.67492 0.10579 0.45163 0.0
H270 H 0.64976 0.09616 0.40662 0.0
H271 H 0.61431 0.12403 0.43473 0.0
H272 H 0.58267 0.09117 0.47209 0.0
H273 H 0.57981 0.72001 0.09848 0.0
H274 H 0.58443 0.69598 0.16629 0.0
H275 H 0.54199 0.70588 0.28315 0.0
H276 H 0.53674 0.72941 0.21409 0.0
H277 H 0.59758 0.69604 0.27686 0.0
H278 H 0.50562 0.63863 0.24135 0.0
H279 H 0.52089 0.66319 0.20061 0.0
H280 H 0.5132 0.6661 0.27252 0.0
C281 C 0.57218 0.71776 0.13966 0.0
C282 C 0.55779 0.72641 0.15095 0.0
C283 C 0.5747 0.70389 0.17824 0.0
C284 C 0.56293 0.69848 0.22891 0.0
C285 C 0.5507 0.7093 0.24348 0.0
H286 H 0.5734 0.61481 0.48599 0.0
H287 H 0.57694 0.64565 0.43037 0.0
C288 C 0.54805 0.72309 0.20456 0.0
C289 C 0.56167 0.67982 0.2626 0.0
H290 H 0.52486 0.62735 0.30577 0.0
C291 C 0.58167 0.68106 0.28343 0.0
C292 C 0.54095 0.65993 0.26957 0.0
C293 C 0.51895 0.65669 0.24438 0.0
C294 C 0.58153 0.66315 0.31165 0.0
C295 C 0.56074 0.64364 0.32063 0.0
C296 C 0.54077 0.64232 0.29924 0.0
C297 C 0.55924 0.62466 0.35333 0.0
C298 C 0.6037 0.6651 0.33012 0.0
C299 C 0.54755 0.6023 0.32926 0.0
C300 C 0.54514 0.58436 0.36149 0.0
C301 C 0.55439 0.58844 0.41849 0.0
C302 C 0.56622 0.6109 0.44208 0.0
C303 C 0.56843 0.62871 0.41012 0.0
H304 H 0.61745 0.67704 0.30396 0.0
H305 H 0.60809 0.67169 0.37586 0.0
H306 H 0.60288 0.64846 0.32626 0.0
H307 H 0.54014 0.59872 0.2856 0.0
H308 H 0.53586 0.56732 0.34199 0.0
H309 H 0.86439 0.55698 0.16097 0.0
H310 H 0.88383 0.55705 0.25026 0.0
H311 H 0.82029 0.51778 0.32665 0.0
H312 H 0.80058 0.51598 0.23557 0.0
H313 H 0.88696 0.57104 0.35856 0.0
H314 H 0.84584 0.47729 0.34628 0.0
H315 H 0.84254 0.49246 0.28865 0.0
H316 H 0.82709 0.48833 0.35257 0.0
C317 C 0.85446 0.54815 0.19647 0.0
C318 C 0.83086 0.53594 0.19026 0.0
C319 C 0.86565 0.54845 0.24792 0.0
C320 C 0.85355 0.53688 0.29484 0.0
C321 C 0.83001 0.52622 0.29052 0.0
H322 H 0.94953 0.55156 0.5804 0.0
H323 H 0.91605 0.55093 0.53796 0.0
C324 C 0.81875 0.52552 0.23854 0.0
C325 C 0.86588 0.535 0.34614 0.0
H326 H 0.874 0.49691 0.41889 0.0
C327 C 0.88398 0.55484 0.37236 0.0
C328 C 0.86193 0.51381 0.36417 0.0
C329 C 0.84344 0.49174 0.33627 0.0
C330 C 0.8992 0.55412 0.41279 0.0
C331 C 0.89572 0.53291 0.42919 0.0
C332 C 0.87661 0.51313 0.40636 0.0
C333 C 0.91351 0.53062 0.4611 0.0
C334 C 0.91975 0.57602 0.43398 0.0
C335 C 0.92223 0.51812 0.43416 0.0
C336 C 0.94091 0.51803 0.45873 0.0
C337 C 0.95159 0.53069 0.51068 0.0
C338 C 0.94194 0.54195 0.53986 0.0
C339 C 0.92292 0.54177 0.51541 0.0
H340 H 0.92186 0.59044 0.40906 0.0
H341 H 0.91821 0.57991 0.47986 0.0
H342 H 0.93516 0.57468 0.43095 0.0
H343 H 0.91522 0.50923 0.39248 0.0
H344 H 0.9476 0.50887 0.43528 0.0
H345 H 0.35126 0.8222 0.17798 0.0
H346 H 0.37472 0.84627 0.2606 0.0
H347 H 0.31818 0.84956 0.3257 0.0
H348 H 0.29462 0.82591 0.2414 0.0
H349 H 0.35422 0.89071 0.32368 0.0
H350 H 0.38071 0.83598 0.42762 0.0
H351 H 0.3857 0.83659 0.35226 0.0
H352 H 0.35735 0.82497 0.37474 0.0
C353 C 0.34374 0.82791 0.21004 0.0
C354 C 0.32112 0.82228 0.20292 0.0
C355 C 0.35711 0.84141 0.2578 0.0
C356 C 0.34814 0.84939 0.30008 0.0
C357 C 0.32539 0.84337 0.29395 0.0
H358 H 0.45154 0.93999 0.56859 0.0
H359 H 0.41527 0.90894 0.52863 0.0
C360 C 0.31194 0.82981 0.24592 0.0
C361 C 0.36334 0.86594 0.34669 0.0
H362 H 0.40703 0.87661 0.44112 0.0
C363 C 0.36538 0.88744 0.35041 0.0
C364 C 0.37764 0.86164 0.38267 0.0
C365 C 0.37504 0.83844 0.38457 0.0
C366 C 0.38259 0.90522 0.38523 0.0
C367 C 0.39842 0.90152 0.41613 0.0
C368 C 0.39517 0.87957 0.41652 0.0
C369 C 0.41976 0.92058 0.44208 0.0
C370 C 0.3841 0.92803 0.38697 0.0
C371 C 0.43444 0.93713 0.40659 0.0
C372 C 0.45496 0.95483 0.42924 0.0
C373 C 0.46144 0.95637 0.488 0.0
C374 C 0.44687 0.93956 0.5235 0.0
C375 C 0.42621 0.92175 0.50066 0.0
H376 H 0.36727 0.92632 0.37927 0.0
H377 H 0.3916 0.93756 0.42907 0.0
H378 H 0.39478 0.93798 0.35231 0.0
H379 H 0.43013 0.93623 0.36095 0.0
H380 H 0.46573 0.96737 0.40045 0.0
H381 H 0.5495 0.33657 0.23802 0.0
H382 H 0.54629 0.36525 0.29654 0.0
H383 H 0.47714 0.31699 0.32313 0.0
H384 H 0.48032 0.28824 0.26415 0.0
H385 H 0.48421 0.35616 0.26759 0.0
H386 H 0.5396 0.37874 0.46681 0.0
H387 H 0.55239 0.37752 0.40142 0.0
H388 H 0.52923 0.3522 0.42536 0.0
C389 C 0.53396 0.33185 0.25864 0.0
C390 C 0.51518 0.31026 0.24703 0.0
C391 C 0.53211 0.34823 0.2919 0.0
C392 C 0.51148 0.34321 0.31407 0.0
C393 C 0.49322 0.32111 0.30647 0.0
H394 H 0.45833 0.42127 0.4676 0.0
H395 H 0.46322 0.39391 0.40887 0.0
C396 C 0.4951 0.30466 0.27339 0.0
C397 C 0.50816 0.36172 0.33728 0.0
H398 H 0.52646 0.40387 0.44332 0.0
C399 C 0.4933 0.36651 0.30628 0.0
C400 C 0.52037 0.37539 0.38703 0.0
C401 C 0.53617 0.37065 0.42245 0.0
C402 C 0.49042 0.38475 0.32359 0.0
C403 C 0.50244 0.39829 0.37373 0.0
C404 C 0.51741 0.39358 0.40451 0.0
C405 C 0.49857 0.41634 0.39793 0.0
C406 C 0.47479 0.38956 0.28758 0.0
C407 C 0.51665 0.43833 0.40956 0.0
C408 C 0.51392 0.45407 0.44341 0.0
C409 C 0.49312 0.44789 0.4668 0.0
C410 C 0.4746 0.42653 0.45053 0.0
C411 C 0.47734 0.41085 0.41671 0.0
H412 H 0.47268 0.38264 0.2423 0.0
H413 H 0.45801 0.38137 0.30592 0.0
H414 H 0.48103 0.40797 0.28741 0.0
H415 H 0.53317 0.4429 0.39531 0.0
H416 H 0.52855 0.47035 0.45515 0.0
H417 H 0.56837 0.83908 0.94544 0.0
H418 H 0.56709 0.86702 0.88461 0.0
H419 H 0.49474 0.83047 0.8824 0.0
H420 H 0.49609 0.8027 0.94384 0.0
H421 H 0.54531 0.86707 0.77716 0.0
H422 H 0.51288 0.89201 0.96628 0.0
H423 H 0.52451 0.87353 0.97127 0.0
H424 H 0.49654 0.86292 0.94037 0.0
C425 C 0.55221 0.83647 0.92956 0.0
C426 C 0.53232 0.8186 0.94834 0.0
C427 C 0.55147 0.85256 0.89543 0.0
C428 C 0.53083 0.85109 0.88011 0.0
C429 C 0.51086 0.83211 0.89454 0.0
H430 H 0.50239 0.95057 0.72952 0.0
H431 H 0.49904 0.9179 0.77812 0.0
C432 C 0.5116 0.81606 0.92874 0.0
C433 C 0.53042 0.87046 0.85433 0.0
H434 H 0.51771 0.91223 0.88295 0.0
C435 C 0.5392 0.87689 0.80014 0.0
C436 C 0.5225 0.88332 0.88455 0.0
C437 C 0.51373 0.87779 0.94405 0.0
C438 C 0.5402 0.89577 0.77523 0.0
C439 C 0.53266 0.90887 0.8059 0.0
C440 C 0.52351 0.90221 0.85962 0.0
C441 C 0.53475 0.92984 0.7833 0.0
C442 C 0.54917 0.90143 0.71599 0.0
C443 C 0.55598 0.94796 0.77314 0.0
C444 C 0.55795 0.96665 0.74572 0.0
C445 C 0.53873 0.96772 0.72818 0.0
C446 C 0.51755 0.95036 0.74259 0.0
C447 C 0.51559 0.93157 0.76995 0.0
H448 H 0.54842 0.88662 0.69218 0.0
H449 H 0.53962 0.90749 0.68996 0.0
H450 H 0.56701 0.91505 0.72041 0.0
H451 H 0.57103 0.94729 0.78459 0.0
H452 H 0.57454 0.9798 0.73585 0.0
H453 H 0.74656 0.54826 0.92503 0.0
H454 H 0.7252 0.54898 0.83909 0.0
H455 H 0.6657 0.4912 0.89403 0.0
H456 H 0.687 0.48984 0.97793 0.0
H457 H 0.66833 0.4895 0.77647 0.0
H458 H 0.6828 0.57372 0.85866 0.0
H459 H 0.70709 0.57145 0.84307 0.0
H460 H 0.69044 0.55696 0.90186 0.0
C461 C 0.72905 0.53543 0.91794 0.0
C462 C 0.71833 0.51925 0.9588 0.0
C463 C 0.71683 0.53598 0.86912 0.0
C464 C 0.69372 0.52043 0.86073 0.0
C465 C 0.68346 0.50344 0.89961 0.0
H466 H 0.57523 0.51378 0.79369 0.0
H467 H 0.6121 0.51918 0.819 0.0
C468 C 0.69561 0.50282 0.94793 0.0
C469 C 0.67932 0.52268 0.81547 0.0
H470 H 0.65449 0.55413 0.78674 0.0
C471 C 0.66567 0.50388 0.77745 0.0
C472 C 0.67591 0.5415 0.81681 0.0
C473 C 0.68969 0.56204 0.85738 0.0
C474 C 0.64748 0.50257 0.74462 0.0
C475 C 0.64308 0.52067 0.74947 0.0
C476 C 0.65797 0.5403 0.78323 0.0
C477 C 0.62091 0.51779 0.7309 0.0
C478 C 0.63196 0.48111 0.70896 0.0
C479 C 0.61348 0.51513 0.67257 0.0
C480 C 0.59203 0.51183 0.65767 0.0
C481 C 0.57782 0.51123 0.70091 0.0
C482 C 0.58556 0.51404 0.75905 0.0
C483 C 0.60677 0.51727 0.77374 0.0
H484 H 0.63705 0.46808 0.71248 0.0
H485 H 0.61453 0.47404 0.72289 0.0
H486 H 0.6319 0.48486 0.66293 0.0
H487 H 0.6242 0.51559 0.63877 0.0
H488 H 0.58651 0.50951 0.61258 0.0
H489 H 0.22221 0.69975 0.98224 0.0
H490 H 0.19294 0.66779 0.92206 0.0
H491 H 0.1469 0.69224 0.95353 0.0
H492 H 0.17604 0.72386 0.01475 0.0
H493 H 0.13187 0.64931 0.98805 0.0
H494 H 0.1602 0.65581 0.76453 0.0
H495 H 0.18053 0.65855 0.8194 0.0
H496 H 0.17216 0.6796 0.81693 0.0
C497 C 0.20619 0.69886 0.97374 0.0
C498 C 0.20136 0.71432 0.00218 0.0
C499 C 0.18943 0.68054 0.93969 0.0
C500 C 0.16773 0.67763 0.93334 0.0
C501 C 0.16353 0.69419 0.95787 0.0
H502 H 0.03898 0.58287 0.78618 0.0
H503 H 0.07028 0.6108 0.8495 0.0
C504 C 0.18021 0.71237 0.99217 0.0
C505 C 0.14874 0.65603 0.90829 0.0
H506 H 0.12828 0.62137 0.78562 0.0
C507 C 0.13108 0.64322 0.94372 0.0
C508 C 0.14791 0.64794 0.85084 0.0
C509 C 0.1661 0.66125 0.81047 0.0
C510 C 0.11243 0.62272 0.92295 0.0
C511 C 0.11136 0.6149 0.86517 0.0
C512 C 0.12928 0.62735 0.83015 0.0
C513 C 0.09084 0.59524 0.8381 0.0
C514 C 0.09399 0.60963 0.96288 0.0
C515 C 0.09165 0.57672 0.81259 0.0
C516 C 0.0736 0.56053 0.77678 0.0
C517 C 0.05477 0.56301 0.76511 0.0
C518 C 0.05328 0.58053 0.79456 0.0
C519 C 0.07117 0.59651 0.83075 0.0
H520 H 0.10012 0.61419 0.00891 0.0
H521 H 0.08031 0.6136 0.95565 0.0
H522 H 0.08683 0.59115 0.95437 0.0
H523 H 0.10674 0.5755 0.81771 0.0
H524 H 0.07532 0.54735 0.75415 0.0
H525 H 0.49669 0.19666 0.01048 0.0
H526 H 0.48647 0.16324 0.94699 0.0
H527 H 0.42937 0.12382 0.04737 0.0
H528 H 0.43997 0.15719 0.11178 0.0
H529 H 0.45741 0.10733 0.04574 0.0
H530 H 0.44071 0.12231 0.82222 0.0
H531 H 0.4665 0.14531 0.85367 0.0
H532 H 0.44031 0.13906 0.88377 0.0
C533 C 0.48133 0.18113 0.01711 0.0
C534 C 0.46907 0.1794 0.06573 0.0
C535 C 0.47551 0.162 0.98091 0.0
C536 C 0.45715 0.141 0.99245 0.0
C537 C 0.4436 0.13984 0.03772 0.0
H538 H 0.4343 0.02389 0.77595 0.0
H539 H 0.42716 0.04981 0.8347 0.0
C540 C 0.44953 0.1589 0.07416 0.0
C541 C 0.45454 0.11998 0.9641 0.0
H542 H 0.45267 0.09476 0.83297 0.0
C543 C 0.45593 0.10435 0.99919 0.0
C544 C 0.45252 0.11604 0.90351 0.0
C545 C 0.44969 0.13147 0.86368 0.0
C546 C 0.45629 0.08539 0.97525 0.0
C547 C 0.45571 0.08224 0.91464 0.0
C548 C 0.45334 0.09732 0.87954 0.0
C549 C 0.45841 0.06399 0.88633 0.0
C550 C 0.45743 0.06904 0.01513 0.0
C551 C 0.47803 0.0628 0.89725 0.0
C552 C 0.48205 0.04776 0.86413 0.0
C553 C 0.46668 0.03402 0.81895 0.0
C554 C 0.44651 0.03439 0.81031 0.0
C555 C 0.44242 0.04921 0.84371 0.0
H556 H 0.45053 0.06968 0.0574 0.0
H557 H 0.44805 0.05145 0.99585 0.0
H558 H 0.47524 0.07366 0.02339 0.0
H559 H 0.49081 0.07436 0.9292 0.0
H560 H 0.49784 0.04802 0.87128 0.0
H561 H 0.34452 0.52586 0.07835 0.0
H562 H 0.36611 0.52304 0.00013 0.0
H563 H 0.30791 0.46165 0.93147 0.0
H564 H 0.28605 0.4644 0.01033 0.0
H565 H 0.37395 0.48698 0.98287 0.0
H566 H 0.33265 0.49743 0.78614 0.0
H567 H 0.32889 0.5059 0.85772 0.0
H568 H 0.31456 0.47658 0.8336 0.0
C569 C 0.3362 0.51183 0.04635 0.0
C570 C 0.31358 0.49523 0.05097 0.0
C571 C 0.34857 0.51029 0.00148 0.0
C572 C 0.33869 0.49219 0.95964 0.0
C573 C 0.31585 0.47597 0.96267 0.0
H574 H 0.40619 0.45565 0.69414 0.0
H575 H 0.37722 0.4572 0.7505 0.0
C576 C 0.30337 0.47754 0.0078 0.0
C577 C 0.35305 0.48965 0.91634 0.0
H578 H 0.3625 0.4901 0.77226 0.0
C579 C 0.37138 0.48763 0.93683 0.0
C580 C 0.34963 0.49026 0.85614 0.0
C581 C 0.33048 0.49282 0.83179 0.0
C582 C 0.38648 0.4865 0.89919 0.0
C583 C 0.38355 0.48788 0.83916 0.0
C584 C 0.36485 0.48923 0.81826 0.0
C585 C 0.40024 0.48855 0.79841 0.0
C586 C 0.40545 0.48374 0.92419 0.0
C587 C 0.42262 0.50619 0.80451 0.0
C588 C 0.43917 0.50533 0.77261 0.0
C589 C 0.43373 0.48688 0.73338 0.0
C590 C 0.411 0.47008 0.724 0.0
C591 C 0.3944 0.47091 0.75632 0.0
H592 H 0.40192 0.47689 0.96764 0.0
H593 H 0.4086 0.47232 0.89557 0.0
H594 H 0.42102 0.50046 0.92862 0.0
H595 H 0.42747 0.52024 0.83576 0.0
H596 H 0.45642 0.51875 0.78045 0.0
H597 H 0.85953 0.27643 0.05983 0.0
H598 H 0.89004 0.29746 0.99599 0.0
H599 H 0.84895 0.31941 0.90669 0.0
H600 H 0.81824 0.29764 0.96886 0.0
H601 H 0.87752 0.3159 0.83486 0.0
H602 H 0.92345 0.36444 0.03859 0.0
H603 H 0.91604 0.33528 0.03622 0.0
H604 H 0.89433 0.34274 0.03571 0.0
C605 C 0.85667 0.28473 0.02443 0.0
C606 C 0.83655 0.2853 0.01868 0.0
C607 C 0.87422 0.29709 0.98872 0.0
C608 C 0.87206 0.31066 0.94794 0.0
C609 C 0.85109 0.30922 0.93814 0.0
H610 H 0.97011 0.44152 0.84557 0.0
H611 H 0.94179 0.40876 0.89261 0.0
C612 C 0.83344 0.29659 0.97325 0.0
C613 C 0.89206 0.32843 0.92091 0.0
H614 H 0.94213 0.37682 0.95302 0.0
C615 C 0.89175 0.32912 0.8606 0.0
C616 C 0.91039 0.34602 0.95469 0.0
C617 C 0.91107 0.3473 0.01987 0.0
C618 C 0.90909 0.34698 0.83315 0.0
C619 C 0.92762 0.36432 0.86691 0.0
C620 C 0.92806 0.36344 0.92715 0.0
C621 C 0.94606 0.38421 0.84098 0.0
C622 C 0.90681 0.34758 0.76849 0.0
C623 C 0.9585 0.38144 0.79778 0.0
C624 C 0.97452 0.40012 0.77041 0.0
C625 C 0.97879 0.42203 0.78654 0.0
C626 C 0.9673 0.4249 0.83224 0.0
C627 C 0.95103 0.40616 0.85902 0.0
H628 H 0.88914 0.33672 0.75146 0.0
H629 H 0.91276 0.36505 0.75563 0.0
H630 H 0.9171 0.34121 0.74774 0.0
H631 H 0.95554 0.36479 0.78442 0.0
H632 H 0.98328 0.39735 0.73581 0.0
H633 H 0.86056 0.55419 0.00386 0.0
H634 H 0.88225 0.54991 0.92852 0.0
H635 H 0.82321 0.48948 0.85871 0.0
H636 H 0.8014 0.49333 0.93609 0.0
H637 H 0.85737 0.48211 0.87097 0.0
H638 H 0.88843 0.56133 0.76133 0.0
H639 H 0.8948 0.56755 0.83743 0.0
H640 H 0.8659 0.55207 0.81 0.0
C641 C 0.85206 0.5401 0.97211 0.0
C642 C 0.82924 0.524 0.97638 0.0
C643 C 0.86447 0.53783 0.92839 0.0
C644 C 0.85441 0.51958 0.88697 0.0
C645 C 0.83138 0.50384 0.88977 0.0
H646 H 0.94895 0.51394 0.64026 0.0
H647 H 0.91589 0.51529 0.67375 0.0
C648 C 0.81887 0.5061 0.93383 0.0
C649 C 0.86867 0.51589 0.84534 0.0
H650 H 0.91204 0.54386 0.75726 0.0
C651 C 0.86894 0.49546 0.84514 0.0
C652 C 0.8836 0.53303 0.8104 0.0
C653 C 0.88297 0.5546 0.80431 0.0
C654 C 0.88476 0.49242 0.8148 0.0
C655 C 0.90116 0.51042 0.78473 0.0
C656 C 0.89979 0.53017 0.78111 0.0
C657 C 0.92113 0.50989 0.76281 0.0
C658 C 0.8841 0.47005 0.81659 0.0
C659 C 0.9354 0.50705 0.80168 0.0
C660 C 0.95415 0.50635 0.78287 0.0
C661 C 0.95943 0.50867 0.72446 0.0
C662 C 0.94543 0.51207 0.68544 0.0
C663 C 0.92649 0.51278 0.70454 0.0
H664 H 0.86682 0.45611 0.82265 0.0
H665 H 0.89016 0.46605 0.77644 0.0
H666 H 0.89504 0.47075 0.85369 0.0
H667 H 0.93208 0.50545 0.84707 0.0
H668 H 0.96454 0.50398 0.81462 0.0
H669 H 0.28706 0.80986 0.94655 0.0
H670 H 0.30643 0.82837 0.86068 0.0
H671 H 0.36772 0.8339 0.93245 0.0
H672 H 0.34843 0.81517 0.01746 0.0
H673 H 0.34208 0.87175 0.86616 0.0
H674 H 0.36789 0.81429 0.76511 0.0
H675 H 0.34617 0.80509 0.81628 0.0
H676 H 0.37533 0.81946 0.84106 0.0
C677 C 0.30449 0.81443 0.94312 0.0
C678 C 0.31626 0.81113 0.9888 0.0
C679 C 0.31556 0.82509 0.89419 0.0
C680 C 0.33848 0.83232 0.88972 0.0
C681 C 0.34994 0.82808 0.93419 0.0
H682 H 0.45653 0.92838 0.75251 0.0
H683 H 0.42547 0.89487 0.78888 0.0
C684 C 0.33895 0.81757 0.98309 0.0
C685 C 0.35123 0.84673 0.84274 0.0
H686 H 0.38995 0.8537 0.74467 0.0
C687 C 0.35214 0.8676 0.8385 0.0
C688 C 0.36437 0.84131 0.80676 0.0
C689 C 0.36323 0.81871 0.80707 0.0
C690 C 0.36701 0.88384 0.80244 0.0
C691 C 0.38104 0.87888 0.76864 0.0
C692 C 0.37921 0.85751 0.77049 0.0
C693 C 0.39966 0.89667 0.7376 0.0
C694 C 0.36866 0.90673 0.80397 0.0
C695 C 0.39563 0.90821 0.69419 0.0
C696 C 0.41347 0.92761 0.6733 0.0
C697 C 0.43562 0.93572 0.69549 0.0
C698 C 0.43968 0.92287 0.73504 0.0
C699 C 0.4219 0.9036 0.75585 0.0
H700 H 0.35953 0.90908 0.83986 0.0
H701 H 0.38649 0.9204 0.80878 0.0
H702 H 0.36126 0.90857 0.76285 0.0
H703 H 0.37862 0.90283 0.67842 0.0
H704 H 0.40976 0.93693 0.64238 0.0
H705 H 0.54612 0.33217 0.05352 0.0
H706 H 0.5391 0.35429 0.98436 0.0
H707 H 0.47379 0.29695 0.9374 0.0
H708 H 0.48048 0.27497 0.00841 0.0
H709 H 0.52761 0.35317 0.87108 0.0
H710 H 0.45764 0.34214 0.00569 0.0
H711 H 0.47719 0.33305 0.02718 0.0
H712 H 0.45469 0.31634 0.97417 0.0
C713 C 0.53056 0.32406 0.02705 0.0
C714 C 0.51372 0.30197 0.03687 0.0
C715 C 0.52651 0.33674 0.98769 0.0
C716 C 0.50561 0.32753 0.95718 0.0
C717 C 0.48979 0.3046 0.96181 0.0
H718 H 0.45482 0.3978 0.74675 0.0
H719 H 0.45939 0.36888 0.79441 0.0
C720 C 0.49378 0.29192 0.00162 0.0
C721 C 0.49979 0.34268 0.9258 0.0
H722 H 0.4647 0.36482 0.9266 0.0
C723 C 0.51376 0.35558 0.88295 0.0
C724 C 0.48187 0.34609 0.9419 0.0
C725 C 0.46709 0.33386 0.99007 0.0
C726 C 0.51034 0.37178 0.85601 0.0
C727 C 0.49256 0.37521 0.8724 0.0
C728 C 0.4783 0.36207 0.91424 0.0
C729 C 0.48881 0.39272 0.84712 0.0
C730 C 0.52583 0.38529 0.81039 0.0
C731 C 0.50342 0.41567 0.86257 0.0
C732 C 0.50072 0.43228 0.83598 0.0
C733 C 0.48346 0.4262 0.79305 0.0
C734 C 0.46833 0.4031 0.77948 0.0
C735 C 0.47092 0.38653 0.80652 0.0
H736 H 0.5366 0.3783 0.79636 0.0
H737 H 0.51598 0.38572 0.77216 0.0
H738 H 0.53687 0.40295 0.82788 0.0
H739 H 0.51721 0.42073 0.8943 0.0
H740 H 0.51276 0.44986 0.8473 0.0
H741 H 0.19685 0.51962 0.06115 0.0
H742 H 0.178 0.51916 0.96971 0.0
H743 H 0.1976 0.47386 0.8908 0.0
H744 H 0.21626 0.47395 0.98272 0.0
H745 H 0.19424 0.52887 0.85193 0.0
H746 H 0.12731 0.43976 0.87525 0.0
H747 H 0.14601 0.45705 0.93539 0.0
H748 H 0.15613 0.44626 0.87923 0.0
C749 C 0.19724 0.50964 0.02427 0.0
C750 C 0.20778 0.4966 0.02924 0.0
C751 C 0.18663 0.50954 0.97199 0.0
C752 C 0.18626 0.49633 0.92377 0.0
C753 C 0.19758 0.48404 0.92773 0.0
H754 H 0.08105 0.4633 0.65306 0.0
H755 H 0.11627 0.4667 0.69214 0.0
C756 C 0.20831 0.4842 0.98009 0.0
C757 C 0.17249 0.49429 0.87126 0.0
H758 H 0.1211 0.45945 0.80378 0.0
C759 C 0.17845 0.51356 0.84049 0.0
C760 C 0.15204 0.47422 0.85606 0.0
C761 C 0.1448 0.4531 0.88814 0.0
C762 C 0.16386 0.51366 0.79702 0.0
C763 C 0.14259 0.49417 0.78516 0.0
C764 C 0.1374 0.4744 0.81291 0.0
C765 C 0.12411 0.49492 0.75246 0.0
C766 C 0.17106 0.5349 0.76563 0.0
C767 C 0.11712 0.50996 0.77236 0.0
C768 C 0.09711 0.50802 0.75042 0.0
C769 C 0.08346 0.49083 0.70836 0.0
C770 C 0.09115 0.47666 0.68559 0.0
C771 C 0.11126 0.47859 0.70785 0.0
H772 H 0.18955 0.54423 0.76194 0.0
H773 H 0.16273 0.53115 0.72171 0.0
H774 H 0.16658 0.54616 0.79049 0.0
H775 H 0.12641 0.52236 0.8076 0.0
H776 H 0.0918 0.51934 0.76864 0.0
H777 H 0.68494 0.19875 0.0516 0.0
H778 H 0.66067 0.17438 0.97002 0.0
H779 H 0.71796 0.17716 0.89106 0.0
H780 H 0.74233 0.20097 0.9739 0.0
H781 H 0.65941 0.17763 0.85036 0.0
H782 H 0.67716 0.10976 0.91177 0.0
H783 H 0.68545 0.13466 0.95835 0.0
H784 H 0.70091 0.13624 0.896 0.0
C785 C 0.69241 0.19426 0.01679 0.0
C786 C 0.71548 0.20143 0.01973 0.0
C787 C 0.67855 0.1805 0.96993 0.0
C788 C 0.68745 0.17365 0.92497 0.0
C789 C 0.71071 0.18195 0.92581 0.0
H790 H 0.58618 0.07859 0.65592 0.0
H791 H 0.62149 0.11103 0.69584 0.0
C792 C 0.72463 0.19571 0.97291 0.0
C793 C 0.67188 0.1563 0.8805 0.0
H794 H 0.6489 0.10033 0.83981 0.0
C795 C 0.65735 0.16083 0.84707 0.0
C796 C 0.6692 0.13436 0.87667 0.0
C797 C 0.68386 0.12828 0.91276 0.0
C798 C 0.63948 0.1437 0.8122 0.0
C799 C 0.63625 0.12158 0.81043 0.0
C800 C 0.65153 0.11736 0.84123 0.0
C801 C 0.6154 0.10197 0.78444 0.0
C802 C 0.62332 0.149 0.7805 0.0
C803 C 0.60053 0.08603 0.82083 0.0
C804 C 0.58059 0.0675 0.79827 0.0
C805 C 0.57504 0.0644 0.73859 0.0
C806 C 0.59003 0.08036 0.70196 0.0
C807 C 0.61011 0.099 0.72473 0.0
H808 H 0.62676 0.16642 0.79171 0.0
H809 H 0.62468 0.14725 0.73331 0.0
H810 H 0.60578 0.13688 0.79051 0.0
H811 H 0.6043 0.08803 0.86704 0.0
H812 H 0.56954 0.05557 0.82785 0.0
H813 H 0.52566 0.72204 0.89404 0.0
H814 H 0.51632 0.69064 0.82355 0.0
H815 H 0.49173 0.64431 0.95986 0.0
H816 H 0.49837 0.67491 0.02751 0.0
H817 H 0.53743 0.67123 0.82064 0.0
H818 H 0.45251 0.60164 0.84061 0.0
H819 H 0.46071 0.62954 0.87075 0.0
H820 H 0.46415 0.60963 0.91307 0.0
C821 C 0.51704 0.70495 0.90791 0.0
C822 C 0.51327 0.70093 0.96642 0.0
C823 C 0.51195 0.68699 0.8678 0.0
C824 C 0.50348 0.6649 0.88601 0.0
C825 C 0.49767 0.66083 0.94352 0.0
H826 H 0.56265 0.58571 0.77164 0.0
H827 H 0.55322 0.61222 0.82013 0.0
C828 C 0.50191 0.67854 0.98279 0.0
C829 C 0.50489 0.64727 0.84954 0.0
H830 H 0.48161 0.59016 0.83072 0.0
C831 C 0.52482 0.65355 0.82143 0.0
C832 C 0.48844 0.6241 0.8487 0.0
C833 C 0.46519 0.616 0.86939 0.0
C834 C 0.52931 0.63738 0.79594 0.0
C835 C 0.51428 0.61417 0.80262 0.0
C836 C 0.49371 0.60789 0.82745 0.0
C837 C 0.51914 0.59617 0.7822 0.0
C838 C 0.54997 0.64561 0.76149 0.0
C839 C 0.50248 0.57692 0.75029 0.0
C840 C 0.50742 0.56102 0.72624 0.0
C841 C 0.52932 0.56439 0.73188 0.0
C842 C 0.54568 0.58284 0.76655 0.0
C843 C 0.5404 0.59823 0.79306 0.0
H844 H 0.55434 0.66191 0.7427 0.0
H845 H 0.56447 0.64862 0.79038 0.0
H846 H 0.54758 0.63325 0.72569 0.0
H847 H 0.48589 0.57464 0.74143 0.0
H848 H 0.49448 0.54703 0.6992 0.0
H849 H 0.47138 0.18209 0.29374 0.0
H850 H 0.4759 0.15584 0.35404 0.0
H851 H 0.54252 0.17997 0.29521 0.0
H852 H 0.53798 0.20634 0.23482 0.0
H853 H 0.48487 0.12317 0.28981 0.0
H854 H 0.54706 0.17034 0.47357 0.0
H855 H 0.53052 0.18112 0.4399 0.0
H856 H 0.55325 0.18145 0.40318 0.0
C857 C 0.4874 0.18258 0.29609 0.0
C858 C 0.5045 0.19645 0.26063 0.0
C859 C 0.48989 0.16745 0.33001 0.0
C860 C 0.50954 0.16597 0.32906 0.0
C861 C 0.52736 0.18108 0.29717 0.0
H862 H 0.5346 0.06483 0.48474 0.0
H863 H 0.53891 0.0959 0.42726 0.0
C864 C 0.52485 0.19625 0.2631 0.0
C865 C 0.50979 0.14643 0.35387 0.0
H866 H 0.53229 0.13092 0.46395 0.0
C867 C 0.49528 0.12485 0.32782 0.0
C868 C 0.52369 0.14875 0.40266 0.0
C869 C 0.53951 0.17161 0.43192 0.0
C870 C 0.49394 0.10544 0.34995 0.0
C871 C 0.50708 0.10759 0.4004 0.0
C872 C 0.52218 0.12927 0.42537 0.0
C873 C 0.50418 0.08753 0.4302 0.0
C874 C 0.47849 0.08281 0.31887 0.0
C875 C 0.48317 0.07227 0.45016 0.0
C876 C 0.4806 0.05442 0.48255 0.0
C877 C 0.49907 0.05154 0.49636 0.0
C878 C 0.51997 0.06639 0.47459 0.0
C879 C 0.52252 0.08429 0.44208 0.0
H880 H 0.47573 0.0846 0.27244 0.0
H881 H 0.48529 0.07115 0.32236 0.0
H882 H 0.46192 0.07508 0.3383 0.0
H883 H 0.46886 0.07464 0.44256 0.0
H884 H 0.46428 0.04344 0.49872 0.0
H885 H 0.34693 0.53196 0.23823 0.0
H886 H 0.36887 0.53129 0.32187 0.0
H887 H 0.30859 0.47887 0.39018 0.0
H888 H 0.28654 0.47898 0.30511 0.0
H889 H 0.36924 0.53542 0.44218 0.0
H890 H 0.34569 0.44805 0.36173 0.0
H891 H 0.33948 0.46602 0.31937 0.0
H892 H 0.32333 0.45316 0.38027 0.0
C893 C 0.33828 0.52054 0.27151 0.0
C894 C 0.31511 0.50519 0.26459 0.0
C895 C 0.35081 0.52027 0.31952 0.0
C896 C 0.34044 0.5047 0.36167 0.0
C897 C 0.31698 0.49074 0.3576 0.0
H898 H 0.4446 0.50375 0.59878 0.0
H899 H 0.40827 0.50136 0.57511 0.0
C900 C 0.30438 0.49095 0.30927 0.0
C901 C 0.35483 0.50146 0.40476 0.0
H902 H 0.37574 0.4663 0.42988 0.0
C903 C 0.37028 0.52008 0.44091 0.0
C904 C 0.3562 0.48143 0.40275 0.0
C905 C 0.34043 0.46102 0.36383 0.0
C906 C 0.38806 0.51979 0.47168 0.0
C907 C 0.3903 0.50035 0.46624 0.0
C908 C 0.37383 0.48112 0.43397 0.0
C909 C 0.41169 0.50119 0.4828 0.0
C910 C 0.40542 0.54083 0.50585 0.0
C911 C 0.42538 0.50163 0.43881 0.0
C912 C 0.44591 0.50296 0.45198 0.0
C913 C 0.45328 0.50381 0.50963 0.0
C914 C 0.4394 0.50308 0.55395 0.0
C915 C 0.41871 0.50181 0.54058 0.0
H916 H 0.40138 0.55468 0.50519 0.0
H917 H 0.40659 0.53695 0.55135 0.0
H918 H 0.42215 0.54682 0.48811 0.0
H919 H 0.42025 0.50117 0.39397 0.0
H920 H 0.45603 0.50338 0.41664 0.0
H921 H 0.81692 0.29875 0.27673 0.0
H922 H 0.83981 0.33094 0.34548 0.0
H923 H 0.86621 0.37409 0.20352 0.0
H924 H 0.84186 0.3429 0.13619 0.0
H925 H 0.8809 0.34973 0.35819 0.0
H926 H 0.86573 0.41885 0.30919 0.0
H927 H 0.84694 0.39038 0.2805 0.0
H928 H 0.87125 0.4092 0.24233 0.0
C929 C 0.82686 0.31536 0.26061 0.0
C930 C 0.82799 0.31818 0.20101 0.0
C931 C 0.84012 0.33374 0.29985 0.0
C932 C 0.85487 0.35514 0.28003 0.0
C933 C 0.8547 0.35813 0.22065 0.0
H934 H 0.98823 0.43612 0.4355 0.0
H935 H 0.9546 0.41058 0.37458 0.0
C936 C 0.84104 0.34003 0.18183 0.0
C937 C 0.87291 0.37323 0.31922 0.0
H938 H 0.90489 0.43054 0.3405 0.0
C939 C 0.88575 0.36735 0.35524 0.0
C940 C 0.87922 0.39632 0.3169 0.0
C941 C 0.86481 0.40392 0.28559 0.0
C942 C 0.90524 0.38382 0.38626 0.0
C943 C 0.91303 0.40696 0.37823 0.0
C944 C 0.89951 0.41286 0.34502 0.0
C945 C 0.93478 0.42514 0.40534 0.0
C946 C 0.91696 0.37604 0.42783 0.0
C947 C 0.93569 0.44342 0.43762 0.0
C948 C 0.95529 0.45876 0.46982 0.0
C949 C 0.97412 0.45575 0.47133 0.0
C950 C 0.97385 0.43865 0.43536 0.0
C951 C 0.9545 0.42381 0.40149 0.0
H952 H 0.90498 0.3594 0.44401 0.0
H953 H 0.92988 0.37395 0.40521 0.0
H954 H 0.92518 0.3883 0.46554 0.0
H955 H 0.92088 0.4451 0.44074 0.0
H956 H 0.95499 0.47175 0.49744 0.0
H957 H 0.56899 0.82855 0.1882 0.0
H958 H 0.57636 0.85929 0.25948 0.0
H959 H 0.51197 0.85229 0.21099 0.0
H960 H 0.50453 0.82156 0.14078 0.0
H961 H 0.57938 0.89821 0.22162 0.0
H962 H 0.51528 0.86365 0.38408 0.0
H963 H 0.52183 0.84592 0.33842 0.0
H964 H 0.50288 0.85503 0.31202 0.0
C965 C 0.55605 0.83295 0.1949 0.0
C966 C 0.53619 0.82279 0.15948 0.0
C967 C 0.56033 0.85058 0.23511 0.0
C968 C 0.54467 0.85798 0.24063 0.0
C969 C 0.52409 0.84658 0.20831 0.0
H970 H 0.5349 0.97266 0.35285 0.0
H971 H 0.53371 0.94071 0.29827 0.0
C972 C 0.51986 0.82907 0.16816 0.0
C973 C 0.55091 0.87953 0.27291 0.0
H974 H 0.53161 0.90352 0.37042 0.0
C975 C 0.56922 0.89937 0.25501 0.0
C976 C 0.53754 0.88097 0.3161 0.0
C977 C 0.51843 0.86021 0.33917 0.0
C978 C 0.57388 0.92071 0.27743 0.0
C979 C 0.55987 0.92209 0.31859 0.0
C980 C 0.54207 0.90229 0.338 0.0
C981 C 0.56334 0.9439 0.34279 0.0
C982 C 0.59315 0.94166 0.25563 0.0
C983 C 0.58094 0.95668 0.384 0.0
C984 C 0.58167 0.9749 0.41529 0.0
C985 C 0.56475 0.98053 0.40582 0.0
C986 C 0.54822 0.96883 0.36101 0.0
C987 C 0.54742 0.95049 0.33006 0.0
H988 H 0.60071 0.93774 0.21844 0.0
H989 H 0.58739 0.95348 0.24245 0.0
H990 H 0.60637 0.95043 0.29089 0.0
H991 H 0.5933 0.95172 0.39445 0.0
H992 H 0.59468 0.98367 0.44935 0.0
H993 H 0.68388 0.48933 0.13622 0.0
H994 H 0.66269 0.49042 0.21783 0.0
H995 H 0.7238 0.54282 0.30531 0.0
H996 H 0.74511 0.54217 0.22292 0.0
H997 H 0.66576 0.48464 0.33692 0.0
H998 H 0.68366 0.57165 0.29701 0.0
H999 H 0.68901 0.55481 0.24502 0.0
H1000 H 0.70772 0.5681 0.30771 0.0
C1001 C 0.69286 0.50104 0.17291 0.0
C1002 C 0.71619 0.51586 0.17263 0.0
C1003 C 0.68072 0.50157 0.21972 0.0
C1004 C 0.69154 0.51699 0.26735 0.0
C1005 C 0.71499 0.53105 0.26862 0.0
H1006 H 0.62309 0.55122 0.53593 0.0
H1007 H 0.65286 0.54827 0.48712 0.0
C1008 C 0.7272 0.53049 0.22174 0.0
C1009 C 0.67794 0.51885 0.31398 0.0
H1010 H 0.66025 0.55374 0.37208 0.0
C1011 C 0.66473 0.49983 0.34501 0.0
C1012 C 0.67661 0.53869 0.32483 0.0
C1013 C 0.68984 0.55946 0.29173 0.0
C1014 C 0.64995 0.49995 0.3856 0.0
C1015 C 0.64793 0.51947 0.39471 0.0
C1016 C 0.66179 0.53878 0.36532 0.0
C1017 C 0.63013 0.51959 0.42989 0.0
C1018 C 0.63655 0.47908 0.41812 0.0
C1019 C 0.60742 0.50428 0.41477 0.0
C1020 C 0.59044 0.50591 0.44251 0.0
C1021 C 0.59567 0.52304 0.48591 0.0
C1022 C 0.61842 0.5378 0.50285 0.0
C1023 C 0.63548 0.53618 0.4748 0.0
H1024 H 0.64533 0.46919 0.42191 0.0
H1025 H 0.63335 0.4834 0.46209 0.0
H1026 H 0.62015 0.4681 0.39424 0.0
H1027 H 0.60276 0.49162 0.3796 0.0
H1028 H 0.57316 0.49419 0.42821 0.0
H1029 H 0.20858 0.68781 0.19078 0.0
H1030 H 0.18078 0.66666 0.26025 0.0
H1031 H 0.17961 0.72704 0.31573 0.0
H1032 H 0.20719 0.74818 0.24473 0.0
H1033 H 0.17478 0.66825 0.37597 0.0
H1034 H 0.11573 0.68591 0.24917 0.0
H1035 H 0.14302 0.69289 0.22509 0.0
H1036 H 0.14044 0.71031 0.2809 0.0
C1037 C 0.203 0.69673 0.21937 0.0
C1038 C 0.20993 0.71956 0.21257 0.0
C1039 C 0.18702 0.68462 0.2588 0.0
C1040 C 0.17766 0.69512 0.29204 0.0
C1041 C 0.18625 0.7185 0.28949 0.0
H1042 H 0.06197 0.62279 0.50456 0.0
H1043 H 0.09447 0.65306 0.46106 0.0
C1044 C 0.20225 0.73065 0.24971 0.0
C1045 C 0.15743 0.68089 0.32406 0.0
H1046 H 0.10088 0.66129 0.32395 0.0
C1047 C 0.15869 0.66696 0.36512 0.0
C1048 C 0.13633 0.67898 0.30927 0.0
C1049 C 0.13363 0.69265 0.2634 0.0
C1050 C 0.13942 0.65091 0.39092 0.0
C1051 C 0.11838 0.64875 0.37521 0.0
C1052 C 0.11712 0.6631 0.33572 0.0
C1053 C 0.09742 0.63085 0.39758 0.0
C1054 C 0.14147 0.63597 0.43392 0.0
C1055 C 0.08794 0.60851 0.37478 0.0
C1056 C 0.06925 0.59117 0.39906 0.0
C1057 C 0.05983 0.59588 0.44696 0.0
C1058 C 0.06881 0.61852 0.46785 0.0
C1059 C 0.0874 0.63586 0.4432 0.0
H1060 H 0.15926 0.64169 0.44716 0.0
H1061 H 0.13235 0.63558 0.47293 0.0
H1062 H 0.13365 0.61844 0.41444 0.0
H1063 H 0.09543 0.60441 0.33926 0.0
H1064 H 0.0629 0.57398 0.38198 0.0
loop_
_geom_bond_atom_site_label_1
_geom_bond_atom_site_label_2
_geom_bond_distance
_geom_bond_site_symmetry_2
_ccdc_geom_bond_type
H0 C6 0.930 . S
H1 C9 0.931 . S
H2 C11 0.931 . S
H3 C13 0.930 . S
H4 C15 0.930 . S
H5 C17 0.931 . S
C6 H0 0.930 . S
C6 C7 1.380 . S
C6 C8 1.394 . S
C7 C6 1.380 . S
C7 C11 1.382 . S
C8 C6 1.394 . S
C8 C9 1.400 . S
C9 H1 0.931 . S
C9 C8 1.400 . S
C9 C10 1.375 . S
C10 C9 1.375 . S
C10 C11 1.415 . S
C10 C12 1.501 . S
C11 H2 0.931 . S
C11 C7 1.382 . S
C11 C10 1.415 . S
C12 C10 1.501 . S
C12 C13 1.384 . S
C12 C17 1.408 . S
C13 H3 0.930 . S
C13 C12 1.384 . S
C13 C14 1.389 . S
C14 C13 1.389 . S
C14 C15 1.405 . S
C15 H4 0.930 . S
C15 C14 1.405 . S
C15 C16 1.364 . S
C16 C15 1.364 . S
C16 C17 1.400 . S
C17 H5 0.931 . S
C17 C12 1.408 . S
C17 C16 1.400 . S
H18 C24 0.930 . S
H19 C27 0.931 . S
H20 C29 0.931 . S
H21 C31 0.930 . S
H22 C33 0.930 . S
H23 C35 0.931 . S
C24 H18 0.930 . S
C24 C25 1.380 . S
C24 C26 1.394 . S
C25 C24 1.380 . S
C25 C29 1.382 . S
C26 C24 1.394 . S
C26 C27 1.400 . S
C27 H19 0.931 . S
C27 C26 1.400 . S
C27 C28 1.375 . S
C28 C27 1.375 . S
C28 C29 1.415 . S
C28 C30 1.501 . S
C29 H20 0.931 . S
C29 C25 1.382 . S
C29 C28 1.415 . S
C30 C28 1.501 . S
C30 C31 1.384 . S
C30 C35 1.408 . S
C31 H21 0.930 . S
C31 C30 1.384 . S
C31 C32 1.389 . S
C32 C31 1.389 . S
C32 C33 1.405 . S
C33 H22 0.930 . S
C33 C32 1.405 . S
C33 C34 1.364 . S
C34 C33 1.364 . S
C34 C35 1.400 . S
C35 H23 0.931 . S
C35 C30 1.408 . S
C35 C34 1.400 . S
H36 C42 0.930 . S
H37 C45 0.931 . S
H38 C47 0.931 . S
H39 C49 0.930 . S
H40 C51 0.930 . S
H41 C53 0.931 . S
C42 H36 0.930 . S
C42 C43 1.380 1_554 S
C42 C44 1.394 . S
C43 C42 1.380 1_556 S
C43 C47 1.382 . S
C44 C42 1.394 . S
C44 C45 1.400 . S
C45 H37 0.931 . S
C45 C44 1.400 . S
C45 C46 1.375 . S
C46 C45 1.375 . S
C46 C47 1.415 1_554 S
C46 C48 1.501 . S
C47 H38 0.931 . S
C47 C43 1.382 . S
C47 C46 1.415 1_556 S
C48 C46 1.501 . S
C48 C49 1.384 1_554 S
C48 C53 1.408 . S
C49 H39 0.930 . S
C49 C48 1.384 1_556 S
C49 C50 1.389 . S
C50 C49 1.389 . S
C50 C51 1.405 1_556 S
C51 H40 0.930 . S
C51 C50 1.405 1_554 S
C51 C52 1.364 . S
C52 C51 1.364 . S
C52 C53 1.400 . S
C53 H41 0.931 . S
C53 C48 1.408 . S
C53 C52 1.400 . S
H54 C60 0.930 . S
H55 C63 0.931 . S
H56 C65 0.931 1_556 S
H57 C67 0.930 1_556 S
H58 C69 0.930 . S
H59 C71 0.931 . S
C60 H54 0.930 . S
C60 C61 1.380 . S
C60 C62 1.394 . S
C61 C60 1.380 . S
C61 C65 1.382 . S
C62 C60 1.394 . S
C62 C63 1.400 . S
C63 H55 0.931 . S
C63 C62 1.400 . S
C63 C64 1.375 . S
C64 C63 1.375 . S
C64 C65 1.415 . S
C64 C66 1.501 . S
C65 H56 0.931 1_554 S
C65 C61 1.382 . S
C65 C64 1.415 . S
C66 C64 1.501 . S
C66 C67 1.384 . S
C66 C71 1.408 . S
C67 H57 0.930 1_554 S
C67 C66 1.384 . S
C67 C68 1.389 . S
C68 C67 1.389 . S
C68 C69 1.405 . S
C69 H58 0.930 . S
C69 C68 1.405 . S
C69 C70 1.364 . S
C70 C69 1.364 . S
C70 C71 1.400 . S
C71 H59 0.931 . S
C71 C66 1.408 . S
C71 C70 1.400 . S
H72 C78 0.930 . S
H73 C81 0.931 . S
H74 C83 0.931 . S
H75 C85 0.937 . S
H76 C87 0.930 . S
H77 C89 0.931 . S
C78 H72 0.930 . S
C78 C79 1.380 . S
C78 C80 1.394 . S
C79 C78 1.380 . S
C79 C83 1.382 . S
C80 C78 1.394 . S
C80 C81 1.400 . S
C81 H73 0.931 . S
C81 C80 1.400 . S
C81 C82 1.375 . S
C82 C81 1.375 . S
C82 C83 1.415 . S
C82 C84 1.501 . S
C83 H74 0.931 . S
C83 C79 1.382 . S
C83 C82 1.415 . S
C84 C82 1.501 . S
C84 C85 1.384 . S
C84 C89 1.408 . S
C85 H75 0.937 . S
C85 C84 1.384 . S
C85 C86 1.389 . S
C86 C85 1.389 . S
C86 C87 1.405 . S
C87 H76 0.930 . S
C87 C86 1.405 . S
C87 C88 1.364 . S
C88 C87 1.364 . S
C88 C89 1.400 . S
C89 H77 0.931 . S
C89 C84 1.408 . S
C89 C88 1.400 . S
H90 C96 0.930 . S
H91 C99 0.931 . S
H92 C101 0.931 . S
H93 C103 0.930 . S
H94 C105 0.930 . S
H95 C107 0.931 . S
C96 H90 0.930 . S
C96 C97 1.380 . S
C96 C98 1.394 . S
C97 C96 1.380 . S
C97 C101 1.382 . S
C98 C96 1.394 . S
C98 C99 1.400 . S
C99 H91 0.931 . S
C99 C98 1.400 . S
C99 C100 1.375 . S
C100 C99 1.375 . S
C100 C101 1.415 . S
C100 C102 1.501 . S
C101 H92 0.931 . S
C101 C97 1.382 . S
C101 C100 1.415 . S
C102 C100 1.501 . S
C102 C103 1.384 . S
C102 C107 1.408 . S
C103 H93 0.930 . S
C103 C102 1.384 . S
C103 C104 1.389 . S
C104 C103 1.389 . S
C104 C105 1.405 . S
C105 H94 0.930 . S
C105 C104 1.405 . S
C105 C106 1.364 . S
C106 C105 1.364 . S
C106 C107 1.400 . S
C107 H95 0.931 . S
C107 C102 1.408 . S
C107 C106 1.400 . S
C108 O120 1.241 . S
C108 O121 1.280 . S
C109 O122 1.277 . S
C109 O123 1.245 . S
C110 O134 1.247 . S
C110 O136 1.289 . S
Mg111 O112 1.938 1_655 S
Mg111 O121 1.984 . S
Mg111 O123 1.988 1_655 S
Mg111 O124 2.061 . S
O112 Mg111 1.938 1_455 S
O112 Mg113 1.985 . S
O112 Mg114 1.915 . S
Mg113 O112 1.985 . S
Mg113 O120 2.042 1_455 S
Mg113 O122 2.041 . S
Mg113 O128 2.038 1_455 S
Mg113 O136 2.238 . S
Mg114 O112 1.915 . S
Mg114 O115 1.917 . S
Mg114 O125 2.106 1_455 S
Mg114 O127 2.079 1_455 S
Mg114 O136 2.106 . S
Mg114 O137 2.079 . S
O115 Mg114 1.917 . S
O115 Mg116 1.926 . S
O115 Mg117 1.986 . S
Mg116 O115 1.926 . S
Mg116 O130 1.984 . S
Mg116 O133 1.988 1_455 S
Mg116 O134 2.061 . S
Mg117 O115 1.986 . S
Mg117 O125 2.238 1_455 S
Mg117 O129 2.042 . S
Mg117 O131 2.041 1_455 S
Mg117 O138 2.038 . S
C118 O124 1.247 . S
C118 O125 1.289 . S
C119 O137 1.245 . S
C119 O138 1.274 . S
O120 C108 1.241 . S
O120 Mg113 2.042 1_655 S
O121 C108 1.280 . S
O121 Mg111 1.984 . S
O122 C109 1.277 . S
O122 Mg113 2.041 . S
O123 C109 1.245 . S
O123 Mg111 1.988 1_455 S
O124 Mg111 2.061 . S
O124 C118 1.247 . S
O125 Mg114 2.106 1_655 S
O125 Mg117 2.238 1_655 S
O125 C118 1.289 . S
C126 O127 1.245 . S
C126 O128 1.274 . S
O127 Mg114 2.079 1_655 S
O127 C126 1.245 . S
O128 Mg113 2.038 1_655 S
O128 C126 1.274 . S
O129 Mg117 2.042 . S
O129 C132 1.241 . S
O130 Mg116 1.984 . S
O130 C132 1.280 . S
O131 Mg117 2.041 1_655 S
O131 C135 1.277 . S
C132 O129 1.241 . S
C132 O130 1.280 . S
O133 Mg116 1.988 1_655 S
O133 C135 1.245 . S
O134 C110 1.247 . S
O134 Mg116 2.061 . S
C135 O131 1.277 . S
C135 O133 1.245 . S
O136 C110 1.289 . S
O136 Mg113 2.238 . S
O136 Mg114 2.106 . S
O137 Mg114 2.079 . S
O137 C119 1.245 . S
O138 Mg117 2.038 . S
O138 C119 1.274 . S
C139 O151 1.241 . S
C139 O152 1.280 . S
C140 O153 1.277 . S
C140 O154 1.245 . S
C141 O165 1.247 . S
C141 O167 1.289 . S
Mg142 O143 1.926 . S
Mg142 O152 1.984 . S
Mg142 O154 1.988 1_545 S
Mg142 O155 2.061 . S
O143 Mg142 1.926 . S
O143 Mg144 1.986 . S
O143 Mg145 1.917 . S
Mg144 O143 1.986 . S
Mg144 O151 2.042 . S
Mg144 O153 2.041 1_545 S
Mg144 O159 2.038 . S
Mg144 O167 2.238 1_545 S
Mg145 O143 1.917 . S
Mg145 O146 1.917 1_545 S
Mg145 O156 2.106 . S
Mg145 O158 2.079 . S
Mg145 O167 2.106 1_545 S
Mg145 O168 2.079 1_545 S
O146 Mg145 1.917 1_565 S
O146 Mg147 1.926 . S
O146 Mg148 1.986 1_565 S
Mg147 O146 1.926 . S
Mg147 O161 1.984 . S
Mg147 O164 1.988 1_565 S
Mg147 O165 2.061 . S
Mg148 O146 1.986 1_545 S
Mg148 O156 2.238 . S
Mg148 O160 2.042 1_545 S
Mg148 O162 2.041 . S
Mg148 O169 2.038 1_545 S
C149 O155 1.247 . S
C149 O156 1.289 . S
C150 O168 1.245 . S
C150 O169 1.274 . S
O151 C139 1.241 . S
O151 Mg144 2.042 . S
O152 C139 1.280 . S
O152 Mg142 1.984 . S
O153 C140 1.277 . S
O153 Mg144 2.041 1_565 S
O154 C140 1.245 . S
O154 Mg142 1.988 1_565 S
O155 Mg142 2.061 . S
O155 C149 1.247 . S
O156 Mg145 2.106 . S
O156 Mg148 2.238 . S
O156 C149 1.289 . S
C157 O158 1.245 . S
C157 O159 1.274 . S
O158 Mg145 2.079 . S
O158 C157 1.245 . S
O159 Mg144 2.038 . S
O159 C157 1.274 . S
O160 Mg148 2.042 1_565 S
O160 C163 1.241 . S
O161 Mg147 1.984 . S
O161 C163 1.280 . S
O162 Mg148 2.041 . S
O162 C166 1.277 . S
C163 O160 1.241 . S
C163 O161 1.280 . S
O164 Mg147 1.988 1_545 S
O164 C166 1.245 . S
O165 C141 1.247 . S
O165 Mg147 2.061 . S
C166 O162 1.277 . S
C166 O164 1.245 . S
O167 C141 1.289 . S
O167 Mg144 2.238 1_565 S
O167 Mg145 2.106 1_565 S
O168 Mg145 2.079 1_565 S
O168 C150 1.245 . S
O169 Mg148 2.038 1_565 S
O169 C150 1.274 . S
C170 O182 1.241 . S
C170 O183 1.280 . S
C171 O184 1.277 . S
C171 O185 1.245 . S
C172 O196 1.247 . S
C172 O198 1.289 . S
Mg173 O174 1.926 . S
Mg173 O183 1.984 . S
Mg173 O185 1.988 . S
Mg173 O186 2.061 . S
O174 Mg173 1.926 . S
O174 Mg175 1.986 . S
O174 Mg176 1.917 . S
Mg175 O174 1.986 . S
Mg175 O182 2.042 . S
Mg175 O184 2.041 . S
Mg175 O190 2.038 . S
Mg175 O198 2.238 . S
Mg176 O174 1.917 . S
Mg176 O177 1.917 . S
Mg176 O187 2.106 . S
Mg176 O189 2.079 . S
Mg176 O198 2.106 . S
Mg176 O199 2.079 . S
O177 Mg176 1.917 . S
O177 Mg178 1.926 . S
O177 Mg179 1.986 . S
Mg178 O177 1.926 . S
Mg178 O192 1.984 . S
Mg178 O195 1.988 . S
Mg178 O196 2.061 . S
Mg179 O177 1.986 . S
Mg179 O187 2.238 . S
Mg179 O191 2.042 . S
Mg179 O193 2.041 . S
Mg179 O200 2.038 . S
C180 O186 1.247 . S
C180 O187 1.289 . S
C181 O199 1.245 . S
C181 O200 1.274 . S
O182 C170 1.241 . S
O182 Mg175 2.042 . S
O183 C170 1.280 . S
O183 Mg173 1.984 . S
O184 C171 1.277 . S
O184 Mg175 2.041 . S
O185 C171 1.245 . S
O185 Mg173 1.988 . S
O186 Mg173 2.061 . S
O186 C180 1.247 . S
O187 Mg176 2.106 . S
O187 Mg179 2.238 . S
O187 C180 1.289 . S
C188 O189 1.245 . S
C188 O190 1.274 . S
O189 Mg176 2.079 . S
O189 C188 1.245 . S
O190 Mg175 2.038 . S
O190 C188 1.274 . S
O191 Mg179 2.042 . S
O191 C194 1.241 . S
O192 Mg178 1.984 . S
O192 C194 1.280 . S
O193 Mg179 2.041 . S
O193 C197 1.277 . S
C194 O191 1.241 . S
C194 O192 1.280 . S
O195 Mg178 1.988 . S
O195 C197 1.245 . S
O196 C172 1.247 . S
O196 Mg178 2.061 . S
C197 O193 1.277 . S
C197 O195 1.245 . S
O198 C172 1.289 . S
O198 Mg175 2.238 . S
O198 Mg176 2.106 . S
O199 Mg176 2.079 . S
O199 C181 1.245 . S
O200 Mg179 2.038 . S
O200 C181 1.274 . S
H201 C209 0.929 . S
H202 C211 0.930 . S
H203 C213 0.930 . S
H204 C216 0.929 . S
H205 C219 0.930 . S
H206 C221 0.960 . S
H207 C221 0.960 . S
H208 C221 0.960 . S
C209 H201 0.929 . S
C209 C210 1.377 . S
C209 C211 1.384 . S
C210 C209 1.377 . S
C210 C216 1.390 . S
C211 H202 0.930 . S
C211 C209 1.384 . S
C211 C212 1.372 . S
C212 C211 1.372 . S
C212 C213 1.400 . S
C212 C217 1.490 . S
C213 H203 0.930 . S
C213 C212 1.400 . S
C213 C216 1.386 . S
H214 C230 0.930 . S
H215 C231 0.931 . S
C216 H204 0.929 . S
C216 C210 1.390 . S
C216 C213 1.386 . S
C217 C212 1.490 . S
C217 C219 1.395 . S
C217 C220 1.403 . S
H218 C224 0.930 . S
C219 H205 0.930 . S
C219 C217 1.395 . S
C219 C222 1.403 . S
C220 C217 1.403 . S
C220 C221 1.524 . S
C220 C224 1.400 . S
C221 H206 0.960 . S
C221 H207 0.960 . S
C221 H208 0.960 . S
C221 C220 1.524 . S
C222 C219 1.403 . S
C222 C223 1.392 . S
C222 C226 1.495 . S
C223 C222 1.392 . S
C223 C224 1.385 . S
C223 C225 1.478 . S
C224 H218 0.930 . S
C224 C220 1.400 . S
C224 C223 1.385 . S
C225 C223 1.478 . S
C225 C227 1.381 . S
C225 C231 1.383 . S
C226 C222 1.495 . S
C226 H232 0.959 . S
C226 H233 0.961 . S
C226 H234 0.960 . S
C227 C225 1.381 . S
C227 C228 1.394 . S
C227 H235 0.930 . S
C228 C227 1.394 . S
C228 C229 1.383 . S
C228 H236 0.929 . S
C229 C228 1.383 . S
C229 C230 1.377 . S
C230 H214 0.930 . S
C230 C229 1.377 . S
C230 C231 1.379 . S
C231 H215 0.931 . S
C231 C225 1.383 . S
C231 C230 1.379 . S
H232 C226 0.959 . S
H233 C226 0.961 . S
H234 C226 0.960 . S
H235 C227 0.930 . S
H236 C228 0.929 . S
H237 C245 0.929 . S
H238 C247 0.930 . S
H239 C249 0.930 . S
H240 C252 0.929 . S
H241 C255 0.930 . S
H242 C257 0.960 . S
H243 C257 0.960 . S
H244 C257 0.960 . S
C245 H237 0.929 . S
C245 C246 1.377 . S
C245 C247 1.384 . S
C246 C245 1.377 . S
C246 C252 1.390 . S
C247 H238 0.930 . S
C247 C245 1.384 . S
C247 C248 1.372 . S
C248 C247 1.372 . S
C248 C249 1.400 . S
C248 C253 1.490 . S
C249 H239 0.930 . S
C249 C248 1.400 . S
C249 C252 1.386 . S
H250 C266 0.930 . S
H251 C267 0.931 . S
C252 H240 0.929 . S
C252 C246 1.390 . S
C252 C249 1.386 . S
C253 C248 1.490 . S
C253 C255 1.395 . S
C253 C256 1.403 . S
H254 C260 0.930 . S
C255 H241 0.930 . S
C255 C253 1.395 . S
C255 C258 1.403 . S
C256 C253 1.403 . S
C256 C257 1.524 . S
C256 C260 1.400 . S
C257 H242 0.960 . S
C257 H243 0.960 . S
C257 H244 0.960 . S
C257 C256 1.524 . S
C258 C255 1.403 . S
C258 C259 1.392 . S
C258 C262 1.495 . S
C259 C258 1.392 . S
C259 C260 1.385 . S
C259 C261 1.478 . S
C260 H254 0.930 . S
C260 C256 1.400 . S
C260 C259 1.385 . S
C261 C259 1.478 . S
C261 C263 1.381 . S
C261 C267 1.383 . S
C262 C258 1.495 . S
C262 H268 0.959 . S
C262 H269 0.961 . S
C262 H270 0.960 . S
C263 C261 1.381 . S
C263 C264 1.394 . S
C263 H271 0.930 . S
C264 C263 1.394 . S
C264 C265 1.383 . S
C264 H272 0.929 . S
C265 C264 1.383 . S
C265 C266 1.377 . S
C266 H250 0.930 . S
C266 C265 1.377 . S
C266 C267 1.379 . S
C267 H251 0.931 . S
C267 C261 1.383 . S
C267 C266 1.379 . S
H268 C262 0.959 . S
H269 C262 0.961 . S
H270 C262 0.960 . S
H271 C263 0.930 . S
H272 C264 0.929 . S
H273 C281 0.929 . S
H274 C283 0.930 . S
H275 C285 0.930 . S
H276 C288 0.929 . S
H277 C291 0.930 . S
H278 C293 0.960 . S
H279 C293 0.960 . S
H280 C293 0.960 . S
C281 H273 0.929 . S
C281 C282 1.377 . S
C281 C283 1.384 . S
C282 C281 1.377 . S
C282 C288 1.390 . S
C283 H274 0.930 . S
C283 C281 1.384 . S
C283 C284 1.372 . S
C284 C283 1.372 . S
C284 C285 1.400 . S
C284 C289 1.490 . S
C285 H275 0.930 . S
C285 C284 1.400 . S
C285 C288 1.386 . S
H286 C302 0.930 . S
H287 C303 0.931 . S
C288 H276 0.929 . S
C288 C282 1.390 . S
C288 C285 1.386 . S
C289 C284 1.490 . S
C289 C291 1.395 . S
C289 C292 1.403 . S
H290 C296 0.930 . S
C291 H277 0.930 . S
C291 C289 1.395 . S
C291 C294 1.403 . S
C292 C289 1.403 . S
C292 C293 1.524 . S
C292 C296 1.400 . S
C293 H278 0.960 . S
C293 H279 0.960 . S
C293 H280 0.960 . S
C293 C292 1.524 . S
C294 C291 1.403 . S
C294 C295 1.392 . S
C294 C298 1.495 . S
C295 C294 1.392 . S
C295 C296 1.385 . S
C295 C297 1.478 . S
C296 H290 0.930 . S
C296 C292 1.400 . S
C296 C295 1.385 . S
C297 C295 1.478 . S
C297 C299 1.381 . S
C297 C303 1.383 . S
C298 C294 1.495 . S
C298 H304 0.959 . S
C298 H305 0.961 . S
C298 H306 0.960 . S
C299 C297 1.381 . S
C299 C300 1.394 . S
C299 H307 0.930 . S
C300 C299 1.394 . S
C300 C301 1.383 . S
C300 H308 0.929 . S
C301 C300 1.383 . S
C301 C302 1.377 . S
C302 H286 0.930 . S
C302 C301 1.377 . S
C302 C303 1.379 . S
C303 H287 0.931 . S
C303 C297 1.383 . S
C303 C302 1.379 . S
H304 C298 0.959 . S
H305 C298 0.961 . S
H306 C298 0.960 . S
H307 C299 0.930 . S
H308 C300 0.929 . S
H309 C317 0.929 . S
H310 C319 0.930 . S
H311 C321 0.930 . S
H312 C324 0.929 . S
H313 C327 0.930 . S
H314 C329 0.960 . S
H315 C329 0.960 . S
H316 C329 0.960 . S
C317 H309 0.929 . S
C317 C318 1.377 . S
C317 C319 1.384 . S
C318 C317 1.377 . S
C318 C324 1.390 . S
C319 H310 0.930 . S
C319 C317 1.384 . S
C319 C320 1.372 . S
C320 C319 1.372 . S
C320 C321 1.400 . S
C320 C325 1.490 . S
C321 H311 0.930 . S
C321 C320 1.400 . S
C321 C324 1.386 . S
H322 C338 0.930 . S
H323 C339 0.931 . S
C324 H312 0.929 . S
C324 C318 1.390 . S
C324 C321 1.386 . S
C325 C320 1.490 . S
C325 C327 1.395 . S
C325 C328 1.403 . S
H326 C332 0.930 . S
C327 H313 0.930 . S
C327 C325 1.395 . S
C327 C330 1.403 . S
C328 C325 1.403 . S
C328 C329 1.524 . S
C328 C332 1.400 . S
C329 H314 0.960 . S
C329 H315 0.960 . S
C329 H316 0.960 . S
C329 C328 1.524 . S
C330 C327 1.403 . S
C330 C331 1.392 . S
C330 C334 1.495 . S
C331 C330 1.392 . S
C331 C332 1.385 . S
C331 C333 1.478 . S
C332 H326 0.930 . S
C332 C328 1.400 . S
C332 C331 1.385 . S
C333 C331 1.478 . S
C333 C335 1.381 . S
C333 C339 1.383 . S
C334 C330 1.495 . S
C334 H340 0.959 . S
C334 H341 0.961 . S
C334 H342 0.960 . S
C335 C333 1.381 . S
C335 C336 1.394 . S
C335 H343 0.930 . S
C336 C335 1.394 . S
C336 C337 1.383 . S
C336 H344 0.929 . S
C337 C336 1.383 . S
C337 C338 1.377 . S
C338 H322 0.930 . S
C338 C337 1.377 . S
C338 C339 1.379 . S
C339 H323 0.931 . S
C339 C333 1.383 . S
C339 C338 1.379 . S
H340 C334 0.959 . S
H341 C334 0.961 . S
H342 C334 0.960 . S
H343 C335 0.930 . S
H344 C336 0.929 . S
H345 C353 0.929 . S
H346 C355 0.930 . S
H347 C357 0.930 . S
H348 C360 0.929 . S
H349 C363 0.930 . S
H350 C365 0.960 . S
H351 C365 0.960 . S
H352 C365 0.960 . S
C353 H345 0.929 . S
C353 C354 1.377 . S
C353 C355 1.384 . S
C354 C353 1.377 . S
C354 C360 1.390 . S
C355 H346 0.930 . S
C355 C353 1.384 . S
C355 C356 1.372 . S
C356 C355 1.372 . S
C356 C357 1.400 . S
C356 C361 1.490 . S
C357 H347 0.930 . S
C357 C356 1.400 . S
C357 C360 1.386 . S
H358 C374 0.930 . S
H359 C375 0.931 . S
C360 H348 0.929 . S
C360 C354 1.390 . S
C360 C357 1.386 . S
C361 C356 1.490 . S
C361 C363 1.395 . S
C361 C364 1.403 . S
H362 C368 0.930 . S
C363 H349 0.930 . S
C363 C361 1.395 . S
C363 C366 1.403 . S
C364 C361 1.403 . S
C364 C365 1.524 . S
C364 C368 1.400 . S
C365 H350 0.960 . S
C365 H351 0.960 . S
C365 H352 0.960 . S
C365 C364 1.524 . S
C366 C363 1.403 . S
C366 C367 1.392 . S
C366 C370 1.495 . S
C367 C366 1.392 . S
C367 C368 1.385 . S
C367 C369 1.478 . S
C368 H362 0.930 . S
C368 C364 1.400 . S
C368 C367 1.385 . S
C369 C367 1.478 . S
C369 C371 1.381 . S
C369 C375 1.383 . S
C370 C366 1.495 . S
C370 H376 0.959 . S
C370 H377 0.961 . S
C370 H378 0.960 . S
C371 C369 1.381 . S
C371 C372 1.394 . S
C371 H379 0.930 . S
C372 C371 1.394 . S
C372 C373 1.383 . S
C372 H380 0.929 . S
C373 C372 1.383 . S
C373 C374 1.377 . S
C374 H358 0.930 . S
C374 C373 1.377 . S
C374 C375 1.379 . S
C375 H359 0.931 . S
C375 C369 1.383 . S
C375 C374 1.379 . S
H376 C370 0.959 . S
H377 C370 0.961 . S
H378 C370 0.960 . S
H379 C371 0.930 . S
H380 C372 0.929 . S
H381 C389 0.929 . S
H382 C391 0.930 . S
H383 C393 0.930 . S
H384 C396 0.929 . S
H385 C399 0.930 . S
H386 C401 0.960 . S
H387 C401 0.960 . S
H388 C401 0.960 . S
C389 H381 0.929 . S
C389 C390 1.377 . S
C389 C391 1.384 . S
C390 C389 1.377 . S
C390 C396 1.390 . S
C391 H382 0.930 . S
C391 C389 1.384 . S
C391 C392 1.372 . S
C392 C391 1.372 . S
C392 C393 1.400 . S
C392 C397 1.490 . S
C393 H383 0.930 . S
C393 C392 1.400 . S
C393 C396 1.386 . S
H394 C410 0.930 . S
H395 C411 0.931 . S
C396 H384 0.929 . S
C396 C390 1.390 . S
C396 C393 1.386 . S
C397 C392 1.490 . S
C397 C399 1.395 . S
C397 C400 1.403 . S
H398 C404 0.930 . S
C399 H385 0.930 . S
C399 C397 1.395 . S
C399 C402 1.403 . S
C400 C397 1.403 . S
C400 C401 1.524 . S
C400 C404 1.400 . S
C401 H386 0.960 . S
C401 H387 0.960 . S
C401 H388 0.960 . S
C401 C400 1.524 . S
C402 C399 1.403 . S
C402 C403 1.392 . S
C402 C406 1.495 . S
C403 C402 1.392 . S
C403 C404 1.385 . S
C403 C405 1.478 . S
C404 H398 0.930 . S
C404 C400 1.400 . S
C404 C403 1.385 . S
C405 C403 1.478 . S
C405 C407 1.381 . S
C405 C411 1.383 . S
C406 C402 1.495 . S
C406 H412 0.959 . S
C406 H413 0.961 . S
C406 H414 0.960 . S
C407 C405 1.381 . S
C407 C408 1.394 . S
C407 H415 0.930 . S
C408 C407 1.394 . S
C408 C409 1.383 . S
C408 H416 0.929 . S
C409 C408 1.383 . S
C409 C410 1.377 . S
C410 H394 0.930 . S
C410 C409 1.377 . S
C410 C411 1.379 . S
C411 H395 0.931 . S
C411 C405 1.383 . S
C411 C410 1.379 . S
H412 C406 0.959 . S
H413 C406 0.961 . S
H414 C406 0.960 . S
H415 C407 0.930 . S
H416 C408 0.929 . S
H417 C425 0.929 . S
H418 C427 0.930 . S
H419 C429 0.930 . S
H420 C432 0.929 . S
H421 C435 0.930 . S
H422 C437 0.960 . S
H423 C437 0.960 . S
H424 C437 0.960 . S
C425 H417 0.929 . S
C425 C426 1.377 . S
C425 C427 1.384 . S
C426 C425 1.377 . S
C426 C432 1.390 . S
C427 H418 0.930 . S
C427 C425 1.384 . S
C427 C428 1.372 . S
C428 C427 1.372 . S
C428 C429 1.400 . S
C428 C433 1.490 . S
C429 H419 0.930 . S
C429 C428 1.400 . S
C429 C432 1.386 . S
H430 C446 0.930 . S
H431 C447 0.931 . S
C432 H420 0.929 . S
C432 C426 1.390 . S
C432 C429 1.386 . S
C433 C428 1.490 . S
C433 C435 1.395 . S
C433 C436 1.403 . S
H434 C440 0.930 . S
C435 H421 0.930 . S
C435 C433 1.395 . S
C435 C438 1.403 . S
C436 C433 1.403 . S
C436 C437 1.524 . S
C436 C440 1.400 . S
C437 H422 0.960 . S
C437 H423 0.960 . S
C437 H424 0.960 . S
C437 C436 1.524 . S
C438 C435 1.403 . S
C438 C439 1.392 . S
C438 C442 1.495 . S
C439 C438 1.392 . S
C439 C440 1.385 . S
C439 C441 1.478 . S
C440 H434 0.930 . S
C440 C436 1.400 . S
C440 C439 1.385 . S
C441 C439 1.478 . S
C441 C443 1.381 . S
C441 C447 1.383 . S
C442 C438 1.495 . S
C442 H448 0.959 . S
C442 H449 0.961 . S
C442 H450 0.960 . S
C443 C441 1.381 . S
C443 C444 1.394 . S
C443 H451 0.930 . S
C444 C443 1.394 . S
C444 C445 1.383 . S
C444 H452 0.929 . S
C445 C444 1.383 . S
C445 C446 1.377 . S
C446 H430 0.930 . S
C446 C445 1.377 . S
C446 C447 1.379 . S
C447 H431 0.931 . S
C447 C441 1.383 . S
C447 C446 1.379 . S
H448 C442 0.959 . S
H449 C442 0.961 . S
H450 C442 0.960 . S
H451 C443 0.930 . S
H452 C444 0.929 . S
H453 C461 0.929 . S
H454 C463 0.930 . S
H455 C465 0.930 . S
H456 C468 0.929 1_554 S
H457 C471 0.930 . S
H458 C473 0.960 . S
H459 C473 0.960 . S
H460 C473 0.960 . S
C461 H453 0.929 . S
C461 C462 1.377 . S
C461 C463 1.384 . S
C462 C461 1.377 . S
C462 C468 1.390 . S
C463 H454 0.930 . S
C463 C461 1.384 . S
C463 C464 1.372 . S
C464 C463 1.372 . S
C464 C465 1.400 . S
C464 C469 1.490 . S
C465 H455 0.930 . S
C465 C464 1.400 . S
C465 C468 1.386 . S
H466 C482 0.930 . S
H467 C483 0.931 . S
C468 H456 0.929 1_556 S
C468 C462 1.390 . S
C468 C465 1.386 . S
C469 C464 1.490 . S
C469 C471 1.395 . S
C469 C472 1.403 . S
H470 C476 0.930 . S
C471 H457 0.930 . S
C471 C469 1.395 . S
C471 C474 1.403 . S
C472 C469 1.403 . S
C472 C473 1.524 . S
C472 C476 1.400 . S
C473 H458 0.960 . S
C473 H459 0.960 . S
C473 H460 0.960 . S
C473 C472 1.524 . S
C474 C471 1.403 . S
C474 C475 1.392 . S
C474 C478 1.495 . S
C475 C474 1.392 . S
C475 C476 1.385 . S
C475 C477 1.478 . S
C476 H470 0.930 . S
C476 C472 1.400 . S
C476 C475 1.385 . S
C477 C475 1.478 . S
C477 C479 1.381 . S
C477 C483 1.383 . S
C478 C474 1.495 . S
C478 H484 0.959 . S
C478 H485 0.961 . S
C478 H486 0.960 . S
C479 C477 1.381 . S
C479 C480 1.394 . S
C479 H487 0.930 . S
C480 C479 1.394 . S
C480 C481 1.383 . S
C480 H488 0.929 . S
C481 C480 1.383 . S
C481 C482 1.377 . S
C482 H466 0.930 . S
C482 C481 1.377 . S
C482 C483 1.379 . S
C483 H467 0.931 . S
C483 C477 1.383 . S
C483 C482 1.379 . S
H484 C478 0.959 . S
H485 C478 0.961 . S
H486 C478 0.960 . S
H487 C479 0.930 . S
H488 C480 0.929 . S
H489 C497 0.929 . S
H490 C499 0.930 . S
H491 C501 0.930 . S
H492 C504 0.929 . S
H493 C507 0.930 . S
H494 C509 0.960 . S
H495 C509 0.960 . S
H496 C509 0.960 . S
C497 H489 0.929 . S
C497 C498 1.377 1_554 S
C497 C499 1.384 1_554 S
C498 C497 1.377 1_556 S
C498 C504 1.390 . S
C499 H490 0.930 . S
C499 C497 1.384 1_556 S
C499 C500 1.372 . S
C500 C499 1.372 . S
C500 C501 1.400 . S
C500 C505 1.490 . S
C501 H491 0.930 . S
C501 C500 1.400 . S
C501 C504 1.386 . S
H502 C518 0.930 . S
H503 C519 0.931 . S
C504 H492 0.929 . S
C504 C498 1.390 . S
C504 C501 1.386 . S
C505 C500 1.490 . S
C505 C507 1.395 . S
C505 C508 1.403 . S
H506 C512 0.930 . S
C507 H493 0.930 . S
C507 C505 1.395 . S
C507 C510 1.403 . S
C508 C505 1.403 . S
C508 C509 1.524 . S
C508 C512 1.400 . S
C509 H494 0.960 . S
C509 H495 0.960 . S
C509 H496 0.960 . S
C509 C508 1.524 . S
C510 C507 1.403 . S
C510 C511 1.392 . S
C510 C514 1.495 . S
C511 C510 1.392 . S
C511 C512 1.385 . S
C511 C513 1.478 . S
C512 H506 0.930 . S
C512 C508 1.400 . S
C512 C511 1.385 . S
C513 C511 1.478 . S
C513 C515 1.381 . S
C513 C519 1.383 . S
C514 C510 1.495 . S
C514 H520 0.959 . S
C514 H521 0.961 . S
C514 H522 0.960 . S
C515 C513 1.381 . S
C515 C516 1.394 . S
C515 H523 0.930 . S
C516 C515 1.394 . S
C516 C517 1.383 . S
C516 H524 0.929 . S
C517 C516 1.383 . S
C517 C518 1.377 . S
C518 H502 0.930 . S
C518 C517 1.377 . S
C518 C519 1.379 . S
C519 H503 0.931 . S
C519 C513 1.383 . S
C519 C518 1.379 . S
H520 C514 0.959 . S
H521 C514 0.961 . S
H522 C514 0.960 . S
H523 C515 0.930 . S
H524 C516 0.929 . S
H525 C533 0.929 . S
H526 C535 0.930 . S
H527 C537 0.930 . S
H528 C540 0.929 . S
H529 C543 0.930 . S
H530 C545 0.960 . S
H531 C545 0.960 . S
H532 C545 0.960 . S
C533 H525 0.929 . S
C533 C534 1.377 . S
C533 C535 1.384 . S
C534 C533 1.377 . S
C534 C540 1.390 . S
C535 H526 0.930 . S
C535 C533 1.384 . S
C535 C536 1.372 . S
C536 C535 1.372 . S
C536 C537 1.400 . S
C536 C541 1.490 1_554 S
C537 H527 0.930 . S
C537 C536 1.400 . S
C537 C540 1.386 . S
H538 C554 0.930 . S
H539 C555 0.931 . S
C540 H528 0.929 . S
C540 C534 1.390 . S
C540 C537 1.386 . S
C541 C536 1.490 1_556 S
C541 C543 1.395 1_556 S
C541 C544 1.403 . S
H542 C548 0.930 . S
C543 H529 0.930 . S
C543 C541 1.395 1_554 S
C543 C546 1.403 1_554 S
C544 C541 1.403 . S
C544 C545 1.524 . S
C544 C548 1.400 . S
C545 H530 0.960 . S
C545 H531 0.960 . S
C545 H532 0.960 . S
C545 C544 1.524 . S
C546 C543 1.403 1_556 S
C546 C547 1.392 . S
C546 C550 1.495 1_556 S
C547 C546 1.392 . S
C547 C548 1.385 . S
C547 C549 1.478 . S
C548 H542 0.930 . S
C548 C544 1.400 . S
C548 C547 1.385 . S
C549 C547 1.478 . S
C549 C551 1.381 . S
C549 C555 1.383 . S
C550 C546 1.495 1_554 S
C550 H556 0.959 . S
C550 H557 0.961 . S
C550 H558 0.960 1_554 S
C551 C549 1.381 . S
C551 C552 1.394 . S
C551 H559 0.930 . S
C552 C551 1.394 . S
C552 C553 1.383 . S
C552 H560 0.929 . S
C553 C552 1.383 . S
C553 C554 1.377 . S
C554 H538 0.930 . S
C554 C553 1.377 . S
C554 C555 1.379 . S
C555 H539 0.931 . S
C555 C549 1.383 . S
C555 C554 1.379 . S
H556 C550 0.959 . S
H557 C550 0.961 . S
H558 C550 0.960 1_556 S
H559 C551 0.930 . S
H560 C552 0.929 . S
H561 C569 0.929 . S
H562 C571 0.930 . S
H563 C573 0.930 . S
H564 C576 0.929 . S
H565 C579 0.930 1_554 S
H566 C581 0.960 . S
H567 C581 0.960 . S
H568 C581 0.960 . S
C569 H561 0.929 . S
C569 C570 1.377 . S
C569 C571 1.384 . S
C570 C569 1.377 . S
C570 C576 1.390 1_554 S
C571 H562 0.930 . S
C571 C569 1.384 . S
C571 C572 1.372 1_554 S
C572 C571 1.372 1_556 S
C572 C573 1.400 . S
C572 C577 1.490 . S
C573 H563 0.930 . S
C573 C572 1.400 . S
C573 C576 1.386 . S
H574 C590 0.930 . S
H575 C591 0.931 . S
C576 H564 0.929 . S
C576 C570 1.390 1_556 S
C576 C573 1.386 . S
C577 C572 1.490 . S
C577 C579 1.395 . S
C577 C580 1.403 . S
H578 C584 0.930 . S
C579 H565 0.930 1_556 S
C579 C577 1.395 . S
C579 C582 1.403 . S
C580 C577 1.403 . S
C580 C581 1.524 . S
C580 C584 1.400 . S
C581 H566 0.960 . S
C581 H567 0.960 . S
C581 H568 0.960 . S
C581 C580 1.524 . S
C582 C579 1.403 . S
C582 C583 1.392 . S
C582 C586 1.495 . S
C583 C582 1.392 . S
C583 C584 1.385 . S
C583 C585 1.478 . S
C584 H578 0.930 . S
C584 C580 1.400 . S
C584 C583 1.385 . S
C585 C583 1.478 . S
C585 C587 1.381 . S
C585 C591 1.383 . S
C586 C582 1.495 . S
C586 H592 0.959 . S
C586 H593 0.961 . S
C586 H594 0.960 . S
C587 C585 1.381 . S
C587 C588 1.394 . S
C587 H595 0.930 . S
C588 C587 1.394 . S
C588 C589 1.383 . S
C588 H596 0.929 . S
C589 C588 1.383 . S
C589 C590 1.377 . S
C590 H574 0.930 . S
C590 C589 1.377 . S
C590 C591 1.379 . S
C591 H575 0.931 . S
C591 C585 1.383 . S
C591 C590 1.379 . S
H592 C586 0.959 . S
H593 C586 0.961 . S
H594 C586 0.960 . S
H595 C587 0.930 . S
H596 C588 0.929 . S
H597 C605 0.929 . S
H598 C607 0.930 . S
H599 C609 0.930 . S
H600 C612 0.929 . S
H601 C615 0.930 . S
H602 C617 0.960 . S
H603 C617 0.960 . S
H604 C617 0.960 . S
C605 H597 0.929 . S
C605 C606 1.377 . S
C605 C607 1.384 1_554 S
C606 C605 1.377 . S
C606 C612 1.390 . S
C607 H598 0.930 . S
C607 C605 1.384 1_556 S
C607 C608 1.372 . S
C608 C607 1.372 . S
C608 C609 1.400 . S
C608 C613 1.490 . S
C609 H599 0.930 . S
C609 C608 1.400 . S
C609 C612 1.386 1_556 S
H610 C626 0.930 . S
H611 C627 0.931 . S
C612 H600 0.929 . S
C612 C606 1.390 . S
C612 C609 1.386 1_554 S
C613 C608 1.490 . S
C613 C615 1.395 . S
C613 C616 1.403 . S
H614 C620 0.930 . S
C615 H601 0.930 . S
C615 C613 1.395 . S
C615 C618 1.403 . S
C616 C613 1.403 . S
C616 C617 1.524 1_556 S
C616 C620 1.400 . S
C617 H602 0.960 . S
C617 H603 0.960 . S
C617 H604 0.960 . S
C617 C616 1.524 1_554 S
C618 C615 1.403 . S
C618 C619 1.392 . S
C618 C622 1.495 . S
C619 C618 1.392 . S
C619 C620 1.385 . S
C619 C621 1.478 . S
C620 H614 0.930 . S
C620 C616 1.400 . S
C620 C619 1.385 . S
C621 C619 1.478 . S
C621 C623 1.381 . S
C621 C627 1.383 . S
C622 C618 1.495 . S
C622 H628 0.959 . S
C622 H629 0.961 . S
C622 H630 0.960 . S
C623 C621 1.381 . S
C623 C624 1.394 . S
C623 H631 0.930 . S
C624 C623 1.394 . S
C624 C625 1.383 . S
C624 H632 0.929 . S
C625 C624 1.383 . S
C625 C626 1.377 . S
C626 H610 0.930 . S
C626 C625 1.377 . S
C626 C627 1.379 . S
C627 H611 0.931 . S
C627 C621 1.383 . S
C627 C626 1.379 . S
H628 C622 0.959 . S
H629 C622 0.961 . S
H630 C622 0.960 . S
H631 C623 0.930 . S
H632 C624 0.929 . S
H633 C641 0.929 1_554 S
H634 C643 0.930 . S
H635 C645 0.930 . S
H636 C648 0.929 . S
H637 C651 0.930 . S
H638 C653 0.960 . S
H639 C653 0.960 . S
H640 C653 0.960 . S
C641 H633 0.929 1_556 S
C641 C642 1.377 . S
C641 C643 1.384 . S
C642 C641 1.377 . S
C642 C648 1.390 . S
C643 H634 0.930 . S
C643 C641 1.384 . S
C643 C644 1.372 . S
C644 C643 1.372 . S
C644 C645 1.400 . S
C644 C649 1.490 . S
C645 H635 0.930 . S
C645 C644 1.400 . S
C645 C648 1.386 . S
H646 C662 0.930 . S
H647 C663 0.931 . S
C648 H636 0.929 . S
C648 C642 1.390 . S
C648 C645 1.386 . S
C649 C644 1.490 . S
C649 C651 1.395 . S
C649 C652 1.403 . S
H650 C656 0.930 . S
C651 H637 0.930 . S
C651 C649 1.395 . S
C651 C654 1.403 . S
C652 C649 1.403 . S
C652 C653 1.524 . S
C652 C656 1.400 . S
C653 H638 0.960 . S
C653 H639 0.960 . S
C653 H640 0.960 . S
C653 C652 1.524 . S
C654 C651 1.403 . S
C654 C655 1.392 . S
C654 C658 1.495 . S
C655 C654 1.392 . S
C655 C656 1.385 . S
C655 C657 1.478 . S
C656 H650 0.930 . S
C656 C652 1.400 . S
C656 C655 1.385 . S
C657 C655 1.478 . S
C657 C659 1.381 . S
C657 C663 1.383 . S
C658 C654 1.495 . S
C658 H664 0.959 . S
C658 H665 0.961 . S
C658 H666 0.960 . S
C659 C657 1.381 . S
C659 C660 1.394 . S
C659 H667 0.930 . S
C660 C659 1.394 . S
C660 C661 1.383 . S
C660 H668 0.929 . S
C661 C660 1.383 . S
C661 C662 1.377 . S
C662 H646 0.930 . S
C662 C661 1.377 . S
C662 C663 1.379 . S
C663 H647 0.931 . S
C663 C657 1.383 . S
C663 C662 1.379 . S
H664 C658 0.959 . S
H665 C658 0.961 . S
H666 C658 0.960 . S
H667 C659 0.930 . S
H668 C660 0.929 . S
H669 C677 0.929 . S
H670 C679 0.930 . S
H671 C681 0.930 . S
H672 C684 0.929 1_554 S
H673 C687 0.930 . S
H674 C689 0.960 . S
H675 C689 0.960 . S
H676 C689 0.960 . S
C677 H669 0.929 . S
C677 C678 1.377 . S
C677 C679 1.384 . S
C678 C677 1.377 . S
C678 C684 1.390 . S
C679 H670 0.930 . S
C679 C677 1.384 . S
C679 C680 1.372 . S
C680 C679 1.372 . S
C680 C681 1.400 . S
C680 C685 1.490 . S
C681 H671 0.930 . S
C681 C680 1.400 . S
C681 C684 1.386 . S
H682 C698 0.930 . S
H683 C699 0.931 . S
C684 H672 0.929 1_556 S
C684 C678 1.390 . S
C684 C681 1.386 . S
C685 C680 1.490 . S
C685 C687 1.395 . S
C685 C688 1.403 . S
H686 C692 0.930 . S
C687 H673 0.930 . S
C687 C685 1.395 . S
C687 C690 1.403 . S
C688 C685 1.403 . S
C688 C689 1.524 . S
C688 C692 1.400 . S
C689 H674 0.960 . S
C689 H675 0.960 . S
C689 H676 0.960 . S
C689 C688 1.524 . S
C690 C687 1.403 . S
C690 C691 1.392 . S
C690 C694 1.495 . S
C691 C690 1.392 . S
C691 C692 1.385 . S
C691 C693 1.478 . S
C692 H686 0.930 . S
C692 C688 1.400 . S
C692 C691 1.385 . S
C693 C691 1.478 . S
C693 C695 1.381 . S
C693 C699 1.383 . S
C694 C690 1.495 . S
C694 H700 0.959 . S
C694 H701 0.961 . S
C694 H702 0.960 . S
C695 C693 1.381 . S
C695 C696 1.394 . S
C695 H703 0.930 . S
C696 C695 1.394 . S
C696 C697 1.383 . S
C696 H704 0.929 . S
C697 C696 1.383 . S
C697 C698 1.377 . S
C698 H682 0.930 . S
C698 C697 1.377 . S
C698 C699 1.379 . S
C699 H683 0.931 . S
C699 C693 1.383 . S
C699 C698 1.379 . S
H700 C694 0.959 . S
H701 C694 0.961 . S
H702 C694 0.960 . S
H703 C695 0.930 . S
H704 C696 0.929 . S
H705 C713 0.929 . S
H706 C715 0.930 . S
H707 C717 0.930 1_556 S
H708 C720 0.929 . S
H709 C723 0.930 . S
H710 C725 0.960 1_556 S
H711 C725 0.960 . S
H712 C725 0.960 . S
C713 H705 0.929 . S
C713 C714 1.377 . S
C713 C715 1.384 . S
C714 C713 1.377 . S
C714 C720 1.390 . S
C715 H706 0.930 . S
C715 C713 1.384 . S
C715 C716 1.372 . S
C716 C715 1.372 . S
C716 C717 1.400 . S
C716 C721 1.490 1_554 S
C717 H707 0.930 1_554 S
C717 C716 1.400 . S
C717 C720 1.386 . S
H718 C734 0.930 . S
H719 C735 0.931 . S
C720 H708 0.929 . S
C720 C714 1.390 . S
C720 C717 1.386 . S
C721 C716 1.490 1_556 S
C721 C723 1.395 . S
C721 C724 1.403 . S
H722 C728 0.930 . S
C723 H709 0.930 . S
C723 C721 1.395 . S
C723 C726 1.403 . S
C724 C721 1.403 . S
C724 C725 1.524 1_556 S
C724 C728 1.400 . S
C725 H710 0.960 1_554 S
C725 H711 0.960 . S
C725 H712 0.960 . S
C725 C724 1.524 1_554 S
C726 C723 1.403 . S
C726 C727 1.392 . S
C726 C730 1.495 . S
C727 C726 1.392 . S
C727 C728 1.385 . S
C727 C729 1.478 . S
C728 H722 0.930 . S
C728 C724 1.400 . S
C728 C727 1.385 . S
C729 C727 1.478 . S
C729 C731 1.381 . S
C729 C735 1.383 . S
C730 C726 1.495 . S
C730 H736 0.959 . S
C730 H737 0.961 . S
C730 H738 0.960 . S
C731 C729 1.381 . S
C731 C732 1.394 . S
C731 H739 0.930 . S
C732 C731 1.394 . S
C732 C733 1.383 . S
C732 H740 0.929 . S
C733 C732 1.383 . S
C733 C734 1.377 . S
C734 H718 0.930 . S
C734 C733 1.377 . S
C734 C735 1.379 . S
C735 H719 0.931 . S
C735 C729 1.383 . S
C735 C734 1.379 . S
H736 C730 0.959 . S
H737 C730 0.961 . S
H738 C730 0.960 . S
H739 C731 0.930 . S
H740 C732 0.929 . S
H741 C749 0.929 . S
H742 C751 0.930 . S
H743 C753 0.930 . S
H744 C756 0.929 . S
H745 C759 0.930 . S
H746 C761 0.960 . S
H747 C761 0.960 . S
H748 C761 0.960 . S
C749 H741 0.929 . S
C749 C750 1.377 . S
C749 C751 1.384 . S
C750 C749 1.377 . S
C750 C756 1.390 1_554 S
C751 H742 0.930 . S
C751 C749 1.384 . S
C751 C752 1.372 1_554 S
C752 C751 1.372 1_556 S
C752 C753 1.400 . S
C752 C757 1.490 . S
C753 H743 0.930 . S
C753 C752 1.400 . S
C753 C756 1.386 . S
H754 C770 0.930 . S
H755 C771 0.931 . S
C756 H744 0.929 . S
C756 C750 1.390 1_556 S
C756 C753 1.386 . S
C757 C752 1.490 . S
C757 C759 1.395 . S
C757 C760 1.403 . S
H758 C764 0.930 . S
C759 H745 0.930 . S
C759 C757 1.395 . S
C759 C762 1.403 . S
C760 C757 1.403 . S
C760 C761 1.524 . S
C760 C764 1.400 . S
C761 H746 0.960 . S
C761 H747 0.960 . S
C761 H748 0.960 . S
C761 C760 1.524 . S
C762 C759 1.403 . S
C762 C763 1.392 . S
C762 C766 1.495 . S
C763 C762 1.392 . S
C763 C764 1.385 . S
C763 C765 1.478 . S
C764 H758 0.930 . S
C764 C760 1.400 . S
C764 C763 1.385 . S
C765 C763 1.478 . S
C765 C767 1.381 . S
C765 C771 1.383 . S
C766 C762 1.495 . S
C766 H772 0.959 . S
C766 H773 0.961 . S
C766 H774 0.960 . S
C767 C765 1.381 . S
C767 C768 1.394 . S
C767 H775 0.930 . S
C768 C767 1.394 . S
C768 C769 1.383 . S
C768 H776 0.929 . S
C769 C768 1.383 . S
C769 C770 1.377 . S
C770 H754 0.930 . S
C770 C769 1.377 . S
C770 C771 1.379 . S
C771 H755 0.931 . S
C771 C765 1.383 . S
C771 C770 1.379 . S
H772 C766 0.959 . S
H773 C766 0.961 . S
H774 C766 0.960 . S
H775 C767 0.930 . S
H776 C768 0.929 . S
H777 C785 0.929 . S
H778 C787 0.930 . S
H779 C789 0.930 . S
H780 C792 0.929 . S
H781 C795 0.930 . S
H782 C797 0.960 . S
H783 C797 0.960 1_554 S
H784 C797 0.960 . S
C785 H777 0.929 . S
C785 C786 1.377 . S
C785 C787 1.384 1_554 S
C786 C785 1.377 . S
C786 C792 1.390 1_554 S
C787 H778 0.930 . S
C787 C785 1.384 1_556 S
C787 C788 1.372 . S
C788 C787 1.372 . S
C788 C789 1.400 . S
C788 C793 1.490 . S
C789 H779 0.930 . S
C789 C788 1.400 . S
C789 C792 1.386 . S
H790 C806 0.930 . S
H791 C807 0.931 . S
C792 H780 0.929 . S
C792 C786 1.390 1_556 S
C792 C789 1.386 . S
C793 C788 1.490 . S
C793 C795 1.395 . S
C793 C796 1.403 . S
H794 C800 0.930 . S
C795 H781 0.930 . S
C795 C793 1.395 . S
C795 C798 1.403 . S
C796 C793 1.403 . S
C796 C797 1.524 . S
C796 C800 1.400 . S
C797 H782 0.960 . S
C797 H783 0.960 1_556 S
C797 H784 0.960 . S
C797 C796 1.524 . S
C798 C795 1.403 . S
C798 C799 1.392 . S
C798 C802 1.495 . S
C799 C798 1.392 . S
C799 C800 1.385 . S
C799 C801 1.478 . S
C800 H794 0.930 . S
C800 C796 1.400 . S
C800 C799 1.385 . S
C801 C799 1.478 . S
C801 C803 1.381 . S
C801 C807 1.383 . S
C802 C798 1.495 . S
C802 H808 0.959 . S
C802 H809 0.961 . S
C802 H810 0.960 . S
C803 C801 1.381 . S
C803 C804 1.394 . S
C803 H811 0.930 . S
C804 C803 1.394 . S
C804 C805 1.383 . S
C804 H812 0.929 . S
C805 C804 1.383 . S
C805 C806 1.377 . S
C806 H790 0.930 . S
C806 C805 1.377 . S
C806 C807 1.379 . S
C807 H791 0.931 . S
C807 C801 1.383 . S
C807 C806 1.379 . S
H808 C802 0.959 . S
H809 C802 0.961 . S
H810 C802 0.960 . S
H811 C803 0.930 . S
H812 C804 0.929 . S
H813 C821 0.929 . S
H814 C823 0.930 . S
H815 C825 0.930 . S
H816 C828 0.929 . S
H817 C831 0.930 . S
H818 C833 0.960 . S
H819 C833 0.960 . S
H820 C833 0.960 . S
C821 H813 0.929 . S
C821 C822 1.377 . S
C821 C823 1.384 . S
C822 C821 1.377 . S
C822 C828 1.390 . S
C823 H814 0.930 . S
C823 C821 1.384 . S
C823 C824 1.372 . S
C824 C823 1.372 . S
C824 C825 1.400 . S
C824 C829 1.490 . S
C825 H815 0.930 . S
C825 C824 1.400 . S
C825 C828 1.386 . S
H826 C842 0.930 . S
H827 C843 0.931 . S
C828 H816 0.929 . S
C828 C822 1.390 . S
C828 C825 1.386 . S
C829 C824 1.490 . S
C829 C831 1.395 . S
C829 C832 1.403 . S
H830 C836 0.930 . S
C831 H817 0.930 . S
C831 C829 1.395 . S
C831 C834 1.403 . S
C832 C829 1.403 . S
C832 C833 1.524 . S
C832 C836 1.400 . S
C833 H818 0.960 . S
C833 H819 0.960 . S
C833 H820 0.960 . S
C833 C832 1.524 . S
C834 C831 1.403 . S
C834 C835 1.392 . S
C834 C838 1.495 . S
C835 C834 1.392 . S
C835 C836 1.385 . S
C835 C837 1.478 . S
C836 H830 0.930 . S
C836 C832 1.400 . S
C836 C835 1.385 . S
C837 C835 1.478 . S
C837 C839 1.381 . S
C837 C843 1.383 . S
C838 C834 1.495 . S
C838 H844 0.959 . S
C838 H845 0.961 . S
C838 H846 0.960 . S
C839 C837 1.381 . S
C839 C840 1.394 . S
C839 H847 0.930 . S
C840 C839 1.394 . S
C840 C841 1.383 . S
C840 H848 0.929 . S
C841 C840 1.383 . S
C841 C842 1.377 . S
C842 H826 0.930 . S
C842 C841 1.377 . S
C842 C843 1.379 . S
C843 H827 0.931 . S
C843 C837 1.383 . S
C843 C842 1.379 . S
H844 C838 0.959 . S
H845 C838 0.961 . S
H846 C838 0.960 . S
H847 C839 0.930 . S
H848 C840 0.929 . S
H849 C857 0.929 . S
H850 C859 0.930 . S
H851 C861 0.930 . S
H852 C864 0.929 . S
H853 C867 0.930 . S
H854 C869 0.960 . S
H855 C869 0.960 . S
H856 C869 0.960 . S
C857 H849 0.929 . S
C857 C858 1.377 . S
C857 C859 1.384 . S
C858 C857 1.377 . S
C858 C864 1.390 . S
C859 H850 0.930 . S
C859 C857 1.384 . S
C859 C860 1.372 . S
C860 C859 1.372 . S
C860 C861 1.400 . S
C860 C865 1.490 . S
C861 H851 0.930 . S
C861 C860 1.400 . S
C861 C864 1.386 . S
H862 C878 0.930 . S
H863 C879 0.931 . S
C864 H852 0.929 . S
C864 C858 1.390 . S
C864 C861 1.386 . S
C865 C860 1.490 . S
C865 C867 1.395 . S
C865 C868 1.403 . S
H866 C872 0.930 . S
C867 H853 0.930 . S
C867 C865 1.395 . S
C867 C870 1.403 . S
C868 C865 1.403 . S
C868 C869 1.524 . S
C868 C872 1.400 . S
C869 H854 0.960 . S
C869 H855 0.960 . S
C869 H856 0.960 . S
C869 C868 1.524 . S
C870 C867 1.403 . S
C870 C871 1.392 . S
C870 C874 1.495 . S
C871 C870 1.392 . S
C871 C872 1.385 . S
C871 C873 1.478 . S
C872 H866 0.930 . S
C872 C868 1.400 . S
C872 C871 1.385 . S
C873 C871 1.478 . S
C873 C875 1.381 . S
C873 C879 1.383 . S
C874 C870 1.495 . S
C874 H880 0.959 . S
C874 H881 0.961 . S
C874 H882 0.960 . S
C875 C873 1.381 . S
C875 C876 1.394 . S
C875 H883 0.930 . S
C876 C875 1.394 . S
C876 C877 1.383 . S
C876 H884 0.929 . S
C877 C876 1.383 . S
C877 C878 1.377 . S
C878 H862 0.930 . S
C878 C877 1.377 . S
C878 C879 1.379 . S
C879 H863 0.931 . S
C879 C873 1.383 . S
C879 C878 1.379 . S
H880 C874 0.959 . S
H881 C874 0.961 . S
H882 C874 0.960 . S
H883 C875 0.930 . S
H884 C876 0.929 . S
H885 C893 0.929 . S
H886 C895 0.930 . S
H887 C897 0.930 . S
H888 C900 0.929 . S
H889 C903 0.930 . S
H890 C905 0.960 . S
H891 C905 0.960 . S
H892 C905 0.960 . S
C893 H885 0.929 . S
C893 C894 1.377 . S
C893 C895 1.384 . S
C894 C893 1.377 . S
C894 C900 1.390 . S
C895 H886 0.930 . S
C895 C893 1.384 . S
C895 C896 1.372 . S
C896 C895 1.372 . S
C896 C897 1.400 . S
C896 C901 1.490 . S
C897 H887 0.930 . S
C897 C896 1.400 . S
C897 C900 1.386 . S
H898 C914 0.930 . S
H899 C915 0.931 . S
C900 H888 0.929 . S
C900 C894 1.390 . S
C900 C897 1.386 . S
C901 C896 1.490 . S
C901 C903 1.395 . S
C901 C904 1.403 . S
H902 C908 0.930 . S
C903 H889 0.930 . S
C903 C901 1.395 . S
C903 C906 1.403 . S
C904 C901 1.403 . S
C904 C905 1.524 . S
C904 C908 1.400 . S
C905 H890 0.960 . S
C905 H891 0.960 . S
C905 H892 0.960 . S
C905 C904 1.524 . S
C906 C903 1.403 . S
C906 C907 1.392 . S
C906 C910 1.495 . S
C907 C906 1.392 . S
C907 C908 1.385 . S
C907 C909 1.478 . S
C908 H902 0.930 . S
C908 C904 1.400 . S
C908 C907 1.385 . S
C909 C907 1.478 . S
C909 C911 1.381 . S
C909 C915 1.383 . S
C910 C906 1.495 . S
C910 H916 0.959 . S
C910 H917 0.961 . S
C910 H918 0.960 . S
C911 C909 1.381 . S
C911 C912 1.394 . S
C911 H919 0.930 . S
C912 C911 1.394 . S
C912 C913 1.383 . S
C912 H920 0.929 . S
C913 C912 1.383 . S
C913 C914 1.377 . S
C914 H898 0.930 . S
C914 C913 1.377 . S
C914 C915 1.379 . S
C915 H899 0.931 . S
C915 C909 1.383 . S
C915 C914 1.379 . S
H916 C910 0.959 . S
H917 C910 0.961 . S
H918 C910 0.960 . S
H919 C911 0.930 . S
H920 C912 0.929 . S
H921 C929 0.929 . S
H922 C931 0.930 . S
H923 C933 0.930 . S
H924 C936 0.929 . S
H925 C939 0.930 . S
H926 C941 0.960 . S
H927 C941 0.960 . S
H928 C941 0.960 . S
C929 H921 0.929 . S
C929 C930 1.377 . S
C929 C931 1.384 . S
C930 C929 1.377 . S
C930 C936 1.390 . S
C931 H922 0.930 . S
C931 C929 1.384 . S
C931 C932 1.372 . S
C932 C931 1.372 . S
C932 C933 1.400 . S
C932 C937 1.490 . S
C933 H923 0.930 . S
C933 C932 1.400 . S
C933 C936 1.386 . S
H934 C950 0.930 . S
H935 C951 0.931 . S
C936 H924 0.929 . S
C936 C930 1.390 . S
C936 C933 1.386 . S
C937 C932 1.490 . S
C937 C939 1.395 . S
C937 C940 1.403 . S
H938 C944 0.930 . S
C939 H925 0.930 . S
C939 C937 1.395 . S
C939 C942 1.403 . S
C940 C937 1.403 . S
C940 C941 1.524 . S
C940 C944 1.400 . S
C941 H926 0.960 . S
C941 H927 0.960 . S
C941 H928 0.960 . S
C941 C940 1.524 . S
C942 C939 1.403 . S
C942 C943 1.392 . S
C942 C946 1.495 . S
C943 C942 1.392 . S
C943 C944 1.385 . S
C943 C945 1.478 . S
C944 H938 0.930 . S
C944 C940 1.400 . S
C944 C943 1.385 . S
C945 C943 1.478 . S
C945 C947 1.381 . S
C945 C951 1.383 . S
C946 C942 1.495 . S
C946 H952 0.959 . S
C946 H953 0.961 . S
C946 H954 0.960 . S
C947 C945 1.381 . S
C947 C948 1.394 . S
C947 H955 0.930 . S
C948 C947 1.394 . S
C948 C949 1.383 . S
C948 H956 0.929 . S
C949 C948 1.383 . S
C949 C950 1.377 . S
C950 H934 0.930 . S
C950 C949 1.377 . S
C950 C951 1.379 . S
C951 H935 0.931 . S
C951 C945 1.383 . S
C951 C950 1.379 . S
H952 C946 0.959 . S
H953 C946 0.961 . S
H954 C946 0.960 . S
H955 C947 0.930 . S
H956 C948 0.929 . S
H957 C965 0.929 . S
H958 C967 0.930 . S
H959 C969 0.930 . S
H960 C972 0.929 . S
H961 C975 0.930 . S
H962 C977 0.960 . S
H963 C977 0.960 . S
H964 C977 0.960 . S
C965 H957 0.929 . S
C965 C966 1.377 . S
C965 C967 1.384 . S
C966 C965 1.377 . S
C966 C972 1.390 . S
C967 H958 0.930 . S
C967 C965 1.384 . S
C967 C968 1.372 . S
C968 C967 1.372 . S
C968 C969 1.400 . S
C968 C973 1.490 . S
C969 H959 0.930 . S
C969 C968 1.400 . S
C969 C972 1.386 . S
H970 C986 0.930 . S
H971 C987 0.931 . S
C972 H960 0.929 . S
C972 C966 1.390 . S
C972 C969 1.386 . S
C973 C968 1.490 . S
C973 C975 1.395 . S
C973 C976 1.403 . S
H974 C980 0.930 . S
C975 H961 0.930 . S
C975 C973 1.395 . S
C975 C978 1.403 . S
C976 C973 1.403 . S
C976 C977 1.524 . S
C976 C980 1.400 . S
C977 H962 0.960 . S
C977 H963 0.960 . S
C977 H964 0.960 . S
C977 C976 1.524 . S
C978 C975 1.403 . S
C978 C979 1.392 . S
C978 C982 1.495 . S
C979 C978 1.392 . S
C979 C980 1.385 . S
C979 C981 1.478 . S
C980 H974 0.930 . S
C980 C976 1.400 . S
C980 C979 1.385 . S
C981 C979 1.478 . S
C981 C983 1.381 . S
C981 C987 1.383 . S
C982 C978 1.495 . S
C982 H988 0.959 . S
C982 H989 0.961 . S
C982 H990 0.960 . S
C983 C981 1.381 . S
C983 C984 1.394 . S
C983 H991 0.930 . S
C984 C983 1.394 . S
C984 C985 1.383 . S
C984 H992 0.929 . S
C985 C984 1.383 . S
C985 C986 1.377 . S
C986 H970 0.930 . S
C986 C985 1.377 . S
C986 C987 1.379 . S
C987 H971 0.931 . S
C987 C981 1.383 . S
C987 C986 1.379 . S
H988 C982 0.959 . S
H989 C982 0.961 . S
H990 C982 0.960 . S
H991 C983 0.930 . S
H992 C984 0.929 . S
H993 C1001 0.929 . S
H994 C1003 0.930 . S
H995 C1005 0.930 . S
H996 C1008 0.929 . S
H997 C1011 0.930 . S
H998 C1013 0.960 . S
H999 C1013 0.960 . S
H1000 C1013 0.960 . S
C1001 H993 0.929 . S
C1001 C1002 1.377 . S
C1001 C1003 1.384 . S
C1002 C1001 1.377 . S
C1002 C1008 1.390 . S
C1003 H994 0.930 . S
C1003 C1001 1.384 . S
C1003 C1004 1.372 . S
C1004 C1003 1.372 . S
C1004 C1005 1.400 . S
C1004 C1009 1.490 . S
C1005 H995 0.930 . S
C1005 C1004 1.400 . S
C1005 C1008 1.386 . S
H1006 C1022 0.930 . S
H1007 C1023 0.931 . S
C1008 H996 0.929 . S
C1008 C1002 1.390 . S
C1008 C1005 1.386 . S
C1009 C1004 1.490 . S
C1009 C1011 1.395 . S
C1009 C1012 1.403 . S
H1010 C1016 0.930 . S
C1011 H997 0.930 . S
C1011 C1009 1.395 . S
C1011 C1014 1.403 . S
C1012 C1009 1.403 . S
C1012 C1013 1.524 . S
C1012 C1016 1.400 . S
C1013 H998 0.960 . S
C1013 H999 0.960 . S
C1013 H1000 0.960 . S
C1013 C1012 1.524 . S
C1014 C1011 1.403 . S
C1014 C1015 1.392 . S
C1014 C1018 1.495 . S
C1015 C1014 1.392 . S
C1015 C1016 1.385 . S
C1015 C1017 1.478 . S
C1016 H1010 0.930 . S
C1016 C1012 1.400 . S
C1016 C1015 1.385 . S
C1017 C1015 1.478 . S
C1017 C1019 1.381 . S
C1017 C1023 1.383 . S
C1018 C1014 1.495 . S
C1018 H1024 0.959 . S
C1018 H1025 0.961 . S
C1018 H1026 0.960 . S
C1019 C1017 1.381 . S
C1019 C1020 1.394 . S
C1019 H1027 0.930 . S
C1020 C1019 1.394 . S
C1020 C1021 1.383 . S
C1020 H1028 0.929 . S
C1021 C1020 1.383 . S
C1021 C1022 1.377 . S
C1022 H1006 0.930 . S
C1022 C1021 1.377 . S
C1022 C1023 1.379 . S
C1023 H1007 0.931 . S
C1023 C1017 1.383 . S
C1023 C1022 1.379 . S
H1024 C1018 0.959 . S
H1025 C1018 0.961 . S
H1026 C1018 0.960 . S
H1027 C1019 0.930 . S
H1028 C1020 0.929 . S
H1029 C1037 0.929 . S
H1030 C1039 0.930 . S
H1031 C1041 0.930 . S
H1032 C1044 0.929 . S
H1033 C1047 0.930 . S
H1034 C1049 0.960 . S
H1035 C1049 0.960 . S
H1036 C1049 0.960 . S
C1037 H1029 0.929 . S
C1037 C1038 1.377 . S
C1037 C1039 1.384 . S
C1038 C1037 1.377 . S
C1038 C1044 1.390 . S
C1039 H1030 0.930 . S
C1039 C1037 1.384 . S
C1039 C1040 1.372 . S
C1040 C1039 1.372 . S
C1040 C1041 1.400 . S
C1040 C1045 1.490 . S
C1041 H1031 0.930 . S
C1041 C1040 1.400 . S
C1041 C1044 1.386 . S
H1042 C1058 0.930 . S
H1043 C1059 0.931 . S
C1044 H1032 0.929 . S
C1044 C1038 1.390 . S
C1044 C1041 1.386 . S
C1045 C1040 1.490 . S
C1045 C1047 1.395 . S
C1045 C1048 1.403 . S
H1046 C1052 0.930 . S
C1047 H1033 0.930 . S
C1047 C1045 1.395 . S
C1047 C1050 1.403 . S
C1048 C1045 1.403 . S
C1048 C1049 1.524 . S
C1048 C1052 1.400 . S
C1049 H1034 0.960 . S
C1049 H1035 0.960 . S
C1049 H1036 0.960 . S
C1049 C1048 1.524 . S
C1050 C1047 1.403 . S
C1050 C1051 1.392 . S
C1050 C1054 1.495 . S
C1051 C1050 1.392 . S
C1051 C1052 1.385 . S
C1051 C1053 1.478 . S
C1052 H1046 0.930 . S
C1052 C1048 1.400 . S
C1052 C1051 1.385 . S
C1053 C1051 1.478 . S
C1053 C1055 1.381 . S
C1053 C1059 1.383 . S
C1054 C1050 1.495 . S
C1054 H1060 0.959 . S
C1054 H1061 0.961 . S
C1054 H1062 0.960 . S
C1055 C1053 1.381 . S
C1055 C1056 1.394 . S
C1055 H1063 0.930 . S
C1056 C1055 1.394 . S
C1056 C1057 1.383 . S
C1056 H1064 0.929 . S
C1057 C1056 1.383 . S
C1057 C1058 1.377 . S
C1058 H1042 0.930 . S
C1058 C1057 1.377 . S
C1058 C1059 1.379 . S
C1059 H1043 0.931 . S
C1059 C1053 1.383 . S
C1059 C1058 1.379 . S
H1060 C1054 0.959 . S
H1061 C1054 0.961 . S
H1062 C1054 0.960 . S
H1063 C1055 0.930 . S
H1064 C1056 0.929 . S
C210 C16 1.838 . S
C229 C119 1.872 . S
C246 C26 1.662 . S
C265 C166 1.666 . S
C301 C170 1.881 . S
C282 C52 1.904 . S
C337 C135 1.565 . S
C318 C62 1.579 . S
C354 C80 1.773 . S
C373 C150 1.721 . S
C409 C172 0.995 . S
C390 C98 1.012 . S
C445 C141 1.451 . S
C426 C43 1.450 . S
C462 C68 1.419 1_556 S
C481 C181 1.440 . S
C517 C110 1.314 . S
C498 C86 1.347 1_556 S
C534 C104 1.524 . S
C553 C139 1.513 . S
C570 C7 1.988 . S
C589 C197 1.973 . S
C625 C108 1.593 . S
C606 C32 1.596 . S
C661 C126 1.809 . S
C642 C61 1.830 1_556 S
C697 C140 1.652 . S
C678 C79 1.657 1_556 S
C733 C194 1.898 . S
C714 C97 1.901 . S
C769 C109 1.573 . S
C750 C14 1.566 . S
C805 C157 1.738 . S
C786 C25 1.747 . S
C822 C50 1.004 . S
C841 C180 0.965 . S
C877 C149 1.404 . S
C858 C106 1.440 . S
C913 C188 1.369 . S
C894 C8 1.367 . S
C949 C118 1.260 . S
C930 C34 1.320 . S
C985 C163 1.466 . S
C966 C44 1.495 . S
C1002 C70 1.977 . S
C1021 C171 1.980 . S
C1038 C88 1.568 . S
C1057 C132 1.587 . S
