# Generated by pormake.
# Topology pyr, (3,6)-cn, num edge types: 1
# Building blocks:
#     Node 0, Type 0, BuildingBlock: KAKCAD_clean_linker_0, # of connection points: 3
#     Node 1, Type 0, BuildingBlock: KAKCAD_clean_linker_0, # of connection points: 3
#     Node 2, Type 0, BuildingBlock: KAKCAD_clean_linker_0, # of connection points: 3
#     Node 3, Type 0, BuildingBlock: KAKCAD_clean_linker_0, # of connection points: 3
#     Node 4, Type 0, BuildingBlock: KAKCAD_clean_linker_0, # of connection points: 3
#     Node 5, Type 0, BuildingBlock: KAKCAD_clean_linker_0, # of connection points: 3
#     Node 6, Type 0, BuildingBlock: KAKCAD_clean_linker_0, # of connection points: 3
#     Node 7, Type 0, BuildingBlock: KAKCAD_clean_linker_0, # of connection points: 3
#     Node 8, Type 1, BuildingBlock: PAMTOO_clean_sbu_0, # of connection points: 6
#     Node 9, Type 1, BuildingBlock: PAMTOO_clean_sbu_0, # of connection points: 6
#     Node 10, Type 1, BuildingBlock: PAMTOO_clean_sbu_0, # of connection points: 6
#     Node 11, Type 1, BuildingBlock: PAMTOO_clean_sbu_0, # of connection points: 6
#     Edge 12, Type (0, 1), BuildingBlock: KIFKEQ_clean_linker_1, # of connection points: 2
#     Edge 13, Type (0, 1), BuildingBlock: KIFKEQ_clean_linker_1, # of connection points: 2
#     Edge 14, Type (0, 1), BuildingBlock: KIFKEQ_clean_linker_1, # of connection points: 2
#     Edge 15, Type (0, 1), BuildingBlock: KIFKEQ_clean_linker_1, # of connection points: 2
#     Edge 16, Type (0, 1), BuildingBlock: KIFKEQ_clean_linker_1, # of connection points: 2
#     Edge 17, Type (0, 1), BuildingBlock: KIFKEQ_clean_linker_1, # of connection points: 2
#     Edge 18, Type (0, 1), BuildingBlock: KIFKEQ_clean_linker_1, # of connection points: 2
#     Edge 19, Type (0, 1), BuildingBlock: KIFKEQ_clean_linker_1, # of connection points: 2
#     Edge 20, Type (0, 1), BuildingBlock: KIFKEQ_clean_linker_1, # of connection points: 2
#     Edge 21, Type (0, 1), BuildingBlock: KIFKEQ_clean_linker_1, # of connection points: 2
#     Edge 22, Type (0, 1), BuildingBlock: KIFKEQ_clean_linker_1, # of connection points: 2
#     Edge 23, Type (0, 1), BuildingBlock: KIFKEQ_clean_linker_1, # of connection points: 2
#     Edge 24, Type (0, 1), BuildingBlock: KIFKEQ_clean_linker_1, # of connection points: 2
#     Edge 25, Type (0, 1), BuildingBlock: KIFKEQ_clean_linker_1, # of connection points: 2
#     Edge 26, Type (0, 1), BuildingBlock: KIFKEQ_clean_linker_1, # of connection points: 2
#     Edge 27, Type (0, 1), BuildingBlock: KIFKEQ_clean_linker_1, # of connection points: 2
#     Edge 28, Type (0, 1), BuildingBlock: KIFKEQ_clean_linker_1, # of connection points: 2
#     Edge 29, Type (0, 1), BuildingBlock: KIFKEQ_clean_linker_1, # of connection points: 2
#     Edge 30, Type (0, 1), BuildingBlock: KIFKEQ_clean_linker_1, # of connection points: 2
#     Edge 31, Type (0, 1), BuildingBlock: KIFKEQ_clean_linker_1, # of connection points: 2
#     Edge 32, Type (0, 1), BuildingBlock: KIFKEQ_clean_linker_1, # of connection points: 2
#     Edge 33, Type (0, 1), BuildingBlock: KIFKEQ_clean_linker_1, # of connection points: 2
#     Edge 34, Type (0, 1), BuildingBlock: KIFKEQ_clean_linker_1, # of connection points: 2
#     Edge 35, Type (0, 1), BuildingBlock: KIFKEQ_clean_linker_1, # of connection points: 2
# Relax obj value: 0.088
# Max RMSD: 0.157
# Mean RMSD: 0.067
data_MOF--net-pyr--node1-PAMTOO_clean_sbu_0--node2-KAKCAD_clean_linker_0--edge1-KIFKEQ_clean_linker_1
_symmetry_space_group_name_H-M    P1
_symmetry_Int_Tables_number       1
_symmetry_cell_setting            triclinic
loop_
_symmetry_equiv_pos_as_xyz
'x, y, z'
_cell_length_a     45.710072
_cell_length_b     48.375437
_cell_length_c     48.82276
_cell_angle_alpha  90.033199
_cell_angle_beta   89.97439
_cell_angle_gamma 102.05066
loop_
_atom_site_label
_atom_site_type_symbol
_atom_site_fract_x
_atom_site_fract_y
_atom_site_fract_z
_atom_type_partial_charge
C0 C 0.27249 0.23659 0.31195 0.0
C1 C 0.29203 0.22705 0.3301 0.0
C2 C 0.2828 0.24871 0.287 0.0
C3 C 0.31304 0.25187 0.2795 0.0
C4 C 0.33293 0.24337 0.29812 0.0
C5 C 0.32249 0.23098 0.32317 0.0
C6 C 0.32251 0.26135 0.25127 0.0
C7 C 0.30906 0.28122 0.23804 0.0
C8 C 0.31108 0.28491 0.20951 0.0
C9 C 0.32952 0.2705 0.19453 0.0
C10 C 0.34492 0.252 0.20775 0.0
C11 C 0.3412 0.24744 0.23607 0.0
C12 C 0.36202 0.23475 0.19172 0.0
C13 C 0.34896 0.21946 0.16879 0.0
C14 C 0.39057 0.23187 0.20032 0.0
C15 C 0.40555 0.21359 0.18654 0.0
C16 C 0.39199 0.19756 0.16421 0.0
C17 C 0.29105 0.301 0.19539 0.0
C18 C 0.26174 0.29924 0.20517 0.0
C19 C 0.30021 0.31718 0.17175 0.0
C20 C 0.28048 0.33131 0.15837 0.0
C21 C 0.25149 0.3298 0.16867 0.0
C22 C 0.24237 0.31367 0.19215 0.0
C23 C 0.36374 0.20092 0.15526 0.0
H24 H 0.24877 0.23329 0.31631 0.0
H25 H 0.26656 0.25422 0.27299 0.0
H26 H 0.35639 0.2457 0.29308 0.0
H27 H 0.33811 0.22396 0.33686 0.0
H28 H 0.29552 0.29277 0.24989 0.0
H29 H 0.35108 0.23144 0.24578 0.0
H30 H 0.33098 0.2727 0.17246 0.0
H31 H 0.32685 0.22105 0.16191 0.0
H32 H 0.40108 0.24347 0.21795 0.0
H33 H 0.42726 0.21126 0.19389 0.0
H34 H 0.25337 0.28621 0.22266 0.0
H35 H 0.3226 0.31905 0.16368 0.0
H36 H 0.35293 0.18894 0.13796 0.0
H37 H 0.2199 0.31168 0.20013 0.0
H38 H 0.28793 0.34364 0.14021 0.0
C39 C 0.22204 0.80712 0.79515 0.0
C40 C 0.25333 0.81034 0.79585 0.0
C41 C 0.20559 0.79383 0.7729 0.0
C42 C 0.2201 0.78358 0.75088 0.0
C43 C 0.25127 0.786 0.75212 0.0
C44 C 0.26762 0.79903 0.77438 0.0
C45 C 0.20344 0.77229 0.72576 0.0
C46 C 0.18183 0.78583 0.71461 0.0
C47 C 0.16908 0.77804 0.68877 0.0
C48 C 0.17855 0.75655 0.67392 0.0
C49 C 0.19995 0.74277 0.68493 0.0
C50 C 0.21162 0.75015 0.71108 0.0
C51 C 0.21393 0.72382 0.66799 0.0
C52 C 0.21594 0.69704 0.67775 0.0
C53 C 0.22983 0.73449 0.64439 0.0
C54 C 0.24939 0.71961 0.63201 0.0
C55 C 0.25308 0.69358 0.64283 0.0
C56 C 0.14804 0.79424 0.67654 0.0
C57 C 0.12707 0.804 0.69308 0.0
C58 C 0.15004 0.80167 0.64865 0.0
C59 C 0.13219 0.81913 0.63778 0.0
C60 C 0.11222 0.82978 0.65462 0.0
C61 C 0.10951 0.82176 0.68227 0.0
C62 C 0.23504 0.68188 0.66507 0.0
H63 H 0.21036 0.81574 0.81129 0.0
H64 H 0.18158 0.79206 0.77271 0.0
H65 H 0.26335 0.77879 0.7354 0.0
H66 H 0.29162 0.80071 0.7745 0.0
H67 H 0.17636 0.80374 0.72527 0.0
H68 H 0.22852 0.7397 0.71926 0.0
H69 H 0.16974 0.75077 0.65363 0.0
H70 H 0.20378 0.68845 0.69594 0.0
H71 H 0.22889 0.75531 0.63676 0.0
H72 H 0.26302 0.72948 0.61512 0.0
H73 H 0.12454 0.79827 0.71452 0.0
H74 H 0.16626 0.79499 0.63539 0.0
H75 H 0.23662 0.66154 0.67349 0.0
H76 H 0.09401 0.82948 0.69559 0.0
H77 H 0.13493 0.82528 0.61644 0.0
C78 C 0.74229 0.42532 0.89085 0.0
C79 C 0.76599 0.41127 0.89527 0.0
C80 C 0.71667 0.41231 0.87599 0.0
C81 C 0.71379 0.38469 0.8657 0.0
C82 C 0.73754 0.37076 0.87002 0.0
C83 C 0.76333 0.38393 0.88434 0.0
C84 C 0.68553 0.36952 0.85208 0.0
C85 C 0.67294 0.38126 0.82964 0.0
C86 C 0.64668 0.36638 0.8164 0.0
C87 C 0.6329 0.33924 0.82678 0.0
C88 C 0.64514 0.3271 0.84943 0.0
C89 C 0.67139 0.34268 0.86166 0.0
C90 C 0.63123 0.29833 0.86099 0.0
C91 C 0.60012 0.28952 0.86489 0.0
C92 C 0.64954 0.2801 0.87024 0.0
C93 C 0.63748 0.25466 0.88377 0.0
C94 C 0.60648 0.24611 0.88849 0.0
C95 C 0.63441 0.37913 0.79152 0.0
C96 C 0.63624 0.40857 0.78939 0.0
C97 C 0.62163 0.36231 0.76918 0.0
C98 C 0.61159 0.37446 0.74559 0.0
C99 C 0.61384 0.40397 0.74331 0.0
C100 C 0.62621 0.4207 0.76584 0.0
C101 C 0.58796 0.26389 0.87847 0.0
H102 H 0.74364 0.44646 0.89879 0.0
H103 H 0.69872 0.42355 0.87321 0.0
H104 H 0.73608 0.34948 0.86238 0.0
H105 H 0.78097 0.37239 0.88743 0.0
H106 H 0.68434 0.40167 0.82195 0.0
H107 H 0.68072 0.33412 0.87936 0.0
H108 H 0.61273 0.3275 0.81721 0.0
H109 H 0.58519 0.30287 0.85823 0.0
H110 H 0.67355 0.2857 0.86736 0.0
H111 H 0.65281 0.24209 0.89123 0.0
H112 H 0.64526 0.42244 0.80612 0.0
H113 H 0.62007 0.33967 0.76954 0.0
H114 H 0.56395 0.2581 0.88116 0.0
H115 H 0.62789 0.44335 0.76552 0.0
H116 H 0.60266 0.36063 0.72881 0.0
C117 C 0.87581 0.62996 0.24269 0.0
C118 C 0.90668 0.63392 0.23703 0.0
C119 C 0.86526 0.6414 0.26639 0.0
C120 C 0.88509 0.65739 0.28547 0.0
C121 C 0.91596 0.66171 0.27966 0.0
C122 C 0.92655 0.65012 0.25599 0.0
C123 C 0.87353 0.66881 0.31142 0.0
C124 C 0.84849 0.65265 0.32543 0.0
C125 C 0.83731 0.66261 0.34967 0.0
C126 C 0.85114 0.68946 0.35959 0.0
C127 C 0.87579 0.70647 0.34625 0.0
C128 C 0.88717 0.69572 0.32235 0.0
C129 C 0.88877 0.73543 0.35782 0.0
C130 C 0.86965 0.75249 0.36792 0.0
C131 C 0.91983 0.74551 0.36089 0.0
C132 C 0.93121 0.77121 0.37467 0.0
C133 C 0.91189 0.78766 0.38577 0.0
C134 C 0.81112 0.64543 0.36502 0.0
C135 C 0.78517 0.6312 0.35136 0.0
C136 C 0.8113 0.6445 0.39386 0.0
C137 C 0.7861 0.63071 0.40861 0.0
C138 C 0.75969 0.61734 0.3951 0.0
C139 C 0.75981 0.61741 0.36618 0.0
C140 C 0.88094 0.77802 0.38161 0.0
H141 H 0.8596 0.6175 0.22902 0.0
H142 H 0.84133 0.63776 0.26965 0.0
H143 H 0.93213 0.67364 0.29372 0.0
H144 H 0.95044 0.6541 0.25247 0.0
H145 H 0.83817 0.63182 0.31795 0.0
H146 H 0.90595 0.7087 0.31179 0.0
H147 H 0.84247 0.69731 0.37804 0.0
H148 H 0.84565 0.74594 0.36549 0.0
H149 H 0.93532 0.73301 0.35357 0.0
H150 H 0.95517 0.77769 0.37741 0.0
H151 H 0.78405 0.63157 0.32922 0.0
H152 H 0.83101 0.65464 0.40517 0.0
H153 H 0.86522 0.79022 0.38901 0.0
H154 H 0.73997 0.60759 0.3549 0.0
H155 H 0.78741 0.63059 0.43074 0.0
C156 C 0.73029 0.77949 0.73818 0.0
C157 C 0.73013 0.80687 0.72883 0.0
C158 C 0.71879 0.77075 0.76406 0.0
C159 C 0.70762 0.78949 0.78134 0.0
C160 C 0.70694 0.8167 0.77146 0.0
C161 C 0.71778 0.82515 0.74544 0.0
C162 C 0.69878 0.78172 0.81019 0.0
C163 C 0.71463 0.76527 0.82569 0.0
C164 C 0.70869 0.76033 0.85373 0.0
C165 C 0.68691 0.7726 0.86648 0.0
C166 C 0.67113 0.78947 0.8514 0.0
C167 C 0.67646 0.79301 0.82317 0.0
C168 C 0.65133 0.80579 0.86537 0.0
C169 C 0.63112 0.79353 0.88582 0.0
C170 C 0.65353 0.83443 0.8588 0.0
C171 C 0.63611 0.85053 0.87243 0.0
C172 C 0.61596 0.83843 0.89299 0.0
C173 C 0.72714 0.74421 0.86981 0.0
C174 C 0.7352 0.72013 0.85851 0.0
C175 C 0.73858 0.75383 0.89563 0.0
C176 C 0.75856 0.74034 0.9093 0.0
C177 C 0.76764 0.71699 0.89741 0.0
C178 C 0.75527 0.70675 0.87208 0.0
C179 C 0.61354 0.80968 0.89947 0.0
H180 H 0.73971 0.76505 0.72564 0.0
H181 H 0.71921 0.74948 0.77068 0.0
H182 H 0.69931 0.83208 0.78422 0.0
H183 H 0.71792 0.84657 0.73886 0.0
H184 H 0.73287 0.75754 0.81633 0.0
H185 H 0.66361 0.80532 0.81145 0.0
H186 H 0.68293 0.76982 0.88828 0.0
H187 H 0.62884 0.77146 0.8912 0.0
H188 H 0.66939 0.8447 0.84359 0.0
H189 H 0.63913 0.87274 0.86736 0.0
H190 H 0.7265 0.71197 0.83881 0.0
H191 H 0.73302 0.77245 0.90483 0.0
H192 H 0.59804 0.79966 0.91506 0.0
H193 H 0.76194 0.68903 0.86213 0.0
H194 H 0.7673 0.74852 0.92897 0.0
C195 C 0.80798 0.21846 0.23607 0.0
C196 C 0.79424 0.23677 0.22084 0.0
C197 C 0.82018 0.22648 0.26172 0.0
C198 C 0.81951 0.25331 0.27262 0.0
C199 C 0.80714 0.27222 0.25659 0.0
C200 C 0.79428 0.26389 0.23108 0.0
C201 C 0.82913 0.26017 0.30148 0.0
C202 C 0.85183 0.2485 0.31327 0.0
C203 C 0.85702 0.2499 0.34163 0.0
C204 C 0.84109 0.26556 0.35806 0.0
C205 C 0.81919 0.27857 0.3465 0.0
C206 C 0.8132 0.27545 0.31829 0.0
C207 C 0.80042 0.29322 0.36393 0.0
C208 C 0.78911 0.2817 0.38918 0.0
C209 C 0.79184 0.31777 0.35441 0.0
C210 C 0.77143 0.32978 0.36912 0.0
C211 C 0.75921 0.31768 0.39387 0.0
C212 C 0.87606 0.2319 0.35422 0.0
C213 C 0.87353 0.20393 0.34505 0.0
C214 C 0.89533 0.24156 0.37623 0.0
C215 C 0.91121 0.22337 0.38913 0.0
C216 C 0.90782 0.19517 0.3804 0.0
C217 C 0.88924 0.18585 0.35792 0.0
C218 C 0.7688 0.29383 0.40401 0.0
H219 H 0.80772 0.19722 0.22886 0.0
H220 H 0.8287 0.21094 0.27351 0.0
H221 H 0.80666 0.29321 0.26402 0.0
H222 H 0.78382 0.27837 0.21962 0.0
H223 H 0.86476 0.23715 0.30052 0.0
H224 H 0.79472 0.28346 0.3098 0.0
H225 H 0.84489 0.26669 0.37997 0.0
H226 H 0.79502 0.26265 0.39703 0.0
H227 H 0.8004 0.32737 0.3352 0.0
H228 H 0.7644 0.34796 0.3605 0.0
H229 H 0.85853 0.19559 0.32846 0.0
H230 H 0.89785 0.26302 0.38366 0.0
H231 H 0.76021 0.2842 0.4232 0.0
H232 H 0.8864 0.16431 0.35057 0.0
H233 H 0.92526 0.23106 0.40653 0.0
C234 C 0.25827 0.61707 0.18622 0.0
C235 C 0.25818 0.61685 0.15729 0.0
C236 C 0.28407 0.62979 0.20103 0.0
C237 C 0.31056 0.64277 0.18739 0.0
C238 C 0.3107 0.64168 0.15854 0.0
C239 C 0.28505 0.62897 0.14379 0.0
C240 C 0.33743 0.65884 0.20273 0.0
C241 C 0.34763 0.64853 0.22729 0.0
C242 C 0.37319 0.66374 0.24136 0.0
C243 C 0.38811 0.69018 0.23035 0.0
C244 C 0.3783 0.70083 0.20575 0.0
C245 C 0.35307 0.68492 0.19238 0.0
C246 C 0.39388 0.72843 0.19319 0.0
C247 C 0.39853 0.75399 0.20791 0.0
C248 C 0.40165 0.72966 0.16525 0.0
C249 C 0.41296 0.75557 0.15221 0.0
C250 C 0.41647 0.78146 0.16646 0.0
C251 C 0.3845 0.65159 0.26705 0.0
C252 C 0.36455 0.63582 0.28617 0.0
C253 C 0.41538 0.65493 0.27247 0.0
C254 C 0.42585 0.64273 0.2958 0.0
C255 C 0.40589 0.62677 0.31482 0.0
C256 C 0.37501 0.62372 0.30956 0.0
C257 C 0.40947 0.7801 0.19474 0.0
H258 H 0.23811 0.60819 0.19749 0.0
H259 H 0.28293 0.63032 0.22317 0.0
H260 H 0.33075 0.65083 0.1472 0.0
H261 H 0.28638 0.62867 0.12166 0.0
H262 H 0.33618 0.62811 0.23491 0.0
H263 H 0.34512 0.69336 0.1739 0.0
H264 H 0.40745 0.70244 0.24075 0.0
H265 H 0.39249 0.75391 0.22937 0.0
H266 H 0.39863 0.7104 0.15328 0.0
H267 H 0.41883 0.75514 0.13077 0.0
H268 H 0.34063 0.63286 0.28321 0.0
H269 H 0.43167 0.66658 0.25835 0.0
H270 H 0.41143 0.79926 0.20666 0.0
H271 H 0.3587 0.61148 0.32329 0.0
H272 H 0.44976 0.64606 0.29899 0.0
C273 C 0.13589 0.25503 0.67669 0.0
C274 C 0.10572 0.24842 0.66832 0.0
C275 C 0.14797 0.28064 0.68988 0.0
C276 C 0.13037 0.30065 0.69553 0.0
C277 C 0.09985 0.29367 0.68846 0.0
C278 C 0.08771 0.26797 0.67497 0.0
C279 C 0.14499 0.32945 0.70619 0.0
C280 C 0.17131 0.3439 0.69337 0.0
C281 C 0.18735 0.37019 0.7029 0.0
C282 C 0.17595 0.38252 0.7258 0.0
C283 C 0.14919 0.36889 0.73922 0.0
C284 C 0.13381 0.3423 0.72888 0.0
C285 C 0.13782 0.38228 0.76418 0.0
C286 C 0.15779 0.39785 0.78342 0.0
C287 C 0.10695 0.37986 0.76911 0.0
C288 C 0.09653 0.39262 0.79216 0.0
C289 C 0.11653 0.40832 0.81132 0.0
C290 C 0.21595 0.38419 0.68855 0.0
C291 C 0.23489 0.36768 0.67695 0.0
C292 C 0.22414 0.41376 0.68514 0.0
C293 C 0.24984 0.42619 0.67004 0.0
C294 C 0.26792 0.40942 0.65762 0.0
C295 C 0.26016 0.38002 0.66157 0.0
C296 C 0.14739 0.41058 0.80645 0.0
H297 H 0.15047 0.24045 0.67289 0.0
H298 H 0.17146 0.28504 0.69533 0.0
H299 H 0.08566 0.3086 0.69228 0.0
H300 H 0.06444 0.26396 0.66889 0.0
H301 H 0.17908 0.33455 0.67532 0.0
H302 H 0.11375 0.33107 0.73902 0.0
H303 H 0.18801 0.40278 0.73325 0.0
H304 H 0.18168 0.39989 0.78102 0.0
H305 H 0.09066 0.3685 0.75482 0.0
H306 H 0.07264 0.39054 0.79462 0.0
H307 H 0.23022 0.34497 0.67969 0.0
H308 H 0.21025 0.42733 0.69346 0.0
H309 H 0.16373 0.42184 0.82074 0.0
H310 H 0.27385 0.36645 0.65287 0.0
H311 H 0.25508 0.44892 0.66741 0.0
Dy312 Dy 0.0407 0.02192 0.51313 0.0
Dy313 Dy 0.97611 1.01237 0.54456 0.0
C314 C 0.02952 0.06618 0.55855 0.0
O315 O 0.04469 1.00096 0.55335 0.0
O316 O 0.99663 0.97661 0.55724 0.0
O317 O 0.08877 0.03018 0.51657 0.0
O318 O 0.06761 0.02008 0.47707 0.0
O319 O 0.9677 0.98231 0.50864 0.0
O320 O 0.01606 0.97859 0.50007 0.0
O321 O 0.97706 0.04956 0.5178 0.0
O322 O 0.01319 0.04439 0.48657 0.0
O323 O 0.92829 1.00884 0.54458 0.0
O324 O 0.95206 1.00729 0.58287 0.0
C325 C 0.02501 0.9796 0.56308 0.0
O326 O 0.04188 0.06314 0.53469 0.0
O327 O 1.00794 0.04612 0.56832 0.0
C328 C 0.11583 0.04925 0.47766 0.0
C329 C 0.16089 0.09015 0.45295 0.0
C330 C 0.13443 0.09746 0.46249 0.0
C331 C 0.11201 0.07711 0.47477 0.0
C332 C 0.14223 0.04196 0.46852 0.0
C333 C 0.1646 0.06221 0.45626 0.0
C334 C 0.09277 0.02748 0.49037 0.0
C335 C 0.98706 0.96931 0.49686 0.0
C336 C 0.99073 0.05571 0.49429 0.0
C337 C 0.90272 0.98111 0.58044 0.0
C338 C 0.85877 0.93614 0.60079 0.0
C339 C 0.87623 0.93211 0.57795 0.0
C340 C 0.89813 0.95444 0.56788 0.0
C341 C 0.88534 0.98524 0.60305 0.0
C342 C 0.86364 0.96299 0.61319 0.0
C343 C 0.92608 1.0047 0.57099 0.0
H344 H 0.13079 0.11873 0.45995 0.0
H345 H 0.09169 0.08302 0.48183 0.0
H346 H 0.14553 0.02054 0.47082 0.0
H347 H 0.18486 0.05602 0.44947 0.0
H348 H 0.87295 0.91176 0.56784 0.0
H349 H 0.91156 0.95088 0.55044 0.0
H350 H 0.88884 1.00564 0.61312 0.0
H351 H 0.85114 0.96672 0.63118 0.0
Dy352 Dy 0.47641 1.012 1.01437 0.0
Dy353 Dy 0.53846 0.02404 0.05007 0.0
C354 C 0.48609 0.96883 0.06235 0.0
O355 O 0.46674 0.03362 0.05249 0.0
O356 O 0.51409 0.05731 0.06313 0.0
O357 O 0.42843 0.99763 1.01208 0.0
O358 O 0.4535 0.01572 0.97642 0.0
O359 O 0.54782 0.05355 1.0138 0.0
O360 O 0.49968 0.05652 1.00378 0.0
O361 O 0.53971 0.98582 0.02513 0.0
O362 O 0.5081 0.99206 0.99035 0.0
O363 O 0.5863 0.02837 0.0518 0.0
O364 O 0.5612 0.03184 0.08896 0.0
C365 C 0.48497 0.0541 0.06521 0.0
O366 O 0.47429 0.97175 0.03817 0.0
O367 O 0.5075 0.98878 0.07252 0.0
C368 C 0.41056 0.97937 0.96872 0.0
C369 C 0.37638 0.93661 0.93571 0.0
C370 C 0.36756 0.94065 0.96274 0.0
C371 C 0.38443 0.96188 0.97905 0.0
C372 C 0.41943 0.97527 0.94172 0.0
C373 C 0.40254 0.95412 0.92542 0.0
C374 C 0.42769 1.00236 0.98582 0.0
C375 C 0.52868 0.06636 1.00149 0.0
C376 C 0.5289 0.97998 1.00045 0.0
C377 C 0.6105 0.05839 0.08662 0.0
C378 C 0.65505 0.10431 0.1042 0.0
C379 C 0.63663 0.1073 0.08176 0.0
C380 C 0.61446 0.08448 0.07304 0.0
C381 C 0.62863 0.05538 0.10901 0.0
C382 C 0.65065 0.07811 0.11778 0.0
C383 C 0.5876 0.03406 0.07795 0.0
H384 H 0.34764 0.92737 0.97133 0.0
H385 H 0.37691 0.96471 0.99971 0.0
H386 H 0.43924 0.98857 0.93298 0.0
H387 H 0.40964 0.95193 0.9045 0.0
H388 H 0.63953 0.12714 0.07081 0.0
H389 H 0.6005 0.08714 0.05572 0.0
H390 H 0.62567 0.03542 0.11982 0.0
H391 H 0.66394 0.07524 0.1355 0.0
Dy392 Dy 0.51179 0.48308 0.50887 0.0
Dy393 Dy 0.51504 0.5425 0.54165 0.0
C394 C 0.54112 0.49203 0.57002 0.0
O395 O 0.46501 0.47869 0.52562 0.0
O396 O 0.47389 0.51388 0.55806 0.0
O397 O 0.50357 0.43743 0.50745 0.0
O398 O 0.5172 0.46179 0.47087 0.0
O399 O 0.48289 0.5441 0.50685 0.0
O400 O 0.49784 0.51257 0.47796 0.0
O401 O 0.55412 0.55106 0.51282 0.0
O402 O 0.55989 0.50583 0.50518 0.0
O403 O 0.51904 0.58781 0.54037 0.0
O404 O 0.51455 0.56602 0.5792 0.0
C405 C 0.45664 0.49138 0.54728 0.0
O406 O 0.52709 0.47453 0.55132 0.0
O407 O 0.54361 0.51961 0.56754 0.0
C408 C 0.53672 0.42126 0.47729 0.0
C409 C 0.58491 0.39526 0.46482 0.0
C410 C 0.58473 0.41059 0.48932 0.0
C411 C 0.56094 0.4236 0.49542 0.0
C412 C 0.53644 0.40557 0.45315 0.0
C413 C 0.56032 0.39269 0.44694 0.0
C414 C 0.51299 0.43699 0.4823 0.0
C415 C 0.48427 0.53368 0.48208 0.0
C416 C 0.56976 0.53332 0.50314 0.0
C417 C 0.48684 0.60095 0.57274 0.0
C418 C 0.43534 0.62156 0.58548 0.0
C419 C 0.43281 0.5947 0.5737 0.0
C420 C 0.45832 0.58459 0.56723 0.0
C421 C 0.48962 0.62795 0.58414 0.0
C422 C 0.46396 0.6383 0.59036 0.0
C423 C 0.51321 0.58933 0.56637 0.0
H424 H 0.60306 0.4127 0.50373 0.0
H425 H 0.5617 0.43589 0.51407 0.0
H426 H 0.51811 0.40387 0.43877 0.0
H427 H 0.5599 0.38148 0.4277 0.0
H428 H 0.41105 0.58155 0.56938 0.0
H429 H 0.45581 0.56386 0.55802 0.0
H430 H 0.51151 0.64088 0.58836 0.0
H431 H 0.46644 0.65905 0.59953 0.0
Dy432 Dy 0.01362 0.54901 1.00848 0.0
Dy433 Dy 1.00793 0.48983 0.04139 0.0
C434 C 0.98312 0.54171 0.06823 0.0
O435 O 0.05268 0.55705 0.03743 0.0
O436 O 0.05621 0.51146 0.04668 0.0
O437 O 0.02105 0.59459 1.00832 0.0
O438 O 0.01139 0.57137 0.97043 0.0
O439 O 0.02258 0.48127 0.99864 0.0
O440 O 0.04373 0.52607 0.98459 0.0
O441 O 0.96121 0.48812 0.02575 0.0
O442 O 0.97401 0.51925 0.99037 0.0
O443 O 1.00095 0.44421 0.04106 0.0
O444 O 1.00886 0.46698 0.07924 0.0
C445 C 0.06716 0.53883 0.04808 0.0
O446 O 0.98172 0.55191 0.04335 0.0
O447 O 0.99615 0.52027 0.0724 0.0
C448 C 0.98992 0.61101 0.97626 0.0
C449 C 0.94169 0.63609 0.96195 0.0
C450 C 0.94338 0.62485 0.98829 0.0
C451 C 0.96718 0.61224 0.99533 0.0
C452 C 0.98863 0.62276 0.95018 0.0
C453 C 0.96467 0.63514 0.94303 0.0
C454 C 0.01371 0.59568 0.98262 0.0
C455 C 0.03924 0.49845 0.9812 0.0
C456 C 0.95483 0.49871 1.00221 0.0
C457 C 0.03173 0.42853 0.07339 0.0
C458 C 0.07985 0.40394 0.08908 0.0
C459 C 0.0848 0.42851 0.07289 0.0
C460 C 0.06095 0.44059 0.06504 0.0
C461 C 0.02642 0.4037 0.08895 0.0
C462 C 0.05029 0.3914 0.09666 0.0
C463 C 1.0073 0.44284 0.06695 0.0
H464 H 0.92582 0.625 1.00316 0.0
H465 H 0.96743 0.60294 1.01549 0.0
H466 H 1.00585 0.62184 0.93514 0.0
H467 H 0.96403 0.64386 0.92266 0.0
H468 H 0.10722 0.43901 0.06701 0.0
H469 H 0.06543 0.45974 0.05293 0.0
H470 H 1.00394 0.39409 0.09548 0.0
H471 H 0.04562 0.37222 0.10875 0.0
H472 H 0.24984 0.23811 0.36589 0.0
H473 H 0.30553 0.1781 0.34912 0.0
H474 H 0.22156 0.20568 0.39916 0.0
H475 H 0.27811 0.14615 0.38333 0.0
H476 H 0.19162 0.08241 0.40671 0.0
H477 H 0.22822 0.11713 0.38204 0.0
H478 H 0.21953 0.1805 0.4422 0.0
H479 H 0.18256 0.14556 0.46692 0.0
C480 C 0.25647 0.21825 0.36979 0.0
C481 C 0.2796 0.21047 0.35456 0.0
C482 C 0.24044 0.19975 0.38905 0.0
C483 C 0.24728 0.17312 0.39358 0.0
C484 C 0.27192 0.1663 0.3799 0.0
C485 C 0.28791 0.18477 0.36056 0.0
C486 C 0.19786 0.10362 0.41495 0.0
C487 C 0.18416 0.11125 0.43875 0.0
C488 C 0.21897 0.12353 0.40086 0.0
C489 C 0.22695 0.15158 0.41023 0.0
C490 C 0.21366 0.15912 0.43432 0.0
C491 C 0.19245 0.13916 0.44843 0.0
H492 H 0.30639 0.8481 0.7907 0.0
H493 H 0.24079 0.81031 0.85092 0.0
H494 H 0.33594 0.87575 0.82641 0.0
H495 H 0.27037 0.83859 0.88678 0.0
H496 H 0.31533 0.92299 0.93144 0.0
H497 H 0.2854 0.89004 0.89936 0.0
H498 H 0.36587 0.86855 0.86729 0.0
H499 H 0.3958 0.90118 0.89955 0.0
C500 C 0.29847 0.84536 0.81163 0.0
C501 C 0.27133 0.82679 0.81798 0.0
C502 C 0.31541 0.86127 0.83209 0.0
C503 C 0.30555 0.85916 0.85938 0.0
C504 C 0.27839 0.84072 0.86584 0.0
C505 C 0.26146 0.82461 0.84533 0.0
C506 C 0.32659 0.91083 0.91792 0.0
C507 C 0.35797 0.91489 0.91787 0.0
C508 C 0.30944 0.89198 0.89955 0.0
C509 C 0.32335 0.87693 0.88071 0.0
C510 C 0.35461 0.88025 0.8813 0.0
C511 C 0.37173 0.89897 0.89972 0.0
H512 H 0.63784 0.4557 0.71911 0.0
H513 H 0.56622 0.38269 0.70874 0.0
H514 H 0.62142 0.4769 0.67816 0.0
H515 H 0.5498 0.40388 0.66782 0.0
H516 H 0.54211 0.43635 0.58088 0.0
H517 H 0.55981 0.41584 0.62156 0.0
H518 H 0.58518 0.49893 0.65755 0.0
H519 H 0.56796 0.51954 0.61638 0.0
C520 C 0.61838 0.44415 0.70837 0.0
C521 C 0.60355 0.41721 0.71773 0.0
C522 C 0.60887 0.45644 0.68463 0.0
C523 C 0.58412 0.44235 0.66915 0.0
C524 C 0.56927 0.41544 0.67855 0.0
C525 C 0.57878 0.40315 0.70227 0.0
C526 C 0.55156 0.45041 0.59736 0.0
C527 C 0.55346 0.47981 0.59497 0.0
C528 C 0.56158 0.4385 0.62102 0.0
C529 C 0.57393 0.45544 0.64343 0.0
C530 C 0.5762 0.48494 0.64089 0.0
C531 C 0.56615 0.49688 0.61714 0.0
H532 H 0.88188 0.62673 0.18496 0.0
H533 H 0.95733 0.61137 0.23118 0.0
H534 H 0.89921 0.60465 0.14484 0.0
H535 H 0.97519 0.59018 0.19084 0.0
H536 H 0.98429 0.52741 0.12274 0.0
H537 H 0.96602 0.54944 0.1623 0.0
H538 H 0.93595 0.60903 0.10905 0.0
H539 H 0.95394 0.5866 0.06927 0.0
C540 C 0.90217 0.61866 0.18673 0.0
C541 C 0.91797 0.62097 0.21177 0.0
C542 C 0.91238 0.60619 0.16342 0.0
C543 C 0.93874 0.59534 0.16419 0.0
C544 C 0.95462 0.5978 0.18919 0.0
C545 C 0.94449 0.6104 0.21245 0.0
C546 C 0.97369 0.54515 0.11929 0.0
C547 C 0.9707 0.55502 0.09246 0.0
C548 C 0.96336 0.55805 0.14221 0.0
C549 C 0.94949 0.58135 0.13931 0.0
C550 C 0.94616 0.59104 0.11241 0.0
C551 C 0.95665 0.57818 0.08943 0.0
H552 H 0.36723 0.14263 0.15336 0.0
H553 H 0.44958 0.20476 0.14573 0.0
H554 H 0.39047 0.10752 0.13136 0.0
H555 H 0.47279 0.16993 0.12263 0.0
H556 H 0.51303 0.09337 0.10239 0.0
H557 H 0.49123 0.12764 0.12782 0.0
H558 H 0.40637 0.09645 0.0878 0.0
H559 H 0.42771 0.06171 0.06349 0.0
C560 C 0.39027 0.1488 0.14666 0.0
C561 C 0.40656 0.17641 0.151 0.0
C562 C 0.40361 0.12873 0.13397 0.0
C563 C 0.43347 0.1359 0.12491 0.0
C564 C 0.44989 0.16353 0.12961 0.0
C565 C 0.4366 0.18353 0.14269 0.0
C566 C 0.48968 0.09379 0.09921 0.0
C567 C 0.47206 0.0747 0.08108 0.0
C568 C 0.47721 0.11355 0.11363 0.0
C569 C 0.44696 0.1148 0.10998 0.0
C570 C 0.42952 0.09575 0.09167 0.0
C571 C 0.44184 0.07585 0.07757 0.0
H572 H 0.07958 0.8263 0.60747 0.0
H573 H 0.10829 0.88041 0.67697 0.0
H574 H 0.0559 0.86265 0.58767 0.0
H575 H 0.0847 0.91676 0.65714 0.0
H576 H 0.07861 0.9842 0.58909 0.0
H577 H 0.09694 0.94722 0.61359 0.0
H578 H 0.01325 0.8889 0.59844 0.0
H579 H 0.99468 0.92593 0.57409 0.0
C580 C 0.08057 0.84587 0.61857 0.0
C581 C 0.09572 0.85061 0.6437 0.0
C582 C 0.0669 0.86655 0.60737 0.0
C583 C 0.06857 0.89246 0.62091 0.0
C584 C 0.08324 0.89698 0.64628 0.0
C585 C 0.09651 0.87616 0.65767 0.0
C586 C 0.06401 0.96357 0.5912 0.0
C587 C 0.03525 0.95793 0.57963 0.0
C588 C 0.07445 0.94249 0.60534 0.0
C589 C 0.05648 0.91526 0.60782 0.0
C590 C 0.02755 0.90971 0.59666 0.0
C591 C 0.01692 0.93093 0.58287 0.0
H592 H 0.76905 0.43889 0.9449 0.0
H593 H 0.82492 0.41406 0.88221 0.0
H594 H 0.8138 0.45979 0.97151 0.0
H595 H 0.86952 0.43515 0.90858 0.0
H596 H 0.94153 0.50512 0.94827 0.0
H597 H 0.8961 0.4844 0.92327 0.0
H598 H 0.85721 0.44386 0.99725 0.0
H599 H 0.90318 0.46435 1.02245 0.0
C600 C 0.79086 0.43805 0.9367 0.0
C601 C 0.7933 0.42479 0.91133 0.0
C602 C 0.81652 0.44982 0.95208 0.0
C603 C 0.84535 0.4492 0.94225 0.0
C604 C 0.84774 0.4362 0.91675 0.0
C605 C 0.82213 0.42396 0.90167 0.0
C606 C 0.92335 0.49188 0.95938 0.0
C607 C 0.92622 0.48649 0.98752 0.0
C608 C 0.89727 0.47983 0.94491 0.0
C609 C 0.87292 0.46235 0.95814 0.0
C610 C 0.87545 0.45733 0.98641 0.0
C611 C 0.90187 0.469 1.00084 0.0
H612 H 0.7173 0.56871 0.38388 0.0
H613 H 0.739 0.63612 0.44318 0.0
H614 H 0.67237 0.54823 0.40999 0.0
H615 H 0.69504 0.61509 0.46975 0.0
H616 H 0.59717 0.58887 0.49541 0.0
H617 H 0.64222 0.60817 0.46953 0.0
H618 H 0.65351 0.52364 0.45144 0.0
H619 H 0.60779 0.50421 0.477 0.0
C620 C 0.71261 0.57922 0.40245 0.0
C621 C 0.73212 0.60419 0.41124 0.0
C622 C 0.68691 0.56722 0.41769 0.0
C623 C 0.67976 0.57987 0.44216 0.0
C624 C 0.69935 0.60477 0.45093 0.0
C625 C 0.72497 0.61671 0.43576 0.0
C626 C 0.60925 0.57428 0.4861 0.0
C627 C 0.59863 0.54487 0.48853 0.0
C628 C 0.63536 0.58542 0.47126 0.0
C629 C 0.65188 0.56761 0.45825 0.0
C630 C 0.64137 0.53815 0.4608 0.0
C631 C 0.61519 0.52696 0.47573 0.0
H632 H 0.21988 0.36527 0.19188 0.0
H633 H 0.23453 0.32635 0.11496 0.0
H634 H 0.1796 0.38416 0.17137 0.0
H635 H 0.19342 0.34444 0.09442 0.0
H636 H 0.13142 0.40037 0.06162 0.0
H637 H 0.17524 0.38526 0.07975 0.0
H638 H 0.12971 0.36519 0.15708 0.0
H639 H 0.08681 0.38186 0.1396 0.0
C640 C 0.2145 0.36095 0.17048 0.0
C641 C 0.23008 0.34428 0.15499 0.0
C642 C 0.19128 0.37152 0.15877 0.0
C643 C 0.18285 0.36534 0.13139 0.0
C644 C 0.19941 0.34971 0.11552 0.0
C645 C 0.22293 0.33936 0.12722 0.0
C646 C 0.13088 0.39295 0.08257 0.0
C647 C 0.1056 0.39248 0.09918 0.0
C648 C 0.1559 0.38401 0.09287 0.0
C649 C 0.15615 0.37428 0.11996 0.0
C650 C 0.13056 0.37312 0.13629 0.0
C651 C 0.10569 0.38223 0.12609 0.0
H652 H 0.55816 0.23481 0.92416 0.0
H653 H 0.62622 0.19568 0.88907 0.0
H654 H 0.53951 0.19215 0.95088 0.0
H655 H 0.60787 0.15336 0.91611 0.0
H656 H 0.587 0.09228 0.98933 0.0
H657 H 0.605 0.13493 0.96228 0.0
H658 H 0.51392 0.14309 0.94856 0.0
H659 H 0.49596 0.10064 0.97579 0.0
C660 C 0.56905 0.21712 0.9218 0.0
C661 C 0.59398 0.21921 0.90426 0.0
C662 C 0.55832 0.1925 0.93731 0.0
C663 C 0.57217 0.16904 0.936 0.0
C664 C 0.59686 0.171 0.91826 0.0
C665 C 0.60746 0.19551 0.90265 0.0
C666 C 0.57074 0.10311 0.98057 0.0
C667 C 0.53991 0.0927 0.98489 0.0
C668 C 0.5811 0.12763 0.96483 0.0
C669 C 0.56104 0.14276 0.95298 0.0
C670 C 0.53022 0.13242 0.95748 0.0
C671 C 0.51985 0.10782 0.97306 0.0
H672 H 0.9632 0.82893 0.37744 0.0
H673 H 0.8872 0.80727 0.43155 0.0
H674 H 0.98102 0.87233 0.40342 0.0
H675 H 0.90502 0.85037 0.45756 0.0
H676 H 0.92888 0.94282 0.48484 0.0
H677 H 0.91131 0.90001 0.45798 0.0
H678 H 1.0027 0.89236 0.44478 0.0
H679 H 0.0202 0.93552 0.47098 0.0
C680 C 0.95035 0.8332 0.39499 0.0
C681 C 0.92351 0.81434 0.40205 0.0
C682 C 0.96063 0.85825 0.41003 0.0
C683 C 0.94454 0.86535 0.43277 0.0
C684 C 0.91787 0.8463 0.43995 0.0
C685 C 0.90759 0.82134 0.4249 0.0
C686 C 0.94529 0.9321 0.47616 0.0
C687 C 0.97606 0.94295 0.48021 0.0
C688 C 0.93516 0.90725 0.46081 0.0
C689 C 0.95543 0.89227 0.44898 0.0
C690 C 0.98622 0.90324 0.45303 0.0
C691 C 0.99633 0.92808 0.46833 0.0
H692 H 0.27456 0.69174 0.5902 0.0
H693 H 0.28845 0.66614 0.67329 0.0
H694 H 0.31856 0.67429 0.57554 0.0
H695 H 0.33132 0.64778 0.65826 0.0
H696 H 0.38758 0.59288 0.61413 0.0
H697 H 0.34199 0.60879 0.6265 0.0
H698 H 0.37573 0.68861 0.58639 0.0
H699 H 0.42152 0.67265 0.57396 0.0
C700 C 0.28678 0.6823 0.60531 0.0
C701 C 0.27777 0.68034 0.63296 0.0
C702 C 0.31192 0.67229 0.59687 0.0
C703 C 0.32825 0.65975 0.6158 0.0
C704 C 0.31888 0.65708 0.6432 0.0
C705 C 0.29409 0.66742 0.65172 0.0
C706 C 0.38518 0.61378 0.60786 0.0
C707 C 0.40801 0.63158 0.59313 0.0
C708 C 0.3592 0.62289 0.61502 0.0
C709 C 0.35539 0.64985 0.60731 0.0
C710 C 0.37807 0.66761 0.59234 0.0
C711 C 0.4043 0.65862 0.58549 0.0
H712 H 0.70761 0.83243 0.68636 0.0
H713 H 0.78736 0.80667 0.71424 0.0
H714 H 0.73572 0.85848 0.64861 0.0
H715 H 0.81596 0.83372 0.67752 0.0
H716 H 0.86307 0.88071 0.60702 0.0
H717 H 0.82859 0.84346 0.63122 0.0
H718 H 0.77026 0.90153 0.64688 0.0
H719 H 0.80353 0.93786 0.6212 0.0
C720 C 0.73109 0.83204 0.68407 0.0
C721 C 0.74543 0.81777 0.70318 0.0
C722 C 0.74729 0.84711 0.66263 0.0
C723 C 0.7783 0.84873 0.66026 0.0
C724 C 0.79211 0.8328 0.67842 0.0
C725 C 0.77577 0.81733 0.69957 0.0
C726 C 0.84245 0.88524 0.61497 0.0
C727 C 0.83629 0.91242 0.61253 0.0
C728 C 0.82283 0.86397 0.62914 0.0
C729 C 0.79674 0.86948 0.64135 0.0
C730 C 0.78989 0.89626 0.63759 0.0
C731 C 0.8093 0.91735 0.62321 0.0
H732 H 0.73618 0.2375 0.20992 0.0
H733 H 0.8132 0.21065 0.17673 0.0
H734 H 0.70451 0.20966 0.17548 0.0
H735 H 0.78184 0.18361 0.14137 0.0
H736 H 0.71141 0.10296 0.12168 0.0
H737 H 0.74696 0.14036 0.14395 0.0
H738 H 0.68811 0.19826 0.12993 0.0
H739 H 0.65157 0.16008 0.10899 0.0
C740 C 0.74648 0.22648 0.19453 0.0
C741 C 0.777 0.22592 0.19608 0.0
C742 C 0.72835 0.21052 0.17471 0.0
C743 C 0.7405 0.19393 0.15589 0.0
C744 C 0.7716 0.19553 0.15599 0.0
C745 C 0.78962 0.21115 0.17606 0.0
C746 C 0.70603 0.12367 0.12331 0.0
C747 C 0.6784 0.12837 0.11404 0.0
C748 C 0.72669 0.14534 0.13569 0.0
C749 C 0.72042 0.17241 0.13889 0.0
C750 C 0.69349 0.17757 0.12816 0.0
C751 C 0.67267 0.15576 0.1159 0.0
H752 H 0.45595 0.60313 0.31963 0.0
H753 H 0.38162 0.61921 0.36713 0.0
H754 H 0.47407 0.58144 0.35947 0.0
H755 H 0.39916 0.59656 0.40673 0.0
H756 H 0.4546 0.57813 0.4814 0.0
H757 H 0.43601 0.60042 0.44196 0.0
H758 H 0.46572 0.541 0.38815 0.0
H759 H 0.4847 0.51912 0.42745 0.0
C760 C 0.44339 0.6022 0.33854 0.0
C761 C 0.41714 0.6132 0.33972 0.0
C762 C 0.45366 0.58929 0.36151 0.0
C763 C 0.43821 0.58689 0.38674 0.0
C764 C 0.41205 0.59805 0.38799 0.0
C765 C 0.4017 0.61085 0.36496 0.0
C766 C 0.45708 0.56968 0.46119 0.0
C767 C 0.47129 0.54664 0.45795 0.0
C768 C 0.44624 0.58247 0.43839 0.0
C769 C 0.44927 0.57282 0.41142 0.0
C770 C 0.46325 0.54959 0.40829 0.0
C771 C 0.47399 0.53677 0.43106 0.0
H772 H 0.06551 0.38949 0.84255 0.0
H773 H 0.14195 0.45879 0.83721 0.0
H774 H 0.04758 0.41155 0.88222 0.0
H775 H 0.1247 0.48024 0.87768 0.0
H776 H 0.07128 0.52576 0.93709 0.0
H777 H 0.08954 0.5048 0.89655 0.0
H778 H 0.05483 0.42146 0.92912 0.0
H779 H 0.03612 0.44234 0.96909 0.0
C780 C 0.0786 0.40947 0.84967 0.0
C781 C 0.10539 0.42208 0.83619 0.0
C782 C 0.06843 0.42207 0.87291 0.0
C783 C 0.08457 0.44787 0.88373 0.0
C784 C 0.11127 0.4606 0.87015 0.0
C785 C 0.12147 0.44797 0.84692 0.0
C786 C 0.06762 0.50296 0.93569 0.0
C787 C 0.05204 0.48594 0.95667 0.0
C788 C 0.07826 0.49081 0.91233 0.0
C789 C 0.07371 0.46117 0.90903 0.0
C790 C 0.05844 0.44426 0.93026 0.0
C791 C 0.04783 0.45637 0.95352 0.0
H792 H 0.589 0.87966 0.87273 0.0
H793 H 0.60422 0.8379 0.94802 0.0
H794 H 0.56645 0.91291 0.89854 0.0
H795 H 0.58024 0.87022 0.97368 0.0
H796 H 0.57557 0.955 1.01246 0.0
H797 H 0.59349 0.91914 0.9864 0.0
H798 H 0.52447 0.91921 0.92595 0.0
H799 H 0.5069 0.95582 0.95178 0.0
C800 C 0.58726 0.87739 0.89478 0.0
C801 C 0.59877 0.85632 0.90833 0.0
C802 C 0.57399 0.89626 0.90954 0.0
C803 C 0.57179 0.89443 0.93822 0.0
C804 C 0.58208 0.87256 0.95165 0.0
C805 C 0.59547 0.85376 0.93689 0.0
C806 C 0.56415 0.94741 0.99361 0.0
C807 C 0.53983 0.95835 0.98418 0.0
C808 C 0.5743 0.92662 0.97877 0.0
C809 C 0.56029 0.9161 0.95418 0.0
C810 C 0.53594 0.92703 0.94469 0.0
C811 C 0.52583 0.94798 0.95952 0.0
H812 H 0.88138 0.14201 0.39618 0.0
H813 H 0.96558 0.20233 0.39926 0.0
H814 H 0.90319 0.10832 0.42198 0.0
H815 H 0.98744 0.16842 0.42565 0.0
H816 H 0.01866 0.08402 0.44931 0.0
H817 H 1.00018 0.11837 0.42054 0.0
H818 H 0.92088 0.10833 0.47072 0.0
H819 H 0.93892 0.07436 0.49915 0.0
C820 C 0.90467 0.14797 0.40216 0.0
C821 C 0.9218 0.17479 0.39566 0.0
C822 C 0.91708 0.12875 0.4171 0.0
C823 C 0.94696 0.13582 0.42587 0.0
C824 C 0.96439 0.16241 0.41897 0.0
C825 C 0.95184 0.18185 0.40414 0.0
C826 C 0.99726 0.08914 0.4541 0.0
C827 C 0.98023 0.07638 0.47646 0.0
C828 C 0.98683 0.1089 0.43777 0.0
C829 C 0.95905 0.11583 0.44336 0.0
C830 C 0.9422 0.10313 0.46574 0.0
C831 C 0.95267 0.08374 0.48211 0.0
H832 H 0.21365 0.56985 0.16865 0.0
H833 H 0.23881 0.63643 0.109 0.0
H834 H 0.16836 0.55097 0.1424 0.0
H835 H 0.19443 0.61696 0.0823 0.0
H836 H 0.09662 0.59393 0.05548 0.0
H837 H 0.14179 0.61198 0.08172 0.0
H838 H 0.14894 0.52658 0.10117 0.0
H839 H 0.10317 0.50847 0.07527 0.0
C840 C 0.20964 0.58053 0.14997 0.0
C841 C 0.23025 0.60478 0.14112 0.0
C842 C 0.18371 0.56944 0.13466 0.0
C843 C 0.17741 0.58229 0.11002 0.0
C844 C 0.19805 0.60651 0.10123 0.0
C845 C 0.22392 0.61754 0.11648 0.0
C846 C 0.10781 0.5789 0.06518 0.0
C847 C 0.09602 0.54964 0.06302 0.0
C848 C 0.13399 0.5893 0.08024 0.0
C849 C 0.1494 0.57088 0.09373 0.0
C850 C 0.13769 0.54157 0.09145 0.0
C851 C 0.11146 0.53113 0.07632 0.0
H852 H 0.284 0.3919 0.60736 0.0
H853 H 0.31246 0.45584 0.66881 0.0
H854 H 0.32746 0.41189 0.57951 0.0
H855 H 0.35685 0.47519 0.6418 0.0
H856 H 0.4239 0.51945 0.58009 0.0
H857 H 0.37803 0.50072 0.60492 0.0
H858 H 0.37791 0.41754 0.57235 0.0
H859 H 0.42303 0.43695 0.54622 0.0
C860 C 0.29976 0.41014 0.61507 0.0
C861 C 0.2946 0.42221 0.64041 0.0
C862 C 0.32498 0.42161 0.5991 0.0
C863 C 0.34629 0.44534 0.60809 0.0
C864 C 0.34099 0.45736 0.63355 0.0
C865 C 0.31546 0.44615 0.64928 0.0
C866 C 0.41395 0.49718 0.57799 0.0
C867 C 0.42731 0.47978 0.56102 0.0
C868 C 0.38759 0.48625 0.59259 0.0
C869 C 0.37387 0.45731 0.59124 0.0
C870 C 0.38715 0.43997 0.57387 0.0
C871 C 0.41327 0.45108 0.55884 0.0
H872 H 0.81826 0.74446 0.9239 0.0
H873 H 0.77085 0.66102 0.9 0.0
H874 H 0.85918 0.72436 0.94142 0.0
H875 H 0.81223 0.64112 0.91696 0.0
H876 H 0.90893 0.62578 0.91505 0.0
H877 H 0.86551 0.64473 0.90177 0.0
H878 H 0.87141 0.69138 0.97772 0.0
H879 H 0.91514 0.67262 0.9909 0.0
C880 C 0.81627 0.72178 0.9228 0.0
C881 C 0.79127 0.70439 0.91038 0.0
C882 C 0.83981 0.71031 0.93277 0.0
C883 C 0.83898 0.68123 0.93033 0.0
C884 C 0.81366 0.66369 0.91869 0.0
C885 C 0.79 0.67512 0.90894 0.0
C886 C 0.90105 0.64022 0.92882 0.0
C887 C 0.91547 0.64784 0.95394 0.0
C888 C 0.87602 0.6508 0.92137 0.0
C889 C 0.86503 0.66943 0.93878 0.0
C890 C 0.87949 0.67715 0.96387 0.0
C891 C 0.90438 0.66631 0.97146 0.0
H892 H 0.40688 0.79474 0.11242 0.0
H893 H 0.44912 0.83263 0.18641 0.0
H894 H 0.42414 0.83868 0.08816 0.0
H895 H 0.46436 0.87746 0.16258 0.0
H896 H 0.51245 0.94898 0.10698 0.0
H897 H 0.49625 0.90469 0.13171 0.0
H898 H 0.41849 0.88374 0.07942 0.0
H899 H 0.4356 0.92736 0.05398 0.0
C900 C 0.4199 0.81233 0.12371 0.0
C901 C 0.42664 0.80944 0.15166 0.0
C902 C 0.42943 0.83805 0.10972 0.0
C903 C 0.44576 0.86228 0.12309 0.0
C904 C 0.45229 0.85951 0.15112 0.0
C905 C 0.44303 0.83362 0.16507 0.0
C906 C 0.49186 0.93494 0.10074 0.0
C907 C 0.47548 0.94197 0.07829 0.0
C908 C 0.48235 0.90939 0.11515 0.0
C909 C 0.45587 0.89001 0.10786 0.0
C910 C 0.43931 0.89739 0.08558 0.0
C911 C 0.44904 0.92275 0.07097 0.0
H912 H 0.04896 0.21372 0.66931 0.0
H913 H 0.13499 0.22209 0.62999 0.0
H914 H 0.03015 0.17085 0.64286 0.0
H915 H 0.11682 0.17866 0.60489 0.0
H916 H 0.06984 0.11419 0.54313 0.0
H917 H 0.08678 0.1577 0.56884 0.0
H918 H 0.03095 0.12248 0.63695 0.0
H919 H 0.01327 0.07921 0.61074 0.0
C920 C 0.06397 0.20655 0.6551 0.0
C921 C 0.09371 0.22172 0.65215 0.0
C922 C 0.05323 0.18156 0.64007 0.0
C923 C 0.07181 0.17083 0.62151 0.0
C924 C 0.10148 0.1861 0.61855 0.0
C925 C 0.11215 0.21104 0.63345 0.0
C926 C 0.06111 0.11563 0.5636 0.0
C927 C 0.04014 0.09288 0.57473 0.0
C928 C 0.07104 0.14071 0.57854 0.0
C929 C 0.06053 0.144 0.6053 0.0
C930 C 0.03943 0.12122 0.61638 0.0
C931 C 0.02938 0.09615 0.60135 0.0
H932 H 0.70911 0.28783 0.41949 0.0
H933 H 0.7549 0.37308 0.40016 0.0
H934 H 0.66829 0.30595 0.43981 0.0
H935 H 0.71323 0.39106 0.41894 0.0
H936 H 0.64438 0.41814 0.473 0.0
H937 H 0.68726 0.39877 0.45953 0.0
H938 H 0.62776 0.32597 0.42474 0.0
H939 H 0.58487 0.34453 0.43968 0.0
C940 C 0.71065 0.31047 0.41979 0.0
C941 C 0.73533 0.32897 0.40807 0.0
C942 C 0.68698 0.32084 0.43109 0.0
C943 C 0.68726 0.34996 0.4308 0.0
C944 C 0.71231 0.36853 0.41977 0.0
C945 C 0.73608 0.35817 0.40864 0.0
C946 C 0.64039 0.39773 0.46297 0.0
C947 C 0.61109 0.38292 0.45742 0.0
C948 C 0.66505 0.38679 0.4549 0.0
C949 C 0.66105 0.36085 0.44091 0.0
C950 C 0.63174 0.34584 0.43575 0.0
C951 C 0.60709 0.35669 0.44398 0.0
loop_
_geom_bond_atom_site_label_1
_geom_bond_atom_site_label_2
_geom_bond_distance
_geom_bond_site_symmetry_2
_ccdc_geom_bond_type
C0 C1 1.386 . S
C0 C2 1.397 . S
C0 H24 0.931 . S
C1 C0 1.386 . S
C1 C5 1.397 . S
C2 C0 1.397 . S
C2 C3 1.384 . S
C2 H25 0.930 . S
C3 C2 1.384 . S
C3 C4 1.377 . S
C3 C6 1.481 . S
C4 C3 1.377 . S
C4 C5 1.389 . S
C4 H26 0.929 . S
C5 C1 1.397 . S
C5 C4 1.389 . S
C5 H27 0.931 . S
C6 C3 1.481 . S
C6 C7 1.387 . S
C6 C11 1.390 . S
C7 C6 1.387 . S
C7 C8 1.401 . S
C7 H28 0.930 . S
C8 C7 1.401 . S
C8 C9 1.376 . S
C8 C17 1.511 . S
C9 C8 1.376 . S
C9 C10 1.392 . S
C9 H30 0.931 . S
C10 C9 1.392 . S
C10 C11 1.361 . S
C10 C12 1.500 . S
C11 C6 1.390 . S
C11 C10 1.361 . S
C11 H29 0.931 . S
C12 C10 1.500 . S
C12 C13 1.371 . S
C12 C14 1.365 . S
C13 C12 1.371 . S
C13 C23 1.386 . S
C13 H31 0.931 . S
C14 C12 1.365 . S
C14 C15 1.409 . S
C14 H32 0.929 . S
C15 C14 1.409 . S
C15 C16 1.380 . S
C15 H33 0.930 . S
C16 C15 1.380 . S
C16 C23 1.357 . S
C17 C8 1.511 . S
C17 C18 1.341 . S
C17 C19 1.371 . S
C18 C17 1.341 . S
C18 C22 1.394 . S
C18 H34 0.930 . S
C19 C17 1.371 . S
C19 C20 1.392 . S
C19 H35 0.931 . S
C20 C19 1.392 . S
C20 C21 1.331 . S
C20 H38 0.932 . S
C21 C20 1.331 . S
C21 C22 1.336 . S
C22 C18 1.394 . S
C22 C21 1.336 . S
C22 H37 0.929 . S
C23 C13 1.386 . S
C23 C16 1.357 . S
C23 H36 0.928 . S
H24 C0 0.931 . S
H25 C2 0.930 . S
H26 C4 0.929 . S
H27 C5 0.931 . S
H28 C7 0.930 . S
H29 C11 0.931 . S
H30 C9 0.931 . S
H31 C13 0.931 . S
H32 C14 0.929 . S
H33 C15 0.930 . S
H34 C18 0.930 . S
H35 C19 0.931 . S
H36 C23 0.928 . S
H37 C22 0.929 . S
H38 C20 0.932 . S
C39 C40 1.386 . S
C39 C41 1.397 . S
C39 H63 0.931 . S
C40 C39 1.386 . S
C40 C44 1.397 . S
C41 C39 1.397 . S
C41 C42 1.384 . S
C41 H64 0.930 . S
C42 C41 1.384 . S
C42 C43 1.377 . S
C42 C45 1.481 . S
C43 C42 1.377 . S
C43 C44 1.389 . S
C43 H65 0.929 . S
C44 C40 1.397 . S
C44 C43 1.389 . S
C44 H66 0.931 . S
C45 C42 1.481 . S
C45 C46 1.387 . S
C45 C50 1.390 . S
C46 C45 1.387 . S
C46 C47 1.401 . S
C46 H67 0.930 . S
C47 C46 1.401 . S
C47 C48 1.376 . S
C47 C56 1.511 . S
C48 C47 1.376 . S
C48 C49 1.392 . S
C48 H69 0.931 . S
C49 C48 1.392 . S
C49 C50 1.361 . S
C49 C51 1.500 . S
C50 C45 1.390 . S
C50 C49 1.361 . S
C50 H68 0.931 . S
C51 C49 1.500 . S
C51 C52 1.371 . S
C51 C53 1.365 . S
C52 C51 1.371 . S
C52 C62 1.386 . S
C52 H70 0.931 . S
C53 C51 1.365 . S
C53 C54 1.409 . S
C53 H71 0.929 . S
C54 C53 1.409 . S
C54 C55 1.380 . S
C54 H72 0.930 . S
C55 C54 1.380 . S
C55 C62 1.357 . S
C56 C47 1.511 . S
C56 C57 1.341 . S
C56 C58 1.371 . S
C57 C56 1.341 . S
C57 C61 1.394 . S
C57 H73 0.930 . S
C58 C56 1.371 . S
C58 C59 1.392 . S
C58 H74 0.931 . S
C59 C58 1.392 . S
C59 C60 1.331 . S
C59 H77 0.932 . S
C60 C59 1.331 . S
C60 C61 1.336 . S
C61 C57 1.394 . S
C61 C60 1.336 . S
C61 H76 0.929 . S
C62 C52 1.386 . S
C62 C55 1.357 . S
C62 H75 0.928 . S
H63 C39 0.931 . S
H64 C41 0.930 . S
H65 C43 0.929 . S
H66 C44 0.931 . S
H67 C46 0.930 . S
H68 C50 0.931 . S
H69 C48 0.931 . S
H70 C52 0.931 . S
H71 C53 0.929 . S
H72 C54 0.930 . S
H73 C57 0.930 . S
H74 C58 0.931 . S
H75 C62 0.928 . S
H76 C61 0.929 . S
H77 C59 0.932 . S
C78 C79 1.386 . S
C78 C80 1.397 . S
C78 H102 0.931 . S
C79 C78 1.386 . S
C79 C83 1.397 . S
C80 C78 1.397 . S
C80 C81 1.384 . S
C80 H103 0.930 . S
C81 C80 1.384 . S
C81 C82 1.377 . S
C81 C84 1.481 . S
C82 C81 1.377 . S
C82 C83 1.389 . S
C82 H104 0.929 . S
C83 C79 1.397 . S
C83 C82 1.389 . S
C83 H105 0.931 . S
C84 C81 1.481 . S
C84 C85 1.387 . S
C84 C89 1.390 . S
C85 C84 1.387 . S
C85 C86 1.401 . S
C85 H106 0.930 . S
C86 C85 1.401 . S
C86 C87 1.376 . S
C86 C95 1.511 . S
C87 C86 1.376 . S
C87 C88 1.392 . S
C87 H108 0.931 . S
C88 C87 1.392 . S
C88 C89 1.361 . S
C88 C90 1.500 . S
C89 C84 1.390 . S
C89 C88 1.361 . S
C89 H107 0.931 . S
C90 C88 1.500 . S
C90 C91 1.371 . S
C90 C92 1.365 . S
C91 C90 1.371 . S
C91 C101 1.386 . S
C91 H109 0.931 . S
C92 C90 1.365 . S
C92 C93 1.409 . S
C92 H110 0.929 . S
C93 C92 1.409 . S
C93 C94 1.380 . S
C93 H111 0.930 . S
C94 C93 1.380 . S
C94 C101 1.357 . S
C95 C86 1.511 . S
C95 C96 1.341 . S
C95 C97 1.371 . S
C96 C95 1.341 . S
C96 C100 1.394 . S
C96 H112 0.930 . S
C97 C95 1.371 . S
C97 C98 1.392 . S
C97 H113 0.931 . S
C98 C97 1.392 . S
C98 C99 1.331 . S
C98 H116 0.932 . S
C99 C98 1.331 . S
C99 C100 1.336 . S
C100 C96 1.394 . S
C100 C99 1.336 . S
C100 H115 0.929 . S
C101 C91 1.386 . S
C101 C94 1.357 . S
C101 H114 0.928 . S
H102 C78 0.931 . S
H103 C80 0.930 . S
H104 C82 0.929 . S
H105 C83 0.931 . S
H106 C85 0.930 . S
H107 C89 0.931 . S
H108 C87 0.931 . S
H109 C91 0.931 . S
H110 C92 0.929 . S
H111 C93 0.930 . S
H112 C96 0.930 . S
H113 C97 0.931 . S
H114 C101 0.928 . S
H115 C100 0.929 . S
H116 C98 0.932 . S
C117 C118 1.386 . S
C117 C119 1.397 . S
C117 H141 0.931 . S
C118 C117 1.386 . S
C118 C122 1.397 . S
C119 C117 1.397 . S
C119 C120 1.384 . S
C119 H142 0.930 . S
C120 C119 1.384 . S
C120 C121 1.377 . S
C120 C123 1.481 . S
C121 C120 1.377 . S
C121 C122 1.389 . S
C121 H143 0.929 . S
C122 C118 1.397 . S
C122 C121 1.389 . S
C122 H144 0.931 . S
C123 C120 1.481 . S
C123 C124 1.387 . S
C123 C128 1.390 . S
C124 C123 1.387 . S
C124 C125 1.401 . S
C124 H145 0.930 . S
C125 C124 1.401 . S
C125 C126 1.376 . S
C125 C134 1.511 . S
C126 C125 1.376 . S
C126 C127 1.392 . S
C126 H147 0.931 . S
C127 C126 1.392 . S
C127 C128 1.361 . S
C127 C129 1.500 . S
C128 C123 1.390 . S
C128 C127 1.361 . S
C128 H146 0.931 . S
C129 C127 1.500 . S
C129 C130 1.371 . S
C129 C131 1.365 . S
C130 C129 1.371 . S
C130 C140 1.386 . S
C130 H148 0.931 . S
C131 C129 1.365 . S
C131 C132 1.409 . S
C131 H149 0.929 . S
C132 C131 1.409 . S
C132 C133 1.380 . S
C132 H150 0.930 . S
C133 C132 1.380 . S
C133 C140 1.357 . S
C134 C125 1.511 . S
C134 C135 1.341 . S
C134 C136 1.371 . S
C135 C134 1.341 . S
C135 C139 1.394 . S
C135 H151 0.930 . S
C136 C134 1.371 . S
C136 C137 1.392 . S
C136 H152 0.931 . S
C137 C136 1.392 . S
C137 C138 1.331 . S
C137 H155 0.932 . S
C138 C137 1.331 . S
C138 C139 1.336 . S
C139 C135 1.394 . S
C139 C138 1.336 . S
C139 H154 0.929 . S
C140 C130 1.386 . S
C140 C133 1.357 . S
C140 H153 0.928 . S
H141 C117 0.931 . S
H142 C119 0.930 . S
H143 C121 0.929 . S
H144 C122 0.931 . S
H145 C124 0.930 . S
H146 C128 0.931 . S
H147 C126 0.931 . S
H148 C130 0.931 . S
H149 C131 0.929 . S
H150 C132 0.930 . S
H151 C135 0.930 . S
H152 C136 0.931 . S
H153 C140 0.928 . S
H154 C139 0.929 . S
H155 C137 0.932 . S
C156 C157 1.386 . S
C156 C158 1.397 . S
C156 H180 0.931 . S
C157 C156 1.386 . S
C157 C161 1.397 . S
C158 C156 1.397 . S
C158 C159 1.384 . S
C158 H181 0.930 . S
C159 C158 1.384 . S
C159 C160 1.377 . S
C159 C162 1.481 . S
C160 C159 1.377 . S
C160 C161 1.389 . S
C160 H182 0.929 . S
C161 C157 1.397 . S
C161 C160 1.389 . S
C161 H183 0.931 . S
C162 C159 1.481 . S
C162 C163 1.387 . S
C162 C167 1.390 . S
C163 C162 1.387 . S
C163 C164 1.401 . S
C163 H184 0.930 . S
C164 C163 1.401 . S
C164 C165 1.376 . S
C164 C173 1.511 . S
C165 C164 1.376 . S
C165 C166 1.392 . S
C165 H186 0.931 . S
C166 C165 1.392 . S
C166 C167 1.361 . S
C166 C168 1.500 . S
C167 C162 1.390 . S
C167 C166 1.361 . S
C167 H185 0.931 . S
C168 C166 1.500 . S
C168 C169 1.371 . S
C168 C170 1.365 . S
C169 C168 1.371 . S
C169 C179 1.386 . S
C169 H187 0.931 . S
C170 C168 1.365 . S
C170 C171 1.409 . S
C170 H188 0.929 . S
C171 C170 1.409 . S
C171 C172 1.380 . S
C171 H189 0.930 . S
C172 C171 1.380 . S
C172 C179 1.357 . S
C173 C164 1.511 . S
C173 C174 1.341 . S
C173 C175 1.371 . S
C174 C173 1.341 . S
C174 C178 1.394 . S
C174 H190 0.930 . S
C175 C173 1.371 . S
C175 C176 1.392 . S
C175 H191 0.931 . S
C176 C175 1.392 . S
C176 C177 1.331 . S
C176 H194 0.932 . S
C177 C176 1.331 . S
C177 C178 1.336 . S
C178 C174 1.394 . S
C178 C177 1.336 . S
C178 H193 0.929 . S
C179 C169 1.386 . S
C179 C172 1.357 . S
C179 H192 0.928 . S
H180 C156 0.931 . S
H181 C158 0.930 . S
H182 C160 0.929 . S
H183 C161 0.931 . S
H184 C163 0.930 . S
H185 C167 0.931 . S
H186 C165 0.931 . S
H187 C169 0.931 . S
H188 C170 0.929 . S
H189 C171 0.930 . S
H190 C174 0.930 . S
H191 C175 0.931 . S
H192 C179 0.928 . S
H193 C178 0.929 . S
H194 C176 0.932 . S
C195 C196 1.386 . S
C195 C197 1.397 . S
C195 H219 0.931 . S
C196 C195 1.386 . S
C196 C200 1.397 . S
C197 C195 1.397 . S
C197 C198 1.384 . S
C197 H220 0.930 . S
C198 C197 1.384 . S
C198 C199 1.377 . S
C198 C201 1.481 . S
C199 C198 1.377 . S
C199 C200 1.389 . S
C199 H221 0.929 . S
C200 C196 1.397 . S
C200 C199 1.389 . S
C200 H222 0.931 . S
C201 C198 1.481 . S
C201 C202 1.387 . S
C201 C206 1.390 . S
C202 C201 1.387 . S
C202 C203 1.401 . S
C202 H223 0.930 . S
C203 C202 1.401 . S
C203 C204 1.376 . S
C203 C212 1.511 . S
C204 C203 1.376 . S
C204 C205 1.392 . S
C204 H225 0.931 . S
C205 C204 1.392 . S
C205 C206 1.361 . S
C205 C207 1.500 . S
C206 C201 1.390 . S
C206 C205 1.361 . S
C206 H224 0.931 . S
C207 C205 1.500 . S
C207 C208 1.371 . S
C207 C209 1.365 . S
C208 C207 1.371 . S
C208 C218 1.386 . S
C208 H226 0.931 . S
C209 C207 1.365 . S
C209 C210 1.409 . S
C209 H227 0.929 . S
C210 C209 1.409 . S
C210 C211 1.380 . S
C210 H228 0.930 . S
C211 C210 1.380 . S
C211 C218 1.357 . S
C212 C203 1.511 . S
C212 C213 1.341 . S
C212 C214 1.371 . S
C213 C212 1.341 . S
C213 C217 1.394 . S
C213 H229 0.930 . S
C214 C212 1.371 . S
C214 C215 1.392 . S
C214 H230 0.931 . S
C215 C214 1.392 . S
C215 C216 1.331 . S
C215 H233 0.932 . S
C216 C215 1.331 . S
C216 C217 1.336 . S
C217 C213 1.394 . S
C217 C216 1.336 . S
C217 H232 0.929 . S
C218 C208 1.386 . S
C218 C211 1.357 . S
C218 H231 0.928 . S
H219 C195 0.931 . S
H220 C197 0.930 . S
H221 C199 0.929 . S
H222 C200 0.931 . S
H223 C202 0.930 . S
H224 C206 0.931 . S
H225 C204 0.931 . S
H226 C208 0.931 . S
H227 C209 0.929 . S
H228 C210 0.930 . S
H229 C213 0.930 . S
H230 C214 0.931 . S
H231 C218 0.928 . S
H232 C217 0.929 . S
H233 C215 0.932 . S
C234 C235 1.386 . S
C234 C236 1.397 . S
C234 H258 0.931 . S
C235 C234 1.386 . S
C235 C239 1.397 . S
C236 C234 1.397 . S
C236 C237 1.384 . S
C236 H259 0.930 . S
C237 C236 1.384 . S
C237 C238 1.377 . S
C237 C240 1.481 . S
C238 C237 1.377 . S
C238 C239 1.389 . S
C238 H260 0.929 . S
C239 C235 1.397 . S
C239 C238 1.389 . S
C239 H261 0.931 . S
C240 C237 1.481 . S
C240 C241 1.387 . S
C240 C245 1.390 . S
C241 C240 1.387 . S
C241 C242 1.401 . S
C241 H262 0.930 . S
C242 C241 1.401 . S
C242 C243 1.376 . S
C242 C251 1.511 . S
C243 C242 1.376 . S
C243 C244 1.392 . S
C243 H264 0.931 . S
C244 C243 1.392 . S
C244 C245 1.361 . S
C244 C246 1.500 . S
C245 C240 1.390 . S
C245 C244 1.361 . S
C245 H263 0.931 . S
C246 C244 1.500 . S
C246 C247 1.371 . S
C246 C248 1.365 . S
C247 C246 1.371 . S
C247 C257 1.386 . S
C247 H265 0.931 . S
C248 C246 1.365 . S
C248 C249 1.409 . S
C248 H266 0.929 . S
C249 C248 1.409 . S
C249 C250 1.380 . S
C249 H267 0.930 . S
C250 C249 1.380 . S
C250 C257 1.357 . S
C251 C242 1.511 . S
C251 C252 1.341 . S
C251 C253 1.371 . S
C252 C251 1.341 . S
C252 C256 1.394 . S
C252 H268 0.930 . S
C253 C251 1.371 . S
C253 C254 1.392 . S
C253 H269 0.931 . S
C254 C253 1.392 . S
C254 C255 1.331 . S
C254 H272 0.932 . S
C255 C254 1.331 . S
C255 C256 1.336 . S
C256 C252 1.394 . S
C256 C255 1.336 . S
C256 H271 0.929 . S
C257 C247 1.386 . S
C257 C250 1.357 . S
C257 H270 0.928 . S
H258 C234 0.931 . S
H259 C236 0.930 . S
H260 C238 0.929 . S
H261 C239 0.931 . S
H262 C241 0.930 . S
H263 C245 0.931 . S
H264 C243 0.931 . S
H265 C247 0.931 . S
H266 C248 0.929 . S
H267 C249 0.930 . S
H268 C252 0.930 . S
H269 C253 0.931 . S
H270 C257 0.928 . S
H271 C256 0.929 . S
H272 C254 0.932 . S
C273 C274 1.386 . S
C273 C275 1.397 . S
C273 H297 0.931 . S
C274 C273 1.386 . S
C274 C278 1.397 . S
C275 C273 1.397 . S
C275 C276 1.384 . S
C275 H298 0.930 . S
C276 C275 1.384 . S
C276 C277 1.377 . S
C276 C279 1.481 . S
C277 C276 1.377 . S
C277 C278 1.389 . S
C277 H299 0.929 . S
C278 C274 1.397 . S
C278 C277 1.389 . S
C278 H300 0.931 . S
C279 C276 1.481 . S
C279 C280 1.387 . S
C279 C284 1.390 . S
C280 C279 1.387 . S
C280 C281 1.401 . S
C280 H301 0.930 . S
C281 C280 1.401 . S
C281 C282 1.376 . S
C281 C290 1.511 . S
C282 C281 1.376 . S
C282 C283 1.392 . S
C282 H303 0.931 . S
C283 C282 1.392 . S
C283 C284 1.361 . S
C283 C285 1.500 . S
C284 C279 1.390 . S
C284 C283 1.361 . S
C284 H302 0.931 . S
C285 C283 1.500 . S
C285 C286 1.371 . S
C285 C287 1.365 . S
C286 C285 1.371 . S
C286 C296 1.386 . S
C286 H304 0.931 . S
C287 C285 1.365 . S
C287 C288 1.409 . S
C287 H305 0.929 . S
C288 C287 1.409 . S
C288 C289 1.380 . S
C288 H306 0.930 . S
C289 C288 1.380 . S
C289 C296 1.357 . S
C290 C281 1.511 . S
C290 C291 1.341 . S
C290 C292 1.371 . S
C291 C290 1.341 . S
C291 C295 1.394 . S
C291 H307 0.930 . S
C292 C290 1.371 . S
C292 C293 1.392 . S
C292 H308 0.931 . S
C293 C292 1.392 . S
C293 C294 1.331 . S
C293 H311 0.932 . S
C294 C293 1.331 . S
C294 C295 1.336 . S
C295 C291 1.394 . S
C295 C294 1.336 . S
C295 H310 0.929 . S
C296 C286 1.386 . S
C296 C289 1.357 . S
C296 H309 0.928 . S
H297 C273 0.931 . S
H298 C275 0.930 . S
H299 C277 0.929 . S
H300 C278 0.931 . S
H301 C280 0.930 . S
H302 C284 0.931 . S
H303 C282 0.931 . S
H304 C286 0.931 . S
H305 C287 0.929 . S
H306 C288 0.930 . S
H307 C291 0.930 . S
H308 C292 0.931 . S
H309 C296 0.928 . S
H310 C295 0.929 . S
H311 C293 0.932 . S
Dy312 O315 2.307 1_545 S
Dy312 O317 2.395 . S
Dy312 O318 2.379 . S
Dy312 O320 2.339 1_545 S
Dy312 O322 2.298 1_455 S
Dy312 O326 2.275 . S
Dy312 C334 2.738 . S
Dy313 O316 2.298 1_655 S
Dy313 O319 2.275 . S
Dy313 O321 2.307 1_565 S
Dy313 O323 2.395 . S
Dy313 O324 2.379 . S
Dy313 O327 2.339 1_565 S
Dy313 C343 2.738 . S
C314 O326 1.254 . S
C314 O327 1.257 1_455 S
O315 Dy312 2.307 1_565 S
O315 C325 1.266 . S
O316 Dy313 2.298 1_455 S
O316 C325 1.236 . S
O317 Dy312 2.395 . S
O317 C334 1.255 . S
O318 Dy312 2.379 . S
O318 C334 1.249 . S
O319 Dy313 2.275 . S
O319 C335 1.254 . S
O320 Dy312 2.339 1_565 S
O320 C335 1.257 1_455 S
O321 Dy313 2.307 1_545 S
O321 C336 1.266 . S
O322 Dy312 2.298 1_655 S
O322 C336 1.236 . S
O323 Dy313 2.395 . S
O323 C343 1.255 . S
O324 Dy313 2.379 . S
O324 C343 1.249 . S
C325 O315 1.266 . S
C325 O316 1.236 . S
O326 Dy312 2.275 . S
O326 C314 1.254 . S
O327 Dy313 2.339 1_545 S
O327 C314 1.257 1_655 S
C328 C331 1.344 . S
C328 C332 1.328 . S
C328 C334 1.516 . S
C329 C330 1.304 . S
C329 C333 1.323 . S
C330 C329 1.304 . S
C330 C331 1.371 . S
C330 H344 0.930 . S
C331 C328 1.344 . S
C331 C330 1.371 . S
C331 H345 0.931 . S
C332 C328 1.328 . S
C332 C333 1.433 . S
C332 H346 0.931 . S
C333 C329 1.323 . S
C333 C332 1.433 . S
C333 H347 0.933 . S
C334 Dy312 2.738 . S
C334 O317 1.255 . S
C334 O318 1.249 . S
C334 C328 1.516 . S
C335 O319 1.254 . S
C335 O320 1.257 1_655 S
C336 O321 1.266 . S
C336 O322 1.236 . S
C337 C340 1.344 . S
C337 C341 1.328 . S
C337 C343 1.516 . S
C338 C339 1.304 . S
C338 C342 1.323 . S
C339 C338 1.304 . S
C339 C340 1.371 . S
C339 H348 0.930 . S
C340 C337 1.344 . S
C340 C339 1.371 . S
C340 H349 0.931 . S
C341 C337 1.328 . S
C341 C342 1.433 . S
C341 H350 0.931 . S
C342 C338 1.323 . S
C342 C341 1.433 . S
C342 H351 0.933 . S
C343 Dy313 2.738 . S
C343 O323 1.255 . S
C343 O324 1.249 . S
C343 C337 1.516 . S
H344 C330 0.930 . S
H345 C331 0.931 . S
H346 C332 0.931 . S
H347 C333 0.933 . S
H348 C339 0.930 . S
H349 C340 0.931 . S
H350 C341 0.931 . S
H351 C342 0.933 . S
Dy352 O355 2.307 1_566 S
Dy352 O357 2.395 . S
Dy352 O358 2.379 . S
Dy352 O360 2.339 1_565 S
Dy352 O362 2.298 . S
Dy352 O366 2.275 1_556 S
Dy352 C374 2.738 . S
Dy353 O356 2.298 . S
Dy353 O359 2.275 1_554 S
Dy353 O361 2.307 1_544 S
Dy353 O363 2.395 . S
Dy353 O364 2.379 . S
Dy353 O367 2.339 1_545 S
Dy353 C383 2.738 . S
C354 O366 1.254 . S
C354 O367 1.257 . S
O355 Dy352 2.307 1_544 S
O355 C365 1.266 . S
O356 Dy353 2.298 . S
O356 C365 1.236 . S
O357 Dy352 2.395 . S
O357 C374 1.255 . S
O358 Dy352 2.379 . S
O358 C374 1.249 . S
O359 Dy353 2.275 1_556 S
O359 C375 1.254 . S
O360 Dy352 2.339 1_545 S
O360 C375 1.257 . S
O361 Dy353 2.307 1_566 S
O361 C376 1.266 . S
O362 Dy352 2.298 . S
O362 C376 1.236 . S
O363 Dy353 2.395 . S
O363 C383 1.255 . S
O364 Dy353 2.379 . S
O364 C383 1.249 . S
C365 O355 1.266 . S
C365 O356 1.236 . S
O366 Dy352 2.275 1_554 S
O366 C354 1.254 . S
O367 Dy353 2.339 1_565 S
O367 C354 1.257 . S
C368 C371 1.344 . S
C368 C372 1.328 . S
C368 C374 1.516 . S
C369 C370 1.304 . S
C369 C373 1.323 . S
C370 C369 1.304 . S
C370 C371 1.371 . S
C370 H384 0.930 . S
C371 C368 1.344 . S
C371 C370 1.371 . S
C371 H385 0.931 . S
C372 C368 1.328 . S
C372 C373 1.433 . S
C372 H386 0.931 . S
C373 C369 1.323 . S
C373 C372 1.433 . S
C373 H387 0.933 . S
C374 Dy352 2.738 . S
C374 O357 1.255 . S
C374 O358 1.249 . S
C374 C368 1.516 . S
C375 O359 1.254 . S
C375 O360 1.257 . S
C376 O361 1.266 . S
C376 O362 1.236 . S
C377 C380 1.344 . S
C377 C381 1.328 . S
C377 C383 1.516 . S
C378 C379 1.304 . S
C378 C382 1.323 . S
C379 C378 1.304 . S
C379 C380 1.371 . S
C379 H388 0.930 . S
C380 C377 1.344 . S
C380 C379 1.371 . S
C380 H389 0.931 . S
C381 C377 1.328 . S
C381 C382 1.433 . S
C381 H390 0.931 . S
C382 C378 1.323 . S
C382 C381 1.433 . S
C382 H391 0.933 . S
C383 Dy353 2.738 . S
C383 O363 1.255 . S
C383 O364 1.249 . S
C383 C377 1.516 . S
H384 C370 0.930 . S
H385 C371 0.931 . S
H386 C372 0.931 . S
H387 C373 0.933 . S
H388 C379 0.930 . S
H389 C380 0.931 . S
H390 C381 0.931 . S
H391 C382 0.933 . S
Dy392 O395 2.307 . S
Dy392 O397 2.395 . S
Dy392 O398 2.379 . S
Dy392 O400 2.339 . S
Dy392 O402 2.298 . S
Dy392 O406 2.275 . S
Dy392 C414 2.738 . S
Dy393 O396 2.298 . S
Dy393 O399 2.275 . S
Dy393 O401 2.307 . S
Dy393 O403 2.395 . S
Dy393 O404 2.379 . S
Dy393 O407 2.339 . S
Dy393 C423 2.738 . S
C394 O406 1.254 . S
C394 O407 1.257 . S
O395 Dy392 2.307 . S
O395 C405 1.266 . S
O396 Dy393 2.298 . S
O396 C405 1.236 . S
O397 Dy392 2.395 . S
O397 C414 1.255 . S
O398 Dy392 2.379 . S
O398 C414 1.249 . S
O399 Dy393 2.275 . S
O399 C415 1.254 . S
O400 Dy392 2.339 . S
O400 C415 1.257 . S
O401 Dy393 2.307 . S
O401 C416 1.266 . S
O402 Dy392 2.298 . S
O402 C416 1.236 . S
O403 Dy393 2.395 . S
O403 C423 1.255 . S
O404 Dy393 2.379 . S
O404 C423 1.249 . S
C405 O395 1.266 . S
C405 O396 1.236 . S
O406 Dy392 2.275 . S
O406 C394 1.254 . S
O407 Dy393 2.339 . S
O407 C394 1.257 . S
C408 C411 1.344 . S
C408 C412 1.328 . S
C408 C414 1.516 . S
C409 C410 1.304 . S
C409 C413 1.323 . S
C410 C409 1.304 . S
C410 C411 1.371 . S
C410 H424 0.930 . S
C411 C408 1.344 . S
C411 C410 1.371 . S
C411 H425 0.931 . S
C412 C408 1.328 . S
C412 C413 1.433 . S
C412 H426 0.931 . S
C413 C409 1.323 . S
C413 C412 1.433 . S
C413 H427 0.933 . S
C414 Dy392 2.738 . S
C414 O397 1.255 . S
C414 O398 1.249 . S
C414 C408 1.516 . S
C415 O399 1.254 . S
C415 O400 1.257 . S
C416 O401 1.266 . S
C416 O402 1.236 . S
C417 C420 1.344 . S
C417 C421 1.328 . S
C417 C423 1.516 . S
C418 C419 1.304 . S
C418 C422 1.323 . S
C419 C418 1.304 . S
C419 C420 1.371 . S
C419 H428 0.930 . S
C420 C417 1.344 . S
C420 C419 1.371 . S
C420 H429 0.931 . S
C421 C417 1.328 . S
C421 C422 1.433 . S
C421 H430 0.931 . S
C422 C418 1.323 . S
C422 C421 1.433 . S
C422 H431 0.933 . S
C423 Dy393 2.738 . S
C423 O403 1.255 . S
C423 O404 1.249 . S
C423 C417 1.516 . S
H424 C410 0.930 . S
H425 C411 0.931 . S
H426 C412 0.931 . S
H427 C413 0.933 . S
H428 C419 0.930 . S
H429 C420 0.931 . S
H430 C421 0.931 . S
H431 C422 0.933 . S
Dy432 O435 2.287 1_656 S
Dy432 O437 2.395 . S
Dy432 O438 2.379 . S
Dy432 O440 2.339 1_655 S
Dy432 O442 2.298 . S
Dy432 O446 2.275 1_556 S
Dy432 C454 2.738 . S
Dy433 O436 2.298 . S
Dy433 O439 2.275 1_554 S
Dy433 O441 2.325 1_455 S
Dy433 O443 2.395 . S
Dy433 O444 2.379 . S
Dy433 O447 2.339 1_455 S
Dy433 C463 2.738 . S
C434 O446 1.254 . S
C434 O447 1.257 . S
O435 Dy432 2.287 1_454 S
O435 C445 1.298 . S
O436 Dy433 2.298 . S
O436 C445 1.236 . S
O437 Dy432 2.395 . S
O437 C454 1.255 . S
O438 Dy432 2.379 . S
O438 C454 1.249 . S
O439 Dy433 2.275 1_556 S
O439 C455 1.254 . S
O440 Dy432 2.339 1_455 S
O440 C455 1.257 . S
O441 Dy433 2.325 1_655 S
O441 C456 1.239 1_554 S
O442 Dy432 2.298 . S
O442 C456 1.236 . S
O443 Dy433 2.395 . S
O443 C463 1.255 . S
O444 Dy433 2.379 . S
O444 C463 1.249 . S
C445 O435 1.298 . S
C445 O436 1.236 . S
O446 Dy432 2.275 1_554 S
O446 C434 1.254 . S
O447 Dy433 2.339 1_655 S
O447 C434 1.257 . S
C448 C451 1.344 . S
C448 C452 1.328 . S
C448 C454 1.516 . S
C449 C450 1.304 . S
C449 C453 1.323 . S
C450 C449 1.304 . S
C450 C451 1.371 . S
C450 H464 0.930 . S
C451 C448 1.344 . S
C451 C450 1.371 . S
C451 H465 0.931 . S
C452 C448 1.328 . S
C452 C453 1.433 . S
C452 H466 0.931 . S
C453 C449 1.323 . S
C453 C452 1.433 . S
C453 H467 0.933 . S
C454 Dy432 2.738 . S
C454 O437 1.255 . S
C454 O438 1.249 . S
C454 C448 1.516 . S
C455 O439 1.254 . S
C455 O440 1.257 . S
C456 O441 1.239 1_556 S
C456 O442 1.236 . S
C457 C460 1.344 . S
C457 C461 1.328 . S
C457 C463 1.516 . S
C458 C459 1.304 . S
C458 C462 1.323 . S
C459 C458 1.304 . S
C459 C460 1.371 . S
C459 H468 0.930 . S
C460 C457 1.344 . S
C460 C459 1.371 . S
C460 H469 0.931 . S
C461 C457 1.328 . S
C461 C462 1.433 . S
C461 H470 0.931 . S
C462 C458 1.323 . S
C462 C461 1.433 . S
C462 H471 0.933 . S
C463 Dy433 2.738 . S
C463 O443 1.255 . S
C463 O444 1.249 . S
C463 C457 1.516 . S
H464 C450 0.930 . S
H465 C451 0.931 . S
H466 C452 0.931 . S
H467 C453 0.933 . S
H468 C459 0.930 . S
H469 C460 0.931 . S
H470 C461 0.931 . S
H471 C462 0.933 . S
H472 C480 0.950 . S
H473 C485 0.950 . S
H474 C482 0.950 . S
H475 C484 0.950 . S
H476 C486 0.950 . S
H477 C488 0.950 . S
H478 C490 0.950 . S
H479 C491 0.950 . S
C480 H472 0.950 . S
C480 C481 1.386 . S
C480 C482 1.391 . S
C481 C480 1.386 . S
C481 C485 1.393 . S
C482 H474 0.950 . S
C482 C480 1.391 . S
C482 C483 1.400 . S
C483 C482 1.400 . S
C483 C484 1.398 . S
C483 C489 1.491 . S
C484 H475 0.950 . S
C484 C483 1.398 . S
C484 C485 1.391 . S
C485 H473 0.950 . S
C485 C481 1.393 . S
C485 C484 1.391 . S
C486 H476 0.950 . S
C486 C487 1.386 . S
C486 C488 1.391 . S
C487 C486 1.386 . S
C487 C491 1.393 . S
C488 H477 0.950 . S
C488 C486 1.391 . S
C488 C489 1.400 . S
C489 C483 1.491 . S
C489 C488 1.400 . S
C489 C490 1.398 . S
C490 H478 0.950 . S
C490 C489 1.398 . S
C490 C491 1.391 . S
C491 H479 0.950 . S
C491 C487 1.393 . S
C491 C490 1.391 . S
H492 C500 0.950 . S
H493 C505 0.950 . S
H494 C502 0.950 . S
H495 C504 0.950 . S
H496 C506 0.950 . S
H497 C508 0.950 . S
H498 C510 0.950 . S
H499 C511 0.950 . S
C500 H492 0.950 . S
C500 C501 1.386 . S
C500 C502 1.391 . S
C501 C500 1.386 . S
C501 C505 1.393 . S
C502 H494 0.950 . S
C502 C500 1.391 . S
C502 C503 1.400 . S
C503 C502 1.400 . S
C503 C504 1.398 . S
C503 C509 1.491 . S
C504 H495 0.950 . S
C504 C503 1.398 . S
C504 C505 1.391 . S
C505 H493 0.950 . S
C505 C501 1.393 . S
C505 C504 1.391 . S
C506 H496 0.950 . S
C506 C507 1.386 . S
C506 C508 1.391 . S
C507 C506 1.386 . S
C507 C511 1.393 . S
C508 H497 0.950 . S
C508 C506 1.391 . S
C508 C509 1.400 . S
C509 C503 1.491 . S
C509 C508 1.400 . S
C509 C510 1.398 . S
C510 H498 0.950 . S
C510 C509 1.398 . S
C510 C511 1.391 . S
C511 H499 0.950 . S
C511 C507 1.393 . S
C511 C510 1.391 . S
H512 C520 0.950 . S
H513 C525 0.950 . S
H514 C522 0.950 . S
H515 C524 0.950 . S
H516 C526 0.950 . S
H517 C528 0.950 . S
H518 C530 0.950 . S
H519 C531 0.950 . S
C520 H512 0.950 . S
C520 C521 1.386 . S
C520 C522 1.391 . S
C521 C520 1.386 . S
C521 C525 1.393 . S
C522 H514 0.950 . S
C522 C520 1.391 . S
C522 C523 1.400 . S
C523 C522 1.400 . S
C523 C524 1.398 . S
C523 C529 1.491 . S
C524 H515 0.950 . S
C524 C523 1.398 . S
C524 C525 1.391 . S
C525 H513 0.950 . S
C525 C521 1.393 . S
C525 C524 1.391 . S
C526 H516 0.950 . S
C526 C527 1.386 . S
C526 C528 1.391 . S
C527 C526 1.386 . S
C527 C531 1.393 . S
C528 H517 0.950 . S
C528 C526 1.391 . S
C528 C529 1.400 . S
C529 C523 1.491 . S
C529 C528 1.400 . S
C529 C530 1.398 . S
C530 H518 0.950 . S
C530 C529 1.398 . S
C530 C531 1.391 . S
C531 H519 0.950 . S
C531 C527 1.393 . S
C531 C530 1.391 . S
H532 C540 0.950 . S
H533 C545 0.950 . S
H534 C542 0.950 . S
H535 C544 0.950 . S
H536 C546 0.950 . S
H537 C548 0.950 . S
H538 C550 0.950 . S
H539 C551 0.950 . S
C540 H532 0.950 . S
C540 C541 1.386 . S
C540 C542 1.391 . S
C541 C540 1.386 . S
C541 C545 1.393 . S
C542 H534 0.950 . S
C542 C540 1.391 . S
C542 C543 1.400 . S
C543 C542 1.400 . S
C543 C544 1.398 . S
C543 C549 1.491 . S
C544 H535 0.950 . S
C544 C543 1.398 . S
C544 C545 1.391 . S
C545 H533 0.950 . S
C545 C541 1.393 . S
C545 C544 1.391 . S
C546 H536 0.950 . S
C546 C547 1.386 . S
C546 C548 1.391 . S
C547 C546 1.386 . S
C547 C551 1.393 . S
C548 H537 0.950 . S
C548 C546 1.391 . S
C548 C549 1.400 . S
C549 C543 1.491 . S
C549 C548 1.400 . S
C549 C550 1.398 . S
C550 H538 0.950 . S
C550 C549 1.398 . S
C550 C551 1.391 . S
C551 H539 0.950 . S
C551 C547 1.393 . S
C551 C550 1.391 . S
H552 C560 0.950 . S
H553 C565 0.950 . S
H554 C562 0.950 . S
H555 C564 0.950 . S
H556 C566 0.950 . S
H557 C568 0.950 . S
H558 C570 0.950 . S
H559 C571 0.950 . S
C560 H552 0.950 . S
C560 C561 1.386 . S
C560 C562 1.391 . S
C561 C560 1.386 . S
C561 C565 1.393 . S
C562 H554 0.950 . S
C562 C560 1.391 . S
C562 C563 1.400 . S
C563 C562 1.400 . S
C563 C564 1.398 . S
C563 C569 1.491 . S
C564 H555 0.950 . S
C564 C563 1.398 . S
C564 C565 1.391 . S
C565 H553 0.950 . S
C565 C561 1.393 . S
C565 C564 1.391 . S
C566 H556 0.950 . S
C566 C567 1.386 . S
C566 C568 1.391 . S
C567 C566 1.386 . S
C567 C571 1.393 . S
C568 H557 0.950 . S
C568 C566 1.391 . S
C568 C569 1.400 . S
C569 C563 1.491 . S
C569 C568 1.400 . S
C569 C570 1.398 . S
C570 H558 0.950 . S
C570 C569 1.398 . S
C570 C571 1.391 . S
C571 H559 0.950 . S
C571 C567 1.393 . S
C571 C570 1.391 . S
H572 C580 0.950 . S
H573 C585 0.950 . S
H574 C582 0.950 . S
H575 C584 0.950 . S
H576 C586 0.950 . S
H577 C588 0.950 . S
H578 C590 0.950 . S
H579 C591 0.950 . S
C580 H572 0.950 . S
C580 C581 1.386 . S
C580 C582 1.391 . S
C581 C580 1.386 . S
C581 C585 1.393 . S
C582 H574 0.950 . S
C582 C580 1.391 . S
C582 C583 1.400 . S
C583 C582 1.400 . S
C583 C584 1.398 . S
C583 C589 1.491 . S
C584 H575 0.950 . S
C584 C583 1.398 . S
C584 C585 1.391 . S
C585 H573 0.950 . S
C585 C581 1.393 . S
C585 C584 1.391 . S
C586 H576 0.950 . S
C586 C587 1.386 . S
C586 C588 1.391 . S
C587 C586 1.386 . S
C587 C591 1.393 . S
C588 H577 0.950 . S
C588 C586 1.391 . S
C588 C589 1.400 . S
C589 C583 1.491 . S
C589 C588 1.400 . S
C589 C590 1.398 . S
C590 H578 0.950 . S
C590 C589 1.398 . S
C590 C591 1.391 . S
C591 H579 0.950 . S
C591 C587 1.393 . S
C591 C590 1.391 . S
H592 C600 0.950 . S
H593 C605 0.950 . S
H594 C602 0.950 . S
H595 C604 0.950 . S
H596 C606 0.950 . S
H597 C608 0.950 . S
H598 C610 0.950 . S
H599 C611 0.950 . S
C600 H592 0.950 . S
C600 C601 1.386 . S
C600 C602 1.391 . S
C601 C600 1.386 . S
C601 C605 1.393 . S
C602 H594 0.950 . S
C602 C600 1.391 . S
C602 C603 1.400 . S
C603 C602 1.400 . S
C603 C604 1.398 . S
C603 C609 1.491 . S
C604 H595 0.950 . S
C604 C603 1.398 . S
C604 C605 1.391 . S
C605 H593 0.950 . S
C605 C601 1.393 . S
C605 C604 1.391 . S
C606 H596 0.950 . S
C606 C607 1.386 . S
C606 C608 1.391 . S
C607 C606 1.386 . S
C607 C611 1.393 . S
C608 H597 0.950 . S
C608 C606 1.391 . S
C608 C609 1.400 . S
C609 C603 1.491 . S
C609 C608 1.400 . S
C609 C610 1.398 . S
C610 H598 0.950 . S
C610 C609 1.398 . S
C610 C611 1.391 . S
C611 H599 0.950 . S
C611 C607 1.393 . S
C611 C610 1.391 . S
H612 C620 0.950 . S
H613 C625 0.950 . S
H614 C622 0.950 . S
H615 C624 0.950 . S
H616 C626 0.950 . S
H617 C628 0.950 . S
H618 C630 0.950 . S
H619 C631 0.950 . S
C620 H612 0.950 . S
C620 C621 1.386 . S
C620 C622 1.391 . S
C621 C620 1.386 . S
C621 C625 1.393 . S
C622 H614 0.950 . S
C622 C620 1.391 . S
C622 C623 1.400 . S
C623 C622 1.400 . S
C623 C624 1.398 . S
C623 C629 1.491 . S
C624 H615 0.950 . S
C624 C623 1.398 . S
C624 C625 1.391 . S
C625 H613 0.950 . S
C625 C621 1.393 . S
C625 C624 1.391 . S
C626 H616 0.950 . S
C626 C627 1.386 . S
C626 C628 1.391 . S
C627 C626 1.386 . S
C627 C631 1.393 . S
C628 H617 0.950 . S
C628 C626 1.391 . S
C628 C629 1.400 . S
C629 C623 1.491 . S
C629 C628 1.400 . S
C629 C630 1.398 . S
C630 H618 0.950 . S
C630 C629 1.398 . S
C630 C631 1.391 . S
C631 H619 0.950 . S
C631 C627 1.393 . S
C631 C630 1.391 . S
H632 C640 0.950 . S
H633 C645 0.950 . S
H634 C642 0.950 . S
H635 C644 0.950 . S
H636 C646 0.950 . S
H637 C648 0.950 . S
H638 C650 0.950 . S
H639 C651 0.950 . S
C640 H632 0.950 . S
C640 C641 1.386 . S
C640 C642 1.391 . S
C641 C640 1.386 . S
C641 C645 1.393 . S
C642 H634 0.950 . S
C642 C640 1.391 . S
C642 C643 1.400 . S
C643 C642 1.400 . S
C643 C644 1.398 . S
C643 C649 1.491 . S
C644 H635 0.950 . S
C644 C643 1.398 . S
C644 C645 1.391 . S
C645 H633 0.950 . S
C645 C641 1.393 . S
C645 C644 1.391 . S
C646 H636 0.950 . S
C646 C647 1.386 . S
C646 C648 1.391 . S
C647 C646 1.386 . S
C647 C651 1.393 . S
C648 H637 0.950 . S
C648 C646 1.391 . S
C648 C649 1.400 . S
C649 C643 1.491 . S
C649 C648 1.400 . S
C649 C650 1.398 . S
C650 H638 0.950 . S
C650 C649 1.398 . S
C650 C651 1.391 . S
C651 H639 0.950 . S
C651 C647 1.393 . S
C651 C650 1.391 . S
H652 C660 0.950 . S
H653 C665 0.950 . S
H654 C662 0.950 . S
H655 C664 0.950 . S
H656 C666 0.950 . S
H657 C668 0.950 . S
H658 C670 0.950 . S
H659 C671 0.950 . S
C660 H652 0.950 . S
C660 C661 1.386 . S
C660 C662 1.391 . S
C661 C660 1.386 . S
C661 C665 1.393 . S
C662 H654 0.950 . S
C662 C660 1.391 . S
C662 C663 1.400 . S
C663 C662 1.400 . S
C663 C664 1.398 . S
C663 C669 1.491 . S
C664 H655 0.950 . S
C664 C663 1.398 . S
C664 C665 1.391 . S
C665 H653 0.950 . S
C665 C661 1.393 . S
C665 C664 1.391 . S
C666 H656 0.950 . S
C666 C667 1.386 . S
C666 C668 1.391 . S
C667 C666 1.386 . S
C667 C671 1.393 . S
C668 H657 0.950 . S
C668 C666 1.391 . S
C668 C669 1.400 . S
C669 C663 1.491 . S
C669 C668 1.400 . S
C669 C670 1.398 . S
C670 H658 0.950 . S
C670 C669 1.398 . S
C670 C671 1.391 . S
C671 H659 0.950 . S
C671 C667 1.393 . S
C671 C670 1.391 . S
H672 C680 0.950 . S
H673 C685 0.950 . S
H674 C682 0.950 . S
H675 C684 0.950 . S
H676 C686 0.950 . S
H677 C688 0.950 . S
H678 C690 0.950 . S
H679 C691 0.950 1_455 S
C680 H672 0.950 . S
C680 C681 1.386 . S
C680 C682 1.391 . S
C681 C680 1.386 . S
C681 C685 1.393 . S
C682 H674 0.950 . S
C682 C680 1.391 . S
C682 C683 1.400 . S
C683 C682 1.400 . S
C683 C684 1.398 . S
C683 C689 1.491 . S
C684 H675 0.950 . S
C684 C683 1.398 . S
C684 C685 1.391 . S
C685 H673 0.950 . S
C685 C681 1.393 . S
C685 C684 1.391 . S
C686 H676 0.950 . S
C686 C687 1.386 . S
C686 C688 1.391 . S
C687 C686 1.386 . S
C687 C691 1.393 . S
C688 H677 0.950 . S
C688 C686 1.391 . S
C688 C689 1.400 . S
C689 C683 1.491 . S
C689 C688 1.400 . S
C689 C690 1.398 . S
C690 H678 0.950 . S
C690 C689 1.398 . S
C690 C691 1.391 . S
C691 H679 0.950 1_655 S
C691 C687 1.393 . S
C691 C690 1.391 . S
H692 C700 0.950 . S
H693 C705 0.950 . S
H694 C702 0.950 . S
H695 C704 0.950 . S
H696 C706 0.950 . S
H697 C708 0.950 . S
H698 C710 0.950 . S
H699 C711 0.950 . S
C700 H692 0.950 . S
C700 C701 1.386 . S
C700 C702 1.391 . S
C701 C700 1.386 . S
C701 C705 1.393 . S
C702 H694 0.950 . S
C702 C700 1.391 . S
C702 C703 1.400 . S
C703 C702 1.400 . S
C703 C704 1.398 . S
C703 C709 1.491 . S
C704 H695 0.950 . S
C704 C703 1.398 . S
C704 C705 1.391 . S
C705 H693 0.950 . S
C705 C701 1.393 . S
C705 C704 1.391 . S
C706 H696 0.950 . S
C706 C707 1.386 . S
C706 C708 1.391 . S
C707 C706 1.386 . S
C707 C711 1.393 . S
C708 H697 0.950 . S
C708 C706 1.391 . S
C708 C709 1.400 . S
C709 C703 1.491 . S
C709 C708 1.400 . S
C709 C710 1.398 . S
C710 H698 0.950 . S
C710 C709 1.398 . S
C710 C711 1.391 . S
C711 H699 0.950 . S
C711 C707 1.393 . S
C711 C710 1.391 . S
H712 C720 0.950 . S
H713 C725 0.950 . S
H714 C722 0.950 . S
H715 C724 0.950 . S
H716 C726 0.950 . S
H717 C728 0.950 . S
H718 C730 0.950 . S
H719 C731 0.950 . S
C720 H712 0.950 . S
C720 C721 1.386 . S
C720 C722 1.391 . S
C721 C720 1.386 . S
C721 C725 1.393 . S
C722 H714 0.950 . S
C722 C720 1.391 . S
C722 C723 1.400 . S
C723 C722 1.400 . S
C723 C724 1.398 . S
C723 C729 1.491 . S
C724 H715 0.950 . S
C724 C723 1.398 . S
C724 C725 1.391 . S
C725 H713 0.950 . S
C725 C721 1.393 . S
C725 C724 1.391 . S
C726 H716 0.950 . S
C726 C727 1.386 . S
C726 C728 1.391 . S
C727 C726 1.386 . S
C727 C731 1.393 . S
C728 H717 0.950 . S
C728 C726 1.391 . S
C728 C729 1.400 . S
C729 C723 1.491 . S
C729 C728 1.400 . S
C729 C730 1.398 . S
C730 H718 0.950 . S
C730 C729 1.398 . S
C730 C731 1.391 . S
C731 H719 0.950 . S
C731 C727 1.393 . S
C731 C730 1.391 . S
H732 C740 0.950 . S
H733 C745 0.950 . S
H734 C742 0.950 . S
H735 C744 0.950 . S
H736 C746 0.950 . S
H737 C748 0.950 . S
H738 C750 0.950 . S
H739 C751 0.950 . S
C740 H732 0.950 . S
C740 C741 1.386 . S
C740 C742 1.391 . S
C741 C740 1.386 . S
C741 C745 1.393 . S
C742 H734 0.950 . S
C742 C740 1.391 . S
C742 C743 1.400 . S
C743 C742 1.400 . S
C743 C744 1.398 . S
C743 C749 1.491 . S
C744 H735 0.950 . S
C744 C743 1.398 . S
C744 C745 1.391 . S
C745 H733 0.950 . S
C745 C741 1.393 . S
C745 C744 1.391 . S
C746 H736 0.950 . S
C746 C747 1.386 . S
C746 C748 1.391 . S
C747 C746 1.386 . S
C747 C751 1.393 . S
C748 H737 0.950 . S
C748 C746 1.391 . S
C748 C749 1.400 . S
C749 C743 1.491 . S
C749 C748 1.400 . S
C749 C750 1.398 . S
C750 H738 0.950 . S
C750 C749 1.398 . S
C750 C751 1.391 . S
C751 H739 0.950 . S
C751 C747 1.393 . S
C751 C750 1.391 . S
H752 C760 0.950 . S
H753 C765 0.950 . S
H754 C762 0.950 . S
H755 C764 0.950 . S
H756 C766 0.950 . S
H757 C768 0.950 . S
H758 C770 0.950 . S
H759 C771 0.950 . S
C760 H752 0.950 . S
C760 C761 1.386 . S
C760 C762 1.391 . S
C761 C760 1.386 . S
C761 C765 1.393 . S
C762 H754 0.950 . S
C762 C760 1.391 . S
C762 C763 1.400 . S
C763 C762 1.400 . S
C763 C764 1.398 . S
C763 C769 1.491 . S
C764 H755 0.950 . S
C764 C763 1.398 . S
C764 C765 1.391 . S
C765 H753 0.950 . S
C765 C761 1.393 . S
C765 C764 1.391 . S
C766 H756 0.950 . S
C766 C767 1.386 . S
C766 C768 1.391 . S
C767 C766 1.386 . S
C767 C771 1.393 . S
C768 H757 0.950 . S
C768 C766 1.391 . S
C768 C769 1.400 . S
C769 C763 1.491 . S
C769 C768 1.400 . S
C769 C770 1.398 . S
C770 H758 0.950 . S
C770 C769 1.398 . S
C770 C771 1.391 . S
C771 H759 0.950 . S
C771 C767 1.393 . S
C771 C770 1.391 . S
H772 C780 0.950 . S
H773 C785 0.950 . S
H774 C782 0.950 . S
H775 C784 0.950 . S
H776 C786 0.950 . S
H777 C788 0.950 . S
H778 C790 0.950 . S
H779 C791 0.950 . S
C780 H772 0.950 . S
C780 C781 1.386 . S
C780 C782 1.391 . S
C781 C780 1.386 . S
C781 C785 1.393 . S
C782 H774 0.950 . S
C782 C780 1.391 . S
C782 C783 1.400 . S
C783 C782 1.400 . S
C783 C784 1.398 . S
C783 C789 1.491 . S
C784 H775 0.950 . S
C784 C783 1.398 . S
C784 C785 1.391 . S
C785 H773 0.950 . S
C785 C781 1.393 . S
C785 C784 1.391 . S
C786 H776 0.950 . S
C786 C787 1.386 . S
C786 C788 1.391 . S
C787 C786 1.386 . S
C787 C791 1.393 . S
C788 H777 0.950 . S
C788 C786 1.391 . S
C788 C789 1.400 . S
C789 C783 1.491 . S
C789 C788 1.400 . S
C789 C790 1.398 . S
C790 H778 0.950 . S
C790 C789 1.398 . S
C790 C791 1.391 . S
C791 H779 0.950 . S
C791 C787 1.393 . S
C791 C790 1.391 . S
H792 C800 0.950 . S
H793 C805 0.950 . S
H794 C802 0.950 . S
H795 C804 0.950 . S
H796 C806 0.950 . S
H797 C808 0.950 . S
H798 C810 0.950 . S
H799 C811 0.950 . S
C800 H792 0.950 . S
C800 C801 1.386 . S
C800 C802 1.391 . S
C801 C800 1.386 . S
C801 C805 1.393 . S
C802 H794 0.950 . S
C802 C800 1.391 . S
C802 C803 1.400 . S
C803 C802 1.400 . S
C803 C804 1.398 . S
C803 C809 1.491 . S
C804 H795 0.950 . S
C804 C803 1.398 . S
C804 C805 1.391 . S
C805 H793 0.950 . S
C805 C801 1.393 . S
C805 C804 1.391 . S
C806 H796 0.950 . S
C806 C807 1.386 . S
C806 C808 1.391 . S
C807 C806 1.386 . S
C807 C811 1.393 . S
C808 H797 0.950 . S
C808 C806 1.391 . S
C808 C809 1.400 . S
C809 C803 1.491 . S
C809 C808 1.400 . S
C809 C810 1.398 . S
C810 H798 0.950 . S
C810 C809 1.398 . S
C810 C811 1.391 . S
C811 H799 0.950 . S
C811 C807 1.393 . S
C811 C810 1.391 . S
H812 C820 0.950 . S
H813 C825 0.950 . S
H814 C822 0.950 . S
H815 C824 0.950 . S
H816 C826 0.950 1_455 S
H817 C828 0.950 . S
H818 C830 0.950 . S
H819 C831 0.950 . S
C820 H812 0.950 . S
C820 C821 1.386 . S
C820 C822 1.391 . S
C821 C820 1.386 . S
C821 C825 1.393 . S
C822 H814 0.950 . S
C822 C820 1.391 . S
C822 C823 1.400 . S
C823 C822 1.400 . S
C823 C824 1.398 . S
C823 C829 1.491 . S
C824 H815 0.950 . S
C824 C823 1.398 . S
C824 C825 1.391 . S
C825 H813 0.950 . S
C825 C821 1.393 . S
C825 C824 1.391 . S
C826 H816 0.950 1_655 S
C826 C827 1.386 . S
C826 C828 1.391 . S
C827 C826 1.386 . S
C827 C831 1.393 . S
C828 H817 0.950 . S
C828 C826 1.391 . S
C828 C829 1.400 . S
C829 C823 1.491 . S
C829 C828 1.400 . S
C829 C830 1.398 . S
C830 H818 0.950 . S
C830 C829 1.398 . S
C830 C831 1.391 . S
C831 H819 0.950 . S
C831 C827 1.393 . S
C831 C830 1.391 . S
H832 C840 0.950 . S
H833 C845 0.950 . S
H834 C842 0.950 . S
H835 C844 0.950 . S
H836 C846 0.950 . S
H837 C848 0.950 . S
H838 C850 0.950 . S
H839 C851 0.950 . S
C840 H832 0.950 . S
C840 C841 1.386 . S
C840 C842 1.391 . S
C841 C840 1.386 . S
C841 C845 1.393 . S
C842 H834 0.950 . S
C842 C840 1.391 . S
C842 C843 1.400 . S
C843 C842 1.400 . S
C843 C844 1.398 . S
C843 C849 1.491 . S
C844 H835 0.950 . S
C844 C843 1.398 . S
C844 C845 1.391 . S
C845 H833 0.950 . S
C845 C841 1.393 . S
C845 C844 1.391 . S
C846 H836 0.950 . S
C846 C847 1.386 . S
C846 C848 1.391 . S
C847 C846 1.386 . S
C847 C851 1.393 . S
C848 H837 0.950 . S
C848 C846 1.391 . S
C848 C849 1.400 . S
C849 C843 1.491 . S
C849 C848 1.400 . S
C849 C850 1.398 . S
C850 H838 0.950 . S
C850 C849 1.398 . S
C850 C851 1.391 . S
C851 H839 0.950 . S
C851 C847 1.393 . S
C851 C850 1.391 . S
H852 C860 0.950 . S
H853 C865 0.950 . S
H854 C862 0.950 . S
H855 C864 0.950 . S
H856 C866 0.950 . S
H857 C868 0.950 . S
H858 C870 0.950 . S
H859 C871 0.950 . S
C860 H852 0.950 . S
C860 C861 1.386 . S
C860 C862 1.391 . S
C861 C860 1.386 . S
C861 C865 1.393 . S
C862 H854 0.950 . S
C862 C860 1.391 . S
C862 C863 1.400 . S
C863 C862 1.400 . S
C863 C864 1.398 . S
C863 C869 1.491 . S
C864 H855 0.950 . S
C864 C863 1.398 . S
C864 C865 1.391 . S
C865 H853 0.950 . S
C865 C861 1.393 . S
C865 C864 1.391 . S
C866 H856 0.950 . S
C866 C867 1.386 . S
C866 C868 1.391 . S
C867 C866 1.386 . S
C867 C871 1.393 . S
C868 H857 0.950 . S
C868 C866 1.391 . S
C868 C869 1.400 . S
C869 C863 1.491 . S
C869 C868 1.400 . S
C869 C870 1.398 . S
C870 H858 0.950 . S
C870 C869 1.398 . S
C870 C871 1.391 . S
C871 H859 0.950 . S
C871 C867 1.393 . S
C871 C870 1.391 . S
H872 C880 0.950 . S
H873 C885 0.950 . S
H874 C882 0.950 . S
H875 C884 0.950 . S
H876 C886 0.950 . S
H877 C888 0.950 . S
H878 C890 0.950 . S
H879 C891 0.950 . S
C880 H872 0.950 . S
C880 C881 1.386 . S
C880 C882 1.391 . S
C881 C880 1.386 . S
C881 C885 1.393 . S
C882 H874 0.950 . S
C882 C880 1.391 . S
C882 C883 1.400 . S
C883 C882 1.400 . S
C883 C884 1.398 . S
C883 C889 1.491 . S
C884 H875 0.950 . S
C884 C883 1.398 . S
C884 C885 1.391 . S
C885 H873 0.950 . S
C885 C881 1.393 . S
C885 C884 1.391 . S
C886 H876 0.950 . S
C886 C887 1.386 . S
C886 C888 1.391 . S
C887 C886 1.386 . S
C887 C891 1.393 . S
C888 H877 0.950 . S
C888 C886 1.391 . S
C888 C889 1.400 . S
C889 C883 1.491 . S
C889 C888 1.400 . S
C889 C890 1.398 . S
C890 H878 0.950 . S
C890 C889 1.398 . S
C890 C891 1.391 . S
C891 H879 0.950 . S
C891 C887 1.393 . S
C891 C890 1.391 . S
H892 C900 0.950 . S
H893 C905 0.950 . S
H894 C902 0.950 . S
H895 C904 0.950 . S
H896 C906 0.950 . S
H897 C908 0.950 . S
H898 C910 0.950 . S
H899 C911 0.950 . S
C900 H892 0.950 . S
C900 C901 1.386 . S
C900 C902 1.391 . S
C901 C900 1.386 . S
C901 C905 1.393 . S
C902 H894 0.950 . S
C902 C900 1.391 . S
C902 C903 1.400 . S
C903 C902 1.400 . S
C903 C904 1.398 . S
C903 C909 1.491 . S
C904 H895 0.950 . S
C904 C903 1.398 . S
C904 C905 1.391 . S
C905 H893 0.950 . S
C905 C901 1.393 . S
C905 C904 1.391 . S
C906 H896 0.950 . S
C906 C907 1.386 . S
C906 C908 1.391 . S
C907 C906 1.386 . S
C907 C911 1.393 . S
C908 H897 0.950 . S
C908 C906 1.391 . S
C908 C909 1.400 . S
C909 C903 1.491 . S
C909 C908 1.400 . S
C909 C910 1.398 . S
C910 H898 0.950 . S
C910 C909 1.398 . S
C910 C911 1.391 . S
C911 H899 0.950 . S
C911 C907 1.393 . S
C911 C910 1.391 . S
H912 C920 0.950 . S
H913 C925 0.950 . S
H914 C922 0.950 . S
H915 C924 0.950 . S
H916 C926 0.950 . S
H917 C928 0.950 . S
H918 C930 0.950 . S
H919 C931 0.950 1_655 S
C920 H912 0.950 . S
C920 C921 1.386 . S
C920 C922 1.391 . S
C921 C920 1.386 . S
C921 C925 1.393 . S
C922 H914 0.950 . S
C922 C920 1.391 . S
C922 C923 1.400 . S
C923 C922 1.400 . S
C923 C924 1.398 . S
C923 C929 1.491 . S
C924 H915 0.950 . S
C924 C923 1.398 . S
C924 C925 1.391 . S
C925 H913 0.950 . S
C925 C921 1.393 . S
C925 C924 1.391 . S
C926 H916 0.950 . S
C926 C927 1.386 . S
C926 C928 1.391 . S
C927 C926 1.386 . S
C927 C931 1.393 . S
C928 H917 0.950 . S
C928 C926 1.391 . S
C928 C929 1.400 . S
C929 C923 1.491 . S
C929 C928 1.400 . S
C929 C930 1.398 . S
C930 H918 0.950 . S
C930 C929 1.398 . S
C930 C931 1.391 . S
C931 H919 0.950 1_455 S
C931 C927 1.393 . S
C931 C930 1.391 . S
H932 C940 0.950 . S
H933 C945 0.950 . S
H934 C942 0.950 . S
H935 C944 0.950 . S
H936 C946 0.950 . S
H937 C948 0.950 . S
H938 C950 0.950 . S
H939 C951 0.950 . S
C940 H932 0.950 . S
C940 C941 1.386 . S
C940 C942 1.391 . S
C941 C940 1.386 . S
C941 C945 1.393 . S
C942 H934 0.950 . S
C942 C940 1.391 . S
C942 C943 1.400 . S
C943 C942 1.400 . S
C943 C944 1.398 . S
C943 C949 1.491 . S
C944 H935 0.950 . S
C944 C943 1.398 . S
C944 C945 1.391 . S
C945 H933 0.950 . S
C945 C941 1.393 . S
C945 C944 1.391 . S
C946 H936 0.950 . S
C946 C947 1.386 . S
C946 C948 1.391 . S
C947 C946 1.386 . S
C947 C951 1.393 . S
C948 H937 0.950 . S
C948 C946 1.391 . S
C948 C949 1.400 . S
C949 C943 1.491 . S
C949 C948 1.400 . S
C949 C950 1.398 . S
C950 H938 0.950 . S
C950 C949 1.398 . S
C950 C951 1.391 . S
C951 H939 0.950 . S
C951 C947 1.393 . S
C951 C950 1.391 . S
C481 C1 1.196 . S
C487 C329 1.238 . S
C501 C40 1.212 . S
C507 C369 1.238 . S
C527 C394 2.373 . S
C521 C99 2.439 . S
C541 C118 2.427 . S
C547 C434 2.372 . S
C567 C365 1.824 . S
C561 C16 1.755 . S
C587 C325 1.825 . S
C581 C60 1.763 . S
C607 C456 1.676 . S
C601 C79 1.699 . S
C627 C416 1.640 . S
C621 C138 1.665 . S
C641 C21 1.376 . S
C647 C458 1.406 . S
C667 C375 2.162 . S
C661 C94 2.198 . S
C681 C133 2.167 . S
C687 C335 2.130 . S
C701 C55 1.360 . S
C707 C418 1.390 . S
C727 C338 1.237 . S
C721 C157 1.202 . S
C741 C196 1.226 . S
C747 C378 1.253 . S
C761 C255 2.434 . S
C767 C415 2.370 . S
C781 C289 2.421 . S
C787 C455 2.355 . S
C801 C172 1.754 . S
C807 C376 1.822 . S
C827 C336 1.826 . S
C821 C216 1.744 . S
C847 C445 1.685 . S
C841 C235 1.703 . S
C867 C405 1.641 . S
C861 C294 1.671 . S
C881 C177 1.387 . S
C887 C449 1.405 . S
C907 C354 2.160 . S
C901 C250 2.198 . S
C927 C314 2.127 . S
C921 C274 2.167 . S
C941 C211 1.374 . S
C947 C409 1.403 . S
