# Generated by pormake.
# Topology zzz, (3,6)-cn, num edge types: 1
# Building blocks:
#     Node 0, Type 0, BuildingBlock: BETDIP_clean_linker_0, # of connection points: 3
#     Node 1, Type 0, BuildingBlock: BETDIP_clean_linker_0, # of connection points: 3
#     Node 2, Type 0, BuildingBlock: BETDIP_clean_linker_0, # of connection points: 3
#     Node 3, Type 0, BuildingBlock: BETDIP_clean_linker_0, # of connection points: 3
#     Node 4, Type 0, BuildingBlock: BETDIP_clean_linker_0, # of connection points: 3
#     Node 5, Type 0, BuildingBlock: BETDIP_clean_linker_0, # of connection points: 3
#     Node 6, Type 0, BuildingBlock: BETDIP_clean_linker_0, # of connection points: 3
#     Node 7, Type 0, BuildingBlock: BETDIP_clean_linker_0, # of connection points: 3
#     Node 8, Type 1, BuildingBlock: MIFKUJ_clean_sbu_0, # of connection points: 6
#     Node 9, Type 1, BuildingBlock: MIFKUJ_clean_sbu_0, # of connection points: 6
#     Node 10, Type 1, BuildingBlock: MIFKUJ_clean_sbu_0, # of connection points: 6
#     Node 11, Type 1, BuildingBlock: MIFKUJ_clean_sbu_0, # of connection points: 6
#     Edge 12, Type (0, 1), BuildingBlock: OJICUG_clean_linker_0, # of connection points: 2
#     Edge 13, Type (0, 1), BuildingBlock: OJICUG_clean_linker_0, # of connection points: 2
#     Edge 14, Type (0, 1), BuildingBlock: OJICUG_clean_linker_0, # of connection points: 2
#     Edge 15, Type (0, 1), BuildingBlock: OJICUG_clean_linker_0, # of connection points: 2
#     Edge 16, Type (0, 1), BuildingBlock: OJICUG_clean_linker_0, # of connection points: 2
#     Edge 17, Type (0, 1), BuildingBlock: OJICUG_clean_linker_0, # of connection points: 2
#     Edge 18, Type (0, 1), BuildingBlock: OJICUG_clean_linker_0, # of connection points: 2
#     Edge 19, Type (0, 1), BuildingBlock: OJICUG_clean_linker_0, # of connection points: 2
#     Edge 20, Type (0, 1), BuildingBlock: OJICUG_clean_linker_0, # of connection points: 2
#     Edge 21, Type (0, 1), BuildingBlock: OJICUG_clean_linker_0, # of connection points: 2
#     Edge 22, Type (0, 1), BuildingBlock: OJICUG_clean_linker_0, # of connection points: 2
#     Edge 23, Type (0, 1), BuildingBlock: OJICUG_clean_linker_0, # of connection points: 2
#     Edge 24, Type (0, 1), BuildingBlock: OJICUG_clean_linker_0, # of connection points: 2
#     Edge 25, Type (0, 1), BuildingBlock: OJICUG_clean_linker_0, # of connection points: 2
#     Edge 26, Type (0, 1), BuildingBlock: OJICUG_clean_linker_0, # of connection points: 2
#     Edge 27, Type (0, 1), BuildingBlock: OJICUG_clean_linker_0, # of connection points: 2
#     Edge 28, Type (0, 1), BuildingBlock: OJICUG_clean_linker_0, # of connection points: 2
#     Edge 29, Type (0, 1), BuildingBlock: OJICUG_clean_linker_0, # of connection points: 2
#     Edge 30, Type (0, 1), BuildingBlock: OJICUG_clean_linker_0, # of connection points: 2
#     Edge 31, Type (0, 1), BuildingBlock: OJICUG_clean_linker_0, # of connection points: 2
#     Edge 32, Type (0, 1), BuildingBlock: OJICUG_clean_linker_0, # of connection points: 2
#     Edge 33, Type (0, 1), BuildingBlock: OJICUG_clean_linker_0, # of connection points: 2
#     Edge 34, Type (0, 1), BuildingBlock: OJICUG_clean_linker_0, # of connection points: 2
#     Edge 35, Type (0, 1), BuildingBlock: OJICUG_clean_linker_0, # of connection points: 2
# Relax obj value: 0.122
# Max RMSD: 0.123
# Mean RMSD: 0.084
data_MOF--net-zzz--node1-MIFKUJ_clean_sbu_0--node2-BETDIP_clean_linker_0--edge1-OJICUG_clean_linker_0
_symmetry_space_group_name_H-M    P1
_symmetry_Int_Tables_number       1
_symmetry_cell_setting            triclinic
loop_
_symmetry_equiv_pos_as_xyz
'x, y, z'
_cell_length_a     37.057154
_cell_length_b     37.316962
_cell_length_c     12.011766
_cell_angle_alpha  89.998702
_cell_angle_beta   89.63895
_cell_angle_gamma 90.354547
loop_
_atom_site_label
_atom_site_type_symbol
_atom_site_fract_x
_atom_site_fract_y
_atom_site_fract_z
_atom_type_partial_charge
H0 H 0.72261 0.53087 0.28035 0.0
H1 H 0.71854 0.54864 0.92603 0.0
H2 H 0.81809 0.56247 0.09858 0.0
H3 H 0.65894 0.5861 0.05243 0.0
C4 C 0.65452 0.55736 0.04501 0.0
C5 C 0.73564 0.53933 0.20369 0.0
C6 C 0.77275 0.54803 0.20237 0.0
C7 C 0.71552 0.54175 0.10474 0.0
C8 C 0.73313 0.54987 0.00389 0.0
C9 C 0.76996 0.55744 0.0029 0.0
C10 C 0.78909 0.5581 0.10207 0.0
N11 N 0.67797 0.53436 0.10427 0.0
H12 H 0.00585 0.71565 0.28813 0.0
H13 H 0.01159 0.71753 0.92854 0.0
H14 H 0.02032 0.81526 0.11381 0.0
H15 H 0.95192 0.66819 0.03049 0.0
C16 C 0.97939 0.65814 0.03119 0.0
C17 C 0.00927 0.73028 0.21086 0.0
C18 C 0.01266 0.76782 0.21188 0.0
C19 C 0.00878 0.71199 0.10802 0.0
C20 C 0.01246 0.73131 0.00792 0.0
C21 C 0.01776 0.76836 0.01071 0.0
C22 C 0.01778 0.78622 0.11231 0.0
N23 N 0.00463 0.67426 0.10445 0.0
H24 H 0.78041 0.98124 0.28485 0.0
H25 H 0.78358 0.96989 0.92679 0.0
H26 H 0.68215 0.97206 0.09773 0.0
H27 H 0.83572 0.92391 0.02493 0.0
C28 C 0.84505 0.9514 0.03511 0.0
C29 C 0.76666 0.97735 0.20642 0.0
C30 C 0.72864 0.97565 0.20345 0.0
C31 C 0.78676 0.9734 0.10674 0.0
C32 C 0.7686 0.97053 0.00455 0.0
C33 C 0.73106 0.97032 0.00258 0.0
C34 C 0.71145 0.97162 0.10139 0.0
N35 N 0.82506 0.97409 0.10761 0.0
H36 H 0.48567 0.78496 0.28582 0.0
H37 H 0.48435 0.78977 0.92628 0.0
H38 H 0.46919 0.68935 0.09286 0.0
H39 H 0.54477 0.83117 0.03472 0.0
C40 C 0.51867 0.84432 0.03767 0.0
C41 C 0.48214 0.77197 0.20596 0.0
C42 C 0.47703 0.73458 0.2001 0.0
C43 C 0.48467 0.79209 0.10651 0.0
C44 C 0.48155 0.77473 0.0031 0.0
C45 C 0.47509 0.73795 -0.00126 0.0
C46 C 0.47257 0.71827 0.09693 0.0
N47 N 0.49178 0.82945 0.10905 0.0
H48 H 0.29048 0.46424 0.93231 0.0
H49 H 0.27729 0.46154 0.28855 0.0
H50 H 0.1892 0.4321 0.07961 0.0
H51 H 0.30999 0.52357 0.21274 0.0
C52 C 0.3311 0.5038 0.20055 0.0
C53 C 0.27452 0.45692 0.00479 0.0
C54 C 0.23815 0.4464 -0.00747 0.0
C55 C 0.28906 0.46148 0.11184 0.0
C56 C 0.26708 0.45579 0.20605 0.0
C57 C 0.23134 0.44455 0.1937 0.0
C58 C 0.21775 0.43819 0.08764 0.0
N59 N 0.32454 0.47518 0.12523 0.0
H60 H 0.00225 0.30162 0.9309 0.0
H61 H 0.99749 0.27286 0.27984 0.0
H62 H 0.01087 0.19148 0.03389 0.0
H63 H 0.94673 0.3197 0.23927 0.0
C64 C 0.96997 0.33721 0.22629 0.0
C65 C 0.00358 0.28168 -0.00375 0.0
C66 C 0.00799 0.24517 0.96931 0.0
C67 C 0.99959 0.29188 0.1091 0.0
C68 C 1.00009 0.26547 0.19291 0.0
C69 C 0.00468 0.22959 0.16486 0.0
C70 C 0.00858 0.21976 0.05431 0.0
N71 N 0.99464 0.32834 0.13949 0.0
H72 H 0.22105 0.05371 0.94455 0.0
H73 H 0.22048 0.05167 0.30295 0.0
H74 H 0.3183 0.07529 0.12751 0.0
H75 H 0.18791 0.98985 0.18449 0.0
C76 C 0.1693 0.01228 0.18642 0.0
C77 C 0.23464 0.05894 0.02253 0.0
C78 C 0.27205 0.06641 0.0233 0.0
C79 C 0.21567 0.05477 0.12388 0.0
C80 C 0.23426 0.05741 0.22503 0.0
C81 C 0.271 0.06539 0.22533 0.0
C82 C 0.28922 0.07156 0.12536 0.0
N83 N 0.17909 0.04345 0.12521 0.0
H84 H 0.50348 0.21964 0.92812 0.0
H85 H 0.51396 0.22233 0.28635 0.0
H86 H 0.4879 0.3179 0.10914 0.0
H87 H 0.56762 0.17999 0.19082 0.0
C88 C 0.54262 0.16491 0.1814 0.0
C89 C 0.5015 0.23398 0.0063 0.0
C90 C 0.49385 0.27094 0.00691 0.0
C91 C 0.50833 0.21608 0.10751 0.0
C92 C 0.50808 0.23547 0.20814 0.0
C93 C 0.50042 0.27196 0.20747 0.0
C94 C 0.49249 0.28916 0.10812 0.0
N95 N 0.51617 0.17889 0.10832 0.0
Zn96 Zn 0.99426 0.0612 0.60699 0.0
Zn97 Zn 0.00884 0.94793 0.61412 0.0
C98 C 0.98615 0.12879 0.70163 0.0
O99 O 0.9541 0.12197 0.6602 0.0
C100 C 0.02099 0.89156 0.47863 0.0
O101 O 0.05203 0.89935 0.5254 0.0
O102 O 0.97924 0.08843 0.47233 0.0
O103 O 0.03682 0.03031 0.54978 0.0
O104 O 0.05244 0.97311 0.55686 0.0
C105 C 0.00707 0.10664 0.44502 0.0
O106 O 0.03758 0.10101 0.49701 0.0
O107 O 0.00963 0.10387 0.7021 0.0
C108 C 0.99789 0.88785 0.73752 0.0
O109 O 0.96737 0.89153 0.68401 0.0
O110 O 0.02119 0.91302 0.73342 0.0
O111 O 0.97185 0.98209 0.67252 0.0
O112 O 0.95216 0.03706 0.68835 0.0
O113 O 0.99473 0.91322 0.49162 0.0
C114 C 0.05893 0.00516 0.52724 0.0
C115 C 0.94848 0.00387 0.70928 0.0
Zn116 Zn 0.44527 0.0109 0.61356 0.0
Zn117 Zn 0.55306 0.00871 0.6223 0.0
C118 C 0.38937 0.01626 0.76012 0.0
O119 O 0.38747 0.98347 0.72048 0.0
C120 C 0.60937 0.01686 0.47434 0.0
O121 O 0.61084 0.04629 0.53419 0.0
O122 O 0.40356 0.00672 0.50832 0.0
O123 O 0.47923 0.04449 0.52637 0.0
O124 O 0.53142 0.05717 0.60561 0.0
C125 C 0.39095 0.03821 0.49648 0.0
O126 O 0.40894 0.06553 0.53788 0.0
O127 O 0.41753 0.03497 0.73887 0.0
C128 C 0.61222 0.98141 0.72208 0.0
O129 O 0.60077 0.95488 0.65949 0.0
O130 O 0.5934 0.00972 0.7301 0.0
O131 O 0.52054 0.96995 0.67909 0.0
O132 O 0.46144 0.96264 0.67505 0.0
O133 O 0.58176 0.99646 0.48403 0.0
C134 C 0.50859 0.06233 0.52916 0.0
C135 C 0.49259 0.95148 0.70138 0.0
Zn136 Zn 0.51023 0.45175 0.6049 0.0
Zn137 Zn 0.48919 0.55748 0.6157 0.0
C138 C 0.51725 0.39348 0.7415 0.0
O139 O 0.54985 0.39891 0.70089 0.0
C140 C 0.46915 0.60901 0.46687 0.0
O141 O 0.43969 0.60238 0.52495 0.0
O142 O 0.52482 0.4146 0.4927 0.0
O143 O 0.46819 0.47676 0.52736 0.0
O144 O 0.44582 0.52653 0.59928 0.0
C145 C 0.49753 0.3941 0.47915 0.0
O146 O 0.46625 0.40368 0.52144 0.0
O147 O 0.49324 0.41721 0.72497 0.0
C148 C 0.49966 0.62265 0.71489 0.0
O149 O 0.529 0.61975 0.65368 0.0
O150 O 0.47806 0.59614 0.7229 0.0
O151 O 0.53309 0.53423 0.67552 0.0
O152 O 0.55298 0.47867 0.67175 0.0
O153 O 0.49595 0.58798 0.47753 0.0
C154 C 0.44463 0.50142 0.52842 0.0
C155 C 0.5569 0.51132 0.69962 0.0
Zn156 Zn 0.06177 0.49945 0.60266 0.0
Zn157 Zn 0.94718 0.51175 0.61737 0.0
C158 C 0.1262 0.49403 0.71279 0.0
O159 O 0.12853 0.52496 0.66083 0.0
C160 C 0.89121 0.5078 0.47547 0.0
O161 O 0.8887 0.4791 0.53848 0.0
O162 O 0.09385 0.49967 0.46928 0.0
O163 O 0.01743 0.46729 0.56821 0.0
O164 O 0.95817 0.46065 0.58512 0.0
C165 C 0.10571 0.46799 0.45597 0.0
O166 O 0.09043 0.44153 0.51138 0.0
O167 O 0.09635 0.47684 0.71096 0.0
C168 C 0.88945 0.54603 0.71902 0.0
O169 O 0.89947 0.57058 0.64656 0.0
O170 O 0.90897 0.5184 0.73386 0.0
O171 O 0.99515 0.53466 0.64845 0.0
O172 O 0.05133 0.54881 0.66891 0.0
O173 O 0.9195 0.52743 0.48205 0.0
C174 C 0.98858 0.44915 0.55133 0.0
C175 C 0.01854 0.55569 0.68973 0.0
C176 C 0.14251 0.98569 0.35715 0.0
C177 C 0.14215 0.01305 0.27724 0.0
H178 H 0.11757 0.96267 0.50111 0.0
C179 C 0.11626 0.04024 0.28624 0.0
H180 H 0.16242 0.96458 0.35271 0.0
C181 C 0.09014 0.03903 0.37138 0.0
C182 C 0.08991 0.01101 0.44998 0.0
H183 H 0.11541 0.06169 0.22559 0.0
H184 H 0.06912 0.05888 0.37139 0.0
C185 C 0.11693 0.98478 0.44273 0.0
C186 C 0.55766 0.13228 0.3551 0.0
C187 C 0.53346 0.13793 0.26759 0.0
H188 H 0.56853 0.10488 0.50722 0.0
C189 C 0.50059 0.11898 0.26692 0.0
H190 H 0.58307 0.14676 0.35798 0.0
C191 C 0.49224 0.09469 0.35247 0.0
C192 C 0.51651 0.08908 0.44057 0.0
H193 H 0.48136 0.1229 0.20058 0.0
H194 H 0.46682 0.08025 0.34926 0.0
C195 C 0.54925 0.10832 0.44083 0.0
C196 C 0.38748 0.47621 0.27826 0.0
C197 C 0.36099 0.50295 0.2813 0.0
H198 H 0.43471 0.45456 0.35458 0.0
C199 C 0.36184 0.52861 0.3665 0.0
H200 H 0.38739 0.456 0.21358 0.0
C201 C 0.38855 0.52763 0.4477 0.0
C202 C 0.41523 0.50101 0.44527 0.0
H203 H 0.34155 0.54936 0.371 0.0
H204 H 0.38825 0.54788 0.51227 0.0
C205 C 0.41442 0.47528 0.35951 0.0
C206 C 0.95419 0.36687 0.40412 0.0
C207 C 0.97775 0.36444 0.31266 0.0
H208 H 0.93993 0.39472 0.55319 0.0
C209 C 0.00775 0.38762 0.3068 0.0
H210 H 0.93107 0.34907 0.41131 0.0
C211 C 0.01298 0.41389 0.38904 0.0
C212 C 0.98845 0.41713 0.47846 0.0
H213 H 0.02647 0.3862 0.23736 0.0
H214 H 0.0349 0.43291 0.3789 0.0
C215 C 0.95946 0.39282 0.48596 0.0
C216 C 0.88561 0.94248 0.87184 0.0
C217 C 0.87131 0.9657 0.95252 0.0
H218 H 0.91996 0.93669 0.72931 0.0
C219 C 0.88116 0.00211 0.94961 0.0
H220 H 0.87803 0.91438 0.8711 0.0
C221 C 0.90536 0.01483 0.86823 0.0
C222 C 0.92025 0.99134 0.78871 0.0
H223 H 0.87032 0.02073 0.01017 0.0
H224 H 0.91305 0.04288 0.86925 0.0
C225 C 0.90971 0.95517 0.79081 0.0
C226 C 0.47551 0.8848 0.93518 0.0
C227 C 0.51006 0.86998 0.9476 0.0
H228 H 0.44248 0.92188 0.84514 0.0
C229 C 0.53721 0.87918 0.87079 0.0
H230 H 0.4539 0.87782 -0.00759 0.0
C231 C 0.5306 0.90381 0.78611 0.0
C232 C 0.49669 0.9201 0.77616 0.0
H233 H 0.56391 0.8677 0.87726 0.0
H234 H 0.55245 0.91082 0.73006 0.0
C235 C 0.46886 0.90965 0.84993 0.0
C236 C 0.61366 0.56972 0.88739 0.0
C237 C 0.63144 0.5444 0.95307 0.0
H238 H 0.57736 0.5792 0.75387 0.0
C239 C 0.62747 0.5078 0.92784 0.0
H240 H 0.61666 0.59812 0.90405 0.0
C241 C 0.60487 0.4968 0.84067 0.0
C242 C 0.5859 0.52225 0.77763 0.0
H243 H 0.64125 0.48769 0.97642 0.0
H244 H 0.60117 0.4684 0.82567 0.0
C245 C 0.59129 0.55883 0.80073 0.0
C246 C 0.96372 0.61148 0.89226 0.0
C247 C 0.99034 0.63194 0.94526 0.0
H248 H 0.95243 0.57097 0.77264 0.0
C249 C 0.02651 0.62829 0.91132 0.0
H250 H 0.93563 0.61379 0.91673 0.0
C251 C 0.0357 0.60442 0.82555 0.0
C252 C 0.00893 0.5835 0.77329 0.0
H253 H 0.04759 0.64415 0.94981 0.0
H254 H 0.06378 0.60202 0.80136 0.0
C255 C 0.97309 0.58731 0.80846 0.0
C256 C 0.0368 0.18004 0.25384 0.0
C257 C 0.00575 0.20111 0.24815 0.0
H258 H 0.06087 0.13276 0.31845 0.0
C259 C 0.97436 0.19071 0.30573 0.0
H260 H 0.06098 0.18743 0.20784 0.0
C261 C 0.97397 0.15891 0.36723 0.0
C262 C 0.00507 0.13766 0.37149 0.0
H263 H 0.94998 0.20647 0.29993 0.0
H264 H 0.94975 0.15126 0.41249 0.0
C265 C 0.0365 0.14863 0.31532 0.0
C266 C 0.30258 0.02348 0.3483 0.0
C267 C 0.29321 0.05896 0.32333 0.0
H268 H 0.34175 0.9888 0.42141 0.0
C269 C 0.31347 0.08732 0.36687 0.0
H270 H 0.28751 1.00128 0.31301 0.0
C271 C 0.34451 0.08029 0.42733 0.0
C272 C 0.35595 0.04479 0.44361 0.0
H273 H 0.30692 0.11479 0.34639 0.0
H274 H 0.36055 0.10281 0.45577 0.0
C275 C 0.33393 0.01638 0.40795 0.0
C276 C 0.53463 0.31485 0.32138 0.0
C277 C 0.50308 0.29445 0.30651 0.0
H278 H 0.55764 0.36317 0.38708 0.0
C279 C 0.47113 0.30454 0.35993 0.0
H280 H 0.55932 0.3077 0.27818 0.0
C281 C 0.46991 0.33641 0.41984 0.0
C282 C 0.5006 0.3587 0.42637 0.0
H283 H 0.4464 0.2895 0.34693 0.0
H284 H 0.44432 0.34441 0.45579 0.0
C285 C 0.53344 0.34686 0.38131 0.0
C286 C 0.1969 0.483 0.32238 0.0
C287 C 0.20489 0.4484 0.28418 0.0
H288 H 0.1584 0.51665 0.40407 0.0
C289 C 0.18131 0.41996 0.3089 0.0
H290 H 0.21446 0.50542 0.30198 0.0
C291 C 0.14913 0.42639 0.36584 0.0
C292 C 0.13987 0.46144 0.39714 0.0
H293 H 0.18678 0.39322 0.27816 0.0
H294 H 0.13089 0.40414 0.38154 0.0
C295 C 0.16447 0.48955 0.37796 0.0
C296 C 0.04608 0.81612 0.89779 0.0
C297 C 0.01835 0.79059 0.91038 0.0
H298 H 0.06099 0.86776 0.83501 0.0
C299 C 0.9862 0.79453 0.85137 0.0
H300 H 0.07103 0.81345 0.94355 0.0
C301 C 0.98012 0.8258 0.79133 0.0
C302 C 0.0062 0.85335 0.78972 0.0
H303 H 0.96439 0.77528 0.86115 0.0
H304 H 0.95416 0.8292 0.75188 0.0
C305 C 0.04 0.84745 0.83805 0.0
C306 C 0.69501 0.94267 0.85414 0.0
C307 C 0.7106 0.97351 0.8999 0.0
H308 H 0.65092 0.92109 0.76129 0.0
C309 C 0.69666 0.00733 0.87411 0.0
H310 H 0.70506 0.91637 0.87563 0.0
C311 C 0.6651 0.01007 0.81276 0.0
C312 C 0.64753 0.97899 0.77541 0.0
H313 H 0.70809 0.03132 0.91102 0.0
H314 H 0.65359 0.03632 0.7992 0.0
C315 C 0.66372 0.94542 0.79105 0.0
C316 C 0.4488 0.69316 0.87233 0.0
C317 C 0.4766 0.71774 0.89463 0.0
H318 H 0.4347 0.64294 0.7991 0.0
C319 C 0.51007 0.71426 0.84095 0.0
H320 H 0.42283 0.69553 0.91359 0.0
C321 C 0.51711 0.68394 0.77695 0.0
C322 C 0.49072 0.65699 0.76676 0.0
H323 H 0.5319 0.73286 0.85825 0.0
H324 H 0.54395 0.68045 0.74252 0.0
C325 C 0.45589 0.66278 0.80917 0.0
C326 C 0.80997 0.58695 0.86577 0.0
C327 C 0.79138 0.55613 0.90077 0.0
H328 H 0.85635 0.60771 0.77971 0.0
C329 C 0.8028 0.52227 0.86483 0.0
H330 H 0.80192 0.61316 0.89537 0.0
C331 C 0.83463 0.51899 0.80382 0.0
C332 C 0.85478 0.54963 0.77609 0.0
H333 H 0.78912 0.49819 0.89348 0.0
H334 H 0.8441 0.4925 0.78169 0.0
C335 C 0.84136 0.58373 0.8021 0.0
C336 C 0.03629 0.20792 0.82513 0.0
C337 C 0.00728 0.23012 0.85589 0.0
H338 H 0.05209 0.15712 0.75775 0.0
C339 C 0.9731 0.22282 0.81162 0.0
H340 H 0.06293 0.21292 0.85868 0.0
C341 C 0.96671 0.19057 0.75563 0.0
C342 C 0.99452 0.16536 0.74232 0.0
H343 H 0.95025 0.23933 0.83436 0.0
H344 H 0.93932 0.18422 0.73116 0.0
C345 C 0.02985 0.17538 0.77067 0.0
C346 C 0.32638 0.08103 0.9067 0.0
C347 C 0.296 0.05899 0.92682 0.0
H348 H 0.38028 0.08458 0.84102 0.0
C349 C 0.29508 0.02462 0.87979 0.0
H350 H 0.32785 0.10762 0.94265 0.0
C351 C 0.32525 0.01123 0.82389 0.0
C352 C 0.35695 0.03198 0.81316 0.0
H353 H 0.27239 0.00681 0.89511 0.0
H354 H 0.32415 0.98394 0.79334 0.0
C355 C 0.35666 0.0676 0.85067 0.0
C356 C 0.46682 0.31893 0.89146 0.0
C357 C 0.49449 0.29371 0.90645 0.0
H358 H 0.45249 0.37085 0.82993 0.0
C359 C 0.52778 0.29934 0.85324 0.0
H360 H 0.44104 0.31535 0.9332 0.0
C361 C 0.53466 0.33141 0.79691 0.0
C362 C 0.50826 0.35835 0.79207 0.0
H363 H 0.54973 0.28069 0.86515 0.0
H364 H 0.56137 0.33575 0.76214 0.0
C365 C 0.47366 0.35105 0.83484 0.0
C366 C 0.21794 0.48867 0.84701 0.0
C367 C 0.21746 0.45369 0.88997 0.0
H368 H 0.18898 0.52904 0.75938 0.0
C369 C 0.18922 0.43034 0.85919 0.0
H370 H 0.23902 0.50743 0.87018 0.0
C371 C 0.15979 0.44311 0.79913 0.0
C372 C 0.15857 0.47918 0.76652 0.0
H373 H 0.18825 0.40319 0.89107 0.0
H374 H 0.13739 0.42515 0.78242 0.0
C375 C 0.18878 0.50127 0.78568 0.0
C376 C 0.04288 0.79974 0.36436 0.0
C377 C 0.01055 0.79021 0.31233 0.0
H378 H 0.07168 0.8396 0.45552 0.0
C379 C 0.9802 0.81232 0.3258 0.0
H380 H 0.06686 0.7837 0.35218 0.0
C381 C 0.98306 0.84501 0.38225 0.0
C382 C 0.01635 0.85601 0.42598 0.0
H383 H 0.95526 0.80593 0.28336 0.0
H384 H 0.95975 0.86233 0.38682 0.0
C385 C 0.04576 0.8323 0.4208 0.0
C386 C 0.67647 0.95808 0.32222 0.0
C387 C 0.70479 0.9824 0.30006 0.0
H388 H 0.6236 0.95012 0.39121 0.0
C389 C 0.70281 0.01716 0.34369 0.0
H390 H 0.67716 0.93126 0.28768 0.0
C391 C 0.67187 0.0282 0.40122 0.0
C392 C 0.6423 0.00471 0.41551 0.0
H393 H 0.72384 0.03663 0.32546 0.0
H394 H 0.67057 0.05561 0.43051 0.0
C395 C 0.64544 0.96915 0.37886 0.0
C396 C 0.44606 0.70021 0.34874 0.0
C397 C 0.47843 0.71012 0.29619 0.0
H398 H 0.41756 0.66017 0.44189 0.0
C399 C 0.50865 0.68774 0.30637 0.0
H400 H 0.42212 0.7164 0.33878 0.0
C401 C 0.50591 0.65495 0.36234 0.0
C402 C 0.47284 0.64394 0.40909 0.0
H403 H 0.53358 0.69433 0.26319 0.0
H404 H 0.52932 0.63776 0.36572 0.0
C405 C 0.44331 0.66752 0.40509 0.0
C406 C 0.82481 0.56578 0.32102 0.0
C407 C 0.79722 0.54092 0.29648 0.0
H408 H 0.87684 0.57453 0.39322 0.0
C409 C 0.79948 0.50607 0.33912 0.0
H410 H 0.82371 0.59284 0.28853 0.0
C411 C 0.83004 0.49551 0.3979 0.0
C412 C 0.85893 0.51956 0.41452 0.0
H413 H 0.77899 0.48622 0.3198 0.0
H414 H 0.83158 0.46804 0.42658 0.0
C415 C 0.85553 0.55512 0.37867 0.0
loop_
_geom_bond_atom_site_label_1
_geom_bond_atom_site_label_2
_geom_bond_distance
_geom_bond_site_symmetry_2
_ccdc_geom_bond_type
H0 C5 0.930 . S
H1 C8 0.930 . S
H2 C10 0.930 . S
H3 C4 1.016 . S
C4 H3 1.016 . S
C4 N11 1.286 1_556 S
C5 H0 0.930 . S
C5 C6 1.397 . S
C5 C7 1.361 . S
C6 C5 1.397 . S
C6 C10 1.390 . S
C7 C5 1.361 . S
C7 C8 1.393 1_554 S
C7 N11 1.413 . S
C8 H1 0.930 . S
C8 C7 1.393 1_556 S
C8 C9 1.399 . S
C9 C8 1.399 . S
C9 C10 1.381 1_556 S
C10 H2 0.930 . S
C10 C6 1.390 . S
C10 C9 1.381 1_554 S
N11 C4 1.286 1_554 S
N11 C7 1.413 . S
H12 C17 0.930 . S
H13 C20 0.930 . S
H14 C22 0.930 . S
H15 C16 1.016 . S
C16 H15 1.016 . S
C16 N23 1.286 1_656 S
C17 H12 0.930 . S
C17 C18 1.397 . S
C17 C19 1.361 . S
C18 C17 1.397 . S
C18 C22 1.390 1_455 S
C19 C17 1.361 . S
C19 C20 1.393 1_554 S
C19 N23 1.413 . S
C20 H13 0.930 . S
C20 C19 1.393 1_556 S
C20 C21 1.403 . S
C21 C20 1.403 . S
C21 C22 1.379 1_456 S
C22 H14 0.930 . S
C22 C18 1.390 1_655 S
C22 C21 1.379 1_654 S
N23 C16 1.286 1_454 S
N23 C19 1.413 . S
H24 C29 0.930 . S
H25 C32 0.930 . S
H26 C34 0.930 . S
H27 C28 1.016 . S
C28 H27 1.016 . S
C28 N35 1.286 1_556 S
C29 H24 0.930 . S
C29 C30 1.397 . S
C29 C31 1.361 . S
C30 C29 1.397 . S
C30 C34 1.390 . S
C31 C29 1.361 . S
C31 C32 1.393 1_554 S
C31 N35 1.413 . S
C32 H25 0.930 . S
C32 C31 1.393 1_556 S
C32 C33 1.399 . S
C33 C32 1.399 . S
C33 C34 1.381 1_556 S
C34 H26 0.930 . S
C34 C30 1.390 . S
C34 C33 1.381 1_554 S
N35 C28 1.286 1_554 S
N35 C31 1.413 . S
H36 C41 0.930 . S
H37 C44 0.930 . S
H38 C46 0.930 . S
H39 C40 1.016 . S
C40 H39 1.016 . S
C40 N47 1.286 1_556 S
C41 H36 0.930 . S
C41 C42 1.397 . S
C41 C43 1.361 . S
C42 C41 1.397 . S
C42 C46 1.390 . S
C43 C41 1.361 . S
C43 C44 1.393 1_554 S
C43 N47 1.413 . S
C44 H37 0.930 . S
C44 C43 1.393 1_556 S
C44 C45 1.399 . S
C45 C44 1.399 . S
C45 C46 1.381 1_556 S
C46 H38 0.930 . S
C46 C42 1.390 . S
C46 C45 1.381 1_554 S
N47 C40 1.286 1_554 S
N47 C43 1.413 . S
H48 C53 0.930 . S
H49 C56 0.930 . S
H50 C58 0.930 . S
H51 C52 1.016 . S
C52 H51 1.016 . S
C52 N59 1.286 . S
C53 H48 0.930 . S
C53 C54 1.397 . S
C53 C55 1.361 . S
C54 C53 1.397 . S
C54 C58 1.390 . S
C55 C53 1.361 . S
C55 C56 1.393 . S
C55 N59 1.413 . S
C56 H49 0.930 . S
C56 C55 1.393 . S
C56 C57 1.399 . S
C57 C56 1.399 . S
C57 C58 1.381 . S
C58 H50 0.930 . S
C58 C54 1.390 . S
C58 C57 1.381 . S
N59 C52 1.286 . S
N59 C55 1.413 . S
H60 C65 0.930 1_556 S
H61 C68 0.930 . S
H62 C70 0.930 . S
H63 C64 1.027 . S
C64 H63 1.027 . S
C64 N71 1.271 1_655 S
C65 H60 0.930 1_554 S
C65 C66 1.397 . S
C65 C67 1.361 . S
C66 C65 1.397 . S
C66 C70 1.390 1_455 S
C67 C65 1.361 . S
C67 C68 1.393 . S
C67 N71 1.413 . S
C68 H61 0.930 . S
C68 C67 1.393 . S
C68 C69 1.404 . S
C69 C68 1.404 . S
C69 C70 1.378 1_455 S
C70 H62 0.930 . S
C70 C66 1.390 1_655 S
C70 C69 1.378 1_655 S
N71 C64 1.271 1_455 S
N71 C67 1.413 . S
H72 C77 0.930 . S
H73 C80 0.930 . S
H74 C82 0.930 . S
H75 C76 1.016 . S
C76 H75 1.016 . S
C76 N83 1.286 . S
C77 H72 0.930 . S
C77 C78 1.397 . S
C77 C79 1.361 . S
C78 C77 1.397 . S
C78 C82 1.390 . S
C79 C77 1.361 . S
C79 C80 1.393 . S
C79 N83 1.413 . S
C80 H73 0.930 . S
C80 C79 1.393 . S
C80 C81 1.399 . S
C81 C80 1.399 . S
C81 C82 1.381 . S
C82 H74 0.930 . S
C82 C78 1.390 . S
C82 C81 1.381 . S
N83 C76 1.286 . S
N83 C79 1.413 . S
H84 C89 0.930 1_556 S
H85 C92 0.930 . S
H86 C94 0.930 . S
H87 C88 1.016 . S
C88 H87 1.016 . S
C88 N95 1.286 . S
C89 H84 0.930 1_554 S
C89 C90 1.397 . S
C89 C91 1.361 . S
C90 C89 1.397 . S
C90 C94 1.390 . S
C91 C89 1.361 . S
C91 C92 1.393 . S
C91 N95 1.413 . S
C92 H85 0.930 . S
C92 C91 1.393 . S
C92 C93 1.399 . S
C93 C92 1.399 . S
C93 C94 1.381 . S
C94 H86 0.930 . S
C94 C90 1.390 . S
C94 C93 1.381 . S
N95 C88 1.286 . S
N95 C91 1.413 . S
Zn96 O102 1.969 . S
Zn96 O103 1.965 1_655 S
Zn96 O107 2.024 1_655 S
Zn96 O112 1.969 . S
Zn97 O104 1.969 . S
Zn97 O110 1.969 . S
Zn97 O111 1.965 1_455 S
Zn97 O113 2.024 1_455 S
C98 O99 1.229 1_455 S
C98 O107 1.058 . S
O99 C98 1.229 1_655 S
C100 O101 1.229 1_655 S
C100 O113 1.058 . S
O101 C100 1.229 1_455 S
O102 Zn96 1.969 . S
O102 C105 1.267 . S
O103 Zn96 1.965 1_455 S
O103 C114 1.260 . S
O104 Zn97 1.969 . S
O104 C114 1.258 1_565 S
C105 O102 1.267 . S
C105 O106 1.228 1_655 S
O106 C105 1.228 1_455 S
O107 Zn96 2.024 1_455 S
O107 C98 1.058 . S
C108 O109 1.228 1_455 S
C108 O110 1.267 . S
O109 C108 1.228 1_655 S
O110 Zn97 1.969 . S
O110 C108 1.267 . S
O111 Zn97 1.965 1_655 S
O111 C115 1.260 1_565 S
O112 Zn96 1.969 . S
O112 C115 1.258 . S
O113 Zn97 2.024 1_655 S
O113 C100 1.058 . S
C114 O103 1.260 . S
C114 O104 1.258 1_545 S
C115 O111 1.260 1_545 S
C115 O112 1.258 . S
Zn116 O122 1.969 1_545 S
Zn116 O123 1.965 . S
Zn116 O127 2.024 . S
Zn116 O132 1.969 1_545 S
Zn117 O124 1.973 . S
Zn117 O130 1.971 . S
Zn117 O131 1.963 1_545 S
Zn117 O133 2.021 1_545 S
C118 O119 1.229 . S
C118 O127 1.058 . S
O119 C118 1.229 . S
C120 O121 1.229 1_565 S
C120 O133 1.058 . S
O121 C120 1.229 1_545 S
O122 Zn116 1.969 1_565 S
O122 C125 1.267 1_565 S
O123 Zn116 1.965 . S
O123 C134 1.260 . S
O124 Zn117 1.973 . S
O124 C134 1.258 . S
C125 O122 1.267 1_545 S
C125 O126 1.228 . S
O126 C125 1.228 . S
O127 Zn116 2.024 . S
O127 C118 1.058 . S
C128 O129 1.228 . S
C128 O130 1.267 1_565 S
O129 C128 1.228 . S
O130 Zn117 1.971 . S
O130 C128 1.267 1_545 S
O131 Zn117 1.963 1_565 S
O131 C135 1.260 . S
O132 Zn116 1.969 1_565 S
O132 C135 1.258 . S
O133 Zn117 2.021 1_565 S
O133 C120 1.058 . S
C134 O123 1.260 . S
C134 O124 1.258 . S
C135 O131 1.260 . S
C135 O132 1.258 . S
Zn136 O142 1.969 . S
Zn136 O143 1.965 . S
Zn136 O147 2.024 . S
Zn136 O152 1.969 . S
Zn137 O144 1.969 . S
Zn137 O150 1.969 . S
Zn137 O151 1.965 . S
Zn137 O153 2.024 . S
C138 O139 1.229 . S
C138 O147 1.058 . S
O139 C138 1.229 . S
C140 O141 1.229 . S
C140 O153 1.058 . S
O141 C140 1.229 . S
O142 Zn136 1.969 . S
O142 C145 1.267 . S
O143 Zn136 1.965 . S
O143 C154 1.260 . S
O144 Zn137 1.969 . S
O144 C154 1.258 . S
C145 O142 1.267 . S
C145 O146 1.228 . S
O146 C145 1.228 . S
O147 Zn136 2.024 . S
O147 C138 1.058 . S
C148 O149 1.228 . S
C148 O150 1.267 . S
O149 C148 1.228 . S
O150 Zn137 1.969 . S
O150 C148 1.267 . S
O151 Zn137 1.965 . S
O151 C155 1.260 . S
O152 Zn136 1.969 . S
O152 C155 1.258 . S
O153 Zn137 2.024 . S
O153 C140 1.058 . S
C154 O143 1.260 . S
C154 O144 1.258 . S
C155 O151 1.260 . S
C155 O152 1.258 . S
Zn156 O162 1.969 . S
Zn156 O163 1.965 . S
Zn156 O167 2.024 . S
Zn156 O172 1.969 . S
Zn157 O164 1.969 . S
Zn157 O170 1.969 . S
Zn157 O171 1.965 . S
Zn157 O173 2.024 . S
C158 O159 1.229 . S
C158 O167 1.058 . S
O159 C158 1.229 . S
C160 O161 1.229 . S
C160 O173 1.058 . S
O161 C160 1.229 . S
O162 Zn156 1.969 . S
O162 C165 1.267 . S
O163 Zn156 1.965 . S
O163 C174 1.260 1_455 S
O164 Zn157 1.969 . S
O164 C174 1.258 . S
C165 O162 1.267 . S
C165 O166 1.228 . S
O166 C165 1.228 . S
O167 Zn156 2.024 . S
O167 C158 1.058 . S
C168 O169 1.228 . S
C168 O170 1.267 . S
O169 C168 1.228 . S
O170 Zn157 1.969 . S
O170 C168 1.267 . S
O171 Zn157 1.965 . S
O171 C175 1.260 1_655 S
O172 Zn156 1.969 . S
O172 C175 1.258 . S
O173 Zn157 2.024 . S
O173 C160 1.058 . S
C174 O163 1.260 1_655 S
C174 O164 1.258 . S
C175 O171 1.260 1_455 S
C175 O172 1.258 . S
C176 C177 1.387 . S
C176 H180 0.950 1_545 S
C176 C185 1.390 1_545 S
C177 C176 1.387 . S
C177 C179 1.387 . S
H178 C185 0.950 . S
C179 C177 1.387 . S
C179 C181 1.390 . S
C179 H183 0.950 . S
H180 C176 0.950 1_565 S
C181 C179 1.390 . S
C181 C182 1.387 . S
C181 H184 0.950 . S
C182 C181 1.387 . S
C182 C185 1.387 1_545 S
H183 C179 0.950 . S
H184 C181 0.950 . S
C185 C176 1.390 1_565 S
C185 H178 0.950 . S
C185 C182 1.387 1_565 S
C186 C187 1.387 . S
C186 H190 0.950 . S
C186 C195 1.390 . S
C187 C186 1.387 . S
C187 C189 1.387 . S
H188 C195 0.950 . S
C189 C187 1.387 . S
C189 C191 1.390 . S
C189 H193 0.950 . S
H190 C186 0.950 . S
C191 C189 1.390 . S
C191 C192 1.387 . S
C191 H194 0.950 . S
C192 C191 1.387 . S
C192 C195 1.387 . S
H193 C189 0.950 . S
H194 C191 0.950 . S
C195 C186 1.390 . S
C195 H188 0.950 . S
C195 C192 1.387 . S
C196 C197 1.387 . S
C196 H200 0.950 . S
C196 C205 1.390 . S
C197 C196 1.387 . S
C197 C199 1.387 . S
H198 C205 0.950 . S
C199 C197 1.387 . S
C199 C201 1.390 . S
C199 H203 0.950 . S
H200 C196 0.950 . S
C201 C199 1.390 . S
C201 C202 1.387 . S
C201 H204 0.950 . S
C202 C201 1.387 . S
C202 C205 1.387 . S
H203 C199 0.950 . S
H204 C201 0.950 . S
C205 C196 1.390 . S
C205 H198 0.950 . S
C205 C202 1.387 . S
C206 C207 1.394 . S
C206 H210 0.950 . S
C206 C215 1.390 . S
C207 C206 1.394 . S
C207 C209 1.381 1_655 S
H208 C215 0.950 . S
C209 C207 1.381 1_455 S
C209 C211 1.390 . S
C209 H213 0.950 . S
H210 C206 0.950 . S
C211 C209 1.390 . S
C211 C212 1.387 1_455 S
C211 H214 0.950 . S
C212 C211 1.387 1_655 S
C212 C215 1.387 . S
H213 C209 0.950 . S
H214 C211 0.950 . S
C215 C206 1.390 . S
C215 H208 0.950 . S
C215 C212 1.387 . S
C216 C217 1.387 . S
C216 H220 0.950 . S
C216 C225 1.390 . S
C217 C216 1.387 . S
C217 C219 1.358 1_565 S
H218 C225 0.950 . S
C219 C217 1.358 1_545 S
C219 C221 1.399 . S
C219 H223 0.971 . S
H220 C216 0.950 . S
C221 C219 1.399 . S
C221 C222 1.387 1_545 S
C221 H224 0.950 . S
C222 C221 1.387 1_565 S
C222 C225 1.387 . S
H223 C219 0.971 . S
H224 C221 0.950 . S
C225 C216 1.390 . S
C225 H218 0.950 . S
C225 C222 1.387 . S
C226 C227 1.387 . S
C226 H230 0.950 . S
C226 C235 1.390 . S
C227 C226 1.387 . S
C227 C229 1.387 . S
H228 C235 0.950 . S
C229 C227 1.387 . S
C229 C231 1.390 . S
C229 H233 0.950 . S
H230 C226 0.950 . S
C231 C229 1.390 . S
C231 C232 1.387 . S
C231 H234 0.950 . S
C232 C231 1.387 . S
C232 C235 1.387 . S
H233 C229 0.950 . S
H234 C231 0.950 . S
C235 C226 1.390 . S
C235 H228 0.950 . S
C235 C232 1.387 . S
C236 C237 1.387 . S
C236 H240 0.950 . S
C236 C245 1.390 . S
C237 C236 1.387 . S
C237 C239 1.387 . S
H238 C245 0.950 . S
C239 C237 1.387 . S
C239 C241 1.390 . S
C239 H243 0.950 . S
H240 C236 0.950 . S
C241 C239 1.390 . S
C241 C242 1.387 . S
C241 H244 0.950 . S
C242 C241 1.387 . S
C242 C245 1.387 . S
H243 C239 0.950 . S
H244 C241 0.950 . S
C245 C236 1.390 . S
C245 H238 0.950 . S
C245 C242 1.387 . S
C246 C247 1.380 1_655 S
C246 H250 0.950 . S
C246 C255 1.390 . S
C247 C246 1.380 1_455 S
C247 C249 1.395 . S
H248 C255 0.950 . S
C249 C247 1.395 . S
C249 C251 1.390 . S
C249 H253 0.950 . S
H250 C246 0.950 . S
C251 C249 1.390 . S
C251 C252 1.387 . S
C251 H254 0.950 . S
C252 C251 1.387 . S
C252 C255 1.387 1_455 S
H253 C249 0.950 . S
H254 C251 0.950 . S
C255 C246 1.390 . S
C255 H248 0.950 . S
C255 C252 1.387 1_655 S
C256 C257 1.387 . S
C256 H260 0.950 . S
C256 C265 1.390 . S
C257 C256 1.387 . S
C257 C259 1.387 . S
H258 C265 0.950 . S
C259 C257 1.387 . S
C259 C261 1.390 . S
C259 H263 0.950 1_655 S
H260 C256 0.950 . S
C261 C259 1.390 . S
C261 C262 1.387 . S
C261 H264 0.950 . S
C262 C261 1.387 . S
C262 C265 1.387 . S
H263 C259 0.950 1_455 S
H264 C261 0.950 . S
C265 C256 1.390 . S
C265 H258 0.950 . S
C265 C262 1.387 . S
C266 C267 1.387 . S
C266 H270 0.950 1_545 S
C266 C275 1.390 1_545 S
C267 C266 1.387 . S
C267 C269 1.387 . S
H268 C275 0.950 . S
C269 C267 1.387 . S
C269 C271 1.390 . S
C269 H273 0.950 . S
H270 C266 0.950 1_565 S
C271 C269 1.390 . S
C271 C272 1.387 . S
C271 H274 0.950 . S
C272 C271 1.387 . S
C272 C275 1.387 1_545 S
H273 C269 0.950 . S
H274 C271 0.950 . S
C275 C266 1.390 1_565 S
C275 H268 0.950 . S
C275 C272 1.387 1_565 S
C276 C277 1.387 . S
C276 H280 0.950 . S
C276 C285 1.390 . S
C277 C276 1.387 . S
C277 C279 1.387 . S
H278 C285 0.950 . S
C279 C277 1.387 . S
C279 C281 1.390 . S
C279 H283 0.950 . S
H280 C276 0.950 . S
C281 C279 1.390 . S
C281 C282 1.387 . S
C281 H284 0.950 . S
C282 C281 1.387 . S
C282 C285 1.387 . S
H283 C279 0.950 . S
H284 C281 0.950 . S
C285 C276 1.390 . S
C285 H278 0.950 . S
C285 C282 1.387 . S
C286 C287 1.387 . S
C286 H290 0.950 . S
C286 C295 1.390 . S
C287 C286 1.387 . S
C287 C289 1.387 . S
H288 C295 0.950 . S
C289 C287 1.387 . S
C289 C291 1.390 . S
C289 H293 0.950 . S
H290 C286 0.950 . S
C291 C289 1.390 . S
C291 C292 1.387 . S
C291 H294 0.950 . S
C292 C291 1.387 . S
C292 C295 1.387 . S
H293 C289 0.950 . S
H294 C291 0.950 . S
C295 C286 1.390 . S
C295 H288 0.950 . S
C295 C292 1.387 . S
C296 C297 1.384 1_554 S
C296 H300 0.956 . S
C296 C305 1.388 1_554 S
C297 C296 1.384 1_556 S
C297 C299 1.387 1_455 S
H298 C305 0.950 1_554 S
C299 C297 1.387 1_655 S
C299 C301 1.388 1_655 S
C299 H303 0.952 . S
H300 C296 0.956 . S
C301 C299 1.388 1_455 S
C301 C302 1.387 . S
C301 H304 0.950 . S
C302 C301 1.387 . S
C302 C305 1.387 . S
H303 C299 0.952 . S
H304 C301 0.950 . S
C305 C296 1.388 1_556 S
C305 H298 0.950 1_556 S
C305 C302 1.387 . S
C306 C307 1.387 . S
C306 H310 0.950 . S
C306 C315 1.390 . S
C307 C306 1.387 . S
C307 C309 1.387 . S
H308 C315 0.950 . S
C309 C307 1.387 . S
C309 C311 1.391 . S
C309 H313 0.950 1_556 S
H310 C306 0.950 . S
C311 C309 1.391 . S
C311 C312 1.388 . S
C311 H314 0.949 1_566 S
C312 C311 1.388 . S
C312 C315 1.387 . S
H313 C309 0.950 1_554 S
H314 C311 0.949 1_544 S
C315 C306 1.390 . S
C315 H308 0.950 . S
C315 C312 1.387 . S
C316 C317 1.387 . S
C316 H320 0.950 . S
C316 C325 1.390 . S
C317 C316 1.387 . S
C317 C319 1.387 . S
H318 C325 0.950 . S
C319 C317 1.387 . S
C319 C321 1.390 . S
C319 H323 0.950 . S
H320 C316 0.950 . S
C321 C319 1.390 . S
C321 C322 1.387 . S
C321 H324 0.950 . S
C322 C321 1.387 . S
C322 C325 1.387 . S
H323 C319 0.950 . S
H324 C321 0.950 . S
C325 C316 1.390 . S
C325 H318 0.950 . S
C325 C322 1.387 . S
C326 C327 1.387 . S
C326 H330 0.950 . S
C326 C335 1.390 . S
C327 C326 1.387 . S
C327 C329 1.387 . S
H328 C335 0.950 . S
C329 C327 1.387 . S
C329 C331 1.390 . S
C329 H333 0.950 1_556 S
H330 C326 0.950 . S
C331 C329 1.390 . S
C331 C332 1.387 . S
C331 H334 0.950 . S
C332 C331 1.387 . S
C332 C335 1.387 . S
H333 C329 0.950 1_554 S
H334 C331 0.950 . S
C335 C326 1.390 . S
C335 H328 0.950 . S
C335 C332 1.387 . S
C336 C337 1.387 . S
C336 H340 0.950 . S
C336 C345 1.390 . S
C337 C336 1.387 . S
C337 C339 1.387 1_455 S
H338 C345 0.950 . S
C339 C337 1.387 1_655 S
C339 C341 1.390 . S
C339 H343 0.950 1_556 S
H340 C336 0.950 . S
C341 C339 1.390 . S
C341 C342 1.387 1_655 S
C341 H344 0.950 . S
C342 C341 1.387 1_455 S
C342 C345 1.387 . S
H343 C339 0.950 1_554 S
H344 C341 0.950 . S
C345 C336 1.390 . S
C345 H338 0.950 . S
C345 C342 1.387 . S
C346 C347 1.387 . S
C346 H350 0.950 . S
C346 C355 1.390 . S
C347 C346 1.387 . S
C347 C349 1.387 . S
H348 C355 0.950 . S
C349 C347 1.387 . S
C349 C351 1.390 . S
C349 H353 0.950 1_546 S
H350 C346 0.950 . S
C351 C349 1.390 . S
C351 C352 1.387 . S
C351 H354 0.950 1_545 S
C352 C351 1.387 . S
C352 C355 1.387 . S
H353 C349 0.950 1_564 S
H354 C351 0.950 1_565 S
C355 C346 1.390 . S
C355 H348 0.950 . S
C355 C352 1.387 . S
C356 C357 1.387 . S
C356 H360 0.950 . S
C356 C365 1.390 . S
C357 C356 1.387 . S
C357 C359 1.387 . S
H358 C365 0.950 . S
C359 C357 1.387 . S
C359 C361 1.390 . S
C359 H363 0.950 1_556 S
H360 C356 0.950 . S
C361 C359 1.390 . S
C361 C362 1.387 . S
C361 H364 0.950 . S
C362 C361 1.387 . S
C362 C365 1.387 . S
H363 C359 0.950 1_554 S
H364 C361 0.950 . S
C365 C356 1.390 . S
C365 H358 0.950 . S
C365 C362 1.387 . S
C366 C367 1.387 . S
C366 H370 0.950 1_556 S
C366 C375 1.390 . S
C367 C366 1.387 . S
C367 C369 1.387 . S
H368 C375 0.950 . S
C369 C367 1.387 . S
C369 C371 1.390 . S
C369 H373 0.950 . S
H370 C366 0.950 1_554 S
C371 C369 1.390 . S
C371 C372 1.387 . S
C371 H374 0.950 . S
C372 C371 1.387 . S
C372 C375 1.387 . S
H373 C369 0.950 . S
H374 C371 0.950 . S
C375 C366 1.390 . S
C375 H368 0.950 . S
C375 C372 1.387 . S
C376 C377 1.387 1_455 S
C376 H380 0.950 . S
C376 C385 1.390 . S
C377 C376 1.387 1_655 S
C377 C379 1.387 . S
H378 C385 0.950 . S
C379 C377 1.387 . S
C379 C381 1.390 . S
C379 H383 0.950 . S
H380 C376 0.950 . S
C381 C379 1.390 . S
C381 C382 1.387 . S
C381 H384 0.950 . S
C382 C381 1.387 . S
C382 C385 1.387 1_655 S
H383 C379 0.950 . S
H384 C381 0.950 . S
C385 C376 1.390 . S
C385 H378 0.950 . S
C385 C382 1.387 1_455 S
C386 C387 1.387 . S
C386 H390 0.950 . S
C386 C395 1.390 . S
C387 C386 1.387 . S
C387 C389 1.387 . S
H388 C395 0.950 . S
C389 C387 1.387 . S
C389 C391 1.391 . S
C389 H393 0.950 1_565 S
H390 C386 0.950 . S
C391 C389 1.391 . S
C391 C392 1.396 . S
C391 H394 0.940 1_565 S
C392 C391 1.396 . S
C392 C395 1.387 . S
H393 C389 0.950 1_545 S
H394 C391 0.940 1_545 S
C395 C386 1.390 . S
C395 H388 0.950 . S
C395 C392 1.387 . S
C396 C397 1.387 . S
C396 H400 0.950 . S
C396 C405 1.390 . S
C397 C396 1.387 . S
C397 C399 1.387 . S
H398 C405 0.950 . S
C399 C397 1.387 . S
C399 C401 1.390 . S
C399 H403 0.950 . S
H400 C396 0.950 . S
C401 C399 1.390 . S
C401 C402 1.387 . S
C401 H404 0.950 . S
C402 C401 1.387 . S
C402 C405 1.387 . S
H403 C399 0.950 . S
H404 C401 0.950 . S
C405 C396 1.390 . S
C405 H398 0.950 . S
C405 C402 1.387 . S
C406 C407 1.387 . S
C406 H410 0.950 . S
C406 C415 1.390 . S
C407 C406 1.387 . S
C407 C409 1.387 . S
H408 C415 0.950 . S
C409 C407 1.387 . S
C409 C411 1.390 . S
C409 H413 0.950 . S
H410 C406 0.950 . S
C411 C409 1.390 . S
C411 C412 1.387 . S
C411 H414 0.950 . S
C412 C411 1.387 . S
C412 C415 1.387 . S
H413 C409 0.950 . S
H414 C411 0.950 . S
C415 C406 1.390 . S
C415 H408 0.950 . S
C415 C412 1.387 . S
C177 C76 1.545 . S
C182 C114 1.598 . S
C192 C134 1.521 . S
C187 C88 1.498 . S
C202 C154 1.597 . S
C197 C52 1.541 . S
C212 C174 1.522 . S
C207 C64 1.499 . S
C222 C115 1.601 1_565 S
C217 C28 1.562 . S
C227 C40 1.494 . S
C232 C135 1.518 . S
C237 C4 1.557 . S
C242 C155 1.600 . S
C247 C16 1.499 1_455 S
C252 C175 1.523 . S
C262 C105 0.985 . S
C257 C69 1.015 1_655 S
C272 C125 1.016 . S
C267 C81 1.053 . S
C282 C145 0.990 . S
C277 C93 1.018 . S
C287 C57 1.052 . S
C292 C165 1.014 . S
C297 C21 1.014 . S
C302 C108 0.986 . S
C312 C128 1.013 . S
C307 C33 1.041 . S
C322 C148 0.985 . S
C317 C45 1.012 . S
C327 C9 1.041 . S
C332 C168 1.015 . S
C337 C66 1.524 1_556 S
C342 C98 1.462 . S
C347 C78 1.558 1_556 S
C352 C118 1.494 . S
C362 C138 1.459 . S
C357 C90 1.522 1_556 S
C372 C158 1.491 . S
C367 C54 1.553 1_556 S
C377 C18 1.531 1_655 S
C382 C100 1.462 . S
C392 C120 1.490 . S
C387 C30 1.546 . S
C402 C140 1.457 . S
C397 C42 1.529 . S
C407 C6 1.548 . S
C412 C160 1.494 . S
