# Generated by pormake.
# Topology dag, (6,3)-cn, num edge types: 1
# Building blocks:
#     Node 0, Type 0, BuildingBlock: IZENUY_clean_sbu_0, # of connection points: 6
#     Node 1, Type 0, BuildingBlock: IZENUY_clean_sbu_0, # of connection points: 6
#     Node 2, Type 0, BuildingBlock: IZENUY_clean_sbu_0, # of connection points: 6
#     Node 3, Type 0, BuildingBlock: IZENUY_clean_sbu_0, # of connection points: 6
#     Node 4, Type 1, BuildingBlock: VETTIZ_charged_linker_0, # of connection points: 3
#     Node 5, Type 1, BuildingBlock: VETTIZ_charged_linker_0, # of connection points: 3
#     Node 6, Type 1, BuildingBlock: VETTIZ_charged_linker_0, # of connection points: 3
#     Node 7, Type 1, BuildingBlock: VETTIZ_charged_linker_0, # of connection points: 3
#     Node 8, Type 1, BuildingBlock: VETTIZ_charged_linker_0, # of connection points: 3
#     Node 9, Type 1, BuildingBlock: VETTIZ_charged_linker_0, # of connection points: 3
#     Node 10, Type 1, BuildingBlock: VETTIZ_charged_linker_0, # of connection points: 3
#     Node 11, Type 1, BuildingBlock: VETTIZ_charged_linker_0, # of connection points: 3
#     Edge 12, Type (0, 1), None
#     Edge 13, Type (0, 1), None
#     Edge 14, Type (0, 1), None
#     Edge 15, Type (0, 1), None
#     Edge 16, Type (0, 1), None
#     Edge 17, Type (0, 1), None
#     Edge 18, Type (0, 1), None
#     Edge 19, Type (0, 1), None
#     Edge 20, Type (0, 1), None
#     Edge 21, Type (0, 1), None
#     Edge 22, Type (0, 1), None
#     Edge 23, Type (0, 1), None
#     Edge 24, Type (0, 1), None
#     Edge 25, Type (0, 1), None
#     Edge 26, Type (0, 1), None
#     Edge 27, Type (0, 1), None
#     Edge 28, Type (0, 1), None
#     Edge 29, Type (0, 1), None
#     Edge 30, Type (0, 1), None
#     Edge 31, Type (0, 1), None
#     Edge 32, Type (0, 1), None
#     Edge 33, Type (0, 1), None
#     Edge 34, Type (0, 1), None
#     Edge 35, Type (0, 1), None
# Relax obj value: 0.262
# Max RMSD: 0.196
# Mean RMSD: 0.162
data_MOF--net-dag--node1-IZENUY_clean_sbu_0--node2-VETTIZ_charged_linker_0--edge1-none
_symmetry_space_group_name_H-M    P1
_symmetry_Int_Tables_number       1
_symmetry_cell_setting            triclinic
loop_
_symmetry_equiv_pos_as_xyz
'x, y, z'
_cell_length_a     26.413522
_cell_length_b     25.590454
_cell_length_c     22.394761
_cell_angle_alpha  89.914952
_cell_angle_beta   85.57661
_cell_angle_gamma 90.07794
loop_
_atom_site_label
_atom_site_type_symbol
_atom_site_fract_x
_atom_site_fract_y
_atom_site_fract_z
_atom_type_partial_charge
Fe0 Fe 0.24206 0.84196 0.04178 0.0
Fe1 Fe 0.13425 0.88466 0.04588 0.0
O2 O 0.17613 0.83403 0.06144 0.0
Fe3 Fe 0.15208 0.77547 0.09494 0.0
O4 O 0.20863 0.76418 0.13573 0.0
O5 O 0.25685 0.83416 0.11965 0.0
O6 O 0.2423 0.91324 0.05268 0.0
C7 C 0.21191 0.94176 0.08454 0.0
C8 C 0.22372 0.73865 0.01011 0.0
O9 O 0.16589 0.92885 0.09409 0.0
C10 C 0.08013 0.79983 0.01212 0.0
O11 O 0.23073 0.84861 0.9621 0.0
O12 O 0.17191 0.90788 0.98006 0.0
O13 O 0.17776 0.73716 0.03058 0.0
O14 O 0.25333 0.77306 0.02771 0.0
C15 C 0.09503 0.84937 0.15833 0.0
O16 O 0.10045 0.84292 0.99673 0.0
O17 O 0.09153 0.7772 0.05958 0.0
C18 C 0.20016 0.88172 0.94358 0.0
O19 O 0.08896 0.87092 0.10882 0.0
O20 O 0.12437 0.81048 0.16139 0.0
C21 C 0.2442 0.79389 0.1504 0.0
Fe22 Fe 0.74086 0.65887 0.55641 0.0
Fe23 Fe 0.65359 0.73323 0.59657 0.0
O24 O 0.67482 0.67179 0.56863 0.0
Fe25 Fe 0.63052 0.62383 0.5515 0.0
O26 O 0.65616 0.57825 0.60346 0.0
O27 O 0.73557 0.58838 0.56931 0.0
O28 O 0.74975 0.66772 0.63647 0.0
C29 C 0.7361 0.70916 0.66442 0.0
C30 C 0.7031 0.61913 0.45485 0.0
O31 O 0.70783 0.74236 0.64129 0.0
C32 C 0.58195 0.71019 0.51252 0.0
O33 O 0.75747 0.72653 0.5416 0.0
O34 O 0.68568 0.76643 0.53078 0.0
O35 O 0.66983 0.59694 0.4893 0.0
O36 O 0.7349 0.65029 0.47527 0.0
C37 C 0.5883 0.66506 0.65994 0.0
O38 O 0.59534 0.73434 0.55784 0.0
O39 O 0.60164 0.66657 0.49828 0.0
C40 C 0.7323 0.75968 0.51479 0.0
O41 O 0.61966 0.70258 0.66305 0.0
O42 O 0.58372 0.64202 0.61097 0.0
C43 C 0.70143 0.56222 0.59836 0.0
Fe44 Fe 0.85152 0.22844 0.00586 0.0
Fe45 Fe 0.86621 0.11714 0.0495 0.0
O46 O 0.82552 0.16893 0.03454 0.0
Fe47 Fe 0.75871 0.16114 0.0492 0.0
O48 O 0.74827 0.17246 0.9702 0.0
O49 O 0.79746 0.24235 0.96239 0.0
O50 O 0.88188 0.19637 0.939 0.0
C51 C 0.91139 0.15755 0.94117 0.0
C52 C 0.77684 0.26311 0.08789 0.0
O53 O 0.9141 0.13256 0.9894 0.0
C54 C 0.79516 0.11616 0.14827 0.0
O55 O 0.91011 0.22432 0.04453 0.0
O56 O 0.89843 0.15605 0.10304 0.0
O57 O 0.74749 0.22983 0.06708 0.0
O58 O 0.82351 0.26401 0.07067 0.0
C59 C 0.79022 0.06215 0.00387 0.0
O60 O 0.82582 0.09218 0.11218 0.0
O61 O 0.76538 0.15008 0.12952 0.0
C62 C 0.91983 0.19929 0.091 0.0
O63 O 0.83629 0.07546 0.99705 0.0
O64 O 0.75851 0.09035 0.03432 0.0
C65 C 0.7649 0.21244 0.94143 0.0
Fe66 Fe 0.37192 0.37659 0.54714 0.0
Fe67 Fe 0.26235 0.33899 0.5422 0.0
O68 O 0.3287 0.32755 0.52982 0.0
Fe69 Fe 0.35252 0.26726 0.50147 0.0
O70 O 0.40984 0.26817 0.54297 0.0
O71 O 0.39837 0.33518 0.60303 0.0
O72 O 0.33088 0.40579 0.60627 0.0
C73 C 0.29874 0.38364 0.6419 0.0
C74 C 0.41693 0.33666 0.44051 0.0
O75 O 0.26832 0.35053 0.62282 0.0
C76 C 0.26775 0.28653 0.43477 0.0
O77 O 0.34752 0.41955 0.49248 0.0
O78 O 0.26694 0.40932 0.52383 0.0
O79 O 0.38578 0.29942 0.43592 0.0
O80 O 0.4212 0.35768 0.49061 0.0
C81 C 0.27441 0.23563 0.58166 0.0
O82 O 0.25225 0.32698 0.46318 0.0
O83 O 0.29947 0.25587 0.45581 0.0
C84 C 0.30196 0.43463 0.49443 0.0
O85 O 0.247 0.27133 0.56207 0.0
O86 O 0.32108 0.23223 0.56468 0.0
C87 C 0.41845 0.29128 0.59112 0.0
C88 C 0.23363 0.01975 0.14426 0.0
C89 C 0.22323 0.99736 0.08923 0.0
C90 C 0.21404 0.02978 0.04034 0.0
C91 C 0.20909 0.10346 0.10649 0.0
C92 C 0.22828 0.07401 0.15096 0.0
C93 C 0.2357 0.10692 0.20526 0.0
H94 H 0.17078 0.29544 0.39097 0.0
C95 C 0.19083 0.15297 0.13205 0.0
C96 C 0.21365 0.15919 0.18579 0.0
H97 H 0.32609 0.24756 0.34285 0.0
H98 H 0.29962 0.20883 0.25072 0.0
H99 H 0.15111 0.32798 0.24261 0.0
H100 H 0.06073 0.20988 0.30253 0.0
H101 H 0.08327 0.24683 0.36342 0.0
H102 H 0.11152 0.18529 0.34109 0.0
H103 H 0.10953 0.329 0.31016 0.0
H104 H 0.08631 0.30968 0.24025 0.0
C105 C 0.29268 0.10893 0.21528 0.0
C106 C 0.20478 0.08425 0.26067 0.0
C107 C 0.012 0.19021 0.08108 0.0
C108 C 0.96918 0.20845 0.1149 0.0
C109 C 0.97454 0.23144 0.17116 0.0
C110 C 0.02294 0.23544 0.19352 0.0
C111 C 0.06549 0.21449 0.16 0.0
C112 C 0.05907 0.19151 0.10513 0.0
C113 C 0.10591 0.16503 0.07826 0.0
C114 C 0.14235 0.17583 0.12622 0.0
C115 C 0.11894 0.20616 0.17347 0.0
C116 C 0.12309 0.19271 0.01882 0.0
C117 C 0.09416 0.10589 0.06981 0.0
C118 C 0.1989 0.27559 0.3615 0.0
C119 C 0.25011 0.27193 0.37592 0.0
C120 C 0.28616 0.24812 0.33472 0.0
C121 C 0.27125 0.22388 0.28336 0.0
C122 C 0.21984 0.22146 0.27457 0.0
C123 C 0.18481 0.25052 0.30897 0.0
C124 C 0.134 0.25056 0.28098 0.0
C125 C 0.14701 0.21916 0.2234 0.0
C126 C 0.19598 0.19929 0.22465 0.0
C127 C 0.11908 0.30736 0.26782 0.0
C128 C 0.09494 0.22189 0.32419 0.0
H129 H 0.19863 0.1075 0.01155 0.0
H130 H 0.24259 0.99543 0.18161 0.0
H131 H 0.16395 0.08074 0.2523 0.0
H132 H 0.20785 0.10992 0.30018 0.0
H133 H 0.21903 0.04496 0.2722 0.0
H134 H 0.3097 0.06925 0.21159 0.0
H135 H 0.29892 0.12268 0.26104 0.0
H136 H 0.3135 0.13449 0.18152 0.0
H137 H 0.00831 0.17214 0.03784 0.0
H138 H 0.94148 0.24576 0.19776 0.0
H139 H 0.02538 0.25343 0.2364 0.0
H140 H 0.12264 0.2359 0.02454 0.0
H141 H 0.09748 0.18259 0.98342 0.0
H142 H 0.16232 0.18213 0.00275 0.0
H143 H 0.05336 0.09782 0.06525 0.0
H144 H 0.10467 0.0823 0.10867 0.0
H145 H 0.1134 0.09022 0.02799 0.0
H146 H 0.20766 0.01307 0.9971 0.0
C147 C 0.20761 0.0835 0.04873 0.0
C148 C 0.27357 0.43731 0.73161 0.0
C149 C 0.30284 0.39608 0.7054 0.0
C150 C 0.35121 0.38643 0.72622 0.0
C151 C 0.34922 0.47095 0.7721 0.0
C152 C 0.29755 0.47323 0.76784 0.0
C153 C 0.2746 0.51744 0.80546 0.0
H154 H 0.3184 0.74007 0.95567 0.0
C155 C 0.36616 0.51918 0.79869 0.0
C156 C 0.32272 0.54509 0.82285 0.0
H157 H 0.17893 0.65019 0.96541 0.0
H158 H 0.21894 0.58735 0.89481 0.0
H159 H 0.3977 0.64591 0.9627 0.0
H160 H 0.33908 0.73378 0.82076 0.0
H161 H 0.39702 0.70913 0.78889 0.0
H162 H 0.39656 0.75296 0.85201 0.0
H163 H 0.40939 0.71401 0.94725 0.0
H164 H 0.44853 0.66431 0.91065 0.0
C165 C 0.24321 0.49373 0.8605 0.0
C166 C 0.24295 0.55288 0.76683 0.0
C167 C 0.53081 0.59802 0.7083 0.0
C168 C 0.55163 0.64883 0.71016 0.0
C169 C 0.53169 0.68372 0.75432 0.0
C170 C 0.48911 0.66939 0.79275 0.0
C171 C 0.46619 0.61999 0.78642 0.0
C172 C 0.48809 0.58451 0.74598 0.0
C173 C 0.45783 0.53442 0.74343 0.0
C174 C 0.4129 0.54664 0.78828 0.0
C175 C 0.41756 0.59716 0.81168 0.0
C176 C 0.49045 0.48801 0.76282 0.0
C177 C 0.44089 0.52716 0.67935 0.0
C178 C 0.2962 0.70659 0.94368 0.0
C179 C 0.24573 0.69944 0.96735 0.0
C180 C 0.2181 0.65604 0.94867 0.0
C181 C 0.24129 0.6196 0.90828 0.0
C182 C 0.29226 0.62692 0.88684 0.0
C183 C 0.31862 0.67011 0.90422 0.0
C184 C 0.37221 0.6723 0.87641 0.0
C185 C 0.37533 0.62034 0.84438 0.0
C186 C 0.32812 0.59459 0.84953 0.0
C187 C 0.40919 0.67453 0.92671 0.0
C188 C 0.37684 0.71945 0.83245 0.0
H189 H 0.41303 0.4182 0.77154 0.0
H190 H 0.2352 0.44411 0.71965 0.0
H191 H 0.26608 0.56597 0.72592 0.0
H192 H 0.22942 0.58823 0.79157 0.0
H193 H 0.20916 0.53166 0.75273 0.0
H194 H 0.24686 0.45049 0.86302 0.0
H195 H 0.20205 0.50216 0.85925 0.0
H196 H 0.25612 0.50869 0.9033 0.0
H197 H 0.54596 0.56991 0.67551 0.0
H198 H 0.5471 0.72282 0.75693 0.0
H199 H 0.47442 0.69795 0.82453 0.0
H200 H 0.53178 0.49636 0.7556 0.0
H201 H 0.48436 0.45252 0.73594 0.0
H202 H 0.48223 0.47867 0.81108 0.0
H203 H 0.4185 0.56141 0.66584 0.0
H204 H 0.41717 0.49178 0.67586 0.0
H205 H 0.47423 0.5226 0.64642 0.0
H206 H 0.37307 0.35272 0.71076 0.0
C207 C 0.37526 0.42473 0.75846 0.0
C208 C 0.74461 0.83689 0.44284 0.0
C209 C 0.76015 0.78841 0.46509 0.0
C210 C 0.80572 0.76575 0.44005 0.0
C211 C 0.82332 0.8414 0.37867 0.0
C212 C 0.77716 0.86288 0.39938 0.0
C213 C 0.76865 0.91481 0.36947 0.0
H214 H 0.87582 0.11689 0.21004 0.0
C215 C 0.85178 0.87971 0.34082 0.0
C216 C 0.82071 0.92366 0.33619 0.0
H217 H 0.71813 0.07236 0.22311 0.0
H218 H 0.73572 0.00494 0.2958 0.0
H219 H 0.92102 0.07018 0.34136 0.0
H220 H 0.89401 0.01446 0.16514 0.0
H221 H 0.9504 0.98573 0.1834 0.0
H222 H 0.94712 0.05564 0.17809 0.0
H223 H 0.95802 0.0907 0.2748 0.0
H224 H 0.97367 0.03228 0.31481 0.0
C225 C 0.75632 0.95717 0.41732 0.0
C226 C 0.72603 0.90794 0.32599 0.0
C227 C 0.02692 0.83782 0.24208 0.0
C228 C 0.06286 0.86963 0.20984 0.0
C229 C 0.05867 0.92443 0.21514 0.0
C230 C 0.01617 0.94735 0.24553 0.0
C231 C 0.97706 0.91517 0.27028 0.0
C232 C 0.98441 0.8617 0.2727 0.0
C233 C 0.94047 0.83491 0.30716 0.0
C234 C 0.90325 0.88026 0.31716 0.0
C235 C 0.92461 0.92687 0.29422 0.0
C236 C 0.95944 0.814 0.36671 0.0
C237 C 0.91924 0.79208 0.26715 0.0
C238 C 0.8445 0.09469 0.23146 0.0
C239 C 0.79571 0.10002 0.21136 0.0
C240 C 0.75595 0.06942 0.23837 0.0
C241 C 0.76653 0.02929 0.2788 0.0
C242 C 0.81737 0.01832 0.28921 0.0
C243 C 0.85557 0.05064 0.26483 0.0
C244 C 0.90683 0.02441 0.26116 0.0
C245 C 0.89334 0.97166 0.2889 0.0
C246 C 0.84128 0.96929 0.30758 0.0
C247 C 0.94216 0.056 0.29963 0.0
C248 C 0.92618 0.01991 0.19385 0.0
H249 H 0.87116 0.77244 0.38075 0.0
H250 H 0.70913 0.85447 0.4598 0.0
H251 H 0.71193 0.86701 0.32455 0.0
H252 H 0.73962 0.9178 0.27914 0.0
H253 H 0.69248 0.9326 0.33936 0.0
H254 H 0.78663 0.95909 0.44906 0.0
H255 H 0.7197 0.94858 0.44328 0.0
H256 H 0.75313 0.99629 0.39682 0.0
H257 H 0.02952 0.79566 0.23919 0.0
H258 H 0.08632 0.94967 0.19119 0.0
H259 H 0.01365 0.98919 0.24496 0.0
H260 H 0.99722 0.83017 0.37577 0.0
H261 H 0.96327 0.77078 0.36608 0.0
H262 H 0.93387 0.82543 0.40613 0.0
H263 H 0.9155 0.80743 0.22125 0.0
H264 H 0.88097 0.77858 0.28372 0.0
H265 H 0.94489 0.75768 0.2635 0.0
H266 H 0.81793 0.72758 0.45422 0.0
C267 C 0.83712 0.79186 0.39736 0.0
C268 C 0.69555 0.22198 0.86846 0.0
C269 C 0.74647 0.22811 0.88333 0.0
C270 C 0.78146 0.25459 0.84302 0.0
C271 C 0.71413 0.27912 0.7835 0.0
C272 C 0.68044 0.24738 0.81657 0.0
C273 C 0.6299 0.2453 0.78796 0.0
H274 H 0.5075 0.31662 0.53911 0.0
C275 C 0.68967 0.3009 0.73397 0.0
C276 C 0.64193 0.27831 0.73122 0.0
H277 H 0.4381 0.24509 0.69934 0.0
H278 H 0.52122 0.23966 0.74074 0.0
H279 H 0.54532 0.39379 0.57087 0.0
H280 H 0.6257 0.26147 0.53075 0.0
H281 H 0.66203 0.31838 0.51148 0.0
H282 H 0.59837 0.31301 0.4888 0.0
H283 H 0.60508 0.4058 0.53471 0.0
H284 H 0.59469 0.4128 0.61536 0.0
C285 C 0.58933 0.27131 0.83136 0.0
C286 C 0.61738 0.18816 0.77339 0.0
C287 C 0.71973 0.48342 0.65876 0.0
C288 C 0.70919 0.50618 0.60399 0.0
C289 C 0.70151 0.4743 0.55425 0.0
C290 C 0.69748 0.42024 0.56121 0.0
C291 C 0.69928 0.3993 0.61852 0.0
C292 C 0.71624 0.42893 0.66423 0.0
C293 C 0.72472 0.39555 0.71785 0.0
C294 C 0.70581 0.34254 0.6965 0.0
C295 C 0.68381 0.34819 0.64222 0.0
C296 C 0.6919 0.41536 0.77322 0.0
C297 C 0.7815 0.39665 0.72902 0.0
C298 C 0.51044 0.29905 0.58281 0.0
C299 C 0.46718 0.28088 0.61592 0.0
C300 C 0.47155 0.25912 0.67313 0.0
C301 C 0.51942 0.25656 0.69714 0.0
C302 C 0.56218 0.27828 0.66456 0.0
C303 C 0.55655 0.30019 0.60886 0.0
C304 C 0.60207 0.3304 0.58446 0.0
C305 C 0.63724 0.32211 0.63422 0.0
C306 C 0.61438 0.29009 0.68045 0.0
C307 C 0.58643 0.38859 0.57612 0.0
C308 C 0.62325 0.30461 0.52548 0.0
H309 H 0.79324 0.29631 0.76029 0.0
H310 H 0.66838 0.19989 0.89707 0.0
H311 H 0.64982 0.16985 0.74658 0.0
H312 H 0.5839 0.18494 0.74704 0.0
H313 H 0.60982 0.16508 0.8152 0.0
H314 H 0.55447 0.28112 0.80979 0.0
H315 H 0.60383 0.30881 0.84851 0.0
H316 H 0.57913 0.2455 0.87041 0.0
H317 H 0.72819 0.50744 0.6965 0.0
H318 H 0.69575 0.49145 0.51101 0.0
H319 H 0.6906 0.39646 0.52313 0.0
H320 H 0.65109 0.4165 0.76414 0.0
H321 H 0.70372 0.45525 0.78589 0.0
H322 H 0.69589 0.38926 0.81225 0.0
H323 H 0.80415 0.37329 0.69477 0.0
H324 H 0.78785 0.38208 0.77446 0.0
H325 H 0.79631 0.43736 0.72709 0.0
H326 H 0.82133 0.25689 0.85117 0.0
C327 C 0.76555 0.27915 0.79239 0.0
C328 C 0.72887 0.56624 0.3647 0.0
C329 C 0.69975 0.60759 0.39104 0.0
C330 C 0.65155 0.61774 0.36998 0.0
C331 C 0.65318 0.53339 0.32376 0.0
C332 C 0.70477 0.53059 0.32819 0.0
C333 C 0.72729 0.48586 0.29095 0.0
H334 H 0.681 0.26349 0.1399 0.0
C335 C 0.63581 0.48531 0.29736 0.0
C336 C 0.67891 0.45887 0.27314 0.0
H337 H 0.82208 0.35038 0.13367 0.0
H338 H 0.78236 0.41424 0.20298 0.0
H339 H 0.65859 0.26742 0.27127 0.0
H340 H 0.60326 0.36026 0.13245 0.0
H341 H 0.55174 0.34239 0.18388 0.0
H342 H 0.59026 0.29226 0.14708 0.0
H343 H 0.59824 0.25365 0.24403 0.0
H344 H 0.60412 0.29642 0.30712 0.0
C345 C 0.75802 0.45003 0.33019 0.0
C346 C 0.75948 0.5088 0.23608 0.0
C347 C 0.4746 0.40462 0.39411 0.0
C348 C 0.45319 0.35422 0.3907 0.0
C349 C 0.47082 0.321 0.34369 0.0
C350 C 0.51197 0.33631 0.30377 0.0
C351 C 0.53566 0.38505 0.3113 0.0
C352 C 0.51563 0.4193 0.35435 0.0
C353 C 0.5459 0.4694 0.35639 0.0
C354 C 0.58902 0.45818 0.30864 0.0
C355 C 0.58351 0.40808 0.28439 0.0
C356 C 0.56568 0.47553 0.41923 0.0
C357 C 0.51209 0.51601 0.34055 0.0
C358 C 0.70351 0.29655 0.15248 0.0
C359 C 0.75442 0.30251 0.13016 0.0
C360 C 0.78257 0.34537 0.14946 0.0
C361 C 0.75959 0.38246 0.1891 0.0
C362 C 0.70827 0.37635 0.20938 0.0
C363 C 0.68132 0.33365 0.19155 0.0
C364 C 0.62754 0.33256 0.2188 0.0
C365 C 0.62523 0.38453 0.2511 0.0
C366 C 0.67283 0.40947 0.24628 0.0
C367 C 0.62147 0.28516 0.26237 0.0
C368 C 0.59098 0.33154 0.16804 0.0
H369 H 0.5898 0.58665 0.32381 0.0
H370 H 0.76707 0.55898 0.377 0.0
H371 H 0.75625 0.55205 0.23304 0.0
H372 H 0.7469 0.49361 0.19322 0.0
H373 H 0.80049 0.49995 0.23804 0.0
H374 H 0.73439 0.43758 0.37101 0.0
H375 H 0.79205 0.47071 0.34448 0.0
H376 H 0.77107 0.41431 0.30587 0.0
H377 H 0.46092 0.43154 0.42898 0.0
H378 H 0.45461 0.28238 0.33966 0.0
H379 H 0.52495 0.30904 0.26968 0.0
H380 H 0.58926 0.44134 0.43009 0.0
H381 H 0.5337 0.47888 0.45424 0.0
H382 H 0.58909 0.5112 0.42225 0.0
H383 H 0.47129 0.50841 0.35367 0.0
H384 H 0.51572 0.5243 0.29167 0.0
H385 H 0.52129 0.55181 0.36529 0.0
H386 H 0.62962 0.65122 0.38625 0.0
C387 C 0.62743 0.5798 0.33728 0.0
C388 C 0.19984 0.2044 0.64729 0.0
C389 C 0.25002 0.1964 0.62291 0.0
C390 C 0.27631 0.15135 0.63926 0.0
C391 C 0.20216 0.12244 0.70082 0.0
C392 C 0.1767 0.16706 0.68589 0.0
C393 C 0.12376 0.16961 0.71615 0.0
H394 H 0.95435 0.06303 0.92224 0.0
C395 C 0.16657 0.08984 0.73818 0.0
C396 C 0.12015 0.11658 0.74657 0.0
H397 H 0.95161 0.21803 0.8459 0.0
H398 H 0.02257 0.19496 0.77484 0.0
H399 H 0.96483 0.99442 0.83245 0.0
H400 H 0.08288 0.05368 0.92467 0.0
H401 H 0.08236 0.98432 0.91363 0.0
H402 H 0.02703 0.0156 0.94641 0.0
H403 H 0.00792 0.94916 0.85998 0.0
H404 H 0.01623 0.97118 0.78319 0.0
C405 C 0.08522 0.17444 0.66788 0.0
C406 C 0.12155 0.2154 0.76174 0.0
C407 C 0.22252 0.93036 0.85002 0.0
C408 C 0.19316 0.89113 0.88024 0.0
C409 C 0.14337 0.88199 0.86357 0.0
C410 C 0.11897 0.91956 0.83066 0.0
C411 C 0.14585 0.96455 0.8129 0.0
C412 C 0.19785 0.96587 0.81413 0.0
C413 C 0.22025 0.0104 0.77656 0.0
C414 C 0.17192 0.03943 0.76277 0.0
C415 C 0.12883 0.01371 0.78842 0.0
C416 C 0.24886 0.98717 0.71947 0.0
C417 C 0.25431 0.04411 0.81437 0.0
C418 C 0.96883 0.09205 0.89 0.0
C419 C 0.94811 0.14277 0.89049 0.0
C420 C 0.96709 0.17889 0.84679 0.0
C421 C 0.00855 0.16561 0.80622 0.0
C422 C 0.03122 0.11592 0.80972 0.0
C423 C 0.01025 0.07949 0.84993 0.0
C424 C 0.03981 0.02904 0.84912 0.0
C425 C 0.08316 0.04194 0.80237 0.0
C426 C 0.07861 0.09328 0.78097 0.0
C427 C 0.00568 0.98357 0.83004 0.0
C428 C 0.05922 0.02013 0.91184 0.0
H429 H 0.27417 0.08089 0.68948 0.0
H430 H 0.17887 0.23915 0.63679 0.0
H431 H 0.16006 0.22758 0.77325 0.0
H432 H 0.10143 0.20458 0.80519 0.0
H433 H 0.10302 0.25036 0.7437 0.0
H434 H 0.09418 0.14587 0.6312 0.0
H435 H 0.0863 0.21422 0.64788 0.0
H436 H 0.0459 0.16601 0.68577 0.0
H437 H 0.26159 0.93676 0.8596 0.0
H438 H 0.12098 0.85002 0.88328 0.0
H439 H 0.07999 0.91399 0.82167 0.0
H440 H 0.24312 0.94426 0.71555 0.0
H441 H 0.29048 0.99362 0.71916 0.0
H442 H 0.23523 0.00413 0.67796 0.0
H443 H 0.2334 0.05543 0.85742 0.0
H444 H 0.26671 0.08058 0.79106 0.0
H445 H 0.28889 0.02227 0.82468 0.0
H446 H 0.31515 0.14461 0.62182 0.0
C447 C 0.2525 0.11424 0.67806 0.0
C448 C 0.26345 0.72721 0.2265 0.0
C449 C 0.27476 0.77606 0.19954 0.0
C450 C 0.31406 0.80666 0.22111 0.0
C451 C 0.33131 0.7383 0.29197 0.0
C452 C 0.29121 0.70971 0.27305 0.0
C453 C 0.27862 0.66285 0.31223 0.0
H454 H 0.34536 0.51572 0.54316 0.0
C455 C 0.34783 0.71276 0.34576 0.0
C456 C 0.31454 0.6713 0.36086 0.0
H457 H 0.24173 0.47547 0.41108 0.0
H458 H 0.24492 0.56489 0.37356 0.0
H459 H 0.4267 0.58438 0.44539 0.0
H460 H 0.3309 0.60328 0.59426 0.0
H461 H 0.32162 0.66884 0.56888 0.0
H462 H 0.38281 0.64662 0.58983 0.0
H463 H 0.4207 0.55991 0.52107 0.0
H464 H 0.44641 0.62254 0.50659 0.0
C465 C 0.29189 0.61317 0.27477 0.0
C466 C 0.22237 0.66611 0.3372 0.0
C467 C 0.51941 0.72575 0.43384 0.0
C468 C 0.53073 0.72132 0.49441 0.0
C469 C 0.49093 0.72371 0.54033 0.0
C470 C 0.4405 0.7226 0.52628 0.0
C471 C 0.43085 0.71822 0.46643 0.0
C472 C 0.46794 0.7271 0.42128 0.0
C473 C 0.44405 0.73363 0.36223 0.0
C474 C 0.38755 0.72477 0.38226 0.0
C475 C 0.38397 0.70556 0.44089 0.0
C476 C 0.464 0.69112 0.31779 0.0
C477 C 0.45578 0.78854 0.33686 0.0
C478 C 0.32277 0.52686 0.50679 0.0
C479 C 0.29398 0.48938 0.47915 0.0
C480 C 0.26435 0.50422 0.43255 0.0
C481 C 0.26688 0.55572 0.41056 0.0
C482 C 0.29981 0.5918 0.43524 0.0
C483 C 0.32584 0.57753 0.48395 0.0
C484 C 0.3627 0.61849 0.50139 0.0
C485 C 0.35361 0.66086 0.45524 0.0
C486 C 0.31869 0.64374 0.41522 0.0
C487 C 0.41707 0.59529 0.49298 0.0
C488 C 0.34873 0.6356 0.56685 0.0
H489 H 0.36791 0.81425 0.28787 0.0
H490 H 0.23255 0.70325 0.21286 0.0
H491 H 0.21223 0.70697 0.35009 0.0
H492 H 0.21423 0.64267 0.37825 0.0
H493 H 0.19649 0.65332 0.30322 0.0
H494 H 0.32475 0.62026 0.24157 0.0
H495 H 0.25936 0.60065 0.24959 0.0
H496 H 0.30391 0.58018 0.30213 0.0
H497 H 0.54936 0.727 0.39803 0.0
H498 H 0.4988 0.72292 0.58712 0.0
H499 H 0.41009 0.72377 0.56125 0.0
H500 H 0.45715 0.65148 0.33725 0.0
H501 H 0.50545 0.69586 0.30636 0.0
H502 H 0.44443 0.69364 0.27569 0.0
H503 H 0.49678 0.79786 0.33842 0.0
H504 H 0.43352 0.8187 0.36308 0.0
H505 H 0.44769 0.79088 0.2891 0.0
H506 H 0.3223 0.8452 0.20281 0.0
C507 C 0.34165 0.78834 0.26841 0.0
C508 C 0.77098 0.98239 0.945 0.0
C509 C 0.77998 0.00616 0.9998 0.0
C510 C 0.78816 0.97485 0.04998 0.0
C511 C 0.79433 0.89952 0.98636 0.0
C512 C 0.77634 0.92792 0.94024 0.0
C513 C 0.7693 0.89345 0.88707 0.0
H514 H 0.83193 0.69772 0.71097 0.0
C515 C 0.81168 0.84875 0.96344 0.0
C516 C 0.78968 0.84134 0.90939 0.0
H517 H 0.67723 0.74974 0.75463 0.0
H518 H 0.70339 0.79088 0.84564 0.0
H519 H 0.89307 0.80743 0.75778 0.0
H520 H 0.8488 0.66922 0.86243 0.0
H521 H 0.91407 0.68598 0.86425 0.0
H522 H 0.89057 0.66472 0.79524 0.0
H523 H 0.91994 0.74452 0.73872 0.0
H524 H 0.94262 0.78283 0.79845 0.0
C525 C 0.80184 0.91372 0.83163 0.0
C526 C 0.71265 0.89223 0.87531 0.0
C527 C 0.98771 0.80761 0.02181 0.0
C528 C 0.03075 0.78821 0.98936 0.0
C529 C 0.02588 0.76407 0.9336 0.0
C530 C 0.97787 0.76012 0.91029 0.0
C531 C 0.93522 0.78255 0.9421 0.0
C532 C 0.94111 0.8067 0.99648 0.0
C533 C 0.89463 0.83545 0.02069 0.0
C534 C 0.8591 0.82453 0.97182 0.0
C535 C 0.8825 0.79211 0.92651 0.0
C536 C 0.90798 0.89442 0.02729 0.0
C537 C 0.87512 0.80998 0.0806 0.0
C538 C 0.80384 0.71867 0.73938 0.0
C539 C 0.75295 0.72296 0.72388 0.0
C540 C 0.71694 0.74844 0.76367 0.0
C541 C 0.73175 0.77407 0.81421 0.0
C542 C 0.78306 0.77591 0.82366 0.0
C543 C 0.81778 0.74492 0.79128 0.0
C544 C 0.86811 0.74472 0.82035 0.0
C545 C 0.8551 0.77837 0.87624 0.0
C546 C 0.80681 0.79946 0.87286 0.0
C547 C 0.90843 0.771 0.77663 0.0
C548 C 0.88145 0.6881 0.83643 0.0
H549 H 0.80258 0.89789 0.08185 0.0
H550 H 0.76271 0.00574 0.90659 0.0
H551 H 0.69659 0.93238 0.87622 0.0
H552 H 0.69051 0.86857 0.90986 0.0
H553 H 0.70712 0.87667 0.83011 0.0
H554 H 0.84248 0.91655 0.84108 0.0
H555 H 0.78884 0.95297 0.81809 0.0
H556 H 0.79897 0.88693 0.79304 0.0
H557 H 0.99108 0.82695 0.0644 0.0
H558 H 0.05916 0.74924 0.90782 0.0
H559 H 0.97588 0.74141 0.86775 0.0
H560 H 0.94879 0.90139 0.03301 0.0
H561 H 0.88822 0.91185 0.06785 0.0
H562 H 0.89924 0.91721 0.98709 0.0
H563 H 0.87412 0.76667 0.07652 0.0
H564 H 0.83607 0.82243 0.09508 0.0
H565 H 0.9003 0.82018 0.11634 0.0
H566 H 0.79331 0.99248 0.09306 0.0
C567 C 0.79474 0.92097 0.0435 0.0
loop_
_geom_bond_atom_site_label_1
_geom_bond_atom_site_label_2
_geom_bond_distance
_geom_bond_site_symmetry_2
_ccdc_geom_bond_type
Fe0 O2 1.918 . S
Fe0 O5 1.997 . S
Fe0 O6 2.002 . S
Fe0 O11 1.976 1_554 S
Fe0 O14 1.996 . S
Fe1 O2 1.918 . S
Fe1 O9 1.997 . S
Fe1 O12 1.996 1_554 S
Fe1 O16 1.976 . S
Fe1 O19 2.002 . S
O2 Fe0 1.918 . S
O2 Fe1 1.918 . S
O2 Fe3 1.918 . S
Fe3 O2 1.918 . S
Fe3 O4 2.002 . S
Fe3 O13 1.976 . S
Fe3 O17 1.996 . S
Fe3 O20 1.997 . S
O4 Fe3 2.002 . S
O4 C21 1.295 . S
O5 Fe0 1.997 . S
O5 C21 1.235 . S
O6 Fe0 2.002 . S
O6 C7 1.295 . S
C7 O6 1.295 . S
C7 O9 1.235 . S
C8 O13 1.287 . S
C8 O14 1.255 . S
O9 Fe1 1.997 . S
O9 C7 1.235 . S
C10 O16 1.287 . S
C10 O17 1.255 . S
O11 Fe0 1.976 1_556 S
O11 C18 1.287 . S
O12 Fe1 1.996 1_556 S
O12 C18 1.255 . S
O13 Fe3 1.976 . S
O13 C8 1.287 . S
O14 Fe0 1.996 . S
O14 C8 1.255 . S
C15 O19 1.295 . S
C15 O20 1.235 . S
O16 Fe1 1.976 . S
O16 C10 1.287 . S
O17 Fe3 1.996 . S
O17 C10 1.255 . S
C18 O11 1.287 . S
C18 O12 1.255 . S
O19 Fe1 2.002 . S
O19 C15 1.295 . S
O20 Fe3 1.997 . S
O20 C15 1.235 . S
C21 O4 1.295 . S
C21 O5 1.235 . S
Fe22 O24 1.918 . S
Fe22 O27 1.997 . S
Fe22 O28 2.002 . S
Fe22 O33 1.976 . S
Fe22 O36 1.996 . S
Fe23 O24 1.918 . S
Fe23 O31 1.997 . S
Fe23 O34 1.996 . S
Fe23 O38 1.976 . S
Fe23 O41 2.002 . S
O24 Fe22 1.918 . S
O24 Fe23 1.918 . S
O24 Fe25 1.918 . S
Fe25 O24 1.918 . S
Fe25 O26 2.002 . S
Fe25 O35 1.976 . S
Fe25 O39 1.996 . S
Fe25 O42 1.997 . S
O26 Fe25 2.002 . S
O26 C43 1.295 . S
O27 Fe22 1.997 . S
O27 C43 1.235 . S
O28 Fe22 2.002 . S
O28 C29 1.295 . S
C29 O28 1.295 . S
C29 O31 1.235 . S
C30 O35 1.287 . S
C30 O36 1.255 . S
O31 Fe23 1.997 . S
O31 C29 1.235 . S
C32 O38 1.287 . S
C32 O39 1.255 . S
O33 Fe22 1.976 . S
O33 C40 1.287 . S
O34 Fe23 1.996 . S
O34 C40 1.255 . S
O35 Fe25 1.976 . S
O35 C30 1.287 . S
O36 Fe22 1.996 . S
O36 C30 1.255 . S
C37 O41 1.295 . S
C37 O42 1.235 . S
O38 Fe23 1.976 . S
O38 C32 1.287 . S
O39 Fe25 1.996 . S
O39 C32 1.255 . S
C40 O33 1.287 . S
C40 O34 1.255 . S
O41 Fe23 2.002 . S
O41 C37 1.295 . S
O42 Fe25 1.997 . S
O42 C37 1.235 . S
C43 O26 1.295 . S
C43 O27 1.235 . S
Fe44 O46 1.918 1_556 S
Fe44 O49 1.997 . S
Fe44 O50 2.002 . S
Fe44 O55 1.976 1_556 S
Fe44 O58 1.996 1_556 S
Fe45 O46 1.918 . S
Fe45 O53 1.997 1_554 S
Fe45 O56 1.996 . S
Fe45 O60 1.976 . S
Fe45 O63 2.002 1_554 S
O46 Fe44 1.918 1_554 S
O46 Fe45 1.918 . S
O46 Fe47 1.918 . S
Fe47 O46 1.918 . S
Fe47 O48 2.002 1_554 S
Fe47 O57 1.976 . S
Fe47 O61 1.996 . S
Fe47 O64 1.997 . S
O48 Fe47 2.002 1_556 S
O48 C65 1.295 . S
O49 Fe44 1.997 . S
O49 C65 1.235 . S
O50 Fe44 2.002 . S
O50 C51 1.295 . S
C51 O50 1.295 . S
C51 O53 1.235 . S
C52 O57 1.287 . S
C52 O58 1.255 . S
O53 Fe45 1.997 1_556 S
O53 C51 1.235 . S
C54 O60 1.287 . S
C54 O61 1.255 . S
O55 Fe44 1.976 1_554 S
O55 C62 1.287 . S
O56 Fe45 1.996 . S
O56 C62 1.255 . S
O57 Fe47 1.976 . S
O57 C52 1.287 . S
O58 Fe44 1.996 1_554 S
O58 C52 1.255 . S
C59 O63 1.295 . S
C59 O64 1.235 1_556 S
O60 Fe45 1.976 . S
O60 C54 1.287 . S
O61 Fe47 1.996 . S
O61 C54 1.255 . S
C62 O55 1.287 . S
C62 O56 1.255 . S
O63 Fe45 2.002 1_556 S
O63 C59 1.295 . S
O64 Fe47 1.997 . S
O64 C59 1.235 1_554 S
C65 O48 1.295 . S
C65 O49 1.235 . S
Fe66 O68 1.918 . S
Fe66 O71 1.997 . S
Fe66 O72 2.002 . S
Fe66 O77 1.976 . S
Fe66 O80 1.996 . S
Fe67 O68 1.918 . S
Fe67 O75 1.997 . S
Fe67 O78 1.996 . S
Fe67 O82 1.976 . S
Fe67 O85 2.002 . S
O68 Fe66 1.918 . S
O68 Fe67 1.918 . S
O68 Fe69 1.918 . S
Fe69 O68 1.918 . S
Fe69 O70 2.002 . S
Fe69 O79 1.976 . S
Fe69 O83 1.996 . S
Fe69 O86 1.997 . S
O70 Fe69 2.002 . S
O70 C87 1.295 . S
O71 Fe66 1.997 . S
O71 C87 1.235 . S
O72 Fe66 2.002 . S
O72 C73 1.295 . S
C73 O72 1.295 . S
C73 O75 1.235 . S
C74 O79 1.287 . S
C74 O80 1.255 . S
O75 Fe67 1.997 . S
O75 C73 1.235 . S
C76 O82 1.287 . S
C76 O83 1.255 . S
O77 Fe66 1.976 . S
O77 C84 1.287 . S
O78 Fe67 1.996 . S
O78 C84 1.255 . S
O79 Fe69 1.976 . S
O79 C74 1.287 . S
O80 Fe66 1.996 . S
O80 C74 1.255 . S
C81 O85 1.295 . S
C81 O86 1.235 . S
O82 Fe67 1.976 . S
O82 C76 1.287 . S
O83 Fe69 1.996 . S
O83 C76 1.255 . S
C84 O77 1.287 . S
C84 O78 1.255 . S
O85 Fe67 2.002 . S
O85 C81 1.295 . S
O86 Fe69 1.997 . S
O86 C81 1.235 . S
C87 O70 1.295 . S
C87 O71 1.235 . S
C88 C89 1.391 . S
C88 C92 1.391 . S
C88 H130 0.948 . S
C89 C88 1.391 . S
C89 C90 1.391 . S
C90 C89 1.391 . S
C90 H146 0.947 . S
C90 C147 1.392 . S
C91 C92 1.391 . S
C91 C95 1.397 . S
C91 C147 1.419 . S
C92 C88 1.391 . S
C92 C91 1.391 . S
C92 C93 1.399 . S
C93 C92 1.399 . S
C93 C96 1.396 . S
C93 C105 1.453 . S
C93 C106 1.684 . S
H94 C118 0.948 . S
C95 C91 1.397 . S
C95 C96 1.394 . S
C95 C114 1.723 . S
C96 C93 1.396 . S
C96 C95 1.394 . S
C96 C126 1.723 . S
H97 C120 0.947 . S
H98 C121 0.948 . S
H99 C127 0.982 . S
H100 C128 0.979 . S
H101 C128 0.980 . S
H102 C128 0.983 . S
H103 C127 0.979 . S
H104 C127 0.977 . S
C105 C93 1.453 . S
C105 H134 0.982 . S
C105 H135 0.979 . S
C105 H136 0.977 . S
C106 C93 1.684 . S
C106 H131 0.979 . S
C106 H132 0.980 . S
C106 H133 0.983 . S
C107 C108 1.391 1_455 S
C107 C112 1.391 . S
C107 H137 0.948 1_455 S
C108 C107 1.391 1_655 S
C108 C109 1.391 1_655 S
C109 C108 1.391 1_455 S
C109 C110 1.392 . S
C109 H138 0.947 1_455 S
C110 C109 1.392 . S
C110 C111 1.419 . S
C110 H139 0.948 . S
C111 C110 1.419 . S
C111 C112 1.391 . S
C111 C115 1.397 . S
C112 C107 1.391 . S
C112 C111 1.391 . S
C112 C113 1.399 . S
C113 C112 1.399 . S
C113 C114 1.396 . S
C113 C116 1.453 . S
C113 C117 1.684 . S
C114 C95 1.723 . S
C114 C113 1.396 . S
C114 C115 1.394 . S
C115 C111 1.397 . S
C115 C114 1.394 . S
C115 C125 1.723 . S
C116 C113 1.453 . S
C116 H140 0.982 . S
C116 H141 0.979 . S
C116 H142 0.977 . S
C117 C113 1.684 . S
C117 H143 0.979 . S
C117 H144 0.980 . S
C117 H145 0.983 . S
C118 H94 0.948 . S
C118 C119 1.391 . S
C118 C123 1.391 . S
C119 C118 1.391 . S
C119 C120 1.391 . S
C120 H97 0.947 . S
C120 C119 1.391 . S
C120 C121 1.392 . S
C121 H98 0.948 . S
C121 C120 1.392 . S
C121 C122 1.419 . S
C122 C121 1.419 . S
C122 C123 1.391 . S
C122 C126 1.397 . S
C123 C118 1.391 . S
C123 C122 1.391 . S
C123 C124 1.399 . S
C124 C123 1.399 . S
C124 C125 1.396 . S
C124 C127 1.453 . S
C124 C128 1.684 . S
C125 C115 1.723 . S
C125 C124 1.396 . S
C125 C126 1.394 . S
C126 C96 1.723 . S
C126 C122 1.397 . S
C126 C125 1.394 . S
C127 H99 0.982 . S
C127 H103 0.979 . S
C127 H104 0.977 . S
C127 C124 1.453 . S
C128 H100 0.979 . S
C128 H101 0.980 . S
C128 H102 0.983 . S
C128 C124 1.684 . S
H129 C147 0.948 . S
H130 C88 0.948 . S
H131 C106 0.979 . S
H132 C106 0.980 . S
H133 C106 0.983 . S
H134 C105 0.982 . S
H135 C105 0.979 . S
H136 C105 0.977 . S
H137 C107 0.948 1_655 S
H138 C109 0.947 1_655 S
H139 C110 0.948 . S
H140 C116 0.982 . S
H141 C116 0.979 . S
H142 C116 0.977 . S
H143 C117 0.979 . S
H144 C117 0.980 . S
H145 C117 0.983 . S
H146 C90 0.947 . S
C147 C90 1.392 . S
C147 C91 1.419 . S
C147 H129 0.948 . S
C148 C149 1.391 . S
C148 C152 1.391 . S
C148 H190 0.948 . S
C149 C148 1.391 . S
C149 C150 1.391 . S
C150 C149 1.391 . S
C150 H206 0.947 . S
C150 C207 1.392 . S
C151 C152 1.391 . S
C151 C155 1.397 . S
C151 C207 1.419 . S
C152 C148 1.391 . S
C152 C151 1.391 . S
C152 C153 1.399 . S
C153 C152 1.399 . S
C153 C156 1.396 . S
C153 C165 1.453 . S
C153 C166 1.684 . S
H154 C178 0.948 . S
C155 C151 1.397 . S
C155 C156 1.394 . S
C155 C174 1.723 . S
C156 C153 1.396 . S
C156 C155 1.394 . S
C156 C186 1.723 . S
H157 C180 0.947 . S
H158 C181 0.948 . S
H159 C187 0.982 . S
H160 C188 0.979 . S
H161 C188 0.980 . S
H162 C188 0.983 . S
H163 C187 0.979 . S
H164 C187 0.977 . S
C165 C153 1.453 . S
C165 H194 0.982 . S
C165 H195 0.979 . S
C165 H196 0.977 . S
C166 C153 1.684 . S
C166 H191 0.979 . S
C166 H192 0.980 . S
C166 H193 0.983 . S
C167 C168 1.391 . S
C167 C172 1.391 . S
C167 H197 0.948 . S
C168 C167 1.391 . S
C168 C169 1.391 . S
C169 C168 1.391 . S
C169 C170 1.392 . S
C169 H198 0.947 . S
C170 C169 1.392 . S
C170 C171 1.419 . S
C170 H199 0.948 . S
C171 C170 1.419 . S
C171 C172 1.391 . S
C171 C175 1.397 . S
C172 C167 1.391 . S
C172 C171 1.391 . S
C172 C173 1.399 . S
C173 C172 1.399 . S
C173 C174 1.396 . S
C173 C176 1.453 . S
C173 C177 1.684 . S
C174 C155 1.723 . S
C174 C173 1.396 . S
C174 C175 1.394 . S
C175 C171 1.397 . S
C175 C174 1.394 . S
C175 C185 1.723 . S
C176 C173 1.453 . S
C176 H200 0.982 . S
C176 H201 0.979 . S
C176 H202 0.977 . S
C177 C173 1.684 . S
C177 H203 0.979 . S
C177 H204 0.980 . S
C177 H205 0.983 . S
C178 H154 0.948 . S
C178 C179 1.391 . S
C178 C183 1.391 1_554 S
C179 C178 1.391 . S
C179 C180 1.391 . S
C180 H157 0.947 . S
C180 C179 1.391 . S
C180 C181 1.392 1_554 S
C181 H158 0.948 . S
C181 C180 1.392 1_556 S
C181 C182 1.419 . S
C182 C181 1.419 . S
C182 C183 1.391 . S
C182 C186 1.397 . S
C183 C178 1.391 1_556 S
C183 C182 1.391 . S
C183 C184 1.399 . S
C184 C183 1.399 . S
C184 C185 1.396 . S
C184 C187 1.453 . S
C184 C188 1.684 . S
C185 C175 1.723 . S
C185 C184 1.396 . S
C185 C186 1.394 . S
C186 C156 1.723 . S
C186 C182 1.397 . S
C186 C185 1.394 . S
C187 H159 0.982 . S
C187 H163 0.979 . S
C187 H164 0.977 . S
C187 C184 1.453 . S
C188 H160 0.979 . S
C188 H161 0.980 . S
C188 H162 0.983 . S
C188 C184 1.684 . S
H189 C207 0.948 . S
H190 C148 0.948 . S
H191 C166 0.979 . S
H192 C166 0.980 . S
H193 C166 0.983 . S
H194 C165 0.982 . S
H195 C165 0.979 . S
H196 C165 0.977 . S
H197 C167 0.948 . S
H198 C169 0.947 . S
H199 C170 0.948 . S
H200 C176 0.982 . S
H201 C176 0.979 . S
H202 C176 0.977 . S
H203 C177 0.979 . S
H204 C177 0.980 . S
H205 C177 0.983 . S
H206 C150 0.947 . S
C207 C150 1.392 . S
C207 C151 1.419 . S
C207 H189 0.948 . S
C208 C209 1.391 . S
C208 C212 1.391 . S
C208 H250 0.948 . S
C209 C208 1.391 . S
C209 C210 1.391 . S
C210 C209 1.391 . S
C210 H266 0.947 . S
C210 C267 1.392 . S
C211 C212 1.391 . S
C211 C215 1.397 . S
C211 C267 1.419 . S
C212 C208 1.391 . S
C212 C211 1.391 . S
C212 C213 1.399 . S
C213 C212 1.399 . S
C213 C216 1.396 . S
C213 C225 1.453 . S
C213 C226 1.684 . S
H214 C238 0.948 . S
C215 C211 1.397 . S
C215 C216 1.394 . S
C215 C234 1.723 . S
C216 C213 1.396 . S
C216 C215 1.394 . S
C216 C246 1.723 . S
H217 C240 0.947 . S
H218 C241 0.948 . S
H219 C247 0.982 . S
H220 C248 0.979 . S
H221 C248 0.980 . S
H222 C248 0.983 1_545 S
H223 C247 0.979 . S
H224 C247 0.977 . S
C225 C213 1.453 . S
C225 H254 0.982 . S
C225 H255 0.979 . S
C225 H256 0.977 . S
C226 C213 1.684 . S
C226 H251 0.979 . S
C226 H252 0.980 . S
C226 H253 0.983 . S
C227 C228 1.391 . S
C227 C232 1.391 1_455 S
C227 H257 0.948 . S
C228 C227 1.391 . S
C228 C229 1.391 . S
C229 C228 1.391 . S
C229 C230 1.392 1_455 S
C229 H258 0.947 . S
C230 C229 1.392 1_655 S
C230 C231 1.419 . S
C230 H259 0.948 . S
C231 C230 1.419 . S
C231 C232 1.391 . S
C231 C235 1.397 . S
C232 C227 1.391 1_655 S
C232 C231 1.391 . S
C232 C233 1.399 . S
C233 C232 1.399 . S
C233 C234 1.396 . S
C233 C236 1.453 . S
C233 C237 1.684 . S
C234 C215 1.723 . S
C234 C233 1.396 . S
C234 C235 1.394 . S
C235 C231 1.397 . S
C235 C234 1.394 . S
C235 C245 1.723 . S
C236 C233 1.453 . S
C236 H260 0.982 . S
C236 H261 0.979 . S
C236 H262 0.977 . S
C237 C233 1.684 . S
C237 H263 0.979 . S
C237 H264 0.980 . S
C237 H265 0.983 . S
C238 H214 0.948 . S
C238 C239 1.391 . S
C238 C243 1.391 . S
C239 C238 1.391 . S
C239 C240 1.391 . S
C240 H217 0.947 . S
C240 C239 1.391 . S
C240 C241 1.392 . S
C241 H218 0.948 . S
C241 C240 1.392 . S
C241 C242 1.419 . S
C242 C241 1.419 . S
C242 C243 1.391 . S
C242 C246 1.397 1_545 S
C243 C238 1.391 . S
C243 C242 1.391 . S
C243 C244 1.399 . S
C244 C243 1.399 . S
C244 C245 1.396 1_545 S
C244 C247 1.453 . S
C244 C248 1.684 1_545 S
C245 C235 1.723 . S
C245 C244 1.396 1_565 S
C245 C246 1.394 . S
C246 C216 1.723 . S
C246 C242 1.397 1_565 S
C246 C245 1.394 . S
C247 H219 0.982 . S
C247 H223 0.979 . S
C247 H224 0.977 . S
C247 C244 1.453 . S
C248 H220 0.979 . S
C248 H221 0.980 . S
C248 H222 0.983 1_565 S
C248 C244 1.684 1_565 S
H249 C267 0.948 . S
H250 C208 0.948 . S
H251 C226 0.979 . S
H252 C226 0.980 . S
H253 C226 0.983 . S
H254 C225 0.982 . S
H255 C225 0.979 . S
H256 C225 0.977 . S
H257 C227 0.948 . S
H258 C229 0.947 . S
H259 C230 0.948 . S
H260 C236 0.982 . S
H261 C236 0.979 . S
H262 C236 0.977 . S
H263 C237 0.979 . S
H264 C237 0.980 . S
H265 C237 0.983 . S
H266 C210 0.947 . S
C267 C210 1.392 . S
C267 C211 1.419 . S
C267 H249 0.948 . S
C268 C269 1.391 . S
C268 C272 1.391 . S
C268 H310 0.948 . S
C269 C268 1.391 . S
C269 C270 1.391 . S
C270 C269 1.391 . S
C270 H326 0.947 . S
C270 C327 1.392 . S
C271 C272 1.391 . S
C271 C275 1.397 . S
C271 C327 1.419 . S
C272 C268 1.391 . S
C272 C271 1.391 . S
C272 C273 1.399 . S
C273 C272 1.399 . S
C273 C276 1.396 . S
C273 C285 1.453 . S
C273 C286 1.684 . S
H274 C298 0.948 . S
C275 C271 1.397 . S
C275 C276 1.394 . S
C275 C294 1.723 . S
C276 C273 1.396 . S
C276 C275 1.394 . S
C276 C306 1.723 . S
H277 C300 0.947 . S
H278 C301 0.948 . S
H279 C307 0.982 . S
H280 C308 0.979 . S
H281 C308 0.980 . S
H282 C308 0.983 . S
H283 C307 0.979 . S
H284 C307 0.977 . S
C285 C273 1.453 . S
C285 H314 0.982 . S
C285 H315 0.979 . S
C285 H316 0.977 . S
C286 C273 1.684 . S
C286 H311 0.979 . S
C286 H312 0.980 . S
C286 H313 0.983 . S
C287 C288 1.391 . S
C287 C292 1.391 . S
C287 H317 0.948 . S
C288 C287 1.391 . S
C288 C289 1.391 . S
C289 C288 1.391 . S
C289 C290 1.392 . S
C289 H318 0.947 . S
C290 C289 1.392 . S
C290 C291 1.419 . S
C290 H319 0.948 . S
C291 C290 1.419 . S
C291 C292 1.391 . S
C291 C295 1.397 . S
C292 C287 1.391 . S
C292 C291 1.391 . S
C292 C293 1.399 . S
C293 C292 1.399 . S
C293 C294 1.396 . S
C293 C296 1.453 . S
C293 C297 1.684 . S
C294 C275 1.723 . S
C294 C293 1.396 . S
C294 C295 1.394 . S
C295 C291 1.397 . S
C295 C294 1.394 . S
C295 C305 1.723 . S
C296 C293 1.453 . S
C296 H320 0.982 . S
C296 H321 0.979 . S
C296 H322 0.977 . S
C297 C293 1.684 . S
C297 H323 0.979 . S
C297 H324 0.980 . S
C297 H325 0.983 . S
C298 H274 0.948 . S
C298 C299 1.391 . S
C298 C303 1.391 . S
C299 C298 1.391 . S
C299 C300 1.391 . S
C300 H277 0.947 . S
C300 C299 1.391 . S
C300 C301 1.392 . S
C301 H278 0.948 . S
C301 C300 1.392 . S
C301 C302 1.419 . S
C302 C301 1.419 . S
C302 C303 1.391 . S
C302 C306 1.397 . S
C303 C298 1.391 . S
C303 C302 1.391 . S
C303 C304 1.399 . S
C304 C303 1.399 . S
C304 C305 1.396 . S
C304 C307 1.453 . S
C304 C308 1.684 . S
C305 C295 1.723 . S
C305 C304 1.396 . S
C305 C306 1.394 . S
C306 C276 1.723 . S
C306 C302 1.397 . S
C306 C305 1.394 . S
C307 H279 0.982 . S
C307 H283 0.979 . S
C307 H284 0.977 . S
C307 C304 1.453 . S
C308 H280 0.979 . S
C308 H281 0.980 . S
C308 H282 0.983 . S
C308 C304 1.684 . S
H309 C327 0.948 . S
H310 C268 0.948 . S
H311 C286 0.979 . S
H312 C286 0.980 . S
H313 C286 0.983 . S
H314 C285 0.982 . S
H315 C285 0.979 . S
H316 C285 0.977 . S
H317 C287 0.948 . S
H318 C289 0.947 . S
H319 C290 0.948 . S
H320 C296 0.982 . S
H321 C296 0.979 . S
H322 C296 0.977 . S
H323 C297 0.979 . S
H324 C297 0.980 . S
H325 C297 0.983 . S
H326 C270 0.947 . S
C327 C270 1.392 . S
C327 C271 1.419 . S
C327 H309 0.948 . S
C328 C329 1.391 . S
C328 C332 1.391 . S
C328 H370 0.948 . S
C329 C328 1.391 . S
C329 C330 1.391 . S
C330 C329 1.391 . S
C330 H386 0.947 . S
C330 C387 1.392 . S
C331 C332 1.391 . S
C331 C335 1.397 . S
C331 C387 1.419 . S
C332 C328 1.391 . S
C332 C331 1.391 . S
C332 C333 1.399 . S
C333 C332 1.399 . S
C333 C336 1.396 . S
C333 C345 1.453 . S
C333 C346 1.684 . S
H334 C358 0.948 . S
C335 C331 1.397 . S
C335 C336 1.394 . S
C335 C354 1.723 . S
C336 C333 1.396 . S
C336 C335 1.394 . S
C336 C366 1.723 . S
H337 C360 0.947 . S
H338 C361 0.948 . S
H339 C367 0.982 . S
H340 C368 0.979 . S
H341 C368 0.980 . S
H342 C368 0.983 . S
H343 C367 0.979 . S
H344 C367 0.977 . S
C345 C333 1.453 . S
C345 H374 0.982 . S
C345 H375 0.979 . S
C345 H376 0.977 . S
C346 C333 1.684 . S
C346 H371 0.979 . S
C346 H372 0.980 . S
C346 H373 0.983 . S
C347 C348 1.391 . S
C347 C352 1.391 . S
C347 H377 0.948 . S
C348 C347 1.391 . S
C348 C349 1.391 . S
C349 C348 1.391 . S
C349 C350 1.392 . S
C349 H378 0.947 . S
C350 C349 1.392 . S
C350 C351 1.419 . S
C350 H379 0.948 . S
C351 C350 1.419 . S
C351 C352 1.391 . S
C351 C355 1.397 . S
C352 C347 1.391 . S
C352 C351 1.391 . S
C352 C353 1.399 . S
C353 C352 1.399 . S
C353 C354 1.396 . S
C353 C356 1.453 . S
C353 C357 1.684 . S
C354 C335 1.723 . S
C354 C353 1.396 . S
C354 C355 1.394 . S
C355 C351 1.397 . S
C355 C354 1.394 . S
C355 C365 1.723 . S
C356 C353 1.453 . S
C356 H380 0.982 . S
C356 H381 0.979 . S
C356 H382 0.977 . S
C357 C353 1.684 . S
C357 H383 0.979 . S
C357 H384 0.980 . S
C357 H385 0.983 . S
C358 H334 0.948 . S
C358 C359 1.391 . S
C358 C363 1.391 . S
C359 C358 1.391 . S
C359 C360 1.391 . S
C360 H337 0.947 . S
C360 C359 1.391 . S
C360 C361 1.392 . S
C361 H338 0.948 . S
C361 C360 1.392 . S
C361 C362 1.419 . S
C362 C361 1.419 . S
C362 C363 1.391 . S
C362 C366 1.397 . S
C363 C358 1.391 . S
C363 C362 1.391 . S
C363 C364 1.399 . S
C364 C363 1.399 . S
C364 C365 1.396 . S
C364 C367 1.453 . S
C364 C368 1.684 . S
C365 C355 1.723 . S
C365 C364 1.396 . S
C365 C366 1.394 . S
C366 C336 1.723 . S
C366 C362 1.397 . S
C366 C365 1.394 . S
C367 H339 0.982 . S
C367 H343 0.979 . S
C367 H344 0.977 . S
C367 C364 1.453 . S
C368 H340 0.979 . S
C368 H341 0.980 . S
C368 H342 0.983 . S
C368 C364 1.684 . S
H369 C387 0.948 . S
H370 C328 0.948 . S
H371 C346 0.979 . S
H372 C346 0.980 . S
H373 C346 0.983 . S
H374 C345 0.982 . S
H375 C345 0.979 . S
H376 C345 0.977 . S
H377 C347 0.948 . S
H378 C349 0.947 . S
H379 C350 0.948 . S
H380 C356 0.982 . S
H381 C356 0.979 . S
H382 C356 0.977 . S
H383 C357 0.979 . S
H384 C357 0.980 . S
H385 C357 0.983 . S
H386 C330 0.947 . S
C387 C330 1.392 . S
C387 C331 1.419 . S
C387 H369 0.948 . S
C388 C389 1.391 . S
C388 C392 1.391 . S
C388 H430 0.948 . S
C389 C388 1.391 . S
C389 C390 1.391 . S
C390 C389 1.391 . S
C390 H446 0.947 . S
C390 C447 1.392 . S
C391 C392 1.391 . S
C391 C395 1.397 . S
C391 C447 1.419 . S
C392 C388 1.391 . S
C392 C391 1.391 . S
C392 C393 1.399 . S
C393 C392 1.399 . S
C393 C396 1.396 . S
C393 C405 1.453 . S
C393 C406 1.684 . S
H394 C418 0.948 . S
C395 C391 1.397 . S
C395 C396 1.394 . S
C395 C414 1.723 . S
C396 C393 1.396 . S
C396 C395 1.394 . S
C396 C426 1.723 . S
H397 C420 0.947 . S
H398 C421 0.948 . S
H399 C427 0.982 . S
H400 C428 0.979 . S
H401 C428 0.980 . S
H402 C428 0.983 . S
H403 C427 0.979 1_655 S
H404 C427 0.977 . S
C405 C393 1.453 . S
C405 H434 0.982 . S
C405 H435 0.979 . S
C405 H436 0.977 . S
C406 C393 1.684 . S
C406 H431 0.979 . S
C406 H432 0.980 . S
C406 H433 0.983 . S
C407 C408 1.391 . S
C407 C412 1.391 . S
C407 H437 0.948 . S
C408 C407 1.391 . S
C408 C409 1.391 . S
C409 C408 1.391 . S
C409 C410 1.392 . S
C409 H438 0.947 . S
C410 C409 1.392 . S
C410 C411 1.419 . S
C410 H439 0.948 . S
C411 C410 1.419 . S
C411 C412 1.391 . S
C411 C415 1.397 1_565 S
C412 C407 1.391 . S
C412 C411 1.391 . S
C412 C413 1.399 1_565 S
C413 C412 1.399 1_545 S
C413 C414 1.396 . S
C413 C416 1.453 1_545 S
C413 C417 1.684 . S
C414 C395 1.723 . S
C414 C413 1.396 . S
C414 C415 1.394 . S
C415 C411 1.397 1_545 S
C415 C414 1.394 . S
C415 C425 1.723 . S
C416 C413 1.453 1_565 S
C416 H440 0.982 . S
C416 H441 0.979 . S
C416 H442 0.977 1_565 S
C417 C413 1.684 . S
C417 H443 0.979 . S
C417 H444 0.980 . S
C417 H445 0.983 . S
C418 H394 0.948 . S
C418 C419 1.391 . S
C418 C423 1.391 1_655 S
C419 C418 1.391 . S
C419 C420 1.391 . S
C420 H397 0.947 . S
C420 C419 1.391 . S
C420 C421 1.392 1_655 S
C421 H398 0.948 . S
C421 C420 1.392 1_455 S
C421 C422 1.419 . S
C422 C421 1.419 . S
C422 C423 1.391 . S
C422 C426 1.397 . S
C423 C418 1.391 1_455 S
C423 C422 1.391 . S
C423 C424 1.399 . S
C424 C423 1.399 . S
C424 C425 1.396 . S
C424 C427 1.453 1_545 S
C424 C428 1.684 . S
C425 C415 1.723 . S
C425 C424 1.396 . S
C425 C426 1.394 . S
C426 C396 1.723 . S
C426 C422 1.397 . S
C426 C425 1.394 . S
C427 H399 0.982 . S
C427 H403 0.979 1_455 S
C427 H404 0.977 . S
C427 C424 1.453 1_565 S
C428 H400 0.979 . S
C428 H401 0.980 . S
C428 H402 0.983 . S
C428 C424 1.684 . S
H429 C447 0.948 . S
H430 C388 0.948 . S
H431 C406 0.979 . S
H432 C406 0.980 . S
H433 C406 0.983 . S
H434 C405 0.982 . S
H435 C405 0.979 . S
H436 C405 0.977 . S
H437 C407 0.948 . S
H438 C409 0.947 . S
H439 C410 0.948 . S
H440 C416 0.982 . S
H441 C416 0.979 . S
H442 C416 0.977 1_545 S
H443 C417 0.979 . S
H444 C417 0.980 . S
H445 C417 0.983 . S
H446 C390 0.947 . S
C447 C390 1.392 . S
C447 C391 1.419 . S
C447 H429 0.948 . S
C448 C449 1.391 . S
C448 C452 1.391 . S
C448 H490 0.948 . S
C449 C448 1.391 . S
C449 C450 1.391 . S
C450 C449 1.391 . S
C450 H506 0.947 . S
C450 C507 1.392 . S
C451 C452 1.391 . S
C451 C455 1.397 . S
C451 C507 1.419 . S
C452 C448 1.391 . S
C452 C451 1.391 . S
C452 C453 1.399 . S
C453 C452 1.399 . S
C453 C456 1.396 . S
C453 C465 1.453 . S
C453 C466 1.684 . S
H454 C478 0.948 . S
C455 C451 1.397 . S
C455 C456 1.394 . S
C455 C474 1.723 . S
C456 C453 1.396 . S
C456 C455 1.394 . S
C456 C486 1.723 . S
H457 C480 0.947 . S
H458 C481 0.948 . S
H459 C487 0.982 . S
H460 C488 0.979 . S
H461 C488 0.980 . S
H462 C488 0.983 . S
H463 C487 0.979 . S
H464 C487 0.977 . S
C465 C453 1.453 . S
C465 H494 0.982 . S
C465 H495 0.979 . S
C465 H496 0.977 . S
C466 C453 1.684 . S
C466 H491 0.979 . S
C466 H492 0.980 . S
C466 H493 0.983 . S
C467 C468 1.391 . S
C467 C472 1.391 . S
C467 H497 0.948 . S
C468 C467 1.391 . S
C468 C469 1.391 . S
C469 C468 1.391 . S
C469 C470 1.392 . S
C469 H498 0.947 . S
C470 C469 1.392 . S
C470 C471 1.419 . S
C470 H499 0.948 . S
C471 C470 1.419 . S
C471 C472 1.391 . S
C471 C475 1.397 . S
C472 C467 1.391 . S
C472 C471 1.391 . S
C472 C473 1.399 . S
C473 C472 1.399 . S
C473 C474 1.396 . S
C473 C476 1.453 . S
C473 C477 1.684 . S
C474 C455 1.723 . S
C474 C473 1.396 . S
C474 C475 1.394 . S
C475 C471 1.397 . S
C475 C474 1.394 . S
C475 C485 1.723 . S
C476 C473 1.453 . S
C476 H500 0.982 . S
C476 H501 0.979 . S
C476 H502 0.977 . S
C477 C473 1.684 . S
C477 H503 0.979 . S
C477 H504 0.980 . S
C477 H505 0.983 . S
C478 H454 0.948 . S
C478 C479 1.391 . S
C478 C483 1.391 . S
C479 C478 1.391 . S
C479 C480 1.391 . S
C480 H457 0.947 . S
C480 C479 1.391 . S
C480 C481 1.392 . S
C481 H458 0.948 . S
C481 C480 1.392 . S
C481 C482 1.419 . S
C482 C481 1.419 . S
C482 C483 1.391 . S
C482 C486 1.397 . S
C483 C478 1.391 . S
C483 C482 1.391 . S
C483 C484 1.399 . S
C484 C483 1.399 . S
C484 C485 1.396 . S
C484 C487 1.453 . S
C484 C488 1.684 . S
C485 C475 1.723 . S
C485 C484 1.396 . S
C485 C486 1.394 . S
C486 C456 1.723 . S
C486 C482 1.397 . S
C486 C485 1.394 . S
C487 H459 0.982 . S
C487 H463 0.979 . S
C487 H464 0.977 . S
C487 C484 1.453 . S
C488 H460 0.979 . S
C488 H461 0.980 . S
C488 H462 0.983 . S
C488 C484 1.684 . S
H489 C507 0.948 . S
H490 C448 0.948 . S
H491 C466 0.979 . S
H492 C466 0.980 . S
H493 C466 0.983 . S
H494 C465 0.982 . S
H495 C465 0.979 . S
H496 C465 0.977 . S
H497 C467 0.948 . S
H498 C469 0.947 . S
H499 C470 0.948 . S
H500 C476 0.982 . S
H501 C476 0.979 . S
H502 C476 0.977 . S
H503 C477 0.979 . S
H504 C477 0.980 . S
H505 C477 0.983 . S
H506 C450 0.947 . S
C507 C450 1.392 . S
C507 C451 1.419 . S
C507 H489 0.948 . S
C508 C509 1.391 1_556 S
C508 C512 1.391 . S
C508 H550 0.948 . S
C509 C508 1.391 1_554 S
C509 C510 1.391 . S
C510 C509 1.391 . S
C510 H566 0.947 . S
C510 C567 1.392 . S
C511 C512 1.391 . S
C511 C515 1.397 . S
C511 C567 1.419 1_556 S
C512 C508 1.391 . S
C512 C511 1.391 . S
C512 C513 1.399 . S
C513 C512 1.399 . S
C513 C516 1.396 . S
C513 C525 1.453 . S
C513 C526 1.684 . S
H514 C538 0.948 . S
C515 C511 1.397 . S
C515 C516 1.394 . S
C515 C534 1.723 . S
C516 C513 1.396 . S
C516 C515 1.394 . S
C516 C546 1.723 . S
H517 C540 0.947 . S
H518 C541 0.948 . S
H519 C547 0.982 . S
H520 C548 0.979 . S
H521 C548 0.980 . S
H522 C548 0.983 . S
H523 C547 0.979 . S
H524 C547 0.977 . S
C525 C513 1.453 . S
C525 H554 0.982 . S
C525 H555 0.979 . S
C525 H556 0.977 . S
C526 C513 1.684 . S
C526 H551 0.979 . S
C526 H552 0.980 . S
C526 H553 0.983 . S
C527 C528 1.391 1_655 S
C527 C532 1.391 . S
C527 H557 0.948 . S
C528 C527 1.391 1_455 S
C528 C529 1.391 1_454 S
C529 C528 1.391 1_656 S
C529 C530 1.392 . S
C529 H558 0.947 . S
C530 C529 1.392 . S
C530 C531 1.419 . S
C530 H559 0.948 . S
C531 C530 1.419 . S
C531 C532 1.391 1_556 S
C531 C535 1.397 . S
C532 C527 1.391 . S
C532 C531 1.391 1_554 S
C532 C533 1.399 . S
C533 C532 1.399 . S
C533 C534 1.396 1_554 S
C533 C536 1.453 1_554 S
C533 C537 1.684 . S
C534 C515 1.723 . S
C534 C533 1.396 1_556 S
C534 C535 1.394 . S
C535 C531 1.397 . S
C535 C534 1.394 . S
C535 C545 1.723 . S
C536 C533 1.453 1_556 S
C536 H560 0.982 . S
C536 H561 0.979 1_556 S
C536 H562 0.977 1_556 S
C537 C533 1.684 . S
C537 H563 0.979 . S
C537 H564 0.980 . S
C537 H565 0.983 . S
C538 H514 0.948 . S
C538 C539 1.391 . S
C538 C543 1.391 . S
C539 C538 1.391 . S
C539 C540 1.391 . S
C540 H517 0.947 . S
C540 C539 1.391 . S
C540 C541 1.392 . S
C541 H518 0.948 . S
C541 C540 1.392 . S
C541 C542 1.419 . S
C542 C541 1.419 . S
C542 C543 1.391 . S
C542 C546 1.397 . S
C543 C538 1.391 . S
C543 C542 1.391 . S
C543 C544 1.399 . S
C544 C543 1.399 . S
C544 C545 1.396 . S
C544 C547 1.453 . S
C544 C548 1.684 . S
C545 C535 1.723 . S
C545 C544 1.396 . S
C545 C546 1.394 . S
C546 C516 1.723 . S
C546 C542 1.397 . S
C546 C545 1.394 . S
C547 H519 0.982 . S
C547 H523 0.979 . S
C547 H524 0.977 . S
C547 C544 1.453 . S
C548 H520 0.979 . S
C548 H521 0.980 . S
C548 H522 0.983 . S
C548 C544 1.684 . S
H549 C567 0.948 . S
H550 C508 0.948 . S
H551 C526 0.979 . S
H552 C526 0.980 . S
H553 C526 0.983 . S
H554 C525 0.982 . S
H555 C525 0.979 . S
H556 C525 0.977 . S
H557 C527 0.948 . S
H558 C529 0.947 . S
H559 C530 0.948 . S
H560 C536 0.982 . S
H561 C536 0.979 1_554 S
H562 C536 0.977 1_554 S
H563 C537 0.979 . S
H564 C537 0.980 . S
H565 C537 0.983 . S
H566 C510 0.947 . S
C567 C510 1.392 . S
C567 C511 1.419 1_554 S
C567 H549 0.948 . S
C7 C89 1.851 1_565 S
C37 C168 2.441 . S
C54 C239 2.633 . S
C299 C87 3.178 . S
C329 C30 2.523 . S
C51 C419 2.418 . S
C84 C479 2.288 . S
C10 C528 3.135 . S
C59 C509 2.119 1_546 S
C348 C74 2.572 . S
C408 C18 2.308 . S
C32 C468 2.887 . S
C149 C73 2.418 . S
C15 C228 2.227 . S
C288 C43 2.044 . S
C108 C62 2.987 . S
C449 C21 2.887 . S
C539 C29 2.660 . S
C52 C359 2.009 . S
C389 C81 1.834 . S
C209 C40 1.626 . S
C65 C269 2.618 . S
C119 C76 2.344 . S
C179 C8 1.893 . S
