# Generated by pormake.
# Topology pyr, (3,6)-cn, num edge types: 1
# Building blocks:
#     Node 0, Type 0, BuildingBlock: BELTOD_clean_linker_0, # of connection points: 3
#     Node 1, Type 0, BuildingBlock: BELTOD_clean_linker_0, # of connection points: 3
#     Node 2, Type 0, BuildingBlock: BELTOD_clean_linker_0, # of connection points: 3
#     Node 3, Type 0, BuildingBlock: BELTOD_clean_linker_0, # of connection points: 3
#     Node 4, Type 0, BuildingBlock: BELTOD_clean_linker_0, # of connection points: 3
#     Node 5, Type 0, BuildingBlock: BELTOD_clean_linker_0, # of connection points: 3
#     Node 6, Type 0, BuildingBlock: BELTOD_clean_linker_0, # of connection points: 3
#     Node 7, Type 0, BuildingBlock: BELTOD_clean_linker_0, # of connection points: 3
#     Node 8, Type 1, BuildingBlock: BETDIP_clean_sbu_0, # of connection points: 6
#     Node 9, Type 1, BuildingBlock: BETDIP_clean_sbu_0, # of connection points: 6
#     Node 10, Type 1, BuildingBlock: BETDIP_clean_sbu_0, # of connection points: 6
#     Node 11, Type 1, BuildingBlock: BETDIP_clean_sbu_0, # of connection points: 6
#     Edge 12, Type (0, 1), BuildingBlock: XIVTED_clean_linker_0, # of connection points: 2
#     Edge 13, Type (0, 1), BuildingBlock: XIVTED_clean_linker_0, # of connection points: 2
#     Edge 14, Type (0, 1), BuildingBlock: XIVTED_clean_linker_0, # of connection points: 2
#     Edge 15, Type (0, 1), BuildingBlock: XIVTED_clean_linker_0, # of connection points: 2
#     Edge 16, Type (0, 1), BuildingBlock: XIVTED_clean_linker_0, # of connection points: 2
#     Edge 17, Type (0, 1), BuildingBlock: XIVTED_clean_linker_0, # of connection points: 2
#     Edge 18, Type (0, 1), BuildingBlock: XIVTED_clean_linker_0, # of connection points: 2
#     Edge 19, Type (0, 1), BuildingBlock: XIVTED_clean_linker_0, # of connection points: 2
#     Edge 20, Type (0, 1), BuildingBlock: XIVTED_clean_linker_0, # of connection points: 2
#     Edge 21, Type (0, 1), BuildingBlock: XIVTED_clean_linker_0, # of connection points: 2
#     Edge 22, Type (0, 1), BuildingBlock: XIVTED_clean_linker_0, # of connection points: 2
#     Edge 23, Type (0, 1), BuildingBlock: XIVTED_clean_linker_0, # of connection points: 2
#     Edge 24, Type (0, 1), BuildingBlock: XIVTED_clean_linker_0, # of connection points: 2
#     Edge 25, Type (0, 1), BuildingBlock: XIVTED_clean_linker_0, # of connection points: 2
#     Edge 26, Type (0, 1), BuildingBlock: XIVTED_clean_linker_0, # of connection points: 2
#     Edge 27, Type (0, 1), BuildingBlock: XIVTED_clean_linker_0, # of connection points: 2
#     Edge 28, Type (0, 1), BuildingBlock: XIVTED_clean_linker_0, # of connection points: 2
#     Edge 29, Type (0, 1), BuildingBlock: XIVTED_clean_linker_0, # of connection points: 2
#     Edge 30, Type (0, 1), BuildingBlock: XIVTED_clean_linker_0, # of connection points: 2
#     Edge 31, Type (0, 1), BuildingBlock: XIVTED_clean_linker_0, # of connection points: 2
#     Edge 32, Type (0, 1), BuildingBlock: XIVTED_clean_linker_0, # of connection points: 2
#     Edge 33, Type (0, 1), BuildingBlock: XIVTED_clean_linker_0, # of connection points: 2
#     Edge 34, Type (0, 1), BuildingBlock: XIVTED_clean_linker_0, # of connection points: 2
#     Edge 35, Type (0, 1), BuildingBlock: XIVTED_clean_linker_0, # of connection points: 2
# Relax obj value: 0.129
# Max RMSD: 0.191
# Mean RMSD: 0.088
data_MOF--net-pyr--node1-BETDIP_clean_sbu_0--node2-BELTOD_clean_linker_0--edge1-XIVTED_clean_linker_0
_symmetry_space_group_name_H-M    P1
_symmetry_Int_Tables_number       1
_symmetry_cell_setting            triclinic
loop_
_symmetry_equiv_pos_as_xyz
'x, y, z'
_cell_length_a     40.662604
_cell_length_b     44.993082
_cell_length_c     43.411209
_cell_angle_alpha  88.845245
_cell_angle_beta   93.134022
_cell_angle_gamma 103.34922
loop_
_atom_site_label
_atom_site_type_symbol
_atom_site_fract_x
_atom_site_fract_y
_atom_site_fract_z
_atom_type_partial_charge
P0 P 0.4 0.31853 0.26249 0.0
H1 H 0.45376 0.31634 0.22131 0.0
H2 H 0.46951 0.27406 0.19561 0.0
H3 H 0.39291 0.20986 0.2436 0.0
H4 H 0.3765 0.25193 0.26792 0.0
H5 H 0.38628 0.37891 0.25162 0.0
H6 H 0.34582 0.39693 0.21643 0.0
H7 H 0.31735 0.30786 0.17425 0.0
H8 H 0.35727 0.28993 0.20975 0.0
H9 H 0.41656 0.29564 0.32318 0.0
H10 H 0.32715 0.30977 0.27233 0.0
O11 O 0.43327 0.34587 0.2742 0.0
H12 H 0.38124 0.26901 0.36382 0.0
H13 H 0.29205 0.28326 0.31248 0.0
C14 C 0.41445 0.28732 0.24694 0.0
C15 C 0.44077 0.2931 0.22656 0.0
C16 C 0.44979 0.26891 0.212 0.0
C17 C 0.43243 0.23855 0.21752 0.0
C18 C 0.40652 0.23295 0.2385 0.0
C19 C 0.39739 0.25709 0.2528 0.0
C20 C 0.3752 0.33329 0.23296 0.0
C21 C 0.3719 0.36353 0.23429 0.0
C22 C 0.34881 0.37379 0.21413 0.0
C23 C 0.32836 0.35379 0.19257 0.0
C24 C 0.33254 0.32374 0.19075 0.0
C25 C 0.35563 0.31355 0.21086 0.0
C26 C 0.37462 0.30487 0.29482 0.0
C27 C 0.38947 0.29363 0.32109 0.0
C28 C 0.36926 0.27819 0.34412 0.0
C29 C 0.33386 0.27393 0.34125 0.0
C30 C 0.31925 0.28646 0.31553 0.0
C31 C 0.33942 0.30163 0.29244 0.0
P32 P 0.1922 0.78311 0.72006 0.0
H33 H 0.25678 0.79712 0.75411 0.0
H34 H 0.27313 0.80134 0.80875 0.0
H35 H 0.16797 0.77174 0.83056 0.0
H36 H 0.15176 0.76816 0.77518 0.0
H37 H 0.20867 0.76872 0.65878 0.0
H38 H 0.22807 0.72583 0.63917 0.0
H39 H 0.20601 0.67743 0.72542 0.0
H40 H 0.18708 0.72093 0.74509 0.0
H41 H 0.15758 0.82554 0.74643 0.0
H42 H 0.13974 0.76162 0.67127 0.0
O43 O 0.22053 0.81149 0.70446 0.0
H44 H 0.1132 0.84906 0.72451 0.0
H45 H 0.09531 0.78514 0.64916 0.0
C46 C 0.20306 0.78336 0.76072 0.0
C47 C 0.23722 0.79145 0.77064 0.0
C48 C 0.24656 0.79341 0.80199 0.0
C49 C 0.22185 0.78694 0.82415 0.0
C50 C 0.18757 0.77728 0.81408 0.0
C51 C 0.17826 0.7753 0.78251 0.0
C52 C 0.19729 0.74826 0.70359 0.0
C53 C 0.20728 0.7486 0.67322 0.0
C54 C 0.21813 0.72387 0.66195 0.0
C55 C 0.21908 0.69832 0.68091 0.0
C56 C 0.20619 0.69702 0.71047 0.0
C57 C 0.19527 0.72184 0.72171 0.0
C58 C 0.15178 0.79161 0.7107 0.0
C59 C 0.14302 0.81559 0.72601 0.0
C60 C 0.1176 0.82907 0.71342 0.0
C61 C 0.101 0.81911 0.68496 0.0
C62 C 0.10788 0.79341 0.67102 0.0
C63 C 0.1332 0.77984 0.68375 0.0
P64 P 0.66727 0.34394 0.83754 0.0
H65 H 0.70645 0.32681 0.89006 0.0
H66 H 0.75003 0.3559 0.92575 0.0
H67 H 0.7348 0.43998 0.88404 0.0
H68 H 0.69102 0.41072 0.84851 0.0
H69 H 0.63429 0.28176 0.81871 0.0
H70 H 0.60046 0.23826 0.84602 0.0
H71 H 0.59913 0.29609 0.92397 0.0
H72 H 0.63275 0.33967 0.89623 0.0
H73 H 0.69885 0.38721 0.79157 0.0
H74 H 0.59751 0.3508 0.82012 0.0
O75 O 0.69172 0.32647 0.81825 0.0
H76 H 0.67722 0.41639 0.75054 0.0
H77 H 0.57541 0.38035 0.77897 0.0
C78 C 0.69536 0.36646 0.86656 0.0
C79 C 0.71202 0.35153 0.88895 0.0
C80 C 0.73695 0.36823 0.90942 0.0
C81 C 0.74608 0.40033 0.90772 0.0
C82 C 0.72869 0.41529 0.88574 0.0
C83 C 0.70349 0.39852 0.86542 0.0
C84 C 0.63652 0.3139 0.85557 0.0
C85 C 0.62634 0.28522 0.84151 0.0
C86 C 0.60721 0.26024 0.8573 0.0
C87 C 0.59755 0.26342 0.88749 0.0
C88 C 0.60608 0.29272 0.90079 0.0
C89 C 0.62537 0.31771 0.88495 0.0
C90 C 0.64989 0.36694 0.80907 0.0
C91 C 0.67187 0.38577 0.78919 0.0
C92 C 0.65942 0.4026 0.76574 0.0
C93 C 0.6245 0.40092 0.76136 0.0
C94 C 0.60241 0.38204 0.78146 0.0
C95 C 0.61502 0.36527 0.80517 0.0
P96 P 0.85268 0.71781 0.32574 0.0
H97 H 0.91596 0.76356 0.31511 0.0
H98 H 0.94623 0.80851 0.34413 0.0
H99 H 0.87724 0.78263 0.41758 0.0
H100 H 0.84912 0.73727 0.3896 0.0
H101 H 0.82261 0.67552 0.2773 0.0
H102 H 0.84516 0.64724 0.23948 0.0
H103 H 0.94569 0.67992 0.28102 0.0
H104 H 0.9226 0.70809 0.31933 0.0
H105 H 0.78616 0.72493 0.34158 0.0
H106 H 0.84764 0.65985 0.36069 0.0
O107 O 0.83328 0.73807 0.30125 0.0
H108 H 0.74289 0.69595 0.37407 0.0
H109 H 0.80427 0.63061 0.39394 0.0
C110 C 0.88067 0.74628 0.35025 0.0
C111 C 0.90826 0.76696 0.33801 0.0
C112 C 0.92514 0.79318 0.3545 0.0
C113 C 0.91428 0.79987 0.38342 0.0
C114 C 0.88716 0.77848 0.39585 0.0
C115 C 0.87075 0.75216 0.37959 0.0
C116 C 0.87083 0.6942 0.3011 0.0
C117 C 0.84951 0.67645 0.27852 0.0
C118 C 0.86253 0.66044 0.25663 0.0
C119 C 0.89741 0.66157 0.25669 0.0
C120 C 0.91871 0.67847 0.28017 0.0
C121 C 0.90555 0.69472 0.3021 0.0
C122 C 0.81996 0.69432 0.34822 0.0
C123 C 0.79024 0.70417 0.35255 0.0
C124 C 0.76558 0.68769 0.37151 0.0
C125 C 0.77004 0.66094 0.38687 0.0
C126 C 0.7998 0.65092 0.38227 0.0
C127 C 0.82465 0.66761 0.3633 0.0
P128 P 0.68815 0.81845 0.88216 0.0
H129 H 0.63195 0.78285 0.91672 0.0
H130 H 0.57932 0.7951 0.93064 0.0
H131 H 0.59758 0.8723 0.86792 0.0
H132 H 0.6497 0.85948 0.85364 0.0
H133 H 0.72665 0.80601 0.93773 0.0
H134 H 0.74514 0.76079 0.95581 0.0
H135 H 0.68591 0.70885 0.88082 0.0
H136 H 0.66819 0.75486 0.86232 0.0
H137 H 0.75517 0.83877 0.85944 0.0
H138 H 0.65381 0.80489 0.82069 0.0
O139 O 0.71088 0.84795 0.90248 0.0
H140 H 0.77673 0.84454 0.80785 0.0
H141 H 0.67528 0.8104 0.76862 0.0
C142 C 0.64467 0.82023 0.88405 0.0
C143 C 0.62393 0.80162 0.90496 0.0
C144 C 0.59387 0.80874 0.91303 0.0
C145 C 0.58448 0.83492 0.90072 0.0
C146 C 0.60379 0.85179 0.87762 0.0
C147 C 0.63376 0.84457 0.8695 0.0
C148 C 0.6965 0.7838 0.89844 0.0
C149 C 0.71721 0.78482 0.92541 0.0
C150 C 0.72751 0.75876 0.93593 0.0
C151 C 0.71718 0.73116 0.91966 0.0
C152 C 0.69471 0.72985 0.89361 0.0
C153 C 0.68447 0.75604 0.88307 0.0
C154 C 0.70285 0.82225 0.84373 0.0
C155 C 0.73755 0.83263 0.83973 0.0
C156 C 0.74988 0.83556 0.81022 0.0
C157 C 0.7277 0.82793 0.78412 0.0
C158 C 0.69291 0.8168 0.78828 0.0
C159 C 0.68061 0.81371 0.81796 0.0
P160 P 0.88972 0.32445 0.32741 0.0
H161 H 0.89093 0.3808 0.36078 0.0
H162 H 0.84627 0.40047 0.38343 0.0
H163 H 0.77306 0.31822 0.35603 0.0
H164 H 0.8175 0.29892 0.33345 0.0
H165 H 0.95365 0.30569 0.32932 0.0
H166 H 0.97295 0.26497 0.35782 0.0
H167 H 0.88426 0.24967 0.41182 0.0
H168 H 0.8648 0.28974 0.38275 0.0
H169 H 0.85561 0.33921 0.2703 0.0
H170 H 0.87984 0.25895 0.31316 0.0
O171 O 0.91977 0.35354 0.31536 0.0
H172 H 0.8216 0.30725 0.22971 0.0
H173 H 0.84707 0.22742 0.2726 0.0
C174 C 0.85735 0.33879 0.34479 0.0
C175 C 0.86522 0.36712 0.3596 0.0
C176 C 0.83974 0.37823 0.37267 0.0
C177 C 0.80606 0.36106 0.37114 0.0
C178 C 0.79858 0.33231 0.35695 0.0
C179 C 0.82401 0.32123 0.34406 0.0
C180 C 0.90807 0.30107 0.35418 0.0
C181 C 0.93892 0.29417 0.34794 0.0
C182 C 0.94985 0.2708 0.3642 0.0
C183 C 0.92995 0.25384 0.38689 0.0
C184 C 0.89988 0.26193 0.39411 0.0
C185 C 0.88893 0.28519 0.37776 0.0
C186 C 0.87035 0.30163 0.29477 0.0
C187 C 0.85431 0.31489 0.27058 0.0
C188 C 0.83494 0.2966 0.2474 0.0
C189 C 0.83135 0.26474 0.24814 0.0
C190 C 0.84879 0.2518 0.27169 0.0
C191 C 0.86792 0.27001 0.29485 0.0
P192 P 0.3924 0.69395 0.21288 0.0
H193 H 0.37416 0.66358 0.15341 0.0
H194 H 0.32047 0.64042 0.12678 0.0
H195 H 0.26706 0.66552 0.20187 0.0
H196 H 0.32141 0.68825 0.22889 0.0
H197 H 0.45713 0.73823 0.20943 0.0
H198 H 0.47251 0.79159 0.19319 0.0
H199 H 0.36677 0.79412 0.18641 0.0
H200 H 0.35159 0.74046 0.20221 0.0
H201 H 0.35117 0.64402 0.24897 0.0
H202 H 0.4428 0.71378 0.26371 0.0
O203 O 0.42143 0.68047 0.19537 0.0
H204 H 0.36129 0.62117 0.2986 0.0
H205 H 0.45449 0.68982 0.31275 0.0
C206 C 0.35192 0.67722 0.19346 0.0
C207 C 0.35099 0.66402 0.16435 0.0
C208 C 0.32011 0.65095 0.14893 0.0
C209 C 0.28928 0.65101 0.16211 0.0
C210 C 0.29026 0.66463 0.19121 0.0
C211 C 0.3213 0.67776 0.20664 0.0
C212 C 0.40318 0.73504 0.20685 0.0
C213 C 0.43723 0.75035 0.20495 0.0
C214 C 0.44601 0.78105 0.19567 0.0
C215 C 0.42091 0.79734 0.18811 0.0
C216 C 0.3868 0.78226 0.19141 0.0
C217 C 0.37806 0.75149 0.20076 0.0
C218 C 0.39562 0.68137 0.25273 0.0
C219 C 0.37309 0.65503 0.26317 0.0
C220 C 0.3794 0.64144 0.29153 0.0
C221 C 0.40906 0.65318 0.30991 0.0
C222 C 0.43112 0.68015 0.29974 0.0
C223 C 0.42445 0.69402 0.27152 0.0
P224 P 0.17388 0.34393 0.75026 0.0
H225 H 0.17794 0.27969 0.75233 0.0
H226 H 0.14838 0.23473 0.72381 0.0
H227 H 0.08537 0.28802 0.6759 0.0
H228 H 0.11448 0.33298 0.7059 0.0
H229 H 0.22678 0.39998 0.75796 0.0
H230 H 0.26886 0.42856 0.72367 0.0
H231 H 0.22226 0.36967 0.64836 0.0
H232 H 0.18075 0.3411 0.68267 0.0
H233 H 0.13169 0.32252 0.80189 0.0
H234 H 0.16393 0.40743 0.75261 0.0
O235 O 0.2014 0.33241 0.77497 0.0
H236 H 0.10754 0.34869 0.84063 0.0
H237 H 0.14068 0.43401 0.79168 0.0
C238 C 0.14843 0.30988 0.73145 0.0
C239 C 0.15744 0.28177 0.73607 0.0
C240 C 0.14068 0.25594 0.71929 0.0
C241 C 0.11464 0.25749 0.69698 0.0
C242 C 0.10503 0.28563 0.69297 0.0
C243 C 0.12168 0.31148 0.71011 0.0
C244 C 0.20003 0.36861 0.72301 0.0
C245 C 0.22507 0.3937 0.73388 0.0
C246 C 0.24922 0.41003 0.71419 0.0
C247 C 0.24918 0.40138 0.68318 0.0
C248 C 0.22342 0.37679 0.67216 0.0
C249 C 0.19923 0.36056 0.69183 0.0
C250 C 0.1497 0.36286 0.77422 0.0
C251 C 0.13312 0.34676 0.79911 0.0
C252 C 0.1197 0.36191 0.82157 0.0
C253 C 0.12253 0.3937 0.81979 0.0
C254 C 0.13781 0.40955 0.79395 0.0
C255 C 0.15128 0.39432 0.77148 0.0
Tb256 Tb 0.96596 1.02078 0.54385 0.0
Tb257 Tb 0.04335 0.04393 0.53172 0.0
C258 C 0.90635 0.99113 0.55025 0.0
C259 C 0.88894 0.963 0.5657 0.0
C260 C 0.85583 0.94877 0.55567 0.0
C261 C 0.83674 0.92521 0.57315 0.0
C262 C 0.85046 0.91565 0.60107 0.0
C263 C 0.88445 0.92874 0.60996 0.0
C264 C 0.90352 0.9522 0.59241 0.0
C265 C 0.99907 0.07062 0.57307 0.0
C266 C 0.02065 0.98831 0.57699 0.0
C267 C 0.10228 0.0768 0.53505 0.0
C268 C 0.12616 0.09659 0.51481 0.0
C269 C 0.14036 0.12676 0.52388 0.0
C270 C 0.16288 0.14635 0.50527 0.0
C271 C 0.17184 0.13604 0.47728 0.0
C272 C 0.15776 0.10572 0.46826 0.0
C273 C 0.13496 0.08616 0.4868 0.0
C274 C 0.01226 1.0002 0.49225 0.0
C275 C 0.98785 0.07187 0.49406 0.0
O276 O 0.92364 0.98815 0.52632 0.0
O277 O 0.92234 1.01309 0.56868 0.0
O278 O 0.01049 0.04746 0.56771 0.0
O279 O 0.96757 0.06549 0.56338 0.0
O280 O 0.98831 0.98752 0.56988 0.0
O281 O 0.0459 1.01017 0.56751 0.0
O282 O 0.07534 0.08671 0.54074 0.0
O283 O 0.09552 0.0472 0.5304 0.0
O284 O 1.00077 1.01272 0.51339 0.0
O285 O 0.04399 1.01415 0.49137 0.0
O286 O 0.01988 0.07516 0.50412 0.0
O287 O 0.96306 0.04932 0.50326 0.0
H288 H 0.84423 0.95678 0.53503 0.0
H289 H 0.81085 0.91525 0.56537 0.0
H290 H 0.89578 0.92223 0.63146 0.0
H291 H 0.92901 0.96301 0.60061 0.0
H292 H 0.13399 0.13523 0.54544 0.0
H293 H 0.17363 0.16946 0.513 0.0
H294 H 0.16399 0.09726 0.44666 0.0
H295 H 0.1242 0.06302 0.47917 0.0
Tb296 Tb 0.52778 0.04633 0.04576 0.0
Tb297 Tb 0.4489 0.02625 1.03393 0.0
C298 C 0.58732 0.07693 0.04192 0.0
C299 C 0.6135 0.09411 0.0634 0.0
C300 C 0.64553 0.10754 0.05293 0.0
C301 C 0.67027 0.12508 0.07289 0.0
C302 C 0.66326 0.12946 0.10363 0.0
C303 C 0.63107 0.11564 0.11404 0.0
C304 C 0.60638 0.0981 0.09407 0.0
C305 C 0.50036 1.00203 0.08479 0.0
C306 C 0.47867 0.07446 0.08526 0.0
C307 C 0.38775 0.99961 1.02608 0.0
C308 C 0.36806 0.96899 1.01781 0.0
C309 C 0.38265 0.9436 1.01945 0.0
C310 C 0.36425 0.91522 1.00862 0.0
C311 C 0.33115 0.91193 0.9955 0.0
C312 C 0.31645 0.9374 0.99486 0.0
C313 C 0.33473 0.96559 1.006 0.0
C314 C 0.48117 0.07595 1.00504 0.0
C315 C 0.49746 0.99049 1.00312 0.0
O316 O 0.56057 0.08839 1.03713 0.0
O317 O 0.57953 0.04719 0.04592 0.0
O318 O 0.48645 1.01551 0.06413 0.0
O319 O 0.53244 1.01503 0.08516 0.0
O320 O 0.50941 0.07731 0.075 0.0
O321 O 0.45198 0.05346 0.07504 0.0
O322 O 0.40413 1.00243 0.05315 0.0
O323 O 0.40583 1.01452 1.00415 0.0
O324 O 0.4913 0.05181 1.01016 0.0
O325 O 0.45098 0.07221 1.0149 0.0
O326 O 0.46672 0.98981 1.01224 0.0
O327 O 0.52401 1.01306 1.00974 0.0
H328 H 0.65133 0.10463 1.02926 0.0
H329 H 0.69493 0.13509 0.06429 0.0
H330 H 0.62472 0.11891 0.13745 0.0
H331 H 0.58161 0.08797 0.10241 0.0
H332 H 0.40851 0.94586 1.02828 0.0
H333 H 0.37627 0.8961 1.00984 0.0
H334 H 0.29139 0.93608 0.98438 0.0
H335 H 0.32321 0.98506 1.00435 0.0
Tb336 Tb 0.51262 0.55614 0.55159 0.0
Tb337 Tb 0.51329 0.49718 0.52273 0.0
C338 C 0.49446 0.60266 0.56844 0.0
C339 C 0.4625 0.60717 0.57972 0.0
C340 C 0.43116 0.59057 0.56727 0.0
C341 C 0.40102 0.59419 0.57896 0.0
C342 C 0.40165 0.61444 0.60331 0.0
C343 C 0.43311 0.63103 0.61568 0.0
C344 C 0.46325 0.62739 0.60398 0.0
C345 C 0.54581 0.52164 0.58476 0.0
C346 C 0.45063 0.49798 0.56012 0.0
C347 C 0.53038 0.44954 0.50724 0.0
C348 C 0.5596 0.44256 0.49284 0.0
C349 C 0.59226 0.46113 0.49779 0.0
C350 C 0.61976 0.45401 0.4841 0.0
C351 C 0.61513 0.42812 0.4653 0.0
C352 C 0.58231 0.40965 0.46038 0.0
C353 C 0.55481 0.41685 0.47401 0.0
C354 C 0.47983 0.53164 0.48958 0.0
C355 C 0.57489 0.55598 0.51329 0.0
O356 O 0.49356 0.59445 0.5396 0.0
O357 O 0.51092 0.58706 0.58676 0.0
O358 O 0.51836 0.51274 0.56908 0.0
O359 O 0.55493 0.55122 0.58312 0.0
O360 O 0.46168 0.5281 0.56011 0.0
O361 O 0.46873 0.48016 0.54899 0.0
O362 O 0.53619 0.4612 0.53493 0.0
O363 O 0.51122 0.46326 0.48963 0.0
O364 O 0.50724 0.54048 0.50529 0.0
O365 O 0.47116 0.50202 0.49079 0.0
O366 O 0.56341 0.52588 0.51187 0.0
O367 O 0.55752 0.5735 0.52608 0.0
H368 H 0.42989 0.57462 0.54865 0.0
H369 H 0.37724 0.58085 0.56916 0.0
H370 H 0.43443 0.64718 0.63414 0.0
H371 H 0.48718 0.64033 0.61391 0.0
H372 H 0.5966 0.48106 0.51233 0.0
H373 H 0.6446 0.46893 0.48806 0.0
H374 H 0.57791 0.38931 0.4464 0.0
H375 H 0.5298 0.40221 0.47002 0.0
Tb376 Tb 0.00806 0.5518 1.01807 0.0
Tb377 Tb 0.01761 0.50274 0.06238 0.0
C378 C 0.9848 0.58816 0.9832 0.0
C379 C 0.95338 0.59878 0.98006 0.0
C380 C 0.92644 0.58706 0.99904 0.0
C381 C 0.89577 0.59591 0.99423 0.0
C382 C 0.8916 0.6163 0.97014 0.0
C383 C 0.91889 0.6282 0.95151 0.0
C384 C 0.94952 0.6195 0.95647 0.0
C385 C 0.06984 0.56023 0.04419 0.0
C386 C 0.98354 0.55213 0.08689 0.0
C387 C 0.04174 0.46622 0.09626 0.0
C388 C 0.07266 0.45412 0.09778 0.0
C389 C 0.10401 0.47235 0.10839 0.0
C390 C 0.13252 0.46004 0.11203 0.0
C391 C 0.13043 0.42924 0.1051 0.0
C392 C 0.09928 0.41128 0.09361 0.0
C393 C 0.07068 0.42356 0.09014 0.0
C394 C 0.95584 0.49452 1.03609 0.0
C395 C 0.04212 0.50243 0.9935 0.0
O396 O 0.98156 0.55928 0.97717 0.0
O397 O 1.00432 0.59678 1.00791 0.0
O398 O 0.04243 0.54946 0.05673 0.0
O399 O 0.06299 0.56899 1.01646 0.0
O400 O 0.97864 0.55933 0.05744 0.0
O401 O 1.00155 0.53199 0.09492 0.0
O402 O 0.04575 0.49525 0.10228 0.0
O403 O 0.01992 0.45745 0.07306 0.0
O404 O 0.98339 0.50515 1.02375 0.0
O405 O 0.96249 0.48566 0.06385 0.0
O406 O 0.04668 0.49482 1.02288 0.0
O407 O 0.02435 0.52276 0.98559 0.0
H408 H 0.92894 0.5707 1.01715 0.0
H409 H 0.87511 0.5863 1.00882 0.0
H410 H 0.91658 0.64434 0.93313 0.0
H411 H 0.97007 0.62863 0.94158 0.0
H412 H 0.10648 0.49597 0.11464 0.0
H413 H 0.15588 0.47445 0.1214 0.0
H414 H 0.09686 0.38759 0.08765 0.0
H415 H 0.04685 0.40898 0.08196 0.0
H416 H 0.33979 0.21896 0.36608 0.0
H417 H 0.17308 0.1956 0.46212 0.0
H418 H 0.27768 0.28478 0.36701 0.0
H419 H 0.22538 0.12413 0.44803 0.0
H420 H 0.2137 0.23012 0.43071 0.0
H421 H 0.30106 0.18569 0.40006 0.0
C422 C 0.31823 0.22659 0.37377 0.0
C423 C 0.31195 0.2547 0.36373 0.0
C424 C 0.21629 0.20689 0.43446 0.0
C425 C 0.26726 0.21654 0.40226 0.0
C426 C 0.19321 0.18722 0.45249 0.0
C427 C 0.19589 0.15696 0.4577 0.0
C428 C 0.24243 0.19631 0.4217 0.0
C429 C 0.2222 0.14719 0.44434 0.0
C430 C 0.29596 0.20746 0.39293 0.0
C431 C 0.2833 0.26318 0.37399 0.0
N432 N 0.24452 0.16684 0.42703 0.0
N433 N 0.26201 0.24417 0.39268 0.0
H434 H 0.18962 0.81297 0.86648 0.0
H435 H 0.35851 0.87343 0.96183 0.0
H436 H 0.27771 0.77628 0.85709 0.0
H437 H 0.26282 0.88516 0.99202 0.0
H438 H 0.32827 0.83287 0.92782 0.0
H439 H 0.21337 0.83407 0.91629 0.0
C440 C 0.21353 0.8086 0.87522 0.0
C441 C 0.23207 0.79344 0.85716 0.0
C442 C 0.31385 0.84389 0.94231 0.0
C443 C 0.25982 0.8183 0.91387 0.0
C444 C 0.33117 0.86706 0.96198 0.0
C445 C 0.31326 0.88334 0.97948 0.0
C446 C 0.27834 0.83729 0.9396 0.0
C447 C 0.27774 0.87401 0.97822 0.0
C448 C 0.2272 0.82084 0.90366 0.0
C449 C 0.26303 0.78868 0.86975 0.0
N450 N 0.26143 0.85206 0.95811 0.0
N451 N 0.27628 0.80164 0.897 0.0
H452 H 0.56758 0.38282 0.72246 0.0
H453 H 0.60123 0.5394 0.62428 0.0
H454 H 0.65196 0.45926 0.74111 0.0
H455 H 0.51929 0.46208 0.60178 0.0
H456 H 0.61998 0.51014 0.66716 0.0
H457 H 0.54866 0.41144 0.67898 0.0
C458 C 0.58201 0.40569 0.71763 0.0
C459 C 0.61155 0.4185 0.73558 0.0
C460 C 0.59796 0.49946 0.65283 0.0
C461 C 0.59014 0.45138 0.68541 0.0
C462 C 0.58729 0.51617 0.62826 0.0
C463 C 0.55865 0.5032 0.60941 0.0
C464 C 0.57982 0.46947 0.65881 0.0
C465 C 0.54156 0.47297 0.6157 0.0
C466 C 0.57131 0.42194 0.6926 0.0
C467 C 0.62936 0.44815 0.72778 0.0
N468 N 0.55231 0.4572 0.6399 0.0
N469 N 0.61841 0.46347 0.70341 0.0
H470 H 0.94723 0.62867 0.2618 0.0
H471 H 0.93998 0.591 0.08068 0.0
H472 H 0.87907 0.65816 0.19462 0.0
H473 H 0.99569 0.54938 0.14974 0.0
H474 H 0.91948 0.61768 0.12168 0.0
H475 H 0.96784 0.60199 0.22079 0.0
C476 C 0.93669 0.62972 0.23846 0.0
C477 C 0.91114 0.64567 0.23189 0.0
C478 C 0.93612 0.60264 0.12789 0.0
C479 C 0.93469 0.61494 0.18457 0.0
C480 C 0.94786 0.58735 0.10442 0.0
C481 C 0.96961 0.56773 0.11159 0.0
C482 C 0.94636 0.59863 0.15891 0.0
C483 C 0.97888 0.56409 0.14294 0.0
C484 C 0.94834 0.61428 0.21503 0.0
C485 C 0.89836 0.64585 0.20106 0.0
N486 N 0.96737 0.57942 0.16529 0.0
N487 N 0.91026 0.63086 0.1787 0.0
H488 H 0.38734 0.18871 0.19334 0.0
H489 H 0.52599 0.12193 0.11178 0.0
H490 H 0.49437 0.22999 0.20205 0.0
H491 H 0.41956 0.07799 0.11064 0.0
H492 H 0.51572 0.16078 0.1462 0.0
H493 H 0.39943 0.14716 0.16435 0.0
C494 C 0.41348 0.18889 0.18948 0.0
C495 C 0.4399 0.21288 0.20032 0.0
C496 C 0.49469 0.14251 0.13855 0.0
C497 C 0.45391 0.16544 0.16644 0.0
C498 C 0.50051 0.12028 0.1189 0.0
C499 C 0.47354 0.09672 0.10808 0.0
C500 C 0.46166 0.14123 0.14734 0.0
C501 C 0.44112 0.09576 0.11821 0.0
C502 C 0.42035 0.16518 0.17271 0.0
C503 C 0.47318 0.21215 0.19387 0.0
N504 N 0.43609 0.11779 0.1371 0.0
N505 N 0.47924 0.18884 0.17727 0.0
H506 H 0.10741 0.83698 0.62508 0.0
H507 H 0.98274 0.94942 0.6184 0.0
H508 H 0.05278 0.84741 0.70517 0.0
H509 H 0.07814 0.96791 0.57446 0.0
H510 H 0.9977 0.90472 0.64429 0.0
H511 H 0.08436 0.87654 0.59863 0.0
C512 C 0.08984 0.84702 0.63684 0.0
C513 C 0.08198 0.83888 0.66739 0.0
C514 C 0.01522 0.91875 0.62901 0.0
C515 C 0.05602 0.88457 0.63733 0.0
C516 C 0.00677 0.94414 0.61427 0.0
C517 C 0.02936 0.96247 0.59444 0.0
C518 C 0.04594 0.91136 0.62304 0.0
C519 C 0.06015 0.95464 0.58984 0.0
C520 C 0.07706 0.86986 0.62185 0.0
C521 C 0.05958 0.85319 0.68167 0.0
N522 N 0.06738 0.92954 0.60379 0.0
N523 N 0.04739 0.87551 0.66652 0.0
H524 H 0.79698 0.4488 0.8916 0.0
H525 H 0.89634 0.46105 0.05749 0.0
H526 H 0.76109 0.39153 0.96935 0.0
H527 H 0.94041 0.50407 0.97506 0.0
H528 H 0.8434 0.44068 1.02735 0.0
H529 H 0.8462 0.4747 0.92368 0.0
C530 C 0.79919 0.44191 0.91553 0.0
C531 C 0.77482 0.41781 0.92771 0.0
C532 C 0.86458 0.45476 1.01589 0.0
C533 C 0.83146 0.44728 0.96459 0.0
C534 C 0.89476 0.46646 1.0331 0.0
C535 C 0.92285 0.48423 1.01874 0.0
C536 C 0.86236 0.46102 0.98408 0.0
C537 C 0.91938 0.49056 0.98709 0.0
C538 C 0.82747 0.45657 0.93378 0.0
C539 C 0.7794 0.40968 0.95883 0.0
N540 N 0.88978 0.47891 0.97082 0.0
N541 N 0.80713 0.42432 0.97614 0.0
H542 H 0.7457 0.59865 0.39382 0.0
H543 H 0.60737 0.61658 0.51303 0.0
H544 H 0.73445 0.68494 0.42802 0.0
H545 H 0.6144 0.5294 0.47769 0.0
H546 H 0.65642 0.64125 0.48445 0.0
H547 H 0.70053 0.57228 0.42668 0.0
C548 C 0.73398 0.61207 0.40838 0.0
C549 C 0.74381 0.64416 0.40783 0.0
C550 C 0.64741 0.61669 0.48302 0.0
C551 C 0.69184 0.61405 0.44546 0.0
C552 C 0.61932 0.60251 0.49944 0.0
C553 C 0.60648 0.57076 0.49782 0.0
C554 C 0.66302 0.59915 0.46462 0.0
C555 C 0.62331 0.55389 0.47976 0.0
C556 C 0.70804 0.59698 0.42704 0.0
C557 C 0.7274 0.66025 0.42711 0.0
N558 N 0.65055 0.56828 0.46378 0.0
N559 N 0.70231 0.64509 0.44497 0.0
H560 H 0.33041 0.4084 0.1623 0.0
H561 H 0.13059 0.37229 0.12874 0.0
H562 H 0.26343 0.32128 0.18101 0.0
H563 H 0.19789 0.45499 0.09766 0.0
H564 H 0.17948 0.35209 0.1448 0.0
H565 H 0.2829 0.42516 0.13604 0.0
C566 C 0.30577 0.39275 0.16071 0.0
C567 C 0.30086 0.36345 0.17398 0.0
C568 C 0.18361 0.37456 0.1342 0.0
C569 C 0.24643 0.38243 0.14405 0.0
C570 C 0.15562 0.38606 0.12478 0.0
C571 C 0.16002 0.41554 0.11198 0.0
C572 C 0.21636 0.39271 0.13112 0.0
C573 C 0.19323 0.43241 0.108 0.0
C574 C 0.27871 0.40226 0.1456 0.0
C575 C 0.26849 0.34396 0.1709 0.0
N576 N 0.22011 0.42088 0.1178 0.0
N577 N 0.24249 0.3539 0.15652 0.0
H578 H 0.54509 0.2583 0.92649 0.0
H579 H 0.53882 0.08319 0.97284 0.0
H580 H 0.61033 0.20603 0.8897 0.0
H581 H 0.46501 0.13149 0.99961 0.0
H582 H 0.56752 0.12891 0.94477 0.0
H583 H 0.51757 0.21316 0.95588 0.0
C584 C 0.55372 0.2374 0.92462 0.0
C585 C 0.58003 0.23606 0.90537 0.0
C586 C 0.54507 0.12956 0.95681 0.0
C587 C 0.5485 0.18409 0.93907 0.0
C588 C 0.52877 0.10348 0.97292 0.0
C589 C 0.49954 0.10357 0.98863 0.0
C590 C 0.53212 0.15601 0.95642 0.0
C591 C 0.48747 0.13043 0.98779 0.0
C592 C 0.53787 0.21155 0.94133 0.0
C593 C 0.58984 0.20813 0.90378 0.0
N594 N 0.50379 0.15552 0.97202 0.0
N595 N 0.57418 0.18339 0.9204 0.0
H596 H 0.92064 0.81175 0.44633 0.0
H597 H 0.02548 0.98411 0.43489 0.0
H598 H 0.94332 0.85661 0.35848 0.0
H599 H 0.96278 0.95163 0.51095 0.0
H600 H 1.00164 0.93575 0.40803 0.0
H601 H 0.94194 0.86074 0.47193 0.0
C602 C 0.92985 0.83172 0.43221 0.0
C603 C 0.92968 0.82952 0.39983 0.0
C604 C 0.99281 0.93932 0.43045 0.0
C605 C 0.95528 0.88607 0.42964 0.0
C606 C 0.00636 0.9669 0.44576 0.0
C607 C 0.99558 0.97213 0.47492 0.0
C608 C 0.96897 0.9163 0.44476 0.0
C609 C 0.97112 0.94888 0.48816 0.0
C610 C 0.9422 0.85978 0.44703 0.0
C611 C 0.9432 0.85656 0.38338 0.0
N612 N 0.9589 0.92188 0.47315 0.0
N613 N 0.95549 0.8835 0.39842 0.0
H614 H 0.26262 0.67232 0.71654 0.0
H615 H 0.3435 0.61906 0.57045 0.0
H616 H 0.21952 0.67349 0.62351 0.0
H617 H 0.38691 0.61993 0.6635 0.0
H618 H 0.29292 0.63071 0.59038 0.0
H619 H 0.3022 0.64411 0.69867 0.0
C620 C 0.26084 0.66598 0.69247 0.0
C621 C 0.23794 0.6757 0.67141 0.0
C622 C 0.31335 0.62804 0.60648 0.0
C623 C 0.28404 0.6441 0.65063 0.0
C624 C 0.34221 0.62128 0.59512 0.0
C625 C 0.36968 0.61892 0.61531 0.0
C626 C 0.31197 0.63257 0.63825 0.0
C627 C 0.36666 0.62224 0.64704 0.0
C628 C 0.28377 0.65012 0.68221 0.0
C629 C 0.23724 0.66706 0.64043 0.0
N630 N 0.33847 0.62915 0.65749 0.0
N631 N 0.2603 0.65215 0.63088 0.0
H632 H 0.70026 0.85271 0.73362 0.0
H633 H 0.86615 0.86991 0.63808 0.0
H634 H 0.78554 0.8154 0.76342 0.0
H635 H 0.78497 0.91456 0.61375 0.0
H636 H 0.83265 0.84217 0.67913 0.0
H637 H 0.72632 0.86738 0.68453 0.0
C638 C 0.72418 0.84711 0.72963 0.0
C639 C 0.74096 0.83317 0.75281 0.0
C640 C 0.82201 0.85773 0.66451 0.0
C641 C 0.7712 0.85032 0.69685 0.0
C642 C 0.84116 0.87365 0.64113 0.0
C643 C 0.82857 0.89488 0.6226 0.0
C644 C 0.79005 0.86315 0.66949 0.0
C645 C 0.79572 0.89831 0.62725 0.0
C646 C 0.73918 0.85568 0.70167 0.0
C647 C 0.77206 0.8267 0.74643 0.0
N648 N 0.77779 0.8829 0.65042 0.0
N649 N 0.78634 0.83559 0.71918 0.0
H650 H 0.82137 0.27374 0.18576 0.0
H651 H 0.67856 0.11873 0.16444 0.0
H652 H 0.78746 0.21033 0.25969 0.0
H653 H 0.70707 0.18393 0.09077 0.0
H654 H 0.72015 0.15135 0.19914 0.0
H655 H 0.78126 0.24054 0.14995 0.0
C656 C 0.8055 0.25287 0.19445 0.0
C657 C 0.80791 0.24474 0.22574 0.0
C658 C 0.71738 0.15854 0.17537 0.0
C659 C 0.76216 0.20662 0.18495 0.0
C660 C 0.6935 0.13997 0.15559 0.0
C661 C 0.68922 0.14866 0.12468 0.0
C662 C 0.73718 0.18606 0.16424 0.0
C663 C 0.70975 0.17618 0.11434 0.0
C664 C 0.78272 0.23388 0.174 0.0
C665 C 0.78694 0.21728 0.23569 0.0
N666 N 0.73278 0.19396 0.1341 0.0
N667 N 0.76497 0.19928 0.21539 0.0
H668 H 0.44411 0.67643 0.36419 0.0
H669 H 0.42829 0.51267 0.44623 0.0
H670 H 0.39467 0.59095 0.32093 0.0
H671 H 0.50186 0.59303 0.47715 0.0
H672 H 0.40961 0.54267 0.4039 0.0
H673 H 0.46007 0.64782 0.40894 0.0
C674 C 0.43656 0.65174 0.36391 0.0
C675 C 0.41783 0.63633 0.33836 0.0
C676 C 0.42973 0.55382 0.42002 0.0
C677 C 0.43564 0.60336 0.39019 0.0
C678 C 0.44034 0.53671 0.44428 0.0
C679 C 0.46671 0.55033 0.46529 0.0
C680 C 0.44537 0.58496 0.41675 0.0
C681 C 0.48135 0.58162 0.46158 0.0
C682 C 0.44559 0.63542 0.38965 0.0
C683 C 0.40842 0.60418 0.34003 0.0
N684 N 0.47053 0.59786 0.43779 0.0
N685 N 0.41736 0.58891 0.36535 0.0
H686 H 0.0917 0.44251 0.81559 0.0
H687 H 0.07662 0.45616 0.99874 0.0
H688 H 0.12667 0.38312 0.88262 0.0
H689 H 0.03915 0.51344 0.93102 0.0
H690 H 0.09652 0.43005 0.95688 0.0
H691 H 0.07371 0.46949 0.85766 0.0
C692 C 0.09576 0.43514 0.8391 0.0
C693 C 0.11074 0.41027 0.84529 0.0
C694 C 0.08402 0.4484 0.95119 0.0
C695 C 0.08985 0.44123 0.89398 0.0
C696 C 0.07271 0.46342 0.97515 0.0
C697 C 0.0561 0.48715 0.96859 0.0
C698 C 0.0788 0.45709 0.9203 0.0
C699 C 0.05176 0.49533 0.9374 0.0
C700 C 0.08529 0.45053 0.8632 0.0
C701 C 0.11479 0.40174 0.87644 0.0
N702 N 0.06293 0.48038 0.91457 0.0
N703 N 0.1045 0.41713 0.89947 0.0
H704 H 0.5779 0.83838 0.96246 0.0
H705 H 0.45626 0.95317 0.96011 0.0
H706 H 0.53616 0.8635 0.87477 0.0
H707 H 0.55213 0.96653 1.01185 0.0
H708 H 0.46892 0.9084 0.93508 0.0
H709 H 0.54887 0.87165 0.98823 0.0
C710 C 0.56167 0.85 0.94862 0.0
C711 C 0.55979 0.84838 0.91629 0.0
C712 C 0.48689 0.92121 0.95205 0.0
C713 C 0.52698 0.88687 0.94586 0.0
C714 C 0.4798 0.9466 0.96621 0.0
C715 C 0.50352 0.96367 0.98759 0.0
C716 C 0.51717 0.91253 0.96046 0.0
C717 C 0.53349 0.95426 0.99505 0.0
C718 C 0.54541 0.86923 0.9634 0.0
C719 C 0.5387 0.8645 0.8997 0.0
N720 N 0.53936 0.92921 0.98166 0.0
N721 N 0.52339 0.88353 0.91467 0.0
H722 H 0.99312 0.24671 0.40657 0.0
H723 H 0.92515 0.07674 0.47059 0.0
H724 H 0.88808 0.19854 0.39986 0.0
H725 H 0.03093 0.1229 0.47195 0.0
H726 H 0.91126 0.12029 0.44271 0.0
H727 H 0.00766 0.20095 0.42925 0.0
C728 C 0.97312 0.22651 0.4098 0.0
C729 C 0.9393 0.22659 0.40149 0.0
C730 C 0.93753 0.12077 0.44892 0.0
C731 C 0.95572 0.17412 0.42755 0.0
C732 C 0.94551 0.09583 0.46476 0.0
C733 C 0.97925 0.09617 0.47386 0.0
C734 C 0.96345 0.14629 0.44223 0.0
C735 C 1.00452 0.12161 0.4656 0.0
C736 C 0.98142 0.20039 0.4228 0.0
C737 C 0.91441 0.19978 0.40647 0.0
N738 N 0.99607 0.14571 0.45048 0.0
N739 N 0.92312 0.17469 0.41921 0.0
H740 H 0.23083 0.61659 0.1858 0.0
H741 H 0.12953 0.5902 1.02091 0.0
H742 H 0.27266 0.65325 0.10003 0.0
H743 H 0.08526 0.55537 0.10617 0.0
H744 H 0.18295 0.61153 0.0496 0.0
H745 H 0.17782 0.59296 0.15738 0.0
C746 C 0.22887 0.61986 0.16105 0.0
C747 C 0.25644 0.63695 0.14536 0.0
C748 C 0.16164 0.59913 0.06209 0.0
C749 C 0.1958 0.60958 0.11256 0.0
C750 C 0.13115 0.58688 0.04568 0.0
C751 C 0.1029 0.57108 0.06119 0.0
C752 C 0.16401 0.59562 0.09434 0.0
C753 C 0.10644 0.56739 0.09331 0.0
C754 C 0.19863 0.60616 0.14479 0.0
C755 C 0.25241 0.63994 0.11315 0.0
N756 N 0.13637 0.57967 0.10884 0.0
N757 N 0.22278 0.62645 0.09791 0.0
H758 H 0.28033 0.46265 0.67918 0.0
H759 H 0.41746 0.43744 0.5622 0.0
H760 H 0.28192 0.37511 0.64126 0.0
H761 H 0.41092 0.52633 0.59324 0.0
H762 H 0.36721 0.41449 0.59029 0.0
H763 H 0.3276 0.48657 0.64762 0.0
C764 C 0.29055 0.44842 0.66424 0.0
C765 C 0.27694 0.41673 0.66298 0.0
C766 C 0.37662 0.43904 0.59083 0.0
C767 C 0.33124 0.44409 0.62659 0.0
C768 C 0.40538 0.45221 0.57473 0.0
C769 C 0.41862 0.48394 0.57527 0.0
C770 C 0.36092 0.45762 0.60788 0.0
C771 C 0.4017 0.5018 0.592 0.0
C772 C 0.31748 0.46214 0.64608 0.0
C773 C 0.29113 0.39963 0.6428 0.0
N774 N 0.37393 0.48841 0.60773 0.0
N775 N 0.31749 0.41346 0.62561 0.0
H776 H 0.73869 0.69364 0.88039 0.0
H777 H 0.85131 0.63306 1.01213 0.0
H778 H 0.73301 0.71021 0.97737 0.0
H779 H 0.85786 0.62007 0.91465 0.0
H780 H 0.80096 0.65337 1.00088 0.0
H781 H 0.77424 0.65812 0.89357 0.0
C782 C 0.74422 0.6893 0.90452 0.0
C783 C 0.73319 0.70534 0.92779 0.0
C784 C 0.81319 0.64574 0.98199 0.0
C785 C 0.77489 0.66522 0.94303 0.0
C786 C 0.84184 0.63407 0.98841 0.0
C787 C 0.85906 0.6254 0.96422 0.0
C788 C 0.80177 0.64869 0.95118 0.0
C789 C 0.84578 0.6272 0.93392 0.0
C790 C 0.76487 0.66918 0.91203 0.0
C791 C 0.74162 0.69892 0.95864 0.0
N792 N 0.81814 0.6389 0.92825 0.0
N793 N 0.76239 0.6797 0.96536 0.0
H794 H 0.47591 0.84352 0.20518 0.0
H795 H 0.43697 0.96383 0.07685 0.0
H796 H 0.38775 0.82457 0.14234 0.0
H797 H 0.53001 0.97603 0.13241 0.0
H798 H 0.41544 0.91513 0.10369 0.0
H799 H 0.49319 0.8942 0.18193 0.0
C800 C 0.46012 0.84992 0.18648 0.0
C801 C 0.43038 0.82938 0.17566 0.0
C802 C 0.44046 0.92858 0.11019 0.0
C803 C 0.45003 0.888 0.14893 0.0
C804 C 0.45263 0.95646 0.09495 0.0
C805 C 0.48524 0.97403 0.10241 0.0
C806 C 0.46106 0.91829 0.1332 0.0
C807 C 0.5047 0.96323 0.12589 0.0
C808 C 0.46997 0.87903 0.17327 0.0
C809 C 0.41071 0.83954 0.15175 0.0
N810 N 0.49238 0.93614 0.14035 0.0
N811 N 0.42095 0.86798 0.13913 0.0
H812 H 0.14368 0.21268 0.67528 0.0
H813 H 0.97573 0.12133 0.58332 0.0
H814 H 0.04812 0.23923 0.67423 0.0
H815 H 0.06291 0.08337 0.60236 0.0
H816 H 1.00378 0.16676 0.61267 0.0
H817 H 0.11645 0.16752 0.64528 0.0
C818 C 0.11692 0.20904 0.66905 0.0
C819 C 0.09827 0.23003 0.67779 0.0
C820 C 0.01689 0.14858 0.61042 0.0
C821 C 0.06698 0.17819 0.64247 0.0
C822 C 1.0009 0.1226 0.59359 0.0
C823 C 0.01704 0.0985 0.59021 0.0
C824 C 0.04951 0.15078 0.624 0.0
C825 C 0.04964 0.10149 0.6041 0.0
C826 C 0.10144 0.18321 0.65166 0.0
C827 C 0.06383 0.22413 0.66796 0.0
N828 N 0.06483 0.12716 0.62031 0.0
N829 N 0.0494 0.19888 0.65091 0.0
H830 H 0.74266 0.35881 0.34543 0.0
H831 H 0.67911 0.43178 0.49114 0.0
H832 H 0.80693 0.39036 0.4262 0.0
H833 H 0.61798 0.40632 0.40718 0.0
H834 H 0.7265 0.41754 0.4677 0.0
H835 H 0.69685 0.37644 0.36776 0.0
C836 C 0.7471 0.3694 0.36793 0.0
C837 C 0.77861 0.37293 0.38407 0.0
C838 C 0.70274 0.41515 0.45438 0.0
C839 C 0.72625 0.3934 0.40974 0.0
C840 C 0.6757 0.42344 0.46769 0.0
C841 C 0.64442 0.42018 0.45114 0.0
C842 C 0.69851 0.40346 0.42431 0.0
C843 C 0.64141 0.40878 0.421 0.0
C844 C 0.72097 0.37961 0.38061 0.0
C845 C 0.78311 0.38734 0.41288 0.0
N846 N 0.66805 0.40078 0.40861 0.0
N847 N 0.75715 0.39691 0.42488 0.0
loop_
_geom_bond_atom_site_label_1
_geom_bond_atom_site_label_2
_geom_bond_distance
_geom_bond_site_symmetry_2
_ccdc_geom_bond_type
P0 O11 1.490 . S
P0 C14 1.812 . S
P0 C20 1.803 . S
P0 C26 1.819 . S
H1 C15 0.941 . S
H2 C16 0.939 . S
H3 C18 0.940 . S
H4 C19 0.940 . S
H5 C21 0.939 . S
H6 C22 0.942 . S
H7 C24 0.940 . S
H8 C25 0.939 . S
H9 C27 0.941 . S
H10 C31 0.939 . S
O11 P0 1.490 . S
H12 C28 0.939 . S
H13 C30 0.940 . S
C14 P0 1.812 . S
C14 C15 1.389 . S
C14 C19 1.391 . S
C15 H1 0.941 . S
C15 C14 1.389 . S
C15 C16 1.397 . S
C16 H2 0.939 . S
C16 C15 1.397 . S
C16 C17 1.378 . S
C17 C16 1.378 . S
C17 C18 1.378 . S
C18 H3 0.940 . S
C18 C17 1.378 . S
C18 C19 1.396 . S
C19 H4 0.940 . S
C19 C14 1.391 . S
C19 C18 1.396 . S
C20 P0 1.803 . S
C20 C21 1.378 . S
C20 C25 1.400 . S
C21 H5 0.939 . S
C21 C20 1.378 . S
C21 C22 1.361 . S
C22 H6 0.942 . S
C22 C21 1.361 . S
C22 C23 1.369 . S
C23 C22 1.369 . S
C23 C24 1.404 . S
C24 H7 0.940 . S
C24 C23 1.404 . S
C24 C25 1.389 . S
C25 H8 0.939 . S
C25 C20 1.400 . S
C25 C24 1.389 . S
C26 P0 1.819 . S
C26 C27 1.391 . S
C26 C31 1.391 . S
C27 H9 0.941 . S
C27 C26 1.391 . S
C27 C28 1.396 . S
C28 H12 0.939 . S
C28 C27 1.396 . S
C28 C29 1.397 . S
C29 C28 1.397 . S
C29 C30 1.385 . S
C30 H13 0.940 . S
C30 C29 1.385 . S
C30 C31 1.388 . S
C31 H10 0.939 . S
C31 C26 1.391 . S
C31 C30 1.388 . S
P32 O43 1.490 . S
P32 C46 1.812 . S
P32 C52 1.803 . S
P32 C58 1.819 . S
H33 C47 0.941 . S
H34 C48 0.939 . S
H35 C50 0.940 . S
H36 C51 0.940 . S
H37 C53 0.939 . S
H38 C54 0.942 . S
H39 C56 0.940 . S
H40 C57 0.939 . S
H41 C59 0.941 . S
H42 C63 0.939 . S
O43 P32 1.490 . S
H44 C60 0.939 . S
H45 C62 0.940 . S
C46 P32 1.812 . S
C46 C47 1.389 . S
C46 C51 1.391 . S
C47 H33 0.941 . S
C47 C46 1.389 . S
C47 C48 1.397 . S
C48 H34 0.939 . S
C48 C47 1.397 . S
C48 C49 1.378 . S
C49 C48 1.378 . S
C49 C50 1.378 . S
C50 H35 0.940 . S
C50 C49 1.378 . S
C50 C51 1.396 . S
C51 H36 0.940 . S
C51 C46 1.391 . S
C51 C50 1.396 . S
C52 P32 1.803 . S
C52 C53 1.378 . S
C52 C57 1.400 . S
C53 H37 0.939 . S
C53 C52 1.378 . S
C53 C54 1.361 . S
C54 H38 0.942 . S
C54 C53 1.361 . S
C54 C55 1.369 . S
C55 C54 1.369 . S
C55 C56 1.404 . S
C56 H39 0.940 . S
C56 C55 1.404 . S
C56 C57 1.389 . S
C57 H40 0.939 . S
C57 C52 1.400 . S
C57 C56 1.389 . S
C58 P32 1.819 . S
C58 C59 1.391 . S
C58 C63 1.391 . S
C59 H41 0.941 . S
C59 C58 1.391 . S
C59 C60 1.396 . S
C60 H44 0.939 . S
C60 C59 1.396 . S
C60 C61 1.397 . S
C61 C60 1.397 . S
C61 C62 1.385 . S
C62 H45 0.940 . S
C62 C61 1.385 . S
C62 C63 1.388 . S
C63 H42 0.939 . S
C63 C58 1.391 . S
C63 C62 1.388 . S
P64 O75 1.490 . S
P64 C78 1.812 . S
P64 C84 1.803 . S
P64 C90 1.819 . S
H65 C79 0.941 . S
H66 C80 0.939 . S
H67 C82 0.940 . S
H68 C83 0.940 . S
H69 C85 0.939 . S
H70 C86 0.942 . S
H71 C88 0.940 . S
H72 C89 0.939 . S
H73 C91 0.941 . S
H74 C95 0.939 . S
O75 P64 1.490 . S
H76 C92 0.939 . S
H77 C94 0.940 . S
C78 P64 1.812 . S
C78 C79 1.389 . S
C78 C83 1.391 . S
C79 H65 0.941 . S
C79 C78 1.389 . S
C79 C80 1.397 . S
C80 H66 0.939 . S
C80 C79 1.397 . S
C80 C81 1.378 . S
C81 C80 1.378 . S
C81 C82 1.378 . S
C82 H67 0.940 . S
C82 C81 1.378 . S
C82 C83 1.396 . S
C83 H68 0.940 . S
C83 C78 1.391 . S
C83 C82 1.396 . S
C84 P64 1.803 . S
C84 C85 1.378 . S
C84 C89 1.400 . S
C85 H69 0.939 . S
C85 C84 1.378 . S
C85 C86 1.361 . S
C86 H70 0.942 . S
C86 C85 1.361 . S
C86 C87 1.369 . S
C87 C86 1.369 . S
C87 C88 1.404 . S
C88 H71 0.940 . S
C88 C87 1.404 . S
C88 C89 1.389 . S
C89 H72 0.939 . S
C89 C84 1.400 . S
C89 C88 1.389 . S
C90 P64 1.819 . S
C90 C91 1.391 . S
C90 C95 1.391 . S
C91 H73 0.941 . S
C91 C90 1.391 . S
C91 C92 1.396 . S
C92 H76 0.939 . S
C92 C91 1.396 . S
C92 C93 1.397 . S
C93 C92 1.397 . S
C93 C94 1.385 . S
C94 H77 0.940 . S
C94 C93 1.385 . S
C94 C95 1.388 . S
C95 H74 0.939 . S
C95 C90 1.391 . S
C95 C94 1.388 . S
P96 O107 1.490 . S
P96 C110 1.812 . S
P96 C116 1.803 . S
P96 C122 1.819 . S
H97 C111 0.941 . S
H98 C112 0.939 . S
H99 C114 0.940 . S
H100 C115 0.940 . S
H101 C117 0.939 . S
H102 C118 0.942 . S
H103 C120 0.940 . S
H104 C121 0.939 . S
H105 C123 0.941 . S
H106 C127 0.939 . S
O107 P96 1.490 . S
H108 C124 0.939 . S
H109 C126 0.940 . S
C110 P96 1.812 . S
C110 C111 1.389 . S
C110 C115 1.391 . S
C111 H97 0.941 . S
C111 C110 1.389 . S
C111 C112 1.397 . S
C112 H98 0.939 . S
C112 C111 1.397 . S
C112 C113 1.378 . S
C113 C112 1.378 . S
C113 C114 1.378 . S
C114 H99 0.940 . S
C114 C113 1.378 . S
C114 C115 1.396 . S
C115 H100 0.940 . S
C115 C110 1.391 . S
C115 C114 1.396 . S
C116 P96 1.803 . S
C116 C117 1.378 . S
C116 C121 1.400 . S
C117 H101 0.939 . S
C117 C116 1.378 . S
C117 C118 1.361 . S
C118 H102 0.942 . S
C118 C117 1.361 . S
C118 C119 1.369 . S
C119 C118 1.369 . S
C119 C120 1.404 . S
C120 H103 0.940 . S
C120 C119 1.404 . S
C120 C121 1.389 . S
C121 H104 0.939 . S
C121 C116 1.400 . S
C121 C120 1.389 . S
C122 P96 1.819 . S
C122 C123 1.391 . S
C122 C127 1.391 . S
C123 H105 0.941 . S
C123 C122 1.391 . S
C123 C124 1.396 . S
C124 H108 0.939 . S
C124 C123 1.396 . S
C124 C125 1.397 . S
C125 C124 1.397 . S
C125 C126 1.385 . S
C126 H109 0.940 . S
C126 C125 1.385 . S
C126 C127 1.388 . S
C127 H106 0.939 . S
C127 C122 1.391 . S
C127 C126 1.388 . S
P128 O139 1.490 . S
P128 C142 1.812 . S
P128 C148 1.803 . S
P128 C154 1.819 . S
H129 C143 0.941 . S
H130 C144 0.939 . S
H131 C146 0.940 . S
H132 C147 0.940 . S
H133 C149 0.939 . S
H134 C150 0.942 . S
H135 C152 0.940 . S
H136 C153 0.939 . S
H137 C155 0.941 . S
H138 C159 0.939 . S
O139 P128 1.490 . S
H140 C156 0.939 . S
H141 C158 0.940 . S
C142 P128 1.812 . S
C142 C143 1.389 . S
C142 C147 1.391 . S
C143 H129 0.941 . S
C143 C142 1.389 . S
C143 C144 1.397 . S
C144 H130 0.939 . S
C144 C143 1.397 . S
C144 C145 1.378 . S
C145 C144 1.378 . S
C145 C146 1.378 . S
C146 H131 0.940 . S
C146 C145 1.378 . S
C146 C147 1.396 . S
C147 H132 0.940 . S
C147 C142 1.391 . S
C147 C146 1.396 . S
C148 P128 1.803 . S
C148 C149 1.378 . S
C148 C153 1.400 . S
C149 H133 0.939 . S
C149 C148 1.378 . S
C149 C150 1.361 . S
C150 H134 0.942 . S
C150 C149 1.361 . S
C150 C151 1.369 . S
C151 C150 1.369 . S
C151 C152 1.404 . S
C152 H135 0.940 . S
C152 C151 1.404 . S
C152 C153 1.389 . S
C153 H136 0.939 . S
C153 C148 1.400 . S
C153 C152 1.389 . S
C154 P128 1.819 . S
C154 C155 1.391 . S
C154 C159 1.391 . S
C155 H137 0.941 . S
C155 C154 1.391 . S
C155 C156 1.396 . S
C156 H140 0.939 . S
C156 C155 1.396 . S
C156 C157 1.397 . S
C157 C156 1.397 . S
C157 C158 1.385 . S
C158 H141 0.940 . S
C158 C157 1.385 . S
C158 C159 1.388 . S
C159 H138 0.939 . S
C159 C154 1.391 . S
C159 C158 1.388 . S
P160 O171 1.490 . S
P160 C174 1.812 . S
P160 C180 1.803 . S
P160 C186 1.819 . S
H161 C175 0.941 . S
H162 C176 0.939 . S
H163 C178 0.940 . S
H164 C179 0.940 . S
H165 C181 0.939 . S
H166 C182 0.942 . S
H167 C184 0.940 . S
H168 C185 0.939 . S
H169 C187 0.941 . S
H170 C191 0.939 . S
O171 P160 1.490 . S
H172 C188 0.939 . S
H173 C190 0.940 . S
C174 P160 1.812 . S
C174 C175 1.389 . S
C174 C179 1.391 . S
C175 H161 0.941 . S
C175 C174 1.389 . S
C175 C176 1.397 . S
C176 H162 0.939 . S
C176 C175 1.397 . S
C176 C177 1.378 . S
C177 C176 1.378 . S
C177 C178 1.378 . S
C178 H163 0.940 . S
C178 C177 1.378 . S
C178 C179 1.396 . S
C179 H164 0.940 . S
C179 C174 1.391 . S
C179 C178 1.396 . S
C180 P160 1.803 . S
C180 C181 1.378 . S
C180 C185 1.400 . S
C181 H165 0.939 . S
C181 C180 1.378 . S
C181 C182 1.361 . S
C182 H166 0.942 . S
C182 C181 1.361 . S
C182 C183 1.369 . S
C183 C182 1.369 . S
C183 C184 1.404 . S
C184 H167 0.940 . S
C184 C183 1.404 . S
C184 C185 1.389 . S
C185 H168 0.939 . S
C185 C180 1.400 . S
C185 C184 1.389 . S
C186 P160 1.819 . S
C186 C187 1.391 . S
C186 C191 1.391 . S
C187 H169 0.941 . S
C187 C186 1.391 . S
C187 C188 1.396 . S
C188 H172 0.939 . S
C188 C187 1.396 . S
C188 C189 1.397 . S
C189 C188 1.397 . S
C189 C190 1.385 . S
C190 H173 0.940 . S
C190 C189 1.385 . S
C190 C191 1.388 . S
C191 H170 0.939 . S
C191 C186 1.391 . S
C191 C190 1.388 . S
P192 O203 1.490 . S
P192 C206 1.812 . S
P192 C212 1.803 . S
P192 C218 1.819 . S
H193 C207 0.941 . S
H194 C208 0.939 . S
H195 C210 0.940 . S
H196 C211 0.940 . S
H197 C213 0.939 . S
H198 C214 0.942 . S
H199 C216 0.940 . S
H200 C217 0.939 . S
H201 C219 0.941 . S
H202 C223 0.939 . S
O203 P192 1.490 . S
H204 C220 0.939 . S
H205 C222 0.940 . S
C206 P192 1.812 . S
C206 C207 1.389 . S
C206 C211 1.391 . S
C207 H193 0.941 . S
C207 C206 1.389 . S
C207 C208 1.397 . S
C208 H194 0.939 . S
C208 C207 1.397 . S
C208 C209 1.378 . S
C209 C208 1.378 . S
C209 C210 1.378 . S
C210 H195 0.940 . S
C210 C209 1.378 . S
C210 C211 1.396 . S
C211 H196 0.940 . S
C211 C206 1.391 . S
C211 C210 1.396 . S
C212 P192 1.803 . S
C212 C213 1.378 . S
C212 C217 1.400 . S
C213 H197 0.939 . S
C213 C212 1.378 . S
C213 C214 1.361 . S
C214 H198 0.942 . S
C214 C213 1.361 . S
C214 C215 1.369 . S
C215 C214 1.369 . S
C215 C216 1.404 . S
C216 H199 0.940 . S
C216 C215 1.404 . S
C216 C217 1.389 . S
C217 H200 0.939 . S
C217 C212 1.400 . S
C217 C216 1.389 . S
C218 P192 1.819 . S
C218 C219 1.391 . S
C218 C223 1.391 . S
C219 H201 0.941 . S
C219 C218 1.391 . S
C219 C220 1.396 . S
C220 H204 0.939 . S
C220 C219 1.396 . S
C220 C221 1.397 . S
C221 C220 1.397 . S
C221 C222 1.385 . S
C222 H205 0.940 . S
C222 C221 1.385 . S
C222 C223 1.388 . S
C223 H202 0.939 . S
C223 C218 1.391 . S
C223 C222 1.388 . S
P224 O235 1.490 . S
P224 C238 1.812 . S
P224 C244 1.803 . S
P224 C250 1.819 . S
H225 C239 0.941 . S
H226 C240 0.939 . S
H227 C242 0.940 . S
H228 C243 0.940 . S
H229 C245 0.939 . S
H230 C246 0.942 . S
H231 C248 0.940 . S
H232 C249 0.939 . S
H233 C251 0.941 . S
H234 C255 0.939 . S
O235 P224 1.490 . S
H236 C252 0.939 . S
H237 C254 0.940 . S
C238 P224 1.812 . S
C238 C239 1.389 . S
C238 C243 1.391 . S
C239 H225 0.941 . S
C239 C238 1.389 . S
C239 C240 1.397 . S
C240 H226 0.939 . S
C240 C239 1.397 . S
C240 C241 1.378 . S
C241 C240 1.378 . S
C241 C242 1.378 . S
C242 H227 0.940 . S
C242 C241 1.378 . S
C242 C243 1.396 . S
C243 H228 0.940 . S
C243 C238 1.391 . S
C243 C242 1.396 . S
C244 P224 1.803 . S
C244 C245 1.378 . S
C244 C249 1.400 . S
C245 H229 0.939 . S
C245 C244 1.378 . S
C245 C246 1.361 . S
C246 H230 0.942 . S
C246 C245 1.361 . S
C246 C247 1.369 . S
C247 C246 1.369 . S
C247 C248 1.404 . S
C248 H231 0.940 . S
C248 C247 1.404 . S
C248 C249 1.389 . S
C249 H232 0.939 . S
C249 C244 1.400 . S
C249 C248 1.389 . S
C250 P224 1.819 . S
C250 C251 1.391 . S
C250 C255 1.391 . S
C251 H233 0.941 . S
C251 C250 1.391 . S
C251 C252 1.396 . S
C252 H236 0.939 . S
C252 C251 1.396 . S
C252 C253 1.397 . S
C253 C252 1.397 . S
C253 C254 1.385 . S
C254 H237 0.940 . S
C254 C253 1.385 . S
C254 C255 1.388 . S
C255 H234 0.939 . S
C255 C250 1.391 . S
C255 C254 1.388 . S
Tb256 C258 2.810 1_545 S
Tb256 O276 2.486 1_545 S
Tb256 O277 2.441 1_545 S
Tb256 O278 2.658 1_655 S
Tb256 O279 2.408 1_655 S
Tb256 O280 2.379 1_645 S
Tb256 O284 2.326 1_545 S
Tb256 O287 2.340 . S
Tb257 C267 2.809 . S
Tb257 O278 2.325 . S
Tb257 O281 2.341 1_545 S
Tb257 O282 2.484 . S
Tb257 O283 2.440 . S
Tb257 O284 2.658 1_445 S
Tb257 O285 2.409 1_545 S
Tb257 O286 2.378 . S
C258 Tb256 2.810 1_565 S
C258 C259 1.514 . S
C258 O276 1.248 . S
C258 O277 1.266 . S
C259 C258 1.514 . S
C259 C260 1.359 . S
C259 C264 1.348 . S
C260 C259 1.359 . S
C260 C261 1.380 . S
C260 H288 0.929 . S
C261 C260 1.380 . S
C261 C262 1.347 . S
C261 H289 0.931 . S
C262 C261 1.347 . S
C262 C263 1.369 . S
C263 C262 1.369 . S
C263 C264 1.408 . S
C263 H290 0.930 . S
C264 C259 1.348 . S
C264 C263 1.408 . S
C264 H291 0.930 . S
C265 O278 1.281 . S
C265 O279 1.252 . S
C266 O280 1.236 . S
C266 O281 1.266 . S
C267 Tb257 2.809 . S
C267 C268 1.514 . S
C267 O282 1.248 . S
C267 O283 1.266 . S
C268 C267 1.514 . S
C268 C269 1.359 . S
C268 C273 1.348 . S
C269 C268 1.359 . S
C269 C270 1.380 . S
C269 H292 0.929 . S
C270 C269 1.380 . S
C270 C271 1.347 . S
C270 H293 0.931 . S
C271 C270 1.347 . S
C271 C272 1.369 . S
C272 C271 1.369 . S
C272 C273 1.408 . S
C272 H294 0.930 . S
C273 C268 1.348 . S
C273 C272 1.408 . S
C273 H295 0.930 . S
C274 O284 1.281 . S
C274 O285 1.254 1_655 S
C275 O286 1.236 1_655 S
C275 O287 1.266 . S
O276 Tb256 2.486 1_565 S
O276 C258 1.248 . S
O277 Tb256 2.441 1_565 S
O277 C258 1.266 . S
O278 Tb256 2.658 1_455 S
O278 Tb257 2.325 . S
O278 C265 1.281 . S
O279 Tb256 2.408 1_455 S
O279 C265 1.252 . S
O280 Tb256 2.379 1_465 S
O280 C266 1.236 . S
O281 Tb257 2.341 1_565 S
O281 C266 1.266 . S
O282 Tb257 2.484 . S
O282 C267 1.248 . S
O283 Tb257 2.440 . S
O283 C267 1.266 . S
O284 Tb256 2.326 1_565 S
O284 Tb257 2.658 1_665 S
O284 C274 1.281 . S
O285 Tb257 2.409 1_565 S
O285 C274 1.254 1_455 S
O286 Tb257 2.378 . S
O286 C275 1.236 1_455 S
O287 Tb256 2.340 . S
O287 C275 1.266 . S
H288 C260 0.929 . S
H289 C261 0.931 . S
H290 C263 0.930 . S
H291 C264 0.930 . S
H292 C269 0.929 . S
H293 C270 0.931 . S
H294 C272 0.930 . S
H295 C273 0.930 . S
Tb296 C298 2.809 . S
Tb296 O316 2.484 . S
Tb296 O317 2.440 . S
Tb296 O318 2.658 1_545 S
Tb296 O319 2.409 1_545 S
Tb296 O320 2.378 . S
Tb296 O324 2.325 1_554 S
Tb296 O327 2.341 1_544 S
Tb297 C307 2.809 1_545 S
Tb297 O318 2.325 1_546 S
Tb297 O321 2.341 1_556 S
Tb297 O322 2.484 1_545 S
Tb297 O323 2.440 1_545 S
Tb297 O324 2.658 . S
Tb297 O325 2.409 . S
Tb297 O326 2.378 1_545 S
C298 Tb296 2.809 . S
C298 C299 1.514 . S
C298 O316 1.248 . S
C298 O317 1.266 . S
C299 C298 1.514 . S
C299 C300 1.359 . S
C299 C304 1.348 . S
C300 C299 1.359 . S
C300 C301 1.380 . S
C300 H328 0.929 . S
C301 C300 1.380 . S
C301 C302 1.347 . S
C301 H329 0.931 . S
C302 C301 1.347 . S
C302 C303 1.369 . S
C303 C302 1.369 . S
C303 C304 1.408 . S
C303 H330 0.930 . S
C304 C299 1.348 . S
C304 C303 1.408 . S
C304 H331 0.930 . S
C305 O318 1.281 . S
C305 O319 1.254 . S
C306 O320 1.236 . S
C306 O321 1.266 . S
C307 Tb297 2.809 1_565 S
C307 C308 1.514 . S
C307 O322 1.248 . S
C307 O323 1.266 . S
C308 C307 1.514 . S
C308 C309 1.359 . S
C308 C313 1.348 . S
C309 C308 1.359 . S
C309 C310 1.380 . S
C309 H332 0.929 . S
C310 C309 1.380 . S
C310 C311 1.347 . S
C310 H333 0.931 . S
C311 C310 1.347 . S
C311 C312 1.369 . S
C312 C311 1.369 . S
C312 C313 1.408 . S
C312 H334 0.930 . S
C313 C308 1.348 . S
C313 C312 1.408 . S
C313 H335 0.930 . S
C314 O324 1.281 . S
C314 O325 1.254 . S
C315 O326 1.236 . S
C315 O327 1.266 . S
O316 Tb296 2.484 . S
O316 C298 1.248 . S
O317 Tb296 2.440 . S
O317 C298 1.266 . S
O318 Tb296 2.658 1_565 S
O318 Tb297 2.325 1_564 S
O318 C305 1.281 . S
O319 Tb296 2.409 1_565 S
O319 C305 1.254 . S
O320 Tb296 2.378 . S
O320 C306 1.236 . S
O321 Tb297 2.341 1_554 S
O321 C306 1.266 . S
O322 Tb297 2.484 1_565 S
O322 C307 1.248 . S
O323 Tb297 2.440 1_565 S
O323 C307 1.266 . S
O324 Tb296 2.325 1_556 S
O324 Tb297 2.658 . S
O324 C314 1.281 . S
O325 Tb297 2.409 . S
O325 C314 1.254 . S
O326 Tb297 2.378 1_565 S
O326 C315 1.236 . S
O327 Tb296 2.341 1_566 S
O327 C315 1.266 . S
H328 C300 0.929 . S
H329 C301 0.931 . S
H330 C303 0.930 . S
H331 C304 0.930 . S
H332 C309 0.929 . S
H333 C310 0.931 . S
H334 C312 0.930 . S
H335 C313 0.930 . S
Tb336 C338 2.809 . S
Tb336 O356 2.484 . S
Tb336 O357 2.440 . S
Tb336 O358 2.658 . S
Tb336 O359 2.409 . S
Tb336 O360 2.378 . S
Tb336 O364 2.325 . S
Tb336 O367 2.341 . S
Tb337 C347 2.809 . S
Tb337 O358 2.325 . S
Tb337 O361 2.341 . S
Tb337 O362 2.484 . S
Tb337 O363 2.440 . S
Tb337 O364 2.658 . S
Tb337 O365 2.409 . S
Tb337 O366 2.378 . S
C338 Tb336 2.809 . S
C338 C339 1.514 . S
C338 O356 1.248 . S
C338 O357 1.266 . S
C339 C338 1.514 . S
C339 C340 1.359 . S
C339 C344 1.348 . S
C340 C339 1.359 . S
C340 C341 1.380 . S
C340 H368 0.929 . S
C341 C340 1.380 . S
C341 C342 1.347 . S
C341 H369 0.931 . S
C342 C341 1.347 . S
C342 C343 1.369 . S
C343 C342 1.369 . S
C343 C344 1.408 . S
C343 H370 0.930 . S
C344 C339 1.348 . S
C344 C343 1.408 . S
C344 H371 0.930 . S
C345 O358 1.281 . S
C345 O359 1.254 . S
C346 O360 1.236 . S
C346 O361 1.266 . S
C347 Tb337 2.809 . S
C347 C348 1.514 . S
C347 O362 1.248 . S
C347 O363 1.266 . S
C348 C347 1.514 . S
C348 C349 1.359 . S
C348 C353 1.348 . S
C349 C348 1.359 . S
C349 C350 1.380 . S
C349 H372 0.929 . S
C350 C349 1.380 . S
C350 C351 1.347 . S
C350 H373 0.931 . S
C351 C350 1.347 . S
C351 C352 1.369 . S
C352 C351 1.369 . S
C352 C353 1.408 . S
C352 H374 0.930 . S
C353 C348 1.348 . S
C353 C352 1.408 . S
C353 H375 0.930 . S
C354 O364 1.281 . S
C354 O365 1.254 . S
C355 O366 1.236 . S
C355 O367 1.266 . S
O356 Tb336 2.484 . S
O356 C338 1.248 . S
O357 Tb336 2.440 . S
O357 C338 1.266 . S
O358 Tb336 2.658 . S
O358 Tb337 2.325 . S
O358 C345 1.281 . S
O359 Tb336 2.409 . S
O359 C345 1.254 . S
O360 Tb336 2.378 . S
O360 C346 1.236 . S
O361 Tb337 2.341 . S
O361 C346 1.266 . S
O362 Tb337 2.484 . S
O362 C347 1.248 . S
O363 Tb337 2.440 . S
O363 C347 1.266 . S
O364 Tb336 2.325 . S
O364 Tb337 2.658 . S
O364 C354 1.281 . S
O365 Tb337 2.409 . S
O365 C354 1.254 . S
O366 Tb337 2.378 . S
O366 C355 1.236 . S
O367 Tb336 2.341 . S
O367 C355 1.266 . S
H368 C340 0.929 . S
H369 C341 0.931 . S
H370 C343 0.930 . S
H371 C344 0.930 . S
H372 C349 0.929 . S
H373 C350 0.931 . S
H374 C352 0.930 . S
H375 C353 0.930 . S
Tb376 C378 2.809 1_455 S
Tb376 O396 2.484 1_455 S
Tb376 O397 2.440 1_455 S
Tb376 O398 2.658 1_556 S
Tb376 O399 2.409 1_556 S
Tb376 O400 2.378 1_456 S
Tb376 O404 2.325 1_455 S
Tb376 O407 2.341 . S
Tb377 C387 2.809 . S
Tb377 O398 2.325 . S
Tb377 O401 2.341 1_455 S
Tb377 O402 2.484 . S
Tb377 O403 2.440 . S
Tb377 O404 2.658 1_454 S
Tb377 O405 2.409 1_455 S
Tb377 O406 2.378 1_554 S
C378 Tb376 2.809 1_655 S
C378 C379 1.514 . S
C378 O396 1.248 . S
C378 O397 1.266 . S
C379 C378 1.514 . S
C379 C380 1.359 . S
C379 C384 1.348 . S
C380 C379 1.359 . S
C380 C381 1.380 . S
C380 H408 0.929 . S
C381 C380 1.380 . S
C381 C382 1.347 . S
C381 H409 0.931 . S
C382 C381 1.347 . S
C382 C383 1.369 . S
C383 C382 1.369 . S
C383 C384 1.408 . S
C383 H410 0.930 . S
C384 C379 1.348 . S
C384 C383 1.408 . S
C384 H411 0.930 . S
C385 O398 1.281 . S
C385 O399 1.254 . S
C386 O400 1.236 . S
C386 O401 1.266 . S
C387 Tb377 2.809 . S
C387 C388 1.514 . S
C387 O402 1.248 . S
C387 O403 1.266 . S
C388 C387 1.514 . S
C388 C389 1.359 . S
C388 C393 1.348 . S
C389 C388 1.359 . S
C389 C390 1.380 . S
C389 H412 0.929 . S
C390 C389 1.380 . S
C390 C391 1.347 . S
C390 H413 0.931 . S
C391 C390 1.347 . S
C391 C392 1.369 . S
C392 C391 1.369 . S
C392 C393 1.408 . S
C392 H414 0.930 . S
C393 C388 1.348 . S
C393 C392 1.408 . S
C393 H415 0.930 . S
C394 O404 1.281 . S
C394 O405 1.254 1_556 S
C395 O406 1.236 . S
C395 O407 1.266 . S
O396 Tb376 2.484 1_655 S
O396 C378 1.248 . S
O397 Tb376 2.440 1_655 S
O397 C378 1.266 . S
O398 Tb376 2.658 1_554 S
O398 Tb377 2.325 . S
O398 C385 1.281 . S
O399 Tb376 2.409 1_554 S
O399 C385 1.254 . S
O400 Tb376 2.378 1_654 S
O400 C386 1.236 . S
O401 Tb377 2.341 1_655 S
O401 C386 1.266 . S
O402 Tb377 2.484 . S
O402 C387 1.248 . S
O403 Tb377 2.440 . S
O403 C387 1.266 . S
O404 Tb376 2.325 1_655 S
O404 Tb377 2.658 1_656 S
O404 C394 1.281 . S
O405 Tb377 2.409 1_655 S
O405 C394 1.254 1_554 S
O406 Tb377 2.378 1_556 S
O406 C395 1.236 . S
O407 Tb376 2.341 . S
O407 C395 1.266 . S
H408 C380 0.929 . S
H409 C381 0.931 . S
H410 C383 0.930 . S
H411 C384 0.930 . S
H412 C389 0.929 . S
H413 C390 0.931 . S
H414 C392 0.930 . S
H415 C393 0.930 . S
H416 C422 0.930 . S
H417 C426 0.930 . S
H418 C431 0.929 . S
H419 C429 0.929 . S
H420 C424 0.929 . S
H421 C430 0.929 . S
C422 H416 0.930 . S
C422 C423 1.367 . S
C422 C430 1.378 . S
C423 C422 1.367 . S
C423 C431 1.433 . S
C424 H420 0.929 . S
C424 C426 1.378 . S
C424 C428 1.350 . S
C425 C428 1.463 . S
C425 C430 1.350 . S
C425 N433 1.427 . S
C426 H417 0.930 . S
C426 C424 1.378 . S
C426 C427 1.367 . S
C427 C426 1.367 . S
C427 C429 1.433 . S
C428 C424 1.350 . S
C428 C425 1.463 . S
C428 N432 1.427 . S
C429 H419 0.929 . S
C429 C427 1.433 . S
C429 N432 1.384 . S
C430 H421 0.929 . S
C430 C422 1.378 . S
C430 C425 1.350 . S
C431 H418 0.929 . S
C431 C423 1.433 . S
C431 N433 1.384 . S
N432 C428 1.427 . S
N432 C429 1.384 . S
N433 C425 1.427 . S
N433 C431 1.384 . S
H434 C440 0.930 . S
H435 C444 0.930 . S
H436 C449 0.929 . S
H437 C447 0.929 . S
H438 C442 0.929 . S
H439 C448 0.929 . S
C440 H434 0.930 . S
C440 C441 1.367 . S
C440 C448 1.378 . S
C441 C440 1.367 . S
C441 C449 1.433 . S
C442 H438 0.929 . S
C442 C444 1.378 . S
C442 C446 1.350 . S
C443 C446 1.463 . S
C443 C448 1.350 . S
C443 N451 1.427 . S
C444 H435 0.930 . S
C444 C442 1.378 . S
C444 C445 1.367 . S
C445 C444 1.367 . S
C445 C447 1.433 . S
C446 C442 1.350 . S
C446 C443 1.463 . S
C446 N450 1.427 . S
C447 H437 0.929 . S
C447 C445 1.433 . S
C447 N450 1.384 . S
C448 H439 0.929 . S
C448 C440 1.378 . S
C448 C443 1.350 . S
C449 H436 0.929 . S
C449 C441 1.433 . S
C449 N451 1.384 . S
N450 C446 1.427 . S
N450 C447 1.384 . S
N451 C443 1.427 . S
N451 C449 1.384 . S
H452 C458 0.930 . S
H453 C462 0.930 . S
H454 C467 0.929 . S
H455 C465 0.929 . S
H456 C460 0.929 . S
H457 C466 0.929 . S
C458 H452 0.930 . S
C458 C459 1.367 . S
C458 C466 1.378 . S
C459 C458 1.367 . S
C459 C467 1.433 . S
C460 H456 0.929 . S
C460 C462 1.378 . S
C460 C464 1.350 . S
C461 C464 1.463 . S
C461 C466 1.350 . S
C461 N469 1.427 . S
C462 H453 0.930 . S
C462 C460 1.378 . S
C462 C463 1.367 . S
C463 C462 1.367 . S
C463 C465 1.433 . S
C464 C460 1.350 . S
C464 C461 1.463 . S
C464 N468 1.427 . S
C465 H455 0.929 . S
C465 C463 1.433 . S
C465 N468 1.384 . S
C466 H457 0.929 . S
C466 C458 1.378 . S
C466 C461 1.350 . S
C467 H454 0.929 . S
C467 C459 1.433 . S
C467 N469 1.384 . S
N468 C464 1.427 . S
N468 C465 1.384 . S
N469 C461 1.427 . S
N469 C467 1.384 . S
H470 C476 0.930 . S
H471 C480 0.930 . S
H472 C485 0.929 . S
H473 C483 0.929 . S
H474 C478 0.929 . S
H475 C484 0.929 . S
C476 H470 0.930 . S
C476 C477 1.367 . S
C476 C484 1.378 . S
C477 C476 1.367 . S
C477 C485 1.433 . S
C478 H474 0.929 . S
C478 C480 1.378 . S
C478 C482 1.350 . S
C479 C482 1.463 . S
C479 C484 1.350 . S
C479 N487 1.427 . S
C480 H471 0.930 . S
C480 C478 1.378 . S
C480 C481 1.367 . S
C481 C480 1.367 . S
C481 C483 1.433 . S
C482 C478 1.350 . S
C482 C479 1.463 . S
C482 N486 1.427 . S
C483 H473 0.929 . S
C483 C481 1.433 . S
C483 N486 1.384 . S
C484 H475 0.929 . S
C484 C476 1.378 . S
C484 C479 1.350 . S
C485 H472 0.929 . S
C485 C477 1.433 . S
C485 N487 1.384 . S
N486 C482 1.427 . S
N486 C483 1.384 . S
N487 C479 1.427 . S
N487 C485 1.384 . S
H488 C494 0.930 . S
H489 C498 0.930 . S
H490 C503 0.929 . S
H491 C501 0.929 . S
H492 C496 0.929 . S
H493 C502 0.929 . S
C494 H488 0.930 . S
C494 C495 1.367 . S
C494 C502 1.378 . S
C495 C494 1.367 . S
C495 C503 1.433 . S
C496 H492 0.929 . S
C496 C498 1.378 . S
C496 C500 1.350 . S
C497 C500 1.463 . S
C497 C502 1.350 . S
C497 N505 1.427 . S
C498 H489 0.930 . S
C498 C496 1.378 . S
C498 C499 1.367 . S
C499 C498 1.367 . S
C499 C501 1.433 . S
C500 C496 1.350 . S
C500 C497 1.463 . S
C500 N504 1.427 . S
C501 H491 0.929 . S
C501 C499 1.433 . S
C501 N504 1.384 . S
C502 H493 0.929 . S
C502 C494 1.378 . S
C502 C497 1.350 . S
C503 H490 0.929 . S
C503 C495 1.433 . S
C503 N505 1.384 . S
N504 C500 1.427 . S
N504 C501 1.384 . S
N505 C497 1.427 . S
N505 C503 1.384 . S
H506 C512 0.930 . S
H507 C516 0.930 . S
H508 C521 0.929 . S
H509 C519 0.929 . S
H510 C514 0.929 . S
H511 C520 0.929 . S
C512 H506 0.930 . S
C512 C513 1.367 . S
C512 C520 1.378 . S
C513 C512 1.367 . S
C513 C521 1.433 . S
C514 H510 0.929 . S
C514 C516 1.378 . S
C514 C518 1.350 . S
C515 C518 1.463 . S
C515 C520 1.350 . S
C515 N523 1.427 . S
C516 H507 0.930 . S
C516 C514 1.378 . S
C516 C517 1.367 . S
C517 C516 1.367 . S
C517 C519 1.433 . S
C518 C514 1.350 . S
C518 C515 1.463 . S
C518 N522 1.427 . S
C519 H509 0.929 . S
C519 C517 1.433 . S
C519 N522 1.384 . S
C520 H511 0.929 . S
C520 C512 1.378 . S
C520 C515 1.350 . S
C521 H508 0.929 . S
C521 C513 1.433 . S
C521 N523 1.384 . S
N522 C518 1.427 . S
N522 C519 1.384 . S
N523 C515 1.427 . S
N523 C521 1.384 . S
H524 C530 0.930 . S
H525 C534 0.930 . S
H526 C539 0.929 . S
H527 C537 0.929 . S
H528 C532 0.929 . S
H529 C538 0.929 . S
C530 H524 0.930 . S
C530 C531 1.367 . S
C530 C538 1.378 . S
C531 C530 1.367 . S
C531 C539 1.433 . S
C532 H528 0.929 . S
C532 C534 1.378 . S
C532 C536 1.350 . S
C533 C536 1.463 . S
C533 C538 1.350 . S
C533 N541 1.427 . S
C534 H525 0.930 . S
C534 C532 1.378 . S
C534 C535 1.367 . S
C535 C534 1.367 . S
C535 C537 1.433 . S
C536 C532 1.350 . S
C536 C533 1.463 . S
C536 N540 1.427 . S
C537 H527 0.929 . S
C537 C535 1.433 . S
C537 N540 1.384 . S
C538 H529 0.929 . S
C538 C530 1.378 . S
C538 C533 1.350 . S
C539 H526 0.929 . S
C539 C531 1.433 . S
C539 N541 1.384 . S
N540 C536 1.427 . S
N540 C537 1.384 . S
N541 C533 1.427 . S
N541 C539 1.384 . S
H542 C548 0.930 . S
H543 C552 0.930 . S
H544 C557 0.929 . S
H545 C555 0.929 . S
H546 C550 0.929 . S
H547 C556 0.929 . S
C548 H542 0.930 . S
C548 C549 1.367 . S
C548 C556 1.378 . S
C549 C548 1.367 . S
C549 C557 1.433 . S
C550 H546 0.929 . S
C550 C552 1.378 . S
C550 C554 1.350 . S
C551 C554 1.463 . S
C551 C556 1.350 . S
C551 N559 1.427 . S
C552 H543 0.930 . S
C552 C550 1.378 . S
C552 C553 1.367 . S
C553 C552 1.367 . S
C553 C555 1.433 . S
C554 C550 1.350 . S
C554 C551 1.463 . S
C554 N558 1.427 . S
C555 H545 0.929 . S
C555 C553 1.433 . S
C555 N558 1.384 . S
C556 H547 0.929 . S
C556 C548 1.378 . S
C556 C551 1.350 . S
C557 H544 0.929 . S
C557 C549 1.433 . S
C557 N559 1.384 . S
N558 C554 1.427 . S
N558 C555 1.384 . S
N559 C551 1.427 . S
N559 C557 1.384 . S
H560 C566 0.930 . S
H561 C570 0.930 . S
H562 C575 0.929 . S
H563 C573 0.929 . S
H564 C568 0.929 . S
H565 C574 0.929 . S
C566 H560 0.930 . S
C566 C567 1.367 . S
C566 C574 1.378 . S
C567 C566 1.367 . S
C567 C575 1.433 . S
C568 H564 0.929 . S
C568 C570 1.378 . S
C568 C572 1.350 . S
C569 C572 1.463 . S
C569 C574 1.350 . S
C569 N577 1.427 . S
C570 H561 0.930 . S
C570 C568 1.378 . S
C570 C571 1.367 . S
C571 C570 1.367 . S
C571 C573 1.433 . S
C572 C568 1.350 . S
C572 C569 1.463 . S
C572 N576 1.427 . S
C573 H563 0.929 . S
C573 C571 1.433 . S
C573 N576 1.384 . S
C574 H565 0.929 . S
C574 C566 1.378 . S
C574 C569 1.350 . S
C575 H562 0.929 . S
C575 C567 1.433 . S
C575 N577 1.384 . S
N576 C572 1.427 . S
N576 C573 1.384 . S
N577 C569 1.427 . S
N577 C575 1.384 . S
H578 C584 0.930 . S
H579 C588 0.930 . S
H580 C593 0.929 . S
H581 C591 0.929 . S
H582 C586 0.929 . S
H583 C592 0.929 . S
C584 H578 0.930 . S
C584 C585 1.367 . S
C584 C592 1.378 . S
C585 C584 1.367 . S
C585 C593 1.433 . S
C586 H582 0.929 . S
C586 C588 1.378 . S
C586 C590 1.350 . S
C587 C590 1.463 . S
C587 C592 1.350 . S
C587 N595 1.427 . S
C588 H579 0.930 . S
C588 C586 1.378 . S
C588 C589 1.367 . S
C589 C588 1.367 . S
C589 C591 1.433 . S
C590 C586 1.350 . S
C590 C587 1.463 . S
C590 N594 1.427 . S
C591 H581 0.929 . S
C591 C589 1.433 . S
C591 N594 1.384 . S
C592 H583 0.929 . S
C592 C584 1.378 . S
C592 C587 1.350 . S
C593 H580 0.929 . S
C593 C585 1.433 . S
C593 N595 1.384 . S
N594 C590 1.427 . S
N594 C591 1.384 . S
N595 C587 1.427 . S
N595 C593 1.384 . S
H596 C602 0.930 . S
H597 C606 0.930 . S
H598 C611 0.929 . S
H599 C609 0.929 . S
H600 C604 0.929 . S
H601 C610 0.929 . S
C602 H596 0.930 . S
C602 C603 1.367 . S
C602 C610 1.378 . S
C603 C602 1.367 . S
C603 C611 1.433 . S
C604 H600 0.929 . S
C604 C606 1.378 . S
C604 C608 1.350 . S
C605 C608 1.463 . S
C605 C610 1.350 . S
C605 N613 1.427 . S
C606 H597 0.930 . S
C606 C604 1.378 . S
C606 C607 1.367 . S
C607 C606 1.367 . S
C607 C609 1.433 . S
C608 C604 1.350 . S
C608 C605 1.463 . S
C608 N612 1.427 . S
C609 H599 0.929 . S
C609 C607 1.433 . S
C609 N612 1.384 . S
C610 H601 0.929 . S
C610 C602 1.378 . S
C610 C605 1.350 . S
C611 H598 0.929 . S
C611 C603 1.433 . S
C611 N613 1.384 . S
N612 C608 1.427 . S
N612 C609 1.384 . S
N613 C605 1.427 . S
N613 C611 1.384 . S
H614 C620 0.930 . S
H615 C624 0.930 . S
H616 C629 0.929 . S
H617 C627 0.929 . S
H618 C622 0.929 . S
H619 C628 0.929 . S
C620 H614 0.930 . S
C620 C621 1.367 . S
C620 C628 1.378 . S
C621 C620 1.367 . S
C621 C629 1.433 . S
C622 H618 0.929 . S
C622 C624 1.378 . S
C622 C626 1.350 . S
C623 C626 1.463 . S
C623 C628 1.350 . S
C623 N631 1.427 . S
C624 H615 0.930 . S
C624 C622 1.378 . S
C624 C625 1.367 . S
C625 C624 1.367 . S
C625 C627 1.433 . S
C626 C622 1.350 . S
C626 C623 1.463 . S
C626 N630 1.427 . S
C627 H617 0.929 . S
C627 C625 1.433 . S
C627 N630 1.384 . S
C628 H619 0.929 . S
C628 C620 1.378 . S
C628 C623 1.350 . S
C629 H616 0.929 . S
C629 C621 1.433 . S
C629 N631 1.384 . S
N630 C626 1.427 . S
N630 C627 1.384 . S
N631 C623 1.427 . S
N631 C629 1.384 . S
H632 C638 0.930 . S
H633 C642 0.930 . S
H634 C647 0.929 . S
H635 C645 0.929 . S
H636 C640 0.929 . S
H637 C646 0.929 . S
C638 H632 0.930 . S
C638 C639 1.367 . S
C638 C646 1.378 . S
C639 C638 1.367 . S
C639 C647 1.433 . S
C640 H636 0.929 . S
C640 C642 1.378 . S
C640 C644 1.350 . S
C641 C644 1.463 . S
C641 C646 1.350 . S
C641 N649 1.427 . S
C642 H633 0.930 . S
C642 C640 1.378 . S
C642 C643 1.367 . S
C643 C642 1.367 . S
C643 C645 1.433 . S
C644 C640 1.350 . S
C644 C641 1.463 . S
C644 N648 1.427 . S
C645 H635 0.929 . S
C645 C643 1.433 . S
C645 N648 1.384 . S
C646 H637 0.929 . S
C646 C638 1.378 . S
C646 C641 1.350 . S
C647 H634 0.929 . S
C647 C639 1.433 . S
C647 N649 1.384 . S
N648 C644 1.427 . S
N648 C645 1.384 . S
N649 C641 1.427 . S
N649 C647 1.384 . S
H650 C656 0.930 . S
H651 C660 0.930 . S
H652 C665 0.929 . S
H653 C663 0.929 . S
H654 C658 0.929 . S
H655 C664 0.929 . S
C656 H650 0.930 . S
C656 C657 1.367 . S
C656 C664 1.378 . S
C657 C656 1.367 . S
C657 C665 1.433 . S
C658 H654 0.929 . S
C658 C660 1.378 . S
C658 C662 1.350 . S
C659 C662 1.463 . S
C659 C664 1.350 . S
C659 N667 1.427 . S
C660 H651 0.930 . S
C660 C658 1.378 . S
C660 C661 1.367 . S
C661 C660 1.367 . S
C661 C663 1.433 . S
C662 C658 1.350 . S
C662 C659 1.463 . S
C662 N666 1.427 . S
C663 H653 0.929 . S
C663 C661 1.433 . S
C663 N666 1.384 . S
C664 H655 0.929 . S
C664 C656 1.378 . S
C664 C659 1.350 . S
C665 H652 0.929 . S
C665 C657 1.433 . S
C665 N667 1.384 . S
N666 C662 1.427 . S
N666 C663 1.384 . S
N667 C659 1.427 . S
N667 C665 1.384 . S
H668 C674 0.930 . S
H669 C678 0.930 . S
H670 C683 0.929 . S
H671 C681 0.929 . S
H672 C676 0.929 . S
H673 C682 0.929 . S
C674 H668 0.930 . S
C674 C675 1.367 . S
C674 C682 1.378 . S
C675 C674 1.367 . S
C675 C683 1.433 . S
C676 H672 0.929 . S
C676 C678 1.378 . S
C676 C680 1.350 . S
C677 C680 1.463 . S
C677 C682 1.350 . S
C677 N685 1.427 . S
C678 H669 0.930 . S
C678 C676 1.378 . S
C678 C679 1.367 . S
C679 C678 1.367 . S
C679 C681 1.433 . S
C680 C676 1.350 . S
C680 C677 1.463 . S
C680 N684 1.427 . S
C681 H671 0.929 . S
C681 C679 1.433 . S
C681 N684 1.384 . S
C682 H673 0.929 . S
C682 C674 1.378 . S
C682 C677 1.350 . S
C683 H670 0.929 . S
C683 C675 1.433 . S
C683 N685 1.384 . S
N684 C680 1.427 . S
N684 C681 1.384 . S
N685 C677 1.427 . S
N685 C683 1.384 . S
H686 C692 0.930 . S
H687 C696 0.930 . S
H688 C701 0.929 . S
H689 C699 0.929 . S
H690 C694 0.929 . S
H691 C700 0.929 . S
C692 H686 0.930 . S
C692 C693 1.367 . S
C692 C700 1.378 . S
C693 C692 1.367 . S
C693 C701 1.433 . S
C694 H690 0.929 . S
C694 C696 1.378 . S
C694 C698 1.350 . S
C695 C698 1.463 . S
C695 C700 1.350 . S
C695 N703 1.427 . S
C696 H687 0.930 . S
C696 C694 1.378 . S
C696 C697 1.367 . S
C697 C696 1.367 . S
C697 C699 1.433 . S
C698 C694 1.350 . S
C698 C695 1.463 . S
C698 N702 1.427 . S
C699 H689 0.929 . S
C699 C697 1.433 . S
C699 N702 1.384 . S
C700 H691 0.929 . S
C700 C692 1.378 . S
C700 C695 1.350 . S
C701 H688 0.929 . S
C701 C693 1.433 . S
C701 N703 1.384 . S
N702 C698 1.427 . S
N702 C699 1.384 . S
N703 C695 1.427 . S
N703 C701 1.384 . S
H704 C710 0.930 . S
H705 C714 0.930 . S
H706 C719 0.929 . S
H707 C717 0.929 . S
H708 C712 0.929 . S
H709 C718 0.929 . S
C710 H704 0.930 . S
C710 C711 1.367 . S
C710 C718 1.378 . S
C711 C710 1.367 . S
C711 C719 1.433 . S
C712 H708 0.929 . S
C712 C714 1.378 . S
C712 C716 1.350 . S
C713 C716 1.463 . S
C713 C718 1.350 . S
C713 N721 1.427 . S
C714 H705 0.930 . S
C714 C712 1.378 . S
C714 C715 1.367 . S
C715 C714 1.367 . S
C715 C717 1.433 . S
C716 C712 1.350 . S
C716 C713 1.463 . S
C716 N720 1.427 . S
C717 H707 0.929 . S
C717 C715 1.433 . S
C717 N720 1.384 . S
C718 H709 0.929 . S
C718 C710 1.378 . S
C718 C713 1.350 . S
C719 H706 0.929 . S
C719 C711 1.433 . S
C719 N721 1.384 . S
N720 C716 1.427 . S
N720 C717 1.384 . S
N721 C713 1.427 . S
N721 C719 1.384 . S
H722 C728 0.930 . S
H723 C732 0.930 . S
H724 C737 0.929 . S
H725 C735 0.929 1_455 S
H726 C730 0.929 . S
H727 C736 0.929 . S
C728 H722 0.930 . S
C728 C729 1.367 . S
C728 C736 1.378 . S
C729 C728 1.367 . S
C729 C737 1.433 . S
C730 H726 0.929 . S
C730 C732 1.378 . S
C730 C734 1.350 . S
C731 C734 1.463 . S
C731 C736 1.350 . S
C731 N739 1.427 . S
C732 H723 0.930 . S
C732 C730 1.378 . S
C732 C733 1.367 . S
C733 C732 1.367 . S
C733 C735 1.433 . S
C734 C730 1.350 . S
C734 C731 1.463 . S
C734 N738 1.427 . S
C735 H725 0.929 1_655 S
C735 C733 1.433 . S
C735 N738 1.384 . S
C736 H727 0.929 . S
C736 C728 1.378 . S
C736 C731 1.350 . S
C737 H724 0.929 . S
C737 C729 1.433 . S
C737 N739 1.384 . S
N738 C734 1.427 . S
N738 C735 1.384 . S
N739 C731 1.427 . S
N739 C737 1.384 . S
H740 C746 0.930 . S
H741 C750 0.930 . S
H742 C755 0.929 . S
H743 C753 0.929 . S
H744 C748 0.929 . S
H745 C754 0.929 . S
C746 H740 0.930 . S
C746 C747 1.367 . S
C746 C754 1.378 . S
C747 C746 1.367 . S
C747 C755 1.433 . S
C748 H744 0.929 . S
C748 C750 1.378 . S
C748 C752 1.350 . S
C749 C752 1.463 . S
C749 C754 1.350 . S
C749 N757 1.427 . S
C750 H741 0.930 . S
C750 C748 1.378 . S
C750 C751 1.367 . S
C751 C750 1.367 . S
C751 C753 1.433 . S
C752 C748 1.350 . S
C752 C749 1.463 . S
C752 N756 1.427 . S
C753 H743 0.929 . S
C753 C751 1.433 . S
C753 N756 1.384 . S
C754 H745 0.929 . S
C754 C746 1.378 . S
C754 C749 1.350 . S
C755 H742 0.929 . S
C755 C747 1.433 . S
C755 N757 1.384 . S
N756 C752 1.427 . S
N756 C753 1.384 . S
N757 C749 1.427 . S
N757 C755 1.384 . S
H758 C764 0.930 . S
H759 C768 0.930 . S
H760 C773 0.929 . S
H761 C771 0.929 . S
H762 C766 0.929 . S
H763 C772 0.929 . S
C764 H758 0.930 . S
C764 C765 1.367 . S
C764 C772 1.378 . S
C765 C764 1.367 . S
C765 C773 1.433 . S
C766 H762 0.929 . S
C766 C768 1.378 . S
C766 C770 1.350 . S
C767 C770 1.463 . S
C767 C772 1.350 . S
C767 N775 1.427 . S
C768 H759 0.930 . S
C768 C766 1.378 . S
C768 C769 1.367 . S
C769 C768 1.367 . S
C769 C771 1.433 . S
C770 C766 1.350 . S
C770 C767 1.463 . S
C770 N774 1.427 . S
C771 H761 0.929 . S
C771 C769 1.433 . S
C771 N774 1.384 . S
C772 H763 0.929 . S
C772 C764 1.378 . S
C772 C767 1.350 . S
C773 H760 0.929 . S
C773 C765 1.433 . S
C773 N775 1.384 . S
N774 C770 1.427 . S
N774 C771 1.384 . S
N775 C767 1.427 . S
N775 C773 1.384 . S
H776 C782 0.930 . S
H777 C786 0.930 . S
H778 C791 0.929 . S
H779 C789 0.929 . S
H780 C784 0.929 . S
H781 C790 0.929 . S
C782 H776 0.930 . S
C782 C783 1.367 . S
C782 C790 1.378 . S
C783 C782 1.367 . S
C783 C791 1.433 . S
C784 H780 0.929 . S
C784 C786 1.378 . S
C784 C788 1.350 . S
C785 C788 1.463 . S
C785 C790 1.350 . S
C785 N793 1.427 . S
C786 H777 0.930 . S
C786 C784 1.378 . S
C786 C787 1.367 . S
C787 C786 1.367 . S
C787 C789 1.433 . S
C788 C784 1.350 . S
C788 C785 1.463 . S
C788 N792 1.427 . S
C789 H779 0.929 . S
C789 C787 1.433 . S
C789 N792 1.384 . S
C790 H781 0.929 . S
C790 C782 1.378 . S
C790 C785 1.350 . S
C791 H778 0.929 . S
C791 C783 1.433 . S
C791 N793 1.384 . S
N792 C788 1.427 . S
N792 C789 1.384 . S
N793 C785 1.427 . S
N793 C791 1.384 . S
H794 C800 0.930 . S
H795 C804 0.930 . S
H796 C809 0.929 . S
H797 C807 0.929 . S
H798 C802 0.929 . S
H799 C808 0.929 . S
C800 H794 0.930 . S
C800 C801 1.367 . S
C800 C808 1.378 . S
C801 C800 1.367 . S
C801 C809 1.433 . S
C802 H798 0.929 . S
C802 C804 1.378 . S
C802 C806 1.350 . S
C803 C806 1.463 . S
C803 C808 1.350 . S
C803 N811 1.427 . S
C804 H795 0.930 . S
C804 C802 1.378 . S
C804 C805 1.367 . S
C805 C804 1.367 . S
C805 C807 1.433 . S
C806 C802 1.350 . S
C806 C803 1.463 . S
C806 N810 1.427 . S
C807 H797 0.929 . S
C807 C805 1.433 . S
C807 N810 1.384 . S
C808 H799 0.929 . S
C808 C800 1.378 . S
C808 C803 1.350 . S
C809 H796 0.929 . S
C809 C801 1.433 . S
C809 N811 1.384 . S
N810 C806 1.427 . S
N810 C807 1.384 . S
N811 C803 1.427 . S
N811 C809 1.384 . S
H812 C818 0.930 . S
H813 C822 0.930 . S
H814 C827 0.929 . S
H815 C825 0.929 . S
H816 C820 0.929 . S
H817 C826 0.929 . S
C818 H812 0.930 . S
C818 C819 1.367 . S
C818 C826 1.378 . S
C819 C818 1.367 . S
C819 C827 1.433 . S
C820 H816 0.929 . S
C820 C822 1.378 . S
C820 C824 1.350 . S
C821 C824 1.463 . S
C821 C826 1.350 . S
C821 N829 1.427 . S
C822 H813 0.930 . S
C822 C820 1.378 . S
C822 C823 1.367 . S
C823 C822 1.367 . S
C823 C825 1.433 . S
C824 C820 1.350 . S
C824 C821 1.463 . S
C824 N828 1.427 . S
C825 H815 0.929 . S
C825 C823 1.433 . S
C825 N828 1.384 . S
C826 H817 0.929 . S
C826 C818 1.378 . S
C826 C821 1.350 . S
C827 H814 0.929 . S
C827 C819 1.433 . S
C827 N829 1.384 . S
N828 C824 1.427 . S
N828 C825 1.384 . S
N829 C821 1.427 . S
N829 C827 1.384 . S
H830 C836 0.930 . S
H831 C840 0.930 . S
H832 C845 0.929 . S
H833 C843 0.929 . S
H834 C838 0.929 . S
H835 C844 0.929 . S
C836 H830 0.930 . S
C836 C837 1.367 . S
C836 C844 1.378 . S
C837 C836 1.367 . S
C837 C845 1.433 . S
C838 H834 0.929 . S
C838 C840 1.378 . S
C838 C842 1.350 . S
C839 C842 1.463 . S
C839 C844 1.350 . S
C839 N847 1.427 . S
C840 H831 0.930 . S
C840 C838 1.378 . S
C840 C841 1.367 . S
C841 C840 1.367 . S
C841 C843 1.433 . S
C842 C838 1.350 . S
C842 C839 1.463 . S
C842 N846 1.427 . S
C843 H833 0.929 . S
C843 C841 1.433 . S
C843 N846 1.384 . S
C844 H835 0.929 . S
C844 C836 1.378 . S
C844 C839 1.350 . S
C845 H832 0.929 . S
C845 C837 1.433 . S
C845 N847 1.384 . S
N846 C842 1.427 . S
N846 C843 1.384 . S
N847 C839 1.427 . S
N847 C845 1.384 . S
C423 C29 1.298 . S
C427 C271 1.299 . S
C441 C49 1.059 . S
C445 C311 1.189 . S
C463 C345 2.306 . S
C459 C93 2.318 . S
C477 C119 2.587 . S
C481 C386 2.540 . S
C499 C306 1.341 . S
C495 C17 1.340 . S
C517 C266 2.090 . S
C513 C61 1.840 . S
C535 C394 1.590 . S
C531 C81 1.588 . S
C553 C355 1.845 . S
C549 C125 1.923 . S
C567 C23 1.368 . S
C571 C391 1.330 . S
C589 C314 1.982 . S
C585 C87 2.012 . S
C603 C113 2.469 . S
C607 C274 2.386 . S
C621 C55 1.409 . S
C625 C342 1.554 . S
C643 C262 1.283 . S
C639 C157 1.194 . S
C657 C189 1.283 . S
C661 C302 1.253 . S
C675 C221 2.235 . S
C679 C354 2.268 . S
C693 C253 2.642 . S
C697 C395 2.611 . S
C711 C145 1.321 . S
C715 C315 1.445 . S
C733 C275 2.053 . S
C729 C183 2.031 . S
C751 C385 1.622 . S
C747 C209 1.576 . S
C769 C346 1.820 . S
C765 C247 1.883 . S
C783 C151 1.204 . S
C787 C382 1.320 . S
C805 C305 1.965 . S
C801 C215 1.961 . S
C823 C265 2.363 . S
C819 C241 2.420 . S
C837 C177 1.567 . S
C841 C351 1.561 . S
