# Generated by pormake.
# Topology eea, (3,6)-cn, num edge types: 1
# Building blocks:
#     Node 0, Type 0, BuildingBlock: ESEHIV_clean_linker_0, # of connection points: 3
#     Node 1, Type 0, BuildingBlock: ESEHIV_clean_linker_0, # of connection points: 3
#     Node 2, Type 0, BuildingBlock: ESEHIV_clean_linker_0, # of connection points: 3
#     Node 3, Type 0, BuildingBlock: ESEHIV_clean_linker_0, # of connection points: 3
#     Node 4, Type 0, BuildingBlock: ESEHIV_clean_linker_0, # of connection points: 3
#     Node 5, Type 0, BuildingBlock: ESEHIV_clean_linker_0, # of connection points: 3
#     Node 6, Type 0, BuildingBlock: ESEHIV_clean_linker_0, # of connection points: 3
#     Node 7, Type 0, BuildingBlock: ESEHIV_clean_linker_0, # of connection points: 3
#     Node 8, Type 0, BuildingBlock: ESEHIV_clean_linker_0, # of connection points: 3
#     Node 9, Type 0, BuildingBlock: ESEHIV_clean_linker_0, # of connection points: 3
#     Node 10, Type 0, BuildingBlock: ESEHIV_clean_linker_0, # of connection points: 3
#     Node 11, Type 0, BuildingBlock: ESEHIV_clean_linker_0, # of connection points: 3
#     Node 12, Type 0, BuildingBlock: ESEHIV_clean_linker_0, # of connection points: 3
#     Node 13, Type 0, BuildingBlock: ESEHIV_clean_linker_0, # of connection points: 3
#     Node 14, Type 0, BuildingBlock: ESEHIV_clean_linker_0, # of connection points: 3
#     Node 15, Type 0, BuildingBlock: ESEHIV_clean_linker_0, # of connection points: 3
#     Node 16, Type 0, BuildingBlock: ESEHIV_clean_linker_0, # of connection points: 3
#     Node 17, Type 0, BuildingBlock: ESEHIV_clean_linker_0, # of connection points: 3
#     Node 18, Type 1, BuildingBlock: KUMBOL_clean_sbu_0, # of connection points: 6
#     Node 19, Type 1, BuildingBlock: KUMBOL_clean_sbu_0, # of connection points: 6
#     Node 20, Type 1, BuildingBlock: KUMBOL_clean_sbu_0, # of connection points: 6
#     Node 21, Type 1, BuildingBlock: KUMBOL_clean_sbu_0, # of connection points: 6
#     Node 22, Type 1, BuildingBlock: KUMBOL_clean_sbu_0, # of connection points: 6
#     Node 23, Type 1, BuildingBlock: KUMBOL_clean_sbu_0, # of connection points: 6
#     Node 24, Type 1, BuildingBlock: KUMBOL_clean_sbu_0, # of connection points: 6
#     Node 25, Type 1, BuildingBlock: KUMBOL_clean_sbu_0, # of connection points: 6
#     Node 26, Type 1, BuildingBlock: KUMBOL_clean_sbu_0, # of connection points: 6
#     Edge 27, Type (0, 1), BuildingBlock: EZIPEK_clean_linker_0, # of connection points: 2
#     Edge 28, Type (0, 1), BuildingBlock: EZIPEK_clean_linker_0, # of connection points: 2
#     Edge 29, Type (0, 1), BuildingBlock: EZIPEK_clean_linker_0, # of connection points: 2
#     Edge 30, Type (0, 1), BuildingBlock: EZIPEK_clean_linker_0, # of connection points: 2
#     Edge 31, Type (0, 1), BuildingBlock: EZIPEK_clean_linker_0, # of connection points: 2
#     Edge 32, Type (0, 1), BuildingBlock: EZIPEK_clean_linker_0, # of connection points: 2
#     Edge 33, Type (0, 1), BuildingBlock: EZIPEK_clean_linker_0, # of connection points: 2
#     Edge 34, Type (0, 1), BuildingBlock: EZIPEK_clean_linker_0, # of connection points: 2
#     Edge 35, Type (0, 1), BuildingBlock: EZIPEK_clean_linker_0, # of connection points: 2
#     Edge 36, Type (0, 1), BuildingBlock: EZIPEK_clean_linker_0, # of connection points: 2
#     Edge 37, Type (0, 1), BuildingBlock: EZIPEK_clean_linker_0, # of connection points: 2
#     Edge 38, Type (0, 1), BuildingBlock: EZIPEK_clean_linker_0, # of connection points: 2
#     Edge 39, Type (0, 1), BuildingBlock: EZIPEK_clean_linker_0, # of connection points: 2
#     Edge 40, Type (0, 1), BuildingBlock: EZIPEK_clean_linker_0, # of connection points: 2
#     Edge 41, Type (0, 1), BuildingBlock: EZIPEK_clean_linker_0, # of connection points: 2
#     Edge 42, Type (0, 1), BuildingBlock: EZIPEK_clean_linker_0, # of connection points: 2
#     Edge 43, Type (0, 1), BuildingBlock: EZIPEK_clean_linker_0, # of connection points: 2
#     Edge 44, Type (0, 1), BuildingBlock: EZIPEK_clean_linker_0, # of connection points: 2
#     Edge 45, Type (0, 1), BuildingBlock: EZIPEK_clean_linker_0, # of connection points: 2
#     Edge 46, Type (0, 1), BuildingBlock: EZIPEK_clean_linker_0, # of connection points: 2
#     Edge 47, Type (0, 1), BuildingBlock: EZIPEK_clean_linker_0, # of connection points: 2
#     Edge 48, Type (0, 1), BuildingBlock: EZIPEK_clean_linker_0, # of connection points: 2
#     Edge 49, Type (0, 1), BuildingBlock: EZIPEK_clean_linker_0, # of connection points: 2
#     Edge 50, Type (0, 1), BuildingBlock: EZIPEK_clean_linker_0, # of connection points: 2
#     Edge 51, Type (0, 1), BuildingBlock: EZIPEK_clean_linker_0, # of connection points: 2
#     Edge 52, Type (0, 1), BuildingBlock: EZIPEK_clean_linker_0, # of connection points: 2
#     Edge 53, Type (0, 1), BuildingBlock: EZIPEK_clean_linker_0, # of connection points: 2
#     Edge 54, Type (0, 1), BuildingBlock: EZIPEK_clean_linker_0, # of connection points: 2
#     Edge 55, Type (0, 1), BuildingBlock: EZIPEK_clean_linker_0, # of connection points: 2
#     Edge 56, Type (0, 1), BuildingBlock: EZIPEK_clean_linker_0, # of connection points: 2
#     Edge 57, Type (0, 1), BuildingBlock: EZIPEK_clean_linker_0, # of connection points: 2
#     Edge 58, Type (0, 1), BuildingBlock: EZIPEK_clean_linker_0, # of connection points: 2
#     Edge 59, Type (0, 1), BuildingBlock: EZIPEK_clean_linker_0, # of connection points: 2
#     Edge 60, Type (0, 1), BuildingBlock: EZIPEK_clean_linker_0, # of connection points: 2
#     Edge 61, Type (0, 1), BuildingBlock: EZIPEK_clean_linker_0, # of connection points: 2
#     Edge 62, Type (0, 1), BuildingBlock: EZIPEK_clean_linker_0, # of connection points: 2
#     Edge 63, Type (0, 1), BuildingBlock: EZIPEK_clean_linker_0, # of connection points: 2
#     Edge 64, Type (0, 1), BuildingBlock: EZIPEK_clean_linker_0, # of connection points: 2
#     Edge 65, Type (0, 1), BuildingBlock: EZIPEK_clean_linker_0, # of connection points: 2
#     Edge 66, Type (0, 1), BuildingBlock: EZIPEK_clean_linker_0, # of connection points: 2
#     Edge 67, Type (0, 1), BuildingBlock: EZIPEK_clean_linker_0, # of connection points: 2
#     Edge 68, Type (0, 1), BuildingBlock: EZIPEK_clean_linker_0, # of connection points: 2
#     Edge 69, Type (0, 1), BuildingBlock: EZIPEK_clean_linker_0, # of connection points: 2
#     Edge 70, Type (0, 1), BuildingBlock: EZIPEK_clean_linker_0, # of connection points: 2
#     Edge 71, Type (0, 1), BuildingBlock: EZIPEK_clean_linker_0, # of connection points: 2
#     Edge 72, Type (0, 1), BuildingBlock: EZIPEK_clean_linker_0, # of connection points: 2
#     Edge 73, Type (0, 1), BuildingBlock: EZIPEK_clean_linker_0, # of connection points: 2
#     Edge 74, Type (0, 1), BuildingBlock: EZIPEK_clean_linker_0, # of connection points: 2
#     Edge 75, Type (0, 1), BuildingBlock: EZIPEK_clean_linker_0, # of connection points: 2
#     Edge 76, Type (0, 1), BuildingBlock: EZIPEK_clean_linker_0, # of connection points: 2
#     Edge 77, Type (0, 1), BuildingBlock: EZIPEK_clean_linker_0, # of connection points: 2
#     Edge 78, Type (0, 1), BuildingBlock: EZIPEK_clean_linker_0, # of connection points: 2
#     Edge 79, Type (0, 1), BuildingBlock: EZIPEK_clean_linker_0, # of connection points: 2
#     Edge 80, Type (0, 1), BuildingBlock: EZIPEK_clean_linker_0, # of connection points: 2
# Relax obj value: 0.007
# Max RMSD: 0.109
# Mean RMSD: 0.092
data_MOF--net-eea--node1-KUMBOL_clean_sbu_0--node2-ESEHIV_clean_linker_0--edge1-EZIPEK_clean_linker_0
_symmetry_space_group_name_H-M    P1
_symmetry_Int_Tables_number       1
_symmetry_cell_setting            triclinic
loop_
_symmetry_equiv_pos_as_xyz
'x, y, z'
_cell_length_a     33.582131
_cell_length_b     34.819198
_cell_length_c     54.716919
_cell_angle_alpha  89.88538
_cell_angle_beta   90.056089
_cell_angle_gamma 120.00425
loop_
_atom_site_label
_atom_site_type_symbol
_atom_site_fract_x
_atom_site_fract_y
_atom_site_fract_z
_atom_type_partial_charge
H0 H 0.25267 0.18278 0.44232 0.0
H1 H 0.2722 0.06944 0.44057 0.0
H2 H 0.21974 0.10363 0.37752 0.0
C3 C 0.25111 0.15483 0.43272 0.0
C4 C 0.23657 0.14709 0.40838 0.0
C5 C 0.26569 0.12802 0.44434 0.0
C6 C 0.26205 0.09113 0.43176 0.0
C7 C 0.24438 0.08181 0.40788 0.0
C8 C 0.23279 0.11045 0.39609 0.0
H9 H 0.83018 0.05803 0.44448 0.0
H10 H 0.94048 0.19374 0.43876 0.0
H11 H 0.89995 0.1082 0.37612 0.0
C12 C 0.85658 0.08519 0.4339 0.0
C13 C 0.86117 0.07911 0.40895 0.0
C14 C 0.88355 0.1272 0.44471 0.0
C15 C 0.91822 0.16159 0.43061 0.0
C16 C 0.92541 0.15406 0.40622 0.0
C17 C 0.89538 0.11355 0.3952 0.0
H18 H 0.81584 0.75218 0.4431 0.0
H19 H 0.93749 0.74082 0.43769 0.0
H20 H 0.90502 0.80548 0.3805 0.0
C21 C 0.84643 0.7583 0.4332 0.0
C22 C 0.85561 0.77904 0.41014 0.0
C23 C 0.87619 0.74515 0.44358 0.0
C24 C 0.91484 0.75161 0.43012 0.0
C25 C 0.92535 0.77326 0.40731 0.0
C26 C 0.89636 0.78799 0.39783 0.0
H27 H 0.05319 0.23276 0.59031 0.0
H28 H 0.19127 0.25409 0.59024 0.0
H29 H 0.10736 0.20496 0.65484 0.0
C30 C 0.08118 0.23151 0.59947 0.0
C31 C 0.07632 0.21924 0.62418 0.0
C32 C 0.123 0.24563 0.58707 0.0
C33 C 0.15879 0.24342 0.59941 0.0
C34 C 0.15269 0.22706 0.62351 0.0
C35 C 0.11159 0.21576 0.63595 0.0
H36 H 0.72479 0.91992 0.58907 0.0
H37 H 0.76074 0.81713 0.58639 0.0
H38 H 0.78517 0.89394 0.65164 0.0
C39 C 0.73831 0.90071 0.59763 0.0
C40 C 0.75716 0.9121 0.62124 0.0
C41 C 0.73954 0.86641 0.58459 0.0
C42 C 0.75892 0.84336 0.59606 0.0
C43 C 0.77278 0.85163 0.62064 0.0
C44 C 0.77255 0.88639 0.633 0.0
H45 H 0.06241 0.79561 0.59163 0.0
H46 H 0.18324 0.92503 0.58885 0.0
H47 H 0.09475 0.88573 0.65192 0.0
C48 C 0.08485 0.82743 0.60008 0.0
C49 C 0.07447 0.83662 0.62351 0.0
C50 C 0.12369 0.85954 0.58739 0.0
C51 C 0.15278 0.90047 0.59842 0.0
C52 C 0.14246 0.90996 0.62168 0.0
C53 C 0.10296 0.87825 0.63403 0.0
H54 H 0.9463 0.53041 0.77506 0.0
H55 H 0.95957 0.41375 0.77359 0.0
H56 H 0.88722 0.43821 0.71602 0.0
C57 C 0.94079 0.50053 0.76592 0.0
C58 C 0.91784 0.48854 0.74349 0.0
C59 C 0.9551 0.47315 0.77701 0.0
C60 C 0.94838 0.43481 0.76497 0.0
C61 C 0.92321 0.42144 0.74301 0.0
C62 C 0.90776 0.4485 0.73256 0.0
H63 H 0.49807 0.39418 0.77415 0.0
H64 H 0.60295 0.53177 0.77148 0.0
H65 H 0.56295 0.45405 0.70577 0.0
C66 C 0.52242 0.42299 0.76377 0.0
C67 C 0.5265 0.41919 0.73832 0.0
C68 C 0.54741 0.46419 0.77571 0.0
C69 C 0.58094 0.50055 0.76235 0.0
C70 C 0.58843 0.49589 0.73759 0.0
C71 C 0.55844 0.45661 0.72521 0.0
H72 H 0.47863 0.08564 0.7705 0.0
H73 H 0.60202 0.07692 0.76875 0.0
H74 H 0.56336 0.12567 0.70591 0.0
C75 C 0.50905 0.09043 0.76094 0.0
C76 C 0.51677 0.10595 0.73665 0.0
C77 C 0.53942 0.0795 0.77268 0.0
C78 C 0.57837 0.08521 0.75991 0.0
C79 C 0.58744 0.10221 0.73593 0.0
C80 C 0.55667 0.1128 0.72442 0.0
H81 H 0.73054 0.58281 0.92226 0.0
H82 H 0.85322 0.57281 0.92229 0.0
H83 H 0.76609 0.53375 0.98609 0.0
C84 C 0.75355 0.57417 0.93153 0.0
C85 C 0.74378 0.55797 0.95566 0.0
C86 C 0.79292 0.57966 0.91933 0.0
C87 C 0.8227 0.56849 0.93154 0.0
C88 C 0.81322 0.55175 0.95565 0.0
C89 C 0.77368 0.54666 0.9676 0.0
H90 H 0.41557 0.26979 0.91865 0.0
H91 H 0.40546 0.14167 0.92198 0.0
H92 H 0.44535 0.22469 0.98571 0.0
C93 C 0.41805 0.24433 0.92885 0.0
C94 C 0.43151 0.25133 0.95336 0.0
C95 C 0.40669 0.2039 0.91773 0.0
C96 C 0.41237 0.17225 0.93083 0.0
C97 C 0.42725 0.1801 0.95525 0.0
C98 C 0.43448 0.21873 0.96674 0.0
H99 H 0.72356 0.12859 0.92454 0.0
H100 H 0.85027 0.25052 0.92108 0.0
H101 H 0.7669 0.21418 0.98647 0.0
C102 C 0.74914 0.15881 0.93338 0.0
C103 C 0.74221 0.16799 0.95737 0.0
C104 C 0.78862 0.18886 0.92065 0.0
C105 C 0.82217 0.22734 0.93233 0.0
C106 C 0.81849 0.23551 0.95742 0.0
C107 C 0.77564 0.20691 0.96878 0.0
H108 H 0.60977 0.86291 0.10629 0.0
H109 H 0.59072 0.73149 0.10826 0.0
H110 H 0.56795 0.78313 0.04131 0.0
C111 C 0.60233 0.8326 0.09694 0.0
C112 C 0.5878 0.82623 0.07252 0.0
C113 C 0.60481 0.7989 0.10966 0.0
C114 C 0.5912 0.75835 0.09797 0.0
C115 C 0.57798 0.75242 0.07311 0.0
C116 C 0.57879 0.78756 0.06028 0.0
H117 H 0.15994 0.72771 0.11026 0.0
H118 H 0.27163 0.86272 0.10404 0.0
H119 H 0.23204 0.77526 0.04226 0.0
C120 C 0.1866 0.75449 0.09961 0.0
C121 C 0.19199 0.74743 0.07488 0.0
C122 C 0.21371 0.79677 0.11015 0.0
C123 C 0.24921 0.83046 0.09605 0.0
C124 C 0.25705 0.82211 0.07191 0.0
C125 C 0.22685 0.78136 0.06111 0.0
H126 H 0.14961 0.41671 0.10965 0.0
H127 H 0.27565 0.4131 0.10589 0.0
H128 H 0.23837 0.4707 0.04689 0.0
C129 C 0.181 0.42447 0.10005 0.0
C130 C 0.18957 0.44459 0.07683 0.0
C131 C 0.21218 0.41371 0.11092 0.0
C132 C 0.25218 0.42261 0.09802 0.0
C133 C 0.26183 0.44314 0.07491 0.0
C134 C 0.23085 0.45478 0.06466 0.0
H135 H 0.3879 0.90184 0.25676 0.0
H136 H 0.52226 0.91459 0.25401 0.0
H137 H 0.44454 0.87521 0.32088 0.0
C138 C 0.41574 0.89993 0.26564 0.0
C139 C 0.4114 0.88747 0.29046 0.0
C140 C 0.45652 0.91202 0.25251 0.0
C141 C 0.49146 0.9073 0.26406 0.0
C142 C 0.48638 0.8923 0.28842 0.0
C143 C 0.44765 0.88514 0.30186 0.0
H144 H 0.04892 0.58511 0.25777 0.0
H145 H 0.0842 0.48204 0.2557 0.0
H146 H 0.0988 0.55258 0.3224 0.0
C147 C 0.05992 0.56433 0.26689 0.0
C148 C 0.07534 0.57352 0.29121 0.0
C149 C 0.06229 0.53066 0.25385 0.0
C150 C 0.08044 0.50694 0.26566 0.0
C151 C 0.09125 0.51327 0.29066 0.0
C152 C 0.08804 0.54614 0.30343 0.0
H153 H 0.38737 0.47854 0.24923 0.0
H154 H 0.52305 0.58404 0.25269 0.0
H155 H 0.43433 0.5506 0.3152 0.0
C156 C 0.41497 0.50107 0.26096 0.0
C157 C 0.40945 0.50242 0.28633 0.0
C158 C 0.45714 0.52811 0.24976 0.0
C159 C 0.49259 0.56261 0.26292 0.0
C160 C 0.48709 0.57038 0.28772 0.0
C161 C 0.44337 0.54133 0.29831 0.0
Gd162 Gd 0.5164 0.02258 0.04328 0.0
Gd163 Gd 0.48181 0.96589 0.98223 0.0
C164 C 0.33587 0.84818 0.97357 0.0
C165 C 0.35006 0.78863 0.96245 0.0
C166 C 0.41423 0.86273 0.97037 0.0
C167 C 0.38378 0.8775 0.97518 0.0
C168 C 0.39769 0.81816 0.96369 0.0
C169 C 0.31921 0.80363 0.96737 0.0
C170 C 0.3061 0.86452 0.97817 0.0
C171 C 0.32428 0.909 0.98427 0.0
N172 N 0.40097 0.92054 0.9815 0.0
C173 C 0.37191 0.93652 0.98592 0.0
H174 H 0.38499 0.96968 0.99249 0.0
C175 C 0.49113 0.87972 0.96505 0.0
N176 N 0.46003 0.89207 0.97194 0.0
C177 C 0.47646 0.83581 0.9585 0.0
C178 C 0.42952 0.80475 0.95807 0.0
H179 H 0.52732 0.90399 0.96456 0.0
H180 H 0.28257 0.78061 0.96615 0.0
H181 H 0.6076 0.00937 0.06064 0.0
H182 H 0.26914 0.84308 0.97718 0.0
H183 H 0.30167 0.92195 0.98832 0.0
H184 H 0.33673 0.75424 0.95744 0.0
H185 H 0.47894 0.0934 0.05905 0.0
H186 H 0.72968 0.13506 0.05607 0.0
H187 H 0.69096 0.0542 0.06294 0.0
H188 H 0.67296 0.23592 0.05298 0.0
H189 H 0.50132 0.82606 0.95352 0.0
H190 H 0.41821 0.77081 0.95286 0.0
H191 H 0.7226 0.20284 0.05159 0.0
H192 H 0.51077 0.17382 0.06404 0.0
N193 N 0.59741 0.06292 0.04934 0.0
C194 C 0.69263 0.11527 0.05436 0.0
C195 C 0.67093 0.06971 0.05828 0.0
C196 C 0.6659 0.13514 0.05047 0.0
C197 C 0.61764 0.1078 0.04849 0.0
C198 C 0.6231 0.04411 0.05631 0.0
N199 N 0.54353 0.09894 0.05028 0.0
C200 C 0.58974 0.12643 0.04923 0.0
C201 C 0.53335 0.16102 0.05962 0.0
C202 C 0.58037 0.18996 0.05663 0.0
C203 C 0.51552 0.1154 0.05679 0.0
C204 C 0.60937 0.17278 0.05194 0.0
H205 H 0.59414 0.22527 0.05897 0.0
O206 O 0.48089 0.02572 0.07584 0.0
O207 O 0.45831 0.97495 0.01887 0.0
O208 O 0.46542 0.02068 0.98302 0.0
O209 O 0.4843 0.05618 0.02097 0.0
O210 O 0.45304 0.96238 0.05573 0.0
O211 O 0.52389 0.99529 0.07744 0.0
O212 O 0.5261 0.99338 0.95054 0.0
O213 O 0.5348 0.02302 1.00409 0.0
O214 O 0.54207 0.97427 0.0379 0.0
O215 O 0.50058 0.92473 1.00635 0.0
O216 O 0.55816 0.99238 0.98046 0.0
O217 O 0.45454 0.97204 0.94684 0.0
C218 C 0.43417 0.94667 0.03519 0.0
C219 C 0.65736 0.20025 0.0514 0.0
C220 C 0.68563 0.18142 0.05057 0.0
C221 C 0.49652 0.00512 0.08942 0.0
C222 C 0.50953 0.02002 0.11481 0.0
C223 C 0.54215 0.06422 0.11984 0.0
C224 C 0.48996 0.98924 0.13422 0.0
C225 C 0.50366 0.00267 0.15858 0.0
C226 C 0.55538 0.07773 0.14392 0.0
C227 C 0.53651 0.04728 0.1631 0.0
C228 C 0.46873 0.0515 0.9981 0.0
C229 C 0.57098 0.02541 0.9953 0.0
C230 C 0.49418 0.98978 0.93588 0.0
C231 C 0.49656 0.97573 0.91074 0.0
C232 C 0.4976 0.93649 0.90671 0.0
C233 C 0.5027 0.00396 0.89075 0.0
C234 C 0.51031 0.99298 0.86705 0.0
C235 C 0.50519 0.92563 0.88333 0.0
C236 C 0.51164 0.95368 0.86364 0.0
C237 C 0.52706 0.93651 0.026 0.0
H238 H 0.55747 0.08816 0.10516 0.0
H239 H 0.46438 0.95507 0.13041 0.0
H240 H 0.58046 0.11198 0.14775 0.0
H241 H 0.54732 0.05865 0.18164 0.0
H242 H 0.4934 0.91464 0.92169 0.0
H243 H 0.50216 0.03449 0.89364 0.0
H244 H 0.50631 0.89544 0.88047 0.0
H245 H 0.51738 0.94456 0.84561 0.0
Gd246 Gd 0.97652 0.48697 0.04295 0.0
Gd247 Gd 0.02749 0.50709 0.98294 0.0
C248 C 0.12308 0.46172 0.95064 0.0
C249 C 0.1878 0.53133 0.93702 0.0
C250 C 0.12325 0.53053 0.95788 0.0
C251 C 0.10115 0.48453 0.95973 0.0
C252 C 0.16702 0.55425 0.94668 0.0
C253 C 0.16578 0.48521 0.93884 0.0
C254 C 0.1034 0.4164 0.9553 0.0
C255 C 0.06486 0.39541 0.97023 0.0
N256 N 0.06184 0.46306 0.97332 0.0
C257 C 0.04522 0.41939 0.97963 0.0
H258 H 0.01763 0.40219 0.9925 0.0
C259 C 0.1239 0.59753 0.96578 0.0
N260 N 0.10342 0.5523 0.96824 0.0
C261 C 0.16723 0.6222 0.95514 0.0
C262 C 0.18912 0.60052 0.94573 0.0
H263 H 0.10668 0.61518 0.97152 0.0
H264 H 0.18299 0.46816 0.93193 0.0
H265 H 0.99256 0.59091 0.03742 0.0
H266 H 0.11926 0.39791 0.94866 0.0
H267 H 0.05084 0.36085 0.97505 0.0
H268 H 0.22136 0.54909 0.92846 0.0
H269 H 0.90831 0.38712 0.06674 0.0
H270 H 0.86228 0.5832 0.04269 0.0
H271 H 0.94657 0.62741 0.0375 0.0
H272 H 0.75969 0.43116 0.06252 0.0
H273 H 0.18334 0.65793 0.95381 0.0
H274 H 0.22279 0.61977 0.93746 0.0
H275 H 0.79303 0.50985 0.05115 0.0
H276 H 0.82733 0.34102 0.07997 0.0
N277 N 0.9354 0.52562 0.04234 0.0
C278 C 0.88246 0.56677 0.04274 0.0
C279 C 0.92998 0.59184 0.03993 0.0
C280 C 0.86174 0.521 0.04645 0.0
C281 C 0.88948 0.50113 0.04634 0.0
C282 C 0.95607 0.57072 0.03994 0.0
N283 N 0.89909 0.43949 0.05326 0.0
C284 C 0.87075 0.45671 0.05206 0.0
C285 C 0.83893 0.37328 0.07186 0.0
C286 C 0.80814 0.38875 0.06843 0.0
C287 C 0.8847 0.39943 0.06437 0.0
C288 C 0.82412 0.43135 0.05896 0.0
H289 H 0.77268 0.36838 0.07414 0.0
O290 O 0.98273 0.45966 0.07754 0.0
O291 O 0.03948 0.49731 0.02237 0.0
O292 O 0.97516 0.43475 0.98585 0.0
O293 O 0.9306 0.42408 0.02043 0.0
O294 O 0.00852 0.44307 0.04443 0.0
O295 O 0.99126 0.52545 0.07644 0.0
O296 O 0.02461 0.5554 0.95901 0.0
O297 O 0.97807 0.51672 1.00657 0.0
O298 O 0.0371 0.55678 0.0438 0.0
O299 O 0.07103 0.56936 1.00535 0.0
O300 O 0.95414 0.48558 0.97345 0.0
O301 O 0.01445 0.49268 0.94445 0.0
C302 C 0.04503 0.46665 0.03151 0.0
C303 C 0.79575 0.45027 0.05766 0.0
C304 C 0.8146 0.495 0.05128 0.0
C305 C 0.9903 0.49436 0.09004 0.0
C306 C 0.9692 0.48689 0.1142 0.0
C307 C 0.92158 0.46786 0.11716 0.0
C308 C 0.99778 0.49815 0.13478 0.0
C309 C 0.97884 0.49055 0.1583 0.0
C310 C 0.90254 0.45932 0.14057 0.0
C311 C 0.93097 0.47055 0.16107 0.0
C312 C 0.93783 0.41036 0.99901 0.0
C313 C 0.94378 0.5012 0.99198 0.0
C314 C 0.01603 0.53022 0.93977 0.0
C315 C 0.03411 0.5508 0.91586 0.0
C316 C 0.0625 0.59688 0.91332 0.0
C317 C 0.01726 0.5242 0.89487 0.0
C318 C 0.02687 0.54362 0.87158 0.0
C319 C 0.07362 0.61605 0.8901 0.0
C320 C 0.05558 0.58969 0.86933 0.0
C321 C 0.06849 0.5823 0.02768 0.0
H322 H 0.89917 0.4596 0.10154 0.0
H323 H 0.03465 0.51275 0.13258 0.0
H324 H 0.86569 0.44406 0.14283 0.0
H325 H 0.91571 0.46374 0.17913 0.0
H326 H 0.0751 0.61823 0.92917 0.0
H327 H 0.99461 0.48866 0.89662 0.0
H328 H 0.0953 0.65159 0.88822 0.0
H329 H 0.06349 0.60526 0.85147 0.0
Gd330 Gd 0.4827 0.5086 0.98517 0.0
Gd331 Gd 0.52045 0.48638 0.04346 0.0
C332 C 0.66631 0.50984 0.05114 0.0
C333 C 0.65247 0.43502 0.05709 0.0
C334 C 0.58819 0.44801 0.05206 0.0
C335 C 0.6185 0.493 0.04916 0.0
C336 C 0.60488 0.41874 0.05676 0.0
C337 C 0.68305 0.48049 0.05437 0.0
C338 C 0.6958 0.55578 0.05124 0.0
C339 C 0.67729 0.58371 0.05053 0.0
N340 N 0.60119 0.52066 0.04672 0.0
C341 C 0.62975 0.56555 0.04841 0.0
H342 H 0.61654 0.588 0.04814 0.0
C343 C 0.51176 0.39116 0.05977 0.0
N344 N 0.54238 0.43342 0.05232 0.0
C345 C 0.52661 0.36073 0.06415 0.0
C346 C 0.5733 0.37439 0.0622 0.0
H347 H 0.4757 0.38075 0.06143 0.0
H348 H 0.71952 0.49287 0.05586 0.0
H349 H 0.38945 0.40494 0.97886 0.0
H350 H 0.73269 0.56997 0.05286 0.0
H351 H 0.6996 0.61931 0.05147 0.0
H352 H 0.66599 0.41302 0.06047 0.0
H353 H 0.52346 0.61339 0.96793 0.0
H354 H 0.26943 0.41676 0.9749 0.0
H355 H 0.30599 0.37039 0.97633 0.0
H356 H 0.33009 0.57277 0.96521 0.0
H357 H 0.50211 0.32688 0.06917 0.0
H358 H 0.58481 0.3509 0.06588 0.0
H359 H 0.27877 0.4926 0.97109 0.0
H360 H 0.49402 0.66414 0.95793 0.0
N361 N 0.4017 0.47132 0.9807 0.0
C362 C 0.30649 0.43241 0.97637 0.0
C363 C 0.32698 0.40616 0.97711 0.0
C364 C 0.33429 0.47855 0.97603 0.0
C365 C 0.38242 0.49724 0.97802 0.0
C366 C 0.37482 0.42623 0.97889 0.0
N367 N 0.45719 0.55847 0.97529 0.0
C368 C 0.41115 0.54226 0.97492 0.0
C369 C 0.47035 0.63002 0.96287 0.0
C370 C 0.42312 0.61445 0.96375 0.0
C371 C 0.48689 0.6013 0.96849 0.0
C372 C 0.39278 0.56993 0.9695 0.0
H373 H 0.41037 0.63672 0.95935 0.0
O374 O 0.52469 0.53681 0.95299 0.0
O375 O 0.53934 0.50564 1.00465 0.0
O376 O 0.53868 0.55847 0.03977 0.0
O377 O 0.49066 0.56313 0.011 0.0
O378 O 0.55803 0.5607 0.98345 0.0
O379 O 0.46504 0.47104 0.95095 0.0
O380 O 0.47912 0.46221 0.07651 0.0
O381 O 0.46433 0.49062 0.02408 0.0
O382 O 0.46591 0.43626 0.98938 0.0
O383 O 0.51395 0.43295 0.01901 0.0
O384 O 0.44401 0.43707 0.04651 0.0
O385 O 0.54624 0.52139 0.07728 0.0
C386 C 0.57401 0.54033 0.99634 0.0
C387 C 0.34487 0.55195 0.96902 0.0
C388 C 0.31564 0.50632 0.97239 0.0
C389 C 0.50012 0.50248 0.9393 0.0
C390 C 0.49428 0.51217 0.91392 0.0
C391 C 0.47854 0.54171 0.90855 0.0
C392 C 0.50944 0.49542 0.89491 0.0
C393 C 0.50903 0.50846 0.87064 0.0
C394 C 0.47843 0.55489 0.88448 0.0
C395 C 0.49362 0.53844 0.86562 0.0
C396 C 0.51746 0.57868 0.03056 0.0
C397 C 0.42889 0.4573 0.03286 0.0
C398 C 0.50989 0.49435 0.08972 0.0
C399 C 0.51793 0.48296 0.11403 0.0
C400 C 0.54656 0.46497 0.11791 0.0
C401 C 0.4982 0.49265 0.13383 0.0
C402 C 0.50882 0.48652 0.15769 0.0
C403 C 0.55612 0.45752 0.14169 0.0
C404 C 0.53776 0.46864 0.16153 0.0
C405 C 0.48547 0.41597 1.00058 0.0
H406 H 0.46712 0.55513 0.92298 0.0
H407 H 0.52164 0.47254 0.89895 0.0
H408 H 0.46657 0.57794 0.88041 0.0
H409 H 0.49277 0.54861 0.84699 0.0
H410 H 0.5619 0.45732 0.10266 0.0
H411 H 0.47558 0.50607 0.13072 0.0
H412 H 0.5782 0.44361 0.14478 0.0
H413 H 0.5459 0.46313 0.17991 0.0
Gd414 Gd 0.18271 0.35823 0.37911 0.0
Gd415 Gd 0.15232 0.30249 0.31843 0.0
C416 C 0.00228 0.19279 0.30971 0.0
C417 C 0.00983 0.12867 0.3002 0.0
C418 C 0.07798 0.20029 0.30801 0.0
C419 C 0.05061 0.21897 0.31164 0.0
C420 C 0.05789 0.15497 0.30192 0.0
C421 C 0.98208 0.14753 0.30413 0.0
C422 C 0.97566 0.21288 0.31343 0.0
C423 C 0.99727 0.25786 0.31907 0.0
N424 N 0.07116 0.26266 0.31729 0.0
C425 C 0.04516 0.28216 0.32111 0.0
H426 H 0.06094 0.31587 0.32719 0.0
C427 C 0.15259 0.21016 0.30436 0.0
N428 N 0.12426 0.22646 0.31031 0.0
C429 C 0.13433 0.16543 0.29834 0.0
C430 C 0.08674 0.13757 0.29738 0.0
H431 H 0.18947 0.23186 0.30439 0.0
H432 H 0.94506 0.12692 0.30265 0.0
H433 H 0.28026 0.34877 0.36833 0.0
H434 H 0.9385 0.19393 0.31217 0.0
H435 H 0.97707 0.27366 0.3225 0.0
H436 H 0.9938 0.09378 0.29564 0.0
H437 H 0.14778 0.4326 0.38972 0.0
H438 H 0.39065 0.4529 0.4073 0.0
H439 H 0.35894 0.3845 0.3828 0.0
H440 H 0.33377 0.5492 0.42897 0.0
H441 H 0.15697 0.15259 0.29418 0.0
H442 H 0.07265 0.10297 0.29261 0.0
H443 H 0.38112 0.5142 0.42415 0.0
H444 H 0.17935 0.50717 0.40703 0.0
N445 N 0.26352 0.39403 0.38598 0.0
C446 C 0.35498 0.43659 0.4016 0.0
C447 C 0.33727 0.3981 0.38771 0.0
C448 C 0.32743 0.45519 0.40659 0.0
C449 C 0.28111 0.43274 0.3987 0.0
C450 C 0.29167 0.37748 0.37978 0.0
N451 N 0.211 0.432 0.39205 0.0
C452 C 0.25456 0.45292 0.40113 0.0
C453 C 0.20109 0.4926 0.40517 0.0
C454 C 0.24625 0.5152 0.41365 0.0
C455 C 0.18366 0.45056 0.39483 0.0
C456 C 0.27347 0.49535 0.4119 0.0
H457 H 0.25957 0.5477 0.42179 0.0
O458 O 0.14392 0.36089 0.41028 0.0
O459 O 0.12632 0.30971 0.35441 0.0
O460 O 0.14458 0.36297 0.31617 0.0
O461 O 0.1525 0.39248 0.35556 0.0
O462 O 0.11817 0.2988 0.39125 0.0
O463 O 0.18757 0.33105 0.41386 0.0
O464 O 0.19245 0.30861 0.28643 0.0
O465 O 0.20249 0.36384 0.33933 0.0
O466 O 0.20408 0.3066 0.37761 0.0
O467 O 0.17066 0.26223 0.34309 0.0
O468 O 0.22939 0.3334 0.31889 0.0
O469 O 0.13057 0.31279 0.2822 0.0
C470 C 0.10113 0.28185 0.37062 0.0
C471 C 0.31886 0.51675 0.42057 0.0
C472 C 0.34571 0.49668 0.41798 0.0
C473 C 0.1591 0.34087 0.42476 0.0
C474 C 0.1699 0.35582 0.45036 0.0
C475 C 0.19523 0.40103 0.45607 0.0
C476 C 0.15474 0.3242 0.46944 0.0
C477 C 0.16573 0.33802 0.49395 0.0
C478 C 0.20661 0.41477 0.48022 0.0
C479 C 0.19221 0.38359 0.49902 0.0
C480 C 0.14284 0.39109 0.33172 0.0
C481 C 0.24005 0.36944 0.33073 0.0
C482 C 0.16602 0.31462 0.27142 0.0
C483 C 0.16321 0.29901 0.24614 0.0
C484 C 0.16023 0.25808 0.24144 0.0
C485 C 0.17098 0.32846 0.22658 0.0
C486 C 0.17673 0.31731 0.2026 0.0
C487 C 0.16558 0.24684 0.21768 0.0
C488 C 0.17403 0.27628 0.19842 0.0
C489 C 0.19212 0.27096 0.36428 0.0
H490 H 0.20592 0.42583 0.442 0.0
H491 H 0.13416 0.28915 0.46528 0.0
H492 H 0.22627 0.4498 0.48442 0.0
H493 H 0.20087 0.39507 0.5177 0.0
H494 H 0.15509 0.23534 0.25617 0.0
H495 H 0.1739 0.36041 0.23008 0.0
H496 H 0.16377 0.21541 0.21423 0.0
H497 H 0.17833 0.26701 0.18014 0.0
Gd498 Gd 0.64315 0.82029 0.37488 0.0
Gd499 Gd 0.69737 0.8421 0.31542 0.0
C500 C 0.7876 0.78728 0.28784 0.0
C501 C 0.85449 0.85389 0.2728 0.0
C502 C 0.792 0.85857 0.29246 0.0
C503 C 0.76769 0.81275 0.29547 0.0
C504 C 0.83603 0.87953 0.2815 0.0
C505 C 0.8303 0.80789 0.27588 0.0
C506 C 0.76599 0.74243 0.29416 0.0
C507 C 0.72742 0.72462 0.30918 0.0
N508 N 0.72831 0.79429 0.30901 0.0
C509 C 0.70959 0.75119 0.3169 0.0
H510 H 0.68129 0.73655 0.32958 0.0
C511 C 0.79837 0.92825 0.30013 0.0
N512 N 0.77463 0.8829 0.30233 0.0
C513 C 0.84194 0.95025 0.28949 0.0
C514 C 0.86095 0.92583 0.28018 0.0
H515 H 0.78353 0.94806 0.30583 0.0
H516 H 0.84593 0.78877 0.26996 0.0
H517 H 0.64457 0.91715 0.36801 0.0
H518 H 0.78036 0.72195 0.28875 0.0
H519 H 0.71184 0.69051 0.31524 0.0
H520 H 0.88816 0.86947 0.26432 0.0
H521 H 0.58613 0.7182 0.39724 0.0
H522 H 0.50866 0.89449 0.37799 0.0
H523 H 0.59097 0.94551 0.36919 0.0
H524 H 0.4237 0.74183 0.40173 0.0
H525 H 0.86052 0.98608 0.28812 0.0
H526 H 0.89487 0.94303 0.272 0.0
H527 H 0.44658 0.81828 0.38986 0.0
H528 H 0.50816 0.66535 0.41275 0.0
N529 N 0.5937 0.85017 0.37496 0.0
C530 C 0.53219 0.88174 0.37724 0.0
C531 C 0.57858 0.91064 0.37239 0.0
C532 C 0.51706 0.83701 0.38195 0.0
C533 C 0.54905 0.82202 0.38062 0.0
C534 C 0.60905 0.89433 0.3717 0.0
N535 N 0.56829 0.7662 0.38615 0.0
C536 C 0.53598 0.77874 0.38661 0.0
C537 C 0.51539 0.69694 0.40521 0.0
C538 C 0.48077 0.70801 0.40404 0.0
C539 C 0.55935 0.72678 0.39635 0.0
C540 C 0.49101 0.74962 0.39506 0.0
H541 H 0.44675 0.68485 0.41088 0.0
O542 O 0.65643 0.79735 0.40921 0.0
O543 O 0.70778 0.83341 0.35506 0.0
O544 O 0.6418 0.77061 0.31616 0.0
O545 O 0.59813 0.75846 0.35137 0.0
O546 O 0.67811 0.7791 0.37718 0.0
O547 O 0.65387 0.85806 0.40843 0.0
O548 O 0.70209 0.89376 0.29125 0.0
O549 O 0.64756 0.8517 0.33854 0.0
O550 O 0.69801 0.89267 0.37493 0.0
O551 O 0.73887 0.90391 0.33864 0.0
O552 O 0.62556 0.82382 0.30448 0.0
O553 O 0.69022 0.83025 0.2762 0.0
C554 C 0.71459 0.80384 0.3645 0.0
C555 C 0.45853 0.76381 0.39551 0.0
C556 C 0.47152 0.80736 0.38882 0.0
C557 C 0.6591 0.83006 0.42188 0.0
C558 C 0.63815 0.81933 0.44625 0.0
C559 C 0.59032 0.79597 0.44936 0.0
C560 C 0.66698 0.83128 0.46682 0.0
C561 C 0.64806 0.82027 0.49041 0.0
C562 C 0.57142 0.78408 0.47274 0.0
C563 C 0.60006 0.79615 0.49318 0.0
C564 C 0.60469 0.74582 0.32945 0.0
C565 C 0.61444 0.83811 0.32333 0.0
C566 C 0.69479 0.86918 0.27193 0.0
C567 C 0.69334 0.88473 0.24707 0.0
C568 C 0.70758 0.92964 0.24318 0.0
C569 C 0.67609 0.85486 0.22727 0.0
C570 C 0.67251 0.86999 0.20395 0.0
C571 C 0.70463 0.94467 0.21999 0.0
C572 C 0.68713 0.91507 0.20049 0.0
C573 C 0.73218 0.91767 0.35999 0.0
H574 H 0.56761 0.78684 0.43386 0.0
H575 H 0.70402 0.84917 0.46455 0.0
H576 H 0.53446 0.76557 0.47503 0.0
H577 H 0.58483 0.78686 0.51121 0.0
H578 H 0.72088 0.9532 0.25809 0.0
H579 H 0.66479 0.82004 0.22997 0.0
H580 H 0.71575 0.97936 0.21714 0.0
H581 H 0.68493 0.92733 0.18261 0.0
Gd582 Gd 0.15084 0.8418 0.31657 0.0
Gd583 Gd 0.1843 0.82113 0.37777 0.0
C584 C 0.32917 0.84213 0.38598 0.0
C585 C 0.31417 0.76853 0.39698 0.0
C586 C 0.2504 0.78152 0.3892 0.0
C587 C 0.28136 0.82586 0.38442 0.0
C588 C 0.26665 0.75255 0.39581 0.0
C589 C 0.34528 0.81318 0.39207 0.0
C590 C 0.35951 0.8872 0.38169 0.0
C591 C 0.34203 0.91515 0.37666 0.0
N592 N 0.26491 0.85329 0.37865 0.0
C593 C 0.29452 0.89767 0.37559 0.0
H594 H 0.28205 0.91992 0.37201 0.0
C595 C 0.17337 0.72425 0.39446 0.0
N596 N 0.20455 0.76682 0.38769 0.0
C597 C 0.18787 0.69438 0.40101 0.0
C598 C 0.23471 0.70847 0.40148 0.0
H599 H 0.13703 0.71308 0.39422 0.0
H600 H 0.38177 0.82526 0.39341 0.0
H601 H 0.07003 0.74196 0.29114 0.0
H602 H 0.3964 0.90083 0.3826 0.0
H603 H 0.3651 0.95023 0.37368 0.0
H604 H 0.32723 0.74674 0.40197 0.0
H605 H 0.17476 0.94783 0.30396 0.0
H606 H 0.93849 0.73097 0.2988 0.0
H607 H 0.98644 0.69836 0.28741 0.0
H608 H 0.97588 0.87988 0.31423 0.0
H609 H 0.16289 0.66054 0.40579 0.0
H610 H 0.24588 0.68528 0.40665 0.0
H611 H 0.93483 0.79885 0.30982 0.0
H612 H 0.13427 0.99003 0.30453 0.0
N613 N 0.0706 0.79789 0.30795 0.0
C614 C 0.97544 0.75013 0.3012 0.0
C615 C 0.00236 0.73165 0.29474 0.0
C616 C 0.99694 0.79442 0.3086 0.0
C617 C 0.0453 0.81801 0.31134 0.0
C618 C 0.0501 0.75652 0.2975 0.0
N619 N 0.11492 0.88556 0.31228 0.0
C620 C 0.06836 0.86356 0.31365 0.0
C621 C 0.11531 0.95454 0.30749 0.0
C622 C 0.06799 0.9328 0.31141 0.0
C623 C 0.13812 0.93022 0.3073 0.0
C624 C 0.04364 0.8866 0.31359 0.0
H625 H 0.05029 0.95164 0.31121 0.0
O626 O 0.18939 0.88816 0.28748 0.0
O627 O 0.20984 0.85123 0.34106 0.0
O628 O 0.20344 0.89325 0.37573 0.0
O629 O 0.18506 0.90741 0.3367 0.0
O630 O 0.20868 0.83161 0.30567 0.0
O631 O 0.15014 0.81739 0.28003 0.0
O632 O 0.14236 0.8171 0.40877 0.0
O633 O 0.1312 0.82768 0.35607 0.0
O634 O 0.12424 0.76868 0.32189 0.0
O635 O 0.16358 0.75986 0.35464 0.0
O636 O 0.10799 0.77397 0.37947 0.0
O637 O 0.21419 0.8436 0.41436 0.0
C638 C 0.2308 0.84009 0.32576 0.0
C639 C 0.99538 0.86277 0.3138 0.0
C640 C 0.972 0.81662 0.31131 0.0
C641 C 0.17788 0.85678 0.27132 0.0
C642 C 0.17086 0.86542 0.24588 0.0
C643 C 0.15416 0.89403 0.2401 0.0
C644 C 0.18272 0.84554 0.22697 0.0
C645 C 0.17837 0.85467 0.20241 0.0
C646 C 0.14977 0.90309 0.2157 0.0
C647 C 0.16182 0.88362 0.19696 0.0
C648 C 0.20091 0.91963 0.35915 0.0
C649 C 0.09487 0.79498 0.36493 0.0
C650 C 0.17508 0.83245 0.42463 0.0
C651 C 0.16351 0.80774 0.44789 0.0
C652 C 0.14233 0.76134 0.44776 0.0
C653 C 0.16722 0.82971 0.47007 0.0
C654 C 0.14829 0.80507 0.49167 0.0
C655 C 0.12536 0.73705 0.46926 0.0
C656 C 0.12784 0.75867 0.49105 0.0
C657 C 0.13778 0.74526 0.33476 0.0
H658 H 0.14474 0.90946 0.25439 0.0
H659 H 0.19531 0.82307 0.23133 0.0
H660 H 0.13694 0.92524 0.21127 0.0
H661 H 0.15788 0.89085 0.17814 0.0
H662 H 0.13697 0.74368 0.43091 0.0
H663 H 0.18254 0.86548 0.47032 0.0
H664 H 0.10891 0.70124 0.46887 0.0
H665 H 0.11321 0.73913 0.50746 0.0
Gd666 Gd 0.85229 0.69184 0.71273 0.0
Gd667 Gd 0.81782 0.63309 0.65262 0.0
C668 C 0.67141 0.51659 0.64199 0.0
C669 C 0.68522 0.45706 0.63024 0.0
C670 C 0.74947 0.5302 0.63995 0.0
C671 C 0.7193 0.5453 0.64444 0.0
C672 C 0.73284 0.48595 0.63256 0.0
C673 C 0.65456 0.47236 0.63498 0.0
C674 C 0.64191 0.53322 0.64659 0.0
C675 C 0.66034 0.57738 0.65349 0.0
N676 N 0.7368 0.58809 0.65131 0.0
C677 C 0.70797 0.60434 0.65576 0.0
H678 H 0.72119 0.63732 0.66271 0.0
C679 C 0.82634 0.54641 0.63608 0.0
N680 N 0.79518 0.55899 0.64248 0.0
C681 C 0.81159 0.50278 0.6289 0.0
C682 C 0.7646 0.47228 0.62731 0.0
H683 H 0.86266 0.57032 0.63641 0.0
H684 H 0.61793 0.44984 0.63302 0.0
H685 H 0.93524 0.67007 0.73518 0.0
H686 H 0.60496 0.51226 0.645 0.0
H687 H 0.63792 0.59053 0.65756 0.0
H688 H 0.67179 0.42296 0.62461 0.0
H689 H 0.82507 0.77228 0.7231 0.0
H690 H 0.06463 0.78871 0.73036 0.0
H691 H 0.01843 0.70872 0.7395 0.0
H692 H 0.02389 0.89993 0.71781 0.0
H693 H 0.83647 0.49286 0.62426 0.0
H694 H 0.75323 0.4386 0.62155 0.0
H695 H 0.06641 0.8598 0.72135 0.0
H696 H 0.86417 0.85363 0.7246 0.0
N697 N 0.93273 0.72589 0.72019 0.0
C698 C 0.02774 0.77156 0.7276 0.0
C699 C 0.00181 0.72646 0.73279 0.0
C700 C 0.00533 0.79468 0.72097 0.0
C701 C 0.95703 0.7708 0.71783 0.0
C702 C 0.95415 0.7043 0.72956 0.0
N703 N 0.88646 0.76988 0.71625 0.0
C704 C 0.93309 0.79351 0.71587 0.0
C705 C 0.88399 0.83725 0.72184 0.0
C706 C 0.93157 0.86213 0.71917 0.0
C707 C 0.86201 0.791 0.72094 0.0
C708 C 0.95688 0.84039 0.71691 0.0
H709 H 0.94859 0.89799 0.72012 0.0
O710 O 0.80796 0.698 0.73939 0.0
O711 O 0.79385 0.64404 0.68865 0.0
O712 O 0.80085 0.68745 0.65173 0.0
O713 O 0.82557 0.72746 0.68813 0.0
O714 O 0.79354 0.62744 0.72482 0.0
O715 O 0.86036 0.68196 0.75164 0.0
O716 O 0.8614 0.65191 0.62045 0.0
O717 O 0.87118 0.69166 0.67371 0.0
O718 O 0.87229 0.63857 0.71063 0.0
O719 O 0.83415 0.59107 0.67767 0.0
O720 O 0.89388 0.65849 0.65196 0.0
O721 O 0.79451 0.64532 0.61753 0.0
C722 C 0.77165 0.61448 0.70465 0.0
C723 C 0.00511 0.86399 0.71743 0.0
C724 C 0.02933 0.84114 0.71943 0.0
C725 C 0.82602 0.68767 0.75766 0.0
C726 C 0.81039 0.68575 0.78333 0.0
C727 C 0.78217 0.70381 0.78854 0.0
C728 C 0.82017 0.66369 0.80231 0.0
C729 C 0.80096 0.6595 0.82596 0.0
C730 C 0.7637 0.69999 0.81179 0.0
C731 C 0.77281 0.67793 0.83028 0.0
C732 C 0.80807 0.72102 0.66568 0.0
C733 C 0.90723 0.69291 0.66565 0.0
C734 C 0.83236 0.65501 0.60613 0.0
C735 C 0.82951 0.63871 0.58098 0.0
C736 C 0.82101 0.59555 0.57678 0.0
C737 C 0.83943 0.66787 0.561 0.0
C738 C 0.84142 0.6539 0.53706 0.0
C739 C 0.82319 0.58176 0.55315 0.0
C740 C 0.83349 0.61071 0.53344 0.0
C741 C 0.85828 0.60138 0.69819 0.0
H742 H 0.77391 0.72071 0.7745 0.0
H743 H 0.84167 0.64931 0.79869 0.0
H744 H 0.74194 0.71402 0.81547 0.0
H745 H 0.75789 0.67534 0.84819 0.0
H746 H 0.8133 0.5727 0.59175 0.0
H747 H 0.84599 0.7013 0.56404 0.0
H748 H 0.81699 0.5485 0.5501 0.0
H749 H 0.8348 0.59926 0.51522 0.0
Gd750 Gd 0.30079 0.14863 0.71086 0.0
Gd751 Gd 0.36265 0.17727 0.65243 0.0
C752 C 0.47967 0.14717 0.64242 0.0
C753 C 0.54616 0.22095 0.63879 0.0
C754 C 0.46975 0.21131 0.64405 0.0
C755 C 0.45115 0.16589 0.64534 0.0
C756 C 0.51728 0.23926 0.63991 0.0
C757 C 0.52726 0.17495 0.64001 0.0
C758 C 0.4594 0.10116 0.64042 0.0
C759 C 0.41172 0.07522 0.63995 0.0
N760 N 0.40479 0.13994 0.64687 0.0
C761 C 0.38485 0.09519 0.64297 0.0
H762 H 0.34822 0.07387 0.64217 0.0
C763 C 0.45643 0.27134 0.63868 0.0
N764 N 0.44078 0.22781 0.64447 0.0
C765 C 0.5033 0.30042 0.63476 0.0
C766 C 0.53401 0.28445 0.63577 0.0
H767 H 0.4327 0.2838 0.63803 0.0
H768 H 0.5493 0.16095 0.63782 0.0
H769 H 0.31504 0.25332 0.71125 0.0
H770 H 0.48014 0.08557 0.63808 0.0
H771 H 0.39551 0.0397 0.63743 0.0
H772 H 0.58281 0.24186 0.63586 0.0
H773 H 0.23023 0.04266 0.72703 0.0
H774 H 0.18434 0.24243 0.7205 0.0
H775 H 0.26837 0.28819 0.71513 0.0
H776 H 0.0824 0.08718 0.7316 0.0
H777 H 0.51571 0.3351 0.63094 0.0
H778 H 0.57027 0.30695 0.63251 0.0
H779 H 0.11591 0.16774 0.72718 0.0
H780 H 0.1476 0.99241 0.73525 0.0
N781 N 0.25888 0.1867 0.71409 0.0
C782 C 0.20489 0.22651 0.71888 0.0
C783 C 0.25223 0.25241 0.71596 0.0
C784 C 0.18477 0.18043 0.72036 0.0
C785 C 0.21297 0.1612 0.71801 0.0
C786 C 0.27882 0.23202 0.71387 0.0
N787 N 0.22266 0.09863 0.71964 0.0
C788 C 0.19432 0.11588 0.72083 0.0
C789 C 0.16012 0.02692 0.7309 0.0
C790 C 0.12998 0.04354 0.73057 0.0
C791 C 0.20673 0.0553 0.72598 0.0
C792 C 0.14707 0.08867 0.72607 0.0
H793 H 0.09393 0.02161 0.73466 0.0
O794 O 0.31887 0.12249 0.74214 0.0
O795 O 0.3625 0.15692 0.69084 0.0
O796 O 0.30536 0.10536 0.65271 0.0
O797 O 0.25889 0.08916 0.68731 0.0
O798 O 0.32805 0.10113 0.71215 0.0
O799 O 0.30967 0.17906 0.74671 0.0
O800 O 0.35867 0.21049 0.61977 0.0
O801 O 0.30103 0.16973 0.67222 0.0
O802 O 0.359 0.22028 0.71049 0.0
O803 O 0.40894 0.23164 0.67859 0.0
O804 O 0.33685 0.22578 0.65133 0.0
O805 O 0.33694 0.14044 0.61869 0.0
C806 C 0.36396 0.12322 0.69859 0.0
C807 C 0.11872 0.10753 0.72759 0.0
C808 C 0.13765 0.15333 0.72489 0.0
C809 C 0.32018 0.15177 0.75718 0.0
C810 C 0.30269 0.13576 0.7817 0.0
C811 C 0.26116 0.0961 0.78545 0.0
C812 C 0.33083 0.15822 0.80164 0.0
C813 C 0.31786 0.14069 0.82521 0.0
C814 C 0.24805 0.07879 0.80896 0.0
C815 C 0.27634 0.1009 0.82881 0.0
C816 C 0.26879 0.07873 0.66592 0.0
C817 C 0.30028 0.20378 0.66438 0.0
C818 C 0.34343 0.1751 0.60631 0.0
C819 C 0.36467 0.18104 0.58232 0.0
C820 C 0.41231 0.19911 0.57988 0.0
C821 C 0.33664 0.16849 0.56153 0.0
C822 C 0.35607 0.17336 0.53829 0.0
C823 C 0.43181 0.2046 0.55673 0.0
C824 C 0.40387 0.19168 0.536 0.0
C825 C 0.39918 0.24403 0.69952 0.0
H826 H 0.2394 0.07807 0.77029 0.0
H827 H 0.36313 0.18879 0.79884 0.0
H828 H 0.21614 0.04803 0.81178 0.0
H829 H 0.26584 0.08716 0.847 0.0
H830 H 0.43435 0.20901 0.59576 0.0
H831 H 0.29983 0.15493 0.56338 0.0
H832 H 0.46862 0.21888 0.55485 0.0
H833 H 0.41949 0.19623 0.51813 0.0
Gd834 Gd 0.81865 0.17757 0.6523 0.0
Gd835 Gd 0.85105 0.15092 0.71193 0.0
C836 C 1.00017 0.18214 0.71226 0.0
C837 C 0.99116 0.10858 0.71296 0.0
C838 C 0.92383 0.11755 0.71524 0.0
C839 C 0.95192 0.16329 0.71329 0.0
C840 C 0.94359 0.09007 0.7163 0.0
C841 C 0.01929 0.15453 0.71071 0.0
C842 C 0.02802 0.22816 0.71401 0.0
C843 C 0.00777 0.25397 0.71821 0.0
N844 N 0.93252 0.18943 0.7144 0.0
C845 C 0.95988 0.23401 0.71875 0.0
H846 H 0.94597 0.2551 0.72299 0.0
C847 C 0.85083 0.05727 0.72558 0.0
N848 N 0.8777 0.10026 0.7179 0.0
C849 C 0.86888 0.02883 0.72692 0.0
C850 C 0.91522 0.04503 0.72162 0.0
H851 H 0.81476 0.0443 0.72924 0.0
H852 H 0.056 0.16862 0.70876 0.0
H853 H 0.72541 0.07244 0.64167 0.0
H854 H 0.06516 0.2438 0.71342 0.0
H855 H 0.02901 0.28937 0.72097 0.0
H856 H 0.00675 0.08784 0.71303 0.0
H857 H 0.85553 0.27783 0.62921 0.0
H858 H 0.60473 0.08246 0.64074 0.0
H859 H 0.64269 0.0375 0.63885 0.0
H860 H 0.66252 0.23766 0.63357 0.0
H861 H 0.84697 0.99438 0.73192 0.0
H862 H 0.92914 0.02292 0.72266 0.0
H863 H 0.61279 0.15735 0.63987 0.0
H864 H 0.82435 0.3267 0.61793 0.0
N865 N 0.73721 0.13851 0.64716 0.0
C866 C 0.64179 0.09849 0.64245 0.0
C867 C 0.66306 0.07306 0.64129 0.0
C868 C 0.66893 0.14459 0.64376 0.0
C869 C 0.71713 0.1639 0.64573 0.0
C870 C 0.71086 0.09361 0.64336 0.0
N871 N 0.79116 0.22532 0.64143 0.0
C872 C 0.74516 0.20896 0.6425 0.0
C873 C 0.80174 0.29384 0.62513 0.0
C874 C 0.75512 0.27919 0.6287 0.0
C875 C 0.81924 0.26609 0.63143 0.0
C876 C 0.72592 0.2358 0.63679 0.0
H877 H 0.74164 0.30071 0.62388 0.0
O878 O 0.86249 0.20733 0.62077 0.0
O879 O 0.87094 0.16849 0.673 0.0
O880 O 0.87384 0.22443 0.70817 0.0
O881 O 0.83395 0.23612 0.67685 0.0
O882 O 0.89549 0.22354 0.65095 0.0
O883 O 0.80361 0.14138 0.61785 0.0
O884 O 0.81087 0.15196 0.74272 0.0
O885 O 0.79805 0.15849 0.69123 0.0
O886 O 0.79907 0.10585 0.6542 0.0
O887 O 0.82447 0.08815 0.68991 0.0
O888 O 0.77444 0.10401 0.7142 0.0
O889 O 0.87727 0.15982 0.74935 0.0
C890 C 0.90762 0.20081 0.66459 0.0
C891 C 0.67799 0.21745 0.6374 0.0
C892 C 0.64958 0.17182 0.64099 0.0
C893 C 0.83892 0.17332 0.60669 0.0
C894 C 0.83304 0.18328 0.58134 0.0
C895 C 0.81488 0.21087 0.57596 0.0
C896 C 0.84855 0.1671 0.56226 0.0
C897 C 0.84647 0.17912 0.53799 0.0
C898 C 0.81371 0.22356 0.55191 0.0
C899 C 0.82951 0.20789 0.533 0.0
C900 C 0.85942 0.24917 0.69707 0.0
C901 C 0.76156 0.12542 0.69972 0.0
C902 C 0.84094 0.1574 0.75909 0.0
C903 C 0.82275 0.1313 0.78151 0.0
C904 C 0.7998 0.08487 0.78091 0.0
C905 C 0.82514 0.15317 0.80348 0.0
C906 C 0.80384 0.12859 0.82468 0.0
C907 C 0.77959 0.0604 0.80207 0.0
C908 C 0.78136 0.08207 0.82383 0.0
C909 C 0.80487 0.07815 0.66813 0.0
H910 H 0.80171 0.22268 0.59024 0.0
H911 H 0.86181 0.14503 0.56622 0.0
H912 H 0.8001 0.24524 0.54789 0.0
H913 H 0.82749 0.2173 0.51435 0.0
H914 H 0.79671 0.0676 0.76405 0.0
H915 H 0.84252 0.18911 0.80398 0.0
H916 H 0.76197 0.02454 0.80154 0.0
H917 H 0.76512 0.06257 0.84004 0.0
C918 C 0.30871 0.89633 0.05199 0.0
C919 C 0.29992 0.8535 0.05877 0.0
C920 C 0.37168 0.86835 0.03918 0.0
C921 C 0.38431 0.91342 0.0359 0.0
N922 N 0.36645 0.97184 0.04219 0.0
N923 N 0.32773 0.80176 0.06293 0.0
C924 C 0.35299 0.92777 0.04294 0.0
C925 C 0.3324 0.84007 0.05322 0.0
N926 N 0.27478 0.90689 0.05404 0.0
N927 N 0.39796 0.85264 0.0294 0.0
H928 H 0.30107 0.78106 0.07464 0.0
H929 H 0.35303 0.79289 0.06159 0.0
H930 H 0.42764 0.87301 0.01977 0.0
H931 H 0.3878 0.81907 0.02865 0.0
H932 H 0.27788 0.93621 0.04721 0.0
H933 H 0.24203 0.88457 0.06063 0.0
H934 H 0.34752 0.98494 0.04998 0.0
H935 H 0.39788 0.99569 0.03491 0.0
C936 C 0.13847 0.47969 0.07793 0.0
C937 C 0.15508 0.4547 0.06527 0.0
C938 C 0.11856 0.46246 0.0287 0.0
C939 C 0.09033 0.47362 0.04215 0.0
N940 N 0.08346 0.50526 0.07963 0.0
N941 N 0.15176 0.4157 0.02784 0.0
C942 C 0.10272 0.48518 0.06708 0.0
C943 C 0.14149 0.44318 0.04059 0.0
N944 N 0.15915 0.50113 0.09913 0.0
N945 N 0.13617 0.48377 1.00744 0.0
H946 H 0.16588 0.39814 0.03603 0.0
H947 H 0.14186 0.40787 1.00959 0.0
H948 H 0.13179 0.51054 1.00297 0.0
H949 H 0.16169 0.48097 0.99806 0.0
H950 H 0.15125 0.52283 0.10809 0.0
H951 H 0.18781 0.50113 0.10645 0.0
H952 H 0.08537 0.50916 0.09854 0.0
H953 H 0.06745 0.51969 0.07023 0.0
C954 C 0.58551 0.6861 0.06405 0.0
C955 C 0.56082 0.70863 0.06096 0.0
C956 C 0.50228 0.64427 0.03765 0.0
C957 C 0.5265 0.62125 0.04284 0.0
N958 N 0.56663 0.6146 0.07761 0.0
N959 N 0.48737 0.70237 0.05094 0.0
C960 C 0.56214 0.64031 0.06044 0.0
C961 C 0.51693 0.68621 0.04914 0.0
N962 N 0.63 0.70717 0.0719 0.0
N963 N 0.46327 0.62512 0.02386 0.0
H964 H 0.49429 0.73001 0.06137 0.0
H965 H 0.45369 0.68556 0.04451 0.0
H966 H 0.44411 0.59115 0.02079 0.0
H967 H 0.44916 0.64314 0.01629 0.0
H968 H 0.64812 0.6902 0.07399 0.0
H969 H 0.64942 0.74154 0.07388 0.0
H970 H 0.59149 0.62768 0.09136 0.0
H971 H 0.53864 0.58344 0.08121 0.0
C972 C 0.851 0.28568 0.9952 0.0
C973 C 0.85633 0.27593 0.97071 0.0
C974 C 0.91262 0.35393 0.96449 0.0
C975 C 0.90435 0.36508 0.98834 0.0
N976 N 0.8472 0.33967 0.02028 0.0
N977 N 0.9197 0.29791 0.94291 0.0
C978 C 0.86899 0.33044 1.00238 0.0
C979 C 0.89512 0.30906 0.95818 0.0
N980 N 0.83378 0.25294 0.01238 0.0
N981 N 0.93294 0.38532 0.94671 0.0
H982 H 0.91263 0.26517 0.94146 0.0
H983 H 0.95041 0.32168 0.93482 0.0
H984 H 0.93725 0.41694 0.94848 0.0
H985 H 0.93755 0.37735 0.92895 0.0
H986 H 0.83244 0.25936 0.0309 0.0
H987 H 0.82693 0.22088 1.00834 0.0
H988 H 0.8193 0.31485 0.02987 0.0
H989 H 0.85064 0.37089 0.02154 0.0
C990 C 0.70256 0.58557 0.98296 0.0
C991 C 0.70103 0.55173 0.96793 0.0
C992 C 0.61673 0.5101 0.97145 0.0
C993 C 0.61798 0.5428 0.98771 0.0
N994 N 0.66119 0.61906 1.00084 0.0
N995 N 0.6577 0.47895 0.9504 0.0
C996 C 0.66075 0.58261 0.99125 0.0
C997 C 0.65839 0.51323 0.96295 0.0
N998 N 0.7442 0.62029 0.9898 0.0
N999 N 0.57594 0.47881 0.96166 0.0
H1000 H 0.6873 0.48017 0.94356 0.0
H1001 H 0.62838 0.44796 0.94839 0.0
H1002 H 0.54445 0.47434 0.96716 0.0
H1003 H 0.57336 0.45939 0.94663 0.0
H1004 H 0.74796 0.64304 1.00322 0.0
H1005 H 0.77539 0.62428 0.98354 0.0
H1006 H 0.69029 0.65051 1.00113 0.0
H1007 H 0.63164 0.61879 1.00694 0.0
C1008 C 0.4826 0.16258 0.97692 0.0
C1009 C 0.43744 0.14875 0.96836 0.0
C1010 C 0.41668 0.07206 0.97428 0.0
C1011 C 0.4584 0.08519 0.98737 0.0
N1012 N 0.53277 0.14531 1.00009 0.0
N1013 N 0.35813 0.09079 0.9656 0.0
C1014 C 0.49146 0.1313 0.98891 0.0
C1015 C 0.40325 0.10372 0.96967 0.0
N1016 N 0.5179 0.20439 0.97186 0.0
N1017 N 0.39237 0.03162 0.96337 0.0
H1018 H 0.34688 0.11339 0.96242 0.0
H1019 H 0.33181 0.05808 0.96804 0.0
H1020 H 0.40623 0.01158 0.95968 0.0
H1021 H 0.36278 0.02241 0.9531 0.0
H1022 H 0.55228 0.21488 0.97549 0.0
H1023 H 0.51393 0.22753 0.96167 0.0
H1024 H 0.55499 0.17828 1.00479 0.0
H1025 H 0.5447 0.12402 1.00499 0.0
C1026 C 0.65759 0.13537 0.96475 0.0
C1027 C 0.69923 0.13638 0.97046 0.0
C1028 C 0.65731 0.06838 0.99475 0.0
C1029 C 0.61515 0.06719 0.98972 0.0
N1030 N 0.57472 0.09776 0.96774 0.0
N1031 N 0.74061 0.10965 0.99439 0.0
C1032 C 0.61528 0.10072 0.97444 0.0
C1033 C 0.69961 0.10483 0.98666 0.0
N1034 N 0.65869 0.16672 0.94913 0.0
N1035 N 0.65678 0.03295 1.00584 0.0
H1036 H 0.77237 0.13455 0.988 0.0
H1037 H 0.74334 0.09114 1.00859 0.0
H1038 H 0.62713 0.00674 0.0133 0.0
H1039 H 0.68519 0.02849 1.00674 0.0
H1040 H 0.63006 0.16692 0.94212 0.0
H1041 H 0.68926 0.19337 0.94262 0.0
H1042 H 0.57142 0.12244 0.9589 0.0
H1043 H 0.54323 0.06986 0.97086 0.0
C1044 C 0.83171 0.49405 0.97154 0.0
C1045 C 0.84484 0.53927 0.96828 0.0
C1046 C 0.92233 0.56102 0.98329 0.0
C1047 C 0.90868 0.51585 0.98823 0.0
N1048 N 0.84697 0.44024 0.99092 0.0
N1049 N 0.89894 0.61587 0.97677 0.0
C1050 C 0.86218 0.48277 0.98362 0.0
C1051 C 0.88896 0.57273 0.97603 0.0
N1052 N 0.79109 0.46171 0.96195 0.0
N1053 N 0.96759 0.59274 0.98415 0.0
H1054 H 0.87541 0.62563 0.97155 0.0
H1055 H 0.92873 0.6411 0.98476 0.0
H1056 H 0.99278 0.58586 0.98984 0.0
H1057 H 0.98025 0.62504 0.97782 0.0
H1058 H 0.78207 0.42845 0.96106 0.0
H1059 H 0.76787 0.46849 0.95297 0.0
H1060 H 0.81256 0.41538 0.99065 0.0
H1061 H 0.86848 0.43116 0.99958 0.0
C1062 C 0.49239 0.32757 0.96433 0.0
C1063 C 0.44551 0.29386 0.96524 0.0
C1064 C 0.42979 0.33549 0.99551 0.0
C1065 C 0.47446 0.37167 0.99191 0.0
N1066 N 0.55328 0.39381 0.9831 0.0
N1067 N 0.36829 0.26592 0.98023 0.0
C1068 C 0.50752 0.3656 0.9792 0.0
C1069 C 0.41376 0.29779 0.98046 0.0
N1070 N 0.52206 0.32371 0.94878 0.0
N1071 N 0.40529 0.33504 0.0154 0.0
H1072 H 0.35535 0.23747 0.96945 0.0
H1073 H 0.34301 0.26958 0.98918 0.0
H1074 H 0.41973 0.36003 0.0285 0.0
H1075 H 0.37403 0.30777 0.02056 0.0
H1076 H 0.55524 0.34949 0.94523 0.0
H1077 H 0.51244 0.29582 0.93793 0.0
H1078 H 0.57894 0.38798 0.97667 0.0
H1079 H 0.56555 0.42039 0.99518 0.0
C1080 C 0.16999 0.6691 0.06421 0.0
C1081 C 0.16085 0.7047 0.06274 0.0
C1082 C 0.10055 0.664 0.03247 0.0
C1083 C 0.10521 0.62631 0.03634 0.0
N1084 N 0.14794 0.59365 0.05242 0.0
N1085 N 0.11504 0.73521 0.0475 0.0
C1086 C 0.14111 0.6291 0.05126 0.0
C1087 C 0.12545 0.70192 0.0474 0.0
N1088 N 0.20685 0.67418 0.0775 0.0
N1089 N 0.07425 0.66431 0.01356 0.0
H1090 H 0.13273 0.76373 0.05812 0.0
H1091 H 0.08647 0.73296 0.03866 0.0
H1092 H 0.05988 0.63855 1.00099 0.0
H1093 H 0.07197 0.69194 1.00841 0.0
H1094 H 0.21775 0.65103 0.07824 0.0
H1095 H 0.22806 0.7028 0.08744 0.0
H1096 H 0.17003 0.59067 0.06459 0.0
H1097 H 0.13104 0.56668 0.04066 0.0
C1098 C 0.30096 0.41198 0.04892 0.0
C1099 C 0.30283 0.44895 0.06084 0.0
C1100 C 0.38598 0.49231 0.05325 0.0
C1101 C 0.38471 0.45608 0.04035 0.0
N1102 N 0.34125 0.37888 0.02947 0.0
N1103 N 0.34437 0.52735 0.06885 0.0
C1104 C 0.342 0.41532 0.03903 0.0
C1105 C 0.34434 0.49017 0.06091 0.0
N1106 N 0.2593 0.37409 0.04623 0.0
N1107 N 0.42686 0.52601 0.06158 0.0
H1108 H 0.31504 0.52676 0.07561 0.0
H1109 H 0.37242 0.55918 0.06658 0.0
H1110 H 0.45683 0.52435 0.06109 0.0
H1111 H 0.42983 0.55172 0.07256 0.0
H1112 H 0.25387 0.34718 0.03559 0.0
H1113 H 0.22878 0.37059 0.05325 0.0
H1114 H 0.31398 0.34657 0.03108 0.0
H1115 H 0.36911 0.38126 0.02008 0.0
C1116 C 0.59824 0.88265 0.04093 0.0
C1117 C 0.5732 0.85545 0.06092 0.0
C1118 C 0.51727 0.88043 0.05759 0.0
C1119 C 0.5403 0.90524 0.0364 0.0
N1120 N 0.59675 0.92209 1.00483 0.0
N1121 N 0.50302 0.81999 0.08461 0.0
C1122 C 0.57901 0.90395 0.02709 0.0
C1123 C 0.53105 0.85193 0.06825 0.0
N1124 N 0.64086 0.88898 0.03561 0.0
N1125 N 0.48256 0.88446 0.06785 0.0
H1126 H 0.51139 0.798 0.09294 0.0
H1127 H 0.46944 0.8125 0.08826 0.0
H1128 H 0.46941 0.9027 0.05982 0.0
H1129 H 0.46885 0.872 0.08506 0.0
H1130 H 0.66284 0.91207 0.02283 0.0
H1131 H 0.65588 0.87389 0.04555 0.0
H1132 H 0.62208 0.91837 0.99601 0.0
H1133 H 0.58328 0.93772 0.99423 0.0
C1134 C 0.00129 0.17379 0.38796 0.0
C1135 C 0.96775 0.18597 0.39305 0.0
C1136 C 0.01918 0.26049 0.37721 0.0
C1137 C 0.05172 0.24741 0.37053 0.0
N1138 N 0.06842 0.18829 0.36518 0.0
N1139 N 0.94022 0.2374 0.38783 0.0
C1140 C 0.04054 0.20278 0.37415 0.0
C1141 C 0.97513 0.22817 0.38603 0.0
N1142 N 0.99766 0.13609 0.39796 0.0
N1143 N 0.03142 0.30429 0.37665 0.0
H1144 H 0.90769 0.21445 0.39444 0.0
H1145 H 0.94237 0.26621 0.3808 0.0
H1146 H 0.06297 0.32897 0.36987 0.0
H1147 H 0.0114 0.31639 0.38419 0.0
H1148 H 0.02373 0.12819 0.39708 0.0
H1149 H 0.97093 0.11495 0.40951 0.0
H1150 H 0.05942 0.155 0.36454 0.0
H1151 H 0.09859 0.20941 0.35623 0.0
C1152 C 0.80924 0.77999 0.37386 0.0
C1153 C 0.82231 0.79084 0.39865 0.0
C1154 C 0.77282 0.82473 0.39983 0.0
C1155 C 0.76031 0.81238 0.37504 0.0
N1156 N 0.80974 0.82508 0.34175 0.0
N1157 N 0.82694 0.83712 0.43277 0.0
C1158 C 0.78848 0.80104 0.36181 0.0
C1159 C 0.8069 0.81708 0.41118 0.0
N1160 N 0.81853 0.75189 0.36107 0.0
N1161 N 0.75539 0.84737 0.41158 0.0
H1162 H 0.85442 0.83537 0.4404 0.0
H1163 H 0.8195 0.85888 0.44199 0.0
H1164 H 0.7394 0.8615 0.40173 0.0
H1165 H 0.75809 0.8532 0.43032 0.0
H1166 H 0.80988 0.74542 0.3426 0.0
H1167 H 0.83049 0.73262 0.36937 0.0
H1168 H 0.83593 0.82247 0.33298 0.0
H1169 H 0.80658 0.85263 0.33757 0.0
C1170 C 0.18761 0.00766 0.39158 0.0
C1171 C 0.23426 0.04046 0.39525 0.0
C1172 C 0.25921 -0.0018 0.37018 0.0
C1173 C 0.21262 0.96452 0.36754 0.0
N1174 N 0.13286 0.94465 0.36811 0.0
N1175 N 0.31507 0.06747 0.38927 0.0
C1176 C 0.17689 0.9715 0.37593 0.0
C1177 C 0.27034 0.03597 0.38483 0.0
N1178 N 0.15359 0.00983 0.40418 0.0
N1179 N 0.29217 0.99548 0.35704 0.0
H1180 H 0.32437 0.09657 0.3989 0.0
H1181 H 0.34314 0.06401 0.38463 0.0
H1182 H 0.28373 0.96983 0.34479 0.0
H1183 H 0.3266 0.02006 0.35631 0.0
H1184 H 0.11947 0.98428 0.40438 0.0
H1185 H 0.16004 0.03527 0.41639 0.0
H1186 H 0.10632 0.9514 0.37102 0.0
H1187 H 0.1235 0.91722 0.35703 0.0
C1188 C 0.51721 0.62133 0.32547 0.0
C1189 C 0.52414 0.61115 0.30136 0.0
C1190 C 0.58025 0.68929 0.2951 0.0
C1191 C 0.57109 0.70072 0.31863 0.0
N1192 N 0.51284 0.67567 0.35008 0.0
N1193 N 0.58983 0.6334 0.27521 0.0
C1194 C 0.53499 0.66624 0.33243 0.0
C1195 C 0.56356 0.64437 0.28923 0.0
N1196 N 0.49934 0.58887 0.34277 0.0
N1197 N 0.60122 0.7204 0.27723 0.0
H1198 H 0.58357 0.60085 0.27454 0.0
H1199 H 0.62089 0.65733 0.2675 0.0
H1200 H 0.60561 0.75214 0.27858 0.0
H1201 H 0.60663 0.71205 0.25971 0.0
H1202 H 0.49683 0.59539 0.36114 0.0
H1203 H 0.49374 0.55716 0.33905 0.0
H1204 H 0.484 0.65093 0.35911 0.0
H1205 H 0.51778 0.70734 0.35216 0.0
C1206 C 0.33966 0.83438 0.31444 0.0
C1207 C 0.36861 0.8772 0.30433 0.0
C1208 C 0.31095 0.89851 0.31407 0.0
C1209 C 0.2812 0.85564 0.32399 0.0
N1210 N 0.26661 0.78184 0.33255 0.0
N1211 N 0.38836 0.9538 0.30262 0.0
C1212 C 0.29609 0.82377 0.32448 0.0
C1213 C 0.35623 0.91039 0.30671 0.0
N1214 N 0.35336 0.80344 0.31406 0.0
N1215 N 0.29472 0.92679 0.30957 0.0
H1216 H 0.42252 0.96392 0.2985 0.0
H1217 H 0.38257 0.97999 0.30618 0.0
H1218 H 0.26192 0.91984 0.3146 0.0
H1219 H 0.31252 0.95565 0.29921 0.0
H1220 H 0.33892 0.77491 0.32475 0.0
H1221 H 0.38046 0.80663 0.30344 0.0
H1222 H 0.27174 0.7549 0.33101 0.0
H1223 H 0.23525 0.77339 0.34034 0.0
C1224 C 0.14874 0.5006 0.31382 0.0
C1225 C 0.10443 0.48403 0.30352 0.0
C1226 C 0.09067 0.40929 0.30665 0.0
C1227 C 0.13111 0.42389 0.32113 0.0
N1228 N 0.19845 0.48604 0.33914 0.0
N1229 N 0.02781 0.42193 0.29868 0.0
C1230 C 0.15974 0.47038 0.3253 0.0
C1231 C 0.07348 0.43816 0.30308 0.0
N1232 N 0.18114 0.54444 0.31141 0.0
N1233 N 0.07078 0.37042 0.29399 0.0
H1234 H 0.01368 0.44257 0.29719 0.0
H1235 H 0.0038 0.38811 0.29957 0.0
H1236 H 0.08653 0.35182 0.29105 0.0
H1237 H 0.04247 0.36091 0.28257 0.0
H1238 H 0.21544 0.55737 0.31638 0.0
H1239 H 0.17486 0.5673 0.30241 0.0
H1240 H 0.21695 0.51863 0.34537 0.0
H1241 H 0.21083 0.46585 0.34517 0.0
C1242 C 0.33063 0.43053 0.28581 0.0
C1243 C 0.36652 0.46605 0.29918 0.0
C1244 C 0.31141 0.44707 0.33276 0.0
C1245 C 0.27671 0.41229 0.31919 0.0
N1246 N 0.25054 0.39939 0.27793 0.0
N1247 N 0.39196 0.48638 0.34101 0.0
C1248 C 0.28528 0.41197 0.29416 0.0
C1249 C 0.35739 0.46891 0.32431 0.0
N1250 N 0.33952 0.40889 0.26786 0.0
N1251 N 0.29935 0.46574 0.35063 0.0
H1252 H 0.42463 0.49182 0.33674 0.0
H1253 H 0.38597 0.48843 0.35953 0.0
H1254 H 0.26475 0.45354 0.35412 0.0
H1255 H 0.32294 0.49541 0.35908 0.0
H1256 H 0.31312 0.38159 0.25882 0.0
H1257 H 0.37257 0.41423 0.26494 0.0
H1258 H 0.25598 0.40063 0.25908 0.0
H1259 H 0.21892 0.39487 0.28384 0.0
C1260 C 0.56485 0.9128 0.30527 0.0
C1261 C 0.5193 0.87993 0.29934 0.0
C1262 C 0.53395 0.82293 0.31649 0.0
C1263 C 0.58117 0.85471 0.31965 0.0
N1264 N 0.64278 0.92954 0.31254 0.0
N1265 N 0.46368 0.80235 0.29443 0.0
C1266 C 0.59693 0.89967 0.31292 0.0
C1267 C 0.50457 0.83462 0.30381 0.0
N1268 N 0.57745 0.95661 0.30385 0.0
N1269 N 0.51706 0.78117 0.32551 0.0
H1270 H 0.44275 0.80939 0.28346 0.0
H1271 H 0.45306 0.76868 0.29512 0.0
H1272 H 0.538 0.77183 0.33456 0.0
H1273 H 0.48211 0.75787 0.32637 0.0
H1274 H 0.60879 0.98199 0.31036 0.0
H1275 H 0.55498 0.96734 0.29811 0.0
H1276 H 0.65675 0.961 0.30477 0.0
H1277 H 0.66704 0.92167 0.31868 0.0
C1278 C 0.13255 0.65336 0.29485 0.0
C1279 C 0.0897 0.61724 0.30207 0.0
C1280 C 0.0836 0.66252 0.33449 0.0
C1281 C 0.12369 0.70019 0.32528 0.0
N1282 N 0.18311 0.73178 0.29439 0.0
N1283 N 0.02208 0.58685 0.32727 0.0
C1284 C 0.14706 0.69563 0.30479 0.0
C1285 C 0.06451 0.6216 0.32154 0.0
N1286 N 0.16087 0.64701 0.27943 0.0
N1287 N 0.06431 0.66563 0.35579 0.0
H1288 H 0.00762 0.55655 0.3181 0.0
H1289 H 0.99982 0.58897 0.3397 0.0
H1290 H 0.07739 0.69507 0.36557 0.0
H1291 H 0.0378 0.63855 0.36478 0.0
H1292 H 0.19497 0.67107 0.27615 0.0
H1293 H 0.15225 0.61655 0.27163 0.0
H1294 H 0.19627 0.73161 0.27718 0.0
H1295 H 0.1987 0.7623 0.30268 0.0
C1296 C 0.78721 0.03313 0.38698 0.0
C1297 C 0.82854 0.03748 0.39644 0.0
C1298 C 0.80953 0.96526 0.3793 0.0
C1299 C 0.76823 0.9611 0.36966 0.0
N1300 N 0.72405 0.99556 0.35876 0.0
N1301 N 0.88267 0.0115 0.39963 0.0
C1302 C 0.7587 -0.00378 0.37207 0.0
C1303 C 0.84081 0.00462 0.39199 0.0
N1304 N 0.77521 0.06442 0.39222 0.0
N1305 N 0.81821 0.93108 0.3768 0.0
H1306 H 0.9051 0.03866 0.41023 0.0
H1307 H 0.89636 0.99166 0.39464 0.0
H1308 H 0.79794 0.90336 0.3661 0.0
H1309 H 0.8443 0.9291 0.38595 0.0
H1310 H 0.74271 0.06009 0.38884 0.0
H1311 H 0.79692 0.09394 0.40126 0.0
H1312 H 0.71761 0.02181 0.3577 0.0
H1313 H 0.705 0.97037 0.34647 0.0
C1314 C 0.96647 0.75373 0.37511 0.0
C1315 C 0.96831 0.78242 0.39399 0.0
C1316 C 0.05256 0.82594 0.38958 0.0
C1317 C 0.05131 0.79504 0.37188 0.0
N1318 N 0.00669 0.72394 0.35239 0.0
N1319 N 0.01262 0.8442 0.4206 0.0
C1320 C 0.00806 0.7576 0.36581 0.0
C1321 C 0.01128 0.81822 0.40149 0.0
N1322 N 0.92482 0.72238 0.36608 0.0
N1323 N 0.09339 0.86232 0.39557 0.0
H1324 H 0.98316 0.84171 0.42849 0.0
H1325 H 0.0424 0.86671 0.42973 0.0
H1326 H 0.1243 0.86911 0.38789 0.0
H1327 H 0.09695 0.88786 0.40682 0.0
H1328 H 0.92125 0.70415 0.35034 0.0
H1329 H 0.89366 0.71693 0.37324 0.0
H1330 H 0.97706 0.69327 0.35004 0.0
H1331 H 0.03594 0.72562 0.34482 0.0
C1332 C 0.25214 0.20527 0.37691 0.0
C1333 C 0.22391 0.17691 0.39588 0.0
C1334 C 0.17606 0.21105 0.39462 0.0
C1335 C 0.20224 0.23757 0.37451 0.0
N1336 N 0.26034 0.25489 0.34376 0.0
N1337 N 0.15294 0.14481 0.41858 0.0
C1338 C 0.23859 0.23287 0.36465 0.0
C1339 C 0.18402 0.17739 0.40348 0.0
N1340 N 0.29293 0.20739 0.37144 0.0
N1341 N 0.14423 0.21851 0.40574 0.0
H1342 H 0.15735 0.11909 0.42526 0.0
H1343 H 0.12069 0.14071 0.42252 0.0
H1344 H 0.13595 0.24162 0.39937 0.0
H1345 H 0.12852 0.20409 0.42229 0.0
H1346 H 0.31724 0.23078 0.35959 0.0
H1347 H 0.30439 0.18814 0.38027 0.0
H1348 H 0.28321 0.2486 0.33414 0.0
H1349 H 0.25309 0.27728 0.33501 0.0
C1350 C 0.66496 0.51164 0.72257 0.0
C1351 C 0.63349 0.52687 0.72641 0.0
C1352 C 0.69176 0.60087 0.71263 0.0
C1353 C 0.72126 0.58392 0.70628 0.0
N1354 N 0.72946 0.51982 0.69959 0.0
N1355 N 0.61397 0.58427 0.72192 0.0
C1356 C 0.70547 0.53815 0.70921 0.0
C1357 C 0.64588 0.571 0.72034 0.0
N1358 N 0.65822 0.47342 0.73342 0.0
N1359 N 0.70801 0.6455 0.71219 0.0
H1360 H 0.58039 0.56316 0.72788 0.0
H1361 H 0.61976 0.61485 0.71554 0.0
H1362 H 0.74046 0.66824 0.70553 0.0
H1363 H 0.69014 0.66009 0.71952 0.0
H1364 H 0.68265 0.4633 0.733 0.0
H1365 H 0.63098 0.45461 0.74528 0.0
H1366 H 0.71672 0.4857 0.69899 0.0
H1367 H 0.75975 0.53851 0.69003 0.0
C1368 C 0.47937 0.15229 0.72941 0.0
C1369 C 0.48179 0.11372 0.72409 0.0
C1370 C 0.40928 0.08315 0.70112 0.0
C1371 C 0.40698 0.12228 0.70561 0.0
N1372 N 0.43242 0.18673 0.73141 0.0
N1373 N 0.45438 0.04635 0.70102 0.0
C1374 C 0.44057 0.15544 0.7214 0.0
C1375 C 0.44843 0.08048 0.70872 0.0
N1376 N 0.51428 0.18591 0.74231 0.0
N1377 N 0.37215 0.04671 0.69139 0.0
H1378 H 0.4813 0.0419 0.70696 0.0
H1379 H 0.43485 0.02457 0.68715 0.0
H1380 H 0.34314 0.04705 0.68502 0.0
H1381 H 0.36887 0.01535 0.69094 0.0
H1382 H 0.51767 0.21703 0.74476 0.0
H1383 H 0.54239 0.18403 0.74899 0.0
H1384 H 0.45336 0.21003 0.7443 0.0
H1385 H 0.40151 0.18611 0.72926 0.0
C1386 C 0.91114 0.37296 0.70647 0.0
C1387 C 0.9085 0.37716 0.73207 0.0
C1388 C 0.87279 0.29657 0.73564 0.0
C1389 C 0.87073 0.2923 0.70959 0.0
N1390 N 0.86156 0.32858 0.67453 0.0
N1391 N 0.86995 0.33943 0.76943 0.0
C1392 C 0.88329 0.33105 0.69577 0.0
C1393 C 0.88502 0.33807 0.7464 0.0
N1394 N 0.93813 0.40879 0.69215 0.0
N1395 N 0.86003 0.26096 0.75044 0.0
H1396 H 0.87303 0.36804 0.77721 0.0
H1397 H 0.84891 0.31101 0.77959 0.0
H1398 H 0.84039 0.22896 0.74423 0.0
H1399 H 0.8682 0.26387 0.769 0.0
H1400 H 0.94102 0.40575 0.67334 0.0
H1401 H 0.96062 0.43998 0.69943 0.0
H1402 H 0.86894 0.3565 0.66409 0.0
H1403 H 0.82896 0.30142 0.67198 0.0
C1404 C 0.17732 0.99259 0.62393 0.0
C1405 C 0.17385 0.9531 0.63338 0.0
C1406 C 0.22801 0.99527 0.66604 0.0
C1407 C 0.23539 0.03536 0.65509 0.0
N1408 N 0.22089 0.0727 0.62183 0.0
N1409 N 0.20168 0.91717 0.66059 0.0
C1410 C 0.2113 0.03419 0.63344 0.0
C1411 C 0.20064 0.95447 0.65373 0.0
N1412 N 0.1469 0.99023 0.60654 0.0
N1413 N 0.24699 -0.00408 0.68822 0.0
H1414 H 0.18281 0.88675 0.65176 0.0
H1415 H 0.22446 0.91722 0.67353 0.0
H1416 H 0.26904 0.02503 0.69737 0.0
H1417 H 0.23811 0.96746 0.69842 0.0
H1418 H 0.14431 0.01746 0.60085 0.0
H1419 H 0.12123 0.9603 0.59931 0.0
H1420 H 0.2088 0.07365 0.60443 0.0
H1421 H 0.24331 0.10409 0.62878 0.0
C1422 C 0.99474 0.17087 0.63843 0.0
C1423 C 0.03505 0.21285 0.63791 0.0
C1424 C 0.99361 0.24558 0.65814 0.0
C1425 C 0.95317 0.203 0.65967 0.0
N1426 N 0.92271 0.1235 0.65806 0.0
N1427 N 0.07627 0.28837 0.65196 0.0
C1428 C 0.95588 0.16514 0.65185 0.0
C1429 C 0.03554 0.2496 0.64931 0.0
N1430 N 0.99295 0.13641 0.62557 0.0
N1431 N 0.99196 0.28255 0.66487 0.0
H1432 H 0.10737 0.29292 0.64517 0.0
H1433 H 0.07998 0.31467 0.66266 0.0
H1434 H 0.96373 0.2812 0.67365 0.0
H1435 H 0.01807 0.31472 0.66105 0.0
H1436 H 0.96248 0.10668 0.62254 0.0
H1437 H 0.0212 0.13875 0.61627 0.0
H1438 H 0.92543 0.09533 0.65513 0.0
H1439 H 0.89539 0.11768 0.66898 0.0
C1440 C 0.74654 0.77689 0.63748 0.0
C1441 C 0.7827 0.82065 0.63416 0.0
C1442 C 0.83578 0.80109 0.65379 0.0
C1443 C 0.80013 0.75559 0.65409 0.0
N1444 N 0.72876 0.702 0.63395 0.0
N1445 N 0.86327 0.87479 0.63674 0.0
C1446 C 0.75731 0.74363 0.64264 0.0
C1447 C 0.82785 0.83313 0.64186 0.0
N1448 N 0.7018 0.76671 0.63516 0.0
N1449 N 0.87787 0.81344 0.66361 0.0
H1450 H 0.85846 0.89883 0.62803 0.0
H1451 H 0.89777 0.88479 0.63951 0.0
H1452 H 0.88766 0.79086 0.66927 0.0
H1453 H 0.90302 0.84628 0.66664 0.0
H1454 H 0.67426 0.73531 0.63923 0.0
H1455 H 0.6925 0.79074 0.63195 0.0
H1456 H 0.69802 0.69331 0.62495 0.0
H1457 H 0.73978 0.67963 0.63045 0.0
C1458 C 0.98883 0.79641 0.62832 0.0
C1459 C 0.03199 0.80336 0.63636 0.0
C1460 C 0.99358 0.73959 0.66413 0.0
C1461 C 0.95006 0.73417 0.65768 0.0
N1462 N 0.90631 0.75613 0.63177 0.0
N1463 N 0.07644 0.78676 0.6646 0.0
C1464 C 0.94782 0.76262 0.63943 0.0
C1465 C 0.03461 0.77677 0.65523 0.0
N1466 N 0.98712 0.82108 0.60921 0.0
N1467 N 0.99579 0.70732 0.67728 0.0
H1468 H 0.10746 0.81216 0.65773 0.0
H1469 H 0.08017 0.77203 0.68036 0.0
H1470 H 0.96678 0.6795 0.68415 0.0
H1471 H 0.02605 0.70645 0.67991 0.0
H1472 H 0.95738 0.81404 0.59973 0.0
H1473 H 0.01625 0.84818 0.60181 0.0
H1474 H 0.90158 0.77863 0.62144 0.0
H1475 H 0.87578 0.72825 0.63626 0.0
C1476 C 0.22905 0.25813 0.64552 0.0
C1477 C 0.18923 0.22121 0.63575 0.0
C1478 C 0.21496 0.17183 0.65244 0.0
C1479 C 0.25861 0.20881 0.65879 0.0
N1480 N 0.30673 0.28866 0.66094 0.0
N1481 N 0.14768 0.1432 0.62649 0.0
C1482 C 0.26538 0.25241 0.65518 0.0
C1483 C 0.18323 0.17821 0.63824 0.0
N1484 N 0.23164 0.29857 0.64614 0.0
N1485 N 0.2022 0.13062 0.66092 0.0
H1486 H 0.12334 0.14624 0.61608 0.0
H1487 H 0.14491 0.11209 0.62518 0.0
H1488 H 0.22202 0.12545 0.67329 0.0
H1489 H 0.16935 0.1033 0.65879 0.0
H1490 H 0.25715 0.32584 0.65547 0.0
H1491 H 0.20605 0.30397 0.63896 0.0
H1492 H 0.31621 0.3208 0.65553 0.0
H1493 H 0.33242 0.28662 0.67057 0.0
C1494 C 0.74381 0.95423 0.65429 0.0
C1495 C 0.76709 0.95436 0.63269 0.0
C1496 C 0.81338 0.03508 0.6339 0.0
C1497 C 0.79301 0.03511 0.65677 0.0
N1498 N 0.74361 0.99376 0.69058 0.0
N1499 N 0.83214 0.99337 0.60569 0.0
C1500 C 0.75978 0.99437 0.66761 0.0
C1501 C 0.80393 0.99433 0.62344 0.0
N1502 N 0.70577 0.91592 0.66167 0.0
N1503 N 0.84218 0.0738 0.622 0.0
H1504 H 0.82787 0.96416 0.59805 0.0
H1505 H 0.86278 0.02121 0.60037 0.0
H1506 H 0.85505 0.10514 0.62957 0.0
H1507 H 0.85157 0.07488 0.60375 0.0
H1508 H 0.68441 0.9144 0.67587 0.0
H1509 H 0.69322 0.88609 0.65219 0.0
H1510 H 0.72354 0.96475 0.70046 0.0
H1511 H 0.75285 0.02231 0.70063 0.0
C1512 C 0.44822 0.35583 0.73005 0.0
C1513 C 0.49591 0.37581 0.72593 0.0
C1514 C 0.48244 0.30689 0.70563 0.0
C1515 C 0.43463 0.28694 0.71129 0.0
N1516 N 0.38486 0.28761 0.74322 0.0
N1517 N 0.55942 0.3712 0.70832 0.0
C1518 C 0.42056 0.30979 0.72744 0.0
C1519 C 0.51343 0.35172 0.71308 0.0
N1520 N 0.429 0.38072 0.73664 0.0
N1521 N 0.49897 0.28119 0.69627 0.0
H1522 H 0.58373 0.40094 0.7161 0.0
H1523 H 0.5739 0.35892 0.69605 0.0
H1524 H 0.47902 0.24686 0.69492 0.0
H1525 H 0.53327 0.29228 0.69229 0.0
H1526 H 0.39356 0.36703 0.73879 0.0
H1527 H 0.44786 0.4153 0.73668 0.0
H1528 H 0.3752 0.30383 0.75588 0.0
H1529 H 0.37244 0.25449 0.74746 0.0
C1530 C 0.63144 0.07793 0.70872 0.0
C1531 C 0.6308 0.11089 0.72353 0.0
C1532 C 0.71407 0.1581 0.71772 0.0
C1533 C 0.71607 0.1232 0.70495 0.0
N1534 N 0.67577 0.04614 0.69294 0.0
N1535 N 0.672 0.18032 0.74481 0.0
C1536 C 0.67438 0.08212 0.70173 0.0
C1537 C 0.67218 0.15059 0.72852 0.0
N1538 N 0.5909 0.04253 0.7012 0.0
N1539 N 0.75242 0.19836 0.72042 0.0
H1540 H 0.64196 0.17724 0.75227 0.0
H1541 H 0.7017 0.20644 0.75233 0.0
H1542 H 0.7845 0.20324 0.71674 0.0
H1543 H 0.75217 0.22696 0.72571 0.0
H1544 H 0.58904 0.02008 0.68805 0.0
H1545 H 0.55893 0.03787 0.70646 0.0
H1546 H 0.64759 0.01408 0.69318 0.0
H1547 H 0.7057 0.04804 0.68626 0.0
C1548 C 0.86084 0.51434 0.73971 0.0
C1549 C 0.90207 0.51679 0.73173 0.0
C1550 C 0.90942 0.56782 0.69889 0.0
C1551 C 0.87088 0.56926 0.70841 0.0
N1552 N 0.81155 0.54608 0.73914 0.0
N1553 N 0.96908 0.54914 0.70589 0.0
C1554 C 0.84707 0.5431 0.72918 0.0
C1555 C 0.92727 0.54434 0.71185 0.0
N1556 N 0.83403 0.48342 0.75682 0.0
N1557 N 0.9286 0.5883 0.67727 0.0
H1558 H 0.98305 0.53211 0.71485 0.0
H1559 H 0.99166 0.57255 0.69344 0.0
H1560 H 0.91705 0.60644 0.66753 0.0
H1561 H 0.95334 0.58436 0.66795 0.0
H1562 H 0.80082 0.47614 0.76124 0.0
H1563 H 0.84346 0.46235 0.76537 0.0
H1564 H 0.79729 0.5333 0.75619 0.0
H1565 H 0.79748 0.56306 0.73069 0.0
C1566 C 0.47638 0.91283 0.20734 0.0
C1567 C 0.46308 0.93087 0.22698 0.0
C1568 C 0.45965 0.98296 0.19787 0.0
C1569 C 0.48273 0.97196 0.18002 0.0
N1570 N 0.51605 0.92721 0.16842 0.0
N1571 N 0.4517 0.99068 0.24098 0.0
C1572 C 0.49156 0.93674 0.18479 0.0
C1573 C 0.45672 0.96767 0.22222 0.0
N1574 N 0.47337 0.87244 0.20992 0.0
N1575 N 0.44092 0.00853 0.19161 0.0
H1576 H 0.4546 0.98415 0.25926 0.0
H1577 H 0.45067 0.01983 0.23834 0.0
H1578 H 0.4419 0.01957 0.17375 0.0
H1579 H 0.42021 0.0143 0.20348 0.0
H1580 H 0.47893 0.85608 0.19556 0.0
H1581 H 0.46047 0.8532 0.22568 0.0
H1582 H 0.52776 0.9052 0.17221 0.0
H1583 H 0.52755 0.9437 0.15177 0.0
C1584 C 0.0608 0.55507 0.21032 0.0
C1585 C 0.04622 0.52038 0.22788 0.0
C1586 C 0.00318 0.46682 0.1956 0.0
C1587 C 0.00833 0.5017 0.18033 0.0
N1588 N 0.04026 0.58032 0.17372 0.0
N1589 N 0.99518 0.44249 0.23729 0.0
C1590 C 0.03701 0.54634 0.1877 0.0
C1591 C 0.01565 0.47583 0.2205 0.0
N1592 N 0.09814 0.59577 0.21483 0.0
N1593 N 0.98576 0.42502 0.18641 0.0
H1594 H 0.99826 0.44807 0.25603 0.0
H1595 H 0.97033 0.41022 0.23263 0.0
H1596 H 0.97677 0.41771 0.16804 0.0
H1597 H 0.98525 0.39922 0.19639 0.0
H1598 H 0.11212 0.62101 0.2018 0.0
H1599 H 0.11826 0.60246 0.23048 0.0
H1600 H 0.05679 0.61312 0.1797 0.0
H1601 H 0.0235 0.57536 0.15699 0.0
C1602 C 0.45832 0.474 0.21988 0.0
C1603 C 0.46541 0.51708 0.22471 0.0
C1604 C 0.49884 0.54104 0.184 0.0
C1605 C 0.48853 0.49694 0.17892 0.0
N1606 N 0.44221 0.41927 0.18872 0.0
N1607 N 0.47982 0.5875 0.20858 0.0
C1608 C 0.46247 0.46263 0.19572 0.0
C1609 C 0.48151 0.54937 0.20582 0.0
N1610 N 0.45154 0.44508 0.23845 0.0
N1611 N 0.52702 0.57524 0.16891 0.0
H1612 H 0.46611 0.59389 0.22413 0.0
H1613 H 0.4876 0.61038 0.19451 0.0
H1614 H 0.54171 0.57097 0.15314 0.0
H1615 H 0.53901 0.60837 0.17325 0.0
H1616 H 0.44961 0.4146 0.23555 0.0
H1617 H 0.45373 0.45363 0.25684 0.0
H1618 H 0.41979 0.39326 0.20005 0.0
H1619 H 0.44382 0.40995 0.17078 0.0
C1620 C 0.02015 0.50196 0.80722 0.0
C1621 C 0.97252 0.48261 0.80243 0.0
C1622 C 0.95853 0.49633 0.84455 0.0
C1623 C 0.00649 0.51644 0.84926 0.0
N1624 N 0.07985 0.52522 0.83795 0.0
N1625 N 0.89502 0.44894 0.81787 0.0
C1626 C 0.0363 0.51485 0.83148 0.0
C1627 C 0.94123 0.47552 0.82163 0.0
N1628 N 0.05017 0.50999 0.78847 0.0
N1629 N 0.92995 0.4995 0.86118 0.0
H1630 H 0.88131 0.43354 0.80117 0.0
H1631 H 0.87075 0.43879 0.83183 0.0
H1632 H 0.94106 0.51506 0.87806 0.0
H1633 H 0.89573 0.48967 0.85754 0.0
H1634 H 0.08574 0.52872 0.79045 0.0
H1635 H 0.03949 0.50044 0.77049 0.0
H1636 H 0.10187 0.52085 0.82638 0.0
H1637 H 0.0922 0.53391 0.85577 0.0
C1638 C 0.57489 0.491 0.81908 0.0
C1639 C 0.53809 0.46948 0.80201 0.0
C1640 C 0.48393 0.4579 0.83503 0.0
C1641 C 0.52049 0.48843 0.84978 0.0
N1642 N 0.60199 0.5357 0.85589 0.0
N1643 N 0.45711 0.44107 0.79368 0.0
C1644 C 0.56651 0.50525 0.84195 0.0
C1645 C 0.49227 0.45445 0.81004 0.0
N1646 N 0.61725 0.49667 0.81379 0.0
N1647 N 0.44091 0.43335 0.84471 0.0
H1648 H 0.46239 0.44433 0.77492 0.0
H1649 H 0.42384 0.43281 0.79877 0.0
H1650 H 0.43401 0.43543 0.86311 0.0
H1651 H 0.4138 0.40777 0.83512 0.0
H1652 H 0.64427 0.50932 0.8263 0.0
H1653 H 0.62376 0.48422 0.7979 0.0
H1654 H 0.63592 0.55279 0.84977 0.0
H1655 H 0.59688 0.54561 0.87303 0.0
C1656 C 0.48924 0.01937 0.80292 0.0
C1657 C 0.52973 0.06052 0.79809 0.0
C1658 C 0.55636 0.06069 0.84014 0.0
C1659 C 0.51488 0.02056 0.84506 0.0
N1660 N 0.43678 0.96921 0.83352 0.0
N1661 N 0.59623 0.12559 0.81406 0.0
C1662 C 0.47963 0.00255 0.8272 0.0
C1663 C 0.5616 0.08286 0.81735 0.0
N1664 N 0.46134 0.9947 0.78414 0.0
N1665 N 0.59146 0.07669 0.85672 0.0
H1666 H 0.60043 0.1431 0.79787 0.0
H1667 H 0.61798 0.145 0.82807 0.0
H1668 H 0.58855 0.06188 0.87371 0.0
H1669 H 0.62438 0.10282 0.85299 0.0
H1670 H 0.43411 0.96245 0.78641 0.0
H1671 H 0.46801 0.0044 0.76588 0.0
H1672 H 0.40845 0.95761 0.82194 0.0
H1673 H 0.42858 0.95646 0.85125 0.0
C1674 C 0.14871 0.25134 0.5426 0.0
C1675 C 0.12991 0.26514 0.56175 0.0
C1676 C 0.11915 0.31212 0.53214 0.0
C1677 C 0.14726 0.30641 0.51502 0.0
N1678 N 0.19276 0.2726 0.50494 0.0
N1679 N 0.10788 0.3185 0.57495 0.0
C1680 C 0.16296 0.27628 0.52039 0.0
C1681 C 0.11752 0.29792 0.55656 0.0
N1682 N 0.15156 0.21378 0.54516 0.0
N1683 N 0.09458 0.33185 0.52516 0.0
H1684 H 0.11178 0.31362 0.59339 0.0
H1685 H 0.10193 0.34476 0.57181 0.0
H1686 H 0.09458 0.34195 0.50717 0.0
H1687 H 0.07056 0.33341 0.53656 0.0
H1688 H 0.16169 0.20056 0.53101 0.0
H1689 H 0.13888 0.19319 0.56045 0.0
H1690 H 0.20906 0.25472 0.50938 0.0
H1691 H 0.20379 0.2901 0.48854 0.0
C1692 C 0.6903 0.80947 0.55238 0.0
C1693 C 0.72034 0.85454 0.55912 0.0
C1694 C 0.70467 0.87799 0.51965 0.0
C1695 C 0.67788 0.83299 0.51247 0.0
N1696 N 0.65954 0.75744 0.51886 0.0
N1697 N 0.76781 0.93001 0.54478 0.0
C1698 C 0.67575 0.79926 0.52777 0.0
C1699 C 0.7312 0.8884 0.5414 0.0
N1700 N 0.67237 0.77659 0.56956 0.0
N1701 N 0.70358 0.91073 0.5064 0.0
H1702 H 0.79041 0.93795 0.55943 0.0
H1703 H 0.77884 0.95481 0.53153 0.0
H1704 H 0.68419 0.9046 0.49051 0.0
H1705 H 0.71878 0.94343 0.51247 0.0
H1706 H 0.64796 0.74389 0.5654 0.0
H1707 H 0.67695 0.78275 0.58824 0.0
H1708 H 0.66127 0.7327 0.52878 0.0
H1709 H 0.64927 0.7492 0.5007 0.0
C1710 C 0.15959 0.82799 0.55963 0.0
C1711 C 0.13423 0.85021 0.56248 0.0
C1712 C 0.12183 0.84767 0.51818 0.0
C1713 C 0.14846 0.82654 0.51526 0.0
N1714 N 0.20282 0.80783 0.53225 0.0
N1715 N 0.10065 0.89068 0.54441 0.0
C1716 C 0.17056 0.82029 0.53575 0.0
C1717 C 0.11863 0.86335 0.54169 0.0
N1718 N 0.17223 0.81325 0.57974 0.0
N1719 N 0.09713 0.8502 0.49899 0.0
H1720 H 0.09608 0.90141 0.56142 0.0
H1721 H 0.09381 0.90562 0.52973 0.0
H1722 H 0.09742 0.83832 0.48157 0.0
H1723 H 0.07324 0.86079 0.50077 0.0
H1724 H 0.18572 0.7921 0.57872 0.0
H1725 H 0.16625 0.8196 0.59759 0.0
H1726 H 0.22312 0.80649 0.54625 0.0
H1727 H 0.21257 0.80319 0.51489 0.0
C1728 C 0.59006 0.79478 0.15494 0.0
C1729 C 0.62172 0.80678 0.13531 0.0
C1730 C 0.68602 0.84424 0.16397 0.0
C1731 C 0.65458 0.83988 0.18247 0.0
N1732 N 0.57664 0.80889 0.19677 0.0
N1733 N 0.6998 0.8414 0.12069 0.0
C1734 C 0.60647 0.81363 0.17848 0.0
C1735 C 0.66977 0.83046 0.13978 0.0
N1736 N 0.54442 0.76585 0.15091 0.0
N1737 N 0.73142 0.86156 0.16974 0.0
H1738 H 0.68916 0.83009 0.10291 0.0
H1739 H 0.73498 0.86334 0.12215 0.0
H1740 H 0.74383 0.87139 0.18747 0.0
H1741 H 0.75582 0.86236 0.15772 0.0
H1742 H 0.52 0.75227 0.16477 0.0
H1743 H 0.53136 0.75262 0.13372 0.0
H1744 H 0.5413 0.79456 0.19441 0.0
H1745 H 0.58757 0.82107 0.21437 0.0
C1746 C 0.24114 0.82796 0.15279 0.0
C1747 C 0.20446 0.80616 0.1357 0.0
C1748 C 0.1509 0.80184 0.16746 0.0
C1749 C 0.18814 0.83243 0.18191 0.0
N1750 N 0.27013 0.87702 0.18782 0.0
N1751 N 0.12431 0.78049 0.12625 0.0
C1752 C 0.2338 0.84597 0.17458 0.0
C1753 C 0.15908 0.79464 0.14296 0.0
N1754 N 0.28239 0.83025 0.14866 0.0
N1755 N 0.10759 0.78012 0.17705 0.0
H1756 H 0.12925 0.77967 0.10752 0.0
H1757 H 0.09168 0.77499 0.13069 0.0
H1758 H 0.1008 0.78456 0.19513 0.0
H1759 H 0.07984 0.75437 0.16791 0.0
H1760 H 0.30903 0.84285 0.16139 0.0
H1761 H 0.28803 0.815 0.13372 0.0
H1762 H 0.30404 0.8917 0.18176 0.0
H1763 H 0.26601 0.89025 0.20407 0.0
C1764 C 0.23334 0.41115 0.1553 0.0
C1765 C 0.20196 0.3915 0.13551 0.0
C1766 C 0.14929 0.3319 0.16305 0.0
C1767 C 0.18386 0.34693 0.18123 0.0
N1768 N 0.26119 0.39943 0.19399 0.0
N1769 N 0.13335 0.3278 0.11984 0.0
C1770 C 0.22654 0.38641 0.17728 0.0
C1771 C 0.16059 0.35056 0.13924 0.0
N1772 N 0.26879 0.45384 0.15341 0.0
N1773 N 0.10541 0.29978 0.16861 0.0
H1774 H 0.14165 0.33849 0.1018 0.0
H1775 H 0.10519 0.29588 0.1214 0.0
H1776 H 0.09587 0.28591 0.18604 0.0
H1777 H 0.07781 0.29055 0.15673 0.0
H1778 H 0.29019 0.47121 0.16799 0.0
H1779 H 0.27396 0.47344 0.13798 0.0
H1780 H 0.29464 0.42504 0.19079 0.0
H1781 H 0.25738 0.38254 0.21035 0.0
C1782 C 0.82987 0.64587 0.89099 0.0
C1783 C 0.80354 0.59916 0.89405 0.0
C1784 C 0.78491 0.59067 0.85006 0.0
C1785 C 0.81007 0.63755 0.84723 0.0
N1786 N 0.86684 0.70839 0.86301 0.0
N1787 N 0.76562 0.52657 0.87587 0.0
C1788 C 0.8361 0.66459 0.86712 0.0
C1789 C 0.78437 0.57138 0.87329 0.0
N1790 N 0.84719 0.67253 0.91107 0.0
N1791 N 0.75957 0.5648 0.83093 0.0
H1792 H 0.76413 0.51165 0.89267 0.0
H1793 H 0.75503 0.50462 0.86122 0.0
H1794 H 0.7604 0.57771 0.81361 0.0
H1795 H 0.7362 0.53101 0.83242 0.0
H1796 H 0.86162 0.70683 0.91049 0.0
H1797 H 0.84467 0.66011 0.92871 0.0
H1798 H 0.88993 0.72941 0.8761 0.0
H1799 H 0.87223 0.72261 0.84564 0.0
C1800 C 0.34606 0.19312 0.88714 0.0
C1801 C 0.38796 0.19408 0.89252 0.0
C1802 C 0.38729 0.16415 0.85197 0.0
C1803 C 0.34626 0.16469 0.84658 0.0
N1804 N 0.29607 0.19361 0.85546 0.0
N1805 N 0.45494 0.19268 0.87772 0.0
C1806 C 0.32896 0.18405 0.86299 0.0
C1807 C 0.41075 0.18349 0.87414 0.0
N1808 N 0.32071 0.19756 0.90529 0.0
N1809 N 0.40277 0.14371 0.8365 0.0
H1810 H 0.47353 0.2081 0.8935 0.0
H1811 H 0.47459 0.18913 0.86414 0.0
H1812 H 0.3868 0.12973 0.81992 0.0
H1813 H 0.42955 0.13798 0.84089 0.0
H1814 H 0.28783 0.19273 0.90243 0.0
H1815 H 0.33006 0.20135 0.92366 0.0
H1816 H 0.28545 0.2117 0.86606 0.0
H1817 H 0.28314 0.18763 0.83766 0.0
C1818 C 0.77857 0.18965 0.87502 0.0
C1819 C 0.79662 0.17822 0.89545 0.0
C1820 C 0.8298 0.14599 0.86812 0.0
C1821 C 0.80557 0.15079 0.84822 0.0
N1822 N 0.75443 0.17505 0.83261 0.0
N1823 N 0.83624 0.14225 0.91201 0.0
C1824 C 0.77972 0.17261 0.85152 0.0
C1825 C 0.82163 0.15572 0.89214 0.0
N1826 N 0.76068 0.21698 0.87809 0.0
N1827 N 0.8615 0.13306 0.86391 0.0
H1828 H 0.83196 0.14959 0.92995 0.0
H1829 H 0.84957 0.12099 0.9108 0.0
H1830 H 0.86904 0.12661 0.84641 0.0
H1831 H 0.88353 0.13308 0.87733 0.0
H1832 H 0.75153 0.23047 0.86362 0.0
H1833 H 0.7585 0.22915 0.89515 0.0
H1834 H 0.73103 0.18618 0.83457 0.0
H1835 H 0.75426 0.16298 0.81517 0.0
C1836 C 0.32125 0.18362 0.47459 0.0
C1837 C 0.28576 0.13959 0.46939 0.0
C1838 C 0.29458 0.11679 0.51049 0.0
C1839 C 0.32724 0.16155 0.51599 0.0
N1840 N 0.35804 0.23878 0.50612 0.0
N1841 N 0.22919 0.06797 0.48549 0.0
C1842 C 0.33589 0.1954 0.49899 0.0
C1843 C 0.2694 0.10716 0.48829 0.0
N1844 N 0.34344 0.21349 0.45624 0.0
N1845 N 0.28874 0.08336 0.52581 0.0
H1846 H 0.20829 0.06083 0.47011 0.0
H1847 H 0.21415 0.04487 0.49955 0.0
H1848 H 0.30685 0.08892 0.54214 0.0
H1849 H 0.26878 0.04994 0.52123 0.0
H1850 H 0.37171 0.24485 0.45941 0.0
H1851 H 0.33757 0.20529 0.43778 0.0
H1852 H 0.36139 0.26429 0.49473 0.0
H1853 H 0.36829 0.24838 0.52416 0.0
C1854 C 0.82876 0.12299 0.47781 0.0
C1855 C 0.87435 0.13564 0.47038 0.0
C1856 C 0.90309 0.1738 0.50968 0.0
C1857 C 0.8572 0.1586 0.51717 0.0
N1858 N 0.77691 0.10545 0.51198 0.0
N1859 N 0.95283 0.16115 0.48294 0.0
C1860 C 0.82028 0.12831 0.50249 0.0
C1861 C 0.91104 0.1574 0.48748 0.0
N1862 N 0.79408 0.10977 0.46113 0.0
N1863 N 0.93891 0.20476 0.52324 0.0
H1864 H 0.95899 0.14704 0.46764 0.0
H1865 H 0.97956 0.17387 0.49562 0.0
H1866 H 0.93418 0.2166 0.53985 0.0
H1867 H 0.97288 0.22063 0.51716 0.0
H1868 H 0.76125 0.10349 0.46577 0.0
H1869 H 0.79943 0.11088 0.44237 0.0
H1870 H 0.74947 0.08001 0.50249 0.0
H1871 H 0.76979 0.10866 0.53019 0.0
C1872 C 0.90031 0.74299 0.48745 0.0
C1873 C 0.86661 0.72434 0.46858 0.0
C1874 C 0.81322 0.66936 0.49799 0.0
C1875 C 0.8493 0.68265 0.51517 0.0
N1876 N 0.92935 0.72997 0.52535 0.0
N1877 N 0.79339 0.66354 0.45524 0.0
C1878 C 0.89349 0.71909 0.50974 0.0
C1879 C 0.82352 0.686 0.47371 0.0
N1880 N 0.93799 0.78415 0.48449 0.0
N1881 N 0.76891 0.64085 0.50492 0.0
H1882 H 0.80067 0.67245 0.4369 0.0
H1883 H 0.76343 0.63319 0.45784 0.0
H1884 H 0.76016 0.62859 0.52271 0.0
H1885 H 0.74074 0.63337 0.49379 0.0
H1886 H 0.96156 0.80088 0.49842 0.0
H1887 H 0.94311 0.80358 0.46901 0.0
H1888 H 0.96334 0.7529 0.52098 0.0
H1889 H 0.92559 0.7137 0.54194 0.0
loop_
_geom_bond_atom_site_label_1
_geom_bond_atom_site_label_2
_geom_bond_distance
_geom_bond_site_symmetry_2
_ccdc_geom_bond_type
H0 C3 0.931 . S
H1 C6 0.928 . S
H2 C8 0.930 . S
C3 H0 0.931 . S
C3 C4 1.413 . S
C3 C5 1.360 . S
C4 C3 1.413 . S
C4 C8 1.429 . S
C5 C3 1.360 . S
C5 C6 1.372 . S
C6 H1 0.928 . S
C6 C5 1.372 . S
C6 C7 1.404 . S
C7 C6 1.404 . S
C7 C8 1.391 . S
C8 H2 0.930 . S
C8 C4 1.429 . S
C8 C7 1.391 . S
H9 C12 0.931 . S
H10 C15 0.928 . S
H11 C17 0.930 . S
C12 H9 0.931 . S
C12 C13 1.413 . S
C12 C14 1.360 . S
C13 C12 1.413 . S
C13 C17 1.429 . S
C14 C12 1.360 . S
C14 C15 1.372 . S
C15 H10 0.928 . S
C15 C14 1.372 . S
C15 C16 1.404 . S
C16 C15 1.404 . S
C16 C17 1.391 . S
C17 H11 0.930 . S
C17 C13 1.429 . S
C17 C16 1.391 . S
H18 C21 0.931 . S
H19 C24 0.928 . S
H20 C26 0.930 . S
C21 H18 0.931 . S
C21 C22 1.413 . S
C21 C23 1.360 . S
C22 C21 1.413 . S
C22 C26 1.429 . S
C23 C21 1.360 . S
C23 C24 1.372 . S
C24 H19 0.928 . S
C24 C23 1.372 . S
C24 C25 1.404 . S
C25 C24 1.404 . S
C25 C26 1.391 . S
C26 H20 0.930 . S
C26 C22 1.429 . S
C26 C25 1.391 . S
H27 C30 0.931 . S
H28 C33 0.928 . S
H29 C35 0.930 . S
C30 H27 0.931 . S
C30 C31 1.413 . S
C30 C32 1.360 . S
C31 C30 1.413 . S
C31 C35 1.429 . S
C32 C30 1.360 . S
C32 C33 1.372 . S
C33 H28 0.928 . S
C33 C32 1.372 . S
C33 C34 1.404 . S
C34 C33 1.404 . S
C34 C35 1.391 . S
C35 H29 0.930 . S
C35 C31 1.429 . S
C35 C34 1.391 . S
H36 C39 0.931 . S
H37 C42 0.928 . S
H38 C44 0.930 . S
C39 H36 0.931 . S
C39 C40 1.413 . S
C39 C41 1.360 . S
C40 C39 1.413 . S
C40 C44 1.429 . S
C41 C39 1.360 . S
C41 C42 1.372 . S
C42 H37 0.928 . S
C42 C41 1.372 . S
C42 C43 1.404 . S
C43 C42 1.404 . S
C43 C44 1.391 . S
C44 H38 0.930 . S
C44 C40 1.429 . S
C44 C43 1.391 . S
H45 C48 0.931 . S
H46 C51 0.928 . S
H47 C53 0.930 . S
C48 H45 0.931 . S
C48 C49 1.413 . S
C48 C50 1.360 . S
C49 C48 1.413 . S
C49 C53 1.429 . S
C50 C48 1.360 . S
C50 C51 1.372 . S
C51 H46 0.928 . S
C51 C50 1.372 . S
C51 C52 1.404 . S
C52 C51 1.404 . S
C52 C53 1.391 . S
C53 H47 0.930 . S
C53 C49 1.429 . S
C53 C52 1.391 . S
H54 C57 0.931 . S
H55 C60 0.928 . S
H56 C62 0.930 . S
C57 H54 0.931 . S
C57 C58 1.413 . S
C57 C59 1.360 . S
C58 C57 1.413 . S
C58 C62 1.429 . S
C59 C57 1.360 . S
C59 C60 1.372 . S
C60 H55 0.928 . S
C60 C59 1.372 . S
C60 C61 1.404 . S
C61 C60 1.404 . S
C61 C62 1.391 . S
C62 H56 0.930 . S
C62 C58 1.429 . S
C62 C61 1.391 . S
H63 C66 0.931 . S
H64 C69 0.928 . S
H65 C71 0.930 . S
C66 H63 0.931 . S
C66 C67 1.413 . S
C66 C68 1.360 . S
C67 C66 1.413 . S
C67 C71 1.429 . S
C68 C66 1.360 . S
C68 C69 1.372 . S
C69 H64 0.928 . S
C69 C68 1.372 . S
C69 C70 1.404 . S
C70 C69 1.404 . S
C70 C71 1.391 . S
C71 H65 0.930 . S
C71 C67 1.429 . S
C71 C70 1.391 . S
H72 C75 0.931 . S
H73 C78 0.928 . S
H74 C80 0.930 . S
C75 H72 0.931 . S
C75 C76 1.413 . S
C75 C77 1.360 . S
C76 C75 1.413 . S
C76 C80 1.429 . S
C77 C75 1.360 . S
C77 C78 1.372 . S
C78 H73 0.928 . S
C78 C77 1.372 . S
C78 C79 1.404 . S
C79 C78 1.404 . S
C79 C80 1.391 . S
C80 H74 0.930 . S
C80 C76 1.429 . S
C80 C79 1.391 . S
H81 C84 0.931 . S
H82 C87 0.928 . S
H83 C89 0.930 . S
C84 H81 0.931 . S
C84 C85 1.413 . S
C84 C86 1.360 . S
C85 C84 1.413 . S
C85 C89 1.429 . S
C86 C84 1.360 . S
C86 C87 1.372 . S
C87 H82 0.928 . S
C87 C86 1.372 . S
C87 C88 1.404 . S
C88 C87 1.404 . S
C88 C89 1.391 . S
C89 H83 0.930 . S
C89 C85 1.429 . S
C89 C88 1.391 . S
H90 C93 0.931 . S
H91 C96 0.928 . S
H92 C98 0.930 . S
C93 H90 0.931 . S
C93 C94 1.413 . S
C93 C95 1.360 . S
C94 C93 1.413 . S
C94 C98 1.429 . S
C95 C93 1.360 . S
C95 C96 1.372 . S
C96 H91 0.928 . S
C96 C95 1.372 . S
C96 C97 1.404 . S
C97 C96 1.404 . S
C97 C98 1.391 . S
C98 H92 0.930 . S
C98 C94 1.429 . S
C98 C97 1.391 . S
H99 C102 0.931 . S
H100 C105 0.928 . S
H101 C107 0.930 . S
C102 H99 0.931 . S
C102 C103 1.413 . S
C102 C104 1.360 . S
C103 C102 1.413 . S
C103 C107 1.429 . S
C104 C102 1.360 . S
C104 C105 1.372 . S
C105 H100 0.928 . S
C105 C104 1.372 . S
C105 C106 1.404 . S
C106 C105 1.404 . S
C106 C107 1.391 . S
C107 H101 0.930 . S
C107 C103 1.429 . S
C107 C106 1.391 . S
H108 C111 0.931 . S
H109 C114 0.928 . S
H110 C116 0.930 . S
C111 H108 0.931 . S
C111 C112 1.413 . S
C111 C113 1.360 . S
C112 C111 1.413 . S
C112 C116 1.429 . S
C113 C111 1.360 . S
C113 C114 1.372 . S
C114 H109 0.928 . S
C114 C113 1.372 . S
C114 C115 1.404 . S
C115 C114 1.404 . S
C115 C116 1.391 . S
C116 H110 0.930 . S
C116 C112 1.429 . S
C116 C115 1.391 . S
H117 C120 0.931 . S
H118 C123 0.928 . S
H119 C125 0.930 . S
C120 H117 0.931 . S
C120 C121 1.413 . S
C120 C122 1.360 . S
C121 C120 1.413 . S
C121 C125 1.429 . S
C122 C120 1.360 . S
C122 C123 1.372 . S
C123 H118 0.928 . S
C123 C122 1.372 . S
C123 C124 1.404 . S
C124 C123 1.404 . S
C124 C125 1.391 . S
C125 H119 0.930 . S
C125 C121 1.429 . S
C125 C124 1.391 . S
H126 C129 0.931 . S
H127 C132 0.928 . S
H128 C134 0.930 . S
C129 H126 0.931 . S
C129 C130 1.413 . S
C129 C131 1.360 . S
C130 C129 1.413 . S
C130 C134 1.429 . S
C131 C129 1.360 . S
C131 C132 1.372 . S
C132 H127 0.928 . S
C132 C131 1.372 . S
C132 C133 1.404 . S
C133 C132 1.404 . S
C133 C134 1.391 . S
C134 H128 0.930 . S
C134 C130 1.429 . S
C134 C133 1.391 . S
H135 C138 0.931 . S
H136 C141 0.928 . S
H137 C143 0.930 . S
C138 H135 0.931 . S
C138 C139 1.413 . S
C138 C140 1.360 . S
C139 C138 1.413 . S
C139 C143 1.429 . S
C140 C138 1.360 . S
C140 C141 1.372 . S
C141 H136 0.928 . S
C141 C140 1.372 . S
C141 C142 1.404 . S
C142 C141 1.404 . S
C142 C143 1.391 . S
C143 H137 0.930 . S
C143 C139 1.429 . S
C143 C142 1.391 . S
H144 C147 0.931 . S
H145 C150 0.928 . S
H146 C152 0.930 . S
C147 H144 0.931 . S
C147 C148 1.413 . S
C147 C149 1.360 . S
C148 C147 1.413 . S
C148 C152 1.429 . S
C149 C147 1.360 . S
C149 C150 1.372 . S
C150 H145 0.928 . S
C150 C149 1.372 . S
C150 C151 1.404 . S
C151 C150 1.404 . S
C151 C152 1.391 . S
C152 H146 0.930 . S
C152 C148 1.429 . S
C152 C151 1.391 . S
H153 C156 0.931 . S
H154 C159 0.928 . S
H155 C161 0.930 . S
C156 H153 0.931 . S
C156 C157 1.413 . S
C156 C158 1.360 . S
C157 C156 1.413 . S
C157 C161 1.429 . S
C158 C156 1.360 . S
C158 C159 1.372 . S
C159 H154 0.928 . S
C159 C158 1.372 . S
C159 C160 1.404 . S
C160 C159 1.404 . S
C160 C161 1.391 . S
C161 H155 0.930 . S
C161 C157 1.429 . S
C161 C160 1.391 . S
Gd162 N193 2.661 . S
Gd162 N199 2.601 . S
Gd162 O206 2.545 . S
Gd162 O207 2.606 1_545 S
Gd162 O209 2.429 . S
Gd162 O210 2.545 1_545 S
Gd162 O211 2.412 . S
Gd162 O213 2.362 1_554 S
Gd162 O214 2.324 1_545 S
Gd162 C221 2.828 . S
Gd163 N172 2.661 . S
Gd163 N176 2.601 . S
Gd163 O207 2.362 1_556 S
Gd163 O208 2.324 1_565 S
Gd163 O212 2.545 . S
Gd163 O213 2.606 1_565 S
Gd163 O215 2.429 . S
Gd163 O216 2.545 1_565 S
Gd163 O217 2.412 . S
Gd163 C230 2.828 . S
C164 C167 1.417 . S
C164 C169 1.431 . S
C164 C170 1.412 . S
C165 C168 1.437 . S
C165 C169 1.317 . S
C165 H184 0.929 . S
C166 C167 1.426 . S
C166 C168 1.413 . S
C166 N176 1.359 . S
C167 C164 1.417 . S
C167 C166 1.426 . S
C167 N172 1.350 . S
C168 C165 1.437 . S
C168 C166 1.413 . S
C168 C178 1.391 . S
C169 C164 1.431 . S
C169 C165 1.317 . S
C169 H180 0.930 . S
C170 C164 1.412 . S
C170 C171 1.355 . S
C170 H182 0.930 . S
C171 C170 1.355 . S
C171 C173 1.402 . S
C171 H183 0.930 . S
N172 Gd163 2.661 . S
N172 C167 1.350 . S
N172 C173 1.307 . S
C173 C171 1.402 . S
C173 N172 1.307 . S
C173 H174 0.930 . S
H174 C173 0.930 . S
C175 N176 1.334 . S
C175 C177 1.394 . S
C175 H179 0.930 . S
N176 Gd163 2.601 . S
N176 C166 1.359 . S
N176 C175 1.334 . S
C177 C175 1.394 . S
C177 C178 1.359 . S
C177 H189 0.930 . S
C178 C168 1.391 . S
C178 C177 1.359 . S
C178 H190 0.929 . S
H179 C175 0.930 . S
H180 C169 0.930 . S
H181 C198 0.930 . S
H182 C170 0.930 . S
H183 C171 0.930 . S
H184 C165 0.929 . S
H185 C203 0.930 . S
H186 C194 0.930 . S
H187 C195 0.930 . S
H188 C219 0.929 . S
H189 C177 0.930 . S
H190 C178 0.929 . S
H191 C220 0.930 . S
H192 C201 0.930 . S
N193 Gd162 2.661 . S
N193 C197 1.350 . S
N193 C198 1.307 . S
C194 H186 0.930 . S
C194 C195 1.355 . S
C194 C196 1.412 . S
C195 H187 0.930 . S
C195 C194 1.355 . S
C195 C198 1.402 . S
C196 C194 1.412 . S
C196 C197 1.417 . S
C196 C220 1.431 . S
C197 N193 1.350 . S
C197 C196 1.417 . S
C197 C200 1.426 . S
C198 H181 0.930 . S
C198 N193 1.307 . S
C198 C195 1.402 . S
N199 Gd162 2.601 . S
N199 C200 1.359 . S
N199 C203 1.334 . S
C200 C197 1.426 . S
C200 N199 1.359 . S
C200 C204 1.413 . S
C201 H192 0.930 . S
C201 C202 1.359 . S
C201 C203 1.394 . S
C202 C201 1.359 . S
C202 C204 1.391 . S
C202 H205 0.929 . S
C203 H185 0.930 . S
C203 N199 1.334 . S
C203 C201 1.394 . S
C204 C200 1.413 . S
C204 C202 1.391 . S
C204 C219 1.437 . S
H205 C202 0.929 . S
O206 Gd162 2.545 . S
O206 C221 1.258 . S
O207 Gd162 2.606 1_565 S
O207 Gd163 2.362 1_554 S
O207 C218 1.284 . S
O208 Gd163 2.324 1_545 S
O208 C228 1.254 . S
O209 Gd162 2.429 . S
O209 C228 1.268 1_554 S
O210 Gd162 2.545 1_565 S
O210 C218 1.250 . S
O211 Gd162 2.412 . S
O211 C221 1.252 . S
O212 Gd163 2.545 . S
O212 C230 1.258 . S
O213 Gd162 2.362 1_556 S
O213 Gd163 2.606 1_545 S
O213 C229 1.284 . S
O214 Gd162 2.324 1_565 S
O214 C237 1.254 . S
O215 Gd163 2.429 . S
O215 C237 1.268 1_556 S
O216 Gd163 2.545 1_545 S
O216 C229 1.250 . S
O217 Gd163 2.412 . S
O217 C230 1.252 . S
C218 O207 1.284 . S
C218 O210 1.250 . S
C219 H188 0.929 . S
C219 C204 1.437 . S
C219 C220 1.317 . S
C220 H191 0.930 . S
C220 C196 1.431 . S
C220 C219 1.317 . S
C221 Gd162 2.828 . S
C221 O206 1.258 . S
C221 O211 1.252 . S
C221 C222 1.497 . S
C222 C221 1.497 . S
C222 C223 1.395 . S
C222 C224 1.380 1_545 S
C223 C222 1.395 . S
C223 C226 1.398 . S
C223 H238 0.930 . S
C224 C222 1.380 1_565 S
C224 C225 1.391 . S
C224 H239 0.930 . S
C225 C224 1.391 . S
C225 C227 1.387 1_565 S
C226 C223 1.398 . S
C226 C227 1.380 . S
C226 H240 0.930 . S
C227 C225 1.387 1_545 S
C227 C226 1.380 . S
C227 H241 0.930 . S
C228 O208 1.254 . S
C228 O209 1.268 1_556 S
C229 O213 1.284 . S
C229 O216 1.250 . S
C230 Gd163 2.828 . S
C230 O212 1.258 . S
C230 O217 1.252 . S
C230 C231 1.497 . S
C231 C230 1.497 . S
C231 C232 1.395 . S
C231 C233 1.380 1_565 S
C232 C231 1.395 . S
C232 C235 1.398 . S
C232 H242 0.930 . S
C233 C231 1.380 1_545 S
C233 C234 1.391 . S
C233 H243 0.930 . S
C234 C233 1.391 . S
C234 C236 1.387 1_545 S
C235 C232 1.398 . S
C235 C236 1.380 . S
C235 H244 0.930 . S
C236 C234 1.387 1_565 S
C236 C235 1.380 . S
C236 H245 0.930 . S
C237 O214 1.254 . S
C237 O215 1.268 1_554 S
H238 C223 0.930 . S
H239 C224 0.930 . S
H240 C226 0.930 . S
H241 C227 0.930 . S
H242 C232 0.930 . S
H243 C233 0.930 . S
H244 C235 0.930 . S
H245 C236 0.930 . S
Gd246 N277 2.661 . S
Gd246 N283 2.601 . S
Gd246 O290 2.545 . S
Gd246 O291 2.606 1_655 S
Gd246 O293 2.429 . S
Gd246 O294 2.545 1_655 S
Gd246 O295 2.412 . S
Gd246 O297 2.362 1_554 S
Gd246 O298 2.324 1_655 S
Gd246 C305 2.828 . S
Gd247 N256 2.661 . S
Gd247 N260 2.601 . S
Gd247 O291 2.362 1_556 S
Gd247 O292 2.324 1_455 S
Gd247 O296 2.545 . S
Gd247 O297 2.606 1_455 S
Gd247 O299 2.429 . S
Gd247 O300 2.545 1_455 S
Gd247 O301 2.412 . S
Gd247 C314 2.828 . S
C248 C251 1.417 . S
C248 C253 1.431 . S
C248 C254 1.412 . S
C249 C252 1.437 . S
C249 C253 1.317 . S
C249 H268 0.929 . S
C250 C251 1.426 . S
C250 C252 1.413 . S
C250 N260 1.359 . S
C251 C248 1.417 . S
C251 C250 1.426 . S
C251 N256 1.350 . S
C252 C249 1.437 . S
C252 C250 1.413 . S
C252 C262 1.391 . S
C253 C248 1.431 . S
C253 C249 1.317 . S
C253 H264 0.930 . S
C254 C248 1.412 . S
C254 C255 1.355 . S
C254 H266 0.930 . S
C255 C254 1.355 . S
C255 C257 1.402 . S
C255 H267 0.930 . S
N256 Gd247 2.661 . S
N256 C251 1.350 . S
N256 C257 1.307 . S
C257 C255 1.402 . S
C257 N256 1.307 . S
C257 H258 0.930 . S
H258 C257 0.930 . S
C259 N260 1.334 . S
C259 C261 1.394 . S
C259 H263 0.930 . S
N260 Gd247 2.601 . S
N260 C250 1.359 . S
N260 C259 1.334 . S
C261 C259 1.394 . S
C261 C262 1.359 . S
C261 H273 0.930 . S
C262 C252 1.391 . S
C262 C261 1.359 . S
C262 H274 0.929 . S
H263 C259 0.930 . S
H264 C253 0.930 . S
H265 C282 0.930 . S
H266 C254 0.930 . S
H267 C255 0.930 . S
H268 C249 0.929 . S
H269 C287 0.930 . S
H270 C278 0.930 . S
H271 C279 0.930 . S
H272 C303 0.929 . S
H273 C261 0.930 . S
H274 C262 0.929 . S
H275 C304 0.930 . S
H276 C285 0.930 . S
N277 Gd246 2.661 . S
N277 C281 1.350 . S
N277 C282 1.307 . S
C278 H270 0.930 . S
C278 C279 1.355 . S
C278 C280 1.412 . S
C279 H271 0.930 . S
C279 C278 1.355 . S
C279 C282 1.402 . S
C280 C278 1.412 . S
C280 C281 1.417 . S
C280 C304 1.431 . S
C281 N277 1.350 . S
C281 C280 1.417 . S
C281 C284 1.426 . S
C282 H265 0.930 . S
C282 N277 1.307 . S
C282 C279 1.402 . S
N283 Gd246 2.601 . S
N283 C284 1.359 . S
N283 C287 1.334 . S
C284 C281 1.426 . S
C284 N283 1.359 . S
C284 C288 1.413 . S
C285 H276 0.930 . S
C285 C286 1.359 . S
C285 C287 1.394 . S
C286 C285 1.359 . S
C286 C288 1.391 . S
C286 H289 0.929 . S
C287 H269 0.930 . S
C287 N283 1.334 . S
C287 C285 1.394 . S
C288 C284 1.413 . S
C288 C286 1.391 . S
C288 C303 1.437 . S
H289 C286 0.929 . S
O290 Gd246 2.545 . S
O290 C305 1.258 . S
O291 Gd246 2.606 1_455 S
O291 Gd247 2.362 1_554 S
O291 C302 1.284 . S
O292 Gd247 2.324 1_655 S
O292 C312 1.254 . S
O293 Gd246 2.429 . S
O293 C312 1.268 1_554 S
O294 Gd246 2.545 1_455 S
O294 C302 1.250 . S
O295 Gd246 2.412 . S
O295 C305 1.252 . S
O296 Gd247 2.545 . S
O296 C314 1.258 . S
O297 Gd246 2.362 1_556 S
O297 Gd247 2.606 1_655 S
O297 C313 1.284 . S
O298 Gd246 2.324 1_455 S
O298 C321 1.254 . S
O299 Gd247 2.429 . S
O299 C321 1.268 1_556 S
O300 Gd247 2.545 1_655 S
O300 C313 1.250 . S
O301 Gd247 2.412 . S
O301 C314 1.252 . S
C302 O291 1.284 . S
C302 O294 1.250 . S
C303 H272 0.929 . S
C303 C288 1.437 . S
C303 C304 1.317 . S
C304 H275 0.930 . S
C304 C280 1.431 . S
C304 C303 1.317 . S
C305 Gd246 2.828 . S
C305 O290 1.258 . S
C305 O295 1.252 . S
C305 C306 1.497 . S
C306 C305 1.497 . S
C306 C307 1.395 . S
C306 C308 1.380 1_655 S
C307 C306 1.395 . S
C307 C310 1.398 . S
C307 H322 0.930 . S
C308 C306 1.380 1_455 S
C308 C309 1.391 . S
C308 H323 0.930 . S
C309 C308 1.391 . S
C309 C311 1.387 1_455 S
C310 C307 1.398 . S
C310 C311 1.380 . S
C310 H324 0.930 . S
C311 C309 1.387 1_655 S
C311 C310 1.380 . S
C311 H325 0.930 . S
C312 O292 1.254 . S
C312 O293 1.268 1_556 S
C313 O297 1.284 . S
C313 O300 1.250 . S
C314 Gd247 2.828 . S
C314 O296 1.258 . S
C314 O301 1.252 . S
C314 C315 1.497 . S
C315 C314 1.497 . S
C315 C316 1.395 . S
C315 C317 1.380 1_455 S
C316 C315 1.395 . S
C316 C319 1.398 . S
C316 H326 0.930 . S
C317 C315 1.380 1_655 S
C317 C318 1.391 . S
C317 H327 0.930 . S
C318 C317 1.391 . S
C318 C320 1.387 1_655 S
C319 C316 1.398 . S
C319 C320 1.380 . S
C319 H328 0.930 . S
C320 C318 1.387 1_455 S
C320 C319 1.380 . S
C320 H329 0.930 . S
C321 O298 1.254 . S
C321 O299 1.268 1_554 S
H322 C307 0.930 . S
H323 C308 0.930 . S
H324 C310 0.930 . S
H325 C311 0.930 . S
H326 C316 0.930 . S
H327 C317 0.930 . S
H328 C319 0.930 . S
H329 C320 0.930 . S
Gd330 N361 2.661 . S
Gd330 N367 2.601 . S
Gd330 O374 2.545 . S
Gd330 O375 2.606 . S
Gd330 O377 2.429 . S
Gd330 O378 2.545 . S
Gd330 O379 2.412 . S
Gd330 O381 2.362 1_556 S
Gd330 O382 2.324 . S
Gd330 C389 2.828 . S
Gd331 N340 2.661 . S
Gd331 N344 2.601 . S
Gd331 O375 2.362 1_554 S
Gd331 O376 2.324 . S
Gd331 O380 2.545 . S
Gd331 O381 2.606 . S
Gd331 O383 2.429 . S
Gd331 O384 2.545 . S
Gd331 O385 2.412 . S
Gd331 C398 2.828 . S
C332 C335 1.417 . S
C332 C337 1.431 . S
C332 C338 1.412 . S
C333 C336 1.437 . S
C333 C337 1.317 . S
C333 H352 0.929 . S
C334 C335 1.426 . S
C334 C336 1.413 . S
C334 N344 1.359 . S
C335 C332 1.417 . S
C335 C334 1.426 . S
C335 N340 1.350 . S
C336 C333 1.437 . S
C336 C334 1.413 . S
C336 C346 1.391 . S
C337 C332 1.431 . S
C337 C333 1.317 . S
C337 H348 0.930 . S
C338 C332 1.412 . S
C338 C339 1.355 . S
C338 H350 0.930 . S
C339 C338 1.355 . S
C339 C341 1.402 . S
C339 H351 0.930 . S
N340 Gd331 2.661 . S
N340 C335 1.350 . S
N340 C341 1.307 . S
C341 C339 1.402 . S
C341 N340 1.307 . S
C341 H342 0.930 . S
H342 C341 0.930 . S
C343 N344 1.334 . S
C343 C345 1.394 . S
C343 H347 0.930 . S
N344 Gd331 2.601 . S
N344 C334 1.359 . S
N344 C343 1.334 . S
C345 C343 1.394 . S
C345 C346 1.359 . S
C345 H357 0.930 . S
C346 C336 1.391 . S
C346 C345 1.359 . S
C346 H358 0.929 . S
H347 C343 0.930 . S
H348 C337 0.930 . S
H349 C366 0.930 . S
H350 C338 0.930 . S
H351 C339 0.930 . S
H352 C333 0.929 . S
H353 C371 0.930 . S
H354 C362 0.930 . S
H355 C363 0.930 . S
H356 C387 0.929 . S
H357 C345 0.930 . S
H358 C346 0.929 . S
H359 C388 0.930 . S
H360 C369 0.930 . S
N361 Gd330 2.661 . S
N361 C365 1.350 . S
N361 C366 1.307 . S
C362 H354 0.930 . S
C362 C363 1.355 . S
C362 C364 1.412 . S
C363 H355 0.930 . S
C363 C362 1.355 . S
C363 C366 1.402 . S
C364 C362 1.412 . S
C364 C365 1.417 . S
C364 C388 1.431 . S
C365 N361 1.350 . S
C365 C364 1.417 . S
C365 C368 1.426 . S
C366 H349 0.930 . S
C366 N361 1.307 . S
C366 C363 1.402 . S
N367 Gd330 2.601 . S
N367 C368 1.359 . S
N367 C371 1.334 . S
C368 C365 1.426 . S
C368 N367 1.359 . S
C368 C372 1.413 . S
C369 H360 0.930 . S
C369 C370 1.359 . S
C369 C371 1.394 . S
C370 C369 1.359 . S
C370 C372 1.391 . S
C370 H373 0.929 . S
C371 H353 0.930 . S
C371 N367 1.334 . S
C371 C369 1.394 . S
C372 C368 1.413 . S
C372 C370 1.391 . S
C372 C387 1.437 . S
H373 C370 0.929 . S
O374 Gd330 2.545 . S
O374 C389 1.258 . S
O375 Gd330 2.606 . S
O375 Gd331 2.362 1_556 S
O375 C386 1.284 . S
O376 Gd331 2.324 . S
O376 C396 1.254 . S
O377 Gd330 2.429 . S
O377 C396 1.268 1_556 S
O378 Gd330 2.545 . S
O378 C386 1.250 . S
O379 Gd330 2.412 . S
O379 C389 1.252 . S
O380 Gd331 2.545 . S
O380 C398 1.258 . S
O381 Gd330 2.362 1_554 S
O381 Gd331 2.606 . S
O381 C397 1.284 . S
O382 Gd330 2.324 . S
O382 C405 1.254 . S
O383 Gd331 2.429 . S
O383 C405 1.268 1_554 S
O384 Gd331 2.545 . S
O384 C397 1.250 . S
O385 Gd331 2.412 . S
O385 C398 1.252 . S
C386 O375 1.284 . S
C386 O378 1.250 . S
C387 H356 0.929 . S
C387 C372 1.437 . S
C387 C388 1.317 . S
C388 H359 0.930 . S
C388 C364 1.431 . S
C388 C387 1.317 . S
C389 Gd330 2.828 . S
C389 O374 1.258 . S
C389 O379 1.252 . S
C389 C390 1.497 . S
C390 C389 1.497 . S
C390 C391 1.395 . S
C390 C392 1.380 . S
C391 C390 1.395 . S
C391 C394 1.398 . S
C391 H406 0.930 . S
C392 C390 1.380 . S
C392 C393 1.391 . S
C392 H407 0.930 . S
C393 C392 1.391 . S
C393 C395 1.387 . S
C394 C391 1.398 . S
C394 C395 1.380 . S
C394 H408 0.930 . S
C395 C393 1.387 . S
C395 C394 1.380 . S
C395 H409 0.930 . S
C396 O376 1.254 . S
C396 O377 1.268 1_554 S
C397 O381 1.284 . S
C397 O384 1.250 . S
C398 Gd331 2.828 . S
C398 O380 1.258 . S
C398 O385 1.252 . S
C398 C399 1.497 . S
C399 C398 1.497 . S
C399 C400 1.395 . S
C399 C401 1.380 . S
C400 C399 1.395 . S
C400 C403 1.398 . S
C400 H410 0.930 . S
C401 C399 1.380 . S
C401 C402 1.391 . S
C401 H411 0.930 . S
C402 C401 1.391 . S
C402 C404 1.387 . S
C403 C400 1.398 . S
C403 C404 1.380 . S
C403 H412 0.930 . S
C404 C402 1.387 . S
C404 C403 1.380 . S
C404 H413 0.930 . S
C405 O382 1.254 . S
C405 O383 1.268 1_556 S
H406 C391 0.930 . S
H407 C392 0.930 . S
H408 C394 0.930 . S
H409 C395 0.930 . S
H410 C400 0.930 . S
H411 C401 0.930 . S
H412 C403 0.930 . S
H413 C404 0.930 . S
Gd414 N445 2.661 . S
Gd414 N451 2.601 . S
Gd414 O458 2.545 . S
Gd414 O459 2.606 . S
Gd414 O461 2.429 . S
Gd414 O462 2.545 . S
Gd414 O463 2.412 . S
Gd414 O465 2.362 . S
Gd414 O466 2.324 . S
Gd414 C473 2.828 . S
Gd415 N424 2.661 . S
Gd415 N428 2.601 . S
Gd415 O459 2.362 . S
Gd415 O460 2.324 . S
Gd415 O464 2.545 . S
Gd415 O465 2.606 . S
Gd415 O467 2.429 . S
Gd415 O468 2.545 . S
Gd415 O469 2.412 . S
Gd415 C482 2.828 . S
C416 C419 1.417 1_655 S
C416 C421 1.431 . S
C416 C422 1.412 . S
C417 C420 1.437 1_655 S
C417 C421 1.317 . S
C417 H436 0.929 . S
C418 C419 1.426 . S
C418 C420 1.413 . S
C418 N428 1.359 . S
C419 C416 1.417 1_455 S
C419 C418 1.426 . S
C419 N424 1.350 . S
C420 C417 1.437 1_455 S
C420 C418 1.413 . S
C420 C430 1.391 . S
C421 C416 1.431 . S
C421 C417 1.317 . S
C421 H432 0.930 . S
C422 C416 1.412 . S
C422 C423 1.355 . S
C422 H434 0.930 . S
C423 C422 1.355 . S
C423 C425 1.402 1_655 S
C423 H435 0.930 . S
N424 Gd415 2.661 . S
N424 C419 1.350 . S
N424 C425 1.307 . S
C425 C423 1.402 1_455 S
C425 N424 1.307 . S
C425 H426 0.930 . S
H426 C425 0.930 . S
C427 N428 1.334 . S
C427 C429 1.394 . S
C427 H431 0.930 . S
N428 Gd415 2.601 . S
N428 C418 1.359 . S
N428 C427 1.334 . S
C429 C427 1.394 . S
C429 C430 1.359 . S
C429 H441 0.930 . S
C430 C420 1.391 . S
C430 C429 1.359 . S
C430 H442 0.929 . S
H431 C427 0.930 . S
H432 C421 0.930 . S
H433 C450 0.930 . S
H434 C422 0.930 . S
H435 C423 0.930 . S
H436 C417 0.929 . S
H437 C455 0.930 . S
H438 C446 0.930 . S
H439 C447 0.930 . S
H440 C471 0.929 . S
H441 C429 0.930 . S
H442 C430 0.929 . S
H443 C472 0.930 . S
H444 C453 0.930 . S
N445 Gd414 2.661 . S
N445 C449 1.350 . S
N445 C450 1.307 . S
C446 H438 0.930 . S
C446 C447 1.355 . S
C446 C448 1.412 . S
C447 H439 0.930 . S
C447 C446 1.355 . S
C447 C450 1.402 . S
C448 C446 1.412 . S
C448 C449 1.417 . S
C448 C472 1.431 . S
C449 N445 1.350 . S
C449 C448 1.417 . S
C449 C452 1.426 . S
C450 H433 0.930 . S
C450 N445 1.307 . S
C450 C447 1.402 . S
N451 Gd414 2.601 . S
N451 C452 1.359 . S
N451 C455 1.334 . S
C452 C449 1.426 . S
C452 N451 1.359 . S
C452 C456 1.413 . S
C453 H444 0.930 . S
C453 C454 1.359 . S
C453 C455 1.394 . S
C454 C453 1.359 . S
C454 C456 1.391 . S
C454 H457 0.929 . S
C455 H437 0.930 . S
C455 N451 1.334 . S
C455 C453 1.394 . S
C456 C452 1.413 . S
C456 C454 1.391 . S
C456 C471 1.437 . S
H457 C454 0.929 . S
O458 Gd414 2.545 . S
O458 C473 1.258 . S
O459 Gd414 2.606 . S
O459 Gd415 2.362 . S
O459 C470 1.284 . S
O460 Gd415 2.324 . S
O460 C480 1.254 . S
O461 Gd414 2.429 . S
O461 C480 1.268 . S
O462 Gd414 2.545 . S
O462 C470 1.250 . S
O463 Gd414 2.412 . S
O463 C473 1.252 . S
O464 Gd415 2.545 . S
O464 C482 1.258 . S
O465 Gd414 2.362 . S
O465 Gd415 2.606 . S
O465 C481 1.284 . S
O466 Gd414 2.324 . S
O466 C489 1.254 . S
O467 Gd415 2.429 . S
O467 C489 1.268 . S
O468 Gd415 2.545 . S
O468 C481 1.250 . S
O469 Gd415 2.412 . S
O469 C482 1.252 . S
C470 O459 1.284 . S
C470 O462 1.250 . S
C471 H440 0.929 . S
C471 C456 1.437 . S
C471 C472 1.317 . S
C472 H443 0.930 . S
C472 C448 1.431 . S
C472 C471 1.317 . S
C473 Gd414 2.828 . S
C473 O458 1.258 . S
C473 O463 1.252 . S
C473 C474 1.497 . S
C474 C473 1.497 . S
C474 C475 1.395 . S
C474 C476 1.380 . S
C475 C474 1.395 . S
C475 C478 1.398 . S
C475 H490 0.930 . S
C476 C474 1.380 . S
C476 C477 1.391 . S
C476 H491 0.930 . S
C477 C476 1.391 . S
C477 C479 1.387 . S
C478 C475 1.398 . S
C478 C479 1.380 . S
C478 H492 0.930 . S
C479 C477 1.387 . S
C479 C478 1.380 . S
C479 H493 0.930 . S
C480 O460 1.254 . S
C480 O461 1.268 . S
C481 O465 1.284 . S
C481 O468 1.250 . S
C482 Gd415 2.828 . S
C482 O464 1.258 . S
C482 O469 1.252 . S
C482 C483 1.497 . S
C483 C482 1.497 . S
C483 C484 1.395 . S
C483 C485 1.380 . S
C484 C483 1.395 . S
C484 C487 1.398 . S
C484 H494 0.930 . S
C485 C483 1.380 . S
C485 C486 1.391 . S
C485 H495 0.930 . S
C486 C485 1.391 . S
C486 C488 1.387 . S
C487 C484 1.398 . S
C487 C488 1.380 . S
C487 H496 0.930 . S
C488 C486 1.387 . S
C488 C487 1.380 . S
C488 H497 0.930 . S
C489 O466 1.254 . S
C489 O467 1.268 . S
H490 C475 0.930 . S
H491 C476 0.930 . S
H492 C478 0.930 . S
H493 C479 0.930 . S
H494 C484 0.930 . S
H495 C485 0.930 . S
H496 C487 0.930 . S
H497 C488 0.930 . S
Gd498 N529 2.661 . S
Gd498 N535 2.601 . S
Gd498 O542 2.545 . S
Gd498 O543 2.606 . S
Gd498 O545 2.429 . S
Gd498 O546 2.545 . S
Gd498 O547 2.412 . S
Gd498 O549 2.362 . S
Gd498 O550 2.324 . S
Gd498 C557 2.828 . S
Gd499 N508 2.661 . S
Gd499 N512 2.601 . S
Gd499 O543 2.362 . S
Gd499 O544 2.324 . S
Gd499 O548 2.545 . S
Gd499 O549 2.606 . S
Gd499 O551 2.429 . S
Gd499 O552 2.545 . S
Gd499 O553 2.412 . S
Gd499 C566 2.828 . S
C500 C503 1.417 . S
C500 C505 1.431 . S
C500 C506 1.412 . S
C501 C504 1.437 . S
C501 C505 1.317 . S
C501 H520 0.929 . S
C502 C503 1.426 . S
C502 C504 1.413 . S
C502 N512 1.359 . S
C503 C500 1.417 . S
C503 C502 1.426 . S
C503 N508 1.350 . S
C504 C501 1.437 . S
C504 C502 1.413 . S
C504 C514 1.391 . S
C505 C500 1.431 . S
C505 C501 1.317 . S
C505 H516 0.930 . S
C506 C500 1.412 . S
C506 C507 1.355 . S
C506 H518 0.930 . S
C507 C506 1.355 . S
C507 C509 1.402 . S
C507 H519 0.930 . S
N508 Gd499 2.661 . S
N508 C503 1.350 . S
N508 C509 1.307 . S
C509 C507 1.402 . S
C509 N508 1.307 . S
C509 H510 0.930 . S
H510 C509 0.930 . S
C511 N512 1.334 . S
C511 C513 1.394 . S
C511 H515 0.930 . S
N512 Gd499 2.601 . S
N512 C502 1.359 . S
N512 C511 1.334 . S
C513 C511 1.394 . S
C513 C514 1.359 . S
C513 H525 0.930 . S
C514 C504 1.391 . S
C514 C513 1.359 . S
C514 H526 0.929 . S
H515 C511 0.930 . S
H516 C505 0.930 . S
H517 C534 0.930 . S
H518 C506 0.930 . S
H519 C507 0.930 . S
H520 C501 0.929 . S
H521 C539 0.930 . S
H522 C530 0.930 . S
H523 C531 0.930 . S
H524 C555 0.929 . S
H525 C513 0.930 . S
H526 C514 0.929 . S
H527 C556 0.930 . S
H528 C537 0.930 . S
N529 Gd498 2.661 . S
N529 C533 1.350 . S
N529 C534 1.307 . S
C530 H522 0.930 . S
C530 C531 1.355 . S
C530 C532 1.412 . S
C531 H523 0.930 . S
C531 C530 1.355 . S
C531 C534 1.402 . S
C532 C530 1.412 . S
C532 C533 1.417 . S
C532 C556 1.431 . S
C533 N529 1.350 . S
C533 C532 1.417 . S
C533 C536 1.426 . S
C534 H517 0.930 . S
C534 N529 1.307 . S
C534 C531 1.402 . S
N535 Gd498 2.601 . S
N535 C536 1.359 . S
N535 C539 1.334 . S
C536 C533 1.426 . S
C536 N535 1.359 . S
C536 C540 1.413 . S
C537 H528 0.930 . S
C537 C538 1.359 . S
C537 C539 1.394 . S
C538 C537 1.359 . S
C538 C540 1.391 . S
C538 H541 0.929 . S
C539 H521 0.930 . S
C539 N535 1.334 . S
C539 C537 1.394 . S
C540 C536 1.413 . S
C540 C538 1.391 . S
C540 C555 1.437 . S
H541 C538 0.929 . S
O542 Gd498 2.545 . S
O542 C557 1.258 . S
O543 Gd498 2.606 . S
O543 Gd499 2.362 . S
O543 C554 1.284 . S
O544 Gd499 2.324 . S
O544 C564 1.254 . S
O545 Gd498 2.429 . S
O545 C564 1.268 . S
O546 Gd498 2.545 . S
O546 C554 1.250 . S
O547 Gd498 2.412 . S
O547 C557 1.252 . S
O548 Gd499 2.545 . S
O548 C566 1.258 . S
O549 Gd498 2.362 . S
O549 Gd499 2.606 . S
O549 C565 1.284 . S
O550 Gd498 2.324 . S
O550 C573 1.254 . S
O551 Gd499 2.429 . S
O551 C573 1.268 . S
O552 Gd499 2.545 . S
O552 C565 1.250 . S
O553 Gd499 2.412 . S
O553 C566 1.252 . S
C554 O543 1.284 . S
C554 O546 1.250 . S
C555 H524 0.929 . S
C555 C540 1.437 . S
C555 C556 1.317 . S
C556 H527 0.930 . S
C556 C532 1.431 . S
C556 C555 1.317 . S
C557 Gd498 2.828 . S
C557 O542 1.258 . S
C557 O547 1.252 . S
C557 C558 1.497 . S
C558 C557 1.497 . S
C558 C559 1.395 . S
C558 C560 1.380 . S
C559 C558 1.395 . S
C559 C562 1.398 . S
C559 H574 0.930 . S
C560 C558 1.380 . S
C560 C561 1.391 . S
C560 H575 0.930 . S
C561 C560 1.391 . S
C561 C563 1.387 . S
C562 C559 1.398 . S
C562 C563 1.380 . S
C562 H576 0.930 . S
C563 C561 1.387 . S
C563 C562 1.380 . S
C563 H577 0.930 . S
C564 O544 1.254 . S
C564 O545 1.268 . S
C565 O549 1.284 . S
C565 O552 1.250 . S
C566 Gd499 2.828 . S
C566 O548 1.258 . S
C566 O553 1.252 . S
C566 C567 1.497 . S
C567 C566 1.497 . S
C567 C568 1.395 . S
C567 C569 1.380 . S
C568 C567 1.395 . S
C568 C571 1.398 . S
C568 H578 0.930 . S
C569 C567 1.380 . S
C569 C570 1.391 . S
C569 H579 0.930 . S
C570 C569 1.391 . S
C570 C572 1.387 . S
C571 C568 1.398 . S
C571 C572 1.380 . S
C571 H580 0.930 . S
C572 C570 1.387 . S
C572 C571 1.380 . S
C572 H581 0.930 . S
C573 O550 1.254 . S
C573 O551 1.268 . S
H574 C559 0.930 . S
H575 C560 0.930 . S
H576 C562 0.930 . S
H577 C563 0.930 . S
H578 C568 0.930 . S
H579 C569 0.930 . S
H580 C571 0.930 . S
H581 C572 0.930 . S
Gd582 N613 2.661 . S
Gd582 N619 2.601 . S
Gd582 O626 2.545 . S
Gd582 O627 2.606 . S
Gd582 O629 2.429 . S
Gd582 O630 2.545 . S
Gd582 O631 2.412 . S
Gd582 O633 2.362 . S
Gd582 O634 2.324 . S
Gd582 C641 2.828 . S
Gd583 N592 2.661 . S
Gd583 N596 2.601 . S
Gd583 O627 2.362 . S
Gd583 O628 2.324 . S
Gd583 O632 2.545 . S
Gd583 O633 2.606 . S
Gd583 O635 2.429 . S
Gd583 O636 2.545 . S
Gd583 O637 2.412 . S
Gd583 C650 2.828 . S
C584 C587 1.417 . S
C584 C589 1.431 . S
C584 C590 1.412 . S
C585 C588 1.437 . S
C585 C589 1.317 . S
C585 H604 0.929 . S
C586 C587 1.426 . S
C586 C588 1.413 . S
C586 N596 1.359 . S
C587 C584 1.417 . S
C587 C586 1.426 . S
C587 N592 1.350 . S
C588 C585 1.437 . S
C588 C586 1.413 . S
C588 C598 1.391 . S
C589 C584 1.431 . S
C589 C585 1.317 . S
C589 H600 0.930 . S
C590 C584 1.412 . S
C590 C591 1.355 . S
C590 H602 0.930 . S
C591 C590 1.355 . S
C591 C593 1.402 . S
C591 H603 0.930 . S
N592 Gd583 2.661 . S
N592 C587 1.350 . S
N592 C593 1.307 . S
C593 C591 1.402 . S
C593 N592 1.307 . S
C593 H594 0.930 . S
H594 C593 0.930 . S
C595 N596 1.334 . S
C595 C597 1.394 . S
C595 H599 0.930 . S
N596 Gd583 2.601 . S
N596 C586 1.359 . S
N596 C595 1.334 . S
C597 C595 1.394 . S
C597 C598 1.359 . S
C597 H609 0.930 . S
C598 C588 1.391 . S
C598 C597 1.359 . S
C598 H610 0.929 . S
H599 C595 0.930 . S
H600 C589 0.930 . S
H601 C618 0.930 . S
H602 C590 0.930 . S
H603 C591 0.930 . S
H604 C585 0.929 . S
H605 C623 0.930 . S
H606 C614 0.930 . S
H607 C615 0.930 . S
H608 C639 0.929 . S
H609 C597 0.930 . S
H610 C598 0.929 . S
H611 C640 0.930 . S
H612 C621 0.930 . S
N613 Gd582 2.661 . S
N613 C617 1.350 . S
N613 C618 1.307 . S
C614 H606 0.930 . S
C614 C615 1.355 . S
C614 C616 1.412 . S
C615 H607 0.930 . S
C615 C614 1.355 . S
C615 C618 1.402 1_655 S
C616 C614 1.412 . S
C616 C617 1.417 1_655 S
C616 C640 1.431 . S
C617 N613 1.350 . S
C617 C616 1.417 1_455 S
C617 C620 1.426 . S
C618 H601 0.930 . S
C618 N613 1.307 . S
C618 C615 1.402 1_455 S
N619 Gd582 2.601 . S
N619 C620 1.359 . S
N619 C623 1.334 . S
C620 C617 1.426 . S
C620 N619 1.359 . S
C620 C624 1.413 . S
C621 H612 0.930 . S
C621 C622 1.359 . S
C621 C623 1.394 . S
C622 C621 1.359 . S
C622 C624 1.391 . S
C622 H625 0.929 . S
C623 H605 0.930 . S
C623 N619 1.334 . S
C623 C621 1.394 . S
C624 C620 1.413 . S
C624 C622 1.391 . S
C624 C639 1.437 1_455 S
H625 C622 0.929 . S
O626 Gd582 2.545 . S
O626 C641 1.258 . S
O627 Gd582 2.606 . S
O627 Gd583 2.362 . S
O627 C638 1.284 . S
O628 Gd583 2.324 . S
O628 C648 1.254 . S
O629 Gd582 2.429 . S
O629 C648 1.268 . S
O630 Gd582 2.545 . S
O630 C638 1.250 . S
O631 Gd582 2.412 . S
O631 C641 1.252 . S
O632 Gd583 2.545 . S
O632 C650 1.258 . S
O633 Gd582 2.362 . S
O633 Gd583 2.606 . S
O633 C649 1.284 . S
O634 Gd582 2.324 . S
O634 C657 1.254 . S
O635 Gd583 2.429 . S
O635 C657 1.268 . S
O636 Gd583 2.545 . S
O636 C649 1.250 . S
O637 Gd583 2.412 . S
O637 C650 1.252 . S
C638 O627 1.284 . S
C638 O630 1.250 . S
C639 H608 0.929 . S
C639 C624 1.437 1_655 S
C639 C640 1.317 . S
C640 H611 0.930 . S
C640 C616 1.431 . S
C640 C639 1.317 . S
C641 Gd582 2.828 . S
C641 O626 1.258 . S
C641 O631 1.252 . S
C641 C642 1.497 . S
C642 C641 1.497 . S
C642 C643 1.395 . S
C642 C644 1.380 . S
C643 C642 1.395 . S
C643 C646 1.398 . S
C643 H658 0.930 . S
C644 C642 1.380 . S
C644 C645 1.391 . S
C644 H659 0.930 . S
C645 C644 1.391 . S
C645 C647 1.387 . S
C646 C643 1.398 . S
C646 C647 1.380 . S
C646 H660 0.930 . S
C647 C645 1.387 . S
C647 C646 1.380 . S
C647 H661 0.930 . S
C648 O628 1.254 . S
C648 O629 1.268 . S
C649 O633 1.284 . S
C649 O636 1.250 . S
C650 Gd583 2.828 . S
C650 O632 1.258 . S
C650 O637 1.252 . S
C650 C651 1.497 . S
C651 C650 1.497 . S
C651 C652 1.395 . S
C651 C653 1.380 . S
C652 C651 1.395 . S
C652 C655 1.398 . S
C652 H662 0.930 . S
C653 C651 1.380 . S
C653 C654 1.391 . S
C653 H663 0.930 . S
C654 C653 1.391 . S
C654 C656 1.387 . S
C655 C652 1.398 . S
C655 C656 1.380 . S
C655 H664 0.930 . S
C656 C654 1.387 . S
C656 C655 1.380 . S
C656 H665 0.930 . S
C657 O634 1.254 . S
C657 O635 1.268 . S
H658 C643 0.930 . S
H659 C644 0.930 . S
H660 C646 0.930 . S
H661 C647 0.930 . S
H662 C652 0.930 . S
H663 C653 0.930 . S
H664 C655 0.930 . S
H665 C656 0.930 . S
Gd666 N697 2.661 . S
Gd666 N703 2.601 . S
Gd666 O710 2.545 . S
Gd666 O711 2.606 . S
Gd666 O713 2.429 . S
Gd666 O714 2.545 . S
Gd666 O715 2.412 . S
Gd666 O717 2.362 . S
Gd666 O718 2.324 . S
Gd666 C725 2.828 . S
Gd667 N676 2.661 . S
Gd667 N680 2.601 . S
Gd667 O711 2.362 . S
Gd667 O712 2.324 . S
Gd667 O716 2.545 . S
Gd667 O717 2.606 . S
Gd667 O719 2.429 . S
Gd667 O720 2.545 . S
Gd667 O721 2.412 . S
Gd667 C734 2.828 . S
C668 C671 1.417 . S
C668 C673 1.431 . S
C668 C674 1.412 . S
C669 C672 1.437 . S
C669 C673 1.317 . S
C669 H688 0.929 . S
C670 C671 1.426 . S
C670 C672 1.413 . S
C670 N680 1.359 . S
C671 C668 1.417 . S
C671 C670 1.426 . S
C671 N676 1.350 . S
C672 C669 1.437 . S
C672 C670 1.413 . S
C672 C682 1.391 . S
C673 C668 1.431 . S
C673 C669 1.317 . S
C673 H684 0.930 . S
C674 C668 1.412 . S
C674 C675 1.355 . S
C674 H686 0.930 . S
C675 C674 1.355 . S
C675 C677 1.402 . S
C675 H687 0.930 . S
N676 Gd667 2.661 . S
N676 C671 1.350 . S
N676 C677 1.307 . S
C677 C675 1.402 . S
C677 N676 1.307 . S
C677 H678 0.930 . S
H678 C677 0.930 . S
C679 N680 1.334 . S
C679 C681 1.394 . S
C679 H683 0.930 . S
N680 Gd667 2.601 . S
N680 C670 1.359 . S
N680 C679 1.334 . S
C681 C679 1.394 . S
C681 C682 1.359 . S
C681 H693 0.930 . S
C682 C672 1.391 . S
C682 C681 1.359 . S
C682 H694 0.929 . S
H683 C679 0.930 . S
H684 C673 0.930 . S
H685 C702 0.930 . S
H686 C674 0.930 . S
H687 C675 0.930 . S
H688 C669 0.929 . S
H689 C707 0.930 . S
H690 C698 0.930 . S
H691 C699 0.930 . S
H692 C723 0.929 . S
H693 C681 0.930 . S
H694 C682 0.929 . S
H695 C724 0.930 . S
H696 C705 0.930 . S
N697 Gd666 2.661 . S
N697 C701 1.350 . S
N697 C702 1.307 . S
C698 H690 0.930 . S
C698 C699 1.355 . S
C698 C700 1.412 . S
C699 H691 0.930 . S
C699 C698 1.355 . S
C699 C702 1.402 1_455 S
C700 C698 1.412 . S
C700 C701 1.417 1_455 S
C700 C724 1.431 . S
C701 N697 1.350 . S
C701 C700 1.417 1_655 S
C701 C704 1.426 . S
C702 H685 0.930 . S
C702 N697 1.307 . S
C702 C699 1.402 1_655 S
N703 Gd666 2.601 . S
N703 C704 1.359 . S
N703 C707 1.334 . S
C704 C701 1.426 . S
C704 N703 1.359 . S
C704 C708 1.413 . S
C705 H696 0.930 . S
C705 C706 1.359 . S
C705 C707 1.394 . S
C706 C705 1.359 . S
C706 C708 1.391 . S
C706 H709 0.929 . S
C707 H689 0.930 . S
C707 N703 1.334 . S
C707 C705 1.394 . S
C708 C704 1.413 . S
C708 C706 1.391 . S
C708 C723 1.437 1_655 S
H709 C706 0.929 . S
O710 Gd666 2.545 . S
O710 C725 1.258 . S
O711 Gd666 2.606 . S
O711 Gd667 2.362 . S
O711 C722 1.284 . S
O712 Gd667 2.324 . S
O712 C732 1.254 . S
O713 Gd666 2.429 . S
O713 C732 1.268 . S
O714 Gd666 2.545 . S
O714 C722 1.250 . S
O715 Gd666 2.412 . S
O715 C725 1.252 . S
O716 Gd667 2.545 . S
O716 C734 1.258 . S
O717 Gd666 2.362 . S
O717 Gd667 2.606 . S
O717 C733 1.284 . S
O718 Gd666 2.324 . S
O718 C741 1.254 . S
O719 Gd667 2.429 . S
O719 C741 1.268 . S
O720 Gd667 2.545 . S
O720 C733 1.250 . S
O721 Gd667 2.412 . S
O721 C734 1.252 . S
C722 O711 1.284 . S
C722 O714 1.250 . S
C723 H692 0.929 . S
C723 C708 1.437 1_455 S
C723 C724 1.317 . S
C724 H695 0.930 . S
C724 C700 1.431 . S
C724 C723 1.317 . S
C725 Gd666 2.828 . S
C725 O710 1.258 . S
C725 O715 1.252 . S
C725 C726 1.497 . S
C726 C725 1.497 . S
C726 C727 1.395 . S
C726 C728 1.380 . S
C727 C726 1.395 . S
C727 C730 1.398 . S
C727 H742 0.930 . S
C728 C726 1.380 . S
C728 C729 1.391 . S
C728 H743 0.930 . S
C729 C728 1.391 . S
C729 C731 1.387 . S
C730 C727 1.398 . S
C730 C731 1.380 . S
C730 H744 0.930 . S
C731 C729 1.387 . S
C731 C730 1.380 . S
C731 H745 0.930 . S
C732 O712 1.254 . S
C732 O713 1.268 . S
C733 O717 1.284 . S
C733 O720 1.250 . S
C734 Gd667 2.828 . S
C734 O716 1.258 . S
C734 O721 1.252 . S
C734 C735 1.497 . S
C735 C734 1.497 . S
C735 C736 1.395 . S
C735 C737 1.380 . S
C736 C735 1.395 . S
C736 C739 1.398 . S
C736 H746 0.930 . S
C737 C735 1.380 . S
C737 C738 1.391 . S
C737 H747 0.930 . S
C738 C737 1.391 . S
C738 C740 1.387 . S
C739 C736 1.398 . S
C739 C740 1.380 . S
C739 H748 0.930 . S
C740 C738 1.387 . S
C740 C739 1.380 . S
C740 H749 0.930 . S
C741 O718 1.254 . S
C741 O719 1.268 . S
H742 C727 0.930 . S
H743 C728 0.930 . S
H744 C730 0.930 . S
H745 C731 0.930 . S
H746 C736 0.930 . S
H747 C737 0.930 . S
H748 C739 0.930 . S
H749 C740 0.930 . S
Gd750 N781 2.661 . S
Gd750 N787 2.601 . S
Gd750 O794 2.545 . S
Gd750 O795 2.606 . S
Gd750 O797 2.429 . S
Gd750 O798 2.545 . S
Gd750 O799 2.412 . S
Gd750 O801 2.362 . S
Gd750 O802 2.324 . S
Gd750 C809 2.828 . S
Gd751 N760 2.661 . S
Gd751 N764 2.601 . S
Gd751 O795 2.362 . S
Gd751 O796 2.324 . S
Gd751 O800 2.545 . S
Gd751 O801 2.606 . S
Gd751 O803 2.429 . S
Gd751 O804 2.545 . S
Gd751 O805 2.412 . S
Gd751 C818 2.828 . S
C752 C755 1.417 . S
C752 C757 1.431 . S
C752 C758 1.412 . S
C753 C756 1.437 . S
C753 C757 1.317 . S
C753 H772 0.929 . S
C754 C755 1.426 . S
C754 C756 1.413 . S
C754 N764 1.359 . S
C755 C752 1.417 . S
C755 C754 1.426 . S
C755 N760 1.350 . S
C756 C753 1.437 . S
C756 C754 1.413 . S
C756 C766 1.391 . S
C757 C752 1.431 . S
C757 C753 1.317 . S
C757 H768 0.930 . S
C758 C752 1.412 . S
C758 C759 1.355 . S
C758 H770 0.930 . S
C759 C758 1.355 . S
C759 C761 1.402 . S
C759 H771 0.930 . S
N760 Gd751 2.661 . S
N760 C755 1.350 . S
N760 C761 1.307 . S
C761 C759 1.402 . S
C761 N760 1.307 . S
C761 H762 0.930 . S
H762 C761 0.930 . S
C763 N764 1.334 . S
C763 C765 1.394 . S
C763 H767 0.930 . S
N764 Gd751 2.601 . S
N764 C754 1.359 . S
N764 C763 1.334 . S
C765 C763 1.394 . S
C765 C766 1.359 . S
C765 H777 0.930 . S
C766 C756 1.391 . S
C766 C765 1.359 . S
C766 H778 0.929 . S
H767 C763 0.930 . S
H768 C757 0.930 . S
H769 C786 0.930 . S
H770 C758 0.930 . S
H771 C759 0.930 . S
H772 C753 0.929 . S
H773 C791 0.930 . S
H774 C782 0.930 . S
H775 C783 0.930 . S
H776 C807 0.929 . S
H777 C765 0.930 . S
H778 C766 0.929 . S
H779 C808 0.930 . S
H780 C789 0.930 . S
N781 Gd750 2.661 . S
N781 C785 1.350 . S
N781 C786 1.307 . S
C782 H774 0.930 . S
C782 C783 1.355 . S
C782 C784 1.412 . S
C783 H775 0.930 . S
C783 C782 1.355 . S
C783 C786 1.402 . S
C784 C782 1.412 . S
C784 C785 1.417 . S
C784 C808 1.431 . S
C785 N781 1.350 . S
C785 C784 1.417 . S
C785 C788 1.426 . S
C786 H769 0.930 . S
C786 N781 1.307 . S
C786 C783 1.402 . S
N787 Gd750 2.601 . S
N787 C788 1.359 . S
N787 C791 1.334 . S
C788 C785 1.426 . S
C788 N787 1.359 . S
C788 C792 1.413 . S
C789 H780 0.930 . S
C789 C790 1.359 . S
C789 C791 1.394 . S
C790 C789 1.359 . S
C790 C792 1.391 . S
C790 H793 0.929 . S
C791 H773 0.930 . S
C791 N787 1.334 . S
C791 C789 1.394 . S
C792 C788 1.413 . S
C792 C790 1.391 . S
C792 C807 1.437 . S
H793 C790 0.929 . S
O794 Gd750 2.545 . S
O794 C809 1.258 . S
O795 Gd750 2.606 . S
O795 Gd751 2.362 . S
O795 C806 1.284 . S
O796 Gd751 2.324 . S
O796 C816 1.254 . S
O797 Gd750 2.429 . S
O797 C816 1.268 . S
O798 Gd750 2.545 . S
O798 C806 1.250 . S
O799 Gd750 2.412 . S
O799 C809 1.252 . S
O800 Gd751 2.545 . S
O800 C818 1.258 . S
O801 Gd750 2.362 . S
O801 Gd751 2.606 . S
O801 C817 1.284 . S
O802 Gd750 2.324 . S
O802 C825 1.254 . S
O803 Gd751 2.429 . S
O803 C825 1.268 . S
O804 Gd751 2.545 . S
O804 C817 1.250 . S
O805 Gd751 2.412 . S
O805 C818 1.252 . S
C806 O795 1.284 . S
C806 O798 1.250 . S
C807 H776 0.929 . S
C807 C792 1.437 . S
C807 C808 1.317 . S
C808 H779 0.930 . S
C808 C784 1.431 . S
C808 C807 1.317 . S
C809 Gd750 2.828 . S
C809 O794 1.258 . S
C809 O799 1.252 . S
C809 C810 1.497 . S
C810 C809 1.497 . S
C810 C811 1.395 . S
C810 C812 1.380 . S
C811 C810 1.395 . S
C811 C814 1.398 . S
C811 H826 0.930 . S
C812 C810 1.380 . S
C812 C813 1.391 . S
C812 H827 0.930 . S
C813 C812 1.391 . S
C813 C815 1.387 . S
C814 C811 1.398 . S
C814 C815 1.380 . S
C814 H828 0.930 . S
C815 C813 1.387 . S
C815 C814 1.380 . S
C815 H829 0.930 . S
C816 O796 1.254 . S
C816 O797 1.268 . S
C817 O801 1.284 . S
C817 O804 1.250 . S
C818 Gd751 2.828 . S
C818 O800 1.258 . S
C818 O805 1.252 . S
C818 C819 1.497 . S
C819 C818 1.497 . S
C819 C820 1.395 . S
C819 C821 1.380 . S
C820 C819 1.395 . S
C820 C823 1.398 . S
C820 H830 0.930 . S
C821 C819 1.380 . S
C821 C822 1.391 . S
C821 H831 0.930 . S
C822 C821 1.391 . S
C822 C824 1.387 . S
C823 C820 1.398 . S
C823 C824 1.380 . S
C823 H832 0.930 . S
C824 C822 1.387 . S
C824 C823 1.380 . S
C824 H833 0.930 . S
C825 O802 1.254 . S
C825 O803 1.268 . S
H826 C811 0.930 . S
H827 C812 0.930 . S
H828 C814 0.930 . S
H829 C815 0.930 . S
H830 C820 0.930 . S
H831 C821 0.930 . S
H832 C823 0.930 . S
H833 C824 0.930 . S
Gd834 N865 2.661 . S
Gd834 N871 2.601 . S
Gd834 O878 2.545 . S
Gd834 O879 2.606 . S
Gd834 O881 2.429 . S
Gd834 O882 2.545 . S
Gd834 O883 2.412 . S
Gd834 O885 2.362 . S
Gd834 O886 2.324 . S
Gd834 C893 2.828 . S
Gd835 N844 2.661 . S
Gd835 N848 2.601 . S
Gd835 O879 2.362 . S
Gd835 O880 2.324 . S
Gd835 O884 2.545 . S
Gd835 O885 2.606 . S
Gd835 O887 2.429 . S
Gd835 O888 2.545 . S
Gd835 O889 2.412 . S
Gd835 C902 2.828 . S
C836 C839 1.417 1_455 S
C836 C841 1.431 . S
C836 C842 1.412 . S
C837 C840 1.437 1_455 S
C837 C841 1.317 . S
C837 H856 0.929 . S
C838 C839 1.426 . S
C838 C840 1.413 . S
C838 N848 1.359 . S
C839 C836 1.417 1_655 S
C839 C838 1.426 . S
C839 N844 1.350 . S
C840 C837 1.437 1_655 S
C840 C838 1.413 . S
C840 C850 1.391 . S
C841 C836 1.431 . S
C841 C837 1.317 . S
C841 H852 0.930 . S
C842 C836 1.412 . S
C842 C843 1.355 . S
C842 H854 0.930 . S
C843 C842 1.355 . S
C843 C845 1.402 1_455 S
C843 H855 0.930 . S
N844 Gd835 2.661 . S
N844 C839 1.350 . S
N844 C845 1.307 . S
C845 C843 1.402 1_655 S
C845 N844 1.307 . S
C845 H846 0.930 . S
H846 C845 0.930 . S
C847 N848 1.334 . S
C847 C849 1.394 . S
C847 H851 0.930 . S
N848 Gd835 2.601 . S
N848 C838 1.359 . S
N848 C847 1.334 . S
C849 C847 1.394 . S
C849 C850 1.359 . S
C849 H861 0.930 . S
C850 C840 1.391 . S
C850 C849 1.359 . S
C850 H862 0.929 . S
H851 C847 0.930 . S
H852 C841 0.930 . S
H853 C870 0.930 . S
H854 C842 0.930 . S
H855 C843 0.930 . S
H856 C837 0.929 . S
H857 C875 0.930 . S
H858 C866 0.930 . S
H859 C867 0.930 . S
H860 C891 0.929 . S
H861 C849 0.930 . S
H862 C850 0.929 . S
H863 C892 0.930 . S
H864 C873 0.930 . S
N865 Gd834 2.661 . S
N865 C869 1.350 . S
N865 C870 1.307 . S
C866 H858 0.930 . S
C866 C867 1.355 . S
C866 C868 1.412 . S
C867 H859 0.930 . S
C867 C866 1.355 . S
C867 C870 1.402 . S
C868 C866 1.412 . S
C868 C869 1.417 . S
C868 C892 1.431 . S
C869 N865 1.350 . S
C869 C868 1.417 . S
C869 C872 1.426 . S
C870 H853 0.930 . S
C870 N865 1.307 . S
C870 C867 1.402 . S
N871 Gd834 2.601 . S
N871 C872 1.359 . S
N871 C875 1.334 . S
C872 C869 1.426 . S
C872 N871 1.359 . S
C872 C876 1.413 . S
C873 H864 0.930 . S
C873 C874 1.359 . S
C873 C875 1.394 . S
C874 C873 1.359 . S
C874 C876 1.391 . S
C874 H877 0.929 . S
C875 H857 0.930 . S
C875 N871 1.334 . S
C875 C873 1.394 . S
C876 C872 1.413 . S
C876 C874 1.391 . S
C876 C891 1.437 . S
H877 C874 0.929 . S
O878 Gd834 2.545 . S
O878 C893 1.258 . S
O879 Gd834 2.606 . S
O879 Gd835 2.362 . S
O879 C890 1.284 . S
O880 Gd835 2.324 . S
O880 C900 1.254 . S
O881 Gd834 2.429 . S
O881 C900 1.268 . S
O882 Gd834 2.545 . S
O882 C890 1.250 . S
O883 Gd834 2.412 . S
O883 C893 1.252 . S
O884 Gd835 2.545 . S
O884 C902 1.258 . S
O885 Gd834 2.362 . S
O885 Gd835 2.606 . S
O885 C901 1.284 . S
O886 Gd834 2.324 . S
O886 C909 1.254 . S
O887 Gd835 2.429 . S
O887 C909 1.268 . S
O888 Gd835 2.545 . S
O888 C901 1.250 . S
O889 Gd835 2.412 . S
O889 C902 1.252 . S
C890 O879 1.284 . S
C890 O882 1.250 . S
C891 H860 0.929 . S
C891 C876 1.437 . S
C891 C892 1.317 . S
C892 H863 0.930 . S
C892 C868 1.431 . S
C892 C891 1.317 . S
C893 Gd834 2.828 . S
C893 O878 1.258 . S
C893 O883 1.252 . S
C893 C894 1.497 . S
C894 C893 1.497 . S
C894 C895 1.395 . S
C894 C896 1.380 . S
C895 C894 1.395 . S
C895 C898 1.398 . S
C895 H910 0.930 . S
C896 C894 1.380 . S
C896 C897 1.391 . S
C896 H911 0.930 . S
C897 C896 1.391 . S
C897 C899 1.387 . S
C898 C895 1.398 . S
C898 C899 1.380 . S
C898 H912 0.930 . S
C899 C897 1.387 . S
C899 C898 1.380 . S
C899 H913 0.930 . S
C900 O880 1.254 . S
C900 O881 1.268 . S
C901 O885 1.284 . S
C901 O888 1.250 . S
C902 Gd835 2.828 . S
C902 O884 1.258 . S
C902 O889 1.252 . S
C902 C903 1.497 . S
C903 C902 1.497 . S
C903 C904 1.395 . S
C903 C905 1.380 . S
C904 C903 1.395 . S
C904 C907 1.398 . S
C904 H914 0.930 . S
C905 C903 1.380 . S
C905 C906 1.391 . S
C905 H915 0.930 . S
C906 C905 1.391 . S
C906 C908 1.387 . S
C907 C904 1.398 . S
C907 C908 1.380 . S
C907 H916 0.930 . S
C908 C906 1.387 . S
C908 C907 1.380 . S
C908 H917 0.930 . S
C909 O886 1.254 . S
C909 O887 1.268 . S
H910 C895 0.930 . S
H911 C896 0.930 . S
H912 C898 0.930 . S
H913 C899 0.930 . S
H914 C904 0.930 . S
H915 C905 0.930 . S
H916 C907 0.930 . S
H917 C908 0.930 . S
C918 C919 1.363 . S
C918 C924 1.379 . S
C918 N926 1.356 . S
C919 C918 1.363 . S
C919 C925 1.363 . S
C920 C921 1.363 . S
C920 C925 1.379 . S
C920 N927 1.356 . S
C921 C920 1.363 . S
C921 C924 1.363 . S
N922 C924 1.356 . S
N922 H934 0.984 . S
N922 H935 0.985 . S
N923 C925 1.356 . S
N923 H928 0.984 . S
N923 H929 0.985 . S
C924 C918 1.379 . S
C924 C921 1.363 . S
C924 N922 1.356 . S
C925 C919 1.363 . S
C925 C920 1.379 . S
C925 N923 1.356 . S
N926 C918 1.356 . S
N926 H932 0.984 . S
N926 H933 0.984 . S
N927 C920 1.356 . S
N927 H930 0.984 . S
N927 H931 0.985 . S
H928 N923 0.984 . S
H929 N923 0.985 . S
H930 N927 0.984 . S
H931 N927 0.985 . S
H932 N926 0.984 . S
H933 N926 0.984 . S
H934 N922 0.984 . S
H935 N922 0.985 . S
C936 C937 1.363 . S
C936 C942 1.379 . S
C936 N944 1.356 . S
C937 C936 1.363 . S
C937 C943 1.363 . S
C938 C939 1.363 . S
C938 C943 1.379 . S
C938 N945 1.356 1_554 S
C939 C938 1.363 . S
C939 C942 1.363 . S
N940 C942 1.356 . S
N940 H952 0.984 . S
N940 H953 0.985 . S
N941 C943 1.356 . S
N941 H946 0.984 . S
N941 H947 0.985 . S
C942 C936 1.379 . S
C942 C939 1.363 . S
C942 N940 1.356 . S
C943 C937 1.363 . S
C943 C938 1.379 . S
C943 N941 1.356 . S
N944 C936 1.356 . S
N944 H950 0.984 . S
N944 H951 0.984 . S
N945 C938 1.356 1_556 S
N945 H948 0.984 . S
N945 H949 0.985 . S
H946 N941 0.984 . S
H947 N941 0.985 . S
H948 N945 0.984 . S
H949 N945 0.985 . S
H950 N944 0.984 . S
H951 N944 0.984 . S
H952 N940 0.984 . S
H953 N940 0.985 . S
C954 C955 1.363 . S
C954 C960 1.379 . S
C954 N962 1.356 . S
C955 C954 1.363 . S
C955 C961 1.363 . S
C956 C957 1.363 . S
C956 C961 1.379 . S
C956 N963 1.356 . S
C957 C956 1.363 . S
C957 C960 1.363 . S
N958 C960 1.356 . S
N958 H970 0.984 . S
N958 H971 0.985 . S
N959 C961 1.356 . S
N959 H964 0.984 . S
N959 H965 0.985 . S
C960 C954 1.379 . S
C960 C957 1.363 . S
C960 N958 1.356 . S
C961 C955 1.363 . S
C961 C956 1.379 . S
C961 N959 1.356 . S
N962 C954 1.356 . S
N962 H968 0.984 . S
N962 H969 0.984 . S
N963 C956 1.356 . S
N963 H966 0.993 . S
N963 H967 0.985 1_554 S
H964 N959 0.984 . S
H965 N959 0.985 . S
H966 N963 0.993 . S
H967 N963 0.985 1_556 S
H968 N962 0.984 . S
H969 N962 0.984 . S
H970 N958 0.984 . S
H971 N958 0.985 . S
C972 C973 1.363 . S
C972 C978 1.379 . S
C972 N980 1.356 . S
C973 C972 1.363 . S
C973 C979 1.363 . S
C974 C975 1.363 . S
C974 C979 1.379 . S
C974 N981 1.356 . S
C975 C974 1.363 . S
C975 C978 1.363 . S
N976 C978 1.356 1_554 S
N976 H988 0.984 . S
N976 H989 0.985 . S
N977 C979 1.356 . S
N977 H982 0.984 . S
N977 H983 0.985 . S
C978 C972 1.379 . S
C978 C975 1.363 . S
C978 N976 1.356 1_556 S
C979 C973 1.363 . S
C979 C974 1.379 . S
C979 N977 1.356 . S
N980 C972 1.356 . S
N980 H986 0.984 1_556 S
N980 H987 0.984 . S
N981 C974 1.356 . S
N981 H984 0.984 . S
N981 H985 0.985 . S
H982 N977 0.984 . S
H983 N977 0.985 . S
H984 N981 0.984 . S
H985 N981 0.985 . S
H986 N980 0.984 1_554 S
H987 N980 0.984 . S
H988 N976 0.984 . S
H989 N976 0.985 . S
C990 C991 1.363 . S
C990 C996 1.379 . S
C990 N998 1.356 . S
C991 C990 1.363 . S
C991 C997 1.363 . S
C992 C993 1.363 . S
C992 C997 1.379 . S
C992 N999 1.356 . S
C993 C992 1.363 . S
C993 C996 1.363 . S
N994 C996 1.356 1_554 S
N994 H1006 0.984 . S
N994 H1007 0.985 . S
N995 C997 1.356 . S
N995 H1000 0.984 . S
N995 H1001 0.985 . S
C996 C990 1.379 . S
C996 C993 1.363 . S
C996 N994 1.356 1_556 S
C997 C991 1.363 . S
C997 C992 1.379 . S
C997 N995 1.356 . S
N998 C990 1.356 . S
N998 H1004 0.984 . S
N998 H1005 0.984 . S
N999 C992 1.356 . S
N999 H1002 0.984 . S
N999 H1003 0.985 . S
H1000 N995 0.984 . S
H1001 N995 0.985 . S
H1002 N999 0.984 . S
H1003 N999 0.985 . S
H1004 N998 0.984 . S
H1005 N998 0.984 . S
H1006 N994 0.984 . S
H1007 N994 0.985 . S
C1008 C1009 1.363 . S
C1008 C1014 1.379 . S
C1008 N1016 1.356 . S
C1009 C1008 1.363 . S
C1009 C1015 1.363 . S
C1010 C1011 1.363 . S
C1010 C1015 1.379 . S
C1010 N1017 1.356 . S
C1011 C1010 1.363 . S
C1011 C1014 1.363 . S
N1012 C1014 1.356 1_554 S
N1012 H1024 0.984 . S
N1012 H1025 0.985 . S
N1013 C1015 1.356 . S
N1013 H1018 0.984 . S
N1013 H1019 0.985 . S
C1014 C1008 1.379 . S
C1014 C1011 1.363 . S
C1014 N1012 1.356 1_556 S
C1015 C1009 1.363 . S
C1015 C1010 1.379 . S
C1015 N1013 1.356 . S
N1016 C1008 1.356 . S
N1016 H1022 0.984 . S
N1016 H1023 0.984 . S
N1017 C1010 1.356 . S
N1017 H1020 0.984 . S
N1017 H1021 0.985 . S
H1018 N1013 0.984 . S
H1019 N1013 0.985 . S
H1020 N1017 0.984 . S
H1021 N1017 0.985 . S
H1022 N1016 0.984 . S
H1023 N1016 0.984 . S
H1024 N1012 0.984 . S
H1025 N1012 0.985 . S
C1026 C1027 1.363 . S
C1026 C1032 1.379 . S
C1026 N1034 1.356 . S
C1027 C1026 1.363 . S
C1027 C1033 1.363 . S
C1028 C1029 1.363 . S
C1028 C1033 1.379 . S
C1028 N1035 1.356 1_556 S
C1029 C1028 1.363 . S
C1029 C1032 1.363 . S
N1030 C1032 1.356 . S
N1030 H1042 0.984 . S
N1030 H1043 0.985 . S
N1031 C1033 1.356 . S
N1031 H1036 0.984 . S
N1031 H1037 0.985 . S
C1032 C1026 1.379 . S
C1032 C1029 1.363 . S
C1032 N1030 1.356 . S
C1033 C1027 1.363 . S
C1033 C1028 1.379 . S
C1033 N1031 1.356 . S
N1034 C1026 1.356 . S
N1034 H1040 0.984 . S
N1034 H1041 0.984 . S
N1035 C1028 1.356 1_554 S
N1035 H1038 0.984 . S
N1035 H1039 0.985 . S
H1036 N1031 0.984 . S
H1037 N1031 0.985 . S
H1038 N1035 0.984 . S
H1039 N1035 0.985 . S
H1040 N1034 0.984 . S
H1041 N1034 0.984 . S
H1042 N1030 0.984 . S
H1043 N1030 0.985 . S
C1044 C1045 1.363 . S
C1044 C1050 1.379 . S
C1044 N1052 1.356 . S
C1045 C1044 1.363 . S
C1045 C1051 1.363 . S
C1046 C1047 1.363 . S
C1046 C1051 1.379 . S
C1046 N1053 1.356 . S
C1047 C1046 1.363 . S
C1047 C1050 1.363 . S
N1048 C1050 1.356 . S
N1048 H1060 0.984 . S
N1048 H1061 0.985 . S
N1049 C1051 1.356 . S
N1049 H1054 0.984 . S
N1049 H1055 0.985 . S
C1050 C1044 1.379 . S
C1050 C1047 1.363 . S
C1050 N1048 1.356 . S
C1051 C1045 1.363 . S
C1051 C1046 1.379 . S
C1051 N1049 1.356 . S
N1052 C1044 1.356 . S
N1052 H1058 0.984 . S
N1052 H1059 0.984 . S
N1053 C1046 1.356 . S
N1053 H1056 0.984 . S
N1053 H1057 0.985 . S
H1054 N1049 0.984 . S
H1055 N1049 0.985 . S
H1056 N1053 0.984 . S
H1057 N1053 0.985 . S
H1058 N1052 0.984 . S
H1059 N1052 0.984 . S
H1060 N1048 0.984 . S
H1061 N1048 0.985 . S
C1062 C1063 1.363 . S
C1062 C1068 1.379 . S
C1062 N1070 1.356 . S
C1063 C1062 1.363 . S
C1063 C1069 1.363 . S
C1064 C1065 1.363 . S
C1064 C1069 1.379 . S
C1064 N1071 1.356 . S
C1065 C1064 1.363 . S
C1065 C1068 1.363 . S
N1066 C1068 1.356 . S
N1066 H1078 0.984 . S
N1066 H1079 0.985 . S
N1067 C1069 1.356 . S
N1067 H1072 0.984 . S
N1067 H1073 0.985 . S
C1068 C1062 1.379 . S
C1068 C1065 1.363 . S
C1068 N1066 1.356 . S
C1069 C1063 1.363 . S
C1069 C1064 1.379 . S
C1069 N1067 1.356 . S
N1070 C1062 1.356 . S
N1070 H1076 0.984 . S
N1070 H1077 0.984 . S
N1071 C1064 1.356 . S
N1071 H1074 0.984 . S
N1071 H1075 0.982 1_556 S
H1072 N1067 0.984 . S
H1073 N1067 0.985 . S
H1074 N1071 0.984 . S
H1075 N1071 0.982 1_554 S
H1076 N1070 0.984 . S
H1077 N1070 0.984 . S
H1078 N1066 0.984 . S
H1079 N1066 0.985 . S
C1080 C1081 1.363 . S
C1080 C1086 1.379 . S
C1080 N1088 1.356 . S
C1081 C1080 1.363 . S
C1081 C1087 1.363 . S
C1082 C1083 1.363 . S
C1082 C1087 1.379 . S
C1082 N1089 1.356 . S
C1083 C1082 1.363 . S
C1083 C1086 1.363 . S
N1084 C1086 1.356 . S
N1084 H1096 0.984 . S
N1084 H1097 0.985 . S
N1085 C1087 1.356 . S
N1085 H1090 0.984 . S
N1085 H1091 0.985 . S
C1086 C1080 1.379 . S
C1086 C1083 1.363 . S
C1086 N1084 1.356 . S
C1087 C1081 1.363 . S
C1087 C1082 1.379 . S
C1087 N1085 1.356 . S
N1088 C1080 1.356 . S
N1088 H1094 0.984 . S
N1088 H1095 0.984 . S
N1089 C1082 1.356 . S
N1089 H1092 0.984 . S
N1089 H1093 0.985 . S
H1090 N1085 0.984 . S
H1091 N1085 0.985 . S
H1092 N1089 0.984 . S
H1093 N1089 0.985 . S
H1094 N1088 0.984 . S
H1095 N1088 0.984 . S
H1096 N1084 0.984 . S
H1097 N1084 0.985 . S
C1098 C1099 1.363 . S
C1098 C1104 1.379 . S
C1098 N1106 1.356 . S
C1099 C1098 1.363 . S
C1099 C1105 1.363 . S
C1100 C1101 1.363 . S
C1100 C1105 1.379 . S
C1100 N1107 1.356 . S
C1101 C1100 1.363 . S
C1101 C1104 1.363 . S
N1102 C1104 1.356 . S
N1102 H1114 0.984 . S
N1102 H1115 0.985 . S
N1103 C1105 1.356 . S
N1103 H1108 0.984 . S
N1103 H1109 0.985 . S
C1104 C1098 1.379 . S
C1104 C1101 1.363 . S
C1104 N1102 1.356 . S
C1105 C1099 1.363 . S
C1105 C1100 1.379 . S
C1105 N1103 1.356 . S
N1106 C1098 1.356 . S
N1106 H1112 0.984 . S
N1106 H1113 0.984 . S
N1107 C1100 1.356 . S
N1107 H1110 0.984 . S
N1107 H1111 0.985 . S
H1108 N1103 0.984 . S
H1109 N1103 0.985 . S
H1110 N1107 0.984 . S
H1111 N1107 0.985 . S
H1112 N1106 0.984 . S
H1113 N1106 0.984 . S
H1114 N1102 0.984 . S
H1115 N1102 0.985 . S
C1116 C1117 1.363 . S
C1116 C1122 1.379 . S
C1116 N1124 1.356 . S
C1117 C1116 1.363 . S
C1117 C1123 1.363 . S
C1118 C1119 1.363 . S
C1118 C1123 1.379 . S
C1118 N1125 1.356 . S
C1119 C1118 1.363 . S
C1119 C1122 1.363 . S
N1120 C1122 1.356 . S
N1120 H1132 0.984 1_554 S
N1120 H1133 0.985 1_554 S
N1121 C1123 1.356 . S
N1121 H1126 0.984 . S
N1121 H1127 0.985 . S
C1122 C1116 1.379 . S
C1122 C1119 1.363 . S
C1122 N1120 1.356 . S
C1123 C1117 1.363 . S
C1123 C1118 1.379 . S
C1123 N1121 1.356 . S
N1124 C1116 1.356 . S
N1124 H1130 0.984 . S
N1124 H1131 0.984 . S
N1125 C1118 1.356 . S
N1125 H1128 0.984 . S
N1125 H1129 0.985 . S
H1126 N1121 0.984 . S
H1127 N1121 0.985 . S
H1128 N1125 0.984 . S
H1129 N1125 0.985 . S
H1130 N1124 0.984 . S
H1131 N1124 0.984 . S
H1132 N1120 0.984 1_556 S
H1133 N1120 0.985 1_556 S
C1134 C1135 1.363 . S
C1134 C1140 1.379 1_655 S
C1134 N1142 1.356 . S
C1135 C1134 1.363 . S
C1135 C1141 1.363 . S
C1136 C1137 1.363 . S
C1136 C1141 1.379 1_455 S
C1136 N1143 1.356 . S
C1137 C1136 1.363 . S
C1137 C1140 1.363 . S
N1138 C1140 1.356 . S
N1138 H1150 0.984 . S
N1138 H1151 0.985 . S
N1139 C1141 1.356 . S
N1139 H1144 0.984 . S
N1139 H1145 0.985 . S
C1140 C1134 1.379 1_455 S
C1140 C1137 1.363 . S
C1140 N1138 1.356 . S
C1141 C1135 1.363 . S
C1141 C1136 1.379 1_655 S
C1141 N1139 1.356 . S
N1142 C1134 1.356 . S
N1142 H1148 0.984 . S
N1142 H1149 0.984 . S
N1143 C1136 1.356 . S
N1143 H1146 0.984 . S
N1143 H1147 0.985 . S
H1144 N1139 0.984 . S
H1145 N1139 0.985 . S
H1146 N1143 0.984 . S
H1147 N1143 0.985 . S
H1148 N1142 0.984 . S
H1149 N1142 0.984 . S
H1150 N1138 0.984 . S
H1151 N1138 0.985 . S
C1152 C1153 1.363 . S
C1152 C1158 1.379 . S
C1152 N1160 1.356 . S
C1153 C1152 1.363 . S
C1153 C1159 1.363 . S
C1154 C1155 1.363 . S
C1154 C1159 1.379 . S
C1154 N1161 1.356 . S
C1155 C1154 1.363 . S
C1155 C1158 1.363 . S
N1156 C1158 1.356 . S
N1156 H1168 0.984 . S
N1156 H1169 0.985 . S
N1157 C1159 1.356 . S
N1157 H1162 0.984 . S
N1157 H1163 0.985 . S
C1158 C1152 1.379 . S
C1158 C1155 1.363 . S
C1158 N1156 1.356 . S
C1159 C1153 1.363 . S
C1159 C1154 1.379 . S
C1159 N1157 1.356 . S
N1160 C1152 1.356 . S
N1160 H1166 0.984 . S
N1160 H1167 0.984 . S
N1161 C1154 1.356 . S
N1161 H1164 0.984 . S
N1161 H1165 0.985 . S
H1162 N1157 0.984 . S
H1163 N1157 0.985 . S
H1164 N1161 0.984 . S
H1165 N1161 0.985 . S
H1166 N1160 0.984 . S
H1167 N1160 0.984 . S
H1168 N1156 0.984 . S
H1169 N1156 0.985 . S
C1170 C1171 1.363 . S
C1170 C1176 1.379 1_545 S
C1170 N1178 1.356 . S
C1171 C1170 1.363 . S
C1171 C1177 1.363 . S
C1172 C1173 1.363 . S
C1172 C1177 1.379 1_565 S
C1172 N1179 1.356 . S
C1173 C1172 1.363 . S
C1173 C1176 1.363 . S
N1174 C1176 1.356 . S
N1174 H1186 0.984 . S
N1174 H1187 0.985 . S
N1175 C1177 1.356 . S
N1175 H1180 0.984 . S
N1175 H1181 0.985 . S
C1176 C1170 1.379 1_565 S
C1176 C1173 1.363 . S
C1176 N1174 1.356 . S
C1177 C1171 1.363 . S
C1177 C1172 1.379 1_545 S
C1177 N1175 1.356 . S
N1178 C1170 1.356 . S
N1178 H1184 0.984 . S
N1178 H1185 0.984 . S
N1179 C1172 1.356 . S
N1179 H1182 0.984 . S
N1179 H1183 0.985 . S
H1180 N1175 0.984 . S
H1181 N1175 0.985 . S
H1182 N1179 0.984 . S
H1183 N1179 0.985 . S
H1184 N1178 0.984 . S
H1185 N1178 0.984 . S
H1186 N1174 0.984 . S
H1187 N1174 0.985 . S
C1188 C1189 1.363 . S
C1188 C1194 1.379 . S
C1188 N1196 1.356 . S
C1189 C1188 1.363 . S
C1189 C1195 1.363 . S
C1190 C1191 1.363 . S
C1190 C1195 1.379 . S
C1190 N1197 1.356 . S
C1191 C1190 1.363 . S
C1191 C1194 1.363 . S
N1192 C1194 1.356 . S
N1192 H1204 0.984 . S
N1192 H1205 0.985 . S
N1193 C1195 1.356 . S
N1193 H1198 0.984 . S
N1193 H1199 0.985 . S
C1194 C1188 1.379 . S
C1194 C1191 1.363 . S
C1194 N1192 1.356 . S
C1195 C1189 1.363 . S
C1195 C1190 1.379 . S
C1195 N1193 1.356 . S
N1196 C1188 1.356 . S
N1196 H1202 0.984 . S
N1196 H1203 0.984 . S
N1197 C1190 1.356 . S
N1197 H1200 0.984 . S
N1197 H1201 0.985 . S
H1198 N1193 0.984 . S
H1199 N1193 0.985 . S
H1200 N1197 0.984 . S
H1201 N1197 0.985 . S
H1202 N1196 0.984 . S
H1203 N1196 0.984 . S
H1204 N1192 0.984 . S
H1205 N1192 0.985 . S
C1206 C1207 1.363 . S
C1206 C1212 1.379 . S
C1206 N1214 1.356 . S
C1207 C1206 1.363 . S
C1207 C1213 1.363 . S
C1208 C1209 1.363 . S
C1208 C1213 1.379 . S
C1208 N1215 1.356 . S
C1209 C1208 1.363 . S
C1209 C1212 1.363 . S
N1210 C1212 1.356 . S
N1210 H1222 0.984 . S
N1210 H1223 0.985 . S
N1211 C1213 1.356 . S
N1211 H1216 0.984 . S
N1211 H1217 0.985 . S
C1212 C1206 1.379 . S
C1212 C1209 1.363 . S
C1212 N1210 1.356 . S
C1213 C1207 1.363 . S
C1213 C1208 1.379 . S
C1213 N1211 1.356 . S
N1214 C1206 1.356 . S
N1214 H1220 0.984 . S
N1214 H1221 0.984 . S
N1215 C1208 1.356 . S
N1215 H1218 0.984 . S
N1215 H1219 0.985 . S
H1216 N1211 0.984 . S
H1217 N1211 0.985 . S
H1218 N1215 0.984 . S
H1219 N1215 0.985 . S
H1220 N1214 0.984 . S
H1221 N1214 0.984 . S
H1222 N1210 0.984 . S
H1223 N1210 0.985 . S
C1224 C1225 1.363 . S
C1224 C1230 1.379 . S
C1224 N1232 1.356 . S
C1225 C1224 1.363 . S
C1225 C1231 1.363 . S
C1226 C1227 1.363 . S
C1226 C1231 1.379 . S
C1226 N1233 1.356 . S
C1227 C1226 1.363 . S
C1227 C1230 1.363 . S
N1228 C1230 1.356 . S
N1228 H1240 0.984 . S
N1228 H1241 0.985 . S
N1229 C1231 1.356 . S
N1229 H1234 0.984 . S
N1229 H1235 0.985 . S
C1230 C1224 1.379 . S
C1230 C1227 1.363 . S
C1230 N1228 1.356 . S
C1231 C1225 1.363 . S
C1231 C1226 1.379 . S
C1231 N1229 1.356 . S
N1232 C1224 1.356 . S
N1232 H1238 0.984 . S
N1232 H1239 0.984 . S
N1233 C1226 1.356 . S
N1233 H1236 0.984 . S
N1233 H1237 0.985 . S
H1234 N1229 0.984 . S
H1235 N1229 0.985 . S
H1236 N1233 0.984 . S
H1237 N1233 0.985 . S
H1238 N1232 0.984 . S
H1239 N1232 0.984 . S
H1240 N1228 0.984 . S
H1241 N1228 0.985 . S
C1242 C1243 1.363 . S
C1242 C1248 1.379 . S
C1242 N1250 1.356 . S
C1243 C1242 1.363 . S
C1243 C1249 1.363 . S
C1244 C1245 1.363 . S
C1244 C1249 1.379 . S
C1244 N1251 1.356 . S
C1245 C1244 1.363 . S
C1245 C1248 1.363 . S
N1246 C1248 1.356 . S
N1246 H1258 0.984 . S
N1246 H1259 0.985 . S
N1247 C1249 1.356 . S
N1247 H1252 0.984 . S
N1247 H1253 0.985 . S
C1248 C1242 1.379 . S
C1248 C1245 1.363 . S
C1248 N1246 1.356 . S
C1249 C1243 1.363 . S
C1249 C1244 1.379 . S
C1249 N1247 1.356 . S
N1250 C1242 1.356 . S
N1250 H1256 0.984 . S
N1250 H1257 0.984 . S
N1251 C1244 1.356 . S
N1251 H1254 0.984 . S
N1251 H1255 0.985 . S
H1252 N1247 0.984 . S
H1253 N1247 0.985 . S
H1254 N1251 0.984 . S
H1255 N1251 0.985 . S
H1256 N1250 0.984 . S
H1257 N1250 0.984 . S
H1258 N1246 0.984 . S
H1259 N1246 0.985 . S
C1260 C1261 1.363 . S
C1260 C1266 1.379 . S
C1260 N1268 1.356 . S
C1261 C1260 1.363 . S
C1261 C1267 1.363 . S
C1262 C1263 1.363 . S
C1262 C1267 1.379 . S
C1262 N1269 1.356 . S
C1263 C1262 1.363 . S
C1263 C1266 1.363 . S
N1264 C1266 1.356 . S
N1264 H1276 0.984 . S
N1264 H1277 0.985 . S
N1265 C1267 1.356 . S
N1265 H1270 0.984 . S
N1265 H1271 0.985 . S
C1266 C1260 1.379 . S
C1266 C1263 1.363 . S
C1266 N1264 1.356 . S
C1267 C1261 1.363 . S
C1267 C1262 1.379 . S
C1267 N1265 1.356 . S
N1268 C1260 1.356 . S
N1268 H1274 0.984 . S
N1268 H1275 0.984 . S
N1269 C1262 1.356 . S
N1269 H1272 0.984 . S
N1269 H1273 0.985 . S
H1270 N1265 0.984 . S
H1271 N1265 0.985 . S
H1272 N1269 0.984 . S
H1273 N1269 0.985 . S
H1274 N1268 0.984 . S
H1275 N1268 0.984 . S
H1276 N1264 0.984 . S
H1277 N1264 0.985 . S
C1278 C1279 1.363 . S
C1278 C1284 1.379 . S
C1278 N1286 1.356 . S
C1279 C1278 1.363 . S
C1279 C1285 1.363 . S
C1280 C1281 1.363 . S
C1280 C1285 1.379 . S
C1280 N1287 1.356 . S
C1281 C1280 1.363 . S
C1281 C1284 1.363 . S
N1282 C1284 1.356 . S
N1282 H1294 0.984 . S
N1282 H1295 0.985 . S
N1283 C1285 1.356 . S
N1283 H1288 0.984 . S
N1283 H1289 0.985 . S
C1284 C1278 1.379 . S
C1284 C1281 1.363 . S
C1284 N1282 1.356 . S
C1285 C1279 1.363 . S
C1285 C1280 1.379 . S
C1285 N1283 1.356 . S
N1286 C1278 1.356 . S
N1286 H1292 0.984 . S
N1286 H1293 0.984 . S
N1287 C1280 1.356 . S
N1287 H1290 0.984 . S
N1287 H1291 0.985 . S
H1288 N1283 0.984 . S
H1289 N1283 0.985 . S
H1290 N1287 0.984 . S
H1291 N1287 0.985 . S
H1292 N1286 0.984 . S
H1293 N1286 0.984 . S
H1294 N1282 0.984 . S
H1295 N1282 0.985 . S
C1296 C1297 1.363 . S
C1296 C1302 1.379 1_545 S
C1296 N1304 1.356 . S
C1297 C1296 1.363 . S
C1297 C1303 1.363 . S
C1298 C1299 1.363 . S
C1298 C1303 1.379 1_565 S
C1298 N1305 1.356 . S
C1299 C1298 1.363 . S
C1299 C1302 1.363 . S
N1300 C1302 1.356 . S
N1300 H1312 0.984 . S
N1300 H1313 0.985 . S
N1301 C1303 1.356 . S
N1301 H1306 0.984 . S
N1301 H1307 0.985 . S
C1302 C1296 1.379 1_565 S
C1302 C1299 1.363 . S
C1302 N1300 1.356 . S
C1303 C1297 1.363 . S
C1303 C1298 1.379 1_545 S
C1303 N1301 1.356 . S
N1304 C1296 1.356 . S
N1304 H1310 0.984 . S
N1304 H1311 0.984 . S
N1305 C1298 1.356 . S
N1305 H1308 0.984 . S
N1305 H1309 0.985 . S
H1306 N1301 0.984 . S
H1307 N1301 0.985 . S
H1308 N1305 0.984 . S
H1309 N1305 0.985 . S
H1310 N1304 0.984 . S
H1311 N1304 0.984 . S
H1312 N1300 0.984 . S
H1313 N1300 0.985 . S
C1314 C1315 1.363 . S
C1314 C1320 1.379 1_655 S
C1314 N1322 1.356 . S
C1315 C1314 1.363 . S
C1315 C1321 1.363 1_655 S
C1316 C1317 1.363 . S
C1316 C1321 1.379 . S
C1316 N1323 1.356 . S
C1317 C1316 1.363 . S
C1317 C1320 1.363 . S
N1318 C1320 1.356 . S
N1318 H1330 0.984 . S
N1318 H1331 0.985 . S
N1319 C1321 1.356 1_655 S
N1319 H1324 0.984 . S
N1319 H1325 0.985 1_655 S
C1320 C1314 1.379 1_455 S
C1320 C1317 1.363 . S
C1320 N1318 1.356 . S
C1321 C1315 1.363 1_455 S
C1321 C1316 1.379 . S
C1321 N1319 1.356 1_455 S
N1322 C1314 1.356 . S
N1322 H1328 0.984 . S
N1322 H1329 0.984 . S
N1323 C1316 1.356 . S
N1323 H1326 0.984 . S
N1323 H1327 0.985 . S
H1324 N1319 0.984 . S
H1325 N1319 0.985 1_455 S
H1326 N1323 0.984 . S
H1327 N1323 0.985 . S
H1328 N1322 0.984 . S
H1329 N1322 0.984 . S
H1330 N1318 0.984 . S
H1331 N1318 0.985 . S
C1332 C1333 1.363 . S
C1332 C1338 1.379 . S
C1332 N1340 1.356 . S
C1333 C1332 1.363 . S
C1333 C1339 1.363 . S
C1334 C1335 1.363 . S
C1334 C1339 1.379 . S
C1334 N1341 1.356 . S
C1335 C1334 1.363 . S
C1335 C1338 1.363 . S
N1336 C1338 1.356 . S
N1336 H1348 0.984 . S
N1336 H1349 0.985 . S
N1337 C1339 1.356 . S
N1337 H1342 0.984 . S
N1337 H1343 0.985 . S
C1338 C1332 1.379 . S
C1338 C1335 1.363 . S
C1338 N1336 1.356 . S
C1339 C1333 1.363 . S
C1339 C1334 1.379 . S
C1339 N1337 1.356 . S
N1340 C1332 1.356 . S
N1340 H1346 0.984 . S
N1340 H1347 0.984 . S
N1341 C1334 1.356 . S
N1341 H1344 0.984 . S
N1341 H1345 0.985 . S
H1342 N1337 0.984 . S
H1343 N1337 0.985 . S
H1344 N1341 0.984 . S
H1345 N1341 0.985 . S
H1346 N1340 0.984 . S
H1347 N1340 0.984 . S
H1348 N1336 0.984 . S
H1349 N1336 0.985 . S
C1350 C1351 1.363 . S
C1350 C1356 1.379 . S
C1350 N1358 1.356 . S
C1351 C1350 1.363 . S
C1351 C1357 1.363 . S
C1352 C1353 1.363 . S
C1352 C1357 1.379 . S
C1352 N1359 1.356 . S
C1353 C1352 1.363 . S
C1353 C1356 1.363 . S
N1354 C1356 1.356 . S
N1354 H1366 0.984 . S
N1354 H1367 0.985 . S
N1355 C1357 1.356 . S
N1355 H1360 0.984 . S
N1355 H1361 0.985 . S
C1356 C1350 1.379 . S
C1356 C1353 1.363 . S
C1356 N1354 1.356 . S
C1357 C1351 1.363 . S
C1357 C1352 1.379 . S
C1357 N1355 1.356 . S
N1358 C1350 1.356 . S
N1358 H1364 0.984 . S
N1358 H1365 0.984 . S
N1359 C1352 1.356 . S
N1359 H1362 0.984 . S
N1359 H1363 0.985 . S
H1360 N1355 0.984 . S
H1361 N1355 0.985 . S
H1362 N1359 0.984 . S
H1363 N1359 0.985 . S
H1364 N1358 0.984 . S
H1365 N1358 0.984 . S
H1366 N1354 0.984 . S
H1367 N1354 0.985 . S
C1368 C1369 1.363 . S
C1368 C1374 1.379 . S
C1368 N1376 1.356 . S
C1369 C1368 1.363 . S
C1369 C1375 1.363 . S
C1370 C1371 1.363 . S
C1370 C1375 1.379 . S
C1370 N1377 1.356 . S
C1371 C1370 1.363 . S
C1371 C1374 1.363 . S
N1372 C1374 1.356 . S
N1372 H1384 0.984 . S
N1372 H1385 0.985 . S
N1373 C1375 1.356 . S
N1373 H1378 0.984 . S
N1373 H1379 0.985 . S
C1374 C1368 1.379 . S
C1374 C1371 1.363 . S
C1374 N1372 1.356 . S
C1375 C1369 1.363 . S
C1375 C1370 1.379 . S
C1375 N1373 1.356 . S
N1376 C1368 1.356 . S
N1376 H1382 0.984 . S
N1376 H1383 0.984 . S
N1377 C1370 1.356 . S
N1377 H1380 0.984 . S
N1377 H1381 0.985 . S
H1378 N1373 0.984 . S
H1379 N1373 0.985 . S
H1380 N1377 0.984 . S
H1381 N1377 0.985 . S
H1382 N1376 0.984 . S
H1383 N1376 0.984 . S
H1384 N1372 0.984 . S
H1385 N1372 0.985 . S
C1386 C1387 1.363 . S
C1386 C1392 1.379 . S
C1386 N1394 1.356 . S
C1387 C1386 1.363 . S
C1387 C1393 1.363 . S
C1388 C1389 1.363 . S
C1388 C1393 1.379 . S
C1388 N1395 1.356 . S
C1389 C1388 1.363 . S
C1389 C1392 1.363 . S
N1390 C1392 1.356 . S
N1390 H1402 0.984 . S
N1390 H1403 0.985 . S
N1391 C1393 1.356 . S
N1391 H1396 0.984 . S
N1391 H1397 0.985 . S
C1392 C1386 1.379 . S
C1392 C1389 1.363 . S
C1392 N1390 1.356 . S
C1393 C1387 1.363 . S
C1393 C1388 1.379 . S
C1393 N1391 1.356 . S
N1394 C1386 1.356 . S
N1394 H1400 0.984 . S
N1394 H1401 0.984 . S
N1395 C1388 1.356 . S
N1395 H1398 0.984 . S
N1395 H1399 0.985 . S
H1396 N1391 0.984 . S
H1397 N1391 0.985 . S
H1398 N1395 0.984 . S
H1399 N1395 0.985 . S
H1400 N1394 0.984 . S
H1401 N1394 0.984 . S
H1402 N1390 0.984 . S
H1403 N1390 0.985 . S
C1404 C1405 1.363 . S
C1404 C1410 1.379 1_565 S
C1404 N1412 1.356 . S
C1405 C1404 1.363 . S
C1405 C1411 1.363 . S
C1406 C1407 1.363 . S
C1406 C1411 1.379 1_545 S
C1406 N1413 1.356 . S
C1407 C1406 1.363 . S
C1407 C1410 1.363 . S
N1408 C1410 1.356 . S
N1408 H1420 0.984 . S
N1408 H1421 0.985 . S
N1409 C1411 1.356 . S
N1409 H1414 0.984 . S
N1409 H1415 0.985 . S
C1410 C1404 1.379 1_545 S
C1410 C1407 1.363 . S
C1410 N1408 1.356 . S
C1411 C1405 1.363 . S
C1411 C1406 1.379 1_565 S
C1411 N1409 1.356 . S
N1412 C1404 1.356 . S
N1412 H1418 0.993 . S
N1412 H1419 0.984 . S
N1413 C1406 1.356 . S
N1413 H1416 0.984 . S
N1413 H1417 0.985 . S
H1414 N1409 0.984 . S
H1415 N1409 0.985 . S
H1416 N1413 0.984 . S
H1417 N1413 0.985 . S
H1418 N1412 0.993 . S
H1419 N1412 0.984 . S
H1420 N1408 0.984 . S
H1421 N1408 0.985 . S
C1422 C1423 1.363 1_655 S
C1422 C1428 1.379 . S
C1422 N1430 1.356 1_655 S
C1423 C1422 1.363 1_455 S
C1423 C1429 1.363 . S
C1424 C1425 1.363 . S
C1424 C1429 1.379 1_655 S
C1424 N1431 1.356 . S
C1425 C1424 1.363 . S
C1425 C1428 1.363 . S
N1426 C1428 1.356 . S
N1426 H1438 0.984 . S
N1426 H1439 0.985 . S
N1427 C1429 1.356 . S
N1427 H1432 0.984 . S
N1427 H1433 0.985 . S
C1428 C1422 1.379 . S
C1428 C1425 1.363 . S
C1428 N1426 1.356 . S
C1429 C1423 1.363 . S
C1429 C1424 1.379 1_455 S
C1429 N1427 1.356 . S
N1430 C1422 1.356 1_455 S
N1430 H1436 0.984 1_455 S
N1430 H1437 0.984 . S
N1431 C1424 1.356 . S
N1431 H1434 0.984 . S
N1431 H1435 0.985 . S
H1432 N1427 0.984 . S
H1433 N1427 0.985 . S
H1434 N1431 0.984 . S
H1435 N1431 0.985 . S
H1436 N1430 0.984 1_655 S
H1437 N1430 0.984 . S
H1438 N1426 0.984 . S
H1439 N1426 0.985 . S
C1440 C1441 1.363 . S
C1440 C1446 1.379 . S
C1440 N1448 1.356 . S
C1441 C1440 1.363 . S
C1441 C1447 1.363 . S
C1442 C1443 1.363 . S
C1442 C1447 1.379 . S
C1442 N1449 1.356 . S
C1443 C1442 1.363 . S
C1443 C1446 1.363 . S
N1444 C1446 1.356 . S
N1444 H1456 0.984 . S
N1444 H1457 0.985 . S
N1445 C1447 1.356 . S
N1445 H1450 0.984 . S
N1445 H1451 0.985 . S
C1446 C1440 1.379 . S
C1446 C1443 1.363 . S
C1446 N1444 1.356 . S
C1447 C1441 1.363 . S
C1447 C1442 1.379 . S
C1447 N1445 1.356 . S
N1448 C1440 1.356 . S
N1448 H1454 0.984 . S
N1448 H1455 0.984 . S
N1449 C1442 1.356 . S
N1449 H1452 0.984 . S
N1449 H1453 0.985 . S
H1450 N1445 0.984 . S
H1451 N1445 0.985 . S
H1452 N1449 0.984 . S
H1453 N1449 0.985 . S
H1454 N1448 0.984 . S
H1455 N1448 0.984 . S
H1456 N1444 0.984 . S
H1457 N1444 0.985 . S
C1458 C1459 1.363 1_655 S
C1458 C1464 1.379 . S
C1458 N1466 1.356 1_655 S
C1459 C1458 1.363 1_455 S
C1459 C1465 1.363 . S
C1460 C1461 1.363 . S
C1460 C1465 1.379 1_655 S
C1460 N1467 1.356 . S
C1461 C1460 1.363 . S
C1461 C1464 1.363 . S
N1462 C1464 1.356 . S
N1462 H1474 0.984 . S
N1462 H1475 0.985 . S
N1463 C1465 1.356 . S
N1463 H1468 0.984 . S
N1463 H1469 0.985 . S
C1464 C1458 1.379 . S
C1464 C1461 1.363 . S
C1464 N1462 1.356 . S
C1465 C1459 1.363 . S
C1465 C1460 1.379 1_455 S
C1465 N1463 1.356 . S
N1466 C1458 1.356 1_455 S
N1466 H1472 0.984 1_455 S
N1466 H1473 0.984 . S
N1467 C1460 1.356 . S
N1467 H1470 0.984 . S
N1467 H1471 0.985 . S
H1468 N1463 0.984 . S
H1469 N1463 0.985 . S
H1470 N1467 0.984 . S
H1471 N1467 0.985 . S
H1472 N1466 0.984 1_655 S
H1473 N1466 0.984 . S
H1474 N1462 0.984 . S
H1475 N1462 0.985 . S
C1476 C1477 1.363 . S
C1476 C1482 1.379 . S
C1476 N1484 1.356 . S
C1477 C1476 1.363 . S
C1477 C1483 1.363 . S
C1478 C1479 1.363 . S
C1478 C1483 1.379 . S
C1478 N1485 1.356 . S
C1479 C1478 1.363 . S
C1479 C1482 1.363 . S
N1480 C1482 1.356 . S
N1480 H1492 0.984 . S
N1480 H1493 0.985 . S
N1481 C1483 1.356 . S
N1481 H1486 0.984 . S
N1481 H1487 0.985 . S
C1482 C1476 1.379 . S
C1482 C1479 1.363 . S
C1482 N1480 1.356 . S
C1483 C1477 1.363 . S
C1483 C1478 1.379 . S
C1483 N1481 1.356 . S
N1484 C1476 1.356 . S
N1484 H1490 0.984 . S
N1484 H1491 0.984 . S
N1485 C1478 1.356 . S
N1485 H1488 0.984 . S
N1485 H1489 0.985 . S
H1486 N1481 0.984 . S
H1487 N1481 0.985 . S
H1488 N1485 0.984 . S
H1489 N1485 0.985 . S
H1490 N1484 0.984 . S
H1491 N1484 0.984 . S
H1492 N1480 0.984 . S
H1493 N1480 0.985 . S
C1494 C1495 1.363 . S
C1494 C1500 1.379 1_565 S
C1494 N1502 1.356 . S
C1495 C1494 1.363 . S
C1495 C1501 1.363 . S
C1496 C1497 1.363 . S
C1496 C1501 1.379 1_545 S
C1496 N1503 1.356 . S
C1497 C1496 1.363 . S
C1497 C1500 1.363 . S
N1498 C1500 1.356 . S
N1498 H1510 0.984 . S
N1498 H1511 0.985 . S
N1499 C1501 1.356 . S
N1499 H1504 0.984 . S
N1499 H1505 0.985 . S
C1500 C1494 1.379 1_545 S
C1500 C1497 1.363 . S
C1500 N1498 1.356 . S
C1501 C1495 1.363 . S
C1501 C1496 1.379 1_565 S
C1501 N1499 1.356 . S
N1502 C1494 1.356 . S
N1502 H1508 0.984 . S
N1502 H1509 0.984 . S
N1503 C1496 1.356 . S
N1503 H1506 0.984 . S
N1503 H1507 0.985 . S
H1504 N1499 0.984 . S
H1505 N1499 0.985 . S
H1506 N1503 0.984 . S
H1507 N1503 0.985 . S
H1508 N1502 0.984 . S
H1509 N1502 0.984 . S
H1510 N1498 0.984 . S
H1511 N1498 0.985 . S
C1512 C1513 1.363 . S
C1512 C1518 1.379 . S
C1512 N1520 1.356 . S
C1513 C1512 1.363 . S
C1513 C1519 1.363 . S
C1514 C1515 1.363 . S
C1514 C1519 1.379 . S
C1514 N1521 1.356 . S
C1515 C1514 1.363 . S
C1515 C1518 1.363 . S
N1516 C1518 1.356 . S
N1516 H1528 0.984 . S
N1516 H1529 0.985 . S
N1517 C1519 1.356 . S
N1517 H1522 0.984 . S
N1517 H1523 0.985 . S
C1518 C1512 1.379 . S
C1518 C1515 1.363 . S
C1518 N1516 1.356 . S
C1519 C1513 1.363 . S
C1519 C1514 1.379 . S
C1519 N1517 1.356 . S
N1520 C1512 1.356 . S
N1520 H1526 0.984 . S
N1520 H1527 0.984 . S
N1521 C1514 1.356 . S
N1521 H1524 0.984 . S
N1521 H1525 0.985 . S
H1522 N1517 0.984 . S
H1523 N1517 0.985 . S
H1524 N1521 0.984 . S
H1525 N1521 0.985 . S
H1526 N1520 0.984 . S
H1527 N1520 0.984 . S
H1528 N1516 0.984 . S
H1529 N1516 0.985 . S
C1530 C1531 1.363 . S
C1530 C1536 1.379 . S
C1530 N1538 1.356 . S
C1531 C1530 1.363 . S
C1531 C1537 1.363 . S
C1532 C1533 1.363 . S
C1532 C1537 1.379 . S
C1532 N1539 1.356 . S
C1533 C1532 1.363 . S
C1533 C1536 1.363 . S
N1534 C1536 1.356 . S
N1534 H1546 0.984 . S
N1534 H1547 0.985 . S
N1535 C1537 1.356 . S
N1535 H1540 0.984 . S
N1535 H1541 0.985 . S
C1536 C1530 1.379 . S
C1536 C1533 1.363 . S
C1536 N1534 1.356 . S
C1537 C1531 1.363 . S
C1537 C1532 1.379 . S
C1537 N1535 1.356 . S
N1538 C1530 1.356 . S
N1538 H1544 0.984 . S
N1538 H1545 0.984 . S
N1539 C1532 1.356 . S
N1539 H1542 0.984 . S
N1539 H1543 0.985 . S
H1540 N1535 0.984 . S
H1541 N1535 0.985 . S
H1542 N1539 0.984 . S
H1543 N1539 0.985 . S
H1544 N1538 0.984 . S
H1545 N1538 0.984 . S
H1546 N1534 0.984 . S
H1547 N1534 0.985 . S
C1548 C1549 1.363 . S
C1548 C1554 1.379 . S
C1548 N1556 1.356 . S
C1549 C1548 1.363 . S
C1549 C1555 1.363 . S
C1550 C1551 1.363 . S
C1550 C1555 1.379 . S
C1550 N1557 1.356 . S
C1551 C1550 1.363 . S
C1551 C1554 1.363 . S
N1552 C1554 1.356 . S
N1552 H1564 0.984 . S
N1552 H1565 0.985 . S
N1553 C1555 1.356 . S
N1553 H1558 0.984 . S
N1553 H1559 0.985 . S
C1554 C1548 1.379 . S
C1554 C1551 1.363 . S
C1554 N1552 1.356 . S
C1555 C1549 1.363 . S
C1555 C1550 1.379 . S
C1555 N1553 1.356 . S
N1556 C1548 1.356 . S
N1556 H1562 0.984 . S
N1556 H1563 0.984 . S
N1557 C1550 1.356 . S
N1557 H1560 0.984 . S
N1557 H1561 0.985 . S
H1558 N1553 0.984 . S
H1559 N1553 0.985 . S
H1560 N1557 0.984 . S
H1561 N1557 0.985 . S
H1562 N1556 0.984 . S
H1563 N1556 0.984 . S
H1564 N1552 0.984 . S
H1565 N1552 0.985 . S
C1566 C1567 1.363 . S
C1566 C1572 1.379 . S
C1566 N1574 1.356 . S
C1567 C1566 1.363 . S
C1567 C1573 1.363 . S
C1568 C1569 1.363 . S
C1568 C1573 1.379 . S
C1568 N1575 1.356 1_565 S
C1569 C1568 1.363 . S
C1569 C1572 1.363 . S
N1570 C1572 1.356 . S
N1570 H1582 0.984 . S
N1570 H1583 0.985 . S
N1571 C1573 1.356 . S
N1571 H1576 0.984 . S
N1571 H1577 0.985 . S
C1572 C1566 1.379 . S
C1572 C1569 1.363 . S
C1572 N1570 1.356 . S
C1573 C1567 1.363 . S
C1573 C1568 1.379 . S
C1573 N1571 1.356 . S
N1574 C1566 1.356 . S
N1574 H1580 0.984 . S
N1574 H1581 0.984 . S
N1575 C1568 1.356 1_545 S
N1575 H1578 0.984 . S
N1575 H1579 0.985 . S
H1576 N1571 0.984 . S
H1577 N1571 0.985 . S
H1578 N1575 0.984 . S
H1579 N1575 0.985 . S
H1580 N1574 0.984 . S
H1581 N1574 0.984 . S
H1582 N1570 0.984 . S
H1583 N1570 0.985 . S
C1584 C1585 1.363 . S
C1584 C1590 1.379 . S
C1584 N1592 1.356 . S
C1585 C1584 1.363 . S
C1585 C1591 1.363 . S
C1586 C1587 1.363 . S
C1586 C1591 1.379 . S
C1586 N1593 1.356 . S
C1587 C1586 1.363 . S
C1587 C1590 1.363 . S
N1588 C1590 1.356 . S
N1588 H1600 0.984 . S
N1588 H1601 0.985 . S
N1589 C1591 1.356 . S
N1589 H1594 0.984 . S
N1589 H1595 0.985 . S
C1590 C1584 1.379 . S
C1590 C1587 1.363 . S
C1590 N1588 1.356 . S
C1591 C1585 1.363 . S
C1591 C1586 1.379 . S
C1591 N1589 1.356 . S
N1592 C1584 1.356 . S
N1592 H1598 0.984 . S
N1592 H1599 0.984 . S
N1593 C1586 1.356 . S
N1593 H1596 0.984 . S
N1593 H1597 0.985 1_455 S
H1594 N1589 0.984 . S
H1595 N1589 0.985 . S
H1596 N1593 0.984 . S
H1597 N1593 0.985 1_655 S
H1598 N1592 0.984 . S
H1599 N1592 0.984 . S
H1600 N1588 0.984 . S
H1601 N1588 0.985 . S
C1602 C1603 1.363 . S
C1602 C1608 1.379 . S
C1602 N1610 1.356 . S
C1603 C1602 1.363 . S
C1603 C1609 1.363 . S
C1604 C1605 1.363 . S
C1604 C1609 1.379 . S
C1604 N1611 1.356 . S
C1605 C1604 1.363 . S
C1605 C1608 1.363 . S
N1606 C1608 1.356 . S
N1606 H1618 0.984 . S
N1606 H1619 0.985 . S
N1607 C1609 1.356 . S
N1607 H1612 0.984 . S
N1607 H1613 0.985 . S
C1608 C1602 1.379 . S
C1608 C1605 1.363 . S
C1608 N1606 1.356 . S
C1609 C1603 1.363 . S
C1609 C1604 1.379 . S
C1609 N1607 1.356 . S
N1610 C1602 1.356 . S
N1610 H1616 0.984 . S
N1610 H1617 0.984 . S
N1611 C1604 1.356 . S
N1611 H1614 0.984 . S
N1611 H1615 0.985 . S
H1612 N1607 0.984 . S
H1613 N1607 0.985 . S
H1614 N1611 0.984 . S
H1615 N1611 0.985 . S
H1616 N1610 0.984 . S
H1617 N1610 0.984 . S
H1618 N1606 0.984 . S
H1619 N1606 0.985 . S
C1620 C1621 1.363 . S
C1620 C1626 1.379 . S
C1620 N1628 1.356 1_655 S
C1621 C1620 1.363 . S
C1621 C1627 1.363 . S
C1622 C1623 1.363 . S
C1622 C1627 1.379 . S
C1622 N1629 1.356 . S
C1623 C1622 1.363 . S
C1623 C1626 1.363 . S
N1624 C1626 1.356 1_455 S
N1624 H1636 0.984 . S
N1624 H1637 0.985 . S
N1625 C1627 1.356 . S
N1625 H1630 0.984 . S
N1625 H1631 0.985 . S
C1626 C1620 1.379 . S
C1626 C1623 1.363 . S
C1626 N1624 1.356 1_655 S
C1627 C1621 1.363 . S
C1627 C1622 1.379 . S
C1627 N1625 1.356 . S
N1628 C1620 1.356 1_455 S
N1628 H1634 0.984 . S
N1628 H1635 0.984 1_455 S
N1629 C1622 1.356 . S
N1629 H1632 0.984 . S
N1629 H1633 0.985 . S
H1630 N1625 0.984 . S
H1631 N1625 0.985 . S
H1632 N1629 0.984 . S
H1633 N1629 0.985 . S
H1634 N1628 0.984 . S
H1635 N1628 0.984 1_655 S
H1636 N1624 0.984 . S
H1637 N1624 0.985 . S
C1638 C1639 1.363 . S
C1638 C1644 1.379 . S
C1638 N1646 1.356 . S
C1639 C1638 1.363 . S
C1639 C1645 1.363 . S
C1640 C1641 1.363 . S
C1640 C1645 1.379 . S
C1640 N1647 1.356 . S
C1641 C1640 1.363 . S
C1641 C1644 1.363 . S
N1642 C1644 1.356 . S
N1642 H1654 0.984 . S
N1642 H1655 0.985 . S
N1643 C1645 1.356 . S
N1643 H1648 0.984 . S
N1643 H1649 0.985 . S
C1644 C1638 1.379 . S
C1644 C1641 1.363 . S
C1644 N1642 1.356 . S
C1645 C1639 1.363 . S
C1645 C1640 1.379 . S
C1645 N1643 1.356 . S
N1646 C1638 1.356 . S
N1646 H1652 0.984 . S
N1646 H1653 0.984 . S
N1647 C1640 1.356 . S
N1647 H1650 0.984 . S
N1647 H1651 0.985 . S
H1648 N1643 0.984 . S
H1649 N1643 0.985 . S
H1650 N1647 0.984 . S
H1651 N1647 0.985 . S
H1652 N1646 0.984 . S
H1653 N1646 0.984 . S
H1654 N1642 0.984 . S
H1655 N1642 0.985 . S
C1656 C1657 1.363 . S
C1656 C1662 1.379 . S
C1656 N1664 1.356 . S
C1657 C1656 1.363 . S
C1657 C1663 1.363 . S
C1658 C1659 1.363 . S
C1658 C1663 1.379 . S
C1658 N1665 1.356 . S
C1659 C1658 1.363 . S
C1659 C1662 1.363 . S
N1660 C1662 1.356 1_565 S
N1660 H1672 0.984 . S
N1660 H1673 0.985 . S
N1661 C1663 1.356 . S
N1661 H1666 0.984 . S
N1661 H1667 0.985 . S
C1662 C1656 1.379 . S
C1662 C1659 1.363 . S
C1662 N1660 1.356 1_545 S
C1663 C1657 1.363 . S
C1663 C1658 1.379 . S
C1663 N1661 1.356 . S
N1664 C1656 1.356 . S
N1664 H1670 0.984 . S
N1664 H1671 0.984 . S
N1665 C1658 1.356 . S
N1665 H1668 0.984 . S
N1665 H1669 0.985 . S
H1666 N1661 0.984 . S
H1667 N1661 0.985 . S
H1668 N1665 0.984 . S
H1669 N1665 0.985 . S
H1670 N1664 0.984 . S
H1671 N1664 0.984 . S
H1672 N1660 0.984 . S
H1673 N1660 0.985 . S
C1674 C1675 1.363 . S
C1674 C1680 1.379 . S
C1674 N1682 1.356 . S
C1675 C1674 1.363 . S
C1675 C1681 1.363 . S
C1676 C1677 1.363 . S
C1676 C1681 1.379 . S
C1676 N1683 1.356 . S
C1677 C1676 1.363 . S
C1677 C1680 1.363 . S
N1678 C1680 1.356 . S
N1678 H1690 0.984 . S
N1678 H1691 0.985 . S
N1679 C1681 1.356 . S
N1679 H1684 0.984 . S
N1679 H1685 0.985 . S
C1680 C1674 1.379 . S
C1680 C1677 1.363 . S
C1680 N1678 1.356 . S
C1681 C1675 1.363 . S
C1681 C1676 1.379 . S
C1681 N1679 1.356 . S
N1682 C1674 1.356 . S
N1682 H1688 0.984 . S
N1682 H1689 0.984 . S
N1683 C1676 1.356 . S
N1683 H1686 0.984 . S
N1683 H1687 0.985 . S
H1684 N1679 0.984 . S
H1685 N1679 0.985 . S
H1686 N1683 0.984 . S
H1687 N1683 0.985 . S
H1688 N1682 0.984 . S
H1689 N1682 0.984 . S
H1690 N1678 0.984 . S
H1691 N1678 0.985 . S
C1692 C1693 1.363 . S
C1692 C1698 1.379 . S
C1692 N1700 1.356 . S
C1693 C1692 1.363 . S
C1693 C1699 1.363 . S
C1694 C1695 1.363 . S
C1694 C1699 1.379 . S
C1694 N1701 1.356 . S
C1695 C1694 1.363 . S
C1695 C1698 1.363 . S
N1696 C1698 1.356 . S
N1696 H1708 0.984 . S
N1696 H1709 0.985 . S
N1697 C1699 1.356 . S
N1697 H1702 0.984 . S
N1697 H1703 0.985 . S
C1698 C1692 1.379 . S
C1698 C1695 1.363 . S
C1698 N1696 1.356 . S
C1699 C1693 1.363 . S
C1699 C1694 1.379 . S
C1699 N1697 1.356 . S
N1700 C1692 1.356 . S
N1700 H1706 0.984 . S
N1700 H1707 0.984 . S
N1701 C1694 1.356 . S
N1701 H1704 0.984 . S
N1701 H1705 0.985 . S
H1702 N1697 0.984 . S
H1703 N1697 0.985 . S
H1704 N1701 0.984 . S
H1705 N1701 0.985 . S
H1706 N1700 0.984 . S
H1707 N1700 0.984 . S
H1708 N1696 0.984 . S
H1709 N1696 0.985 . S
C1710 C1711 1.363 . S
C1710 C1716 1.379 . S
C1710 N1718 1.356 . S
C1711 C1710 1.363 . S
C1711 C1717 1.363 . S
C1712 C1713 1.363 . S
C1712 C1717 1.379 . S
C1712 N1719 1.356 . S
C1713 C1712 1.363 . S
C1713 C1716 1.363 . S
N1714 C1716 1.356 . S
N1714 H1726 0.984 . S
N1714 H1727 0.985 . S
N1715 C1717 1.356 . S
N1715 H1720 0.984 . S
N1715 H1721 0.985 . S
C1716 C1710 1.379 . S
C1716 C1713 1.363 . S
C1716 N1714 1.356 . S
C1717 C1711 1.363 . S
C1717 C1712 1.379 . S
C1717 N1715 1.356 . S
N1718 C1710 1.356 . S
N1718 H1724 0.984 . S
N1718 H1725 0.984 . S
N1719 C1712 1.356 . S
N1719 H1722 0.984 . S
N1719 H1723 0.985 . S
H1720 N1715 0.984 . S
H1721 N1715 0.985 . S
H1722 N1719 0.984 . S
H1723 N1719 0.985 . S
H1724 N1718 0.984 . S
H1725 N1718 0.984 . S
H1726 N1714 0.984 . S
H1727 N1714 0.985 . S
C1728 C1729 1.363 . S
C1728 C1734 1.379 . S
C1728 N1736 1.356 . S
C1729 C1728 1.363 . S
C1729 C1735 1.363 . S
C1730 C1731 1.363 . S
C1730 C1735 1.379 . S
C1730 N1737 1.356 . S
C1731 C1730 1.363 . S
C1731 C1734 1.363 . S
N1732 C1734 1.356 . S
N1732 H1744 0.984 . S
N1732 H1745 0.985 . S
N1733 C1735 1.356 . S
N1733 H1738 0.984 . S
N1733 H1739 0.985 . S
C1734 C1728 1.379 . S
C1734 C1731 1.363 . S
C1734 N1732 1.356 . S
C1735 C1729 1.363 . S
C1735 C1730 1.379 . S
C1735 N1733 1.356 . S
N1736 C1728 1.356 . S
N1736 H1742 0.984 . S
N1736 H1743 0.984 . S
N1737 C1730 1.356 . S
N1737 H1740 0.984 . S
N1737 H1741 0.985 . S
H1738 N1733 0.984 . S
H1739 N1733 0.985 . S
H1740 N1737 0.984 . S
H1741 N1737 0.985 . S
H1742 N1736 0.984 . S
H1743 N1736 0.984 . S
H1744 N1732 0.984 . S
H1745 N1732 0.985 . S
C1746 C1747 1.363 . S
C1746 C1752 1.379 . S
C1746 N1754 1.356 . S
C1747 C1746 1.363 . S
C1747 C1753 1.363 . S
C1748 C1749 1.363 . S
C1748 C1753 1.379 . S
C1748 N1755 1.356 . S
C1749 C1748 1.363 . S
C1749 C1752 1.363 . S
N1750 C1752 1.356 . S
N1750 H1762 0.984 . S
N1750 H1763 0.985 . S
N1751 C1753 1.356 . S
N1751 H1756 0.984 . S
N1751 H1757 0.985 . S
C1752 C1746 1.379 . S
C1752 C1749 1.363 . S
C1752 N1750 1.356 . S
C1753 C1747 1.363 . S
C1753 C1748 1.379 . S
C1753 N1751 1.356 . S
N1754 C1746 1.356 . S
N1754 H1760 0.984 . S
N1754 H1761 0.984 . S
N1755 C1748 1.356 . S
N1755 H1758 0.984 . S
N1755 H1759 0.985 . S
H1756 N1751 0.984 . S
H1757 N1751 0.985 . S
H1758 N1755 0.984 . S
H1759 N1755 0.985 . S
H1760 N1754 0.984 . S
H1761 N1754 0.984 . S
H1762 N1750 0.984 . S
H1763 N1750 0.985 . S
C1764 C1765 1.363 . S
C1764 C1770 1.379 . S
C1764 N1772 1.356 . S
C1765 C1764 1.363 . S
C1765 C1771 1.363 . S
C1766 C1767 1.363 . S
C1766 C1771 1.379 . S
C1766 N1773 1.356 . S
C1767 C1766 1.363 . S
C1767 C1770 1.363 . S
N1768 C1770 1.356 . S
N1768 H1780 0.984 . S
N1768 H1781 0.985 . S
N1769 C1771 1.356 . S
N1769 H1774 0.984 . S
N1769 H1775 0.985 . S
C1770 C1764 1.379 . S
C1770 C1767 1.363 . S
C1770 N1768 1.356 . S
C1771 C1765 1.363 . S
C1771 C1766 1.379 . S
C1771 N1769 1.356 . S
N1772 C1764 1.356 . S
N1772 H1778 0.984 . S
N1772 H1779 0.984 . S
N1773 C1766 1.356 . S
N1773 H1776 0.984 . S
N1773 H1777 0.985 . S
H1774 N1769 0.984 . S
H1775 N1769 0.985 . S
H1776 N1773 0.984 . S
H1777 N1773 0.985 . S
H1778 N1772 0.984 . S
H1779 N1772 0.984 . S
H1780 N1768 0.984 . S
H1781 N1768 0.985 . S
C1782 C1783 1.363 . S
C1782 C1788 1.379 . S
C1782 N1790 1.356 . S
C1783 C1782 1.363 . S
C1783 C1789 1.363 . S
C1784 C1785 1.363 . S
C1784 C1789 1.379 . S
C1784 N1791 1.356 . S
C1785 C1784 1.363 . S
C1785 C1788 1.363 . S
N1786 C1788 1.356 . S
N1786 H1798 0.984 . S
N1786 H1799 0.985 . S
N1787 C1789 1.356 . S
N1787 H1792 0.984 . S
N1787 H1793 0.985 . S
C1788 C1782 1.379 . S
C1788 C1785 1.363 . S
C1788 N1786 1.356 . S
C1789 C1783 1.363 . S
C1789 C1784 1.379 . S
C1789 N1787 1.356 . S
N1790 C1782 1.356 . S
N1790 H1796 0.984 . S
N1790 H1797 0.984 . S
N1791 C1784 1.356 . S
N1791 H1794 0.984 . S
N1791 H1795 0.985 . S
H1792 N1787 0.984 . S
H1793 N1787 0.985 . S
H1794 N1791 0.984 . S
H1795 N1791 0.985 . S
H1796 N1790 0.984 . S
H1797 N1790 0.984 . S
H1798 N1786 0.984 . S
H1799 N1786 0.985 . S
C1800 C1801 1.363 . S
C1800 C1806 1.379 . S
C1800 N1808 1.356 . S
C1801 C1800 1.363 . S
C1801 C1807 1.363 . S
C1802 C1803 1.363 . S
C1802 C1807 1.379 . S
C1802 N1809 1.356 . S
C1803 C1802 1.363 . S
C1803 C1806 1.363 . S
N1804 C1806 1.356 . S
N1804 H1816 0.984 . S
N1804 H1817 0.985 . S
N1805 C1807 1.356 . S
N1805 H1810 0.984 . S
N1805 H1811 0.985 . S
C1806 C1800 1.379 . S
C1806 C1803 1.363 . S
C1806 N1804 1.356 . S
C1807 C1801 1.363 . S
C1807 C1802 1.379 . S
C1807 N1805 1.356 . S
N1808 C1800 1.356 . S
N1808 H1814 0.984 . S
N1808 H1815 0.984 . S
N1809 C1802 1.356 . S
N1809 H1812 0.984 . S
N1809 H1813 0.985 . S
H1810 N1805 0.984 . S
H1811 N1805 0.985 . S
H1812 N1809 0.984 . S
H1813 N1809 0.985 . S
H1814 N1808 0.984 . S
H1815 N1808 0.984 . S
H1816 N1804 0.984 . S
H1817 N1804 0.985 . S
C1818 C1819 1.363 . S
C1818 C1824 1.379 . S
C1818 N1826 1.356 . S
C1819 C1818 1.363 . S
C1819 C1825 1.363 . S
C1820 C1821 1.363 . S
C1820 C1825 1.379 . S
C1820 N1827 1.356 . S
C1821 C1820 1.363 . S
C1821 C1824 1.363 . S
N1822 C1824 1.356 . S
N1822 H1834 0.984 . S
N1822 H1835 0.985 . S
N1823 C1825 1.356 . S
N1823 H1828 0.984 . S
N1823 H1829 0.985 . S
C1824 C1818 1.379 . S
C1824 C1821 1.363 . S
C1824 N1822 1.356 . S
C1825 C1819 1.363 . S
C1825 C1820 1.379 . S
C1825 N1823 1.356 . S
N1826 C1818 1.356 . S
N1826 H1832 0.984 . S
N1826 H1833 0.984 . S
N1827 C1820 1.356 . S
N1827 H1830 0.984 . S
N1827 H1831 0.985 . S
H1828 N1823 0.984 . S
H1829 N1823 0.985 . S
H1830 N1827 0.984 . S
H1831 N1827 0.985 . S
H1832 N1826 0.984 . S
H1833 N1826 0.984 . S
H1834 N1822 0.984 . S
H1835 N1822 0.985 . S
C1836 C1837 1.363 . S
C1836 C1842 1.379 . S
C1836 N1844 1.356 . S
C1837 C1836 1.363 . S
C1837 C1843 1.363 . S
C1838 C1839 1.363 . S
C1838 C1843 1.379 . S
C1838 N1845 1.356 . S
C1839 C1838 1.363 . S
C1839 C1842 1.363 . S
N1840 C1842 1.356 . S
N1840 H1852 0.984 . S
N1840 H1853 0.985 . S
N1841 C1843 1.356 . S
N1841 H1846 0.984 . S
N1841 H1847 0.985 . S
C1842 C1836 1.379 . S
C1842 C1839 1.363 . S
C1842 N1840 1.356 . S
C1843 C1837 1.363 . S
C1843 C1838 1.379 . S
C1843 N1841 1.356 . S
N1844 C1836 1.356 . S
N1844 H1850 0.984 . S
N1844 H1851 0.984 . S
N1845 C1838 1.356 . S
N1845 H1848 0.984 . S
N1845 H1849 0.985 . S
H1846 N1841 0.984 . S
H1847 N1841 0.985 . S
H1848 N1845 0.984 . S
H1849 N1845 0.985 . S
H1850 N1844 0.984 . S
H1851 N1844 0.984 . S
H1852 N1840 0.984 . S
H1853 N1840 0.985 . S
C1854 C1855 1.363 . S
C1854 C1860 1.379 . S
C1854 N1862 1.356 . S
C1855 C1854 1.363 . S
C1855 C1861 1.363 . S
C1856 C1857 1.363 . S
C1856 C1861 1.379 . S
C1856 N1863 1.356 . S
C1857 C1856 1.363 . S
C1857 C1860 1.363 . S
N1858 C1860 1.356 . S
N1858 H1870 0.984 . S
N1858 H1871 0.985 . S
N1859 C1861 1.356 . S
N1859 H1864 0.984 . S
N1859 H1865 0.985 . S
C1860 C1854 1.379 . S
C1860 C1857 1.363 . S
C1860 N1858 1.356 . S
C1861 C1855 1.363 . S
C1861 C1856 1.379 . S
C1861 N1859 1.356 . S
N1862 C1854 1.356 . S
N1862 H1868 0.984 . S
N1862 H1869 0.984 . S
N1863 C1856 1.356 . S
N1863 H1866 0.984 . S
N1863 H1867 0.985 . S
H1864 N1859 0.984 . S
H1865 N1859 0.985 . S
H1866 N1863 0.984 . S
H1867 N1863 0.985 . S
H1868 N1862 0.984 . S
H1869 N1862 0.984 . S
H1870 N1858 0.984 . S
H1871 N1858 0.985 . S
C1872 C1873 1.363 . S
C1872 C1878 1.379 . S
C1872 N1880 1.356 . S
C1873 C1872 1.363 . S
C1873 C1879 1.363 . S
C1874 C1875 1.363 . S
C1874 C1879 1.379 . S
C1874 N1881 1.356 . S
C1875 C1874 1.363 . S
C1875 C1878 1.363 . S
N1876 C1878 1.356 . S
N1876 H1888 0.984 . S
N1876 H1889 0.985 . S
N1877 C1879 1.356 . S
N1877 H1882 0.984 . S
N1877 H1883 0.985 . S
C1878 C1872 1.379 . S
C1878 C1875 1.363 . S
C1878 N1876 1.356 . S
C1879 C1873 1.363 . S
C1879 C1874 1.379 . S
C1879 N1877 1.356 . S
N1880 C1872 1.356 . S
N1880 H1886 0.984 . S
N1880 H1887 0.984 . S
N1881 C1874 1.356 . S
N1881 H1884 0.984 . S
N1881 H1885 0.985 . S
H1882 N1877 0.984 . S
H1883 N1877 0.985 . S
H1884 N1881 0.984 . S
H1885 N1881 0.985 . S
H1886 N1880 0.984 . S
H1887 N1880 0.984 . S
H1888 N1876 0.984 . S
H1889 N1876 0.985 . S
C919 C124 1.461 . S
C921 C218 1.381 . S
C937 C130 1.501 . S
C939 C302 1.427 . S
C955 C115 1.486 . S
C957 C396 1.443 . S
C973 C106 1.465 . S
C975 C312 1.424 . S
C993 C386 1.380 . S
C991 C85 1.459 . S
C1009 C97 1.436 . S
C1011 C228 1.394 . S
C1029 C229 1.399 . S
C1027 C103 1.480 . S
C1047 C313 1.408 . S
C1045 C88 1.480 . S
C1063 C94 1.483 . S
C1065 C405 1.442 . S
C1081 C121 1.463 . S
C1083 C321 1.423 . S
C1099 C133 1.438 . S
C1101 C397 1.360 . S
C1119 C237 1.413 . S
C1117 C112 1.455 . S
C1137 C470 1.381 . S
C1135 C16 1.461 . S
C1153 C22 1.501 . S
C1155 C554 1.427 . S
C1171 C7 1.486 . S
C1173 C648 1.443 . S
C1189 C160 1.465 . S
C1191 C564 1.424 . S
C1207 C139 1.459 . S
C1209 C638 1.380 . S
C1225 C151 1.436 . S
C1227 C480 1.394 . S
C1243 C157 1.480 . S
C1245 C481 1.399 . S
C1261 C142 1.480 . S
C1263 C565 1.408 . S
C1281 C657 1.442 . S
C1279 C148 1.484 . S
C1297 C13 1.462 . S
C1299 C573 1.423 . S
C1317 C649 1.360 . S
C1315 C25 1.438 . S
C1333 C4 1.455 . S
C1335 C489 1.413 . S
C1353 C722 1.381 . S
C1351 C70 1.461 . S
C1369 C76 1.501 . S
C1371 C806 1.427 . S
C1389 C900 1.443 . S
C1387 C61 1.486 . S
C1407 C816 1.424 . S
C1405 C52 1.465 . S
C1425 C890 1.380 . S
C1423 C31 1.459 . S
C1441 C43 1.436 . S
C1443 C732 1.394 . S
C1459 C49 1.480 . S
C1461 C733 1.399 . S
C1477 C34 1.480 . S
C1479 C817 1.408 . S
C1497 C909 1.442 . S
C1495 C40 1.483 . S
C1513 C67 1.463 . S
C1515 C825 1.423 . S
C1531 C79 1.439 . S
C1533 C901 1.361 . S
C1549 C58 1.455 . S
C1551 C741 1.412 . S
C1567 C140 1.508 . S
C1569 C225 1.405 . S
C1587 C309 1.383 . S
C1585 C149 1.514 . S
C1603 C158 1.517 . S
C1605 C402 1.396 . S
C1621 C59 1.527 . S
C1623 C318 1.394 . S
C1639 C68 1.504 . S
C1641 C393 1.385 . S
C1659 C234 1.406 . S
C1657 C77 1.508 . S
C1675 C32 1.508 . S
C1677 C477 1.405 . S
C1693 C41 1.514 . S
C1695 C561 1.383 . S
C1711 C50 1.517 . S
C1713 C654 1.396 . S
C1729 C113 1.527 . S
C1731 C570 1.394 . S
C1749 C645 1.385 . S
C1747 C122 1.504 . S
C1765 C131 1.508 . S
C1767 C486 1.406 . S
C1783 C86 1.508 . S
C1785 C729 1.405 . S
C1801 C95 1.514 . S
C1803 C813 1.383 . S
C1821 C906 1.396 . S
C1819 C104 1.517 . S
C1837 C5 1.527 . S
C1839 C822 1.394 . S
C1855 C14 1.504 . S
C1857 C897 1.385 . S
C1873 C23 1.508 . S
C1875 C738 1.406 . S
