# Generated by pormake.
# Topology tsx, (6,3)-cn, num edge types: 1
# Building blocks:
#     Node 0, Type 0, BuildingBlock: VOLQOD_clean_sbu_1, # of connection points: 6
#     Node 1, Type 0, BuildingBlock: VOLQOD_clean_sbu_1, # of connection points: 6
#     Node 2, Type 1, BuildingBlock: PAMTOO_clean_linker_0, # of connection points: 3
#     Node 3, Type 1, BuildingBlock: PAMTOO_clean_linker_0, # of connection points: 3
#     Node 4, Type 1, BuildingBlock: PAMTOO_clean_linker_0, # of connection points: 3
#     Node 5, Type 1, BuildingBlock: PAMTOO_clean_linker_0, # of connection points: 3
#     Edge 6, Type (0, 1), BuildingBlock: ZUJKAS_clean_linker_0, # of connection points: 2
#     Edge 7, Type (0, 1), BuildingBlock: ZUJKAS_clean_linker_0, # of connection points: 2
#     Edge 8, Type (0, 1), BuildingBlock: ZUJKAS_clean_linker_0, # of connection points: 2
#     Edge 9, Type (0, 1), BuildingBlock: ZUJKAS_clean_linker_0, # of connection points: 2
#     Edge 10, Type (0, 1), BuildingBlock: ZUJKAS_clean_linker_0, # of connection points: 2
#     Edge 11, Type (0, 1), BuildingBlock: ZUJKAS_clean_linker_0, # of connection points: 2
#     Edge 12, Type (0, 1), BuildingBlock: ZUJKAS_clean_linker_0, # of connection points: 2
#     Edge 13, Type (0, 1), BuildingBlock: ZUJKAS_clean_linker_0, # of connection points: 2
#     Edge 14, Type (0, 1), BuildingBlock: ZUJKAS_clean_linker_0, # of connection points: 2
#     Edge 15, Type (0, 1), BuildingBlock: ZUJKAS_clean_linker_0, # of connection points: 2
#     Edge 16, Type (0, 1), BuildingBlock: ZUJKAS_clean_linker_0, # of connection points: 2
#     Edge 17, Type (0, 1), BuildingBlock: ZUJKAS_clean_linker_0, # of connection points: 2
# Relax obj value: 0.054
# Max RMSD: 0.115
# Mean RMSD: 0.102
data_MOF--net-tsx--node1-VOLQOD_clean_sbu_1--node2-PAMTOO_clean_linker_0--edge1-ZUJKAS_clean_linker_0
_symmetry_space_group_name_H-M    P1
_symmetry_Int_Tables_number       1
_symmetry_cell_setting            triclinic
loop_
_symmetry_equiv_pos_as_xyz
'x, y, z'
_cell_length_a     27.213533
_cell_length_b     28.066767
_cell_length_c     48.449201
_cell_angle_alpha  82.275629
_cell_angle_beta   89.885963
_cell_angle_gamma 89.971343
loop_
_atom_site_label
_atom_site_type_symbol
_atom_site_fract_x
_atom_site_fract_y
_atom_site_fract_z
_atom_type_partial_charge
O0 O 0.07439 0.99531 0.07389 0.0
Zn1 Zn 0.09574 0.99855 0.03349 0.0
O2 O 0.03857 0.00621 0.0085 0.0
Zn3 Zn 0.03245 0.95026 0.98897 0.0
Zn4 Zn 0.97871 0.01195 0.0301 0.0
Zn5 Zn 0.04651 0.06367 0.98107 0.0
O6 O 0.03136 0.96934 0.94757 0.0
O7 O 0.04738 0.04756 0.94163 0.0
O8 O 0.13515 0.93866 0.02818 0.0
O9 O 0.08987 0.90623 0.99747 0.0
O10 O 0.97055 0.91295 0.99926 0.0
O11 O 0.93206 0.95726 0.02716 0.0
O12 O 0.94276 0.07342 0.01716 0.0
O13 O 0.14035 0.05658 0.0258 0.0
O14 O 0.99041 0.10975 0.98352 0.0
O15 O 0.108 0.09953 0.98837 0.0
C16 C 0.03318 0.00285 0.08514 0.0
C17 C 0.03896 0.00858 0.93169 0.0
C18 C 0.9338 0.92053 0.01437 0.0
C19 C 0.12765 0.90561 0.01298 0.0
C20 C 0.952 0.10889 0.99862 0.0
C21 C 0.14091 0.09327 0.00716 0.0
O22 O 0.99445 0.01101 0.07056 0.0
O23 O 0.5658 0.49992 0.57341 0.0
Zn24 Zn 0.58659 0.5031 0.53285 0.0
O25 O 0.52935 0.51262 0.50791 0.0
Zn26 Zn 0.52316 0.45864 0.48685 0.0
Zn27 Zn 0.46964 0.51669 0.53004 0.0
Zn28 Zn 0.53706 0.57136 0.48142 0.0
O29 O 0.52377 0.47955 0.44564 0.0
O30 O 0.53869 0.55782 0.44135 0.0
O31 O 0.62409 0.44212 0.52741 0.0
O32 O 0.57902 0.41299 0.49538 0.0
O33 O 0.46088 0.42189 0.49591 0.0
O34 O 0.42381 0.46117 0.52686 0.0
O35 O 0.4328 0.57798 0.5177 0.0
O36 O 0.63279 0.55988 0.52513 0.0
O37 O 0.48018 0.61632 0.48456 0.0
O38 O 0.59881 0.60632 0.48947 0.0
C39 C 0.52474 0.50714 0.58492 0.0
C40 C 0.53129 0.51953 0.43051 0.0
C41 C 0.42511 0.42674 0.51223 0.0
C42 C 0.61604 0.41021 0.51152 0.0
C43 C 0.44159 0.61424 0.49961 0.0
C44 C 0.63292 0.59789 0.50744 0.0
O45 O 0.48578 0.51524 0.57055 0.0
H46 H 0.08723 0.95087 0.38275 0.0
H47 H 0.9625 0.04356 0.38853 0.0
H48 H 0.04274 0.98905 0.46221 0.0
H49 H 0.93504 0.99501 0.47125 0.0
C50 C 0.92629 0.024 0.45398 0.0
O51 O 0.9694 0.04328 0.44237 0.0
H52 H 0.90438 0.00808 0.43812 0.0
C53 C 0.06257 0.96985 0.39509 0.0
C54 C 0.06985 0.96662 0.42397 0.0
C55 C 0.02389 0.9972 0.38196 0.0
C56 C 0.99257 0.02214 0.39814 0.0
C57 C -0.00071 0.01878 0.42703 0.0
C58 C 0.03768 0.99097 0.43991 0.0
H59 H 0.09673 0.07247 0.63131 0.0
H60 H 0.98579 0.9636 0.62938 0.0
H61 H 0.05392 0.02704 0.55343 0.0
H62 H 0.95359 0.01132 0.54434 0.0
C63 C 0.94437 0.98513 0.56293 0.0
O64 O 0.98717 0.96671 0.57525 0.0
H65 H 0.92311 0.00464 0.57759 0.0
C66 C 0.07523 0.04931 0.61981 0.0
C67 C 0.08019 0.0534 0.59072 0.0
C68 C 0.04181 0.01673 0.63417 0.0
C69 C 0.01193 0.98898 0.61888 0.0
C70 C 0.01624 0.99316 0.58984 0.0
C71 C 0.05061 0.02479 0.57586 0.0
H72 H 0.58417 0.43949 0.88042 0.0
H73 H 0.47067 0.5424 0.89161 0.0
H74 H 0.55979 0.48372 0.96093 0.0
H75 H 0.46539 0.50153 0.98064 0.0
C76 C 0.44999 0.52365 0.96187 0.0
O77 O 0.4879 0.54246 0.94484 0.0
H78 H 0.42641 0.49977 0.95088 0.0
C79 C 0.56338 0.46021 0.89376 0.0
C80 C 0.57585 0.45709 0.92204 0.0
C81 C 0.52576 0.49102 0.88233 0.0
C82 C 0.50019 0.51874 0.89981 0.0
C83 C 0.51255 0.51591 0.92809 0.0
C84 C 0.55072 0.4857 0.93903 0.0
H85 H 0.56912 0.60328 0.12786 0.0
H86 H 0.46584 0.48694 0.12795 0.0
H87 H 0.51979 0.56043 0.05052 0.0
H88 H 0.41526 0.53387 0.04817 0.0
C89 C 0.41472 0.50321 0.06528 0.0
O90 O 0.46221 0.49212 0.07373 0.0
H91 H 0.39283 0.51399 0.08287 0.0
C92 C 0.54672 0.58031 0.11671 0.0
C93 C 0.54807 0.58635 0.08746 0.0
C94 C 0.51743 0.5445 0.13171 0.0
C95 C 0.48841 0.51514 0.11694 0.0
C96 C 0.48923 0.52121 0.08774 0.0
C97 C 0.51924 0.5564 0.07308 0.0
H98 H 0.20536 0.10231 0.04953 0.0
H99 H 0.2576 0.17134 0.05479 0.0
H100 H 0.21274 0.24 0.97378 0.0
H101 H 0.1596 0.17167 0.96852 0.0
H102 H 0.33476 0.21705 0.02395 0.0
H103 H 0.17308 0.33799 0.0246 0.0
H104 H 0.16721 0.2735 0.02747 0.0
H105 H 0.17819 0.30837 0.99411 0.0
C106 C 0.20698 0.13181 0.03267 0.0
C107 C 0.17774 0.13171 0.00876 0.0
C108 C 0.23688 0.17126 0.03573 0.0
C109 C 0.23815 0.21123 0.01495 0.0
C110 C 0.21132 0.21003 0.99037 0.0
H111 H 0.37301 0.49422 0.01453 0.0
H112 H 0.3335 0.4229 0.00013 0.0
C113 C 0.18116 0.17079 0.98735 0.0
C114 C 0.26579 0.25493 0.01964 0.0
H115 H 0.25124 0.37351 0.02688 0.0
C116 C 0.31657 0.2513 0.02452 0.0
C117 C 0.24189 0.29957 0.02041 0.0
C118 C 0.18704 0.30521 0.01662 0.0
C119 C 0.34411 0.29117 0.03017 0.0
C120 C 0.32006 0.33555 0.03127 0.0
C121 C 0.26952 0.33942 0.02589 0.0
C122 C 0.34608 0.37785 0.03936 0.0
C123 C 0.39872 0.28558 0.03482 0.0
C124 C 0.36564 0.37619 0.06625 0.0
C125 C 0.38798 0.41677 0.07449 0.0
C126 C 0.39117 0.45966 0.05596 0.0
C127 C 0.3714 0.46141 0.02908 0.0
C128 C 0.34888 0.4208 0.02087 0.0
H129 H 0.41341 0.25372 0.02618 0.0
H130 H 0.41876 0.3181 0.02518 0.0
H131 H 0.40624 0.28073 0.05753 0.0
H132 H 0.36285 0.34372 0.08103 0.0
H133 H 0.40254 0.41486 0.09541 0.0
H134 H 0.21504 0.89111 0.04162 0.0
H135 H 0.27676 0.82856 0.03724 0.0
H136 H 0.18444 0.76954 0.97811 0.0
H137 H 0.12293 0.83117 0.98224 0.0
H138 H 0.26287 0.71969 0.04374 0.0
H139 H 0.321 0.80304 0.9383 0.0
H140 H 0.28959 0.8363 0.9625 0.0
H141 H 0.25568 0.79701 0.94316 0.0
C142 C 0.20776 0.86462 0.02782 0.0
C143 C 0.16412 0.86647 0.01213 0.0
C144 C 0.24302 0.82895 0.02539 0.0
C145 C 0.23526 0.79494 0.0071 0.0
C146 C 0.19128 0.79588 0.99208 0.0
H147 H 0.36408 0.56076 0.93905 0.0
H148 H 0.31565 0.62759 0.95251 0.0
C149 C 0.15611 0.83119 0.99454 0.0
C150 C 0.27318 0.75884 0.00283 0.0
H151 H 0.34605 0.72219 0.95231 0.0
C152 C 0.28177 0.72044 0.02396 0.0
C153 C 0.29763 0.76016 0.97698 0.0
C154 C 0.29096 0.80152 0.95396 0.0
C155 C 0.31238 0.68186 0.01934 0.0
C156 C 0.33533 0.68234 0.99305 0.0
C157 C 0.32818 0.72178 0.97238 0.0
C158 C 0.36448 0.64114 0.98582 0.0
C159 C 0.31805 0.63988 0.04209 0.0
C160 C 0.40819 0.62689 0.99994 0.0
C161 C 0.43574 0.58862 0.99229 0.0
C162 C 0.41987 0.56401 0.97052 0.0
C163 C 0.37658 0.57876 0.95618 0.0
C164 C 0.34907 0.61691 0.96381 0.0
H165 H 0.29018 0.64055 0.05882 0.0
H166 H 0.31489 0.60526 0.0335 0.0
H167 H 0.35501 0.64123 0.05158 0.0
H168 H 0.42132 0.64574 0.01657 0.0
H169 H 0.4695 0.57824 0.0033 0.0
H170 H 0.85079 0.92318 0.04607 0.0
H171 H 0.78319 0.86546 0.05125 0.0
H172 H 0.85429 0.78282 0.99377 0.0
H173 H 0.92256 0.83997 0.98868 0.0
H174 H 0.71976 0.83637 0.01036 0.0
H175 H 0.83055 0.68405 0.06313 0.0
H176 H 0.85208 0.7454 0.05916 0.0
H177 H 0.85369 0.71187 0.0301 0.0
C178 C 0.85219 0.89274 0.03452 0.0
C179 C 0.89234 0.88604 0.01712 0.0
C180 C 0.81342 0.85988 0.03746 0.0
C181 C 0.81408 0.81965 0.02314 0.0
C182 C 0.85354 0.81324 0.00535 0.0
H183 H 0.61133 0.57513 0.0449 0.0
H184 H 0.67315 0.63266 0.02403 0.0
C185 C 0.89243 0.84604 0.00242 0.0
C186 C 0.7736 0.78425 0.02728 0.0
H187 H 0.74713 0.66895 0.05518 0.0
C188 C 0.72571 0.79965 0.01998 0.0
C189 C 0.78163 0.73635 0.03969 0.0
C190 C 0.83215 0.71832 0.04871 0.0
C191 C 0.68542 0.76857 0.02525 0.0
C192 C 0.69328 0.7212 0.03851 0.0
C193 C 0.74132 0.7053 0.04492 0.0
C194 C 0.65209 0.68882 0.04824 0.0
C195 C 0.63477 0.78679 0.01676 0.0
C196 C 0.61956 0.70163 0.0685 0.0
C197 C 0.58435 0.66899 0.08038 0.0
C198 C 0.58121 0.62282 0.07233 0.0
C199 C 0.61264 0.61063 0.0513 0.0
C200 C 0.64805 0.64331 0.03947 0.0
H201 H 0.63649 0.81732 0.99961 0.0
H202 H 0.61179 0.75784 0.00996 0.0
H203 H 0.61649 0.79978 0.03484 0.0
H204 H 0.62265 0.73622 0.07593 0.0
H205 H 0.56035 0.67945 0.09639 0.0
H206 H 0.96627 0.19734 0.96838 0.0
H207 H 0.90695 0.26296 0.95943 0.0
H208 H 0.79865 0.17724 0.00872 0.0
H209 H 0.85809 0.11206 0.01847 0.0
H210 H 0.82303 0.26211 0.9323 0.0
H211 H 0.78363 0.30314 0.03862 0.0
H212 H 0.83498 0.26627 0.03101 0.0
H213 H 0.77438 0.24071 0.03587 0.0
C214 C 0.92999 0.19264 0.97759 0.0
C215 C 0.91691 0.14946 0.99415 0.0
C216 C 0.89618 0.23023 0.97249 0.0
C217 C 0.84861 0.22535 0.98377 0.0
C218 C 0.83554 0.1824 0.00045 0.0
H219 H 0.58738 0.36345 0.91456 0.0
H220 H 0.65508 0.30958 0.93059 0.0
C221 C 0.86949 0.14497 0.0058 0.0
C222 C 0.81146 0.26349 0.9762 0.0
H223 H 0.72485 0.33229 0.00326 0.0
C224 C 0.802 0.27785 0.94784 0.0
C225 C 0.7845 0.28459 0.99645 0.0
C226 C 0.79525 0.27326 0.02717 0.0
C227 C 0.76516 0.31138 0.93917 0.0
C228 C 0.73606 0.33007 0.95943 0.0
C229 C 0.74671 0.31726 0.98778 0.0
C230 C 0.69363 0.36192 0.95145 0.0
C231 C 0.75787 0.3265 0.90835 0.0
C232 C 0.69175 0.40847 0.95899 0.0
C233 C 0.65275 0.43921 0.95008 0.0
C234 C 0.61523 0.42377 0.93347 0.0
C235 C 0.61636 0.37655 0.92688 0.0
C236 C 0.65502 0.34583 0.93594 0.0
H237 H 0.79173 0.32086 0.89635 0.0
H238 H 0.72823 0.30446 0.90078 0.0
H239 H 0.74715 0.36494 0.90392 0.0
H240 H 0.72104 0.42139 0.97115 0.0
H241 H 0.65275 0.47547 0.95542 0.0
H242 H 0.64959 0.67944 0.47087 0.0
H243 H 0.70833 0.74361 0.47558 0.0
H244 H 0.76129 0.66494 0.55235 0.0
H245 H 0.7034 0.60012 0.54758 0.0
H246 H 0.70959 0.79834 0.51724 0.0
H247 H 0.8888 0.70606 0.51296 0.0
H248 H 0.83212 0.68065 0.50225 0.0
H249 H 0.84808 0.67533 0.53857 0.0
C250 C 0.67423 0.67537 0.48856 0.0
C251 C 0.67169 0.63458 0.50887 0.0
C252 C 0.70779 0.71213 0.4912 0.0
C253 C 0.73958 0.70887 0.51414 0.0
C254 C 0.73792 0.66777 0.53414 0.0
H255 H 0.8676 0.93788 0.59102 0.0
H256 H 0.81862 0.87169 0.57728 0.0
C257 C 0.70454 0.63083 0.53145 0.0
C258 C 0.77143 0.75014 0.51837 0.0
H259 H 0.8897 0.78164 0.53094 0.0
C260 C 0.74904 0.79478 0.51995 0.0
C261 C 0.82298 0.74565 0.52156 0.0
C262 C 0.84951 0.69946 0.51847 0.0
C263 C 0.77653 0.8346 0.52556 0.0
C264 C 0.82763 0.8294 0.53024 0.0
C265 C 0.85038 0.78531 0.52769 0.0
C266 C 0.85773 0.86902 0.53856 0.0
C267 C 0.75062 0.88195 0.52641 0.0
C268 C 0.8968 0.88844 0.52172 0.0
C269 C 0.92484 0.9261 0.52961 0.0
C270 C 0.91406 0.94491 0.55437 0.0
C271 C 0.87584 0.92458 0.57154 0.0
C272 C 0.84786 0.88697 0.56368 0.0
H273 H 0.7152 0.88356 0.51494 0.0
H274 H 0.74256 0.88632 0.54838 0.0
H275 H 0.77396 0.91257 0.51733 0.0
H276 H 0.9053 0.87472 0.5024 0.0
H277 H 0.95484 0.94071 0.51637 0.0
H278 H 0.70134 0.39055 0.54157 0.0
H279 H 0.75847 0.32358 0.53883 0.0
H280 H 0.66581 0.27122 0.47737 0.0
H281 H 0.60858 0.33687 0.4802 0.0
H282 H 0.69751 0.19907 0.5183 0.0
H283 H 0.85264 0.31367 0.47338 0.0
H284 H 0.82801 0.32721 0.5059 0.0
H285 H 0.79082 0.33643 0.47508 0.0
C286 C 0.6931 0.36466 0.52755 0.0
C287 C 0.65045 0.36932 0.51101 0.0
C288 C 0.72589 0.32658 0.52592 0.0
C289 C 0.71662 0.29279 0.50765 0.0
C290 C 0.67369 0.29691 0.49159 0.0
H291 H 0.88992 0.10485 0.4235 0.0
H292 H 0.84125 0.16926 0.43975 0.0
C293 C 0.64104 0.33467 0.49321 0.0
C294 C 0.75143 0.25321 0.50456 0.0
H295 H 0.86452 0.22999 0.47879 0.0
C296 C 0.73428 0.2057 0.50998 0.0
C297 C 0.79915 0.26215 0.49345 0.0
C298 C 0.81887 0.31257 0.48638 0.0
C299 C 0.76294 0.16692 0.50377 0.0
C300 C 0.8104 0.17591 0.49229 0.0
C301 C 0.82816 0.22328 0.48767 0.0
C302 C 0.8407 0.13716 0.48296 0.0
C303 C 0.74124 0.11698 0.50829 0.0
C304 C 0.85667 0.09793 0.50189 0.0
C305 C 0.8841 0.06105 0.49257 0.0
C306 C 0.89648 0.06317 0.46427 0.0
C307 C 0.88082 0.10259 0.44542 0.0
C308 C 0.85327 0.13933 0.4547 0.0
H309 H 0.70083 0.11765 0.51153 0.0
H310 H 0.74908 0.09757 0.49025 0.0
H311 H 0.75799 0.09634 0.52707 0.0
H312 H 0.84796 0.09584 0.52384 0.0
H313 H 0.8955 0.03086 0.50741 0.0
H314 H 0.40527 0.36055 0.47727 0.0
H315 H 0.34176 0.2985 0.48255 0.0
H316 H 0.29252 0.34807 0.55847 0.0
H317 H 0.35485 0.41118 0.55288 0.0
H318 H 0.33288 0.22586 0.52253 0.0
H319 H 0.16369 0.33505 0.52039 0.0
H320 H 0.22267 0.36095 0.51 0.0
H321 H 0.20556 0.35054 0.54626 0.0
C322 C 0.38052 0.35863 0.49493 0.0
C323 C 0.38505 0.39084 0.51466 0.0
C324 C 0.34422 0.32317 0.49788 0.0
C325 C 0.31185 0.3191 0.52065 0.0
C326 C 0.31611 0.35138 0.54029 0.0
H327 H 0.17332 0.07255 0.60694 0.0
H328 H 0.22862 0.13535 0.5858 0.0
C329 C 0.35205 0.38723 0.53719 0.0
C330 C 0.27623 0.27885 0.52508 0.0
H331 H 0.15647 0.25231 0.54143 0.0
C332 C 0.29414 0.2317 0.52622 0.0
C333 C 0.2255 0.28636 0.5293 0.0
C334 C 0.20316 0.33601 0.52611 0.0
C335 C 0.26324 0.19188 0.53295 0.0
C336 C 0.2134 0.19945 0.53947 0.0
C337 C 0.19487 0.24653 0.53682 0.0
C338 C 0.18082 0.15939 0.55102 0.0
C339 C 0.28446 0.14214 0.53319 0.0
C340 C 0.13507 0.15256 0.5388 0.0
C341 C 0.10281 0.1172 0.55121 0.0
C342 C 0.11571 0.08828 0.57614 0.0
C343 C 0.16203 0.09458 0.58793 0.0
C344 C 0.19403 0.13003 0.57563 0.0
H345 H 0.31603 0.14249 0.51858 0.0
H346 H 0.29818 0.12899 0.5544 0.0
H347 H 0.25648 0.11645 0.52744 0.0
H348 H 0.12402 0.17514 0.51992 0.0
H349 H 0.06717 0.11362 0.54179 0.0
H350 H 0.35399 0.62178 0.52672 0.0
H351 H 0.29242 0.68546 0.51753 0.0
H352 H 0.38595 0.76077 0.45422 0.0
H353 H 0.44755 0.69724 0.46297 0.0
H354 H 0.2992 0.78792 0.51837 0.0
H355 H 0.25576 0.73986 0.41357 0.0
H356 H 0.28948 0.70033 0.4393 0.0
H357 H 0.31977 0.75049 0.41933 0.0
C358 C 0.36163 0.65197 0.51091 0.0
C359 C 0.40554 0.65411 0.49537 0.0
C360 C 0.32645 0.68836 0.50577 0.0
C361 C 0.33445 0.72735 0.48496 0.0
C362 C 0.37884 0.73049 0.47008 0.0
H363 H 0.16494 0.96618 0.40643 0.0
H364 H 0.23003 0.91033 0.42411 0.0
C365 C 0.41403 0.69418 0.47517 0.0
C366 C 0.29569 0.76392 0.47804 0.0
H367 H 0.21986 0.81118 0.42542 0.0
C368 C 0.28163 0.79301 0.49812 0.0
C369 C 0.27277 0.77009 0.45165 0.0
C370 C 0.28478 0.7383 0.42977 0.0
C371 C 0.24604 0.82922 0.49215 0.0
C372 C 0.22369 0.83579 0.46559 0.0
C373 C 0.23738 0.80623 0.44571 0.0
C374 C 0.18616 0.87324 0.4576 0.0
C375 C 0.23346 0.86084 0.51398 0.0
C376 C 0.1402 0.8714 0.47092 0.0
C377 C 0.10285 0.90332 0.46082 0.0
C378 C 0.11086 0.93712 0.43708 0.0
C379 C 0.15756 0.94005 0.42453 0.0
C380 C 0.1948 0.90834 0.43466 0.0
H381 H 0.26169 0.85858 0.53065 0.0
H382 H 0.2297 0.89895 0.50449 0.0
H383 H 0.19779 0.84917 0.52376 0.0
H384 H 0.13253 0.844 0.48835 0.0
H385 H 0.06707 0.90003 0.47073 0.0
H386 H 0.95369 0.02637 0.11513 0.0
H387 H 0.94852 0.02916 0.16514 0.0
H388 H 0.09924 0.98238 0.17462 0.0
H389 H 0.10521 0.98044 0.12437 0.0
H390 H 0.95955 0.95804 0.20827 0.0
H391 H 0.09864 0.10029 0.2148 0.0
H392 H 0.07386 0.08743 0.18208 0.0
H393 H 0.12182 0.05039 0.19911 0.0
C394 C 0.98589 0.01676 0.12777 0.0
C395 C 0.03 0.00337 0.11566 0.0
C396 C 0.98281 0.0184 0.1564 0.0
C397 C 0.02369 0.00677 0.17355 0.0
C398 C 0.06757 0.99264 0.16167 0.0
H399 H 0.02927 0.92317 0.35084 0.0
H400 H 0.0256 0.92755 0.30026 0.0
C401 C 0.07081 0.99122 0.13296 0.0
C402 C 0.01981 0.00825 0.20397 0.0
H403 H 0.07112 0.05736 0.25788 0.0
C404 C 0.98375 0.97998 0.21909 0.0
C405 C 0.05077 0.03759 0.21798 0.0
C406 C 0.08812 0.07103 0.20264 0.0
C407 C 0.97873 0.97919 0.24799 0.0
C408 C 0.01131 0.00667 0.2622 0.0
C409 C 0.04643 0.03601 0.24697 0.0
C410 C 0.01096 0.00401 0.29297 0.0
C411 C 0.93834 0.94919 0.26296 0.0
C412 C 0.00465 0.04569 0.3057 0.0
C413 C 0.00738 0.04341 0.3347 0.0
C414 C 0.01695 0.99944 0.3514 0.0
C415 C 0.02239 0.95769 0.33855 0.0
C416 C 0.01971 0.96001 0.30964 0.0
H417 H 0.90799 0.94287 0.24858 0.0
H418 H 0.95347 0.91364 0.27172 0.0
H419 H 0.92298 0.96663 0.28035 0.0
H420 H -0.00183 0.08007 0.29317 0.0
H421 H 0.00353 0.07626 0.34396 0.0
H422 H 0.00695 0.93666 0.90339 0.0
H423 H 0.00397 0.93651 0.85309 0.0
H424 H 0.06451 0.07978 0.84032 0.0
H425 H 0.06648 0.08082 0.89074 0.0
H426 H 0.98795 0.06951 0.80531 0.0
H427 H 0.12053 0.91984 0.80341 0.0
H428 H 0.06894 0.90438 0.82595 0.0
H429 H 0.11153 0.94972 0.83375 0.0
C430 C 0.01983 0.96814 0.88994 0.0
C431 C 0.03736 0.00864 0.90113 0.0
C432 C 0.01828 0.96787 0.86116 0.0
C433 C 0.03491 0.00774 0.84298 0.0
C434 C 0.05174 0.04852 0.85401 0.0
H435 H 0.1176 0.01595 0.67104 0.0
H436 H 0.11303 0.01395 0.72143 0.0
C437 C 0.05293 0.04901 0.88283 0.0
C438 C 0.03448 0.00702 0.81245 0.0
H439 H 0.07846 0.94598 0.76125 0.0
C440 C 0.00778 0.04257 0.79563 0.0
C441 C 0.06081 0.9721 0.79988 0.0
C442 C 0.09247 0.93463 0.81663 0.0
C443 C 0.00659 0.04412 0.76655 0.0
C444 C 0.0319 0.00844 0.75407 0.0
C445 C 0.05862 0.97294 0.7709 0.0
C446 C 0.03373 0.0089 0.72345 0.0
C447 C 0.97947 0.08472 0.74945 0.0
C448 C 0.99066 0.00589 0.70786 0.0
C449 C 0.99309 0.00771 0.67887 0.0
C450 C 0.03871 0.01217 0.66505 0.0
C451 C 0.08179 0.01357 0.68093 0.0
C452 C 0.07929 0.01205 0.70978 0.0
H453 H 0.97277 0.11523 0.76141 0.0
H454 H 0.00027 0.09823 0.73025 0.0
H455 H 0.94328 0.07149 0.74321 0.0
H456 H 0.95517 0.00235 0.71807 0.0
H457 H 0.95923 0.00666 0.66726 0.0
H458 H 0.44667 0.53288 0.61531 0.0
H459 H 0.44214 0.53437 0.66547 0.0
H460 H 0.59095 0.48172 0.67436 0.0
H461 H 0.59633 0.48123 0.62397 0.0
H462 H 0.44975 0.46292 0.70795 0.0
H463 H 0.59672 0.59673 0.71621 0.0
H464 H 0.57148 0.58596 0.6832 0.0
H465 H 0.61746 0.54628 0.70019 0.0
C466 C 0.4786 0.52173 0.62786 0.0
C467 C 0.52201 0.50714 0.61553 0.0
C468 C 0.47588 0.52263 0.65658 0.0
C469 C 0.51644 0.50896 0.67365 0.0
C470 C 0.55959 0.49361 0.66152 0.0
H471 H 0.51993 0.41803 0.85037 0.0
H472 H 0.5133 0.42469 0.79981 0.0
C473 C 0.56249 0.49303 0.63272 0.0
C474 C 0.51294 0.50958 0.70421 0.0
H475 H 0.56798 0.55326 0.75891 0.0
C476 C 0.4754 0.48295 0.71906 0.0
C477 C 0.54578 0.53647 0.71866 0.0
C478 C 0.58481 0.56838 0.70372 0.0
C479 C 0.47072 0.48132 0.74805 0.0
C480 C 0.50518 0.50613 0.76267 0.0
C481 C 0.5418 0.53392 0.74773 0.0
C482 C 0.50536 0.50213 0.79355 0.0
C483 C 0.42864 0.45334 0.76264 0.0
C484 C 0.50356 0.54349 0.80695 0.0
C485 C 0.5081 0.53985 0.83595 0.0
C486 C 0.51493 0.49477 0.85203 0.0
C487 C 0.51523 0.45335 0.83857 0.0
C488 C 0.51085 0.45703 0.80966 0.0
H489 H 0.3975 0.45017 0.7482 0.0
H490 H 0.44131 0.41644 0.77052 0.0
H491 H 0.41509 0.47047 0.78058 0.0
H492 H 0.49961 0.5787 0.79491 0.0
H493 H 0.50825 0.57247 0.84562 0.0
H494 H 0.50489 0.44779 0.40055 0.0
H495 H 0.50221 0.45058 0.35006 0.0
H496 H 0.55347 0.59727 0.34012 0.0
H497 H 0.55522 0.59525 0.39079 0.0
H498 H 0.47663 0.58494 0.30572 0.0
H499 H 0.6176 0.44474 0.29787 0.0
H500 H 0.5681 0.42447 0.32101 0.0
H501 H 0.60807 0.4716 0.32926 0.0
C502 C 0.51588 0.48065 0.38769 0.0
C503 C 0.53056 0.52125 0.39978 0.0
C504 C 0.51456 0.48205 0.35878 0.0
C505 C 0.52852 0.52381 0.34131 0.0
C506 C 0.54281 0.56456 0.35324 0.0
H507 H 0.59701 0.54684 0.16585 0.0
H508 H 0.59784 0.54183 0.21651 0.0
C509 C 0.54385 0.56332 0.38221 0.0
C510 C 0.52705 0.52528 0.3106 0.0
H511 H 0.57118 0.47008 0.25696 0.0
C512 C 0.49741 0.55995 0.29503 0.0
C513 C 0.5546 0.49294 0.29666 0.0
C514 C 0.58926 0.45665 0.31201 0.0
C515 C 0.4942 0.5629 0.26592 0.0
C516 C 0.52052 0.52956 0.25209 0.0
C517 C 0.55051 0.49519 0.26764 0.0
C518 C 0.51939 0.53122 0.22136 0.0
C519 C 0.46362 0.60244 0.25022 0.0
C520 C 0.4751 0.52593 0.20725 0.0
C521 C 0.47439 0.52938 0.17815 0.0
C522 C 0.51807 0.53786 0.16269 0.0
C523 C 0.56255 0.54141 0.17705 0.0
C524 C 0.56317 0.53816 0.20604 0.0
H525 H 0.45634 0.63191 0.26287 0.0
H526 H 0.48207 0.61786 0.23057 0.0
H527 H 0.4277 0.58746 0.24484 0.0
H528 H 0.44102 0.51946 0.21871 0.0
H529 H 0.43954 0.52653 0.16776 0.0
loop_
_geom_bond_atom_site_label_1
_geom_bond_atom_site_label_2
_geom_bond_distance
_geom_bond_site_symmetry_2
_ccdc_geom_bond_type
O0 Zn1 1.953 1_565 S
O0 C16 1.225 1_565 S
Zn1 O0 1.953 1_545 S
Zn1 O2 1.949 . S
Zn1 O8 1.919 1_545 S
Zn1 O13 1.924 . S
O2 Zn1 1.949 . S
O2 Zn3 1.923 1_544 S
O2 Zn4 1.950 1_455 S
O2 Zn5 1.945 1_554 S
Zn3 O2 1.923 1_566 S
Zn3 O6 1.933 . S
Zn3 O9 1.941 . S
Zn3 O10 1.965 1_455 S
Zn4 O2 1.950 1_655 S
Zn4 O11 1.938 1_545 S
Zn4 O12 1.906 . S
Zn4 O22 1.953 . S
Zn5 O2 1.945 1_556 S
Zn5 O7 1.932 . S
Zn5 O14 1.977 1_455 S
Zn5 O15 1.910 . S
O6 Zn3 1.933 . S
O6 C17 1.226 1_565 S
O7 Zn5 1.932 . S
O7 C17 1.307 . S
O8 Zn1 1.919 1_565 S
O8 C19 1.253 . S
O9 Zn3 1.941 . S
O9 C19 1.283 1_556 S
O10 Zn3 1.965 1_655 S
O10 C18 1.303 1_556 S
O11 Zn4 1.938 1_565 S
O11 C18 1.247 . S
O12 Zn4 1.906 . S
O12 C20 1.304 1_554 S
O13 Zn1 1.924 . S
O13 C21 1.311 . S
O14 Zn5 1.977 1_655 S
O14 C20 1.272 . S
O15 Zn5 1.910 . S
O15 C21 1.231 1_556 S
C16 O0 1.225 1_545 S
C16 O22 1.298 1_455 S
C17 O6 1.226 1_545 S
C17 O7 1.307 . S
C18 O10 1.303 1_554 S
C18 O11 1.247 . S
C19 O8 1.253 . S
C19 O9 1.283 1_554 S
C20 O12 1.304 1_556 S
C20 O14 1.272 . S
C21 O13 1.311 . S
C21 O15 1.231 1_554 S
O22 Zn4 1.953 . S
O22 C16 1.298 1_655 S
O23 Zn24 1.953 . S
O23 C39 1.225 . S
Zn24 O23 1.953 . S
Zn24 O25 1.949 . S
Zn24 O31 1.919 . S
Zn24 O36 1.924 . S
O25 Zn24 1.949 . S
O25 Zn26 1.923 . S
O25 Zn27 1.950 . S
O25 Zn28 1.945 . S
Zn26 O25 1.923 . S
Zn26 O29 1.933 . S
Zn26 O32 1.941 . S
Zn26 O33 1.965 . S
Zn27 O25 1.950 . S
Zn27 O34 1.938 . S
Zn27 O35 1.906 . S
Zn27 O45 1.953 . S
Zn28 O25 1.945 . S
Zn28 O30 1.932 . S
Zn28 O37 1.977 . S
Zn28 O38 1.910 . S
O29 Zn26 1.933 . S
O29 C40 1.226 . S
O30 Zn28 1.932 . S
O30 C40 1.307 . S
O31 Zn24 1.919 . S
O31 C42 1.253 . S
O32 Zn26 1.941 . S
O32 C42 1.283 . S
O33 Zn26 1.965 . S
O33 C41 1.303 . S
O34 Zn27 1.938 . S
O34 C41 1.247 . S
O35 Zn27 1.906 . S
O35 C43 1.304 . S
O36 Zn24 1.924 . S
O36 C44 1.311 . S
O37 Zn28 1.977 . S
O37 C43 1.272 . S
O38 Zn28 1.910 . S
O38 C44 1.231 . S
C39 O23 1.225 . S
C39 O45 1.298 . S
C40 O29 1.226 . S
C40 O30 1.307 . S
C41 O33 1.303 . S
C41 O34 1.247 . S
C42 O31 1.253 . S
C42 O32 1.283 . S
C43 O35 1.304 . S
C43 O37 1.272 . S
C44 O36 1.311 . S
C44 O38 1.231 . S
O45 Zn27 1.953 . S
O45 C39 1.298 . S
H46 C53 0.929 . S
H47 C56 0.930 . S
H48 C58 0.929 . S
H49 C50 0.969 . S
C50 H49 0.969 . S
C50 O51 1.550 . S
C50 H52 0.973 . S
O51 C50 1.550 . S
O51 C57 1.412 1_655 S
H52 C50 0.973 . S
C53 H46 0.929 . S
C53 C54 1.400 . S
C53 C55 1.364 . S
C54 C53 1.400 . S
C54 C58 1.377 . S
C55 C53 1.364 . S
C55 C56 1.374 1_465 S
C56 H47 0.930 . S
C56 C55 1.374 1_645 S
C56 C57 1.383 1_655 S
C57 O51 1.412 1_455 S
C57 C56 1.383 1_455 S
C57 C58 1.394 1_545 S
C58 H48 0.929 . S
C58 C54 1.377 . S
C58 C57 1.394 1_565 S
H59 C66 0.929 . S
H60 C69 0.930 1_655 S
H61 C71 0.929 . S
H62 C63 0.969 . S
C63 H62 0.969 . S
C63 O64 1.570 . S
C63 H65 0.973 . S
O64 C63 1.570 . S
O64 C70 1.406 1_665 S
H65 C63 0.973 . S
C66 H59 0.929 . S
C66 C67 1.400 . S
C66 C68 1.364 . S
C67 C66 1.400 . S
C67 C71 1.377 . S
C68 C66 1.364 . S
C68 C69 1.374 1_545 S
C69 H60 0.930 1_455 S
C69 C68 1.374 1_565 S
C69 C70 1.383 1_565 S
C70 O64 1.406 1_445 S
C70 C69 1.383 1_545 S
C70 C71 1.394 . S
C71 H61 0.929 . S
C71 C67 1.377 . S
C71 C70 1.394 . S
H72 C79 0.929 . S
H73 C82 0.930 . S
H74 C84 0.929 . S
H75 C76 0.969 . S
C76 H75 0.969 . S
C76 O77 1.550 . S
C76 H78 0.973 . S
O77 C76 1.550 . S
O77 C83 1.412 . S
H78 C76 0.973 . S
C79 H72 0.929 . S
C79 C80 1.400 . S
C79 C81 1.364 . S
C80 C79 1.400 . S
C80 C84 1.377 . S
C81 C79 1.364 . S
C81 C82 1.374 . S
C82 H73 0.930 . S
C82 C81 1.374 . S
C82 C83 1.383 . S
C83 O77 1.412 . S
C83 C82 1.383 . S
C83 C84 1.394 . S
C84 H74 0.929 . S
C84 C80 1.377 . S
C84 C83 1.394 . S
H85 C92 0.929 . S
H86 C95 0.930 . S
H87 C97 0.929 . S
H88 C89 0.969 . S
C89 H88 0.969 . S
C89 O90 1.550 . S
C89 H91 0.973 . S
O90 C89 1.550 . S
O90 C96 1.412 . S
H91 C89 0.973 . S
C92 H85 0.929 . S
C92 C93 1.400 . S
C92 C94 1.364 . S
C93 C92 1.400 . S
C93 C97 1.377 . S
C94 C92 1.364 . S
C94 C95 1.374 . S
C95 H86 0.930 . S
C95 C94 1.374 . S
C95 C96 1.383 . S
C96 O90 1.412 . S
C96 C95 1.383 . S
C96 C97 1.394 . S
C97 H87 0.929 . S
C97 C93 1.377 . S
C97 C96 1.394 . S
H98 C106 0.929 . S
H99 C108 0.930 . S
H100 C110 0.930 1_556 S
H101 C113 0.911 1_556 S
H102 C116 0.930 . S
H103 C118 0.960 . S
H104 C118 0.960 . S
H105 C118 0.960 . S
C106 H98 0.929 . S
C106 C107 1.377 . S
C106 C108 1.384 . S
C107 C106 1.377 . S
C107 C113 1.402 . S
C108 H99 0.930 . S
C108 C106 1.384 . S
C108 C109 1.372 . S
C109 C108 1.372 . S
C109 C110 1.400 . S
C109 C114 1.490 . S
C110 H100 0.930 1_554 S
C110 C109 1.400 . S
C110 C113 1.392 . S
H111 C127 0.930 . S
H112 C128 0.931 . S
C113 H101 0.911 1_554 S
C113 C107 1.402 . S
C113 C110 1.392 . S
C114 C109 1.490 . S
C114 C116 1.395 . S
C114 C117 1.403 . S
H115 C121 0.930 . S
C116 H102 0.930 . S
C116 C114 1.395 . S
C116 C119 1.403 . S
C117 C114 1.403 . S
C117 C118 1.524 . S
C117 C121 1.400 . S
C118 H103 0.960 . S
C118 H104 0.960 . S
C118 H105 0.960 . S
C118 C117 1.524 . S
C119 C116 1.403 . S
C119 C120 1.392 . S
C119 C123 1.495 . S
C120 C119 1.392 . S
C120 C121 1.385 . S
C120 C122 1.478 . S
C121 H115 0.930 . S
C121 C117 1.400 . S
C121 C120 1.385 . S
C122 C120 1.478 . S
C122 C124 1.381 . S
C122 C128 1.383 . S
C123 C119 1.495 . S
C123 H129 0.959 . S
C123 H130 0.961 . S
C123 H131 0.960 . S
C124 C122 1.381 . S
C124 C125 1.394 . S
C124 H132 0.930 . S
C125 C124 1.394 . S
C125 C126 1.383 . S
C125 H133 0.929 . S
C126 C125 1.383 . S
C126 C127 1.377 . S
C127 H111 0.930 . S
C127 C126 1.377 . S
C127 C128 1.379 . S
C128 H112 0.931 . S
C128 C122 1.383 . S
C128 C127 1.379 . S
H129 C123 0.959 . S
H130 C123 0.961 . S
H131 C123 0.960 . S
H132 C124 0.930 . S
H133 C125 0.929 . S
H134 C142 0.913 1_554 S
H135 C144 0.930 . S
H136 C146 0.930 . S
H137 C149 0.929 . S
H138 C152 0.930 1_554 S
H139 C154 0.960 . S
H140 C154 0.960 . S
H141 C154 0.960 . S
C142 H134 0.913 1_556 S
C142 C143 1.384 . S
C142 C144 1.394 . S
C143 C142 1.384 . S
C143 C149 1.390 . S
C144 H135 0.930 . S
C144 C142 1.394 . S
C144 C145 1.372 . S
C145 C144 1.372 . S
C145 C146 1.400 . S
C145 C150 1.490 . S
C146 H136 0.930 . S
C146 C145 1.400 . S
C146 C149 1.386 . S
H147 C163 0.930 . S
H148 C164 0.931 . S
C149 H137 0.929 . S
C149 C143 1.390 . S
C149 C146 1.386 . S
C150 C145 1.490 . S
C150 C152 1.395 . S
C150 C153 1.403 . S
H151 C157 0.930 . S
C152 H138 0.930 1_556 S
C152 C150 1.395 . S
C152 C155 1.403 . S
C153 C150 1.403 . S
C153 C154 1.524 . S
C153 C157 1.400 . S
C154 H139 0.960 . S
C154 H140 0.960 . S
C154 H141 0.960 . S
C154 C153 1.524 . S
C155 C152 1.403 . S
C155 C156 1.392 . S
C155 C159 1.495 1_556 S
C156 C155 1.392 . S
C156 C157 1.385 . S
C156 C158 1.478 . S
C157 H151 0.930 . S
C157 C153 1.400 . S
C157 C156 1.385 . S
C158 C156 1.478 . S
C158 C160 1.381 . S
C158 C164 1.383 . S
C159 C155 1.495 1_554 S
C159 H165 0.959 . S
C159 H166 0.961 . S
C159 H167 0.960 . S
C160 C158 1.381 . S
C160 C161 1.394 . S
C160 H168 0.930 . S
C161 C160 1.394 . S
C161 C162 1.383 . S
C161 H169 0.929 . S
C162 C161 1.383 . S
C162 C163 1.377 . S
C163 H147 0.930 . S
C163 C162 1.377 . S
C163 C164 1.379 . S
C164 H148 0.931 . S
C164 C158 1.383 . S
C164 C163 1.379 . S
H165 C159 0.959 . S
H166 C159 0.961 . S
H167 C159 0.960 . S
H168 C160 0.930 . S
H169 C161 0.929 . S
H170 C178 0.929 . S
H171 C180 0.930 . S
H172 C182 0.930 . S
H173 C185 0.929 . S
H174 C188 0.930 . S
H175 C190 0.960 . S
H176 C190 0.960 . S
H177 C190 0.960 . S
C178 H170 0.929 . S
C178 C179 1.377 . S
C178 C180 1.384 . S
C179 C178 1.377 . S
C179 C185 1.390 . S
C180 H171 0.930 . S
C180 C178 1.384 . S
C180 C181 1.372 . S
C181 C180 1.372 . S
C181 C182 1.400 . S
C181 C186 1.490 . S
C182 H172 0.930 . S
C182 C181 1.400 . S
C182 C185 1.386 . S
H183 C199 0.930 . S
H184 C200 0.931 . S
C185 H173 0.929 . S
C185 C179 1.390 . S
C185 C182 1.386 . S
C186 C181 1.490 . S
C186 C188 1.395 . S
C186 C189 1.403 . S
H187 C193 0.930 . S
C188 H174 0.930 . S
C188 C186 1.395 . S
C188 C191 1.403 . S
C189 C186 1.403 . S
C189 C190 1.524 . S
C189 C193 1.400 . S
C190 H175 0.960 . S
C190 H176 0.960 . S
C190 H177 0.960 . S
C190 C189 1.524 . S
C191 C188 1.403 . S
C191 C192 1.392 . S
C191 C195 1.495 . S
C192 C191 1.392 . S
C192 C193 1.385 . S
C192 C194 1.478 . S
C193 H187 0.930 . S
C193 C189 1.400 . S
C193 C192 1.385 . S
C194 C192 1.478 . S
C194 C196 1.381 . S
C194 C200 1.383 . S
C195 C191 1.495 . S
C195 H201 0.959 . S
C195 H202 0.961 . S
C195 H203 0.960 . S
C196 C194 1.381 . S
C196 C197 1.394 . S
C196 H204 0.930 . S
C197 C196 1.394 . S
C197 C198 1.383 . S
C197 H205 0.929 . S
C198 C197 1.383 . S
C198 C199 1.377 . S
C199 H183 0.930 . S
C199 C198 1.377 . S
C199 C200 1.379 . S
C200 H184 0.931 . S
C200 C194 1.383 . S
C200 C199 1.379 . S
H201 C195 0.959 . S
H202 C195 0.961 . S
H203 C195 0.960 . S
H204 C196 0.930 . S
H205 C197 0.929 . S
H206 C214 0.929 . S
H207 C216 0.930 . S
H208 C218 0.930 . S
H209 C221 0.929 . S
H210 C224 0.930 . S
H211 C226 0.960 . S
H212 C226 0.960 . S
H213 C226 0.960 . S
C214 H206 0.929 . S
C214 C215 1.377 . S
C214 C216 1.384 . S
C215 C214 1.377 . S
C215 C221 1.390 . S
C216 H207 0.930 . S
C216 C214 1.384 . S
C216 C217 1.372 . S
C217 C216 1.372 . S
C217 C218 1.400 . S
C217 C222 1.490 . S
C218 H208 0.930 . S
C218 C217 1.400 . S
C218 C221 1.386 . S
H219 C235 0.930 . S
H220 C236 0.931 . S
C221 H209 0.929 . S
C221 C215 1.390 . S
C221 C218 1.386 . S
C222 C217 1.490 . S
C222 C224 1.395 . S
C222 C225 1.403 . S
H223 C229 0.930 . S
C224 H210 0.930 . S
C224 C222 1.395 . S
C224 C227 1.403 . S
C225 C222 1.403 . S
C225 C226 1.524 1_556 S
C225 C229 1.400 . S
C226 H211 0.960 . S
C226 H212 0.960 . S
C226 H213 0.960 . S
C226 C225 1.524 1_554 S
C227 C224 1.403 . S
C227 C228 1.392 . S
C227 C231 1.495 . S
C228 C227 1.392 . S
C228 C229 1.385 . S
C228 C230 1.478 . S
C229 H223 0.930 . S
C229 C225 1.400 . S
C229 C228 1.385 . S
C230 C228 1.478 . S
C230 C232 1.381 . S
C230 C236 1.383 . S
C231 C227 1.495 . S
C231 H237 0.959 . S
C231 H238 0.961 . S
C231 H239 0.960 . S
C232 C230 1.381 . S
C232 C233 1.394 . S
C232 H240 0.930 . S
C233 C232 1.394 . S
C233 C234 1.383 . S
C233 H241 0.929 . S
C234 C233 1.383 . S
C234 C235 1.377 . S
C235 H219 0.930 . S
C235 C234 1.377 . S
C235 C236 1.379 . S
C236 H220 0.931 . S
C236 C230 1.383 . S
C236 C235 1.379 . S
H237 C231 0.959 . S
H238 C231 0.961 . S
H239 C231 0.960 . S
H240 C232 0.930 . S
H241 C233 0.929 . S
H242 C250 0.929 . S
H243 C252 0.930 . S
H244 C254 0.930 . S
H245 C257 0.929 . S
H246 C260 0.930 . S
H247 C262 0.960 . S
H248 C262 0.960 . S
H249 C262 0.960 . S
C250 H242 0.929 . S
C250 C251 1.377 . S
C250 C252 1.384 . S
C251 C250 1.377 . S
C251 C257 1.390 . S
C252 H243 0.930 . S
C252 C250 1.384 . S
C252 C253 1.372 . S
C253 C252 1.372 . S
C253 C254 1.400 . S
C253 C258 1.490 . S
C254 H244 0.930 . S
C254 C253 1.400 . S
C254 C257 1.386 . S
H255 C271 0.930 . S
H256 C272 0.931 . S
C257 H245 0.929 . S
C257 C251 1.390 . S
C257 C254 1.386 . S
C258 C253 1.490 . S
C258 C260 1.395 . S
C258 C261 1.403 . S
H259 C265 0.930 . S
C260 H246 0.930 . S
C260 C258 1.395 . S
C260 C263 1.403 . S
C261 C258 1.403 . S
C261 C262 1.524 . S
C261 C265 1.400 . S
C262 H247 0.960 . S
C262 H248 0.960 . S
C262 H249 0.960 . S
C262 C261 1.524 . S
C263 C260 1.403 . S
C263 C264 1.392 . S
C263 C267 1.495 . S
C264 C263 1.392 . S
C264 C265 1.385 . S
C264 C266 1.478 . S
C265 H259 0.930 . S
C265 C261 1.400 . S
C265 C264 1.385 . S
C266 C264 1.478 . S
C266 C268 1.381 . S
C266 C272 1.383 . S
C267 C263 1.495 . S
C267 H273 0.959 . S
C267 H274 0.961 . S
C267 H275 0.960 . S
C268 C266 1.381 . S
C268 C269 1.394 . S
C268 H276 0.930 . S
C269 C268 1.394 . S
C269 C270 1.383 . S
C269 H277 0.929 . S
C270 C269 1.383 . S
C270 C271 1.377 . S
C271 H255 0.930 . S
C271 C270 1.377 . S
C271 C272 1.379 . S
C272 H256 0.931 . S
C272 C266 1.383 . S
C272 C271 1.379 . S
H273 C267 0.959 . S
H274 C267 0.961 . S
H275 C267 0.960 . S
H276 C268 0.930 . S
H277 C269 0.929 . S
H278 C286 0.929 . S
H279 C288 0.930 . S
H280 C290 0.930 . S
H281 C293 0.929 . S
H282 C296 0.930 . S
H283 C298 0.960 . S
H284 C298 0.960 . S
H285 C298 0.960 . S
C286 H278 0.929 . S
C286 C287 1.377 . S
C286 C288 1.384 . S
C287 C286 1.377 . S
C287 C293 1.390 . S
C288 H279 0.930 . S
C288 C286 1.384 . S
C288 C289 1.372 . S
C289 C288 1.372 . S
C289 C290 1.400 . S
C289 C294 1.490 . S
C290 H280 0.930 . S
C290 C289 1.400 . S
C290 C293 1.386 . S
H291 C307 0.930 . S
H292 C308 0.931 . S
C293 H281 0.929 . S
C293 C287 1.390 . S
C293 C290 1.386 . S
C294 C289 1.490 . S
C294 C296 1.395 . S
C294 C297 1.403 . S
H295 C301 0.930 . S
C296 H282 0.930 . S
C296 C294 1.395 . S
C296 C299 1.403 . S
C297 C294 1.403 . S
C297 C298 1.524 . S
C297 C301 1.400 . S
C298 H283 0.960 . S
C298 H284 0.960 . S
C298 H285 0.960 . S
C298 C297 1.524 . S
C299 C296 1.403 . S
C299 C300 1.392 . S
C299 C303 1.495 . S
C300 C299 1.392 . S
C300 C301 1.385 . S
C300 C302 1.478 . S
C301 H295 0.930 . S
C301 C297 1.400 . S
C301 C300 1.385 . S
C302 C300 1.478 . S
C302 C304 1.381 . S
C302 C308 1.383 . S
C303 C299 1.495 . S
C303 H309 0.959 . S
C303 H310 0.961 . S
C303 H311 0.960 . S
C304 C302 1.381 . S
C304 C305 1.394 . S
C304 H312 0.930 . S
C305 C304 1.394 . S
C305 C306 1.383 . S
C305 H313 0.929 . S
C306 C305 1.383 . S
C306 C307 1.377 . S
C307 H291 0.930 . S
C307 C306 1.377 . S
C307 C308 1.379 . S
C308 H292 0.931 . S
C308 C302 1.383 . S
C308 C307 1.379 . S
H309 C303 0.959 . S
H310 C303 0.961 . S
H311 C303 0.960 . S
H312 C304 0.930 . S
H313 C305 0.929 . S
H314 C322 0.929 . S
H315 C324 0.930 . S
H316 C326 0.930 . S
H317 C329 0.929 . S
H318 C332 0.930 . S
H319 C334 0.960 . S
H320 C334 0.960 . S
H321 C334 0.960 . S
C322 H314 0.929 . S
C322 C323 1.377 . S
C322 C324 1.384 . S
C323 C322 1.377 . S
C323 C329 1.390 . S
C324 H315 0.930 . S
C324 C322 1.384 . S
C324 C325 1.372 . S
C325 C324 1.372 . S
C325 C326 1.400 . S
C325 C330 1.490 . S
C326 H316 0.930 . S
C326 C325 1.400 . S
C326 C329 1.386 . S
H327 C343 0.930 . S
H328 C344 0.931 . S
C329 H317 0.929 . S
C329 C323 1.390 . S
C329 C326 1.386 . S
C330 C325 1.490 . S
C330 C332 1.395 . S
C330 C333 1.403 . S
H331 C337 0.930 . S
C332 H318 0.930 . S
C332 C330 1.395 . S
C332 C335 1.403 . S
C333 C330 1.403 . S
C333 C334 1.524 . S
C333 C337 1.400 . S
C334 H319 0.960 . S
C334 H320 0.960 . S
C334 H321 0.960 . S
C334 C333 1.524 . S
C335 C332 1.403 . S
C335 C336 1.392 . S
C335 C339 1.495 . S
C336 C335 1.392 . S
C336 C337 1.385 . S
C336 C338 1.478 . S
C337 H331 0.930 . S
C337 C333 1.400 . S
C337 C336 1.385 . S
C338 C336 1.478 . S
C338 C340 1.381 . S
C338 C344 1.383 . S
C339 C335 1.495 . S
C339 H345 0.959 . S
C339 H346 0.961 . S
C339 H347 0.960 . S
C340 C338 1.381 . S
C340 C341 1.394 . S
C340 H348 0.930 . S
C341 C340 1.394 . S
C341 C342 1.383 . S
C341 H349 0.929 . S
C342 C341 1.383 . S
C342 C343 1.377 . S
C343 H327 0.930 . S
C343 C342 1.377 . S
C343 C344 1.379 . S
C344 H328 0.931 . S
C344 C338 1.383 . S
C344 C343 1.379 . S
H345 C339 0.959 . S
H346 C339 0.961 . S
H347 C339 0.960 . S
H348 C340 0.930 . S
H349 C341 0.929 . S
H350 C358 0.929 . S
H351 C360 0.930 . S
H352 C362 0.930 . S
H353 C365 0.929 . S
H354 C368 0.930 . S
H355 C370 0.960 . S
H356 C370 0.960 . S
H357 C370 0.960 . S
C358 H350 0.929 . S
C358 C359 1.377 . S
C358 C360 1.384 . S
C359 C358 1.377 . S
C359 C365 1.390 . S
C360 H351 0.930 . S
C360 C358 1.384 . S
C360 C361 1.372 . S
C361 C360 1.372 . S
C361 C362 1.400 . S
C361 C366 1.490 . S
C362 H352 0.930 . S
C362 C361 1.400 . S
C362 C365 1.386 . S
H363 C379 0.930 . S
H364 C380 0.931 . S
C365 H353 0.929 . S
C365 C359 1.390 . S
C365 C362 1.386 . S
C366 C361 1.490 . S
C366 C368 1.395 . S
C366 C369 1.403 . S
H367 C373 0.930 . S
C368 H354 0.930 . S
C368 C366 1.395 . S
C368 C371 1.403 . S
C369 C366 1.403 . S
C369 C370 1.524 . S
C369 C373 1.400 . S
C370 H355 0.960 . S
C370 H356 0.960 . S
C370 H357 0.960 . S
C370 C369 1.524 . S
C371 C368 1.403 . S
C371 C372 1.392 . S
C371 C375 1.495 . S
C372 C371 1.392 . S
C372 C373 1.385 . S
C372 C374 1.478 . S
C373 H367 0.930 . S
C373 C369 1.400 . S
C373 C372 1.385 . S
C374 C372 1.478 . S
C374 C376 1.381 . S
C374 C380 1.383 . S
C375 C371 1.495 . S
C375 H381 0.959 . S
C375 H382 0.961 . S
C375 H383 0.960 . S
C376 C374 1.381 . S
C376 C377 1.394 . S
C376 H384 0.930 . S
C377 C376 1.394 . S
C377 C378 1.383 . S
C377 H385 0.929 . S
C378 C377 1.383 . S
C378 C379 1.377 . S
C379 H363 0.930 . S
C379 C378 1.377 . S
C379 C380 1.379 . S
C380 H364 0.931 . S
C380 C374 1.383 . S
C380 C379 1.379 . S
H381 C375 0.959 . S
H382 C375 0.961 . S
H383 C375 0.960 . S
H384 C376 0.930 . S
H385 C377 0.929 . S
H386 C394 0.929 1_655 S
H387 C396 0.930 1_655 S
H388 C398 0.930 . S
H389 C401 0.929 . S
H390 C404 0.930 . S
H391 C406 0.960 . S
H392 C406 0.960 . S
H393 C406 0.960 1_565 S
C394 H386 0.929 1_455 S
C394 C395 1.377 . S
C394 C396 1.384 . S
C395 C394 1.377 . S
C395 C401 1.390 1_545 S
C396 H387 0.930 1_455 S
C396 C394 1.384 . S
C396 C397 1.372 . S
C397 C396 1.372 . S
C397 C398 1.400 1_545 S
C397 C402 1.490 . S
C398 H388 0.930 . S
C398 C397 1.400 1_565 S
C398 C401 1.386 . S
H399 C415 0.930 . S
H400 C416 0.931 . S
C401 H389 0.929 . S
C401 C395 1.390 1_565 S
C401 C398 1.386 . S
C402 C397 1.490 . S
C402 C404 1.395 1_445 S
C402 C405 1.403 . S
H403 C409 0.930 . S
C404 H390 0.930 . S
C404 C402 1.395 1_665 S
C404 C407 1.403 . S
C405 C402 1.403 . S
C405 C406 1.524 . S
C405 C409 1.400 . S
C406 H391 0.960 . S
C406 H392 0.960 . S
C406 H393 0.960 1_545 S
C406 C405 1.524 . S
C407 C404 1.403 . S
C407 C408 1.392 1_665 S
C407 C411 1.495 . S
C408 C407 1.392 1_445 S
C408 C409 1.385 . S
C408 C410 1.477 1_545 S
C409 H403 0.930 . S
C409 C405 1.400 . S
C409 C408 1.385 . S
C410 C408 1.477 1_565 S
C410 C412 1.381 1_465 S
C410 C416 1.383 . S
C411 C407 1.495 . S
C411 H417 0.959 . S
C411 H418 0.961 . S
C411 H419 0.960 1_565 S
C412 C410 1.381 1_645 S
C412 C413 1.394 . S
C412 H420 0.930 . S
C413 C412 1.394 . S
C413 C414 1.383 1_645 S
C413 H421 0.929 . S
C414 C413 1.383 1_465 S
C414 C415 1.377 . S
C415 H399 0.930 . S
C415 C414 1.377 . S
C415 C416 1.379 . S
C416 H400 0.931 . S
C416 C410 1.383 . S
C416 C415 1.379 . S
H417 C411 0.959 . S
H418 C411 0.961 . S
H419 C411 0.960 1_545 S
H420 C412 0.930 . S
H421 C413 0.929 . S
H422 C430 0.929 1_565 S
H423 C432 0.930 1_565 S
H424 C434 0.930 . S
H425 C437 0.929 . S
H426 C440 0.930 . S
H427 C442 0.960 . S
H428 C442 0.960 . S
H429 C442 0.960 . S
C430 H422 0.929 1_545 S
C430 C431 1.377 1_655 S
C430 C432 1.384 . S
C431 C430 1.377 1_455 S
C431 C437 1.390 . S
C432 H423 0.930 1_545 S
C432 C430 1.384 . S
C432 C433 1.372 1_655 S
C433 C432 1.372 1_455 S
C433 C434 1.400 . S
C433 C438 1.490 . S
C434 H424 0.930 . S
C434 C433 1.400 . S
C434 C437 1.386 . S
H435 C451 0.930 . S
H436 C452 0.931 . S
C437 H425 0.929 . S
C437 C431 1.390 . S
C437 C434 1.386 . S
C438 C433 1.490 . S
C438 C440 1.395 1_455 S
C438 C441 1.403 1_545 S
H439 C445 0.930 1_565 S
C440 H426 0.930 . S
C440 C438 1.395 1_655 S
C440 C443 1.403 . S
C441 C438 1.403 1_565 S
C441 C442 1.524 . S
C441 C445 1.400 1_565 S
C442 H427 0.960 . S
C442 H428 0.960 . S
C442 H429 0.960 . S
C442 C441 1.524 . S
C443 C440 1.403 . S
C443 C444 1.392 1_655 S
C443 C447 1.495 . S
C444 C443 1.392 1_455 S
C444 C445 1.385 . S
C444 C446 1.478 . S
C445 H439 0.930 1_545 S
C445 C441 1.400 1_545 S
C445 C444 1.385 . S
C446 C444 1.478 . S
C446 C448 1.381 1_455 S
C446 C452 1.383 . S
C447 C443 1.495 . S
C447 H453 0.959 . S
C447 H454 0.961 . S
C447 H455 0.960 . S
C448 C446 1.381 1_655 S
C448 C449 1.394 . S
C448 H456 0.930 1_545 S
C449 C448 1.394 . S
C449 C450 1.383 1_655 S
C449 H457 0.929 1_545 S
C450 C449 1.383 1_455 S
C450 C451 1.377 . S
C451 H435 0.930 . S
C451 C450 1.377 . S
C451 C452 1.379 . S
C452 H436 0.931 . S
C452 C446 1.383 . S
C452 C451 1.379 . S
H453 C447 0.959 . S
H454 C447 0.961 . S
H455 C447 0.960 . S
H456 C448 0.930 1_565 S
H457 C449 0.929 1_565 S
H458 C466 0.929 . S
H459 C468 0.930 . S
H460 C470 0.930 . S
H461 C473 0.929 . S
H462 C476 0.930 . S
H463 C478 0.960 . S
H464 C478 0.960 . S
H465 C478 0.960 . S
C466 H458 0.929 . S
C466 C467 1.377 . S
C466 C468 1.384 . S
C467 C466 1.377 . S
C467 C473 1.390 . S
C468 H459 0.930 . S
C468 C466 1.384 . S
C468 C469 1.372 . S
C469 C468 1.372 . S
C469 C470 1.400 . S
C469 C474 1.490 . S
C470 H460 0.930 . S
C470 C469 1.400 . S
C470 C473 1.386 . S
H471 C487 0.930 . S
H472 C488 0.931 . S
C473 H461 0.929 . S
C473 C467 1.390 . S
C473 C470 1.386 . S
C474 C469 1.490 . S
C474 C476 1.395 . S
C474 C477 1.403 . S
H475 C481 0.930 . S
C476 H462 0.930 . S
C476 C474 1.395 . S
C476 C479 1.403 . S
C477 C474 1.403 . S
C477 C478 1.524 . S
C477 C481 1.400 . S
C478 H463 0.960 . S
C478 H464 0.960 . S
C478 H465 0.960 . S
C478 C477 1.524 . S
C479 C476 1.403 . S
C479 C480 1.392 . S
C479 C483 1.495 . S
C480 C479 1.392 . S
C480 C481 1.385 . S
C480 C482 1.478 . S
C481 H475 0.930 . S
C481 C477 1.400 . S
C481 C480 1.385 . S
C482 C480 1.478 . S
C482 C484 1.381 . S
C482 C488 1.383 . S
C483 C479 1.495 . S
C483 H489 0.959 . S
C483 H490 0.961 . S
C483 H491 0.960 . S
C484 C482 1.381 . S
C484 C485 1.394 . S
C484 H492 0.930 . S
C485 C484 1.394 . S
C485 C486 1.383 . S
C485 H493 0.929 . S
C486 C485 1.383 . S
C486 C487 1.377 . S
C487 H471 0.930 . S
C487 C486 1.377 . S
C487 C488 1.379 . S
C488 H472 0.931 . S
C488 C482 1.383 . S
C488 C487 1.379 . S
H489 C483 0.959 . S
H490 C483 0.961 . S
H491 C483 0.960 . S
H492 C484 0.930 . S
H493 C485 0.929 . S
H494 C502 0.929 . S
H495 C504 0.930 . S
H496 C506 0.930 . S
H497 C509 0.929 . S
H498 C512 0.930 . S
H499 C514 0.960 . S
H500 C514 0.960 . S
H501 C514 0.960 . S
C502 H494 0.929 . S
C502 C503 1.377 . S
C502 C504 1.384 . S
C503 C502 1.377 . S
C503 C509 1.390 . S
C504 H495 0.930 . S
C504 C502 1.384 . S
C504 C505 1.372 . S
C505 C504 1.372 . S
C505 C506 1.400 . S
C505 C510 1.490 . S
C506 H496 0.930 . S
C506 C505 1.400 . S
C506 C509 1.386 . S
H507 C523 0.930 . S
H508 C524 0.931 . S
C509 H497 0.929 . S
C509 C503 1.390 . S
C509 C506 1.386 . S
C510 C505 1.490 . S
C510 C512 1.395 . S
C510 C513 1.403 . S
H511 C517 0.930 . S
C512 H498 0.930 . S
C512 C510 1.395 . S
C512 C515 1.403 . S
C513 C510 1.403 . S
C513 C514 1.524 . S
C513 C517 1.400 . S
C514 H499 0.960 . S
C514 H500 0.960 . S
C514 H501 0.960 . S
C514 C513 1.524 . S
C515 C512 1.403 . S
C515 C516 1.392 . S
C515 C519 1.495 . S
C516 C515 1.392 . S
C516 C517 1.385 . S
C516 C518 1.478 . S
C517 H511 0.930 . S
C517 C513 1.400 . S
C517 C516 1.385 . S
C518 C516 1.478 . S
C518 C520 1.381 . S
C518 C524 1.383 . S
C519 C515 1.495 . S
C519 H525 0.959 . S
C519 H526 0.961 . S
C519 H527 0.960 . S
C520 C518 1.381 . S
C520 C521 1.394 . S
C520 H528 0.930 . S
C521 C520 1.394 . S
C521 C522 1.383 . S
C521 H529 0.929 . S
C522 C521 1.383 . S
C522 C523 1.377 . S
C523 H507 0.930 . S
C523 C522 1.377 . S
C523 C524 1.379 . S
C524 H508 0.931 . S
C524 C518 1.383 . S
C524 C523 1.379 . S
H525 C519 0.959 . S
H526 C519 0.961 . S
H527 C519 0.960 . S
H528 C520 0.930 . S
H529 C521 0.929 . S
C126 C89 1.305 . S
C107 C21 1.384 . S
C143 C19 1.379 1_556 S
C162 C76 1.333 . S
C179 C18 1.484 . S
C198 C93 1.503 . S
C215 C20 1.512 . S
C234 C80 1.500 . S
C251 C44 1.380 . S
C270 C63 1.299 . S
C287 C42 1.376 . S
C306 C50 1.283 . S
C342 C67 1.500 . S
C323 C41 1.478 . S
C378 C54 1.521 . S
C359 C43 1.515 . S
C395 C16 1.529 . S
C414 C55 1.526 . S
C431 C17 1.489 . S
C450 C68 1.485 . S
C486 C81 1.527 . S
C467 C39 1.529 . S
C503 C40 1.489 . S
C522 C94 1.481 . S
