# Generated by pormake.
# Topology ssa, (4,4)-cn, num edge types: 1
# Building blocks:
#     Node 0, Type 0, BuildingBlock: KOZSID_clean_sbu_0, # of connection points: 4
#     Node 1, Type 0, BuildingBlock: KOZSID_clean_sbu_0, # of connection points: 4
#     Node 2, Type 0, BuildingBlock: KOZSID_clean_sbu_0, # of connection points: 4
#     Node 3, Type 0, BuildingBlock: KOZSID_clean_sbu_0, # of connection points: 4
#     Node 4, Type 0, BuildingBlock: KOZSID_clean_sbu_0, # of connection points: 4
#     Node 5, Type 0, BuildingBlock: KOZSID_clean_sbu_0, # of connection points: 4
#     Node 6, Type 1, BuildingBlock: GIZVER_clean_linker_0, # of connection points: 4
#     Node 7, Type 1, BuildingBlock: GIZVER_clean_linker_0, # of connection points: 4
#     Node 8, Type 1, BuildingBlock: GIZVER_clean_linker_0, # of connection points: 4
#     Node 9, Type 1, BuildingBlock: GIZVER_clean_linker_0, # of connection points: 4
#     Node 10, Type 1, BuildingBlock: GIZVER_clean_linker_0, # of connection points: 4
#     Node 11, Type 1, BuildingBlock: GIZVER_clean_linker_0, # of connection points: 4
#     Edge 12, Type (0, 1), BuildingBlock: MIFKUJ_clean_linker_0, # of connection points: 2
#     Edge 13, Type (0, 1), BuildingBlock: MIFKUJ_clean_linker_0, # of connection points: 2
#     Edge 14, Type (0, 1), BuildingBlock: MIFKUJ_clean_linker_0, # of connection points: 2
#     Edge 15, Type (0, 1), BuildingBlock: MIFKUJ_clean_linker_0, # of connection points: 2
#     Edge 16, Type (0, 1), BuildingBlock: MIFKUJ_clean_linker_0, # of connection points: 2
#     Edge 17, Type (0, 1), BuildingBlock: MIFKUJ_clean_linker_0, # of connection points: 2
#     Edge 18, Type (0, 1), BuildingBlock: MIFKUJ_clean_linker_0, # of connection points: 2
#     Edge 19, Type (0, 1), BuildingBlock: MIFKUJ_clean_linker_0, # of connection points: 2
#     Edge 20, Type (0, 1), BuildingBlock: MIFKUJ_clean_linker_0, # of connection points: 2
#     Edge 21, Type (0, 1), BuildingBlock: MIFKUJ_clean_linker_0, # of connection points: 2
#     Edge 22, Type (0, 1), BuildingBlock: MIFKUJ_clean_linker_0, # of connection points: 2
#     Edge 23, Type (0, 1), BuildingBlock: MIFKUJ_clean_linker_0, # of connection points: 2
#     Edge 24, Type (0, 1), BuildingBlock: MIFKUJ_clean_linker_0, # of connection points: 2
#     Edge 25, Type (0, 1), BuildingBlock: MIFKUJ_clean_linker_0, # of connection points: 2
#     Edge 26, Type (0, 1), BuildingBlock: MIFKUJ_clean_linker_0, # of connection points: 2
#     Edge 27, Type (0, 1), BuildingBlock: MIFKUJ_clean_linker_0, # of connection points: 2
#     Edge 28, Type (0, 1), BuildingBlock: MIFKUJ_clean_linker_0, # of connection points: 2
#     Edge 29, Type (0, 1), BuildingBlock: MIFKUJ_clean_linker_0, # of connection points: 2
#     Edge 30, Type (0, 1), BuildingBlock: MIFKUJ_clean_linker_0, # of connection points: 2
#     Edge 31, Type (0, 1), BuildingBlock: MIFKUJ_clean_linker_0, # of connection points: 2
#     Edge 32, Type (0, 1), BuildingBlock: MIFKUJ_clean_linker_0, # of connection points: 2
#     Edge 33, Type (0, 1), BuildingBlock: MIFKUJ_clean_linker_0, # of connection points: 2
#     Edge 34, Type (0, 1), BuildingBlock: MIFKUJ_clean_linker_0, # of connection points: 2
#     Edge 35, Type (0, 1), BuildingBlock: MIFKUJ_clean_linker_0, # of connection points: 2
# Relax obj value: 0.003
# Max RMSD: 0.033
# Mean RMSD: 0.019
data_MOF--net-ssa--node1-KOZSID_clean_sbu_0--node2-GIZVER_clean_linker_0--edge1-MIFKUJ_clean_linker_0
_symmetry_space_group_name_H-M    P1
_symmetry_Int_Tables_number       1
_symmetry_cell_setting            triclinic
loop_
_symmetry_equiv_pos_as_xyz
'x, y, z'
_cell_length_a     74.645481
_cell_length_b     76.038031
_cell_length_c     40.846104
_cell_angle_alpha  87.480093
_cell_angle_beta   89.799456
_cell_angle_gamma 121.75839
loop_
_atom_site_label
_atom_site_type_symbol
_atom_site_fract_x
_atom_site_fract_y
_atom_site_fract_z
_atom_type_partial_charge
C0 C 0.96516 0.50782 0.02378 0.0
C1 C 0.94887 0.5022 0.04645 0.0
C2 C 0.95168 0.49198 0.07223 0.0
C3 C 0.96933 0.49175 0.06379 0.0
N4 N 0.97819 0.50147 0.03439 0.0
Co5 Co 0.0026 0.5026 0.01134 0.0
N6 N 0.00676 0.48759 0.04944 0.0
C7 C 0.99551 0.48093 0.07814 0.0
C8 C 0.00312 0.47295 0.1009 0.0
C9 C 0.02056 0.47496 0.08614 0.0
C10 C 0.02244 0.48388 0.05489 0.0
N11 N 0.02637 0.50294 0.98773 0.0
C12 C 0.03951 0.49676 0.99832 0.0
C13 C 0.05371 0.49938 0.97371 0.0
C14 C 0.04975 0.50801 0.94688 0.0
C15 C 0.03331 0.51001 0.95648 0.0
N16 N 0.99928 0.51861 0.97399 0.0
C17 C 0.01136 0.52635 0.94613 0.0
C18 C 0.00582 0.53728 0.92545 0.0
C19 C 0.98906 0.53631 0.94087 0.0
C20 C 0.98517 0.52456 0.97002 0.0
N21 N 0.0228 0.52915 0.03093 0.0
C22 C 0.05267 0.56607 0.05964 0.0
C23 C 0.05497 0.56289 0.02687 0.0
C24 C 0.04002 0.54446 0.01315 0.0
C25 C 0.03493 0.55061 0.07762 0.0
C26 C 0.02024 0.53247 0.06285 0.0
N27 N 0.98224 0.47592 0.99162 0.0
C28 C 0.96425 0.45702 0.94412 0.0
C29 C 0.95084 0.43933 0.96384 0.0
C30 C 0.9538 0.43992 0.99754 0.0
C31 C 0.96936 0.45828 0.01087 0.0
C32 C 0.97993 0.47488 0.95832 0.0
H33 H 0.97036 0.45782 0.03684 0.0
H34 H 0.98977 0.48768 0.94173 0.0
H35 H 0.04289 0.54281 0.98823 0.0
H36 H 0.00703 0.52125 0.0778 0.0
C37 C 0.97809 0.48278 0.08313 0.0
C38 C 0.96712 0.51841 0.99203 0.0
C39 C 0.0398 0.4893 0.03174 0.0
C40 C 0.02628 0.52121 0.93867 0.0
H41 H 0.93603 0.50487 0.04445 0.0
H42 H 0.94188 0.48528 0.09431 0.0
H43 H 0.99703 0.46687 0.12559 0.0
H44 H 0.03091 0.47071 0.09752 0.0
H45 H 0.06608 0.496 0.97534 0.0
H46 H 0.05848 0.51315 0.92367 0.0
H47 H 0.01268 0.54449 0.90153 0.0
H48 H 0.98029 0.54298 0.93129 0.0
H49 H 0.06856 0.57435 0.01204 0.0
H50 H 0.03234 0.5525 0.103 0.0
H51 H 0.96268 0.45706 0.91775 0.0
H52 H 0.94373 0.42646 0.01367 0.0
C53 C 0.54316 0.01793 0.5538 0.0
C54 C 0.54699 0.01628 0.5867 0.0
C55 C 0.52896 0.9997 0.60041 0.0
C56 C 0.51516 0.99232 0.57529 0.0
N57 N 0.52341 0.00285 0.54616 0.0
Co58 Co 0.508 0.99893 0.50431 0.0
N59 N 0.48091 0.97575 0.52519 0.0
C60 C 0.47808 0.96733 0.55604 0.0
C61 C 0.45818 0.95058 0.56275 0.0
C62 C 0.44776 0.94785 0.53425 0.0
C63 C 0.46195 0.96326 0.51181 0.0
N64 N 0.49241 0.99597 0.46305 0.0
C65 C 0.47208 0.98225 0.45609 0.0
C66 C 0.46751 0.9858 0.42447 0.0
C67 C 0.48576 0.00211 0.41073 0.0
C68 C 0.50031 0.00764 0.43472 0.0
N69 N 0.53531 0.0213 0.48294 0.0
C70 C 0.53881 0.02782 0.45093 0.0
C71 C 0.55917 0.04353 0.44355 0.0
C72 C 0.56917 0.04747 0.47268 0.0
C73 C 0.55423 0.03396 0.49623 0.0
N74 N 0.51439 0.97788 0.49067 0.0
C75 C 0.51923 0.94547 0.47082 0.0
C76 C 0.51818 0.95896 0.44777 0.0
C77 C 0.51613 0.9751 0.4581 0.0
C78 C 0.51861 0.94888 0.50398 0.0
C79 C 0.51603 0.96495 0.51332 0.0
N80 N 0.50154 0.01985 0.51785 0.0
C81 C 0.50494 0.05317 0.50881 0.0
C82 C 0.49419 0.05049 0.5384 0.0
C83 C 0.48685 0.03209 0.55732 0.0
C84 C 0.49082 0.01716 0.54681 0.0
C85 C 0.5082 0.03768 0.49888 0.0
H86 H 0.48529 0.00368 0.56273 0.0
H87 H 0.5163 0.04058 0.47584 0.0
H88 H 0.51571 0.98494 0.43915 0.0
H89 H 0.51506 0.96632 0.53902 0.0
C90 C 0.4943 0.97578 0.5783 0.0
C91 C 0.55834 0.03465 0.53112 0.0
C92 C 0.45701 0.96481 0.4777 0.0
C93 C 0.52199 0.02155 0.42998 0.0
H94 H 0.56114 0.02629 0.5997 0.0
H95 H 0.52607 0.99404 0.62583 0.0
H96 H 0.45207 0.9413 0.58553 0.0
H97 H 0.43165 0.93569 0.5303 0.0
H98 H 0.45271 0.97703 0.41228 0.0
H99 H 0.48835 0.00851 0.38575 0.0
H100 H 0.56564 0.05195 0.42019 0.0
H101 H 0.58538 0.05946 0.47645 0.0
H102 H 0.519 0.95709 0.42176 0.0
H103 H 0.51945 0.93879 0.52266 0.0
H104 H 0.5107 0.06712 0.49322 0.0
H105 H 0.47856 0.02946 0.58057 0.0
C106 C 0.55038 0.51846 0.95336 0.0
C107 C 0.5562 0.51993 0.92044 0.0
C108 C 0.53882 0.51498 0.9025 0.0
C109 C 0.52308 0.50986 0.92524 0.0
N110 N 0.52952 0.51134 0.95633 0.0
Co111 Co 0.51015 0.49858 0.99506 0.0
N112 N 0.48756 0.4999 0.9723 0.0
C113 C 0.48586 0.50121 0.93968 0.0
C114 C 0.46836 0.50175 0.93115 0.0
C115 C 0.45847 0.5006 0.96037 0.0
C116 C 0.47057 0.49943 0.98509 0.0
N117 N 0.4904 0.48532 0.03321 0.0
C118 C 0.4732 0.48602 0.04127 0.0
C119 C 0.46424 0.47512 0.071 0.0
C120 C 0.47607 0.46697 0.08117 0.0
C121 C 0.49166 0.47351 0.05739 0.0
N122 N 0.53277 0.49719 0.01809 0.0
C123 C 0.529 0.48278 0.04199 0.0
C124 C 0.54595 0.48081 0.04733 0.0
C125 C 0.56133 0.4949 0.02546 0.0
C126 C 0.5534 0.50573 0.00907 0.0
N127 N 0.52002 0.52577 0.01181 0.0
C128 C 0.52564 0.56167 0.03791 0.0
C129 C 0.52522 0.54614 0.05827 0.0
C130 C 0.52273 0.52846 0.04468 0.0
C131 C 0.52462 0.55948 0.00397 0.0
C132 C 0.52174 0.54137 0.99142 0.0
N133 N 0.5 0.47115 0.97813 0.0
C134 C 0.50768 0.44769 0.95307 0.0
C135 C 0.48619 0.43323 0.94961 0.0
C136 C 0.47166 0.43785 0.96214 0.0
C137 C 0.47889 0.4568 0.97653 0.0
C138 C 0.51419 0.46647 0.96683 0.0
H139 H 0.46741 0.46004 0.98571 0.0
H140 H 0.53086 0.47729 0.96768 0.0
H141 H 0.52192 0.51647 0.06094 0.0
H142 H 0.51982 0.5395 0.96538 0.0
C143 C 0.50249 0.50483 0.91863 0.0
C144 C 0.56414 0.52132 0.98129 0.0
C145 C 0.46458 0.49583 0.02014 0.0
C146 C 0.50954 0.47196 0.05935 0.0
H147 H 0.57118 0.5234 0.91023 0.0
H148 H 0.53774 0.51479 0.87609 0.0
H149 H 0.46364 0.50337 0.90674 0.0
H150 H 0.44389 0.5003 0.96315 0.0
H151 H 0.45065 0.4732 0.08407 0.0
H152 H 0.47404 0.45813 0.10386 0.0
H153 H 0.54675 0.4698 0.06402 0.0
H154 H 0.57578 0.49539 0.02039 0.0
H155 H 0.52634 0.54744 0.08458 0.0
H156 H 0.52495 0.57118 0.98741 0.0
H157 H 0.51961 0.44472 0.94491 0.0
H158 H 0.45487 0.42724 0.96009 0.0
C159 C 0.96856 0.46312 0.47962 0.0
C160 C 0.95455 0.45209 0.45547 0.0
C161 C 0.95866 0.4659 0.42978 0.0
C162 C 0.97495 0.48445 0.43962 0.0
N163 N 0.98183 0.48327 0.46976 0.0
Co164 Co 0.00472 0.50661 0.49398 0.0
N165 N 0.00958 0.52732 0.45736 0.0
C166 C 0.9995 0.52338 0.42863 0.0
C167 C 0.00705 0.54041 0.40743 0.0
C168 C 0.0231 0.55619 0.42332 0.0
C169 C 0.02432 0.54786 0.45361 0.0
N170 N 0.02735 0.53002 0.51848 0.0
C171 C 0.03998 0.55039 0.50933 0.0
C172 C 0.05353 0.56146 0.53395 0.0
C173 C 0.04967 0.5475 0.55928 0.0
C174 C 0.03396 0.52884 0.54884 0.0
N175 N 1.0001 0.48584 0.53034 0.0
C176 C 0.01092 0.48962 0.55833 0.0
C177 C 0.00343 0.4726 0.57952 0.0
C178 C 0.98664 0.45705 0.56447 0.0
C179 C 0.98491 0.46546 0.5346 0.0
N180 N 0.02631 0.50242 0.4731 0.0
C181 C 0.05751 0.49743 0.44319 0.0
C182 C 0.05787 0.50086 0.47659 0.0
C183 C 0.04229 0.5033 0.49088 0.0
C184 C 0.04115 0.4964 0.42513 0.0
C185 C 0.02588 0.4989 0.44039 0.0
N186 N 0.98313 0.51071 0.51489 0.0
C187 C 0.96596 0.51269 0.56377 0.0
C188 C 0.95103 0.51405 0.54518 0.0
C189 C 0.95267 0.5141 0.51107 0.0
C190 C 0.96863 0.5123 0.49656 0.0
C191 C 0.98181 0.51124 0.54828 0.0
H192 H 0.96877 0.51199 0.47051 0.0
H193 H 0.99273 0.5104 0.56393 0.0
H194 H 0.04365 0.50605 0.51631 0.0
H195 H 0.01395 0.49798 0.42512 0.0
C196 C 0.98358 0.50335 0.4217 0.0
C197 C 0.9678 0.454 0.51215 0.0
C198 C 0.04038 0.55981 0.47726 0.0
C199 C 0.02615 0.50978 0.56594 0.0
H200 H 0.94227 0.43584 0.45668 0.0
H201 H 0.95042 0.46289 0.407 0.0
H202 H 1.00188 0.54116 0.38296 0.0
H203 H 0.03304 0.5719 0.41325 0.0
H204 H 0.06531 0.57786 0.53334 0.0
H205 H 0.05774 0.55052 0.58224 0.0
H206 H 0.00881 0.47186 0.60383 0.0
H207 H 0.97644 0.44155 0.57514 0.0
H208 H 0.07033 0.50204 0.49166 0.0
H209 H 0.03993 0.49347 0.39927 0.0
H210 H 0.96556 0.51296 0.59025 0.0
H211 H 0.9414 0.51506 0.49565 0.0
C212 C 0.47361 0.98496 0.0455 0.0
C213 C 0.46888 0.98792 0.0769 0.0
C214 C 0.48669 0.00475 0.08762 0.0
C215 C 0.50119 0.01115 0.06221 0.0
N216 N 0.49363 0.99956 0.0357 0.0
Co217 Co 0.5093 0.00326 0.99346 0.0
N218 N 0.53612 0.02674 0.01048 0.0
C219 C 0.53913 0.03438 0.04064 0.0
C220 C 0.5592 0.05068 0.04499 0.0
C221 C 0.56961 0.05381 0.01576 0.0
C222 C 0.55518 0.03921 0.9952 0.0
N223 N 0.52494 0.00714 0.95106 0.0
C224 C 0.54501 0.02167 0.94137 0.0
C225 C 0.54946 0.01932 0.9094 0.0
C226 C 0.53148 0.00283 0.89835 0.0
C227 C 0.51715 0.9961 0.92407 0.0
N228 N 0.48253 0.97956 0.97666 0.0
C229 C 0.47967 0.97166 0.94673 0.0
C230 C 0.45992 0.95475 0.94288 0.0
C231 C 0.44958 0.95141 0.97224 0.0
C232 C 0.46368 0.96664 0.99234 0.0
N233 N 0.50161 0.02324 0.97622 0.0
C234 C 0.49205 0.05238 0.95091 0.0
C235 C 0.48791 0.03541 0.93318 0.0
C236 C 0.49289 0.02122 0.94609 0.0
C237 C 0.50085 0.05443 0.98163 0.0
C238 C 0.5053 0.03973 0.99382 0.0
N239 N 0.51698 0.98331 0.01069 0.0
C240 C 0.51928 0.95301 0.00458 0.0
C241 C 0.52561 0.95364 0.03689 0.0
C242 C 0.52812 0.96977 0.05545 0.0
C243 C 0.52369 0.98421 0.04207 0.0
C244 C 0.51517 0.96792 0.99204 0.0
H245 H 0.52561 0.99584 0.05777 0.0
H246 H 0.51025 0.96648 0.96736 0.0
H247 H 0.48973 0.00889 0.93105 0.0
H248 H 0.51182 0.04214 0.01748 0.0
C249 C 0.5224 0.02686 0.06352 0.0
C250 C 0.45885 0.96751 0.02664 0.0
C251 C 0.56008 0.03847 0.96096 0.0
C252 C 0.49615 0.97988 0.9233 0.0
H253 H 0.45419 0.97857 0.09086 0.0
H254 H 0.489 0.01118 0.11147 0.0
H255 H 0.56535 0.05958 0.06653 0.0
H256 H 0.58586 0.06578 0.00994 0.0
H257 H 0.56408 0.02879 0.89535 0.0
H258 H 0.52902 0.9967 0.87425 0.0
H259 H 0.45393 0.94558 0.92156 0.0
H260 H 0.43364 0.93887 0.97835 0.0
H261 H 0.48127 0.03331 0.90908 0.0
H262 H 0.50412 0.06724 0.99639 0.0
H263 H 0.51699 0.94079 0.98918 0.0
H264 H 0.53347 0.9713 0.08037 0.0
C265 C 0.51571 0.54774 0.51933 0.0
C266 C 0.51426 0.55987 0.54234 0.0
C267 C 0.50537 0.54747 0.57013 0.0
C268 C 0.50202 0.5286 0.56256 0.0
N269 N 0.50871 0.52832 0.53187 0.0
Co270 Co 0.50596 0.5039 0.5101 0.0
N271 N 0.49056 0.48497 0.54957 0.0
C272 C 0.48569 0.49018 0.57804 0.0
C273 C 0.47607 0.47414 0.60128 0.0
C274 C 0.475 0.45774 0.58706 0.0
C275 C 0.48399 0.46473 0.55574 0.0
N276 N 0.50295 0.47942 0.48812 0.0
C277 C 0.49498 0.45968 0.50001 0.0
C278 C 0.49616 0.44754 0.47672 0.0
C279 C 0.50566 0.46018 0.44934 0.0
C280 C 0.50962 0.47919 0.45739 0.0
N281 N 0.52155 0.52291 0.47078 0.0
C282 C 0.52722 0.51788 0.44285 0.0
C283 C 0.53647 0.53378 0.41936 0.0
C284 C 0.5364 0.54984 0.43278 0.0
C285 C 0.52718 0.54284 0.46399 0.0
N286 N 0.53313 0.50965 0.52838 0.0
C287 C 0.57053 0.51546 0.55562 0.0
C288 C 0.56606 0.51076 0.52283 0.0
C289 C 0.54749 0.50801 0.50982 0.0
C290 C 0.55615 0.51767 0.57425 0.0
C291 C 0.53777 0.5147 0.56032 0.0
N292 N 0.4789 0.49826 0.49183 0.0
C293 C 0.45779 0.49441 0.44479 0.0
C294 C 0.4431 0.49568 0.46414 0.0
C295 C 0.44603 0.49717 0.49789 0.0
C296 C 0.46391 0.49843 0.51112 0.0
C297 C 0.47532 0.49556 0.45904 0.0
H298 H 0.46554 0.50007 0.53688 0.0
H299 H 0.48601 0.49469 0.44287 0.0
H300 H 0.545 0.50431 0.48478 0.0
H301 H 0.5275 0.51643 0.57605 0.0
C302 C 0.49136 0.51054 0.58285 0.0
C303 C 0.52254 0.55499 0.48531 0.0
C304 C 0.48708 0.45197 0.53352 0.0
C305 C 0.52105 0.49742 0.43769 0.0
H306 H 0.51857 0.57585 0.53897 0.0
H307 H 0.50115 0.55151 0.59275 0.0
H308 H 0.47101 0.4745 0.62598 0.0
H309 H 0.4688 0.44251 0.5988 0.0
H310 H 0.49115 0.43134 0.47954 0.0
H311 H 0.50981 0.45615 0.42664 0.0
H312 H 0.54155 0.53339 0.39469 0.0
H313 H 0.54174 0.56467 0.42024 0.0
H314 H 0.5766 0.50877 0.50734 0.0
H315 H 0.55906 0.52178 0.59957 0.0
H316 H 0.45591 0.49274 0.41861 0.0
H317 H 0.43502 0.49815 0.51389 0.0
H318 H 0.23856 0.50681 0.16311 0.0
H319 H 0.24213 0.50691 0.26846 0.0
H320 H 0.18193 0.47657 0.22332 0.0
H321 H 0.27095 0.53127 0.18846 0.0
H322 H 0.27184 0.53348 0.23162 0.0
H323 H 0.283 0.51095 0.16251 0.0
H324 H 0.31844 0.49261 0.22168 0.0
H325 H 0.28061 0.51228 0.26794 0.0
C326 C 0.23089 0.50154 0.18718 0.0
C327 C 0.20876 0.49024 0.18997 0.0
C328 C 0.24313 0.50716 0.21546 0.0
C329 C 0.23289 0.50158 0.24665 0.0
C330 C 0.21075 0.49023 0.24961 0.0
C331 C 0.19896 0.48423 0.22118 0.0
C332 C 0.26676 0.52207 0.21225 0.0
C333 C 0.27917 0.51149 0.21504 0.0
C334 C 0.28699 0.50759 0.1865 0.0
C335 C 0.30094 0.50046 0.1889 0.0
C336 C 0.30694 0.4972 0.21987 0.0
C337 C 0.29997 0.50169 0.24838 0.0
C338 C 0.28555 0.50821 0.24601 0.0
H339 H 0.73042 0.22777 0.68212 0.0
H340 H 0.73814 0.23102 0.7866 0.0
H341 H 0.70779 0.17214 0.74299 0.0
H342 H 0.74006 0.25938 0.70804 0.0
H343 H 0.73863 0.2594 0.7516 0.0
H344 H 0.77337 0.27096 0.6793 0.0
H345 H 0.82991 0.30381 0.73395 0.0
H346 H 0.76982 0.26876 0.78486 0.0
C347 C 0.72902 0.22023 0.70596 0.0
C348 C 0.71885 0.19852 0.70908 0.0
C349 C 0.73651 0.23214 0.7338 0.0
C350 C 0.73353 0.2221 0.76488 0.0
C351 C 0.72346 0.20046 0.76821 0.0
C352 C 0.71668 0.18892 0.74017 0.0
C353 C 0.74519 0.25514 0.73103 0.0
C354 C 0.76896 0.26761 0.732 0.0
C355 C 0.78112 0.27482 0.70259 0.0
C356 C 0.80315 0.28789 0.70309 0.0
C357 C 0.81301 0.29302 0.73335 0.0
C358 C 0.80112 0.28626 0.76284 0.0
C359 C 0.77908 0.2735 0.76212 0.0
H360 H 0.50743 0.72735 0.20413 0.0
H361 H 0.51032 0.72892 0.3095 0.0
H362 H 0.52979 0.69334 0.25806 0.0
H363 H 0.48884 0.73991 0.2334 0.0
H364 H 0.48487 0.73497 0.27656 0.0
H365 H 0.51525 0.77381 0.21006 0.0
H366 H 0.54205 0.82404 0.27483 0.0
H367 H 0.50785 0.76136 0.31482 0.0
C368 C 0.51211 0.72356 0.22716 0.0
C369 C 0.51964 0.71008 0.22775 0.0
C370 C 0.50896 0.73072 0.25665 0.0
C371 C 0.51367 0.72436 0.28662 0.0
C372 C 0.52156 0.71116 0.28724 0.0
C373 C 0.52477 0.7044 0.25766 0.0
C374 C 0.49729 0.74204 0.25668 0.0
C375 C 0.51152 0.76494 0.26183 0.0
C376 C 0.51909 0.77932 0.2346 0.0
C377 C 0.52958 0.80069 0.23918 0.0
C378 C 0.53404 0.80757 0.27111 0.0
C379 C 0.52606 0.7936 0.29844 0.0
C380 C 0.51485 0.77223 0.29378 0.0
H381 H 0.76757 0.56159 0.73373 0.0
H382 H 0.77246 0.56794 0.83838 0.0
H383 H 0.71276 0.54481 0.79327 0.0
H384 H 0.80167 0.58457 0.75814 0.0
H385 H 0.80383 0.58704 0.80125 0.0
H386 H 0.80211 0.55596 0.73225 0.0
H387 H 0.83198 0.52966 0.78827 0.0
H388 H 0.80967 0.56385 0.83617 0.0
C389 C 0.76017 0.55922 0.75774 0.0
C390 C 0.73868 0.55241 0.76029 0.0
C391 C 0.77253 0.5647 0.78588 0.0
C392 C 0.76296 0.56291 0.81679 0.0
C393 C 0.74129 0.55539 0.81953 0.0
C394 C 0.72934 0.54994 0.7913 0.0
C395 C 0.79626 0.57553 0.7821 0.0
C396 C 0.80408 0.56076 0.78421 0.0
C397 C 0.80687 0.55261 0.75556 0.0
C398 C 0.81683 0.54116 0.75672 0.0
C399 C 0.82329 0.53745 0.78713 0.0
C400 C 0.82073 0.54548 0.81575 0.0
C401 C 0.81101 0.55703 0.81426 0.0
H402 H 0.28215 0.78053 0.21816 0.0
H403 H 0.27381 0.78066 0.32267 0.0
H404 H 0.31454 0.83769 0.26646 0.0
H405 H 0.26856 0.74877 0.25232 0.0
H406 H 0.26694 0.749 0.2958 0.0
H407 H 0.23934 0.74409 0.21831 0.0
H408 H 0.17894 0.71604 0.26811 0.0
H409 H 0.23524 0.74328 0.32367 0.0
C410 C 0.28487 0.7889 0.24023 0.0
C411 C 0.29876 0.81043 0.23894 0.0
C412 C 0.27571 0.77803 0.27044 0.0
C413 C 0.28028 0.78902 0.29923 0.0
C414 C 0.294 0.81066 0.29795 0.0
C415 C 0.30301 0.82116 0.26761 0.0
C416 C 0.26345 0.75466 0.27255 0.0
C417 C 0.24001 0.74564 0.27105 0.0
C418 C 0.23002 0.7407 0.24073 0.0
C419 C 0.20795 0.73023 0.23951 0.0
C420 C 0.19601 0.72528 0.26879 0.0
C421 C 0.20564 0.72975 0.29921 0.0
C422 C 0.22771 0.74023 0.3002 0.0
H423 H 0.43917 0.2392 0.77857 0.0
H424 H 0.4437 0.24212 0.67286 0.0
H425 H 0.46942 0.298 0.72427 0.0
H426 H 0.41686 0.20817 0.7472 0.0
H427 H 0.41914 0.2094 0.70353 0.0
H428 H 0.44157 0.20391 0.78162 0.0
H429 H 0.47626 0.18078 0.7353 0.0
H430 H 0.44508 0.20418 0.67612 0.0
C431 C 0.44479 0.24819 0.75544 0.0
C432 C 0.45533 0.2699 0.75505 0.0
C433 C 0.44099 0.23803 0.72585 0.0
C434 C 0.44743 0.2498 0.6958 0.0
C435 C 0.45801 0.27147 0.69535 0.0
C436 C 0.46219 0.28131 0.72493 0.0
C437 C 0.42843 0.21466 0.72614 0.0
C438 C 0.44262 0.20605 0.72855 0.0
C439 C 0.44776 0.20133 0.75951 0.0
C440 C 0.46009 0.19241 0.76196 0.0
C441 C 0.4676 0.18859 0.73336 0.0
C442 C 0.46206 0.19252 0.70239 0.0
C443 C 0.44971 0.20144 0.70001 0.0
H444 H 0.08023 0.52118 0.03744 0.0
H445 H 0.11043 0.5195 0.05699 0.0
H446 H 0.07069 0.453 0.06993 0.0
H447 H 0.04061 0.45467 0.04968 0.0
H448 H 0.0948 0.47267 0.12523 0.0
H449 H 0.10468 0.47209 0.00901 0.0
H450 H 0.10847 0.48524 0.95156 0.0
H451 H 0.16394 0.54262 0.9746 0.0
H452 H 0.16027 0.52995 0.03235 0.0
H453 H 0.17369 0.45482 0.17158 0.0
H454 H 0.14615 0.45278 0.13664 0.0
H455 H 0.18533 0.51826 0.11134 0.0
H456 H 0.21303 0.52026 0.14591 0.0
H457 H 0.16113 0.49797 0.06053 0.0
H458 H 0.15116 0.50105 0.17539 0.0
H459 H 0.1475 0.49046 0.23419 0.0
H460 H 0.09256 0.43157 0.21572 0.0
H461 H 0.09615 0.44162 0.15668 0.0
C462 C 0.07808 0.50623 0.04422 0.0
C463 C 0.05817 0.48807 0.04246 0.0
C464 C 0.09527 0.50527 0.05531 0.0
C465 C 0.09279 0.48612 0.06489 0.0
C466 C 0.07292 0.46793 0.06274 0.0
C467 C 0.0558 0.46888 0.05124 0.0
C468 C 0.11074 0.48516 0.07828 0.0
C469 C 0.10916 0.47783 0.11092 0.0
C470 C 0.12971 0.49256 0.05989 0.0
C471 C 0.13209 0.50013 0.02509 0.0
C472 C 0.11759 0.48758 0.0019 0.0
C473 C 0.11973 0.49494 0.96926 0.0
C474 C 0.13641 0.51477 0.95945 0.0
C475 C 0.15101 0.52727 0.98224 0.0
C476 C 0.14892 0.52 0.01492 0.0
C477 C 0.1767 0.46861 0.15759 0.0
C478 C 0.19543 0.48772 0.16154 0.0
C479 C 0.1609 0.46747 0.13786 0.0
C480 C 0.16345 0.48548 0.1221 0.0
C481 C 0.18296 0.50419 0.12344 0.0
C482 C 0.19885 0.5053 0.14303 0.0
C483 C 0.14513 0.48527 0.10744 0.0
C484 C 0.14668 0.49255 0.07472 0.0
C485 C 0.1262 0.47813 0.12596 0.0
C486 C 0.12409 0.47199 0.16149 0.0
C487 C 0.13843 0.48575 0.18379 0.0
C488 C 0.13635 0.47986 0.21718 0.0
C489 C 0.11984 0.46034 0.22866 0.0
C490 C 0.10537 0.44667 0.20678 0.0
C491 C 0.10743 0.45245 0.17334 0.0
H492 H 0.11822 0.45581 0.2545 0.0
H493 H 0.13804 0.52044 0.93417 0.0
H494 H 0.59384 0.03717 0.55399 0.0
H495 H 0.62414 0.06699 0.57806 0.0
H496 H 0.59545 0.10304 0.56056 0.0
H497 H 0.56523 0.0732 0.53628 0.0
H498 H 0.63821 0.12606 0.54717 0.0
H499 H 0.59106 0.08094 0.63444 0.0
H500 H 0.56919 0.04751 0.66556 0.0
H501 H 0.62423 0.04482 0.68494 0.0
H502 H 0.64639 0.07807 0.65336 0.0
H503 H 0.69203 0.20161 0.66728 0.0
H504 H 0.66771 0.17547 0.63049 0.0
H505 H 0.6951 0.13876 0.65304 0.0
H506 H 0.71934 0.1648 0.69001 0.0
H507 H 0.65359 0.11627 0.66229 0.0
H508 H 0.70108 0.16255 0.57618 0.0
H509 H 0.72245 0.19594 0.54471 0.0
H510 H 0.66662 0.19689 0.52377 0.0
H511 H 0.64493 0.16362 0.5555 0.0
C512 C 0.59418 0.05155 0.55516 0.0
C513 C 0.57727 0.05299 0.54378 0.0
C514 C 0.61141 0.06853 0.56886 0.0
C515 C 0.61193 0.08717 0.57146 0.0
C516 C 0.59537 0.08883 0.55882 0.0
C517 C 0.57813 0.07183 0.54513 0.0
C518 C 0.62916 0.10451 0.58896 0.0
C519 C 0.64149 0.124 0.57243 0.0
C520 C 0.63361 0.10173 0.62177 0.0
C521 C 0.62036 0.0819 0.64124 0.0
C522 C 0.59848 0.07315 0.64513 0.0
C523 C 0.58603 0.05424 0.66287 0.0
C524 C 0.59531 0.04402 0.67716 0.0
C525 C 0.61706 0.05273 0.67381 0.0
C526 C 0.62958 0.07162 0.65599 0.0
C527 C 0.69334 0.18831 0.66352 0.0
C528 C 0.70762 0.18526 0.68147 0.0
C529 C 0.67936 0.17331 0.64258 0.0
C530 C 0.67955 0.15511 0.63897 0.0
C531 C 0.69459 0.15262 0.65552 0.0
C532 C 0.70849 0.16754 0.67651 0.0
C533 C 0.66292 0.13786 0.62042 0.0
C534 C 0.65053 0.11835 0.63691 0.0
C535 C 0.6584 0.1407 0.58766 0.0
C536 C 0.6714 0.16067 0.56848 0.0
C537 C 0.69337 0.16995 0.56509 0.0
C538 C 0.70554 0.18885 0.54716 0.0
C539 C 0.69591 0.19855 0.53232 0.0
C540 C 0.67407 0.18936 0.53531 0.0
C541 C 0.66183 0.17047 0.55323 0.0
H542 H 0.70536 0.21318 0.51845 0.0
H543 H 0.58564 0.02938 0.69088 0.0
H544 H 0.49972 0.56019 0.08646 0.0
H545 H 0.49933 0.5892 0.10947 0.0
H546 H 0.55145 0.63212 0.04463 0.0
H547 H 0.55172 0.60302 0.02117 0.0
H548 H 0.55637 0.64336 0.11082 0.0
H549 H 0.50609 0.62266 0.02783 0.0
H550 H 0.4751 0.59895 0.99662 0.0
H551 H 0.43461 0.58701 0.08031 0.0
H552 H 0.46541 0.60985 0.11263 0.0
H553 H 0.54712 0.72423 0.17453 0.0
H554 H 0.54885 0.70298 0.13222 0.0
H555 H 0.49285 0.64912 0.17529 0.0
H556 H 0.49103 0.67032 0.21687 0.0
H557 H 0.49248 0.64793 0.11017 0.0
H558 H 0.5429 0.66132 0.19525 0.0
H559 H 0.5735 0.68391 0.22829 0.0
H560 H 0.61277 0.70931 0.14083 0.0
H561 H 0.58229 0.68706 0.10724 0.0
C562 C 0.51117 0.57582 0.07724 0.0
C563 C 0.52584 0.5794 0.05216 0.0
C564 C 0.51083 0.59236 0.09023 0.0
C565 C 0.52529 0.61281 0.07862 0.0
C566 C 0.54014 0.61646 0.05386 0.0
C567 C 0.54025 0.59986 0.04045 0.0
C568 C 0.525 0.6303 0.0929 0.0
C569 C 0.54255 0.64461 0.11012 0.0
C570 C 0.50686 0.63177 0.09224 0.0
C571 C 0.48821 0.61779 0.07291 0.0
C572 C 0.49064 0.61469 0.03986 0.0
C573 C 0.47308 0.60136 0.02194 0.0
C574 C 0.45291 0.59129 0.03658 0.0
C575 C 0.45026 0.59461 0.06913 0.0
C576 C 0.46779 0.60772 0.08729 0.0
C577 C 0.53493 0.70798 0.17421 0.0
C578 C 0.5189 0.69883 0.19867 0.0
C579 C 0.53599 0.69582 0.1503 0.0
C580 C 0.52112 0.67436 0.15081 0.0
C581 C 0.50447 0.66559 0.17427 0.0
C582 C 0.50343 0.67769 0.19802 0.0
C583 C 0.52355 0.6605 0.12902 0.0
C584 C 0.50641 0.64686 0.11036 0.0
C585 C 0.54197 0.65948 0.12854 0.0
C586 C 0.56029 0.67273 0.14873 0.0
C587 C 0.55803 0.67183 0.18306 0.0
C588 C 0.57535 0.68456 0.20189 0.0
C589 C 0.59506 0.69808 0.18666 0.0
C590 C 0.59749 0.69886 0.15258 0.0
C591 C 0.5802 0.68621 0.13364 0.0
H592 H 0.60845 0.70792 0.20127 0.0
H593 H 0.43932 0.58104 0.02265 0.0
H594 H 0.92605 0.49082 0.59824 0.0
H595 H 0.8991 0.49411 0.62668 0.0
H596 H 0.91056 0.54375 0.55753 0.0
H597 H 0.93759 0.54051 0.52898 0.0
H598 H 0.91045 0.55307 0.62299 0.0
H599 H 0.86669 0.49784 0.55322 0.0
H600 H 0.85347 0.46404 0.52944 0.0
H601 H 0.83254 0.43343 0.62503 0.0
H602 H 0.84601 0.46708 0.6495 0.0
H603 H 0.83255 0.56388 0.69812 0.0
H604 H 0.85036 0.55769 0.65388 0.0
H605 H 0.83542 0.50011 0.70369 0.0
H606 H 0.81635 0.50549 0.74668 0.0
H607 H 0.83614 0.49566 0.64217 0.0
H608 H 0.88342 0.54801 0.71353 0.0
H609 H 0.8986 0.58063 0.74192 0.0
H610 H 0.91489 0.61513 0.64919 0.0
H611 H 0.89953 0.58266 0.62025 0.0
C612 C 0.92279 0.5024 0.58907 0.0
C613 C 0.93397 0.51544 0.56143 0.0
C614 C 0.90729 0.50417 0.60519 0.0
C615 C 0.90271 0.5191 0.59411 0.0
C616 C 0.91378 0.53208 0.56642 0.0
C617 C 0.92913 0.53015 0.55005 0.0
C618 C 0.88707 0.52174 0.61237 0.0
C619 C 0.89408 0.54066 0.62662 0.0
C620 C 0.86589 0.50532 0.61799 0.0
C621 C 0.85751 0.48503 0.60323 0.0
C622 C 0.85941 0.48392 0.56922 0.0
C623 C 0.85186 0.46478 0.5556 0.0
C624 C 0.84221 0.4466 0.57572 0.0
C625 C 0.84002 0.44752 0.60947 0.0
C626 C 0.84761 0.46663 0.62323 0.0
C627 C 0.83237 0.54954 0.6991 0.0
C628 C 0.82334 0.53538 0.72639 0.0
C629 C 0.84287 0.54615 0.67396 0.0
C630 C 0.84495 0.52878 0.67593 0.0
C631 C 0.83435 0.51378 0.70167 0.0
C632 C 0.82356 0.51697 0.72646 0.0
C633 C 0.85954 0.527 0.6531 0.0
C634 C 0.8524 0.50821 0.63811 0.0
C635 C 0.88079 0.54337 0.64744 0.0
C636 C 0.89011 0.56291 0.66475 0.0
C637 C 0.89011 0.56255 0.69921 0.0
C638 C 0.89876 0.581 0.71539 0.0
C639 C 0.90764 0.59993 0.69737 0.0
C640 C 0.90795 0.60045 0.66312 0.0
C641 C 0.89929 0.58203 0.64681 0.0
H642 H 0.91433 0.61421 0.70994 0.0
H643 H 0.83641 0.4318 0.56515 0.0
H644 H 0.45792 0.93981 0.07162 0.0
H645 H 0.42701 0.91043 0.10021 0.0
H646 H 0.38648 0.92577 0.04776 0.0
H647 H 0.41763 0.95556 0.01971 0.0
H648 H 0.37493 0.9169 0.11122 0.0
H649 H 0.3896 0.88433 0.02741 0.0
H650 H 0.41167 0.8765 0.99345 0.0
H651 H 0.42563 0.85128 0.07871 0.0
H652 H 0.40392 0.85924 0.1133 0.0
H653 H 0.2871 0.82417 0.18502 0.0
H654 H 0.31068 0.84813 0.14022 0.0
H655 H 0.36282 0.84682 0.18283 0.0
H656 H 0.33935 0.82299 0.22722 0.0
H657 H 0.36401 0.84655 0.11564 0.0
H658 H 0.35462 0.8847 0.19929 0.0
H659 H 0.33348 0.89317 0.2343 0.0
H660 H 0.30987 0.90812 0.14862 0.0
H661 H 0.33067 0.89939 0.11318 0.0
C662 C 0.44237 0.9368 0.06625 0.0
C663 C 0.43995 0.94965 0.04343 0.0
C664 C 0.42474 0.92 0.08236 0.0
C665 C 0.40438 0.91566 0.07566 0.0
C666 C 0.40201 0.92874 0.05312 0.0
C667 C 0.4197 0.94564 0.03709 0.0
C668 C 0.38573 0.89777 0.09301 0.0
C669 C 0.37225 0.90141 0.11155 0.0
C670 C 0.38235 0.8776 0.09376 0.0
C671 C 0.3952 0.87249 0.07299 0.0
C672 C 0.39747 0.87721 0.03896 0.0
C673 C 0.40991 0.87275 0.01959 0.0
C674 C 0.42006 0.86342 0.03392 0.0
C675 C 0.41776 0.8585 0.06764 0.0
C676 C 0.40536 0.86296 0.08714 0.0
C677 C 0.30349 0.82866 0.18414 0.0
C678 C 0.31152 0.82173 0.20911 0.0
C679 C 0.31694 0.84239 0.1588 0.0
C680 C 0.33853 0.84933 0.15834 0.0
C681 C 0.34623 0.84157 0.18258 0.0
C682 C 0.33286 0.82799 0.20786 0.0
C683 C 0.3536 0.86584 0.13435 0.0
C684 C 0.36642 0.86194 0.11462 0.0
C685 C 0.35637 0.88577 0.13247 0.0
C686 C 0.34396 0.89113 0.15367 0.0
C687 C 0.34477 0.88961 0.18799 0.0
C688 C 0.33288 0.89449 0.20789 0.0
C689 C 0.32028 0.90112 0.19369 0.0
C690 C 0.3196 0.90293 0.15958 0.0
C691 C 0.33143 0.89802 0.13958 0.0
H692 H 0.31109 0.9049 0.20912 0.0
H693 H 0.4297 0.85999 0.01889 0.0
H694 H 0.51709 0.44287 0.54586 0.0
H695 H 0.51197 0.40957 0.56592 0.0
H696 H 0.44457 0.38246 0.56802 0.0
H697 H 0.44978 0.41588 0.54803 0.0
H698 H 0.45792 0.3727 0.62412 0.0
H699 H 0.46836 0.37201 0.50818 0.0
H700 H 0.48716 0.38623 0.45474 0.0
H701 H 0.54086 0.38626 0.49218 0.0
H702 H 0.52252 0.37239 0.54606 0.0
H703 H 0.42884 0.27025 0.65487 0.0
H704 H 0.43399 0.29889 0.61782 0.0
H705 H 0.50098 0.33104 0.63188 0.0
H706 H 0.4958 0.30259 0.66954 0.0
H707 H 0.48715 0.33708 0.56511 0.0
H708 H 0.47977 0.34265 0.68107 0.0
H709 H 0.46273 0.32952 0.73594 0.0
H710 H 0.40518 0.3216 0.69946 0.0
H711 H 0.42181 0.33437 0.64418 0.0
C712 C 0.50122 0.42973 0.55059 0.0
C713 C 0.4838 0.43176 0.54565 0.0
C714 C 0.49829 0.41074 0.56188 0.0
C715 C 0.47787 0.39347 0.56817 0.0
C716 C 0.46045 0.39557 0.56328 0.0
C717 C 0.46339 0.41457 0.55191 0.0
C718 C 0.47473 0.37336 0.58061 0.0
C719 C 0.46399 0.36477 0.61088 0.0
C720 C 0.48318 0.36328 0.5638 0.0
C721 C 0.49412 0.37131 0.53126 0.0
C722 C 0.48423 0.37518 0.5051 0.0
C723 C 0.4948 0.38317 0.47471 0.0
C724 C 0.5152 0.38718 0.47008 0.0
C725 C 0.52506 0.38316 0.49581 0.0
C726 C 0.51457 0.37522 0.52627 0.0
C727 C 0.44474 0.28296 0.64874 0.0
C728 C 0.46195 0.28426 0.66481 0.0
C729 C 0.44766 0.29935 0.62779 0.0
C730 C 0.46784 0.31711 0.62243 0.0
C731 C 0.48532 0.31741 0.63562 0.0
C732 C 0.48236 0.30117 0.657 0.0
C733 C 0.4702 0.33649 0.60826 0.0
C734 C 0.48088 0.34497 0.57797 0.0
C735 C 0.46193 0.34666 0.62515 0.0
C736 C 0.45194 0.3392 0.65841 0.0
C737 C 0.46341 0.33791 0.68467 0.0
C738 C 0.45385 0.33058 0.71586 0.0
C739 C 0.43286 0.32467 0.72115 0.0
C740 C 0.42142 0.32615 0.69529 0.0
C741 C 0.43091 0.33344 0.66403 0.0
H742 H 0.42549 0.319 0.74531 0.0
H743 H 0.52336 0.39337 0.44654 0.0
H744 H 0.49298 0.91569 0.43022 0.0
H745 H 0.49546 0.88686 0.41113 0.0
H746 H 0.5512 0.90688 0.46719 0.0
H747 H 0.54841 0.93545 0.48721 0.0
H748 H 0.5484 0.89881 0.38783 0.0
H749 H 0.52131 0.87002 0.49882 0.0
H750 H 0.49602 0.86041 0.54516 0.0
H751 H 0.44492 0.8209 0.48418 0.0
H752 H 0.46991 0.83056 0.43732 0.0
H753 H 0.5598 0.81981 0.33412 0.0
H754 H 0.56007 0.8427 0.37477 0.0
H755 H 0.49229 0.81129 0.37173 0.0
H756 H 0.49202 0.78783 0.33237 0.0
H757 H 0.50342 0.82555 0.42952 0.0
H758 H 0.52543 0.85422 0.31962 0.0
H759 H 0.54673 0.8642 0.26818 0.0
H760 H 0.6027 0.90408 0.32007 0.0
H761 H 0.58174 0.8942 0.37192 0.0
C762 C 0.50568 0.91385 0.43861 0.0
C763 C 0.52052 0.92777 0.46013 0.0
C764 C 0.50703 0.89737 0.42781 0.0
C765 C 0.52345 0.89474 0.4379 0.0
C766 C 0.53835 0.90862 0.45933 0.0
C767 C 0.53673 0.92486 0.47075 0.0
C768 C 0.52544 0.878 0.42464 0.0
C769 C 0.53899 0.88285 0.39738 0.0
C770 C 0.51245 0.85713 0.43631 0.0
C771 C 0.49745 0.85119 0.4645 0.0
C772 C 0.50466 0.85946 0.4952 0.0
C773 C 0.49039 0.85396 0.52159 0.0
C774 C 0.46887 0.8401 0.51759 0.0
C775 C 0.46159 0.83165 0.48723 0.0
C776 C 0.4758 0.83712 0.46077 0.0
C777 C 0.54494 0.81721 0.34343 0.0
C778 C 0.52589 0.80203 0.33033 0.0
C779 C 0.54509 0.83046 0.36627 0.0
C780 C 0.52625 0.82919 0.37554 0.0
C781 C 0.50705 0.81271 0.36488 0.0
C782 C 0.50687 0.79919 0.34253 0.0
C783 C 0.52669 0.84631 0.39276 0.0
C784 C 0.51333 0.84155 0.4204 0.0
C785 C 0.53943 0.86728 0.38082 0.0
C786 C 0.55207 0.87329 0.3497 0.0
C787 C 0.5423 0.86502 0.32009 0.0
C788 C 0.5543 0.87066 0.29087 0.0
C789 C 0.57606 0.88469 0.29088 0.0
C790 C 0.58585 0.89317 0.32011 0.0
C791 C 0.57392 0.88758 0.34942 0.0
H792 H 0.58532 0.88904 0.26823 0.0
H793 H 0.45784 0.83586 0.53805 0.0
H794 H 0.59797 0.52751 0.02251 0.0
H795 H 0.63313 0.53908 0.00219 0.0
H796 H 0.6235 0.56863 0.91757 0.0
H797 H 0.58753 0.55527 0.93681 0.0
H798 H 0.63393 0.54376 0.89639 0.0
H799 H 0.66229 0.59481 0.97529 0.0
H800 H 0.66753 0.60938 0.02965 0.0
H801 H 0.6903 0.5709 0.06519 0.0
H802 H 0.68492 0.55587 0.01117 0.0
H803 H 0.74933 0.58863 0.85383 0.0
H804 H 0.72451 0.58967 0.89221 0.0
H805 H 0.68405 0.52324 0.89144 0.0
H806 H 0.70857 0.52225 0.85278 0.0
H807 H 0.70154 0.57119 0.95313 0.0
H808 H 0.63657 0.51271 0.87109 0.0
H809 H 0.63278 0.50146 0.81439 0.0
H810 H 0.68479 0.56146 0.78194 0.0
H811 H 0.68884 0.57307 0.83834 0.0
C812 C 0.60244 0.53478 0.99825 0.0
C813 C 0.58801 0.53597 0.97741 0.0
C814 C 0.62328 0.5426 0.98745 0.0
C815 C 0.63068 0.55354 0.95694 0.0
C816 C 0.6178 0.559 0.9401 0.0
C817 C 0.59693 0.55084 0.95083 0.0
C818 C 0.6503 0.5569 0.94071 0.0
C819 C 0.6487 0.54995 0.90892 0.0
C820 C 0.66978 0.56511 0.95663 0.0
C821 C 0.67305 0.57409 0.9892 0.0
C822 C 0.66826 0.58932 0.99476 0.0
C823 C 0.67128 0.59769 0.02551 0.0
C824 C 0.67921 0.59104 0.05087 0.0
C825 C 0.68416 0.57603 0.04552 0.0
C826 C 0.68115 0.5676 0.01482 0.0
C827 C 0.73561 0.5742 0.8631 0.0
C828 C 0.73083 0.55535 0.85047 0.0
C829 C 0.7214 0.57481 0.8849 0.0
C830 C 0.70226 0.55657 0.89425 0.0
C831 C 0.69862 0.53753 0.88431 0.0
C832 C 0.71269 0.53694 0.86241 0.0
C833 C 0.6847 0.55754 0.90959 0.0
C834 C 0.68671 0.5652 0.9409 0.0
C835 C 0.66564 0.55045 0.89306 0.0
C836 C 0.66309 0.54368 0.85896 0.0
C837 C 0.64715 0.5235 0.85181 0.0
C838 C 0.64499 0.51706 0.81975 0.0
C839 C 0.6586 0.53071 0.79462 0.0
C840 C 0.67436 0.55086 0.80146 0.0
C841 C 0.67661 0.55737 0.83347 0.0
H842 H 0.65688 0.52573 0.76983 0.0
H843 H 0.68154 0.59754 0.07466 0.0
H844 H 0.03973 0.59506 0.46489 0.0
H845 H 0.06904 0.62901 0.44366 0.0
H846 H 0.11073 0.60574 0.44741 0.0
H847 H 0.08134 0.57171 0.46793 0.0
H848 H 0.12898 0.64732 0.46877 0.0
H849 H 0.09008 0.60484 0.37948 0.0
H850 H 0.05804 0.5834 0.34852 0.0
H851 H 0.04962 0.63489 0.33468 0.0
H852 H 0.08139 0.65652 0.36623 0.0
H853 H 0.20928 0.70589 0.34706 0.0
H854 H 0.18207 0.68224 0.38741 0.0
H855 H 0.14371 0.70701 0.35869 0.0
H856 H 0.17082 0.73044 0.31769 0.0
H857 H 0.12238 0.66738 0.35431 0.0
H858 H 0.16365 0.71145 0.4379 0.0
H859 H 0.19557 0.73302 0.46905 0.0
H860 H 0.19986 0.6799 0.49361 0.0
H861 H 0.16813 0.65804 0.46221 0.0
C862 C 0.05523 0.59735 0.46137 0.0
C863 C 0.05837 0.58088 0.46747 0.0
C864 C 0.07191 0.61667 0.44941 0.0
C865 C 0.09198 0.61979 0.44385 0.0
C866 C 0.09536 0.60363 0.45165 0.0
C867 C 0.07863 0.58425 0.46319 0.0
C868 C 0.109 0.63924 0.4272 0.0
C869 C 0.12766 0.65176 0.44371 0.0
C870 C 0.10695 0.64519 0.39482 0.0
C871 C 0.08793 0.63221 0.37567 0.0
C872 C 0.08127 0.61153 0.37017 0.0
C873 C 0.06318 0.59935 0.35245 0.0
C874 C 0.05176 0.60775 0.33974 0.0
C875 C 0.05845 0.62838 0.34463 0.0
C876 C 0.07648 0.6406 0.36246 0.0
C877 C 0.19542 0.70687 0.35026 0.0
C878 C 0.19214 0.71998 0.32926 0.0
C879 C 0.17982 0.6933 0.37335 0.0
C880 C 0.16079 0.69281 0.37618 0.0
C881 C 0.15822 0.70704 0.3569 0.0
C882 C 0.17373 0.72048 0.33361 0.0
C883 C 0.14266 0.67569 0.39571 0.0
C884 C 0.12372 0.66338 0.37962 0.0
C885 C 0.14448 0.67005 0.42849 0.0
C886 C 0.16357 0.68312 0.44749 0.0
C887 C 0.17148 0.70439 0.44973 0.0
C888 C 0.18953 0.71667 0.46748 0.0
C889 C 0.19976 0.70784 0.48326 0.0
C890 C 0.19192 0.68671 0.48137 0.0
C891 C 0.17389 0.67436 0.46364 0.0
H892 H 0.21373 0.71738 0.49698 0.0
H893 H 0.03776 0.5983 0.32602 0.0
H894 H 0.4561 0.04543 0.92209 0.0
H895 H 0.44914 0.07113 0.89771 0.0
H896 H 0.51103 0.12021 0.92373 0.0
H897 H 0.51778 0.09452 0.949 0.0
H898 H 0.4845 0.1321 0.9328 0.0
H899 H 0.50017 0.10257 0.84497 0.0
H900 H 0.49722 0.07507 0.81135 0.0
H901 H 0.43303 0.05532 0.79138 0.0
H902 H 0.43551 0.08255 0.82528 0.0
H903 H 0.49644 0.20153 0.79159 0.0
H904 H 0.50007 0.17976 0.83395 0.0
H905 H 0.43244 0.14005 0.84277 0.0
H906 H 0.42874 0.16212 0.80118 0.0
H907 H 0.46077 0.12396 0.81816 0.0
H908 H 0.44833 0.15758 0.90521 0.0
H909 H 0.45513 0.18774 0.93549 0.0
H910 H 0.51835 0.20295 0.95248 0.0
H911 H 0.51203 0.17304 0.92183 0.0
C912 C 0.46819 0.06171 0.92262 0.0
C913 C 0.48753 0.06798 0.9372 0.0
C914 C 0.46422 0.07639 0.90868 0.0
C915 C 0.4797 0.09763 0.90835 0.0
C916 C 0.49883 0.10394 0.92367 0.0
C917 C 0.50269 0.08926 0.93805 0.0
C918 C 0.47621 0.11315 0.89103 0.0
C919 C 0.47946 0.13037 0.90766 0.0
C920 C 0.46956 0.11094 0.85822 0.0
C921 C 0.46795 0.09445 0.83799 0.0
C922 C 0.48536 0.09225 0.83365 0.0
C923 C 0.48379 0.07673 0.8145 0.0
C924 C 0.46493 0.06341 0.79932 0.0
C925 C 0.44762 0.06562 0.80321 0.0
C926 C 0.4491 0.0811 0.82238 0.0
C927 C 0.48239 0.1887 0.80372 0.0
C928 C 0.46232 0.18354 0.79346 0.0
C929 C 0.48446 0.17627 0.82776 0.0
C930 C 0.46651 0.15836 0.84137 0.0
C931 C 0.44644 0.15394 0.83269 0.0
C932 C 0.44435 0.1666 0.80915 0.0
C933 C 0.46879 0.1426 0.86008 0.0
C934 C 0.46554 0.12547 0.84346 0.0
C935 C 0.47593 0.14521 0.89248 0.0
C936 C 0.47977 0.1632 0.91089 0.0
C937 C 0.46376 0.16748 0.91507 0.0
C938 C 0.46751 0.18451 0.93239 0.0
C939 C 0.48718 0.19729 0.94582 0.0
C940 C 0.50313 0.19305 0.94203 0.0
C941 C 0.49946 0.17605 0.92471 0.0
H942 H 0.49005 0.21046 0.95923 0.0
H943 H 0.46375 0.05142 0.78447 0.0
H944 H 0.40151 0.47505 0.48496 0.0
H945 H 0.37254 0.47619 0.45879 0.0
H946 H 0.41588 0.51892 0.38294 0.0
H947 H 0.44481 0.51807 0.40911 0.0
H948 H 0.38946 0.53073 0.40516 0.0
H949 H 0.38423 0.46778 0.37035 0.0
H950 H 0.37981 0.43344 0.37994 0.0
H951 H 0.32012 0.41084 0.42926 0.0
H952 H 0.32433 0.44517 0.42031 0.0
H953 H 0.34171 0.52467 0.25776 0.0
H954 H 0.36087 0.52388 0.30528 0.0
H955 H 0.3021 0.48023 0.35645 0.0
H956 H 0.28267 0.48084 0.30802 0.0
H957 H 0.33001 0.46758 0.35967 0.0
H958 H 0.33229 0.52911 0.38267 0.0
H959 H 0.33691 0.56341 0.37155 0.0
H960 H 0.40201 0.58903 0.34451 0.0
H961 H 0.39773 0.55483 0.35493 0.0
C962 C 0.40484 0.48478 0.46283 0.0
C963 C 0.42539 0.49633 0.44889 0.0
C964 C 0.38828 0.48535 0.44785 0.0
C965 C 0.39205 0.49756 0.41881 0.0
C966 C 0.41263 0.5094 0.40532 0.0
C967 C 0.4291 0.50874 0.42011 0.0
C968 C 0.37469 0.49782 0.40163 0.0
C969 C 0.37643 0.51694 0.3952 0.0
C970 C 0.35725 0.47969 0.38975 0.0
C971 C 0.35472 0.45909 0.39506 0.0
C972 C 0.37025 0.45553 0.38349 0.0
C973 C 0.36777 0.43607 0.38876 0.0
C974 C 0.34973 0.41999 0.40531 0.0
C975 C 0.3341 0.42333 0.41653 0.0
C976 C 0.33653 0.44278 0.41136 0.0
C977 C 0.33284 0.5151 0.27931 0.0
C978 C 0.31075 0.50273 0.27927 0.0
C979 C 0.3438 0.51477 0.30657 0.0
C980 C 0.33295 0.50219 0.33465 0.0
C981 C 0.31078 0.49015 0.3351 0.0
C982 C 0.2997 0.49056 0.30762 0.0
C983 C 0.34525 0.50067 0.36199 0.0
C984 C 0.34262 0.48132 0.37038 0.0
C985 C 0.3619 0.51863 0.37569 0.0
C986 C 0.36464 0.53933 0.3695 0.0
C987 C 0.34756 0.54202 0.37414 0.0
C988 C 0.35013 0.56146 0.36798 0.0
C989 C 0.36974 0.57838 0.3573 0.0
C990 C 0.38683 0.57591 0.3528 0.0
C991 C 0.38435 0.55649 0.35889 0.0
H992 H 0.37169 0.59342 0.35254 0.0
H993 H 0.34783 0.40493 0.40935 0.0
H994 H 0.94323 0.40001 0.96868 0.0
H995 H 0.91547 0.36944 0.94191 0.0
H996 H 0.89163 0.40598 0.9003 0.0
H997 H 0.91967 0.43664 0.92614 0.0
H998 H 0.86003 0.36257 0.93265 0.0
H999 H 0.91832 0.4009 0.85162 0.0
H1000 H 0.95559 0.41722 0.83377 0.0
H1001 H 0.95192 0.35932 0.85184 0.0
H1002 H 0.91468 0.34275 0.87029 0.0
H1003 H 0.79647 0.31251 0.79932 0.0
H1004 H 0.81978 0.33404 0.84157 0.0
H1005 H 0.85369 0.30241 0.83718 0.0
H1006 H 0.83105 0.2818 0.79323 0.0
H1007 H 0.88051 0.34 0.83472 0.0
H1008 H 0.822 0.29944 0.90769 0.0
H1009 H 0.7852 0.28151 0.92867 0.0
H1010 H 0.78888 0.33971 0.93136 0.0
H1011 H 0.82562 0.35799 0.90996 0.0
C1012 C 0.93195 0.4014 0.95397 0.0
C1013 C 0.93358 0.42061 0.94925 0.0
C1014 C 0.91615 0.384 0.93878 0.0
C1015 C 0.90152 0.38551 0.91928 0.0
C1016 C 0.90273 0.40453 0.91541 0.0
C1017 C 0.91878 0.422 0.92996 0.0
C1018 C 0.88566 0.36763 0.90124 0.0
C1019 C 0.86436 0.35759 0.91113 0.0
C1020 C 0.89153 0.36073 0.87403 0.0
C1021 C 0.91383 0.37067 0.86272 0.0
C1022 C 0.92553 0.39171 0.8521 0.0
C1023 C 0.94663 0.40099 0.8418 0.0
C1024 C 0.95614 0.38933 0.84178 0.0
C1025 C 0.94455 0.36835 0.85194 0.0
C1026 C 0.92345 0.359 0.86231 0.0
C1027 C 0.80851 0.30978 0.80815 0.0
C1028 C 0.81188 0.29541 0.79342 0.0
C1029 C 0.82184 0.32205 0.83242 0.0
C1030 C 0.83847 0.3198 0.84309 0.0
C1031 C 0.84106 0.30455 0.82948 0.0
C1032 C 0.82803 0.29264 0.80461 0.0
C1033 C 0.8544 0.33478 0.86559 0.0
C1034 C 0.87589 0.34447 0.85654 0.0
C1035 C 0.84866 0.34099 0.89405 0.0
C1036 C 0.82655 0.33008 0.90699 0.0
C1037 C 0.81492 0.30841 0.91253 0.0
C1038 C 0.79408 0.29818 0.92454 0.0
C1039 C 0.7847 0.30946 0.93129 0.0
C1040 C 0.79617 0.331 0.92611 0.0
C1041 C 0.81702 0.34131 0.91409 0.0
H1042 H 0.76855 0.30151 0.94058 0.0
H1043 H 0.97248 0.39654 0.83379 0.0
H1044 H 0.94146 0.50062 0.94113 0.0
H1045 H 0.91491 0.50737 0.91934 0.0
H1046 H 0.92749 0.5495 0.99566 0.0
H1047 H 0.95458 0.54322 0.01695 0.0
H1048 H 0.88171 0.51939 0.9808 0.0
H1049 H 0.94894 0.57166 0.93086 0.0
H1050 H 0.98269 0.58313 0.90195 0.0
H1051 H 0.94944 0.54745 0.8202 0.0
H1052 H 0.91547 0.53543 0.84893 0.0
H1053 H 0.85189 0.57736 0.84792 0.0
H1054 H 0.8754 0.5753 0.88767 0.0
H1055 H 0.83758 0.5086 0.88903 0.0
H1056 H 0.81432 0.51064 0.84882 0.0
H1057 H 0.89752 0.55564 0.87077 0.0
H1058 H 0.8426 0.49134 0.96796 0.0
H1059 H 0.80859 0.47863 0.99702 0.0
H1060 H 0.81715 0.53898 0.98441 0.0
H1061 H 0.85134 0.55213 0.95572 0.0
C1062 C 0.93842 0.51121 0.9533 0.0
C1063 C 0.94995 0.52142 0.98064 0.0
C1064 C 0.92327 0.515 0.94096 0.0
C1065 C 0.91927 0.5289 0.95596 0.0
C1066 C 0.93029 0.53862 0.98393 0.0
C1067 C 0.94571 0.53507 0.996 0.0
C1068 C 0.90458 0.53421 0.94092 0.0
C1069 C 0.88514 0.52741 0.95684 0.0
C1070 C 0.90926 0.54488 0.90985 0.0
C1071 C 0.92966 0.55252 0.89216 0.0
C1072 C 0.94882 0.56615 0.90681 0.0
C1073 C 0.968 0.57276 0.89046 0.0
C1074 C 0.96822 0.566 0.85929 0.0
C1075 C 0.94925 0.55266 0.84436 0.0
C1076 C 0.93003 0.54596 0.86066 0.0
C1077 C 0.84821 0.56229 0.85762 0.0
C1078 C 0.83126 0.54415 0.84557 0.0
C1079 C 0.86171 0.56112 0.88008 0.0
C1080 C 0.85822 0.5418 0.89125 0.0
C1081 C 0.84044 0.52365 0.88093 0.0
C1082 C 0.82716 0.52481 0.85807 0.0
C1083 C 0.87439 0.54051 0.91034 0.0
C1084 C 0.89412 0.54791 0.89497 0.0
C1085 C 0.86991 0.53037 0.94186 0.0
C1086 C 0.84947 0.52267 0.95943 0.0
C1087 C 0.83728 0.50193 0.97151 0.0
C1088 C 0.81795 0.49464 0.9879 0.0
C1089 C 0.81068 0.50797 0.99248 0.0
C1090 C 0.82275 0.52864 0.98074 0.0
C1091 C 0.84209 0.53601 0.96435 0.0
H1092 H 0.79572 0.5023 0.00516 0.0
H1093 H 0.98308 0.57111 0.84667 0.0
H1094 H 0.41653 0.95549 0.48489 0.0
H1095 H 0.38488 0.92707 0.46081 0.0
H1096 H 0.42302 0.90697 0.41558 0.0
H1097 H 0.45459 0.93557 0.43925 0.0
H1098 H 0.3968 0.90718 0.373 0.0
H1099 H 0.39139 0.88114 0.48367 0.0
H1100 H 0.39027 0.8819 0.5439 0.0
H1101 H 0.33441 0.88481 0.5396 0.0
H1102 H 0.3354 0.88442 0.47926 0.0
H1103 H 0.308 0.80053 0.35316 0.0
H1104 H 0.33089 0.82469 0.39356 0.0
H1105 H 0.32164 0.87187 0.34993 0.0
H1106 H 0.29845 0.84774 0.30994 0.0
H1107 H 0.33264 0.85625 0.43906 0.0
H1108 H 0.37108 0.90872 0.32311 0.0
H1109 H 0.37228 0.90524 0.26338 0.0
H1110 H 0.36405 0.84526 0.28059 0.0
H1111 H 0.36323 0.84858 0.34028 0.0
C1112 C 0.41799 0.94488 0.46988 0.0
C1113 C 0.43777 0.94747 0.46388 0.0
C1114 C 0.39998 0.92866 0.45626 0.0
C1115 C 0.40153 0.91475 0.43664 0.0
C1116 C 0.42142 0.91749 0.43062 0.0
C1117 C 0.43939 0.93372 0.44415 0.0
C1118 C 0.38257 0.89762 0.42169 0.0
C1119 C 0.38283 0.89612 0.38757 0.0
C1120 C 0.36435 0.88292 0.44061 0.0
C1121 C 0.36359 0.88295 0.47691 0.0
C1122 C 0.37896 0.8821 0.49554 0.0
C1123 C 0.37834 0.88245 0.52971 0.0
C1124 C 0.3623 0.88345 0.54556 0.0
C1125 C 0.34683 0.88406 0.52728 0.0
C1126 C 0.34741 0.88377 0.49309 0.0
C1127 C 0.30999 0.81571 0.3532 0.0
C1128 C 0.30174 0.82239 0.32808 0.0
C1129 C 0.3231 0.8295 0.3763 0.0
C1130 C 0.32815 0.8501 0.37435 0.0
C1131 C 0.31798 0.85604 0.35169 0.0
C1132 C 0.30482 0.84228 0.32879 0.0
C1133 C 0.34698 0.86624 0.39067 0.0
C1134 C 0.34666 0.86749 0.42477 0.0
C1135 C 0.3654 0.88046 0.37195 0.0
C1136 C 0.36691 0.87884 0.3361 0.0
C1137 C 0.36969 0.89488 0.3141 0.0
C1138 C 0.37028 0.89292 0.28027 0.0
C1139 C 0.36821 0.87502 0.26823 0.0
C1140 C 0.36562 0.85909 0.28995 0.0
C1141 C 0.3651 0.86101 0.32376 0.0
H1142 H 0.36871 0.8735 0.24209 0.0
H1143 H 0.36184 0.88371 0.57201 0.0
H1144 H 0.506 0.4287 0.89708 0.0
H1145 H 0.49672 0.39742 0.87018 0.0
H1146 H 0.44077 0.36268 0.93245 0.0
H1147 H 0.45098 0.39395 0.96175 0.0
H1148 H 0.45717 0.34023 0.92546 0.0
H1149 H 0.43914 0.37679 0.84957 0.0
H1150 H 0.44319 0.40633 0.81551 0.0
H1151 H 0.49503 0.41057 0.7619 0.0
H1152 H 0.49152 0.38127 0.79595 0.0
H1153 H 0.42457 0.2614 0.80097 0.0
H1154 H 0.42582 0.28534 0.84076 0.0
H1155 H 0.49133 0.32836 0.81443 0.0
H1156 H 0.4903 0.30447 0.77533 0.0
H1157 H 0.46253 0.34297 0.80405 0.0
H1158 H 0.48069 0.30691 0.88647 0.0
H1159 H 0.47362 0.27591 0.9197 0.0
H1160 H 0.41657 0.26873 0.959 0.0
H1161 H 0.42316 0.29954 0.92563 0.0
C1162 C 0.49188 0.41443 0.90565 0.0
C1163 C 0.4794 0.41396 0.93201 0.0
C1164 C 0.48636 0.39651 0.88969 0.0
C1165 C 0.46778 0.37767 0.8987 0.0
C1166 C 0.45512 0.37704 0.92486 0.0
C1167 C 0.46087 0.39501 0.94138 0.0
C1168 C 0.46213 0.3588 0.88093 0.0
C1169 C 0.45795 0.34074 0.89889 0.0
C1170 C 0.46298 0.35925 0.84619 0.0
C1171 C 0.46513 0.37688 0.8255 0.0
C1172 C 0.45149 0.3841 0.83067 0.0
C1173 C 0.45369 0.4008 0.81134 0.0
C1174 C 0.46938 0.41034 0.78659 0.0
C1175 C 0.48288 0.40317 0.78108 0.0
C1176 C 0.48078 0.38649 0.80037 0.0
C1177 C 0.43943 0.27559 0.80468 0.0
C1178 C 0.45732 0.28116 0.78493 0.0
C1179 C 0.44008 0.2893 0.82722 0.0
C1180 C 0.45861 0.30867 0.8302 0.0
C1181 C 0.47685 0.31351 0.81232 0.0
C1182 C 0.47626 0.29984 0.79008 0.0
C1183 C 0.45863 0.32503 0.84864 0.0
C1184 C 0.46153 0.3425 0.83063 0.0
C1185 C 0.45613 0.3238 0.88312 0.0
C1186 C 0.45229 0.30537 0.90326 0.0
C1187 C 0.46653 0.2986 0.90195 0.0
C1188 C 0.46264 0.28109 0.92087 0.0
C1189 C 0.44462 0.27031 0.94137 0.0
C1190 C 0.4305 0.27706 0.94307 0.0
C1191 C 0.43431 0.29456 0.92418 0.0
H1192 H 0.44163 0.25676 0.95599 0.0
H1193 H 0.47105 0.42326 0.77166 0.0
H1194 H 0.07677 0.51287 0.38256 0.0
H1195 H 0.10355 0.50857 0.35618 0.0
H1196 H 0.10291 0.47259 0.44129 0.0
H1197 H 0.07598 0.47671 0.46782 0.0
H1198 H 0.14249 0.49928 0.41988 0.0
H1199 H 0.07814 0.44974 0.37202 0.0
H1200 H 0.04485 0.43643 0.34309 0.0
H1201 H 0.07881 0.47536 0.25788 0.0
H1202 H 0.11228 0.48926 0.28652 0.0
H1203 H 0.17668 0.4548 0.27649 0.0
H1204 H 0.15183 0.4526 0.31807 0.0
H1205 H 0.19327 0.51762 0.33371 0.0
H1206 H 0.21822 0.5198 0.2923 0.0
H1207 H 0.13187 0.472 0.30896 0.0
H1208 H 0.18197 0.52862 0.40872 0.0
H1209 H 0.21445 0.53884 0.4385 0.0
H1210 H 0.20723 0.48008 0.42209 0.0
H1211 H 0.17456 0.46938 0.39263 0.0
C1212 C 0.08215 0.50386 0.39559 0.0
C1213 C 0.07408 0.49503 0.42728 0.0
C1214 C 0.09753 0.50147 0.38049 0.0
C1215 C 0.1051 0.49005 0.39657 0.0
C1216 C 0.09734 0.48148 0.42839 0.0
C1217 C 0.08197 0.4839 0.44356 0.0
C1218 C 0.12108 0.48707 0.38011 0.0
C1219 C 0.14015 0.49328 0.39564 0.0
C1220 C 0.11791 0.47882 0.34874 0.0
C1221 C 0.09772 0.47075 0.33163 0.0
C1222 C 0.0785 0.45567 0.34727 0.0
C1223 C 0.05959 0.44799 0.33088 0.0
C1224 C 0.0597 0.45511 0.29871 0.0
C1225 C 0.07873 0.46992 0.28284 0.0
C1226 C 0.09768 0.47772 0.29916 0.0
C1227 C 0.18082 0.46843 0.2897 0.0
C1228 C 0.19936 0.48748 0.28114 0.0
C1229 C 0.16656 0.4672 0.3133 0.0
C1230 C 0.17056 0.48497 0.32889 0.0
C1231 C 0.18989 0.50364 0.32232 0.0
C1232 C 0.20423 0.50486 0.29873 0.0
C1233 C 0.15346 0.48461 0.34836 0.0
C1234 C 0.13417 0.47787 0.33329 0.0
C1235 C 0.15634 0.49205 0.38025 0.0
C1236 C 0.1759 0.49828 0.39819 0.0
C1237 C 0.18726 0.51784 0.41158 0.0
C1238 C 0.20572 0.52373 0.42839 0.0
C1239 C 0.21294 0.51015 0.4321 0.0
C1240 C 0.20167 0.49062 0.41908 0.0
C1241 C 0.1832 0.48466 0.40228 0.0
H1242 H 0.22724 0.51474 0.4451 0.0
H1243 H 0.04505 0.4491 0.28605 0.0
H1244 H 0.59746 0.04125 0.94937 0.0
H1245 H 0.62967 0.07072 0.92304 0.0
H1246 H 0.59815 0.10453 0.91131 0.0
H1247 H 0.56601 0.07501 0.93738 0.0
H1248 H 0.61898 0.10656 0.85554 0.0
H1249 H 0.63364 0.11583 0.97017 0.0
H1250 H 0.6374 0.10513 0.0263 0.0
H1251 H 0.68636 0.09617 0.99213 0.0
H1252 H 0.68264 0.10648 0.93565 0.0
H1253 H 0.70065 0.2055 0.81443 0.0
H1254 H 0.67769 0.17946 0.85684 0.0
H1255 H 0.70503 0.1432 0.83645 0.0
H1256 H 0.72794 0.16915 0.79353 0.0
H1257 H 0.68808 0.14234 0.90941 0.0
H1258 H 0.67009 0.1286 0.79441 0.0
H1259 H 0.66741 0.14029 0.73832 0.0
H1260 H 0.62514 0.15785 0.77401 0.0
H1261 H 0.62788 0.14656 0.83043 0.0
C1262 C 0.59758 0.05505 0.9411 0.0
C1263 C 0.57951 0.05609 0.94514 0.0
C1264 C 0.6159 0.07184 0.92627 0.0
C1265 C 0.61633 0.08987 0.91547 0.0
C1266 C 0.59815 0.09078 0.91947 0.0
C1267 C 0.57988 0.07402 0.93433 0.0
C1268 C 0.63555 0.10768 0.8993 0.0
C1269 C 0.63399 0.11443 0.86752 0.0
C1270 C 0.6553 0.11772 0.91462 0.0
C1271 C 0.65771 0.11173 0.94862 0.0
C1272 C 0.64509 0.11142 0.97457 0.0
C1273 C 0.64723 0.10545 0.00646 0.0
C1274 C 0.66208 0.09993 0.01276 0.0
C1275 C 0.67485 0.10042 0.9872 0.0
C1276 C 0.67274 0.10634 0.95524 0.0
C1277 C 0.70256 0.19253 0.82011 0.0
C1278 C 0.71592 0.18921 0.8006 0.0
C1279 C 0.68939 0.17764 0.84429 0.0
C1280 C 0.6896 0.1594 0.84946 0.0
C1281 C 0.70476 0.15725 0.83285 0.0
C1282 C 0.71777 0.17204 0.80834 0.0
C1283 C 0.67125 0.14109 0.86607 0.0
C1284 C 0.673 0.1343 0.89765 0.0
C1285 C 0.65164 0.13084 0.85062 0.0
C1286 C 0.64935 0.13694 0.81663 0.0
C1287 C 0.66033 0.13508 0.7903 0.0
C1288 C 0.6588 0.14161 0.75847 0.0
C1289 C 0.64617 0.14987 0.75262 0.0
C1290 C 0.63495 0.15148 0.77859 0.0
C1291 C 0.63647 0.145 0.81049 0.0
H1292 H 0.64504 0.15496 0.72797 0.0
H1293 H 0.66372 0.09531 0.03747 0.0
H1294 H 0.48893 0.55952 0.4799 0.0
H1295 H 0.48827 0.5893 0.45606 0.0
H1296 H 0.55533 0.62135 0.43545 0.0
H1297 H 0.55612 0.59211 0.46154 0.0
H1298 H 0.54668 0.64809 0.45189 0.0
H1299 H 0.51602 0.59356 0.37645 0.0
H1300 H 0.49123 0.55851 0.3581 0.0
H1301 H 0.43908 0.56564 0.37927 0.0
H1302 H 0.46356 0.60068 0.39815 0.0
H1303 H 0.55514 0.70893 0.30733 0.0
H1304 H 0.55493 0.68582 0.35121 0.0
H1305 H 0.49144 0.66735 0.37978 0.0
H1306 H 0.49164 0.69055 0.33594 0.0
H1307 H 0.49586 0.63458 0.36418 0.0
H1308 H 0.52946 0.69247 0.43218 0.0
H1309 H 0.55613 0.72806 0.446 0.0
H1310 H 0.60508 0.71503 0.43356 0.0
H1311 H 0.57874 0.67943 0.41918 0.0
C1312 C 0.50351 0.57306 0.47052 0.0
C1313 C 0.5225 0.57344 0.47174 0.0
C1314 C 0.50313 0.59 0.4567 0.0
C1315 C 0.52165 0.60741 0.44304 0.0
C1316 C 0.54079 0.60808 0.44553 0.0
C1317 C 0.54123 0.59133 0.46008 0.0
C1318 C 0.52103 0.62455 0.42507 0.0
C1319 C 0.53566 0.64512 0.43255 0.0
C1320 C 0.50638 0.62075 0.40022 0.0
C1321 C 0.49161 0.59966 0.38902 0.0
C1322 C 0.49925 0.5876 0.37741 0.0
C1323 C 0.48527 0.56775 0.36688 0.0
C1324 C 0.46361 0.55987 0.36752 0.0
C1325 C 0.45587 0.57179 0.37878 0.0
C1326 C 0.46979 0.59165 0.38939 0.0
C1327 C 0.54141 0.70044 0.32369 0.0
C1328 C 0.52343 0.70153 0.31834 0.0
C1329 C 0.5413 0.68726 0.34874 0.0
C1330 C 0.52316 0.67485 0.36873 0.0
C1331 C 0.50562 0.67684 0.36467 0.0
C1332 C 0.50581 0.69021 0.33983 0.0
C1333 C 0.52164 0.65804 0.39075 0.0
C1334 C 0.50665 0.63751 0.38389 0.0
C1335 C 0.53622 0.66191 0.41561 0.0
C1336 C 0.55211 0.6833 0.42437 0.0
C1337 C 0.54593 0.69723 0.43213 0.0
C1338 C 0.56099 0.71741 0.44011 0.0
C1339 C 0.58229 0.72381 0.4406 0.0
C1340 C 0.58857 0.71005 0.43316 0.0
C1341 C 0.57358 0.68986 0.42514 0.0
H1342 H 0.59393 0.73944 0.44679 0.0
H1343 H 0.45284 0.54456 0.35915 0.0
H1344 H 0.52387 0.09149 0.54237 0.0
H1345 H 0.51913 0.11856 0.56339 0.0
H1346 H 0.45286 0.0739 0.58079 0.0
H1347 H 0.45759 0.04665 0.56033 0.0
H1348 H 0.4646 0.11511 0.54871 0.0
H1349 H 0.4787 0.0836 0.64286 0.0
H1350 H 0.49913 0.07167 0.67344 0.0
H1351 H 0.55351 0.13349 0.66709 0.0
H1352 H 0.53345 0.14573 0.63603 0.0
H1353 H 0.43385 0.16311 0.66333 0.0
H1354 H 0.44051 0.14216 0.62741 0.0
H1355 H 0.50733 0.18138 0.64203 0.0
H1356 H 0.50046 0.20172 0.67921 0.0
H1357 H 0.49685 0.14421 0.65432 0.0
H1358 H 0.4831 0.17717 0.56468 0.0
H1359 H 0.46388 0.18997 0.53277 0.0
H1360 H 0.41094 0.12777 0.52792 0.0
H1361 H 0.42973 0.11461 0.56022 0.0
C1362 C 0.50827 0.08751 0.55042 0.0
C1363 C 0.49109 0.06699 0.54982 0.0
C1364 C 0.50559 0.10295 0.56242 0.0
C1365 C 0.48564 0.0982 0.57355 0.0
C1366 C 0.46835 0.07786 0.57216 0.0
C1367 C 0.47109 0.06231 0.56072 0.0
C1368 C 0.48309 0.11426 0.58829 0.0
C1369 C 0.47146 0.12142 0.57193 0.0
C1370 C 0.4926 0.12284 0.61804 0.0
C1371 C 0.50466 0.11552 0.63678 0.0
C1372 C 0.49507 0.09461 0.6477 0.0
C1373 C 0.50657 0.0878 0.66518 0.0
C1374 C 0.52763 0.1018 0.67211 0.0
C1375 C 0.53721 0.12266 0.66165 0.0
C1376 C 0.52578 0.12954 0.64412 0.0
C1377 C 0.45 0.16768 0.65785 0.0
C1378 C 0.46667 0.18408 0.67378 0.0
C1379 C 0.45383 0.15568 0.63732 0.0
C1380 C 0.47447 0.16014 0.63182 0.0
C1381 C 0.49127 0.17751 0.64594 0.0
C1382 C 0.48739 0.18926 0.66692 0.0
C1383 C 0.47829 0.14538 0.61482 0.0
C1384 C 0.49013 0.13827 0.63086 0.0
C1385 C 0.46914 0.13708 0.58457 0.0
C1386 C 0.45777 0.14492 0.56512 0.0
C1387 C 0.46729 0.16623 0.55704 0.0
C1388 C 0.45649 0.17355 0.53884 0.0
C1389 C 0.43618 0.1597 0.52839 0.0
C1390 C 0.42666 0.13849 0.53606 0.0
C1391 C 0.4374 0.13108 0.55428 0.0
H1392 H 0.42784 0.1654 0.51429 0.0
H1393 H 0.53651 0.0965 0.68566 0.0
H1394 H 0.46347 0.53062 0.02769 0.0
H1395 H 0.4337 0.5329 0.04771 0.0
H1396 H 0.39528 0.46614 0.05821 0.0
H1397 H 0.42471 0.46398 0.03674 0.0
H1398 H 0.37208 0.47995 0.03685 0.0
H1399 H 0.42132 0.49756 0.12241 0.0
H1400 H 0.45614 0.51711 0.14721 0.0
H1401 H 0.45507 0.57293 0.13624 0.0
H1402 H 0.42038 0.55377 0.11064 0.0
H1403 H 0.30133 0.46703 0.16864 0.0
H1404 H 0.32726 0.46762 0.13083 0.0
H1405 H 0.35384 0.53286 0.10874 0.0
H1406 H 0.32762 0.53219 0.14616 0.0
H1407 H 0.38296 0.52221 0.13242 0.0
H1408 H 0.33097 0.50175 0.04977 0.0
H1409 H 0.29582 0.48019 0.02678 0.0
H1410 H 0.30115 0.42671 0.03779 0.0
H1411 H 0.33621 0.44789 0.0613 0.0
C1412 C 0.44859 0.51651 0.03419 0.0
C1413 C 0.44644 0.49715 0.03168 0.0
C1414 C 0.43162 0.51778 0.04569 0.0
C1415 C 0.41231 0.49969 0.0552 0.0
C1416 C 0.40999 0.48033 0.05129 0.0
C1417 C 0.42685 0.47908 0.0394 0.0
C1418 C 0.39477 0.5008 0.07045 0.0
C1419 C 0.37448 0.48911 0.05787 0.0
C1420 C 0.39784 0.51291 0.09773 0.0
C1421 C 0.41844 0.52433 0.11396 0.0
C1422 C 0.42859 0.51405 0.12495 0.0
C1423 C 0.4483 0.52506 0.13915 0.0
C1424 C 0.45789 0.5463 0.14301 0.0
C1425 C 0.4477 0.55653 0.13291 0.0
C1426 C 0.42803 0.54561 0.11852 0.0
C1427 C 0.31219 0.48128 0.15469 0.0
C1428 C 0.31233 0.49949 0.15991 0.0
C1429 C 0.32706 0.48165 0.13326 0.0
C1430 C 0.34252 0.50031 0.11704 0.0
C1431 C 0.34202 0.5183 0.12096 0.0
C1432 C 0.32691 0.51786 0.14202 0.0
C1433 C 0.36037 0.50136 0.09882 0.0
C1434 C 0.3807 0.51333 0.11108 0.0
C1435 C 0.35724 0.48915 0.07178 0.0
C1436 C 0.33617 0.47639 0.05755 0.0
C1437 C 0.32458 0.48536 0.04755 0.0
C1438 C 0.30468 0.47321 0.03437 0.0
C1439 C 0.29624 0.45209 0.03089 0.0
C1440 C 0.3077 0.44307 0.04052 0.0
C1441 C 0.3276 0.45515 0.05374 0.0
H1442 H 0.28083 0.44271 0.02068 0.0
H1443 H 0.47316 0.55481 0.15398 0.0
H1444 H 0.92815 0.44658 0.51837 0.0
H1445 H 0.89641 0.41491 0.54003 0.0
H1446 H 0.93249 0.38584 0.55476 0.0
H1447 H 0.96376 0.41695 0.53026 0.0
H1448 H 0.89558 0.35797 0.53925 0.0
H1449 H 0.92145 0.41107 0.61748 0.0
H1450 H 0.93274 0.44567 0.6365 0.0
H1451 H 0.87135 0.43527 0.61845 0.0
H1452 H 0.85976 0.4007 0.59888 0.0
H1453 H 0.84052 0.29284 0.68255 0.0
H1454 H 0.86489 0.31765 0.63971 0.0
H1455 H 0.81914 0.33374 0.61364 0.0
H1456 H 0.79473 0.30895 0.65638 0.0
H1457 H 0.85799 0.36723 0.63085 0.0
H1458 H 0.83176 0.31097 0.55946 0.0
H1459 H 0.822 0.2762 0.54344 0.0
H1460 H 0.88606 0.29224 0.55336 0.0
H1461 H 0.89616 0.32702 0.56991 0.0
C1462 C 0.92914 0.43327 0.52582 0.0
C1463 C 0.94842 0.43428 0.52361 0.0
C1464 C 0.91108 0.41525 0.53843 0.0
C1465 C 0.91217 0.39818 0.55017 0.0
C1466 C 0.93124 0.39884 0.54627 0.0
C1467 C 0.94915 0.41666 0.53267 0.0
C1468 C 0.89387 0.38015 0.5681 0.0
C1469 C 0.88748 0.36001 0.55944 0.0
C1470 C 0.88299 0.38273 0.59416 0.0
C1471 C 0.8898 0.40338 0.60644 0.0
C1472 C 0.91039 0.4162 0.61744 0.0
C1473 C 0.91683 0.43581 0.6283 0.0
C1474 C 0.90277 0.44267 0.62861 0.0
C1475 C 0.88222 0.42993 0.61814 0.0
C1476 C 0.8757 0.41033 0.60718 0.0
C1477 C 0.83547 0.30126 0.66702 0.0
C1478 C 0.81576 0.29899 0.67276 0.0
C1479 C 0.84936 0.31538 0.64255 0.0
C1480 C 0.84381 0.32754 0.62357 0.0
C1481 C 0.82368 0.32445 0.628 0.0
C1482 C 0.80969 0.31018 0.65223 0.0
C1483 C 0.85989 0.34514 0.60217 0.0
C1484 C 0.86593 0.36522 0.61036 0.0
C1485 C 0.87069 0.34246 0.57624 0.0
C1486 C 0.86468 0.32157 0.56618 0.0
C1487 C 0.84374 0.30704 0.5585 0.0
C1488 C 0.83815 0.28733 0.54926 0.0
C1489 C 0.8534 0.282 0.54745 0.0
C1490 C 0.87427 0.29638 0.55479 0.0
C1491 C 0.87994 0.31611 0.56406 0.0
H1492 H 0.84904 0.26674 0.5403 0.0
H1493 H 0.90777 0.45784 0.63708 0.0
H1494 H 0.51511 0.93604 0.09917 0.0
H1495 H 0.52187 0.9106 0.12448 0.0
H1496 H 0.54969 0.90801 0.03356 0.0
H1497 H 0.54353 0.93414 0.008 0.0
H1498 H 0.52089 0.86815 0.06619 0.0
H1499 H 0.58231 0.93232 0.08881 0.0
H1500 H 0.60265 0.96834 0.10565 0.0
H1501 H 0.57365 0.94849 0.20201 0.0
H1502 H 0.55286 0.91238 0.18561 0.0
H1503 H 0.5454 0.80485 0.17593 0.0
H1504 H 0.5504 0.8308 0.13245 0.0
H1505 H 0.52502 0.85581 0.19814 0.0
H1506 H 0.5196 0.83008 0.24066 0.0
H1507 H 0.56211 0.88612 0.1675 0.0
H1508 H 0.49546 0.82416 0.14012 0.0
H1509 H 0.47404 0.7881 0.12363 0.0
H1510 H 0.51306 0.80398 0.03654 0.0
H1511 H 0.53488 0.84011 0.05278 0.0
C1512 C 0.52293 0.93034 0.08454 0.0
C1513 C 0.52906 0.93743 0.05164 0.0
C1514 C 0.52666 0.91567 0.09902 0.0
C1515 C 0.53652 0.90763 0.081 0.0
C1516 C 0.54211 0.91409 0.04788 0.0
C1517 C 0.53851 0.92896 0.03333 0.0
C1518 C 0.541 0.89267 0.0975 0.0
C1519 C 0.53035 0.87215 0.08786 0.0
C1520 C 0.55334 0.89792 0.12575 0.0
C1521 C 0.56595 0.91962 0.1359 0.0
C1522 C 0.58016 0.93564 0.11353 0.0
C1523 C 0.59178 0.95608 0.12301 0.0
C1524 C 0.58943 0.9607 0.15487 0.0
C1525 C 0.57546 0.94488 0.17734 0.0
C1526 C 0.56378 0.92442 0.16797 0.0
C1527 C 0.54088 0.8159 0.18088 0.0
C1528 C 0.5326 0.81574 0.21197 0.0
C1529 C 0.54377 0.83069 0.15614 0.0
C1530 C 0.53832 0.84539 0.16227 0.0
C1531 C 0.5297 0.84488 0.19304 0.0
C1532 C 0.52672 0.83019 0.21743 0.0
C1533 C 0.54112 0.86141 0.13718 0.0
C1534 C 0.55322 0.88222 0.14521 0.0
C1535 C 0.5301 0.85639 0.10758 0.0
C1536 C 0.51696 0.83473 0.09787 0.0
C1537 C 0.49958 0.81991 0.11761 0.0
C1538 C 0.48734 0.79947 0.10828 0.0
C1539 C 0.49223 0.79373 0.07912 0.0
C1540 C 0.50933 0.80844 0.05917 0.0
C1541 C 0.52163 0.82889 0.06841 0.0
H1542 H 0.48274 0.77791 0.07193 0.0
H1543 H 0.59844 0.97654 0.16216 0.0
H1544 H 0.57447 0.50251 0.61727 0.0
H1545 H 0.60644 0.50847 0.64311 0.0
H1546 H 0.64225 0.5388 0.55332 0.0
H1547 H 0.61041 0.53377 0.52768 0.0
H1548 H 0.63354 0.4971 0.6333 0.0
H1549 H 0.69175 0.57768 0.57288 0.0
H1550 H 0.69181 0.60762 0.54673 0.0
H1551 H 0.63642 0.59199 0.60372 0.0
H1552 H 0.6362 0.56214 0.63045 0.0
H1553 H 0.73233 0.52895 0.70707 0.0
H1554 H 0.70784 0.52265 0.6624 0.0
H1555 H 0.69225 0.56436 0.70395 0.0
H1556 H 0.71691 0.57103 0.7475 0.0
H1557 H 0.69408 0.56922 0.6397 0.0
H1558 H 0.66233 0.51175 0.72079 0.0
H1559 H 0.65997 0.48262 0.75382 0.0
H1560 H 0.6587 0.4531 0.66584 0.0
H1561 H 0.66128 0.48224 0.63234 0.0
C1562 C 0.58916 0.51062 0.60303 0.0
C1563 C 0.58987 0.51793 0.57051 0.0
C1564 C 0.60741 0.51377 0.61774 0.0
C1565 C 0.62683 0.52425 0.6003 0.0
C1566 C 0.62751 0.53089 0.56742 0.0
C1567 C 0.60923 0.52786 0.55271 0.0
C1568 C 0.64635 0.52903 0.61737 0.0
C1569 C 0.6469 0.51285 0.63432 0.0
C1570 C 0.66376 0.54957 0.61899 0.0
C1571 C 0.66381 0.56755 0.60329 0.0
C1572 C 0.67961 0.58067 0.57983 0.0
C1573 C 0.67967 0.59762 0.56493 0.0
C1574 C 0.66408 0.60165 0.57346 0.0
C1575 C 0.64844 0.5888 0.59702 0.0
C1576 C 0.64832 0.57186 0.61203 0.0
C1577 C 0.72392 0.537 0.70613 0.0
C1578 C 0.72617 0.55018 0.73095 0.0
C1579 C 0.70989 0.53334 0.68079 0.0
C1580 C 0.698 0.54284 0.68003 0.0
C1581 C 0.7012 0.55684 0.70391 0.0
C1582 C 0.71513 0.56049 0.729 0.0
C1583 C 0.68107 0.53736 0.65618 0.0
C1584 C 0.68101 0.5534 0.63788 0.0
C1585 C 0.66384 0.51677 0.65409 0.0
C1586 C 0.66226 0.49926 0.67412 0.0
C1587 C 0.66169 0.49911 0.70854 0.0
C1588 C 0.66029 0.4826 0.72733 0.0
C1589 C 0.65926 0.46605 0.71194 0.0
C1590 C 0.65955 0.46596 0.67772 0.0
C1591 C 0.66098 0.48247 0.65883 0.0
H1592 H 0.65817 0.45326 0.72651 0.0
H1593 H 0.66414 0.61476 0.56187 0.0
H1594 H 0.07246 0.60618 0.03456 0.0
H1595 H 0.10001 0.63735 0.05965 0.0
H1596 H 0.09746 0.60006 0.1444 0.0
H1597 H 0.06971 0.56896 0.11968 0.0
H1598 H 0.10031 0.63344 0.16377 0.0
H1599 H 0.13708 0.6188 0.0835 0.0
H1600 H 0.14487 0.612 0.02839 0.0
H1601 H 0.15813 0.67162 0.99177 0.0
H1602 H 0.15014 0.67866 0.0466 0.0
H1603 H 0.21502 0.70715 0.19832 0.0
H1604 H 0.18996 0.68296 0.16005 0.0
H1605 H 0.14977 0.70705 0.17514 0.0
H1606 H 0.17475 0.73119 0.21364 0.0
H1607 H 0.16861 0.68113 0.10471 0.0
H1608 H 0.09956 0.66496 0.19158 0.0
H1609 H 0.09362 0.66963 0.2492 0.0
H1610 H 0.14788 0.66748 0.27701 0.0
H1611 H 0.15383 0.66229 0.21974 0.0
C1612 C 0.07782 0.60465 0.05852 0.0
C1613 C 0.06895 0.58511 0.07513 0.0
C1614 C 0.09358 0.62247 0.07282 0.0
C1615 C 0.10103 0.62106 0.10377 0.0
C1616 C 0.09196 0.60158 0.12055 0.0
C1617 C 0.07607 0.58381 0.10642 0.0
C1618 C 0.11832 0.63978 0.11873 0.0
C1619 C 0.11518 0.6439 0.15073 0.0
C1620 C 0.1379 0.65332 0.102 0.0
C1621 C 0.1428 0.64916 0.06906 0.0
C1622 C 0.14151 0.6304 0.06364 0.0
C1623 C 0.14598 0.62651 0.03246 0.0
C1624 C 0.15193 0.64134 0.00658 0.0
C1625 C 0.15348 0.66013 0.01183 0.0
C1626 C 0.149 0.66408 0.04296 0.0
C1627 C 0.2013 0.7079 0.19242 0.0
C1628 C 0.1967 0.72087 0.20921 0.0
C1629 C 0.18693 0.694 0.17063 0.0
C1630 C 0.16779 0.69288 0.16539 0.0
C1631 C 0.1643 0.70742 0.17931 0.0
C1632 C 0.1786 0.72125 0.20118 0.0
C1633 C 0.15042 0.67482 0.14944 0.0
C1634 C 0.1536 0.67079 0.11744 0.0
C1635 C 0.13106 0.66099 0.1665 0.0
C1636 C 0.12728 0.66352 0.20125 0.0
C1637 C 0.11015 0.66537 0.21002 0.0
C1638 C 0.10678 0.66809 0.24263 0.0
C1639 C 0.12041 0.66893 0.26672 0.0
C1640 C 0.13736 0.66689 0.25831 0.0
C1641 C 0.14073 0.66404 0.22577 0.0
H1642 H 0.11781 0.67111 0.29191 0.0
H1643 H 0.15539 0.63831 0.98246 0.0
loop_
_geom_bond_atom_site_label_1
_geom_bond_atom_site_label_2
_geom_bond_distance
_geom_bond_site_symmetry_2
_ccdc_geom_bond_type
C0 C1 1.443 1_556 S
C0 N4 1.376 1_556 S
C0 C38 1.389 . S
C1 C0 1.443 1_554 S
C1 C2 1.340 . S
C1 H41 0.951 . S
C2 C1 1.340 . S
C2 C3 1.439 . S
C2 H42 0.950 . S
C3 C2 1.439 . S
C3 N4 1.374 . S
C3 C37 1.395 . S
N4 C0 1.376 1_554 S
N4 C3 1.374 . S
N4 Co5 2.008 1_655 S
Co5 N4 2.008 1_455 S
Co5 N6 1.995 . S
Co5 N11 2.008 1_554 S
Co5 N16 1.995 1_554 S
Co5 N21 2.282 . S
Co5 N27 2.282 1_454 S
N6 Co5 1.995 . S
N6 C7 1.376 1_455 S
N6 C10 1.383 . S
C7 N6 1.376 1_655 S
C7 C8 1.446 . S
C7 C37 1.391 . S
C8 C7 1.446 . S
C8 C9 1.339 1_655 S
C8 H43 0.949 . S
C9 C8 1.339 1_455 S
C9 C10 1.439 . S
C9 H44 0.950 . S
C10 N6 1.383 . S
C10 C9 1.439 . S
C10 C39 1.392 . S
N11 Co5 2.008 1_556 S
N11 C12 1.376 1_556 S
N11 C15 1.374 . S
C12 N11 1.376 1_554 S
C12 C13 1.443 1_554 S
C12 C39 1.389 . S
C13 C12 1.443 1_556 S
C13 C14 1.340 . S
C13 H45 0.951 . S
C14 C13 1.340 . S
C14 C15 1.439 . S
C14 H46 0.950 . S
C15 N11 1.374 . S
C15 C14 1.439 . S
C15 C40 1.395 . S
N16 Co5 1.995 1_556 S
N16 C17 1.376 . S
N16 C20 1.383 1_455 S
C17 N16 1.376 . S
C17 C18 1.446 . S
C17 C40 1.391 . S
C18 C17 1.446 . S
C18 C19 1.339 1_455 S
C18 H47 0.949 . S
C19 C18 1.339 1_655 S
C19 C20 1.439 . S
C19 H48 0.950 . S
C20 N16 1.383 1_655 S
C20 C19 1.439 . S
C20 C38 1.392 . S
N21 Co5 2.282 . S
N21 C24 1.332 . S
N21 C26 1.332 . S
C22 C23 1.386 . S
C22 C25 1.388 . S
C23 C22 1.386 . S
C23 C24 1.382 . S
C23 H49 0.950 . S
C24 N21 1.332 . S
C24 C23 1.382 . S
C24 H35 0.952 1_554 S
C25 C22 1.388 . S
C25 C26 1.382 . S
C25 H50 0.950 . S
C26 N21 1.332 . S
C26 C25 1.382 . S
C26 H36 0.948 . S
N27 Co5 2.282 1_656 S
N27 C31 1.332 . S
N27 C32 1.332 . S
C28 C29 1.388 . S
C28 C32 1.382 . S
C28 H51 0.950 . S
C29 C28 1.388 . S
C29 C30 1.386 . S
C30 C29 1.386 . S
C30 C31 1.382 . S
C30 H52 0.950 . S
C31 N27 1.332 . S
C31 C30 1.382 . S
C31 H33 0.952 1_556 S
C32 N27 1.332 . S
C32 C28 1.382 . S
C32 H34 0.948 . S
H33 C31 0.952 1_554 S
H34 C32 0.948 . S
H35 C24 0.952 1_556 S
H36 C26 0.948 . S
C37 C3 1.395 . S
C37 C7 1.391 . S
C38 C0 1.389 . S
C38 C20 1.392 . S
C39 C10 1.392 . S
C39 C12 1.389 . S
C40 C15 1.395 . S
C40 C17 1.391 . S
H41 C1 0.951 . S
H42 C2 0.950 . S
H43 C8 0.949 . S
H44 C9 0.950 . S
H45 C13 0.951 . S
H46 C14 0.950 . S
H47 C18 0.949 . S
H48 C19 0.950 . S
H49 C23 0.950 . S
H50 C25 0.950 . S
H51 C28 0.950 . S
H52 C30 0.950 . S
C53 C54 1.443 . S
C53 N57 1.376 . S
C53 C91 1.389 . S
C54 C53 1.443 . S
C54 C55 1.354 . S
C54 H94 0.951 . S
C55 C54 1.354 . S
C55 C56 1.435 1_545 S
C55 H95 0.942 1_545 S
C56 C55 1.435 1_565 S
C56 N57 1.374 1_565 S
C56 C90 1.395 . S
N57 C53 1.376 . S
N57 C56 1.374 1_545 S
N57 Co58 2.008 . S
Co58 N57 2.008 . S
Co58 N59 1.995 1_545 S
Co58 N64 2.008 . S
Co58 N69 1.995 . S
Co58 N74 2.282 1_545 S
Co58 N80 2.282 . S
N59 Co58 1.995 1_565 S
N59 C60 1.376 . S
N59 C63 1.383 . S
C60 N59 1.376 . S
C60 C61 1.446 . S
C60 C90 1.391 . S
C61 C60 1.446 . S
C61 C62 1.339 . S
C61 H96 0.949 . S
C62 C61 1.339 . S
C62 C63 1.439 . S
C62 H97 0.950 . S
C63 N59 1.383 . S
C63 C62 1.439 . S
C63 C92 1.392 . S
N64 Co58 2.008 . S
N64 C65 1.376 1_545 S
N64 C68 1.374 . S
C65 N64 1.376 1_565 S
C65 C66 1.443 . S
C65 C92 1.389 . S
C66 C65 1.443 . S
C66 C67 1.340 1_565 S
C66 H98 0.951 . S
C67 C66 1.340 1_545 S
C67 C68 1.439 . S
C67 H99 0.950 . S
C68 N64 1.374 . S
C68 C67 1.439 . S
C68 C93 1.395 . S
N69 Co58 1.995 . S
N69 C70 1.376 . S
N69 C73 1.383 . S
C70 N69 1.376 . S
C70 C71 1.446 . S
C70 C93 1.391 . S
C71 C70 1.446 . S
C71 C72 1.339 . S
C71 H100 0.949 . S
C72 C71 1.339 . S
C72 C73 1.439 . S
C72 H101 0.950 . S
C73 N69 1.383 . S
C73 C72 1.439 . S
C73 C91 1.392 . S
N74 Co58 2.282 1_565 S
N74 C77 1.332 . S
N74 C79 1.332 . S
C75 C76 1.386 . S
C75 C78 1.388 . S
C76 C75 1.386 . S
C76 C77 1.382 . S
C76 H102 0.950 . S
C77 N74 1.332 . S
C77 C76 1.382 . S
C77 H88 0.952 1_565 S
C78 C75 1.388 . S
C78 C79 1.382 . S
C78 H103 0.950 . S
C79 N74 1.332 . S
C79 C78 1.382 . S
C79 H89 0.948 . S
N80 Co58 2.282 . S
N80 C84 1.332 . S
N80 C85 1.332 . S
C81 C82 1.388 . S
C81 C85 1.382 . S
C81 H104 0.950 . S
C82 C81 1.388 . S
C82 C83 1.386 . S
C83 C82 1.386 . S
C83 C84 1.382 . S
C83 H105 0.950 . S
C84 N80 1.332 . S
C84 C83 1.382 . S
C84 H86 0.952 . S
C85 N80 1.332 . S
C85 C81 1.382 . S
C85 H87 0.948 . S
H86 C84 0.952 . S
H87 C85 0.948 . S
H88 C77 0.952 1_545 S
H89 C79 0.948 . S
C90 C56 1.395 . S
C90 C60 1.391 . S
C91 C53 1.389 . S
C91 C73 1.392 . S
C92 C63 1.392 . S
C92 C65 1.389 . S
C93 C68 1.395 . S
C93 C70 1.391 . S
H94 C54 0.951 . S
H95 C55 0.942 1_565 S
H96 C61 0.949 . S
H97 C62 0.950 . S
H98 C66 0.951 . S
H99 C67 0.950 . S
H100 C71 0.949 . S
H101 C72 0.950 . S
H102 C76 0.950 . S
H103 C78 0.950 . S
H104 C81 0.950 . S
H105 C83 0.950 . S
C106 C107 1.443 . S
C106 N110 1.376 . S
C106 C144 1.389 . S
C107 C106 1.443 . S
C107 C108 1.340 . S
C107 H147 0.951 . S
C108 C107 1.340 . S
C108 C109 1.439 . S
C108 H148 0.950 . S
C109 C108 1.439 . S
C109 N110 1.374 . S
C109 C143 1.395 . S
N110 C106 1.376 . S
N110 C109 1.374 . S
N110 Co111 2.008 1_556 S
Co111 N110 2.008 1_554 S
Co111 N112 1.995 1_554 S
Co111 N117 2.008 . S
Co111 N122 1.995 . S
Co111 N127 2.282 . S
Co111 N133 2.282 1_554 S
N112 Co111 1.995 1_556 S
N112 C113 1.376 . S
N112 C116 1.383 1_556 S
C113 N112 1.376 . S
C113 C114 1.446 . S
C113 C143 1.391 . S
C114 C113 1.446 . S
C114 C115 1.339 . S
C114 H149 0.949 . S
C115 C114 1.339 . S
C115 C116 1.439 1_556 S
C115 H150 0.950 . S
C116 N112 1.383 1_554 S
C116 C115 1.439 1_554 S
C116 C145 1.392 . S
N117 Co111 2.008 . S
N117 C118 1.376 . S
N117 C121 1.374 . S
C118 N117 1.376 . S
C118 C119 1.443 . S
C118 C145 1.389 . S
C119 C118 1.443 . S
C119 C120 1.340 . S
C119 H151 0.951 . S
C120 C119 1.340 . S
C120 C121 1.439 . S
C120 H152 0.950 . S
C121 N117 1.374 . S
C121 C120 1.439 . S
C121 C146 1.395 . S
N122 Co111 1.995 . S
N122 C123 1.376 . S
N122 C126 1.380 1_554 S
C123 N122 1.376 . S
C123 C124 1.446 . S
C123 C146 1.391 . S
C124 C123 1.446 . S
C124 C125 1.339 . S
C124 H153 0.949 . S
C125 C124 1.339 . S
C125 C126 1.436 1_554 S
C125 H154 0.950 . S
C126 N122 1.380 1_556 S
C126 C125 1.436 1_556 S
C126 C144 1.397 . S
N127 Co111 2.282 . S
N127 C130 1.332 . S
N127 C132 1.332 . S
C128 C129 1.386 . S
C128 C131 1.388 . S
C129 C128 1.386 . S
C129 C130 1.382 . S
C129 H155 0.950 . S
C130 N127 1.332 . S
C130 C129 1.382 . S
C130 H141 0.952 . S
C131 C128 1.388 . S
C131 C132 1.382 . S
C131 H156 0.950 . S
C132 N127 1.332 . S
C132 C131 1.382 . S
C132 H142 0.948 1_554 S
N133 Co111 2.282 1_556 S
N133 C137 1.332 . S
N133 C138 1.332 . S
C134 C135 1.388 . S
C134 C138 1.382 . S
C134 H157 0.950 . S
C135 C134 1.388 . S
C135 C136 1.386 . S
C136 C135 1.386 . S
C136 C137 1.382 . S
C136 H158 0.950 . S
C137 N133 1.332 . S
C137 C136 1.382 . S
C137 H139 0.952 . S
C138 N133 1.332 . S
C138 C134 1.382 . S
C138 H140 0.948 1_556 S
H139 C137 0.952 . S
H140 C138 0.948 1_554 S
H141 C130 0.952 . S
H142 C132 0.948 1_556 S
C143 C109 1.395 . S
C143 C113 1.391 . S
C144 C106 1.389 . S
C144 C126 1.397 . S
C145 C116 1.392 . S
C145 C118 1.389 . S
C146 C121 1.395 . S
C146 C123 1.391 . S
H147 C107 0.951 . S
H148 C108 0.950 . S
H149 C114 0.949 . S
H150 C115 0.950 . S
H151 C119 0.951 . S
H152 C120 0.950 . S
H153 C124 0.949 . S
H154 C125 0.950 . S
H155 C129 0.950 . S
H156 C131 0.950 . S
H157 C134 0.950 . S
H158 C136 0.950 . S
C159 C160 1.443 . S
C159 N163 1.376 . S
C159 C197 1.389 . S
C160 C159 1.443 . S
C160 C161 1.340 . S
C160 H200 0.951 . S
C161 C160 1.340 . S
C161 C162 1.439 . S
C161 H201 0.950 . S
C162 C161 1.439 . S
C162 N163 1.374 . S
C162 C196 1.395 . S
N163 C159 1.376 . S
N163 C162 1.374 . S
N163 Co164 2.008 1_655 S
Co164 N163 2.008 1_455 S
Co164 N165 1.995 . S
Co164 N170 2.008 . S
Co164 N175 1.995 . S
Co164 N180 2.282 . S
Co164 N186 2.282 1_455 S
N165 Co164 1.995 . S
N165 C166 1.376 1_455 S
N165 C169 1.383 . S
C166 N165 1.376 1_655 S
C166 C167 1.446 . S
C166 C196 1.391 . S
C167 C166 1.446 . S
C167 C168 1.339 1_655 S
C167 H202 0.949 . S
C168 C167 1.339 1_455 S
C168 C169 1.439 . S
C168 H203 0.950 . S
C169 N165 1.383 . S
C169 C168 1.439 . S
C169 C198 1.392 . S
N170 Co164 2.008 . S
N170 C171 1.376 . S
N170 C174 1.374 . S
C171 N170 1.376 . S
C171 C172 1.443 . S
C171 C198 1.389 . S
C172 C171 1.443 . S
C172 C173 1.340 . S
C172 H204 0.951 . S
C173 C172 1.340 . S
C173 C174 1.439 . S
C173 H205 0.950 . S
C174 N170 1.374 . S
C174 C173 1.439 . S
C174 C199 1.395 . S
N175 Co164 1.995 . S
N175 C176 1.376 . S
N175 C179 1.383 1_455 S
C176 N175 1.376 . S
C176 C177 1.446 . S
C176 C199 1.391 . S
C177 C176 1.446 . S
C177 C178 1.339 1_455 S
C177 H206 0.949 . S
C178 C177 1.339 1_655 S
C178 C179 1.439 . S
C178 H207 0.950 . S
C179 N175 1.383 1_655 S
C179 C178 1.439 . S
C179 C197 1.392 . S
N180 Co164 2.282 . S
N180 C183 1.332 . S
N180 C185 1.332 . S
C181 C182 1.386 . S
C181 C184 1.388 . S
C182 C181 1.386 . S
C182 C183 1.382 . S
C182 H208 0.950 . S
C183 N180 1.332 . S
C183 C182 1.382 . S
C183 H194 0.952 . S
C184 C181 1.388 . S
C184 C185 1.382 . S
C184 H209 0.950 . S
C185 N180 1.332 . S
C185 C184 1.382 . S
C185 H195 0.948 . S
N186 Co164 2.282 1_655 S
N186 C190 1.332 . S
N186 C191 1.332 . S
C187 C188 1.388 . S
C187 C191 1.382 . S
C187 H210 0.950 . S
C188 C187 1.388 . S
C188 C189 1.386 . S
C189 C188 1.386 . S
C189 C190 1.382 . S
C189 H211 0.950 . S
C190 N186 1.332 . S
C190 C189 1.382 . S
C190 H192 0.952 . S
C191 N186 1.332 . S
C191 C187 1.382 . S
C191 H193 0.948 . S
H192 C190 0.952 . S
H193 C191 0.948 . S
H194 C183 0.952 . S
H195 C185 0.948 . S
C196 C162 1.395 . S
C196 C166 1.391 . S
C197 C159 1.389 . S
C197 C179 1.392 . S
C198 C169 1.392 . S
C198 C171 1.389 . S
C199 C174 1.395 . S
C199 C176 1.391 . S
H200 C160 0.951 . S
H201 C161 0.950 . S
H202 C167 0.949 . S
H203 C168 0.950 . S
H204 C172 0.951 . S
H205 C173 0.950 . S
H206 C177 0.949 . S
H207 C178 0.950 . S
H208 C182 0.950 . S
H209 C184 0.950 . S
H210 C187 0.950 . S
H211 C189 0.950 . S
C212 C213 1.443 . S
C212 N216 1.376 1_565 S
C212 C250 1.389 . S
C213 C212 1.443 . S
C213 C214 1.340 1_565 S
C213 H253 0.951 . S
C214 C213 1.340 1_545 S
C214 C215 1.439 . S
C214 H254 0.950 . S
C215 C214 1.439 . S
C215 N216 1.374 . S
C215 C249 1.395 . S
N216 C212 1.376 1_545 S
N216 C215 1.374 . S
N216 Co217 2.030 . S
Co217 N216 2.030 . S
Co217 N218 2.001 . S
Co217 N223 1.987 1_554 S
Co217 N228 1.988 1_544 S
Co217 N233 2.274 1_554 S
Co217 N239 2.291 1_545 S
N218 Co217 2.001 . S
N218 C219 1.376 . S
N218 C222 1.383 1_554 S
C219 N218 1.376 . S
C219 C220 1.446 . S
C219 C249 1.391 . S
C220 C219 1.446 . S
C220 C221 1.339 . S
C220 H255 0.949 . S
C221 C220 1.339 . S
C221 C222 1.439 1_554 S
C221 H256 0.950 1_554 S
C222 N218 1.383 1_556 S
C222 C221 1.439 1_556 S
C222 C251 1.392 . S
N223 Co217 1.987 1_556 S
N223 C224 1.376 . S
N223 C227 1.374 1_545 S
C224 N223 1.376 . S
C224 C225 1.443 . S
C224 C251 1.389 . S
C225 C224 1.443 . S
C225 C226 1.340 . S
C225 H257 0.951 . S
C226 C225 1.340 . S
C226 C227 1.439 1_545 S
C226 H258 0.950 1_545 S
C227 N223 1.374 1_565 S
C227 C226 1.439 1_565 S
C227 C252 1.395 . S
N228 Co217 1.988 1_566 S
N228 C229 1.376 . S
N228 C232 1.383 1_556 S
C229 N228 1.376 . S
C229 C230 1.446 . S
C229 C252 1.391 . S
C230 C229 1.446 . S
C230 C231 1.339 . S
C230 H259 0.949 . S
C231 C230 1.339 . S
C231 C232 1.439 1_556 S
C231 H260 0.950 1_556 S
C232 N228 1.383 1_554 S
C232 C231 1.439 1_554 S
C232 C250 1.392 . S
N233 Co217 2.274 1_556 S
N233 C236 1.332 . S
N233 C238 1.332 . S
C234 C235 1.386 . S
C234 C237 1.388 . S
C235 C234 1.386 . S
C235 C236 1.382 . S
C235 H261 0.950 . S
C236 N233 1.332 . S
C236 C235 1.382 . S
C236 H247 0.952 . S
C237 C234 1.388 . S
C237 C238 1.382 . S
C237 H262 0.950 . S
C238 N233 1.332 . S
C238 C237 1.382 . S
C238 H248 0.948 1_556 S
N239 Co217 2.291 1_565 S
N239 C243 1.332 . S
N239 C244 1.332 . S
C240 C241 1.388 . S
C240 C244 1.382 . S
C240 H263 0.950 . S
C241 C240 1.388 . S
C241 C242 1.386 . S
C242 C241 1.386 . S
C242 C243 1.382 . S
C242 H264 0.950 . S
C243 N239 1.332 . S
C243 C242 1.382 . S
C243 H245 0.952 1_565 S
C244 N239 1.332 . S
C244 C240 1.382 . S
C244 H246 0.948 1_554 S
H245 C243 0.952 1_545 S
H246 C244 0.948 1_556 S
H247 C236 0.952 . S
H248 C238 0.948 1_554 S
C249 C215 1.395 . S
C249 C219 1.391 . S
C250 C212 1.389 . S
C250 C232 1.392 . S
C251 C222 1.392 . S
C251 C224 1.389 . S
C252 C227 1.395 . S
C252 C229 1.391 . S
H253 C213 0.951 . S
H254 C214 0.950 . S
H255 C220 0.949 . S
H256 C221 0.950 1_556 S
H257 C225 0.951 . S
H258 C226 0.950 1_565 S
H259 C230 0.949 . S
H260 C231 0.950 1_554 S
H261 C235 0.950 . S
H262 C237 0.950 . S
H263 C240 0.950 . S
H264 C242 0.950 . S
C265 C266 1.443 . S
C265 N269 1.376 . S
C265 C303 1.389 . S
C266 C265 1.443 . S
C266 C267 1.340 . S
C266 H306 0.951 . S
C267 C266 1.340 . S
C267 C268 1.439 . S
C267 H307 0.950 . S
C268 C267 1.439 . S
C268 N269 1.374 . S
C268 C302 1.395 . S
N269 C265 1.376 . S
N269 C268 1.374 . S
N269 Co270 2.008 . S
Co270 N269 2.008 . S
Co270 N271 1.995 . S
Co270 N276 2.008 . S
Co270 N281 1.995 . S
Co270 N286 2.282 . S
Co270 N292 2.282 . S
N271 Co270 1.995 . S
N271 C272 1.376 . S
N271 C275 1.383 . S
C272 N271 1.376 . S
C272 C273 1.446 . S
C272 C302 1.391 . S
C273 C272 1.446 . S
C273 C274 1.339 . S
C273 H308 0.949 . S
C274 C273 1.339 . S
C274 C275 1.439 . S
C274 H309 0.950 . S
C275 N271 1.383 . S
C275 C274 1.439 . S
C275 C304 1.392 . S
N276 Co270 2.008 . S
N276 C277 1.376 . S
N276 C280 1.374 . S
C277 N276 1.376 . S
C277 C278 1.443 . S
C277 C304 1.389 . S
C278 C277 1.443 . S
C278 C279 1.340 . S
C278 H310 0.951 . S
C279 C278 1.340 . S
C279 C280 1.439 . S
C279 H311 0.950 . S
C280 N276 1.374 . S
C280 C279 1.439 . S
C280 C305 1.395 . S
N281 Co270 1.995 . S
N281 C282 1.376 . S
N281 C285 1.383 . S
C282 N281 1.376 . S
C282 C283 1.446 . S
C282 C305 1.391 . S
C283 C282 1.446 . S
C283 C284 1.339 . S
C283 H312 0.949 . S
C284 C283 1.339 . S
C284 C285 1.439 . S
C284 H313 0.950 . S
C285 N281 1.383 . S
C285 C284 1.439 . S
C285 C303 1.392 . S
N286 Co270 2.282 . S
N286 C289 1.332 . S
N286 C291 1.332 . S
C287 C288 1.386 . S
C287 C290 1.388 . S
C288 C287 1.386 . S
C288 C289 1.382 . S
C288 H314 0.950 . S
C289 N286 1.332 . S
C289 C288 1.382 . S
C289 H300 0.952 . S
C290 C287 1.388 . S
C290 C291 1.382 . S
C290 H315 0.950 . S
C291 N286 1.332 . S
C291 C290 1.382 . S
C291 H301 0.948 . S
N292 Co270 2.282 . S
N292 C296 1.332 . S
N292 C297 1.332 . S
C293 C294 1.388 . S
C293 C297 1.382 . S
C293 H316 0.950 . S
C294 C293 1.388 . S
C294 C295 1.386 . S
C295 C294 1.386 . S
C295 C296 1.382 . S
C295 H317 0.950 . S
C296 N292 1.332 . S
C296 C295 1.382 . S
C296 H298 0.952 . S
C297 N292 1.332 . S
C297 C293 1.382 . S
C297 H299 0.948 . S
H298 C296 0.952 . S
H299 C297 0.948 . S
H300 C289 0.952 . S
H301 C291 0.948 . S
C302 C268 1.395 . S
C302 C272 1.391 . S
C303 C265 1.389 . S
C303 C285 1.392 . S
C304 C275 1.392 . S
C304 C277 1.389 . S
C305 C280 1.395 . S
C305 C282 1.391 . S
H306 C266 0.951 . S
H307 C267 0.950 . S
H308 C273 0.949 . S
H309 C274 0.950 . S
H310 C278 0.951 . S
H311 C279 0.950 . S
H312 C283 0.949 . S
H313 C284 0.950 . S
H314 C288 0.950 . S
H315 C290 0.950 . S
H316 C293 0.950 . S
H317 C295 0.950 . S
H318 C326 0.930 . S
H319 C329 0.930 . S
H320 C331 0.930 . S
H321 C332 0.970 . S
H322 C332 0.970 . S
H323 C334 0.930 . S
H324 C336 0.930 . S
H325 C338 0.930 . S
C326 H318 0.930 . S
C326 C327 1.382 . S
C326 C328 1.426 . S
C327 C326 1.382 . S
C327 C331 1.389 . S
C328 C326 1.426 . S
C328 C329 1.375 . S
C328 C332 1.532 . S
C329 H319 0.930 . S
C329 C328 1.375 . S
C329 C330 1.416 . S
C330 C329 1.416 . S
C330 C331 1.371 . S
C331 H320 0.930 . S
C331 C327 1.389 . S
C331 C330 1.371 . S
C332 H321 0.970 . S
C332 H322 0.970 . S
C332 C328 1.532 . S
C332 C333 1.499 . S
C333 C332 1.499 . S
C333 C334 1.370 . S
C333 C338 1.415 . S
C334 H323 0.930 . S
C334 C333 1.370 . S
C334 C335 1.407 . S
C335 C334 1.407 . S
C335 C336 1.365 . S
C336 H324 0.930 . S
C336 C335 1.365 . S
C336 C337 1.393 . S
C337 C336 1.393 . S
C337 C338 1.387 . S
C338 H325 0.930 . S
C338 C333 1.415 . S
C338 C337 1.387 . S
H339 C347 0.930 . S
H340 C350 0.930 . S
H341 C352 0.930 . S
H342 C353 0.970 . S
H343 C353 0.970 . S
H344 C355 0.930 . S
H345 C357 0.930 . S
H346 C359 0.930 . S
C347 H339 0.930 . S
C347 C348 1.382 . S
C347 C349 1.426 . S
C348 C347 1.382 . S
C348 C352 1.389 . S
C349 C347 1.426 . S
C349 C350 1.375 . S
C349 C353 1.532 . S
C350 H340 0.930 . S
C350 C349 1.375 . S
C350 C351 1.416 . S
C351 C350 1.416 . S
C351 C352 1.371 . S
C352 H341 0.930 . S
C352 C348 1.389 . S
C352 C351 1.371 . S
C353 H342 0.970 . S
C353 H343 0.970 . S
C353 C349 1.532 . S
C353 C354 1.499 . S
C354 C353 1.499 . S
C354 C355 1.370 . S
C354 C359 1.415 . S
C355 H344 0.930 . S
C355 C354 1.370 . S
C355 C356 1.407 . S
C356 C355 1.407 . S
C356 C357 1.365 . S
C357 H345 0.930 . S
C357 C356 1.365 . S
C357 C358 1.393 . S
C358 C357 1.393 . S
C358 C359 1.387 . S
C359 H346 0.930 . S
C359 C354 1.415 . S
C359 C358 1.387 . S
H360 C368 0.930 . S
H361 C371 0.930 . S
H362 C373 0.930 . S
H363 C374 0.970 . S
H364 C374 0.970 . S
H365 C376 0.930 . S
H366 C378 0.930 . S
H367 C380 0.930 . S
C368 H360 0.930 . S
C368 C369 1.382 . S
C368 C370 1.426 . S
C369 C368 1.382 . S
C369 C373 1.389 . S
C370 C368 1.426 . S
C370 C371 1.375 . S
C370 C374 1.532 . S
C371 H361 0.930 . S
C371 C370 1.375 . S
C371 C372 1.416 . S
C372 C371 1.416 . S
C372 C373 1.371 . S
C373 H362 0.930 . S
C373 C369 1.389 . S
C373 C372 1.371 . S
C374 H363 0.970 . S
C374 H364 0.970 . S
C374 C370 1.532 . S
C374 C375 1.499 . S
C375 C374 1.499 . S
C375 C376 1.370 . S
C375 C380 1.415 . S
C376 H365 0.930 . S
C376 C375 1.370 . S
C376 C377 1.407 . S
C377 C376 1.407 . S
C377 C378 1.365 . S
C378 H366 0.930 . S
C378 C377 1.365 . S
C378 C379 1.393 . S
C379 C378 1.393 . S
C379 C380 1.387 . S
C380 H367 0.930 . S
C380 C375 1.415 . S
C380 C379 1.387 . S
H381 C389 0.930 . S
H382 C392 0.930 . S
H383 C394 0.930 . S
H384 C395 0.970 . S
H385 C395 0.970 . S
H386 C397 0.930 . S
H387 C399 0.930 . S
H388 C401 0.930 . S
C389 H381 0.930 . S
C389 C390 1.382 . S
C389 C391 1.426 . S
C390 C389 1.382 . S
C390 C394 1.389 . S
C391 C389 1.426 . S
C391 C392 1.375 . S
C391 C395 1.532 . S
C392 H382 0.930 . S
C392 C391 1.375 . S
C392 C393 1.416 . S
C393 C392 1.416 . S
C393 C394 1.371 . S
C394 H383 0.930 . S
C394 C390 1.389 . S
C394 C393 1.371 . S
C395 H384 0.970 . S
C395 H385 0.970 . S
C395 C391 1.532 . S
C395 C396 1.499 . S
C396 C395 1.499 . S
C396 C397 1.370 . S
C396 C401 1.415 . S
C397 H386 0.930 . S
C397 C396 1.370 . S
C397 C398 1.407 . S
C398 C397 1.407 . S
C398 C399 1.365 . S
C399 H387 0.930 . S
C399 C398 1.365 . S
C399 C400 1.393 . S
C400 C399 1.393 . S
C400 C401 1.387 . S
C401 H388 0.930 . S
C401 C396 1.415 . S
C401 C400 1.387 . S
H402 C410 0.930 . S
H403 C413 0.930 . S
H404 C415 0.930 . S
H405 C416 0.970 . S
H406 C416 0.970 . S
H407 C418 0.930 . S
H408 C420 0.930 . S
H409 C422 0.930 . S
C410 H402 0.930 . S
C410 C411 1.382 . S
C410 C412 1.426 . S
C411 C410 1.382 . S
C411 C415 1.389 . S
C412 C410 1.426 . S
C412 C413 1.375 . S
C412 C416 1.532 . S
C413 H403 0.930 . S
C413 C412 1.375 . S
C413 C414 1.416 . S
C414 C413 1.416 . S
C414 C415 1.371 . S
C415 H404 0.930 . S
C415 C411 1.389 . S
C415 C414 1.371 . S
C416 H405 0.970 . S
C416 H406 0.970 . S
C416 C412 1.532 . S
C416 C417 1.499 . S
C417 C416 1.499 . S
C417 C418 1.370 . S
C417 C422 1.415 . S
C418 H407 0.930 . S
C418 C417 1.370 . S
C418 C419 1.407 . S
C419 C418 1.407 . S
C419 C420 1.365 . S
C420 H408 0.930 . S
C420 C419 1.365 . S
C420 C421 1.393 . S
C421 C420 1.393 . S
C421 C422 1.387 . S
C422 H409 0.930 . S
C422 C417 1.415 . S
C422 C421 1.387 . S
H423 C431 0.930 . S
H424 C434 0.930 . S
H425 C436 0.930 . S
H426 C437 0.970 . S
H427 C437 0.970 . S
H428 C439 0.930 . S
H429 C441 0.930 . S
H430 C443 0.930 . S
C431 H423 0.930 . S
C431 C432 1.382 . S
C431 C433 1.426 . S
C432 C431 1.382 . S
C432 C436 1.389 . S
C433 C431 1.426 . S
C433 C434 1.375 . S
C433 C437 1.532 . S
C434 H424 0.930 . S
C434 C433 1.375 . S
C434 C435 1.416 . S
C435 C434 1.416 . S
C435 C436 1.371 . S
C436 H425 0.930 . S
C436 C432 1.389 . S
C436 C435 1.371 . S
C437 H426 0.970 . S
C437 H427 0.970 . S
C437 C433 1.532 . S
C437 C438 1.499 . S
C438 C437 1.499 . S
C438 C439 1.370 . S
C438 C443 1.415 . S
C439 H428 0.930 . S
C439 C438 1.370 . S
C439 C440 1.407 . S
C440 C439 1.407 . S
C440 C441 1.365 . S
C441 H429 0.930 . S
C441 C440 1.365 . S
C441 C442 1.393 . S
C442 C441 1.393 . S
C442 C443 1.387 . S
C443 H430 0.930 . S
C443 C438 1.415 . S
C443 C442 1.387 . S
H444 C462 0.951 . S
H445 C464 0.951 . S
H446 C466 0.950 . S
H447 C467 0.950 . S
H448 C469 0.950 . S
H449 C472 0.950 . S
H450 C473 0.950 . S
H451 C475 0.950 1_556 S
H452 C476 0.950 . S
H453 C477 0.951 . S
H454 C479 0.951 . S
H455 C481 0.950 . S
H456 C482 0.950 . S
H457 C484 0.950 . S
H458 C487 0.950 . S
H459 C488 0.950 . S
H460 C490 0.950 . S
H461 C491 0.950 . S
C462 H444 0.951 . S
C462 C463 1.366 . S
C462 C464 1.388 . S
C463 C462 1.366 . S
C463 C467 1.385 . S
C464 H445 0.951 . S
C464 C462 1.388 . S
C464 C465 1.366 . S
C465 C464 1.366 . S
C465 C466 1.414 . S
C465 C468 1.499 . S
C466 H446 0.950 . S
C466 C465 1.414 . S
C466 C467 1.374 . S
C467 H447 0.950 . S
C467 C463 1.385 . S
C467 C466 1.374 . S
C468 C465 1.499 . S
C468 C469 1.373 . S
C468 C470 1.389 . S
C469 H448 0.950 . S
C469 C468 1.373 . S
C469 C485 1.377 . S
C470 C468 1.389 . S
C470 C471 1.524 . S
C470 C484 1.377 . S
C471 C470 1.524 . S
C471 C472 1.397 . S
C471 C476 1.363 . S
C472 H449 0.950 . S
C472 C471 1.397 . S
C472 C473 1.334 1_554 S
C473 H450 0.950 . S
C473 C472 1.334 1_556 S
C473 C474 1.287 . S
C474 C473 1.287 . S
C474 C475 1.524 1_556 S
C474 H493 0.913 . S
C475 H451 0.950 1_554 S
C475 C474 1.524 1_554 S
C475 C476 1.415 . S
C476 H452 0.950 . S
C476 C471 1.363 . S
C476 C475 1.415 . S
C477 H453 0.951 . S
C477 C478 1.366 . S
C477 C479 1.388 . S
C478 C477 1.366 . S
C478 C482 1.385 . S
C479 H454 0.951 . S
C479 C477 1.388 . S
C479 C480 1.366 . S
C480 C479 1.366 . S
C480 C481 1.414 . S
C480 C483 1.499 . S
C481 H455 0.950 . S
C481 C480 1.414 . S
C481 C482 1.374 . S
C482 H456 0.950 . S
C482 C478 1.385 . S
C482 C481 1.374 . S
C483 C480 1.499 . S
C483 C484 1.373 . S
C483 C485 1.389 . S
C484 H457 0.950 . S
C484 C470 1.377 . S
C484 C483 1.373 . S
C485 C469 1.377 . S
C485 C483 1.389 . S
C485 C486 1.524 . S
C486 C485 1.524 . S
C486 C487 1.397 . S
C486 C491 1.363 . S
C487 H458 0.950 . S
C487 C486 1.397 . S
C487 C488 1.334 . S
C488 H459 0.950 . S
C488 C487 1.334 . S
C488 C489 1.287 . S
C489 C488 1.287 . S
C489 C490 1.524 . S
C489 H492 0.999 . S
C490 H460 0.950 . S
C490 C489 1.524 . S
C490 C491 1.415 . S
C491 H461 0.950 . S
C491 C486 1.363 . S
C491 C490 1.415 . S
H492 C489 0.999 . S
H493 C474 0.913 . S
H494 C512 0.951 . S
H495 C514 0.951 . S
H496 C516 0.950 . S
H497 C517 0.950 . S
H498 C519 0.950 . S
H499 C522 0.950 . S
H500 C523 0.950 . S
H501 C525 0.950 . S
H502 C526 0.950 . S
H503 C527 0.951 . S
H504 C529 0.951 . S
H505 C531 0.950 . S
H506 C532 0.950 . S
H507 C534 0.950 . S
H508 C537 0.950 . S
H509 C538 0.950 . S
H510 C540 0.950 . S
H511 C541 0.950 . S
C512 H494 0.951 . S
C512 C513 1.366 . S
C512 C514 1.388 . S
C513 C512 1.366 . S
C513 C517 1.385 . S
C514 H495 0.951 . S
C514 C512 1.388 . S
C514 C515 1.366 . S
C515 C514 1.366 . S
C515 C516 1.414 . S
C515 C518 1.499 . S
C516 H496 0.950 . S
C516 C515 1.414 . S
C516 C517 1.374 . S
C517 H497 0.950 . S
C517 C513 1.385 . S
C517 C516 1.374 . S
C518 C515 1.499 . S
C518 C519 1.373 . S
C518 C520 1.389 . S
C519 H498 0.950 . S
C519 C518 1.373 . S
C519 C535 1.377 . S
C520 C518 1.389 . S
C520 C521 1.524 . S
C520 C534 1.377 . S
C521 C520 1.524 . S
C521 C522 1.397 . S
C521 C526 1.363 . S
C522 H499 0.950 . S
C522 C521 1.397 . S
C522 C523 1.334 . S
C523 H500 0.950 . S
C523 C522 1.334 . S
C523 C524 1.287 . S
C524 C523 1.287 . S
C524 C525 1.524 . S
C524 H543 0.913 . S
C525 H501 0.950 . S
C525 C524 1.524 . S
C525 C526 1.415 . S
C526 H502 0.950 . S
C526 C521 1.363 . S
C526 C525 1.415 . S
C527 H503 0.951 . S
C527 C528 1.366 . S
C527 C529 1.388 . S
C528 C527 1.366 . S
C528 C532 1.385 . S
C529 H504 0.951 . S
C529 C527 1.388 . S
C529 C530 1.366 . S
C530 C529 1.366 . S
C530 C531 1.414 . S
C530 C533 1.499 . S
C531 H505 0.950 . S
C531 C530 1.414 . S
C531 C532 1.374 . S
C532 H506 0.950 . S
C532 C528 1.385 . S
C532 C531 1.374 . S
C533 C530 1.499 . S
C533 C534 1.373 . S
C533 C535 1.389 . S
C534 H507 0.950 . S
C534 C520 1.377 . S
C534 C533 1.373 . S
C535 C519 1.377 . S
C535 C533 1.389 . S
C535 C536 1.524 . S
C536 C535 1.524 . S
C536 C537 1.397 . S
C536 C541 1.363 . S
C537 H508 0.950 . S
C537 C536 1.397 . S
C537 C538 1.334 . S
C538 H509 0.950 . S
C538 C537 1.334 . S
C538 C539 1.287 . S
C539 C538 1.287 . S
C539 C540 1.524 . S
C539 H542 0.999 . S
C540 H510 0.950 . S
C540 C539 1.524 . S
C540 C541 1.415 . S
C541 H511 0.950 . S
C541 C536 1.363 . S
C541 C540 1.415 . S
H542 C539 0.999 . S
H543 C524 0.913 . S
H544 C562 0.951 . S
H545 C564 0.951 . S
H546 C566 0.950 . S
H547 C567 0.950 . S
H548 C569 0.950 . S
H549 C572 0.950 . S
H550 C573 0.950 . S
H551 C575 0.950 . S
H552 C576 0.950 . S
H553 C577 0.951 . S
H554 C579 0.951 . S
H555 C581 0.950 . S
H556 C582 0.950 . S
H557 C584 0.950 . S
H558 C587 0.950 . S
H559 C588 0.950 . S
H560 C590 0.950 . S
H561 C591 0.950 . S
C562 H544 0.951 . S
C562 C563 1.366 . S
C562 C564 1.388 . S
C563 C562 1.366 . S
C563 C567 1.385 . S
C564 H545 0.951 . S
C564 C562 1.388 . S
C564 C565 1.366 . S
C565 C564 1.366 . S
C565 C566 1.414 . S
C565 C568 1.499 . S
C566 H546 0.950 . S
C566 C565 1.414 . S
C566 C567 1.374 . S
C567 H547 0.950 . S
C567 C563 1.385 . S
C567 C566 1.374 . S
C568 C565 1.499 . S
C568 C569 1.373 . S
C568 C570 1.389 . S
C569 H548 0.950 . S
C569 C568 1.373 . S
C569 C585 1.377 . S
C570 C568 1.389 . S
C570 C571 1.524 . S
C570 C584 1.377 . S
C571 C570 1.524 . S
C571 C572 1.397 . S
C571 C576 1.363 . S
C572 H549 0.950 . S
C572 C571 1.397 . S
C572 C573 1.334 . S
C573 H550 0.950 . S
C573 C572 1.334 . S
C573 C574 1.287 . S
C574 C573 1.287 . S
C574 C575 1.524 . S
C574 H593 0.913 . S
C575 H551 0.950 . S
C575 C574 1.524 . S
C575 C576 1.415 . S
C576 H552 0.950 . S
C576 C571 1.363 . S
C576 C575 1.415 . S
C577 H553 0.951 . S
C577 C578 1.366 . S
C577 C579 1.388 . S
C578 C577 1.366 . S
C578 C582 1.385 . S
C579 H554 0.951 . S
C579 C577 1.388 . S
C579 C580 1.366 . S
C580 C579 1.366 . S
C580 C581 1.414 . S
C580 C583 1.499 . S
C581 H555 0.950 . S
C581 C580 1.414 . S
C581 C582 1.374 . S
C582 H556 0.950 . S
C582 C578 1.385 . S
C582 C581 1.374 . S
C583 C580 1.499 . S
C583 C584 1.373 . S
C583 C585 1.389 . S
C584 H557 0.950 . S
C584 C570 1.377 . S
C584 C583 1.373 . S
C585 C569 1.377 . S
C585 C583 1.389 . S
C585 C586 1.524 . S
C586 C585 1.524 . S
C586 C587 1.397 . S
C586 C591 1.363 . S
C587 H558 0.950 . S
C587 C586 1.397 . S
C587 C588 1.334 . S
C588 H559 0.950 . S
C588 C587 1.334 . S
C588 C589 1.287 . S
C589 C588 1.287 . S
C589 C590 1.524 . S
C589 H592 0.999 . S
C590 H560 0.950 . S
C590 C589 1.524 . S
C590 C591 1.415 . S
C591 H561 0.950 . S
C591 C586 1.363 . S
C591 C590 1.415 . S
H592 C589 0.999 . S
H593 C574 0.913 . S
H594 C612 0.951 . S
H595 C614 0.951 . S
H596 C616 0.950 . S
H597 C617 0.950 . S
H598 C619 0.950 . S
H599 C622 0.950 . S
H600 C623 0.950 . S
H601 C625 0.950 . S
H602 C626 0.950 . S
H603 C627 0.951 . S
H604 C629 0.951 . S
H605 C631 0.950 . S
H606 C632 0.950 . S
H607 C634 0.950 . S
H608 C637 0.950 . S
H609 C638 0.950 . S
H610 C640 0.950 . S
H611 C641 0.950 . S
C612 H594 0.951 . S
C612 C613 1.366 . S
C612 C614 1.388 . S
C613 C612 1.366 . S
C613 C617 1.385 . S
C614 H595 0.951 . S
C614 C612 1.388 . S
C614 C615 1.366 . S
C615 C614 1.366 . S
C615 C616 1.414 . S
C615 C618 1.499 . S
C616 H596 0.950 . S
C616 C615 1.414 . S
C616 C617 1.374 . S
C617 H597 0.950 . S
C617 C613 1.385 . S
C617 C616 1.374 . S
C618 C615 1.499 . S
C618 C619 1.373 . S
C618 C620 1.389 . S
C619 H598 0.950 . S
C619 C618 1.373 . S
C619 C635 1.377 . S
C620 C618 1.389 . S
C620 C621 1.524 . S
C620 C634 1.377 . S
C621 C620 1.524 . S
C621 C622 1.397 . S
C621 C626 1.363 . S
C622 H599 0.950 . S
C622 C621 1.397 . S
C622 C623 1.334 . S
C623 H600 0.950 . S
C623 C622 1.334 . S
C623 C624 1.287 . S
C624 C623 1.287 . S
C624 C625 1.524 . S
C624 H643 0.913 . S
C625 H601 0.950 . S
C625 C624 1.524 . S
C625 C626 1.415 . S
C626 H602 0.950 . S
C626 C621 1.363 . S
C626 C625 1.415 . S
C627 H603 0.951 . S
C627 C628 1.366 . S
C627 C629 1.388 . S
C628 C627 1.366 . S
C628 C632 1.385 . S
C629 H604 0.951 . S
C629 C627 1.388 . S
C629 C630 1.366 . S
C630 C629 1.366 . S
C630 C631 1.414 . S
C630 C633 1.499 . S
C631 H605 0.950 . S
C631 C630 1.414 . S
C631 C632 1.374 . S
C632 H606 0.950 . S
C632 C628 1.385 . S
C632 C631 1.374 . S
C633 C630 1.499 . S
C633 C634 1.373 . S
C633 C635 1.389 . S
C634 H607 0.950 . S
C634 C620 1.377 . S
C634 C633 1.373 . S
C635 C619 1.377 . S
C635 C633 1.389 . S
C635 C636 1.524 . S
C636 C635 1.524 . S
C636 C637 1.397 . S
C636 C641 1.363 . S
C637 H608 0.950 . S
C637 C636 1.397 . S
C637 C638 1.334 . S
C638 H609 0.950 . S
C638 C637 1.334 . S
C638 C639 1.287 . S
C639 C638 1.287 . S
C639 C640 1.524 . S
C639 H642 0.999 . S
C640 H610 0.950 . S
C640 C639 1.524 . S
C640 C641 1.415 . S
C641 H611 0.950 . S
C641 C636 1.363 . S
C641 C640 1.415 . S
H642 C639 0.999 . S
H643 C624 0.913 . S
H644 C662 0.951 . S
H645 C664 0.951 . S
H646 C666 0.950 . S
H647 C667 0.950 . S
H648 C669 0.950 . S
H649 C672 0.950 . S
H650 C673 0.950 . S
H651 C675 0.950 . S
H652 C676 0.950 . S
H653 C677 0.951 . S
H654 C679 0.951 . S
H655 C681 0.950 . S
H656 C682 0.950 . S
H657 C684 0.950 . S
H658 C687 0.950 . S
H659 C688 0.950 . S
H660 C690 0.950 . S
H661 C691 0.950 . S
C662 H644 0.951 . S
C662 C663 1.366 . S
C662 C664 1.388 . S
C663 C662 1.366 . S
C663 C667 1.385 . S
C664 H645 0.951 . S
C664 C662 1.388 . S
C664 C665 1.366 . S
C665 C664 1.366 . S
C665 C666 1.414 . S
C665 C668 1.499 . S
C666 H646 0.950 . S
C666 C665 1.414 . S
C666 C667 1.374 . S
C667 H647 0.950 . S
C667 C663 1.385 . S
C667 C666 1.374 . S
C668 C665 1.499 . S
C668 C669 1.373 . S
C668 C670 1.389 . S
C669 H648 0.950 . S
C669 C668 1.373 . S
C669 C685 1.377 . S
C670 C668 1.389 . S
C670 C671 1.524 . S
C670 C684 1.377 . S
C671 C670 1.524 . S
C671 C672 1.397 . S
C671 C676 1.363 . S
C672 H649 0.950 . S
C672 C671 1.397 . S
C672 C673 1.334 . S
C673 H650 0.950 . S
C673 C672 1.334 . S
C673 C674 1.287 . S
C674 C673 1.287 . S
C674 C675 1.524 . S
C674 H693 0.913 . S
C675 H651 0.950 . S
C675 C674 1.524 . S
C675 C676 1.415 . S
C676 H652 0.950 . S
C676 C671 1.363 . S
C676 C675 1.415 . S
C677 H653 0.951 . S
C677 C678 1.366 . S
C677 C679 1.388 . S
C678 C677 1.366 . S
C678 C682 1.385 . S
C679 H654 0.951 . S
C679 C677 1.388 . S
C679 C680 1.366 . S
C680 C679 1.366 . S
C680 C681 1.414 . S
C680 C683 1.499 . S
C681 H655 0.950 . S
C681 C680 1.414 . S
C681 C682 1.374 . S
C682 H656 0.950 . S
C682 C678 1.385 . S
C682 C681 1.374 . S
C683 C680 1.499 . S
C683 C684 1.373 . S
C683 C685 1.389 . S
C684 H657 0.950 . S
C684 C670 1.377 . S
C684 C683 1.373 . S
C685 C669 1.377 . S
C685 C683 1.389 . S
C685 C686 1.524 . S
C686 C685 1.524 . S
C686 C687 1.397 . S
C686 C691 1.363 . S
C687 H658 0.950 . S
C687 C686 1.397 . S
C687 C688 1.334 . S
C688 H659 0.950 . S
C688 C687 1.334 . S
C688 C689 1.287 . S
C689 C688 1.287 . S
C689 C690 1.524 . S
C689 H692 0.999 . S
C690 H660 0.950 . S
C690 C689 1.524 . S
C690 C691 1.415 . S
C691 H661 0.950 . S
C691 C686 1.363 . S
C691 C690 1.415 . S
H692 C689 0.999 . S
H693 C674 0.913 . S
H694 C712 0.951 . S
H695 C714 0.951 . S
H696 C716 0.950 . S
H697 C717 0.950 . S
H698 C719 0.950 . S
H699 C722 0.950 . S
H700 C723 0.950 . S
H701 C725 0.950 . S
H702 C726 0.950 . S
H703 C727 0.951 . S
H704 C729 0.951 . S
H705 C731 0.950 . S
H706 C732 0.950 . S
H707 C734 0.950 . S
H708 C737 0.950 . S
H709 C738 0.950 . S
H710 C740 0.950 . S
H711 C741 0.950 . S
C712 H694 0.951 . S
C712 C713 1.366 . S
C712 C714 1.388 . S
C713 C712 1.366 . S
C713 C717 1.385 . S
C714 H695 0.951 . S
C714 C712 1.388 . S
C714 C715 1.366 . S
C715 C714 1.366 . S
C715 C716 1.414 . S
C715 C718 1.499 . S
C716 H696 0.950 . S
C716 C715 1.414 . S
C716 C717 1.374 . S
C717 H697 0.950 . S
C717 C713 1.385 . S
C717 C716 1.374 . S
C718 C715 1.499 . S
C718 C719 1.373 . S
C718 C720 1.389 . S
C719 H698 0.950 . S
C719 C718 1.373 . S
C719 C735 1.377 . S
C720 C718 1.389 . S
C720 C721 1.524 . S
C720 C734 1.377 . S
C721 C720 1.524 . S
C721 C722 1.397 . S
C721 C726 1.363 . S
C722 H699 0.950 . S
C722 C721 1.397 . S
C722 C723 1.334 . S
C723 H700 0.950 . S
C723 C722 1.334 . S
C723 C724 1.287 . S
C724 C723 1.287 . S
C724 C725 1.524 . S
C724 H743 0.913 . S
C725 H701 0.950 . S
C725 C724 1.524 . S
C725 C726 1.415 . S
C726 H702 0.950 . S
C726 C721 1.363 . S
C726 C725 1.415 . S
C727 H703 0.951 . S
C727 C728 1.366 . S
C727 C729 1.388 . S
C728 C727 1.366 . S
C728 C732 1.385 . S
C729 H704 0.951 . S
C729 C727 1.388 . S
C729 C730 1.366 . S
C730 C729 1.366 . S
C730 C731 1.414 . S
C730 C733 1.499 . S
C731 H705 0.950 . S
C731 C730 1.414 . S
C731 C732 1.374 . S
C732 H706 0.950 . S
C732 C728 1.385 . S
C732 C731 1.374 . S
C733 C730 1.499 . S
C733 C734 1.373 . S
C733 C735 1.389 . S
C734 H707 0.950 . S
C734 C720 1.377 . S
C734 C733 1.373 . S
C735 C719 1.377 . S
C735 C733 1.389 . S
C735 C736 1.524 . S
C736 C735 1.524 . S
C736 C737 1.397 . S
C736 C741 1.363 . S
C737 H708 0.950 . S
C737 C736 1.397 . S
C737 C738 1.334 . S
C738 H709 0.950 . S
C738 C737 1.334 . S
C738 C739 1.287 . S
C739 C738 1.287 . S
C739 C740 1.524 . S
C739 H742 0.999 . S
C740 H710 0.950 . S
C740 C739 1.524 . S
C740 C741 1.415 . S
C741 H711 0.950 . S
C741 C736 1.363 . S
C741 C740 1.415 . S
H742 C739 0.999 . S
H743 C724 0.913 . S
H744 C762 0.951 . S
H745 C764 0.951 . S
H746 C766 0.950 . S
H747 C767 0.950 . S
H748 C769 0.950 . S
H749 C772 0.950 . S
H750 C773 0.950 . S
H751 C775 0.950 . S
H752 C776 0.950 . S
H753 C777 0.951 . S
H754 C779 0.951 . S
H755 C781 0.950 . S
H756 C782 0.950 . S
H757 C784 0.950 . S
H758 C787 0.950 . S
H759 C788 0.950 . S
H760 C790 0.950 . S
H761 C791 0.950 . S
C762 H744 0.951 . S
C762 C763 1.366 . S
C762 C764 1.388 . S
C763 C762 1.366 . S
C763 C767 1.385 . S
C764 H745 0.951 . S
C764 C762 1.388 . S
C764 C765 1.366 . S
C765 C764 1.366 . S
C765 C766 1.414 . S
C765 C768 1.499 . S
C766 H746 0.950 . S
C766 C765 1.414 . S
C766 C767 1.374 . S
C767 H747 0.950 . S
C767 C763 1.385 . S
C767 C766 1.374 . S
C768 C765 1.499 . S
C768 C769 1.373 . S
C768 C770 1.389 . S
C769 H748 0.950 . S
C769 C768 1.373 . S
C769 C785 1.377 . S
C770 C768 1.389 . S
C770 C771 1.524 . S
C770 C784 1.377 . S
C771 C770 1.524 . S
C771 C772 1.397 . S
C771 C776 1.363 . S
C772 H749 0.950 . S
C772 C771 1.397 . S
C772 C773 1.334 . S
C773 H750 0.950 . S
C773 C772 1.334 . S
C773 C774 1.287 . S
C774 C773 1.287 . S
C774 C775 1.524 . S
C774 H793 0.913 . S
C775 H751 0.950 . S
C775 C774 1.524 . S
C775 C776 1.415 . S
C776 H752 0.950 . S
C776 C771 1.363 . S
C776 C775 1.415 . S
C777 H753 0.951 . S
C777 C778 1.366 . S
C777 C779 1.388 . S
C778 C777 1.366 . S
C778 C782 1.385 . S
C779 H754 0.951 . S
C779 C777 1.388 . S
C779 C780 1.366 . S
C780 C779 1.366 . S
C780 C781 1.414 . S
C780 C783 1.499 . S
C781 H755 0.950 . S
C781 C780 1.414 . S
C781 C782 1.374 . S
C782 H756 0.950 . S
C782 C778 1.385 . S
C782 C781 1.374 . S
C783 C780 1.499 . S
C783 C784 1.373 . S
C783 C785 1.389 . S
C784 H757 0.950 . S
C784 C770 1.377 . S
C784 C783 1.373 . S
C785 C769 1.377 . S
C785 C783 1.389 . S
C785 C786 1.524 . S
C786 C785 1.524 . S
C786 C787 1.397 . S
C786 C791 1.363 . S
C787 H758 0.950 . S
C787 C786 1.397 . S
C787 C788 1.334 . S
C788 H759 0.950 . S
C788 C787 1.334 . S
C788 C789 1.287 . S
C789 C788 1.287 . S
C789 C790 1.524 . S
C789 H792 0.999 . S
C790 H760 0.950 . S
C790 C789 1.524 . S
C790 C791 1.415 . S
C791 H761 0.950 . S
C791 C786 1.363 . S
C791 C790 1.415 . S
H792 C789 0.999 . S
H793 C774 0.913 . S
H794 C812 0.951 . S
H795 C814 0.951 . S
H796 C816 0.950 . S
H797 C817 0.950 . S
H798 C819 0.950 . S
H799 C822 0.950 . S
H800 C823 0.950 . S
H801 C825 0.950 . S
H802 C826 0.950 . S
H803 C827 0.951 . S
H804 C829 0.951 . S
H805 C831 0.950 . S
H806 C832 0.950 . S
H807 C834 0.950 . S
H808 C837 0.950 . S
H809 C838 0.950 . S
H810 C840 0.950 . S
H811 C841 0.950 . S
C812 H794 0.951 . S
C812 C813 1.366 . S
C812 C814 1.388 . S
C813 C812 1.366 . S
C813 C817 1.385 . S
C814 H795 0.951 . S
C814 C812 1.388 . S
C814 C815 1.366 . S
C815 C814 1.366 . S
C815 C816 1.414 . S
C815 C818 1.499 . S
C816 H796 0.950 . S
C816 C815 1.414 . S
C816 C817 1.374 . S
C817 H797 0.950 . S
C817 C813 1.385 . S
C817 C816 1.374 . S
C818 C815 1.499 . S
C818 C819 1.373 . S
C818 C820 1.389 . S
C819 H798 0.950 . S
C819 C818 1.373 . S
C819 C835 1.377 . S
C820 C818 1.389 . S
C820 C821 1.524 . S
C820 C834 1.377 . S
C821 C820 1.524 . S
C821 C822 1.397 . S
C821 C826 1.363 . S
C822 H799 0.950 . S
C822 C821 1.397 . S
C822 C823 1.334 . S
C823 H800 0.950 . S
C823 C822 1.334 . S
C823 C824 1.293 . S
C824 C823 1.293 . S
C824 C825 1.523 1_556 S
C824 H843 0.906 1_556 S
C825 H801 0.950 . S
C825 C824 1.523 1_554 S
C825 C826 1.415 1_554 S
C826 H802 0.950 . S
C826 C821 1.363 . S
C826 C825 1.415 1_556 S
C827 H803 0.951 . S
C827 C828 1.366 . S
C827 C829 1.388 . S
C828 C827 1.366 . S
C828 C832 1.385 . S
C829 H804 0.951 . S
C829 C827 1.388 . S
C829 C830 1.366 . S
C830 C829 1.366 . S
C830 C831 1.414 . S
C830 C833 1.499 . S
C831 H805 0.950 . S
C831 C830 1.414 . S
C831 C832 1.374 . S
C832 H806 0.950 . S
C832 C828 1.385 . S
C832 C831 1.374 . S
C833 C830 1.499 . S
C833 C834 1.373 . S
C833 C835 1.389 . S
C834 H807 0.950 . S
C834 C820 1.377 . S
C834 C833 1.373 . S
C835 C819 1.377 . S
C835 C833 1.389 . S
C835 C836 1.524 . S
C836 C835 1.524 . S
C836 C837 1.397 . S
C836 C841 1.363 . S
C837 H808 0.950 . S
C837 C836 1.397 . S
C837 C838 1.334 . S
C838 H809 0.950 . S
C838 C837 1.334 . S
C838 C839 1.287 . S
C839 C838 1.287 . S
C839 C840 1.524 . S
C839 H842 0.999 . S
C840 H810 0.950 . S
C840 C839 1.524 . S
C840 C841 1.415 . S
C841 H811 0.950 . S
C841 C836 1.363 . S
C841 C840 1.415 . S
H842 C839 0.999 . S
H843 C824 0.906 1_554 S
H844 C862 0.951 . S
H845 C864 0.951 . S
H846 C866 0.950 . S
H847 C867 0.950 . S
H848 C869 0.950 . S
H849 C872 0.950 . S
H850 C873 0.950 . S
H851 C875 0.950 . S
H852 C876 0.950 . S
H853 C877 0.951 . S
H854 C879 0.951 . S
H855 C881 0.950 . S
H856 C882 0.950 . S
H857 C884 0.950 . S
H858 C887 0.950 . S
H859 C888 0.950 . S
H860 C890 0.950 . S
H861 C891 0.950 . S
C862 H844 0.951 . S
C862 C863 1.366 . S
C862 C864 1.388 . S
C863 C862 1.366 . S
C863 C867 1.385 . S
C864 H845 0.951 . S
C864 C862 1.388 . S
C864 C865 1.366 . S
C865 C864 1.366 . S
C865 C866 1.414 . S
C865 C868 1.499 . S
C866 H846 0.950 . S
C866 C865 1.414 . S
C866 C867 1.374 . S
C867 H847 0.950 . S
C867 C863 1.385 . S
C867 C866 1.374 . S
C868 C865 1.499 . S
C868 C869 1.373 . S
C868 C870 1.389 . S
C869 H848 0.950 . S
C869 C868 1.373 . S
C869 C885 1.377 . S
C870 C868 1.389 . S
C870 C871 1.524 . S
C870 C884 1.377 . S
C871 C870 1.524 . S
C871 C872 1.397 . S
C871 C876 1.363 . S
C872 H849 0.950 . S
C872 C871 1.397 . S
C872 C873 1.334 . S
C873 H850 0.950 . S
C873 C872 1.334 . S
C873 C874 1.287 . S
C874 C873 1.287 . S
C874 C875 1.524 . S
C874 H893 0.913 . S
C875 H851 0.950 . S
C875 C874 1.524 . S
C875 C876 1.415 . S
C876 H852 0.950 . S
C876 C871 1.363 . S
C876 C875 1.415 . S
C877 H853 0.951 . S
C877 C878 1.366 . S
C877 C879 1.388 . S
C878 C877 1.366 . S
C878 C882 1.385 . S
C879 H854 0.951 . S
C879 C877 1.388 . S
C879 C880 1.366 . S
C880 C879 1.366 . S
C880 C881 1.414 . S
C880 C883 1.499 . S
C881 H855 0.950 . S
C881 C880 1.414 . S
C881 C882 1.374 . S
C882 H856 0.950 . S
C882 C878 1.385 . S
C882 C881 1.374 . S
C883 C880 1.499 . S
C883 C884 1.373 . S
C883 C885 1.389 . S
C884 H857 0.950 . S
C884 C870 1.377 . S
C884 C883 1.373 . S
C885 C869 1.377 . S
C885 C883 1.389 . S
C885 C886 1.524 . S
C886 C885 1.524 . S
C886 C887 1.397 . S
C886 C891 1.363 . S
C887 H858 0.950 . S
C887 C886 1.397 . S
C887 C888 1.334 . S
C888 H859 0.950 . S
C888 C887 1.334 . S
C888 C889 1.287 . S
C889 C888 1.287 . S
C889 C890 1.524 . S
C889 H892 0.999 . S
C890 H860 0.950 . S
C890 C889 1.524 . S
C890 C891 1.415 . S
C891 H861 0.950 . S
C891 C886 1.363 . S
C891 C890 1.415 . S
H892 C889 0.999 . S
H893 C874 0.913 . S
H894 C912 0.951 . S
H895 C914 0.951 . S
H896 C916 0.950 . S
H897 C917 0.950 . S
H898 C919 0.950 . S
H899 C922 0.950 . S
H900 C923 0.950 . S
H901 C925 0.950 . S
H902 C926 0.950 . S
H903 C927 0.951 . S
H904 C929 0.951 . S
H905 C931 0.950 . S
H906 C932 0.950 . S
H907 C934 0.950 . S
H908 C937 0.950 . S
H909 C938 0.950 . S
H910 C940 0.950 . S
H911 C941 0.950 . S
C912 H894 0.951 . S
C912 C913 1.366 . S
C912 C914 1.388 . S
C913 C912 1.366 . S
C913 C917 1.385 . S
C914 H895 0.951 . S
C914 C912 1.388 . S
C914 C915 1.366 . S
C915 C914 1.366 . S
C915 C916 1.414 . S
C915 C918 1.499 . S
C916 H896 0.950 . S
C916 C915 1.414 . S
C916 C917 1.374 . S
C917 H897 0.950 . S
C917 C913 1.385 . S
C917 C916 1.374 . S
C918 C915 1.499 . S
C918 C919 1.373 . S
C918 C920 1.389 . S
C919 H898 0.950 . S
C919 C918 1.373 . S
C919 C935 1.377 . S
C920 C918 1.389 . S
C920 C921 1.524 . S
C920 C934 1.377 . S
C921 C920 1.524 . S
C921 C922 1.397 . S
C921 C926 1.363 . S
C922 H899 0.950 . S
C922 C921 1.397 . S
C922 C923 1.334 . S
C923 H900 0.950 . S
C923 C922 1.334 . S
C923 C924 1.287 . S
C924 C923 1.287 . S
C924 C925 1.524 . S
C924 H943 0.913 . S
C925 H901 0.950 . S
C925 C924 1.524 . S
C925 C926 1.415 . S
C926 H902 0.950 . S
C926 C921 1.363 . S
C926 C925 1.415 . S
C927 H903 0.951 . S
C927 C928 1.366 . S
C927 C929 1.388 . S
C928 C927 1.366 . S
C928 C932 1.385 . S
C929 H904 0.951 . S
C929 C927 1.388 . S
C929 C930 1.366 . S
C930 C929 1.366 . S
C930 C931 1.414 . S
C930 C933 1.499 . S
C931 H905 0.950 . S
C931 C930 1.414 . S
C931 C932 1.374 . S
C932 H906 0.950 . S
C932 C928 1.385 . S
C932 C931 1.374 . S
C933 C930 1.499 . S
C933 C934 1.373 . S
C933 C935 1.389 . S
C934 H907 0.950 . S
C934 C920 1.377 . S
C934 C933 1.373 . S
C935 C919 1.377 . S
C935 C933 1.389 . S
C935 C936 1.524 . S
C936 C935 1.524 . S
C936 C937 1.397 . S
C936 C941 1.363 . S
C937 H908 0.950 . S
C937 C936 1.397 . S
C937 C938 1.334 . S
C938 H909 0.950 . S
C938 C937 1.334 . S
C938 C939 1.287 . S
C939 C938 1.287 . S
C939 C940 1.524 . S
C939 H942 0.999 . S
C940 H910 0.950 . S
C940 C939 1.524 . S
C940 C941 1.415 . S
C941 H911 0.950 . S
C941 C936 1.363 . S
C941 C940 1.415 . S
H942 C939 0.999 . S
H943 C924 0.913 . S
H944 C962 0.951 . S
H945 C964 0.951 . S
H946 C966 0.950 . S
H947 C967 0.950 . S
H948 C969 0.950 . S
H949 C972 0.950 . S
H950 C973 0.950 . S
H951 C975 0.950 . S
H952 C976 0.950 . S
H953 C977 0.951 . S
H954 C979 0.951 . S
H955 C981 0.950 . S
H956 C982 0.950 . S
H957 C984 0.950 . S
H958 C987 0.950 . S
H959 C988 0.950 . S
H960 C990 0.950 . S
H961 C991 0.950 . S
C962 H944 0.951 . S
C962 C963 1.366 . S
C962 C964 1.388 . S
C963 C962 1.366 . S
C963 C967 1.385 . S
C964 H945 0.951 . S
C964 C962 1.388 . S
C964 C965 1.366 . S
C965 C964 1.366 . S
C965 C966 1.414 . S
C965 C968 1.499 . S
C966 H946 0.950 . S
C966 C965 1.414 . S
C966 C967 1.374 . S
C967 H947 0.950 . S
C967 C963 1.385 . S
C967 C966 1.374 . S
C968 C965 1.499 . S
C968 C969 1.373 . S
C968 C970 1.389 . S
C969 H948 0.950 . S
C969 C968 1.373 . S
C969 C985 1.377 . S
C970 C968 1.389 . S
C970 C971 1.524 . S
C970 C984 1.377 . S
C971 C970 1.524 . S
C971 C972 1.397 . S
C971 C976 1.363 . S
C972 H949 0.950 . S
C972 C971 1.397 . S
C972 C973 1.334 . S
C973 H950 0.950 . S
C973 C972 1.334 . S
C973 C974 1.287 . S
C974 C973 1.287 . S
C974 C975 1.524 . S
C974 H993 0.913 . S
C975 H951 0.950 . S
C975 C974 1.524 . S
C975 C976 1.415 . S
C976 H952 0.950 . S
C976 C971 1.363 . S
C976 C975 1.415 . S
C977 H953 0.951 . S
C977 C978 1.366 . S
C977 C979 1.388 . S
C978 C977 1.366 . S
C978 C982 1.385 . S
C979 H954 0.951 . S
C979 C977 1.388 . S
C979 C980 1.366 . S
C980 C979 1.366 . S
C980 C981 1.414 . S
C980 C983 1.499 . S
C981 H955 0.950 . S
C981 C980 1.414 . S
C981 C982 1.374 . S
C982 H956 0.950 . S
C982 C978 1.385 . S
C982 C981 1.374 . S
C983 C980 1.499 . S
C983 C984 1.373 . S
C983 C985 1.389 . S
C984 H957 0.950 . S
C984 C970 1.377 . S
C984 C983 1.373 . S
C985 C969 1.377 . S
C985 C983 1.389 . S
C985 C986 1.524 . S
C986 C985 1.524 . S
C986 C987 1.397 . S
C986 C991 1.363 . S
C987 H958 0.950 . S
C987 C986 1.397 . S
C987 C988 1.334 . S
C988 H959 0.950 . S
C988 C987 1.334 . S
C988 C989 1.287 . S
C989 C988 1.287 . S
C989 C990 1.524 . S
C989 H992 0.999 . S
C990 H960 0.950 . S
C990 C989 1.524 . S
C990 C991 1.415 . S
C991 H961 0.950 . S
C991 C986 1.363 . S
C991 C990 1.415 . S
H992 C989 0.999 . S
H993 C974 0.913 . S
H994 C1012 0.951 . S
H995 C1014 0.951 . S
H996 C1016 0.950 . S
H997 C1017 0.950 . S
H998 C1019 0.950 . S
H999 C1022 0.950 . S
H1000 C1023 0.950 . S
H1001 C1025 0.950 . S
H1002 C1026 0.950 . S
H1003 C1027 0.951 . S
H1004 C1029 0.951 . S
H1005 C1031 0.950 . S
H1006 C1032 0.950 . S
H1007 C1034 0.950 . S
H1008 C1037 0.950 . S
H1009 C1038 0.950 . S
H1010 C1040 0.950 . S
H1011 C1041 0.950 . S
C1012 H994 0.951 . S
C1012 C1013 1.366 . S
C1012 C1014 1.388 . S
C1013 C1012 1.366 . S
C1013 C1017 1.385 . S
C1014 H995 0.951 . S
C1014 C1012 1.388 . S
C1014 C1015 1.366 . S
C1015 C1014 1.366 . S
C1015 C1016 1.414 . S
C1015 C1018 1.499 . S
C1016 H996 0.950 . S
C1016 C1015 1.414 . S
C1016 C1017 1.374 . S
C1017 H997 0.950 . S
C1017 C1013 1.385 . S
C1017 C1016 1.374 . S
C1018 C1015 1.499 . S
C1018 C1019 1.373 . S
C1018 C1020 1.389 . S
C1019 H998 0.950 . S
C1019 C1018 1.373 . S
C1019 C1035 1.377 . S
C1020 C1018 1.389 . S
C1020 C1021 1.524 . S
C1020 C1034 1.377 . S
C1021 C1020 1.524 . S
C1021 C1022 1.397 . S
C1021 C1026 1.363 . S
C1022 H999 0.950 . S
C1022 C1021 1.397 . S
C1022 C1023 1.334 . S
C1023 H1000 0.950 . S
C1023 C1022 1.334 . S
C1023 C1024 1.287 . S
C1024 C1023 1.287 . S
C1024 C1025 1.524 . S
C1024 H1043 0.913 . S
C1025 H1001 0.950 . S
C1025 C1024 1.524 . S
C1025 C1026 1.415 . S
C1026 H1002 0.950 . S
C1026 C1021 1.363 . S
C1026 C1025 1.415 . S
C1027 H1003 0.951 . S
C1027 C1028 1.366 . S
C1027 C1029 1.388 . S
C1028 C1027 1.366 . S
C1028 C1032 1.385 . S
C1029 H1004 0.951 . S
C1029 C1027 1.388 . S
C1029 C1030 1.366 . S
C1030 C1029 1.366 . S
C1030 C1031 1.414 . S
C1030 C1033 1.499 . S
C1031 H1005 0.950 . S
C1031 C1030 1.414 . S
C1031 C1032 1.374 . S
C1032 H1006 0.950 . S
C1032 C1028 1.385 . S
C1032 C1031 1.374 . S
C1033 C1030 1.499 . S
C1033 C1034 1.373 . S
C1033 C1035 1.389 . S
C1034 H1007 0.950 . S
C1034 C1020 1.377 . S
C1034 C1033 1.373 . S
C1035 C1019 1.377 . S
C1035 C1033 1.389 . S
C1035 C1036 1.524 . S
C1036 C1035 1.524 . S
C1036 C1037 1.397 . S
C1036 C1041 1.363 . S
C1037 H1008 0.950 . S
C1037 C1036 1.397 . S
C1037 C1038 1.334 . S
C1038 H1009 0.950 . S
C1038 C1037 1.334 . S
C1038 C1039 1.287 . S
C1039 C1038 1.287 . S
C1039 C1040 1.524 . S
C1039 H1042 0.999 . S
C1040 H1010 0.950 . S
C1040 C1039 1.524 . S
C1040 C1041 1.415 . S
C1041 H1011 0.950 . S
C1041 C1036 1.363 . S
C1041 C1040 1.415 . S
H1042 C1039 0.999 . S
H1043 C1024 0.913 . S
H1044 C1062 0.951 . S
H1045 C1064 0.951 . S
H1046 C1066 0.950 . S
H1047 C1067 0.950 . S
H1048 C1069 0.950 . S
H1049 C1072 0.950 . S
H1050 C1073 0.950 . S
H1051 C1075 0.950 . S
H1052 C1076 0.950 . S
H1053 C1077 0.951 . S
H1054 C1079 0.951 . S
H1055 C1081 0.950 . S
H1056 C1082 0.950 . S
H1057 C1084 0.950 . S
H1058 C1087 0.950 . S
H1059 C1088 0.950 . S
H1060 C1090 0.950 1_554 S
H1061 C1091 0.950 . S
C1062 H1044 0.951 . S
C1062 C1063 1.366 . S
C1062 C1064 1.388 . S
C1063 C1062 1.366 . S
C1063 C1067 1.385 . S
C1064 H1045 0.951 . S
C1064 C1062 1.388 . S
C1064 C1065 1.366 . S
C1065 C1064 1.366 . S
C1065 C1066 1.414 . S
C1065 C1068 1.499 . S
C1066 H1046 0.950 . S
C1066 C1065 1.414 . S
C1066 C1067 1.374 . S
C1067 H1047 0.950 . S
C1067 C1063 1.385 . S
C1067 C1066 1.374 . S
C1068 C1065 1.499 . S
C1068 C1069 1.373 . S
C1068 C1070 1.389 . S
C1069 H1048 0.950 . S
C1069 C1068 1.373 . S
C1069 C1085 1.377 . S
C1070 C1068 1.389 . S
C1070 C1071 1.524 . S
C1070 C1084 1.377 . S
C1071 C1070 1.524 . S
C1071 C1072 1.397 . S
C1071 C1076 1.363 . S
C1072 H1049 0.950 . S
C1072 C1071 1.397 . S
C1072 C1073 1.334 . S
C1073 H1050 0.950 . S
C1073 C1072 1.334 . S
C1073 C1074 1.287 . S
C1074 C1073 1.287 . S
C1074 C1075 1.524 . S
C1074 H1093 0.913 . S
C1075 H1051 0.950 . S
C1075 C1074 1.524 . S
C1075 C1076 1.415 . S
C1076 H1052 0.950 . S
C1076 C1071 1.363 . S
C1076 C1075 1.415 . S
C1077 H1053 0.951 . S
C1077 C1078 1.366 . S
C1077 C1079 1.388 . S
C1078 C1077 1.366 . S
C1078 C1082 1.385 . S
C1079 H1054 0.951 . S
C1079 C1077 1.388 . S
C1079 C1080 1.366 . S
C1080 C1079 1.366 . S
C1080 C1081 1.414 . S
C1080 C1083 1.499 . S
C1081 H1055 0.950 . S
C1081 C1080 1.414 . S
C1081 C1082 1.374 . S
C1082 H1056 0.950 . S
C1082 C1078 1.385 . S
C1082 C1081 1.374 . S
C1083 C1080 1.499 . S
C1083 C1084 1.373 . S
C1083 C1085 1.389 . S
C1084 H1057 0.950 . S
C1084 C1070 1.377 . S
C1084 C1083 1.373 . S
C1085 C1069 1.377 . S
C1085 C1083 1.389 . S
C1085 C1086 1.524 . S
C1086 C1085 1.524 . S
C1086 C1087 1.397 . S
C1086 C1091 1.363 . S
C1087 H1058 0.950 . S
C1087 C1086 1.397 . S
C1087 C1088 1.334 . S
C1088 H1059 0.950 . S
C1088 C1087 1.334 . S
C1088 C1089 1.287 . S
C1089 C1088 1.287 . S
C1089 C1090 1.524 . S
C1089 H1092 0.999 . S
C1090 H1060 0.950 1_556 S
C1090 C1089 1.524 . S
C1090 C1091 1.415 . S
C1091 H1061 0.950 . S
C1091 C1086 1.363 . S
C1091 C1090 1.415 . S
H1092 C1089 0.999 . S
H1093 C1074 0.913 . S
H1094 C1112 0.951 . S
H1095 C1114 0.951 . S
H1096 C1116 0.950 . S
H1097 C1117 0.950 . S
H1098 C1119 0.950 . S
H1099 C1122 0.950 . S
H1100 C1123 0.950 . S
H1101 C1125 0.950 . S
H1102 C1126 0.950 . S
H1103 C1127 0.951 . S
H1104 C1129 0.951 . S
H1105 C1131 0.950 . S
H1106 C1132 0.950 . S
H1107 C1134 0.950 . S
H1108 C1137 0.950 . S
H1109 C1138 0.950 . S
H1110 C1140 0.950 . S
H1111 C1141 0.950 . S
C1112 H1094 0.951 . S
C1112 C1113 1.366 . S
C1112 C1114 1.388 . S
C1113 C1112 1.366 . S
C1113 C1117 1.385 . S
C1114 H1095 0.951 . S
C1114 C1112 1.388 . S
C1114 C1115 1.366 . S
C1115 C1114 1.366 . S
C1115 C1116 1.414 . S
C1115 C1118 1.499 . S
C1116 H1096 0.950 . S
C1116 C1115 1.414 . S
C1116 C1117 1.374 . S
C1117 H1097 0.950 . S
C1117 C1113 1.385 . S
C1117 C1116 1.374 . S
C1118 C1115 1.499 . S
C1118 C1119 1.373 . S
C1118 C1120 1.389 . S
C1119 H1098 0.950 . S
C1119 C1118 1.373 . S
C1119 C1135 1.377 . S
C1120 C1118 1.389 . S
C1120 C1121 1.524 . S
C1120 C1134 1.377 . S
C1121 C1120 1.524 . S
C1121 C1122 1.397 . S
C1121 C1126 1.363 . S
C1122 H1099 0.950 . S
C1122 C1121 1.397 . S
C1122 C1123 1.334 . S
C1123 H1100 0.950 . S
C1123 C1122 1.334 . S
C1123 C1124 1.287 . S
C1124 C1123 1.287 . S
C1124 C1125 1.524 . S
C1124 H1143 0.913 . S
C1125 H1101 0.950 . S
C1125 C1124 1.524 . S
C1125 C1126 1.415 . S
C1126 H1102 0.950 . S
C1126 C1121 1.363 . S
C1126 C1125 1.415 . S
C1127 H1103 0.951 . S
C1127 C1128 1.366 . S
C1127 C1129 1.388 . S
C1128 C1127 1.366 . S
C1128 C1132 1.385 . S
C1129 H1104 0.951 . S
C1129 C1127 1.388 . S
C1129 C1130 1.366 . S
C1130 C1129 1.366 . S
C1130 C1131 1.414 . S
C1130 C1133 1.499 . S
C1131 H1105 0.950 . S
C1131 C1130 1.414 . S
C1131 C1132 1.374 . S
C1132 H1106 0.950 . S
C1132 C1128 1.385 . S
C1132 C1131 1.374 . S
C1133 C1130 1.499 . S
C1133 C1134 1.373 . S
C1133 C1135 1.389 . S
C1134 H1107 0.950 . S
C1134 C1120 1.377 . S
C1134 C1133 1.373 . S
C1135 C1119 1.377 . S
C1135 C1133 1.389 . S
C1135 C1136 1.524 . S
C1136 C1135 1.524 . S
C1136 C1137 1.397 . S
C1136 C1141 1.363 . S
C1137 H1108 0.950 . S
C1137 C1136 1.397 . S
C1137 C1138 1.334 . S
C1138 H1109 0.950 . S
C1138 C1137 1.334 . S
C1138 C1139 1.287 . S
C1139 C1138 1.287 . S
C1139 C1140 1.524 . S
C1139 H1142 0.999 . S
C1140 H1110 0.950 . S
C1140 C1139 1.524 . S
C1140 C1141 1.415 . S
C1141 H1111 0.950 . S
C1141 C1136 1.363 . S
C1141 C1140 1.415 . S
H1142 C1139 0.999 . S
H1143 C1124 0.913 . S
H1144 C1162 0.951 . S
H1145 C1164 0.951 . S
H1146 C1166 0.950 . S
H1147 C1167 0.950 . S
H1148 C1169 0.950 . S
H1149 C1172 0.950 . S
H1150 C1173 0.950 . S
H1151 C1175 0.950 . S
H1152 C1176 0.950 . S
H1153 C1177 0.951 . S
H1154 C1179 0.951 . S
H1155 C1181 0.950 . S
H1156 C1182 0.950 . S
H1157 C1184 0.950 . S
H1158 C1187 0.950 . S
H1159 C1188 0.950 . S
H1160 C1190 0.950 . S
H1161 C1191 0.950 . S
C1162 H1144 0.951 . S
C1162 C1163 1.366 . S
C1162 C1164 1.388 . S
C1163 C1162 1.366 . S
C1163 C1167 1.385 . S
C1164 H1145 0.951 . S
C1164 C1162 1.388 . S
C1164 C1165 1.366 . S
C1165 C1164 1.366 . S
C1165 C1166 1.414 . S
C1165 C1168 1.499 . S
C1166 H1146 0.950 . S
C1166 C1165 1.414 . S
C1166 C1167 1.374 . S
C1167 H1147 0.950 . S
C1167 C1163 1.385 . S
C1167 C1166 1.374 . S
C1168 C1165 1.499 . S
C1168 C1169 1.373 . S
C1168 C1170 1.389 . S
C1169 H1148 0.950 . S
C1169 C1168 1.373 . S
C1169 C1185 1.377 . S
C1170 C1168 1.389 . S
C1170 C1171 1.524 . S
C1170 C1184 1.377 . S
C1171 C1170 1.524 . S
C1171 C1172 1.397 . S
C1171 C1176 1.363 . S
C1172 H1149 0.950 . S
C1172 C1171 1.397 . S
C1172 C1173 1.334 . S
C1173 H1150 0.950 . S
C1173 C1172 1.334 . S
C1173 C1174 1.287 . S
C1174 C1173 1.287 . S
C1174 C1175 1.524 . S
C1174 H1193 0.913 . S
C1175 H1151 0.950 . S
C1175 C1174 1.524 . S
C1175 C1176 1.415 . S
C1176 H1152 0.950 . S
C1176 C1171 1.363 . S
C1176 C1175 1.415 . S
C1177 H1153 0.951 . S
C1177 C1178 1.366 . S
C1177 C1179 1.388 . S
C1178 C1177 1.366 . S
C1178 C1182 1.385 . S
C1179 H1154 0.951 . S
C1179 C1177 1.388 . S
C1179 C1180 1.366 . S
C1180 C1179 1.366 . S
C1180 C1181 1.414 . S
C1180 C1183 1.499 . S
C1181 H1155 0.950 . S
C1181 C1180 1.414 . S
C1181 C1182 1.374 . S
C1182 H1156 0.950 . S
C1182 C1178 1.385 . S
C1182 C1181 1.374 . S
C1183 C1180 1.499 . S
C1183 C1184 1.373 . S
C1183 C1185 1.389 . S
C1184 H1157 0.950 . S
C1184 C1170 1.377 . S
C1184 C1183 1.373 . S
C1185 C1169 1.377 . S
C1185 C1183 1.389 . S
C1185 C1186 1.524 . S
C1186 C1185 1.524 . S
C1186 C1187 1.397 . S
C1186 C1191 1.363 . S
C1187 H1158 0.950 . S
C1187 C1186 1.397 . S
C1187 C1188 1.334 . S
C1188 H1159 0.950 . S
C1188 C1187 1.334 . S
C1188 C1189 1.287 . S
C1189 C1188 1.287 . S
C1189 C1190 1.524 . S
C1189 H1192 0.999 . S
C1190 H1160 0.950 . S
C1190 C1189 1.524 . S
C1190 C1191 1.415 . S
C1191 H1161 0.950 . S
C1191 C1186 1.363 . S
C1191 C1190 1.415 . S
H1192 C1189 0.999 . S
H1193 C1174 0.913 . S
H1194 C1212 0.951 . S
H1195 C1214 0.951 . S
H1196 C1216 0.950 . S
H1197 C1217 0.950 . S
H1198 C1219 0.950 . S
H1199 C1222 0.950 . S
H1200 C1223 0.950 . S
H1201 C1225 0.950 . S
H1202 C1226 0.950 . S
H1203 C1227 0.951 . S
H1204 C1229 0.951 . S
H1205 C1231 0.950 . S
H1206 C1232 0.950 . S
H1207 C1234 0.950 . S
H1208 C1237 0.950 . S
H1209 C1238 0.950 . S
H1210 C1240 0.950 . S
H1211 C1241 0.950 . S
C1212 H1194 0.951 . S
C1212 C1213 1.366 . S
C1212 C1214 1.388 . S
C1213 C1212 1.366 . S
C1213 C1217 1.385 . S
C1214 H1195 0.951 . S
C1214 C1212 1.388 . S
C1214 C1215 1.366 . S
C1215 C1214 1.366 . S
C1215 C1216 1.414 . S
C1215 C1218 1.499 . S
C1216 H1196 0.950 . S
C1216 C1215 1.414 . S
C1216 C1217 1.374 . S
C1217 H1197 0.950 . S
C1217 C1213 1.385 . S
C1217 C1216 1.374 . S
C1218 C1215 1.499 . S
C1218 C1219 1.373 . S
C1218 C1220 1.389 . S
C1219 H1198 0.950 . S
C1219 C1218 1.373 . S
C1219 C1235 1.377 . S
C1220 C1218 1.389 . S
C1220 C1221 1.524 . S
C1220 C1234 1.377 . S
C1221 C1220 1.524 . S
C1221 C1222 1.397 . S
C1221 C1226 1.363 . S
C1222 H1199 0.950 . S
C1222 C1221 1.397 . S
C1222 C1223 1.334 . S
C1223 H1200 0.950 . S
C1223 C1222 1.334 . S
C1223 C1224 1.287 . S
C1224 C1223 1.287 . S
C1224 C1225 1.524 . S
C1224 H1243 0.913 . S
C1225 H1201 0.950 . S
C1225 C1224 1.524 . S
C1225 C1226 1.415 . S
C1226 H1202 0.950 . S
C1226 C1221 1.363 . S
C1226 C1225 1.415 . S
C1227 H1203 0.951 . S
C1227 C1228 1.366 . S
C1227 C1229 1.388 . S
C1228 C1227 1.366 . S
C1228 C1232 1.385 . S
C1229 H1204 0.951 . S
C1229 C1227 1.388 . S
C1229 C1230 1.366 . S
C1230 C1229 1.366 . S
C1230 C1231 1.414 . S
C1230 C1233 1.499 . S
C1231 H1205 0.950 . S
C1231 C1230 1.414 . S
C1231 C1232 1.374 . S
C1232 H1206 0.950 . S
C1232 C1228 1.385 . S
C1232 C1231 1.374 . S
C1233 C1230 1.499 . S
C1233 C1234 1.373 . S
C1233 C1235 1.389 . S
C1234 H1207 0.950 . S
C1234 C1220 1.377 . S
C1234 C1233 1.373 . S
C1235 C1219 1.377 . S
C1235 C1233 1.389 . S
C1235 C1236 1.524 . S
C1236 C1235 1.524 . S
C1236 C1237 1.397 . S
C1236 C1241 1.363 . S
C1237 H1208 0.950 . S
C1237 C1236 1.397 . S
C1237 C1238 1.334 . S
C1238 H1209 0.950 . S
C1238 C1237 1.334 . S
C1238 C1239 1.287 . S
C1239 C1238 1.287 . S
C1239 C1240 1.524 . S
C1239 H1242 0.999 . S
C1240 H1210 0.950 . S
C1240 C1239 1.524 . S
C1240 C1241 1.415 . S
C1241 H1211 0.950 . S
C1241 C1236 1.363 . S
C1241 C1240 1.415 . S
H1242 C1239 0.999 . S
H1243 C1224 0.913 . S
H1244 C1262 0.951 . S
H1245 C1264 0.951 . S
H1246 C1266 0.950 . S
H1247 C1267 0.950 . S
H1248 C1269 0.950 . S
H1249 C1272 0.950 . S
H1250 C1273 0.950 1_554 S
H1251 C1275 0.950 . S
H1252 C1276 0.950 . S
H1253 C1277 0.951 . S
H1254 C1279 0.951 . S
H1255 C1281 0.950 . S
H1256 C1282 0.950 . S
H1257 C1284 0.950 . S
H1258 C1287 0.950 . S
H1259 C1288 0.950 . S
H1260 C1290 0.950 . S
H1261 C1291 0.950 . S
C1262 H1244 0.951 . S
C1262 C1263 1.366 . S
C1262 C1264 1.388 . S
C1263 C1262 1.366 . S
C1263 C1267 1.385 . S
C1264 H1245 0.951 . S
C1264 C1262 1.388 . S
C1264 C1265 1.366 . S
C1265 C1264 1.366 . S
C1265 C1266 1.414 . S
C1265 C1268 1.499 . S
C1266 H1246 0.950 . S
C1266 C1265 1.414 . S
C1266 C1267 1.374 . S
C1267 H1247 0.950 . S
C1267 C1263 1.385 . S
C1267 C1266 1.374 . S
C1268 C1265 1.499 . S
C1268 C1269 1.373 . S
C1268 C1270 1.389 . S
C1269 H1248 0.950 . S
C1269 C1268 1.373 . S
C1269 C1285 1.377 . S
C1270 C1268 1.389 . S
C1270 C1271 1.524 . S
C1270 C1284 1.377 . S
C1271 C1270 1.524 . S
C1271 C1272 1.397 . S
C1271 C1276 1.363 . S
C1272 H1249 0.950 . S
C1272 C1271 1.397 . S
C1272 C1273 1.334 . S
C1273 H1250 0.950 1_556 S
C1273 C1272 1.334 . S
C1273 C1274 1.287 . S
C1274 C1273 1.287 . S
C1274 C1275 1.524 . S
C1274 H1293 0.913 1_556 S
C1275 H1251 0.950 . S
C1275 C1274 1.524 . S
C1275 C1276 1.415 . S
C1276 H1252 0.950 . S
C1276 C1271 1.363 . S
C1276 C1275 1.415 . S
C1277 H1253 0.951 . S
C1277 C1278 1.366 . S
C1277 C1279 1.388 . S
C1278 C1277 1.366 . S
C1278 C1282 1.385 . S
C1279 H1254 0.951 . S
C1279 C1277 1.388 . S
C1279 C1280 1.366 . S
C1280 C1279 1.366 . S
C1280 C1281 1.414 . S
C1280 C1283 1.499 . S
C1281 H1255 0.950 . S
C1281 C1280 1.414 . S
C1281 C1282 1.374 . S
C1282 H1256 0.950 . S
C1282 C1278 1.385 . S
C1282 C1281 1.374 . S
C1283 C1280 1.499 . S
C1283 C1284 1.373 . S
C1283 C1285 1.389 . S
C1284 H1257 0.950 . S
C1284 C1270 1.377 . S
C1284 C1283 1.373 . S
C1285 C1269 1.377 . S
C1285 C1283 1.389 . S
C1285 C1286 1.524 . S
C1286 C1285 1.524 . S
C1286 C1287 1.397 . S
C1286 C1291 1.363 . S
C1287 H1258 0.950 . S
C1287 C1286 1.397 . S
C1287 C1288 1.334 . S
C1288 H1259 0.950 . S
C1288 C1287 1.334 . S
C1288 C1289 1.287 . S
C1289 C1288 1.287 . S
C1289 C1290 1.524 . S
C1289 H1292 0.999 . S
C1290 H1260 0.950 . S
C1290 C1289 1.524 . S
C1290 C1291 1.415 . S
C1291 H1261 0.950 . S
C1291 C1286 1.363 . S
C1291 C1290 1.415 . S
H1292 C1289 0.999 . S
H1293 C1274 0.913 1_554 S
H1294 C1312 0.951 . S
H1295 C1314 0.951 . S
H1296 C1316 0.950 . S
H1297 C1317 0.950 . S
H1298 C1319 0.950 . S
H1299 C1322 0.950 . S
H1300 C1323 0.950 . S
H1301 C1325 0.950 . S
H1302 C1326 0.950 . S
H1303 C1327 0.951 . S
H1304 C1329 0.951 . S
H1305 C1331 0.950 . S
H1306 C1332 0.950 . S
H1307 C1334 0.950 . S
H1308 C1337 0.950 . S
H1309 C1338 0.950 . S
H1310 C1340 0.950 . S
H1311 C1341 0.950 . S
C1312 H1294 0.951 . S
C1312 C1313 1.366 . S
C1312 C1314 1.388 . S
C1313 C1312 1.366 . S
C1313 C1317 1.385 . S
C1314 H1295 0.951 . S
C1314 C1312 1.388 . S
C1314 C1315 1.366 . S
C1315 C1314 1.366 . S
C1315 C1316 1.414 . S
C1315 C1318 1.499 . S
C1316 H1296 0.950 . S
C1316 C1315 1.414 . S
C1316 C1317 1.374 . S
C1317 H1297 0.950 . S
C1317 C1313 1.385 . S
C1317 C1316 1.374 . S
C1318 C1315 1.499 . S
C1318 C1319 1.373 . S
C1318 C1320 1.389 . S
C1319 H1298 0.950 . S
C1319 C1318 1.373 . S
C1319 C1335 1.377 . S
C1320 C1318 1.389 . S
C1320 C1321 1.524 . S
C1320 C1334 1.377 . S
C1321 C1320 1.524 . S
C1321 C1322 1.397 . S
C1321 C1326 1.363 . S
C1322 H1299 0.950 . S
C1322 C1321 1.397 . S
C1322 C1323 1.334 . S
C1323 H1300 0.950 . S
C1323 C1322 1.334 . S
C1323 C1324 1.287 . S
C1324 C1323 1.287 . S
C1324 C1325 1.524 . S
C1324 H1343 0.913 . S
C1325 H1301 0.950 . S
C1325 C1324 1.524 . S
C1325 C1326 1.415 . S
C1326 H1302 0.950 . S
C1326 C1321 1.363 . S
C1326 C1325 1.415 . S
C1327 H1303 0.951 . S
C1327 C1328 1.366 . S
C1327 C1329 1.388 . S
C1328 C1327 1.366 . S
C1328 C1332 1.385 . S
C1329 H1304 0.951 . S
C1329 C1327 1.388 . S
C1329 C1330 1.366 . S
C1330 C1329 1.366 . S
C1330 C1331 1.414 . S
C1330 C1333 1.499 . S
C1331 H1305 0.950 . S
C1331 C1330 1.414 . S
C1331 C1332 1.374 . S
C1332 H1306 0.950 . S
C1332 C1328 1.385 . S
C1332 C1331 1.374 . S
C1333 C1330 1.499 . S
C1333 C1334 1.373 . S
C1333 C1335 1.389 . S
C1334 H1307 0.950 . S
C1334 C1320 1.377 . S
C1334 C1333 1.373 . S
C1335 C1319 1.377 . S
C1335 C1333 1.389 . S
C1335 C1336 1.524 . S
C1336 C1335 1.524 . S
C1336 C1337 1.397 . S
C1336 C1341 1.363 . S
C1337 H1308 0.950 . S
C1337 C1336 1.397 . S
C1337 C1338 1.334 . S
C1338 H1309 0.950 . S
C1338 C1337 1.334 . S
C1338 C1339 1.287 . S
C1339 C1338 1.287 . S
C1339 C1340 1.524 . S
C1339 H1342 0.999 . S
C1340 H1310 0.950 . S
C1340 C1339 1.524 . S
C1340 C1341 1.415 . S
C1341 H1311 0.950 . S
C1341 C1336 1.363 . S
C1341 C1340 1.415 . S
H1342 C1339 0.999 . S
H1343 C1324 0.913 . S
H1344 C1362 0.951 . S
H1345 C1364 0.951 . S
H1346 C1366 0.950 . S
H1347 C1367 0.950 . S
H1348 C1369 0.950 . S
H1349 C1372 0.950 . S
H1350 C1373 0.950 . S
H1351 C1375 0.950 . S
H1352 C1376 0.950 . S
H1353 C1377 0.951 . S
H1354 C1379 0.951 . S
H1355 C1381 0.950 . S
H1356 C1382 0.950 . S
H1357 C1384 0.950 . S
H1358 C1387 0.950 . S
H1359 C1388 0.950 . S
H1360 C1390 0.950 . S
H1361 C1391 0.950 . S
C1362 H1344 0.951 . S
C1362 C1363 1.366 . S
C1362 C1364 1.388 . S
C1363 C1362 1.366 . S
C1363 C1367 1.385 . S
C1364 H1345 0.951 . S
C1364 C1362 1.388 . S
C1364 C1365 1.366 . S
C1365 C1364 1.366 . S
C1365 C1366 1.414 . S
C1365 C1368 1.499 . S
C1366 H1346 0.950 . S
C1366 C1365 1.414 . S
C1366 C1367 1.374 . S
C1367 H1347 0.950 . S
C1367 C1363 1.385 . S
C1367 C1366 1.374 . S
C1368 C1365 1.499 . S
C1368 C1369 1.373 . S
C1368 C1370 1.389 . S
C1369 H1348 0.950 . S
C1369 C1368 1.373 . S
C1369 C1385 1.377 . S
C1370 C1368 1.389 . S
C1370 C1371 1.524 . S
C1370 C1384 1.377 . S
C1371 C1370 1.524 . S
C1371 C1372 1.397 . S
C1371 C1376 1.363 . S
C1372 H1349 0.950 . S
C1372 C1371 1.397 . S
C1372 C1373 1.334 . S
C1373 H1350 0.950 . S
C1373 C1372 1.334 . S
C1373 C1374 1.287 . S
C1374 C1373 1.287 . S
C1374 C1375 1.524 . S
C1374 H1393 0.913 . S
C1375 H1351 0.950 . S
C1375 C1374 1.524 . S
C1375 C1376 1.415 . S
C1376 H1352 0.950 . S
C1376 C1371 1.363 . S
C1376 C1375 1.415 . S
C1377 H1353 0.951 . S
C1377 C1378 1.366 . S
C1377 C1379 1.388 . S
C1378 C1377 1.366 . S
C1378 C1382 1.385 . S
C1379 H1354 0.951 . S
C1379 C1377 1.388 . S
C1379 C1380 1.366 . S
C1380 C1379 1.366 . S
C1380 C1381 1.414 . S
C1380 C1383 1.499 . S
C1381 H1355 0.950 . S
C1381 C1380 1.414 . S
C1381 C1382 1.374 . S
C1382 H1356 0.950 . S
C1382 C1378 1.385 . S
C1382 C1381 1.374 . S
C1383 C1380 1.499 . S
C1383 C1384 1.373 . S
C1383 C1385 1.389 . S
C1384 H1357 0.950 . S
C1384 C1370 1.377 . S
C1384 C1383 1.373 . S
C1385 C1369 1.377 . S
C1385 C1383 1.389 . S
C1385 C1386 1.524 . S
C1386 C1385 1.524 . S
C1386 C1387 1.397 . S
C1386 C1391 1.363 . S
C1387 H1358 0.950 . S
C1387 C1386 1.397 . S
C1387 C1388 1.334 . S
C1388 H1359 0.950 . S
C1388 C1387 1.334 . S
C1388 C1389 1.287 . S
C1389 C1388 1.287 . S
C1389 C1390 1.524 . S
C1389 H1392 0.999 . S
C1390 H1360 0.950 . S
C1390 C1389 1.524 . S
C1390 C1391 1.415 . S
C1391 H1361 0.950 . S
C1391 C1386 1.363 . S
C1391 C1390 1.415 . S
H1392 C1389 0.999 . S
H1393 C1374 0.913 . S
H1394 C1412 0.951 . S
H1395 C1414 0.951 . S
H1396 C1416 0.950 . S
H1397 C1417 0.950 . S
H1398 C1419 0.950 . S
H1399 C1422 0.950 . S
H1400 C1423 0.950 . S
H1401 C1425 0.950 . S
H1402 C1426 0.950 . S
H1403 C1427 0.951 . S
H1404 C1429 0.951 . S
H1405 C1431 0.950 . S
H1406 C1432 0.950 . S
H1407 C1434 0.950 . S
H1408 C1437 0.950 . S
H1409 C1438 0.950 . S
H1410 C1440 0.950 . S
H1411 C1441 0.950 . S
C1412 H1394 0.951 . S
C1412 C1413 1.366 . S
C1412 C1414 1.388 . S
C1413 C1412 1.366 . S
C1413 C1417 1.385 . S
C1414 H1395 0.951 . S
C1414 C1412 1.388 . S
C1414 C1415 1.366 . S
C1415 C1414 1.366 . S
C1415 C1416 1.414 . S
C1415 C1418 1.499 . S
C1416 H1396 0.950 . S
C1416 C1415 1.414 . S
C1416 C1417 1.374 . S
C1417 H1397 0.950 . S
C1417 C1413 1.385 . S
C1417 C1416 1.374 . S
C1418 C1415 1.499 . S
C1418 C1419 1.373 . S
C1418 C1420 1.389 . S
C1419 H1398 0.950 . S
C1419 C1418 1.373 . S
C1419 C1435 1.377 . S
C1420 C1418 1.389 . S
C1420 C1421 1.524 . S
C1420 C1434 1.377 . S
C1421 C1420 1.524 . S
C1421 C1422 1.397 . S
C1421 C1426 1.363 . S
C1422 H1399 0.950 . S
C1422 C1421 1.397 . S
C1422 C1423 1.334 . S
C1423 H1400 0.950 . S
C1423 C1422 1.334 . S
C1423 C1424 1.287 . S
C1424 C1423 1.287 . S
C1424 C1425 1.524 . S
C1424 H1443 0.913 . S
C1425 H1401 0.950 . S
C1425 C1424 1.524 . S
C1425 C1426 1.415 . S
C1426 H1402 0.950 . S
C1426 C1421 1.363 . S
C1426 C1425 1.415 . S
C1427 H1403 0.951 . S
C1427 C1428 1.366 . S
C1427 C1429 1.388 . S
C1428 C1427 1.366 . S
C1428 C1432 1.385 . S
C1429 H1404 0.951 . S
C1429 C1427 1.388 . S
C1429 C1430 1.366 . S
C1430 C1429 1.366 . S
C1430 C1431 1.414 . S
C1430 C1433 1.499 . S
C1431 H1405 0.950 . S
C1431 C1430 1.414 . S
C1431 C1432 1.374 . S
C1432 H1406 0.950 . S
C1432 C1428 1.385 . S
C1432 C1431 1.374 . S
C1433 C1430 1.499 . S
C1433 C1434 1.373 . S
C1433 C1435 1.389 . S
C1434 H1407 0.950 . S
C1434 C1420 1.377 . S
C1434 C1433 1.373 . S
C1435 C1419 1.377 . S
C1435 C1433 1.389 . S
C1435 C1436 1.524 . S
C1436 C1435 1.524 . S
C1436 C1437 1.397 . S
C1436 C1441 1.363 . S
C1437 H1408 0.950 . S
C1437 C1436 1.397 . S
C1437 C1438 1.334 . S
C1438 H1409 0.950 . S
C1438 C1437 1.334 . S
C1438 C1439 1.287 . S
C1439 C1438 1.287 . S
C1439 C1440 1.524 . S
C1439 H1442 0.999 . S
C1440 H1410 0.950 . S
C1440 C1439 1.524 . S
C1440 C1441 1.415 . S
C1441 H1411 0.950 . S
C1441 C1436 1.363 . S
C1441 C1440 1.415 . S
H1442 C1439 0.999 . S
H1443 C1424 0.913 . S
H1444 C1462 0.951 . S
H1445 C1464 0.951 . S
H1446 C1466 0.950 . S
H1447 C1467 0.950 . S
H1448 C1469 0.950 . S
H1449 C1472 0.950 . S
H1450 C1473 0.950 . S
H1451 C1475 0.950 . S
H1452 C1476 0.950 . S
H1453 C1477 0.951 . S
H1454 C1479 0.951 . S
H1455 C1481 0.950 . S
H1456 C1482 0.950 . S
H1457 C1484 0.950 . S
H1458 C1487 0.950 . S
H1459 C1488 0.950 . S
H1460 C1490 0.950 . S
H1461 C1491 0.950 . S
C1462 H1444 0.951 . S
C1462 C1463 1.366 . S
C1462 C1464 1.388 . S
C1463 C1462 1.366 . S
C1463 C1467 1.385 . S
C1464 H1445 0.951 . S
C1464 C1462 1.388 . S
C1464 C1465 1.366 . S
C1465 C1464 1.366 . S
C1465 C1466 1.414 . S
C1465 C1468 1.499 . S
C1466 H1446 0.950 . S
C1466 C1465 1.414 . S
C1466 C1467 1.374 . S
C1467 H1447 0.950 . S
C1467 C1463 1.385 . S
C1467 C1466 1.374 . S
C1468 C1465 1.499 . S
C1468 C1469 1.373 . S
C1468 C1470 1.389 . S
C1469 H1448 0.950 . S
C1469 C1468 1.373 . S
C1469 C1485 1.377 . S
C1470 C1468 1.389 . S
C1470 C1471 1.524 . S
C1470 C1484 1.377 . S
C1471 C1470 1.524 . S
C1471 C1472 1.397 . S
C1471 C1476 1.363 . S
C1472 H1449 0.950 . S
C1472 C1471 1.397 . S
C1472 C1473 1.334 . S
C1473 H1450 0.950 . S
C1473 C1472 1.334 . S
C1473 C1474 1.287 . S
C1474 C1473 1.287 . S
C1474 C1475 1.524 . S
C1474 H1493 0.913 . S
C1475 H1451 0.950 . S
C1475 C1474 1.524 . S
C1475 C1476 1.415 . S
C1476 H1452 0.950 . S
C1476 C1471 1.363 . S
C1476 C1475 1.415 . S
C1477 H1453 0.951 . S
C1477 C1478 1.366 . S
C1477 C1479 1.388 . S
C1478 C1477 1.366 . S
C1478 C1482 1.385 . S
C1479 H1454 0.951 . S
C1479 C1477 1.388 . S
C1479 C1480 1.366 . S
C1480 C1479 1.366 . S
C1480 C1481 1.414 . S
C1480 C1483 1.499 . S
C1481 H1455 0.950 . S
C1481 C1480 1.414 . S
C1481 C1482 1.374 . S
C1482 H1456 0.950 . S
C1482 C1478 1.385 . S
C1482 C1481 1.374 . S
C1483 C1480 1.499 . S
C1483 C1484 1.373 . S
C1483 C1485 1.389 . S
C1484 H1457 0.950 . S
C1484 C1470 1.377 . S
C1484 C1483 1.373 . S
C1485 C1469 1.377 . S
C1485 C1483 1.389 . S
C1485 C1486 1.524 . S
C1486 C1485 1.524 . S
C1486 C1487 1.397 . S
C1486 C1491 1.363 . S
C1487 H1458 0.950 . S
C1487 C1486 1.397 . S
C1487 C1488 1.334 . S
C1488 H1459 0.950 . S
C1488 C1487 1.334 . S
C1488 C1489 1.287 . S
C1489 C1488 1.287 . S
C1489 C1490 1.524 . S
C1489 H1492 0.999 . S
C1490 H1460 0.950 . S
C1490 C1489 1.524 . S
C1490 C1491 1.415 . S
C1491 H1461 0.950 . S
C1491 C1486 1.363 . S
C1491 C1490 1.415 . S
H1492 C1489 0.999 . S
H1493 C1474 0.913 . S
H1494 C1512 0.951 . S
H1495 C1514 0.951 . S
H1496 C1516 0.950 . S
H1497 C1517 0.950 . S
H1498 C1519 0.950 . S
H1499 C1522 0.950 . S
H1500 C1523 0.950 . S
H1501 C1525 0.950 . S
H1502 C1526 0.950 . S
H1503 C1527 0.951 . S
H1504 C1529 0.951 . S
H1505 C1531 0.950 . S
H1506 C1532 0.950 . S
H1507 C1534 0.950 . S
H1508 C1537 0.950 . S
H1509 C1538 0.950 . S
H1510 C1540 0.950 . S
H1511 C1541 0.950 . S
C1512 H1494 0.951 . S
C1512 C1513 1.366 . S
C1512 C1514 1.388 . S
C1513 C1512 1.366 . S
C1513 C1517 1.385 . S
C1514 H1495 0.951 . S
C1514 C1512 1.388 . S
C1514 C1515 1.366 . S
C1515 C1514 1.366 . S
C1515 C1516 1.414 . S
C1515 C1518 1.499 . S
C1516 H1496 0.950 . S
C1516 C1515 1.414 . S
C1516 C1517 1.374 . S
C1517 H1497 0.950 . S
C1517 C1513 1.385 . S
C1517 C1516 1.374 . S
C1518 C1515 1.499 . S
C1518 C1519 1.373 . S
C1518 C1520 1.389 . S
C1519 H1498 0.950 . S
C1519 C1518 1.373 . S
C1519 C1535 1.377 . S
C1520 C1518 1.389 . S
C1520 C1521 1.524 . S
C1520 C1534 1.377 . S
C1521 C1520 1.524 . S
C1521 C1522 1.397 . S
C1521 C1526 1.363 . S
C1522 H1499 0.950 . S
C1522 C1521 1.397 . S
C1522 C1523 1.334 . S
C1523 H1500 0.950 . S
C1523 C1522 1.334 . S
C1523 C1524 1.287 . S
C1524 C1523 1.287 . S
C1524 C1525 1.524 . S
C1524 H1543 0.913 . S
C1525 H1501 0.950 . S
C1525 C1524 1.524 . S
C1525 C1526 1.415 . S
C1526 H1502 0.950 . S
C1526 C1521 1.363 . S
C1526 C1525 1.415 . S
C1527 H1503 0.951 . S
C1527 C1528 1.366 . S
C1527 C1529 1.388 . S
C1528 C1527 1.366 . S
C1528 C1532 1.385 . S
C1529 H1504 0.951 . S
C1529 C1527 1.388 . S
C1529 C1530 1.366 . S
C1530 C1529 1.366 . S
C1530 C1531 1.414 . S
C1530 C1533 1.499 . S
C1531 H1505 0.950 . S
C1531 C1530 1.414 . S
C1531 C1532 1.374 . S
C1532 H1506 0.950 . S
C1532 C1528 1.385 . S
C1532 C1531 1.374 . S
C1533 C1530 1.499 . S
C1533 C1534 1.373 . S
C1533 C1535 1.389 . S
C1534 H1507 0.950 . S
C1534 C1520 1.377 . S
C1534 C1533 1.373 . S
C1535 C1519 1.377 . S
C1535 C1533 1.389 . S
C1535 C1536 1.524 . S
C1536 C1535 1.524 . S
C1536 C1537 1.397 . S
C1536 C1541 1.363 . S
C1537 H1508 0.950 . S
C1537 C1536 1.397 . S
C1537 C1538 1.334 . S
C1538 H1509 0.950 . S
C1538 C1537 1.334 . S
C1538 C1539 1.287 . S
C1539 C1538 1.287 . S
C1539 C1540 1.524 . S
C1539 H1542 0.999 . S
C1540 H1510 0.950 . S
C1540 C1539 1.524 . S
C1540 C1541 1.415 . S
C1541 H1511 0.950 . S
C1541 C1536 1.363 . S
C1541 C1540 1.415 . S
H1542 C1539 0.999 . S
H1543 C1524 0.913 . S
H1544 C1562 0.951 . S
H1545 C1564 0.951 . S
H1546 C1566 0.950 . S
H1547 C1567 0.950 . S
H1548 C1569 0.950 . S
H1549 C1572 0.950 . S
H1550 C1573 0.950 . S
H1551 C1575 0.950 . S
H1552 C1576 0.950 . S
H1553 C1577 0.951 . S
H1554 C1579 0.951 . S
H1555 C1581 0.950 . S
H1556 C1582 0.950 . S
H1557 C1584 0.950 . S
H1558 C1587 0.950 . S
H1559 C1588 0.950 . S
H1560 C1590 0.950 . S
H1561 C1591 0.950 . S
C1562 H1544 0.951 . S
C1562 C1563 1.366 . S
C1562 C1564 1.388 . S
C1563 C1562 1.366 . S
C1563 C1567 1.385 . S
C1564 H1545 0.951 . S
C1564 C1562 1.388 . S
C1564 C1565 1.366 . S
C1565 C1564 1.366 . S
C1565 C1566 1.414 . S
C1565 C1568 1.499 . S
C1566 H1546 0.950 . S
C1566 C1565 1.414 . S
C1566 C1567 1.374 . S
C1567 H1547 0.950 . S
C1567 C1563 1.385 . S
C1567 C1566 1.374 . S
C1568 C1565 1.499 . S
C1568 C1569 1.373 . S
C1568 C1570 1.389 . S
C1569 H1548 0.950 . S
C1569 C1568 1.373 . S
C1569 C1585 1.377 . S
C1570 C1568 1.389 . S
C1570 C1571 1.524 . S
C1570 C1584 1.377 . S
C1571 C1570 1.524 . S
C1571 C1572 1.397 . S
C1571 C1576 1.363 . S
C1572 H1549 0.950 . S
C1572 C1571 1.397 . S
C1572 C1573 1.334 . S
C1573 H1550 0.950 . S
C1573 C1572 1.334 . S
C1573 C1574 1.287 . S
C1574 C1573 1.287 . S
C1574 C1575 1.524 . S
C1574 H1593 0.913 . S
C1575 H1551 0.950 . S
C1575 C1574 1.524 . S
C1575 C1576 1.415 . S
C1576 H1552 0.950 . S
C1576 C1571 1.363 . S
C1576 C1575 1.415 . S
C1577 H1553 0.951 . S
C1577 C1578 1.366 . S
C1577 C1579 1.388 . S
C1578 C1577 1.366 . S
C1578 C1582 1.385 . S
C1579 H1554 0.951 . S
C1579 C1577 1.388 . S
C1579 C1580 1.366 . S
C1580 C1579 1.366 . S
C1580 C1581 1.414 . S
C1580 C1583 1.499 . S
C1581 H1555 0.950 . S
C1581 C1580 1.414 . S
C1581 C1582 1.374 . S
C1582 H1556 0.950 . S
C1582 C1578 1.385 . S
C1582 C1581 1.374 . S
C1583 C1580 1.499 . S
C1583 C1584 1.373 . S
C1583 C1585 1.389 . S
C1584 H1557 0.950 . S
C1584 C1570 1.377 . S
C1584 C1583 1.373 . S
C1585 C1569 1.377 . S
C1585 C1583 1.389 . S
C1585 C1586 1.524 . S
C1586 C1585 1.524 . S
C1586 C1587 1.397 . S
C1586 C1591 1.363 . S
C1587 H1558 0.950 . S
C1587 C1586 1.397 . S
C1587 C1588 1.334 . S
C1588 H1559 0.950 . S
C1588 C1587 1.334 . S
C1588 C1589 1.287 . S
C1589 C1588 1.287 . S
C1589 C1590 1.524 . S
C1589 H1592 0.999 . S
C1590 H1560 0.950 . S
C1590 C1589 1.524 . S
C1590 C1591 1.415 . S
C1591 H1561 0.950 . S
C1591 C1586 1.363 . S
C1591 C1590 1.415 . S
H1592 C1589 0.999 . S
H1593 C1574 0.913 . S
H1594 C1612 0.951 . S
H1595 C1614 0.951 . S
H1596 C1616 0.950 . S
H1597 C1617 0.950 . S
H1598 C1619 0.950 . S
H1599 C1622 0.950 . S
H1600 C1623 0.950 . S
H1601 C1625 0.950 . S
H1602 C1626 0.950 . S
H1603 C1627 0.951 . S
H1604 C1629 0.951 . S
H1605 C1631 0.950 . S
H1606 C1632 0.950 . S
H1607 C1634 0.950 . S
H1608 C1637 0.950 . S
H1609 C1638 0.950 . S
H1610 C1640 0.950 . S
H1611 C1641 0.950 . S
C1612 H1594 0.951 . S
C1612 C1613 1.366 . S
C1612 C1614 1.388 . S
C1613 C1612 1.366 . S
C1613 C1617 1.385 . S
C1614 H1595 0.951 . S
C1614 C1612 1.388 . S
C1614 C1615 1.366 . S
C1615 C1614 1.366 . S
C1615 C1616 1.414 . S
C1615 C1618 1.499 . S
C1616 H1596 0.950 . S
C1616 C1615 1.414 . S
C1616 C1617 1.374 . S
C1617 H1597 0.950 . S
C1617 C1613 1.385 . S
C1617 C1616 1.374 . S
C1618 C1615 1.499 . S
C1618 C1619 1.373 . S
C1618 C1620 1.389 . S
C1619 H1598 0.950 . S
C1619 C1618 1.373 . S
C1619 C1635 1.377 . S
C1620 C1618 1.389 . S
C1620 C1621 1.524 . S
C1620 C1634 1.377 . S
C1621 C1620 1.524 . S
C1621 C1622 1.397 . S
C1621 C1626 1.363 . S
C1622 H1599 0.950 . S
C1622 C1621 1.397 . S
C1622 C1623 1.334 . S
C1623 H1600 0.950 . S
C1623 C1622 1.334 . S
C1623 C1624 1.287 . S
C1624 C1623 1.287 . S
C1624 C1625 1.524 . S
C1624 H1643 0.913 1_554 S
C1625 H1601 0.950 . S
C1625 C1624 1.524 . S
C1625 C1626 1.415 . S
C1626 H1602 0.950 . S
C1626 C1621 1.363 . S
C1626 C1625 1.415 . S
C1627 H1603 0.951 . S
C1627 C1628 1.366 . S
C1627 C1629 1.388 . S
C1628 C1627 1.366 . S
C1628 C1632 1.385 . S
C1629 H1604 0.951 . S
C1629 C1627 1.388 . S
C1629 C1630 1.366 . S
C1630 C1629 1.366 . S
C1630 C1631 1.414 . S
C1630 C1633 1.499 . S
C1631 H1605 0.950 . S
C1631 C1630 1.414 . S
C1631 C1632 1.374 . S
C1632 H1606 0.950 . S
C1632 C1628 1.385 . S
C1632 C1631 1.374 . S
C1633 C1630 1.499 . S
C1633 C1634 1.373 . S
C1633 C1635 1.389 . S
C1634 H1607 0.950 . S
C1634 C1620 1.377 . S
C1634 C1633 1.373 . S
C1635 C1619 1.377 . S
C1635 C1633 1.389 . S
C1635 C1636 1.524 . S
C1636 C1635 1.524 . S
C1636 C1637 1.397 . S
C1636 C1641 1.363 . S
C1637 H1608 0.950 . S
C1637 C1636 1.397 . S
C1637 C1638 1.334 . S
C1638 H1609 0.950 . S
C1638 C1637 1.334 . S
C1638 C1639 1.287 . S
C1639 C1638 1.287 . S
C1639 C1640 1.524 . S
C1639 H1642 0.999 . S
C1640 H1610 0.950 . S
C1640 C1639 1.524 . S
C1640 C1641 1.415 . S
C1641 H1611 0.950 . S
C1641 C1636 1.363 . S
C1641 C1640 1.415 . S
H1642 C1639 0.999 . S
H1643 C1624 0.913 1_556 S
C463 C39 1.667 . S
C478 C327 1.515 . S
C513 C91 1.661 . S
C528 C348 1.529 . S
C578 C369 1.369 . S
C563 C128 1.486 . S
C628 C398 1.421 . S
C613 C188 1.485 . S
C678 C411 1.420 . S
C663 C250 1.528 . S
C728 C435 1.566 . S
C713 C304 1.659 . S
C763 C75 1.552 . S
C778 C379 1.427 . S
C813 C144 1.704 . S
C828 C393 1.594 . S
C878 C421 1.483 . S
C863 C198 1.602 . S
C928 C440 1.438 . S
C913 C234 1.516 . S
C963 C294 1.424 . S
C978 C337 1.339 . S
C1028 C358 1.410 . S
C1013 C29 1.506 . S
C1078 C400 1.597 . S
C1063 C38 1.684 . S
C1113 C92 1.690 . S
C1128 C414 1.522 . S
C1178 C432 1.451 . S
C1163 C135 1.514 . S
C1213 C181 1.505 . S
C1228 C330 1.368 . S
C1263 C251 1.558 . S
C1278 C351 1.416 . S
C1313 C303 1.691 . S
C1328 C372 1.503 . S
C1363 C82 1.577 . S
C1378 C442 1.498 . S
C1428 C335 1.552 . S
C1413 C145 1.728 . S
C1463 C197 1.634 . S
C1478 C356 1.477 . S
C1513 C241 1.541 . S
C1528 C377 1.398 . S
C1563 C287 1.453 . S
C1578 C390 1.398 . S
C1613 C22 1.534 . S
C1628 C419 1.406 . S
