# Generated by pormake.
# Topology ant, (3,6)-cn, num edge types: 1
# Building blocks:
#     Node 0, Type 0, BuildingBlock: CUQRIR_clean_linker_1, # of connection points: 3
#     Node 1, Type 0, BuildingBlock: CUQRIR_clean_linker_1, # of connection points: 3
#     Node 2, Type 0, BuildingBlock: CUQRIR_clean_linker_1, # of connection points: 3
#     Node 3, Type 0, BuildingBlock: CUQRIR_clean_linker_1, # of connection points: 3
#     Node 4, Type 0, BuildingBlock: CUQRIR_clean_linker_1, # of connection points: 3
#     Node 5, Type 0, BuildingBlock: CUQRIR_clean_linker_1, # of connection points: 3
#     Node 6, Type 0, BuildingBlock: CUQRIR_clean_linker_1, # of connection points: 3
#     Node 7, Type 0, BuildingBlock: CUQRIR_clean_linker_1, # of connection points: 3
#     Node 8, Type 1, BuildingBlock: MIDCAF_clean_sbu_0, # of connection points: 6
#     Node 9, Type 1, BuildingBlock: MIDCAF_clean_sbu_0, # of connection points: 6
#     Node 10, Type 1, BuildingBlock: MIDCAF_clean_sbu_0, # of connection points: 6
#     Node 11, Type 1, BuildingBlock: MIDCAF_clean_sbu_0, # of connection points: 6
#     Edge 12, Type (0, 1), BuildingBlock: UVAHIK_clean_linker_0, # of connection points: 2
#     Edge 13, Type (0, 1), BuildingBlock: UVAHIK_clean_linker_0, # of connection points: 2
#     Edge 14, Type (0, 1), BuildingBlock: UVAHIK_clean_linker_0, # of connection points: 2
#     Edge 15, Type (0, 1), BuildingBlock: UVAHIK_clean_linker_0, # of connection points: 2
#     Edge 16, Type (0, 1), BuildingBlock: UVAHIK_clean_linker_0, # of connection points: 2
#     Edge 17, Type (0, 1), BuildingBlock: UVAHIK_clean_linker_0, # of connection points: 2
#     Edge 18, Type (0, 1), BuildingBlock: UVAHIK_clean_linker_0, # of connection points: 2
#     Edge 19, Type (0, 1), BuildingBlock: UVAHIK_clean_linker_0, # of connection points: 2
#     Edge 20, Type (0, 1), BuildingBlock: UVAHIK_clean_linker_0, # of connection points: 2
#     Edge 21, Type (0, 1), BuildingBlock: UVAHIK_clean_linker_0, # of connection points: 2
#     Edge 22, Type (0, 1), BuildingBlock: UVAHIK_clean_linker_0, # of connection points: 2
#     Edge 23, Type (0, 1), BuildingBlock: UVAHIK_clean_linker_0, # of connection points: 2
#     Edge 24, Type (0, 1), BuildingBlock: UVAHIK_clean_linker_0, # of connection points: 2
#     Edge 25, Type (0, 1), BuildingBlock: UVAHIK_clean_linker_0, # of connection points: 2
#     Edge 26, Type (0, 1), BuildingBlock: UVAHIK_clean_linker_0, # of connection points: 2
#     Edge 27, Type (0, 1), BuildingBlock: UVAHIK_clean_linker_0, # of connection points: 2
#     Edge 28, Type (0, 1), BuildingBlock: UVAHIK_clean_linker_0, # of connection points: 2
#     Edge 29, Type (0, 1), BuildingBlock: UVAHIK_clean_linker_0, # of connection points: 2
#     Edge 30, Type (0, 1), BuildingBlock: UVAHIK_clean_linker_0, # of connection points: 2
#     Edge 31, Type (0, 1), BuildingBlock: UVAHIK_clean_linker_0, # of connection points: 2
#     Edge 32, Type (0, 1), BuildingBlock: UVAHIK_clean_linker_0, # of connection points: 2
#     Edge 33, Type (0, 1), BuildingBlock: UVAHIK_clean_linker_0, # of connection points: 2
#     Edge 34, Type (0, 1), BuildingBlock: UVAHIK_clean_linker_0, # of connection points: 2
#     Edge 35, Type (0, 1), BuildingBlock: UVAHIK_clean_linker_0, # of connection points: 2
# Relax obj value: 0.108
# Max RMSD: 0.219
# Mean RMSD: 0.148
data_MOF--net-ant--node1-MIDCAF_clean_sbu_0--node2-CUQRIR_clean_linker_1--edge1-UVAHIK_clean_linker_0
_symmetry_space_group_name_H-M    P1
_symmetry_Int_Tables_number       1
_symmetry_cell_setting            triclinic
loop_
_symmetry_equiv_pos_as_xyz
'x, y, z'
_cell_length_a     34.771844
_cell_length_b     34.767822
_cell_length_c     87.120732
_cell_angle_alpha  85.215958
_cell_angle_beta   93.995655
_cell_angle_gamma 89.938716
loop_
_atom_site_label
_atom_site_type_symbol
_atom_site_fract_x
_atom_site_fract_y
_atom_site_fract_z
_atom_type_partial_charge
C0 C 0.2041 0.29965 0.08229 0.0
N1 N 0.20442 0.26831 0.07402 0.0
N2 N 0.19674 0.33226 0.07283 0.0
C3 C 0.2081 0.29786 0.09965 0.0
C4 C 0.19243 0.31944 0.05854 0.0
N5 N 0.19724 0.2807 0.05926 0.0
C6 C 0.18354 0.34471 0.04387 0.0
H7 H 0.17925 0.2929 0.10411 0.0
H8 H 0.21945 0.32506 0.10387 0.0
H9 H 0.22729 0.27357 0.10439 0.0
H10 H 0.19571 0.3321 0.03395 0.0
H11 H 0.19516 0.37416 0.04491 0.0
H12 H 0.1518 0.34693 0.04156 0.0
C13 C 0.08788 0.75711 0.3472 0.0
N14 N 0.11382 0.76073 0.33629 0.0
N15 N 0.05148 0.7575 0.34055 0.0
C16 C 0.09822 0.75039 0.36427 0.0
C17 C 0.05622 0.76124 0.32522 0.0
N18 N 0.09406 0.76315 0.32263 0.0
C19 C 0.02386 0.75934 0.31286 0.0
H20 H 0.11215 0.7216 0.36675 0.0
H21 H 0.07249 0.75183 0.37104 0.0
H22 H 0.11926 0.77227 0.36799 0.0
H23 H 0.00628 0.78612 0.3123 0.0
H24 H 0.00477 0.73468 0.31585 0.0
H25 H 0.03441 0.75642 0.3013 0.0
C26 C 0.62405 0.82421 0.57165 0.0
N27 N 0.61812 0.79276 0.56369 0.0
N28 N 0.62184 0.85671 0.56194 0.0
C29 C 0.62968 0.82322 0.58895 0.0
C30 C 0.61433 0.84388 0.5478 0.0
N31 N 0.61245 0.8049 0.54885 0.0
C32 C 0.60685 0.86933 0.53305 0.0
H33 H 0.601 0.82261 0.5938 0.0
H34 H 0.64525 0.84905 0.59265 0.0
H35 H 0.64579 0.79683 0.59373 0.0
H36 H 0.62891 0.86343 0.52494 0.0
H37 H 0.60778 0.90042 0.535 0.0
H38 H 0.57829 0.86235 0.5275 0.0
C39 C 0.60398 0.29875 0.8242 0.0
N40 N 0.63274 0.31099 0.81522 0.0
N41 N 0.57054 0.29521 0.81547 0.0
C42 C 0.60887 0.28763 0.84128 0.0
C43 C 0.5798 0.30583 0.80092 0.0
N44 N 0.61753 0.31503 0.80075 0.0
C45 C 0.55151 0.30915 0.78697 0.0
H46 H 0.58642 0.26683 0.84492 0.0
H47 H 0.60605 0.31387 0.84755 0.0
H48 H 0.63779 0.27469 0.84451 0.0
H49 H 0.52218 0.31619 0.79022 0.0
H50 H 0.55032 0.28105 0.78179 0.0
H51 H 0.56043 0.33155 0.77813 0.0
C52 C 0.0286 0.70889 0.91221 0.0
N53 N 0.03834 0.73098 0.92401 0.0
N54 N 0.02563 0.67127 0.91753 0.0
C55 C 0.0215 0.72408 0.89557 0.0
C56 C 0.03441 0.67118 0.93292 0.0
N57 N 0.04234 0.70733 0.93683 0.0
C58 C 0.0335 0.63583 0.94413 0.0
H59 H 0.99129 0.73462 0.89361 0.0
H60 H 0.02555 0.70138 0.88763 0.0
H61 H 0.04094 0.74858 0.89279 0.0
H62 H 0.05193 0.63888 0.95483 0.0
H63 H 0.04291 0.60994 0.93871 0.0
H64 H 1.00344 0.63116 0.94734 0.0
C65 C 0.6577 0.80271 0.17788 0.0
N66 N 0.68567 0.80008 0.18962 0.0
N67 N 0.62289 0.81052 0.18316 0.0
C68 C 0.6647 0.79987 0.16118 0.0
C69 C 0.63081 0.81236 0.19854 0.0
N70 N 0.6689 0.80668 0.2024 0.0
C71 C 0.60076 0.81543 0.21006 0.0
H72 H 0.64258 0.81644 0.15353 0.0
H73 H 0.66315 0.76914 0.15865 0.0
H74 H 0.69377 0.81078 0.15867 0.0
H75 H 0.57279 0.80351 0.20583 0.0
H76 H 0.59654 0.84628 0.21192 0.0
H77 H 0.60995 0.79979 0.22134 0.0
C78 C 0.67953 0.13296 0.42303 0.0
N79 N 0.67823 0.16041 0.43312 0.0
N80 N 0.6822 0.09731 0.43059 0.0
C81 C 0.68088 0.14113 0.40583 0.0
C82 C 0.6829 0.10412 0.44572 0.0
N83 N 0.6808 0.14255 0.44727 0.0
C84 C 0.68134 0.0732 0.45881 0.0
H85 H 0.65107 0.14214 0.40037 0.0
H86 H 0.69712 0.11818 0.40089 0.0
H87 H 0.69459 0.16942 0.40301 0.0
H88 H 0.7112 0.06492 0.46316 0.0
H89 H 0.66647 0.04716 0.45491 0.0
H90 H 0.66617 0.08367 0.46847 0.0
C91 C 0.09655 0.24193 0.65986 0.0
N92 N 0.12523 0.24159 0.67125 0.0
N93 N 0.0623 0.25084 0.66529 0.0
C94 C 0.10248 0.23694 0.6432 0.0
C95 C 0.0713 0.2561 0.68036 0.0
N96 N 0.10953 0.25086 0.68391 0.0
C97 C 0.0425 0.264 0.69184 0.0
H98 H 0.07981 0.25236 0.63544 0.0
H99 H 0.10107 0.20576 0.64137 0.0
H100 H 0.13116 0.24777 0.6401 0.0
H101 H 0.0519 0.25061 0.7035 0.0
H102 H 0.01361 0.25289 0.68829 0.0
H103 H 0.04026 0.29564 0.69252 0.0
Zn104 Zn 0.21183 0.70323 0.14909 0.0
Zn105 Zn 0.08571 0.83769 0.11953 0.0
Zn106 Zn 0.13952 0.79071 0.128 0.0
C107 C 0.09059 0.79067 0.09523 0.0
C108 C 0.15336 0.88131 0.12346 0.0
O109 O 0.13473 0.7605 0.15226 0.0
O110 O 0.17194 0.71156 0.16461 0.0
C111 C 0.16355 0.71963 0.11801 0.0
O112 O 0.11613 0.77434 0.1051 0.0
O113 O 0.07244 0.82001 0.09857 0.0
O114 O 0.11719 0.88472 0.12126 0.0
O115 O 0.16905 0.84754 0.12562 0.0
O116 O 0.18114 0.7277 0.13048 0.0
O117 O 0.14084 0.74596 0.11168 0.0
O118 O 0.19662 0.81765 0.13005 0.0
O119 O 0.20455 0.75835 0.13879 0.0
C120 C 0.21966 0.79118 0.13614 0.0
O121 O 0.09756 0.78305 0.14596 0.0
O122 O 0.05159 0.82373 0.13625 0.0
C123 C 0.14399 0.73595 0.16413 0.0
C124 C 0.0642 0.79864 0.14669 0.0
Zn125 Zn 0.56004 0.61502 0.359 0.0
Zn126 Zn 0.6289 0.63557 0.40376 0.0
Zn127 Zn 0.59063 0.64284 0.38115 0.0
C128 C 0.63361 0.71307 0.3918 0.0
C129 C 0.67803 0.63645 0.3814 0.0
O130 O 0.60287 0.58299 0.38644 0.0
O131 O 0.56942 0.55915 0.36724 0.0
C132 C 0.50611 0.66349 0.37239 0.0
O133 O 0.62691 0.69498 0.37952 0.0
O134 O 0.63251 0.69421 0.40485 0.0
O135 O 0.67379 0.61286 0.3931 0.0
O136 O 0.64933 0.65806 0.37599 0.0
O137 O 0.51012 0.6427 0.36135 0.0
O138 O 0.5339 0.66702 0.38258 0.0
O139 O 0.61959 0.67638 0.36271 0.0
O140 O 0.59524 0.64203 0.34413 0.0
C141 C 0.61657 0.66928 0.34837 0.0
O142 O 0.55621 0.65879 0.39929 0.0
O143 O 0.58351 0.61087 0.41414 0.0
C144 C 0.59076 0.55392 0.37963 0.0
C145 C 0.55734 0.63665 0.41188 0.0
Zn146 Zn 0.53988 0.3445 0.60033 0.0
Zn147 Zn 0.59821 0.27692 0.64181 0.0
Zn148 Zn 0.58461 0.31466 0.61977 0.0
C149 C 0.666 0.28847 0.62612 0.0
C150 C 0.59224 0.2289 0.61835 0.0
O151 O 0.5303 0.29121 0.62642 0.0
O152 O 0.49253 0.31629 0.60695 0.0
C153 C 0.57875 0.40399 0.61508 0.0
O154 O 0.63972 0.28814 0.61492 0.0
O155 O 0.65569 0.28865 0.63977 0.0
O156 O 0.57871 0.22921 0.63151 0.0
O157 O 0.60554 0.26056 0.61201 0.0
O158 O 0.54931 0.39861 0.60616 0.0
O159 O 0.59831 0.37504 0.62149 0.0
O160 O 0.6124 0.29565 0.59971 0.0
O161 O 0.56971 0.32661 0.58318 0.0
C162 C 0.60007 0.30618 0.58567 0.0
O163 O 0.60447 0.35041 0.63808 0.0
O164 O 0.56977 0.31433 0.65366 0.0
C165 C 0.49686 0.29507 0.61948 0.0
C166 C 0.58849 0.34515 0.65093 0.0
Zn167 Zn 0.06966 0.17199 0.85806 0.0
Zn168 Zn 0.14742 0.26426 0.89071 0.0
Zn169 Zn 0.10753 0.21841 0.8748 0.0
C170 C 0.13376 0.20063 0.91086 0.0
C171 C 0.08126 0.30514 0.88032 0.0
O172 O 0.13727 0.21529 0.85314 0.0
O173 O 0.09686 0.18145 0.83894 0.0
C174 C 0.09643 0.12681 0.88409 0.0
O175 O 0.11922 0.18792 0.89824 0.0
O176 O 0.14686 0.23442 0.91089 0.0
O177 O 0.11439 0.31037 0.88659 0.0
O178 O 0.07173 0.27168 0.87594 0.0
O179 O 0.08249 0.1236 0.87052 0.0
O180 O 0.10505 0.16046 0.88854 0.0
O181 O 0.04914 0.2441 0.86896 0.0
O182 O 0.0178 0.19536 0.85923 0.0
C183 C 0.01756 0.22899 0.86369 0.0
O184 O 0.16278 0.23237 0.86348 0.0
O185 O 0.19564 0.26581 0.88037 0.0
C186 C 0.12736 0.20087 0.84028 0.0
C187 C 0.1938 0.25012 0.86781 0.0
C188 C 0.22335 0.38947 0.0847 0.0
C189 C 0.19264 0.3713 0.07696 0.0
C190 C 0.21942 0.42732 0.08874 0.0
C191 C 0.1644 0.5176 0.07884 0.0
H192 H 0.19905 0.54067 0.1203 0.0
C193 C 0.13816 0.66727 0.10183 0.0
C194 C 0.16668 0.68096 0.1122 0.0
C195 C 0.14063 0.62979 0.09709 0.0
C196 C 0.18975 0.53504 0.10858 0.0
H197 H 0.13419 0.37846 0.06695 0.0
H198 H 0.12728 0.44515 0.07376 0.0
H199 H 0.20512 0.47522 0.11279 0.0
H200 H 0.22081 0.66669 0.12528 0.0
H201 H 0.22579 0.6022 0.11676 0.0
H202 H 0.14975 0.57757 0.0745 0.0
C203 C 0.15434 0.43005 0.07682 0.0
C204 C 0.19312 0.49736 0.10431 0.0
C205 C 0.15819 0.39197 0.07296 0.0
C206 C 0.19809 0.65681 0.11744 0.0
C207 C 0.20079 0.61963 0.11261 0.0
C208 C 0.16141 0.55549 0.08306 0.0
C209 C 0.18483 0.44806 0.08488 0.0
C210 C 0.18062 0.48818 0.08938 0.0
C211 C 0.17185 0.60528 0.10254 0.0
C212 C 0.17423 0.56481 0.09798 0.0
H213 H 0.25047 0.37432 0.08755 0.0
H214 H 0.24364 0.44058 0.09472 0.0
H215 H 0.1548 0.5115 0.0672 0.0
H216 H 0.11343 0.6851 0.09769 0.0
H217 H 0.11754 0.61977 0.08947 0.0
C218 C 0.98381 0.77073 0.34465 0.0
C219 C 0.01641 0.74683 0.34751 0.0
C220 C 0.9479 0.75752 0.34892 0.0
C221 C 0.89856 0.68497 0.37338 0.0
H222 H 0.81622 0.6987 0.34095 0.0
C223 C 0.74793 0.61934 0.38079 0.0
C224 C 0.71662 0.64388 0.3758 0.0
C225 C 0.78516 0.6291 0.37679 0.0
C226 C 0.83878 0.69491 0.35018 0.0
H227 H 0.0379 0.69119 0.35739 0.0
H228 H 0.97504 0.66811 0.36526 0.0
H229 H 0.88018 0.72362 0.33631 0.0
H230 H 0.69976 0.69765 0.36259 0.0
H231 H 0.76416 0.71465 0.35571 0.0
H232 H 0.85698 0.65699 0.38739 0.0
C233 C 0.97721 0.69707 0.35976 0.0
C234 C 0.87537 0.70924 0.34752 0.0
C235 C 0.01308 0.71024 0.35537 0.0
C236 C 0.72307 0.67771 0.36638 0.0
C237 C 0.76014 0.68751 0.36244 0.0
C238 C 0.86181 0.6709 0.3761 0.0
C239 C 0.94413 0.72021 0.35618 0.0
C240 C 0.9055 0.70472 0.35913 0.0
C241 C 0.79173 0.66366 0.36779 0.0
C242 C 0.83141 0.67602 0.36457 0.0
H243 H 0.98602 0.79905 0.33861 0.0
H244 H 0.92292 0.77614 0.34623 0.0
H245 H 0.92131 0.68122 0.38253 0.0
H246 H 0.74381 0.59302 0.38804 0.0
H247 H 0.80883 0.60982 0.3809 0.0
C248 C 0.58933 0.74047 0.57965 0.0
C249 C 0.61806 0.75337 0.57003 0.0
C250 C 0.5909 0.70308 0.58688 0.0
C251 C 0.63732 0.60718 0.58535 0.0
H252 H 0.59553 0.58814 0.62541 0.0
C253 C 0.63003 0.45401 0.6155 0.0
C254 C 0.59128 0.44383 0.61685 0.0
C255 C 0.64014 0.4929 0.61301 0.0
C256 C 0.6077 0.59318 0.61431 0.0
H257 H 0.67077 0.7384 0.56024 0.0
H258 H 0.67461 0.67307 0.57321 0.0
H259 H 0.59987 0.65423 0.61382 0.0
H260 H 0.53336 0.46569 0.61812 0.0
H261 H 0.55121 0.53352 0.61442 0.0
H262 H 0.64504 0.54592 0.58595 0.0
C263 C 0.65024 0.6912 0.57496 0.0
C264 C 0.60976 0.63094 0.60755 0.0
C265 C 0.64822 0.72848 0.56755 0.0
C266 C 0.56344 0.47295 0.61711 0.0
C267 C 0.57366 0.5117 0.61503 0.0
C268 C 0.63587 0.5695 0.59225 0.0
C269 C 0.62169 0.67806 0.58483 0.0
C270 C 0.62348 0.63835 0.59276 0.0
C271 C 0.61175 0.52194 0.61229 0.0
C272 C 0.62009 0.56211 0.60659 0.0
H273 H 0.56584 0.75954 0.5816 0.0
H274 H 0.5678 0.69381 0.59402 0.0
H275 H 0.64766 0.61152 0.5739 0.0
H276 H 0.6519 0.43195 0.61513 0.0
H277 H 0.66971 0.50021 0.61094 0.0
C278 C 0.70136 0.29662 0.81259 0.0
C279 C 0.67298 0.31527 0.82001 0.0
C280 C 0.74013 0.29798 0.81796 0.0
C281 C 0.79983 0.30468 0.85352 0.0
H282 H 0.88375 0.31456 0.82638 0.0
C283 C 0.97739 0.28833 0.85582 0.0
C284 C 0.98055 0.25018 0.8625 0.0
C285 C 0.94091 0.30536 0.85217 0.0
C286 C 0.86069 0.31242 0.83415 0.0
H287 H 0.66292 0.35132 0.83841 0.0
H288 H 0.73079 0.35275 0.84819 0.0
H289 H 0.81749 0.32801 0.81589 0.0
H290 H 0.94874 0.20071 0.87141 0.0
H291 H 0.88543 0.23063 0.86551 0.0
H292 H 0.8428 0.28712 0.87161 0.0
C293 C 0.72299 0.33713 0.83819 0.0
C294 C 0.82276 0.31976 0.82812 0.0
C295 C 0.68424 0.33622 0.83266 0.0
C296 C 0.94701 0.23021 0.8663 0.0
C297 C 0.9108 0.24741 0.86297 0.0
C298 C 0.83767 0.29682 0.8595 0.0
C299 C 0.7513 0.31763 0.831 0.0
C300 C 0.79185 0.3151 0.83768 0.0
C301 C 0.90725 0.2847 0.85546 0.0
C302 C 0.86838 0.29973 0.8498 0.0
H303 H 0.69335 0.2797 0.803 0.0
H304 H 0.76117 0.28218 0.81231 0.0
H305 H 0.77661 0.30061 0.86115 0.0
H306 H 1.00287 0.30409 0.85261 0.0
H307 H 0.93894 0.33418 0.84639 0.0
C308 C 0.04111 0.62611 0.89846 0.0
C309 C 0.01619 0.63823 0.90911 0.0
C310 C 0.03505 0.59098 0.89194 0.0
C311 C 0.99576 0.49556 0.90152 0.0
H312 H 0.01634 0.47895 0.85941 0.0
C313 C 0.02138 0.34182 0.88464 0.0
C314 C 0.05578 0.33914 0.87728 0.0
C315 C 1.00381 0.37801 0.88533 0.0
C316 C 0.01039 0.48303 0.8712 0.0
H317 H 0.96499 0.62409 0.92104 0.0
H318 H 0.95446 0.56217 0.90982 0.0
H319 H 0.01095 0.54468 0.86699 0.0
H320 H 0.09726 0.3709 0.86394 0.0
H321 H 0.06708 0.43335 0.86501 0.0
H322 H 0.99761 0.43416 0.90605 0.0
C323 C 0.97857 0.57986 0.90643 0.0
C324 C 0.00732 0.52072 0.87553 0.0
C325 C 0.98445 0.61521 0.9128 0.0
C326 C 0.07052 0.37231 0.86957 0.0
C327 C 0.05304 0.40817 0.87016 0.0
C328 C 0.99921 0.45786 0.89723 0.0
C329 C 1.00422 0.567 0.89613 0.0
C330 C 1.00119 0.52741 0.89086 0.0
C331 C 0.02044 0.41186 0.87863 0.0
C332 C 0.00797 0.45109 0.88215 0.0
H333 H 0.06621 0.64307 0.89573 0.0
H334 H 0.05569 0.58166 0.88424 0.0
H335 H 0.99128 0.49971 0.91345 0.0
H336 H 0.00973 0.31657 0.89078 0.0
H337 H 0.97842 0.37972 0.89177 0.0
C338 C 0.73897 0.75997 0.18211 0.0
C339 C 0.72631 0.79282 0.18867 0.0
C340 C 0.77837 0.75362 0.18076 0.0
C341 C 0.87697 0.78732 0.19405 0.0
H342 H 0.9062 0.74595 0.15655 0.0
C343 C 0.02227 0.81527 0.16701 0.0
C344 C 0.03798 0.78671 0.15878 0.0
C345 C 0.98792 0.80879 0.17425 0.0
C346 C 0.89865 0.75681 0.16725 0.0
H347 H 0.74451 0.84447 0.19917 0.0
H348 H 0.81322 0.83434 0.19649 0.0
H349 H 0.83846 0.74971 0.16153 0.0
H350 H 0.03154 0.72818 0.15241 0.0
H351 H 0.97115 0.71666 0.16504 0.0
H352 H 0.9374 0.79619 0.19928 0.0
C353 C 0.79311 0.81279 0.19266 0.0
C354 C 0.85961 0.75902 0.17013 0.0
C355 C 0.75373 0.81886 0.19413 0.0
C356 C 0.02036 0.7504 0.15893 0.0
C357 C 0.98552 0.74407 0.16596 0.0
C358 C 0.91603 0.78548 0.19108 0.0
C359 C 0.80609 0.7802 0.18584 0.0
C360 C 0.84804 0.77492 0.18345 0.0
C361 C 0.96805 0.77382 0.17312 0.0
C362 C 0.92733 0.77074 0.17751 0.0
H363 H 0.71828 0.73919 0.17806 0.0
H364 H 0.78703 0.72778 0.17575 0.0
H365 H 0.86948 0.79893 0.20461 0.0
H366 H 0.03502 0.84372 0.16684 0.0
H367 H 0.97529 0.83241 0.17957 0.0
C368 C 0.63938 0.21282 0.41911 0.0
C369 C 0.67117 0.20097 0.42918 0.0
C370 C 0.6331 0.25178 0.41452 0.0
C371 C 0.65195 0.34984 0.42479 0.0
H372 H 0.63083 0.37625 0.38087 0.0
C373 C 0.63007 0.50801 0.39827 0.0
C374 C 0.60163 0.51432 0.38602 0.0
C375 C 0.64077 0.47044 0.40402 0.0
C376 C 0.6362 0.3694 0.39319 0.0
H377 H 0.72058 0.22022 0.44287 0.0
H378 H 0.7092 0.28926 0.43504 0.0
H379 H 0.64518 0.30962 0.39034 0.0
H380 H 0.56145 0.48614 0.37048 0.0
H381 H 0.57928 0.42096 0.38071 0.0
H382 H 0.64189 0.40953 0.42769 0.0
C383 C 0.68939 0.26816 0.4306 0.0
C384 C 0.6446 0.33123 0.39859 0.0
C385 C 0.69593 0.22889 0.43507 0.0
C386 C 0.58374 0.48232 0.37982 0.0
C387 C 0.59418 0.44487 0.38563 0.0
C388 C 0.64314 0.38814 0.41939 0.0
C389 C 0.65825 0.27984 0.42006 0.0
C390 C 0.65204 0.32095 0.41445 0.0
C391 C 0.62308 0.43839 0.3977 0.0
C392 C 0.6346 0.39826 0.40352 0.0
H393 H 0.61946 0.19174 0.41475 0.0
H394 H 0.60845 0.26002 0.40662 0.0
H395 H 0.65741 0.34261 0.43709 0.0
H396 H 0.64446 0.53208 0.40329 0.0
H397 H 0.66337 0.46654 0.41322 0.0
C398 C 0.00983 0.22553 0.6484 0.0
C399 C 0.02509 0.25517 0.65693 0.0
C400 C 0.97287 0.22916 0.6409 0.0
C401 C 0.89489 0.30157 0.62846 0.0
H402 H 0.82732 0.21315 0.6324 0.0
C403 C 0.73179 0.31288 0.6315 0.0
C404 C 0.70744 0.28765 0.62372 0.0
C405 C 0.77169 0.3096 0.63134 0.0
C406 C 0.84602 0.23789 0.6309 0.0
H407 H 0.01462 0.31215 0.66396 0.0
H408 H 0.9498 0.31829 0.65137 0.0
H409 H 0.89572 0.20566 0.6405 0.0
H410 H 0.70527 0.23945 0.60951 0.0
H411 H 0.7759 0.23291 0.60953 0.0
H412 H 0.84457 0.33418 0.61972 0.0
C413 C 0.9663 0.29243 0.65016 0.0
C414 C 0.88528 0.23365 0.63556 0.0
C415 C 1.00321 0.28881 0.65756 0.0
C416 C 0.7236 0.25959 0.61537 0.0
C417 C 0.76384 0.25569 0.6155 0.0
C418 C 0.85564 0.30585 0.62397 0.0
C419 C 0.95044 0.26255 0.64181 0.0
C420 C 0.91 0.26571 0.63483 0.0
C421 C 0.78822 0.28043 0.62367 0.0
C422 C 0.83061 0.2743 0.62555 0.0
H423 H 0.02626 0.19929 0.64781 0.0
H424 H 0.96183 0.20574 0.63445 0.0
H425 H 0.91318 0.32669 0.62734 0.0
H426 H 0.71988 0.33461 0.63808 0.0
H427 H 0.78966 0.32874 0.6379 0.0
C428 C 0.19139 0.26659 0.67325 0.0
C429 C 0.16585 0.23698 0.66966 0.0
C430 C 0.23021 0.2641 0.67022 0.0
C431 C 0.29185 0.2179 0.6443 0.0
H432 H 0.37367 0.26621 0.66825 0.0
C433 C 0.46421 0.26101 0.64163 0.0
C434 C 0.46259 0.27713 0.62625 0.0
C435 C 0.43054 0.24795 0.64831 0.0
C436 C 0.35138 0.25197 0.66155 0.0
H437 H 0.16061 0.18077 0.66093 0.0
H438 H 0.22877 0.17582 0.65576 0.0
H439 H 0.31038 0.25781 0.67847 0.0
H440 H 0.42466 0.29058 0.60564 0.0
H441 H 0.36647 0.26823 0.6172 0.0
H442 H 0.33267 0.21229 0.62735 0.0
C443 C 0.21882 0.20139 0.66063 0.0
C444 C 0.31492 0.2476 0.66732 0.0
C445 C 0.17994 0.20405 0.66361 0.0
C446 C 0.42698 0.27844 0.61753 0.0
C447 C 0.39355 0.26529 0.62414 0.0
C448 C 0.32826 0.22215 0.63857 0.0
C449 C 0.24429 0.23179 0.66358 0.0
C450 C 0.2844 0.2315 0.65857 0.0
C451 C 0.39473 0.25046 0.63968 0.0
C452 C 0.35814 0.2403 0.6469 0.0
H453 H 0.18087 0.29239 0.67777 0.0
H454 H 0.24872 0.28834 0.67243 0.0
H455 H 0.26908 0.20561 0.63717 0.0
H456 H 0.49122 0.25957 0.64865 0.0
H457 H 0.43245 0.23636 0.66027 0.0
C458 C 0.56023 0.84392 0.17707 0.0
C459 C 0.58537 0.81354 0.17486 0.0
C460 C 0.5219 0.84408 0.17098 0.0
C461 C 0.44716 0.77629 0.15663 0.0
H462 H 0.38714 0.87046 0.1476 0.0
C463 C 0.2817 0.77115 0.15081 0.0
C464 C 0.26117 0.79761 0.14022 0.0
C465 C 0.32134 0.77509 0.15407 0.0
C466 C 0.40342 0.8438 0.14986 0.0
H467 H 0.59074 0.76061 0.16381 0.0
H468 H 0.52459 0.76178 0.15233 0.0
H469 H 0.45642 0.87411 0.15339 0.0
H470 H 0.26609 0.84936 0.12489 0.0
H471 H 0.33576 0.85571 0.13016 0.0
H472 H 0.39466 0.74591 0.15249 0.0
C473 C 0.53383 0.78489 0.15929 0.0
C474 C 0.44331 0.84589 0.15343 0.0
C475 C 0.57203 0.78447 0.16563 0.0
C476 C 0.28113 0.82862 0.13315 0.0
C477 C 0.32111 0.83226 0.13624 0.0
C478 C 0.40749 0.77419 0.15285 0.0
C479 C 0.50778 0.81412 0.16224 0.0
C480 C 0.46575 0.81215 0.15712 0.0
C481 C 0.34192 0.80523 0.14663 0.0
C482 C 0.38479 0.80788 0.1497 0.0
H483 H 0.56997 0.86689 0.18402 0.0
H484 H 0.50304 0.86695 0.1737 0.0
H485 H 0.46294 0.74954 0.15957 0.0
H486 H 0.26711 0.74721 0.15662 0.0
H487 H 0.33577 0.75434 0.16251 0.0
C488 C 0.5123 0.25485 0.81441 0.0
C489 C 0.53286 0.28562 0.8204 0.0
C490 C 0.474 0.24819 0.81783 0.0
C491 C 0.38934 0.30009 0.82806 0.0
H492 H 0.35043 0.20022 0.84279 0.0
C493 C 0.2519 0.28558 0.85983 0.0
C494 C 0.22758 0.25368 0.85837 0.0
C495 C 0.28635 0.28813 0.85261 0.0
C496 C 0.36059 0.22813 0.83836 0.0
H497 H 0.53042 0.33308 0.83478 0.0
H498 H 0.46325 0.32178 0.84078 0.0
H499 H 0.4175 0.20622 0.83602 0.0
H500 H 0.21992 0.19969 0.84785 0.0
H501 H 0.28059 0.20434 0.83488 0.0
H502 H 0.33288 0.32222 0.83036 0.0
C503 C 0.47663 0.30278 0.83344 0.0
C504 C 0.39906 0.23158 0.83459 0.0
C505 C 0.51501 0.30907 0.83017 0.0
C506 C 0.23792 0.2248 0.84903 0.0
C507 C 0.27281 0.22729 0.84177 0.0
C508 C 0.35095 0.29659 0.83165 0.0
C509 C 0.45553 0.27264 0.82712 0.0
C510 C 0.41406 0.26784 0.82983 0.0
C511 C 0.29765 0.25884 0.84367 0.0
C512 C 0.33637 0.26084 0.83732 0.0
H513 H 0.52573 0.23656 0.80682 0.0
H514 H 0.45843 0.22483 0.81279 0.0
H515 H 0.39987 0.32822 0.82406 0.0
H516 H 0.24473 0.30838 0.86691 0.0
H517 H 0.30488 0.31251 0.85458 0.0
C518 C 0.17554 0.78578 0.34669 0.0
C519 C 0.15497 0.7576 0.33898 0.0
C520 C 0.21484 0.78062 0.35099 0.0
C521 C 0.30064 0.72753 0.34198 0.0
H522 H 0.33975 0.74412 0.38373 0.0
C523 C 0.46063 0.71092 0.35875 0.0
C524 C 0.47049 0.68633 0.37201 0.0
C525 C 0.42347 0.72603 0.35599 0.0
C526 C 0.32918 0.73941 0.37205 0.0
H527 H 0.15859 0.70197 0.32986 0.0
H528 H 0.22759 0.69324 0.33685 0.0
H529 H 0.27163 0.75727 0.37567 0.0
H530 H 0.45049 0.65988 0.39333 0.0
H531 H 0.38453 0.68604 0.38843 0.0
H532 H 0.35756 0.70901 0.33833 0.0
C533 C 0.21358 0.71949 0.33949 0.0
C534 C 0.29035 0.74721 0.3674 0.0
C535 C 0.17425 0.72454 0.33536 0.0
C536 C 0.44342 0.67912 0.38309 0.0
C537 C 0.40581 0.69404 0.38025 0.0
C538 C 0.33932 0.72007 0.34656 0.0
C539 C 0.23421 0.74727 0.34751 0.0
C540 C 0.27567 0.741 0.35234 0.0
C541 C 0.39512 0.7163 0.36633 0.0
C542 C 0.35408 0.72579 0.36165 0.0
H543 H 0.16088 0.81138 0.34963 0.0
H544 H 0.23006 0.80266 0.35703 0.0
H545 H 0.29024 0.72272 0.33029 0.0
H546 H 0.48122 0.71687 0.35008 0.0
H547 H 0.4164 0.74382 0.34536 0.0
C548 C 0.65538 0.91264 0.57186 0.0
C549 C 0.62149 0.89577 0.56601 0.0
C550 C 0.65469 0.95031 0.5763 0.0
C551 C 0.59693 0.04046 0.57185 0.0
H552 H 0.64917 0.05928 0.61128 0.0
C553 C 0.60263 0.19129 0.59567 0.0
C554 C 0.59616 0.19199 0.61136 0.0
C555 C 0.60771 0.15622 0.58928 0.0
C556 C 0.63437 0.05444 0.60026 0.0
H557 H 0.56063 0.90408 0.55996 0.0
H558 H 0.559 0.97014 0.56778 0.0
H559 H 0.65441 0.99604 0.60145 0.0
H560 H 0.58906 0.15647 0.63265 0.0
H561 H 0.59736 0.09537 0.62151 0.0
H562 H 0.57598 0.09861 0.5709 0.0
C563 C 0.58624 0.95467 0.56879 0.0
C564 C 0.63774 0.01837 0.59455 0.0
C565 C 0.587 0.917 0.56441 0.0
C566 C 0.59414 0.15693 0.62051 0.0
C567 C 0.59928 0.12192 0.61417 0.0
C568 C 0.59366 0.07662 0.57755 0.0
C569 C 0.62003 0.97164 0.5749 0.0
C570 C 0.61864 0.01082 0.58038 0.0
C571 C 0.60637 0.12117 0.59852 0.0
C572 C 0.61188 0.08378 0.59192 0.0
H573 H 0.6822 0.89646 0.57307 0.0
H574 H 0.68124 0.96275 0.58082 0.0
H575 H 0.58224 0.0356 0.56081 0.0
H576 H 0.60339 0.21777 0.5883 0.0
H577 H 0.61313 0.15656 0.57718 0.0
C578 C 0.18094 0.21248 0.08994 0.0
C579 C 0.20787 0.22849 0.08004 0.0
C580 C 0.18482 0.17422 0.0962 0.0
C581 C 0.22335 0.08037 0.08937 0.0
H582 H 0.21034 0.05606 0.13294 0.0
C583 C 0.20816 0.9223 0.11435 0.0
C584 C 0.176 0.91718 0.12317 0.0
C585 C 0.22278 0.95951 0.11099 0.0
C586 C 0.21402 0.06227 0.12075 0.0
H587 H 0.26037 0.21773 0.06917 0.0
H588 H 0.26633 0.14994 0.07952 0.0
H589 H 0.21264 0.12333 0.12259 0.0
H590 H 0.13579 0.94593 0.13635 0.0
H591 H 0.16088 0.01 0.13066 0.0
H592 H 0.2224 0.01944 0.0873 0.0
C593 C 0.24226 0.16704 0.08245 0.0
C594 C 0.21534 0.10082 0.11484 0.0
C595 C 0.23868 0.20558 0.07641 0.0
C596 C 0.16069 0.94912 0.12954 0.0
C597 C 0.1753 0.98595 0.12632 0.0
C598 C 0.22149 0.04171 0.09525 0.0
C599 C 0.2155 0.15107 0.0925 0.0
C600 C 0.21893 0.11027 0.09902 0.0
C601 C 0.20561 0.99195 0.11654 0.0
C602 C 0.21556 0.03219 0.11093 0.0
H603 H 0.15688 0.22968 0.0928 0.0
H604 H 0.16349 0.16252 0.10376 0.0
H605 H 0.22611 0.08688 0.07712 0.0
H606 H 0.22016 0.89814 0.10916 0.0
H607 H 0.24644 0.96306 0.10356 0.0
C608 C 0.65176 0.05384 0.41239 0.0
C609 C 0.68051 0.06069 0.42394 0.0
C610 C 0.64981 0.01838 0.40595 0.0
C611 C 0.70579 0.92744 0.40332 0.0
H612 H 0.60438 0.88543 0.39395 0.0
C613 C 0.67167 0.76587 0.40285 0.0
C614 C 0.64606 0.75363 0.39108 0.0
C615 C 0.6797 0.80495 0.40366 0.0
C616 C 0.63289 0.89708 0.39623 0.0
H617 H 0.72979 0.03611 0.43783 0.0
H618 H 0.72544 0.97325 0.42724 0.0
H619 H 0.61014 0.9504 0.40226 0.0
H620 H 0.6098 0.77225 0.37059 0.0
H621 H 0.62301 0.84135 0.37229 0.0
H622 H 0.72816 0.87281 0.39817 0.0
C623 C 0.70501 0.99559 0.42273 0.0
C624 C 0.63629 0.93441 0.401 0.0
C625 C 0.70726 0.03135 0.42899 0.0
C626 C 0.6298 0.78105 0.37972 0.0
C627 C 0.63718 0.82043 0.38074 0.0
C628 C 0.70231 0.88988 0.39878 0.0
C629 C 0.67618 0.98856 0.41111 0.0
C630 C 0.67278 0.94991 0.40487 0.0
C631 C 0.66169 0.83271 0.39289 0.0
C632 C 0.66581 0.87416 0.39543 0.0
H633 H 0.63046 0.07586 0.40847 0.0
H634 H 0.62755 0.01442 0.39691 0.0
H635 H 0.73439 0.93861 0.40582 0.0
H636 H 0.68471 0.74525 0.41171 0.0
H637 H 0.69844 0.81361 0.41321 0.0
C638 C 0.07863 0.78747 0.92956 0.0
C639 C 0.04435 0.77221 0.92313 0.0
C640 C 0.08513 0.82736 0.92823 0.0
C641 C 0.05895 0.91276 0.90242 0.0
H642 H 0.1035 0.97173 0.93511 0.0
C643 C 0.12128 0.06011 0.88771 0.0
C644 C 0.10327 0.09066 0.89405 0.0
C645 C 0.11764 0.02224 0.894 0.0
C646 C 0.09094 0.95556 0.92593 0.0
H647 H 0.98917 0.78663 0.91104 0.0
H648 H 1.00082 0.85623 0.90825 0.0
H649 H 0.08765 0.90316 0.94076 0.0
H650 H 0.06995 0.10611 0.91271 0.0
H651 H 0.06378 0.03906 0.92399 0.0
H652 H 0.06284 0.96445 0.88751 0.0
C653 C 0.02283 0.8374 0.91424 0.0
C654 C 0.08206 0.91639 0.92912 0.0
C655 C 0.01622 0.79761 0.91573 0.0
C656 C 0.08449 0.08305 0.90774 0.0
C657 C 0.08078 0.04475 0.9141 0.0
C658 C 0.06831 0.95147 0.89921 0.0
C659 C 0.05757 0.85272 0.9203 0.0
C660 C 0.06601 0.89458 0.91736 0.0
C661 C 0.09574 0.01392 0.90678 0.0
C662 C 0.08468 0.97325 0.91086 0.0
H663 H 0.10082 0.7684 0.93526 0.0
H664 H 0.1123 0.8382 0.9329 0.0
H665 H 0.04699 0.89676 0.89308 0.0
H666 H 0.13587 0.06524 0.87714 0.0
H667 H 0.12996 0.99912 0.88827 0.0
C668 C 0.22257 0.24271 0.03957 0.0
C669 C 0.19112 0.25679 0.04663 0.0
C670 C 0.21672 0.22246 0.0264 0.0
C671 C 0.14067 0.17722 1.00107 0.0
H672 H 0.21131 0.20512 0.96956 0.0
C673 C 0.1045 0.18152 0.9353 0.0
C674 C 0.13493 0.17761 0.92578 0.0
C675 C 0.11111 0.17653 0.95139 0.0
C676 C 0.19173 0.19611 0.97829 0.0
H677 H 0.12914 0.2615 0.0457 0.0
H678 H 0.11845 0.22737 0.0223 0.0
H679 H 0.2238 0.22653 0.9951 0.0
H680 H 0.19487 0.16159 0.92531 0.0
H681 H 0.20624 0.15136 0.95334 0.0
H682 H 0.10749 0.1486 0.98372 0.0
C683 C 0.1477 0.23045 0.02715 0.0
C684 C 0.19892 0.2085 0.99304 0.0
C685 C 0.15366 0.25022 0.04046 0.0
C686 C 0.17082 0.16418 0.93244 0.0
C687 C 0.17743 0.15896 0.94849 0.0
C688 C 0.13329 0.16504 0.9862 0.0
C689 C 0.17921 0.2168 0.01978 0.0
C690 C 0.1732 0.19985 0.00459 0.0
C691 C 0.14837 0.1677 0.95815 0.0
C692 C 0.15847 0.17489 0.97456 0.0
H693 H 0.25169 0.24842 0.04398 0.0
H694 H 0.24172 0.21201 0.02123 0.0
H695 H 0.12051 0.16944 0.00971 0.0
H696 H 0.0768 0.19269 0.93041 0.0
H697 H 0.08808 0.18357 0.95844 0.0
C698 C 0.11139 0.79651 0.29823 0.0
C699 C 0.10938 0.76225 0.3078 0.0
C700 C 0.11483 0.79527 0.28237 0.0
C701 C 0.09053 0.73016 0.25187 0.0
H702 H 0.14949 0.80158 0.22641 0.0
C703 C 0.12361 0.70733 0.18943 0.0
C704 C 0.12607 0.73976 0.17881 0.0
C705 C 0.11597 0.7117 0.20471 0.0
C706 C 0.13231 0.78186 0.23333 0.0
H707 H 0.11004 0.70005 0.30866 0.0
H708 H 0.11806 0.69747 0.28112 0.0
H709 H 0.15267 0.80558 0.25431 0.0
H710 H 0.12049 0.80208 0.17565 0.0
H711 H 0.10647 0.80969 0.20233 0.0
H712 H 0.07064 0.70607 0.23094 0.0
C713 C 0.11653 0.72539 0.28571 0.0
C714 C 0.13432 0.78403 0.24933 0.0
C715 C 0.1129 0.72675 0.30151 0.0
C716 C 0.1182 0.77648 0.18351 0.0
C717 C 0.11077 0.7809 0.19884 0.0
C718 C 0.0886 0.72794 0.2359 0.0
C719 C 0.11603 0.7596 0.27585 0.0
C720 C 0.11384 0.75786 0.25881 0.0
C721 C 0.11097 0.74866 0.20972 0.0
C722 C 0.10978 0.75349 0.22647 0.0
H723 H 0.10754 0.82406 0.30289 0.0
H724 H 0.11407 0.82214 0.27512 0.0
H725 H 0.07353 0.71021 0.25877 0.0
H726 H 0.12971 0.67871 0.18613 0.0
H727 H 0.1165 0.68629 0.21281 0.0
C728 C 0.62234 0.78098 0.5237 0.0
C729 C 0.60045 0.78157 0.53656 0.0
C730 C 0.60804 0.76337 0.51069 0.0
C731 C 0.53574 0.69502 0.49618 0.0
H732 H 0.55449 0.75056 0.45698 0.0
C733 C 0.54207 0.62454 0.43938 0.0
C734 C 0.5373 0.64761 0.42533 0.0
C735 C 0.5362 0.64006 0.45331 0.0
C736 C 0.54809 0.73495 0.46777 0.0
H737 H 0.54747 0.76331 0.5464 0.0
H738 H 0.52208 0.73207 0.52356 0.0
H739 H 0.5741 0.77861 0.48082 0.0
H740 H 0.51667 0.70307 0.41465 0.0
H741 H 0.50542 0.7299 0.43896 0.0
H742 H 0.50994 0.65114 0.48303 0.0
C743 C 0.55036 0.74507 0.52352 0.0
C744 C 0.56007 0.75077 0.48149 0.0
C745 C 0.56481 0.76274 0.53657 0.0
C746 C 0.52122 0.68471 0.4253 0.0
C747 C 0.51517 0.70023 0.43926 0.0
C748 C 0.52364 0.67913 0.48241 0.0
C749 C 0.57142 0.74611 0.51027 0.0
C750 C 0.55512 0.73051 0.49584 0.0
C751 C 0.52509 0.67891 0.45345 0.0
C752 C 0.53061 0.69846 0.46802 0.0
H753 H 0.65007 0.79511 0.52362 0.0
H754 H 0.62545 0.7638 0.50084 0.0
H755 H 0.53135 0.67876 0.50707 0.0
H756 H 0.55387 0.59559 0.43979 0.0
H757 H 0.54398 0.62262 0.46395 0.0
C758 C 0.64309 0.30626 0.77581 0.0
C759 C 0.63622 0.33039 0.78742 0.0
C760 C 0.65172 0.322 0.7612 0.0
C761 C 0.67606 0.36241 0.73124 0.0
H762 H 0.59218 0.43147 0.71543 0.0
C763 C 0.63585 0.38242 0.66651 0.0
C764 C 0.59802 0.3692 0.66379 0.0
C765 C 0.64837 0.39375 0.68108 0.0
C766 C 0.61627 0.41285 0.71969 0.0
H767 H 0.63441 0.3893 0.7934 0.0
H768 H 0.64909 0.41741 0.76762 0.0
H769 H 0.60488 0.41786 0.74326 0.0
H770 H 0.54251 0.36155 0.67338 0.0
H771 H 0.56383 0.38223 0.69856 0.0
H772 H 0.6856 0.35513 0.70767 0.0
C773 C 0.64836 0.38631 0.76986 0.0
C774 C 0.62373 0.40522 0.73563 0.0
C775 C 0.6403 0.37039 0.78457 0.0
C776 C 0.57182 0.37163 0.67521 0.0
C777 C 0.58408 0.38361 0.68963 0.0
C778 C 0.66881 0.37029 0.7153 0.0
C779 C 0.65285 0.36227 0.75788 0.0
C780 C 0.65243 0.37839 0.74154 0.0
C781 C 0.62296 0.39276 0.69299 0.0
C782 C 0.63756 0.39403 0.70937 0.0
H783 H 0.63931 0.27538 0.77782 0.0
H784 H 0.65442 0.30269 0.75219 0.0
H785 H 0.69858 0.34188 0.73549 0.0
H786 H 0.65668 0.38056 0.6579 0.0
H787 H 0.67843 0.40088 0.68334 0.0
C788 C 0.02217 0.74076 0.95873 0.0
C789 C 0.04959 0.71882 0.95221 0.0
C790 C 0.0276 0.74904 0.97415 0.0
C791 C 0.0785 0.71209 0.0109 0.0
H792 H 0.05187 0.81175 0.02422 0.0
C793 C 0.11152 0.75435 0.07347 0.0
C794 C 0.084 0.77728 0.07959 0.0
C795 C 0.10717 0.74577 0.05804 0.0
C796 C 0.05897 0.78358 0.02072 0.0
H797 H 0.10486 0.69002 0.95603 0.0
H798 H 0.11477 0.70447 0.9831 0.0
H799 H 0.0458 0.80155 0.99683 0.0
H800 H 0.02948 0.80768 0.07451 0.0
H801 H 0.02163 0.79223 0.04776 0.0
H802 H 0.09149 0.69406 0.03481 0.0
C803 C 0.08871 0.71467 0.97647 0.0
C804 C 0.05558 0.7778 0.00501 0.0
C805 C 0.08325 0.70657 0.96104 0.0
C806 C 0.05138 0.7902 0.07012 0.0
C807 C 0.047 0.78157 0.05475 0.0
C808 C 0.08183 0.71785 0.02663 0.0
C809 C 0.06063 0.73547 0.98327 0.0
C810 C 0.0652 0.74197 0.99993 0.0
C811 C 0.07523 0.75997 0.04842 0.0
C812 C 0.07192 0.75362 0.03172 0.0
H813 H 0.99608 0.75041 0.95198 0.0
H814 H 0.00534 0.76493 0.97907 0.0
H815 H 0.0856 0.68396 0.00736 0.0
H816 H 0.13723 0.74435 0.08038 0.0
H817 H 0.12959 0.72928 0.0535 0.0
C818 C 0.68488 0.83224 0.2275 0.0
C819 C 0.68635 0.80195 0.2179 0.0
C820 C 0.69258 0.82532 0.24346 0.0
C821 C 0.7248 0.74913 0.27481 0.0
H822 H 0.64335 0.79304 0.29625 0.0
C823 C 0.65314 0.6697 0.32489 0.0
C824 C 0.64012 0.68982 0.33687 0.0
C825 C 0.6712 0.6891 0.31277 0.0
C826 C 0.66694 0.78121 0.2906 0.0
H827 H 0.69926 0.74153 0.217 0.0
H828 H 0.71221 0.72882 0.24488 0.0
H829 H 0.65338 0.8173 0.26989 0.0
H830 H 0.63748 0.74565 0.34605 0.0
H831 H 0.66839 0.78021 0.32441 0.0
H832 H 0.73637 0.71119 0.29531 0.0
C833 C 0.70587 0.75818 0.24024 0.0
C834 C 0.67278 0.79514 0.27542 0.0
C835 C 0.69847 0.76528 0.22427 0.0
C836 C 0.6472 0.72957 0.33691 0.0
C837 C 0.66477 0.74925 0.32455 0.0
C838 C 0.71875 0.73502 0.28996 0.0
C839 C 0.70144 0.78778 0.25011 0.0
C840 C 0.70083 0.7783 0.26712 0.0
C841 C 0.67622 0.72924 0.31219 0.0
C842 C 0.68878 0.74993 0.2978 0.0
H843 H 0.67549 0.86071 0.2227 0.0
H844 H 0.68969 0.84898 0.25064 0.0
H845 H 0.74721 0.73605 0.26891 0.0
H846 H 0.64835 0.63896 0.32466 0.0
H847 H 0.67922 0.67288 0.30338 0.0
C848 C 0.64916 0.18612 0.4636 0.0
C849 C 0.6794 0.1608 0.4615 0.0
C850 C 0.64787 0.20371 0.4774 0.0
C851 C 0.67786 0.19168 0.51848 0.0
H852 H 0.65381 0.30087 0.51709 0.0
C853 C 0.65164 0.26917 0.57375 0.0
C854 C 0.6185 0.2928 0.57217 0.0
C855 C 0.66628 0.25473 0.56072 0.0
C856 C 0.66045 0.27031 0.5177 0.0
H857 H 0.73177 0.13364 0.47207 0.0
H858 H 0.72902 0.1636 0.49653 0.0
H859 H 0.66432 0.27166 0.49324 0.0
H860 H 0.5758 0.32092 0.55551 0.0
H861 H 0.60086 0.29603 0.5332 0.0
H862 H 0.6722 0.18999 0.54289 0.0
C863 C 0.70653 0.17008 0.48744 0.0
C864 C 0.66648 0.25364 0.50403 0.0
C865 C 0.7081 0.15296 0.47351 0.0
C866 C 0.60133 0.30277 0.55727 0.0
C867 C 0.61593 0.28867 0.54437 0.0
C868 C 0.67141 0.20833 0.5322 0.0
C869 C 0.67648 0.19579 0.48949 0.0
C870 C 0.6743 0.21399 0.50422 0.0
C871 C 0.64836 0.26422 0.54587 0.0
C872 C 0.66154 0.24765 0.53189 0.0
H873 H 0.6263 0.19194 0.45462 0.0
H874 H 0.62404 0.22294 0.47875 0.0
H875 H 0.6838 0.161 0.51895 0.0
H876 H 0.66564 0.2611 0.58505 0.0
H877 H 0.69146 0.23609 0.56225 0.0
C878 C 0.14359 0.21758 0.70691 0.0
C879 C 0.12913 0.25174 0.69895 0.0
C880 C 0.15753 0.21724 0.72237 0.0
C881 C 0.14672 0.27329 0.75627 0.0
H882 H 0.21676 0.1947 0.77626 0.0
C883 C 0.16116 0.24669 0.82217 0.0
C884 C 0.14919 0.20902 0.82649 0.0
C885 C 0.1725 0.25628 0.80721 0.0
C886 C 0.19756 0.21715 0.77081 0.0
H887 H 0.11999 0.31274 0.70019 0.0
H888 H 0.1461 0.31304 0.727 0.0
H889 H 0.2108 0.20479 0.7481 0.0
H890 H 0.14306 0.15113 0.81927 0.0
H891 H 0.16379 0.1675 0.79338 0.0
H892 H 0.13309 0.2851 0.77899 0.0
C893 C 0.14549 0.28603 0.72165 0.0
C894 C 0.19378 0.22272 0.75467 0.0
C895 C 0.13086 0.28609 0.70629 0.0
C896 C 0.15215 0.18039 0.81618 0.0
C897 C 0.16419 0.18975 0.80139 0.0
C898 C 0.15101 0.26814 0.77237 0.0
C899 C 0.15782 0.25134 0.7301 0.0
C900 C 0.16718 0.24988 0.74715 0.0
C901 C 0.17273 0.22811 0.79651 0.0
C902 C 0.17541 0.23912 0.7798 0.0
H903 H 0.14216 0.19082 0.70137 0.0
H904 H 0.16613 0.18981 0.72843 0.0
H905 H 0.12549 0.29408 0.75106 0.0
H906 H 0.15891 0.26929 0.82991 0.0
H907 H 0.17909 0.28605 0.80374 0.0
loop_
_geom_bond_atom_site_label_1
_geom_bond_atom_site_label_2
_geom_bond_distance
_geom_bond_site_symmetry_2
_ccdc_geom_bond_type
C0 N1 1.317 . S
C0 N2 1.348 . S
C0 C3 1.485 . S
N1 C0 1.317 . S
N1 N5 1.370 . S
N2 C0 1.348 . S
N2 C4 1.346 . S
C3 C0 1.485 . S
C3 H7 0.960 . S
C3 H8 0.961 . S
C3 H9 0.960 . S
C4 N2 1.346 . S
C4 N5 1.307 . S
C4 C6 1.486 . S
N5 N1 1.370 . S
N5 C4 1.307 . S
C6 C4 1.486 . S
C6 H10 0.960 . S
C6 H11 0.960 . S
C6 H12 0.959 . S
H7 C3 0.960 . S
H8 C3 0.961 . S
H9 C3 0.960 . S
H10 C6 0.960 . S
H11 C6 0.960 . S
H12 C6 0.959 . S
C13 N14 1.317 . S
C13 N15 1.348 . S
C13 C16 1.485 . S
N14 C13 1.317 . S
N14 N18 1.370 . S
N15 C13 1.348 . S
N15 C17 1.346 . S
C16 C13 1.485 . S
C16 H20 0.960 . S
C16 H21 0.961 . S
C16 H22 0.960 . S
C17 N15 1.346 . S
C17 N18 1.307 . S
C17 C19 1.486 . S
N18 N14 1.370 . S
N18 C17 1.307 . S
C19 C17 1.486 . S
C19 H23 0.960 . S
C19 H24 0.960 . S
C19 H25 0.959 . S
H20 C16 0.960 . S
H21 C16 0.961 . S
H22 C16 0.960 . S
H23 C19 0.960 . S
H24 C19 0.960 . S
H25 C19 0.959 . S
C26 N27 1.317 . S
C26 N28 1.348 . S
C26 C29 1.485 . S
N27 C26 1.317 . S
N27 N31 1.370 . S
N28 C26 1.348 . S
N28 C30 1.346 . S
C29 C26 1.485 . S
C29 H33 0.960 . S
C29 H34 0.961 . S
C29 H35 0.960 . S
C30 N28 1.346 . S
C30 N31 1.307 . S
C30 C32 1.486 . S
N31 N27 1.370 . S
N31 C30 1.307 . S
C32 C30 1.486 . S
C32 H36 0.960 . S
C32 H37 0.960 . S
C32 H38 0.959 . S
H33 C29 0.960 . S
H34 C29 0.961 . S
H35 C29 0.960 . S
H36 C32 0.960 . S
H37 C32 0.960 . S
H38 C32 0.959 . S
C39 N40 1.317 . S
C39 N41 1.348 . S
C39 C42 1.485 . S
N40 C39 1.317 . S
N40 N44 1.370 . S
N41 C39 1.348 . S
N41 C43 1.346 . S
C42 C39 1.485 . S
C42 H46 0.960 . S
C42 H47 0.961 . S
C42 H48 0.960 . S
C43 N41 1.346 . S
C43 N44 1.307 . S
C43 C45 1.486 . S
N44 N40 1.370 . S
N44 C43 1.307 . S
C45 C43 1.486 . S
C45 H49 0.960 . S
C45 H50 0.960 . S
C45 H51 0.959 . S
H46 C42 0.960 . S
H47 C42 0.961 . S
H48 C42 0.960 . S
H49 C45 0.960 . S
H50 C45 0.960 . S
H51 C45 0.959 . S
C52 N53 1.317 . S
C52 N54 1.348 . S
C52 C55 1.485 . S
N53 C52 1.317 . S
N53 N57 1.370 . S
N54 C52 1.348 . S
N54 C56 1.346 . S
C55 C52 1.485 . S
C55 H59 0.960 . S
C55 H60 0.961 . S
C55 H61 0.960 . S
C56 N54 1.346 . S
C56 N57 1.307 . S
C56 C58 1.486 . S
N57 N53 1.370 . S
N57 C56 1.307 . S
C58 C56 1.486 . S
C58 H62 0.960 . S
C58 H63 0.960 . S
C58 H64 0.959 . S
H59 C55 0.960 . S
H60 C55 0.961 . S
H61 C55 0.960 . S
H62 C58 0.960 . S
H63 C58 0.960 . S
H64 C58 0.959 . S
C65 N66 1.317 . S
C65 N67 1.348 . S
C65 C68 1.485 . S
N66 C65 1.317 . S
N66 N70 1.370 . S
N67 C65 1.348 . S
N67 C69 1.346 . S
C68 C65 1.485 . S
C68 H72 0.960 . S
C68 H73 0.961 . S
C68 H74 0.960 . S
C69 N67 1.346 . S
C69 N70 1.307 . S
C69 C71 1.486 . S
N70 N66 1.370 . S
N70 C69 1.307 . S
C71 C69 1.486 . S
C71 H75 0.960 . S
C71 H76 0.960 . S
C71 H77 0.959 . S
H72 C68 0.960 . S
H73 C68 0.961 . S
H74 C68 0.960 . S
H75 C71 0.960 . S
H76 C71 0.960 . S
H77 C71 0.959 . S
C78 N79 1.317 . S
C78 N80 1.348 . S
C78 C81 1.485 . S
N79 C78 1.317 . S
N79 N83 1.370 . S
N80 C78 1.348 . S
N80 C82 1.346 . S
C81 C78 1.485 . S
C81 H85 0.960 . S
C81 H86 0.961 . S
C81 H87 0.960 . S
C82 N80 1.346 . S
C82 N83 1.307 . S
C82 C84 1.486 . S
N83 N79 1.370 . S
N83 C82 1.307 . S
C84 C82 1.486 . S
C84 H88 0.960 . S
C84 H89 0.960 . S
C84 H90 0.959 . S
H85 C81 0.960 . S
H86 C81 0.961 . S
H87 C81 0.960 . S
H88 C84 0.960 . S
H89 C84 0.960 . S
H90 C84 0.959 . S
C91 N92 1.317 . S
C91 N93 1.348 . S
C91 C94 1.485 . S
N92 C91 1.317 . S
N92 N96 1.370 . S
N93 C91 1.348 . S
N93 C95 1.346 . S
C94 C91 1.485 . S
C94 H98 0.960 . S
C94 H99 0.961 . S
C94 H100 0.960 . S
C95 N93 1.346 . S
C95 N96 1.307 . S
C95 C97 1.486 . S
N96 N92 1.370 . S
N96 C95 1.307 . S
C97 C95 1.486 . S
C97 H101 0.960 . S
C97 H102 0.960 . S
C97 H103 0.959 . S
H98 C94 0.960 . S
H99 C94 0.961 . S
H100 C94 0.960 . S
H101 C97 0.960 . S
H102 C97 0.960 . S
H103 C97 0.959 . S
Zn104 O110 1.920 . S
Zn104 O116 1.898 . S
Zn104 O119 1.905 . S
Zn105 O113 1.905 . S
Zn105 O114 1.898 . S
Zn105 O122 1.920 . S
Zn106 O109 2.080 . S
Zn106 O112 2.114 . S
Zn106 O115 2.120 . S
Zn106 O117 2.120 . S
Zn106 O118 2.114 . S
Zn106 O121 2.080 . S
C107 O112 1.166 . S
C107 O113 1.182 . S
C108 O114 1.167 . S
C108 O115 1.299 . S
O109 Zn106 2.080 . S
O109 C123 1.305 . S
O110 Zn104 1.920 . S
O110 C123 1.234 . S
C111 O116 1.167 . S
C111 O117 1.299 . S
O112 Zn106 2.114 . S
O112 C107 1.166 . S
O113 Zn105 1.905 . S
O113 C107 1.182 . S
O114 Zn105 1.898 . S
O114 C108 1.167 . S
O115 Zn106 2.120 . S
O115 C108 1.299 . S
O116 Zn104 1.898 . S
O116 C111 1.167 . S
O117 Zn106 2.120 . S
O117 C111 1.299 . S
O118 Zn106 2.114 . S
O118 C120 1.166 . S
O119 Zn104 1.905 . S
O119 C120 1.182 . S
C120 O118 1.166 . S
C120 O119 1.182 . S
O121 Zn106 2.080 . S
O121 C124 1.305 . S
O122 Zn105 1.920 . S
O122 C124 1.234 . S
C123 O109 1.305 . S
C123 O110 1.234 . S
C124 O121 1.305 . S
C124 O122 1.234 . S
Zn125 O131 1.920 . S
Zn125 O137 1.898 . S
Zn125 O140 1.905 . S
Zn126 O134 1.905 . S
Zn126 O135 1.898 . S
Zn126 O143 1.920 . S
Zn127 O130 2.080 . S
Zn127 O133 2.114 . S
Zn127 O136 2.120 . S
Zn127 O138 2.120 . S
Zn127 O139 2.114 . S
Zn127 O142 2.080 . S
C128 O133 1.166 . S
C128 O134 1.182 . S
C129 O135 1.167 . S
C129 O136 1.299 . S
O130 Zn127 2.080 . S
O130 C144 1.305 . S
O131 Zn125 1.920 . S
O131 C144 1.234 . S
C132 O137 1.167 . S
C132 O138 1.299 . S
O133 Zn127 2.114 . S
O133 C128 1.166 . S
O134 Zn126 1.905 . S
O134 C128 1.182 . S
O135 Zn126 1.898 . S
O135 C129 1.167 . S
O136 Zn127 2.120 . S
O136 C129 1.299 . S
O137 Zn125 1.898 . S
O137 C132 1.167 . S
O138 Zn127 2.120 . S
O138 C132 1.299 . S
O139 Zn127 2.114 . S
O139 C141 1.166 . S
O140 Zn125 1.905 . S
O140 C141 1.182 . S
C141 O139 1.166 . S
C141 O140 1.182 . S
O142 Zn127 2.080 . S
O142 C145 1.305 . S
O143 Zn126 1.920 . S
O143 C145 1.234 . S
C144 O130 1.305 . S
C144 O131 1.234 . S
C145 O142 1.305 . S
C145 O143 1.234 . S
Zn146 O152 1.920 . S
Zn146 O158 1.898 . S
Zn146 O161 1.905 . S
Zn147 O155 1.905 . S
Zn147 O156 1.898 . S
Zn147 O164 1.920 . S
Zn148 O151 2.080 . S
Zn148 O154 2.114 . S
Zn148 O157 2.120 . S
Zn148 O159 2.120 . S
Zn148 O160 2.114 . S
Zn148 O163 2.080 . S
C149 O154 1.166 . S
C149 O155 1.182 . S
C150 O156 1.167 . S
C150 O157 1.299 . S
O151 Zn148 2.080 . S
O151 C165 1.305 . S
O152 Zn146 1.920 . S
O152 C165 1.234 . S
C153 O158 1.167 . S
C153 O159 1.299 . S
O154 Zn148 2.114 . S
O154 C149 1.166 . S
O155 Zn147 1.905 . S
O155 C149 1.182 . S
O156 Zn147 1.898 . S
O156 C150 1.167 . S
O157 Zn148 2.120 . S
O157 C150 1.299 . S
O158 Zn146 1.898 . S
O158 C153 1.167 . S
O159 Zn148 2.120 . S
O159 C153 1.299 . S
O160 Zn148 2.114 . S
O160 C162 1.166 . S
O161 Zn146 1.905 . S
O161 C162 1.182 . S
C162 O160 1.166 . S
C162 O161 1.182 . S
O163 Zn148 2.080 . S
O163 C166 1.305 . S
O164 Zn147 1.920 . S
O164 C166 1.234 . S
C165 O151 1.305 . S
C165 O152 1.234 . S
C166 O163 1.305 . S
C166 O164 1.234 . S
Zn167 O173 1.920 . S
Zn167 O179 1.898 . S
Zn167 O182 1.905 . S
Zn168 O176 1.905 . S
Zn168 O177 1.898 . S
Zn168 O185 1.920 . S
Zn169 O172 2.080 . S
Zn169 O175 2.114 . S
Zn169 O178 2.120 . S
Zn169 O180 2.120 . S
Zn169 O181 2.114 . S
Zn169 O184 2.080 . S
C170 O175 1.166 . S
C170 O176 1.182 . S
C171 O177 1.167 . S
C171 O178 1.299 . S
O172 Zn169 2.080 . S
O172 C186 1.305 . S
O173 Zn167 1.920 . S
O173 C186 1.234 . S
C174 O179 1.167 . S
C174 O180 1.299 . S
O175 Zn169 2.114 . S
O175 C170 1.166 . S
O176 Zn168 1.905 . S
O176 C170 1.182 . S
O177 Zn168 1.898 . S
O177 C171 1.167 . S
O178 Zn169 2.120 . S
O178 C171 1.299 . S
O179 Zn167 1.898 . S
O179 C174 1.167 . S
O180 Zn169 2.120 . S
O180 C174 1.299 . S
O181 Zn169 2.114 . S
O181 C183 1.166 . S
O182 Zn167 1.905 . S
O182 C183 1.182 . S
C183 O181 1.166 . S
C183 O182 1.182 . S
O184 Zn169 2.080 . S
O184 C187 1.305 . S
O185 Zn168 1.920 . S
O185 C187 1.234 . S
C186 O172 1.305 . S
C186 O173 1.234 . S
C187 O184 1.305 . S
C187 O185 1.234 . S
C188 C189 1.349 . S
C188 C190 1.327 . S
C188 H213 0.950 . S
C189 C188 1.349 . S
C189 C205 1.349 . S
C190 C188 1.327 . S
C190 C209 1.429 . S
C190 H214 0.950 . S
C191 C208 1.574 . S
C191 C210 1.368 . S
C191 H215 0.949 . S
H192 C196 0.949 . S
C193 C194 1.349 . S
C193 C195 1.327 . S
C193 H216 0.950 . S
C194 C193 1.349 . S
C194 C206 1.349 . S
C195 C193 1.327 . S
C195 C211 1.429 . S
C195 H217 0.950 . S
C196 H192 0.949 . S
C196 C204 1.574 . S
C196 C212 1.368 . S
H197 C205 0.950 . S
H198 C203 0.950 . S
H199 C204 0.949 . S
H200 C206 0.950 . S
H201 C207 0.950 . S
H202 C208 0.949 . S
C203 H198 0.950 . S
C203 C205 1.327 . S
C203 C209 1.429 . S
C204 C196 1.574 . S
C204 H199 0.949 . S
C204 C210 1.368 . S
C205 C189 1.349 . S
C205 H197 0.950 . S
C205 C203 1.327 . S
C206 C194 1.349 . S
C206 H200 0.950 . S
C206 C207 1.327 . S
C207 H201 0.950 . S
C207 C206 1.327 . S
C207 C211 1.429 . S
C208 C191 1.574 . S
C208 H202 0.949 . S
C208 C212 1.368 . S
C209 C190 1.429 . S
C209 C203 1.429 . S
C209 C210 1.523 . S
C210 C191 1.368 . S
C210 C204 1.368 . S
C210 C209 1.523 . S
C211 C195 1.429 . S
C211 C207 1.429 . S
C211 C212 1.523 . S
C212 C196 1.368 . S
C212 C208 1.368 . S
C212 C211 1.523 . S
H213 C188 0.950 . S
H214 C190 0.950 . S
H215 C191 0.949 . S
H216 C193 0.950 . S
H217 C195 0.950 . S
C218 C219 1.349 . S
C218 C220 1.327 1_455 S
C218 H243 0.950 . S
C219 C218 1.349 . S
C219 C235 1.349 . S
C220 C218 1.327 1_655 S
C220 C239 1.429 . S
C220 H244 0.950 . S
C221 C238 1.574 . S
C221 C240 1.368 . S
C221 H245 0.949 . S
H222 C226 0.949 . S
C223 C224 1.349 . S
C223 C225 1.327 . S
C223 H246 0.950 . S
C224 C223 1.349 . S
C224 C236 1.349 . S
C225 C223 1.327 . S
C225 C241 1.429 . S
C225 H247 0.950 . S
C226 H222 0.949 . S
C226 C234 1.574 . S
C226 C242 1.368 . S
H227 C235 0.950 . S
H228 C233 0.950 . S
H229 C234 0.949 . S
H230 C236 0.950 . S
H231 C237 0.950 . S
H232 C238 0.949 . S
C233 H228 0.950 . S
C233 C235 1.327 1_655 S
C233 C239 1.429 . S
C234 C226 1.574 . S
C234 H229 0.949 . S
C234 C240 1.368 . S
C235 C219 1.349 . S
C235 H227 0.950 . S
C235 C233 1.327 1_455 S
C236 C224 1.349 . S
C236 H230 0.950 . S
C236 C237 1.327 . S
C237 H231 0.950 . S
C237 C236 1.327 . S
C237 C241 1.429 . S
C238 C221 1.574 . S
C238 H232 0.949 . S
C238 C242 1.368 . S
C239 C220 1.429 . S
C239 C233 1.429 . S
C239 C240 1.523 . S
C240 C221 1.368 . S
C240 C234 1.368 . S
C240 C239 1.523 . S
C241 C225 1.429 . S
C241 C237 1.429 . S
C241 C242 1.523 . S
C242 C226 1.368 . S
C242 C238 1.368 . S
C242 C241 1.523 . S
H243 C218 0.950 . S
H244 C220 0.950 . S
H245 C221 0.949 . S
H246 C223 0.950 . S
H247 C225 0.950 . S
C248 C249 1.349 . S
C248 C250 1.327 . S
C248 H273 0.950 . S
C249 C248 1.349 . S
C249 C265 1.349 . S
C250 C248 1.327 . S
C250 C269 1.429 . S
C250 H274 0.950 . S
C251 C268 1.574 . S
C251 C270 1.368 . S
C251 H275 0.949 . S
H252 C256 0.949 . S
C253 C254 1.349 . S
C253 C255 1.327 . S
C253 H276 0.950 . S
C254 C253 1.349 . S
C254 C266 1.349 . S
C255 C253 1.327 . S
C255 C271 1.429 . S
C255 H277 0.950 . S
C256 H252 0.949 . S
C256 C264 1.574 . S
C256 C272 1.368 . S
H257 C265 0.950 . S
H258 C263 0.950 . S
H259 C264 0.949 . S
H260 C266 0.950 . S
H261 C267 0.950 . S
H262 C268 0.949 . S
C263 H258 0.950 . S
C263 C265 1.327 . S
C263 C269 1.429 . S
C264 C256 1.574 . S
C264 H259 0.949 . S
C264 C270 1.368 . S
C265 C249 1.349 . S
C265 H257 0.950 . S
C265 C263 1.327 . S
C266 C254 1.349 . S
C266 H260 0.950 . S
C266 C267 1.327 . S
C267 H261 0.950 . S
C267 C266 1.327 . S
C267 C271 1.429 . S
C268 C251 1.574 . S
C268 H262 0.949 . S
C268 C272 1.368 . S
C269 C250 1.429 . S
C269 C263 1.429 . S
C269 C270 1.523 . S
C270 C251 1.368 . S
C270 C264 1.368 . S
C270 C269 1.523 . S
C271 C255 1.429 . S
C271 C267 1.429 . S
C271 C272 1.523 . S
C272 C256 1.368 . S
C272 C268 1.368 . S
C272 C271 1.523 . S
H273 C248 0.950 . S
H274 C250 0.950 . S
H275 C251 0.949 . S
H276 C253 0.950 . S
H277 C255 0.950 . S
C278 C279 1.349 . S
C278 C280 1.327 . S
C278 H303 0.950 . S
C279 C278 1.349 . S
C279 C295 1.349 . S
C280 C278 1.327 . S
C280 C299 1.429 . S
C280 H304 0.950 . S
C281 C298 1.574 . S
C281 C300 1.368 . S
C281 H305 0.949 . S
H282 C286 0.949 . S
C283 C284 1.349 . S
C283 C285 1.327 . S
C283 H306 0.950 . S
C284 C283 1.349 . S
C284 C296 1.349 . S
C285 C283 1.327 . S
C285 C301 1.429 . S
C285 H307 0.950 . S
C286 H282 0.949 . S
C286 C294 1.574 . S
C286 C302 1.368 . S
H287 C295 0.950 . S
H288 C293 0.950 . S
H289 C294 0.949 . S
H290 C296 0.950 . S
H291 C297 0.950 . S
H292 C298 0.949 . S
C293 H288 0.950 . S
C293 C295 1.327 . S
C293 C299 1.429 . S
C294 C286 1.574 . S
C294 H289 0.949 . S
C294 C300 1.368 . S
C295 C279 1.349 . S
C295 H287 0.950 . S
C295 C293 1.327 . S
C296 C284 1.349 . S
C296 H290 0.950 . S
C296 C297 1.327 . S
C297 H291 0.950 . S
C297 C296 1.327 . S
C297 C301 1.429 . S
C298 C281 1.574 . S
C298 H292 0.949 . S
C298 C302 1.368 . S
C299 C280 1.429 . S
C299 C293 1.429 . S
C299 C300 1.523 . S
C300 C281 1.368 . S
C300 C294 1.368 . S
C300 C299 1.523 . S
C301 C285 1.429 . S
C301 C297 1.429 . S
C301 C302 1.523 . S
C302 C286 1.368 . S
C302 C298 1.368 . S
C302 C301 1.523 . S
H303 C278 0.950 . S
H304 C280 0.950 . S
H305 C281 0.949 . S
H306 C283 0.950 . S
H307 C285 0.950 . S
C308 C309 1.349 . S
C308 C310 1.327 . S
C308 H333 0.950 . S
C309 C308 1.349 . S
C309 C325 1.349 . S
C310 C308 1.327 . S
C310 C329 1.429 . S
C310 H334 0.950 . S
C311 C328 1.574 . S
C311 C330 1.368 . S
C311 H335 0.949 . S
H312 C316 0.949 . S
C313 C314 1.349 . S
C313 C315 1.327 . S
C313 H336 0.950 . S
C314 C313 1.349 . S
C314 C326 1.349 . S
C315 C313 1.327 . S
C315 C331 1.429 . S
C315 H337 0.950 . S
C316 H312 0.949 . S
C316 C324 1.574 . S
C316 C332 1.368 . S
H317 C325 0.950 . S
H318 C323 0.950 . S
H319 C324 0.949 . S
H320 C326 0.950 . S
H321 C327 0.950 . S
H322 C328 0.949 . S
C323 H318 0.950 . S
C323 C325 1.327 . S
C323 C329 1.429 . S
C324 C316 1.574 . S
C324 H319 0.949 . S
C324 C330 1.368 . S
C325 C309 1.349 . S
C325 H317 0.950 . S
C325 C323 1.327 . S
C326 C314 1.349 . S
C326 H320 0.950 . S
C326 C327 1.327 . S
C327 H321 0.950 . S
C327 C326 1.327 . S
C327 C331 1.429 . S
C328 C311 1.574 . S
C328 H322 0.949 . S
C328 C332 1.368 . S
C329 C310 1.429 . S
C329 C323 1.429 . S
C329 C330 1.523 . S
C330 C311 1.368 . S
C330 C324 1.368 . S
C330 C329 1.523 . S
C331 C315 1.429 . S
C331 C327 1.429 . S
C331 C332 1.523 . S
C332 C316 1.368 . S
C332 C328 1.368 . S
C332 C331 1.523 . S
H333 C308 0.950 . S
H334 C310 0.950 . S
H335 C311 0.949 . S
H336 C313 0.950 . S
H337 C315 0.950 . S
C338 C339 1.349 . S
C338 C340 1.327 . S
C338 H363 0.950 . S
C339 C338 1.349 . S
C339 C355 1.349 . S
C340 C338 1.327 . S
C340 C359 1.429 . S
C340 H364 0.950 . S
C341 C358 1.574 . S
C341 C360 1.368 . S
C341 H365 0.949 . S
H342 C346 0.949 . S
C343 C344 1.349 . S
C343 C345 1.327 . S
C343 H366 0.950 . S
C344 C343 1.349 . S
C344 C356 1.349 . S
C345 C343 1.327 . S
C345 C361 1.429 . S
C345 H367 0.950 . S
C346 H342 0.949 . S
C346 C354 1.574 . S
C346 C362 1.368 . S
H347 C355 0.950 . S
H348 C353 0.950 . S
H349 C354 0.949 . S
H350 C356 0.950 . S
H351 C357 0.950 . S
H352 C358 0.949 . S
C353 H348 0.950 . S
C353 C355 1.327 . S
C353 C359 1.429 . S
C354 C346 1.574 . S
C354 H349 0.949 . S
C354 C360 1.368 . S
C355 C339 1.349 . S
C355 H347 0.950 . S
C355 C353 1.327 . S
C356 C344 1.349 . S
C356 H350 0.950 . S
C356 C357 1.327 . S
C357 H351 0.950 . S
C357 C356 1.327 . S
C357 C361 1.429 . S
C358 C341 1.574 . S
C358 H352 0.949 . S
C358 C362 1.368 . S
C359 C340 1.429 . S
C359 C353 1.429 . S
C359 C360 1.523 . S
C360 C341 1.368 . S
C360 C354 1.368 . S
C360 C359 1.523 . S
C361 C345 1.429 . S
C361 C357 1.429 . S
C361 C362 1.523 . S
C362 C346 1.368 . S
C362 C358 1.368 . S
C362 C361 1.523 . S
H363 C338 0.950 . S
H364 C340 0.950 . S
H365 C341 0.949 . S
H366 C343 0.950 . S
H367 C345 0.950 . S
C368 C369 1.349 . S
C368 C370 1.327 . S
C368 H393 0.950 . S
C369 C368 1.349 . S
C369 C385 1.349 . S
C370 C368 1.327 . S
C370 C389 1.429 . S
C370 H394 0.950 . S
C371 C388 1.574 . S
C371 C390 1.368 . S
C371 H395 0.949 . S
H372 C376 0.949 . S
C373 C374 1.349 . S
C373 C375 1.327 . S
C373 H396 0.950 . S
C374 C373 1.349 . S
C374 C386 1.349 . S
C375 C373 1.327 . S
C375 C391 1.429 . S
C375 H397 0.950 . S
C376 H372 0.949 . S
C376 C384 1.574 . S
C376 C392 1.368 . S
H377 C385 0.950 . S
H378 C383 0.950 . S
H379 C384 0.949 . S
H380 C386 0.950 . S
H381 C387 0.950 . S
H382 C388 0.949 . S
C383 H378 0.950 . S
C383 C385 1.327 . S
C383 C389 1.429 . S
C384 C376 1.574 . S
C384 H379 0.949 . S
C384 C390 1.368 . S
C385 C369 1.349 . S
C385 H377 0.950 . S
C385 C383 1.327 . S
C386 C374 1.349 . S
C386 H380 0.950 . S
C386 C387 1.327 . S
C387 H381 0.950 . S
C387 C386 1.327 . S
C387 C391 1.429 . S
C388 C371 1.574 . S
C388 H382 0.949 . S
C388 C392 1.368 . S
C389 C370 1.429 . S
C389 C383 1.429 . S
C389 C390 1.523 . S
C390 C371 1.368 . S
C390 C384 1.368 . S
C390 C389 1.523 . S
C391 C375 1.429 . S
C391 C387 1.429 . S
C391 C392 1.523 . S
C392 C376 1.368 . S
C392 C388 1.368 . S
C392 C391 1.523 . S
H393 C368 0.950 . S
H394 C370 0.950 . S
H395 C371 0.949 . S
H396 C373 0.950 . S
H397 C375 0.950 . S
C398 C399 1.349 . S
C398 C400 1.327 1_455 S
C398 H423 0.950 . S
C399 C398 1.349 . S
C399 C415 1.349 . S
C400 C398 1.327 1_655 S
C400 C419 1.429 . S
C400 H424 0.950 . S
C401 C418 1.574 . S
C401 C420 1.368 . S
C401 H425 0.949 . S
H402 C406 0.949 . S
C403 C404 1.349 . S
C403 C405 1.327 . S
C403 H426 0.950 . S
C404 C403 1.349 . S
C404 C416 1.349 . S
C405 C403 1.327 . S
C405 C421 1.429 . S
C405 H427 0.950 . S
C406 H402 0.949 . S
C406 C414 1.574 . S
C406 C422 1.368 . S
H407 C415 0.950 . S
H408 C413 0.950 . S
H409 C414 0.949 . S
H410 C416 0.950 . S
H411 C417 0.950 . S
H412 C418 0.949 . S
C413 H408 0.950 . S
C413 C415 1.327 1_655 S
C413 C419 1.429 . S
C414 C406 1.574 . S
C414 H409 0.949 . S
C414 C420 1.368 . S
C415 C399 1.349 . S
C415 H407 0.950 . S
C415 C413 1.327 1_455 S
C416 C404 1.349 . S
C416 H410 0.950 . S
C416 C417 1.327 . S
C417 H411 0.950 . S
C417 C416 1.327 . S
C417 C421 1.429 . S
C418 C401 1.574 . S
C418 H412 0.949 . S
C418 C422 1.368 . S
C419 C400 1.429 . S
C419 C413 1.429 . S
C419 C420 1.523 . S
C420 C401 1.368 . S
C420 C414 1.368 . S
C420 C419 1.523 . S
C421 C405 1.429 . S
C421 C417 1.429 . S
C421 C422 1.523 . S
C422 C406 1.368 . S
C422 C418 1.368 . S
C422 C421 1.523 . S
H423 C398 0.950 . S
H424 C400 0.950 . S
H425 C401 0.949 . S
H426 C403 0.950 . S
H427 C405 0.950 . S
C428 C429 1.349 . S
C428 C430 1.327 . S
C428 H453 0.950 . S
C429 C428 1.349 . S
C429 C445 1.349 . S
C430 C428 1.327 . S
C430 C449 1.429 . S
C430 H454 0.950 . S
C431 C448 1.574 . S
C431 C450 1.368 . S
C431 H455 0.949 . S
H432 C436 0.949 . S
C433 C434 1.349 . S
C433 C435 1.327 . S
C433 H456 0.950 . S
C434 C433 1.349 . S
C434 C446 1.349 . S
C435 C433 1.327 . S
C435 C451 1.429 . S
C435 H457 0.950 . S
C436 H432 0.949 . S
C436 C444 1.574 . S
C436 C452 1.368 . S
H437 C445 0.950 . S
H438 C443 0.950 . S
H439 C444 0.949 . S
H440 C446 0.950 . S
H441 C447 0.950 . S
H442 C448 0.949 . S
C443 H438 0.950 . S
C443 C445 1.327 . S
C443 C449 1.429 . S
C444 C436 1.574 . S
C444 H439 0.949 . S
C444 C450 1.368 . S
C445 C429 1.349 . S
C445 H437 0.950 . S
C445 C443 1.327 . S
C446 C434 1.349 . S
C446 H440 0.950 . S
C446 C447 1.327 . S
C447 H441 0.950 . S
C447 C446 1.327 . S
C447 C451 1.429 . S
C448 C431 1.574 . S
C448 H442 0.949 . S
C448 C452 1.368 . S
C449 C430 1.429 . S
C449 C443 1.429 . S
C449 C450 1.523 . S
C450 C431 1.368 . S
C450 C444 1.368 . S
C450 C449 1.523 . S
C451 C435 1.429 . S
C451 C447 1.429 . S
C451 C452 1.523 . S
C452 C436 1.368 . S
C452 C448 1.368 . S
C452 C451 1.523 . S
H453 C428 0.950 . S
H454 C430 0.950 . S
H455 C431 0.949 . S
H456 C433 0.950 . S
H457 C435 0.950 . S
C458 C459 1.349 . S
C458 C460 1.327 . S
C458 H483 0.950 . S
C459 C458 1.349 . S
C459 C475 1.349 . S
C460 C458 1.327 . S
C460 C479 1.429 . S
C460 H484 0.950 . S
C461 C478 1.574 . S
C461 C480 1.368 . S
C461 H485 0.949 . S
H462 C466 0.949 . S
C463 C464 1.349 . S
C463 C465 1.327 . S
C463 H486 0.950 . S
C464 C463 1.349 . S
C464 C476 1.349 . S
C465 C463 1.327 . S
C465 C481 1.429 . S
C465 H487 0.950 . S
C466 H462 0.949 . S
C466 C474 1.574 . S
C466 C482 1.368 . S
H467 C475 0.950 . S
H468 C473 0.950 . S
H469 C474 0.949 . S
H470 C476 0.950 . S
H471 C477 0.950 . S
H472 C478 0.949 . S
C473 H468 0.950 . S
C473 C475 1.327 . S
C473 C479 1.429 . S
C474 C466 1.574 . S
C474 H469 0.949 . S
C474 C480 1.368 . S
C475 C459 1.349 . S
C475 H467 0.950 . S
C475 C473 1.327 . S
C476 C464 1.349 . S
C476 H470 0.950 . S
C476 C477 1.327 . S
C477 H471 0.950 . S
C477 C476 1.327 . S
C477 C481 1.429 . S
C478 C461 1.574 . S
C478 H472 0.949 . S
C478 C482 1.368 . S
C479 C460 1.429 . S
C479 C473 1.429 . S
C479 C480 1.523 . S
C480 C461 1.368 . S
C480 C474 1.368 . S
C480 C479 1.523 . S
C481 C465 1.429 . S
C481 C477 1.429 . S
C481 C482 1.523 . S
C482 C466 1.368 . S
C482 C478 1.368 . S
C482 C481 1.523 . S
H483 C458 0.950 . S
H484 C460 0.950 . S
H485 C461 0.949 . S
H486 C463 0.950 . S
H487 C465 0.950 . S
C488 C489 1.349 . S
C488 C490 1.327 . S
C488 H513 0.950 . S
C489 C488 1.349 . S
C489 C505 1.349 . S
C490 C488 1.327 . S
C490 C509 1.429 . S
C490 H514 0.950 . S
C491 C508 1.574 . S
C491 C510 1.368 . S
C491 H515 0.949 . S
H492 C496 0.949 . S
C493 C494 1.349 . S
C493 C495 1.327 . S
C493 H516 0.950 . S
C494 C493 1.349 . S
C494 C506 1.349 . S
C495 C493 1.327 . S
C495 C511 1.429 . S
C495 H517 0.950 . S
C496 H492 0.949 . S
C496 C504 1.574 . S
C496 C512 1.368 . S
H497 C505 0.950 . S
H498 C503 0.950 . S
H499 C504 0.949 . S
H500 C506 0.950 . S
H501 C507 0.950 . S
H502 C508 0.949 . S
C503 H498 0.950 . S
C503 C505 1.327 . S
C503 C509 1.429 . S
C504 C496 1.574 . S
C504 H499 0.949 . S
C504 C510 1.368 . S
C505 C489 1.349 . S
C505 H497 0.950 . S
C505 C503 1.327 . S
C506 C494 1.349 . S
C506 H500 0.950 . S
C506 C507 1.327 . S
C507 H501 0.950 . S
C507 C506 1.327 . S
C507 C511 1.429 . S
C508 C491 1.574 . S
C508 H502 0.949 . S
C508 C512 1.368 . S
C509 C490 1.429 . S
C509 C503 1.429 . S
C509 C510 1.523 . S
C510 C491 1.368 . S
C510 C504 1.368 . S
C510 C509 1.523 . S
C511 C495 1.429 . S
C511 C507 1.429 . S
C511 C512 1.523 . S
C512 C496 1.368 . S
C512 C508 1.368 . S
C512 C511 1.523 . S
H513 C488 0.950 . S
H514 C490 0.950 . S
H515 C491 0.949 . S
H516 C493 0.950 . S
H517 C495 0.950 . S
C518 C519 1.349 . S
C518 C520 1.327 . S
C518 H543 0.950 . S
C519 C518 1.349 . S
C519 C535 1.349 . S
C520 C518 1.327 . S
C520 C539 1.429 . S
C520 H544 0.950 . S
C521 C538 1.574 . S
C521 C540 1.368 . S
C521 H545 0.949 . S
H522 C526 0.949 . S
C523 C524 1.349 . S
C523 C525 1.327 . S
C523 H546 0.950 . S
C524 C523 1.349 . S
C524 C536 1.349 . S
C525 C523 1.327 . S
C525 C541 1.429 . S
C525 H547 0.950 . S
C526 H522 0.949 . S
C526 C534 1.574 . S
C526 C542 1.368 . S
H527 C535 0.950 . S
H528 C533 0.950 . S
H529 C534 0.949 . S
H530 C536 0.950 . S
H531 C537 0.950 . S
H532 C538 0.949 . S
C533 H528 0.950 . S
C533 C535 1.327 . S
C533 C539 1.429 . S
C534 C526 1.574 . S
C534 H529 0.949 . S
C534 C540 1.368 . S
C535 C519 1.349 . S
C535 H527 0.950 . S
C535 C533 1.327 . S
C536 C524 1.349 . S
C536 H530 0.950 . S
C536 C537 1.327 . S
C537 H531 0.950 . S
C537 C536 1.327 . S
C537 C541 1.429 . S
C538 C521 1.574 . S
C538 H532 0.949 . S
C538 C542 1.368 . S
C539 C520 1.429 . S
C539 C533 1.429 . S
C539 C540 1.523 . S
C540 C521 1.368 . S
C540 C534 1.368 . S
C540 C539 1.523 . S
C541 C525 1.429 . S
C541 C537 1.429 . S
C541 C542 1.523 . S
C542 C526 1.368 . S
C542 C538 1.368 . S
C542 C541 1.523 . S
H543 C518 0.950 . S
H544 C520 0.950 . S
H545 C521 0.949 . S
H546 C523 0.950 . S
H547 C525 0.950 . S
C548 C549 1.349 . S
C548 C550 1.327 . S
C548 H573 0.950 . S
C549 C548 1.349 . S
C549 C565 1.349 . S
C550 C548 1.327 . S
C550 C569 1.429 . S
C550 H574 0.950 . S
C551 C568 1.574 1_565 S
C551 C570 1.368 . S
C551 H575 0.949 . S
H552 C556 0.949 . S
C553 C554 1.349 . S
C553 C555 1.327 . S
C553 H576 0.950 . S
C554 C553 1.349 . S
C554 C566 1.349 . S
C555 C553 1.327 . S
C555 C571 1.429 . S
C555 H577 0.950 . S
C556 H552 0.949 . S
C556 C564 1.574 1_545 S
C556 C572 1.368 . S
H557 C565 0.950 . S
H558 C563 0.950 . S
H559 C564 0.949 . S
H560 C566 0.950 . S
H561 C567 0.950 . S
H562 C568 0.949 . S
C563 H558 0.950 . S
C563 C565 1.327 . S
C563 C569 1.429 . S
C564 C556 1.574 1_565 S
C564 H559 0.949 . S
C564 C570 1.368 . S
C565 C549 1.349 . S
C565 H557 0.950 . S
C565 C563 1.327 . S
C566 C554 1.349 . S
C566 H560 0.950 . S
C566 C567 1.327 . S
C567 H561 0.950 . S
C567 C566 1.327 . S
C567 C571 1.429 . S
C568 C551 1.574 1_545 S
C568 H562 0.949 . S
C568 C572 1.368 . S
C569 C550 1.429 . S
C569 C563 1.429 . S
C569 C570 1.523 . S
C570 C551 1.368 . S
C570 C564 1.368 . S
C570 C569 1.523 . S
C571 C555 1.429 . S
C571 C567 1.429 . S
C571 C572 1.523 . S
C572 C556 1.368 . S
C572 C568 1.368 . S
C572 C571 1.523 . S
H573 C548 0.950 . S
H574 C550 0.950 . S
H575 C551 0.949 . S
H576 C553 0.950 . S
H577 C555 0.950 . S
C578 C579 1.349 . S
C578 C580 1.327 . S
C578 H603 0.950 . S
C579 C578 1.349 . S
C579 C595 1.349 . S
C580 C578 1.327 . S
C580 C599 1.429 . S
C580 H604 0.950 . S
C581 C598 1.574 . S
C581 C600 1.368 . S
C581 H605 0.949 . S
H582 C586 0.949 . S
C583 C584 1.349 . S
C583 C585 1.327 . S
C583 H606 0.950 . S
C584 C583 1.349 . S
C584 C596 1.349 . S
C585 C583 1.327 . S
C585 C601 1.429 . S
C585 H607 0.950 . S
C586 H582 0.949 . S
C586 C594 1.574 . S
C586 C602 1.368 . S
H587 C595 0.950 . S
H588 C593 0.950 . S
H589 C594 0.949 . S
H590 C596 0.950 . S
H591 C597 0.950 . S
H592 C598 0.936 1_565 S
C593 H588 0.950 . S
C593 C595 1.327 . S
C593 C599 1.429 . S
C594 C586 1.574 . S
C594 H589 0.949 . S
C594 C600 1.368 . S
C595 C579 1.349 . S
C595 H587 0.950 . S
C595 C593 1.327 . S
C596 C584 1.349 . S
C596 H590 0.950 . S
C596 C597 1.327 . S
C597 H591 0.950 . S
C597 C596 1.327 . S
C597 C601 1.429 . S
C598 C581 1.574 . S
C598 H592 0.936 1_545 S
C598 C602 1.368 . S
C599 C580 1.429 . S
C599 C593 1.429 . S
C599 C600 1.523 . S
C600 C581 1.368 . S
C600 C594 1.368 . S
C600 C599 1.523 . S
C601 C585 1.429 . S
C601 C597 1.429 . S
C601 C602 1.523 1_565 S
C602 C586 1.368 . S
C602 C598 1.368 . S
C602 C601 1.523 1_545 S
H603 C578 0.950 . S
H604 C580 0.950 . S
H605 C581 0.949 . S
H606 C583 0.950 . S
H607 C585 0.950 . S
C608 C609 1.349 . S
C608 C610 1.327 . S
C608 H633 0.950 . S
C609 C608 1.349 . S
C609 C625 1.349 . S
C610 C608 1.327 . S
C610 C629 1.429 . S
C610 H634 0.950 . S
C611 C628 1.574 1_545 S
C611 C630 1.368 . S
C611 H635 0.949 . S
H612 C616 0.949 . S
C613 C614 1.349 . S
C613 C615 1.327 . S
C613 H636 0.950 . S
C614 C613 1.349 . S
C614 C626 1.349 . S
C615 C613 1.327 . S
C615 C631 1.429 . S
C615 H637 0.950 . S
C616 H612 0.949 . S
C616 C624 1.574 . S
C616 C632 1.368 . S
H617 C625 0.950 . S
H618 C623 0.950 . S
H619 C624 0.949 . S
H620 C626 0.950 . S
H621 C627 0.950 . S
H622 C628 0.949 . S
C623 H618 0.950 . S
C623 C625 1.327 . S
C623 C629 1.429 . S
C624 C616 1.574 . S
C624 H619 0.949 . S
C624 C630 1.368 1_565 S
C625 C609 1.349 . S
C625 H617 0.950 . S
C625 C623 1.327 . S
C626 C614 1.349 . S
C626 H620 0.950 . S
C626 C627 1.327 . S
C627 H621 0.950 . S
C627 C626 1.327 . S
C627 C631 1.429 . S
C628 C611 1.574 1_565 S
C628 H622 0.949 . S
C628 C632 1.368 . S
C629 C610 1.429 . S
C629 C623 1.429 . S
C629 C630 1.523 . S
C630 C611 1.368 . S
C630 C624 1.368 1_545 S
C630 C629 1.523 . S
C631 C615 1.429 . S
C631 C627 1.429 . S
C631 C632 1.523 . S
C632 C616 1.368 . S
C632 C628 1.368 . S
C632 C631 1.523 . S
H633 C608 0.950 . S
H634 C610 0.950 . S
H635 C611 0.949 . S
H636 C613 0.950 . S
H637 C615 0.950 . S
C638 C639 1.349 . S
C638 C640 1.327 . S
C638 H663 0.950 . S
C639 C638 1.349 . S
C639 C655 1.349 . S
C640 C638 1.327 . S
C640 C659 1.429 . S
C640 H664 0.950 . S
C641 C658 1.574 . S
C641 C660 1.368 . S
C641 H665 0.949 . S
H642 C646 0.949 . S
C643 C644 1.349 . S
C643 C645 1.327 . S
C643 H666 0.950 . S
C644 C643 1.349 . S
C644 C656 1.349 . S
C645 C643 1.327 . S
C645 C661 1.429 . S
C645 H667 0.950 . S
C646 H642 0.949 . S
C646 C654 1.574 . S
C646 C662 1.368 . S
H647 C655 0.950 . S
H648 C653 0.950 . S
H649 C654 0.949 . S
H650 C656 0.950 . S
H651 C657 0.950 . S
H652 C658 0.949 . S
C653 H648 0.950 . S
C653 C655 1.327 . S
C653 C659 1.429 . S
C654 C646 1.574 . S
C654 H649 0.949 . S
C654 C660 1.368 . S
C655 C639 1.349 . S
C655 H647 0.950 . S
C655 C653 1.327 . S
C656 C644 1.349 . S
C656 H650 0.950 . S
C656 C657 1.327 . S
C657 H651 0.950 . S
C657 C656 1.327 . S
C657 C661 1.429 . S
C658 C641 1.574 . S
C658 H652 0.949 . S
C658 C662 1.368 . S
C659 C640 1.429 . S
C659 C653 1.429 . S
C659 C660 1.523 . S
C660 C641 1.368 . S
C660 C654 1.368 . S
C660 C659 1.523 . S
C661 C645 1.429 . S
C661 C657 1.429 . S
C661 C662 1.523 1_545 S
C662 C646 1.368 . S
C662 C658 1.368 . S
C662 C661 1.523 1_565 S
H663 C638 0.950 . S
H664 C640 0.950 . S
H665 C641 0.949 . S
H666 C643 0.950 . S
H667 C645 0.950 . S
C668 C669 1.349 . S
C668 C670 1.327 . S
C668 H693 0.950 . S
C669 C668 1.349 . S
C669 C685 1.349 . S
C670 C668 1.327 . S
C670 C689 1.429 . S
C670 H694 0.950 . S
C671 C688 1.593 . S
C671 C690 1.365 1_556 S
C671 H695 0.935 1_556 S
H672 C676 0.949 . S
C673 C674 1.349 . S
C673 C675 1.327 . S
C673 H696 0.950 . S
C674 C673 1.349 . S
C674 C686 1.349 . S
C675 C673 1.327 . S
C675 C691 1.429 . S
C675 H697 0.950 . S
C676 H672 0.949 . S
C676 C684 1.574 . S
C676 C692 1.368 . S
H677 C685 0.950 . S
H678 C683 0.950 . S
H679 C684 0.949 . S
H680 C686 0.950 . S
H681 C687 0.950 . S
H682 C688 0.949 . S
C683 H678 0.950 . S
C683 C685 1.327 . S
C683 C689 1.429 . S
C684 C676 1.574 . S
C684 H679 0.949 . S
C684 C690 1.368 1_556 S
C685 C669 1.349 . S
C685 H677 0.950 . S
C685 C683 1.327 . S
C686 C674 1.349 . S
C686 H680 0.950 . S
C686 C687 1.327 . S
C687 H681 0.950 . S
C687 C686 1.327 . S
C687 C691 1.429 . S
C688 C671 1.593 . S
C688 H682 0.949 . S
C688 C692 1.368 . S
C689 C670 1.429 . S
C689 C683 1.429 . S
C689 C690 1.523 . S
C690 C671 1.365 1_554 S
C690 C684 1.368 1_554 S
C690 C689 1.523 . S
C691 C675 1.429 . S
C691 C687 1.429 . S
C691 C692 1.523 . S
C692 C676 1.368 . S
C692 C688 1.368 . S
C692 C691 1.523 . S
H693 C668 0.950 . S
H694 C670 0.950 . S
H695 C671 0.935 1_554 S
H696 C673 0.950 . S
H697 C675 0.950 . S
C698 C699 1.349 . S
C698 C700 1.327 . S
C698 H723 0.950 . S
C699 C698 1.349 . S
C699 C715 1.349 . S
C700 C698 1.327 . S
C700 C719 1.429 . S
C700 H724 0.950 . S
C701 C718 1.574 . S
C701 C720 1.368 . S
C701 H725 0.949 . S
H702 C706 0.949 . S
C703 C704 1.349 . S
C703 C705 1.327 . S
C703 H726 0.950 . S
C704 C703 1.349 . S
C704 C716 1.349 . S
C705 C703 1.327 . S
C705 C721 1.429 . S
C705 H727 0.950 . S
C706 H702 0.949 . S
C706 C714 1.574 . S
C706 C722 1.368 . S
H707 C715 0.950 . S
H708 C713 0.950 . S
H709 C714 0.949 . S
H710 C716 0.950 . S
H711 C717 0.950 . S
H712 C718 0.949 . S
C713 H708 0.950 . S
C713 C715 1.327 . S
C713 C719 1.429 . S
C714 C706 1.574 . S
C714 H709 0.949 . S
C714 C720 1.368 . S
C715 C699 1.349 . S
C715 H707 0.950 . S
C715 C713 1.327 . S
C716 C704 1.349 . S
C716 H710 0.950 . S
C716 C717 1.327 . S
C717 H711 0.950 . S
C717 C716 1.327 . S
C717 C721 1.429 . S
C718 C701 1.574 . S
C718 H712 0.949 . S
C718 C722 1.368 . S
C719 C700 1.429 . S
C719 C713 1.429 . S
C719 C720 1.523 . S
C720 C701 1.368 . S
C720 C714 1.368 . S
C720 C719 1.523 . S
C721 C705 1.429 . S
C721 C717 1.429 . S
C721 C722 1.523 . S
C722 C706 1.368 . S
C722 C718 1.368 . S
C722 C721 1.523 . S
H723 C698 0.950 . S
H724 C700 0.950 . S
H725 C701 0.949 . S
H726 C703 0.950 . S
H727 C705 0.950 . S
C728 C729 1.349 . S
C728 C730 1.327 . S
C728 H753 0.950 . S
C729 C728 1.349 . S
C729 C745 1.349 . S
C730 C728 1.327 . S
C730 C749 1.429 . S
C730 H754 0.950 . S
C731 C748 1.574 . S
C731 C750 1.368 . S
C731 H755 0.949 . S
H732 C736 0.949 . S
C733 C734 1.349 . S
C733 C735 1.327 . S
C733 H756 0.950 . S
C734 C733 1.349 . S
C734 C746 1.349 . S
C735 C733 1.327 . S
C735 C751 1.429 . S
C735 H757 0.950 . S
C736 H732 0.949 . S
C736 C744 1.574 . S
C736 C752 1.368 . S
H737 C745 0.950 . S
H738 C743 0.950 . S
H739 C744 0.949 . S
H740 C746 0.950 . S
H741 C747 0.950 . S
H742 C748 0.949 . S
C743 H738 0.950 . S
C743 C745 1.327 . S
C743 C749 1.429 . S
C744 C736 1.574 . S
C744 H739 0.949 . S
C744 C750 1.368 . S
C745 C729 1.349 . S
C745 H737 0.950 . S
C745 C743 1.327 . S
C746 C734 1.349 . S
C746 H740 0.950 . S
C746 C747 1.327 . S
C747 H741 0.950 . S
C747 C746 1.327 . S
C747 C751 1.429 . S
C748 C731 1.574 . S
C748 H742 0.949 . S
C748 C752 1.368 . S
C749 C730 1.429 . S
C749 C743 1.429 . S
C749 C750 1.523 . S
C750 C731 1.368 . S
C750 C744 1.368 . S
C750 C749 1.523 . S
C751 C735 1.429 . S
C751 C747 1.429 . S
C751 C752 1.523 . S
C752 C736 1.368 . S
C752 C748 1.368 . S
C752 C751 1.523 . S
H753 C728 0.950 . S
H754 C730 0.950 . S
H755 C731 0.949 . S
H756 C733 0.950 . S
H757 C735 0.950 . S
C758 C759 1.349 . S
C758 C760 1.327 . S
C758 H783 0.950 . S
C759 C758 1.349 . S
C759 C775 1.349 . S
C760 C758 1.327 . S
C760 C779 1.429 . S
C760 H784 0.950 . S
C761 C778 1.574 . S
C761 C780 1.368 . S
C761 H785 0.949 . S
H762 C766 0.949 . S
C763 C764 1.349 . S
C763 C765 1.327 . S
C763 H786 0.950 . S
C764 C763 1.349 . S
C764 C776 1.349 . S
C765 C763 1.327 . S
C765 C781 1.429 . S
C765 H787 0.950 . S
C766 H762 0.949 . S
C766 C774 1.574 . S
C766 C782 1.368 . S
H767 C775 0.950 . S
H768 C773 0.950 . S
H769 C774 0.949 . S
H770 C776 0.950 . S
H771 C777 0.950 . S
H772 C778 0.949 . S
C773 H768 0.950 . S
C773 C775 1.327 . S
C773 C779 1.429 . S
C774 C766 1.574 . S
C774 H769 0.949 . S
C774 C780 1.368 . S
C775 C759 1.349 . S
C775 H767 0.950 . S
C775 C773 1.327 . S
C776 C764 1.349 . S
C776 H770 0.950 . S
C776 C777 1.327 . S
C777 H771 0.950 . S
C777 C776 1.327 . S
C777 C781 1.429 . S
C778 C761 1.574 . S
C778 H772 0.949 . S
C778 C782 1.368 . S
C779 C760 1.429 . S
C779 C773 1.429 . S
C779 C780 1.523 . S
C780 C761 1.368 . S
C780 C774 1.368 . S
C780 C779 1.523 . S
C781 C765 1.429 . S
C781 C777 1.429 . S
C781 C782 1.523 . S
C782 C766 1.368 . S
C782 C778 1.368 . S
C782 C781 1.523 . S
H783 C758 0.950 . S
H784 C760 0.950 . S
H785 C761 0.949 . S
H786 C763 0.950 . S
H787 C765 0.950 . S
C788 C789 1.349 . S
C788 C790 1.327 . S
C788 H813 0.950 . S
C789 C788 1.349 . S
C789 C805 1.349 . S
C790 C788 1.327 . S
C790 C809 1.429 . S
C790 H814 0.950 . S
C791 C808 1.574 . S
C791 C810 1.368 1_554 S
C791 H815 0.952 1_554 S
H792 C796 0.949 . S
C793 C794 1.349 . S
C793 C795 1.327 . S
C793 H816 0.950 . S
C794 C793 1.349 . S
C794 C806 1.349 . S
C795 C793 1.327 . S
C795 C811 1.429 . S
C795 H817 0.950 . S
C796 H792 0.949 . S
C796 C804 1.574 . S
C796 C812 1.368 . S
H797 C805 0.950 . S
H798 C803 0.950 . S
H799 C804 0.949 1_556 S
H800 C806 0.950 . S
H801 C807 0.950 . S
H802 C808 0.949 . S
C803 H798 0.950 . S
C803 C805 1.327 . S
C803 C809 1.429 . S
C804 C796 1.574 . S
C804 H799 0.949 1_554 S
C804 C810 1.368 1_554 S
C805 C789 1.349 . S
C805 H797 0.950 . S
C805 C803 1.327 . S
C806 C794 1.349 . S
C806 H800 0.950 . S
C806 C807 1.327 . S
C807 H801 0.950 . S
C807 C806 1.327 . S
C807 C811 1.429 . S
C808 C791 1.574 . S
C808 H802 0.949 . S
C808 C812 1.368 . S
C809 C790 1.429 . S
C809 C803 1.429 . S
C809 C810 1.523 . S
C810 C791 1.368 1_556 S
C810 C804 1.368 1_556 S
C810 C809 1.523 . S
C811 C795 1.429 . S
C811 C807 1.429 . S
C811 C812 1.523 . S
C812 C796 1.368 . S
C812 C808 1.368 . S
C812 C811 1.523 . S
H813 C788 0.950 . S
H814 C790 0.950 . S
H815 C791 0.952 1_556 S
H816 C793 0.950 . S
H817 C795 0.950 . S
C818 C819 1.349 . S
C818 C820 1.327 . S
C818 H843 0.950 . S
C819 C818 1.349 . S
C819 C835 1.349 . S
C820 C818 1.327 . S
C820 C839 1.429 . S
C820 H844 0.950 . S
C821 C838 1.574 . S
C821 C840 1.368 . S
C821 H845 0.949 . S
H822 C826 0.949 . S
C823 C824 1.349 . S
C823 C825 1.327 . S
C823 H846 0.950 . S
C824 C823 1.349 . S
C824 C836 1.349 . S
C825 C823 1.327 . S
C825 C841 1.429 . S
C825 H847 0.950 . S
C826 H822 0.949 . S
C826 C834 1.574 . S
C826 C842 1.368 . S
H827 C835 0.950 . S
H828 C833 0.950 . S
H829 C834 0.949 . S
H830 C836 0.950 . S
H831 C837 0.950 . S
H832 C838 0.949 . S
C833 H828 0.950 . S
C833 C835 1.327 . S
C833 C839 1.429 . S
C834 C826 1.574 . S
C834 H829 0.949 . S
C834 C840 1.368 . S
C835 C819 1.349 . S
C835 H827 0.950 . S
C835 C833 1.327 . S
C836 C824 1.349 . S
C836 H830 0.950 . S
C836 C837 1.327 . S
C837 H831 0.950 . S
C837 C836 1.327 . S
C837 C841 1.429 . S
C838 C821 1.574 . S
C838 H832 0.949 . S
C838 C842 1.368 . S
C839 C820 1.429 . S
C839 C833 1.429 . S
C839 C840 1.523 . S
C840 C821 1.368 . S
C840 C834 1.368 . S
C840 C839 1.523 . S
C841 C825 1.429 . S
C841 C837 1.429 . S
C841 C842 1.523 . S
C842 C826 1.368 . S
C842 C838 1.368 . S
C842 C841 1.523 . S
H843 C818 0.950 . S
H844 C820 0.950 . S
H845 C821 0.949 . S
H846 C823 0.950 . S
H847 C825 0.950 . S
C848 C849 1.349 . S
C848 C850 1.327 . S
C848 H873 0.950 . S
C849 C848 1.349 . S
C849 C865 1.349 . S
C850 C848 1.327 . S
C850 C869 1.429 . S
C850 H874 0.950 . S
C851 C868 1.574 . S
C851 C870 1.368 . S
C851 H875 0.949 . S
H852 C856 0.949 . S
C853 C854 1.349 . S
C853 C855 1.327 . S
C853 H876 0.950 . S
C854 C853 1.349 . S
C854 C866 1.349 . S
C855 C853 1.327 . S
C855 C871 1.429 . S
C855 H877 0.950 . S
C856 H852 0.949 . S
C856 C864 1.574 . S
C856 C872 1.368 . S
H857 C865 0.950 . S
H858 C863 0.950 . S
H859 C864 0.949 . S
H860 C866 0.950 . S
H861 C867 0.950 . S
H862 C868 0.949 . S
C863 H858 0.950 . S
C863 C865 1.327 . S
C863 C869 1.429 . S
C864 C856 1.574 . S
C864 H859 0.949 . S
C864 C870 1.368 . S
C865 C849 1.349 . S
C865 H857 0.950 . S
C865 C863 1.327 . S
C866 C854 1.349 . S
C866 H860 0.950 . S
C866 C867 1.327 . S
C867 H861 0.950 . S
C867 C866 1.327 . S
C867 C871 1.429 . S
C868 C851 1.574 . S
C868 H862 0.949 . S
C868 C872 1.368 . S
C869 C850 1.429 . S
C869 C863 1.429 . S
C869 C870 1.523 . S
C870 C851 1.368 . S
C870 C864 1.368 . S
C870 C869 1.523 . S
C871 C855 1.429 . S
C871 C867 1.429 . S
C871 C872 1.523 . S
C872 C856 1.368 . S
C872 C868 1.368 . S
C872 C871 1.523 . S
H873 C848 0.950 . S
H874 C850 0.950 . S
H875 C851 0.949 . S
H876 C853 0.950 . S
H877 C855 0.950 . S
C878 C879 1.349 . S
C878 C880 1.327 . S
C878 H903 0.950 . S
C879 C878 1.349 . S
C879 C895 1.349 . S
C880 C878 1.327 . S
C880 C899 1.429 . S
C880 H904 0.950 . S
C881 C898 1.574 . S
C881 C900 1.368 . S
C881 H905 0.949 . S
H882 C886 0.949 . S
C883 C884 1.349 . S
C883 C885 1.327 . S
C883 H906 0.950 . S
C884 C883 1.349 . S
C884 C896 1.349 . S
C885 C883 1.327 . S
C885 C901 1.429 . S
C885 H907 0.950 . S
C886 H882 0.949 . S
C886 C894 1.574 . S
C886 C902 1.368 . S
H887 C895 0.950 . S
H888 C893 0.950 . S
H889 C894 0.949 . S
H890 C896 0.950 . S
H891 C897 0.950 . S
H892 C898 0.949 . S
C893 H888 0.950 . S
C893 C895 1.327 . S
C893 C899 1.429 . S
C894 C886 1.574 . S
C894 H889 0.949 . S
C894 C900 1.368 . S
C895 C879 1.349 . S
C895 H887 0.950 . S
C895 C893 1.327 . S
C896 C884 1.349 . S
C896 H890 0.950 . S
C896 C897 1.327 . S
C897 H891 0.950 . S
C897 C896 1.327 . S
C897 C901 1.429 . S
C898 C881 1.574 . S
C898 H892 0.949 . S
C898 C902 1.368 . S
C899 C880 1.429 . S
C899 C893 1.429 . S
C899 C900 1.523 . S
C900 C881 1.368 . S
C900 C894 1.368 . S
C900 C899 1.523 . S
C901 C885 1.429 . S
C901 C897 1.429 . S
C901 C902 1.523 . S
C902 C886 1.368 . S
C902 C898 1.368 . S
C902 C901 1.523 . S
H903 C878 0.950 . S
H904 C880 0.950 . S
H905 C881 0.949 . S
H906 C883 0.950 . S
H907 C885 0.950 . S
C194 C111 1.510 . S
C189 N2 1.625 . S
C224 C129 1.010 . S
C219 N15 1.072 . S
C249 N27 1.296 . S
C254 C153 1.182 . S
C284 C183 1.581 1_655 S
C279 N40 1.776 . S
C314 C171 1.256 . S
C309 N54 1.388 . S
C339 N66 1.757 . S
C344 C124 1.665 1_655 S
C369 N79 1.558 . S
C374 C144 1.433 . S
C399 N93 1.088 . S
C404 C149 0.989 . S
C429 N92 1.747 . S
C434 C165 1.653 . S
C459 N67 1.093 . S
C464 C120 0.990 . S
C494 C187 1.018 . S
C489 N41 1.076 . S
C524 C132 1.574 . S
C519 N14 1.779 . S
C549 N28 1.619 . S
C554 C150 1.504 . S
C579 N1 1.308 . S
C584 C108 1.192 . S
C614 C128 1.257 . S
C609 N80 1.382 . S
C644 C174 1.435 . S
C639 N53 1.567 . S
C674 C170 1.335 . S
C669 N5 1.556 . S
C704 C123 1.332 . S
C699 N18 1.427 . S
C729 N31 1.542 . S
C734 C145 1.317 . S
C759 N44 1.452 . S
C764 C166 1.354 . S
C794 C107 1.368 . S
C789 N57 1.470 . S
C819 N70 1.533 . S
C824 C141 1.470 . S
C854 C162 1.388 . S
C849 N83 1.492 . S
C884 C186 1.447 . S
C879 N96 1.512 . S
