# Generated by pormake.
# Topology pts, (4,4)-cn, num edge types: 1
# Building blocks:
#     Node 0, Type 0, BuildingBlock: NAWXER_clean_linker_0, # of connection points: 4
#     Node 1, Type 0, BuildingBlock: NAWXER_clean_linker_0, # of connection points: 4
#     Node 2, Type 1, BuildingBlock: UXUYUI_clean_sbu_0, # of connection points: 4
#     Node 3, Type 1, BuildingBlock: UXUYUI_clean_sbu_0, # of connection points: 4
#     Edge 4, Type (0, 1), BuildingBlock: EZIPEK_clean_linker_0, # of connection points: 2
#     Edge 5, Type (0, 1), BuildingBlock: EZIPEK_clean_linker_0, # of connection points: 2
#     Edge 6, Type (0, 1), BuildingBlock: EZIPEK_clean_linker_0, # of connection points: 2
#     Edge 7, Type (0, 1), BuildingBlock: EZIPEK_clean_linker_0, # of connection points: 2
#     Edge 8, Type (0, 1), BuildingBlock: EZIPEK_clean_linker_0, # of connection points: 2
#     Edge 9, Type (0, 1), BuildingBlock: EZIPEK_clean_linker_0, # of connection points: 2
#     Edge 10, Type (0, 1), BuildingBlock: EZIPEK_clean_linker_0, # of connection points: 2
#     Edge 11, Type (0, 1), BuildingBlock: EZIPEK_clean_linker_0, # of connection points: 2
# Relax obj value: 0.000
# Max RMSD: 0.009
# Mean RMSD: 0.008
data_MOF--net-pts--node1-UXUYUI_clean_sbu_0--node2-NAWXER_clean_linker_0--edge1-EZIPEK_clean_linker_0
_symmetry_space_group_name_H-M    P1
_symmetry_Int_Tables_number       1
_symmetry_cell_setting            triclinic
loop_
_symmetry_equiv_pos_as_xyz
'x, y, z'
_cell_length_a     28.620275
_cell_length_b     28.675269
_cell_length_c     41.094033
_cell_angle_alpha  90.027474
_cell_angle_beta   89.987451
_cell_angle_gamma 90.00633
loop_
_atom_site_label
_atom_site_type_symbol
_atom_site_fract_x
_atom_site_fract_y
_atom_site_fract_z
_atom_type_partial_charge
C0 C 0.66164 0.04105 0.95236 0.0
C1 C 0.66832 0.00632 0.92878 0.0
C2 C 0.62161 0.04073 0.97186 0.0
C3 C 0.5879 0.00542 0.96819 0.0
C4 C 0.63445 0.97147 0.92471 0.0
C5 C 0.59436 0.9712 0.94414 0.0
C6 C 0.54535 1.00454 0.98869 0.0
C7 C 0.66571 0.97649 0.05667 0.0
C8 C 0.67136 0.01055 0.08085 0.0
C9 C 0.6254 0.97597 0.03745 0.0
C10 C 0.59039 0.00976 0.04203 0.0
C11 C 0.63647 0.0442 0.08555 0.0
C12 C 0.59613 0.04362 0.06641 0.0
C13 C 0.54654 0.00845 0.02294 0.0
C14 C 0.35242 0.95962 0.06428 0.0
C15 C 0.35069 0.98598 0.09347 0.0
C16 C 0.38818 0.96608 0.0415 0.0
C17 C 0.42136 1.00146 0.04579 0.0
C18 C 0.38086 0.02511 0.09502 0.0
C19 C 0.41646 0.03176 0.07224 0.0
C20 C 0.46317 0.00506 0.02461 0.0
C21 C 0.34198 0.03347 0.95767 0.0
C22 C 0.33733 1.00159 0.93197 0.0
C23 C 0.38215 0.03323 0.97704 0.0
C24 C 0.41803 1.00078 0.97115 0.0
C25 C 0.37304 0.96925 0.92599 0.0
C26 C 0.41321 0.96902 0.94533 0.0
C27 C 0.46191 1.00165 0.99028 0.0
H28 H 0.68738 0.06837 0.95559 0.0
H29 H 0.61687 0.06818 0.98966 0.0
H30 H 0.63908 0.94456 0.90647 0.0
H31 H 0.56864 0.94391 0.9407 0.0
H32 H 0.69224 0.95007 0.05296 0.0
H33 H 0.62124 0.94871 0.01943 0.0
H34 H 0.6403 0.07055 0.10426 0.0
H35 H 0.56937 0.06967 0.07059 0.0
H36 H 0.32645 0.93391 0.05817 0.0
H37 H 0.39027 0.94262 0.0209 0.0
H38 H 0.37755 0.05133 0.11373 0.0
H39 H 0.44042 0.06067 0.0754 0.0
H40 H 0.31483 0.05891 0.96238 0.0
H41 H 0.38555 0.05899 0.99617 0.0
H42 H 0.37002 0.94459 0.90612 0.0
H43 H 0.44059 0.94402 0.9401 0.0
N44 N 0.5031 1.00115 0.97373 0.0
N45 N 0.50545 0.0087 0.03947 0.0
C46 C 0.03086 0.66773 0.55753 0.0
C47 C 0.99783 0.6715 0.58261 0.0
C48 C 0.03173 0.62817 0.53766 0.0
C49 C 0.99905 0.59212 0.54224 0.0
C50 C 0.96541 0.63549 0.58743 0.0
C51 C 0.96612 0.59604 0.56746 0.0
C52 C 1.0009 0.54886 0.52252 0.0
C53 C 0.96714 0.66271 0.45079 0.0
C54 C 1.00348 0.67129 0.42864 0.0
C55 C 0.96818 0.62307 0.47057 0.0
C56 C 1.00549 0.59139 0.46835 0.0
C57 C 0.04075 0.63964 0.42642 0.0
C58 C 0.04148 0.59971 0.44589 0.0
C59 C 0.00622 0.54857 0.48835 0.0
C60 C 0.97692 0.34676 0.45371 0.0
C61 C 0.01005 0.34255 0.42875 0.0
C62 C 0.9764 0.38641 0.47352 0.0
C63 C 0.00952 0.42208 0.46894 0.0
C64 C 0.04285 0.37819 0.42389 0.0
C65 C 0.04247 0.41774 0.44377 0.0
C66 C 0.00821 0.46532 0.48871 0.0
C67 C 0.03983 0.35023 0.56007 0.0
C68 C 1.00545 0.34429 0.58406 0.0
C69 C 0.03892 0.38937 0.5398 0.0
C70 C 1.0034 0.42291 0.54314 0.0
C71 C 0.97012 0.3778 0.58752 0.0
C72 C 0.96929 0.41697 0.56735 0.0
C73 C 1.00301 0.46561 0.52293 0.0
H74 H 0.05638 0.6951 0.55371 0.0
H75 H 0.05858 0.6254 0.5192 0.0
H76 H 0.93985 0.63782 0.60682 0.0
H77 H 0.94095 0.56849 0.57174 0.0
H78 H 0.93798 0.68665 0.45267 0.0
H79 H 0.93958 0.61685 0.48729 0.0
H80 H 0.06902 0.6457 0.4094 0.0
H81 H 0.07036 0.57549 0.44364 0.0
H82 H 0.9511 0.31968 0.45752 0.0
H83 H 0.94959 0.38952 0.49199 0.0
H84 H 0.06848 0.37547 0.40458 0.0
H85 H 0.06796 0.445 0.4395 0.0
H86 H 0.06753 0.32479 0.55728 0.0
H87 H 0.06635 0.39379 0.52191 0.0
H88 H 0.94344 0.37375 0.60602 0.0
H89 H 0.94188 0.44263 0.57057 0.0
N90 N 0.99929 0.50734 0.53841 0.0
N91 N 0.0099 0.50687 0.47282 0.0
Li92 Li 0.00791 0.0481 0.27756 0.0
Li93 Li 1.00199 0.96733 0.27853 0.0
Li94 Li 0.05214 1.00482 0.2373 0.0
Li95 Li 0.9613 0.00849 0.2354 0.0
C96 C 0.08811 0.02513 0.30651 0.0
N97 N 0.14484 0.07057 0.35074 0.0
C98 C 0.07598 0.02637 0.33945 0.0
C99 C 0.12945 0.04642 0.29613 0.0
C100 C 0.10498 0.04975 0.3614 0.0
C101 C 0.15761 0.0693 0.31886 0.0
C102 C 0.91992 0.99183 0.30409 0.0
C103 C 0.8492 0.9493 0.31591 0.0
N104 N 0.86054 0.94934 0.34805 0.0
C105 C 0.93063 0.99183 0.33727 0.0
C106 C 0.87872 0.97066 0.2933 0.0
C107 C 0.90028 0.96998 0.3591 0.0
C108 C 0.97115 0.11307 0.32253 0.0
N109 N 0.00926 0.10367 0.30386 0.0
C110 C 0.048 0.17185 0.32386 0.0
C111 C 0.04705 0.13253 0.30383 0.0
C112 C 0.00947 0.18164 0.34371 0.0
C113 C 0.97052 0.15214 0.34282 0.0
H114 H 0.94116 0.09025 0.3217 0.0
H115 H 0.07652 0.12509 0.2883 0.0
C116 C 0.03855 0.90289 0.3236 0.0
N117 N 0.99973 0.91276 0.30578 0.0
C118 C 0.03972 0.86369 0.34371 0.0
C119 C 0.96098 0.84524 0.32679 0.0
C120 C 0.96155 0.88447 0.3067 0.0
C121 C 1.00045 0.83462 0.34554 0.0
H122 H 0.06884 0.92524 0.322 0.0
H123 H 0.93161 0.89202 0.29168 0.0
C124 C 0.00968 0.10611 0.22775 0.0
N125 N 0.00978 0.20241 0.22718 0.0
C126 C 0.96829 0.13067 0.23337 0.0
C127 C 0.05105 0.13043 0.22155 0.0
C128 C 0.9691 0.17939 0.23311 0.0
C129 C 0.05037 0.17916 0.22139 0.0
C130 C 1.00049 0.90697 0.23008 0.0
C131 C 0.0398 0.87934 0.23598 0.0
C132 C 0.95719 0.88585 0.22458 0.0
C133 C 0.03501 0.83086 0.23665 0.0
C134 C 0.95389 0.83724 0.22535 0.0
N135 N 0.99252 0.811 0.23137 0.0
C136 C 0.14202 0.97221 0.2232 0.0
C137 C 0.11067 0.02209 0.18263 0.0
C138 C 0.18319 0.96691 0.20542 0.0
N139 N 0.10695 0.99953 0.21164 0.0
C140 C 0.1514 0.01785 0.16404 0.0
C141 C 0.18807 0.98999 0.17556 0.0
H142 H 0.13802 0.95477 0.24637 0.0
H143 H 0.08204 0.04338 0.17401 0.0
C144 C 0.8702 0.03438 0.21557 0.0
N145 N 0.90946 0.01089 0.20669 0.0
C146 C 0.83143 0.03525 0.19493 0.0
C147 C 0.87468 0.98864 0.15615 0.0
C148 C 0.91257 0.98857 0.17756 0.0
C149 C 0.83356 0.01197 0.16496 0.0
H150 H 0.86885 0.05195 0.23885 0.0
H151 H 0.94438 0.97038 0.17114 0.0
O152 O 0.05996 1.00275 0.28461 0.0
O153 O 0.94924 0.013 0.28233 0.0
O154 O 0.00983 0.05848 0.22883 0.0
O155 O 1.00421 0.9545 0.23022 0.0
H156 H 0.04445 0.00958 0.34795 0.0
H157 H 0.13933 0.04596 0.27073 0.0
H158 H 0.09581 0.05131 0.38692 0.0
H159 H 0.1895 0.08625 0.31113 0.0
H160 H 0.81739 0.93248 0.30788 0.0
H161 H 0.9621 0.0084 0.34607 0.0
H162 H 0.86998 0.96999 0.26772 0.0
H163 H 0.90831 0.96947 0.38481 0.0
H164 H 0.07839 0.19437 0.3239 0.0
H165 H 0.94014 0.15918 0.35776 0.0
H166 H 0.07085 0.85611 0.35773 0.0
H167 H 0.93029 0.82314 0.32749 0.0
H168 H 0.93607 0.11229 0.23838 0.0
H169 H 0.08343 0.11189 0.21737 0.0
H170 H 0.93743 0.19889 0.23772 0.0
H171 H 0.08217 0.19848 0.21684 0.0
H172 H 0.07348 0.89519 0.24046 0.0
H173 H 0.92634 0.90676 0.22027 0.0
H174 H 0.06504 0.80903 0.24147 0.0
H175 H 0.92055 0.8204 0.22135 0.0
H176 H 0.21104 0.94521 0.21486 0.0
H177 H 0.15434 0.03601 0.14102 0.0
H178 H 0.80004 0.05354 0.20228 0.0
H179 H 0.87718 0.97039 0.13313 0.0
Li180 Li 0.96334 0.00655 0.77818 0.0
Li181 Li 0.04835 1.0045 0.77581 0.0
Li182 Li 1.00516 0.05049 0.7347 0.0
Li183 Li 0.0059 0.96623 0.73366 0.0
C184 C 0.98586 0.10068 0.79078 0.0
N185 N 0.94258 0.18402 0.8059 0.0
C186 C 0.00916 0.13405 0.8095 0.0
C187 C 0.94058 0.10968 0.7797 0.0
C188 C 0.98667 0.17598 0.8169 0.0
C189 C 0.91928 0.15202 0.78762 0.0
C190 C 0.02533 0.92777 0.8056 0.0
C191 C 0.08211 0.8723 0.82512 0.0
N192 N 0.07045 0.88329 0.85628 0.0
C193 C 0.01359 0.93821 0.83781 0.0
C194 C 0.05957 0.89427 0.79917 0.0
C195 C 0.03691 0.91545 0.8631 0.0
C196 C 0.87208 0.98114 0.79762 0.0
N197 N 0.91059 0.00574 0.80661 0.0
C198 C 0.87339 0.02975 0.85598 0.0
C199 C 0.91214 0.02941 0.83531 0.0
C200 C 0.83302 0.00534 0.84694 0.0
C201 C 0.8325 0.98062 0.81752 0.0
H202 H 0.8722 0.96187 0.77504 0.0
H203 H 0.94348 0.04804 0.84215 0.0
C204 C 0.14402 0.98904 0.79297 0.0
N205 N 0.10177 1.00446 0.80365 0.0
C206 C 0.18241 0.98852 0.81394 0.0
C207 C 0.13329 0.02031 0.85641 0.0
C208 C 0.09588 0.02031 0.83459 0.0
C209 C 0.17703 1.00417 0.84603 0.0
H210 H 0.14805 0.97724 0.76821 0.0
H211 H 0.06194 0.03266 0.84235 0.0
C212 C 0.92986 1.00411 0.70039 0.0
N213 N 0.88846 0.99513 0.63991 0.0
C214 C 0.95396 0.01752 0.67233 0.0
C215 C 0.88459 0.98624 0.69765 0.0
C216 C 0.93249 0.01271 0.642 0.0
C217 C 0.86429 0.98192 0.66687 0.0
C218 C 0.08674 0.98961 0.70459 0.0
C219 C 0.0923 0.01206 0.67463 0.0
C220 C 0.10824 0.94648 0.7098 0.0
C221 C 0.11894 0.99076 0.65031 0.0
C222 C 0.13452 0.92627 0.68485 0.0
N223 N 0.13927 0.94864 0.65587 0.0
C224 C 0.04636 0.12719 0.70279 0.0
C225 C 0.96364 0.12493 0.69928 0.0
C226 C 0.04783 0.16664 0.6829 0.0
N227 N 1.00476 0.1068 0.71005 0.0
C228 C 0.96347 0.16443 0.67945 0.0
C229 C 0.00601 0.18523 0.67081 0.0
H230 H 0.07845 0.11218 0.71194 0.0
H231 H 0.93102 0.1082 0.70558 0.0
C232 C 0.99285 0.87066 0.71934 0.0
N233 N 1.00299 0.91261 0.70558 0.0
C234 C 0.99083 0.8304 0.70019 0.0
C235 C 0.00921 0.87723 0.65301 0.0
C236 C 0.01071 0.9165 0.67299 0.0
C237 C 0.9993 0.83365 0.66667 0.0
H238 H 0.98643 0.86845 0.74522 0.0
H239 H 0.01866 0.94993 0.66239 0.0
O240 O 0.00764 0.05963 0.78321 0.0
O241 O 1.00391 0.95077 0.78054 0.0
O242 O 0.95016 0.00879 0.7304 0.0
O243 O 0.06049 0.00981 0.72864 0.0
H244 H 0.04427 0.12758 0.81821 0.0
H245 H 0.92201 0.08427 0.76517 0.0
H246 H 1.00427 0.20214 0.83138 0.0
H247 H 0.88424 0.15943 0.77923 0.0
H248 H 0.10888 0.84651 0.8205 0.0
H249 H 0.98727 0.96408 0.84324 0.0
H250 H 0.06871 0.88535 0.77441 0.0
H251 H 0.02847 0.92349 0.88814 0.0
H252 H 0.87476 0.04895 0.87866 0.0
H253 H 0.80181 0.96124 0.81009 0.0
H254 H 0.21592 0.97611 0.80528 0.0
H255 H 0.12827 0.03276 0.88105 0.0
H256 H 0.98912 0.031 0.67387 0.0
H257 H 0.8652 0.97587 0.71902 0.0
H258 H 0.9509 0.02283 0.62012 0.0
H259 H 0.82929 0.96811 0.66442 0.0
H260 H 0.07594 0.04537 0.67003 0.0
H261 H 0.10404 0.92842 0.73266 0.0
H262 H 0.12334 0.00766 0.62698 0.0
H263 H 0.15097 0.89272 0.6885 0.0
H264 H 0.08116 0.18216 0.67667 0.0
H265 H 0.93066 0.17822 0.67052 0.0
H266 H 0.98298 0.79709 0.71136 0.0
H267 H 0.01591 0.88072 0.62717 0.0
C268 C 0.31499 1.00263 0.14972 0.0
C269 C 0.31518 0.97637 0.12043 0.0
C270 C 0.23586 0.94968 0.13268 0.0
C271 C 0.23202 0.9849 0.15678 0.0
N272 N 0.26886 0.04477 0.18925 0.0
N273 N 0.29049 0.89897 0.10565 0.0
C274 C 0.27197 0.01114 0.16581 0.0
C275 C 0.27966 0.94211 0.11736 0.0
N276 N 0.35621 0.01294 0.16474 0.0
N277 N 0.19799 0.92326 0.12442 0.0
H278 H 0.32509 0.88928 0.10122 0.0
H279 H 0.26693 0.87124 0.10547 0.0
H280 H 0.16557 0.92664 0.1358 0.0
H281 H 0.19831 0.90031 0.10472 0.0
H282 H 0.35816 0.02824 0.18772 0.0
H283 H 0.38798 1.00007 0.15603 0.0
H284 H 0.29607 0.06787 0.19424 0.0
H285 H 0.23803 0.05183 0.2019 0.0
C286 C 0.99357 0.2587 0.59415 0.0
C287 C 0.00675 0.30325 0.60606 0.0
C288 C 0.01629 0.27104 0.66092 0.0
C289 C 0.00675 0.22588 0.64848 0.0
N290 N 0.99442 0.17502 0.60249 0.0
N291 N 0.03873 0.35076 0.64909 0.0
C292 C 0.99769 0.2192 0.61483 0.0
C293 C 0.02044 0.30914 0.639 0.0
N294 N 0.97564 0.25439 0.56345 0.0
N295 N 0.01983 0.27778 0.69377 0.0
H296 H 0.04244 0.37945 0.6337 0.0
H297 H 0.05398 0.35566 0.67184 0.0
H298 H 0.01707 0.25069 0.7106 0.0
H299 H 0.0216 0.31061 0.70453 0.0
H300 H 0.9606 0.22381 0.55468 0.0
H301 H 0.97223 0.2825 0.54752 0.0
H302 H 0.99291 0.16779 0.57768 0.0
H303 H 0.99725 0.14518 0.61687 0.0
C304 C 0.75173 0.03966 0.09441 0.0
C305 C 0.71337 0.01029 0.102 0.0
C306 C 0.75563 0.97908 0.14911 0.0
C307 C 0.79232 0.01123 0.14308 0.0
N308 N 0.82353 0.07616 0.11285 0.0
N309 N 0.67543 0.95636 0.13844 0.0
C310 C 0.78994 0.04263 0.11645 0.0
C311 C 0.71439 0.98112 0.12988 0.0
N312 N 0.75203 0.06386 0.06573 0.0
N313 N 0.76082 0.94579 0.17266 0.0
H314 H 0.64491 0.95617 0.12458 0.0
H315 H 0.672 0.9387 0.16044 0.0
H316 H 0.79025 0.94362 0.18755 0.0
H317 H 0.73774 0.91811 0.17587 0.0
H318 H 0.78101 0.08187 0.05701 0.0
H319 H 0.72427 0.0631 0.04928 0.0
H320 H 0.82122 0.10335 0.09616 0.0
H321 H 0.85238 0.07891 0.12825 0.0
C322 C 0.03338 0.71759 0.6283 0.0
C323 C 0.99787 0.7128 0.60443 0.0
C324 C 0.9604 0.78435 0.62406 0.0
C325 C 0.99832 0.79146 0.64575 0.0
N326 N 0.0748 0.7693 0.66497 0.0
N327 N 0.93162 0.74483 0.57589 0.0
C328 C 0.03592 0.75927 0.64693 0.0
C329 C 0.96241 0.74707 0.60129 0.0
N330 N 0.06383 0.68171 0.63384 0.0
N331 N 0.9219 0.81247 0.62587 0.0
H332 H 0.93203 0.71803 0.55871 0.0
H333 H 0.90825 0.77144 0.57023 0.0
H334 H 0.91918 0.84013 0.64226 0.0
H335 H 0.89111 0.80603 0.61314 0.0
H336 H 0.08716 0.6811 0.65327 0.0
H337 H 0.0631 0.6506 0.62068 0.0
H338 H 0.10543 0.74976 0.66391 0.0
H339 H 0.07801 0.79948 0.67898 0.0
C340 C 0.2927 0.03704 0.88559 0.0
C341 C 0.29559 1.00295 0.91054 0.0
C342 C 0.22195 0.96805 0.89208 0.0
C343 C 0.21747 1.00411 0.86865 0.0
N344 N 0.24398 0.07718 0.84628 0.0
N345 N 0.26029 0.94049 0.94111 0.0
C346 C 0.25156 0.03987 0.86631 0.0
C347 C 0.2594 0.96969 0.91482 0.0
N348 N 0.32993 0.0657 0.87964 0.0
N349 N 0.19124 0.93151 0.89191 0.0
H350 H 0.28741 0.94044 0.95808 0.0
H351 H 0.23257 0.91891 0.94761 0.0
H352 H 0.16308 0.9294 0.87586 0.0
H353 H 0.19555 0.90158 0.90591 0.0
H354 H 0.33213 0.08759 0.8595 0.0
H355 H 0.36048 0.06506 0.89347 0.0
H356 H 0.26492 0.10687 0.84614 0.0
H357 H 0.21445 0.08025 0.83155 0.0
C358 C 0.03229 0.25952 0.41712 0.0
C359 C 0.00975 0.30117 0.40705 0.0
C360 C 0.9902 0.2655 0.35452 0.0
C361 C 0.00984 0.2229 0.36547 0.0
N362 N 0.04457 0.17674 0.40809 0.0
N363 N 0.96178 0.34267 0.36852 0.0
C364 C 0.02952 0.21916 0.39706 0.0
C365 C 0.98719 0.30387 0.37636 0.0
N366 N 0.05736 0.25905 0.44546 0.0
N367 N 0.97546 0.26952 0.32298 0.0
H368 H 0.95939 0.37176 0.38368 0.0
H369 H 0.94024 0.34488 0.34818 0.0
H370 H 0.97616 0.24184 0.3065 0.0
H371 H 0.96569 0.30098 0.31235 0.0
H372 H 0.07887 0.23159 0.45249 0.0
H373 H 0.05935 0.28768 0.46107 0.0
H374 H 0.05441 0.1704 0.43206 0.0
H375 H 0.04425 0.14669 0.39376 0.0
C376 C 0.74962 0.97842 0.91677 0.0
C377 C 0.71082 0.00657 0.90808 0.0
C378 C 0.75383 0.03697 0.86102 0.0
C379 C 0.79107 0.00597 0.86818 0.0
N380 N 0.82278 0.94294 0.90007 0.0
N381 N 0.67281 0.0582 0.87013 0.0
C382 C 0.78856 0.97552 0.89534 0.0
C383 C 0.71204 0.03469 0.87969 0.0
N384 N 0.74963 0.95538 0.94591 0.0
N385 N 0.75899 0.06947 0.83693 0.0
H386 H 0.64186 0.05814 0.88354 0.0
H387 H 0.66966 0.075 0.84779 0.0
H388 H 0.78886 0.07178 0.82246 0.0
H389 H 0.73538 0.09644 0.83285 0.0
H390 H 0.77878 0.93846 0.95538 0.0
H391 H 0.72138 0.95607 0.96196 0.0
H392 H 0.82054 0.91631 0.9172 0.0
H393 H 0.85218 0.94028 0.88516 0.0
C394 C 0.99633 0.70796 0.3733 0.0
C395 C 1.00227 0.71324 0.4074 0.0
C396 C 1.00158 0.79825 0.4012 0.0
C397 C 1.00088 0.79279 0.36687 0.0
N398 N 0.00642 0.74238 0.31996 0.0
N399 N 0.01909 0.76299 0.45334 0.0
C400 C 1.00072 0.74759 0.3528 0.0
C401 C 0.00727 0.75831 0.42126 0.0
N402 N 0.9849 0.66541 0.36058 0.0
N403 N 0.99524 0.84138 0.41468 0.0
H404 H 0.02419 0.73457 0.46877 0.0
H405 H 0.02803 0.79479 0.46388 0.0
H406 H 0.99032 0.87143 0.4008 0.0
H407 H 0.99053 0.84673 0.43954 0.0
H408 H 0.97535 0.66056 0.33635 0.0
H409 H 0.98059 0.63564 0.37484 0.0
H410 H 0.01153 0.71015 0.30881 0.0
H411 H 0.01042 0.77052 0.30412 0.0
loop_
_geom_bond_atom_site_label_1
_geom_bond_atom_site_label_2
_geom_bond_distance
_geom_bond_site_symmetry_2
_ccdc_geom_bond_type
C0 C1 1.384 1_545 S
C0 C2 1.384 . S
C0 H28 0.931 . S
C1 C0 1.384 1_565 S
C1 C4 1.382 . S
C2 C0 1.384 . S
C2 C3 1.381 1_545 S
C2 H29 0.930 . S
C3 C2 1.381 1_565 S
C3 C5 1.381 . S
C3 C6 1.487 . S
C4 C1 1.382 . S
C4 C5 1.387 . S
C4 H30 0.930 . S
C5 C3 1.381 . S
C5 C4 1.387 . S
C5 H31 0.931 . S
C6 C3 1.487 . S
C6 C13 1.399 1_566 S
C6 N44 1.343 . S
C7 C8 1.384 1_565 S
C7 C9 1.384 . S
C7 H32 0.931 . S
C8 C7 1.384 1_545 S
C8 C11 1.382 . S
C9 C7 1.384 . S
C9 C10 1.381 1_565 S
C9 H33 0.930 . S
C10 C9 1.381 1_545 S
C10 C12 1.381 . S
C10 C13 1.487 . S
C11 C8 1.382 . S
C11 C12 1.387 . S
C11 H34 0.930 . S
C12 C10 1.381 . S
C12 C11 1.387 . S
C12 H35 0.931 . S
C13 C6 1.399 1_544 S
C13 C10 1.487 . S
C13 N45 1.343 . S
C14 C15 1.384 1_565 S
C14 C16 1.384 . S
C14 H36 0.931 . S
C15 C14 1.384 1_545 S
C15 C18 1.382 . S
C16 C14 1.384 . S
C16 C17 1.381 1_565 S
C16 H37 0.930 . S
C17 C16 1.381 1_545 S
C17 C19 1.381 . S
C17 C20 1.487 . S
C18 C15 1.382 . S
C18 C19 1.387 . S
C18 H38 0.930 . S
C19 C17 1.381 . S
C19 C18 1.387 . S
C19 H39 0.931 . S
C20 C17 1.487 . S
C20 C27 1.399 1_544 S
C20 N45 1.343 . S
C21 C22 1.384 1_545 S
C21 C23 1.384 . S
C21 H40 0.931 . S
C22 C21 1.384 1_565 S
C22 C25 1.382 . S
C23 C21 1.384 . S
C23 C24 1.381 1_545 S
C23 H41 0.930 . S
C24 C23 1.381 1_565 S
C24 C26 1.381 . S
C24 C27 1.487 . S
C25 C22 1.382 . S
C25 C26 1.387 . S
C25 H42 0.930 . S
C26 C24 1.381 . S
C26 C25 1.387 . S
C26 H43 0.931 . S
C27 C20 1.399 1_566 S
C27 C24 1.487 . S
C27 N44 1.343 . S
H28 C0 0.931 . S
H29 C2 0.930 . S
H30 C4 0.930 . S
H31 C5 0.931 . S
H32 C7 0.931 . S
H33 C9 0.930 . S
H34 C11 0.930 . S
H35 C12 0.931 . S
H36 C14 0.931 . S
H37 C16 0.930 . S
H38 C18 0.930 . S
H39 C19 0.931 . S
H40 C21 0.931 . S
H41 C23 0.930 . S
H42 C25 0.930 . S
H43 C26 0.931 . S
N44 C6 1.343 . S
N44 C27 1.343 . S
N45 C13 1.343 . S
N45 C20 1.343 . S
C46 C47 1.384 1_455 S
C46 C48 1.384 . S
C46 H74 0.931 . S
C47 C46 1.384 1_655 S
C47 C50 1.382 . S
C48 C46 1.384 . S
C48 C49 1.381 1_455 S
C48 H75 0.930 . S
C49 C48 1.381 1_655 S
C49 C51 1.381 . S
C49 C52 1.487 . S
C50 C47 1.382 . S
C50 C51 1.387 . S
C50 H76 0.930 . S
C51 C49 1.381 . S
C51 C50 1.387 . S
C51 H77 0.931 . S
C52 C49 1.487 . S
C52 C59 1.399 1_655 S
C52 N90 1.343 . S
C53 C54 1.384 1_655 S
C53 C55 1.384 . S
C53 H78 0.931 . S
C54 C53 1.384 1_455 S
C54 C57 1.382 . S
C55 C53 1.384 . S
C55 C56 1.381 1_655 S
C55 H79 0.930 . S
C56 C55 1.381 1_455 S
C56 C58 1.381 . S
C56 C59 1.487 . S
C57 C54 1.382 . S
C57 C58 1.387 . S
C57 H80 0.930 . S
C58 C56 1.381 . S
C58 C57 1.387 . S
C58 H81 0.931 . S
C59 C52 1.399 1_455 S
C59 C56 1.487 . S
C59 N91 1.343 . S
C60 C61 1.384 1_655 S
C60 C62 1.384 . S
C60 H82 0.931 . S
C61 C60 1.384 1_455 S
C61 C64 1.382 . S
C62 C60 1.384 . S
C62 C63 1.381 1_655 S
C62 H83 0.930 . S
C63 C62 1.381 1_455 S
C63 C65 1.381 . S
C63 C66 1.487 . S
C64 C61 1.382 . S
C64 C65 1.387 . S
C64 H84 0.930 . S
C65 C63 1.381 . S
C65 C64 1.387 . S
C65 H85 0.931 . S
C66 C63 1.487 . S
C66 C73 1.399 1_455 S
C66 N91 1.343 . S
C67 C68 1.384 1_455 S
C67 C69 1.384 . S
C67 H86 0.931 . S
C68 C67 1.384 1_655 S
C68 C71 1.382 . S
C69 C67 1.384 . S
C69 C70 1.381 1_455 S
C69 H87 0.930 . S
C70 C69 1.381 1_655 S
C70 C72 1.381 . S
C70 C73 1.487 . S
C71 C68 1.382 . S
C71 C72 1.387 . S
C71 H88 0.930 . S
C72 C70 1.381 . S
C72 C71 1.387 . S
C72 H89 0.931 . S
C73 C66 1.399 1_655 S
C73 C70 1.487 . S
C73 N90 1.343 . S
H74 C46 0.931 . S
H75 C48 0.930 . S
H76 C50 0.930 . S
H77 C51 0.931 . S
H78 C53 0.931 . S
H79 C55 0.930 . S
H80 C57 0.930 . S
H81 C58 0.931 . S
H82 C60 0.931 . S
H83 C62 0.930 . S
H84 C64 0.930 . S
H85 C65 0.931 . S
H86 C67 0.931 . S
H87 C69 0.930 . S
H88 C71 0.930 . S
H89 C72 0.931 . S
N90 C52 1.343 . S
N90 C73 1.343 . S
N91 C59 1.343 . S
N91 C66 1.343 . S
Li92 N109 1.990 . S
Li92 O152 1.956 1_545 S
Li92 O153 1.970 1_455 S
Li92 O154 1.961 1_455 S
Li93 N117 1.990 . S
Li93 O152 1.970 1_655 S
Li93 O153 1.956 1_565 S
Li93 O155 1.961 1_655 S
Li94 N139 1.990 . S
Li94 O152 1.961 1_545 S
Li94 O154 1.956 1_455 S
Li94 O155 1.970 1_545 S
Li95 N145 1.990 . S
Li95 O153 1.961 1_565 S
Li95 O154 1.970 1_565 S
Li95 O155 1.956 1_655 S
C96 C98 1.348 1_545 S
C96 C99 1.356 . S
C96 O152 1.325 1_545 S
N97 C100 1.314 1_545 S
N97 C101 1.279 . S
C98 C96 1.348 1_565 S
C98 C100 1.353 . S
C98 H156 0.929 . S
C99 C96 1.356 . S
C99 C101 1.358 . S
C99 H157 0.930 . S
C100 N97 1.314 1_565 S
C100 C98 1.353 . S
C100 H158 0.930 . S
C101 N97 1.279 . S
C101 C99 1.358 . S
C101 H159 0.930 . S
C102 C105 1.348 . S
C102 C106 1.356 1_545 S
C102 O153 1.325 . S
C103 N104 1.279 . S
C103 C106 1.358 . S
C103 H160 0.930 . S
N104 C103 1.279 . S
N104 C107 1.314 1_565 S
C105 C102 1.348 . S
C105 C107 1.353 . S
C105 H161 0.929 . S
C106 C102 1.356 1_565 S
C106 C103 1.358 . S
C106 H162 0.930 . S
C107 N104 1.314 1_545 S
C107 C105 1.353 . S
C107 H163 0.930 . S
C108 N109 1.314 1_655 S
C108 C113 1.353 . S
C108 H114 0.930 . S
N109 Li92 1.990 . S
N109 C108 1.314 1_455 S
N109 C111 1.279 . S
C110 C111 1.358 . S
C110 C112 1.356 . S
C110 H164 0.930 . S
C111 N109 1.279 . S
C111 C110 1.358 . S
C111 H115 0.930 . S
C112 C110 1.356 . S
C112 C113 1.348 1_455 S
C113 C108 1.353 . S
C113 C112 1.348 1_655 S
C113 H165 0.929 . S
H114 C108 0.930 . S
H115 C111 0.930 . S
C116 N117 1.314 1_455 S
C116 C118 1.353 . S
C116 H122 0.930 . S
N117 Li93 1.990 . S
N117 C116 1.314 1_655 S
N117 C120 1.279 . S
C118 C116 1.353 . S
C118 C121 1.348 . S
C118 H166 0.929 . S
C119 C120 1.358 . S
C119 C121 1.356 1_655 S
C119 H167 0.930 . S
C120 N117 1.279 . S
C120 C119 1.358 . S
C120 H123 0.930 . S
C121 C118 1.348 . S
C121 C119 1.356 1_455 S
H122 C116 0.930 . S
H123 C120 0.930 . S
C124 C126 1.348 1_455 S
C124 C127 1.356 . S
C124 O154 1.325 1_455 S
N125 C128 1.314 1_455 S
N125 C129 1.279 . S
C126 C124 1.348 1_655 S
C126 C128 1.353 . S
C126 H168 0.929 . S
C127 C124 1.356 . S
C127 C129 1.358 . S
C127 H169 0.930 . S
C128 N125 1.314 1_655 S
C128 C126 1.353 . S
C128 H170 0.930 . S
C129 N125 1.279 . S
C129 C127 1.358 . S
C129 H171 0.930 . S
C130 C131 1.348 . S
C130 C132 1.356 1_455 S
C130 O155 1.325 . S
C131 C130 1.348 . S
C131 C133 1.353 . S
C131 H172 0.929 . S
C132 C130 1.356 1_655 S
C132 C134 1.358 . S
C132 H173 0.930 . S
C133 C131 1.353 . S
C133 N135 1.314 1_455 S
C133 H174 0.930 . S
C134 C132 1.358 . S
C134 N135 1.279 . S
C134 H175 0.930 . S
N135 C133 1.314 1_655 S
N135 C134 1.279 . S
C136 C138 1.353 . S
C136 N139 1.314 1_565 S
C136 H142 0.930 . S
C137 N139 1.279 . S
C137 C140 1.358 . S
C137 H143 0.930 . S
C138 C136 1.353 . S
C138 C141 1.348 1_565 S
C138 H176 0.929 . S
N139 Li94 1.990 . S
N139 C136 1.314 1_545 S
N139 C137 1.279 . S
C140 C137 1.358 . S
C140 C141 1.356 . S
C140 H177 0.930 . S
C141 C138 1.348 1_545 S
C141 C140 1.356 . S
H142 C136 0.930 . S
H143 C137 0.930 . S
C144 N145 1.314 1_545 S
C144 C146 1.353 . S
C144 H150 0.930 . S
N145 Li95 1.990 . S
N145 C144 1.314 1_565 S
N145 C148 1.279 . S
C146 C144 1.353 . S
C146 C149 1.348 . S
C146 H178 0.929 . S
C147 C148 1.358 . S
C147 C149 1.356 1_565 S
C147 H179 0.930 . S
C148 N145 1.279 . S
C148 C147 1.358 . S
C148 H151 0.930 . S
C149 C146 1.348 . S
C149 C147 1.356 1_545 S
H150 C144 0.930 . S
H151 C148 0.930 . S
O152 Li92 1.956 1_565 S
O152 Li93 1.970 1_455 S
O152 Li94 1.961 1_565 S
O152 C96 1.325 1_565 S
O153 Li92 1.970 1_655 S
O153 Li93 1.956 1_545 S
O153 Li95 1.961 1_545 S
O153 C102 1.325 . S
O154 Li92 1.961 1_655 S
O154 Li94 1.956 1_655 S
O154 Li95 1.970 1_545 S
O154 C124 1.325 1_655 S
O155 Li93 1.961 1_455 S
O155 Li94 1.970 1_565 S
O155 Li95 1.956 1_455 S
O155 C130 1.325 . S
H156 C98 0.929 . S
H157 C99 0.930 . S
H158 C100 0.930 . S
H159 C101 0.930 . S
H160 C103 0.930 . S
H161 C105 0.929 . S
H162 C106 0.930 . S
H163 C107 0.930 . S
H164 C110 0.930 . S
H165 C113 0.929 . S
H166 C118 0.929 . S
H167 C119 0.930 . S
H168 C126 0.929 . S
H169 C127 0.930 . S
H170 C128 0.930 . S
H171 C129 0.930 . S
H172 C131 0.929 . S
H173 C132 0.930 . S
H174 C133 0.930 . S
H175 C134 0.930 . S
H176 C138 0.929 . S
H177 C140 0.930 . S
H178 C146 0.929 . S
H179 C147 0.930 . S
Li180 N197 1.990 . S
Li180 O240 1.956 1_655 S
Li180 O241 1.970 1_545 S
Li180 O242 1.961 1_545 S
Li181 N205 1.990 . S
Li181 O240 1.970 1_565 S
Li181 O241 1.956 1_455 S
Li181 O243 1.961 1_565 S
Li182 N227 1.990 . S
Li182 O240 1.961 1_655 S
Li182 O242 1.956 1_545 S
Li182 O243 1.970 1_655 S
Li183 N233 1.990 . S
Li183 O241 1.961 1_455 S
Li183 O242 1.970 1_455 S
Li183 O243 1.956 1_565 S
C184 C186 1.348 . S
C184 C187 1.356 1_455 S
C184 O240 1.325 . S
N185 C188 1.314 1_655 S
N185 C189 1.279 . S
C186 C184 1.348 . S
C186 C188 1.353 . S
C186 H244 0.929 . S
C187 C184 1.356 1_655 S
C187 C189 1.358 . S
C187 H245 0.930 . S
C188 N185 1.314 1_455 S
C188 C186 1.353 . S
C188 H246 0.930 . S
C189 N185 1.279 . S
C189 C187 1.358 . S
C189 H247 0.930 . S
C190 C193 1.348 1_455 S
C190 C194 1.356 . S
C190 O241 1.325 1_455 S
C191 N192 1.279 . S
C191 C194 1.358 . S
C191 H248 0.930 . S
N192 C191 1.279 . S
N192 C195 1.314 1_455 S
C193 C190 1.348 1_655 S
C193 C195 1.353 . S
C193 H249 0.929 . S
C194 C190 1.356 . S
C194 C191 1.358 . S
C194 H250 0.930 . S
C195 N192 1.314 1_655 S
C195 C193 1.353 . S
C195 H251 0.930 . S
C196 N197 1.314 1_565 S
C196 C201 1.353 . S
C196 H202 0.930 . S
N197 Li180 1.990 . S
N197 C196 1.314 1_545 S
N197 C199 1.279 . S
C198 C199 1.358 . S
C198 C200 1.356 . S
C198 H252 0.930 . S
C199 N197 1.279 . S
C199 C198 1.358 . S
C199 H203 0.930 . S
C200 C198 1.356 . S
C200 C201 1.348 1_545 S
C201 C196 1.353 . S
C201 C200 1.348 1_565 S
C201 H253 0.929 . S
H202 C196 0.930 . S
H203 C199 0.930 . S
C204 N205 1.314 1_545 S
C204 C206 1.353 . S
C204 H210 0.930 . S
N205 Li181 1.990 . S
N205 C204 1.314 1_565 S
N205 C208 1.279 . S
C206 C204 1.353 . S
C206 C209 1.348 . S
C206 H254 0.929 . S
C207 C208 1.358 . S
C207 C209 1.356 1_565 S
C207 H255 0.930 . S
C208 N205 1.279 . S
C208 C207 1.358 . S
C208 H211 0.930 . S
C209 C206 1.348 . S
C209 C207 1.356 1_545 S
H210 C204 0.930 . S
H211 C208 0.930 . S
C212 C214 1.348 1_545 S
C212 C215 1.356 . S
C212 O242 1.325 1_545 S
N213 C216 1.314 1_545 S
N213 C217 1.279 . S
C214 C212 1.348 1_565 S
C214 C216 1.353 . S
C214 H256 0.929 . S
C215 C212 1.356 . S
C215 C217 1.358 . S
C215 H257 0.930 . S
C216 N213 1.314 1_565 S
C216 C214 1.353 . S
C216 H258 0.930 . S
C217 N213 1.279 . S
C217 C215 1.358 . S
C217 H259 0.930 . S
C218 C219 1.348 . S
C218 C220 1.356 1_545 S
C218 O243 1.325 . S
C219 C218 1.348 . S
C219 C221 1.353 . S
C219 H260 0.929 . S
C220 C218 1.356 1_565 S
C220 C222 1.358 . S
C220 H261 0.930 . S
C221 C219 1.353 . S
C221 N223 1.314 1_545 S
C221 H262 0.930 . S
C222 C220 1.358 . S
C222 N223 1.279 . S
C222 H263 0.930 . S
N223 C221 1.314 1_565 S
N223 C222 1.279 . S
C224 C226 1.353 . S
C224 N227 1.314 1_455 S
C224 H230 0.930 . S
C225 N227 1.279 . S
C225 C228 1.358 . S
C225 H231 0.930 . S
C226 C224 1.353 . S
C226 C229 1.348 . S
C226 H264 0.929 . S
N227 Li182 1.990 . S
N227 C224 1.314 1_655 S
N227 C225 1.279 . S
C228 C225 1.358 . S
C228 C229 1.356 1_655 S
C228 H265 0.930 . S
C229 C226 1.348 . S
C229 C228 1.356 1_455 S
H230 C224 0.930 . S
H231 C225 0.930 . S
C232 N233 1.314 1_655 S
C232 C234 1.353 . S
C232 H238 0.930 . S
N233 Li183 1.990 . S
N233 C232 1.314 1_455 S
N233 C236 1.279 . S
C234 C232 1.353 . S
C234 C237 1.348 1_655 S
C234 H266 0.929 . S
C235 C236 1.358 . S
C235 C237 1.356 . S
C235 H267 0.930 . S
C236 N233 1.279 . S
C236 C235 1.358 . S
C236 H239 0.930 . S
C237 C234 1.348 1_455 S
C237 C235 1.356 . S
H238 C232 0.930 . S
H239 C236 0.930 . S
O240 Li180 1.956 1_455 S
O240 Li181 1.970 1_545 S
O240 Li182 1.961 1_455 S
O240 C184 1.325 . S
O241 Li180 1.970 1_565 S
O241 Li181 1.956 1_655 S
O241 Li183 1.961 1_655 S
O241 C190 1.325 1_655 S
O242 Li180 1.961 1_565 S
O242 Li182 1.956 1_565 S
O242 Li183 1.970 1_655 S
O242 C212 1.325 1_565 S
O243 Li181 1.961 1_545 S
O243 Li182 1.970 1_455 S
O243 Li183 1.956 1_545 S
O243 C218 1.325 . S
H244 C186 0.929 . S
H245 C187 0.930 . S
H246 C188 0.930 . S
H247 C189 0.930 . S
H248 C191 0.930 . S
H249 C193 0.929 . S
H250 C194 0.930 . S
H251 C195 0.930 . S
H252 C198 0.930 . S
H253 C201 0.929 . S
H254 C206 0.929 . S
H255 C207 0.930 . S
H256 C214 0.929 . S
H257 C215 0.930 . S
H258 C216 0.930 . S
H259 C217 0.930 . S
H260 C219 0.929 . S
H261 C220 0.930 . S
H262 C221 0.930 . S
H263 C222 0.930 . S
H264 C226 0.929 . S
H265 C228 0.930 . S
H266 C234 0.929 . S
H267 C235 0.930 . S
C268 C269 1.363 1_545 S
C268 C274 1.379 . S
C268 N276 1.356 . S
C269 C268 1.363 1_565 S
C269 C275 1.363 . S
C270 C271 1.376 . S
C270 C275 1.379 . S
C270 N277 1.356 . S
C271 C270 1.376 . S
C271 C274 1.350 1_565 S
N272 C274 1.356 . S
N272 H284 0.984 . S
N272 H285 0.985 . S
N273 C275 1.356 . S
N273 H278 0.984 . S
N273 H279 0.985 . S
C274 C268 1.379 . S
C274 C271 1.350 1_545 S
C274 N272 1.356 . S
C275 C269 1.363 . S
C275 C270 1.379 . S
C275 N273 1.356 . S
N276 C268 1.356 . S
N276 H282 0.984 . S
N276 H283 0.984 . S
N277 C270 1.356 . S
N277 H280 0.984 . S
N277 H281 0.985 . S
H278 N273 0.984 . S
H279 N273 0.985 . S
H280 N277 0.984 . S
H281 N277 0.985 . S
H282 N276 0.984 . S
H283 N276 0.984 . S
H284 N272 0.984 . S
H285 N272 0.985 . S
C286 C287 1.364 . S
C286 C292 1.379 . S
C286 N294 1.356 . S
C287 C286 1.364 . S
C287 C293 1.362 1_455 S
C288 C289 1.360 1_655 S
C288 C293 1.379 . S
C288 N295 1.356 . S
C289 C288 1.360 1_455 S
C289 C292 1.366 . S
N290 C292 1.356 . S
N290 H302 0.984 . S
N290 H303 0.985 . S
N291 C293 1.356 . S
N291 H296 0.984 . S
N291 H297 0.985 . S
C292 C286 1.379 . S
C292 C289 1.366 . S
C292 N290 1.356 . S
C293 C287 1.362 1_655 S
C293 C288 1.379 . S
C293 N291 1.356 . S
N294 C286 1.356 . S
N294 H300 0.984 . S
N294 H301 0.984 . S
N295 C288 1.356 . S
N295 H298 0.984 . S
N295 H299 0.985 . S
H296 N291 0.984 . S
H297 N291 0.985 . S
H298 N295 0.984 . S
H299 N295 0.985 . S
H300 N294 0.984 . S
H301 N294 0.984 . S
H302 N290 0.984 . S
H303 N290 0.985 . S
C304 C305 1.367 . S
C304 C310 1.379 . S
C304 N312 1.356 . S
C305 C304 1.367 . S
C305 C311 1.359 1_545 S
C306 C307 1.344 1_565 S
C306 C311 1.379 . S
C306 N313 1.356 . S
C307 C306 1.344 1_545 S
C307 C310 1.382 . S
N308 C310 1.356 . S
N308 H320 0.984 . S
N308 H321 0.985 . S
N309 C311 1.356 . S
N309 H314 0.984 . S
N309 H315 0.985 . S
C310 C304 1.379 . S
C310 C307 1.382 . S
C310 N308 1.356 . S
C311 C305 1.359 1_565 S
C311 C306 1.379 . S
C311 N309 1.356 . S
N312 C304 1.356 . S
N312 H318 0.984 . S
N312 H319 0.984 . S
N313 C306 1.356 . S
N313 H316 0.984 . S
N313 H317 0.985 . S
H314 N309 0.984 . S
H315 N309 0.985 . S
H316 N313 0.984 . S
H317 N313 0.985 . S
H318 N312 0.984 . S
H319 N312 0.984 . S
H320 N308 0.984 . S
H321 N308 0.985 . S
C322 C323 1.363 . S
C322 C328 1.379 . S
C322 N330 1.356 . S
C323 C322 1.363 . S
C323 C329 1.363 1_655 S
C324 C325 1.362 1_455 S
C324 C329 1.379 . S
C324 N331 1.356 . S
C325 C324 1.362 1_655 S
C325 C328 1.364 . S
N326 C328 1.356 . S
N326 H338 0.984 . S
N326 H339 0.985 . S
N327 C329 1.356 . S
N327 H332 0.984 . S
N327 H333 0.985 . S
C328 C322 1.379 . S
C328 C325 1.364 . S
C328 N326 1.356 . S
C329 C323 1.363 1_455 S
C329 C324 1.379 . S
C329 N327 1.356 . S
N330 C322 1.356 . S
N330 H336 0.984 . S
N330 H337 0.984 . S
N331 C324 1.356 . S
N331 H334 0.984 . S
N331 H335 0.985 . S
H332 N327 0.984 . S
H333 N327 0.985 . S
H334 N331 0.984 . S
H335 N331 0.985 . S
H336 N330 0.984 . S
H337 N330 0.984 . S
H338 N326 0.984 . S
H339 N326 0.985 . S
C340 C341 1.367 . S
C340 C346 1.379 . S
C340 N348 1.356 . S
C341 C340 1.367 . S
C341 C347 1.359 1_545 S
C342 C343 1.345 1_565 S
C342 C347 1.379 . S
C342 N349 1.356 . S
C343 C342 1.345 1_545 S
C343 C346 1.381 . S
N344 C346 1.356 . S
N344 H356 0.984 . S
N344 H357 0.985 . S
N345 C347 1.356 . S
N345 H350 0.984 . S
N345 H351 0.985 . S
C346 C340 1.379 . S
C346 C343 1.381 . S
C346 N344 1.356 . S
C347 C341 1.359 1_565 S
C347 C342 1.379 . S
C347 N345 1.356 . S
N348 C340 1.356 . S
N348 H354 0.984 . S
N348 H355 0.984 . S
N349 C342 1.356 . S
N349 H352 0.984 . S
N349 H353 0.985 . S
H350 N345 0.984 . S
H351 N345 0.985 . S
H352 N349 0.984 . S
H353 N349 0.985 . S
H354 N348 0.984 . S
H355 N348 0.984 . S
H356 N344 0.984 . S
H357 N344 0.985 . S
C358 C359 1.363 1_455 S
C358 C364 1.379 . S
C358 N366 1.356 . S
C359 C358 1.363 1_655 S
C359 C365 1.363 . S
C360 C361 1.373 . S
C360 C365 1.379 . S
C360 N367 1.356 . S
C361 C360 1.373 . S
C361 C364 1.353 1_655 S
N362 C364 1.356 . S
N362 H374 0.984 . S
N362 H375 0.985 . S
N363 C365 1.356 . S
N363 H368 0.984 . S
N363 H369 0.985 . S
C364 C358 1.379 . S
C364 C361 1.353 1_455 S
C364 N362 1.356 . S
C365 C359 1.363 . S
C365 C360 1.379 . S
C365 N363 1.356 . S
N366 C358 1.356 . S
N366 H372 0.984 . S
N366 H373 0.984 . S
N367 C360 1.356 . S
N367 H370 0.984 . S
N367 H371 0.985 . S
H368 N363 0.984 . S
H369 N363 0.985 . S
H370 N367 0.984 . S
H371 N367 0.985 . S
H372 N366 0.984 . S
H373 N366 0.984 . S
H374 N362 0.984 . S
H375 N362 0.985 . S
C376 C377 1.363 . S
C376 C382 1.379 . S
C376 N384 1.356 . S
C377 C376 1.363 . S
C377 C383 1.363 1_565 S
C378 C379 1.349 1_545 S
C378 C383 1.379 . S
C378 N385 1.356 . S
C379 C378 1.349 1_565 S
C379 C382 1.377 . S
N380 C382 1.356 . S
N380 H392 0.984 . S
N380 H393 0.985 . S
N381 C383 1.356 . S
N381 H386 0.984 . S
N381 H387 0.985 . S
C382 C376 1.379 . S
C382 C379 1.377 . S
C382 N380 1.356 . S
C383 C377 1.363 1_545 S
C383 C378 1.379 . S
C383 N381 1.356 . S
N384 C376 1.356 . S
N384 H390 0.984 . S
N384 H391 0.984 . S
N385 C378 1.356 . S
N385 H388 0.984 . S
N385 H389 0.985 . S
H386 N381 0.984 . S
H387 N381 0.985 . S
H388 N385 0.984 . S
H389 N385 0.985 . S
H390 N384 0.984 . S
H391 N384 0.984 . S
H392 N380 0.984 . S
H393 N380 0.985 . S
C394 C395 1.365 . S
C394 C400 1.379 . S
C394 N402 1.356 . S
C395 C394 1.365 . S
C395 C401 1.361 1_455 S
C396 C397 1.354 1_655 S
C396 C401 1.379 . S
C396 N403 1.356 . S
C397 C396 1.354 1_455 S
C397 C400 1.372 . S
N398 C400 1.356 . S
N398 H410 0.984 . S
N398 H411 0.985 . S
N399 C401 1.356 . S
N399 H404 0.984 . S
N399 H405 0.985 . S
C400 C394 1.379 . S
C400 C397 1.372 . S
C400 N398 1.356 . S
C401 C395 1.361 1_655 S
C401 C396 1.379 . S
C401 N399 1.356 . S
N402 C394 1.356 . S
N402 H408 0.984 . S
N402 H409 0.984 . S
N403 C396 1.356 . S
N403 H406 0.984 . S
N403 H407 0.985 . S
H404 N399 0.984 . S
H405 N399 0.985 . S
H406 N403 0.984 . S
H407 N403 0.985 . S
H408 N402 0.984 . S
H409 N402 0.984 . S
H410 N398 0.984 . S
H411 N398 0.985 . S
C271 C141 1.493 1_565 S
C269 C15 1.489 1_565 S
C289 C229 1.493 . S
C287 C68 1.491 1_455 S
C307 C149 1.493 . S
C305 C8 1.491 . S
C325 C237 1.493 1_655 S
C323 C47 1.494 . S
C343 C209 1.493 . S
C341 C22 1.494 1_545 S
C361 C112 1.493 1_655 S
C359 C61 1.491 1_655 S
C379 C200 1.493 1_565 S
C377 C1 1.496 . S
C395 C54 1.492 . S
C397 C121 1.495 . S
