# Generated by pormake.
# Topology anh, (6,3)-cn, num edge types: 1
# Building blocks:
#     Node 0, Type 0, BuildingBlock: BETGAK_clean_sbu_0, # of connection points: 6
#     Node 1, Type 0, BuildingBlock: BETGAK_clean_sbu_0, # of connection points: 6
#     Node 2, Type 0, BuildingBlock: BETGAK_clean_sbu_0, # of connection points: 6
#     Node 3, Type 1, BuildingBlock: ESEHIV_clean_linker_0, # of connection points: 3
#     Node 4, Type 1, BuildingBlock: ESEHIV_clean_linker_0, # of connection points: 3
#     Node 5, Type 1, BuildingBlock: ESEHIV_clean_linker_0, # of connection points: 3
#     Node 6, Type 1, BuildingBlock: ESEHIV_clean_linker_0, # of connection points: 3
#     Node 7, Type 1, BuildingBlock: ESEHIV_clean_linker_0, # of connection points: 3
#     Node 8, Type 1, BuildingBlock: ESEHIV_clean_linker_0, # of connection points: 3
#     Edge 9, Type (0, 1), BuildingBlock: OJICUG_clean_linker_0, # of connection points: 2
#     Edge 10, Type (0, 1), BuildingBlock: OJICUG_clean_linker_0, # of connection points: 2
#     Edge 11, Type (0, 1), BuildingBlock: OJICUG_clean_linker_0, # of connection points: 2
#     Edge 12, Type (0, 1), BuildingBlock: OJICUG_clean_linker_0, # of connection points: 2
#     Edge 13, Type (0, 1), BuildingBlock: OJICUG_clean_linker_0, # of connection points: 2
#     Edge 14, Type (0, 1), BuildingBlock: OJICUG_clean_linker_0, # of connection points: 2
#     Edge 15, Type (0, 1), BuildingBlock: OJICUG_clean_linker_0, # of connection points: 2
#     Edge 16, Type (0, 1), BuildingBlock: OJICUG_clean_linker_0, # of connection points: 2
#     Edge 17, Type (0, 1), BuildingBlock: OJICUG_clean_linker_0, # of connection points: 2
#     Edge 18, Type (0, 1), BuildingBlock: OJICUG_clean_linker_0, # of connection points: 2
#     Edge 19, Type (0, 1), BuildingBlock: OJICUG_clean_linker_0, # of connection points: 2
#     Edge 20, Type (0, 1), BuildingBlock: OJICUG_clean_linker_0, # of connection points: 2
#     Edge 21, Type (0, 1), BuildingBlock: OJICUG_clean_linker_0, # of connection points: 2
#     Edge 22, Type (0, 1), BuildingBlock: OJICUG_clean_linker_0, # of connection points: 2
#     Edge 23, Type (0, 1), BuildingBlock: OJICUG_clean_linker_0, # of connection points: 2
#     Edge 24, Type (0, 1), BuildingBlock: OJICUG_clean_linker_0, # of connection points: 2
#     Edge 25, Type (0, 1), BuildingBlock: OJICUG_clean_linker_0, # of connection points: 2
#     Edge 26, Type (0, 1), BuildingBlock: OJICUG_clean_linker_0, # of connection points: 2
# Relax obj value: 0.291
# Max RMSD: 0.258
# Mean RMSD: 0.182
data_MOF--net-anh--node1-BETGAK_clean_sbu_0--node2-ESEHIV_clean_linker_0--edge1-OJICUG_clean_linker_0
_symmetry_space_group_name_H-M    P1
_symmetry_Int_Tables_number       1
_symmetry_cell_setting            triclinic
loop_
_symmetry_equiv_pos_as_xyz
'x, y, z'
_cell_length_a     21.362457
_cell_length_b     26.701798
_cell_length_c     37.63578
_cell_angle_alpha  91.645208
_cell_angle_beta   89.675186
_cell_angle_gamma 133.45865
loop_
_atom_site_label
_atom_site_type_symbol
_atom_site_fract_x
_atom_site_fract_y
_atom_site_fract_z
_atom_type_partial_charge
La0 La 0.22397 0.56429 0.14433 0.0
La1 La 1.10837 0.58323 0.16687 0.0
C2 C 0.33893 0.57793 0.11314 0.0
C3 C 0.4322 0.62575 0.11902 0.0
C4 C 0.46853 0.65333 0.15324 0.0
C5 C 0.55099 0.68048 0.16093 0.0
C6 C 0.59681 0.67943 0.13448 0.0
C7 C 0.56613 0.66383 0.09898 0.0
C8 C 0.48354 0.63609 0.09141 0.0
C9 C 0.19555 0.5536 0.21324 0.0
C10 C 0.3079 0.71959 0.16056 0.0
C11 C 1.01753 0.59071 0.20416 0.0
C12 C 0.92594 0.53315 0.21264 0.0
C13 C 0.86674 0.53905 0.20673 0.0
C14 C 0.77873 0.47979 0.20429 0.0
C15 C 0.74917 0.41385 0.20688 0.0
C16 C 0.80717 0.4087 0.21737 0.0
C17 C 0.89503 0.46808 0.22059 0.0
C18 C 1.09617 0.55079 0.09776 0.0
C19 C 1.02883 0.43041 0.15468 0.0
O20 O 0.29208 0.53459 0.13841 0.0
O21 O 0.30992 0.6046 0.1019 0.0
O22 O 0.20771 0.5188 0.19546 0.0
O23 O 0.20593 0.59519 0.19287 0.0
O24 O 0.32068 0.67733 0.15685 0.0
O25 O 0.22806 0.69397 0.16284 0.0
O26 O 1.03375 0.60807 0.17068 0.0
O27 O 1.06988 0.58622 0.21744 0.0
O28 O 1.03211 0.53148 0.11664 0.0
O29 O 0.16284 0.58981 0.11724 0.0
O30 O 1.02761 0.47202 0.17397 0.0
O31 O 1.09703 0.45708 0.13492 0.0
H32 H 0.43013 0.64749 0.17473 0.0
H33 H 0.57363 0.69329 0.18836 0.0
H34 H 0.59986 0.66302 0.07772 0.0
H35 H 0.45695 0.61656 0.06469 0.0
H36 H 0.88883 0.58851 0.20085 0.0
H37 H 0.73523 0.4852 0.19604 0.0
H38 H 0.78576 0.35853 0.2196 0.0
H39 H 0.93903 0.46194 0.22619 0.0
La40 La 0.73132 0.06633 0.46674 0.0
La41 La 0.61914 0.08943 0.45816 0.0
C42 C 0.80142 1.02504 0.48731 0.0
C43 C 0.77516 0.96237 0.5025 0.0
C44 C 0.76964 0.91585 0.48062 0.0
C45 C 0.74963 0.85857 0.4949 0.0
C46 C 0.73549 0.84677 0.53149 0.0
C47 C 0.74051 0.89309 0.55337 0.0
C48 C 0.76016 0.95025 0.53907 0.0
C49 C 0.71941 0.08948 0.40041 0.0
C50 C 0.52811 0.93562 0.45432 0.0
C51 C 0.5514 0.13549 0.44463 0.0
C52 C 0.56116 0.18972 0.46384 0.0
C53 C 0.56753 0.19537 0.50115 0.0
C54 C 0.58074 0.24829 0.51945 0.0
C55 C 0.5894 0.29782 0.50099 0.0
C56 C 0.58275 0.29196 0.46355 0.0
C57 C 0.56876 0.23838 0.44518 0.0
C58 C 0.63184 0.06776 0.52501 0.0
C59 C 0.82643 0.22211 0.46251 0.0
O60 O 0.77778 1.01968 0.45438 0.0
O61 O 0.79377 0.06138 0.50735 0.0
O62 O 0.78906 0.11112 0.41544 0.0
O63 O 0.65791 0.05306 0.42178 0.0
O64 O 0.60004 0.96021 0.47061 0.0
O65 O 0.5264 0.97989 0.44055 0.0
O66 O 0.51265 0.0791 0.46182 0.0
O67 O 0.62027 0.15629 0.4289 0.0
O68 O 0.56359 0.04778 0.50994 0.0
O69 O 0.69292 0.10345 0.50338 0.0
O70 O 0.74792 0.19683 0.4562 0.0
O71 O 0.83648 0.17985 0.47036 0.0
H72 H 0.78206 0.92425 0.45245 0.0
H73 H 0.74743 0.82447 0.47738 0.0
H74 H 0.72907 0.8851 0.58161 0.0
H75 H 0.76443 0.98525 0.55678 0.0
H76 H 0.56286 0.15906 0.51631 0.0
H77 H 0.58372 0.25003 0.54822 0.0
H78 H 0.59007 0.3295 0.44838 0.0
H79 H 0.56509 0.23553 0.4164 0.0
La80 La 0.65585 0.59017 0.85589 0.0
La81 La 0.52831 0.44044 0.85649 0.0
C82 C 0.73858 0.71189 0.83681 0.0
C83 C 0.7203 0.75218 0.8221 0.0
C84 C 0.69813 0.78128 0.84418 0.0
C85 C 0.68623 0.82246 0.83005 0.0
C86 C 0.69665 0.83604 0.7935 0.0
C87 C 0.7179 0.80619 0.77147 0.0
C88 C 0.72984 0.76518 0.78556 0.0
C89 C 0.6305 0.53987 0.91828 0.0
C90 C 0.44619 0.50916 0.86348 0.0
C91 C 0.45468 0.31688 0.8641 0.0
C92 C 0.47624 0.27963 0.84679 0.0
C93 C 0.50387 0.2926 0.81141 0.0
C94 C 0.52828 0.26049 0.79526 0.0
C95 C 0.52727 0.21509 0.8141 0.0
C96 C 0.49947 0.20208 0.84961 0.0
C97 C 0.47433 0.23405 0.86575 0.0
C98 C 0.56066 0.49021 0.7924 0.0
C99 C 0.73996 0.52287 0.85884 0.0
O100 O 0.71809 0.69267 0.86979 0.0
O101 O 0.72074 0.66321 0.81597 0.0
O102 O 0.70497 0.59635 0.90779 0.0
O103 O 0.5725 0.51696 0.89543 0.0
O104 O 0.52797 0.56617 0.85471 0.0
O105 O 0.43312 0.4527 0.86961 0.0
O106 O 0.42549 0.33524 0.84295 0.0
O107 O 0.51224 0.36694 0.88678 0.0
O108 O 0.48592 0.43518 0.80284 0.0
O109 O 0.6151 0.51311 0.81698 0.0
O110 O 0.65537 0.46381 0.85976 0.0
O111 O 0.75647 0.58143 0.85559 0.0
H112 H 0.69111 0.77311 0.8725 0.0
H113 H 0.67092 0.84503 0.848 0.0
H114 H 0.72515 0.81429 0.74314 0.0
H115 H 0.74744 0.74409 0.76777 0.0
H116 H 0.50719 0.32812 0.79611 0.0
H117 H 0.54744 0.27112 0.76776 0.0
H118 H 0.49868 0.16824 0.86523 0.0
H119 H 0.45447 0.22384 0.89319 0.0
H120 H 0.57165 0.97499 0.24442 0.0
H121 H 0.7963 0.19242 0.24068 0.0
H122 H 0.66651 0.07255 0.14315 0.0
C123 C 0.6176 1.02088 0.22912 0.0
C124 C 0.60937 1.01493 0.19184 0.0
C125 C 0.68497 0.08411 0.24694 0.0
C126 C 0.74529 0.14328 0.22696 0.0
C127 C 0.74054 0.14089 0.18961 0.0
C128 C 0.67188 0.07572 0.17187 0.0
H129 H 0.65901 0.64076 0.64563 0.0
H130 H 0.60857 0.45554 0.63301 0.0
H131 H 0.66677 0.57344 0.54146 0.0
C132 C 0.6547 0.60511 0.6285 0.0
C133 C 0.66553 0.61456 0.59158 0.0
C134 C 0.63409 0.54789 0.64339 0.0
C135 C 0.62556 0.50017 0.62139 0.0
C136 C 0.63744 0.50901 0.58454 0.0
C137 C 0.65673 0.56606 0.5698 0.0
H138 H 0.99621 0.52617 0.93714 0.0
H139 H 0.1901 0.51801 0.94114 0.0
H140 H 1.0933 0.51427 0.83879 0.0
C141 C 1.03703 0.52254 0.92264 0.0
C142 C 1.03202 0.51964 0.88527 0.0
C143 C 1.09313 0.52239 0.94238 0.0
C144 C 0.14915 0.51884 0.92486 0.0
C145 C 0.15452 0.51598 0.88749 0.0
C146 C 1.09356 0.51672 0.86752 0.0
H147 H 1.07541 0.45613 0.37342 0.0
H148 H 0.28799 0.67583 0.36985 0.0
H149 H 0.17887 0.58087 0.47078 0.0
C150 C 0.12208 0.50605 0.38715 0.0
C151 C 0.11952 0.50986 0.42444 0.0
C152 C 0.18179 0.56542 0.36725 0.0
C153 C 0.2408 0.63014 0.3851 0.0
C154 C 0.24148 0.63765 0.42224 0.0
C155 C 0.18029 0.57654 0.44216 0.0
H156 H 0.61706 0.11867 0.68771 0.0
H157 H 0.67423 0.99308 0.6781 0.0
H158 H 0.63029 0.0376 0.78145 0.0
C159 C 0.62849 0.08935 0.70012 0.0
C160 C 0.62226 0.08277 0.73725 0.0
C161 C 0.64743 0.05741 0.67863 0.0
C162 C 0.66162 1.019 0.69476 0.0
C163 C 0.65463 1.01055 0.73192 0.0
C164 C 0.63447 0.04256 0.75287 0.0
H165 H 0.65186 0.54863 0.05796 0.0
H166 H 0.55958 0.34622 0.05828 0.0
H167 H 0.62853 0.46243 0.1568 0.0
C168 C 0.63615 0.50706 0.07279 0.0
C169 C 0.64449 0.51287 0.10983 0.0
C170 C 0.60556 0.44753 0.05421 0.0
C171 C 0.58102 0.39157 0.07273 0.0
C172 C 0.58722 0.39592 0.11014 0.0
C173 C 0.6197 0.45707 0.1282 0.0
C174 C 0.61412 0.61078 0.16661 0.0
C175 C 0.65142 0.66633 0.14426 0.0
H176 H 0.57984 0.51549 0.17212 0.0
C177 C 0.71568 0.6851 0.12093 0.0
H178 H 0.56637 0.59594 0.18584 0.0
C179 C 0.72422 0.63862 0.11317 0.0
C180 C 0.66885 0.57377 0.12892 0.0
H181 H 0.74811 0.7293 0.10436 0.0
H182 H 0.76556 0.64955 0.09162 0.0
C183 C 0.62141 0.5638 0.15851 0.0
C184 C 0.98961 0.32733 0.45831 0.0
C185 C 0.90429 0.29906 0.45835 0.0
H186 H 0.12405 0.41561 0.44836 0.0
C187 C 0.89375 0.34481 0.45171 0.0
H188 H 1.00137 0.29454 0.46293 0.0
C189 C 0.96472 0.41478 0.4439 0.0
C190 C 1.04943 0.44232 0.44261 0.0
H191 H 0.82982 0.32596 0.45127 0.0
H192 H 0.95262 0.44664 0.437 0.0
C193 C 1.06061 0.39739 0.45029 0.0
C194 C 0.74082 0.92726 0.75117 0.0
C195 C 0.68675 0.88178 0.77837 0.0
H196 H 0.77433 1.00378 0.71581 0.0
C197 C 0.62315 0.88033 0.79072 0.0
H198 H 0.79177 0.93118 0.74139 0.0
C199 C 0.61333 0.92242 0.77604 0.0
C200 C 0.66674 0.9672 0.74852 0.0
H201 H 0.5795 0.84552 0.81127 0.0
H202 H 0.56241 0.91863 0.78573 0.0
C203 C 0.73091 0.96919 0.73647 0.0
C204 C 0.68075 0.34215 0.15257 0.0
C205 C 0.66932 0.35598 0.18711 0.0
H206 H 0.65746 0.34226 0.09754 0.0
C207 C 0.59381 0.3415 0.19419 0.0
H208 H 0.73697 0.35051 0.14656 0.0
C209 C 0.54515 0.33317 0.1658 0.0
C210 C 0.57671 0.34448 0.13108 0.0
H211 H 0.58204 0.34973 0.22078 0.0
H212 H 0.49702 0.33505 0.17156 0.0
C213 C 0.63458 0.33704 0.12421 0.0
C214 C 0.375 0.83173 0.43196 0.0
C215 C 0.45049 0.8581 0.45018 0.0
H216 H 0.25033 0.74273 0.41 0.0
C217 C 0.45108 0.80922 0.4633 0.0
H218 H 0.37083 0.86668 0.42142 0.0
C219 C 0.38044 0.7371 0.45708 0.0
C220 C 0.30648 0.71121 0.43763 0.0
H221 H 0.50745 0.82672 0.4775 0.0
H222 H 0.38569 0.70183 0.46586 0.0
C223 C 0.30491 0.76005 0.42572 0.0
C224 C 0.51468 0.11387 0.80347 0.0
C225 C 0.55531 0.18208 0.79647 0.0
H226 H 0.5038 0.02913 0.79047 0.0
C227 C 0.62177 0.21816 0.77144 0.0
H228 H 0.46284 0.08398 0.82227 0.0
C229 C 0.64433 0.18636 0.75296 0.0
C230 C 0.60205 0.11769 0.75918 0.0
H231 H 0.65664 0.27129 0.76591 0.0
H232 H 0.69502 0.21566 0.73361 0.0
C233 C 0.53803 0.08222 0.78517 0.0
C234 C 0.66146 0.72206 0.5292 0.0
C235 C 0.71741 0.7872 0.54685 0.0
H236 H 0.6002 0.61652 0.52963 0.0
C237 C 0.75685 0.79528 0.5791 0.0
H238 H 0.6292 0.71386 0.50453 0.0
C239 C 0.74068 0.7396 0.59339 0.0
C240 C 0.68437 0.6743 0.57587 0.0
H241 H 0.80143 0.84502 0.59307 0.0
H242 H 0.7732 0.74801 0.61802 0.0
C243 C 0.64504 0.66628 0.54356 0.0
C244 C 0.90786 0.58245 0.86287 0.0
C245 C 0.81645 0.52224 0.86195 0.0
H246 H 1.04152 0.63051 0.86941 0.0
C247 C 0.80088 0.4608 0.8652 0.0
H248 H 0.92844 0.63234 0.86116 0.0
C249 C 0.86842 0.45977 0.86946 0.0
C250 C 0.95996 0.5198 0.87015 0.0
H251 H 0.73448 0.41176 0.86532 0.0
H252 H 0.84766 0.41027 0.87352 0.0
C253 C 0.97538 0.58129 0.86717 0.0
C254 C 0.47076 0.82625 0.15992 0.0
C255 C 0.38555 0.79726 0.16421 0.0
H256 H 0.60736 0.91705 0.16405 0.0
C257 C 0.37621 0.84351 0.17333 0.0
H258 H 0.48174 0.7932 0.15299 0.0
C259 C 0.44885 0.91497 0.17942 0.0
C260 C 0.53388 0.94356 0.176 0.0
H261 H 0.31255 0.82417 0.17708 0.0
H262 H 0.43851 0.94768 0.18839 0.0
C263 C 0.54339 0.89789 0.16578 0.0
C264 C 0.65783 0.38503 0.55204 0.0
C265 C 0.60562 0.35511 0.52099 0.0
H266 H 0.70894 0.45691 0.59615 0.0
C267 C 0.56744 0.3791 0.51002 0.0
H268 H 0.69028 0.36944 0.5609 0.0
C269 C 0.57938 0.43027 0.53011 0.0
C270 C 0.62913 0.45817 0.56175 0.0
H271 H 0.52621 0.35698 0.48649 0.0
H272 H 0.54745 0.44646 0.52148 0.0
C273 C 0.66896 0.4355 0.57223 0.0
C274 C 0.28426 0.45382 0.87998 0.0
C275 C 0.36924 0.50956 0.86682 0.0
H276 H 0.15702 0.41067 0.8959 0.0
C277 C 0.37749 0.56604 0.85751 0.0
H278 H 0.26952 0.40824 0.88827 0.0
C279 C 0.30925 0.5668 0.86128 0.0
C280 C 0.22414 0.51088 0.87453 0.0
H281 H 0.43888 0.61179 0.84748 0.0
H282 H 0.32521 0.61362 0.8547 0.0
C283 C 0.21668 0.45494 0.88406 0.0
C284 C 0.95897 0.30424 0.15398 0.0
C285 C 0.95177 0.35299 0.15678 0.0
H286 H 0.89812 0.19902 0.16165 0.0
C287 C 0.86986 0.32753 0.16513 0.0
H288 H 1.02064 0.32128 0.14795 0.0
C289 C 0.79936 0.25738 0.17241 0.0
C290 C 0.8073 0.20916 0.17143 0.0
H291 H 0.86084 0.36268 0.16705 0.0
H292 H 0.73943 0.24152 0.18074 0.0
C293 C 0.88817 0.23368 0.16157 0.0
C294 C 1.01684 0.49674 0.03864 0.0
C295 C 1.09499 0.54151 0.05824 0.0
H296 H 0.95455 0.45455 0.98732 0.0
C297 C 0.17234 0.57855 0.03952 0.0
H298 H 0.95603 0.46728 0.05212 0.0
C299 C 0.17171 0.57135 0.0023 0.0
C300 C 1.09363 0.52718 0.98251 0.0
H301 H 0.23382 0.61446 0.05353 0.0
H302 H 0.23278 0.60196 0.98892 0.0
C303 C 1.01613 0.48968 0.00138 0.0
C304 C 0.78301 0.12824 0.34004 0.0
C305 C 0.71 0.09089 0.36154 0.0
H306 H 0.8324 0.15484 0.28732 0.0
C307 C 0.62871 0.05324 0.34535 0.0
H308 H 0.84658 0.15783 0.35174 0.0
C309 C 0.6205 0.05168 0.30826 0.0
C310 C 0.69349 0.08799 0.28658 0.0
H311 H 0.57133 1.02417 0.36127 0.0
H312 H 0.55693 1.022 0.29655 0.0
C313 C 0.7749 0.12684 0.30307 0.0
C314 C 0.66509 0.56383 0.74359 0.0
C315 C 0.58069 0.50773 0.75454 0.0
H316 H 0.74799 0.6214 0.6994 0.0
C317 C 0.51437 0.46612 0.72868 0.0
H318 H 0.71765 0.59613 0.76284 0.0
C319 C 0.53215 0.47943 0.69261 0.0
C320 C 0.61623 0.53541 0.6817 0.0
H321 H 0.4487 0.42243 0.73625 0.0
H322 H 0.48013 0.44604 0.67316 0.0
C323 C 0.68255 0.57808 0.7074 0.0
C324 C 0.71202 0.08547 0.58094 0.0
C325 C 0.63909 0.06618 0.56419 0.0
H326 H 0.7715 0.09663 0.63047 0.0
C327 C 0.56979 0.04377 0.58536 0.0
H328 H 0.76647 0.10309 0.56543 0.0
C329 C 0.57333 0.04142 0.62225 0.0
C330 C 0.64562 0.0602 0.63914 0.0
H331 H 0.51244 0.02834 0.57344 0.0
H332 H 0.51875 1.02407 0.63763 0.0
C333 C 0.71481 0.08169 0.61811 0.0
C334 C 0.53761 0.45302 0.96486 0.0
C335 C 0.61896 0.50292 0.94964 0.0
H336 H 0.46889 0.39372 0.01102 0.0
C337 C 0.69109 0.52021 0.96567 0.0
H338 H 0.48098 0.4384 0.95263 0.0
C339 C 0.68357 0.49295 -0.00183 0.0
C340 C 0.60407 0.44871 0.01528 0.0
H341 H 0.75423 0.55754 0.95401 0.0
H342 H 0.74144 0.51172 0.0116 0.0
C343 C 0.53033 0.42649 -0.0022 0.0
C344 C 0.20055 0.60807 0.26977 0.0
C345 C 0.18949 0.55512 0.25242 0.0
H346 H 0.20448 0.65182 0.31917 0.0
C347 C 0.17433 0.50462 0.27291 0.0
H348 H 0.21341 0.64824 0.25476 0.0
C349 C 0.1707 0.50726 0.31008 0.0
C350 C 0.18234 0.5606 0.32757 0.0
H351 H 0.16581 0.46329 0.26023 0.0
H352 H 0.16057 0.46832 0.32515 0.0
C353 C 0.19652 0.61057 0.30681 0.0
loop_
_geom_bond_atom_site_label_1
_geom_bond_atom_site_label_2
_geom_bond_distance
_geom_bond_site_symmetry_2
_ccdc_geom_bond_type
La0 C2 2.928 . S
La0 O20 2.521 . S
La0 O21 2.628 . S
La0 O22 2.554 . S
La0 O23 2.757 . S
La0 O24 2.470 . S
La0 O29 2.482 . S
La0 O31 2.503 1_455 S
La1 C11 2.928 . S
La1 O23 2.482 1_655 S
La1 O25 2.503 1_655 S
La1 O26 2.521 . S
La1 O27 2.628 . S
La1 O28 2.554 . S
La1 O29 2.757 1_655 S
La1 O30 2.470 . S
C2 La0 2.928 . S
C2 C3 1.503 . S
C2 O20 1.261 . S
C2 O21 1.243 . S
C3 C2 1.503 . S
C3 C4 1.394 . S
C3 C8 1.373 . S
C4 C3 1.394 . S
C4 C5 1.380 . S
C4 H32 0.930 . S
C5 C4 1.380 . S
C5 C6 1.376 . S
C5 H33 0.930 . S
C6 C5 1.376 . S
C6 C7 1.370 . S
C7 C6 1.370 . S
C7 C8 1.396 . S
C7 H34 0.929 . S
C8 C3 1.373 . S
C8 C7 1.396 . S
C8 H35 0.929 . S
C9 O22 1.240 . S
C9 O23 1.289 . S
C10 O24 1.258 . S
C10 O25 1.256 . S
C11 La1 2.928 . S
C11 C12 1.503 . S
C11 O26 1.261 . S
C11 O27 1.243 . S
C12 C11 1.503 . S
C12 C13 1.394 . S
C12 C17 1.373 . S
C13 C12 1.394 . S
C13 C14 1.380 . S
C13 H36 0.930 . S
C14 C13 1.380 . S
C14 C15 1.376 . S
C14 H37 0.930 . S
C15 C14 1.376 . S
C15 C16 1.370 . S
C16 C15 1.370 . S
C16 C17 1.396 . S
C16 H38 0.929 . S
C17 C12 1.373 . S
C17 C16 1.396 . S
C17 H39 0.929 . S
C18 O28 1.240 1_455 S
C18 O29 1.289 . S
C19 O30 1.258 . S
C19 O31 1.256 . S
O20 La0 2.521 . S
O20 C2 1.261 . S
O21 La0 2.628 . S
O21 C2 1.243 . S
O22 La0 2.554 . S
O22 C9 1.240 . S
O23 La0 2.757 . S
O23 La1 2.482 1_455 S
O23 C9 1.289 . S
O24 La0 2.470 . S
O24 C10 1.258 . S
O25 La1 2.503 1_455 S
O25 C10 1.256 . S
O26 La1 2.521 . S
O26 C11 1.261 . S
O27 La1 2.628 . S
O27 C11 1.243 . S
O28 La1 2.554 . S
O28 C18 1.240 1_655 S
O29 La0 2.482 . S
O29 La1 2.757 1_455 S
O29 C18 1.289 . S
O30 La1 2.470 . S
O30 C19 1.258 . S
O31 La0 2.503 1_655 S
O31 C19 1.256 . S
H32 C4 0.930 . S
H33 C5 0.930 . S
H34 C7 0.929 . S
H35 C8 0.929 . S
H36 C13 0.930 . S
H37 C14 0.930 . S
H38 C16 0.929 . S
H39 C17 0.929 . S
La40 C42 2.928 . S
La40 O60 2.521 . S
La40 O61 2.628 . S
La40 O62 2.554 . S
La40 O63 2.757 1_565 S
La40 O64 2.470 . S
La40 O69 2.482 . S
La40 O71 2.503 1_565 S
La41 C51 2.928 . S
La41 O63 2.482 . S
La41 O65 2.503 1_545 S
La41 O66 2.521 . S
La41 O67 2.628 . S
La41 O68 2.554 . S
La41 O69 2.757 1_545 S
La41 O70 2.470 . S
C42 La40 2.928 . S
C42 C43 1.503 . S
C42 O60 1.261 . S
C42 O61 1.243 . S
C43 C42 1.503 . S
C43 C44 1.394 . S
C43 C48 1.373 . S
C44 C43 1.394 . S
C44 C45 1.380 . S
C44 H72 0.930 . S
C45 C44 1.380 . S
C45 C46 1.376 . S
C45 H73 0.930 . S
C46 C45 1.376 . S
C46 C47 1.370 . S
C47 C46 1.370 . S
C47 C48 1.396 . S
C47 H74 0.929 . S
C48 C43 1.373 . S
C48 C47 1.396 . S
C48 H75 0.929 . S
C49 O62 1.240 1_545 S
C49 O63 1.289 . S
C50 O64 1.258 . S
C50 O65 1.256 . S
C51 La41 2.928 . S
C51 C52 1.503 . S
C51 O66 1.261 . S
C51 O67 1.243 . S
C52 C51 1.503 . S
C52 C53 1.394 . S
C52 C57 1.373 . S
C53 C52 1.394 . S
C53 C54 1.380 . S
C53 H76 0.930 . S
C54 C53 1.380 . S
C54 C55 1.376 . S
C54 H77 0.930 . S
C55 C54 1.376 . S
C55 C56 1.370 . S
C56 C55 1.370 . S
C56 C57 1.396 . S
C56 H78 0.929 . S
C57 C52 1.373 . S
C57 C56 1.396 . S
C57 H79 0.929 . S
C58 O68 1.240 . S
C58 O69 1.289 1_545 S
C59 O70 1.258 . S
C59 O71 1.256 . S
O60 La40 2.521 . S
O60 C42 1.261 . S
O61 La40 2.628 . S
O61 C42 1.243 . S
O62 La40 2.554 . S
O62 C49 1.240 1_565 S
O63 La40 2.757 1_545 S
O63 La41 2.482 . S
O63 C49 1.289 . S
O64 La40 2.470 . S
O64 C50 1.258 . S
O65 La41 2.503 1_565 S
O65 C50 1.256 . S
O66 La41 2.521 . S
O66 C51 1.261 . S
O67 La41 2.628 . S
O67 C51 1.243 . S
O68 La41 2.554 . S
O68 C58 1.240 . S
O69 La40 2.482 . S
O69 La41 2.757 1_565 S
O69 C58 1.289 1_565 S
O70 La41 2.470 . S
O70 C59 1.258 . S
O71 La40 2.503 1_545 S
O71 C59 1.256 . S
H72 C44 0.930 . S
H73 C45 0.930 . S
H74 C47 0.929 . S
H75 C48 0.929 . S
H76 C53 0.930 . S
H77 C54 0.930 . S
H78 C56 0.929 . S
H79 C57 0.929 . S
La80 C82 2.928 . S
La80 O100 2.521 . S
La80 O101 2.628 . S
La80 O102 2.554 . S
La80 O103 2.757 . S
La80 O104 2.470 . S
La80 O109 2.482 . S
La80 O111 2.503 . S
La81 C91 2.928 . S
La81 O103 2.482 . S
La81 O105 2.503 . S
La81 O106 2.521 . S
La81 O107 2.628 . S
La81 O108 2.554 . S
La81 O109 2.757 . S
La81 O110 2.470 . S
C82 La80 2.928 . S
C82 C83 1.503 . S
C82 O100 1.261 . S
C82 O101 1.243 . S
C83 C82 1.503 . S
C83 C84 1.394 . S
C83 C88 1.373 . S
C84 C83 1.394 . S
C84 C85 1.380 . S
C84 H112 0.930 . S
C85 C84 1.380 . S
C85 C86 1.376 . S
C85 H113 0.930 . S
C86 C85 1.376 . S
C86 C87 1.370 . S
C87 C86 1.370 . S
C87 C88 1.396 . S
C87 H114 0.929 . S
C88 C83 1.373 . S
C88 C87 1.396 . S
C88 H115 0.929 . S
C89 O102 1.240 . S
C89 O103 1.289 . S
C90 O104 1.258 . S
C90 O105 1.256 . S
C91 La81 2.928 . S
C91 C92 1.503 . S
C91 O106 1.261 . S
C91 O107 1.243 . S
C92 C91 1.503 . S
C92 C93 1.394 . S
C92 C97 1.373 . S
C93 C92 1.394 . S
C93 C94 1.380 . S
C93 H116 0.930 . S
C94 C93 1.380 . S
C94 C95 1.376 . S
C94 H117 0.930 . S
C95 C94 1.376 . S
C95 C96 1.370 . S
C96 C95 1.370 . S
C96 C97 1.396 . S
C96 H118 0.929 . S
C97 C92 1.373 . S
C97 C96 1.396 . S
C97 H119 0.929 . S
C98 O108 1.240 . S
C98 O109 1.289 . S
C99 O110 1.258 . S
C99 O111 1.256 . S
O100 La80 2.521 . S
O100 C82 1.261 . S
O101 La80 2.628 . S
O101 C82 1.243 . S
O102 La80 2.554 . S
O102 C89 1.240 . S
O103 La80 2.757 . S
O103 La81 2.482 . S
O103 C89 1.289 . S
O104 La80 2.470 . S
O104 C90 1.258 . S
O105 La81 2.503 . S
O105 C90 1.256 . S
O106 La81 2.521 . S
O106 C91 1.261 . S
O107 La81 2.628 . S
O107 C91 1.243 . S
O108 La81 2.554 . S
O108 C98 1.240 . S
O109 La80 2.482 . S
O109 La81 2.757 . S
O109 C98 1.289 . S
O110 La81 2.470 . S
O110 C99 1.258 . S
O111 La80 2.503 . S
O111 C99 1.256 . S
H112 C84 0.930 . S
H113 C85 0.930 . S
H114 C87 0.929 . S
H115 C88 0.929 . S
H116 C93 0.930 . S
H117 C94 0.930 . S
H118 C96 0.929 . S
H119 C97 0.929 . S
H120 C123 0.931 . S
H121 C126 0.928 . S
H122 C128 0.930 . S
C123 H120 0.931 . S
C123 C124 1.413 . S
C123 C125 1.360 1_565 S
C124 C123 1.413 . S
C124 C128 1.429 1_565 S
C125 C123 1.360 1_545 S
C125 C126 1.372 . S
C126 H121 0.928 . S
C126 C125 1.372 . S
C126 C127 1.404 . S
C127 C126 1.404 . S
C127 C128 1.391 . S
C128 H122 0.930 . S
C128 C124 1.429 1_545 S
C128 C127 1.391 . S
H129 C132 0.931 . S
H130 C135 0.928 . S
H131 C137 0.930 . S
C132 H129 0.931 . S
C132 C133 1.413 . S
C132 C134 1.360 . S
C133 C132 1.413 . S
C133 C137 1.429 . S
C134 C132 1.360 . S
C134 C135 1.372 . S
C135 H130 0.928 . S
C135 C134 1.372 . S
C135 C136 1.404 . S
C136 C135 1.404 . S
C136 C137 1.391 . S
C137 H131 0.930 . S
C137 C133 1.429 . S
C137 C136 1.391 . S
H138 C141 0.931 1_655 S
H139 C144 0.928 . S
H140 C146 0.930 . S
C141 H138 0.931 1_455 S
C141 C142 1.413 . S
C141 C143 1.360 . S
C142 C141 1.413 . S
C142 C146 1.429 . S
C143 C141 1.360 . S
C143 C144 1.372 . S
C144 H139 0.928 . S
C144 C143 1.372 . S
C144 C145 1.404 . S
C145 C144 1.404 . S
C145 C146 1.391 . S
C146 H140 0.930 . S
C146 C142 1.429 . S
C146 C145 1.391 . S
H147 C150 0.931 . S
H148 C153 0.928 . S
H149 C155 0.931 . S
C150 H147 0.931 . S
C150 C151 1.413 . S
C150 C152 1.356 1_655 S
C151 C150 1.413 . S
C151 C155 1.429 1_655 S
C152 C150 1.356 1_455 S
C152 C153 1.376 . S
C153 H148 0.928 . S
C153 C152 1.376 . S
C153 C154 1.404 . S
C154 C153 1.404 . S
C154 C155 1.391 . S
C155 H149 0.931 . S
C155 C151 1.429 1_455 S
C155 C154 1.391 . S
H156 C159 0.931 . S
H157 C162 0.928 . S
H158 C164 0.930 . S
C159 H156 0.931 . S
C159 C160 1.413 . S
C159 C161 1.360 1_545 S
C160 C159 1.413 . S
C160 C164 1.429 . S
C161 C159 1.360 1_565 S
C161 C162 1.372 . S
C162 H157 0.928 . S
C162 C161 1.372 . S
C162 C163 1.404 . S
C163 C162 1.404 . S
C163 C164 1.391 1_565 S
C164 H158 0.930 . S
C164 C160 1.429 . S
C164 C163 1.391 1_545 S
H165 C168 0.931 . S
H166 C171 0.928 . S
H167 C173 0.930 . S
C168 H165 0.931 . S
C168 C169 1.413 . S
C168 C170 1.360 . S
C169 C168 1.413 . S
C169 C173 1.429 . S
C170 C168 1.360 . S
C170 C171 1.372 . S
C171 H166 0.928 . S
C171 C170 1.372 . S
C171 C172 1.404 . S
C172 C171 1.404 . S
C172 C173 1.391 . S
C173 H167 0.930 . S
C173 C169 1.429 . S
C173 C172 1.391 . S
C174 C175 1.387 . S
C174 H178 0.950 . S
C174 C183 1.390 . S
C175 C174 1.387 . S
C175 C177 1.387 . S
H176 C183 0.950 . S
C177 C175 1.387 . S
C177 C179 1.390 . S
C177 H181 0.950 . S
H178 C174 0.950 . S
C179 C177 1.390 . S
C179 C180 1.387 . S
C179 H182 0.950 . S
C180 C179 1.387 . S
C180 C183 1.387 . S
H181 C177 0.950 . S
H182 C179 0.950 . S
C183 C174 1.390 . S
C183 H176 0.950 . S
C183 C180 1.387 . S
C184 C185 1.387 . S
C184 H188 0.950 . S
C184 C193 1.390 . S
C185 C184 1.387 . S
C185 C187 1.387 . S
H186 C193 0.950 . S
C187 C185 1.387 . S
C187 C189 1.390 . S
C187 H191 0.950 . S
H188 C184 0.950 . S
C189 C187 1.390 . S
C189 C190 1.387 . S
C189 H192 0.950 . S
C190 C189 1.387 . S
C190 C193 1.387 . S
H191 C187 0.950 . S
H192 C189 0.950 . S
C193 C184 1.390 . S
C193 H186 0.950 . S
C193 C190 1.387 . S
C194 C195 1.387 . S
C194 H198 0.950 . S
C194 C203 1.390 . S
C195 C194 1.387 . S
C195 C197 1.387 . S
H196 C203 0.950 . S
C197 C195 1.387 . S
C197 C199 1.390 . S
C197 H201 0.950 . S
H198 C194 0.950 . S
C199 C197 1.390 . S
C199 C200 1.387 . S
C199 H202 0.950 . S
C200 C199 1.387 . S
C200 C203 1.387 . S
H201 C197 0.950 . S
H202 C199 0.950 . S
C203 C194 1.390 . S
C203 H196 0.950 . S
C203 C200 1.387 . S
C204 C205 1.387 . S
C204 H208 0.950 . S
C204 C213 1.390 . S
C205 C204 1.387 . S
C205 C207 1.387 . S
H206 C213 0.950 . S
C207 C205 1.387 . S
C207 C209 1.390 . S
C207 H211 0.950 . S
H208 C204 0.950 . S
C209 C207 1.390 . S
C209 C210 1.387 . S
C209 H212 0.950 . S
C210 C209 1.387 . S
C210 C213 1.387 . S
H211 C207 0.950 . S
H212 C209 0.950 . S
C213 C204 1.390 . S
C213 H206 0.950 . S
C213 C210 1.387 . S
C214 C215 1.387 . S
C214 H218 0.950 . S
C214 C223 1.390 . S
C215 C214 1.387 . S
C215 C217 1.387 . S
H216 C223 0.950 . S
C217 C215 1.387 . S
C217 C219 1.390 . S
C217 H221 0.950 . S
H218 C214 0.950 . S
C219 C217 1.390 . S
C219 C220 1.387 . S
C219 H222 0.950 . S
C220 C219 1.387 . S
C220 C223 1.387 . S
H221 C217 0.950 . S
H222 C219 0.950 . S
C223 C214 1.390 . S
C223 H216 0.950 . S
C223 C220 1.387 . S
C224 C225 1.387 . S
C224 H228 0.950 . S
C224 C233 1.390 . S
C225 C224 1.387 . S
C225 C227 1.387 . S
H226 C233 0.950 . S
C227 C225 1.387 . S
C227 C229 1.390 . S
C227 H231 0.950 . S
H228 C224 0.950 . S
C229 C227 1.390 . S
C229 C230 1.387 . S
C229 H232 0.950 . S
C230 C229 1.387 . S
C230 C233 1.387 . S
H231 C227 0.950 . S
H232 C229 0.950 . S
C233 C224 1.390 . S
C233 H226 0.950 . S
C233 C230 1.387 . S
C234 C235 1.387 . S
C234 H238 0.950 . S
C234 C243 1.390 . S
C235 C234 1.387 . S
C235 C237 1.387 . S
H236 C243 0.950 . S
C237 C235 1.387 . S
C237 C239 1.390 . S
C237 H241 0.950 . S
H238 C234 0.950 . S
C239 C237 1.390 . S
C239 C240 1.387 . S
C239 H242 0.950 . S
C240 C239 1.387 . S
C240 C243 1.387 . S
H241 C237 0.950 . S
H242 C239 0.950 . S
C243 C234 1.390 . S
C243 H236 0.950 . S
C243 C240 1.387 . S
C244 C245 1.387 . S
C244 H248 0.950 . S
C244 C253 1.390 . S
C245 C244 1.387 . S
C245 C247 1.387 . S
H246 C253 0.950 . S
C247 C245 1.387 . S
C247 C249 1.390 . S
C247 H251 0.950 . S
H248 C244 0.950 . S
C249 C247 1.390 . S
C249 C250 1.387 . S
C249 H252 0.950 . S
C250 C249 1.387 . S
C250 C253 1.387 . S
H251 C247 0.950 . S
H252 C249 0.950 . S
C253 C244 1.390 . S
C253 H246 0.950 . S
C253 C250 1.387 . S
C254 C255 1.387 . S
C254 H258 0.950 . S
C254 C263 1.390 . S
C255 C254 1.387 . S
C255 C257 1.387 . S
H256 C263 0.950 . S
C257 C255 1.387 . S
C257 C259 1.390 . S
C257 H261 0.950 . S
H258 C254 0.950 . S
C259 C257 1.390 . S
C259 C260 1.387 . S
C259 H262 0.950 . S
C260 C259 1.387 . S
C260 C263 1.387 . S
H261 C257 0.950 . S
H262 C259 0.950 . S
C263 C254 1.390 . S
C263 H256 0.950 . S
C263 C260 1.387 . S
C264 C265 1.387 . S
C264 H268 0.950 . S
C264 C273 1.390 . S
C265 C264 1.387 . S
C265 C267 1.387 . S
H266 C273 0.950 . S
C267 C265 1.387 . S
C267 C269 1.390 . S
C267 H271 0.950 . S
H268 C264 0.950 . S
C269 C267 1.390 . S
C269 C270 1.387 . S
C269 H272 0.950 . S
C270 C269 1.387 . S
C270 C273 1.387 . S
H271 C267 0.950 . S
H272 C269 0.950 . S
C273 C264 1.390 . S
C273 H266 0.950 . S
C273 C270 1.387 . S
C274 C275 1.387 . S
C274 H278 0.950 . S
C274 C283 1.390 . S
C275 C274 1.387 . S
C275 C277 1.387 . S
H276 C283 0.950 . S
C277 C275 1.387 . S
C277 C279 1.390 . S
C277 H281 0.950 . S
H278 C274 0.950 . S
C279 C277 1.390 . S
C279 C280 1.387 . S
C279 H282 0.950 . S
C280 C279 1.387 . S
C280 C283 1.387 . S
H281 C277 0.950 . S
H282 C279 0.950 . S
C283 C274 1.390 . S
C283 H276 0.950 . S
C283 C280 1.387 . S
C284 C285 1.387 . S
C284 H288 0.950 . S
C284 C293 1.390 . S
C285 C284 1.387 . S
C285 C287 1.387 . S
H286 C293 0.950 . S
C287 C285 1.387 . S
C287 C289 1.390 . S
C287 H291 0.950 . S
H288 C284 0.950 . S
C289 C287 1.390 . S
C289 C290 1.387 . S
C289 H292 0.950 . S
C290 C289 1.387 . S
C290 C293 1.387 . S
H291 C287 0.950 . S
H292 C289 0.950 . S
C293 C284 1.390 . S
C293 H286 0.950 . S
C293 C290 1.387 . S
C294 C295 1.387 1_655 S
C294 H298 0.950 . S
C294 C303 1.390 . S
C295 C294 1.387 1_455 S
C295 C297 1.387 . S
H296 C303 0.950 1_556 S
C297 C295 1.387 . S
C297 C299 1.390 . S
C297 H301 0.950 . S
H298 C294 0.950 . S
C299 C297 1.390 . S
C299 C300 1.387 1_554 S
C299 H302 0.944 1_554 S
C300 C299 1.387 1_556 S
C300 C303 1.387 1_456 S
H301 C297 0.950 . S
H302 C299 0.944 1_556 S
C303 C294 1.390 . S
C303 H296 0.950 1_554 S
C303 C300 1.387 1_654 S
C304 C305 1.387 . S
C304 H308 0.950 1_545 S
C304 C313 1.390 . S
C305 C304 1.387 . S
C305 C307 1.387 . S
H306 C313 0.950 1_565 S
C307 C305 1.387 . S
C307 C309 1.390 . S
C307 H311 0.950 . S
H308 C304 0.950 1_565 S
C309 C307 1.390 . S
C309 C310 1.387 . S
C309 H312 0.950 . S
C310 C309 1.387 . S
C310 C313 1.387 . S
H311 C307 0.950 . S
H312 C309 0.950 . S
C313 C304 1.390 . S
C313 H306 0.950 1_545 S
C313 C310 1.387 . S
C314 C315 1.387 . S
C314 H318 0.950 . S
C314 C323 1.390 . S
C315 C314 1.387 . S
C315 C317 1.387 . S
H316 C323 0.950 . S
C317 C315 1.387 . S
C317 C319 1.390 . S
C317 H321 0.950 . S
H318 C314 0.950 . S
C319 C317 1.390 . S
C319 C320 1.387 . S
C319 H322 0.950 . S
C320 C319 1.387 . S
C320 C323 1.387 . S
H321 C317 0.950 . S
H322 C319 0.950 . S
C323 C314 1.390 . S
C323 H316 0.950 . S
C323 C320 1.387 . S
C324 C325 1.387 . S
C324 H328 0.950 . S
C324 C333 1.390 . S
C325 C324 1.387 . S
C325 C327 1.387 1_545 S
H326 C333 0.950 . S
C327 C325 1.387 1_565 S
C327 C329 1.390 . S
C327 H331 0.950 . S
H328 C324 0.950 . S
C329 C327 1.390 . S
C329 C330 1.387 . S
C329 H332 0.950 . S
C330 C329 1.387 . S
C330 C333 1.387 1_565 S
H331 C327 0.950 . S
H332 C329 0.950 . S
C333 C324 1.390 . S
C333 H326 0.950 . S
C333 C330 1.387 1_545 S
C334 C335 1.387 . S
C334 H338 0.950 . S
C334 C343 1.390 . S
C335 C334 1.387 . S
C335 C337 1.387 . S
H336 C343 0.950 . S
C337 C335 1.387 . S
C337 C339 1.376 1_556 S
C337 H341 0.950 . S
H338 C334 0.950 . S
C339 C337 1.376 1_554 S
C339 C340 1.391 . S
C339 H342 0.960 . S
C340 C339 1.391 . S
C340 C343 1.387 1_554 S
H341 C337 0.950 . S
H342 C339 0.960 . S
C343 C334 1.390 . S
C343 H336 0.950 . S
C343 C340 1.387 1_556 S
C344 C345 1.387 . S
C344 H348 0.950 . S
C344 C353 1.390 . S
C345 C344 1.387 . S
C345 C347 1.387 1_455 S
H346 C353 0.950 . S
C347 C345 1.387 1_655 S
C347 C349 1.390 . S
C347 H351 0.950 . S
H348 C344 0.950 . S
C349 C347 1.390 . S
C349 C350 1.387 1_655 S
C349 H352 0.950 . S
C350 C349 1.387 1_455 S
C350 C353 1.387 . S
H351 C347 0.950 . S
H352 C349 0.950 . S
C353 C344 1.390 . S
C353 H346 0.950 . S
C353 C350 1.387 . S
C175 C6 1.228 . S
C180 C169 1.423 . S
C185 C59 1.875 . S
C190 C151 1.853 . S
C195 C86 1.662 . S
C200 C163 1.803 . S
C205 C15 0.972 . S
C210 C172 1.141 . S
C220 C154 1.860 . S
C215 C50 1.880 . S
C230 C160 1.609 . S
C225 C95 1.507 . S
C235 C46 1.473 . S
C240 C133 1.570 . S
C245 C99 3.063 . S
C250 C142 3.030 1_655 S
C255 C10 1.913 . S
C260 C124 1.939 . S
C270 C136 1.672 . S
C265 C55 1.537 . S
C280 C145 3.014 . S
C275 C90 2.992 . S
C285 C19 1.871 . S
C290 C127 1.872 . S
C300 C143 1.816 . S
C295 C18 1.741 . S
C305 C49 1.281 . S
C310 C125 1.332 . S
C315 C98 1.423 . S
C320 C134 1.495 . S
C330 C161 1.458 . S
C325 C58 1.408 . S
C340 C170 0.977 . S
C335 C89 0.985 . S
C345 C9 1.263 . S
C350 C152 1.307 . S
