# Generated by pormake.
# Topology rtl, (3,6)-cn, num edge types: 1
# Building blocks:
#     Node 0, Type 0, BuildingBlock: KAKCAD_clean_linker_0, # of connection points: 3
#     Node 1, Type 0, BuildingBlock: KAKCAD_clean_linker_0, # of connection points: 3
#     Node 2, Type 0, BuildingBlock: KAKCAD_clean_linker_0, # of connection points: 3
#     Node 3, Type 0, BuildingBlock: KAKCAD_clean_linker_0, # of connection points: 3
#     Node 4, Type 1, BuildingBlock: CIFDUS_clean_sbu_1, # of connection points: 6
#     Node 5, Type 1, BuildingBlock: CIFDUS_clean_sbu_1, # of connection points: 6
#     Edge 6, Type (0, 1), BuildingBlock: MIFKUJ_clean_linker_0, # of connection points: 2
#     Edge 7, Type (0, 1), BuildingBlock: MIFKUJ_clean_linker_0, # of connection points: 2
#     Edge 8, Type (0, 1), BuildingBlock: MIFKUJ_clean_linker_0, # of connection points: 2
#     Edge 9, Type (0, 1), BuildingBlock: MIFKUJ_clean_linker_0, # of connection points: 2
#     Edge 10, Type (0, 1), BuildingBlock: MIFKUJ_clean_linker_0, # of connection points: 2
#     Edge 11, Type (0, 1), BuildingBlock: MIFKUJ_clean_linker_0, # of connection points: 2
#     Edge 12, Type (0, 1), BuildingBlock: MIFKUJ_clean_linker_0, # of connection points: 2
#     Edge 13, Type (0, 1), BuildingBlock: MIFKUJ_clean_linker_0, # of connection points: 2
#     Edge 14, Type (0, 1), BuildingBlock: MIFKUJ_clean_linker_0, # of connection points: 2
#     Edge 15, Type (0, 1), BuildingBlock: MIFKUJ_clean_linker_0, # of connection points: 2
#     Edge 16, Type (0, 1), BuildingBlock: MIFKUJ_clean_linker_0, # of connection points: 2
#     Edge 17, Type (0, 1), BuildingBlock: MIFKUJ_clean_linker_0, # of connection points: 2
# Relax obj value: 0.028
# Max RMSD: 0.063
# Mean RMSD: 0.048
data_MOF--net-rtl--node1-CIFDUS_clean_sbu_1--node2-KAKCAD_clean_linker_0--edge1-MIFKUJ_clean_linker_0
_symmetry_space_group_name_H-M    P1
_symmetry_Int_Tables_number       1
_symmetry_cell_setting            triclinic
loop_
_symmetry_equiv_pos_as_xyz
'x, y, z'
_cell_length_a     46.513663
_cell_length_b     52.631554
_cell_length_c     36.64974
_cell_angle_alpha  89.934031
_cell_angle_beta   97.730702
_cell_angle_gamma 90.007763
loop_
_atom_site_label
_atom_site_type_symbol
_atom_site_fract_x
_atom_site_fract_y
_atom_site_fract_z
_atom_type_partial_charge
C0 C 0.18328 0.86281 0.962 0.0
C1 C 0.18422 0.88869 0.95241 0.0
C2 C 0.19539 0.85439 0.997 0.0
C3 C 0.20846 0.87166 0.0234 0.0
C4 C 0.20991 0.89741 0.0137 0.0
C5 C 0.19814 0.90578 0.97861 0.0
C6 C 0.21968 0.863 0.06132 0.0
C7 C 0.23706 0.8411 0.06698 0.0
C8 C 0.2472 0.83249 0.10283 0.0
C9 C 0.23919 0.84592 0.13308 0.0
C10 C 0.22193 0.86788 0.12798 0.0
C11 C 0.21252 0.87642 0.09202 0.0
C12 C 0.21313 0.88147 0.16026 0.0
C13 C 0.20234 0.86786 0.18851 0.0
C14 C 0.21523 0.90808 0.16299 0.0
C15 C 0.20675 0.92077 0.19338 0.0
C16 C 0.19559 0.90715 0.22137 0.0
C17 C 0.2663 0.80965 0.10882 0.0
C18 C 0.26156 0.78828 0.08579 0.0
C19 C 0.28954 0.80908 0.13769 0.0
C20 C 0.30754 0.78776 0.14335 0.0
C21 C 0.30296 0.76646 0.12016 0.0
C22 C 0.27967 0.76699 0.09134 0.0
C23 C 0.19353 0.88056 0.21861 0.0
H24 H 0.17244 0.84909 0.9429 0.0
H25 H 0.19372 0.83446 1.00379 0.0
H26 H 0.22023 0.9111 0.03329 0.0
H27 H 0.19998 0.92574 0.9721 0.0
H28 H 0.24325 0.83115 0.04337 0.0
H29 H 0.19869 0.89304 0.08789 0.0
H30 H 0.24635 0.83927 0.16081 0.0
H31 H 0.20025 0.84738 0.18705 0.0
H32 H 0.22364 0.91904 0.14174 0.0
H33 H 0.20839 0.94129 0.19464 0.0
H34 H 0.2437 0.78788 0.06355 0.0
H35 H 0.29413 0.82528 0.15573 0.0
H36 H 0.18522 0.86954 0.23987 0.0
H37 H 0.27567 0.75112 0.07258 0.0
H38 H 0.32503 0.78799 0.16606 0.0
C39 C 0.69048 0.65992 0.71228 0.0
C40 C 0.69489 0.63346 0.71486 0.0
C41 C 0.6978 0.67362 0.68211 0.0
C42 C 0.70943 0.66121 0.6535 0.0
C43 C 0.71389 0.63482 0.65594 0.0
C44 C 0.70686 0.62113 0.68631 0.0
C45 C 0.71652 0.67573 0.62099 0.0
C46 C 0.73166 0.69887 0.62565 0.0
C47 C 0.73844 0.71275 0.59509 0.0
C48 C 0.72928 0.7034 0.5594 0.0
C49 C 0.71399 0.68033 0.55419 0.0
C50 C 0.70795 0.66656 0.58519 0.0
C51 C 0.70389 0.67059 0.5165 0.0
C52 C 0.68934 0.68656 0.48929 0.0
C53 C 0.70785 0.64493 0.50791 0.0
C54 C 0.69709 0.63534 0.47318 0.0
C55 C 0.68172 0.65106 0.44615 0.0
C56 C 0.75567 0.73666 0.60064 0.0
C57 C 0.74961 0.75476 0.62679 0.0
C58 C 0.77884 0.74123 0.58052 0.0
C59 C 0.79578 0.76319 0.58673 0.0
C60 C 0.78983 0.78123 0.61301 0.0
C61 C 0.7664 0.77684 0.63277 0.0
C62 C 0.67826 0.6769 0.4546 0.0
H63 H 0.68078 0.67008 0.73321 0.0
H64 H 0.69376 0.69389 0.68079 0.0
H65 H 0.72315 0.62477 0.63452 0.0
H66 H 0.71109 0.6009 0.68752 0.0
H67 H 0.73896 0.7057 0.65324 0.0
H68 H 0.69574 0.649 0.58139 0.0
H69 H 0.73414 0.71404 0.53564 0.0
H70 H 0.68573 0.70638 0.49521 0.0
H71 H 0.71935 0.63224 0.52812 0.0
H72 H 0.70089 0.61552 0.46756 0.0
H73 H 0.73178 0.7519 0.64256 0.0
H74 H 0.78425 0.72758 0.56042 0.0
H75 H 0.66628 0.68957 0.43481 0.0
H76 H 0.76132 0.79029 0.65332 0.0
H77 H 0.81345 0.76612 0.57073 0.0
C78 C 0.8141 0.16694 0.1435 0.0
C79 C 0.84165 0.15549 0.14868 0.0
C80 C 0.80126 0.1742 0.10824 0.0
C81 C 0.81583 0.17046 0.07735 0.0
C82 C 0.84375 0.15959 0.08289 0.0
C83 C 0.85638 0.15206 0.11802 0.0
C84 C 0.80203 0.17761 0.03949 0.0
C85 C 0.78464 0.19952 0.03358 0.0
C86 C 0.77225 0.20664 0.99787 0.0
C87 C 0.77746 0.19159 0.96777 0.0
C88 C 0.79464 0.16956 0.97296 0.0
C89 C 0.80656 0.16265 0.00892 0.0
C90 C 0.80105 0.15429 0.94076 0.0
C91 C 0.7794 0.14934 0.91091 0.0
C92 C 0.82927 0.14519 0.93918 0.0
C93 C 0.83589 0.1321 0.90822 0.0
C94 C 0.81447 0.12773 0.87796 0.0
C95 C 0.75415 0.22998 0.99196 0.0
C96 C 0.7325 0.23502 0.01428 0.0
C97 C 0.75831 0.24735 0.96395 0.0
C98 C 0.74128 0.26932 0.95848 0.0
C99 C 0.71947 0.27425 0.98062 0.0
C100 C 0.71526 0.25682 0.00855 0.0
C101 C 0.78602 0.13614 0.87991 0.0
H102 H 0.8021 0.16958 0.16658 0.0
H103 H 0.77963 0.1822 0.10513 0.0
H104 H 0.85602 0.15697 0.06008 0.0
H105 H 0.87781 0.14361 0.12124 0.0
H106 H 0.78143 0.21158 0.05663 0.0
H107 H 0.81912 0.14531 0.0131 0.0
H108 H 0.76828 0.19718 0.94018 0.0
H109 H 0.75736 0.15582 0.91141 0.0
H110 H 0.84654 0.1488 0.96149 0.0
H111 H 0.85795 0.12564 0.90778 0.0
H112 H 0.72866 0.22192 0.03593 0.0
H113 H 0.77498 0.2441 0.9465 0.0
H114 H 0.76907 0.13323 0.85699 0.0
H115 H 0.69884 0.2602 0.02631 0.0
H116 H 0.74494 0.28231 0.93663 0.0
C117 C 0.28481 0.405 0.37066 0.0
C118 C 0.31335 0.414 0.3712 0.0
C119 C 0.27656 0.39208 0.40104 0.0
C120 C 0.29666 0.38775 0.43273 0.0
C121 C 0.32517 0.3968 0.43323 0.0
C122 C 0.33334 0.40984 0.40302 0.0
C123 C 0.28803 0.37393 0.46517 0.0
C124 C 0.26919 0.35289 0.46036 0.0
C125 C 0.26115 0.33962 0.49083 0.0
C126 C 0.27229 0.34778 0.52658 0.0
C127 C 0.29159 0.3684 0.53197 0.0
C128 C 0.29909 0.38145 0.50116 0.0
C129 C 0.30451 0.3761 0.5697 0.0
C130 C 0.28709 0.37931 0.59788 0.0
C131 C 0.33451 0.38053 0.57764 0.0
C132 C 0.34682 0.38811 0.61287 0.0
C133 C 0.32938 0.39174 0.64091 0.0
C134 C 0.24187 0.31683 0.48531 0.0
C135 C 0.21858 0.3159 0.45644 0.0
C136 C 0.24681 0.29562 0.50872 0.0
C137 C 0.22884 0.27427 0.50375 0.0
C138 C 0.20555 0.2734 0.47503 0.0
C139 C 0.20073 0.29438 0.45126 0.0
C140 C 0.29937 0.38724 0.63304 0.0
H141 H 0.26887 0.4076 0.34655 0.0
H142 H 0.25432 0.38567 0.39978 0.0
H143 H 0.34139 0.39358 0.45687 0.0
H144 H 0.35539 0.4168 0.40477 0.0
H145 H 0.26156 0.34631 0.43276 0.0
H146 H 0.31327 0.39782 0.50538 0.0
H147 H 0.26629 0.33788 0.55037 0.0
H148 H 0.2639 0.37614 0.59252 0.0
H149 H 0.34852 0.37801 0.55657 0.0
H150 H 0.36995 0.39165 0.61797 0.0
H151 H 0.21383 0.33195 0.43812 0.0
H152 H 0.26488 0.29529 0.53068 0.0
H153 H 0.2854 0.38978 0.65414 0.0
H154 H 0.18281 0.29437 0.42909 0.0
H155 H 0.23343 0.25823 0.52216 0.0
O156 O 0.98543 0.03879 0.50526 0.0
Mn157 Mn 0.00878 0.02329 0.55315 0.0
O158 O 0.97034 0.0055 0.46913 0.0
Mn159 Mn 0.98889 0.98034 0.49895 0.0
O160 O 0.03221 0.00727 0.6009 0.0
O161 O 0.03023 0.05642 0.56132 0.0
Mn162 Mn 0.03308 0.06492 0.60803 0.0
O163 O 0.976 0.03607 0.58368 0.0
O164 O 0.0536 0.03939 0.63463 0.0
O165 O 0.04183 0.0116 0.52272 0.0
O166 O 0.0274 0.97526 0.49403 0.0
O167 O 0.05115 0.09055 0.5856 0.0
O168 O 0.99549 0.06909 0.61741 0.0
C169 C 0.97286 0.96912 0.54817 0.0
C170 C 0.97186 0.02937 0.47536 0.0
C171 C 0.04899 0.01575 0.6291 0.0
C172 C 0.04386 0.07724 0.55614 0.0
C173 C 0.97411 0.05466 0.60625 0.0
C174 C 0.04658 0.99208 0.50329 0.0
O175 O 0.98742 0.98982 0.54485 0.0
O176 O 0.96844 0.95526 0.5188 0.0
O177 O 0.53129 0.53219 0.09361 0.0
Mn178 Mn 0.50739 0.51809 0.04511 0.0
O179 O 0.54174 0.49845 0.13089 0.0
Mn180 Mn 0.52081 0.4745 0.10104 0.0
O181 O 0.48349 0.50402 0.99662 0.0
O182 O 0.49064 0.55279 0.03499 0.0
Mn183 Mn 0.49185 0.56201 0.98917 0.0
O184 O 0.54243 0.52631 0.01606 0.0
O185 O 0.46959 0.538 0.96101 0.0
O186 O 0.47194 0.5103 0.07373 0.0
O187 O 0.48157 0.47348 0.10393 0.0
O188 O 0.47445 0.58848 0.0112 0.0
O189 O 0.53089 0.56246 0.98432 0.0
C190 C 0.53652 0.46143 0.05224 0.0
C191 C 0.54315 0.5222 0.12409 0.0
C192 C 0.46955 0.51414 0.96743 0.0
C193 C 0.47799 0.57401 0.03997 0.0
C194 C 0.54871 0.54481 0.99547 0.0
C195 C 0.46446 0.49163 0.09313 0.0
O196 O 0.52424 0.48319 0.05539 0.0
O197 O 0.53866 0.44746 0.08155 0.0
H198 H 0.18192 0.24783 0.52842 0.0
H199 H 0.15278 0.20917 0.52218 0.0
H200 H 0.15643 0.2086 0.4052 0.0
H201 H 0.18542 0.2478 0.41128 0.0
H202 H 0.10356 0.19375 0.41898 0.0
H203 H 0.19987 0.16874 0.45981 0.0
H204 H 0.24803 0.17015 0.49724 0.0
H205 H 0.2094 0.15339 0.59453 0.0
H206 H 0.16094 0.15227 0.55779 0.0
H207 H 0.0854 0.05956 0.51739 0.0
H208 H 0.11127 0.08621 0.47765 0.0
H209 H 0.04722 0.14518 0.48169 0.0
H210 H 0.02092 0.11802 0.51936 0.0
H211 H 0.13697 0.12405 0.50559 0.0
H212 H 0.05064 0.19279 0.4239 0.0
H213 H 0.005 0.18891 0.38147 0.0
H214 H 0.02727 0.11256 0.35526 0.0
H215 H 0.0733 0.11607 0.39692 0.0
C216 C 0.17657 0.23949 0.50135 0.0
C217 C 0.18633 0.25068 0.47044 0.0
C218 C 0.15988 0.21737 0.49778 0.0
C219 C 0.15291 0.20561 0.46332 0.0
C220 C 0.16165 0.21723 0.43209 0.0
C221 C 0.17821 0.23961 0.43561 0.0
C222 C 0.13735 0.18079 0.4608 0.0
C223 C 0.11083 0.17836 0.43766 0.0
C224 C 0.14758 0.16016 0.48373 0.0
C225 C 0.17674 0.16051 0.50601 0.0
C226 C 0.20162 0.16548 0.48921 0.0
C227 C 0.22898 0.16622 0.51031 0.0
C228 C 0.23177 0.16188 0.54824 0.0
C229 C 0.20721 0.15674 0.56514 0.0
C230 C 0.17979 0.156 0.54417 0.0
C231 C 0.07582 0.07743 0.50737 0.0
C232 C 0.05097 0.08662 0.52075 0.0
C233 C 0.09086 0.09292 0.4852 0.0
C234 C 0.08151 0.11797 0.4768 0.0
C235 C 0.05485 0.12592 0.48696 0.0
C236 C 0.0397 0.11033 0.50861 0.0
C237 C 0.102 0.1374 0.46546 0.0
C238 C 0.12968 0.13897 0.48609 0.0
C239 C 0.09311 0.15674 0.43934 0.0
C240 C 0.0655 0.15469 0.41377 0.0
C241 C 0.04598 0.17524 0.40888 0.0
C242 C 0.01998 0.17308 0.38499 0.0
C243 C 0.01325 0.15049 0.36573 0.0
C244 C 0.0325 0.13003 0.37027 0.0
C245 C 0.05853 0.13208 0.39405 0.0
H246 H 0.99316 0.14884 0.34724 0.0
H247 H 0.25297 0.16248 0.56453 0.0
H248 H 0.28913 0.71578 0.11208 0.0
H249 H 0.32226 0.67961 0.11598 0.0
H250 H 0.39483 0.72999 0.14535 0.0
H251 H 0.36203 0.76635 0.1397 0.0
H252 H 0.40576 0.70004 0.09313 0.0
H253 H 0.37111 0.68691 0.20814 0.0
H254 H 0.33485 0.6818 0.25085 0.0
H255 H 0.30147 0.61505 0.1926 0.0
H256 H 0.33726 0.61996 0.14917 0.0
H257 H 0.5037 0.60323 0.09556 0.0
H258 H 0.47682 0.63241 0.13046 0.0
H259 H 0.39717 0.5937 0.09 0.0
H260 H 0.42419 0.56427 0.0558 0.0
H261 H 0.39379 0.61835 0.1572 0.0
H262 H 0.42144 0.63733 0.03645 0.0
H263 H 0.45687 0.64229 0.99253 0.0
H264 H 0.50272 0.69858 0.06247 0.0
H265 H 0.46766 0.69375 0.10698 0.0
C266 C 0.31214 0.71921 0.11931 0.0
C267 C 0.32284 0.74409 0.12536 0.0
C268 C 0.33106 0.69841 0.12212 0.0
C269 C 0.36109 0.70195 0.13143 0.0
C270 C 0.37175 0.7267 0.13833 0.0
C271 C 0.35289 0.74751 0.13532 0.0
C272 C 0.38156 0.68026 0.13057 0.0
C273 C 0.4035 0.68245 0.10797 0.0
C274 C 0.37833 0.65698 0.14915 0.0
C275 C 0.35675 0.65393 0.17521 0.0
C276 C 0.35589 0.67126 0.20424 0.0
C277 C 0.33544 0.66837 0.22862 0.0
C278 C 0.31583 0.64814 0.2244 0.0
C279 C 0.31666 0.63072 0.19582 0.0
C280 C 0.33705 0.63353 0.17134 0.0
C281 C 0.48076 0.59996 0.09615 0.0
C282 C 0.46595 0.58152 0.07327 0.0
C283 C 0.46534 0.6168 0.11576 0.0
C284 C 0.43488 0.61567 0.11196 0.0
C285 C 0.42062 0.59502 0.09321 0.0
C286 C 0.4361 0.57809 0.07382 0.0
C287 C 0.41778 0.63837 0.11994 0.0
C288 C 0.39635 0.63626 0.14333 0.0
C289 C 0.42132 0.66183 0.10208 0.0
C290 C 0.44216 0.66498 0.07517 0.0
C291 C 0.43917 0.65066 0.04252 0.0
C292 C 0.45916 0.65346 0.01753 0.0
C293 C 0.48209 0.67067 0.02477 0.0
C294 C 0.48499 0.68521 0.05694 0.0
C295 C 0.46506 0.68247 0.08204 0.0
H296 H 0.49756 0.67279 1.00541 0.0
H297 H 0.30002 0.64594 0.24331 0.0
H298 H 0.84901 0.78484 0.61968 0.0
H299 H 0.87879 0.82324 0.62731 0.0
H300 H 0.80191 0.86871 0.62938 0.0
H301 H 0.77189 0.83031 0.62124 0.0
H302 H 0.83624 0.88729 0.58155 0.0
H303 H 0.84944 0.86165 0.70725 0.0
H304 H 0.86037 0.83211 0.75952 0.0
H305 H 0.94664 0.82155 0.73273 0.0
H306 H 0.93611 0.85074 0.67996 0.0
H307 H 0.92711 0.98903 0.57644 0.0
H308 H 0.89484 0.96477 0.61098 0.0
H309 H 0.95628 0.90291 0.6212 0.0
H310 H 0.98927 0.92816 0.58958 0.0
H311 H 0.92359 0.89859 0.67393 0.0
H312 H 0.90591 0.91264 0.54081 0.0
H313 H 0.89672 0.94005 0.48579 0.0
H314 H 0.82028 0.96981 0.52434 0.0
H315 H 0.82927 0.94275 0.57982 0.0
C316 C 0.83843 0.803 0.62185 0.0
C317 C 0.80805 0.80451 0.61967 0.0
C318 C 0.85552 0.82493 0.62665 0.0
C319 C 0.84265 0.84888 0.62938 0.0
C320 C 0.81235 0.85043 0.62764 0.0
C321 C 0.79523 0.82846 0.6231 0.0
C322 C 0.86072 0.87232 0.63093 0.0
C323 C 0.85489 0.89009 0.60236 0.0
C324 C 0.8854 0.8758 0.65764 0.0
C325 C 0.89191 0.85831 0.68949 0.0
C326 C 0.87068 0.8529 0.71233 0.0
C327 C 0.87682 0.83623 0.74209 0.0
C328 C 0.90417 0.82493 0.74941 0.0
C329 C 0.92546 0.83032 0.72703 0.0
C330 C 0.91943 0.84696 0.69722 0.0
C331 C 0.93472 0.97128 0.58903 0.0
C332 C 0.96092 0.96079 0.58131 0.0
C333 C 0.91593 0.95701 0.60785 0.0
C334 C 0.92262 0.93158 0.61752 0.0
C335 C 0.95042 0.92235 0.61386 0.0
C336 C 0.9694 0.93686 0.59587 0.0
C337 C 0.89948 0.91312 0.62401 0.0
C338 C 0.90441 0.89618 0.65386 0.0
C339 C 0.87414 0.91007 0.59814 0.0
C340 C 0.86839 0.92591 0.56452 0.0
C341 C 0.88718 0.92508 0.53753 0.0
C342 C 0.88203 0.94056 0.50631 0.0
C343 C 0.85796 0.9567 0.50161 0.0
C344 C 0.83894 0.95733 0.52805 0.0
C345 C 0.84405 0.94194 0.55938 0.0
H346 H 0.85402 0.9687 0.47744 0.0
H347 H 0.90888 0.81203 0.77246 0.0
H348 H 0.66066 0.27801 0.97855 0.0
H349 H 0.63092 0.31648 0.97235 0.0
H350 H 0.70707 0.3616 0.96342 0.0
H351 H 0.73705 0.32309 0.96991 0.0
H352 H 0.67455 0.3806 0.01422 0.0
H353 H 0.65764 0.35452 0.88894 0.0
H354 H 0.64543 0.32475 0.83731 0.0
H355 H 0.56064 0.31368 0.8687 0.0
H356 H 0.57248 0.34309 0.92088 0.0
H357 H 0.58037 0.48235 0.01971 0.0
H358 H 0.61306 0.45773 0.98596 0.0
H359 H 0.55466 0.39378 0.98251 0.0
H360 H 0.52196 0.41853 0.01505 0.0
H361 H 0.58454 0.39092 0.92604 0.0
H362 H 0.60619 0.40549 0.05853 0.0
H363 H 0.61682 0.43293 0.11323 0.0
H364 H 0.6914 0.46311 0.07063 0.0
H365 H 0.68094 0.43604 0.01542 0.0
C366 C 0.67107 0.29611 0.97514 0.0
C367 C 0.70122 0.29751 0.97485 0.0
C368 C 0.654 0.31806 0.97121 0.0
C369 C 0.6667 0.34192 0.96699 0.0
C370 C 0.69678 0.34338 0.96636 0.0
C371 C 0.71385 0.32136 0.96995 0.0
C372 C 0.64872 0.36535 0.96605 0.0
C373 C 0.65531 0.38323 0.99428 0.0
C374 C 0.62333 0.36858 0.94045 0.0
C375 C 0.61603 0.35095 0.90897 0.0
C376 C 0.63646 0.34561 0.885 0.0
C377 C 0.62959 0.32881 0.8556 0.0
C378 C 0.60229 0.31731 0.84975 0.0
C379 C 0.58178 0.32261 0.87326 0.0
C380 C 0.58854 0.33938 0.90272 0.0
C381 C 0.57376 0.46362 0.00963 0.0
C382 C 0.54869 0.45228 0.01972 0.0
C383 C 0.59263 0.44939 0.99084 0.0
C384 C 0.58676 0.4236 0.98267 0.0
C385 C 0.55984 0.41352 0.98864 0.0
C386 C 0.54106 0.42772 0.00717 0.0
C387 C 0.60998 0.40574 0.97477 0.0
C388 C 0.60433 0.38876 0.94512 0.0
C389 C 0.63607 0.40304 0.99939 0.0
C390 C 0.64261 0.41901 0.03273 0.0
C391 C 0.62478 0.41807 0.0608 0.0
C392 C 0.63076 0.43355 0.09186 0.0
C393 C 0.65473 0.44981 0.09536 0.0
C394 C 0.67281 0.45055 0.06784 0.0
C395 C 0.66686 0.43516 0.03665 0.0
H396 H 0.65933 0.46179 0.11942 0.0
H397 H 0.59702 0.3043 0.82698 0.0
H398 H 0.14502 0.89972 0.24981 0.0
H399 H 0.12808 0.92159 0.30176 0.0
H400 H 0.20611 0.96677 0.31647 0.0
H401 H 0.22326 0.94487 0.26424 0.0
H402 H 0.19035 0.94634 0.38337 0.0
H403 H 0.14867 0.99529 0.27995 0.0
H404 H 0.12205 1.00222 0.21789 0.0
H405 H 0.04578 0.96853 0.25165 0.0
H406 H 0.07207 0.96104 0.31377 0.0
H407 H 0.07183 0.02916 0.46676 0.0
H408 H 0.1076 0.02293 0.42413 0.0
H409 H 0.11523 0.94394 0.4555 0.0
H410 H 0.07967 0.95021 0.49808 0.0
H411 H 0.09575 0.99134 0.36566 0.0
H412 H 0.18112 0.92131 0.44095 0.0
H413 H 0.20798 0.91532 0.50309 0.0
H414 H 0.19853 0.99462 0.52612 0.0
H415 H 0.17202 1.00119 0.46395 0.0
C416 C 0.15865 0.91422 0.2642 0.0
C417 C 0.18547 0.92058 0.25296 0.0
C418 C 0.14889 0.92679 0.29375 0.0
C419 C 0.16577 0.94589 0.31283 0.0
C420 C 0.19275 0.95211 0.30205 0.0
C421 C 0.20241 0.93972 0.27213 0.0
C422 C 0.15487 0.95925 0.34388 0.0
C423 C 0.1698 0.95638 0.37958 0.0
C424 C 0.1284 0.97284 0.33874 0.0
C425 C 0.11241 0.97747 0.30147 0.0
C426 C 0.12628 0.9892 0.27407 0.0
C427 C 0.11124 0.99325 0.23889 0.0
C428 C 0.08226 0.98579 0.23081 0.0
C429 C 0.06823 0.9743 0.25794 0.0
C430 C 0.08318 0.97018 0.29316 0.0
C431 C 0.08227 0.01084 0.46588 0.0
C432 C 0.0734 0.99027 0.4861 0.0
C433 C 0.10239 0.00719 0.44115 0.0
C434 C 0.11417 0.98298 0.43666 0.0
C435 C 0.1068 0.96286 0.45883 0.0
C436 C 0.08647 0.96644 0.48315 0.0
C437 C 0.13062 0.97761 0.40546 0.0
C438 C 0.11662 0.98182 0.36958 0.0
C439 C 0.158 0.96542 0.41051 0.0
C440 C 0.1744 0.9617 0.44779 0.0
C441 C 0.18493 0.93751 0.45916 0.0
C442 C 0.20006 0.934 0.49443 0.0
C443 C 0.2049 0.95456 0.51857 0.0
C444 C 0.19469 0.97869 0.50745 0.0
C445 C 0.17957 0.98231 0.4722 0.0
H446 H 0.21658 0.95179 0.54588 0.0
H447 H 0.07065 0.98894 0.20355 0.0
H448 H 0.699 0.64833 0.78731 0.0
H449 H 0.68241 0.62566 0.8385 0.0
H450 H 0.65691 0.56207 0.76725 0.0
H451 H 0.67168 0.58535 0.71522 0.0
H452 H 0.6162 0.57088 0.80561 0.0
H453 H 0.71771 0.56032 0.83726 0.0
H454 H 0.76924 0.57272 0.84884 0.0
H455 H 0.75152 0.62078 0.93774 0.0
H456 H 0.69979 0.60896 0.92638 0.0
H457 H 0.571 0.50743 0.95633 0.0
H458 H 0.60648 0.51382 0.91326 0.0
H459 H 0.6222 0.59003 0.95429 0.0
H460 H 0.58671 0.58373 0.99698 0.0
H461 H 0.67225 0.56653 0.93065 0.0
H462 H 0.5692 0.58192 0.88859 0.0
H463 H 0.51813 0.56796 0.87792 0.0
H464 H 0.54089 0.50792 0.8079 0.0
H465 H 0.59222 0.5213 0.81871 0.0
C466 C 0.68969 0.6296 0.78232 0.0
C467 C 0.68662 0.61882 0.74686 0.0
C468 C 0.68064 0.61641 0.81191 0.0
C469 C 0.66881 0.59188 0.80707 0.0
C470 C 0.66611 0.58089 0.77186 0.0
C471 C 0.67485 0.59419 0.74212 0.0
C472 C 0.65748 0.57854 0.83816 0.0
C473 C 0.62884 0.5694 0.83266 0.0
C474 C 0.67367 0.57669 0.87375 0.0
C475 C 0.7048 0.58386 0.88079 0.0
C476 C 0.72475 0.57367 0.85912 0.0
C477 C 0.75401 0.58058 0.86567 0.0
C478 C 0.76364 0.59756 0.89397 0.0
C479 C 0.74403 0.60763 0.91582 0.0
C480 C 0.71474 0.6008 0.90938 0.0
C481 C 0.58317 0.52502 0.95744 0.0
C482 C 0.57634 0.54506 0.98004 0.0
C483 C 0.60322 0.52876 0.9326 0.0
C484 C 0.61669 0.55253 0.93028 0.0
C485 C 0.61213 0.57155 0.95565 0.0
C486 C 0.59188 0.56793 0.98006 0.0
C487 C 0.63115 0.55936 0.89789 0.0
C488 C 0.66014 0.56745 0.90323 0.0
C489 C 0.61547 0.56003 0.86202 0.0
C490 C 0.58454 0.55242 0.85477 0.0
C491 C 0.56332 0.56566 0.87109 0.0
C492 C 0.53434 0.55785 0.86502 0.0
C493 C 0.52628 0.53702 0.84233 0.0
C494 C 0.54718 0.52402 0.82553 0.0
C495 C 0.57621 0.5317 0.83162 0.0
H496 H 0.50384 0.53098 0.83769 0.0
H497 H 0.7863 0.60289 0.89899 0.0
H498 H 0.84596 0.1805 0.21498 0.0
H499 H 0.86681 0.16432 0.27585 0.0
H500 H 0.88678 0.0933 0.22638 0.0
H501 H 0.8663 0.10934 0.16578 0.0
H502 H 0.85672 0.08863 0.28899 0.0
H503 H 0.9397 0.13304 0.25064 0.0
H504 H 0.96596 0.17056 0.23194 0.0
H505 H 0.95279 0.20872 0.33185 0.0
H506 H 0.92607 0.17154 0.3509 0.0
H507 H 0.95312 0.01668 0.40431 0.0
H508 H 0.92949 0.04329 0.35531 0.0
H509 H 0.9347 0.10745 0.42901 0.0
H510 H 0.95951 0.08073 0.47879 0.0
H511 H 0.94644 0.12171 0.36212 0.0
H512 H 0.86991 0.07657 0.40546 0.0
H513 H 0.84421 0.03952 0.42661 0.0
H514 H 0.84264 1.00452 0.3206 0.0
H515 H 0.86874 0.04118 0.29895 0.0
C516 C 0.85485 0.16145 0.21719 0.0
C517 C 0.85457 0.14619 0.18562 0.0
C518 C 0.86686 0.15231 0.25188 0.0
C519 C 0.87841 0.12764 0.25557 0.0
C520 C 0.87804 0.1124 0.22412 0.0
C521 C 0.86646 0.12163 0.18949 0.0
C522 C 0.89015 0.11709 0.29216 0.0
C523 C 0.87638 0.0958 0.30496 0.0
C524 C 0.91504 0.12717 0.31378 0.0
C525 C 0.93052 0.14968 0.30192 0.0
C526 C 0.94207 0.14956 0.26839 0.0
C527 C 0.95713 0.17073 0.25779 0.0
C528 C 0.96094 0.19205 0.28062 0.0
C529 C 0.94972 0.19224 0.31412 0.0
C530 C 0.93461 0.17113 0.32482 0.0
C531 C 0.94923 0.03641 0.41046 0.0
C532 C 0.95784 0.04642 0.44583 0.0
C533 C 0.93556 0.05163 0.38226 0.0
C534 C 0.92953 0.07722 0.38863 0.0
C535 C 0.93882 0.08765 0.42356 0.0
C536 C 0.95292 0.07236 0.45198 0.0
C537 C 0.91361 0.09259 0.35826 0.0
C538 C 0.92645 0.11481 0.34665 0.0
C539 C 0.88749 0.08363 0.33794 0.0
C540 C 0.87142 0.06162 0.35063 0.0
C541 C 0.86422 0.06092 0.3867 0.0
C542 C 0.84957 0.03998 0.39878 0.0
C543 C 0.84182 0.01967 0.37498 0.0
C544 C 0.84865 0.02028 0.33901 0.0
C545 C 0.86333 0.04116 0.32679 0.0
H546 H 0.83051 1.00347 0.3844 0.0
H547 H 0.97267 0.20839 0.2724 0.0
H548 H 0.30978 0.42985 0.68175 0.0
H549 H 0.33314 0.44713 0.74039 0.0
H550 H 0.4019 0.39204 0.74206 0.0
H551 H 0.37865 0.37468 0.68326 0.0
H552 H 0.38095 0.39989 0.81265 0.0
H553 H 0.41604 0.44723 0.7149 0.0
H554 H 0.41069 0.4724 0.65761 0.0
H555 H 0.36267 0.5291 0.70806 0.0
H556 H 0.36736 0.50405 0.76551 0.0
H557 H 0.481 0.46491 0.94874 0.0
H558 H 0.45681 0.44073 0.89608 0.0
H559 H 0.39643 0.50248 0.87 0.0
H560 H 0.42115 0.5269 0.92127 0.0
H561 H 0.41514 0.4891 0.81101 0.0
H562 H 0.37813 0.4429 0.90786 0.0
H563 H 0.38128 0.41811 0.9654 0.0
H564 H 0.42984 0.36019 0.91828 0.0
H565 H 0.42729 0.38481 0.86058 0.0
C566 C 0.32965 0.42118 0.69486 0.0
C567 C 0.34245 0.40098 0.67781 0.0
C568 C 0.34302 0.43112 0.72828 0.0
C569 C 0.36932 0.42094 0.74548 0.0
C570 C 0.38161 0.40016 0.72926 0.0
C571 C 0.36842 0.3904 0.69557 0.0
C572 C 0.38477 0.43302 0.77916 0.0
C573 C 0.38876 0.4193 0.81234 0.0
C574 C 0.39447 0.45846 0.77881 0.0
C575 C 0.39181 0.47364 0.74438 0.0
C576 C 0.40413 0.46496 0.71368 0.0
C577 C 0.40125 0.47922 0.68119 0.0
C578 C 0.38629 0.5023 0.67916 0.0
C579 C 0.37423 0.5112 0.70965 0.0
C580 C 0.377 0.49698 0.74219 0.0
C581 C 0.46229 0.47309 0.93202 0.0
C582 C 0.45306 0.49784 0.939 0.0
C583 C 0.44842 0.45925 0.90195 0.0
C584 C 0.42465 0.46971 0.87891 0.0
C585 C 0.41482 0.49402 0.88698 0.0
C586 C 0.42894 0.50796 0.91644 0.0
C587 C 0.41087 0.45627 0.84516 0.0
C588 C 0.40734 0.4697 0.81167 0.0
C589 C 0.40132 0.43069 0.84546 0.0
C590 C 0.40278 0.41582 0.88005 0.0
C591 C 0.38967 0.42496 0.90987 0.0
C592 C 0.39131 0.41093 0.94249 0.0
C593 C 0.40583 0.38762 0.94553 0.0
C594 C 0.41865 0.37827 0.9159 0.0
C595 C 0.41709 0.39224 0.88322 0.0
H596 H 0.40708 0.37679 0.97081 0.0
H597 H 0.38409 0.51332 0.65399 0.0
H598 H 0.67661 0.67363 0.37749 0.0
H599 H 0.65498 0.65571 0.31846 0.0
H600 H 0.6366 0.58616 0.37304 0.0
H601 H 0.65712 0.60407 0.43212 0.0
H602 H 0.66285 0.57823 0.30986 0.0
H603 H 0.58357 0.62742 0.34764 0.0
H604 H 0.56056 0.66679 0.36588 0.0
H605 H 0.57379 0.70183 0.26359 0.0
H606 H 0.59726 0.66275 0.24497 0.0
H607 H 0.56175 0.50887 0.19516 0.0
H608 H 0.58722 0.53458 0.24396 0.0
H609 H 0.58587 0.59841 0.16984 0.0
H610 H 0.55926 0.57269 0.12036 0.0
H611 H 0.57473 0.6138 0.23606 0.0
H612 H 0.6487 0.56403 0.19435 0.0
H613 H 0.67211 0.52525 0.17479 0.0
H614 H 0.67124 0.4926 0.28205 0.0
H615 H 0.64742 0.53102 0.30212 0.0
C616 C 0.66766 0.65463 0.37709 0.0
C617 C 0.6688 0.64033 0.40981 0.0
C618 C 0.65542 0.64438 0.34322 0.0
C619 C 0.64416 0.61959 0.34133 0.0
C620 C 0.64534 0.60526 0.37379 0.0
C621 C 0.6573 0.61553 0.40761 0.0
C622 C 0.6312 0.60826 0.30569 0.0
C623 C 0.64349 0.58592 0.2938 0.0
C624 C 0.60664 0.61886 0.28394 0.0
C625 C 0.59248 0.64229 0.29512 0.0
C626 C 0.58181 0.6436 0.32919 0.0
C627 C 0.56864 0.66584 0.33957 0.0
C628 C 0.5658 0.68683 0.31597 0.0
C629 C 0.57606 0.68558 0.28188 0.0
C630 C 0.58928 0.66339 0.2714 0.0
C631 C 0.56689 0.52833 0.18888 0.0
C632 C 0.55871 0.53855 0.15348 0.0
C633 C 0.58163 0.54304 0.21698 0.0
C634 C 0.58919 0.56828 0.21048 0.0
C635 C 0.58054 0.57888 0.17546 0.0
C636 C 0.56541 0.56414 0.14717 0.0
C637 C 0.60585 0.58325 0.24079 0.0
C638 C 0.59436 0.60628 0.25168 0.0
C639 C 0.63143 0.57347 0.26146 0.0
C640 C 0.64611 0.55039 0.24968 0.0
C641 C 0.65335 0.54853 0.21372 0.0
C642 C 0.66671 0.52661 0.20254 0.0
C643 C 0.67312 0.50646 0.22714 0.0
C644 C 0.66626 0.50822 0.26302 0.0
C645 C 0.65287 0.53009 0.27433 0.0
H646 H 0.68344 0.4895 0.21842 0.0
H647 H 0.55559 0.70403 0.32404 0.0
H648 H 0.86193 0.13782 0.84433 0.0
H649 H 0.87475 0.11993 0.78743 0.0
H650 H 0.79773 0.07345 0.77612 0.0
H651 H 0.78476 0.09124 0.83387 0.0
H652 H 0.85097 0.04755 0.75991 0.0
H653 H 0.79323 0.11946 0.72161 0.0
H654 H 0.7756 0.16348 0.72458 0.0
H655 H 0.85975 0.19177 0.70935 0.0
H656 H 0.87804 0.14793 0.70687 0.0
H657 H 0.92164 0.02854 0.59623 0.0
H658 H 0.87955 0.03563 0.62918 0.0
H659 H 0.92325 0.09999 0.68445 0.0
H660 H 0.96446 0.09312 0.65242 0.0
H661 H 0.86697 0.11033 0.66353 0.0
H662 H 0.92516 0.03771 0.72478 0.0
H663 H 0.94351 0.99401 0.71946 0.0
H664 H 0.85663 0.96733 0.68668 0.0
H665 H 0.83784 0.01092 0.6917 0.0
C666 C 0.84785 0.12354 0.83014 0.0
C667 C 0.82235 0.11593 0.84374 0.0
C668 C 0.85512 0.11344 0.79745 0.0
C669 C 0.83709 0.09549 0.77742 0.0
C670 C 0.8119 0.08731 0.79116 0.0
C671 C 0.80445 0.09761 0.82395 0.0
C672 C 0.84474 0.08638 0.74162 0.0
C673 C 0.85373 0.06108 0.7383 0.0
C674 C 0.84794 0.10387 0.71312 0.0
C675 C 0.83701 0.13036 0.7141 0.0
C676 C 0.80802 0.13506 0.71907 0.0
C677 C 0.79791 0.15999 0.72066 0.0
C678 C 0.81654 0.18041 0.71715 0.0
C679 C 0.84533 0.17593 0.712 0.0
C680 C 0.85557 0.15104 0.71043 0.0
C681 C 0.92216 0.04409 0.6154 0.0
C682 C 0.94685 0.05971 0.62219 0.0
C683 C 0.89806 0.04825 0.63409 0.0
C684 C 0.89834 0.06825 0.65958 0.0
C685 C 0.92239 0.08447 0.6649 0.0
C686 C 0.94618 0.08033 0.64655 0.0
C687 C 0.87511 0.07211 0.68319 0.0
C688 C 0.86307 0.0965 0.68428 0.0
C689 C 0.869 0.05377 0.70936 0.0
C690 C 0.88014 0.02748 0.70854 0.0
C691 C 0.91 0.02246 0.71663 0.0
C692 C 0.92047 0.99775 0.71358 0.0
C693 C 0.90124 0.97791 0.70271 0.0
C694 C 0.87149 0.98271 0.69513 0.0
C695 C 0.86091 0.00739 0.69815 0.0
H696 H 0.9094 0.95882 0.70014 0.0
H697 H 0.80867 0.1997 0.71841 0.0
H698 H 0.36523 0.41004 0.34401 0.0
H699 H 0.38092 0.43259 0.29207 0.0
H700 H 0.29795 0.47012 0.27135 0.0
H701 H 0.28219 0.44809 0.32422 0.0
H702 H 0.31673 0.45164 0.20737 0.0
H703 H 0.35295 0.50437 0.30793 0.0
H704 H 0.37773 0.51448 0.36997 0.0
H705 H 0.45765 0.48501 0.34088 0.0
H706 H 0.43327 0.47435 0.27883 0.0
H707 H 0.43796 0.53167 0.1225 0.0
H708 H 0.39994 0.52847 0.16283 0.0
H709 H 0.39145 0.44834 0.13893 0.0
H710 H 0.42909 0.45154 0.09896 0.0
H711 H 0.40857 0.50082 0.22426 0.0
H712 H 0.32703 0.42574 0.15239 0.0
H713 H 0.30136 0.4172 0.09032 0.0
H714 H 0.30935 0.49567 0.06117 0.0
H715 H 0.33468 0.50481 0.12324 0.0
C716 C 0.35037 0.42334 0.32887 0.0
C717 C 0.3225 0.42738 0.33869 0.0
C718 C 0.35936 0.43616 0.299 0.0
C719 C 0.34074 0.45328 0.27811 0.0
C720 C 0.31268 0.45702 0.28717 0.0
C721 C 0.30369 0.44431 0.31731 0.0
C722 C 0.35089 0.4669 0.24667 0.0
C723 C 0.33664 0.46262 0.21096 0.0
C724 C 0.37634 0.48193 0.25152 0.0
C725 C 0.39122 0.48846 0.28874 0.0
C726 C 0.37577 0.49989 0.31483 0.0
C727 C 0.38975 0.50574 0.35 0.0
C728 C 0.41924 0.50037 0.35937 0.0
C729 C 0.43481 0.48917 0.33357 0.0
C730 C 0.42093 0.48326 0.29837 0.0
C731 C 0.42699 0.51368 0.12464 0.0
C732 C 0.43638 0.49184 0.10766 0.0
C733 C 0.40548 0.5118 0.14792 0.0
C734 C 0.39279 0.48815 0.15396 0.0
C735 C 0.40052 0.46686 0.13441 0.0
C736 C 0.42213 0.46867 0.1116 0.0
C737 C 0.3753 0.48442 0.18468 0.0
C738 C 0.38824 0.49044 0.22046 0.0
C739 C 0.3485 0.47125 0.17982 0.0
C740 C 0.33289 0.46594 0.14253 0.0
C741 C 0.32313 0.44123 0.13287 0.0
C742 C 0.30868 0.43627 0.09763 0.0
C743 C 0.30377 0.45587 0.0718 0.0
C744 C 0.31324 0.48049 0.08118 0.0
C745 C 0.32769 0.48556 0.11637 0.0
H746 H 0.29259 0.45198 0.04453 0.0
H747 H 0.43002 0.5049 0.38662 0.0
H748 H 0.15521 0.93362 0.93687 0.0
H749 H 0.13159 0.9489 0.87778 0.0
H750 H 0.15503 0.87988 0.82573 0.0
H751 H 0.1805 0.86501 0.8847 0.0
H752 H 0.16144 0.9183 0.78203 0.0
H753 H 0.08458 0.89031 0.84457 0.0
H754 H 0.05565 0.88572 0.89584 0.0
H755 H 0.03864 0.96593 0.89321 0.0
H756 H 0.06782 0.97108 0.84227 0.0
H757 H 0.05776 0.96383 0.62488 0.0
H758 H 0.07945 0.93554 0.6749 0.0
H759 H 0.09069 0.99944 0.74889 0.0
H760 H 0.06994 0.02757 0.69974 0.0
H761 H 0.06239 0.95451 0.77537 0.0
H762 H 0.14661 0.98101 0.7174 0.0
H763 H 0.17424 0.98368 0.6646 0.0
H764 H 0.17429 0.9023 0.65633 0.0
H765 H 0.14628 0.89919 0.70881 0.0
C766 C 0.15586 0.92176 0.91289 0.0
C767 C 0.16988 0.898 0.91585 0.0
C768 C 0.14187 0.9304 0.87905 0.0
C769 C 0.14088 0.91533 0.84728 0.0
C770 C 0.15523 0.89178 0.84985 0.0
C771 C 0.16956 0.8832 0.88374 0.0
C772 C 0.12498 0.92449 0.81163 0.0
C773 C 0.13955 0.92571 0.78043 0.0
C774 C 0.09629 0.93406 0.80916 0.0
C775 C 0.07855 0.93108 0.8397 0.0
C776 C 0.07482 0.907 0.85507 0.0
C777 C 0.05836 0.9043 0.88406 0.0
C778 C 0.04535 0.92553 0.8978 0.0
C779 C 0.04873 0.9495 0.88253 0.0
C780 C 0.0652 0.95231 0.85356 0.0
C781 C 0.06499 0.97179 0.65179 0.0
C782 C 0.06225 0.998 0.65817 0.0
C783 C 0.07736 0.95564 0.68026 0.0
C784 C 0.08661 0.96546 0.71556 0.0
C785 C 0.08365 0.99149 0.7219 0.0
C786 C 0.07188 0.00757 0.69357 0.0
C787 C 0.09928 0.94911 0.74661 0.0
C788 C 0.08403 0.94654 0.77691 0.0
C789 C 0.12705 0.93797 0.74798 0.0
C790 C 0.14403 0.93988 0.71667 0.0
C791 C 0.15226 0.9637 0.70408 0.0
C792 C 0.16805 0.96529 0.67428 0.0
C793 C 0.17592 0.94317 0.65703 0.0
C794 C 0.16811 0.91942 0.66966 0.0
C795 C 0.1523 0.91773 0.69943 0.0
H796 H 0.18813 0.94444 0.63395 0.0
H797 H 0.03261 0.92339 0.92025 0.0
loop_
_geom_bond_atom_site_label_1
_geom_bond_atom_site_label_2
_geom_bond_distance
_geom_bond_site_symmetry_2
_ccdc_geom_bond_type
C0 C1 1.386 . S
C0 C2 1.397 . S
C0 H24 0.931 . S
C1 C0 1.386 . S
C1 C5 1.397 . S
C2 C0 1.397 . S
C2 C3 1.384 1_556 S
C2 H25 0.930 . S
C3 C2 1.384 1_554 S
C3 C4 1.377 . S
C3 C6 1.481 . S
C4 C3 1.377 . S
C4 C5 1.389 1_554 S
C4 H26 0.929 . S
C5 C1 1.397 . S
C5 C4 1.389 1_556 S
C5 H27 0.931 . S
C6 C3 1.481 . S
C6 C7 1.387 . S
C6 C11 1.390 . S
C7 C6 1.387 . S
C7 C8 1.401 . S
C7 H28 0.930 . S
C8 C7 1.401 . S
C8 C9 1.376 . S
C8 C17 1.511 . S
C9 C8 1.376 . S
C9 C10 1.392 . S
C9 H30 0.931 . S
C10 C9 1.392 . S
C10 C11 1.361 . S
C10 C12 1.500 . S
C11 C6 1.390 . S
C11 C10 1.361 . S
C11 H29 0.931 . S
C12 C10 1.500 . S
C12 C13 1.371 . S
C12 C14 1.365 . S
C13 C12 1.371 . S
C13 C23 1.386 . S
C13 H31 0.931 . S
C14 C12 1.365 . S
C14 C15 1.409 . S
C14 H32 0.929 . S
C15 C14 1.409 . S
C15 C16 1.380 . S
C15 H33 0.930 . S
C16 C15 1.380 . S
C16 C23 1.357 . S
C17 C8 1.511 . S
C17 C18 1.341 . S
C17 C19 1.371 . S
C18 C17 1.341 . S
C18 C22 1.394 . S
C18 H34 0.930 . S
C19 C17 1.371 . S
C19 C20 1.392 . S
C19 H35 0.931 . S
C20 C19 1.392 . S
C20 C21 1.331 . S
C20 H38 0.932 . S
C21 C20 1.331 . S
C21 C22 1.336 . S
C22 C18 1.394 . S
C22 C21 1.336 . S
C22 H37 0.929 . S
C23 C13 1.386 . S
C23 C16 1.357 . S
C23 H36 0.928 . S
H24 C0 0.931 . S
H25 C2 0.930 . S
H26 C4 0.929 . S
H27 C5 0.931 . S
H28 C7 0.930 . S
H29 C11 0.931 . S
H30 C9 0.931 . S
H31 C13 0.931 . S
H32 C14 0.929 . S
H33 C15 0.930 . S
H34 C18 0.930 . S
H35 C19 0.931 . S
H36 C23 0.928 . S
H37 C22 0.929 . S
H38 C20 0.932 . S
C39 C40 1.386 . S
C39 C41 1.397 . S
C39 H63 0.931 . S
C40 C39 1.386 . S
C40 C44 1.397 . S
C41 C39 1.397 . S
C41 C42 1.384 . S
C41 H64 0.930 . S
C42 C41 1.384 . S
C42 C43 1.377 . S
C42 C45 1.481 . S
C43 C42 1.377 . S
C43 C44 1.389 . S
C43 H65 0.929 . S
C44 C40 1.397 . S
C44 C43 1.389 . S
C44 H66 0.931 . S
C45 C42 1.481 . S
C45 C46 1.387 . S
C45 C50 1.390 . S
C46 C45 1.387 . S
C46 C47 1.401 . S
C46 H67 0.930 . S
C47 C46 1.401 . S
C47 C48 1.376 . S
C47 C56 1.511 . S
C48 C47 1.376 . S
C48 C49 1.392 . S
C48 H69 0.931 . S
C49 C48 1.392 . S
C49 C50 1.361 . S
C49 C51 1.500 . S
C50 C45 1.390 . S
C50 C49 1.361 . S
C50 H68 0.931 . S
C51 C49 1.500 . S
C51 C52 1.371 . S
C51 C53 1.365 . S
C52 C51 1.371 . S
C52 C62 1.386 . S
C52 H70 0.931 . S
C53 C51 1.365 . S
C53 C54 1.409 . S
C53 H71 0.929 . S
C54 C53 1.409 . S
C54 C55 1.380 . S
C54 H72 0.930 . S
C55 C54 1.380 . S
C55 C62 1.357 . S
C56 C47 1.511 . S
C56 C57 1.341 . S
C56 C58 1.371 . S
C57 C56 1.341 . S
C57 C61 1.394 . S
C57 H73 0.930 . S
C58 C56 1.371 . S
C58 C59 1.392 . S
C58 H74 0.931 . S
C59 C58 1.392 . S
C59 C60 1.331 . S
C59 H77 0.932 . S
C60 C59 1.331 . S
C60 C61 1.336 . S
C61 C57 1.394 . S
C61 C60 1.336 . S
C61 H76 0.929 . S
C62 C52 1.386 . S
C62 C55 1.357 . S
C62 H75 0.928 . S
H63 C39 0.931 . S
H64 C41 0.930 . S
H65 C43 0.929 . S
H66 C44 0.931 . S
H67 C46 0.930 . S
H68 C50 0.931 . S
H69 C48 0.931 . S
H70 C52 0.931 . S
H71 C53 0.929 . S
H72 C54 0.930 . S
H73 C57 0.930 . S
H74 C58 0.931 . S
H75 C62 0.928 . S
H76 C61 0.929 . S
H77 C59 0.932 . S
C78 C79 1.386 . S
C78 C80 1.397 . S
C78 H102 0.931 . S
C79 C78 1.386 . S
C79 C83 1.397 . S
C80 C78 1.397 . S
C80 C81 1.384 . S
C80 H103 0.930 . S
C81 C80 1.384 . S
C81 C82 1.377 . S
C81 C84 1.481 . S
C82 C81 1.377 . S
C82 C83 1.389 . S
C82 H104 0.929 . S
C83 C79 1.397 . S
C83 C82 1.389 . S
C83 H105 0.931 . S
C84 C81 1.481 . S
C84 C85 1.387 . S
C84 C89 1.390 . S
C85 C84 1.387 . S
C85 C86 1.401 1_554 S
C85 H106 0.930 . S
C86 C85 1.401 1_556 S
C86 C87 1.376 . S
C86 C95 1.511 . S
C87 C86 1.376 . S
C87 C88 1.392 . S
C87 H108 0.931 . S
C88 C87 1.392 . S
C88 C89 1.361 1_556 S
C88 C90 1.500 . S
C89 C84 1.390 . S
C89 C88 1.361 1_554 S
C89 H107 0.931 . S
C90 C88 1.500 . S
C90 C91 1.371 . S
C90 C92 1.365 . S
C91 C90 1.371 . S
C91 C101 1.386 . S
C91 H109 0.931 . S
C92 C90 1.365 . S
C92 C93 1.409 . S
C92 H110 0.929 . S
C93 C92 1.409 . S
C93 C94 1.380 . S
C93 H111 0.930 . S
C94 C93 1.380 . S
C94 C101 1.357 . S
C95 C86 1.511 . S
C95 C96 1.341 1_556 S
C95 C97 1.371 . S
C96 C95 1.341 1_554 S
C96 C100 1.394 . S
C96 H112 0.930 . S
C97 C95 1.371 . S
C97 C98 1.392 . S
C97 H113 0.931 . S
C98 C97 1.392 . S
C98 C99 1.331 . S
C98 H116 0.932 . S
C99 C98 1.331 . S
C99 C100 1.336 1_556 S
C100 C96 1.394 . S
C100 C99 1.336 1_554 S
C100 H115 0.929 . S
C101 C91 1.386 . S
C101 C94 1.357 . S
C101 H114 0.928 . S
H102 C78 0.931 . S
H103 C80 0.930 . S
H104 C82 0.929 . S
H105 C83 0.931 . S
H106 C85 0.930 . S
H107 C89 0.931 . S
H108 C87 0.931 . S
H109 C91 0.931 . S
H110 C92 0.929 . S
H111 C93 0.930 . S
H112 C96 0.930 . S
H113 C97 0.931 . S
H114 C101 0.928 . S
H115 C100 0.929 . S
H116 C98 0.932 . S
C117 C118 1.386 . S
C117 C119 1.397 . S
C117 H141 0.931 . S
C118 C117 1.386 . S
C118 C122 1.397 . S
C119 C117 1.397 . S
C119 C120 1.384 . S
C119 H142 0.930 . S
C120 C119 1.384 . S
C120 C121 1.377 . S
C120 C123 1.481 . S
C121 C120 1.377 . S
C121 C122 1.389 . S
C121 H143 0.929 . S
C122 C118 1.397 . S
C122 C121 1.389 . S
C122 H144 0.931 . S
C123 C120 1.481 . S
C123 C124 1.387 . S
C123 C128 1.390 . S
C124 C123 1.387 . S
C124 C125 1.401 . S
C124 H145 0.930 . S
C125 C124 1.401 . S
C125 C126 1.376 . S
C125 C134 1.511 . S
C126 C125 1.376 . S
C126 C127 1.392 . S
C126 H147 0.931 . S
C127 C126 1.392 . S
C127 C128 1.361 . S
C127 C129 1.500 . S
C128 C123 1.390 . S
C128 C127 1.361 . S
C128 H146 0.931 . S
C129 C127 1.500 . S
C129 C130 1.371 . S
C129 C131 1.365 . S
C130 C129 1.371 . S
C130 C140 1.386 . S
C130 H148 0.931 . S
C131 C129 1.365 . S
C131 C132 1.409 . S
C131 H149 0.929 . S
C132 C131 1.409 . S
C132 C133 1.380 . S
C132 H150 0.930 . S
C133 C132 1.380 . S
C133 C140 1.357 . S
C134 C125 1.511 . S
C134 C135 1.341 . S
C134 C136 1.371 . S
C135 C134 1.341 . S
C135 C139 1.394 . S
C135 H151 0.930 . S
C136 C134 1.371 . S
C136 C137 1.392 . S
C136 H152 0.931 . S
C137 C136 1.392 . S
C137 C138 1.331 . S
C137 H155 0.932 . S
C138 C137 1.331 . S
C138 C139 1.336 . S
C139 C135 1.394 . S
C139 C138 1.336 . S
C139 H154 0.929 . S
C140 C130 1.386 . S
C140 C133 1.357 . S
C140 H153 0.928 . S
H141 C117 0.931 . S
H142 C119 0.930 . S
H143 C121 0.929 . S
H144 C122 0.931 . S
H145 C124 0.930 . S
H146 C128 0.931 . S
H147 C126 0.931 . S
H148 C130 0.931 . S
H149 C131 0.929 . S
H150 C132 0.930 . S
H151 C135 0.930 . S
H152 C136 0.931 . S
H153 C140 0.928 . S
H154 C139 0.929 . S
H155 C137 0.932 . S
O156 Mn157 2.163 1_655 S
O156 C170 1.244 . S
Mn157 O156 2.163 1_455 S
Mn157 O160 2.160 1_545 S
Mn157 O161 2.221 . S
Mn157 O163 2.163 1_455 S
Mn157 O165 2.164 . S
Mn157 O175 2.221 1_445 S
O158 Mn159 2.087 1_545 S
O158 C170 1.256 . S
Mn159 O158 2.087 1_565 S
Mn159 O166 2.089 1_655 S
Mn159 O175 2.290 . S
Mn159 O176 2.251 . S
O160 Mn157 2.160 1_565 S
O160 C171 1.238 . S
O161 Mn157 2.221 . S
O161 Mn162 2.290 . S
O161 C172 1.278 . S
Mn162 O161 2.290 . S
Mn162 O164 2.089 . S
Mn162 O167 2.251 . S
Mn162 O168 2.087 1_455 S
O163 Mn157 2.163 1_655 S
O163 C173 1.244 . S
O164 Mn162 2.089 . S
O164 C171 1.257 1_545 S
O165 Mn157 2.164 . S
O165 C174 1.233 1_545 S
O166 Mn159 2.089 1_455 S
O166 C174 1.256 . S
O167 Mn162 2.251 . S
O167 C172 1.241 . S
O168 Mn162 2.087 1_655 S
O168 C173 1.256 . S
C169 O175 1.278 . S
C169 O176 1.241 . S
C170 O156 1.244 . S
C170 O158 1.256 . S
C171 O160 1.238 . S
C171 O164 1.257 1_565 S
C172 O161 1.278 . S
C172 O167 1.241 . S
C173 O163 1.244 . S
C173 O168 1.256 . S
C174 O165 1.233 1_565 S
C174 O166 1.256 . S
O175 Mn157 2.221 1_665 S
O175 Mn159 2.290 . S
O175 C169 1.278 . S
O176 Mn159 2.251 . S
O176 C169 1.241 . S
O177 Mn178 2.163 . S
O177 C191 1.244 . S
Mn178 O177 2.163 . S
Mn178 O181 2.160 1_554 S
Mn178 O182 2.221 . S
Mn178 O184 2.163 . S
Mn178 O186 2.160 . S
Mn178 O196 2.221 . S
O179 Mn180 2.087 . S
O179 C191 1.256 . S
Mn180 O179 2.087 . S
Mn180 O187 2.089 . S
Mn180 O196 2.290 . S
Mn180 O197 2.251 . S
O181 Mn178 2.160 1_556 S
O181 C192 1.239 . S
O182 Mn178 2.221 . S
O182 Mn183 2.290 1_554 S
O182 C193 1.278 . S
Mn183 O182 2.290 1_556 S
Mn183 O185 2.089 . S
Mn183 O188 2.251 1_556 S
Mn183 O189 2.087 . S
O184 Mn178 2.163 . S
O184 C194 1.244 1_554 S
O185 Mn183 2.089 . S
O185 C192 1.256 . S
O186 Mn178 2.160 . S
O186 C195 1.239 . S
O187 Mn180 2.089 . S
O187 C195 1.256 . S
O188 Mn183 2.251 1_554 S
O188 C193 1.241 . S
O189 Mn183 2.087 . S
O189 C194 1.256 . S
C190 O196 1.278 . S
C190 O197 1.241 . S
C191 O177 1.244 . S
C191 O179 1.256 . S
C192 O181 1.239 . S
C192 O185 1.256 . S
C193 O182 1.278 . S
C193 O188 1.241 . S
C194 O184 1.244 1_556 S
C194 O189 1.256 . S
C195 O186 1.239 . S
C195 O187 1.256 . S
O196 Mn178 2.221 . S
O196 Mn180 2.290 . S
O196 C190 1.278 . S
O197 Mn180 2.251 . S
O197 C190 1.241 . S
H198 C216 0.951 . S
H199 C218 0.951 . S
H200 C220 0.950 . S
H201 C221 0.950 . S
H202 C223 0.950 . S
H203 C226 0.950 . S
H204 C227 0.950 . S
H205 C229 0.950 . S
H206 C230 0.950 . S
H207 C231 0.951 . S
H208 C233 0.951 . S
H209 C235 0.950 . S
H210 C236 0.950 . S
H211 C238 0.950 . S
H212 C241 0.950 . S
H213 C242 0.950 1_655 S
H214 C244 0.950 . S
H215 C245 0.950 . S
C216 H198 0.951 . S
C216 C217 1.366 . S
C216 C218 1.388 . S
C217 C216 1.366 . S
C217 C221 1.385 . S
C218 H199 0.951 . S
C218 C216 1.388 . S
C218 C219 1.366 . S
C219 C218 1.366 . S
C219 C220 1.414 . S
C219 C222 1.499 . S
C220 H200 0.950 . S
C220 C219 1.414 . S
C220 C221 1.374 . S
C221 H201 0.950 . S
C221 C217 1.385 . S
C221 C220 1.374 . S
C222 C219 1.499 . S
C222 C223 1.373 . S
C222 C224 1.389 . S
C223 H202 0.950 . S
C223 C222 1.373 . S
C223 C239 1.377 . S
C224 C222 1.389 . S
C224 C225 1.524 . S
C224 C238 1.377 . S
C225 C224 1.524 . S
C225 C226 1.397 . S
C225 C230 1.363 . S
C226 H203 0.950 . S
C226 C225 1.397 . S
C226 C227 1.334 . S
C227 H204 0.950 . S
C227 C226 1.334 . S
C227 C228 1.287 . S
C228 C227 1.287 . S
C228 C229 1.524 . S
C228 H247 0.913 . S
C229 H205 0.950 . S
C229 C228 1.524 . S
C229 C230 1.415 . S
C230 H206 0.950 . S
C230 C225 1.363 . S
C230 C229 1.415 . S
C231 H207 0.951 . S
C231 C232 1.366 . S
C231 C233 1.388 . S
C232 C231 1.366 . S
C232 C236 1.385 . S
C233 H208 0.951 . S
C233 C231 1.388 . S
C233 C234 1.366 . S
C234 C233 1.366 . S
C234 C235 1.414 . S
C234 C237 1.499 . S
C235 H209 0.950 . S
C235 C234 1.414 . S
C235 C236 1.374 . S
C236 H210 0.950 . S
C236 C232 1.385 . S
C236 C235 1.374 . S
C237 C234 1.499 . S
C237 C238 1.373 . S
C237 C239 1.389 . S
C238 H211 0.950 . S
C238 C224 1.377 . S
C238 C237 1.373 . S
C239 C223 1.377 . S
C239 C237 1.389 . S
C239 C240 1.524 . S
C240 C239 1.524 . S
C240 C241 1.397 . S
C240 C245 1.363 . S
C241 H212 0.950 . S
C241 C240 1.397 . S
C241 C242 1.334 . S
C242 H213 0.950 1_455 S
C242 C241 1.334 . S
C242 C243 1.287 . S
C243 C242 1.287 . S
C243 C244 1.524 . S
C243 H246 0.999 . S
C244 H214 0.950 . S
C244 C243 1.524 . S
C244 C245 1.415 . S
C245 H215 0.950 . S
C245 C240 1.363 . S
C245 C244 1.415 . S
H246 C243 0.999 . S
H247 C228 0.913 . S
H248 C266 0.951 . S
H249 C268 0.951 . S
H250 C270 0.950 . S
H251 C271 0.950 . S
H252 C273 0.950 . S
H253 C276 0.950 . S
H254 C277 0.950 . S
H255 C279 0.970 . S
H256 C280 0.950 . S
H257 C281 0.951 . S
H258 C283 0.951 . S
H259 C285 0.950 . S
H260 C286 0.950 . S
H261 C288 0.950 . S
H262 C291 0.950 . S
H263 C292 0.950 . S
H264 C294 0.950 . S
H265 C295 0.950 . S
C266 H248 0.951 . S
C266 C267 1.366 . S
C266 C268 1.388 . S
C267 C266 1.366 . S
C267 C271 1.385 . S
C268 H249 0.951 . S
C268 C266 1.388 . S
C268 C269 1.366 . S
C269 C268 1.366 . S
C269 C270 1.414 . S
C269 C272 1.499 . S
C270 H250 0.950 . S
C270 C269 1.414 . S
C270 C271 1.374 . S
C271 H251 0.950 . S
C271 C267 1.385 . S
C271 C270 1.374 . S
C272 C269 1.499 . S
C272 C273 1.373 . S
C272 C274 1.389 . S
C273 H252 0.950 . S
C273 C272 1.373 . S
C273 C289 1.377 . S
C274 C272 1.389 . S
C274 C275 1.524 . S
C274 C288 1.377 . S
C275 C274 1.524 . S
C275 C276 1.397 . S
C275 C280 1.363 . S
C276 H253 0.950 . S
C276 C275 1.397 . S
C276 C277 1.334 . S
C277 H254 0.950 . S
C277 C276 1.334 . S
C277 C278 1.287 . S
C278 C277 1.287 . S
C278 C279 1.524 . S
C278 H297 0.913 . S
C279 H255 0.970 . S
C279 C278 1.524 . S
C279 C280 1.415 . S
C280 H256 0.950 . S
C280 C275 1.363 . S
C280 C279 1.415 . S
C281 H257 0.951 . S
C281 C282 1.366 . S
C281 C283 1.388 . S
C282 C281 1.366 . S
C282 C286 1.385 . S
C283 H258 0.951 . S
C283 C281 1.388 . S
C283 C284 1.366 . S
C284 C283 1.366 . S
C284 C285 1.414 . S
C284 C287 1.499 . S
C285 H259 0.950 . S
C285 C284 1.414 . S
C285 C286 1.374 . S
C286 H260 0.950 . S
C286 C282 1.385 . S
C286 C285 1.374 . S
C287 C284 1.499 . S
C287 C288 1.373 . S
C287 C289 1.389 . S
C288 H261 0.950 . S
C288 C274 1.377 . S
C288 C287 1.373 . S
C289 C273 1.377 . S
C289 C287 1.389 . S
C289 C290 1.524 . S
C290 C289 1.524 . S
C290 C291 1.397 . S
C290 C295 1.363 . S
C291 H262 0.950 . S
C291 C290 1.397 . S
C291 C292 1.334 . S
C292 H263 0.950 . S
C292 C291 1.334 . S
C292 C293 1.287 . S
C293 C292 1.287 . S
C293 C294 1.524 . S
C293 H296 0.999 . S
C294 H264 0.950 . S
C294 C293 1.524 . S
C294 C295 1.415 . S
C295 H265 0.950 . S
C295 C290 1.363 . S
C295 C294 1.415 . S
H296 C293 0.999 . S
H297 C278 0.913 . S
H298 C316 0.951 . S
H299 C318 0.951 . S
H300 C320 0.950 . S
H301 C321 0.950 . S
H302 C323 0.950 . S
H303 C326 0.950 . S
H304 C327 0.950 . S
H305 C329 0.950 1_455 S
H306 C330 0.950 . S
H307 C331 0.951 . S
H308 C333 0.951 . S
H309 C335 0.950 . S
H310 C336 0.950 . S
H311 C338 0.950 . S
H312 C341 0.950 . S
H313 C342 0.950 . S
H314 C344 0.950 . S
H315 C345 0.950 . S
C316 H298 0.951 . S
C316 C317 1.366 . S
C316 C318 1.388 . S
C317 C316 1.366 . S
C317 C321 1.385 . S
C318 H299 0.951 . S
C318 C316 1.388 . S
C318 C319 1.366 . S
C319 C318 1.366 . S
C319 C320 1.414 . S
C319 C322 1.499 . S
C320 H300 0.950 . S
C320 C319 1.414 . S
C320 C321 1.374 . S
C321 H301 0.950 . S
C321 C317 1.385 . S
C321 C320 1.374 . S
C322 C319 1.499 . S
C322 C323 1.373 . S
C322 C324 1.389 . S
C323 H302 0.950 . S
C323 C322 1.373 . S
C323 C339 1.377 . S
C324 C322 1.389 . S
C324 C325 1.524 . S
C324 C338 1.377 . S
C325 C324 1.524 . S
C325 C326 1.397 . S
C325 C330 1.363 . S
C326 H303 0.950 . S
C326 C325 1.397 . S
C326 C327 1.334 . S
C327 H304 0.950 . S
C327 C326 1.334 . S
C327 C328 1.287 . S
C328 C327 1.287 . S
C328 C329 1.524 . S
C328 H347 0.913 . S
C329 H305 0.950 1_655 S
C329 C328 1.524 . S
C329 C330 1.415 . S
C330 H306 0.950 . S
C330 C325 1.363 . S
C330 C329 1.415 . S
C331 H307 0.951 . S
C331 C332 1.366 . S
C331 C333 1.388 . S
C332 C331 1.366 . S
C332 C336 1.385 . S
C333 H308 0.951 . S
C333 C331 1.388 . S
C333 C334 1.366 . S
C334 C333 1.366 . S
C334 C335 1.414 . S
C334 C337 1.499 . S
C335 H309 0.950 . S
C335 C334 1.414 . S
C335 C336 1.374 . S
C336 H310 0.950 . S
C336 C332 1.385 . S
C336 C335 1.374 . S
C337 C334 1.499 . S
C337 C338 1.373 . S
C337 C339 1.389 . S
C338 H311 0.950 . S
C338 C324 1.377 . S
C338 C337 1.373 . S
C339 C323 1.377 . S
C339 C337 1.389 . S
C339 C340 1.524 . S
C340 C339 1.524 . S
C340 C341 1.397 . S
C340 C345 1.363 . S
C341 H312 0.950 . S
C341 C340 1.397 . S
C341 C342 1.334 . S
C342 H313 0.950 . S
C342 C341 1.334 . S
C342 C343 1.287 . S
C343 C342 1.287 . S
C343 C344 1.524 . S
C343 H346 0.999 . S
C344 H314 0.950 . S
C344 C343 1.524 . S
C344 C345 1.415 . S
C345 H315 0.950 . S
C345 C340 1.363 . S
C345 C344 1.415 . S
H346 C343 0.999 . S
H347 C328 0.913 . S
H348 C366 0.951 . S
H349 C368 0.951 . S
H350 C370 0.950 . S
H351 C371 0.950 . S
H352 C373 0.950 . S
H353 C376 0.950 . S
H354 C377 0.950 . S
H355 C379 0.950 . S
H356 C380 0.950 . S
H357 C381 0.951 . S
H358 C383 0.951 . S
H359 C385 0.950 . S
H360 C386 0.950 . S
H361 C388 0.950 . S
H362 C391 0.950 . S
H363 C392 0.950 . S
H364 C394 0.950 . S
H365 C395 0.950 . S
C366 H348 0.951 . S
C366 C367 1.366 . S
C366 C368 1.388 . S
C367 C366 1.366 . S
C367 C371 1.385 1_556 S
C368 H349 0.951 . S
C368 C366 1.388 . S
C368 C369 1.366 1_556 S
C369 C368 1.366 1_554 S
C369 C370 1.414 . S
C369 C372 1.499 . S
C370 H350 0.950 . S
C370 C369 1.414 . S
C370 C371 1.374 . S
C371 H351 0.950 . S
C371 C367 1.385 1_554 S
C371 C370 1.374 . S
C372 C369 1.499 . S
C372 C373 1.373 . S
C372 C374 1.389 1_554 S
C373 H352 0.950 . S
C373 C372 1.373 . S
C373 C389 1.377 . S
C374 C372 1.389 1_556 S
C374 C375 1.524 . S
C374 C388 1.377 . S
C375 C374 1.524 . S
C375 C376 1.397 . S
C375 C380 1.363 . S
C376 H353 0.950 . S
C376 C375 1.397 . S
C376 C377 1.334 . S
C377 H354 0.950 . S
C377 C376 1.334 . S
C377 C378 1.287 . S
C378 C377 1.287 . S
C378 C379 1.524 . S
C378 H397 0.913 . S
C379 H355 0.950 . S
C379 C378 1.524 . S
C379 C380 1.415 . S
C380 H356 0.950 . S
C380 C375 1.363 . S
C380 C379 1.415 . S
C381 H357 0.951 . S
C381 C382 1.366 . S
C381 C383 1.388 . S
C382 C381 1.366 . S
C382 C386 1.385 . S
C383 H358 0.951 . S
C383 C381 1.388 . S
C383 C384 1.366 . S
C384 C383 1.366 . S
C384 C385 1.414 . S
C384 C387 1.499 . S
C385 H359 0.950 . S
C385 C384 1.414 . S
C385 C386 1.374 . S
C386 H360 0.950 . S
C386 C382 1.385 . S
C386 C385 1.374 . S
C387 C384 1.499 . S
C387 C388 1.373 1_554 S
C387 C389 1.389 . S
C388 H361 0.950 . S
C388 C374 1.377 . S
C388 C387 1.373 1_556 S
C389 C373 1.377 . S
C389 C387 1.389 . S
C389 C390 1.524 . S
C390 C389 1.524 . S
C390 C391 1.397 . S
C390 C395 1.363 . S
C391 H362 0.950 . S
C391 C390 1.397 . S
C391 C392 1.334 . S
C392 H363 0.950 . S
C392 C391 1.334 . S
C392 C393 1.287 . S
C393 C392 1.287 . S
C393 C394 1.524 . S
C393 H396 0.999 . S
C394 H364 0.950 . S
C394 C393 1.524 . S
C394 C395 1.415 . S
C395 H365 0.950 . S
C395 C390 1.363 . S
C395 C394 1.415 . S
H396 C393 0.999 . S
H397 C378 0.913 . S
H398 C416 0.951 . S
H399 C418 0.951 . S
H400 C420 0.950 . S
H401 C421 0.950 . S
H402 C423 0.950 . S
H403 C426 0.950 . S
H404 C427 0.950 . S
H405 C429 0.950 . S
H406 C430 0.950 . S
H407 C431 0.951 . S
H408 C433 0.951 1_545 S
H409 C435 0.950 . S
H410 C436 0.950 . S
H411 C438 0.950 . S
H412 C441 0.950 . S
H413 C442 0.950 . S
H414 C444 0.950 1_545 S
H415 C445 0.950 1_545 S
C416 H398 0.951 . S
C416 C417 1.366 . S
C416 C418 1.388 . S
C417 C416 1.366 . S
C417 C421 1.385 . S
C418 H399 0.951 . S
C418 C416 1.388 . S
C418 C419 1.366 . S
C419 C418 1.366 . S
C419 C420 1.414 . S
C419 C422 1.499 . S
C420 H400 0.950 . S
C420 C419 1.414 . S
C420 C421 1.374 . S
C421 H401 0.950 . S
C421 C417 1.385 . S
C421 C420 1.374 . S
C422 C419 1.499 . S
C422 C423 1.373 . S
C422 C424 1.389 . S
C423 H402 0.950 . S
C423 C422 1.373 . S
C423 C439 1.377 . S
C424 C422 1.389 . S
C424 C425 1.524 . S
C424 C438 1.377 . S
C425 C424 1.524 . S
C425 C426 1.397 . S
C425 C430 1.363 . S
C426 H403 0.950 . S
C426 C425 1.397 . S
C426 C427 1.334 . S
C427 H404 0.950 . S
C427 C426 1.334 . S
C427 C428 1.287 . S
C428 C427 1.287 . S
C428 C429 1.524 . S
C428 H447 0.913 . S
C429 H405 0.950 . S
C429 C428 1.524 . S
C429 C430 1.415 . S
C430 H406 0.950 . S
C430 C425 1.363 . S
C430 C429 1.415 . S
C431 H407 0.951 . S
C431 C432 1.366 1_545 S
C431 C433 1.388 1_545 S
C432 C431 1.366 1_565 S
C432 C436 1.385 . S
C433 H408 0.951 1_565 S
C433 C431 1.388 1_565 S
C433 C434 1.366 . S
C434 C433 1.366 . S
C434 C435 1.414 . S
C434 C437 1.499 . S
C435 H409 0.950 . S
C435 C434 1.414 . S
C435 C436 1.374 . S
C436 H410 0.950 . S
C436 C432 1.385 . S
C436 C435 1.374 . S
C437 C434 1.499 . S
C437 C438 1.373 . S
C437 C439 1.389 . S
C438 H411 0.950 . S
C438 C424 1.377 . S
C438 C437 1.373 . S
C439 C423 1.377 . S
C439 C437 1.389 . S
C439 C440 1.524 . S
C440 C439 1.524 . S
C440 C441 1.397 . S
C440 C445 1.363 . S
C441 H412 0.950 . S
C441 C440 1.397 . S
C441 C442 1.334 . S
C442 H413 0.950 . S
C442 C441 1.334 . S
C442 C443 1.287 . S
C443 C442 1.287 . S
C443 C444 1.524 . S
C443 H446 0.999 . S
C444 H414 0.950 1_565 S
C444 C443 1.524 . S
C444 C445 1.415 . S
C445 H415 0.950 1_565 S
C445 C440 1.363 . S
C445 C444 1.415 . S
H446 C443 0.999 . S
H447 C428 0.913 . S
H448 C466 0.951 . S
H449 C468 0.951 . S
H450 C470 0.950 . S
H451 C471 0.950 . S
H452 C473 0.950 . S
H453 C476 0.950 . S
H454 C477 0.950 . S
H455 C479 0.950 . S
H456 C480 0.950 . S
H457 C481 0.951 . S
H458 C483 0.951 . S
H459 C485 0.950 . S
H460 C486 0.950 . S
H461 C488 0.950 . S
H462 C491 0.950 . S
H463 C492 0.950 . S
H464 C494 0.950 . S
H465 C495 0.950 . S
C466 H448 0.951 . S
C466 C467 1.366 . S
C466 C468 1.388 . S
C467 C466 1.366 . S
C467 C471 1.385 . S
C468 H449 0.951 . S
C468 C466 1.388 . S
C468 C469 1.366 . S
C469 C468 1.366 . S
C469 C470 1.414 . S
C469 C472 1.499 . S
C470 H450 0.950 . S
C470 C469 1.414 . S
C470 C471 1.374 . S
C471 H451 0.950 . S
C471 C467 1.385 . S
C471 C470 1.374 . S
C472 C469 1.499 . S
C472 C473 1.373 . S
C472 C474 1.389 . S
C473 H452 0.950 . S
C473 C472 1.373 . S
C473 C489 1.377 . S
C474 C472 1.389 . S
C474 C475 1.524 . S
C474 C488 1.377 . S
C475 C474 1.524 . S
C475 C476 1.397 . S
C475 C480 1.363 . S
C476 H453 0.950 . S
C476 C475 1.397 . S
C476 C477 1.334 . S
C477 H454 0.950 . S
C477 C476 1.334 . S
C477 C478 1.287 . S
C478 C477 1.287 . S
C478 C479 1.524 . S
C478 H497 0.913 . S
C479 H455 0.950 . S
C479 C478 1.524 . S
C479 C480 1.415 . S
C480 H456 0.950 . S
C480 C475 1.363 . S
C480 C479 1.415 . S
C481 H457 0.951 . S
C481 C482 1.366 . S
C481 C483 1.388 . S
C482 C481 1.366 . S
C482 C486 1.385 . S
C483 H458 0.951 . S
C483 C481 1.388 . S
C483 C484 1.366 . S
C484 C483 1.366 . S
C484 C485 1.414 . S
C484 C487 1.499 . S
C485 H459 0.950 . S
C485 C484 1.414 . S
C485 C486 1.374 . S
C486 H460 0.950 . S
C486 C482 1.385 . S
C486 C485 1.374 . S
C487 C484 1.499 . S
C487 C488 1.373 . S
C487 C489 1.389 . S
C488 H461 0.950 . S
C488 C474 1.377 . S
C488 C487 1.373 . S
C489 C473 1.377 . S
C489 C487 1.389 . S
C489 C490 1.524 . S
C490 C489 1.524 . S
C490 C491 1.397 . S
C490 C495 1.363 . S
C491 H462 0.950 . S
C491 C490 1.397 . S
C491 C492 1.334 . S
C492 H463 0.950 . S
C492 C491 1.334 . S
C492 C493 1.287 . S
C493 C492 1.287 . S
C493 C494 1.524 . S
C493 H496 0.999 . S
C494 H464 0.950 . S
C494 C493 1.524 . S
C494 C495 1.415 . S
C495 H465 0.950 . S
C495 C490 1.363 . S
C495 C494 1.415 . S
H496 C493 0.999 . S
H497 C478 0.913 . S
H498 C516 0.951 . S
H499 C518 0.951 . S
H500 C520 0.950 . S
H501 C521 0.950 . S
H502 C523 0.950 . S
H503 C526 0.950 . S
H504 C527 0.950 . S
H505 C529 0.950 . S
H506 C530 0.950 . S
H507 C531 0.951 . S
H508 C533 0.951 . S
H509 C535 0.950 . S
H510 C536 0.950 . S
H511 C538 0.950 . S
H512 C541 0.950 . S
H513 C542 0.950 . S
H514 C544 0.950 . S
H515 C545 0.950 . S
C516 H498 0.951 . S
C516 C517 1.366 . S
C516 C518 1.388 . S
C517 C516 1.366 . S
C517 C521 1.385 . S
C518 H499 0.951 . S
C518 C516 1.388 . S
C518 C519 1.366 . S
C519 C518 1.366 . S
C519 C520 1.414 . S
C519 C522 1.499 . S
C520 H500 0.950 . S
C520 C519 1.414 . S
C520 C521 1.374 . S
C521 H501 0.950 . S
C521 C517 1.385 . S
C521 C520 1.374 . S
C522 C519 1.499 . S
C522 C523 1.373 . S
C522 C524 1.389 . S
C523 H502 0.950 . S
C523 C522 1.373 . S
C523 C539 1.377 . S
C524 C522 1.389 . S
C524 C525 1.524 . S
C524 C538 1.377 . S
C525 C524 1.524 . S
C525 C526 1.397 . S
C525 C530 1.363 . S
C526 H503 0.950 . S
C526 C525 1.397 . S
C526 C527 1.334 . S
C527 H504 0.950 . S
C527 C526 1.334 . S
C527 C528 1.287 . S
C528 C527 1.287 . S
C528 C529 1.524 . S
C528 H547 0.913 . S
C529 H505 0.950 . S
C529 C528 1.524 . S
C529 C530 1.415 . S
C530 H506 0.950 . S
C530 C525 1.363 . S
C530 C529 1.415 . S
C531 H507 0.951 . S
C531 C532 1.366 . S
C531 C533 1.388 . S
C532 C531 1.366 . S
C532 C536 1.385 . S
C533 H508 0.951 . S
C533 C531 1.388 . S
C533 C534 1.366 . S
C534 C533 1.366 . S
C534 C535 1.414 . S
C534 C537 1.499 . S
C535 H509 0.950 . S
C535 C534 1.414 . S
C535 C536 1.374 . S
C536 H510 0.950 . S
C536 C532 1.385 . S
C536 C535 1.374 . S
C537 C534 1.499 . S
C537 C538 1.373 . S
C537 C539 1.389 . S
C538 H511 0.950 . S
C538 C524 1.377 . S
C538 C537 1.373 . S
C539 C523 1.377 . S
C539 C537 1.389 . S
C539 C540 1.524 . S
C540 C539 1.524 . S
C540 C541 1.397 . S
C540 C545 1.363 . S
C541 H512 0.950 . S
C541 C540 1.397 . S
C541 C542 1.334 1_545 S
C542 H513 0.950 . S
C542 C541 1.334 1_565 S
C542 C543 1.287 . S
C543 C542 1.287 . S
C543 C544 1.524 . S
C543 H546 0.999 . S
C544 H514 0.950 . S
C544 C543 1.524 . S
C544 C545 1.415 1_565 S
C545 H515 0.950 . S
C545 C540 1.363 . S
C545 C544 1.415 1_545 S
H546 C543 0.999 . S
H547 C528 0.913 . S
H548 C566 0.951 . S
H549 C568 0.951 . S
H550 C570 0.950 . S
H551 C571 0.950 . S
H552 C573 0.950 . S
H553 C576 0.950 . S
H554 C577 0.950 . S
H555 C579 0.950 . S
H556 C580 0.950 . S
H557 C581 0.951 . S
H558 C583 0.951 . S
H559 C585 0.950 . S
H560 C586 0.950 . S
H561 C588 0.950 . S
H562 C591 0.950 . S
H563 C592 0.950 . S
H564 C594 0.950 . S
H565 C595 0.950 . S
C566 H548 0.951 . S
C566 C567 1.366 . S
C566 C568 1.388 . S
C567 C566 1.366 . S
C567 C571 1.385 . S
C568 H549 0.951 . S
C568 C566 1.388 . S
C568 C569 1.366 . S
C569 C568 1.366 . S
C569 C570 1.414 . S
C569 C572 1.499 . S
C570 H550 0.950 . S
C570 C569 1.414 . S
C570 C571 1.374 . S
C571 H551 0.950 . S
C571 C567 1.385 . S
C571 C570 1.374 . S
C572 C569 1.499 . S
C572 C573 1.373 . S
C572 C574 1.389 . S
C573 H552 0.950 . S
C573 C572 1.373 . S
C573 C589 1.377 . S
C574 C572 1.389 . S
C574 C575 1.524 . S
C574 C588 1.377 . S
C575 C574 1.524 . S
C575 C576 1.397 . S
C575 C580 1.363 . S
C576 H553 0.950 . S
C576 C575 1.397 . S
C576 C577 1.334 . S
C577 H554 0.950 . S
C577 C576 1.334 . S
C577 C578 1.287 . S
C578 C577 1.287 . S
C578 C579 1.524 . S
C578 H597 0.913 . S
C579 H555 0.950 . S
C579 C578 1.524 . S
C579 C580 1.415 . S
C580 H556 0.950 . S
C580 C575 1.363 . S
C580 C579 1.415 . S
C581 H557 0.951 . S
C581 C582 1.366 . S
C581 C583 1.388 . S
C582 C581 1.366 . S
C582 C586 1.385 . S
C583 H558 0.951 . S
C583 C581 1.388 . S
C583 C584 1.366 . S
C584 C583 1.366 . S
C584 C585 1.414 . S
C584 C587 1.499 . S
C585 H559 0.950 . S
C585 C584 1.414 . S
C585 C586 1.374 . S
C586 H560 0.950 . S
C586 C582 1.385 . S
C586 C585 1.374 . S
C587 C584 1.499 . S
C587 C588 1.373 . S
C587 C589 1.389 . S
C588 H561 0.950 . S
C588 C574 1.377 . S
C588 C587 1.373 . S
C589 C573 1.377 . S
C589 C587 1.389 . S
C589 C590 1.524 . S
C590 C589 1.524 . S
C590 C591 1.397 . S
C590 C595 1.363 . S
C591 H562 0.950 . S
C591 C590 1.397 . S
C591 C592 1.334 . S
C592 H563 0.950 . S
C592 C591 1.334 . S
C592 C593 1.287 . S
C593 C592 1.287 . S
C593 C594 1.524 . S
C593 H596 0.999 . S
C594 H564 0.950 . S
C594 C593 1.524 . S
C594 C595 1.415 . S
C595 H565 0.950 . S
C595 C590 1.363 . S
C595 C594 1.415 . S
H596 C593 0.999 . S
H597 C578 0.913 . S
H598 C616 0.951 . S
H599 C618 0.951 . S
H600 C620 0.950 . S
H601 C621 0.950 . S
H602 C623 0.950 . S
H603 C626 0.950 . S
H604 C627 0.950 . S
H605 C629 0.950 . S
H606 C630 0.950 . S
H607 C631 0.951 . S
H608 C633 0.951 . S
H609 C635 0.950 . S
H610 C636 0.950 . S
H611 C638 0.950 . S
H612 C641 0.950 . S
H613 C642 0.950 . S
H614 C644 0.950 . S
H615 C645 0.950 . S
C616 H598 0.951 . S
C616 C617 1.366 . S
C616 C618 1.388 . S
C617 C616 1.366 . S
C617 C621 1.385 . S
C618 H599 0.951 . S
C618 C616 1.388 . S
C618 C619 1.366 . S
C619 C618 1.366 . S
C619 C620 1.414 . S
C619 C622 1.499 . S
C620 H600 0.950 . S
C620 C619 1.414 . S
C620 C621 1.374 . S
C621 H601 0.950 . S
C621 C617 1.385 . S
C621 C620 1.374 . S
C622 C619 1.499 . S
C622 C623 1.373 . S
C622 C624 1.389 . S
C623 H602 0.950 . S
C623 C622 1.373 . S
C623 C639 1.377 . S
C624 C622 1.389 . S
C624 C625 1.524 . S
C624 C638 1.377 . S
C625 C624 1.524 . S
C625 C626 1.397 . S
C625 C630 1.363 . S
C626 H603 0.950 . S
C626 C625 1.397 . S
C626 C627 1.334 . S
C627 H604 0.950 . S
C627 C626 1.334 . S
C627 C628 1.287 . S
C628 C627 1.287 . S
C628 C629 1.524 . S
C628 H647 0.913 . S
C629 H605 0.950 . S
C629 C628 1.524 . S
C629 C630 1.415 . S
C630 H606 0.950 . S
C630 C625 1.363 . S
C630 C629 1.415 . S
C631 H607 0.951 . S
C631 C632 1.366 . S
C631 C633 1.388 . S
C632 C631 1.366 . S
C632 C636 1.385 . S
C633 H608 0.951 . S
C633 C631 1.388 . S
C633 C634 1.366 . S
C634 C633 1.366 . S
C634 C635 1.414 . S
C634 C637 1.499 . S
C635 H609 0.950 . S
C635 C634 1.414 . S
C635 C636 1.374 . S
C636 H610 0.950 . S
C636 C632 1.385 . S
C636 C635 1.374 . S
C637 C634 1.499 . S
C637 C638 1.373 . S
C637 C639 1.389 . S
C638 H611 0.950 . S
C638 C624 1.377 . S
C638 C637 1.373 . S
C639 C623 1.377 . S
C639 C637 1.389 . S
C639 C640 1.524 . S
C640 C639 1.524 . S
C640 C641 1.397 . S
C640 C645 1.363 . S
C641 H612 0.950 . S
C641 C640 1.397 . S
C641 C642 1.334 . S
C642 H613 0.950 . S
C642 C641 1.334 . S
C642 C643 1.287 . S
C643 C642 1.287 . S
C643 C644 1.524 . S
C643 H646 0.999 . S
C644 H614 0.950 . S
C644 C643 1.524 . S
C644 C645 1.415 . S
C645 H615 0.950 . S
C645 C640 1.363 . S
C645 C644 1.415 . S
H646 C643 0.999 . S
H647 C628 0.913 . S
H648 C666 0.951 . S
H649 C668 0.951 . S
H650 C670 0.950 . S
H651 C671 0.950 . S
H652 C673 0.950 . S
H653 C676 0.950 . S
H654 C677 0.950 . S
H655 C679 0.950 . S
H656 C680 0.950 . S
H657 C681 0.951 . S
H658 C683 0.951 . S
H659 C685 0.950 . S
H660 C686 0.950 . S
H661 C688 0.950 . S
H662 C691 0.950 . S
H663 C692 0.950 . S
H664 C694 0.950 . S
H665 C695 0.950 . S
C666 H648 0.951 . S
C666 C667 1.366 . S
C666 C668 1.388 . S
C667 C666 1.366 . S
C667 C671 1.385 . S
C668 H649 0.951 . S
C668 C666 1.388 . S
C668 C669 1.366 . S
C669 C668 1.366 . S
C669 C670 1.414 . S
C669 C672 1.499 . S
C670 H650 0.950 . S
C670 C669 1.414 . S
C670 C671 1.374 . S
C671 H651 0.950 . S
C671 C667 1.385 . S
C671 C670 1.374 . S
C672 C669 1.499 . S
C672 C673 1.373 . S
C672 C674 1.389 . S
C673 H652 0.950 . S
C673 C672 1.373 . S
C673 C689 1.377 . S
C674 C672 1.389 . S
C674 C675 1.524 . S
C674 C688 1.377 . S
C675 C674 1.524 . S
C675 C676 1.397 . S
C675 C680 1.363 . S
C676 H653 0.950 . S
C676 C675 1.397 . S
C676 C677 1.334 . S
C677 H654 0.950 . S
C677 C676 1.334 . S
C677 C678 1.287 . S
C678 C677 1.287 . S
C678 C679 1.524 . S
C678 H697 0.913 . S
C679 H655 0.950 . S
C679 C678 1.524 . S
C679 C680 1.415 . S
C680 H656 0.950 . S
C680 C675 1.363 . S
C680 C679 1.415 . S
C681 H657 0.951 . S
C681 C682 1.366 . S
C681 C683 1.388 . S
C682 C681 1.366 . S
C682 C686 1.385 . S
C683 H658 0.951 . S
C683 C681 1.388 . S
C683 C684 1.366 . S
C684 C683 1.366 . S
C684 C685 1.414 . S
C684 C687 1.499 . S
C685 H659 0.950 . S
C685 C684 1.414 . S
C685 C686 1.374 . S
C686 H660 0.950 . S
C686 C682 1.385 . S
C686 C685 1.374 . S
C687 C684 1.499 . S
C687 C688 1.373 . S
C687 C689 1.389 . S
C688 H661 0.950 . S
C688 C674 1.377 . S
C688 C687 1.373 . S
C689 C673 1.377 . S
C689 C687 1.389 . S
C689 C690 1.524 . S
C690 C689 1.524 . S
C690 C691 1.397 . S
C690 C695 1.363 . S
C691 H662 0.950 . S
C691 C690 1.397 . S
C691 C692 1.334 1_545 S
C692 H663 0.950 . S
C692 C691 1.334 1_565 S
C692 C693 1.287 . S
C693 C692 1.287 . S
C693 C694 1.524 . S
C693 H696 0.999 . S
C694 H664 0.950 . S
C694 C693 1.524 . S
C694 C695 1.415 1_565 S
C695 H665 0.950 . S
C695 C690 1.363 . S
C695 C694 1.415 1_545 S
H696 C693 0.999 . S
H697 C678 0.913 . S
H698 C716 0.951 . S
H699 C718 0.951 . S
H700 C720 0.950 . S
H701 C721 0.950 . S
H702 C723 0.950 . S
H703 C726 0.950 . S
H704 C727 0.950 . S
H705 C729 0.950 . S
H706 C730 0.950 . S
H707 C731 0.951 . S
H708 C733 0.951 . S
H709 C735 0.950 . S
H710 C736 0.950 . S
H711 C738 0.950 . S
H712 C741 0.950 . S
H713 C742 0.950 . S
H714 C744 0.950 . S
H715 C745 0.950 . S
C716 H698 0.951 . S
C716 C717 1.366 . S
C716 C718 1.388 . S
C717 C716 1.366 . S
C717 C721 1.385 . S
C718 H699 0.951 . S
C718 C716 1.388 . S
C718 C719 1.366 . S
C719 C718 1.366 . S
C719 C720 1.414 . S
C719 C722 1.499 . S
C720 H700 0.950 . S
C720 C719 1.414 . S
C720 C721 1.374 . S
C721 H701 0.950 . S
C721 C717 1.385 . S
C721 C720 1.374 . S
C722 C719 1.499 . S
C722 C723 1.373 . S
C722 C724 1.389 . S
C723 H702 0.950 . S
C723 C722 1.373 . S
C723 C739 1.377 . S
C724 C722 1.389 . S
C724 C725 1.524 . S
C724 C738 1.377 . S
C725 C724 1.524 . S
C725 C726 1.397 . S
C725 C730 1.363 . S
C726 H703 0.950 . S
C726 C725 1.397 . S
C726 C727 1.334 . S
C727 H704 0.950 . S
C727 C726 1.334 . S
C727 C728 1.287 . S
C728 C727 1.287 . S
C728 C729 1.524 . S
C728 H747 0.913 . S
C729 H705 0.950 . S
C729 C728 1.524 . S
C729 C730 1.415 . S
C730 H706 0.950 . S
C730 C725 1.363 . S
C730 C729 1.415 . S
C731 H707 0.951 . S
C731 C732 1.366 . S
C731 C733 1.388 . S
C732 C731 1.366 . S
C732 C736 1.385 . S
C733 H708 0.951 . S
C733 C731 1.388 . S
C733 C734 1.366 . S
C734 C733 1.366 . S
C734 C735 1.414 . S
C734 C737 1.499 . S
C735 H709 0.950 . S
C735 C734 1.414 . S
C735 C736 1.374 . S
C736 H710 0.950 . S
C736 C732 1.385 . S
C736 C735 1.374 . S
C737 C734 1.499 . S
C737 C738 1.373 . S
C737 C739 1.389 . S
C738 H711 0.950 . S
C738 C724 1.377 . S
C738 C737 1.373 . S
C739 C723 1.377 . S
C739 C737 1.389 . S
C739 C740 1.524 . S
C740 C739 1.524 . S
C740 C741 1.397 . S
C740 C745 1.363 . S
C741 H712 0.950 . S
C741 C740 1.397 . S
C741 C742 1.334 . S
C742 H713 0.950 . S
C742 C741 1.334 . S
C742 C743 1.287 . S
C743 C742 1.287 . S
C743 C744 1.524 . S
C743 H746 0.999 . S
C744 H714 0.950 . S
C744 C743 1.524 . S
C744 C745 1.415 . S
C745 H715 0.950 . S
C745 C740 1.363 . S
C745 C744 1.415 . S
H746 C743 0.999 . S
H747 C728 0.913 . S
H748 C766 0.951 . S
H749 C768 0.951 . S
H750 C770 0.950 . S
H751 C771 0.950 . S
H752 C773 0.950 . S
H753 C776 0.950 . S
H754 C777 0.950 . S
H755 C779 0.950 . S
H756 C780 0.916 1_545 S
H757 C781 0.951 . S
H758 C783 0.951 . S
H759 C785 0.961 . S
H760 C786 0.950 . S
H761 C788 0.950 . S
H762 C791 0.950 . S
H763 C792 0.950 . S
H764 C794 0.950 . S
H765 C795 0.950 . S
C766 H748 0.951 . S
C766 C767 1.366 . S
C766 C768 1.388 . S
C767 C766 1.366 . S
C767 C771 1.385 . S
C768 H749 0.951 . S
C768 C766 1.388 . S
C768 C769 1.366 . S
C769 C768 1.366 . S
C769 C770 1.414 . S
C769 C772 1.499 . S
C770 H750 0.950 . S
C770 C769 1.414 . S
C770 C771 1.374 . S
C771 H751 0.950 . S
C771 C767 1.385 . S
C771 C770 1.374 . S
C772 C769 1.499 . S
C772 C773 1.373 . S
C772 C774 1.389 . S
C773 H752 0.950 . S
C773 C772 1.373 . S
C773 C789 1.377 . S
C774 C772 1.389 . S
C774 C775 1.524 . S
C774 C788 1.377 . S
C775 C774 1.524 . S
C775 C776 1.397 . S
C775 C780 1.405 . S
C776 H753 0.950 . S
C776 C775 1.397 . S
C776 C777 1.334 . S
C777 H754 0.950 . S
C777 C776 1.334 . S
C777 C778 1.287 . S
C778 C777 1.287 . S
C778 C779 1.524 1_565 S
C778 H797 0.913 . S
C779 H755 0.950 . S
C779 C778 1.524 1_545 S
C779 C780 1.408 1_545 S
C780 H756 0.916 1_565 S
C780 C775 1.405 . S
C780 C779 1.408 1_565 S
C781 H757 0.951 . S
C781 C782 1.366 . S
C781 C783 1.388 . S
C782 C781 1.366 . S
C782 C786 1.385 1_565 S
C783 H758 0.951 . S
C783 C781 1.388 . S
C783 C784 1.366 . S
C784 C783 1.366 . S
C784 C785 1.400 1_565 S
C784 C787 1.499 . S
C785 H759 0.961 . S
C785 C784 1.400 1_545 S
C785 C786 1.376 . S
C786 H760 0.950 . S
C786 C782 1.385 1_545 S
C786 C785 1.376 . S
C787 C784 1.499 . S
C787 C788 1.373 . S
C787 C789 1.389 . S
C788 H761 0.950 . S
C788 C774 1.377 . S
C788 C787 1.373 . S
C789 C773 1.377 . S
C789 C787 1.389 . S
C789 C790 1.524 . S
C790 C789 1.524 . S
C790 C791 1.397 . S
C790 C795 1.363 . S
C791 H762 0.950 . S
C791 C790 1.397 . S
C791 C792 1.334 . S
C792 H763 0.950 . S
C792 C791 1.334 . S
C792 C793 1.287 . S
C793 C792 1.287 . S
C793 C794 1.524 . S
C793 H796 0.999 . S
C794 H764 0.950 . S
C794 C793 1.524 . S
C794 C795 1.415 . S
C795 H765 0.950 . S
C795 C790 1.363 . S
C795 C794 1.415 . S
H796 C793 0.999 . S
H797 C778 0.913 . S
C232 C172 1.311 . S
C217 C138 1.488 . S
C267 C21 1.480 . S
C282 C193 1.312 . S
C317 C60 1.681 . S
C332 C169 1.482 . S
C367 C99 1.692 . S
C382 C190 1.481 . S
C432 C174 1.616 . S
C417 C16 1.627 . S
C482 C194 1.559 . S
C467 C40 1.591 . S
C517 C79 1.567 . S
C532 C170 1.509 . S
C567 C133 1.610 . S
C582 C192 1.552 . S
C632 C191 1.509 . S
C617 C55 1.566 . S
C682 C173 1.558 . S
C667 C94 1.591 . S
C732 C195 1.617 . S
C717 C118 1.629 . S
C767 C1 1.610 . S
C782 C171 1.552 . S
