# Generated by pormake.
# Topology ssc, (4,4)-cn, num edge types: 1
# Building blocks:
#     Node 0, Type 0, BuildingBlock: GALJAG_clean_sbu_0, # of connection points: 4
#     Node 1, Type 0, BuildingBlock: GALJAG_clean_sbu_0, # of connection points: 4
#     Node 2, Type 0, BuildingBlock: GALJAG_clean_sbu_0, # of connection points: 4
#     Node 3, Type 0, BuildingBlock: GALJAG_clean_sbu_0, # of connection points: 4
#     Node 4, Type 0, BuildingBlock: GALJAG_clean_sbu_0, # of connection points: 4
#     Node 5, Type 0, BuildingBlock: GALJAG_clean_sbu_0, # of connection points: 4
#     Node 6, Type 0, BuildingBlock: GALJAG_clean_sbu_0, # of connection points: 4
#     Node 7, Type 0, BuildingBlock: GALJAG_clean_sbu_0, # of connection points: 4
#     Node 8, Type 0, BuildingBlock: GALJAG_clean_sbu_0, # of connection points: 4
#     Node 9, Type 0, BuildingBlock: GALJAG_clean_sbu_0, # of connection points: 4
#     Node 10, Type 0, BuildingBlock: GALJAG_clean_sbu_0, # of connection points: 4
#     Node 11, Type 0, BuildingBlock: GALJAG_clean_sbu_0, # of connection points: 4
#     Node 12, Type 1, BuildingBlock: KUFVIS_clean_linker_0, # of connection points: 4
#     Node 13, Type 1, BuildingBlock: KUFVIS_clean_linker_0, # of connection points: 4
#     Node 14, Type 1, BuildingBlock: KUFVIS_clean_linker_0, # of connection points: 4
#     Node 15, Type 1, BuildingBlock: KUFVIS_clean_linker_0, # of connection points: 4
#     Node 16, Type 1, BuildingBlock: KUFVIS_clean_linker_0, # of connection points: 4
#     Node 17, Type 1, BuildingBlock: KUFVIS_clean_linker_0, # of connection points: 4
#     Node 18, Type 1, BuildingBlock: KUFVIS_clean_linker_0, # of connection points: 4
#     Node 19, Type 1, BuildingBlock: KUFVIS_clean_linker_0, # of connection points: 4
#     Node 20, Type 1, BuildingBlock: KUFVIS_clean_linker_0, # of connection points: 4
#     Node 21, Type 1, BuildingBlock: KUFVIS_clean_linker_0, # of connection points: 4
#     Node 22, Type 1, BuildingBlock: KUFVIS_clean_linker_0, # of connection points: 4
#     Node 23, Type 1, BuildingBlock: KUFVIS_clean_linker_0, # of connection points: 4
#     Edge 24, Type (0, 1), BuildingBlock: CIFDUS_clean_linker_0, # of connection points: 2
#     Edge 25, Type (0, 1), BuildingBlock: CIFDUS_clean_linker_0, # of connection points: 2
#     Edge 26, Type (0, 1), BuildingBlock: CIFDUS_clean_linker_0, # of connection points: 2
#     Edge 27, Type (0, 1), BuildingBlock: CIFDUS_clean_linker_0, # of connection points: 2
#     Edge 28, Type (0, 1), BuildingBlock: CIFDUS_clean_linker_0, # of connection points: 2
#     Edge 29, Type (0, 1), BuildingBlock: CIFDUS_clean_linker_0, # of connection points: 2
#     Edge 30, Type (0, 1), BuildingBlock: CIFDUS_clean_linker_0, # of connection points: 2
#     Edge 31, Type (0, 1), BuildingBlock: CIFDUS_clean_linker_0, # of connection points: 2
#     Edge 32, Type (0, 1), BuildingBlock: CIFDUS_clean_linker_0, # of connection points: 2
#     Edge 33, Type (0, 1), BuildingBlock: CIFDUS_clean_linker_0, # of connection points: 2
#     Edge 34, Type (0, 1), BuildingBlock: CIFDUS_clean_linker_0, # of connection points: 2
#     Edge 35, Type (0, 1), BuildingBlock: CIFDUS_clean_linker_0, # of connection points: 2
#     Edge 36, Type (0, 1), BuildingBlock: CIFDUS_clean_linker_0, # of connection points: 2
#     Edge 37, Type (0, 1), BuildingBlock: CIFDUS_clean_linker_0, # of connection points: 2
#     Edge 38, Type (0, 1), BuildingBlock: CIFDUS_clean_linker_0, # of connection points: 2
#     Edge 39, Type (0, 1), BuildingBlock: CIFDUS_clean_linker_0, # of connection points: 2
#     Edge 40, Type (0, 1), BuildingBlock: CIFDUS_clean_linker_0, # of connection points: 2
#     Edge 41, Type (0, 1), BuildingBlock: CIFDUS_clean_linker_0, # of connection points: 2
#     Edge 42, Type (0, 1), BuildingBlock: CIFDUS_clean_linker_0, # of connection points: 2
#     Edge 43, Type (0, 1), BuildingBlock: CIFDUS_clean_linker_0, # of connection points: 2
#     Edge 44, Type (0, 1), BuildingBlock: CIFDUS_clean_linker_0, # of connection points: 2
#     Edge 45, Type (0, 1), BuildingBlock: CIFDUS_clean_linker_0, # of connection points: 2
#     Edge 46, Type (0, 1), BuildingBlock: CIFDUS_clean_linker_0, # of connection points: 2
#     Edge 47, Type (0, 1), BuildingBlock: CIFDUS_clean_linker_0, # of connection points: 2
#     Edge 48, Type (0, 1), BuildingBlock: CIFDUS_clean_linker_0, # of connection points: 2
#     Edge 49, Type (0, 1), BuildingBlock: CIFDUS_clean_linker_0, # of connection points: 2
#     Edge 50, Type (0, 1), BuildingBlock: CIFDUS_clean_linker_0, # of connection points: 2
#     Edge 51, Type (0, 1), BuildingBlock: CIFDUS_clean_linker_0, # of connection points: 2
#     Edge 52, Type (0, 1), BuildingBlock: CIFDUS_clean_linker_0, # of connection points: 2
#     Edge 53, Type (0, 1), BuildingBlock: CIFDUS_clean_linker_0, # of connection points: 2
#     Edge 54, Type (0, 1), BuildingBlock: CIFDUS_clean_linker_0, # of connection points: 2
#     Edge 55, Type (0, 1), BuildingBlock: CIFDUS_clean_linker_0, # of connection points: 2
#     Edge 56, Type (0, 1), BuildingBlock: CIFDUS_clean_linker_0, # of connection points: 2
#     Edge 57, Type (0, 1), BuildingBlock: CIFDUS_clean_linker_0, # of connection points: 2
#     Edge 58, Type (0, 1), BuildingBlock: CIFDUS_clean_linker_0, # of connection points: 2
#     Edge 59, Type (0, 1), BuildingBlock: CIFDUS_clean_linker_0, # of connection points: 2
#     Edge 60, Type (0, 1), BuildingBlock: CIFDUS_clean_linker_0, # of connection points: 2
#     Edge 61, Type (0, 1), BuildingBlock: CIFDUS_clean_linker_0, # of connection points: 2
#     Edge 62, Type (0, 1), BuildingBlock: CIFDUS_clean_linker_0, # of connection points: 2
#     Edge 63, Type (0, 1), BuildingBlock: CIFDUS_clean_linker_0, # of connection points: 2
#     Edge 64, Type (0, 1), BuildingBlock: CIFDUS_clean_linker_0, # of connection points: 2
#     Edge 65, Type (0, 1), BuildingBlock: CIFDUS_clean_linker_0, # of connection points: 2
#     Edge 66, Type (0, 1), BuildingBlock: CIFDUS_clean_linker_0, # of connection points: 2
#     Edge 67, Type (0, 1), BuildingBlock: CIFDUS_clean_linker_0, # of connection points: 2
#     Edge 68, Type (0, 1), BuildingBlock: CIFDUS_clean_linker_0, # of connection points: 2
#     Edge 69, Type (0, 1), BuildingBlock: CIFDUS_clean_linker_0, # of connection points: 2
#     Edge 70, Type (0, 1), BuildingBlock: CIFDUS_clean_linker_0, # of connection points: 2
#     Edge 71, Type (0, 1), BuildingBlock: CIFDUS_clean_linker_0, # of connection points: 2
# Relax obj value: 0.073
# Max RMSD: 0.279
# Mean RMSD: 0.240
data_MOF--net-ssc--node1-GALJAG_clean_sbu_0--node2-KUFVIS_clean_linker_0--edge1-CIFDUS_clean_linker_0
_symmetry_space_group_name_H-M    P1
_symmetry_Int_Tables_number       1
_symmetry_cell_setting            triclinic
loop_
_symmetry_equiv_pos_as_xyz
'x, y, z'
_cell_length_a     27.669943
_cell_length_b     27.732938
_cell_length_c     27.701586
_cell_angle_alpha  90.037776
_cell_angle_beta   89.991413
_cell_angle_gamma 90.18773
loop_
_atom_site_label
_atom_site_type_symbol
_atom_site_fract_x
_atom_site_fract_y
_atom_site_fract_z
_atom_type_partial_charge
In0 In 0.98634 0.26638 0.12765 0.0
O1 O 0.05533 0.30695 0.14519 0.0
O2 O 0.04002 0.2444 0.18668 0.0
C3 C 0.00805 0.18907 0.0725 0.0
C4 C 0.91128 0.26129 0.18989 0.0
C5 C 0.9605 0.33392 0.06259 0.0
O6 O 0.02336 0.23086 0.06314 0.0
O7 O 0.98458 0.18589 0.11139 0.0
O8 O 0.94282 0.29201 0.06258 0.0
O9 O 0.98837 0.34263 0.09756 0.0
C10 C 0.068 0.27966 0.17925 0.0
O11 O 0.94564 0.29068 0.19565 0.0
O12 O 0.91394 0.23653 0.1519 0.0
In13 In 0.00749 0.76808 0.3732 0.0
O14 O 0.03319 0.6924 0.39048 0.0
O15 O 0.9764 0.72112 0.43329 0.0
C16 C 0.92455 0.76132 0.32153 0.0
C17 C 0.02096 0.83863 0.43947 0.0
C18 C 0.07741 0.78276 0.30644 0.0
O19 O 0.92949 0.78925 0.35717 0.0
O20 O 0.96074 0.73503 0.31332 0.0
O21 O 0.03835 0.80592 0.30679 0.0
O22 O 0.08231 0.75405 0.34133 0.0
C23 C 0.00517 0.68666 0.42599 0.0
O24 O 0.04192 0.79852 0.44222 0.0
O25 O 0.99534 0.84379 0.40221 0.0
In26 In 0.48625 0.7576 0.62802 0.0
O27 O 0.5148 0.70412 0.5723 0.0
O28 O 0.4556 0.68258 0.61611 0.0
C29 C 0.56982 0.75193 0.67802 0.0
C30 C 0.47989 0.82587 0.55871 0.0
C31 C 0.4141 0.77475 0.69197 0.0
O32 O 0.5342 0.72469 0.68653 0.0
O33 O 0.56383 0.78043 0.64305 0.0
O34 O 0.40723 0.75557 0.6513 0.0
O35 O 0.45701 0.78811 0.69922 0.0
C36 C 0.48339 0.67237 0.58152 0.0
O37 O 0.46013 0.78516 0.55479 0.0
O38 O 0.50056 0.83308 0.59865 0.0
In39 In 0.48374 0.24866 0.86529 0.0
O40 O 0.52313 0.28536 0.80288 0.0
O41 O 0.5582 0.22722 0.83842 0.0
C42 C 0.49911 0.32191 0.92777 0.0
C43 C 0.41282 0.23801 0.79955 0.0
C44 C 0.46905 0.17486 0.92726 0.0
O45 O 0.52798 0.28728 0.92242 0.0
O46 O 0.46307 0.32096 0.89977 0.0
O47 O 0.44263 0.21179 0.92663 0.0
O48 O 0.5013 0.17423 0.8951 0.0
C49 C 0.55935 0.25786 0.80475 0.0
O50 O 0.44869 0.21022 0.80184 0.0
O51 O 0.41153 0.27015 0.83187 0.0
In52 In 0.13143 -0.00075 0.23944 0.0
O53 O 0.18998 0.95253 0.27387 0.0
O54 O 0.16279 0.93162 0.20518 0.0
C55 C 0.07022 0.97813 0.31237 0.0
C56 C 0.18943 0.07826 0.23938 0.0
C57 C 0.06505 0.01766 0.17047 0.0
O58 O 0.06805 0.95762 0.27183 0.0
O59 O 0.10561 0.00655 0.31725 0.0
O60 O 0.06838 0.04162 0.20894 0.0
O61 O 0.09772 0.98644 0.16492 0.0
C62 C 0.19197 0.92311 0.23914 0.0
O63 O 0.19695 0.04274 0.21197 0.0
O64 O 0.15238 0.07425 0.26548 0.0
In65 In 0.26186 0.87244 0.49794 0.0
O66 O 0.23145 0.81281 0.44907 0.0
O67 O 0.29367 0.85122 0.4256 0.0
C68 C 0.18939 0.93465 0.47929 0.0
C69 C 0.26542 0.80557 0.5686 0.0
C70 C 0.33246 0.9356 0.522 0.0
O71 O 0.22693 0.93181 0.45365 0.0
O72 O 0.18705 0.904 0.51297 0.0
O73 O 0.2911 0.93683 0.54094 0.0
O74 O 0.33874 0.90108 0.49306 0.0
C75 C 0.26388 0.81771 0.41734 0.0
O76 O 0.29766 0.80959 0.53675 0.0
O77 O 0.23189 0.8362 0.56569 0.0
In78 In 0.37897 0.98396 0.73099 0.0
O79 O 0.31001 0.9555 0.69457 0.0
O80 O 0.3402 0.91345 0.75045 0.0
C81 C 0.44827 0.95957 0.66677 0.0
C82 C 0.33639 0.07115 0.72334 0.0
C83 C 0.43037 0.99126 0.81375 0.0
O84 O 0.44313 0.93821 0.70655 0.0
O85 O 0.41613 0.99039 0.65795 0.0
O86 O 0.44118 0.01478 0.77633 0.0
O87 O 0.39197 0.96684 0.81022 0.0
C88 C 0.30621 0.91854 0.72067 0.0
O89 O 0.32581 0.04204 0.7568 0.0
O90 O 0.36957 0.05694 0.69567 0.0
In91 In 0.25227 0.1295 0.99832 0.0
O92 O 0.2177 0.18226 0.05061 0.0
O93 O 0.2832 0.14902 0.07226 0.0
C94 C 0.17091 0.07598 0.00192 0.0
C95 C 0.26198 0.19689 0.92845 0.0
C96 C 0.31951 0.06327 0.9757 0.0
O97 O 0.17377 0.11593 0.98045 0.0
O98 O 0.2085 0.06424 0.02486 0.0
O99 O 0.28173 0.06949 0.95124 0.0
O100 O 0.32453 0.092 0.01071 0.0
C101 C 0.25036 0.17892 0.08217 0.0
O102 O 0.28727 0.19783 0.96628 0.0
O103 O 0.23382 0.16135 0.92552 0.0
In104 In 0.76177 0.36749 0.01981 0.0
O105 O 0.80251 0.30268 0.05019 0.0
O106 O 0.74484 0.331 0.09159 0.0
C107 C 0.8276 0.43838 0.0352 0.0
C108 C 0.75911 0.3163 0.93679 0.0
C109 C 0.67862 0.41741 0.01435 0.0
O110 O 0.78931 0.43481 0.0595 0.0
O111 O 0.83407 0.40443 0.00569 0.0
O112 O 0.71202 0.42209 0.98372 0.0
O113 O 0.68632 0.38582 0.04614 0.0
C114 C 0.77625 0.29851 0.08715 0.0
O115 O 0.73156 0.307 0.97191 0.0
O116 O 0.78647 0.35222 0.94314 0.0
In117 In 0.86423 0.4886 0.23163 0.0
O118 O 0.8033 0.44589 0.1953 0.0
O119 O 0.83501 0.41687 0.25874 0.0
C120 C 0.9319 0.47375 0.16313 0.0
C121 C 0.79994 0.56083 0.23846 0.0
C122 C 0.92512 0.51313 0.30348 0.0
O123 O 0.92844 0.44774 0.20029 0.0
O124 O 0.8989 0.50481 0.15883 0.0
O125 O 0.91992 0.53808 0.26586 0.0
O126 O 0.89787 0.47657 0.30598 0.0
C127 C 0.80286 0.41285 0.22662 0.0
O128 O 0.80319 0.52797 0.26973 0.0
O129 O 0.8297 0.55773 0.204 0.0
In130 In 0.75188 0.6273 0.50521 0.0
O131 O 0.77065 0.64691 0.58267 0.0
O132 O 0.72694 0.69609 0.54389 0.0
C133 C 0.6758 0.5682 0.52122 0.0
C134 C 0.75183 0.67895 0.42261 0.0
C135 C 0.83134 0.57177 0.49515 0.0
O136 O 0.71693 0.56116 0.53925 0.0
O137 O 0.67232 0.60661 0.49711 0.0
O138 O 0.79182 0.56174 0.47488 0.0
O139 O 0.83139 0.61119 0.51791 0.0
C140 C 0.74884 0.68674 0.58265 0.0
O141 O 0.7765 0.6912 0.45891 0.0
O142 O 0.72891 0.6399 0.42755 0.0
In143 In 0.62506 0.4781 0.75144 0.0
O144 O 0.69028 0.43797 0.78307 0.0
O145 O 0.65084 0.4044 0.72662 0.0
C146 C 0.56055 0.46243 0.82338 0.0
C147 C 0.68753 0.55295 0.74412 0.0
C148 C 0.56356 0.49423 0.67752 0.0
O149 O 0.56159 0.43758 0.78532 0.0
O150 O 0.59425 0.49309 0.82669 0.0
O151 O 0.56302 0.51913 0.71561 0.0
O152 O 0.5968 0.46325 0.67578 0.0
C153 C 0.6869 0.40278 0.75439 0.0
O154 O 0.68572 0.51916 0.71371 0.0
O155 O 0.65636 0.55017 0.77732 0.0
H156 H 0.89182 0.36497 0.6208 0.0
H157 H 0.96888 0.24708 0.68501 0.0
H158 H 0.0112 0.3019 0.54494 0.0
H159 H -0.0004 0.1926 0.55501 0.0
H160 H 0.13863 0.14268 0.60107 0.0
H161 H 0.07545 0.26586 0.67046 0.0
C162 C 0.92051 0.33837 0.61905 0.0
C163 C 0.95079 0.33727 0.57879 0.0
C164 C 0.92656 0.30614 0.65722 0.0
C165 C 0.96398 0.27216 0.65544 0.0
C166 C 0.99446 0.27021 0.6146 0.0
C167 C 0.98752 0.30275 0.57611 0.0
C168 C 0.03376 0.23445 0.61187 0.0
C169 C 0.03126 0.19677 0.57771 0.0
C170 C 0.06938 0.16384 0.57395 0.0
C171 C 0.10986 0.16918 0.60335 0.0
C172 C 0.11239 0.20539 0.63829 0.0
C173 C 0.07392 0.23791 0.64313 0.0
H174 H 0.86827 0.64166 0.89404 0.0
H175 H 0.0048 0.69904 0.94045 0.0
H176 H 0.93016 0.76245 0.81899 0.0
H177 H 0.04312 0.74123 0.81283 0.0
H178 H 0.11097 0.86919 0.86861 0.0
H179 H 0.98691 0.8105 0.94093 0.0
C180 C 0.89666 0.66864 0.89074 0.0
C181 C 0.89445 0.70229 0.85343 0.0
C182 C 0.93626 0.66691 0.92176 0.0
C183 C 0.97368 0.70066 0.91675 0.0
C184 C 0.97122 0.73586 0.88016 0.0
C185 C 0.9318 0.73614 0.84786 0.0
C186 C 0.00961 0.77261 0.87631 0.0
C187 C 0.04408 0.77045 0.83881 0.0
C188 C 0.08069 0.80552 0.8362 0.0
C189 C 0.08215 0.84254 0.8703 0.0
C190 C 0.04889 0.84439 0.9081 0.0
C191 C 0.01268 0.80922 0.91147 0.0
H192 H 0.36859 0.84788 0.08784 0.0
H193 H 0.43602 0.72368 0.15108 0.0
H194 H 0.51108 0.80761 0.04276 0.0
H195 H 0.49125 0.68432 0.03868 0.0
H196 H 0.63065 0.64494 0.09334 0.0
H197 H 0.55445 0.76329 0.15784 0.0
C198 C 0.39887 0.8231 0.08973 0.0
C199 C 0.43956 0.8316 0.0613 0.0
C200 C 0.3973 0.78475 0.12229 0.0
C201 C 0.43695 0.75362 0.12597 0.0
C202 C 0.47777 0.76148 0.09648 0.0
C203 C 0.47929 0.80093 0.0647 0.0
C204 C 0.51879 0.72824 0.09745 0.0
C205 C 0.52101 0.69062 0.06338 0.0
C206 C 0.56158 0.66078 0.06202 0.0
C207 C 0.59968 0.66895 0.0939 0.0
C208 C 0.59713 0.70508 0.12885 0.0
C209 C 0.55661 0.7351 0.1308 0.0
H210 H 0.36362 0.15257 0.40215 0.0
H211 H 0.48886 0.2113 0.47196 0.0
H212 H 0.45762 0.2478 0.32347 0.0
H213 H 0.55043 0.23723 0.33168 0.0
H214 H 0.63653 0.34524 0.4026 0.0
H215 H 0.50052 0.3038 0.464 0.0
C216 C 0.39461 0.17671 0.40147 0.0
C217 C 0.40674 0.20033 0.35854 0.0
C218 C 0.42418 0.18021 0.44217 0.0
C219 C 0.4653 0.20959 0.44072 0.0
C220 C 0.47711 0.23515 0.39832 0.0
C221 C 0.4482 0.2295 0.35674 0.0
C222 C 0.52028 0.26672 0.39783 0.0
C223 C 0.55524 0.26284 0.36087 0.0
C224 C 0.59745 0.2909 0.36303 0.0
C225 C 0.60409 0.32311 0.40128 0.0
C226 C 0.56949 0.32781 0.43752 0.0
C227 C 0.52746 0.29982 0.43586 0.0
H228 H 0.59706 0.85596 0.33991 0.0
H229 H 0.67839 0.93939 0.23763 0.0
H230 H 0.53302 0.98134 0.27598 0.0
H231 H 0.54947 0.97873 0.17241 0.0
H232 H 0.61862 0.10923 0.12522 0.0
H233 H 0.6685 0.03894 0.25396 0.0
C234 C 0.59887 0.88539 0.31409 0.0
C235 C 0.56 0.91714 0.31036 0.0
C236 C 0.64165 0.89341 0.28852 0.0
C237 C 0.64512 0.93291 0.25731 0.0
C238 C 0.60522 0.96375 0.25128 0.0
C239 C 0.56278 0.95613 0.27839 0.0
C240 C 0.60828 0.00448 0.21738 0.0
C241 C 0.57639 0.00672 0.17785 0.0
C242 C 0.58041 0.04445 0.14459 0.0
C243 C 0.61559 0.08004 0.15118 0.0
C244 C 0.64729 0.07832 0.19039 0.0
C245 C 0.64383 0.04044 0.2236 0.0
H246 H 0.13482 0.40628 0.37087 0.0
H247 H 0.1758 0.46161 0.50946 0.0
H248 H 0.25236 0.34073 0.44762 0.0
H249 H 0.22286 0.33252 0.55033 0.0
H250 H 0.33096 0.3993 0.63945 0.0
H251 H 0.28725 0.46837 0.50799 0.0
C252 C 0.15946 0.40605 0.40141 0.0
C253 C 0.19523 0.37071 0.40406 0.0
C254 C 0.15189 0.4383 0.43923 0.0
C255 C 0.18206 0.43704 0.47966 0.0
C256 C 0.21923 0.40262 0.48223 0.0
C257 C 0.22502 0.3685 0.4449 0.0
C258 C 0.25047 0.4013 0.52505 0.0
C259 C 0.24739 0.36227 0.55736 0.0
C260 C 0.27616 0.36207 0.59884 0.0
C261 C 0.30774 0.40038 0.60784 0.0
C262 C 0.31229 0.43841 0.57525 0.0
C263 C 0.28341 0.4392 0.53377 0.0
H264 H 0.88938 0.13315 0.86187 0.0
H265 H 0.81807 0.04769 0.75381 0.0
H266 H 0.96002 0.00778 0.80631 0.0
H267 H 0.96314 0.99697 0.71576 0.0
H268 H 0.89639 0.8708 0.65597 0.0
H269 H 0.81738 0.95747 0.75709 0.0
C270 C 0.88955 0.10271 0.83714 0.0
C271 C 0.92915 0.07193 0.83672 0.0
C272 C 0.84947 0.0942 0.80773 0.0
C273 C 0.84905 0.05408 0.7769 0.0
C274 C 0.88953 0.02307 0.77528 0.0
C275 C 0.9294 0.03207 0.80586 0.0
C276 C 0.89073 0.98133 0.7419 0.0
C277 C 0.93272 0.97227 0.7144 0.0
C278 C 0.93476 0.93218 0.68383 0.0
C279 C 0.89515 0.90111 0.68081 0.0
C280 C 0.8527 0.91036 0.70645 0.0
C281 C 0.85024 0.95059 0.73698 0.0
H282 H 0.38394 0.63047 0.89813 0.0
H283 H 0.30701 0.55095 0.00705 0.0
H284 H 0.25587 0.69072 0.96099 0.0
H285 H 0.2665 0.67898 0.06424 0.0
H286 H 0.13341 0.62 0.11762 0.0
H287 H 0.19882 0.5588 0.99091 0.0
C288 C 0.35373 0.62746 0.923 0.0
C289 C 0.32039 0.66501 0.9261 0.0
C290 C 0.34905 0.5863 0.95172 0.0
C291 C 0.31012 0.58231 0.98391 0.0
C292 C 0.27643 0.62015 0.98751 0.0
C293 C 0.28166 0.66148 0.95838 0.0
C294 C 0.23764 0.61842 0.02393 0.0
C295 C 0.23763 0.65261 0.06151 0.0
C296 C 0.20004 0.65295 0.09519 0.0
C297 C 0.1628 0.61919 0.09162 0.0
C298 C 0.16209 0.58519 0.05442 0.0
C299 C 0.19972 0.58445 0.02043 0.0
H300 H 0.63356 0.87285 0.87673 0.0
H301 H 0.70004 0.94132 -0.00104 0.0
H302 H 0.75297 0.80393 0.94705 0.0
H303 H 0.74298 0.80853 0.05096 0.0
H304 H 0.86928 0.87472 0.11249 0.0
H305 H 0.80466 0.93671 0.98623 0.0
C306 C 0.66095 0.87293 0.90485 0.0
C307 C 0.69309 0.83444 0.90794 0.0
C308 C 0.66277 0.91117 0.93755 0.0
C309 C 0.69838 0.91164 0.97353 0.0
C310 C 0.73099 0.87271 0.9773 0.0
C311 C 0.72788 0.83377 0.94463 0.0
C312 C 0.76885 0.87313 0.0148 0.0
C313 C 0.77006 0.83686 0.05054 0.0
C314 C 0.80607 0.83799 0.08615 0.0
C315 C 0.84089 0.87448 0.08539 0.0
C316 C 0.84078 0.90981 0.04958 0.0
C317 C 0.80457 0.90948 0.0143 0.0
H318 H 0.36616 0.6082 0.37124 0.0
H319 H 0.31764 0.5445 0.23828 0.0
H320 H 0.43831 0.48312 0.31606 0.0
H321 H 0.42542 0.51235 0.18709 0.0
H322 H 0.40144 0.36407 0.14873 0.0
H323 H 0.33891 0.42011 0.27885 0.0
C324 C 0.3693 0.58027 0.34389 0.0
C325 C 0.40543 0.54563 0.34826 0.0
C326 C 0.33791 0.58051 0.30447 0.0
C327 C 0.34204 0.54473 0.26888 0.0
C328 C 0.37824 0.50926 0.27326 0.0
C329 C 0.41022 0.5101 0.31279 0.0
C330 C 0.38255 0.47035 0.2375 0.0
C331 C 0.4098 0.47735 0.19507 0.0
C332 C 0.41717 0.4386 0.16341 0.0
C333 C 0.39711 0.39359 0.17416 0.0
C334 C 0.36858 0.38676 0.21515 0.0
C335 C 0.36118 0.4252 0.24703 0.0
H336 H 0.88355 0.13174 0.39655 0.0
H337 H 0.82729 0.05188 0.5168 0.0
H338 H 0.75655 0.18249 0.46959 0.0
H339 H 0.77478 0.17276 0.57662 0.0
H340 H 0.65465 0.09404 0.63546 0.0
H341 H 0.71716 0.04901 0.50098 0.0
C342 C 0.85668 0.1275 0.42485 0.0
C343 C 0.81983 0.16143 0.42941 0.0
C344 C 0.85956 0.08821 0.45603 0.0
C345 C 0.82498 0.08232 0.49238 0.0
C346 C 0.78788 0.11654 0.49758 0.0
C347 C 0.78543 0.15639 0.46613 0.0
C348 C 0.75149 0.11024 0.53566 0.0
C349 C 0.74975 0.14266 0.57472 0.0
C350 C 0.71518 0.13617 0.61102 0.0
C351 C 0.68258 0.09775 0.60813 0.0
C352 C 0.68271 0.06661 0.5685 0.0
C353 C 0.71747 0.07254 0.53225 0.0
H354 H 0.09807 0.37943 0.86011 0.0
H355 H 0.16958 0.4426 0.73783 0.0
H356 H 0.05035 0.51632 0.80627 0.0
H357 H 0.04881 0.49987 0.6929 0.0
H358 H 0.12078 0.62573 0.6383 0.0
H359 H 0.17697 0.55472 0.76395 0.0
C360 C 0.10084 0.4082 0.83365 0.0
C361 C 0.06985 0.44762 0.83679 0.0
C362 C 0.13695 0.40635 0.79856 0.0
C363 C 0.14168 0.44402 0.76528 0.0
C364 C 0.10963 0.48329 0.76737 0.0
C365 C 0.07399 0.48533 0.80354 0.0
C366 C 0.11318 0.52225 0.73175 0.0
C367 C 0.07809 0.52584 0.69511 0.0
C368 C 0.0814 0.563 0.66118 0.0
C369 C 0.11893 0.59643 0.66429 0.0
C370 C 0.15312 0.59398 0.70117 0.0
C371 C 0.15071 0.55657 0.73498 0.0
H372 H 0.01256 0.41464 0.04719 0.0
H373 H 0.90848 0.32034 0.97965 0.0
H374 H 0.92659 0.35612 0.90098 0.0
H375 H 0.98436 0.40226 0.85055 0.0
H376 H 0.09003 0.49377 0.91911 0.0
H377 H 0.06039 0.46976 0.99808 0.0
C378 C 0.99257 0.40312 0.01564 0.0
C379 C 0.95969 0.36466 0.01916 0.0
C380 C 0.00437 0.42263 0.97057 0.0
C381 C 0.93427 0.34976 0.97778 0.0
C382 C 0.94489 0.36993 0.93273 0.0
C383 C 0.99868 0.41906 0.88295 0.0
C384 C 0.03864 0.45024 0.87945 0.0
C385 C 0.9815 0.40482 0.92848 0.0
C386 C 0.05836 0.47075 0.92127 0.0
C387 C 0.04164 0.45672 0.96651 0.0
H388 H 0.9126 0.71497 0.2355 0.0
H389 H 0.84668 0.82022 0.3292 0.0
H390 H 0.7929 0.84501 0.2641 0.0
H391 H 0.77691 0.84853 0.1776 0.0
H392 H 0.84936 0.75049 0.08159 0.0
H393 H 0.88655 0.70958 0.15055 0.0
C394 C 0.88532 0.74218 0.24214 0.0
C395 C 0.88407 0.76619 0.28694 0.0
C396 C 0.85546 0.75742 0.20402 0.0
C397 C 0.84854 0.80133 0.29502 0.0
C398 C 0.81778 0.81562 0.2578 0.0
C399 C 0.79897 0.81668 0.17217 0.0
C400 C 0.81005 0.80201 0.12499 0.0
C401 C 0.8225 0.79555 0.21167 0.0
C402 C 0.83974 0.76168 0.11782 0.0
C403 C 0.86163 0.73891 0.15721 0.0
H404 H 0.53183 0.64827 0.49953 0.0
H405 H 0.40945 0.60861 0.58758 0.0
H406 H 0.38037 0.55488 0.52447 0.0
H407 H 0.38267 0.52918 0.4405 0.0
H408 H 0.49832 0.57691 0.34817 0.0
H409 H 0.53811 0.61608 0.4168 0.0
C410 C 0.49975 0.6265 0.50551 0.0
C411 C 0.47311 0.63195 0.54841 0.0
C412 C 0.48228 0.59675 0.46828 0.0
C413 C 0.43115 0.60426 0.55535 0.0
C414 C 0.41436 0.57362 0.51917 0.0
C415 C 0.41785 0.54611 0.43619 0.0
C416 C 0.43806 0.54985 0.38992 0.0
C417 C 0.43887 0.57059 0.4751 0.0
C418 C 0.48283 0.57289 0.38388 0.0
C419 C 0.505 0.59601 0.42292 0.0
H420 H 0.64683 0.21437 0.80725 0.0
H421 H 0.55095 0.29336 0.71361 0.0
H422 H 0.59859 0.26934 0.64342 0.0
H423 H 0.65857 0.21413 0.60819 0.0
H424 H 0.75148 0.13209 0.70162 0.0
H425 H 0.71448 0.16967 0.77233 0.0
C426 C 0.63722 0.2274 0.7716 0.0
C427 C 0.5951 0.25485 0.76541 0.0
C428 C 0.6643 0.21284 0.73138 0.0
C429 C 0.58316 0.27197 0.71921 0.0
C430 C 0.61009 0.25787 0.67899 0.0
C431 C 0.67219 0.20643 0.6441 0.0
C432 C 0.70794 0.17116 0.65009 0.0
C433 C 0.6496 0.22679 0.68454 0.0
C434 C 0.72472 0.16007 0.69647 0.0
C435 C 0.70325 0.18113 0.73686 0.0
H436 H 0.96115 0.67579 0.51312 0.0
H437 H 0.06763 0.61196 0.41925 0.0
H438 H 0.09272 0.55797 0.48383 0.0
H439 H 0.09335 0.53771 0.56913 0.0
H440 H 0.99563 0.60918 0.66623 0.0
H441 H 0.95733 0.65059 0.59823 0.0
C442 C 0.98874 0.64893 0.50632 0.0
C443 C 0.01213 0.64744 0.46125 0.0
C444 C 0.0045 0.61927 0.54423 0.0
C445 C 0.04833 0.61304 0.45321 0.0
C446 C 0.06284 0.58221 0.49012 0.0
C447 C 0.06198 0.56044 0.57484 0.0
C448 C 0.04643 0.56982 0.62203 0.0
C449 C 0.04215 0.58591 0.53602 0.0
C450 C 0.00711 0.60065 0.62982 0.0
C451 C 0.98603 0.62505 0.5911 0.0
H452 H 0.5818 0.70803 0.76505 0.0
H453 H 0.64891 0.80914 0.66726 0.0
H454 H 0.70401 0.83508 0.73083 0.0
H455 H 0.72242 0.84001 0.81647 0.0
H456 H 0.64781 0.74785 0.91688 0.0
H457 H 0.60845 0.70531 0.84988 0.0
C458 C 0.60971 0.73442 0.75717 0.0
C459 C 0.61095 0.75701 0.71167 0.0
C460 C 0.64043 0.75032 0.79437 0.0
C461 C 0.64714 0.79128 0.70199 0.0
C462 C 0.67876 0.80611 0.73828 0.0
C463 C 0.69938 0.80899 0.82331 0.0
C464 C 0.6883 0.7965 0.87111 0.0
C465 C 0.67441 0.78736 0.78497 0.0
C466 C 0.65744 0.75727 0.88016 0.0
C467 C 0.63425 0.73369 0.84189 0.0
H468 H 0.4431 0.40005 0.94769 0.0
H469 H 0.56124 0.31549 0.00323 0.0
H470 H 0.55238 0.35333 0.08191 0.0
H471 H 0.50219 0.39982 0.13786 0.0
H472 H 0.38323 0.48327 0.08352 0.0
H473 H 0.40259 0.45844 0.00113 0.0
C474 C 0.46818 0.39149 0.97644 0.0
C475 C 0.50226 0.3546 0.96979 0.0
C476 C 0.46316 0.4138 0.02175 0.0
C477 C 0.53441 0.34355 0.00744 0.0
C478 C 0.52934 0.36512 0.05259 0.0
C479 C 0.48229 0.41462 0.10756 0.0
C480 C 0.44161 0.44341 0.11639 0.0
C481 C 0.49278 0.39902 0.06058 0.0
C482 C 0.41529 0.46181 0.07729 0.0
C483 C 0.42599 0.44706 0.03022 0.0
H484 H 0.90497 0.30065 0.28 0.0
H485 H 0.84076 0.19398 0.18648 0.0
H486 H 0.79408 0.16166 0.25338 0.0
H487 H 0.78493 0.15295 0.3404 0.0
H488 H 0.8563 0.25233 0.43626 0.0
H489 H 0.88574 0.29918 0.36712 0.0
C490 C 0.8798 0.27117 0.27414 0.0
C491 C 0.87604 0.24985 0.2282 0.0
C492 C 0.85478 0.25115 0.31354 0.0
C493 C 0.84351 0.21156 0.22117 0.0
C494 C 0.81724 0.19265 0.2596 0.0
C495 C 0.80502 0.1862 0.34594 0.0
C496 C 0.81816 0.19972 0.39288 0.0
C497 C 0.82425 0.21075 0.3062 0.0
C498 C 0.84511 0.24204 0.4002 0.0
C499 C 0.86274 0.26813 0.36068 0.0
H500 H 0.06416 0.02456 0.398 0.0
H501 H 0.98246 0.93421 0.30075 0.0
H502 H 0.90789 0.9543 0.34347 0.0
H503 H 0.86496 0.00885 0.3998 0.0
H504 H 0.94739 0.10055 0.49469 0.0
H505 H 0.02209 0.06989 0.4604 0.0
C506 C 0.03025 0.00824 0.38696 0.0
C507 C 0.02873 0.97859 0.34591 0.0
C508 C 0.98747 0.02087 0.41086 0.0
C509 C 0.98455 0.95742 0.33216 0.0
C510 C 0.94179 0.96928 0.35625 0.0
C511 C 0.89952 0.01989 0.41472 0.0
C512 C 0.90107 0.05601 0.45024 0.0
C513 C 0.94263 0.00243 0.39453 0.0
C514 C 0.94567 0.07164 0.46838 0.0
C515 C 0.98846 0.05435 0.44863 0.0
H516 H 0.2123 0.79755 0.65025 0.0
H517 H 0.31296 0.72017 0.56031 0.0
H518 H 0.29569 0.64569 0.60423 0.0
H519 H 0.23978 0.60061 0.65719 0.0
H520 H 0.1389 0.6783 0.74604 0.0
H521 H 0.1678 0.75427 0.71316 0.0
C522 C 0.23122 0.76461 0.64107 0.0
C523 C 0.26307 0.76403 0.60167 0.0
C524 C 0.22094 0.72194 0.66625 0.0
C525 C 0.28793 0.72134 0.59036 0.0
C526 C 0.27795 0.67869 0.61532 0.0
C527 C 0.22671 0.63448 0.67176 0.0
C528 C 0.18761 0.63418 0.70407 0.0
C529 C 0.24314 0.67824 0.65214 0.0
C530 C 0.16981 0.67796 0.72198 0.0
C531 C 0.18591 0.7215 0.70271 0.0
H532 H 0.51638 0.03777 0.82978 0.0
H533 H 0.42353 0.92544 0.88492 0.0
H534 H 0.48662 0.8996 0.93991 0.0
H535 H 0.57088 0.89962 0.96265 0.0
H536 H 0.66904 0.00106 0.89763 0.0
H537 H 0.60106 0.04251 0.8588 0.0
C538 C 0.50944 0.00882 0.85517 0.0
C539 C 0.46481 0.98416 0.85394 0.0
C540 C 0.54684 0.99265 0.88559 0.0
C541 C 0.45673 0.94609 0.88628 0.0
C542 C 0.49296 0.93101 0.9176 0.0
C543 C 0.57694 0.93223 0.94179 0.0
C544 C 0.62446 0.94774 0.93332 0.0
C545 C 0.53845 0.95299 0.91656 0.0
C546 C 0.6325 0.98916 0.9053 0.0
C547 C 0.59373 0.01214 0.8823 0.0
H548 H 0.31866 0.18149 0.15271 0.0
H549 H 0.19399 0.25716 0.0984 0.0
H550 H 0.21609 0.32775 0.14538 0.0
H551 H 0.27618 0.37175 0.19244 0.0
H552 H 0.40506 0.29945 0.23958 0.0
H553 H 0.37443 0.22311 0.20773 0.0
C554 C 0.29506 0.21265 0.15302 0.0
C555 C 0.25509 0.21428 0.12173 0.0
C556 C 0.30782 0.25337 0.18044 0.0
C557 C 0.22492 0.25489 0.12225 0.0
C558 C 0.23722 0.29528 0.14958 0.0
C559 C 0.296 0.33856 0.19832 0.0
C560 C 0.34229 0.34074 0.21875 0.0
C561 C 0.2792 0.29545 0.17775 0.0
C562 C 0.36881 0.29813 0.22482 0.0
C563 C 0.35154 0.25463 0.20603 0.0
H564 H 0.04982 0.97423 0.08392 0.0
H565 H 0.97941 0.05967 0.19318 0.0
H566 H 0.90078 0.04122 0.15795 0.0
H567 H 0.85199 0.98847 0.10541 0.0
H568 H 0.92215 0.9027 0.99665 0.0
H569 H 0.00063 0.93439 0.02147 0.0
C570 C 0.0174 0.99008 0.09892 0.0
C571 C 0.02041 0.01772 0.14129 0.0
C572 C 0.97218 0.97897 0.07872 0.0
C573 C 0.9781 0.03807 0.16061 0.0
C574 C 0.933 0.02724 0.14072 0.0
C575 C 0.8844 0.97885 0.08559 0.0
C576 C 0.88163 0.9438 0.04913 0.0
C577 C 0.92954 0.9962 0.10095 0.0
C578 C 0.9236 0.93044 0.0242 0.0
C579 C 0.96858 0.94796 0.0389 0.0
H580 H 0.21412 0.73432 0.40011 0.0
H581 H 0.33271 0.82119 0.34799 0.0
H582 H 0.35762 0.75642 0.29424 0.0
H583 H 0.35607 0.67043 0.27549 0.0
H584 H 0.24478 0.5799 0.33546 0.0
H585 H 0.2055 0.65048 0.37121 0.0
C586 C 0.24462 0.73943 0.37604 0.0
C587 C 0.27162 0.78248 0.37807 0.0
C588 C 0.26019 0.70102 0.34679 0.0
C589 C 0.31114 0.78856 0.34683 0.0
C590 C 0.32564 0.75138 0.31629 0.0
C591 C 0.3218 0.66672 0.29422 0.0
C592 C 0.30299 0.62041 0.30261 0.0
C593 C 0.30176 0.70681 0.31757 0.0
C594 C 0.25928 0.61545 0.32789 0.0
C595 C 0.23757 0.65566 0.34932 0.0
H596 H 0.4702 0.0096 0.58608 0.0
H597 H 0.52992 0.90874 0.6882 0.0
H598 H 0.61129 0.92616 0.65854 0.0
H599 H 0.66537 0.98271 0.61533 0.0
H600 H 0.60502 0.08264 0.51307 0.0
H601 H 0.52397 0.05283 0.53054 0.0
C602 C 0.50081 0.99014 0.6006 0.0
C603 C 0.49414 0.95847 0.6396 0.0
C604 C 0.54743 0.0008 0.58381 0.0
C605 C 0.53417 0.93357 0.65831 0.0
C606 C 0.58077 0.94376 0.6416 0.0
C607 C 0.63456 0.9959 0.59509 0.0
C608 C 0.64073 0.03452 0.5629 0.0
C609 C 0.58793 0.97896 0.60592 0.0
C610 C 0.60085 0.0523 0.53738 0.0
C611 C 0.55443 0.03574 0.54792 0.0
H612 H 0.20494 0.20252 0.85009 0.0
H613 H 0.30908 0.28403 0.93273 0.0
H614 H 0.28577 0.35775 0.89009 0.0
H615 H 0.22436 0.40052 0.84112 0.0
H616 H 0.1172 0.31827 0.7637 0.0
H617 H 0.15126 0.24364 0.79474 0.0
C618 C 0.22333 0.2362 0.85809 0.0
C619 C 0.25797 0.2381 0.89507 0.0
C620 C 0.20839 0.27843 0.83504 0.0
C621 C 0.28194 0.28182 0.90463 0.0
C622 C 0.26836 0.324 0.88054 0.0
C623 C 0.21055 0.36597 0.82883 0.0
C624 C 0.16913 0.36445 0.79948 0.0
C625 C 0.23011 0.32304 0.84723 0.0
C626 C 0.15001 0.31988 0.78504 0.0
C627 C 0.16933 0.27722 0.80291 0.0
H628 H 0.4063 0.04504 0.01688 0.0
H629 H 0.29754 0.98282 0.92418 0.0
H630 H 0.3325 0.90308 0.93545 0.0
H631 H 0.38419 0.85011 0.98405 0.0
H632 H 0.49253 0.91196 0.07714 0.0
H633 H 0.46824 0.99283 0.05272 0.0
C634 C 0.39141 0.01428 0.99788 0.0
C635 C 0.349 0.01952 0.97066 0.0
C636 C 0.4115 0.9685 0.00478 0.0
C637 C 0.32999 0.97956 0.94579 0.0
C638 C 0.34964 0.93386 0.95256 0.0
C639 C 0.40391 0.88145 0.99702 0.0
C640 C 0.43998 0.87563 0.03208 0.0
C641 C 0.38904 0.92773 0.98367 0.0
C642 C 0.46521 0.91596 0.04941 0.0
C643 C 0.45097 0.9622 0.03586 0.0
H644 H 0.90475 0.4563 0.97875 0.0
H645 H 0.81286 0.52221 0.08538 0.0
H646 H 0.84684 0.60146 0.06599 0.0
H647 H 0.89192 0.65259 0.0078 0.0
H648 H 0.98281 0.58523 0.9013 0.0
H649 H 0.95897 0.50607 0.93045 0.0
C650 C 0.89351 0.48765 -0.00098 0.0
C651 C 0.85633 0.48336 0.0332 0.0
C652 C 0.91261 0.53294 0.98712 0.0
C653 C 0.84142 0.52457 0.05872 0.0
C654 C 0.86062 0.56994 0.04744 0.0
C655 C 0.90878 0.62045 0.99325 0.0
C656 C 0.93971 0.62442 0.95316 0.0
C657 C 0.89492 0.57473 0.01036 0.0
C658 C 0.96015 0.58281 0.93313 0.0
C659 C 0.94624 0.53744 0.9496 0.0
H660 H 0.79734 0.64817 0.19454 0.0
H661 H 0.71228 0.55035 0.28102 0.0
H662 H 0.63958 0.59696 0.26396 0.0
H663 H 0.59881 0.65511 0.21106 0.0
H664 H 0.68333 0.75116 0.12275 0.0
H665 H 0.75764 0.71691 0.15535 0.0
C666 C 0.76305 0.63789 0.21059 0.0
C667 C 0.75974 0.59544 0.23798 0.0
C668 C 0.72136 0.66472 0.20048 0.0
C669 C 0.71549 0.58273 0.25939 0.0
C670 C 0.67386 0.60916 0.24941 0.0
C671 C 0.63361 0.67037 0.2012 0.0
C672 C 0.63591 0.70563 0.16496 0.0
C673 C 0.6761 0.64885 0.2182 0.0
C674 C 0.68091 0.72468 0.15142 0.0
C675 C 0.72342 0.70448 0.16934 0.0
H676 H 0.68243 0.47734 0.55684 0.0
H677 H 0.58752 0.57241 0.47906 0.0
H678 H 0.5373 0.50367 0.45469 0.0
H679 H 0.53152 0.41651 0.44118 0.0
H680 H 0.63018 0.32136 0.51385 0.0
H681 H 0.66762 0.39002 0.5552 0.0
C682 C 0.65004 0.48319 0.53561 0.0
C683 C 0.63892 0.52973 0.51896 0.0
C684 C 0.62278 0.44341 0.52 0.0
C685 C 0.59665 0.53684 0.49199 0.0
C686 C 0.56833 0.49761 0.47767 0.0
C687 C 0.55983 0.41089 0.46768 0.0
C688 C 0.57812 0.36441 0.47491 0.0
C689 C 0.58252 0.45064 0.48938 0.0
C690 C 0.61537 0.35708 0.50846 0.0
C691 C 0.6372 0.39633 0.53141 0.0
H692 H 0.19527 0.84882 0.17594 0.0
H693 H 0.27464 0.91552 0.2922 0.0
H694 H 0.34541 0.86681 0.27266 0.0
H695 H 0.38821 0.81609 0.21372 0.0
H696 H 0.30946 0.75314 0.09544 0.0
H697 H 0.23502 0.78922 0.12466 0.0
C698 C 0.22751 0.85145 0.19804 0.0
C699 C 0.22995 0.88603 0.23501 0.0
C700 C 0.26801 0.82332 0.18666 0.0
C701 C 0.27191 0.8892 0.26341 0.0
C702 C 0.31242 0.86133 0.25227 0.0
C703 C 0.35402 0.80746 0.19652 0.0
C704 C 0.35398 0.78158 0.15292 0.0
C705 C 0.31134 0.82931 0.21307 0.0
C706 C 0.3099 0.77178 0.12983 0.0
C707 C 0.26734 0.79292 0.14627 0.0
H708 H 0.10774 0.95075 0.5315 0.0
H709 H 0.19943 0.01417 0.42251 0.0
H710 H 0.16182 0.0925 0.43557 0.0
H711 H 0.11504 0.14539 0.48986 0.0
H712 H 0.02338 0.08208 0.59838 0.0
H713 H 0.04983 0.00176 0.57472 0.0
C714 C 0.11852 0.98141 0.50967 0.0
C715 C 0.1571 0.97694 0.477 0.0
C716 C 0.09725 0.02659 0.51787 0.0
C717 C 0.17022 0.01679 0.44841 0.0
C718 C 0.14899 0.06176 0.45609 0.0
C719 C 0.09871 0.11371 0.50615 0.0
C720 C 0.06678 0.11932 0.54518 0.0
C721 C 0.11416 0.0675 0.49235 0.0
C722 C 0.04685 0.07834 0.56727 0.0
C723 C 0.06231 0.03236 0.55403 0.0
H724 H 0.79852 0.33538 0.2852 0.0
H725 H 0.71535 0.41455 0.18057 0.0
H726 H 0.64164 0.37342 0.20712 0.0
H727 H 0.59971 0.32874 0.27269 0.0
H728 H 0.68427 0.25071 0.37696 0.0
H729 H 0.75824 0.27843 0.33885 0.0
C730 C 0.7646 0.34231 0.26702 0.0
C731 C 0.76224 0.37846 0.23171 0.0
C732 C 0.72243 0.31913 0.28294 0.0
C733 C 0.71803 0.38712 0.20826 0.0
C734 C 0.67578 0.36384 0.22366 0.0
C735 C 0.6344 0.31535 0.28493 0.0
C736 C 0.63679 0.28766 0.32735 0.0
C737 C 0.67724 0.33159 0.26268 0.0
C738 C 0.68178 0.27131 0.3438 0.0
C739 C 0.72422 0.28733 0.3221 0.0
H740 H 0.69133 0.63922 0.79076 0.0
H741 H 0.77569 0.54299 0.70229 0.0
H742 H 0.84886 0.58872 0.72095 0.0
H743 H 0.89024 0.64708 0.77399 0.0
H744 H 0.80618 0.74247 0.86306 0.0
H745 H 0.73176 0.7065 0.83211 0.0
C746 C 0.72556 0.6291 0.77461 0.0
C747 C 0.72832 0.58739 0.74595 0.0
C748 C 0.76759 0.65552 0.78553 0.0
C749 C 0.7727 0.57486 0.72472 0.0
C750 C 0.81466 0.60077 0.73564 0.0
C751 C 0.85545 0.66171 0.78445 0.0
C752 C 0.85341 0.69778 0.82001 0.0
C753 C 0.81276 0.64008 0.76743 0.0
C754 C 0.80839 0.71565 0.83468 0.0
C755 C 0.76581 0.69469 0.81746 0.0
H756 H 0.44012 0.81774 0.46878 0.0
H757 H 0.53689 0.90446 0.55446 0.0
H758 H 0.55927 0.95148 0.4838 0.0
H759 H 0.56246 0.95819 0.39652 0.0
H760 H 0.47764 0.86247 0.30818 0.0
H761 H 0.43744 0.83019 0.38034 0.0
C762 C 0.4651 0.84778 0.47206 0.0
C763 C 0.48608 0.85857 0.51715 0.0
C764 C 0.47963 0.87314 0.4305 0.0
C765 C 0.51898 0.89692 0.52071 0.0
C766 C 0.53225 0.92335 0.48012 0.0
C767 C 0.53352 0.93185 0.39316 0.0
C768 C 0.5223 0.9131 0.34755 0.0
C769 C 0.51399 0.91081 0.43471 0.0
C770 C 0.48595 0.87797 0.34313 0.0
C771 C 0.4638 0.8589 0.38442 0.0
H772 H 0.32131 0.27252 0.7936 0.0
H773 H 0.43543 0.20894 0.70904 0.0
H774 H 0.39507 0.23327 0.6347 0.0
H775 H 0.33616 0.28671 0.59549 0.0
H776 H 0.22319 0.35156 0.68 0.0
H777 H 0.25325 0.31128 0.75197 0.0
C778 C 0.33641 0.26271 0.75883 0.0
C779 C 0.38156 0.23992 0.75663 0.0
C780 C 0.31311 0.27692 0.71618 0.0
C781 C 0.40075 0.2268 0.71155 0.0
C782 C 0.37798 0.24111 0.66901 0.0
C783 C 0.31664 0.2897 0.62934 0.0
C784 C 0.27754 0.32159 0.63276 0.0
C785 C 0.33527 0.26805 0.67106 0.0
C786 C 0.25282 0.32631 0.67661 0.0
C787 C 0.27044 0.30387 0.718 0.0
H788 H 0.04675 0.19104 0.98218 0.0
H789 H 0.96399 0.10213 0.07958 0.0
H790 H 0.94056 0.04966 0.01294 0.0
H791 H 0.93167 0.03773 0.92646 0.0
H792 H 0.00675 0.13127 0.82768 0.0
H793 H 0.04681 0.17207 0.89531 0.0
C794 C 0.0251 0.15911 0.98911 0.0
C795 C 0.00696 0.15048 0.03578 0.0
C796 C 0.01044 0.12988 0.95032 0.0
C797 C 0.97886 0.10911 0.04419 0.0
C798 C 0.96525 0.07919 0.0061 0.0
C799 C 0.95861 0.06552 0.91991 0.0
C800 C 0.96707 0.0812 0.8726 0.0
C801 C 0.97922 0.09031 0.95889 0.0
C802 C 0.00077 0.11811 0.86402 0.0
C803 C 0.02286 0.14197 0.90268 0.0
H804 H 0.16429 0.73834 0.29772 0.0
H805 H 0.05916 0.82028 0.21752 0.0
H806 H 0.09442 0.79266 0.14172 0.0
H807 H 0.14337 0.73131 0.0998 0.0
H808 H 0.24869 0.64988 0.17963 0.0
H809 H 0.22486 0.69085 0.25381 0.0
C810 C 0.15014 0.75138 0.26365 0.0
C811 C 0.10838 0.78008 0.26314 0.0
C812 C 0.17006 0.73472 0.22017 0.0
C813 C 0.09088 0.79752 0.21884 0.0
C814 C 0.11071 0.78137 0.17544 0.0
C815 C 0.16238 0.72423 0.13329 0.0
C816 C 0.19774 0.68809 0.13471 0.0
C817 C 0.1485 0.74785 0.17583 0.0
C818 C 0.22192 0.67827 0.17795 0.0
C819 C 0.20814 0.7015 0.22042 0.0
H820 H 0.52177 0.09322 0.93575 0.0
H821 H 0.41824 0.18133 0.01146 0.0
H822 H 0.43774 0.1406 0.0871 0.0
H823 H 0.49626 0.09195 0.13351 0.0
H824 H 0.60146 0.00644 0.05774 0.0
H825 H 0.56973 0.03437 0.98054 0.0
C826 C 0.50251 0.10255 0.96855 0.0
C827 C 0.46957 0.14098 0.96833 0.0
C828 C 0.51481 0.07989 0.01205 0.0
C829 C 0.44428 0.15225 0.01087 0.0
C830 C 0.45571 0.12926 0.05424 0.0
C831 C 0.5105 0.07781 0.09988 0.0
C832 C 0.55061 0.04699 0.10082 0.0
C833 C 0.49262 0.09474 0.0556 0.0
C834 C 0.56994 0.02955 0.05745 0.0
C835 C 0.55205 0.04578 0.01335 0.0
H836 H 0.09458 0.23512 0.2629 0.0
H837 H 0.13091 0.35386 0.16888 0.0
H838 H 0.18853 0.3842 0.22792 0.0
H839 H 0.21625 0.38597 0.31116 0.0
H840 H 0.16914 0.27644 0.41061 0.0
H841 H 0.12998 0.23227 0.34465 0.0
C842 C 0.11605 0.26692 0.25494 0.0
C843 C 0.10853 0.2922 0.21157 0.0
C844 C 0.14752 0.28562 0.2902 0.0
C845 C 0.13603 0.33372 0.20199 0.0
C846 C 0.16903 0.35115 0.23575 0.0
C847 C 0.19956 0.35109 0.3177 0.0
C848 C 0.19545 0.33431 0.36529 0.0
C849 C 0.17377 0.32841 0.28057 0.0
C850 C 0.17313 0.28963 0.37401 0.0
C851 C 0.14968 0.2651 0.3365 0.0
H852 H 0.05701 0.8273 0.53072 0.0
H853 H 0.97627 0.92424 0.4407 0.0
H854 H 0.95241 0.97132 0.51092 0.0
H855 H 0.94051 0.97421 0.59794 0.0
H856 H 0.01183 0.87127 0.68933 0.0
H857 H 0.05483 0.83804 0.61937 0.0
C858 C 0.03553 0.85966 0.52645 0.0
C859 C 0.01825 0.8726 0.48045 0.0
C860 C 0.02003 0.88512 0.56758 0.0
C861 C 0.99034 0.91433 0.47552 0.0
C862 C 0.97626 0.9408 0.51578 0.0
C863 C 0.9671 0.94589 0.6026 0.0
C864 C 0.97367 0.92544 0.64831 0.0
C865 C 0.98888 0.9251 0.56203 0.0
C866 C 0.00712 0.88797 0.65431 0.0
C867 C 0.031 0.86856 0.61423 0.0
H868 H 0.42398 0.80309 0.78584 0.0
H869 H 0.32561 0.73367 0.68728 0.0
H870 H 0.27973 0.70047 0.75467 0.0
H871 H 0.27869 0.67723 0.83985 0.0
H872 H 0.37992 0.74201 0.93857 0.0
H873 H 0.41259 0.7924 0.87354 0.0
C874 C 0.39149 0.78213 0.77918 0.0
C875 C 0.37864 0.76986 0.73158 0.0
C876 C 0.36607 0.76205 0.8183 0.0
C877 C 0.33625 0.74317 0.7235 0.0
C878 C 0.31031 0.72381 0.76204 0.0
C879 C 0.30652 0.70389 0.8473 0.0
C880 C 0.32687 0.70638 0.89351 0.0
C881 C 0.32648 0.73086 0.80939 0.0
C882 C 0.36349 0.7402 0.9031 0.0
C883 C 0.38252 0.76846 0.86583 0.0
H884 H 0.55189 0.50665 0.91017 0.0
H885 H 0.47174 0.42287 0.80621 0.0
H886 H 0.3958 0.44714 0.84391 0.0
H887 H 0.35279 0.50627 0.89555 0.0
H888 H 0.43383 0.59011 -0.00139 0.0
H889 H 0.50828 0.55176 0.97211 0.0
C890 C 0.51788 0.49251 0.89678 0.0
C891 C 0.51739 0.46407 0.85487 0.0
C892 C 0.47432 0.50721 0.91813 0.0
C893 C 0.47311 0.44535 0.83818 0.0
C894 C 0.42956 0.45956 0.85946 0.0
C895 C 0.3866 0.5142 0.91375 0.0
C896 C 0.38809 0.55051 0.94914 0.0
C897 C 0.42971 0.4925 0.89792 0.0
C898 C 0.43197 0.56159 0.97189 0.0
C899 C 0.47467 0.54 0.95653 0.0
H900 H 0.72884 0.2834 0.17155 0.0
H901 H 0.81618 0.21194 0.06436 0.0
H902 H 0.79054 0.13353 0.09516 0.0
H903 H 0.7304 0.08682 0.1411 0.0
H904 H 0.641 0.1582 0.2461 0.0
H905 H 0.68115 0.23487 0.22882 0.0
C906 C 0.74346 0.25067 0.15605 0.0
C907 C 0.77357 0.2534 0.11525 0.0
C908 C 0.72786 0.20569 0.17339 0.0
C909 C 0.79265 0.21078 0.0956 0.0
C910 C 0.77766 0.16587 0.11291 0.0
C911 C 0.72151 0.11889 0.16169 0.0
C912 C 0.68318 0.11729 0.19482 0.0
C913 C 0.74355 0.16303 0.15025 0.0
C914 C 0.67097 0.15882 0.22092 0.0
C915 C 0.69347 0.20275 0.21052 0.0
H916 H 0.93948 0.4724 0.39146 0.0
H917 H 0.0043 0.56908 0.28788 0.0
H918 H 0.08193 0.56253 0.32884 0.0
H919 H 0.13408 0.51569 0.38334 0.0
H920 H 0.06952 0.41954 0.48702 0.0
H921 H 0.98948 0.43876 0.45622 0.0
C922 C 0.97027 0.49318 0.37884 0.0
C923 C 0.96656 0.5202 0.33617 0.0
C924 C 0.01496 0.48906 0.40239 0.0
C925 C 0.00642 0.54755 0.32043 0.0
C926 C 0.05096 0.54357 0.34359 0.0
C927 C 0.10212 0.50138 0.40104 0.0
C928 C 0.10728 0.4667 0.43751 0.0
C929 C 0.0561 0.51262 0.38319 0.0
C930 C 0.06605 0.4473 0.45973 0.0
C931 C 0.02021 0.45807 0.44194 0.0
H932 H 0.72077 0.78105 0.58375 0.0
H933 H 0.79406 0.67303 0.66797 0.0
H934 H 0.82384 0.73505 0.72296 0.0
H935 H 0.84187 0.81967 0.73761 0.0
H936 H 0.77448 0.92872 0.6504 0.0
H937 H 0.72795 0.86679 0.60737 0.0
C938 C 0.74206 0.77094 0.61499 0.0
C939 C 0.75577 0.72255 0.62155 0.0
C940 C 0.76021 0.80698 0.64589 0.0
C941 C 0.78315 0.70997 0.66224 0.0
C942 C 0.80028 0.74535 0.69364 0.0
C943 C 0.81525 0.82981 0.71071 0.0
C944 C 0.81125 0.87829 0.69712 0.0
C945 C 0.79082 0.79398 0.68462 0.0
C946 C 0.77746 0.89146 0.66175 0.0
C947 C 0.75166 0.85599 0.63654 0.0
H948 H 0.47713 0.54032 0.68506 0.0
H949 H 0.55891 0.4454 0.59329 0.0
H950 H 0.48779 0.43065 0.54349 0.0
H951 H 0.39995 0.43145 0.53647 0.0
H952 H 0.31544 0.51551 0.63586 0.0
H953 H 0.3894 0.54818 0.67223 0.0
C954 C 0.47965 0.51757 0.65331 0.0
C955 C 0.52348 0.49443 0.64231 0.0
C956 C 0.43768 0.50672 0.62679 0.0
C957 C 0.52601 0.46451 0.60156 0.0
C958 C 0.48515 0.45557 0.5735 0.0
C959 C 0.39799 0.4587 0.56455 0.0
C960 C 0.35278 0.47191 0.58304 0.0
C961 C 0.44045 0.47481 0.587 0.0
C962 C 0.35012 0.50585 0.62054 0.0
C963 C 0.39236 0.52374 0.64184 0.0
H964 H 0.71865 0.22738 0.9236 0.0
H965 H 0.81531 0.33073 0.85799 0.0
H966 H 0.84241 0.26985 0.8008 0.0
H967 H 0.84916 0.18578 0.77879 0.0
H968 H 0.76296 0.07938 0.85223 0.0
H969 H 0.71833 0.14323 0.89407 0.0
C970 C 0.74422 0.23706 0.89553 0.0
C971 C 0.7652 0.28342 0.89524 0.0
C972 C 0.76069 0.20149 0.86328 0.0
C973 C 0.79859 0.29537 0.85897 0.0
C974 C 0.81396 0.2607 0.82601 0.0
C975 C 0.8189 0.17688 0.80215 0.0
C976 C 0.80905 0.12832 0.81242 0.0
C977 C 0.7966 0.2134 0.82893 0.0
C978 C 0.77056 0.11668 0.84335 0.0
C979 C 0.74587 0.15319 0.86807 0.0
H980 H 0.94982 0.53112 0.08658 0.0
H981 H 0.015 0.42208 0.17585 0.0
H982 H 0.09433 0.44096 0.14175 0.0
H983 H 0.1462 0.49902 0.09744 0.0
H984 H 0.07988 0.60753 0.00853 0.0
H985 H -2e-05 0.57875 0.03179 0.0
C986 C 0.981 0.51027 0.0972 0.0
C987 C 0.97649 0.47557 0.13378 0.0
C988 C 0.02643 0.52177 0.07794 0.0
C989 C 0.01749 0.44919 0.14781 0.0
C990 C 0.06296 0.46017 0.12855 0.0
C991 C 0.11412 0.51432 0.08105 0.0
C992 C 0.11861 0.55474 0.05079 0.0
C993 C 0.06808 0.49773 0.09497 0.0
C994 C 0.07704 0.57556 0.03086 0.0
C995 C 0.03131 0.55945 0.0446 0.0
H996 H 0.78044 0.77258 0.41282 0.0
H997 H 0.70094 0.65897 0.34145 0.0
H998 H 0.66676 0.71742 0.2856 0.0
H999 H 0.64995 0.80042 0.26458 0.0
H1000 H 0.72168 0.91533 0.3408 0.0
H1001 H 0.77064 0.85659 0.38513 0.0
C1002 C 0.75714 0.76032 0.38378 0.0
C1003 C 0.74287 0.7116 0.38152 0.0
C1004 C 0.73686 0.79418 0.35199 0.0
C1005 C 0.71252 0.69623 0.3439 0.0
C1006 C 0.69318 0.72947 0.31165 0.0
C1007 C 0.67794 0.81243 0.28933 0.0
C1008 C 0.68277 0.86172 0.29933 0.0
C1009 C 0.7038 0.77854 0.31631 0.0
C1010 C 0.71815 0.87738 0.33213 0.0
C1011 C 0.74542 0.84378 0.35804 0.0
H1012 H 0.83863 0.48256 0.45352 0.0
H1013 H 0.90909 0.57954 0.55265 0.0
H1014 H 0.96257 0.51522 0.57927 0.0
H1015 H 0.97822 0.42917 0.58561 0.0
H1016 H 0.90259 0.32949 0.49335 0.0
H1017 H 0.86331 0.39682 0.45153 0.0
C1018 C 0.86672 0.48988 0.47985 0.0
C1019 C 0.87025 0.53591 0.50107 0.0
C1020 C 0.89612 0.45201 0.4964 0.0
C1021 C 0.90658 0.5448 0.53521 0.0
C1022 C 0.93673 0.50788 0.55084 0.0
C1023 C 0.95472 0.42251 0.55493 0.0
C1024 C 0.9435 0.37489 0.54206 0.0
C1025 C 0.93042 0.46103 0.53322 0.0
C1026 C 0.91228 0.36612 0.50308 0.0
C1027 C 0.88921 0.40455 0.47986 0.0
H1028 H 0.31607 0.02526 0.55849 0.0
H1029 H 0.42358 0.9386 0.48753 0.0
H1030 H 0.47001 0.01042 0.46727 0.0
H1031 H 0.47034 0.09731 0.45443 0.0
H1032 H 0.35613 0.18422 0.5134 0.0
H1033 H 0.32287 0.11374 0.55541 0.0
C1034 C 0.35062 0.02208 0.54028 0.0
C1035 C 0.36642 0.97667 0.52411 0.0
C1036 C 0.37582 0.064 0.52661 0.0
C1037 C 0.41097 0.97305 0.50031 0.0
C1038 C 0.43725 0.01422 0.48835 0.0
C1039 C 0.43951 0.10102 0.47838 0.0
C1040 C 0.41582 0.14548 0.48142 0.0
C1041 C 0.41882 0.05989 0.49926 0.0
C1042 C 0.37516 0.1502 0.51132 0.0
C1043 C 0.35588 0.10981 0.53475 0.0
H1044 H 0.25759 0.1055 0.77162 0.0
H1045 H 0.3473 0.13073 0.64663 0.0
H1046 H 0.28785 0.18634 0.61434 0.0
H1047 H 0.20571 0.21767 0.6153 0.0
H1048 H 0.11104 0.18312 0.73356 0.0
H1049 H 0.17799 0.14495 0.77677 0.0
C1050 C 0.26484 0.12455 0.7382 0.0
C1051 C 0.30655 0.11358 0.71133 0.0
C1052 C 0.22989 0.15603 0.71923 0.0
C1053 C 0.31533 0.13821 0.66789 0.0
C1054 C 0.28128 0.17007 0.64931 0.0
C1055 C 0.20051 0.20369 0.65153 0.0
C1056 C 0.15391 0.20354 0.67161 0.0
C1057 C 0.23791 0.17819 0.67395 0.0
C1058 C 0.14692 0.1844 0.71793 0.0
C1059 C 0.18499 0.1617 0.74212 0.0
H1060 H 0.15358 0.98804 0.0434 0.0
H1061 H 0.10287 0.08531 0.93321 0.0
H1062 H 0.05135 0.02256 0.90009 0.0
H1063 H 0.0303 0.93765 0.89442 0.0
H1064 H 0.08586 0.83726 -0.00124 0.0
H1065 H 0.12393 0.90365 0.04361 0.0
C1066 C 0.12992 0.99585 0.01321 0.0
C1067 C 0.13171 0.04145 0.99103 0.0
C1068 C 0.10092 0.959 0.99347 0.0
C1069 C 0.1013 0.05095 0.95164 0.0
C1070 C 0.07199 0.01495 0.93239 0.0
C1071 C 0.04905 0.93079 0.92814 0.0
C1072 C 0.05503 0.88318 0.9438 0.0
C1073 C 0.07262 0.96859 0.95205 0.0
C1074 C 0.08022 0.874 0.98678 0.0
C1075 C 0.10264 0.91181 0.01183 0.0
H1076 H 0.77934 0.40729 0.78843 0.0
H1077 H 0.68343 0.32157 0.70088 0.0
H1078 H 0.75126 0.27333 0.67239 0.0
H1079 H 0.83836 0.26666 0.65992 0.0
H1080 H 0.93544 0.35822 0.73976 0.0
H1081 H 0.86725 0.39246 0.78452 0.0
C1082 C 0.77319 0.37715 0.76421 0.0
C1083 C 0.7263 0.36766 0.74689 0.0
C1084 C 0.81286 0.35115 0.74607 0.0
C1085 C 0.71899 0.32887 0.71519 0.0
C1086 C 0.75785 0.30163 0.69854 0.0
C1087 C 0.84457 0.29236 0.68885 0.0
C1088 C 0.89158 0.30955 0.69717 0.0
C1089 C 0.80506 0.31376 0.71215 0.0
C1090 C 0.89949 0.34387 0.73362 0.0
C1091 C 0.86041 0.36416 0.75838 0.0
H1092 H 0.65937 0.49347 0.95553 0.0
H1093 H 0.61102 0.42147 0.08497 0.0
H1094 H 0.55778 0.48857 0.10348 0.0
H1095 H 0.53795 0.57316 0.09199 0.0
H1096 H 0.59607 0.65067 0.97054 0.0
H1097 H 0.63143 0.57605 0.93883 0.0
C1098 C 0.63611 0.49194 0.98702 0.0
C1099 C 0.63888 0.45242 0.0187 0.0
C1100 C 0.60754 0.53196 -0.00105 0.0
C1101 C 0.60894 0.45107 0.05959 0.0
C1102 C 0.57878 0.48964 0.07047 0.0
C1103 C 0.55645 0.57298 0.05742 0.0
C1104 C 0.5639 0.61662 0.03302 0.0
C1105 C 0.5794 0.53099 0.04159 0.0
C1106 C 0.58912 0.61697 0.98909 0.0
C1107 C 0.61008 0.57456 0.9716 0.0
H1108 H 0.2905 0.83765 0.77348 0.0
H1109 H 0.22104 0.93439 0.67353 0.0
H1110 H 0.14234 0.89938 0.69339 0.0
H1111 H 0.09269 0.85281 0.75146 0.0
H1112 H 0.16264 0.75655 0.85107 0.0
H1113 H 0.24138 0.78054 0.82004 0.0
C1114 C 0.25831 0.85019 0.75509 0.0
C1115 C 0.26147 0.88921 0.7229 0.0
C1116 C 0.21313 0.83042 0.76723 0.0
C1117 C 0.21952 0.90472 0.69891 0.0
C1118 C 0.17442 0.88492 0.71046 0.0
C1119 C 0.12517 0.83504 0.76416 0.0
C1120 C 0.12208 0.80249 0.80293 0.0
C1121 C 0.17061 0.84928 0.7462 0.0
C1122 C 0.16427 0.78068 0.82034 0.0
C1123 C 0.20944 0.79481 0.80293 0.0
H1124 H 0.28538 0.07777 0.21793 0.0
H1125 H 0.17303 0.16609 0.27942 0.0
H1126 H 0.23401 0.2206 0.31302 0.0
H1127 H 0.31707 0.23203 0.34024 0.0
H1128 H 0.42949 0.14085 0.28439 0.0
H1129 H 0.37084 0.09905 0.23275 0.0
C1130 C 0.27422 0.10979 0.23742 0.0
C1131 C 0.22492 0.11741 0.24711 0.0
C1132 C 0.30937 0.14 0.25838 0.0
C1133 C 0.21085 0.1591 0.27219 0.0
C1134 C 0.24553 0.19017 0.29157 0.0
C1135 C 0.32885 0.20442 0.31511 0.0
C1136 C 0.3772 0.18951 0.31566 0.0
C1137 C 0.29468 0.17941 0.28723 0.0
C1138 C 0.39238 0.15319 0.28383 0.0
C1139 C 0.35873 0.12887 0.25492 0.0
loop_
_geom_bond_atom_site_label_1
_geom_bond_atom_site_label_2
_geom_bond_distance
_geom_bond_site_symmetry_2
_ccdc_geom_bond_type
In0 O1 2.294 . S
In0 O2 2.326 . S
In0 O6 2.266 . S
In0 O7 2.326 1_455 S
In0 O8 2.266 1_455 S
In0 O9 2.326 . S
In0 O11 2.294 1_455 S
In0 O12 2.326 1_455 S
O1 In0 2.294 . S
O1 C10 1.240 . S
O2 In0 2.326 . S
O2 C10 1.252 . S
C3 O6 1.252 1_655 S
C3 O7 1.260 . S
C4 O11 1.240 . S
C4 O12 1.252 . S
C5 O8 1.252 1_455 S
C5 O9 1.260 . S
O6 In0 2.266 . S
O6 C3 1.252 1_455 S
O7 In0 2.326 1_655 S
O7 C3 1.260 . S
O8 In0 2.266 1_655 S
O8 C5 1.252 1_655 S
O9 In0 2.326 . S
O9 C5 1.260 . S
C10 O1 1.240 . S
C10 O2 1.252 . S
O11 In0 2.294 1_655 S
O11 C4 1.240 . S
O12 In0 2.326 1_655 S
O12 C4 1.252 . S
In13 O14 2.293 1_455 S
In13 O15 2.329 . S
In13 O19 2.262 1_455 S
In13 O20 2.324 1_455 S
In13 O21 2.270 . S
In13 O22 2.327 . S
In13 O24 2.295 . S
In13 O25 2.324 1_455 S
O14 In13 2.293 1_655 S
O14 C23 1.240 1_655 S
O15 In13 2.329 . S
O15 C23 1.252 . S
C16 O19 1.252 . S
C16 O20 1.260 . S
C17 O24 1.240 1_655 S
C17 O25 1.252 . S
C18 O21 1.252 . S
C18 O22 1.260 . S
O19 In13 2.262 1_655 S
O19 C16 1.252 . S
O20 In13 2.324 1_655 S
O20 C16 1.260 . S
O21 In13 2.270 . S
O21 C18 1.252 . S
O22 In13 2.327 . S
O22 C18 1.260 . S
C23 O14 1.240 1_455 S
C23 O15 1.252 . S
O24 In13 2.295 . S
O24 C17 1.240 1_455 S
O25 In13 2.324 1_655 S
O25 C17 1.252 . S
In26 O27 2.294 . S
In26 O28 2.326 . S
In26 O32 2.266 . S
In26 O33 2.326 . S
In26 O34 2.266 . S
In26 O35 2.326 . S
In26 O37 2.294 . S
In26 O38 2.326 . S
O27 In26 2.294 . S
O27 C36 1.240 . S
O28 In26 2.326 . S
O28 C36 1.252 . S
C29 O32 1.252 . S
C29 O33 1.260 . S
C30 O37 1.240 . S
C30 O38 1.252 . S
C31 O34 1.252 . S
C31 O35 1.260 . S
O32 In26 2.266 . S
O32 C29 1.252 . S
O33 In26 2.326 . S
O33 C29 1.260 . S
O34 In26 2.266 . S
O34 C31 1.252 . S
O35 In26 2.326 . S
O35 C31 1.260 . S
C36 O27 1.240 . S
C36 O28 1.252 . S
O37 In26 2.294 . S
O37 C30 1.240 . S
O38 In26 2.326 . S
O38 C30 1.252 . S
In39 O40 2.294 . S
In39 O41 2.326 . S
In39 O45 2.266 . S
In39 O46 2.326 . S
In39 O47 2.266 . S
In39 O48 2.326 . S
In39 O50 2.294 . S
In39 O51 2.326 . S
O40 In39 2.294 . S
O40 C49 1.240 . S
O41 In39 2.326 . S
O41 C49 1.252 . S
C42 O45 1.252 . S
C42 O46 1.260 . S
C43 O50 1.240 . S
C43 O51 1.252 . S
C44 O47 1.252 . S
C44 O48 1.260 . S
O45 In39 2.266 . S
O45 C42 1.252 . S
O46 In39 2.326 . S
O46 C42 1.260 . S
O47 In39 2.266 . S
O47 C44 1.252 . S
O48 In39 2.326 . S
O48 C44 1.260 . S
C49 O40 1.240 . S
C49 O41 1.252 . S
O50 In39 2.294 . S
O50 C43 1.240 . S
O51 In39 2.326 . S
O51 C43 1.252 . S
In52 O53 2.294 1_545 S
In52 O54 2.326 1_545 S
In52 O58 2.266 1_545 S
In52 O59 2.326 . S
In52 O60 2.266 . S
In52 O61 2.326 1_545 S
In52 O63 2.294 . S
In52 O64 2.326 . S
O53 In52 2.294 1_565 S
O53 C62 1.240 . S
O54 In52 2.326 1_565 S
O54 C62 1.252 . S
C55 O58 1.252 1_545 S
C55 O59 1.260 . S
C56 O63 1.240 . S
C56 O64 1.252 . S
C57 O60 1.252 1_565 S
C57 O61 1.260 . S
O58 In52 2.266 1_565 S
O58 C55 1.252 1_565 S
O59 In52 2.326 . S
O59 C55 1.260 . S
O60 In52 2.266 . S
O60 C57 1.252 1_545 S
O61 In52 2.326 1_565 S
O61 C57 1.260 . S
C62 O53 1.240 . S
C62 O54 1.252 . S
O63 In52 2.294 . S
O63 C56 1.240 . S
O64 In52 2.326 . S
O64 C56 1.252 . S
In65 O66 2.294 . S
In65 O67 2.326 . S
In65 O71 2.266 . S
In65 O72 2.326 . S
In65 O73 2.266 . S
In65 O74 2.326 . S
In65 O76 2.294 . S
In65 O77 2.326 . S
O66 In65 2.294 . S
O66 C75 1.240 . S
O67 In65 2.326 . S
O67 C75 1.252 . S
C68 O71 1.252 . S
C68 O72 1.260 . S
C69 O76 1.240 . S
C69 O77 1.252 . S
C70 O73 1.252 . S
C70 O74 1.260 . S
O71 In65 2.266 . S
O71 C68 1.252 . S
O72 In65 2.326 . S
O72 C68 1.260 . S
O73 In65 2.266 . S
O73 C70 1.252 . S
O74 In65 2.326 . S
O74 C70 1.260 . S
C75 O66 1.240 . S
C75 O67 1.252 . S
O76 In65 2.294 . S
O76 C69 1.240 . S
O77 In65 2.326 . S
O77 C69 1.252 . S
In78 O79 2.288 1_545 S
In78 O80 2.323 1_545 S
In78 O84 2.264 1_545 S
In78 O85 2.330 . S
In78 O86 2.268 . S
In78 O87 2.321 1_545 S
In78 O89 2.300 . S
In78 O90 2.329 . S
O79 In78 2.288 1_565 S
O79 C88 1.240 . S
O80 In78 2.323 1_565 S
O80 C88 1.252 . S
C81 O84 1.252 1_545 S
C81 O85 1.260 . S
C82 O89 1.240 . S
C82 O90 1.252 . S
C83 O86 1.252 1_565 S
C83 O87 1.260 . S
O84 In78 2.264 1_565 S
O84 C81 1.252 1_565 S
O85 In78 2.330 . S
O85 C81 1.260 . S
O86 In78 2.268 . S
O86 C83 1.252 1_545 S
O87 In78 2.321 1_565 S
O87 C83 1.260 . S
C88 O79 1.240 . S
C88 O80 1.252 . S
O89 In78 2.300 . S
O89 C82 1.240 . S
O90 In78 2.329 . S
O90 C82 1.252 . S
In91 O92 2.294 . S
In91 O93 2.326 . S
In91 O97 2.266 . S
In91 O98 2.326 1_554 S
In91 O99 2.266 1_554 S
In91 O100 2.326 . S
In91 O102 2.294 1_554 S
In91 O103 2.326 1_554 S
O92 In91 2.294 . S
O92 C101 1.240 . S
O93 In91 2.326 . S
O93 C101 1.252 . S
C94 O97 1.252 1_556 S
C94 O98 1.260 . S
C95 O102 1.240 . S
C95 O103 1.252 . S
C96 O99 1.252 1_554 S
C96 O100 1.260 . S
O97 In91 2.266 . S
O97 C94 1.252 1_554 S
O98 In91 2.326 1_556 S
O98 C94 1.260 . S
O99 In91 2.266 1_556 S
O99 C96 1.252 1_556 S
O100 In91 2.326 . S
O100 C96 1.260 . S
C101 O92 1.240 . S
C101 O93 1.252 . S
O102 In91 2.294 1_556 S
O102 C95 1.240 . S
O103 In91 2.326 1_556 S
O103 C95 1.252 . S
In104 O105 2.296 . S
In104 O106 2.327 . S
In104 O110 2.267 . S
In104 O111 2.324 1_554 S
In104 O112 2.265 1_554 S
In104 O113 2.327 . S
In104 O115 2.292 1_554 S
In104 O116 2.325 1_554 S
O105 In104 2.296 . S
O105 C114 1.240 . S
O106 In104 2.327 . S
O106 C114 1.252 . S
C107 O110 1.252 1_556 S
C107 O111 1.260 . S
C108 O115 1.240 . S
C108 O116 1.252 . S
C109 O112 1.252 1_554 S
C109 O113 1.260 . S
O110 In104 2.267 . S
O110 C107 1.252 1_554 S
O111 In104 2.324 1_556 S
O111 C107 1.260 . S
O112 In104 2.265 1_556 S
O112 C109 1.252 1_556 S
O113 In104 2.327 . S
O113 C109 1.260 . S
C114 O105 1.240 . S
C114 O106 1.252 . S
O115 In104 2.292 1_556 S
O115 C108 1.240 . S
O116 In104 2.325 1_556 S
O116 C108 1.252 . S
In117 O118 2.294 . S
In117 O119 2.326 . S
In117 O123 2.266 . S
In117 O124 2.326 . S
In117 O125 2.266 . S
In117 O126 2.326 . S
In117 O128 2.294 . S
In117 O129 2.326 . S
O118 In117 2.294 . S
O118 C127 1.240 . S
O119 In117 2.326 . S
O119 C127 1.252 . S
C120 O123 1.252 . S
C120 O124 1.260 . S
C121 O128 1.240 . S
C121 O129 1.252 . S
C122 O125 1.252 . S
C122 O126 1.260 . S
O123 In117 2.266 . S
O123 C120 1.252 . S
O124 In117 2.326 . S
O124 C120 1.260 . S
O125 In117 2.266 . S
O125 C122 1.252 . S
O126 In117 2.326 . S
O126 C122 1.260 . S
C127 O118 1.240 . S
C127 O119 1.252 . S
O128 In117 2.294 . S
O128 C121 1.240 . S
O129 In117 2.326 . S
O129 C121 1.252 . S
In130 O131 2.294 . S
In130 O132 2.326 . S
In130 O136 2.266 . S
In130 O137 2.326 . S
In130 O138 2.266 . S
In130 O139 2.326 . S
In130 O141 2.294 . S
In130 O142 2.326 . S
O131 In130 2.294 . S
O131 C140 1.240 . S
O132 In130 2.326 . S
O132 C140 1.252 . S
C133 O136 1.252 . S
C133 O137 1.260 . S
C134 O141 1.240 . S
C134 O142 1.252 . S
C135 O138 1.252 . S
C135 O139 1.260 . S
O136 In130 2.266 . S
O136 C133 1.252 . S
O137 In130 2.326 . S
O137 C133 1.260 . S
O138 In130 2.266 . S
O138 C135 1.252 . S
O139 In130 2.326 . S
O139 C135 1.260 . S
C140 O131 1.240 . S
C140 O132 1.252 . S
O141 In130 2.294 . S
O141 C134 1.240 . S
O142 In130 2.326 . S
O142 C134 1.252 . S
In143 O144 2.294 . S
In143 O145 2.326 . S
In143 O149 2.266 . S
In143 O150 2.326 . S
In143 O151 2.266 . S
In143 O152 2.326 . S
In143 O154 2.294 . S
In143 O155 2.326 . S
O144 In143 2.294 . S
O144 C153 1.240 . S
O145 In143 2.326 . S
O145 C153 1.252 . S
C146 O149 1.252 . S
C146 O150 1.260 . S
C147 O154 1.240 . S
C147 O155 1.252 . S
C148 O151 1.252 . S
C148 O152 1.260 . S
O149 In143 2.266 . S
O149 C146 1.252 . S
O150 In143 2.326 . S
O150 C146 1.260 . S
O151 In143 2.266 . S
O151 C148 1.252 . S
O152 In143 2.326 . S
O152 C148 1.260 . S
C153 O144 1.240 . S
C153 O145 1.252 . S
O154 In143 2.294 . S
O154 C147 1.240 . S
O155 In143 2.326 . S
O155 C147 1.252 . S
H156 C162 0.930 . S
H157 C165 0.931 . S
H158 C167 0.931 . S
H159 C169 0.930 . S
H160 C171 0.930 . S
H161 C173 0.931 . S
C162 H156 0.930 . S
C162 C163 1.380 . S
C162 C164 1.394 . S
C163 C162 1.380 . S
C163 C167 1.382 . S
C164 C162 1.394 . S
C164 C165 1.400 . S
C165 H157 0.931 . S
C165 C164 1.400 . S
C165 C166 1.375 . S
C166 C165 1.375 . S
C166 C167 1.415 . S
C166 C168 1.501 1_655 S
C167 H158 0.931 . S
C167 C163 1.382 . S
C167 C166 1.415 . S
C168 C166 1.501 1_455 S
C168 C169 1.384 . S
C168 C173 1.408 . S
C169 H159 0.930 . S
C169 C168 1.384 . S
C169 C170 1.389 . S
C170 C169 1.389 . S
C170 C171 1.405 . S
C171 H160 0.930 . S
C171 C170 1.405 . S
C171 C172 1.364 . S
C172 C171 1.364 . S
C172 C173 1.400 . S
C173 H161 0.931 . S
C173 C168 1.408 . S
C173 C172 1.400 . S
H174 C180 0.930 . S
H175 C183 0.931 . S
H176 C185 0.931 . S
H177 C187 0.930 . S
H178 C189 0.930 . S
H179 C191 0.931 . S
C180 H174 0.930 . S
C180 C181 1.380 . S
C180 C182 1.394 . S
C181 C180 1.380 . S
C181 C185 1.382 . S
C182 C180 1.394 . S
C182 C183 1.400 . S
C183 H175 0.931 . S
C183 C182 1.400 . S
C183 C184 1.375 . S
C184 C183 1.375 . S
C184 C185 1.415 . S
C184 C186 1.501 1_655 S
C185 H176 0.931 . S
C185 C181 1.382 . S
C185 C184 1.415 . S
C186 C184 1.501 1_455 S
C186 C187 1.384 . S
C186 C191 1.408 . S
C187 H177 0.930 . S
C187 C186 1.384 . S
C187 C188 1.389 . S
C188 C187 1.389 . S
C188 C189 1.405 . S
C189 H178 0.930 . S
C189 C188 1.405 . S
C189 C190 1.364 . S
C190 C189 1.364 . S
C190 C191 1.400 . S
C191 H179 0.931 . S
C191 C186 1.408 . S
C191 C190 1.400 . S
H192 C198 0.930 . S
H193 C201 0.931 . S
H194 C203 0.931 . S
H195 C205 0.930 . S
H196 C207 0.930 . S
H197 C209 0.931 . S
C198 H192 0.930 . S
C198 C199 1.380 . S
C198 C200 1.394 . S
C199 C198 1.380 . S
C199 C203 1.382 . S
C200 C198 1.394 . S
C200 C201 1.400 . S
C201 H193 0.931 . S
C201 C200 1.400 . S
C201 C202 1.375 . S
C202 C201 1.375 . S
C202 C203 1.415 . S
C202 C204 1.501 . S
C203 H194 0.931 . S
C203 C199 1.382 . S
C203 C202 1.415 . S
C204 C202 1.501 . S
C204 C205 1.384 . S
C204 C209 1.408 . S
C205 H195 0.930 . S
C205 C204 1.384 . S
C205 C206 1.389 . S
C206 C205 1.389 . S
C206 C207 1.405 . S
C207 H196 0.930 . S
C207 C206 1.405 . S
C207 C208 1.364 . S
C208 C207 1.364 . S
C208 C209 1.400 . S
C209 H197 0.931 . S
C209 C204 1.408 . S
C209 C208 1.400 . S
H210 C216 0.930 . S
H211 C219 0.931 . S
H212 C221 0.931 . S
H213 C223 0.930 . S
H214 C225 0.930 . S
H215 C227 0.931 . S
C216 H210 0.930 . S
C216 C217 1.380 . S
C216 C218 1.394 . S
C217 C216 1.380 . S
C217 C221 1.382 . S
C218 C216 1.394 . S
C218 C219 1.400 . S
C219 H211 0.931 . S
C219 C218 1.400 . S
C219 C220 1.375 . S
C220 C219 1.375 . S
C220 C221 1.415 . S
C220 C222 1.501 . S
C221 H212 0.931 . S
C221 C217 1.382 . S
C221 C220 1.415 . S
C222 C220 1.501 . S
C222 C223 1.384 . S
C222 C227 1.408 . S
C223 H213 0.930 . S
C223 C222 1.384 . S
C223 C224 1.389 . S
C224 C223 1.389 . S
C224 C225 1.405 . S
C225 H214 0.930 . S
C225 C224 1.405 . S
C225 C226 1.364 . S
C226 C225 1.364 . S
C226 C227 1.400 . S
C227 H215 0.931 . S
C227 C222 1.408 . S
C227 C226 1.400 . S
H228 C234 0.930 . S
H229 C237 0.931 . S
H230 C239 0.931 . S
H231 C241 0.930 . S
H232 C243 0.930 . S
H233 C245 0.931 . S
C234 H228 0.930 . S
C234 C235 1.380 . S
C234 C236 1.394 . S
C235 C234 1.380 . S
C235 C239 1.382 . S
C236 C234 1.394 . S
C236 C237 1.400 . S
C237 H229 0.931 . S
C237 C236 1.400 . S
C237 C238 1.375 . S
C238 C237 1.375 . S
C238 C239 1.415 . S
C238 C240 1.501 1_565 S
C239 H230 0.931 . S
C239 C235 1.382 . S
C239 C238 1.415 . S
C240 C238 1.501 1_545 S
C240 C241 1.384 . S
C240 C245 1.408 . S
C241 H231 0.930 . S
C241 C240 1.384 . S
C241 C242 1.389 . S
C242 C241 1.389 . S
C242 C243 1.405 . S
C243 H232 0.930 . S
C243 C242 1.405 . S
C243 C244 1.364 . S
C244 C243 1.364 . S
C244 C245 1.400 . S
C245 H233 0.931 . S
C245 C240 1.408 . S
C245 C244 1.400 . S
H246 C252 0.930 . S
H247 C255 0.931 . S
H248 C257 0.931 . S
H249 C259 0.930 . S
H250 C261 0.930 . S
H251 C263 0.931 . S
C252 H246 0.930 . S
C252 C253 1.380 . S
C252 C254 1.394 . S
C253 C252 1.380 . S
C253 C257 1.382 . S
C254 C252 1.394 . S
C254 C255 1.400 . S
C255 H247 0.931 . S
C255 C254 1.400 . S
C255 C256 1.375 . S
C256 C255 1.375 . S
C256 C257 1.415 . S
C256 C258 1.501 . S
C257 H248 0.931 . S
C257 C253 1.382 . S
C257 C256 1.415 . S
C258 C256 1.501 . S
C258 C259 1.384 . S
C258 C263 1.408 . S
C259 H249 0.930 . S
C259 C258 1.384 . S
C259 C260 1.389 . S
C260 C259 1.389 . S
C260 C261 1.405 . S
C261 H250 0.930 . S
C261 C260 1.405 . S
C261 C262 1.364 . S
C262 C261 1.364 . S
C262 C263 1.400 . S
C263 H251 0.931 . S
C263 C258 1.408 . S
C263 C262 1.400 . S
H264 C270 0.930 . S
H265 C273 0.931 . S
H266 C275 0.931 . S
H267 C277 0.930 . S
H268 C279 0.930 . S
H269 C281 0.931 . S
C270 H264 0.930 . S
C270 C271 1.380 . S
C270 C272 1.394 . S
C271 C270 1.380 . S
C271 C275 1.382 . S
C272 C270 1.394 . S
C272 C273 1.400 . S
C273 H265 0.931 . S
C273 C272 1.400 . S
C273 C274 1.375 . S
C274 C273 1.375 . S
C274 C275 1.415 . S
C274 C276 1.501 1_545 S
C275 H266 0.931 . S
C275 C271 1.382 . S
C275 C274 1.415 . S
C276 C274 1.501 1_565 S
C276 C277 1.384 . S
C276 C281 1.408 . S
C277 H267 0.930 . S
C277 C276 1.384 . S
C277 C278 1.389 . S
C278 C277 1.389 . S
C278 C279 1.405 . S
C279 H268 0.930 . S
C279 C278 1.405 . S
C279 C280 1.364 . S
C280 C279 1.364 . S
C280 C281 1.400 . S
C281 H269 0.931 . S
C281 C276 1.408 . S
C281 C280 1.400 . S
H282 C288 0.930 . S
H283 C291 0.931 . S
H284 C293 0.931 . S
H285 C295 0.930 . S
H286 C297 0.930 . S
H287 C299 0.931 . S
C288 H282 0.930 . S
C288 C289 1.380 . S
C288 C290 1.394 . S
C289 C288 1.380 . S
C289 C293 1.382 . S
C290 C288 1.394 . S
C290 C291 1.400 . S
C291 H283 0.931 . S
C291 C290 1.400 . S
C291 C292 1.375 . S
C292 C291 1.375 . S
C292 C293 1.415 . S
C292 C294 1.501 1_556 S
C293 H284 0.931 . S
C293 C289 1.382 . S
C293 C292 1.415 . S
C294 C292 1.501 1_554 S
C294 C295 1.384 . S
C294 C299 1.408 . S
C295 H285 0.930 . S
C295 C294 1.384 . S
C295 C296 1.389 . S
C296 C295 1.389 . S
C296 C297 1.405 . S
C297 H286 0.930 . S
C297 C296 1.405 . S
C297 C298 1.364 . S
C298 C297 1.364 . S
C298 C299 1.400 . S
C299 H287 0.931 . S
C299 C294 1.408 . S
C299 C298 1.400 . S
H300 C306 0.930 . S
H301 C309 0.931 . S
H302 C311 0.931 . S
H303 C313 0.930 . S
H304 C315 0.930 . S
H305 C317 0.931 . S
C306 H300 0.930 . S
C306 C307 1.380 . S
C306 C308 1.394 . S
C307 C306 1.380 . S
C307 C311 1.382 . S
C308 C306 1.394 . S
C308 C309 1.400 . S
C309 H301 0.931 . S
C309 C308 1.400 . S
C309 C310 1.375 . S
C310 C309 1.375 . S
C310 C311 1.415 . S
C310 C312 1.501 1_556 S
C311 H302 0.931 . S
C311 C307 1.382 . S
C311 C310 1.415 . S
C312 C310 1.501 1_554 S
C312 C313 1.384 . S
C312 C317 1.408 . S
C313 H303 0.930 . S
C313 C312 1.384 . S
C313 C314 1.389 . S
C314 C313 1.389 . S
C314 C315 1.405 . S
C315 H304 0.930 . S
C315 C314 1.405 . S
C315 C316 1.364 . S
C316 C315 1.364 . S
C316 C317 1.400 . S
C317 H305 0.931 . S
C317 C312 1.408 . S
C317 C316 1.400 . S
H318 C324 0.930 . S
H319 C327 0.931 . S
H320 C329 0.931 . S
H321 C331 0.930 . S
H322 C333 0.930 . S
H323 C335 0.931 . S
C324 H318 0.930 . S
C324 C325 1.380 . S
C324 C326 1.394 . S
C325 C324 1.380 . S
C325 C329 1.382 . S
C326 C324 1.394 . S
C326 C327 1.400 . S
C327 H319 0.931 . S
C327 C326 1.400 . S
C327 C328 1.375 . S
C328 C327 1.375 . S
C328 C329 1.415 . S
C328 C330 1.501 . S
C329 H320 0.931 . S
C329 C325 1.382 . S
C329 C328 1.415 . S
C330 C328 1.501 . S
C330 C331 1.384 . S
C330 C335 1.408 . S
C331 H321 0.930 . S
C331 C330 1.384 . S
C331 C332 1.389 . S
C332 C331 1.389 . S
C332 C333 1.405 . S
C333 H322 0.930 . S
C333 C332 1.405 . S
C333 C334 1.364 . S
C334 C333 1.364 . S
C334 C335 1.400 . S
C335 H323 0.931 . S
C335 C330 1.408 . S
C335 C334 1.400 . S
H336 C342 0.930 . S
H337 C345 0.931 . S
H338 C347 0.931 . S
H339 C349 0.930 . S
H340 C351 0.930 . S
H341 C353 0.931 . S
C342 H336 0.930 . S
C342 C343 1.380 . S
C342 C344 1.394 . S
C343 C342 1.380 . S
C343 C347 1.382 . S
C344 C342 1.394 . S
C344 C345 1.400 . S
C345 H337 0.931 . S
C345 C344 1.400 . S
C345 C346 1.375 . S
C346 C345 1.375 . S
C346 C347 1.415 . S
C346 C348 1.501 . S
C347 H338 0.931 . S
C347 C343 1.382 . S
C347 C346 1.415 . S
C348 C346 1.501 . S
C348 C349 1.384 . S
C348 C353 1.408 . S
C349 H339 0.930 . S
C349 C348 1.384 . S
C349 C350 1.389 . S
C350 C349 1.389 . S
C350 C351 1.405 . S
C351 H340 0.930 . S
C351 C350 1.405 . S
C351 C352 1.364 . S
C352 C351 1.364 . S
C352 C353 1.400 . S
C353 H341 0.931 . S
C353 C348 1.408 . S
C353 C352 1.400 . S
H354 C360 0.930 . S
H355 C363 0.931 . S
H356 C365 0.931 . S
H357 C367 0.930 . S
H358 C369 0.930 . S
H359 C371 0.931 . S
C360 H354 0.930 . S
C360 C361 1.380 . S
C360 C362 1.394 . S
C361 C360 1.380 . S
C361 C365 1.382 . S
C362 C360 1.394 . S
C362 C363 1.400 . S
C363 H355 0.931 . S
C363 C362 1.400 . S
C363 C364 1.375 . S
C364 C363 1.375 . S
C364 C365 1.415 . S
C364 C366 1.501 . S
C365 H356 0.931 . S
C365 C361 1.382 . S
C365 C364 1.415 . S
C366 C364 1.501 . S
C366 C367 1.384 . S
C366 C371 1.408 . S
C367 H357 0.930 . S
C367 C366 1.384 . S
C367 C368 1.389 . S
C368 C367 1.389 . S
C368 C369 1.405 . S
C369 H358 0.930 . S
C369 C368 1.405 . S
C369 C370 1.364 . S
C370 C369 1.364 . S
C370 C371 1.400 . S
C371 H359 0.931 . S
C371 C366 1.408 . S
C371 C370 1.400 . S
H372 C378 0.930 . S
H373 C381 0.930 . S
H374 C382 0.930 . S
H375 C383 0.929 . S
H376 C386 0.930 . S
H377 C387 0.930 . S
C378 H372 0.930 . S
C378 C379 1.355 . S
C378 C380 1.415 1_554 S
C379 C378 1.355 . S
C379 C381 1.419 1_454 S
C380 C378 1.415 1_556 S
C380 C385 1.425 . S
C380 C387 1.409 . S
C381 H373 0.930 . S
C381 C379 1.419 1_656 S
C381 C382 1.362 . S
C382 H374 0.930 . S
C382 C381 1.362 . S
C382 C385 1.409 1_655 S
C383 H375 0.929 . S
C383 C384 1.355 . S
C383 C385 1.415 . S
C384 C383 1.355 . S
C384 C386 1.419 . S
C385 C380 1.425 . S
C385 C382 1.409 1_455 S
C385 C383 1.415 . S
C386 H376 0.930 . S
C386 C384 1.419 . S
C386 C387 1.362 . S
C387 H377 0.930 . S
C387 C380 1.409 . S
C387 C386 1.362 . S
H388 C394 0.930 . S
H389 C397 0.930 . S
H390 C398 0.930 . S
H391 C399 0.930 . S
H392 C402 0.930 . S
H393 C403 0.930 . S
C394 H388 0.930 . S
C394 C395 1.355 . S
C394 C396 1.415 . S
C395 C394 1.355 . S
C395 C397 1.419 . S
C396 C394 1.415 . S
C396 C401 1.425 . S
C396 C403 1.409 . S
C397 H389 0.930 . S
C397 C395 1.419 . S
C397 C398 1.362 . S
C398 H390 0.930 . S
C398 C397 1.362 . S
C398 C401 1.409 . S
C399 H391 0.930 . S
C399 C400 1.355 . S
C399 C401 1.415 . S
C400 C399 1.355 . S
C400 C402 1.419 . S
C401 C396 1.425 . S
C401 C398 1.409 . S
C401 C399 1.415 . S
C402 H392 0.930 . S
C402 C400 1.419 . S
C402 C403 1.362 . S
C403 H393 0.930 . S
C403 C396 1.409 . S
C403 C402 1.362 . S
H404 C410 0.930 . S
H405 C413 0.930 . S
H406 C414 0.930 . S
H407 C415 0.930 . S
H408 C418 0.930 . S
H409 C419 0.930 . S
C410 H404 0.930 . S
C410 C411 1.355 . S
C410 C412 1.415 . S
C411 C410 1.355 . S
C411 C413 1.419 . S
C412 C410 1.415 . S
C412 C417 1.425 . S
C412 C419 1.409 . S
C413 H405 0.930 . S
C413 C411 1.419 . S
C413 C414 1.362 . S
C414 H406 0.930 . S
C414 C413 1.362 . S
C414 C417 1.409 . S
C415 H407 0.930 . S
C415 C416 1.355 . S
C415 C417 1.415 . S
C416 C415 1.355 . S
C416 C418 1.419 . S
C417 C412 1.425 . S
C417 C414 1.409 . S
C417 C415 1.415 . S
C418 H408 0.930 . S
C418 C416 1.419 . S
C418 C419 1.362 . S
C419 H409 0.930 . S
C419 C412 1.409 . S
C419 C418 1.362 . S
H420 C426 0.930 . S
H421 C429 0.930 . S
H422 C430 0.930 . S
H423 C431 0.930 . S
H424 C434 0.930 . S
H425 C435 0.930 . S
C426 H420 0.930 . S
C426 C427 1.355 . S
C426 C428 1.415 . S
C427 C426 1.355 . S
C427 C429 1.419 . S
C428 C426 1.415 . S
C428 C433 1.425 . S
C428 C435 1.409 . S
C429 H421 0.930 . S
C429 C427 1.419 . S
C429 C430 1.362 . S
C430 H422 0.930 . S
C430 C429 1.362 . S
C430 C433 1.409 . S
C431 H423 0.930 . S
C431 C432 1.355 . S
C431 C433 1.415 . S
C432 C431 1.355 . S
C432 C434 1.419 . S
C433 C428 1.425 . S
C433 C430 1.409 . S
C433 C431 1.415 . S
C434 H424 0.930 . S
C434 C432 1.419 . S
C434 C435 1.362 . S
C435 H425 0.930 . S
C435 C428 1.409 . S
C435 C434 1.362 . S
H436 C442 0.930 . S
H437 C445 0.930 . S
H438 C446 0.930 . S
H439 C447 0.930 . S
H440 C450 0.930 . S
H441 C451 0.930 . S
C442 H436 0.930 . S
C442 C443 1.355 . S
C442 C444 1.415 . S
C443 C442 1.355 . S
C443 C445 1.419 . S
C444 C442 1.415 . S
C444 C449 1.425 . S
C444 C451 1.409 . S
C445 H437 0.930 . S
C445 C443 1.419 . S
C445 C446 1.362 . S
C446 H438 0.930 . S
C446 C445 1.362 . S
C446 C449 1.409 . S
C447 H439 0.930 . S
C447 C448 1.355 . S
C447 C449 1.415 . S
C448 C447 1.355 . S
C448 C450 1.419 . S
C449 C444 1.425 . S
C449 C446 1.409 . S
C449 C447 1.415 . S
C450 H440 0.930 . S
C450 C448 1.419 . S
C450 C451 1.362 . S
C451 H441 0.930 . S
C451 C444 1.409 . S
C451 C450 1.362 . S
H452 C458 0.930 . S
H453 C461 0.930 . S
H454 C462 0.930 . S
H455 C463 0.930 . S
H456 C466 0.930 . S
H457 C467 0.930 . S
C458 H452 0.930 . S
C458 C459 1.355 . S
C458 C460 1.415 . S
C459 C458 1.355 . S
C459 C461 1.419 . S
C460 C458 1.415 . S
C460 C465 1.425 . S
C460 C467 1.409 . S
C461 H453 0.930 . S
C461 C459 1.419 . S
C461 C462 1.362 . S
C462 H454 0.930 . S
C462 C461 1.362 . S
C462 C465 1.409 . S
C463 H455 0.930 . S
C463 C464 1.355 . S
C463 C465 1.415 . S
C464 C463 1.355 . S
C464 C466 1.419 . S
C465 C460 1.425 . S
C465 C462 1.409 . S
C465 C463 1.415 . S
C466 H456 0.930 . S
C466 C464 1.419 . S
C466 C467 1.362 . S
C467 H457 0.930 . S
C467 C460 1.409 . S
C467 C466 1.362 . S
H468 C474 0.930 1_556 S
H469 C477 0.936 . S
H470 C478 0.930 . S
H471 C479 0.930 . S
H472 C482 0.930 . S
H473 C483 0.930 . S
C474 H468 0.930 1_554 S
C474 C475 1.355 1_554 S
C474 C476 1.415 . S
C475 C474 1.355 1_556 S
C475 C477 1.423 . S
C476 C474 1.415 . S
C476 C481 1.425 . S
C476 C483 1.409 . S
C477 H469 0.936 . S
C477 C475 1.423 . S
C477 C478 1.352 1_556 S
C478 H470 0.930 . S
C478 C477 1.352 1_554 S
C478 C481 1.409 . S
C479 H471 0.930 . S
C479 C480 1.355 . S
C479 C481 1.415 . S
C480 C479 1.355 . S
C480 C482 1.419 . S
C481 C476 1.425 . S
C481 C478 1.409 . S
C481 C479 1.415 . S
C482 H472 0.930 . S
C482 C480 1.419 . S
C482 C483 1.362 . S
C483 H473 0.930 . S
C483 C476 1.409 . S
C483 C482 1.362 . S
H484 C490 0.930 . S
H485 C493 0.930 . S
H486 C494 0.930 . S
H487 C495 0.930 . S
H488 C498 0.930 . S
H489 C499 0.930 . S
C490 H484 0.930 . S
C490 C491 1.355 . S
C490 C492 1.415 . S
C491 C490 1.355 . S
C491 C493 1.419 . S
C492 C490 1.415 . S
C492 C497 1.425 . S
C492 C499 1.409 . S
C493 H485 0.930 . S
C493 C491 1.419 . S
C493 C494 1.362 . S
C494 H486 0.930 . S
C494 C493 1.362 . S
C494 C497 1.409 . S
C495 H487 0.930 . S
C495 C496 1.355 . S
C495 C497 1.415 . S
C496 C495 1.355 . S
C496 C498 1.419 . S
C497 C492 1.425 . S
C497 C494 1.409 . S
C497 C495 1.415 . S
C498 H488 0.930 . S
C498 C496 1.419 . S
C498 C499 1.362 . S
C499 H489 0.930 . S
C499 C492 1.409 . S
C499 C498 1.362 . S
H500 C506 0.930 . S
H501 C509 0.930 . S
H502 C510 0.930 . S
H503 C511 0.930 . S
H504 C514 0.930 . S
H505 C515 0.930 . S
C506 H500 0.930 . S
C506 C507 1.355 . S
C506 C508 1.415 1_455 S
C507 C506 1.355 . S
C507 C509 1.419 1_455 S
C508 C506 1.415 1_655 S
C508 C513 1.425 . S
C508 C515 1.409 . S
C509 H501 0.930 . S
C509 C507 1.419 1_655 S
C509 C510 1.362 . S
C510 H502 0.930 . S
C510 C509 1.362 . S
C510 C513 1.409 . S
C511 H503 0.930 . S
C511 C512 1.355 . S
C511 C513 1.415 . S
C512 C511 1.355 . S
C512 C514 1.419 . S
C513 C508 1.425 . S
C513 C510 1.409 . S
C513 C511 1.415 . S
C514 H504 0.930 . S
C514 C512 1.419 . S
C514 C515 1.362 . S
C515 H505 0.930 . S
C515 C508 1.409 . S
C515 C514 1.362 . S
H516 C522 0.930 . S
H517 C525 0.930 . S
H518 C526 0.930 . S
H519 C527 0.930 . S
H520 C530 0.930 . S
H521 C531 0.930 . S
C522 H516 0.930 . S
C522 C523 1.355 . S
C522 C524 1.415 . S
C523 C522 1.355 . S
C523 C525 1.419 . S
C524 C522 1.415 . S
C524 C529 1.425 . S
C524 C531 1.409 . S
C525 H517 0.930 . S
C525 C523 1.419 . S
C525 C526 1.362 . S
C526 H518 0.930 . S
C526 C525 1.362 . S
C526 C529 1.409 . S
C527 H519 0.930 . S
C527 C528 1.355 . S
C527 C529 1.415 . S
C528 C527 1.355 . S
C528 C530 1.419 . S
C529 C524 1.425 . S
C529 C526 1.409 . S
C529 C527 1.415 . S
C530 H520 0.930 . S
C530 C528 1.419 . S
C530 C531 1.362 . S
C531 H521 0.930 . S
C531 C524 1.409 . S
C531 C530 1.362 . S
H532 C538 0.930 . S
H533 C541 0.930 . S
H534 C542 0.930 . S
H535 C543 0.930 . S
H536 C546 0.930 . S
H537 C547 0.930 . S
C538 H532 0.930 . S
C538 C539 1.355 . S
C538 C540 1.415 . S
C539 C538 1.355 . S
C539 C541 1.419 . S
C540 C538 1.415 . S
C540 C545 1.425 . S
C540 C547 1.409 . S
C541 H533 0.930 . S
C541 C539 1.419 . S
C541 C542 1.362 . S
C542 H534 0.930 . S
C542 C541 1.362 . S
C542 C545 1.409 . S
C543 H535 0.930 . S
C543 C544 1.355 . S
C543 C545 1.415 . S
C544 C543 1.355 . S
C544 C546 1.419 . S
C545 C540 1.425 . S
C545 C542 1.409 . S
C545 C543 1.415 . S
C546 H536 0.930 . S
C546 C544 1.419 . S
C546 C547 1.362 . S
C547 H537 0.930 . S
C547 C540 1.409 . S
C547 C546 1.362 . S
H548 C554 0.930 . S
H549 C557 0.930 . S
H550 C558 0.930 . S
H551 C559 0.930 . S
H552 C562 0.930 . S
H553 C563 0.930 . S
C554 H548 0.930 . S
C554 C555 1.355 . S
C554 C556 1.415 . S
C555 C554 1.355 . S
C555 C557 1.419 . S
C556 C554 1.415 . S
C556 C561 1.425 . S
C556 C563 1.409 . S
C557 H549 0.930 . S
C557 C555 1.419 . S
C557 C558 1.362 . S
C558 H550 0.930 . S
C558 C557 1.362 . S
C558 C561 1.409 . S
C559 H551 0.930 . S
C559 C560 1.355 . S
C559 C561 1.415 . S
C560 C559 1.355 . S
C560 C562 1.419 . S
C561 C556 1.425 . S
C561 C558 1.409 . S
C561 C559 1.415 . S
C562 H552 0.930 . S
C562 C560 1.419 . S
C562 C563 1.362 . S
C563 H553 0.930 . S
C563 C556 1.409 . S
C563 C562 1.362 . S
H564 C570 0.930 1_455 S
H565 C573 0.930 . S
H566 C574 0.930 . S
H567 C575 0.930 1_545 S
H568 C578 0.930 . S
H569 C579 0.930 . S
C570 H564 0.930 1_655 S
C570 C571 1.355 1_655 S
C570 C572 1.415 . S
C571 C570 1.355 1_455 S
C571 C573 1.419 1_565 S
C572 C570 1.415 . S
C572 C577 1.425 . S
C572 C579 1.409 . S
C573 H565 0.930 . S
C573 C571 1.419 1_545 S
C573 C574 1.362 1_455 S
C574 H566 0.930 . S
C574 C573 1.362 1_655 S
C574 C577 1.409 1_545 S
C575 H567 0.930 1_565 S
C575 C576 1.355 . S
C575 C577 1.415 . S
C576 C575 1.355 . S
C576 C578 1.419 . S
C577 C572 1.425 . S
C577 C574 1.409 1_565 S
C577 C575 1.415 . S
C578 H568 0.930 . S
C578 C576 1.419 . S
C578 C579 1.362 . S
C579 H569 0.930 . S
C579 C572 1.409 . S
C579 C578 1.362 . S
H580 C586 0.930 . S
H581 C589 0.930 . S
H582 C590 0.930 . S
H583 C591 0.930 . S
H584 C594 0.930 . S
H585 C595 0.930 . S
C586 H580 0.930 . S
C586 C587 1.355 . S
C586 C588 1.415 . S
C587 C586 1.355 . S
C587 C589 1.419 . S
C588 C586 1.415 . S
C588 C593 1.425 . S
C588 C595 1.409 . S
C589 H581 0.930 . S
C589 C587 1.419 . S
C589 C590 1.362 . S
C590 H582 0.930 . S
C590 C589 1.362 . S
C590 C593 1.409 . S
C591 H583 0.930 . S
C591 C592 1.355 . S
C591 C593 1.415 . S
C592 C591 1.355 . S
C592 C594 1.419 . S
C593 C588 1.425 . S
C593 C590 1.409 . S
C593 C591 1.415 . S
C594 H584 0.930 . S
C594 C592 1.419 . S
C594 C595 1.362 . S
C595 H585 0.930 . S
C595 C588 1.409 . S
C595 C594 1.362 . S
H596 C602 0.930 . S
H597 C605 0.930 . S
H598 C606 0.930 . S
H599 C607 0.930 . S
H600 C610 0.930 . S
H601 C611 0.930 . S
C602 H596 0.930 . S
C602 C603 1.355 . S
C602 C604 1.415 . S
C603 C602 1.355 . S
C603 C605 1.419 1_545 S
C604 C602 1.415 . S
C604 C609 1.425 . S
C604 C611 1.409 . S
C605 H597 0.930 . S
C605 C603 1.419 1_565 S
C605 C606 1.362 . S
C606 H598 0.930 . S
C606 C605 1.362 . S
C606 C609 1.409 1_565 S
C607 H599 0.930 . S
C607 C608 1.355 . S
C607 C609 1.415 . S
C608 C607 1.355 . S
C608 C610 1.419 . S
C609 C604 1.425 . S
C609 C606 1.409 1_545 S
C609 C607 1.415 . S
C610 H600 0.930 . S
C610 C608 1.419 . S
C610 C611 1.362 . S
C611 H601 0.930 . S
C611 C604 1.409 . S
C611 C610 1.362 . S
H612 C618 0.930 . S
H613 C621 0.930 . S
H614 C622 0.930 . S
H615 C623 0.930 . S
H616 C626 0.930 . S
H617 C627 0.930 . S
C618 H612 0.930 . S
C618 C619 1.355 . S
C618 C620 1.415 . S
C619 C618 1.355 . S
C619 C621 1.419 . S
C620 C618 1.415 . S
C620 C625 1.425 . S
C620 C627 1.409 . S
C621 H613 0.930 . S
C621 C619 1.419 . S
C621 C622 1.362 . S
C622 H614 0.930 . S
C622 C621 1.362 . S
C622 C625 1.409 . S
C623 H615 0.930 . S
C623 C624 1.355 . S
C623 C625 1.415 . S
C624 C623 1.355 . S
C624 C626 1.419 . S
C625 C620 1.425 . S
C625 C622 1.409 . S
C625 C623 1.415 . S
C626 H616 0.930 . S
C626 C624 1.419 . S
C626 C627 1.362 . S
C627 H617 0.930 . S
C627 C620 1.409 . S
C627 C626 1.362 . S
H628 C634 0.930 . S
H629 C637 0.930 . S
H630 C638 0.930 . S
H631 C639 0.930 . S
H632 C642 0.930 . S
H633 C643 0.930 . S
C634 H628 0.930 . S
C634 C635 1.355 . S
C634 C636 1.415 1_545 S
C635 C634 1.355 . S
C635 C637 1.419 1_545 S
C636 C634 1.415 1_565 S
C636 C641 1.425 . S
C636 C643 1.409 . S
C637 H629 0.930 . S
C637 C635 1.419 1_565 S
C637 C638 1.362 . S
C638 H630 0.930 . S
C638 C637 1.362 . S
C638 C641 1.409 . S
C639 H631 0.930 . S
C639 C640 1.355 . S
C639 C641 1.415 . S
C640 C639 1.355 . S
C640 C642 1.419 . S
C641 C636 1.425 . S
C641 C638 1.409 . S
C641 C639 1.415 . S
C642 H632 0.930 . S
C642 C640 1.419 . S
C642 C643 1.362 . S
C643 H633 0.930 . S
C643 C636 1.409 . S
C643 C642 1.362 . S
H644 C650 0.930 . S
H645 C653 0.930 1_554 S
H646 C654 0.930 . S
H647 C655 0.930 . S
H648 C658 0.930 . S
H649 C659 0.930 . S
C650 H644 0.930 . S
C650 C651 1.355 . S
C650 C652 1.415 . S
C651 C650 1.355 . S
C651 C653 1.419 . S
C652 C650 1.415 . S
C652 C657 1.425 . S
C652 C659 1.409 . S
C653 H645 0.930 1_556 S
C653 C651 1.419 . S
C653 C654 1.362 . S
C654 H646 0.930 . S
C654 C653 1.362 . S
C654 C657 1.409 . S
C655 H647 0.930 . S
C655 C656 1.355 . S
C655 C657 1.415 . S
C656 C655 1.355 . S
C656 C658 1.419 . S
C657 C652 1.425 . S
C657 C654 1.409 . S
C657 C655 1.415 . S
C658 H648 0.930 . S
C658 C656 1.419 . S
C658 C659 1.362 . S
C659 H649 0.930 . S
C659 C652 1.409 . S
C659 C658 1.362 . S
H660 C666 0.930 . S
H661 C669 0.930 . S
H662 C670 0.930 . S
H663 C671 0.930 . S
H664 C674 0.930 . S
H665 C675 0.930 . S
C666 H660 0.930 . S
C666 C667 1.355 . S
C666 C668 1.415 . S
C667 C666 1.355 . S
C667 C669 1.419 . S
C668 C666 1.415 . S
C668 C673 1.425 . S
C668 C675 1.409 . S
C669 H661 0.930 . S
C669 C667 1.419 . S
C669 C670 1.362 . S
C670 H662 0.930 . S
C670 C669 1.362 . S
C670 C673 1.409 . S
C671 H663 0.930 . S
C671 C672 1.355 . S
C671 C673 1.415 . S
C672 C671 1.355 . S
C672 C674 1.419 . S
C673 C668 1.425 . S
C673 C670 1.409 . S
C673 C671 1.415 . S
C674 H664 0.930 . S
C674 C672 1.419 . S
C674 C675 1.362 . S
C675 H665 0.930 . S
C675 C668 1.409 . S
C675 C674 1.362 . S
H676 C682 0.930 . S
H677 C685 0.930 . S
H678 C686 0.930 . S
H679 C687 0.930 . S
H680 C690 0.930 . S
H681 C691 0.930 . S
C682 H676 0.930 . S
C682 C683 1.355 . S
C682 C684 1.415 . S
C683 C682 1.355 . S
C683 C685 1.419 . S
C684 C682 1.415 . S
C684 C689 1.425 . S
C684 C691 1.409 . S
C685 H677 0.930 . S
C685 C683 1.419 . S
C685 C686 1.362 . S
C686 H678 0.930 . S
C686 C685 1.362 . S
C686 C689 1.409 . S
C687 H679 0.930 . S
C687 C688 1.355 . S
C687 C689 1.415 . S
C688 C687 1.355 . S
C688 C690 1.419 . S
C689 C684 1.425 . S
C689 C686 1.409 . S
C689 C687 1.415 . S
C690 H680 0.930 . S
C690 C688 1.419 . S
C690 C691 1.362 . S
C691 H681 0.930 . S
C691 C684 1.409 . S
C691 C690 1.362 . S
H692 C698 0.930 . S
H693 C701 0.930 . S
H694 C702 0.930 . S
H695 C703 0.930 . S
H696 C706 0.930 . S
H697 C707 0.930 . S
C698 H692 0.930 . S
C698 C699 1.355 . S
C698 C700 1.415 . S
C699 C698 1.355 . S
C699 C701 1.419 . S
C700 C698 1.415 . S
C700 C705 1.425 . S
C700 C707 1.409 . S
C701 H693 0.930 . S
C701 C699 1.419 . S
C701 C702 1.362 . S
C702 H694 0.930 . S
C702 C701 1.362 . S
C702 C705 1.409 . S
C703 H695 0.930 . S
C703 C704 1.355 . S
C703 C705 1.415 . S
C704 C703 1.355 . S
C704 C706 1.419 . S
C705 C700 1.425 . S
C705 C702 1.409 . S
C705 C703 1.415 . S
C706 H696 0.930 . S
C706 C704 1.419 . S
C706 C707 1.362 . S
C707 H697 0.930 . S
C707 C700 1.409 . S
C707 C706 1.362 . S
H708 C714 0.930 . S
H709 C717 0.930 . S
H710 C718 0.930 . S
H711 C719 0.930 . S
H712 C722 0.930 . S
H713 C723 0.930 . S
C714 H708 0.930 . S
C714 C715 1.355 . S
C714 C716 1.415 1_565 S
C715 C714 1.355 . S
C715 C717 1.419 1_565 S
C716 C714 1.415 1_545 S
C716 C721 1.425 . S
C716 C723 1.409 . S
C717 H709 0.930 . S
C717 C715 1.419 1_545 S
C717 C718 1.362 . S
C718 H710 0.930 . S
C718 C717 1.362 . S
C718 C721 1.409 . S
C719 H711 0.930 . S
C719 C720 1.355 . S
C719 C721 1.415 . S
C720 C719 1.355 . S
C720 C722 1.419 . S
C721 C716 1.425 . S
C721 C718 1.409 . S
C721 C719 1.415 . S
C722 H712 0.930 . S
C722 C720 1.419 . S
C722 C723 1.362 . S
C723 H713 0.930 . S
C723 C716 1.409 . S
C723 C722 1.362 . S
H724 C730 0.930 . S
H725 C733 0.930 . S
H726 C734 0.930 . S
H727 C735 0.930 . S
H728 C738 0.930 . S
H729 C739 0.930 . S
C730 H724 0.930 . S
C730 C731 1.355 . S
C730 C732 1.415 . S
C731 C730 1.355 . S
C731 C733 1.419 . S
C732 C730 1.415 . S
C732 C737 1.425 . S
C732 C739 1.409 . S
C733 H725 0.930 . S
C733 C731 1.419 . S
C733 C734 1.362 . S
C734 H726 0.930 . S
C734 C733 1.362 . S
C734 C737 1.409 . S
C735 H727 0.930 . S
C735 C736 1.355 . S
C735 C737 1.415 . S
C736 C735 1.355 . S
C736 C738 1.419 . S
C737 C732 1.425 . S
C737 C734 1.409 . S
C737 C735 1.415 . S
C738 H728 0.930 . S
C738 C736 1.419 . S
C738 C739 1.362 . S
C739 H729 0.930 . S
C739 C732 1.409 . S
C739 C738 1.362 . S
H740 C746 0.930 . S
H741 C749 0.930 . S
H742 C750 0.930 . S
H743 C751 0.930 . S
H744 C754 0.930 . S
H745 C755 0.930 . S
C746 H740 0.930 . S
C746 C747 1.355 . S
C746 C748 1.415 . S
C747 C746 1.355 . S
C747 C749 1.419 . S
C748 C746 1.415 . S
C748 C753 1.425 . S
C748 C755 1.409 . S
C749 H741 0.930 . S
C749 C747 1.419 . S
C749 C750 1.362 . S
C750 H742 0.930 . S
C750 C749 1.362 . S
C750 C753 1.409 . S
C751 H743 0.930 . S
C751 C752 1.355 . S
C751 C753 1.415 . S
C752 C751 1.355 . S
C752 C754 1.419 . S
C753 C748 1.425 . S
C753 C750 1.409 . S
C753 C751 1.415 . S
C754 H744 0.930 . S
C754 C752 1.419 . S
C754 C755 1.362 . S
C755 H745 0.930 . S
C755 C748 1.409 . S
C755 C754 1.362 . S
H756 C762 0.930 . S
H757 C765 0.930 . S
H758 C766 0.930 . S
H759 C767 0.930 . S
H760 C770 0.930 . S
H761 C771 0.930 . S
C762 H756 0.930 . S
C762 C763 1.355 . S
C762 C764 1.415 . S
C763 C762 1.355 . S
C763 C765 1.419 . S
C764 C762 1.415 . S
C764 C769 1.425 . S
C764 C771 1.409 . S
C765 H757 0.930 . S
C765 C763 1.419 . S
C765 C766 1.362 . S
C766 H758 0.930 . S
C766 C765 1.362 . S
C766 C769 1.409 . S
C767 H759 0.930 . S
C767 C768 1.355 . S
C767 C769 1.415 . S
C768 C767 1.355 . S
C768 C770 1.419 . S
C769 C764 1.425 . S
C769 C766 1.409 . S
C769 C767 1.415 . S
C770 H760 0.930 . S
C770 C768 1.419 . S
C770 C771 1.362 . S
C771 H761 0.930 . S
C771 C764 1.409 . S
C771 C770 1.362 . S
H772 C778 0.930 . S
H773 C781 0.930 . S
H774 C782 0.930 . S
H775 C783 0.930 . S
H776 C786 0.930 . S
H777 C787 0.930 . S
C778 H772 0.930 . S
C778 C779 1.355 . S
C778 C780 1.415 . S
C779 C778 1.355 . S
C779 C781 1.419 . S
C780 C778 1.415 . S
C780 C785 1.425 . S
C780 C787 1.409 . S
C781 H773 0.930 . S
C781 C779 1.419 . S
C781 C782 1.362 . S
C782 H774 0.930 . S
C782 C781 1.362 . S
C782 C785 1.409 . S
C783 H775 0.930 . S
C783 C784 1.355 . S
C783 C785 1.415 . S
C784 C783 1.355 . S
C784 C786 1.419 . S
C785 C780 1.425 . S
C785 C782 1.409 . S
C785 C783 1.415 . S
C786 H776 0.930 . S
C786 C784 1.419 . S
C786 C787 1.362 . S
C787 H777 0.930 . S
C787 C780 1.409 . S
C787 C786 1.362 . S
H788 C794 0.930 . S
H789 C797 0.930 . S
H790 C798 0.930 . S
H791 C799 0.930 . S
H792 C802 0.930 . S
H793 C803 0.930 . S
C794 H788 0.930 . S
C794 C795 1.355 1_456 S
C794 C796 1.415 1_455 S
C795 C794 1.355 1_654 S
C795 C797 1.419 . S
C796 C794 1.415 1_655 S
C796 C801 1.425 . S
C796 C803 1.409 1_655 S
C797 H789 0.930 . S
C797 C795 1.419 . S
C797 C798 1.362 1_554 S
C798 H790 0.930 . S
C798 C797 1.362 1_556 S
C798 C801 1.409 . S
C799 H791 0.930 . S
C799 C800 1.355 . S
C799 C801 1.415 . S
C800 C799 1.355 . S
C800 C802 1.419 1_655 S
C801 C796 1.425 . S
C801 C798 1.409 . S
C801 C799 1.415 . S
C802 H792 0.930 . S
C802 C800 1.419 1_455 S
C802 C803 1.362 . S
C803 H793 0.930 . S
C803 C796 1.409 1_455 S
C803 C802 1.362 . S
H804 C810 0.930 . S
H805 C813 0.930 . S
H806 C814 0.930 . S
H807 C815 0.930 . S
H808 C818 0.930 . S
H809 C819 0.930 . S
C810 H804 0.930 . S
C810 C811 1.355 . S
C810 C812 1.415 . S
C811 C810 1.355 . S
C811 C813 1.419 . S
C812 C810 1.415 . S
C812 C817 1.425 . S
C812 C819 1.409 . S
C813 H805 0.930 . S
C813 C811 1.419 . S
C813 C814 1.362 . S
C814 H806 0.930 . S
C814 C813 1.362 . S
C814 C817 1.409 . S
C815 H807 0.930 . S
C815 C816 1.355 . S
C815 C817 1.415 . S
C816 C815 1.355 . S
C816 C818 1.419 . S
C817 C812 1.425 . S
C817 C814 1.409 . S
C817 C815 1.415 . S
C818 H808 0.930 . S
C818 C816 1.419 . S
C818 C819 1.362 . S
C819 H809 0.930 . S
C819 C812 1.409 . S
C819 C818 1.362 . S
H820 C826 0.930 1_556 S
H821 C829 0.923 1_556 S
H822 C830 0.930 . S
H823 C831 0.930 . S
H824 C834 0.930 . S
H825 C835 0.930 . S
C826 H820 0.930 1_554 S
C826 C827 1.355 1_554 S
C826 C828 1.415 . S
C827 C826 1.355 1_556 S
C827 C829 1.419 1_556 S
C828 C826 1.415 . S
C828 C833 1.425 . S
C828 C835 1.409 . S
C829 H821 0.923 1_554 S
C829 C827 1.419 1_554 S
C829 C830 1.362 . S
C830 H822 0.930 . S
C830 C829 1.362 . S
C830 C833 1.409 . S
C831 H823 0.930 . S
C831 C832 1.355 . S
C831 C833 1.415 . S
C832 C831 1.355 . S
C832 C834 1.419 . S
C833 C828 1.425 . S
C833 C830 1.409 . S
C833 C831 1.415 . S
C834 H824 0.930 . S
C834 C832 1.419 . S
C834 C835 1.362 . S
C835 H825 0.930 . S
C835 C828 1.409 . S
C835 C834 1.362 . S
H836 C842 0.930 . S
H837 C845 0.930 . S
H838 C846 0.930 . S
H839 C847 0.930 . S
H840 C850 0.930 . S
H841 C851 0.930 . S
C842 H836 0.930 . S
C842 C843 1.355 . S
C842 C844 1.415 . S
C843 C842 1.355 . S
C843 C845 1.419 . S
C844 C842 1.415 . S
C844 C849 1.425 . S
C844 C851 1.409 . S
C845 H837 0.930 . S
C845 C843 1.419 . S
C845 C846 1.362 . S
C846 H838 0.930 . S
C846 C845 1.362 . S
C846 C849 1.409 . S
C847 H839 0.930 . S
C847 C848 1.355 . S
C847 C849 1.415 . S
C848 C847 1.355 . S
C848 C850 1.419 . S
C849 C844 1.425 . S
C849 C846 1.409 . S
C849 C847 1.415 . S
C850 H840 0.930 . S
C850 C848 1.419 . S
C850 C851 1.362 . S
C851 H841 0.930 . S
C851 C844 1.409 . S
C851 C850 1.362 . S
H852 C858 0.930 . S
H853 C861 0.930 . S
H854 C862 0.930 . S
H855 C863 0.930 . S
H856 C866 0.930 . S
H857 C867 0.930 . S
C858 H852 0.930 . S
C858 C859 1.355 . S
C858 C860 1.415 . S
C859 C858 1.355 . S
C859 C861 1.419 1_655 S
C860 C858 1.415 . S
C860 C865 1.425 . S
C860 C867 1.409 . S
C861 H853 0.930 . S
C861 C859 1.419 1_455 S
C861 C862 1.362 . S
C862 H854 0.930 . S
C862 C861 1.362 . S
C862 C865 1.409 1_455 S
C863 H855 0.930 . S
C863 C864 1.355 . S
C863 C865 1.415 . S
C864 C863 1.355 . S
C864 C866 1.419 . S
C865 C860 1.425 . S
C865 C862 1.409 1_655 S
C865 C863 1.415 . S
C866 H856 0.930 . S
C866 C864 1.419 . S
C866 C867 1.362 . S
C867 H857 0.930 . S
C867 C860 1.409 . S
C867 C866 1.362 . S
H868 C874 0.930 . S
H869 C877 0.930 . S
H870 C878 0.930 . S
H871 C879 0.930 . S
H872 C882 0.930 . S
H873 C883 0.930 . S
C874 H868 0.930 . S
C874 C875 1.355 . S
C874 C876 1.415 . S
C875 C874 1.355 . S
C875 C877 1.419 . S
C876 C874 1.415 . S
C876 C881 1.425 . S
C876 C883 1.409 . S
C877 H869 0.930 . S
C877 C875 1.419 . S
C877 C878 1.362 . S
C878 H870 0.930 . S
C878 C877 1.362 . S
C878 C881 1.409 . S
C879 H871 0.930 . S
C879 C880 1.355 . S
C879 C881 1.415 . S
C880 C879 1.355 . S
C880 C882 1.419 . S
C881 C876 1.425 . S
C881 C878 1.409 . S
C881 C879 1.415 . S
C882 H872 0.930 . S
C882 C880 1.419 . S
C882 C883 1.362 . S
C883 H873 0.930 . S
C883 C876 1.409 . S
C883 C882 1.362 . S
H884 C890 0.930 . S
H885 C893 0.930 . S
H886 C894 0.930 . S
H887 C895 0.930 . S
H888 C898 0.930 . S
H889 C899 0.930 . S
C890 H884 0.930 . S
C890 C891 1.355 . S
C890 C892 1.415 . S
C891 C890 1.355 . S
C891 C893 1.419 . S
C892 C890 1.415 . S
C892 C897 1.425 . S
C892 C899 1.409 . S
C893 H885 0.930 . S
C893 C891 1.419 . S
C893 C894 1.362 . S
C894 H886 0.930 . S
C894 C893 1.362 . S
C894 C897 1.409 . S
C895 H887 0.930 . S
C895 C896 1.355 . S
C895 C897 1.415 . S
C896 C895 1.355 . S
C896 C898 1.419 . S
C897 C892 1.425 . S
C897 C894 1.409 . S
C897 C895 1.415 . S
C898 H888 0.930 . S
C898 C896 1.419 . S
C898 C899 1.362 . S
C899 H889 0.930 . S
C899 C892 1.409 . S
C899 C898 1.362 . S
H900 C906 0.930 . S
H901 C909 0.930 . S
H902 C910 0.930 . S
H903 C911 0.930 . S
H904 C914 0.930 . S
H905 C915 0.930 . S
C906 H900 0.930 . S
C906 C907 1.355 . S
C906 C908 1.415 . S
C907 C906 1.355 . S
C907 C909 1.419 . S
C908 C906 1.415 . S
C908 C913 1.425 . S
C908 C915 1.409 . S
C909 H901 0.930 . S
C909 C907 1.419 . S
C909 C910 1.362 . S
C910 H902 0.930 . S
C910 C909 1.362 . S
C910 C913 1.409 . S
C911 H903 0.930 . S
C911 C912 1.355 . S
C911 C913 1.415 . S
C912 C911 1.355 . S
C912 C914 1.419 . S
C913 C908 1.425 . S
C913 C910 1.409 . S
C913 C911 1.415 . S
C914 H904 0.930 . S
C914 C912 1.419 . S
C914 C915 1.362 . S
C915 H905 0.930 . S
C915 C908 1.409 . S
C915 C914 1.362 . S
H916 C922 0.930 1_655 S
H917 C925 0.934 . S
H918 C926 0.930 . S
H919 C927 0.930 . S
H920 C930 0.930 . S
H921 C931 0.930 . S
C922 H916 0.930 1_455 S
C922 C923 1.355 1_455 S
C922 C924 1.415 . S
C923 C922 1.355 1_655 S
C923 C925 1.422 . S
C924 C922 1.415 . S
C924 C929 1.425 . S
C924 C931 1.409 . S
C925 H917 0.934 . S
C925 C923 1.422 . S
C925 C926 1.356 1_655 S
C926 H918 0.930 . S
C926 C925 1.356 1_455 S
C926 C929 1.409 . S
C927 H919 0.930 . S
C927 C928 1.355 . S
C927 C929 1.415 . S
C928 C927 1.355 . S
C928 C930 1.419 . S
C929 C924 1.425 . S
C929 C926 1.409 . S
C929 C927 1.415 . S
C930 H920 0.930 . S
C930 C928 1.419 . S
C930 C931 1.362 . S
C931 H921 0.930 . S
C931 C924 1.409 . S
C931 C930 1.362 . S
H932 C938 0.930 . S
H933 C941 0.930 . S
H934 C942 0.930 . S
H935 C943 0.930 . S
H936 C946 0.930 . S
H937 C947 0.930 . S
C938 H932 0.930 . S
C938 C939 1.355 . S
C938 C940 1.415 . S
C939 C938 1.355 . S
C939 C941 1.419 . S
C940 C938 1.415 . S
C940 C945 1.425 . S
C940 C947 1.409 . S
C941 H933 0.930 . S
C941 C939 1.419 . S
C941 C942 1.362 . S
C942 H934 0.930 . S
C942 C941 1.362 . S
C942 C945 1.409 . S
C943 H935 0.930 . S
C943 C944 1.355 . S
C943 C945 1.415 . S
C944 C943 1.355 . S
C944 C946 1.419 . S
C945 C940 1.425 . S
C945 C942 1.409 . S
C945 C943 1.415 . S
C946 H936 0.930 . S
C946 C944 1.419 . S
C946 C947 1.362 . S
C947 H937 0.930 . S
C947 C940 1.409 . S
C947 C946 1.362 . S
H948 C954 0.930 . S
H949 C957 0.930 . S
H950 C958 0.930 . S
H951 C959 0.930 . S
H952 C962 0.930 . S
H953 C963 0.930 . S
C954 H948 0.930 . S
C954 C955 1.355 . S
C954 C956 1.415 . S
C955 C954 1.355 . S
C955 C957 1.419 . S
C956 C954 1.415 . S
C956 C961 1.425 . S
C956 C963 1.409 . S
C957 H949 0.930 . S
C957 C955 1.419 . S
C957 C958 1.362 . S
C958 H950 0.930 . S
C958 C957 1.362 . S
C958 C961 1.409 . S
C959 H951 0.930 . S
C959 C960 1.355 . S
C959 C961 1.415 . S
C960 C959 1.355 . S
C960 C962 1.419 . S
C961 C956 1.425 . S
C961 C958 1.409 . S
C961 C959 1.415 . S
C962 H952 0.930 . S
C962 C960 1.419 . S
C962 C963 1.362 . S
C963 H953 0.930 . S
C963 C956 1.409 . S
C963 C962 1.362 . S
H964 C970 0.930 . S
H965 C973 0.930 . S
H966 C974 0.930 . S
H967 C975 0.930 . S
H968 C978 0.930 . S
H969 C979 0.930 . S
C970 H964 0.930 . S
C970 C971 1.355 . S
C970 C972 1.415 . S
C971 C970 1.355 . S
C971 C973 1.419 . S
C972 C970 1.415 . S
C972 C977 1.425 . S
C972 C979 1.409 . S
C973 H965 0.930 . S
C973 C971 1.419 . S
C973 C974 1.362 . S
C974 H966 0.930 . S
C974 C973 1.362 . S
C974 C977 1.409 . S
C975 H967 0.930 . S
C975 C976 1.355 . S
C975 C977 1.415 . S
C976 C975 1.355 . S
C976 C978 1.419 . S
C977 C972 1.425 . S
C977 C974 1.409 . S
C977 C975 1.415 . S
C978 H968 0.930 . S
C978 C976 1.419 . S
C978 C979 1.362 . S
C979 H969 0.930 . S
C979 C972 1.409 . S
C979 C978 1.362 . S
H980 C986 0.924 1_655 S
H981 C989 0.930 1_655 S
H982 C990 0.930 . S
H983 C991 0.930 . S
H984 C994 0.930 . S
H985 C995 0.930 . S
C986 H980 0.924 1_455 S
C986 C987 1.351 1_455 S
C986 C988 1.425 . S
C987 C986 1.351 1_655 S
C987 C989 1.419 1_655 S
C988 C986 1.425 . S
C988 C993 1.425 . S
C988 C995 1.409 . S
C989 H981 0.930 1_455 S
C989 C987 1.419 1_455 S
C989 C990 1.362 . S
C990 H982 0.930 . S
C990 C989 1.362 . S
C990 C993 1.409 . S
C991 H983 0.930 . S
C991 C992 1.355 . S
C991 C993 1.415 . S
C992 C991 1.355 . S
C992 C994 1.419 . S
C993 C988 1.425 . S
C993 C990 1.409 . S
C993 C991 1.415 . S
C994 H984 0.930 . S
C994 C992 1.419 . S
C994 C995 1.362 . S
C995 H985 0.930 . S
C995 C988 1.409 . S
C995 C994 1.362 . S
H996 C1002 0.930 . S
H997 C1005 0.930 . S
H998 C1006 0.930 . S
H999 C1007 0.930 . S
H1000 C1010 0.930 . S
H1001 C1011 0.930 . S
C1002 H996 0.930 . S
C1002 C1003 1.355 . S
C1002 C1004 1.415 . S
C1003 C1002 1.355 . S
C1003 C1005 1.419 . S
C1004 C1002 1.415 . S
C1004 C1009 1.425 . S
C1004 C1011 1.409 . S
C1005 H997 0.930 . S
C1005 C1003 1.419 . S
C1005 C1006 1.362 . S
C1006 H998 0.930 . S
C1006 C1005 1.362 . S
C1006 C1009 1.409 . S
C1007 H999 0.930 . S
C1007 C1008 1.355 . S
C1007 C1009 1.415 . S
C1008 C1007 1.355 . S
C1008 C1010 1.419 . S
C1009 C1004 1.425 . S
C1009 C1006 1.409 . S
C1009 C1007 1.415 . S
C1010 H1000 0.930 . S
C1010 C1008 1.419 . S
C1010 C1011 1.362 . S
C1011 H1001 0.930 . S
C1011 C1004 1.409 . S
C1011 C1010 1.362 . S
H1012 C1018 0.930 . S
H1013 C1021 0.930 . S
H1014 C1022 0.930 . S
H1015 C1023 0.930 . S
H1016 C1026 0.930 . S
H1017 C1027 0.930 . S
C1018 H1012 0.930 . S
C1018 C1019 1.355 . S
C1018 C1020 1.415 . S
C1019 C1018 1.355 . S
C1019 C1021 1.419 . S
C1020 C1018 1.415 . S
C1020 C1025 1.425 . S
C1020 C1027 1.409 . S
C1021 H1013 0.930 . S
C1021 C1019 1.419 . S
C1021 C1022 1.362 . S
C1022 H1014 0.930 . S
C1022 C1021 1.362 . S
C1022 C1025 1.409 . S
C1023 H1015 0.930 . S
C1023 C1024 1.355 . S
C1023 C1025 1.415 . S
C1024 C1023 1.355 . S
C1024 C1026 1.419 . S
C1025 C1020 1.425 . S
C1025 C1022 1.409 . S
C1025 C1023 1.415 . S
C1026 H1016 0.930 . S
C1026 C1024 1.419 . S
C1026 C1027 1.362 . S
C1027 H1017 0.930 . S
C1027 C1020 1.409 . S
C1027 C1026 1.362 . S
H1028 C1034 0.930 . S
H1029 C1037 0.930 . S
H1030 C1038 0.930 . S
H1031 C1039 0.930 . S
H1032 C1042 0.930 . S
H1033 C1043 0.930 . S
C1034 H1028 0.930 . S
C1034 C1035 1.355 1_545 S
C1034 C1036 1.415 . S
C1035 C1034 1.355 1_565 S
C1035 C1037 1.419 . S
C1036 C1034 1.415 . S
C1036 C1041 1.425 . S
C1036 C1043 1.409 . S
C1037 H1029 0.930 . S
C1037 C1035 1.419 . S
C1037 C1038 1.362 1_565 S
C1038 H1030 0.930 . S
C1038 C1037 1.362 1_545 S
C1038 C1041 1.409 . S
C1039 H1031 0.930 . S
C1039 C1040 1.355 . S
C1039 C1041 1.415 . S
C1040 C1039 1.355 . S
C1040 C1042 1.419 . S
C1041 C1036 1.425 . S
C1041 C1038 1.409 . S
C1041 C1039 1.415 . S
C1042 H1032 0.930 . S
C1042 C1040 1.419 . S
C1042 C1043 1.362 . S
C1043 H1033 0.930 . S
C1043 C1036 1.409 . S
C1043 C1042 1.362 . S
H1044 C1050 0.930 . S
H1045 C1053 0.930 . S
H1046 C1054 0.930 . S
H1047 C1055 0.930 . S
H1048 C1058 0.930 . S
H1049 C1059 0.930 . S
C1050 H1044 0.930 . S
C1050 C1051 1.355 . S
C1050 C1052 1.415 . S
C1051 C1050 1.355 . S
C1051 C1053 1.419 . S
C1052 C1050 1.415 . S
C1052 C1057 1.425 . S
C1052 C1059 1.409 . S
C1053 H1045 0.930 . S
C1053 C1051 1.419 . S
C1053 C1054 1.362 . S
C1054 H1046 0.930 . S
C1054 C1053 1.362 . S
C1054 C1057 1.409 . S
C1055 H1047 0.930 . S
C1055 C1056 1.355 . S
C1055 C1057 1.415 . S
C1056 C1055 1.355 . S
C1056 C1058 1.419 . S
C1057 C1052 1.425 . S
C1057 C1054 1.409 . S
C1057 C1055 1.415 . S
C1058 H1048 0.930 . S
C1058 C1056 1.419 . S
C1058 C1059 1.362 . S
C1059 H1049 0.930 . S
C1059 C1052 1.409 . S
C1059 C1058 1.362 . S
H1060 C1066 0.930 . S
H1061 C1069 0.930 . S
H1062 C1070 0.930 . S
H1063 C1071 0.930 . S
H1064 C1074 0.930 . S
H1065 C1075 0.930 . S
C1066 H1060 0.930 . S
C1066 C1067 1.355 1_565 S
C1066 C1068 1.415 . S
C1067 C1066 1.355 1_545 S
C1067 C1069 1.419 . S
C1068 C1066 1.415 . S
C1068 C1073 1.425 . S
C1068 C1075 1.409 . S
C1069 H1061 0.930 . S
C1069 C1067 1.419 . S
C1069 C1070 1.362 1_545 S
C1070 H1062 0.930 . S
C1070 C1069 1.362 1_565 S
C1070 C1073 1.409 . S
C1071 H1063 0.930 . S
C1071 C1072 1.355 . S
C1071 C1073 1.415 . S
C1072 C1071 1.355 . S
C1072 C1074 1.419 . S
C1073 C1068 1.425 . S
C1073 C1070 1.409 . S
C1073 C1071 1.415 . S
C1074 H1064 0.930 . S
C1074 C1072 1.419 . S
C1074 C1075 1.362 . S
C1075 H1065 0.930 . S
C1075 C1068 1.409 . S
C1075 C1074 1.362 . S
H1076 C1082 0.930 . S
H1077 C1085 0.930 . S
H1078 C1086 0.930 . S
H1079 C1087 0.930 . S
H1080 C1090 0.930 . S
H1081 C1091 0.930 . S
C1082 H1076 0.930 . S
C1082 C1083 1.355 . S
C1082 C1084 1.415 . S
C1083 C1082 1.355 . S
C1083 C1085 1.419 . S
C1084 C1082 1.415 . S
C1084 C1089 1.425 . S
C1084 C1091 1.409 . S
C1085 H1077 0.930 . S
C1085 C1083 1.419 . S
C1085 C1086 1.362 . S
C1086 H1078 0.930 . S
C1086 C1085 1.362 . S
C1086 C1089 1.409 . S
C1087 H1079 0.930 . S
C1087 C1088 1.355 . S
C1087 C1089 1.415 . S
C1088 C1087 1.355 . S
C1088 C1090 1.419 . S
C1089 C1084 1.425 . S
C1089 C1086 1.409 . S
C1089 C1087 1.415 . S
C1090 H1080 0.930 . S
C1090 C1088 1.419 . S
C1090 C1091 1.362 . S
C1091 H1081 0.930 . S
C1091 C1084 1.409 . S
C1091 C1090 1.362 . S
H1092 C1098 0.930 1_556 S
H1093 C1101 0.930 . S
H1094 C1102 0.930 . S
H1095 C1103 0.930 . S
H1096 C1106 0.930 . S
H1097 C1107 0.930 1_556 S
C1098 H1092 0.930 1_554 S
C1098 C1099 1.355 . S
C1098 C1100 1.415 . S
C1099 C1098 1.355 . S
C1099 C1101 1.419 . S
C1100 C1098 1.415 . S
C1100 C1105 1.425 . S
C1100 C1107 1.409 . S
C1101 H1093 0.930 . S
C1101 C1099 1.419 . S
C1101 C1102 1.362 . S
C1102 H1094 0.930 . S
C1102 C1101 1.362 . S
C1102 C1105 1.409 . S
C1103 H1095 0.930 . S
C1103 C1104 1.355 . S
C1103 C1105 1.415 . S
C1104 C1103 1.355 . S
C1104 C1106 1.419 . S
C1105 C1100 1.425 . S
C1105 C1102 1.409 . S
C1105 C1103 1.415 . S
C1106 H1096 0.930 . S
C1106 C1104 1.419 . S
C1106 C1107 1.362 . S
C1107 H1097 0.930 1_554 S
C1107 C1100 1.409 . S
C1107 C1106 1.362 . S
H1108 C1114 0.930 . S
H1109 C1117 0.930 . S
H1110 C1118 0.930 . S
H1111 C1119 0.930 . S
H1112 C1122 0.930 . S
H1113 C1123 0.930 . S
C1114 H1108 0.930 . S
C1114 C1115 1.355 . S
C1114 C1116 1.415 . S
C1115 C1114 1.355 . S
C1115 C1117 1.419 . S
C1116 C1114 1.415 . S
C1116 C1121 1.425 . S
C1116 C1123 1.409 . S
C1117 H1109 0.930 . S
C1117 C1115 1.419 . S
C1117 C1118 1.362 . S
C1118 H1110 0.930 . S
C1118 C1117 1.362 . S
C1118 C1121 1.409 . S
C1119 H1111 0.930 . S
C1119 C1120 1.355 . S
C1119 C1121 1.415 . S
C1120 C1119 1.355 . S
C1120 C1122 1.419 . S
C1121 C1116 1.425 . S
C1121 C1118 1.409 . S
C1121 C1119 1.415 . S
C1122 H1112 0.930 . S
C1122 C1120 1.419 . S
C1122 C1123 1.362 . S
C1123 H1113 0.930 . S
C1123 C1116 1.409 . S
C1123 C1122 1.362 . S
H1124 C1130 0.930 . S
H1125 C1133 0.930 . S
H1126 C1134 0.930 . S
H1127 C1135 0.930 . S
H1128 C1138 0.930 . S
H1129 C1139 0.930 . S
C1130 H1124 0.930 . S
C1130 C1131 1.355 . S
C1130 C1132 1.415 . S
C1131 C1130 1.355 . S
C1131 C1133 1.419 . S
C1132 C1130 1.415 . S
C1132 C1137 1.425 . S
C1132 C1139 1.409 . S
C1133 H1125 0.930 . S
C1133 C1131 1.419 . S
C1133 C1134 1.362 . S
C1134 H1126 0.930 . S
C1134 C1133 1.362 . S
C1134 C1137 1.409 . S
C1135 H1127 0.930 . S
C1135 C1136 1.355 . S
C1135 C1137 1.415 . S
C1136 C1135 1.355 . S
C1136 C1138 1.419 . S
C1137 C1132 1.425 . S
C1137 C1134 1.409 . S
C1137 C1135 1.415 . S
C1138 H1128 0.930 . S
C1138 C1136 1.419 . S
C1138 C1139 1.362 . S
C1139 H1129 0.930 . S
C1139 C1132 1.409 . S
C1139 C1138 1.362 . S
C384 C361 1.110 . S
C379 C5 1.274 . S
C395 C16 1.306 . S
C400 C314 1.239 . S
C411 C36 1.287 . S
C416 C325 1.229 . S
C432 C350 1.195 . S
C427 C49 1.255 . S
C443 C23 1.303 . S
C448 C368 1.193 . S
C464 C307 1.253 . S
C459 C29 1.285 . S
C480 C332 1.117 . S
C475 C42 1.299 . S
C496 C343 1.214 . S
C491 C4 1.311 . S
C507 C55 1.249 . S
C512 C344 1.154 . S
C528 C370 1.168 . S
C523 C69 1.256 . S
C544 C308 1.202 . S
C539 C83 1.304 . S
C560 C334 1.129 . S
C555 C101 1.283 . S
C571 C57 1.297 . S
C576 C316 1.131 . S
C587 C75 1.299 . S
C592 C326 1.250 . S
C603 C81 1.264 . S
C608 C352 1.129 . S
C624 C362 1.131 . S
C619 C95 1.257 . S
C640 C199 1.150 . S
C635 C96 1.247 . S
C656 C182 1.119 . S
C651 C107 1.251 . S
C672 C208 1.236 . S
C667 C121 1.257 . S
C688 C226 1.238 . S
C683 C133 1.294 . S
C699 C62 1.289 . S
C704 C200 1.126 . S
C715 C68 1.257 . S
C720 C170 1.131 . S
C731 C127 1.253 . S
C736 C224 1.186 . S
C747 C147 1.272 . S
C752 C181 1.119 . S
C768 C235 1.236 . S
C763 C30 1.281 . S
C784 C260 1.226 . S
C779 C43 1.265 . S
C795 C3 1.275 . S
C800 C271 1.242 . S
C811 C18 1.261 . S
C816 C296 1.195 . S
C832 C242 1.167 . S
C827 C44 1.253 . S
C848 C253 1.158 . S
C843 C10 1.307 . S
C859 C17 1.300 . S
C864 C278 1.155 . S
C880 C289 1.153 . S
C875 C31 1.311 . S
C891 C146 1.263 . S
C896 C290 1.111 . S
C907 C114 1.267 . S
C912 C244 1.129 . S
C928 C254 1.117 . S
C923 C122 1.294 . S
C939 C140 1.308 . S
C944 C280 1.162 . S
C960 C262 1.239 . S
C955 C148 1.291 . S
C971 C108 1.273 . S
C976 C272 1.244 . S
C992 C298 1.120 . S
C987 C120 1.285 . S
C1008 C236 1.250 . S
C1003 C134 1.301 . S
C1024 C163 1.237 . S
C1019 C135 1.294 . S
C1040 C218 1.235 . S
C1035 C70 1.270 . S
C1051 C82 1.282 . S
C1056 C172 1.259 . S
C1072 C190 1.207 . S
C1067 C94 1.300 . S
C1088 C164 1.246 . S
C1083 C153 1.297 . S
C1099 C109 1.292 . S
C1104 C206 1.227 . S
C1115 C88 1.250 . S
C1120 C188 1.147 . S
C1131 C56 1.301 . S
C1136 C217 1.144 . S
