# Generated by pormake.
# Topology ant, (3,6)-cn, num edge types: 1
# Building blocks:
#     Node 0, Type 0, BuildingBlock: ESEHIV_clean_linker_0, # of connection points: 3
#     Node 1, Type 0, BuildingBlock: ESEHIV_clean_linker_0, # of connection points: 3
#     Node 2, Type 0, BuildingBlock: ESEHIV_clean_linker_0, # of connection points: 3
#     Node 3, Type 0, BuildingBlock: ESEHIV_clean_linker_0, # of connection points: 3
#     Node 4, Type 0, BuildingBlock: ESEHIV_clean_linker_0, # of connection points: 3
#     Node 5, Type 0, BuildingBlock: ESEHIV_clean_linker_0, # of connection points: 3
#     Node 6, Type 0, BuildingBlock: ESEHIV_clean_linker_0, # of connection points: 3
#     Node 7, Type 0, BuildingBlock: ESEHIV_clean_linker_0, # of connection points: 3
#     Node 8, Type 1, BuildingBlock: MIDCAF_clean_sbu_0, # of connection points: 6
#     Node 9, Type 1, BuildingBlock: MIDCAF_clean_sbu_0, # of connection points: 6
#     Node 10, Type 1, BuildingBlock: MIDCAF_clean_sbu_0, # of connection points: 6
#     Node 11, Type 1, BuildingBlock: MIDCAF_clean_sbu_0, # of connection points: 6
#     Edge 12, Type (0, 1), BuildingBlock: AJUNOK_clean_linker_0, # of connection points: 2
#     Edge 13, Type (0, 1), BuildingBlock: AJUNOK_clean_linker_0, # of connection points: 2
#     Edge 14, Type (0, 1), BuildingBlock: AJUNOK_clean_linker_0, # of connection points: 2
#     Edge 15, Type (0, 1), BuildingBlock: AJUNOK_clean_linker_0, # of connection points: 2
#     Edge 16, Type (0, 1), BuildingBlock: AJUNOK_clean_linker_0, # of connection points: 2
#     Edge 17, Type (0, 1), BuildingBlock: AJUNOK_clean_linker_0, # of connection points: 2
#     Edge 18, Type (0, 1), BuildingBlock: AJUNOK_clean_linker_0, # of connection points: 2
#     Edge 19, Type (0, 1), BuildingBlock: AJUNOK_clean_linker_0, # of connection points: 2
#     Edge 20, Type (0, 1), BuildingBlock: AJUNOK_clean_linker_0, # of connection points: 2
#     Edge 21, Type (0, 1), BuildingBlock: AJUNOK_clean_linker_0, # of connection points: 2
#     Edge 22, Type (0, 1), BuildingBlock: AJUNOK_clean_linker_0, # of connection points: 2
#     Edge 23, Type (0, 1), BuildingBlock: AJUNOK_clean_linker_0, # of connection points: 2
#     Edge 24, Type (0, 1), BuildingBlock: AJUNOK_clean_linker_0, # of connection points: 2
#     Edge 25, Type (0, 1), BuildingBlock: AJUNOK_clean_linker_0, # of connection points: 2
#     Edge 26, Type (0, 1), BuildingBlock: AJUNOK_clean_linker_0, # of connection points: 2
#     Edge 27, Type (0, 1), BuildingBlock: AJUNOK_clean_linker_0, # of connection points: 2
#     Edge 28, Type (0, 1), BuildingBlock: AJUNOK_clean_linker_0, # of connection points: 2
#     Edge 29, Type (0, 1), BuildingBlock: AJUNOK_clean_linker_0, # of connection points: 2
#     Edge 30, Type (0, 1), BuildingBlock: AJUNOK_clean_linker_0, # of connection points: 2
#     Edge 31, Type (0, 1), BuildingBlock: AJUNOK_clean_linker_0, # of connection points: 2
#     Edge 32, Type (0, 1), BuildingBlock: AJUNOK_clean_linker_0, # of connection points: 2
#     Edge 33, Type (0, 1), BuildingBlock: AJUNOK_clean_linker_0, # of connection points: 2
#     Edge 34, Type (0, 1), BuildingBlock: AJUNOK_clean_linker_0, # of connection points: 2
#     Edge 35, Type (0, 1), BuildingBlock: AJUNOK_clean_linker_0, # of connection points: 2
# Relax obj value: 0.103
# Max RMSD: 0.160
# Mean RMSD: 0.105
data_MOF--net-ant--node1-MIDCAF_clean_sbu_0--node2-ESEHIV_clean_linker_0--edge1-AJUNOK_clean_linker_0
_symmetry_space_group_name_H-M    P1
_symmetry_Int_Tables_number       1
_symmetry_cell_setting            triclinic
loop_
_symmetry_equiv_pos_as_xyz
'x, y, z'
_cell_length_a     19.12337
_cell_length_b     18.919356
_cell_length_c     52.318943
_cell_angle_alpha  90.367025
_cell_angle_beta   94.270552
_cell_angle_gamma 89.953024
loop_
_atom_site_label
_atom_site_type_symbol
_atom_site_fract_x
_atom_site_fract_y
_atom_site_fract_z
_atom_type_partial_charge
H0 H 0.15238 0.30233 0.02315 0.0
H1 H 0.20553 0.0839 0.03416 0.0
H2 H 0.27224 0.2379 0.09197 0.0
C3 C 0.17877 0.26149 0.03466 0.0
C4 C 0.2132 0.27924 0.05844 0.0
C5 C 0.17636 0.19119 0.02582 0.0
C6 C 0.20959 0.13825 0.0408 0.0
C7 C 0.24375 0.15407 0.0649 0.0
C8 C 0.24596 0.22501 0.07347 0.0
H9 H 0.97516 0.7628 0.26829 0.0
H10 H 0.19622 0.79968 0.27877 0.0
H11 H 0.0721 0.80846 0.34386 0.0
C12 C 0.02046 0.77809 0.2808 0.0
C13 C 0.01468 0.7862 0.30729 0.0
C14 C 0.08569 0.78392 0.27064 0.0
C15 C 0.14548 0.79924 0.28678 0.0
C16 C 0.14166 0.8071 0.31328 0.0
C17 C 0.07559 0.80203 0.32341 0.0
H18 H 0.64426 0.83264 0.52043 0.0
H19 H 0.68049 0.61176 0.53391 0.0
H20 H 0.71193 0.75988 0.59645 0.0
C21 C 0.65789 0.79032 0.53375 0.0
C22 C 0.67743 0.80629 0.55966 0.0
C23 C 0.65876 0.72023 0.5245 0.0
C24 C 0.6806 0.66569 0.54111 0.0
C25 C 0.69979 0.67902 0.56703 0.0
C26 C 0.69775 0.74946 0.57634 0.0
H27 H 0.43738 0.27404 0.77428 0.0
H28 H 0.65961 0.30619 0.78216 0.0
H29 H 0.54361 0.3007 0.84946 0.0
C30 C 0.48434 0.28593 0.78645 0.0
C31 C 0.48143 0.29058 0.81321 0.0
C32 C 0.54828 0.29297 0.77531 0.0
C33 C 0.60994 0.30473 0.7909 0.0
C34 C 0.60916 0.30695 0.81769 0.0
C35 C 0.54452 0.29992 0.82877 0.0
H36 H 0.04506 0.58374 0.94405 0.0
H37 H 0.08968 0.80519 0.95321 0.0
H38 H 0.98108 0.7287 0.88359 0.0
C39 C 0.03973 0.63727 0.93689 0.0
C40 C 0.00804 0.64932 0.91216 0.0
C41 C 0.06885 0.69305 0.95184 0.0
C42 C 0.06624 0.76193 0.9419 0.0
C43 C 0.03595 0.77528 0.91719 0.0
C44 C 0.00544 0.7188 0.90259 0.0
H45 H 0.5882 0.79805 0.19406 0.0
H46 H 0.8123 0.78436 0.20561 0.0
H47 H 0.71245 0.80041 0.12909 0.0
C48 C 0.63924 0.79919 0.18631 0.0
C49 C 0.64302 0.80336 0.15972 0.0
C50 C 0.6997 0.79077 0.2029 0.0
C51 C 0.76545 0.78853 0.19273 0.0
C52 C 0.77087 0.79117 0.16607 0.0
C53 C 0.70919 0.79921 0.14967 0.0
H54 H 0.49007 0.11649 0.4531 0.0
H55 H 0.57048 0.32545 0.45616 0.0
H56 H 0.5485 0.21532 0.38368 0.0
C57 C 0.51287 0.15937 0.44303 0.0
C58 C 0.52303 0.15396 0.41679 0.0
C59 C 0.53777 0.2175 0.4573 0.0
C60 C 0.55716 0.27869 0.44478 0.0
C61 C 0.5564 0.28021 0.41792 0.0
C62 C 0.54268 0.21624 0.40408 0.0
H63 H 0.06616 0.32228 0.70304 0.0
H64 H 0.28918 0.30606 0.71827 0.0
H65 H 0.19933 0.32271 0.6404 0.0
C66 C 0.11833 0.32366 0.69618 0.0
C67 C 0.12548 0.3269 0.66979 0.0
C68 C 0.17675 0.31516 0.71363 0.0
C69 C 0.24387 0.3129 0.70475 0.0
C70 C 0.25263 0.31663 0.67845 0.0
C71 C 0.19309 0.32213 0.66081 0.0
Zn72 Zn 0.26496 0.65105 0.14001 0.0
Zn73 Zn 0.13249 0.80633 0.09052 0.0
Zn74 Zn 0.20002 0.72947 0.11288 0.0
C75 C 0.17272 0.71528 0.0552 0.0
C76 C 0.23135 0.89118 0.10903 0.0
O77 O 0.14806 0.72956 0.14917 0.0
O78 O 0.23388 0.68105 0.17348 0.0
C79 C 0.21031 0.56181 0.10359 0.0
O80 O 0.17508 0.67779 0.07566 0.0
O81 O 0.16885 0.78165 0.05705 0.0
O82 O 0.16546 0.89416 0.10793 0.0
O83 O 0.26086 0.83001 0.10752 0.0
O84 O 0.23022 0.55939 0.12707 0.0
O85 O 0.20154 0.62271 0.09273 0.0
O86 O 0.30746 0.77651 0.11815 0.0
O87 O 0.36014 0.67825 0.13116 0.0
C88 C 0.36419 0.74113 0.12357 0.0
O89 O 0.09726 0.7507 0.13079 0.0
O90 O 0.03468 0.7825 0.09573 0.0
C91 C 0.1753 0.71199 0.17149 0.0
C92 C 0.03718 0.76601 0.11909 0.0
Zn93 Zn 0.51584 0.64676 0.32908 0.0
Zn94 Zn 0.65753 0.80185 0.38069 0.0
Zn95 Zn 0.58378 0.72261 0.35983 0.0
C96 C 0.55379 0.88517 0.36654 0.0
C97 C 0.74917 0.75471 0.35268 0.0
O98 O 0.57954 0.61537 0.37859 0.0
O99 O 0.54304 0.55444 0.34404 0.0
C100 C 0.42008 0.74211 0.347 0.0
O101 O 0.52703 0.82287 0.36829 0.0
O102 O 0.61858 0.88985 0.36386 0.0
O103 O 0.75462 0.77535 0.37563 0.0
O104 O 0.68765 0.74132 0.34173 0.0
O105 O 0.42182 0.68175 0.33669 0.0
O106 O 0.47774 0.77278 0.35501 0.0
O107 O 0.63575 0.72512 0.32372 0.0
O108 O 0.55431 0.67804 0.29663 0.0
C109 C 0.61202 0.70986 0.30068 0.0
O110 O 0.60407 0.66993 0.39694 0.0
O111 O 0.62661 0.77466 0.41423 0.0
C112 C 0.56469 0.55545 0.36745 0.0
C113 C 0.61255 0.71023 0.41683 0.0
Zn114 Zn 0.55627 0.38746 0.58754 0.0
Zn115 Zn 0.7385 0.17009 0.64752 0.0
Zn116 Zn 0.67894 0.25922 0.61924 0.0
C117 C 0.84497 0.26277 0.636 0.0
C118 C 0.6926 0.09263 0.60406 0.0
O119 O 0.57581 0.29165 0.63653 0.0
O120 O 0.5012 0.37054 0.61686 0.0
C121 C 0.70715 0.39821 0.60727 0.0
O122 O 0.79113 0.29716 0.62623 0.0
O123 O 0.83656 0.20335 0.64614 0.0
O124 O 0.71642 0.08534 0.62702 0.0
O125 O 0.67585 0.15533 0.59575 0.0
O126 O 0.64837 0.37258 0.60142 0.0
O127 O 0.75176 0.35312 0.61609 0.0
O128 O 0.63805 0.22147 0.58145 0.0
O129 O 0.55908 0.30142 0.5649 0.0
C130 C 0.59167 0.24276 0.56391 0.0
O131 O 0.62476 0.2569 0.65472 0.0
O132 O 0.68911 0.18356 0.67925 0.0
C133 C 0.51781 0.32828 0.63505 0.0
C134 C 0.63802 0.2257 0.67632 0.0
Zn135 Zn 0.98821 0.14548 0.83483 0.0
Zn136 Zn 0.12424 0.29337 0.89018 0.0
Zn137 Zn 0.05239 0.22228 0.86578 0.0
C138 C 0.07559 0.20286 0.92338 0.0
C139 C 0.02483 0.38076 0.87083 0.0
O140 O 0.10635 0.22737 0.83075 0.0
O141 O 0.02448 0.18363 0.80305 0.0
C142 C 0.0424 0.05495 0.87175 0.0
O143 O 0.0737 0.1668 0.90242 0.0
O144 O 0.08327 0.26894 0.92258 0.0
O145 O 0.09095 0.38134 0.87268 0.0
O146 O 0.99276 0.32104 0.87184 0.0
O147 O 0.024 0.05406 0.84809 0.0
O148 O 0.04946 0.11477 0.88368 0.0
O149 O 0.94509 0.26942 0.8599 0.0
O150 O 0.89256 0.17419 0.84337 0.0
C151 C 0.88849 0.23589 0.85245 0.0
O152 O 0.15654 0.24738 0.84912 0.0
O153 O 0.22224 0.26295 0.88508 0.0
C154 C 0.08238 0.21474 0.80758 0.0
C155 C 0.2178 0.25524 0.86106 0.0
C156 C 0.19028 0.36442 0.09362 0.0
C157 C 0.20937 0.35317 0.06851 0.0
C158 C 0.18663 0.43261 0.10396 0.0
C159 C 0.20194 0.49305 0.08975 0.0
H160 H 0.17818 0.32001 0.1055 0.0
H161 H 0.17322 0.43782 0.12365 0.0
S162 S 0.25246 0.49334 0.02274 0.0
N163 N 0.24185 0.40881 0.02923 0.0
N164 N 0.23509 0.53723 0.04892 0.0
C165 C 0.2187 0.4831 0.0643 0.0
C166 C 0.2225 0.4132 0.05365 0.0
C167 C 0.88332 0.80051 0.30588 0.0
C168 C 0.94581 0.77281 0.31802 0.0
C169 C 0.81817 0.79007 0.31609 0.0
C170 C 0.81346 0.75197 0.33883 0.0
H171 H 0.88503 0.83243 0.28883 0.0
H172 H 0.77201 0.81518 0.30693 0.0
S173 S 0.9584 0.65936 0.37582 0.0
N174 N -0.00366 0.69773 0.35221 0.0
N175 N 0.87464 0.68095 0.37185 0.0
C176 C 0.87459 0.72118 0.35041 0.0
C177 C 0.94057 0.73092 0.33992 0.0
C178 C 0.76838 0.5678 0.57766 0.0
C179 C 0.71581 0.6164 0.58379 0.0
C180 C 0.77069 0.49843 0.58751 0.0
C181 C 0.71964 0.4749 0.60347 0.0
H182 H 0.80497 0.58202 0.5637 0.0
H183 H 0.80877 0.46149 0.58086 0.0
S184 S 0.57564 0.58269 0.62734 0.0
N185 N 0.61588 0.63722 0.60874 0.0
N186 N 0.61921 0.50735 0.62682 0.0
C187 C 0.67014 0.52442 0.61115 0.0
C188 C 0.6685 0.59504 0.60147 0.0
C189 C 0.6918 0.24448 0.84905 0.0
C190 C 0.67742 0.30363 0.8334 0.0
C191 C 0.76086 0.22706 0.85767 0.0
C192 C 0.81804 0.26874 0.85139 0.0
H193 H 0.6503 0.20771 0.85266 0.0
H194 H 0.77006 0.17755 0.86768 0.0
S195 S 0.8074 0.43586 0.81487 0.0
N196 N 0.72512 0.40908 0.81485 0.0
N197 N 0.85491 0.37659 0.83146 0.0
C198 C 0.8038 0.332 0.83815 0.0
C199 C 0.73345 0.34931 0.829 0.0
C200 C 0.95167 0.52994 0.90618 0.0
C201 C 0.98703 0.58714 0.89571 0.0
C202 C 0.95294 0.46212 0.89511 0.0
C203 C 0.98996 0.44961 0.87335 0.0
H204 H 0.92873 0.53614 0.92439 0.0
H205 H 0.93279 0.41812 0.9055 0.0
S206 S 0.07599 0.58359 0.83505 0.0
N207 N 0.0486 0.62847 0.85957 0.0
N208 N 0.05009 0.50134 0.83882 0.0
C209 C 0.01612 0.508 0.86064 0.0
C210 C 0.01512 0.57686 0.87186 0.0
C211 C 0.85785 0.82942 0.13545 0.0
C212 C 0.84066 0.78436 0.15528 0.0
C213 C 0.92186 0.82314 0.1243 0.0
C214 C 0.97185 0.77183 0.13254 0.0
H215 H 0.82157 0.87017 0.12849 0.0
H216 H 0.93231 0.85919 0.10903 0.0
S217 S 0.95248 0.63937 0.18336 0.0
N218 N 0.87884 0.68527 0.18243 0.0
N219 N -0.00039 0.67439 0.16147 0.0
C220 C 0.95604 0.72682 0.15252 0.0
C221 C 0.89042 0.73288 0.16388 0.0
C222 C 0.51889 0.36608 0.38337 0.0
C223 C 0.56521 0.34923 0.40456 0.0
C224 C 0.51952 0.43284 0.37196 0.0
C225 C 0.56611 0.48656 0.3812 0.0
H226 H 0.48013 0.32807 0.37593 0.0
H227 H 0.48185 0.44269 0.35584 0.0
S228 S 0.70296 0.46837 0.43471 0.0
N229 N 0.66327 0.39077 0.4332 0.0
N230 N 0.66263 0.51702 0.412 0.0
C231 C 0.61366 0.47053 0.40211 0.0
C232 C 0.61369 0.40179 0.41365 0.0
C233 C 0.04254 0.26022 0.63986 0.0
C234 C 0.05996 0.32396 0.65265 0.0
C235 C 0.97249 0.24376 0.63221 0.0
C236 C 0.91746 0.29085 0.63669 0.0
H237 H 0.08216 0.21984 0.63812 0.0
H238 H 0.96076 0.19152 0.62443 0.0
S239 S 0.93703 0.46938 0.66565 0.0
N240 N 0.01786 0.43795 0.66668 0.0
N241 N 0.88631 0.40748 0.6517 0.0
C242 C 0.935 0.3578 0.64688 0.0
C243 C 0.00632 0.37422 0.65502 0.0
C244 C 0.37142 0.36975 0.67624 0.0
C245 C 0.32461 0.31398 0.66988 0.0
C246 C 0.43864 0.37062 0.66717 0.0
C247 C 0.46198 0.31465 0.6522 0.0
H248 H 0.35468 0.41457 0.68725 0.0
H249 H 0.47104 0.41718 0.6706 0.0
S250 S 0.36236 0.15275 0.63285 0.0
N251 N 0.30794 0.19902 0.6495 0.0
N252 N 0.4351 0.19989 0.63295 0.0
C253 C 0.41747 0.25638 0.64729 0.0
C254 C 0.34845 0.25624 0.65599 0.0
C255 C 0.52019 0.84715 0.14893 0.0
C256 C 0.57606 0.80228 0.14315 0.0
C257 C 0.45072 0.83282 0.13954 0.0
C258 C 0.43498 0.7728 0.12427 0.0
H259 H 0.52954 0.89027 0.16247 0.0
H260 H 0.40874 0.86456 0.14642 0.0
S261 S 0.56267 0.64624 0.09984 0.0
N262 N 0.61125 0.70136 0.11817 0.0
N263 N 0.48118 0.67465 0.10062 0.0
C264 C 0.49099 0.73236 0.11609 0.0
C265 C 0.56151 0.74705 0.12549 0.0
C266 C 0.40779 0.23557 0.84573 0.0
C267 C 0.41299 0.28117 0.82478 0.0
C268 C 0.34385 0.22589 0.85684 0.0
C269 C 0.28239 0.26055 0.84723 0.0
H270 H 0.45345 0.20693 0.85358 0.0
H271 H 0.34255 0.19117 0.87319 0.0
S272 S 0.26886 0.39068 0.79448 0.0
N273 N 0.35151 0.36474 0.79597 0.0
N274 N 0.2316 0.3458 0.81678 0.0
C275 C 0.28669 0.30638 0.82642 0.0
C276 C 0.35186 0.31681 0.81522 0.0
C277 C 0.26495 0.85091 0.32343 0.0
C278 C 0.20882 0.80748 0.32981 0.0
C279 C 0.33472 0.83558 0.33217 0.0
C280 C 0.35052 0.7761 0.34746 0.0
H281 H 0.25547 0.89323 0.30975 0.0
H282 H 0.37668 0.86584 0.32471 0.0
S283 S 0.2228 0.65317 0.37325 0.0
N284 N 0.17393 0.70854 0.35538 0.0
N285 N 0.30451 0.67992 0.37163 0.0
C286 C 0.29455 0.73729 0.35627 0.0
C287 C 0.22373 0.753 0.34754 0.0
C288 C 0.7391 0.90591 0.5843 0.0
C289 C 0.68048 0.8823 0.56881 0.0
C290 C 0.74388 0.97565 0.59365 0.0
C291 C 0.69029 0.02609 0.5882 0.0
H292 H 0.78191 0.86998 0.58945 0.0
H293 H 0.78964 0.98965 0.60612 0.0
S294 S 0.52606 0.99327 0.54775 0.0
N295 N 0.56783 0.91674 0.54759 0.0
N296 N 0.57719 0.04762 0.56552 0.0
C297 C 0.63234 0.00445 0.57196 0.0
C298 C 0.62735 0.93284 0.56225 0.0
C299 C 0.30187 0.03551 0.07137 0.0
C300 C 0.26787 0.09413 0.08182 0.0
C301 C 0.30191 0.96889 0.08315 0.0
C302 C 0.26777 0.95891 0.10571 0.0
H303 H 0.32232 0.03945 0.05267 0.0
H304 H 0.32034 0.92362 0.07278 0.0
S305 S 0.18732 0.09795 0.14417 0.0
N306 N 0.21144 0.13985 0.11868 0.0
N307 N 0.21265 0.01518 0.14081 0.0
C308 C 0.24374 0.01909 0.11832 0.0
C309 C 0.24323 0.08669 0.10633 0.0
C310 C 0.50251 0.0749 0.37719 0.0
C311 C 0.51892 0.08222 0.4039 0.0
C312 C 0.50653 0.00878 0.36473 0.0
C313 C 0.52251 0.94688 0.37869 0.0
H314 H 0.48923 0.12071 0.36556 0.0
H315 H 0.5003 0.00656 0.34399 0.0
S316 S 0.56996 0.93337 0.44827 0.0
N317 N 0.55794 0.01841 0.44311 0.0
N318 N 0.55092 0.89537 0.42024 0.0
C319 C 0.53335 0.95221 0.40535 0.0
C320 C 0.53543 0.01937 0.41782 0.0
C321 C 0.0229 0.90798 0.92 0.0
C322 C 0.04131 0.84732 0.90613 0.0
C323 C 0.02737 0.97618 0.90957 0.0
C324 C 0.05037 0.98588 0.88493 0.0
H325 H 0.00317 0.90251 0.93876 0.0
H326 H 0.00982 0.02105 0.92037 0.0
S327 S 0.11533 0.84576 0.8426 0.0
N328 N 0.09127 0.80276 0.86785 0.0
N329 N 0.09883 0.9299 0.84816 0.0
C330 C 0.07235 0.92599 0.87152 0.0
C331 C 0.06792 0.85701 0.88211 0.0
C332 C 0.17485 0.13828 0.98178 0.0
C333 C 0.13922 0.17367 0.0007 0.0
C334 C 0.14732 0.1368 0.95614 0.0
C335 C 0.08369 0.17083 0.94884 0.0
H336 H 0.227 0.11735 0.98636 0.0
H337 H 0.17985 0.11654 0.94165 0.0
S338 S 0.96275 0.25487 0.992 0.0
N339 N 0.03092 0.23058 0.01119 0.0
N340 N 0.98031 0.22934 0.96291 0.0
C341 C 0.0438 0.19813 0.96805 0.0
C342 C 0.07147 0.19947 -0.00595 0.0
C343 C 0.13228 0.69909 0.24026 0.0
C344 C 0.09513 0.76167 0.24412 0.0
C345 C 0.15428 0.68187 0.21619 0.0
C346 C 0.14017 0.72675 0.19511 0.0
H347 H 0.14708 0.66474 0.25626 0.0
H348 H 0.18498 0.63418 0.21434 0.0
S349 S 0.03847 0.89381 0.195 0.0
N350 N 0.03969 0.86593 0.22491 0.0
N351 N 0.08236 0.83433 0.17934 0.0
C352 C 0.09926 0.78754 0.19838 0.0
C353 C 0.07641 0.80487 0.22304 0.0
C354 C 0.68551 0.66661 0.48236 0.0
C355 C 0.63867 0.70349 0.49719 0.0
C356 C 0.67168 0.65859 0.45576 0.0
C357 C 0.61004 0.68594 0.44329 0.0
H358 H 0.73537 0.64832 0.49107 0.0
H359 H 0.71246 0.63723 0.44465 0.0
S360 S 0.46569 0.77606 0.47399 0.0
N361 N 0.52457 0.75955 0.49793 0.0
N362 N 0.49852 0.74395 0.448 0.0
C363 C 0.56012 0.71686 0.45827 0.0
C364 C 0.57452 0.726 0.48521 0.0
C365 C 0.5705 0.33044 0.73087 0.0
C366 C 0.55394 0.27684 0.7479 0.0
C367 C 0.59156 0.31369 0.70639 0.0
C368 C 0.5984 0.24286 0.69863 0.0
H369 H 0.57063 0.38523 0.73702 0.0
H370 H 0.60758 0.35608 0.69429 0.0
S371 S 0.55481 0.08406 0.73532 0.0
N372 N 0.53958 0.15104 0.75454 0.0
N373 N 0.58126 0.11942 0.70891 0.0
C374 C 0.57804 0.18926 0.71494 0.0
C375 C 0.55528 0.20633 0.73954 0.0
C376 C 0.16951 0.71273 0.98426 0.0
C377 C 0.10455 0.68016 0.97758 0.0
C378 C 0.19712 0.71545 0.00974 0.0
C379 C 0.16126 0.68491 0.02936 0.0
H380 H 0.1969 0.74046 0.96995 0.0
H381 H 0.24366 0.747 0.01441 0.0
S382 S -0.0038 0.58247 0.02153 0.0
N383 N 0.00989 0.60853 0.99224 0.0
N384 N 0.06309 0.61275 0.04023 0.0
C385 C 0.10076 0.6451 0.02265 0.0
C386 C 0.07196 0.64297 -0.00334 0.0
C387 C 0.64438 0.81975 0.2434 0.0
C388 C 0.69158 0.77789 0.23047 0.0
C389 C 0.62224 0.79924 0.26712 0.0
C390 C 0.64714 0.73674 0.27882 0.0
H391 H 0.62141 0.86663 0.23443 0.0
H392 H 0.58273 0.83062 0.27578 0.0
S393 S 0.77767 0.61322 0.25495 0.0
N394 N 0.76719 0.67404 0.23247 0.0
N395 N 0.72606 0.63674 0.27751 0.0
C396 C 0.69819 0.69724 0.26727 0.0
C397 C 0.72062 0.71775 0.24299 0.0
C398 C 0.62131 0.21744 0.49596 0.0
C399 C 0.552 0.21045 0.48523 0.0
C400 C 0.63654 0.21537 0.52252 0.0
C401 C 0.58266 0.20735 0.53904 0.0
H402 H 0.66359 0.22736 0.48377 0.0
H403 H 0.6894 0.2276 0.53018 0.0
S404 S 0.39459 0.17617 0.52033 0.0
N405 N 0.43071 0.1857 0.49284 0.0
N406 N 0.45917 0.18402 0.54297 0.0
C407 C 0.51432 0.19386 0.52844 0.0
C408 C 0.49889 0.1952 0.50142 0.0
C409 C 0.18958 0.23311 0.75062 0.0
C410 C 0.16531 0.29813 0.74043 0.0
C411 C 0.16513 0.20719 0.77333 0.0
C412 C 0.11642 0.24601 0.78639 0.0
H413 H 0.22387 0.19999 0.7401 0.0
H414 H 0.18181 0.15537 0.78005 0.0
S415 S 0.04531 0.42325 0.76997 0.0
N416 N 0.09625 0.40393 0.74673 0.0
N417 N 0.05042 0.3549 0.78951 0.0
C418 C 0.09561 0.31295 0.77747 0.0
C419 C 0.12021 0.33925 0.75442 0.0
loop_
_geom_bond_atom_site_label_1
_geom_bond_atom_site_label_2
_geom_bond_distance
_geom_bond_site_symmetry_2
_ccdc_geom_bond_type
H0 C3 0.931 . S
H1 C6 0.928 . S
H2 C8 0.930 . S
C3 H0 0.931 . S
C3 C4 1.413 . S
C3 C5 1.360 . S
C4 C3 1.413 . S
C4 C8 1.429 . S
C5 C3 1.360 . S
C5 C6 1.372 . S
C6 H1 0.928 . S
C6 C5 1.372 . S
C6 C7 1.404 . S
C7 C6 1.404 . S
C7 C8 1.391 . S
C8 H2 0.930 . S
C8 C4 1.429 . S
C8 C7 1.391 . S
H9 C12 0.931 . S
H10 C15 0.928 . S
H11 C17 0.930 . S
C12 H9 0.931 . S
C12 C13 1.413 . S
C12 C14 1.360 . S
C13 C12 1.413 . S
C13 C17 1.429 . S
C14 C12 1.360 . S
C14 C15 1.372 . S
C15 H10 0.928 . S
C15 C14 1.372 . S
C15 C16 1.404 . S
C16 C15 1.404 . S
C16 C17 1.391 . S
C17 H11 0.930 . S
C17 C13 1.429 . S
C17 C16 1.391 . S
H18 C21 0.931 . S
H19 C24 0.928 . S
H20 C26 0.930 . S
C21 H18 0.931 . S
C21 C22 1.413 . S
C21 C23 1.360 . S
C22 C21 1.413 . S
C22 C26 1.429 . S
C23 C21 1.360 . S
C23 C24 1.372 . S
C24 H19 0.928 . S
C24 C23 1.372 . S
C24 C25 1.404 . S
C25 C24 1.404 . S
C25 C26 1.391 . S
C26 H20 0.930 . S
C26 C22 1.429 . S
C26 C25 1.391 . S
H27 C30 0.931 . S
H28 C33 0.928 . S
H29 C35 0.930 . S
C30 H27 0.931 . S
C30 C31 1.413 . S
C30 C32 1.360 . S
C31 C30 1.413 . S
C31 C35 1.429 . S
C32 C30 1.360 . S
C32 C33 1.372 . S
C33 H28 0.928 . S
C33 C32 1.372 . S
C33 C34 1.404 . S
C34 C33 1.404 . S
C34 C35 1.391 . S
C35 H29 0.930 . S
C35 C31 1.429 . S
C35 C34 1.391 . S
H36 C39 0.931 . S
H37 C42 0.928 . S
H38 C44 0.930 . S
C39 H36 0.931 . S
C39 C40 1.413 . S
C39 C41 1.360 . S
C40 C39 1.413 . S
C40 C44 1.429 . S
C41 C39 1.360 . S
C41 C42 1.372 . S
C42 H37 0.928 . S
C42 C41 1.372 . S
C42 C43 1.404 . S
C43 C42 1.404 . S
C43 C44 1.391 . S
C44 H38 0.930 . S
C44 C40 1.429 . S
C44 C43 1.391 . S
H45 C48 0.931 . S
H46 C51 0.928 . S
H47 C53 0.930 . S
C48 H45 0.931 . S
C48 C49 1.413 . S
C48 C50 1.360 . S
C49 C48 1.413 . S
C49 C53 1.429 . S
C50 C48 1.360 . S
C50 C51 1.372 . S
C51 H46 0.928 . S
C51 C50 1.372 . S
C51 C52 1.404 . S
C52 C51 1.404 . S
C52 C53 1.391 . S
C53 H47 0.930 . S
C53 C49 1.429 . S
C53 C52 1.391 . S
H54 C57 0.931 . S
H55 C60 0.928 . S
H56 C62 0.930 . S
C57 H54 0.931 . S
C57 C58 1.413 . S
C57 C59 1.360 . S
C58 C57 1.413 . S
C58 C62 1.429 . S
C59 C57 1.360 . S
C59 C60 1.372 . S
C60 H55 0.928 . S
C60 C59 1.372 . S
C60 C61 1.404 . S
C61 C60 1.404 . S
C61 C62 1.391 . S
C62 H56 0.930 . S
C62 C58 1.429 . S
C62 C61 1.391 . S
H63 C66 0.931 . S
H64 C69 0.928 . S
H65 C71 0.930 . S
C66 H63 0.931 . S
C66 C67 1.413 . S
C66 C68 1.360 . S
C67 C66 1.413 . S
C67 C71 1.429 . S
C68 C66 1.360 . S
C68 C69 1.372 . S
C69 H64 0.928 . S
C69 C68 1.372 . S
C69 C70 1.404 . S
C70 C69 1.404 . S
C70 C71 1.391 . S
C71 H65 0.930 . S
C71 C67 1.429 . S
C71 C70 1.391 . S
Zn72 O78 1.920 . S
Zn72 O84 1.898 . S
Zn72 O87 1.905 . S
Zn73 O81 1.905 . S
Zn73 O82 1.898 . S
Zn73 O90 1.920 1_455 S
Zn74 O77 2.080 . S
Zn74 O80 2.114 . S
Zn74 O83 2.120 . S
Zn74 O85 2.120 . S
Zn74 O86 2.114 . S
Zn74 O89 2.080 . S
C75 O80 1.166 . S
C75 O81 1.182 . S
C76 O82 1.167 . S
C76 O83 1.299 . S
O77 Zn74 2.080 . S
O77 C91 1.305 . S
O78 Zn72 1.920 . S
O78 C91 1.234 . S
C79 O84 1.167 . S
C79 O85 1.299 . S
O80 Zn74 2.114 . S
O80 C75 1.166 . S
O81 Zn73 1.905 . S
O81 C75 1.182 . S
O82 Zn73 1.898 . S
O82 C76 1.167 . S
O83 Zn74 2.120 . S
O83 C76 1.299 . S
O84 Zn72 1.898 . S
O84 C79 1.167 . S
O85 Zn74 2.120 . S
O85 C79 1.299 . S
O86 Zn74 2.114 . S
O86 C88 1.166 . S
O87 Zn72 1.905 . S
O87 C88 1.182 . S
C88 O86 1.166 . S
C88 O87 1.182 . S
O89 Zn74 2.080 . S
O89 C92 1.305 1_455 S
O90 Zn73 1.920 1_655 S
O90 C92 1.234 . S
C91 O77 1.305 . S
C91 O78 1.234 . S
C92 O89 1.305 1_655 S
C92 O90 1.234 . S
Zn93 O99 1.920 . S
Zn93 O105 1.898 . S
Zn93 O108 1.905 . S
Zn94 O102 1.905 . S
Zn94 O103 1.898 . S
Zn94 O111 1.920 . S
Zn95 O98 2.080 . S
Zn95 O101 2.114 . S
Zn95 O104 2.120 . S
Zn95 O106 2.120 . S
Zn95 O107 2.114 . S
Zn95 O110 2.080 . S
C96 O101 1.166 . S
C96 O102 1.182 . S
C97 O103 1.167 . S
C97 O104 1.299 . S
O98 Zn95 2.080 . S
O98 C112 1.305 . S
O99 Zn93 1.920 . S
O99 C112 1.234 . S
C100 O105 1.167 . S
C100 O106 1.299 . S
O101 Zn95 2.114 . S
O101 C96 1.166 . S
O102 Zn94 1.905 . S
O102 C96 1.182 . S
O103 Zn94 1.898 . S
O103 C97 1.167 . S
O104 Zn95 2.120 . S
O104 C97 1.299 . S
O105 Zn93 1.898 . S
O105 C100 1.167 . S
O106 Zn95 2.120 . S
O106 C100 1.299 . S
O107 Zn95 2.114 . S
O107 C109 1.166 . S
O108 Zn93 1.905 . S
O108 C109 1.182 . S
C109 O107 1.166 . S
C109 O108 1.182 . S
O110 Zn95 2.080 . S
O110 C113 1.305 . S
O111 Zn94 1.920 . S
O111 C113 1.234 . S
C112 O98 1.305 . S
C112 O99 1.234 . S
C113 O110 1.305 . S
C113 O111 1.234 . S
Zn114 O120 1.920 . S
Zn114 O126 1.898 . S
Zn114 O129 1.905 . S
Zn115 O123 1.905 . S
Zn115 O124 1.898 . S
Zn115 O132 1.920 . S
Zn116 O119 2.080 . S
Zn116 O122 2.114 . S
Zn116 O125 2.120 . S
Zn116 O127 2.120 . S
Zn116 O128 2.114 . S
Zn116 O131 2.080 . S
C117 O122 1.166 . S
C117 O123 1.182 . S
C118 O124 1.167 . S
C118 O125 1.299 . S
O119 Zn116 2.080 . S
O119 C133 1.305 . S
O120 Zn114 1.920 . S
O120 C133 1.234 . S
C121 O126 1.167 . S
C121 O127 1.299 . S
O122 Zn116 2.114 . S
O122 C117 1.166 . S
O123 Zn115 1.905 . S
O123 C117 1.182 . S
O124 Zn115 1.898 . S
O124 C118 1.167 . S
O125 Zn116 2.120 . S
O125 C118 1.299 . S
O126 Zn114 1.898 . S
O126 C121 1.167 . S
O127 Zn116 2.120 . S
O127 C121 1.299 . S
O128 Zn116 2.114 . S
O128 C130 1.166 . S
O129 Zn114 1.905 . S
O129 C130 1.182 . S
C130 O128 1.166 . S
C130 O129 1.182 . S
O131 Zn116 2.080 . S
O131 C134 1.305 . S
O132 Zn115 1.920 . S
O132 C134 1.234 . S
C133 O119 1.305 . S
C133 O120 1.234 . S
C134 O131 1.305 . S
C134 O132 1.234 . S
Zn135 O141 1.920 . S
Zn135 O147 1.898 . S
Zn135 O150 1.905 1_455 S
Zn136 O144 1.905 . S
Zn136 O145 1.898 . S
Zn136 O153 1.920 . S
Zn137 O140 2.080 . S
Zn137 O143 2.114 . S
Zn137 O146 2.120 . S
Zn137 O148 2.120 . S
Zn137 O149 2.114 . S
Zn137 O152 2.080 . S
C138 O143 1.166 . S
C138 O144 1.182 . S
C139 O145 1.167 . S
C139 O146 1.299 . S
O140 Zn137 2.080 . S
O140 C154 1.305 . S
O141 Zn135 1.920 . S
O141 C154 1.234 . S
C142 O147 1.167 . S
C142 O148 1.299 . S
O143 Zn137 2.114 . S
O143 C138 1.166 . S
O144 Zn136 1.905 . S
O144 C138 1.182 . S
O145 Zn136 1.898 . S
O145 C139 1.167 . S
O146 Zn137 2.120 . S
O146 C139 1.299 . S
O147 Zn135 1.898 . S
O147 C142 1.167 . S
O148 Zn137 2.120 . S
O148 C142 1.299 . S
O149 Zn137 2.114 . S
O149 C151 1.166 1_455 S
O150 Zn135 1.905 1_655 S
O150 C151 1.182 . S
C151 O149 1.166 1_655 S
C151 O150 1.182 . S
O152 Zn137 2.080 . S
O152 C155 1.305 . S
O153 Zn136 1.920 . S
O153 C155 1.234 . S
C154 O140 1.305 . S
C154 O141 1.234 . S
C155 O152 1.305 . S
C155 O153 1.234 . S
C156 C157 1.369 . S
C156 C158 1.419 . S
C156 H160 0.930 . S
C157 C156 1.369 . S
C157 C166 1.429 . S
C158 C156 1.419 . S
C158 C159 1.363 . S
C158 H161 0.929 . S
C159 C158 1.363 . S
C159 C165 1.428 . S
H160 C156 0.930 . S
H161 C158 0.929 . S
S162 N163 1.613 . S
S162 N164 1.610 . S
N163 S162 1.613 . S
N163 C166 1.350 . S
N164 S162 1.610 . S
N164 C165 1.351 . S
C165 C159 1.428 . S
C165 N164 1.351 . S
C165 C166 1.434 . S
C166 C157 1.429 . S
C166 N163 1.350 . S
C166 C165 1.434 . S
C167 C168 1.369 . S
C167 C169 1.419 . S
C167 H171 0.930 . S
C168 C167 1.369 . S
C168 C177 1.429 . S
C169 C167 1.419 . S
C169 C170 1.363 . S
C169 H172 0.929 . S
C170 C169 1.363 . S
C170 C176 1.428 . S
H171 C167 0.930 . S
H172 C169 0.929 . S
S173 N174 1.613 1_655 S
S173 N175 1.610 . S
N174 S173 1.613 1_455 S
N174 C177 1.350 1_455 S
N175 S173 1.610 . S
N175 C176 1.351 . S
C176 C170 1.428 . S
C176 N175 1.351 . S
C176 C177 1.434 . S
C177 C168 1.429 . S
C177 N174 1.350 1_655 S
C177 C176 1.434 . S
C178 C179 1.369 . S
C178 C180 1.419 . S
C178 H182 0.930 . S
C179 C178 1.369 . S
C179 C188 1.429 . S
C180 C178 1.419 . S
C180 C181 1.363 . S
C180 H183 0.929 . S
C181 C180 1.363 . S
C181 C187 1.428 . S
H182 C178 0.930 . S
H183 C180 0.929 . S
S184 N185 1.613 . S
S184 N186 1.610 . S
N185 S184 1.613 . S
N185 C188 1.350 . S
N186 S184 1.610 . S
N186 C187 1.351 . S
C187 C181 1.428 . S
C187 N186 1.351 . S
C187 C188 1.434 . S
C188 C179 1.429 . S
C188 N185 1.350 . S
C188 C187 1.434 . S
C189 C190 1.369 . S
C189 C191 1.419 . S
C189 H193 0.930 . S
C190 C189 1.369 . S
C190 C199 1.429 . S
C191 C189 1.419 . S
C191 C192 1.363 . S
C191 H194 0.929 . S
C192 C191 1.363 . S
C192 C198 1.428 . S
H193 C189 0.930 . S
H194 C191 0.929 . S
S195 N196 1.613 . S
S195 N197 1.610 . S
N196 S195 1.613 . S
N196 C199 1.350 . S
N197 S195 1.610 . S
N197 C198 1.351 . S
C198 C192 1.428 . S
C198 N197 1.351 . S
C198 C199 1.434 . S
C199 C190 1.429 . S
C199 N196 1.350 . S
C199 C198 1.434 . S
C200 C201 1.369 . S
C200 C202 1.419 . S
C200 H204 0.930 . S
C201 C200 1.369 . S
C201 C210 1.429 . S
C202 C200 1.419 . S
C202 C203 1.363 . S
C202 H205 0.929 . S
C203 C202 1.363 . S
C203 C209 1.428 . S
H204 C200 0.930 . S
H205 C202 0.929 . S
S206 N207 1.613 . S
S206 N208 1.610 . S
N207 S206 1.613 . S
N207 C210 1.350 . S
N208 S206 1.610 . S
N208 C209 1.351 . S
C209 C203 1.428 . S
C209 N208 1.351 . S
C209 C210 1.434 . S
C210 C201 1.429 . S
C210 N207 1.350 . S
C210 C209 1.434 . S
C211 C212 1.369 . S
C211 C213 1.419 . S
C211 H215 0.930 . S
C212 C211 1.369 . S
C212 C221 1.429 . S
C213 C211 1.419 . S
C213 C214 1.363 . S
C213 H216 0.929 . S
C214 C213 1.363 . S
C214 C220 1.428 . S
H215 C211 0.930 . S
H216 C213 0.929 . S
S217 N218 1.613 . S
S217 N219 1.610 . S
N218 S217 1.613 . S
N218 C221 1.350 . S
N219 S217 1.610 . S
N219 C220 1.351 . S
C220 C214 1.428 . S
C220 N219 1.351 . S
C220 C221 1.434 . S
C221 C212 1.429 . S
C221 N218 1.350 . S
C221 C220 1.434 . S
C222 C223 1.369 . S
C222 C224 1.419 . S
C222 H226 0.930 . S
C223 C222 1.369 . S
C223 C232 1.429 . S
C224 C222 1.419 . S
C224 C225 1.363 . S
C224 H227 0.929 . S
C225 C224 1.363 . S
C225 C231 1.428 . S
H226 C222 0.930 . S
H227 C224 0.929 . S
S228 N229 1.613 . S
S228 N230 1.610 . S
N229 S228 1.613 . S
N229 C232 1.350 . S
N230 S228 1.610 . S
N230 C231 1.351 . S
C231 C225 1.428 . S
C231 N230 1.351 . S
C231 C232 1.434 . S
C232 C223 1.429 . S
C232 N229 1.350 . S
C232 C231 1.434 . S
C233 C234 1.369 1_655 S
C233 C235 1.419 . S
C233 H237 0.930 . S
C234 C233 1.369 1_455 S
C234 C243 1.429 1_455 S
C235 C233 1.419 . S
C235 C236 1.363 . S
C235 H238 0.929 . S
C236 C235 1.363 . S
C236 C242 1.428 . S
H237 C233 0.930 . S
H238 C235 0.929 . S
S239 N240 1.613 1_655 S
S239 N241 1.610 . S
N240 S239 1.613 1_455 S
N240 C243 1.350 1_455 S
N241 S239 1.610 . S
N241 C242 1.351 . S
C242 C236 1.428 . S
C242 N241 1.351 . S
C242 C243 1.434 . S
C243 C234 1.429 1_655 S
C243 N240 1.350 1_655 S
C243 C242 1.434 . S
C244 C245 1.369 . S
C244 C246 1.419 . S
C244 H248 0.930 . S
C245 C244 1.369 . S
C245 C254 1.429 . S
C246 C244 1.419 . S
C246 C247 1.363 . S
C246 H249 0.929 . S
C247 C246 1.363 . S
C247 C253 1.428 . S
H248 C244 0.930 . S
H249 C246 0.929 . S
S250 N251 1.613 . S
S250 N252 1.610 . S
N251 S250 1.613 . S
N251 C254 1.350 . S
N252 S250 1.610 . S
N252 C253 1.351 . S
C253 C247 1.428 . S
C253 N252 1.351 . S
C253 C254 1.434 . S
C254 C245 1.429 . S
C254 N251 1.350 . S
C254 C253 1.434 . S
C255 C256 1.369 . S
C255 C257 1.419 . S
C255 H259 0.930 . S
C256 C255 1.369 . S
C256 C265 1.429 . S
C257 C255 1.419 . S
C257 C258 1.363 . S
C257 H260 0.929 . S
C258 C257 1.363 . S
C258 C264 1.428 . S
H259 C255 0.930 . S
H260 C257 0.929 . S
S261 N262 1.613 . S
S261 N263 1.610 . S
N262 S261 1.613 . S
N262 C265 1.350 . S
N263 S261 1.610 . S
N263 C264 1.351 . S
C264 C258 1.428 . S
C264 N263 1.351 . S
C264 C265 1.434 . S
C265 C256 1.429 . S
C265 N262 1.350 . S
C265 C264 1.434 . S
C266 C267 1.369 . S
C266 C268 1.419 . S
C266 H270 0.930 . S
C267 C266 1.369 . S
C267 C276 1.429 . S
C268 C266 1.419 . S
C268 C269 1.363 . S
C268 H271 0.929 . S
C269 C268 1.363 . S
C269 C275 1.428 . S
H270 C266 0.930 . S
H271 C268 0.929 . S
S272 N273 1.613 . S
S272 N274 1.610 . S
N273 S272 1.613 . S
N273 C276 1.350 . S
N274 S272 1.610 . S
N274 C275 1.351 . S
C275 C269 1.428 . S
C275 N274 1.351 . S
C275 C276 1.434 . S
C276 C267 1.429 . S
C276 N273 1.350 . S
C276 C275 1.434 . S
C277 C278 1.369 . S
C277 C279 1.419 . S
C277 H281 0.930 . S
C278 C277 1.369 . S
C278 C287 1.429 . S
C279 C277 1.419 . S
C279 C280 1.363 . S
C279 H282 0.929 . S
C280 C279 1.363 . S
C280 C286 1.428 . S
H281 C277 0.930 . S
H282 C279 0.929 . S
S283 N284 1.613 . S
S283 N285 1.610 . S
N284 S283 1.613 . S
N284 C287 1.350 . S
N285 S283 1.610 . S
N285 C286 1.351 . S
C286 C280 1.428 . S
C286 N285 1.351 . S
C286 C287 1.434 . S
C287 C278 1.429 . S
C287 N284 1.350 . S
C287 C286 1.434 . S
C288 C289 1.369 . S
C288 C290 1.419 . S
C288 H292 0.930 . S
C289 C288 1.369 . S
C289 C298 1.429 . S
C290 C288 1.419 . S
C290 C291 1.363 1_565 S
C290 H293 0.929 . S
C291 C290 1.363 1_545 S
C291 C297 1.428 1_545 S
H292 C288 0.930 . S
H293 C290 0.929 . S
S294 N295 1.613 . S
S294 N296 1.610 1_565 S
N295 S294 1.613 . S
N295 C298 1.350 . S
N296 S294 1.610 1_545 S
N296 C297 1.351 1_545 S
C297 C291 1.428 1_565 S
C297 N296 1.351 1_565 S
C297 C298 1.434 . S
C298 C289 1.429 . S
C298 N295 1.350 . S
C298 C297 1.434 . S
C299 C300 1.369 . S
C299 C301 1.419 1_545 S
C299 H303 0.930 . S
C300 C299 1.369 . S
C300 C309 1.429 . S
C301 C299 1.419 1_565 S
C301 C302 1.363 . S
C301 H304 0.929 . S
C302 C301 1.363 . S
C302 C308 1.428 1_565 S
H303 C299 0.930 . S
H304 C301 0.929 . S
S305 N306 1.613 . S
S305 N307 1.610 . S
N306 S305 1.613 . S
N306 C309 1.350 . S
N307 S305 1.610 . S
N307 C308 1.351 . S
C308 C302 1.428 1_545 S
C308 N307 1.351 . S
C308 C309 1.434 . S
C309 C300 1.429 . S
C309 N306 1.350 . S
C309 C308 1.434 . S
C310 C311 1.369 . S
C310 C312 1.419 . S
C310 H314 0.930 . S
C311 C310 1.369 . S
C311 C320 1.429 . S
C312 C310 1.419 . S
C312 C313 1.363 1_545 S
C312 H315 0.929 . S
C313 C312 1.363 1_565 S
C313 C319 1.428 . S
H314 C310 0.930 . S
H315 C312 0.929 . S
S316 N317 1.613 1_565 S
S316 N318 1.610 . S
N317 S316 1.613 1_545 S
N317 C320 1.350 . S
N318 S316 1.610 . S
N318 C319 1.351 . S
C319 C313 1.428 . S
C319 N318 1.351 . S
C319 C320 1.434 1_565 S
C320 C311 1.429 . S
C320 N317 1.350 . S
C320 C319 1.434 1_545 S
C321 C322 1.369 . S
C321 C323 1.419 1_565 S
C321 H325 0.930 1_455 S
C322 C321 1.369 . S
C322 C331 1.429 . S
C323 C321 1.419 1_545 S
C323 C324 1.363 . S
C323 H326 0.929 1_455 S
C324 C323 1.363 . S
C324 C330 1.428 1_545 S
H325 C321 0.930 1_655 S
H326 C323 0.929 1_655 S
S327 N328 1.613 . S
S327 N329 1.610 . S
N328 S327 1.613 . S
N328 C331 1.350 . S
N329 S327 1.610 . S
N329 C330 1.351 . S
C330 C324 1.428 1_565 S
C330 N329 1.351 . S
C330 C331 1.434 . S
C331 C322 1.429 . S
C331 N328 1.350 . S
C331 C330 1.434 . S
C332 C333 1.369 1_556 S
C332 C334 1.419 . S
C332 H336 0.930 1_556 S
C333 C332 1.369 1_554 S
C333 C342 1.427 1_554 S
C334 C332 1.419 . S
C334 C335 1.363 . S
C334 H337 0.929 . S
C335 C334 1.363 . S
C335 C341 1.428 . S
H336 C332 0.930 1_554 S
H337 C334 0.929 . S
S338 N339 1.613 1_556 S
S338 N340 1.610 . S
N339 S338 1.613 1_554 S
N339 C342 1.348 1_554 S
N340 S338 1.610 . S
N340 C341 1.351 . S
C341 C335 1.428 . S
C341 N340 1.351 . S
C341 C342 1.437 . S
C342 C333 1.427 1_556 S
C342 N339 1.348 1_556 S
C342 C341 1.437 . S
C343 C344 1.369 . S
C343 C345 1.419 . S
C343 H347 0.930 . S
C344 C343 1.369 . S
C344 C353 1.429 . S
C345 C343 1.419 . S
C345 C346 1.363 . S
C345 H348 0.929 . S
C346 C345 1.363 . S
C346 C352 1.428 . S
H347 C343 0.930 . S
H348 C345 0.929 . S
S349 N350 1.613 . S
S349 N351 1.610 . S
N350 S349 1.613 . S
N350 C353 1.350 . S
N351 S349 1.610 . S
N351 C352 1.351 . S
C352 C346 1.428 . S
C352 N351 1.351 . S
C352 C353 1.434 . S
C353 C344 1.429 . S
C353 N350 1.350 . S
C353 C352 1.434 . S
C354 C355 1.369 . S
C354 C356 1.419 . S
C354 H358 0.930 . S
C355 C354 1.369 . S
C355 C364 1.429 . S
C356 C354 1.419 . S
C356 C357 1.363 . S
C356 H359 0.929 . S
C357 C356 1.363 . S
C357 C363 1.428 . S
H358 C354 0.930 . S
H359 C356 0.929 . S
S360 N361 1.613 . S
S360 N362 1.610 . S
N361 S360 1.613 . S
N361 C364 1.350 . S
N362 S360 1.610 . S
N362 C363 1.351 . S
C363 C357 1.428 . S
C363 N362 1.351 . S
C363 C364 1.434 . S
C364 C355 1.429 . S
C364 N361 1.350 . S
C364 C363 1.434 . S
C365 C366 1.369 . S
C365 C367 1.419 . S
C365 H369 0.930 . S
C366 C365 1.369 . S
C366 C375 1.429 . S
C367 C365 1.419 . S
C367 C368 1.363 . S
C367 H370 0.929 . S
C368 C367 1.363 . S
C368 C374 1.428 . S
H369 C365 0.930 . S
H370 C367 0.929 . S
S371 N372 1.613 . S
S371 N373 1.610 . S
N372 S371 1.613 . S
N372 C375 1.350 . S
N373 S371 1.610 . S
N373 C374 1.351 . S
C374 C368 1.428 . S
C374 N373 1.351 . S
C374 C375 1.434 . S
C375 C366 1.429 . S
C375 N372 1.350 . S
C375 C374 1.434 . S
C376 C377 1.369 . S
C376 C378 1.419 1_556 S
C376 H380 0.930 . S
C377 C376 1.369 . S
C377 C386 1.429 1_556 S
C378 C376 1.419 1_554 S
C378 C379 1.363 . S
C378 H381 0.929 . S
C379 C378 1.363 . S
C379 C385 1.428 . S
H380 C376 0.930 . S
H381 C378 0.929 . S
S382 N383 1.613 1_554 S
S382 N384 1.610 . S
N383 S382 1.613 1_556 S
N383 C386 1.350 1_656 S
N384 S382 1.610 . S
N384 C385 1.351 1_655 S
C385 C379 1.428 . S
C385 N384 1.351 1_455 S
C385 C386 1.434 . S
C386 C377 1.429 1_554 S
C386 N383 1.350 1_454 S
C386 C385 1.434 . S
C387 C388 1.369 . S
C387 C389 1.419 . S
C387 H391 0.930 . S
C388 C387 1.369 . S
C388 C397 1.429 . S
C389 C387 1.419 . S
C389 C390 1.363 . S
C389 H392 0.929 . S
C390 C389 1.363 . S
C390 C396 1.428 . S
H391 C387 0.930 . S
H392 C389 0.929 . S
S393 N394 1.613 . S
S393 N395 1.610 . S
N394 S393 1.613 . S
N394 C397 1.350 . S
N395 S393 1.610 . S
N395 C396 1.351 . S
C396 C390 1.428 . S
C396 N395 1.351 . S
C396 C397 1.434 . S
C397 C388 1.429 . S
C397 N394 1.350 . S
C397 C396 1.434 . S
C398 C399 1.369 . S
C398 C400 1.419 . S
C398 H402 0.930 . S
C399 C398 1.369 . S
C399 C408 1.429 . S
C400 C398 1.419 . S
C400 C401 1.363 . S
C400 H403 0.929 . S
C401 C400 1.363 . S
C401 C407 1.428 . S
H402 C398 0.930 . S
H403 C400 0.929 . S
S404 N405 1.613 . S
S404 N406 1.610 . S
N405 S404 1.613 . S
N405 C408 1.350 . S
N406 S404 1.610 . S
N406 C407 1.351 . S
C407 C401 1.428 . S
C407 N406 1.351 . S
C407 C408 1.434 . S
C408 C399 1.429 . S
C408 N405 1.350 . S
C408 C407 1.434 . S
C409 C410 1.369 . S
C409 C411 1.419 . S
C409 H413 0.930 . S
C410 C409 1.369 . S
C410 C419 1.429 . S
C411 C409 1.419 . S
C411 C412 1.363 . S
C411 H414 0.929 . S
C412 C411 1.363 . S
C412 C418 1.428 . S
H413 C409 0.930 . S
H414 C411 0.929 . S
S415 N416 1.613 1_655 S
S415 N417 1.610 1_655 S
N416 S415 1.613 1_455 S
N416 C419 1.350 . S
N417 S415 1.610 1_455 S
N417 C418 1.351 . S
C418 C412 1.428 . S
C418 N417 1.351 . S
C418 C419 1.434 . S
C419 C410 1.429 . S
C419 N416 1.350 . S
C419 C418 1.434 . S
C159 C79 1.423 . S
C157 C4 1.545 . S
C170 C97 1.354 . S
C168 C13 1.433 1_655 S
C179 C25 1.406 . S
C181 C121 1.282 . S
C192 C151 1.277 . S
C190 C34 1.456 . S
C203 C139 1.297 . S
C201 C40 1.420 . S
C212 C52 1.437 . S
C214 C92 1.371 . S
C223 C61 1.544 . S
C225 C112 1.442 . S
C234 C67 1.467 . S
C236 C117 1.285 . S
C245 C70 1.428 . S
C247 C133 1.364 . S
C256 C49 1.478 . S
C258 C88 1.284 . S
C269 C155 1.375 . S
C267 C31 1.441 . S
C280 C100 1.252 . S
C278 C16 1.446 . S
C289 C22 1.533 . S
C291 C118 1.423 . S
C300 C7 1.415 . S
C302 C76 1.292 . S
C313 C96 1.295 . S
C311 C58 1.420 . S
C324 C142 1.433 . S
C322 C43 1.543 . S
C335 C138 1.319 . S
C333 C5 1.496 . S
C346 C91 1.392 . S
C344 C14 1.487 . S
C355 C23 1.481 . S
C357 C113 1.300 . S
C366 C32 1.500 . S
C368 C134 1.401 . S
C379 C75 1.311 . S
C377 C41 1.505 . S
C388 C50 1.522 . S
C390 C109 1.423 . S
C401 C130 1.324 . S
C399 C59 1.523 . S
C412 C154 1.397 . S
C410 C68 1.505 . S
