# Generated by pormake.
# Topology anh, (6,3)-cn, num edge types: 1
# Building blocks:
#     Node 0, Type 0, BuildingBlock: HISSIN_clean_sbu_0, # of connection points: 6
#     Node 1, Type 0, BuildingBlock: HISSIN_clean_sbu_0, # of connection points: 6
#     Node 2, Type 0, BuildingBlock: HISSIN_clean_sbu_0, # of connection points: 6
#     Node 3, Type 1, BuildingBlock: ESEHIV_clean_linker_0, # of connection points: 3
#     Node 4, Type 1, BuildingBlock: ESEHIV_clean_linker_0, # of connection points: 3
#     Node 5, Type 1, BuildingBlock: ESEHIV_clean_linker_0, # of connection points: 3
#     Node 6, Type 1, BuildingBlock: ESEHIV_clean_linker_0, # of connection points: 3
#     Node 7, Type 1, BuildingBlock: ESEHIV_clean_linker_0, # of connection points: 3
#     Node 8, Type 1, BuildingBlock: ESEHIV_clean_linker_0, # of connection points: 3
#     Edge 9, Type (0, 1), BuildingBlock: ZUJKAS_clean_linker_0, # of connection points: 2
#     Edge 10, Type (0, 1), BuildingBlock: ZUJKAS_clean_linker_0, # of connection points: 2
#     Edge 11, Type (0, 1), BuildingBlock: ZUJKAS_clean_linker_0, # of connection points: 2
#     Edge 12, Type (0, 1), BuildingBlock: ZUJKAS_clean_linker_0, # of connection points: 2
#     Edge 13, Type (0, 1), BuildingBlock: ZUJKAS_clean_linker_0, # of connection points: 2
#     Edge 14, Type (0, 1), BuildingBlock: ZUJKAS_clean_linker_0, # of connection points: 2
#     Edge 15, Type (0, 1), BuildingBlock: ZUJKAS_clean_linker_0, # of connection points: 2
#     Edge 16, Type (0, 1), BuildingBlock: ZUJKAS_clean_linker_0, # of connection points: 2
#     Edge 17, Type (0, 1), BuildingBlock: ZUJKAS_clean_linker_0, # of connection points: 2
#     Edge 18, Type (0, 1), BuildingBlock: ZUJKAS_clean_linker_0, # of connection points: 2
#     Edge 19, Type (0, 1), BuildingBlock: ZUJKAS_clean_linker_0, # of connection points: 2
#     Edge 20, Type (0, 1), BuildingBlock: ZUJKAS_clean_linker_0, # of connection points: 2
#     Edge 21, Type (0, 1), BuildingBlock: ZUJKAS_clean_linker_0, # of connection points: 2
#     Edge 22, Type (0, 1), BuildingBlock: ZUJKAS_clean_linker_0, # of connection points: 2
#     Edge 23, Type (0, 1), BuildingBlock: ZUJKAS_clean_linker_0, # of connection points: 2
#     Edge 24, Type (0, 1), BuildingBlock: ZUJKAS_clean_linker_0, # of connection points: 2
#     Edge 25, Type (0, 1), BuildingBlock: ZUJKAS_clean_linker_0, # of connection points: 2
#     Edge 26, Type (0, 1), BuildingBlock: ZUJKAS_clean_linker_0, # of connection points: 2
# Relax obj value: 0.235
# Max RMSD: 0.187
# Mean RMSD: 0.154
data_MOF--net-anh--node1-HISSIN_clean_sbu_0--node2-ESEHIV_clean_linker_0--edge1-ZUJKAS_clean_linker_0
_symmetry_space_group_name_H-M    P1
_symmetry_Int_Tables_number       1
_symmetry_cell_setting            triclinic
loop_
_symmetry_equiv_pos_as_xyz
'x, y, z'
_cell_length_a     37.165212
_cell_length_b     37.188196
_cell_length_c     68.506132
_cell_angle_alpha  92.276782
_cell_angle_beta   90.395966
_cell_angle_gamma 119.97321
loop_
_atom_site_label
_atom_site_type_symbol
_atom_site_fract_x
_atom_site_fract_y
_atom_site_fract_z
_atom_type_partial_charge
Eu0 Eu 1.0558 0.50383 0.16082 0.0
Eu1 Eu 0.10648 0.60321 0.16848 0.0
C2 C 1.07443 0.54432 0.20469 0.0
C3 C 0.96882 0.40277 0.14225 0.0
C4 C 0.94947 0.4255 0.13753 0.0
C5 C 0.90632 0.33923 0.13162 0.0
C6 C 0.90809 0.4052 0.13108 0.0
C7 C 0.94763 0.35968 0.13863 0.0
C8 C 0.88533 0.36157 0.12871 0.0
C9 C 1.0098 0.42446 0.15216 0.0
O10 O 0.1585 0.58639 0.16909 0.0
O11 O 0.12298 0.5182 0.15759 0.0
C12 C 0.15839 0.55232 0.1625 0.0
O13 O 1.05854 0.53203 0.13182 0.0
O14 O 0.14844 0.65856 0.1864 0.0
O15 O 0.12217 0.66462 0.15915 0.0
O16 O 0.12023 0.59111 0.13812 0.0
C17 C 0.09201 0.56421 0.12568 0.0
O18 O 1.00423 0.52036 0.16406 0.0
O19 O 1.0412 0.58988 0.15894 0.0
O20 O 1.07752 0.57754 0.19712 0.0
O21 O 1.0402 0.4496 0.14147 0.0
O22 O 1.01068 0.44156 0.1693 0.0
O23 O 1.07373 0.51459 0.19331 0.0
C24 C 0.19199 0.71276 0.16647 0.0
C25 C 0.20166 0.75248 0.16115 0.0
C26 C 0.26103 0.72739 0.15775 0.0
C27 C 0.24107 0.77979 0.15438 0.0
C28 C 0.22162 0.7001 0.16436 0.0
C29 C 0.27141 0.76775 0.15291 0.0
C30 C 0.15033 0.68364 0.17309 0.0
C31 C 1.00511 0.55529 0.1602 0.0
H32 H 0.96574 0.45894 0.13978 0.0
H33 H 0.89037 0.30576 0.12936 0.0
H34 H 0.89353 0.42386 0.12928 0.0
H35 H 0.96246 0.34176 0.14185 0.0
H36 H 0.17881 0.76238 0.16228 0.0
H37 H 0.28374 0.71727 0.15709 0.0
H38 H 0.24793 0.81049 0.1505 0.0
H39 H 0.2145 0.66924 0.16805 0.0
Eu40 Eu 0.59016 1.02903 0.49748 0.0
Eu41 Eu 0.54038 0.0792 0.4998 0.0
C42 C 0.56702 1.05414 0.53894 0.0
C43 C 0.62732 0.94959 0.48947 0.0
C44 C 0.58993 0.91181 0.49066 0.0
C45 C 0.66183 0.91201 0.47868 0.0
C46 C 0.58898 0.87421 0.48661 0.0
C47 C 0.66278 0.94948 0.48282 0.0
C48 C 0.62533 0.87397 0.48124 0.0
C49 C 0.63127 0.98912 0.49663 0.0
O50 O 0.60899 0.13127 0.50262 0.0
O51 O 0.64053 0.09558 0.49124 0.0
C52 C 0.64228 0.1312 0.49599 0.0
O53 O 0.56474 1.02345 0.46699 0.0
O54 O 0.5279 0.12486 0.51443 0.0
O55 O 0.49678 0.09519 0.48668 0.0
O56 O 0.5649 0.08466 0.46956 0.0
C57 C 0.56466 1.05463 0.45884 0.0
O58 O 0.52204 0.97607 0.49766 0.0
O59 O 0.4877 1.01222 0.4928 0.0
O60 O 0.53629 1.05524 0.53 0.0
O61 O 0.63477 1.01507 0.48353 0.0
O62 O 0.60758 0.98773 0.5109 0.0
O63 O 0.59687 1.05425 0.52878 0.0
C64 C 0.52861 0.16831 0.49056 0.0
C65 C 0.54891 0.17397 0.47271 0.0
C66 C 0.56711 0.24292 0.4973 0.0
C67 C 0.57947 0.21349 0.46769 0.0
C68 C 0.53651 0.20331 0.50232 0.0
C69 C 0.59034 0.24811 0.48041 0.0
C70 C 0.50841 0.12708 0.49899 0.0
C71 C 0.48721 0.97652 0.49401 0.0
H72 H 0.56202 0.9113 0.49555 0.0
H73 H 0.69048 0.91292 0.47482 0.0
H74 H 0.56036 0.84534 0.48852 0.0
H75 H 0.69184 0.97839 0.48176 0.0
H76 H 0.54366 0.14759 0.46333 0.0
H77 H 0.57492 0.26889 0.50754 0.0
H78 H 0.59637 0.21657 0.45445 0.0
H79 H 0.52167 0.19972 0.51624 0.0
Eu80 Eu 0.53466 0.52073 0.82654 0.0
Eu81 Eu 0.63325 0.57005 0.83314 0.0
C82 C 0.57539 0.54368 0.87011 0.0
C83 C 0.43789 0.51517 0.81244 0.0
C84 C 0.46027 0.54711 0.79957 0.0
C85 C 0.39836 0.54837 0.82187 0.0
C86 C 0.45308 0.58043 0.7986 0.0
C87 C 0.40536 0.51492 0.82275 0.0
C88 C 0.42371 0.58237 0.81061 0.0
C89 C 0.456 0.4905 0.81929 0.0
O90 O 0.61722 0.50149 0.83357 0.0
O91 O 0.54865 0.46747 0.82303 0.0
C92 C 0.58298 0.46681 0.82756 0.0
O93 O 0.56361 0.54472 0.79737 0.0
O94 O 0.68974 0.58506 0.84964 0.0
O95 O 0.6934 0.61792 0.82351 0.0
O96 O 0.62112 0.54021 0.80319 0.0
C97 C 0.59519 0.54181 0.79087 0.0
O98 O 0.54999 0.58844 0.83078 0.0
O99 O 0.61855 0.62023 0.82357 0.0
O100 O 0.6083 0.57398 0.86249 0.0
O101 O 0.47993 0.48485 0.80719 0.0
O102 O 0.47266 0.50185 0.83688 0.0
O103 O 0.54564 0.51453 0.8587 0.0
C104 C 0.74689 0.6033 0.82919 0.0
C105 C 0.78132 0.63594 0.82074 0.0
C106 C 0.77635 0.55869 0.82316 0.0
C107 C 0.81342 0.63027 0.81382 0.0
C108 C 0.74403 0.56427 0.82989 0.0
C109 C 0.81183 0.59191 0.81544 0.0
C110 C 0.71387 0.61029 0.83668 0.0
C111 C 0.58423 0.62201 0.82599 0.0
H112 H 0.48601 0.54847 0.79164 0.0
H113 H 0.37519 0.54915 0.83111 0.0
H114 H 0.47306 0.60637 0.78989 0.0
H115 H 0.38809 0.49095 0.83291 0.0
H116 H 0.78362 0.66603 0.81973 0.0
H117 H 0.77431 0.5289 0.82484 0.0
H118 H 0.84001 0.65626 0.80765 0.0
H119 H 0.71729 0.53832 0.836 0.0
H120 H 0.59131 1.05378 0.24806 0.0
H121 H 0.61626 0.18035 0.25355 0.0
H122 H 0.59254 0.11727 0.19699 0.0
C123 C 0.59589 0.08176 0.24151 0.0
C124 C 0.59201 0.08186 0.22117 0.0
C125 C 0.60451 0.11705 0.25342 0.0
C126 C 0.60906 0.15268 0.24465 0.0
C127 C 0.60419 0.15257 0.22431 0.0
C128 C 0.59605 0.11726 0.21273 0.0
H129 H 0.72369 0.6322 0.58877 0.0
H130 H 0.76821 0.54737 0.59861 0.0
H131 H 0.78553 0.60382 0.54327 0.0
C132 C 0.74021 0.61658 0.58379 0.0
C133 C 0.75464 0.62158 0.56468 0.0
C134 C 0.74492 0.58992 0.59619 0.0
C135 C 0.76561 0.56905 0.58941 0.0
C136 C 0.78058 0.57401 0.57031 0.0
C137 C 0.77544 0.60085 0.55821 0.0
H138 H 0.12377 0.62841 0.91868 0.0
H139 H 0.2544 0.71205 0.93009 0.0
H140 H 0.20283 0.69138 0.8715 0.0
C141 C 0.15412 0.65052 0.9135 0.0
C142 C 0.15938 0.65764 0.89352 0.0
C143 C 0.18818 0.67011 0.92674 0.0
C144 C 0.22787 0.69751 0.91995 0.0
C145 C 0.23314 0.70612 0.90003 0.0
C146 C 0.19874 0.68592 0.88698 0.0
H147 H 1.00512 0.48622 0.41891 0.0
H148 H 0.11764 0.60438 0.41973 0.0
H149 H 1.06115 0.55219 0.4741 0.0
C150 C 1.0298 0.51262 0.42717 0.0
C151 C 1.02847 0.51418 0.44779 0.0
C152 C 1.06141 0.54493 0.41691 0.0
C153 C 0.09287 0.57983 0.42758 0.0
C154 C 0.09392 0.58337 0.44816 0.0
C155 C 1.06115 0.55014 0.4583 0.0
H156 H 0.57524 0.09554 0.75452 0.0
H157 H 0.58214 0.98369 0.75157 0.0
H158 H 0.58232 1.04091 0.80783 0.0
C159 C 0.57685 0.07111 0.76191 0.0
C160 C 0.57845 0.07274 0.78248 0.0
C161 C 0.57844 1.03951 0.75066 0.0
C162 C 0.58166 1.00841 0.76029 0.0
C163 C 0.58288 1.0077 0.7809 0.0
C164 C 0.58125 1.04046 0.79202 0.0
H165 H 0.51675 0.54332 0.08593 0.0
H166 H 0.63782 0.55497 0.08531 0.0
H167 H 0.58096 0.55285 0.14032 0.0
C168 C 0.5438 0.54669 0.09374 0.0
C169 C 0.54434 0.54852 0.11435 0.0
C170 C 0.57711 0.54901 0.08303 0.0
C171 C 0.61182 0.55265 0.09338 0.0
C172 C 0.614 0.55356 0.11397 0.0
C173 C 0.57989 0.55179 0.1245 0.0
H174 H 0.17128 0.49017 0.14642 0.0
H175 H 0.23661 0.49092 0.14061 0.0
H176 H 0.30525 0.61604 0.16557 0.0
H177 H 0.23984 0.61538 0.17154 0.0
H178 H 0.30195 0.53749 0.11805 0.0
H179 H 0.36333 0.56591 0.19435 0.0
H180 H 0.31031 0.55168 0.18844 0.0
H181 H 0.35159 0.60435 0.18628 0.0
C182 C 0.20012 0.51788 0.1509 0.0
C183 C 0.19937 0.55259 0.15969 0.0
C184 C 0.23792 0.51831 0.14747 0.0
C185 C 0.27689 0.55325 0.15285 0.0
C186 C 0.27627 0.58804 0.1616 0.0
H187 H 0.53915 0.60708 0.13921 0.0
H188 H 0.47611 0.60893 0.14869 0.0
C189 C 0.2384 0.58773 0.16494 0.0
C190 C 0.31753 0.55342 0.14864 0.0
H191 H 0.40865 0.5677 0.16974 0.0
C192 C 0.32503 0.54395 0.12948 0.0
C193 C 0.34877 0.5622 0.16322 0.0
C194 C 0.34311 0.57126 0.18426 0.0
C195 C 0.36199 0.54355 0.12451 0.0
C196 C 0.39291 0.55143 0.13915 0.0
C197 C 0.38563 0.56136 0.15831 0.0
C198 C 0.43229 0.54911 0.13483 0.0
C199 C 0.3679 0.536 0.10328 0.0
C200 C 0.43007 0.51431 0.12457 0.0
C201 C 0.46625 0.51331 0.11915 0.0
C202 C 0.50656 0.54656 0.12411 0.0
C203 C 0.50901 0.58046 0.13534 0.0
C204 C 0.4726 0.58165 0.14064 0.0
H205 H 0.34986 0.54477 0.0935 0.0
H206 H 0.40111 0.55384 0.09946 0.0
H207 H 0.3565 0.50241 0.10034 0.0
H208 H 0.40011 0.48782 0.12037 0.0
H209 H 0.46265 0.48667 0.11046 0.0
H210 H 0.66371 0.21239 0.50802 0.0
H211 H 0.72792 0.27783 0.50244 0.0
H212 H 0.77685 0.20958 0.47135 0.0
H213 H 0.71336 0.14431 0.47718 0.0
H214 H 0.81041 0.31349 0.5114 0.0
H215 H 0.79425 0.29139 0.43108 0.0
H216 H 0.75286 0.25906 0.44681 0.0
H217 H 0.79449 0.24859 0.44211 0.0
C218 C 0.68807 0.21109 0.5 0.0
C219 C 0.68244 0.1722 0.49305 0.0
C220 C 0.72516 0.24898 0.49673 0.0
C221 C 0.75776 0.24985 0.48584 0.0
C222 C 0.75239 0.21091 0.47925 0.0
H223 H 1.00094 0.43084 0.44127 0.0
H224 H 0.93719 0.3706 0.4515 0.0
C225 C 0.71573 0.17308 0.48278 0.0
C226 C 0.79704 0.29081 0.48135 0.0
H227 H 0.85999 0.34454 0.44388 0.0
C228 C 0.82098 0.32019 0.49658 0.0
C229 C 0.81161 0.30099 0.46205 0.0
C230 C 0.78677 0.27361 0.44455 0.0
C231 C 0.8591 0.35738 0.49325 0.0
C232 C 0.8743 0.3669 0.47397 0.0
C233 C 0.84964 0.33798 0.45874 0.0
C234 C 0.9158 0.4054 0.46912 0.0
C235 C 0.88357 0.38524 0.51068 0.0
C236 C 0.92711 0.44654 0.4756 0.0
C237 C 0.96466 0.48167 0.46988 0.0
C238 C 0.9922 0.47723 0.45721 0.0
C239 C 0.98113 0.43611 0.45108 0.0
C240 C 0.94405 0.40121 0.45689 0.0
H241 H 0.87445 0.36848 0.52445 0.0
H242 H 0.91744 0.39815 0.50895 0.0
H243 H 0.87741 0.41149 0.51212 0.0
H244 H 0.90619 0.45188 0.48453 0.0
H245 H 0.97108 0.51249 0.47464 0.0
H246 H 0.64614 0.69624 0.81196 0.0
H247 H 0.64481 0.76038 0.80621 0.0
H248 H 0.52003 0.70463 0.82678 0.0
H249 H 0.52089 0.64016 0.83238 0.0
H250 H 0.58359 0.77047 0.78125 0.0
H251 H 0.58302 0.81988 0.85886 0.0
H252 H 0.60717 0.78973 0.85171 0.0
H253 H 0.55174 0.76561 0.8515 0.0
C254 C 0.61835 0.69742 0.8154 0.0
C255 C 0.58377 0.66231 0.82284 0.0
C256 C 0.61761 0.73447 0.81204 0.0
C257 C 0.58254 0.73838 0.81625 0.0
C258 C 0.5479 0.70337 0.82364 0.0
H259 H 0.53274 0.95035 0.80805 0.0
H260 H 0.53169 0.88603 0.81685 0.0
C261 C 0.54843 0.66612 0.82681 0.0
C262 C 0.5819 0.77836 0.81238 0.0
H263 H 0.58024 0.86209 0.83493 0.0
C264 C 0.58294 0.79041 0.79306 0.0
C265 C 0.58062 0.80491 0.82755 0.0
C266 C 0.58072 0.79484 0.84863 0.0
C267 C 0.58236 0.82718 0.78853 0.0
C268 C 0.58216 0.8545 0.80372 0.0
C269 C 0.5806 0.84208 0.82308 0.0
C270 C 0.58435 0.89596 0.79969 0.0
C271 C 0.58065 0.83548 0.76727 0.0
C272 C 0.61517 0.92502 0.78777 0.0
C273 C 0.61571 0.9618 0.78272 0.0
C274 C 0.586 0.97202 0.78964 0.0
C275 C 0.55649 0.94427 0.80251 0.0
C276 C 0.55573 0.90701 0.80745 0.0
H277 H 0.56675 0.80625 0.75796 0.0
H278 H 0.56226 0.85107 0.76488 0.0
H279 H 0.6127 0.85582 0.76233 0.0
H280 H 0.63885 0.91907 0.78202 0.0
H281 H 0.63918 0.98207 0.7729 0.0
H282 H 0.99251 0.61963 0.14928 0.0
H283 H 0.92692 0.61896 0.14332 0.0
H284 H 0.85837 0.49006 0.15698 0.0
H285 H 0.92375 0.49056 0.16298 0.0
H286 H 0.86173 0.57453 0.11674 0.0
H287 H 0.7989 0.53473 0.1907 0.0
H288 H 0.85236 0.55095 0.18566 0.0
H289 H 0.81203 0.49848 0.17952 0.0
C290 C 0.96359 0.59108 0.15119 0.0
C291 C 0.9643 0.55527 0.15687 0.0
C292 C 0.92568 0.5907 0.14769 0.0
C293 C 0.88667 0.55469 0.14995 0.0
C294 C 0.88734 0.5188 0.15551 0.0
H295 H 0.62257 0.49537 0.1349 0.0
H296 H 0.68711 0.49541 0.14355 0.0
C297 C 0.92522 0.51907 0.15887 0.0
C298 C 0.84583 0.5545 0.14599 0.0
H299 H 0.7535 0.53504 0.16633 0.0
C300 C 0.83831 0.56607 0.1277 0.0
C301 C 0.81416 0.54307 0.15996 0.0
C302 C 0.81973 0.53144 0.18013 0.0
C303 C 0.80081 0.56587 0.12296 0.0
C304 C 0.76939 0.55531 0.13706 0.0
C305 C 0.77684 0.54345 0.15533 0.0
C306 C 0.72907 0.55637 0.13312 0.0
C307 C 0.79487 0.57551 0.1024 0.0
C308 C 0.72963 0.59105 0.12504 0.0
C309 C 0.69251 0.5909 0.12002 0.0
C310 C 0.65292 0.55663 0.12337 0.0
C311 C 0.65214 0.52276 0.13241 0.0
C312 C 0.68943 0.52269 0.13723 0.0
H313 H 0.81356 0.56855 0.09194 0.0
H314 H 0.76178 0.55746 0.09739 0.0
H315 H 0.80552 0.60914 0.10189 0.0
H316 H 0.75899 0.61838 0.12226 0.0
H317 H 0.6948 0.61747 0.11295 0.0
H318 H 0.47014 0.89526 0.49843 0.0
H319 H 0.40429 0.82963 0.49259 0.0
H320 H 0.3442 0.89785 0.47631 0.0
H321 H 0.40971 0.9634 0.48214 0.0
H322 H 0.32494 0.79641 0.50871 0.0
H323 H 0.31065 0.8148 0.42978 0.0
H324 H 0.35831 0.84668 0.44384 0.0
H325 H 0.31654 0.85788 0.44505 0.0
C326 C 0.44302 0.89655 0.4936 0.0
C327 C 0.44614 0.93551 0.49077 0.0
C328 C 0.40496 0.85859 0.49026 0.0
C329 C 0.36844 0.85776 0.48363 0.0
C330 C 0.37144 0.89666 0.48099 0.0
H331 H 0.11374 0.66449 0.44464 0.0
H332 H 0.17813 0.72852 0.45435 0.0
C333 C 0.40932 0.9346 0.4845 0.0
C334 C 0.32757 0.8167 0.47955 0.0
H335 H 0.25241 0.75939 0.44386 0.0
C336 C 0.30929 0.78838 0.49447 0.0
C337 C 0.30616 0.80525 0.46106 0.0
C338 C 0.32399 0.83247 0.44393 0.0
C339 C 0.27059 0.75052 0.49166 0.0
C340 C 0.24912 0.73896 0.47311 0.0
C341 C 0.26777 0.76726 0.45817 0.0
C342 C 0.20742 0.69857 0.46879 0.0
C343 C 0.25248 0.72419 0.50903 0.0
C344 C 0.20035 0.6589 0.47371 0.0
C345 C 0.16248 0.62178 0.46848 0.0
C346 C 0.1302 0.62262 0.45789 0.0
C347 C 0.1371 0.6622 0.45317 0.0
C348 C 0.17458 0.69918 0.45856 0.0
H349 H 0.26459 0.74298 0.52301 0.0
H350 H 0.21806 0.70884 0.5087 0.0
H351 H 0.26147 0.69987 0.50889 0.0
H352 H 0.2248 0.65621 0.48094 0.0
H353 H 0.15937 0.59216 0.47184 0.0
H354 H 0.51973 0.38939 0.81379 0.0
H355 H 0.52033 0.32414 0.80867 0.0
H356 H 0.64768 0.38489 0.82966 0.0
H357 H 0.64713 0.45031 0.83499 0.0
H358 H 0.56353 0.30099 0.78522 0.0
H359 H 0.60251 0.28292 0.86094 0.0
H360 H 0.58762 0.32065 0.85505 0.0
H361 H 0.63976 0.33121 0.85111 0.0
C362 C 0.54792 0.38908 0.81753 0.0
C363 C 0.58327 0.42589 0.82503 0.0
C364 C 0.54826 0.35132 0.81451 0.0
C365 C 0.58379 0.34833 0.81901 0.0
C366 C 0.61925 0.38512 0.82644 0.0
H367 H 0.63992 0.14081 0.80447 0.0
H368 H 0.64175 0.20659 0.81361 0.0
C369 C 0.61899 0.42303 0.82941 0.0
C370 C 0.58381 0.30736 0.81525 0.0
H371 H 0.60219 0.23539 0.83668 0.0
C372 C 0.57184 0.28677 0.7966 0.0
C373 C 0.59491 0.28795 0.82979 0.0
C374 C 0.60657 0.30653 0.8504 0.0
C375 C 0.57117 0.24875 0.79207 0.0
C376 C 0.58155 0.22889 0.80668 0.0
C377 C 0.59396 0.24967 0.82531 0.0
C378 C 0.57935 0.18683 0.80286 0.0
C379 C 0.56054 0.23102 0.77128 0.0
C380 C 0.54326 0.15207 0.79453 0.0
C381 C 0.5422 0.11432 0.78938 0.0
C382 C 0.5768 0.10903 0.79273 0.0
C383 C 0.61223 0.14293 0.80204 0.0
C384 C 0.6134 0.181 0.8071 0.0
H385 H 0.56702 0.25555 0.76085 0.0
H386 H 0.57834 0.21546 0.76694 0.0
H387 H 0.52688 0.20789 0.7699 0.0
H388 H 0.51582 0.15427 0.79154 0.0
H389 H 0.51451 0.08946 0.78201 0.0
H390 H 0.59359 0.81515 0.50825 0.0
H391 H 0.61244 0.7624 0.51384 0.0
H392 H 0.68197 0.79287 0.46097 0.0
H393 H 0.66344 0.84643 0.45533 0.0
H394 H 0.60895 0.69361 0.49466 0.0
H395 H 0.77127 0.82605 0.50393 0.0
H396 H 0.72735 0.83381 0.50145 0.0
H397 H 0.74635 0.8189 0.4804 0.0
C398 C 0.61165 0.80972 0.4974 0.0
C399 C 0.62757 0.83534 0.48149 0.0
C400 C 0.62255 0.77961 0.50067 0.0
C401 C 0.64943 0.77453 0.48808 0.0
C402 C 0.66196 0.79708 0.4711 0.0
H403 H 0.72615 0.59896 0.52673 0.0
H404 H 0.70352 0.63463 0.50483 0.0
C405 C 0.65129 0.82751 0.46787 0.0
C406 C 0.66823 0.74984 0.49437 0.0
H407 H 0.75897 0.761 0.51288 0.0
C408 C 0.64187 0.708 0.49832 0.0
C409 C 0.71115 0.76909 0.49936 0.0
C410 C 0.74077 0.81448 0.49624 0.0
C411 C 0.65692 0.68535 0.50796 0.0
C412 C 0.69961 0.70499 0.5134 0.0
C413 C 0.7263 0.74617 0.50861 0.0
C414 C 0.7164 0.6849 0.52584 0.0
C415 C 0.62661 0.6415 0.51328 0.0
C416 C 0.73271 0.70234 0.5446 0.0
C417 C 0.74638 0.6825 0.55703 0.0
C418 C 0.74401 0.64486 0.55089 0.0
C419 C 0.72887 0.62818 0.53183 0.0
C420 C 0.71538 0.64818 0.51937 0.0
H421 H 0.5938 0.6339 0.51134 0.0
H422 H 0.63117 0.61935 0.50376 0.0
H423 H 0.63197 0.6367 0.52869 0.0
H424 H 0.73395 0.73085 0.5498 0.0
H425 H 0.75832 0.69632 0.57153 0.0
H426 H 0.81561 0.52561 0.79823 0.0
H427 H 0.87614 0.51562 0.79832 0.0
H428 H 0.95165 0.6393 0.82447 0.0
H429 H 0.8922 0.64938 0.82451 0.0
H430 H 0.9946 0.61631 0.79791 0.0
H431 H 0.90983 0.49538 0.85196 0.0
H432 H 0.88816 0.48844 0.82762 0.0
H433 H 0.88987 0.52797 0.84418 0.0
C434 C 0.84538 0.55086 0.80366 0.0
C435 C 0.849 0.58811 0.81158 0.0
C436 C 0.87986 0.54513 0.80364 0.0
C437 C 0.91815 0.5765 0.81166 0.0
C438 C 0.92242 0.61474 0.8181 0.0
H439 H 1.08143 0.64596 0.89675 0.0
H440 H 1.02419 0.61293 0.87259 0.0
C441 C 0.88827 0.6205 0.81808 0.0
C442 C 0.95248 0.56885 0.81645 0.0
H443 H 0.98212 0.53192 0.8544 0.0
C444 C 0.99202 0.5967 0.80975 0.0
C445 C 0.94872 0.54286 0.83177 0.0
C446 C 0.90698 0.51193 0.83941 0.0
C447 C 1.02807 0.60363 0.81982 0.0
C448 C 1.02406 0.58127 0.83666 0.0
C449 C 0.98479 0.54926 0.84159 0.0
C450 C 1.05796 0.59692 0.85163 0.0
C451 C 1.06971 0.63803 0.81374 0.0
C452 C 0.09562 0.59824 0.84794 0.0
C453 C 0.12852 0.61744 0.86171 0.0
C454 C 0.12398 0.63521 0.8794 0.0
C455 C 0.08569 0.63236 0.88331 0.0
C456 C 1.05302 0.61346 0.86953 0.0
H457 H 1.06692 0.65433 0.80107 0.0
H458 H 1.08545 0.66118 0.8261 0.0
H459 H 0.0898 0.62491 0.80963 0.0
H460 H 0.09977 0.5851 0.83433 0.0
H461 H 0.15757 0.6186 0.85851 0.0
H462 H 0.32599 0.75541 0.1305 0.0
H463 H 0.40098 0.8033 0.12821 0.0
H464 H 0.38948 0.89615 0.16297 0.0
H465 H 0.31556 0.84896 0.16554 0.0
H466 H 0.44577 0.92786 0.13145 0.0
H467 H 0.47445 0.82418 0.17781 0.0
H468 H 0.44657 0.80489 0.15468 0.0
H469 H 0.42263 0.81611 0.17487 0.0
C470 C 0.3395 0.78627 0.13743 0.0
C471 C 0.31488 0.79827 0.14837 0.0
C472 C 0.38223 0.81354 0.13604 0.0
C473 C 0.40071 0.85302 0.14557 0.0
C474 C 0.37572 0.86586 0.15538 0.0
H475 H 0.52975 1.00374 0.22709 0.0
H476 H 0.49935 0.945 0.20338 0.0
C477 C 0.33332 0.83882 0.15679 0.0
C478 C 0.44621 0.88 0.14781 0.0
H479 H 0.52169 0.89557 0.18113 0.0
C480 C 0.46347 0.9207 0.14167 0.0
C481 C 0.46924 0.87008 0.16086 0.0
C482 C 0.45255 0.8265 0.16752 0.0
C483 C 0.4998 0.95312 0.15071 0.0
C484 C 0.51958 0.94399 0.16592 0.0
C485 C 0.50604 0.90238 0.16965 0.0
C486 C 0.54489 0.97605 0.18133 0.0
C487 C 0.51334 0.99721 0.14572 0.0
C488 C 0.58179 1.0123 0.1772 0.0
C489 C 0.59897 1.04624 0.19075 0.0
C490 C 0.5798 1.04397 0.20866 0.0
C491 C 0.54527 1.00629 0.21346 0.0
C492 C 0.52792 0.97268 0.19988 0.0
H493 H 0.49295 0.99871 0.13423 0.0
H494 H 0.51312 1.01539 0.15893 0.0
H495 H 0.54548 1.01229 0.14035 0.0
H496 H 0.59587 1.0152 0.16314 0.0
H497 H 0.62609 0.07488 0.18688 0.0
H498 H 0.6037 0.32704 0.48629 0.0
H499 H 0.67077 0.39014 0.49111 0.0
H500 H 0.73301 0.32289 0.47368 0.0
H501 H 0.66573 0.259 0.46949 0.0
H502 H 0.75653 0.35703 0.51005 0.0
H503 H 0.7681 0.47837 0.46343 0.0
H504 H 0.71642 0.45184 0.47235 0.0
H505 H 0.73431 0.42373 0.45697 0.0
C506 C 0.63156 0.32586 0.48298 0.0
C507 C 0.62939 0.2879 0.4779 0.0
C508 C 0.66999 0.36214 0.48545 0.0
C509 C 0.70702 0.36129 0.48271 0.0
C510 C 0.70484 0.32422 0.47584 0.0
H511 H 0.84517 0.59353 0.54562 0.0
H512 H 0.85159 0.54437 0.52309 0.0
C513 C 0.66628 0.28778 0.47338 0.0
C514 C 0.74632 0.39636 0.49111 0.0
H515 H 0.78852 0.50069 0.49876 0.0
C516 C 0.76493 0.3887 0.50713 0.0
C517 C 0.75889 0.4378 0.48696 0.0
C518 C 0.74362 0.4483 0.46881 0.0
C519 C 0.78972 0.42069 0.52098 0.0
C520 C 0.79539 0.46079 0.51872 0.0
C521 C 0.78318 0.46968 0.50092 0.0
C522 C 0.80262 0.4896 0.53582 0.0
C523 C 0.80625 0.41041 0.53877 0.0
C524 C 0.77451 0.47519 0.5511 0.0
C525 C 0.77059 0.5031 0.56386 0.0
C526 C 0.79448 0.54603 0.56148 0.0
C527 C 0.82589 0.56053 0.5476 0.0
C528 C 0.82978 0.53251 0.53479 0.0
H529 H 0.81479 0.38639 0.53494 0.0
H530 H 0.83378 0.43841 0.54548 0.0
H531 H 0.78164 0.39729 0.54973 0.0
H532 H 0.75232 0.44239 0.55196 0.0
H533 H 0.7458 0.49078 0.57419 0.0
H534 H 0.41668 0.63127 0.78349 0.0
H535 H 0.41173 0.69423 0.79034 0.0
H536 H 0.42795 0.68495 0.85205 0.0
H537 H 0.43294 0.62306 0.84528 0.0
H538 H 0.34913 0.68987 0.81081 0.0
H539 H 0.49158 0.80911 0.84843 0.0
H540 H 0.4904 0.76844 0.83256 0.0
H541 H 0.47951 0.7605 0.8582 0.0
C542 C 0.4199 0.64339 0.79843 0.0
C543 C 0.42403 0.62196 0.81393 0.0
C544 C 0.41752 0.67943 0.80231 0.0
C545 C 0.42027 0.69482 0.82167 0.0
C546 C 0.4269 0.67454 0.83695 0.0
H547 H 0.30192 0.69985 0.90644 0.0
H548 H 0.35976 0.72222 0.88448 0.0
C549 C 0.42876 0.63855 0.83313 0.0
C550 C 0.40732 0.72564 0.82682 0.0
H551 H 0.42465 0.79429 0.86506 0.0
C552 C 0.36619 0.71432 0.82198 0.0
C553 C 0.42988 0.75825 0.841 0.0
C554 C 0.4755 0.77501 0.84513 0.0
C555 C 0.34478 0.72905 0.83346 0.0
C556 C 0.36556 0.75621 0.84995 0.0
C557 C 0.40853 0.7728 0.85269 0.0
C558 C 0.34137 0.75757 0.86671 0.0
C559 C 0.29875 0.71092 0.82944 0.0
C560 C 0.31391 0.77287 0.86494 0.0
C561 C 0.28058 0.75982 0.87746 0.0
C562 C 0.27473 0.73171 0.89194 0.0
C563 C 0.30566 0.72145 0.89541 0.0
C564 C 0.33878 0.73429 0.88284 0.0
H565 H 0.2873 0.68908 0.81636 0.0
H566 H 0.281 0.69398 0.84221 0.0
H567 H 0.292 0.73629 0.82697 0.0
H568 H 0.31581 0.79141 0.85277 0.0
H569 H 0.25735 0.76864 0.87471 0.0
H570 H 0.8288 0.2875 0.14347 0.0
H571 H 0.7556 0.26128 0.14729 0.0
H572 H 0.76246 0.36125 0.11474 0.0
H573 H 0.83622 0.38666 0.10948 0.0
H574 H 0.73711 0.35886 0.1543 0.0
H575 H 0.64383 0.20556 0.11642 0.0
H576 H 0.69109 0.21048 0.12615 0.0
H577 H 0.69341 0.24478 0.1077 0.0
C578 C 0.81487 0.30298 0.13612 0.0
C579 C 0.83913 0.33985 0.12644 0.0
C580 C 0.77263 0.28785 0.13841 0.0
C581 C 0.7536 0.30931 0.13128 0.0
C582 C 0.77664 0.34423 0.12031 0.0
H583 H 0.55128 0.15834 0.1986 0.0
H584 H 0.57196 0.21019 0.17384 0.0
C585 C 0.81894 0.35893 0.11757 0.0
C586 C 0.71269 0.29916 0.13887 0.0
H587 H 0.6261 0.21097 0.1509 0.0
C588 C 0.71168 0.32698 0.15303 0.0
C589 C 0.67883 0.25824 0.1368 0.0
C590 C 0.67665 0.22824 0.12075 0.0
C591 C 0.6815 0.31268 0.16738 0.0
C592 C 0.65245 0.26971 0.16755 0.0
C593 C 0.64902 0.24382 0.15125 0.0
C594 C 0.63432 0.24918 0.18596 0.0
C595 C 0.68346 0.343 0.1832 0.0
C596 C 0.66141 0.25542 0.20184 0.0
C597 C 0.64949 0.22603 0.21607 0.0
C598 C 0.61056 0.18978 0.21444 0.0
C599 C 0.58163 0.18608 0.20002 0.0
C600 C 0.59339 0.21571 0.1859 0.0
H601 H 0.69054 0.37278 0.17684 0.0
H602 H 0.65386 0.33058 0.19106 0.0
H603 H 0.70906 0.35 0.19383 0.0
H604 H 0.69344 0.28033 0.2021 0.0
H605 H 0.67236 0.22936 0.22697 0.0
H606 H 1.06089 0.50625 0.09494 0.0
H607 H 1.0783 0.51846 0.06038 0.0
H608 H 0.15439 0.64991 0.07471 0.0
H609 H 0.13867 0.63775 0.10906 0.0
H610 H 1.06643 0.56145 0.03402 0.0
H611 H 0.23553 0.62968 0.04563 0.0
H612 H 0.19931 0.60396 0.0646 0.0
H613 H 0.21733 0.65783 0.06039 0.0
C614 C 1.0813 0.53768 0.09063 0.0
C615 C 0.0989 0.57098 0.10466 0.0
C616 C 0.09131 0.54462 0.07094 0.0
C617 C 0.11874 0.58497 0.06505 0.0
C618 C 0.13455 0.61834 0.07899 0.0
H619 H 0.13765 0.68129 0.95149 0.0
H620 H 0.1214 0.65823 0.98489 0.0
C621 C 0.12521 0.61138 0.09861 0.0
C622 C 0.1303 0.59282 0.04434 0.0
H623 H 0.21357 0.6457 0.01554 0.0
C624 C 0.09861 0.57937 0.02993 0.0
C625 C 0.17232 0.61522 0.03886 0.0
C626 C 0.208 0.62703 0.05318 0.0
C627 C 0.10775 0.58955 0.01038 0.0
C628 C 0.14967 0.61524 0.00528 0.0
C629 C 0.1814 0.62683 0.0195 0.0
C630 C 0.16124 0.63117 0.98542 0.0
C631 C 1.07231 0.57233 -0.00455 0.0
C632 C 0.19105 0.62607 0.97506 0.0
C633 C 0.20137 0.64052 0.95623 0.0
C634 C 0.18175 0.65993 0.94746 0.0
C635 C 0.15294 0.66616 0.95801 0.0
C636 C 0.14325 0.65248 0.97694 0.0
H637 H 1.04569 0.54265 1e-05 0.0
H638 H 1.06114 0.5948 -0.00591 0.0
H639 H 1.08204 0.56676 0.98089 0.0
H640 H 0.20566 0.61011 0.98137 0.0
H641 H 0.22345 0.63516 0.94824 0.0
H642 H 0.54918 0.10506 0.43692 0.0
H643 H 0.5581 0.11467 0.40196 0.0
H644 H 0.5971 1.0232 0.39742 0.0
H645 H 0.58723 1.01264 0.43248 0.0
H646 H 0.62909 0.14224 0.38216 0.0
H647 H 0.51124 0.98437 0.3532 0.0
H648 H 0.51323 1.00152 0.3784 0.0
H649 H 0.54867 0.98492 0.37009 0.0
C650 C 0.5593 0.08669 0.42849 0.0
C651 C 0.56746 0.05806 0.43745 0.0
C652 C 0.56442 0.09225 0.4085 0.0
C653 C 0.5779 0.06941 0.39706 0.0
C654 C 0.58582 1.04052 0.4059 0.0
H655 H 0.64108 0.08231 0.27461 0.0
H656 H 0.6375 0.07249 0.30979 0.0
C657 C 0.5803 1.03462 0.42594 0.0
C658 C 0.58512 0.07729 0.37604 0.0
H659 H 0.55539 1.03136 0.33017 0.0
C660 C 0.61293 0.118 0.3708 0.0
C661 C 0.56398 1.04558 0.36126 0.0
C662 C 0.53232 1.00172 0.36596 0.0
C663 C 0.62012 0.12787 0.35114 0.0
C664 C 0.59894 0.09623 0.33643 0.0
C665 C 0.57162 1.05543 0.3416 0.0
C666 C 0.60376 0.10499 0.31552 0.0
C667 C 0.65037 0.17194 0.34616 0.0
C668 C 0.58625 0.12685 0.30726 0.0
C669 C 0.58774 0.13209 0.28714 0.0
C670 C 0.60681 0.11551 0.27499 0.0
C671 C 0.62556 0.09485 0.28351 0.0
C672 C 0.62377 0.08938 0.30359 0.0
H673 H 0.66949 0.19111 0.35911 0.0
H674 H 0.67135 0.17236 0.3346 0.0
H675 H 0.6329 0.18646 0.34042 0.0
H676 H 0.5703 0.13871 0.31629 0.0
H677 H 0.57251 0.14764 0.28103 0.0
H678 H 0.65996 0.53918 0.77415 0.0
H679 H 0.67703 0.54356 0.73988 0.0
H680 H 0.56735 0.54983 0.72511 0.0
H681 H 0.5502 0.54629 0.75984 0.0
H682 H 0.63321 0.49191 0.70825 0.0
H683 H 0.65972 0.65157 0.69985 0.0
H684 H 0.65517 0.63002 0.72345 0.0
H685 H 0.60957 0.61431 0.70833 0.0
C686 C 0.63927 0.54147 0.76371 0.0
C687 C 0.60376 0.54264 0.76978 0.0
C688 C 0.64912 0.54389 0.74406 0.0
C689 C 0.62379 0.54751 0.72997 0.0
C690 C 0.58774 0.5478 0.73582 0.0
H691 H 0.66824 0.57819 0.60513 0.0
H692 H 0.63632 0.56606 0.63702 0.0
C693 C 0.57786 0.54553 0.75563 0.0
C694 C 0.63596 0.55121 0.70928 0.0
H695 H 0.67044 0.61852 0.67231 0.0
C696 C 0.64107 0.51946 0.70034 0.0
C697 C 0.64626 0.58724 0.69901 0.0
C698 C 0.64278 0.62295 0.70813 0.0
C699 C 0.6569 0.52308 0.68154 0.0
C700 C 0.66823 0.55954 0.67152 0.0
C701 C 0.66186 0.5907 0.68014 0.0
C702 C 0.68761 0.56634 0.65223 0.0
C703 C 0.66153 0.48796 0.67256 0.0
C704 C 0.72721 0.57081 0.65029 0.0
C705 C 0.74586 0.57827 0.6321 0.0
C706 C 0.72525 0.58154 0.61557 0.0
C707 C 0.68541 0.57673 0.61762 0.0
C708 C 0.66692 0.56949 0.63579 0.0
H709 H 0.64261 0.45856 0.68005 0.0
H710 H 0.65222 0.4826 0.6568 0.0
H711 H 0.6946 0.49622 0.67382 0.0
H712 H 0.7439 0.56907 0.66291 0.0
H713 H 0.77667 0.58219 0.63105 0.0
H714 H 0.62167 1.04401 0.56209 0.0
H715 H 0.62265 1.04004 0.59764 0.0
H716 H 0.51703 0.05827 0.60097 0.0
H717 H 0.5152 0.06124 0.56538 0.0
H718 H 0.63394 0.0949 0.62697 0.0
H719 H 0.47718 0.95741 0.63262 0.0
H720 H 0.50201 0.97339 0.60953 0.0
H721 H 0.47632 0.99891 0.62056 0.0
C722 C 0.5985 1.04705 0.57034 0.0
C723 C 0.56816 1.05269 0.56073 0.0
C724 C 0.59913 1.04478 0.59075 0.0
C725 C 0.56943 1.04801 0.60214 0.0
C726 C 0.53961 1.05448 0.5926 0.0
H727 H 0.52824 1.0554 0.72713 0.0
H728 H 0.52715 0.05753 0.69147 0.0
C729 C 0.5388 0.0565 0.57218 0.0
C730 C 0.5703 1.04546 0.62394 0.0
H731 H 0.51103 0.99422 0.66249 0.0
C732 C 0.6071 0.07266 0.63468 0.0
C733 C 0.53539 1.01644 0.63418 0.0
C734 C 0.49563 0.9846 0.62363 0.0
C735 C 0.60965 0.07228 0.65522 0.0
C736 C 0.57463 1.04358 0.66544 0.0
C737 C 0.53788 1.01631 0.65473 0.0
C738 C 0.57532 1.04176 0.68724 0.0
C739 C 0.6496 0.10334 0.66588 0.0
C740 C 0.6023 1.03153 0.69688 0.0
C741 C 0.60301 1.03027 0.71735 0.0
C742 C 0.57678 1.03929 0.72873 0.0
C743 C 0.54935 1.04889 0.71896 0.0
C744 C 0.5485 1.0499 0.6985 0.0
H745 H 0.66995 0.12929 0.65659 0.0
H746 H 0.64321 0.11646 0.67938 0.0
H747 H 0.66685 0.08752 0.67017 0.0
H748 H 0.62283 1.02442 0.68856 0.0
H749 H 0.62467 1.02296 0.7243 0.0
H750 H 0.63778 0.58947 0.89724 0.0
H751 H 0.63548 0.58779 0.93273 0.0
H752 H 0.5054 0.49501 0.92838 0.0
H753 H 0.50794 0.49545 0.89259 0.0
H754 H 0.59641 0.60735 0.95829 0.0
H755 H 0.54407 0.44069 0.96547 0.0
H756 H 0.56003 0.46543 0.94253 0.0
H757 H 0.50853 0.44873 0.95101 0.0
C758 C 0.6086 0.56848 0.90375 0.0
C759 C 0.57305 0.54245 0.8919 0.0
C760 C 0.60733 0.56759 0.92417 0.0
C761 C 0.57046 0.54081 0.9335 0.0
C762 C 0.53464 0.51516 0.92172 0.0
H763 H 0.54288 0.5822 0.05857 0.0
H764 H 0.53922 0.57882 0.02296 0.0
C765 C 0.53601 0.51567 0.90118 0.0
C766 C 0.56982 0.54093 0.95546 0.0
H767 H 0.54584 0.47878 -0.00552 0.0
C768 C 0.58537 0.57915 0.96615 0.0
C769 C 0.5561 0.50438 0.96595 0.0
C770 C 0.54165 0.46256 0.95567 0.0
C771 C 0.58754 0.5819 0.98676 0.0
C772 C 0.57243 0.5452 -0.00274 0.0
C773 C 0.55704 0.50697 0.98659 0.0
C774 C 0.57319 0.54589 0.01923 0.0
C775 C 0.60738 0.62446 -0.00301 0.0
C776 C 0.59194 0.52699 0.02934 0.0
C777 C 0.5931 0.52785 0.04987 0.0
C778 C 0.57559 0.54772 0.06098 0.0
C779 C 0.55641 0.5662 0.05075 0.0
C780 C 0.55488 0.56492 0.03023 0.0
H781 H 0.62866 0.64899 0.98728 0.0
H782 H 0.58276 0.63157 0.00124 0.0
H783 H 0.62525 0.62604 0.01036 0.0
H784 H 0.60604 0.51174 0.02133 0.0
H785 H 0.60739 0.51245 0.057 0.0
H786 H 1.06114 0.47834 0.22692 0.0
H787 H 1.05647 0.47453 0.26264 0.0
H788 H 1.07901 0.60008 0.26746 0.0
H789 H 1.0828 0.60381 0.23208 0.0
H790 H 0.11195 0.51945 0.29251 0.0
H791 H 0.97643 0.54232 0.29902 0.0
H792 H 0.99235 0.53124 0.2758 0.0
H793 H 1.01803 0.58341 0.28657 0.0
C794 C 1.06488 0.50505 0.23558 0.0
C795 C 1.07192 0.54121 0.22645 0.0
C796 C 1.06224 0.50287 0.25605 0.0
C797 C 1.06643 0.53669 0.26789 0.0
C798 C 1.07438 0.57304 0.25878 0.0
H799 H 1.07886 0.60663 0.39143 0.0
H800 H 1.08005 0.60265 0.35569 0.0
C801 C 1.07681 0.57519 0.23842 0.0
C802 C 1.06344 0.53468 0.28972 0.0
H803 H 1.01483 0.55076 0.32864 0.0
C804 C 0.09037 0.52584 0.30037 0.0
C805 C 1.03529 0.54295 0.30016 0.0
C806 C 1.0036 0.55009 0.28979 0.0
C807 C 0.09092 0.5265 0.32101 0.0
C808 C 1.06347 0.53577 0.33141 0.0
C809 C 1.03611 0.54393 0.32077 0.0
C810 C 1.06306 0.53786 0.35332 0.0
C811 C 0.12187 0.51858 0.33154 0.0
C812 C 1.05265 0.50269 0.36407 0.0
C813 C 1.05192 0.50486 0.38459 0.0
C814 C 1.06165 0.54233 0.39494 0.0
C815 C 1.07177 0.5774 0.38408 0.0
C816 C 1.07224 0.57512 0.36357 0.0
H817 H 0.14691 0.52142 0.32184 0.0
H818 H 0.13625 0.5406 0.34442 0.0
H819 H 0.1056 0.48658 0.33683 0.0
H820 H 1.04475 0.47336 0.35658 0.0
H821 H 1.04422 0.47725 0.39238 0.0
loop_
_geom_bond_atom_site_label_1
_geom_bond_atom_site_label_2
_geom_bond_distance
_geom_bond_site_symmetry_2
_ccdc_geom_bond_type
Eu0 C9 2.828 . S
Eu0 O11 2.392 1_655 S
Eu0 O13 2.418 . S
Eu0 O18 2.373 . S
Eu0 O21 2.488 . S
Eu0 O22 2.471 . S
Eu0 O23 2.349 . S
Eu1 O10 2.373 . S
Eu1 O14 2.488 . S
Eu1 O15 2.471 . S
Eu1 O16 2.349 . S
Eu1 O19 2.392 1_455 S
Eu1 O20 2.418 . S
Eu1 C30 2.828 . S
C2 O20 1.244 . S
C2 O23 1.265 1_455 S
C3 C4 1.379 . S
C3 C7 1.373 . S
C3 C9 1.505 . S
C4 C3 1.379 . S
C4 C6 1.369 . S
C4 H32 0.930 . S
C5 C7 1.383 . S
C5 C8 1.382 . S
C5 H33 0.930 . S
C6 C4 1.369 . S
C6 C8 1.392 . S
C6 H34 0.930 . S
C7 C3 1.373 . S
C7 C5 1.383 . S
C7 H35 0.931 . S
C8 C5 1.382 . S
C8 C6 1.392 . S
C9 Eu0 2.828 . S
C9 C3 1.505 . S
C9 O21 1.249 . S
C9 O22 1.244 . S
O10 Eu1 2.373 . S
O10 C12 1.258 . S
O11 Eu0 2.392 1_455 S
O11 C12 1.242 . S
C12 O10 1.258 . S
C12 O11 1.242 . S
O13 Eu0 2.418 . S
O13 C17 1.241 1_655 S
O14 Eu1 2.488 . S
O14 C30 1.249 . S
O15 Eu1 2.471 . S
O15 C30 1.244 . S
O16 Eu1 2.349 . S
O16 C17 1.268 . S
C17 O13 1.241 1_455 S
C17 O16 1.268 . S
O18 Eu0 2.373 . S
O18 C31 1.258 . S
O19 Eu1 2.392 1_655 S
O19 C31 1.242 . S
O20 Eu1 2.418 . S
O20 C2 1.244 . S
O21 Eu0 2.488 . S
O21 C9 1.249 . S
O22 Eu0 2.471 . S
O22 C9 1.244 . S
O23 Eu0 2.349 . S
O23 C2 1.265 1_655 S
C24 C25 1.379 . S
C24 C28 1.373 . S
C24 C30 1.505 . S
C25 C24 1.379 . S
C25 C27 1.369 . S
C25 H36 0.930 . S
C26 C28 1.383 . S
C26 C29 1.382 . S
C26 H37 0.930 . S
C27 C25 1.369 . S
C27 C29 1.392 . S
C27 H38 0.930 . S
C28 C24 1.373 . S
C28 C26 1.383 . S
C28 H39 0.931 . S
C29 C26 1.382 . S
C29 C27 1.392 . S
C30 Eu1 2.828 . S
C30 O14 1.249 . S
C30 O15 1.244 . S
C30 C24 1.505 . S
C31 O18 1.258 . S
C31 O19 1.242 . S
H32 C4 0.930 . S
H33 C5 0.930 . S
H34 C6 0.930 . S
H35 C7 0.931 . S
H36 C25 0.930 . S
H37 C26 0.930 . S
H38 C27 0.930 . S
H39 C28 0.931 . S
Eu40 C49 2.828 . S
Eu40 O51 2.392 1_565 S
Eu40 O53 2.418 . S
Eu40 O58 2.373 . S
Eu40 O61 2.488 . S
Eu40 O62 2.471 . S
Eu40 O63 2.355 . S
Eu41 O50 2.373 . S
Eu41 O54 2.488 . S
Eu41 O55 2.471 . S
Eu41 O56 2.349 . S
Eu41 O59 2.392 1_545 S
Eu41 O60 2.418 . S
Eu41 C70 2.828 . S
C42 O60 1.244 . S
C42 O63 1.259 1_545 S
C43 C44 1.379 . S
C43 C47 1.373 . S
C43 C49 1.505 . S
C44 C43 1.379 . S
C44 C46 1.369 . S
C44 H72 0.930 . S
C45 C47 1.383 . S
C45 C48 1.382 . S
C45 H73 0.930 . S
C46 C44 1.369 . S
C46 C48 1.392 . S
C46 H74 0.930 . S
C47 C43 1.373 . S
C47 C45 1.383 . S
C47 H75 0.931 . S
C48 C45 1.382 . S
C48 C46 1.392 . S
C49 Eu40 2.828 . S
C49 C43 1.505 . S
C49 O61 1.249 . S
C49 O62 1.244 . S
O50 Eu41 2.373 . S
O50 C52 1.258 . S
O51 Eu40 2.392 1_545 S
O51 C52 1.242 . S
C52 O50 1.258 . S
C52 O51 1.242 . S
O53 Eu40 2.418 . S
O53 C57 1.244 1_565 S
O54 Eu41 2.488 . S
O54 C70 1.249 . S
O55 Eu41 2.471 . S
O55 C70 1.244 . S
O56 Eu41 2.349 . S
O56 C57 1.265 . S
C57 O53 1.244 1_545 S
C57 O56 1.265 . S
O58 Eu40 2.373 . S
O58 C71 1.258 . S
O59 Eu41 2.392 1_565 S
O59 C71 1.242 . S
O60 Eu41 2.418 . S
O60 C42 1.244 . S
O61 Eu40 2.488 . S
O61 C49 1.249 . S
O62 Eu40 2.471 . S
O62 C49 1.244 . S
O63 Eu40 2.355 . S
O63 C42 1.259 1_565 S
C64 C65 1.379 . S
C64 C68 1.373 . S
C64 C70 1.505 . S
C65 C64 1.379 . S
C65 C67 1.369 . S
C65 H76 0.930 . S
C66 C68 1.383 . S
C66 C69 1.382 . S
C66 H77 0.930 . S
C67 C65 1.369 . S
C67 C69 1.392 . S
C67 H78 0.930 . S
C68 C64 1.373 . S
C68 C66 1.383 . S
C68 H79 0.931 . S
C69 C66 1.382 . S
C69 C67 1.392 . S
C70 Eu41 2.828 . S
C70 O54 1.249 . S
C70 O55 1.244 . S
C70 C64 1.505 . S
C71 O58 1.258 . S
C71 O59 1.242 . S
H72 C44 0.930 . S
H73 C45 0.930 . S
H74 C46 0.930 . S
H75 C47 0.931 . S
H76 C65 0.930 . S
H77 C66 0.930 . S
H78 C67 0.930 . S
H79 C68 0.931 . S
Eu80 C89 2.828 . S
Eu80 O91 2.392 . S
Eu80 O93 2.418 . S
Eu80 O98 2.373 . S
Eu80 O101 2.488 . S
Eu80 O102 2.471 . S
Eu80 O103 2.349 . S
Eu81 O90 2.373 . S
Eu81 O94 2.488 . S
Eu81 O95 2.471 . S
Eu81 O96 2.349 . S
Eu81 O99 2.392 . S
Eu81 O100 2.418 . S
Eu81 C110 2.828 . S
C82 O100 1.244 . S
C82 O103 1.265 . S
C83 C84 1.379 . S
C83 C87 1.373 . S
C83 C89 1.505 . S
C84 C83 1.379 . S
C84 C86 1.369 . S
C84 H112 0.930 . S
C85 C87 1.383 . S
C85 C88 1.382 . S
C85 H113 0.930 . S
C86 C84 1.369 . S
C86 C88 1.392 . S
C86 H114 0.930 . S
C87 C83 1.373 . S
C87 C85 1.383 . S
C87 H115 0.931 . S
C88 C85 1.382 . S
C88 C86 1.392 . S
C89 Eu80 2.828 . S
C89 C83 1.505 . S
C89 O101 1.249 . S
C89 O102 1.244 . S
O90 Eu81 2.373 . S
O90 C92 1.258 . S
O91 Eu80 2.392 . S
O91 C92 1.242 . S
C92 O90 1.258 . S
C92 O91 1.242 . S
O93 Eu80 2.418 . S
O93 C97 1.244 . S
O94 Eu81 2.488 . S
O94 C110 1.249 . S
O95 Eu81 2.471 . S
O95 C110 1.244 . S
O96 Eu81 2.349 . S
O96 C97 1.265 . S
C97 O93 1.244 . S
C97 O96 1.265 . S
O98 Eu80 2.373 . S
O98 C111 1.258 . S
O99 Eu81 2.392 . S
O99 C111 1.242 . S
O100 Eu81 2.418 . S
O100 C82 1.244 . S
O101 Eu80 2.488 . S
O101 C89 1.249 . S
O102 Eu80 2.471 . S
O102 C89 1.244 . S
O103 Eu80 2.349 . S
O103 C82 1.265 . S
C104 C105 1.379 . S
C104 C108 1.373 . S
C104 C110 1.505 . S
C105 C104 1.379 . S
C105 C107 1.369 . S
C105 H116 0.930 . S
C106 C108 1.383 . S
C106 C109 1.382 . S
C106 H117 0.930 . S
C107 C105 1.369 . S
C107 C109 1.392 . S
C107 H118 0.930 . S
C108 C104 1.373 . S
C108 C106 1.383 . S
C108 H119 0.931 . S
C109 C106 1.382 . S
C109 C107 1.392 . S
C110 Eu81 2.828 . S
C110 O94 1.249 . S
C110 O95 1.244 . S
C110 C104 1.505 . S
C111 O98 1.258 . S
C111 O99 1.242 . S
H112 C84 0.930 . S
H113 C85 0.930 . S
H114 C86 0.930 . S
H115 C87 0.931 . S
H116 C105 0.930 . S
H117 C106 0.930 . S
H118 C107 0.930 . S
H119 C108 0.931 . S
H120 C123 0.931 . S
H121 C126 0.928 . S
H122 C128 0.930 . S
C123 H120 0.931 . S
C123 C124 1.413 . S
C123 C125 1.360 1_565 S
C124 C123 1.413 . S
C124 C128 1.429 1_565 S
C125 C123 1.360 1_545 S
C125 C126 1.372 . S
C126 H121 0.928 . S
C126 C125 1.372 . S
C126 C127 1.404 . S
C127 C126 1.404 . S
C127 C128 1.391 . S
C128 H122 0.930 . S
C128 C124 1.429 1_545 S
C128 C127 1.391 . S
H129 C132 0.931 . S
H130 C135 0.928 . S
H131 C137 0.930 . S
C132 H129 0.931 . S
C132 C133 1.413 . S
C132 C134 1.360 . S
C133 C132 1.413 . S
C133 C137 1.429 . S
C134 C132 1.360 . S
C134 C135 1.372 . S
C135 H130 0.928 . S
C135 C134 1.372 . S
C135 C136 1.404 . S
C136 C135 1.404 . S
C136 C137 1.391 . S
C137 H131 0.930 . S
C137 C133 1.429 . S
C137 C136 1.391 . S
H138 C141 0.931 1_655 S
H139 C144 0.928 . S
H140 C146 0.930 . S
C141 H138 0.931 1_455 S
C141 C142 1.413 . S
C141 C143 1.360 . S
C142 C141 1.413 . S
C142 C146 1.429 . S
C143 C141 1.360 . S
C143 C144 1.372 . S
C144 H139 0.928 . S
C144 C143 1.372 . S
C144 C145 1.404 . S
C145 C144 1.404 . S
C145 C146 1.391 . S
C146 H140 0.930 . S
C146 C142 1.429 . S
C146 C145 1.391 . S
H147 C150 0.931 . S
H148 C153 0.928 . S
H149 C155 0.930 . S
C150 H147 0.931 . S
C150 C151 1.413 . S
C150 C152 1.360 1_655 S
C151 C150 1.413 . S
C151 C155 1.429 1_655 S
C152 C150 1.360 1_455 S
C152 C153 1.372 . S
C153 H148 0.928 . S
C153 C152 1.372 . S
C153 C154 1.404 . S
C154 C153 1.404 . S
C154 C155 1.391 . S
C155 H149 0.930 . S
C155 C151 1.429 1_455 S
C155 C154 1.391 . S
H156 C159 0.931 . S
H157 C162 0.928 . S
H158 C164 0.930 . S
C159 H156 0.931 . S
C159 C160 1.413 . S
C159 C161 1.360 . S
C160 C159 1.413 . S
C160 C164 1.429 . S
C161 C159 1.360 . S
C161 C162 1.372 1_545 S
C162 H157 0.928 . S
C162 C161 1.372 1_565 S
C162 C163 1.404 . S
C163 C162 1.404 . S
C163 C164 1.391 1_565 S
C164 H158 0.930 . S
C164 C160 1.429 . S
C164 C163 1.391 1_545 S
H165 C168 0.931 . S
H166 C171 0.928 . S
H167 C173 0.930 . S
C168 H165 0.931 . S
C168 C169 1.413 . S
C168 C170 1.360 . S
C169 C168 1.413 . S
C169 C173 1.429 . S
C170 C168 1.360 . S
C170 C171 1.372 . S
C171 H166 0.928 . S
C171 C170 1.372 . S
C171 C172 1.404 . S
C172 C171 1.404 . S
C172 C173 1.391 . S
C173 H167 0.930 . S
C173 C169 1.429 . S
C173 C172 1.391 . S
H174 C182 0.929 . S
H175 C184 0.930 . S
H176 C186 0.930 . S
H177 C189 0.929 . S
H178 C192 0.930 . S
H179 C194 0.960 . S
H180 C194 0.960 . S
H181 C194 0.960 . S
C182 H174 0.929 . S
C182 C183 1.377 . S
C182 C184 1.384 . S
C183 C182 1.377 . S
C183 C189 1.390 . S
C184 H175 0.930 . S
C184 C182 1.384 . S
C184 C185 1.372 . S
C185 C184 1.372 . S
C185 C186 1.400 . S
C185 C190 1.490 . S
C186 H176 0.930 . S
C186 C185 1.400 . S
C186 C189 1.386 . S
H187 C203 0.930 . S
H188 C204 0.931 . S
C189 H177 0.929 . S
C189 C183 1.390 . S
C189 C186 1.386 . S
C190 C185 1.490 . S
C190 C192 1.395 . S
C190 C193 1.403 . S
H191 C197 0.930 . S
C192 H178 0.930 . S
C192 C190 1.395 . S
C192 C195 1.403 . S
C193 C190 1.403 . S
C193 C194 1.524 . S
C193 C197 1.400 . S
C194 H179 0.960 . S
C194 H180 0.960 . S
C194 H181 0.960 . S
C194 C193 1.524 . S
C195 C192 1.403 . S
C195 C196 1.392 . S
C195 C199 1.495 . S
C196 C195 1.392 . S
C196 C197 1.385 . S
C196 C198 1.478 . S
C197 H191 0.930 . S
C197 C193 1.400 . S
C197 C196 1.385 . S
C198 C196 1.478 . S
C198 C200 1.381 . S
C198 C204 1.383 . S
C199 C195 1.495 . S
C199 H205 0.959 . S
C199 H206 0.961 . S
C199 H207 0.960 . S
C200 C198 1.381 . S
C200 C201 1.394 . S
C200 H208 0.930 . S
C201 C200 1.394 . S
C201 C202 1.383 . S
C201 H209 0.929 . S
C202 C201 1.383 . S
C202 C203 1.377 . S
C203 H187 0.930 . S
C203 C202 1.377 . S
C203 C204 1.379 . S
C204 H188 0.931 . S
C204 C198 1.383 . S
C204 C203 1.379 . S
H205 C199 0.959 . S
H206 C199 0.961 . S
H207 C199 0.960 . S
H208 C200 0.930 . S
H209 C201 0.929 . S
H210 C218 0.929 . S
H211 C220 0.930 . S
H212 C222 0.930 . S
H213 C225 0.929 . S
H214 C228 0.930 . S
H215 C230 0.960 . S
H216 C230 0.960 . S
H217 C230 0.960 . S
C218 H210 0.929 . S
C218 C219 1.377 . S
C218 C220 1.384 . S
C219 C218 1.377 . S
C219 C225 1.390 . S
C220 H211 0.930 . S
C220 C218 1.384 . S
C220 C221 1.372 . S
C221 C220 1.372 . S
C221 C222 1.400 . S
C221 C226 1.490 . S
C222 H212 0.930 . S
C222 C221 1.400 . S
C222 C225 1.386 . S
H223 C239 0.930 . S
H224 C240 0.931 . S
C225 H213 0.929 . S
C225 C219 1.390 . S
C225 C222 1.386 . S
C226 C221 1.490 . S
C226 C228 1.395 . S
C226 C229 1.403 . S
H227 C233 0.930 . S
C228 H214 0.930 . S
C228 C226 1.395 . S
C228 C231 1.403 . S
C229 C226 1.403 . S
C229 C230 1.524 . S
C229 C233 1.400 . S
C230 H215 0.960 . S
C230 H216 0.960 . S
C230 H217 0.960 . S
C230 C229 1.524 . S
C231 C228 1.403 . S
C231 C232 1.392 . S
C231 C235 1.495 . S
C232 C231 1.392 . S
C232 C233 1.385 . S
C232 C234 1.478 . S
C233 H227 0.930 . S
C233 C229 1.400 . S
C233 C232 1.385 . S
C234 C232 1.478 . S
C234 C236 1.381 . S
C234 C240 1.383 . S
C235 C231 1.495 . S
C235 H241 0.959 . S
C235 H242 0.961 . S
C235 H243 0.960 . S
C236 C234 1.381 . S
C236 C237 1.394 . S
C236 H244 0.930 . S
C237 C236 1.394 . S
C237 C238 1.383 . S
C237 H245 0.929 . S
C238 C237 1.383 . S
C238 C239 1.377 . S
C239 H223 0.930 . S
C239 C238 1.377 . S
C239 C240 1.379 . S
C240 H224 0.931 . S
C240 C234 1.383 . S
C240 C239 1.379 . S
H241 C235 0.959 . S
H242 C235 0.961 . S
H243 C235 0.960 . S
H244 C236 0.930 . S
H245 C237 0.929 . S
H246 C254 0.929 . S
H247 C256 0.930 . S
H248 C258 0.930 . S
H249 C261 0.929 . S
H250 C264 0.930 . S
H251 C266 0.960 . S
H252 C266 0.960 . S
H253 C266 0.960 . S
C254 H246 0.929 . S
C254 C255 1.377 . S
C254 C256 1.384 . S
C255 C254 1.377 . S
C255 C261 1.390 . S
C256 H247 0.930 . S
C256 C254 1.384 . S
C256 C257 1.372 . S
C257 C256 1.372 . S
C257 C258 1.400 . S
C257 C262 1.490 . S
C258 H248 0.930 . S
C258 C257 1.400 . S
C258 C261 1.386 . S
H259 C275 0.930 . S
H260 C276 0.931 . S
C261 H249 0.929 . S
C261 C255 1.390 . S
C261 C258 1.386 . S
C262 C257 1.490 . S
C262 C264 1.395 . S
C262 C265 1.403 . S
H263 C269 0.930 . S
C264 H250 0.930 . S
C264 C262 1.395 . S
C264 C267 1.403 . S
C265 C262 1.403 . S
C265 C266 1.524 . S
C265 C269 1.400 . S
C266 H251 0.960 . S
C266 H252 0.960 . S
C266 H253 0.960 . S
C266 C265 1.524 . S
C267 C264 1.403 . S
C267 C268 1.392 . S
C267 C271 1.495 . S
C268 C267 1.392 . S
C268 C269 1.385 . S
C268 C270 1.478 . S
C269 H263 0.930 . S
C269 C265 1.400 . S
C269 C268 1.385 . S
C270 C268 1.478 . S
C270 C272 1.381 . S
C270 C276 1.383 . S
C271 C267 1.495 . S
C271 H277 0.959 . S
C271 H278 0.961 . S
C271 H279 0.960 . S
C272 C270 1.381 . S
C272 C273 1.394 . S
C272 H280 0.930 . S
C273 C272 1.394 . S
C273 C274 1.383 . S
C273 H281 0.929 . S
C274 C273 1.383 . S
C274 C275 1.377 . S
C275 H259 0.930 . S
C275 C274 1.377 . S
C275 C276 1.379 . S
C276 H260 0.931 . S
C276 C270 1.383 . S
C276 C275 1.379 . S
H277 C271 0.959 . S
H278 C271 0.961 . S
H279 C271 0.960 . S
H280 C272 0.930 . S
H281 C273 0.929 . S
H282 C290 0.929 . S
H283 C292 0.930 . S
H284 C294 0.930 . S
H285 C297 0.929 . S
H286 C300 0.930 . S
H287 C302 0.960 . S
H288 C302 0.960 . S
H289 C302 0.960 . S
C290 H282 0.929 . S
C290 C291 1.377 . S
C290 C292 1.384 . S
C291 C290 1.377 . S
C291 C297 1.390 . S
C292 H283 0.930 . S
C292 C290 1.384 . S
C292 C293 1.372 . S
C293 C292 1.372 . S
C293 C294 1.400 . S
C293 C298 1.490 . S
C294 H284 0.930 . S
C294 C293 1.400 . S
C294 C297 1.386 . S
H295 C311 0.930 . S
H296 C312 0.931 . S
C297 H285 0.929 . S
C297 C291 1.390 . S
C297 C294 1.386 . S
C298 C293 1.490 . S
C298 C300 1.395 . S
C298 C301 1.403 . S
H299 C305 0.930 . S
C300 H286 0.930 . S
C300 C298 1.395 . S
C300 C303 1.403 . S
C301 C298 1.403 . S
C301 C302 1.524 . S
C301 C305 1.400 . S
C302 H287 0.960 . S
C302 H288 0.960 . S
C302 H289 0.960 . S
C302 C301 1.524 . S
C303 C300 1.403 . S
C303 C304 1.392 . S
C303 C307 1.495 . S
C304 C303 1.392 . S
C304 C305 1.385 . S
C304 C306 1.478 . S
C305 H299 0.930 . S
C305 C301 1.400 . S
C305 C304 1.385 . S
C306 C304 1.478 . S
C306 C308 1.381 . S
C306 C312 1.383 . S
C307 C303 1.495 . S
C307 H313 0.959 . S
C307 H314 0.961 . S
C307 H315 0.960 . S
C308 C306 1.381 . S
C308 C309 1.394 . S
C308 H316 0.930 . S
C309 C308 1.394 . S
C309 C310 1.383 . S
C309 H317 0.929 . S
C310 C309 1.383 . S
C310 C311 1.377 . S
C311 H295 0.930 . S
C311 C310 1.377 . S
C311 C312 1.379 . S
C312 H296 0.931 . S
C312 C306 1.383 . S
C312 C311 1.379 . S
H313 C307 0.959 . S
H314 C307 0.961 . S
H315 C307 0.960 . S
H316 C308 0.930 . S
H317 C309 0.929 . S
H318 C326 0.929 . S
H319 C328 0.930 . S
H320 C330 0.930 . S
H321 C333 0.929 . S
H322 C336 0.930 . S
H323 C338 0.960 . S
H324 C338 0.960 . S
H325 C338 0.960 . S
C326 H318 0.929 . S
C326 C327 1.377 . S
C326 C328 1.384 . S
C327 C326 1.377 . S
C327 C333 1.390 . S
C328 H319 0.930 . S
C328 C326 1.384 . S
C328 C329 1.372 . S
C329 C328 1.372 . S
C329 C330 1.400 . S
C329 C334 1.490 . S
C330 H320 0.930 . S
C330 C329 1.400 . S
C330 C333 1.386 . S
H331 C347 0.930 . S
H332 C348 0.931 . S
C333 H321 0.929 . S
C333 C327 1.390 . S
C333 C330 1.386 . S
C334 C329 1.490 . S
C334 C336 1.395 . S
C334 C337 1.403 . S
H335 C341 0.930 . S
C336 H322 0.930 . S
C336 C334 1.395 . S
C336 C339 1.403 . S
C337 C334 1.403 . S
C337 C338 1.524 . S
C337 C341 1.400 . S
C338 H323 0.960 . S
C338 H324 0.960 . S
C338 H325 0.960 . S
C338 C337 1.524 . S
C339 C336 1.403 . S
C339 C340 1.392 . S
C339 C343 1.495 . S
C340 C339 1.392 . S
C340 C341 1.385 . S
C340 C342 1.478 . S
C341 H335 0.930 . S
C341 C337 1.400 . S
C341 C340 1.385 . S
C342 C340 1.478 . S
C342 C344 1.381 . S
C342 C348 1.383 . S
C343 C339 1.495 . S
C343 H349 0.959 . S
C343 H350 0.961 . S
C343 H351 0.960 . S
C344 C342 1.381 . S
C344 C345 1.394 . S
C344 H352 0.930 . S
C345 C344 1.394 . S
C345 C346 1.383 . S
C345 H353 0.929 . S
C346 C345 1.383 . S
C346 C347 1.377 . S
C347 H331 0.930 . S
C347 C346 1.377 . S
C347 C348 1.379 . S
C348 H332 0.931 . S
C348 C342 1.383 . S
C348 C347 1.379 . S
H349 C343 0.959 . S
H350 C343 0.961 . S
H351 C343 0.960 . S
H352 C344 0.930 . S
H353 C345 0.929 . S
H354 C362 0.929 . S
H355 C364 0.930 . S
H356 C366 0.930 . S
H357 C369 0.929 . S
H358 C372 0.930 . S
H359 C374 0.960 . S
H360 C374 0.960 . S
H361 C374 0.960 . S
C362 H354 0.929 . S
C362 C363 1.377 . S
C362 C364 1.384 . S
C363 C362 1.377 . S
C363 C369 1.390 . S
C364 H355 0.930 . S
C364 C362 1.384 . S
C364 C365 1.372 . S
C365 C364 1.372 . S
C365 C366 1.400 . S
C365 C370 1.490 . S
C366 H356 0.930 . S
C366 C365 1.400 . S
C366 C369 1.386 . S
H367 C383 0.930 . S
H368 C384 0.931 . S
C369 H357 0.929 . S
C369 C363 1.390 . S
C369 C366 1.386 . S
C370 C365 1.490 . S
C370 C372 1.395 . S
C370 C373 1.403 . S
H371 C377 0.930 . S
C372 H358 0.930 . S
C372 C370 1.395 . S
C372 C375 1.403 . S
C373 C370 1.403 . S
C373 C374 1.524 . S
C373 C377 1.400 . S
C374 H359 0.960 . S
C374 H360 0.960 . S
C374 H361 0.960 . S
C374 C373 1.524 . S
C375 C372 1.403 . S
C375 C376 1.392 . S
C375 C379 1.495 . S
C376 C375 1.392 . S
C376 C377 1.385 . S
C376 C378 1.478 . S
C377 H371 0.930 . S
C377 C373 1.400 . S
C377 C376 1.385 . S
C378 C376 1.478 . S
C378 C380 1.381 . S
C378 C384 1.383 . S
C379 C375 1.495 . S
C379 H385 0.959 . S
C379 H386 0.961 . S
C379 H387 0.960 . S
C380 C378 1.381 . S
C380 C381 1.394 . S
C380 H388 0.930 . S
C381 C380 1.394 . S
C381 C382 1.383 . S
C381 H389 0.929 . S
C382 C381 1.383 . S
C382 C383 1.377 . S
C383 H367 0.930 . S
C383 C382 1.377 . S
C383 C384 1.379 . S
C384 H368 0.931 . S
C384 C378 1.383 . S
C384 C383 1.379 . S
H385 C379 0.959 . S
H386 C379 0.961 . S
H387 C379 0.960 . S
H388 C380 0.930 . S
H389 C381 0.929 . S
H390 C398 0.929 . S
H391 C400 0.930 . S
H392 C402 0.930 . S
H393 C405 0.929 . S
H394 C408 0.930 . S
H395 C410 0.960 . S
H396 C410 0.960 . S
H397 C410 0.960 . S
C398 H390 0.929 . S
C398 C399 1.377 . S
C398 C400 1.384 . S
C399 C398 1.377 . S
C399 C405 1.390 . S
C400 H391 0.930 . S
C400 C398 1.384 . S
C400 C401 1.372 . S
C401 C400 1.372 . S
C401 C402 1.400 . S
C401 C406 1.490 . S
C402 H392 0.930 . S
C402 C401 1.400 . S
C402 C405 1.386 . S
H403 C419 0.930 . S
H404 C420 0.931 . S
C405 H393 0.929 . S
C405 C399 1.390 . S
C405 C402 1.386 . S
C406 C401 1.490 . S
C406 C408 1.395 . S
C406 C409 1.403 . S
H407 C413 0.930 . S
C408 H394 0.930 . S
C408 C406 1.395 . S
C408 C411 1.403 . S
C409 C406 1.403 . S
C409 C410 1.524 . S
C409 C413 1.400 . S
C410 H395 0.960 . S
C410 H396 0.960 . S
C410 H397 0.960 . S
C410 C409 1.524 . S
C411 C408 1.403 . S
C411 C412 1.392 . S
C411 C415 1.495 . S
C412 C411 1.392 . S
C412 C413 1.385 . S
C412 C414 1.478 . S
C413 H407 0.930 . S
C413 C409 1.400 . S
C413 C412 1.385 . S
C414 C412 1.478 . S
C414 C416 1.381 . S
C414 C420 1.383 . S
C415 C411 1.495 . S
C415 H421 0.959 . S
C415 H422 0.961 . S
C415 H423 0.960 . S
C416 C414 1.381 . S
C416 C417 1.394 . S
C416 H424 0.930 . S
C417 C416 1.394 . S
C417 C418 1.383 . S
C417 H425 0.929 . S
C418 C417 1.383 . S
C418 C419 1.377 . S
C419 H403 0.930 . S
C419 C418 1.377 . S
C419 C420 1.379 . S
C420 H404 0.931 . S
C420 C414 1.383 . S
C420 C419 1.379 . S
H421 C415 0.959 . S
H422 C415 0.961 . S
H423 C415 0.960 . S
H424 C416 0.930 . S
H425 C417 0.929 . S
H426 C434 0.929 . S
H427 C436 0.930 . S
H428 C438 0.930 . S
H429 C441 0.929 . S
H430 C444 0.930 . S
H431 C446 0.960 . S
H432 C446 0.960 . S
H433 C446 0.960 . S
C434 H426 0.929 . S
C434 C435 1.377 . S
C434 C436 1.384 . S
C435 C434 1.377 . S
C435 C441 1.390 . S
C436 H427 0.930 . S
C436 C434 1.384 . S
C436 C437 1.372 . S
C437 C436 1.372 . S
C437 C438 1.400 . S
C437 C442 1.490 . S
C438 H428 0.930 . S
C438 C437 1.400 . S
C438 C441 1.386 . S
H439 C455 0.930 1_455 S
H440 C456 0.931 . S
C441 H429 0.929 . S
C441 C435 1.390 . S
C441 C438 1.386 . S
C442 C437 1.490 . S
C442 C444 1.395 . S
C442 C445 1.403 . S
H443 C449 0.930 . S
C444 H430 0.930 . S
C444 C442 1.395 . S
C444 C447 1.403 . S
C445 C442 1.403 . S
C445 C446 1.524 . S
C445 C449 1.400 . S
C446 H431 0.960 . S
C446 H432 0.960 . S
C446 H433 0.960 . S
C446 C445 1.524 . S
C447 C444 1.403 . S
C447 C448 1.392 . S
C447 C451 1.495 . S
C448 C447 1.392 . S
C448 C449 1.385 . S
C448 C450 1.478 . S
C449 H443 0.930 . S
C449 C445 1.400 . S
C449 C448 1.385 . S
C450 C448 1.478 . S
C450 C452 1.381 . S
C450 C456 1.383 . S
C451 C447 1.495 . S
C451 H457 0.959 . S
C451 H458 0.961 . S
C451 H459 0.960 . S
C452 C450 1.381 . S
C452 C453 1.394 . S
C452 H460 0.930 . S
C453 C452 1.394 . S
C453 C454 1.383 1_655 S
C453 H461 0.929 . S
C454 C453 1.383 1_455 S
C454 C455 1.377 1_455 S
C455 H439 0.930 1_655 S
C455 C454 1.377 1_655 S
C455 C456 1.379 . S
C456 H440 0.931 . S
C456 C450 1.383 . S
C456 C455 1.379 . S
H457 C451 0.959 . S
H458 C451 0.961 . S
H459 C451 0.960 . S
H460 C452 0.930 . S
H461 C453 0.929 . S
H462 C470 0.929 . S
H463 C472 0.930 . S
H464 C474 0.930 . S
H465 C477 0.929 . S
H466 C480 0.930 . S
H467 C482 0.960 . S
H468 C482 0.960 . S
H469 C482 0.960 . S
C470 H462 0.929 . S
C470 C471 1.377 . S
C470 C472 1.384 . S
C471 C470 1.377 . S
C471 C477 1.390 . S
C472 H463 0.930 . S
C472 C470 1.384 . S
C472 C473 1.372 . S
C473 C472 1.372 . S
C473 C474 1.400 . S
C473 C478 1.490 . S
C474 H464 0.930 . S
C474 C473 1.400 . S
C474 C477 1.386 . S
H475 C491 0.930 . S
H476 C492 0.931 . S
C477 H465 0.929 . S
C477 C471 1.390 . S
C477 C474 1.386 . S
C478 C473 1.490 . S
C478 C480 1.395 . S
C478 C481 1.403 . S
H479 C485 0.930 . S
C480 H466 0.930 . S
C480 C478 1.395 . S
C480 C483 1.403 . S
C481 C478 1.403 . S
C481 C482 1.524 . S
C481 C485 1.400 . S
C482 H467 0.960 . S
C482 H468 0.960 . S
C482 H469 0.960 . S
C482 C481 1.524 . S
C483 C480 1.403 . S
C483 C484 1.392 . S
C483 C487 1.495 . S
C484 C483 1.392 . S
C484 C485 1.385 . S
C484 C486 1.478 . S
C485 H479 0.930 . S
C485 C481 1.400 . S
C485 C484 1.385 . S
C486 C484 1.478 . S
C486 C488 1.381 . S
C486 C492 1.383 . S
C487 C483 1.495 . S
C487 H493 0.959 . S
C487 H494 0.961 . S
C487 H495 0.960 . S
C488 C486 1.381 . S
C488 C489 1.394 . S
C488 H496 0.930 . S
C489 C488 1.394 . S
C489 C490 1.383 . S
C489 H497 0.929 . S
C490 C489 1.383 . S
C490 C491 1.377 . S
C491 H475 0.930 . S
C491 C490 1.377 . S
C491 C492 1.379 . S
C492 H476 0.931 . S
C492 C486 1.383 . S
C492 C491 1.379 . S
H493 C487 0.959 . S
H494 C487 0.961 . S
H495 C487 0.960 . S
H496 C488 0.930 . S
H497 C489 0.929 . S
H498 C506 0.929 . S
H499 C508 0.930 . S
H500 C510 0.930 . S
H501 C513 0.929 . S
H502 C516 0.930 . S
H503 C518 0.960 . S
H504 C518 0.960 . S
H505 C518 0.960 . S
C506 H498 0.929 . S
C506 C507 1.377 . S
C506 C508 1.384 . S
C507 C506 1.377 . S
C507 C513 1.390 . S
C508 H499 0.930 . S
C508 C506 1.384 . S
C508 C509 1.372 . S
C509 C508 1.372 . S
C509 C510 1.400 . S
C509 C514 1.490 . S
C510 H500 0.930 . S
C510 C509 1.400 . S
C510 C513 1.386 . S
H511 C527 0.930 . S
H512 C528 0.931 . S
C513 H501 0.929 . S
C513 C507 1.390 . S
C513 C510 1.386 . S
C514 C509 1.490 . S
C514 C516 1.395 . S
C514 C517 1.403 . S
H515 C521 0.930 . S
C516 H502 0.930 . S
C516 C514 1.395 . S
C516 C519 1.403 . S
C517 C514 1.403 . S
C517 C518 1.524 . S
C517 C521 1.400 . S
C518 H503 0.960 . S
C518 H504 0.960 . S
C518 H505 0.960 . S
C518 C517 1.524 . S
C519 C516 1.403 . S
C519 C520 1.392 . S
C519 C523 1.495 . S
C520 C519 1.392 . S
C520 C521 1.385 . S
C520 C522 1.478 . S
C521 H515 0.930 . S
C521 C517 1.400 . S
C521 C520 1.385 . S
C522 C520 1.478 . S
C522 C524 1.381 . S
C522 C528 1.383 . S
C523 C519 1.495 . S
C523 H529 0.959 . S
C523 H530 0.961 . S
C523 H531 0.960 . S
C524 C522 1.381 . S
C524 C525 1.394 . S
C524 H532 0.930 . S
C525 C524 1.394 . S
C525 C526 1.383 . S
C525 H533 0.929 . S
C526 C525 1.383 . S
C526 C527 1.377 . S
C527 H511 0.930 . S
C527 C526 1.377 . S
C527 C528 1.379 . S
C528 H512 0.931 . S
C528 C522 1.383 . S
C528 C527 1.379 . S
H529 C523 0.959 . S
H530 C523 0.961 . S
H531 C523 0.960 . S
H532 C524 0.930 . S
H533 C525 0.929 . S
H534 C542 0.929 . S
H535 C544 0.930 . S
H536 C546 0.930 . S
H537 C549 0.929 . S
H538 C552 0.930 . S
H539 C554 0.960 . S
H540 C554 0.960 . S
H541 C554 0.960 . S
C542 H534 0.929 . S
C542 C543 1.377 . S
C542 C544 1.384 . S
C543 C542 1.377 . S
C543 C549 1.390 . S
C544 H535 0.930 . S
C544 C542 1.384 . S
C544 C545 1.372 . S
C545 C544 1.372 . S
C545 C546 1.400 . S
C545 C550 1.490 . S
C546 H536 0.930 . S
C546 C545 1.400 . S
C546 C549 1.386 . S
H547 C563 0.930 . S
H548 C564 0.931 . S
C549 H537 0.929 . S
C549 C543 1.390 . S
C549 C546 1.386 . S
C550 C545 1.490 . S
C550 C552 1.395 . S
C550 C553 1.403 . S
H551 C557 0.930 . S
C552 H538 0.930 . S
C552 C550 1.395 . S
C552 C555 1.403 . S
C553 C550 1.403 . S
C553 C554 1.524 . S
C553 C557 1.400 . S
C554 H539 0.960 . S
C554 H540 0.960 . S
C554 H541 0.960 . S
C554 C553 1.524 . S
C555 C552 1.403 . S
C555 C556 1.392 . S
C555 C559 1.495 . S
C556 C555 1.392 . S
C556 C557 1.385 . S
C556 C558 1.478 . S
C557 H551 0.930 . S
C557 C553 1.400 . S
C557 C556 1.385 . S
C558 C556 1.478 . S
C558 C560 1.381 . S
C558 C564 1.383 . S
C559 C555 1.495 . S
C559 H565 0.959 . S
C559 H566 0.961 . S
C559 H567 0.960 . S
C560 C558 1.381 . S
C560 C561 1.394 . S
C560 H568 0.930 . S
C561 C560 1.394 . S
C561 C562 1.383 . S
C561 H569 0.929 . S
C562 C561 1.383 . S
C562 C563 1.377 . S
C563 H547 0.930 . S
C563 C562 1.377 . S
C563 C564 1.379 . S
C564 H548 0.931 . S
C564 C558 1.383 . S
C564 C563 1.379 . S
H565 C559 0.959 . S
H566 C559 0.961 . S
H567 C559 0.960 . S
H568 C560 0.930 . S
H569 C561 0.929 . S
H570 C578 0.929 . S
H571 C580 0.930 . S
H572 C582 0.930 . S
H573 C585 0.929 . S
H574 C588 0.930 . S
H575 C590 0.960 . S
H576 C590 0.960 . S
H577 C590 0.960 . S
C578 H570 0.929 . S
C578 C579 1.377 . S
C578 C580 1.384 . S
C579 C578 1.377 . S
C579 C585 1.390 . S
C580 H571 0.930 . S
C580 C578 1.384 . S
C580 C581 1.372 . S
C581 C580 1.372 . S
C581 C582 1.400 . S
C581 C586 1.490 . S
C582 H572 0.930 . S
C582 C581 1.400 . S
C582 C585 1.386 . S
H583 C599 0.930 . S
H584 C600 0.931 . S
C585 H573 0.929 . S
C585 C579 1.390 . S
C585 C582 1.386 . S
C586 C581 1.490 . S
C586 C588 1.395 . S
C586 C589 1.403 . S
H587 C593 0.930 . S
C588 H574 0.930 . S
C588 C586 1.395 . S
C588 C591 1.403 . S
C589 C586 1.403 . S
C589 C590 1.524 . S
C589 C593 1.400 . S
C590 H575 0.960 . S
C590 H576 0.960 . S
C590 H577 0.960 . S
C590 C589 1.524 . S
C591 C588 1.403 . S
C591 C592 1.392 . S
C591 C595 1.495 . S
C592 C591 1.392 . S
C592 C593 1.385 . S
C592 C594 1.478 . S
C593 H587 0.930 . S
C593 C589 1.400 . S
C593 C592 1.385 . S
C594 C592 1.478 . S
C594 C596 1.381 . S
C594 C600 1.383 . S
C595 C591 1.495 . S
C595 H601 0.959 . S
C595 H602 0.961 . S
C595 H603 0.960 . S
C596 C594 1.381 . S
C596 C597 1.394 . S
C596 H604 0.930 . S
C597 C596 1.394 . S
C597 C598 1.383 . S
C597 H605 0.929 . S
C598 C597 1.383 . S
C598 C599 1.377 . S
C599 H583 0.930 . S
C599 C598 1.377 . S
C599 C600 1.379 . S
C600 H584 0.931 . S
C600 C594 1.383 . S
C600 C599 1.379 . S
H601 C595 0.959 . S
H602 C595 0.961 . S
H603 C595 0.960 . S
H604 C596 0.930 . S
H605 C597 0.929 . S
H606 C614 0.929 . S
H607 C616 0.930 . S
H608 C618 0.930 . S
H609 C621 0.929 . S
H610 C624 0.930 . S
H611 C626 0.960 . S
H612 C626 0.960 . S
H613 C626 0.960 . S
C614 H606 0.929 . S
C614 C615 1.377 1_655 S
C614 C616 1.384 . S
C615 C614 1.377 1_455 S
C615 C621 1.390 . S
C616 H607 0.930 . S
C616 C614 1.384 . S
C616 C617 1.372 1_655 S
C617 C616 1.372 1_455 S
C617 C618 1.400 . S
C617 C622 1.490 . S
C618 H608 0.930 . S
C618 C617 1.400 . S
C618 C621 1.386 . S
H619 C635 0.930 . S
H620 C636 0.931 . S
C621 H609 0.929 . S
C621 C615 1.390 . S
C621 C618 1.386 . S
C622 C617 1.490 . S
C622 C624 1.395 1_455 S
C622 C625 1.403 . S
H623 C629 0.930 . S
C624 H610 0.930 . S
C624 C622 1.395 1_655 S
C624 C627 1.403 . S
C625 C622 1.403 . S
C625 C626 1.524 . S
C625 C629 1.400 . S
C626 H611 0.960 . S
C626 H612 0.960 . S
C626 H613 0.960 . S
C626 C625 1.524 . S
C627 C624 1.403 . S
C627 C628 1.392 1_655 S
C627 C631 1.495 . S
C628 C627 1.392 1_455 S
C628 C629 1.385 . S
C628 C630 1.478 1_554 S
C629 H623 0.930 . S
C629 C625 1.400 . S
C629 C628 1.385 . S
C630 C628 1.478 1_556 S
C630 C632 1.381 . S
C630 C636 1.383 . S
C631 C627 1.495 . S
C631 H637 0.959 . S
C631 H638 0.961 1_554 S
C631 H639 0.960 1_554 S
C632 C630 1.381 . S
C632 C633 1.394 . S
C632 H640 0.930 . S
C633 C632 1.394 . S
C633 C634 1.383 . S
C633 H641 0.929 . S
C634 C633 1.383 . S
C634 C635 1.377 . S
C635 H619 0.930 . S
C635 C634 1.377 . S
C635 C636 1.379 . S
C636 H620 0.931 . S
C636 C630 1.383 . S
C636 C635 1.379 . S
H637 C631 0.959 . S
H638 C631 0.961 1_556 S
H639 C631 0.960 1_556 S
H640 C632 0.930 . S
H641 C633 0.929 . S
H642 C650 0.929 . S
H643 C652 0.930 . S
H644 C654 0.930 . S
H645 C657 0.929 . S
H646 C660 0.930 . S
H647 C662 0.960 . S
H648 C662 0.960 . S
H649 C662 0.960 . S
C650 H642 0.929 . S
C650 C651 1.377 . S
C650 C652 1.384 . S
C651 C650 1.377 . S
C651 C657 1.390 1_545 S
C652 H643 0.930 . S
C652 C650 1.384 . S
C652 C653 1.372 . S
C653 C652 1.372 . S
C653 C654 1.400 1_545 S
C653 C658 1.490 . S
C654 H644 0.930 . S
C654 C653 1.400 1_565 S
C654 C657 1.386 . S
H655 C671 0.930 . S
H656 C672 0.931 . S
C657 H645 0.929 . S
C657 C651 1.390 1_565 S
C657 C654 1.386 . S
C658 C653 1.490 . S
C658 C660 1.395 . S
C658 C661 1.403 1_545 S
H659 C665 0.930 1_565 S
C660 H646 0.930 . S
C660 C658 1.395 . S
C660 C663 1.403 . S
C661 C658 1.403 1_565 S
C661 C662 1.524 . S
C661 C665 1.400 1_565 S
C662 H647 0.960 . S
C662 H648 0.960 . S
C662 H649 0.960 . S
C662 C661 1.524 . S
C663 C660 1.403 . S
C663 C664 1.392 . S
C663 C667 1.495 . S
C664 C663 1.392 . S
C664 C665 1.385 . S
C664 C666 1.478 . S
C665 H659 0.930 1_545 S
C665 C661 1.400 1_545 S
C665 C664 1.385 . S
C666 C664 1.478 . S
C666 C668 1.381 . S
C666 C672 1.383 1_545 S
C667 C663 1.495 . S
C667 H673 0.959 . S
C667 H674 0.961 . S
C667 H675 0.960 . S
C668 C666 1.381 . S
C668 C669 1.394 . S
C668 H676 0.930 . S
C669 C668 1.394 . S
C669 C670 1.383 . S
C669 H677 0.929 . S
C670 C669 1.383 . S
C670 C671 1.377 1_545 S
C671 H655 0.930 . S
C671 C670 1.377 1_565 S
C671 C672 1.379 . S
C672 H656 0.931 . S
C672 C666 1.383 1_565 S
C672 C671 1.379 . S
H673 C667 0.959 . S
H674 C667 0.961 . S
H675 C667 0.960 . S
H676 C668 0.930 . S
H677 C669 0.929 . S
H678 C686 0.929 . S
H679 C688 0.930 . S
H680 C690 0.930 . S
H681 C693 0.929 . S
H682 C696 0.930 . S
H683 C698 0.960 . S
H684 C698 0.960 . S
H685 C698 0.960 . S
C686 H678 0.929 . S
C686 C687 1.377 . S
C686 C688 1.384 . S
C687 C686 1.377 . S
C687 C693 1.390 . S
C688 H679 0.930 . S
C688 C686 1.384 . S
C688 C689 1.372 . S
C689 C688 1.372 . S
C689 C690 1.400 . S
C689 C694 1.490 . S
C690 H680 0.930 . S
C690 C689 1.400 . S
C690 C693 1.386 . S
H691 C707 0.930 . S
H692 C708 0.931 . S
C693 H681 0.929 . S
C693 C687 1.390 . S
C693 C690 1.386 . S
C694 C689 1.490 . S
C694 C696 1.395 . S
C694 C697 1.403 . S
H695 C701 0.930 . S
C696 H682 0.930 . S
C696 C694 1.395 . S
C696 C699 1.403 . S
C697 C694 1.403 . S
C697 C698 1.524 . S
C697 C701 1.400 . S
C698 H683 0.960 . S
C698 H684 0.960 . S
C698 H685 0.960 . S
C698 C697 1.524 . S
C699 C696 1.403 . S
C699 C700 1.392 . S
C699 C703 1.495 . S
C700 C699 1.392 . S
C700 C701 1.385 . S
C700 C702 1.478 . S
C701 H695 0.930 . S
C701 C697 1.400 . S
C701 C700 1.385 . S
C702 C700 1.478 . S
C702 C704 1.381 . S
C702 C708 1.383 . S
C703 C699 1.495 . S
C703 H709 0.959 . S
C703 H710 0.961 . S
C703 H711 0.960 . S
C704 C702 1.381 . S
C704 C705 1.394 . S
C704 H712 0.930 . S
C705 C704 1.394 . S
C705 C706 1.383 . S
C705 H713 0.929 . S
C706 C705 1.383 . S
C706 C707 1.377 . S
C707 H691 0.930 . S
C707 C706 1.377 . S
C707 C708 1.379 . S
C708 H692 0.931 . S
C708 C702 1.383 . S
C708 C707 1.379 . S
H709 C703 0.959 . S
H710 C703 0.961 . S
H711 C703 0.960 . S
H712 C704 0.930 . S
H713 C705 0.929 . S
H714 C722 0.929 . S
H715 C724 0.930 . S
H716 C726 0.930 . S
H717 C729 0.929 . S
H718 C732 0.930 . S
H719 C734 0.960 . S
H720 C734 0.960 . S
H721 C734 0.960 1_545 S
C722 H714 0.929 . S
C722 C723 1.377 1_565 S
C722 C724 1.384 . S
C723 C722 1.377 1_545 S
C723 C729 1.390 . S
C724 H715 0.930 . S
C724 C722 1.384 . S
C724 C725 1.372 1_565 S
C725 C724 1.372 1_545 S
C725 C726 1.400 . S
C725 C730 1.490 . S
C726 H716 0.930 . S
C726 C725 1.400 . S
C726 C729 1.386 . S
H727 C743 0.930 . S
H728 C744 0.931 . S
C729 H717 0.929 . S
C729 C723 1.390 . S
C729 C726 1.386 . S
C730 C725 1.490 . S
C730 C732 1.395 . S
C730 C733 1.403 . S
H731 C737 0.930 . S
C732 H718 0.930 . S
C732 C730 1.395 . S
C732 C735 1.403 . S
C733 C730 1.403 . S
C733 C734 1.524 1_545 S
C733 C737 1.400 . S
C734 H719 0.960 . S
C734 H720 0.960 . S
C734 H721 0.960 1_565 S
C734 C733 1.524 1_565 S
C735 C732 1.403 . S
C735 C736 1.392 . S
C735 C739 1.495 . S
C736 C735 1.392 . S
C736 C737 1.385 . S
C736 C738 1.478 . S
C737 H731 0.930 . S
C737 C733 1.400 . S
C737 C736 1.385 . S
C738 C736 1.478 . S
C738 C740 1.381 1_545 S
C738 C744 1.383 . S
C739 C735 1.495 . S
C739 H745 0.959 . S
C739 H746 0.961 . S
C739 H747 0.960 . S
C740 C738 1.381 1_565 S
C740 C741 1.394 . S
C740 H748 0.930 . S
C741 C740 1.394 . S
C741 C742 1.383 1_565 S
C741 H749 0.929 . S
C742 C741 1.383 1_545 S
C742 C743 1.377 . S
C743 H727 0.930 . S
C743 C742 1.377 . S
C743 C744 1.379 . S
C744 H728 0.931 . S
C744 C738 1.383 . S
C744 C743 1.379 . S
H745 C739 0.959 . S
H746 C739 0.961 . S
H747 C739 0.960 . S
H748 C740 0.930 . S
H749 C741 0.929 . S
H750 C758 0.929 . S
H751 C760 0.930 . S
H752 C762 0.930 . S
H753 C765 0.929 . S
H754 C768 0.930 . S
H755 C770 0.960 . S
H756 C770 0.960 . S
H757 C770 0.960 . S
C758 H750 0.929 . S
C758 C759 1.377 . S
C758 C760 1.384 . S
C759 C758 1.377 . S
C759 C765 1.390 . S
C760 H751 0.930 . S
C760 C758 1.384 . S
C760 C761 1.372 . S
C761 C760 1.372 . S
C761 C762 1.400 . S
C761 C766 1.490 . S
C762 H752 0.930 . S
C762 C761 1.400 . S
C762 C765 1.386 . S
H763 C779 0.930 . S
H764 C780 0.931 . S
C765 H753 0.929 . S
C765 C759 1.390 . S
C765 C762 1.386 . S
C766 C761 1.490 . S
C766 C768 1.395 . S
C766 C769 1.403 . S
H767 C773 0.930 . S
C768 H754 0.930 . S
C768 C766 1.395 . S
C768 C771 1.403 . S
C769 C766 1.403 . S
C769 C770 1.524 . S
C769 C773 1.400 . S
C770 H755 0.960 . S
C770 H756 0.960 . S
C770 H757 0.960 . S
C770 C769 1.524 . S
C771 C768 1.403 . S
C771 C772 1.392 . S
C771 C775 1.496 1_556 S
C772 C771 1.392 . S
C772 C773 1.385 . S
C772 C774 1.478 1_556 S
C773 H767 0.930 . S
C773 C769 1.400 . S
C773 C772 1.385 . S
C774 C772 1.478 1_554 S
C774 C776 1.381 . S
C774 C780 1.383 . S
C775 C771 1.496 1_554 S
C775 H781 0.960 1_554 S
C775 H782 0.961 . S
C775 H783 0.959 . S
C776 C774 1.381 . S
C776 C777 1.394 . S
C776 H784 0.930 . S
C777 C776 1.394 . S
C777 C778 1.383 . S
C777 H785 0.929 . S
C778 C777 1.383 . S
C778 C779 1.377 . S
C779 H763 0.930 . S
C779 C778 1.377 . S
C779 C780 1.379 . S
C780 H764 0.931 . S
C780 C774 1.383 . S
C780 C779 1.379 . S
H781 C775 0.960 1_556 S
H782 C775 0.961 . S
H783 C775 0.959 . S
H784 C776 0.930 . S
H785 C777 0.929 . S
H786 C794 0.929 . S
H787 C796 0.930 . S
H788 C798 0.930 . S
H789 C801 0.929 . S
H790 C804 0.930 . S
H791 C806 0.960 . S
H792 C806 0.960 . S
H793 C806 0.960 . S
C794 H786 0.929 . S
C794 C795 1.377 1_655 S
C794 C796 1.384 . S
C795 C794 1.377 1_455 S
C795 C801 1.390 . S
C796 H787 0.930 . S
C796 C794 1.384 . S
C796 C797 1.372 1_655 S
C797 C796 1.372 1_455 S
C797 C798 1.400 . S
C797 C802 1.490 . S
C798 H788 0.930 . S
C798 C797 1.400 . S
C798 C801 1.386 . S
H799 C815 0.930 . S
H800 C816 0.931 . S
C801 H789 0.929 . S
C801 C795 1.390 . S
C801 C798 1.386 . S
C802 C797 1.490 . S
C802 C804 1.395 . S
C802 C805 1.403 1_455 S
H803 C809 0.930 . S
C804 H790 0.930 . S
C804 C802 1.395 . S
C804 C807 1.403 . S
C805 C802 1.403 1_655 S
C805 C806 1.524 . S
C805 C809 1.400 . S
C806 H791 0.960 . S
C806 H792 0.960 . S
C806 H793 0.960 . S
C806 C805 1.524 . S
C807 C804 1.403 . S
C807 C808 1.392 . S
C807 C811 1.495 . S
C808 C807 1.392 . S
C808 C809 1.385 1_455 S
C808 C810 1.478 . S
C809 H803 0.930 . S
C809 C805 1.400 . S
C809 C808 1.385 1_655 S
C810 C808 1.478 . S
C810 C812 1.381 . S
C810 C816 1.383 . S
C811 C807 1.495 . S
C811 H817 0.959 . S
C811 H818 0.961 . S
C811 H819 0.960 . S
C812 C810 1.381 . S
C812 C813 1.394 . S
C812 H820 0.930 1_455 S
C813 C812 1.394 . S
C813 C814 1.383 . S
C813 H821 0.929 1_455 S
C814 C813 1.383 . S
C814 C815 1.377 . S
C815 H799 0.930 . S
C815 C814 1.377 . S
C815 C816 1.379 . S
C816 H800 0.931 . S
C816 C810 1.383 . S
C816 C815 1.379 . S
H817 C811 0.959 . S
H818 C811 0.961 . S
H819 C811 0.960 . S
H820 C812 0.930 1_655 S
H821 C813 0.929 1_655 S
C183 C12 2.791 . S
C202 C169 2.764 . S
C219 C52 2.793 . S
C238 C151 2.786 . S
C255 C111 2.815 . S
C274 C163 2.779 . S
C291 C31 2.934 . S
C310 C172 2.889 . S
C346 C154 2.890 . S
C327 C71 2.933 . S
C382 C160 2.868 . S
C363 C92 2.903 . S
C399 C48 0.411 . S
C418 C133 0.324 . S
C435 C109 0.505 . S
C454 C142 0.404 . S
C471 C29 0.486 . S
C490 C124 0.383 . S
C526 C136 0.274 . S
C507 C69 0.451 . S
C562 C145 0.302 . S
C543 C88 0.310 . S
C579 C8 0.325 . S
C598 C127 0.214 . S
C634 C143 1.067 . S
C615 C17 1.052 . S
C651 C57 1.060 . S
C670 C125 1.068 . S
C687 C97 1.063 . S
C706 C134 1.070 . S
C742 C161 1.785 . S
C723 C42 1.724 . S
C778 C170 1.779 . S
C759 C82 1.731 . S
C795 C2 1.739 . S
C814 C152 1.782 . S
