# Generated by pormake.
# Topology nom, (4,4)-cn, num edge types: 1
# Building blocks:
#     Node 0, Type 0, BuildingBlock: AZAVOO_clean_linker_0, # of connection points: 4
#     Node 1, Type 0, BuildingBlock: AZAVOO_clean_linker_0, # of connection points: 4
#     Node 2, Type 0, BuildingBlock: AZAVOO_clean_linker_0, # of connection points: 4
#     Node 3, Type 0, BuildingBlock: AZAVOO_clean_linker_0, # of connection points: 4
#     Node 4, Type 0, BuildingBlock: AZAVOO_clean_linker_0, # of connection points: 4
#     Node 5, Type 0, BuildingBlock: AZAVOO_clean_linker_0, # of connection points: 4
#     Node 6, Type 1, BuildingBlock: QUQFOY_clean_sbu_3, # of connection points: 4
#     Node 7, Type 1, BuildingBlock: QUQFOY_clean_sbu_3, # of connection points: 4
#     Node 8, Type 1, BuildingBlock: QUQFOY_clean_sbu_3, # of connection points: 4
#     Node 9, Type 1, BuildingBlock: QUQFOY_clean_sbu_3, # of connection points: 4
#     Node 10, Type 1, BuildingBlock: QUQFOY_clean_sbu_3, # of connection points: 4
#     Node 11, Type 1, BuildingBlock: QUQFOY_clean_sbu_3, # of connection points: 4
#     Edge 12, Type (0, 1), BuildingBlock: TEMPAE_clean_linker_10, # of connection points: 2
#     Edge 13, Type (0, 1), BuildingBlock: TEMPAE_clean_linker_10, # of connection points: 2
#     Edge 14, Type (0, 1), BuildingBlock: TEMPAE_clean_linker_10, # of connection points: 2
#     Edge 15, Type (0, 1), BuildingBlock: TEMPAE_clean_linker_10, # of connection points: 2
#     Edge 16, Type (0, 1), BuildingBlock: TEMPAE_clean_linker_10, # of connection points: 2
#     Edge 17, Type (0, 1), BuildingBlock: TEMPAE_clean_linker_10, # of connection points: 2
#     Edge 18, Type (0, 1), BuildingBlock: TEMPAE_clean_linker_10, # of connection points: 2
#     Edge 19, Type (0, 1), BuildingBlock: TEMPAE_clean_linker_10, # of connection points: 2
#     Edge 20, Type (0, 1), BuildingBlock: TEMPAE_clean_linker_10, # of connection points: 2
#     Edge 21, Type (0, 1), BuildingBlock: TEMPAE_clean_linker_10, # of connection points: 2
#     Edge 22, Type (0, 1), BuildingBlock: TEMPAE_clean_linker_10, # of connection points: 2
#     Edge 23, Type (0, 1), BuildingBlock: TEMPAE_clean_linker_10, # of connection points: 2
#     Edge 24, Type (0, 1), BuildingBlock: TEMPAE_clean_linker_10, # of connection points: 2
#     Edge 25, Type (0, 1), BuildingBlock: TEMPAE_clean_linker_10, # of connection points: 2
#     Edge 26, Type (0, 1), BuildingBlock: TEMPAE_clean_linker_10, # of connection points: 2
#     Edge 27, Type (0, 1), BuildingBlock: TEMPAE_clean_linker_10, # of connection points: 2
#     Edge 28, Type (0, 1), BuildingBlock: TEMPAE_clean_linker_10, # of connection points: 2
#     Edge 29, Type (0, 1), BuildingBlock: TEMPAE_clean_linker_10, # of connection points: 2
#     Edge 30, Type (0, 1), BuildingBlock: TEMPAE_clean_linker_10, # of connection points: 2
#     Edge 31, Type (0, 1), BuildingBlock: TEMPAE_clean_linker_10, # of connection points: 2
#     Edge 32, Type (0, 1), BuildingBlock: TEMPAE_clean_linker_10, # of connection points: 2
#     Edge 33, Type (0, 1), BuildingBlock: TEMPAE_clean_linker_10, # of connection points: 2
#     Edge 34, Type (0, 1), BuildingBlock: TEMPAE_clean_linker_10, # of connection points: 2
#     Edge 35, Type (0, 1), BuildingBlock: TEMPAE_clean_linker_10, # of connection points: 2
# Relax obj value: 0.143
# Max RMSD: 0.229
# Mean RMSD: 0.148
data_MOF--net-nom--node1-QUQFOY_clean_sbu_3--node2-AZAVOO_clean_linker_0--edge1-TEMPAE_clean_linker_10
_symmetry_space_group_name_H-M    P1
_symmetry_Int_Tables_number       1
_symmetry_cell_setting            triclinic
loop_
_symmetry_equiv_pos_as_xyz
'x, y, z'
_cell_length_a     48.5303
_cell_length_b     51.189737
_cell_length_c     62.018138
_cell_angle_alpha  89.270066
_cell_angle_beta   89.848328
_cell_angle_gamma 121.11909
loop_
_atom_site_label
_atom_site_type_symbol
_atom_site_fract_x
_atom_site_fract_y
_atom_site_fract_z
_atom_type_partial_charge
H0 H 0.06472 0.44423 0.16601 0.0
H1 H 0.19671 0.63488 0.37452 0.0
H2 H 0.98575 0.42512 0.26671 0.0
H3 H 0.94927 0.40144 0.23678 0.0
H4 H 0.92332 0.47051 0.23984 0.0
H5 H 0.96266 0.49586 0.26807 0.0
H6 H 0.06231 0.45936 0.25922 0.0
H7 H 0.06771 0.44825 0.2217 0.0
H8 H 0.02572 0.50081 0.20053 0.0
H9 H 0.02097 0.51217 0.23806 0.0
H10 H 0.11708 0.50533 0.29532 0.0
H11 H 0.17276 0.54065 0.2832 0.0
H12 H 0.13994 0.58874 0.24325 0.0
H13 H 0.08492 0.55427 0.25586 0.0
H14 H 0.086 0.49694 0.33999 0.0
H15 H 0.12932 0.52862 0.36489 0.0
H16 H 0.1431 0.6097 0.33216 0.0
H17 H 0.09941 0.57771 0.30756 0.0
H18 H 0.01918 0.46975 0.35291 0.0
H19 H 0.03445 0.48835 0.38957 0.0
H20 H 0.05139 0.5765 0.36891 0.0
H21 H 0.03695 0.55781 0.33213 0.0
H22 H 0.95152 0.43557 0.32111 0.0
H23 H 0.90076 0.42838 0.33585 0.0
H24 H 0.93376 0.52281 0.32091 0.0
H25 H 0.98398 0.52973 0.3064 0.0
O26 O 0.06268 0.44916 0.18072 0.0
O27 O 0.04051 0.47604 0.17071 0.0
O28 O 0.17215 0.57941 0.38069 0.0
O29 O 0.18024 0.62183 0.36445 0.0
C30 C 0.00577 0.48097 0.28318 0.0
C31 C 0.03699 0.49229 0.27424 0.0
C32 C 0.06455 0.51041 0.28679 0.0
C33 C 0.06096 0.51583 0.30855 0.0
C34 C 0.02995 0.50506 0.31731 0.0
C35 C 0.00246 0.48862 0.30448 0.0
C36 C 0.9771 0.46234 0.26958 0.0
C37 C 0.97169 0.43478 0.26116 0.0
C38 C 0.95056 0.42113 0.24406 0.0
C39 C 0.9336 0.43429 0.23543 0.0
C40 C 0.93667 0.4602 0.24549 0.0
C41 C 0.95864 0.4744 0.2621 0.0
C42 C 0.04099 0.48632 0.25137 0.0
C43 C 0.05445 0.46857 0.24644 0.0
C44 C 0.05742 0.4622 0.225 0.0
C45 C 0.04701 0.47352 0.20811 0.0
C46 C 0.03387 0.49163 0.21313 0.0
C47 C 0.03104 0.49808 0.23456 0.0
C48 C 0.09697 0.52729 0.2765 0.0
C49 C 0.12191 0.52314 0.28363 0.0
C50 C 0.15359 0.54326 0.27673 0.0
C51 C 0.16055 0.56734 0.26229 0.0
C52 C 0.1352 0.57011 0.25413 0.0
C53 C 0.10374 0.55041 0.2613 0.0
C54 C 0.08965 0.53505 0.32199 0.0
C55 C 0.09864 0.52154 0.33811 0.0
C56 C 0.12332 0.53969 0.35233 0.0
C57 C 0.13958 0.57172 0.35058 0.0
C58 C 0.13104 0.58513 0.334 0.0
C59 C 0.10625 0.56694 0.31984 0.0
C60 C 0.02718 0.5125 0.33992 0.0
C61 C 0.02479 0.49263 0.35654 0.0
C62 C 0.03365 0.50338 0.37748 0.0
C63 C 0.0448 0.53413 0.38204 0.0
C64 C 0.04357 0.5529 0.36578 0.0
C65 C 0.03488 0.54217 0.34485 0.0
C66 C 0.97118 0.4831 0.3126 0.0
C67 C 0.94755 0.45454 0.32094 0.0
C68 C 0.91879 0.45055 0.32941 0.0
C69 C 0.91333 0.47502 0.32938 0.0
C70 C 0.93712 0.50347 0.32087 0.0
C71 C 0.96581 0.50749 0.31268 0.0
C72 C 0.04982 0.4664 0.18537 0.0
C73 C 0.16499 0.5911 0.36615 0.0
H74 H 0.50578 0.06124 0.32958 0.0
H75 H 0.47518 0.19605 0.5424 0.0
H76 H 0.49556 0.0096 0.43949 0.0
H77 H 0.49358 0.97411 0.41322 0.0
H78 H 0.39046 0.91751 0.4231 0.0
H79 H 0.3926 0.95522 0.44796 0.0
H80 H 0.51212 0.07027 0.42355 0.0
H81 H 0.51919 0.07248 0.38437 0.0
H82 H 0.41631 0.01343 0.37727 0.0
H83 H 0.40955 0.01179 0.41647 0.0
H84 H 0.52347 0.1128 0.45728 0.0
H85 H 0.54363 0.16279 0.4399 0.0
H86 H 0.44793 0.13324 0.41723 0.0
H87 H 0.42796 0.08307 0.43459 0.0
H88 H 0.50837 0.09225 0.50788 0.0
H89 H 0.52154 0.13578 0.53067 0.0
H90 H 0.44033 0.13851 0.5049 0.0
H91 H 0.4271 0.09459 0.48246 0.0
H92 H 0.47965 0.02363 0.52122 0.0
H93 H 0.48513 0.03698 0.55931 0.0
H94 H 0.40854 0.05605 0.5534 0.0
H95 H 0.40279 0.04209 0.51533 0.0
H96 H 0.4648 0.97255 0.48859 0.0
H97 H 0.43714 0.92072 0.50426 0.0
H98 H 0.35038 0.92394 0.51157 0.0
H99 H 0.37801 0.97541 0.49567 0.0
O100 O 0.5024 0.0604 0.34501 0.0
O101 O 0.44938 0.02983 0.34226 0.0
O102 O 0.51245 0.17693 0.54582 0.0
O103 O 0.47077 0.17912 0.53331 0.0
C104 C 0.44566 0.01076 0.45756 0.0
C105 C 0.45604 0.03889 0.44667 0.0
C106 C 0.46213 0.06471 0.4584 0.0
C107 C 0.45763 0.06247 0.48095 0.0
C108 C 0.44506 0.03388 0.49166 0.0
C109 C 0.43879 0.00791 0.47994 0.0
C110 C 0.44421 0.98529 0.44537 0.0
C111 C 0.47257 0.98934 0.43613 0.0
C112 C 0.47136 0.96867 0.42123 0.0
C113 C 0.44177 0.94281 0.41568 0.0
C114 C 0.41361 0.93752 0.42643 0.0
C115 C 0.41477 0.9588 0.44093 0.0
C116 C 0.4603 0.04111 0.42283 0.0
C117 C 0.49112 0.05817 0.41349 0.0
C118 C 0.49509 0.05923 0.39111 0.0
C119 C 0.46831 0.04313 0.37767 0.0
C120 C 0.43744 0.02612 0.38713 0.0
C121 C 0.4335 0.02516 0.4095 0.0
C122 C 0.47432 0.09447 0.44718 0.0
C123 C 0.50696 0.11709 0.44842 0.0
C124 C 0.51842 0.14546 0.43839 0.0
C125 C 0.49732 0.15176 0.42716 0.0
C126 C 0.46463 0.12894 0.42583 0.0
C127 C 0.45325 0.10038 0.43566 0.0
C128 C 0.46679 0.09029 0.49354 0.0
C129 C 0.49355 0.10238 0.50712 0.0
C130 C 0.501 0.12722 0.52012 0.0
C131 C 0.48194 0.14059 0.51964 0.0
C132 C 0.45548 0.12874 0.50569 0.0
C133 C 0.44796 0.10378 0.49276 0.0
C134 C 0.44109 0.03225 0.51548 0.0
C135 C 0.46305 0.0293 0.52838 0.0
C136 C 0.46621 0.03704 0.55012 0.0
C137 C 0.44757 0.04799 0.55916 0.0
C138 C 0.42341 0.04799 0.54672 0.0
C139 C 0.41999 0.03987 0.52506 0.0
C140 C 0.42331 0.97759 0.49087 0.0
C141 C 0.4399 0.96208 0.49372 0.0
C142 C 0.42414 0.93262 0.50278 0.0
C143 C 0.39154 0.91825 0.50902 0.0
C144 C 0.37536 0.93429 0.50667 0.0
C145 C 0.39114 0.9637 0.49772 0.0
C146 C 0.47265 0.04399 0.35392 0.0
C147 C 0.48943 0.16664 0.53372 0.0
H148 H 0.57239 0.54654 0.78199 0.0
H149 H 0.59118 0.4456 0.54076 0.0
H150 H 0.56746 0.60694 0.67313 0.0
H151 H 0.55412 0.62671 0.70438 0.0
H152 H 0.45457 0.55378 0.69981 0.0
H153 H 0.46906 0.53271 0.66981 0.0
H154 H 0.5925 0.57321 0.68933 0.0
H155 H 0.59339 0.56916 0.72867 0.0
H156 H 0.49798 0.48864 0.72781 0.0
H157 H 0.49748 0.49304 0.68845 0.0
H158 H 0.60594 0.53212 0.67255 0.0
H159 H 0.61621 0.49352 0.68767 0.0
H160 H 0.53057 0.42302 0.65655 0.0
H161 H 0.51924 0.46129 0.64332 0.0
H162 H 0.61532 0.54631 0.6168 0.0
H163 H 0.63717 0.52675 0.59009 0.0
H164 H 0.54047 0.45536 0.57448 0.0
H165 H 0.51903 0.47493 0.60137 0.0
H166 H 0.58494 0.58007 0.59007 0.0
H167 H 0.5881 0.57132 0.55182 0.0
H168 H 0.48889 0.49738 0.55387 0.0
H169 H 0.48617 0.50601 0.59234 0.0
H170 H 0.53819 0.6087 0.6147 0.0
H171 H 0.49897 0.62183 0.60122 0.0
H172 H 0.42159 0.53024 0.6167 0.0
H173 H 0.46059 0.51748 0.6299 0.0
O174 O 0.57175 0.54743 0.7664 0.0
O175 O 0.52289 0.50588 0.76506 0.0
O176 O 0.63248 0.491 0.55995 0.0
O177 O 0.58327 0.45343 0.55174 0.0
C178 C 0.52946 0.55288 0.6541 0.0
C179 C 0.54375 0.53688 0.66246 0.0
C180 C 0.55402 0.52212 0.64836 0.0
C181 C 0.55252 0.52563 0.62588 0.0
C182 C 0.53774 0.54124 0.61757 0.0
C183 C 0.52468 0.55344 0.63172 0.0
C184 C 0.51922 0.5685 0.66918 0.0
C185 C 0.54264 0.59568 0.67863 0.0
C186 C 0.53485 0.60703 0.69646 0.0
C187 C 0.50325 0.5917 0.7049 0.0
C188 C 0.47931 0.5658 0.69415 0.0
C189 C 0.48735 0.554 0.67668 0.0
C190 C 0.54502 0.53331 0.68613 0.0
C191 C 0.57196 0.55459 0.69769 0.0
C192 C 0.57234 0.55227 0.72015 0.0
C193 C 0.54573 0.52859 0.7314 0.0
C194 C 0.51887 0.50714 0.71965 0.0
C195 C 0.51854 0.50951 0.69719 0.0
C196 C 0.56179 0.49949 0.6569 0.0
C197 C 0.58926 0.50827 0.66931 0.0
C198 C 0.59524 0.48617 0.67772 0.0
C199 C 0.5741 0.455 0.67351 0.0
C200 C 0.54697 0.44659 0.66068 0.0
C201 C 0.54069 0.46853 0.65276 0.0
C202 C 0.56563 0.51216 0.6109 0.0
C203 C 0.59895 0.52628 0.60773 0.0
C204 C 0.61134 0.51514 0.5924 0.0
C205 C 0.59054 0.4896 0.58004 0.0
C206 C 0.55716 0.47513 0.58364 0.0
C207 C 0.54484 0.48627 0.59898 0.0
C208 C 0.53542 0.54356 0.59393 0.0
C209 C 0.56344 0.56299 0.58201 0.0
C210 C 0.56519 0.55789 0.56015 0.0
C211 C 0.53888 0.5333 0.54998 0.0
C212 C 0.50963 0.51622 0.56142 0.0
C213 C 0.50791 0.52136 0.5833 0.0
C214 C 0.50205 0.5623 0.6235 0.0
C215 C 0.51274 0.59164 0.61518 0.0
C216 C 0.49041 0.59901 0.60747 0.0
C217 C 0.45724 0.57714 0.60819 0.0
C218 C 0.44691 0.54773 0.61634 0.0
C219 C 0.46911 0.54038 0.62382 0.0
C220 C 0.54599 0.52649 0.75528 0.0
C221 C 0.60348 0.47814 0.56335 0.0
H222 H 0.01467 0.42118 0.94755 0.0
H223 H 0.21441 0.51719 0.72843 0.0
H224 H 0.9617 0.42688 0.82701 0.0
H225 H 0.92298 0.40782 0.85707 0.0
H226 H 0.93848 0.33271 0.86665 0.0
H227 H 0.97638 0.35132 0.83605 0.0
H228 H 0.02609 0.45581 0.85629 0.0
H229 H 0.02175 0.44949 0.89557 0.0
H230 H 0.03372 0.37172 0.89063 0.0
H231 H 0.03753 0.37805 0.85136 0.0
H232 H 0.10481 0.49534 0.82585 0.0
H233 H 0.15725 0.51412 0.84293 0.0
H234 H 0.13877 0.42209 0.84631 0.0
H235 H 0.08692 0.40363 0.82865 0.0
H236 H 0.08413 0.50074 0.77822 0.0
H237 H 0.13277 0.53189 0.75639 0.0
H238 H 0.15335 0.45918 0.75925 0.0
H239 H 0.10432 0.42808 0.78079 0.0
H240 H 0.01545 0.46967 0.76393 0.0
H241 H 0.02949 0.4912 0.72748 0.0
H242 H 0.06494 0.43108 0.71333 0.0
H243 H 0.04813 0.40804 0.74916 0.0
H244 H 0.96364 0.43316 0.77884 0.0
H245 H 0.90981 0.40318 0.76315 0.0
H246 H 0.91428 0.32146 0.77043 0.0
H247 H 0.96842 0.35165 0.7854 0.0
O248 O 0.01745 0.42385 0.93206 0.0
O249 O 0.02596 0.38535 0.92882 0.0
O250 O 0.18327 0.54196 0.736 0.0
O251 O 0.19525 0.50549 0.73725 0.0
C252 C 0.00213 0.40718 0.81651 0.0
C253 C 0.03195 0.41997 0.82717 0.0
C254 C 0.0609 0.43673 0.81535 0.0
C255 C 0.06013 0.44269 0.79316 0.0
C256 C 0.03027 0.43019 0.78247 0.0
C257 C 0.00126 0.41168 0.79407 0.0
C258 C 0.97203 0.39063 0.82953 0.0
C259 C 0.95559 0.40553 0.83493 0.0
C260 C 0.93363 0.39471 0.85215 0.0
C261 C 0.9282 0.36907 0.86428 0.0
C262 C 0.9425 0.35265 0.8576 0.0
C263 C 0.96397 0.36315 0.84012 0.0
C264 C 0.03259 0.41767 0.85104 0.0
C265 C 0.02821 0.43769 0.86377 0.0
C266 C 0.02558 0.43393 0.88618 0.0
C267 C 0.02741 0.41011 0.89625 0.0
C268 C 0.03234 0.39037 0.88341 0.0
C269 C 0.03481 0.39409 0.86099 0.0
C270 C 0.09205 0.44813 0.82626 0.0
C271 C 0.11213 0.4793 0.83032 0.0
C272 C 0.14195 0.48994 0.84 0.0
C273 C 0.1518 0.46944 0.84598 0.0
C274 C 0.13147 0.43822 0.84208 0.0
C275 C 0.10193 0.42769 0.83208 0.0
C276 C 0.09071 0.46217 0.78102 0.0
C277 C 0.09922 0.49162 0.77414 0.0
C278 C 0.12701 0.50936 0.76168 0.0
C279 C 0.14692 0.49799 0.75602 0.0
C280 C 0.13854 0.46861 0.76328 0.0
C281 C 0.11065 0.45085 0.77566 0.0
C282 C 0.0303 0.43695 0.75913 0.0
C283 C 0.02456 0.46001 0.75255 0.0
C284 C 0.03345 0.47285 0.73183 0.0
C285 C 0.04908 0.46345 0.71747 0.0
C286 C 0.0527 0.43882 0.7237 0.0
C287 C 0.04308 0.42552 0.74425 0.0
C288 C 0.97015 0.39465 0.78281 0.0
C289 C 0.95342 0.40899 0.7764 0.0
C290 C 0.92268 0.39185 0.76761 0.0
C291 C 0.90807 0.3601 0.76562 0.0
C292 C 0.92506 0.34591 0.77186 0.0
C293 C 0.95592 0.36309 0.78029 0.0
C294 C 0.02366 0.40564 0.92001 0.0
C295 C 0.17621 0.51657 0.74251 0.0
H296 H 0.40381 0.96261 0.83469 0.0
H297 H 0.41952 0.84842 0.07201 0.0
H298 H 0.43248 0.03503 0.93511 0.0
H299 H 0.45248 0.06888 0.90363 0.0
H300 H 0.54975 0.09342 0.91952 0.0
H301 H 0.52885 0.05642 0.94901 0.0
H302 H 0.39534 0.96937 0.92837 0.0
H303 H 0.38926 0.96355 0.88924 0.0
H304 H 0.48904 0.98926 0.88321 0.0
H305 H 0.49464 0.99471 0.92238 0.0
H306 H 0.38274 0.91798 0.94753 0.0
H307 H 0.37208 0.87028 0.93094 0.0
H308 H 0.46758 0.89138 0.94862 0.0
H309 H 0.47848 0.93933 0.96354 0.0
H310 H 0.38418 0.92866 0.00383 0.0
H311 H 0.36658 0.8877 0.03094 0.0
H312 H 0.4632 0.90373 0.03299 0.0
H313 H 0.48026 0.94416 0.00564 0.0
H314 H 0.42467 0.99193 0.03054 0.0
H315 H 0.43231 0.98163 0.06807 0.0
H316 H 0.52564 -0.0038 0.05103 0.0
H317 H 0.51733 0.00529 0.01363 0.0
H318 H 0.45978 0.0658 -0.00812 0.0
H319 H 0.49835 0.11841 0.003 0.0
H320 H 0.57473 0.09856 0.00116 0.0
H321 H 0.53662 0.04697 -0.01046 0.0
O322 O 0.40661 0.96464 0.85014 0.0
O323 O 0.45808 0.97816 0.84791 0.0
O324 O 0.37545 0.85408 0.05751 0.0
O325 O 0.42546 0.86359 0.06065 0.0
C326 C 0.46607 0.01701 0.95995 0.0
C327 C 0.44931 0.98703 0.95176 0.0
C328 C 0.43955 0.96175 0.96575 0.0
C329 C 0.44464 0.96618 -0.01191 0.0
C330 C 0.46195 -0.00394 -0.00371 0.0
C331 C 0.47325 0.0215 0.98218 0.0
C332 C 0.47914 0.0433 0.94452 0.0
C333 C 0.45816 0.0481 0.93192 0.0
C334 C 0.46978 0.06775 0.91395 0.0
C335 C 0.50285 0.08376 0.90863 0.0
C336 C 0.52405 0.08086 0.92255 0.0
C337 C 0.51224 0.06029 0.93993 0.0
C338 C 0.44536 0.98233 0.92814 0.0
C339 C 0.41573 0.97346 0.91856 0.0
C340 C 0.41239 0.97027 0.89622 0.0
C341 C 0.43868 0.97598 0.88309 0.0
C342 C 0.46831 0.98469 0.89284 0.0
C343 C 0.47158 0.98778 0.91518 0.0
C344 C 0.43136 0.932 0.95669 0.0
C345 C 0.40129 0.91222 0.94758 0.0
C346 C 0.39523 0.88497 0.93826 0.0
C347 C 0.41913 0.87714 0.93816 0.0
C348 C 0.44892 0.89696 0.94777 0.0
C349 C 0.45506 0.9242 0.95666 0.0
C350 C 0.43349 0.93946 0.00291 0.0
C351 C 0.40136 0.92299 0.00996 0.0
C352 C 0.39144 0.89972 0.02551 0.0
C353 C 0.41357 0.89262 0.03427 0.0
C354 C 0.44558 0.9087 0.02668 0.0
C355 C 0.45539 0.93179 0.01105 0.0
C356 C 0.47066 -0.00011 0.01941 0.0
C357 C 0.44733 0.99422 0.03514 0.0
C358 C 0.45171 0.98827 0.05654 0.0
C359 C 0.47946 0.98784 0.06237 0.0
C360 C 0.50396 -0.0038 0.04693 0.0
C361 C 0.49952 0.00201 0.02561 0.0
C362 C 0.49541 0.05255 -0.00978 0.0
C363 C 0.48482 0.0729 -0.00591 0.0
C364 C 0.50677 0.10278 0.00046 0.0
C365 C 0.53954 0.11257 0.00279 0.0
C366 C 0.54973 0.0918 -0.00076 0.0
C367 C 0.52791 0.06217 -0.00705 0.0
C368 C 0.43517 0.97301 0.85933 0.0
C369 C 0.40354 0.86887 0.05145 0.0
H370 H 0.5961 0.60008 -0.01076 0.0
H371 H 0.72063 0.5148 0.19688 0.0
H372 H 0.56628 0.61323 0.10819 0.0
H373 H 0.549 0.63344 0.07875 0.0
H374 H 0.64737 0.70634 0.0682 0.0
H375 H 0.6644 0.68633 0.09817 0.0
H376 H 0.58815 0.57531 0.08207 0.0
H377 H 0.5829 0.57721 0.04291 0.0
H378 H 0.68057 0.65401 0.03852 0.0
H379 H 0.68535 0.65198 0.07772 0.0
H380 H 0.61933 0.53477 0.1149 0.0
H381 H 0.64225 0.50594 0.09975 0.0
H382 H 0.72708 0.5904 0.07958 0.0
H383 H 0.70462 0.61911 0.09544 0.0
H384 H 0.60774 0.54303 0.16354 0.0
H385 H 0.62274 0.51118 0.18404 0.0
H386 H 0.72222 0.57155 0.165 0.0
H387 H 0.70696 0.60352 0.14489 0.0
H388 H 0.58281 0.58564 0.1781 0.0
H389 H 0.58039 0.57313 0.21635 0.0
H390 H 0.68438 0.61816 0.21689 0.0
H391 H 0.68641 0.63334 0.17943 0.0
H392 H 0.56425 0.61109 0.15036 0.0
H393 H 0.54361 0.64029 0.1678 0.0
H394 H 0.6408 0.71684 0.17366 0.0
H395 H 0.66124 0.6873 0.1561 0.0
O396 O 0.59907 0.59907 0.00459 0.0
O397 O 0.65046 0.63631 0.00285 0.0
O398 O 0.66267 0.49706 0.19861 0.0
O399 O 0.71404 0.52698 0.1889 0.0
C400 C 0.62777 0.63094 0.11784 0.0
C401 C 0.63873 0.61415 0.10654 0.0
C402 C 0.6486 0.5965 0.11797 0.0
C403 C 0.64707 0.59525 0.14074 0.0
C404 C 0.63609 0.61209 0.15206 0.0
C405 C 0.62626 0.62982 0.14055 0.0
C406 C 0.61653 0.64839 0.1053 0.0
C407 C 0.58383 0.63445 0.10029 0.0
C408 C 0.57406 0.64595 0.0834 0.0
C409 C 0.59695 0.67129 0.07114 0.0
C410 C 0.62934 0.68672 0.07739 0.0
C411 C 0.63902 0.67547 0.09454 0.0
C412 C 0.63723 0.61328 0.08264 0.0
C413 C 0.60853 0.5922 0.07255 0.0
C414 C 0.60554 0.59347 0.05022 0.0
C415 C 0.6313 0.6158 0.03759 0.0
C416 C 0.6603 0.63648 0.04776 0.0
C417 C 0.66319 0.63525 0.07011 0.0
C418 C 0.6603 0.57901 0.1062 0.0
C419 C 0.64268 0.54699 0.10698 0.0
C420 C 0.65576 0.53062 0.09839 0.0
C421 C 0.68636 0.54605 0.08855 0.0
C422 C 0.7033 0.57803 0.08691 0.0
C423 C 0.69047 0.59441 0.09585 0.0
C424 C 0.65627 0.57561 0.15278 0.0
C425 C 0.63277 0.54938 0.16388 0.0
C426 C 0.64139 0.5312 0.17554 0.0
C427 C 0.6737 0.53883 0.17617 0.0
C428 C 0.69714 0.56502 0.16486 0.0
C429 C 0.68849 0.58328 0.15331 0.0
C430 C 0.63479 0.61049 0.17598 0.0
C431 C 0.60508 0.5941 0.1868 0.0
C432 C 0.60377 0.58631 0.2086 0.0
C433 C 0.63212 0.59387 0.21979 0.0
C434 C 0.66195 0.61209 0.20913 0.0
C435 C 0.66323 0.62072 0.18756 0.0
C436 C 0.61419 0.64708 0.15212 0.0
C437 C 0.58107 0.63405 0.15562 0.0
C438 C 0.56937 0.65069 0.16565 0.0
C439 C 0.59063 0.68079 0.17217 0.0
C440 C 0.62389 0.69374 0.16872 0.0
C441 C 0.63559 0.67693 0.15881 0.0
C442 C 0.62767 0.61773 0.01396 0.0
C443 C 0.683 0.51963 0.18858 0.0
C444 C 0.72117 0.47631 0.38958 0.0
O445 O 0.72564 0.50064 0.39806 0.0
Cd446 Cd 0.68183 0.50833 0.40706 0.0
O447 O 0.69275 0.45426 0.38624 0.0
Cd448 Cd 0.63655 0.44045 0.39178 0.0
C449 C 0.64597 0.4961 0.35767 0.0
O450 O 0.64048 0.4648 0.42617 0.0
O451 O 0.59705 0.4501 0.40798 0.0
O452 O 0.62563 0.39239 0.4069 0.0
C453 C 0.61261 0.46127 0.42518 0.0
O454 O 0.65987 0.51414 0.37323 0.0
C455 C 0.60368 0.37547 0.39384 0.0
O456 O 0.63746 0.46804 0.35897 0.0
O457 O 0.59694 0.38883 0.37918 0.0
C458 C 0.27008 0.58988 0.55255 0.0
O459 O 0.24722 0.56563 0.54453 0.0
Cd460 Cd 0.19611 0.55934 0.53488 0.0
O461 O 0.26714 0.61295 0.55529 0.0
Cd462 Cd 0.22771 0.62903 0.54884 0.0
C463 C 0.17437 0.57471 0.58369 0.0
O464 O 0.20724 0.60366 0.51456 0.0
O465 O 0.18092 0.6225 0.52904 0.0
O466 O 0.27321 0.67639 0.5353 0.0
C467 C 0.18473 0.60927 0.51316 0.0
O468 O 0.16853 0.55577 0.56874 0.0
C469 C 0.26844 0.694 0.54684 0.0
O470 O 0.19654 0.60268 0.58171 0.0
O471 O 0.2447 0.68136 0.55995 0.0
C472 C 0.67639 0.22937 0.7218 0.0
O473 O 0.66525 0.20145 0.71765 0.0
Cd474 Cd 0.60877 0.16611 0.71192 0.0
O475 O 0.6578 0.24002 0.72247 0.0
Cd476 Cd 0.60038 0.2223 0.71731 0.0
C477 C 0.57683 0.17255 0.75932 0.0
O478 O 0.59074 0.18967 0.68659 0.0
O479 O 0.54819 0.18482 0.70172 0.0
O480 O 0.61301 0.26833 0.69712 0.0
C481 C 0.56052 0.17824 0.68621 0.0
O482 O 0.58094 0.15521 0.74689 0.0
C483 C 0.60052 0.2776 0.71073 0.0
O484 O 0.58433 0.19926 0.75321 0.0
O485 O 0.58793 0.26118 0.72756 0.0
C486 C 0.3756 0.56821 0.90159 0.0
O487 O 0.39381 0.55725 0.90279 0.0
Cd488 Cd 0.45138 0.58958 0.90709 0.0
O489 O 0.38735 0.59691 0.90155 0.0
Cd490 Cd 0.43957 0.64442 0.90191 0.0
C491 C 0.46911 0.62604 0.85856 0.0
O492 O 0.46027 0.629 0.93184 0.0
O493 O 0.49353 0.67311 0.91736 0.0
O494 O 0.41626 0.66954 0.92128 0.0
C495 C 0.48736 0.65366 0.93233 0.0
O496 O 0.47301 0.60822 0.87094 0.0
C497 C 0.42138 0.68875 0.90634 0.0
O498 O 0.45581 0.6402 0.86548 0.0
O499 O 0.43492 0.68735 0.88922 0.0
C500 C 0.80066 0.43613 0.04824 0.0
O501 O 0.831 0.45062 0.04542 0.0
Cd502 Cd 0.86029 0.42548 0.03753 0.0
O503 O 0.78441 0.4071 0.0479 0.0
Cd504 Cd 0.79405 0.3647 0.044 0.0
C505 C 0.84768 0.38803 0.08523 0.0
O506 O 0.82783 0.38698 0.01186 0.0
O507 O 0.82119 0.3439 0.02285 0.0
O508 O 0.73898 0.33778 0.03075 0.0
C509 C 0.83208 0.36493 0.00858 0.0
O510 O 0.86864 0.40769 0.0722 0.0
C511 C 0.73024 0.31336 0.04143 0.0
O512 O 0.81854 0.37118 0.07952 0.0
O513 O 0.75115 0.31306 0.05354 0.0
C514 C 0.35971 0.76959 0.23536 0.0
O515 O 0.35391 0.79094 0.23273 0.0
Cd516 Cd 0.39429 0.84304 0.22504 0.0
O517 O 0.38848 0.77513 0.23432 0.0
Cd518 Cd 0.44347 0.81958 0.22844 0.0
C519 C 0.43699 0.85656 0.27136 0.0
O520 O 0.42826 0.8402 0.19855 0.0
O521 O 0.47689 0.86928 0.20941 0.0
O522 O 0.45322 0.78381 0.20967 0.0
C523 C 0.4554 0.86428 0.19571 0.0
O524 O 0.42087 0.86384 0.25918 0.0
C525 C 0.47907 0.79061 0.2193 0.0
O526 O 0.44604 0.83857 0.26503 0.0
O527 O 0.48858 0.81103 0.23357 0.0
C528 C 0.21515 0.60657 0.27478 0.0
C529 C 0.19414 0.59185 0.25768 0.0
C530 C 0.24464 0.63378 0.27125 0.0
C531 C 0.25327 0.64633 0.25011 0.0
C532 C 0.23322 0.6303 0.23259 0.0
C533 C 0.20375 0.60329 0.23661 0.0
C534 C 0.26531 0.65024 0.29037 0.0
C535 C 0.24181 0.64274 0.20978 0.0
C536 C 0.30184 0.73244 0.24396 0.0
C537 C 0.33277 0.73801 0.2395 0.0
C538 C 0.27592 0.70271 0.24766 0.0
C539 C 0.28097 0.67787 0.24669 0.0
C540 C 0.31211 0.68326 0.24227 0.0
C541 C 0.33772 0.71332 0.23881 0.0
C542 C 0.24306 0.69789 0.25252 0.0
C543 C 0.31828 0.65727 0.24099 0.0
H544 H 0.20759 0.59794 0.29112 0.0
H545 H 0.18757 0.59174 0.22337 0.0
H546 H 0.29088 0.65795 0.287 0.0
H547 H 0.264 0.67088 0.2935 0.0
H548 H 0.25739 0.63567 0.3052 0.0
H549 H 0.22597 0.62568 0.19777 0.0
H550 H 0.23943 0.66309 0.20809 0.0
H551 H 0.26718 0.65011 0.20596 0.0
H552 H 0.29782 0.75137 0.24464 0.0
H553 H 0.36155 0.71742 0.23531 0.0
H554 H 0.23392 0.68569 0.26822 0.0
H555 H 0.22579 0.68343 0.23999 0.0
H556 H 0.24335 0.71972 0.25314 0.0
H557 H 0.31094 0.6439 0.25634 0.0
H558 H 0.344 0.66534 0.23768 0.0
H559 H 0.30351 0.64152 0.22804 0.0
C560 C 0.49352 0.19835 0.42274 0.0
C561 C 0.50932 0.18266 0.41794 0.0
C562 C 0.50685 0.22904 0.41651 0.0
C563 C 0.53651 0.24421 0.40503 0.0
C564 C 0.55154 0.22789 0.39902 0.0
C565 C 0.53786 0.19733 0.40569 0.0
C566 C 0.49025 0.24572 0.42341 0.0
C567 C 0.58293 0.24314 0.38654 0.0
C568 C 0.56506 0.32281 0.38047 0.0
C569 C 0.58653 0.34185 0.3962 0.0
C570 C 0.54869 0.29087 0.38296 0.0
C571 C 0.55372 0.27785 0.40171 0.0
C572 C 0.57532 0.29702 0.41762 0.0
C573 C 0.59155 0.32872 0.41461 0.0
C574 C 0.52608 0.27107 0.36557 0.0
C575 C 0.58116 0.28405 0.43794 0.0
H576 H 0.47156 0.18708 0.43234 0.0
H577 H 0.54988 0.18506 0.40175 0.0
H578 H 0.5048 0.26253 0.43591 0.0
H579 H 0.48825 0.25859 0.4096 0.0
H580 H 0.46579 0.22996 0.43016 0.0
H581 H 0.58931 0.22644 0.38079 0.0
H582 H 0.58168 0.25601 0.37243 0.0
H583 H 0.60258 0.25976 0.39698 0.0
H584 H 0.56115 0.33285 0.36618 0.0
H585 H 0.60801 0.34327 0.42688 0.0
H586 H 0.50142 0.2566 0.37235 0.0
H587 H 0.53372 0.25548 0.35944 0.0
H588 H 0.52521 0.28472 0.35182 0.0
H589 H 0.55813 0.26968 0.44685 0.0
H590 H 0.59844 0.30214 0.44885 0.0
H591 H 0.59075 0.26921 0.43378 0.0
C592 C 0.43668 0.59825 0.58003 0.0
C593 C 0.43305 0.58432 0.6003 0.0
C594 C 0.41206 0.60189 0.57148 0.0
C595 C 0.38332 0.59148 0.58357 0.0
C596 C 0.38019 0.57864 0.60443 0.0
C597 C 0.40508 0.5752 0.61252 0.0
C598 C 0.41624 0.61572 0.5492 0.0
C599 C 0.35008 0.56752 0.61793 0.0
C600 C 0.3243 0.61681 0.56992 0.0
C601 C 0.30006 0.59116 0.55927 0.0
C602 C 0.35203 0.61764 0.57738 0.0
C603 C 0.35566 0.59228 0.57407 0.0
C604 C 0.33176 0.56671 0.56281 0.0
C605 C 0.30424 0.56643 0.55558 0.0
C606 C 0.37697 0.64528 0.58936 0.0
C607 C 0.33484 0.53926 0.55889 0.0
H608 H 0.45821 0.60515 0.57051 0.0
H609 H 0.40244 0.56483 0.62833 0.0
H610 H 0.39886 0.59815 0.53808 0.0
H611 H 0.41101 0.63441 0.54943 0.0
H612 H 0.44095 0.6249 0.54264 0.0
H613 H 0.35227 0.55978 0.63431 0.0
H614 H 0.34459 0.58593 0.61956 0.0
H615 H 0.32931 0.54821 0.60982 0.0
H616 H 0.32137 0.63608 0.57281 0.0
H617 H 0.28578 0.5466 0.54727 0.0
H618 H 0.40116 0.65411 0.58207 0.0
H619 H 0.37804 0.63877 0.60634 0.0
H620 H 0.37164 0.66393 0.58933 0.0
H621 H 0.35817 0.5464 0.55082 0.0
H622 H 0.31509 0.52199 0.54879 0.0
H623 H 0.33451 0.52833 0.57453 0.0
C624 C 0.85185 0.31669 0.7708 0.0
C625 C 0.87453 0.34146 0.75817 0.0
C626 C 0.81979 0.29887 0.76425 0.0
C627 C 0.81039 0.30571 0.74439 0.0
C628 C 0.83333 0.33056 0.73145 0.0
C629 C 0.86514 0.3484 0.73863 0.0
C630 C 0.79591 0.27296 0.77871 0.0
C631 C 0.82429 0.3382 0.71002 0.0
C632 C 0.73335 0.24131 0.7207 0.0
C633 C 0.71097 0.24955 0.72658 0.0
C634 C 0.76603 0.25989 0.7258 0.0
C635 C 0.77639 0.28702 0.73741 0.0
C636 C 0.75397 0.29559 0.74321 0.0
C637 C 0.72158 0.2769 0.73755 0.0
C638 C 0.78938 0.2503 0.71903 0.0
C639 C 0.76401 0.32408 0.75592 0.0
H640 H 0.85912 0.31159 0.78604 0.0
H641 H 0.88283 0.3675 0.72885 0.0
H642 H 0.77585 0.27643 0.7831 0.0
H643 H 0.78532 0.25107 0.77004 0.0
H644 H 0.80706 0.27092 0.79376 0.0
H645 H 0.84518 0.35774 0.70165 0.0
H646 H 0.81417 0.31808 0.69941 0.0
H647 H 0.80533 0.34389 0.71241 0.0
H648 H 0.72534 0.22032 0.71208 0.0
H649 H 0.70438 0.28334 0.74224 0.0
H650 H 0.79948 0.24547 0.73352 0.0
H651 H 0.80984 0.26909 0.70985 0.0
H652 H 0.77786 0.22962 0.70891 0.0
H653 H 0.77351 0.32234 0.77179 0.0
H654 H 0.74375 0.32791 0.75871 0.0
H655 H 0.78366 0.34433 0.74732 0.0
C656 C 0.43872 0.84759 0.91824 0.0
C657 C 0.41339 0.84823 0.92868 0.0
C658 C 0.43602 0.81998 0.9127 0.0
C659 C 0.40676 0.79229 0.91687 0.0
C660 C 0.38003 0.79289 0.92543 0.0
C661 C 0.38377 0.82087 0.93155 0.0
C662 C 0.46529 0.82039 0.90382 0.0
C663 C 0.34803 0.76388 0.92924 0.0
C664 C 0.40501 0.72434 0.89177 0.0
C665 C 0.41388 0.71288 0.90932 0.0
C666 C 0.40014 0.74889 0.89431 0.0
C667 C 0.40574 0.76298 0.91462 0.0
C668 C 0.41389 0.75088 0.9325 0.0
C669 C 0.41726 0.72556 0.92969 0.0
C670 C 0.39005 0.76032 0.87513 0.0
C671 C 0.42096 0.76574 0.9543 0.0
H672 H 0.4613 0.86872 0.91521 0.0
H673 H 0.36397 0.82105 0.93951 0.0
H674 H 0.4731 0.80892 0.91548 0.0
H675 H 0.4594 0.80761 0.88857 0.0
H676 H 0.4858 0.84394 0.9007 0.0
H677 H 0.32833 0.76856 0.93184 0.0
H678 H 0.34184 0.74836 0.91538 0.0
H679 H 0.34946 0.75175 0.94374 0.0
H680 H 0.40201 0.7142 0.87606 0.0
H681 H 0.42424 0.7167 0.94323 0.0
H682 H 0.41087 0.78208 0.869 0.0
H683 H 0.37092 0.76496 0.87983 0.0
H684 H 0.3811 0.74372 0.86178 0.0
H685 H 0.44209 0.78931 0.95295 0.0
H686 H 0.42613 0.75297 0.96664 0.0
H687 H 0.40028 0.76744 0.96 0.0
C688 C 0.71485 0.53367 0.06058 0.0
C689 C 0.70162 0.52904 0.08137 0.0
C690 C 0.73058 0.51853 0.054 0.0
C691 C 0.73367 0.49887 0.06876 0.0
C692 C 0.72028 0.49413 0.08978 0.0
C693 C 0.70415 0.5091 0.09577 0.0
C694 C 0.74402 0.52364 0.03133 0.0
C695 C 0.72352 0.47372 0.10607 0.0
C696 C 0.75067 0.43865 0.04921 0.0
C697 C 0.78394 0.45287 0.05245 0.0
C698 C 0.73414 0.45371 0.05388 0.0
C699 C 0.7512 0.48346 0.06237 0.0
C700 C 0.78484 0.49805 0.0655 0.0
C701 C 0.80088 0.48267 0.06029 0.0
C702 C 0.69836 0.43764 0.04998 0.0
C703 C 0.80373 0.52959 0.07486 0.0
H704 H 0.71273 0.54905 0.04947 0.0
H705 H 0.69426 0.50589 0.11195 0.0
H706 H 0.77051 0.53406 0.03179 0.0
H707 H 0.73396 0.50148 0.02308 0.0
H708 H 0.73854 0.53876 0.02161 0.0
H709 H 0.71185 0.47261 0.12177 0.0
H710 H 0.71253 0.45026 0.09977 0.0
H711 H 0.74935 0.48218 0.10887 0.0
H712 H 0.7375 0.4157 0.04298 0.0
H713 H 0.82656 0.49368 0.06293 0.0
H714 H 0.69274 0.45211 0.03965 0.0
H715 H 0.68533 0.4338 0.06552 0.0
H716 H 0.68903 0.41526 0.04212 0.0
H717 H 0.80062 0.54599 0.06487 0.0
H718 H 0.82984 0.53796 0.07592 0.0
H719 H 0.79444 0.52939 0.09127 0.0
C720 C 0.34352 0.86537 0.50865 0.0
C721 C 0.37392 0.8861 0.51693 0.0
C722 C 0.32689 0.8346 0.51519 0.0
C723 C 0.34091 0.82429 0.53049 0.0
C724 C 0.37131 0.84522 0.53927 0.0
C725 C 0.38756 0.87588 0.53228 0.0
C726 C 0.2947 0.81295 0.50524 0.0
C727 C 0.38687 0.8351 0.55576 0.0
C728 C 0.28354 0.74713 0.55685 0.0
C729 C 0.28875 0.72758 0.54414 0.0
C730 C 0.30123 0.77887 0.55316 0.0
C731 C 0.32442 0.79123 0.53625 0.0
C732 C 0.33042 0.77167 0.52381 0.0
C733 C 0.31261 0.74014 0.52796 0.0
C734 C 0.29442 0.79907 0.56689 0.0
C735 C 0.35481 0.78392 0.50557 0.0
H736 H 0.33308 0.87307 0.49656 0.0
H737 H 0.41093 0.89192 0.53886 0.0
H738 H 0.29626 0.7953 0.49605 0.0
H739 H 0.27615 0.80097 0.51805 0.0
H740 H 0.28659 0.82484 0.49418 0.0
H741 H 0.40963 0.85453 0.56197 0.0
H742 H 0.37012 0.82333 0.56954 0.0
H743 H 0.39219 0.81848 0.54847 0.0
H744 H 0.26524 0.7376 0.56944 0.0
H745 H 0.31686 0.72522 0.51808 0.0
H746 H 0.2836 0.80949 0.55685 0.0
H747 H 0.31716 0.81801 0.57348 0.0
H748 H 0.27769 0.78628 0.58051 0.0
H749 H 0.34715 0.79424 0.49287 0.0
H750 H 0.35779 0.76587 0.49816 0.0
H751 H 0.37855 0.80215 0.51143 0.0
C752 C 0.61158 0.43651 0.68335 0.0
C753 C 0.58017 0.43111 0.68209 0.0
C754 C 0.61715 0.41326 0.68985 0.0
C755 C 0.59065 0.38372 0.69462 0.0
C756 C 0.559 0.37834 0.69398 0.0
C757 C 0.55421 0.4022 0.68812 0.0
C758 C 0.6513 0.42004 0.69096 0.0
C759 C 0.53005 0.34704 0.69864 0.0
C760 C 0.59945 0.31529 0.68559 0.0
C761 C 0.5998 0.30568 0.70677 0.0
C762 C 0.59687 0.34091 0.68142 0.0
C763 C 0.59566 0.35786 0.69889 0.0
C764 C 0.59731 0.34894 0.72033 0.0
C765 C 0.59879 0.32258 0.72403 0.0
C766 C 0.59428 0.34919 0.65836 0.0
C767 C 0.59712 0.36702 0.73931 0.0
H768 H 0.63185 0.45862 0.67862 0.0
H769 H 0.52991 0.39797 0.6879 0.0
H770 H 0.65526 0.41142 0.70644 0.0
H771 H 0.65572 0.40814 0.6778 0.0
H772 H 0.66922 0.44486 0.68939 0.0
H773 H 0.50706 0.34679 0.69775 0.0
H774 H 0.52928 0.33056 0.68684 0.0
H775 H 0.53187 0.33888 0.71491 0.0
H776 H 0.60006 0.30212 0.67224 0.0
H777 H 0.5994 0.31529 0.74043 0.0
H778 H 0.61363 0.37299 0.6546 0.0
H779 H 0.57096 0.34795 0.65609 0.0
H780 H 0.59596 0.33383 0.64663 0.0
H781 H 0.61582 0.39148 0.73704 0.0
H782 H 0.6015 0.35865 0.75479 0.0
H783 H 0.57355 0.36554 0.74047 0.0
C784 C 0.18643 0.46765 0.87499 0.0
C785 C 0.18361 0.48074 0.85576 0.0
C786 C 0.21655 0.47866 0.88457 0.0
C787 C 0.24436 0.50292 0.87444 0.0
C788 C 0.24163 0.51571 0.85475 0.0
C789 C 0.21121 0.5046 0.84574 0.0
C790 C 0.21853 0.46486 0.90574 0.0
C791 C 0.27081 0.54135 0.8433 0.0
C792 C 0.31976 0.55797 0.90418 0.0
C793 C 0.34077 0.54817 0.89811 0.0
C794 C 0.28754 0.54208 0.89783 0.0
C795 C 0.2763 0.51615 0.88473 0.0
C796 C 0.29689 0.5051 0.8796 0.0
C797 C 0.32893 0.52115 0.88655 0.0
C798 C 0.26612 0.55418 0.90402 0.0
C799 C 0.28582 0.47769 0.86548 0.0
H800 H 0.16495 0.44925 0.88274 0.0
H801 H 0.20897 0.51439 0.83072 0.0
H802 H 0.23586 0.45695 0.90437 0.0
H803 H 0.2276 0.48244 0.91841 0.0
H804 H 0.19482 0.4453 0.91106 0.0
H805 H 0.26471 0.54759 0.82756 0.0
H806 H 0.28216 0.56187 0.85354 0.0
H807 H 0.28897 0.53474 0.84047 0.0
H808 H 0.32883 0.57871 0.91332 0.0
H809 H 0.3452 0.51363 0.88177 0.0
H810 H 0.24256 0.53542 0.91021 0.0
H811 H 0.26138 0.56421 0.88957 0.0
H812 H 0.27721 0.57204 0.91648 0.0
H813 H 0.26214 0.4585 0.87111 0.0
H814 H 0.30332 0.46987 0.86515 0.0
H815 H 0.28271 0.48364 0.84875 0.0
C816 C 0.55815 0.15883 0.02555 0.0
C817 C 0.5636 0.14443 0.0084 0.0
C818 C 0.5824 0.18789 0.03219 0.0
C819 C 0.61261 0.20265 0.0214 0.0
C820 C 0.61764 0.1887 0.00349 0.0
C821 C 0.59303 0.15984 -0.00283 0.0
C822 C 0.57613 0.20225 0.05123 0.0
C823 C 0.64945 0.20372 -0.00855 0.0
C824 C 0.67546 0.2867 0.02511 0.0
C825 C 0.69802 0.28588 0.03876 0.0
C826 C 0.64637 0.25994 0.02038 0.0
C827 C 0.63989 0.23177 0.0294 0.0
C828 C 0.66174 0.23109 0.04415 0.0
C829 C 0.69052 0.2582 0.0487 0.0
C830 C 0.62347 0.2616 0.00477 0.0
C831 C 0.65569 0.20147 0.0541 0.0
H832 H 0.53542 0.14692 0.03428 0.0
H833 H 0.59704 0.14899 0.98361 0.0
H834 H 0.59092 0.20287 0.06505 0.0
H835 H 0.5833 0.22617 0.04731 0.0
H836 H 0.55041 0.18945 0.05633 0.0
H837 H 0.64892 0.19038 0.97731 0.0
H838 H 0.65606 0.22691 -0.01422 0.0
H839 H 0.6687 0.20632 0.00244 0.0
H840 H 0.68097 0.3081 0.01753 0.0
H841 H 0.70774 0.25743 0.05938 0.0
H842 H 0.59839 0.24822 0.01105 0.0
H843 H 0.6242 0.25146 -0.01077 0.0
H844 H 0.62972 0.28546 0.0016 0.0
H845 H 0.63109 0.18836 0.06119 0.0
H846 H 0.67334 0.20519 0.06686 0.0
H847 H 0.65731 0.18722 0.04141 0.0
C848 C 0.58866 0.72861 0.17409 0.0
C849 C 0.5778 0.69888 0.18168 0.0
C850 C 0.57457 0.74492 0.18144 0.0
C851 C 0.54917 0.73121 0.19683 0.0
C852 C 0.53904 0.7017 0.20521 0.0
C853 C 0.55341 0.68584 0.19746 0.0
C854 C 0.58588 0.77625 0.17201 0.0
C855 C 0.51224 0.68643 0.22177 0.0
C856 C 0.52418 0.78103 0.22572 0.0
C857 C 0.49718 0.77552 0.21382 0.0
C858 C 0.54136 0.7667 0.22045 0.0
C859 C 0.53142 0.74663 0.20281 0.0
C860 C 0.50426 0.7411 0.19072 0.0
C861 C 0.48744 0.75551 0.19642 0.0
C862 C 0.57008 0.77297 0.23377 0.0
C863 C 0.49299 0.71998 0.17171 0.0
H864 H 0.6073 0.73866 0.16174 0.0
H865 H 0.54526 0.66301 0.20356 0.0
H866 H 0.56636 0.77558 0.16231 0.0
H867 H 0.59159 0.79286 0.18506 0.0
H868 H 0.60751 0.78463 0.1615 0.0
H869 H 0.50909 0.66458 0.22798 0.0
H870 H 0.51708 0.70178 0.23556 0.0
H871 H 0.48927 0.68168 0.2145 0.0
H872 H 0.5318 0.79643 0.2392 0.0
H873 H 0.46666 0.75119 0.18711 0.0
H874 H 0.59192 0.78273 0.22336 0.0
H875 H 0.56628 0.75131 0.24083 0.0
H876 H 0.57461 0.78903 0.24705 0.0
H877 H 0.51264 0.7281 0.15953 0.0
H878 H 0.47163 0.71838 0.16385 0.0
H879 H 0.48674 0.69675 0.17701 0.0
C880 C 0.87214 0.4584 0.35899 0.0
C881 C 0.88328 0.47147 0.33844 0.0
C882 C 0.84533 0.45751 0.36846 0.0
C883 C 0.82924 0.46975 0.35698 0.0
C884 C 0.83985 0.48212 0.33596 0.0
C885 C 0.8668 0.48291 0.32699 0.0
C886 C 0.83475 0.44425 0.39093 0.0
C887 C 0.8231 0.49505 0.32309 0.0
C888 C 0.74393 0.44775 0.37186 0.0
C889 C 0.74899 0.47378 0.3827 0.0
C890 C 0.76987 0.44575 0.36394 0.0
C891 C 0.80167 0.4703 0.36699 0.0
C892 C 0.80704 0.49622 0.3785 0.0
C893 C 0.78063 0.49769 0.38618 0.0
C894 C 0.76318 0.41777 0.35169 0.0
C895 C 0.84066 0.52279 0.38218 0.0
H896 H 0.88506 0.4498 0.36794 0.0
H897 H 0.87519 0.49271 0.31099 0.0
H898 H 0.83735 0.46224 0.40199 0.0
H899 H 0.80894 0.42605 0.39105 0.0
H900 H 0.84901 0.43454 0.39732 0.0
H901 H 0.83373 0.50287 0.30669 0.0
H902 H 0.79719 0.4776 0.32151 0.0
H903 H 0.82467 0.51467 0.33166 0.0
H904 H 0.7196 0.4291 0.36911 0.0
H905 H 0.78481 0.51781 0.39462 0.0
H906 H 0.77692 0.40792 0.35869 0.0
H907 H 0.7713 0.42423 0.33469 0.0
H908 H 0.7372 0.3999 0.35185 0.0
H909 H 0.85566 0.51469 0.38975 0.0
H910 H 0.84084 0.54035 0.39262 0.0
H911 H 0.85213 0.53368 0.36648 0.0
C912 C 0.05091 0.53121 0.42206 0.0
C913 C 0.06195 0.54748 0.40248 0.0
C914 C 0.0694 0.5419 0.44082 0.0
C915 C 0.09954 0.56958 0.43994 0.0
C916 C 0.11019 0.58673 0.42044 0.0
C917 C 0.09137 0.5754 0.40193 0.0
C918 C 0.05732 0.52293 0.46132 0.0
C919 C 0.14218 0.61636 0.41882 0.0
C920 C 0.14015 0.60817 0.49217 0.0
C921 C 0.1628 0.59913 0.49453 0.0
C922 C 0.11931 0.5987 0.47449 0.0
C923 C 0.12101 0.57954 0.45896 0.0
C924 C 0.14368 0.57019 0.46135 0.0
C925 C 0.16439 0.58021 0.47905 0.0
C926 C 0.09573 0.60944 0.47229 0.0
C927 C 0.1461 0.54963 0.44517 0.0
H928 H 0.02812 0.50973 0.42261 0.0
H929 H 0.10047 0.58783 0.38678 0.0
H930 H 0.0735 0.51441 0.46568 0.0
H931 H 0.05767 0.53707 0.47484 0.0
H932 H 0.03248 0.50304 0.45971 0.0
H933 H 0.1452 0.62859 0.40326 0.0
H934 H 0.14468 0.63161 0.43219 0.0
H935 H 0.162 0.61166 0.42028 0.0
H936 H 0.13888 0.62287 0.50405 0.0
H937 H 0.18175 0.57305 0.48082 0.0
H938 H 0.0708 0.58954 0.47159 0.0
H939 H 0.10043 0.62259 0.45698 0.0
H940 H 0.09723 0.62405 0.48587 0.0
H941 H 0.12251 0.52808 0.44383 0.0
H942 H 0.16457 0.54393 0.44962 0.0
H943 H 0.15227 0.56082 0.429 0.0
C944 C 0.46269 0.09353 0.5814 0.0
C945 C 0.45685 0.06376 0.58009 0.0
C946 C 0.47649 0.11101 0.59981 0.0
C947 C 0.48446 0.09831 0.61739 0.0
C948 C 0.47696 0.06767 0.61662 0.0
C949 C 0.46347 0.05081 0.59787 0.0
C950 C 0.48447 0.1437 0.59981 0.0
C951 C 0.48467 0.05321 0.63517 0.0
C952 C 0.55578 0.15347 0.65094 0.0
C953 C 0.54075 0.15732 0.66893 0.0
C954 C 0.53767 0.13418 0.63417 0.0
C955 C 0.50364 0.11808 0.63548 0.0
C956 C 0.48825 0.12155 0.65371 0.0
C957 C 0.50701 0.14129 0.67019 0.0
C958 C 0.55501 0.13135 0.61489 0.0
C959 C 0.45202 0.10457 0.6557 0.0
H960 H 0.45815 0.10381 0.56751 0.0
H961 H 0.45889 0.02776 0.59686 0.0
H962 H 0.47664 0.14887 0.61516 0.0
H963 H 0.51094 0.15922 0.59838 0.0
H964 H 0.47301 0.1488 0.58622 0.0
H965 H 0.47389 0.02826 0.63313 0.0
H966 H 0.51115 0.06394 0.63642 0.0
H967 H 0.47584 0.0571 0.65061 0.0
H968 H 0.58183 0.16583 0.64983 0.0
H969 H 0.49526 0.1441 0.68409 0.0
H970 H 0.548 0.13866 0.60001 0.0
H971 H 0.54794 0.10717 0.61286 0.0
H972 H 0.5816 0.14534 0.61641 0.0
H973 H 0.4419 0.11149 0.64231 0.0
H974 H 0.44378 0.10892 0.67124 0.0
H975 H 0.44204 0.07967 0.65433 0.0
C976 C 0.51282 0.63126 0.73243 0.0
C977 C 0.49627 0.60063 0.72607 0.0
C978 C 0.50962 0.63924 0.75348 0.0
C979 C 0.48871 0.61615 0.7683 0.0
C980 C 0.47059 0.58547 0.76166 0.0
C981 C 0.47494 0.57804 0.74078 0.0
C982 C 0.52969 0.67215 0.76011 0.0
C983 C 0.44751 0.56021 0.77688 0.0
C984 C 0.50097 0.62178 0.82865 0.0
C985 C 0.4774 0.62797 0.83545 0.0
C986 C 0.50635 0.61987 0.80667 0.0
C987 C 0.48706 0.62342 0.79119 0.0
C988 C 0.46411 0.63087 0.79792 0.0
C989 C 0.45981 0.63343 0.82001 0.0
C990 C 0.53165 0.61266 0.80006 0.0
C991 C 0.44262 0.63416 0.78195 0.0
H992 H 0.5289 0.64901 0.72114 0.0
H993 H 0.46249 0.55424 0.73637 0.0
H994 H 0.51428 0.67976 0.76758 0.0
H995 H 0.54729 0.67438 0.77243 0.0
H996 H 0.54309 0.68765 0.74628 0.0
H997 H 0.43283 0.53815 0.76856 0.0
H998 H 0.46117 0.55698 0.78989 0.0
H999 H 0.43103 0.56636 0.78463 0.0
H1000 H 0.51481 0.61785 0.84056 0.0
H1001 H 0.44141 0.63803 0.82523 0.0
H1002 H 0.5472 0.62852 0.787 0.0
H1003 H 0.51984 0.58919 0.79365 0.0
H1004 H 0.54708 0.6142 0.81377 0.0
H1005 H 0.457 0.64951 0.76834 0.0
H1006 H 0.42852 0.64322 0.7895 0.0
H1007 H 0.42556 0.61153 0.77509 0.0
C1008 C 0.92786 0.3621 0.90404 0.0
C1009 C 0.91167 0.3624 0.88545 0.0
C1010 C 0.91483 0.36015 0.92462 0.0
C1011 C 0.88467 0.35805 0.92658 0.0
C1012 C 0.86752 0.35685 0.90779 0.0
C1013 C 0.88144 0.35944 0.8874 0.0
C1014 C 0.93425 0.36218 0.94419 0.0
C1015 C 0.83501 0.35401 0.90922 0.0
C1016 C 0.84062 0.33486 0.98067 0.0
C1017 C 0.84705 0.3631 -0.01166 0.0
C1018 C 0.85275 0.33278 0.96058 0.0
C1019 C 0.8723 0.35966 0.94817 0.0
C1020 C 0.87969 0.38832 0.95621 0.0
C1021 C 0.86666 0.38964 0.97608 0.0
C1022 C 0.84408 0.30182 0.95239 0.0
C1023 C 0.90107 0.41759 0.94371 0.0
H1024 H 0.95153 0.36492 0.90251 0.0
H1025 H 0.869 0.35969 0.87298 0.0
H1026 H 0.94381 0.38481 0.95167 0.0
H1027 H 0.91897 0.34458 0.95646 0.0
H1028 H 0.95486 0.3594 0.94003 0.0
H1029 H 0.82344 0.35028 0.89322 0.0
H1030 H 0.81877 0.33479 0.9202 0.0
H1031 H 0.83773 0.37513 0.91607 0.0
H1032 H 0.82528 0.31427 -0.00994 0.0
H1033 H 0.87185 0.41153 0.98205 0.0
H1034 H 0.86624 0.30134 0.94888 0.0
H1035 H 0.83074 0.29729 0.93706 0.0
H1036 H 0.82901 0.28317 0.96413 0.0
H1037 H 0.92447 0.41964 0.9399 0.0
H1038 H 0.90574 0.43809 0.9527 0.0
H1039 H 0.88969 0.41731 0.92816 0.0
C1040 C 0.47172 0.98223 0.10257 0.0
C1041 C 0.48073 0.97438 0.08336 0.0
C1042 C 0.46994 0.96717 0.12209 0.0
C1043 C 0.47698 0.94353 0.12225 0.0
C1044 C 0.4869 0.93612 0.10298 0.0
C1045 C 0.48867 0.95164 0.08379 0.0
C1046 C 0.45935 0.97572 0.14235 0.0
C1047 C 0.49416 0.91078 0.10238 0.0
C1048 C 0.49094 0.91239 0.17441 0.0
C1049 C 0.46092 0.88564 0.17763 0.0
C1050 C 0.49637 0.93201 0.15674 0.0
C1051 C 0.4712 0.9246 0.14201 0.0
C1052 C 0.4407 0.89793 0.14544 0.0
C1053 C 0.43594 0.87883 0.16321 0.0
C1054 C 0.52919 0.96027 0.15353 0.0
C1055 C 0.41328 0.88913 0.13004 0.0
H1056 H 0.46562 -0.00017 0.10225 0.0
H1057 H 0.49496 0.94503 0.06888 0.0
H1058 H 0.43539 0.95655 0.14759 0.0
H1059 H 0.47637 0.97986 0.15562 0.0
H1060 H 0.4577 -0.00359 0.13995 0.0
H1061 H 0.5041 0.90957 0.08651 0.0
H1062 H 0.51163 0.91397 0.11509 0.0
H1063 H 0.47178 0.88855 0.10567 0.0
H1064 H 0.51031 0.9178 0.18552 0.0
H1065 H 0.41264 0.85824 0.16561 0.0
H1066 H 0.52697 0.9807 0.15174 0.0
H1067 H 0.54036 0.9584 0.13845 0.0
H1068 H 0.54554 0.96383 0.16715 0.0
H1069 H 0.40865 0.90811 0.12817 0.0
H1070 H 0.39067 0.86835 0.13554 0.0
H1071 H 0.41982 0.88482 0.11387 0.0
C1072 C 0.65573 0.59597 0.2563 0.0
C1073 C 0.63065 0.58041 0.24157 0.0
C1074 C 0.65686 0.5818 0.2755 0.0
C1075 C 0.63159 0.55179 0.2806 0.0
C1076 C 0.60524 0.5366 0.26652 0.0
C1077 C 0.60538 0.5508 0.24701 0.0
C1078 C 0.68573 0.59853 0.28992 0.0
C1079 C 0.57728 0.50497 0.27177 0.0
C1080 C 0.64956 0.50307 0.31779 0.0
C1081 C 0.64017 0.50838 0.3378 0.0
C1082 C 0.64693 0.51714 0.29898 0.0
C1083 C 0.63343 0.5359 0.30025 0.0
C1084 C 0.62261 0.54017 0.32037 0.0
C1085 C 0.62678 0.52686 0.33902 0.0
C1086 C 0.65962 0.51279 0.27791 0.0
C1087 C 0.60688 0.55894 0.32223 0.0
H1088 H 0.67497 0.61908 0.25267 0.0
H1089 H 0.58611 0.53811 0.23574 0.0
H1090 H 0.67801 0.60072 0.3063 0.0
H1091 H 0.69792 0.58529 0.29159 0.0
H1092 H 0.70346 0.62171 0.28357 0.0
H1093 H 0.55695 0.49788 0.26049 0.0
H1094 H 0.58525 0.48823 0.27088 0.0
H1095 H 0.56844 0.50393 0.28847 0.0
H1096 H 0.66019 0.48897 0.31701 0.0
H1097 H 0.61936 0.53071 0.35458 0.0
H1098 H 0.67872 0.53526 0.27134 0.0
H1099 H 0.64013 0.50272 0.26585 0.0
H1100 H 0.66974 0.49776 0.27974 0.0
H1101 H 0.62447 0.58312 0.31795 0.0
H1102 H 0.59748 0.55796 0.33876 0.0
H1103 H 0.5867 0.55074 0.31071 0.0
C1104 C 0.46647 0.92016 0.39222 0.0
C1105 C 0.44022 0.92357 0.39725 0.0
C1106 C 0.46786 0.90719 0.37275 0.0
C1107 C 0.44181 0.89618 0.35832 0.0
C1108 C 0.41409 0.89708 0.3641 0.0
C1109 C 0.41385 0.91122 0.38325 0.0
C1110 C 0.49809 0.90714 0.36702 0.0
C1111 C 0.38532 0.88464 0.34946 0.0
C1112 C 0.45303 0.89791 0.29777 0.0
C1113 C 0.44276 0.86742 0.29368 0.0
C1114 C 0.45473 0.90791 0.31893 0.0
C1115 C 0.4446 0.88655 0.33629 0.0
C1116 C 0.43496 0.85582 0.33225 0.0
C1117 C 0.43467 0.84671 0.31093 0.0
C1118 C 0.4662 0.9411 0.32261 0.0
C1119 C 0.42301 0.83218 0.35022 0.0
H1120 H 0.48659 0.92865 0.40314 0.0
H1121 H 0.39352 0.91386 0.3866 0.0
H1122 H 0.49216 0.88431 0.36146 0.0
H1123 H 0.51075 0.92355 0.3535 0.0
H1124 H 0.51483 0.91369 0.38082 0.0
H1125 H 0.36406 0.88299 0.35764 0.0
H1126 H 0.39141 0.89982 0.33507 0.0
H1127 H 0.37866 0.86168 0.34372 0.0
H1128 H 0.45932 0.91386 0.28435 0.0
H1129 H 0.42627 0.823 0.30765 0.0
H1130 H 0.48461 0.95033 0.33544 0.0
H1131 H 0.44575 0.94332 0.32812 0.0
H1132 H 0.47666 0.9553 0.30775 0.0
H1133 H 0.43993 0.84042 0.36392 0.0
H1134 H 0.41968 0.81015 0.34476 0.0
H1135 H 0.39956 0.82805 0.35636 0.0
C1136 C 0.53423 0.49149 0.52728 0.0
C1137 C 0.54392 0.52235 0.5292 0.0
C1138 C 0.54348 0.48127 0.5094 0.0
C1139 C 0.56275 0.50239 0.49299 0.0
C1140 C 0.57133 0.53329 0.49432 0.0
C1141 C 0.5619 0.54295 0.51249 0.0
C1142 C 0.53388 0.44813 0.50855 0.0
C1143 C 0.59168 0.55641 0.47703 0.0
C1144 C 0.61733 0.48382 0.46145 0.0
C1145 C 0.59992 0.47192 0.44246 0.0
C1146 C 0.60559 0.49407 0.47794 0.0
C1147 C 0.57579 0.49251 0.4753 0.0
C1148 C 0.5582 0.48073 0.45611 0.0
C1149 C 0.57044 0.47049 0.43992 0.0
C1150 C 0.62492 0.50633 0.49827 0.0
C1151 C 0.52641 0.47883 0.45274 0.0
H1152 H 0.52084 0.47556 0.54033 0.0
H1153 H 0.56935 0.5668 0.51394 0.0
H1154 H 0.52024 0.43775 0.49362 0.0
H1155 H 0.55569 0.44633 0.50804 0.0
H1156 H 0.51884 0.43466 0.52266 0.0
H1157 H 0.59376 0.57882 0.47948 0.0
H1158 H 0.61621 0.55986 0.47704 0.0
H1159 H 0.58136 0.54794 0.46089 0.0
H1160 H 0.64012 0.485 0.4635 0.0
H1161 H 0.5569 0.4614 0.42524 0.0
H1162 H 0.61032 0.49278 0.51246 0.0
H1163 H 0.63122 0.53023 0.50066 0.0
H1164 H 0.64748 0.50573 0.49788 0.0
H1165 H 0.50881 0.46371 0.46527 0.0
H1166 H 0.51618 0.46991 0.43662 0.0
H1167 H 0.52946 0.50173 0.45445 0.0
C1168 C 0.06643 0.46631 0.67876 0.0
C1169 C 0.06431 0.48101 0.6971 0.0
C1170 C 0.08387 0.48304 0.66037 0.0
C1171 C 0.09882 0.51522 0.66001 0.0
C1172 C 0.09561 0.53014 0.67803 0.0
C1173 C 0.07885 0.51295 0.69644 0.0
C1174 C 0.08713 0.4663 0.64158 0.0
C1175 C 0.11058 0.56435 0.67808 0.0
C1176 C 0.17063 0.55952 0.6222 0.0
C1177 C 0.15601 0.56319 0.60396 0.0
C1178 C 0.15234 0.54432 0.64073 0.0
C1179 C 0.11886 0.53328 0.64108 0.0
C1180 C 0.10437 0.53828 0.62294 0.0
C1181 C 0.12308 0.55271 0.6044 0.0
C1182 C 0.16855 0.53885 0.65953 0.0
C1183 C 0.06901 0.52772 0.62294 0.0
H1184 H 0.05486 0.44168 0.67885 0.0
H1185 H 0.07809 0.52479 0.71057 0.0
H1186 H 0.0778 0.47115 0.62671 0.0
H1187 H 0.11293 0.47447 0.63863 0.0
H1188 H 0.074 0.44121 0.64439 0.0
H1189 H 0.10316 0.5721 0.69243 0.0
H1190 H 0.13719 0.57566 0.67795 0.0
H1191 H 0.10376 0.57211 0.66333 0.0
H1192 H 0.19607 0.5673 0.62158 0.0
H1193 H 0.11192 0.5555 0.59013 0.0
H1194 H 0.15788 0.51394 0.66216 0.0
H1195 H 0.16446 0.54802 0.67451 0.0
H1196 H 0.19489 0.54955 0.6569 0.0
H1197 H 0.05445 0.50243 0.62349 0.0
H1198 H 0.06217 0.53591 0.6084 0.0
H1199 H 0.06266 0.53596 0.6375 0.0
C1200 C 0.49945 0.11501 0.87802 0.0
C1201 C 0.51475 0.10092 0.88769 0.0
C1202 C 0.50842 0.12827 0.85728 0.0
C1203 C 0.53407 0.12843 0.84624 0.0
C1204 C 0.55062 0.11562 0.85626 0.0
C1205 C 0.54037 0.10151 0.87659 0.0
C1206 C 0.48973 0.1411 0.84687 0.0
C1207 C 0.57864 0.116 0.84525 0.0
C1208 C 0.54104 0.13106 0.78528 0.0
C1209 C 0.56411 0.16182 0.78133 0.0
C1210 C 0.52975 0.12026 0.80628 0.0
C1211 C 0.54276 0.14052 0.82377 0.0
C1212 C 0.5658 0.17173 0.81981 0.0
C1213 C 0.57582 0.18212 0.79854 0.0
C1214 C 0.50443 0.08701 0.80979 0.0
C1215 C 0.581 0.1938 0.83808 0.0
H1216 H 0.48006 0.11531 0.88647 0.0
H1217 H 0.55199 0.09011 0.88339 0.0
H1218 H 0.50621 0.16517 0.84173 0.0
H1219 H 0.47778 0.12806 0.83217 0.0
H1220 H 0.47106 0.14008 0.85785 0.0
H1221 H 0.59107 0.10805 0.85614 0.0
H1222 H 0.57 0.10098 0.83103 0.0
H1223 H 0.59641 0.13939 0.83934 0.0
H1224 H 0.53175 0.11545 0.77191 0.0
H1225 H 0.59385 0.2059 0.79546 0.0
H1226 H 0.48442 0.0848 0.81992 0.0
H1227 H 0.51499 0.07525 0.81853 0.0
H1228 H 0.4944 0.07509 0.79437 0.0
H1229 H 0.56221 0.19308 0.84871 0.0
H1230 H 0.59711 0.21765 0.83221 0.0
H1231 H 0.5953 0.18703 0.84809 0.0
C1232 C 0.60403 0.67874 0.03136 0.0
C1233 C 0.58759 0.67819 0.05015 0.0
C1234 C 0.59184 0.67894 0.01093 0.0
C1235 C 0.56263 0.67871 0.00936 0.0
C1236 C 0.54723 0.68039 0.02828 0.0
C1237 C 0.5598 0.67989 0.0485 0.0
C1238 C 0.60888 0.67695 -0.00881 0.0
C1239 C 0.51626 0.68059 0.02724 0.0
C1240 C 0.53258 0.69036 0.95567 0.0
C1241 C 0.50918 0.66023 0.95068 0.0
C1242 C 0.55089 0.69684 0.97451 0.0
C1243 C 0.54586 0.67256 -0.01161 0.0
C1244 C 0.52335 0.64204 0.98284 0.0
C1245 C 0.50512 0.63628 0.96414 0.0
C1246 C 0.57466 0.72963 0.97996 0.0
C1247 C 0.51779 0.61547 -0.003 0.0
H1248 H 0.6253 0.67698 0.03262 0.0
H1249 H 0.5472 0.67957 0.06306 0.0
H1250 H 0.59545 0.6533 -0.01492 0.0
H1251 H 0.60968 0.6923 0.9781 0.0
H1252 H 0.63386 0.68289 -0.00522 0.0
H1253 H 0.50961 0.68584 0.04307 0.0
H1254 H 0.51831 0.69762 0.01509 0.0
H1255 H 0.49644 0.65787 0.02216 0.0
H1256 H 0.53572 0.70894 0.94531 0.0
H1257 H 0.48727 0.61294 0.9602 0.0
H1258 H 0.59852 0.73267 0.98355 0.0
H1259 H 0.56639 0.73582 -0.00533 0.0
H1260 H 0.57756 0.74566 0.96669 0.0
H1261 H 0.54092 0.61661 2e-05 0.0
H1262 H 0.5008 0.59309 -0.01027 0.0
H1263 H 0.50788 0.61662 0.01287 0.0
C1264 C 0.91594 0.44404 0.19975 0.0
C1265 C 0.91577 0.42315 0.21475 0.0
C1266 C 0.90193 0.43471 0.17944 0.0
C1267 C 0.88829 0.40387 0.17354 0.0
C1268 C 0.88748 0.38247 0.18858 0.0
C1269 C 0.90079 0.39227 0.20912 0.0
C1270 C 0.90269 0.45818 0.16401 0.0
C1271 C 0.87367 0.34949 0.18271 0.0
C1272 C 0.83442 0.38057 0.12456 0.0
C1273 C 0.85672 0.38722 0.10785 0.0
C1274 C 0.84399 0.38459 0.14621 0.0
C1275 C 0.87641 0.39471 0.1512 0.0
C1276 C 0.89844 0.39932 0.13443 0.0
C1277 C 0.88845 0.39599 0.11292 0.0
C1278 C 0.81997 0.38014 0.16355 0.0
C1279 C 0.93299 0.40927 0.13914 0.0
H1280 H 0.92805 0.46807 0.20348 0.0
H1281 H 0.89992 0.37573 0.2206 0.0
H1282 H 0.91884 0.46179 0.15015 0.0
H1283 H 0.87831 0.44996 0.15751 0.0
H1284 H 0.91134 0.48051 0.1718 0.0
H1285 H 0.87341 0.33539 0.19657 0.0
H1286 H 0.84876 0.33957 0.17674 0.0
H1287 H 0.8882 0.34806 0.16944 0.0
H1288 H 0.80991 0.374 0.12068 0.0
H1289 H 0.90566 0.40088 0.10001 0.0
H1290 H 0.82643 0.40267 0.17009 0.0
H1291 H 0.82058 0.36617 0.17714 0.0
H1292 H 0.79501 0.36898 0.15734 0.0
H1293 H 0.94598 0.4332 0.1447 0.0
H1294 H 0.94577 0.4079 0.12471 0.0
H1295 H 0.93414 0.39492 0.15226 0.0
loop_
_geom_bond_atom_site_label_1
_geom_bond_atom_site_label_2
_geom_bond_distance
_geom_bond_site_symmetry_2
_ccdc_geom_bond_type
H0 O26 0.856 . S
H1 O29 0.854 . S
H2 C37 0.926 1_455 S
H3 C38 0.930 . S
H4 C40 0.930 . S
H5 C41 0.930 . S
H6 C43 0.931 . S
H7 C44 0.930 . S
H8 C46 0.930 . S
H9 C47 0.929 . S
H10 C49 0.930 . S
H11 C50 0.931 . S
H12 C52 0.930 . S
H13 C53 0.929 . S
H14 C55 0.931 . S
H15 C56 0.930 . S
H16 C58 0.930 . S
H17 C59 0.932 . S
H18 C61 0.930 . S
H19 C62 0.929 . S
H20 C64 0.931 . S
H21 C65 0.930 . S
H22 C67 0.929 . S
H23 C68 0.931 . S
H24 C70 0.930 . S
H25 C71 0.926 1_455 S
O26 H0 0.856 . S
O26 C72 1.300 . S
O27 C72 1.209 . S
O28 C73 1.199 . S
O29 H1 0.854 . S
O29 C73 1.297 . S
C30 C31 1.404 . S
C30 C35 1.397 . S
C30 C36 1.492 . S
C31 C30 1.404 . S
C31 C32 1.396 . S
C31 C42 1.492 . S
C32 C31 1.396 . S
C32 C33 1.397 . S
C32 C48 1.509 . S
C33 C32 1.397 . S
C33 C34 1.412 . S
C33 C54 1.485 . S
C34 C33 1.412 . S
C34 C35 1.388 . S
C34 C60 1.490 . S
C35 C30 1.397 . S
C35 C34 1.388 . S
C35 C66 1.519 1_455 S
C36 C30 1.492 . S
C36 C37 1.365 1_455 S
C36 C41 1.390 1_455 S
C37 H2 0.926 1_655 S
C37 C36 1.365 1_655 S
C37 C38 1.375 . S
C38 H3 0.930 . S
C38 C37 1.375 . S
C38 C39 1.383 . S
C39 C38 1.383 . S
C39 C40 1.395 . S
C40 H4 0.930 . S
C40 C39 1.395 . S
C40 C41 1.362 . S
C41 H5 0.930 . S
C41 C36 1.390 1_655 S
C41 C40 1.362 . S
C42 C31 1.492 . S
C42 C43 1.377 . S
C42 C47 1.397 . S
C43 H6 0.931 . S
C43 C42 1.377 . S
C43 C44 1.376 . S
C44 H7 0.930 . S
C44 C43 1.376 . S
C44 C45 1.376 . S
C45 C44 1.376 . S
C45 C46 1.378 . S
C45 C72 1.486 . S
C46 H8 0.930 . S
C46 C45 1.378 . S
C46 C47 1.376 . S
C47 H9 0.929 . S
C47 C42 1.397 . S
C47 C46 1.376 . S
C48 C32 1.509 . S
C48 C49 1.391 . S
C48 C53 1.386 . S
C49 H10 0.930 . S
C49 C48 1.391 . S
C49 C50 1.375 . S
C50 H11 0.931 . S
C50 C49 1.375 . S
C50 C51 1.375 . S
C51 C50 1.375 . S
C51 C52 1.361 . S
C52 H12 0.930 . S
C52 C51 1.361 . S
C52 C53 1.399 . S
C53 H13 0.929 . S
C53 C48 1.386 . S
C53 C52 1.399 . S
C54 C33 1.485 . S
C54 C55 1.394 . S
C54 C59 1.360 . S
C55 H14 0.931 . S
C55 C54 1.394 . S
C55 C56 1.372 . S
C56 H15 0.930 . S
C56 C55 1.372 . S
C56 C57 1.397 . S
C57 C56 1.397 . S
C57 C58 1.390 . S
C57 C73 1.476 . S
C58 H16 0.930 . S
C58 C57 1.390 . S
C58 C59 1.366 . S
C59 H17 0.932 . S
C59 C54 1.360 . S
C59 C58 1.366 . S
C60 C34 1.490 . S
C60 C61 1.380 . S
C60 C65 1.386 . S
C61 H18 0.930 . S
C61 C60 1.380 . S
C61 C62 1.381 . S
C62 H19 0.929 . S
C62 C61 1.381 . S
C62 C63 1.371 . S
C63 C62 1.371 . S
C63 C64 1.380 . S
C64 H20 0.931 . S
C64 C63 1.380 . S
C64 C65 1.387 . S
C65 H21 0.930 . S
C65 C60 1.386 . S
C65 C64 1.387 . S
C66 C35 1.519 1_655 S
C66 C67 1.377 . S
C66 C71 1.361 . S
C67 H22 0.929 . S
C67 C66 1.377 . S
C67 C68 1.386 . S
C68 H23 0.931 . S
C68 C67 1.386 . S
C68 C69 1.363 . S
C69 C68 1.363 . S
C69 C70 1.385 . S
C70 H24 0.930 . S
C70 C69 1.385 . S
C70 C71 1.396 . S
C71 H25 0.926 1_655 S
C71 C66 1.361 . S
C71 C70 1.396 . S
C72 O26 1.300 . S
C72 O27 1.209 . S
C72 C45 1.486 . S
C73 O28 1.199 . S
C73 O29 1.297 . S
C73 C57 1.476 . S
H74 O100 0.856 . S
H75 O103 0.854 . S
H76 C111 0.930 . S
H77 C112 0.930 . S
H78 C114 0.930 . S
H79 C115 0.930 . S
H80 C117 0.931 . S
H81 C118 0.930 . S
H82 C120 0.930 . S
H83 C121 0.929 . S
H84 C123 0.930 . S
H85 C124 0.931 . S
H86 C126 0.930 . S
H87 C127 0.929 . S
H88 C129 0.931 . S
H89 C130 0.930 . S
H90 C132 0.930 . S
H91 C133 0.932 . S
H92 C135 0.930 . S
H93 C136 0.929 . S
H94 C138 0.931 . S
H95 C139 0.930 . S
H96 C141 0.929 . S
H97 C142 0.931 . S
H98 C144 0.930 . S
H99 C145 0.929 1_545 S
O100 H74 0.856 . S
O100 C146 1.300 . S
O101 C146 1.209 . S
O102 C147 1.199 . S
O103 H75 0.854 . S
O103 C147 1.297 . S
C104 C105 1.404 . S
C104 C109 1.397 . S
C104 C110 1.492 . S
C105 C104 1.404 . S
C105 C106 1.396 . S
C105 C116 1.492 . S
C106 C105 1.396 . S
C106 C107 1.397 . S
C106 C122 1.509 . S
C107 C106 1.397 . S
C107 C108 1.412 . S
C107 C128 1.485 . S
C108 C107 1.412 . S
C108 C109 1.388 . S
C108 C134 1.490 . S
C109 C104 1.397 . S
C109 C108 1.388 . S
C109 C140 1.519 . S
C110 C104 1.492 . S
C110 C111 1.363 . S
C110 C115 1.390 1_545 S
C111 H76 0.930 . S
C111 C110 1.363 . S
C111 C112 1.372 1_545 S
C112 H77 0.930 . S
C112 C111 1.372 1_565 S
C112 C113 1.383 . S
C113 C112 1.383 . S
C113 C114 1.395 . S
C114 H78 0.930 . S
C114 C113 1.395 . S
C114 C115 1.362 . S
C115 H79 0.930 . S
C115 C110 1.390 1_565 S
C115 C114 1.362 . S
C116 C105 1.492 . S
C116 C117 1.377 . S
C116 C121 1.397 . S
C117 H80 0.931 . S
C117 C116 1.377 . S
C117 C118 1.376 . S
C118 H81 0.930 . S
C118 C117 1.376 . S
C118 C119 1.376 . S
C119 C118 1.376 . S
C119 C120 1.378 . S
C119 C146 1.486 . S
C120 H82 0.930 . S
C120 C119 1.378 . S
C120 C121 1.376 . S
C121 H83 0.929 . S
C121 C116 1.397 . S
C121 C120 1.376 . S
C122 C106 1.509 . S
C122 C123 1.391 . S
C122 C127 1.386 . S
C123 H84 0.930 . S
C123 C122 1.391 . S
C123 C124 1.375 . S
C124 H85 0.931 . S
C124 C123 1.375 . S
C124 C125 1.375 . S
C125 C124 1.375 . S
C125 C126 1.361 . S
C126 H86 0.930 . S
C126 C125 1.361 . S
C126 C127 1.399 . S
C127 H87 0.929 . S
C127 C122 1.386 . S
C127 C126 1.399 . S
C128 C107 1.485 . S
C128 C129 1.394 . S
C128 C133 1.360 . S
C129 H88 0.931 . S
C129 C128 1.394 . S
C129 C130 1.372 . S
C130 H89 0.930 . S
C130 C129 1.372 . S
C130 C131 1.397 . S
C131 C130 1.397 . S
C131 C132 1.390 . S
C131 C147 1.476 . S
C132 H90 0.930 . S
C132 C131 1.390 . S
C132 C133 1.366 . S
C133 H91 0.932 . S
C133 C128 1.360 . S
C133 C132 1.366 . S
C134 C108 1.490 . S
C134 C135 1.380 . S
C134 C139 1.386 . S
C135 H92 0.930 . S
C135 C134 1.380 . S
C135 C136 1.381 . S
C136 H93 0.929 . S
C136 C135 1.381 . S
C136 C137 1.371 . S
C137 C136 1.371 . S
C137 C138 1.380 . S
C138 H94 0.931 . S
C138 C137 1.380 . S
C138 C139 1.387 . S
C139 H95 0.930 . S
C139 C134 1.386 . S
C139 C138 1.387 . S
C140 C109 1.519 . S
C140 C141 1.377 1_545 S
C140 C145 1.361 1_545 S
C141 H96 0.929 . S
C141 C140 1.377 1_565 S
C141 C142 1.386 . S
C142 H97 0.931 . S
C142 C141 1.386 . S
C142 C143 1.363 . S
C143 C142 1.363 . S
C143 C144 1.385 . S
C144 H98 0.930 . S
C144 C143 1.385 . S
C144 C145 1.396 . S
C145 H99 0.929 1_565 S
C145 C140 1.361 1_565 S
C145 C144 1.396 . S
C146 O100 1.300 . S
C146 O101 1.209 . S
C146 C119 1.486 . S
C147 O102 1.199 . S
C147 O103 1.297 . S
C147 C131 1.476 . S
H148 O174 0.856 . S
H149 O177 0.854 . S
H150 C185 0.930 . S
H151 C186 0.930 . S
H152 C188 0.930 . S
H153 C189 0.930 . S
H154 C191 0.931 . S
H155 C192 0.930 . S
H156 C194 0.930 . S
H157 C195 0.929 . S
H158 C197 0.930 . S
H159 C198 0.931 . S
H160 C200 0.930 . S
H161 C201 0.929 . S
H162 C203 0.931 . S
H163 C204 0.930 . S
H164 C206 0.930 . S
H165 C207 0.932 . S
H166 C209 0.930 . S
H167 C210 0.929 . S
H168 C212 0.931 . S
H169 C213 0.930 . S
H170 C215 0.929 . S
H171 C216 0.931 . S
H172 C218 0.930 . S
H173 C219 0.929 . S
O174 H148 0.856 . S
O174 C220 1.300 . S
O175 C220 1.209 . S
O176 C221 1.199 . S
O177 H149 0.854 . S
O177 C221 1.297 . S
C178 C179 1.404 . S
C178 C183 1.397 . S
C178 C184 1.492 . S
C179 C178 1.404 . S
C179 C180 1.396 . S
C179 C190 1.492 . S
C180 C179 1.396 . S
C180 C181 1.397 . S
C180 C196 1.509 . S
C181 C180 1.397 . S
C181 C182 1.412 . S
C181 C202 1.485 . S
C182 C181 1.412 . S
C182 C183 1.388 . S
C182 C208 1.490 . S
C183 C178 1.397 . S
C183 C182 1.388 . S
C183 C214 1.519 . S
C184 C178 1.492 . S
C184 C185 1.363 . S
C184 C189 1.390 . S
C185 H150 0.930 . S
C185 C184 1.363 . S
C185 C186 1.372 . S
C186 H151 0.930 . S
C186 C185 1.372 . S
C186 C187 1.383 . S
C187 C186 1.383 . S
C187 C188 1.395 . S
C188 H152 0.930 . S
C188 C187 1.395 . S
C188 C189 1.362 . S
C189 H153 0.930 . S
C189 C184 1.390 . S
C189 C188 1.362 . S
C190 C179 1.492 . S
C190 C191 1.377 . S
C190 C195 1.397 . S
C191 H154 0.931 . S
C191 C190 1.377 . S
C191 C192 1.376 . S
C192 H155 0.930 . S
C192 C191 1.376 . S
C192 C193 1.376 . S
C193 C192 1.376 . S
C193 C194 1.378 . S
C193 C220 1.486 . S
C194 H156 0.930 . S
C194 C193 1.378 . S
C194 C195 1.376 . S
C195 H157 0.929 . S
C195 C190 1.397 . S
C195 C194 1.376 . S
C196 C180 1.509 . S
C196 C197 1.391 . S
C196 C201 1.386 . S
C197 H158 0.930 . S
C197 C196 1.391 . S
C197 C198 1.375 . S
C198 H159 0.931 . S
C198 C197 1.375 . S
C198 C199 1.375 . S
C199 C198 1.375 . S
C199 C200 1.361 . S
C200 H160 0.930 . S
C200 C199 1.361 . S
C200 C201 1.399 . S
C201 H161 0.929 . S
C201 C196 1.386 . S
C201 C200 1.399 . S
C202 C181 1.485 . S
C202 C203 1.394 . S
C202 C207 1.360 . S
C203 H162 0.931 . S
C203 C202 1.394 . S
C203 C204 1.372 . S
C204 H163 0.930 . S
C204 C203 1.372 . S
C204 C205 1.397 . S
C205 C204 1.397 . S
C205 C206 1.390 . S
C205 C221 1.476 . S
C206 H164 0.930 . S
C206 C205 1.390 . S
C206 C207 1.366 . S
C207 H165 0.932 . S
C207 C202 1.360 . S
C207 C206 1.366 . S
C208 C182 1.490 . S
C208 C209 1.380 . S
C208 C213 1.386 . S
C209 H166 0.930 . S
C209 C208 1.380 . S
C209 C210 1.381 . S
C210 H167 0.929 . S
C210 C209 1.381 . S
C210 C211 1.371 . S
C211 C210 1.371 . S
C211 C212 1.380 . S
C212 H168 0.931 . S
C212 C211 1.380 . S
C212 C213 1.387 . S
C213 H169 0.930 . S
C213 C208 1.386 . S
C213 C212 1.387 . S
C214 C183 1.519 . S
C214 C215 1.377 . S
C214 C219 1.361 . S
C215 H170 0.929 . S
C215 C214 1.377 . S
C215 C216 1.386 . S
C216 H171 0.931 . S
C216 C215 1.386 . S
C216 C217 1.363 . S
C217 C216 1.363 . S
C217 C218 1.385 . S
C218 H172 0.930 . S
C218 C217 1.385 . S
C218 C219 1.396 . S
C219 H173 0.929 . S
C219 C214 1.361 . S
C219 C218 1.396 . S
C220 O174 1.300 . S
C220 O175 1.209 . S
C220 C193 1.486 . S
C221 O176 1.199 . S
C221 O177 1.297 . S
C221 C205 1.476 . S
H222 O248 0.856 . S
H223 O251 0.854 . S
H224 C259 0.930 1_455 S
H225 C260 0.930 . S
H226 C262 0.930 . S
H227 C263 0.930 . S
H228 C265 0.931 . S
H229 C266 0.930 . S
H230 C268 0.930 . S
H231 C269 0.929 . S
H232 C271 0.930 . S
H233 C272 0.931 . S
H234 C274 0.930 . S
H235 C275 0.929 . S
H236 C277 0.931 . S
H237 C278 0.930 . S
H238 C280 0.930 . S
H239 C281 0.932 . S
H240 C283 0.930 . S
H241 C284 0.929 . S
H242 C286 0.931 . S
H243 C287 0.930 . S
H244 C289 0.929 . S
H245 C290 0.931 . S
H246 C292 0.930 . S
H247 C293 0.929 . S
O248 H222 0.856 . S
O248 C294 1.300 . S
O249 C294 1.209 . S
O250 C295 1.199 . S
O251 H223 0.854 . S
O251 C295 1.297 . S
C252 C253 1.404 . S
C252 C257 1.397 . S
C252 C258 1.492 1_455 S
C253 C252 1.404 . S
C253 C254 1.396 . S
C253 C264 1.492 . S
C254 C253 1.396 . S
C254 C255 1.397 . S
C254 C270 1.509 . S
C255 C254 1.397 . S
C255 C256 1.412 . S
C255 C276 1.485 . S
C256 C255 1.412 . S
C256 C257 1.388 . S
C256 C282 1.490 . S
C257 C252 1.397 . S
C257 C256 1.388 . S
C257 C288 1.519 1_455 S
C258 C252 1.492 1_655 S
C258 C259 1.363 . S
C258 C263 1.390 . S
C259 H224 0.930 1_655 S
C259 C258 1.363 . S
C259 C260 1.372 . S
C260 H225 0.930 . S
C260 C259 1.372 . S
C260 C261 1.383 . S
C261 C260 1.383 . S
C261 C262 1.395 . S
C262 H226 0.930 . S
C262 C261 1.395 . S
C262 C263 1.362 . S
C263 H227 0.930 . S
C263 C258 1.390 . S
C263 C262 1.362 . S
C264 C253 1.492 . S
C264 C265 1.377 . S
C264 C269 1.397 . S
C265 H228 0.931 . S
C265 C264 1.377 . S
C265 C266 1.376 . S
C266 H229 0.930 . S
C266 C265 1.376 . S
C266 C267 1.376 . S
C267 C266 1.376 . S
C267 C268 1.378 . S
C267 C294 1.486 . S
C268 H230 0.930 . S
C268 C267 1.378 . S
C268 C269 1.376 . S
C269 H231 0.929 . S
C269 C264 1.397 . S
C269 C268 1.376 . S
C270 C254 1.509 . S
C270 C271 1.391 . S
C270 C275 1.386 . S
C271 H232 0.930 . S
C271 C270 1.391 . S
C271 C272 1.375 . S
C272 H233 0.931 . S
C272 C271 1.375 . S
C272 C273 1.375 . S
C273 C272 1.375 . S
C273 C274 1.361 . S
C274 H234 0.930 . S
C274 C273 1.361 . S
C274 C275 1.399 . S
C275 H235 0.929 . S
C275 C270 1.386 . S
C275 C274 1.399 . S
C276 C255 1.485 . S
C276 C277 1.394 . S
C276 C281 1.360 . S
C277 H236 0.931 . S
C277 C276 1.394 . S
C277 C278 1.372 . S
C278 H237 0.930 . S
C278 C277 1.372 . S
C278 C279 1.397 . S
C279 C278 1.397 . S
C279 C280 1.390 . S
C279 C295 1.476 . S
C280 H238 0.930 . S
C280 C279 1.390 . S
C280 C281 1.366 . S
C281 H239 0.932 . S
C281 C276 1.360 . S
C281 C280 1.366 . S
C282 C256 1.490 . S
C282 C283 1.380 . S
C282 C287 1.386 . S
C283 H240 0.930 . S
C283 C282 1.380 . S
C283 C284 1.381 . S
C284 H241 0.929 . S
C284 C283 1.381 . S
C284 C285 1.371 . S
C285 C284 1.371 . S
C285 C286 1.380 . S
C286 H242 0.931 . S
C286 C285 1.380 . S
C286 C287 1.387 . S
C287 H243 0.930 . S
C287 C282 1.386 . S
C287 C286 1.387 . S
C288 C257 1.519 1_655 S
C288 C289 1.377 . S
C288 C293 1.361 . S
C289 H244 0.929 . S
C289 C288 1.377 . S
C289 C290 1.386 . S
C290 H245 0.931 . S
C290 C289 1.386 . S
C290 C291 1.363 . S
C291 C290 1.363 . S
C291 C292 1.385 . S
C292 H246 0.930 . S
C292 C291 1.385 . S
C292 C293 1.396 . S
C293 H247 0.929 . S
C293 C288 1.361 . S
C293 C292 1.396 . S
C294 O248 1.300 . S
C294 O249 1.209 . S
C294 C267 1.486 . S
C295 O250 1.199 . S
C295 O251 1.297 . S
C295 C279 1.476 . S
H296 O322 0.856 . S
H297 O325 0.854 . S
H298 C333 0.930 . S
H299 C334 0.930 . S
H300 C336 0.930 . S
H301 C337 0.930 . S
H302 C339 0.931 . S
H303 C340 0.930 . S
H304 C342 0.930 . S
H305 C343 0.929 . S
H306 C345 0.930 . S
H307 C346 0.931 . S
H308 C348 0.930 . S
H309 C349 0.929 . S
H310 C351 0.931 . S
H311 C352 0.930 . S
H312 C354 0.930 . S
H313 C355 0.932 . S
H314 C357 0.930 . S
H315 C358 0.929 1_545 S
H316 C360 0.931 . S
H317 C361 0.930 . S
H318 C363 0.929 1_556 S
H319 C364 0.931 . S
H320 C366 0.930 . S
H321 C367 0.929 . S
O322 H296 0.856 . S
O322 C368 1.300 . S
O323 C368 1.209 . S
O324 C369 1.199 . S
O325 H297 0.854 . S
O325 C369 1.297 . S
C326 C327 1.402 1_545 S
C326 C331 1.397 . S
C326 C332 1.494 . S
C327 C326 1.402 1_565 S
C327 C328 1.396 . S
C327 C338 1.492 . S
C328 C327 1.396 . S
C328 C329 1.397 . S
C328 C344 1.509 . S
C329 C328 1.397 . S
C329 C330 1.412 1_556 S
C329 C350 1.485 1_556 S
C330 C329 1.412 1_554 S
C330 C331 1.388 1_564 S
C330 C356 1.490 . S
C331 C326 1.397 . S
C331 C330 1.388 1_546 S
C331 C362 1.519 1_556 S
C332 C326 1.494 . S
C332 C333 1.363 . S
C332 C337 1.390 . S
C333 H298 0.930 . S
C333 C332 1.363 . S
C333 C334 1.372 . S
C334 H299 0.930 . S
C334 C333 1.372 . S
C334 C335 1.383 . S
C335 C334 1.383 . S
C335 C336 1.395 . S
C336 H300 0.930 . S
C336 C335 1.395 . S
C336 C337 1.362 . S
C337 H301 0.930 . S
C337 C332 1.390 . S
C337 C336 1.362 . S
C338 C327 1.492 . S
C338 C339 1.377 . S
C338 C343 1.397 . S
C339 H302 0.931 . S
C339 C338 1.377 . S
C339 C340 1.376 . S
C340 H303 0.930 . S
C340 C339 1.376 . S
C340 C341 1.376 . S
C341 C340 1.376 . S
C341 C342 1.378 . S
C341 C368 1.486 . S
C342 H304 0.930 . S
C342 C341 1.378 . S
C342 C343 1.376 . S
C343 H305 0.929 . S
C343 C338 1.397 . S
C343 C342 1.376 . S
C344 C328 1.509 . S
C344 C345 1.391 . S
C344 C349 1.386 . S
C345 H306 0.930 . S
C345 C344 1.391 . S
C345 C346 1.375 . S
C346 H307 0.931 . S
C346 C345 1.375 . S
C346 C347 1.375 . S
C347 C346 1.375 . S
C347 C348 1.361 . S
C348 H308 0.930 . S
C348 C347 1.361 . S
C348 C349 1.399 . S
C349 H309 0.929 . S
C349 C344 1.386 . S
C349 C348 1.399 . S
C350 C329 1.485 1_554 S
C350 C351 1.394 . S
C350 C355 1.360 . S
C351 H310 0.931 . S
C351 C350 1.394 . S
C351 C352 1.372 . S
C352 H311 0.930 . S
C352 C351 1.372 . S
C352 C353 1.397 . S
C353 C352 1.397 . S
C353 C354 1.390 . S
C353 C369 1.476 . S
C354 H312 0.930 . S
C354 C353 1.390 . S
C354 C355 1.366 . S
C355 H313 0.932 . S
C355 C350 1.360 . S
C355 C354 1.366 . S
C356 C330 1.490 . S
C356 C357 1.380 . S
C356 C361 1.386 . S
C357 H314 0.930 . S
C357 C356 1.380 . S
C357 C358 1.381 . S
C358 H315 0.929 1_565 S
C358 C357 1.381 . S
C358 C359 1.371 . S
C359 C358 1.371 . S
C359 C360 1.380 . S
C360 H316 0.931 . S
C360 C359 1.380 . S
C360 C361 1.387 . S
C361 H317 0.930 . S
C361 C356 1.386 . S
C361 C360 1.387 . S
C362 C331 1.519 1_554 S
C362 C363 1.377 . S
C362 C367 1.361 . S
C363 H318 0.929 1_554 S
C363 C362 1.377 . S
C363 C364 1.386 . S
C364 H319 0.931 . S
C364 C363 1.386 . S
C364 C365 1.363 . S
C365 C364 1.363 . S
C365 C366 1.385 . S
C366 H320 0.930 . S
C366 C365 1.385 . S
C366 C367 1.396 . S
C367 H321 0.929 . S
C367 C362 1.361 . S
C367 C366 1.396 . S
C368 O322 1.300 . S
C368 O323 1.209 . S
C368 C341 1.486 . S
C369 O324 1.199 . S
C369 O325 1.297 . S
C369 C353 1.476 . S
H370 O396 0.856 1_556 S
H371 O399 0.854 . S
H372 C407 0.930 . S
H373 C408 0.930 . S
H374 C410 0.930 . S
H375 C411 0.930 . S
H376 C413 0.931 . S
H377 C414 0.930 . S
H378 C416 0.930 . S
H379 C417 0.929 . S
H380 C419 0.930 . S
H381 C420 0.931 . S
H382 C422 0.930 . S
H383 C423 0.929 . S
H384 C425 0.931 . S
H385 C426 0.930 . S
H386 C428 0.930 . S
H387 C429 0.932 . S
H388 C431 0.930 . S
H389 C432 0.929 . S
H390 C434 0.931 . S
H391 C435 0.930 . S
H392 C437 0.929 . S
H393 C438 0.931 . S
H394 C440 0.930 . S
H395 C441 0.929 . S
O396 H370 0.856 1_554 S
O396 C442 1.300 . S
O397 C442 1.209 . S
O398 C443 1.199 . S
O399 H371 0.854 . S
O399 C443 1.297 . S
C400 C401 1.404 . S
C400 C405 1.397 . S
C400 C406 1.492 . S
C401 C400 1.404 . S
C401 C402 1.396 . S
C401 C412 1.492 . S
C402 C401 1.396 . S
C402 C403 1.397 . S
C402 C418 1.509 . S
C403 C402 1.397 . S
C403 C404 1.412 . S
C403 C424 1.485 . S
C404 C403 1.412 . S
C404 C405 1.388 . S
C404 C430 1.490 . S
C405 C400 1.397 . S
C405 C404 1.388 . S
C405 C436 1.519 . S
C406 C400 1.492 . S
C406 C407 1.363 . S
C406 C411 1.390 . S
C407 H372 0.930 . S
C407 C406 1.363 . S
C407 C408 1.372 . S
C408 H373 0.930 . S
C408 C407 1.372 . S
C408 C409 1.383 . S
C409 C408 1.383 . S
C409 C410 1.395 . S
C410 H374 0.930 . S
C410 C409 1.395 . S
C410 C411 1.362 . S
C411 H375 0.930 . S
C411 C406 1.390 . S
C411 C410 1.362 . S
C412 C401 1.492 . S
C412 C413 1.377 . S
C412 C417 1.397 . S
C413 H376 0.931 . S
C413 C412 1.377 . S
C413 C414 1.376 . S
C414 H377 0.930 . S
C414 C413 1.376 . S
C414 C415 1.376 . S
C415 C414 1.376 . S
C415 C416 1.378 . S
C415 C442 1.486 . S
C416 H378 0.930 . S
C416 C415 1.378 . S
C416 C417 1.376 . S
C417 H379 0.929 . S
C417 C412 1.397 . S
C417 C416 1.376 . S
C418 C402 1.509 . S
C418 C419 1.391 . S
C418 C423 1.386 . S
C419 H380 0.930 . S
C419 C418 1.391 . S
C419 C420 1.375 . S
C420 H381 0.931 . S
C420 C419 1.375 . S
C420 C421 1.375 . S
C421 C420 1.375 . S
C421 C422 1.361 . S
C422 H382 0.930 . S
C422 C421 1.361 . S
C422 C423 1.399 . S
C423 H383 0.929 . S
C423 C418 1.386 . S
C423 C422 1.399 . S
C424 C403 1.485 . S
C424 C425 1.394 . S
C424 C429 1.360 . S
C425 H384 0.931 . S
C425 C424 1.394 . S
C425 C426 1.372 . S
C426 H385 0.930 . S
C426 C425 1.372 . S
C426 C427 1.397 . S
C427 C426 1.397 . S
C427 C428 1.390 . S
C427 C443 1.476 . S
C428 H386 0.930 . S
C428 C427 1.390 . S
C428 C429 1.366 . S
C429 H387 0.932 . S
C429 C424 1.360 . S
C429 C428 1.366 . S
C430 C404 1.490 . S
C430 C431 1.380 . S
C430 C435 1.386 . S
C431 H388 0.930 . S
C431 C430 1.380 . S
C431 C432 1.381 . S
C432 H389 0.929 . S
C432 C431 1.381 . S
C432 C433 1.371 . S
C433 C432 1.371 . S
C433 C434 1.380 . S
C434 H390 0.931 . S
C434 C433 1.380 . S
C434 C435 1.387 . S
C435 H391 0.930 . S
C435 C430 1.386 . S
C435 C434 1.387 . S
C436 C405 1.519 . S
C436 C437 1.377 . S
C436 C441 1.361 . S
C437 H392 0.929 . S
C437 C436 1.377 . S
C437 C438 1.386 . S
C438 H393 0.931 . S
C438 C437 1.386 . S
C438 C439 1.363 . S
C439 C438 1.363 . S
C439 C440 1.385 . S
C440 H394 0.930 . S
C440 C439 1.385 . S
C440 C441 1.396 . S
C441 H395 0.929 . S
C441 C436 1.361 . S
C441 C440 1.396 . S
C442 O396 1.300 . S
C442 O397 1.209 . S
C442 C415 1.486 . S
C443 O398 1.199 . S
C443 O399 1.297 . S
C443 C427 1.476 . S
C444 O445 1.306 . S
C444 O447 1.160 . S
O445 C444 1.306 . S
O445 Cd446 2.228 . S
Cd446 O445 2.228 . S
Cd446 O450 2.273 . S
Cd446 O454 2.277 . S
O447 C444 1.160 . S
O447 Cd448 2.203 . S
Cd448 O447 2.203 . S
Cd448 O450 2.411 . S
Cd448 O451 2.333 . S
Cd448 O452 2.352 . S
Cd448 O456 2.277 . S
Cd448 O457 2.356 . S
C449 O454 1.209 . S
C449 O456 1.226 . S
O450 Cd446 2.273 . S
O450 Cd448 2.411 . S
O450 C453 1.320 . S
O451 Cd448 2.333 . S
O451 C453 1.214 . S
O452 Cd448 2.352 . S
O452 C455 1.258 . S
C453 O450 1.320 . S
C453 O451 1.214 . S
O454 Cd446 2.277 . S
O454 C449 1.209 . S
C455 O452 1.258 . S
C455 O457 1.282 . S
O456 Cd448 2.277 . S
O456 C449 1.226 . S
O457 Cd448 2.356 . S
O457 C455 1.282 . S
C458 O459 1.306 . S
C458 O461 1.160 . S
O459 C458 1.306 . S
O459 Cd460 2.228 . S
Cd460 O459 2.228 . S
Cd460 O464 2.273 . S
Cd460 O468 2.277 . S
O461 C458 1.160 . S
O461 Cd462 2.203 . S
Cd462 O461 2.203 . S
Cd462 O464 2.411 . S
Cd462 O465 2.333 . S
Cd462 O466 2.352 . S
Cd462 O470 2.277 . S
Cd462 O471 2.356 . S
C463 O468 1.209 . S
C463 O470 1.226 . S
O464 Cd460 2.273 . S
O464 Cd462 2.411 . S
O464 C467 1.320 . S
O465 Cd462 2.333 . S
O465 C467 1.214 . S
O466 Cd462 2.352 . S
O466 C469 1.258 . S
C467 O464 1.320 . S
C467 O465 1.214 . S
O468 Cd460 2.277 . S
O468 C463 1.209 . S
C469 O466 1.258 . S
C469 O471 1.282 . S
O470 Cd462 2.277 . S
O470 C463 1.226 . S
O471 Cd462 2.356 . S
O471 C469 1.282 . S
C472 O473 1.306 . S
C472 O475 1.160 . S
O473 C472 1.306 . S
O473 Cd474 2.228 . S
Cd474 O473 2.228 . S
Cd474 O478 2.273 . S
Cd474 O482 2.277 . S
O475 C472 1.160 . S
O475 Cd476 2.203 . S
Cd476 O475 2.203 . S
Cd476 O478 2.411 . S
Cd476 O479 2.333 . S
Cd476 O480 2.352 . S
Cd476 O484 2.277 . S
Cd476 O485 2.356 . S
C477 O482 1.209 . S
C477 O484 1.226 . S
O478 Cd474 2.273 . S
O478 Cd476 2.411 . S
O478 C481 1.320 . S
O479 Cd476 2.333 . S
O479 C481 1.214 . S
O480 Cd476 2.352 . S
O480 C483 1.258 . S
C481 O478 1.320 . S
C481 O479 1.214 . S
O482 Cd474 2.277 . S
O482 C477 1.209 . S
C483 O480 1.258 . S
C483 O485 1.282 . S
O484 Cd476 2.277 . S
O484 C477 1.226 . S
O485 Cd476 2.356 . S
O485 C483 1.282 . S
C486 O487 1.306 . S
C486 O489 1.160 . S
O487 C486 1.306 . S
O487 Cd488 2.228 . S
Cd488 O487 2.228 . S
Cd488 O492 2.273 . S
Cd488 O496 2.277 . S
O489 C486 1.160 . S
O489 Cd490 2.203 . S
Cd490 O489 2.203 . S
Cd490 O492 2.411 . S
Cd490 O493 2.333 . S
Cd490 O494 2.352 . S
Cd490 O498 2.277 . S
Cd490 O499 2.356 . S
C491 O496 1.209 . S
C491 O498 1.226 . S
O492 Cd488 2.273 . S
O492 Cd490 2.411 . S
O492 C495 1.320 . S
O493 Cd490 2.333 . S
O493 C495 1.214 . S
O494 Cd490 2.352 . S
O494 C497 1.258 . S
C495 O492 1.320 . S
C495 O493 1.214 . S
O496 Cd488 2.277 . S
O496 C491 1.209 . S
C497 O494 1.258 . S
C497 O499 1.282 . S
O498 Cd490 2.277 . S
O498 C491 1.226 . S
O499 Cd490 2.356 . S
O499 C497 1.282 . S
C500 O501 1.306 . S
C500 O503 1.160 . S
O501 C500 1.306 . S
O501 Cd502 2.228 . S
Cd502 O501 2.228 . S
Cd502 O506 2.273 . S
Cd502 O510 2.277 . S
O503 C500 1.160 . S
O503 Cd504 2.203 . S
Cd504 O503 2.203 . S
Cd504 O506 2.411 . S
Cd504 O507 2.333 . S
Cd504 O508 2.352 . S
Cd504 O512 2.277 . S
Cd504 O513 2.356 . S
C505 O510 1.209 . S
C505 O512 1.226 . S
O506 Cd502 2.273 . S
O506 Cd504 2.411 . S
O506 C509 1.320 . S
O507 Cd504 2.333 . S
O507 C509 1.214 . S
O508 Cd504 2.352 . S
O508 C511 1.258 . S
C509 O506 1.320 . S
C509 O507 1.214 . S
O510 Cd502 2.277 . S
O510 C505 1.209 . S
C511 O508 1.258 . S
C511 O513 1.282 . S
O512 Cd504 2.277 . S
O512 C505 1.226 . S
O513 Cd504 2.356 . S
O513 C511 1.282 . S
C514 O515 1.306 . S
C514 O517 1.160 . S
O515 C514 1.306 . S
O515 Cd516 2.228 . S
Cd516 O515 2.228 . S
Cd516 O520 2.273 . S
Cd516 O524 2.277 . S
O517 C514 1.160 . S
O517 Cd518 2.203 . S
Cd518 O517 2.203 . S
Cd518 O520 2.411 . S
Cd518 O521 2.333 . S
Cd518 O522 2.352 . S
Cd518 O526 2.277 . S
Cd518 O527 2.356 . S
C519 O524 1.209 . S
C519 O526 1.226 . S
O520 Cd516 2.273 . S
O520 Cd518 2.411 . S
O520 C523 1.320 . S
O521 Cd518 2.333 . S
O521 C523 1.214 . S
O522 Cd518 2.352 . S
O522 C525 1.258 . S
C523 O520 1.320 . S
C523 O521 1.214 . S
O524 Cd516 2.277 . S
O524 C519 1.209 . S
C525 O522 1.258 . S
C525 O527 1.282 . S
O526 Cd518 2.277 . S
O526 C519 1.226 . S
O527 Cd518 2.356 . S
O527 C525 1.282 . S
C528 C529 1.391 . S
C528 C530 1.394 . S
C528 H544 0.931 . S
C529 C528 1.391 . S
C529 C533 1.376 . S
C530 C528 1.394 . S
C530 C531 1.369 . S
C530 C534 1.531 . S
C531 C530 1.369 . S
C531 C532 1.410 . S
C531 C539 1.503 . S
C532 C531 1.410 . S
C532 C533 1.392 . S
C532 C535 1.511 . S
C533 C529 1.376 . S
C533 C532 1.392 . S
C533 H545 0.929 . S
C534 C530 1.531 . S
C534 H546 0.960 . S
C534 H547 0.962 . S
C534 H548 0.960 . S
C535 C532 1.511 . S
C535 H549 0.961 . S
C535 H550 0.961 . S
C535 H551 0.961 . S
C536 C537 1.370 . S
C536 C538 1.363 . S
C536 H552 0.931 . S
C537 C536 1.370 . S
C537 C541 1.408 . S
C538 C536 1.363 . S
C538 C539 1.370 . S
C538 C542 1.524 . S
C539 C531 1.503 . S
C539 C538 1.370 . S
C539 C540 1.403 . S
C540 C539 1.403 . S
C540 C541 1.404 . S
C540 C543 1.539 . S
C541 C537 1.408 . S
C541 C540 1.404 . S
C541 H553 0.930 . S
C542 C538 1.524 . S
C542 H554 0.956 . S
C542 H555 0.961 . S
C542 H556 0.961 . S
C543 C540 1.539 . S
C543 H557 0.958 . S
C543 H558 0.961 . S
C543 H559 0.960 . S
H544 C528 0.931 . S
H545 C533 0.929 . S
H546 C534 0.960 . S
H547 C534 0.962 . S
H548 C534 0.960 . S
H549 C535 0.961 . S
H550 C535 0.961 . S
H551 C535 0.961 . S
H552 C536 0.931 . S
H553 C541 0.930 . S
H554 C542 0.956 . S
H555 C542 0.961 . S
H556 C542 0.961 . S
H557 C543 0.958 . S
H558 C543 0.961 . S
H559 C543 0.960 . S
C560 C561 1.391 . S
C560 C562 1.394 . S
C560 H576 0.931 . S
C561 C560 1.391 . S
C561 C565 1.376 . S
C562 C560 1.394 . S
C562 C563 1.369 . S
C562 C566 1.531 . S
C563 C562 1.369 . S
C563 C564 1.410 . S
C563 C571 1.503 . S
C564 C563 1.410 . S
C564 C565 1.392 . S
C564 C567 1.511 . S
C565 C561 1.376 . S
C565 C564 1.392 . S
C565 H577 0.929 . S
C566 C562 1.531 . S
C566 H578 0.960 . S
C566 H579 0.962 . S
C566 H580 0.960 . S
C567 C564 1.511 . S
C567 H581 0.961 . S
C567 H582 0.961 . S
C567 H583 0.961 . S
C568 C569 1.370 . S
C568 C570 1.363 . S
C568 H584 0.931 . S
C569 C568 1.370 . S
C569 C573 1.408 . S
C570 C568 1.363 . S
C570 C571 1.370 . S
C570 C574 1.524 . S
C571 C563 1.503 . S
C571 C570 1.370 . S
C571 C572 1.403 . S
C572 C571 1.403 . S
C572 C573 1.404 . S
C572 C575 1.539 . S
C573 C569 1.408 . S
C573 C572 1.404 . S
C573 H585 0.930 . S
C574 C570 1.524 . S
C574 H586 0.956 . S
C574 H587 0.961 . S
C574 H588 0.961 . S
C575 C572 1.539 . S
C575 H589 0.958 . S
C575 H590 0.961 . S
C575 H591 0.960 . S
H576 C560 0.931 . S
H577 C565 0.929 . S
H578 C566 0.960 . S
H579 C566 0.962 . S
H580 C566 0.960 . S
H581 C567 0.961 . S
H582 C567 0.961 . S
H583 C567 0.961 . S
H584 C568 0.931 . S
H585 C573 0.930 . S
H586 C574 0.956 . S
H587 C574 0.961 . S
H588 C574 0.961 . S
H589 C575 0.958 . S
H590 C575 0.961 . S
H591 C575 0.960 . S
C592 C593 1.391 . S
C592 C594 1.394 . S
C592 H608 0.931 . S
C593 C592 1.391 . S
C593 C597 1.376 . S
C594 C592 1.394 . S
C594 C595 1.369 . S
C594 C598 1.531 . S
C595 C594 1.369 . S
C595 C596 1.410 . S
C595 C603 1.503 . S
C596 C595 1.410 . S
C596 C597 1.392 . S
C596 C599 1.511 . S
C597 C593 1.376 . S
C597 C596 1.392 . S
C597 H609 0.929 . S
C598 C594 1.531 . S
C598 H610 0.960 . S
C598 H611 0.962 . S
C598 H612 0.960 . S
C599 C596 1.511 . S
C599 H613 0.961 . S
C599 H614 0.961 . S
C599 H615 0.961 . S
C600 C601 1.370 . S
C600 C602 1.363 . S
C600 H616 0.931 . S
C601 C600 1.370 . S
C601 C605 1.408 . S
C602 C600 1.363 . S
C602 C603 1.370 . S
C602 C606 1.524 . S
C603 C595 1.503 . S
C603 C602 1.370 . S
C603 C604 1.403 . S
C604 C603 1.403 . S
C604 C605 1.404 . S
C604 C607 1.539 . S
C605 C601 1.408 . S
C605 C604 1.404 . S
C605 H617 0.930 . S
C606 C602 1.524 . S
C606 H618 0.956 . S
C606 H619 0.961 . S
C606 H620 0.961 . S
C607 C604 1.539 . S
C607 H621 0.958 . S
C607 H622 0.961 . S
C607 H623 0.960 . S
H608 C592 0.931 . S
H609 C597 0.929 . S
H610 C598 0.960 . S
H611 C598 0.962 . S
H612 C598 0.960 . S
H613 C599 0.961 . S
H614 C599 0.961 . S
H615 C599 0.961 . S
H616 C600 0.931 . S
H617 C605 0.930 . S
H618 C606 0.956 . S
H619 C606 0.961 . S
H620 C606 0.961 . S
H621 C607 0.958 . S
H622 C607 0.961 . S
H623 C607 0.960 . S
C624 C625 1.391 . S
C624 C626 1.394 . S
C624 H640 0.931 . S
C625 C624 1.391 . S
C625 C629 1.376 . S
C626 C624 1.394 . S
C626 C627 1.369 . S
C626 C630 1.531 . S
C627 C626 1.369 . S
C627 C628 1.410 . S
C627 C635 1.503 . S
C628 C627 1.410 . S
C628 C629 1.392 . S
C628 C631 1.511 . S
C629 C625 1.376 . S
C629 C628 1.392 . S
C629 H641 0.929 . S
C630 C626 1.531 . S
C630 H642 0.960 . S
C630 H643 0.962 . S
C630 H644 0.960 . S
C631 C628 1.511 . S
C631 H645 0.961 . S
C631 H646 0.961 . S
C631 H647 0.961 . S
C632 C633 1.370 . S
C632 C634 1.363 . S
C632 H648 0.931 . S
C633 C632 1.370 . S
C633 C637 1.408 . S
C634 C632 1.363 . S
C634 C635 1.370 . S
C634 C638 1.524 . S
C635 C627 1.503 . S
C635 C634 1.370 . S
C635 C636 1.403 . S
C636 C635 1.403 . S
C636 C637 1.404 . S
C636 C639 1.539 . S
C637 C633 1.408 . S
C637 C636 1.404 . S
C637 H649 0.930 . S
C638 C634 1.524 . S
C638 H650 0.956 . S
C638 H651 0.961 . S
C638 H652 0.961 . S
C639 C636 1.539 . S
C639 H653 0.958 . S
C639 H654 0.961 . S
C639 H655 0.960 . S
H640 C624 0.931 . S
H641 C629 0.929 . S
H642 C630 0.960 . S
H643 C630 0.962 . S
H644 C630 0.960 . S
H645 C631 0.961 . S
H646 C631 0.961 . S
H647 C631 0.961 . S
H648 C632 0.931 . S
H649 C637 0.930 . S
H650 C638 0.956 . S
H651 C638 0.961 . S
H652 C638 0.961 . S
H653 C639 0.958 . S
H654 C639 0.961 . S
H655 C639 0.960 . S
C656 C657 1.391 . S
C656 C658 1.394 . S
C656 H672 0.931 . S
C657 C656 1.391 . S
C657 C661 1.376 . S
C658 C656 1.394 . S
C658 C659 1.369 . S
C658 C662 1.531 . S
C659 C658 1.369 . S
C659 C660 1.410 . S
C659 C667 1.503 . S
C660 C659 1.410 . S
C660 C661 1.392 . S
C660 C663 1.511 . S
C661 C657 1.376 . S
C661 C660 1.392 . S
C661 H673 0.929 . S
C662 C658 1.531 . S
C662 H674 0.960 . S
C662 H675 0.962 . S
C662 H676 0.960 . S
C663 C660 1.511 . S
C663 H677 0.961 . S
C663 H678 0.961 . S
C663 H679 0.961 . S
C664 C665 1.370 . S
C664 C666 1.363 . S
C664 H680 0.931 . S
C665 C664 1.370 . S
C665 C669 1.408 . S
C666 C664 1.363 . S
C666 C667 1.370 . S
C666 C670 1.524 . S
C667 C659 1.503 . S
C667 C666 1.370 . S
C667 C668 1.403 . S
C668 C667 1.403 . S
C668 C669 1.404 . S
C668 C671 1.539 . S
C669 C665 1.408 . S
C669 C668 1.404 . S
C669 H681 0.930 . S
C670 C666 1.524 . S
C670 H682 0.956 . S
C670 H683 0.961 . S
C670 H684 0.961 . S
C671 C668 1.539 . S
C671 H685 0.958 . S
C671 H686 0.961 . S
C671 H687 0.960 . S
H672 C656 0.931 . S
H673 C661 0.929 . S
H674 C662 0.960 . S
H675 C662 0.962 . S
H676 C662 0.960 . S
H677 C663 0.961 . S
H678 C663 0.961 . S
H679 C663 0.961 . S
H680 C664 0.931 . S
H681 C669 0.930 . S
H682 C670 0.956 . S
H683 C670 0.961 . S
H684 C670 0.961 . S
H685 C671 0.958 . S
H686 C671 0.961 . S
H687 C671 0.960 . S
C688 C689 1.391 . S
C688 C690 1.394 . S
C688 H704 0.931 . S
C689 C688 1.391 . S
C689 C693 1.376 . S
C690 C688 1.394 . S
C690 C691 1.369 . S
C690 C694 1.531 . S
C691 C690 1.369 . S
C691 C692 1.410 . S
C691 C699 1.503 . S
C692 C691 1.410 . S
C692 C693 1.392 . S
C692 C695 1.511 . S
C693 C689 1.376 . S
C693 C692 1.392 . S
C693 H705 0.929 . S
C694 C690 1.531 . S
C694 H706 0.960 . S
C694 H707 0.962 . S
C694 H708 0.960 . S
C695 C692 1.511 . S
C695 H709 0.961 . S
C695 H710 0.961 . S
C695 H711 0.961 . S
C696 C697 1.370 . S
C696 C698 1.363 . S
C696 H712 0.931 . S
C697 C696 1.370 . S
C697 C701 1.408 . S
C698 C696 1.363 . S
C698 C699 1.370 . S
C698 C702 1.524 . S
C699 C691 1.503 . S
C699 C698 1.370 . S
C699 C700 1.403 . S
C700 C699 1.403 . S
C700 C701 1.404 . S
C700 C703 1.539 . S
C701 C697 1.408 . S
C701 C700 1.404 . S
C701 H713 0.930 . S
C702 C698 1.524 . S
C702 H714 0.956 . S
C702 H715 0.961 . S
C702 H716 0.961 . S
C703 C700 1.539 . S
C703 H717 0.958 . S
C703 H718 0.961 . S
C703 H719 0.960 . S
H704 C688 0.931 . S
H705 C693 0.929 . S
H706 C694 0.960 . S
H707 C694 0.962 . S
H708 C694 0.960 . S
H709 C695 0.961 . S
H710 C695 0.961 . S
H711 C695 0.961 . S
H712 C696 0.931 . S
H713 C701 0.930 . S
H714 C702 0.956 . S
H715 C702 0.961 . S
H716 C702 0.961 . S
H717 C703 0.958 . S
H718 C703 0.961 . S
H719 C703 0.960 . S
C720 C721 1.391 . S
C720 C722 1.394 . S
C720 H736 0.931 . S
C721 C720 1.391 . S
C721 C725 1.376 . S
C722 C720 1.394 . S
C722 C723 1.369 . S
C722 C726 1.531 . S
C723 C722 1.369 . S
C723 C724 1.410 . S
C723 C731 1.503 . S
C724 C723 1.410 . S
C724 C725 1.392 . S
C724 C727 1.511 . S
C725 C721 1.376 . S
C725 C724 1.392 . S
C725 H737 0.929 . S
C726 C722 1.531 . S
C726 H738 0.960 . S
C726 H739 0.962 . S
C726 H740 0.960 . S
C727 C724 1.511 . S
C727 H741 0.961 . S
C727 H742 0.961 . S
C727 H743 0.961 . S
C728 C729 1.370 . S
C728 C730 1.363 . S
C728 H744 0.931 . S
C729 C728 1.370 . S
C729 C733 1.408 . S
C730 C728 1.363 . S
C730 C731 1.370 . S
C730 C734 1.524 . S
C731 C723 1.503 . S
C731 C730 1.370 . S
C731 C732 1.403 . S
C732 C731 1.403 . S
C732 C733 1.404 . S
C732 C735 1.539 . S
C733 C729 1.408 . S
C733 C732 1.404 . S
C733 H745 0.930 . S
C734 C730 1.524 . S
C734 H746 0.956 . S
C734 H747 0.961 . S
C734 H748 0.961 . S
C735 C732 1.539 . S
C735 H749 0.958 . S
C735 H750 0.961 . S
C735 H751 0.960 . S
H736 C720 0.931 . S
H737 C725 0.929 . S
H738 C726 0.960 . S
H739 C726 0.962 . S
H740 C726 0.960 . S
H741 C727 0.961 . S
H742 C727 0.961 . S
H743 C727 0.961 . S
H744 C728 0.931 . S
H745 C733 0.930 . S
H746 C734 0.956 . S
H747 C734 0.961 . S
H748 C734 0.961 . S
H749 C735 0.958 . S
H750 C735 0.961 . S
H751 C735 0.960 . S
C752 C753 1.391 . S
C752 C754 1.394 . S
C752 H768 0.931 . S
C753 C752 1.391 . S
C753 C757 1.376 . S
C754 C752 1.394 . S
C754 C755 1.369 . S
C754 C758 1.531 . S
C755 C754 1.369 . S
C755 C756 1.410 . S
C755 C763 1.503 . S
C756 C755 1.410 . S
C756 C757 1.392 . S
C756 C759 1.511 . S
C757 C753 1.376 . S
C757 C756 1.392 . S
C757 H769 0.929 . S
C758 C754 1.531 . S
C758 H770 0.960 . S
C758 H771 0.962 . S
C758 H772 0.960 . S
C759 C756 1.511 . S
C759 H773 0.961 . S
C759 H774 0.961 . S
C759 H775 0.961 . S
C760 C761 1.370 . S
C760 C762 1.363 . S
C760 H776 0.931 . S
C761 C760 1.370 . S
C761 C765 1.408 . S
C762 C760 1.363 . S
C762 C763 1.370 . S
C762 C766 1.524 . S
C763 C755 1.503 . S
C763 C762 1.370 . S
C763 C764 1.403 . S
C764 C763 1.403 . S
C764 C765 1.404 . S
C764 C767 1.539 . S
C765 C761 1.408 . S
C765 C764 1.404 . S
C765 H777 0.930 . S
C766 C762 1.524 . S
C766 H778 0.956 . S
C766 H779 0.961 . S
C766 H780 0.961 . S
C767 C764 1.539 . S
C767 H781 0.958 . S
C767 H782 0.961 . S
C767 H783 0.960 . S
H768 C752 0.931 . S
H769 C757 0.929 . S
H770 C758 0.960 . S
H771 C758 0.962 . S
H772 C758 0.960 . S
H773 C759 0.961 . S
H774 C759 0.961 . S
H775 C759 0.961 . S
H776 C760 0.931 . S
H777 C765 0.930 . S
H778 C766 0.956 . S
H779 C766 0.961 . S
H780 C766 0.961 . S
H781 C767 0.958 . S
H782 C767 0.961 . S
H783 C767 0.960 . S
C784 C785 1.391 . S
C784 C786 1.394 . S
C784 H800 0.931 . S
C785 C784 1.391 . S
C785 C789 1.376 . S
C786 C784 1.394 . S
C786 C787 1.369 . S
C786 C790 1.531 . S
C787 C786 1.369 . S
C787 C788 1.410 . S
C787 C795 1.503 . S
C788 C787 1.410 . S
C788 C789 1.392 . S
C788 C791 1.511 . S
C789 C785 1.376 . S
C789 C788 1.392 . S
C789 H801 0.929 . S
C790 C786 1.531 . S
C790 H802 0.960 . S
C790 H803 0.962 . S
C790 H804 0.960 . S
C791 C788 1.511 . S
C791 H805 0.961 . S
C791 H806 0.961 . S
C791 H807 0.961 . S
C792 C793 1.370 . S
C792 C794 1.363 . S
C792 H808 0.931 . S
C793 C792 1.370 . S
C793 C797 1.408 . S
C794 C792 1.363 . S
C794 C795 1.370 . S
C794 C798 1.524 . S
C795 C787 1.503 . S
C795 C794 1.370 . S
C795 C796 1.403 . S
C796 C795 1.403 . S
C796 C797 1.404 . S
C796 C799 1.539 . S
C797 C793 1.408 . S
C797 C796 1.404 . S
C797 H809 0.930 . S
C798 C794 1.524 . S
C798 H810 0.956 . S
C798 H811 0.961 . S
C798 H812 0.961 . S
C799 C796 1.539 . S
C799 H813 0.958 . S
C799 H814 0.961 . S
C799 H815 0.960 . S
H800 C784 0.931 . S
H801 C789 0.929 . S
H802 C790 0.960 . S
H803 C790 0.962 . S
H804 C790 0.960 . S
H805 C791 0.961 . S
H806 C791 0.961 . S
H807 C791 0.961 . S
H808 C792 0.931 . S
H809 C797 0.930 . S
H810 C798 0.956 . S
H811 C798 0.961 . S
H812 C798 0.961 . S
H813 C799 0.958 . S
H814 C799 0.961 . S
H815 C799 0.960 . S
C816 C817 1.391 . S
C816 C818 1.394 . S
C816 H832 0.931 . S
C817 C816 1.391 . S
C817 C821 1.376 . S
C818 C816 1.394 . S
C818 C819 1.369 . S
C818 C822 1.531 . S
C819 C818 1.369 . S
C819 C820 1.410 . S
C819 C827 1.503 . S
C820 C819 1.410 . S
C820 C821 1.392 . S
C820 C823 1.511 . S
C821 C817 1.376 . S
C821 C820 1.392 . S
C821 H833 0.929 . S
C822 C818 1.531 . S
C822 H834 0.960 . S
C822 H835 0.962 . S
C822 H836 0.960 . S
C823 C820 1.511 . S
C823 H837 0.961 . S
C823 H838 0.961 . S
C823 H839 0.961 . S
C824 C825 1.370 . S
C824 C826 1.363 . S
C824 H840 0.931 . S
C825 C824 1.370 . S
C825 C829 1.408 . S
C826 C824 1.363 . S
C826 C827 1.370 . S
C826 C830 1.524 . S
C827 C819 1.503 . S
C827 C826 1.370 . S
C827 C828 1.403 . S
C828 C827 1.403 . S
C828 C829 1.404 . S
C828 C831 1.539 . S
C829 C825 1.408 . S
C829 C828 1.404 . S
C829 H841 0.930 . S
C830 C826 1.524 . S
C830 H842 0.956 . S
C830 H843 0.952 1_554 S
C830 H844 0.961 1_554 S
C831 C828 1.539 . S
C831 H845 0.958 . S
C831 H846 0.961 . S
C831 H847 0.960 . S
H832 C816 0.931 . S
H833 C821 0.929 . S
H834 C822 0.960 . S
H835 C822 0.962 . S
H836 C822 0.960 . S
H837 C823 0.961 . S
H838 C823 0.961 . S
H839 C823 0.961 . S
H840 C824 0.931 . S
H841 C829 0.930 . S
H842 C830 0.956 . S
H843 C830 0.952 1_556 S
H844 C830 0.961 1_556 S
H845 C831 0.958 . S
H846 C831 0.961 . S
H847 C831 0.960 . S
C848 C849 1.391 . S
C848 C850 1.394 . S
C848 H864 0.931 . S
C849 C848 1.391 . S
C849 C853 1.376 . S
C850 C848 1.394 . S
C850 C851 1.369 . S
C850 C854 1.531 . S
C851 C850 1.369 . S
C851 C852 1.410 . S
C851 C859 1.503 . S
C852 C851 1.410 . S
C852 C853 1.392 . S
C852 C855 1.511 . S
C853 C849 1.376 . S
C853 C852 1.392 . S
C853 H865 0.929 . S
C854 C850 1.531 . S
C854 H866 0.960 . S
C854 H867 0.962 . S
C854 H868 0.960 . S
C855 C852 1.511 . S
C855 H869 0.961 . S
C855 H870 0.961 . S
C855 H871 0.961 . S
C856 C857 1.370 . S
C856 C858 1.363 . S
C856 H872 0.931 . S
C857 C856 1.370 . S
C857 C861 1.408 . S
C858 C856 1.363 . S
C858 C859 1.370 . S
C858 C862 1.524 . S
C859 C851 1.503 . S
C859 C858 1.370 . S
C859 C860 1.403 . S
C860 C859 1.403 . S
C860 C861 1.404 . S
C860 C863 1.539 . S
C861 C857 1.408 . S
C861 C860 1.404 . S
C861 H873 0.930 . S
C862 C858 1.524 . S
C862 H874 0.956 . S
C862 H875 0.961 . S
C862 H876 0.961 . S
C863 C860 1.539 . S
C863 H877 0.958 . S
C863 H878 0.961 . S
C863 H879 0.960 . S
H864 C848 0.931 . S
H865 C853 0.929 . S
H866 C854 0.960 . S
H867 C854 0.962 . S
H868 C854 0.960 . S
H869 C855 0.961 . S
H870 C855 0.961 . S
H871 C855 0.961 . S
H872 C856 0.931 . S
H873 C861 0.930 . S
H874 C862 0.956 . S
H875 C862 0.961 . S
H876 C862 0.961 . S
H877 C863 0.958 . S
H878 C863 0.961 . S
H879 C863 0.960 . S
C880 C881 1.391 . S
C880 C882 1.394 . S
C880 H896 0.931 . S
C881 C880 1.391 . S
C881 C885 1.376 . S
C882 C880 1.394 . S
C882 C883 1.369 . S
C882 C886 1.531 . S
C883 C882 1.369 . S
C883 C884 1.410 . S
C883 C891 1.503 . S
C884 C883 1.410 . S
C884 C885 1.392 . S
C884 C887 1.511 . S
C885 C881 1.376 . S
C885 C884 1.392 . S
C885 H897 0.929 . S
C886 C882 1.531 . S
C886 H898 0.960 . S
C886 H899 0.962 . S
C886 H900 0.960 . S
C887 C884 1.511 . S
C887 H901 0.961 . S
C887 H902 0.961 . S
C887 H903 0.961 . S
C888 C889 1.370 . S
C888 C890 1.363 . S
C888 H904 0.931 . S
C889 C888 1.370 . S
C889 C893 1.408 . S
C890 C888 1.363 . S
C890 C891 1.370 . S
C890 C894 1.524 . S
C891 C883 1.503 . S
C891 C890 1.370 . S
C891 C892 1.403 . S
C892 C891 1.403 . S
C892 C893 1.404 . S
C892 C895 1.539 . S
C893 C889 1.408 . S
C893 C892 1.404 . S
C893 H905 0.930 . S
C894 C890 1.524 . S
C894 H906 0.956 . S
C894 H907 0.961 . S
C894 H908 0.961 . S
C895 C892 1.539 . S
C895 H909 0.958 . S
C895 H910 0.961 . S
C895 H911 0.960 . S
H896 C880 0.931 . S
H897 C885 0.929 . S
H898 C886 0.960 . S
H899 C886 0.962 . S
H900 C886 0.960 . S
H901 C887 0.961 . S
H902 C887 0.961 . S
H903 C887 0.961 . S
H904 C888 0.931 . S
H905 C893 0.930 . S
H906 C894 0.956 . S
H907 C894 0.961 . S
H908 C894 0.961 . S
H909 C895 0.958 . S
H910 C895 0.961 . S
H911 C895 0.960 . S
C912 C913 1.391 . S
C912 C914 1.394 . S
C912 H928 0.931 . S
C913 C912 1.391 . S
C913 C917 1.376 . S
C914 C912 1.394 . S
C914 C915 1.369 . S
C914 C918 1.531 . S
C915 C914 1.369 . S
C915 C916 1.410 . S
C915 C923 1.503 . S
C916 C915 1.410 . S
C916 C917 1.392 . S
C916 C919 1.511 . S
C917 C913 1.376 . S
C917 C916 1.392 . S
C917 H929 0.929 . S
C918 C914 1.531 . S
C918 H930 0.960 . S
C918 H931 0.962 . S
C918 H932 0.960 . S
C919 C916 1.511 . S
C919 H933 0.961 . S
C919 H934 0.961 . S
C919 H935 0.961 . S
C920 C921 1.370 . S
C920 C922 1.363 . S
C920 H936 0.931 . S
C921 C920 1.370 . S
C921 C925 1.408 . S
C922 C920 1.363 . S
C922 C923 1.370 . S
C922 C926 1.524 . S
C923 C915 1.503 . S
C923 C922 1.370 . S
C923 C924 1.403 . S
C924 C923 1.403 . S
C924 C925 1.404 . S
C924 C927 1.539 . S
C925 C921 1.408 . S
C925 C924 1.404 . S
C925 H937 0.930 . S
C926 C922 1.524 . S
C926 H938 0.956 . S
C926 H939 0.961 . S
C926 H940 0.961 . S
C927 C924 1.539 . S
C927 H941 0.958 . S
C927 H942 0.961 . S
C927 H943 0.960 . S
H928 C912 0.931 . S
H929 C917 0.929 . S
H930 C918 0.960 . S
H931 C918 0.962 . S
H932 C918 0.960 . S
H933 C919 0.961 . S
H934 C919 0.961 . S
H935 C919 0.961 . S
H936 C920 0.931 . S
H937 C925 0.930 . S
H938 C926 0.956 . S
H939 C926 0.961 . S
H940 C926 0.961 . S
H941 C927 0.958 . S
H942 C927 0.961 . S
H943 C927 0.960 . S
C944 C945 1.391 . S
C944 C946 1.394 . S
C944 H960 0.931 . S
C945 C944 1.391 . S
C945 C949 1.376 . S
C946 C944 1.394 . S
C946 C947 1.369 . S
C946 C950 1.531 . S
C947 C946 1.369 . S
C947 C948 1.410 . S
C947 C955 1.503 . S
C948 C947 1.410 . S
C948 C949 1.392 . S
C948 C951 1.511 . S
C949 C945 1.376 . S
C949 C948 1.392 . S
C949 H961 0.929 . S
C950 C946 1.531 . S
C950 H962 0.960 . S
C950 H963 0.962 . S
C950 H964 0.960 . S
C951 C948 1.511 . S
C951 H965 0.961 . S
C951 H966 0.961 . S
C951 H967 0.961 . S
C952 C953 1.370 . S
C952 C954 1.363 . S
C952 H968 0.931 . S
C953 C952 1.370 . S
C953 C957 1.408 . S
C954 C952 1.363 . S
C954 C955 1.370 . S
C954 C958 1.524 . S
C955 C947 1.503 . S
C955 C954 1.370 . S
C955 C956 1.403 . S
C956 C955 1.403 . S
C956 C957 1.404 . S
C956 C959 1.539 . S
C957 C953 1.408 . S
C957 C956 1.404 . S
C957 H969 0.930 . S
C958 C954 1.524 . S
C958 H970 0.956 . S
C958 H971 0.961 . S
C958 H972 0.961 . S
C959 C956 1.539 . S
C959 H973 0.958 . S
C959 H974 0.961 . S
C959 H975 0.960 . S
H960 C944 0.931 . S
H961 C949 0.929 . S
H962 C950 0.960 . S
H963 C950 0.962 . S
H964 C950 0.960 . S
H965 C951 0.961 . S
H966 C951 0.961 . S
H967 C951 0.961 . S
H968 C952 0.931 . S
H969 C957 0.930 . S
H970 C958 0.956 . S
H971 C958 0.961 . S
H972 C958 0.961 . S
H973 C959 0.958 . S
H974 C959 0.961 . S
H975 C959 0.960 . S
C976 C977 1.391 . S
C976 C978 1.394 . S
C976 H992 0.931 . S
C977 C976 1.391 . S
C977 C981 1.376 . S
C978 C976 1.394 . S
C978 C979 1.369 . S
C978 C982 1.531 . S
C979 C978 1.369 . S
C979 C980 1.410 . S
C979 C987 1.503 . S
C980 C979 1.410 . S
C980 C981 1.392 . S
C980 C983 1.511 . S
C981 C977 1.376 . S
C981 C980 1.392 . S
C981 H993 0.929 . S
C982 C978 1.531 . S
C982 H994 0.960 . S
C982 H995 0.962 . S
C982 H996 0.960 . S
C983 C980 1.511 . S
C983 H997 0.961 . S
C983 H998 0.961 . S
C983 H999 0.961 . S
C984 C985 1.370 . S
C984 C986 1.363 . S
C984 H1000 0.931 . S
C985 C984 1.370 . S
C985 C989 1.408 . S
C986 C984 1.363 . S
C986 C987 1.370 . S
C986 C990 1.524 . S
C987 C979 1.503 . S
C987 C986 1.370 . S
C987 C988 1.403 . S
C988 C987 1.403 . S
C988 C989 1.404 . S
C988 C991 1.539 . S
C989 C985 1.408 . S
C989 C988 1.404 . S
C989 H1001 0.930 . S
C990 C986 1.524 . S
C990 H1002 0.956 . S
C990 H1003 0.961 . S
C990 H1004 0.961 . S
C991 C988 1.539 . S
C991 H1005 0.958 . S
C991 H1006 0.961 . S
C991 H1007 0.960 . S
H992 C976 0.931 . S
H993 C981 0.929 . S
H994 C982 0.960 . S
H995 C982 0.962 . S
H996 C982 0.960 . S
H997 C983 0.961 . S
H998 C983 0.961 . S
H999 C983 0.961 . S
H1000 C984 0.931 . S
H1001 C989 0.930 . S
H1002 C990 0.956 . S
H1003 C990 0.961 . S
H1004 C990 0.961 . S
H1005 C991 0.958 . S
H1006 C991 0.961 . S
H1007 C991 0.960 . S
C1008 C1009 1.391 . S
C1008 C1010 1.394 . S
C1008 H1024 0.931 . S
C1009 C1008 1.391 . S
C1009 C1013 1.376 . S
C1010 C1008 1.394 . S
C1010 C1011 1.369 . S
C1010 C1014 1.531 . S
C1011 C1010 1.369 . S
C1011 C1012 1.410 . S
C1011 C1019 1.503 . S
C1012 C1011 1.410 . S
C1012 C1013 1.392 . S
C1012 C1015 1.511 . S
C1013 C1009 1.376 . S
C1013 C1012 1.392 . S
C1013 H1025 0.929 . S
C1014 C1010 1.531 . S
C1014 H1026 0.960 . S
C1014 H1027 0.962 . S
C1014 H1028 0.960 . S
C1015 C1012 1.511 . S
C1015 H1029 0.961 . S
C1015 H1030 0.961 . S
C1015 H1031 0.961 . S
C1016 C1017 1.370 1_556 S
C1016 C1018 1.363 . S
C1016 H1032 0.931 . S
C1017 C1016 1.370 1_554 S
C1017 C1021 1.408 . S
C1018 C1016 1.363 . S
C1018 C1019 1.370 . S
C1018 C1022 1.524 . S
C1019 C1011 1.503 . S
C1019 C1018 1.370 . S
C1019 C1020 1.403 . S
C1020 C1019 1.403 . S
C1020 C1021 1.404 1_556 S
C1020 C1023 1.539 . S
C1021 C1017 1.408 . S
C1021 C1020 1.404 1_554 S
C1021 H1033 0.930 . S
C1022 C1018 1.524 . S
C1022 H1034 0.956 . S
C1022 H1035 0.961 . S
C1022 H1036 0.961 . S
C1023 C1020 1.539 . S
C1023 H1037 0.958 . S
C1023 H1038 0.944 1_556 S
C1023 H1039 0.960 . S
H1024 C1008 0.931 . S
H1025 C1013 0.929 . S
H1026 C1014 0.960 . S
H1027 C1014 0.962 . S
H1028 C1014 0.960 . S
H1029 C1015 0.961 . S
H1030 C1015 0.961 . S
H1031 C1015 0.961 . S
H1032 C1016 0.931 . S
H1033 C1021 0.930 . S
H1034 C1022 0.956 . S
H1035 C1022 0.961 . S
H1036 C1022 0.961 . S
H1037 C1023 0.958 . S
H1038 C1023 0.944 1_554 S
H1039 C1023 0.960 . S
C1040 C1041 1.391 . S
C1040 C1042 1.394 . S
C1040 H1056 0.931 1_565 S
C1041 C1040 1.391 . S
C1041 C1045 1.376 . S
C1042 C1040 1.394 . S
C1042 C1043 1.369 . S
C1042 C1046 1.531 . S
C1043 C1042 1.369 . S
C1043 C1044 1.410 . S
C1043 C1051 1.503 . S
C1044 C1043 1.410 . S
C1044 C1045 1.392 . S
C1044 C1047 1.511 . S
C1045 C1041 1.376 . S
C1045 C1044 1.392 . S
C1045 H1057 0.929 . S
C1046 C1042 1.531 . S
C1046 H1058 0.960 . S
C1046 H1059 0.962 . S
C1046 H1060 0.960 . S
C1047 C1044 1.511 . S
C1047 H1061 0.961 . S
C1047 H1062 0.961 . S
C1047 H1063 0.961 . S
C1048 C1049 1.370 . S
C1048 C1050 1.363 . S
C1048 H1064 0.931 . S
C1049 C1048 1.370 . S
C1049 C1053 1.408 . S
C1050 C1048 1.363 . S
C1050 C1051 1.370 . S
C1050 C1054 1.524 . S
C1051 C1043 1.503 . S
C1051 C1050 1.370 . S
C1051 C1052 1.403 . S
C1052 C1051 1.403 . S
C1052 C1053 1.404 . S
C1052 C1055 1.539 . S
C1053 C1049 1.408 . S
C1053 C1052 1.404 . S
C1053 H1065 0.930 . S
C1054 C1050 1.524 . S
C1054 H1066 0.956 . S
C1054 H1067 0.961 . S
C1054 H1068 0.961 . S
C1055 C1052 1.539 . S
C1055 H1069 0.958 . S
C1055 H1070 0.961 . S
C1055 H1071 0.960 . S
H1056 C1040 0.931 1_545 S
H1057 C1045 0.929 . S
H1058 C1046 0.960 . S
H1059 C1046 0.962 . S
H1060 C1046 0.960 . S
H1061 C1047 0.961 . S
H1062 C1047 0.961 . S
H1063 C1047 0.961 . S
H1064 C1048 0.931 . S
H1065 C1053 0.930 . S
H1066 C1054 0.956 . S
H1067 C1054 0.961 . S
H1068 C1054 0.961 . S
H1069 C1055 0.958 . S
H1070 C1055 0.961 . S
H1071 C1055 0.960 . S
C1072 C1073 1.391 . S
C1072 C1074 1.394 . S
C1072 H1088 0.931 . S
C1073 C1072 1.391 . S
C1073 C1077 1.376 . S
C1074 C1072 1.394 . S
C1074 C1075 1.369 . S
C1074 C1078 1.531 . S
C1075 C1074 1.369 . S
C1075 C1076 1.410 . S
C1075 C1083 1.503 . S
C1076 C1075 1.410 . S
C1076 C1077 1.392 . S
C1076 C1079 1.511 . S
C1077 C1073 1.376 . S
C1077 C1076 1.392 . S
C1077 H1089 0.929 . S
C1078 C1074 1.531 . S
C1078 H1090 0.960 . S
C1078 H1091 0.962 . S
C1078 H1092 0.960 . S
C1079 C1076 1.511 . S
C1079 H1093 0.961 . S
C1079 H1094 0.961 . S
C1079 H1095 0.961 . S
C1080 C1081 1.370 . S
C1080 C1082 1.363 . S
C1080 H1096 0.931 . S
C1081 C1080 1.370 . S
C1081 C1085 1.408 . S
C1082 C1080 1.363 . S
C1082 C1083 1.370 . S
C1082 C1086 1.524 . S
C1083 C1075 1.503 . S
C1083 C1082 1.370 . S
C1083 C1084 1.403 . S
C1084 C1083 1.403 . S
C1084 C1085 1.404 . S
C1084 C1087 1.539 . S
C1085 C1081 1.408 . S
C1085 C1084 1.404 . S
C1085 H1097 0.930 . S
C1086 C1082 1.524 . S
C1086 H1098 0.956 . S
C1086 H1099 0.961 . S
C1086 H1100 0.961 . S
C1087 C1084 1.539 . S
C1087 H1101 0.958 . S
C1087 H1102 0.961 . S
C1087 H1103 0.960 . S
H1088 C1072 0.931 . S
H1089 C1077 0.929 . S
H1090 C1078 0.960 . S
H1091 C1078 0.962 . S
H1092 C1078 0.960 . S
H1093 C1079 0.961 . S
H1094 C1079 0.961 . S
H1095 C1079 0.961 . S
H1096 C1080 0.931 . S
H1097 C1085 0.930 . S
H1098 C1086 0.956 . S
H1099 C1086 0.961 . S
H1100 C1086 0.961 . S
H1101 C1087 0.958 . S
H1102 C1087 0.961 . S
H1103 C1087 0.960 . S
C1104 C1105 1.391 . S
C1104 C1106 1.394 . S
C1104 H1120 0.931 . S
C1105 C1104 1.391 . S
C1105 C1109 1.376 . S
C1106 C1104 1.394 . S
C1106 C1107 1.369 . S
C1106 C1110 1.531 . S
C1107 C1106 1.369 . S
C1107 C1108 1.410 . S
C1107 C1115 1.503 . S
C1108 C1107 1.410 . S
C1108 C1109 1.392 . S
C1108 C1111 1.511 . S
C1109 C1105 1.376 . S
C1109 C1108 1.392 . S
C1109 H1121 0.929 . S
C1110 C1106 1.531 . S
C1110 H1122 0.960 . S
C1110 H1123 0.962 . S
C1110 H1124 0.960 . S
C1111 C1108 1.511 . S
C1111 H1125 0.961 . S
C1111 H1126 0.961 . S
C1111 H1127 0.961 . S
C1112 C1113 1.370 . S
C1112 C1114 1.363 . S
C1112 H1128 0.931 . S
C1113 C1112 1.370 . S
C1113 C1117 1.408 . S
C1114 C1112 1.363 . S
C1114 C1115 1.370 . S
C1114 C1118 1.524 . S
C1115 C1107 1.503 . S
C1115 C1114 1.370 . S
C1115 C1116 1.403 . S
C1116 C1115 1.403 . S
C1116 C1117 1.404 . S
C1116 C1119 1.539 . S
C1117 C1113 1.408 . S
C1117 C1116 1.404 . S
C1117 H1129 0.930 . S
C1118 C1114 1.524 . S
C1118 H1130 0.956 . S
C1118 H1131 0.961 . S
C1118 H1132 0.961 . S
C1119 C1116 1.539 . S
C1119 H1133 0.958 . S
C1119 H1134 0.961 . S
C1119 H1135 0.960 . S
H1120 C1104 0.931 . S
H1121 C1109 0.929 . S
H1122 C1110 0.960 . S
H1123 C1110 0.962 . S
H1124 C1110 0.960 . S
H1125 C1111 0.961 . S
H1126 C1111 0.961 . S
H1127 C1111 0.961 . S
H1128 C1112 0.931 . S
H1129 C1117 0.930 . S
H1130 C1118 0.956 . S
H1131 C1118 0.961 . S
H1132 C1118 0.961 . S
H1133 C1119 0.958 . S
H1134 C1119 0.961 . S
H1135 C1119 0.960 . S
C1136 C1137 1.391 . S
C1136 C1138 1.394 . S
C1136 H1152 0.931 . S
C1137 C1136 1.391 . S
C1137 C1141 1.376 . S
C1138 C1136 1.394 . S
C1138 C1139 1.369 . S
C1138 C1142 1.531 . S
C1139 C1138 1.369 . S
C1139 C1140 1.410 . S
C1139 C1147 1.503 . S
C1140 C1139 1.410 . S
C1140 C1141 1.392 . S
C1140 C1143 1.511 . S
C1141 C1137 1.376 . S
C1141 C1140 1.392 . S
C1141 H1153 0.929 . S
C1142 C1138 1.531 . S
C1142 H1154 0.960 . S
C1142 H1155 0.962 . S
C1142 H1156 0.960 . S
C1143 C1140 1.511 . S
C1143 H1157 0.961 . S
C1143 H1158 0.961 . S
C1143 H1159 0.961 . S
C1144 C1145 1.370 . S
C1144 C1146 1.363 . S
C1144 H1160 0.931 . S
C1145 C1144 1.370 . S
C1145 C1149 1.408 . S
C1146 C1144 1.363 . S
C1146 C1147 1.370 . S
C1146 C1150 1.524 . S
C1147 C1139 1.503 . S
C1147 C1146 1.370 . S
C1147 C1148 1.403 . S
C1148 C1147 1.403 . S
C1148 C1149 1.404 . S
C1148 C1151 1.539 . S
C1149 C1145 1.408 . S
C1149 C1148 1.404 . S
C1149 H1161 0.930 . S
C1150 C1146 1.524 . S
C1150 H1162 0.956 . S
C1150 H1163 0.961 . S
C1150 H1164 0.961 . S
C1151 C1148 1.539 . S
C1151 H1165 0.958 . S
C1151 H1166 0.961 . S
C1151 H1167 0.960 . S
H1152 C1136 0.931 . S
H1153 C1141 0.929 . S
H1154 C1142 0.960 . S
H1155 C1142 0.962 . S
H1156 C1142 0.960 . S
H1157 C1143 0.961 . S
H1158 C1143 0.961 . S
H1159 C1143 0.961 . S
H1160 C1144 0.931 . S
H1161 C1149 0.930 . S
H1162 C1150 0.956 . S
H1163 C1150 0.961 . S
H1164 C1150 0.961 . S
H1165 C1151 0.958 . S
H1166 C1151 0.961 . S
H1167 C1151 0.960 . S
C1168 C1169 1.391 . S
C1168 C1170 1.394 . S
C1168 H1184 0.931 . S
C1169 C1168 1.391 . S
C1169 C1173 1.376 . S
C1170 C1168 1.394 . S
C1170 C1171 1.369 . S
C1170 C1174 1.531 . S
C1171 C1170 1.369 . S
C1171 C1172 1.410 . S
C1171 C1179 1.503 . S
C1172 C1171 1.410 . S
C1172 C1173 1.392 . S
C1172 C1175 1.511 . S
C1173 C1169 1.376 . S
C1173 C1172 1.392 . S
C1173 H1185 0.929 . S
C1174 C1170 1.531 . S
C1174 H1186 0.960 . S
C1174 H1187 0.962 . S
C1174 H1188 0.960 . S
C1175 C1172 1.511 . S
C1175 H1189 0.961 . S
C1175 H1190 0.961 . S
C1175 H1191 0.961 . S
C1176 C1177 1.370 . S
C1176 C1178 1.363 . S
C1176 H1192 0.931 . S
C1177 C1176 1.370 . S
C1177 C1181 1.408 . S
C1178 C1176 1.363 . S
C1178 C1179 1.370 . S
C1178 C1182 1.524 . S
C1179 C1171 1.503 . S
C1179 C1178 1.370 . S
C1179 C1180 1.403 . S
C1180 C1179 1.403 . S
C1180 C1181 1.404 . S
C1180 C1183 1.539 . S
C1181 C1177 1.408 . S
C1181 C1180 1.404 . S
C1181 H1193 0.930 . S
C1182 C1178 1.524 . S
C1182 H1194 0.956 . S
C1182 H1195 0.961 . S
C1182 H1196 0.961 . S
C1183 C1180 1.539 . S
C1183 H1197 0.958 . S
C1183 H1198 0.961 . S
C1183 H1199 0.960 . S
H1184 C1168 0.931 . S
H1185 C1173 0.929 . S
H1186 C1174 0.960 . S
H1187 C1174 0.962 . S
H1188 C1174 0.960 . S
H1189 C1175 0.961 . S
H1190 C1175 0.961 . S
H1191 C1175 0.961 . S
H1192 C1176 0.931 . S
H1193 C1181 0.930 . S
H1194 C1182 0.956 . S
H1195 C1182 0.961 . S
H1196 C1182 0.961 . S
H1197 C1183 0.958 . S
H1198 C1183 0.961 . S
H1199 C1183 0.960 . S
C1200 C1201 1.391 . S
C1200 C1202 1.394 . S
C1200 H1216 0.931 . S
C1201 C1200 1.391 . S
C1201 C1205 1.376 . S
C1202 C1200 1.394 . S
C1202 C1203 1.369 . S
C1202 C1206 1.531 . S
C1203 C1202 1.369 . S
C1203 C1204 1.410 . S
C1203 C1211 1.503 . S
C1204 C1203 1.410 . S
C1204 C1205 1.392 . S
C1204 C1207 1.511 . S
C1205 C1201 1.376 . S
C1205 C1204 1.392 . S
C1205 H1217 0.929 . S
C1206 C1202 1.531 . S
C1206 H1218 0.960 . S
C1206 H1219 0.962 . S
C1206 H1220 0.960 . S
C1207 C1204 1.511 . S
C1207 H1221 0.961 . S
C1207 H1222 0.961 . S
C1207 H1223 0.961 . S
C1208 C1209 1.370 . S
C1208 C1210 1.363 . S
C1208 H1224 0.931 . S
C1209 C1208 1.370 . S
C1209 C1213 1.408 . S
C1210 C1208 1.363 . S
C1210 C1211 1.370 . S
C1210 C1214 1.524 . S
C1211 C1203 1.503 . S
C1211 C1210 1.370 . S
C1211 C1212 1.403 . S
C1212 C1211 1.403 . S
C1212 C1213 1.404 . S
C1212 C1215 1.539 . S
C1213 C1209 1.408 . S
C1213 C1212 1.404 . S
C1213 H1225 0.930 . S
C1214 C1210 1.524 . S
C1214 H1226 0.956 . S
C1214 H1227 0.961 . S
C1214 H1228 0.961 . S
C1215 C1212 1.539 . S
C1215 H1229 0.958 . S
C1215 H1230 0.961 . S
C1215 H1231 0.960 . S
H1216 C1200 0.931 . S
H1217 C1205 0.929 . S
H1218 C1206 0.960 . S
H1219 C1206 0.962 . S
H1220 C1206 0.960 . S
H1221 C1207 0.961 . S
H1222 C1207 0.961 . S
H1223 C1207 0.961 . S
H1224 C1208 0.931 . S
H1225 C1213 0.930 . S
H1226 C1214 0.956 . S
H1227 C1214 0.961 . S
H1228 C1214 0.961 . S
H1229 C1215 0.958 . S
H1230 C1215 0.961 . S
H1231 C1215 0.960 . S
C1232 C1233 1.391 . S
C1232 C1234 1.394 . S
C1232 H1248 0.931 . S
C1233 C1232 1.391 . S
C1233 C1237 1.376 . S
C1234 C1232 1.394 . S
C1234 C1235 1.369 . S
C1234 C1238 1.531 . S
C1235 C1234 1.369 . S
C1235 C1236 1.410 . S
C1235 C1243 1.503 1_554 S
C1236 C1235 1.410 . S
C1236 C1237 1.392 . S
C1236 C1239 1.511 . S
C1237 C1233 1.376 . S
C1237 C1236 1.392 . S
C1237 H1249 0.929 . S
C1238 C1234 1.531 . S
C1238 H1250 0.960 1_554 S
C1238 H1251 0.962 1_554 S
C1238 H1252 0.960 . S
C1239 C1236 1.511 . S
C1239 H1253 0.961 . S
C1239 H1254 0.961 . S
C1239 H1255 0.961 . S
C1240 C1241 1.370 . S
C1240 C1242 1.363 . S
C1240 H1256 0.931 . S
C1241 C1240 1.370 . S
C1241 C1245 1.408 . S
C1242 C1240 1.363 . S
C1242 C1243 1.370 . S
C1242 C1246 1.524 1_556 S
C1243 C1235 1.503 1_556 S
C1243 C1242 1.370 . S
C1243 C1244 1.403 . S
C1244 C1243 1.403 . S
C1244 C1245 1.404 . S
C1244 C1247 1.539 . S
C1245 C1241 1.408 . S
C1245 C1244 1.404 . S
C1245 H1257 0.930 . S
C1246 C1242 1.524 1_554 S
C1246 H1258 0.956 . S
C1246 H1259 0.961 . S
C1246 H1260 0.965 . S
C1247 C1244 1.539 . S
C1247 H1261 0.958 . S
C1247 H1262 0.961 . S
C1247 H1263 0.960 1_556 S
H1248 C1232 0.931 . S
H1249 C1237 0.929 . S
H1250 C1238 0.960 1_556 S
H1251 C1238 0.962 1_556 S
H1252 C1238 0.960 . S
H1253 C1239 0.961 . S
H1254 C1239 0.961 . S
H1255 C1239 0.961 . S
H1256 C1240 0.931 . S
H1257 C1245 0.930 . S
H1258 C1246 0.956 . S
H1259 C1246 0.961 . S
H1260 C1246 0.965 . S
H1261 C1247 0.958 . S
H1262 C1247 0.961 . S
H1263 C1247 0.960 1_554 S
C1264 C1265 1.391 . S
C1264 C1266 1.394 . S
C1264 H1280 0.931 . S
C1265 C1264 1.391 . S
C1265 C1269 1.376 . S
C1266 C1264 1.394 . S
C1266 C1267 1.369 . S
C1266 C1270 1.531 . S
C1267 C1266 1.369 . S
C1267 C1268 1.410 . S
C1267 C1275 1.503 . S
C1268 C1267 1.410 . S
C1268 C1269 1.392 . S
C1268 C1271 1.511 . S
C1269 C1265 1.376 . S
C1269 C1268 1.392 . S
C1269 H1281 0.929 . S
C1270 C1266 1.531 . S
C1270 H1282 0.960 . S
C1270 H1283 0.962 . S
C1270 H1284 0.960 . S
C1271 C1268 1.511 . S
C1271 H1285 0.961 . S
C1271 H1286 0.961 . S
C1271 H1287 0.961 . S
C1272 C1273 1.370 . S
C1272 C1274 1.363 . S
C1272 H1288 0.931 . S
C1273 C1272 1.370 . S
C1273 C1277 1.408 . S
C1274 C1272 1.363 . S
C1274 C1275 1.370 . S
C1274 C1278 1.524 . S
C1275 C1267 1.503 . S
C1275 C1274 1.370 . S
C1275 C1276 1.403 . S
C1276 C1275 1.403 . S
C1276 C1277 1.404 . S
C1276 C1279 1.539 . S
C1277 C1273 1.408 . S
C1277 C1276 1.404 . S
C1277 H1289 0.930 . S
C1278 C1274 1.524 . S
C1278 H1290 0.956 . S
C1278 H1291 0.961 . S
C1278 H1292 0.961 . S
C1279 C1276 1.539 . S
C1279 H1293 0.958 . S
C1279 H1294 0.961 . S
C1279 H1295 0.960 . S
H1280 C1264 0.931 . S
H1281 C1269 0.929 . S
H1282 C1270 0.960 . S
H1283 C1270 0.962 . S
H1284 C1270 0.960 . S
H1285 C1271 0.961 . S
H1286 C1271 0.961 . S
H1287 C1271 0.961 . S
H1288 C1272 0.931 . S
H1289 C1277 0.930 . S
H1290 C1278 0.956 . S
H1291 C1278 0.961 . S
H1292 C1278 0.961 . S
H1293 C1279 0.958 . S
H1294 C1279 0.961 . S
H1295 C1279 0.960 . S
C537 C514 1.474 . S
C529 C51 1.435 . S
C561 C125 1.398 . S
C569 C455 1.426 . S
C593 C217 2.642 . S
C601 C458 2.701 . S
C625 C291 1.533 . S
C633 C472 1.549 . S
C665 C497 1.029 . S
C657 C347 0.956 . S
C689 C421 0.913 . S
C697 C500 0.933 . S
C721 C143 2.211 . S
C729 C469 2.223 . S
C753 C199 1.578 . S
C761 C483 1.586 . S
C785 C273 0.557 . S
C793 C486 0.519 . S
C825 C511 1.754 . S
C817 C365 1.709 . S
C857 C525 1.787 . S
C849 C439 1.785 . S
C889 C444 2.548 . S
C881 C69 2.470 . S
C913 C63 1.434 . S
C921 C467 1.518 . S
C945 C137 1.552 . S
C953 C481 1.659 . S
C985 C491 1.386 . S
C977 C187 1.372 . S
C1009 C261 1.473 . S
C1017 C509 1.539 . S
C1049 C523 1.626 . S
C1041 C359 1.489 . S
C1081 C449 1.227 . S
C1073 C433 1.210 . S
C1113 C519 1.695 . S
C1105 C113 1.701 . S
C1137 C211 1.338 . S
C1145 C453 1.428 . S
C1177 C463 1.663 . S
C1169 C285 1.591 . S
C1201 C335 1.446 . S
C1209 C477 1.503 . S
C1233 C409 1.331 . S
C1241 C495 1.394 . S
C1265 C39 1.591 . S
C1273 C505 1.665 . S
