# Generated by pormake.
# Topology nom, (4,4)-cn, num edge types: 1
# Building blocks:
#     Node 0, Type 0, BuildingBlock: MIFKUJ_clean_linker_1, # of connection points: 4
#     Node 1, Type 0, BuildingBlock: MIFKUJ_clean_linker_1, # of connection points: 4
#     Node 2, Type 0, BuildingBlock: MIFKUJ_clean_linker_1, # of connection points: 4
#     Node 3, Type 0, BuildingBlock: MIFKUJ_clean_linker_1, # of connection points: 4
#     Node 4, Type 0, BuildingBlock: MIFKUJ_clean_linker_1, # of connection points: 4
#     Node 5, Type 0, BuildingBlock: MIFKUJ_clean_linker_1, # of connection points: 4
#     Node 6, Type 1, BuildingBlock: GALJAG_clean_sbu_0, # of connection points: 4
#     Node 7, Type 1, BuildingBlock: GALJAG_clean_sbu_0, # of connection points: 4
#     Node 8, Type 1, BuildingBlock: GALJAG_clean_sbu_0, # of connection points: 4
#     Node 9, Type 1, BuildingBlock: GALJAG_clean_sbu_0, # of connection points: 4
#     Node 10, Type 1, BuildingBlock: GALJAG_clean_sbu_0, # of connection points: 4
#     Node 11, Type 1, BuildingBlock: GALJAG_clean_sbu_0, # of connection points: 4
#     Edge 12, Type (0, 1), BuildingBlock: AJUNOK_clean_linker_0, # of connection points: 2
#     Edge 13, Type (0, 1), BuildingBlock: AJUNOK_clean_linker_0, # of connection points: 2
#     Edge 14, Type (0, 1), BuildingBlock: AJUNOK_clean_linker_0, # of connection points: 2
#     Edge 15, Type (0, 1), BuildingBlock: AJUNOK_clean_linker_0, # of connection points: 2
#     Edge 16, Type (0, 1), BuildingBlock: AJUNOK_clean_linker_0, # of connection points: 2
#     Edge 17, Type (0, 1), BuildingBlock: AJUNOK_clean_linker_0, # of connection points: 2
#     Edge 18, Type (0, 1), BuildingBlock: AJUNOK_clean_linker_0, # of connection points: 2
#     Edge 19, Type (0, 1), BuildingBlock: AJUNOK_clean_linker_0, # of connection points: 2
#     Edge 20, Type (0, 1), BuildingBlock: AJUNOK_clean_linker_0, # of connection points: 2
#     Edge 21, Type (0, 1), BuildingBlock: AJUNOK_clean_linker_0, # of connection points: 2
#     Edge 22, Type (0, 1), BuildingBlock: AJUNOK_clean_linker_0, # of connection points: 2
#     Edge 23, Type (0, 1), BuildingBlock: AJUNOK_clean_linker_0, # of connection points: 2
#     Edge 24, Type (0, 1), BuildingBlock: AJUNOK_clean_linker_0, # of connection points: 2
#     Edge 25, Type (0, 1), BuildingBlock: AJUNOK_clean_linker_0, # of connection points: 2
#     Edge 26, Type (0, 1), BuildingBlock: AJUNOK_clean_linker_0, # of connection points: 2
#     Edge 27, Type (0, 1), BuildingBlock: AJUNOK_clean_linker_0, # of connection points: 2
#     Edge 28, Type (0, 1), BuildingBlock: AJUNOK_clean_linker_0, # of connection points: 2
#     Edge 29, Type (0, 1), BuildingBlock: AJUNOK_clean_linker_0, # of connection points: 2
#     Edge 30, Type (0, 1), BuildingBlock: AJUNOK_clean_linker_0, # of connection points: 2
#     Edge 31, Type (0, 1), BuildingBlock: AJUNOK_clean_linker_0, # of connection points: 2
#     Edge 32, Type (0, 1), BuildingBlock: AJUNOK_clean_linker_0, # of connection points: 2
#     Edge 33, Type (0, 1), BuildingBlock: AJUNOK_clean_linker_0, # of connection points: 2
#     Edge 34, Type (0, 1), BuildingBlock: AJUNOK_clean_linker_0, # of connection points: 2
#     Edge 35, Type (0, 1), BuildingBlock: AJUNOK_clean_linker_0, # of connection points: 2
# Relax obj value: 0.004
# Max RMSD: 0.109
# Mean RMSD: 0.081
data_MOF--net-nom--node1-GALJAG_clean_sbu_0--node2-MIFKUJ_clean_linker_1--edge1-AJUNOK_clean_linker_0
_symmetry_space_group_name_H-M    P1
_symmetry_Int_Tables_number       1
_symmetry_cell_setting            triclinic
loop_
_symmetry_equiv_pos_as_xyz
'x, y, z'
_cell_length_a     41.383805
_cell_length_b     41.265807
_cell_length_c     45.09266
_cell_angle_alpha  90.019578
_cell_angle_beta   90.022103
_cell_angle_gamma 120.10929
loop_
_atom_site_label
_atom_site_type_symbol
_atom_site_fract_x
_atom_site_fract_y
_atom_site_fract_z
_atom_type_partial_charge
H0 H 0.9919 0.48631 0.26818 0.0
H1 H 0.95028 0.45935 0.22557 0.0
H2 H 0.89932 0.52589 0.246 0.0
H3 H 0.94178 0.55354 0.28851 0.0
H4 H 0.04349 0.56093 0.27791 0.0
H5 H 0.92392 0.4664 0.3205 0.0
H6 H 0.85862 0.44055 0.33451 0.0
H7 H 0.88929 0.53734 0.38983 0.0
H8 H 0.95367 0.5648 0.37326 0.0
H9 H 0.05087 0.60368 0.4043 0.0
H10 H 0.09077 0.61606 0.44767 0.0
H11 H 0.14877 0.56792 0.40237 0.0
H12 H 0.10685 0.55272 0.36015 0.0
H13 H 1.0014 0.54408 0.38248 0.0
H14 H 0.10942 0.64454 0.33946 0.0
H15 H 0.17503 0.68346 0.32477 0.0
H16 H 0.16722 0.59153 0.27338 0.0
H17 H 0.10173 0.55255 0.28825 0.0
C18 C 0.96967 0.52163 0.28169 0.0
C19 C 0.97172 0.49507 0.26355 0.0
C20 C 0.94774 0.47945 0.23937 0.0
C21 C 0.92121 0.49011 0.23278 0.0
C22 C 0.91945 0.5171 0.2507 0.0
C23 C 0.94349 0.53273 0.27502 0.0
C24 C 0.99587 0.53803 0.30701 0.0
C25 C 0.03428 0.55707 0.30082 0.0
C26 C 0.98381 0.53483 0.33682 0.0
C27 C 0.94383 0.51796 0.34534 0.0
C28 C 0.9165 0.48249 0.33508 0.0
C29 C 0.87918 0.46729 0.3437 0.0
C30 C 0.86867 0.48657 0.36372 0.0
C31 C 0.89622 0.52183 0.3742 0.0
C32 C 0.93321 0.53742 0.36495 0.0
C33 C 0.07579 0.57738 0.37873 0.0
C34 C 0.07201 0.59555 0.40373 0.0
C35 C 0.09506 0.60289 0.42847 0.0
C36 C 0.12262 0.59247 0.42871 0.0
C37 C 0.12716 0.57537 0.40331 0.0
C38 C 0.10365 0.56739 0.37881 0.0
C39 C 0.04911 0.56665 0.35346 0.0
C40 C 0.01067 0.5485 0.35958 0.0
C41 C 0.06099 0.57231 0.32354 0.0
C42 C 0.10085 0.59553 0.3152 0.0
C43 C 0.12193 0.63267 0.32523 0.0
C44 C 0.15922 0.65494 0.31669 0.0
C45 C 0.17606 0.64032 0.29814 0.0
C46 C 0.15492 0.60324 0.28799 0.0
C47 C 0.11756 0.58107 0.29635 0.0
H48 H 0.40563 0.95074 0.53397 0.0
H49 H 0.36717 0.88534 0.54897 0.0
H50 H 0.45203 0.86226 0.51717 0.0
H51 H 0.4903 0.9279 0.50162 0.0
H52 H 0.4774 1.00219 0.55348 0.0
H53 H 0.41666 0.93642 0.46187 0.0
H54 H 0.40362 0.89321 0.4203 0.0
H55 H 0.52015 0.95324 0.39614 0.0
H56 H 0.5336 0.99541 0.43841 0.0
H57 H 0.57746 0.10442 0.4622 0.0
H58 H 0.60162 0.16925 0.44556 0.0
H59 H 0.51071 0.17173 0.4903 0.0
H60 H 0.48661 0.10711 0.50682 0.0
H61 H 0.51148 0.04335 0.44921 0.0
H62 H 0.57816 0.09729 0.53752 0.0
H63 H 0.60344 0.13738 0.58123 0.0
H64 H 0.49123 0.10335 0.61001 0.0
H65 H 0.46617 0.06175 0.567 0.0
C66 C 0.45077 0.94414 0.51667 0.0
C67 C 0.41602 0.93162 0.53031 0.0
C68 C 0.39419 0.89433 0.53904 0.0
C69 C 0.40691 0.86887 0.53472 0.0
C70 C 0.44159 0.88132 0.52079 0.0
C71 C 0.46343 0.91872 0.51192 0.0
C72 C 0.47369 0.98406 0.50814 0.0
C73 C 0.48449 0.01113 0.53061 0.0
C74 C 0.48487 0.99571 0.4785 0.0
C75 C 0.47627 0.96885 0.45368 0.0
C76 C 0.43959 0.93982 0.44811 0.0
C77 C 0.43209 0.91528 0.4243 0.0
C78 C 0.46099 0.91993 0.4053 0.0
C79 C 0.49749 0.94916 0.41058 0.0
C80 C 0.5051 0.97323 0.43466 0.0
C81 C 0.53041 0.10106 0.48591 0.0
C82 C 0.56288 0.11902 0.46853 0.0
C83 C 0.57664 0.15594 0.45908 0.0
C84 C 0.55772 0.17515 0.46643 0.0
C85 C 0.52547 0.15728 0.48404 0.0
C86 C 0.51196 0.12057 0.49373 0.0
C87 C 0.51418 0.0612 0.49443 0.0
C88 C 0.50458 0.03425 0.47206 0.0
C89 C 0.50541 0.04949 0.52419 0.0
C90 C 0.52031 0.07649 0.54912 0.0
C91 C 0.55905 0.09866 0.5532 0.0
C92 C 0.57345 0.12159 0.57818 0.0
C93 C 0.54937 0.12305 0.59946 0.0
C94 C 0.51055 0.10193 0.59462 0.0
C95 C 0.49616 0.07846 0.56989 0.0
H96 H 0.49662 0.5826 0.69508 0.0
H97 H 0.47994 0.60836 0.7373 0.0
H98 H 0.43078 0.50083 0.78099 0.0
H99 H 0.44548 0.47458 0.73796 0.0
H100 H 0.50815 0.4881 0.71757 0.0
H101 H 0.49642 0.57789 0.62496 0.0
H102 H 0.45619 0.60259 0.60885 0.0
H103 H 0.36325 0.51313 0.65554 0.0
H104 H 0.40361 0.48881 0.67201 0.0
H105 H 0.47239 0.4361 0.59719 0.0
H106 H 0.49823 0.42019 0.55452 0.0
H107 H 0.6098 0.493 0.58785 0.0
H108 H 0.58357 0.50748 0.63117 0.0
H109 H 0.48562 0.50676 0.61257 0.0
H110 H 0.49222 0.406 0.65641 0.0
H111 H 0.51741 0.36645 0.67284 0.0
H112 H 0.60171 0.45869 0.72394 0.0
H113 H 0.57666 0.49833 0.70727 0.0
C114 C 0.47205 0.52651 0.71315 0.0
C115 C 0.48157 0.56433 0.71345 0.0
C116 C 0.47262 0.57923 0.73786 0.0
C117 C 0.45462 0.55679 0.76271 0.0
C118 C 0.44461 0.51882 0.76216 0.0
C119 C 0.45321 0.50385 0.73765 0.0
C120 C 0.48371 0.51114 0.68816 0.0
C121 C 0.50319 0.49226 0.69463 0.0
C122 C 0.47661 0.51564 0.65819 0.0
C123 C 0.45297 0.53167 0.64976 0.0
C124 C 0.46745 0.56378 0.63186 0.0
C125 C 0.44458 0.57785 0.62274 0.0
C126 C 0.40674 0.5595 0.63084 0.0
C127 C 0.39232 0.5275 0.64887 0.0
C128 C 0.41533 0.51378 0.65839 0.0
C129 C 0.52607 0.47302 0.61725 0.0
C130 C 0.50239 0.44843 0.59535 0.0
C131 C 0.51724 0.43967 0.57086 0.0
C132 C 0.55614 0.45606 0.56743 0.0
C133 C 0.57974 0.47994 0.58983 0.0
C134 C 0.56482 0.48827 0.61456 0.0
C135 C 0.51045 0.48434 0.64209 0.0
C136 C 0.49057 0.50273 0.63555 0.0
C137 C 0.51602 0.47821 0.672 0.0
C138 C 0.53289 0.45523 0.68033 0.0
C139 C 0.51648 0.41788 0.67077 0.0
C140 C 0.53061 0.39524 0.68036 0.0
C141 C 0.56152 0.40965 0.69951 0.0
C142 C 0.57812 0.44711 0.70888 0.0
C143 C 0.5638 0.46967 0.69947 0.0
H144 H 0.05201 0.55889 0.76889 0.0
H145 H 0.09328 0.5846 0.72583 0.0
H146 H 0.14242 0.51654 0.74671 0.0
H147 H 0.10046 0.49019 0.78939 0.0
H148 H 0.99899 0.48443 0.77852 0.0
H149 H 0.11465 0.5807 0.83194 0.0
H150 H 0.17957 0.60781 0.84883 0.0
H151 H 0.1567 0.49795 0.87624 0.0
H152 H 0.09181 0.47147 0.86042 0.0
H153 H 0.98474 0.4306 0.90066 0.0
H154 H 0.94259 0.41573 0.94306 0.0
H155 H 0.90423 0.4877 0.90728 0.0
H156 H 0.94524 0.5012 0.86451 0.0
H157 H 0.0418 0.49655 0.88279 0.0
H158 H 0.93246 0.40171 0.84434 0.0
H159 H 0.86658 0.36239 0.83138 0.0
H160 H 0.8749 0.44763 0.77139 0.0
H161 H 0.9407 0.48798 0.78532 0.0
C162 C 0.07326 0.52276 0.78243 0.0
C163 C 0.07172 0.54955 0.76423 0.0
C164 C 0.09539 0.56434 0.73975 0.0
C165 C 0.12079 0.55232 0.73283 0.0
C166 C 0.12271 0.52588 0.75131 0.0
C167 C 0.09905 0.51113 0.77585 0.0
C168 C 0.04671 0.50611 0.80749 0.0
C169 C 0.00824 0.48763 0.80139 0.0
C170 C 0.05877 0.50778 0.83707 0.0
C171 C 0.09857 0.52417 0.84508 0.0
C172 C 0.12378 0.56257 0.84154 0.0
C173 C 0.16076 0.57795 0.85117 0.0
C174 C 0.173 0.55511 0.86443 0.0
C175 C 0.14783 0.51647 0.86703 0.0
C176 C 0.11088 0.50124 0.85773 0.0
C177 C 0.96781 0.46666 0.87929 0.0
C178 C 0.96698 0.44287 0.90188 0.0
C179 C 0.94299 0.43452 0.9261 0.0
C180 C 0.91971 0.45016 0.92837 0.0
C181 C 0.92093 0.47428 0.90581 0.0
C182 C 0.94454 0.48223 0.88143 0.0
C183 C 0.99402 0.47665 0.854 0.0
C184 C 0.03233 0.49352 0.85998 0.0
C185 C 0.98166 0.47187 0.82421 0.0
C186 C 0.9415 0.44829 0.81635 0.0
C187 C 0.92006 0.41247 0.82891 0.0
C188 C 0.88252 0.38985 0.82136 0.0
C189 C 0.86588 0.40225 0.8006 0.0
C190 C 0.88731 0.43762 0.78749 0.0
C191 C 0.9248 0.46058 0.79543 0.0
H192 H 0.63421 0.08956 0.03342 0.0
H193 H 0.67435 0.15469 0.04854 0.0
H194 H 0.59186 0.18127 0.01671 0.0
H195 H 0.55213 0.11597 1.0008 0.0
H196 H 0.55967 0.04059 0.05311 0.0
H197 H 0.62604 0.10203 0.96026 0.0
H198 H 0.64121 0.14421 0.91746 0.0
H199 H 0.52413 0.09275 0.89614 0.0
H200 H 0.50879 0.0509 0.939 0.0
H201 H 0.46909 0.94013 0.95499 0.0
H202 H 0.44482 0.87487 0.93974 0.0
H203 H 0.52406 0.86764 0.99756 0.0
H204 H 0.54897 0.93296 0.01223 0.0
H205 H 0.5313 0.99936 0.94837 0.0
H206 H 0.46129 0.9346 0.03074 0.0
H207 H 0.43529 0.89143 0.07245 0.0
H208 H 0.54216 0.94931 0.11684 0.0
H209 H 0.56884 0.99062 0.07409 0.0
C210 C 0.59028 0.09804 0.01601 0.0
C211 C 0.62476 0.10943 0.02974 0.0
C212 C 0.64751 0.14655 0.03859 0.0
C213 C 0.63591 0.1729 0.03434 0.0
C214 C 0.60146 0.16152 0.02029 0.0
C215 C 0.57878 0.12433 0.01121 0.0
C216 C 0.56631 0.05828 0.00761 0.0
C217 C 0.55371 0.03132 0.03022 0.0
C218 C 0.55644 0.04667 0.97788 0.0
C219 C 0.56623 0.07357 0.95302 0.0
C220 C 0.60359 0.10022 0.9467 0.0
C221 C 0.61225 0.12413 0.92228 0.0
C222 C 0.5837 0.12156 0.90389 0.0
C223 C 0.54644 0.09519 0.91025 0.0
C224 C 0.53777 0.07132 0.9346 0.0
C225 C 0.51047 0.94134 0.98516 0.0
C226 C 0.48131 0.92455 0.96435 0.0
C227 C 0.46748 0.88737 0.95564 0.0
C228 C 0.48239 0.86634 0.96775 0.0
C229 C 0.51172 0.88318 0.98832 0.0
C230 C 0.52581 0.9204 0.99679 0.0
C231 C 0.5261 0.98117 0.99383 0.0
C232 C 0.5369 0.00823 0.97136 0.0
C233 C 0.53287 0.99285 0.02387 0.0
C234 C 0.51721 0.96585 0.04901 0.0
C235 C 0.4794 0.93762 0.04916 0.0
C236 C 0.46432 0.91333 0.07332 0.0
C237 C 0.48645 0.91734 0.09826 0.0
C238 C 0.52435 0.94539 0.09797 0.0
C239 C 0.53957 0.96927 0.07361 0.0
H240 H 0.5104 0.47399 0.22562 0.0
H241 H 0.52795 0.44909 0.26813 0.0
H242 H 0.64446 0.52192 0.24715 0.0
H243 H 0.62685 0.54747 0.20516 0.0
H244 H 0.52832 0.5478 0.21665 0.0
H245 H 0.55282 0.4562 0.16246 0.0
H246 H 0.59274 0.43128 0.14623 0.0
H247 H 0.67746 0.54246 0.11936 0.0
H248 H 0.63696 0.56677 0.13454 0.0
H249 H 0.5716 0.6093 0.09742 0.0
H250 H 0.54549 0.62389 0.05415 0.0
H251 H 0.434 0.54647 0.08527 0.0
H252 H 0.46034 0.53345 0.12915 0.0
H253 H 0.56278 0.54145 0.11234 0.0
H254 H 0.55136 0.63512 0.15725 0.0
H255 H 0.52808 0.6761 0.17378 0.0
H256 H 0.43931 0.58405 0.22181 0.0
H257 H 0.46256 0.54276 0.20502 0.0
C258 C 0.56729 0.51244 0.21213 0.0
C259 C 0.53972 0.48454 0.23016 0.0
C260 C 0.54974 0.47019 0.25429 0.0
C261 C 0.58754 0.48379 0.26102 0.0
C262 C 0.61512 0.51132 0.24269 0.0
C263 C 0.60509 0.52564 0.21853 0.0
C264 C 0.55631 0.52854 0.18735 0.0
C265 C 0.53516 0.54571 0.19377 0.0
C266 C 0.56759 0.5284 0.15778 0.0
C267 C 0.59198 0.51324 0.14955 0.0
C268 C 0.58001 0.47509 0.15307 0.0
C269 C 0.60282 0.46096 0.14383 0.0
C270 C 0.63793 0.48482 0.13101 0.0
C271 C 0.65011 0.52318 0.12827 0.0
C272 C 0.62717 0.53716 0.13717 0.0
C273 C 0.5179 0.57034 0.11647 0.0
C274 C 0.54154 0.59575 0.09498 0.0
C275 C 0.52656 0.6037 0.07011 0.0
C276 C 0.48764 0.58565 0.06589 0.0
C277 C 0.46407 0.56088 0.08786 0.0
C278 C 0.47907 0.55341 0.11295 0.0
C279 C 0.53346 0.55924 0.1415 0.0
C280 C 0.55553 0.54318 0.13518 0.0
C281 C 0.52465 0.56214 0.17128 0.0
C282 C 0.5085 0.58578 0.1797 0.0
C283 C 0.52656 0.62354 0.17099 0.0
C284 C 0.51355 0.64704 0.18069 0.0
C285 C 0.48223 0.63323 0.1993 0.0
C286 C 0.46358 0.59527 0.20749 0.0
C287 C 0.47682 0.57177 0.19797 0.0
In288 In 0.64261 0.40209 0.41546 0.0
O289 O 0.70443 0.44697 0.41621 0.0
O290 O 0.68891 0.39549 0.39435 0.0
C291 C 0.61742 0.42304 0.46297 0.0
C292 C 0.62513 0.42769 0.36637 0.0
C293 C 0.61431 0.32923 0.42926 0.0
O294 O 0.64896 0.42527 0.46273 0.0
O295 O 0.59897 0.41055 0.43936 0.0
O296 O 0.59907 0.33996 0.41036 0.0
O297 O 0.64364 0.35521 0.44088 0.0
C298 C 0.71478 0.42761 0.40168 0.0
O299 O 0.61281 0.39316 0.37069 0.0
O300 O 0.64573 0.44871 0.38685 0.0
In301 In 0.26181 0.64042 0.581 0.0
O302 O 0.28501 0.60116 0.57346 0.0
O303 O 0.31046 0.64294 0.60669 0.0
C304 C 0.21586 0.62252 0.53362 0.0
C305 C 0.2146 0.61212 0.62786 0.0
C306 C 0.31015 0.71298 0.5685 0.0
O307 O 0.23452 0.60664 0.53899 0.0
O308 O 0.22013 0.64717 0.55225 0.0
O309 O 0.28929 0.70281 0.5911 0.0
O310 O 0.30665 0.68644 0.55229 0.0
C311 C 0.30959 0.61561 0.59344 0.0
O312 O 0.23536 0.64687 0.62376 0.0
O313 O 0.21722 0.59203 0.60808 0.0
In314 In 0.63828 0.26185 0.75236 0.0
O315 O 0.70086 0.28554 0.74473 0.0
O316 O 0.68377 0.30307 0.78306 0.0
C317 C 0.61142 0.21593 0.70485 0.0
C318 C 0.61819 0.2153 0.79935 0.0
C319 C 0.61524 0.31084 0.73864 0.0
O320 O 0.64497 0.2421 0.70645 0.0
O321 O 0.59176 0.21286 0.72718 0.0
O322 O 0.59613 0.28253 0.75479 0.0
O323 O 0.64564 0.31427 0.72982 0.0
C324 C 0.71048 0.30531 0.76801 0.0
O325 O 0.61116 0.24175 0.79784 0.0
O326 O 0.63495 0.21226 0.77706 0.0
In327 In 0.39914 0.63975 0.91588 0.0
O328 O 0.33665 0.60021 0.92249 0.0
O329 O 0.3536 0.64276 0.88981 0.0
C330 C 0.42466 0.61599 0.96122 0.0
C331 C 0.41935 0.61501 0.86795 0.0
C332 C 0.42532 0.71178 0.93195 0.0
O333 O 0.39225 0.61173 0.96096 0.0
O334 O 0.44379 0.6314 0.93836 0.0
O335 O 0.43121 0.70298 0.90653 0.0
O336 O 0.40614 0.68439 0.94876 0.0
C337 C 0.32691 0.61525 0.90271 0.0
O338 O 0.4379 0.64852 0.87689 0.0
O339 O 0.39099 0.5941 0.88342 0.0
In340 In 0.78103 0.40152 0.08076 0.0
O341 O 0.80704 0.39378 0.12278 0.0
O342 O 0.82415 0.44944 0.10928 0.0
C343 C 0.73418 0.3284 0.06829 0.0
C344 C 0.73467 0.42748 0.09457 0.0
C345 C 0.82634 0.42063 0.0329 0.0
O346 O 0.75579 0.33893 0.09041 0.0
O347 O 0.73631 0.35469 0.05268 0.0
O348 O 0.79814 0.42471 0.03388 0.0
O349 O 0.83244 0.408 0.05641 0.0
C350 C 0.82684 0.42838 0.12824 0.0
O351 O 0.75897 0.44187 0.0744 0.0
O352 O 0.73382 0.40007 0.10765 0.0
In353 In 0.405 0.78034 0.2527 0.0
O354 O 0.4479 0.76112 0.25541 0.0
O355 O 0.40017 0.73006 0.22803 0.0
C356 C 0.42763 0.82501 0.30145 0.0
C357 C 0.42836 0.82312 0.20337 0.0
C358 C 0.3319 0.73487 0.26525 0.0
O359 O 0.42351 0.79263 0.30134 0.0
O360 O 0.42146 0.83527 0.27685 0.0
O361 O 0.34317 0.76347 0.249 0.0
O362 O 0.35741 0.72952 0.27487 0.0
C363 C 0.4304 0.73379 0.23791 0.0
O364 O 0.39458 0.80623 0.21152 0.0
O365 O 0.45012 0.81849 0.22016 0.0
C366 C 0.22835 0.69882 0.27606 0.0
C367 C 0.21573 0.66374 0.28949 0.0
C368 C 0.26587 0.72143 0.26778 0.0
C369 C 0.29215 0.70995 0.27306 0.0
H370 H 0.209 0.70872 0.27175 0.0
H371 H 0.27441 0.74827 0.25755 0.0
S372 S 0.273 0.62058 0.30812 0.0
N373 N 0.23217 0.61862 0.30792 0.0
N374 N 0.30269 0.661 0.29262 0.0
C375 C 0.27976 0.67487 0.28654 0.0
C376 C 0.24155 0.65178 0.29468 0.0
C377 C 0.60852 0.24194 0.46228 0.0
C378 C 0.57172 0.21392 0.45588 0.0
C379 C 0.62198 0.2791 0.45346 0.0
C380 C 0.59931 0.28949 0.43752 0.0
H381 H 0.6268 0.2352 0.47469 0.0
H382 H 0.65043 0.29983 0.4592 0.0
S383 S 0.50127 0.22599 0.41412 0.0
N384 N 0.51308 0.19856 0.43204 0.0
N385 N 0.53845 0.26837 0.41511 0.0
C386 C 0.56264 0.26152 0.43048 0.0
C387 C 0.54882 0.22375 0.43979 0.0
C388 C 0.3902 0.60986 0.6279 0.0
C389 C 0.38223 0.57358 0.62031 0.0
C390 C 0.36664 0.6233 0.61891 0.0
C391 C 0.33467 0.60115 0.60156 0.0
H392 H 0.41445 0.62769 0.64134 0.0
H393 H 0.37353 0.65125 0.62565 0.0
S394 S 0.30272 0.50463 0.57482 0.0
N395 N 0.34097 0.51601 0.59401 0.0
N396 N 0.29691 0.54136 0.57658 0.0
C397 C 0.32691 0.56505 0.5933 0.0
C398 C 0.35062 0.55122 0.60285 0.0
C399 C 0.81599 0.36578 0.76322 0.0
C400 C 0.82616 0.37802 0.79262 0.0
C401 C 0.77849 0.34174 0.75549 0.0
C402 C 0.74992 0.32978 0.7768 0.0
H403 H 0.83722 0.37444 0.74622 0.0
H404 H 0.77181 0.33285 0.7326 0.0
S405 S 0.76239 0.35465 0.85679 0.0
N406 N 0.80514 0.37673 0.84306 0.0
N407 N 0.73458 0.33216 0.8286 0.0
C408 C 0.75985 0.34217 0.80625 0.0
C409 C 0.79803 0.36614 0.81415 0.0
C410 C 0.46655 0.81723 0.92897 0.0
C411 C 0.46738 0.82681 0.959 0.0
C412 C 0.4532 0.77996 0.92037 0.0
C413 C 0.4397 0.75097 0.94149 0.0
H414 H 0.47676 0.83879 0.91208 0.0
H415 H 0.45321 0.77382 0.89702 0.0
S416 S 0.43518 0.76166 0.02294 0.0
N417 N 0.45324 0.80463 0.0098 0.0
N418 N 0.42782 0.73456 0.99381 0.0
C419 C 0.44011 0.76027 0.97159 0.0
C420 C 0.45406 0.79821 0.98031 0.0
C421 C 0.66751 0.44541 0.13907 0.0
C422 C 0.66199 0.46983 0.12079 0.0
C423 C 0.6908 0.43162 0.13024 0.0
C424 C 0.70966 0.44191 0.10289 0.0
H425 H 0.65422 0.43738 0.16061 0.0
H426 H 0.69448 0.41319 0.14522 0.0
S427 S 0.70232 0.50264 0.04583 0.0
N428 N 0.67535 0.50172 0.07317 0.0
N429 N 0.71991 0.47656 0.05694 0.0
C430 C 0.70401 0.46586 0.08418 0.0
C431 C 0.68 0.47963 0.09305 0.0
C432 C 0.37662 0.79993 0.52482 0.0
C433 C 0.38367 0.8293 0.54441 0.0
C434 C 0.35322 0.76241 0.53298 0.0
C435 C 0.33594 0.75282 0.56101 0.0
H436 H 0.3886 0.80601 0.50277 0.0
H437 H 0.34816 0.74079 0.51695 0.0
S438 S 0.34812 0.81924 0.62137 0.0
N439 N 0.37367 0.84625 0.5938 0.0
N440 N 0.32925 0.77583 0.60898 0.0
C441 C 0.34349 0.78191 0.58107 0.0
C442 C 0.36744 0.8201 0.5728 0.0
C443 C 0.55189 0.35089 0.72367 0.0
C444 C 0.57603 0.38538 0.71 0.0
C445 C 0.56496 0.32729 0.73352 0.0
C446 C 0.60254 0.33714 0.72965 0.0
H447 H 0.52269 0.34217 0.72688 0.0
H448 H 0.54534 0.30089 0.74376 0.0
S449 S 0.67689 0.42454 0.69493 0.0
N450 N 0.63907 0.42832 0.69309 0.0
N451 N 0.66379 0.38406 0.71136 0.0
C452 C 0.62697 0.3717 0.7161 0.0
C453 C 0.6137 0.39582 0.70635 0.0
C454 C 0.24201 0.59652 0.85744 0.0
C455 C 0.21198 0.57141 0.87533 0.0
C456 C 0.27906 0.61107 0.86675 0.0
C457 C 0.2875 0.60086 0.89422 0.0
H458 H 0.23688 0.60438 0.83578 0.0
H459 H 0.30126 0.62983 0.852 0.0
S460 S 0.21905 0.53895 0.95058 0.0
N461 N 0.19315 0.53932 0.92286 0.0
N462 N 0.26282 0.56588 0.93998 0.0
C463 C 0.25778 0.57646 0.91262 0.0
C464 C 0.22004 0.56192 0.90327 0.0
C465 C 0.66733 0.24182 0.02457 0.0
C466 C 0.6601 0.21233 0.04403 0.0
C467 C 0.69111 0.27922 0.03275 0.0
C468 C 0.7087 0.28858 0.06069 0.0
H469 H 0.65506 0.23594 1.00259 0.0
H470 H 0.69611 0.3009 0.01686 0.0
S471 S 0.69674 0.22189 0.12063 0.0
N472 N 0.67058 0.19505 0.09318 0.0
N473 N 0.71591 0.26535 0.10834 0.0
C474 C 0.70127 0.25941 0.08056 0.0
C475 C 0.67684 0.22131 0.07229 0.0
C476 C 0.43236 0.65003 0.20524 0.0
C477 C 0.46932 0.65863 0.21029 0.0
C478 C 0.42005 0.67451 0.21436 0.0
C479 C 0.44411 0.7082 0.22923 0.0
H480 H 0.41305 0.62456 0.19364 0.0
H481 H 0.39142 0.66693 0.20966 0.0
S482 S 0.54315 0.74249 0.24903 0.0
N483 N 0.52958 0.70235 0.23182 0.0
N484 N 0.50646 0.74828 0.24925 0.0
C485 C 0.48097 0.7167 0.23493 0.0
C486 C 0.49358 0.69195 0.22536 0.0
C487 C 0.81357 0.49396 0.37613 0.0
C488 C 0.82918 0.47055 0.37357 0.0
C489 C 0.77679 0.47999 0.38587 0.0
C490 C 0.75391 0.44193 0.3928 0.0
H491 H 0.82976 0.52332 0.37026 0.0
H492 H 0.76591 0.49897 0.38731 0.0
S493 S 0.78137 0.36916 0.39193 0.0
N494 N 0.81916 0.40768 0.38089 0.0
N495 N 0.74936 0.38118 0.39761 0.0
C496 C 0.76891 0.41814 0.39045 0.0
C497 C 0.80666 0.43248 0.38118 0.0
C498 C 0.16132 0.63368 0.47071 0.0
C499 C 0.14631 0.5993 0.4555 0.0
C500 C 0.18342 0.64073 0.49613 0.0
C501 C 0.19178 0.6139 0.50713 0.0
H502 H 0.1563 0.65553 0.46275 0.0
H503 H 0.19453 0.6677 0.50695 0.0
S504 S 0.15729 0.51845 0.47699 0.0
N505 N 0.13951 0.53719 0.45464 0.0
N506 N 0.18221 0.5511 0.50172 0.0
C507 C 0.17685 0.57935 0.49234 0.0
C508 C 0.15388 0.57192 0.4667 0.0
C509 C 0.59629 0.18245 0.62497 0.0
C510 C 0.56489 0.14615 0.62677 0.0
C511 C 0.61164 0.20459 0.6504 0.0
C512 C 0.59587 0.19148 0.67854 0.0
H513 H 0.60888 0.19408 0.60368 0.0
H514 H 0.63555 0.23248 0.64789 0.0
S515 S 0.51575 0.09748 0.69591 0.0
N516 N 0.52047 0.09719 0.65957 0.0
N517 N 0.54842 0.13939 0.70707 0.0
C518 C 0.56482 0.15518 0.68079 0.0
C519 C 0.54954 0.1324 0.65499 0.0
C520 C 0.41102 0.55309 0.80282 0.0
C521 C 0.44636 0.57273 0.78929 0.0
C522 C 0.4027 0.56698 0.82827 0.0
C523 C 0.42928 0.60119 0.84113 0.0
H524 H 0.38948 0.52685 0.79354 0.0
H525 H 0.37503 0.55087 0.83778 0.0
S526 S 0.52663 0.6625 0.81532 0.0
N527 N 0.50876 0.62735 0.7915 0.0
N528 N 0.49277 0.65392 0.83893 0.0
C529 C 0.46476 0.62113 0.82791 0.0
C530 C 0.47336 0.60681 0.80209 0.0
C531 C 0.90912 0.44341 0.98336 0.0
C532 C 0.89512 0.44225 0.95466 0.0
C533 C 0.88671 0.43646 0.00854 0.0
C534 C 0.84961 0.4286 1.00603 0.0
H535 H 0.93778 0.45014 0.98644 0.0
H536 H 0.89869 0.43766 0.03017 0.0
S537 S 0.79851 0.41922 0.93599 0.0
N538 N 0.84087 0.43002 0.92521 0.0
N539 N 0.79921 0.41828 0.97259 0.0
C540 C 0.83512 0.4271 0.97752 0.0
C541 C 0.85776 0.43361 0.95185 0.0
C542 C 0.49026 0.87742 0.1385 0.0
C543 C 0.47031 0.89257 0.12462 0.0
C544 C 0.47637 0.85497 0.16386 0.0
C545 C 0.44179 0.84642 0.17625 0.0
H546 H 0.51682 0.88281 0.12962 0.0
H547 H 0.49285 0.84405 0.17375 0.0
S548 S 0.37921 0.88027 0.14933 0.0
N549 N 0.41474 0.89857 0.12601 0.0
N550 N 0.38814 0.85536 0.17313 0.0
C551 C 0.42137 0.86112 0.16257 0.0
C552 C 0.43573 0.8844 0.13691 0.0
C553 C 0.58211 0.43135 0.29276 0.0
C554 C 0.59804 0.47004 0.28769 0.0
C555 C 0.5912 0.41786 0.31814 0.0
C556 C 0.61627 0.44254 0.33952 0.0
H557 H 0.56267 0.41138 0.2769 0.0
H558 H 0.57829 0.38782 0.32107 0.0
S559 S 0.66449 0.54651 0.33702 0.0
N560 N 0.63926 0.53284 0.30638 0.0
N561 N 0.65652 0.50772 0.35394 0.0
C562 C 0.63225 0.48135 0.3347 0.0
C563 C 0.62311 0.49501 0.30882 0.0
C564 C 0.46084 0.9105 0.35062 0.0
C565 C 0.45299 0.89516 0.37931 0.0
C566 C 0.45276 0.88757 0.32556 0.0
C567 C 0.43729 0.84859 0.32836 0.0
H568 H 0.47273 0.94039 0.34752 0.0
H569 H 0.45873 0.9005 0.30383 0.0
S570 S 0.4125 0.79501 0.39886 0.0
N571 N 0.42929 0.83896 0.40929 0.0
N572 N 0.41481 0.79576 0.36227 0.0
C573 C 0.42993 0.83302 0.35703 0.0
C574 C 0.43755 0.85634 0.38249 0.0
C575 C 0.60128 0.44063 0.54282 0.0
C576 C 0.57209 0.44869 0.54039 0.0
C577 C 0.61634 0.4331 0.51762 0.0
C578 C 0.60255 0.43301 0.48909 0.0
H579 H 0.61216 0.4395 0.5644 0.0
H580 H 0.63839 0.4265 0.5206 0.0
S581 S 0.52908 0.45605 0.47029 0.0
N582 N 0.53221 0.45916 0.50679 0.0
N583 N 0.55965 0.44384 0.45965 0.0
C584 C 0.57393 0.44174 0.48627 0.0
C585 C 0.55891 0.44984 0.51184 0.0
C586 C 0.16567 0.60574 0.70081 0.0
C587 C 0.14465 0.56693 0.706 0.0
C588 C 0.18809 0.62011 0.67545 0.0
C589 C 0.19009 0.59619 0.65419 0.0
H590 H 0.16508 0.62518 0.71665 0.0
H591 H 0.20402 0.65022 0.67256 0.0
S592 S 0.13887 0.49216 0.6568 0.0
N593 N 0.12616 0.50476 0.6874 0.0
N594 N 0.16826 0.53155 0.63982 0.0
C595 C 0.16884 0.55725 0.659 0.0
C596 C 0.14618 0.54268 0.68489 0.0
C597 C 0.59326 0.17944 0.87843 0.0
C598 C 0.59273 0.14519 0.87721 0.0
C599 C 0.60105 0.20178 0.853 0.0
C600 C 0.60875 0.19063 0.82561 0.0
H601 H 0.58759 0.18894 0.89915 0.0
H602 H 0.60149 0.22816 0.85491 0.0
S603 S 0.60884 0.10211 0.81103 0.0
N604 N 0.59914 0.10035 0.84673 0.0
N605 N 0.61404 0.14222 0.79888 0.0
C606 C 0.60793 0.15613 0.82424 0.0
C607 C 0.59982 0.13342 0.85008 0.0
C608 C 0.44066 0.59792 0.04082 0.0
C609 C 0.4715 0.59238 0.03866 0.0
C610 C 0.42508 0.60456 0.01555 0.0
C611 C 0.43998 0.60633 0.98719 0.0
H612 H 0.42882 0.59779 0.06226 0.0
H613 H 0.40176 0.60929 0.01837 0.0
S614 S 0.51829 0.59037 0.96898 0.0
N615 N 0.51441 0.58618 1.00541 0.0
N616 N 0.48595 0.60003 0.95811 0.0
C617 C 0.47035 0.60023 0.98458 0.0
C618 C 0.48592 0.59296 0.01025 0.0
C619 C 0.89335 0.49708 0.18556 0.0
C620 C 0.89611 0.47364 0.20679 0.0
C621 C 0.87108 0.48217 0.16017 0.0
C622 C 0.85057 0.44325 0.15511 0.0
H623 H 0.90902 0.52721 0.18834 0.0
H624 H 0.87003 0.5014 0.14437 0.0
S625 S 0.8467 0.3698 0.20501 0.0
N626 N 0.87536 0.40962 0.22183 0.0
N627 N 0.83365 0.38152 0.17414 0.0
C628 C 0.85272 0.41949 0.17644 0.0
C629 C 0.87546 0.4347 0.20224 0.0
loop_
_geom_bond_atom_site_label_1
_geom_bond_atom_site_label_2
_geom_bond_distance
_geom_bond_site_symmetry_2
_ccdc_geom_bond_type
H0 C19 0.949 . S
H1 C20 0.950 . S
H2 C22 0.950 . S
H3 C23 0.950 . S
H4 C25 0.950 . S
H5 C28 0.950 . S
H6 C29 0.950 . S
H7 C31 0.951 . S
H8 C32 0.949 . S
H9 C34 0.949 . S
H10 C35 0.950 . S
H11 C37 0.950 . S
H12 C38 0.950 . S
H13 C40 0.950 1_655 S
H14 C43 0.950 . S
H15 C44 0.950 . S
H16 C46 0.951 . S
H17 C47 0.949 . S
C18 C19 1.376 . S
C18 C23 1.386 . S
C18 C24 1.483 . S
C19 H0 0.949 . S
C19 C18 1.376 . S
C19 C20 1.397 . S
C20 H1 0.950 . S
C20 C19 1.397 . S
C20 C21 1.391 . S
C21 C20 1.391 . S
C21 C22 1.405 . S
C22 H2 0.950 . S
C22 C21 1.405 . S
C22 C23 1.367 . S
C23 H3 0.950 . S
C23 C18 1.386 . S
C23 C22 1.367 . S
C24 C18 1.483 . S
C24 C25 1.382 1_655 S
C24 C26 1.403 . S
C25 H4 0.950 . S
C25 C24 1.382 1_455 S
C25 C41 1.411 . S
C26 C24 1.403 . S
C26 C27 1.489 . S
C26 C40 1.411 1_655 S
C27 C26 1.489 . S
C27 C28 1.383 . S
C27 C32 1.382 . S
C28 H5 0.950 . S
C28 C27 1.383 . S
C28 C29 1.395 . S
C29 H6 0.950 . S
C29 C28 1.395 . S
C29 C30 1.288 . S
C30 C29 1.288 . S
C30 C31 1.392 . S
C31 H7 0.951 . S
C31 C30 1.392 . S
C31 C32 1.392 . S
C32 H8 0.949 . S
C32 C27 1.382 . S
C32 C31 1.392 . S
C33 C34 1.376 . S
C33 C38 1.386 . S
C33 C39 1.483 . S
C34 H9 0.949 . S
C34 C33 1.376 . S
C34 C35 1.397 . S
C35 H10 0.950 . S
C35 C34 1.397 . S
C35 C36 1.391 . S
C36 C35 1.391 . S
C36 C37 1.405 . S
C37 H11 0.950 . S
C37 C36 1.405 . S
C37 C38 1.367 . S
C38 H12 0.950 . S
C38 C33 1.386 . S
C38 C37 1.367 . S
C39 C33 1.483 . S
C39 C40 1.382 . S
C39 C41 1.403 . S
C40 H13 0.950 1_455 S
C40 C26 1.411 1_455 S
C40 C39 1.382 . S
C41 C25 1.411 . S
C41 C39 1.403 . S
C41 C42 1.489 . S
C42 C41 1.489 . S
C42 C43 1.383 . S
C42 C47 1.382 . S
C43 H14 0.950 . S
C43 C42 1.383 . S
C43 C44 1.395 . S
C44 H15 0.950 . S
C44 C43 1.395 . S
C44 C45 1.288 . S
C45 C44 1.288 . S
C45 C46 1.392 . S
C46 H16 0.951 . S
C46 C45 1.392 . S
C46 C47 1.392 . S
C47 H17 0.949 . S
C47 C42 1.382 . S
C47 C46 1.392 . S
H48 C67 0.949 . S
H49 C68 0.950 . S
H50 C70 0.950 . S
H51 C71 0.950 . S
H52 C73 0.950 1_565 S
H53 C76 0.950 . S
H54 C77 0.950 . S
H55 C79 0.951 . S
H56 C80 0.949 . S
H57 C82 0.949 . S
H58 C83 0.950 . S
H59 C85 0.950 . S
H60 C86 0.950 . S
H61 C88 0.950 . S
H62 C91 0.950 . S
H63 C92 0.950 . S
H64 C94 0.951 . S
H65 C95 0.949 . S
C66 C67 1.376 . S
C66 C71 1.386 . S
C66 C72 1.483 . S
C67 H48 0.949 . S
C67 C66 1.376 . S
C67 C68 1.397 . S
C68 H49 0.950 . S
C68 C67 1.397 . S
C68 C69 1.391 . S
C69 C68 1.391 . S
C69 C70 1.405 . S
C70 H50 0.950 . S
C70 C69 1.405 . S
C70 C71 1.367 . S
C71 H51 0.950 . S
C71 C66 1.386 . S
C71 C70 1.367 . S
C72 C66 1.483 . S
C72 C73 1.382 1_565 S
C72 C74 1.403 . S
C73 H52 0.950 1_545 S
C73 C72 1.382 1_545 S
C73 C89 1.411 . S
C74 C72 1.403 . S
C74 C75 1.489 . S
C74 C88 1.411 1_565 S
C75 C74 1.489 . S
C75 C76 1.383 . S
C75 C80 1.382 . S
C76 H53 0.950 . S
C76 C75 1.383 . S
C76 C77 1.395 . S
C77 H54 0.950 . S
C77 C76 1.395 . S
C77 C78 1.288 . S
C78 C77 1.288 . S
C78 C79 1.392 . S
C79 H55 0.951 . S
C79 C78 1.392 . S
C79 C80 1.392 . S
C80 H56 0.949 . S
C80 C75 1.382 . S
C80 C79 1.392 . S
C81 C82 1.376 . S
C81 C86 1.386 . S
C81 C87 1.483 . S
C82 H57 0.949 . S
C82 C81 1.376 . S
C82 C83 1.397 . S
C83 H58 0.950 . S
C83 C82 1.397 . S
C83 C84 1.391 . S
C84 C83 1.391 . S
C84 C85 1.405 . S
C85 H59 0.950 . S
C85 C84 1.405 . S
C85 C86 1.367 . S
C86 H60 0.950 . S
C86 C81 1.386 . S
C86 C85 1.367 . S
C87 C81 1.483 . S
C87 C88 1.382 . S
C87 C89 1.403 . S
C88 H61 0.950 . S
C88 C74 1.411 1_545 S
C88 C87 1.382 . S
C89 C73 1.411 . S
C89 C87 1.403 . S
C89 C90 1.489 . S
C90 C89 1.489 . S
C90 C91 1.383 . S
C90 C95 1.382 . S
C91 H62 0.950 . S
C91 C90 1.383 . S
C91 C92 1.395 . S
C92 H63 0.950 . S
C92 C91 1.395 . S
C92 C93 1.288 . S
C93 C92 1.288 . S
C93 C94 1.392 . S
C94 H64 0.951 . S
C94 C93 1.392 . S
C94 C95 1.392 . S
C95 H65 0.949 . S
C95 C90 1.382 . S
C95 C94 1.392 . S
H96 C115 0.949 . S
H97 C116 0.950 . S
H98 C118 0.950 . S
H99 C119 0.950 . S
H100 C121 0.950 . S
H101 C124 0.950 . S
H102 C125 0.950 . S
H103 C127 0.951 . S
H104 C128 0.949 . S
H105 C130 0.949 . S
H106 C131 0.950 . S
H107 C133 0.950 . S
H108 C134 0.950 . S
H109 C136 0.950 . S
H110 C139 0.950 . S
H111 C140 0.950 . S
H112 C142 0.951 . S
H113 C143 0.949 . S
C114 C115 1.376 . S
C114 C119 1.386 . S
C114 C120 1.483 . S
C115 H96 0.949 . S
C115 C114 1.376 . S
C115 C116 1.397 . S
C116 H97 0.950 . S
C116 C115 1.397 . S
C116 C117 1.391 . S
C117 C116 1.391 . S
C117 C118 1.405 . S
C118 H98 0.950 . S
C118 C117 1.405 . S
C118 C119 1.367 . S
C119 H99 0.950 . S
C119 C114 1.386 . S
C119 C118 1.367 . S
C120 C114 1.483 . S
C120 C121 1.382 . S
C120 C122 1.403 . S
C121 H100 0.950 . S
C121 C120 1.382 . S
C121 C137 1.411 . S
C122 C120 1.403 . S
C122 C123 1.489 . S
C122 C136 1.411 . S
C123 C122 1.489 . S
C123 C124 1.383 . S
C123 C128 1.382 . S
C124 H101 0.950 . S
C124 C123 1.383 . S
C124 C125 1.395 . S
C125 H102 0.950 . S
C125 C124 1.395 . S
C125 C126 1.288 . S
C126 C125 1.288 . S
C126 C127 1.392 . S
C127 H103 0.951 . S
C127 C126 1.392 . S
C127 C128 1.392 . S
C128 H104 0.949 . S
C128 C123 1.382 . S
C128 C127 1.392 . S
C129 C130 1.376 . S
C129 C134 1.386 . S
C129 C135 1.483 . S
C130 H105 0.949 . S
C130 C129 1.376 . S
C130 C131 1.397 . S
C131 H106 0.950 . S
C131 C130 1.397 . S
C131 C132 1.391 . S
C132 C131 1.391 . S
C132 C133 1.405 . S
C133 H107 0.950 . S
C133 C132 1.405 . S
C133 C134 1.367 . S
C134 H108 0.950 . S
C134 C129 1.386 . S
C134 C133 1.367 . S
C135 C129 1.483 . S
C135 C136 1.382 . S
C135 C137 1.403 . S
C136 H109 0.950 . S
C136 C122 1.411 . S
C136 C135 1.382 . S
C137 C121 1.411 . S
C137 C135 1.403 . S
C137 C138 1.489 . S
C138 C137 1.489 . S
C138 C139 1.383 . S
C138 C143 1.382 . S
C139 H110 0.950 . S
C139 C138 1.383 . S
C139 C140 1.395 . S
C140 H111 0.950 . S
C140 C139 1.395 . S
C140 C141 1.288 . S
C141 C140 1.288 . S
C141 C142 1.392 . S
C142 H112 0.951 . S
C142 C141 1.392 . S
C142 C143 1.392 . S
C143 H113 0.949 . S
C143 C138 1.382 . S
C143 C142 1.392 . S
H144 C163 0.949 . S
H145 C164 0.950 . S
H146 C166 0.950 . S
H147 C167 0.950 . S
H148 C169 0.950 1_655 S
H149 C172 0.950 . S
H150 C173 0.950 . S
H151 C175 0.951 . S
H152 C176 0.949 . S
H153 C178 0.949 . S
H154 C179 0.950 . S
H155 C181 0.950 . S
H156 C182 0.950 . S
H157 C184 0.950 . S
H158 C187 0.950 . S
H159 C188 0.950 . S
H160 C190 0.951 . S
H161 C191 0.949 . S
C162 C163 1.376 . S
C162 C167 1.386 . S
C162 C168 1.483 . S
C163 H144 0.949 . S
C163 C162 1.376 . S
C163 C164 1.397 . S
C164 H145 0.950 . S
C164 C163 1.397 . S
C164 C165 1.391 . S
C165 C164 1.391 . S
C165 C166 1.405 . S
C166 H146 0.950 . S
C166 C165 1.405 . S
C166 C167 1.367 . S
C167 H147 0.950 . S
C167 C162 1.386 . S
C167 C166 1.367 . S
C168 C162 1.483 . S
C168 C169 1.382 . S
C168 C170 1.403 . S
C169 H148 0.950 1_455 S
C169 C168 1.382 . S
C169 C185 1.411 1_455 S
C170 C168 1.403 . S
C170 C171 1.489 . S
C170 C184 1.411 . S
C171 C170 1.489 . S
C171 C172 1.383 . S
C171 C176 1.382 . S
C172 H149 0.950 . S
C172 C171 1.383 . S
C172 C173 1.395 . S
C173 H150 0.950 . S
C173 C172 1.395 . S
C173 C174 1.288 . S
C174 C173 1.288 . S
C174 C175 1.392 . S
C175 H151 0.951 . S
C175 C174 1.392 . S
C175 C176 1.392 . S
C176 H152 0.949 . S
C176 C171 1.382 . S
C176 C175 1.392 . S
C177 C178 1.376 . S
C177 C182 1.386 . S
C177 C183 1.483 . S
C178 H153 0.949 . S
C178 C177 1.376 . S
C178 C179 1.397 . S
C179 H154 0.950 . S
C179 C178 1.397 . S
C179 C180 1.391 . S
C180 C179 1.391 . S
C180 C181 1.405 . S
C181 H155 0.950 . S
C181 C180 1.405 . S
C181 C182 1.367 . S
C182 H156 0.950 . S
C182 C177 1.386 . S
C182 C181 1.367 . S
C183 C177 1.483 . S
C183 C184 1.382 1_655 S
C183 C185 1.403 . S
C184 H157 0.950 . S
C184 C170 1.411 . S
C184 C183 1.382 1_455 S
C185 C169 1.411 1_655 S
C185 C183 1.403 . S
C185 C186 1.489 . S
C186 C185 1.489 . S
C186 C187 1.383 . S
C186 C191 1.382 . S
C187 H158 0.950 . S
C187 C186 1.383 . S
C187 C188 1.395 . S
C188 H159 0.950 . S
C188 C187 1.395 . S
C188 C189 1.288 . S
C189 C188 1.288 . S
C189 C190 1.392 . S
C190 H160 0.951 . S
C190 C189 1.392 . S
C190 C191 1.392 . S
C191 H161 0.949 . S
C191 C186 1.382 . S
C191 C190 1.392 . S
H192 C211 0.949 . S
H193 C212 0.950 . S
H194 C214 0.950 . S
H195 C215 0.950 . S
H196 C217 0.950 . S
H197 C220 0.950 . S
H198 C221 0.950 . S
H199 C223 0.951 . S
H200 C224 0.949 . S
H201 C226 0.949 . S
H202 C227 0.950 . S
H203 C229 0.950 . S
H204 C230 0.950 . S
H205 C232 0.950 1_565 S
H206 C235 0.950 . S
H207 C236 0.950 . S
H208 C238 0.951 . S
H209 C239 0.949 . S
C210 C211 1.376 . S
C210 C215 1.386 1_554 S
C210 C216 1.483 1_554 S
C211 H192 0.949 . S
C211 C210 1.376 . S
C211 C212 1.397 . S
C212 H193 0.950 . S
C212 C211 1.397 . S
C212 C213 1.391 . S
C213 C212 1.391 . S
C213 C214 1.405 . S
C214 H194 0.950 . S
C214 C213 1.405 . S
C214 C215 1.367 1_554 S
C215 H195 0.950 . S
C215 C210 1.386 1_556 S
C215 C214 1.367 1_556 S
C216 C210 1.483 1_556 S
C216 C217 1.382 1_556 S
C216 C218 1.403 . S
C217 H196 0.950 . S
C217 C216 1.382 1_554 S
C217 C233 1.411 1_545 S
C218 C216 1.403 . S
C218 C219 1.489 . S
C218 C232 1.411 . S
C219 C218 1.489 . S
C219 C220 1.383 . S
C219 C224 1.382 . S
C220 H197 0.950 . S
C220 C219 1.383 . S
C220 C221 1.395 . S
C221 H198 0.950 . S
C221 C220 1.395 . S
C221 C222 1.288 . S
C222 C221 1.288 . S
C222 C223 1.392 . S
C223 H199 0.951 . S
C223 C222 1.392 . S
C223 C224 1.392 . S
C224 H200 0.949 . S
C224 C219 1.382 . S
C224 C223 1.392 . S
C225 C226 1.376 . S
C225 C230 1.386 . S
C225 C231 1.483 . S
C226 H201 0.949 . S
C226 C225 1.376 . S
C226 C227 1.397 . S
C227 H202 0.950 . S
C227 C226 1.397 . S
C227 C228 1.391 . S
C228 C227 1.391 . S
C228 C229 1.405 . S
C229 H203 0.950 . S
C229 C228 1.405 . S
C229 C230 1.367 . S
C230 H204 0.950 . S
C230 C225 1.386 . S
C230 C229 1.367 . S
C231 C225 1.483 . S
C231 C232 1.382 1_565 S
C231 C233 1.403 1_556 S
C232 H205 0.950 1_545 S
C232 C218 1.411 . S
C232 C231 1.382 1_545 S
C233 C217 1.411 1_565 S
C233 C231 1.403 1_554 S
C233 C234 1.489 . S
C234 C233 1.489 . S
C234 C235 1.383 . S
C234 C239 1.382 . S
C235 H206 0.950 . S
C235 C234 1.383 . S
C235 C236 1.395 . S
C236 H207 0.950 . S
C236 C235 1.395 . S
C236 C237 1.288 . S
C237 C236 1.288 . S
C237 C238 1.392 . S
C238 H208 0.951 . S
C238 C237 1.392 . S
C238 C239 1.392 . S
C239 H209 0.949 . S
C239 C234 1.382 . S
C239 C238 1.392 . S
H240 C259 0.949 . S
H241 C260 0.950 . S
H242 C262 0.950 . S
H243 C263 0.950 . S
H244 C265 0.950 . S
H245 C268 0.950 . S
H246 C269 0.950 . S
H247 C271 0.951 . S
H248 C272 0.949 . S
H249 C274 0.949 . S
H250 C275 0.950 . S
H251 C277 0.950 . S
H252 C278 0.950 . S
H253 C280 0.950 . S
H254 C283 0.950 . S
H255 C284 0.950 . S
H256 C286 0.951 . S
H257 C287 0.949 . S
C258 C259 1.376 . S
C258 C263 1.386 . S
C258 C264 1.483 . S
C259 H240 0.949 . S
C259 C258 1.376 . S
C259 C260 1.397 . S
C260 H241 0.950 . S
C260 C259 1.397 . S
C260 C261 1.391 . S
C261 C260 1.391 . S
C261 C262 1.405 . S
C262 H242 0.950 . S
C262 C261 1.405 . S
C262 C263 1.367 . S
C263 H243 0.950 . S
C263 C258 1.386 . S
C263 C262 1.367 . S
C264 C258 1.483 . S
C264 C265 1.382 . S
C264 C266 1.403 . S
C265 H244 0.950 . S
C265 C264 1.382 . S
C265 C281 1.411 . S
C266 C264 1.403 . S
C266 C267 1.489 . S
C266 C280 1.411 . S
C267 C266 1.489 . S
C267 C268 1.383 . S
C267 C272 1.382 . S
C268 H245 0.950 . S
C268 C267 1.383 . S
C268 C269 1.395 . S
C269 H246 0.950 . S
C269 C268 1.395 . S
C269 C270 1.288 . S
C270 C269 1.288 . S
C270 C271 1.392 . S
C271 H247 0.951 . S
C271 C270 1.392 . S
C271 C272 1.392 . S
C272 H248 0.949 . S
C272 C267 1.382 . S
C272 C271 1.392 . S
C273 C274 1.376 . S
C273 C278 1.386 . S
C273 C279 1.483 . S
C274 H249 0.949 . S
C274 C273 1.376 . S
C274 C275 1.397 . S
C275 H250 0.950 . S
C275 C274 1.397 . S
C275 C276 1.391 . S
C276 C275 1.391 . S
C276 C277 1.405 . S
C277 H251 0.950 . S
C277 C276 1.405 . S
C277 C278 1.367 . S
C278 H252 0.950 . S
C278 C273 1.386 . S
C278 C277 1.367 . S
C279 C273 1.483 . S
C279 C280 1.382 . S
C279 C281 1.403 . S
C280 H253 0.950 . S
C280 C266 1.411 . S
C280 C279 1.382 . S
C281 C265 1.411 . S
C281 C279 1.403 . S
C281 C282 1.489 . S
C282 C281 1.489 . S
C282 C283 1.383 . S
C282 C287 1.382 . S
C283 H254 0.950 . S
C283 C282 1.383 . S
C283 C284 1.395 . S
C284 H255 0.950 . S
C284 C283 1.395 . S
C284 C285 1.288 . S
C285 C284 1.288 . S
C285 C286 1.392 . S
C286 H256 0.951 . S
C286 C285 1.392 . S
C286 C287 1.392 . S
C287 H257 0.949 . S
C287 C282 1.382 . S
C287 C286 1.392 . S
In288 O289 2.294 . S
In288 O290 2.326 . S
In288 O294 2.266 . S
In288 O295 2.326 . S
In288 O296 2.266 . S
In288 O297 2.326 . S
In288 O299 2.294 . S
In288 O300 2.326 . S
O289 In288 2.294 . S
O289 C298 1.240 . S
O290 In288 2.326 . S
O290 C298 1.252 . S
C291 O294 1.252 . S
C291 O295 1.260 . S
C292 O299 1.240 . S
C292 O300 1.252 . S
C293 O296 1.252 . S
C293 O297 1.260 . S
O294 In288 2.266 . S
O294 C291 1.252 . S
O295 In288 2.326 . S
O295 C291 1.260 . S
O296 In288 2.266 . S
O296 C293 1.252 . S
O297 In288 2.326 . S
O297 C293 1.260 . S
C298 O289 1.240 . S
C298 O290 1.252 . S
O299 In288 2.294 . S
O299 C292 1.240 . S
O300 In288 2.326 . S
O300 C292 1.252 . S
In301 O302 2.294 . S
In301 O303 2.326 . S
In301 O307 2.266 . S
In301 O308 2.326 . S
In301 O309 2.266 . S
In301 O310 2.326 . S
In301 O312 2.294 . S
In301 O313 2.326 . S
O302 In301 2.294 . S
O302 C311 1.240 . S
O303 In301 2.326 . S
O303 C311 1.252 . S
C304 O307 1.252 . S
C304 O308 1.260 . S
C305 O312 1.240 . S
C305 O313 1.252 . S
C306 O309 1.252 . S
C306 O310 1.260 . S
O307 In301 2.266 . S
O307 C304 1.252 . S
O308 In301 2.326 . S
O308 C304 1.260 . S
O309 In301 2.266 . S
O309 C306 1.252 . S
O310 In301 2.326 . S
O310 C306 1.260 . S
C311 O302 1.240 . S
C311 O303 1.252 . S
O312 In301 2.294 . S
O312 C305 1.240 . S
O313 In301 2.326 . S
O313 C305 1.252 . S
In314 O315 2.294 . S
In314 O316 2.326 . S
In314 O320 2.266 . S
In314 O321 2.326 . S
In314 O322 2.266 . S
In314 O323 2.326 . S
In314 O325 2.294 . S
In314 O326 2.326 . S
O315 In314 2.294 . S
O315 C324 1.240 . S
O316 In314 2.326 . S
O316 C324 1.252 . S
C317 O320 1.252 . S
C317 O321 1.260 . S
C318 O325 1.240 . S
C318 O326 1.252 . S
C319 O322 1.252 . S
C319 O323 1.260 . S
O320 In314 2.266 . S
O320 C317 1.252 . S
O321 In314 2.326 . S
O321 C317 1.260 . S
O322 In314 2.266 . S
O322 C319 1.252 . S
O323 In314 2.326 . S
O323 C319 1.260 . S
C324 O315 1.240 . S
C324 O316 1.252 . S
O325 In314 2.294 . S
O325 C318 1.240 . S
O326 In314 2.326 . S
O326 C318 1.252 . S
In327 O328 2.294 . S
In327 O329 2.326 . S
In327 O333 2.266 . S
In327 O334 2.326 . S
In327 O335 2.266 . S
In327 O336 2.326 . S
In327 O338 2.294 . S
In327 O339 2.326 . S
O328 In327 2.294 . S
O328 C337 1.240 . S
O329 In327 2.326 . S
O329 C337 1.252 . S
C330 O333 1.252 . S
C330 O334 1.260 . S
C331 O338 1.240 . S
C331 O339 1.252 . S
C332 O335 1.252 . S
C332 O336 1.260 . S
O333 In327 2.266 . S
O333 C330 1.252 . S
O334 In327 2.326 . S
O334 C330 1.260 . S
O335 In327 2.266 . S
O335 C332 1.252 . S
O336 In327 2.326 . S
O336 C332 1.260 . S
C337 O328 1.240 . S
C337 O329 1.252 . S
O338 In327 2.294 . S
O338 C331 1.240 . S
O339 In327 2.326 . S
O339 C331 1.252 . S
In340 O341 2.294 . S
In340 O342 2.326 . S
In340 O346 2.266 . S
In340 O347 2.326 . S
In340 O348 2.266 . S
In340 O349 2.326 . S
In340 O351 2.294 . S
In340 O352 2.326 . S
O341 In340 2.294 . S
O341 C350 1.240 . S
O342 In340 2.326 . S
O342 C350 1.252 . S
C343 O346 1.252 . S
C343 O347 1.260 . S
C344 O351 1.240 . S
C344 O352 1.252 . S
C345 O348 1.252 . S
C345 O349 1.260 . S
O346 In340 2.266 . S
O346 C343 1.252 . S
O347 In340 2.326 . S
O347 C343 1.260 . S
O348 In340 2.266 . S
O348 C345 1.252 . S
O349 In340 2.326 . S
O349 C345 1.260 . S
C350 O341 1.240 . S
C350 O342 1.252 . S
O351 In340 2.294 . S
O351 C344 1.240 . S
O352 In340 2.326 . S
O352 C344 1.252 . S
In353 O354 2.294 . S
In353 O355 2.326 . S
In353 O359 2.266 . S
In353 O360 2.326 . S
In353 O361 2.266 . S
In353 O362 2.326 . S
In353 O364 2.294 . S
In353 O365 2.326 . S
O354 In353 2.294 . S
O354 C363 1.240 . S
O355 In353 2.326 . S
O355 C363 1.252 . S
C356 O359 1.252 . S
C356 O360 1.260 . S
C357 O364 1.240 . S
C357 O365 1.252 . S
C358 O361 1.252 . S
C358 O362 1.260 . S
O359 In353 2.266 . S
O359 C356 1.252 . S
O360 In353 2.326 . S
O360 C356 1.260 . S
O361 In353 2.266 . S
O361 C358 1.252 . S
O362 In353 2.326 . S
O362 C358 1.260 . S
C363 O354 1.240 . S
C363 O355 1.252 . S
O364 In353 2.294 . S
O364 C357 1.240 . S
O365 In353 2.326 . S
O365 C357 1.252 . S
C366 C367 1.369 . S
C366 C368 1.419 . S
C366 H370 0.930 . S
C367 C366 1.369 . S
C367 C376 1.429 . S
C368 C366 1.419 . S
C368 C369 1.363 . S
C368 H371 0.929 . S
C369 C368 1.363 . S
C369 C375 1.428 . S
H370 C366 0.930 . S
H371 C368 0.929 . S
S372 N373 1.613 . S
S372 N374 1.610 . S
N373 S372 1.613 . S
N373 C376 1.350 . S
N374 S372 1.610 . S
N374 C375 1.351 . S
C375 C369 1.428 . S
C375 N374 1.351 . S
C375 C376 1.434 . S
C376 C367 1.429 . S
C376 N373 1.350 . S
C376 C375 1.434 . S
C377 C378 1.369 . S
C377 C379 1.419 . S
C377 H381 0.930 . S
C378 C377 1.369 . S
C378 C387 1.429 . S
C379 C377 1.419 . S
C379 C380 1.363 . S
C379 H382 0.929 . S
C380 C379 1.363 . S
C380 C386 1.428 . S
H381 C377 0.930 . S
H382 C379 0.929 . S
S383 N384 1.613 . S
S383 N385 1.610 . S
N384 S383 1.613 . S
N384 C387 1.350 . S
N385 S383 1.610 . S
N385 C386 1.351 . S
C386 C380 1.428 . S
C386 N385 1.351 . S
C386 C387 1.434 . S
C387 C378 1.429 . S
C387 N384 1.350 . S
C387 C386 1.434 . S
C388 C389 1.369 . S
C388 C390 1.419 . S
C388 H392 0.930 . S
C389 C388 1.369 . S
C389 C398 1.429 . S
C390 C388 1.419 . S
C390 C391 1.363 . S
C390 H393 0.929 . S
C391 C390 1.363 . S
C391 C397 1.428 . S
H392 C388 0.930 . S
H393 C390 0.929 . S
S394 N395 1.613 . S
S394 N396 1.610 . S
N395 S394 1.613 . S
N395 C398 1.350 . S
N396 S394 1.610 . S
N396 C397 1.351 . S
C397 C391 1.428 . S
C397 N396 1.351 . S
C397 C398 1.434 . S
C398 C389 1.429 . S
C398 N395 1.350 . S
C398 C397 1.434 . S
C399 C400 1.369 . S
C399 C401 1.419 . S
C399 H403 0.930 . S
C400 C399 1.369 . S
C400 C409 1.429 . S
C401 C399 1.419 . S
C401 C402 1.363 . S
C401 H404 0.929 . S
C402 C401 1.363 . S
C402 C408 1.428 . S
H403 C399 0.930 . S
H404 C401 0.929 . S
S405 N406 1.613 . S
S405 N407 1.610 . S
N406 S405 1.613 . S
N406 C409 1.350 . S
N407 S405 1.610 . S
N407 C408 1.351 . S
C408 C402 1.428 . S
C408 N407 1.351 . S
C408 C409 1.434 . S
C409 C400 1.429 . S
C409 N406 1.350 . S
C409 C408 1.434 . S
C410 C411 1.369 . S
C410 C412 1.419 . S
C410 H414 0.930 . S
C411 C410 1.369 . S
C411 C420 1.429 . S
C412 C410 1.419 . S
C412 C413 1.363 . S
C412 H415 0.929 . S
C413 C412 1.363 . S
C413 C419 1.428 . S
H414 C410 0.930 . S
H415 C412 0.929 . S
S416 N417 1.613 . S
S416 N418 1.610 1_554 S
N417 S416 1.613 . S
N417 C420 1.350 1_554 S
N418 S416 1.610 1_556 S
N418 C419 1.351 . S
C419 C413 1.428 . S
C419 N418 1.351 . S
C419 C420 1.434 . S
C420 C411 1.429 . S
C420 N417 1.350 1_556 S
C420 C419 1.434 . S
C421 C422 1.369 . S
C421 C423 1.419 . S
C421 H425 0.930 . S
C422 C421 1.369 . S
C422 C431 1.429 . S
C423 C421 1.419 . S
C423 C424 1.363 . S
C423 H426 0.929 . S
C424 C423 1.363 . S
C424 C430 1.428 . S
H425 C421 0.930 . S
H426 C423 0.929 . S
S427 N428 1.613 . S
S427 N429 1.610 . S
N428 S427 1.613 . S
N428 C431 1.350 . S
N429 S427 1.610 . S
N429 C430 1.351 . S
C430 C424 1.428 . S
C430 N429 1.351 . S
C430 C431 1.434 . S
C431 C422 1.429 . S
C431 N428 1.350 . S
C431 C430 1.434 . S
C432 C433 1.369 . S
C432 C434 1.419 . S
C432 H436 0.930 . S
C433 C432 1.369 . S
C433 C442 1.429 . S
C434 C432 1.419 . S
C434 C435 1.363 . S
C434 H437 0.929 . S
C435 C434 1.363 . S
C435 C441 1.428 . S
H436 C432 0.930 . S
H437 C434 0.929 . S
S438 N439 1.613 . S
S438 N440 1.610 . S
N439 S438 1.613 . S
N439 C442 1.350 . S
N440 S438 1.610 . S
N440 C441 1.351 . S
C441 C435 1.428 . S
C441 N440 1.351 . S
C441 C442 1.434 . S
C442 C433 1.429 . S
C442 N439 1.350 . S
C442 C441 1.434 . S
C443 C444 1.369 . S
C443 C445 1.419 . S
C443 H447 0.930 . S
C444 C443 1.369 . S
C444 C453 1.429 . S
C445 C443 1.419 . S
C445 C446 1.363 . S
C445 H448 0.929 . S
C446 C445 1.363 . S
C446 C452 1.428 . S
H447 C443 0.930 . S
H448 C445 0.929 . S
S449 N450 1.613 . S
S449 N451 1.610 . S
N450 S449 1.613 . S
N450 C453 1.350 . S
N451 S449 1.610 . S
N451 C452 1.351 . S
C452 C446 1.428 . S
C452 N451 1.351 . S
C452 C453 1.434 . S
C453 C444 1.429 . S
C453 N450 1.350 . S
C453 C452 1.434 . S
C454 C455 1.369 . S
C454 C456 1.419 . S
C454 H458 0.930 . S
C455 C454 1.369 . S
C455 C464 1.429 . S
C456 C454 1.419 . S
C456 C457 1.363 . S
C456 H459 0.929 . S
C457 C456 1.363 . S
C457 C463 1.428 . S
H458 C454 0.930 . S
H459 C456 0.929 . S
S460 N461 1.613 . S
S460 N462 1.610 . S
N461 S460 1.613 . S
N461 C464 1.350 . S
N462 S460 1.610 . S
N462 C463 1.351 . S
C463 C457 1.428 . S
C463 N462 1.351 . S
C463 C464 1.434 . S
C464 C455 1.429 . S
C464 N461 1.350 . S
C464 C463 1.434 . S
C465 C466 1.369 . S
C465 C467 1.419 . S
C465 H469 0.930 . S
C466 C465 1.369 . S
C466 C475 1.429 . S
C467 C465 1.419 . S
C467 C468 1.363 . S
C467 H470 0.929 . S
C468 C467 1.363 . S
C468 C474 1.428 . S
H469 C465 0.930 . S
H470 C467 0.929 . S
S471 N472 1.613 . S
S471 N473 1.610 . S
N472 S471 1.613 . S
N472 C475 1.350 . S
N473 S471 1.610 . S
N473 C474 1.351 . S
C474 C468 1.428 . S
C474 N473 1.351 . S
C474 C475 1.434 . S
C475 C466 1.429 . S
C475 N472 1.350 . S
C475 C474 1.434 . S
C476 C477 1.369 . S
C476 C478 1.419 . S
C476 H480 0.930 . S
C477 C476 1.369 . S
C477 C486 1.429 . S
C478 C476 1.419 . S
C478 C479 1.363 . S
C478 H481 0.929 . S
C479 C478 1.363 . S
C479 C485 1.428 . S
H480 C476 0.930 . S
H481 C478 0.929 . S
S482 N483 1.613 . S
S482 N484 1.610 . S
N483 S482 1.613 . S
N483 C486 1.350 . S
N484 S482 1.610 . S
N484 C485 1.351 . S
C485 C479 1.428 . S
C485 N484 1.351 . S
C485 C486 1.434 . S
C486 C477 1.429 . S
C486 N483 1.350 . S
C486 C485 1.434 . S
C487 C488 1.369 . S
C487 C489 1.419 . S
C487 H491 0.930 . S
C488 C487 1.369 . S
C488 C497 1.429 . S
C489 C487 1.419 . S
C489 C490 1.363 . S
C489 H492 0.929 . S
C490 C489 1.363 . S
C490 C496 1.428 . S
H491 C487 0.930 . S
H492 C489 0.929 . S
S493 N494 1.613 . S
S493 N495 1.610 . S
N494 S493 1.613 . S
N494 C497 1.350 . S
N495 S493 1.610 . S
N495 C496 1.351 . S
C496 C490 1.428 . S
C496 N495 1.351 . S
C496 C497 1.434 . S
C497 C488 1.429 . S
C497 N494 1.350 . S
C497 C496 1.434 . S
C498 C499 1.369 . S
C498 C500 1.419 . S
C498 H502 0.930 . S
C499 C498 1.369 . S
C499 C508 1.429 . S
C500 C498 1.419 . S
C500 C501 1.363 . S
C500 H503 0.929 . S
C501 C500 1.363 . S
C501 C507 1.428 . S
H502 C498 0.930 . S
H503 C500 0.929 . S
S504 N505 1.613 . S
S504 N506 1.610 . S
N505 S504 1.613 . S
N505 C508 1.350 . S
N506 S504 1.610 . S
N506 C507 1.351 . S
C507 C501 1.428 . S
C507 N506 1.351 . S
C507 C508 1.434 . S
C508 C499 1.429 . S
C508 N505 1.350 . S
C508 C507 1.434 . S
C509 C510 1.369 . S
C509 C511 1.419 . S
C509 H513 0.930 . S
C510 C509 1.369 . S
C510 C519 1.429 . S
C511 C509 1.419 . S
C511 C512 1.363 . S
C511 H514 0.929 . S
C512 C511 1.363 . S
C512 C518 1.428 . S
H513 C509 0.930 . S
H514 C511 0.929 . S
S515 N516 1.613 . S
S515 N517 1.610 . S
N516 S515 1.613 . S
N516 C519 1.350 . S
N517 S515 1.610 . S
N517 C518 1.351 . S
C518 C512 1.428 . S
C518 N517 1.351 . S
C518 C519 1.434 . S
C519 C510 1.429 . S
C519 N516 1.350 . S
C519 C518 1.434 . S
C520 C521 1.369 . S
C520 C522 1.419 . S
C520 H524 0.930 . S
C521 C520 1.369 . S
C521 C530 1.429 . S
C522 C520 1.419 . S
C522 C523 1.363 . S
C522 H525 0.929 . S
C523 C522 1.363 . S
C523 C529 1.428 . S
H524 C520 0.930 . S
H525 C522 0.929 . S
S526 N527 1.613 . S
S526 N528 1.610 . S
N527 S526 1.613 . S
N527 C530 1.350 . S
N528 S526 1.610 . S
N528 C529 1.351 . S
C529 C523 1.428 . S
C529 N528 1.351 . S
C529 C530 1.434 . S
C530 C521 1.429 . S
C530 N527 1.350 . S
C530 C529 1.434 . S
C531 C532 1.369 . S
C531 C533 1.419 1_556 S
C531 H535 0.930 . S
C532 C531 1.369 . S
C532 C541 1.429 . S
C533 C531 1.419 1_554 S
C533 C534 1.363 . S
C533 H536 0.929 . S
C534 C533 1.363 . S
C534 C540 1.428 1_554 S
H535 C531 0.930 . S
H536 C533 0.929 . S
S537 N538 1.613 . S
S537 N539 1.610 . S
N538 S537 1.613 . S
N538 C541 1.350 . S
N539 S537 1.610 . S
N539 C540 1.351 . S
C540 C534 1.428 1_556 S
C540 N539 1.351 . S
C540 C541 1.434 . S
C541 C532 1.429 . S
C541 N538 1.350 . S
C541 C540 1.434 . S
C542 C543 1.369 . S
C542 C544 1.419 . S
C542 H546 0.930 . S
C543 C542 1.369 . S
C543 C552 1.429 . S
C544 C542 1.419 . S
C544 C545 1.363 . S
C544 H547 0.929 . S
C545 C544 1.363 . S
C545 C551 1.428 . S
H546 C542 0.930 . S
H547 C544 0.929 . S
S548 N549 1.613 . S
S548 N550 1.610 . S
N549 S548 1.613 . S
N549 C552 1.350 . S
N550 S548 1.610 . S
N550 C551 1.351 . S
C551 C545 1.428 . S
C551 N550 1.351 . S
C551 C552 1.434 . S
C552 C543 1.429 . S
C552 N549 1.350 . S
C552 C551 1.434 . S
C553 C554 1.369 . S
C553 C555 1.419 . S
C553 H557 0.930 . S
C554 C553 1.369 . S
C554 C563 1.429 . S
C555 C553 1.419 . S
C555 C556 1.363 . S
C555 H558 0.929 . S
C556 C555 1.363 . S
C556 C562 1.428 . S
H557 C553 0.930 . S
H558 C555 0.929 . S
S559 N560 1.613 . S
S559 N561 1.610 . S
N560 S559 1.613 . S
N560 C563 1.350 . S
N561 S559 1.610 . S
N561 C562 1.351 . S
C562 C556 1.428 . S
C562 N561 1.351 . S
C562 C563 1.434 . S
C563 C554 1.429 . S
C563 N560 1.350 . S
C563 C562 1.434 . S
C564 C565 1.369 . S
C564 C566 1.419 . S
C564 H568 0.930 . S
C565 C564 1.369 . S
C565 C574 1.429 . S
C566 C564 1.419 . S
C566 C567 1.363 . S
C566 H569 0.929 . S
C567 C566 1.363 . S
C567 C573 1.428 . S
H568 C564 0.930 . S
H569 C566 0.929 . S
S570 N571 1.613 . S
S570 N572 1.610 . S
N571 S570 1.613 . S
N571 C574 1.350 . S
N572 S570 1.610 . S
N572 C573 1.351 . S
C573 C567 1.428 . S
C573 N572 1.351 . S
C573 C574 1.434 . S
C574 C565 1.429 . S
C574 N571 1.350 . S
C574 C573 1.434 . S
C575 C576 1.369 . S
C575 C577 1.419 . S
C575 H579 0.930 . S
C576 C575 1.369 . S
C576 C585 1.429 . S
C577 C575 1.419 . S
C577 C578 1.363 . S
C577 H580 0.929 . S
C578 C577 1.363 . S
C578 C584 1.428 . S
H579 C575 0.930 . S
H580 C577 0.929 . S
S581 N582 1.613 . S
S581 N583 1.610 . S
N582 S581 1.613 . S
N582 C585 1.350 . S
N583 S581 1.610 . S
N583 C584 1.351 . S
C584 C578 1.428 . S
C584 N583 1.351 . S
C584 C585 1.434 . S
C585 C576 1.429 . S
C585 N582 1.350 . S
C585 C584 1.434 . S
C586 C587 1.369 . S
C586 C588 1.419 . S
C586 H590 0.930 . S
C587 C586 1.369 . S
C587 C596 1.429 . S
C588 C586 1.419 . S
C588 C589 1.363 . S
C588 H591 0.929 . S
C589 C588 1.363 . S
C589 C595 1.428 . S
H590 C586 0.930 . S
H591 C588 0.929 . S
S592 N593 1.613 . S
S592 N594 1.610 . S
N593 S592 1.613 . S
N593 C596 1.350 . S
N594 S592 1.610 . S
N594 C595 1.351 . S
C595 C589 1.428 . S
C595 N594 1.351 . S
C595 C596 1.434 . S
C596 C587 1.429 . S
C596 N593 1.350 . S
C596 C595 1.434 . S
C597 C598 1.369 . S
C597 C599 1.419 . S
C597 H601 0.930 . S
C598 C597 1.369 . S
C598 C607 1.429 . S
C599 C597 1.419 . S
C599 C600 1.363 . S
C599 H602 0.929 . S
C600 C599 1.363 . S
C600 C606 1.428 . S
H601 C597 0.930 . S
H602 C599 0.929 . S
S603 N604 1.613 . S
S603 N605 1.610 . S
N604 S603 1.613 . S
N604 C607 1.350 . S
N605 S603 1.610 . S
N605 C606 1.351 . S
C606 C600 1.428 . S
C606 N605 1.351 . S
C606 C607 1.434 . S
C607 C598 1.429 . S
C607 N604 1.350 . S
C607 C606 1.434 . S
C608 C609 1.369 . S
C608 C610 1.419 . S
C608 H612 0.930 . S
C609 C608 1.369 . S
C609 C618 1.429 . S
C610 C608 1.419 . S
C610 C611 1.363 1_554 S
C610 H613 0.929 . S
C611 C610 1.363 1_556 S
C611 C617 1.428 . S
H612 C608 0.930 . S
H613 C610 0.929 . S
S614 N615 1.613 1_556 S
S614 N616 1.610 . S
N615 S614 1.613 1_554 S
N615 C618 1.350 . S
N616 S614 1.610 . S
N616 C617 1.351 . S
C617 C611 1.428 . S
C617 N616 1.351 . S
C617 C618 1.434 1_556 S
C618 C609 1.429 . S
C618 N615 1.350 . S
C618 C617 1.434 1_554 S
C619 C620 1.369 . S
C619 C621 1.419 . S
C619 H623 0.930 . S
C620 C619 1.369 . S
C620 C629 1.429 . S
C621 C619 1.419 . S
C621 C622 1.363 . S
C621 H624 0.929 . S
C622 C621 1.363 . S
C622 C628 1.428 . S
H623 C619 0.930 . S
H624 C621 0.929 . S
S625 N626 1.613 . S
S625 N627 1.610 . S
N626 S625 1.613 . S
N626 C629 1.350 . S
N627 S625 1.610 . S
N627 C628 1.351 . S
C628 C622 1.428 . S
C628 N627 1.351 . S
C628 C629 1.434 . S
C629 C620 1.429 . S
C629 N626 1.350 . S
C629 C628 1.434 . S
C369 C358 1.572 . S
C367 C45 1.572 . S
C378 C84 1.572 . S
C380 C293 1.574 . S
C389 C126 1.554 . S
C391 C311 1.573 . S
C400 C189 1.564 . S
C402 C324 1.564 . S
C413 C332 1.576 . S
C411 C228 1.572 . S
C422 C270 1.554 . S
C424 C344 1.572 . S
C433 C69 1.565 . S
C435 C306 1.574 . S
C444 C141 1.572 . S
C446 C319 1.572 . S
C455 C174 1.550 . S
C457 C337 1.572 . S
C468 C343 1.576 . S
C466 C213 1.566 . S
C479 C363 1.564 . S
C477 C285 1.564 . S
C490 C298 1.573 . S
C488 C30 1.556 . S
C499 C36 1.594 . S
C501 C304 1.603 . S
C510 C93 1.605 . S
C512 C317 1.604 . S
C523 C331 1.601 . S
C521 C117 1.579 . S
C532 C180 1.599 . S
C534 C345 1.607 . S
C545 C357 1.596 . S
C543 C237 1.596 . S
C556 C292 1.598 . S
C554 C261 1.582 . S
C567 C356 1.605 . S
C565 C78 1.566 . S
C576 C132 1.596 . S
C578 C291 1.602 . S
C589 C305 1.598 . S
C587 C165 1.582 . S
C598 C222 1.558 . S
C600 C318 1.596 . S
C609 C276 1.600 . S
C611 C330 1.607 . S
C620 C21 1.578 . S
C622 C350 1.600 . S
