# Generated by pormake.
# Topology pyr, (3,6)-cn, num edge types: 1
# Building blocks:
#     Node 0, Type 0, BuildingBlock: BETDIP_clean_linker_0, # of connection points: 3
#     Node 1, Type 0, BuildingBlock: BETDIP_clean_linker_0, # of connection points: 3
#     Node 2, Type 0, BuildingBlock: BETDIP_clean_linker_0, # of connection points: 3
#     Node 3, Type 0, BuildingBlock: BETDIP_clean_linker_0, # of connection points: 3
#     Node 4, Type 0, BuildingBlock: BETDIP_clean_linker_0, # of connection points: 3
#     Node 5, Type 0, BuildingBlock: BETDIP_clean_linker_0, # of connection points: 3
#     Node 6, Type 0, BuildingBlock: BETDIP_clean_linker_0, # of connection points: 3
#     Node 7, Type 0, BuildingBlock: BETDIP_clean_linker_0, # of connection points: 3
#     Node 8, Type 1, BuildingBlock: BETDIP_clean_sbu_0, # of connection points: 6
#     Node 9, Type 1, BuildingBlock: BETDIP_clean_sbu_0, # of connection points: 6
#     Node 10, Type 1, BuildingBlock: BETDIP_clean_sbu_0, # of connection points: 6
#     Node 11, Type 1, BuildingBlock: BETDIP_clean_sbu_0, # of connection points: 6
#     Edge 12, Type (0, 1), BuildingBlock: EZIPEK_clean_linker_0, # of connection points: 2
#     Edge 13, Type (0, 1), BuildingBlock: EZIPEK_clean_linker_0, # of connection points: 2
#     Edge 14, Type (0, 1), BuildingBlock: EZIPEK_clean_linker_0, # of connection points: 2
#     Edge 15, Type (0, 1), BuildingBlock: EZIPEK_clean_linker_0, # of connection points: 2
#     Edge 16, Type (0, 1), BuildingBlock: EZIPEK_clean_linker_0, # of connection points: 2
#     Edge 17, Type (0, 1), BuildingBlock: EZIPEK_clean_linker_0, # of connection points: 2
#     Edge 18, Type (0, 1), BuildingBlock: EZIPEK_clean_linker_0, # of connection points: 2
#     Edge 19, Type (0, 1), BuildingBlock: EZIPEK_clean_linker_0, # of connection points: 2
#     Edge 20, Type (0, 1), BuildingBlock: EZIPEK_clean_linker_0, # of connection points: 2
#     Edge 21, Type (0, 1), BuildingBlock: EZIPEK_clean_linker_0, # of connection points: 2
#     Edge 22, Type (0, 1), BuildingBlock: EZIPEK_clean_linker_0, # of connection points: 2
#     Edge 23, Type (0, 1), BuildingBlock: EZIPEK_clean_linker_0, # of connection points: 2
#     Edge 24, Type (0, 1), BuildingBlock: EZIPEK_clean_linker_0, # of connection points: 2
#     Edge 25, Type (0, 1), BuildingBlock: EZIPEK_clean_linker_0, # of connection points: 2
#     Edge 26, Type (0, 1), BuildingBlock: EZIPEK_clean_linker_0, # of connection points: 2
#     Edge 27, Type (0, 1), BuildingBlock: EZIPEK_clean_linker_0, # of connection points: 2
#     Edge 28, Type (0, 1), BuildingBlock: EZIPEK_clean_linker_0, # of connection points: 2
#     Edge 29, Type (0, 1), BuildingBlock: EZIPEK_clean_linker_0, # of connection points: 2
#     Edge 30, Type (0, 1), BuildingBlock: EZIPEK_clean_linker_0, # of connection points: 2
#     Edge 31, Type (0, 1), BuildingBlock: EZIPEK_clean_linker_0, # of connection points: 2
#     Edge 32, Type (0, 1), BuildingBlock: EZIPEK_clean_linker_0, # of connection points: 2
#     Edge 33, Type (0, 1), BuildingBlock: EZIPEK_clean_linker_0, # of connection points: 2
#     Edge 34, Type (0, 1), BuildingBlock: EZIPEK_clean_linker_0, # of connection points: 2
#     Edge 35, Type (0, 1), BuildingBlock: EZIPEK_clean_linker_0, # of connection points: 2
# Relax obj value: 0.231
# Max RMSD: 0.249
# Mean RMSD: 0.150
data_MOF--net-pyr--node1-BETDIP_clean_sbu_0--node2-BETDIP_clean_linker_0--edge1-EZIPEK_clean_linker_0
_symmetry_space_group_name_H-M    P1
_symmetry_Int_Tables_number       1
_symmetry_cell_setting            triclinic
loop_
_symmetry_equiv_pos_as_xyz
'x, y, z'
_cell_length_a     25.886508
_cell_length_b     29.099793
_cell_length_c     29.990592
_cell_angle_alpha  90.738372
_cell_angle_beta   89.814673
_cell_angle_gamma 111.81211
loop_
_atom_site_label
_atom_site_type_symbol
_atom_site_fract_x
_atom_site_fract_y
_atom_site_fract_z
_atom_type_partial_charge
H0 H 0.38499 0.33584 0.27016 0.0
H1 H 0.45053 0.30108 0.14768 0.0
H2 H 0.43821 0.2131 0.26415 0.0
H3 H 0.41555 0.41676 0.23366 0.0
C4 C 0.39179 0.39904 0.20428 0.0
C5 C 0.40574 0.31535 0.25197 0.0
C6 C 0.41208 0.27476 0.2724 0.0
C7 C 0.41972 0.3253 0.2068 0.0
C8 C 0.44222 0.2952 0.18302 0.0
C9 C 0.45021 0.25531 0.20396 0.0
C10 C 0.43554 0.24568 0.24874 0.0
N11 N 0.40349 0.35989 0.18323 0.0
H12 H 0.0789 0.77445 0.78166 0.0
H13 H 0.12096 0.7197 0.65812 0.0
H14 H 0.22027 0.73158 0.77524 0.0
H15 H 0.06886 0.75834 0.62728 0.0
C16 C 0.05459 0.77747 0.6529 0.0
C17 C 0.10309 0.75694 0.76349 0.0
C18 C 0.14952 0.75261 0.78381 0.0
C19 C 0.09286 0.74645 0.71807 0.0
C20 C 0.1273 0.72731 0.69348 0.0
C21 C 0.17267 0.72071 0.71455 0.0
C22 C 0.18306 0.73302 0.75978 0.0
N23 N 0.05329 0.76295 0.69795 0.0
H24 H 0.73776 0.45407 0.86116 0.0
H25 H 0.59331 0.31916 0.84149 0.0
H26 H 0.70665 0.33347 0.95163 0.0
H27 H 0.56851 0.37411 0.78378 0.0
C28 C 0.60607 0.40535 0.77569 0.0
C29 C 0.71218 0.41686 0.87108 0.0
C30 C 0.72819 0.39719 0.90952 0.0
C31 C 0.6639 0.39022 0.84523 0.0
C32 C 0.63048 0.3407 0.8599 0.0
C33 C 0.64588 0.31921 0.89887 0.0
C34 C 0.69473 0.34858 0.92228 0.0
N35 N 0.65369 0.41558 0.80562 0.0
H36 H 0.82353 0.64343 0.36742 0.0
H37 H 0.96271 0.7789 0.34027 0.0
H38 H 0.85315 0.7714 0.45139 0.0
H39 H 0.9562 0.73788 0.26606 0.0
C40 C 0.94085 0.6985 0.27269 0.0
C41 C 0.84818 0.68175 0.37549 0.0
C42 C 0.83257 0.70442 0.41239 0.0
C43 C 0.89447 0.7077 0.34836 0.0
C44 C 0.92651 0.75823 0.35983 0.0
C45 C 0.91205 0.78163 0.39771 0.0
C46 C 0.86491 0.754 0.42299 0.0
N47 N 0.90741 0.68032 0.31189 0.0
H48 H 0.6051 0.79053 0.93846 0.0
H49 H 0.68385 0.77456 0.81797 0.0
H50 H 0.60043 0.87566 0.8227 0.0
H51 H 0.66272 0.69369 0.85035 0.0
C52 C 0.68201 0.70992 0.88182 0.0
C53 C 0.61004 0.79805 0.90336 0.0
C54 C 0.58855 0.83074 0.88232 0.0
C55 C 0.64198 0.77599 0.88 0.0
C56 C 0.6563 0.78877 0.83563 0.0
C57 C 0.64101 0.8247 0.81552 0.0
C58 C 0.60756 0.84538 0.83851 0.0
N59 N 0.66505 0.74585 0.90326 0.0
H60 H 0.927 0.26965 0.33646 0.0
H61 H 0.90423 0.34139 0.45747 0.0
H62 H 0.79827 0.3281 0.34386 0.0
H63 H 1.01279 0.28391 0.36577 0.0
C64 C 0.99993 0.27342 0.39984 0.0
C65 C 0.90757 0.2911 0.35479 0.0
C66 C 0.86278 0.29895 0.33508 0.0
C67 C 0.92325 0.30661 0.39897 0.0
C68 C 0.89395 0.33104 0.42284 0.0
C69 C 0.84915 0.33934 0.40282 0.0
C70 C 0.83433 0.32381 0.35875 0.0
N71 N 0.96289 0.29223 0.42168 0.0
H72 H 0.3183 0.6465 0.23823 0.0
H73 H 0.46172 0.78292 0.25528 0.0
H74 H 0.34414 0.76536 0.14735 0.0
H75 H 0.48636 0.7293 0.31602 0.0
C76 C 0.44982 0.69667 0.32297 0.0
C77 C 0.34338 0.6836 0.22767 0.0
C78 C 0.32638 0.70231 0.18927 0.0
C79 C 0.39176 0.71128 0.25291 0.0
C80 C 0.42439 0.76077 0.23734 0.0
C81 C 0.40757 0.78152 0.19836 0.0
C82 C 0.35813 0.75102 0.17616 0.0
N83 N 0.40219 0.68692 0.2931 0.0
H84 H 0.08807 0.2937 0.75175 0.0
H85 H 0.21886 0.43825 0.73849 0.0
H86 H 0.20702 0.32152 0.64496 0.0
H87 H 0.19955 0.45002 0.81018 0.0
C88 C 0.15643 0.42818 0.8177 0.0
C89 C 0.12417 0.31876 0.73452 0.0
C90 C 0.14441 0.30121 0.69619 0.0
C91 C 0.15071 0.36828 0.75113 0.0
C92 C 0.19789 0.40029 0.72755 0.0
C93 C 0.21815 0.38365 0.689 0.0
C94 C 0.19112 0.33437 0.6741 0.0
N95 N 0.12834 0.38462 0.79031 0.0
Tb96 Tb 0.98614 1.02911 0.5613 0.0
Tb97 Tb 0.09621 0.05153 0.5319 0.0
C98 C 0.8826 1.00486 0.57124 0.0
C99 C 0.83827 0.96522 0.59385 0.0
C100 C 0.78489 0.96687 0.59596 0.0
C101 C 0.74595 0.93722 0.6262 0.0
C102 C 0.76045 0.90603 0.65461 0.0
C103 C 0.81224 0.90143 0.64991 0.0
C104 C 0.85103 0.93088 0.61955 0.0
C105 C 0.06005 0.10165 0.6108 0.0
C106 C 0.04845 0.96764 0.6023 0.0
C107 C 0.20017 0.07853 0.52415 0.0
C108 C 0.24124 0.11801 0.49858 0.0
C109 C 0.23184 0.16127 0.48839 0.0
C110 C 0.26497 0.19403 0.4569 0.0
C111 C 0.30749 0.18362 0.43517 0.0
C112 C 0.31928 0.14223 0.44752 0.0
C113 C 0.28623 0.10952 0.47912 0.0
C114 C 0.0218 0.98032 0.48088 0.0
C115 C 0.03552 0.11153 0.48722 0.0
O116 O 0.90498 0.99248 0.53632 0.0
O117 O 0.92001 0.0347 0.59798 0.0
O118 O 0.0596 0.09574 0.56882 0.0
O119 O 0.01844 0.06459 0.62613 0.0
O120 O 0.99885 0.96556 0.58988 0.0
O121 O 0.09239 1.00638 0.59109 0.0
O122 O 0.17594 0.09258 0.55696 0.0
O123 O 0.16462 0.04356 0.49993 0.0
O124 O 0.02198 0.98525 0.52294 0.0
O125 O 0.06543 1.01609 0.46654 0.0
O126 O 0.08494 0.11068 0.49551 0.0
O127 O 0.9904 0.07892 0.50542 0.0
H128 H 0.77468 0.99348 0.57652 0.0
H129 H 0.70629 0.94143 0.62987 0.0
H130 H 0.82407 0.87779 0.67196 0.0
H131 H 0.89218 0.92941 0.61847 0.0
H132 H 0.1971 0.16836 0.50288 0.0
H133 H 0.25519 0.22566 0.44733 0.0
H134 H 0.35172 0.13362 0.43066 0.0
H135 H 0.29376 0.07617 0.48642 0.0
Tb136 Tb 0.57491 0.05747 0.05738 0.0
Tb137 Tb 0.46824 0.03368 1.02538 0.0
C138 C 0.67816 0.09176 0.07214 0.0
C139 C 0.71282 0.12898 0.10395 0.0
C140 C 0.69835 0.16925 0.11684 0.0
C141 C 0.72767 0.20138 0.1508 0.0
C142 C 0.77133 0.19327 0.17241 0.0
C143 C 0.78727 0.15429 0.15848 0.0
C144 C 0.75816 0.1223 0.12424 0.0
C145 C 0.50062 0.98082 0.10504 0.0
C146 C 0.5009 0.1044 0.10459 0.0
C147 C 0.36759 0.99596 1.00274 0.0
C148 C 0.32883 0.94795 0.98637 0.0
C149 C 0.2715 0.93782 0.98772 0.0
C150 C 0.23472 0.8974 0.96389 0.0
C151 C 0.25544 0.86743 0.93825 0.0
C152 C 0.31197 0.87457 0.94073 0.0
C153 C 0.34855 0.91459 0.96488 0.0
C154 C 0.53583 0.125 0.99552 0.0
C155 C 0.53898 0.97824 0.98081 0.0
O156 O 0.65425 0.10813 0.04135 0.0
O157 O 0.6439 0.05107 0.08962 0.0
O158 O 0.50248 0.98829 0.06307 0.0
O159 O 0.54134 1.019 0.12095 0.0
O160 O 0.5517 0.1146 0.08977 0.0
O161 O 0.46186 0.06319 0.09119 0.0
O162 O 0.38466 0.99752 0.04386 0.0
O163 O 0.40795 1.01997 0.97556 0.0
O164 O 0.54731 0.08593 0.99879 0.0
O165 O 0.48519 0.11204 1.00907 0.0
O166 O 0.49005 0.98224 0.98302 0.0
O167 O 0.58059 1.00607 1.00598 0.0
H168 H 0.6632 0.1749 0.10182 0.0
H169 H 0.71457 0.23098 0.16175 0.0
H170 H 0.82062 0.14747 0.17537 0.0
H171 H 0.76961 0.09129 0.11479 0.0
H172 H 0.25568 0.96307 1.00452 0.0
H173 H 0.1912 0.89246 0.96189 0.0
H174 H 0.32847 0.85179 0.92088 0.0
H175 H 0.39252 0.92136 0.96398 0.0
Tb176 Tb 0.53288 0.59152 0.58262 0.0
Tb177 Tb 0.51776 0.50827 0.52395 0.0
C178 C 0.51526 0.6605 0.62348 0.0
C179 C 0.46293 0.66837 0.63236 0.0
C180 C 0.42044 0.65597 0.60002 0.0
C181 C 0.37034 0.66212 0.60919 0.0
C182 C 0.36167 0.68018 0.651 0.0
C183 C 0.40379 0.69216 0.68344 0.0
C184 C 0.45405 0.68629 0.67418 0.0
C185 C 0.57446 0.52759 0.62047 0.0
C186 C 0.41601 0.49841 0.58421 0.0
C187 C 0.53002 0.43126 0.49504 0.0
C188 C 0.57973 0.41909 0.48789 0.0
C189 C 0.62886 0.44358 0.51226 0.0
C190 C 0.67681 0.43367 0.50338 0.0
C191 C 0.67618 0.39934 0.46991 0.0
C192 C 0.62702 0.37468 0.44582 0.0
C193 C 0.57916 0.38464 0.45468 0.0
C194 C 0.48419 0.57053 0.47398 0.0
C195 C 0.63128 0.60124 0.51849 0.0
O196 O 0.531 0.66302 0.58189 0.0
O197 O 0.52046 0.62293 0.64343 0.0
O198 O 0.53053 0.51778 0.59637 0.0
O199 O 0.5968 0.57574 0.62191 0.0
O200 O 0.44588 0.54404 0.59782 0.0
O201 O 0.43461 0.4764 0.5527 0.0
O202 O 0.51791 0.43748 0.53639 0.0
O203 O 0.52599 0.46555 0.46937 0.0
O204 O 0.50243 0.57695 0.51457 0.0
O205 O 0.48091 0.52627 0.46329 0.0
O206 O 0.60645 0.55287 0.5136 0.0
O207 O 0.60838 0.62648 0.54303 0.0
H208 H 0.42584 0.64132 0.56769 0.0
H209 H 0.3383 0.65273 0.58379 0.0
H210 H 0.39779 0.7063 0.71584 0.0
H211 H 0.48585 0.69546 0.69976 0.0
H212 H 0.63024 0.47065 0.53779 0.0
H213 H 0.71442 0.45293 0.5223 0.0
H214 H 0.62592 0.34805 0.41989 0.0
H215 H 0.5419 0.366 0.43528 0.0
Tb216 Tb 0.04104 0.59184 1.02417 0.0
Tb217 Tb 0.02102 0.50441 0.07029 0.0
C218 C 0.02932 0.6639 0.98536 0.0
C219 C 0.97873 0.67068 0.97051 0.0
C220 C 0.92676 0.63202 0.97515 0.0
C221 C 0.8783 0.63813 0.96133 0.0
C222 C 0.88118 0.68312 0.94299 0.0
C223 C 0.93315 0.72189 0.93854 0.0
C224 C 0.98175 0.71564 0.95218 0.0
C225 C 0.13306 0.59729 0.07075 0.0
C226 C 0.9888 0.58433 0.12129 0.0
C227 C 0.03461 0.43315 0.10899 0.0
C228 C 0.08521 0.4286 0.1274 0.0
C229 C 0.12862 0.47036 0.14461 0.0
C230 C 0.17866 0.46681 0.1581 0.0
C231 C 0.1862 0.42163 0.15409 0.0
C232 C 0.14276 0.3798 0.13731 0.0
C233 C 0.09254 0.38328 0.12408 0.0
C234 C 0.92824 0.49949 1.02406 0.0
C235 C 0.07625 0.51378 0.9738 0.0
O236 O 0.04044 0.62907 0.96473 0.0
O237 O 0.03438 0.66157 1.02833 0.0
O238 O 0.08257 0.57753 0.08228 0.0
O239 O 0.13226 0.61663 1.03228 0.0
O240 O 0.98828 0.60042 0.08016 0.0
O241 O 1.00623 0.54744 0.12672 0.0
O242 O 0.01674 0.46439 0.12903 0.0
O243 O 0.03447 0.43756 0.06591 0.0
O244 O 0.97881 0.5187 1.01246 0.0
O245 O 0.92968 0.47916 0.06198 0.0
O246 O 0.07511 0.4967 1.01473 0.0
O247 O 0.05863 0.55038 0.96804 0.0
H248 H 0.92377 0.59712 0.98943 0.0
H249 H 0.83858 0.60782 0.96483 0.0
H250 H 0.93599 0.75677 0.9243 0.0
H251 H 0.02157 0.74579 0.94845 0.0
H252 H 0.12429 0.50596 0.14678 0.0
H253 H 0.21186 0.49944 0.17091 0.0
H254 H 0.14801 0.34467 0.13407 0.0
H255 H 0.05986 0.35085 0.11038 0.0
C256 C 0.32751 0.2239 0.31453 0.0
C257 C 0.38418 0.25633 0.31525 0.0
C258 C 0.38788 0.24712 0.39612 0.0
C259 C 0.3332 0.21085 0.39452 0.0
N260 N 0.25304 0.15937 0.35194 0.0
N261 N 0.47043 0.29609 0.35485 0.0
C262 C 0.30334 0.19805 0.35371 0.0
C263 C 0.41498 0.26743 0.3556 0.0
N264 N 0.29677 0.21771 0.27631 0.0
N265 N 0.4133 0.26264 0.43642 0.0
H266 H 0.4909 0.3133 0.32604 0.0
H267 H 0.49686 0.30015 0.38193 0.0
H268 H 0.39453 0.24806 0.4666 0.0
H269 H 0.45094 0.29237 0.44027 0.0
H270 H 0.25374 0.19952 0.27521 0.0
H271 H 0.31337 0.23387 0.24608 0.0
H272 H 0.23259 0.14423 0.32231 0.0
H273 H 0.23334 0.13945 0.37986 0.0
C274 C 0.16283 0.75881 0.86703 0.0
C275 C 0.17214 0.78173 0.82477 0.0
C276 C 0.22647 0.86175 0.85903 0.0
C277 C 0.22237 0.83795 0.90061 0.0
N278 N 0.18937 0.7646 0.94529 0.0
N279 N 0.21794 0.85325 0.77893 0.0
C280 C 0.19098 0.78663 0.90506 0.0
C281 C 0.20502 0.8328 0.82035 0.0
N282 N 0.12677 0.7108 0.8706 0.0
N283 N 0.25058 0.91225 0.85652 0.0
H284 H 0.20212 0.83412 0.74933 0.0
H285 H 0.24785 0.8883 0.77341 0.0
H286 H 0.26934 0.9352 0.88353 0.0
H287 H 0.24817 0.93202 0.82843 0.0
H288 H 0.11422 0.69292 0.9008 0.0
H289 H 0.10641 0.68958 0.84306 0.0
H290 H 0.17189 0.72655 0.95009 0.0
H291 H 0.20814 0.78457 0.97389 0.0
C292 C 0.639 0.45407 0.70019 0.0
C293 C 0.60123 0.4401 0.73709 0.0
C294 C 0.5436 0.48022 0.69642 0.0
C295 C 0.58242 0.4957 0.66018 0.0
N296 N 0.67282 0.5036 0.63316 0.0
N297 N 0.52132 0.44806 0.77212 0.0
C298 C 0.63174 0.48443 0.66403 0.0
C299 C 0.5544 0.45521 0.7352 0.0
N300 N 0.68081 0.43618 0.69829 0.0
N301 N 0.49602 0.49003 0.69434 0.0
H302 H 0.52818 0.43146 0.80094 0.0
H303 H 0.49024 0.46233 0.77618 0.0
H304 H 0.48897 0.51213 0.66994 0.0
H305 H 0.46203 0.47428 0.71526 0.0
H306 H 0.70594 0.43922 0.67046 0.0
H307 H 0.68762 0.41469 0.72346 0.0
H308 H 0.71235 0.5024 0.63604 0.0
H309 H 0.66868 0.52407 0.60604 0.0
C310 C 0.91792 0.65604 0.19527 0.0
C311 C 0.94847 0.66415 0.23601 0.0
C312 C 1.00695 0.62211 0.20142 0.0
C313 C 0.97357 0.61028 0.1617 0.0
N314 N 0.8889 0.60784 0.12654 0.0
N315 N 1.01579 0.64619 0.28007 0.0
C316 C 0.92679 0.62516 0.16029 0.0
C317 C 0.99066 0.64407 0.23972 0.0
N318 N 0.88045 0.67839 0.18958 0.0
N319 N 0.05677 0.61594 0.20191 0.0
H320 H 1.00618 0.66296 0.30817 0.0
H321 H 0.04226 0.62748 0.28665 0.0
H322 H 0.0724 0.60271 0.17476 0.0
H323 H 0.08575 0.62915 0.22757 0.0
H324 H 0.86178 0.6793 0.15907 0.0
H325 H 0.87087 0.69896 0.21479 0.0
H326 H 0.85123 0.61305 0.12573 0.0
H327 H 0.89215 0.5837 0.1017 0.0
C328 C 0.51575 0.21239 0.18389 0.0
C329 C 0.46408 0.21784 0.17767 0.0
C330 C 0.43727 0.15107 0.12194 0.0
C331 C 0.48662 0.14177 0.13131 0.0
N332 N 0.56604 0.15699 0.17967 0.0
N333 N 0.36984 0.18347 0.14986 0.0
C334 C 0.52414 0.17071 0.16463 0.0
C335 C 0.42312 0.18451 0.14948 0.0
N336 N 0.55696 0.24726 0.20786 0.0
N337 N 0.40497 0.13065 0.08545 0.0
H338 H 0.35716 0.20711 0.16959 0.0
H339 H 0.33694 0.15577 0.1339 0.0
H340 H 0.41254 0.10677 0.06277 0.0
H341 H 0.37307 0.14169 0.07488 0.0
H342 H 0.59745 0.248 0.20969 0.0
H343 H 0.55189 0.27798 0.22263 0.0
H344 H 0.59167 0.17432 0.20648 0.0
H345 H 0.57128 0.1248 0.16889 0.0
C346 C 0.0999 0.86099 0.61875 0.0
C347 C 0.05495 0.82766 0.64307 0.0
C348 C 1.01541 0.89213 0.65087 0.0
C349 C 0.05485 0.92204 0.6198 0.0
N350 N 0.12878 0.92782 0.5669 0.0
N351 N 0.96531 0.80916 0.6777 0.0
C352 C 0.09588 0.90489 0.60198 0.0
C353 C 1.01149 0.84263 0.65817 0.0
N354 N 0.14739 0.85155 0.61244 0.0
N355 N 0.98266 0.91138 0.67434 0.0
H356 H 0.96021 0.77232 0.68259 0.0
H357 H 0.9299 0.81674 0.68512 0.0
H358 H 0.98619 0.94812 0.6714 0.0
H359 H 0.95655 0.8927 0.70014 0.0
H360 H 0.18365 0.87746 0.59919 0.0
H361 H 0.15278 0.82034 0.62488 0.0
H362 H 0.15413 0.91273 0.55 0.0
H363 H 0.12689 0.95852 0.55096 0.0
C364 C 0.83428 0.44419 0.91989 0.0
C365 C 0.77942 0.42778 0.9378 0.0
C366 C 0.82151 0.46381 1.01119 0.0
C367 C 0.87659 0.48085 0.99293 0.0
N368 N 0.92857 0.50449 0.92428 0.0
N369 N 0.72119 0.43357 0.99859 0.0
C370 C 0.88105 0.47614 0.94564 0.0
C371 C 0.7733 0.44081 0.98302 0.0
N372 N 0.84252 0.42809 0.87849 0.0
N373 N 0.81472 0.47061 0.05565 0.0
H374 H 0.6855 0.41836 0.97899 0.0
H375 H 0.71348 0.44675 1.02932 0.0
H376 H 0.8465 0.49398 0.07591 0.0
H377 H 0.77772 0.45249 0.07266 0.0
H378 H 0.88197 0.43426 0.86567 0.0
H379 H 0.81012 0.40447 0.85885 0.0
H380 H 0.93268 0.50499 0.8897 0.0
H381 H 0.95997 0.53345 0.94005 0.0
C382 C 0.78581 0.66318 0.48447 0.0
C383 C 0.78106 0.67686 0.43962 0.0
C384 C 0.67872 0.63776 0.44591 0.0
C385 C 0.68326 0.62783 0.49183 0.0
N386 N 0.74112 0.63588 0.55626 0.0
N387 N 0.72224 0.68496 0.38057 0.0
C388 C 0.7369 0.6421 0.51152 0.0
C389 C 0.72724 0.66612 0.42116 0.0
N390 N 0.83708 0.66874 0.50074 0.0
N391 N 0.62789 0.61927 0.42547 0.0
H392 H 0.7564 0.70596 0.36147 0.0
H393 H 0.68447 0.68361 0.36754 0.0
H394 H 0.59137 0.59943 0.44237 0.0
H395 H 0.62241 0.62008 0.39115 0.0
H396 H 0.84332 0.65508 0.53131 0.0
H397 H 0.87339 0.68356 0.48196 0.0
H398 H 0.77837 0.65013 0.57392 0.0
H399 H 0.70644 0.61925 0.57648 0.0
C400 C 0.30055 0.4061 0.22496 0.0
C401 C 0.34104 0.40876 0.19181 0.0
C402 C 0.28253 0.42603 0.13492 0.0
C403 C 0.23998 0.41818 0.1672 0.0
N404 N 0.20516 0.39616 0.24158 0.0
N405 N 0.3718 0.42186 0.11535 0.0
C406 C 0.24822 0.40723 0.2119 0.0
C407 C 0.33227 0.4188 0.14675 0.0
N408 N 0.31199 0.40284 0.26905 0.0
N409 N 0.27583 0.44179 0.09331 0.0
H410 H 0.41123 0.42253 0.12334 0.0
H411 H 0.36529 0.42236 0.08117 0.0
H412 H 0.23953 0.44641 0.08328 0.0
H413 H 0.30718 0.45345 0.06949 0.0
H414 H 0.2872 0.40711 0.29494 0.0
H415 H 0.34834 0.39961 0.28052 0.0
H416 H 0.20575 0.38165 0.27303 0.0
H417 H 0.16678 0.39804 0.23369 0.0
C418 C 0.6198 0.22324 0.90436 0.0
C419 C 0.61203 0.2673 0.9189 0.0
C420 C 0.56246 0.21962 0.98551 0.0
C421 C 0.56584 0.17414 0.96933 0.0
N422 N 0.59082 0.13322 0.90716 0.0
N423 N 0.56662 0.30329 0.97071 0.0
C424 C 0.59286 0.17629 0.92708 0.0
C425 C 0.58039 0.26388 0.95862 0.0
N426 N 0.65444 0.22635 0.86917 0.0
N427 N 0.54479 0.22172 1.02819 0.0
H428 H 0.57901 0.33585 0.95239 0.0
H429 H 0.53858 0.302 0.99609 0.0
H430 H 0.53369 0.19178 0.04962 0.0
H431 H 0.54696 0.25439 0.04411 0.0
H432 H 0.66794 0.19805 0.85993 0.0
H433 H 0.67264 0.25874 0.85101 0.0
H434 H 0.60384 0.13117 0.87456 0.0
H435 H 0.57155 0.09872 0.92164 0.0
C436 C 0.91991 0.87118 0.41037 0.0
C437 C 0.94478 0.83497 0.41287 0.0
C438 C 0.02435 0.89705 0.4532 0.0
C439 C 0.99608 0.9308 0.45601 0.0
N440 N 0.91539 0.94894 0.43767 0.0
N441 N 0.01816 0.81216 0.4424 0.0
C442 C 0.94342 0.91746 0.43456 0.0
C443 C 0.99651 0.84777 0.43563 0.0
N444 N 0.87428 0.86168 0.38373 0.0
N445 N 0.07874 0.91247 0.46603 0.0
H446 H 0.99993 0.77622 0.42964 0.0
H447 H 0.05174 0.81714 0.46352 0.0
H448 H 0.10084 0.94818 0.47778 0.0
H449 H 0.10348 0.89172 0.46075 0.0
H450 H 0.85676 0.88767 0.37663 0.0
H451 H 0.85676 0.82885 0.36533 0.0
H452 H 0.87419 0.93954 0.42781 0.0
H453 H 0.93258 0.98394 0.45254 0.0
C454 C 0.21542 0.65894 0.69299 0.0
C455 C 0.21481 0.70733 0.68923 0.0
C456 C 0.30814 0.73652 0.65585 0.0
C457 C 0.30924 0.6884 0.66058 0.0
N458 N 0.26162 0.60175 0.67588 0.0
N459 N 0.25548 0.79026 0.66092 0.0
C460 C 0.26192 0.64886 0.67653 0.0
C461 C 0.2595 0.74542 0.66835 0.0
N462 N 0.17237 0.62325 0.71403 0.0
N463 N 0.35459 0.7741 0.64096 0.0
H464 H 0.22169 0.79888 0.67134 0.0
H465 H 0.28358 0.81805 0.64187 0.0
H466 H 0.38991 0.7685 0.62948 0.0
H467 H 0.35964 0.81127 0.64174 0.0
H468 H 0.17281 0.58901 0.72311 0.0
H469 H 0.13649 0.62876 0.72422 0.0
H470 H 0.22671 0.57038 0.68271 0.0
H471 H 0.29572 0.59342 0.66562 0.0
C472 C 0.71546 0.89173 0.77534 0.0
C473 C 0.66843 0.84676 0.77338 0.0
C474 C 0.68159 0.83971 0.69295 0.0
C475 C 0.72661 0.88603 0.69471 0.0
N476 N 0.77982 0.961 0.73516 0.0
N477 N 0.60121 0.78117 0.7306 0.0
C478 C 0.74144 0.91356 0.7352 0.0
C479 C 0.64977 0.82165 0.73217 0.0
N480 N 0.73693 0.91243 0.8157 0.0
N481 N 0.67036 0.81262 0.65415 0.0
H482 H 0.57731 0.76698 0.75889 0.0
H483 H 0.58244 0.76388 0.70108 0.0
H484 H 0.69216 0.82554 0.62467 0.0
H485 H 0.64199 0.77629 0.65169 0.0
H486 H 0.77505 0.94169 0.81927 0.0
H487 H 0.71918 0.89794 0.84617 0.0
H488 H 0.78737 0.98485 0.76264 0.0
H489 H 0.80094 0.97826 0.70663 0.0
C490 C 0.86189 0.29395 0.25151 0.0
C491 C 0.83929 0.27293 0.29295 0.0
C492 C 0.76985 0.20216 0.25493 0.0
C493 C 0.79502 0.22121 0.21363 0.0
N494 N 0.86763 0.28172 0.17162 0.0
N495 N 0.77812 0.20397 0.33529 0.0
C496 C 0.84187 0.26621 0.21158 0.0
C497 C 0.79494 0.22619 0.29501 0.0
N498 N 0.90153 0.34072 0.25048 0.0
N499 N 0.72119 0.16164 0.25577 0.0
H500 H 0.79467 0.22056 0.36573 0.0
H501 H 0.75082 0.16743 0.33856 0.0
H502 H 0.70218 0.14176 0.22723 0.0
H503 H 0.69722 0.1498 0.28435 0.0
H504 H 0.91595 0.36027 0.22128 0.0
H505 H 0.91754 0.36156 0.27931 0.0
H506 H 0.90529 0.31143 0.16832 0.0
H507 H 0.85301 0.26275 0.14166 0.0
C508 C 0.42637 0.61149 0.36584 0.0
C509 C 0.45307 0.66432 0.36437 0.0
C510 C 0.50004 0.65767 0.4369 0.0
C511 C 0.4699 0.60536 0.43997 0.0
N512 N 0.39027 0.53761 0.41138 0.0
N513 N 0.50589 0.73727 0.40741 0.0
C514 C 0.42902 0.5841 0.40556 0.0
C515 C 0.4871 0.68699 0.40257 0.0
N516 N 0.40079 0.58614 0.32845 0.0
N517 N 0.54309 0.67989 0.46559 0.0
H518 H 0.49624 0.75995 0.38496 0.0
H519 H 0.52562 0.75592 0.43619 0.0
H520 H 0.55323 0.66095 0.49111 0.0
H521 H 0.5714 0.71602 0.46176 0.0
H522 H 0.38589 0.54764 0.32591 0.0
H523 H 0.40023 0.60326 0.29833 0.0
H524 H 0.35646 0.52165 0.39001 0.0
H525 H 0.38764 0.51775 0.44055 0.0
C526 C 0.09669 0.41735 0.8901 0.0
C527 C 0.13031 0.44806 0.85605 0.0
C528 C 0.13343 0.5214 0.90173 0.0
C529 C 0.09558 0.49085 0.9336 0.0
N530 N 0.03075 0.40874 0.95041 0.0
N531 N 0.1691 0.53038 0.82597 0.0
C532 C 0.07435 0.43853 0.92557 0.0
C533 C 0.14517 0.50036 0.86101 0.0
N534 N 0.08806 0.36816 0.89029 0.0
N535 N 0.16062 0.57062 0.91105 0.0
H536 H 0.17676 0.51685 0.79529 0.0
H537 H 0.17557 0.56791 0.82561 0.0
H538 H 0.15527 0.58721 0.94081 0.0
H539 H 0.1929 0.59382 0.8915 0.0
H540 H 0.0692 0.34509 0.91674 0.0
H541 H 0.10455 0.35138 0.86627 0.0
H542 H 1.00979 0.37123 0.94329 0.0
H543 H 1.01152 0.42244 0.97494 0.0
C544 C 0.53381 0.88851 0.88562 0.0
C545 C 0.55524 0.85637 0.90743 0.0
C546 C 0.55196 0.89684 0.97843 0.0
C547 C 0.54383 0.93606 0.95529 0.0
N548 N 0.52394 0.96809 0.88619 0.0
N549 N 0.53195 0.80924 0.97459 0.0
C550 C 0.53275 0.93116 0.90874 0.0
C551 C 0.54976 0.85405 0.95427 0.0
N552 N 0.50855 0.87491 0.84512 0.0
N553 N 0.56118 0.89956 1.02335 0.0
H554 H 0.51881 0.77631 0.95595 0.0
H555 H 0.52248 0.8048 1.00845 0.0
H556 H 0.56072 0.92882 0.04346 0.0
H557 H 0.57231 0.87342 0.04012 0.0
H558 H 0.48735 0.89427 0.82918 0.0
H559 H 0.50329 0.84071 0.83043 0.0
H560 H 0.52147 0.96851 0.85154 0.0
H561 H 0.52357 1.00019 0.90183 0.0
C562 C 0.04161 0.24138 0.46184 0.0
C563 C 1.01322 0.23297 0.42041 0.0
C564 C 1.00164 0.14521 0.42168 0.0
C565 C 0.031 0.15382 0.46269 0.0
N566 N 0.08755 0.21161 0.51833 0.0
N567 N 0.974 0.17962 0.35687 0.0
C568 C 0.0537 0.20238 0.48167 0.0
C569 C 0.99582 0.18573 0.399 0.0
N570 N 0.05664 0.28669 0.4825 0.0
N571 N 0.9787 0.09806 0.40472 0.0
H572 H 0.96675 0.20752 0.33971 0.0
H573 H 0.96638 0.14791 0.33742 0.0
H574 H 0.98562 0.06815 0.41857 0.0
H575 H 0.95067 0.08786 0.37824 0.0
H576 H 0.06977 0.29337 0.51555 0.0
H577 H 0.0535 0.31757 0.4673 0.0
H578 H 0.11081 0.24697 0.53036 0.0
H579 H 0.09577 0.18434 0.53556 0.0
C580 C 0.27456 0.63235 0.13303 0.0
C581 C 0.27451 0.6716 0.1621 0.0
C582 C 0.18235 0.6628 0.13079 0.0
C583 C 0.18078 0.62163 0.10366 0.0
N584 N 0.22267 0.56306 0.08385 0.0
N585 N 0.22229 0.71676 0.19464 0.0
C586 C 0.22614 0.60521 0.10641 0.0
C587 C 0.22651 0.6845 0.16264 0.0
N588 N 0.32193 0.6223 0.12932 0.0
N589 N 0.1428 0.68287 0.12492 0.0
H590 H 0.2533 0.7331 0.21839 0.0
H591 H 0.1861 0.72362 0.2004 0.0
H592 H 0.1098 0.66836 0.10257 0.0
H593 H 0.14499 0.71615 0.13963 0.0
H594 H 0.32751 0.59829 0.10545 0.0
H595 H 0.35757 0.64075 0.1482 0.0
H596 H 0.25092 0.54564 0.08782 0.0
H597 H 0.18876 0.54308 0.0637 0.0
C598 C 0.26872 0.45498 0.63631 0.0
C599 C 0.26979 0.41632 0.66451 0.0
C600 C 0.36399 0.42861 0.63678 0.0
C601 C 0.36434 0.46907 0.61021 0.0
N602 N 0.31964 0.52489 0.5892 0.0
N603 N 0.32314 0.37394 0.69866 0.0
C604 C 0.31754 0.48365 0.61163 0.0
C605 C 0.31878 0.4053 0.66657 0.0
N606 N 0.22022 0.46295 0.63163 0.0
N607 N 0.40691 0.41208 0.63376 0.0
H608 H 0.29147 0.35678 0.72143 0.0
H609 H 0.35987 0.36864 0.70574 0.0
H610 H 0.44308 0.42984 0.61566 0.0
H611 H 0.40551 0.37888 0.64733 0.0
H612 H 0.21437 0.48665 0.60821 0.0
H613 H 0.18418 0.4432 0.64929 0.0
H614 H 0.29023 0.54119 0.59288 0.0
H615 H 0.35266 0.54459 0.56847 0.0
C616 C 0.77371 0.70145 0.86638 0.0
C617 C 0.73204 0.70119 0.89753 0.0
C618 C 0.79042 0.69309 0.95886 0.0
C619 C 0.82968 0.68915 0.92743 0.0
N620 N 0.85322 0.67894 0.85104 0.0
N621 N 0.69496 0.68433 0.97213 0.0
C622 C 0.81969 0.69015 0.88109 0.0
C623 C 0.73876 0.69363 0.94349 0.0
N624 N 0.77105 0.71477 0.82314 0.0
N625 N 0.80298 0.69754 1.00333 0.0
H626 H 0.65553 0.68165 0.96176 0.0
H627 H 0.69597 0.67384 1.0051 0.0
H628 H 0.84042 0.69731 1.01588 0.0
H629 H 0.77844 0.70584 1.0273 0.0
H630 H 0.80358 0.72115 0.80057 0.0
H631 H 0.73878 0.72403 0.8106 0.0
H632 H 0.84424 0.67363 0.81709 0.0
H633 H 0.88732 0.67035 0.86045 0.0
C634 C 0.4467 0.87949 0.20056 0.0
C635 C 0.43875 0.83397 0.17754 0.0
C636 C 0.45839 0.88294 0.10686 0.0
C637 C 0.47484 0.92972 0.12987 0.0
N638 N 0.48321 0.96982 0.20214 0.0
N639 N 0.45317 0.79781 0.10828 0.0
C640 C 0.46918 0.92697 0.17778 0.0
C641 C 0.44997 0.83779 0.13068 0.0
N642 N 0.42939 0.87755 0.24378 0.0
N643 N 0.44652 0.87996 0.06238 0.0
H644 H 0.44943 0.76511 0.12433 0.0
H645 H 0.4658 0.79933 0.07513 0.0
H646 H 0.4447 0.90948 0.04427 0.0
H647 H 0.43037 0.84638 0.04497 0.0
H648 H 0.42716 0.90791 0.26124 0.0
H649 H 0.41289 0.84455 0.26123 0.0
H650 H 0.48871 0.97139 0.2366 0.0
H651 H 0.49041 1.00411 0.18796 0.0
C652 C 0.1425 0.21276 0.68837 0.0
C653 C 0.11837 0.24816 0.67806 0.0
C654 C 0.05274 0.18598 0.62683 0.0
C655 C 0.08021 0.15227 0.634 0.0
N656 N 0.15467 0.13563 0.66904 0.0
N657 N 0.05491 0.27026 0.63269 0.0
C658 C 0.12591 0.16628 0.66427 0.0
C659 C 0.07454 0.23506 0.64606 0.0
N660 N 0.18094 0.22339 0.72192 0.0
N661 N 1.00469 0.17071 0.6024 0.0
H662 H 0.06812 0.30564 0.64697 0.0
H663 H 0.02851 0.26566 0.60547 0.0
H664 H 0.98794 0.13591 0.58715 0.0
H665 H 0.97913 0.191 0.59993 0.0
H666 H 0.19645 0.19797 0.7346 0.0
H667 H 0.19423 0.25684 0.7397 0.0
H668 H 0.19203 0.14536 0.6864 0.0
H669 H 0.14308 0.10129 0.65287 0.0
C670 C 0.81442 0.40729 0.41914 0.0
C671 C 0.81269 0.35912 0.42852 0.0
C672 C 0.73009 0.3439 0.47505 0.0
C673 C 0.72674 0.38858 0.45976 0.0
N674 N 0.76377 0.46256 0.41587 0.0
N675 N 0.76683 0.27949 0.46261 0.0
C676 C 0.76882 0.42064 0.43188 0.0
C677 C 0.77044 0.32706 0.45631 0.0
N678 N 0.85978 0.44004 0.398 0.0
N679 N 0.69472 0.31775 0.50765 0.0
H680 H 0.79587 0.26572 0.45002 0.0
H681 H 0.733 0.25257 0.47776 0.0
H682 H 0.66447 0.32906 0.52187 0.0
H683 H 0.69863 0.28754 0.52344 0.0
H684 H 0.86616 0.47718 0.39357 0.0
H685 H 0.89365 0.43099 0.38837 0.0
H686 H 0.78949 0.48448 0.39137 0.0
H687 H 0.73146 0.47396 0.42508 0.0
loop_
_geom_bond_atom_site_label_1
_geom_bond_atom_site_label_2
_geom_bond_distance
_geom_bond_site_symmetry_2
_ccdc_geom_bond_type
H0 C5 0.930 . S
H1 C8 0.930 . S
H2 C10 0.930 . S
H3 C4 1.016 . S
C4 H3 1.016 . S
C4 N11 1.286 . S
C5 H0 0.930 . S
C5 C6 1.397 . S
C5 C7 1.361 . S
C6 C5 1.397 . S
C6 C10 1.390 . S
C7 C5 1.361 . S
C7 C8 1.393 . S
C7 N11 1.413 . S
C8 H1 0.930 . S
C8 C7 1.393 . S
C8 C9 1.399 . S
C9 C8 1.399 . S
C9 C10 1.381 . S
C10 H2 0.930 . S
C10 C6 1.390 . S
C10 C9 1.381 . S
N11 C4 1.286 . S
N11 C7 1.413 . S
H12 C17 0.930 . S
H13 C20 0.930 . S
H14 C22 0.930 . S
H15 C16 1.016 1_455 S
C16 H15 1.016 1_655 S
C16 N23 1.286 1_655 S
C17 H12 0.930 . S
C17 C18 1.397 . S
C17 C19 1.361 . S
C18 C17 1.397 . S
C18 C22 1.390 . S
C19 C17 1.361 . S
C19 C20 1.393 . S
C19 N23 1.413 . S
C20 H13 0.930 . S
C20 C19 1.393 . S
C20 C21 1.399 . S
C21 C20 1.399 . S
C21 C22 1.381 . S
C22 H14 0.930 . S
C22 C18 1.390 . S
C22 C21 1.381 . S
N23 C16 1.286 1_455 S
N23 C19 1.413 . S
H24 C29 0.930 . S
H25 C32 0.930 . S
H26 C34 0.930 . S
H27 C28 1.016 . S
C28 H27 1.016 . S
C28 N35 1.286 . S
C29 H24 0.930 . S
C29 C30 1.397 . S
C29 C31 1.361 . S
C30 C29 1.397 . S
C30 C34 1.390 . S
C31 C29 1.361 . S
C31 C32 1.393 . S
C31 N35 1.413 . S
C32 H25 0.930 . S
C32 C31 1.393 . S
C32 C33 1.399 . S
C33 C32 1.399 . S
C33 C34 1.381 . S
C34 H26 0.930 . S
C34 C30 1.390 . S
C34 C33 1.381 . S
N35 C28 1.286 . S
N35 C31 1.413 . S
H36 C41 0.930 . S
H37 C44 0.930 . S
H38 C46 0.930 . S
H39 C40 1.016 . S
C40 H39 1.016 . S
C40 N47 1.286 . S
C41 H36 0.930 . S
C41 C42 1.397 . S
C41 C43 1.361 . S
C42 C41 1.397 . S
C42 C46 1.390 . S
C43 C41 1.361 . S
C43 C44 1.393 . S
C43 N47 1.413 . S
C44 H37 0.930 . S
C44 C43 1.393 . S
C44 C45 1.399 . S
C45 C44 1.399 . S
C45 C46 1.381 . S
C46 H38 0.930 . S
C46 C42 1.390 . S
C46 C45 1.381 . S
N47 C40 1.286 . S
N47 C43 1.413 . S
H48 C53 0.930 . S
H49 C56 0.930 . S
H50 C58 0.930 . S
H51 C52 1.016 . S
C52 H51 1.016 . S
C52 N59 1.286 . S
C53 H48 0.930 . S
C53 C54 1.397 . S
C53 C55 1.361 . S
C54 C53 1.397 . S
C54 C58 1.390 . S
C55 C53 1.361 . S
C55 C56 1.393 . S
C55 N59 1.413 . S
C56 H49 0.930 . S
C56 C55 1.393 . S
C56 C57 1.399 . S
C57 C56 1.399 . S
C57 C58 1.381 . S
C58 H50 0.930 . S
C58 C54 1.390 . S
C58 C57 1.381 . S
N59 C52 1.286 . S
N59 C55 1.413 . S
H60 C65 0.930 . S
H61 C68 0.930 . S
H62 C70 0.930 . S
H63 C64 1.016 . S
C64 H63 1.016 . S
C64 N71 1.286 1_455 S
C65 H60 0.930 . S
C65 C66 1.397 . S
C65 C67 1.361 . S
C66 C65 1.397 . S
C66 C70 1.390 . S
C67 C65 1.361 . S
C67 C68 1.393 . S
C67 N71 1.413 . S
C68 H61 0.930 . S
C68 C67 1.393 . S
C68 C69 1.399 . S
C69 C68 1.399 . S
C69 C70 1.381 . S
C70 H62 0.930 . S
C70 C66 1.390 . S
C70 C69 1.381 . S
N71 C64 1.286 1_655 S
N71 C67 1.413 . S
H72 C77 0.930 . S
H73 C80 0.930 . S
H74 C82 0.930 . S
H75 C76 1.016 . S
C76 H75 1.016 . S
C76 N83 1.286 . S
C77 H72 0.930 . S
C77 C78 1.397 . S
C77 C79 1.361 . S
C78 C77 1.397 . S
C78 C82 1.390 . S
C79 C77 1.361 . S
C79 C80 1.393 . S
C79 N83 1.413 . S
C80 H73 0.930 . S
C80 C79 1.393 . S
C80 C81 1.399 . S
C81 C80 1.399 . S
C81 C82 1.381 . S
C82 H74 0.930 . S
C82 C78 1.390 . S
C82 C81 1.381 . S
N83 C76 1.286 . S
N83 C79 1.413 . S
H84 C89 0.930 . S
H85 C92 0.930 . S
H86 C94 0.930 . S
H87 C88 1.016 . S
C88 H87 1.016 . S
C88 N95 1.286 . S
C89 H84 0.930 . S
C89 C90 1.397 . S
C89 C91 1.361 . S
C90 C89 1.397 . S
C90 C94 1.390 . S
C91 C89 1.361 . S
C91 C92 1.393 . S
C91 N95 1.413 . S
C92 H85 0.930 . S
C92 C91 1.393 . S
C92 C93 1.399 . S
C93 C92 1.399 . S
C93 C94 1.381 . S
C94 H86 0.930 . S
C94 C90 1.390 . S
C94 C93 1.381 . S
N95 C88 1.286 . S
N95 C91 1.413 . S
Tb96 C98 2.816 . S
Tb96 O116 2.495 . S
Tb96 O117 2.442 . S
Tb96 O118 2.655 1_665 S
Tb96 O119 2.403 1_565 S
Tb96 O120 2.387 . S
Tb96 O124 2.333 . S
Tb96 O127 2.333 1_565 S
Tb97 C107 2.809 . S
Tb97 O118 2.325 . S
Tb97 O121 2.341 1_545 S
Tb97 O122 2.484 . S
Tb97 O123 2.440 . S
Tb97 O124 2.658 1_445 S
Tb97 O125 2.409 1_545 S
Tb97 O126 2.378 . S
C98 Tb96 2.816 . S
C98 C99 1.514 . S
C98 O116 1.248 . S
C98 O117 1.266 . S
C99 C98 1.514 . S
C99 C100 1.359 . S
C99 C104 1.348 . S
C100 C99 1.359 . S
C100 C101 1.380 . S
C100 H128 0.929 . S
C101 C100 1.380 . S
C101 C102 1.347 . S
C101 H129 0.931 . S
C102 C101 1.347 . S
C102 C103 1.369 . S
C103 C102 1.369 . S
C103 C104 1.408 . S
C103 H130 0.930 . S
C104 C99 1.348 . S
C104 C103 1.408 . S
C104 H131 0.930 . S
C105 O118 1.281 . S
C105 O119 1.251 1_455 S
C106 O120 1.236 1_455 S
C106 O121 1.266 . S
C107 Tb97 2.809 . S
C107 C108 1.514 . S
C107 O122 1.248 . S
C107 O123 1.266 . S
C108 C107 1.514 . S
C108 C109 1.359 . S
C108 C113 1.348 . S
C109 C108 1.359 . S
C109 C110 1.380 . S
C109 H132 0.929 . S
C110 C109 1.380 . S
C110 C111 1.347 . S
C110 H133 0.931 . S
C111 C110 1.347 . S
C111 C112 1.369 . S
C112 C111 1.369 . S
C112 C113 1.408 . S
C112 H134 0.930 . S
C113 C108 1.348 . S
C113 C112 1.408 . S
C113 H135 0.930 . S
C114 O124 1.281 . S
C114 O125 1.254 1_655 S
C115 O126 1.236 1_655 S
C115 O127 1.266 . S
O116 Tb96 2.495 . S
O116 C98 1.248 . S
O117 Tb96 2.442 . S
O117 C98 1.266 . S
O118 Tb96 2.655 1_445 S
O118 Tb97 2.325 . S
O118 C105 1.281 . S
O119 Tb96 2.403 1_545 S
O119 C105 1.251 1_655 S
O120 Tb96 2.387 . S
O120 C106 1.236 1_655 S
O121 Tb97 2.341 1_565 S
O121 C106 1.266 . S
O122 Tb97 2.484 . S
O122 C107 1.248 . S
O123 Tb97 2.440 . S
O123 C107 1.266 . S
O124 Tb96 2.333 . S
O124 Tb97 2.658 1_665 S
O124 C114 1.281 . S
O125 Tb97 2.409 1_565 S
O125 C114 1.254 1_455 S
O126 Tb97 2.378 . S
O126 C115 1.236 1_455 S
O127 Tb96 2.333 1_545 S
O127 C115 1.266 . S
H128 C100 0.929 . S
H129 C101 0.931 . S
H130 C103 0.930 . S
H131 C104 0.930 . S
H132 C109 0.929 . S
H133 C110 0.931 . S
H134 C112 0.930 . S
H135 C113 0.930 . S
Tb136 C138 2.809 . S
Tb136 O156 2.484 . S
Tb136 O157 2.440 . S
Tb136 O158 2.658 1_545 S
Tb136 O159 2.409 1_545 S
Tb136 O160 2.378 . S
Tb136 O164 2.325 1_554 S
Tb136 O167 2.341 1_544 S
Tb137 C147 2.809 1_545 S
Tb137 O158 2.325 1_546 S
Tb137 O161 2.341 1_556 S
Tb137 O162 2.484 1_545 S
Tb137 O163 2.440 1_545 S
Tb137 O164 2.658 . S
Tb137 O165 2.409 . S
Tb137 O166 2.378 1_545 S
C138 Tb136 2.809 . S
C138 C139 1.514 . S
C138 O156 1.248 . S
C138 O157 1.266 . S
C139 C138 1.514 . S
C139 C140 1.359 . S
C139 C144 1.348 . S
C140 C139 1.359 . S
C140 C141 1.380 . S
C140 H168 0.929 . S
C141 C140 1.380 . S
C141 C142 1.347 . S
C141 H169 0.931 . S
C142 C141 1.347 . S
C142 C143 1.369 . S
C143 C142 1.369 . S
C143 C144 1.408 . S
C143 H170 0.930 . S
C144 C139 1.348 . S
C144 C143 1.408 . S
C144 H171 0.930 . S
C145 O158 1.281 . S
C145 O159 1.254 . S
C146 O160 1.236 . S
C146 O161 1.266 . S
C147 Tb137 2.809 1_565 S
C147 C148 1.514 . S
C147 O162 1.248 . S
C147 O163 1.266 . S
C148 C147 1.514 . S
C148 C149 1.359 . S
C148 C153 1.348 . S
C149 C148 1.359 . S
C149 C150 1.380 . S
C149 H172 0.929 . S
C150 C149 1.380 . S
C150 C151 1.347 . S
C150 H173 0.931 . S
C151 C150 1.347 . S
C151 C152 1.369 . S
C152 C151 1.369 . S
C152 C153 1.408 . S
C152 H174 0.930 . S
C153 C148 1.348 . S
C153 C152 1.408 . S
C153 H175 0.930 . S
C154 O164 1.281 . S
C154 O165 1.254 . S
C155 O166 1.236 . S
C155 O167 1.266 . S
O156 Tb136 2.484 . S
O156 C138 1.248 . S
O157 Tb136 2.440 . S
O157 C138 1.266 . S
O158 Tb136 2.658 1_565 S
O158 Tb137 2.325 1_564 S
O158 C145 1.281 . S
O159 Tb136 2.409 1_565 S
O159 C145 1.254 . S
O160 Tb136 2.378 . S
O160 C146 1.236 . S
O161 Tb137 2.341 1_554 S
O161 C146 1.266 . S
O162 Tb137 2.484 1_565 S
O162 C147 1.248 . S
O163 Tb137 2.440 1_565 S
O163 C147 1.266 . S
O164 Tb136 2.325 1_556 S
O164 Tb137 2.658 . S
O164 C154 1.281 . S
O165 Tb137 2.409 . S
O165 C154 1.254 . S
O166 Tb137 2.378 1_565 S
O166 C155 1.236 . S
O167 Tb136 2.341 1_566 S
O167 C155 1.266 . S
H168 C140 0.929 . S
H169 C141 0.931 . S
H170 C143 0.930 . S
H171 C144 0.930 . S
H172 C149 0.929 . S
H173 C150 0.931 . S
H174 C152 0.930 . S
H175 C153 0.930 . S
Tb176 C178 2.809 . S
Tb176 O196 2.484 . S
Tb176 O197 2.440 . S
Tb176 O198 2.658 . S
Tb176 O199 2.409 . S
Tb176 O200 2.378 . S
Tb176 O204 2.325 . S
Tb176 O207 2.341 . S
Tb177 C187 2.809 . S
Tb177 O198 2.325 . S
Tb177 O201 2.341 . S
Tb177 O202 2.484 . S
Tb177 O203 2.440 . S
Tb177 O204 2.658 . S
Tb177 O205 2.409 . S
Tb177 O206 2.378 . S
C178 Tb176 2.809 . S
C178 C179 1.514 . S
C178 O196 1.248 . S
C178 O197 1.266 . S
C179 C178 1.514 . S
C179 C180 1.359 . S
C179 C184 1.348 . S
C180 C179 1.359 . S
C180 C181 1.380 . S
C180 H208 0.929 . S
C181 C180 1.380 . S
C181 C182 1.347 . S
C181 H209 0.931 . S
C182 C181 1.347 . S
C182 C183 1.369 . S
C183 C182 1.369 . S
C183 C184 1.408 . S
C183 H210 0.930 . S
C184 C179 1.348 . S
C184 C183 1.408 . S
C184 H211 0.930 . S
C185 O198 1.281 . S
C185 O199 1.254 . S
C186 O200 1.236 . S
C186 O201 1.266 . S
C187 Tb177 2.809 . S
C187 C188 1.514 . S
C187 O202 1.248 . S
C187 O203 1.266 . S
C188 C187 1.514 . S
C188 C189 1.359 . S
C188 C193 1.348 . S
C189 C188 1.359 . S
C189 C190 1.380 . S
C189 H212 0.929 . S
C190 C189 1.380 . S
C190 C191 1.347 . S
C190 H213 0.931 . S
C191 C190 1.347 . S
C191 C192 1.369 . S
C192 C191 1.369 . S
C192 C193 1.408 . S
C192 H214 0.930 . S
C193 C188 1.348 . S
C193 C192 1.408 . S
C193 H215 0.930 . S
C194 O204 1.281 . S
C194 O205 1.254 . S
C195 O206 1.236 . S
C195 O207 1.266 . S
O196 Tb176 2.484 . S
O196 C178 1.248 . S
O197 Tb176 2.440 . S
O197 C178 1.266 . S
O198 Tb176 2.658 . S
O198 Tb177 2.325 . S
O198 C185 1.281 . S
O199 Tb176 2.409 . S
O199 C185 1.254 . S
O200 Tb176 2.378 . S
O200 C186 1.236 . S
O201 Tb177 2.341 . S
O201 C186 1.266 . S
O202 Tb177 2.484 . S
O202 C187 1.248 . S
O203 Tb177 2.440 . S
O203 C187 1.266 . S
O204 Tb176 2.325 . S
O204 Tb177 2.658 . S
O204 C194 1.281 . S
O205 Tb177 2.409 . S
O205 C194 1.254 . S
O206 Tb177 2.378 . S
O206 C195 1.236 . S
O207 Tb176 2.341 . S
O207 C195 1.266 . S
H208 C180 0.929 . S
H209 C181 0.931 . S
H210 C183 0.930 . S
H211 C184 0.930 . S
H212 C189 0.929 . S
H213 C190 0.931 . S
H214 C192 0.930 . S
H215 C193 0.930 . S
Tb216 C218 2.809 1_455 S
Tb216 O236 2.484 1_455 S
Tb216 O237 2.440 . S
Tb216 O238 2.658 1_556 S
Tb216 O239 2.409 1_556 S
Tb216 O240 2.378 1_456 S
Tb216 O244 2.325 1_455 S
Tb216 O247 2.341 . S
Tb217 C227 2.809 . S
Tb217 O238 2.325 . S
Tb217 O241 2.341 1_455 S
Tb217 O242 2.484 . S
Tb217 O243 2.440 . S
Tb217 O244 2.658 1_454 S
Tb217 O245 2.409 1_454 S
Tb217 O246 2.378 1_554 S
C218 Tb216 2.809 1_655 S
C218 C219 1.514 . S
C218 O236 1.248 . S
C218 O237 1.266 1_655 S
C219 C218 1.514 . S
C219 C220 1.359 . S
C219 C224 1.348 . S
C220 C219 1.359 . S
C220 C221 1.380 . S
C220 H248 0.929 . S
C221 C220 1.380 . S
C221 C222 1.347 . S
C221 H249 0.931 . S
C222 C221 1.347 . S
C222 C223 1.369 . S
C223 C222 1.369 . S
C223 C224 1.408 . S
C223 H250 0.930 . S
C224 C219 1.348 . S
C224 C223 1.408 . S
C224 H251 0.930 1_655 S
C225 O238 1.281 . S
C225 O239 1.254 . S
C226 O240 1.236 . S
C226 O241 1.266 . S
C227 Tb217 2.809 . S
C227 C228 1.514 . S
C227 O242 1.248 . S
C227 O243 1.266 . S
C228 C227 1.514 . S
C228 C229 1.359 . S
C228 C233 1.348 . S
C229 C228 1.359 . S
C229 C230 1.380 . S
C229 H252 0.929 . S
C230 C229 1.380 . S
C230 C231 1.347 . S
C230 H253 0.931 . S
C231 C230 1.347 . S
C231 C232 1.369 . S
C232 C231 1.369 . S
C232 C233 1.408 . S
C232 H254 0.930 . S
C233 C228 1.348 . S
C233 C232 1.408 . S
C233 H255 0.930 . S
C234 O244 1.281 . S
C234 O245 1.254 . S
C235 O246 1.236 . S
C235 O247 1.266 . S
O236 Tb216 2.484 1_655 S
O236 C218 1.248 . S
O237 Tb216 2.440 . S
O237 C218 1.266 1_455 S
O238 Tb216 2.658 1_554 S
O238 Tb217 2.325 . S
O238 C225 1.281 . S
O239 Tb216 2.409 1_554 S
O239 C225 1.254 . S
O240 Tb216 2.378 1_654 S
O240 C226 1.236 . S
O241 Tb217 2.341 1_655 S
O241 C226 1.266 . S
O242 Tb217 2.484 . S
O242 C227 1.248 . S
O243 Tb217 2.440 . S
O243 C227 1.266 . S
O244 Tb216 2.325 1_655 S
O244 Tb217 2.658 1_656 S
O244 C234 1.281 . S
O245 Tb217 2.409 1_656 S
O245 C234 1.254 . S
O246 Tb217 2.378 1_556 S
O246 C235 1.236 . S
O247 Tb216 2.341 . S
O247 C235 1.266 . S
H248 C220 0.929 . S
H249 C221 0.931 . S
H250 C223 0.930 . S
H251 C224 0.930 1_455 S
H252 C229 0.929 . S
H253 C230 0.931 . S
H254 C232 0.930 . S
H255 C233 0.930 . S
C256 C257 1.363 . S
C256 C262 1.379 . S
C256 N264 1.356 . S
C257 C256 1.363 . S
C257 C263 1.363 . S
C258 C259 1.363 . S
C258 C263 1.379 . S
C258 N265 1.356 . S
C259 C258 1.363 . S
C259 C262 1.363 . S
N260 C262 1.356 . S
N260 H272 0.984 . S
N260 H273 0.985 . S
N261 C263 1.356 . S
N261 H266 0.984 . S
N261 H267 0.985 . S
C262 C256 1.379 . S
C262 C259 1.363 . S
C262 N260 1.356 . S
C263 C257 1.363 . S
C263 C258 1.379 . S
C263 N261 1.356 . S
N264 C256 1.356 . S
N264 H270 0.984 . S
N264 H271 0.984 . S
N265 C258 1.356 . S
N265 H268 0.984 . S
N265 H269 0.985 . S
H266 N261 0.984 . S
H267 N261 0.985 . S
H268 N265 0.984 . S
H269 N265 0.985 . S
H270 N264 0.984 . S
H271 N264 0.984 . S
H272 N260 0.984 . S
H273 N260 0.985 . S
C274 C275 1.363 . S
C274 C280 1.379 . S
C274 N282 1.356 . S
C275 C274 1.363 . S
C275 C281 1.363 . S
C276 C277 1.363 . S
C276 C281 1.379 . S
C276 N283 1.356 . S
C277 C276 1.363 . S
C277 C280 1.363 . S
N278 C280 1.356 . S
N278 H290 0.984 . S
N278 H291 0.985 . S
N279 C281 1.356 . S
N279 H284 0.984 . S
N279 H285 0.985 . S
C280 C274 1.379 . S
C280 C277 1.363 . S
C280 N278 1.356 . S
C281 C275 1.363 . S
C281 C276 1.379 . S
C281 N279 1.356 . S
N282 C274 1.356 . S
N282 H288 0.984 . S
N282 H289 0.984 . S
N283 C276 1.356 . S
N283 H286 0.984 . S
N283 H287 0.985 . S
H284 N279 0.984 . S
H285 N279 0.985 . S
H286 N283 0.984 . S
H287 N283 0.985 . S
H288 N282 0.984 . S
H289 N282 0.984 . S
H290 N278 0.984 . S
H291 N278 0.985 . S
C292 C293 1.363 . S
C292 C298 1.379 . S
C292 N300 1.356 . S
C293 C292 1.363 . S
C293 C299 1.363 . S
C294 C295 1.363 . S
C294 C299 1.379 . S
C294 N301 1.356 . S
C295 C294 1.363 . S
C295 C298 1.363 . S
N296 C298 1.356 . S
N296 H308 0.984 . S
N296 H309 0.985 . S
N297 C299 1.356 . S
N297 H302 0.984 . S
N297 H303 0.985 . S
C298 C292 1.379 . S
C298 C295 1.363 . S
C298 N296 1.356 . S
C299 C293 1.363 . S
C299 C294 1.379 . S
C299 N297 1.356 . S
N300 C292 1.356 . S
N300 H306 0.984 . S
N300 H307 0.984 . S
N301 C294 1.356 . S
N301 H304 0.984 . S
N301 H305 0.985 . S
H302 N297 0.984 . S
H303 N297 0.985 . S
H304 N301 0.984 . S
H305 N301 0.985 . S
H306 N300 0.984 . S
H307 N300 0.984 . S
H308 N296 0.984 . S
H309 N296 0.985 . S
C310 C311 1.363 . S
C310 C316 1.379 . S
C310 N318 1.356 . S
C311 C310 1.363 . S
C311 C317 1.363 . S
C312 C313 1.363 . S
C312 C317 1.379 . S
C312 N319 1.356 . S
C313 C312 1.363 . S
C313 C316 1.363 . S
N314 C316 1.356 . S
N314 H326 0.984 . S
N314 H327 0.985 . S
N315 C317 1.356 . S
N315 H320 0.984 . S
N315 H321 0.985 . S
C316 C310 1.379 . S
C316 C313 1.363 . S
C316 N314 1.356 . S
C317 C311 1.363 . S
C317 C312 1.379 . S
C317 N315 1.356 . S
N318 C310 1.356 . S
N318 H324 0.984 . S
N318 H325 0.984 . S
N319 C312 1.356 . S
N319 H322 0.984 . S
N319 H323 0.985 1_655 S
H320 N315 0.984 . S
H321 N315 0.985 . S
H322 N319 0.984 . S
H323 N319 0.985 1_455 S
H324 N318 0.984 . S
H325 N318 0.984 . S
H326 N314 0.984 . S
H327 N314 0.985 . S
C328 C329 1.363 . S
C328 C334 1.379 . S
C328 N336 1.356 . S
C329 C328 1.363 . S
C329 C335 1.363 . S
C330 C331 1.363 . S
C330 C335 1.379 . S
C330 N337 1.356 . S
C331 C330 1.363 . S
C331 C334 1.363 . S
N332 C334 1.356 . S
N332 H344 0.984 . S
N332 H345 0.985 . S
N333 C335 1.356 . S
N333 H338 0.984 . S
N333 H339 0.985 . S
C334 C328 1.379 . S
C334 C331 1.363 . S
C334 N332 1.356 . S
C335 C329 1.363 . S
C335 C330 1.379 . S
C335 N333 1.356 . S
N336 C328 1.356 . S
N336 H342 0.984 . S
N336 H343 0.984 . S
N337 C330 1.356 . S
N337 H340 0.984 . S
N337 H341 0.985 . S
H338 N333 0.984 . S
H339 N333 0.985 . S
H340 N337 0.984 . S
H341 N337 0.985 . S
H342 N336 0.984 . S
H343 N336 0.984 . S
H344 N332 0.984 . S
H345 N332 0.985 . S
C346 C347 1.363 1_455 S
C346 C352 1.379 . S
C346 N354 1.356 . S
C347 C346 1.363 1_655 S
C347 C353 1.363 . S
C348 C349 1.363 1_655 S
C348 C353 1.379 . S
C348 N355 1.356 . S
C349 C348 1.363 1_455 S
C349 C352 1.363 . S
N350 C352 1.356 . S
N350 H362 0.984 . S
N350 H363 0.985 . S
N351 C353 1.356 . S
N351 H356 0.984 . S
N351 H357 0.985 . S
C352 C346 1.379 . S
C352 C349 1.363 . S
C352 N350 1.356 . S
C353 C347 1.363 . S
C353 C348 1.379 . S
C353 N351 1.356 . S
N354 C346 1.356 . S
N354 H360 0.984 . S
N354 H361 0.984 . S
N355 C348 1.356 . S
N355 H358 0.984 . S
N355 H359 0.985 . S
H356 N351 0.984 . S
H357 N351 0.985 . S
H358 N355 0.984 . S
H359 N355 0.985 . S
H360 N354 0.984 . S
H361 N354 0.984 . S
H362 N350 0.984 . S
H363 N350 0.985 . S
C364 C365 1.363 . S
C364 C370 1.379 . S
C364 N372 1.356 . S
C365 C364 1.363 . S
C365 C371 1.363 . S
C366 C367 1.363 . S
C366 C371 1.379 . S
C366 N373 1.356 . S
C367 C366 1.363 . S
C367 C370 1.363 . S
N368 C370 1.356 . S
N368 H380 0.984 . S
N368 H381 0.985 . S
N369 C371 1.356 . S
N369 H374 0.984 . S
N369 H375 0.985 . S
C370 C364 1.379 . S
C370 C367 1.363 . S
C370 N368 1.356 . S
C371 C365 1.363 . S
C371 C366 1.379 . S
C371 N369 1.356 . S
N372 C364 1.356 . S
N372 H378 0.984 . S
N372 H379 0.984 . S
N373 C366 1.356 . S
N373 H376 0.984 1_556 S
N373 H377 0.985 1_556 S
H374 N369 0.984 . S
H375 N369 0.985 . S
H376 N373 0.984 1_554 S
H377 N373 0.985 1_554 S
H378 N372 0.984 . S
H379 N372 0.984 . S
H380 N368 0.984 . S
H381 N368 0.985 . S
C382 C383 1.363 . S
C382 C388 1.379 . S
C382 N390 1.356 . S
C383 C382 1.363 . S
C383 C389 1.363 . S
C384 C385 1.363 . S
C384 C389 1.379 . S
C384 N391 1.356 . S
C385 C384 1.363 . S
C385 C388 1.363 . S
N386 C388 1.356 . S
N386 H398 0.984 . S
N386 H399 0.985 . S
N387 C389 1.356 . S
N387 H392 0.984 . S
N387 H393 0.985 . S
C388 C382 1.379 . S
C388 C385 1.363 . S
C388 N386 1.356 . S
C389 C383 1.363 . S
C389 C384 1.379 . S
C389 N387 1.356 . S
N390 C382 1.356 . S
N390 H396 0.984 . S
N390 H397 0.984 . S
N391 C384 1.356 . S
N391 H394 0.984 . S
N391 H395 0.985 . S
H392 N387 0.984 . S
H393 N387 0.985 . S
H394 N391 0.984 . S
H395 N391 0.985 . S
H396 N390 0.984 . S
H397 N390 0.984 . S
H398 N386 0.984 . S
H399 N386 0.985 . S
C400 C401 1.363 . S
C400 C406 1.379 . S
C400 N408 1.356 . S
C401 C400 1.363 . S
C401 C407 1.363 . S
C402 C403 1.363 . S
C402 C407 1.379 . S
C402 N409 1.356 . S
C403 C402 1.363 . S
C403 C406 1.363 . S
N404 C406 1.356 . S
N404 H416 0.984 . S
N404 H417 0.985 . S
N405 C407 1.356 . S
N405 H410 0.984 . S
N405 H411 0.985 . S
C406 C400 1.379 . S
C406 C403 1.363 . S
C406 N404 1.356 . S
C407 C401 1.363 . S
C407 C402 1.379 . S
C407 N405 1.356 . S
N408 C400 1.356 . S
N408 H414 0.984 . S
N408 H415 0.984 . S
N409 C402 1.356 . S
N409 H412 0.983 1_554 S
N409 H413 0.985 1_554 S
H410 N405 0.984 . S
H411 N405 0.985 . S
H412 N409 0.983 1_556 S
H413 N409 0.985 1_556 S
H414 N408 0.984 . S
H415 N408 0.984 . S
H416 N404 0.984 . S
H417 N404 0.985 . S
C418 C419 1.363 . S
C418 C424 1.379 . S
C418 N426 1.356 . S
C419 C418 1.363 . S
C419 C425 1.363 . S
C420 C421 1.363 . S
C420 C425 1.379 . S
C420 N427 1.356 . S
C421 C420 1.363 . S
C421 C424 1.363 . S
N422 C424 1.356 . S
N422 H434 0.984 . S
N422 H435 0.985 . S
N423 C425 1.356 . S
N423 H428 0.984 . S
N423 H429 0.985 . S
C424 C418 1.379 . S
C424 C421 1.363 . S
C424 N422 1.356 . S
C425 C419 1.363 . S
C425 C420 1.379 . S
C425 N423 1.356 . S
N426 C418 1.356 . S
N426 H432 0.984 . S
N426 H433 0.984 . S
N427 C420 1.356 . S
N427 H430 0.984 . S
N427 H431 0.985 1_556 S
H428 N423 0.984 . S
H429 N423 0.985 . S
H430 N427 0.984 . S
H431 N427 0.985 1_554 S
H432 N426 0.984 . S
H433 N426 0.984 . S
H434 N422 0.984 . S
H435 N422 0.985 . S
C436 C437 1.363 . S
C436 C442 1.379 . S
C436 N444 1.356 . S
C437 C436 1.363 . S
C437 C443 1.363 . S
C438 C439 1.363 . S
C438 C443 1.379 . S
C438 N445 1.356 1_655 S
C439 C438 1.363 . S
C439 C442 1.363 . S
N440 C442 1.356 . S
N440 H452 0.984 . S
N440 H453 0.985 . S
N441 C443 1.356 . S
N441 H446 0.984 . S
N441 H447 0.985 . S
C442 C436 1.379 . S
C442 C439 1.363 . S
C442 N440 1.356 . S
C443 C437 1.363 . S
C443 C438 1.379 . S
C443 N441 1.356 . S
N444 C436 1.356 . S
N444 H450 0.984 . S
N444 H451 0.984 . S
N445 C438 1.356 1_455 S
N445 H448 0.984 . S
N445 H449 0.985 . S
H446 N441 0.984 . S
H447 N441 0.985 . S
H448 N445 0.984 . S
H449 N445 0.985 . S
H450 N444 0.984 . S
H451 N444 0.984 . S
H452 N440 0.984 . S
H453 N440 0.985 . S
C454 C455 1.363 . S
C454 C460 1.379 . S
C454 N462 1.356 . S
C455 C454 1.363 . S
C455 C461 1.363 . S
C456 C457 1.363 . S
C456 C461 1.379 . S
C456 N463 1.356 . S
C457 C456 1.363 . S
C457 C460 1.363 . S
N458 C460 1.356 . S
N458 H470 0.984 . S
N458 H471 0.985 . S
N459 C461 1.356 . S
N459 H464 0.984 . S
N459 H465 0.985 . S
C460 C454 1.379 . S
C460 C457 1.363 . S
C460 N458 1.356 . S
C461 C455 1.363 . S
C461 C456 1.379 . S
C461 N459 1.356 . S
N462 C454 1.356 . S
N462 H468 0.984 . S
N462 H469 0.984 . S
N463 C456 1.356 . S
N463 H466 0.984 . S
N463 H467 0.985 . S
H464 N459 0.984 . S
H465 N459 0.985 . S
H466 N463 0.984 . S
H467 N463 0.985 . S
H468 N462 0.984 . S
H469 N462 0.984 . S
H470 N458 0.984 . S
H471 N458 0.985 . S
C472 C473 1.363 . S
C472 C478 1.379 . S
C472 N480 1.356 . S
C473 C472 1.363 . S
C473 C479 1.363 . S
C474 C475 1.363 . S
C474 C479 1.379 . S
C474 N481 1.356 . S
C475 C474 1.363 . S
C475 C478 1.363 . S
N476 C478 1.356 . S
N476 H488 0.984 . S
N476 H489 0.985 . S
N477 C479 1.356 . S
N477 H482 0.984 . S
N477 H483 0.985 . S
C478 C472 1.379 . S
C478 C475 1.363 . S
C478 N476 1.356 . S
C479 C473 1.363 . S
C479 C474 1.379 . S
C479 N477 1.356 . S
N480 C472 1.356 . S
N480 H486 0.984 . S
N480 H487 0.984 . S
N481 C474 1.356 . S
N481 H484 0.984 . S
N481 H485 0.985 . S
H482 N477 0.984 . S
H483 N477 0.985 . S
H484 N481 0.984 . S
H485 N481 0.985 . S
H486 N480 0.984 . S
H487 N480 0.984 . S
H488 N476 0.984 . S
H489 N476 0.985 . S
C490 C491 1.363 . S
C490 C496 1.379 . S
C490 N498 1.356 . S
C491 C490 1.363 . S
C491 C497 1.363 . S
C492 C493 1.363 . S
C492 C497 1.379 . S
C492 N499 1.356 . S
C493 C492 1.363 . S
C493 C496 1.363 . S
N494 C496 1.356 . S
N494 H506 0.984 . S
N494 H507 0.985 . S
N495 C497 1.356 . S
N495 H500 0.984 . S
N495 H501 0.985 . S
C496 C490 1.379 . S
C496 C493 1.363 . S
C496 N494 1.356 . S
C497 C491 1.363 . S
C497 C492 1.379 . S
C497 N495 1.356 . S
N498 C490 1.356 . S
N498 H504 0.984 . S
N498 H505 0.984 . S
N499 C492 1.356 . S
N499 H502 0.984 . S
N499 H503 0.985 . S
H500 N495 0.984 . S
H501 N495 0.985 . S
H502 N499 0.984 . S
H503 N499 0.985 . S
H504 N498 0.984 . S
H505 N498 0.984 . S
H506 N494 0.984 . S
H507 N494 0.985 . S
C508 C509 1.363 . S
C508 C514 1.379 . S
C508 N516 1.356 . S
C509 C508 1.363 . S
C509 C515 1.363 . S
C510 C511 1.363 . S
C510 C515 1.379 . S
C510 N517 1.356 . S
C511 C510 1.363 . S
C511 C514 1.363 . S
N512 C514 1.356 . S
N512 H524 0.984 . S
N512 H525 0.985 . S
N513 C515 1.356 . S
N513 H518 0.984 . S
N513 H519 0.985 . S
C514 C508 1.379 . S
C514 C511 1.363 . S
C514 N512 1.356 . S
C515 C509 1.363 . S
C515 C510 1.379 . S
C515 N513 1.356 . S
N516 C508 1.356 . S
N516 H522 0.984 . S
N516 H523 0.984 . S
N517 C510 1.356 . S
N517 H520 0.984 . S
N517 H521 0.985 . S
H518 N513 0.984 . S
H519 N513 0.985 . S
H520 N517 0.984 . S
H521 N517 0.985 . S
H522 N516 0.984 . S
H523 N516 0.984 . S
H524 N512 0.984 . S
H525 N512 0.985 . S
C526 C527 1.363 . S
C526 C532 1.379 . S
C526 N534 1.356 . S
C527 C526 1.363 . S
C527 C533 1.363 . S
C528 C529 1.363 . S
C528 C533 1.379 . S
C528 N535 1.356 . S
C529 C528 1.363 . S
C529 C532 1.363 . S
N530 C532 1.356 . S
N530 H542 0.984 . S
N530 H543 0.985 . S
N531 C533 1.356 . S
N531 H536 0.984 . S
N531 H537 0.985 . S
C532 C526 1.379 . S
C532 C529 1.363 . S
C532 N530 1.356 . S
C533 C527 1.363 . S
C533 C528 1.379 . S
C533 N531 1.356 . S
N534 C526 1.356 . S
N534 H540 0.984 . S
N534 H541 0.984 . S
N535 C528 1.356 . S
N535 H538 0.984 . S
N535 H539 0.985 . S
H536 N531 0.984 . S
H537 N531 0.985 . S
H538 N535 0.984 . S
H539 N535 0.985 . S
H540 N534 0.984 . S
H541 N534 0.984 . S
H542 N530 0.984 . S
H543 N530 0.985 . S
C544 C545 1.363 . S
C544 C550 1.379 . S
C544 N552 1.356 . S
C545 C544 1.363 . S
C545 C551 1.363 . S
C546 C547 1.363 . S
C546 C551 1.379 . S
C546 N553 1.356 . S
C547 C546 1.363 . S
C547 C550 1.363 . S
N548 C550 1.356 . S
N548 H560 0.984 . S
N548 H561 0.985 . S
N549 C551 1.356 . S
N549 H554 0.984 . S
N549 H555 0.985 . S
C550 C544 1.379 . S
C550 C547 1.363 . S
C550 N548 1.356 . S
C551 C545 1.363 . S
C551 C546 1.379 . S
C551 N549 1.356 . S
N552 C544 1.356 . S
N552 H558 0.984 . S
N552 H559 0.984 . S
N553 C546 1.356 . S
N553 H556 0.984 . S
N553 H557 0.985 1_556 S
H554 N549 0.984 . S
H555 N549 0.985 . S
H556 N553 0.984 . S
H557 N553 0.985 1_554 S
H558 N552 0.984 . S
H559 N552 0.984 . S
H560 N548 0.984 . S
H561 N548 0.985 . S
C562 C563 1.363 . S
C562 C568 1.379 . S
C562 N570 1.356 . S
C563 C562 1.363 . S
C563 C569 1.363 1_455 S
C564 C565 1.363 . S
C564 C569 1.379 . S
C564 N571 1.356 . S
C565 C564 1.363 . S
C565 C568 1.363 1_655 S
N566 C568 1.356 . S
N566 H578 0.984 . S
N566 H579 0.985 . S
N567 C569 1.356 . S
N567 H572 0.984 . S
N567 H573 0.985 . S
C568 C562 1.379 . S
C568 C565 1.363 1_455 S
C568 N566 1.356 . S
C569 C563 1.363 1_655 S
C569 C564 1.379 . S
C569 N567 1.356 . S
N570 C562 1.356 . S
N570 H576 0.984 . S
N570 H577 0.984 . S
N571 C564 1.356 . S
N571 H574 0.984 . S
N571 H575 0.985 . S
H572 N567 0.984 . S
H573 N567 0.985 . S
H574 N571 0.984 . S
H575 N571 0.985 . S
H576 N570 0.984 . S
H577 N570 0.984 . S
H578 N566 0.984 . S
H579 N566 0.985 . S
C580 C581 1.363 . S
C580 C586 1.379 . S
C580 N588 1.356 . S
C581 C580 1.363 . S
C581 C587 1.363 . S
C582 C583 1.363 . S
C582 C587 1.379 . S
C582 N589 1.356 . S
C583 C582 1.363 . S
C583 C586 1.363 . S
N584 C586 1.356 . S
N584 H596 0.984 . S
N584 H597 0.985 . S
N585 C587 1.356 . S
N585 H590 0.984 . S
N585 H591 0.985 . S
C586 C580 1.379 . S
C586 C583 1.363 . S
C586 N584 1.356 . S
C587 C581 1.363 . S
C587 C582 1.379 . S
C587 N585 1.356 . S
N588 C580 1.356 . S
N588 H594 0.984 . S
N588 H595 0.984 . S
N589 C582 1.356 . S
N589 H592 0.984 . S
N589 H593 0.985 . S
H590 N585 0.984 . S
H591 N585 0.985 . S
H592 N589 0.984 . S
H593 N589 0.985 . S
H594 N588 0.984 . S
H595 N588 0.984 . S
H596 N584 0.984 . S
H597 N584 0.985 . S
C598 C599 1.363 . S
C598 C604 1.379 . S
C598 N606 1.356 . S
C599 C598 1.363 . S
C599 C605 1.363 . S
C600 C601 1.363 . S
C600 C605 1.379 . S
C600 N607 1.356 . S
C601 C600 1.363 . S
C601 C604 1.363 . S
N602 C604 1.356 . S
N602 H614 0.984 . S
N602 H615 0.985 . S
N603 C605 1.356 . S
N603 H608 0.984 . S
N603 H609 0.985 . S
C604 C598 1.379 . S
C604 C601 1.363 . S
C604 N602 1.356 . S
C605 C599 1.363 . S
C605 C600 1.379 . S
C605 N603 1.356 . S
N606 C598 1.356 . S
N606 H612 0.984 . S
N606 H613 0.984 . S
N607 C600 1.356 . S
N607 H610 0.984 . S
N607 H611 0.985 . S
H608 N603 0.984 . S
H609 N603 0.985 . S
H610 N607 0.984 . S
H611 N607 0.985 . S
H612 N606 0.984 . S
H613 N606 0.984 . S
H614 N602 0.984 . S
H615 N602 0.985 . S
C616 C617 1.363 . S
C616 C622 1.379 . S
C616 N624 1.356 . S
C617 C616 1.363 . S
C617 C623 1.363 . S
C618 C619 1.363 . S
C618 C623 1.379 . S
C618 N625 1.356 1_556 S
C619 C618 1.363 . S
C619 C622 1.363 . S
N620 C622 1.356 . S
N620 H632 0.984 . S
N620 H633 0.985 . S
N621 C623 1.356 . S
N621 H626 0.984 . S
N621 H627 0.959 1_556 S
C622 C616 1.379 . S
C622 C619 1.363 . S
C622 N620 1.356 . S
C623 C617 1.363 . S
C623 C618 1.379 . S
C623 N621 1.356 . S
N624 C616 1.356 . S
N624 H630 0.984 . S
N624 H631 0.984 . S
N625 C618 1.356 1_554 S
N625 H628 0.984 . S
N625 H629 0.985 . S
H626 N621 0.984 . S
H627 N621 0.959 1_554 S
H628 N625 0.984 . S
H629 N625 0.985 . S
H630 N624 0.984 . S
H631 N624 0.984 . S
H632 N620 0.984 . S
H633 N620 0.985 . S
C634 C635 1.363 . S
C634 C640 1.379 . S
C634 N642 1.356 . S
C635 C634 1.363 . S
C635 C641 1.363 . S
C636 C637 1.363 . S
C636 C641 1.379 . S
C636 N643 1.356 . S
C637 C636 1.363 . S
C637 C640 1.363 . S
N638 C640 1.356 . S
N638 H650 0.984 . S
N638 H651 0.985 . S
N639 C641 1.356 . S
N639 H644 0.984 . S
N639 H645 0.985 . S
C640 C634 1.379 . S
C640 C637 1.363 . S
C640 N638 1.356 . S
C641 C635 1.363 . S
C641 C636 1.379 . S
C641 N639 1.356 . S
N642 C634 1.356 . S
N642 H648 0.984 . S
N642 H649 0.984 . S
N643 C636 1.356 . S
N643 H646 0.984 . S
N643 H647 0.985 . S
H644 N639 0.984 . S
H645 N639 0.985 . S
H646 N643 0.984 . S
H647 N643 0.985 . S
H648 N642 0.984 . S
H649 N642 0.984 . S
H650 N638 0.984 . S
H651 N638 0.985 . S
C652 C653 1.363 . S
C652 C658 1.379 . S
C652 N660 1.356 . S
C653 C652 1.363 . S
C653 C659 1.363 . S
C654 C655 1.363 . S
C654 C659 1.379 . S
C654 N661 1.356 . S
C655 C654 1.363 . S
C655 C658 1.363 . S
N656 C658 1.356 . S
N656 H668 0.984 . S
N656 H669 0.985 . S
N657 C659 1.356 . S
N657 H662 0.984 . S
N657 H663 0.985 . S
C658 C652 1.379 . S
C658 C655 1.363 . S
C658 N656 1.356 . S
C659 C653 1.363 . S
C659 C654 1.379 . S
C659 N657 1.356 . S
N660 C652 1.356 . S
N660 H666 0.984 . S
N660 H667 0.984 . S
N661 C654 1.356 . S
N661 H664 0.984 . S
N661 H665 0.985 1_455 S
H662 N657 0.984 . S
H663 N657 0.985 . S
H664 N661 0.984 . S
H665 N661 0.985 1_655 S
H666 N660 0.984 . S
H667 N660 0.984 . S
H668 N656 0.984 . S
H669 N656 0.985 . S
C670 C671 1.363 . S
C670 C676 1.379 . S
C670 N678 1.356 . S
C671 C670 1.363 . S
C671 C677 1.363 . S
C672 C673 1.363 . S
C672 C677 1.379 . S
C672 N679 1.356 . S
C673 C672 1.363 . S
C673 C676 1.363 . S
N674 C676 1.356 . S
N674 H686 0.984 . S
N674 H687 0.985 . S
N675 C677 1.356 . S
N675 H680 0.984 . S
N675 H681 0.985 . S
C676 C670 1.379 . S
C676 C673 1.363 . S
C676 N674 1.356 . S
C677 C671 1.363 . S
C677 C672 1.379 . S
C677 N675 1.356 . S
N678 C670 1.356 . S
N678 H684 0.984 . S
N678 H685 0.984 . S
N679 C672 1.356 . S
N679 H682 0.984 . S
N679 H683 0.985 . S
H680 N675 0.984 . S
H681 N675 0.985 . S
H682 N679 0.984 . S
H683 N679 0.985 . S
H684 N678 0.984 . S
H685 N678 0.984 . S
H686 N674 0.984 . S
H687 N674 0.985 . S
C257 C6 1.249 . S
C259 C111 1.281 . S
C275 C18 1.247 . S
C277 C151 1.269 . S
C295 C185 2.517 . S
C293 C28 2.538 . S
C311 C40 2.171 . S
C313 C226 2.098 . S
C331 C146 1.527 . S
C329 C9 1.426 . S
C349 C106 2.088 . S
C347 C16 1.897 . S
C367 C234 1.734 . S
C365 C30 1.731 . S
C385 C195 1.589 . S
C383 C42 1.657 . S
C401 C4 1.647 . S
C403 C231 1.630 . S
C421 C154 2.257 . S
C419 C33 2.321 . S
C437 C45 2.145 . S
C439 C114 2.084 . S
C455 C21 1.657 . S
C457 C182 1.748 . S
C475 C102 1.308 . S
C473 C57 1.312 . S
C491 C66 1.220 . S
C493 C142 1.267 . S
C509 C76 2.586 . S
C511 C194 2.570 . S
C527 C88 2.074 . S
C529 C235 2.027 . S
C545 C54 1.455 . S
C547 C155 1.553 . S
C565 C115 2.170 . S
C563 C64 2.027 . S
C583 C225 1.687 . S
C581 C78 1.677 . S
C601 C186 1.660 . S
C599 C93 1.725 . S
C617 C52 1.702 . S
C619 C222 1.721 . S
C637 C145 2.247 . S
C635 C81 2.316 . S
C655 C105 2.053 . S
C653 C90 2.117 . S
C671 C69 1.651 . S
C673 C191 1.765 . S
