# Generated by pormake.
# Topology pyr, (3,6)-cn, num edge types: 1
# Building blocks:
#     Node 0, Type 0, BuildingBlock: MIDCAF_clean_linker_0, # of connection points: 3
#     Node 1, Type 0, BuildingBlock: MIDCAF_clean_linker_0, # of connection points: 3
#     Node 2, Type 0, BuildingBlock: MIDCAF_clean_linker_0, # of connection points: 3
#     Node 3, Type 0, BuildingBlock: MIDCAF_clean_linker_0, # of connection points: 3
#     Node 4, Type 0, BuildingBlock: MIDCAF_clean_linker_0, # of connection points: 3
#     Node 5, Type 0, BuildingBlock: MIDCAF_clean_linker_0, # of connection points: 3
#     Node 6, Type 0, BuildingBlock: MIDCAF_clean_linker_0, # of connection points: 3
#     Node 7, Type 0, BuildingBlock: MIDCAF_clean_linker_0, # of connection points: 3
#     Node 8, Type 1, BuildingBlock: MIDCAF_clean_sbu_0, # of connection points: 6
#     Node 9, Type 1, BuildingBlock: MIDCAF_clean_sbu_0, # of connection points: 6
#     Node 10, Type 1, BuildingBlock: MIDCAF_clean_sbu_0, # of connection points: 6
#     Node 11, Type 1, BuildingBlock: MIDCAF_clean_sbu_0, # of connection points: 6
#     Edge 12, Type (0, 1), BuildingBlock: AJUNOK_clean_linker_0, # of connection points: 2
#     Edge 13, Type (0, 1), BuildingBlock: AJUNOK_clean_linker_0, # of connection points: 2
#     Edge 14, Type (0, 1), BuildingBlock: AJUNOK_clean_linker_0, # of connection points: 2
#     Edge 15, Type (0, 1), BuildingBlock: AJUNOK_clean_linker_0, # of connection points: 2
#     Edge 16, Type (0, 1), BuildingBlock: AJUNOK_clean_linker_0, # of connection points: 2
#     Edge 17, Type (0, 1), BuildingBlock: AJUNOK_clean_linker_0, # of connection points: 2
#     Edge 18, Type (0, 1), BuildingBlock: AJUNOK_clean_linker_0, # of connection points: 2
#     Edge 19, Type (0, 1), BuildingBlock: AJUNOK_clean_linker_0, # of connection points: 2
#     Edge 20, Type (0, 1), BuildingBlock: AJUNOK_clean_linker_0, # of connection points: 2
#     Edge 21, Type (0, 1), BuildingBlock: AJUNOK_clean_linker_0, # of connection points: 2
#     Edge 22, Type (0, 1), BuildingBlock: AJUNOK_clean_linker_0, # of connection points: 2
#     Edge 23, Type (0, 1), BuildingBlock: AJUNOK_clean_linker_0, # of connection points: 2
#     Edge 24, Type (0, 1), BuildingBlock: AJUNOK_clean_linker_0, # of connection points: 2
#     Edge 25, Type (0, 1), BuildingBlock: AJUNOK_clean_linker_0, # of connection points: 2
#     Edge 26, Type (0, 1), BuildingBlock: AJUNOK_clean_linker_0, # of connection points: 2
#     Edge 27, Type (0, 1), BuildingBlock: AJUNOK_clean_linker_0, # of connection points: 2
#     Edge 28, Type (0, 1), BuildingBlock: AJUNOK_clean_linker_0, # of connection points: 2
#     Edge 29, Type (0, 1), BuildingBlock: AJUNOK_clean_linker_0, # of connection points: 2
#     Edge 30, Type (0, 1), BuildingBlock: AJUNOK_clean_linker_0, # of connection points: 2
#     Edge 31, Type (0, 1), BuildingBlock: AJUNOK_clean_linker_0, # of connection points: 2
#     Edge 32, Type (0, 1), BuildingBlock: AJUNOK_clean_linker_0, # of connection points: 2
#     Edge 33, Type (0, 1), BuildingBlock: AJUNOK_clean_linker_0, # of connection points: 2
#     Edge 34, Type (0, 1), BuildingBlock: AJUNOK_clean_linker_0, # of connection points: 2
#     Edge 35, Type (0, 1), BuildingBlock: AJUNOK_clean_linker_0, # of connection points: 2
# Relax obj value: 0.019
# Max RMSD: 0.063
# Mean RMSD: 0.023
data_MOF--net-pry--node1-MIDCAF_clean_sbu_0--node2-MIDCAF_clean_linker_0--edge1-AJUNOK_clean_linker_0
_symmetry_space_group_name_H-M    P1
_symmetry_Int_Tables_number       1
_symmetry_cell_setting            triclinic
loop_
_symmetry_equiv_pos_as_xyz
'x, y, z'
_cell_length_a     34.097767
_cell_length_b     34.163775
_cell_length_c     34.134848
_cell_angle_alpha  89.925116
_cell_angle_beta   90.129831
_cell_angle_gamma 90.221617
loop_
_atom_site_label
_atom_site_type_symbol
_atom_site_fract_x
_atom_site_fract_y
_atom_site_fract_z
_atom_type_partial_charge
C0 C 0.15929 0.20954 0.36369 0.0
C1 C 0.16729 0.16964 0.36987 0.0
C2 C 0.19493 0.15125 0.34558 0.0
C3 C 0.21369 0.17189 0.31565 0.0
H4 H 0.31572 0.17137 0.24711 0.0
H5 H 0.36343 0.13583 0.20717 0.0
H6 H 0.34642 0.21821 0.11298 0.0
H7 H 0.29922 0.2541 0.15246 0.0
H8 H 0.25441 0.33913 0.17978 0.0
H9 H 0.22044 0.39265 0.14665 0.0
H10 H 0.11243 0.35854 0.20344 0.0
H11 H 0.1467 0.30671 0.23802 0.0
H12 H 0.17058 0.26073 0.32897 0.0
H13 H 0.13888 0.22489 0.38238 0.0
H14 H 0.20149 0.12044 0.34909 0.0
H15 H 0.23429 0.15638 0.29728 0.0
N16 N 0.25505 0.21681 0.25686 0.0
N17 N 0.25449 0.26801 0.21111 0.0
N18 N 0.20726 0.26587 0.26097 0.0
C19 C 0.27089 0.23448 0.22486 0.0
C20 C 0.22279 0.28395 0.22898 0.0
C21 C 0.2234 0.2324 0.27525 0.0
C22 C 0.30321 0.21544 0.20291 0.0
C23 C 0.32252 0.1823 0.21811 0.0
C24 C 0.34996 0.16202 0.19543 0.0
C25 C 0.35821 0.17427 0.15708 0.0
C26 C 0.3403 0.2082 0.14248 0.0
C27 C 0.31328 0.2287 0.16519 0.0
C28 C 0.20322 0.31849 0.21141 0.0
C29 C 0.22348 0.34338 0.18547 0.0
C30 C 0.20393 0.37385 0.16619 0.0
C31 C 0.1635 0.37954 0.17175 0.0
C32 C 0.14364 0.35532 0.19864 0.0
C33 C 0.16329 0.32541 0.21843 0.0
C34 C 0.205 0.21147 0.30872 0.0
C35 C 0.17771 0.23015 0.33324 0.0
C36 C 0.20055 0.89054 0.69577 0.0
C37 C 0.16822 0.87107 0.67883 0.0
C38 C 0.16547 0.8301 0.68332 0.0
C39 C 0.19506 0.80911 0.7025 0.0
H40 H 0.28148 0.72187 0.66306 0.0
H41 H 0.31393 0.67075 0.62508 0.0
H42 H 0.40536 0.66412 0.71245 0.0
H43 H 0.3729 0.71424 0.75077 0.0
H44 H 0.39113 0.81484 0.78751 0.0
H45 H 0.4263 0.85179 0.83747 0.0
H46 H 0.31824 0.86619 0.90192 0.0
H47 H 0.28272 0.83219 0.84976 0.0
H48 H 0.25433 0.88549 0.72789 0.0
H49 H 0.20489 0.92166 0.69174 0.0
H50 H 0.14092 0.81405 0.67105 0.0
H51 H 0.19282 0.77752 0.70432 0.0
N52 N 0.27449 0.77428 0.71796 0.0
N53 N 0.32654 0.77155 0.763 0.0
N54 N 0.27962 0.82132 0.76788 0.0
C55 C 0.30756 0.7564 0.73131 0.0
C56 C 0.31243 0.80358 0.78168 0.0
C57 C 0.26047 0.8068 0.73609 0.0
C58 C 0.32475 0.72269 0.70985 0.0
C59 C 0.30825 0.70921 0.67445 0.0
C60 C 0.32691 0.68004 0.65255 0.0
C61 C 0.36245 0.66376 0.66554 0.0
C62 C 0.3779 0.67592 0.70173 0.0
C63 C 0.35935 0.70496 0.72358 0.0
C64 C 0.33426 0.82098 0.81476 0.0
C65 C 0.37512 0.82546 0.81271 0.0
C66 C 0.39535 0.84623 0.84175 0.0
C67 C 0.37534 0.86173 0.87427 0.0
C68 C 0.33463 0.85513 0.87718 0.0
C69 C 0.31424 0.83556 0.84743 0.0
C70 C 0.2274 0.82873 0.71878 0.0
C71 C 0.22935 0.86969 0.71611 0.0
C72 C 0.70511 0.17874 0.87752 0.0
C73 C 0.66454 0.17412 0.87153 0.0
C74 C 0.64549 0.19927 0.84501 0.0
C75 C 0.66624 0.22846 0.82524 0.0
H76 H 0.65197 0.32312 0.74982 0.0
H77 H 0.62003 0.36443 0.70119 0.0
H78 H 0.73313 0.3943 0.65241 0.0
H79 H 0.76518 0.35496 0.70287 0.0
H80 H 0.83587 0.36007 0.77665 0.0
H81 H 0.89027 0.39299 0.80998 0.0
H82 H 0.86083 0.33207 0.91703 0.0
H83 H 0.80822 0.29791 0.8835 0.0
H84 H 0.75704 0.21144 0.86354 0.0
H85 H 0.72086 0.15935 0.89707 0.0
H86 H 0.61418 0.19692 0.84006 0.0
H87 H 0.65032 0.24749 0.80546 0.0
N88 N 0.71168 0.28435 0.78053 0.0
N89 N 0.76547 0.32723 0.77715 0.0
N90 N 0.7629 0.27897 0.82609 0.0
C91 C 0.7304 0.31471 0.76279 0.0
C92 C 0.78184 0.30962 0.80894 0.0
C93 C 0.72797 0.26596 0.81188 0.0
C94 C 0.71111 0.33624 0.73047 0.0
C95 C 0.67001 0.33835 0.72857 0.0
C96 C 0.65168 0.36194 0.70056 0.0
C97 C 0.674 0.38343 0.67333 0.0
C98 C 0.71507 0.37938 0.67383 0.0
C99 C 0.73345 0.35655 0.70249 0.0
C100 C 0.81746 0.32653 0.82745 0.0
C101 C 0.84142 0.35335 0.80717 0.0
C102 C 0.87238 0.37249 0.82636 0.0
C103 C 0.87953 0.36577 0.8664 0.0
C104 C 0.85647 0.33779 0.88611 0.0
C105 C 0.82607 0.31824 0.86685 0.0
C106 C 0.7066 0.23369 0.83179 0.0
C107 C 0.72587 0.20843 0.85808 0.0
C108 C 0.69066 0.70074 0.38954 0.0
C109 C 0.6673 0.67189 0.37147 0.0
C110 C 0.67593 0.66107 0.33272 0.0
C111 C 0.70726 0.67859 0.31265 0.0
H112 H 0.79577 0.64949 0.2322 0.0
H113 H 0.82734 0.61513 0.17878 0.0
H114 H 0.89587 0.71833 0.15207 0.0
H115 H 0.86545 0.75238 0.20705 0.0
H116 H 0.89065 0.79742 0.28987 0.0
H117 H 0.93116 0.84446 0.32533 0.0
H118 H 0.83794 0.86259 0.40836 0.0
H119 H 0.79694 0.81514 0.37316 0.0
H120 H 0.73916 0.74017 0.38469 0.0
H121 H 0.68579 0.70889 0.41979 0.0
H122 H 0.65858 0.63888 0.318 0.0
H123 H 0.71328 0.66931 0.28295 0.0
N124 N 0.77896 0.70856 0.27695 0.0
N125 N 0.83077 0.75392 0.27577 0.0
N126 N 0.78485 0.7555 0.32675 0.0
C127 C 0.81163 0.72311 0.25925 0.0
C128 C 0.81759 0.77037 0.30949 0.0
C129 C 0.76522 0.72471 0.31061 0.0
C130 C 0.82805 0.70372 0.22403 0.0
C131 C 0.81711 0.66516 0.21465 0.0
C132 C 0.83501 0.64552 0.18364 0.0
C133 C 0.86371 0.66416 0.16055 0.0
C134 C 0.87393 0.7031 0.16927 0.0
C135 C 0.85642 0.72261 0.20074 0.0
C136 C 0.84056 0.80204 0.32883 0.0
C137 C 0.8784 0.8116 0.3154 0.0
C138 C 0.90172 0.8385 0.3357 0.0
C139 C 0.88771 0.85675 0.36968 0.0
C140 C 0.84932 0.84882 0.38219 0.0
C141 C 0.82601 0.82153 0.36209 0.0
C142 C 0.73067 0.70739 0.33087 0.0
C143 C 0.72164 0.71848 0.36945 0.0
C144 C 0.7853 0.00236 0.92409 0.0
C145 C 0.7666 0.99166 0.9591 0.0
C146 C 0.78328 0.96221 0.98252 0.0
C147 C 0.81748 0.94326 0.97093 0.0
H148 H 0.87791 0.83924 0.98926 0.0
H149 H 0.89888 0.7785 0.02122 0.0
H150 H 0.00435 0.77897 0.95153 0.0
H151 H 0.98405 0.83927 0.92006 0.0
H152 H 0.98223 0.88552 0.83822 0.0
H153 H 0.01442 0.90591 0.77736 0.0
H154 H 0.94344 0.01019 0.77482 0.0
H155 H 0.91167 0.99048 0.83526 0.0
H156 H 0.83331 0.99213 0.88513 0.0
H157 H 0.77322 0.02518 0.90566 0.0
H158 H 0.76925 0.95306 0.00949 0.0
H159 H 0.82908 0.92038 0.98959 0.0
N160 N 0.884 0.89981 0.94268 0.0
N161 N 0.93551 0.89182 0.89804 0.0
N162 N 0.89138 0.94365 0.89028 0.0
C163 C 0.91604 0.87964 0.93058 0.0
C164 C 0.92343 0.92378 0.87774 0.0
C165 C 0.87152 0.93194 0.92272 0.0
C166 C 0.92916 0.84409 0.95184 0.0
C167 C 0.90575 0.82655 0.98102 0.0
C168 C 0.9176 0.79173 0.99925 0.0
C169 C 0.95319 0.77406 0.98883 0.0
C170 C 0.97694 0.79216 0.96047 0.0
C171 C 0.9651 0.82663 0.94218 0.0
C172 C 0.94432 0.93639 0.84176 0.0
C173 C 0.97378 0.91302 0.8249 0.0
C174 C 0.99222 0.92456 0.79008 0.0
C175 C 0.98191 0.9599 0.77183 0.0
C176 C 0.95271 0.98327 0.7888 0.0
C177 C 0.93421 0.97173 0.82332 0.0
C178 C 0.83603 0.95336 0.93561 0.0
C179 C 0.81978 0.98348 0.91249 0.0
C180 C 0.57576 0.07072 0.28752 0.0
C181 C 0.55317 0.09902 0.26805 0.0
C182 C 0.55024 0.13667 0.28412 0.0
C183 C 0.57026 0.14603 0.31877 0.0
H184 H 0.56063 0.20874 0.42801 0.0
H185 H 0.54481 0.26879 0.4626 0.0
H186 H 0.66234 0.2742 0.5094 0.0
H187 H 0.6785 0.21338 0.47481 0.0
H188 H 0.70827 0.11286 0.48541 0.0
H189 H 0.76795 0.07749 0.50215 0.0
H190 H 0.77338 0.03084 0.38493 0.0
H191 H 0.71309 0.06599 0.36793 0.0
H192 H 0.61394 0.05782 0.33553 0.0
H193 H 0.57877 0.04155 0.27548 0.0
H194 H 0.53297 0.15895 0.26958 0.0
H195 H 0.568 0.17551 0.33017 0.0
N196 N 0.60864 0.16062 0.39406 0.0
N197 N 0.66198 0.14843 0.43579 0.0
N198 N 0.64907 0.1064 0.38296 0.0
C199 C 0.63065 0.17077 0.42575 0.0
C200 C 0.67133 0.11614 0.41456 0.0
C201 C 0.61761 0.12846 0.37257 0.0
C202 C 0.62084 0.20625 0.44858 0.0
C203 C 0.58311 0.22239 0.4459 0.0
C204 C 0.57391 0.2566 0.46603 0.0
C205 C 0.60222 0.27571 0.48914 0.0
C206 C 0.63996 0.25971 0.49208 0.0
C207 C 0.64908 0.22498 0.47231 0.0
C208 C 0.70606 0.09249 0.42526 0.0
C209 C 0.72188 0.09484 0.46322 0.0
C210 C 0.75585 0.07433 0.47293 0.0
C211 C 0.77507 0.05145 0.44481 0.0
C212 C 0.75898 0.04831 0.40707 0.0
C213 C 0.72453 0.06839 0.39746 0.0
C214 C 0.59405 0.11804 0.33753 0.0
C215 C 0.59616 0.08016 0.32173 0.0
C216 C 0.28731 0.54206 0.11301 0.0
C217 C 0.27108 0.55127 0.07635 0.0
C218 C 0.28984 0.57933 0.05271 0.0
C219 C 0.32389 0.59811 0.0655 0.0
H220 H 0.38517 0.70206 0.04789 0.0
H221 H 0.40612 0.76392 0.01785 0.0
H222 H 0.50255 0.77087 0.09975 0.0
H223 H 0.48256 0.70951 0.12908 0.0
H224 H 0.48528 0.65703 0.20271 0.0
H225 H 0.51684 0.63683 0.26387 0.0
H226 H 0.44357 0.53358 0.26703 0.0
H227 H 0.41236 0.55313 0.20609 0.0
H228 H 0.33329 0.55329 0.1544 0.0
H229 H 0.27319 0.52076 0.13189 0.0
H230 H 0.27745 0.58775 0.02469 0.0
H231 H 0.33716 0.61993 0.04662 0.0
N232 N 0.38764 0.64374 0.09751 0.0
N233 N 0.43785 0.65194 0.14378 0.0
N234 N 0.39427 0.5991 0.14938 0.0
C235 C 0.41904 0.66435 0.11095 0.0
C236 C 0.42578 0.61937 0.16313 0.0
C237 C 0.37509 0.61101 0.11655 0.0
C238 C 0.43207 0.70078 0.09107 0.0
C239 C 0.41102 0.71668 0.05927 0.0
C240 C 0.42282 0.75216 0.04215 0.0
C241 C 0.45591 0.77218 0.05648 0.0
C242 C 0.47718 0.75588 0.08774 0.0
C243 C 0.4655 0.7207 0.10476 0.0
C244 C 0.44609 0.60677 0.19946 0.0
C245 C 0.47602 0.62988 0.21631 0.0
C246 C 0.49405 0.6185 0.2514 0.0
C247 C 0.48261 0.58372 0.27013 0.0
C248 C 0.45324 0.56038 0.25297 0.0
C249 C 0.43517 0.57174 0.21812 0.0
C250 C 0.34008 0.58935 0.10234 0.0
C251 C 0.32169 0.5607 0.12579 0.0
C252 C 0.11197 0.28687 0.54077 0.0
C253 C 0.07552 0.26979 0.54937 0.0
C254 C 0.0507 0.28833 0.57638 0.0
C255 C 0.06209 0.32314 0.59459 0.0
H256 H 0.0464 0.38455 0.70028 0.0
H257 H 0.01503 0.4069 0.76079 0.0
H258 H 0.08089 0.51482 0.75448 0.0
H259 H 0.11189 0.49306 0.69444 0.0
H260 H 0.1952 0.49058 0.64908 0.0
H261 H 0.26099 0.51574 0.63375 0.0
H262 H 0.27031 0.43244 0.53951 0.0
H263 H 0.20524 0.40737 0.55413 0.0
H264 H 0.15175 0.33421 0.5517 0.0
H265 H 0.13172 0.273 0.52026 0.0
H266 H 0.02279 0.27531 0.58428 0.0
H267 H 0.04233 0.33631 0.61554 0.0
N268 N 0.09086 0.3903 0.63797 0.0
N269 N 0.13651 0.44136 0.6456 0.0
N270 N 0.14453 0.39536 0.59547 0.0
C271 C 0.1032 0.42281 0.65746 0.0
C272 C 0.15732 0.42786 0.61458 0.0
C273 C 0.11135 0.37648 0.60678 0.0
C274 C 0.08178 0.43698 0.69246 0.0
C275 C 0.05374 0.4133 0.7115 0.0
C276 C 0.03581 0.42597 0.74615 0.0
C277 C 0.04507 0.46278 0.76196 0.0
C278 C 0.07244 0.48668 0.74248 0.0
C279 C 0.09054 0.47398 0.70821 0.0
C280 C 0.19502 0.44651 0.60319 0.0
C281 C 0.21104 0.47799 0.62473 0.0
C282 C 0.24855 0.49255 0.61598 0.0
C283 C 0.27049 0.47573 0.58572 0.0
C284 C 0.25387 0.44564 0.56318 0.0
C285 C 0.21657 0.43128 0.57167 0.0
C286 C 0.09863 0.3403 0.58624 0.0
C287 C 0.12331 0.32194 0.55879 0.0
Zn288 Zn 0.97045 0.0615 0.56178 0.0
Zn289 Zn 0.07033 0.97965 0.48418 0.0
Zn290 Zn 0.01851 0.02021 0.52332 0.0
C291 C 0.08837 0.05699 0.46881 0.0
C292 C 0.99582 0.95619 0.45718 0.0
O293 O 0.02191 0.00283 0.58646 0.0
O294 O 0.98452 0.04695 0.61532 0.0
C295 C 0.01716 0.11544 0.52583 0.0
O296 O 0.05902 0.06117 0.49221 0.0
O297 O 0.10023 0.02321 0.45994 0.0
O298 O 0.0319 0.94933 0.45277 0.0
O299 O 0.98469 0.98324 0.48103 0.0
O300 O 0.98539 0.11433 0.54457 0.0
O301 O 0.03455 0.08333 0.51638 0.0
O302 O 0.95839 0.01059 0.49865 0.0
O303 O 0.92077 0.04119 0.54146 0.0
C304 C 0.92415 0.02095 0.51086 0.0
O305 O 0.05082 0.98171 0.56598 0.0
O306 O 0.0942 0.95161 0.5286 0.0
C307 C 0.00705 0.01792 0.61771 0.0
C308 C 0.07959 0.95754 0.56197 0.0
Zn309 Zn 0.47626 0.05994 0.97353 0.0
Zn310 Zn 0.56234 0.98251 0.07183 0.0
Zn311 Zn 0.5193 0.02133 0.02435 0.0
C312 C 0.61467 0.01763 0.02218 0.0
C313 C 0.51613 0.92701 0.03696 0.0
O314 O 0.48282 0.06301 0.0589 0.0
O315 O 0.44617 0.08996 0.0127 0.0
C316 C 0.55329 0.0769 0.95446 0.0
O317 O 0.58193 0.02842 0.00658 0.0
O318 O 0.61465 0.99827 0.05364 0.0
O319 O 0.54533 0.92919 0.05955 0.0
O320 O 0.5018 0.9583 0.02135 0.0
O321 O 0.51897 0.08547 0.94362 0.0
O322 O 0.55877 0.05316 0.98336 0.0
O323 O 0.48105 0.97856 0.99203 0.0
O324 O 0.44901 0.01526 0.94924 0.0
C325 C 0.4564 0.982 0.96345 0.0
O326 O 0.51081 0.04566 0.08459 0.0
O327 O 0.54474 0.00456 0.12154 0.0
C328 C 0.45468 0.08598 0.04849 0.0
C329 C 0.52313 0.03422 0.11852 0.0
Zn330 Zn 0.55663 0.57094 0.56114 0.0
Zn331 Zn 0.47888 0.46684 0.47487 0.0
Zn332 Zn 0.51817 0.51722 0.51687 0.0
C333 C 0.53672 0.42424 0.51163 0.0
C334 C 0.50888 0.52083 0.42238 0.0
O335 O 0.47542 0.54748 0.55547 0.0
O336 O 0.50988 0.59123 0.58911 0.0
C337 C 0.58763 0.49581 0.57807 0.0
O338 O 0.54499 0.45829 0.52577 0.0
O339 O 0.50842 0.41982 0.48826 0.0
O340 O 0.48818 0.49016 0.42307 0.0
O341 O 0.52281 0.53522 0.45444 0.0
O342 O 0.59081 0.53146 0.58746 0.0
O343 O 0.56244 0.48521 0.55186 0.0
O344 O 0.54733 0.55948 0.47687 0.0
O345 O 0.5774 0.60172 0.51607 0.0
C346 C 0.56906 0.59004 0.48195 0.0
O347 O 0.45587 0.51699 0.53668 0.0
O348 O 0.42728 0.47198 0.49968 0.0
C349 C 0.47743 0.57536 0.58083 0.0
C350 C 0.42539 0.49677 0.5269 0.0
Zn351 Zn 0.06631 0.57286 0.96707 0.0
Zn352 Zn 0.97818 0.48073 0.0543 0.0
Zn353 Zn 0.02362 0.5277 0.01 0.0
C354 C 0.05555 0.47368 0.08153 0.0
C355 C 0.9714 0.4554 0.97661 0.0
O356 O 0.00356 0.5891 0.01796 0.0
O357 O 0.04922 0.62389 0.98785 0.0
C358 C 0.11824 0.53194 0.01337 0.0
O359 O 0.06204 0.49624 0.05192 0.0
O360 O 0.02092 0.46409 0.09058 0.0
O361 O 0.9622 0.445 0.01091 0.0
O362 O 0.99307 0.48587 0.97098 0.0
O363 O 0.11826 0.55318 0.98312 0.0
O364 O 0.08557 0.521 0.02891 0.0
O365 O 0.01695 0.50984 0.94756 0.0
O366 O 0.04664 0.55729 0.9149 0.0
C367 C 0.02678 0.52608 0.91489 0.0
O368 O 0.98097 0.56442 0.04205 0.0
O369 O 0.94123 0.52235 0.07161 0.0
C370 C 0.01834 0.62247 0.00808 0.0
C371 C 0.95072 0.55719 0.0635 0.0
C372 C 0.16782 0.11869 0.42276 0.0
C373 C 0.14661 0.14627 0.40057 0.0
C374 C 0.14871 0.09139 0.44674 0.0
C375 C 0.10768 0.091 0.45019 0.0
H376 H 0.19945 0.11715 0.4204 0.0
H377 H 0.16613 0.06945 0.46163 0.0
S378 S 0.03837 0.15842 0.40099 0.0
N379 N 0.08202 0.17259 0.38545 0.0
N380 N 0.04636 0.12161 0.43133 0.0
C381 C 0.08615 0.11986 0.43035 0.0
C382 C 0.10556 0.14749 0.40543 0.0
C383 C 0.3766 0.92336 0.91387 0.0
C384 C 0.39562 0.88875 0.90225 0.0
C385 C 0.39617 0.95219 0.9355 0.0
C386 C 0.43568 0.94793 0.94637 0.0
H387 H 0.34684 0.92935 0.90458 0.0
H388 H 0.38052 0.9788 0.9426 0.0
S389 S 0.49874 0.86243 0.92537 0.0
N390 N 0.45575 0.85063 0.90627 0.0
N391 N 0.4933 0.90652 0.94434 0.0
C392 C 0.45492 0.91316 0.93617 0.0
C393 C 0.43472 0.88323 0.91471 0.0
C394 C 0.61873 0.40108 0.62767 0.0
C395 C 0.65432 0.41139 0.6461 0.0
C396 C 0.59779 0.42819 0.60497 0.0
C397 C 0.6119 0.46646 0.59907 0.0
H398 H 0.60644 0.37204 0.63149 0.0
H399 H 0.56949 0.41956 0.59352 0.0
S400 S 0.70361 0.50842 0.64054 0.0
N401 N 0.70231 0.46313 0.65734 0.0
N402 N 0.66411 0.51316 0.61295 0.0
C403 C 0.64788 0.47692 0.61654 0.0
C404 C 0.66887 0.44959 0.64024 0.0
C405 C 0.9263 0.64381 0.12755 0.0
C406 C 0.88502 0.64175 0.1298 0.0
C407 C 0.94751 0.61811 0.10357 0.0
C408 C 0.92819 0.5892 0.0815 0.0
H409 H 0.94253 0.66384 0.1461 0.0
H410 H 0.97926 0.61924 0.10426 0.0
S411 S 0.82081 0.57669 0.07052 0.0
N412 N 0.82572 0.61271 0.1024 0.0
N413 N 0.8658 0.56329 0.05897 0.0
C414 C 0.88707 0.58864 0.08121 0.0
C415 C 0.86544 0.61523 0.10492 0.0
C416 C 0.42253 0.14373 0.13841 0.0
C417 C 0.38248 0.14995 0.13079 0.0
C418 C 0.44588 0.1225 0.11201 0.0
C419 C 0.42986 0.10639 0.07763 0.0
H420 H 0.43607 0.15632 0.16425 0.0
H421 H 0.47682 0.12006 0.11771 0.0
S422 S 0.32553 0.11159 0.04655 0.0
N423 N 0.32728 0.13669 0.08781 0.0
N424 N 0.3707 0.09625 0.03883 0.0
C425 C 0.38951 0.11155 0.0705 0.0
C426 C 0.36595 0.13337 0.09699 0.0
C427 C 0.12845 0.8752 0.61712 0.0
C428 C 0.14023 0.89252 0.6527 0.0
C429 C 0.10689 0.89606 0.58919 0.0
C430 C 0.09622 0.93527 0.59531 0.0
H431 H 0.1376 0.84582 0.60968 0.0
H432 H 0.09975 0.8817 0.56177 0.0
S433 S 0.11789 0.99421 0.68385 0.0
N434 N 0.1366 0.95078 0.69366 0.0
N435 N 0.09877 0.9908 0.63947 0.0
C436 C 0.10656 0.95281 0.63104 0.0
C437 C 0.12795 0.93127 0.66006 0.0
C438 C 0.93202 0.37058 0.91771 0.0
C439 C 0.90899 0.3891 0.88887 0.0
C440 C 0.95407 0.39233 0.9447 0.0
C441 C 0.95468 0.4334 0.94337 0.0
H442 H 0.93166 0.339 0.92058 0.0
H443 H 0.96966 0.37693 0.96769 0.0
S444 S 0.90229 0.4964 0.87222 0.0
N445 N 0.89002 0.45133 0.85959 0.0
N446 N 0.93239 0.49194 0.90989 0.0
C447 C 0.93408 0.45235 0.91324 0.0
C448 C 0.91109 0.43025 0.88599 0.0
C449 C 0.63346 0.61028 0.39416 0.0
C450 C 0.63599 0.65151 0.39426 0.0
C451 C 0.60905 0.59025 0.42069 0.0
C452 C 0.58682 0.61082 0.44843 0.0
H453 H 0.65217 0.59326 0.37513 0.0
H454 H 0.60965 0.55855 0.42126 0.0
S455 S 0.57636 0.71844 0.45533 0.0
N456 N 0.60864 0.71191 0.41996 0.0
N457 N 0.56433 0.67419 0.47082 0.0
C458 C 0.58669 0.65183 0.44678 0.0
C459 C 0.61087 0.6722 0.41943 0.0
C460 C 0.11133 0.43092 0.16692 0.0
C461 C 0.14109 0.40911 0.14861 0.0
C462 C 0.08514 0.45371 0.14506 0.0
C463 C 0.08811 0.45631 0.10411 0.0
H464 H 0.10726 0.42918 0.19834 0.0
H465 H 0.06148 0.46836 0.16022 0.0
S466 S 0.16193 0.4074 0.04178 0.0
N467 N 0.17283 0.39322 0.08677 0.0
N468 N 0.12397 0.43693 0.04603 0.0
C469 C 0.11904 0.4368 0.08552 0.0
C470 C 0.14552 0.41307 0.10769 0.0
C471 C 0.61203 0.12277 0.87291 0.0
C472 C 0.64124 0.14401 0.89303 0.0
C473 C 0.58498 0.09935 0.89302 0.0
C474 C 0.58649 0.0956 0.93396 0.0
H475 H 0.60908 0.12541 0.84141 0.0
H476 H 0.56188 0.08503 0.87648 0.0
S477 S 0.65875 0.14223 1.00047 0.0
N478 N 0.67121 0.15786 0.95638 0.0
N479 N 0.62066 0.11295 0.99394 0.0
C480 C 0.61694 0.11445 0.95433 0.0
C481 C 0.64433 0.13881 0.93391 0.0
C482 C 0.90535 0.92114 0.40098 0.0
C483 C 0.91434 0.88172 0.39337 0.0
C484 C 0.93161 0.9452 0.42191 0.0
C485 C 0.96728 0.93059 0.43641 0.0
H486 H 0.87843 0.93368 0.38977 0.0
H487 H 0.92465 0.97564 0.4255 0.0
S488 S 0.00251 0.82824 0.42719 0.0
N489 N 0.9602 0.82854 0.40361 0.0
N490 N 0.00897 0.8733 0.44343 0.0
C491 C 0.97593 0.89086 0.42975 0.0
C492 C 0.94955 0.86657 0.40822 0.0
C493 C 0.40284 0.603 0.65712 0.0
C494 C 0.38548 0.63657 0.64053 0.0
C495 C 0.43068 0.58109 0.63637 0.0
C496 C 0.4418 0.59187 0.59831 0.0
H497 H 0.39618 0.59466 0.687 0.0
H498 H 0.44505 0.55684 0.65091 0.0
S499 S 0.404 0.67545 0.54064 0.0
N500 N 0.38047 0.67816 0.58279 0.0
N501 N 0.43254 0.63665 0.54401 0.0
C502 C 0.42333 0.62392 0.5806 0.0
C503 C 0.39506 0.64628 0.6016 0.0
C504 C 0.99737 0.9466 0.70129 0.0
C505 C 0.99925 0.97187 0.73384 0.0
C506 C 0.00412 0.96072 0.66317 0.0
C507 C 0.01265 1.00048 0.65676 0.0
H508 H 0.98763 0.9166 0.70493 0.0
H509 H 0.99936 0.94129 0.63854 0.0
S510 S 0.03004 0.07601 0.73268 0.0
N511 N 0.01752 0.03644 0.75759 0.0
N512 N 0.02904 0.06316 0.68606 0.0
C513 C 0.01849 0.02488 0.6893 0.0
C514 C 0.01214 0.0105 0.72788 0.0
C515 C 0.51269 0.05541 0.22527 0.0
C516 C 0.53577 0.08937 0.22941 0.0
C517 C 0.50426 0.03996 0.18816 0.0
C518 C 0.51853 0.05802 0.15402 0.0
H519 H 0.50335 0.03926 0.25097 0.0
H520 H 0.48919 0.01204 0.18631 0.0
S521 S 0.57816 0.14872 0.1489 0.0
N522 N 0.57043 0.14204 0.19619 0.0
N523 N 0.55523 0.11243 0.12646 0.0
C524 C 0.53937 0.09335 0.15764 0.0
C525 C 0.54771 0.10928 0.19539 0.0
C526 C 0.51161 0.53269 0.31336 0.0
C527 C 0.49965 0.57169 0.30826 0.0
C528 C 0.51844 0.51742 0.35073 0.0
C529 C 0.51383 0.54063 0.38435 0.0
H530 H 0.51326 0.51316 0.28843 0.0
H531 H 0.52486 0.48649 0.3535 0.0
S532 S 0.48817 0.64586 0.38663 0.0
N533 N 0.48764 0.63441 0.33962 0.0
N534 N 0.50049 0.60544 0.41014 0.0
C535 C 0.50551 0.58057 0.37956 0.0
C536 C 0.49842 0.5962 0.34135 0.0
C537 C 0.03422 0.4519 0.83379 0.0
C538 C 0.02925 0.47559 0.80033 0.0
C539 C 0.02925 0.46735 0.8716 0.0
C540 C 0.01939 0.50691 0.87689 0.0
H541 H 0.04507 0.42229 0.83088 0.0
H542 H 0.03649 0.44923 0.89665 0.0
S543 S 0.9939 0.57803 0.79897 0.0
N544 N 0.00673 0.53811 0.77503 0.0
N545 N 0.99822 0.56727 0.84596 0.0
C546 C 0.01029 0.52948 0.84374 0.0
C547 C 0.01501 0.51376 0.80544 0.0
C548 C 0.72384 0.02136 0.01009 0.0
C549 C 0.72872 0.00918 0.97109 0.0
C550 C 0.6865 0.02821 0.02541 0.0
C551 C 0.65267 0.02327 0.00229 0.0
H552 H 0.74889 0.02308 0.02962 0.0
H553 H 0.68393 0.03473 0.05636 0.0
S554 S 0.6499 0.99755 0.8969 0.0
N555 N 0.697 0.99709 0.90835 0.0
N556 N 0.6266 0.00989 0.93737 0.0
C557 C 0.65732 0.01498 0.96228 0.0
C558 C 0.69548 0.00793 0.9466 0.0
C559 C 0.81731 0.01068 0.48842 0.0
C560 C 0.81354 0.03403 0.45467 0.0
C561 C 0.85431 0.00217 0.50418 0.0
C562 C 0.88869 0.01668 0.48668 0.0
H563 H 0.79141 1.00117 0.50417 0.0
H564 H 0.85589 0.98681 0.53194 0.0
S565 S 0.89472 0.07727 0.3968 0.0
N566 N 0.8473 0.06931 0.40283 0.0
N567 N 0.91681 0.05403 0.43306 0.0
C568 C 0.88541 0.03788 0.45157 0.0
C569 C 0.84779 0.04627 0.43531 0.0
C570 C 0.19956 0.53869 0.08753 0.0
C571 C 0.23289 0.53469 0.06356 0.0
C572 C 0.16166 0.53337 0.07214 0.0
C573 C 0.15622 0.52417 0.03238 0.0
H574 H 0.20259 0.54917 0.11732 0.0
H575 H 0.13665 0.53998 0.09046 0.0
S576 S 0.23386 0.50098 0.96043 0.0
N577 N 0.258 0.51349 1.00053 0.0
N578 N 0.18686 0.5044 0.97146 0.0
C579 C 0.18928 0.51584 0.00951 0.0
C580 C 0.22767 0.52088 0.02517 0.0
C581 C 0.34038 0.45687 0.58321 0.0
C582 C 0.312 0.48627 0.57908 0.0
C583 C 0.3784 0.46225 0.56909 0.0
C584 C 0.38944 0.49723 0.55045 0.0
H585 H 0.33243 0.42863 0.59541 0.0
H586 H 0.39869 0.43794 0.57062 0.0
S587 S 0.32725 0.5846 0.53576 0.0
N588 N 0.29822 0.55283 0.55815 0.0
N589 N 0.37016 0.56275 0.53097 0.0
C590 C 0.36231 0.52794 0.54854 0.0
C591 C 0.32337 0.5225 0.56312 0.0
C592 C 0.0044 0.73078 0.01768 0.0
C593 C 0.96542 0.73568 0.00514 0.0
C594 C 0.02033 0.69344 0.02268 0.0
C595 C 0.99781 0.65963 0.01561 0.0
H596 H 0.02353 0.75598 0.02095 0.0
H597 H 0.05131 0.69102 0.0294 0.0
S598 S 0.89272 0.65651 0.98778 0.0
N599 N 0.90334 0.70366 0.99022 0.0
N600 N 0.93349 0.6333 0.99953 0.0
C601 C 0.95778 0.66404 0.00688 0.0
C602 C 0.94149 0.7022 0.00169 0.0
C603 C 0.5084 0.81748 0.03361 0.0
C604 C 0.46834 0.81078 0.04073 0.0
C605 C 0.52312 0.85542 0.02921 0.0
C606 C 0.49829 0.88808 0.03114 0.0
H607 H 0.52893 0.79335 0.034 0.0
H608 H 0.55454 0.85935 0.02638 0.0
S609 S 0.39035 0.88616 0.04289 0.0
N610 N 0.40336 0.83966 0.04488 0.0
N611 N 0.43125 0.91128 0.036 0.0
C612 C 0.45772 0.88173 0.03435 0.0
C613 C 0.44265 0.84291 0.03917 0.0
C614 C 0.08873 0.19864 0.5374 0.0
C615 C 0.06403 0.2313 0.53274 0.0
C616 C 0.07467 0.16049 0.53076 0.0
C617 C 0.03549 0.15406 0.51952 0.0
H618 H 0.11804 0.20233 0.54918 0.0
H619 H 0.09342 0.13594 0.53783 0.0
S620 S 0.96236 0.22998 0.49416 0.0
N621 N 0.00118 0.25495 0.50906 0.0
N622 N 0.97459 0.18335 0.49732 0.0
C623 C 0.01204 0.1866 0.51069 0.0
C624 C 0.02635 0.22525 0.51716 0.0
C625 C 0.61304 0.34785 0.49578 0.0
C626 C 0.5924 0.3139 0.50707 0.0
C627 C 0.59716 0.38521 0.5022 0.0
C628 C 0.56036 0.3894 0.52009 0.0
H629 H 0.63964 0.34545 0.47866 0.0
H630 H 0.61176 0.41047 0.48958 0.0
S631 S 0.49921 0.31035 0.56254 0.0
N632 N 0.53692 0.28735 0.54298 0.0
N633 N 0.50691 0.35743 0.55443 0.0
C634 C 0.54184 0.35604 0.53539 0.0
C635 C 0.55794 0.31822 0.52905 0.0
loop_
_geom_bond_atom_site_label_1
_geom_bond_atom_site_label_2
_geom_bond_distance
_geom_bond_site_symmetry_2
_ccdc_geom_bond_type
C0 C1 1.384 . S
C0 H13 0.947 . S
C0 C35 1.382 . S
C1 C0 1.384 . S
C1 C2 1.378 . S
C2 C1 1.378 . S
C2 C3 1.378 . S
C2 H14 0.952 . S
C3 C2 1.378 . S
C3 H15 0.950 . S
C3 C34 1.383 . S
H4 C23 0.947 . S
H5 C24 0.946 . S
H6 C26 0.953 . S
H7 C27 0.945 . S
H8 C29 0.952 . S
H9 C30 0.949 . S
H10 C32 0.950 . S
H11 C33 0.948 . S
H12 C35 0.951 . S
H13 C0 0.947 . S
H14 C2 0.952 . S
H15 C3 0.950 . S
N16 C19 1.382 . S
N16 C21 1.363 . S
N17 C19 1.371 . S
N17 C20 1.372 . S
N18 C20 1.361 . S
N18 C21 1.377 . S
C19 N16 1.382 . S
C19 N17 1.371 . S
C19 C22 1.480 . S
C20 N17 1.372 . S
C20 N18 1.361 . S
C20 C28 1.457 . S
C21 N16 1.363 . S
C21 N18 1.377 . S
C21 C34 1.479 . S
C22 C19 1.480 . S
C22 C23 1.383 . S
C22 C27 1.385 . S
C23 H4 0.947 . S
C23 C22 1.383 . S
C23 C24 1.388 . S
C24 H5 0.946 . S
C24 C23 1.388 . S
C24 C25 1.384 . S
C25 C24 1.384 . S
C25 C26 1.377 . S
C26 H6 0.953 . S
C26 C25 1.377 . S
C26 C27 1.369 . S
C27 H7 0.945 . S
C27 C22 1.385 . S
C27 C26 1.369 . S
C28 C20 1.457 . S
C28 C29 1.372 . S
C28 C33 1.364 . S
C29 H8 0.952 . S
C29 C28 1.372 . S
C29 C30 1.389 . S
C30 H9 0.949 . S
C30 C29 1.389 . S
C30 C31 1.387 . S
C31 C30 1.387 . S
C31 C32 1.372 . S
C32 H10 0.950 . S
C32 C31 1.372 . S
C32 C33 1.379 . S
C33 H11 0.948 . S
C33 C28 1.364 . S
C33 C32 1.379 . S
C34 C3 1.383 . S
C34 C21 1.479 . S
C34 C35 1.398 . S
C35 C0 1.382 . S
C35 H12 0.951 . S
C35 C34 1.398 . S
C36 C37 1.384 . S
C36 H49 0.947 . S
C36 C71 1.382 . S
C37 C36 1.384 . S
C37 C38 1.378 . S
C38 C37 1.378 . S
C38 C39 1.378 . S
C38 H50 0.952 . S
C39 C38 1.378 . S
C39 H51 0.950 . S
C39 C70 1.383 . S
H40 C59 0.947 . S
H41 C60 0.946 . S
H42 C62 0.953 . S
H43 C63 0.945 . S
H44 C65 0.952 . S
H45 C66 0.949 . S
H46 C68 0.950 . S
H47 C69 0.948 . S
H48 C71 0.951 . S
H49 C36 0.947 . S
H50 C38 0.952 . S
H51 C39 0.950 . S
N52 C55 1.382 . S
N52 C57 1.363 . S
N53 C55 1.371 . S
N53 C56 1.372 . S
N54 C56 1.361 . S
N54 C57 1.377 . S
C55 N52 1.382 . S
C55 N53 1.371 . S
C55 C58 1.480 . S
C56 N53 1.372 . S
C56 N54 1.361 . S
C56 C64 1.457 . S
C57 N52 1.363 . S
C57 N54 1.377 . S
C57 C70 1.479 . S
C58 C55 1.480 . S
C58 C59 1.383 . S
C58 C63 1.385 . S
C59 H40 0.947 . S
C59 C58 1.383 . S
C59 C60 1.388 . S
C60 H41 0.946 . S
C60 C59 1.388 . S
C60 C61 1.384 . S
C61 C60 1.384 . S
C61 C62 1.377 . S
C62 H42 0.953 . S
C62 C61 1.377 . S
C62 C63 1.369 . S
C63 H43 0.945 . S
C63 C58 1.385 . S
C63 C62 1.369 . S
C64 C56 1.457 . S
C64 C65 1.372 . S
C64 C69 1.364 . S
C65 H44 0.952 . S
C65 C64 1.372 . S
C65 C66 1.389 . S
C66 H45 0.949 . S
C66 C65 1.389 . S
C66 C67 1.387 . S
C67 C66 1.387 . S
C67 C68 1.372 . S
C68 H46 0.950 . S
C68 C67 1.372 . S
C68 C69 1.379 . S
C69 H47 0.948 . S
C69 C64 1.364 . S
C69 C68 1.379 . S
C70 C39 1.383 . S
C70 C57 1.479 . S
C70 C71 1.398 . S
C71 C36 1.382 . S
C71 H48 0.951 . S
C71 C70 1.398 . S
C72 C73 1.384 . S
C72 H85 0.947 . S
C72 C107 1.382 . S
C73 C72 1.384 . S
C73 C74 1.378 . S
C74 C73 1.378 . S
C74 C75 1.378 . S
C74 H86 0.952 . S
C75 C74 1.378 . S
C75 H87 0.950 . S
C75 C106 1.383 . S
H76 C95 0.947 . S
H77 C96 0.946 . S
H78 C98 0.953 . S
H79 C99 0.945 . S
H80 C101 0.952 . S
H81 C102 0.949 . S
H82 C104 0.950 . S
H83 C105 0.948 . S
H84 C107 0.951 . S
H85 C72 0.947 . S
H86 C74 0.952 . S
H87 C75 0.950 . S
N88 C91 1.382 . S
N88 C93 1.363 . S
N89 C91 1.371 . S
N89 C92 1.372 . S
N90 C92 1.361 . S
N90 C93 1.377 . S
C91 N88 1.382 . S
C91 N89 1.371 . S
C91 C94 1.480 . S
C92 N89 1.372 . S
C92 N90 1.361 . S
C92 C100 1.457 . S
C93 N88 1.363 . S
C93 N90 1.377 . S
C93 C106 1.479 . S
C94 C91 1.480 . S
C94 C95 1.383 . S
C94 C99 1.385 . S
C95 H76 0.947 . S
C95 C94 1.383 . S
C95 C96 1.388 . S
C96 H77 0.946 . S
C96 C95 1.388 . S
C96 C97 1.384 . S
C97 C96 1.384 . S
C97 C98 1.377 . S
C98 H78 0.953 . S
C98 C97 1.377 . S
C98 C99 1.369 . S
C99 H79 0.945 . S
C99 C94 1.385 . S
C99 C98 1.369 . S
C100 C92 1.457 . S
C100 C101 1.372 . S
C100 C105 1.364 . S
C101 H80 0.952 . S
C101 C100 1.372 . S
C101 C102 1.389 . S
C102 H81 0.949 . S
C102 C101 1.389 . S
C102 C103 1.387 . S
C103 C102 1.387 . S
C103 C104 1.372 . S
C104 H82 0.950 . S
C104 C103 1.372 . S
C104 C105 1.379 . S
C105 H83 0.948 . S
C105 C100 1.364 . S
C105 C104 1.379 . S
C106 C75 1.383 . S
C106 C93 1.479 . S
C106 C107 1.398 . S
C107 C72 1.382 . S
C107 H84 0.951 . S
C107 C106 1.398 . S
C108 C109 1.384 . S
C108 H121 0.947 . S
C108 C143 1.382 . S
C109 C108 1.384 . S
C109 C110 1.378 . S
C110 C109 1.378 . S
C110 C111 1.378 . S
C110 H122 0.952 . S
C111 C110 1.378 . S
C111 H123 0.950 . S
C111 C142 1.383 . S
H112 C131 0.947 . S
H113 C132 0.946 . S
H114 C134 0.953 . S
H115 C135 0.945 . S
H116 C137 0.952 . S
H117 C138 0.949 . S
H118 C140 0.950 . S
H119 C141 0.948 . S
H120 C143 0.951 . S
H121 C108 0.947 . S
H122 C110 0.952 . S
H123 C111 0.950 . S
N124 C127 1.382 . S
N124 C129 1.363 . S
N125 C127 1.371 . S
N125 C128 1.372 . S
N126 C128 1.361 . S
N126 C129 1.377 . S
C127 N124 1.382 . S
C127 N125 1.371 . S
C127 C130 1.480 . S
C128 N125 1.372 . S
C128 N126 1.361 . S
C128 C136 1.457 . S
C129 N124 1.363 . S
C129 N126 1.377 . S
C129 C142 1.479 . S
C130 C127 1.480 . S
C130 C131 1.383 . S
C130 C135 1.385 . S
C131 H112 0.947 . S
C131 C130 1.383 . S
C131 C132 1.388 . S
C132 H113 0.946 . S
C132 C131 1.388 . S
C132 C133 1.384 . S
C133 C132 1.384 . S
C133 C134 1.377 . S
C134 H114 0.953 . S
C134 C133 1.377 . S
C134 C135 1.369 . S
C135 H115 0.945 . S
C135 C130 1.385 . S
C135 C134 1.369 . S
C136 C128 1.457 . S
C136 C137 1.372 . S
C136 C141 1.364 . S
C137 H116 0.952 . S
C137 C136 1.372 . S
C137 C138 1.389 . S
C138 H117 0.949 . S
C138 C137 1.389 . S
C138 C139 1.387 . S
C139 C138 1.387 . S
C139 C140 1.372 . S
C140 H118 0.950 . S
C140 C139 1.372 . S
C140 C141 1.379 . S
C141 H119 0.948 . S
C141 C136 1.364 . S
C141 C140 1.379 . S
C142 C111 1.383 . S
C142 C129 1.479 . S
C142 C143 1.398 . S
C143 C108 1.382 . S
C143 H120 0.951 . S
C143 C142 1.398 . S
C144 C145 1.384 1_546 S
C144 H157 0.947 . S
C144 C179 1.382 1_545 S
C145 C144 1.384 1_564 S
C145 C146 1.378 . S
C146 C145 1.378 . S
C146 C147 1.378 . S
C146 H158 0.952 . S
C147 C146 1.378 . S
C147 H159 0.950 . S
C147 C178 1.383 1_554 S
H148 C167 0.947 1_554 S
H149 C168 0.946 . S
H150 C170 0.953 . S
H151 C171 0.945 . S
H152 C173 0.952 1_455 S
H153 C174 0.949 . S
H154 C176 0.950 . S
H155 C177 0.948 . S
H156 C179 0.951 1_545 S
H157 C144 0.947 . S
H158 C146 0.952 . S
H159 C147 0.950 . S
N160 C163 1.382 . S
N160 C165 1.363 . S
N161 C163 1.371 . S
N161 C164 1.372 . S
N162 C164 1.361 . S
N162 C165 1.377 . S
C163 N160 1.382 . S
C163 N161 1.371 . S
C163 C166 1.480 . S
C164 N161 1.372 . S
C164 N162 1.361 . S
C164 C172 1.457 . S
C165 N160 1.363 . S
C165 N162 1.377 . S
C165 C178 1.479 . S
C166 C163 1.480 . S
C166 C167 1.383 . S
C166 C171 1.385 1_655 S
C167 H148 0.947 1_556 S
C167 C166 1.383 . S
C167 C168 1.388 1_556 S
C168 H149 0.946 . S
C168 C167 1.388 1_554 S
C168 C169 1.384 1_654 S
C169 C168 1.384 1_456 S
C169 C170 1.377 . S
C170 H150 0.953 . S
C170 C169 1.377 . S
C170 C171 1.369 . S
C171 H151 0.945 . S
C171 C166 1.385 1_455 S
C171 C170 1.369 . S
C172 C164 1.457 . S
C172 C173 1.372 . S
C172 C177 1.364 1_565 S
C173 H152 0.952 1_655 S
C173 C172 1.372 . S
C173 C174 1.389 1_655 S
C174 H153 0.949 . S
C174 C173 1.389 1_455 S
C174 C175 1.387 1_465 S
C175 C174 1.387 1_645 S
C175 C176 1.372 . S
C176 H154 0.950 . S
C176 C175 1.372 . S
C176 C177 1.379 . S
C177 H155 0.948 . S
C177 C172 1.364 1_545 S
C177 C176 1.379 . S
C178 C147 1.383 1_556 S
C178 C165 1.479 . S
C178 C179 1.398 . S
C179 C144 1.382 1_565 S
C179 H156 0.951 1_565 S
C179 C178 1.398 . S
C180 C181 1.384 . S
C180 H193 0.951 . S
C180 C215 1.382 . S
C181 C180 1.384 . S
C181 C182 1.378 . S
C182 C181 1.378 . S
C182 C183 1.378 . S
C182 H194 0.952 . S
C183 C182 1.378 . S
C183 H195 0.950 . S
C183 C214 1.383 . S
H184 C203 0.947 . S
H185 C204 0.946 . S
H186 C206 0.953 . S
H187 C207 0.945 . S
H188 C209 0.952 . S
H189 C210 0.949 . S
H190 C212 0.950 . S
H191 C213 0.948 . S
H192 C215 0.951 . S
H193 C180 0.951 . S
H194 C182 0.952 . S
H195 C183 0.950 . S
N196 C199 1.382 . S
N196 C201 1.363 . S
N197 C199 1.371 . S
N197 C200 1.372 . S
N198 C200 1.361 . S
N198 C201 1.377 . S
C199 N196 1.382 . S
C199 N197 1.371 . S
C199 C202 1.480 . S
C200 N197 1.372 . S
C200 N198 1.361 . S
C200 C208 1.457 . S
C201 N196 1.363 . S
C201 N198 1.377 . S
C201 C214 1.479 . S
C202 C199 1.480 . S
C202 C203 1.383 . S
C202 C207 1.385 . S
C203 H184 0.947 . S
C203 C202 1.383 . S
C203 C204 1.388 . S
C204 H185 0.946 . S
C204 C203 1.388 . S
C204 C205 1.384 . S
C205 C204 1.384 . S
C205 C206 1.377 . S
C206 H186 0.953 . S
C206 C205 1.377 . S
C206 C207 1.369 . S
C207 H187 0.945 . S
C207 C202 1.385 . S
C207 C206 1.369 . S
C208 C200 1.457 . S
C208 C209 1.372 . S
C208 C213 1.364 . S
C209 H188 0.952 . S
C209 C208 1.372 . S
C209 C210 1.389 . S
C210 H189 0.949 . S
C210 C209 1.389 . S
C210 C211 1.387 . S
C211 C210 1.387 . S
C211 C212 1.372 . S
C212 H190 0.950 . S
C212 C211 1.372 . S
C212 C213 1.379 . S
C213 H191 0.948 . S
C213 C208 1.364 . S
C213 C212 1.379 . S
C214 C183 1.383 . S
C214 C201 1.479 . S
C214 C215 1.398 . S
C215 C180 1.382 . S
C215 H192 0.951 . S
C215 C214 1.398 . S
C216 C217 1.384 . S
C216 H229 0.947 . S
C216 C251 1.382 . S
C217 C216 1.384 . S
C217 C218 1.378 . S
C218 C217 1.378 . S
C218 C219 1.378 . S
C218 H230 0.952 1_554 S
C219 C218 1.378 . S
C219 H231 0.950 . S
C219 C250 1.383 . S
H220 C239 0.947 . S
H221 C240 0.946 . S
H222 C242 0.953 . S
H223 C243 0.945 . S
H224 C245 0.952 . S
H225 C246 0.949 . S
H226 C248 0.950 . S
H227 C249 0.948 . S
H228 C251 0.951 . S
H229 C216 0.947 . S
H230 C218 0.952 1_556 S
H231 C219 0.950 . S
N232 C235 1.382 . S
N232 C237 1.363 . S
N233 C235 1.371 . S
N233 C236 1.372 . S
N234 C236 1.361 . S
N234 C237 1.377 . S
C235 N232 1.382 . S
C235 N233 1.371 . S
C235 C238 1.480 . S
C236 N233 1.372 . S
C236 N234 1.361 . S
C236 C244 1.457 . S
C237 N232 1.363 . S
C237 N234 1.377 . S
C237 C250 1.479 . S
C238 C235 1.480 . S
C238 C239 1.383 . S
C238 C243 1.385 . S
C239 H220 0.947 . S
C239 C238 1.383 . S
C239 C240 1.388 . S
C240 H221 0.946 . S
C240 C239 1.388 . S
C240 C241 1.384 . S
C241 C240 1.384 . S
C241 C242 1.377 . S
C242 H222 0.953 . S
C242 C241 1.377 . S
C242 C243 1.369 . S
C243 H223 0.945 . S
C243 C238 1.385 . S
C243 C242 1.369 . S
C244 C236 1.457 . S
C244 C245 1.372 . S
C244 C249 1.364 . S
C245 H224 0.952 . S
C245 C244 1.372 . S
C245 C246 1.389 . S
C246 H225 0.949 . S
C246 C245 1.389 . S
C246 C247 1.387 . S
C247 C246 1.387 . S
C247 C248 1.372 . S
C248 H226 0.950 . S
C248 C247 1.372 . S
C248 C249 1.379 . S
C249 H227 0.948 . S
C249 C244 1.364 . S
C249 C248 1.379 . S
C250 C219 1.383 . S
C250 C237 1.479 . S
C250 C251 1.398 . S
C251 C216 1.382 . S
C251 H228 0.951 . S
C251 C250 1.398 . S
C252 C253 1.384 . S
C252 H265 0.947 . S
C252 C287 1.382 . S
C253 C252 1.384 . S
C253 C254 1.378 . S
C254 C253 1.378 . S
C254 C255 1.378 . S
C254 H266 0.952 1_455 S
C255 C254 1.378 . S
C255 H267 0.950 . S
C255 C286 1.383 . S
H256 C275 0.947 . S
H257 C276 0.946 . S
H258 C278 0.953 . S
H259 C279 0.945 . S
H260 C281 0.952 . S
H261 C282 0.949 . S
H262 C284 0.950 . S
H263 C285 0.948 . S
H264 C287 0.951 . S
H265 C252 0.947 . S
H266 C254 0.952 1_655 S
H267 C255 0.950 . S
N268 C271 1.382 . S
N268 C273 1.363 . S
N269 C271 1.371 . S
N269 C272 1.372 . S
N270 C272 1.361 . S
N270 C273 1.377 . S
C271 N268 1.382 . S
C271 N269 1.371 . S
C271 C274 1.480 . S
C272 N269 1.372 . S
C272 N270 1.361 . S
C272 C280 1.457 . S
C273 N268 1.363 . S
C273 N270 1.377 . S
C273 C286 1.479 . S
C274 C271 1.480 . S
C274 C275 1.383 . S
C274 C279 1.385 . S
C275 H256 0.947 . S
C275 C274 1.383 . S
C275 C276 1.388 . S
C276 H257 0.946 . S
C276 C275 1.388 . S
C276 C277 1.384 . S
C277 C276 1.384 . S
C277 C278 1.377 . S
C278 H258 0.953 . S
C278 C277 1.377 . S
C278 C279 1.369 . S
C279 H259 0.945 . S
C279 C274 1.385 . S
C279 C278 1.369 . S
C280 C272 1.457 . S
C280 C281 1.372 . S
C280 C285 1.364 . S
C281 H260 0.952 . S
C281 C280 1.372 . S
C281 C282 1.389 . S
C282 H261 0.949 . S
C282 C281 1.389 . S
C282 C283 1.387 . S
C283 C282 1.387 . S
C283 C284 1.372 . S
C284 H262 0.950 . S
C284 C283 1.372 . S
C284 C285 1.379 . S
C285 H263 0.948 . S
C285 C280 1.364 . S
C285 C284 1.379 . S
C286 C255 1.383 . S
C286 C273 1.479 . S
C286 C287 1.398 . S
C287 C252 1.382 . S
C287 H264 0.951 . S
C287 C286 1.398 . S
Zn288 O294 1.920 . S
Zn288 O300 1.898 . S
Zn288 O303 1.905 . S
Zn289 O297 1.905 1_565 S
Zn289 O298 1.898 . S
Zn289 O306 1.920 . S
Zn290 O293 2.080 1_455 S
Zn290 O296 2.114 . S
Zn290 O299 2.120 1_445 S
Zn290 O301 2.120 . S
Zn290 O302 2.114 1_455 S
Zn290 O305 2.080 . S
C291 O296 1.166 . S
C291 O297 1.182 . S
C292 O298 1.167 1_655 S
C292 O299 1.299 . S
O293 Zn290 2.080 1_655 S
O293 C307 1.305 . S
O294 Zn288 1.920 . S
O294 C307 1.234 . S
C295 O300 1.167 1_455 S
C295 O301 1.299 . S
O296 Zn290 2.114 . S
O296 C291 1.166 . S
O297 Zn289 1.905 1_545 S
O297 C291 1.182 . S
O298 Zn289 1.898 . S
O298 C292 1.167 1_455 S
O299 Zn290 2.120 1_665 S
O299 C292 1.299 . S
O300 Zn288 1.898 . S
O300 C295 1.167 1_655 S
O301 Zn290 2.120 . S
O301 C295 1.299 . S
O302 Zn290 2.114 1_655 S
O302 C304 1.166 . S
O303 Zn288 1.905 . S
O303 C304 1.182 . S
C304 O302 1.166 . S
C304 O303 1.182 . S
O305 Zn290 2.080 . S
O305 C308 1.305 1_545 S
O306 Zn289 1.920 . S
O306 C308 1.234 . S
C307 O293 1.305 . S
C307 O294 1.234 . S
C308 O305 1.305 1_565 S
C308 O306 1.234 . S
Zn309 O315 1.920 1_556 S
Zn309 O321 1.898 . S
Zn309 O324 1.905 . S
Zn310 O318 1.905 . S
Zn310 O319 1.898 . S
Zn310 O327 1.920 . S
Zn311 O314 2.080 . S
Zn311 O317 2.114 1_545 S
Zn311 O320 2.120 1_545 S
Zn311 O322 2.120 . S
Zn311 O323 2.114 1_544 S
Zn311 O326 2.080 . S
C312 O317 1.166 . S
C312 O318 1.182 . S
C313 O319 1.167 . S
C313 O320 1.299 . S
O314 Zn311 2.080 . S
O314 C328 1.305 . S
O315 Zn309 1.920 1_554 S
O315 C328 1.234 . S
C316 O321 1.167 . S
C316 O322 1.299 1_556 S
O317 Zn311 2.114 1_565 S
O317 C312 1.166 . S
O318 Zn310 1.905 . S
O318 C312 1.182 . S
O319 Zn310 1.898 . S
O319 C313 1.167 . S
O320 Zn311 2.120 1_565 S
O320 C313 1.299 . S
O321 Zn309 1.898 . S
O321 C316 1.167 . S
O322 Zn311 2.120 . S
O322 C316 1.299 1_554 S
O323 Zn311 2.114 1_566 S
O323 C325 1.166 . S
O324 Zn309 1.905 . S
O324 C325 1.182 1_545 S
C325 O323 1.166 . S
C325 O324 1.182 1_565 S
O326 Zn311 2.080 . S
O326 C329 1.305 . S
O327 Zn310 1.920 . S
O327 C329 1.234 1_565 S
C328 O314 1.305 . S
C328 O315 1.234 . S
C329 O326 1.305 . S
C329 O327 1.234 1_545 S
Zn330 O336 1.920 . S
Zn330 O342 1.898 . S
Zn330 O345 1.905 . S
Zn331 O339 1.905 . S
Zn331 O340 1.898 . S
Zn331 O348 1.920 . S
Zn332 O335 2.080 . S
Zn332 O338 2.114 . S
Zn332 O341 2.120 . S
Zn332 O343 2.120 . S
Zn332 O344 2.114 . S
Zn332 O347 2.080 . S
C333 O338 1.166 . S
C333 O339 1.182 . S
C334 O340 1.167 . S
C334 O341 1.299 . S
O335 Zn332 2.080 . S
O335 C349 1.305 . S
O336 Zn330 1.920 . S
O336 C349 1.234 . S
C337 O342 1.167 . S
C337 O343 1.299 . S
O338 Zn332 2.114 . S
O338 C333 1.166 . S
O339 Zn331 1.905 . S
O339 C333 1.182 . S
O340 Zn331 1.898 . S
O340 C334 1.167 . S
O341 Zn332 2.120 . S
O341 C334 1.299 . S
O342 Zn330 1.898 . S
O342 C337 1.167 . S
O343 Zn332 2.120 . S
O343 C337 1.299 . S
O344 Zn332 2.114 . S
O344 C346 1.166 . S
O345 Zn330 1.905 . S
O345 C346 1.182 . S
C346 O344 1.166 . S
C346 O345 1.182 . S
O347 Zn332 2.080 . S
O347 C350 1.305 . S
O348 Zn331 1.920 . S
O348 C350 1.234 . S
C349 O335 1.305 . S
C349 O336 1.234 . S
C350 O347 1.305 . S
C350 O348 1.234 . S
Zn351 O357 1.920 . S
Zn351 O363 1.898 . S
Zn351 O366 1.905 . S
Zn352 O360 1.905 1_655 S
Zn352 O361 1.898 . S
Zn352 O369 1.920 . S
Zn353 O356 2.080 1_554 S
Zn353 O359 2.114 . S
Zn353 O362 2.120 1_454 S
Zn353 O364 2.120 . S
Zn353 O365 2.114 1_554 S
Zn353 O368 2.080 . S
C354 O359 1.166 . S
C354 O360 1.182 . S
C355 O361 1.167 1_556 S
C355 O362 1.299 . S
O356 Zn353 2.080 1_556 S
O356 C370 1.305 . S
O357 Zn351 1.920 . S
O357 C370 1.234 . S
C358 O363 1.167 1_554 S
C358 O364 1.299 . S
O359 Zn353 2.114 . S
O359 C354 1.166 . S
O360 Zn352 1.905 1_455 S
O360 C354 1.182 . S
O361 Zn352 1.898 . S
O361 C355 1.167 1_554 S
O362 Zn353 2.120 1_656 S
O362 C355 1.299 . S
O363 Zn351 1.898 . S
O363 C358 1.167 1_556 S
O364 Zn353 2.120 . S
O364 C358 1.299 . S
O365 Zn353 2.114 1_556 S
O365 C367 1.166 . S
O366 Zn351 1.905 . S
O366 C367 1.182 . S
C367 O365 1.166 . S
C367 O366 1.182 . S
O368 Zn353 2.080 . S
O368 C371 1.305 1_455 S
O369 Zn352 1.920 . S
O369 C371 1.234 . S
C370 O356 1.305 . S
C370 O357 1.234 . S
C371 O368 1.305 1_655 S
C371 O369 1.234 . S
C372 C373 1.369 . S
C372 C374 1.419 . S
C372 H376 0.930 . S
C373 C372 1.369 . S
C373 C382 1.429 . S
C374 C372 1.419 . S
C374 C375 1.363 . S
C374 H377 0.929 . S
C375 C374 1.363 . S
C375 C381 1.428 . S
H376 C372 0.930 . S
H377 C374 0.929 . S
S378 N379 1.613 1_655 S
S378 N380 1.610 1_655 S
N379 S378 1.613 1_455 S
N379 C382 1.350 . S
N380 S378 1.610 1_455 S
N380 C381 1.351 . S
C381 C375 1.428 . S
C381 N380 1.351 . S
C381 C382 1.434 . S
C382 C373 1.429 . S
C382 N379 1.350 . S
C382 C381 1.434 . S
C383 C384 1.369 . S
C383 C385 1.419 . S
C383 H387 0.930 . S
C384 C383 1.369 . S
C384 C393 1.429 . S
C385 C383 1.419 . S
C385 C386 1.363 . S
C385 H388 0.929 1_565 S
C386 C385 1.363 . S
C386 C392 1.428 . S
H387 C383 0.930 . S
H388 C385 0.929 1_545 S
S389 N390 1.613 . S
S389 N391 1.610 . S
N390 S389 1.613 . S
N390 C393 1.350 . S
N391 S389 1.610 . S
N391 C392 1.351 . S
C392 C386 1.428 . S
C392 N391 1.351 . S
C392 C393 1.434 . S
C393 C384 1.429 . S
C393 N390 1.350 . S
C393 C392 1.434 . S
C394 C395 1.369 . S
C394 C396 1.419 . S
C394 H398 0.930 . S
C395 C394 1.369 . S
C395 C404 1.429 . S
C396 C394 1.419 . S
C396 C397 1.363 . S
C396 H399 0.929 . S
C397 C396 1.363 . S
C397 C403 1.428 . S
H398 C394 0.930 . S
H399 C396 0.929 . S
S400 N401 1.613 . S
S400 N402 1.610 . S
N401 S400 1.613 . S
N401 C404 1.350 . S
N402 S400 1.610 . S
N402 C403 1.351 . S
C403 C397 1.428 . S
C403 N402 1.351 . S
C403 C404 1.434 . S
C404 C395 1.429 . S
C404 N401 1.350 . S
C404 C403 1.434 . S
C405 C406 1.369 . S
C405 C407 1.419 . S
C405 H409 0.930 . S
C406 C405 1.369 . S
C406 C415 1.429 . S
C407 C405 1.419 . S
C407 C408 1.363 . S
C407 H410 0.929 . S
C408 C407 1.363 . S
C408 C414 1.428 . S
H409 C405 0.930 . S
H410 C407 0.929 . S
S411 N412 1.613 . S
S411 N413 1.610 . S
N412 S411 1.613 . S
N412 C415 1.350 . S
N413 S411 1.610 . S
N413 C414 1.351 . S
C414 C408 1.428 . S
C414 N413 1.351 . S
C414 C415 1.434 . S
C415 C406 1.429 . S
C415 N412 1.350 . S
C415 C414 1.434 . S
C416 C417 1.369 . S
C416 C418 1.419 . S
C416 H420 0.930 . S
C417 C416 1.369 . S
C417 C426 1.429 . S
C418 C416 1.419 . S
C418 C419 1.363 . S
C418 H421 0.929 . S
C419 C418 1.363 . S
C419 C425 1.428 . S
H420 C416 0.930 . S
H421 C418 0.929 . S
S422 N423 1.636 . S
S422 N424 1.617 . S
N423 S422 1.636 . S
N423 C426 1.350 . S
N424 S422 1.617 . S
N424 C425 1.351 . S
C425 C419 1.428 . S
C425 N424 1.351 . S
C425 C426 1.434 . S
C426 C417 1.429 . S
C426 N423 1.350 . S
C426 C425 1.434 . S
C427 C428 1.369 . S
C427 C429 1.419 . S
C427 H431 0.930 . S
C428 C427 1.369 . S
C428 C437 1.429 . S
C429 C427 1.419 . S
C429 C430 1.363 . S
C429 H432 0.929 . S
C430 C429 1.363 . S
C430 C436 1.428 . S
H431 C427 0.930 . S
H432 C429 0.929 . S
S433 N434 1.613 . S
S433 N435 1.610 . S
N434 S433 1.613 . S
N434 C437 1.350 . S
N435 S433 1.610 . S
N435 C436 1.351 . S
C436 C430 1.428 . S
C436 N435 1.351 . S
C436 C437 1.434 . S
C437 C428 1.429 . S
C437 N434 1.350 . S
C437 C436 1.434 . S
C438 C439 1.369 . S
C438 C440 1.419 . S
C438 H442 0.930 . S
C439 C438 1.369 . S
C439 C448 1.429 . S
C440 C438 1.419 . S
C440 C441 1.363 . S
C440 H443 0.929 . S
C441 C440 1.363 . S
C441 C447 1.428 . S
H442 C438 0.930 . S
H443 C440 0.929 . S
S444 N445 1.613 . S
S444 N446 1.610 . S
N445 S444 1.613 . S
N445 C448 1.350 . S
N446 S444 1.610 . S
N446 C447 1.351 . S
C447 C441 1.428 . S
C447 N446 1.351 . S
C447 C448 1.434 . S
C448 C439 1.429 . S
C448 N445 1.350 . S
C448 C447 1.434 . S
C449 C450 1.369 . S
C449 C451 1.419 . S
C449 H453 0.930 . S
C450 C449 1.369 . S
C450 C459 1.429 . S
C451 C449 1.419 . S
C451 C452 1.363 . S
C451 H454 0.929 . S
C452 C451 1.363 . S
C452 C458 1.428 . S
H453 C449 0.930 . S
H454 C451 0.929 . S
S455 N456 1.613 . S
S455 N457 1.610 . S
N456 S455 1.613 . S
N456 C459 1.350 . S
N457 S455 1.610 . S
N457 C458 1.351 . S
C458 C452 1.428 . S
C458 N457 1.351 . S
C458 C459 1.434 . S
C459 C450 1.429 . S
C459 N456 1.350 . S
C459 C458 1.434 . S
C460 C461 1.369 . S
C460 C462 1.419 . S
C460 H464 0.930 . S
C461 C460 1.369 . S
C461 C470 1.429 . S
C462 C460 1.419 . S
C462 C463 1.363 . S
C462 H465 0.929 . S
C463 C462 1.363 . S
C463 C469 1.428 . S
H464 C460 0.930 . S
H465 C462 0.929 . S
S466 N467 1.613 1_556 S
S466 N468 1.610 1_556 S
N467 S466 1.613 1_554 S
N467 C470 1.350 . S
N468 S466 1.610 1_554 S
N468 C469 1.351 . S
C469 C463 1.428 . S
C469 N468 1.351 . S
C469 C470 1.434 . S
C470 C461 1.429 . S
C470 N467 1.350 . S
C470 C469 1.434 . S
C471 C472 1.369 . S
C471 C473 1.419 . S
C471 H475 0.930 . S
C472 C471 1.369 . S
C472 C481 1.429 . S
C473 C471 1.419 . S
C473 C474 1.363 . S
C473 H476 0.929 . S
C474 C473 1.363 . S
C474 C480 1.428 . S
H475 C471 0.930 . S
H476 C473 0.929 . S
S477 N478 1.613 . S
S477 N479 1.610 . S
N478 S477 1.613 . S
N478 C481 1.350 . S
N479 S477 1.610 . S
N479 C480 1.351 . S
C480 C474 1.428 . S
C480 N479 1.351 . S
C480 C481 1.434 . S
C481 C472 1.429 . S
C481 N478 1.350 . S
C481 C480 1.434 . S
C482 C483 1.369 . S
C482 C484 1.419 . S
C482 H486 0.930 . S
C483 C482 1.369 . S
C483 C492 1.429 . S
C484 C482 1.419 . S
C484 C485 1.363 . S
C484 H487 0.929 . S
C485 C484 1.363 . S
C485 C491 1.428 . S
H486 C482 0.930 . S
H487 C484 0.929 . S
S488 N489 1.613 1_455 S
S488 N490 1.610 . S
N489 S488 1.613 1_655 S
N489 C492 1.350 . S
N490 S488 1.610 . S
N490 C491 1.351 1_455 S
C491 C485 1.428 . S
C491 N490 1.351 1_655 S
C491 C492 1.434 . S
C492 C483 1.429 . S
C492 N489 1.350 . S
C492 C491 1.434 . S
C493 C494 1.369 . S
C493 C495 1.419 . S
C493 H497 0.930 . S
C494 C493 1.369 . S
C494 C503 1.429 . S
C495 C493 1.419 . S
C495 C496 1.363 . S
C495 H498 0.929 . S
C496 C495 1.363 . S
C496 C502 1.428 . S
H497 C493 0.930 . S
H498 C495 0.929 . S
S499 N500 1.613 . S
S499 N501 1.610 . S
N500 S499 1.613 . S
N500 C503 1.350 . S
N501 S499 1.610 . S
N501 C502 1.351 . S
C502 C496 1.428 . S
C502 N501 1.351 . S
C502 C503 1.434 . S
C503 C494 1.429 . S
C503 N500 1.350 . S
C503 C502 1.434 . S
C504 C505 1.369 1_565 S
C504 C506 1.419 . S
C504 H508 0.930 . S
C505 C504 1.369 1_545 S
C505 C514 1.429 1_655 S
C506 C504 1.419 . S
C506 C507 1.363 1_565 S
C506 H509 0.929 . S
C507 C506 1.363 1_545 S
C507 C513 1.428 1_655 S
H508 C504 0.930 . S
H509 C506 0.929 . S
S510 N511 1.613 . S
S510 N512 1.610 . S
N511 S510 1.613 . S
N511 C514 1.350 . S
N512 S510 1.610 . S
N512 C513 1.351 . S
C513 C507 1.428 1_455 S
C513 N512 1.351 . S
C513 C514 1.434 . S
C514 C505 1.429 1_455 S
C514 N511 1.350 . S
C514 C513 1.434 . S
C515 C516 1.369 1_565 S
C515 C517 1.419 . S
C515 H519 0.930 . S
C516 C515 1.369 1_545 S
C516 C525 1.429 . S
C517 C515 1.419 . S
C517 C518 1.363 1_565 S
C517 H520 0.929 . S
C518 C517 1.363 1_545 S
C518 C524 1.428 . S
H519 C515 0.930 . S
H520 C517 0.929 . S
S521 N522 1.613 . S
S521 N523 1.610 . S
N522 S521 1.613 . S
N522 C525 1.350 . S
N523 S521 1.610 . S
N523 C524 1.351 . S
C524 C518 1.428 . S
C524 N523 1.351 . S
C524 C525 1.434 . S
C525 C516 1.429 . S
C525 N522 1.350 . S
C525 C524 1.434 . S
C526 C527 1.369 . S
C526 C528 1.419 . S
C526 H530 0.930 . S
C527 C526 1.369 . S
C527 C536 1.429 . S
C528 C526 1.419 . S
C528 C529 1.363 . S
C528 H531 0.929 . S
C529 C528 1.363 . S
C529 C535 1.428 . S
H530 C526 0.930 . S
H531 C528 0.929 . S
S532 N533 1.613 . S
S532 N534 1.610 . S
N533 S532 1.613 . S
N533 C536 1.350 . S
N534 S532 1.610 . S
N534 C535 1.351 . S
C535 C529 1.428 . S
C535 N534 1.351 . S
C535 C536 1.434 . S
C536 C527 1.429 . S
C536 N533 1.350 . S
C536 C535 1.434 . S
C537 C538 1.369 . S
C537 C539 1.419 . S
C537 H541 0.930 . S
C538 C537 1.369 . S
C538 C547 1.429 . S
C539 C537 1.419 . S
C539 C540 1.363 . S
C539 H542 0.929 . S
C540 C539 1.363 . S
C540 C546 1.428 . S
H541 C537 0.930 . S
H542 C539 0.929 . S
S543 N544 1.613 1_655 S
S543 N545 1.610 1_655 S
N544 S543 1.613 1_455 S
N544 C547 1.350 . S
N545 S543 1.610 1_455 S
N545 C546 1.351 . S
C546 C540 1.428 . S
C546 N545 1.351 . S
C546 C547 1.434 . S
C547 C538 1.429 . S
C547 N544 1.350 . S
C547 C546 1.434 . S
C548 C549 1.369 1_545 S
C548 C550 1.419 . S
C548 H552 0.930 1_554 S
C549 C548 1.369 1_565 S
C549 C558 1.429 . S
C550 C548 1.419 . S
C550 C551 1.372 1_545 S
C550 H553 0.920 1_554 S
C551 C550 1.372 1_565 S
C551 C557 1.428 . S
H552 C548 0.930 1_556 S
H553 C550 0.920 1_556 S
S554 N555 1.613 . S
S554 N556 1.610 . S
N555 S554 1.613 . S
N555 C558 1.350 . S
N556 S554 1.610 . S
N556 C557 1.351 . S
C557 C551 1.428 . S
C557 N556 1.351 . S
C557 C558 1.434 . S
C558 C549 1.429 . S
C558 N555 1.350 . S
C558 C557 1.434 . S
C559 C560 1.369 . S
C559 C561 1.419 . S
C559 H563 0.930 1_545 S
C560 C559 1.369 . S
C560 C569 1.429 . S
C561 C559 1.419 . S
C561 C562 1.363 . S
C561 H564 0.926 1_545 S
C562 C561 1.363 . S
C562 C568 1.428 . S
H563 C559 0.930 1_565 S
H564 C561 0.926 1_565 S
S565 N566 1.613 . S
S565 N567 1.610 . S
N566 S565 1.613 . S
N566 C569 1.350 . S
N567 S565 1.610 . S
N567 C568 1.351 . S
C568 C562 1.428 . S
C568 N567 1.351 . S
C568 C569 1.434 . S
C569 C560 1.429 . S
C569 N566 1.350 . S
C569 C568 1.434 . S
C570 C571 1.369 . S
C570 C572 1.419 . S
C570 H574 0.930 . S
C571 C570 1.369 . S
C571 C580 1.429 1_554 S
C572 C570 1.419 . S
C572 C573 1.363 . S
C572 H575 0.929 . S
C573 C572 1.363 . S
C573 C579 1.428 1_554 S
H574 C570 0.930 . S
H575 C572 0.929 . S
S576 N577 1.613 . S
S576 N578 1.610 . S
N577 S576 1.613 . S
N577 C580 1.350 . S
N578 S576 1.610 . S
N578 C579 1.351 . S
C579 C573 1.428 1_556 S
C579 N578 1.351 . S
C579 C580 1.434 . S
C580 C571 1.429 1_556 S
C580 N577 1.350 . S
C580 C579 1.434 . S
C581 C582 1.369 . S
C581 C583 1.419 . S
C581 H585 0.930 . S
C582 C581 1.369 . S
C582 C591 1.429 . S
C583 C581 1.419 . S
C583 C584 1.363 . S
C583 H586 0.929 . S
C584 C583 1.363 . S
C584 C590 1.428 . S
H585 C581 0.930 . S
H586 C583 0.929 . S
S587 N588 1.613 . S
S587 N589 1.610 . S
N588 S587 1.613 . S
N588 C591 1.350 . S
N589 S587 1.610 . S
N589 C590 1.351 . S
C590 C584 1.428 . S
C590 N589 1.351 . S
C590 C591 1.434 . S
C591 C582 1.429 . S
C591 N588 1.350 . S
C591 C590 1.434 . S
C592 C593 1.369 1_654 S
C592 C594 1.419 . S
C592 H596 0.930 . S
C593 C592 1.369 1_456 S
C593 C602 1.429 . S
C594 C592 1.419 . S
C594 C595 1.363 1_654 S
C594 H597 0.929 . S
C595 C594 1.363 1_456 S
C595 C601 1.428 . S
H596 C592 0.930 . S
H597 C594 0.929 . S
S598 N599 1.613 . S
S598 N600 1.610 . S
N599 S598 1.613 . S
N599 C602 1.350 . S
N600 S598 1.610 . S
N600 C601 1.351 . S
C601 C595 1.428 . S
C601 N600 1.351 . S
C601 C602 1.434 . S
C602 C593 1.429 . S
C602 N599 1.350 . S
C602 C601 1.434 . S
C603 C604 1.369 . S
C603 C605 1.419 . S
C603 H607 0.930 . S
C604 C603 1.369 . S
C604 C613 1.429 . S
C605 C603 1.419 . S
C605 C606 1.363 . S
C605 H608 0.929 . S
C606 C605 1.363 . S
C606 C612 1.428 . S
H607 C603 0.930 . S
H608 C605 0.929 . S
S609 N610 1.613 . S
S609 N611 1.610 . S
N610 S609 1.613 . S
N610 C613 1.350 1_556 S
N611 S609 1.610 . S
N611 C612 1.351 1_556 S
C612 C606 1.428 . S
C612 N611 1.351 1_554 S
C612 C613 1.434 . S
C613 C604 1.429 . S
C613 N610 1.350 1_554 S
C613 C612 1.434 . S
C614 C615 1.369 . S
C614 C616 1.419 . S
C614 H618 0.933 . S
C615 C614 1.369 . S
C615 C624 1.429 . S
C616 C614 1.419 . S
C616 C617 1.363 . S
C616 H619 0.922 1_455 S
C617 C616 1.363 . S
C617 C623 1.428 . S
H618 C614 0.933 . S
H619 C616 0.922 1_655 S
S620 N621 1.613 . S
S620 N622 1.610 . S
N621 S620 1.613 . S
N621 C624 1.350 . S
N622 S620 1.610 . S
N622 C623 1.351 . S
C623 C617 1.428 . S
C623 N622 1.351 . S
C623 C624 1.434 . S
C624 C615 1.429 . S
C624 N621 1.350 . S
C624 C623 1.434 . S
C625 C626 1.369 . S
C625 C627 1.419 . S
C625 H629 0.930 . S
C626 C625 1.369 . S
C626 C635 1.429 . S
C627 C625 1.419 . S
C627 C628 1.363 . S
C627 H630 0.929 . S
C628 C627 1.363 . S
C628 C634 1.428 . S
H629 C625 0.930 . S
H630 C627 0.929 . S
S631 N632 1.613 . S
S631 N633 1.610 . S
N632 S631 1.613 . S
N632 C635 1.350 . S
N633 S631 1.610 . S
N633 C634 1.351 . S
C634 C628 1.428 . S
C634 N633 1.351 . S
C634 C635 1.434 . S
C635 C626 1.429 . S
C635 N632 1.350 . S
C635 C634 1.434 . S
C373 C1 1.531 . S
C375 C291 1.435 . S
C384 C67 1.517 . S
C386 C325 1.427 . S
C397 C337 1.390 . S
C395 C97 1.487 . S
C406 C133 1.513 . S
C408 C371 1.422 . S
C419 C328 1.419 . S
C417 C25 1.521 . S
C430 C308 1.417 . S
C428 C37 1.508 . S
C441 C355 1.406 . S
C439 C103 1.498 . S
C452 C346 1.413 . S
C450 C109 1.509 . S
C461 C31 1.530 . S
C463 C354 1.433 . S
C474 C316 1.397 . S
C472 C73 1.495 . S
C483 C139 1.518 . S
C485 C292 1.408 . S
C494 C61 1.507 . S
C496 C349 1.406 . S
C507 C307 1.671 . S
C505 C175 1.779 . S
C516 C181 1.692 . S
C518 C329 1.665 . S
C527 C247 1.793 . S
C529 C334 1.696 . S
C538 C277 1.797 . S
C540 C367 1.696 . S
C549 C145 1.767 . S
C551 C312 1.685 . S
C562 C304 1.693 . S
C560 C211 1.703 . S
C573 C358 1.680 . S
C571 C217 1.778 . S
C584 C350 1.681 . S
C582 C283 1.785 . S
C593 C169 1.760 . S
C595 C370 1.659 . S
C606 C313 1.687 . S
C604 C241 1.790 . S
C617 C295 1.666 . S
C615 C253 1.761 . S
C626 C205 1.698 . S
C628 C333 1.685 . S
