# Generated by pormake.
# Topology pyr, (3,6)-cn, num edge types: 1
# Building blocks:
#     Node 0, Type 0, BuildingBlock: VETTIZ_charged_linker_0, # of connection points: 3
#     Node 1, Type 0, BuildingBlock: VETTIZ_charged_linker_0, # of connection points: 3
#     Node 2, Type 0, BuildingBlock: VETTIZ_charged_linker_0, # of connection points: 3
#     Node 3, Type 0, BuildingBlock: VETTIZ_charged_linker_0, # of connection points: 3
#     Node 4, Type 0, BuildingBlock: VETTIZ_charged_linker_0, # of connection points: 3
#     Node 5, Type 0, BuildingBlock: VETTIZ_charged_linker_0, # of connection points: 3
#     Node 6, Type 0, BuildingBlock: VETTIZ_charged_linker_0, # of connection points: 3
#     Node 7, Type 0, BuildingBlock: VETTIZ_charged_linker_0, # of connection points: 3
#     Node 8, Type 1, BuildingBlock: BETFEN_clean_sbu_0, # of connection points: 6
#     Node 9, Type 1, BuildingBlock: BETFEN_clean_sbu_0, # of connection points: 6
#     Node 10, Type 1, BuildingBlock: BETFEN_clean_sbu_0, # of connection points: 6
#     Node 11, Type 1, BuildingBlock: BETFEN_clean_sbu_0, # of connection points: 6
#     Edge 12, Type (0, 1), BuildingBlock: UVAHIK_clean_linker_0, # of connection points: 2
#     Edge 13, Type (0, 1), BuildingBlock: UVAHIK_clean_linker_0, # of connection points: 2
#     Edge 14, Type (0, 1), BuildingBlock: UVAHIK_clean_linker_0, # of connection points: 2
#     Edge 15, Type (0, 1), BuildingBlock: UVAHIK_clean_linker_0, # of connection points: 2
#     Edge 16, Type (0, 1), BuildingBlock: UVAHIK_clean_linker_0, # of connection points: 2
#     Edge 17, Type (0, 1), BuildingBlock: UVAHIK_clean_linker_0, # of connection points: 2
#     Edge 18, Type (0, 1), BuildingBlock: UVAHIK_clean_linker_0, # of connection points: 2
#     Edge 19, Type (0, 1), BuildingBlock: UVAHIK_clean_linker_0, # of connection points: 2
#     Edge 20, Type (0, 1), BuildingBlock: UVAHIK_clean_linker_0, # of connection points: 2
#     Edge 21, Type (0, 1), BuildingBlock: UVAHIK_clean_linker_0, # of connection points: 2
#     Edge 22, Type (0, 1), BuildingBlock: UVAHIK_clean_linker_0, # of connection points: 2
#     Edge 23, Type (0, 1), BuildingBlock: UVAHIK_clean_linker_0, # of connection points: 2
#     Edge 24, Type (0, 1), BuildingBlock: UVAHIK_clean_linker_0, # of connection points: 2
#     Edge 25, Type (0, 1), BuildingBlock: UVAHIK_clean_linker_0, # of connection points: 2
#     Edge 26, Type (0, 1), BuildingBlock: UVAHIK_clean_linker_0, # of connection points: 2
#     Edge 27, Type (0, 1), BuildingBlock: UVAHIK_clean_linker_0, # of connection points: 2
#     Edge 28, Type (0, 1), BuildingBlock: UVAHIK_clean_linker_0, # of connection points: 2
#     Edge 29, Type (0, 1), BuildingBlock: UVAHIK_clean_linker_0, # of connection points: 2
#     Edge 30, Type (0, 1), BuildingBlock: UVAHIK_clean_linker_0, # of connection points: 2
#     Edge 31, Type (0, 1), BuildingBlock: UVAHIK_clean_linker_0, # of connection points: 2
#     Edge 32, Type (0, 1), BuildingBlock: UVAHIK_clean_linker_0, # of connection points: 2
#     Edge 33, Type (0, 1), BuildingBlock: UVAHIK_clean_linker_0, # of connection points: 2
#     Edge 34, Type (0, 1), BuildingBlock: UVAHIK_clean_linker_0, # of connection points: 2
#     Edge 35, Type (0, 1), BuildingBlock: UVAHIK_clean_linker_0, # of connection points: 2
# Relax obj value: 0.112
# Max RMSD: 0.216
# Mean RMSD: 0.105
data_MOF--net-pyr--node1-BETFEN_clean_sbu_0--node2-VETTIZ_charged_linker_0--edge1-UVAHIK_clean_linker_0
_symmetry_space_group_name_H-M    P1
_symmetry_Int_Tables_number       1
_symmetry_cell_setting            triclinic
loop_
_symmetry_equiv_pos_as_xyz
'x, y, z'
_cell_length_a     55.622102
_cell_length_b     60.404938
_cell_length_c     57.183764
_cell_angle_alpha  91.402318
_cell_angle_beta   97.315803
_cell_angle_gamma 106.0381
loop_
_atom_site_label
_atom_site_type_symbol
_atom_site_fract_x
_atom_site_fract_y
_atom_site_fract_z
_atom_type_partial_charge
C0 C 0.26208 0.2555 0.30889 0.0
C1 C 0.24334 0.26589 0.31346 0.0
C2 C 0.24238 0.28648 0.30288 0.0
C3 C 0.2763 0.28419 0.28096 0.0
C4 C 0.27839 0.26497 0.29274 0.0
C5 C 0.2985 0.25534 0.28496 0.0
H6 H 0.37563 0.24994 0.20453 0.0
C7 C 0.29393 0.28789 0.2632 0.0
C8 C 0.30727 0.27128 0.26572 0.0
H9 H 0.36321 0.20977 0.2657 0.0
H10 H 0.33729 0.23265 0.27817 0.0
H11 H 0.38211 0.30094 0.23298 0.0
H12 H 0.32086 0.25057 0.19068 0.0
H13 H 0.31761 0.27773 0.18355 0.0
H14 H 0.3455 0.27005 0.17775 0.0
H15 H 0.38078 0.29589 0.2017 0.0
H16 H 0.36583 0.31579 0.21359 0.0
C17 C 0.31962 0.25793 0.3062 0.0
C18 C 0.28578 0.23012 0.275 0.0
C19 C 0.28707 0.34411 0.19999 0.0
C20 C 0.29727 0.34821 0.17873 0.0
C21 C 0.31562 0.33745 0.17363 0.0
C22 C 0.32325 0.32235 0.18926 0.0
C23 C 0.31202 0.31761 0.20997 0.0
C24 C 0.29448 0.32866 0.21515 0.0
C25 C 0.28324 0.32046 0.23703 0.0
C26 C 0.29704 0.30274 0.24427 0.0
C27 C 0.31384 0.30112 0.22835 0.0
C28 C 0.29002 0.34116 0.25554 0.0
C29 C 0.25447 0.30933 0.22975 0.0
C30 C 0.36776 0.24639 0.22087 0.0
C31 C 0.37126 0.22788 0.23404 0.0
C32 C 0.36043 0.22369 0.25506 0.0
C33 C 0.34541 0.23701 0.26228 0.0
C34 C 0.3409 0.25458 0.24823 0.0
C35 C 0.35256 0.25947 0.22828 0.0
C36 C 0.34548 0.27874 0.21553 0.0
C37 C 0.32767 0.28458 0.23115 0.0
C38 C 0.32477 0.27009 0.25003 0.0
C39 C 0.36973 0.29895 0.21572 0.0
C40 C 0.33179 0.26901 0.1905 0.0
H41 H 0.2567 0.31104 0.27856 0.0
H42 H 0.26347 0.23988 0.31718 0.0
H43 H 0.26757 0.22883 0.26368 0.0
H44 H 0.29711 0.22346 0.26363 0.0
H45 H 0.28171 0.21834 0.28951 0.0
H46 H 0.32029 0.27241 0.31891 0.0
H47 H 0.31664 0.242 0.31606 0.0
H48 H 0.3387 0.2623 0.30076 0.0
H49 H 0.27252 0.35175 0.20411 0.0
H50 H 0.32371 0.34043 0.15733 0.0
H51 H 0.33705 0.31443 0.18427 0.0
H52 H 0.30897 0.35304 0.25415 0.0
H53 H 0.2761 0.3513 0.25297 0.0
H54 H 0.2914 0.33583 0.27391 0.0
H55 H 0.25068 0.29956 0.21229 0.0
H56 H 0.24589 0.29654 0.24189 0.0
H57 H 0.24416 0.32268 0.2283 0.0
H58 H 0.22811 0.29478 0.3063 0.0
C59 C 0.25883 0.29573 0.28666 0.0
C60 C 0.23003 0.85004 0.63268 0.0
C61 C 0.22505 0.86941 0.64299 0.0
C62 C 0.23726 0.8782 0.66576 0.0
C63 C 0.2594 0.84887 0.66761 0.0
C64 C 0.24747 0.84019 0.64523 0.0
C65 C 0.25627 0.82035 0.63664 0.0
H66 H 0.33387 0.7516 0.6569 0.0
C67 C 0.27672 0.83518 0.67575 0.0
C68 C 0.27512 0.81844 0.6577 0.0
H69 H 0.28175 0.75121 0.59386 0.0
H70 H 0.2683 0.78155 0.61207 0.0
H71 H 0.35452 0.80538 0.66521 0.0
H72 H 0.29587 0.75577 0.69388 0.0
H73 H 0.31218 0.77604 0.71708 0.0
H74 H 0.32878 0.75886 0.70297 0.0
H75 H 0.36113 0.78586 0.68663 0.0
H76 H 0.35736 0.81345 0.69535 0.0
C77 C 0.26919 0.8275 0.61445 0.0
C78 C 0.23329 0.79863 0.63237 0.0
C79 C 0.32957 0.8554 0.75651 0.0
C80 C 0.34803 0.84651 0.76883 0.0
C81 C 0.35346 0.82726 0.75866 0.0
C82 C 0.34115 0.8174 0.73635 0.0
C83 C 0.32322 0.82688 0.72401 0.0
C84 C 0.31753 0.84541 0.73426 0.0
C85 C 0.29817 0.85337 0.71859 0.0
C86 C 0.29323 0.83663 0.69715 0.0
C87 C 0.30797 0.82122 0.70039 0.0
C88 C 0.31046 0.87863 0.71279 0.0
C89 C 0.27452 0.85001 0.73131 0.0
C90 C 0.31925 0.75773 0.64709 0.0
C91 C 0.30878 0.74888 0.62394 0.0
C92 C 0.29025 0.75784 0.61166 0.0
C93 C 0.28244 0.77542 0.62229 0.0
C94 C 0.29342 0.78428 0.64536 0.0
C95 C 0.31138 0.77526 0.65737 0.0
C96 C 0.32139 0.78683 0.68156 0.0
C97 C 0.30664 0.80443 0.68213 0.0
C98 C 0.29027 0.80295 0.66091 0.0
C99 C 0.35012 0.79841 0.68249 0.0
C100 C 0.31445 0.76853 0.69997 0.0
H101 H 0.26289 0.87554 0.69541 0.0
H102 H 0.22103 0.84311 0.61509 0.0
H103 H 0.22122 0.79772 0.6466 0.0
H104 H 0.23874 0.78239 0.63266 0.0
H105 H 0.22143 0.79891 0.61527 0.0
H106 H 0.27973 0.84615 0.61611 0.0
H107 H 0.25504 0.82448 0.5983 0.0
H108 H 0.2835 0.81849 0.61181 0.0
H109 H 0.32467 0.86996 0.76395 0.0
H110 H 0.36776 0.8202 0.76767 0.0
H111 H 0.34639 0.80299 0.72943 0.0
H112 H 0.33116 0.88201 0.71272 0.0
H113 H 0.30771 0.89115 0.72602 0.0
H114 H 0.3033 0.88262 0.69493 0.0
H115 H 0.27122 0.83399 0.7411 0.0
H116 H 0.25691 0.84778 0.71902 0.0
H117 H 0.27683 0.8647 0.74428 0.0
H118 H 0.23349 0.89298 0.67406 0.0
C119 C 0.25427 0.86799 0.67815 0.0
C120 C 0.60556 0.25012 0.86042 0.0
C121 C 0.58031 0.23765 0.85285 0.0
C122 C 0.56697 0.24538 0.8335 0.0
C123 C 0.60347 0.27833 0.83116 0.0
C124 C 0.61649 0.27028 0.84973 0.0
C125 C 0.64246 0.28598 0.85747 0.0
H126 H 0.73166 0.38605 0.85056 0.0
C127 C 0.62034 0.3006 0.82506 0.0
C128 C 0.64306 0.30504 0.84072 0.0
H129 H 0.734 0.33174 0.89797 0.0
H130 H 0.69309 0.30917 0.87934 0.0
H131 H 0.67524 0.38524 0.85329 0.0
H132 H 0.70845 0.35204 0.80417 0.0
H133 H 0.68431 0.36058 0.78734 0.0
H134 H 0.71038 0.38217 0.80406 0.0
H135 H 0.69188 0.40045 0.83097 0.0
H136 H 0.65843 0.38609 0.82538 0.0
C137 C 0.64386 0.29463 0.88356 0.0
C138 C 0.66184 0.27265 0.85319 0.0
C139 C 0.59316 0.3468 0.75756 0.0
C140 C 0.60512 0.36856 0.74975 0.0
C141 C 0.62912 0.38102 0.76121 0.0
C142 C 0.64125 0.37212 0.78005 0.0
C143 C 0.62922 0.35052 0.78785 0.0
C144 C 0.60549 0.33821 0.77686 0.0
C145 C 0.59543 0.31603 0.78871 0.0
C146 C 0.61743 0.31682 0.80791 0.0
C147 C 0.6371 0.33717 0.80717 0.0
C148 C 0.57161 0.31747 0.79925 0.0
C149 C 0.59059 0.29551 0.77041 0.0
C150 C 0.72326 0.36934 0.85697 0.0
C151 C 0.73613 0.3607 0.87579 0.0
C152 C 0.72467 0.33871 0.88333 0.0
C153 C 0.70077 0.32566 0.87257 0.0
C154 C 0.68796 0.33463 0.85403 0.0
C155 C 0.69933 0.35599 0.84633 0.0
C156 C 0.68301 0.36248 0.82612 0.0
C157 C 0.65981 0.34164 0.82327 0.0
C158 C 0.66282 0.32552 0.83973 0.0
C159 C 0.67686 0.3848 0.8341 0.0
C160 C 0.69717 0.36464 0.80423 0.0
H161 H 0.56731 0.27075 0.80812 0.0
H162 H 0.61674 0.24453 0.87476 0.0
H163 H 0.65488 0.2605 0.83727 0.0
H164 H 0.68006 0.28407 0.84954 0.0
H165 H 0.66532 0.26237 0.86844 0.0
H166 H 0.62522 0.2962 0.8873 0.0
H167 H 0.64948 0.28252 0.89599 0.0
H168 H 0.65686 0.3121 0.88799 0.0
H169 H 0.57454 0.33702 0.74916 0.0
H170 H 0.63862 0.39774 0.75541 0.0
H171 H 0.65953 0.38255 0.78789 0.0
H172 H 0.57416 0.33517 0.80705 0.0
H173 H 0.55479 0.3133 0.78543 0.0
H174 H 0.56753 0.30602 0.81384 0.0
H175 H 0.6069 0.29769 0.76041 0.0
H176 H 0.58829 0.27887 0.77864 0.0
H177 H 0.57349 0.2943 0.75752 0.0
H178 H 0.54748 0.23616 0.82719 0.0
C179 C 0.57844 0.2656 0.82258 0.0
C180 C 0.90635 0.73726 0.3534 0.0
C181 C 0.89798 0.74865 0.37135 0.0
C182 C 0.87686 0.73623 0.38147 0.0
C183 C 0.87212 0.70235 0.35568 0.0
C184 C 0.89299 0.71415 0.34574 0.0
C185 C 0.89841 0.69924 0.32649 0.0
H186 H 0.86433 0.59766 0.2587 0.0
C187 C 0.86205 0.6789 0.34377 0.0
C188 C 0.87722 0.6768 0.32651 0.0
H189 H 0.92899 0.65689 0.25684 0.0
H190 H 0.91669 0.67628 0.28844 0.0
H191 H 0.87097 0.59854 0.31778 0.0
H192 H 0.82334 0.62659 0.26805 0.0
H193 H 0.80579 0.61094 0.28896 0.0
H194 H 0.81939 0.59607 0.26892 0.0
H195 H 0.84573 0.58027 0.29723 0.0
H196 H 0.83986 0.59146 0.32476 0.0
C197 C 0.92476 0.69574 0.33405 0.0
C198 C 0.89607 0.7111 0.30297 0.0
C199 C 0.78427 0.62546 0.37054 0.0
C200 C 0.76889 0.60302 0.36348 0.0
C201 C 0.77559 0.59086 0.34502 0.0
C202 C 0.79683 0.60108 0.33372 0.0
C203 C 0.81176 0.62374 0.34092 0.0
C204 C 0.8052 0.63536 0.35913 0.0
C205 C 0.82256 0.65923 0.36471 0.0
C206 C 0.84092 0.66027 0.34705 0.0
C207 C 0.83476 0.63951 0.33296 0.0
C208 C 0.83571 0.66054 0.39055 0.0
C209 C 0.80671 0.67658 0.35979 0.0
C210 C 0.87601 0.61473 0.26512 0.0
C211 C 0.89759 0.62567 0.25451 0.0
C212 C 0.91192 0.64804 0.26379 0.0
C213 C 0.90487 0.65934 0.28246 0.0
C214 C 0.88323 0.64836 0.29252 0.0
C215 C 0.8693 0.62628 0.28403 0.0
C216 C 0.84723 0.61709 0.2975 0.0
C217 C 0.85007 0.6373 0.31518 0.0
C218 C 0.87125 0.65574 0.31208 0.0
C219 C 0.8509 0.59559 0.30994 0.0
C220 C 0.82252 0.61223 0.28003 0.0
H221 H 0.84817 0.70521 0.38247 0.0
H222 H 0.92253 0.74624 0.34524 0.0
H223 H 0.87942 0.71805 0.3013 0.0
H224 H 0.89303 0.69917 0.28728 0.0
H225 H 0.91312 0.72573 0.30207 0.0
H226 H 0.92804 0.69405 0.35345 0.0
H227 H 0.94 0.71062 0.32966 0.0
H228 H 0.92684 0.67968 0.32604 0.0
H229 H 0.78028 0.6353 0.3849 0.0
H230 H 0.76414 0.57359 0.339 0.0
H231 H 0.80073 0.59102 0.31969 0.0
H232 H 0.83899 0.64372 0.39515 0.0
H233 H 0.82399 0.66494 0.40328 0.0
H234 H 0.85471 0.67301 0.3936 0.0
H235 H 0.79051 0.66956 0.34556 0.0
H236 H 0.81751 0.69289 0.35319 0.0
H237 H 0.79887 0.68054 0.37579 0.0
H238 H 0.87026 0.7442 0.3956 0.0
C239 C 0.86403 0.71337 0.37384 0.0
C240 C 0.74966 0.70184 0.8485 0.0
C241 C 0.77345 0.70013 0.84433 0.0
C242 C 0.78176 0.7064 0.82253 0.0
C243 C 0.74352 0.71719 0.81004 0.0
C244 C 0.73515 0.71059 0.83125 0.0
C245 C 0.71034 0.71528 0.83355 0.0
H246 H 0.62862 0.77503 0.79789 0.0
C247 C 0.72483 0.72699 0.79662 0.0
C248 C 0.70527 0.72586 0.81023 0.0
H249 H 0.6292 0.73348 0.85848 0.0
H250 H 0.66104 0.71854 0.84446 0.0
H251 H 0.62988 0.73346 0.76119 0.0
H252 H 0.68678 0.79257 0.79574 0.0
H253 H 0.69005 0.79094 0.7655 0.0
H254 H 0.66115 0.79412 0.77387 0.0
H255 H 0.63533 0.76127 0.74919 0.0
H256 H 0.65265 0.74131 0.74198 0.0
C257 C 0.69034 0.69202 0.83557 0.0
C258 C 0.71479 0.73279 0.85503 0.0
C259 C 0.74304 0.76259 0.71895 0.0
C260 C 0.73038 0.77465 0.70334 0.0
C261 C 0.70699 0.77727 0.70804 0.0
C262 C 0.69676 0.76859 0.72825 0.0
C263 C 0.71011 0.75727 0.74405 0.0
C264 C 0.73258 0.75404 0.73903 0.0
C265 C 0.74416 0.74164 0.75783 0.0
C266 C 0.72471 0.73767 0.77479 0.0
C267 C 0.70503 0.74717 0.76681 0.0
C268 C 0.7457 0.71863 0.74644 0.0
C269 C 0.76999 0.75813 0.76902 0.0
C270 C 0.63512 0.76237 0.80799 0.0
C271 C 0.62695 0.75617 0.82986 0.0
C272 C 0.63585 0.73934 0.8421 0.0
C273 C 0.65437 0.73066 0.83396 0.0
C274 C 0.66413 0.73887 0.81337 0.0
C275 C 0.6535 0.75338 0.80003 0.0
C276 C 0.66517 0.75902 0.77778 0.0
C277 C 0.68569 0.74674 0.78089 0.0
C278 C 0.68534 0.73544 0.80207 0.0
C279 C 0.6448 0.74841 0.75633 0.0
C280 C 0.67633 0.78555 0.77802 0.0
H281 H 0.77434 0.7194 0.78918 0.0
H282 H 0.74291 0.69727 0.86518 0.0
H283 H 0.73231 0.74709 0.85461 0.0
H284 H 0.69961 0.74116 0.8555 0.0
H285 H 0.71696 0.72432 0.87188 0.0
H286 H 0.69508 0.67742 0.82681 0.0
H287 H 0.689 0.68815 0.85433 0.0
H288 H 0.67141 0.69162 0.82648 0.0
H289 H 0.76121 0.76052 0.71611 0.0
H290 H 0.69665 0.78619 0.69616 0.0
H291 H 0.67912 0.77143 0.73104 0.0
H292 H 0.72872 0.71083 0.73324 0.0
H293 H 0.76256 0.72138 0.73717 0.0
H294 H 0.74601 0.70535 0.75933 0.0
H295 H 0.76981 0.77649 0.76861 0.0
H296 H 0.77484 0.75565 0.78792 0.0
H297 H 0.78548 0.75622 0.75937 0.0
H298 H 0.79989 0.7049 0.81885 0.0
C299 C 0.76686 0.71476 0.80532 0.0
C300 C 0.79873 0.1707 0.40422 0.0
C301 C 0.80982 0.15627 0.3923 0.0
C302 C 0.80296 0.15151 0.36776 0.0
C303 C 0.77374 0.1747 0.36734 0.0
C304 C 0.78101 0.18 0.39132 0.0
C305 C 0.76806 0.19654 0.40071 0.0
H306 H 0.68744 0.26235 0.37796 0.0
C307 C 0.75475 0.18668 0.35914 0.0
C308 C 0.75158 0.19987 0.37848 0.0
H309 H 0.72924 0.25617 0.44525 0.0
H310 H 0.74711 0.22871 0.42706 0.0
H311 H 0.66829 0.21076 0.36583 0.0
H312 H 0.73084 0.26169 0.34447 0.0
H313 H 0.71431 0.24404 0.31924 0.0
H314 H 0.69826 0.26013 0.33541 0.0
H315 H 0.66408 0.22773 0.3412 0.0
H316 H 0.67126 0.20054 0.33771 0.0
C317 C 0.7521 0.18455 0.41951 0.0
C318 C 0.78854 0.21912 0.41008 0.0
C319 C 0.7084 0.16926 0.27541 0.0
C320 C 0.68826 0.17616 0.26333 0.0
C321 C 0.67968 0.19313 0.27435 0.0
C322 C 0.6904 0.20247 0.29719 0.0
C323 C 0.70978 0.19466 0.30936 0.0
C324 C 0.71866 0.17853 0.29836 0.0
C325 C 0.73897 0.1719 0.31417 0.0
C326 C 0.74016 0.18615 0.33677 0.0
C327 C 0.72314 0.1995 0.33376 0.0
C328 C 0.72961 0.14564 0.31738 0.0
C329 C 0.76387 0.17954 0.30319 0.0
C330 C 0.70079 0.25535 0.38866 0.0
C331 C 0.70745 0.26166 0.41286 0.0
C332 C 0.72412 0.25162 0.42648 0.0
C333 C 0.73445 0.23577 0.41588 0.0
C334 C 0.72767 0.22969 0.3915 0.0
C335 C 0.71082 0.23928 0.37847 0.0
C336 C 0.70409 0.2297 0.3533 0.0
C337 C 0.72053 0.2135 0.35298 0.0
C338 C 0.73445 0.21357 0.37532 0.0
C339 C 0.67547 0.21661 0.34908 0.0
C340 C 0.71209 0.24986 0.33709 0.0
H341 H 0.7804 0.15612 0.33665 0.0
H342 H 0.80398 0.17486 0.42305 0.0
H343 H 0.80326 0.22364 0.39815 0.0
H344 H 0.78105 0.23418 0.41082 0.0
H345 H 0.79805 0.21725 0.42792 0.0
H346 H 0.74311 0.16596 0.41414 0.0
H347 H 0.76403 0.18561 0.43686 0.0
H348 H 0.73629 0.19174 0.42181 0.0
H349 H 0.71581 0.15659 0.26735 0.0
H350 H 0.66407 0.19866 0.26564 0.0
H351 H 0.68281 0.21509 0.30466 0.0
H352 H 0.70941 0.1406 0.32015 0.0
H353 H 0.73122 0.13548 0.30149 0.0
H354 H 0.73976 0.14012 0.33296 0.0
H355 H 0.76404 0.19411 0.29161 0.0
H356 H 0.78066 0.18621 0.31671 0.0
H357 H 0.76655 0.16518 0.29226 0.0
H358 H 0.81124 0.14038 0.35829 0.0
C359 C 0.78498 0.16059 0.35525 0.0
C360 C 0.44255 0.67523 0.28719 0.0
C361 C 0.42971 0.65521 0.29766 0.0
C362 C 0.40525 0.64275 0.28714 0.0
C363 C 0.40625 0.6701 0.25681 0.0
C364 C 0.43032 0.6825 0.26688 0.0
C365 C 0.44034 0.70375 0.2536 0.0
H366 H 0.41731 0.77119 0.164 0.0
C367 C 0.3984 0.68212 0.23632 0.0
C368 C 0.41813 0.70211 0.23433 0.0
H369 H 0.48704 0.78195 0.21154 0.0
H370 H 0.46809 0.7478 0.23164 0.0
H371 H 0.37959 0.75625 0.20155 0.0
H372 H 0.40993 0.71896 0.15358 0.0
H373 H 0.37849 0.70275 0.15344 0.0
H374 H 0.38521 0.73182 0.14394 0.0
H375 H 0.36925 0.7531 0.17031 0.0
H376 H 0.35468 0.73215 0.18998 0.0
C377 C 0.44559 0.72529 0.27066 0.0
C378 C 0.46388 0.70134 0.24324 0.0
C379 C 0.31278 0.64677 0.18665 0.0
C380 C 0.29974 0.65433 0.16716 0.0
C381 C 0.3108 0.6759 0.15856 0.0
C382 C 0.3346 0.68959 0.16892 0.0
C383 C 0.34759 0.68172 0.1882 0.0
C384 C 0.33652 0.66079 0.19695 0.0
C385 C 0.35271 0.65572 0.21813 0.0
C386 C 0.37569 0.67673 0.22012 0.0
C387 C 0.37259 0.69174 0.20248 0.0
C388 C 0.33821 0.65472 0.23974 0.0
C389 C 0.35939 0.63319 0.21201 0.0
C390 C 0.42879 0.76623 0.17856 0.0
C391 C 0.45388 0.77931 0.18587 0.0
C392 C 0.46763 0.77232 0.20547 0.0
C393 C 0.45665 0.75237 0.21703 0.0
C394 C 0.43166 0.7392 0.20893 0.0
C395 C 0.41833 0.74638 0.18994 0.0
C396 C 0.3925 0.73022 0.18272 0.0
C397 C 0.39223 0.71205 0.20048 0.0
C398 C 0.41506 0.71727 0.21608 0.0
C399 C 0.37283 0.7435 0.18609 0.0
C400 C 0.39119 0.72045 0.15706 0.0
H401 H 0.37496 0.63963 0.25989 0.0
H402 H 0.46136 0.68518 0.2949 0.0
H403 H 0.46075 0.68338 0.23588 0.0
H404 H 0.46829 0.71242 0.22842 0.0
H405 H 0.48069 0.70541 0.25706 0.0
H406 H 0.42967 0.7238 0.28105 0.0
H407 H 0.46306 0.72727 0.28331 0.0
H408 H 0.44742 0.74134 0.2614 0.0
H409 H 0.30455 0.63043 0.19389 0.0
H410 H 0.30118 0.68202 0.14348 0.0
H411 H 0.342 0.70572 0.16137 0.0
H412 H 0.32413 0.66476 0.23735 0.0
H413 H 0.32783 0.6367 0.24268 0.0
H414 H 0.35078 0.66266 0.25616 0.0
H415 H 0.36383 0.63287 0.19359 0.0
H416 H 0.37635 0.63136 0.22318 0.0
H417 H 0.34332 0.61778 0.21343 0.0
H418 H 0.39513 0.62711 0.29453 0.0
C419 C 0.39354 0.65002 0.26689 0.0
C420 C 0.1248 0.28616 0.68875 0.0
C421 C 0.13168 0.27604 0.66895 0.0
C422 C 0.15265 0.28891 0.6589 0.0
C423 C 0.15883 0.32135 0.68705 0.0
C424 C 0.13861 0.30887 0.69742 0.0
C425 C 0.13398 0.32283 0.71792 0.0
H426 H 0.16549 0.42425 0.78579 0.0
C427 C 0.1691 0.34442 0.69975 0.0
C428 C 0.15476 0.34557 0.71799 0.0
H429 H 0.10596 0.36186 0.7916 0.0
H430 H 0.11807 0.34337 0.75915 0.0
H431 H 0.1585 0.42266 0.72703 0.0
H432 H 0.20849 0.39699 0.77663 0.0
H433 H 0.22513 0.412 0.7549 0.0
H434 H 0.21187 0.42734 0.77487 0.0
H435 H 0.18276 0.44158 0.74798 0.0
H436 H 0.18981 0.43158 0.72049 0.0
C437 C 0.10731 0.32613 0.71204 0.0
C438 C 0.13767 0.31012 0.74068 0.0
C439 C 0.24284 0.40099 0.6701 0.0
C440 C 0.2577 0.42355 0.67724 0.0
C441 C 0.25249 0.43447 0.6974 0.0
C442 C 0.23248 0.42323 0.70974 0.0
C443 C 0.2176 0.40065 0.70207 0.0
C444 C 0.22327 0.38999 0.68265 0.0
C445 C 0.2065 0.36589 0.67707 0.0
C446 C 0.1894 0.36366 0.69604 0.0
C447 C 0.19565 0.38403 0.71075 0.0
C448 C 0.19171 0.36489 0.65195 0.0
C449 C 0.2233 0.34915 0.68008 0.0
C450 C 0.15514 0.40656 0.78022 0.0
C451 C 0.13437 0.3948 0.79143 0.0
C452 C 0.12156 0.37174 0.78322 0.0
C453 C 0.12875 0.36086 0.76434 0.0
C454 C 0.14915 0.3729 0.75318 0.0
C455 C 0.16213 0.39536 0.76123 0.0
C456 C 0.18355 0.40533 0.74723 0.0
C457 C 0.18108 0.38534 0.7294 0.0
C458 C 0.16077 0.36626 0.73299 0.0
C459 C 0.17862 0.42652 0.73506 0.0
C460 C 0.20869 0.41091 0.7642 0.0
H461 H 0.18168 0.31987 0.65895 0.0
H462 H 0.10882 0.27682 0.69699 0.0
H463 H 0.15376 0.30255 0.74055 0.0
H464 H 0.1425 0.3217 0.75685 0.0
H465 H 0.12053 0.29583 0.74227 0.0
H466 H 0.10351 0.3295 0.69308 0.0
H467 H 0.0925 0.31045 0.7155 0.0
H468 H 0.10499 0.34116 0.7219 0.0
H469 H 0.24657 0.3918 0.65508 0.0
H470 H 0.26364 0.45186 0.70337 0.0
H471 H 0.2293 0.43252 0.72475 0.0
H472 H 0.18732 0.3815 0.64846 0.0
H473 H 0.20284 0.36154 0.63814 0.0
H474 H 0.17309 0.35184 0.64945 0.0
H475 H 0.24025 0.35633 0.6935 0.0
H476 H 0.21359 0.33248 0.68677 0.0
H477 H 0.23008 0.34587 0.66324 0.0
H478 H 0.1589 0.28157 0.64411 0.0
C479 C 0.1661 0.31128 0.66772 0.0
Pr480 Pr 0.99487 1.00181 0.53546 0.0
Pr481 Pr 0.03285 0.02158 0.50748 0.0
C482 C 0.96186 0.976 0.56179 0.0
C483 C 0.93994 0.9555 0.56164 0.0
C484 C 0.91535 0.95602 0.55278 0.0
C485 C 0.89451 0.93762 0.55577 0.0
C486 C 0.89786 0.91838 0.5677 0.0
C487 C 0.92253 0.91749 0.57567 0.0
C488 C 0.94332 0.93589 0.57274 0.0
C489 C 0.01964 0.04801 0.55161 0.0
C490 C 0.05041 0.99154 0.54767 0.0
C491 C 0.06617 0.04647 0.48094 0.0
C492 C 0.07209 0.06701 0.46725 0.0
C493 C 0.08716 0.06741 0.44939 0.0
C494 C 0.09411 0.08694 0.43657 0.0
C495 C 0.08607 0.1065 0.44136 0.0
C496 C 0.07068 0.10598 0.45919 0.0
C497 C 0.06365 0.0863 0.47202 0.0
C498 C 1.00909 0.97484 0.49309 0.0
C499 C 0.97725 0.02962 0.49391 0.0
O500 O 0.95839 0.99405 0.55132 0.0
O501 O 0.98365 0.97261 0.55955 0.0
O502 O 0.0307 0.03349 0.5457 0.0
O503 O 0.99556 0.03868 0.54959 0.0
O504 O 0.0593 1.00969 0.53593 0.0
O505 O 0.0259 0.98314 0.54752 0.0
O506 O 0.06839 0.04973 0.50386 0.0
O507 O 0.0468 0.02938 0.47219 0.0
O508 O 0.99744 0.98938 0.49768 0.0
O509 O 0.0333 0.98417 0.49637 0.0
O510 O 0.96907 1.00994 0.5036 0.0
O511 O 1.00161 0.04015 0.49659 0.0
H512 H 0.91209 0.97093 0.5442 0.0
H513 H 0.87574 0.93869 0.54924 0.0
H514 H 0.92576 0.90309 0.58524 0.0
H515 H 0.96202 0.93513 0.58001 0.0
H516 H 0.0939 0.05269 0.44557 0.0
H517 H 0.10635 0.08691 0.42328 0.0
H518 H 0.06408 0.12073 0.46317 0.0
H519 H 0.05188 0.08621 0.48575 0.0
Pr520 Pr 0.492 1.00917 0.02623 0.0
Pr521 Pr 0.53983 1.00808 1.01177 0.0
C522 C 0.45452 0.01114 0.05096 0.0
C523 C 0.45031 0.02851 0.0672 0.0
C524 C 0.45723 0.05201 0.06268 0.0
C525 C 0.45424 0.06844 0.07881 0.0
C526 C 0.44458 0.06175 0.09993 0.0
C527 C 0.43778 0.03817 0.1044 0.0
C528 C 0.44057 0.02172 0.08815 0.0
C529 C 0.50617 0.03986 0.99118 0.0
C530 C 0.54556 0.04456 0.05449 0.0
C531 C 0.577 1.00375 0.98789 0.0
C532 C 0.58008 0.98335 0.97546 0.0
C533 C 0.5713 0.96144 0.98413 0.0
C534 C 0.57177 0.94172 0.97124 0.0
C535 C 0.58072 0.94349 0.94928 0.0
C536 C 0.58959 0.96543 0.94064 0.0
C537 C 0.58932 0.98525 0.95369 0.0
C538 C 0.52511 0.9772 0.04654 0.0
C539 C 0.48654 0.974 0.98203 0.0
O540 O 0.47248 1.00197 0.05877 0.0
O541 O 0.45435 0.01583 0.02874 0.0
O542 O 0.52077 0.03734 1.00906 0.0
O543 O 0.48346 0.02645 0.99099 0.0
O544 O 0.55609 0.04152 0.03584 0.0
O545 O 0.5224 0.03208 0.05636 0.0
O546 O 0.55821 0.0111 0.97841 0.0
O547 O 0.57871 1.0035 1.0109 0.0
O548 O 0.51083 0.97979 0.02847 0.0
O549 O 0.54776 0.9908 0.04717 0.0
O550 O 0.47527 0.97686 1.00026 0.0
O551 O 0.50998 0.98618 0.98105 0.0
H552 H 0.46509 0.05771 0.04675 0.0
H553 H 0.45931 0.08637 0.07458 0.0
H554 H 0.43068 0.03242 0.12064 0.0
H555 H 0.43545 1.00369 0.09208 0.0
H556 H 0.56349 0.95948 1.00063 0.0
H557 H 0.56447 0.92501 0.97816 0.0
H558 H 0.59669 0.96725 0.9238 0.0
H559 H 0.5958 1.00198 0.94657 0.0
Pr560 Pr 0.52313 0.53785 0.53613 0.0
Pr561 Pr 0.5096 0.48512 0.51322 0.0
C562 C 0.52306 0.5806 0.55032 0.0
C563 C 0.50376 0.59272 0.55254 0.0
C564 C 0.50588 0.60696 0.57286 0.0
C565 C 0.48722 0.61784 0.57577 0.0
C566 C 0.46615 0.61476 0.5583 0.0
C567 C 0.46419 0.60067 0.53782 0.0
C568 C 0.48274 0.58961 0.53502 0.0
C569 C 0.54248 0.50672 0.56232 0.0
C570 C 0.46741 0.49943 0.5425 0.0
C571 C 0.51059 0.44093 0.51031 0.0
C572 C 0.52229 0.42516 0.49919 0.0
C573 C 0.52952 0.42821 0.4766 0.0
C574 C 0.54304 0.41423 0.46772 0.0
C575 C 0.54975 0.39719 0.48141 0.0
C576 C 0.542 0.3941 0.50388 0.0
C577 C 0.52836 0.40788 0.5126 0.0
C578 C 0.4943 0.514 0.48017 0.0
C579 C 0.56166 0.52508 0.5013 0.0
O580 O 0.52621 0.57504 0.52887 0.0
O581 O 0.52377 0.56444 0.565 0.0
O582 O 0.52087 0.50266 0.55049 0.0
O583 O 0.55523 0.52828 0.56161 0.0
O584 O 0.47487 0.48245 0.53341 0.0
O585 O 0.48077 0.52143 0.54283 0.0
O586 O 0.52598 0.45665 0.52556 0.0
O587 O 0.49356 0.44839 0.49729 0.0
O588 O 0.50457 0.51909 0.50122 0.0
O589 O 0.49083 0.49204 0.47526 0.0
O590 O 0.55384 0.54168 0.51076 0.0
O591 O 0.55016 0.50283 0.50283 0.0
H592 H 0.5219 0.60951 0.58659 0.0
H593 H 0.48934 0.62877 0.59163 0.0
H594 H 0.44803 0.5978 0.5242 0.0
H595 H 0.4805 0.57846 0.5193 0.0
H596 H 0.52521 0.44165 0.46609 0.0
H597 H 0.54844 0.41693 0.45025 0.0
H598 H 0.54722 0.38157 0.51518 0.0
H599 H 0.52322 0.40553 0.53022 0.0
Pr600 Pr 1.01158 0.52615 1.00897 0.0
Pr601 Pr 0.02174 0.48951 0.04029 0.0
C602 C 0.99266 0.55546 0.98274 0.0
C603 C 0.97345 0.56822 0.98208 0.0
C604 C 0.97831 0.58936 0.99519 0.0
C605 C 0.96087 0.60225 0.99264 0.0
C606 C 0.93828 0.59425 0.97693 0.0
C607 C 0.93313 0.57277 0.9644 0.0
C608 C 0.95055 0.55995 0.96689 0.0
C609 C 0.06067 0.53714 0.03302 0.0
C610 C 0.9935 0.52413 0.06312 0.0
C611 C 0.0421 0.46057 0.06562 0.0
C612 C 0.06575 0.45391 0.06719 0.0
C613 C 0.06511 0.43069 0.06923 0.0
C614 C 0.08747 0.42416 0.07125 0.0
C615 C 0.11086 0.44082 0.07145 0.0
C616 C 0.1114 0.46403 0.06897 0.0
C617 C 0.08902 0.47051 0.06669 0.0
C618 C 0.9727 0.47807 1.0162 0.0
C619 C 0.0401 0.49215 0.9862 0.0
O620 O 0.98445 0.53301 0.97905 0.0
O621 O 1.01266 0.56229 0.99871 0.0
O622 O 0.04085 0.52816 0.04177 0.0
O623 O 0.0556 0.54154 1.01111 0.0
O624 O 1.0077 0.51017 0.06839 0.0
O625 O 0.98951 0.53022 0.04116 0.0
O626 O 0.04403 0.48167 0.07322 0.0
O627 O 0.02625 0.45378 0.04619 0.0
O628 O 0.99246 0.48732 1.00744 0.0
O629 O 0.97791 0.47337 0.03799 0.0
O630 O 0.02509 0.50534 0.98085 0.0
O631 O 0.04476 0.48666 1.00831 0.0
H632 H 0.99581 0.59626 1.00701 0.0
H633 H 0.96527 0.61868 1.00263 0.0
H634 H 0.91611 0.56632 0.95184 0.0
H635 H 0.9464 0.54385 0.95635 0.0
H636 H 0.04732 0.41764 0.06952 0.0
H637 H 0.08655 0.40619 0.07336 0.0
H638 H 0.12916 0.47716 0.06885 0.0
H639 H 0.08997 0.48852 0.06478 0.0
C640 C 0.21011 0.23083 0.32108 0.0
C641 C 0.22344 0.25398 0.32734 0.0
C642 C 0.19109 0.21924 0.3337 0.0
C643 C 0.17203 0.21616 0.39143 0.0
H644 H 0.10821 0.1779 0.35845 0.0
C645 C 0.10373 0.14946 0.44013 0.0
C646 C 0.09472 0.12749 0.42824 0.0
C647 C 0.11505 0.16873 0.4282 0.0
C648 C 0.12593 0.18845 0.36795 0.0
H649 H 0.22742 0.28331 0.35154 0.0
H650 H 0.19436 0.26262 0.37434 0.0
H651 H 0.13729 0.20475 0.33671 0.0
H652 H 0.08882 0.10879 0.39419 0.0
H653 H 0.1091 0.142 0.37364 0.0
H654 H 0.16158 0.19887 0.42234 0.0
C655 C 0.19856 0.25365 0.35943 0.0
C656 C 0.14248 0.20389 0.35552 0.0
C657 C 0.21736 0.26544 0.34645 0.0
C658 C 0.09596 0.12542 0.40394 0.0
C659 C 0.10731 0.14459 0.39207 0.0
C660 C 0.1556 0.20049 0.40385 0.0
C661 C 0.18522 0.23047 0.35306 0.0
C662 C 0.16599 0.21735 0.367 0.0
C663 C 0.11755 0.1664 0.40416 0.0
C664 C 0.13272 0.18589 0.39207 0.0
H665 H 0.21429 0.22171 0.30625 0.0
H666 H 0.1813 0.2013 0.32862 0.0
H667 H 0.19013 0.22628 0.40063 0.0
H668 H 0.10311 0.15161 0.45888 0.0
H669 H 0.12244 0.18533 0.43797 0.0
C670 C 0.36792 0.84483 0.81055 0.0
C671 C 0.36221 0.8579 0.79172 0.0
C672 C 0.38162 0.85577 0.83193 0.0
C673 C 0.42574 0.91123 0.85679 0.0
H674 H 0.40644 0.88972 0.91689 0.0
C675 C 0.44661 0.94758 0.96008 0.0
C676 C 0.47285 0.95751 0.96204 0.0
C677 C 0.43357 0.93343 0.94014 0.0
C678 C 0.41199 0.89596 0.90024 0.0
H679 H 0.36664 0.89268 0.78049 0.0
H680 H 0.39 0.91169 0.81781 0.0
H681 H 0.38234 0.86931 0.88014 0.0
H682 H 0.50619 0.95942 0.94525 0.0
H683 H 0.48353 0.93454 0.91076 0.0
H684 H 0.45486 0.93823 0.87668 0.0
C685 C 0.38412 0.89301 0.81603 0.0
C686 C 0.39836 0.88414 0.87921 0.0
C687 C 0.37045 0.8821 0.79474 0.0
C688 C 0.48591 0.9523 0.94414 0.0
C689 C 0.47291 0.9381 0.92431 0.0
C690 C 0.43933 0.923 0.87774 0.0
C691 C 0.38998 0.87999 0.83483 0.0
C692 C 0.40496 0.8918 0.85726 0.0
C693 C 0.44654 0.92887 0.92184 0.0
C694 C 0.43255 0.91561 0.89971 0.0
H695 H 0.36165 0.82615 0.80882 0.0
H696 H 0.386 0.84527 0.84604 0.0
H697 H 0.43152 0.91739 0.84017 0.0
H698 H 0.43603 0.95127 0.97359 0.0
H699 H 0.41322 0.92674 0.93869 0.0
C700 C 0.58884 0.4005 0.73384 0.0
C701 C 0.59321 0.37901 0.72992 0.0
C702 C 0.58199 0.41269 0.71487 0.0
C703 C 0.56042 0.40818 0.64979 0.0
H704 H 0.58985 0.47452 0.65721 0.0
C705 C 0.53161 0.46987 0.58281 0.0
C706 C 0.54958 0.49051 0.5791 0.0
C707 C 0.53732 0.45529 0.59997 0.0
C708 C 0.58172 0.45601 0.6546 0.0
H709 H 0.59324 0.35305 0.70324 0.0
H710 H 0.58173 0.3745 0.66985 0.0
H711 H 0.59807 0.45081 0.68914 0.0
H712 H 0.58794 0.51163 0.58986 0.0
H713 H 0.59828 0.48589 0.61941 0.0
H714 H 0.54484 0.4134 0.61484 0.0
C715 C 0.58306 0.38182 0.68759 0.0
C716 C 0.58606 0.44236 0.67319 0.0
C717 C 0.58962 0.36946 0.70669 0.0
C718 C 0.57367 0.49591 0.59243 0.0
C719 C 0.57948 0.4812 0.6095 0.0
C720 C 0.55625 0.42185 0.63107 0.0
C721 C 0.57979 0.40391 0.69141 0.0
C722 C 0.57527 0.41826 0.67121 0.0
C723 C 0.56124 0.46085 0.61381 0.0
C724 C 0.56668 0.44601 0.63326 0.0
H725 H 0.59151 0.4082 0.75163 0.0
H726 H 0.57893 0.42927 0.71865 0.0
H727 H 0.55167 0.38974 0.64754 0.0
H728 H 0.5128 0.46526 0.57289 0.0
H729 H 0.52261 0.44004 0.60288 0.0
C730 C 0.9177 0.6274 0.21672 0.0
C731 C 0.90542 0.61417 0.23402 0.0
C732 C 0.92605 0.61709 0.19821 0.0
C733 C 0.93953 0.56194 0.17898 0.0
H734 H 0.94401 0.59091 0.11939 0.0
C735 C 0.99001 0.53107 0.10631 0.0
C736 C 0.98213 0.53343 0.08233 0.0
C737 C 0.97994 0.5403 0.12438 0.0
C738 C 0.94267 0.58226 0.13572 0.0
H739 H 0.89214 0.57908 0.24451 0.0
H740 H 0.9056 0.56109 0.21185 0.0
H741 H 0.92691 0.6071 0.15045 0.0
H742 H 0.9569 0.54724 0.05882 0.0
H743 H 0.93879 0.56254 0.09 0.0
H744 H 0.9543 0.53654 0.16386 0.0
C745 C 0.90946 0.57968 0.21294 0.0
C746 C 0.93315 0.5919 0.15392 0.0
C747 C 0.9013 0.59005 0.23165 0.0
C748 C 0.96362 0.54513 0.07702 0.0
C749 C 0.95332 0.55412 0.09509 0.0
C750 C 0.9488 0.55216 0.16068 0.0
C751 C 0.92218 0.59301 0.1959 0.0
C752 C 0.93158 0.58208 0.17603 0.0
C753 C 0.96137 0.55203 0.11919 0.0
C754 C 0.95076 0.5622 0.1387 0.0
H755 H 0.9209 0.64592 0.21732 0.0
H756 H 0.93598 0.62825 0.18591 0.0
H757 H 0.93904 0.5538 0.19563 0.0
H758 H 1.00435 0.52238 0.11124 0.0
H759 H 0.98722 0.53855 0.1425 0.0
C760 C 0.37347 0.18789 0.22495 0.0
C761 C 0.38425 0.21182 0.22486 0.0
C762 C 0.38422 0.17255 0.21448 0.0
C763 C 0.4248 0.16968 0.16905 0.0
H764 H 0.42062 0.10924 0.19259 0.0
C765 C 0.45917 0.10117 0.12109 0.0
C766 C 0.4414 0.07929 0.11708 0.0
C767 C 0.4556 0.11795 0.13647 0.0
C768 C 0.4219 0.12607 0.18584 0.0
H769 H 0.41532 0.23848 0.21455 0.0
H770 H 0.43444 0.21162 0.19652 0.0
H771 H 0.4092 0.13795 0.21625 0.0
H772 H 0.40601 0.05796 0.12635 0.0
H773 H 0.40014 0.08707 0.15353 0.0
H774 H 0.43738 0.15765 0.13856 0.0
C775 C 0.41736 0.20473 0.2043 0.0
C776 C 0.41531 0.1425 0.19932 0.0
C777 C 0.40648 0.22011 0.21467 0.0
C778 C 0.4203 0.07445 0.12927 0.0
C779 C 0.41689 0.09114 0.14483 0.0
C780 C 0.43164 0.15332 0.15567 0.0
C781 C 0.40612 0.18076 0.20376 0.0
C782 C 0.41609 0.16432 0.19084 0.0
C783 C 0.43436 0.11312 0.1484 0.0
C784 C 0.42971 0.1312 0.16371 0.0
H785 H 0.35609 0.18098 0.23229 0.0
H786 H 0.37473 0.15426 0.214 0.0
H787 H 0.42532 0.18617 0.16179 0.0
H788 H 0.47591 0.10536 0.11238 0.0
H789 H 0.46948 0.1347 0.13909 0.0
C790 C 0.18247 0.86843 0.62175 0.0
C791 C 0.20745 0.88088 0.63031 0.0
C792 C 0.16516 0.87994 0.61227 0.0
C793 C 0.15578 0.93854 0.61293 0.0
H794 H 0.10227 0.91163 0.56144 0.0
C795 C 0.09398 0.98979 0.56301 0.0
C796 C 0.06782 0.97915 0.559 0.0
C797 C 0.11059 0.97755 0.57226 0.0
C798 C 0.11702 0.91924 0.57597 0.0
H799 H 0.23446 0.91475 0.63452 0.0
H800 H 0.2047 0.93476 0.61718 0.0
H801 H 0.13256 0.89058 0.57515 0.0
H802 H 0.03853 0.94738 0.56167 0.0
H803 H 0.06767 0.92594 0.57759 0.0
H804 H 0.14053 0.96744 0.61327 0.0
C805 C 0.19804 0.91628 0.61853 0.0
C806 C 0.13435 0.90718 0.58387 0.0
C807 C 0.21517 0.90483 0.62828 0.0
C808 C 0.05858 0.9561 0.56467 0.0
C809 C 0.07524 0.94376 0.5736 0.0
C810 C 0.13867 0.95068 0.60483 0.0
C811 C 0.17264 0.90409 0.61093 0.0
C812 C 0.15402 0.91672 0.60241 0.0
C813 C 0.1014 0.95435 0.57736 0.0
C814 C 0.11916 0.94118 0.58626 0.0
H815 H 0.17609 0.84995 0.62329 0.0
H816 H 0.14574 0.86999 0.60679 0.0
H817 H 0.17024 0.94622 0.62763 0.0
H818 H 0.10166 1.00752 0.55881 0.0
H819 H 0.1307 0.98608 0.57487 0.0
C820 C 0.76564 0.39822 0.89411 0.0
C821 C 0.76113 0.37459 0.88804 0.0
C822 C 0.78851 0.4108 0.90731 0.0
C823 C 0.84102 0.40223 0.94899 0.0
H824 H 0.87547 0.4651 0.93675 0.0
C825 C 0.92691 0.4565 1.01243 0.0
C826 C 0.94758 0.46905 1.00198 0.0
C827 C 0.90358 0.44654 0.99864 0.0
C828 C 0.86611 0.44752 0.94032 0.0
H829 H 0.77756 0.34593 0.88998 0.0
H830 H 0.81742 0.36785 0.91285 0.0
H831 H 0.83656 0.44431 0.91138 0.0
H832 H 0.95993 0.48177 0.96913 0.0
H833 H 0.91927 0.46417 0.94498 0.0
H834 H 0.87074 0.40515 0.97754 0.0
C835 C 0.80309 0.37656 0.90792 0.0
C836 C 0.84371 0.43568 0.92593 0.0
C837 C 0.78027 0.36401 0.89478 0.0
C838 C 0.9443 0.47212 0.97763 0.0
C839 C 0.92096 0.46215 0.96383 0.0
C840 C 0.86334 0.41404 0.96337 0.0
C841 C 0.80734 0.4 0.91469 0.0
C842 C 0.831 0.41284 0.93002 0.0
C843 C 0.90043 0.44893 0.97411 0.0
C844 C 0.87621 0.43679 0.95918 0.0
H845 H 0.75117 0.40681 0.88937 0.0
H846 H 0.7911 0.42878 0.9124 0.0
H847 H 0.83152 0.38477 0.95285 0.0
H848 H 0.92887 0.45404 0.0312 0.0
H849 H 0.88802 0.43681 1.00718 0.0
C850 C 0.73905 0.5695 0.38078 0.0
C851 C 0.74605 0.59287 0.37541 0.0
C852 C 0.7186 0.56073 0.39335 0.0
C853 C 0.6617 0.57463 0.41219 0.0
H854 H 0.66618 0.53022 0.45915 0.0
C855 C 0.59337 0.55493 0.48227 0.0
C856 C 0.58348 0.53178 0.48752 0.0
C857 C 0.61282 0.56121 0.46823 0.0
C858 C 0.66448 0.54245 0.44595 0.0
H859 H 0.73591 0.62493 0.37842 0.0
H860 H 0.70125 0.61004 0.40067 0.0
H861 H 0.70009 0.54291 0.43496 0.0
H862 H 0.58694 0.49718 0.48215 0.0
H863 H 0.62104 0.50822 0.45784 0.0
H864 H 0.62637 0.5745 0.42347 0.0
C865 C 0.71126 0.59826 0.39506 0.0
C866 C 0.68396 0.54972 0.43196 0.0
C867 C 0.73154 0.60696 0.3825 0.0
C868 C 0.59402 0.51518 0.47858 0.0
C869 C 0.61369 0.52153 0.46467 0.0
C870 C 0.64239 0.56751 0.42626 0.0
C871 C 0.70446 0.57503 0.40087 0.0
C872 C 0.68303 0.56614 0.41499 0.0
C873 C 0.62319 0.54462 0.45906 0.0
C874 C 0.64356 0.55149 0.44353 0.0
H875 H 0.74975 0.55809 0.37577 0.0
H876 H 0.71387 0.54268 0.39713 0.0
H877 H 0.65978 0.58681 0.39899 0.0
H878 H 0.58584 0.56827 0.48873 0.0
H879 H 0.61984 0.57921 0.46463 0.0
C880 C 0.2828 0.38283 0.16813 0.0
C881 C 0.28668 0.36179 0.16113 0.0
C882 C 0.26872 0.39358 0.15268 0.0
C883 C 0.21555 0.37735 0.10637 0.0
H884 H 0.22807 0.44331 0.10118 0.0
C885 C 0.1372 0.41455 0.06346 0.0
C886 C 0.13467 0.43412 0.07554 0.0
C887 C 0.15892 0.40725 0.06881 0.0
C888 C 0.22423 0.42485 0.10253 0.0
H889 H 0.28003 0.33605 0.13217 0.0
H890 H 0.25518 0.3548 0.10516 0.0
H891 H 0.26167 0.42812 0.11991 0.0
H892 H 0.15298 0.46167 0.10233 0.0
H893 H 0.19046 0.44866 0.11218 0.0
H894 H 0.17779 0.37397 0.09044 0.0
C895 C 0.26311 0.36297 0.12257 0.0
C896 C 0.24353 0.41618 0.11312 0.0
C897 C 0.27747 0.35236 0.13794 0.0
C898 C 0.15455 0.44665 0.09256 0.0
C899 C 0.17612 0.43923 0.0981 0.0
C900 C 0.19619 0.38601 0.09604 0.0
C901 C 0.25801 0.38334 0.13004 0.0
C902 C 0.23918 0.39239 0.11561 0.0
C903 C 0.17842 0.41921 0.08658 0.0
C904 C 0.20007 0.40992 0.09451 0.0
H905 H 0.28979 0.39046 0.18591 0.0
H906 H 0.26492 0.40917 0.15899 0.0
H907 H 0.21155 0.35894 0.10835 0.0
H908 H 0.12226 0.40476 0.05003 0.0
H909 H 0.16023 0.39203 0.05926 0.0
C910 C 0.55154 0.19707 0.85407 0.0
C911 C 0.56829 0.21723 0.86587 0.0
C912 C 0.54207 0.17751 0.86656 0.0
C913 C 0.53688 0.15864 0.92846 0.0
H914 H 0.52885 0.09788 0.89945 0.0
C915 C 0.53363 0.07822 0.98207 0.0
C916 C 0.51253 0.05908 0.9754 0.0
C917 C 0.53876 0.09701 0.96781 0.0
C918 C 0.53089 0.11476 0.9077 0.0
H919 H 0.58695 0.23285 0.90042 0.0
H920 H 0.57185 0.19892 0.92167 0.0
H921 H 0.54004 0.13178 0.87624 0.0
H922 H 0.48076 0.04424 0.94826 0.0
H923 H 0.49027 0.07688 0.9229 0.0
H924 H 0.52889 0.14157 0.9602 0.0
C925 C 0.56548 0.19803 0.90289 0.0
C926 C 0.53712 0.13423 0.89437 0.0
C927 C 0.5746 0.21753 0.89053 0.0
C928 C 0.4971 0.05882 0.95386 0.0
C929 C 0.50256 0.07741 0.93933 0.0
C930 C 0.53118 0.13927 0.94184 0.0
C931 C 0.5492 0.17761 0.89116 0.0
C932 C 0.54054 0.15654 0.90465 0.0
C933 C 0.52324 0.09684 0.94634 0.0
C934 C 0.52836 0.11717 0.93169 0.0
H935 H 0.54625 0.19616 0.83511 0.0
H936 H 0.52926 0.1623 0.85688 0.0
H937 H 0.53854 0.17531 0.93694 0.0
H938 H 0.54585 0.07892 0.99858 0.0
H939 H 0.55492 0.11172 0.97354 0.0
C940 C 0.93699 0.78163 0.38597 0.0
C941 C 0.91061 0.77327 0.38001 0.0
C942 C 0.94816 0.80386 0.39698 0.0
C943 C 0.93526 0.86045 0.40987 0.0
H944 H 0.98948 0.86754 0.46169 0.0
C945 C 0.97104 0.94333 0.47354 0.0
C946 C 0.99723 0.9516 0.48076 0.0
C947 C 0.96052 0.92173 0.46102 0.0
C948 C 0.97454 0.86602 0.44711 0.0
H949 H 0.87552 0.78239 0.3798 0.0
H950 H 0.89476 0.82068 0.39896 0.0
H951 H 0.97213 0.83053 0.43917 0.0
H952 H 0.0328 0.94341 0.48077 0.0
H953 H 0.01467 0.90617 0.45899 0.0
H954 H 0.9376 0.89592 0.4179 0.0
C955 C 0.90698 0.81025 0.39523 0.0
C956 C 0.96459 0.8447 0.43409 0.0
C957 C 0.89588 0.78811 0.38437 0.0
C958 C 1.01254 0.93762 0.47549 0.0
C959 C 1.00208 0.9161 0.46308 0.0
C960 C 0.9452 0.88177 0.4229 0.0
C961 C 0.93326 0.81839 0.40211 0.0
C962 C 0.94472 0.84153 0.4153 0.0
C963 C 0.97592 0.90781 0.45551 0.0
C964 C 0.96498 0.8849 0.44176 0.0
H965 H 0.9489 0.77067 0.38296 0.0
H966 H 0.96849 0.80958 0.40166 0.0
H967 H 0.92024 0.85889 0.39535 0.0
H968 H 0.9587 0.95363 0.47736 0.0
H969 H 0.94027 0.91588 0.4558 0.0
C970 C 0.32358 0.71328 0.62579 0.0
C971 C 0.31815 0.73108 0.61262 0.0
C972 C 0.33547 0.69828 0.61636 0.0
C973 C 0.37745 0.69622 0.57202 0.0
H974 H 0.36631 0.6329 0.58945 0.0
C975 C 0.43649 0.63754 0.54325 0.0
C976 C 0.44617 0.62602 0.56163 0.0
C977 C 0.41813 0.64866 0.5467 0.0
C978 C 0.36964 0.65057 0.58446 0.0
H979 H 0.31982 0.74634 0.57873 0.0
H980 H 0.34002 0.71972 0.56197 0.0
H981 H 0.3378 0.65479 0.59957 0.0
H982 H 0.44372 0.61654 0.59774 0.0
H983 H 0.4117 0.63596 0.60377 0.0
H984 H 0.40946 0.69198 0.55712 0.0
C985 C 0.33552 0.71768 0.57981 0.0
C986 C 0.35334 0.66313 0.59028 0.0
C987 C 0.32367 0.73276 0.58931 0.0
C988 C 0.43679 0.62548 0.58334 0.0
C989 C 0.41827 0.63638 0.58671 0.0
C990 C 0.39362 0.68358 0.56603 0.0
C991 C 0.3421 0.70059 0.59344 0.0
C992 C 0.35739 0.68629 0.58462 0.0
C993 C 0.40888 0.64823 0.56849 0.0
C994 C 0.39021 0.66079 0.57266 0.0
H995 H 0.31922 0.71129 0.64368 0.0
H996 H 0.34042 0.68551 0.62748 0.0
H997 H 0.38139 0.71409 0.56766 0.0
H998 H 0.44348 0.63832 0.52637 0.0
H999 H 0.41115 0.65758 0.53232 0.0
C1000 C 0.74174 0.80806 0.67775 0.0
C1001 C 0.74231 0.7856 0.68312 0.0
C1002 C 0.75504 0.81932 0.66029 0.0
C1003 C 0.81056 0.82019 0.63194 0.0
H1004 H 0.7866 0.86201 0.59082 0.0
C1005 C 0.87549 0.87691 0.57287 0.0
C1006 C 0.87585 0.90028 0.57382 0.0
C1007 C 0.85636 0.86034 0.58159 0.0
C1008 C 0.79358 0.85043 0.60223 0.0
H1009 H 0.75618 0.75692 0.67343 0.0
H1010 H 0.77955 0.77668 0.64301 0.0
H1011 H 0.75793 0.83744 0.61475 0.0
H1012 H 0.85598 0.92444 0.584 0.0
H1013 H 0.82277 0.89564 0.59926 0.0
H1014 H 0.84641 0.83367 0.62016 0.0
C1015 C 0.76907 0.78566 0.65257 0.0
C1016 C 0.77716 0.83636 0.61591 0.0
C1017 C 0.75572 0.77436 0.67 0.0
C1018 C 0.85606 0.90654 0.58269 0.0
C1019 C 0.83699 0.89 0.59145 0.0
C1020 C 0.82698 0.83428 0.61832 0.0
C1021 C 0.76924 0.80841 0.64782 0.0
C1022 C 0.78562 0.82141 0.63126 0.0
C1023 C 0.83723 0.86678 0.5915 0.0
C1024 C 0.81884 0.8499 0.60366 0.0
H1025 H 0.73192 0.81735 0.68774 0.0
H1026 H 0.75508 0.83697 0.65731 0.0
H1027 H 0.81779 0.80911 0.64383 0.0
H1028 H 0.89029 0.87151 0.56582 0.0
H1029 H 0.85684 0.84253 0.581 0.0
C1030 C 0.66608 0.17738 0.22235 0.0
C1031 C 0.67529 0.1648 0.24 0.0
C1032 C 0.65274 0.16629 0.20092 0.0
C1033 C 0.64256 0.11423 0.16217 0.0
H1034 H 0.57849 0.12502 0.13851 0.0
C1035 C 0.58583 0.07261 0.07331 0.0
C1036 C 0.56013 0.06151 0.0738 0.0
C1037 C 0.60017 0.08732 0.0923 0.0
C1038 C 0.59636 0.12187 0.14493 0.0
H1039 H 0.67746 0.13059 0.24891 0.0
H1040 H 0.65476 0.11145 0.21141 0.0
H1041 H 0.60371 0.14662 0.17434 0.0
H1042 H 0.52906 0.05787 0.09419 0.0
H1043 H 0.55421 0.08363 0.12742 0.0
H1044 H 0.63509 0.08921 0.13311 0.0
C1045 C 0.65805 0.12992 0.2141 0.0
C1046 C 0.61087 0.13435 0.16527 0.0
C1047 C 0.67115 0.14094 0.23557 0.0
C1048 C 0.54885 0.06608 0.09333 0.0
C1049 C 0.5632 0.08093 0.11229 0.0
C1050 C 0.62819 0.10192 0.14176 0.0
C1051 C 0.64857 0.14244 0.19664 0.0
C1052 C 0.63396 0.13042 0.17424 0.0
C1053 C 0.5891 0.09137 0.11212 0.0
C1054 C 0.60483 0.10544 0.13306 0.0
H1055 H 0.66922 0.19582 0.22505 0.0
H1056 H 0.64585 0.17637 0.18764 0.0
H1057 H 0.66038 0.11099 0.16861 0.0
H1058 H 0.59508 0.06955 0.05848 0.0
H1059 H 0.62003 0.09537 0.09158 0.0
C1060 C 0.42661 0.63966 0.3377 0.0
C1061 C 0.44112 0.64671 0.31938 0.0
C1062 C 0.43538 0.6284 0.35659 0.0
C1063 C 0.47798 0.59213 0.37114 0.0
H1064 H 0.46177 0.59911 0.4344 0.0
C1065 C 0.48009 0.52316 0.43913 0.0
C1066 C 0.48925 0.53062 0.46286 0.0
C1067 C 0.47622 0.53889 0.42247 0.0
C1068 C 0.4667 0.59705 0.41691 0.0
H1069 H 0.47678 0.64841 0.30711 0.0
H1070 H 0.49237 0.62885 0.34037 0.0
H1071 H 0.45316 0.62526 0.40473 0.0
H1072 H 0.5013 0.56037 0.48776 0.0
H1073 H 0.49472 0.58795 0.4588 0.0
H1074 H 0.49156 0.56395 0.38333 0.0
C1075 C 0.47399 0.63181 0.33992 0.0
C1076 C 0.46154 0.61195 0.3998 0.0
C1077 C 0.46522 0.64325 0.321 0.0
C1078 C 0.49423 0.55413 0.46964 0.0
C1079 C 0.49033 0.5699 0.453 0.0
C1080 C 0.4831 0.57721 0.38824 0.0
C1081 C 0.45893 0.62382 0.35772 0.0
C1082 C 0.46677 0.60949 0.37658 0.0
C1083 C 0.48139 0.56252 0.42914 0.0
C1084 C 0.4772 0.57924 0.41128 0.0
H1085 H 0.40802 0.64224 0.33705 0.0
H1086 H 0.42312 0.62238 0.36978 0.0
H1087 H 0.48206 0.58954 0.35343 0.0
H1088 H 0.47603 0.50513 0.43336 0.0
H1089 H 0.4689 0.53247 0.40438 0.0
C1090 C 0.09984 0.40114 0.81368 0.0
C1091 C 0.12573 0.40617 0.81139 0.0
C1092 C 0.09157 0.41092 0.83258 0.0
C1093 C 0.11361 0.44075 0.89315 0.0
H1094 H 0.04939 0.45486 0.88266 0.0
C1095 C 0.06591 0.46742 0.97098 0.0
C1096 C 0.0516 0.48325 0.96684 0.0
C1097 C 0.07574 0.45858 0.95242 0.0
C1098 C 0.06751 0.45129 0.88603 0.0
H1099 H 0.16309 0.42597 0.82775 0.0
H1100 H 0.14866 0.44341 0.86034 0.0
H1101 H 0.06512 0.43963 0.84991 0.0
H1102 H 0.03707 0.50242 0.9396 0.0
H1103 H 0.05441 0.48754 0.90772 0.0
H1104 H 0.11619 0.45297 0.92923 0.0
C1105 C 0.1347 0.43151 0.84761 0.0
C1106 C 0.07644 0.44216 0.86714 0.0
C1107 C 0.14301 0.42168 0.82863 0.0
C1108 C 0.0478 0.49018 0.94363 0.0
C1109 C 0.05766 0.48143 0.92516 0.0
C1110 C 0.10466 0.44993 0.91209 0.0
C1111 C 0.10879 0.42627 0.84997 0.0
C1112 C 0.09962 0.43661 0.8703 0.0
C1113 C 0.07163 0.46529 0.92909 0.0
C1114 C 0.08141 0.45539 0.9089 0.0
H1115 H 0.08575 0.38964 0.80073 0.0
H1116 H 0.07152 0.40608 0.83368 0.0
H1117 H 0.13139 0.43657 0.89657 0.0
H1118 H 0.06924 0.46157 0.98853 0.0
H1119 H 0.08611 0.44606 0.95634 0.0
C1120 C 0.61739 0.77514 0.86564 0.0
C1121 C 0.61198 0.7693 0.84118 0.0
C1122 C 0.60676 0.79065 0.87593 0.0
C1123 C 0.58729 0.8413 0.8614 0.0
H1124 H 0.56638 0.83699 0.92367 0.0
C1125 C 0.57083 0.91919 0.91121 0.0
C1126 C 0.58029 0.92234 0.9354 0.0
C1127 C 0.56966 0.89882 0.8984 0.0
C1128 C 0.5723 0.83851 0.90631 0.0
H1129 H 0.58945 0.774 0.80875 0.0
H1130 H 0.57155 0.80181 0.82677 0.0
H1131 H 0.5717 0.80292 0.90352 0.0
H1132 H 0.59638 0.90694 0.96507 0.0
H1133 H 0.59494 0.8717 0.94271 0.0
H1134 H 0.58925 0.87711 0.8646 0.0
C1135 C 0.58413 0.79428 0.83783 0.0
C1136 C 0.57516 0.81897 0.89474 0.0
C1137 C 0.5945 0.77845 0.82753 0.0
C1138 C 0.58871 0.90484 0.9465 0.0
C1139 C 0.58772 0.88459 0.9337 0.0
C1140 C 0.58465 0.86091 0.87305 0.0
C1141 C 0.59069 0.80094 0.86202 0.0
C1142 C 0.5833 0.82033 0.87244 0.0
C1143 C 0.57808 0.88126 0.90951 0.0
C1144 C 0.5778 0.85989 0.89592 0.0
H1145 H 0.63108 0.76891 0.87673 0.0
H1146 H 0.61242 0.7957 0.89457 0.0
H1147 H 0.5939 0.84291 0.84433 0.0
H1148 H 0.5639 0.9323 0.9023 0.0
H1149 H 0.56192 0.89673 0.87986 0.0
C1150 C 0.85151 0.1477 0.39707 0.0
C1151 C 0.82824 0.14569 0.40509 0.0
C1152 C 0.86787 0.13571 0.40739 0.0
C1153 C 0.8799 0.10198 0.45929 0.0
H1154 H 0.91705 0.07743 0.41718 0.0
C1155 C 0.93393 0.03502 0.48623 0.0
C1156 C 0.95922 0.04111 0.48202 0.0
C1157 C 0.91755 0.04741 0.47674 0.0
C1158 C 0.90685 0.08426 0.42914 0.0
H1159 H 0.80389 0.13004 0.43039 0.0
H1160 H 0.83203 0.1084 0.44804 0.0
H1161 H 0.88954 0.10031 0.40159 0.0
H1162 H 0.98696 0.06444 0.464 0.0
H1163 H 0.95813 0.08568 0.44693 0.0
H1164 H 0.89687 0.08519 0.48668 0.0
C1165 C 0.83806 0.11966 0.43418 0.0
C1166 C 0.89121 0.09754 0.42029 0.0
C1167 C 0.82188 0.132 0.42407 0.0
C1168 C 0.96758 0.05935 0.46755 0.0
C1169 C 0.95109 0.07147 0.45774 0.0
C1170 C 0.89528 0.08838 0.46806 0.0
C1171 C 0.86111 0.12106 0.4257 0.0
C1172 C 0.87766 0.10677 0.43527 0.0
C1173 C 0.92603 0.06584 0.46253 0.0
C1174 C 0.90902 0.07953 0.45309 0.0
H1175 H 0.85691 0.15836 0.38258 0.0
H1176 H 0.88572 0.13779 0.40081 0.0
H1177 H 0.8701 0.10901 0.47146 0.0
H1178 H 0.92699 0.02112 0.49742 0.0
H1179 H 0.89825 0.04264 0.48053 0.0
C1180 C 0.271 0.6163 0.14952 0.0
C1181 C 0.2748 0.63983 0.15557 0.0
C1182 C 0.24789 0.60301 0.13732 0.0
C1183 C 0.18073 0.60054 0.12427 0.0
H1184 H 0.18084 0.56327 0.06807 0.0
C1185 C 0.08868 0.5427 0.07167 0.0
C1186 C 0.08587 0.54531 0.04722 0.0
C1187 C 0.11209 0.55192 0.08554 0.0
C1188 C 0.18055 0.57359 0.08374 0.0
H1189 H 0.25722 0.66771 0.1543 0.0
H1190 H 0.21682 0.64448 0.13316 0.0
H1191 H 0.22094 0.58412 0.0918 0.0
H1192 H 0.10546 0.55863 1.0179 0.0
H1193 H 0.14653 0.57473 0.04219 0.0
H1194 H 0.14043 0.59036 0.11608 0.0
C1195 C 0.23171 0.63633 0.13777 0.0
C1196 C 0.20345 0.58534 0.09741 0.0
C1197 C 0.25487 0.64966 0.1497 0.0
C1198 C 0.1071 0.55649 0.03673 0.0
C1199 C 0.13061 0.56558 0.05061 0.0
C1200 C 0.15786 0.58861 0.11077 0.0
C1201 C 0.22805 0.61293 0.13124 0.0
C1202 C 0.20377 0.59918 0.11764 0.0
C1203 C 0.13322 0.56375 0.07522 0.0
C1204 C 0.15753 0.57522 0.09021 0.0
H1205 H 0.28611 0.60833 0.15371 0.0
H1206 H 0.24552 0.58497 0.13263 0.0
H1207 H 0.18041 0.61095 0.13986 0.0
H1208 H 0.07265 0.53397 0.0802 0.0
H1209 H 0.11363 0.54998 0.10441 0.0
C1210 C 0.27412 0.43329 0.63858 0.0
C1211 C 0.27839 0.43514 0.66344 0.0
C1212 C 0.2938 0.44204 0.62532 0.0
C1213 C 0.36021 0.48038 0.62886 0.0
H1214 H 0.35943 0.44422 0.5717 0.0
C1215 C 0.43558 0.51038 0.56515 0.0
C1216 C 0.44418 0.49328 0.55445 0.0
C1217 C 0.41494 0.50433 0.57793 0.0
C1218 C 0.36018 0.45451 0.58768 0.0
H1219 H 0.30686 0.44833 0.69377 0.0
H1220 H 0.34142 0.46332 0.67068 0.0
H1221 H 0.3254 0.43205 0.59534 0.0
H1222 H 0.43736 0.45626 0.54893 0.0
H1223 H 0.40197 0.44584 0.57123 0.0
H1224 H 0.39558 0.50237 0.62153 0.0
C1225 C 0.32267 0.45535 0.66135 0.0
C1226 C 0.34032 0.44768 0.60117 0.0
C1227 C 0.30283 0.44673 0.67467 0.0
C1228 C 0.43128 0.47001 0.55667 0.0
C1229 C 0.41077 0.46397 0.56948 0.0
C1230 C 0.38019 0.48718 0.61537 0.0
C1231 C 0.31856 0.45278 0.63643 0.0
C1232 C 0.33993 0.46046 0.62201 0.0
C1233 C 0.40229 0.481 0.58045 0.0
C1234 C 0.38058 0.47429 0.59459 0.0
H1235 H 0.25545 0.42485 0.6293 0.0
H1236 H 0.28952 0.44024 0.60625 0.0
H1237 H 0.36062 0.49087 0.6446 0.0
H1238 H 0.44497 0.52849 0.56391 0.0
H1239 H 0.40886 0.51801 0.58577 0.0
C1240 C 0.81547 0.70518 0.86852 0.0
C1241 C 0.78999 0.69255 0.86285 0.0
C1242 C 0.83146 0.69771 0.88535 0.0
C1243 C 0.83247 0.65688 0.93301 0.0
H1244 H 0.89871 0.66054 0.91604 0.0
C1245 C 0.89482 0.59936 0.96829 0.0
C1246 C 0.92117 0.60902 0.97179 0.0
C1247 C 0.87889 0.61247 0.95964 0.0
C1248 C 0.88048 0.65977 0.92132 0.0
H1249 H 0.76101 0.66254 0.87064 0.0
H1250 H 0.78911 0.649 0.8996 0.0
H1251 H 0.87064 0.67772 0.8916 0.0
H1252 H 0.95139 0.64039 0.97033 0.0
H1253 H 0.92356 0.66332 0.95553 0.0
H1254 H 0.84221 0.63798 0.96228 0.0
C1255 C 0.79667 0.66497 0.89144 0.0
C1256 C 0.86434 0.66964 0.90729 0.0
C1257 C 0.7806 0.67261 0.87477 0.0
C1258 C 0.93117 0.63247 0.96793 0.0
C1259 C 0.91526 0.64554 0.95923 0.0
C1260 C 0.84862 0.64683 0.94701 0.0
C1261 C 0.82239 0.67727 0.89669 0.0
C1262 C 0.84003 0.66812 0.91278 0.0
C1263 C 0.88903 0.63546 0.95427 0.0
C1264 C 0.87269 0.64798 0.94113 0.0
H1265 H 0.82305 0.72088 0.85992 0.0
H1266 H 0.85101 0.7079 0.88934 0.0
H1267 H 0.81402 0.6557 0.93794 0.0
H1268 H 0.88657 0.58141 0.97141 0.0
H1269 H 0.85877 0.6042 0.95591 0.0
C1270 C 0.45863 0.79911 0.14785 0.0
C1271 C 0.46527 0.79971 0.1725 0.0
C1272 C 0.4671 0.81858 0.13524 0.0
C1273 C 0.49425 0.88263 0.14319 0.0
H1274 H 0.50199 0.87525 0.07724 0.0
C1275 C 0.53373 0.9582 0.08392 0.0
C1276 C 0.51856 0.95791 0.06221 0.0
C1277 C 0.52819 0.93955 0.09836 0.0
C1278 C 0.4998 0.87756 0.09562 0.0
H1279 H 0.48721 0.82135 0.20296 0.0
H1280 H 0.50311 0.85514 0.18075 0.0
H1281 H 0.4929 0.84157 0.10062 0.0
H1282 H 0.48562 0.93797 0.03866 0.0
H1283 H 0.4764 0.90505 0.06358 0.0
H1284 H 0.50212 0.91893 0.13803 0.0
C1285 C 0.49051 0.83971 0.17127 0.0
C1286 C 0.49442 0.85822 0.10908 0.0
C1287 C 0.48169 0.82018 0.18401 0.0
C1288 C 0.49763 0.93868 0.0553 0.0
C1289 C 0.49242 0.91982 0.06949 0.0
C1290 C 0.50015 0.90207 0.12978 0.0
C1291 C 0.48304 0.8393 0.14669 0.0
C1292 C 0.49104 0.86033 0.13298 0.0
C1293 C 0.50769 0.92003 0.09113 0.0
C1294 C 0.50255 0.89966 0.10576 0.0
H1295 H 0.44654 0.78355 0.13816 0.0
H1296 H 0.46049 0.81743 0.11649 0.0
H1297 H 0.4915 0.8851 0.16137 0.0
H1298 H 0.54994 0.97283 0.0897 0.0
H1299 H 0.5403 0.94012 0.1149 0.0
C1300 C 0.11336 0.24814 0.63352 0.0
C1301 C 0.11761 0.25235 0.65825 0.0
C1302 C 0.10299 0.22574 0.62311 0.0
C1303 C 0.0663 0.16633 0.63358 0.0
H1304 H 0.095 0.14984 0.57959 0.0
C1305 C 0.01725 0.08385 0.57297 0.0
C1306 C 0.03214 0.07098 0.56427 0.0
C1307 C 0.02836 0.1053 0.58531 0.0
C1308 C 0.08688 0.15402 0.59476 0.0
H1309 H 0.11312 0.23603 0.69135 0.0
H1310 H 0.09465 0.19677 0.67314 0.0
H1311 H 0.11246 0.1881 0.59971 0.0
H1312 H 0.07056 0.07083 0.56153 0.0
H1313 H 0.09013 0.10851 0.5831 0.0
H1314 H 0.04076 0.1322 0.62866 0.0
C1315 C 0.09952 0.21096 0.66179 0.0
C1316 C 0.09672 0.17612 0.60618 0.0
C1317 C 0.11003 0.2335 0.67227 0.0
C1318 C 0.05855 0.08028 0.56803 0.0
C1319 C 0.06973 0.10193 0.58032 0.0
C1320 C 0.05636 0.14426 0.62207 0.0
C1321 C 0.09634 0.20673 0.63705 0.0
C1322 C 0.08642 0.18271 0.62562 0.0
C1323 C 0.05476 0.11469 0.58927 0.0
C1324 C 0.06634 0.13783 0.60234 0.0
H1325 H 0.11836 0.26223 0.62207 0.0
H1326 H 0.10021 0.22335 0.60403 0.0
H1327 H 0.05779 0.17072 0.64839 0.0
H1328 H 0.99684 0.07733 0.57028 0.0
H1329 H 0.01614 0.11471 0.59146 0.0
C1330 C 0.68084 0.27129 0.44143 0.0
C1331 C 0.69594 0.27802 0.42357 0.0
C1332 C 0.6666 0.28531 0.44876 0.0
C1333 C 0.63976 0.33219 0.42704 0.0
H1334 H 0.62299 0.33429 0.49066 0.0
C1335 C 0.58579 0.39357 0.46044 0.0
C1336 C 0.5658 0.3834 0.47305 0.0
C1337 C 0.60206 0.38112 0.45425 0.0
C1338 C 0.62745 0.33374 0.47279 0.0
H1339 H 0.70935 0.30504 0.40028 0.0
H1340 H 0.68556 0.33008 0.41378 0.0
H1341 H 0.6524 0.31294 0.48159 0.0
H1342 H 0.54671 0.35169 0.48803 0.0
H1343 H 0.57557 0.33029 0.4778 0.0
H1344 H 0.61512 0.35342 0.41849 0.0
C1345 C 0.68382 0.31366 0.42159 0.0
C1346 C 0.64423 0.32146 0.46755 0.0
C1347 C 0.69768 0.29948 0.41403 0.0
C1348 C 0.5622 0.36029 0.47881 0.0
C1349 C 0.57868 0.34797 0.47292 0.0
C1350 C 0.62328 0.34473 0.43239 0.0
C1351 C 0.66748 0.30647 0.43854 0.0
C1352 C 0.6505 0.32038 0.44455 0.0
C1353 C 0.5989 0.35834 0.46079 0.0
C1354 C 0.61681 0.34546 0.45525 0.0
H1355 H 0.67901 0.25465 0.44882 0.0
H1356 H 0.65406 0.27903 0.46165 0.0
H1357 H 0.64361 0.33137 0.409 0.0
H1358 H 0.58942 0.41141 0.45599 0.0
H1359 H 0.6176 0.38953 0.44499 0.0
loop_
_geom_bond_atom_site_label_1
_geom_bond_atom_site_label_2
_geom_bond_distance
_geom_bond_site_symmetry_2
_ccdc_geom_bond_type
C0 C1 1.391 . S
C0 C4 1.391 . S
C0 H42 0.948 . S
C1 C0 1.391 . S
C1 C2 1.391 . S
C2 C1 1.391 . S
C2 H58 0.947 . S
C2 C59 1.392 . S
C3 C4 1.391 . S
C3 C7 1.397 . S
C3 C59 1.419 . S
C4 C0 1.391 . S
C4 C3 1.391 . S
C4 C5 1.399 . S
C5 C4 1.399 . S
C5 C8 1.396 . S
C5 C17 1.453 . S
C5 C18 1.684 . S
H6 C30 0.948 . S
C7 C3 1.397 . S
C7 C8 1.394 . S
C7 C26 1.723 . S
C8 C5 1.396 . S
C8 C7 1.394 . S
C8 C38 1.723 . S
H9 C32 0.947 . S
H10 C33 0.948 . S
H11 C39 0.982 . S
H12 C40 0.979 . S
H13 C40 0.980 . S
H14 C40 0.983 . S
H15 C39 0.979 . S
H16 C39 0.977 . S
C17 C5 1.453 . S
C17 H46 0.982 . S
C17 H47 0.979 . S
C17 H48 0.977 . S
C18 C5 1.684 . S
C18 H43 0.979 . S
C18 H44 0.980 . S
C18 H45 0.983 . S
C19 C20 1.391 . S
C19 C24 1.391 . S
C19 H49 0.948 . S
C20 C19 1.391 . S
C20 C21 1.391 . S
C21 C20 1.391 . S
C21 C22 1.392 . S
C21 H50 0.947 . S
C22 C21 1.392 . S
C22 C23 1.419 . S
C22 H51 0.948 . S
C23 C22 1.419 . S
C23 C24 1.391 . S
C23 C27 1.397 . S
C24 C19 1.391 . S
C24 C23 1.391 . S
C24 C25 1.399 . S
C25 C24 1.399 . S
C25 C26 1.396 . S
C25 C28 1.453 . S
C25 C29 1.684 . S
C26 C7 1.723 . S
C26 C25 1.396 . S
C26 C27 1.394 . S
C27 C23 1.397 . S
C27 C26 1.394 . S
C27 C37 1.723 . S
C28 C25 1.453 . S
C28 H52 0.982 . S
C28 H53 0.979 . S
C28 H54 0.977 . S
C29 C25 1.684 . S
C29 H55 0.979 . S
C29 H56 0.980 . S
C29 H57 0.983 . S
C30 H6 0.948 . S
C30 C31 1.391 . S
C30 C35 1.391 . S
C31 C30 1.391 . S
C31 C32 1.391 . S
C32 H9 0.947 . S
C32 C31 1.391 . S
C32 C33 1.392 . S
C33 H10 0.948 . S
C33 C32 1.392 . S
C33 C34 1.419 . S
C34 C33 1.419 . S
C34 C35 1.391 . S
C34 C38 1.397 . S
C35 C30 1.391 . S
C35 C34 1.391 . S
C35 C36 1.399 . S
C36 C35 1.399 . S
C36 C37 1.396 . S
C36 C39 1.453 . S
C36 C40 1.684 . S
C37 C27 1.723 . S
C37 C36 1.396 . S
C37 C38 1.394 . S
C38 C8 1.723 . S
C38 C34 1.397 . S
C38 C37 1.394 . S
C39 H11 0.982 . S
C39 H15 0.979 . S
C39 H16 0.977 . S
C39 C36 1.453 . S
C40 H12 0.979 . S
C40 H13 0.980 . S
C40 H14 0.983 . S
C40 C36 1.684 . S
H41 C59 0.948 . S
H42 C0 0.948 . S
H43 C18 0.979 . S
H44 C18 0.980 . S
H45 C18 0.983 . S
H46 C17 0.982 . S
H47 C17 0.979 . S
H48 C17 0.977 . S
H49 C19 0.948 . S
H50 C21 0.947 . S
H51 C22 0.948 . S
H52 C28 0.982 . S
H53 C28 0.979 . S
H54 C28 0.977 . S
H55 C29 0.979 . S
H56 C29 0.980 . S
H57 C29 0.983 . S
H58 C2 0.947 . S
C59 C2 1.392 . S
C59 C3 1.419 . S
C59 H41 0.948 . S
C60 C61 1.391 . S
C60 C64 1.391 . S
C60 H102 0.948 . S
C61 C60 1.391 . S
C61 C62 1.391 . S
C62 C61 1.391 . S
C62 H118 0.947 . S
C62 C119 1.392 . S
C63 C64 1.391 . S
C63 C67 1.397 . S
C63 C119 1.419 . S
C64 C60 1.391 . S
C64 C63 1.391 . S
C64 C65 1.399 . S
C65 C64 1.399 . S
C65 C68 1.396 . S
C65 C77 1.453 . S
C65 C78 1.684 . S
H66 C90 0.948 . S
C67 C63 1.397 . S
C67 C68 1.394 . S
C67 C86 1.723 . S
C68 C65 1.396 . S
C68 C67 1.394 . S
C68 C98 1.723 . S
H69 C92 0.947 . S
H70 C93 0.948 . S
H71 C99 0.982 . S
H72 C100 0.979 . S
H73 C100 0.980 . S
H74 C100 0.983 . S
H75 C99 0.979 . S
H76 C99 0.977 . S
C77 C65 1.453 . S
C77 H106 0.982 . S
C77 H107 0.979 . S
C77 H108 0.977 . S
C78 C65 1.684 . S
C78 H103 0.979 . S
C78 H104 0.980 . S
C78 H105 0.983 . S
C79 C80 1.391 . S
C79 C84 1.391 . S
C79 H109 0.948 . S
C80 C79 1.391 . S
C80 C81 1.391 . S
C81 C80 1.391 . S
C81 C82 1.392 . S
C81 H110 0.947 . S
C82 C81 1.392 . S
C82 C83 1.419 . S
C82 H111 0.948 . S
C83 C82 1.419 . S
C83 C84 1.391 . S
C83 C87 1.397 . S
C84 C79 1.391 . S
C84 C83 1.391 . S
C84 C85 1.399 . S
C85 C84 1.399 . S
C85 C86 1.396 . S
C85 C88 1.453 . S
C85 C89 1.684 . S
C86 C67 1.723 . S
C86 C85 1.396 . S
C86 C87 1.394 . S
C87 C83 1.397 . S
C87 C86 1.394 . S
C87 C97 1.723 . S
C88 C85 1.453 . S
C88 H112 0.982 . S
C88 H113 0.979 . S
C88 H114 0.977 . S
C89 C85 1.684 . S
C89 H115 0.979 . S
C89 H116 0.980 . S
C89 H117 0.983 . S
C90 H66 0.948 . S
C90 C91 1.391 . S
C90 C95 1.391 . S
C91 C90 1.391 . S
C91 C92 1.391 . S
C92 H69 0.947 . S
C92 C91 1.391 . S
C92 C93 1.392 . S
C93 H70 0.948 . S
C93 C92 1.392 . S
C93 C94 1.419 . S
C94 C93 1.419 . S
C94 C95 1.391 . S
C94 C98 1.397 . S
C95 C90 1.391 . S
C95 C94 1.391 . S
C95 C96 1.399 . S
C96 C95 1.399 . S
C96 C97 1.396 . S
C96 C99 1.453 . S
C96 C100 1.684 . S
C97 C87 1.723 . S
C97 C96 1.396 . S
C97 C98 1.394 . S
C98 C68 1.723 . S
C98 C94 1.397 . S
C98 C97 1.394 . S
C99 H71 0.982 . S
C99 H75 0.979 . S
C99 H76 0.977 . S
C99 C96 1.453 . S
C100 H72 0.979 . S
C100 H73 0.980 . S
C100 H74 0.983 . S
C100 C96 1.684 . S
H101 C119 0.948 . S
H102 C60 0.948 . S
H103 C78 0.979 . S
H104 C78 0.980 . S
H105 C78 0.983 . S
H106 C77 0.982 . S
H107 C77 0.979 . S
H108 C77 0.977 . S
H109 C79 0.948 . S
H110 C81 0.947 . S
H111 C82 0.948 . S
H112 C88 0.982 . S
H113 C88 0.979 . S
H114 C88 0.977 . S
H115 C89 0.979 . S
H116 C89 0.980 . S
H117 C89 0.983 . S
H118 C62 0.947 . S
C119 C62 1.392 . S
C119 C63 1.419 . S
C119 H101 0.948 . S
C120 C121 1.391 . S
C120 C124 1.391 . S
C120 H162 0.948 . S
C121 C120 1.391 . S
C121 C122 1.391 . S
C122 C121 1.391 . S
C122 H178 0.947 . S
C122 C179 1.392 . S
C123 C124 1.391 . S
C123 C127 1.397 . S
C123 C179 1.419 . S
C124 C120 1.391 . S
C124 C123 1.391 . S
C124 C125 1.399 . S
C125 C124 1.399 . S
C125 C128 1.396 . S
C125 C137 1.453 . S
C125 C138 1.684 . S
H126 C150 0.948 . S
C127 C123 1.397 . S
C127 C128 1.394 . S
C127 C146 1.723 . S
C128 C125 1.396 . S
C128 C127 1.394 . S
C128 C158 1.723 . S
H129 C152 0.947 . S
H130 C153 0.948 . S
H131 C159 0.982 . S
H132 C160 0.979 . S
H133 C160 0.980 . S
H134 C160 0.983 . S
H135 C159 0.979 . S
H136 C159 0.977 . S
C137 C125 1.453 . S
C137 H166 0.982 . S
C137 H167 0.979 . S
C137 H168 0.977 . S
C138 C125 1.684 . S
C138 H163 0.979 . S
C138 H164 0.980 . S
C138 H165 0.983 . S
C139 C140 1.391 . S
C139 C144 1.391 . S
C139 H169 0.948 . S
C140 C139 1.391 . S
C140 C141 1.391 . S
C141 C140 1.391 . S
C141 C142 1.392 . S
C141 H170 0.947 . S
C142 C141 1.392 . S
C142 C143 1.419 . S
C142 H171 0.948 . S
C143 C142 1.419 . S
C143 C144 1.391 . S
C143 C147 1.397 . S
C144 C139 1.391 . S
C144 C143 1.391 . S
C144 C145 1.399 . S
C145 C144 1.399 . S
C145 C146 1.396 . S
C145 C148 1.453 . S
C145 C149 1.684 . S
C146 C127 1.723 . S
C146 C145 1.396 . S
C146 C147 1.394 . S
C147 C143 1.397 . S
C147 C146 1.394 . S
C147 C157 1.723 . S
C148 C145 1.453 . S
C148 H172 0.982 . S
C148 H173 0.979 . S
C148 H174 0.977 . S
C149 C145 1.684 . S
C149 H175 0.979 . S
C149 H176 0.980 . S
C149 H177 0.983 . S
C150 H126 0.948 . S
C150 C151 1.391 . S
C150 C155 1.391 . S
C151 C150 1.391 . S
C151 C152 1.391 . S
C152 H129 0.947 . S
C152 C151 1.391 . S
C152 C153 1.392 . S
C153 H130 0.948 . S
C153 C152 1.392 . S
C153 C154 1.419 . S
C154 C153 1.419 . S
C154 C155 1.391 . S
C154 C158 1.397 . S
C155 C150 1.391 . S
C155 C154 1.391 . S
C155 C156 1.399 . S
C156 C155 1.399 . S
C156 C157 1.396 . S
C156 C159 1.453 . S
C156 C160 1.684 . S
C157 C147 1.723 . S
C157 C156 1.396 . S
C157 C158 1.394 . S
C158 C128 1.723 . S
C158 C154 1.397 . S
C158 C157 1.394 . S
C159 H131 0.982 . S
C159 H135 0.979 . S
C159 H136 0.977 . S
C159 C156 1.453 . S
C160 H132 0.979 . S
C160 H133 0.980 . S
C160 H134 0.983 . S
C160 C156 1.684 . S
H161 C179 0.948 . S
H162 C120 0.948 . S
H163 C138 0.979 . S
H164 C138 0.980 . S
H165 C138 0.983 . S
H166 C137 0.982 . S
H167 C137 0.979 . S
H168 C137 0.977 . S
H169 C139 0.948 . S
H170 C141 0.947 . S
H171 C142 0.948 . S
H172 C148 0.982 . S
H173 C148 0.979 . S
H174 C148 0.977 . S
H175 C149 0.979 . S
H176 C149 0.980 . S
H177 C149 0.983 . S
H178 C122 0.947 . S
C179 C122 1.392 . S
C179 C123 1.419 . S
C179 H161 0.948 . S
C180 C181 1.391 . S
C180 C184 1.391 . S
C180 H222 0.948 . S
C181 C180 1.391 . S
C181 C182 1.391 . S
C182 C181 1.391 . S
C182 H238 0.947 . S
C182 C239 1.392 . S
C183 C184 1.391 . S
C183 C187 1.397 . S
C183 C239 1.419 . S
C184 C180 1.391 . S
C184 C183 1.391 . S
C184 C185 1.399 . S
C185 C184 1.399 . S
C185 C188 1.396 . S
C185 C197 1.453 . S
C185 C198 1.684 . S
H186 C210 0.948 . S
C187 C183 1.397 . S
C187 C188 1.394 . S
C187 C206 1.723 . S
C188 C185 1.396 . S
C188 C187 1.394 . S
C188 C218 1.723 . S
H189 C212 0.947 . S
H190 C213 0.948 . S
H191 C219 0.982 . S
H192 C220 0.979 . S
H193 C220 0.980 . S
H194 C220 0.983 . S
H195 C219 0.979 . S
H196 C219 0.977 . S
C197 C185 1.453 . S
C197 H226 0.982 . S
C197 H227 0.979 . S
C197 H228 0.977 . S
C198 C185 1.684 . S
C198 H223 0.979 . S
C198 H224 0.980 . S
C198 H225 0.983 . S
C199 C200 1.391 . S
C199 C204 1.391 . S
C199 H229 0.948 . S
C200 C199 1.391 . S
C200 C201 1.391 . S
C201 C200 1.391 . S
C201 C202 1.392 . S
C201 H230 0.947 . S
C202 C201 1.392 . S
C202 C203 1.419 . S
C202 H231 0.948 . S
C203 C202 1.419 . S
C203 C204 1.391 . S
C203 C207 1.397 . S
C204 C199 1.391 . S
C204 C203 1.391 . S
C204 C205 1.399 . S
C205 C204 1.399 . S
C205 C206 1.396 . S
C205 C208 1.453 . S
C205 C209 1.684 . S
C206 C187 1.723 . S
C206 C205 1.396 . S
C206 C207 1.394 . S
C207 C203 1.397 . S
C207 C206 1.394 . S
C207 C217 1.723 . S
C208 C205 1.453 . S
C208 H232 0.982 . S
C208 H233 0.979 . S
C208 H234 0.977 . S
C209 C205 1.684 . S
C209 H235 0.979 . S
C209 H236 0.980 . S
C209 H237 0.983 . S
C210 H186 0.948 . S
C210 C211 1.391 . S
C210 C215 1.391 . S
C211 C210 1.391 . S
C211 C212 1.391 . S
C212 H189 0.947 . S
C212 C211 1.391 . S
C212 C213 1.392 . S
C213 H190 0.948 . S
C213 C212 1.392 . S
C213 C214 1.419 . S
C214 C213 1.419 . S
C214 C215 1.391 . S
C214 C218 1.397 . S
C215 C210 1.391 . S
C215 C214 1.391 . S
C215 C216 1.399 . S
C216 C215 1.399 . S
C216 C217 1.396 . S
C216 C219 1.453 . S
C216 C220 1.684 . S
C217 C207 1.723 . S
C217 C216 1.396 . S
C217 C218 1.394 . S
C218 C188 1.723 . S
C218 C214 1.397 . S
C218 C217 1.394 . S
C219 H191 0.982 . S
C219 H195 0.979 . S
C219 H196 0.977 . S
C219 C216 1.453 . S
C220 H192 0.979 . S
C220 H193 0.980 . S
C220 H194 0.983 . S
C220 C216 1.684 . S
H221 C239 0.948 . S
H222 C180 0.948 . S
H223 C198 0.979 . S
H224 C198 0.980 . S
H225 C198 0.983 . S
H226 C197 0.982 . S
H227 C197 0.979 . S
H228 C197 0.977 . S
H229 C199 0.948 . S
H230 C201 0.947 . S
H231 C202 0.948 . S
H232 C208 0.982 . S
H233 C208 0.979 . S
H234 C208 0.977 . S
H235 C209 0.979 . S
H236 C209 0.980 . S
H237 C209 0.983 . S
H238 C182 0.947 . S
C239 C182 1.392 . S
C239 C183 1.419 . S
C239 H221 0.948 . S
C240 C241 1.391 . S
C240 C244 1.391 . S
C240 H282 0.948 . S
C241 C240 1.391 . S
C241 C242 1.391 . S
C242 C241 1.391 . S
C242 H298 0.947 . S
C242 C299 1.392 . S
C243 C244 1.391 . S
C243 C247 1.397 . S
C243 C299 1.419 . S
C244 C240 1.391 . S
C244 C243 1.391 . S
C244 C245 1.399 . S
C245 C244 1.399 . S
C245 C248 1.396 . S
C245 C257 1.453 . S
C245 C258 1.684 . S
H246 C270 0.948 . S
C247 C243 1.397 . S
C247 C248 1.394 . S
C247 C266 1.723 . S
C248 C245 1.396 . S
C248 C247 1.394 . S
C248 C278 1.723 . S
H249 C272 0.947 . S
H250 C273 0.948 . S
H251 C279 0.982 . S
H252 C280 0.979 . S
H253 C280 0.980 . S
H254 C280 0.983 . S
H255 C279 0.979 . S
H256 C279 0.977 . S
C257 C245 1.453 . S
C257 H286 0.982 . S
C257 H287 0.979 . S
C257 H288 0.977 . S
C258 C245 1.684 . S
C258 H283 0.979 . S
C258 H284 0.980 . S
C258 H285 0.983 . S
C259 C260 1.391 . S
C259 C264 1.391 . S
C259 H289 0.948 . S
C260 C259 1.391 . S
C260 C261 1.391 . S
C261 C260 1.391 . S
C261 C262 1.392 . S
C261 H290 0.947 . S
C262 C261 1.392 . S
C262 C263 1.419 . S
C262 H291 0.948 . S
C263 C262 1.419 . S
C263 C264 1.391 . S
C263 C267 1.397 . S
C264 C259 1.391 . S
C264 C263 1.391 . S
C264 C265 1.399 . S
C265 C264 1.399 . S
C265 C266 1.396 . S
C265 C268 1.453 . S
C265 C269 1.684 . S
C266 C247 1.723 . S
C266 C265 1.396 . S
C266 C267 1.394 . S
C267 C263 1.397 . S
C267 C266 1.394 . S
C267 C277 1.723 . S
C268 C265 1.453 . S
C268 H292 0.982 . S
C268 H293 0.979 . S
C268 H294 0.977 . S
C269 C265 1.684 . S
C269 H295 0.979 . S
C269 H296 0.980 . S
C269 H297 0.983 . S
C270 H246 0.948 . S
C270 C271 1.391 . S
C270 C275 1.391 . S
C271 C270 1.391 . S
C271 C272 1.391 . S
C272 H249 0.947 . S
C272 C271 1.391 . S
C272 C273 1.392 . S
C273 H250 0.948 . S
C273 C272 1.392 . S
C273 C274 1.419 . S
C274 C273 1.419 . S
C274 C275 1.391 . S
C274 C278 1.397 . S
C275 C270 1.391 . S
C275 C274 1.391 . S
C275 C276 1.399 . S
C276 C275 1.399 . S
C276 C277 1.396 . S
C276 C279 1.453 . S
C276 C280 1.684 . S
C277 C267 1.723 . S
C277 C276 1.396 . S
C277 C278 1.394 . S
C278 C248 1.723 . S
C278 C274 1.397 . S
C278 C277 1.394 . S
C279 H251 0.982 . S
C279 H255 0.979 . S
C279 H256 0.977 . S
C279 C276 1.453 . S
C280 H252 0.979 . S
C280 H253 0.980 . S
C280 H254 0.983 . S
C280 C276 1.684 . S
H281 C299 0.948 . S
H282 C240 0.948 . S
H283 C258 0.979 . S
H284 C258 0.980 . S
H285 C258 0.983 . S
H286 C257 0.982 . S
H287 C257 0.979 . S
H288 C257 0.977 . S
H289 C259 0.948 . S
H290 C261 0.947 . S
H291 C262 0.948 . S
H292 C268 0.982 . S
H293 C268 0.979 . S
H294 C268 0.977 . S
H295 C269 0.979 . S
H296 C269 0.980 . S
H297 C269 0.983 . S
H298 C242 0.947 . S
C299 C242 1.392 . S
C299 C243 1.419 . S
C299 H281 0.948 . S
C300 C301 1.391 . S
C300 C304 1.391 . S
C300 H342 0.948 . S
C301 C300 1.391 . S
C301 C302 1.391 . S
C302 C301 1.391 . S
C302 H358 0.947 . S
C302 C359 1.392 . S
C303 C304 1.391 . S
C303 C307 1.397 . S
C303 C359 1.419 . S
C304 C300 1.391 . S
C304 C303 1.391 . S
C304 C305 1.399 . S
C305 C304 1.399 . S
C305 C308 1.396 . S
C305 C317 1.453 . S
C305 C318 1.684 . S
H306 C330 0.948 . S
C307 C303 1.397 . S
C307 C308 1.394 . S
C307 C326 1.723 . S
C308 C305 1.396 . S
C308 C307 1.394 . S
C308 C338 1.723 . S
H309 C332 0.947 . S
H310 C333 0.948 . S
H311 C339 0.982 . S
H312 C340 0.979 . S
H313 C340 0.980 . S
H314 C340 0.983 . S
H315 C339 0.979 . S
H316 C339 0.977 . S
C317 C305 1.453 . S
C317 H346 0.982 . S
C317 H347 0.979 . S
C317 H348 0.977 . S
C318 C305 1.684 . S
C318 H343 0.979 . S
C318 H344 0.980 . S
C318 H345 0.983 . S
C319 C320 1.391 . S
C319 C324 1.391 . S
C319 H349 0.948 . S
C320 C319 1.391 . S
C320 C321 1.391 . S
C321 C320 1.391 . S
C321 C322 1.392 . S
C321 H350 0.947 . S
C322 C321 1.392 . S
C322 C323 1.419 . S
C322 H351 0.948 . S
C323 C322 1.419 . S
C323 C324 1.391 . S
C323 C327 1.397 . S
C324 C319 1.391 . S
C324 C323 1.391 . S
C324 C325 1.399 . S
C325 C324 1.399 . S
C325 C326 1.396 . S
C325 C328 1.453 . S
C325 C329 1.684 . S
C326 C307 1.723 . S
C326 C325 1.396 . S
C326 C327 1.394 . S
C327 C323 1.397 . S
C327 C326 1.394 . S
C327 C337 1.723 . S
C328 C325 1.453 . S
C328 H352 0.982 . S
C328 H353 0.979 . S
C328 H354 0.977 . S
C329 C325 1.684 . S
C329 H355 0.979 . S
C329 H356 0.980 . S
C329 H357 0.983 . S
C330 H306 0.948 . S
C330 C331 1.391 . S
C330 C335 1.391 . S
C331 C330 1.391 . S
C331 C332 1.391 . S
C332 H309 0.947 . S
C332 C331 1.391 . S
C332 C333 1.392 . S
C333 H310 0.948 . S
C333 C332 1.392 . S
C333 C334 1.419 . S
C334 C333 1.419 . S
C334 C335 1.391 . S
C334 C338 1.397 . S
C335 C330 1.391 . S
C335 C334 1.391 . S
C335 C336 1.399 . S
C336 C335 1.399 . S
C336 C337 1.396 . S
C336 C339 1.453 . S
C336 C340 1.684 . S
C337 C327 1.723 . S
C337 C336 1.396 . S
C337 C338 1.394 . S
C338 C308 1.723 . S
C338 C334 1.397 . S
C338 C337 1.394 . S
C339 H311 0.982 . S
C339 H315 0.979 . S
C339 H316 0.977 . S
C339 C336 1.453 . S
C340 H312 0.979 . S
C340 H313 0.980 . S
C340 H314 0.983 . S
C340 C336 1.684 . S
H341 C359 0.948 . S
H342 C300 0.948 . S
H343 C318 0.979 . S
H344 C318 0.980 . S
H345 C318 0.983 . S
H346 C317 0.982 . S
H347 C317 0.979 . S
H348 C317 0.977 . S
H349 C319 0.948 . S
H350 C321 0.947 . S
H351 C322 0.948 . S
H352 C328 0.982 . S
H353 C328 0.979 . S
H354 C328 0.977 . S
H355 C329 0.979 . S
H356 C329 0.980 . S
H357 C329 0.983 . S
H358 C302 0.947 . S
C359 C302 1.392 . S
C359 C303 1.419 . S
C359 H341 0.948 . S
C360 C361 1.391 . S
C360 C364 1.391 . S
C360 H402 0.948 . S
C361 C360 1.391 . S
C361 C362 1.391 . S
C362 C361 1.391 . S
C362 H418 0.947 . S
C362 C419 1.392 . S
C363 C364 1.391 . S
C363 C367 1.397 . S
C363 C419 1.419 . S
C364 C360 1.391 . S
C364 C363 1.391 . S
C364 C365 1.399 . S
C365 C364 1.399 . S
C365 C368 1.396 . S
C365 C377 1.453 . S
C365 C378 1.684 . S
H366 C390 0.948 . S
C367 C363 1.397 . S
C367 C368 1.394 . S
C367 C386 1.723 . S
C368 C365 1.396 . S
C368 C367 1.394 . S
C368 C398 1.723 . S
H369 C392 0.947 . S
H370 C393 0.948 . S
H371 C399 0.982 . S
H372 C400 0.979 . S
H373 C400 0.980 . S
H374 C400 0.983 . S
H375 C399 0.979 . S
H376 C399 0.977 . S
C377 C365 1.453 . S
C377 H406 0.982 . S
C377 H407 0.979 . S
C377 H408 0.977 . S
C378 C365 1.684 . S
C378 H403 0.979 . S
C378 H404 0.980 . S
C378 H405 0.983 . S
C379 C380 1.391 . S
C379 C384 1.391 . S
C379 H409 0.948 . S
C380 C379 1.391 . S
C380 C381 1.391 . S
C381 C380 1.391 . S
C381 C382 1.392 . S
C381 H410 0.947 . S
C382 C381 1.392 . S
C382 C383 1.419 . S
C382 H411 0.948 . S
C383 C382 1.419 . S
C383 C384 1.391 . S
C383 C387 1.397 . S
C384 C379 1.391 . S
C384 C383 1.391 . S
C384 C385 1.399 . S
C385 C384 1.399 . S
C385 C386 1.396 . S
C385 C388 1.453 . S
C385 C389 1.684 . S
C386 C367 1.723 . S
C386 C385 1.396 . S
C386 C387 1.394 . S
C387 C383 1.397 . S
C387 C386 1.394 . S
C387 C397 1.723 . S
C388 C385 1.453 . S
C388 H412 0.982 . S
C388 H413 0.979 . S
C388 H414 0.977 . S
C389 C385 1.684 . S
C389 H415 0.979 . S
C389 H416 0.980 . S
C389 H417 0.983 . S
C390 H366 0.948 . S
C390 C391 1.391 . S
C390 C395 1.391 . S
C391 C390 1.391 . S
C391 C392 1.391 . S
C392 H369 0.947 . S
C392 C391 1.391 . S
C392 C393 1.392 . S
C393 H370 0.948 . S
C393 C392 1.392 . S
C393 C394 1.419 . S
C394 C393 1.419 . S
C394 C395 1.391 . S
C394 C398 1.397 . S
C395 C390 1.391 . S
C395 C394 1.391 . S
C395 C396 1.399 . S
C396 C395 1.399 . S
C396 C397 1.396 . S
C396 C399 1.453 . S
C396 C400 1.684 . S
C397 C387 1.723 . S
C397 C396 1.396 . S
C397 C398 1.394 . S
C398 C368 1.723 . S
C398 C394 1.397 . S
C398 C397 1.394 . S
C399 H371 0.982 . S
C399 H375 0.979 . S
C399 H376 0.977 . S
C399 C396 1.453 . S
C400 H372 0.979 . S
C400 H373 0.980 . S
C400 H374 0.983 . S
C400 C396 1.684 . S
H401 C419 0.948 . S
H402 C360 0.948 . S
H403 C378 0.979 . S
H404 C378 0.980 . S
H405 C378 0.983 . S
H406 C377 0.982 . S
H407 C377 0.979 . S
H408 C377 0.977 . S
H409 C379 0.948 . S
H410 C381 0.947 . S
H411 C382 0.948 . S
H412 C388 0.982 . S
H413 C388 0.979 . S
H414 C388 0.977 . S
H415 C389 0.979 . S
H416 C389 0.980 . S
H417 C389 0.983 . S
H418 C362 0.947 . S
C419 C362 1.392 . S
C419 C363 1.419 . S
C419 H401 0.948 . S
C420 C421 1.391 . S
C420 C424 1.391 . S
C420 H462 0.948 . S
C421 C420 1.391 . S
C421 C422 1.391 . S
C422 C421 1.391 . S
C422 H478 0.947 . S
C422 C479 1.392 . S
C423 C424 1.391 . S
C423 C427 1.397 . S
C423 C479 1.419 . S
C424 C420 1.391 . S
C424 C423 1.391 . S
C424 C425 1.399 . S
C425 C424 1.399 . S
C425 C428 1.396 . S
C425 C437 1.453 . S
C425 C438 1.684 . S
H426 C450 0.948 . S
C427 C423 1.397 . S
C427 C428 1.394 . S
C427 C446 1.723 . S
C428 C425 1.396 . S
C428 C427 1.394 . S
C428 C458 1.723 . S
H429 C452 0.947 . S
H430 C453 0.948 . S
H431 C459 0.982 . S
H432 C460 0.979 . S
H433 C460 0.980 . S
H434 C460 0.983 . S
H435 C459 0.979 . S
H436 C459 0.977 . S
C437 C425 1.453 . S
C437 H466 0.982 . S
C437 H467 0.979 . S
C437 H468 0.977 . S
C438 C425 1.684 . S
C438 H463 0.979 . S
C438 H464 0.980 . S
C438 H465 0.983 . S
C439 C440 1.391 . S
C439 C444 1.391 . S
C439 H469 0.948 . S
C440 C439 1.391 . S
C440 C441 1.391 . S
C441 C440 1.391 . S
C441 C442 1.392 . S
C441 H470 0.947 . S
C442 C441 1.392 . S
C442 C443 1.419 . S
C442 H471 0.948 . S
C443 C442 1.419 . S
C443 C444 1.391 . S
C443 C447 1.397 . S
C444 C439 1.391 . S
C444 C443 1.391 . S
C444 C445 1.399 . S
C445 C444 1.399 . S
C445 C446 1.396 . S
C445 C448 1.453 . S
C445 C449 1.684 . S
C446 C427 1.723 . S
C446 C445 1.396 . S
C446 C447 1.394 . S
C447 C443 1.397 . S
C447 C446 1.394 . S
C447 C457 1.723 . S
C448 C445 1.453 . S
C448 H472 0.982 . S
C448 H473 0.979 . S
C448 H474 0.977 . S
C449 C445 1.684 . S
C449 H475 0.979 . S
C449 H476 0.980 . S
C449 H477 0.983 . S
C450 H426 0.948 . S
C450 C451 1.391 . S
C450 C455 1.391 . S
C451 C450 1.391 . S
C451 C452 1.391 . S
C452 H429 0.947 . S
C452 C451 1.391 . S
C452 C453 1.392 . S
C453 H430 0.948 . S
C453 C452 1.392 . S
C453 C454 1.419 . S
C454 C453 1.419 . S
C454 C455 1.391 . S
C454 C458 1.397 . S
C455 C450 1.391 . S
C455 C454 1.391 . S
C455 C456 1.399 . S
C456 C455 1.399 . S
C456 C457 1.396 . S
C456 C459 1.453 . S
C456 C460 1.684 . S
C457 C447 1.723 . S
C457 C456 1.396 . S
C457 C458 1.394 . S
C458 C428 1.723 . S
C458 C454 1.397 . S
C458 C457 1.394 . S
C459 H431 0.982 . S
C459 H435 0.979 . S
C459 H436 0.977 . S
C459 C456 1.453 . S
C460 H432 0.979 . S
C460 H433 0.980 . S
C460 H434 0.983 . S
C460 C456 1.684 . S
H461 C479 0.948 . S
H462 C420 0.948 . S
H463 C438 0.979 . S
H464 C438 0.980 . S
H465 C438 0.983 . S
H466 C437 0.982 . S
H467 C437 0.979 . S
H468 C437 0.977 . S
H469 C439 0.948 . S
H470 C441 0.947 . S
H471 C442 0.948 . S
H472 C448 0.982 . S
H473 C448 0.979 . S
H474 C448 0.977 . S
H475 C449 0.979 . S
H476 C449 0.980 . S
H477 C449 0.983 . S
H478 C422 0.947 . S
C479 C422 1.392 . S
C479 C423 1.419 . S
C479 H461 0.948 . S
Pr480 C482 2.880 . S
Pr480 O500 2.562 . S
Pr480 O501 2.490 . S
Pr480 O502 2.695 1_665 S
Pr480 O503 2.512 1_665 S
Pr480 O505 2.437 1_655 S
Pr480 O508 2.436 . S
Pr480 O510 2.438 1_565 S
Pr481 C491 2.880 . S
Pr481 O502 2.436 . S
Pr481 O504 2.438 1_545 S
Pr481 O506 2.562 . S
Pr481 O507 2.490 . S
Pr481 O508 2.695 1_445 S
Pr481 O509 2.498 1_445 S
Pr481 O511 2.437 1_455 S
C482 Pr480 2.880 . S
C482 C483 1.491 . S
C482 O500 1.254 . S
C482 O501 1.225 . S
C483 C482 1.491 . S
C483 C484 1.392 . S
C483 C488 1.356 . S
C484 C483 1.392 . S
C484 C485 1.368 . S
C484 H512 0.929 . S
C485 C484 1.368 . S
C485 C486 1.386 . S
C485 H513 0.929 . S
C486 C485 1.386 . S
C486 C487 1.373 . S
C487 C486 1.373 . S
C487 C488 1.409 . S
C487 H514 0.931 . S
C488 C483 1.356 . S
C488 C487 1.409 . S
C488 H515 0.930 . S
C489 O502 1.270 . S
C489 O503 1.248 . S
C490 O504 1.267 . S
C490 O505 1.278 . S
C491 Pr481 2.880 . S
C491 C492 1.491 . S
C491 O506 1.254 . S
C491 O507 1.225 . S
C492 C491 1.491 . S
C492 C493 1.392 . S
C492 C497 1.356 . S
C493 C492 1.392 . S
C493 C494 1.368 . S
C493 H516 0.929 . S
C494 C493 1.368 . S
C494 C495 1.386 . S
C494 H517 0.929 . S
C495 C494 1.386 . S
C495 C496 1.373 . S
C496 C495 1.373 . S
C496 C497 1.409 . S
C496 H518 0.931 . S
C497 C492 1.356 . S
C497 C496 1.409 . S
C497 H519 0.930 . S
C498 O508 1.270 . S
C498 O509 1.285 . S
C499 O510 1.267 . S
C499 O511 1.278 . S
O500 Pr480 2.562 . S
O500 C482 1.254 . S
O501 Pr480 2.490 . S
O501 C482 1.225 . S
O502 Pr480 2.695 1_445 S
O502 Pr481 2.436 . S
O502 C489 1.270 . S
O503 Pr480 2.512 1_445 S
O503 C489 1.248 . S
O504 Pr481 2.438 1_565 S
O504 C490 1.267 . S
O505 Pr480 2.437 1_455 S
O505 C490 1.278 . S
O506 Pr481 2.562 . S
O506 C491 1.254 . S
O507 Pr481 2.490 . S
O507 C491 1.225 . S
O508 Pr480 2.436 . S
O508 Pr481 2.695 1_665 S
O508 C498 1.270 . S
O509 Pr481 2.498 1_665 S
O509 C498 1.285 . S
O510 Pr480 2.438 1_545 S
O510 C499 1.267 . S
O511 Pr481 2.437 1_655 S
O511 C499 1.278 . S
H512 C484 0.929 . S
H513 C485 0.929 . S
H514 C487 0.931 . S
H515 C488 0.930 . S
H516 C493 0.929 . S
H517 C494 0.929 . S
H518 C496 0.931 . S
H519 C497 0.930 . S
Pr520 C522 2.859 1_556 S
Pr520 O540 2.535 1_556 S
Pr520 O541 2.480 1_556 S
Pr520 O542 2.712 . S
Pr520 O543 2.531 . S
Pr520 O545 2.423 1_556 S
Pr520 O548 2.424 1_546 S
Pr520 O550 2.459 1_545 S
Pr521 C531 2.880 1_554 S
Pr521 O542 2.436 1_564 S
Pr521 O544 2.438 1_565 S
Pr521 O546 2.562 1_554 S
Pr521 O547 2.490 1_554 S
Pr521 O548 2.695 . S
Pr521 O549 2.512 . S
Pr521 O551 2.437 1_554 S
C522 Pr520 2.859 1_554 S
C522 C523 1.491 . S
C522 O540 1.254 . S
C522 O541 1.225 . S
C523 C522 1.491 . S
C523 C524 1.392 . S
C523 C528 1.356 . S
C524 C523 1.392 . S
C524 C525 1.368 . S
C524 H552 0.929 . S
C525 C524 1.368 . S
C525 C526 1.386 . S
C525 H553 0.929 . S
C526 C525 1.386 . S
C526 C527 1.373 . S
C527 C526 1.373 . S
C527 C528 1.409 . S
C527 H554 0.931 . S
C528 C523 1.356 . S
C528 C527 1.409 . S
C528 H555 0.930 . S
C529 O542 1.270 . S
C529 O543 1.248 . S
C530 O544 1.267 . S
C530 O545 1.278 . S
C531 Pr521 2.880 1_556 S
C531 C532 1.491 . S
C531 O546 1.254 . S
C531 O547 1.225 . S
C532 C531 1.491 . S
C532 C533 1.392 . S
C532 C537 1.356 . S
C533 C532 1.392 . S
C533 C534 1.368 . S
C533 H556 0.929 . S
C534 C533 1.368 . S
C534 C535 1.386 . S
C534 H557 0.929 . S
C535 C534 1.386 . S
C535 C536 1.373 . S
C536 C535 1.373 . S
C536 C537 1.409 . S
C536 H558 0.931 . S
C537 C532 1.356 . S
C537 C536 1.409 . S
C537 H559 0.930 . S
C538 O548 1.270 . S
C538 O549 1.248 . S
C539 O550 1.267 . S
C539 O551 1.278 . S
O540 Pr520 2.535 1_554 S
O540 C522 1.254 . S
O541 Pr520 2.480 1_554 S
O541 C522 1.225 . S
O542 Pr520 2.712 . S
O542 Pr521 2.436 1_546 S
O542 C529 1.270 . S
O543 Pr520 2.531 . S
O543 C529 1.248 . S
O544 Pr521 2.438 1_545 S
O544 C530 1.267 . S
O545 Pr520 2.423 1_554 S
O545 C530 1.278 . S
O546 Pr521 2.562 1_556 S
O546 C531 1.254 . S
O547 Pr521 2.490 1_556 S
O547 C531 1.225 . S
O548 Pr520 2.424 1_564 S
O548 Pr521 2.695 . S
O548 C538 1.270 . S
O549 Pr521 2.512 . S
O549 C538 1.248 . S
O550 Pr520 2.459 1_565 S
O550 C539 1.267 . S
O551 Pr521 2.437 1_556 S
O551 C539 1.278 . S
H552 C524 0.929 . S
H553 C525 0.929 . S
H554 C527 0.931 . S
H555 C528 0.930 . S
H556 C533 0.929 . S
H557 C534 0.929 . S
H558 C536 0.931 . S
H559 C537 0.930 . S
Pr560 C562 2.880 . S
Pr560 O580 2.562 . S
Pr560 O581 2.490 . S
Pr560 O582 2.695 . S
Pr560 O583 2.512 . S
Pr560 O585 2.437 . S
Pr560 O588 2.436 . S
Pr560 O590 2.438 . S
Pr561 C571 2.880 . S
Pr561 O582 2.436 . S
Pr561 O584 2.438 . S
Pr561 O586 2.562 . S
Pr561 O587 2.490 . S
Pr561 O588 2.695 . S
Pr561 O589 2.512 . S
Pr561 O591 2.437 . S
C562 Pr560 2.880 . S
C562 C563 1.491 . S
C562 O580 1.254 . S
C562 O581 1.225 . S
C563 C562 1.491 . S
C563 C564 1.392 . S
C563 C568 1.356 . S
C564 C563 1.392 . S
C564 C565 1.368 . S
C564 H592 0.929 . S
C565 C564 1.368 . S
C565 C566 1.386 . S
C565 H593 0.929 . S
C566 C565 1.386 . S
C566 C567 1.373 . S
C567 C566 1.373 . S
C567 C568 1.409 . S
C567 H594 0.931 . S
C568 C563 1.356 . S
C568 C567 1.409 . S
C568 H595 0.930 . S
C569 O582 1.270 . S
C569 O583 1.248 . S
C570 O584 1.267 . S
C570 O585 1.278 . S
C571 Pr561 2.880 . S
C571 C572 1.491 . S
C571 O586 1.254 . S
C571 O587 1.225 . S
C572 C571 1.491 . S
C572 C573 1.392 . S
C572 C577 1.356 . S
C573 C572 1.392 . S
C573 C574 1.368 . S
C573 H596 0.929 . S
C574 C573 1.368 . S
C574 C575 1.386 . S
C574 H597 0.929 . S
C575 C574 1.386 . S
C575 C576 1.373 . S
C576 C575 1.373 . S
C576 C577 1.409 . S
C576 H598 0.931 . S
C577 C572 1.356 . S
C577 C576 1.409 . S
C577 H599 0.930 . S
C578 O588 1.270 . S
C578 O589 1.248 . S
C579 O590 1.267 . S
C579 O591 1.278 . S
O580 Pr560 2.562 . S
O580 C562 1.254 . S
O581 Pr560 2.490 . S
O581 C562 1.225 . S
O582 Pr560 2.695 . S
O582 Pr561 2.436 . S
O582 C569 1.270 . S
O583 Pr560 2.512 . S
O583 C569 1.248 . S
O584 Pr561 2.438 . S
O584 C570 1.267 . S
O585 Pr560 2.437 . S
O585 C570 1.278 . S
O586 Pr561 2.562 . S
O586 C571 1.254 . S
O587 Pr561 2.490 . S
O587 C571 1.225 . S
O588 Pr560 2.436 . S
O588 Pr561 2.695 . S
O588 C578 1.270 . S
O589 Pr561 2.512 . S
O589 C578 1.248 . S
O590 Pr560 2.438 . S
O590 C579 1.267 . S
O591 Pr561 2.437 . S
O591 C579 1.278 . S
H592 C564 0.929 . S
H593 C565 0.929 . S
H594 C567 0.931 . S
H595 C568 0.930 . S
H596 C573 0.929 . S
H597 C574 0.929 . S
H598 C576 0.931 . S
H599 C577 0.930 . S
Pr600 C602 2.880 . S
Pr600 O620 2.562 . S
Pr600 O621 2.490 . S
Pr600 O622 2.695 1_656 S
Pr600 O623 2.512 1_656 S
Pr600 O625 2.437 1_556 S
Pr600 O628 2.436 . S
Pr600 O630 2.438 1_655 S
Pr601 C611 2.880 . S
Pr601 O622 2.436 . S
Pr601 O624 2.438 1_455 S
Pr601 O626 2.562 . S
Pr601 O627 2.490 . S
Pr601 O628 2.695 1_454 S
Pr601 O629 2.512 1_454 S
Pr601 O631 2.437 1_554 S
C602 Pr600 2.880 . S
C602 C603 1.491 . S
C602 O620 1.254 . S
C602 O621 1.225 . S
C603 C602 1.491 . S
C603 C604 1.392 . S
C603 C608 1.356 . S
C604 C603 1.392 . S
C604 C605 1.368 . S
C604 H632 0.929 . S
C605 C604 1.368 . S
C605 C606 1.386 . S
C605 H633 0.929 . S
C606 C605 1.386 . S
C606 C607 1.373 . S
C607 C606 1.373 . S
C607 C608 1.409 . S
C607 H634 0.931 . S
C608 C603 1.356 . S
C608 C607 1.409 . S
C608 H635 0.930 . S
C609 O622 1.270 . S
C609 O623 1.248 . S
C610 O624 1.267 . S
C610 O625 1.278 . S
C611 Pr601 2.880 . S
C611 C612 1.491 . S
C611 O626 1.254 . S
C611 O627 1.225 . S
C612 C611 1.491 . S
C612 C613 1.392 . S
C612 C617 1.356 . S
C613 C612 1.392 . S
C613 C614 1.368 . S
C613 H636 0.929 . S
C614 C613 1.368 . S
C614 C615 1.386 . S
C614 H637 0.929 . S
C615 C614 1.386 . S
C615 C616 1.373 . S
C616 C615 1.373 . S
C616 C617 1.409 . S
C616 H638 0.931 . S
C617 C612 1.356 . S
C617 C616 1.409 . S
C617 H639 0.930 . S
C618 O628 1.270 . S
C618 O629 1.248 . S
C619 O630 1.267 . S
C619 O631 1.278 . S
O620 Pr600 2.562 . S
O620 C602 1.254 . S
O621 Pr600 2.490 . S
O621 C602 1.225 . S
O622 Pr600 2.695 1_454 S
O622 Pr601 2.436 . S
O622 C609 1.270 . S
O623 Pr600 2.512 1_454 S
O623 C609 1.248 . S
O624 Pr601 2.438 1_655 S
O624 C610 1.267 . S
O625 Pr600 2.437 1_554 S
O625 C610 1.278 . S
O626 Pr601 2.562 . S
O626 C611 1.254 . S
O627 Pr601 2.490 . S
O627 C611 1.225 . S
O628 Pr600 2.436 . S
O628 Pr601 2.695 1_656 S
O628 C618 1.270 . S
O629 Pr601 2.512 1_656 S
O629 C618 1.248 . S
O630 Pr600 2.438 1_455 S
O630 C619 1.267 . S
O631 Pr601 2.437 1_556 S
O631 C619 1.278 . S
H632 C604 0.929 . S
H633 C605 0.929 . S
H634 C607 0.931 . S
H635 C608 0.930 . S
H636 C613 0.929 . S
H637 C614 0.929 . S
H638 C616 0.931 . S
H639 C617 0.930 . S
C640 C641 1.349 . S
C640 C642 1.327 . S
C640 H665 0.950 . S
C641 C640 1.349 . S
C641 C657 1.349 . S
C642 C640 1.327 . S
C642 C661 1.429 . S
C642 H666 0.950 . S
C643 C660 1.574 . S
C643 C662 1.368 . S
C643 H667 0.949 . S
H644 C648 0.949 . S
C645 C646 1.349 . S
C645 C647 1.327 . S
C645 H668 0.950 . S
C646 C645 1.349 . S
C646 C658 1.349 . S
C647 C645 1.327 . S
C647 C663 1.429 . S
C647 H669 0.950 . S
C648 H644 0.949 . S
C648 C656 1.574 . S
C648 C664 1.368 . S
H649 C657 0.950 . S
H650 C655 0.950 . S
H651 C656 0.949 . S
H652 C658 0.950 . S
H653 C659 0.950 . S
H654 C660 0.949 . S
C655 H650 0.950 . S
C655 C657 1.327 . S
C655 C661 1.429 . S
C656 C648 1.574 . S
C656 H651 0.949 . S
C656 C662 1.368 . S
C657 C641 1.349 . S
C657 H649 0.950 . S
C657 C655 1.327 . S
C658 C646 1.349 . S
C658 H652 0.950 . S
C658 C659 1.327 . S
C659 H653 0.950 . S
C659 C658 1.327 . S
C659 C663 1.429 . S
C660 C643 1.574 . S
C660 H654 0.949 . S
C660 C664 1.368 . S
C661 C642 1.429 . S
C661 C655 1.429 . S
C661 C662 1.523 . S
C662 C643 1.368 . S
C662 C656 1.368 . S
C662 C661 1.523 . S
C663 C647 1.429 . S
C663 C659 1.429 . S
C663 C664 1.523 . S
C664 C648 1.368 . S
C664 C660 1.368 . S
C664 C663 1.523 . S
H665 C640 0.950 . S
H666 C642 0.950 . S
H667 C643 0.949 . S
H668 C645 0.950 . S
H669 C647 0.950 . S
C670 C671 1.349 . S
C670 C672 1.327 . S
C670 H695 0.950 . S
C671 C670 1.349 . S
C671 C687 1.349 . S
C672 C670 1.327 . S
C672 C691 1.429 . S
C672 H696 0.950 . S
C673 C690 1.574 . S
C673 C692 1.368 . S
C673 H697 0.949 . S
H674 C678 0.949 . S
C675 C676 1.349 . S
C675 C677 1.327 . S
C675 H698 0.950 . S
C676 C675 1.349 . S
C676 C688 1.349 . S
C677 C675 1.327 . S
C677 C693 1.429 . S
C677 H699 0.950 . S
C678 H674 0.949 . S
C678 C686 1.574 . S
C678 C694 1.368 . S
H679 C687 0.950 . S
H680 C685 0.950 . S
H681 C686 0.949 . S
H682 C688 0.950 . S
H683 C689 0.950 . S
H684 C690 0.949 . S
C685 H680 0.950 . S
C685 C687 1.327 . S
C685 C691 1.429 . S
C686 C678 1.574 . S
C686 H681 0.949 . S
C686 C692 1.368 . S
C687 C671 1.349 . S
C687 H679 0.950 . S
C687 C685 1.327 . S
C688 C676 1.349 . S
C688 H682 0.950 . S
C688 C689 1.327 . S
C689 H683 0.950 . S
C689 C688 1.327 . S
C689 C693 1.429 . S
C690 C673 1.574 . S
C690 H684 0.949 . S
C690 C694 1.368 . S
C691 C672 1.429 . S
C691 C685 1.429 . S
C691 C692 1.523 . S
C692 C673 1.368 . S
C692 C686 1.368 . S
C692 C691 1.523 . S
C693 C677 1.429 . S
C693 C689 1.429 . S
C693 C694 1.523 . S
C694 C678 1.368 . S
C694 C690 1.368 . S
C694 C693 1.523 . S
H695 C670 0.950 . S
H696 C672 0.950 . S
H697 C673 0.949 . S
H698 C675 0.950 . S
H699 C677 0.950 . S
C700 C701 1.349 . S
C700 C702 1.327 . S
C700 H725 0.950 . S
C701 C700 1.349 . S
C701 C717 1.349 . S
C702 C700 1.327 . S
C702 C721 1.429 . S
C702 H726 0.950 . S
C703 C720 1.574 . S
C703 C722 1.368 . S
C703 H727 0.949 . S
H704 C708 0.949 . S
C705 C706 1.349 . S
C705 C707 1.327 . S
C705 H728 0.950 . S
C706 C705 1.349 . S
C706 C718 1.349 . S
C707 C705 1.327 . S
C707 C723 1.429 . S
C707 H729 0.950 . S
C708 H704 0.949 . S
C708 C716 1.574 . S
C708 C724 1.368 . S
H709 C717 0.950 . S
H710 C715 0.950 . S
H711 C716 0.949 . S
H712 C718 0.950 . S
H713 C719 0.950 . S
H714 C720 0.949 . S
C715 H710 0.950 . S
C715 C717 1.327 . S
C715 C721 1.429 . S
C716 C708 1.574 . S
C716 H711 0.949 . S
C716 C722 1.368 . S
C717 C701 1.349 . S
C717 H709 0.950 . S
C717 C715 1.327 . S
C718 C706 1.349 . S
C718 H712 0.950 . S
C718 C719 1.327 . S
C719 H713 0.950 . S
C719 C718 1.327 . S
C719 C723 1.429 . S
C720 C703 1.574 . S
C720 H714 0.949 . S
C720 C724 1.368 . S
C721 C702 1.429 . S
C721 C715 1.429 . S
C721 C722 1.523 . S
C722 C703 1.368 . S
C722 C716 1.368 . S
C722 C721 1.523 . S
C723 C707 1.429 . S
C723 C719 1.429 . S
C723 C724 1.523 . S
C724 C708 1.368 . S
C724 C720 1.368 . S
C724 C723 1.523 . S
H725 C700 0.950 . S
H726 C702 0.950 . S
H727 C703 0.949 . S
H728 C705 0.950 . S
H729 C707 0.950 . S
C730 C731 1.349 . S
C730 C732 1.327 . S
C730 H755 0.950 . S
C731 C730 1.349 . S
C731 C747 1.349 . S
C732 C730 1.327 . S
C732 C751 1.429 . S
C732 H756 0.950 . S
C733 C750 1.574 . S
C733 C752 1.368 . S
C733 H757 0.949 . S
H734 C738 0.949 . S
C735 C736 1.349 . S
C735 C737 1.327 . S
C735 H758 0.950 . S
C736 C735 1.349 . S
C736 C748 1.349 . S
C737 C735 1.327 . S
C737 C753 1.429 . S
C737 H759 0.950 . S
C738 H734 0.949 . S
C738 C746 1.574 . S
C738 C754 1.368 . S
H739 C747 0.950 . S
H740 C745 0.950 . S
H741 C746 0.949 . S
H742 C748 0.950 . S
H743 C749 0.950 . S
H744 C750 0.949 . S
C745 H740 0.950 . S
C745 C747 1.327 . S
C745 C751 1.429 . S
C746 C738 1.574 . S
C746 H741 0.949 . S
C746 C752 1.368 . S
C747 C731 1.349 . S
C747 H739 0.950 . S
C747 C745 1.327 . S
C748 C736 1.349 . S
C748 H742 0.950 . S
C748 C749 1.327 . S
C749 H743 0.950 . S
C749 C748 1.327 . S
C749 C753 1.429 . S
C750 C733 1.574 . S
C750 H744 0.949 . S
C750 C754 1.368 . S
C751 C732 1.429 . S
C751 C745 1.429 . S
C751 C752 1.523 . S
C752 C733 1.368 . S
C752 C746 1.368 . S
C752 C751 1.523 . S
C753 C737 1.429 . S
C753 C749 1.429 . S
C753 C754 1.523 . S
C754 C738 1.368 . S
C754 C750 1.368 . S
C754 C753 1.523 . S
H755 C730 0.950 . S
H756 C732 0.950 . S
H757 C733 0.949 . S
H758 C735 0.950 . S
H759 C737 0.950 . S
C760 C761 1.349 . S
C760 C762 1.327 . S
C760 H785 0.950 . S
C761 C760 1.349 . S
C761 C777 1.349 . S
C762 C760 1.327 . S
C762 C781 1.429 . S
C762 H786 0.950 . S
C763 C780 1.574 . S
C763 C782 1.368 . S
C763 H787 0.949 . S
H764 C768 0.949 . S
C765 C766 1.349 . S
C765 C767 1.327 . S
C765 H788 0.950 . S
C766 C765 1.349 . S
C766 C778 1.349 . S
C767 C765 1.327 . S
C767 C783 1.429 . S
C767 H789 0.950 . S
C768 H764 0.949 . S
C768 C776 1.574 . S
C768 C784 1.368 . S
H769 C777 0.950 . S
H770 C775 0.950 . S
H771 C776 0.949 . S
H772 C778 0.950 . S
H773 C779 0.950 . S
H774 C780 0.949 . S
C775 H770 0.950 . S
C775 C777 1.327 . S
C775 C781 1.429 . S
C776 C768 1.574 . S
C776 H771 0.949 . S
C776 C782 1.368 . S
C777 C761 1.349 . S
C777 H769 0.950 . S
C777 C775 1.327 . S
C778 C766 1.349 . S
C778 H772 0.950 . S
C778 C779 1.327 . S
C779 H773 0.950 . S
C779 C778 1.327 . S
C779 C783 1.429 . S
C780 C763 1.574 . S
C780 H774 0.949 . S
C780 C784 1.368 . S
C781 C762 1.429 . S
C781 C775 1.429 . S
C781 C782 1.523 . S
C782 C763 1.368 . S
C782 C776 1.368 . S
C782 C781 1.523 . S
C783 C767 1.429 . S
C783 C779 1.429 . S
C783 C784 1.523 . S
C784 C768 1.368 . S
C784 C780 1.368 . S
C784 C783 1.523 . S
H785 C760 0.950 . S
H786 C762 0.950 . S
H787 C763 0.949 . S
H788 C765 0.950 . S
H789 C767 0.950 . S
C790 C791 1.349 . S
C790 C792 1.327 . S
C790 H815 0.950 . S
C791 C790 1.349 . S
C791 C807 1.349 . S
C792 C790 1.327 . S
C792 C811 1.429 . S
C792 H816 0.950 . S
C793 C810 1.574 . S
C793 C812 1.368 . S
C793 H817 0.949 . S
H794 C798 0.949 . S
C795 C796 1.349 . S
C795 C797 1.327 . S
C795 H818 0.950 . S
C796 C795 1.349 . S
C796 C808 1.349 . S
C797 C795 1.327 . S
C797 C813 1.429 . S
C797 H819 0.950 . S
C798 H794 0.949 . S
C798 C806 1.574 . S
C798 C814 1.368 . S
H799 C807 0.950 . S
H800 C805 0.950 . S
H801 C806 0.949 . S
H802 C808 0.950 . S
H803 C809 0.950 . S
H804 C810 0.949 . S
C805 H800 0.950 . S
C805 C807 1.327 . S
C805 C811 1.429 . S
C806 C798 1.574 . S
C806 H801 0.949 . S
C806 C812 1.368 . S
C807 C791 1.349 . S
C807 H799 0.950 . S
C807 C805 1.327 . S
C808 C796 1.349 . S
C808 H802 0.950 . S
C808 C809 1.327 . S
C809 H803 0.950 . S
C809 C808 1.327 . S
C809 C813 1.429 . S
C810 C793 1.574 . S
C810 H804 0.949 . S
C810 C814 1.368 . S
C811 C792 1.429 . S
C811 C805 1.429 . S
C811 C812 1.523 . S
C812 C793 1.368 . S
C812 C806 1.368 . S
C812 C811 1.523 . S
C813 C797 1.429 . S
C813 C809 1.429 . S
C813 C814 1.523 . S
C814 C798 1.368 . S
C814 C810 1.368 . S
C814 C813 1.523 . S
H815 C790 0.950 . S
H816 C792 0.950 . S
H817 C793 0.949 . S
H818 C795 0.950 . S
H819 C797 0.950 . S
C820 C821 1.349 . S
C820 C822 1.327 . S
C820 H845 0.950 . S
C821 C820 1.349 . S
C821 C837 1.349 . S
C822 C820 1.327 . S
C822 C841 1.429 . S
C822 H846 0.950 . S
C823 C840 1.574 . S
C823 C842 1.368 . S
C823 H847 0.949 . S
H824 C828 0.949 . S
C825 C826 1.349 . S
C825 C827 1.327 . S
C825 H848 0.950 . S
C826 C825 1.349 . S
C826 C838 1.349 . S
C827 C825 1.327 . S
C827 C843 1.429 . S
C827 H849 0.950 . S
C828 H824 0.949 . S
C828 C836 1.574 . S
C828 C844 1.368 . S
H829 C837 0.950 . S
H830 C835 0.950 . S
H831 C836 0.949 . S
H832 C838 0.950 . S
H833 C839 0.950 . S
H834 C840 0.949 . S
C835 H830 0.950 . S
C835 C837 1.327 . S
C835 C841 1.429 . S
C836 C828 1.574 . S
C836 H831 0.949 . S
C836 C842 1.368 . S
C837 C821 1.349 . S
C837 H829 0.950 . S
C837 C835 1.327 . S
C838 C826 1.349 . S
C838 H832 0.950 . S
C838 C839 1.327 . S
C839 H833 0.950 . S
C839 C838 1.327 . S
C839 C843 1.429 . S
C840 C823 1.574 . S
C840 H834 0.949 . S
C840 C844 1.368 . S
C841 C822 1.429 . S
C841 C835 1.429 . S
C841 C842 1.523 . S
C842 C823 1.368 . S
C842 C836 1.368 . S
C842 C841 1.523 . S
C843 C827 1.429 . S
C843 C839 1.429 . S
C843 C844 1.523 . S
C844 C828 1.368 . S
C844 C840 1.368 . S
C844 C843 1.523 . S
H845 C820 0.950 . S
H846 C822 0.950 . S
H847 C823 0.949 . S
H848 C825 0.950 . S
H849 C827 0.950 . S
C850 C851 1.349 . S
C850 C852 1.327 . S
C850 H875 0.950 . S
C851 C850 1.349 . S
C851 C867 1.349 . S
C852 C850 1.327 . S
C852 C871 1.429 . S
C852 H876 0.950 . S
C853 C870 1.574 . S
C853 C872 1.368 . S
C853 H877 0.949 . S
H854 C858 0.949 . S
C855 C856 1.349 . S
C855 C857 1.327 . S
C855 H878 0.950 . S
C856 C855 1.349 . S
C856 C868 1.349 . S
C857 C855 1.327 . S
C857 C873 1.429 . S
C857 H879 0.950 . S
C858 H854 0.949 . S
C858 C866 1.574 . S
C858 C874 1.368 . S
H859 C867 0.950 . S
H860 C865 0.950 . S
H861 C866 0.949 . S
H862 C868 0.950 . S
H863 C869 0.950 . S
H864 C870 0.949 . S
C865 H860 0.950 . S
C865 C867 1.327 . S
C865 C871 1.429 . S
C866 C858 1.574 . S
C866 H861 0.949 . S
C866 C872 1.368 . S
C867 C851 1.349 . S
C867 H859 0.950 . S
C867 C865 1.327 . S
C868 C856 1.349 . S
C868 H862 0.950 . S
C868 C869 1.327 . S
C869 H863 0.950 . S
C869 C868 1.327 . S
C869 C873 1.429 . S
C870 C853 1.574 . S
C870 H864 0.949 . S
C870 C874 1.368 . S
C871 C852 1.429 . S
C871 C865 1.429 . S
C871 C872 1.523 . S
C872 C853 1.368 . S
C872 C866 1.368 . S
C872 C871 1.523 . S
C873 C857 1.429 . S
C873 C869 1.429 . S
C873 C874 1.523 . S
C874 C858 1.368 . S
C874 C870 1.368 . S
C874 C873 1.523 . S
H875 C850 0.950 . S
H876 C852 0.950 . S
H877 C853 0.949 . S
H878 C855 0.950 . S
H879 C857 0.950 . S
C880 C881 1.349 . S
C880 C882 1.327 . S
C880 H905 0.950 . S
C881 C880 1.349 . S
C881 C897 1.349 . S
C882 C880 1.327 . S
C882 C901 1.429 . S
C882 H906 0.950 . S
C883 C900 1.574 . S
C883 C902 1.368 . S
C883 H907 0.949 . S
H884 C888 0.949 . S
C885 C886 1.349 . S
C885 C887 1.327 . S
C885 H908 0.950 . S
C886 C885 1.349 . S
C886 C898 1.349 . S
C887 C885 1.327 . S
C887 C903 1.429 . S
C887 H909 0.950 . S
C888 H884 0.949 . S
C888 C896 1.574 . S
C888 C904 1.368 . S
H889 C897 0.950 . S
H890 C895 0.950 . S
H891 C896 0.949 . S
H892 C898 0.950 . S
H893 C899 0.950 . S
H894 C900 0.949 . S
C895 H890 0.950 . S
C895 C897 1.327 . S
C895 C901 1.429 . S
C896 C888 1.574 . S
C896 H891 0.949 . S
C896 C902 1.368 . S
C897 C881 1.349 . S
C897 H889 0.950 . S
C897 C895 1.327 . S
C898 C886 1.349 . S
C898 H892 0.950 . S
C898 C899 1.327 . S
C899 H893 0.950 . S
C899 C898 1.327 . S
C899 C903 1.429 . S
C900 C883 1.574 . S
C900 H894 0.949 . S
C900 C904 1.368 . S
C901 C882 1.429 . S
C901 C895 1.429 . S
C901 C902 1.523 . S
C902 C883 1.368 . S
C902 C896 1.368 . S
C902 C901 1.523 . S
C903 C887 1.429 . S
C903 C899 1.429 . S
C903 C904 1.523 . S
C904 C888 1.368 . S
C904 C900 1.368 . S
C904 C903 1.523 . S
H905 C880 0.950 . S
H906 C882 0.950 . S
H907 C883 0.949 . S
H908 C885 0.950 . S
H909 C887 0.950 . S
C910 C911 1.349 . S
C910 C912 1.327 . S
C910 H935 0.950 . S
C911 C910 1.349 . S
C911 C927 1.349 . S
C912 C910 1.327 . S
C912 C931 1.429 . S
C912 H936 0.950 . S
C913 C930 1.574 . S
C913 C932 1.368 . S
C913 H937 0.949 . S
H914 C918 0.949 . S
C915 C916 1.349 . S
C915 C917 1.327 . S
C915 H938 0.950 . S
C916 C915 1.349 . S
C916 C928 1.349 . S
C917 C915 1.327 . S
C917 C933 1.429 . S
C917 H939 0.950 . S
C918 H914 0.949 . S
C918 C926 1.574 . S
C918 C934 1.368 . S
H919 C927 0.950 . S
H920 C925 0.950 . S
H921 C926 0.949 . S
H922 C928 0.950 . S
H923 C929 0.950 . S
H924 C930 0.949 . S
C925 H920 0.950 . S
C925 C927 1.327 . S
C925 C931 1.429 . S
C926 C918 1.574 . S
C926 H921 0.949 . S
C926 C932 1.368 . S
C927 C911 1.349 . S
C927 H919 0.950 . S
C927 C925 1.327 . S
C928 C916 1.349 . S
C928 H922 0.950 . S
C928 C929 1.327 . S
C929 H923 0.950 . S
C929 C928 1.327 . S
C929 C933 1.429 . S
C930 C913 1.574 . S
C930 H924 0.949 . S
C930 C934 1.368 . S
C931 C912 1.429 . S
C931 C925 1.429 . S
C931 C932 1.523 . S
C932 C913 1.368 . S
C932 C926 1.368 . S
C932 C931 1.523 . S
C933 C917 1.429 . S
C933 C929 1.429 . S
C933 C934 1.523 . S
C934 C918 1.368 . S
C934 C930 1.368 . S
C934 C933 1.523 . S
H935 C910 0.950 . S
H936 C912 0.950 . S
H937 C913 0.949 . S
H938 C915 0.950 . S
H939 C917 0.950 . S
C940 C941 1.349 . S
C940 C942 1.327 . S
C940 H965 0.950 . S
C941 C940 1.349 . S
C941 C957 1.349 . S
C942 C940 1.327 . S
C942 C961 1.429 . S
C942 H966 0.950 . S
C943 C960 1.574 . S
C943 C962 1.368 . S
C943 H967 0.949 . S
H944 C948 0.949 . S
C945 C946 1.349 . S
C945 C947 1.327 . S
C945 H968 0.950 . S
C946 C945 1.349 . S
C946 C958 1.349 . S
C947 C945 1.327 . S
C947 C963 1.429 . S
C947 H969 0.950 . S
C948 H944 0.949 . S
C948 C956 1.574 . S
C948 C964 1.368 . S
H949 C957 0.950 . S
H950 C955 0.950 . S
H951 C956 0.949 . S
H952 C958 0.950 . S
H953 C959 0.950 . S
H954 C960 0.949 . S
C955 H950 0.950 . S
C955 C957 1.327 . S
C955 C961 1.429 . S
C956 C948 1.574 . S
C956 H951 0.949 . S
C956 C962 1.368 . S
C957 C941 1.349 . S
C957 H949 0.950 . S
C957 C955 1.327 . S
C958 C946 1.349 . S
C958 H952 0.950 . S
C958 C959 1.327 . S
C959 H953 0.950 . S
C959 C958 1.327 . S
C959 C963 1.429 . S
C960 C943 1.574 . S
C960 H954 0.949 . S
C960 C964 1.368 . S
C961 C942 1.429 . S
C961 C955 1.429 . S
C961 C962 1.523 . S
C962 C943 1.368 . S
C962 C956 1.368 . S
C962 C961 1.523 . S
C963 C947 1.429 . S
C963 C959 1.429 . S
C963 C964 1.523 . S
C964 C948 1.368 . S
C964 C960 1.368 . S
C964 C963 1.523 . S
H965 C940 0.950 . S
H966 C942 0.950 . S
H967 C943 0.949 . S
H968 C945 0.950 . S
H969 C947 0.950 . S
C970 C971 1.349 . S
C970 C972 1.327 . S
C970 H995 0.950 . S
C971 C970 1.349 . S
C971 C987 1.349 . S
C972 C970 1.327 . S
C972 C991 1.429 . S
C972 H996 0.950 . S
C973 C990 1.574 . S
C973 C992 1.368 . S
C973 H997 0.949 . S
H974 C978 0.949 . S
C975 C976 1.349 . S
C975 C977 1.327 . S
C975 H998 0.950 . S
C976 C975 1.349 . S
C976 C988 1.349 . S
C977 C975 1.327 . S
C977 C993 1.429 . S
C977 H999 0.950 . S
C978 H974 0.949 . S
C978 C986 1.574 . S
C978 C994 1.368 . S
H979 C987 0.950 . S
H980 C985 0.950 . S
H981 C986 0.949 . S
H982 C988 0.950 . S
H983 C989 0.950 . S
H984 C990 0.949 . S
C985 H980 0.950 . S
C985 C987 1.327 . S
C985 C991 1.429 . S
C986 C978 1.574 . S
C986 H981 0.949 . S
C986 C992 1.368 . S
C987 C971 1.349 . S
C987 H979 0.950 . S
C987 C985 1.327 . S
C988 C976 1.349 . S
C988 H982 0.950 . S
C988 C989 1.327 . S
C989 H983 0.950 . S
C989 C988 1.327 . S
C989 C993 1.429 . S
C990 C973 1.574 . S
C990 H984 0.949 . S
C990 C994 1.368 . S
C991 C972 1.429 . S
C991 C985 1.429 . S
C991 C992 1.523 . S
C992 C973 1.368 . S
C992 C986 1.368 . S
C992 C991 1.523 . S
C993 C977 1.429 . S
C993 C989 1.429 . S
C993 C994 1.523 . S
C994 C978 1.368 . S
C994 C990 1.368 . S
C994 C993 1.523 . S
H995 C970 0.950 . S
H996 C972 0.950 . S
H997 C973 0.949 . S
H998 C975 0.950 . S
H999 C977 0.950 . S
C1000 C1001 1.349 . S
C1000 C1002 1.327 . S
C1000 H1025 0.950 . S
C1001 C1000 1.349 . S
C1001 C1017 1.349 . S
C1002 C1000 1.327 . S
C1002 C1021 1.429 . S
C1002 H1026 0.950 . S
C1003 C1020 1.574 . S
C1003 C1022 1.368 . S
C1003 H1027 0.949 . S
H1004 C1008 0.949 . S
C1005 C1006 1.349 . S
C1005 C1007 1.327 . S
C1005 H1028 0.950 . S
C1006 C1005 1.349 . S
C1006 C1018 1.349 . S
C1007 C1005 1.327 . S
C1007 C1023 1.429 . S
C1007 H1029 0.950 . S
C1008 H1004 0.949 . S
C1008 C1016 1.574 . S
C1008 C1024 1.368 . S
H1009 C1017 0.950 . S
H1010 C1015 0.950 . S
H1011 C1016 0.949 . S
H1012 C1018 0.950 . S
H1013 C1019 0.950 . S
H1014 C1020 0.949 . S
C1015 H1010 0.950 . S
C1015 C1017 1.327 . S
C1015 C1021 1.429 . S
C1016 C1008 1.574 . S
C1016 H1011 0.949 . S
C1016 C1022 1.368 . S
C1017 C1001 1.349 . S
C1017 H1009 0.950 . S
C1017 C1015 1.327 . S
C1018 C1006 1.349 . S
C1018 H1012 0.950 . S
C1018 C1019 1.327 . S
C1019 H1013 0.950 . S
C1019 C1018 1.327 . S
C1019 C1023 1.429 . S
C1020 C1003 1.574 . S
C1020 H1014 0.949 . S
C1020 C1024 1.368 . S
C1021 C1002 1.429 . S
C1021 C1015 1.429 . S
C1021 C1022 1.523 . S
C1022 C1003 1.368 . S
C1022 C1016 1.368 . S
C1022 C1021 1.523 . S
C1023 C1007 1.429 . S
C1023 C1019 1.429 . S
C1023 C1024 1.523 . S
C1024 C1008 1.368 . S
C1024 C1020 1.368 . S
C1024 C1023 1.523 . S
H1025 C1000 0.950 . S
H1026 C1002 0.950 . S
H1027 C1003 0.949 . S
H1028 C1005 0.950 . S
H1029 C1007 0.950 . S
C1030 C1031 1.349 . S
C1030 C1032 1.327 . S
C1030 H1055 0.950 . S
C1031 C1030 1.349 . S
C1031 C1047 1.349 . S
C1032 C1030 1.327 . S
C1032 C1051 1.429 . S
C1032 H1056 0.950 . S
C1033 C1050 1.574 . S
C1033 C1052 1.368 . S
C1033 H1057 0.949 . S
H1034 C1038 0.949 . S
C1035 C1036 1.349 . S
C1035 C1037 1.327 . S
C1035 H1058 0.950 . S
C1036 C1035 1.349 . S
C1036 C1048 1.349 . S
C1037 C1035 1.327 . S
C1037 C1053 1.429 . S
C1037 H1059 0.950 . S
C1038 H1034 0.949 . S
C1038 C1046 1.574 . S
C1038 C1054 1.368 . S
H1039 C1047 0.950 . S
H1040 C1045 0.950 . S
H1041 C1046 0.949 . S
H1042 C1048 0.950 . S
H1043 C1049 0.950 . S
H1044 C1050 0.949 . S
C1045 H1040 0.950 . S
C1045 C1047 1.327 . S
C1045 C1051 1.429 . S
C1046 C1038 1.574 . S
C1046 H1041 0.949 . S
C1046 C1052 1.368 . S
C1047 C1031 1.349 . S
C1047 H1039 0.950 . S
C1047 C1045 1.327 . S
C1048 C1036 1.349 . S
C1048 H1042 0.950 . S
C1048 C1049 1.327 . S
C1049 H1043 0.950 . S
C1049 C1048 1.327 . S
C1049 C1053 1.429 . S
C1050 C1033 1.574 . S
C1050 H1044 0.949 . S
C1050 C1054 1.368 . S
C1051 C1032 1.429 . S
C1051 C1045 1.429 . S
C1051 C1052 1.523 . S
C1052 C1033 1.368 . S
C1052 C1046 1.368 . S
C1052 C1051 1.523 . S
C1053 C1037 1.429 . S
C1053 C1049 1.429 . S
C1053 C1054 1.523 . S
C1054 C1038 1.368 . S
C1054 C1050 1.368 . S
C1054 C1053 1.523 . S
H1055 C1030 0.950 . S
H1056 C1032 0.950 . S
H1057 C1033 0.949 . S
H1058 C1035 0.950 . S
H1059 C1037 0.950 . S
C1060 C1061 1.349 . S
C1060 C1062 1.327 . S
C1060 H1085 0.950 . S
C1061 C1060 1.349 . S
C1061 C1077 1.349 . S
C1062 C1060 1.327 . S
C1062 C1081 1.429 . S
C1062 H1086 0.950 . S
C1063 C1080 1.574 . S
C1063 C1082 1.368 . S
C1063 H1087 0.949 . S
H1064 C1068 0.949 . S
C1065 C1066 1.349 . S
C1065 C1067 1.327 . S
C1065 H1088 0.950 . S
C1066 C1065 1.349 . S
C1066 C1078 1.349 . S
C1067 C1065 1.327 . S
C1067 C1083 1.429 . S
C1067 H1089 0.950 . S
C1068 H1064 0.949 . S
C1068 C1076 1.574 . S
C1068 C1084 1.368 . S
H1069 C1077 0.950 . S
H1070 C1075 0.950 . S
H1071 C1076 0.949 . S
H1072 C1078 0.950 . S
H1073 C1079 0.950 . S
H1074 C1080 0.949 . S
C1075 H1070 0.950 . S
C1075 C1077 1.327 . S
C1075 C1081 1.429 . S
C1076 C1068 1.574 . S
C1076 H1071 0.949 . S
C1076 C1082 1.368 . S
C1077 C1061 1.349 . S
C1077 H1069 0.950 . S
C1077 C1075 1.327 . S
C1078 C1066 1.349 . S
C1078 H1072 0.950 . S
C1078 C1079 1.327 . S
C1079 H1073 0.950 . S
C1079 C1078 1.327 . S
C1079 C1083 1.429 . S
C1080 C1063 1.574 . S
C1080 H1074 0.949 . S
C1080 C1084 1.368 . S
C1081 C1062 1.429 . S
C1081 C1075 1.429 . S
C1081 C1082 1.523 . S
C1082 C1063 1.368 . S
C1082 C1076 1.368 . S
C1082 C1081 1.523 . S
C1083 C1067 1.429 . S
C1083 C1079 1.429 . S
C1083 C1084 1.523 . S
C1084 C1068 1.368 . S
C1084 C1080 1.368 . S
C1084 C1083 1.523 . S
H1085 C1060 0.950 . S
H1086 C1062 0.950 . S
H1087 C1063 0.949 . S
H1088 C1065 0.950 . S
H1089 C1067 0.950 . S
C1090 C1091 1.349 . S
C1090 C1092 1.327 . S
C1090 H1115 0.950 . S
C1091 C1090 1.349 . S
C1091 C1107 1.349 . S
C1092 C1090 1.327 . S
C1092 C1111 1.429 . S
C1092 H1116 0.950 . S
C1093 C1110 1.574 . S
C1093 C1112 1.368 . S
C1093 H1117 0.949 . S
H1094 C1098 0.949 . S
C1095 C1096 1.349 . S
C1095 C1097 1.327 . S
C1095 H1118 0.950 . S
C1096 C1095 1.349 . S
C1096 C1108 1.349 . S
C1097 C1095 1.327 . S
C1097 C1113 1.429 . S
C1097 H1119 0.950 . S
C1098 H1094 0.949 . S
C1098 C1106 1.574 . S
C1098 C1114 1.368 . S
H1099 C1107 0.950 . S
H1100 C1105 0.950 . S
H1101 C1106 0.949 . S
H1102 C1108 0.950 . S
H1103 C1109 0.950 . S
H1104 C1110 0.949 . S
C1105 H1100 0.950 . S
C1105 C1107 1.327 . S
C1105 C1111 1.429 . S
C1106 C1098 1.574 . S
C1106 H1101 0.949 . S
C1106 C1112 1.368 . S
C1107 C1091 1.349 . S
C1107 H1099 0.950 . S
C1107 C1105 1.327 . S
C1108 C1096 1.349 . S
C1108 H1102 0.950 . S
C1108 C1109 1.327 . S
C1109 H1103 0.950 . S
C1109 C1108 1.327 . S
C1109 C1113 1.429 . S
C1110 C1093 1.574 . S
C1110 H1104 0.949 . S
C1110 C1114 1.368 . S
C1111 C1092 1.429 . S
C1111 C1105 1.429 . S
C1111 C1112 1.523 . S
C1112 C1093 1.368 . S
C1112 C1106 1.368 . S
C1112 C1111 1.523 . S
C1113 C1097 1.429 . S
C1113 C1109 1.429 . S
C1113 C1114 1.523 . S
C1114 C1098 1.368 . S
C1114 C1110 1.368 . S
C1114 C1113 1.523 . S
H1115 C1090 0.950 . S
H1116 C1092 0.950 . S
H1117 C1093 0.949 . S
H1118 C1095 0.950 . S
H1119 C1097 0.950 . S
C1120 C1121 1.349 . S
C1120 C1122 1.327 . S
C1120 H1145 0.950 . S
C1121 C1120 1.349 . S
C1121 C1137 1.349 . S
C1122 C1120 1.327 . S
C1122 C1141 1.429 . S
C1122 H1146 0.950 . S
C1123 C1140 1.574 . S
C1123 C1142 1.368 . S
C1123 H1147 0.949 . S
H1124 C1128 0.949 . S
C1125 C1126 1.349 . S
C1125 C1127 1.327 . S
C1125 H1148 0.950 . S
C1126 C1125 1.349 . S
C1126 C1138 1.349 . S
C1127 C1125 1.327 . S
C1127 C1143 1.429 . S
C1127 H1149 0.950 . S
C1128 H1124 0.949 . S
C1128 C1136 1.574 . S
C1128 C1144 1.368 . S
H1129 C1137 0.950 . S
H1130 C1135 0.950 . S
H1131 C1136 0.949 . S
H1132 C1138 0.950 . S
H1133 C1139 0.950 . S
H1134 C1140 0.949 . S
C1135 H1130 0.950 . S
C1135 C1137 1.327 . S
C1135 C1141 1.429 . S
C1136 C1128 1.574 . S
C1136 H1131 0.949 . S
C1136 C1142 1.368 . S
C1137 C1121 1.349 . S
C1137 H1129 0.950 . S
C1137 C1135 1.327 . S
C1138 C1126 1.349 . S
C1138 H1132 0.950 . S
C1138 C1139 1.327 . S
C1139 H1133 0.950 . S
C1139 C1138 1.327 . S
C1139 C1143 1.429 . S
C1140 C1123 1.574 . S
C1140 H1134 0.949 . S
C1140 C1144 1.368 . S
C1141 C1122 1.429 . S
C1141 C1135 1.429 . S
C1141 C1142 1.523 . S
C1142 C1123 1.368 . S
C1142 C1136 1.368 . S
C1142 C1141 1.523 . S
C1143 C1127 1.429 . S
C1143 C1139 1.429 . S
C1143 C1144 1.523 . S
C1144 C1128 1.368 . S
C1144 C1140 1.368 . S
C1144 C1143 1.523 . S
H1145 C1120 0.950 . S
H1146 C1122 0.950 . S
H1147 C1123 0.949 . S
H1148 C1125 0.950 . S
H1149 C1127 0.950 . S
C1150 C1151 1.349 . S
C1150 C1152 1.327 . S
C1150 H1175 0.950 . S
C1151 C1150 1.349 . S
C1151 C1167 1.349 . S
C1152 C1150 1.327 . S
C1152 C1171 1.429 . S
C1152 H1176 0.950 . S
C1153 C1170 1.574 . S
C1153 C1172 1.368 . S
C1153 H1177 0.949 . S
H1154 C1158 0.949 . S
C1155 C1156 1.349 . S
C1155 C1157 1.327 . S
C1155 H1178 0.950 . S
C1156 C1155 1.349 . S
C1156 C1168 1.349 . S
C1157 C1155 1.327 . S
C1157 C1173 1.429 . S
C1157 H1179 0.950 . S
C1158 H1154 0.949 . S
C1158 C1166 1.574 . S
C1158 C1174 1.368 . S
H1159 C1167 0.950 . S
H1160 C1165 0.950 . S
H1161 C1166 0.949 . S
H1162 C1168 0.950 . S
H1163 C1169 0.950 . S
H1164 C1170 0.949 . S
C1165 H1160 0.950 . S
C1165 C1167 1.327 . S
C1165 C1171 1.429 . S
C1166 C1158 1.574 . S
C1166 H1161 0.949 . S
C1166 C1172 1.368 . S
C1167 C1151 1.349 . S
C1167 H1159 0.950 . S
C1167 C1165 1.327 . S
C1168 C1156 1.349 . S
C1168 H1162 0.950 . S
C1168 C1169 1.327 . S
C1169 H1163 0.950 . S
C1169 C1168 1.327 . S
C1169 C1173 1.429 . S
C1170 C1153 1.574 . S
C1170 H1164 0.949 . S
C1170 C1174 1.368 . S
C1171 C1152 1.429 . S
C1171 C1165 1.429 . S
C1171 C1172 1.523 . S
C1172 C1153 1.368 . S
C1172 C1166 1.368 . S
C1172 C1171 1.523 . S
C1173 C1157 1.429 . S
C1173 C1169 1.429 . S
C1173 C1174 1.523 . S
C1174 C1158 1.368 . S
C1174 C1170 1.368 . S
C1174 C1173 1.523 . S
H1175 C1150 0.950 . S
H1176 C1152 0.950 . S
H1177 C1153 0.949 . S
H1178 C1155 0.950 . S
H1179 C1157 0.950 . S
C1180 C1181 1.349 . S
C1180 C1182 1.327 . S
C1180 H1205 0.950 . S
C1181 C1180 1.349 . S
C1181 C1197 1.349 . S
C1182 C1180 1.327 . S
C1182 C1201 1.429 . S
C1182 H1206 0.950 . S
C1183 C1200 1.574 . S
C1183 C1202 1.368 . S
C1183 H1207 0.949 . S
H1184 C1188 0.949 . S
C1185 C1186 1.349 . S
C1185 C1187 1.327 . S
C1185 H1208 0.950 . S
C1186 C1185 1.349 . S
C1186 C1198 1.349 . S
C1187 C1185 1.327 . S
C1187 C1203 1.429 . S
C1187 H1209 0.950 . S
C1188 H1184 0.949 . S
C1188 C1196 1.574 . S
C1188 C1204 1.368 . S
H1189 C1197 0.950 . S
H1190 C1195 0.950 . S
H1191 C1196 0.949 . S
H1192 C1198 0.950 . S
H1193 C1199 0.950 . S
H1194 C1200 0.949 . S
C1195 H1190 0.950 . S
C1195 C1197 1.327 . S
C1195 C1201 1.429 . S
C1196 C1188 1.574 . S
C1196 H1191 0.949 . S
C1196 C1202 1.368 . S
C1197 C1181 1.349 . S
C1197 H1189 0.950 . S
C1197 C1195 1.327 . S
C1198 C1186 1.349 . S
C1198 H1192 0.950 . S
C1198 C1199 1.327 . S
C1199 H1193 0.950 . S
C1199 C1198 1.327 . S
C1199 C1203 1.429 . S
C1200 C1183 1.574 . S
C1200 H1194 0.949 . S
C1200 C1204 1.368 . S
C1201 C1182 1.429 . S
C1201 C1195 1.429 . S
C1201 C1202 1.523 . S
C1202 C1183 1.368 . S
C1202 C1196 1.368 . S
C1202 C1201 1.523 . S
C1203 C1187 1.429 . S
C1203 C1199 1.429 . S
C1203 C1204 1.523 . S
C1204 C1188 1.368 . S
C1204 C1200 1.368 . S
C1204 C1203 1.523 . S
H1205 C1180 0.950 . S
H1206 C1182 0.950 . S
H1207 C1183 0.949 . S
H1208 C1185 0.950 . S
H1209 C1187 0.950 . S
C1210 C1211 1.349 . S
C1210 C1212 1.327 . S
C1210 H1235 0.950 . S
C1211 C1210 1.349 . S
C1211 C1227 1.349 . S
C1212 C1210 1.327 . S
C1212 C1231 1.429 . S
C1212 H1236 0.950 . S
C1213 C1230 1.574 . S
C1213 C1232 1.368 . S
C1213 H1237 0.949 . S
H1214 C1218 0.949 . S
C1215 C1216 1.349 . S
C1215 C1217 1.327 . S
C1215 H1238 0.950 . S
C1216 C1215 1.349 . S
C1216 C1228 1.349 . S
C1217 C1215 1.327 . S
C1217 C1233 1.429 . S
C1217 H1239 0.950 . S
C1218 H1214 0.949 . S
C1218 C1226 1.574 . S
C1218 C1234 1.368 . S
H1219 C1227 0.950 . S
H1220 C1225 0.950 . S
H1221 C1226 0.949 . S
H1222 C1228 0.950 . S
H1223 C1229 0.950 . S
H1224 C1230 0.949 . S
C1225 H1220 0.950 . S
C1225 C1227 1.327 . S
C1225 C1231 1.429 . S
C1226 C1218 1.574 . S
C1226 H1221 0.949 . S
C1226 C1232 1.368 . S
C1227 C1211 1.349 . S
C1227 H1219 0.950 . S
C1227 C1225 1.327 . S
C1228 C1216 1.349 . S
C1228 H1222 0.950 . S
C1228 C1229 1.327 . S
C1229 H1223 0.950 . S
C1229 C1228 1.327 . S
C1229 C1233 1.429 . S
C1230 C1213 1.574 . S
C1230 H1224 0.949 . S
C1230 C1234 1.368 . S
C1231 C1212 1.429 . S
C1231 C1225 1.429 . S
C1231 C1232 1.523 . S
C1232 C1213 1.368 . S
C1232 C1226 1.368 . S
C1232 C1231 1.523 . S
C1233 C1217 1.429 . S
C1233 C1229 1.429 . S
C1233 C1234 1.523 . S
C1234 C1218 1.368 . S
C1234 C1230 1.368 . S
C1234 C1233 1.523 . S
H1235 C1210 0.950 . S
H1236 C1212 0.950 . S
H1237 C1213 0.949 . S
H1238 C1215 0.950 . S
H1239 C1217 0.950 . S
C1240 C1241 1.349 . S
C1240 C1242 1.327 . S
C1240 H1265 0.950 . S
C1241 C1240 1.349 . S
C1241 C1257 1.349 . S
C1242 C1240 1.327 . S
C1242 C1261 1.429 . S
C1242 H1266 0.950 . S
C1243 C1260 1.574 . S
C1243 C1262 1.368 . S
C1243 H1267 0.949 . S
H1244 C1248 0.949 . S
C1245 C1246 1.349 . S
C1245 C1247 1.327 . S
C1245 H1268 0.950 . S
C1246 C1245 1.349 . S
C1246 C1258 1.349 . S
C1247 C1245 1.327 . S
C1247 C1263 1.429 . S
C1247 H1269 0.950 . S
C1248 H1244 0.949 . S
C1248 C1256 1.574 . S
C1248 C1264 1.368 . S
H1249 C1257 0.950 . S
H1250 C1255 0.950 . S
H1251 C1256 0.949 . S
H1252 C1258 0.950 . S
H1253 C1259 0.950 . S
H1254 C1260 0.949 . S
C1255 H1250 0.950 . S
C1255 C1257 1.327 . S
C1255 C1261 1.429 . S
C1256 C1248 1.574 . S
C1256 H1251 0.949 . S
C1256 C1262 1.368 . S
C1257 C1241 1.349 . S
C1257 H1249 0.950 . S
C1257 C1255 1.327 . S
C1258 C1246 1.349 . S
C1258 H1252 0.950 . S
C1258 C1259 1.327 . S
C1259 H1253 0.950 . S
C1259 C1258 1.327 . S
C1259 C1263 1.429 . S
C1260 C1243 1.574 . S
C1260 H1254 0.949 . S
C1260 C1264 1.368 . S
C1261 C1242 1.429 . S
C1261 C1255 1.429 . S
C1261 C1262 1.523 . S
C1262 C1243 1.368 . S
C1262 C1256 1.368 . S
C1262 C1261 1.523 . S
C1263 C1247 1.429 . S
C1263 C1259 1.429 . S
C1263 C1264 1.523 . S
C1264 C1248 1.368 . S
C1264 C1260 1.368 . S
C1264 C1263 1.523 . S
H1265 C1240 0.950 . S
H1266 C1242 0.950 . S
H1267 C1243 0.949 . S
H1268 C1245 0.950 . S
H1269 C1247 0.950 . S
C1270 C1271 1.349 . S
C1270 C1272 1.327 . S
C1270 H1295 0.950 . S
C1271 C1270 1.349 . S
C1271 C1287 1.349 . S
C1272 C1270 1.327 . S
C1272 C1291 1.429 . S
C1272 H1296 0.950 . S
C1273 C1290 1.574 . S
C1273 C1292 1.368 . S
C1273 H1297 0.949 . S
H1274 C1278 0.949 . S
C1275 C1276 1.349 . S
C1275 C1277 1.327 . S
C1275 H1298 0.950 . S
C1276 C1275 1.349 . S
C1276 C1288 1.349 . S
C1277 C1275 1.327 . S
C1277 C1293 1.429 . S
C1277 H1299 0.950 . S
C1278 H1274 0.949 . S
C1278 C1286 1.574 . S
C1278 C1294 1.368 . S
H1279 C1287 0.950 . S
H1280 C1285 0.950 . S
H1281 C1286 0.949 . S
H1282 C1288 0.950 . S
H1283 C1289 0.950 . S
H1284 C1290 0.949 . S
C1285 H1280 0.950 . S
C1285 C1287 1.327 . S
C1285 C1291 1.429 . S
C1286 C1278 1.574 . S
C1286 H1281 0.949 . S
C1286 C1292 1.368 . S
C1287 C1271 1.349 . S
C1287 H1279 0.950 . S
C1287 C1285 1.327 . S
C1288 C1276 1.349 . S
C1288 H1282 0.950 . S
C1288 C1289 1.327 . S
C1289 H1283 0.950 . S
C1289 C1288 1.327 . S
C1289 C1293 1.429 . S
C1290 C1273 1.574 . S
C1290 H1284 0.949 . S
C1290 C1294 1.368 . S
C1291 C1272 1.429 . S
C1291 C1285 1.429 . S
C1291 C1292 1.523 . S
C1292 C1273 1.368 . S
C1292 C1286 1.368 . S
C1292 C1291 1.523 . S
C1293 C1277 1.429 . S
C1293 C1289 1.429 . S
C1293 C1294 1.523 . S
C1294 C1278 1.368 . S
C1294 C1290 1.368 . S
C1294 C1293 1.523 . S
H1295 C1270 0.950 . S
H1296 C1272 0.950 . S
H1297 C1273 0.949 . S
H1298 C1275 0.950 . S
H1299 C1277 0.950 . S
C1300 C1301 1.349 . S
C1300 C1302 1.327 . S
C1300 H1325 0.950 . S
C1301 C1300 1.349 . S
C1301 C1317 1.349 . S
C1302 C1300 1.327 . S
C1302 C1321 1.429 . S
C1302 H1326 0.950 . S
C1303 C1320 1.574 . S
C1303 C1322 1.368 . S
C1303 H1327 0.949 . S
H1304 C1308 0.949 . S
C1305 C1306 1.349 . S
C1305 C1307 1.327 . S
C1305 H1328 0.950 . S
C1306 C1305 1.349 . S
C1306 C1318 1.349 . S
C1307 C1305 1.327 . S
C1307 C1323 1.429 . S
C1307 H1329 0.950 . S
C1308 H1304 0.949 . S
C1308 C1316 1.574 . S
C1308 C1324 1.368 . S
H1309 C1317 0.950 . S
H1310 C1315 0.950 . S
H1311 C1316 0.949 . S
H1312 C1318 0.950 . S
H1313 C1319 0.950 . S
H1314 C1320 0.949 . S
C1315 H1310 0.950 . S
C1315 C1317 1.327 . S
C1315 C1321 1.429 . S
C1316 C1308 1.574 . S
C1316 H1311 0.949 . S
C1316 C1322 1.368 . S
C1317 C1301 1.349 . S
C1317 H1309 0.950 . S
C1317 C1315 1.327 . S
C1318 C1306 1.349 . S
C1318 H1312 0.950 . S
C1318 C1319 1.327 . S
C1319 H1313 0.950 . S
C1319 C1318 1.327 . S
C1319 C1323 1.429 . S
C1320 C1303 1.574 . S
C1320 H1314 0.949 . S
C1320 C1324 1.368 . S
C1321 C1302 1.429 . S
C1321 C1315 1.429 . S
C1321 C1322 1.523 . S
C1322 C1303 1.368 . S
C1322 C1316 1.368 . S
C1322 C1321 1.523 . S
C1323 C1307 1.429 . S
C1323 C1319 1.429 . S
C1323 C1324 1.523 . S
C1324 C1308 1.368 . S
C1324 C1320 1.368 . S
C1324 C1323 1.523 . S
H1325 C1300 0.950 . S
H1326 C1302 0.950 . S
H1327 C1303 0.949 . S
H1328 C1305 0.950 . S
H1329 C1307 0.950 . S
C1330 C1331 1.349 . S
C1330 C1332 1.327 . S
C1330 H1355 0.950 . S
C1331 C1330 1.349 . S
C1331 C1347 1.349 . S
C1332 C1330 1.327 . S
C1332 C1351 1.429 . S
C1332 H1356 0.950 . S
C1333 C1350 1.574 . S
C1333 C1352 1.368 . S
C1333 H1357 0.949 . S
H1334 C1338 0.949 . S
C1335 C1336 1.349 . S
C1335 C1337 1.327 . S
C1335 H1358 0.950 . S
C1336 C1335 1.349 . S
C1336 C1348 1.349 . S
C1337 C1335 1.327 . S
C1337 C1353 1.429 . S
C1337 H1359 0.950 . S
C1338 H1334 0.949 . S
C1338 C1346 1.574 . S
C1338 C1354 1.368 . S
H1339 C1347 0.950 . S
H1340 C1345 0.950 . S
H1341 C1346 0.949 . S
H1342 C1348 0.950 . S
H1343 C1349 0.950 . S
H1344 C1350 0.949 . S
C1345 H1340 0.950 . S
C1345 C1347 1.327 . S
C1345 C1351 1.429 . S
C1346 C1338 1.574 . S
C1346 H1341 0.949 . S
C1346 C1352 1.368 . S
C1347 C1331 1.349 . S
C1347 H1339 0.950 . S
C1347 C1345 1.327 . S
C1348 C1336 1.349 . S
C1348 H1342 0.950 . S
C1348 C1349 1.327 . S
C1349 H1343 0.950 . S
C1349 C1348 1.327 . S
C1349 C1353 1.429 . S
C1350 C1333 1.574 . S
C1350 H1344 0.949 . S
C1350 C1354 1.368 . S
C1351 C1332 1.429 . S
C1351 C1345 1.429 . S
C1351 C1352 1.523 . S
C1352 C1333 1.368 . S
C1352 C1346 1.368 . S
C1352 C1351 1.523 . S
C1353 C1337 1.429 . S
C1353 C1349 1.429 . S
C1353 C1354 1.523 . S
C1354 C1338 1.368 . S
C1354 C1350 1.368 . S
C1354 C1353 1.523 . S
H1355 C1330 0.950 . S
H1356 C1332 0.950 . S
H1357 C1333 0.949 . S
H1358 C1335 0.950 . S
H1359 C1337 0.950 . S
C641 C1 0.897 . S
C646 C495 0.924 . S
C671 C80 1.602 . S
C676 C539 1.572 . S
C706 C569 2.023 . S
C701 C140 1.978 . S
C731 C211 2.781 . S
C736 C610 2.775 . S
C766 C526 0.696 . S
C761 C31 0.705 . S
C796 C490 2.619 . S
C791 C61 2.567 . S
C826 C618 1.095 . S
C821 C151 1.089 . S
C856 C579 2.151 . S
C851 C200 2.233 . S
C881 C20 0.704 . S
C886 C615 0.696 . S
C916 C529 1.981 . S
C911 C121 2.041 . S
C941 C181 2.093 . S
C946 C498 2.085 . S
C971 C91 1.904 . S
C976 C566 1.893 . S
C1006 C486 0.924 . S
C1001 C260 0.911 . S
C1031 C320 1.602 . S
C1036 C530 1.571 . S
C1061 C361 1.945 . S
C1066 C578 2.022 . S
C1091 C451 2.781 . S
C1096 C619 2.775 . S
C1121 C271 0.700 . S
C1126 C535 0.696 . S
C1156 C499 2.619 . S
C1151 C301 2.567 . S
C1186 C609 1.095 . S
C1181 C380 1.070 . S
C1216 C570 2.151 . S
C1211 C440 2.233 . S
C1241 C241 0.708 . S
C1246 C606 0.696 . S
C1276 C538 1.981 . S
C1271 C391 2.013 . S
C1306 C489 2.085 . S
C1301 C421 2.093 . S
C1331 C331 1.905 . S
C1336 C575 1.893 . S
