# Generated by pormake.
# Topology pyr, (3,6)-cn, num edge types: 1
# Building blocks:
#     Node 0, Type 0, BuildingBlock: CUQRIR_clean_linker_1, # of connection points: 3
#     Node 1, Type 0, BuildingBlock: CUQRIR_clean_linker_1, # of connection points: 3
#     Node 2, Type 0, BuildingBlock: CUQRIR_clean_linker_1, # of connection points: 3
#     Node 3, Type 0, BuildingBlock: CUQRIR_clean_linker_1, # of connection points: 3
#     Node 4, Type 0, BuildingBlock: CUQRIR_clean_linker_1, # of connection points: 3
#     Node 5, Type 0, BuildingBlock: CUQRIR_clean_linker_1, # of connection points: 3
#     Node 6, Type 0, BuildingBlock: CUQRIR_clean_linker_1, # of connection points: 3
#     Node 7, Type 0, BuildingBlock: CUQRIR_clean_linker_1, # of connection points: 3
#     Node 8, Type 1, BuildingBlock: PAMTUU_clean_sbu_0, # of connection points: 6
#     Node 9, Type 1, BuildingBlock: PAMTUU_clean_sbu_0, # of connection points: 6
#     Node 10, Type 1, BuildingBlock: PAMTUU_clean_sbu_0, # of connection points: 6
#     Node 11, Type 1, BuildingBlock: PAMTUU_clean_sbu_0, # of connection points: 6
#     Edge 12, Type (0, 1), BuildingBlock: UVAHIK_clean_linker_0, # of connection points: 2
#     Edge 13, Type (0, 1), BuildingBlock: UVAHIK_clean_linker_0, # of connection points: 2
#     Edge 14, Type (0, 1), BuildingBlock: UVAHIK_clean_linker_0, # of connection points: 2
#     Edge 15, Type (0, 1), BuildingBlock: UVAHIK_clean_linker_0, # of connection points: 2
#     Edge 16, Type (0, 1), BuildingBlock: UVAHIK_clean_linker_0, # of connection points: 2
#     Edge 17, Type (0, 1), BuildingBlock: UVAHIK_clean_linker_0, # of connection points: 2
#     Edge 18, Type (0, 1), BuildingBlock: UVAHIK_clean_linker_0, # of connection points: 2
#     Edge 19, Type (0, 1), BuildingBlock: UVAHIK_clean_linker_0, # of connection points: 2
#     Edge 20, Type (0, 1), BuildingBlock: UVAHIK_clean_linker_0, # of connection points: 2
#     Edge 21, Type (0, 1), BuildingBlock: UVAHIK_clean_linker_0, # of connection points: 2
#     Edge 22, Type (0, 1), BuildingBlock: UVAHIK_clean_linker_0, # of connection points: 2
#     Edge 23, Type (0, 1), BuildingBlock: UVAHIK_clean_linker_0, # of connection points: 2
#     Edge 24, Type (0, 1), BuildingBlock: UVAHIK_clean_linker_0, # of connection points: 2
#     Edge 25, Type (0, 1), BuildingBlock: UVAHIK_clean_linker_0, # of connection points: 2
#     Edge 26, Type (0, 1), BuildingBlock: UVAHIK_clean_linker_0, # of connection points: 2
#     Edge 27, Type (0, 1), BuildingBlock: UVAHIK_clean_linker_0, # of connection points: 2
#     Edge 28, Type (0, 1), BuildingBlock: UVAHIK_clean_linker_0, # of connection points: 2
#     Edge 29, Type (0, 1), BuildingBlock: UVAHIK_clean_linker_0, # of connection points: 2
#     Edge 30, Type (0, 1), BuildingBlock: UVAHIK_clean_linker_0, # of connection points: 2
#     Edge 31, Type (0, 1), BuildingBlock: UVAHIK_clean_linker_0, # of connection points: 2
#     Edge 32, Type (0, 1), BuildingBlock: UVAHIK_clean_linker_0, # of connection points: 2
#     Edge 33, Type (0, 1), BuildingBlock: UVAHIK_clean_linker_0, # of connection points: 2
#     Edge 34, Type (0, 1), BuildingBlock: UVAHIK_clean_linker_0, # of connection points: 2
#     Edge 35, Type (0, 1), BuildingBlock: UVAHIK_clean_linker_0, # of connection points: 2
# Relax obj value: 0.146
# Max RMSD: 0.240
# Mean RMSD: 0.160
data_MOF--net-pyr--node1-PAMTUU_clean_sbu_0--node2-CUQRIR_clean_linker_1--edge1-UVAHIK_clean_linker_0
_symmetry_space_group_name_H-M    P1
_symmetry_Int_Tables_number       1
_symmetry_cell_setting            triclinic
loop_
_symmetry_equiv_pos_as_xyz
'x, y, z'
_cell_length_a     47.00908
_cell_length_b     47.444275
_cell_length_c     44.154941
_cell_angle_alpha  89.214133
_cell_angle_beta   89.759358
_cell_angle_gamma 104.18696
loop_
_atom_site_label
_atom_site_type_symbol
_atom_site_fract_x
_atom_site_fract_y
_atom_site_fract_z
_atom_type_partial_charge
C0 C 0.3191 0.32683 0.22002 0.0
N1 N 0.33498 0.30698 0.22496 0.0
N2 N 0.31946 0.3342 0.19023 0.0
C3 C 0.29916 0.33496 0.24344 0.0
C4 C 0.33592 0.31788 0.17722 0.0
N5 N 0.34531 0.30131 0.19827 0.0
C6 C 0.34157 0.31732 0.14374 0.0
H7 H 0.28453 0.31497 0.25339 0.0
H8 H 0.28548 0.3489 0.23407 0.0
H9 H 0.31264 0.3467 0.26203 0.0
H10 H 0.34141 0.33859 0.13307 0.0
H11 H 0.32392 0.3004 0.13335 0.0
H12 H 0.36293 0.31208 0.13921 0.0
C13 C 0.19942 0.81731 0.72938 0.0
N14 N 0.19131 0.83664 0.74762 0.0
N15 N 0.21448 0.80111 0.74505 0.0
C16 C 0.19351 0.81482 0.69595 0.0
C17 C 0.21524 0.81134 0.77362 0.0
N18 N 0.20084 0.8328 0.77528 0.0
C19 C 0.23365 0.80351 0.79874 0.0
H20 H 0.17224 0.8199 0.69061 0.0
H21 H 0.19327 0.79264 0.68808 0.0
H22 H 0.21113 0.83064 0.68352 0.0
H23 H 0.2465 0.82348 0.80971 0.0
H24 H 0.24895 0.7908 0.79059 0.0
H25 H 0.21893 0.7904 0.81619 0.0
C26 C 0.63394 0.37635 0.86835 0.0
N27 N 0.65122 0.37378 0.89226 0.0
N28 N 0.64143 0.40374 0.85648 0.0
C29 C 0.60826 0.35282 0.85814 0.0
C30 C 0.6638 0.41774 0.87421 0.0
N31 N 0.66949 0.39966 0.8961 0.0
C32 C 0.68161 0.4484 0.86879 0.0
H33 H 0.61601 0.33922 0.84126 0.0
H34 H 0.59129 0.36224 0.84746 0.0
H35 H 0.59826 0.33861 0.8775 0.0
H36 H 0.67192 0.4634 0.88218 0.0
H37 H 0.68155 0.45467 0.8445 0.0
H38 H 0.70462 0.45096 0.87618 0.0
C39 C 0.83903 0.69051 0.36418 0.0
N40 N 0.86465 0.71005 0.35737 0.0
N41 N 0.82693 0.69797 0.38983 0.0
C42 C 0.82534 0.66491 0.34486 0.0
C43 C 0.84619 0.72264 0.39849 0.0
N44 N 0.86926 0.72993 0.37899 0.0
C45 C 0.84204 0.74016 0.4256 0.0
H46 H 0.81694 0.6729 0.32381 0.0
H47 H 0.80685 0.64952 0.35644 0.0
H48 H 0.84217 0.65328 0.33823 0.0
H49 H 0.82729 0.72653 0.44269 0.0
H50 H 0.83215 0.75802 0.41805 0.0
H51 H 0.86337 0.75006 0.43631 0.0
C52 C 0.67402 0.79652 0.90102 0.0
N53 N 0.69475 0.78873 0.88393 0.0
N54 N 0.66326 0.81693 0.88647 0.0
C55 C 0.66633 0.78661 0.93317 0.0
C56 C 0.67797 0.82096 0.8597 0.0
N57 N 0.69707 0.80383 0.85807 0.0
C58 C 0.67704 0.84493 0.8373 0.0
H59 H 0.64261 0.78438 0.93748 0.0
H60 H 0.67878 0.80323 0.94878 0.0
H61 H 0.67174 0.76552 0.93803 0.0
H62 H 0.69788 0.86203 0.83845 0.0
H63 H 0.65835 0.85471 0.84194 0.0
H64 H 0.675 0.83633 0.81398 0.0
C65 C 0.85051 0.32751 0.43611 0.0
N66 N 0.85749 0.30691 0.41853 0.0
N67 N 0.82973 0.33865 0.42268 0.0
C68 C 0.86398 0.33698 0.46624 0.0
C69 C 0.82408 0.3239 0.39646 0.0
N70 N 0.8412 0.30488 0.39375 0.0
C71 C 0.79888 0.32499 0.37575 0.0
H72 H 0.85094 0.32323 0.48441 0.0
H73 H 0.86377 0.35993 0.47045 0.0
H74 H 0.88683 0.33453 0.46724 0.0
H75 H 0.80725 0.3402 0.35662 0.0
H76 H 0.78141 0.33262 0.38764 0.0
H77 H 0.78888 0.30329 0.36633 0.0
C78 C 0.33331 0.68783 0.25488 0.0
N79 N 0.3589 0.70669 0.26227 0.0
N80 N 0.32163 0.69722 0.22979 0.0
C81 C 0.31954 0.66049 0.27251 0.0
C82 C 0.3412 0.72238 0.22211 0.0
N83 N 0.36384 0.72809 0.24173 0.0
C84 C 0.3387 0.7411 0.1949 0.0
H85 H 0.3279 0.64234 0.26343 0.0
H86 H 0.29531 0.65493 0.27035 0.0
H87 H 0.32536 0.66278 0.29681 0.0
H88 H 0.32622 0.72792 0.17654 0.0
H89 H 0.36067 0.75256 0.18607 0.0
H90 H 0.32705 0.75776 0.20167 0.0
C91 C 0.1289 0.37351 0.75317 0.0
N92 N 0.14738 0.36928 0.7309 0.0
N93 N 0.14098 0.39784 0.769 0.0
C94 C 0.10017 0.35254 0.76108 0.0
C95 C 0.16761 0.4081 0.75553 0.0
N96 N 0.17161 0.39064 0.73265 0.0
C97 C 0.18889 0.4363 0.7632 0.0
H98 H 0.08247 0.35831 0.74764 0.0
H99 H 0.09489 0.35352 0.78549 0.0
H100 H 0.10077 0.32994 0.75556 0.0
H101 H 0.20467 0.43192 0.78017 0.0
H102 H 0.17731 0.45192 0.77284 0.0
H103 H 0.2015 0.44632 0.74284 0.0
Tb104 Tb 0.05387 0.05773 0.51886 0.0
Tb105 Tb 0.9974 0.04402 0.56561 0.0
C106 C 1.00148 1.00209 0.51176 0.0
C107 C 0.12046 0.0872 0.46891 0.0
C108 C 0.1671 0.12892 0.44218 0.0
C109 C 0.16357 0.09919 0.43654 0.0
C110 C 0.14045 0.07855 0.4498 0.0
C111 C 0.12337 0.11685 0.47424 0.0
C112 C 0.14653 0.13764 0.46083 0.0
C113 C 0.09835 0.06464 0.48469 0.0
O114 O 0.0222 0.07876 0.49754 0.0
O115 O 0.99178 0.08015 0.53834 0.0
O116 O 0.03077 0.08052 0.58406 0.0
O117 O 0.05816 0.09865 0.5417 0.0
O118 O 0.95207 0.03392 0.5746 0.0
O119 O 0.98357 0.04102 0.61097 0.0
O120 O 0.02186 1.01219 0.57581 0.0
O121 O 0.06643 0.04049 0.56148 0.0
O122 O 0.02991 1.01322 0.51055 0.0
O123 O 0.98417 1.01393 0.52818 0.0
C124 C 1.00105 0.08809 0.51074 0.0
O125 O 0.09937 0.06505 0.51413 0.0
O126 O 0.07151 0.05932 0.47476 0.0
C127 C 0.0498 0.10157 0.56965 0.0
C128 C 0.93897 1.00713 0.62047 0.0
C129 C 0.90863 0.95859 0.65487 0.0
C130 C 0.91728 0.98615 0.66804 0.0
C131 C 0.93223 1.01017 0.65097 0.0
C132 C 0.9304 0.97966 0.60708 0.0
C133 C 0.91509 0.95556 0.62414 0.0
C134 C 0.95596 0.03279 0.60379 0.0
C135 C 0.05044 1.01875 0.57744 0.0
H136 H 0.17869 0.09185 0.4218 0.0
H137 H 0.13849 0.0557 0.44556 0.0
H138 H 0.10814 0.12381 0.48917 0.0
H139 H 0.14876 0.1604 0.4656 0.0
H140 H 0.91216 0.9892 0.69153 0.0
H141 H 0.93873 0.03117 0.66167 0.0
H142 H 0.93569 0.97681 0.58359 0.0
H143 H 0.90871 0.93453 0.61351 0.0
Tb144 Tb 0.54803 0.05937 0.1095 0.0
Tb145 Tb 0.49639 0.04819 0.05777 0.0
C146 C 0.55078 1.02431 0.05196 0.0
C147 C 0.61127 0.08669 0.16401 0.0
C148 C 0.65941 0.11973 0.19618 0.0
C149 C 0.66011 0.11925 0.16435 0.0
C150 C 0.63626 0.10279 0.14837 0.0
C151 C 0.6101 0.08825 0.19565 0.0
C152 C 0.63385 0.10467 0.21157 0.0
C153 C 0.58793 0.06534 0.14863 0.0
O154 O 0.56459 0.09316 0.07531 0.0
O155 O 0.52162 0.09271 0.05013 0.0
O156 O 0.4783 0.06255 0.09841 0.0
O157 O 0.52133 0.08995 0.11764 0.0
O158 O 0.47851 1.02497 1.01932 0.0
O159 O 0.46132 0.0602 0.03612 0.0
O160 O 0.48741 1.00769 0.08437 0.0
O161 O 0.51284 1.02462 0.12758 0.0
O162 O 0.5516 1.0232 0.08152 0.0
O163 O 0.53658 0.04134 0.03851 0.0
C164 C 0.54923 0.10492 0.05619 0.0
O165 O 0.56081 0.06538 0.15499 0.0
O166 O 0.59169 0.06056 0.12003 0.0
C167 C 0.49261 0.08395 0.11528 0.0
C168 C 0.42982 1.02475 1.00569 0.0
C169 C 0.3739 0.999 0.98244 0.0
C170 C 0.37725 1.00598 1.01333 0.0
C171 C 0.40509 1.01894 1.02489 0.0
C172 C 0.42652 1.01701 0.97521 0.0
C173 C 0.39893 1.00428 0.96369 0.0
C174 C 0.4592 0.04025 1.01565 0.0
C175 C 0.49412 1.00431 0.11293 0.0
H176 H 0.67954 0.1306 0.15189 0.0
H177 H 0.63784 0.10188 0.12394 0.0
H178 H 0.59116 0.07591 0.20821 0.0
H179 H 0.6324 0.10511 0.23604 0.0
H180 H 0.35832 1.00208 1.02828 0.0
H181 H 0.40723 1.02479 0.04855 0.0
H182 H 0.44537 1.02127 0.96008 0.0
H183 H 0.39718 0.99856 0.93998 0.0
Tb184 Tb 0.49467 0.51468 0.53288 0.0
Tb185 Tb 0.49507 0.57255 0.57275 0.0
C186 C 0.46869 0.56611 0.50832 0.0
C187 C 0.52503 0.45875 0.49874 0.0
C188 C 0.57732 0.44064 0.49028 0.0
C189 C 0.55766 0.43995 0.46621 0.0
C190 C 0.5317 0.44888 0.47044 0.0
C191 C 0.54435 0.45893 0.52299 0.0
C192 C 0.57014 0.44974 0.51885 0.0
C193 C 0.49998 0.47202 0.50185 0.0
O194 O 0.54013 0.53922 0.53542 0.0
O195 O 0.53184 0.58433 0.54099 0.0
O196 O 0.52485 0.551 0.5958 0.0
O197 O 0.50608 0.50475 0.57888 0.0
O198 O 0.49844 0.61749 0.57412 0.0
O199 O 0.49399 0.59157 0.61518 0.0
O200 O 0.45694 0.53922 0.58816 0.0
O201 O 0.44915 0.50841 0.54752 0.0
O202 O 0.4842 0.54725 0.50228 0.0
O203 O 0.46431 0.573 0.53632 0.0
C204 C 0.5489 0.56759 0.53278 0.0
O205 O 0.48698 0.46937 0.52826 0.0
O206 O 0.50465 0.49848 0.49117 0.0
C207 C 0.52146 0.52278 0.59847 0.0
C208 C 0.47084 0.63001 0.61377 0.0
C209 C 0.42626 0.6555 0.63396 0.0
C210 C 0.45595 0.67046 0.6363 0.0
C211 C 0.47806 0.65776 0.62629 0.0
C212 C 0.44128 0.61499 0.61124 0.0
C213 C 0.41914 0.62761 0.62137 0.0
C214 C 0.49419 0.61691 0.60331 0.0
C215 C 0.44027 0.51771 0.57301 0.0
H216 H 0.56254 0.43282 0.444 0.0
H217 H 0.51727 0.44892 0.45138 0.0
H218 H 0.53998 0.46705 0.5449 0.0
H219 H 0.58502 0.45084 0.53771 0.0
H220 H 0.46209 0.69183 0.64621 0.0
H221 H 0.50081 0.66957 0.62839 0.0
H222 H 0.43538 0.59356 0.60141 0.0
H223 H 0.39646 0.61572 0.61899 0.0
Tb224 Tb 0.9964 0.58096 0.04181 0.0
Tb225 Tb 0.99285 0.52246 0.08406 0.0
C226 C 0.01812 0.52763 1.01769 0.0
C227 C 0.97407 0.63766 0.9953 0.0
C228 C 0.92885 0.66067 0.97171 0.0
C229 C 0.9559 0.67918 0.97973 0.0
C230 C 0.9783 0.66774 0.99146 0.0
C231 C 0.94746 0.61901 0.98656 0.0
C232 C 0.92502 0.63042 0.97475 0.0
C233 C 0.99654 0.62633 1.01086 0.0
O234 O 0.95019 0.55759 0.04172 0.0
O235 O 0.9543 0.51186 0.05581 0.0
O236 O 0.96684 0.54813 0.10723 0.0
O237 O 0.9935 0.59193 0.0893 0.0
O238 O 0.9857 0.47707 0.08753 0.0
O239 O 0.99624 0.50385 0.12693 0.0
O240 O 0.03385 0.55271 0.09566 0.0
O241 O 0.04169 0.58491 0.05505 0.0
O242 O 1.00391 0.54762 1.01143 0.0
O243 O 0.02121 0.51932 0.04572 0.0
C244 C 0.93931 0.5293 0.04419 0.0
O245 O 0.99382 0.62448 0.04016 0.0
O246 O 1.00249 0.60313 0.99977 0.0
C247 C 0.97558 0.57652 0.10958 0.0
C248 C 0.01948 0.46593 0.12133 0.0
C249 C 0.06873 0.44324 0.13083 0.0
C250 C 0.04106 0.42862 0.14256 0.0
C251 C 0.01656 0.44 0.13793 0.0
C252 C 0.04696 0.48031 0.10934 0.0
C253 C 0.07138 0.46919 0.11417 0.0
C254 C 0.99422 0.47819 0.11563 0.0
C255 C 0.05081 0.57372 0.07949 0.0
H256 H 0.95962 0.70256 0.97727 0.0
H257 H 0.9987 0.68243 0.99822 0.0
H258 H 0.9438 0.59572 0.98959 0.0
H259 H 0.90435 0.61563 0.96903 0.0
H260 H 0.03848 0.40861 0.15556 0.0
H261 H 0.99544 0.42858 0.14719 0.0
H262 H 0.04945 0.50009 0.09601 0.0
H263 H 0.09227 0.48065 0.10442 0.0
C264 C 0.33984 0.29997 0.2799 0.0
C265 C 0.3318 0.28828 0.2513 0.0
C266 C 0.33075 0.28326 0.30612 0.0
C267 C 0.29597 0.20841 0.33424 0.0
H268 H 0.25448 0.24764 0.38932 0.0
C269 C 0.22017 0.14496 0.42737 0.0
C270 C 0.19214 0.15051 0.42828 0.0
C271 C 0.24314 0.16369 0.41158 0.0
C272 C 0.26609 0.23643 0.37425 0.0
H273 H 0.30919 0.24999 0.2273 0.0
H274 H 0.29378 0.22053 0.27276 0.0
H275 H 0.28626 0.27562 0.35005 0.0
H276 H 0.1665 0.18064 0.41447 0.0
H277 H 0.20652 0.21327 0.38664 0.0
H278 H 0.27443 0.16898 0.35719 0.0
C279 C 0.30736 0.24238 0.27521 0.0
C280 C 0.2846 0.25249 0.352 0.0
C281 C 0.31625 0.25915 0.24913 0.0
C282 C 0.18791 0.17591 0.41432 0.0
C283 C 0.21088 0.19463 0.39846 0.0
C284 C 0.2775 0.19236 0.3565 0.0
C285 C 0.3136 0.25456 0.30401 0.0
C286 C 0.29897 0.2385 0.33113 0.0
C287 C 0.23857 0.18837 0.39635 0.0
C288 C 0.26162 0.20607 0.37612 0.0
H289 H 0.35179 0.32247 0.28188 0.0
H290 H 0.33609 0.29313 0.328 0.0
H291 H 0.30698 0.19709 0.31865 0.0
H292 H 0.22422 0.12583 0.43847 0.0
H293 H 0.26433 0.15853 0.4108 0.0
C294 C 0.19366 0.8422 0.82911 0.0
C295 C 0.20286 0.8527 0.79993 0.0
C296 C 0.20159 0.85996 0.85424 0.0
C297 C 0.2355 0.93564 0.87817 0.0
H298 H 0.27642 0.89792 0.93603 0.0
C299 C 0.3375 0.99638 0.94086 0.0
C300 C 0.34468 0.9863 0.96919 0.0
C301 C 0.31212 0.982 0.92593 0.0
C302 C 0.2645 0.90877 0.92069 0.0
H303 H 0.22621 0.89011 0.77376 0.0
H304 H 0.23963 0.92143 0.81737 0.0
H305 H 0.24485 0.86897 0.89867 0.0
H306 H 0.32984 0.95444 1.00509 0.0
H307 H 0.28501 0.92938 0.97912 0.0
H308 H 0.25612 0.97563 0.8995 0.0
C309 C 0.22604 0.89964 0.82101 0.0
C310 C 0.24636 0.89211 0.89918 0.0
C311 C 0.21829 0.8818 0.79598 0.0
C312 C 0.32489 0.96265 0.98323 0.0
C313 C 0.29937 0.94818 0.96824 0.0
C314 C 0.25351 0.95231 0.89983 0.0
C315 C 0.21875 0.88858 0.85052 0.0
C316 C 0.23257 0.90549 0.87696 0.0
C317 C 0.29314 0.9572 0.93901 0.0
C318 C 0.26918 0.9392 0.92056 0.0
H319 H 0.18175 0.81975 0.83251 0.0
H320 H 0.19543 0.85092 0.87666 0.0
H321 H 0.2248 0.9465 0.8616 0.0
H322 H 0.3521 1.01486 0.92969 0.0
H323 H 0.30832 0.98946 0.90337 0.0
C324 C 0.62546 0.40042 0.80305 0.0
C325 C 0.62901 0.41523 0.83063 0.0
C326 C 0.61391 0.41183 0.77783 0.0
C327 C 0.60501 0.48039 0.74443 0.0
H328 H 0.54336 0.43131 0.69732 0.0
C329 C 0.54476 0.52786 0.64984 0.0
C330 C 0.53515 0.51085 0.62432 0.0
C331 C 0.55659 0.51622 0.67473 0.0
C332 C 0.56092 0.44529 0.70983 0.0
H333 H 0.62292 0.45329 0.85364 0.0
H334 H 0.60343 0.47375 0.80934 0.0
H335 H 0.56327 0.41084 0.74095 0.0
H336 H 0.53119 0.46844 0.60466 0.0
H337 H 0.55271 0.4485 0.64744 0.0
H338 H 0.60332 0.51469 0.71309 0.0
C339 C 0.60962 0.45333 0.8072 0.0
C340 C 0.57222 0.43351 0.73497 0.0
C341 C 0.62078 0.44168 0.83251 0.0
C342 C 0.53814 0.48209 0.62406 0.0
C343 C 0.55032 0.47057 0.64877 0.0
C344 C 0.594 0.49209 0.71905 0.0
C345 C 0.60606 0.43853 0.77957 0.0
C346 C 0.59428 0.45096 0.75264 0.0
C347 C 0.55949 0.48736 0.67462 0.0
C348 C 0.57167 0.47476 0.70143 0.0
H349 H 0.63204 0.38021 0.80092 0.0
H350 H 0.61168 0.40006 0.75678 0.0
H351 H 0.6223 0.49428 0.75738 0.0
H352 H 0.54258 0.55003 0.6509 0.0
H353 H 0.56288 0.52976 0.69431 0.0
C354 C 0.90845 0.69756 0.33613 0.0
C355 C 0.88338 0.70819 0.33189 0.0
C356 C 0.92133 0.68654 0.31161 0.0
C357 C 0.89901 0.65098 0.23884 0.0
H358 H 0.98214 0.65915 0.22512 0.0
C359 C 0.94321 0.57755 0.1553 0.0
C360 C 0.96616 0.59172 0.13577 0.0
C361 C 0.93421 0.59245 0.17942 0.0
C362 C 0.95883 0.65669 0.22859 0.0
H363 H 0.85319 0.71739 0.29871 0.0
H364 H 0.87573 0.69869 0.25576 0.0
H365 H 0.96586 0.68634 0.26575 0.0
H366 H 0.99788 0.6327 0.12684 0.0
H367 H 0.9824 0.65836 0.16882 0.0
H368 H 0.8919 0.62128 0.20186 0.0
C369 C 0.88536 0.69844 0.27797 0.0
C370 C 0.94951 0.67216 0.25201 0.0
C371 C 0.87271 0.70958 0.30241 0.0
C372 C 0.98009 0.62101 0.1413 0.0
C373 C 0.97134 0.63576 0.16556 0.0
C374 C 0.9083 0.63526 0.21571 0.0
C375 C 0.90914 0.68572 0.28242 0.0
C376 C 0.91946 0.66967 0.25731 0.0
C377 C 0.94817 0.62177 0.18487 0.0
C378 C 0.93833 0.63797 0.21016 0.0
H379 H 0.91663 0.69571 0.35877 0.0
H380 H 0.93957 0.67689 0.31592 0.0
H381 H 0.87568 0.64813 0.24252 0.0
H382 H 0.93197 0.55504 0.15177 0.0
H383 H 0.91643 0.58091 0.19398 0.0
C384 C 0.38591 0.27836 0.2087 0.0
C385 C 0.36018 0.2787 0.19294 0.0
C386 C 0.40007 0.25605 0.20408 0.0
C387 C 0.38774 0.18095 0.17719 0.0
H388 H 0.47134 0.20153 0.16031 0.0
C389 C 0.44702 0.1016 0.12212 0.0
C390 C 0.47629 0.1031 0.12996 0.0
C391 C 0.43249 0.12156 0.13366 0.0
C392 C 0.4481 0.19527 0.16556 0.0
H393 H 0.32809 0.25565 0.16131 0.0
H394 H 0.3529 0.2167 0.15285 0.0
H395 H 0.44677 0.23938 0.17338 0.0
H396 H 0.51279 0.12585 0.15725 0.0
H397 H 0.48719 0.16022 0.17797 0.0
H398 H 0.38897 0.13687 0.16935 0.0
C399 C 0.36232 0.23369 0.16861 0.0
C400 C 0.43403 0.21702 0.17296 0.0
C401 C 0.34837 0.25613 0.17304 0.0
C402 C 0.49032 0.12427 0.15054 0.0
C403 C 0.4757 0.1441 0.16228 0.0
C404 C 0.40185 0.15915 0.17004 0.0
C405 C 0.3884 0.2335 0.18396 0.0
C406 C 0.40364 0.21014 0.17837 0.0
C407 C 0.44679 0.14336 0.15352 0.0
C408 C 0.43214 0.1661 0.16366 0.0
H409 H 0.39502 0.29547 0.22443 0.0
H410 H 0.41998 0.25628 0.21644 0.0
H411 H 0.36435 0.17498 0.18172 0.0
H412 H 0.43559 0.08564 0.10622 0.0
H413 H 0.41039 0.12053 0.12608 0.0
C414 C 0.15004 0.86005 0.74811 0.0
C415 C 0.17819 0.85956 0.73804 0.0
C416 C 0.1358 0.88008 0.73556 0.0
C417 C 0.14757 0.94832 0.69052 0.0
H418 H 0.07036 0.91407 0.65847 0.0
C419 C 0.09518 1.00544 0.5978 0.0
C420 C 0.06468 1.00219 0.59866 0.0
C421 C 0.10849 0.98973 0.61795 0.0
C422 C 0.09166 0.9242 0.66771 0.0
H423 H 0.2145 0.88019 0.70883 0.0
H424 H 0.18991 0.91545 0.68693 0.0
H425 H 0.09459 0.88473 0.69013 0.0
H426 H 0.02427 0.98036 0.62178 0.0
H427 H 0.04753 0.95351 0.65725 0.0
H428 H 0.1448 0.98774 0.66796 0.0
C429 C 0.17865 0.90046 0.70432 0.0
C430 C 0.10552 0.90734 0.68588 0.0
C431 C 0.19264 0.88026 0.7166 0.0
C432 C 0.04781 0.98315 0.62029 0.0
C433 C 0.06114 0.96765 0.6406 0.0
C434 C 0.13361 0.96527 0.67255 0.0
C435 C 0.1498 0.90012 0.71312 0.0
C436 C 0.13382 0.91908 0.69703 0.0
C437 C 0.09163 0.97061 0.6396 0.0
C438 C 0.10569 0.95327 0.66046 0.0
H439 H 0.13872 0.84415 0.76468 0.0
H440 H 0.11365 0.87952 0.7429 0.0
H441 H 0.16928 0.958 0.69908 0.0
H442 H 0.10877 1.01986 0.58133 0.0
H443 H 0.13196 0.99219 0.61616 0.0
C444 C 0.71825 0.39653 0.91347 0.0
C445 C 0.69296 0.40669 0.91759 0.0
C446 C 0.7435 0.40809 0.9303 0.0
C447 C 0.7778 0.47452 0.97356 0.0
H448 H 0.83493 0.43079 0.99355 0.0
C449 C 0.89541 0.53094 1.0123 0.0
C450 C 0.90936 0.51604 1.03292 0.0
C451 C 0.86813 0.51726 1.00007 0.0
C452 C 0.81911 0.44335 0.98856 0.0
H453 H 0.67326 0.43552 0.94306 0.0
H454 H 0.7167 0.45482 0.97377 0.0
H455 H 0.78853 0.40608 0.97126 0.0
H456 H 0.90487 0.47546 0.05791 0.0
H457 H 0.85713 0.45213 0.03762 0.0
H458 H 0.80794 0.51158 0.99179 0.0
C459 C 0.71767 0.43867 0.95697 0.0
C460 C 0.79255 0.42918 0.9753 0.0
C461 C 0.69264 0.42737 0.93982 0.0
C462 C 0.89495 0.48751 0.04178 0.0
C463 C 0.86757 0.47399 1.02991 0.0
C464 C 0.80421 0.48862 0.98714 0.0
C465 C 0.7438 0.42989 0.9518 0.0
C466 C 0.77156 0.44458 0.96739 0.0
C467 C 0.85393 0.48845 1.00849 0.0
C468 C 0.82537 0.4733 0.99467 0.0
H469 H 0.71892 0.38091 0.89599 0.0
H470 H 0.76316 0.40095 0.92531 0.0
H471 H 0.76254 0.48736 0.96737 0.0
H472 H 0.9059 0.55288 1.0049 0.0
H473 H 0.85859 0.52906 0.98339 0.0
C474 C 0.77736 0.69965 0.4068 0.0
C475 C 0.79911 0.68423 0.40372 0.0
C476 C 0.75071 0.68679 0.42126 0.0
C477 C 0.70174 0.61588 0.44219 0.0
H478 H 0.66974 0.66047 0.50044 0.0
C479 C 0.59838 0.56389 0.51395 0.0
C480 C 0.57834 0.5809 0.51963 0.0
C481 C 0.62576 0.5763 0.50064 0.0
C482 C 0.6781 0.64778 0.48395 0.0
H483 H 0.81054 0.64366 0.41345 0.0
H484 H 0.76362 0.62073 0.4384 0.0
H485 H 0.7162 0.68239 0.47509 0.0
H486 H 0.57144 0.62435 0.51562 0.0
H487 H 0.61871 0.64578 0.49184 0.0
H488 H 0.66346 0.58146 0.45051 0.0
C489 C 0.76703 0.64269 0.42947 0.0
C490 C 0.70481 0.66037 0.46947 0.0
C491 C 0.7938 0.6557 0.41524 0.0
C492 C 0.5864 0.61063 0.5118 0.0
C493 C 0.61366 0.62298 0.49827 0.0
C494 C 0.67488 0.60336 0.45647 0.0
C495 C 0.74523 0.65815 0.43279 0.0
C496 C 0.71693 0.64459 0.44838 0.0
C497 C 0.63372 0.60599 0.49243 0.0
C498 C 0.66263 0.61915 0.47754 0.0
H499 H 0.78109 0.72167 0.398 0.0
H500 H 0.73426 0.69917 0.42315 0.0
H501 H 0.71033 0.60326 0.42579 0.0
H502 H 0.59297 0.54094 0.51979 0.0
H503 H 0.64075 0.56259 0.497 0.0
C504 C 0.27454 0.32871 0.16064 0.0
C505 C 0.29834 0.34679 0.1754 0.0
C506 C 0.25087 0.33949 0.15134 0.0
C507 C 0.22538 0.40621 0.13778 0.0
H508 H 0.15028 0.3581 0.16497 0.0
C509 C 0.12173 0.45015 0.14371 0.0
C510 C 0.09487 0.43155 0.13543 0.0
C511 C 0.14683 0.43961 0.14655 0.0
C512 C 0.17096 0.37162 0.15676 0.0
H513 H 0.31719 0.39025 0.19092 0.0
H514 H 0.27572 0.40954 0.17446 0.0
H515 H 0.1944 0.34051 0.17109 0.0
H516 H 0.07316 0.38739 0.12358 0.0
H517 H 0.1171 0.36893 0.12819 0.0
H518 H 0.20194 0.43737 0.1235 0.0
C519 C 0.27538 0.38709 0.16985 0.0
C520 C 0.19627 0.36153 0.16027 0.0
C521 C 0.29904 0.3762 0.17924 0.0
C522 C 0.09351 0.40211 0.13037 0.0
C523 C 0.11869 0.39158 0.133 0.0
C524 C 0.20001 0.41625 0.13407 0.0
C525 C 0.25065 0.36857 0.15668 0.0
C526 C 0.22376 0.37879 0.15103 0.0
C527 C 0.14569 0.41026 0.14099 0.0
C528 C 0.17253 0.39917 0.14379 0.0
H529 H 0.27361 0.30586 0.15786 0.0
H530 H 0.23229 0.32483 0.14091 0.0
H531 H 0.24625 0.41986 0.13023 0.0
H532 H 0.1233 0.47289 0.14812 0.0
H533 H 0.16708 0.45445 0.15339 0.0
C534 C 0.6507 0.32191 0.89741 0.0
C535 C 0.64928 0.34814 0.91084 0.0
C536 C 0.64428 0.29595 0.9143 0.0
C537 C 0.6322 0.26422 0.99253 0.0
H538 H 0.58218 0.19935 0.95085 0.0
C539 C 0.59247 0.1478 0.04634 0.0
C540 C 0.56313 0.13312 0.04083 0.0
C541 C 0.60522 0.17423 1.03139 0.0
C542 C 0.59603 0.21724 0.96293 0.0
H543 H 0.64147 0.36831 0.95258 0.0
H544 H 0.62996 0.32284 0.9824 0.0
H545 H 0.60119 0.24503 0.9238 0.0
H546 H 0.52418 0.13526 1.01551 0.0
H547 H 0.5462 0.18099 0.9899 0.0
H548 H 0.62615 0.23637 1.03199 0.0
C549 C 0.63631 0.32225 0.95887 0.0
C550 C 0.6073 0.24341 0.94726 0.0
C551 C 0.64288 0.34829 0.94189 0.0
C552 C 0.54687 0.1457 1.02026 0.0
C553 C 0.55958 0.17196 1.00536 0.0
C554 C 0.62092 0.2379 1.00826 0.0
C555 C 0.63611 0.29559 0.94505 0.0
C556 C 0.62542 0.26736 0.96183 0.0
C557 C 0.58897 0.18651 1.0105 0.0
C558 C 0.6024 0.21416 0.99372 0.0
H559 H 0.6559 0.32145 0.87354 0.0
H560 H 0.64506 0.27601 0.90304 0.0
H561 H 0.64624 0.28211 1.00443 0.0
H562 H 0.60566 0.13883 0.06207 0.0
H563 H 0.62796 0.18476 0.03577 0.0
C564 C 0.88586 0.782 0.36715 0.0
C565 C 0.89163 0.75676 0.37992 0.0
C566 C 0.90089 0.80957 0.37708 0.0
C567 C 0.96307 0.8491 0.42555 0.0
H568 H 0.91225 0.90116 0.43818 0.0
C569 C 1.00717 0.96412 0.47458 0.0
C570 C 0.98918 0.97487 0.49473 0.0
C571 C 0.99626 0.93837 0.45879 0.0
C572 C 0.92675 0.88686 0.43508 0.0
H573 H 0.9185 0.74042 0.41182 0.0
H574 H 0.94514 0.78832 0.42909 0.0
H575 H 0.89352 0.8554 0.41244 0.0
H576 H 0.94533 0.96661 0.51387 0.0
H577 H 0.92636 0.9214 0.48669 0.0
H578 H 0.99595 0.88005 0.44926 0.0
C579 C 0.92932 0.78716 0.41113 0.0
C580 C 0.91613 0.8607 0.41978 0.0
C581 C 0.91431 0.75964 0.40106 0.0
C582 C 0.95982 0.95913 0.49848 0.0
C583 C 0.9489 0.93321 0.48272 0.0
C584 C 0.97368 0.87524 0.44092 0.0
C585 C 0.92192 0.81251 0.40025 0.0
C586 C 0.93407 0.84133 0.41485 0.0
C587 C 0.96701 0.92237 0.46269 0.0
C588 C 0.95566 0.89451 0.44605 0.0
H589 H 0.86799 0.78023 0.35133 0.0
H590 H 0.89498 0.82851 0.36761 0.0
H591 H 0.97767 0.83496 0.42211 0.0
H592 H 0.02984 0.97567 0.47084 0.0
H593 H 0.0108 0.9312 0.44323 0.0
C594 C 0.25602 0.79803 0.71265 0.0
C595 C 0.23325 0.7845 0.73244 0.0
C596 C 0.27564 0.78275 0.70176 0.0
C597 C 0.28609 0.70956 0.68942 0.0
H598 H 0.3686 0.74957 0.69047 0.0
C599 C 0.37899 0.65288 0.66176 0.0
C600 C 0.40286 0.66906 0.64462 0.0
C601 C 0.35742 0.66599 0.6725 0.0
C602 C 0.34564 0.7382 0.68967 0.0
H603 H 0.21255 0.74471 0.75633 0.0
H604 H 0.24709 0.7175 0.73721 0.0
H605 H 0.33225 0.77398 0.70902 0.0
H606 H 0.42233 0.71131 0.6244 0.0
H607 H 0.38463 0.73413 0.64288 0.0
H608 H 0.29956 0.67382 0.66979 0.0
C609 C 0.24961 0.73987 0.72992 0.0
C610 C 0.32482 0.75217 0.70035 0.0
C611 C 0.22998 0.7553 0.7409 0.0
C612 C 0.40447 0.69844 0.63801 0.0
C613 C 0.38289 0.7115 0.64864 0.0
C614 C 0.30697 0.69557 0.67859 0.0
C615 C 0.27287 0.75362 0.71054 0.0
C616 C 0.29482 0.73812 0.7001 0.0
C617 C 0.35926 0.69552 0.66624 0.0
C618 C 0.33696 0.70986 0.67838 0.0
H619 H 0.25895 0.82067 0.70618 0.0
H620 H 0.29311 0.79381 0.68657 0.0
H621 H 0.26308 0.6983 0.68877 0.0
H622 H 0.37734 0.63025 0.66745 0.0
H623 H 0.33967 0.65316 0.68628 0.0
C624 C 0.71797 0.80487 0.80665 0.0
C625 C 0.72194 0.80909 0.83784 0.0
C626 C 0.74153 0.81458 0.78654 0.0
C627 C 0.81113 0.87064 0.78349 0.0
H628 H 0.82117 0.83691 0.70587 0.0
C629 C 0.90171 0.92919 0.70286 0.0
C630 C 0.89236 0.93352 0.67339 0.0
C631 C 0.88421 0.90852 0.7222 0.0
C632 C 0.81859 0.84651 0.72751 0.0
H633 H 0.75345 0.82549 0.87282 0.0
H634 H 0.79498 0.84087 0.83817 0.0
H635 H 0.78433 0.80995 0.74193 0.0
H636 H 0.85835 0.91836 0.64028 0.0
H637 H 0.82743 0.8823 0.6743 0.0
H638 H 0.84477 0.90732 0.7691 0.0
C639 C 0.77366 0.83082 0.82893 0.0
C640 C 0.7975 0.83114 0.74811 0.0
C641 C 0.75005 0.82159 0.84886 0.0
C642 C 0.86608 0.9154 0.6629 0.0
C643 C 0.84845 0.89474 0.68234 0.0
C644 C 0.83221 0.88582 0.76309 0.0
C645 C 0.76949 0.82847 0.79744 0.0
C646 C 0.79335 0.8432 0.77625 0.0
C647 C 0.85689 0.89184 0.71252 0.0
C648 C 0.83603 0.8741 0.73477 0.0
H649 H 0.69636 0.79526 0.79785 0.0
H650 H 0.73744 0.8126 0.76246 0.0
H651 H 0.80808 0.88103 0.80453 0.0
H652 H 0.92218 0.94248 0.7113 0.0
H653 H 0.89157 0.90634 0.74513 0.0
C654 C 0.82696 0.25284 0.38198 0.0
C655 C 0.83676 0.28182 0.37214 0.0
C656 C 0.81575 0.23104 0.36126 0.0
C657 C 0.8017 0.21604 0.2788 0.0
H658 H 0.72822 0.16822 0.31021 0.0
C659 C 0.70208 0.16258 0.20472 0.0
C660 C 0.68551 0.13482 0.21357 0.0
C661 C 0.72556 0.17726 0.2224 0.0
C662 C 0.7489 0.181 0.30114 0.0
H663 H 0.84492 0.31069 0.33316 0.0
H664 H 0.82428 0.27296 0.29683 0.0
H665 H 0.76201 0.19889 0.3443 0.0
H666 H 0.6818 0.09985 0.24667 0.0
H667 H 0.72248 0.12553 0.27757 0.0
H668 H 0.78744 0.19889 0.23519 0.0
C669 C 0.82571 0.2667 0.32033 0.0
C670 C 0.76844 0.19854 0.32076 0.0
C671 C 0.8374 0.28838 0.34106 0.0
C672 C 0.69366 0.12154 0.23969 0.0
C673 C 0.71704 0.13617 0.25731 0.0
C674 C 0.78193 0.19857 0.25906 0.0
C675 C 0.8135 0.23799 0.3304 0.0
C676 C 0.79493 0.21662 0.30984 0.0
C677 C 0.73285 0.1644 0.24921 0.0
C678 C 0.75516 0.18118 0.27002 0.0
H679 H 0.82601 0.24736 0.4059 0.0
H680 H 0.80723 0.20904 0.3697 0.0
H681 H 0.82203 0.22946 0.26967 0.0
H682 H 0.69627 0.17338 0.18475 0.0
H683 H 0.73719 0.19912 0.21577 0.0
C684 C 0.37278 0.7087 0.31597 0.0
C685 C 0.37832 0.70224 0.28595 0.0
C686 C 0.38583 0.69709 0.34006 0.0
C687 C 0.41433 0.63282 0.35692 0.0
H688 H 0.43911 0.67123 0.43264 0.0
C689 C 0.46479 0.57664 0.4527 0.0
C690 C 0.45781 0.5815 0.48289 0.0
C691 C 0.45624 0.5924 0.42882 0.0
C692 C 0.43195 0.66005 0.41178 0.0
H693 H 0.40244 0.6798 0.25722 0.0
H694 H 0.42602 0.65997 0.29909 0.0
H695 H 0.42429 0.69857 0.39079 0.0
H696 H 0.43592 0.60667 0.51143 0.0
H697 H 0.4205 0.63369 0.46978 0.0
H698 H 0.42138 0.59421 0.37787 0.0
C699 C 0.4114 0.67372 0.30424 0.0
C700 C 0.42356 0.6758 0.38771 0.0
C701 C 0.39836 0.6854 0.28025 0.0
C702 C 0.4417 0.60231 0.4885 0.0
C703 C 0.43308 0.61804 0.46458 0.0
C704 C 0.42258 0.61707 0.38096 0.0
C705 C 0.40449 0.67855 0.33451 0.0
C706 C 0.41466 0.66239 0.35993 0.0
C707 C 0.44037 0.61344 0.43438 0.0
C708 C 0.43151 0.63041 0.40877 0.0
H709 H 0.3568 0.7211 0.32073 0.0
H710 H 0.37981 0.70112 0.363 0.0
H711 H 0.40696 0.62154 0.33615 0.0
H712 H 0.47734 0.56098 0.44745 0.0
H713 H 0.46265 0.58847 0.40599 0.0
C714 C 0.14484 0.41862 0.82053 0.0
C715 C 0.12846 0.41005 0.79424 0.0
C716 C 0.13302 0.43108 0.84467 0.0
C717 C 0.07124 0.46538 0.86402 0.0
H718 H 0.0956 0.45453 0.94616 0.0
C719 C 0.03534 0.52753 0.96361 0.0
C720 C 0.03104 0.51417 0.99244 0.0
C721 C 0.04746 0.51489 0.93982 0.0
C722 C 0.08814 0.45757 0.92347 0.0
H723 H 0.08672 0.40765 0.77277 0.0
H724 H 0.06534 0.42777 0.81528 0.0
H725 H 0.11482 0.43143 0.90479 0.0
H726 H 0.03592 0.47672 1.01868 0.0
H727 H 0.05581 0.45408 0.97711 0.0
H728 H 0.04339 0.49023 0.88281 0.0
C729 C 0.08773 0.42584 0.81715 0.0
C730 C 0.09967 0.44463 0.89947 0.0
C731 C 0.09978 0.41382 0.79284 0.0
C732 C 0.03909 0.48775 0.99682 0.0
C733 C 0.05076 0.47484 0.97289 0.0
C734 C 0.05937 0.47793 0.88805 0.0
C735 C 0.10421 0.4349 0.84345 0.0
C736 C 0.09154 0.44841 0.86927 0.0
C737 C 0.0552 0.4882 0.94394 0.0
C738 C 0.06771 0.4744 0.91822 0.0
H739 H 0.16688 0.41568 0.82241 0.0
H740 H 0.14676 0.43808 0.8641 0.0
H741 H 0.06462 0.46935 0.84123 0.0
H742 H 0.02968 0.54803 0.95945 0.0
H743 H 0.05106 0.52638 0.91826 0.0
C744 C 0.66912 0.86545 0.9076 0.0
C745 C 0.65101 0.83806 0.90121 0.0
C746 C 0.65799 0.88589 0.92299 0.0
C747 C 0.63429 0.91683 0.97275 0.0
H748 H 0.55777 0.92961 0.95454 0.0
C749 C 0.57845 0.9857 0.04839 0.0
C750 C 0.56368 1.00447 1.03394 0.0
C751 C 0.58923 0.96576 1.03168 0.0
C752 C 0.57928 0.92643 0.9597 0.0
H753 H 0.60739 0.81012 0.90562 0.0
H754 H 0.58752 0.84596 0.93307 0.0
H755 H 0.57597 0.89385 0.92587 0.0
H756 H 0.54899 1.01733 0.99051 0.0
H757 H 0.56812 0.98265 0.96129 0.0
H758 H 0.63787 0.94963 1.00622 0.0
C759 C 0.61026 0.85179 0.92578 0.0
C760 C 0.58953 0.90572 0.94354 0.0
C761 C 0.62151 0.83129 0.91029 0.0
C762 C 0.56027 1.00316 1.00234 0.0
C763 C 0.57101 0.98314 0.98561 0.0
C764 C 0.62404 0.93744 0.98891 0.0
C765 C 0.6285 0.87923 0.93249 0.0
C766 C 0.61719 0.90078 0.94985 0.0
C767 C 0.58546 0.96413 1.00014 0.0
C768 C 0.59643 0.94248 0.98259 0.0
H769 H 0.69203 0.87083 0.90087 0.0
H770 H 0.6725 0.90693 0.92743 0.0
H771 H 0.65556 0.91329 0.97839 0.0
H772 H 0.58138 0.9861 0.07271 0.0
H773 H 0.59999 0.95119 0.04357 0.0
C774 C 0.89771 0.28403 0.40545 0.0
C775 C 0.87638 0.28813 0.42614 0.0
C776 C 0.91476 0.26432 0.41201 0.0
C777 C 0.93781 0.22414 0.47633 0.0
H778 H 0.95056 0.17039 0.41525 0.0
C779 C 0.96358 0.11717 0.5089 0.0
C780 C 0.98812 0.11009 0.49555 0.0
C781 C 0.95286 0.14 0.49753 0.0
C782 C 0.94754 0.18557 0.43236 0.0
H783 H 0.85527 0.27426 0.46923 0.0
H784 H 0.88496 0.24009 0.48101 0.0
H785 H 0.92657 0.20916 0.40139 0.0
H786 H 0.01964 0.12069 0.45859 0.0
H787 H 1.0003 0.16082 0.43824 0.0
H788 H 0.95774 0.20004 0.50749 0.0
C789 C 0.88923 0.25254 0.46004 0.0
C790 C 0.93384 0.20776 0.42448 0.0
C791 C 0.87226 0.27217 0.45342 0.0
C792 C 1.00076 0.12561 0.46943 0.0
C793 C 0.98975 0.14855 0.45782 0.0
C794 C 0.95126 0.20198 0.48418 0.0
C795 C 0.9107 0.24834 0.43944 0.0
C796 C 0.92815 0.22683 0.44661 0.0
C797 C 0.96617 0.15637 0.47234 0.0
C798 C 0.95559 0.18201 0.4625 0.0
H799 H 0.90103 0.29604 0.38416 0.0
H800 H 0.93117 0.2617 0.39573 0.0
H801 H 0.93447 0.23888 0.49376 0.0
H802 H 0.95288 0.1055 0.52874 0.0
H803 H 0.93425 0.14512 0.50877 0.0
C804 C 0.28845 0.65471 0.20626 0.0
C805 C 0.29459 0.68397 0.21476 0.0
C806 C 0.26265 0.64224 0.19072 0.0
C807 C 0.2097 0.65903 0.13873 0.0
H808 H 0.15487 0.59053 0.17133 0.0
C809 C 0.09416 0.61562 0.08767 0.0
C810 C 0.08089 0.5858 0.09045 0.0
C811 C 0.1212 0.62736 0.10138 0.0
C812 C 0.17014 0.60927 0.16141 0.0
H813 H 0.27849 0.72296 0.21439 0.0
H814 H 0.2339 0.70151 0.18602 0.0
H815 H 0.20027 0.61091 0.19807 0.0
H816 H 0.08615 0.5446 0.10814 0.0
H817 H 0.13387 0.5645 0.13031 0.0
H818 H 0.18036 0.65706 0.10154 0.0
C819 C 0.249 0.68826 0.19149 0.0
C820 C 0.19606 0.62103 0.17697 0.0
C821 C 0.27444 0.7005 0.20759 0.0
C822 C 0.09573 0.56773 0.10591 0.0
C823 C 0.12303 0.57928 0.11894 0.0
C824 C 0.18407 0.64691 0.12277 0.0
C825 C 0.24291 0.65903 0.1829 0.0
C826 C 0.21592 0.64612 0.16589 0.0
C827 C 0.13586 0.60939 0.11761 0.0
C828 C 0.16377 0.62194 0.13398 0.0
H829 H 0.30385 0.64167 0.2112 0.0
H830 H 0.25842 0.61966 0.18422 0.0
H831 H 0.22488 0.6783 0.12966 0.0
H832 H 0.08302 0.63007 0.07609 0.0
H833 H 0.13002 0.65066 0.10009 0.0
C834 C 0.22445 0.3952 0.72545 0.0
C835 C 0.19706 0.39531 0.71313 0.0
C836 C 0.25015 0.40494 0.70827 0.0
C837 C 0.2795 0.42714 0.63005 0.0
H838 H 0.34487 0.47311 0.675 0.0
C839 C 0.39496 0.47598 0.57562 0.0
C840 C 0.41094 0.50316 0.58599 0.0
C841 C 0.36832 0.46163 0.58956 0.0
C842 C 0.32682 0.46061 0.66191 0.0
H843 H 0.17463 0.40467 0.67312 0.0
H844 H 0.21957 0.42233 0.64288 0.0
H845 H 0.29991 0.44963 0.70147 0.0
H846 H 0.41058 0.53704 0.6184 0.0
H847 H 0.3642 0.51259 0.64198 0.0
H848 H 0.30633 0.43923 0.59026 0.0
C849 C 0.22138 0.41421 0.66564 0.0
C850 C 0.30103 0.44662 0.67727 0.0
C851 C 0.19559 0.4041 0.68285 0.0
C852 C 0.39915 0.51598 0.60999 0.0
C853 C 0.37252 0.5018 0.62372 0.0
C854 C 0.30537 0.44132 0.6146 0.0
C855 C 0.24914 0.41555 0.67841 0.0
C856 C 0.27692 0.42965 0.66165 0.0
C857 C 0.35691 0.47417 0.61412 0.0
C858 C 0.32936 0.45843 0.63031 0.0
H859 H 0.22595 0.38852 0.74882 0.0
H860 H 0.27091 0.40484 0.71874 0.0
H861 H 0.26158 0.41413 0.6172 0.0
H862 H 0.40339 0.4654 0.55724 0.0
H863 H 0.35712 0.44033 0.58161 0.0
C864 C 0.72075 0.75015 0.87639 0.0
C865 C 0.7154 0.77273 0.89395 0.0
C866 C 0.74303 0.73664 0.88438 0.0
C867 C 0.81262 0.75108 0.92546 0.0
H868 H 0.80211 0.66743 0.92525 0.0
C869 C 0.89828 0.69678 0.97665 0.0
C870 C 0.90432 0.673 0.96156 0.0
C871 C 0.87502 0.7083 0.96758 0.0
C872 C 0.80552 0.69085 0.92502 0.0
H873 H 0.72926 0.7995 0.93302 0.0
H874 H 0.76775 0.77562 0.94748 0.0
H875 H 0.76133 0.68833 0.91109 0.0
H876 H 0.89078 0.64271 0.92501 0.0
H877 H 0.8502 0.66307 0.90887 0.0
H878 H 0.85675 0.75379 0.93911 0.0
C879 C 0.75477 0.7682 0.92762 0.0
C880 C 0.78214 0.70278 0.91698 0.0
C881 C 0.73247 0.78153 0.9197 0.0
C882 C 0.8865 0.66091 0.93721 0.0
C883 C 0.86324 0.67253 0.92803 0.0
C884 C 0.83598 0.7392 0.93333 0.0
C885 C 0.76053 0.74585 0.90986 0.0
C886 C 0.7854 0.73301 0.91744 0.0
C887 C 0.85727 0.6964 0.9431 0.0
C888 C 0.83265 0.70893 0.93351 0.0
H889 H 0.70804 0.74346 0.85619 0.0
H890 H 0.74718 0.71968 0.8701 0.0
H891 H 0.81596 0.7745 0.92542 0.0
H892 H 0.91125 0.7062 0.99588 0.0
H893 H 0.87068 0.72629 0.98009 0.0
C894 C 0.41126 0.75731 0.22321 0.0
C895 C 0.38652 0.75461 0.24186 0.0
C896 C 0.42737 0.78482 0.21332 0.0
C897 C 0.43577 0.86492 0.22239 0.0
H898 H 0.45239 0.86727 0.13617 0.0
C899 C 0.49069 0.97201 0.15894 0.0
C900 C 0.48165 0.97628 0.12922 0.0
C901 C 0.48072 0.94527 0.17398 0.0
C902 C 0.44766 0.86708 0.1602 0.0
H903 H 0.36014 0.77804 0.26639 0.0
H904 H 0.38817 0.8261 0.24969 0.0
H905 H 0.43474 0.82061 0.16208 0.0
H906 H 0.45449 0.9556 0.09229 0.0
H907 H 0.43652 0.90902 0.11883 0.0
H908 H 0.44748 0.91142 0.22024 0.0
C909 C 0.39563 0.80729 0.24278 0.0
C910 C 0.43804 0.84022 0.17524 0.0
C911 C 0.37965 0.7798 0.25264 0.0
C912 C 0.46194 0.95313 0.11513 0.0
C913 C 0.45184 0.92631 0.13029 0.0
C914 C 0.4453 0.89178 0.20732 0.0
C915 C 0.41885 0.81011 0.22181 0.0
C916 C 0.43175 0.83874 0.20653 0.0
C917 C 0.46127 0.92196 0.15988 0.0
C918 C 0.4512 0.89326 0.17596 0.0
H919 H 0.41646 0.73806 0.21415 0.0
H920 H 0.44548 0.78615 0.1977 0.0
H921 H 0.43134 0.86471 0.24649 0.0
H922 H 0.50599 0.98919 0.17058 0.0
H923 H 0.48886 0.94273 0.19651 0.0
C924 C 0.16027 0.32564 0.71055 0.0
C925 C 0.14226 0.34525 0.71023 0.0
C926 C 0.15277 0.30007 0.69364 0.0
C927 C 0.10622 0.26459 0.63016 0.0
H928 H 0.11007 0.19277 0.67104 0.0
C929 C 0.07956 0.15356 0.56931 0.0
C930 C 0.0622 0.12951 0.58532 0.0
C931 C 0.09081 0.18004 0.58377 0.0
C932 C 0.10876 0.2126 0.65932 0.0
H933 H 0.10313 0.35435 0.6913 0.0
H934 H 0.09004 0.30997 0.66145 0.0
H935 H 0.12769 0.23909 0.69659 0.0
H936 H 0.0434 0.11467 0.62938 0.0
H937 H 0.06312 0.16079 0.65458 0.0
H938 H 0.08688 0.23809 0.59309 0.0
C939 C 0.10995 0.31415 0.67467 0.0
C940 C 0.11919 0.23922 0.67384 0.0
C941 C 0.11733 0.33951 0.69177 0.0
C942 C 0.05666 0.13265 0.61629 0.0
C943 C 0.06813 0.15909 0.63081 0.0
C944 C 0.09604 0.238 0.61554 0.0
C945 C 0.12723 0.29376 0.67582 0.0
C946 C 0.11782 0.26557 0.65957 0.0
C947 C 0.08525 0.1832 0.61472 0.0
C948 C 0.09693 0.21161 0.63001 0.0
H949 H 0.17946 0.32958 0.72484 0.0
H950 H 0.16675 0.28503 0.69482 0.0
H951 H 0.10499 0.28443 0.6184 0.0
H952 H 0.08434 0.15206 0.54546 0.0
H953 H 0.10414 0.19801 0.57072 0.0
C954 C 0.80848 0.38104 0.4196 0.0
C955 C 0.81244 0.35663 0.4357 0.0
C956 C 0.78656 0.39461 0.42827 0.0
C957 C 0.73353 0.4001 0.48894 0.0
H958 H 0.68347 0.40843 0.42152 0.0
C959 C 0.61606 0.41525 0.50604 0.0
C960 C 0.60583 0.43315 0.4853 0.0
C961 C 0.64305 0.40844 0.50131 0.0
C962 C 0.6974 0.40679 0.4406 0.0
H963 H 0.79806 0.32817 0.47433 0.0
H964 H 0.75994 0.35215 0.49 0.0
H965 H 0.72893 0.39423 0.41215 0.0
H966 H 0.61624 0.45873 0.4439 0.0
H967 H 0.66346 0.44736 0.43587 0.0
H968 H 0.70188 0.4126 0.51743 0.0
C969 C 0.77378 0.36093 0.47074 0.0
C970 C 0.72352 0.39863 0.4352 0.0
C971 C 0.79563 0.34727 0.46192 0.0
C972 C 0.6233 0.44442 0.45996 0.0
C973 C 0.65038 0.43786 0.45538 0.0
C974 C 0.70745 0.40853 0.49435 0.0
C975 C 0.76828 0.38404 0.45331 0.0
C976 C 0.74179 0.39497 0.45929 0.0
C977 C 0.66055 0.41962 0.47587 0.0
C978 C 0.68891 0.41174 0.47025 0.0
H979 H 0.82124 0.38844 0.39926 0.0
H980 H 0.78312 0.41264 0.41466 0.0
H981 H 0.74725 0.3976 0.50794 0.0
H982 H 0.60296 0.40612 0.52568 0.0
H983 H 0.64989 0.39396 0.51732 0.0
loop_
_geom_bond_atom_site_label_1
_geom_bond_atom_site_label_2
_geom_bond_distance
_geom_bond_site_symmetry_2
_ccdc_geom_bond_type
C0 N1 1.317 . S
C0 N2 1.348 . S
C0 C3 1.485 . S
N1 C0 1.317 . S
N1 N5 1.370 . S
N2 C0 1.348 . S
N2 C4 1.346 . S
C3 C0 1.485 . S
C3 H7 0.960 . S
C3 H8 0.961 . S
C3 H9 0.960 . S
C4 N2 1.346 . S
C4 N5 1.307 . S
C4 C6 1.486 . S
N5 N1 1.370 . S
N5 C4 1.307 . S
C6 C4 1.486 . S
C6 H10 0.960 . S
C6 H11 0.960 . S
C6 H12 0.959 . S
H7 C3 0.960 . S
H8 C3 0.961 . S
H9 C3 0.960 . S
H10 C6 0.960 . S
H11 C6 0.960 . S
H12 C6 0.959 . S
C13 N14 1.317 . S
C13 N15 1.348 . S
C13 C16 1.485 . S
N14 C13 1.317 . S
N14 N18 1.370 . S
N15 C13 1.348 . S
N15 C17 1.346 . S
C16 C13 1.485 . S
C16 H20 0.960 . S
C16 H21 0.961 . S
C16 H22 0.960 . S
C17 N15 1.346 . S
C17 N18 1.307 . S
C17 C19 1.486 . S
N18 N14 1.370 . S
N18 C17 1.307 . S
C19 C17 1.486 . S
C19 H23 0.960 . S
C19 H24 0.960 . S
C19 H25 0.959 . S
H20 C16 0.960 . S
H21 C16 0.961 . S
H22 C16 0.960 . S
H23 C19 0.960 . S
H24 C19 0.960 . S
H25 C19 0.959 . S
C26 N27 1.317 . S
C26 N28 1.348 . S
C26 C29 1.485 . S
N27 C26 1.317 . S
N27 N31 1.370 . S
N28 C26 1.348 . S
N28 C30 1.346 . S
C29 C26 1.485 . S
C29 H33 0.960 . S
C29 H34 0.961 . S
C29 H35 0.960 . S
C30 N28 1.346 . S
C30 N31 1.307 . S
C30 C32 1.486 . S
N31 N27 1.370 . S
N31 C30 1.307 . S
C32 C30 1.486 . S
C32 H36 0.960 . S
C32 H37 0.960 . S
C32 H38 0.959 . S
H33 C29 0.960 . S
H34 C29 0.961 . S
H35 C29 0.960 . S
H36 C32 0.960 . S
H37 C32 0.960 . S
H38 C32 0.959 . S
C39 N40 1.317 . S
C39 N41 1.348 . S
C39 C42 1.485 . S
N40 C39 1.317 . S
N40 N44 1.370 . S
N41 C39 1.348 . S
N41 C43 1.346 . S
C42 C39 1.485 . S
C42 H46 0.960 . S
C42 H47 0.961 . S
C42 H48 0.960 . S
C43 N41 1.346 . S
C43 N44 1.307 . S
C43 C45 1.486 . S
N44 N40 1.370 . S
N44 C43 1.307 . S
C45 C43 1.486 . S
C45 H49 0.960 . S
C45 H50 0.960 . S
C45 H51 0.959 . S
H46 C42 0.960 . S
H47 C42 0.961 . S
H48 C42 0.960 . S
H49 C45 0.960 . S
H50 C45 0.960 . S
H51 C45 0.959 . S
C52 N53 1.317 . S
C52 N54 1.348 . S
C52 C55 1.485 . S
N53 C52 1.317 . S
N53 N57 1.370 . S
N54 C52 1.348 . S
N54 C56 1.346 . S
C55 C52 1.485 . S
C55 H59 0.960 . S
C55 H60 0.961 . S
C55 H61 0.960 . S
C56 N54 1.346 . S
C56 N57 1.307 . S
C56 C58 1.486 . S
N57 N53 1.370 . S
N57 C56 1.307 . S
C58 C56 1.486 . S
C58 H62 0.960 . S
C58 H63 0.960 . S
C58 H64 0.959 . S
H59 C55 0.960 . S
H60 C55 0.961 . S
H61 C55 0.960 . S
H62 C58 0.960 . S
H63 C58 0.960 . S
H64 C58 0.959 . S
C65 N66 1.317 . S
C65 N67 1.348 . S
C65 C68 1.485 . S
N66 C65 1.317 . S
N66 N70 1.370 . S
N67 C65 1.348 . S
N67 C69 1.346 . S
C68 C65 1.485 . S
C68 H72 0.960 . S
C68 H73 0.961 . S
C68 H74 0.960 . S
C69 N67 1.346 . S
C69 N70 1.307 . S
C69 C71 1.486 . S
N70 N66 1.370 . S
N70 C69 1.307 . S
C71 C69 1.486 . S
C71 H75 0.960 . S
C71 H76 0.960 . S
C71 H77 0.959 . S
H72 C68 0.960 . S
H73 C68 0.961 . S
H74 C68 0.960 . S
H75 C71 0.960 . S
H76 C71 0.960 . S
H77 C71 0.959 . S
C78 N79 1.317 . S
C78 N80 1.348 . S
C78 C81 1.485 . S
N79 C78 1.317 . S
N79 N83 1.370 . S
N80 C78 1.348 . S
N80 C82 1.346 . S
C81 C78 1.485 . S
C81 H85 0.960 . S
C81 H86 0.961 . S
C81 H87 0.960 . S
C82 N80 1.346 . S
C82 N83 1.307 . S
C82 C84 1.486 . S
N83 N79 1.370 . S
N83 C82 1.307 . S
C84 C82 1.486 . S
C84 H88 0.960 . S
C84 H89 0.960 . S
C84 H90 0.959 . S
H85 C81 0.960 . S
H86 C81 0.961 . S
H87 C81 0.960 . S
H88 C84 0.960 . S
H89 C84 0.960 . S
H90 C84 0.959 . S
C91 N92 1.317 . S
C91 N93 1.348 . S
C91 C94 1.485 . S
N92 C91 1.317 . S
N92 N96 1.370 . S
N93 C91 1.348 . S
N93 C95 1.346 . S
C94 C91 1.485 . S
C94 H98 0.960 . S
C94 H99 0.961 . S
C94 H100 0.960 . S
C95 N93 1.346 . S
C95 N96 1.307 . S
C95 C97 1.486 . S
N96 N92 1.370 . S
N96 C95 1.307 . S
C97 C95 1.486 . S
C97 H101 0.960 . S
C97 H102 0.960 . S
C97 H103 0.959 . S
H98 C94 0.960 . S
H99 C94 0.961 . S
H100 C94 0.960 . S
H101 C97 0.960 . S
H102 C97 0.960 . S
H103 C97 0.959 . S
Tb104 C113 2.764 . S
Tb104 O114 2.325 . S
Tb104 O117 2.303 . S
Tb104 O121 2.322 1_545 S
Tb104 O122 2.349 1_545 S
Tb104 O125 2.415 . S
Tb104 O126 2.399 . S
Tb105 O115 2.326 . S
Tb105 O116 2.349 . S
Tb105 O118 2.415 1_445 S
Tb105 O119 2.399 1_455 S
Tb105 O120 2.325 1_545 S
Tb105 O123 2.303 1_545 S
Tb105 C134 2.764 1_445 S
C106 O122 1.261 . S
C106 O123 1.257 . S
C107 C110 1.358 . S
C107 C111 1.332 . S
C107 C113 1.504 . S
C108 C109 1.373 . S
C108 C112 1.308 . S
C109 C108 1.373 . S
C109 C110 1.429 . S
C109 H136 0.932 . S
C110 C107 1.358 . S
C110 C109 1.429 . S
C110 H137 0.930 . S
C111 C107 1.332 . S
C111 C112 1.394 . S
C111 H138 0.932 . S
C112 C108 1.308 . S
C112 C111 1.394 . S
C112 H139 0.929 . S
C113 Tb104 2.764 . S
C113 C107 1.504 . S
C113 O125 1.239 . S
C113 O126 1.263 . S
O114 Tb104 2.325 . S
O114 C124 1.236 . S
O115 Tb105 2.326 . S
O115 C124 1.264 . S
O116 Tb105 2.349 . S
O116 C127 1.261 . S
O117 Tb104 2.303 . S
O117 C127 1.257 . S
O118 Tb105 2.415 1_665 S
O118 C134 1.239 . S
O119 Tb105 2.399 1_655 S
O119 C134 1.263 1_545 S
O120 Tb105 2.325 1_565 S
O120 C135 1.236 . S
O121 Tb104 2.322 1_565 S
O121 C135 1.257 . S
O122 Tb104 2.349 1_565 S
O122 C106 1.261 . S
O123 Tb105 2.303 1_565 S
O123 C106 1.257 . S
C124 O114 1.236 . S
C124 O115 1.264 . S
O125 Tb104 2.415 . S
O125 C113 1.239 . S
O126 Tb104 2.399 . S
O126 C113 1.263 . S
C127 O116 1.261 . S
C127 O117 1.257 . S
C128 C131 1.358 . S
C128 C132 1.332 . S
C128 C134 1.504 . S
C129 C130 1.373 . S
C129 C133 1.308 . S
C130 C129 1.373 . S
C130 C131 1.429 . S
C130 H140 0.932 . S
C131 C128 1.358 . S
C131 C130 1.429 . S
C131 H141 0.930 . S
C132 C128 1.332 . S
C132 C133 1.394 . S
C132 H142 0.932 . S
C133 C129 1.308 . S
C133 C132 1.394 . S
C133 H143 0.929 . S
C134 Tb105 2.764 1_665 S
C134 O118 1.239 . S
C134 O119 1.263 1_565 S
C134 C128 1.504 . S
C135 O120 1.236 . S
C135 O121 1.257 . S
H136 C109 0.932 . S
H137 C110 0.930 . S
H138 C111 0.932 . S
H139 C112 0.929 . S
H140 C130 0.932 . S
H141 C131 0.930 . S
H142 C132 0.932 . S
H143 C133 0.929 . S
Tb144 C153 2.764 . S
Tb144 O154 2.325 . S
Tb144 O157 2.303 . S
Tb144 O161 2.322 1_545 S
Tb144 O162 2.349 . S
Tb144 O165 2.415 . S
Tb144 O166 2.399 . S
Tb145 O155 2.322 . S
Tb145 O156 2.349 . S
Tb145 O158 2.436 1_545 S
Tb145 O159 2.408 . S
Tb145 O160 2.325 1_545 S
Tb145 O163 2.303 . S
Tb145 C174 2.765 1_545 S
C146 O162 1.260 1_565 S
C146 O163 1.253 1_565 S
C147 C150 1.358 . S
C147 C151 1.332 . S
C147 C153 1.504 . S
C148 C149 1.373 . S
C148 C152 1.308 . S
C149 C148 1.373 . S
C149 C150 1.429 . S
C149 H176 0.932 . S
C150 C147 1.358 . S
C150 C149 1.429 . S
C150 H177 0.930 . S
C151 C147 1.332 . S
C151 C152 1.394 . S
C151 H178 0.932 . S
C152 C148 1.308 . S
C152 C151 1.394 . S
C152 H179 0.929 . S
C153 Tb144 2.764 . S
C153 C147 1.504 . S
C153 O165 1.239 . S
C153 O166 1.263 . S
O154 Tb144 2.325 . S
O154 C164 1.236 . S
O155 Tb145 2.322 . S
O155 C164 1.257 . S
O156 Tb145 2.349 . S
O156 C167 1.261 . S
O157 Tb144 2.303 . S
O157 C167 1.257 . S
O158 Tb145 2.436 1_565 S
O158 C174 1.239 . S
O159 Tb145 2.408 . S
O159 C174 1.233 1_545 S
O160 Tb145 2.325 1_565 S
O160 C175 1.236 . S
O161 Tb144 2.322 1_565 S
O161 C175 1.257 . S
O162 Tb144 2.349 . S
O162 C146 1.260 1_545 S
O163 Tb145 2.303 . S
O163 C146 1.253 1_545 S
C164 O154 1.236 . S
C164 O155 1.257 . S
O165 Tb144 2.415 . S
O165 C153 1.239 . S
O166 Tb144 2.399 . S
O166 C153 1.263 . S
C167 O156 1.261 . S
C167 O157 1.257 . S
C168 C171 1.358 . S
C168 C172 1.332 . S
C168 C174 1.503 1_556 S
C169 C170 1.373 . S
C169 C173 1.308 . S
C170 C169 1.373 . S
C170 C171 1.429 . S
C170 H180 0.932 . S
C171 C168 1.358 . S
C171 C170 1.429 . S
C171 H181 0.930 . S
C172 C168 1.332 . S
C172 C173 1.394 . S
C172 H182 0.932 . S
C173 C169 1.308 . S
C173 C172 1.394 . S
C173 H183 0.929 . S
C174 Tb145 2.765 1_565 S
C174 O158 1.239 . S
C174 O159 1.233 1_565 S
C174 C168 1.503 1_554 S
C175 O160 1.236 . S
C175 O161 1.257 . S
H176 C149 0.932 . S
H177 C150 0.930 . S
H178 C151 0.932 . S
H179 C152 0.929 . S
H180 C170 0.932 . S
H181 C171 0.930 . S
H182 C172 0.932 . S
H183 C173 0.929 . S
Tb184 C193 2.764 . S
Tb184 O194 2.325 . S
Tb184 O197 2.303 . S
Tb184 O201 2.322 . S
Tb184 O202 2.349 . S
Tb184 O205 2.415 . S
Tb184 O206 2.399 . S
Tb185 O195 2.322 . S
Tb185 O196 2.349 . S
Tb185 O198 2.415 . S
Tb185 O199 2.399 . S
Tb185 O200 2.325 . S
Tb185 O203 2.303 . S
Tb185 C214 2.764 . S
C186 O202 1.261 . S
C186 O203 1.257 . S
C187 C190 1.358 . S
C187 C191 1.332 . S
C187 C193 1.504 . S
C188 C189 1.373 . S
C188 C192 1.308 . S
C189 C188 1.373 . S
C189 C190 1.429 . S
C189 H216 0.932 . S
C190 C187 1.358 . S
C190 C189 1.429 . S
C190 H217 0.930 . S
C191 C187 1.332 . S
C191 C192 1.394 . S
C191 H218 0.932 . S
C192 C188 1.308 . S
C192 C191 1.394 . S
C192 H219 0.929 . S
C193 Tb184 2.764 . S
C193 C187 1.504 . S
C193 O205 1.239 . S
C193 O206 1.263 . S
O194 Tb184 2.325 . S
O194 C204 1.236 . S
O195 Tb185 2.322 . S
O195 C204 1.257 . S
O196 Tb185 2.349 . S
O196 C207 1.261 . S
O197 Tb184 2.303 . S
O197 C207 1.257 . S
O198 Tb185 2.415 . S
O198 C214 1.239 . S
O199 Tb185 2.399 . S
O199 C214 1.263 . S
O200 Tb185 2.325 . S
O200 C215 1.236 . S
O201 Tb184 2.322 . S
O201 C215 1.257 . S
O202 Tb184 2.349 . S
O202 C186 1.261 . S
O203 Tb185 2.303 . S
O203 C186 1.257 . S
C204 O194 1.236 . S
C204 O195 1.257 . S
O205 Tb184 2.415 . S
O205 C193 1.239 . S
O206 Tb184 2.399 . S
O206 C193 1.263 . S
C207 O196 1.261 . S
C207 O197 1.257 . S
C208 C211 1.358 . S
C208 C212 1.332 . S
C208 C214 1.504 . S
C209 C210 1.373 . S
C209 C213 1.308 . S
C210 C209 1.373 . S
C210 C211 1.429 . S
C210 H220 0.932 . S
C211 C208 1.358 . S
C211 C210 1.429 . S
C211 H221 0.930 . S
C212 C208 1.332 . S
C212 C213 1.394 . S
C212 H222 0.932 . S
C213 C209 1.308 . S
C213 C212 1.394 . S
C213 H223 0.929 . S
C214 Tb185 2.764 . S
C214 O198 1.239 . S
C214 O199 1.263 . S
C214 C208 1.504 . S
C215 O200 1.236 . S
C215 O201 1.257 . S
H216 C189 0.932 . S
H217 C190 0.930 . S
H218 C191 0.932 . S
H219 C192 0.929 . S
H220 C210 0.932 . S
H221 C211 0.930 . S
H222 C212 0.932 . S
H223 C213 0.929 . S
Tb224 C233 2.765 1_455 S
Tb224 O234 2.326 1_455 S
Tb224 O237 2.303 1_456 S
Tb224 O241 2.321 1_556 S
Tb224 O242 2.349 . S
Tb224 O245 2.417 1_455 S
Tb224 O246 2.400 1_455 S
Tb225 O235 2.322 1_455 S
Tb225 O236 2.349 1_455 S
Tb225 O238 2.415 . S
Tb225 O239 2.399 . S
Tb225 O240 2.325 . S
Tb225 O243 2.303 1_554 S
Tb225 C254 2.764 . S
C226 O242 1.261 . S
C226 O243 1.257 . S
C227 C230 1.358 . S
C227 C231 1.332 . S
C227 C233 1.504 . S
C228 C229 1.373 . S
C228 C232 1.308 . S
C229 C228 1.373 . S
C229 C230 1.429 . S
C229 H256 0.932 . S
C230 C227 1.358 . S
C230 C229 1.429 . S
C230 H257 0.930 . S
C231 C227 1.332 . S
C231 C232 1.394 . S
C231 H258 0.932 . S
C232 C228 1.308 . S
C232 C231 1.394 . S
C232 H259 0.929 . S
C233 Tb224 2.765 1_655 S
C233 C227 1.504 . S
C233 O245 1.239 . S
C233 O246 1.263 . S
O234 Tb224 2.326 1_655 S
O234 C244 1.236 . S
O235 Tb225 2.322 1_655 S
O235 C244 1.257 1_554 S
O236 Tb225 2.349 1_655 S
O236 C247 1.261 . S
O237 Tb224 2.303 1_654 S
O237 C247 1.257 . S
O238 Tb225 2.415 . S
O238 C254 1.239 . S
O239 Tb225 2.399 . S
O239 C254 1.263 . S
O240 Tb225 2.325 . S
O240 C255 1.236 . S
O241 Tb224 2.321 1_554 S
O241 C255 1.257 . S
O242 Tb224 2.349 . S
O242 C226 1.261 . S
O243 Tb225 2.303 1_556 S
O243 C226 1.257 . S
C244 O234 1.236 . S
C244 O235 1.257 1_556 S
O245 Tb224 2.417 1_655 S
O245 C233 1.239 . S
O246 Tb224 2.400 1_655 S
O246 C233 1.263 . S
C247 O236 1.261 . S
C247 O237 1.257 . S
C248 C251 1.358 . S
C248 C252 1.332 . S
C248 C254 1.504 . S
C249 C250 1.373 . S
C249 C253 1.308 . S
C250 C249 1.373 . S
C250 C251 1.429 . S
C250 H260 0.932 . S
C251 C248 1.358 . S
C251 C250 1.429 . S
C251 H261 0.930 . S
C252 C248 1.332 . S
C252 C253 1.394 . S
C252 H262 0.932 . S
C253 C249 1.308 . S
C253 C252 1.394 . S
C253 H263 0.929 . S
C254 Tb225 2.764 . S
C254 O238 1.239 . S
C254 O239 1.263 . S
C254 C248 1.504 . S
C255 O240 1.236 . S
C255 O241 1.257 . S
H256 C229 0.932 . S
H257 C230 0.930 . S
H258 C231 0.932 . S
H259 C232 0.929 . S
H260 C250 0.932 . S
H261 C251 0.930 . S
H262 C252 0.932 . S
H263 C253 0.929 . S
C264 C265 1.349 . S
C264 C266 1.327 . S
C264 H289 0.950 . S
C265 C264 1.349 . S
C265 C281 1.349 . S
C266 C264 1.327 . S
C266 C285 1.429 . S
C266 H290 0.950 . S
C267 C284 1.574 . S
C267 C286 1.368 . S
C267 H291 0.949 . S
H268 C272 0.949 . S
C269 C270 1.349 . S
C269 C271 1.327 . S
C269 H292 0.950 . S
C270 C269 1.349 . S
C270 C282 1.349 . S
C271 C269 1.327 . S
C271 C287 1.429 . S
C271 H293 0.950 . S
C272 H268 0.949 . S
C272 C280 1.574 . S
C272 C288 1.368 . S
H273 C281 0.950 . S
H274 C279 0.950 . S
H275 C280 0.949 . S
H276 C282 0.950 . S
H277 C283 0.950 . S
H278 C284 0.949 . S
C279 H274 0.950 . S
C279 C281 1.327 . S
C279 C285 1.429 . S
C280 C272 1.574 . S
C280 H275 0.949 . S
C280 C286 1.368 . S
C281 C265 1.349 . S
C281 H273 0.950 . S
C281 C279 1.327 . S
C282 C270 1.349 . S
C282 H276 0.950 . S
C282 C283 1.327 . S
C283 H277 0.950 . S
C283 C282 1.327 . S
C283 C287 1.429 . S
C284 C267 1.574 . S
C284 H278 0.949 . S
C284 C288 1.368 . S
C285 C266 1.429 . S
C285 C279 1.429 . S
C285 C286 1.523 . S
C286 C267 1.368 . S
C286 C280 1.368 . S
C286 C285 1.523 . S
C287 C271 1.429 . S
C287 C283 1.429 . S
C287 C288 1.523 . S
C288 C272 1.368 . S
C288 C284 1.368 . S
C288 C287 1.523 . S
H289 C264 0.950 . S
H290 C266 0.950 . S
H291 C267 0.949 . S
H292 C269 0.950 . S
H293 C271 0.950 . S
C294 C295 1.349 . S
C294 C296 1.327 . S
C294 H319 0.950 . S
C295 C294 1.349 . S
C295 C311 1.349 . S
C296 C294 1.327 . S
C296 C315 1.429 . S
C296 H320 0.950 . S
C297 C314 1.574 . S
C297 C316 1.368 . S
C297 H321 0.949 . S
H298 C302 0.949 . S
C299 C300 1.349 . S
C299 C301 1.327 . S
C299 H322 0.950 . S
C300 C299 1.349 . S
C300 C312 1.349 . S
C301 C299 1.327 . S
C301 C317 1.429 . S
C301 H323 0.950 . S
C302 H298 0.949 . S
C302 C310 1.574 . S
C302 C318 1.368 . S
H303 C311 0.950 . S
H304 C309 0.950 . S
H305 C310 0.949 . S
H306 C312 0.950 . S
H307 C313 0.950 . S
H308 C314 0.949 . S
C309 H304 0.950 . S
C309 C311 1.327 . S
C309 C315 1.429 . S
C310 C302 1.574 . S
C310 H305 0.949 . S
C310 C316 1.368 . S
C311 C295 1.349 . S
C311 H303 0.950 . S
C311 C309 1.327 . S
C312 C300 1.349 . S
C312 H306 0.950 . S
C312 C313 1.327 . S
C313 H307 0.950 . S
C313 C312 1.327 . S
C313 C317 1.429 . S
C314 C297 1.574 . S
C314 H308 0.949 . S
C314 C318 1.368 . S
C315 C296 1.429 . S
C315 C309 1.429 . S
C315 C316 1.523 . S
C316 C297 1.368 . S
C316 C310 1.368 . S
C316 C315 1.523 . S
C317 C301 1.429 . S
C317 C313 1.429 . S
C317 C318 1.523 . S
C318 C302 1.368 . S
C318 C314 1.368 . S
C318 C317 1.523 . S
H319 C294 0.950 . S
H320 C296 0.950 . S
H321 C297 0.949 . S
H322 C299 0.950 . S
H323 C301 0.950 . S
C324 C325 1.349 . S
C324 C326 1.327 . S
C324 H349 0.950 . S
C325 C324 1.349 . S
C325 C341 1.349 . S
C326 C324 1.327 . S
C326 C345 1.429 . S
C326 H350 0.950 . S
C327 C344 1.574 . S
C327 C346 1.368 . S
C327 H351 0.949 . S
H328 C332 0.949 . S
C329 C330 1.349 . S
C329 C331 1.327 . S
C329 H352 0.950 . S
C330 C329 1.349 . S
C330 C342 1.349 . S
C331 C329 1.327 . S
C331 C347 1.429 . S
C331 H353 0.950 . S
C332 H328 0.949 . S
C332 C340 1.574 . S
C332 C348 1.368 . S
H333 C341 0.950 . S
H334 C339 0.950 . S
H335 C340 0.949 . S
H336 C342 0.950 . S
H337 C343 0.950 . S
H338 C344 0.949 . S
C339 H334 0.950 . S
C339 C341 1.327 . S
C339 C345 1.429 . S
C340 C332 1.574 . S
C340 H335 0.949 . S
C340 C346 1.368 . S
C341 C325 1.349 . S
C341 H333 0.950 . S
C341 C339 1.327 . S
C342 C330 1.349 . S
C342 H336 0.950 . S
C342 C343 1.327 . S
C343 H337 0.950 . S
C343 C342 1.327 . S
C343 C347 1.429 . S
C344 C327 1.574 . S
C344 H338 0.949 . S
C344 C348 1.368 . S
C345 C326 1.429 . S
C345 C339 1.429 . S
C345 C346 1.523 . S
C346 C327 1.368 . S
C346 C340 1.368 . S
C346 C345 1.523 . S
C347 C331 1.429 . S
C347 C343 1.429 . S
C347 C348 1.523 . S
C348 C332 1.368 . S
C348 C344 1.368 . S
C348 C347 1.523 . S
H349 C324 0.950 . S
H350 C326 0.950 . S
H351 C327 0.949 . S
H352 C329 0.950 . S
H353 C331 0.950 . S
C354 C355 1.349 . S
C354 C356 1.327 . S
C354 H379 0.950 . S
C355 C354 1.349 . S
C355 C371 1.349 . S
C356 C354 1.327 . S
C356 C375 1.429 . S
C356 H380 0.950 . S
C357 C374 1.574 . S
C357 C376 1.368 . S
C357 H381 0.949 . S
H358 C362 0.949 . S
C359 C360 1.349 . S
C359 C361 1.327 . S
C359 H382 0.950 . S
C360 C359 1.349 . S
C360 C372 1.349 . S
C361 C359 1.327 . S
C361 C377 1.429 . S
C361 H383 0.950 . S
C362 H358 0.949 . S
C362 C370 1.574 . S
C362 C378 1.368 . S
H363 C371 0.950 . S
H364 C369 0.950 . S
H365 C370 0.949 . S
H366 C372 0.950 . S
H367 C373 0.950 . S
H368 C374 0.949 . S
C369 H364 0.950 . S
C369 C371 1.327 . S
C369 C375 1.429 . S
C370 C362 1.574 . S
C370 H365 0.949 . S
C370 C376 1.368 . S
C371 C355 1.349 . S
C371 H363 0.950 . S
C371 C369 1.327 . S
C372 C360 1.349 . S
C372 H366 0.950 . S
C372 C373 1.327 . S
C373 H367 0.950 . S
C373 C372 1.327 . S
C373 C377 1.429 . S
C374 C357 1.574 . S
C374 H368 0.949 . S
C374 C378 1.368 . S
C375 C356 1.429 . S
C375 C369 1.429 . S
C375 C376 1.523 . S
C376 C357 1.368 . S
C376 C370 1.368 . S
C376 C375 1.523 . S
C377 C361 1.429 . S
C377 C373 1.429 . S
C377 C378 1.523 . S
C378 C362 1.368 . S
C378 C374 1.368 . S
C378 C377 1.523 . S
H379 C354 0.950 . S
H380 C356 0.950 . S
H381 C357 0.949 . S
H382 C359 0.950 . S
H383 C361 0.950 . S
C384 C385 1.349 . S
C384 C386 1.327 . S
C384 H409 0.950 . S
C385 C384 1.349 . S
C385 C401 1.349 . S
C386 C384 1.327 . S
C386 C405 1.429 . S
C386 H410 0.950 . S
C387 C404 1.574 . S
C387 C406 1.368 . S
C387 H411 0.949 . S
H388 C392 0.949 . S
C389 C390 1.349 . S
C389 C391 1.327 . S
C389 H412 0.950 . S
C390 C389 1.349 . S
C390 C402 1.349 . S
C391 C389 1.327 . S
C391 C407 1.429 . S
C391 H413 0.950 . S
C392 H388 0.949 . S
C392 C400 1.574 . S
C392 C408 1.368 . S
H393 C401 0.950 . S
H394 C399 0.950 . S
H395 C400 0.949 . S
H396 C402 0.950 . S
H397 C403 0.950 . S
H398 C404 0.949 . S
C399 H394 0.950 . S
C399 C401 1.327 . S
C399 C405 1.429 . S
C400 C392 1.574 . S
C400 H395 0.949 . S
C400 C406 1.368 . S
C401 C385 1.349 . S
C401 H393 0.950 . S
C401 C399 1.327 . S
C402 C390 1.349 . S
C402 H396 0.950 . S
C402 C403 1.327 . S
C403 H397 0.950 . S
C403 C402 1.327 . S
C403 C407 1.429 . S
C404 C387 1.574 . S
C404 H398 0.949 . S
C404 C408 1.368 . S
C405 C386 1.429 . S
C405 C399 1.429 . S
C405 C406 1.523 . S
C406 C387 1.368 . S
C406 C400 1.368 . S
C406 C405 1.523 . S
C407 C391 1.429 . S
C407 C403 1.429 . S
C407 C408 1.523 . S
C408 C392 1.368 . S
C408 C404 1.368 . S
C408 C407 1.523 . S
H409 C384 0.950 . S
H410 C386 0.950 . S
H411 C387 0.949 . S
H412 C389 0.950 . S
H413 C391 0.950 . S
C414 C415 1.349 . S
C414 C416 1.327 . S
C414 H439 0.950 . S
C415 C414 1.349 . S
C415 C431 1.349 . S
C416 C414 1.327 . S
C416 C435 1.429 . S
C416 H440 0.950 . S
C417 C434 1.574 . S
C417 C436 1.368 . S
C417 H441 0.949 . S
H418 C422 0.949 . S
C419 C420 1.349 . S
C419 C421 1.327 . S
C419 H442 0.950 . S
C420 C419 1.349 . S
C420 C432 1.349 . S
C421 C419 1.327 . S
C421 C437 1.429 . S
C421 H443 0.950 . S
C422 H418 0.949 . S
C422 C430 1.574 . S
C422 C438 1.368 . S
H423 C431 0.950 . S
H424 C429 0.950 . S
H425 C430 0.949 . S
H426 C432 0.950 . S
H427 C433 0.950 . S
H428 C434 0.949 . S
C429 H424 0.950 . S
C429 C431 1.327 . S
C429 C435 1.429 . S
C430 C422 1.574 . S
C430 H425 0.949 . S
C430 C436 1.368 . S
C431 C415 1.349 . S
C431 H423 0.950 . S
C431 C429 1.327 . S
C432 C420 1.349 . S
C432 H426 0.950 . S
C432 C433 1.327 . S
C433 H427 0.950 . S
C433 C432 1.327 . S
C433 C437 1.429 . S
C434 C417 1.574 . S
C434 H428 0.949 . S
C434 C438 1.368 . S
C435 C416 1.429 . S
C435 C429 1.429 . S
C435 C436 1.523 . S
C436 C417 1.368 . S
C436 C430 1.368 . S
C436 C435 1.523 . S
C437 C421 1.429 . S
C437 C433 1.429 . S
C437 C438 1.523 . S
C438 C422 1.368 . S
C438 C434 1.368 . S
C438 C437 1.523 . S
H439 C414 0.950 . S
H440 C416 0.950 . S
H441 C417 0.949 . S
H442 C419 0.950 . S
H443 C421 0.950 . S
C444 C445 1.349 . S
C444 C446 1.327 . S
C444 H469 0.950 . S
C445 C444 1.349 . S
C445 C461 1.349 . S
C446 C444 1.327 . S
C446 C465 1.429 . S
C446 H470 0.950 . S
C447 C464 1.574 . S
C447 C466 1.368 . S
C447 H471 0.949 . S
H448 C452 0.949 . S
C449 C450 1.349 . S
C449 C451 1.327 . S
C449 H472 0.950 . S
C450 C449 1.349 . S
C450 C462 1.349 . S
C451 C449 1.327 . S
C451 C467 1.429 . S
C451 H473 0.950 . S
C452 H448 0.949 . S
C452 C460 1.574 . S
C452 C468 1.368 . S
H453 C461 0.950 . S
H454 C459 0.950 . S
H455 C460 0.949 . S
H456 C462 0.950 . S
H457 C463 0.950 . S
H458 C464 0.949 . S
C459 H454 0.950 . S
C459 C461 1.327 . S
C459 C465 1.429 . S
C460 C452 1.574 . S
C460 H455 0.949 . S
C460 C466 1.368 . S
C461 C445 1.349 . S
C461 H453 0.950 . S
C461 C459 1.327 . S
C462 C450 1.349 . S
C462 H456 0.950 . S
C462 C463 1.327 . S
C463 H457 0.950 . S
C463 C462 1.327 . S
C463 C467 1.429 . S
C464 C447 1.574 . S
C464 H458 0.949 . S
C464 C468 1.368 . S
C465 C446 1.429 . S
C465 C459 1.429 . S
C465 C466 1.523 . S
C466 C447 1.368 . S
C466 C460 1.368 . S
C466 C465 1.523 . S
C467 C451 1.429 . S
C467 C463 1.429 . S
C467 C468 1.523 . S
C468 C452 1.368 . S
C468 C464 1.368 . S
C468 C467 1.523 . S
H469 C444 0.950 . S
H470 C446 0.950 . S
H471 C447 0.949 . S
H472 C449 0.950 . S
H473 C451 0.950 . S
C474 C475 1.349 . S
C474 C476 1.327 . S
C474 H499 0.950 . S
C475 C474 1.349 . S
C475 C491 1.349 . S
C476 C474 1.327 . S
C476 C495 1.429 . S
C476 H500 0.950 . S
C477 C494 1.574 . S
C477 C496 1.368 . S
C477 H501 0.949 . S
H478 C482 0.949 . S
C479 C480 1.349 . S
C479 C481 1.327 . S
C479 H502 0.950 . S
C480 C479 1.349 . S
C480 C492 1.349 . S
C481 C479 1.327 . S
C481 C497 1.429 . S
C481 H503 0.950 . S
C482 H478 0.949 . S
C482 C490 1.574 . S
C482 C498 1.368 . S
H483 C491 0.950 . S
H484 C489 0.950 . S
H485 C490 0.949 . S
H486 C492 0.950 . S
H487 C493 0.950 . S
H488 C494 0.949 . S
C489 H484 0.950 . S
C489 C491 1.327 . S
C489 C495 1.429 . S
C490 C482 1.574 . S
C490 H485 0.949 . S
C490 C496 1.368 . S
C491 C475 1.349 . S
C491 H483 0.950 . S
C491 C489 1.327 . S
C492 C480 1.349 . S
C492 H486 0.950 . S
C492 C493 1.327 . S
C493 H487 0.950 . S
C493 C492 1.327 . S
C493 C497 1.429 . S
C494 C477 1.574 . S
C494 H488 0.949 . S
C494 C498 1.368 . S
C495 C476 1.429 . S
C495 C489 1.429 . S
C495 C496 1.523 . S
C496 C477 1.368 . S
C496 C490 1.368 . S
C496 C495 1.523 . S
C497 C481 1.429 . S
C497 C493 1.429 . S
C497 C498 1.523 . S
C498 C482 1.368 . S
C498 C494 1.368 . S
C498 C497 1.523 . S
H499 C474 0.950 . S
H500 C476 0.950 . S
H501 C477 0.949 . S
H502 C479 0.950 . S
H503 C481 0.950 . S
C504 C505 1.349 . S
C504 C506 1.327 . S
C504 H529 0.950 . S
C505 C504 1.349 . S
C505 C521 1.349 . S
C506 C504 1.327 . S
C506 C525 1.429 . S
C506 H530 0.950 . S
C507 C524 1.574 . S
C507 C526 1.368 . S
C507 H531 0.949 . S
H508 C512 0.949 . S
C509 C510 1.349 . S
C509 C511 1.327 . S
C509 H532 0.950 . S
C510 C509 1.349 . S
C510 C522 1.349 . S
C511 C509 1.327 . S
C511 C527 1.429 . S
C511 H533 0.950 . S
C512 H508 0.949 . S
C512 C520 1.574 . S
C512 C528 1.368 . S
H513 C521 0.950 . S
H514 C519 0.950 . S
H515 C520 0.949 . S
H516 C522 0.950 . S
H517 C523 0.950 . S
H518 C524 0.949 . S
C519 H514 0.950 . S
C519 C521 1.327 . S
C519 C525 1.429 . S
C520 C512 1.574 . S
C520 H515 0.949 . S
C520 C526 1.368 . S
C521 C505 1.349 . S
C521 H513 0.950 . S
C521 C519 1.327 . S
C522 C510 1.349 . S
C522 H516 0.950 . S
C522 C523 1.327 . S
C523 H517 0.950 . S
C523 C522 1.327 . S
C523 C527 1.429 . S
C524 C507 1.574 . S
C524 H518 0.949 . S
C524 C528 1.368 . S
C525 C506 1.429 . S
C525 C519 1.429 . S
C525 C526 1.523 . S
C526 C507 1.368 . S
C526 C520 1.368 . S
C526 C525 1.523 . S
C527 C511 1.429 . S
C527 C523 1.429 . S
C527 C528 1.523 . S
C528 C512 1.368 . S
C528 C524 1.368 . S
C528 C527 1.523 . S
H529 C504 0.950 . S
H530 C506 0.950 . S
H531 C507 0.949 . S
H532 C509 0.950 . S
H533 C511 0.950 . S
C534 C535 1.349 . S
C534 C536 1.327 . S
C534 H559 0.950 . S
C535 C534 1.349 . S
C535 C551 1.349 . S
C536 C534 1.327 . S
C536 C555 1.429 . S
C536 H560 0.950 . S
C537 C554 1.574 . S
C537 C556 1.368 . S
C537 H561 0.949 . S
H538 C542 0.949 . S
C539 C540 1.349 . S
C539 C541 1.327 . S
C539 H562 0.950 . S
C540 C539 1.349 . S
C540 C552 1.349 1_554 S
C541 C539 1.327 . S
C541 C557 1.429 1_554 S
C541 H563 0.950 . S
C542 H538 0.949 . S
C542 C550 1.574 . S
C542 C558 1.368 . S
H543 C551 0.950 . S
H544 C549 0.950 . S
H545 C550 0.949 . S
H546 C552 0.950 . S
H547 C553 0.950 . S
H548 C554 0.950 . S
C549 H544 0.950 . S
C549 C551 1.327 . S
C549 C555 1.429 . S
C550 C542 1.574 . S
C550 H545 0.949 . S
C550 C556 1.368 . S
C551 C535 1.349 . S
C551 H543 0.950 . S
C551 C549 1.327 . S
C552 C540 1.349 1_556 S
C552 H546 0.950 . S
C552 C553 1.327 . S
C553 H547 0.950 . S
C553 C552 1.327 . S
C553 C557 1.429 . S
C554 C537 1.574 . S
C554 H548 0.950 . S
C554 C558 1.368 . S
C555 C536 1.429 . S
C555 C549 1.429 . S
C555 C556 1.523 . S
C556 C537 1.368 . S
C556 C550 1.368 . S
C556 C555 1.523 . S
C557 C541 1.429 1_556 S
C557 C553 1.429 . S
C557 C558 1.523 . S
C558 C542 1.368 . S
C558 C554 1.368 . S
C558 C557 1.523 . S
H559 C534 0.950 . S
H560 C536 0.950 . S
H561 C537 0.949 . S
H562 C539 0.950 . S
H563 C541 0.950 . S
C564 C565 1.349 . S
C564 C566 1.327 . S
C564 H589 0.950 . S
C565 C564 1.349 . S
C565 C581 1.349 . S
C566 C564 1.327 . S
C566 C585 1.429 . S
C566 H590 0.950 . S
C567 C584 1.574 . S
C567 C586 1.368 . S
C567 H591 0.949 . S
H568 C572 0.949 . S
C569 C570 1.349 1_455 S
C569 C571 1.327 1_455 S
C569 H592 0.950 . S
C570 C569 1.349 1_655 S
C570 C582 1.349 . S
C571 C569 1.327 1_655 S
C571 C587 1.429 . S
C571 H593 0.950 1_655 S
C572 H568 0.949 . S
C572 C580 1.574 . S
C572 C588 1.368 . S
H573 C581 0.950 . S
H574 C579 0.950 . S
H575 C580 0.949 . S
H576 C582 0.950 . S
H577 C583 0.950 . S
H578 C584 0.949 . S
C579 H574 0.950 . S
C579 C581 1.327 . S
C579 C585 1.429 . S
C580 C572 1.574 . S
C580 H575 0.949 . S
C580 C586 1.368 . S
C581 C565 1.349 . S
C581 H573 0.950 . S
C581 C579 1.327 . S
C582 C570 1.349 . S
C582 H576 0.950 . S
C582 C583 1.327 . S
C583 H577 0.950 . S
C583 C582 1.327 . S
C583 C587 1.429 . S
C584 C567 1.574 . S
C584 H578 0.949 . S
C584 C588 1.368 . S
C585 C566 1.429 . S
C585 C579 1.429 . S
C585 C586 1.523 . S
C586 C567 1.368 . S
C586 C580 1.368 . S
C586 C585 1.523 . S
C587 C571 1.429 . S
C587 C583 1.429 . S
C587 C588 1.523 . S
C588 C572 1.368 . S
C588 C584 1.368 . S
C588 C587 1.523 . S
H589 C564 0.950 . S
H590 C566 0.950 . S
H591 C567 0.949 . S
H592 C569 0.950 . S
H593 C571 0.950 1_455 S
C594 C595 1.349 . S
C594 C596 1.327 . S
C594 H619 0.950 . S
C595 C594 1.349 . S
C595 C611 1.349 . S
C596 C594 1.327 . S
C596 C615 1.429 . S
C596 H620 0.950 . S
C597 C614 1.574 . S
C597 C616 1.368 . S
C597 H621 0.949 . S
H598 C602 0.949 . S
C599 C600 1.349 . S
C599 C601 1.327 . S
C599 H622 0.950 . S
C600 C599 1.349 . S
C600 C612 1.349 . S
C601 C599 1.327 . S
C601 C617 1.429 . S
C601 H623 0.950 . S
C602 H598 0.949 . S
C602 C610 1.574 . S
C602 C618 1.368 . S
H603 C611 0.950 . S
H604 C609 0.950 . S
H605 C610 0.949 . S
H606 C612 0.950 . S
H607 C613 0.950 . S
H608 C614 0.949 . S
C609 H604 0.950 . S
C609 C611 1.327 . S
C609 C615 1.429 . S
C610 C602 1.574 . S
C610 H605 0.949 . S
C610 C616 1.368 . S
C611 C595 1.349 . S
C611 H603 0.950 . S
C611 C609 1.327 . S
C612 C600 1.349 . S
C612 H606 0.950 . S
C612 C613 1.327 . S
C613 H607 0.950 . S
C613 C612 1.327 . S
C613 C617 1.429 . S
C614 C597 1.574 . S
C614 H608 0.949 . S
C614 C618 1.368 . S
C615 C596 1.429 . S
C615 C609 1.429 . S
C615 C616 1.523 . S
C616 C597 1.368 . S
C616 C610 1.368 . S
C616 C615 1.523 . S
C617 C601 1.429 . S
C617 C613 1.429 . S
C617 C618 1.523 . S
C618 C602 1.368 . S
C618 C614 1.368 . S
C618 C617 1.523 . S
H619 C594 0.950 . S
H620 C596 0.950 . S
H621 C597 0.949 . S
H622 C599 0.950 . S
H623 C601 0.950 . S
C624 C625 1.349 . S
C624 C626 1.327 . S
C624 H649 0.950 . S
C625 C624 1.349 . S
C625 C641 1.349 . S
C626 C624 1.327 . S
C626 C645 1.429 . S
C626 H650 0.950 . S
C627 C644 1.574 . S
C627 C646 1.368 . S
C627 H651 0.949 . S
H628 C632 0.949 . S
C629 C630 1.349 . S
C629 C631 1.327 . S
C629 H652 0.950 . S
C630 C629 1.349 . S
C630 C642 1.349 . S
C631 C629 1.327 . S
C631 C647 1.429 . S
C631 H653 0.950 . S
C632 H628 0.949 . S
C632 C640 1.574 . S
C632 C648 1.368 . S
H633 C641 0.950 . S
H634 C639 0.950 . S
H635 C640 0.949 . S
H636 C642 0.950 . S
H637 C643 0.950 . S
H638 C644 0.949 . S
C639 H634 0.950 . S
C639 C641 1.327 . S
C639 C645 1.429 . S
C640 C632 1.574 . S
C640 H635 0.949 . S
C640 C646 1.368 . S
C641 C625 1.349 . S
C641 H633 0.950 . S
C641 C639 1.327 . S
C642 C630 1.349 . S
C642 H636 0.950 . S
C642 C643 1.327 . S
C643 H637 0.950 . S
C643 C642 1.327 . S
C643 C647 1.429 . S
C644 C627 1.574 . S
C644 H638 0.949 . S
C644 C648 1.368 . S
C645 C626 1.429 . S
C645 C639 1.429 . S
C645 C646 1.523 . S
C646 C627 1.368 . S
C646 C640 1.368 . S
C646 C645 1.523 . S
C647 C631 1.429 . S
C647 C643 1.429 . S
C647 C648 1.523 . S
C648 C632 1.368 . S
C648 C644 1.368 . S
C648 C647 1.523 . S
H649 C624 0.950 . S
H650 C626 0.950 . S
H651 C627 0.949 . S
H652 C629 0.950 . S
H653 C631 0.950 . S
C654 C655 1.349 . S
C654 C656 1.327 . S
C654 H679 0.950 . S
C655 C654 1.349 . S
C655 C671 1.349 . S
C656 C654 1.327 . S
C656 C675 1.429 . S
C656 H680 0.950 . S
C657 C674 1.574 . S
C657 C676 1.368 . S
C657 H681 0.949 . S
H658 C662 0.949 . S
C659 C660 1.349 . S
C659 C661 1.327 . S
C659 H682 0.950 . S
C660 C659 1.349 . S
C660 C672 1.349 . S
C661 C659 1.327 . S
C661 C677 1.429 . S
C661 H683 0.950 . S
C662 H658 0.949 . S
C662 C670 1.574 . S
C662 C678 1.368 . S
H663 C671 0.950 . S
H664 C669 0.950 . S
H665 C670 0.949 . S
H666 C672 0.950 . S
H667 C673 0.950 . S
H668 C674 0.949 . S
C669 H664 0.950 . S
C669 C671 1.327 . S
C669 C675 1.429 . S
C670 C662 1.574 . S
C670 H665 0.949 . S
C670 C676 1.368 . S
C671 C655 1.349 . S
C671 H663 0.950 . S
C671 C669 1.327 . S
C672 C660 1.349 . S
C672 H666 0.950 . S
C672 C673 1.327 . S
C673 H667 0.950 . S
C673 C672 1.327 . S
C673 C677 1.429 . S
C674 C657 1.574 . S
C674 H668 0.949 . S
C674 C678 1.368 . S
C675 C656 1.429 . S
C675 C669 1.429 . S
C675 C676 1.523 . S
C676 C657 1.368 . S
C676 C670 1.368 . S
C676 C675 1.523 . S
C677 C661 1.429 . S
C677 C673 1.429 . S
C677 C678 1.523 . S
C678 C662 1.368 . S
C678 C674 1.368 . S
C678 C677 1.523 . S
H679 C654 0.950 . S
H680 C656 0.950 . S
H681 C657 0.949 . S
H682 C659 0.950 . S
H683 C661 0.950 . S
C684 C685 1.349 . S
C684 C686 1.327 . S
C684 H709 0.950 . S
C685 C684 1.349 . S
C685 C701 1.349 . S
C686 C684 1.327 . S
C686 C705 1.429 . S
C686 H710 0.950 . S
C687 C704 1.574 . S
C687 C706 1.368 . S
C687 H711 0.949 . S
H688 C692 0.949 . S
C689 C690 1.349 . S
C689 C691 1.327 . S
C689 H712 0.950 . S
C690 C689 1.349 . S
C690 C702 1.349 . S
C691 C689 1.327 . S
C691 C707 1.429 . S
C691 H713 0.950 . S
C692 H688 0.949 . S
C692 C700 1.574 . S
C692 C708 1.368 . S
H693 C701 0.950 . S
H694 C699 0.950 . S
H695 C700 0.949 . S
H696 C702 0.950 . S
H697 C703 0.950 . S
H698 C704 0.949 . S
C699 H694 0.950 . S
C699 C701 1.327 . S
C699 C705 1.429 . S
C700 C692 1.574 . S
C700 H695 0.949 . S
C700 C706 1.368 . S
C701 C685 1.349 . S
C701 H693 0.950 . S
C701 C699 1.327 . S
C702 C690 1.349 . S
C702 H696 0.950 . S
C702 C703 1.327 . S
C703 H697 0.950 . S
C703 C702 1.327 . S
C703 C707 1.429 . S
C704 C687 1.574 . S
C704 H698 0.949 . S
C704 C708 1.368 . S
C705 C686 1.429 . S
C705 C699 1.429 . S
C705 C706 1.523 . S
C706 C687 1.368 . S
C706 C700 1.368 . S
C706 C705 1.523 . S
C707 C691 1.429 . S
C707 C703 1.429 . S
C707 C708 1.523 . S
C708 C692 1.368 . S
C708 C704 1.368 . S
C708 C707 1.523 . S
H709 C684 0.950 . S
H710 C686 0.950 . S
H711 C687 0.949 . S
H712 C689 0.950 . S
H713 C691 0.950 . S
C714 C715 1.349 . S
C714 C716 1.327 . S
C714 H739 0.950 . S
C715 C714 1.349 . S
C715 C731 1.349 . S
C716 C714 1.327 . S
C716 C735 1.429 . S
C716 H740 0.950 . S
C717 C734 1.574 . S
C717 C736 1.368 . S
C717 H741 0.949 . S
H718 C722 0.949 . S
C719 C720 1.349 . S
C719 C721 1.327 . S
C719 H742 0.950 . S
C720 C719 1.349 . S
C720 C732 1.349 . S
C721 C719 1.327 . S
C721 C737 1.429 . S
C721 H743 0.950 . S
C722 H718 0.949 . S
C722 C730 1.574 . S
C722 C738 1.368 . S
H723 C731 0.950 . S
H724 C729 0.950 . S
H725 C730 0.949 . S
H726 C732 0.950 . S
H727 C733 0.950 . S
H728 C734 0.949 . S
C729 H724 0.950 . S
C729 C731 1.327 . S
C729 C735 1.429 . S
C730 C722 1.574 . S
C730 H725 0.949 . S
C730 C736 1.368 . S
C731 C715 1.349 . S
C731 H723 0.950 . S
C731 C729 1.327 . S
C732 C720 1.349 . S
C732 H726 0.950 . S
C732 C733 1.327 . S
C733 H727 0.950 . S
C733 C732 1.327 . S
C733 C737 1.429 . S
C734 C717 1.574 . S
C734 H728 0.949 . S
C734 C738 1.368 . S
C735 C716 1.429 . S
C735 C729 1.429 . S
C735 C736 1.523 . S
C736 C717 1.368 . S
C736 C730 1.368 . S
C736 C735 1.523 . S
C737 C721 1.429 . S
C737 C733 1.429 . S
C737 C738 1.523 . S
C738 C722 1.368 . S
C738 C734 1.368 . S
C738 C737 1.523 . S
H739 C714 0.950 . S
H740 C716 0.950 . S
H741 C717 0.949 . S
H742 C719 0.950 . S
H743 C721 0.950 . S
C744 C745 1.349 . S
C744 C746 1.327 . S
C744 H769 0.950 . S
C745 C744 1.349 . S
C745 C761 1.349 . S
C746 C744 1.327 . S
C746 C765 1.429 . S
C746 H770 0.950 . S
C747 C764 1.574 . S
C747 C766 1.368 . S
C747 H771 0.949 . S
H748 C752 0.949 . S
C749 C750 1.349 . S
C749 C751 1.327 . S
C749 H772 0.950 . S
C750 C749 1.349 . S
C750 C762 1.359 . S
C751 C749 1.327 . S
C751 C767 1.429 1_554 S
C751 H773 0.950 . S
C752 H748 0.949 . S
C752 C760 1.574 . S
C752 C768 1.368 . S
H753 C761 0.950 . S
H754 C759 0.950 . S
H755 C760 0.949 . S
H756 C762 0.946 1_546 S
H757 C763 0.950 . S
H758 C764 0.949 1_554 S
C759 H754 0.950 . S
C759 C761 1.327 . S
C759 C765 1.429 . S
C760 C752 1.574 . S
C760 H755 0.949 . S
C760 C766 1.368 . S
C761 C745 1.349 . S
C761 H753 0.950 . S
C761 C759 1.327 . S
C762 C750 1.359 . S
C762 H756 0.946 1_564 S
C762 C763 1.320 1_554 S
C763 H757 0.950 . S
C763 C762 1.320 1_556 S
C763 C767 1.429 . S
C764 C747 1.574 . S
C764 H758 0.949 1_556 S
C764 C768 1.368 . S
C765 C746 1.429 . S
C765 C759 1.429 . S
C765 C766 1.523 . S
C766 C747 1.368 . S
C766 C760 1.368 . S
C766 C765 1.523 . S
C767 C751 1.429 1_556 S
C767 C763 1.429 . S
C767 C768 1.523 . S
C768 C752 1.368 . S
C768 C764 1.368 . S
C768 C767 1.523 . S
H769 C744 0.950 . S
H770 C746 0.950 . S
H771 C747 0.949 . S
H772 C749 0.950 . S
H773 C751 0.950 . S
C774 C775 1.349 . S
C774 C776 1.327 . S
C774 H799 0.950 . S
C775 C774 1.349 . S
C775 C791 1.349 . S
C776 C774 1.327 . S
C776 C795 1.429 . S
C776 H800 0.950 . S
C777 C794 1.574 . S
C777 C796 1.368 . S
C777 H801 0.949 . S
H778 C782 0.949 . S
C779 C780 1.349 . S
C779 C781 1.327 . S
C779 H802 0.950 . S
C780 C779 1.349 . S
C780 C792 1.349 . S
C781 C779 1.327 . S
C781 C797 1.429 . S
C781 H803 0.950 . S
C782 H778 0.949 . S
C782 C790 1.574 . S
C782 C798 1.368 . S
H783 C791 0.950 . S
H784 C789 0.950 . S
H785 C790 0.949 . S
H786 C792 0.950 1_455 S
H787 C793 0.950 . S
H788 C794 0.949 . S
C789 H784 0.950 . S
C789 C791 1.327 . S
C789 C795 1.429 . S
C790 C782 1.574 . S
C790 H785 0.949 . S
C790 C796 1.368 . S
C791 C775 1.349 . S
C791 H783 0.950 . S
C791 C789 1.327 . S
C792 C780 1.349 . S
C792 H786 0.950 1_655 S
C792 C793 1.327 . S
C793 H787 0.950 . S
C793 C792 1.327 . S
C793 C797 1.429 . S
C794 C777 1.574 . S
C794 H788 0.949 . S
C794 C798 1.368 . S
C795 C776 1.429 . S
C795 C789 1.429 . S
C795 C796 1.523 . S
C796 C777 1.368 . S
C796 C790 1.368 . S
C796 C795 1.523 . S
C797 C781 1.429 . S
C797 C793 1.429 . S
C797 C798 1.523 . S
C798 C782 1.368 . S
C798 C794 1.368 . S
C798 C797 1.523 . S
H799 C774 0.950 . S
H800 C776 0.950 . S
H801 C777 0.949 . S
H802 C779 0.950 . S
H803 C781 0.950 . S
C804 C805 1.349 . S
C804 C806 1.327 . S
C804 H829 0.950 . S
C805 C804 1.349 . S
C805 C821 1.349 . S
C806 C804 1.327 . S
C806 C825 1.429 . S
C806 H830 0.950 . S
C807 C824 1.574 . S
C807 C826 1.368 . S
C807 H831 0.949 . S
H808 C812 0.949 . S
C809 C810 1.349 . S
C809 C811 1.327 . S
C809 H832 0.950 . S
C810 C809 1.349 . S
C810 C822 1.349 . S
C811 C809 1.327 . S
C811 C827 1.429 . S
C811 H833 0.950 . S
C812 H808 0.949 . S
C812 C820 1.574 . S
C812 C828 1.368 . S
H813 C821 0.950 . S
H814 C819 0.950 . S
H815 C820 0.949 . S
H816 C822 0.950 . S
H817 C823 0.950 . S
H818 C824 0.949 . S
C819 H814 0.950 . S
C819 C821 1.327 . S
C819 C825 1.429 . S
C820 C812 1.574 . S
C820 H815 0.949 . S
C820 C826 1.368 . S
C821 C805 1.349 . S
C821 H813 0.950 . S
C821 C819 1.327 . S
C822 C810 1.349 . S
C822 H816 0.950 . S
C822 C823 1.327 . S
C823 H817 0.950 . S
C823 C822 1.327 . S
C823 C827 1.429 . S
C824 C807 1.574 . S
C824 H818 0.949 . S
C824 C828 1.368 . S
C825 C806 1.429 . S
C825 C819 1.429 . S
C825 C826 1.523 . S
C826 C807 1.368 . S
C826 C820 1.368 . S
C826 C825 1.523 . S
C827 C811 1.429 . S
C827 C823 1.429 . S
C827 C828 1.523 . S
C828 C812 1.368 . S
C828 C824 1.368 . S
C828 C827 1.523 . S
H829 C804 0.950 . S
H830 C806 0.950 . S
H831 C807 0.949 . S
H832 C809 0.950 . S
H833 C811 0.950 . S
C834 C835 1.349 . S
C834 C836 1.327 . S
C834 H859 0.950 . S
C835 C834 1.349 . S
C835 C851 1.349 . S
C836 C834 1.327 . S
C836 C855 1.429 . S
C836 H860 0.950 . S
C837 C854 1.574 . S
C837 C856 1.368 . S
C837 H861 0.949 . S
H838 C842 0.949 . S
C839 C840 1.349 . S
C839 C841 1.327 . S
C839 H862 0.950 . S
C840 C839 1.349 . S
C840 C852 1.349 . S
C841 C839 1.327 . S
C841 C857 1.429 . S
C841 H863 0.950 . S
C842 H838 0.949 . S
C842 C850 1.574 . S
C842 C858 1.368 . S
H843 C851 0.950 . S
H844 C849 0.950 . S
H845 C850 0.949 . S
H846 C852 0.950 . S
H847 C853 0.950 . S
H848 C854 0.949 . S
C849 H844 0.950 . S
C849 C851 1.327 . S
C849 C855 1.429 . S
C850 C842 1.574 . S
C850 H845 0.949 . S
C850 C856 1.368 . S
C851 C835 1.349 . S
C851 H843 0.950 . S
C851 C849 1.327 . S
C852 C840 1.349 . S
C852 H846 0.950 . S
C852 C853 1.327 . S
C853 H847 0.950 . S
C853 C852 1.327 . S
C853 C857 1.429 . S
C854 C837 1.574 . S
C854 H848 0.949 . S
C854 C858 1.368 . S
C855 C836 1.429 . S
C855 C849 1.429 . S
C855 C856 1.523 . S
C856 C837 1.368 . S
C856 C850 1.368 . S
C856 C855 1.523 . S
C857 C841 1.429 . S
C857 C853 1.429 . S
C857 C858 1.523 . S
C858 C842 1.368 . S
C858 C854 1.368 . S
C858 C857 1.523 . S
H859 C834 0.950 . S
H860 C836 0.950 . S
H861 C837 0.949 . S
H862 C839 0.950 . S
H863 C841 0.950 . S
C864 C865 1.349 . S
C864 C866 1.327 . S
C864 H889 0.950 . S
C865 C864 1.349 . S
C865 C881 1.349 . S
C866 C864 1.327 . S
C866 C885 1.429 . S
C866 H890 0.950 . S
C867 C884 1.574 . S
C867 C886 1.368 . S
C867 H891 0.949 . S
H868 C872 0.949 . S
C869 C870 1.349 . S
C869 C871 1.327 . S
C869 H892 0.950 . S
C870 C869 1.349 . S
C870 C882 1.349 . S
C871 C869 1.327 . S
C871 C887 1.429 . S
C871 H893 0.950 . S
C872 H868 0.949 . S
C872 C880 1.574 . S
C872 C888 1.368 . S
H873 C881 0.950 . S
H874 C879 0.950 . S
H875 C880 0.949 . S
H876 C882 0.950 . S
H877 C883 0.950 . S
H878 C884 0.949 . S
C879 H874 0.950 . S
C879 C881 1.327 . S
C879 C885 1.429 . S
C880 C872 1.574 . S
C880 H875 0.949 . S
C880 C886 1.368 . S
C881 C865 1.349 . S
C881 H873 0.950 . S
C881 C879 1.327 . S
C882 C870 1.349 . S
C882 H876 0.950 . S
C882 C883 1.327 . S
C883 H877 0.950 . S
C883 C882 1.327 . S
C883 C887 1.429 . S
C884 C867 1.574 . S
C884 H878 0.949 . S
C884 C888 1.368 . S
C885 C866 1.429 . S
C885 C879 1.429 . S
C885 C886 1.523 . S
C886 C867 1.368 . S
C886 C880 1.368 . S
C886 C885 1.523 . S
C887 C871 1.429 . S
C887 C883 1.429 . S
C887 C888 1.523 . S
C888 C872 1.368 . S
C888 C884 1.368 . S
C888 C887 1.523 . S
H889 C864 0.950 . S
H890 C866 0.950 . S
H891 C867 0.949 . S
H892 C869 0.950 . S
H893 C871 0.950 . S
C894 C895 1.349 . S
C894 C896 1.327 . S
C894 H919 0.950 . S
C895 C894 1.349 . S
C895 C911 1.349 . S
C896 C894 1.327 . S
C896 C915 1.429 . S
C896 H920 0.950 . S
C897 C914 1.574 . S
C897 C916 1.368 . S
C897 H921 0.949 . S
H898 C902 0.949 . S
C899 C900 1.349 . S
C899 C901 1.327 . S
C899 H922 0.950 . S
C900 C899 1.349 . S
C900 C912 1.349 . S
C901 C899 1.327 . S
C901 C917 1.429 . S
C901 H923 0.950 . S
C902 H898 0.949 . S
C902 C910 1.574 . S
C902 C918 1.368 . S
H903 C911 0.950 . S
H904 C909 0.950 . S
H905 C910 0.949 . S
H906 C912 0.950 . S
H907 C913 0.950 . S
H908 C914 0.949 . S
C909 H904 0.950 . S
C909 C911 1.327 . S
C909 C915 1.429 . S
C910 C902 1.574 . S
C910 H905 0.949 . S
C910 C916 1.368 . S
C911 C895 1.349 . S
C911 H903 0.950 . S
C911 C909 1.327 . S
C912 C900 1.349 . S
C912 H906 0.950 . S
C912 C913 1.327 . S
C913 H907 0.950 . S
C913 C912 1.327 . S
C913 C917 1.429 . S
C914 C897 1.574 . S
C914 H908 0.949 . S
C914 C918 1.368 . S
C915 C896 1.429 . S
C915 C909 1.429 . S
C915 C916 1.523 . S
C916 C897 1.368 . S
C916 C910 1.368 . S
C916 C915 1.523 . S
C917 C901 1.429 . S
C917 C913 1.429 . S
C917 C918 1.523 . S
C918 C902 1.368 . S
C918 C914 1.368 . S
C918 C917 1.523 . S
H919 C894 0.950 . S
H920 C896 0.950 . S
H921 C897 0.949 . S
H922 C899 0.950 . S
H923 C901 0.950 . S
C924 C925 1.349 . S
C924 C926 1.327 . S
C924 H949 0.950 . S
C925 C924 1.349 . S
C925 C941 1.349 . S
C926 C924 1.327 . S
C926 C945 1.429 . S
C926 H950 0.950 . S
C927 C944 1.574 . S
C927 C946 1.368 . S
C927 H951 0.949 . S
H928 C932 0.949 . S
C929 C930 1.349 . S
C929 C931 1.327 . S
C929 H952 0.950 . S
C930 C929 1.349 . S
C930 C942 1.349 . S
C931 C929 1.327 . S
C931 C947 1.429 . S
C931 H953 0.950 . S
C932 H928 0.949 . S
C932 C940 1.574 . S
C932 C948 1.368 . S
H933 C941 0.950 . S
H934 C939 0.950 . S
H935 C940 0.949 . S
H936 C942 0.950 . S
H937 C943 0.950 . S
H938 C944 0.949 . S
C939 H934 0.950 . S
C939 C941 1.327 . S
C939 C945 1.429 . S
C940 C932 1.574 . S
C940 H935 0.949 . S
C940 C946 1.368 . S
C941 C925 1.349 . S
C941 H933 0.950 . S
C941 C939 1.327 . S
C942 C930 1.349 . S
C942 H936 0.950 . S
C942 C943 1.327 . S
C943 H937 0.950 . S
C943 C942 1.327 . S
C943 C947 1.429 . S
C944 C927 1.574 . S
C944 H938 0.949 . S
C944 C948 1.368 . S
C945 C926 1.429 . S
C945 C939 1.429 . S
C945 C946 1.523 . S
C946 C927 1.368 . S
C946 C940 1.368 . S
C946 C945 1.523 . S
C947 C931 1.429 . S
C947 C943 1.429 . S
C947 C948 1.523 . S
C948 C932 1.368 . S
C948 C944 1.368 . S
C948 C947 1.523 . S
H949 C924 0.950 . S
H950 C926 0.950 . S
H951 C927 0.949 . S
H952 C929 0.950 . S
H953 C931 0.950 . S
C954 C955 1.349 . S
C954 C956 1.327 . S
C954 H979 0.950 . S
C955 C954 1.349 . S
C955 C971 1.349 . S
C956 C954 1.327 . S
C956 C975 1.429 . S
C956 H980 0.950 . S
C957 C974 1.574 . S
C957 C976 1.368 . S
C957 H981 0.949 . S
H958 C962 0.949 . S
C959 C960 1.349 . S
C959 C961 1.327 . S
C959 H982 0.950 . S
C960 C959 1.349 . S
C960 C972 1.349 . S
C961 C959 1.327 . S
C961 C977 1.429 . S
C961 H983 0.950 . S
C962 H958 0.949 . S
C962 C970 1.574 . S
C962 C978 1.368 . S
H963 C971 0.950 . S
H964 C969 0.950 . S
H965 C970 0.949 . S
H966 C972 0.950 . S
H967 C973 0.950 . S
H968 C974 0.949 . S
C969 H964 0.950 . S
C969 C971 1.327 . S
C969 C975 1.429 . S
C970 C962 1.574 . S
C970 H965 0.949 . S
C970 C976 1.368 . S
C971 C955 1.349 . S
C971 H963 0.950 . S
C971 C969 1.327 . S
C972 C960 1.349 . S
C972 H966 0.950 . S
C972 C973 1.327 . S
C973 H967 0.950 . S
C973 C972 1.327 . S
C973 C977 1.429 . S
C974 C957 1.574 . S
C974 H968 0.949 . S
C974 C978 1.368 . S
C975 C956 1.429 . S
C975 C969 1.429 . S
C975 C976 1.523 . S
C976 C957 1.368 . S
C976 C970 1.368 . S
C976 C975 1.523 . S
C977 C961 1.429 . S
C977 C973 1.429 . S
C977 C978 1.523 . S
C978 C962 1.368 . S
C978 C974 1.368 . S
C978 C977 1.523 . S
H979 C954 0.950 . S
H980 C956 0.950 . S
H981 C957 0.949 . S
H982 C959 0.950 . S
H983 C961 0.950 . S
C265 N1 0.710 . S
C270 C108 0.706 . S
C295 N18 1.261 . S
C300 C169 1.309 . S
C330 C207 1.971 . S
C325 N28 2.028 . S
C355 N40 2.551 . S
C360 C247 2.552 . S
C390 C167 1.579 . S
C385 N5 1.611 . S
C420 C135 1.812 . S
C415 N14 1.727 . S
C450 C244 1.732 . S
C445 N31 1.723 . S
C480 C204 1.493 . S
C475 N41 1.504 . S
C505 N2 0.823 . S
C510 C249 0.826 . S
C540 C164 2.602 . S
C535 N27 2.586 . S
C565 N44 2.346 . S
C570 C106 2.369 1_655 S
C595 N15 1.050 . S
C600 C209 1.072 . S
C630 C129 1.346 . S
C625 N57 1.349 . S
C655 N70 0.853 . S
C660 C148 0.877 . S
C685 N79 2.329 . S
C690 C186 2.328 . S
C715 N93 2.210 . S
C720 C226 2.188 . S
C745 N54 1.090 . S
C750 C146 1.107 . S
C780 C124 2.496 1_655 S
C775 N66 2.472 . S
C810 C255 1.104 . S
C805 N80 1.115 . S
C840 C215 1.831 . S
C835 N96 1.831 . S
C865 N53 0.986 . S
C870 C228 0.986 . S
C900 C175 2.056 . S
C895 N83 1.998 . S
C930 C127 2.389 . S
C925 N92 2.429 . S
C955 N67 1.240 . S
C960 C188 1.260 . S
