# Generated by pormake.
# Topology pyr, (3,6)-cn, num edge types: 1
# Building blocks:
#     Node 0, Type 0, BuildingBlock: VETTIZ_charged_linker_0, # of connection points: 3
#     Node 1, Type 0, BuildingBlock: VETTIZ_charged_linker_0, # of connection points: 3
#     Node 2, Type 0, BuildingBlock: VETTIZ_charged_linker_0, # of connection points: 3
#     Node 3, Type 0, BuildingBlock: VETTIZ_charged_linker_0, # of connection points: 3
#     Node 4, Type 0, BuildingBlock: VETTIZ_charged_linker_0, # of connection points: 3
#     Node 5, Type 0, BuildingBlock: VETTIZ_charged_linker_0, # of connection points: 3
#     Node 6, Type 0, BuildingBlock: VETTIZ_charged_linker_0, # of connection points: 3
#     Node 7, Type 0, BuildingBlock: VETTIZ_charged_linker_0, # of connection points: 3
#     Node 8, Type 1, BuildingBlock: BETDEL_clean_sbu_0, # of connection points: 6
#     Node 9, Type 1, BuildingBlock: BETDEL_clean_sbu_0, # of connection points: 6
#     Node 10, Type 1, BuildingBlock: BETDEL_clean_sbu_0, # of connection points: 6
#     Node 11, Type 1, BuildingBlock: BETDEL_clean_sbu_0, # of connection points: 6
#     Edge 12, Type (0, 1), BuildingBlock: OJICUG_clean_linker_0, # of connection points: 2
#     Edge 13, Type (0, 1), BuildingBlock: OJICUG_clean_linker_0, # of connection points: 2
#     Edge 14, Type (0, 1), BuildingBlock: OJICUG_clean_linker_0, # of connection points: 2
#     Edge 15, Type (0, 1), BuildingBlock: OJICUG_clean_linker_0, # of connection points: 2
#     Edge 16, Type (0, 1), BuildingBlock: OJICUG_clean_linker_0, # of connection points: 2
#     Edge 17, Type (0, 1), BuildingBlock: OJICUG_clean_linker_0, # of connection points: 2
#     Edge 18, Type (0, 1), BuildingBlock: OJICUG_clean_linker_0, # of connection points: 2
#     Edge 19, Type (0, 1), BuildingBlock: OJICUG_clean_linker_0, # of connection points: 2
#     Edge 20, Type (0, 1), BuildingBlock: OJICUG_clean_linker_0, # of connection points: 2
#     Edge 21, Type (0, 1), BuildingBlock: OJICUG_clean_linker_0, # of connection points: 2
#     Edge 22, Type (0, 1), BuildingBlock: OJICUG_clean_linker_0, # of connection points: 2
#     Edge 23, Type (0, 1), BuildingBlock: OJICUG_clean_linker_0, # of connection points: 2
#     Edge 24, Type (0, 1), BuildingBlock: OJICUG_clean_linker_0, # of connection points: 2
#     Edge 25, Type (0, 1), BuildingBlock: OJICUG_clean_linker_0, # of connection points: 2
#     Edge 26, Type (0, 1), BuildingBlock: OJICUG_clean_linker_0, # of connection points: 2
#     Edge 27, Type (0, 1), BuildingBlock: OJICUG_clean_linker_0, # of connection points: 2
#     Edge 28, Type (0, 1), BuildingBlock: OJICUG_clean_linker_0, # of connection points: 2
#     Edge 29, Type (0, 1), BuildingBlock: OJICUG_clean_linker_0, # of connection points: 2
#     Edge 30, Type (0, 1), BuildingBlock: OJICUG_clean_linker_0, # of connection points: 2
#     Edge 31, Type (0, 1), BuildingBlock: OJICUG_clean_linker_0, # of connection points: 2
#     Edge 32, Type (0, 1), BuildingBlock: OJICUG_clean_linker_0, # of connection points: 2
#     Edge 33, Type (0, 1), BuildingBlock: OJICUG_clean_linker_0, # of connection points: 2
#     Edge 34, Type (0, 1), BuildingBlock: OJICUG_clean_linker_0, # of connection points: 2
#     Edge 35, Type (0, 1), BuildingBlock: OJICUG_clean_linker_0, # of connection points: 2
# Relax obj value: 0.033
# Max RMSD: 0.093
# Mean RMSD: 0.040
data_MOF--net-pyr--node1-BETDEL_clean_sbu_0--node2-VETTIZ_charged_linker_0--edge1-OJICUG_clean_linker_0
_symmetry_space_group_name_H-M    P1
_symmetry_Int_Tables_number       1
_symmetry_cell_setting            triclinic
loop_
_symmetry_equiv_pos_as_xyz
'x, y, z'
_cell_length_a     34.829319
_cell_length_b     36.491898
_cell_length_c     33.7422
_cell_angle_alpha  91.621794
_cell_angle_beta   89.154166
_cell_angle_gamma 95.472211
loop_
_atom_site_label
_atom_site_type_symbol
_atom_site_fract_x
_atom_site_fract_y
_atom_site_fract_z
_atom_type_partial_charge
C0 C 0.09969 0.08065 0.23202 0.0
C1 C 0.06161 0.08877 0.23986 0.0
C2 C 0.04705 0.1179 0.22015 0.0
C3 C 0.10954 0.13295 0.18959 0.0
C4 C 0.12291 0.10288 0.20674 0.0
C5 C 0.16431 0.09862 0.19631 0.0
H6 H 0.32272 0.15343 0.08904 0.0
C7 C 0.14194 0.15205 0.16777 0.0
C8 C 0.17383 0.13186 0.17084 0.0
H9 H 0.30036 0.05691 0.16031 0.0
H10 H 0.24021 0.0776 0.18293 0.0
H11 H 0.28543 0.21171 0.15909 0.0
H12 H 0.24064 0.15368 0.05361 0.0
H13 H 0.22686 0.1989 0.05443 0.0
H14 H 0.27727 0.19176 0.05131 0.0
H15 H 0.30258 0.22375 0.11027 0.0
H16 H 0.26001 0.24142 0.13141 0.0
C17 C 0.18787 0.10166 0.23514 0.0
C18 C 0.16587 0.06171 0.17249 0.0
C19 C 0.12499 0.27535 0.11202 0.0
C20 C 0.1487 0.30038 0.08999 0.0
C21 C 0.18586 0.29202 0.07823 0.0
C22 C 0.19959 0.25893 0.08967 0.0
C23 C 0.17543 0.23421 0.1124 0.0
C24 C 0.13866 0.24263 0.12261 0.0
C25 C 0.11587 0.21304 0.14492 0.0
C26 C 0.14548 0.18574 0.148 0.0
C27 C 0.18041 0.19812 0.12924 0.0
C28 C 0.10496 0.22943 0.18603 0.0
C29 C 0.08093 0.1977 0.11928 0.0
C30 C 0.30505 0.13735 0.11018 0.0
C31 C 0.31565 0.10333 0.12263 0.0
C32 C 0.2922 0.08291 0.15 0.0
C33 C 0.25725 0.09488 0.16291 0.0
C34 C 0.24558 0.12753 0.14815 0.0
C35 C 0.26971 0.14892 0.12328 0.0
C36 C 0.25185 0.1828 0.11091 0.0
C37 C 0.21237 0.17683 0.13068 0.0
C38 C 0.20911 0.14432 0.15219 0.0
C39 C 0.27618 0.21691 0.1285 0.0
C40 C 0.24911 0.18212 0.06515 0.0
H41 H 0.05857 0.16269 0.18214 0.0
H42 H 0.11213 0.0588 0.24694 0.0
H43 H 0.13806 0.05306 0.15758 0.0
H44 H 0.18739 0.06368 0.14802 0.0
H45 H 0.17206 0.03911 0.1921 0.0
H46 H 0.17703 0.12259 0.25602 0.0
H47 H 0.18566 0.07499 0.25046 0.0
H48 H 0.21864 0.11102 0.23031 0.0
H49 H 0.09583 0.28087 0.12024 0.0
H50 H 0.20413 0.31108 0.06053 0.0
H51 H 0.22815 0.25371 0.08018 0.0
H52 H 0.12991 0.24688 0.19888 0.0
H53 H 0.08075 0.24693 0.18351 0.0
H54 H 0.09689 0.20837 0.20821 0.0
H55 H 0.08575 0.20362 0.08732 0.0
H56 H 0.07575 0.16729 0.12001 0.0
H57 H 0.05421 0.20999 0.12882 0.0
H58 H 0.01763 0.12435 0.22521 0.0
C59 C 0.07089 0.14013 0.19511 0.0
C60 C 0.18657 0.86762 0.5677 0.0
C61 C 0.17135 0.90043 0.58037 0.0
C62 C 0.18591 0.91969 0.61432 0.0
C63 C 0.23269 0.87576 0.62113 0.0
C64 C 0.21756 0.85577 0.58861 0.0
C65 C 0.23915 0.82238 0.57943 0.0
H66 H 0.40079 0.73697 0.61369 0.0
C67 C 0.26703 0.85918 0.63379 0.0
C68 C 0.2718 0.82817 0.6092 0.0
H69 H 0.30284 0.69264 0.54427 0.0
H70 H 0.27218 0.74907 0.55686 0.0
H71 H 0.40246 0.82414 0.59214 0.0
H72 H 0.35539 0.75159 0.68123 0.0
H73 H 0.35918 0.79429 0.7062 0.0
H74 H 0.40212 0.77599 0.68662 0.0
H75 H 0.42984 0.80513 0.62986 0.0
H76 H 0.40919 0.84833 0.63776 0.0
C77 C 0.25424 0.82382 0.53621 0.0
C78 C 0.21179 0.78757 0.58813 0.0
C79 C 0.34038 0.91218 0.75373 0.0
C80 C 0.37442 0.90305 0.77114 0.0
C81 C 0.3978 0.87921 0.75068 0.0
C82 C 0.38601 0.86253 0.71469 0.0
C83 C 0.35037 0.86956 0.69922 0.0
C84 C 0.329 0.89516 0.7177 0.0
C85 C 0.29297 0.90042 0.69553 0.0
C86 C 0.29462 0.87104 0.6629 0.0
C87 C 0.32809 0.85313 0.66554 0.0
C88 C 0.29712 0.94001 0.67915 0.0
C89 C 0.25786 0.89206 0.72373 0.0
C90 C 0.37256 0.73882 0.60128 0.0
C91 C 0.35408 0.70976 0.57869 0.0
C92 C 0.31784 0.71447 0.56209 0.0
C93 C 0.29983 0.74701 0.5698 0.0
C94 C 0.31792 0.77468 0.5949 0.0
C95 C 0.35364 0.76989 0.61019 0.0
C96 C 0.36688 0.79868 0.64055 0.0
C97 C 0.33336 0.82198 0.64106 0.0
C98 C 0.30503 0.80875 0.6136 0.0
C99 C 0.40421 0.8202 0.62463 0.0
C100 C 0.37142 0.77945 0.68069 0.0
H101 H 0.22638 0.92363 0.66022 0.0
H102 H 0.17552 0.85249 0.54157 0.0
H103 H 0.1928 0.79239 0.61419 0.0
H104 H 0.22744 0.76395 0.59602 0.0
H105 H 0.19296 0.77957 0.56241 0.0
H106 H 0.26982 0.85124 0.53045 0.0
H107 H 0.23004 0.81915 0.51503 0.0
H108 H 0.27469 0.80314 0.52947 0.0
H109 H 0.32218 0.9309 0.76857 0.0
H110 H 0.42491 0.8729 0.76295 0.0
H111 H 0.40461 0.84401 0.70098 0.0
H112 H 0.32761 0.95233 0.67889 0.0
H113 H 0.28026 0.95881 0.69732 0.0
H114 H 0.28805 0.94051 0.64783 0.0
H115 H 0.26146 0.86731 0.74134 0.0
H116 H 0.23041 0.8857 0.70791 0.0
H117 H 0.2547 0.9155 0.74486 0.0
H118 H 0.17422 0.94489 0.62437 0.0
C119 C 0.2164 0.9075 0.63481 0.0
C120 C 0.61735 0.21142 0.90109 0.0
C121 C 0.58137 0.19272 0.89065 0.0
C122 C 0.55939 0.20918 0.86211 0.0
C123 C 0.60871 0.26066 0.85532 0.0
C124 C 0.63001 0.24517 0.88364 0.0
C125 C 0.66662 0.26891 0.89317 0.0
H126 H 0.77848 0.42965 0.87705 0.0
C127 C 0.62983 0.29636 0.84367 0.0
C128 C 0.66357 0.30137 0.8664 0.0
H129 H 0.80049 0.33336 0.94264 0.0
H130 H 0.74189 0.30182 0.91893 0.0
H131 H 0.68672 0.42693 0.88914 0.0
H132 H 0.75518 0.37909 0.79735 0.0
H133 H 0.71635 0.39731 0.77477 0.0
H134 H 0.75126 0.42774 0.80163 0.0
H135 H 0.71407 0.45434 0.85327 0.0
H136 H 0.66595 0.43385 0.84301 0.0
C137 C 0.66492 0.28049 0.93765 0.0
C138 C 0.70131 0.24703 0.88136 0.0
C139 C 0.58013 0.37302 0.73314 0.0
C140 C 0.59255 0.4081 0.71825 0.0
C141 C 0.62453 0.42835 0.7362 0.0
C142 C 0.6443 0.41392 0.76738 0.0
C143 C 0.63204 0.37873 0.78149 0.0
C144 C 0.59991 0.35915 0.76499 0.0
C145 C 0.58942 0.32343 0.78612 0.0
C146 C 0.62194 0.3237 0.81602 0.0
C147 C 0.64696 0.35627 0.81307 0.0
C148 C 0.54974 0.32573 0.80687 0.0
C149 C 0.59025 0.29113 0.75561 0.0
C150 C 0.77124 0.40171 0.88632 0.0
C151 C 0.79469 0.385 0.91328 0.0
C152 C 0.78303 0.34825 0.92368 0.0
C153 C 0.74885 0.32943 0.9093 0.0
C154 C 0.72572 0.34676 0.88326 0.0
C155 C 0.73755 0.38194 0.87128 0.0
C156 C 0.71094 0.39453 0.84047 0.0
C157 C 0.68054 0.36163 0.83717 0.0
C158 C 0.68916 0.33398 0.8629 0.0
C159 C 0.69354 0.42941 0.85696 0.0
C160 C 0.73443 0.4003 0.80145 0.0
H161 H 0.55484 0.25305 0.82269 0.0
H162 H 0.6357 0.20013 0.92228 0.0
H163 H 0.69372 0.22648 0.85706 0.0
H164 H 0.72602 0.26484 0.86938 0.0
H165 H 0.71105 0.23183 0.90685 0.0
H166 H 0.63565 0.28817 0.946 0.0
H167 H 0.67135 0.25755 0.9567 0.0
H168 H 0.68474 0.30493 0.94536 0.0
H169 H 0.55523 0.35699 0.72064 0.0
H170 H 0.6348 0.45528 0.72549 0.0
H171 H 0.66852 0.4308 0.77935 0.0
H172 H 0.54572 0.35453 0.81657 0.0
H173 H 0.52575 0.31614 0.78664 0.0
H174 H 0.54673 0.3099 0.83435 0.0
H175 H 0.61712 0.29434 0.7373 0.0
H176 H 0.58991 0.26418 0.76965 0.0
H177 H 0.56532 0.2902 0.73532 0.0
H178 H 0.53113 0.19677 0.85376 0.0
C179 C 0.57293 0.2425 0.84428 0.0
C180 C 0.90683 0.77448 0.37292 0.0
C181 C 0.8933 0.79329 0.40683 0.0
C182 C 0.85961 0.77814 0.42618 0.0
C183 C 0.85432 0.72594 0.3799 0.0
C184 C 0.88694 0.74071 0.36011 0.0
C185 C 0.89723 0.71599 0.32545 0.0
H186 H 0.855 0.55752 0.21495 0.0
C187 C 0.84068 0.69039 0.36024 0.0
C188 C 0.86555 0.68407 0.32814 0.0
H189 H 0.9507 0.64077 0.19872 0.0
H190 H 0.92838 0.67576 0.2546 0.0
H191 H 0.86361 0.55628 0.31089 0.0
H192 H 0.78878 0.61376 0.23838 0.0
H193 H 0.76188 0.59168 0.27712 0.0
H194 H 0.78516 0.56438 0.24043 0.0
H195 H 0.82439 0.53234 0.28385 0.0
H196 H 0.81708 0.553 0.33223 0.0
C197 C 0.93763 0.70342 0.33277 0.0
C198 C 0.89452 0.73752 0.28696 0.0
C199 C 0.72243 0.61808 0.41811 0.0
C200 C 0.70238 0.58351 0.40945 0.0
C201 C 0.71559 0.56259 0.37687 0.0
C202 C 0.74784 0.57583 0.35378 0.0
C203 C 0.76762 0.61037 0.36329 0.0
C204 C 0.7547 0.63059 0.39521 0.0
C205 C 0.77923 0.66614 0.40219 0.0
C206 C 0.80909 0.66429 0.36918 0.0
C207 C 0.80231 0.63175 0.34606 0.0
C208 C 0.79744 0.66502 0.44386 0.0
C209 C 0.75358 0.69813 0.3967 0.0
C210 C 0.87154 0.58309 0.22335 0.0
C211 C 0.90484 0.59604 0.2014 0.0
C212 C 0.92462 0.63003 0.21389 0.0
C213 C 0.91179 0.65035 0.24684 0.0
C214 C 0.87877 0.63684 0.26833 0.0
C215 C 0.8593 0.6036 0.2565 0.0
C216 C 0.82536 0.59286 0.28353 0.0
C217 C 0.82723 0.62527 0.31308 0.0
C218 C 0.85869 0.65119 0.30408 0.0
C219 C 0.83258 0.55659 0.30364 0.0
C220 C 0.78817 0.59025 0.25875 0.0
H221 H 0.81489 0.73522 0.42945 0.0
H222 H 0.93264 0.78534 0.3573 0.0
H223 H 0.86858 0.75314 0.28787 0.0
H224 H 0.8913 0.71944 0.26024 0.0
H225 H 0.92025 0.75761 0.28307 0.0
H226 H 0.94097 0.69722 0.36457 0.0
H227 H 0.9607 0.72524 0.32488 0.0
H228 H 0.94272 0.67775 0.3163 0.0
H229 H 0.71312 0.63559 0.4421 0.0
H230 H 0.70133 0.53568 0.3694 0.0
H231 H 0.75628 0.5586 0.32949 0.0
H232 H 0.80178 0.63634 0.45186 0.0
H233 H 0.77871 0.67634 0.46719 0.0
H234 H 0.82659 0.67984 0.44552 0.0
H235 H 0.73137 0.6908 0.3737 0.0
H236 H 0.76991 0.72343 0.38591 0.0
H237 H 0.73822 0.70477 0.4247 0.0
H238 H 0.84795 0.79224 0.45167 0.0
C239 C 0.84021 0.74488 0.41301 0.0
C240 C 0.8425 0.71736 0.90874 0.0
C241 C 0.87907 0.70688 0.89748 0.0
C242 C 0.90245 0.729 0.87135 0.0
C243 C 0.85476 0.77243 0.87045 0.0
C244 C 0.831 0.75038 0.89493 0.0
C245 C 0.79447 0.76756 0.90583 0.0
H246 H 0.68992 0.91417 0.89128 0.0
C247 C 0.83683 0.80646 0.86467 0.0
C248 C 0.80142 0.80408 0.88512 0.0
H249 H 0.65904 0.81503 0.95574 0.0
H250 H 0.71904 0.79095 0.93458 0.0
H251 H 0.73162 0.87628 0.81176 0.0
H252 H 0.7687 0.92695 0.92297 0.0
H253 H 0.80849 0.9348 0.8908 0.0
H254 H 0.76392 0.95402 0.88016 0.0
H255 H 0.7273 0.92347 0.82635 0.0
H256 H 0.77065 0.90985 0.80332 0.0
C257 C 0.76011 0.74283 0.88801 0.0
C258 C 0.79251 0.77281 0.95149 0.0
C259 C 0.90634 0.90508 0.78114 0.0
C260 C 0.89759 0.94037 0.77113 0.0
C261 C 0.86635 0.95569 0.7903 0.0
C262 C 0.84215 0.93482 0.81626 0.0
C263 C 0.84957 0.89849 0.82342 0.0
C264 C 0.88211 0.88482 0.80735 0.0
C265 C 0.88655 0.84639 0.81976 0.0
C266 C 0.85044 0.83886 0.84495 0.0
C267 C 0.82859 0.86905 0.84616 0.0
C268 C 0.88564 0.82099 0.78203 0.0
C269 C 0.92409 0.84728 0.8443 0.0
C270 C 0.69577 0.88686 0.89988 0.0
C271 C 0.66985 0.86582 0.92403 0.0
C272 C 0.67872 0.83115 0.93639 0.0
C273 C 0.71346 0.81745 0.92425 0.0
C274 C 0.73957 0.83921 0.90042 0.0
C275 C 0.7305 0.87338 0.88893 0.0
C276 C 0.76249 0.8942 0.86646 0.0
C277 C 0.79196 0.86637 0.86497 0.0
C278 C 0.77841 0.8341 0.88457 0.0
C279 C 0.74745 0.90162 0.82475 0.0
C280 C 0.77663 0.92945 0.89103 0.0
H281 H 0.90973 0.77701 0.83814 0.0
H282 H 0.82374 0.7008 0.92852 0.0
H283 H 0.82172 0.7808 0.96368 0.0
H284 H 0.7751 0.79523 0.96118 0.0
H285 H 0.78082 0.74696 0.96576 0.0
H286 H 0.76748 0.73253 0.85775 0.0
H287 H 0.75238 0.71852 0.9066 0.0
H288 H 0.73427 0.7576 0.88426 0.0
H289 H 0.92995 0.8923 0.76692 0.0
H290 H 0.85952 0.98319 0.7837 0.0
H291 H 0.8179 0.94735 0.82859 0.0
H292 H 0.86402 0.82893 0.7607 0.0
H293 H 0.91415 0.82294 0.76666 0.0
H294 H 0.87684 0.7918 0.78819 0.0
H295 H 0.93375 0.87549 0.85579 0.0
H296 H 0.92014 0.83054 0.87119 0.0
H297 H 0.94823 0.83766 0.82615 0.0
H298 H 0.93104 0.7222 0.86273 0.0
C299 C 0.89033 0.76141 0.85755 0.0
C300 C 0.82154 0.14697 0.42342 0.0
C301 C 0.83504 0.11334 0.411 0.0
C302 C 0.82714 0.09909 0.37261 0.0
C303 C 0.7914 0.15088 0.35955 0.0
C304 C 0.79928 0.16514 0.39726 0.0
C305 C 0.78038 0.20017 0.40557 0.0
H306 H 0.64727 0.31065 0.3467 0.0
C307 C 0.76642 0.17501 0.34017 0.0
C308 C 0.75942 0.20398 0.36685 0.0
H309 H 0.71476 0.32404 0.45384 0.0
H310 H 0.74965 0.2724 0.43289 0.0
H311 H 0.63398 0.22652 0.34274 0.0
H312 H 0.71924 0.30419 0.2916 0.0
H313 H 0.71278 0.26832 0.25596 0.0
H314 H 0.67254 0.29387 0.27019 0.0
H315 H 0.62448 0.25479 0.30204 0.0
H316 H 0.64159 0.21007 0.29422 0.0
C317 C 0.75216 0.19375 0.44103 0.0
C318 C 0.8123 0.23202 0.41261 0.0
C319 C 0.71242 0.13661 0.20525 0.0
C320 C 0.68262 0.1493 0.18329 0.0
C321 C 0.6681 0.1828 0.19484 0.0
C322 C 0.68121 0.20198 0.2291 0.0
C323 C 0.70858 0.18722 0.25254 0.0
C324 C 0.72432 0.15553 0.24009 0.0
C325 C 0.75088 0.14247 0.27019 0.0
C326 C 0.74867 0.17191 0.30261 0.0
C327 C 0.72375 0.19771 0.29208 0.0
C328 C 0.73374 0.10387 0.28386 0.0
C329 C 0.79174 0.14342 0.25125 0.0
C330 C 0.67004 0.30349 0.36565 0.0
C331 C 0.67777 0.3218 0.40218 0.0
C332 C 0.70732 0.31013 0.42586 0.0
C333 C 0.72777 0.28022 0.41361 0.0
C334 C 0.71883 0.26197 0.3772 0.0
C335 C 0.69114 0.27461 0.35359 0.0
C336 C 0.68651 0.25401 0.31484 0.0
C337 C 0.7155 0.22622 0.31911 0.0
C338 C 0.73388 0.23014 0.35598 0.0
C339 C 0.6445 0.23547 0.31291 0.0
C340 C 0.69803 0.28131 0.28121 0.0
H341 H 0.80078 0.10552 0.31783 0.0
H342 H 0.8275 0.15833 0.45294 0.0
H343 H 0.83739 0.22895 0.39239 0.0
H344 H 0.8027 0.25917 0.4062 0.0
H345 H 0.82282 0.23245 0.44355 0.0
H346 H 0.73417 0.16706 0.43703 0.0
H347 H 0.76815 0.19287 0.46919 0.0
H348 H 0.73181 0.21496 0.44443 0.0
H349 H 0.72455 0.11119 0.19699 0.0
H350 H 0.64474 0.1931 0.17898 0.0
H351 H 0.66787 0.22646 0.23701 0.0
H352 H 0.70199 0.09966 0.27953 0.0
H353 H 0.74672 0.08146 0.26699 0.0
H354 H 0.73723 0.10002 0.31595 0.0
H355 H 0.79776 0.16797 0.23252 0.0
H356 H 0.81495 0.14584 0.27341 0.0
H357 H 0.7946 0.11858 0.23202 0.0
H358 H 0.83781 0.07341 0.36261 0.0
C359 C 0.80572 0.11784 0.3467 0.0
C360 C 0.42398 0.63017 0.28439 0.0
C361 C 0.411 0.59494 0.2986 0.0
C362 C 0.37853 0.57559 0.28056 0.0
C363 C 0.3723 0.62592 0.23593 0.0
C364 C 0.4045 0.64489 0.25289 0.0
C365 C 0.41511 0.68123 0.233 0.0
H366 H 0.37368 0.80497 0.09492 0.0
C367 C 0.3584 0.64869 0.20415 0.0
C368 C 0.38361 0.68118 0.20198 0.0
H369 H 0.47074 0.81302 0.17431 0.0
H370 H 0.44818 0.75442 0.2016 0.0
H371 H 0.31043 0.7726 0.15743 0.0
H372 H 0.37983 0.72058 0.07001 0.0
H373 H 0.33406 0.69593 0.06927 0.0
H374 H 0.339 0.74398 0.05691 0.0
H375 H 0.30199 0.77424 0.10519 0.0
H376 H 0.28059 0.73691 0.13452 0.0
C377 C 0.41259 0.71262 0.26438 0.0
C378 C 0.45553 0.68008 0.21364 0.0
C379 C 0.2354 0.60399 0.12906 0.0
C380 C 0.21529 0.61887 0.09815 0.0
C381 C 0.23044 0.65298 0.0829 0.0
C382 C 0.26423 0.67194 0.09813 0.0
C383 C 0.28374 0.65683 0.12902 0.0
C384 C 0.2694 0.62329 0.14384 0.0
C385 C 0.2945 0.61118 0.17616 0.0
C386 C 0.32598 0.64314 0.17856 0.0
C387 C 0.31941 0.66986 0.15089 0.0
C388 C 0.27004 0.60809 0.21482 0.0
C389 C 0.31069 0.57483 0.16205 0.0
C390 C 0.39049 0.79415 0.11784 0.0
C391 C 0.42405 0.8145 0.13241 0.0
C392 C 0.44436 0.79885 0.1628 0.0
C393 C 0.4314 0.76442 0.17852 0.0
C394 C 0.39775 0.7447 0.16375 0.0
C395 C 0.37809 0.75964 0.13371 0.0
C396 C 0.34319 0.7348 0.1211 0.0
C397 C 0.34501 0.70257 0.14841 0.0
C398 C 0.377 0.70834 0.17364 0.0
C399 C 0.307 0.75554 0.12961 0.0
C400 C 0.34888 0.72327 0.07698 0.0
H401 H 0.33451 0.57462 0.23771 0.0
H402 H 0.44904 0.64572 0.29716 0.0
H403 H 0.45912 0.65218 0.20078 0.0
H404 H 0.46041 0.69882 0.18859 0.0
H405 H 0.47862 0.68677 0.23578 0.0
H406 H 0.38612 0.70748 0.28303 0.0
H407 H 0.43786 0.71467 0.2843 0.0
H408 H 0.4106 0.73966 0.25116 0.0
H409 H 0.22479 0.57806 0.14191 0.0
H410 H 0.21646 0.66497 0.05862 0.0
H411 H 0.27392 0.69769 0.08505 0.0
H412 H 0.25179 0.63144 0.21806 0.0
H413 H 0.25057 0.58214 0.21469 0.0
H414 H 0.28767 0.60952 0.24181 0.0
H415 H 0.31481 0.57387 0.12928 0.0
H416 H 0.33959 0.57185 0.17394 0.0
H417 H 0.29077 0.55049 0.17005 0.0
H418 H 0.36753 0.54874 0.29094 0.0
C419 C 0.35917 0.59082 0.24966 0.0
C420 C 0.09291 0.22537 0.63821 0.0
C421 C 0.10575 0.2067 0.60386 0.0
C422 C 0.13978 0.22138 0.58468 0.0
C423 C 0.14684 0.2726 0.63217 0.0
C424 C 0.11386 0.25834 0.65172 0.0
C425 C 0.10454 0.28255 0.68714 0.0
H426 H 0.14803 0.44074 0.79764 0.0
C427 C 0.16187 0.30717 0.65295 0.0
C428 C 0.13738 0.31343 0.68538 0.0
H429 H 0.05271 0.35766 0.81505 0.0
H430 H 0.07545 0.32148 0.75987 0.0
H431 H 0.14591 0.43994 0.69996 0.0
H432 H 0.21199 0.38247 0.7814 0.0
H433 H 0.24223 0.39733 0.74169 0.0
H434 H 0.22188 0.43099 0.77387 0.0
H435 H 0.18111 0.46337 0.73257 0.0
H436 H 0.19501 0.44408 0.68549 0.0
C437 C 0.06486 0.29685 0.68026 0.0
C438 C 0.10625 0.25983 0.72495 0.0
C439 C 0.28322 0.37681 0.59823 0.0
C440 C 0.30705 0.40821 0.61081 0.0
C441 C 0.29549 0.42793 0.64499 0.0
C442 C 0.26148 0.41623 0.66621 0.0
C443 C 0.23865 0.3842 0.65352 0.0
C444 C 0.25002 0.36515 0.62008 0.0
C445 C 0.2238 0.33093 0.61137 0.0
C446 C 0.19447 0.33242 0.64492 0.0
C447 C 0.20282 0.3638 0.66951 0.0
C448 C 0.20535 0.33508 0.57034 0.0
C449 C 0.24779 0.29734 0.6143 0.0
C450 C 0.13188 0.41485 0.7895 0.0
C451 C 0.09824 0.40235 0.81093 0.0
C452 C 0.07878 0.368 0.79953 0.0
C453 C 0.09188 0.3471 0.76716 0.0
C454 C 0.12505 0.36034 0.74568 0.0
C455 C 0.14475 0.39354 0.75736 0.0
C456 C 0.18012 0.40289 0.73188 0.0
C457 C 0.1779 0.37051 0.70235 0.0
C458 C 0.14542 0.34549 0.71042 0.0
C459 C 0.17567 0.43962 0.71142 0.0
C460 C 0.21611 0.40379 0.75839 0.0
H461 H 0.18557 0.26336 0.58204 0.0
H462 H 0.06687 0.21497 0.65373 0.0
H463 H 0.13077 0.24239 0.72307 0.0
H464 H 0.11132 0.2772 0.75201 0.0
H465 H 0.07933 0.24131 0.72895 0.0
H466 H 0.06231 0.3049 0.64891 0.0
H467 H 0.04102 0.27526 0.68653 0.0
H468 H 0.0603 0.32178 0.69827 0.0
H469 H 0.29013 0.36115 0.57179 0.0
H470 H 0.31311 0.45201 0.65596 0.0
H471 H 0.25445 0.43234 0.69195 0.0
H472 H 0.20003 0.36421 0.56557 0.0
H473 H 0.22452 0.3265 0.54588 0.0
H474 H 0.17672 0.31949 0.56734 0.0
H475 H 0.27186 0.30308 0.6356 0.0
H476 H 0.23084 0.27272 0.62595 0.0
H477 H 0.26067 0.29016 0.58513 0.0
H478 H 0.15102 0.20741 0.55888 0.0
C479 C 0.16014 0.25397 0.59845 0.0
Dy480 Dy 0.00923 0.01295 0.46452 0.0
C481 C 0.95816 0.98004 0.61936 0.0
C482 C 0.01313 0.031 0.38747 0.0
Dy483 Dy 0.97839 0.99189 0.54287 0.0
O484 O 0.03283 0.00675 0.40299 0.0
O485 O 0.99224 0.04619 0.41415 0.0
O486 O 0.06949 0.00734 0.48231 0.0
O487 O 0.02393 0.97145 0.50577 0.0
C488 C 0.05976 0.98106 0.50682 0.0
C489 C 0.93062 0.02589 0.49835 0.0
O490 O 0.01724 0.04298 0.55974 0.0
O491 O 0.0303 0.06526 0.49696 0.0
O492 O 0.93543 0.98883 0.59203 0.0
O493 O 0.99239 0.97632 0.60487 0.0
O494 O 0.91911 0.99774 0.51941 0.0
O495 O 0.96604 0.0343 0.5026 0.0
O496 O 0.96939 0.96178 0.44984 0.0
O497 O 0.96592 0.93707 0.51204 0.0
C498 C 0.03223 0.06922 0.5361 0.0
C499 C 0.96012 0.93369 0.47333 0.0
Dy500 Dy 0.52734 0.01619 0.04171 0.0
C501 C 0.42872 0.95935 0.92145 0.0
C502 C 0.58296 0.05823 0.08115 0.0
Dy503 Dy 0.47514 0.99173 0.97866 0.0
O504 O 0.57947 0.02255 0.07989 0.0
O505 O 0.55563 0.07108 0.06162 0.0
O506 O 0.51127 0.978 0.09117 0.0
O507 O 0.48162 0.96975 0.03722 0.0
C508 C 0.48558 0.95713 0.07145 0.0
C509 C 0.5129 0.05865 0.96554 0.0
O510 O 0.43354 0.00716 0.02494 0.0
O511 O 0.47771 0.0492 0.05493 0.0
O512 O 0.43004 0.99365 0.93247 0.0
O513 O 0.45236 0.9425 0.94205 0.0
O514 O 0.47712 0.04924 0.9576 0.0
O515 O 0.52773 0.03119 0.97911 0.0
O516 O 0.56529 0.97964 0.00931 0.0
O517 O 0.52214 0.95729 0.96107 0.0
C518 C 0.4417 0.03602 0.04868 0.0
C519 C 0.55548 0.9573 0.979 0.0
Dy520 Dy 0.51611 0.46606 0.48287 0.0
C521 C 0.4408 0.58393 0.55642 0.0
C522 C 0.57111 0.42553 0.45271 0.0
Dy523 Dy 0.49076 0.53479 0.5324 0.0
O524 O 0.53742 0.42695 0.43663 0.0
O525 O 0.57459 0.4463 0.48451 0.0
O526 O 0.46451 0.42533 0.49683 0.0
O527 O 0.46894 0.47854 0.52062 0.0
C528 C 0.44818 0.44837 0.52045 0.0
C529 C 0.56309 0.5416 0.50187 0.0
O530 O 0.5051 0.49917 0.58273 0.0
O531 O 0.53934 0.45899 0.54432 0.0
O532 O 0.47526 0.58299 0.57073 0.0
O533 O 0.43369 0.55776 0.53014 0.0
O534 O 0.55304 0.55973 0.53365 0.0
O535 O 0.53339 0.52466 0.48707 0.0
O536 O 0.49216 0.4971 0.43273 0.0
O537 O 0.47214 0.54674 0.47043 0.0
C538 C 0.52813 0.47208 0.5794 0.0
C539 C 0.47539 0.52853 0.43594 0.0
Dy540 Dy 0.01427 0.46765 0.02772 0.0
C541 C 0.95882 0.59633 0.9682 0.0
C542 C 0.05481 0.4118 0.04854 0.0
Dy543 Dy 0.99449 0.5369 0.98622 0.0
O544 O 0.04171 0.43559 0.07334 0.0
O545 O 0.04399 0.41732 0.0128 0.0
O546 O 0.96638 0.47321 0.07197 0.0
O547 O 0.99562 0.52091 0.04842 0.0
C548 C 0.96787 0.50901 0.07087 0.0
C549 C 0.03045 0.49421 0.933 0.0
O550 O 0.04776 0.56136 0.01742 0.0
O551 O 0.06858 0.50588 0.03628 0.0
O552 O 0.99295 0.5898 0.95547 0.0
O553 O 0.94452 0.57102 0.99195 0.0
O554 O 0.01968 0.52624 0.92503 0.0
O555 O 0.02215 0.48831 0.96893 0.0
O556 O 0.96183 0.44272 0.9955 0.0
O557 O 0.94141 0.49795 0.97494 0.0
C558 C 0.07408 0.54219 0.03299 0.0
C559 C 0.9363 0.46169 0.97834 0.0
C560 C 0.01989 0.09181 0.30017 0.0
C561 C 0.03988 0.07059 0.27285 0.0
H562 H 0.99518 0.09529 0.35834 0.0
C563 C 0.0447 0.03381 0.28126 0.0
H564 H 0.01593 0.12032 0.29484 0.0
C565 C 0.03404 0.02005 0.31824 0.0
C566 C 0.01736 0.04254 0.34661 0.0
H567 H 0.05903 0.01648 0.26031 0.0
H568 H 0.04044 0.9925 0.32525 0.0
C569 C 0.00834 0.07767 0.33674 0.0
C570 C 0.39912 0.89332 0.83839 0.0
C571 C 0.38498 0.917 0.81115 0.0
H572 H 0.42377 0.88837 0.89537 0.0
C573 C 0.38154 0.95389 0.82226 0.0
H574 H 0.40109 0.8645 0.83086 0.0
C575 C 0.39379 0.96729 0.85944 0.0
C576 C 0.40978 0.94398 0.8857 0.0
H577 H 0.37078 0.97268 0.80173 0.0
H578 H 0.39235 0.99621 0.86687 0.0
C579 C 0.41161 0.90678 0.87538 0.0
C580 C 0.56243 0.45993 0.68528 0.0
C581 C 0.57322 0.42362 0.68372 0.0
H582 H 0.53907 0.50341 0.65429 0.0
C583 C 0.56755 0.4031 0.64802 0.0
H584 H 0.56634 0.47654 0.71229 0.0
C585 C 0.55277 0.4188 0.61451 0.0
C586 C 0.54226 0.45522 0.6159 0.0
H587 H 0.57577 0.37523 0.64559 0.0
H588 H 0.54965 0.40232 0.58733 0.0
C589 C 0.54669 0.47534 0.65203 0.0
C590 C 0.93987 0.59122 0.13447 0.0
C591 C 0.91951 0.57397 0.16657 0.0
H592 H 0.97093 0.58469 0.0794 0.0
C593 C 0.91412 0.53514 0.16541 0.0
H594 H 0.94417 0.62094 0.13337 0.0
C595 C 0.92881 0.51446 0.13387 0.0
C596 C 0.9499 0.53171 0.10252 0.0
H597 H 0.8994 0.52037 0.18943 0.0
H598 H 0.92439 0.48471 0.13464 0.0
C599 C 0.95499 0.57042 0.1031 0.0
C600 C 0.34263 0.05102 0.08746 0.0
C601 C 0.34848 0.08676 0.10406 0.0
H602 H 0.3676 0.00702 0.05694 0.0
C603 C 0.38524 0.10603 0.10244 0.0
H604 H 0.31431 0.03588 0.08794 0.0
C605 C 0.41599 0.08937 0.0849 0.0
C606 C 0.41001 0.05356 0.06823 0.0
H607 H 0.39019 0.13367 0.11508 0.0
H608 H 0.44422 0.10463 0.08396 0.0
C609 C 0.37307 0.03462 0.06957 0.0
C610 C 0.15469 0.94961 0.53688 0.0
C611 C 0.14284 0.9174 0.55713 0.0
H612 H 0.13747 0.99515 0.50531 0.0
C613 C 0.10349 0.90542 0.56012 0.0
H614 H 0.18498 0.95953 0.53497 0.0
C615 C 0.07615 0.92605 0.54362 0.0
C616 C 0.08803 0.95878 0.524 0.0
H617 H 0.09392 0.881 0.57643 0.0
H618 H 0.0458 0.91673 0.54671 0.0
C619 C 0.12753 0.97008 0.52033 0.0
C620 C 0.84642 0.39463 0.96639 0.0
C621 C 0.83113 0.40507 0.93018 0.0
H622 H 0.89169 0.4034 0.00922 0.0
C623 C 0.85142 0.43469 0.9104 0.0
H624 H 0.83168 0.37306 0.98379 0.0
C625 C 0.88516 0.45318 0.92631 0.0
C626 C 0.90049 0.44196 0.9618 0.0
H627 H 0.84182 0.44356 0.88221 0.0
H628 H 0.89979 0.47588 0.9103 0.0
C629 C 0.8809 0.41231 0.98149 0.0
C630 C 0.63619 0.54855 0.41691 0.0
C631 C 0.66773 0.57007 0.43403 0.0
H632 H 0.57891 0.52235 0.42492 0.0
C633 C 0.66514 0.57992 0.47471 0.0
H634 H 0.63656 0.54062 0.38577 0.0
C635 C 0.63158 0.57006 0.49697 0.0
C636 C 0.59988 0.54952 0.47943 0.0
H637 H 0.68899 0.59554 0.48955 0.0
H638 H 0.63031 0.57888 0.52784 0.0
C639 C 0.60287 0.53823 0.43937 0.0
C640 C 0.11789 0.35677 0.10789 0.0
C641 C 0.13241 0.33387 0.0783 0.0
H642 H 0.08121 0.39926 0.12151 0.0
C643 C 0.12333 0.33826 0.03854 0.0
H644 H 0.12428 0.35328 0.13882 0.0
C645 C 0.09814 0.36399 0.02872 0.0
C646 C 0.082 0.3855 0.05861 0.0
H647 H 0.1337 0.32025 0.01552 0.0
H648 H 0.09051 0.36634 0.99794 0.0
C649 C 0.09289 0.38252 0.09809 0.0
C650 C 0.57753 0.14754 0.94786 0.0
C651 C 0.56653 0.15673 0.90938 0.0
H652 H 0.57028 0.10912 0.99542 0.0
C653 C 0.54026 0.13123 0.88913 0.0
H654 H 0.59722 0.16615 0.96508 0.0
C655 C 0.52407 0.09916 0.90721 0.0
C656 C 0.53438 0.09058 0.94573 0.0
H657 H 0.53176 0.13589 0.85913 0.0
H658 H 0.50306 0.08102 0.89093 0.0
C659 C 0.56199 0.11471 0.96557 0.0
C660 C 0.91777 0.8339 0.46424 0.0
C661 C 0.91343 0.82846 0.42299 0.0
H662 H 0.93547 0.87089 0.51229 0.0
C663 C 0.92585 0.85768 0.39819 0.0
H664 H 0.90901 0.81186 0.48424 0.0
C665 C 0.94101 0.89185 0.4144 0.0
C666 C 0.94438 0.89747 0.45578 0.0
H667 H 0.9227 0.85451 0.36635 0.0
H668 H 0.94979 0.91393 0.39447 0.0
C669 C 0.933 0.86784 0.48038 0.0
C670 C 0.39532 0.66334 0.60518 0.0
C671 C 0.37274 0.67479 0.57422 0.0
H672 H 0.43541 0.62618 0.6234 0.0
C673 C 0.37026 0.65375 0.5387 0.0
H674 H 0.39677 0.67782 0.63365 0.0
C675 C 0.39125 0.6231 0.53371 0.0
C676 C 0.41567 0.61351 0.56375 0.0
H677 H 0.35338 0.66168 0.51422 0.0
H678 H 0.38974 0.60794 0.50561 0.0
C679 C 0.4172 0.63351 0.59967 0.0
C680 C 0.89316 0.9729 0.70821 0.0
C681 C 0.91626 0.95767 0.73593 0.0
H682 H 0.88868 0.99187 0.64961 0.0
C683 C 0.95517 0.95364 0.72639 0.0
H684 H 0.86295 0.97582 0.71416 0.0
C685 C 0.96974 0.96212 0.68864 0.0
C686 C 0.94558 0.97492 0.66039 0.0
H687 H 0.97376 0.94237 0.74743 0.0
H688 H 0.99923 0.95734 0.68113 0.0
C689 C 0.90775 0.98155 0.67087 0.0
C690 C 0.64524 0.14035 0.12031 0.0
C691 C 0.66248 0.12521 0.15271 0.0
H692 H 0.60566 0.13071 0.07234 0.0
C693 C 0.65605 0.08709 0.15866 0.0
H694 H 0.65022 0.16945 0.11446 0.0
C695 C 0.63147 0.06498 0.13398 0.0
C696 C 0.61229 0.08072 0.10358 0.0
H697 H 0.6681 0.07449 0.18373 0.0
H698 H 0.62589 0.03594 0.14007 0.0
C699 C 0.61989 0.11829 0.09619 0.0
C700 C 0.43948 0.59938 0.36735 0.0
C701 C 0.43011 0.57841 0.33263 0.0
H702 H 0.46043 0.60024 0.4268 0.0
C703 C 0.4372 0.54094 0.33165 0.0
H704 H 0.43418 0.62814 0.36942 0.0
C705 C 0.45273 0.52485 0.36456 0.0
C706 C 0.46095 0.54559 0.39972 0.0
H707 H 0.4306 0.52394 0.30535 0.0
H708 H 0.45742 0.49594 0.36275 0.0
C709 C 0.45431 0.58317 0.40044 0.0
C710 C 0.08209 0.46387 0.83937 0.0
C711 C 0.08259 0.42569 0.84374 0.0
H712 H 0.06531 0.51487 0.86377 0.0
C713 C 0.06684 0.4102 0.87901 0.0
H714 H 0.09337 0.47684 0.81259 0.0
C715 C 0.05086 0.43228 0.90876 0.0
C716 C 0.04982 0.4703 0.90378 0.0
H717 H 0.06683 0.38095 0.88361 0.0
H718 H 0.03835 0.41943 0.93504 0.0
C719 C 0.06576 0.48571 0.86875 0.0
C720 C 0.63566 0.89507 0.97916 0.0
C721 C 0.63615 0.88285 0.93948 0.0
H722 H 0.60988 0.92907 0.02263 0.0
C723 C 0.60867 0.89344 0.9132 0.0
H724 H 0.65722 0.88768 0.99956 0.0
C725 C 0.58155 0.91696 0.92628 0.0
C726 C 0.58238 0.93087 0.96549 0.0
H727 H 0.60924 0.88468 0.88226 0.0
H728 H 0.56106 0.92545 0.90534 0.0
C729 C 0.6091 0.91917 0.99205 0.0
C730 C 0.84395 0.05685 0.44791 0.0
C731 C 0.8578 0.09265 0.43722 0.0
H732 H 0.85635 0.00755 0.4763 0.0
C733 C 0.8951 0.10685 0.44786 0.0
H734 H 0.81527 0.04542 0.43952 0.0
C735 C 0.91879 0.08502 0.46792 0.0
C736 C 0.90518 0.04898 0.47815 0.0
H737 H 0.90635 0.13424 0.43931 0.0
H738 H 0.94786 0.09624 0.47513 0.0
C739 C 0.86738 0.03525 0.46867 0.0
C740 C 0.14888 0.61886 0.06837 0.0
C741 C 0.17895 0.59912 0.08157 0.0
H742 H 0.09276 0.61677 0.04264 0.0
C743 C 0.17407 0.5604 0.07824 0.0
H744 H 0.15099 0.64861 0.07102 0.0
C745 C 0.14029 0.54208 0.06232 0.0
C746 C 0.11039 0.56187 0.04898 0.0
H747 H 0.19661 0.5441 0.0874 0.0
H748 H 0.13775 0.51227 0.06034 0.0
C749 C 0.11522 0.60054 0.05218 0.0
C750 C 0.36464 0.39231 0.5696 0.0
C751 C 0.34397 0.4193 0.58868 0.0
H752 H 0.41282 0.38046 0.53295 0.0
C753 C 0.3588 0.45652 0.58576 0.0
H754 H 0.35535 0.3633 0.57198 0.0
C755 C 0.39287 0.46627 0.56401 0.0
C756 C 0.4125 0.43912 0.54415 0.0
H757 H 0.34383 0.47825 0.59964 0.0
H758 H 0.40351 0.49502 0.56232 0.0
C759 C 0.39802 0.40211 0.54735 0.0
C760 C 0.9197 0.6544 0.89213 0.0
C761 C 0.89489 0.67497 0.91493 0.0
H762 H 0.96058 0.61442 0.89195 0.0
C763 C 0.88921 0.66755 0.95542 0.0
H764 H 0.92373 0.65854 0.86062 0.0
C765 C 0.9095 0.64123 0.97304 0.0
C766 C 0.93635 0.62306 0.95056 0.0
H767 H 0.87051 0.68311 0.97385 0.0
H768 H 0.90538 0.63614 0.00437 0.0
C769 C 0.94084 0.62924 0.90998 0.0
C770 C 0.45631 0.87937 0.14153 0.0
C771 C 0.43779 0.8518 0.11651 0.0
H772 H 0.48541 0.93364 0.14705 0.0
C773 C 0.43306 0.86032 0.07635 0.0
H774 H 0.45976 0.87466 0.17275 0.0
C775 C 0.44726 0.89488 0.06169 0.0
C776 C 0.46677 0.92173 0.08671 0.0
H777 H 0.41934 0.83997 0.05585 0.0
H778 H 0.44396 0.90017 0.03055 0.0
C779 C 0.47073 0.91357 0.12683 0.0
C780 C 0.0694 0.1437 0.61181 0.0
C781 C 0.08451 0.1722 0.5872 0.0
H782 H 0.04152 0.08879 0.61519 0.0
C783 C 0.08125 0.1667 0.54584 0.0
H784 H 0.0716 0.14683 0.64373 0.0
C785 C 0.06443 0.13344 0.52947 0.0
C786 C 0.05012 0.10458 0.55392 0.0
H787 H 0.09187 0.18821 0.5259 0.0
H788 H 0.06278 0.13041 0.49751 0.0
C789 C 0.05246 0.11027 0.59536 0.0
C790 C 0.63627 0.37272 0.38766 0.0
C791 C 0.65357 0.35149 0.41558 0.0
H792 H 0.59532 0.41174 0.37749 0.0
C793 C 0.64486 0.35693 0.45604 0.0
H794 H 0.64325 0.37069 0.35637 0.0
C795 C 0.6188 0.38197 0.468 0.0
C796 C 0.59999 0.40106 0.43975 0.0
H797 H 0.65695 0.34099 0.47849 0.0
H798 H 0.61213 0.38529 0.4993 0.0
C799 C 0.60901 0.39655 0.39958 0.0
loop_
_geom_bond_atom_site_label_1
_geom_bond_atom_site_label_2
_geom_bond_distance
_geom_bond_site_symmetry_2
_ccdc_geom_bond_type
C0 C1 1.391 . S
C0 C4 1.391 . S
C0 H42 0.948 . S
C1 C0 1.391 . S
C1 C2 1.391 . S
C2 C1 1.391 . S
C2 H58 0.947 . S
C2 C59 1.392 . S
C3 C4 1.391 . S
C3 C7 1.397 . S
C3 C59 1.419 . S
C4 C0 1.391 . S
C4 C3 1.391 . S
C4 C5 1.399 . S
C5 C4 1.399 . S
C5 C8 1.396 . S
C5 C17 1.453 . S
C5 C18 1.684 . S
H6 C30 0.948 . S
C7 C3 1.397 . S
C7 C8 1.394 . S
C7 C26 1.723 . S
C8 C5 1.396 . S
C8 C7 1.394 . S
C8 C38 1.723 . S
H9 C32 0.947 . S
H10 C33 0.948 . S
H11 C39 0.982 . S
H12 C40 0.979 . S
H13 C40 0.980 . S
H14 C40 0.983 . S
H15 C39 0.979 . S
H16 C39 0.977 . S
C17 C5 1.453 . S
C17 H46 0.982 . S
C17 H47 0.979 . S
C17 H48 0.977 . S
C18 C5 1.684 . S
C18 H43 0.979 . S
C18 H44 0.980 . S
C18 H45 0.983 . S
C19 C20 1.391 . S
C19 C24 1.391 . S
C19 H49 0.948 . S
C20 C19 1.391 . S
C20 C21 1.391 . S
C21 C20 1.391 . S
C21 C22 1.392 . S
C21 H50 0.947 . S
C22 C21 1.392 . S
C22 C23 1.419 . S
C22 H51 0.948 . S
C23 C22 1.419 . S
C23 C24 1.391 . S
C23 C27 1.397 . S
C24 C19 1.391 . S
C24 C23 1.391 . S
C24 C25 1.399 . S
C25 C24 1.399 . S
C25 C26 1.396 . S
C25 C28 1.453 . S
C25 C29 1.684 . S
C26 C7 1.723 . S
C26 C25 1.396 . S
C26 C27 1.394 . S
C27 C23 1.397 . S
C27 C26 1.394 . S
C27 C37 1.723 . S
C28 C25 1.453 . S
C28 H52 0.982 . S
C28 H53 0.979 . S
C28 H54 0.977 . S
C29 C25 1.684 . S
C29 H55 0.979 . S
C29 H56 0.980 . S
C29 H57 0.983 . S
C30 H6 0.948 . S
C30 C31 1.391 . S
C30 C35 1.391 . S
C31 C30 1.391 . S
C31 C32 1.391 . S
C32 H9 0.947 . S
C32 C31 1.391 . S
C32 C33 1.392 . S
C33 H10 0.948 . S
C33 C32 1.392 . S
C33 C34 1.419 . S
C34 C33 1.419 . S
C34 C35 1.391 . S
C34 C38 1.397 . S
C35 C30 1.391 . S
C35 C34 1.391 . S
C35 C36 1.399 . S
C36 C35 1.399 . S
C36 C37 1.396 . S
C36 C39 1.453 . S
C36 C40 1.684 . S
C37 C27 1.723 . S
C37 C36 1.396 . S
C37 C38 1.394 . S
C38 C8 1.723 . S
C38 C34 1.397 . S
C38 C37 1.394 . S
C39 H11 0.982 . S
C39 H15 0.979 . S
C39 H16 0.977 . S
C39 C36 1.453 . S
C40 H12 0.979 . S
C40 H13 0.980 . S
C40 H14 0.983 . S
C40 C36 1.684 . S
H41 C59 0.948 . S
H42 C0 0.948 . S
H43 C18 0.979 . S
H44 C18 0.980 . S
H45 C18 0.983 . S
H46 C17 0.982 . S
H47 C17 0.979 . S
H48 C17 0.977 . S
H49 C19 0.948 . S
H50 C21 0.947 . S
H51 C22 0.948 . S
H52 C28 0.982 . S
H53 C28 0.979 . S
H54 C28 0.977 . S
H55 C29 0.979 . S
H56 C29 0.980 . S
H57 C29 0.983 . S
H58 C2 0.947 . S
C59 C2 1.392 . S
C59 C3 1.419 . S
C59 H41 0.948 . S
C60 C61 1.391 . S
C60 C64 1.391 . S
C60 H102 0.948 . S
C61 C60 1.391 . S
C61 C62 1.391 . S
C62 C61 1.391 . S
C62 H118 0.947 . S
C62 C119 1.392 . S
C63 C64 1.391 . S
C63 C67 1.397 . S
C63 C119 1.419 . S
C64 C60 1.391 . S
C64 C63 1.391 . S
C64 C65 1.399 . S
C65 C64 1.399 . S
C65 C68 1.396 . S
C65 C77 1.453 . S
C65 C78 1.684 . S
H66 C90 0.948 . S
C67 C63 1.397 . S
C67 C68 1.394 . S
C67 C86 1.723 . S
C68 C65 1.396 . S
C68 C67 1.394 . S
C68 C98 1.723 . S
H69 C92 0.947 . S
H70 C93 0.948 . S
H71 C99 0.982 . S
H72 C100 0.979 . S
H73 C100 0.980 . S
H74 C100 0.983 . S
H75 C99 0.979 . S
H76 C99 0.977 . S
C77 C65 1.453 . S
C77 H106 0.982 . S
C77 H107 0.979 . S
C77 H108 0.977 . S
C78 C65 1.684 . S
C78 H103 0.979 . S
C78 H104 0.980 . S
C78 H105 0.983 . S
C79 C80 1.391 . S
C79 C84 1.391 . S
C79 H109 0.948 . S
C80 C79 1.391 . S
C80 C81 1.391 . S
C81 C80 1.391 . S
C81 C82 1.392 . S
C81 H110 0.947 . S
C82 C81 1.392 . S
C82 C83 1.419 . S
C82 H111 0.948 . S
C83 C82 1.419 . S
C83 C84 1.391 . S
C83 C87 1.397 . S
C84 C79 1.391 . S
C84 C83 1.391 . S
C84 C85 1.399 . S
C85 C84 1.399 . S
C85 C86 1.396 . S
C85 C88 1.453 . S
C85 C89 1.684 . S
C86 C67 1.723 . S
C86 C85 1.396 . S
C86 C87 1.394 . S
C87 C83 1.397 . S
C87 C86 1.394 . S
C87 C97 1.723 . S
C88 C85 1.453 . S
C88 H112 0.982 . S
C88 H113 0.979 . S
C88 H114 0.977 . S
C89 C85 1.684 . S
C89 H115 0.979 . S
C89 H116 0.980 . S
C89 H117 0.983 . S
C90 H66 0.948 . S
C90 C91 1.391 . S
C90 C95 1.391 . S
C91 C90 1.391 . S
C91 C92 1.391 . S
C92 H69 0.947 . S
C92 C91 1.391 . S
C92 C93 1.392 . S
C93 H70 0.948 . S
C93 C92 1.392 . S
C93 C94 1.419 . S
C94 C93 1.419 . S
C94 C95 1.391 . S
C94 C98 1.397 . S
C95 C90 1.391 . S
C95 C94 1.391 . S
C95 C96 1.399 . S
C96 C95 1.399 . S
C96 C97 1.396 . S
C96 C99 1.453 . S
C96 C100 1.684 . S
C97 C87 1.723 . S
C97 C96 1.396 . S
C97 C98 1.394 . S
C98 C68 1.723 . S
C98 C94 1.397 . S
C98 C97 1.394 . S
C99 H71 0.982 . S
C99 H75 0.979 . S
C99 H76 0.977 . S
C99 C96 1.453 . S
C100 H72 0.979 . S
C100 H73 0.980 . S
C100 H74 0.983 . S
C100 C96 1.684 . S
H101 C119 0.948 . S
H102 C60 0.948 . S
H103 C78 0.979 . S
H104 C78 0.980 . S
H105 C78 0.983 . S
H106 C77 0.982 . S
H107 C77 0.979 . S
H108 C77 0.977 . S
H109 C79 0.948 . S
H110 C81 0.947 . S
H111 C82 0.948 . S
H112 C88 0.982 . S
H113 C88 0.979 . S
H114 C88 0.977 . S
H115 C89 0.979 . S
H116 C89 0.980 . S
H117 C89 0.983 . S
H118 C62 0.947 . S
C119 C62 1.392 . S
C119 C63 1.419 . S
C119 H101 0.948 . S
C120 C121 1.391 . S
C120 C124 1.391 . S
C120 H162 0.948 . S
C121 C120 1.391 . S
C121 C122 1.391 . S
C122 C121 1.391 . S
C122 H178 0.947 . S
C122 C179 1.392 . S
C123 C124 1.391 . S
C123 C127 1.397 . S
C123 C179 1.419 . S
C124 C120 1.391 . S
C124 C123 1.391 . S
C124 C125 1.399 . S
C125 C124 1.399 . S
C125 C128 1.396 . S
C125 C137 1.453 . S
C125 C138 1.684 . S
H126 C150 0.948 . S
C127 C123 1.397 . S
C127 C128 1.394 . S
C127 C146 1.723 . S
C128 C125 1.396 . S
C128 C127 1.394 . S
C128 C158 1.723 . S
H129 C152 0.947 . S
H130 C153 0.948 . S
H131 C159 0.982 . S
H132 C160 0.979 . S
H133 C160 0.980 . S
H134 C160 0.983 . S
H135 C159 0.979 . S
H136 C159 0.977 . S
C137 C125 1.453 . S
C137 H166 0.982 . S
C137 H167 0.979 . S
C137 H168 0.977 . S
C138 C125 1.684 . S
C138 H163 0.979 . S
C138 H164 0.980 . S
C138 H165 0.983 . S
C139 C140 1.391 . S
C139 C144 1.391 . S
C139 H169 0.948 . S
C140 C139 1.391 . S
C140 C141 1.391 . S
C141 C140 1.391 . S
C141 C142 1.392 . S
C141 H170 0.947 . S
C142 C141 1.392 . S
C142 C143 1.419 . S
C142 H171 0.948 . S
C143 C142 1.419 . S
C143 C144 1.391 . S
C143 C147 1.397 . S
C144 C139 1.391 . S
C144 C143 1.391 . S
C144 C145 1.399 . S
C145 C144 1.399 . S
C145 C146 1.396 . S
C145 C148 1.453 . S
C145 C149 1.684 . S
C146 C127 1.723 . S
C146 C145 1.396 . S
C146 C147 1.394 . S
C147 C143 1.397 . S
C147 C146 1.394 . S
C147 C157 1.723 . S
C148 C145 1.453 . S
C148 H172 0.982 . S
C148 H173 0.979 . S
C148 H174 0.977 . S
C149 C145 1.684 . S
C149 H175 0.979 . S
C149 H176 0.980 . S
C149 H177 0.983 . S
C150 H126 0.948 . S
C150 C151 1.391 . S
C150 C155 1.391 . S
C151 C150 1.391 . S
C151 C152 1.391 . S
C152 H129 0.947 . S
C152 C151 1.391 . S
C152 C153 1.392 . S
C153 H130 0.948 . S
C153 C152 1.392 . S
C153 C154 1.419 . S
C154 C153 1.419 . S
C154 C155 1.391 . S
C154 C158 1.397 . S
C155 C150 1.391 . S
C155 C154 1.391 . S
C155 C156 1.399 . S
C156 C155 1.399 . S
C156 C157 1.396 . S
C156 C159 1.453 . S
C156 C160 1.684 . S
C157 C147 1.723 . S
C157 C156 1.396 . S
C157 C158 1.394 . S
C158 C128 1.723 . S
C158 C154 1.397 . S
C158 C157 1.394 . S
C159 H131 0.982 . S
C159 H135 0.979 . S
C159 H136 0.977 . S
C159 C156 1.453 . S
C160 H132 0.979 . S
C160 H133 0.980 . S
C160 H134 0.983 . S
C160 C156 1.684 . S
H161 C179 0.948 . S
H162 C120 0.948 . S
H163 C138 0.979 . S
H164 C138 0.980 . S
H165 C138 0.983 . S
H166 C137 0.982 . S
H167 C137 0.979 . S
H168 C137 0.977 . S
H169 C139 0.948 . S
H170 C141 0.947 . S
H171 C142 0.948 . S
H172 C148 0.982 . S
H173 C148 0.979 . S
H174 C148 0.977 . S
H175 C149 0.979 . S
H176 C149 0.980 . S
H177 C149 0.983 . S
H178 C122 0.947 . S
C179 C122 1.392 . S
C179 C123 1.419 . S
C179 H161 0.948 . S
C180 C181 1.391 . S
C180 C184 1.391 . S
C180 H222 0.948 . S
C181 C180 1.391 . S
C181 C182 1.391 . S
C182 C181 1.391 . S
C182 H238 0.947 . S
C182 C239 1.392 . S
C183 C184 1.391 . S
C183 C187 1.397 . S
C183 C239 1.419 . S
C184 C180 1.391 . S
C184 C183 1.391 . S
C184 C185 1.399 . S
C185 C184 1.399 . S
C185 C188 1.396 . S
C185 C197 1.453 . S
C185 C198 1.684 . S
H186 C210 0.948 . S
C187 C183 1.397 . S
C187 C188 1.394 . S
C187 C206 1.723 . S
C188 C185 1.396 . S
C188 C187 1.394 . S
C188 C218 1.723 . S
H189 C212 0.947 . S
H190 C213 0.948 . S
H191 C219 0.982 . S
H192 C220 0.979 . S
H193 C220 0.980 . S
H194 C220 0.983 . S
H195 C219 0.979 . S
H196 C219 0.977 . S
C197 C185 1.453 . S
C197 H226 0.982 . S
C197 H227 0.979 . S
C197 H228 0.977 . S
C198 C185 1.684 . S
C198 H223 0.979 . S
C198 H224 0.980 . S
C198 H225 0.983 . S
C199 C200 1.391 . S
C199 C204 1.391 . S
C199 H229 0.948 . S
C200 C199 1.391 . S
C200 C201 1.391 . S
C201 C200 1.391 . S
C201 C202 1.392 . S
C201 H230 0.947 . S
C202 C201 1.392 . S
C202 C203 1.419 . S
C202 H231 0.948 . S
C203 C202 1.419 . S
C203 C204 1.391 . S
C203 C207 1.397 . S
C204 C199 1.391 . S
C204 C203 1.391 . S
C204 C205 1.399 . S
C205 C204 1.399 . S
C205 C206 1.396 . S
C205 C208 1.453 . S
C205 C209 1.684 . S
C206 C187 1.723 . S
C206 C205 1.396 . S
C206 C207 1.394 . S
C207 C203 1.397 . S
C207 C206 1.394 . S
C207 C217 1.723 . S
C208 C205 1.453 . S
C208 H232 0.982 . S
C208 H233 0.979 . S
C208 H234 0.977 . S
C209 C205 1.684 . S
C209 H235 0.979 . S
C209 H236 0.980 . S
C209 H237 0.983 . S
C210 H186 0.948 . S
C210 C211 1.391 . S
C210 C215 1.391 . S
C211 C210 1.391 . S
C211 C212 1.391 . S
C212 H189 0.947 . S
C212 C211 1.391 . S
C212 C213 1.392 . S
C213 H190 0.948 . S
C213 C212 1.392 . S
C213 C214 1.419 . S
C214 C213 1.419 . S
C214 C215 1.391 . S
C214 C218 1.397 . S
C215 C210 1.391 . S
C215 C214 1.391 . S
C215 C216 1.399 . S
C216 C215 1.399 . S
C216 C217 1.396 . S
C216 C219 1.453 . S
C216 C220 1.684 . S
C217 C207 1.723 . S
C217 C216 1.396 . S
C217 C218 1.394 . S
C218 C188 1.723 . S
C218 C214 1.397 . S
C218 C217 1.394 . S
C219 H191 0.982 . S
C219 H195 0.979 . S
C219 H196 0.977 . S
C219 C216 1.453 . S
C220 H192 0.979 . S
C220 H193 0.980 . S
C220 H194 0.983 . S
C220 C216 1.684 . S
H221 C239 0.948 . S
H222 C180 0.948 . S
H223 C198 0.979 . S
H224 C198 0.980 . S
H225 C198 0.983 . S
H226 C197 0.982 . S
H227 C197 0.979 . S
H228 C197 0.977 . S
H229 C199 0.948 . S
H230 C201 0.947 . S
H231 C202 0.948 . S
H232 C208 0.982 . S
H233 C208 0.979 . S
H234 C208 0.977 . S
H235 C209 0.979 . S
H236 C209 0.980 . S
H237 C209 0.983 . S
H238 C182 0.947 . S
C239 C182 1.392 . S
C239 C183 1.419 . S
C239 H221 0.948 . S
C240 C241 1.391 . S
C240 C244 1.391 . S
C240 H282 0.948 . S
C241 C240 1.391 . S
C241 C242 1.391 . S
C242 C241 1.391 . S
C242 H298 0.947 . S
C242 C299 1.392 . S
C243 C244 1.391 . S
C243 C247 1.397 . S
C243 C299 1.419 . S
C244 C240 1.391 . S
C244 C243 1.391 . S
C244 C245 1.399 . S
C245 C244 1.399 . S
C245 C248 1.396 . S
C245 C257 1.453 . S
C245 C258 1.684 . S
H246 C270 0.948 . S
C247 C243 1.397 . S
C247 C248 1.394 . S
C247 C266 1.723 . S
C248 C245 1.396 . S
C248 C247 1.394 . S
C248 C278 1.723 . S
H249 C272 0.947 . S
H250 C273 0.948 . S
H251 C279 0.982 . S
H252 C280 0.979 . S
H253 C280 0.980 . S
H254 C280 0.983 . S
H255 C279 0.979 . S
H256 C279 0.977 . S
C257 C245 1.453 . S
C257 H286 0.982 . S
C257 H287 0.979 . S
C257 H288 0.977 . S
C258 C245 1.684 . S
C258 H283 0.979 . S
C258 H284 0.980 . S
C258 H285 0.983 . S
C259 C260 1.391 . S
C259 C264 1.391 . S
C259 H289 0.948 . S
C260 C259 1.391 . S
C260 C261 1.391 . S
C261 C260 1.391 . S
C261 C262 1.392 . S
C261 H290 0.947 . S
C262 C261 1.392 . S
C262 C263 1.419 . S
C262 H291 0.948 . S
C263 C262 1.419 . S
C263 C264 1.391 . S
C263 C267 1.397 . S
C264 C259 1.391 . S
C264 C263 1.391 . S
C264 C265 1.399 . S
C265 C264 1.399 . S
C265 C266 1.396 . S
C265 C268 1.453 . S
C265 C269 1.684 . S
C266 C247 1.723 . S
C266 C265 1.396 . S
C266 C267 1.394 . S
C267 C263 1.397 . S
C267 C266 1.394 . S
C267 C277 1.723 . S
C268 C265 1.453 . S
C268 H292 0.982 . S
C268 H293 0.979 . S
C268 H294 0.977 . S
C269 C265 1.684 . S
C269 H295 0.979 . S
C269 H296 0.980 . S
C269 H297 0.983 . S
C270 H246 0.948 . S
C270 C271 1.391 . S
C270 C275 1.391 . S
C271 C270 1.391 . S
C271 C272 1.391 . S
C272 H249 0.947 . S
C272 C271 1.391 . S
C272 C273 1.392 . S
C273 H250 0.948 . S
C273 C272 1.392 . S
C273 C274 1.419 . S
C274 C273 1.419 . S
C274 C275 1.391 . S
C274 C278 1.397 . S
C275 C270 1.391 . S
C275 C274 1.391 . S
C275 C276 1.399 . S
C276 C275 1.399 . S
C276 C277 1.396 . S
C276 C279 1.453 . S
C276 C280 1.684 . S
C277 C267 1.723 . S
C277 C276 1.396 . S
C277 C278 1.394 . S
C278 C248 1.723 . S
C278 C274 1.397 . S
C278 C277 1.394 . S
C279 H251 0.982 . S
C279 H255 0.979 . S
C279 H256 0.977 . S
C279 C276 1.453 . S
C280 H252 0.979 . S
C280 H253 0.980 . S
C280 H254 0.983 . S
C280 C276 1.684 . S
H281 C299 0.948 . S
H282 C240 0.948 . S
H283 C258 0.979 . S
H284 C258 0.980 . S
H285 C258 0.983 . S
H286 C257 0.982 . S
H287 C257 0.979 . S
H288 C257 0.977 . S
H289 C259 0.948 . S
H290 C261 0.947 . S
H291 C262 0.948 . S
H292 C268 0.982 . S
H293 C268 0.979 . S
H294 C268 0.977 . S
H295 C269 0.979 . S
H296 C269 0.980 . S
H297 C269 0.983 . S
H298 C242 0.947 . S
C299 C242 1.392 . S
C299 C243 1.419 . S
C299 H281 0.948 . S
C300 C301 1.391 . S
C300 C304 1.391 . S
C300 H342 0.948 . S
C301 C300 1.391 . S
C301 C302 1.391 . S
C302 C301 1.391 . S
C302 H358 0.947 . S
C302 C359 1.392 . S
C303 C304 1.391 . S
C303 C307 1.397 . S
C303 C359 1.419 . S
C304 C300 1.391 . S
C304 C303 1.391 . S
C304 C305 1.399 . S
C305 C304 1.399 . S
C305 C308 1.396 . S
C305 C317 1.453 . S
C305 C318 1.684 . S
H306 C330 0.948 . S
C307 C303 1.397 . S
C307 C308 1.394 . S
C307 C326 1.723 . S
C308 C305 1.396 . S
C308 C307 1.394 . S
C308 C338 1.723 . S
H309 C332 0.947 . S
H310 C333 0.948 . S
H311 C339 0.982 . S
H312 C340 0.979 . S
H313 C340 0.980 . S
H314 C340 0.983 . S
H315 C339 0.979 . S
H316 C339 0.977 . S
C317 C305 1.453 . S
C317 H346 0.982 . S
C317 H347 0.979 . S
C317 H348 0.977 . S
C318 C305 1.684 . S
C318 H343 0.979 . S
C318 H344 0.980 . S
C318 H345 0.983 . S
C319 C320 1.391 . S
C319 C324 1.391 . S
C319 H349 0.948 . S
C320 C319 1.391 . S
C320 C321 1.391 . S
C321 C320 1.391 . S
C321 C322 1.392 . S
C321 H350 0.947 . S
C322 C321 1.392 . S
C322 C323 1.419 . S
C322 H351 0.948 . S
C323 C322 1.419 . S
C323 C324 1.391 . S
C323 C327 1.397 . S
C324 C319 1.391 . S
C324 C323 1.391 . S
C324 C325 1.399 . S
C325 C324 1.399 . S
C325 C326 1.396 . S
C325 C328 1.453 . S
C325 C329 1.684 . S
C326 C307 1.723 . S
C326 C325 1.396 . S
C326 C327 1.394 . S
C327 C323 1.397 . S
C327 C326 1.394 . S
C327 C337 1.723 . S
C328 C325 1.453 . S
C328 H352 0.982 . S
C328 H353 0.979 . S
C328 H354 0.977 . S
C329 C325 1.684 . S
C329 H355 0.979 . S
C329 H356 0.980 . S
C329 H357 0.983 . S
C330 H306 0.948 . S
C330 C331 1.391 . S
C330 C335 1.391 . S
C331 C330 1.391 . S
C331 C332 1.391 . S
C332 H309 0.947 . S
C332 C331 1.391 . S
C332 C333 1.392 . S
C333 H310 0.948 . S
C333 C332 1.392 . S
C333 C334 1.419 . S
C334 C333 1.419 . S
C334 C335 1.391 . S
C334 C338 1.397 . S
C335 C330 1.391 . S
C335 C334 1.391 . S
C335 C336 1.399 . S
C336 C335 1.399 . S
C336 C337 1.396 . S
C336 C339 1.453 . S
C336 C340 1.684 . S
C337 C327 1.723 . S
C337 C336 1.396 . S
C337 C338 1.394 . S
C338 C308 1.723 . S
C338 C334 1.397 . S
C338 C337 1.394 . S
C339 H311 0.982 . S
C339 H315 0.979 . S
C339 H316 0.977 . S
C339 C336 1.453 . S
C340 H312 0.979 . S
C340 H313 0.980 . S
C340 H314 0.983 . S
C340 C336 1.684 . S
H341 C359 0.948 . S
H342 C300 0.948 . S
H343 C318 0.979 . S
H344 C318 0.980 . S
H345 C318 0.983 . S
H346 C317 0.982 . S
H347 C317 0.979 . S
H348 C317 0.977 . S
H349 C319 0.948 . S
H350 C321 0.947 . S
H351 C322 0.948 . S
H352 C328 0.982 . S
H353 C328 0.979 . S
H354 C328 0.977 . S
H355 C329 0.979 . S
H356 C329 0.980 . S
H357 C329 0.983 . S
H358 C302 0.947 . S
C359 C302 1.392 . S
C359 C303 1.419 . S
C359 H341 0.948 . S
C360 C361 1.391 . S
C360 C364 1.391 . S
C360 H402 0.948 . S
C361 C360 1.391 . S
C361 C362 1.391 . S
C362 C361 1.391 . S
C362 H418 0.947 . S
C362 C419 1.392 . S
C363 C364 1.391 . S
C363 C367 1.397 . S
C363 C419 1.419 . S
C364 C360 1.391 . S
C364 C363 1.391 . S
C364 C365 1.399 . S
C365 C364 1.399 . S
C365 C368 1.396 . S
C365 C377 1.453 . S
C365 C378 1.684 . S
H366 C390 0.948 . S
C367 C363 1.397 . S
C367 C368 1.394 . S
C367 C386 1.723 . S
C368 C365 1.396 . S
C368 C367 1.394 . S
C368 C398 1.723 . S
H369 C392 0.947 . S
H370 C393 0.948 . S
H371 C399 0.982 . S
H372 C400 0.979 . S
H373 C400 0.980 . S
H374 C400 0.983 . S
H375 C399 0.979 . S
H376 C399 0.977 . S
C377 C365 1.453 . S
C377 H406 0.982 . S
C377 H407 0.979 . S
C377 H408 0.977 . S
C378 C365 1.684 . S
C378 H403 0.979 . S
C378 H404 0.980 . S
C378 H405 0.983 . S
C379 C380 1.391 . S
C379 C384 1.391 . S
C379 H409 0.948 . S
C380 C379 1.391 . S
C380 C381 1.391 . S
C381 C380 1.391 . S
C381 C382 1.392 . S
C381 H410 0.947 . S
C382 C381 1.392 . S
C382 C383 1.419 . S
C382 H411 0.948 . S
C383 C382 1.419 . S
C383 C384 1.391 . S
C383 C387 1.397 . S
C384 C379 1.391 . S
C384 C383 1.391 . S
C384 C385 1.399 . S
C385 C384 1.399 . S
C385 C386 1.396 . S
C385 C388 1.453 . S
C385 C389 1.684 . S
C386 C367 1.723 . S
C386 C385 1.396 . S
C386 C387 1.394 . S
C387 C383 1.397 . S
C387 C386 1.394 . S
C387 C397 1.723 . S
C388 C385 1.453 . S
C388 H412 0.982 . S
C388 H413 0.979 . S
C388 H414 0.977 . S
C389 C385 1.684 . S
C389 H415 0.979 . S
C389 H416 0.980 . S
C389 H417 0.983 . S
C390 H366 0.948 . S
C390 C391 1.391 . S
C390 C395 1.391 . S
C391 C390 1.391 . S
C391 C392 1.391 . S
C392 H369 0.947 . S
C392 C391 1.391 . S
C392 C393 1.392 . S
C393 H370 0.948 . S
C393 C392 1.392 . S
C393 C394 1.419 . S
C394 C393 1.419 . S
C394 C395 1.391 . S
C394 C398 1.397 . S
C395 C390 1.391 . S
C395 C394 1.391 . S
C395 C396 1.399 . S
C396 C395 1.399 . S
C396 C397 1.396 . S
C396 C399 1.453 . S
C396 C400 1.684 . S
C397 C387 1.723 . S
C397 C396 1.396 . S
C397 C398 1.394 . S
C398 C368 1.723 . S
C398 C394 1.397 . S
C398 C397 1.394 . S
C399 H371 0.982 . S
C399 H375 0.979 . S
C399 H376 0.977 . S
C399 C396 1.453 . S
C400 H372 0.979 . S
C400 H373 0.980 . S
C400 H374 0.983 . S
C400 C396 1.684 . S
H401 C419 0.948 . S
H402 C360 0.948 . S
H403 C378 0.979 . S
H404 C378 0.980 . S
H405 C378 0.983 . S
H406 C377 0.982 . S
H407 C377 0.979 . S
H408 C377 0.977 . S
H409 C379 0.948 . S
H410 C381 0.947 . S
H411 C382 0.948 . S
H412 C388 0.982 . S
H413 C388 0.979 . S
H414 C388 0.977 . S
H415 C389 0.979 . S
H416 C389 0.980 . S
H417 C389 0.983 . S
H418 C362 0.947 . S
C419 C362 1.392 . S
C419 C363 1.419 . S
C419 H401 0.948 . S
C420 C421 1.391 . S
C420 C424 1.391 . S
C420 H462 0.948 . S
C421 C420 1.391 . S
C421 C422 1.391 . S
C422 C421 1.391 . S
C422 H478 0.947 . S
C422 C479 1.392 . S
C423 C424 1.391 . S
C423 C427 1.397 . S
C423 C479 1.419 . S
C424 C420 1.391 . S
C424 C423 1.391 . S
C424 C425 1.399 . S
C425 C424 1.399 . S
C425 C428 1.396 . S
C425 C437 1.453 . S
C425 C438 1.684 . S
H426 C450 0.948 . S
C427 C423 1.397 . S
C427 C428 1.394 . S
C427 C446 1.723 . S
C428 C425 1.396 . S
C428 C427 1.394 . S
C428 C458 1.723 . S
H429 C452 0.947 . S
H430 C453 0.948 . S
H431 C459 0.982 . S
H432 C460 0.979 . S
H433 C460 0.980 . S
H434 C460 0.983 . S
H435 C459 0.979 . S
H436 C459 0.977 . S
C437 C425 1.453 . S
C437 H466 0.982 . S
C437 H467 0.979 . S
C437 H468 0.977 . S
C438 C425 1.684 . S
C438 H463 0.979 . S
C438 H464 0.980 . S
C438 H465 0.983 . S
C439 C440 1.391 . S
C439 C444 1.391 . S
C439 H469 0.948 . S
C440 C439 1.391 . S
C440 C441 1.391 . S
C441 C440 1.391 . S
C441 C442 1.392 . S
C441 H470 0.947 . S
C442 C441 1.392 . S
C442 C443 1.419 . S
C442 H471 0.948 . S
C443 C442 1.419 . S
C443 C444 1.391 . S
C443 C447 1.397 . S
C444 C439 1.391 . S
C444 C443 1.391 . S
C444 C445 1.399 . S
C445 C444 1.399 . S
C445 C446 1.396 . S
C445 C448 1.453 . S
C445 C449 1.684 . S
C446 C427 1.723 . S
C446 C445 1.396 . S
C446 C447 1.394 . S
C447 C443 1.397 . S
C447 C446 1.394 . S
C447 C457 1.723 . S
C448 C445 1.453 . S
C448 H472 0.982 . S
C448 H473 0.979 . S
C448 H474 0.977 . S
C449 C445 1.684 . S
C449 H475 0.979 . S
C449 H476 0.980 . S
C449 H477 0.983 . S
C450 H426 0.948 . S
C450 C451 1.391 . S
C450 C455 1.391 . S
C451 C450 1.391 . S
C451 C452 1.391 . S
C452 H429 0.947 . S
C452 C451 1.391 . S
C452 C453 1.392 . S
C453 H430 0.948 . S
C453 C452 1.392 . S
C453 C454 1.419 . S
C454 C453 1.419 . S
C454 C455 1.391 . S
C454 C458 1.397 . S
C455 C450 1.391 . S
C455 C454 1.391 . S
C455 C456 1.399 . S
C456 C455 1.399 . S
C456 C457 1.396 . S
C456 C459 1.453 . S
C456 C460 1.684 . S
C457 C447 1.723 . S
C457 C456 1.396 . S
C457 C458 1.394 . S
C458 C428 1.723 . S
C458 C454 1.397 . S
C458 C457 1.394 . S
C459 H431 0.982 . S
C459 H435 0.979 . S
C459 H436 0.977 . S
C459 C456 1.453 . S
C460 H432 0.979 . S
C460 H433 0.980 . S
C460 H434 0.983 . S
C460 C456 1.684 . S
H461 C479 0.948 . S
H462 C420 0.948 . S
H463 C438 0.979 . S
H464 C438 0.980 . S
H465 C438 0.983 . S
H466 C437 0.982 . S
H467 C437 0.979 . S
H468 C437 0.977 . S
H469 C439 0.948 . S
H470 C441 0.947 . S
H471 C442 0.948 . S
H472 C448 0.982 . S
H473 C448 0.979 . S
H474 C448 0.977 . S
H475 C449 0.979 . S
H476 C449 0.980 . S
H477 C449 0.983 . S
H478 C422 0.947 . S
C479 C422 1.392 . S
C479 C423 1.419 . S
C479 H461 0.948 . S
Dy480 O484 2.398 . S
Dy480 O485 2.491 . S
Dy480 O486 2.403 1_545 S
Dy480 O487 2.664 1_545 S
Dy480 O491 2.326 . S
Dy480 O495 2.310 1_455 S
Dy480 O496 2.351 1_445 S
C481 O492 1.185 . S
C481 O493 1.355 . S
C482 O484 1.185 . S
C482 O485 1.355 . S
Dy483 O487 2.310 1_655 S
Dy483 O490 2.351 1_665 S
Dy483 O492 2.398 . S
Dy483 O493 2.491 . S
Dy483 O494 2.403 1_565 S
Dy483 O495 2.664 1_565 S
Dy483 O497 2.326 . S
O484 Dy480 2.398 . S
O484 C482 1.185 . S
O485 Dy480 2.491 . S
O485 C482 1.355 . S
O486 Dy480 2.403 1_565 S
O486 C488 1.254 . S
O487 Dy480 2.664 1_565 S
O487 Dy483 2.310 1_455 S
O487 C488 1.268 . S
C488 O486 1.254 . S
C488 O487 1.268 . S
C489 O494 1.254 . S
C489 O495 1.268 . S
O490 Dy483 2.351 1_445 S
O490 C498 1.249 . S
O491 Dy480 2.326 . S
O491 C498 1.267 . S
O492 C481 1.185 . S
O492 Dy483 2.398 . S
O493 C481 1.355 . S
O493 Dy483 2.491 . S
O494 Dy483 2.403 1_545 S
O494 C489 1.254 . S
O495 Dy480 2.310 1_655 S
O495 Dy483 2.664 1_545 S
O495 C489 1.268 . S
O496 Dy480 2.351 1_665 S
O496 C499 1.249 . S
O497 Dy483 2.326 . S
O497 C499 1.267 . S
C498 O490 1.249 . S
C498 O491 1.267 . S
C499 O496 1.249 . S
C499 O497 1.267 . S
Dy500 O504 2.398 . S
Dy500 O505 2.491 . S
Dy500 O506 2.403 1_545 S
Dy500 O507 2.664 1_545 S
Dy500 O511 2.326 . S
Dy500 O515 2.310 1_554 S
Dy500 O516 2.351 1_544 S
C501 O512 1.185 . S
C501 O513 1.355 . S
C502 O504 1.185 . S
C502 O505 1.355 . S
Dy503 O507 2.330 1_556 S
Dy503 O510 2.334 1_566 S
Dy503 O512 2.402 . S
Dy503 O513 2.519 . S
Dy503 O514 2.379 1_565 S
Dy503 O515 2.650 1_565 S
Dy503 O517 2.339 . S
O504 Dy500 2.398 . S
O504 C502 1.185 . S
O505 Dy500 2.491 . S
O505 C502 1.355 . S
O506 Dy500 2.403 1_565 S
O506 C508 1.254 . S
O507 Dy500 2.664 1_565 S
O507 Dy503 2.330 1_554 S
O507 C508 1.268 . S
C508 O506 1.254 . S
C508 O507 1.268 . S
C509 O514 1.254 . S
C509 O515 1.268 . S
O510 Dy503 2.334 1_544 S
O510 C518 1.249 . S
O511 Dy500 2.326 . S
O511 C518 1.267 . S
O512 C501 1.185 . S
O512 Dy503 2.402 . S
O513 C501 1.355 . S
O513 Dy503 2.519 . S
O514 Dy503 2.379 1_545 S
O514 C509 1.254 . S
O515 Dy500 2.310 1_556 S
O515 Dy503 2.650 1_545 S
O515 C509 1.268 . S
O516 Dy500 2.351 1_566 S
O516 C519 1.249 . S
O517 Dy503 2.339 . S
O517 C519 1.267 . S
C518 O510 1.249 . S
C518 O511 1.267 . S
C519 O516 1.249 . S
C519 O517 1.267 . S
Dy520 O524 2.398 . S
Dy520 O525 2.491 . S
Dy520 O526 2.403 . S
Dy520 O527 2.664 . S
Dy520 O531 2.326 . S
Dy520 O535 2.310 . S
Dy520 O536 2.351 . S
C521 O532 1.185 . S
C521 O533 1.355 . S
C522 O524 1.185 . S
C522 O525 1.355 . S
Dy523 O527 2.310 . S
Dy523 O530 2.351 . S
Dy523 O532 2.398 . S
Dy523 O533 2.491 . S
Dy523 O534 2.403 . S
Dy523 O535 2.664 . S
Dy523 O537 2.326 . S
O524 Dy520 2.398 . S
O524 C522 1.185 . S
O525 Dy520 2.491 . S
O525 C522 1.355 . S
O526 Dy520 2.403 . S
O526 C528 1.254 . S
O527 Dy520 2.664 . S
O527 Dy523 2.310 . S
O527 C528 1.268 . S
C528 O526 1.254 . S
C528 O527 1.268 . S
C529 O534 1.254 . S
C529 O535 1.268 . S
O530 Dy523 2.351 . S
O530 C538 1.249 . S
O531 Dy520 2.326 . S
O531 C538 1.267 . S
O532 C521 1.185 . S
O532 Dy523 2.398 . S
O533 C521 1.355 . S
O533 Dy523 2.491 . S
O534 Dy523 2.403 . S
O534 C529 1.254 . S
O535 Dy520 2.310 . S
O535 Dy523 2.664 . S
O535 C529 1.268 . S
O536 Dy520 2.351 . S
O536 C539 1.249 . S
O537 Dy523 2.326 . S
O537 C539 1.267 . S
C538 O530 1.249 . S
C538 O531 1.267 . S
C539 O536 1.249 . S
C539 O537 1.267 . S
Dy540 O544 2.398 . S
Dy540 O545 2.491 . S
Dy540 O546 2.403 1_455 S
Dy540 O547 2.664 1_455 S
Dy540 O551 2.326 . S
Dy540 O555 2.310 1_554 S
Dy540 O556 2.351 1_454 S
C541 O552 1.185 . S
C541 O553 1.355 . S
C542 O544 1.185 . S
C542 O545 1.355 . S
Dy543 O547 2.310 1_556 S
Dy543 O550 2.351 1_656 S
Dy543 O552 2.398 . S
Dy543 O553 2.491 . S
Dy543 O554 2.403 1_655 S
Dy543 O555 2.664 1_655 S
Dy543 O557 2.326 . S
O544 Dy540 2.398 . S
O544 C542 1.185 . S
O545 Dy540 2.491 . S
O545 C542 1.355 . S
O546 Dy540 2.403 1_655 S
O546 C548 1.254 . S
O547 Dy540 2.664 1_655 S
O547 Dy543 2.310 1_554 S
O547 C548 1.268 . S
C548 O546 1.254 . S
C548 O547 1.268 . S
C549 O554 1.254 . S
C549 O555 1.268 . S
O550 Dy543 2.351 1_454 S
O550 C558 1.249 . S
O551 Dy540 2.326 . S
O551 C558 1.267 . S
O552 C541 1.185 . S
O552 Dy543 2.398 . S
O553 C541 1.355 . S
O553 Dy543 2.491 . S
O554 Dy543 2.403 1_455 S
O554 C549 1.254 . S
O555 Dy540 2.310 1_556 S
O555 Dy543 2.664 1_455 S
O555 C549 1.268 . S
O556 Dy540 2.351 1_656 S
O556 C559 1.249 . S
O557 Dy543 2.326 . S
O557 C559 1.267 . S
C558 O550 1.249 . S
C558 O551 1.267 . S
C559 O556 1.249 . S
C559 O557 1.267 . S
C560 C561 1.387 . S
C560 H564 0.950 . S
C560 C569 1.390 . S
C561 C560 1.387 . S
C561 C563 1.387 . S
H562 C569 0.950 . S
C563 C561 1.387 . S
C563 C565 1.390 . S
C563 H567 0.950 . S
H564 C560 0.950 . S
C565 C563 1.390 . S
C565 C566 1.387 . S
C565 H568 0.950 . S
C566 C565 1.387 . S
C566 C569 1.387 . S
H567 C563 0.950 . S
H568 C565 0.950 . S
C569 C560 1.390 . S
C569 H562 0.950 . S
C569 C566 1.387 . S
C570 C571 1.387 . S
C570 H574 0.950 . S
C570 C579 1.390 . S
C571 C570 1.387 . S
C571 C573 1.387 . S
H572 C579 0.950 . S
C573 C571 1.387 . S
C573 C575 1.390 . S
C573 H577 0.950 . S
H574 C570 0.950 . S
C575 C573 1.390 . S
C575 C576 1.387 . S
C575 H578 0.950 . S
C576 C575 1.387 . S
C576 C579 1.387 . S
H577 C573 0.950 . S
H578 C575 0.950 . S
C579 C570 1.390 . S
C579 H572 0.950 . S
C579 C576 1.387 . S
C580 C581 1.387 . S
C580 H584 0.950 . S
C580 C589 1.390 . S
C581 C580 1.387 . S
C581 C583 1.387 . S
H582 C589 0.950 . S
C583 C581 1.387 . S
C583 C585 1.390 . S
C583 H587 0.950 . S
H584 C580 0.950 . S
C585 C583 1.390 . S
C585 C586 1.387 . S
C585 H588 0.950 . S
C586 C585 1.387 . S
C586 C589 1.387 . S
H587 C583 0.950 . S
H588 C585 0.950 . S
C589 C580 1.390 . S
C589 H582 0.950 . S
C589 C586 1.387 . S
C590 C591 1.387 . S
C590 H594 0.950 . S
C590 C599 1.390 . S
C591 C590 1.387 . S
C591 C593 1.387 . S
H592 C599 0.950 . S
C593 C591 1.387 . S
C593 C595 1.390 . S
C593 H597 0.950 . S
H594 C590 0.950 . S
C595 C593 1.390 . S
C595 C596 1.387 . S
C595 H598 0.950 . S
C596 C595 1.387 . S
C596 C599 1.387 . S
H597 C593 0.950 . S
H598 C595 0.950 . S
C599 C590 1.390 . S
C599 H592 0.950 . S
C599 C596 1.387 . S
C600 C601 1.387 . S
C600 H604 0.950 . S
C600 C609 1.390 . S
C601 C600 1.387 . S
C601 C603 1.387 . S
H602 C609 0.950 . S
C603 C601 1.387 . S
C603 C605 1.390 . S
C603 H607 0.950 . S
H604 C600 0.950 . S
C605 C603 1.390 . S
C605 C606 1.387 . S
C605 H608 0.950 . S
C606 C605 1.387 . S
C606 C609 1.387 . S
H607 C603 0.950 . S
H608 C605 0.950 . S
C609 C600 1.390 . S
C609 H602 0.950 . S
C609 C606 1.387 . S
C610 C611 1.387 . S
C610 H614 0.950 . S
C610 C619 1.390 . S
C611 C610 1.387 . S
C611 C613 1.387 . S
H612 C619 0.950 . S
C613 C611 1.387 . S
C613 C615 1.390 . S
C613 H617 0.950 . S
H614 C610 0.950 . S
C615 C613 1.390 . S
C615 C616 1.387 . S
C615 H618 0.950 . S
C616 C615 1.387 . S
C616 C619 1.387 . S
H617 C613 0.950 . S
H618 C615 0.950 . S
C619 C610 1.390 . S
C619 H612 0.950 . S
C619 C616 1.387 . S
C620 C621 1.387 . S
C620 H624 0.950 . S
C620 C629 1.390 . S
C621 C620 1.387 . S
C621 C623 1.387 . S
H622 C629 0.950 . S
C623 C621 1.387 . S
C623 C625 1.390 . S
C623 H627 0.950 . S
H624 C620 0.950 . S
C625 C623 1.390 . S
C625 C626 1.387 . S
C625 H628 0.950 . S
C626 C625 1.387 . S
C626 C629 1.387 . S
H627 C623 0.950 . S
H628 C625 0.950 . S
C629 C620 1.390 . S
C629 H622 0.950 . S
C629 C626 1.387 . S
C630 C631 1.387 . S
C630 H634 0.950 . S
C630 C639 1.390 . S
C631 C630 1.387 . S
C631 C633 1.387 . S
H632 C639 0.950 . S
C633 C631 1.387 . S
C633 C635 1.390 . S
C633 H637 0.950 . S
H634 C630 0.950 . S
C635 C633 1.390 . S
C635 C636 1.387 . S
C635 H638 0.950 . S
C636 C635 1.387 . S
C636 C639 1.387 . S
H637 C633 0.950 . S
H638 C635 0.950 . S
C639 C630 1.390 . S
C639 H632 0.950 . S
C639 C636 1.387 . S
C640 C641 1.387 . S
C640 H644 0.950 . S
C640 C649 1.390 . S
C641 C640 1.387 . S
C641 C643 1.387 . S
H642 C649 0.950 . S
C643 C641 1.387 . S
C643 C645 1.390 . S
C643 H647 0.950 . S
H644 C640 0.950 . S
C645 C643 1.390 . S
C645 C646 1.387 . S
C645 H648 0.950 . S
C646 C645 1.387 . S
C646 C649 1.387 . S
H647 C643 0.950 . S
H648 C645 0.950 . S
C649 C640 1.390 . S
C649 H642 0.950 . S
C649 C646 1.387 . S
C650 C651 1.387 . S
C650 H654 0.950 . S
C650 C659 1.390 . S
C651 C650 1.387 . S
C651 C653 1.387 . S
H652 C659 0.950 1_554 S
C653 C651 1.387 . S
C653 C655 1.390 . S
C653 H657 0.950 . S
H654 C650 0.950 . S
C655 C653 1.390 . S
C655 C656 1.387 . S
C655 H658 0.950 . S
C656 C655 1.387 . S
C656 C659 1.387 . S
H657 C653 0.950 . S
H658 C655 0.950 . S
C659 C650 1.390 . S
C659 H652 0.950 1_556 S
C659 C656 1.387 . S
C660 C661 1.387 . S
C660 H664 0.950 . S
C660 C669 1.390 . S
C661 C660 1.387 . S
C661 C663 1.387 . S
H662 C669 0.950 . S
C663 C661 1.387 . S
C663 C665 1.390 . S
C663 H667 0.950 . S
H664 C660 0.950 . S
C665 C663 1.390 . S
C665 C666 1.387 . S
C665 H668 0.950 . S
C666 C665 1.387 . S
C666 C669 1.387 . S
H667 C663 0.950 . S
H668 C665 0.950 . S
C669 C660 1.390 . S
C669 H662 0.950 . S
C669 C666 1.387 . S
C670 C671 1.387 . S
C670 H674 0.950 . S
C670 C679 1.390 . S
C671 C670 1.387 . S
C671 C673 1.387 . S
H672 C679 0.950 . S
C673 C671 1.387 . S
C673 C675 1.390 . S
C673 H677 0.950 . S
H674 C670 0.950 . S
C675 C673 1.390 . S
C675 C676 1.387 . S
C675 H678 0.950 . S
C676 C675 1.387 . S
C676 C679 1.387 . S
H677 C673 0.950 . S
H678 C675 0.950 . S
C679 C670 1.390 . S
C679 H672 0.950 . S
C679 C676 1.387 . S
C680 C681 1.387 . S
C680 H684 0.950 . S
C680 C689 1.390 . S
C681 C680 1.387 . S
C681 C683 1.387 . S
H682 C689 0.950 . S
C683 C681 1.387 . S
C683 C685 1.390 . S
C683 H687 0.950 . S
H684 C680 0.950 . S
C685 C683 1.390 . S
C685 C686 1.387 . S
C685 H688 0.950 . S
C686 C685 1.387 . S
C686 C689 1.387 . S
H687 C683 0.950 . S
H688 C685 0.950 . S
C689 C680 1.390 . S
C689 H682 0.950 . S
C689 C686 1.387 . S
C690 C691 1.387 . S
C690 H694 0.950 . S
C690 C699 1.390 . S
C691 C690 1.387 . S
C691 C693 1.387 . S
H692 C699 0.950 . S
C693 C691 1.387 . S
C693 C695 1.390 . S
C693 H697 0.950 . S
H694 C690 0.950 . S
C695 C693 1.390 . S
C695 C696 1.387 . S
C695 H698 0.950 . S
C696 C695 1.387 . S
C696 C699 1.387 . S
H697 C693 0.950 . S
H698 C695 0.950 . S
C699 C690 1.390 . S
C699 H692 0.950 . S
C699 C696 1.387 . S
C700 C701 1.387 . S
C700 H704 0.950 . S
C700 C709 1.390 . S
C701 C700 1.387 . S
C701 C703 1.387 . S
H702 C709 0.950 . S
C703 C701 1.387 . S
C703 C705 1.390 . S
C703 H707 0.950 . S
H704 C700 0.950 . S
C705 C703 1.390 . S
C705 C706 1.387 . S
C705 H708 0.950 . S
C706 C705 1.387 . S
C706 C709 1.387 . S
H707 C703 0.950 . S
H708 C705 0.950 . S
C709 C700 1.390 . S
C709 H702 0.950 . S
C709 C706 1.387 . S
C710 C711 1.387 . S
C710 H714 0.950 . S
C710 C719 1.390 . S
C711 C710 1.387 . S
C711 C713 1.387 . S
H712 C719 0.950 . S
C713 C711 1.387 . S
C713 C715 1.390 . S
C713 H717 0.950 . S
H714 C710 0.950 . S
C715 C713 1.390 . S
C715 C716 1.387 . S
C715 H718 0.950 . S
C716 C715 1.387 . S
C716 C719 1.387 . S
H717 C713 0.950 . S
H718 C715 0.950 . S
C719 C710 1.390 . S
C719 H712 0.950 . S
C719 C716 1.387 . S
C720 C721 1.387 . S
C720 H724 0.950 . S
C720 C729 1.390 . S
C721 C720 1.387 . S
C721 C723 1.387 . S
H722 C729 0.950 . S
C723 C721 1.387 . S
C723 C725 1.390 . S
C723 H727 0.950 . S
H724 C720 0.950 . S
C725 C723 1.390 . S
C725 C726 1.387 . S
C725 H728 0.950 . S
C726 C725 1.387 . S
C726 C729 1.387 . S
H727 C723 0.950 . S
H728 C725 0.950 . S
C729 C720 1.390 . S
C729 H722 0.950 . S
C729 C726 1.387 . S
C730 C731 1.387 . S
C730 H734 0.950 . S
C730 C739 1.390 . S
C731 C730 1.387 . S
C731 C733 1.387 . S
H732 C739 0.950 . S
C733 C731 1.387 . S
C733 C735 1.390 . S
C733 H737 0.950 . S
H734 C730 0.950 . S
C735 C733 1.390 . S
C735 C736 1.387 . S
C735 H738 0.950 . S
C736 C735 1.387 . S
C736 C739 1.387 . S
H737 C733 0.950 . S
H738 C735 0.950 . S
C739 C730 1.390 . S
C739 H732 0.950 . S
C739 C736 1.387 . S
C740 C741 1.387 . S
C740 H744 0.950 . S
C740 C749 1.390 . S
C741 C740 1.387 . S
C741 C743 1.387 . S
H742 C749 0.950 . S
C743 C741 1.387 . S
C743 C745 1.390 . S
C743 H747 0.950 . S
H744 C740 0.950 . S
C745 C743 1.390 . S
C745 C746 1.387 . S
C745 H748 0.950 . S
C746 C745 1.387 . S
C746 C749 1.387 . S
H747 C743 0.950 . S
H748 C745 0.950 . S
C749 C740 1.390 . S
C749 H742 0.950 . S
C749 C746 1.387 . S
C750 C751 1.387 . S
C750 H754 0.950 . S
C750 C759 1.390 . S
C751 C750 1.387 . S
C751 C753 1.387 . S
H752 C759 0.950 . S
C753 C751 1.387 . S
C753 C755 1.390 . S
C753 H757 0.950 . S
H754 C750 0.950 . S
C755 C753 1.390 . S
C755 C756 1.387 . S
C755 H758 0.950 . S
C756 C755 1.387 . S
C756 C759 1.387 . S
H757 C753 0.950 . S
H758 C755 0.950 . S
C759 C750 1.390 . S
C759 H752 0.950 . S
C759 C756 1.387 . S
C760 C761 1.387 . S
C760 H764 0.950 . S
C760 C769 1.390 . S
C761 C760 1.387 . S
C761 C763 1.387 . S
H762 C769 0.950 . S
C763 C761 1.387 . S
C763 C765 1.390 . S
C763 H767 0.950 . S
H764 C760 0.950 . S
C765 C763 1.390 . S
C765 C766 1.387 . S
C765 H768 0.950 . S
C766 C765 1.387 . S
C766 C769 1.387 . S
H767 C763 0.950 . S
H768 C765 0.950 . S
C769 C760 1.390 . S
C769 H762 0.950 . S
C769 C766 1.387 . S
C770 C771 1.387 . S
C770 H774 0.950 . S
C770 C779 1.390 . S
C771 C770 1.387 . S
C771 C773 1.387 . S
H772 C779 0.950 . S
C773 C771 1.387 . S
C773 C775 1.390 . S
C773 H777 0.950 . S
H774 C770 0.950 . S
C775 C773 1.390 . S
C775 C776 1.387 . S
C775 H778 0.950 1_554 S
C776 C775 1.387 . S
C776 C779 1.387 . S
H777 C773 0.950 . S
H778 C775 0.950 1_556 S
C779 C770 1.390 . S
C779 H772 0.950 . S
C779 C776 1.387 . S
C780 C781 1.387 . S
C780 H784 0.950 . S
C780 C789 1.390 . S
C781 C780 1.387 . S
C781 C783 1.387 . S
H782 C789 0.950 . S
C783 C781 1.387 . S
C783 C785 1.390 . S
C783 H787 0.950 . S
H784 C780 0.950 . S
C785 C783 1.390 . S
C785 C786 1.387 . S
C785 H788 0.950 . S
C786 C785 1.387 . S
C786 C789 1.387 . S
H787 C783 0.950 . S
H788 C785 0.950 . S
C789 C780 1.390 . S
C789 H782 0.950 . S
C789 C786 1.387 . S
C790 C791 1.387 . S
C790 H794 0.950 . S
C790 C799 1.390 . S
C791 C790 1.387 . S
C791 C793 1.387 . S
H792 C799 0.950 . S
C793 C791 1.387 . S
C793 C795 1.390 . S
C793 H797 0.950 . S
H794 C790 0.950 . S
C795 C793 1.390 . S
C795 C796 1.387 . S
C795 H798 0.950 . S
C796 C795 1.387 . S
C796 C799 1.387 . S
H797 C793 0.950 . S
H798 C795 0.950 . S
C799 C790 1.390 . S
C799 H792 0.950 . S
C799 C796 1.387 . S
C561 C1 1.463 . S
C566 C482 1.604 . S
C571 C80 1.294 . S
C576 C501 1.321 . S
C586 C538 1.762 . S
C581 C140 1.748 . S
C591 C211 1.716 . S
C596 C548 1.695 . S
C606 C518 2.026 . S
C601 C31 1.819 . S
C616 C488 1.387 . S
C611 C61 1.395 . S
C626 C559 1.526 . S
C621 C151 1.541 . S
C636 C529 1.470 . S
C631 C200 1.457 . S
C641 C20 1.669 . S
C646 C542 1.785 . S
C656 C509 1.702 . S
C651 C121 1.748 . S
C661 C181 1.711 . S
C666 C499 1.759 . S
C671 C91 1.280 . S
C676 C521 1.293 . S
C686 C481 1.604 . S
C681 C260 1.486 . S
C691 C320 1.295 . S
C696 C502 1.315 . S
C701 C361 1.762 . S
C706 C539 1.761 . S
C711 C451 1.714 . S
C716 C549 1.695 . S
C721 C271 1.884 . S
C726 C519 2.027 . S
C736 C489 1.386 . S
C731 C301 1.399 . S
C746 C558 1.528 . S
C741 C380 1.527 . S
C756 C528 1.470 . S
C751 C440 1.456 . S
C761 C241 1.618 . S
C766 C541 1.792 . S
C776 C508 1.702 . S
C771 C391 1.753 . S
C786 C498 1.758 . S
C781 C421 1.710 . S
C791 C331 1.278 . S
C796 C522 1.293 . S
