# Generated by pormake.
# Topology pyr, (3,6)-cn, num edge types: 1
# Building blocks:
#     Node 0, Type 0, BuildingBlock: CUQRIR_clean_linker_1, # of connection points: 3
#     Node 1, Type 0, BuildingBlock: CUQRIR_clean_linker_1, # of connection points: 3
#     Node 2, Type 0, BuildingBlock: CUQRIR_clean_linker_1, # of connection points: 3
#     Node 3, Type 0, BuildingBlock: CUQRIR_clean_linker_1, # of connection points: 3
#     Node 4, Type 0, BuildingBlock: CUQRIR_clean_linker_1, # of connection points: 3
#     Node 5, Type 0, BuildingBlock: CUQRIR_clean_linker_1, # of connection points: 3
#     Node 6, Type 0, BuildingBlock: CUQRIR_clean_linker_1, # of connection points: 3
#     Node 7, Type 0, BuildingBlock: CUQRIR_clean_linker_1, # of connection points: 3
#     Node 8, Type 1, BuildingBlock: LEVNOQ01_clean_sbu_1, # of connection points: 6
#     Node 9, Type 1, BuildingBlock: LEVNOQ01_clean_sbu_1, # of connection points: 6
#     Node 10, Type 1, BuildingBlock: LEVNOQ01_clean_sbu_1, # of connection points: 6
#     Node 11, Type 1, BuildingBlock: LEVNOQ01_clean_sbu_1, # of connection points: 6
#     Edge 12, Type (0, 1), BuildingBlock: XIVTED_clean_linker_0, # of connection points: 2
#     Edge 13, Type (0, 1), BuildingBlock: XIVTED_clean_linker_0, # of connection points: 2
#     Edge 14, Type (0, 1), BuildingBlock: XIVTED_clean_linker_0, # of connection points: 2
#     Edge 15, Type (0, 1), BuildingBlock: XIVTED_clean_linker_0, # of connection points: 2
#     Edge 16, Type (0, 1), BuildingBlock: XIVTED_clean_linker_0, # of connection points: 2
#     Edge 17, Type (0, 1), BuildingBlock: XIVTED_clean_linker_0, # of connection points: 2
#     Edge 18, Type (0, 1), BuildingBlock: XIVTED_clean_linker_0, # of connection points: 2
#     Edge 19, Type (0, 1), BuildingBlock: XIVTED_clean_linker_0, # of connection points: 2
#     Edge 20, Type (0, 1), BuildingBlock: XIVTED_clean_linker_0, # of connection points: 2
#     Edge 21, Type (0, 1), BuildingBlock: XIVTED_clean_linker_0, # of connection points: 2
#     Edge 22, Type (0, 1), BuildingBlock: XIVTED_clean_linker_0, # of connection points: 2
#     Edge 23, Type (0, 1), BuildingBlock: XIVTED_clean_linker_0, # of connection points: 2
#     Edge 24, Type (0, 1), BuildingBlock: XIVTED_clean_linker_0, # of connection points: 2
#     Edge 25, Type (0, 1), BuildingBlock: XIVTED_clean_linker_0, # of connection points: 2
#     Edge 26, Type (0, 1), BuildingBlock: XIVTED_clean_linker_0, # of connection points: 2
#     Edge 27, Type (0, 1), BuildingBlock: XIVTED_clean_linker_0, # of connection points: 2
#     Edge 28, Type (0, 1), BuildingBlock: XIVTED_clean_linker_0, # of connection points: 2
#     Edge 29, Type (0, 1), BuildingBlock: XIVTED_clean_linker_0, # of connection points: 2
#     Edge 30, Type (0, 1), BuildingBlock: XIVTED_clean_linker_0, # of connection points: 2
#     Edge 31, Type (0, 1), BuildingBlock: XIVTED_clean_linker_0, # of connection points: 2
#     Edge 32, Type (0, 1), BuildingBlock: XIVTED_clean_linker_0, # of connection points: 2
#     Edge 33, Type (0, 1), BuildingBlock: XIVTED_clean_linker_0, # of connection points: 2
#     Edge 34, Type (0, 1), BuildingBlock: XIVTED_clean_linker_0, # of connection points: 2
#     Edge 35, Type (0, 1), BuildingBlock: XIVTED_clean_linker_0, # of connection points: 2
# Relax obj value: 0.104
# Max RMSD: 0.218
# Mean RMSD: 0.159
data_MOF--net-pry--node1-LEVNOQ01_clean_sbu_1--node2-CUQRIR_clean_linker_1--edge1-XIVTED_clean_linker_0
_symmetry_space_group_name_H-M    P1
_symmetry_Int_Tables_number       1
_symmetry_cell_setting            triclinic
loop_
_symmetry_equiv_pos_as_xyz
'x, y, z'
_cell_length_a     34.601241
_cell_length_b     33.229347
_cell_length_c     32.464606
_cell_angle_alpha  90.496576
_cell_angle_beta   93.519457
_cell_angle_gamma 97.912713
loop_
_atom_site_label
_atom_site_type_symbol
_atom_site_fract_x
_atom_site_fract_y
_atom_site_fract_z
_atom_type_partial_charge
C0 C 0.15037 0.20516 0.15855 0.0
N1 N 0.17288 0.17544 0.16668 0.0
N2 N 0.1609 0.22522 0.12404 0.0
C3 C 0.12074 0.2174 0.18667 0.0
C4 C 0.19105 0.20706 0.11165 0.0
N5 N 0.19884 0.17698 0.13782 0.0
C6 C 0.21054 0.21669 0.07203 0.0
H7 H 0.09172 0.19998 0.17762 0.0
H8 H 0.11843 0.25027 0.18425 0.0
H9 H 0.12859 0.2108 0.21932 0.0
H10 H 0.23619 0.24037 0.07821 0.0
H11 H 0.19016 0.22866 0.04901 0.0
H12 H 0.22061 0.1893 0.05889 0.0
C13 C 0.38057 0.87105 0.60346 0.0
N14 N 0.37467 0.89972 0.6311 0.0
N15 N 0.41432 0.85642 0.61334 0.0
C16 C 0.35357 0.85783 0.56616 0.0
C17 C 0.42921 0.87774 0.64788 0.0
N18 N 0.4051 0.90458 0.6586 0.0
C19 C 0.46506 0.86952 0.67319 0.0
H20 H 0.33021 0.83387 0.5753 0.0
H21 H 0.36955 0.84535 0.54149 0.0
H22 H 0.33949 0.88364 0.55379 0.0
H23 H 0.48988 0.89288 0.66644 0.0
H24 H 0.47294 0.83915 0.66581 0.0
H25 H 0.46041 0.87151 0.70663 0.0
C26 C 0.65104 0.37012 0.83503 0.0
N27 N 0.65999 0.36386 0.87533 0.0
N28 N 0.67065 0.40573 0.823 0.0
C29 C 0.6197 0.34383 0.8089 0.0
C30 C 0.69104 0.42136 0.8578 0.0
N31 N 0.6841 0.39607 0.88981 0.0
C32 C 0.7199 0.45973 0.85979 0.0
H33 H 0.63339 0.32135 0.79134 0.0
H34 H 0.60441 0.36235 0.78667 0.0
H35 H 0.59774 0.32705 0.82824 0.0
H36 H 0.70551 0.48507 0.87136 0.0
H37 H 0.73044 0.46759 0.82889 0.0
H38 H 0.74534 0.4564 0.8814 0.0
C39 C 0.87992 0.57809 0.39986 0.0
N40 N 0.91231 0.60394 0.39226 0.0
N41 N 0.86217 0.59099 0.43247 0.0
C42 C 0.86357 0.54138 0.37357 0.0
C43 C 0.88618 0.62481 0.44588 0.0
N44 N 0.9169 0.63253 0.42178 0.0
C45 C 0.87593 0.65435 0.47764 0.0
H46 H 0.84252 0.55002 0.3492 0.0
H47 H 0.84766 0.51787 0.39273 0.0
H48 H 0.8873 0.52861 0.35857 0.0
H49 H 0.89668 0.6547 0.50511 0.0
H50 H 0.84591 0.6462 0.48776 0.0
H51 H 0.87887 0.68551 0.46507 0.0
C52 C 0.86019 0.89794 0.91661 0.0
N53 N 0.88517 0.88762 0.88894 0.0
N54 N 0.83796 0.92528 0.90056 0.0
C55 C 0.85535 0.87882 0.95826 0.0
C56 C 0.8501 0.93105 0.8619 0.0
N57 N 0.87837 0.90777 0.85452 0.0
C58 C 0.83317 0.9583 0.83089 0.0
H59 H 0.84787 0.84538 0.95434 0.0
H60 H 0.83261 0.89091 0.97541 0.0
H61 H 0.88326 0.88496 0.97732 0.0
H62 H 0.82137 0.98345 0.84625 0.0
H63 H 0.80884 0.94022 0.81217 0.0
H64 H 0.85558 0.9714 0.80994 0.0
C65 C 0.69611 0.17329 0.44545 0.0
N66 N 0.70521 0.14399 0.41983 0.0
N67 N 0.66079 0.18422 0.43349 0.0
C68 C 0.72214 0.19196 0.48136 0.0
C69 C 0.64889 0.16061 0.39963 0.0
N70 N 0.67565 0.13605 0.39152 0.0
C71 C 0.61254 0.1638 0.37246 0.0
H72 H 0.70536 0.207 0.50352 0.0
H73 H 0.74506 0.21488 0.46958 0.0
H74 H 0.73696 0.16868 0.49776 0.0
H75 H 0.60504 0.19519 0.37305 0.0
H76 H 0.58783 0.14297 0.38396 0.0
H77 H 0.6162 0.15496 0.34005 0.0
C78 C 0.33094 0.64791 0.14582 0.0
N79 N 0.35595 0.66925 0.17462 0.0
N80 N 0.32951 0.66861 0.11003 0.0
C81 C 0.3067 0.60762 0.15302 0.0
C82 C 0.35487 0.70291 0.11803 0.0
N83 N 0.37112 0.7032 0.15696 0.0
C84 C 0.36225 0.73741 0.0885 0.0
H85 H 0.30032 0.58932 0.12419 0.0
H86 H 0.27844 0.61308 0.16485 0.0
H87 H 0.3219 0.58962 0.17584 0.0
H88 H 0.34475 0.7616 0.09656 0.0
H89 H 0.35396 0.72706 0.05618 0.0
H90 H 0.39353 0.75074 0.09116 0.0
C91 C 0.08832 0.3974 0.63406 0.0
N92 N 0.11333 0.39206 0.60459 0.0
N93 N 0.10228 0.43037 0.65805 0.0
C94 C 0.05365 0.36687 0.64359 0.0
C95 C 0.13668 0.44464 0.64236 0.0
N96 N 0.14377 0.4211 0.61024 0.0
C97 C 0.16374 0.48146 0.65855 0.0
H98 H 0.02703 0.37525 0.62693 0.0
H99 H 0.04904 0.36642 0.6771 0.0
H100 H 0.05747 0.33571 0.63369 0.0
H101 H 0.18568 0.47193 0.68145 0.0
H102 H 0.14727 0.50319 0.67376 0.0
H103 H 0.17963 0.49677 0.63305 0.0
O104 O 0.04333 0.02181 0.62263 0.0
Mg105 Mg 0.07969 0.06033 0.58681 0.0
O106 O 0.01404 0.98523 0.56932 0.0
Mg107 Mg 0.04126 0.01607 0.50837 0.0
O108 O 0.05484 0.08196 0.53512 0.0
O109 O 0.07789 0.12078 0.59049 0.0
O110 O 0.07248 0.05298 0.45098 0.0
O111 O 0.97858 0.03371 0.49254 0.0
Mg112 Mg 0.02427 0.99275 0.43896 0.0
O113 O 0.02533 0.94644 0.4808 0.0
O114 O 0.07497 0.00383 0.40713 0.0
O115 O 0.97821 0.028 0.42567 0.0
O116 O 1.00058 0.93947 0.4151 0.0
C117 C 0.13443 0.01366 0.54945 0.0
C118 C 0.01915 0.99222 0.60841 0.0
C119 C 0.06321 0.11757 0.5529 0.0
C120 C 0.08652 0.03972 0.41873 0.0
C121 C 0.96219 0.03853 0.45713 0.0
C122 C 0.01075 0.92339 0.44919 0.0
O123 O 0.133 0.04284 0.57425 0.0
O124 O 0.10433 0.99829 0.52672 0.0
O125 O 0.46226 0.07608 0.10868 0.0
Mg126 Mg 0.51527 0.08727 0.07874 0.0
O127 O 0.44586 0.03603 0.0553 0.0
Mg128 Mg 0.50938 0.02467 0.03709 0.0
O129 O 0.52695 0.09368 0.01699 0.0
O130 O 0.51363 0.14364 0.05867 0.0
O131 O 0.57104 0.01062 0.01519 0.0
O132 O 0.48082 0.0167 0.96785 0.0
Mg133 Mg 0.50114 0.93231 1.00163 0.0
O134 O 0.49084 0.95925 0.05483 0.0
O135 O 0.56176 0.94523 0.99607 0.0
O136 O 0.46444 0.95064 0.9539 0.0
O137 O 0.47948 0.89232 0.04556 0.0
C138 C 0.5652 0.05365 0.12619 0.0
C139 C 0.43594 0.05491 0.08643 0.0
C140 C 0.52468 0.13197 0.02399 0.0
C141 C 0.58407 0.97868 1.00232 0.0
C142 C 0.46416 0.98741 0.94416 0.0
C143 C 0.4797 0.92372 0.06922 0.0
O144 O 0.56603 0.08993 0.11551 0.0
O145 O 0.54142 0.0261 0.10654 0.0
O146 O 0.51159 0.6033 0.54157 0.0
Mg147 Mg 0.49162 0.54464 0.55885 0.0
O148 O 0.47776 0.57534 0.48759 0.0
Mg149 Mg 0.49603 0.50778 0.4881 0.0
O150 O 0.53103 0.50585 0.55352 0.0
O151 O 0.52007 0.53743 0.61265 0.0
O152 O 0.51448 0.44179 0.48635 0.0
O153 O 0.55549 0.53371 0.46575 0.0
Mg154 Mg 0.50337 0.47106 0.4004 0.0
O155 O 0.46614 0.50693 0.42283 0.0
O156 O 0.49875 0.41249 0.42526 0.0
O157 O 0.56012 0.50634 0.40382 0.0
O158 O 0.46058 0.48378 0.35784 0.0
C159 C 0.41625 0.49262 0.53841 0.0
C160 C 0.49251 0.60728 0.50818 0.0
C161 C 0.53972 0.51448 0.59248 0.0
C162 C 0.51117 0.41054 0.46251 0.0
C163 C 0.57457 0.52933 0.43408 0.0
C164 C 0.44931 0.50639 0.38599 0.0
O165 O 0.43184 0.52141 0.56229 0.0
O166 O 0.43529 0.48025 0.50963 0.0
O167 O 0.07381 0.5136 0.05438 0.0
Mg168 Mg 0.04661 0.56844 0.05591 0.0
O169 O 0.01632 0.48086 0.03506 0.0
Mg170 Mg 0.99505 0.54058 0.01236 0.0
O171 O 0.99578 0.56744 0.08316 0.0
O172 O 0.0551 0.58784 0.11449 0.0
O173 O 0.97654 0.60503 0.98895 0.0
O174 O 0.93242 0.51224 0.03471 0.0
Mg175 Mg 0.93897 0.52947 0.9484 0.0
O176 O 0.99211 0.50946 0.94605 0.0
O177 O 0.93695 0.58924 0.9339 0.0
O178 O 0.89398 0.49883 0.97848 0.0
O179 O 0.94284 0.49786 0.89697 0.0
C180 C 0.07567 0.59947 0.99212 0.0
C181 C 0.05176 0.48012 0.04767 0.0
C182 C 0.01766 0.58135 0.11581 0.0
C183 C 0.956 0.61594 0.95777 0.0
C184 C 0.89948 0.49755 0.017 0.0
C185 C 0.9782 0.49468 0.91 0.0
O186 O 0.06373 0.62012 0.02001 0.0
O187 O 0.05844 0.56333 0.98662 0.0
H188 H 0.22744 0.16708 0.22895 0.0
H189 H 0.06954 0.1108 0.3855 0.0
H190 H 0.10879 0.12547 0.18464 0.0
H191 H 0.15335 0.02622 0.3842 0.0
H192 H 0.09674 0.14213 0.32314 0.0
H193 H 0.21319 0.13589 0.29645 0.0
C194 C 0.19884 0.15036 0.23311 0.0
C195 C 0.16914 0.14871 0.20145 0.0
C196 C 0.10984 0.1175 0.33744 0.0
C197 C 0.15231 0.11542 0.27819 0.0
C198 C 0.09471 0.10001 0.37317 0.0
C199 C 0.10956 0.06624 0.39016 0.0
C200 C 0.1405 0.10166 0.3193 0.0
C201 C 0.14144 0.05252 0.37213 0.0
C202 C 0.19062 0.13319 0.27156 0.0
C203 C 0.1323 0.12739 0.20845 0.0
N204 N 0.15586 0.07018 0.3375 0.0
N205 N 0.12463 0.11241 0.24632 0.0
H206 H 0.46615 0.96017 0.68547 0.0
H207 H 0.39151 0.95955 0.91185 0.0
H208 H 0.35272 0.90337 0.71705 0.0
H209 H 0.50118 0.02627 0.88065 0.0
H210 H 0.37231 0.94904 0.83854 0.0
H211 H 0.47607 0.99334 0.75397 0.0
C212 C 0.44312 0.95533 0.70674 0.0
C213 C 0.40866 0.92902 0.69591 0.0
C214 C 0.40016 0.96696 0.84747 0.0
C215 C 0.41962 0.96651 0.77416 0.0
C216 C 0.41089 0.97339 0.88938 0.0
C217 C 0.44772 0.99425 0.90223 0.0
C218 C 0.42688 0.9806 0.81804 0.0
C219 C 0.47222 0.01067 0.87194 0.0
C220 C 0.44868 0.97426 0.74572 0.0
C221 C 0.37952 0.92374 0.72421 0.0
N222 N 0.4617 0.00279 0.83119 0.0
N223 N 0.38584 0.94189 0.76221 0.0
H224 H 0.67411 0.37153 0.74761 0.0
H225 H 0.59409 0.56069 0.64091 0.0
H226 H 0.65688 0.48247 0.80914 0.0
H227 H 0.56189 0.43812 0.59394 0.0
H228 H 0.64094 0.53684 0.69082 0.0
H229 H 0.65433 0.40026 0.68124 0.0
C230 C 0.66689 0.4022 0.7469 0.0
C231 C 0.66647 0.42459 0.78366 0.0
C232 C 0.62423 0.51523 0.6691 0.0
C233 C 0.64531 0.45775 0.70862 0.0
C234 C 0.59759 0.52877 0.64069 0.0
C235 C 0.57372 0.50101 0.61427 0.0
C236 C 0.62647 0.47355 0.67149 0.0
C237 C 0.57966 0.4602 0.61436 0.0
C238 C 0.65586 0.41853 0.70924 0.0
C239 C 0.65777 0.4644 0.78144 0.0
N240 N 0.60501 0.44735 0.64347 0.0
N241 N 0.64722 0.47962 0.74453 0.0
H242 H 0.98845 0.60443 0.37688 0.0
H243 H 0.94002 0.57287 0.134 0.0
H244 H 0.87455 0.61139 0.31847 0.0
H245 H 0.05727 0.60599 0.18864 0.0
H246 H 0.9147 0.58265 0.20188 0.0
H247 H 0.01466 0.60216 0.30811 0.0
C248 C 0.96919 0.60569 0.34949 0.0
C249 C 0.92935 0.60705 0.3529 0.0
C250 C 0.94596 0.58803 0.19875 0.0
C251 C 0.95836 0.60401 0.27483 0.0
C252 C 0.96037 0.58241 0.16007 0.0
C253 C 1.00078 0.58863 0.15554 0.0
C254 C 0.97222 0.59951 0.23303 0.0
C255 C 0.02586 0.60081 0.19051 0.0
C256 C 0.98392 0.60429 0.31039 0.0
C257 C 0.90529 0.60906 0.31676 0.0
N258 N 0.0112 0.60559 0.22773 0.0
N259 N 0.92003 0.60696 0.27918 0.0
H260 H 0.19557 0.0945 0.14182 0.0
H261 H 0.38007 0.07318 0.02933 0.0
H262 H 0.27466 0.2049 0.12823 0.0
H263 H 0.3994 0.04987 0.15881 0.0
H264 H 0.31819 0.09773 0.044 0.0
H265 H 0.24964 0.05503 0.12922 0.0
C266 C 0.22429 0.11036 0.13664 0.0
C267 C 0.23061 0.15301 0.13556 0.0
C268 C 0.33544 0.08582 0.06883 0.0
C269 C 0.29148 0.10847 0.12001 0.0
C270 C 0.3705 0.07158 0.06051 0.0
C271 C 0.39463 0.0591 0.09288 0.0
C272 C 0.32416 0.08669 0.10958 0.0
C273 C 0.38145 0.059 0.133 0.0
C274 C 0.25484 0.08792 0.12911 0.0
C275 C 0.26836 0.17211 0.1284 0.0
N276 N 0.34719 0.0729 0.14034 0.0
N277 N 0.29719 0.14977 0.12037 0.0
H278 H 0.30193 0.86715 0.64574 0.0
H279 H 0.2078 0.05343 0.54784 0.0
H280 H 0.37107 0.97692 0.60912 0.0
H281 H 0.14337 0.93401 0.55985 0.0
H282 H 0.26782 0.02743 0.57181 0.0
H283 H 0.24242 0.89412 0.62096 0.0
C284 C 0.30418 0.89768 0.63384 0.0
C285 C 0.34094 0.92033 0.62989 0.0
C286 C 0.24074 0.00669 0.56858 0.0
C287 C 0.27376 0.9507 0.59993 0.0
C288 C 0.20664 0.02138 0.55443 0.0
C289 C 0.17087 0.99562 0.55155 0.0
C290 C 0.23885 0.96613 0.58079 0.0
C291 C 0.17057 0.95458 0.56104 0.0
C292 C 0.27048 0.91271 0.61893 0.0
C293 C 0.34298 0.95916 0.61331 0.0
N294 N 0.20406 0.94116 0.57586 0.0
N295 N 0.30977 0.97311 0.59853 0.0
H296 H 0.68086 0.4582 0.94268 0.0
H297 H 0.88344 0.41805 0.03565 0.0
H298 H 0.72927 0.34677 0.92915 0.0
H299 H 0.83871 0.53225 0.04266 0.0
H300 H 0.81671 0.38321 0.02469 0.0
H301 H 0.72607 0.47663 1.00304 0.0
C302 C 0.70039 0.43715 0.9534 0.0
C303 C 0.70227 0.40148 0.93082 0.0
C304 C 0.82121 0.41572 0.03045 0.0
C305 C 0.75442 0.42232 0.99897 0.0
C306 C 0.85938 0.43556 0.03762 0.0
C307 C 0.86649 0.47812 0.03922 0.0
C308 C 0.79036 0.43892 0.02435 0.0
C309 C 0.83435 0.49935 0.04111 0.0
C310 C 0.72616 0.44754 0.98776 0.0
C311 C 0.72747 0.37475 0.94578 0.0
N312 N 0.79766 0.47974 0.03203 0.0
N313 N 0.75333 0.38615 0.97839 0.0
H314 H 0.82139 0.56138 0.49678 0.0
H315 H 0.61758 0.5518 0.36843 0.0
H316 H 0.80937 0.6093 0.37463 0.0
H317 H 0.62546 0.54615 0.5014 0.0
H318 H 0.6883 0.57159 0.3699 0.0
H319 H 0.74957 0.55287 0.49964 0.0
C320 C 0.80341 0.56981 0.47066 0.0
C321 C 0.82061 0.58513 0.43514 0.0
C322 C 0.67452 0.56648 0.39881 0.0
C323 C 0.73969 0.57596 0.43792 0.0
C324 C 0.63422 0.55522 0.39792 0.0
C325 C 0.61588 0.54719 0.43477 0.0
C326 C 0.69662 0.56876 0.43675 0.0
C327 C 0.63862 0.55222 0.47228 0.0
C328 C 0.76276 0.56533 0.47228 0.0
C329 C 0.79671 0.59647 0.4021 0.0
N330 N 0.67803 0.56207 0.47231 0.0
N331 N 0.75741 0.59133 0.4041 0.0
H332 H 0.20217 0.29806 0.10902 0.0
H333 H 0.01162 0.4024 0.04487 0.0
H334 H 0.08553 0.23276 0.10199 0.0
H335 H 0.12742 0.46864 0.06768 0.0
H336 H 0.03826 0.33895 0.05948 0.0
H337 H 0.17571 0.35967 0.08672 0.0
C338 C 0.171 0.29671 0.10214 0.0
C339 C 0.14593 0.2605 0.10726 0.0
C340 C 0.05782 0.36738 0.06115 0.0
C341 C 0.11518 0.33083 0.08243 0.0
C342 C 0.04264 0.40364 0.05276 0.0
C343 C 0.06726 0.44104 0.05516 0.0
C344 C 0.09797 0.36844 0.0718 0.0
C345 C 0.10723 0.44066 0.06559 0.0
C346 C 0.15581 0.33186 0.08977 0.0
C347 C 0.10567 0.2603 0.09856 0.0
N348 N 0.12126 0.40505 0.07352 0.0
N349 N 0.09148 0.29495 0.08672 0.0
H350 H 0.66699 0.28564 0.86126 0.0
H351 H 0.50697 0.20889 0.02039 0.0
H352 H 0.61542 0.36517 0.94026 0.0
H353 H 0.57613 0.12793 0.96327 0.0
H354 H 0.54088 0.2655 0.98398 0.0
H355 H 0.63087 0.22664 0.89366 0.0
C356 C 0.64845 0.29035 0.88604 0.0
C357 C 0.64409 0.32978 0.89862 0.0
C358 C 0.54853 0.23537 0.97914 0.0
C359 C 0.60218 0.26327 0.93488 0.0
C360 C 0.52897 0.20293 0.99966 0.0
C361 C 0.5391 0.16373 0.99515 0.0
C362 C 0.57853 0.22867 0.95389 0.0
C363 C 0.56747 0.1577 0.96757 0.0
C364 C 0.62771 0.25694 0.90425 0.0
C365 C 0.61965 0.335 0.93034 0.0
N366 N 0.58656 0.19002 0.94821 0.0
N367 N 0.59929 0.30202 0.94727 0.0
H368 H 0.92549 0.68817 0.36145 0.0
H369 H 0.00111 0.86939 0.51425 0.0
H370 H 0.96563 0.66353 0.48565 0.0
H371 H 0.01517 0.87542 0.38312 0.0
H372 H 0.98799 0.79445 0.50729 0.0
H373 H 0.9586 0.75762 0.3697 0.0
C374 C 0.94253 0.69699 0.38994 0.0
C375 C 0.94332 0.67007 0.42276 0.0
C376 C 0.99461 0.81245 0.48032 0.0
C377 C 0.97925 0.75026 0.4335 0.0
C378 C 0.00202 0.85503 0.48431 0.0
C379 C 0.0082 0.87861 0.44908 0.0
C380 C 0.99335 0.79397 0.44092 0.0
C381 C 0.00937 0.85855 0.41098 0.0
C382 C 0.96097 0.73686 0.39497 0.0
C383 C 0.96447 0.6837 0.45975 0.0
N384 N 0.00148 0.81763 0.40786 0.0
N385 N 0.98097 0.72319 0.46455 0.0
H386 H 0.48241 0.85361 0.57769 0.0
H387 H 0.41734 0.62231 0.50334 0.0
H388 H 0.37439 0.78139 0.60527 0.0
H389 H 0.53647 0.68105 0.50538 0.0
H390 H 0.39699 0.68667 0.52468 0.0
H391 H 0.50004 0.79533 0.53895 0.0
C392 C 0.46276 0.82524 0.5758 0.0
C393 C 0.42713 0.82179 0.59449 0.0
C394 C 0.42743 0.6858 0.51924 0.0
C395 C 0.44612 0.756 0.54982 0.0
C396 C 0.43887 0.6493 0.50619 0.0
C397 C 0.47854 0.64667 0.50232 0.0
C398 C 0.45593 0.7197 0.52819 0.0
C399 C 0.50555 0.68215 0.50774 0.0
C400 C 0.47247 0.79229 0.55348 0.0
C401 C 0.40209 0.78489 0.591 0.0
N402 N 0.49385 0.71716 0.52097 0.0
N403 N 0.41198 0.7534 0.56899 0.0
H404 H 0.84662 0.89267 0.77634 0.0
H405 H 0.05094 0.96918 0.68071 0.0
H406 H 0.95633 0.9209 0.84726 0.0
H407 H 0.94135 0.95665 0.60797 0.0
H408 H 0.01738 0.93892 0.73889 0.0
H409 H 0.88098 0.90391 0.71245 0.0
C410 C 0.87807 0.90079 0.77831 0.0
C411 C 0.89872 0.90668 0.817 0.0
C412 C 1.00052 0.94218 0.71019 0.0
C413 C 0.93827 0.91916 0.74425 0.0
C414 C 0.01973 0.95936 0.67677 0.0
C415 C 0.99889 0.96579 0.63943 0.0
C416 C 0.9598 0.93148 0.70681 0.0
C417 C 0.95855 0.95217 0.63612 0.0
C418 C 0.89764 0.90716 0.74191 0.0
C419 C 0.93943 0.91624 0.81802 0.0
N420 N 0.94017 0.93618 0.66965 0.0
N421 N 0.95781 0.92262 0.78226 0.0
H422 H 0.62752 0.06555 0.3826 0.0
H423 H 0.64215 0.07889 0.13981 0.0
H424 H 0.71246 0.1462 0.32106 0.0
H425 H 0.54362 0.01348 0.19665 0.0
H426 H 0.67851 0.08603 0.20678 0.0
H427 H 0.6066 0.03011 0.31648 0.0
C428 C 0.64301 0.07436 0.35539 0.0
C429 C 0.67248 0.10793 0.35724 0.0
C430 C 0.64932 0.06921 0.20467 0.0
C431 C 0.64821 0.06876 0.28163 0.0
C432 C 0.62869 0.06482 0.16636 0.0
C433 C 0.58992 0.04563 0.16289 0.0
C434 C 0.63078 0.05505 0.24004 0.0
C435 C 0.57361 0.02824 0.19815 0.0
C436 C 0.63083 0.05457 0.31769 0.0
C437 C 0.69079 0.11948 0.32115 0.0
N438 N 0.59387 0.03412 0.23559 0.0
N439 N 0.67808 0.10024 0.28474 0.0
H440 H 0.42809 0.66867 0.21067 0.0
H441 H 0.45996 0.5875 0.40347 0.0
H442 H 0.30582 0.64156 0.23262 0.0
H443 H 0.38315 0.49323 0.33575 0.0
H444 H 0.43261 0.63853 0.36037 0.0
H445 H 0.44432 0.63824 0.27684 0.0
C446 C 0.40476 0.65746 0.23001 0.0
C447 C 0.36562 0.6573 0.21613 0.0
C448 C 0.42081 0.60673 0.35626 0.0
C449 C 0.38378 0.62139 0.29076 0.0
C450 C 0.43596 0.57771 0.38104 0.0
C451 C 0.42369 0.53626 0.37294 0.0
C452 C 0.39282 0.5939 0.32405 0.0
C453 C 0.39323 0.52499 0.34282 0.0
C454 C 0.41398 0.64001 0.26759 0.0
C455 C 0.33633 0.64126 0.24187 0.0
N456 N 0.37907 0.5537 0.31902 0.0
N457 N 0.34594 0.62263 0.27744 0.0
H458 H 0.02924 0.44453 0.66981 0.0
H459 H 0.05757 0.51326 0.90244 0.0
H460 H 0.14197 0.44108 0.73284 0.0
H461 H 0.95391 0.43804 0.85088 0.0
H462 H 0.09202 0.49701 0.84135 0.0
H463 H 0.00231 0.45599 0.73626 0.0
C464 C 0.04829 0.44675 0.69772 0.0
C465 C 0.08766 0.442 0.69615 0.0
C466 C 0.06197 0.48355 0.84414 0.0
C467 C 0.05758 0.45527 0.77172 0.0
C468 C 0.0425 0.49244 0.87897 0.0
C469 C 0.00277 0.47736 0.88117 0.0
C470 C 0.04109 0.46007 0.81177 0.0
C471 C 0.98436 0.45084 0.84991 0.0
C472 C 0.03305 0.45303 0.73545 0.0
C473 C 0.11155 0.4453 0.73295 0.0
N474 N 0.00345 0.44365 0.81612 0.0
N475 N 0.09613 0.45189 0.76953 0.0
H476 H 0.77381 0.87423 0.91609 0.0
H477 H 0.63813 0.03899 0.97094 0.0
H478 H 0.82199 0.00078 0.92059 0.0
H479 H 0.62493 0.91634 0.0158 0.0
H480 H 0.703 0.0291 0.94735 0.0
H481 H 0.71462 0.89139 0.9453 0.0
C482 C 0.77167 0.9057 0.92328 0.0
C483 C 0.80263 0.9361 0.91631 0.0
C484 C 0.68594 0.00474 0.96295 0.0
C485 C 0.73486 0.95637 0.94925 0.0
C486 C 0.64915 0.01044 0.9766 0.0
C487 C 0.62589 0.97823 0.99483 0.0
C488 C 0.69895 0.96657 0.96745 0.0
C489 C 0.64147 0.94178 1.00121 0.0
C490 C 0.73806 0.91558 0.94002 0.0
C491 C 0.79849 0.97661 0.92558 0.0
N492 N 0.67657 0.93684 0.98717 0.0
N493 N 0.76504 0.98573 0.94149 0.0
H494 H 0.76499 0.15685 0.36977 0.0
H495 H 0.90927 0.04544 0.51581 0.0
H496 H 0.7267 0.09175 0.47709 0.0
H497 H 0.92814 0.06758 0.38732 0.0
H498 H 0.84523 0.06909 0.50567 0.0
H499 H 0.8276 0.12998 0.37804 0.0
C500 C 0.76954 0.13604 0.39444 0.0
C501 C 0.74059 0.12558 0.42222 0.0
C502 C 0.86345 0.06872 0.47974 0.0
C503 C 0.81254 0.09638 0.43329 0.0
C504 C 0.90009 0.05549 0.48557 0.0
C505 C 0.92415 0.05451 0.45237 0.0
C506 C 0.85104 0.08168 0.44062 0.0
C507 C 0.91058 0.0677 0.41378 0.0
C508 C 0.80536 0.12112 0.39953 0.0
C509 C 0.7484 0.10001 0.4549 0.0
N510 N 0.8751 0.08091 0.40904 0.0
N511 N 0.78377 0.0865 0.4598 0.0
H512 H 0.27709 0.71891 0.09089 0.0
H513 H 0.13094 0.5499 0.97968 0.0
H514 H 0.313 0.6053 0.05525 0.0
H515 H 0.11332 0.67581 0.98257 0.0
H516 H 0.20106 0.5707 0.9939 0.0
H517 H 0.22114 0.7063 0.04099 0.0
C518 C 0.27335 0.69153 0.07191 0.0
C519 C 0.29905 0.66274 0.07751 0.0
C520 C 0.18209 0.5939 0.98988 0.0
C521 C 0.23446 0.64725 0.02108 0.0
C522 C 0.14202 0.58204 0.98126 0.0
C523 C 0.11627 0.61121 0.98098 0.0
C524 C 0.19604 0.63506 0.99843 0.0
C525 C 0.1322 0.65236 0.98338 0.0
C526 C 0.24142 0.68423 0.0434 0.0
C527 C 0.29299 0.62759 0.05248 0.0
N528 N 0.17095 0.66303 0.99315 0.0
N529 N 0.26073 0.62031 0.02588 0.0
H530 H 0.20659 0.40313 0.65397 0.0
H531 H 0.35771 0.46208 0.48063 0.0
H532 H 0.16684 0.43792 0.53303 0.0
H533 H 0.38391 0.48028 0.61162 0.0
H534 H 0.2893 0.43638 0.49426 0.0
H535 H 0.27386 0.41247 0.63304 0.0
C536 C 0.21232 0.41223 0.62272 0.0
C537 C 0.18178 0.42031 0.5952 0.0
C538 C 0.3103 0.44568 0.51985 0.0
C539 C 0.25821 0.4314 0.57102 0.0
C540 C 0.34917 0.46007 0.51217 0.0
C541 C 0.3762 0.47348 0.54512 0.0
C542 C 0.2991 0.44384 0.56072 0.0
C543 C 0.36384 0.47059 0.58537 0.0
C544 C 0.25049 0.41765 0.6108 0.0
C545 C 0.19004 0.43164 0.5549 0.0
N546 N 0.32628 0.45603 0.59202 0.0
N547 N 0.22781 0.43735 0.54396 0.0
H548 H 0.87535 0.82109 0.83955 0.0
H549 H 0.97882 0.68685 0.00522 0.0
H550 H 0.94151 0.87475 0.94759 0.0
H551 H 0.92885 0.6439 0.88503 0.0
H552 H 0.96922 0.75657 0.98516 0.0
H553 H 0.89951 0.75671 0.85455 0.0
C554 C 0.89579 0.81945 0.8659 0.0
C555 C 0.9062 0.85301 0.89253 0.0
C556 C 0.96073 0.73173 0.96322 0.0
C557 C 0.933 0.77898 0.91117 0.0
C558 C 0.96617 0.69199 0.9747 0.0
C559 C 0.95404 0.6592 0.94715 0.0
C560 C 0.94317 0.7385 0.92397 0.0
C561 C 0.93804 0.66783 0.90781 0.0
C562 C 0.90927 0.78258 0.87489 0.0
C563 C 0.93228 0.84918 0.92678 0.0
N564 N 0.9329 0.70626 0.89767 0.0
N565 N 0.94433 0.81265 0.93556 0.0
H566 H 0.44909 0.72283 0.16321 0.0
H567 H 0.52786 0.90841 0.13406 0.0
H568 H 0.34172 0.76475 0.1919 0.0
H569 H 0.40784 0.91913 0.09897 0.0
H570 H 0.50611 0.85951 0.18662 0.0
H571 H 0.48265 0.79201 0.17068 0.0
C572 C 0.43321 0.7465 0.17363 0.0
C573 C 0.39289 0.7384 0.17735 0.0
C574 C 0.48449 0.87358 0.16846 0.0
C575 C 0.43026 0.81823 0.18397 0.0
C576 C 0.49694 0.90212 0.13905 0.0
C577 C 0.46943 0.91696 0.11184 0.0
C578 C 0.44438 0.85946 0.16954 0.0
C579 C 0.42983 0.90784 0.11921 0.0
C580 C 0.45225 0.78627 0.17775 0.0
C581 C 0.37302 0.77017 0.18919 0.0
N582 N 0.41833 0.87862 0.14661 0.0
N583 N 0.39158 0.80901 0.19064 0.0
H584 H 0.16437 0.33794 0.59611 0.0
H585 H 0.00588 0.16588 0.54854 0.0
H586 H 0.05219 0.36735 0.55092 0.0
H587 H 0.12163 0.15633 0.51147 0.0
H588 H 0.01927 0.23984 0.54217 0.0
H589 H 0.15015 0.2726 0.55971 0.0
C590 C 0.13745 0.33136 0.57707 0.0
C591 C 0.10949 0.35807 0.57616 0.0
C592 C 0.04113 0.22146 0.53355 0.0
C593 C 0.09205 0.28252 0.53638 0.0
C594 C 0.03328 0.17927 0.53677 0.0
C595 C 0.06263 0.1553 0.53019 0.0
C596 C 0.07899 0.2394 0.52524 0.0
C597 C 0.09819 0.17401 0.51636 0.0
C598 C 0.12912 0.29386 0.55654 0.0
C599 C 0.07431 0.34724 0.5523 0.0
N600 N 0.10593 0.21517 0.51566 0.0
N601 N 0.066 0.30972 0.53431 0.0
H602 H 0.68983 0.26332 0.44845 0.0
H603 H 0.482 0.33098 0.44853 0.0
H604 H 0.58631 0.17616 0.45556 0.0
H605 H 0.58347 0.40901 0.50029 0.0
H606 H 0.51934 0.27349 0.45181 0.0
H607 H 0.65246 0.31755 0.46803 0.0
C608 C 0.65944 0.2556 0.45506 0.0
C609 C 0.64096 0.21541 0.45038 0.0
C610 C 0.53322 0.30296 0.46338 0.0
C611 C 0.59788 0.277 0.47153 0.0
C612 C 0.51185 0.33566 0.4617 0.0
C613 C 0.5296 0.37456 0.47455 0.0
C614 C 0.57304 0.30951 0.47664 0.0
C615 C 0.56858 0.37928 0.49069 0.0
C616 C 0.6381 0.28645 0.46605 0.0
C617 C 0.60136 0.20692 0.45847 0.0
N618 N 0.58933 0.3473 0.49042 0.0
N619 N 0.58096 0.23751 0.468 0.0
loop_
_geom_bond_atom_site_label_1
_geom_bond_atom_site_label_2
_geom_bond_distance
_geom_bond_site_symmetry_2
_ccdc_geom_bond_type
C0 N1 1.317 . S
C0 N2 1.348 . S
C0 C3 1.485 . S
N1 C0 1.317 . S
N1 N5 1.370 . S
N2 C0 1.348 . S
N2 C4 1.346 . S
C3 C0 1.485 . S
C3 H7 0.960 . S
C3 H8 0.961 . S
C3 H9 0.960 . S
C4 N2 1.346 . S
C4 N5 1.307 . S
C4 C6 1.486 . S
N5 N1 1.370 . S
N5 C4 1.307 . S
C6 C4 1.486 . S
C6 H10 0.960 . S
C6 H11 0.960 . S
C6 H12 0.959 . S
H7 C3 0.960 . S
H8 C3 0.961 . S
H9 C3 0.960 . S
H10 C6 0.960 . S
H11 C6 0.960 . S
H12 C6 0.959 . S
C13 N14 1.317 . S
C13 N15 1.348 . S
C13 C16 1.485 . S
N14 C13 1.317 . S
N14 N18 1.370 . S
N15 C13 1.348 . S
N15 C17 1.346 . S
C16 C13 1.485 . S
C16 H20 0.960 . S
C16 H21 0.961 . S
C16 H22 0.960 . S
C17 N15 1.346 . S
C17 N18 1.307 . S
C17 C19 1.486 . S
N18 N14 1.370 . S
N18 C17 1.307 . S
C19 C17 1.486 . S
C19 H23 0.960 . S
C19 H24 0.960 . S
C19 H25 0.959 . S
H20 C16 0.960 . S
H21 C16 0.961 . S
H22 C16 0.960 . S
H23 C19 0.960 . S
H24 C19 0.960 . S
H25 C19 0.959 . S
C26 N27 1.317 . S
C26 N28 1.348 . S
C26 C29 1.485 . S
N27 C26 1.317 . S
N27 N31 1.370 . S
N28 C26 1.348 . S
N28 C30 1.346 . S
C29 C26 1.485 . S
C29 H33 0.960 . S
C29 H34 0.961 . S
C29 H35 0.960 . S
C30 N28 1.346 . S
C30 N31 1.307 . S
C30 C32 1.486 . S
N31 N27 1.370 . S
N31 C30 1.307 . S
C32 C30 1.486 . S
C32 H36 0.960 . S
C32 H37 0.960 . S
C32 H38 0.959 . S
H33 C29 0.960 . S
H34 C29 0.961 . S
H35 C29 0.960 . S
H36 C32 0.960 . S
H37 C32 0.960 . S
H38 C32 0.959 . S
C39 N40 1.317 . S
C39 N41 1.348 . S
C39 C42 1.485 . S
N40 C39 1.317 . S
N40 N44 1.370 . S
N41 C39 1.348 . S
N41 C43 1.346 . S
C42 C39 1.485 . S
C42 H46 0.960 . S
C42 H47 0.961 . S
C42 H48 0.960 . S
C43 N41 1.346 . S
C43 N44 1.307 . S
C43 C45 1.486 . S
N44 N40 1.370 . S
N44 C43 1.307 . S
C45 C43 1.486 . S
C45 H49 0.960 . S
C45 H50 0.960 . S
C45 H51 0.959 . S
H46 C42 0.960 . S
H47 C42 0.961 . S
H48 C42 0.960 . S
H49 C45 0.960 . S
H50 C45 0.960 . S
H51 C45 0.959 . S
C52 N53 1.317 . S
C52 N54 1.348 . S
C52 C55 1.485 . S
N53 C52 1.317 . S
N53 N57 1.370 . S
N54 C52 1.348 . S
N54 C56 1.346 . S
C55 C52 1.485 . S
C55 H59 0.960 . S
C55 H60 0.961 . S
C55 H61 0.960 . S
C56 N54 1.346 . S
C56 N57 1.307 . S
C56 C58 1.486 . S
N57 N53 1.370 . S
N57 C56 1.307 . S
C58 C56 1.486 . S
C58 H62 0.960 . S
C58 H63 0.960 . S
C58 H64 0.959 . S
H59 C55 0.960 . S
H60 C55 0.961 . S
H61 C55 0.960 . S
H62 C58 0.960 . S
H63 C58 0.960 . S
H64 C58 0.959 . S
C65 N66 1.317 . S
C65 N67 1.348 . S
C65 C68 1.485 . S
N66 C65 1.317 . S
N66 N70 1.370 . S
N67 C65 1.348 . S
N67 C69 1.346 . S
C68 C65 1.485 . S
C68 H72 0.960 . S
C68 H73 0.961 . S
C68 H74 0.960 . S
C69 N67 1.346 . S
C69 N70 1.307 . S
C69 C71 1.486 . S
N70 N66 1.370 . S
N70 C69 1.307 . S
C71 C69 1.486 . S
C71 H75 0.960 . S
C71 H76 0.960 . S
C71 H77 0.959 . S
H72 C68 0.960 . S
H73 C68 0.961 . S
H74 C68 0.960 . S
H75 C71 0.960 . S
H76 C71 0.960 . S
H77 C71 0.959 . S
C78 N79 1.317 . S
C78 N80 1.348 . S
C78 C81 1.485 . S
N79 C78 1.317 . S
N79 N83 1.370 . S
N80 C78 1.348 . S
N80 C82 1.346 . S
C81 C78 1.485 . S
C81 H85 0.960 . S
C81 H86 0.961 . S
C81 H87 0.960 . S
C82 N80 1.346 . S
C82 N83 1.307 . S
C82 C84 1.486 . S
N83 N79 1.370 . S
N83 C82 1.307 . S
C84 C82 1.486 . S
C84 H88 0.960 . S
C84 H89 0.960 . S
C84 H90 0.959 . S
H85 C81 0.960 . S
H86 C81 0.961 . S
H87 C81 0.960 . S
H88 C84 0.960 . S
H89 C84 0.960 . S
H90 C84 0.959 . S
C91 N92 1.317 . S
C91 N93 1.348 . S
C91 C94 1.485 . S
N92 C91 1.317 . S
N92 N96 1.370 . S
N93 C91 1.348 . S
N93 C95 1.346 . S
C94 C91 1.485 . S
C94 H98 0.960 . S
C94 H99 0.961 . S
C94 H100 0.960 . S
C95 N93 1.346 . S
C95 N96 1.307 . S
C95 C97 1.486 . S
N96 N92 1.370 . S
N96 C95 1.307 . S
C97 C95 1.486 . S
C97 H101 0.960 . S
C97 H102 0.960 . S
C97 H103 0.959 . S
H98 C94 0.960 . S
H99 C94 0.961 . S
H100 C94 0.960 . S
H101 C97 0.960 . S
H102 C97 0.960 . S
H103 C97 0.959 . S
O104 Mg105 1.990 . S
O104 C118 1.253 1_545 S
Mg105 O104 1.990 . S
Mg105 O108 2.180 . S
Mg105 O109 2.117 . S
Mg105 O123 2.013 1_545 S
O106 Mg107 2.072 1_565 S
O106 C118 1.260 . S
Mg107 O106 2.072 1_545 S
Mg107 O108 2.099 . S
Mg107 O110 2.079 . S
Mg107 O111 2.072 . S
Mg107 O113 2.099 1_545 S
Mg107 O124 2.079 1_545 S
O108 Mg105 2.180 . S
O108 Mg107 2.099 . S
O108 C119 1.279 . S
O109 Mg105 2.117 . S
O109 C119 1.250 . S
O110 Mg107 2.079 . S
O110 C120 1.264 . S
O111 Mg107 2.072 . S
O111 C121 1.260 1_455 S
Mg112 O113 2.180 1_655 S
Mg112 O114 2.030 1_665 S
Mg112 O115 1.990 1_565 S
Mg112 O116 2.117 . S
O113 Mg107 2.099 1_565 S
O113 Mg112 2.180 1_455 S
O113 C122 1.279 . S
O114 Mg112 2.030 1_445 S
O114 C120 1.248 . S
O115 Mg112 1.990 1_545 S
O115 C121 1.253 . S
O116 Mg112 2.117 . S
O116 C122 1.250 1_655 S
C117 O123 1.256 . S
C117 O124 1.264 . S
C118 O104 1.253 1_565 S
C118 O106 1.260 . S
C119 O108 1.279 . S
C119 O109 1.250 . S
C120 O110 1.264 . S
C120 O114 1.248 . S
C121 O111 1.260 1_655 S
C121 O115 1.253 . S
C122 O113 1.279 . S
C122 O116 1.250 1_455 S
O123 Mg105 2.013 1_565 S
O123 C117 1.256 . S
O124 Mg107 2.079 1_565 S
O124 C117 1.264 . S
O125 Mg126 1.990 . S
O125 C139 1.253 . S
Mg126 O125 1.990 . S
Mg126 O129 2.180 . S
Mg126 O130 2.117 . S
Mg126 O144 2.030 . S
O127 Mg128 2.072 . S
O127 C139 1.260 . S
Mg128 O127 2.072 . S
Mg128 O129 2.099 . S
Mg128 O131 2.079 . S
Mg128 O132 2.072 1_554 S
Mg128 O134 2.099 1_545 S
Mg128 O145 2.079 . S
O129 Mg126 2.180 . S
O129 Mg128 2.099 . S
O129 C140 1.279 . S
O130 Mg126 2.117 . S
O130 C140 1.250 . S
O131 Mg128 2.079 . S
O131 C141 1.264 1_545 S
O132 Mg128 2.072 1_556 S
O132 C142 1.260 1_545 S
Mg133 O134 2.176 1_556 S
Mg133 O135 2.031 . S
Mg133 O136 1.994 . S
Mg133 O137 2.113 1_556 S
O134 Mg128 2.099 1_565 S
O134 Mg133 2.176 1_554 S
O134 C143 1.279 . S
O135 Mg133 2.031 . S
O135 C141 1.248 1_556 S
O136 Mg133 1.994 . S
O136 C142 1.253 . S
O137 Mg133 2.113 1_554 S
O137 C143 1.250 . S
C138 O144 1.248 . S
C138 O145 1.264 . S
C139 O125 1.253 . S
C139 O127 1.260 . S
C140 O129 1.279 . S
C140 O130 1.250 . S
C141 O131 1.264 1_565 S
C141 O135 1.248 1_554 S
C142 O132 1.260 1_565 S
C142 O136 1.253 . S
C143 O134 1.279 . S
C143 O137 1.250 . S
O144 Mg126 2.030 . S
O144 C138 1.248 . S
O145 Mg128 2.079 . S
O145 C138 1.264 . S
O146 Mg147 1.990 . S
O146 C160 1.253 . S
Mg147 O146 1.990 . S
Mg147 O150 2.180 . S
Mg147 O151 2.117 . S
Mg147 O165 2.030 . S
O148 Mg149 2.072 . S
O148 C160 1.260 . S
Mg149 O148 2.072 . S
Mg149 O150 2.099 . S
Mg149 O152 2.079 . S
Mg149 O153 2.072 . S
Mg149 O155 2.099 . S
Mg149 O166 2.079 . S
O150 Mg147 2.180 . S
O150 Mg149 2.099 . S
O150 C161 1.279 . S
O151 Mg147 2.117 . S
O151 C161 1.250 . S
O152 Mg149 2.079 . S
O152 C162 1.264 . S
O153 Mg149 2.072 . S
O153 C163 1.260 . S
Mg154 O155 2.180 . S
Mg154 O156 2.030 . S
Mg154 O157 1.990 . S
Mg154 O158 2.117 . S
O155 Mg149 2.099 . S
O155 Mg154 2.180 . S
O155 C164 1.279 . S
O156 Mg154 2.030 . S
O156 C162 1.248 . S
O157 Mg154 1.990 . S
O157 C163 1.253 . S
O158 Mg154 2.117 . S
O158 C164 1.250 . S
C159 O165 1.248 . S
C159 O166 1.264 . S
C160 O146 1.253 . S
C160 O148 1.260 . S
C161 O150 1.279 . S
C161 O151 1.250 . S
C162 O152 1.264 . S
C162 O156 1.248 . S
C163 O153 1.260 . S
C163 O157 1.253 . S
C164 O155 1.279 . S
C164 O158 1.250 . S
O165 Mg147 2.030 . S
O165 C159 1.248 . S
O166 Mg149 2.079 . S
O166 C159 1.264 . S
O167 Mg168 1.990 . S
O167 C181 1.253 . S
Mg168 O167 1.990 . S
Mg168 O171 2.161 1_455 S
Mg168 O172 2.117 1_455 S
Mg168 O186 2.030 . S
O169 Mg170 2.072 . S
O169 C181 1.260 . S
Mg170 O169 2.072 . S
Mg170 O171 2.094 1_455 S
Mg170 O173 2.079 1_454 S
Mg170 O174 2.072 1_454 S
Mg170 O176 2.099 1_554 S
Mg170 O187 2.079 . S
O171 Mg168 2.161 1_655 S
O171 Mg170 2.094 1_655 S
O171 C182 1.297 . S
O172 Mg168 2.117 1_655 S
O172 C182 1.250 . S
O173 Mg170 2.079 1_656 S
O173 C183 1.264 . S
O174 Mg170 2.072 1_656 S
O174 C184 1.260 . S
Mg175 O176 2.180 1_655 S
Mg175 O177 2.030 . S
Mg175 O178 1.990 . S
Mg175 O179 2.117 . S
O176 Mg170 2.099 1_556 S
O176 Mg175 2.180 1_455 S
O176 C185 1.279 . S
O177 Mg175 2.030 . S
O177 C183 1.248 . S
O178 Mg175 1.990 . S
O178 C184 1.253 . S
O179 Mg175 2.117 . S
O179 C185 1.250 1_655 S
C180 O186 1.248 . S
C180 O187 1.264 . S
C181 O167 1.253 . S
C181 O169 1.260 . S
C182 O171 1.297 . S
C182 O172 1.250 . S
C183 O173 1.264 . S
C183 O177 1.248 . S
C184 O174 1.260 . S
C184 O178 1.253 . S
C185 O176 1.279 . S
C185 O179 1.250 1_455 S
O186 Mg168 2.030 . S
O186 C180 1.248 . S
O187 Mg170 2.079 . S
O187 C180 1.264 . S
H188 C194 0.930 . S
H189 C198 0.930 . S
H190 C203 0.929 . S
H191 C201 0.929 . S
H192 C196 0.929 . S
H193 C202 0.929 . S
C194 H188 0.930 . S
C194 C195 1.367 . S
C194 C202 1.378 . S
C195 C194 1.367 . S
C195 C203 1.433 . S
C196 H192 0.929 . S
C196 C198 1.378 . S
C196 C200 1.350 . S
C197 C200 1.463 . S
C197 C202 1.350 . S
C197 N205 1.427 . S
C198 H189 0.930 . S
C198 C196 1.378 . S
C198 C199 1.367 . S
C199 C198 1.367 . S
C199 C201 1.433 . S
C200 C196 1.350 . S
C200 C197 1.463 . S
C200 N204 1.427 . S
C201 H191 0.929 . S
C201 C199 1.433 . S
C201 N204 1.384 . S
C202 H193 0.929 . S
C202 C194 1.378 . S
C202 C197 1.350 . S
C203 H190 0.929 . S
C203 C195 1.433 . S
C203 N205 1.384 . S
N204 C200 1.427 . S
N204 C201 1.384 . S
N205 C197 1.427 . S
N205 C203 1.384 . S
H206 C212 0.930 . S
H207 C216 0.930 . S
H208 C221 0.929 . S
H209 C219 0.929 . S
H210 C214 0.929 . S
H211 C220 0.929 . S
C212 H206 0.930 . S
C212 C213 1.367 . S
C212 C220 1.378 . S
C213 C212 1.367 . S
C213 C221 1.433 . S
C214 H210 0.929 . S
C214 C216 1.378 1_565 S
C214 C218 1.350 . S
C215 C218 1.463 . S
C215 C220 1.350 . S
C215 N223 1.427 . S
C216 H207 0.930 . S
C216 C214 1.378 1_545 S
C216 C217 1.367 1_545 S
C217 C216 1.367 1_565 S
C217 C219 1.433 . S
C218 C214 1.350 . S
C218 C215 1.463 . S
C218 N222 1.427 . S
C219 H209 0.929 . S
C219 C217 1.433 . S
C219 N222 1.384 . S
C220 H211 0.929 . S
C220 C212 1.378 . S
C220 C215 1.350 . S
C221 H208 0.929 . S
C221 C213 1.433 . S
C221 N223 1.384 . S
N222 C218 1.427 . S
N222 C219 1.384 . S
N223 C215 1.427 . S
N223 C221 1.384 . S
H224 C230 0.930 . S
H225 C234 0.930 . S
H226 C239 0.929 . S
H227 C237 0.929 . S
H228 C232 0.929 . S
H229 C238 0.929 . S
C230 H224 0.930 . S
C230 C231 1.367 . S
C230 C238 1.378 . S
C231 C230 1.367 . S
C231 C239 1.433 . S
C232 H228 0.929 . S
C232 C234 1.378 . S
C232 C236 1.350 . S
C233 C236 1.463 . S
C233 C238 1.350 . S
C233 N241 1.427 . S
C234 H225 0.930 . S
C234 C232 1.378 . S
C234 C235 1.367 . S
C235 C234 1.367 . S
C235 C237 1.433 . S
C236 C232 1.350 . S
C236 C233 1.463 . S
C236 N240 1.427 . S
C237 H227 0.929 . S
C237 C235 1.433 . S
C237 N240 1.384 . S
C238 H229 0.929 . S
C238 C230 1.378 . S
C238 C233 1.350 . S
C239 H226 0.929 . S
C239 C231 1.433 . S
C239 N241 1.384 . S
N240 C236 1.427 . S
N240 C237 1.384 . S
N241 C233 1.427 . S
N241 C239 1.384 . S
H242 C248 0.930 . S
H243 C252 0.930 . S
H244 C257 0.929 . S
H245 C255 0.929 . S
H246 C250 0.929 . S
H247 C256 0.929 . S
C248 H242 0.930 . S
C248 C249 1.367 . S
C248 C256 1.378 . S
C249 C248 1.367 . S
C249 C257 1.433 . S
C250 H246 0.929 . S
C250 C252 1.378 . S
C250 C254 1.350 . S
C251 C254 1.463 . S
C251 C256 1.350 . S
C251 N259 1.427 . S
C252 H243 0.930 . S
C252 C250 1.378 . S
C252 C253 1.367 . S
C253 C252 1.367 . S
C253 C255 1.433 . S
C254 C250 1.350 . S
C254 C251 1.463 . S
C254 N258 1.427 . S
C255 H245 0.929 . S
C255 C253 1.433 . S
C255 N258 1.384 . S
C256 H247 0.929 . S
C256 C248 1.378 . S
C256 C251 1.350 . S
C257 H244 0.929 . S
C257 C249 1.433 . S
C257 N259 1.384 . S
N258 C254 1.427 . S
N258 C255 1.384 . S
N259 C251 1.427 . S
N259 C257 1.384 . S
H260 C266 0.930 . S
H261 C270 0.930 . S
H262 C275 0.929 . S
H263 C273 0.929 . S
H264 C268 0.929 . S
H265 C274 0.929 . S
C266 H260 0.930 . S
C266 C267 1.367 . S
C266 C274 1.378 . S
C267 C266 1.367 . S
C267 C275 1.433 . S
C268 H264 0.929 . S
C268 C270 1.378 . S
C268 C272 1.350 . S
C269 C272 1.463 . S
C269 C274 1.350 . S
C269 N277 1.427 . S
C270 H261 0.930 . S
C270 C268 1.378 . S
C270 C271 1.367 . S
C271 C270 1.367 . S
C271 C273 1.433 . S
C272 C268 1.350 . S
C272 C269 1.463 . S
C272 N276 1.427 . S
C273 H263 0.929 . S
C273 C271 1.433 . S
C273 N276 1.384 . S
C274 H265 0.929 . S
C274 C266 1.378 . S
C274 C269 1.350 . S
C275 H262 0.929 . S
C275 C267 1.433 . S
C275 N277 1.384 . S
N276 C272 1.427 . S
N276 C273 1.384 . S
N277 C269 1.427 . S
N277 C275 1.384 . S
H278 C284 0.930 . S
H279 C288 0.930 1_545 S
H280 C293 0.929 . S
H281 C291 0.929 . S
H282 C286 0.933 . S
H283 C292 0.929 . S
C284 H278 0.930 . S
C284 C285 1.367 . S
C284 C292 1.378 . S
C285 C284 1.367 . S
C285 C293 1.433 . S
C286 H282 0.933 . S
C286 C288 1.378 . S
C286 C290 1.350 . S
C287 C290 1.463 . S
C287 C292 1.350 . S
C287 N295 1.427 . S
C288 H279 0.930 1_565 S
C288 C286 1.378 . S
C288 C289 1.367 . S
C289 C288 1.367 . S
C289 C291 1.433 . S
C290 C286 1.350 . S
C290 C287 1.463 . S
C290 N294 1.427 . S
C291 H281 0.929 . S
C291 C289 1.433 . S
C291 N294 1.384 . S
C292 H283 0.929 . S
C292 C284 1.378 . S
C292 C287 1.350 . S
C293 H280 0.929 . S
C293 C285 1.433 . S
C293 N295 1.384 . S
N294 C290 1.427 . S
N294 C291 1.384 . S
N295 C287 1.427 . S
N295 C293 1.384 . S
H296 C302 0.930 . S
H297 C306 0.930 . S
H298 C311 0.929 . S
H299 C309 0.929 . S
H300 C304 0.929 . S
H301 C310 0.929 . S
C302 H296 0.930 . S
C302 C303 1.367 . S
C302 C310 1.378 . S
C303 C302 1.367 . S
C303 C311 1.433 . S
C304 H300 0.929 . S
C304 C306 1.378 . S
C304 C308 1.350 . S
C305 C308 1.463 . S
C305 C310 1.350 . S
C305 N313 1.427 . S
C306 H297 0.930 . S
C306 C304 1.378 . S
C306 C307 1.367 . S
C307 C306 1.367 . S
C307 C309 1.433 . S
C308 C304 1.350 . S
C308 C305 1.463 . S
C308 N312 1.427 . S
C309 H299 0.929 . S
C309 C307 1.433 . S
C309 N312 1.384 . S
C310 H301 0.929 . S
C310 C302 1.378 . S
C310 C305 1.350 . S
C311 H298 0.929 . S
C311 C303 1.433 . S
C311 N313 1.384 . S
N312 C308 1.427 . S
N312 C309 1.384 . S
N313 C305 1.427 . S
N313 C311 1.384 . S
H314 C320 0.930 . S
H315 C324 0.930 . S
H316 C329 0.929 . S
H317 C327 0.929 . S
H318 C322 0.929 . S
H319 C328 0.929 . S
C320 H314 0.930 . S
C320 C321 1.367 . S
C320 C328 1.378 . S
C321 C320 1.367 . S
C321 C329 1.433 . S
C322 H318 0.929 . S
C322 C324 1.378 . S
C322 C326 1.350 . S
C323 C326 1.463 . S
C323 C328 1.350 . S
C323 N331 1.427 . S
C324 H315 0.930 . S
C324 C322 1.378 . S
C324 C325 1.367 . S
C325 C324 1.367 . S
C325 C327 1.433 . S
C326 C322 1.350 . S
C326 C323 1.463 . S
C326 N330 1.427 . S
C327 H317 0.929 . S
C327 C325 1.433 . S
C327 N330 1.384 . S
C328 H319 0.929 . S
C328 C320 1.378 . S
C328 C323 1.350 . S
C329 H316 0.929 . S
C329 C321 1.433 . S
C329 N331 1.384 . S
N330 C326 1.427 . S
N330 C327 1.384 . S
N331 C323 1.427 . S
N331 C329 1.384 . S
H332 C338 0.930 . S
H333 C342 0.930 1_655 S
H334 C347 0.929 . S
H335 C345 0.929 . S
H336 C340 0.929 . S
H337 C346 0.929 . S
C338 H332 0.930 . S
C338 C339 1.367 . S
C338 C346 1.378 . S
C339 C338 1.367 . S
C339 C347 1.433 . S
C340 H336 0.929 . S
C340 C342 1.378 . S
C340 C344 1.350 . S
C341 C344 1.463 . S
C341 C346 1.350 . S
C341 N349 1.427 . S
C342 H333 0.930 1_455 S
C342 C340 1.378 . S
C342 C343 1.367 . S
C343 C342 1.367 . S
C343 C345 1.433 . S
C344 C340 1.350 . S
C344 C341 1.463 . S
C344 N348 1.427 . S
C345 H335 0.929 . S
C345 C343 1.433 . S
C345 N348 1.384 . S
C346 H337 0.929 . S
C346 C338 1.378 . S
C346 C341 1.350 . S
C347 H334 0.929 . S
C347 C339 1.433 . S
C347 N349 1.384 . S
N348 C344 1.427 . S
N348 C345 1.384 . S
N349 C341 1.427 . S
N349 C347 1.384 . S
H350 C356 0.930 . S
H351 C360 0.930 . S
H352 C365 0.929 . S
H353 C363 0.929 . S
H354 C358 0.929 . S
H355 C364 0.929 . S
C356 H350 0.930 . S
C356 C357 1.367 . S
C356 C364 1.378 . S
C357 C356 1.367 . S
C357 C365 1.433 . S
C358 H354 0.929 . S
C358 C360 1.378 . S
C358 C362 1.350 . S
C359 C362 1.463 . S
C359 C364 1.350 . S
C359 N367 1.427 . S
C360 H351 0.930 . S
C360 C358 1.378 . S
C360 C361 1.367 . S
C361 C360 1.367 . S
C361 C363 1.433 . S
C362 C358 1.350 . S
C362 C359 1.463 . S
C362 N366 1.427 . S
C363 H353 0.929 . S
C363 C361 1.433 . S
C363 N366 1.384 . S
C364 H355 0.929 . S
C364 C356 1.378 . S
C364 C359 1.350 . S
C365 H352 0.929 . S
C365 C357 1.433 . S
C365 N367 1.384 . S
N366 C362 1.427 . S
N366 C363 1.384 . S
N367 C359 1.427 . S
N367 C365 1.384 . S
H368 C374 0.930 . S
H369 C378 0.930 . S
H370 C383 0.929 . S
H371 C381 0.929 . S
H372 C376 0.929 . S
H373 C382 0.929 . S
C374 H368 0.930 . S
C374 C375 1.367 . S
C374 C382 1.378 . S
C375 C374 1.367 . S
C375 C383 1.433 . S
C376 H372 0.929 . S
C376 C378 1.378 . S
C376 C380 1.350 . S
C377 C380 1.463 . S
C377 C382 1.350 . S
C377 N385 1.427 . S
C378 H369 0.930 . S
C378 C376 1.378 . S
C378 C379 1.367 . S
C379 C378 1.367 . S
C379 C381 1.433 1_655 S
C380 C376 1.350 . S
C380 C377 1.463 . S
C380 N384 1.427 . S
C381 H371 0.929 . S
C381 C379 1.433 1_455 S
C381 N384 1.384 1_455 S
C382 H373 0.929 . S
C382 C374 1.378 . S
C382 C377 1.350 . S
C383 H370 0.929 . S
C383 C375 1.433 . S
C383 N385 1.384 . S
N384 C380 1.427 . S
N384 C381 1.384 1_655 S
N385 C377 1.427 . S
N385 C383 1.384 . S
H386 C392 0.930 . S
H387 C396 0.930 . S
H388 C401 0.929 . S
H389 C399 0.929 . S
H390 C394 0.929 . S
H391 C400 0.929 . S
C392 H386 0.930 . S
C392 C393 1.367 . S
C392 C400 1.378 . S
C393 C392 1.367 . S
C393 C401 1.433 . S
C394 H390 0.929 . S
C394 C396 1.378 . S
C394 C398 1.350 . S
C395 C398 1.463 . S
C395 C400 1.350 . S
C395 N403 1.427 . S
C396 H387 0.930 . S
C396 C394 1.378 . S
C396 C397 1.367 . S
C397 C396 1.367 . S
C397 C399 1.433 . S
C398 C394 1.350 . S
C398 C395 1.463 . S
C398 N402 1.427 . S
C399 H389 0.929 . S
C399 C397 1.433 . S
C399 N402 1.384 . S
C400 H391 0.929 . S
C400 C392 1.378 . S
C400 C395 1.350 . S
C401 H388 0.929 . S
C401 C393 1.433 . S
C401 N403 1.384 . S
N402 C398 1.427 . S
N402 C399 1.384 . S
N403 C395 1.427 . S
N403 C401 1.384 . S
H404 C410 0.930 . S
H405 C414 0.930 1_545 S
H406 C419 0.929 . S
H407 C417 0.929 . S
H408 C412 0.929 . S
H409 C418 0.929 . S
C410 H404 0.930 . S
C410 C411 1.367 . S
C410 C418 1.378 . S
C411 C410 1.367 . S
C411 C419 1.433 . S
C412 H408 0.929 . S
C412 C414 1.378 . S
C412 C416 1.350 1_455 S
C413 C416 1.463 . S
C413 C418 1.350 . S
C413 N421 1.427 . S
C414 H405 0.930 1_565 S
C414 C412 1.378 . S
C414 C415 1.367 . S
C415 C414 1.367 . S
C415 C417 1.433 1_455 S
C416 C412 1.350 1_655 S
C416 C413 1.463 . S
C416 N420 1.427 . S
C417 H407 0.929 . S
C417 C415 1.433 1_655 S
C417 N420 1.384 . S
C418 H409 0.929 . S
C418 C410 1.378 . S
C418 C413 1.350 . S
C419 H406 0.929 . S
C419 C411 1.433 . S
C419 N421 1.384 . S
N420 C416 1.427 . S
N420 C417 1.384 . S
N421 C413 1.427 . S
N421 C419 1.384 . S
H422 C428 0.930 . S
H423 C432 0.930 . S
H424 C437 0.929 . S
H425 C435 0.929 . S
H426 C430 0.929 . S
H427 C436 0.929 . S
C428 H422 0.930 . S
C428 C429 1.367 . S
C428 C436 1.378 . S
C429 C428 1.367 . S
C429 C437 1.433 . S
C430 H426 0.929 . S
C430 C432 1.378 . S
C430 C434 1.350 . S
C431 C434 1.463 . S
C431 C436 1.350 . S
C431 N439 1.427 . S
C432 H423 0.930 . S
C432 C430 1.378 . S
C432 C433 1.367 . S
C433 C432 1.367 . S
C433 C435 1.433 . S
C434 C430 1.350 . S
C434 C431 1.463 . S
C434 N438 1.427 . S
C435 H425 0.929 . S
C435 C433 1.433 . S
C435 N438 1.384 . S
C436 H427 0.929 . S
C436 C428 1.378 . S
C436 C431 1.350 . S
C437 H424 0.929 . S
C437 C429 1.433 . S
C437 N439 1.384 . S
N438 C434 1.427 . S
N438 C435 1.384 . S
N439 C431 1.427 . S
N439 C437 1.384 . S
H440 C446 0.930 . S
H441 C450 0.930 . S
H442 C455 0.929 . S
H443 C453 0.929 . S
H444 C448 0.929 . S
H445 C454 0.929 . S
C446 H440 0.930 . S
C446 C447 1.367 . S
C446 C454 1.378 . S
C447 C446 1.367 . S
C447 C455 1.433 . S
C448 H444 0.929 . S
C448 C450 1.378 . S
C448 C452 1.350 . S
C449 C452 1.463 . S
C449 C454 1.350 . S
C449 N457 1.427 . S
C450 H441 0.930 . S
C450 C448 1.378 . S
C450 C451 1.367 . S
C451 C450 1.367 . S
C451 C453 1.433 . S
C452 C448 1.350 . S
C452 C449 1.463 . S
C452 N456 1.427 . S
C453 H443 0.929 . S
C453 C451 1.433 . S
C453 N456 1.384 . S
C454 H445 0.929 . S
C454 C446 1.378 . S
C454 C449 1.350 . S
C455 H442 0.929 . S
C455 C447 1.433 . S
C455 N457 1.384 . S
N456 C452 1.427 . S
N456 C453 1.384 . S
N457 C449 1.427 . S
N457 C455 1.384 . S
H458 C464 0.930 . S
H459 C468 0.930 . S
H460 C473 0.929 . S
H461 C471 0.929 1_655 S
H462 C466 0.929 . S
H463 C472 0.929 . S
C464 H458 0.930 . S
C464 C465 1.367 . S
C464 C472 1.378 . S
C465 C464 1.367 . S
C465 C473 1.433 . S
C466 H462 0.929 . S
C466 C468 1.378 . S
C466 C470 1.350 . S
C467 C470 1.463 . S
C467 C472 1.350 . S
C467 N475 1.427 . S
C468 H459 0.930 . S
C468 C466 1.378 . S
C468 C469 1.367 . S
C469 C468 1.367 . S
C469 C471 1.433 . S
C470 C466 1.350 . S
C470 C467 1.463 . S
C470 N474 1.427 . S
C471 H461 0.929 1_455 S
C471 C469 1.433 . S
C471 N474 1.384 . S
C472 H463 0.929 . S
C472 C464 1.378 . S
C472 C467 1.350 . S
C473 H460 0.929 . S
C473 C465 1.433 . S
C473 N475 1.384 . S
N474 C470 1.427 . S
N474 C471 1.384 . S
N475 C467 1.427 . S
N475 C473 1.384 . S
H476 C482 0.930 . S
H477 C486 0.930 . S
H478 C491 0.929 . S
H479 C489 0.929 . S
H480 C484 0.929 . S
H481 C490 0.929 . S
C482 H476 0.930 . S
C482 C483 1.367 . S
C482 C490 1.378 . S
C483 C482 1.367 . S
C483 C491 1.433 . S
C484 H480 0.929 . S
C484 C486 1.378 . S
C484 C488 1.350 1_545 S
C485 C488 1.463 . S
C485 C490 1.350 . S
C485 N493 1.427 . S
C486 H477 0.930 . S
C486 C484 1.378 . S
C486 C487 1.367 1_545 S
C487 C486 1.367 1_565 S
C487 C489 1.433 1_556 S
C488 C484 1.350 1_565 S
C488 C485 1.463 . S
C488 N492 1.427 . S
C489 H479 0.929 . S
C489 C487 1.433 1_554 S
C489 N492 1.384 1_554 S
C490 H481 0.929 . S
C490 C482 1.378 . S
C490 C485 1.350 . S
C491 H478 0.929 . S
C491 C483 1.433 . S
C491 N493 1.384 . S
N492 C488 1.427 . S
N492 C489 1.384 1_556 S
N493 C485 1.427 . S
N493 C491 1.384 . S
H494 C500 0.930 . S
H495 C504 0.930 . S
H496 C509 0.929 . S
H497 C507 0.929 . S
H498 C502 0.929 . S
H499 C508 0.929 . S
C500 H494 0.930 . S
C500 C501 1.367 . S
C500 C508 1.378 . S
C501 C500 1.367 . S
C501 C509 1.433 . S
C502 H498 0.929 . S
C502 C504 1.378 . S
C502 C506 1.350 . S
C503 C506 1.463 . S
C503 C508 1.350 . S
C503 N511 1.427 . S
C504 H495 0.930 . S
C504 C502 1.378 . S
C504 C505 1.367 . S
C505 C504 1.367 . S
C505 C507 1.433 . S
C506 C502 1.350 . S
C506 C503 1.463 . S
C506 N510 1.427 . S
C507 H497 0.929 . S
C507 C505 1.433 . S
C507 N510 1.384 . S
C508 H499 0.929 . S
C508 C500 1.378 . S
C508 C503 1.350 . S
C509 H496 0.929 . S
C509 C501 1.433 . S
C509 N511 1.384 . S
N510 C506 1.427 . S
N510 C507 1.384 . S
N511 C503 1.427 . S
N511 C509 1.384 . S
H512 C518 0.930 . S
H513 C522 0.930 . S
H514 C527 0.929 . S
H515 C525 0.929 . S
H516 C520 0.929 . S
H517 C526 0.929 . S
C518 H512 0.930 . S
C518 C519 1.367 . S
C518 C526 1.378 . S
C519 C518 1.367 . S
C519 C527 1.433 . S
C520 H516 0.929 . S
C520 C522 1.378 . S
C520 C524 1.350 . S
C521 C524 1.463 . S
C521 C526 1.350 . S
C521 N529 1.427 . S
C522 H513 0.930 . S
C522 C520 1.378 . S
C522 C523 1.367 . S
C523 C522 1.367 . S
C523 C525 1.433 . S
C524 C520 1.350 . S
C524 C521 1.463 . S
C524 N528 1.427 . S
C525 H515 0.929 . S
C525 C523 1.433 . S
C525 N528 1.384 . S
C526 H517 0.929 . S
C526 C518 1.378 . S
C526 C521 1.350 . S
C527 H514 0.929 . S
C527 C519 1.433 . S
C527 N529 1.384 . S
N528 C524 1.427 . S
N528 C525 1.384 . S
N529 C521 1.427 . S
N529 C527 1.384 . S
H530 C536 0.930 . S
H531 C540 0.930 . S
H532 C545 0.929 . S
H533 C543 0.929 . S
H534 C538 0.929 . S
H535 C544 0.929 . S
C536 H530 0.930 . S
C536 C537 1.367 . S
C536 C544 1.378 . S
C537 C536 1.367 . S
C537 C545 1.433 . S
C538 H534 0.929 . S
C538 C540 1.378 . S
C538 C542 1.350 . S
C539 C542 1.463 . S
C539 C544 1.350 . S
C539 N547 1.427 . S
C540 H531 0.930 . S
C540 C538 1.378 . S
C540 C541 1.367 . S
C541 C540 1.367 . S
C541 C543 1.433 . S
C542 C538 1.350 . S
C542 C539 1.463 . S
C542 N546 1.427 . S
C543 H533 0.929 . S
C543 C541 1.433 . S
C543 N546 1.384 . S
C544 H535 0.929 . S
C544 C536 1.378 . S
C544 C539 1.350 . S
C545 H532 0.929 . S
C545 C537 1.433 . S
C545 N547 1.384 . S
N546 C542 1.427 . S
N546 C543 1.384 . S
N547 C539 1.427 . S
N547 C545 1.384 . S
H548 C554 0.930 . S
H549 C558 0.930 1_554 S
H550 C563 0.929 . S
H551 C561 0.929 . S
H552 C556 0.930 1_554 S
H553 C562 0.929 . S
C554 H548 0.930 . S
C554 C555 1.367 . S
C554 C562 1.378 . S
C555 C554 1.367 . S
C555 C563 1.433 . S
C556 H552 0.930 1_556 S
C556 C558 1.378 . S
C556 C560 1.350 . S
C557 C560 1.463 . S
C557 C562 1.350 . S
C557 N565 1.427 . S
C558 H549 0.930 1_556 S
C558 C556 1.378 . S
C558 C559 1.367 . S
C559 C558 1.367 . S
C559 C561 1.433 . S
C560 C556 1.350 . S
C560 C557 1.463 . S
C560 N564 1.427 . S
C561 H551 0.929 . S
C561 C559 1.433 . S
C561 N564 1.384 . S
C562 H553 0.929 . S
C562 C554 1.378 . S
C562 C557 1.350 . S
C563 H550 0.929 . S
C563 C555 1.433 . S
C563 N565 1.384 . S
N564 C560 1.427 . S
N564 C561 1.384 . S
N565 C557 1.427 . S
N565 C563 1.384 . S
H566 C572 0.930 . S
H567 C576 0.930 . S
H568 C581 0.929 . S
H569 C579 0.929 . S
H570 C574 0.929 . S
H571 C580 0.929 . S
C572 H566 0.930 . S
C572 C573 1.367 . S
C572 C580 1.378 . S
C573 C572 1.367 . S
C573 C581 1.433 . S
C574 H570 0.929 . S
C574 C576 1.378 . S
C574 C578 1.350 . S
C575 C578 1.463 . S
C575 C580 1.350 . S
C575 N583 1.427 . S
C576 H567 0.930 . S
C576 C574 1.378 . S
C576 C577 1.367 . S
C577 C576 1.367 . S
C577 C579 1.433 . S
C578 C574 1.350 . S
C578 C575 1.463 . S
C578 N582 1.427 . S
C579 H569 0.929 . S
C579 C577 1.433 . S
C579 N582 1.384 . S
C580 H571 0.929 . S
C580 C572 1.378 . S
C580 C575 1.350 . S
C581 H568 0.929 . S
C581 C573 1.433 . S
C581 N583 1.384 . S
N582 C578 1.427 . S
N582 C579 1.384 . S
N583 C575 1.427 . S
N583 C581 1.384 . S
H584 C590 0.930 . S
H585 C594 0.930 . S
H586 C599 0.929 . S
H587 C597 0.929 . S
H588 C592 0.929 . S
H589 C598 0.929 . S
C590 H584 0.930 . S
C590 C591 1.367 . S
C590 C598 1.378 . S
C591 C590 1.367 . S
C591 C599 1.433 . S
C592 H588 0.929 . S
C592 C594 1.378 . S
C592 C596 1.350 . S
C593 C596 1.463 . S
C593 C598 1.350 . S
C593 N601 1.427 . S
C594 H585 0.930 . S
C594 C592 1.378 . S
C594 C595 1.367 . S
C595 C594 1.367 . S
C595 C597 1.433 . S
C596 C592 1.350 . S
C596 C593 1.463 . S
C596 N600 1.427 . S
C597 H587 0.929 . S
C597 C595 1.433 . S
C597 N600 1.384 . S
C598 H589 0.929 . S
C598 C590 1.378 . S
C598 C593 1.350 . S
C599 H586 0.929 . S
C599 C591 1.433 . S
C599 N601 1.384 . S
N600 C596 1.427 . S
N600 C597 1.384 . S
N601 C593 1.427 . S
N601 C599 1.384 . S
H602 C608 0.930 . S
H603 C612 0.930 . S
H604 C617 0.929 . S
H605 C615 0.929 . S
H606 C610 0.929 . S
H607 C616 0.929 . S
C608 H602 0.930 . S
C608 C609 1.367 . S
C608 C616 1.378 . S
C609 C608 1.367 . S
C609 C617 1.433 . S
C610 H606 0.929 . S
C610 C612 1.378 . S
C610 C614 1.350 . S
C611 C614 1.463 . S
C611 C616 1.350 . S
C611 N619 1.427 . S
C612 H603 0.930 . S
C612 C610 1.378 . S
C612 C613 1.367 . S
C613 C612 1.367 . S
C613 C615 1.433 . S
C614 C610 1.350 . S
C614 C611 1.463 . S
C614 N618 1.427 . S
C615 H605 0.929 . S
C615 C613 1.433 . S
C615 N618 1.384 . S
C616 H607 0.929 . S
C616 C608 1.378 . S
C616 C611 1.350 . S
C617 H604 0.929 . S
C617 C609 1.433 . S
C617 N619 1.384 . S
N618 C614 1.427 . S
N618 C615 1.384 . S
N619 C611 1.427 . S
N619 C617 1.384 . S
C195 N1 1.519 . S
C199 C120 1.512 . S
C213 N18 1.763 . S
C217 C142 1.725 . S
C235 C161 0.900 . S
C231 N28 1.057 . S
C249 N40 1.850 . S
C253 C182 1.555 . S
C271 C139 2.012 . S
C267 N5 2.086 . S
C289 C117 1.617 . S
C285 N14 1.657 . S
C307 C184 1.288 . S
C303 N31 1.331 . S
C325 C163 1.090 . S
C321 N41 1.141 . S
C339 N2 1.571 . S
C343 C181 1.533 . S
C361 C140 1.364 1_556 S
C357 N27 1.624 . S
C375 N44 1.714 . S
C379 C122 1.513 1_655 S
C393 N15 1.357 . S
C397 C160 1.302 . S
C415 C118 1.809 . S
C411 N57 1.885 . S
C429 N70 1.198 . S
C433 C138 1.189 . S
C447 N79 1.390 . S
C451 C164 1.244 . S
C465 N93 1.468 . S
C469 C185 1.256 . S
C483 N54 1.587 . S
C487 C141 1.545 1_556 S
C505 C121 2.081 . S
C501 N66 2.119 . S
C523 C180 0.809 . S
C519 N80 0.823 . S
C541 C159 1.452 . S
C537 N96 1.494 . S
C555 N53 1.514 . S
C559 C183 1.500 . S
C577 C143 1.197 . S
C573 N83 1.403 . S
C595 C119 1.432 . S
C591 N92 1.575 . S
C609 N67 1.390 . S
C613 C162 1.364 . S
