# Generated by pormake.
# Topology nom, (4,4)-cn, num edge types: 1
# Building blocks:
#     Node 0, Type 0, BuildingBlock: MIFKUJ_clean_linker_1, # of connection points: 4
#     Node 1, Type 0, BuildingBlock: MIFKUJ_clean_linker_1, # of connection points: 4
#     Node 2, Type 0, BuildingBlock: MIFKUJ_clean_linker_1, # of connection points: 4
#     Node 3, Type 0, BuildingBlock: MIFKUJ_clean_linker_1, # of connection points: 4
#     Node 4, Type 0, BuildingBlock: MIFKUJ_clean_linker_1, # of connection points: 4
#     Node 5, Type 0, BuildingBlock: MIFKUJ_clean_linker_1, # of connection points: 4
#     Node 6, Type 1, BuildingBlock: TATPOV_clean_sbu_0, # of connection points: 4
#     Node 7, Type 1, BuildingBlock: TATPOV_clean_sbu_0, # of connection points: 4
#     Node 8, Type 1, BuildingBlock: TATPOV_clean_sbu_0, # of connection points: 4
#     Node 9, Type 1, BuildingBlock: TATPOV_clean_sbu_0, # of connection points: 4
#     Node 10, Type 1, BuildingBlock: TATPOV_clean_sbu_0, # of connection points: 4
#     Node 11, Type 1, BuildingBlock: TATPOV_clean_sbu_0, # of connection points: 4
#     Edge 12, Type (0, 1), BuildingBlock: UVAHIK_clean_linker_0, # of connection points: 2
#     Edge 13, Type (0, 1), BuildingBlock: UVAHIK_clean_linker_0, # of connection points: 2
#     Edge 14, Type (0, 1), BuildingBlock: UVAHIK_clean_linker_0, # of connection points: 2
#     Edge 15, Type (0, 1), BuildingBlock: UVAHIK_clean_linker_0, # of connection points: 2
#     Edge 16, Type (0, 1), BuildingBlock: UVAHIK_clean_linker_0, # of connection points: 2
#     Edge 17, Type (0, 1), BuildingBlock: UVAHIK_clean_linker_0, # of connection points: 2
#     Edge 18, Type (0, 1), BuildingBlock: UVAHIK_clean_linker_0, # of connection points: 2
#     Edge 19, Type (0, 1), BuildingBlock: UVAHIK_clean_linker_0, # of connection points: 2
#     Edge 20, Type (0, 1), BuildingBlock: UVAHIK_clean_linker_0, # of connection points: 2
#     Edge 21, Type (0, 1), BuildingBlock: UVAHIK_clean_linker_0, # of connection points: 2
#     Edge 22, Type (0, 1), BuildingBlock: UVAHIK_clean_linker_0, # of connection points: 2
#     Edge 23, Type (0, 1), BuildingBlock: UVAHIK_clean_linker_0, # of connection points: 2
#     Edge 24, Type (0, 1), BuildingBlock: UVAHIK_clean_linker_0, # of connection points: 2
#     Edge 25, Type (0, 1), BuildingBlock: UVAHIK_clean_linker_0, # of connection points: 2
#     Edge 26, Type (0, 1), BuildingBlock: UVAHIK_clean_linker_0, # of connection points: 2
#     Edge 27, Type (0, 1), BuildingBlock: UVAHIK_clean_linker_0, # of connection points: 2
#     Edge 28, Type (0, 1), BuildingBlock: UVAHIK_clean_linker_0, # of connection points: 2
#     Edge 29, Type (0, 1), BuildingBlock: UVAHIK_clean_linker_0, # of connection points: 2
#     Edge 30, Type (0, 1), BuildingBlock: UVAHIK_clean_linker_0, # of connection points: 2
#     Edge 31, Type (0, 1), BuildingBlock: UVAHIK_clean_linker_0, # of connection points: 2
#     Edge 32, Type (0, 1), BuildingBlock: UVAHIK_clean_linker_0, # of connection points: 2
#     Edge 33, Type (0, 1), BuildingBlock: UVAHIK_clean_linker_0, # of connection points: 2
#     Edge 34, Type (0, 1), BuildingBlock: UVAHIK_clean_linker_0, # of connection points: 2
#     Edge 35, Type (0, 1), BuildingBlock: UVAHIK_clean_linker_0, # of connection points: 2
# Relax obj value: 0.019
# Max RMSD: 0.115
# Mean RMSD: 0.104
data_MOF--net-nom--node1-TATPOV_clean_sbu_0--node2-MIFKUJ_clean_linker_1--edge1-UVAHIK_clean_linker_0
_symmetry_space_group_name_H-M    P1
_symmetry_Int_Tables_number       1
_symmetry_cell_setting            triclinic
loop_
_symmetry_equiv_pos_as_xyz
'x, y, z'
_cell_length_a     65.597866
_cell_length_b     66.465281
_cell_length_c     69.68982
_cell_angle_alpha  90.607467
_cell_angle_beta   90.623698
_cell_angle_gamma 120.00568
loop_
_atom_site_label
_atom_site_type_symbol
_atom_site_fract_x
_atom_site_fract_y
_atom_site_fract_z
_atom_type_partial_charge
H0 H 0.97894 0.43523 0.27525 0.0
H1 H 0.94938 0.42528 0.24961 0.0
H2 H 0.92463 0.46681 0.27828 0.0
H3 H 0.95465 0.47728 0.3034 0.0
H4 H 0.015 0.47956 0.28556 0.0
H5 H 0.94421 0.41802 0.31575 0.0
H6 H 0.90366 0.40121 0.32709 0.0
H7 H 0.92533 0.46111 0.36433 0.0
H8 H 0.9653 0.47809 0.35267 0.0
H9 H 0.02371 0.51103 0.36298 0.0
H10 H 0.05372 0.53236 0.38763 0.0
H11 H 0.09697 0.50652 0.36377 0.0
H12 H 0.06626 0.48434 0.3394 0.0
H13 H 0.99706 0.46743 0.35481 0.0
H14 H 0.05448 0.53332 0.32286 0.0
H15 H 0.0937 0.56166 0.31224 0.0
H16 H 0.09708 0.5079 0.27942 0.0
H17 H 0.05756 0.47943 0.29021 0.0
C18 C 0.9688 0.45675 0.29134 0.0
C19 C 0.96705 0.44209 0.276 0.0
C20 C 0.95005 0.43629 0.26145 0.0
C21 C 0.93463 0.44524 0.2619 0.0
C22 C 0.93638 0.45981 0.27738 0.0
C23 C 0.95337 0.46562 0.29187 0.0
C24 C 0.98749 0.46379 0.30632 0.0
C25 C 0.01108 0.47639 0.30068 0.0
C26 C 0.98232 0.46059 0.32612 0.0
C27 C 0.95786 0.44939 0.3333 0.0
C28 C 0.94018 0.42755 0.3263 0.0
C29 C 0.91707 0.41793 0.3328 0.0
C30 C 0.91145 0.42978 0.3467 0.0
C31 C 0.92924 0.45139 0.35387 0.0
C32 C 0.95212 0.46111 0.3472 0.0
C33 C 0.04271 0.49609 0.34929 0.0
C34 C 0.03953 0.50972 0.36314 0.0
C35 C 0.05687 0.52217 0.37709 0.0
C36 C 0.07788 0.52137 0.37754 0.0
C37 C 0.08095 0.50743 0.36385 0.0
C38 C 0.06349 0.49487 0.34985 0.0
C39 C 0.02437 0.48382 0.33409 0.0
C40 C 0.00094 0.47002 0.33964 0.0
C41 C 0.0295 0.48716 0.31432 0.0
C42 C 0.05331 0.50418 0.30764 0.0
C43 C 0.06376 0.52755 0.31357 0.0
C44 C 0.08621 0.54373 0.30751 0.0
C45 C 0.09862 0.53696 0.29518 0.0
C46 C 0.08793 0.51363 0.28889 0.0
C47 C 0.06542 0.49736 0.29507 0.0
H48 H 0.48388 0.97758 0.51827 0.0
H49 H 0.4603 0.93913 0.53146 0.0
H50 H 0.50703 0.91798 0.50678 0.0
H51 H 0.5304 0.95675 0.49309 0.0
H52 H 0.52895 0.00995 0.52447 0.0
H53 H 0.47909 0.96376 0.47282 0.0
H54 H 0.4611 0.93214 0.44916 0.0
H55 H 0.52904 0.95613 0.42364 0.0
H56 H 0.54716 0.98721 0.44807 0.0
H57 H 0.58031 0.06643 0.45965 0.0
H58 H 0.59163 0.10524 0.44783 0.0
H59 H 0.53063 0.10126 0.47465 0.0
H60 H 0.51971 0.06286 0.48653 0.0
H61 H 0.53724 0.0228 0.45432 0.0
H62 H 0.58298 0.07587 0.50712 0.0
H63 H 0.59256 0.10759 0.53027 0.0
H64 H 0.52207 0.0693 0.55229 0.0
H65 H 0.51248 0.03816 0.52894 0.0
C66 C 0.50894 0.97006 0.50476 0.0
C67 C 0.4892 0.96475 0.51583 0.0
C68 C 0.47579 0.94273 0.52346 0.0
C69 C 0.48191 0.92548 0.52042 0.0
C70 C 0.50176 0.93082 0.50932 0.0
C71 C 0.51517 0.95295 0.50154 0.0
C72 C 0.52248 0.99356 0.49655 0.0
C73 C 0.53092 0.01276 0.50913 0.0
C74 C 0.52523 0.9972 0.47654 0.0
C75 C 0.51455 0.97761 0.46243 0.0
C76 C 0.49022 0.96195 0.46239 0.0
C77 C 0.4799 0.94404 0.44867 0.0
C78 C 0.49361 0.94163 0.43444 0.0
C79 C 0.51802 0.95729 0.43455 0.0
C80 C 0.52838 0.97517 0.4484 0.0
C81 C 0.54943 0.062 0.47423 0.0
C82 C 0.56939 0.07396 0.46288 0.0
C83 C 0.57577 0.09607 0.4561 0.0
C84 C 0.56217 0.10646 0.46049 0.0
C85 C 0.54179 0.09403 0.47138 0.0
C86 C 0.53548 0.07203 0.47813 0.0
C87 C 0.54299 0.03906 0.48227 0.0
C88 C 0.53605 0.02002 0.46968 0.0
C89 C 0.54076 0.03542 0.50227 0.0
C90 C 0.547 0.05467 0.51629 0.0
C91 C 0.56959 0.07444 0.51687 0.0
C92 C 0.57507 0.09247 0.53016 0.0
C93 C 0.55803 0.09101 0.54302 0.0
C94 C 0.53548 0.07115 0.54237 0.0
C95 C 0.53005 0.0532 0.52917 0.0
H96 H 0.5238 0.56677 0.69245 0.0
H97 H 0.50687 0.57949 0.71763 0.0
H98 H 0.43704 0.53154 0.69536 0.0
H99 H 0.45406 0.51829 0.67071 0.0
H100 H 0.51685 0.52305 0.68783 0.0
H101 H 0.50297 0.57587 0.64797 0.0
H102 H 0.47737 0.58984 0.63521 0.0
H103 H 0.42974 0.52121 0.61202 0.0
H104 H 0.45532 0.50735 0.62484 0.0
H105 H 0.49711 0.48101 0.61102 0.0
H106 H 0.51475 0.46643 0.588 0.0
H107 H 0.58294 0.50978 0.61512 0.0
H108 H 0.56539 0.525 0.63748 0.0
H109 H 0.50238 0.52205 0.6177 0.0
H110 H 0.51099 0.46787 0.65375 0.0
H111 H 0.52925 0.44699 0.66744 0.0
H112 H 0.57839 0.50874 0.69958 0.0
H113 H 0.5601 0.52976 0.6856 0.0
C114 C 0.49022 0.54171 0.67962 0.0
C115 C 0.50485 0.55915 0.69293 0.0
C116 C 0.49515 0.56653 0.7072 0.0
C117 C 0.4706 0.55653 0.70851 0.0
C118 C 0.45601 0.53944 0.69487 0.0
C119 C 0.46572 0.53202 0.68063 0.0
C120 C 0.50053 0.53264 0.66551 0.0
C121 C 0.51416 0.52331 0.67247 0.0
C122 C 0.49587 0.53175 0.64557 0.0
C123 C 0.48095 0.54057 0.63742 0.0
C124 C 0.48703 0.56388 0.64012 0.0
C125 C 0.47248 0.57184 0.63275 0.0
C126 C 0.45155 0.55657 0.62268 0.0
C127 C 0.44564 0.53329 0.61988 0.0
C128 C 0.4603 0.52541 0.62707 0.0
C129 C 0.5299 0.50402 0.62604 0.0
C130 C 0.51589 0.48746 0.61192 0.0
C131 C 0.52595 0.47894 0.59891 0.0
C132 C 0.55026 0.48687 0.59975 0.0
C133 C 0.56422 0.50346 0.61393 0.0
C134 C 0.55417 0.51204 0.62685 0.0
C135 C 0.51921 0.51295 0.63998 0.0
C136 C 0.50543 0.52211 0.63304 0.0
C137 C 0.52305 0.51296 0.66002 0.0
C138 C 0.53443 0.5005 0.66838 0.0
C139 C 0.52593 0.47706 0.66351 0.0
C140 C 0.5364 0.46514 0.67134 0.0
C141 C 0.55542 0.47631 0.68443 0.0
C142 C 0.56373 0.49969 0.68956 0.0
C143 C 0.55332 0.5117 0.68158 0.0
H144 H 0.01961 0.53021 0.77016 0.0
H145 H 0.05052 0.54701 0.74627 0.0
H146 H 0.08697 0.51602 0.77413 0.0
H147 H 0.05566 0.49862 0.79771 0.0
H148 H 0.98926 0.48708 0.77813 0.0
H149 H 0.05367 0.55146 0.8148 0.0
H150 H 0.09288 0.57375 0.83 0.0
H151 H 0.08126 0.51216 0.85958 0.0
H152 H 0.04233 0.49021 0.84457 0.0
H153 H 0.97389 0.45326 0.85586 0.0
H154 H 0.94438 0.4398 0.88094 0.0
H155 H 0.91218 0.47561 0.85401 0.0
H156 H 0.94156 0.48874 0.82887 0.0
H157 H 0.00579 0.49734 0.84826 0.0
H158 H 0.94576 0.43269 0.81305 0.0
H159 H 0.90541 0.40737 0.8015 0.0
H160 H 0.90819 0.46464 0.77044 0.0
H161 H 0.94882 0.48976 0.78181 0.0
C162 C 0.03542 0.5134 0.78592 0.0
C163 C 0.03419 0.52692 0.7711 0.0
C164 C 0.05183 0.5365 0.75745 0.0
C165 C 0.07115 0.53285 0.7584 0.0
C166 C 0.07242 0.51933 0.77322 0.0
C167 C 0.05458 0.50947 0.78673 0.0
C168 C 0.01634 0.50302 0.80017 0.0
C169 C 0.99292 0.48964 0.79346 0.0
C170 C 0.02101 0.50557 0.8202 0.0
C171 C 0.04512 0.51917 0.82855 0.0
C172 C 0.05971 0.54279 0.82447 0.0
C173 C 0.08206 0.55549 0.83316 0.0
C174 C 0.09005 0.54478 0.84617 0.0
C175 C 0.07544 0.52107 0.84999 0.0
C176 C 0.05323 0.50845 0.84132 0.0
C177 C 0.95989 0.47195 0.84048 0.0
C178 C 0.96033 0.45803 0.85529 0.0
C179 C 0.94351 0.45042 0.86964 0.0
C180 C 0.92599 0.45673 0.86955 0.0
C181 C 0.92521 0.47016 0.85438 0.0
C182 C 0.94204 0.47773 0.84002 0.0
C183 C 0.97893 0.4816 0.82621 0.0
C184 C 0.00224 0.49488 0.83291 0.0
C185 C 0.97424 0.47862 0.80623 0.0
C186 C 0.95015 0.46315 0.79846 0.0
C187 C 0.93766 0.43976 0.80374 0.0
C188 C 0.91457 0.42535 0.79718 0.0
C189 C 0.90347 0.43403 0.78518 0.0
C190 C 0.91627 0.45734 0.77951 0.0
C191 C 0.93945 0.47175 0.78604 0.0
H192 H 0.58619 0.05361 0.01476 0.0
H193 H 0.60904 0.09389 0.02637 0.0
H194 H 0.55673 0.10803 0.00206 0.0
H195 H 0.53374 0.06762 0.99076 0.0
H196 H 0.5417 0.0198 0.02312 0.0
H197 H 0.58128 0.06029 0.96202 0.0
H198 H 0.58897 0.08874 0.93701 0.0
H199 H 0.51411 0.06292 0.93124 0.0
H200 H 0.50672 0.03398 0.95543 0.0
H201 H 0.48093 0.96188 0.95935 0.0
H202 H 0.46369 0.92174 0.94755 0.0
H203 H 0.51865 0.91586 0.97725 0.0
H204 H 0.53536 0.95567 0.9893 0.0
H205 H 0.52222 -0.00056 0.95407 0.0
H206 H 0.47876 0.95933 0.00591 0.0
H207 H 0.46073 0.93107 0.03125 0.0
H208 H 0.52908 0.95643 0.05821 0.0
H209 H 0.54723 0.9844 0.03238 0.0
C210 C 0.55845 0.05766 0.00161 0.0
C211 C 0.5796 0.06536 0.01199 0.0
C212 C 0.5926 0.08835 0.01866 0.0
C213 C 0.58472 0.10413 0.01505 0.0
C214 C 0.56342 0.09635 0.0048 0.0
C215 C 0.55031 0.07328 -0.00172 0.0
C216 C 0.54486 0.03317 0.99462 0.0
C217 C 0.53786 0.01533 0.00799 0.0
C218 C 0.53838 0.02728 0.97507 0.0
C219 C 0.54344 0.04503 0.96044 0.0
C220 C 0.56661 0.06083 0.95527 0.0
C221 C 0.57094 0.07717 0.94107 0.0
C222 C 0.55215 0.07809 0.93194 0.0
C223 C 0.52901 0.06241 0.93753 0.0
C224 C 0.52471 0.04593 0.95147 0.0
C225 C 0.5093 0.9617 0.97534 0.0
C226 C 0.48922 0.95189 0.96331 0.0
C227 C 0.47945 0.92897 0.95651 0.0
C228 C 0.48973 0.9155 0.96149 0.0
C229 C 0.50997 0.92551 0.97344 0.0
C230 C 0.51962 0.94833 0.9803 0.0
C231 C 0.51996 0.98607 0.98247 0.0
C232 C 0.52632 0.00384 0.96919 0.0
C233 C 0.52483 0.99186 0.00222 0.0
C234 C 0.51439 0.97387 0.01714 0.0
C235 C 0.48996 0.95856 0.01706 0.0
C236 C 0.47963 0.94256 0.03167 0.0
C237 C 0.49347 0.94162 0.04678 0.0
C238 C 0.518 0.95663 0.04667 0.0
C239 C 0.52836 0.97271 0.03201 0.0
H240 H 0.47625 0.46748 0.20611 0.0
H241 H 0.4836 0.4461 0.23111 0.0
H242 H 0.55682 0.47986 0.21573 0.0
H243 H 0.54967 0.5018 0.1913 0.0
H244 H 0.4937 0.51319 0.20311 0.0
H245 H 0.49639 0.45343 0.15974 0.0
H246 H 0.51668 0.43309 0.14796 0.0
H247 H 0.57909 0.49919 0.13845 0.0
H248 H 0.55869 0.51935 0.14974 0.0
H249 H 0.52625 0.55715 0.12844 0.0
H250 H 0.51324 0.57259 0.10219 0.0
H251 H 0.44219 0.53549 0.12314 0.0
H252 H 0.45511 0.5197 0.14895 0.0
H253 H 0.5138 0.51329 0.13465 0.0
H254 H 0.51459 0.57331 0.17111 0.0
H255 H 0.50055 0.59914 0.18205 0.0
H256 H 0.43973 0.54069 0.20647 0.0
H257 H 0.45419 0.51494 0.19571 0.0
C258 C 0.51231 0.486 0.1966 0.0
C259 C 0.49387 0.47022 0.20808 0.0
C260 C 0.49805 0.45799 0.2223 0.0
C261 C 0.52072 0.46118 0.22518 0.0
C262 C 0.53909 0.47673 0.21353 0.0
C263 C 0.53499 0.48923 0.19953 0.0
C264 C 0.50791 0.49968 0.18212 0.0
C265 C 0.49773 0.51289 0.18809 0.0
C266 C 0.51434 0.5004 0.16272 0.0
C267 C 0.52613 0.48784 0.15562 0.0
C268 C 0.51441 0.46346 0.15505 0.0
C269 C 0.52594 0.45191 0.14832 0.0
C270 C 0.54942 0.46465 0.14245 0.0
C271 C 0.56105 0.48903 0.14307 0.0
C272 C 0.54941 0.50052 0.1494 0.0
C273 C 0.49167 0.53732 0.14068 0.0
C274 C 0.50792 0.55252 0.12744 0.0
C275 C 0.50051 0.56147 0.11256 0.0
C276 C 0.47668 0.55516 0.11059 0.0
C277 C 0.46061 0.54047 0.1242 0.0
C278 C 0.46802 0.5316 0.13905 0.0
C279 C 0.49892 0.52619 0.15552 0.0
C280 C 0.50964 0.51351 0.14965 0.0
C281 C 0.49367 0.52656 0.1751 0.0
C282 C 0.48529 0.54216 0.1824 0.0
C283 C 0.4982 0.56604 0.17878 0.0
C284 C 0.4901 0.58078 0.18499 0.0
C285 C 0.46889 0.57197 0.19498 0.0
C286 C 0.45623 0.54808 0.19896 0.0
C287 C 0.46442 0.53333 0.19278 0.0
Zn288 Zn 0.66604 0.43263 0.40736 0.0
Zn289 Zn 0.64161 0.38657 0.4114 0.0
O290 O 0.67512 0.39384 0.40483 0.0
O291 O 0.69491 0.43138 0.39964 0.0
O292 O 0.62548 0.35214 0.41588 0.0
O293 O 0.66103 0.43752 0.435 0.0
O294 O 0.63751 0.39976 0.43722 0.0
C295 C 0.6941 0.41196 0.40018 0.0
C296 C 0.62521 0.40887 0.38189 0.0
O297 O 0.62332 0.39041 0.38892 0.0
O298 O 0.64129 0.42868 0.38777 0.0
C299 C 0.62702 0.33858 0.40373 0.0
O300 O 0.63815 0.34715 0.38766 0.0
C301 C 0.64678 0.42017 0.44459 0.0
Zn302 Zn 0.23917 0.67729 0.573 0.0
Zn303 Zn 0.26129 0.65205 0.57247 0.0
O304 O 0.28782 0.68617 0.57095 0.0
O305 O 0.2705 0.70716 0.57322 0.0
O306 O 0.27929 0.63484 0.57368 0.0
O307 O 0.22431 0.66273 0.59817 0.0
O308 O 0.24226 0.64224 0.59732 0.0
C309 C 0.28904 0.70589 0.57168 0.0
C310 C 0.22691 0.64536 0.54007 0.0
O311 O 0.24082 0.63971 0.5481 0.0
O312 O 0.22362 0.66094 0.54762 0.0
C313 C 0.29781 0.64136 0.56399 0.0
O314 O 0.30453 0.65885 0.55228 0.0
C315 C 0.22853 0.64785 0.60559 0.0
Zn316 Zn 0.5615 0.24074 0.74164 0.0
Zn317 Zn 0.60887 0.26131 0.744 0.0
O318 O 0.6027 0.28864 0.74348 0.0
O319 O 0.5641 0.27237 0.7434 0.0
O320 O 0.64404 0.27744 0.74705 0.0
O321 O 0.5591 0.22279 0.76565 0.0
O322 O 0.59779 0.24103 0.76787 0.0
C323 C 0.58427 0.29046 0.74352 0.0
C324 C 0.58254 0.23096 0.70901 0.0
O325 O 0.60169 0.2431 0.71849 0.0
O326 O 0.56325 0.22782 0.71561 0.0
C327 C 0.65773 0.29126 0.73458 0.0
O328 O 0.64869 0.29455 0.71882 0.0
C329 C 0.57773 0.22649 0.7744 0.0
Zn330 Zn 0.34394 0.58143 0.91153 0.0
Zn331 Zn 0.37128 0.62754 0.91141 0.0
O332 O 0.33743 0.62215 0.90994 0.0
O333 O 0.31497 0.58434 0.91315 0.0
O334 O 0.3908 0.66236 0.91369 0.0
O335 O 0.35943 0.57926 0.93571 0.0
O336 O 0.38133 0.61736 0.93606 0.0
C337 C 0.31712 0.60423 0.91139 0.0
C338 C 0.37379 0.59889 0.87819 0.0
O339 O 0.38152 0.61865 0.88646 0.0
O340 O 0.35761 0.58074 0.88579 0.0
C341 C 0.38894 0.67593 0.902 0.0
O342 O 0.37449 0.66708 0.88714 0.0
C343 C 0.37531 0.59783 0.94363 0.0
Zn344 Zn 0.77284 0.44096 0.06914 0.0
Zn345 Zn 0.7515 0.39423 0.0664 0.0
O346 O 0.72446 0.40092 0.07083 0.0
O347 O 0.74121 0.43906 0.07102 0.0
O348 O 0.73391 0.35956 0.06182 0.0
O349 O 0.78765 0.44401 0.0433 0.0
O350 O 0.76996 0.40587 0.04136 0.0
C351 C 0.7229 0.41925 0.07204 0.0
C352 C 0.7864 0.41932 0.09925 0.0
O353 O 0.77255 0.40038 0.0903 0.0
O354 O 0.78915 0.43845 0.09322 0.0
C355 C 0.72774 0.34421 0.07462 0.0
O356 O 0.73352 0.3507 0.09267 0.0
C357 C 0.78343 0.4257 0.03421 0.0
Zn358 Zn 0.34549 0.7838 0.23934 0.0
Zn359 Zn 0.36981 0.76115 0.23775 0.0
O360 O 0.33506 0.73522 0.23908 0.0
O361 O 0.31481 0.75342 0.23931 0.0
O362 O 0.38648 0.74286 0.2348 0.0
O363 O 0.35974 0.79962 0.21447 0.0
O364 O 0.37989 0.78131 0.21364 0.0
C365 C 0.31537 0.73466 0.23953 0.0
C366 C 0.37795 0.79379 0.27163 0.0
O367 O 0.38301 0.77995 0.2629 0.0
O368 O 0.36259 0.79799 0.26459 0.0
C369 C 0.38348 0.72703 0.24641 0.0
O370 O 0.36991 0.72316 0.26127 0.0
C371 C 0.37453 0.79559 0.20632 0.0
C372 C 0.12879 0.55537 0.26947 0.0
C373 C 0.12245 0.55447 0.28878 0.0
C374 C 0.15048 0.57326 0.26324 0.0
C375 C 0.2026 0.60832 0.25606 0.0
H376 H 0.21939 0.66967 0.27554 0.0
C377 C 0.29343 0.6916 0.24498 0.0
C378 C 0.29317 0.71232 0.24169 0.0
C379 C 0.27258 0.67112 0.24911 0.0
C380 C 0.21488 0.65269 0.26984 0.0
H381 H 0.1345 0.57069 0.31692 0.0
H382 H 0.17223 0.60185 0.30607 0.0
H383 H 0.18359 0.63598 0.2863 0.0
H384 H 0.27061 0.72742 0.23909 0.0
H385 H 0.23443 0.6918 0.24612 0.0
H386 H 0.23395 0.62531 0.23942 0.0
C387 C 0.16026 0.58905 0.29566 0.0
C388 C 0.19452 0.63334 0.2762 0.0
C389 C 0.13865 0.57121 0.30187 0.0
C390 C 0.27151 0.71186 0.24176 0.0
C391 C 0.25076 0.69146 0.24588 0.0
C392 C 0.22314 0.62777 0.24975 0.0
C393 C 0.16621 0.59058 0.27621 0.0
C394 C 0.18813 0.61093 0.26942 0.0
C395 C 0.25112 0.67101 0.25006 0.0
C396 C 0.22941 0.65017 0.25652 0.0
H397 H 0.11661 0.54279 0.25902 0.0
H398 H 0.15451 0.57407 0.24814 0.0
H399 H 0.19816 0.59125 0.25065 0.0
H400 H 0.30981 0.69135 0.24501 0.0
H401 H 0.27342 0.65564 0.25234 0.0
C402 C 0.56715 0.14595 0.4665 0.0
C403 C 0.56927 0.13031 0.45408 0.0
C404 C 0.57329 0.16822 0.46052 0.0
C405 C 0.58233 0.20294 0.4171 0.0
H406 H 0.61443 0.25491 0.45295 0.0
C407 C 0.62095 0.29912 0.39538 0.0
C408 C 0.61828 0.31393 0.40839 0.0
C409 C 0.61431 0.27635 0.40038 0.0
C410 C 0.60522 0.24055 0.44283 0.0
H411 H 0.5796 0.12591 0.42559 0.0
H412 H 0.59082 0.16507 0.41524 0.0
H413 H 0.605 0.21619 0.46274 0.0
H414 H 0.60584 0.31616 0.43662 0.0
H415 H 0.59413 0.27644 0.44525 0.0
H416 H 0.58271 0.22745 0.39716 0.0
C417 C 0.58409 0.15993 0.42956 0.0
C418 C 0.59983 0.21834 0.44844 0.0
C419 C 0.57792 0.13759 0.43556 0.0
C420 C 0.60825 0.30527 0.42629 0.0
C421 C 0.60168 0.28254 0.4313 0.0
C422 C 0.58779 0.2252 0.41146 0.0
C423 C 0.58181 0.1755 0.44197 0.0
C424 C 0.58818 0.19923 0.4357 0.0
C425 C 0.60492 0.26792 0.41851 0.0
C426 C 0.59917 0.24423 0.42432 0.0
H427 H 0.56084 0.14102 0.48096 0.0
H428 H 0.57105 0.17964 0.47039 0.0
H429 H 0.57308 0.18855 0.40701 0.0
H430 H 0.62863 0.30524 0.38147 0.0
H431 H 0.61718 0.26558 0.39026 0.0
C432 C 0.44493 0.58569 0.60528 0.0
C433 C 0.43577 0.56479 0.61527 0.0
C434 C 0.42999 0.59336 0.59825 0.0
C435 C 0.36694 0.57306 0.587 0.0
H436 H 0.38791 0.63891 0.58967 0.0
C437 C 0.30477 0.61085 0.57835 0.0
C438 C 0.31279 0.63086 0.56724 0.0
C439 C 0.31961 0.60198 0.58262 0.0
C440 C 0.38192 0.62049 0.58863 0.0
H441 H 0.40391 0.53569 0.62603 0.0
H442 H 0.37787 0.54928 0.61422 0.0
H443 H 0.4142 0.62523 0.60058 0.0
H444 H 0.34249 0.65691 0.5515 0.0
H445 H 0.36841 0.6415 0.5591 0.0
H446 H 0.33436 0.5684 0.57555 0.0
C447 C 0.39649 0.55949 0.61131 0.0
C448 C 0.397 0.61263 0.59484 0.0
C449 C 0.4114 0.55173 0.61816 0.0
C450 C 0.33576 0.64148 0.56011 0.0
C451 C 0.35067 0.63275 0.56454 0.0
C452 C 0.35178 0.58092 0.58097 0.0
C453 C 0.40557 0.5804 0.60124 0.0
C454 C 0.38969 0.5888 0.59417 0.0
C455 C 0.34283 0.61307 0.57602 0.0
C456 C 0.3591 0.60471 0.58177 0.0
H457 H 0.46362 0.59596 0.60266 0.0
H458 H 0.43758 0.60933 0.59029 0.0
H459 H 0.36085 0.55464 0.58593 0.0
H460 H 0.28715 0.60224 0.58404 0.0
H461 H 0.31315 0.58687 0.5916 0.0
C462 C 0.86194 0.40352 0.79207 0.0
C463 C 0.87846 0.41894 0.77907 0.0
C464 C 0.83837 0.38949 0.78654 0.0
C465 C 0.79871 0.36527 0.74398 0.0
H466 H 0.75085 0.3561 0.78061 0.0
C467 C 0.69884 0.32015 0.72492 0.0
C468 C 0.68342 0.30462 0.73847 0.0
C469 C 0.72293 0.33372 0.72916 0.0
C470 C 0.76401 0.3583 0.77029 0.0
H471 H 0.88312 0.4315 0.74994 0.0
H472 H 0.84177 0.40741 0.74042 0.0
H473 H 0.79223 0.38086 0.78933 0.0
H474 H 0.68133 0.29072 0.76689 0.0
H475 H 0.72326 0.31432 0.77421 0.0
H476 H 0.77027 0.34281 0.72488 0.0
C477 C 0.84716 0.40596 0.75484 0.0
C478 C 0.78774 0.37247 0.77528 0.0
C479 C 0.87081 0.41997 0.76036 0.0
C480 C 0.69268 0.30258 0.75616 0.0
C481 C 0.7167 0.31621 0.76041 0.0
C482 C 0.77491 0.35115 0.73894 0.0
C483 C 0.83064 0.39062 0.7679 0.0
C484 C 0.8054 0.37599 0.76226 0.0
C485 C 0.73204 0.33211 0.74706 0.0
C486 C 0.75733 0.34739 0.75211 0.0
H487 H 0.86714 0.40249 0.80667 0.0
H488 H 0.8262 0.37765 0.79689 0.0
H489 H 0.81187 0.3674 0.73369 0.0
H490 H 0.69227 0.32211 0.71116 0.0
H491 H 0.73433 0.34593 0.71863 0.0
C492 C 0.47045 0.88496 0.93532 0.0
C493 C 0.47957 0.89116 0.95419 0.0
C494 C 0.46141 0.86218 0.92841 0.0
C495 C 0.46458 0.80923 0.93652 0.0
H496 H 0.40456 0.77764 0.90914 0.0
C497 C 0.41456 0.71029 0.92324 0.0
C498 C 0.40153 0.70128 0.90605 0.0
C499 C 0.42519 0.73396 0.92775 0.0
C500 C 0.42154 0.78631 0.91646 0.0
H501 H 0.48564 0.87796 0.98071 0.0
H502 H 0.47025 0.83841 0.96852 0.0
H503 H 0.42073 0.81801 0.91961 0.0
H504 H 0.39003 0.71026 0.87984 0.0
H505 H 0.40903 0.75173 0.88754 0.0
H506 H 0.46554 0.77769 0.93337 0.0
C507 C 0.47038 0.85127 0.95903 0.0
C508 C 0.43075 0.80943 0.92251 0.0
C509 C 0.47924 0.87396 0.96599 0.0
C510 C 0.39986 0.71662 0.89324 0.0
C511 C 0.41062 0.74037 0.89772 0.0
C512 C 0.45547 0.7862 0.93036 0.0
C513 C 0.46145 0.84515 0.94015 0.0
C514 C 0.45221 0.82102 0.93283 0.0
C515 C 0.42322 0.7493 0.91513 0.0
C516 C 0.43368 0.77433 0.92049 0.0
H517 H 0.47072 0.89781 0.92574 0.0
H518 H 0.45482 0.858 0.91374 0.0
H519 H 0.48136 0.81786 0.94415 0.0
H520 H 0.41614 0.69897 0.93348 0.0
H521 H 0.43443 0.74012 0.94142 0.0
C522 C 0.58386 0.45842 0.14382 0.0
C523 C 0.562 0.4528 0.13556 0.0
C524 C 0.59689 0.44892 0.13631 0.0
C525 C 0.61537 0.41738 0.1222 0.0
H526 H 0.62969 0.42947 0.06824 0.0
C527 C 0.68175 0.39784 0.08438 0.0
C528 C 0.7 0.41763 0.07583 0.0
C529 C 0.66119 0.39754 0.09001 0.0
C530 C 0.62562 0.42574 0.08326 0.0
H531 H 0.53629 0.43258 0.11331 0.0
H532 H 0.55948 0.41629 0.09977 0.0
H533 H 0.59992 0.43666 0.0825 0.0
H534 H 0.71051 0.45209 0.06549 0.0
H535 H 0.67448 0.45136 0.07498 0.0
H536 H 0.64158 0.40716 0.12311 0.0
C537 C 0.56634 0.42785 0.11219 0.0
C538 C 0.60852 0.42971 0.09138 0.0
C539 C 0.55307 0.43705 0.11995 0.0
C540 C 0.69681 0.43663 0.07214 0.0
C541 C 0.67612 0.43616 0.07745 0.0
C542 C 0.6322 0.41308 0.11402 0.0
C543 C 0.58848 0.43391 0.12019 0.0
C544 C 0.60373 0.42619 0.11104 0.0
C545 C 0.65835 0.41684 0.08682 0.0
C546 C 0.63795 0.41785 0.0946 0.0
H547 H 0.59103 0.4705 0.15591 0.0
H548 H 0.61401 0.45406 0.14263 0.0
H549 H 0.6119 0.41446 0.13738 0.0
H550 H 0.68374 0.38296 0.08745 0.0
H551 H 0.64769 0.38241 0.09717 0.0
C552 C 0.46154 0.88178 0.51765 0.0
C553 C 0.46701 0.90195 0.52844 0.0
C554 C 0.4451 0.85981 0.52431 0.0
C555 C 0.39188 0.83335 0.55089 0.0
H556 H 0.39929 0.77934 0.55618 0.0
C557 C 0.31548 0.74832 0.57795 0.0
C558 C 0.31192 0.72741 0.56978 0.0
C559 C 0.3363 0.76911 0.57483 0.0
C560 C 0.39679 0.79415 0.55453 0.0
H561 H 0.46094 0.91459 0.55543 0.0
H562 H 0.43168 0.87637 0.56658 0.0
H563 H 0.43281 0.8164 0.54659 0.0
H564 H 0.32747 0.71165 0.55229 0.0
H565 H 0.36333 0.74808 0.54594 0.0
H566 H 0.35585 0.8114 0.55769 0.0
C567 C 0.44005 0.87765 0.55297 0.0
C568 C 0.41605 0.81535 0.54916 0.0
C569 C 0.45667 0.89951 0.54649 0.0
C570 C 0.32984 0.72755 0.55884 0.0
C571 C 0.35047 0.74847 0.5553 0.0
C572 C 0.37259 0.81216 0.55585 0.0
C573 C 0.43372 0.85769 0.54174 0.0
C574 C 0.41373 0.83513 0.54744 0.0
C575 C 0.35381 0.76963 0.56297 0.0
C576 C 0.37474 0.79225 0.55789 0.0
H577 H 0.46904 0.883 0.50366 0.0
H578 H 0.44037 0.8446 0.51539 0.0
H579 H 0.3896 0.84831 0.54933 0.0
H580 H 0.30208 0.74863 0.58668 0.0
H581 H 0.33846 0.78484 0.58155 0.0
C582 C 0.57 0.4481 0.68151 0.0
C583 C 0.56594 0.46318 0.69301 0.0
C584 C 0.57755 0.43385 0.68976 0.0
C585 C 0.57401 0.40499 0.7349 0.0
H586 H 0.6143 0.38685 0.7086 0.0
C587 C 0.566 0.31569 0.74336 0.0
C588 C 0.58628 0.31363 0.74257 0.0
C589 C 0.56744 0.33713 0.74066 0.0
C590 C 0.60334 0.39197 0.71635 0.0
H591 H 0.56755 0.47589 0.72208 0.0
H592 H 0.58098 0.45108 0.73653 0.0
H593 H 0.6113 0.41985 0.69722 0.0
H594 H 0.62417 0.33273 0.73914 0.0
H595 H 0.62666 0.37027 0.73445 0.0
H596 H 0.56571 0.37684 0.75381 0.0
C597 C 0.5781 0.45015 0.72114 0.0
C598 C 0.60143 0.41073 0.7097 0.0
C599 C 0.5706 0.46449 0.71285 0.0
C600 C 0.60819 0.3337 0.73975 0.0
C601 C 0.60962 0.35518 0.73698 0.0
C602 C 0.57591 0.38623 0.74155 0.0
C603 C 0.5812 0.43435 0.70972 0.0
C604 C 0.58621 0.41701 0.71855 0.0
C605 C 0.58919 0.35704 0.73709 0.0
C606 C 0.59005 0.37909 0.732 0.0
H607 H 0.56684 0.44694 0.66614 0.0
H608 H 0.57952 0.42173 0.68056 0.0
H609 H 0.56203 0.40928 0.74199 0.0
H610 H 0.54884 0.3006 0.74554 0.0
H611 H 0.55132 0.33787 0.74058 0.0
C612 C 0.13357 0.57322 0.84541 0.0
C613 C 0.11355 0.55793 0.85576 0.0
C614 C 0.15602 0.58319 0.85398 0.0
C615 C 0.18639 0.56803 0.88933 0.0
H616 H 0.23763 0.63161 0.8862 0.0
C617 C 0.27606 0.59152 0.92063 0.0
C618 C 0.29569 0.60597 0.90968 0.0
C619 C 0.25438 0.58992 0.91684 0.0
C620 C 0.22356 0.61375 0.88707 0.0
H621 H 0.10118 0.54277 0.88364 0.0
H622 H 0.1403 0.55977 0.89839 0.0
H623 H 0.19845 0.62119 0.87363 0.0
H624 H 0.30862 0.631 0.88689 0.0
H625 H 0.27041 0.62733 0.87948 0.0
H626 H 0.21117 0.55996 0.90163 0.0
C627 C 0.13866 0.5638 0.88362 0.0
C628 C 0.20115 0.60785 0.87994 0.0
C629 C 0.1163 0.55399 0.87514 0.0
C630 C 0.29367 0.61981 0.89557 0.0
C631 C 0.27176 0.61773 0.8914 0.0
C632 C 0.20871 0.57379 0.89614 0.0
C633 C 0.15876 0.57793 0.87297 0.0
C634 C 0.18239 0.58492 0.88105 0.0
C635 C 0.25165 0.60211 0.90156 0.0
C636 C 0.22765 0.59671 0.89515 0.0
H637 H 0.13202 0.57655 0.83044 0.0
H638 H 0.17128 0.59394 0.84544 0.0
H639 H 0.17235 0.55011 0.88999 0.0
H640 H 0.27732 0.58092 0.93176 0.0
H641 H 0.23954 0.57838 0.92546 0.0
C642 C 0.60257 0.14691 0.00979 0.0
C643 C 0.59875 0.12864 0.02191 0.0
C644 C 0.61618 0.17001 0.01609 0.0
C645 C 0.66114 0.20706 0.05287 0.0
H646 H 0.6438 0.25247 0.03745 0.0
C647 C 0.70772 0.30188 0.08275 0.0
C648 C 0.7133 0.31929 0.06916 0.0
C649 C 0.69363 0.2784 0.07754 0.0
C650 C 0.64896 0.24002 0.04176 0.0
H651 H 0.60576 0.12023 0.05029 0.0
H652 H 0.6292 0.16051 0.06144 0.0
H653 H 0.61909 0.21193 0.02749 0.0
H654 H 0.70853 0.32564 0.0394 0.0
H655 H 0.68398 0.28481 0.03039 0.0
H656 H 0.69093 0.23526 0.06728 0.0
C657 C 0.62215 0.15706 0.0469 0.0
C658 C 0.63484 0.21678 0.03602 0.0
C659 C 0.60866 0.13396 0.04053 0.0
C660 C 0.70457 0.3127 0.05025 0.0
C661 C 0.69036 0.2893 0.04509 0.0
C662 C 0.67518 0.2303 0.05873 0.0
C663 C 0.62616 0.17539 0.03473 0.0
C664 C 0.64084 0.20002 0.04136 0.0
C665 C 0.68466 0.27189 0.05868 0.0
C666 C 0.66934 0.24706 0.05309 0.0
H667 H 0.59542 0.14336 0.99526 0.0
H668 H 0.61923 0.18366 0.0062 0.0
H669 H 0.66651 0.19472 0.05702 0.0
H670 H 0.71417 0.30637 0.09744 0.0
H671 H 0.6894 0.26536 0.08834 0.0
C672 C 0.4494 0.58537 0.21883 0.0
C673 C 0.45992 0.58765 0.20091 0.0
C674 C 0.44114 0.60029 0.22433 0.0
C675 C 0.42313 0.64056 0.20418 0.0
H676 H 0.43285 0.66477 0.25641 0.0
C677 C 0.40625 0.71472 0.22547 0.0
C678 C 0.39375 0.71203 0.24241 0.0
C679 C 0.41464 0.69966 0.22102 0.0
C680 C 0.42983 0.65798 0.24182 0.0
H681 H 0.46962 0.60722 0.17459 0.0
H682 H 0.45588 0.63356 0.18435 0.0
H683 H 0.44653 0.63794 0.24739 0.0
H684 H 0.38082 0.69176 0.2682 0.0
H685 H 0.39555 0.66546 0.2604 0.0
H686 H 0.40664 0.66074 0.19855 0.0
C687 C 0.45373 0.62008 0.1941 0.0
C688 C 0.43761 0.64257 0.23665 0.0
C689 C 0.46191 0.60515 0.1886 0.0
C690 C 0.39037 0.6943 0.25503 0.0
C691 C 0.39888 0.67929 0.25061 0.0
C692 C 0.41547 0.65602 0.20932 0.0
C693 C 0.44321 0.61783 0.21202 0.0
C694 C 0.43446 0.63376 0.21773 0.0
C695 C 0.41084 0.68162 0.23342 0.0
C696 C 0.41883 0.665 0.22816 0.0
H697 H 0.44777 0.57221 0.22873 0.0
H698 H 0.43292 0.59792 0.23814 0.0
H699 H 0.41997 0.63376 0.18959 0.0
H700 H 0.40925 0.72824 0.21546 0.0
H701 H 0.42411 0.70212 0.20781 0.0
C702 C 0.88271 0.4211 0.37296 0.0
C703 C 0.88702 0.42045 0.35333 0.0
C704 C 0.86043 0.41579 0.37911 0.0
C705 C 0.79776 0.39107 0.36405 0.0
H706 H 0.80032 0.43674 0.40059 0.0
C707 C 0.73653 0.43077 0.3915 0.0
C708 C 0.71525 0.41048 0.39541 0.0
C709 C 0.75662 0.42963 0.38712 0.0
C710 C 0.79929 0.42387 0.39036 0.0
H711 H 0.87116 0.41252 0.32482 0.0
H712 H 0.83216 0.40348 0.33553 0.0
H713 H 0.83648 0.43774 0.39159 0.0
H714 H 0.69835 0.37298 0.39756 0.0
H715 H 0.73365 0.37104 0.38992 0.0
H716 H 0.76049 0.37776 0.36243 0.0
C717 C 0.84594 0.40783 0.3462 0.0
C718 C 0.82 0.42424 0.38538 0.0
C719 C 0.86826 0.41303 0.34005 0.0
C720 C 0.71449 0.38895 0.39467 0.0
C721 C 0.73464 0.3878 0.39019 0.0
C722 C 0.77696 0.39066 0.36911 0.0
C723 C 0.84199 0.40987 0.36575 0.0
C724 C 0.81955 0.40802 0.37201 0.0
C725 C 0.75596 0.40817 0.3865 0.0
C726 C 0.77759 0.40732 0.38209 0.0
H727 H 0.8968 0.4264 0.38352 0.0
H728 H 0.85783 0.41701 0.3943 0.0
H729 H 0.79682 0.37824 0.35382 0.0
H730 H 0.73775 0.44764 0.39185 0.0
H731 H 0.77268 0.44559 0.38403 0.0
C732 C 0.1083 0.52549 0.40205 0.0
C733 C 0.09631 0.53507 0.39236 0.0
C734 C 0.12424 0.53787 0.41706 0.0
C735 C 0.13619 0.58307 0.45317 0.0
H736 H 0.19681 0.58696 0.45995 0.0
C737 C 0.20153 0.64195 0.51176 0.0
C738 C 0.21407 0.63346 0.52209 0.0
C739 C 0.18852 0.6303 0.49527 0.0
C740 C 0.17982 0.58581 0.45838 0.0
H741 H 0.09279 0.56573 0.39004 0.0
H742 H 0.12031 0.58711 0.41627 0.0
H743 H 0.17177 0.56582 0.43217 0.0
H744 H 0.2231 0.60622 0.52299 0.0
H745 H 0.19991 0.58554 0.49439 0.0
H746 H 0.1438 0.60257 0.47941 0.0
C747 C 0.11708 0.56989 0.41252 0.0
C748 C 0.16552 0.57375 0.44245 0.0
C749 C 0.10128 0.55761 0.39752 0.0
C750 C 0.21365 0.61325 0.51534 0.0
C751 C 0.20045 0.60145 0.49888 0.0
C752 C 0.15034 0.59495 0.46911 0.0
C753 C 0.1284 0.56 0.42269 0.0
C754 C 0.14364 0.57243 0.43962 0.0
C755 C 0.1875 0.6097 0.48878 0.0
C756 C 0.17243 0.59666 0.47186 0.0
H757 H 0.10476 0.50812 0.39851 0.0
H758 H 0.13263 0.52977 0.42471 0.0
H759 H 0.1192 0.58195 0.45159 0.0
H760 H 0.20167 0.65762 0.51643 0.0
H761 H 0.17921 0.63746 0.48762 0.0
C762 C 0.58483 0.11979 0.56819 0.0
C763 C 0.56361 0.10971 0.55747 0.0
C764 C 0.58878 0.13549 0.58325 0.0
C765 C 0.55529 0.14877 0.6176 0.0
H766 H 0.61435 0.20521 0.6289 0.0
C767 C 0.56225 0.21038 0.67844 0.0
C768 C 0.58244 0.22 0.69038 0.0
C769 C 0.56139 0.19887 0.66135 0.0
C770 C 0.59783 0.18937 0.62603 0.0
H771 H 0.53069 0.10948 0.55322 0.0
H772 H 0.53752 0.13671 0.57951 0.0
H773 H 0.61054 0.18185 0.60023 0.0
H774 H 0.61787 0.22565 0.69345 0.0
H775 H 0.61616 0.20497 0.66372 0.0
H776 H 0.54259 0.15575 0.64343 0.0
C777 C 0.55089 0.13214 0.57653 0.0
C778 C 0.59565 0.17606 0.60961 0.0
C779 C 0.54698 0.11654 0.5615 0.0
C780 C 0.60204 0.21839 0.68456 0.0
C781 C 0.6011 0.20665 0.66748 0.0
C782 C 0.55749 0.16192 0.63401 0.0
C783 C 0.57156 0.14134 0.58787 0.0
C784 C 0.57427 0.15572 0.60517 0.0
C785 C 0.5806 0.19644 0.65583 0.0
C786 C 0.5787 0.18249 0.63838 0.0
H787 H 0.59792 0.11476 0.5655 0.0
H788 H 0.60482 0.14224 0.59181 0.0
H789 H 0.53876 0.13289 0.61481 0.0
H790 H 0.54695 0.21159 0.68235 0.0
H791 H 0.54553 0.19174 0.65251 0.0
C792 C 0.44073 0.54534 0.73431 0.0
C793 C 0.46025 0.56278 0.72478 0.0
C794 C 0.43185 0.55079 0.75041 0.0
C795 C 0.43079 0.59876 0.77668 0.0
H796 H 0.41412 0.55667 0.81933 0.0
C797 C 0.4029 0.61598 0.8515 0.0
C798 C 0.38389 0.59666 0.85992 0.0
C799 C 0.41287 0.61327 0.83469 0.0
C800 C 0.41849 0.5685 0.80749 0.0
H801 H 0.48526 0.59976 0.72433 0.0
H802 H 0.46989 0.60924 0.75272 0.0
H803 H 0.43005 0.54931 0.79048 0.0
H804 H 0.36003 0.55946 0.85688 0.0
H805 H 0.3772 0.55485 0.82771 0.0
H806 H 0.41909 0.6179 0.79385 0.0
C807 C 0.46142 0.59137 0.74762 0.0
C808 C 0.4276 0.56425 0.79095 0.0
C809 C 0.47035 0.5859 0.73148 0.0
C810 C 0.37477 0.57471 0.85094 0.0
C811 C 0.38471 0.57202 0.83423 0.0
C812 C 0.42164 0.60302 0.79331 0.0
C813 C 0.44228 0.5738 0.75742 0.0
C814 C 0.43354 0.57912 0.77524 0.0
C815 C 0.40405 0.59117 0.82605 0.0
C816 C 0.41508 0.58772 0.80877 0.0
H817 H 0.43268 0.52733 0.72968 0.0
H818 H 0.41686 0.5369 0.75746 0.0
H819 H 0.43512 0.61047 0.76478 0.0
H820 H 0.41031 0.63314 0.85805 0.0
H821 H 0.42783 0.62834 0.82873 0.0
C822 C 0.91786 0.45236 0.90477 0.0
C823 C 0.90954 0.45061 0.88581 0.0
C824 C 0.90296 0.44815 0.92021 0.0
C825 C 0.84049 0.42121 0.9338 0.0
H826 H 0.86656 0.46442 0.97702 0.0
C827 C 0.79301 0.40765 0.00641 0.0
C828 C 0.79515 0.42751 0.01573 0.0
C829 C 0.80559 0.40973 0.98974 0.0
C830 C 0.85892 0.45231 0.96501 0.0
H831 H 0.87876 0.4423 0.8682 0.0
H832 H 0.85278 0.43534 0.89524 0.0
H833 H 0.89107 0.46909 0.94962 0.0
H834 H 0.81143 0.46504 0.01435 0.0
H835 H 0.83305 0.46858 0.98527 0.0
H836 H 0.80816 0.40468 0.94918 0.0
C837 C 0.87083 0.43981 0.89812 0.0
C838 C 0.87308 0.4548 0.9494 0.0
C839 C 0.88578 0.44403 0.88264 0.0
C840 C 0.80952 0.44938 0.00766 0.0
C841 C 0.82203 0.45145 0.99103 0.0
C842 C 0.82629 0.41868 0.94948 0.0
C843 C 0.87936 0.44216 0.91709 0.0
C844 C 0.86408 0.43927 0.93363 0.0
C845 C 0.82055 0.43171 0.98206 0.0
C846 C 0.83536 0.43426 0.96525 0.0
H847 H 0.93611 0.45764 0.90776 0.0
H848 H 0.91 0.44979 0.93464 0.0
H849 H 0.83309 0.40887 0.92191 0.0
H850 H 0.78209 0.39054 0.01224 0.0
H851 H 0.80419 0.3942 0.98325 0.0
C852 C 0.46163 0.92391 0.07099 0.0
C853 C 0.4821 0.92582 0.06304 0.0
C854 C 0.45087 0.90933 0.0864 0.0
C855 C 0.44512 0.85834 0.11124 0.0
H856 H 0.42304 0.88133 0.15281 0.0
C857 C 0.40556 0.80736 0.18125 0.0
C858 C 0.38636 0.80846 0.18886 0.0
C859 C 0.41775 0.82101 0.16564 0.0
C860 C 0.42885 0.87453 0.14122 0.0
H861 H 0.50724 0.91377 0.0649 0.0
H862 H 0.4884 0.88823 0.09204 0.0
H863 H 0.44375 0.90663 0.12631 0.0
H864 H 0.36434 0.82406 0.1855 0.0
H865 H 0.38525 0.84743 0.15821 0.0
H866 H 0.42995 0.8261 0.12613 0.0
C867 C 0.48068 0.898 0.08622 0.0
C868 C 0.44077 0.88906 0.12606 0.0
C869 C 0.49156 0.91274 0.07082 0.0
C870 C 0.37919 0.82293 0.18014 0.0
C871 C 0.39129 0.83647 0.16455 0.0
C872 C 0.43309 0.84373 0.12643 0.0
C873 C 0.46029 0.89626 0.09423 0.0
C874 C 0.44879 0.88106 0.11079 0.0
C875 C 0.41096 0.836 0.15731 0.0
C876 C 0.42456 0.85158 0.14147 0.0
H877 H 0.45406 0.93395 0.06547 0.0
H878 H 0.43503 0.90818 0.09211 0.0
H879 H 0.45096 0.85165 0.09959 0.0
H880 H 0.41156 0.79641 0.18765 0.0
H881 H 0.43291 0.82033 0.16047 0.0
C882 C 0.51844 0.45103 0.25978 0.0
C883 C 0.52566 0.44966 0.24116 0.0
C884 C 0.52537 0.4426 0.27531 0.0
C885 C 0.54686 0.40423 0.29074 0.0
H886 H 0.58263 0.45234 0.32899 0.0
C887 C 0.60445 0.39498 0.35009 0.0
C888 C 0.60841 0.40773 0.36723 0.0
C889 C 0.59125 0.39707 0.33509 0.0
C890 C 0.57223 0.43842 0.31879 0.0
H891 H 0.54464 0.43731 0.22395 0.0
H892 H 0.55647 0.42214 0.25122 0.0
H893 H 0.5643 0.4606 0.3022 0.0
H894 H 0.60043 0.43109 0.38296 0.0
H895 H 0.57611 0.43351 0.35756 0.0
H896 H 0.55437 0.38182 0.30753 0.0
C897 C 0.54558 0.42987 0.25373 0.0
C898 C 0.56187 0.44329 0.30333 0.0
C899 C 0.53897 0.43867 0.23821 0.0
C900 C 0.5978 0.42133 0.36971 0.0
C901 C 0.5841 0.42289 0.35504 0.0
C902 C 0.55687 0.39915 0.30649 0.0
C903 C 0.53932 0.43232 0.27245 0.0
C904 C 0.54921 0.42632 0.28913 0.0
C905 C 0.58139 0.41156 0.33722 0.0
C906 C 0.56978 0.41624 0.32072 0.0
H907 H 0.50833 0.45957 0.26246 0.0
H908 H 0.52033 0.44463 0.28964 0.0
H909 H 0.53713 0.39087 0.27991 0.0
H910 H 0.61264 0.38447 0.3479 0.0
H911 H 0.58974 0.38817 0.3216 0.0
C912 C 0.4605 0.91858 0.41098 0.0
C913 C 0.48223 0.92344 0.41912 0.0
C914 C 0.44968 0.90167 0.39653 0.0
C915 C 0.46182 0.87081 0.35848 0.0
H916 H 0.39396 0.83088 0.35831 0.0
C917 C 0.40971 0.80431 0.2968 0.0
C918 C 0.38997 0.80529 0.28997 0.0
C919 C 0.42134 0.81603 0.31383 0.0
C920 C 0.41292 0.84193 0.35814 0.0
H921 H 0.50958 0.91419 0.41843 0.0
H922 H 0.49068 0.88467 0.39292 0.0
H923 H 0.41382 0.85648 0.38586 0.0
H924 H 0.36675 0.819 0.29588 0.0
H925 H 0.38691 0.83928 0.32536 0.0
H926 H 0.46077 0.85657 0.33049 0.0
C927 C 0.48213 0.8941 0.39777 0.0
C928 C 0.42429 0.8566 0.37391 0.0
C929 C 0.49295 0.91102 0.41234 0.0
C930 C 0.3819 0.81787 0.30068 0.0
C931 C 0.39336 0.82937 0.3177 0.0
C932 C 0.45041 0.85607 0.34267 0.0
C933 C 0.46033 0.8892 0.38976 0.0
C934 C 0.44879 0.87166 0.37404 0.0
C935 C 0.41325 0.82869 0.32444 0.0
C936 C 0.42577 0.84194 0.34214 0.0
H937 H 0.45199 0.92817 0.41552 0.0
H938 H 0.43316 0.89871 0.39036 0.0
H939 H 0.48071 0.8823 0.35812 0.0
H940 H 0.41637 0.79476 0.28887 0.0
H941 H 0.43658 0.81513 0.31874 0.0
C942 C 0.54968 0.45497 0.57952 0.0
C943 C 0.56114 0.47843 0.58554 0.0
C944 C 0.55968 0.44733 0.56565 0.0
C945 C 0.60187 0.46972 0.52616 0.0
H946 H 0.60019 0.41066 0.52903 0.0
C947 C 0.65193 0.44633 0.47241 0.0
C948 C 0.63945 0.42422 0.46358 0.0
C949 C 0.64331 0.45158 0.48876 0.0
C950 C 0.60064 0.42712 0.528 0.0
H951 H 0.5922 0.51219 0.58175 0.0
H952 H 0.60983 0.49882 0.55801 0.0
H953 H 0.58305 0.42256 0.55473 0.0
H954 H 0.60883 0.38982 0.4657 0.0
H955 H 0.59361 0.39911 0.49432 0.0
H956 H 0.61928 0.47434 0.49951 0.0
C957 C 0.59297 0.48635 0.5638 0.0
C958 C 0.59081 0.43393 0.54268 0.0
C959 C 0.58299 0.49397 0.57761 0.0
C960 C 0.61885 0.40702 0.47216 0.0
C961 C 0.61015 0.41233 0.48856 0.0
C962 C 0.61169 0.46298 0.51159 0.0
C963 C 0.58133 0.46301 0.55748 0.0
C964 C 0.59146 0.45539 0.54196 0.0
C965 C 0.62194 0.43489 0.49666 0.0
C966 C 0.61136 0.44169 0.51238 0.0
H967 H 0.53297 0.44248 0.58552 0.0
H968 H 0.55019 0.42927 0.561 0.0
H969 H 0.60217 0.4861 0.5249 0.0
H970 H 0.66804 0.4599 0.46634 0.0
H971 H 0.65311 0.46896 0.49495 0.0
C972 C 0.08373 0.54105 0.72425 0.0
C973 C 0.08979 0.54304 0.74385 0.0
C974 C 0.10118 0.55123 0.71051 0.0
C975 C 0.16076 0.5992 0.70417 0.0
H976 H 0.1575 0.56692 0.6565 0.0
C977 C 0.21529 0.61549 0.6291 0.0
C978 C 0.21664 0.63637 0.62348 0.0
C979 C 0.20235 0.60376 0.64517 0.0
C980 C 0.15881 0.57607 0.66983 0.0
H981 H 0.11882 0.55708 0.76446 0.0
H982 H 0.14945 0.57519 0.74036 0.0
H983 H 0.12964 0.54612 0.6819 0.0
H984 H 0.20628 0.66179 0.63075 0.0
H985 H 0.18399 0.64147 0.65884 0.0
H986 H 0.18951 0.62932 0.69187 0.0
C987 C 0.13117 0.56566 0.73568 0.0
C988 C 0.14276 0.56423 0.68428 0.0
C989 C 0.11369 0.5552 0.74943 0.0
C990 C 0.20551 0.64569 0.63465 0.0
C991 C 0.19287 0.63414 0.65082 0.0
C992 C 0.17664 0.61111 0.68962 0.0
C993 C 0.12507 0.56383 0.71609 0.0
C994 C 0.14336 0.57577 0.70148 0.0
C995 C 0.19084 0.61288 0.65607 0.0
C996 C 0.17561 0.59975 0.67221 0.0
H997 H 0.06544 0.53161 0.71955 0.0
H998 H 0.09596 0.54973 0.69552 0.0
H999 H 0.16154 0.60855 0.71723 0.0
H1000 H 0.22365 0.60785 0.62079 0.0
H1001 H 0.20117 0.58746 0.64898 0.0
C1002 C 0.54052 0.0887 0.90084 0.0
C1003 C 0.55644 0.095 0.91648 0.0
C1004 C 0.54389 0.10464 0.88663 0.0
C1005 C 0.58792 0.1557 0.86256 0.0
H1006 H 0.53556 0.16455 0.84871 0.0
C1007 C 0.59581 0.2203 0.80405 0.0
C1008 C 0.57609 0.21339 0.7919 0.0
C1009 C 0.59422 0.20754 0.82036 0.0
C1010 C 0.55029 0.1621 0.85219 0.0
H1011 H 0.58869 0.12315 0.92913 0.0
H1012 H 0.59497 0.15075 0.90377 0.0
H1013 H 0.5315 0.13877 0.87479 0.0
H1014 H 0.5393 0.18756 0.78725 0.0
H1015 H 0.53671 0.16495 0.81516 0.0
H1016 H 0.60644 0.17818 0.83948 0.0
C1017 C 0.57977 0.13342 0.90278 0.0
C1018 C 0.54797 0.14744 0.86722 0.0
C1019 C 0.5762 0.11756 0.91722 0.0
C1020 C 0.55477 0.19349 0.7964 0.0
C1021 C 0.55326 0.18059 0.81253 0.0
C1022 C 0.59015 0.17012 0.8473 0.0
C1023 C 0.56348 0.12715 0.8875 0.0
C1024 C 0.56666 0.14391 0.8724 0.0
C1025 C 0.57294 0.18743 0.82476 0.0
C1026 C 0.57123 0.17329 0.84176 0.0
H1027 H 0.52546 0.07134 0.89944 0.0
H1028 H 0.53129 0.09927 0.87481 0.0
H1029 H 0.60253 0.15311 0.86624 0.0
H1030 H 0.61247 0.23564 0.80102 0.0
H1031 H 0.60965 0.21354 0.82958 0.0
C1032 C 0.44787 0.54595 0.08359 0.0
C1033 C 0.46821 0.56239 0.09366 0.0
C1034 C 0.44012 0.55217 0.06721 0.0
C1035 C 0.44193 0.60098 0.04208 0.0
H1036 H 0.42211 0.55825 -0.00155 0.0
C1037 C 0.40695 0.61617 0.96936 0.0
C1038 C 0.38724 0.59643 0.96131 0.0
C1039 C 0.41879 0.61414 0.98543 0.0
C1040 C 0.42743 0.57029 0.01054 0.0
H1041 H 0.49619 0.59839 0.09465 0.0
H1042 H 0.48246 0.60937 0.06583 0.0
H1043 H 0.43939 0.55089 0.02666 0.0
H1044 H 0.36404 0.55927 0.96428 0.0
H1045 H 0.38438 0.55586 0.9922 0.0
H1046 H 0.4294 0.62011 0.02599 0.0
C1047 C 0.4726 0.59165 0.07072 0.0
C1048 C 0.43736 0.56609 0.02668 0.0
C1049 C 0.48052 0.58534 0.0871 0.0
C1050 C 0.3793 0.57481 0.96995 0.0
C1051 C 0.39106 0.57281 0.98591 0.0
C1052 C 0.43186 0.60517 0.02588 0.0
C1053 C 0.45246 0.57502 0.06052 0.0
C1054 C 0.44421 0.58107 0.04278 0.0
C1055 C 0.41115 0.59234 0.99367 0.0
C1056 C 0.424 0.58953 0.01013 0.0
H1057 H 0.43817 0.52807 0.08815 0.0
H1058 H 0.42437 0.53906 0.05978 0.0
H1059 H 0.44703 0.61278 0.05433 0.0
H1060 H 0.41349 0.63308 0.96304 0.0
H1061 H 0.43425 0.6295 0.99109 0.0
C1062 C 0.90457 0.41772 0.23764 0.0
C1063 C 0.91733 0.44011 0.246 0.0
C1064 C 0.88845 0.41313 0.22258 0.0
C1065 C 0.85342 0.43632 0.19964 0.0
H1066 H 0.85235 0.40026 0.15512 0.0
C1067 C 0.8129 0.44002 0.12744 0.0
C1068 C 0.79941 0.4193 0.11677 0.0
C1069 C 0.82535 0.44038 0.1439 0.0
C1070 C 0.85218 0.41007 0.16757 0.0
H1071 H 0.9235 0.47532 0.24475 0.0
H1072 H 0.8955 0.46735 0.2186 0.0
H1073 H 0.87779 0.40493 0.18269 0.0
H1074 H 0.78846 0.38264 0.11512 0.0
H1075 H 0.81042 0.38334 0.14401 0.0
H1076 H 0.82822 0.44187 0.18442 0.0
C1077 C 0.89755 0.4532 0.22392 0.0
C1078 C 0.86676 0.41274 0.18337 0.0
C1079 C 0.91363 0.45778 0.23892 0.0
C1080 C 0.79868 0.39889 0.12301 0.0
C1081 C 0.81132 0.3993 0.13949 0.0
C1082 C 0.83893 0.43369 0.18387 0.0
C1083 C 0.88472 0.43082 0.21557 0.0
C1084 C 0.86786 0.42628 0.19943 0.0
C1085 C 0.82474 0.42006 0.15013 0.0
C1086 C 0.83847 0.42091 0.16752 0.0
H1087 H 0.90684 0.40368 0.2429 0.0
H1088 H 0.87869 0.39566 0.21659 0.0
H1089 H 0.85345 0.44642 0.21195 0.0
H1090 H 0.81391 0.45608 0.12308 0.0
H1091 H 0.83581 0.45673 0.1516 0.0
loop_
_geom_bond_atom_site_label_1
_geom_bond_atom_site_label_2
_geom_bond_distance
_geom_bond_site_symmetry_2
_ccdc_geom_bond_type
H0 C19 0.949 . S
H1 C20 0.950 . S
H2 C22 0.950 . S
H3 C23 0.950 . S
H4 C25 0.950 . S
H5 C28 0.950 . S
H6 C29 0.950 . S
H7 C31 0.951 . S
H8 C32 0.949 . S
H9 C34 0.949 . S
H10 C35 0.950 . S
H11 C37 0.950 . S
H12 C38 0.950 . S
H13 C40 0.950 1_655 S
H14 C43 0.950 . S
H15 C44 0.950 . S
H16 C46 0.951 . S
H17 C47 0.949 . S
C18 C19 1.376 . S
C18 C23 1.386 . S
C18 C24 1.483 . S
C19 H0 0.949 . S
C19 C18 1.376 . S
C19 C20 1.397 . S
C20 H1 0.950 . S
C20 C19 1.397 . S
C20 C21 1.391 . S
C21 C20 1.391 . S
C21 C22 1.405 . S
C22 H2 0.950 . S
C22 C21 1.405 . S
C22 C23 1.367 . S
C23 H3 0.950 . S
C23 C18 1.386 . S
C23 C22 1.367 . S
C24 C18 1.483 . S
C24 C25 1.382 1_655 S
C24 C26 1.403 . S
C25 H4 0.950 . S
C25 C24 1.382 1_455 S
C25 C41 1.411 . S
C26 C24 1.403 . S
C26 C27 1.489 . S
C26 C40 1.411 1_655 S
C27 C26 1.489 . S
C27 C28 1.383 . S
C27 C32 1.382 . S
C28 H5 0.950 . S
C28 C27 1.383 . S
C28 C29 1.395 . S
C29 H6 0.950 . S
C29 C28 1.395 . S
C29 C30 1.288 . S
C30 C29 1.288 . S
C30 C31 1.392 . S
C31 H7 0.951 . S
C31 C30 1.392 . S
C31 C32 1.392 . S
C32 H8 0.949 . S
C32 C27 1.382 . S
C32 C31 1.392 . S
C33 C34 1.376 . S
C33 C38 1.386 . S
C33 C39 1.483 . S
C34 H9 0.949 . S
C34 C33 1.376 . S
C34 C35 1.397 . S
C35 H10 0.950 . S
C35 C34 1.397 . S
C35 C36 1.391 . S
C36 C35 1.391 . S
C36 C37 1.405 . S
C37 H11 0.950 . S
C37 C36 1.405 . S
C37 C38 1.367 . S
C38 H12 0.950 . S
C38 C33 1.386 . S
C38 C37 1.367 . S
C39 C33 1.483 . S
C39 C40 1.382 . S
C39 C41 1.403 . S
C40 H13 0.950 1_455 S
C40 C26 1.411 1_455 S
C40 C39 1.382 . S
C41 C25 1.411 . S
C41 C39 1.403 . S
C41 C42 1.489 . S
C42 C41 1.489 . S
C42 C43 1.383 . S
C42 C47 1.382 . S
C43 H14 0.950 . S
C43 C42 1.383 . S
C43 C44 1.395 . S
C44 H15 0.950 . S
C44 C43 1.395 . S
C44 C45 1.288 . S
C45 C44 1.288 . S
C45 C46 1.392 . S
C46 H16 0.951 . S
C46 C45 1.392 . S
C46 C47 1.392 . S
C47 H17 0.949 . S
C47 C42 1.382 . S
C47 C46 1.392 . S
H48 C67 0.949 . S
H49 C68 0.950 . S
H50 C70 0.950 . S
H51 C71 0.950 . S
H52 C73 0.961 . S
H53 C76 0.950 . S
H54 C77 0.950 . S
H55 C79 0.951 . S
H56 C80 0.949 . S
H57 C82 0.949 . S
H58 C83 0.950 . S
H59 C85 0.950 . S
H60 C86 0.950 . S
H61 C88 0.950 . S
H62 C91 0.950 . S
H63 C92 0.950 . S
H64 C94 0.951 . S
H65 C95 0.949 . S
C66 C67 1.376 . S
C66 C71 1.386 . S
C66 C72 1.483 . S
C67 H48 0.949 . S
C67 C66 1.376 . S
C67 C68 1.397 . S
C68 H49 0.950 . S
C68 C67 1.397 . S
C68 C69 1.391 . S
C69 C68 1.391 . S
C69 C70 1.405 . S
C70 H50 0.950 . S
C70 C69 1.405 . S
C70 C71 1.367 . S
C71 H51 0.950 . S
C71 C66 1.386 . S
C71 C70 1.367 . S
C72 C66 1.483 . S
C72 C73 1.413 . S
C72 C74 1.403 . S
C73 H52 0.961 . S
C73 C72 1.413 . S
C73 C89 1.371 1_565 S
C74 C72 1.403 . S
C74 C75 1.489 . S
C74 C88 1.411 1_565 S
C75 C74 1.489 . S
C75 C76 1.383 . S
C75 C80 1.382 . S
C76 H53 0.950 . S
C76 C75 1.383 . S
C76 C77 1.395 . S
C77 H54 0.950 . S
C77 C76 1.395 . S
C77 C78 1.288 . S
C78 C77 1.288 . S
C78 C79 1.392 . S
C79 H55 0.951 . S
C79 C78 1.392 . S
C79 C80 1.392 . S
C80 H56 0.949 . S
C80 C75 1.382 . S
C80 C79 1.392 . S
C81 C82 1.376 . S
C81 C86 1.386 . S
C81 C87 1.483 . S
C82 H57 0.949 . S
C82 C81 1.376 . S
C82 C83 1.397 . S
C83 H58 0.950 . S
C83 C82 1.397 . S
C83 C84 1.391 . S
C84 C83 1.391 . S
C84 C85 1.405 . S
C85 H59 0.950 . S
C85 C84 1.405 . S
C85 C86 1.367 . S
C86 H60 0.950 . S
C86 C81 1.386 . S
C86 C85 1.367 . S
C87 C81 1.483 . S
C87 C88 1.382 . S
C87 C89 1.403 . S
C88 H61 0.950 . S
C88 C74 1.411 1_545 S
C88 C87 1.382 . S
C89 C73 1.371 1_545 S
C89 C87 1.403 . S
C89 C90 1.489 . S
C90 C89 1.489 . S
C90 C91 1.383 . S
C90 C95 1.382 . S
C91 H62 0.950 . S
C91 C90 1.383 . S
C91 C92 1.395 . S
C92 H63 0.950 . S
C92 C91 1.395 . S
C92 C93 1.288 . S
C93 C92 1.288 . S
C93 C94 1.392 . S
C94 H64 0.951 . S
C94 C93 1.392 . S
C94 C95 1.392 . S
C95 H65 0.949 . S
C95 C90 1.382 . S
C95 C94 1.392 . S
H96 C115 0.949 . S
H97 C116 0.950 . S
H98 C118 0.950 . S
H99 C119 0.950 . S
H100 C121 0.950 . S
H101 C124 0.950 . S
H102 C125 0.950 . S
H103 C127 0.951 . S
H104 C128 0.949 . S
H105 C130 0.949 . S
H106 C131 0.950 . S
H107 C133 0.950 . S
H108 C134 0.950 . S
H109 C136 0.950 . S
H110 C139 0.950 . S
H111 C140 0.950 . S
H112 C142 0.951 . S
H113 C143 0.949 . S
C114 C115 1.376 . S
C114 C119 1.386 . S
C114 C120 1.483 . S
C115 H96 0.949 . S
C115 C114 1.376 . S
C115 C116 1.397 . S
C116 H97 0.950 . S
C116 C115 1.397 . S
C116 C117 1.391 . S
C117 C116 1.391 . S
C117 C118 1.405 . S
C118 H98 0.950 . S
C118 C117 1.405 . S
C118 C119 1.367 . S
C119 H99 0.950 . S
C119 C114 1.386 . S
C119 C118 1.367 . S
C120 C114 1.483 . S
C120 C121 1.382 . S
C120 C122 1.403 . S
C121 H100 0.950 . S
C121 C120 1.382 . S
C121 C137 1.411 . S
C122 C120 1.403 . S
C122 C123 1.489 . S
C122 C136 1.411 . S
C123 C122 1.489 . S
C123 C124 1.383 . S
C123 C128 1.382 . S
C124 H101 0.950 . S
C124 C123 1.383 . S
C124 C125 1.395 . S
C125 H102 0.950 . S
C125 C124 1.395 . S
C125 C126 1.288 . S
C126 C125 1.288 . S
C126 C127 1.392 . S
C127 H103 0.951 . S
C127 C126 1.392 . S
C127 C128 1.392 . S
C128 H104 0.949 . S
C128 C123 1.382 . S
C128 C127 1.392 . S
C129 C130 1.376 . S
C129 C134 1.386 . S
C129 C135 1.483 . S
C130 H105 0.949 . S
C130 C129 1.376 . S
C130 C131 1.397 . S
C131 H106 0.950 . S
C131 C130 1.397 . S
C131 C132 1.391 . S
C132 C131 1.391 . S
C132 C133 1.405 . S
C133 H107 0.950 . S
C133 C132 1.405 . S
C133 C134 1.367 . S
C134 H108 0.950 . S
C134 C129 1.386 . S
C134 C133 1.367 . S
C135 C129 1.483 . S
C135 C136 1.382 . S
C135 C137 1.403 . S
C136 H109 0.950 . S
C136 C122 1.411 . S
C136 C135 1.382 . S
C137 C121 1.411 . S
C137 C135 1.403 . S
C137 C138 1.489 . S
C138 C137 1.489 . S
C138 C139 1.383 . S
C138 C143 1.382 . S
C139 H110 0.950 . S
C139 C138 1.383 . S
C139 C140 1.395 . S
C140 H111 0.950 . S
C140 C139 1.395 . S
C140 C141 1.288 . S
C141 C140 1.288 . S
C141 C142 1.392 . S
C142 H112 0.951 . S
C142 C141 1.392 . S
C142 C143 1.392 . S
C143 H113 0.949 . S
C143 C138 1.382 . S
C143 C142 1.392 . S
H144 C163 0.949 . S
H145 C164 0.950 . S
H146 C166 0.950 . S
H147 C167 0.950 . S
H148 C169 0.966 . S
H149 C172 0.950 . S
H150 C173 0.950 . S
H151 C175 0.951 . S
H152 C176 0.949 . S
H153 C178 0.949 . S
H154 C179 0.950 . S
H155 C181 0.950 . S
H156 C182 0.950 . S
H157 C184 0.950 . S
H158 C187 0.950 . S
H159 C188 0.950 . S
H160 C190 0.951 . S
H161 C191 0.949 . S
C162 C163 1.376 . S
C162 C167 1.386 . S
C162 C168 1.483 . S
C163 H144 0.949 . S
C163 C162 1.376 . S
C163 C164 1.397 . S
C164 H145 0.950 . S
C164 C163 1.397 . S
C164 C165 1.391 . S
C165 C164 1.391 . S
C165 C166 1.405 . S
C166 H146 0.950 . S
C166 C165 1.405 . S
C166 C167 1.367 . S
C167 H147 0.950 . S
C167 C162 1.386 . S
C167 C166 1.367 . S
C168 C162 1.483 . S
C168 C169 1.382 . S
C168 C170 1.403 . S
C169 H148 0.966 . S
C169 C168 1.382 . S
C169 C185 1.411 1_455 S
C170 C168 1.403 . S
C170 C171 1.489 . S
C170 C184 1.411 . S
C171 C170 1.489 . S
C171 C172 1.383 . S
C171 C176 1.382 . S
C172 H149 0.950 . S
C172 C171 1.383 . S
C172 C173 1.395 . S
C173 H150 0.950 . S
C173 C172 1.395 . S
C173 C174 1.288 . S
C174 C173 1.288 . S
C174 C175 1.392 . S
C175 H151 0.951 . S
C175 C174 1.392 . S
C175 C176 1.392 . S
C176 H152 0.949 . S
C176 C171 1.382 . S
C176 C175 1.392 . S
C177 C178 1.376 . S
C177 C182 1.386 . S
C177 C183 1.483 . S
C178 H153 0.949 . S
C178 C177 1.376 . S
C178 C179 1.397 . S
C179 H154 0.950 . S
C179 C178 1.397 . S
C179 C180 1.391 . S
C180 C179 1.391 . S
C180 C181 1.405 . S
C181 H155 0.950 . S
C181 C180 1.405 . S
C181 C182 1.367 . S
C182 H156 0.950 . S
C182 C177 1.386 . S
C182 C181 1.367 . S
C183 C177 1.483 . S
C183 C184 1.382 1_655 S
C183 C185 1.403 . S
C184 H157 0.950 . S
C184 C170 1.411 . S
C184 C183 1.382 1_455 S
C185 C169 1.411 1_655 S
C185 C183 1.403 . S
C185 C186 1.489 . S
C186 C185 1.489 . S
C186 C187 1.383 . S
C186 C191 1.382 . S
C187 H158 0.950 . S
C187 C186 1.383 . S
C187 C188 1.395 . S
C188 H159 0.950 . S
C188 C187 1.395 . S
C188 C189 1.288 . S
C189 C188 1.288 . S
C189 C190 1.392 . S
C190 H160 0.951 . S
C190 C189 1.392 . S
C190 C191 1.392 . S
C191 H161 0.949 . S
C191 C186 1.382 . S
C191 C190 1.392 . S
H192 C211 0.949 . S
H193 C212 0.950 . S
H194 C214 0.952 . S
H195 C215 0.950 . S
H196 C217 0.950 . S
H197 C220 0.950 . S
H198 C221 0.950 . S
H199 C223 0.951 . S
H200 C224 0.949 . S
H201 C226 0.949 . S
H202 C227 0.950 . S
H203 C229 0.950 . S
H204 C230 0.950 . S
H205 C232 0.950 1_565 S
H206 C235 0.950 . S
H207 C236 0.950 . S
H208 C238 0.951 . S
H209 C239 0.949 . S
C210 C211 1.404 . S
C210 C215 1.375 1_554 S
C210 C216 1.471 1_554 S
C211 H192 0.949 . S
C211 C210 1.404 . S
C211 C212 1.397 . S
C212 H193 0.950 . S
C212 C211 1.397 . S
C212 C213 1.391 . S
C213 C212 1.391 . S
C213 C214 1.405 . S
C214 H194 0.952 . S
C214 C213 1.405 . S
C214 C215 1.367 1_554 S
C215 H195 0.950 . S
C215 C210 1.375 1_556 S
C215 C214 1.367 1_556 S
C216 C210 1.471 1_556 S
C216 C217 1.382 1_556 S
C216 C218 1.403 . S
C217 H196 0.950 . S
C217 C216 1.382 1_554 S
C217 C233 1.411 1_545 S
C218 C216 1.403 . S
C218 C219 1.489 . S
C218 C232 1.411 . S
C219 C218 1.489 . S
C219 C220 1.383 . S
C219 C224 1.382 . S
C220 H197 0.950 . S
C220 C219 1.383 . S
C220 C221 1.395 . S
C221 H198 0.950 . S
C221 C220 1.395 . S
C221 C222 1.288 . S
C222 C221 1.288 . S
C222 C223 1.392 . S
C223 H199 0.951 . S
C223 C222 1.392 . S
C223 C224 1.392 . S
C224 H200 0.949 . S
C224 C219 1.382 . S
C224 C223 1.392 . S
C225 C226 1.376 . S
C225 C230 1.386 . S
C225 C231 1.483 . S
C226 H201 0.949 . S
C226 C225 1.376 . S
C226 C227 1.397 . S
C227 H202 0.950 . S
C227 C226 1.397 . S
C227 C228 1.391 . S
C228 C227 1.391 . S
C228 C229 1.405 . S
C229 H203 0.950 . S
C229 C228 1.405 . S
C229 C230 1.367 . S
C230 H204 0.950 . S
C230 C225 1.386 . S
C230 C229 1.367 . S
C231 C225 1.483 . S
C231 C232 1.382 1_565 S
C231 C233 1.403 1_556 S
C232 H205 0.950 1_545 S
C232 C218 1.411 . S
C232 C231 1.382 1_545 S
C233 C217 1.411 1_565 S
C233 C231 1.403 1_554 S
C233 C234 1.489 . S
C234 C233 1.489 . S
C234 C235 1.383 . S
C234 C239 1.382 . S
C235 H206 0.950 . S
C235 C234 1.383 . S
C235 C236 1.395 . S
C236 H207 0.950 . S
C236 C235 1.395 . S
C236 C237 1.288 . S
C237 C236 1.288 . S
C237 C238 1.392 . S
C238 H208 0.951 . S
C238 C237 1.392 . S
C238 C239 1.392 . S
C239 H209 0.949 . S
C239 C234 1.382 . S
C239 C238 1.392 . S
H240 C259 0.949 . S
H241 C260 0.950 . S
H242 C262 0.950 . S
H243 C263 0.950 . S
H244 C265 0.950 . S
H245 C268 0.950 . S
H246 C269 0.950 . S
H247 C271 0.951 . S
H248 C272 0.949 . S
H249 C274 0.949 . S
H250 C275 0.950 . S
H251 C277 0.950 . S
H252 C278 0.950 . S
H253 C280 0.950 . S
H254 C283 0.950 . S
H255 C284 0.950 . S
H256 C286 0.951 . S
H257 C287 0.949 . S
C258 C259 1.376 . S
C258 C263 1.386 . S
C258 C264 1.483 . S
C259 H240 0.949 . S
C259 C258 1.376 . S
C259 C260 1.397 . S
C260 H241 0.950 . S
C260 C259 1.397 . S
C260 C261 1.391 . S
C261 C260 1.391 . S
C261 C262 1.405 . S
C262 H242 0.950 . S
C262 C261 1.405 . S
C262 C263 1.367 . S
C263 H243 0.950 . S
C263 C258 1.386 . S
C263 C262 1.367 . S
C264 C258 1.483 . S
C264 C265 1.382 . S
C264 C266 1.403 . S
C265 H244 0.950 . S
C265 C264 1.382 . S
C265 C281 1.411 . S
C266 C264 1.403 . S
C266 C267 1.489 . S
C266 C280 1.411 . S
C267 C266 1.489 . S
C267 C268 1.383 . S
C267 C272 1.382 . S
C268 H245 0.950 . S
C268 C267 1.383 . S
C268 C269 1.395 . S
C269 H246 0.950 . S
C269 C268 1.395 . S
C269 C270 1.288 . S
C270 C269 1.288 . S
C270 C271 1.392 . S
C271 H247 0.951 . S
C271 C270 1.392 . S
C271 C272 1.392 . S
C272 H248 0.949 . S
C272 C267 1.382 . S
C272 C271 1.392 . S
C273 C274 1.376 . S
C273 C278 1.386 . S
C273 C279 1.483 . S
C274 H249 0.949 . S
C274 C273 1.376 . S
C274 C275 1.397 . S
C275 H250 0.950 . S
C275 C274 1.397 . S
C275 C276 1.391 . S
C276 C275 1.391 . S
C276 C277 1.405 . S
C277 H251 0.950 . S
C277 C276 1.405 . S
C277 C278 1.367 . S
C278 H252 0.950 . S
C278 C273 1.386 . S
C278 C277 1.367 . S
C279 C273 1.483 . S
C279 C280 1.382 . S
C279 C281 1.403 . S
C280 H253 0.950 . S
C280 C266 1.411 . S
C280 C279 1.382 . S
C281 C265 1.411 . S
C281 C279 1.403 . S
C281 C282 1.489 . S
C282 C281 1.489 . S
C282 C283 1.383 . S
C282 C287 1.382 . S
C283 H254 0.950 . S
C283 C282 1.383 . S
C283 C284 1.395 . S
C284 H255 0.950 . S
C284 C283 1.395 . S
C284 C285 1.288 . S
C285 C284 1.288 . S
C285 C286 1.392 . S
C286 H256 0.951 . S
C286 C285 1.392 . S
C286 C287 1.392 . S
C287 H257 0.949 . S
C287 C282 1.382 . S
C287 C286 1.392 . S
Zn288 O291 2.031 . S
Zn288 O293 2.049 . S
Zn288 O298 2.067 . S
Zn289 O290 1.962 . S
Zn289 O292 1.986 . S
Zn289 O294 1.996 . S
Zn289 O297 1.943 . S
O290 Zn289 1.962 . S
O290 C295 1.254 . S
O291 Zn288 2.031 . S
O291 C295 1.269 . S
O292 Zn289 1.986 . S
O292 C299 1.262 . S
O293 Zn288 2.049 . S
O293 C301 1.260 . S
O294 Zn289 1.996 . S
O294 C301 1.257 . S
C295 O290 1.254 . S
C295 O291 1.269 . S
C296 O297 1.249 . S
C296 O298 1.270 . S
O297 Zn289 1.943 . S
O297 C296 1.249 . S
O298 Zn288 2.067 . S
O298 C296 1.270 . S
C299 O292 1.262 . S
C299 O300 1.232 . S
O300 C299 1.232 . S
C301 O293 1.260 . S
C301 O294 1.257 . S
Zn302 O305 2.031 . S
Zn302 O307 2.049 . S
Zn302 O312 2.067 . S
Zn303 O304 1.962 . S
Zn303 O306 1.986 . S
Zn303 O308 1.996 . S
Zn303 O311 1.943 . S
O304 Zn303 1.962 . S
O304 C309 1.254 . S
O305 Zn302 2.031 . S
O305 C309 1.269 . S
O306 Zn303 1.986 . S
O306 C313 1.262 . S
O307 Zn302 2.049 . S
O307 C315 1.260 . S
O308 Zn303 1.996 . S
O308 C315 1.257 . S
C309 O304 1.254 . S
C309 O305 1.269 . S
C310 O311 1.249 . S
C310 O312 1.270 . S
O311 Zn303 1.943 . S
O311 C310 1.249 . S
O312 Zn302 2.067 . S
O312 C310 1.270 . S
C313 O306 1.262 . S
C313 O314 1.232 . S
O314 C313 1.232 . S
C315 O307 1.260 . S
C315 O308 1.257 . S
Zn316 O319 2.031 . S
Zn316 O321 2.049 . S
Zn316 O326 2.067 . S
Zn317 O318 1.962 . S
Zn317 O320 1.986 . S
Zn317 O322 1.996 . S
Zn317 O325 1.943 . S
O318 Zn317 1.962 . S
O318 C323 1.254 . S
O319 Zn316 2.031 . S
O319 C323 1.269 . S
O320 Zn317 1.986 . S
O320 C327 1.262 . S
O321 Zn316 2.049 . S
O321 C329 1.260 . S
O322 Zn317 1.996 . S
O322 C329 1.257 . S
C323 O318 1.254 . S
C323 O319 1.269 . S
C324 O325 1.249 . S
C324 O326 1.270 . S
O325 Zn317 1.943 . S
O325 C324 1.249 . S
O326 Zn316 2.067 . S
O326 C324 1.270 . S
C327 O320 1.262 . S
C327 O328 1.232 . S
O328 C327 1.232 . S
C329 O321 1.260 . S
C329 O322 1.257 . S
Zn330 O333 2.031 . S
Zn330 O335 2.049 . S
Zn330 O340 2.067 . S
Zn331 O332 1.962 . S
Zn331 O334 1.986 . S
Zn331 O336 1.996 . S
Zn331 O339 1.943 . S
O332 Zn331 1.962 . S
O332 C337 1.254 . S
O333 Zn330 2.031 . S
O333 C337 1.269 . S
O334 Zn331 1.986 . S
O334 C341 1.262 . S
O335 Zn330 2.049 . S
O335 C343 1.260 . S
O336 Zn331 1.996 . S
O336 C343 1.257 . S
C337 O332 1.254 . S
C337 O333 1.269 . S
C338 O339 1.249 . S
C338 O340 1.270 . S
O339 Zn331 1.943 . S
O339 C338 1.249 . S
O340 Zn330 2.067 . S
O340 C338 1.270 . S
C341 O334 1.262 . S
C341 O342 1.232 . S
O342 C341 1.232 . S
C343 O335 1.260 . S
C343 O336 1.257 . S
Zn344 O347 2.031 . S
Zn344 O349 2.049 . S
Zn344 O354 2.067 . S
Zn345 O346 1.962 . S
Zn345 O348 1.986 . S
Zn345 O350 1.996 . S
Zn345 O353 1.943 . S
O346 Zn345 1.962 . S
O346 C351 1.254 . S
O347 Zn344 2.031 . S
O347 C351 1.269 . S
O348 Zn345 1.986 . S
O348 C355 1.262 . S
O349 Zn344 2.049 . S
O349 C357 1.260 . S
O350 Zn345 1.996 . S
O350 C357 1.257 . S
C351 O346 1.254 . S
C351 O347 1.269 . S
C352 O353 1.249 . S
C352 O354 1.270 . S
O353 Zn345 1.943 . S
O353 C352 1.249 . S
O354 Zn344 2.067 . S
O354 C352 1.270 . S
C355 O348 1.262 . S
C355 O356 1.232 . S
O356 C355 1.232 . S
C357 O349 1.260 . S
C357 O350 1.257 . S
Zn358 O361 2.031 . S
Zn358 O363 2.049 . S
Zn358 O368 2.067 . S
Zn359 O360 1.962 . S
Zn359 O362 1.986 . S
Zn359 O364 1.996 . S
Zn359 O367 1.943 . S
O360 Zn359 1.962 . S
O360 C365 1.254 . S
O361 Zn358 2.031 . S
O361 C365 1.269 . S
O362 Zn359 1.986 . S
O362 C369 1.262 . S
O363 Zn358 2.049 . S
O363 C371 1.260 . S
O364 Zn359 1.996 . S
O364 C371 1.257 . S
C365 O360 1.254 . S
C365 O361 1.269 . S
C366 O367 1.249 . S
C366 O368 1.270 . S
O367 Zn359 1.943 . S
O367 C366 1.249 . S
O368 Zn358 2.067 . S
O368 C366 1.270 . S
C369 O362 1.262 . S
C369 O370 1.232 . S
O370 C369 1.232 . S
C371 O363 1.260 . S
C371 O364 1.257 . S
C372 C373 1.349 . S
C372 C374 1.327 . S
C372 H397 0.950 . S
C373 C372 1.349 . S
C373 C389 1.349 . S
C374 C372 1.327 . S
C374 C393 1.429 . S
C374 H398 0.950 . S
C375 C392 1.574 . S
C375 C394 1.368 . S
C375 H399 0.949 . S
H376 C380 0.949 . S
C377 C378 1.349 . S
C377 C379 1.327 . S
C377 H400 0.950 . S
C378 C377 1.349 . S
C378 C390 1.349 . S
C379 C377 1.327 . S
C379 C395 1.429 . S
C379 H401 0.950 . S
C380 H376 0.949 . S
C380 C388 1.574 . S
C380 C396 1.368 . S
H381 C389 0.950 . S
H382 C387 0.950 . S
H383 C388 0.949 . S
H384 C390 0.950 . S
H385 C391 0.950 . S
H386 C392 0.949 . S
C387 H382 0.950 . S
C387 C389 1.327 . S
C387 C393 1.429 . S
C388 C380 1.574 . S
C388 H383 0.949 . S
C388 C394 1.368 . S
C389 C373 1.349 . S
C389 H381 0.950 . S
C389 C387 1.327 . S
C390 C378 1.349 . S
C390 H384 0.950 . S
C390 C391 1.327 . S
C391 H385 0.950 . S
C391 C390 1.327 . S
C391 C395 1.429 . S
C392 C375 1.574 . S
C392 H386 0.949 . S
C392 C396 1.368 . S
C393 C374 1.429 . S
C393 C387 1.429 . S
C393 C394 1.523 . S
C394 C375 1.368 . S
C394 C388 1.368 . S
C394 C393 1.523 . S
C395 C379 1.429 . S
C395 C391 1.429 . S
C395 C396 1.523 . S
C396 C380 1.368 . S
C396 C392 1.368 . S
C396 C395 1.523 . S
H397 C372 0.950 . S
H398 C374 0.950 . S
H399 C375 0.949 . S
H400 C377 0.950 . S
H401 C379 0.950 . S
C402 C403 1.349 . S
C402 C404 1.327 . S
C402 H427 0.950 . S
C403 C402 1.349 . S
C403 C419 1.349 . S
C404 C402 1.327 . S
C404 C423 1.429 . S
C404 H428 0.950 . S
C405 C422 1.574 . S
C405 C424 1.368 . S
C405 H429 0.949 . S
H406 C410 0.949 . S
C407 C408 1.349 . S
C407 C409 1.327 . S
C407 H430 0.950 . S
C408 C407 1.349 . S
C408 C420 1.349 . S
C409 C407 1.327 . S
C409 C425 1.429 . S
C409 H431 0.950 . S
C410 H406 0.949 . S
C410 C418 1.574 . S
C410 C426 1.368 . S
H411 C419 0.950 . S
H412 C417 0.950 . S
H413 C418 0.949 . S
H414 C420 0.950 . S
H415 C421 0.950 . S
H416 C422 0.949 . S
C417 H412 0.950 . S
C417 C419 1.327 . S
C417 C423 1.429 . S
C418 C410 1.574 . S
C418 H413 0.949 . S
C418 C424 1.368 . S
C419 C403 1.349 . S
C419 H411 0.950 . S
C419 C417 1.327 . S
C420 C408 1.349 . S
C420 H414 0.950 . S
C420 C421 1.327 . S
C421 H415 0.950 . S
C421 C420 1.327 . S
C421 C425 1.429 . S
C422 C405 1.574 . S
C422 H416 0.949 . S
C422 C426 1.368 . S
C423 C404 1.429 . S
C423 C417 1.429 . S
C423 C424 1.523 . S
C424 C405 1.368 . S
C424 C418 1.368 . S
C424 C423 1.523 . S
C425 C409 1.429 . S
C425 C421 1.429 . S
C425 C426 1.523 . S
C426 C410 1.368 . S
C426 C422 1.368 . S
C426 C425 1.523 . S
H427 C402 0.950 . S
H428 C404 0.950 . S
H429 C405 0.949 . S
H430 C407 0.950 . S
H431 C409 0.950 . S
C432 C433 1.349 . S
C432 C434 1.327 . S
C432 H457 0.950 . S
C433 C432 1.349 . S
C433 C449 1.349 . S
C434 C432 1.327 . S
C434 C453 1.429 . S
C434 H458 0.950 . S
C435 C452 1.574 . S
C435 C454 1.368 . S
C435 H459 0.949 . S
H436 C440 0.949 . S
C437 C438 1.349 . S
C437 C439 1.327 . S
C437 H460 0.950 . S
C438 C437 1.349 . S
C438 C450 1.349 . S
C439 C437 1.327 . S
C439 C455 1.429 . S
C439 H461 0.950 . S
C440 H436 0.949 . S
C440 C448 1.574 . S
C440 C456 1.368 . S
H441 C449 0.950 . S
H442 C447 0.950 . S
H443 C448 0.949 . S
H444 C450 0.950 . S
H445 C451 0.950 . S
H446 C452 0.949 . S
C447 H442 0.950 . S
C447 C449 1.327 . S
C447 C453 1.429 . S
C448 C440 1.574 . S
C448 H443 0.949 . S
C448 C454 1.368 . S
C449 C433 1.349 . S
C449 H441 0.950 . S
C449 C447 1.327 . S
C450 C438 1.349 . S
C450 H444 0.950 . S
C450 C451 1.327 . S
C451 H445 0.950 . S
C451 C450 1.327 . S
C451 C455 1.429 . S
C452 C435 1.574 . S
C452 H446 0.949 . S
C452 C456 1.368 . S
C453 C434 1.429 . S
C453 C447 1.429 . S
C453 C454 1.523 . S
C454 C435 1.368 . S
C454 C448 1.368 . S
C454 C453 1.523 . S
C455 C439 1.429 . S
C455 C451 1.429 . S
C455 C456 1.523 . S
C456 C440 1.368 . S
C456 C452 1.368 . S
C456 C455 1.523 . S
H457 C432 0.950 . S
H458 C434 0.950 . S
H459 C435 0.949 . S
H460 C437 0.950 . S
H461 C439 0.950 . S
C462 C463 1.349 . S
C462 C464 1.327 . S
C462 H487 0.950 . S
C463 C462 1.349 . S
C463 C479 1.349 . S
C464 C462 1.327 . S
C464 C483 1.429 . S
C464 H488 0.950 . S
C465 C482 1.574 . S
C465 C484 1.368 . S
C465 H489 0.949 . S
H466 C470 0.949 . S
C467 C468 1.349 . S
C467 C469 1.327 . S
C467 H490 0.950 . S
C468 C467 1.349 . S
C468 C480 1.349 . S
C469 C467 1.327 . S
C469 C485 1.429 . S
C469 H491 0.950 . S
C470 H466 0.949 . S
C470 C478 1.574 . S
C470 C486 1.368 . S
H471 C479 0.950 . S
H472 C477 0.950 . S
H473 C478 0.949 . S
H474 C480 0.950 . S
H475 C481 0.950 . S
H476 C482 0.949 . S
C477 H472 0.950 . S
C477 C479 1.327 . S
C477 C483 1.429 . S
C478 C470 1.574 . S
C478 H473 0.949 . S
C478 C484 1.368 . S
C479 C463 1.349 . S
C479 H471 0.950 . S
C479 C477 1.327 . S
C480 C468 1.349 . S
C480 H474 0.950 . S
C480 C481 1.327 . S
C481 H475 0.950 . S
C481 C480 1.327 . S
C481 C485 1.429 . S
C482 C465 1.574 . S
C482 H476 0.949 . S
C482 C486 1.368 . S
C483 C464 1.429 . S
C483 C477 1.429 . S
C483 C484 1.523 . S
C484 C465 1.368 . S
C484 C478 1.368 . S
C484 C483 1.523 . S
C485 C469 1.429 . S
C485 C481 1.429 . S
C485 C486 1.523 . S
C486 C470 1.368 . S
C486 C482 1.368 . S
C486 C485 1.523 . S
H487 C462 0.950 . S
H488 C464 0.950 . S
H489 C465 0.949 . S
H490 C467 0.950 . S
H491 C469 0.950 . S
C492 C493 1.349 . S
C492 C494 1.327 . S
C492 H517 0.950 . S
C493 C492 1.349 . S
C493 C509 1.349 . S
C494 C492 1.327 . S
C494 C513 1.429 . S
C494 H518 0.950 . S
C495 C512 1.574 . S
C495 C514 1.368 . S
C495 H519 0.949 . S
H496 C500 0.949 . S
C497 C498 1.349 . S
C497 C499 1.327 . S
C497 H520 0.950 . S
C498 C497 1.349 . S
C498 C510 1.349 . S
C499 C497 1.327 . S
C499 C515 1.429 . S
C499 H521 0.950 . S
C500 H496 0.949 . S
C500 C508 1.574 . S
C500 C516 1.368 . S
H501 C509 0.950 . S
H502 C507 0.950 . S
H503 C508 0.949 . S
H504 C510 0.950 . S
H505 C511 0.950 . S
H506 C512 0.949 . S
C507 H502 0.950 . S
C507 C509 1.327 . S
C507 C513 1.429 . S
C508 C500 1.574 . S
C508 H503 0.949 . S
C508 C514 1.368 . S
C509 C493 1.349 . S
C509 H501 0.950 . S
C509 C507 1.327 . S
C510 C498 1.349 . S
C510 H504 0.950 . S
C510 C511 1.327 . S
C511 H505 0.950 . S
C511 C510 1.327 . S
C511 C515 1.429 . S
C512 C495 1.574 . S
C512 H506 0.949 . S
C512 C516 1.368 . S
C513 C494 1.429 . S
C513 C507 1.429 . S
C513 C514 1.523 . S
C514 C495 1.368 . S
C514 C508 1.368 . S
C514 C513 1.523 . S
C515 C499 1.429 . S
C515 C511 1.429 . S
C515 C516 1.523 . S
C516 C500 1.368 . S
C516 C512 1.368 . S
C516 C515 1.523 . S
H517 C492 0.950 . S
H518 C494 0.950 . S
H519 C495 0.949 . S
H520 C497 0.950 . S
H521 C499 0.950 . S
C522 C523 1.349 . S
C522 C524 1.327 . S
C522 H547 0.950 . S
C523 C522 1.349 . S
C523 C539 1.349 . S
C524 C522 1.327 . S
C524 C543 1.429 . S
C524 H548 0.950 . S
C525 C542 1.574 . S
C525 C544 1.368 . S
C525 H549 0.949 . S
H526 C530 0.949 . S
C527 C528 1.349 . S
C527 C529 1.327 . S
C527 H550 0.950 . S
C528 C527 1.349 . S
C528 C540 1.349 . S
C529 C527 1.327 . S
C529 C545 1.429 . S
C529 H551 0.950 . S
C530 H526 0.949 . S
C530 C538 1.574 . S
C530 C546 1.368 . S
H531 C539 0.950 . S
H532 C537 0.950 . S
H533 C538 0.949 . S
H534 C540 0.950 . S
H535 C541 0.950 . S
H536 C542 0.949 . S
C537 H532 0.950 . S
C537 C539 1.327 . S
C537 C543 1.429 . S
C538 C530 1.574 . S
C538 H533 0.949 . S
C538 C544 1.368 . S
C539 C523 1.349 . S
C539 H531 0.950 . S
C539 C537 1.327 . S
C540 C528 1.349 . S
C540 H534 0.950 . S
C540 C541 1.327 . S
C541 H535 0.950 . S
C541 C540 1.327 . S
C541 C545 1.429 . S
C542 C525 1.574 . S
C542 H536 0.949 . S
C542 C546 1.368 . S
C543 C524 1.429 . S
C543 C537 1.429 . S
C543 C544 1.523 . S
C544 C525 1.368 . S
C544 C538 1.368 . S
C544 C543 1.523 . S
C545 C529 1.429 . S
C545 C541 1.429 . S
C545 C546 1.523 . S
C546 C530 1.368 . S
C546 C542 1.368 . S
C546 C545 1.523 . S
H547 C522 0.950 . S
H548 C524 0.950 . S
H549 C525 0.949 . S
H550 C527 0.950 . S
H551 C529 0.950 . S
C552 C553 1.349 . S
C552 C554 1.327 . S
C552 H577 0.950 . S
C553 C552 1.349 . S
C553 C569 1.349 . S
C554 C552 1.327 . S
C554 C573 1.429 . S
C554 H578 0.950 . S
C555 C572 1.574 . S
C555 C574 1.368 . S
C555 H579 0.949 . S
H556 C560 0.949 . S
C557 C558 1.349 . S
C557 C559 1.327 . S
C557 H580 0.950 . S
C558 C557 1.349 . S
C558 C570 1.349 . S
C559 C557 1.327 . S
C559 C575 1.429 . S
C559 H581 0.950 . S
C560 H556 0.949 . S
C560 C568 1.574 . S
C560 C576 1.368 . S
H561 C569 0.950 . S
H562 C567 0.950 . S
H563 C568 0.949 . S
H564 C570 0.950 . S
H565 C571 0.950 . S
H566 C572 0.949 . S
C567 H562 0.950 . S
C567 C569 1.327 . S
C567 C573 1.429 . S
C568 C560 1.574 . S
C568 H563 0.949 . S
C568 C574 1.368 . S
C569 C553 1.349 . S
C569 H561 0.950 . S
C569 C567 1.327 . S
C570 C558 1.349 . S
C570 H564 0.950 . S
C570 C571 1.327 . S
C571 H565 0.950 . S
C571 C570 1.327 . S
C571 C575 1.429 . S
C572 C555 1.574 . S
C572 H566 0.949 . S
C572 C576 1.368 . S
C573 C554 1.429 . S
C573 C567 1.429 . S
C573 C574 1.523 . S
C574 C555 1.368 . S
C574 C568 1.368 . S
C574 C573 1.523 . S
C575 C559 1.429 . S
C575 C571 1.429 . S
C575 C576 1.523 . S
C576 C560 1.368 . S
C576 C572 1.368 . S
C576 C575 1.523 . S
H577 C552 0.950 . S
H578 C554 0.950 . S
H579 C555 0.949 . S
H580 C557 0.950 . S
H581 C559 0.950 . S
C582 C583 1.349 . S
C582 C584 1.327 . S
C582 H607 0.950 . S
C583 C582 1.349 . S
C583 C599 1.349 . S
C584 C582 1.327 . S
C584 C603 1.429 . S
C584 H608 0.950 . S
C585 C602 1.574 . S
C585 C604 1.368 . S
C585 H609 0.949 . S
H586 C590 0.949 . S
C587 C588 1.349 . S
C587 C589 1.327 . S
C587 H610 0.950 . S
C588 C587 1.349 . S
C588 C600 1.349 . S
C589 C587 1.327 . S
C589 C605 1.429 . S
C589 H611 0.950 . S
C590 H586 0.949 . S
C590 C598 1.574 . S
C590 C606 1.368 . S
H591 C599 0.950 . S
H592 C597 0.950 . S
H593 C598 0.949 . S
H594 C600 0.950 . S
H595 C601 0.950 . S
H596 C602 0.949 . S
C597 H592 0.950 . S
C597 C599 1.327 . S
C597 C603 1.429 . S
C598 C590 1.574 . S
C598 H593 0.949 . S
C598 C604 1.368 . S
C599 C583 1.349 . S
C599 H591 0.950 . S
C599 C597 1.327 . S
C600 C588 1.349 . S
C600 H594 0.950 . S
C600 C601 1.327 . S
C601 H595 0.950 . S
C601 C600 1.327 . S
C601 C605 1.429 . S
C602 C585 1.574 . S
C602 H596 0.949 . S
C602 C606 1.368 . S
C603 C584 1.429 . S
C603 C597 1.429 . S
C603 C604 1.523 . S
C604 C585 1.368 . S
C604 C598 1.368 . S
C604 C603 1.523 . S
C605 C589 1.429 . S
C605 C601 1.429 . S
C605 C606 1.523 . S
C606 C590 1.368 . S
C606 C602 1.368 . S
C606 C605 1.523 . S
H607 C582 0.950 . S
H608 C584 0.950 . S
H609 C585 0.949 . S
H610 C587 0.950 . S
H611 C589 0.950 . S
C612 C613 1.349 . S
C612 C614 1.327 . S
C612 H637 0.950 . S
C613 C612 1.349 . S
C613 C629 1.349 . S
C614 C612 1.327 . S
C614 C633 1.429 . S
C614 H638 0.950 . S
C615 C632 1.574 . S
C615 C634 1.368 . S
C615 H639 0.949 . S
H616 C620 0.949 . S
C617 C618 1.349 . S
C617 C619 1.327 . S
C617 H640 0.950 . S
C618 C617 1.349 . S
C618 C630 1.349 . S
C619 C617 1.327 . S
C619 C635 1.429 . S
C619 H641 0.950 . S
C620 H616 0.949 . S
C620 C628 1.574 . S
C620 C636 1.368 . S
H621 C629 0.950 . S
H622 C627 0.950 . S
H623 C628 0.949 . S
H624 C630 0.950 . S
H625 C631 0.950 . S
H626 C632 0.949 . S
C627 H622 0.950 . S
C627 C629 1.327 . S
C627 C633 1.429 . S
C628 C620 1.574 . S
C628 H623 0.949 . S
C628 C634 1.368 . S
C629 C613 1.349 . S
C629 H621 0.950 . S
C629 C627 1.327 . S
C630 C618 1.349 . S
C630 H624 0.950 . S
C630 C631 1.327 . S
C631 H625 0.950 . S
C631 C630 1.327 . S
C631 C635 1.429 . S
C632 C615 1.574 . S
C632 H626 0.949 . S
C632 C636 1.368 . S
C633 C614 1.429 . S
C633 C627 1.429 . S
C633 C634 1.523 . S
C634 C615 1.368 . S
C634 C628 1.368 . S
C634 C633 1.523 . S
C635 C619 1.429 . S
C635 C631 1.429 . S
C635 C636 1.523 . S
C636 C620 1.368 . S
C636 C632 1.368 . S
C636 C635 1.523 . S
H637 C612 0.950 . S
H638 C614 0.950 . S
H639 C615 0.949 . S
H640 C617 0.950 . S
H641 C619 0.950 . S
C642 C643 1.349 . S
C642 C644 1.327 . S
C642 H667 0.950 . S
C643 C642 1.349 . S
C643 C659 1.349 . S
C644 C642 1.327 . S
C644 C663 1.429 . S
C644 H668 0.950 . S
C645 C662 1.574 . S
C645 C664 1.368 . S
C645 H669 0.949 . S
H646 C650 0.949 . S
C647 C648 1.349 . S
C647 C649 1.327 . S
C647 H670 0.950 . S
C648 C647 1.349 . S
C648 C660 1.349 . S
C649 C647 1.327 . S
C649 C665 1.429 . S
C649 H671 0.950 . S
C650 H646 0.949 . S
C650 C658 1.574 . S
C650 C666 1.368 . S
H651 C659 0.950 . S
H652 C657 0.950 . S
H653 C658 0.949 . S
H654 C660 0.950 . S
H655 C661 0.950 . S
H656 C662 0.949 . S
C657 H652 0.950 . S
C657 C659 1.327 . S
C657 C663 1.429 . S
C658 C650 1.574 . S
C658 H653 0.949 . S
C658 C664 1.368 . S
C659 C643 1.349 . S
C659 H651 0.950 . S
C659 C657 1.327 . S
C660 C648 1.349 . S
C660 H654 0.950 . S
C660 C661 1.327 . S
C661 H655 0.950 . S
C661 C660 1.327 . S
C661 C665 1.429 . S
C662 C645 1.574 . S
C662 H656 0.949 . S
C662 C666 1.368 . S
C663 C644 1.429 . S
C663 C657 1.429 . S
C663 C664 1.523 . S
C664 C645 1.368 . S
C664 C658 1.368 . S
C664 C663 1.523 . S
C665 C649 1.429 . S
C665 C661 1.429 . S
C665 C666 1.523 . S
C666 C650 1.368 . S
C666 C662 1.368 . S
C666 C665 1.523 . S
H667 C642 0.950 . S
H668 C644 0.950 . S
H669 C645 0.949 . S
H670 C647 0.950 . S
H671 C649 0.950 . S
C672 C673 1.349 . S
C672 C674 1.327 . S
C672 H697 0.950 . S
C673 C672 1.349 . S
C673 C689 1.349 . S
C674 C672 1.327 . S
C674 C693 1.429 . S
C674 H698 0.950 . S
C675 C692 1.574 . S
C675 C694 1.368 . S
C675 H699 0.949 . S
H676 C680 0.949 . S
C677 C678 1.349 . S
C677 C679 1.327 . S
C677 H700 0.950 . S
C678 C677 1.349 . S
C678 C690 1.349 . S
C679 C677 1.327 . S
C679 C695 1.429 . S
C679 H701 0.950 . S
C680 H676 0.949 . S
C680 C688 1.574 . S
C680 C696 1.368 . S
H681 C689 0.950 . S
H682 C687 0.950 . S
H683 C688 0.949 . S
H684 C690 0.950 . S
H685 C691 0.950 . S
H686 C692 0.949 . S
C687 H682 0.950 . S
C687 C689 1.327 . S
C687 C693 1.429 . S
C688 C680 1.574 . S
C688 H683 0.949 . S
C688 C694 1.368 . S
C689 C673 1.349 . S
C689 H681 0.950 . S
C689 C687 1.327 . S
C690 C678 1.349 . S
C690 H684 0.950 . S
C690 C691 1.327 . S
C691 H685 0.950 . S
C691 C690 1.327 . S
C691 C695 1.429 . S
C692 C675 1.574 . S
C692 H686 0.949 . S
C692 C696 1.368 . S
C693 C674 1.429 . S
C693 C687 1.429 . S
C693 C694 1.523 . S
C694 C675 1.368 . S
C694 C688 1.368 . S
C694 C693 1.523 . S
C695 C679 1.429 . S
C695 C691 1.429 . S
C695 C696 1.523 . S
C696 C680 1.368 . S
C696 C692 1.368 . S
C696 C695 1.523 . S
H697 C672 0.950 . S
H698 C674 0.950 . S
H699 C675 0.949 . S
H700 C677 0.950 . S
H701 C679 0.950 . S
C702 C703 1.349 . S
C702 C704 1.327 . S
C702 H727 0.950 . S
C703 C702 1.349 . S
C703 C719 1.349 . S
C704 C702 1.327 . S
C704 C723 1.429 . S
C704 H728 0.950 . S
C705 C722 1.574 . S
C705 C724 1.368 . S
C705 H729 0.949 . S
H706 C710 0.949 . S
C707 C708 1.349 . S
C707 C709 1.327 . S
C707 H730 0.950 . S
C708 C707 1.349 . S
C708 C720 1.349 . S
C709 C707 1.327 . S
C709 C725 1.429 . S
C709 H731 0.950 . S
C710 H706 0.949 . S
C710 C718 1.574 . S
C710 C726 1.368 . S
H711 C719 0.950 . S
H712 C717 0.950 . S
H713 C718 0.949 . S
H714 C720 0.950 . S
H715 C721 0.950 . S
H716 C722 0.949 . S
C717 H712 0.950 . S
C717 C719 1.327 . S
C717 C723 1.429 . S
C718 C710 1.574 . S
C718 H713 0.949 . S
C718 C724 1.368 . S
C719 C703 1.349 . S
C719 H711 0.950 . S
C719 C717 1.327 . S
C720 C708 1.349 . S
C720 H714 0.950 . S
C720 C721 1.327 . S
C721 H715 0.950 . S
C721 C720 1.327 . S
C721 C725 1.429 . S
C722 C705 1.574 . S
C722 H716 0.949 . S
C722 C726 1.368 . S
C723 C704 1.429 . S
C723 C717 1.429 . S
C723 C724 1.523 . S
C724 C705 1.368 . S
C724 C718 1.368 . S
C724 C723 1.523 . S
C725 C709 1.429 . S
C725 C721 1.429 . S
C725 C726 1.523 . S
C726 C710 1.368 . S
C726 C722 1.368 . S
C726 C725 1.523 . S
H727 C702 0.950 . S
H728 C704 0.950 . S
H729 C705 0.949 . S
H730 C707 0.950 . S
H731 C709 0.950 . S
C732 C733 1.349 . S
C732 C734 1.327 . S
C732 H757 0.950 . S
C733 C732 1.349 . S
C733 C749 1.349 . S
C734 C732 1.327 . S
C734 C753 1.429 . S
C734 H758 0.950 . S
C735 C752 1.574 . S
C735 C754 1.368 . S
C735 H759 0.949 . S
H736 C740 0.949 . S
C737 C738 1.349 . S
C737 C739 1.327 . S
C737 H760 0.950 . S
C738 C737 1.349 . S
C738 C750 1.349 . S
C739 C737 1.327 . S
C739 C755 1.429 . S
C739 H761 0.950 . S
C740 H736 0.949 . S
C740 C748 1.574 . S
C740 C756 1.368 . S
H741 C749 0.950 . S
H742 C747 0.950 . S
H743 C748 0.949 . S
H744 C750 0.950 . S
H745 C751 0.950 . S
H746 C752 0.949 . S
C747 H742 0.950 . S
C747 C749 1.327 . S
C747 C753 1.429 . S
C748 C740 1.574 . S
C748 H743 0.949 . S
C748 C754 1.368 . S
C749 C733 1.349 . S
C749 H741 0.950 . S
C749 C747 1.327 . S
C750 C738 1.349 . S
C750 H744 0.950 . S
C750 C751 1.327 . S
C751 H745 0.950 . S
C751 C750 1.327 . S
C751 C755 1.429 . S
C752 C735 1.574 . S
C752 H746 0.949 . S
C752 C756 1.368 . S
C753 C734 1.429 . S
C753 C747 1.429 . S
C753 C754 1.523 . S
C754 C735 1.368 . S
C754 C748 1.368 . S
C754 C753 1.523 . S
C755 C739 1.429 . S
C755 C751 1.429 . S
C755 C756 1.523 . S
C756 C740 1.368 . S
C756 C752 1.368 . S
C756 C755 1.523 . S
H757 C732 0.950 . S
H758 C734 0.950 . S
H759 C735 0.949 . S
H760 C737 0.950 . S
H761 C739 0.950 . S
C762 C763 1.349 . S
C762 C764 1.327 . S
C762 H787 0.950 . S
C763 C762 1.349 . S
C763 C779 1.349 . S
C764 C762 1.327 . S
C764 C783 1.429 . S
C764 H788 0.950 . S
C765 C782 1.574 . S
C765 C784 1.368 . S
C765 H789 0.949 . S
H766 C770 0.949 . S
C767 C768 1.349 . S
C767 C769 1.327 . S
C767 H790 0.950 . S
C768 C767 1.349 . S
C768 C780 1.349 . S
C769 C767 1.327 . S
C769 C785 1.429 . S
C769 H791 0.950 . S
C770 H766 0.949 . S
C770 C778 1.574 . S
C770 C786 1.368 . S
H771 C779 0.950 . S
H772 C777 0.950 . S
H773 C778 0.949 . S
H774 C780 0.950 . S
H775 C781 0.950 . S
H776 C782 0.949 . S
C777 H772 0.950 . S
C777 C779 1.327 . S
C777 C783 1.429 . S
C778 C770 1.574 . S
C778 H773 0.949 . S
C778 C784 1.368 . S
C779 C763 1.349 . S
C779 H771 0.950 . S
C779 C777 1.327 . S
C780 C768 1.349 . S
C780 H774 0.950 . S
C780 C781 1.327 . S
C781 H775 0.950 . S
C781 C780 1.327 . S
C781 C785 1.429 . S
C782 C765 1.574 . S
C782 H776 0.949 . S
C782 C786 1.368 . S
C783 C764 1.429 . S
C783 C777 1.429 . S
C783 C784 1.523 . S
C784 C765 1.368 . S
C784 C778 1.368 . S
C784 C783 1.523 . S
C785 C769 1.429 . S
C785 C781 1.429 . S
C785 C786 1.523 . S
C786 C770 1.368 . S
C786 C782 1.368 . S
C786 C785 1.523 . S
H787 C762 0.950 . S
H788 C764 0.950 . S
H789 C765 0.949 . S
H790 C767 0.950 . S
H791 C769 0.950 . S
C792 C793 1.349 . S
C792 C794 1.327 . S
C792 H817 0.950 . S
C793 C792 1.349 . S
C793 C809 1.349 . S
C794 C792 1.327 . S
C794 C813 1.429 . S
C794 H818 0.950 . S
C795 C812 1.574 . S
C795 C814 1.368 . S
C795 H819 0.949 . S
H796 C800 0.949 . S
C797 C798 1.349 . S
C797 C799 1.327 . S
C797 H820 0.950 . S
C798 C797 1.349 . S
C798 C810 1.349 . S
C799 C797 1.327 . S
C799 C815 1.429 . S
C799 H821 0.950 . S
C800 H796 0.949 . S
C800 C808 1.574 . S
C800 C816 1.368 . S
H801 C809 0.950 . S
H802 C807 0.950 . S
H803 C808 0.949 . S
H804 C810 0.950 . S
H805 C811 0.950 . S
H806 C812 0.949 . S
C807 H802 0.950 . S
C807 C809 1.327 . S
C807 C813 1.429 . S
C808 C800 1.574 . S
C808 H803 0.949 . S
C808 C814 1.368 . S
C809 C793 1.349 . S
C809 H801 0.950 . S
C809 C807 1.327 . S
C810 C798 1.349 . S
C810 H804 0.950 . S
C810 C811 1.327 . S
C811 H805 0.950 . S
C811 C810 1.327 . S
C811 C815 1.429 . S
C812 C795 1.574 . S
C812 H806 0.949 . S
C812 C816 1.368 . S
C813 C794 1.429 . S
C813 C807 1.429 . S
C813 C814 1.523 . S
C814 C795 1.368 . S
C814 C808 1.368 . S
C814 C813 1.523 . S
C815 C799 1.429 . S
C815 C811 1.429 . S
C815 C816 1.523 . S
C816 C800 1.368 . S
C816 C812 1.368 . S
C816 C815 1.523 . S
H817 C792 0.950 . S
H818 C794 0.950 . S
H819 C795 0.949 . S
H820 C797 0.950 . S
H821 C799 0.950 . S
C822 C823 1.349 . S
C822 C824 1.327 . S
C822 H847 0.950 . S
C823 C822 1.349 . S
C823 C839 1.349 . S
C824 C822 1.327 . S
C824 C843 1.429 . S
C824 H848 0.950 . S
C825 C842 1.574 . S
C825 C844 1.368 . S
C825 H849 0.949 . S
H826 C830 0.949 . S
C827 C828 1.349 . S
C827 C829 1.327 . S
C827 H850 0.950 . S
C828 C827 1.349 . S
C828 C840 1.349 . S
C829 C827 1.327 . S
C829 C845 1.429 1_554 S
C829 H851 0.938 1_554 S
C830 H826 0.949 . S
C830 C838 1.574 . S
C830 C846 1.368 . S
H831 C839 0.950 . S
H832 C837 0.950 . S
H833 C838 0.949 . S
H834 C840 0.950 . S
H835 C841 0.958 . S
H836 C842 0.949 . S
C837 H832 0.950 . S
C837 C839 1.327 . S
C837 C843 1.429 . S
C838 C830 1.574 . S
C838 H833 0.949 . S
C838 C844 1.368 . S
C839 C823 1.349 . S
C839 H831 0.950 . S
C839 C837 1.327 . S
C840 C828 1.349 . S
C840 H834 0.950 . S
C840 C841 1.327 . S
C841 H835 0.958 . S
C841 C840 1.327 . S
C841 C845 1.429 1_554 S
C842 C825 1.574 . S
C842 H836 0.949 . S
C842 C846 1.368 . S
C843 C824 1.429 . S
C843 C837 1.429 . S
C843 C844 1.523 . S
C844 C825 1.368 . S
C844 C838 1.368 . S
C844 C843 1.523 . S
C845 C829 1.429 1_556 S
C845 C841 1.429 1_556 S
C845 C846 1.523 . S
C846 C830 1.368 . S
C846 C842 1.368 . S
C846 C845 1.523 . S
H847 C822 0.950 . S
H848 C824 0.950 . S
H849 C825 0.949 . S
H850 C827 0.950 . S
H851 C829 0.938 1_556 S
C852 C853 1.349 . S
C852 C854 1.327 . S
C852 H877 0.950 . S
C853 C852 1.349 . S
C853 C869 1.349 . S
C854 C852 1.327 . S
C854 C873 1.429 . S
C854 H878 0.950 . S
C855 C872 1.574 . S
C855 C874 1.368 . S
C855 H879 0.949 . S
H856 C860 0.949 . S
C857 C858 1.349 . S
C857 C859 1.327 . S
C857 H880 0.950 . S
C858 C857 1.349 . S
C858 C870 1.349 . S
C859 C857 1.327 . S
C859 C875 1.429 . S
C859 H881 0.950 . S
C860 H856 0.949 . S
C860 C868 1.574 . S
C860 C876 1.368 . S
H861 C869 0.950 . S
H862 C867 0.950 . S
H863 C868 0.949 . S
H864 C870 0.950 . S
H865 C871 0.950 . S
H866 C872 0.949 . S
C867 H862 0.950 . S
C867 C869 1.327 . S
C867 C873 1.429 . S
C868 C860 1.574 . S
C868 H863 0.949 . S
C868 C874 1.368 . S
C869 C853 1.349 . S
C869 H861 0.950 . S
C869 C867 1.327 . S
C870 C858 1.349 . S
C870 H864 0.950 . S
C870 C871 1.327 . S
C871 H865 0.950 . S
C871 C870 1.327 . S
C871 C875 1.429 . S
C872 C855 1.574 . S
C872 H866 0.949 . S
C872 C876 1.368 . S
C873 C854 1.429 . S
C873 C867 1.429 . S
C873 C874 1.523 . S
C874 C855 1.368 . S
C874 C868 1.368 . S
C874 C873 1.523 . S
C875 C859 1.429 . S
C875 C871 1.429 . S
C875 C876 1.523 . S
C876 C860 1.368 . S
C876 C872 1.368 . S
C876 C875 1.523 . S
H877 C852 0.950 . S
H878 C854 0.950 . S
H879 C855 0.949 . S
H880 C857 0.950 . S
H881 C859 0.950 . S
C882 C883 1.349 . S
C882 C884 1.327 . S
C882 H907 0.950 . S
C883 C882 1.349 . S
C883 C899 1.349 . S
C884 C882 1.327 . S
C884 C903 1.429 . S
C884 H908 0.950 . S
C885 C902 1.574 . S
C885 C904 1.368 . S
C885 H909 0.949 . S
H886 C890 0.949 . S
C887 C888 1.349 . S
C887 C889 1.327 . S
C887 H910 0.950 . S
C888 C887 1.349 . S
C888 C900 1.349 . S
C889 C887 1.327 . S
C889 C905 1.429 . S
C889 H911 0.950 . S
C890 H886 0.949 . S
C890 C898 1.574 . S
C890 C906 1.368 . S
H891 C899 0.950 . S
H892 C897 0.950 . S
H893 C898 0.949 . S
H894 C900 0.950 . S
H895 C901 0.950 . S
H896 C902 0.949 . S
C897 H892 0.950 . S
C897 C899 1.327 . S
C897 C903 1.429 . S
C898 C890 1.574 . S
C898 H893 0.949 . S
C898 C904 1.368 . S
C899 C883 1.349 . S
C899 H891 0.950 . S
C899 C897 1.327 . S
C900 C888 1.349 . S
C900 H894 0.950 . S
C900 C901 1.327 . S
C901 H895 0.950 . S
C901 C900 1.327 . S
C901 C905 1.429 . S
C902 C885 1.574 . S
C902 H896 0.949 . S
C902 C906 1.368 . S
C903 C884 1.429 . S
C903 C897 1.429 . S
C903 C904 1.523 . S
C904 C885 1.368 . S
C904 C898 1.368 . S
C904 C903 1.523 . S
C905 C889 1.429 . S
C905 C901 1.429 . S
C905 C906 1.523 . S
C906 C890 1.368 . S
C906 C902 1.368 . S
C906 C905 1.523 . S
H907 C882 0.950 . S
H908 C884 0.950 . S
H909 C885 0.949 . S
H910 C887 0.950 . S
H911 C889 0.950 . S
C912 C913 1.349 . S
C912 C914 1.327 . S
C912 H937 0.950 . S
C913 C912 1.349 . S
C913 C929 1.349 . S
C914 C912 1.327 . S
C914 C933 1.429 . S
C914 H938 0.950 . S
C915 C932 1.574 . S
C915 C934 1.368 . S
C915 H939 0.949 . S
H916 C920 0.949 . S
C917 C918 1.349 . S
C917 C919 1.327 . S
C917 H940 0.950 . S
C918 C917 1.349 . S
C918 C930 1.349 . S
C919 C917 1.327 . S
C919 C935 1.429 . S
C919 H941 0.950 . S
C920 H916 0.949 . S
C920 C928 1.574 . S
C920 C936 1.368 . S
H921 C929 0.950 . S
H922 C927 0.950 . S
H923 C928 0.949 . S
H924 C930 0.950 . S
H925 C931 0.950 . S
H926 C932 0.949 . S
C927 H922 0.950 . S
C927 C929 1.327 . S
C927 C933 1.429 . S
C928 C920 1.574 . S
C928 H923 0.949 . S
C928 C934 1.368 . S
C929 C913 1.349 . S
C929 H921 0.950 . S
C929 C927 1.327 . S
C930 C918 1.349 . S
C930 H924 0.950 . S
C930 C931 1.327 . S
C931 H925 0.950 . S
C931 C930 1.327 . S
C931 C935 1.429 . S
C932 C915 1.574 . S
C932 H926 0.949 . S
C932 C936 1.368 . S
C933 C914 1.429 . S
C933 C927 1.429 . S
C933 C934 1.523 . S
C934 C915 1.368 . S
C934 C928 1.368 . S
C934 C933 1.523 . S
C935 C919 1.429 . S
C935 C931 1.429 . S
C935 C936 1.523 . S
C936 C920 1.368 . S
C936 C932 1.368 . S
C936 C935 1.523 . S
H937 C912 0.950 . S
H938 C914 0.950 . S
H939 C915 0.949 . S
H940 C917 0.950 . S
H941 C919 0.950 . S
C942 C943 1.349 . S
C942 C944 1.327 . S
C942 H967 0.950 . S
C943 C942 1.349 . S
C943 C959 1.349 . S
C944 C942 1.327 . S
C944 C963 1.429 . S
C944 H968 0.950 . S
C945 C962 1.574 . S
C945 C964 1.368 . S
C945 H969 0.949 . S
H946 C950 0.949 . S
C947 C948 1.349 . S
C947 C949 1.327 . S
C947 H970 0.950 . S
C948 C947 1.349 . S
C948 C960 1.349 . S
C949 C947 1.327 . S
C949 C965 1.429 . S
C949 H971 0.950 . S
C950 H946 0.949 . S
C950 C958 1.574 . S
C950 C966 1.368 . S
H951 C959 0.950 . S
H952 C957 0.950 . S
H953 C958 0.949 . S
H954 C960 0.950 . S
H955 C961 0.950 . S
H956 C962 0.949 . S
C957 H952 0.950 . S
C957 C959 1.327 . S
C957 C963 1.429 . S
C958 C950 1.574 . S
C958 H953 0.949 . S
C958 C964 1.368 . S
C959 C943 1.349 . S
C959 H951 0.950 . S
C959 C957 1.327 . S
C960 C948 1.349 . S
C960 H954 0.950 . S
C960 C961 1.327 . S
C961 H955 0.950 . S
C961 C960 1.327 . S
C961 C965 1.429 . S
C962 C945 1.574 . S
C962 H956 0.949 . S
C962 C966 1.368 . S
C963 C944 1.429 . S
C963 C957 1.429 . S
C963 C964 1.523 . S
C964 C945 1.368 . S
C964 C958 1.368 . S
C964 C963 1.523 . S
C965 C949 1.429 . S
C965 C961 1.429 . S
C965 C966 1.523 . S
C966 C950 1.368 . S
C966 C962 1.368 . S
C966 C965 1.523 . S
H967 C942 0.950 . S
H968 C944 0.950 . S
H969 C945 0.949 . S
H970 C947 0.950 . S
H971 C949 0.950 . S
C972 C973 1.349 . S
C972 C974 1.327 . S
C972 H997 0.950 . S
C973 C972 1.349 . S
C973 C989 1.349 . S
C974 C972 1.327 . S
C974 C993 1.429 . S
C974 H998 0.950 . S
C975 C992 1.574 . S
C975 C994 1.368 . S
C975 H999 0.949 . S
H976 C980 0.949 . S
C977 C978 1.349 . S
C977 C979 1.327 . S
C977 H1000 0.950 . S
C978 C977 1.349 . S
C978 C990 1.349 . S
C979 C977 1.327 . S
C979 C995 1.429 . S
C979 H1001 0.950 . S
C980 H976 0.949 . S
C980 C988 1.574 . S
C980 C996 1.368 . S
H981 C989 0.950 . S
H982 C987 0.950 . S
H983 C988 0.949 . S
H984 C990 0.950 . S
H985 C991 0.950 . S
H986 C992 0.949 . S
C987 H982 0.950 . S
C987 C989 1.327 . S
C987 C993 1.429 . S
C988 C980 1.574 . S
C988 H983 0.949 . S
C988 C994 1.368 . S
C989 C973 1.349 . S
C989 H981 0.950 . S
C989 C987 1.327 . S
C990 C978 1.349 . S
C990 H984 0.950 . S
C990 C991 1.327 . S
C991 H985 0.950 . S
C991 C990 1.327 . S
C991 C995 1.429 . S
C992 C975 1.574 . S
C992 H986 0.949 . S
C992 C996 1.368 . S
C993 C974 1.429 . S
C993 C987 1.429 . S
C993 C994 1.523 . S
C994 C975 1.368 . S
C994 C988 1.368 . S
C994 C993 1.523 . S
C995 C979 1.429 . S
C995 C991 1.429 . S
C995 C996 1.523 . S
C996 C980 1.368 . S
C996 C992 1.368 . S
C996 C995 1.523 . S
H997 C972 0.950 . S
H998 C974 0.950 . S
H999 C975 0.949 . S
H1000 C977 0.950 . S
H1001 C979 0.950 . S
C1002 C1003 1.349 . S
C1002 C1004 1.327 . S
C1002 H1027 0.950 . S
C1003 C1002 1.349 . S
C1003 C1019 1.349 . S
C1004 C1002 1.327 . S
C1004 C1023 1.429 . S
C1004 H1028 0.950 . S
C1005 C1022 1.574 . S
C1005 C1024 1.368 . S
C1005 H1029 0.949 . S
H1006 C1010 0.949 . S
C1007 C1008 1.349 . S
C1007 C1009 1.327 . S
C1007 H1030 0.950 . S
C1008 C1007 1.349 . S
C1008 C1020 1.349 . S
C1009 C1007 1.327 . S
C1009 C1025 1.429 . S
C1009 H1031 0.950 . S
C1010 H1006 0.949 . S
C1010 C1018 1.574 . S
C1010 C1026 1.368 . S
H1011 C1019 0.950 . S
H1012 C1017 0.950 . S
H1013 C1018 0.949 . S
H1014 C1020 0.950 . S
H1015 C1021 0.950 . S
H1016 C1022 0.949 . S
C1017 H1012 0.950 . S
C1017 C1019 1.327 . S
C1017 C1023 1.429 . S
C1018 C1010 1.574 . S
C1018 H1013 0.949 . S
C1018 C1024 1.368 . S
C1019 C1003 1.349 . S
C1019 H1011 0.950 . S
C1019 C1017 1.327 . S
C1020 C1008 1.349 . S
C1020 H1014 0.950 . S
C1020 C1021 1.327 . S
C1021 H1015 0.950 . S
C1021 C1020 1.327 . S
C1021 C1025 1.429 . S
C1022 C1005 1.574 . S
C1022 H1016 0.949 . S
C1022 C1026 1.368 . S
C1023 C1004 1.429 . S
C1023 C1017 1.429 . S
C1023 C1024 1.523 . S
C1024 C1005 1.368 . S
C1024 C1018 1.368 . S
C1024 C1023 1.523 . S
C1025 C1009 1.429 . S
C1025 C1021 1.429 . S
C1025 C1026 1.523 . S
C1026 C1010 1.368 . S
C1026 C1022 1.368 . S
C1026 C1025 1.523 . S
H1027 C1002 0.950 . S
H1028 C1004 0.950 . S
H1029 C1005 0.949 . S
H1030 C1007 0.950 . S
H1031 C1009 0.950 . S
C1032 C1033 1.349 . S
C1032 C1034 1.327 . S
C1032 H1057 0.950 . S
C1033 C1032 1.349 . S
C1033 C1049 1.349 . S
C1034 C1032 1.327 . S
C1034 C1053 1.429 . S
C1034 H1058 0.950 . S
C1035 C1052 1.574 . S
C1035 C1054 1.368 . S
C1035 H1059 0.949 . S
H1036 C1040 0.949 . S
C1037 C1038 1.349 . S
C1037 C1039 1.327 . S
C1037 H1060 0.950 . S
C1038 C1037 1.349 . S
C1038 C1050 1.349 . S
C1039 C1037 1.327 . S
C1039 C1055 1.429 . S
C1039 H1061 0.950 . S
C1040 H1036 0.949 . S
C1040 C1048 1.574 . S
C1040 C1056 1.368 . S
H1041 C1049 0.950 . S
H1042 C1047 0.950 . S
H1043 C1048 0.949 . S
H1044 C1050 0.950 . S
H1045 C1051 0.950 . S
H1046 C1052 0.949 . S
C1047 H1042 0.950 . S
C1047 C1049 1.327 . S
C1047 C1053 1.429 . S
C1048 C1040 1.574 . S
C1048 H1043 0.949 . S
C1048 C1054 1.368 . S
C1049 C1033 1.349 . S
C1049 H1041 0.950 . S
C1049 C1047 1.327 . S
C1050 C1038 1.349 . S
C1050 H1044 0.950 . S
C1050 C1051 1.327 . S
C1051 H1045 0.950 . S
C1051 C1050 1.327 . S
C1051 C1055 1.429 . S
C1052 C1035 1.574 . S
C1052 H1046 0.949 . S
C1052 C1056 1.368 . S
C1053 C1034 1.429 . S
C1053 C1047 1.429 . S
C1053 C1054 1.523 . S
C1054 C1035 1.368 . S
C1054 C1048 1.368 . S
C1054 C1053 1.523 . S
C1055 C1039 1.429 . S
C1055 C1051 1.429 . S
C1055 C1056 1.523 1_556 S
C1056 C1040 1.368 . S
C1056 C1052 1.368 . S
C1056 C1055 1.523 1_554 S
H1057 C1032 0.950 . S
H1058 C1034 0.950 . S
H1059 C1035 0.949 . S
H1060 C1037 0.950 . S
H1061 C1039 0.950 . S
C1062 C1063 1.349 . S
C1062 C1064 1.327 . S
C1062 H1087 0.950 . S
C1063 C1062 1.349 . S
C1063 C1079 1.349 . S
C1064 C1062 1.327 . S
C1064 C1083 1.429 . S
C1064 H1088 0.950 . S
C1065 C1082 1.574 . S
C1065 C1084 1.368 . S
C1065 H1089 0.949 . S
H1066 C1070 0.949 . S
C1067 C1068 1.349 . S
C1067 C1069 1.327 . S
C1067 H1090 0.950 . S
C1068 C1067 1.349 . S
C1068 C1080 1.349 . S
C1069 C1067 1.327 . S
C1069 C1085 1.429 . S
C1069 H1091 0.950 . S
C1070 H1066 0.949 . S
C1070 C1078 1.574 . S
C1070 C1086 1.368 . S
H1071 C1079 0.950 . S
H1072 C1077 0.950 . S
H1073 C1078 0.949 . S
H1074 C1080 0.950 . S
H1075 C1081 0.950 . S
H1076 C1082 0.949 . S
C1077 H1072 0.950 . S
C1077 C1079 1.327 . S
C1077 C1083 1.429 . S
C1078 C1070 1.574 . S
C1078 H1073 0.949 . S
C1078 C1084 1.368 . S
C1079 C1063 1.349 . S
C1079 H1071 0.950 . S
C1079 C1077 1.327 . S
C1080 C1068 1.349 . S
C1080 H1074 0.950 . S
C1080 C1081 1.327 . S
C1081 H1075 0.950 . S
C1081 C1080 1.327 . S
C1081 C1085 1.429 . S
C1082 C1065 1.574 . S
C1082 H1076 0.949 . S
C1082 C1086 1.368 . S
C1083 C1064 1.429 . S
C1083 C1077 1.429 . S
C1083 C1084 1.523 . S
C1084 C1065 1.368 . S
C1084 C1078 1.368 . S
C1084 C1083 1.523 . S
C1085 C1069 1.429 . S
C1085 C1081 1.429 . S
C1085 C1086 1.523 . S
C1086 C1070 1.368 . S
C1086 C1082 1.368 . S
C1086 C1085 1.523 . S
H1087 C1062 0.950 . S
H1088 C1064 0.950 . S
H1089 C1065 0.949 . S
H1090 C1067 0.950 . S
H1091 C1069 0.950 . S
C378 C365 1.559 . S
C373 C45 1.559 . S
C403 C84 1.445 . S
C408 C299 1.433 . S
C433 C126 1.343 . S
C438 C313 1.354 . S
C463 C189 1.454 . S
C468 C327 1.433 . S
C498 C341 1.480 . S
C493 C228 1.495 . S
C523 C270 1.476 . S
C528 C351 1.510 . S
C553 C69 1.549 . S
C558 C309 1.567 . S
C583 C141 1.651 . S
C588 C323 1.653 . S
C613 C174 1.533 . S
C618 C337 1.572 . S
C648 C355 1.458 . S
C643 C213 1.459 . S
C678 C369 1.491 . S
C673 C285 1.511 . S
C708 C295 1.536 . S
C703 C30 1.511 . S
C733 C36 1.498 . S
C738 C310 1.441 . S
C763 C93 1.587 . S
C768 C324 1.528 . S
C798 C338 1.535 . S
C793 C117 1.590 . S
C823 C180 1.469 . S
C828 C357 1.402 . S
C858 C371 1.369 . S
C853 C237 1.439 . S
C888 C296 1.412 . S
C883 C261 1.465 . S
C918 C366 1.412 . S
C913 C78 1.458 . S
C943 C132 1.347 . S
C948 C301 1.289 . S
C978 C315 1.296 . S
C973 C165 1.348 . S
C1003 C222 1.441 . S
C1008 C329 1.378 . S
C1033 C276 1.470 . S
C1038 C343 1.404 . S
C1063 C21 1.499 . S
C1068 C352 1.446 . S
