# Generated by pormake.
# Topology ant, (3,6)-cn, num edge types: 1
# Building blocks:
#     Node 0, Type 0, BuildingBlock: BETDIP_clean_linker_0, # of connection points: 3
#     Node 1, Type 0, BuildingBlock: BETDIP_clean_linker_0, # of connection points: 3
#     Node 2, Type 0, BuildingBlock: BETDIP_clean_linker_0, # of connection points: 3
#     Node 3, Type 0, BuildingBlock: BETDIP_clean_linker_0, # of connection points: 3
#     Node 4, Type 0, BuildingBlock: BETDIP_clean_linker_0, # of connection points: 3
#     Node 5, Type 0, BuildingBlock: BETDIP_clean_linker_0, # of connection points: 3
#     Node 6, Type 0, BuildingBlock: BETDIP_clean_linker_0, # of connection points: 3
#     Node 7, Type 0, BuildingBlock: BETDIP_clean_linker_0, # of connection points: 3
#     Node 8, Type 1, BuildingBlock: MIDCAF_clean_sbu_0, # of connection points: 6
#     Node 9, Type 1, BuildingBlock: MIDCAF_clean_sbu_0, # of connection points: 6
#     Node 10, Type 1, BuildingBlock: MIDCAF_clean_sbu_0, # of connection points: 6
#     Node 11, Type 1, BuildingBlock: MIDCAF_clean_sbu_0, # of connection points: 6
#     Edge 12, Type (0, 1), BuildingBlock: XUDNAN_clean_linker_2, # of connection points: 2
#     Edge 13, Type (0, 1), BuildingBlock: XUDNAN_clean_linker_2, # of connection points: 2
#     Edge 14, Type (0, 1), BuildingBlock: XUDNAN_clean_linker_2, # of connection points: 2
#     Edge 15, Type (0, 1), BuildingBlock: XUDNAN_clean_linker_2, # of connection points: 2
#     Edge 16, Type (0, 1), BuildingBlock: XUDNAN_clean_linker_2, # of connection points: 2
#     Edge 17, Type (0, 1), BuildingBlock: XUDNAN_clean_linker_2, # of connection points: 2
#     Edge 18, Type (0, 1), BuildingBlock: XUDNAN_clean_linker_2, # of connection points: 2
#     Edge 19, Type (0, 1), BuildingBlock: XUDNAN_clean_linker_2, # of connection points: 2
#     Edge 20, Type (0, 1), BuildingBlock: XUDNAN_clean_linker_2, # of connection points: 2
#     Edge 21, Type (0, 1), BuildingBlock: XUDNAN_clean_linker_2, # of connection points: 2
#     Edge 22, Type (0, 1), BuildingBlock: XUDNAN_clean_linker_2, # of connection points: 2
#     Edge 23, Type (0, 1), BuildingBlock: XUDNAN_clean_linker_2, # of connection points: 2
#     Edge 24, Type (0, 1), BuildingBlock: XUDNAN_clean_linker_2, # of connection points: 2
#     Edge 25, Type (0, 1), BuildingBlock: XUDNAN_clean_linker_2, # of connection points: 2
#     Edge 26, Type (0, 1), BuildingBlock: XUDNAN_clean_linker_2, # of connection points: 2
#     Edge 27, Type (0, 1), BuildingBlock: XUDNAN_clean_linker_2, # of connection points: 2
#     Edge 28, Type (0, 1), BuildingBlock: XUDNAN_clean_linker_2, # of connection points: 2
#     Edge 29, Type (0, 1), BuildingBlock: XUDNAN_clean_linker_2, # of connection points: 2
#     Edge 30, Type (0, 1), BuildingBlock: XUDNAN_clean_linker_2, # of connection points: 2
#     Edge 31, Type (0, 1), BuildingBlock: XUDNAN_clean_linker_2, # of connection points: 2
#     Edge 32, Type (0, 1), BuildingBlock: XUDNAN_clean_linker_2, # of connection points: 2
#     Edge 33, Type (0, 1), BuildingBlock: XUDNAN_clean_linker_2, # of connection points: 2
#     Edge 34, Type (0, 1), BuildingBlock: XUDNAN_clean_linker_2, # of connection points: 2
#     Edge 35, Type (0, 1), BuildingBlock: XUDNAN_clean_linker_2, # of connection points: 2
# Relax obj value: 0.091
# Max RMSD: 0.189
# Mean RMSD: 0.127
data_MOF--net-ant--node1-MIDCAF_clean_sbu_0--node2-BETDIP_clean_linker_0--edge1-XUDNAN_clean_linker_2
_symmetry_space_group_name_H-M    P1
_symmetry_Int_Tables_number       1
_symmetry_cell_setting            triclinic
loop_
_symmetry_equiv_pos_as_xyz
'x, y, z'
_cell_length_a     28.811417
_cell_length_b     28.546808
_cell_length_c     70.574623
_cell_angle_alpha  94.389255
_cell_angle_beta   93.76457
_cell_angle_gamma 89.944615
loop_
_atom_site_label
_atom_site_type_symbol
_atom_site_fract_x
_atom_site_fract_y
_atom_site_fract_z
_atom_type_partial_charge
H0 H 0.20985 0.2625 0.09419 0.0
H1 H 0.16592 0.14573 0.05516 0.0
H2 H 0.11855 0.28427 0.0446 0.0
H3 H 0.26797 0.14649 0.06962 0.0
C4 C 0.24614 0.1365 0.08065 0.0
C5 C 0.18946 0.24927 0.08147 0.0
C6 C 0.16526 0.28049 0.06977 0.0
C7 C 0.18965 0.20072 0.07621 0.0
C8 C 0.16535 0.18307 0.05933 0.0
C9 C 0.13926 0.21317 0.04813 0.0
C10 C 0.13877 0.26144 0.05352 0.0
N11 N 0.21357 0.16932 0.08804 0.0
H12 H 0.05933 0.80669 0.35414 0.0
H13 H 0.13516 0.76556 0.30544 0.0
H14 H 0.99005 0.80029 0.29793 0.0
H15 H 0.15579 0.70853 0.33369 0.0
C16 C 0.1726 0.74126 0.33931 0.0
C17 C 0.06015 0.80023 0.33883 0.0
C18 C 0.01903 0.80359 0.32697 0.0
C19 C 0.10194 0.78607 0.33102 0.0
C20 C 0.10284 0.77701 0.31126 0.0
C21 C 0.06309 0.78291 0.29907 0.0
C22 C 0.02106 0.79549 0.30711 0.0
N23 N 0.1433 0.78068 0.34284 0.0
H24 H 0.7387 0.80437 0.5861 0.0
H25 H 0.72223 0.68632 0.54454 0.0
H26 H 0.67547 0.82239 0.53004 0.0
H27 H 0.79504 0.66923 0.55984 0.0
C28 C 0.78248 0.67223 0.57408 0.0
C29 C 0.7274 0.79028 0.57186 0.0
C30 C 0.70533 0.81967 0.55881 0.0
C31 C 0.73495 0.74243 0.56661 0.0
C32 C 0.71874 0.72355 0.54838 0.0
C33 C 0.6966 0.75195 0.53522 0.0
C34 C 0.69071 0.79998 0.54048 0.0
N35 N 0.75714 0.71313 0.57996 0.0
H36 H 0.49525 0.27066 0.83376 0.0
H37 H 0.5751 0.2906 0.78551 0.0
H38 H 0.42917 0.26264 0.77682 0.0
H39 H 0.62668 0.24959 0.80313 0.0
C40 C 0.62568 0.26972 0.81681 0.0
C41 C 0.49704 0.27307 0.81858 0.0
C42 C 0.45658 0.26615 0.80624 0.0
C43 C 0.54037 0.28046 0.81121 0.0
C44 C 0.54241 0.28336 0.79149 0.0
C45 C 0.50263 0.27662 0.77916 0.0
C46 C 0.45981 0.26812 0.7865 0.0
N47 N 0.58176 0.28351 0.82354 0.0
H48 H 0.96438 0.71146 0.90748 0.0
H49 H 1.00348 0.77015 0.96421 0.0
H50 H 1.00069 0.62017 0.95158 0.0
H51 H 0.95826 0.82983 0.95451 0.0
C52 C 0.97092 0.83337 0.94052 0.0
C53 C 0.97492 0.70683 0.92224 0.0
C54 C 0.9799 0.66142 0.92843 0.0
C55 C 0.98308 0.74635 0.93514 0.0
C56 C 0.9971 0.73981 0.95429 0.0
C57 C 1.00369 0.69443 0.9606 0.0
C58 C 0.99488 0.65553 0.94739 0.0
N59 N 0.9789 0.79221 0.92846 0.0
H60 H 0.66821 0.82234 0.14647 0.0
H61 H 0.74913 0.79003 0.19735 0.0
H62 H 0.60307 0.76176 0.19236 0.0
H63 H 0.78306 0.86281 0.18856 0.0
C64 C 0.79137 0.8462 0.17482 0.0
C65 C 0.6702 0.80856 0.16037 0.0
C66 C 0.62937 0.79348 0.16826 0.0
C67 C 0.71359 0.80791 0.17087 0.0
C68 C 0.71603 0.79126 0.18918 0.0
C69 C 0.67625 0.77466 0.19683 0.0
C70 C 0.63347 0.7752 0.18627 0.0
N71 N 0.75474 0.82354 0.163 0.0
H72 H 0.51251 0.256 0.3902 0.0
H73 H 0.5676 0.29969 0.44712 0.0
H74 H 0.54237 0.15385 0.43112 0.0
H75 H 0.52458 0.36517 0.44071 0.0
C76 C 0.53481 0.3707 0.4265 0.0
C77 C 0.52471 0.24742 0.40436 0.0
C78 C 0.52407 0.20039 0.40916 0.0
C79 C 0.53963 0.28373 0.41807 0.0
C80 C 0.55547 0.27232 0.4365 0.0
C81 C 0.5556 0.2255 0.44133 0.0
C82 C 0.54051 0.1901 0.42754 0.0
N83 N 0.53878 0.33124 0.41304 0.0
H84 H 0.14652 0.34507 0.6538 0.0
H85 H 0.22463 0.31927 0.70571 0.0
H86 H 0.07615 0.30736 0.70275 0.0
H87 H 0.27274 0.38298 0.68912 0.0
C88 C 0.2735 0.35426 0.67811 0.0
C89 C 0.14673 0.33586 0.6684 0.0
C90 C 0.10476 0.32813 0.67694 0.0
C91 C 0.18978 0.33265 0.67867 0.0
C92 C 0.19137 0.32248 0.69782 0.0
C93 C 0.15033 0.31345 0.70649 0.0
C94 C 0.1074 0.31565 0.69595 0.0
N95 N 0.23127 0.33584 0.66908 0.0
Zn96 Zn 0.24231 0.67134 0.15139 0.0
Zn97 Zn 0.09867 0.81895 0.09278 0.0
Zn98 Zn 0.19407 0.7203 0.12894 0.0
C99 C 0.13905 0.7129 0.09249 0.0
C100 C 0.20386 0.8109 0.11214 0.0
O101 O 0.16005 0.72345 0.15603 0.0
O102 O 0.20989 0.68783 0.17524 0.0
C103 C 0.20301 0.61189 0.11929 0.0
O104 O 0.16384 0.68527 0.10242 0.0
O105 O 0.13376 0.755 0.09966 0.0
O106 O 0.16188 0.7976 0.1076 0.0
O107 O 0.23016 0.78234 0.12099 0.0
O108 O 0.22478 0.61132 0.13547 0.0
O109 O 0.18941 0.6512 0.1131 0.0
O110 O 0.26408 0.75311 0.12985 0.0
O111 O 0.30233 0.70449 0.14816 0.0
C112 C 0.30223 0.73958 0.13825 0.0
O113 O 0.13434 0.74898 0.14345 0.0
O114 O 0.11625 0.78338 0.11753 0.0
C115 C 0.17237 0.70999 0.17258 0.0
C116 C 0.10585 0.77476 0.13426 0.0
Zn117 Zn 0.54116 0.6834 0.32482 0.0
Zn118 Zn 0.62354 0.84352 0.39121 0.0
Zn119 Zn 0.59661 0.78644 0.36483 0.0
C120 C 0.55031 0.88942 0.37524 0.0
C121 C 0.69914 0.8316 0.36811 0.0
O122 O 0.57954 0.71029 0.37195 0.0
O123 O 0.55025 0.65302 0.34989 0.0
C124 C 0.51183 0.78051 0.34234 0.0
O125 O 0.54889 0.84965 0.36517 0.0
O126 O 0.58128 0.897 0.38857 0.0
O127 O 0.6886 0.85126 0.38389 0.0
O128 O 0.66844 0.80637 0.35784 0.0
O129 O 0.54045 0.74933 0.33714 0.0
O130 O 0.52869 0.81242 0.35442 0.0
O131 O 0.64524 0.78206 0.34219 0.0
O132 O 0.59029 0.73293 0.33359 0.0
C133 C 0.62792 0.75155 0.32962 0.0
O134 O 0.59981 0.74307 0.38917 0.0
O135 O 0.6126 0.80149 0.41128 0.0
C136 C 0.56493 0.66739 0.36693 0.0
C137 C 0.60507 0.75841 0.40678 0.0
Zn138 Zn 0.63169 0.32308 0.59687 0.0
Zn139 Zn 0.72344 0.20912 0.64167 0.0
Zn140 Zn 0.67886 0.2628 0.61667 0.0
C141 C 0.78301 0.28352 0.63561 0.0
C142 C 0.70356 0.15292 0.60705 0.0
O143 O 0.6105 0.27972 0.62846 0.0
O144 O 0.57299 0.32829 0.60985 0.0
C145 C 0.71396 0.36793 0.60788 0.0
O146 O 0.74857 0.29428 0.62418 0.0
O147 O 0.7806 0.24841 0.64536 0.0
O148 O 0.72282 0.15187 0.62363 0.0
O149 O 0.68533 0.19144 0.60157 0.0
O150 O 0.67474 0.37632 0.59994 0.0
O151 O 0.72254 0.32749 0.61438 0.0
O152 O 0.66492 0.22385 0.58868 0.0
O153 O 0.63352 0.28207 0.5732 0.0
C154 C 0.6481 0.24037 0.57321 0.0
O155 O 0.63965 0.26013 0.6426 0.0
O156 O 0.67853 0.21437 0.66195 0.0
C157 C 0.57395 0.30372 0.62397 0.0
C158 C 0.64441 0.24093 0.65857 0.0
Zn159 Zn 0.00983 0.17668 0.84924 0.0
Zn160 Zn 0.10774 0.2871 0.896 0.0
Zn161 Zn 0.05005 0.23669 0.87412 0.0
C162 C 0.07503 0.21834 0.9176 0.0
C163 C 0.03371 0.34537 0.88419 0.0
O164 O 0.08692 0.23102 0.8472 0.0
O165 O 0.04395 0.18519 0.82636 0.0
C166 C 0.02435 0.12736 0.88066 0.0
O167 O 0.0564 0.20297 0.90123 0.0
O168 O 0.0976 0.25643 0.91951 0.0
O169 O 0.07525 0.34653 0.89116 0.0
O170 O 0.01449 0.3057 0.87825 0.0
O171 O 0.01665 0.1184 0.86294 0.0
O172 O 0.03466 0.16977 0.88738 0.0
O173 O 0.98371 0.27219 0.86786 0.0
O174 O 0.95025 0.2122 0.8504 0.0
C175 C 0.94787 0.25316 0.85848 0.0
O176 O 0.12077 0.24058 0.86226 0.0
O177 O 0.16782 0.27604 0.88487 0.0
C178 C 0.0778 0.21314 0.82997 0.0
C179 C 0.16204 0.2544 0.86865 0.0
H180 H 0.17444 0.33303 0.10466 0.0
H181 H 0.16659 0.34731 0.04365 0.0
H182 H 0.17046 0.43312 0.04957 0.0
H183 H 0.10924 0.43629 0.11842 0.0
H184 H 0.14634 0.45178 0.13953 0.0
H185 H 0.13992 0.39114 0.13061 0.0
H186 H 0.22929 0.38409 0.129 0.0
H187 H 0.23598 0.4446 0.13801 0.0
H188 H 0.25974 0.42467 0.11582 0.0
H189 H 0.17451 0.51867 0.06209 0.0
H190 H 0.18623 0.59579 0.08046 0.0
H191 H 0.19778 0.52528 0.13289 0.0
C192 C 0.17375 0.35398 0.0925 0.0
C193 C 0.16902 0.33277 0.07366 0.0
C194 C 0.16838 0.36216 0.05826 0.0
C195 C 0.17098 0.41121 0.06144 0.0
C196 C 0.17505 0.43082 0.08013 0.0
C197 C 0.17708 0.4031 0.0954 0.0
C198 C 0.1839 0.43293 0.11407 0.0
C199 C 0.14237 0.42772 0.12638 0.0
C200 C 0.22997 0.42085 0.12485 0.0
C201 C 0.18556 0.48158 0.10688 0.0
C202 C 0.17973 0.47977 0.08727 0.0
C203 C 0.17935 0.52049 0.07746 0.0
C204 C 0.18581 0.56414 0.08799 0.0
C205 C 0.1932 0.56655 0.10806 0.0
C206 C 0.19268 0.5246 0.11753 0.0
H207 H 0.93431 0.76021 0.31824 0.0
H208 H 1.00164 0.87405 0.35406 0.0
H209 H 0.92618 0.89543 0.36706 0.0
H210 H 0.82622 0.81921 0.30732 0.0
H211 H 0.79032 0.76794 0.30863 0.0
H212 H 0.84923 0.76144 0.30172 0.0
H213 H 0.86783 0.70685 0.32879 0.0
H214 H 0.8088 0.71253 0.33559 0.0
H215 H 0.85648 0.72676 0.3529 0.0
H216 H 0.84439 0.90445 0.37613 0.0
H217 H 0.76195 0.89805 0.38254 0.0
H218 H 0.74609 0.77771 0.34105 0.0
C219 C 0.93304 0.78984 0.32873 0.0
C220 C 0.97382 0.81568 0.33511 0.0
C221 C 0.97095 0.85366 0.34909 0.0
C222 C 0.9282 0.86621 0.35644 0.0
C223 C 0.88868 0.84023 0.34976 0.0
C224 C 0.89069 0.80257 0.33636 0.0
C225 C 0.84322 0.77948 0.33218 0.0
C226 C 0.82625 0.7822 0.31121 0.0
C227 C 0.84416 0.72838 0.3377 0.0
C228 C 0.81411 0.81028 0.34525 0.0
C229 C 0.8412 0.84515 0.35518 0.0
C230 C 0.82285 0.87734 0.36844 0.0
C231 C 0.77584 0.87334 0.37196 0.0
C232 C 0.74734 0.83735 0.36232 0.0
C233 C 0.76672 0.80586 0.34852 0.0
H234 H 0.79934 0.58356 0.56029 0.0
H235 H 0.76857 0.66526 0.61218 0.0
H236 H 0.76662 0.59213 0.62896 0.0
H237 H 0.71993 0.49678 0.56461 0.0
H238 H 0.75391 0.44948 0.55431 0.0
H239 H 0.76272 0.50837 0.54801 0.0
H240 H 0.85036 0.50211 0.55855 0.0
H241 H 0.84138 0.44323 0.56522 0.0
H242 H 0.86741 0.48715 0.58236 0.0
H243 H 0.75817 0.50942 0.63881 0.0
H244 H 0.7319 0.42706 0.63935 0.0
H245 H 0.7643 0.39973 0.58062 0.0
C246 C 0.79356 0.58609 0.57534 0.0
C247 C 0.78475 0.62993 0.58504 0.0
C248 C 0.77578 0.63197 0.60455 0.0
C249 C 0.77502 0.59062 0.61421 0.0
C250 C 0.78315 0.54763 0.60412 0.0
C251 C 0.79184 0.54521 0.58503 0.0
C252 C 0.79217 0.49483 0.57657 0.0
C253 C 0.75496 0.48692 0.55991 0.0
C254 C 0.84073 0.48103 0.57031 0.0
C255 C 0.78021 0.46917 0.59362 0.0
C256 C 0.77678 0.50001 0.60958 0.0
C257 C 0.7618 0.4849 0.62653 0.0
C258 C 0.74747 0.4379 0.62682 0.0
C259 C 0.74757 0.40694 0.6102 0.0
C260 C 0.76589 0.42231 0.5937 0.0
H261 H 0.70846 0.26609 0.80171 0.0
H262 H 0.6448 0.3008 0.85486 0.0
H263 H 0.72331 0.31397 0.87129 0.0
H264 H 0.7985 0.201 0.81946 0.0
H265 H 0.84055 0.22039 0.80389 0.0
H266 H 0.77975 0.22067 0.79652 0.0
H267 H 0.78533 0.30932 0.7911 0.0
H268 H 0.84632 0.30931 0.79866 0.0
H269 H 0.8076 0.35015 0.81029 0.0
H270 H 0.81053 0.31152 0.88229 0.0
H271 H 0.89449 0.29208 0.88648 0.0
H272 H 0.89848 0.263 0.82557 0.0
C273 C 0.71102 0.27743 0.81675 0.0
C274 C 0.67087 0.2825 0.82705 0.0
C275 C 0.67532 0.29704 0.84672 0.0
C276 C 0.71974 0.30469 0.8561 0.0
C277 C 0.75896 0.29855 0.84549 0.0
C278 C 0.75466 0.2857 0.82616 0.0
C279 C 0.8014 0.27753 0.81802 0.0
C280 C 0.80525 0.22691 0.80896 0.0
C281 C 0.8107 0.31375 0.80367 0.0
C282 C 0.83298 0.28562 0.8359 0.0
C283 C 0.8083 0.29845 0.85164 0.0
C284 C 0.83023 0.30285 0.86998 0.0
C285 C 0.87802 0.29228 0.87225 0.0
C286 C 0.90297 0.27752 0.85627 0.0
C287 C 0.88034 0.27563 0.83793 0.0
H288 H 0.04076 0.61756 0.90545 0.0
H289 H 0.90134 0.60796 0.92403 0.0
H290 H 0.89353 0.52734 0.90839 0.0
H291 H 0.02175 0.53948 0.8591 0.0
H292 H 0.07879 0.51433 0.86262 0.0
H293 H 0.06864 0.57456 0.87091 0.0
H294 H 0.10025 0.55698 0.90486 0.0
H295 H 0.1102 0.49695 0.89675 0.0
H296 H 0.07427 0.51028 0.91642 0.0
H297 H 0.907 0.44293 0.8962 0.0
H298 H 0.94138 0.3641 0.88968 0.0
H299 H 0.07174 0.42938 0.87911 0.0
C300 C 0.00786 0.59918 0.90531 0.0
C301 C 0.9711 0.61905 0.91534 0.0
C302 C 0.92927 0.59348 0.91587 0.0
C303 C 0.92464 0.54773 0.90706 0.0
C304 C 0.96219 0.52821 0.89776 0.0
C305 C 1.00289 0.55346 0.89668 0.0
C306 C 0.04052 0.5227 0.88844 0.0
C307 C 0.05315 0.53873 0.86912 0.0
C308 C 0.08381 0.52167 0.90246 0.0
C309 C 0.01566 0.47574 0.88604 0.0
C310 C 0.97015 0.47955 0.89102 0.0
C311 C 0.9422 0.43975 0.89179 0.0
C312 C 0.96179 0.39504 0.88795 0.0
C313 C 0.00892 0.39071 0.8837 0.0
C314 C 0.03538 0.4317 0.88211 0.0
H315 H 0.83185 0.81718 0.14099 0.0
H316 H 0.86357 0.86317 0.20045 0.0
H317 H 0.94727 0.8527 0.1962 0.0
H318 H 0.9206 0.72949 0.13709 0.0
H319 H 0.93486 0.74189 0.11349 0.0
H320 H 0.8771 0.75327 0.12099 0.0
H321 H 0.88403 0.8398 0.11281 0.0
H322 H 0.9419 0.82866 0.10532 0.0
H323 H 0.93217 0.87523 0.12334 0.0
H324 H 0.02657 0.83209 0.18645 0.0
H325 H 0.09808 0.8079 0.17091 0.0
H326 H 0.01781 0.78065 0.11706 0.0
C327 C 0.85653 0.82519 0.15304 0.0
C328 C 0.84129 0.84083 0.17111 0.0
C329 C 0.87457 0.85121 0.18651 0.0
C330 C 0.92218 0.84533 0.18424 0.0
C331 C 0.93624 0.82975 0.16636 0.0
C332 C 0.90462 0.82032 0.15093 0.0
C333 C 0.92959 0.80439 0.13325 0.0
C334 C 0.91464 0.75428 0.12577 0.0
C335 C 0.92143 0.8391 0.11776 0.0
C336 C 0.9799 0.80575 0.14127 0.0
C337 C 0.98273 0.82016 0.16046 0.0
C338 C 0.02491 0.82153 0.17136 0.0
C339 C 0.0653 0.80763 0.16245 0.0
C340 C 0.06341 0.79309 0.14281 0.0
C341 C 0.02023 0.7927 0.13203 0.0
H342 H 0.56785 0.4023 0.39377 0.0
H343 H 0.514 0.45003 0.44782 0.0
H344 H 0.52127 0.53258 0.43992 0.0
H345 H 0.65212 0.49774 0.39286 0.0
H346 H 0.64317 0.50101 0.36748 0.0
H347 H 0.6353 0.44593 0.37776 0.0
H348 H 0.55152 0.43919 0.36195 0.0
H349 H 0.5593 0.49401 0.35154 0.0
H350 H 0.51121 0.48663 0.36616 0.0
H351 H 0.52868 0.61028 0.42472 0.0
H352 H 0.53615 0.67493 0.40351 0.0
H353 H 0.59058 0.57657 0.3608 0.0
C354 C 0.55774 0.43011 0.40396 0.0
C355 C 0.54009 0.41983 0.42138 0.0
C356 C 0.52749 0.45725 0.43437 0.0
C357 C 0.53162 0.50423 0.43003 0.0
C358 C 0.54902 0.51332 0.41272 0.0
C359 C 0.56213 0.47725 0.39994 0.0
C360 C 0.57889 0.4963 0.38215 0.0
C361 C 0.63044 0.48454 0.37994 0.0
C362 C 0.5484 0.47795 0.36441 0.0
C363 C 0.57215 0.54851 0.3867 0.0
C364 C 0.55508 0.55785 0.40441 0.0
C365 C 0.54318 0.60345 0.41102 0.0
C366 C 0.54822 0.64019 0.39906 0.0
C367 C 0.56574 0.63117 0.3809 0.0
C368 C 0.57815 0.58473 0.37483 0.0
H369 H 0.01968 0.35159 0.69116 0.0
H370 H 0.0832 0.31264 0.63799 0.0
H371 H 0.00654 0.31575 0.62079 0.0
H372 H 0.92911 0.27261 0.68153 0.0
H373 H 0.88684 0.30867 0.69346 0.0
H374 H 0.94751 0.315 0.70081 0.0
H375 H 0.94269 0.40387 0.69551 0.0
H376 H 0.88196 0.39746 0.68781 0.0
H377 H 0.92183 0.42213 0.67259 0.0
H378 H 0.92155 0.31491 0.60953 0.0
H379 H 0.83733 0.29597 0.60636 0.0
H380 H 0.82994 0.32355 0.66723 0.0
C381 C 0.01807 0.34365 0.67591 0.0
C382 C 0.05848 0.33225 0.66612 0.0
C383 C 0.05366 0.32294 0.64601 0.0
C384 C 0.00995 0.32448 0.63602 0.0
C385 C 0.97097 0.33478 0.64625 0.0
C386 C 0.97467 0.34342 0.66581 0.0
C387 C 0.92729 0.34578 0.67392 0.0
C388 C 0.92242 0.30828 0.68826 0.0
C389 C 0.9179 0.39526 0.68299 0.0
C390 C 0.89636 0.3351 0.65594 0.0
C391 C 0.92199 0.33085 0.64 0.0
C392 C 0.90111 0.31866 0.62188 0.0
C393 C 0.85328 0.3083 0.62016 0.0
C394 C 0.82753 0.30888 0.63654 0.0
C395 C 0.84898 0.32384 0.6545 0.0
H396 H 0.34858 0.40671 0.67135 0.0
H397 H 0.2985 0.26341 0.67002 0.0
H398 H 0.37427 0.23424 0.65933 0.0
H399 H 0.40449 0.38999 0.62824 0.0
H400 H 0.45213 0.42948 0.63572 0.0
H401 H 0.39665 0.43831 0.64572 0.0
H402 H 0.43674 0.43616 0.67947 0.0
H403 H 0.49254 0.42577 0.6698 0.0
H404 H 0.47034 0.38556 0.68554 0.0
H405 H 0.45564 0.22111 0.64874 0.0
H406 H 0.53088 0.2252 0.63375 0.0
H407 H 0.52334 0.37718 0.63821 0.0
C408 C 0.354 0.36922 0.669 0.0
C409 C 0.31835 0.3371 0.67161 0.0
C410 C 0.32576 0.28835 0.66805 0.0
C411 C 0.36869 0.27154 0.66215 0.0
C412 C 0.40329 0.30412 0.65957 0.0
C413 C 0.39606 0.35198 0.6625 0.0
C414 C 0.4368 0.37968 0.65664 0.0
C415 C 0.4216 0.4112 0.64062 0.0
C416 C 0.46052 0.40849 0.67389 0.0
C417 C 0.46763 0.34001 0.64958 0.0
C418 C 0.44844 0.29667 0.65199 0.0
C419 C 0.47087 0.25483 0.64669 0.0
C420 C 0.51344 0.25742 0.63823 0.0
C421 C 0.5322 0.30144 0.63474 0.0
C422 C 0.50927 0.34315 0.64064 0.0
H423 H 0.54753 0.81614 0.18444 0.0
H424 H 0.60313 0.77804 0.12973 0.0
H425 H 0.52295 0.77463 0.11464 0.0
H426 H 0.45942 0.73422 0.17905 0.0
H427 H 0.41824 0.77001 0.19173 0.0
H428 H 0.47951 0.77912 0.19707 0.0
H429 H 0.47014 0.86675 0.19028 0.0
H430 H 0.40867 0.85771 0.18474 0.0
H431 H 0.44394 0.88175 0.16764 0.0
H432 H 0.43487 0.76587 0.10637 0.0
H433 H 0.35099 0.74584 0.10655 0.0
H434 H 0.3556 0.78293 0.16722 0.0
C435 C 0.5432 0.8074 0.16923 0.0
C436 C 0.58201 0.79704 0.15834 0.0
C437 C 0.57425 0.78666 0.13841 0.0
C438 C 0.5287 0.78456 0.12972 0.0
C439 C 0.4912 0.79314 0.1411 0.0
C440 C 0.49826 0.80428 0.16048 0.0
C441 C 0.45287 0.8061 0.17015 0.0
C442 C 0.4525 0.77022 0.18538 0.0
C443 C 0.44335 0.85606 0.1787 0.0
C444 C 0.419 0.79252 0.15335 0.0
C445 C 0.44135 0.7865 0.13657 0.0
C446 C 0.41709 0.77122 0.1194 0.0
C447 C 0.36942 0.76024 0.11957 0.0
C448 C 0.34695 0.76377 0.13684 0.0
C449 C 0.37186 0.78113 0.15377 0.0
H450 H 0.41483 0.31142 0.83633 0.0
H451 H 0.39563 0.1962 0.79277 0.0
H452 H 0.31842 0.17949 0.80411 0.0
H453 H 0.35829 0.25667 0.87339 0.0
H454 H 0.33189 0.31052 0.88229 0.0
H455 H 0.38617 0.31227 0.87107 0.0
H456 H 0.34981 0.36874 0.84715 0.0
H457 H 0.29543 0.36706 0.85829 0.0
H458 H 0.29718 0.3516 0.8331 0.0
H459 H 0.24281 0.17549 0.82033 0.0
H460 H 0.17461 0.18582 0.83982 0.0
H461 H 0.24252 0.30535 0.87181 0.0
C462 C 0.39456 0.28235 0.82934 0.0
C463 C 0.41116 0.25508 0.81369 0.0
C464 C 0.38336 0.21776 0.8047 0.0
C465 C 0.33957 0.20789 0.81108 0.0
C466 C 0.32396 0.23576 0.82643 0.0
C467 C 0.35059 0.27228 0.83542 0.0
C468 C 0.32525 0.29778 0.85123 0.0
C469 C 0.352 0.29406 0.87064 0.0
C470 C 0.3164 0.34934 0.84719 0.0
C471 C 0.28034 0.26984 0.84977 0.0
C472 C 0.28022 0.23412 0.83543 0.0
C473 C 0.24242 0.20356 0.83153 0.0
C474 C 0.2037 0.20987 0.84256 0.0
C475 C 0.20284 0.24688 0.85708 0.0
C476 C 0.24197 0.27683 0.86075 0.0
H477 H 0.23843 0.80354 0.35767 0.0
H478 H 0.21941 0.68929 0.31367 0.0
H479 H 0.30259 0.69288 0.30773 0.0
H480 H 0.32891 0.86838 0.33525 0.0
H481 H 0.36196 0.88331 0.35747 0.0
H482 H 0.29977 0.87579 0.35712 0.0
H483 H 0.31066 0.81343 0.38181 0.0
H484 H 0.37278 0.82091 0.38226 0.0
H485 H 0.34736 0.76338 0.37684 0.0
H486 H 0.38716 0.7053 0.3073 0.0
H487 H 0.47059 0.7222 0.3139 0.0
H488 H 0.43856 0.82632 0.35924 0.0
C489 C 0.25186 0.77991 0.34662 0.0
C490 C 0.22254 0.74634 0.33598 0.0
C491 C 0.24136 0.71525 0.32192 0.0
C492 C 0.28849 0.71718 0.31838 0.0
C493 C 0.31671 0.75015 0.32916 0.0
C494 C 0.29944 0.7808 0.3431 0.0
C495 C 0.3386 0.81006 0.35359 0.0
C496 C 0.3319 0.86251 0.35068 0.0
C497 C 0.34258 0.80141 0.37489 0.0
C498 C 0.38036 0.79042 0.34354 0.0
C499 C 0.36657 0.7564 0.32932 0.0
C500 C 0.39846 0.73194 0.31837 0.0
C501 C 0.44587 0.74168 0.32229 0.0
C502 C 0.46125 0.77531 0.33716 0.0
C503 C 0.42788 0.80065 0.34768 0.0
H504 H 0.76313 0.88345 0.58064 0.0
H505 H 0.62891 0.87225 0.54879 0.0
H506 H 0.61707 0.95727 0.55525 0.0
H507 H 0.72624 0.96701 0.61751 0.0
H508 H 0.78081 0.99841 0.62005 0.0
H509 H 0.77942 0.9369 0.6122 0.0
H510 H 0.82079 0.95524 0.58208 0.0
H511 H 0.82169 0.01694 0.58973 0.0
H512 H 0.79544 0.99717 0.56662 0.0
H513 H 0.61879 0.04405 0.5657 0.0
H514 H 0.63168 0.12355 0.58181 0.0
H515 H 0.76372 0.07869 0.60696 0.0
C516 C 0.73106 0.8987 0.57514 0.0
C517 C 0.69732 0.87084 0.56394 0.0
C518 C 0.65593 0.89268 0.557 0.0
C519 C 0.64873 0.94109 0.56065 0.0
C520 C 0.68302 0.96756 0.5714 0.0
C521 C 0.72314 0.94707 0.57873 0.0
C522 C 0.7537 0.98321 0.59048 0.0
C523 C 0.76041 0.97063 0.61129 0.0
C524 C 0.80068 0.98844 0.5817 0.0
C525 C 0.72432 0.02703 0.58873 0.0
C526 C 0.6839 0.01741 0.5775 0.0
C527 C 0.65067 0.05209 0.57431 0.0
C528 C 0.65853 0.09745 0.5832 0.0
C529 C 0.69916 0.10784 0.59509 0.0
C530 C 0.73261 0.07208 0.59767 0.0
H531 H 0.17671 0.08127 0.09191 0.0
H532 H 0.32382 0.08292 0.08261 0.0
H533 H 0.33032 1.00025 0.09091 0.0
H534 H 0.18082 1.00369 0.13082 0.0
H535 H 0.128 0.97327 0.12206 0.0
H536 H 0.13623 0.03376 0.11737 0.0
H537 H 0.1216 0.01138 0.08118 0.0
H538 H 0.1137 0.95081 0.08576 0.0
H539 H 0.15662 0.96642 0.06985 0.0
H540 H 0.32033 0.91699 0.10034 0.0
H541 H 0.29339 0.83818 0.1075 0.0
H542 H 0.15157 0.88926 0.10741 0.0
C543 C 0.21044 0.06445 0.09206 0.0
C544 C 0.25011 0.08853 0.0871 0.0
C545 C 0.29329 0.06502 0.08668 0.0
C546 C 0.29726 0.01818 0.09136 0.0
C547 C 0.25741 0.99509 0.09601 0.0
C548 C 0.2147 0.0173 0.09618 0.0
C549 C 0.17657 0.98357 0.10012 0.0
C550 C 0.15409 0.99953 0.1187 0.0
C551 C 0.13997 0.97771 0.08322 0.0
C552 C 0.20444 0.93902 0.10218 0.0
C553 C 0.25112 0.94648 0.10005 0.0
C554 C 0.28379 0.91068 0.10188 0.0
C555 C 0.26825 0.86609 0.10594 0.0
C556 C 0.22041 0.85756 0.10771 0.0
C557 C 0.18827 0.89458 0.10578 0.0
H558 H 0.46976 0.12677 0.41626 0.0
H559 H 0.54392 0.18283 0.37156 0.0
H560 H 0.53459 0.10667 0.35249 0.0
H561 H 0.53071 0.03066 0.41741 0.0
H562 H 0.48523 0.99155 0.42294 0.0
H563 H 0.48084 0.05319 0.42927 0.0
H564 H 0.40085 0.0549 0.41023 0.0
H565 H 0.40523 0.99277 0.40374 0.0
H566 H 0.39577 0.03327 0.3855 0.0
H567 H 0.53519 0.02081 0.34218 0.0
H568 H 0.55411 0.93668 0.34362 0.0
H569 H 0.48776 0.93501 0.39669 0.0
C570 C 0.48252 0.12351 0.40212 0.0
C571 C 0.50767 0.16066 0.39541 0.0
C572 C 0.52396 0.15514 0.3769 0.0
C573 C 0.51877 0.11185 0.36598 0.0
C574 C 0.49703 0.07457 0.37373 0.0
C575 C 0.47895 0.08026 0.39144 0.0
C576 C 0.4669 0.03344 0.39867 0.0
C577 C 0.49249 0.02685 0.41819 0.0
C578 C 0.41404 0.0283 0.39958 0.0
C579 C 0.48465 1.00017 0.38306 0.0
C580 C 0.49959 0.0244 0.36829 0.0
C581 C 0.5224 1.00147 0.35339 0.0
C582 C 0.53269 0.9535 0.3542 0.0
C583 C 0.52133 0.92947 0.37006 0.0
C584 C 0.49514 0.95247 0.38412 0.0
H585 H 1.00235 0.86045 0.90658 0.0
H586 H 0.95667 0.9148 0.96134 0.0
H587 H 0.969 0.99591 0.95271 0.0
H588 H 0.09218 0.94852 0.90331 0.0
H589 H 0.08099 0.95198 0.87802 0.0
H590 H 0.06983 0.89802 0.88864 0.0
H591 H 0.98459 0.89817 0.87442 0.0
H592 H 0.99557 0.95198 0.86371 0.0
H593 H 0.94874 0.94891 0.8793 0.0
H594 H 0.98292 0.07117 0.93769 0.0
H595 H 0.99638 0.13495 0.91689 0.0
H596 H 0.03602 0.0327 0.87245 0.0
C597 C 0.99503 0.88943 0.91675 0.0
C598 C 0.97845 0.88143 0.93465 0.0
C599 C 0.96931 0.92026 0.94755 0.0
C600 C 0.97632 0.96642 0.9428 0.0
C601 C 0.99268 0.97325 0.92508 0.0
C602 C 1.00192 0.93589 0.91223 0.0
C603 C 0.0183 0.95313 0.89398 0.0
C604 C 0.0683 0.93695 0.89081 0.0
C605 C 0.98479 0.9371 0.87684 0.0
C606 C 0.01621 1.00589 0.8985 0.0
C607 C 1.00163 0.01673 0.91657 0.0
C608 C 0.9953 0.06308 0.92367 0.0
C609 C 1.00383 0.09925 0.91193 0.0
C610 C 0.01903 0.0891 0.89344 0.0
C611 C 0.0252 0.04166 0.88668 0.0
H612 H 0.17906 0.1715 0.01754 0.0
H613 H 0.0469 0.21886 0.03747 0.0
H614 H 0.0101 0.20341 0.00494 0.0
H615 H 0.17319 0.23052 0.97908 0.0
H616 H 0.20086 0.18816 0.96328 0.0
H617 H 0.21304 0.188 0.98849 0.0
H618 H 0.18767 0.10064 0.98719 0.0
H619 H 0.17535 0.1006 0.9618 0.0
H620 H 0.13095 0.08325 0.97672 0.0
H621 H 0.9924 0.20102 0.97026 0.0
H622 H 0.99658 0.21701 0.93651 0.0
H623 H 0.14035 0.17331 0.93838 0.0
C624 C 0.1419 0.17628 0.01511 0.0
C625 C 0.11538 0.19533 0.02988 0.0
C626 C 0.06737 0.2035 0.02626 0.0
C627 C 0.04625 0.19453 0.00788 0.0
C628 C 0.07372 0.17752 0.99332 0.0
C629 C 0.1206 0.1683 0.99676 0.0
C630 C 0.14437 0.15913 0.97833 0.0
C631 C 0.18521 0.19352 0.97724 0.0
C632 C 0.16053 0.10785 0.97587 0.0
C633 C 0.10451 0.16829 0.96404 0.0
C634 C 0.06358 0.17698 0.97292 0.0
C635 C 0.02369 0.19261 0.96305 0.0
C636 C 0.02623 0.20146 0.94388 0.0
C637 C 0.06826 0.19454 0.93486 0.0
C638 C 0.10735 0.17658 0.94487 0.0
H639 H 0.13686 0.80423 0.27862 0.0
H640 H 0.99724 0.74536 0.27173 0.0
H641 H 0.00668 0.72845 0.23733 0.0
H642 H 0.14151 0.85087 0.23197 0.0
H643 H 0.20117 0.83319 0.22997 0.0
H644 H 0.17998 0.84858 0.25308 0.0
H645 H 0.2068 0.76772 0.26417 0.0
H646 H 0.2279 0.75206 0.24113 0.0
H647 H 0.18625 0.71474 0.25069 0.0
H648 H 0.03413 0.71359 0.20364 0.0
H649 H 0.07927 0.69554 0.17515 0.0
H650 H 0.20305 0.75427 0.20619 0.0
C651 C 0.10805 0.78773 0.27001 0.0
C652 C 0.06634 0.77601 0.27805 0.0
C653 C 0.02934 0.75543 0.26596 0.0
C654 C 0.03444 0.7455 0.24638 0.0
C655 C 0.07679 0.75606 0.23916 0.0
C656 C 0.113 0.77644 0.25071 0.0
C657 C 0.15677 0.77961 0.24021 0.0
C658 C 0.17065 0.83113 0.23872 0.0
C659 C 0.19676 0.75187 0.24961 0.0
C660 C 0.14008 0.75654 0.22104 0.0
C661 C 0.09349 0.74444 0.22043 0.0
C662 C 0.07063 0.72278 0.20402 0.0
C663 C 0.09638 0.7126 0.18797 0.0
C664 C 0.14446 0.72303 0.18879 0.0
C665 C 0.16635 0.74555 0.20542 0.0
H666 H 0.6154 0.77108 0.51496 0.0
H667 H 0.74124 0.68838 0.51147 0.0
H668 H 0.71762 0.66214 0.47809 0.0
H669 H 0.53835 0.69223 0.48013 0.0
H670 H 0.51036 0.74268 0.47063 0.0
H671 H 0.53077 0.74487 0.4954 0.0
H672 H 0.58002 0.81908 0.49128 0.0
H673 H 0.55904 0.81743 0.46678 0.0
H674 H 0.62078 0.81712 0.47291 0.0
H675 H 0.6889 0.65818 0.44366 0.0
H676 H 0.66269 0.68385 0.41199 0.0
H677 H 0.55599 0.76882 0.43771 0.0
C678 C 0.63752 0.74664 0.5073 0.0
C679 C 0.68011 0.73177 0.51586 0.0
C680 C 0.70808 0.69975 0.50533 0.0
C681 C 0.69483 0.6845 0.48635 0.0
C682 C 0.65319 0.701 0.47813 0.0
C683 C 0.62486 0.73127 0.48837 0.0
C684 C 0.58582 0.74984 0.47569 0.0
C685 C 0.53852 0.73128 0.48077 0.0
C686 C 0.58653 0.80402 0.47672 0.0
C687 C 0.59866 0.72834 0.45648 0.0
C688 C 0.63657 0.69878 0.45817 0.0
C689 C 0.65843 0.68012 0.44217 0.0
C690 C 0.64315 0.6945 0.42419 0.0
C691 C 0.60695 0.72761 0.42255 0.0
C692 C 0.58284 0.74236 0.43867 0.0
H693 H 0.53881 0.2061 0.75718 0.0
H694 H 0.48046 0.34554 0.75541 0.0
H695 H 0.50261 0.34832 0.72209 0.0
H696 H 0.63588 0.22612 0.73405 0.0
H697 H 0.63782 0.1696 0.72087 0.0
H698 H 0.61032 0.17535 0.74305 0.0
H699 H 0.5339 0.14015 0.72641 0.0
H700 H 0.56139 0.13367 0.70414 0.0
H701 H 0.50785 0.16602 0.70577 0.0
H702 H 0.54438 0.34112 0.69172 0.0
H703 H 0.59596 0.32215 0.66565 0.0
H704 H 0.62236 0.18499 0.68633 0.0
C705 C 0.52931 0.23642 0.74946 0.0
C706 C 0.50748 0.27535 0.75851 0.0
C707 C 0.49653 0.31518 0.74841 0.0
C708 C 0.50906 0.317 0.72957 0.0
C709 C 0.53193 0.27843 0.72114 0.0
C710 C 0.54119 0.23853 0.73067 0.0
C711 C 0.56945 0.20346 0.71914 0.0
C712 C 0.61611 0.19307 0.72992 0.0
C713 C 0.54146 0.15814 0.71353 0.0
C714 C 0.57648 0.2306 0.70198 0.0
C715 C 0.55432 0.27362 0.70329 0.0
C716 C 0.56018 0.30678 0.69014 0.0
C717 C 0.58923 0.29556 0.67526 0.0
C718 C 0.61132 0.2513 0.67345 0.0
C719 C 0.60475 0.21856 0.68703 0.0
H720 H 0.06099 0.75282 0.98516 0.0
H721 H 0.98483 0.62065 0.98235 0.0
H722 H 0.01579 0.60798 0.01484 0.0
H723 H 0.16063 0.72132 0.01376 0.0
H724 H 0.16438 0.77696 0.02769 0.0
H725 H 0.13956 0.77392 0.00353 0.0
H726 H 0.06393 0.81278 0.01499 0.0
H727 H 0.08869 0.81635 0.03916 0.0
H728 H 0.03366 0.78707 0.03324 0.0
H729 H 0.05756 0.60879 0.0479 0.0
H730 H 0.09698 0.62904 0.07987 0.0
H731 H 0.13531 0.76484 0.06202 0.0
C732 C 0.04991 0.72142 0.99128 0.0
C733 C 0.02072 0.68753 0.98073 0.0
C734 C 0.00829 0.64669 0.98962 0.0
C735 C 0.02542 0.63922 0.00823 0.0
C736 C 0.05416 0.67332 0.01806 0.0
C737 C 0.06544 0.71407 0.01 0.0
C738 C 0.09418 0.74688 0.02396 0.0
C739 C 0.14255 0.75524 0.0168 0.0
C740 C 0.06857 0.79351 0.02808 0.0
C741 C 0.09732 0.71823 0.04115 0.0
C742 C 0.07493 0.67543 0.03741 0.0
C743 C 0.07475 0.64244 0.05104 0.0
C744 C 0.09731 0.65402 0.06908 0.0
C745 C 0.11857 0.69853 0.0733 0.0
C746 C 0.11873 0.73076 0.05913 0.0
H747 H 0.70293 0.8246 0.23028 0.0
H748 H 0.65193 0.68826 0.2068 0.0
H749 H 0.64677 0.66303 0.23937 0.0
H750 H 0.76833 0.78545 0.27367 0.0
H751 H 0.75021 0.83592 0.28834 0.0
H752 H 0.7576 0.84061 0.26339 0.0
H753 H 0.67328 0.87076 0.25877 0.0
H754 H 0.66569 0.86646 0.28365 0.0
H755 H 0.62605 0.83629 0.26599 0.0
H756 H 0.63631 0.65666 0.27361 0.0
H757 H 0.61877 0.67 0.30733 0.0
H758 H 0.67702 0.81039 0.30934 0.0
C759 C 0.69219 0.78897 0.2321 0.0
C760 C 0.67856 0.75793 0.21618 0.0
C761 C 0.66296 0.71216 0.21892 0.0
C762 C 0.66013 0.69757 0.23732 0.0
C763 C 0.67291 0.72928 0.2528 0.0
C764 C 0.68858 0.77408 0.25041 0.0
C765 C 0.69458 0.80313 0.26933 0.0
C766 C 0.74576 0.81707 0.27397 0.0
C767 C 0.66301 0.84671 0.26943 0.0
C768 C 0.6787 0.76808 0.28269 0.0
C769 C 0.66686 0.72553 0.27283 0.0
C770 C 0.64641 0.68937 0.28157 0.0
C771 C 0.63648 0.69729 0.3007 0.0
C772 C 0.64712 0.74094 0.31092 0.0
C773 C 0.66981 0.77623 0.30197 0.0
H774 H 0.63123 0.25825 0.46444 0.0
H775 H 0.51207 0.1648 0.46251 0.0
H776 H 0.53463 0.14411 0.49508 0.0
H777 H 0.71145 0.18728 0.49474 0.0
H778 H 0.73649 0.23909 0.50766 0.0
H779 H 0.71548 0.24103 0.48309 0.0
H780 H 0.66165 0.31094 0.49226 0.0
H781 H 0.68332 0.30973 0.51665 0.0
H782 H 0.62166 0.30516 0.51056 0.0
H783 H 0.56139 0.14411 0.52918 0.0
H784 H 0.5878 0.16887 0.56235 0.0
H785 H 0.69293 0.25745 0.5424 0.0
C786 C 0.61026 0.23303 0.47082 0.0
C787 C 0.57015 0.21286 0.46087 0.0
C788 C 0.54343 0.18011 0.46973 0.0
C789 C 0.55605 0.16798 0.48821 0.0
C790 C 0.59579 0.18846 0.49765 0.0
C791 C 0.62254 0.22029 0.48926 0.0
C792 C 0.66068 0.24096 0.50316 0.0
C793 C 0.70888 0.22619 0.49678 0.0
C794 C 0.65654 0.29486 0.50582 0.0
C795 C 0.64957 0.21777 0.52095 0.0
C796 C 0.6126 0.1868 0.51738 0.0
C797 C 0.59167 0.16655 0.53208 0.0
C798 C 0.60749 0.17997 0.55094 0.0
C799 C 0.64433 0.21257 0.55484 0.0
C800 C 0.66652 0.23034 0.53965 0.0
H801 H 0.10904 0.23855 0.72062 0.0
H802 H 0.1953 0.36096 0.7374 0.0
H803 H 0.19376 0.34355 0.7712 0.0
H804 H 0.03577 0.25048 0.75784 0.0
H805 H 0.03089 0.18854 0.76076 0.0
H806 H 0.04295 0.2081 0.73797 0.0
H807 H 0.11715 0.15662 0.73762 0.0
H808 H 0.1053 0.13694 0.76049 0.0
H809 H 0.16055 0.16372 0.75723 0.0
H810 H 0.17317 0.3191 0.80313 0.0
H811 H 0.13845 0.28767 0.83052 0.0
H812 H 0.07126 0.17705 0.79286 0.0
C813 C 0.12803 0.26131 0.73143 0.0
C814 C 0.15218 0.30114 0.72652 0.0
C815 C 0.17684 0.33011 0.74095 0.0
C816 C 0.17615 0.32048 0.76013 0.0
C817 C 0.15139 0.28125 0.76455 0.0
C818 C 0.12828 0.25179 0.75057 0.0
C819 C 0.10246 0.21322 0.75909 0.0
C820 C 0.04992 0.21525 0.75359 0.0
C821 C 0.12259 0.16475 0.75326 0.0
C822 C 0.11309 0.22665 0.78009 0.0
C823 C 0.14156 0.26582 0.78296 0.0
C824 C 0.1521 0.28753 0.80109 0.0
C825 C 0.1325 0.26911 0.81663 0.0
C826 C 0.10349 0.22874 0.81403 0.0
C827 C 0.09436 0.20708 0.79547 0.0
loop_
_geom_bond_atom_site_label_1
_geom_bond_atom_site_label_2
_geom_bond_distance
_geom_bond_site_symmetry_2
_ccdc_geom_bond_type
H0 C5 0.930 . S
H1 C8 0.930 . S
H2 C10 0.930 . S
H3 C4 1.016 . S
C4 H3 1.016 . S
C4 N11 1.286 . S
C5 H0 0.930 . S
C5 C6 1.397 . S
C5 C7 1.361 . S
C6 C5 1.397 . S
C6 C10 1.390 . S
C7 C5 1.361 . S
C7 C8 1.393 . S
C7 N11 1.413 . S
C8 H1 0.930 . S
C8 C7 1.393 . S
C8 C9 1.399 . S
C9 C8 1.399 . S
C9 C10 1.381 . S
C10 H2 0.930 . S
C10 C6 1.390 . S
C10 C9 1.381 . S
N11 C4 1.286 . S
N11 C7 1.413 . S
H12 C17 0.930 . S
H13 C20 0.930 . S
H14 C22 0.930 . S
H15 C16 1.016 . S
C16 H15 1.016 . S
C16 N23 1.286 . S
C17 H12 0.930 . S
C17 C18 1.397 . S
C17 C19 1.361 . S
C18 C17 1.397 . S
C18 C22 1.390 . S
C19 C17 1.361 . S
C19 C20 1.393 . S
C19 N23 1.413 . S
C20 H13 0.930 . S
C20 C19 1.393 . S
C20 C21 1.399 . S
C21 C20 1.399 . S
C21 C22 1.381 . S
C22 H14 0.930 . S
C22 C18 1.390 . S
C22 C21 1.381 . S
N23 C16 1.286 . S
N23 C19 1.413 . S
H24 C29 0.930 . S
H25 C32 0.930 . S
H26 C34 0.930 . S
H27 C28 1.016 . S
C28 H27 1.016 . S
C28 N35 1.286 . S
C29 H24 0.930 . S
C29 C30 1.397 . S
C29 C31 1.361 . S
C30 C29 1.397 . S
C30 C34 1.390 . S
C31 C29 1.361 . S
C31 C32 1.393 . S
C31 N35 1.413 . S
C32 H25 0.930 . S
C32 C31 1.393 . S
C32 C33 1.399 . S
C33 C32 1.399 . S
C33 C34 1.381 . S
C34 H26 0.930 . S
C34 C30 1.390 . S
C34 C33 1.381 . S
N35 C28 1.286 . S
N35 C31 1.413 . S
H36 C41 0.930 . S
H37 C44 0.930 . S
H38 C46 0.930 . S
H39 C40 1.016 . S
C40 H39 1.016 . S
C40 N47 1.286 . S
C41 H36 0.930 . S
C41 C42 1.397 . S
C41 C43 1.361 . S
C42 C41 1.397 . S
C42 C46 1.390 . S
C43 C41 1.361 . S
C43 C44 1.393 . S
C43 N47 1.413 . S
C44 H37 0.930 . S
C44 C43 1.393 . S
C44 C45 1.399 . S
C45 C44 1.399 . S
C45 C46 1.381 . S
C46 H38 0.930 . S
C46 C42 1.390 . S
C46 C45 1.381 . S
N47 C40 1.286 . S
N47 C43 1.413 . S
H48 C53 0.930 . S
H49 C56 0.930 . S
H50 C58 0.930 . S
H51 C52 1.016 . S
C52 H51 1.016 . S
C52 N59 1.286 . S
C53 H48 0.930 . S
C53 C54 1.397 . S
C53 C55 1.361 . S
C54 C53 1.397 . S
C54 C58 1.390 . S
C55 C53 1.361 . S
C55 C56 1.393 . S
C55 N59 1.413 . S
C56 H49 0.930 . S
C56 C55 1.393 . S
C56 C57 1.399 . S
C57 C56 1.399 . S
C57 C58 1.381 . S
C58 H50 0.930 . S
C58 C54 1.390 . S
C58 C57 1.381 . S
N59 C52 1.286 . S
N59 C55 1.413 . S
H60 C65 0.930 . S
H61 C68 0.930 . S
H62 C70 0.930 . S
H63 C64 1.016 . S
C64 H63 1.016 . S
C64 N71 1.286 . S
C65 H60 0.930 . S
C65 C66 1.397 . S
C65 C67 1.361 . S
C66 C65 1.397 . S
C66 C70 1.390 . S
C67 C65 1.361 . S
C67 C68 1.393 . S
C67 N71 1.413 . S
C68 H61 0.930 . S
C68 C67 1.393 . S
C68 C69 1.399 . S
C69 C68 1.399 . S
C69 C70 1.381 . S
C70 H62 0.930 . S
C70 C66 1.390 . S
C70 C69 1.381 . S
N71 C64 1.286 . S
N71 C67 1.413 . S
H72 C77 0.930 . S
H73 C80 0.930 . S
H74 C82 0.930 . S
H75 C76 1.016 . S
C76 H75 1.016 . S
C76 N83 1.286 . S
C77 H72 0.930 . S
C77 C78 1.397 . S
C77 C79 1.361 . S
C78 C77 1.397 . S
C78 C82 1.390 . S
C79 C77 1.361 . S
C79 C80 1.393 . S
C79 N83 1.413 . S
C80 H73 0.930 . S
C80 C79 1.393 . S
C80 C81 1.399 . S
C81 C80 1.399 . S
C81 C82 1.381 . S
C82 H74 0.930 . S
C82 C78 1.390 . S
C82 C81 1.381 . S
N83 C76 1.286 . S
N83 C79 1.413 . S
H84 C89 0.930 . S
H85 C92 0.930 . S
H86 C94 0.930 . S
H87 C88 1.016 . S
C88 H87 1.016 . S
C88 N95 1.286 . S
C89 H84 0.930 . S
C89 C90 1.397 . S
C89 C91 1.361 . S
C90 C89 1.397 . S
C90 C94 1.390 . S
C91 C89 1.361 . S
C91 C92 1.393 . S
C91 N95 1.413 . S
C92 H85 0.930 . S
C92 C91 1.393 . S
C92 C93 1.399 . S
C93 C92 1.399 . S
C93 C94 1.381 . S
C94 H86 0.930 . S
C94 C90 1.390 . S
C94 C93 1.381 . S
N95 C88 1.286 . S
N95 C91 1.413 . S
Zn96 O102 1.920 . S
Zn96 O108 1.898 . S
Zn96 O111 1.905 . S
Zn97 O105 1.905 . S
Zn97 O106 1.898 . S
Zn97 O114 1.936 . S
Zn98 O101 2.080 . S
Zn98 O104 2.114 . S
Zn98 O107 2.120 . S
Zn98 O109 2.120 . S
Zn98 O110 2.114 . S
Zn98 O113 2.080 . S
C99 O104 1.166 . S
C99 O105 1.182 . S
C100 O106 1.167 . S
C100 O107 1.299 . S
O101 Zn98 2.080 . S
O101 C115 1.305 . S
O102 Zn96 1.920 . S
O102 C115 1.234 . S
C103 O108 1.167 . S
C103 O109 1.299 . S
O104 Zn98 2.114 . S
O104 C99 1.166 . S
O105 Zn97 1.905 . S
O105 C99 1.182 . S
O106 Zn97 1.898 . S
O106 C100 1.167 . S
O107 Zn98 2.120 . S
O107 C100 1.299 . S
O108 Zn96 1.898 . S
O108 C103 1.167 . S
O109 Zn98 2.120 . S
O109 C103 1.299 . S
O110 Zn98 2.114 . S
O110 C112 1.166 . S
O111 Zn96 1.905 . S
O111 C112 1.182 . S
C112 O110 1.166 . S
C112 O111 1.182 . S
O113 Zn98 2.080 . S
O113 C116 1.305 . S
O114 Zn97 1.936 . S
O114 C116 1.239 . S
C115 O101 1.305 . S
C115 O102 1.234 . S
C116 O113 1.305 . S
C116 O114 1.239 . S
Zn117 O123 1.920 . S
Zn117 O129 1.898 . S
Zn117 O132 1.905 . S
Zn118 O126 1.905 . S
Zn118 O127 1.898 . S
Zn118 O135 1.920 . S
Zn119 O122 2.080 . S
Zn119 O125 2.114 . S
Zn119 O128 2.120 . S
Zn119 O130 2.120 . S
Zn119 O131 2.114 . S
Zn119 O134 2.080 . S
C120 O125 1.166 . S
C120 O126 1.182 . S
C121 O127 1.167 . S
C121 O128 1.299 . S
O122 Zn119 2.080 . S
O122 C136 1.305 . S
O123 Zn117 1.920 . S
O123 C136 1.234 . S
C124 O129 1.167 . S
C124 O130 1.299 . S
O125 Zn119 2.114 . S
O125 C120 1.166 . S
O126 Zn118 1.905 . S
O126 C120 1.182 . S
O127 Zn118 1.898 . S
O127 C121 1.167 . S
O128 Zn119 2.120 . S
O128 C121 1.299 . S
O129 Zn117 1.898 . S
O129 C124 1.167 . S
O130 Zn119 2.120 . S
O130 C124 1.299 . S
O131 Zn119 2.114 . S
O131 C133 1.166 . S
O132 Zn117 1.905 . S
O132 C133 1.182 . S
C133 O131 1.166 . S
C133 O132 1.182 . S
O134 Zn119 2.080 . S
O134 C137 1.305 . S
O135 Zn118 1.920 . S
O135 C137 1.234 . S
C136 O122 1.305 . S
C136 O123 1.234 . S
C137 O134 1.305 . S
C137 O135 1.234 . S
Zn138 O144 1.920 . S
Zn138 O150 1.898 . S
Zn138 O153 1.905 . S
Zn139 O147 1.905 . S
Zn139 O148 1.898 . S
Zn139 O156 1.920 . S
Zn140 O143 2.080 . S
Zn140 O146 2.114 . S
Zn140 O149 2.120 . S
Zn140 O151 2.120 . S
Zn140 O152 2.114 . S
Zn140 O155 2.080 . S
C141 O146 1.166 . S
C141 O147 1.182 . S
C142 O148 1.167 . S
C142 O149 1.299 . S
O143 Zn140 2.080 . S
O143 C157 1.305 . S
O144 Zn138 1.920 . S
O144 C157 1.234 . S
C145 O150 1.167 . S
C145 O151 1.299 . S
O146 Zn140 2.114 . S
O146 C141 1.166 . S
O147 Zn139 1.905 . S
O147 C141 1.182 . S
O148 Zn139 1.898 . S
O148 C142 1.167 . S
O149 Zn140 2.120 . S
O149 C142 1.299 . S
O150 Zn138 1.898 . S
O150 C145 1.167 . S
O151 Zn140 2.120 . S
O151 C145 1.299 . S
O152 Zn140 2.114 . S
O152 C154 1.166 . S
O153 Zn138 1.905 . S
O153 C154 1.182 . S
C154 O152 1.166 . S
C154 O153 1.182 . S
O155 Zn140 2.080 . S
O155 C158 1.305 . S
O156 Zn139 1.920 . S
O156 C158 1.234 . S
C157 O143 1.305 . S
C157 O144 1.234 . S
C158 O155 1.305 . S
C158 O156 1.234 . S
Zn159 O165 1.920 . S
Zn159 O171 1.898 . S
Zn159 O174 1.905 1_455 S
Zn160 O168 1.905 . S
Zn160 O169 1.898 . S
Zn160 O177 1.920 . S
Zn161 O164 2.080 . S
Zn161 O167 2.114 . S
Zn161 O170 2.120 . S
Zn161 O172 2.120 . S
Zn161 O173 2.114 . S
Zn161 O176 2.080 . S
C162 O167 1.166 . S
C162 O168 1.182 . S
C163 O169 1.167 . S
C163 O170 1.299 . S
O164 Zn161 2.080 . S
O164 C178 1.305 . S
O165 Zn159 1.920 . S
O165 C178 1.234 . S
C166 O171 1.167 . S
C166 O172 1.299 . S
O167 Zn161 2.114 . S
O167 C162 1.166 . S
O168 Zn160 1.905 . S
O168 C162 1.182 . S
O169 Zn160 1.898 . S
O169 C163 1.167 . S
O170 Zn161 2.120 . S
O170 C163 1.299 . S
O171 Zn159 1.898 . S
O171 C166 1.167 . S
O172 Zn161 2.120 . S
O172 C166 1.299 . S
O173 Zn161 2.114 . S
O173 C175 1.166 . S
O174 Zn159 1.905 1_655 S
O174 C175 1.182 1_655 S
C175 O173 1.166 . S
C175 O174 1.182 1_455 S
O176 Zn161 2.080 . S
O176 C179 1.305 . S
O177 Zn160 1.920 . S
O177 C179 1.234 . S
C178 O164 1.305 . S
C178 O165 1.234 . S
C179 O176 1.305 . S
C179 O177 1.234 . S
H180 C192 0.930 . S
H181 C194 0.930 . S
H182 C195 0.930 . S
H183 C199 0.959 . S
H184 C199 0.959 . S
H185 C199 0.961 . S
H186 C200 0.960 . S
H187 C200 0.961 . S
H188 C200 0.959 . S
H189 C203 0.929 . S
H190 C204 0.931 . S
H191 C206 0.930 . S
C192 H180 0.930 . S
C192 C193 1.399 . S
C192 C197 1.399 . S
C193 C192 1.399 . S
C193 C194 1.376 . S
C194 H181 0.930 . S
C194 C193 1.376 . S
C194 C195 1.388 . S
C195 H182 0.930 . S
C195 C194 1.388 . S
C195 C196 1.390 . S
C196 C195 1.390 . S
C196 C197 1.394 . S
C196 C202 1.465 . S
C197 C192 1.399 . S
C197 C196 1.394 . S
C197 C198 1.516 . S
C198 C197 1.516 . S
C198 C199 1.502 . S
C198 C200 1.561 . S
C198 C201 1.526 . S
C199 H183 0.959 . S
C199 H184 0.959 . S
C199 H185 0.961 . S
C199 C198 1.502 . S
C200 H186 0.960 . S
C200 H187 0.961 . S
C200 H188 0.959 . S
C200 C198 1.561 . S
C201 C198 1.526 . S
C201 C202 1.396 . S
C201 C206 1.390 . S
C202 C196 1.465 . S
C202 C201 1.396 . S
C202 C203 1.399 . S
C203 H189 0.929 . S
C203 C202 1.399 . S
C203 C204 1.385 . S
C204 H190 0.931 . S
C204 C203 1.385 . S
C204 C205 1.389 . S
C205 C204 1.389 . S
C205 C206 1.387 . S
C206 H191 0.930 . S
C206 C201 1.390 . S
C206 C205 1.387 . S
H207 C219 0.930 . S
H208 C221 0.930 . S
H209 C222 0.930 . S
H210 C226 0.959 . S
H211 C226 0.959 . S
H212 C226 0.961 . S
H213 C227 0.960 . S
H214 C227 0.961 . S
H215 C227 0.959 . S
H216 C230 0.929 . S
H217 C231 0.931 . S
H218 C233 0.930 . S
C219 H207 0.930 . S
C219 C220 1.399 . S
C219 C224 1.399 . S
C220 C219 1.399 . S
C220 C221 1.376 . S
C221 H208 0.930 . S
C221 C220 1.376 . S
C221 C222 1.388 . S
C222 H209 0.930 . S
C222 C221 1.388 . S
C222 C223 1.390 . S
C223 C222 1.390 . S
C223 C224 1.394 . S
C223 C229 1.465 . S
C224 C219 1.399 . S
C224 C223 1.394 . S
C224 C225 1.516 . S
C225 C224 1.516 . S
C225 C226 1.502 . S
C225 C227 1.561 . S
C225 C228 1.526 . S
C226 H210 0.959 . S
C226 H211 0.959 . S
C226 H212 0.961 . S
C226 C225 1.502 . S
C227 H213 0.960 . S
C227 H214 0.961 . S
C227 H215 0.959 . S
C227 C225 1.561 . S
C228 C225 1.526 . S
C228 C229 1.396 . S
C228 C233 1.390 . S
C229 C223 1.465 . S
C229 C228 1.396 . S
C229 C230 1.399 . S
C230 H216 0.929 . S
C230 C229 1.399 . S
C230 C231 1.385 . S
C231 H217 0.931 . S
C231 C230 1.385 . S
C231 C232 1.389 . S
C232 C231 1.389 . S
C232 C233 1.387 . S
C233 H218 0.930 . S
C233 C228 1.390 . S
C233 C232 1.387 . S
H234 C246 0.930 . S
H235 C248 0.930 . S
H236 C249 0.930 . S
H237 C253 0.959 . S
H238 C253 0.959 . S
H239 C253 0.961 . S
H240 C254 0.960 . S
H241 C254 0.961 . S
H242 C254 0.959 . S
H243 C257 0.929 . S
H244 C258 0.931 . S
H245 C260 0.930 . S
C246 H234 0.930 . S
C246 C247 1.399 . S
C246 C251 1.399 . S
C247 C246 1.399 . S
C247 C248 1.376 . S
C248 H235 0.930 . S
C248 C247 1.376 . S
C248 C249 1.388 . S
C249 H236 0.930 . S
C249 C248 1.388 . S
C249 C250 1.390 . S
C250 C249 1.390 . S
C250 C251 1.394 . S
C250 C256 1.465 . S
C251 C246 1.399 . S
C251 C250 1.394 . S
C251 C252 1.516 . S
C252 C251 1.516 . S
C252 C253 1.502 . S
C252 C254 1.561 . S
C252 C255 1.526 . S
C253 H237 0.959 . S
C253 H238 0.959 . S
C253 H239 0.961 . S
C253 C252 1.502 . S
C254 H240 0.960 . S
C254 H241 0.961 . S
C254 H242 0.959 . S
C254 C252 1.561 . S
C255 C252 1.526 . S
C255 C256 1.396 . S
C255 C260 1.390 . S
C256 C250 1.465 . S
C256 C255 1.396 . S
C256 C257 1.399 . S
C257 H243 0.929 . S
C257 C256 1.399 . S
C257 C258 1.385 . S
C258 H244 0.931 . S
C258 C257 1.385 . S
C258 C259 1.389 . S
C259 C258 1.389 . S
C259 C260 1.387 . S
C260 H245 0.930 . S
C260 C255 1.390 . S
C260 C259 1.387 . S
H261 C273 0.930 . S
H262 C275 0.930 . S
H263 C276 0.930 . S
H264 C280 0.959 . S
H265 C280 0.959 . S
H266 C280 0.961 . S
H267 C281 0.960 . S
H268 C281 0.961 . S
H269 C281 0.959 . S
H270 C284 0.929 . S
H271 C285 0.931 . S
H272 C287 0.930 . S
C273 H261 0.930 . S
C273 C274 1.399 . S
C273 C278 1.399 . S
C274 C273 1.399 . S
C274 C275 1.376 . S
C275 H262 0.930 . S
C275 C274 1.376 . S
C275 C276 1.388 . S
C276 H263 0.930 . S
C276 C275 1.388 . S
C276 C277 1.390 . S
C277 C276 1.390 . S
C277 C278 1.394 . S
C277 C283 1.465 . S
C278 C273 1.399 . S
C278 C277 1.394 . S
C278 C279 1.516 . S
C279 C278 1.516 . S
C279 C280 1.502 . S
C279 C281 1.561 . S
C279 C282 1.526 . S
C280 H264 0.959 . S
C280 H265 0.959 . S
C280 H266 0.961 . S
C280 C279 1.502 . S
C281 H267 0.960 . S
C281 H268 0.961 . S
C281 H269 0.959 . S
C281 C279 1.561 . S
C282 C279 1.526 . S
C282 C283 1.396 . S
C282 C287 1.390 . S
C283 C277 1.465 . S
C283 C282 1.396 . S
C283 C284 1.399 . S
C284 H270 0.929 . S
C284 C283 1.399 . S
C284 C285 1.385 . S
C285 H271 0.931 . S
C285 C284 1.385 . S
C285 C286 1.389 . S
C286 C285 1.389 . S
C286 C287 1.387 . S
C287 H272 0.930 . S
C287 C282 1.390 . S
C287 C286 1.387 . S
H288 C300 0.930 . S
H289 C302 0.930 . S
H290 C303 0.930 . S
H291 C307 0.959 . S
H292 C307 0.959 . S
H293 C307 0.961 . S
H294 C308 0.960 . S
H295 C308 0.961 . S
H296 C308 0.959 . S
H297 C311 0.929 . S
H298 C312 0.931 . S
H299 C314 0.930 . S
C300 H288 0.930 . S
C300 C301 1.399 . S
C300 C305 1.399 . S
C301 C300 1.399 . S
C301 C302 1.376 . S
C302 H289 0.930 . S
C302 C301 1.376 . S
C302 C303 1.388 . S
C303 H290 0.930 . S
C303 C302 1.388 . S
C303 C304 1.390 . S
C304 C303 1.390 . S
C304 C305 1.394 . S
C304 C310 1.465 . S
C305 C300 1.399 . S
C305 C304 1.394 . S
C305 C306 1.516 . S
C306 C305 1.516 . S
C306 C307 1.502 . S
C306 C308 1.561 . S
C306 C309 1.526 . S
C307 H291 0.959 . S
C307 H292 0.959 . S
C307 H293 0.961 . S
C307 C306 1.502 . S
C308 H294 0.960 . S
C308 H295 0.961 . S
C308 H296 0.959 . S
C308 C306 1.561 . S
C309 C306 1.526 . S
C309 C310 1.396 . S
C309 C314 1.390 . S
C310 C304 1.465 . S
C310 C309 1.396 . S
C310 C311 1.399 . S
C311 H297 0.929 . S
C311 C310 1.399 . S
C311 C312 1.385 . S
C312 H298 0.931 . S
C312 C311 1.385 . S
C312 C313 1.389 . S
C313 C312 1.389 . S
C313 C314 1.387 . S
C314 H299 0.930 . S
C314 C309 1.390 . S
C314 C313 1.387 . S
H315 C327 0.930 . S
H316 C329 0.930 . S
H317 C330 0.930 . S
H318 C334 0.959 . S
H319 C334 0.959 . S
H320 C334 0.961 . S
H321 C335 0.960 . S
H322 C335 0.961 . S
H323 C335 0.959 . S
H324 C338 0.929 . S
H325 C339 0.931 . S
H326 C341 0.930 . S
C327 H315 0.930 . S
C327 C328 1.399 . S
C327 C332 1.399 . S
C328 C327 1.399 . S
C328 C329 1.376 . S
C329 H316 0.930 . S
C329 C328 1.376 . S
C329 C330 1.388 . S
C330 H317 0.930 . S
C330 C329 1.388 . S
C330 C331 1.390 . S
C331 C330 1.390 . S
C331 C332 1.394 . S
C331 C337 1.465 . S
C332 C327 1.399 . S
C332 C331 1.394 . S
C332 C333 1.516 . S
C333 C332 1.516 . S
C333 C334 1.502 . S
C333 C335 1.561 . S
C333 C336 1.526 . S
C334 H318 0.959 . S
C334 H319 0.959 . S
C334 H320 0.961 . S
C334 C333 1.502 . S
C335 H321 0.960 . S
C335 H322 0.961 . S
C335 H323 0.959 . S
C335 C333 1.561 . S
C336 C333 1.526 . S
C336 C337 1.396 . S
C336 C341 1.390 . S
C337 C331 1.465 . S
C337 C336 1.396 . S
C337 C338 1.399 . S
C338 H324 0.929 . S
C338 C337 1.399 . S
C338 C339 1.385 . S
C339 H325 0.931 . S
C339 C338 1.385 . S
C339 C340 1.389 . S
C340 C339 1.389 . S
C340 C341 1.387 . S
C341 H326 0.930 . S
C341 C336 1.390 . S
C341 C340 1.387 . S
H342 C354 0.930 . S
H343 C356 0.930 . S
H344 C357 0.930 . S
H345 C361 0.959 . S
H346 C361 0.959 . S
H347 C361 0.961 . S
H348 C362 0.960 . S
H349 C362 0.961 . S
H350 C362 0.959 . S
H351 C365 0.929 . S
H352 C366 0.931 . S
H353 C368 0.930 . S
C354 H342 0.930 . S
C354 C355 1.399 . S
C354 C359 1.399 . S
C355 C354 1.399 . S
C355 C356 1.376 . S
C356 H343 0.930 . S
C356 C355 1.376 . S
C356 C357 1.388 . S
C357 H344 0.930 . S
C357 C356 1.388 . S
C357 C358 1.390 . S
C358 C357 1.390 . S
C358 C359 1.394 . S
C358 C364 1.465 . S
C359 C354 1.399 . S
C359 C358 1.394 . S
C359 C360 1.516 . S
C360 C359 1.516 . S
C360 C361 1.502 . S
C360 C362 1.561 . S
C360 C363 1.526 . S
C361 H345 0.959 . S
C361 H346 0.959 . S
C361 H347 0.961 . S
C361 C360 1.502 . S
C362 H348 0.960 . S
C362 H349 0.961 . S
C362 H350 0.959 . S
C362 C360 1.561 . S
C363 C360 1.526 . S
C363 C364 1.396 . S
C363 C368 1.390 . S
C364 C358 1.465 . S
C364 C363 1.396 . S
C364 C365 1.399 . S
C365 H351 0.929 . S
C365 C364 1.399 . S
C365 C366 1.385 . S
C366 H352 0.931 . S
C366 C365 1.385 . S
C366 C367 1.389 . S
C367 C366 1.389 . S
C367 C368 1.387 . S
C368 H353 0.930 . S
C368 C363 1.390 . S
C368 C367 1.387 . S
H369 C381 0.930 . S
H370 C383 0.919 1_455 S
H371 C384 0.930 . S
H372 C388 0.959 . S
H373 C388 0.959 . S
H374 C388 0.961 . S
H375 C389 0.960 . S
H376 C389 0.961 . S
H377 C389 0.959 . S
H378 C392 0.929 . S
H379 C393 0.931 . S
H380 C395 0.930 . S
C381 H369 0.930 . S
C381 C382 1.399 1_655 S
C381 C386 1.399 . S
C382 C381 1.399 1_455 S
C382 C383 1.375 1_455 S
C383 H370 0.919 1_655 S
C383 C382 1.375 1_655 S
C383 C384 1.401 . S
C384 H371 0.930 . S
C384 C383 1.401 . S
C384 C385 1.390 . S
C385 C384 1.390 . S
C385 C386 1.394 . S
C385 C391 1.465 . S
C386 C381 1.399 . S
C386 C385 1.394 . S
C386 C387 1.516 . S
C387 C386 1.516 . S
C387 C388 1.502 . S
C387 C389 1.561 . S
C387 C390 1.526 . S
C388 H372 0.959 . S
C388 H373 0.959 . S
C388 H374 0.961 . S
C388 C387 1.502 . S
C389 H375 0.960 . S
C389 H376 0.961 . S
C389 H377 0.959 . S
C389 C387 1.561 . S
C390 C387 1.526 . S
C390 C391 1.396 . S
C390 C395 1.390 . S
C391 C385 1.465 . S
C391 C390 1.396 . S
C391 C392 1.399 . S
C392 H378 0.929 . S
C392 C391 1.399 . S
C392 C393 1.385 . S
C393 H379 0.931 . S
C393 C392 1.385 . S
C393 C394 1.389 . S
C394 C393 1.389 . S
C394 C395 1.387 . S
C395 H380 0.930 . S
C395 C390 1.390 . S
C395 C394 1.387 . S
H396 C408 0.930 . S
H397 C410 0.930 . S
H398 C411 0.930 . S
H399 C415 0.959 . S
H400 C415 0.959 . S
H401 C415 0.961 . S
H402 C416 0.960 . S
H403 C416 0.961 . S
H404 C416 0.959 . S
H405 C419 0.929 . S
H406 C420 0.931 . S
H407 C422 0.930 . S
C408 H396 0.930 . S
C408 C409 1.399 . S
C408 C413 1.399 . S
C409 C408 1.399 . S
C409 C410 1.376 . S
C410 H397 0.930 . S
C410 C409 1.376 . S
C410 C411 1.388 . S
C411 H398 0.930 . S
C411 C410 1.388 . S
C411 C412 1.390 . S
C412 C411 1.390 . S
C412 C413 1.394 . S
C412 C418 1.465 . S
C413 C408 1.399 . S
C413 C412 1.394 . S
C413 C414 1.516 . S
C414 C413 1.516 . S
C414 C415 1.502 . S
C414 C416 1.561 . S
C414 C417 1.526 . S
C415 H399 0.959 . S
C415 H400 0.959 . S
C415 H401 0.961 . S
C415 C414 1.502 . S
C416 H402 0.960 . S
C416 H403 0.961 . S
C416 H404 0.959 . S
C416 C414 1.561 . S
C417 C414 1.526 . S
C417 C418 1.396 . S
C417 C422 1.390 . S
C418 C412 1.465 . S
C418 C417 1.396 . S
C418 C419 1.399 . S
C419 H405 0.929 . S
C419 C418 1.399 . S
C419 C420 1.385 . S
C420 H406 0.931 . S
C420 C419 1.385 . S
C420 C421 1.389 . S
C421 C420 1.389 . S
C421 C422 1.387 . S
C422 H407 0.930 . S
C422 C417 1.390 . S
C422 C421 1.387 . S
H423 C435 0.930 . S
H424 C437 0.930 . S
H425 C438 0.930 . S
H426 C442 0.959 . S
H427 C442 0.959 . S
H428 C442 0.961 . S
H429 C443 0.960 . S
H430 C443 0.961 . S
H431 C443 0.959 . S
H432 C446 0.929 . S
H433 C447 0.931 . S
H434 C449 0.930 . S
C435 H423 0.930 . S
C435 C436 1.399 . S
C435 C440 1.399 . S
C436 C435 1.399 . S
C436 C437 1.376 . S
C437 H424 0.930 . S
C437 C436 1.376 . S
C437 C438 1.388 . S
C438 H425 0.930 . S
C438 C437 1.388 . S
C438 C439 1.390 . S
C439 C438 1.390 . S
C439 C440 1.394 . S
C439 C445 1.465 . S
C440 C435 1.399 . S
C440 C439 1.394 . S
C440 C441 1.516 . S
C441 C440 1.516 . S
C441 C442 1.502 . S
C441 C443 1.561 . S
C441 C444 1.526 . S
C442 H426 0.959 . S
C442 H427 0.959 . S
C442 H428 0.961 . S
C442 C441 1.502 . S
C443 H429 0.960 . S
C443 H430 0.961 . S
C443 H431 0.959 . S
C443 C441 1.561 . S
C444 C441 1.526 . S
C444 C445 1.396 . S
C444 C449 1.390 . S
C445 C439 1.465 . S
C445 C444 1.396 . S
C445 C446 1.399 . S
C446 H432 0.929 . S
C446 C445 1.399 . S
C446 C447 1.385 . S
C447 H433 0.931 . S
C447 C446 1.385 . S
C447 C448 1.389 . S
C448 C447 1.389 . S
C448 C449 1.387 . S
C449 H434 0.930 . S
C449 C444 1.390 . S
C449 C448 1.387 . S
H450 C462 0.930 . S
H451 C464 0.930 . S
H452 C465 0.930 . S
H453 C469 0.959 . S
H454 C469 0.959 . S
H455 C469 0.961 . S
H456 C470 0.960 . S
H457 C470 0.961 . S
H458 C470 0.959 . S
H459 C473 0.929 . S
H460 C474 0.931 . S
H461 C476 0.930 . S
C462 H450 0.930 . S
C462 C463 1.399 . S
C462 C467 1.399 . S
C463 C462 1.399 . S
C463 C464 1.376 . S
C464 H451 0.930 . S
C464 C463 1.376 . S
C464 C465 1.388 . S
C465 H452 0.930 . S
C465 C464 1.388 . S
C465 C466 1.390 . S
C466 C465 1.390 . S
C466 C467 1.394 . S
C466 C472 1.465 . S
C467 C462 1.399 . S
C467 C466 1.394 . S
C467 C468 1.516 . S
C468 C467 1.516 . S
C468 C469 1.502 . S
C468 C470 1.561 . S
C468 C471 1.526 . S
C469 H453 0.959 . S
C469 H454 0.959 . S
C469 H455 0.961 . S
C469 C468 1.502 . S
C470 H456 0.960 . S
C470 H457 0.961 . S
C470 H458 0.959 . S
C470 C468 1.561 . S
C471 C468 1.526 . S
C471 C472 1.396 . S
C471 C476 1.390 . S
C472 C466 1.465 . S
C472 C471 1.396 . S
C472 C473 1.399 . S
C473 H459 0.929 . S
C473 C472 1.399 . S
C473 C474 1.385 . S
C474 H460 0.931 . S
C474 C473 1.385 . S
C474 C475 1.389 . S
C475 C474 1.389 . S
C475 C476 1.387 . S
C476 H461 0.930 . S
C476 C471 1.390 . S
C476 C475 1.387 . S
H477 C489 0.930 . S
H478 C491 0.930 . S
H479 C492 0.930 . S
H480 C496 0.959 . S
H481 C496 0.959 . S
H482 C496 0.961 . S
H483 C497 0.960 . S
H484 C497 0.961 . S
H485 C497 0.959 . S
H486 C500 0.929 . S
H487 C501 0.931 . S
H488 C503 0.930 . S
C489 H477 0.930 . S
C489 C490 1.399 . S
C489 C494 1.399 . S
C490 C489 1.399 . S
C490 C491 1.376 . S
C491 H478 0.930 . S
C491 C490 1.376 . S
C491 C492 1.388 . S
C492 H479 0.930 . S
C492 C491 1.388 . S
C492 C493 1.390 . S
C493 C492 1.390 . S
C493 C494 1.394 . S
C493 C499 1.465 . S
C494 C489 1.399 . S
C494 C493 1.394 . S
C494 C495 1.516 . S
C495 C494 1.516 . S
C495 C496 1.502 . S
C495 C497 1.561 . S
C495 C498 1.526 . S
C496 H480 0.959 . S
C496 H481 0.959 . S
C496 H482 0.961 . S
C496 C495 1.502 . S
C497 H483 0.960 . S
C497 H484 0.961 . S
C497 H485 0.959 . S
C497 C495 1.561 . S
C498 C495 1.526 . S
C498 C499 1.396 . S
C498 C503 1.390 . S
C499 C493 1.465 . S
C499 C498 1.396 . S
C499 C500 1.399 . S
C500 H486 0.929 . S
C500 C499 1.399 . S
C500 C501 1.385 . S
C501 H487 0.931 . S
C501 C500 1.385 . S
C501 C502 1.389 . S
C502 C501 1.389 . S
C502 C503 1.387 . S
C503 H488 0.930 . S
C503 C498 1.390 . S
C503 C502 1.387 . S
H504 C516 0.930 . S
H505 C518 0.930 . S
H506 C519 0.930 . S
H507 C523 0.959 . S
H508 C523 0.959 1_545 S
H509 C523 0.961 . S
H510 C524 0.960 . S
H511 C524 0.961 . S
H512 C524 0.959 . S
H513 C527 0.929 . S
H514 C528 0.931 . S
H515 C530 0.930 . S
C516 H504 0.930 . S
C516 C517 1.399 . S
C516 C521 1.399 . S
C517 C516 1.399 . S
C517 C518 1.376 . S
C518 H505 0.930 . S
C518 C517 1.376 . S
C518 C519 1.388 . S
C519 H506 0.930 . S
C519 C518 1.388 . S
C519 C520 1.390 . S
C520 C519 1.390 . S
C520 C521 1.394 . S
C520 C526 1.465 . S
C521 C516 1.399 . S
C521 C520 1.394 . S
C521 C522 1.516 . S
C522 C521 1.516 . S
C522 C523 1.502 . S
C522 C524 1.561 . S
C522 C525 1.526 . S
C523 H507 0.959 . S
C523 H508 0.959 1_565 S
C523 H509 0.961 . S
C523 C522 1.502 . S
C524 H510 0.960 . S
C524 H511 0.961 . S
C524 H512 0.959 . S
C524 C522 1.561 . S
C525 C522 1.526 . S
C525 C526 1.396 . S
C525 C530 1.390 1_565 S
C526 C520 1.465 . S
C526 C525 1.396 . S
C526 C527 1.399 . S
C527 H513 0.929 . S
C527 C526 1.399 . S
C527 C528 1.385 1_565 S
C528 H514 0.931 . S
C528 C527 1.385 1_545 S
C528 C529 1.389 . S
C529 C528 1.389 . S
C529 C530 1.387 . S
C530 H515 0.930 . S
C530 C525 1.390 1_545 S
C530 C529 1.387 . S
H531 C543 0.930 . S
H532 C545 0.930 . S
H533 C546 0.930 . S
H534 C550 0.959 . S
H535 C550 0.959 . S
H536 C550 0.961 1_545 S
H537 C551 0.960 . S
H538 C551 0.961 1_565 S
H539 C551 0.959 . S
H540 C554 0.929 . S
H541 C555 0.931 . S
H542 C557 0.930 . S
C543 H531 0.930 . S
C543 C544 1.399 . S
C543 C548 1.399 . S
C544 C543 1.399 . S
C544 C545 1.376 . S
C545 H532 0.930 . S
C545 C544 1.376 . S
C545 C546 1.388 . S
C546 H533 0.930 . S
C546 C545 1.388 . S
C546 C547 1.390 1_545 S
C547 C546 1.390 1_565 S
C547 C548 1.394 1_565 S
C547 C553 1.465 . S
C548 C543 1.399 . S
C548 C547 1.394 1_545 S
C548 C549 1.516 1_545 S
C549 C548 1.516 1_565 S
C549 C550 1.502 . S
C549 C551 1.561 1_565 S
C549 C552 1.526 . S
C550 H534 0.959 . S
C550 H535 0.959 . S
C550 H536 0.961 1_565 S
C550 C549 1.502 . S
C551 H537 0.960 . S
C551 H538 0.961 1_545 S
C551 H539 0.959 . S
C551 C549 1.561 1_545 S
C552 C549 1.526 . S
C552 C553 1.396 . S
C552 C557 1.390 . S
C553 C547 1.465 . S
C553 C552 1.396 . S
C553 C554 1.399 . S
C554 H540 0.929 . S
C554 C553 1.399 . S
C554 C555 1.385 . S
C555 H541 0.931 . S
C555 C554 1.385 . S
C555 C556 1.389 . S
C556 C555 1.389 . S
C556 C557 1.387 . S
C557 H542 0.930 . S
C557 C552 1.390 . S
C557 C556 1.387 . S
H558 C570 0.930 . S
H559 C572 0.930 . S
H560 C573 0.930 . S
H561 C577 0.959 . S
H562 C577 0.959 1_565 S
H563 C577 0.961 . S
H564 C578 0.960 . S
H565 C578 0.961 1_565 S
H566 C578 0.959 . S
H567 C581 0.929 . S
H568 C582 0.931 . S
H569 C584 0.930 . S
C570 H558 0.930 . S
C570 C571 1.399 . S
C570 C575 1.399 . S
C571 C570 1.399 . S
C571 C572 1.376 . S
C572 H559 0.930 . S
C572 C571 1.376 . S
C572 C573 1.388 . S
C573 H560 0.930 . S
C573 C572 1.388 . S
C573 C574 1.390 . S
C574 C573 1.390 . S
C574 C575 1.394 . S
C574 C580 1.465 . S
C575 C570 1.399 . S
C575 C574 1.394 . S
C575 C576 1.516 . S
C576 C575 1.516 . S
C576 C577 1.502 . S
C576 C578 1.561 . S
C576 C579 1.526 1_545 S
C577 H561 0.959 . S
C577 H562 0.959 1_545 S
C577 H563 0.961 . S
C577 C576 1.502 . S
C578 H564 0.960 . S
C578 H565 0.961 1_545 S
C578 H566 0.959 . S
C578 C576 1.561 . S
C579 C576 1.526 1_565 S
C579 C580 1.396 1_565 S
C579 C584 1.390 . S
C580 C574 1.465 . S
C580 C579 1.396 1_545 S
C580 C581 1.399 1_545 S
C581 H567 0.929 . S
C581 C580 1.399 1_565 S
C581 C582 1.385 . S
C582 H568 0.931 . S
C582 C581 1.385 . S
C582 C583 1.389 . S
C583 C582 1.389 . S
C583 C584 1.387 . S
C584 H569 0.930 . S
C584 C579 1.390 . S
C584 C583 1.387 . S
H585 C597 0.930 . S
H586 C599 0.930 . S
H587 C600 0.930 . S
H588 C604 0.959 . S
H589 C604 0.959 . S
H590 C604 0.961 . S
H591 C605 0.960 . S
H592 C605 0.961 1_545 S
H593 C605 0.959 . S
H594 C608 0.929 . S
H595 C609 0.931 . S
H596 C611 0.930 . S
C597 H585 0.930 . S
C597 C598 1.399 . S
C597 C602 1.399 . S
C598 C597 1.399 . S
C598 C599 1.376 . S
C599 H586 0.930 . S
C599 C598 1.376 . S
C599 C600 1.388 . S
C600 H587 0.930 . S
C600 C599 1.388 . S
C600 C601 1.390 . S
C601 C600 1.390 . S
C601 C602 1.394 . S
C601 C607 1.465 1_565 S
C602 C597 1.399 . S
C602 C601 1.394 . S
C602 C603 1.516 . S
C603 C602 1.516 . S
C603 C604 1.502 . S
C603 C605 1.561 . S
C603 C606 1.526 1_565 S
C604 H588 0.959 . S
C604 H589 0.959 . S
C604 H590 0.961 . S
C604 C603 1.502 . S
C605 H591 0.960 . S
C605 H592 0.961 1_565 S
C605 H593 0.959 . S
C605 C603 1.561 . S
C606 C603 1.526 1_545 S
C606 C607 1.396 . S
C606 C611 1.390 . S
C607 C601 1.465 1_545 S
C607 C606 1.396 . S
C607 C608 1.399 . S
C608 H594 0.929 . S
C608 C607 1.399 . S
C608 C609 1.385 . S
C609 H595 0.931 . S
C609 C608 1.385 . S
C609 C610 1.389 . S
C610 C609 1.389 . S
C610 C611 1.387 . S
C611 H596 0.930 . S
C611 C606 1.390 . S
C611 C610 1.387 . S
H612 C624 0.930 . S
H613 C626 0.930 . S
H614 C627 0.930 . S
H615 C631 0.959 . S
H616 C631 0.959 . S
H617 C631 0.961 . S
H618 C632 0.960 . S
H619 C632 0.961 . S
H620 C632 0.959 . S
H621 C635 0.929 . S
H622 C636 0.931 . S
H623 C638 0.930 . S
C624 H612 0.930 . S
C624 C625 1.399 . S
C624 C629 1.399 1_554 S
C625 C624 1.399 . S
C625 C626 1.376 . S
C626 H613 0.930 . S
C626 C625 1.376 . S
C626 C627 1.388 . S
C627 H614 0.930 . S
C627 C626 1.388 . S
C627 C628 1.390 1_554 S
C628 C627 1.390 1_556 S
C628 C629 1.394 . S
C628 C634 1.465 . S
C629 C624 1.399 1_556 S
C629 C628 1.394 . S
C629 C630 1.516 . S
C630 C629 1.516 . S
C630 C631 1.502 . S
C630 C632 1.561 . S
C630 C633 1.526 . S
C631 H615 0.959 . S
C631 H616 0.959 . S
C631 H617 0.961 . S
C631 C630 1.502 . S
C632 H618 0.960 . S
C632 H619 0.961 . S
C632 H620 0.959 . S
C632 C630 1.561 . S
C633 C630 1.526 . S
C633 C634 1.396 . S
C633 C638 1.390 . S
C634 C628 1.465 . S
C634 C633 1.396 . S
C634 C635 1.399 . S
C635 H621 0.929 . S
C635 C634 1.399 . S
C635 C636 1.385 . S
C636 H622 0.931 . S
C636 C635 1.385 . S
C636 C637 1.389 . S
C637 C636 1.389 . S
C637 C638 1.387 . S
C638 H623 0.930 . S
C638 C633 1.390 . S
C638 C637 1.387 . S
H639 C651 0.930 . S
H640 C653 0.930 . S
H641 C654 0.930 . S
H642 C658 0.959 . S
H643 C658 0.959 . S
H644 C658 0.961 . S
H645 C659 0.960 . S
H646 C659 0.961 . S
H647 C659 0.959 . S
H648 C662 0.929 . S
H649 C663 0.931 . S
H650 C665 0.930 . S
C651 H639 0.930 . S
C651 C652 1.399 . S
C651 C656 1.399 . S
C652 C651 1.399 . S
C652 C653 1.376 . S
C653 H640 0.930 . S
C653 C652 1.376 . S
C653 C654 1.388 . S
C654 H641 0.930 . S
C654 C653 1.388 . S
C654 C655 1.390 . S
C655 C654 1.390 . S
C655 C656 1.394 . S
C655 C661 1.465 . S
C656 C651 1.399 . S
C656 C655 1.394 . S
C656 C657 1.516 . S
C657 C656 1.516 . S
C657 C658 1.502 . S
C657 C659 1.561 . S
C657 C660 1.526 . S
C658 H642 0.959 . S
C658 H643 0.959 . S
C658 H644 0.961 . S
C658 C657 1.502 . S
C659 H645 0.960 . S
C659 H646 0.961 . S
C659 H647 0.959 . S
C659 C657 1.561 . S
C660 C657 1.526 . S
C660 C661 1.396 . S
C660 C665 1.390 . S
C661 C655 1.465 . S
C661 C660 1.396 . S
C661 C662 1.399 . S
C662 H648 0.929 . S
C662 C661 1.399 . S
C662 C663 1.385 . S
C663 H649 0.931 . S
C663 C662 1.385 . S
C663 C664 1.389 . S
C664 C663 1.389 . S
C664 C665 1.387 . S
C665 H650 0.930 . S
C665 C660 1.390 . S
C665 C664 1.387 . S
H666 C678 0.930 . S
H667 C680 0.930 . S
H668 C681 0.930 . S
H669 C685 0.959 . S
H670 C685 0.959 . S
H671 C685 0.961 . S
H672 C686 0.960 . S
H673 C686 0.961 . S
H674 C686 0.959 . S
H675 C689 0.929 . S
H676 C690 0.931 . S
H677 C692 0.930 . S
C678 H666 0.930 . S
C678 C679 1.399 . S
C678 C683 1.399 . S
C679 C678 1.399 . S
C679 C680 1.376 . S
C680 H667 0.930 . S
C680 C679 1.376 . S
C680 C681 1.388 . S
C681 H668 0.930 . S
C681 C680 1.388 . S
C681 C682 1.390 . S
C682 C681 1.390 . S
C682 C683 1.394 . S
C682 C688 1.465 . S
C683 C678 1.399 . S
C683 C682 1.394 . S
C683 C684 1.516 . S
C684 C683 1.516 . S
C684 C685 1.502 . S
C684 C686 1.561 . S
C684 C687 1.526 . S
C685 H669 0.959 . S
C685 H670 0.959 . S
C685 H671 0.961 . S
C685 C684 1.502 . S
C686 H672 0.960 . S
C686 H673 0.961 . S
C686 H674 0.959 . S
C686 C684 1.561 . S
C687 C684 1.526 . S
C687 C688 1.396 . S
C687 C692 1.390 . S
C688 C682 1.465 . S
C688 C687 1.396 . S
C688 C689 1.399 . S
C689 H675 0.929 . S
C689 C688 1.399 . S
C689 C690 1.385 . S
C690 H676 0.931 . S
C690 C689 1.385 . S
C690 C691 1.389 . S
C691 C690 1.389 . S
C691 C692 1.387 . S
C692 H677 0.930 . S
C692 C687 1.390 . S
C692 C691 1.387 . S
H693 C705 0.930 . S
H694 C707 0.930 . S
H695 C708 0.930 . S
H696 C712 0.959 . S
H697 C712 0.959 . S
H698 C712 0.961 . S
H699 C713 0.960 . S
H700 C713 0.961 . S
H701 C713 0.959 . S
H702 C716 0.929 . S
H703 C717 0.931 . S
H704 C719 0.930 . S
C705 H693 0.930 . S
C705 C706 1.399 . S
C705 C710 1.399 . S
C706 C705 1.399 . S
C706 C707 1.376 . S
C707 H694 0.930 . S
C707 C706 1.376 . S
C707 C708 1.388 . S
C708 H695 0.930 . S
C708 C707 1.388 . S
C708 C709 1.390 . S
C709 C708 1.390 . S
C709 C710 1.394 . S
C709 C715 1.465 . S
C710 C705 1.399 . S
C710 C709 1.394 . S
C710 C711 1.516 . S
C711 C710 1.516 . S
C711 C712 1.502 . S
C711 C713 1.561 . S
C711 C714 1.526 . S
C712 H696 0.959 . S
C712 H697 0.959 . S
C712 H698 0.961 . S
C712 C711 1.502 . S
C713 H699 0.960 . S
C713 H700 0.961 . S
C713 H701 0.959 . S
C713 C711 1.561 . S
C714 C711 1.526 . S
C714 C715 1.396 . S
C714 C719 1.390 . S
C715 C709 1.465 . S
C715 C714 1.396 . S
C715 C716 1.399 . S
C716 H702 0.929 . S
C716 C715 1.399 . S
C716 C717 1.385 . S
C717 H703 0.931 . S
C717 C716 1.385 . S
C717 C718 1.389 . S
C718 C717 1.389 . S
C718 C719 1.387 . S
C719 H704 0.930 . S
C719 C714 1.390 . S
C719 C718 1.387 . S
H720 C732 0.930 . S
H721 C734 0.930 . S
H722 C735 0.930 . S
H723 C739 0.959 . S
H724 C739 0.959 . S
H725 C739 0.961 . S
H726 C740 0.960 . S
H727 C740 0.961 . S
H728 C740 0.959 . S
H729 C743 0.929 . S
H730 C744 0.931 . S
H731 C746 0.930 . S
C732 H720 0.930 . S
C732 C733 1.399 . S
C732 C737 1.426 . S
C733 C732 1.399 . S
C733 C734 1.376 . S
C734 H721 0.930 . S
C734 C733 1.376 . S
C734 C735 1.388 . S
C735 H722 0.930 . S
C735 C734 1.388 . S
C735 C736 1.390 1_556 S
C736 C735 1.390 1_554 S
C736 C737 1.387 1_554 S
C736 C742 1.465 . S
C737 C732 1.426 . S
C737 C736 1.387 1_556 S
C737 C738 1.494 1_556 S
C738 C737 1.494 1_554 S
C738 C739 1.502 . S
C738 C740 1.561 . S
C738 C741 1.526 . S
C739 H723 0.959 . S
C739 H724 0.959 . S
C739 H725 0.961 . S
C739 C738 1.502 . S
C740 H726 0.960 . S
C740 H727 0.961 . S
C740 H728 0.959 . S
C740 C738 1.561 . S
C741 C738 1.526 . S
C741 C742 1.396 . S
C741 C746 1.390 . S
C742 C736 1.465 . S
C742 C741 1.396 . S
C742 C743 1.399 . S
C743 H729 0.929 . S
C743 C742 1.399 . S
C743 C744 1.385 . S
C744 H730 0.931 . S
C744 C743 1.385 . S
C744 C745 1.389 . S
C745 C744 1.389 . S
C745 C746 1.387 . S
C746 H731 0.930 . S
C746 C741 1.390 . S
C746 C745 1.387 . S
H747 C759 0.930 . S
H748 C761 0.930 . S
H749 C762 0.930 . S
H750 C766 0.959 . S
H751 C766 0.959 . S
H752 C766 0.961 . S
H753 C767 0.960 . S
H754 C767 0.961 . S
H755 C767 0.959 . S
H756 C770 0.929 . S
H757 C771 0.931 . S
H758 C773 0.930 . S
C759 H747 0.930 . S
C759 C760 1.399 . S
C759 C764 1.399 . S
C760 C759 1.399 . S
C760 C761 1.376 . S
C761 H748 0.930 . S
C761 C760 1.376 . S
C761 C762 1.388 . S
C762 H749 0.930 . S
C762 C761 1.388 . S
C762 C763 1.390 . S
C763 C762 1.390 . S
C763 C764 1.394 . S
C763 C769 1.465 . S
C764 C759 1.399 . S
C764 C763 1.394 . S
C764 C765 1.516 . S
C765 C764 1.516 . S
C765 C766 1.502 . S
C765 C767 1.561 . S
C765 C768 1.526 . S
C766 H750 0.959 . S
C766 H751 0.959 . S
C766 H752 0.961 . S
C766 C765 1.502 . S
C767 H753 0.960 . S
C767 H754 0.961 . S
C767 H755 0.959 . S
C767 C765 1.561 . S
C768 C765 1.526 . S
C768 C769 1.396 . S
C768 C773 1.390 . S
C769 C763 1.465 . S
C769 C768 1.396 . S
C769 C770 1.399 . S
C770 H756 0.929 . S
C770 C769 1.399 . S
C770 C771 1.385 . S
C771 H757 0.931 . S
C771 C770 1.385 . S
C771 C772 1.389 . S
C772 C771 1.389 . S
C772 C773 1.387 . S
C773 H758 0.930 . S
C773 C768 1.390 . S
C773 C772 1.387 . S
H774 C786 0.930 . S
H775 C788 0.930 . S
H776 C789 0.930 . S
H777 C793 0.959 . S
H778 C793 0.959 . S
H779 C793 0.961 . S
H780 C794 0.960 . S
H781 C794 0.961 . S
H782 C794 0.959 . S
H783 C797 0.929 . S
H784 C798 0.931 . S
H785 C800 0.930 . S
C786 H774 0.930 . S
C786 C787 1.399 . S
C786 C791 1.399 . S
C787 C786 1.399 . S
C787 C788 1.376 . S
C788 H775 0.930 . S
C788 C787 1.376 . S
C788 C789 1.388 . S
C789 H776 0.930 . S
C789 C788 1.388 . S
C789 C790 1.390 . S
C790 C789 1.390 . S
C790 C791 1.394 . S
C790 C796 1.465 . S
C791 C786 1.399 . S
C791 C790 1.394 . S
C791 C792 1.516 . S
C792 C791 1.516 . S
C792 C793 1.502 . S
C792 C794 1.561 . S
C792 C795 1.526 . S
C793 H777 0.959 . S
C793 H778 0.959 . S
C793 H779 0.961 . S
C793 C792 1.502 . S
C794 H780 0.960 . S
C794 H781 0.961 . S
C794 H782 0.959 . S
C794 C792 1.561 . S
C795 C792 1.526 . S
C795 C796 1.396 . S
C795 C800 1.390 . S
C796 C790 1.465 . S
C796 C795 1.396 . S
C796 C797 1.399 . S
C797 H783 0.929 . S
C797 C796 1.399 . S
C797 C798 1.385 . S
C798 H784 0.931 . S
C798 C797 1.385 . S
C798 C799 1.389 . S
C799 C798 1.389 . S
C799 C800 1.387 . S
C800 H785 0.930 . S
C800 C795 1.390 . S
C800 C799 1.387 . S
H801 C813 0.930 . S
H802 C815 0.930 . S
H803 C816 0.930 . S
H804 C820 0.959 . S
H805 C820 0.959 . S
H806 C820 0.961 . S
H807 C821 0.960 . S
H808 C821 0.961 . S
H809 C821 0.959 . S
H810 C824 0.929 . S
H811 C825 0.931 . S
H812 C827 0.930 . S
C813 H801 0.930 . S
C813 C814 1.399 . S
C813 C818 1.399 . S
C814 C813 1.399 . S
C814 C815 1.376 . S
C815 H802 0.930 . S
C815 C814 1.376 . S
C815 C816 1.388 . S
C816 H803 0.930 . S
C816 C815 1.388 . S
C816 C817 1.390 . S
C817 C816 1.390 . S
C817 C818 1.394 . S
C817 C823 1.465 . S
C818 C813 1.399 . S
C818 C817 1.394 . S
C818 C819 1.516 . S
C819 C818 1.516 . S
C819 C820 1.502 . S
C819 C821 1.561 . S
C819 C822 1.526 . S
C820 H804 0.959 . S
C820 H805 0.959 . S
C820 H806 0.961 . S
C820 C819 1.502 . S
C821 H807 0.960 . S
C821 H808 0.961 . S
C821 H809 0.959 . S
C821 C819 1.561 . S
C822 C819 1.526 . S
C822 C823 1.396 . S
C822 C827 1.390 . S
C823 C817 1.465 . S
C823 C822 1.396 . S
C823 C824 1.399 . S
C824 H810 0.929 . S
C824 C823 1.399 . S
C824 C825 1.385 . S
C825 H811 0.931 . S
C825 C824 1.385 . S
C825 C826 1.389 . S
C826 C825 1.389 . S
C826 C827 1.387 . S
C827 H812 0.930 . S
C827 C822 1.390 . S
C827 C826 1.387 . S
C205 C103 1.472 . S
C193 C6 1.554 . S
C232 C121 1.543 . S
C220 C18 1.685 1_655 S
C247 C28 1.362 . S
C259 C145 1.236 . S
C286 C175 1.177 1_655 S
C274 C40 1.245 . S
C313 C163 1.232 . S
C301 C54 1.318 . S
C328 C64 1.153 . S
C340 C116 1.199 1_655 S
C355 C76 1.578 . S
C367 C136 1.512 . S
C382 C90 1.707 . S
C394 C141 1.514 . S
C409 C88 1.190 . S
C421 C157 1.136 . S
C436 C66 1.711 . S
C448 C112 1.511 . S
C475 C179 1.624 . S
C463 C42 1.686 . S
C502 C124 1.058 . S
C490 C16 1.218 . S
C517 C30 1.562 . S
C529 C142 1.432 . S
C544 C4 1.372 . S
C556 C100 1.245 . S
C583 C120 1.268 . S
C571 C78 1.356 . S
C610 C166 1.512 . S
C598 C52 1.579 . S
C637 C162 1.320 . S
C625 C9 1.469 . S
C664 C115 1.422 . S
C652 C21 1.550 . S
C679 C33 1.483 . S
C691 C137 1.366 . S
C706 C45 1.579 . S
C718 C158 1.522 . S
C745 C99 1.371 . S
C733 C57 1.544 . S
C760 C69 1.497 . S
C772 C133 1.343 . S
C799 C154 1.379 . S
C787 C81 1.563 . S
C826 C178 1.405 . S
C814 C93 1.500 . S
