# Generated by pormake.
# Topology nom, (4,4)-cn, num edge types: 1
# Building blocks:
#     Node 0, Type 0, BuildingBlock: AZAVOO_clean_linker_0, # of connection points: 4
#     Node 1, Type 0, BuildingBlock: AZAVOO_clean_linker_0, # of connection points: 4
#     Node 2, Type 0, BuildingBlock: AZAVOO_clean_linker_0, # of connection points: 4
#     Node 3, Type 0, BuildingBlock: AZAVOO_clean_linker_0, # of connection points: 4
#     Node 4, Type 0, BuildingBlock: AZAVOO_clean_linker_0, # of connection points: 4
#     Node 5, Type 0, BuildingBlock: AZAVOO_clean_linker_0, # of connection points: 4
#     Node 6, Type 1, BuildingBlock: AZAVOO_clean_sbu_0, # of connection points: 4
#     Node 7, Type 1, BuildingBlock: AZAVOO_clean_sbu_0, # of connection points: 4
#     Node 8, Type 1, BuildingBlock: AZAVOO_clean_sbu_0, # of connection points: 4
#     Node 9, Type 1, BuildingBlock: AZAVOO_clean_sbu_0, # of connection points: 4
#     Node 10, Type 1, BuildingBlock: AZAVOO_clean_sbu_0, # of connection points: 4
#     Node 11, Type 1, BuildingBlock: AZAVOO_clean_sbu_0, # of connection points: 4
#     Edge 12, Type (0, 1), BuildingBlock: OJICUG_clean_linker_0, # of connection points: 2
#     Edge 13, Type (0, 1), BuildingBlock: OJICUG_clean_linker_0, # of connection points: 2
#     Edge 14, Type (0, 1), BuildingBlock: OJICUG_clean_linker_0, # of connection points: 2
#     Edge 15, Type (0, 1), BuildingBlock: OJICUG_clean_linker_0, # of connection points: 2
#     Edge 16, Type (0, 1), BuildingBlock: OJICUG_clean_linker_0, # of connection points: 2
#     Edge 17, Type (0, 1), BuildingBlock: OJICUG_clean_linker_0, # of connection points: 2
#     Edge 18, Type (0, 1), BuildingBlock: OJICUG_clean_linker_0, # of connection points: 2
#     Edge 19, Type (0, 1), BuildingBlock: OJICUG_clean_linker_0, # of connection points: 2
#     Edge 20, Type (0, 1), BuildingBlock: OJICUG_clean_linker_0, # of connection points: 2
#     Edge 21, Type (0, 1), BuildingBlock: OJICUG_clean_linker_0, # of connection points: 2
#     Edge 22, Type (0, 1), BuildingBlock: OJICUG_clean_linker_0, # of connection points: 2
#     Edge 23, Type (0, 1), BuildingBlock: OJICUG_clean_linker_0, # of connection points: 2
#     Edge 24, Type (0, 1), BuildingBlock: OJICUG_clean_linker_0, # of connection points: 2
#     Edge 25, Type (0, 1), BuildingBlock: OJICUG_clean_linker_0, # of connection points: 2
#     Edge 26, Type (0, 1), BuildingBlock: OJICUG_clean_linker_0, # of connection points: 2
#     Edge 27, Type (0, 1), BuildingBlock: OJICUG_clean_linker_0, # of connection points: 2
#     Edge 28, Type (0, 1), BuildingBlock: OJICUG_clean_linker_0, # of connection points: 2
#     Edge 29, Type (0, 1), BuildingBlock: OJICUG_clean_linker_0, # of connection points: 2
#     Edge 30, Type (0, 1), BuildingBlock: OJICUG_clean_linker_0, # of connection points: 2
#     Edge 31, Type (0, 1), BuildingBlock: OJICUG_clean_linker_0, # of connection points: 2
#     Edge 32, Type (0, 1), BuildingBlock: OJICUG_clean_linker_0, # of connection points: 2
#     Edge 33, Type (0, 1), BuildingBlock: OJICUG_clean_linker_0, # of connection points: 2
#     Edge 34, Type (0, 1), BuildingBlock: OJICUG_clean_linker_0, # of connection points: 2
#     Edge 35, Type (0, 1), BuildingBlock: OJICUG_clean_linker_0, # of connection points: 2
# Relax obj value: 0.206
# Max RMSD: 0.234
# Mean RMSD: 0.192
data_MOF--net-nom--node1-AZAVOO_clean_sbu_0--node2-AZAVOO_clean_linker_0--edge1-OJICUG_clean_linker_0
_symmetry_space_group_name_H-M    P1
_symmetry_Int_Tables_number       1
_symmetry_cell_setting            triclinic
loop_
_symmetry_equiv_pos_as_xyz
'x, y, z'
_cell_length_a     37.362295
_cell_length_b     38.911115
_cell_length_c     44.861706
_cell_angle_alpha  90.902971
_cell_angle_beta   91.159019
_cell_angle_gamma 121.04271
loop_
_atom_site_label
_atom_site_type_symbol
_atom_site_fract_x
_atom_site_fract_y
_atom_site_fract_z
_atom_type_partial_charge
H0 H 0.11131 0.47187 0.11621 0.0
H1 H 0.29139 0.67306 0.4241 0.0
H2 H 0.01454 0.41082 0.26309 0.0
H3 H 0.96509 0.37643 0.22167 0.0
H4 H 0.92154 0.45976 0.23025 0.0
H5 H 0.97368 0.49578 0.27049 0.0
H6 H 0.11053 0.46517 0.24643 0.0
H7 H 0.11692 0.46174 0.19241 0.0
H8 H 0.0548 0.52865 0.17988 0.0
H9 H 0.04918 0.53235 0.2339 0.0
H10 H 0.18057 0.51614 0.29787 0.0
H11 H 0.2511 0.5658 0.28223 0.0
H12 H 0.20378 0.63876 0.24829 0.0
H13 H 0.13405 0.58923 0.2637 0.0
H14 H 0.14655 0.49698 0.36187 0.0
H15 H 0.20587 0.53544 0.39696 0.0
H16 H 0.21423 0.6452 0.36914 0.0
H17 H 0.15448 0.60629 0.3345 0.0
H18 H 0.05621 0.45005 0.37745 0.0
H19 H 0.08212 0.46237 0.42905 0.0
H20 H 0.10484 0.58304 0.4259 0.0
H21 H 0.07972 0.57047 0.37379 0.0
H22 H 0.96243 0.41519 0.33434 0.0
H23 H 0.89473 0.40453 0.34955 0.0
H24 H 0.94422 0.53235 0.34484 0.0
H25 H 0.01142 0.5424 0.33163 0.0
O26 O 0.10856 0.47367 0.1375 0.0
O27 O 0.07619 0.50785 0.13229 0.0
O28 O 0.26246 0.59986 0.42379 0.0
O29 O 0.26845 0.6572 0.40999 0.0
C30 C 0.0352 0.48165 0.28956 0.0
C31 C 0.07516 0.50064 0.27687 0.0
C32 C 0.11139 0.52326 0.2952 0.0
C33 C 0.10808 0.5252 0.3263 0.0
C34 C 0.06828 0.50727 0.33894 0.0
C35 C 0.0318 0.48715 0.32043 0.0
C36 C -0.00225 0.45577 0.26994 0.0
C37 C 0.99362 0.42108 0.25648 0.0
C38 C 0.96506 0.40132 0.23274 0.0
C39 C 0.93925 0.41533 0.22217 0.0
C40 C 0.94143 0.44851 0.23722 0.0
C41 C 0.97067 0.46876 0.26071 0.0
C42 C 0.07909 0.4987 0.24405 0.0
C43 C 0.09841 0.47912 0.23196 0.0
C44 C 0.10195 0.47716 0.20111 0.0
C45 C 0.08625 0.49481 0.18181 0.0
C46 C 0.0671 0.51462 0.19408 0.0
C47 C 0.06371 0.51665 0.22492 0.0
C48 C 0.15235 0.54915 0.28176 0.0
C49 C 0.18552 0.54252 0.28648 0.0
C50 C 0.22567 0.57095 0.27775 0.0
C51 C 0.23296 0.60616 0.26406 0.0
C52 C 0.19913 0.61166 0.2583 0.0
C53 C 0.15923 0.58342 0.26709 0.0
C54 C 0.14629 0.54888 0.3457 0.0
C55 C 0.16143 0.52935 0.36328 0.0
C56 C 0.19526 0.55138 0.38332 0.0
C57 C 0.21472 0.59341 0.38592 0.0
C58 C 0.19994 0.6129 0.36774 0.0
C59 C 0.16598 0.5908 0.34783 0.0
C60 C 0.06618 0.50935 0.37185 0.0
C61 C 0.0648 0.47845 0.38835 0.0
C62 C 0.08006 0.48577 0.41788 0.0
C63 C 0.09661 0.5241 0.43149 0.0
C64 C 0.09338 0.55354 0.41587 0.0
C65 C 0.07819 0.54617 0.38628 0.0
C66 C 0.99171 0.47956 0.33207 0.0
C67 C 0.95856 0.44076 0.33727 0.0
C68 C 0.91985 0.4348 0.3457 0.0
C69 C 0.91365 0.46755 0.34856 0.0
C70 C 0.94763 0.50638 0.34379 0.0
C71 C 0.98619 0.51226 0.33593 0.0
C72 C 0.08994 0.49259 0.14904 0.0
C73 C 0.24999 0.61686 0.4077 0.0
H74 H 0.54676 0.04162 0.29157 0.0
H75 H 0.5298 0.2497 0.58649 0.0
H76 H 0.52927 0.97427 0.46342 0.0
H77 H 0.53481 0.93288 0.42455 0.0
H78 H 0.41584 0.90622 0.38608 0.0
H79 H 0.40969 0.94611 0.42607 0.0
H80 H 0.55347 0.04477 0.42205 0.0
H81 H 0.56268 0.04581 0.36813 0.0
H82 H 0.4397 0.02877 0.35337 0.0
H83 H 0.43077 0.02729 0.40736 0.0
H84 H 0.57432 0.12891 0.46181 0.0
H85 H 0.5984 0.19163 0.4357 0.0
H86 H 0.47005 0.15558 0.41463 0.0
H87 H 0.44646 0.09275 0.44048 0.0
H88 H 0.56439 0.10882 0.53274 0.0
H89 H 0.58683 0.16877 0.56435 0.0
H90 H 0.4749 0.16847 0.53726 0.0
H91 H 0.45253 0.10809 0.5061 0.0
H92 H 0.53118 0.01702 0.54703 0.0
H93 H 0.55182 0.03747 0.59924 0.0
H94 H 0.4541 0.06511 0.60641 0.0
H95 H 0.43353 0.04437 0.55397 0.0
H96 H 0.49609 0.94463 0.51074 0.0
H97 H 0.4561 0.87706 0.5307 0.0
H98 H 0.34707 0.88827 0.53413 0.0
H99 H 0.38703 0.95536 0.51384 0.0
O100 O 0.54264 0.04151 0.31281 0.0
O101 O 0.47978 0.03402 0.30644 0.0
O102 O 0.57834 0.22438 0.58773 0.0
O103 O 0.52181 0.22617 0.574 0.0
C104 C 0.47229 0.9969 0.46541 0.0
C105 C 0.48534 0.0335 0.45113 0.0
C106 C 0.49431 0.06801 0.46799 0.0
C107 C 0.49238 0.06655 0.49932 0.0
C108 C 0.47836 0.02967 0.51362 0.0
C109 C 0.46675 0.99447 0.49649 0.0
C110 C 0.46889 0.96284 0.44771 0.0
C111 C 0.5034 0.95776 0.44751 0.0
C112 C 0.50683 0.93464 0.42497 0.0
C113 C 0.47615 0.91684 0.4019 0.0
C114 C 0.43988 0.91921 0.40362 0.0
C115 C 0.43625 0.94199 0.42645 0.0
C116 C 0.49154 0.03609 0.41849 0.0
C117 C 0.52868 0.04146 0.40709 0.0
C118 C 0.5338 0.04197 0.37631 0.0
C119 C 0.50192 0.03737 0.35642 0.0
C120 C 0.46488 0.03242 0.36805 0.0
C121 C 0.45973 0.03171 0.39884 0.0
C122 C 0.50872 0.10641 0.45292 0.0
C123 C 0.55151 0.13474 0.45161 0.0
C124 C 0.56513 0.17057 0.43684 0.0
C125 C 0.53613 0.1786 0.42306 0.0
C126 C 0.49319 0.1501 0.42466 0.0
C127 C 0.47964 0.11433 0.4395 0.0
C128 C 0.5068 0.10411 0.51724 0.0
C129 C 0.54482 0.1218 0.53365 0.0
C130 C 0.55754 0.15603 0.55167 0.0
C131 C 0.5326 0.17338 0.55338 0.0
C132 C 0.49482 0.15586 0.53649 0.0
C133 C 0.48203 0.12148 0.51859 0.0
C134 C 0.48112 0.02956 0.54665 0.0
C135 C 0.51306 0.02585 0.56019 0.0
C136 C 0.52496 0.03777 0.59003 0.0
C137 C 0.5051 0.05365 0.60676 0.0
C138 C 0.47048 0.0537 0.59388 0.0
C139 C 0.4584 0.04149 0.56407 0.0
C140 C 0.4443 0.9547 0.51044 0.0
C141 C 0.46351 0.93234 0.51558 0.0
C142 C 0.44063 0.89379 0.52699 0.0
C143 C 0.39835 0.87724 0.53384 0.0
C144 C 0.37962 0.90024 0.5293 0.0
C145 C 0.40237 0.93853 0.51767 0.0
C146 C 0.50729 0.03754 0.32372 0.0
C147 C 0.54578 0.2095 0.57275 0.0
H148 H 0.63025 0.55572 0.81093 0.0
H149 H 0.61801 0.3577 0.50501 0.0
H150 H 0.6243 0.62351 0.65652 0.0
H151 H 0.61434 0.65365 0.70149 0.0
H152 H 0.48182 0.56718 0.69486 0.0
H153 H 0.49208 0.53705 0.64997 0.0
H154 H 0.65067 0.56343 0.68172 0.0
H155 H 0.65497 0.56634 0.73635 0.0
H156 H 0.52006 0.49558 0.73824 0.0
H157 H 0.51631 0.49253 0.68369 0.0
H158 H 0.66161 0.50009 0.63556 0.0
H159 H 0.66941 0.4492 0.66197 0.0
H160 H 0.53857 0.3876 0.6825 0.0
H161 H 0.53081 0.43764 0.65567 0.0
H162 H 0.66413 0.53188 0.57012 0.0
H163 H 0.68402 0.49355 0.53786 0.0
H164 H 0.5658 0.38567 0.55335 0.0
H165 H 0.54608 0.42453 0.5852 0.0
H166 H 0.63483 0.58902 0.5518 0.0
H167 H 0.6569 0.58199 0.50241 0.0
H168 H 0.54649 0.46377 0.49154 0.0
H169 H 0.52575 0.47046 0.54139 0.0
H170 H 0.56414 0.62197 0.6013 0.0
H171 H 0.50574 0.63143 0.58912 0.0
H172 H 0.43669 0.51109 0.55038 0.0
H173 H 0.49181 0.50008 0.56652 0.0
O174 O 0.62791 0.55371 0.78936 0.0
O175 O 0.55844 0.51806 0.78904 0.0
O176 O 0.67132 0.42988 0.51052 0.0
O177 O 0.61125 0.37344 0.51808 0.0
C178 C 0.56736 0.55178 0.63119 0.0
C179 C 0.58069 0.52805 0.64568 0.0
C180 C 0.59018 0.50316 0.62887 0.0
C181 C 0.59049 0.50491 0.59762 0.0
C182 C 0.57623 0.52791 0.58302 0.0
C183 C 0.56154 0.54909 0.59974 0.0
C184 C 0.5589 0.57807 0.65013 0.0
C185 C 0.59288 0.61232 0.664 0.0
C186 C 0.58722 0.6293 0.68977 0.0
C187 C 0.54752 0.61207 0.70193 0.0
C188 C 0.51289 0.58049 0.68614 0.0
C189 C 0.51854 0.56364 0.6603 0.0
C190 C 0.58321 0.52812 0.67883 0.0
C191 C 0.62215 0.54841 0.69402 0.0
C192 C 0.62447 0.5501 0.72519 0.0
C193 C 0.58783 0.53139 0.74167 0.0
C194 C 0.54887 0.51046 0.72626 0.0
C195 C 0.54662 0.50873 0.69512 0.0
C196 C 0.59575 0.47264 0.64402 0.0
C197 C 0.63469 0.47541 0.64561 0.0
C198 C 0.63905 0.44644 0.66058 0.0
C199 C 0.60463 0.41484 0.67441 0.0
C200 C 0.56566 0.412 0.67237 0.0
C201 C 0.56122 0.44049 0.65711 0.0
C202 C 0.6037 0.48096 0.57993 0.0
C203 C 0.6427 0.49993 0.56662 0.0
C204 C 0.65394 0.47797 0.5482 0.0
C205 C 0.62644 0.43653 0.54297 0.0
C206 C 0.58769 0.41752 0.55687 0.0
C207 C 0.57641 0.43957 0.57518 0.0
C208 C 0.57872 0.53031 0.55019 0.0
C209 C 0.61439 0.56245 0.53814 0.0
C210 C 0.62714 0.55819 0.50997 0.0
C211 C 0.60403 0.52181 0.49344 0.0
C212 C 0.56556 0.49171 0.50411 0.0
C213 C 0.55308 0.49586 0.53233 0.0
C214 C 0.53242 0.56 0.58537 0.0
C215 C 0.53638 0.59764 0.59018 0.0
C216 C 0.50303 0.60321 0.58277 0.0
C217 C 0.46563 0.57159 0.56952 0.0
C218 C 0.46406 0.53569 0.56165 0.0
C219 C 0.4964 0.52965 0.57016 0.0
C220 C 0.59033 0.53387 0.77476 0.0
C221 C 0.63787 0.41323 0.52291 0.0
H222 H 0.04713 0.42927 0.01705 0.0
H223 H 0.25543 0.56526 0.69432 0.0
H224 H 0.9596 0.44258 0.85099 0.0
H225 H 0.91963 0.42529 0.89623 0.0
H226 H 0.94156 0.32778 0.90934 0.0
H227 H 0.97995 0.34422 0.86307 0.0
H228 H 0.03506 0.47202 0.89449 0.0
H229 H 0.03738 0.46268 0.94812 0.0
H230 H 0.07733 0.378 0.9311 0.0
H231 H 0.07411 0.3871 0.87741 0.0
H232 H 0.12643 0.51404 0.87656 0.0
H233 H 0.19638 0.53876 0.89839 0.0
H234 H 0.20941 0.45629 0.84018 0.0
H235 H 0.13879 0.43021 0.82022 0.0
H236 H 0.13243 0.54401 0.80716 0.0
H237 H 0.19123 0.58759 0.77611 0.0
H238 H 0.1754 0.48304 0.72825 0.0
H239 H 0.11682 0.43988 0.75952 0.0
H240 H 0.0497 0.51498 0.77101 0.0
H241 H 0.07737 0.54607 0.72375 0.0
H242 H 0.0571 0.43316 0.68837 0.0
H243 H 0.03176 0.40303 0.73657 0.0
H244 H 0.94148 0.43268 0.79567 0.0
H245 H 0.87215 0.38497 0.77385 0.0
H246 H 0.9132 0.30184 0.75363 0.0
H247 H 0.98161 0.34904 0.77673 0.0
O248 O 0.04693 0.43286 0.99576 0.0
O249 O 0.06904 0.39076 0.98595 0.0
O250 O 0.24056 0.60151 0.73317 0.0
O251 O 0.23337 0.54872 0.70767 0.0
C252 C 0.0101 0.41552 0.83515 0.0
C253 C 0.05011 0.43399 0.84949 0.0
C254 C 0.08611 0.45597 0.83279 0.0
C255 C 0.08231 0.46287 0.80248 0.0
C256 C 0.04229 0.4456 0.78834 0.0
C257 C 0.00639 0.41996 0.80424 0.0
C258 C 0.97283 0.39479 0.85377 0.0
C259 C 0.95377 0.41608 0.86263 0.0
C260 C 0.93186 0.40677 0.88895 0.0
C261 C 0.92892 0.37618 0.90694 0.0
C262 C 0.94363 0.35175 0.89613 0.0
C263 C 0.9652 0.36084 0.86952 0.0
C264 C 0.05422 0.43008 0.88212 0.0
C265 C 0.04435 0.45151 0.90241 0.0
C266 C 0.04572 0.44613 0.93303 0.0
C267 C 0.05743 0.41951 0.9439 0.0
C268 C 0.06811 0.39867 0.92346 0.0
C269 C 0.06647 0.40391 0.89282 0.0
C270 C 0.12788 0.47062 0.8467 0.0
C271 C 0.14428 0.50093 0.86903 0.0
C272 C 0.18424 0.51507 0.88135 0.0
C273 C 0.20863 0.49958 0.87106 0.0
C274 C 0.19137 0.4684 0.84918 0.0
C275 C 0.15127 0.4539 0.8373 0.0
C276 C 0.12031 0.48888 0.78545 0.0
C277 C 0.14206 0.53062 0.79017 0.0
C278 C 0.17547 0.55541 0.77232 0.0
C279 C 0.18779 0.53879 0.74951 0.0
C280 C 0.1666 0.49683 0.74547 0.0
C281 C 0.13318 0.47211 0.76332 0.0
C282 C 0.0393 0.45693 0.75737 0.0
C283 C 0.04927 0.49642 0.75258 0.0
C284 C 0.06525 0.51423 0.72543 0.0
C285 C 0.0708 0.4925 0.7025 0.0
C286 C 0.05445 0.45109 0.70591 0.0
C287 C 0.03917 0.4335 0.7333 0.0
C288 C 0.96615 0.39395 0.78807 0.0
C289 C 0.93543 0.40428 0.78631 0.0
C290 C 0.89605 0.37713 0.77351 0.0
C291 C 0.88703 0.33942 0.7621 0.0
C292 C 0.91885 0.33028 0.76261 0.0
C293 C 0.95796 0.35724 0.77565 0.0
C294 C 0.05825 0.41343 0.97643 0.0
C295 C 0.22222 0.56502 0.72974 0.0
H296 H 0.36518 0.92318 0.80063 0.0
H297 H 0.39556 0.77469 0.10855 0.0
H298 H 0.41697 0.03864 0.94166 0.0
H299 H 0.44208 0.07936 0.8972 0.0
H300 H 0.56545 0.0991 0.91543 0.0
H301 H 0.53965 0.05655 0.95812 0.0
H302 H 0.36368 0.93943 0.93046 0.0
H303 H 0.35163 0.92769 0.87641 0.0
H304 H 0.48382 0.97574 0.86593 0.0
H305 H 0.49525 0.98664 0.91993 0.0
H306 H 0.35659 0.86377 0.97061 0.0
H307 H 0.35465 0.80477 0.94757 0.0
H308 H 0.48824 0.87583 0.9367 0.0
H309 H 0.48989 0.93337 0.96004 0.0
H310 H 0.36521 0.9134 0.04743 0.0
H311 H 0.34362 0.85847 0.08196 0.0
H312 H 0.4468 0.84566 0.05517 0.0
H313 H 0.46829 0.90083 0.02108 0.0
H314 H 0.42714 0.01409 0.06866 0.0
H315 H 0.44648 0.02042 0.12194 0.0
H316 H 0.52951 0.97679 0.10237 0.0
H317 H 0.51165 0.97286 0.04979 0.0
H318 H 0.46834 0.08324 0.02835 0.0
H319 H 0.52757 0.143 0.0534 0.0
H320 H 0.60782 0.09655 0.03315 0.0
H321 H 0.54889 0.0373 0.00963 0.0
O322 O 0.37058 0.92788 0.82194 0.0
O323 O 0.43887 0.95324 0.81778 0.0
O324 O 0.35042 0.80384 0.10776 0.0
O325 O 0.40313 0.7962 0.09486 0.0
C326 C 0.4591 0.01139 0.97416 0.0
C327 C 0.4374 0.9718 0.96186 0.0
C328 C 0.42669 0.93913 0.98034 0.0
C329 C 0.43164 0.94518 0.01155 0.0
C330 C 0.45335 0.98469 0.02386 0.0
C331 C 0.46931 0.01776 0.00501 0.0
C332 C 0.47665 0.04526 0.95358 0.0
C333 C 0.44974 0.05298 0.93656 0.0
C334 C 0.46405 0.07601 0.91111 0.0
C335 C 0.5055 0.09169 0.90255 0.0
C336 C 0.5331 0.08668 0.92113 0.0
C337 C 0.5187 0.06329 0.94617 0.0
C338 C 0.43038 0.96451 0.92903 0.0
C339 C 0.38995 0.94739 0.91642 0.0
C340 C 0.38319 0.94076 0.88556 0.0
C341 C 0.41681 0.951 0.86682 0.0
C342 C 0.45726 0.96771 0.87967 0.0
C343 C 0.46392 0.97417 0.9105 0.0
C344 C 0.42334 0.90266 0.96681 0.0
C345 C 0.38524 0.86623 0.96329 0.0
C346 C 0.38424 0.83281 0.9501 0.0
C347 C 0.42139 0.83565 0.9406 0.0
C348 C 0.45925 0.87237 0.9443 0.0
C349 C 0.46019 0.90539 0.95734 0.0
C350 C 0.41778 0.91058 0.03133 0.0
C351 C 0.38286 0.89843 0.04888 0.0
C352 C 0.37068 0.86714 0.06863 0.0
C353 C 0.3934 0.84754 0.07124 0.0
C354 C 0.42846 0.85991 0.05361 0.0
C355 C 0.44062 0.89123 0.03391 0.0
C356 C 0.4668 0.99147 0.05575 0.0
C357 C 0.44994 0.00654 0.0761 0.0
C358 C 0.46121 0.0103 0.10643 0.0
C359 C 0.48918 -0.00135 0.11671 0.0
C360 C 0.50828 0.98657 0.09561 0.0
C361 C 0.49736 0.98328 0.06548 0.0
C362 C 0.50472 0.05654 0.01666 0.0
C363 C 0.49894 0.08652 0.02913 0.0
C364 C 0.53266 0.12034 0.04357 0.0
C365 C 0.57232 0.12427 0.04575 0.0
C366 C 0.57762 0.09415 0.03275 0.0
C367 C 0.54417 0.06061 0.01868 0.0
C368 C 0.40959 0.94417 0.83404 0.0
C369 C 0.38088 0.81457 0.0924 0.0
H370 H 0.54596 0.50146 0.93582 0.0
H371 H 0.71003 0.47972 0.25386 0.0
H372 H 0.5122 0.56636 0.08607 0.0
H373 H 0.49094 0.57815 0.03734 0.0
H374 H 0.61316 0.6838 0.0292 0.0
H375 H 0.63418 0.6719 0.07831 0.0
H376 H 0.54359 0.50884 0.066 0.0
H377 H 0.53453 0.49431 0.01218 0.0
H378 H 0.64859 0.60702 -0.00178 0.0
H379 H 0.65738 0.62097 0.05215 0.0
H380 H 0.5868 0.47578 0.11525 0.0
H381 H 0.62092 0.43948 0.09881 0.0
H382 H 0.72633 0.55078 0.07045 0.0
H383 H 0.69254 0.58689 0.08752 0.0
H384 H 0.56524 0.49171 0.17307 0.0
H385 H 0.58376 0.45547 0.20826 0.0
H386 H 0.71457 0.5448 0.20004 0.0
H387 H 0.6956 0.58032 0.16438 0.0
H388 H 0.53368 0.55063 0.18893 0.0
H389 H 0.53054 0.52639 0.2392 0.0
H390 H 0.66538 0.6002 0.24808 0.0
H391 H 0.66743 0.62589 0.19907 0.0
H392 H 0.51925 0.60684 0.13802 0.0
H393 H 0.50661 0.65749 0.15985 0.0
H394 H 0.6363 0.72764 0.18976 0.0
H395 H 0.64891 0.67774 0.16665 0.0
O396 O 0.55071 0.50735 0.95707 0.0
O397 O 0.60997 0.56522 0.95108 0.0
O398 O 0.63536 0.44362 0.23812 0.0
O399 O 0.70199 0.4929 0.23937 0.0
C400 C 0.59171 0.60115 0.10693 0.0
C401 C 0.60472 0.57541 0.09538 0.0
C402 C 0.619 0.55672 0.11481 0.0
C403 C 0.61748 0.56124 0.14583 0.0
C404 C 0.60456 0.587 0.15747 0.0
C405 C 0.59311 0.60814 0.13804 0.0
C406 C 0.57471 0.61824 0.08565 0.0
C407 C 0.53363 0.59329 0.07455 0.0
C408 C 0.52179 0.59969 0.04652 0.0
C409 C 0.55083 0.63127 0.02928 0.0
C410 C 0.59027 0.65919 0.04205 0.0
C411 C 0.60217 0.65267 0.07019 0.0
C412 C 0.60099 0.566 0.06285 0.0
C413 C 0.56673 0.53016 0.05125 0.0
C414 C 0.56159 0.52202 0.02052 0.0
C415 C 0.59077 0.54958 0.00087 0.0
C416 C 0.62552 0.58519 0.01271 0.0
C417 C 0.63063 0.59325 0.04347 0.0
C418 C 0.63739 0.5339 0.10268 0.0
C419 C 0.61721 0.4922 0.10544 0.0
C420 C 0.63669 0.47162 0.09613 0.0
C421 C 0.67624 0.49246 0.08348 0.0
C422 C 0.6957 0.53403 0.07991 0.0
C423 C 0.6765 0.55462 0.08961 0.0
C424 C 0.6291 0.53861 0.16628 0.0
C425 C 0.59788 0.50322 0.17878 0.0
C426 C 0.60855 0.48265 0.19889 0.0
C427 C 0.65065 0.49741 0.20713 0.0
C428 C 0.68186 0.53274 0.1943 0.0
C429 C 0.67116 0.55301 0.17387 0.0
C430 C 0.60092 0.58904 0.19016 0.0
C431 C 0.56217 0.56341 0.20259 0.0
C432 C 0.56058 0.549 0.23116 0.0
C433 C 0.59784 0.55954 0.2472 0.0
C434 C 0.63588 0.59078 0.23657 0.0
C435 C 0.63728 0.60576 0.20832 0.0
C436 C 0.58506 0.63887 0.15048 0.0
C437 C 0.54498 0.63343 0.14892 0.0
C438 C 0.53775 0.66214 0.1618 0.0
C439 C 0.57045 0.6966 0.1767 0.0
C440 C 0.61056 0.70178 0.17817 0.0
C441 C 0.61778 0.67322 0.16512 0.0
C442 C 0.5846 0.54131 0.96818 0.0
C443 C 0.66204 0.47623 0.22911 0.0
Mg444 Mg 0.65457 0.41442 0.34102 0.0
O445 O 0.65622 0.45043 0.38257 0.0
O446 O 0.69539 0.51586 0.37334 0.0
Mg447 Mg 0.72259 0.52163 0.32745 0.0
C448 C 0.67156 0.48733 0.39018 0.0
C449 C 0.59586 0.3247 0.35773 0.0
O450 O 0.57901 0.32394 0.33155 0.0
O451 O 0.72011 0.42695 0.35139 0.0
O452 O 0.75971 0.49252 0.3431 0.0
O453 O 0.60014 0.41768 0.32357 0.0
O454 O 0.66632 0.46318 0.31568 0.0
C455 C 0.75566 0.45921 0.35066 0.0
C456 C 0.62742 0.45246 0.31378 0.0
O457 O 0.62698 0.35749 0.3678 0.0
Mg458 Mg 0.26685 0.62681 0.59041 0.0
O459 O 0.22359 0.59542 0.54887 0.0
O460 O 0.19125 0.52938 0.55591 0.0
Mg461 Mg 0.21518 0.51802 0.59965 0.0
C462 C 0.19727 0.55914 0.54053 0.0
C463 C 0.30137 0.71722 0.58017 0.0
O464 O 0.28234 0.71207 0.60546 0.0
O465 O 0.3155 0.6118 0.57441 0.0
O466 O 0.28202 0.54628 0.58322 0.0
O467 O 0.21237 0.62352 0.61424 0.0
O468 O 0.22935 0.57716 0.61591 0.0
C469 C 0.31433 0.57839 0.57496 0.0
C470 C 0.20407 0.58874 0.62314 0.0
O471 O 0.29993 0.68714 0.56729 0.0
Mg472 Mg 0.62427 0.22483 0.75803 0.0
O473 O 0.59322 0.17524 0.72169 0.0
O474 O 0.60282 0.12543 0.73506 0.0
Mg475 Mg 0.63636 0.14178 0.78099 0.0
C476 C 0.58863 0.14074 0.71679 0.0
C477 C 0.6144 0.29388 0.74032 0.0
O478 O 0.60625 0.28998 0.76884 0.0
O479 O 0.68874 0.24188 0.74335 0.0
O480 O 0.69708 0.19374 0.76248 0.0
O481 O 0.56512 0.19913 0.78265 0.0
O482 O 0.61319 0.18276 0.78961 0.0
C483 C 0.71138 0.22694 0.74918 0.0
C484 C 0.57747 0.17775 0.79626 0.0
O485 O 0.62316 0.26992 0.72757 0.0
Mg486 Mg 0.4677 0.66068 0.85468 0.0
O487 O 0.5026 0.65383 0.89442 0.0
O488 O 0.49233 0.59212 0.88991 0.0
Mg489 Mg 0.46035 0.56391 0.84468 0.0
C490 C 0.50627 0.62528 0.90451 0.0
C491 C 0.43307 0.71249 0.87641 0.0
O492 O 0.40322 0.68731 0.85758 0.0
O493 O 0.4068 0.61547 0.87444 0.0
O494 O 0.39959 0.55601 0.86305 0.0
O495 O 0.52349 0.68825 0.82558 0.0
O496 O 0.47795 0.62343 0.82815 0.0
C497 C 0.38556 0.57724 0.87386 0.0
C498 C 0.51065 0.65185 0.81631 0.0
O499 O 0.46586 0.71057 0.87966 0.0
Mg500 Mg 0.79468 0.35359 0.05154 0.0
O501 O 0.83263 0.36514 0.09516 0.0
O502 O 0.85019 0.31848 0.0975 0.0
Mg503 Mg 0.82944 0.28214 0.05312 0.0
C504 C 0.84966 0.34847 0.10886 0.0
C505 C 0.7621 0.41067 0.0503 0.0
O506 O 0.77208 0.41002 0.02246 0.0
O507 O 0.73933 0.29746 0.06854 0.0
O508 O 0.76005 0.253 0.06487 0.0
O509 O 0.85144 0.39534 0.0275 0.0
O510 O 0.82606 0.33006 0.02946 0.0
C511 C 0.73216 0.2618 0.07022 0.0
C512 C 0.85361 0.36432 0.01947 0.0
O513 O 0.76911 0.39084 0.06929 0.0
Mg514 Mg 0.45707 0.83313 0.2193 0.0
O515 O 0.47169 0.85006 0.26873 0.0
O516 O 0.53852 0.89949 0.2727 0.0
Mg517 Mg 0.56535 0.91417 0.22593 0.0
C518 C 0.50362 0.8756 0.28441 0.0
C519 C 0.39332 0.74689 0.24694 0.0
O520 O 0.39486 0.7735 0.22878 0.0
O521 O 0.49357 0.80201 0.21974 0.0
O522 O 0.55998 0.85234 0.21934 0.0
O523 O 0.43683 0.87672 0.21504 0.0
O524 O 0.50135 0.89086 0.20762 0.0
C525 C 0.53244 0.81486 0.21829 0.0
C526 C 0.475 0.90289 0.20873 0.0
O527 O 0.39578 0.7734 0.22935 0.0
C528 C 0.28307 0.66058 0.23159 0.0
C529 C 0.27583 0.6387 0.25763 0.0
H530 H 0.32573 0.71198 0.20761 0.0
C531 C 0.30886 0.65069 0.27872 0.0
H532 H 0.25852 0.65157 0.21464 0.0
C533 C 0.34772 0.68523 0.27452 0.0
C534 C 0.35386 0.70842 0.24946 0.0
H535 H 0.30412 0.63456 0.29912 0.0
H536 H 0.37235 0.69476 0.29149 0.0
C537 C 0.32158 0.69519 0.22759 0.0
C538 C 0.53172 0.21575 0.37919 0.0
C539 C 0.55067 0.21628 0.40673 0.0
H540 H 0.53108 0.24943 0.34213 0.0
C541 C 0.58401 0.25297 0.41832 0.0
H542 H 0.50628 0.18792 0.36947 0.0
C543 C 0.59836 0.28822 0.40259 0.0
C544 C 0.57974 0.28759 0.37487 0.0
H545 H 0.5989 0.25451 0.43968 0.0
H546 H 0.62424 0.31592 0.41212 0.0
C547 C 0.5461 0.251 0.36343 0.0
C548 C 0.42785 0.6099 0.56252 0.0
C549 C 0.42675 0.57364 0.56728 0.0
H550 H 0.39323 0.64007 0.56087 0.0
C551 C 0.3878 0.53895 0.57206 0.0
H552 H 0.45708 0.63717 0.55844 0.0
C553 C 0.35141 0.54044 0.57275 0.0
C554 C 0.35258 0.57683 0.56934 0.0
H555 H 0.38527 0.51058 0.57668 0.0
H556 H 0.32249 0.51304 0.57729 0.0
C557 C 0.39115 0.6115 0.56362 0.0
C558 C 0.81726 0.31883 0.73785 0.0
C559 C 0.84355 0.30833 0.75275 0.0
H560 H 0.7547 0.30091 0.72426 0.0
C561 C 0.82674 0.26849 0.76155 0.0
H562 H 0.82945 0.349 0.73014 0.0
C563 C 0.78403 0.24076 0.75786 0.0
C564 C 0.75708 0.25233 0.74552 0.0
H565 H 0.84597 0.25932 0.77322 0.0
H566 H 0.77185 0.21111 0.76664 0.0
C567 C 0.77445 0.2911 0.73425 0.0
C568 C 0.45374 0.79388 0.93314 0.0
C569 C 0.42145 0.8012 0.92617 0.0
H570 H 0.48291 0.76044 0.92278 0.0
C571 C 0.39154 0.77754 0.90376 0.0
H572 H 0.47681 0.81114 0.9507 0.0
C573 C 0.39489 0.7482 0.88782 0.0
C574 C 0.42828 0.74217 0.89398 0.0
H575 H 0.3665 0.78271 0.89777 0.0
H576 H 0.3719 0.73096 0.87021 0.0
C577 C 0.45724 0.76484 0.91714 0.0
C578 C 0.70091 0.44529 0.0947 0.0
C579 C 0.69784 0.47122 0.07482 0.0
H580 H 0.72423 0.4062 0.10268 0.0
C581 C 0.71643 0.47753 0.047 0.0
H582 H 0.68723 0.44033 0.11643 0.0
C583 C 0.73752 0.45798 0.03906 0.0
C584 C 0.74076 0.43213 0.05897 0.0
H585 H 0.71429 0.49728 0.03126 0.0
H586 H 0.7513 0.46317 0.01736 0.0
C587 C 0.72238 0.42607 0.08691 0.0
C588 C 0.34697 0.82854 0.56949 0.0
C589 C 0.37365 0.83615 0.54563 0.0
H590 H 0.3034 0.78525 0.59904 0.0
C591 C 0.37602 0.80414 0.53291 0.0
H592 H 0.34472 0.85261 0.57994 0.0
C593 C 0.35211 0.76537 0.54376 0.0
C594 C 0.32565 0.75786 0.56777 0.0
H595 H 0.39595 0.80898 0.51429 0.0
H596 H 0.35466 0.74137 0.53349 0.0
C597 C 0.32339 0.78992 0.58049 0.0
C598 C 0.59353 0.37595 0.72037 0.0
C599 C 0.60901 0.38508 0.69151 0.0
H600 H 0.58334 0.34013 0.75845 0.0
C601 C 0.62721 0.36469 0.6789 0.0
H602 H 0.57967 0.39156 0.73062 0.0
C603 C 0.62897 0.33489 0.69471 0.0
C604 C 0.61309 0.3255 0.72352 0.0
H605 H 0.63914 0.37114 0.65659 0.0
H606 H 0.64271 0.31923 0.68438 0.0
C607 C 0.59574 0.34661 0.73628 0.0
C608 C 0.27301 0.4962 0.88141 0.0
C609 C 0.25347 0.51888 0.88 0.0
H610 H 0.33065 0.49699 0.88075 0.0
C611 C 0.27826 0.5609 0.88277 0.0
H612 H 0.25472 0.46372 0.88032 0.0
C613 C 0.32167 0.57989 0.88374 0.0
C614 C 0.34113 0.55727 0.88143 0.0
H615 H 0.26445 0.57943 0.8817 0.0
H616 H 0.33972 0.61238 0.8838 0.0
C617 C 0.3165 0.51524 0.88188 0.0
C618 C 0.64041 0.15689 0.07499 0.0
C619 C 0.60922 0.1604 0.05966 0.0
H620 H 0.70431 0.18666 0.09052 0.0
C621 C 0.61653 0.19889 0.05409 0.0
H622 H 0.63524 0.12773 0.08059 0.0
C623 C 0.65579 0.23277 0.06065 0.0
C624 C 0.6885 0.22862 0.07243 0.0
H625 H 0.59322 0.20272 0.04242 0.0
H626 H 0.66149 0.26174 0.05389 0.0
C627 C 0.67986 0.19063 0.08095 0.0
C628 C 0.52527 0.71544 0.20465 0.0
C629 C 0.56277 0.7272 0.19027 0.0
H630 H 0.48659 0.73393 0.22525 0.0
C631 C 0.59222 0.7684 0.1881 0.0
H632 H 0.50238 0.684 0.20739 0.0
C633 C 0.58348 0.79714 0.19884 0.0
C634 C 0.54497 0.78523 0.21172 0.0
H635 H 0.62132 0.77852 0.17698 0.0
H636 H 0.60605 0.82857 0.19569 0.0
C637 C 0.5164 0.7441 0.21516 0.0
C638 C 0.86784 0.49179 0.36893 0.0
C639 C 0.87157 0.46163 0.35408 0.0
H640 H 0.8282 0.51487 0.37912 0.0
C641 C 0.83506 0.42786 0.3419 0.0
H642 H 0.89479 0.51758 0.37955 0.0
C643 C 0.79652 0.42566 0.34282 0.0
C644 C 0.79389 0.45756 0.35531 0.0
H645 H 0.83644 0.40415 0.33004 0.0
H646 H 0.76939 0.40031 0.33191 0.0
C647 C 0.82961 0.49012 0.36903 0.0
C648 C 0.15817 0.57164 0.46497 0.0
C649 C 0.12089 0.53427 0.46037 0.0
H650 H 0.21157 0.60885 0.49373 0.0
C651 C 0.10883 0.5057 0.48265 0.0
H652 H 0.16899 0.5941 0.44804 0.0
C653 C 0.13377 0.51385 0.50848 0.0
C654 C 0.17123 0.55097 0.51292 0.0
H655 H 0.08013 0.47685 0.48012 0.0
H656 H 0.12348 0.491 0.52509 0.0
C657 C 0.18289 0.57999 0.49104 0.0
C658 C 0.53902 0.05797 0.65676 0.0
C659 C 0.52353 0.07423 0.63604 0.0
H660 H 0.5716 0.06604 0.69846 0.0
C661 C 0.52879 0.1121 0.64239 0.0
H662 H 0.53531 0.02881 0.65251 0.0
C663 C 0.54963 0.13351 0.66864 0.0
C664 C 0.56576 0.11759 0.6892 0.0
H665 H 0.518 0.12584 0.62658 0.0
H666 H 0.55357 0.16282 0.67258 0.0
C667 C 0.55983 0.07937 0.68307 0.0
C668 C 0.52056 0.59334 0.75297 0.0
C669 C 0.54273 0.62349 0.73251 0.0
H670 H 0.49434 0.57881 0.79591 0.0
C671 C 0.56 0.66385 0.7416 0.0
H672 H 0.50814 0.56205 0.74685 0.0
C673 C 0.55239 0.67362 0.77003 0.0
C674 C 0.52762 0.64312 0.78972 0.0
H675 H 0.57773 0.68765 0.7263 0.0
H676 H 0.56387 0.70479 0.77589 0.0
C677 C 0.51314 0.60303 0.78125 0.0
C678 C 0.88699 0.33465 0.94964 0.0
C679 C 0.91381 0.37238 0.93777 0.0
H680 H 0.8475 0.3024 0.98546 0.0
C681 C 0.92591 0.40708 0.95545 0.0
H682 H 0.87744 0.30737 0.93669 0.0
C683 C 0.90883 0.4043 0.98331 0.0
C684 C 0.87954 0.36674 0.99422 0.0
H685 H 0.9478 0.43658 0.9474 0.0
H686 H 0.91708 0.43171 0.99563 0.0
C687 C 0.87005 0.33184 0.97768 0.0
C688 C 0.4551 0.97161 0.16494 0.0
C689 C 0.4919 0.99057 0.14869 0.0
H690 H 0.42137 0.92939 0.19826 0.0
C691 C 0.52758 0.99128 0.16034 0.0
H692 H 0.4271 0.9709 0.15721 0.0
C693 C 0.52384 0.96622 0.18352 0.0
C694 C 0.48467 0.94119 0.19572 0.0
H695 H 0.55705 0.00727 0.14923 0.0
H696 H 0.55031 0.96315 0.18939 0.0
C697 C 0.45167 0.94734 0.18853 0.0
C698 C 0.57153 0.49063 0.26672 0.0
C699 C 0.59854 0.53257 0.27015 0.0
H700 H 0.55965 0.43242 0.27806 0.0
C701 C 0.63101 0.54735 0.29201 0.0
H702 H 0.54633 0.47772 0.25004 0.0
C703 C 0.63931 0.52112 0.30728 0.0
C704 C 0.61467 0.47959 0.30164 0.0
H705 H 0.65153 0.5793 0.29616 0.0
H706 H 0.66567 0.53351 0.32292 0.0
C707 C 0.57935 0.46443 0.28254 0.0
C708 C 0.45266 0.868 0.35809 0.0
C709 C 0.48475 0.90143 0.37412 0.0
H710 H 0.43357 0.83304 0.3173 0.0
C711 C 0.52447 0.92307 0.36175 0.0
H712 H 0.42187 0.85045 0.36717 0.0
C713 C 0.53132 0.91301 0.33333 0.0
C714 C 0.49852 0.88122 0.31646 0.0
H715 H 0.54978 0.94939 0.37323 0.0
H716 H 0.56179 0.93158 0.32403 0.0
C717 C 0.45948 0.85795 0.32956 0.0
C718 C 0.64479 0.54336 0.44654 0.0
C719 C 0.62208 0.51349 0.46711 0.0
H720 H 0.67871 0.55872 0.40631 0.0
C721 C 0.61814 0.47571 0.46316 0.0
H722 H 0.64837 0.57272 0.44895 0.0
C723 C 0.63537 0.46759 0.43871 0.0
C724 C 0.65731 0.49717 0.41778 0.0
H725 H 0.6019 0.45237 0.47908 0.0
H726 H 0.63115 0.43798 0.43609 0.0
C727 C 0.66231 0.53533 0.42217 0.0
C728 C 0.1297 0.50341 0.67076 0.0
C729 C 0.10053 0.51431 0.67848 0.0
H730 H 0.18505 0.5184 0.64803 0.0
C731 C 0.10415 0.54901 0.66612 0.0
H732 H 0.12887 0.47766 0.68035 0.0
C733 C 0.13709 0.57289 0.6474 0.0
C734 C 0.16697 0.56249 0.64071 0.0
H735 H 0.08216 0.55824 0.6715 0.0
H736 H 0.13969 0.5999 0.63877 0.0
C737 C 0.16237 0.52713 0.65223 0.0
C738 C 0.54491 0.10168 0.85614 0.0
C739 C 0.51962 0.11064 0.8734 0.0
H740 H 0.58253 0.11547 0.818 0.0
C741 C 0.50914 0.13826 0.86292 0.0
H742 H 0.5523 0.07944 0.86309 0.0
C743 C 0.52593 0.15843 0.83658 0.0
C744 C 0.5536 0.15141 0.82055 0.0
H745 H 0.48951 0.14556 0.87569 0.0
H746 H 0.51904 0.18102 0.82969 0.0
C747 C 0.56196 0.12206 0.83013 0.0
C748 C 0.54862 0.66602 0.98304 0.0
C749 C 0.54194 0.63125 -0.00301 0.0
H750 H 0.54258 0.69156 0.94264 0.0
C751 C 0.5271 0.59574 0.97977 0.0
H752 H 0.56042 0.69384 0.99583 0.0
C753 C 0.51767 0.5945 0.94943 0.0
C754 C 0.52232 0.62866 0.93558 0.0
H755 H 0.52249 0.56869 0.98986 0.0
H756 H 0.50539 0.56627 0.93711 0.0
C757 C 0.53855 0.66467 0.95262 0.0
C758 C 0.90714 0.42142 0.17396 0.0
C759 C 0.91288 0.39728 0.19427 0.0
H760 H 0.8825 0.42493 0.13132 0.0
C761 C 0.89567 0.35634 0.1866 0.0
H762 H 0.92048 0.45318 0.1786 0.0
C763 C 0.87499 0.34049 0.15899 0.0
C764 C 0.87008 0.36487 0.13859 0.0
H765 H 0.89843 0.33644 0.2018 0.0
H766 H 0.86279 0.30904 0.15363 0.0
C767 C 0.88565 0.40531 0.14662 0.0
loop_
_geom_bond_atom_site_label_1
_geom_bond_atom_site_label_2
_geom_bond_distance
_geom_bond_site_symmetry_2
_ccdc_geom_bond_type
H0 O26 0.856 . S
H1 O29 0.854 . S
H2 C37 0.930 1_455 S
H3 C38 0.930 . S
H4 C40 0.930 . S
H5 C41 0.930 . S
H6 C43 0.931 . S
H7 C44 0.930 . S
H8 C46 0.930 . S
H9 C47 0.929 . S
H10 C49 0.930 . S
H11 C50 0.931 . S
H12 C52 0.930 . S
H13 C53 0.929 . S
H14 C55 0.931 . S
H15 C56 0.930 . S
H16 C58 0.930 . S
H17 C59 0.932 . S
H18 C61 0.930 . S
H19 C62 0.929 . S
H20 C64 0.931 . S
H21 C65 0.930 . S
H22 C67 0.929 . S
H23 C68 0.931 . S
H24 C70 0.930 . S
H25 C71 0.929 . S
O26 H0 0.856 . S
O26 C72 1.300 . S
O27 C72 1.209 . S
O28 C73 1.199 . S
O29 H1 0.854 . S
O29 C73 1.297 . S
C30 C31 1.404 . S
C30 C35 1.397 . S
C30 C36 1.489 1_455 S
C31 C30 1.404 . S
C31 C32 1.396 . S
C31 C42 1.492 . S
C32 C31 1.396 . S
C32 C33 1.397 . S
C32 C48 1.509 . S
C33 C32 1.397 . S
C33 C34 1.412 . S
C33 C54 1.485 . S
C34 C33 1.412 . S
C34 C35 1.388 . S
C34 C60 1.490 . S
C35 C30 1.397 . S
C35 C34 1.388 . S
C35 C66 1.519 1_455 S
C36 C30 1.489 1_655 S
C36 C37 1.362 . S
C36 C41 1.394 . S
C37 H2 0.930 1_655 S
C37 C36 1.362 . S
C37 C38 1.372 . S
C38 H3 0.930 . S
C38 C37 1.372 . S
C38 C39 1.383 . S
C39 C38 1.383 . S
C39 C40 1.395 . S
C40 H4 0.930 . S
C40 C39 1.395 . S
C40 C41 1.362 . S
C41 H5 0.930 . S
C41 C36 1.394 . S
C41 C40 1.362 . S
C42 C31 1.492 . S
C42 C43 1.377 . S
C42 C47 1.397 . S
C43 H6 0.931 . S
C43 C42 1.377 . S
C43 C44 1.376 . S
C44 H7 0.930 . S
C44 C43 1.376 . S
C44 C45 1.376 . S
C45 C44 1.376 . S
C45 C46 1.378 . S
C45 C72 1.486 . S
C46 H8 0.930 . S
C46 C45 1.378 . S
C46 C47 1.376 . S
C47 H9 0.929 . S
C47 C42 1.397 . S
C47 C46 1.376 . S
C48 C32 1.509 . S
C48 C49 1.391 . S
C48 C53 1.386 . S
C49 H10 0.930 . S
C49 C48 1.391 . S
C49 C50 1.375 . S
C50 H11 0.931 . S
C50 C49 1.375 . S
C50 C51 1.375 . S
C51 C50 1.375 . S
C51 C52 1.361 . S
C52 H12 0.930 . S
C52 C51 1.361 . S
C52 C53 1.399 . S
C53 H13 0.929 . S
C53 C48 1.386 . S
C53 C52 1.399 . S
C54 C33 1.485 . S
C54 C55 1.394 . S
C54 C59 1.360 . S
C55 H14 0.931 . S
C55 C54 1.394 . S
C55 C56 1.372 . S
C56 H15 0.930 . S
C56 C55 1.372 . S
C56 C57 1.397 . S
C57 C56 1.397 . S
C57 C58 1.390 . S
C57 C73 1.476 . S
C58 H16 0.930 . S
C58 C57 1.390 . S
C58 C59 1.366 . S
C59 H17 0.932 . S
C59 C54 1.360 . S
C59 C58 1.366 . S
C60 C34 1.490 . S
C60 C61 1.380 . S
C60 C65 1.386 . S
C61 H18 0.930 . S
C61 C60 1.380 . S
C61 C62 1.381 . S
C62 H19 0.929 . S
C62 C61 1.381 . S
C62 C63 1.371 . S
C63 C62 1.371 . S
C63 C64 1.380 . S
C64 H20 0.931 . S
C64 C63 1.380 . S
C64 C65 1.387 . S
C65 H21 0.930 . S
C65 C60 1.386 . S
C65 C64 1.387 . S
C66 C35 1.519 1_655 S
C66 C67 1.377 . S
C66 C71 1.361 . S
C67 H22 0.929 . S
C67 C66 1.377 . S
C67 C68 1.386 . S
C68 H23 0.931 . S
C68 C67 1.386 . S
C68 C69 1.363 . S
C69 C68 1.363 . S
C69 C70 1.385 . S
C70 H24 0.930 . S
C70 C69 1.385 . S
C70 C71 1.396 . S
C71 H25 0.929 . S
C71 C66 1.361 . S
C71 C70 1.396 . S
C72 O26 1.300 . S
C72 O27 1.209 . S
C72 C45 1.486 . S
C73 O28 1.199 . S
C73 O29 1.297 . S
C73 C57 1.476 . S
H74 O100 0.856 . S
H75 O103 0.854 . S
H76 C111 0.930 1_545 S
H77 C112 0.930 . S
H78 C114 0.930 . S
H79 C115 0.930 . S
H80 C117 0.931 . S
H81 C118 0.930 . S
H82 C120 0.930 . S
H83 C121 0.929 . S
H84 C123 0.930 . S
H85 C124 0.931 . S
H86 C126 0.930 . S
H87 C127 0.929 . S
H88 C129 0.931 . S
H89 C130 0.930 . S
H90 C132 0.930 . S
H91 C133 0.932 . S
H92 C135 0.930 . S
H93 C136 0.929 . S
H94 C138 0.931 . S
H95 C139 0.930 . S
H96 C141 0.929 . S
H97 C142 0.931 . S
H98 C144 0.930 . S
H99 C145 0.929 . S
O100 H74 0.856 . S
O100 C146 1.300 . S
O101 C146 1.209 . S
O102 C147 1.199 . S
O103 H75 0.854 . S
O103 C147 1.297 . S
C104 C105 1.404 . S
C104 C109 1.397 . S
C104 C110 1.492 1_545 S
C105 C104 1.404 . S
C105 C106 1.396 . S
C105 C116 1.492 . S
C106 C105 1.396 . S
C106 C107 1.397 . S
C106 C122 1.509 . S
C107 C106 1.397 . S
C107 C108 1.412 . S
C107 C128 1.485 . S
C108 C107 1.412 . S
C108 C109 1.388 . S
C108 C134 1.490 . S
C109 C104 1.397 . S
C109 C108 1.388 . S
C109 C140 1.519 1_545 S
C110 C104 1.492 1_565 S
C110 C111 1.363 . S
C110 C115 1.390 . S
C111 H76 0.930 1_565 S
C111 C110 1.363 . S
C111 C112 1.372 . S
C112 H77 0.930 . S
C112 C111 1.372 . S
C112 C113 1.383 . S
C113 C112 1.383 . S
C113 C114 1.395 . S
C114 H78 0.930 . S
C114 C113 1.395 . S
C114 C115 1.362 . S
C115 H79 0.930 . S
C115 C110 1.390 . S
C115 C114 1.362 . S
C116 C105 1.492 . S
C116 C117 1.377 . S
C116 C121 1.397 . S
C117 H80 0.931 . S
C117 C116 1.377 . S
C117 C118 1.376 . S
C118 H81 0.930 . S
C118 C117 1.376 . S
C118 C119 1.376 . S
C119 C118 1.376 . S
C119 C120 1.378 . S
C119 C146 1.486 . S
C120 H82 0.930 . S
C120 C119 1.378 . S
C120 C121 1.376 . S
C121 H83 0.929 . S
C121 C116 1.397 . S
C121 C120 1.376 . S
C122 C106 1.509 . S
C122 C123 1.391 . S
C122 C127 1.386 . S
C123 H84 0.930 . S
C123 C122 1.391 . S
C123 C124 1.375 . S
C124 H85 0.931 . S
C124 C123 1.375 . S
C124 C125 1.375 . S
C125 C124 1.375 . S
C125 C126 1.361 . S
C126 H86 0.930 . S
C126 C125 1.361 . S
C126 C127 1.399 . S
C127 H87 0.929 . S
C127 C122 1.386 . S
C127 C126 1.399 . S
C128 C107 1.485 . S
C128 C129 1.394 . S
C128 C133 1.360 . S
C129 H88 0.931 . S
C129 C128 1.394 . S
C129 C130 1.372 . S
C130 H89 0.930 . S
C130 C129 1.372 . S
C130 C131 1.397 . S
C131 C130 1.397 . S
C131 C132 1.390 . S
C131 C147 1.476 . S
C132 H90 0.930 . S
C132 C131 1.390 . S
C132 C133 1.366 . S
C133 H91 0.932 . S
C133 C128 1.360 . S
C133 C132 1.366 . S
C134 C108 1.490 . S
C134 C135 1.380 . S
C134 C139 1.386 . S
C135 H92 0.930 . S
C135 C134 1.380 . S
C135 C136 1.381 . S
C136 H93 0.929 . S
C136 C135 1.381 . S
C136 C137 1.371 . S
C137 C136 1.371 . S
C137 C138 1.380 . S
C138 H94 0.931 . S
C138 C137 1.380 . S
C138 C139 1.387 . S
C139 H95 0.930 . S
C139 C134 1.386 . S
C139 C138 1.387 . S
C140 C109 1.519 1_565 S
C140 C141 1.377 . S
C140 C145 1.361 . S
C141 H96 0.929 . S
C141 C140 1.377 . S
C141 C142 1.386 . S
C142 H97 0.931 . S
C142 C141 1.386 . S
C142 C143 1.363 . S
C143 C142 1.363 . S
C143 C144 1.385 . S
C144 H98 0.930 . S
C144 C143 1.385 . S
C144 C145 1.396 . S
C145 H99 0.929 . S
C145 C140 1.361 . S
C145 C144 1.396 . S
C146 O100 1.300 . S
C146 O101 1.209 . S
C146 C119 1.486 . S
C147 O102 1.199 . S
C147 O103 1.297 . S
C147 C131 1.476 . S
H148 O174 0.856 . S
H149 O177 0.854 . S
H150 C185 0.930 . S
H151 C186 0.930 . S
H152 C188 0.930 . S
H153 C189 0.930 . S
H154 C191 0.931 . S
H155 C192 0.930 . S
H156 C194 0.930 . S
H157 C195 0.929 . S
H158 C197 0.930 . S
H159 C198 0.931 . S
H160 C200 0.930 . S
H161 C201 0.929 . S
H162 C203 0.931 . S
H163 C204 0.930 . S
H164 C206 0.930 . S
H165 C207 0.932 . S
H166 C209 0.930 . S
H167 C210 0.929 . S
H168 C212 0.931 . S
H169 C213 0.930 . S
H170 C215 0.929 . S
H171 C216 0.931 . S
H172 C218 0.930 . S
H173 C219 0.929 . S
O174 H148 0.856 . S
O174 C220 1.300 . S
O175 C220 1.209 . S
O176 C221 1.199 . S
O177 H149 0.854 . S
O177 C221 1.297 . S
C178 C179 1.404 . S
C178 C183 1.397 . S
C178 C184 1.492 . S
C179 C178 1.404 . S
C179 C180 1.396 . S
C179 C190 1.492 . S
C180 C179 1.396 . S
C180 C181 1.397 . S
C180 C196 1.509 . S
C181 C180 1.397 . S
C181 C182 1.412 . S
C181 C202 1.485 . S
C182 C181 1.412 . S
C182 C183 1.388 . S
C182 C208 1.490 . S
C183 C178 1.397 . S
C183 C182 1.388 . S
C183 C214 1.519 . S
C184 C178 1.492 . S
C184 C185 1.363 . S
C184 C189 1.390 . S
C185 H150 0.930 . S
C185 C184 1.363 . S
C185 C186 1.372 . S
C186 H151 0.930 . S
C186 C185 1.372 . S
C186 C187 1.383 . S
C187 C186 1.383 . S
C187 C188 1.395 . S
C188 H152 0.930 . S
C188 C187 1.395 . S
C188 C189 1.362 . S
C189 H153 0.930 . S
C189 C184 1.390 . S
C189 C188 1.362 . S
C190 C179 1.492 . S
C190 C191 1.377 . S
C190 C195 1.397 . S
C191 H154 0.931 . S
C191 C190 1.377 . S
C191 C192 1.376 . S
C192 H155 0.930 . S
C192 C191 1.376 . S
C192 C193 1.376 . S
C193 C192 1.376 . S
C193 C194 1.378 . S
C193 C220 1.486 . S
C194 H156 0.930 . S
C194 C193 1.378 . S
C194 C195 1.376 . S
C195 H157 0.929 . S
C195 C190 1.397 . S
C195 C194 1.376 . S
C196 C180 1.509 . S
C196 C197 1.391 . S
C196 C201 1.386 . S
C197 H158 0.930 . S
C197 C196 1.391 . S
C197 C198 1.375 . S
C198 H159 0.931 . S
C198 C197 1.375 . S
C198 C199 1.375 . S
C199 C198 1.375 . S
C199 C200 1.361 . S
C200 H160 0.930 . S
C200 C199 1.361 . S
C200 C201 1.399 . S
C201 H161 0.929 . S
C201 C196 1.386 . S
C201 C200 1.399 . S
C202 C181 1.485 . S
C202 C203 1.394 . S
C202 C207 1.360 . S
C203 H162 0.931 . S
C203 C202 1.394 . S
C203 C204 1.372 . S
C204 H163 0.930 . S
C204 C203 1.372 . S
C204 C205 1.397 . S
C205 C204 1.397 . S
C205 C206 1.390 . S
C205 C221 1.476 . S
C206 H164 0.930 . S
C206 C205 1.390 . S
C206 C207 1.366 . S
C207 H165 0.932 . S
C207 C202 1.360 . S
C207 C206 1.366 . S
C208 C182 1.490 . S
C208 C209 1.380 . S
C208 C213 1.386 . S
C209 H166 0.930 . S
C209 C208 1.380 . S
C209 C210 1.381 . S
C210 H167 0.929 . S
C210 C209 1.381 . S
C210 C211 1.371 . S
C211 C210 1.371 . S
C211 C212 1.380 . S
C212 H168 0.931 . S
C212 C211 1.380 . S
C212 C213 1.387 . S
C213 H169 0.930 . S
C213 C208 1.386 . S
C213 C212 1.387 . S
C214 C183 1.519 . S
C214 C215 1.377 . S
C214 C219 1.361 . S
C215 H170 0.929 . S
C215 C214 1.377 . S
C215 C216 1.386 . S
C216 H171 0.931 . S
C216 C215 1.386 . S
C216 C217 1.363 . S
C217 C216 1.363 . S
C217 C218 1.385 . S
C218 H172 0.930 . S
C218 C217 1.385 . S
C218 C219 1.396 . S
C219 H173 0.929 . S
C219 C214 1.361 . S
C219 C218 1.396 . S
C220 O174 1.300 . S
C220 O175 1.209 . S
C220 C193 1.486 . S
C221 O176 1.199 . S
C221 O177 1.297 . S
C221 C205 1.476 . S
H222 O248 0.856 1_554 S
H223 O251 0.854 . S
H224 C259 0.930 1_455 S
H225 C260 0.930 . S
H226 C262 0.930 . S
H227 C263 0.930 . S
H228 C265 0.931 . S
H229 C266 0.930 . S
H230 C268 0.930 . S
H231 C269 0.929 . S
H232 C271 0.930 . S
H233 C272 0.931 . S
H234 C274 0.930 . S
H235 C275 0.929 . S
H236 C277 0.931 . S
H237 C278 0.930 . S
H238 C280 0.930 . S
H239 C281 0.932 . S
H240 C283 0.930 . S
H241 C284 0.929 . S
H242 C286 0.931 . S
H243 C287 0.930 . S
H244 C289 0.929 . S
H245 C290 0.931 . S
H246 C292 0.930 . S
H247 C293 0.929 . S
O248 H222 0.856 1_556 S
O248 C294 1.300 . S
O249 C294 1.209 . S
O250 C295 1.199 . S
O251 H223 0.854 . S
O251 C295 1.297 . S
C252 C253 1.404 . S
C252 C257 1.397 . S
C252 C258 1.492 1_455 S
C253 C252 1.404 . S
C253 C254 1.396 . S
C253 C264 1.492 . S
C254 C253 1.396 . S
C254 C255 1.397 . S
C254 C270 1.509 . S
C255 C254 1.397 . S
C255 C256 1.412 . S
C255 C276 1.485 . S
C256 C255 1.412 . S
C256 C257 1.388 . S
C256 C282 1.490 . S
C257 C252 1.397 . S
C257 C256 1.388 . S
C257 C288 1.519 1_455 S
C258 C252 1.492 1_655 S
C258 C259 1.363 . S
C258 C263 1.390 . S
C259 H224 0.930 1_655 S
C259 C258 1.363 . S
C259 C260 1.372 . S
C260 H225 0.930 . S
C260 C259 1.372 . S
C260 C261 1.383 . S
C261 C260 1.383 . S
C261 C262 1.395 . S
C262 H226 0.930 . S
C262 C261 1.395 . S
C262 C263 1.362 . S
C263 H227 0.930 . S
C263 C258 1.390 . S
C263 C262 1.362 . S
C264 C253 1.492 . S
C264 C265 1.377 . S
C264 C269 1.397 . S
C265 H228 0.931 . S
C265 C264 1.377 . S
C265 C266 1.376 . S
C266 H229 0.930 . S
C266 C265 1.376 . S
C266 C267 1.376 . S
C267 C266 1.376 . S
C267 C268 1.378 . S
C267 C294 1.486 . S
C268 H230 0.930 . S
C268 C267 1.378 . S
C268 C269 1.376 . S
C269 H231 0.929 . S
C269 C264 1.397 . S
C269 C268 1.376 . S
C270 C254 1.509 . S
C270 C271 1.391 . S
C270 C275 1.386 . S
C271 H232 0.930 . S
C271 C270 1.391 . S
C271 C272 1.375 . S
C272 H233 0.931 . S
C272 C271 1.375 . S
C272 C273 1.375 . S
C273 C272 1.375 . S
C273 C274 1.361 . S
C274 H234 0.930 . S
C274 C273 1.361 . S
C274 C275 1.399 . S
C275 H235 0.929 . S
C275 C270 1.386 . S
C275 C274 1.399 . S
C276 C255 1.485 . S
C276 C277 1.394 . S
C276 C281 1.360 . S
C277 H236 0.931 . S
C277 C276 1.394 . S
C277 C278 1.372 . S
C278 H237 0.930 . S
C278 C277 1.372 . S
C278 C279 1.397 . S
C279 C278 1.397 . S
C279 C280 1.390 . S
C279 C295 1.476 . S
C280 H238 0.930 . S
C280 C279 1.390 . S
C280 C281 1.366 . S
C281 H239 0.932 . S
C281 C276 1.360 . S
C281 C280 1.366 . S
C282 C256 1.490 . S
C282 C283 1.380 . S
C282 C287 1.386 . S
C283 H240 0.930 . S
C283 C282 1.380 . S
C283 C284 1.381 . S
C284 H241 0.929 . S
C284 C283 1.381 . S
C284 C285 1.371 . S
C285 C284 1.371 . S
C285 C286 1.380 . S
C286 H242 0.931 . S
C286 C285 1.380 . S
C286 C287 1.387 . S
C287 H243 0.930 . S
C287 C282 1.386 . S
C287 C286 1.387 . S
C288 C257 1.519 1_655 S
C288 C289 1.377 . S
C288 C293 1.361 . S
C289 H244 0.929 . S
C289 C288 1.377 . S
C289 C290 1.386 . S
C290 H245 0.931 . S
C290 C289 1.386 . S
C290 C291 1.363 . S
C291 C290 1.363 . S
C291 C292 1.385 . S
C292 H246 0.930 . S
C292 C291 1.385 . S
C292 C293 1.396 . S
C293 H247 0.929 . S
C293 C288 1.361 . S
C293 C292 1.396 . S
C294 O248 1.300 . S
C294 O249 1.209 . S
C294 C267 1.486 . S
C295 O250 1.199 . S
C295 O251 1.297 . S
C295 C279 1.476 . S
H296 O322 0.856 . S
H297 O325 0.854 . S
H298 C333 0.930 . S
H299 C334 0.930 . S
H300 C336 0.930 . S
H301 C337 0.930 . S
H302 C339 0.931 . S
H303 C340 0.930 . S
H304 C342 0.930 . S
H305 C343 0.929 . S
H306 C345 0.930 . S
H307 C346 0.931 . S
H308 C348 0.930 . S
H309 C349 0.929 . S
H310 C351 0.931 . S
H311 C352 0.930 . S
H312 C354 0.930 . S
H313 C355 0.932 . S
H314 C357 0.920 1_545 S
H315 C358 0.929 . S
H316 C360 0.931 . S
H317 C361 0.930 . S
H318 C363 0.929 1_556 S
H319 C364 0.931 . S
H320 C366 0.930 . S
H321 C367 0.929 . S
O322 H296 0.856 . S
O322 C368 1.300 . S
O323 C368 1.209 . S
O324 C369 1.199 . S
O325 H297 0.854 . S
O325 C369 1.297 . S
C326 C327 1.404 1_545 S
C326 C331 1.397 . S
C326 C332 1.492 . S
C327 C326 1.404 1_565 S
C327 C328 1.396 . S
C327 C338 1.492 . S
C328 C327 1.396 . S
C328 C329 1.397 . S
C328 C344 1.509 . S
C329 C328 1.397 . S
C329 C330 1.412 1_556 S
C329 C350 1.485 1_556 S
C330 C329 1.412 1_554 S
C330 C331 1.388 1_564 S
C330 C356 1.490 . S
C331 C326 1.397 . S
C331 C330 1.388 1_546 S
C331 C362 1.519 1_556 S
C332 C326 1.492 . S
C332 C333 1.363 . S
C332 C337 1.390 . S
C333 H298 0.930 . S
C333 C332 1.363 . S
C333 C334 1.372 . S
C334 H299 0.930 . S
C334 C333 1.372 . S
C334 C335 1.383 . S
C335 C334 1.383 . S
C335 C336 1.395 . S
C336 H300 0.930 . S
C336 C335 1.395 . S
C336 C337 1.362 . S
C337 H301 0.930 . S
C337 C332 1.390 . S
C337 C336 1.362 . S
C338 C327 1.492 . S
C338 C339 1.377 . S
C338 C343 1.397 . S
C339 H302 0.931 . S
C339 C338 1.377 . S
C339 C340 1.376 . S
C340 H303 0.930 . S
C340 C339 1.376 . S
C340 C341 1.376 . S
C341 C340 1.376 . S
C341 C342 1.378 . S
C341 C368 1.486 . S
C342 H304 0.930 . S
C342 C341 1.378 . S
C342 C343 1.376 . S
C343 H305 0.929 . S
C343 C338 1.397 . S
C343 C342 1.376 . S
C344 C328 1.509 . S
C344 C345 1.391 . S
C344 C349 1.386 . S
C345 H306 0.930 . S
C345 C344 1.391 . S
C345 C346 1.375 . S
C346 H307 0.931 . S
C346 C345 1.375 . S
C346 C347 1.375 . S
C347 C346 1.375 . S
C347 C348 1.361 . S
C348 H308 0.930 . S
C348 C347 1.361 . S
C348 C349 1.399 . S
C349 H309 0.929 . S
C349 C344 1.386 . S
C349 C348 1.399 . S
C350 C329 1.485 1_554 S
C350 C351 1.394 . S
C350 C355 1.360 . S
C351 H310 0.931 . S
C351 C350 1.394 . S
C351 C352 1.372 . S
C352 H311 0.930 . S
C352 C351 1.372 . S
C352 C353 1.397 . S
C353 C352 1.397 . S
C353 C354 1.390 . S
C353 C369 1.476 . S
C354 H312 0.930 . S
C354 C353 1.390 . S
C354 C355 1.366 . S
C355 H313 0.932 . S
C355 C350 1.360 . S
C355 C354 1.366 . S
C356 C330 1.490 . S
C356 C357 1.380 . S
C356 C361 1.386 . S
C357 H314 0.920 1_565 S
C357 C356 1.380 . S
C357 C358 1.381 1_565 S
C358 H315 0.929 . S
C358 C357 1.381 1_545 S
C358 C359 1.371 1_545 S
C359 C358 1.371 1_565 S
C359 C360 1.380 . S
C360 H316 0.931 . S
C360 C359 1.380 . S
C360 C361 1.387 . S
C361 H317 0.930 . S
C361 C356 1.386 . S
C361 C360 1.387 . S
C362 C331 1.519 1_554 S
C362 C363 1.377 . S
C362 C367 1.361 . S
C363 H318 0.929 1_554 S
C363 C362 1.377 . S
C363 C364 1.386 . S
C364 H319 0.931 . S
C364 C363 1.386 . S
C364 C365 1.363 . S
C365 C364 1.363 . S
C365 C366 1.385 . S
C366 H320 0.930 . S
C366 C365 1.385 . S
C366 C367 1.396 . S
C367 H321 0.929 . S
C367 C362 1.361 . S
C367 C366 1.396 . S
C368 O322 1.300 . S
C368 O323 1.209 . S
C368 C341 1.486 . S
C369 O324 1.199 . S
C369 O325 1.297 . S
C369 C353 1.476 . S
H370 O396 0.856 . S
H371 O399 0.854 . S
H372 C407 0.930 . S
H373 C408 0.930 . S
H374 C410 0.930 . S
H375 C411 0.930 . S
H376 C413 0.931 . S
H377 C414 0.930 . S
H378 C416 0.930 . S
H379 C417 0.929 . S
H380 C419 0.930 . S
H381 C420 0.931 . S
H382 C422 0.930 . S
H383 C423 0.929 . S
H384 C425 0.931 . S
H385 C426 0.930 . S
H386 C428 0.930 . S
H387 C429 0.932 . S
H388 C431 0.930 . S
H389 C432 0.929 . S
H390 C434 0.931 . S
H391 C435 0.930 . S
H392 C437 0.929 . S
H393 C438 0.931 . S
H394 C440 0.930 . S
H395 C441 0.929 . S
O396 H370 0.856 . S
O396 C442 1.300 . S
O397 C442 1.209 . S
O398 C443 1.199 . S
O399 H371 0.854 . S
O399 C443 1.297 . S
C400 C401 1.404 . S
C400 C405 1.397 . S
C400 C406 1.492 . S
C401 C400 1.404 . S
C401 C402 1.396 . S
C401 C412 1.492 . S
C402 C401 1.396 . S
C402 C403 1.397 . S
C402 C418 1.509 . S
C403 C402 1.397 . S
C403 C404 1.412 . S
C403 C424 1.485 . S
C404 C403 1.412 . S
C404 C405 1.388 . S
C404 C430 1.490 . S
C405 C400 1.397 . S
C405 C404 1.388 . S
C405 C436 1.519 . S
C406 C400 1.492 . S
C406 C407 1.363 . S
C406 C411 1.390 . S
C407 H372 0.930 . S
C407 C406 1.363 . S
C407 C408 1.372 . S
C408 H373 0.930 . S
C408 C407 1.372 . S
C408 C409 1.383 . S
C409 C408 1.383 . S
C409 C410 1.395 . S
C410 H374 0.930 . S
C410 C409 1.395 . S
C410 C411 1.362 . S
C411 H375 0.930 . S
C411 C406 1.390 . S
C411 C410 1.362 . S
C412 C401 1.492 . S
C412 C413 1.377 . S
C412 C417 1.397 . S
C413 H376 0.931 . S
C413 C412 1.377 . S
C413 C414 1.376 . S
C414 H377 0.930 . S
C414 C413 1.376 . S
C414 C415 1.376 . S
C415 C414 1.376 . S
C415 C416 1.378 . S
C415 C442 1.486 1_554 S
C416 H378 0.930 . S
C416 C415 1.378 . S
C416 C417 1.376 . S
C417 H379 0.929 . S
C417 C412 1.397 . S
C417 C416 1.376 . S
C418 C402 1.509 . S
C418 C419 1.391 . S
C418 C423 1.386 . S
C419 H380 0.930 . S
C419 C418 1.391 . S
C419 C420 1.375 . S
C420 H381 0.931 . S
C420 C419 1.375 . S
C420 C421 1.375 . S
C421 C420 1.375 . S
C421 C422 1.361 . S
C422 H382 0.930 . S
C422 C421 1.361 . S
C422 C423 1.399 . S
C423 H383 0.929 . S
C423 C418 1.386 . S
C423 C422 1.399 . S
C424 C403 1.485 . S
C424 C425 1.394 . S
C424 C429 1.360 . S
C425 H384 0.931 . S
C425 C424 1.394 . S
C425 C426 1.372 . S
C426 H385 0.930 . S
C426 C425 1.372 . S
C426 C427 1.397 . S
C427 C426 1.397 . S
C427 C428 1.390 . S
C427 C443 1.476 . S
C428 H386 0.930 . S
C428 C427 1.390 . S
C428 C429 1.366 . S
C429 H387 0.932 . S
C429 C424 1.360 . S
C429 C428 1.366 . S
C430 C404 1.490 . S
C430 C431 1.380 . S
C430 C435 1.386 . S
C431 H388 0.930 . S
C431 C430 1.380 . S
C431 C432 1.381 . S
C432 H389 0.929 . S
C432 C431 1.381 . S
C432 C433 1.371 . S
C433 C432 1.371 . S
C433 C434 1.380 . S
C434 H390 0.931 . S
C434 C433 1.380 . S
C434 C435 1.387 . S
C435 H391 0.930 . S
C435 C430 1.386 . S
C435 C434 1.387 . S
C436 C405 1.519 . S
C436 C437 1.377 . S
C436 C441 1.361 . S
C437 H392 0.929 . S
C437 C436 1.377 . S
C437 C438 1.386 . S
C438 H393 0.931 . S
C438 C437 1.386 . S
C438 C439 1.363 . S
C439 C438 1.363 . S
C439 C440 1.385 . S
C440 H394 0.930 . S
C440 C439 1.385 . S
C440 C441 1.396 . S
C441 H395 0.929 . S
C441 C436 1.361 . S
C441 C440 1.396 . S
C442 O396 1.300 . S
C442 O397 1.209 . S
C442 C415 1.486 1_556 S
C443 O398 1.199 . S
C443 O399 1.297 . S
C443 C427 1.476 . S
Mg444 O445 2.028 . S
Mg444 O451 1.986 . S
Mg444 O453 2.114 . S
Mg444 O454 2.251 . S
Mg444 O457 2.010 . S
O445 Mg444 2.028 . S
O445 C448 1.250 . S
O446 Mg447 2.028 . S
O446 C448 1.248 . S
Mg447 O446 2.028 . S
Mg447 O452 2.032 . S
Mg447 O454 2.079 . S
C448 O445 1.250 . S
C448 O446 1.248 . S
C449 O450 1.264 . S
C449 O457 1.249 . S
O450 C449 1.264 . S
O451 Mg444 1.986 . S
O451 C455 1.246 . S
O452 Mg447 2.032 . S
O452 C455 1.259 . S
O453 Mg444 2.114 . S
O453 C456 1.252 . S
O454 Mg444 2.251 . S
O454 Mg447 2.079 . S
O454 C456 1.273 . S
C455 O451 1.246 . S
C455 O452 1.259 . S
C456 O453 1.252 . S
C456 O454 1.273 . S
O457 Mg444 2.010 . S
O457 C449 1.249 . S
Mg458 O459 2.028 . S
Mg458 O465 1.986 . S
Mg458 O467 2.114 . S
Mg458 O468 2.251 . S
Mg458 O471 2.010 . S
O459 Mg458 2.028 . S
O459 C462 1.250 . S
O460 Mg461 2.028 . S
O460 C462 1.248 . S
Mg461 O460 2.028 . S
Mg461 O466 2.032 . S
Mg461 O468 2.079 . S
C462 O459 1.250 . S
C462 O460 1.248 . S
C463 O464 1.264 . S
C463 O471 1.249 . S
O464 C463 1.264 . S
O465 Mg458 1.986 . S
O465 C469 1.246 . S
O466 Mg461 2.032 . S
O466 C469 1.259 . S
O467 Mg458 2.114 . S
O467 C470 1.252 . S
O468 Mg458 2.251 . S
O468 Mg461 2.079 . S
O468 C470 1.273 . S
C469 O465 1.246 . S
C469 O466 1.259 . S
C470 O467 1.252 . S
C470 O468 1.273 . S
O471 Mg458 2.010 . S
O471 C463 1.249 . S
Mg472 O473 2.028 . S
Mg472 O479 1.986 . S
Mg472 O481 2.114 . S
Mg472 O482 2.251 . S
Mg472 O485 2.010 . S
O473 Mg472 2.028 . S
O473 C476 1.250 . S
O474 Mg475 2.028 . S
O474 C476 1.248 . S
Mg475 O474 2.028 . S
Mg475 O480 2.032 . S
Mg475 O482 2.079 . S
C476 O473 1.250 . S
C476 O474 1.248 . S
C477 O478 1.264 . S
C477 O485 1.249 . S
O478 C477 1.264 . S
O479 Mg472 1.986 . S
O479 C483 1.246 . S
O480 Mg475 2.032 . S
O480 C483 1.259 . S
O481 Mg472 2.114 . S
O481 C484 1.252 . S
O482 Mg472 2.251 . S
O482 Mg475 2.079 . S
O482 C484 1.273 . S
C483 O479 1.246 . S
C483 O480 1.259 . S
C484 O481 1.252 . S
C484 O482 1.273 . S
O485 Mg472 2.010 . S
O485 C477 1.249 . S
Mg486 O487 2.028 . S
Mg486 O493 1.986 . S
Mg486 O495 2.114 . S
Mg486 O496 2.251 . S
Mg486 O499 2.010 . S
O487 Mg486 2.028 . S
O487 C490 1.250 . S
O488 Mg489 2.028 . S
O488 C490 1.248 . S
Mg489 O488 2.028 . S
Mg489 O494 2.032 . S
Mg489 O496 2.079 . S
C490 O487 1.250 . S
C490 O488 1.248 . S
C491 O492 1.264 . S
C491 O499 1.249 . S
O492 C491 1.264 . S
O493 Mg486 1.986 . S
O493 C497 1.246 . S
O494 Mg489 2.032 . S
O494 C497 1.259 . S
O495 Mg486 2.114 . S
O495 C498 1.252 . S
O496 Mg486 2.251 . S
O496 Mg489 2.079 . S
O496 C498 1.273 . S
C497 O493 1.246 . S
C497 O494 1.259 . S
C498 O495 1.252 . S
C498 O496 1.273 . S
O499 Mg486 2.010 . S
O499 C491 1.249 . S
Mg500 O501 2.028 . S
Mg500 O507 1.986 . S
Mg500 O509 2.114 . S
Mg500 O510 2.251 . S
Mg500 O513 2.010 . S
O501 Mg500 2.028 . S
O501 C504 1.250 . S
O502 Mg503 2.028 . S
O502 C504 1.248 . S
Mg503 O502 2.028 . S
Mg503 O508 2.032 . S
Mg503 O510 2.079 . S
C504 O501 1.250 . S
C504 O502 1.248 . S
C505 O506 1.264 . S
C505 O513 1.249 . S
O506 C505 1.264 . S
O507 Mg500 1.986 . S
O507 C511 1.246 . S
O508 Mg503 2.032 . S
O508 C511 1.259 . S
O509 Mg500 2.114 . S
O509 C512 1.252 . S
O510 Mg500 2.251 . S
O510 Mg503 2.079 . S
O510 C512 1.273 . S
C511 O507 1.246 . S
C511 O508 1.259 . S
C512 O509 1.252 . S
C512 O510 1.273 . S
O513 Mg500 2.010 . S
O513 C505 1.249 . S
Mg514 O515 2.028 . S
Mg514 O521 1.986 . S
Mg514 O523 2.114 . S
Mg514 O524 2.251 . S
Mg514 O527 2.010 . S
O515 Mg514 2.028 . S
O515 C518 1.250 . S
O516 Mg517 2.028 . S
O516 C518 1.248 . S
Mg517 O516 2.028 . S
Mg517 O522 2.032 . S
Mg517 O524 2.079 . S
C518 O515 1.250 . S
C518 O516 1.248 . S
C519 O520 1.264 . S
C519 O527 1.249 . S
O520 C519 1.264 . S
O521 Mg514 1.986 . S
O521 C525 1.246 . S
O522 Mg517 2.032 . S
O522 C525 1.259 . S
O523 Mg514 2.114 . S
O523 C526 1.252 . S
O524 Mg514 2.251 . S
O524 Mg517 2.079 . S
O524 C526 1.273 . S
C525 O521 1.246 . S
C525 O522 1.259 . S
C526 O523 1.252 . S
C526 O524 1.273 . S
O527 Mg514 2.010 . S
O527 C519 1.249 . S
C528 C529 1.387 . S
C528 H532 0.950 . S
C528 C537 1.390 . S
C529 C528 1.387 . S
C529 C531 1.387 . S
H530 C537 0.950 . S
C531 C529 1.387 . S
C531 C533 1.390 . S
C531 H535 0.950 . S
H532 C528 0.950 . S
C533 C531 1.390 . S
C533 C534 1.387 . S
C533 H536 0.950 . S
C534 C533 1.387 . S
C534 C537 1.387 . S
H535 C531 0.950 . S
H536 C533 0.950 . S
C537 C528 1.390 . S
C537 H530 0.950 . S
C537 C534 1.387 . S
C538 C539 1.387 . S
C538 H542 0.950 . S
C538 C547 1.390 . S
C539 C538 1.387 . S
C539 C541 1.387 . S
H540 C547 0.950 . S
C541 C539 1.387 . S
C541 C543 1.390 . S
C541 H545 0.950 . S
H542 C538 0.950 . S
C543 C541 1.390 . S
C543 C544 1.387 . S
C543 H546 0.950 . S
C544 C543 1.387 . S
C544 C547 1.387 . S
H545 C541 0.950 . S
H546 C543 0.950 . S
C547 C538 1.390 . S
C547 H540 0.950 . S
C547 C544 1.387 . S
C548 C549 1.387 . S
C548 H552 0.950 . S
C548 C557 1.390 . S
C549 C548 1.387 . S
C549 C551 1.387 . S
H550 C557 0.950 . S
C551 C549 1.387 . S
C551 C553 1.390 . S
C551 H555 0.950 . S
H552 C548 0.950 . S
C553 C551 1.390 . S
C553 C554 1.387 . S
C553 H556 0.950 . S
C554 C553 1.387 . S
C554 C557 1.387 . S
H555 C551 0.950 . S
H556 C553 0.950 . S
C557 C548 1.390 . S
C557 H550 0.950 . S
C557 C554 1.387 . S
C558 C559 1.387 . S
C558 H562 0.950 . S
C558 C567 1.390 . S
C559 C558 1.387 . S
C559 C561 1.387 . S
H560 C567 0.950 . S
C561 C559 1.387 . S
C561 C563 1.390 . S
C561 H565 0.950 . S
H562 C558 0.950 . S
C563 C561 1.390 . S
C563 C564 1.387 . S
C563 H566 0.950 . S
C564 C563 1.387 . S
C564 C567 1.387 . S
H565 C561 0.950 . S
H566 C563 0.950 . S
C567 C558 1.390 . S
C567 H560 0.950 . S
C567 C564 1.387 . S
C568 C569 1.387 . S
C568 H572 0.950 . S
C568 C577 1.390 . S
C569 C568 1.387 . S
C569 C571 1.387 . S
H570 C577 0.950 . S
C571 C569 1.387 . S
C571 C573 1.390 . S
C571 H575 0.950 . S
H572 C568 0.950 . S
C573 C571 1.390 . S
C573 C574 1.387 . S
C573 H576 0.950 . S
C574 C573 1.387 . S
C574 C577 1.387 . S
H575 C571 0.950 . S
H576 C573 0.950 . S
C577 C568 1.390 . S
C577 H570 0.950 . S
C577 C574 1.387 . S
C578 C579 1.387 . S
C578 H582 0.950 . S
C578 C587 1.390 . S
C579 C578 1.387 . S
C579 C581 1.387 . S
H580 C587 0.950 . S
C581 C579 1.387 . S
C581 C583 1.390 . S
C581 H585 0.950 . S
H582 C578 0.950 . S
C583 C581 1.390 . S
C583 C584 1.387 . S
C583 H586 0.950 . S
C584 C583 1.387 . S
C584 C587 1.387 . S
H585 C581 0.950 . S
H586 C583 0.950 . S
C587 C578 1.390 . S
C587 H580 0.950 . S
C587 C584 1.387 . S
C588 C589 1.387 . S
C588 H592 0.950 . S
C588 C597 1.390 . S
C589 C588 1.387 . S
C589 C591 1.387 . S
H590 C597 0.950 . S
C591 C589 1.387 . S
C591 C593 1.390 . S
C591 H595 0.950 . S
H592 C588 0.950 . S
C593 C591 1.390 . S
C593 C594 1.387 . S
C593 H596 0.950 . S
C594 C593 1.387 . S
C594 C597 1.387 . S
H595 C591 0.950 . S
H596 C593 0.950 . S
C597 C588 1.390 . S
C597 H590 0.950 . S
C597 C594 1.387 . S
C598 C599 1.387 . S
C598 H602 0.950 . S
C598 C607 1.390 . S
C599 C598 1.387 . S
C599 C601 1.387 . S
H600 C607 0.950 . S
C601 C599 1.387 . S
C601 C603 1.390 . S
C601 H605 0.950 . S
H602 C598 0.950 . S
C603 C601 1.390 . S
C603 C604 1.387 . S
C603 H606 0.950 . S
C604 C603 1.387 . S
C604 C607 1.387 . S
H605 C601 0.950 . S
H606 C603 0.950 . S
C607 C598 1.390 . S
C607 H600 0.950 . S
C607 C604 1.387 . S
C608 C609 1.387 . S
C608 H612 0.950 . S
C608 C617 1.390 . S
C609 C608 1.387 . S
C609 C611 1.387 . S
H610 C617 0.950 . S
C611 C609 1.387 . S
C611 C613 1.390 . S
C611 H615 0.950 . S
H612 C608 0.950 . S
C613 C611 1.390 . S
C613 C614 1.387 . S
C613 H616 0.950 . S
C614 C613 1.387 . S
C614 C617 1.387 . S
H615 C611 0.950 . S
H616 C613 0.950 . S
C617 C608 1.390 . S
C617 H610 0.950 . S
C617 C614 1.387 . S
C618 C619 1.387 . S
C618 H622 0.950 . S
C618 C627 1.390 . S
C619 C618 1.387 . S
C619 C621 1.387 . S
H620 C627 0.950 . S
C621 C619 1.387 . S
C621 C623 1.390 . S
C621 H625 0.950 1_554 S
H622 C618 0.950 . S
C623 C621 1.390 . S
C623 C624 1.387 . S
C623 H626 0.950 . S
C624 C623 1.387 . S
C624 C627 1.387 . S
H625 C621 0.950 1_556 S
H626 C623 0.950 . S
C627 C618 1.390 . S
C627 H620 0.950 . S
C627 C624 1.387 . S
C628 C629 1.387 . S
C628 H632 0.950 . S
C628 C637 1.390 . S
C629 C628 1.387 . S
C629 C631 1.387 . S
H630 C637 0.950 . S
C631 C629 1.387 . S
C631 C633 1.390 . S
C631 H635 0.950 . S
H632 C628 0.950 . S
C633 C631 1.390 . S
C633 C634 1.387 . S
C633 H636 0.950 . S
C634 C633 1.387 . S
C634 C637 1.387 . S
H635 C631 0.950 . S
H636 C633 0.950 . S
C637 C628 1.390 . S
C637 H630 0.950 . S
C637 C634 1.387 . S
C638 C639 1.387 . S
C638 H642 0.950 . S
C638 C647 1.390 . S
C639 C638 1.387 . S
C639 C641 1.387 . S
H640 C647 0.950 . S
C641 C639 1.387 . S
C641 C643 1.390 . S
C641 H645 0.950 . S
H642 C638 0.950 . S
C643 C641 1.390 . S
C643 C644 1.387 . S
C643 H646 0.950 . S
C644 C643 1.387 . S
C644 C647 1.387 . S
H645 C641 0.950 . S
H646 C643 0.950 . S
C647 C638 1.390 . S
C647 H640 0.950 . S
C647 C644 1.387 . S
C648 C649 1.387 . S
C648 H652 0.950 . S
C648 C657 1.390 . S
C649 C648 1.387 . S
C649 C651 1.387 . S
H650 C657 0.950 . S
C651 C649 1.387 . S
C651 C653 1.390 . S
C651 H655 0.950 . S
H652 C648 0.950 . S
C653 C651 1.390 . S
C653 C654 1.387 . S
C653 H656 0.950 . S
C654 C653 1.387 . S
C654 C657 1.387 . S
H655 C651 0.950 . S
H656 C653 0.950 . S
C657 C648 1.390 . S
C657 H650 0.950 . S
C657 C654 1.387 . S
C658 C659 1.387 . S
C658 H662 0.950 . S
C658 C667 1.390 . S
C659 C658 1.387 . S
C659 C661 1.387 . S
H660 C667 0.950 . S
C661 C659 1.387 . S
C661 C663 1.390 . S
C661 H665 0.950 . S
H662 C658 0.950 . S
C663 C661 1.390 . S
C663 C664 1.387 . S
C663 H666 0.950 . S
C664 C663 1.387 . S
C664 C667 1.387 . S
H665 C661 0.950 . S
H666 C663 0.950 . S
C667 C658 1.390 . S
C667 H660 0.950 . S
C667 C664 1.387 . S
C668 C669 1.387 . S
C668 H672 0.950 . S
C668 C677 1.390 . S
C669 C668 1.387 . S
C669 C671 1.387 . S
H670 C677 0.950 . S
C671 C669 1.387 . S
C671 C673 1.390 . S
C671 H675 0.950 . S
H672 C668 0.950 . S
C673 C671 1.390 . S
C673 C674 1.387 . S
C673 H676 0.950 . S
C674 C673 1.387 . S
C674 C677 1.387 . S
H675 C671 0.950 . S
H676 C673 0.950 . S
C677 C668 1.390 . S
C677 H670 0.950 . S
C677 C674 1.387 . S
C678 C679 1.387 . S
C678 H682 0.950 . S
C678 C687 1.390 . S
C679 C678 1.387 . S
C679 C681 1.387 . S
H680 C687 0.950 . S
C681 C679 1.387 . S
C681 C683 1.390 . S
C681 H685 0.950 . S
H682 C678 0.950 . S
C683 C681 1.390 . S
C683 C684 1.387 . S
C683 H686 0.950 . S
C684 C683 1.387 . S
C684 C687 1.387 . S
H685 C681 0.950 . S
H686 C683 0.950 . S
C687 C678 1.390 . S
C687 H680 0.950 . S
C687 C684 1.387 . S
C688 C689 1.387 . S
C688 H692 0.950 . S
C688 C697 1.390 . S
C689 C688 1.387 . S
C689 C691 1.387 . S
H690 C697 0.950 . S
C691 C689 1.387 . S
C691 C693 1.390 . S
C691 H695 0.950 1_565 S
H692 C688 0.950 . S
C693 C691 1.390 . S
C693 C694 1.387 . S
C693 H696 0.950 . S
C694 C693 1.387 . S
C694 C697 1.387 . S
H695 C691 0.950 1_545 S
H696 C693 0.950 . S
C697 C688 1.390 . S
C697 H690 0.950 . S
C697 C694 1.387 . S
C698 C699 1.387 . S
C698 H702 0.950 . S
C698 C707 1.390 . S
C699 C698 1.387 . S
C699 C701 1.387 . S
H700 C707 0.950 . S
C701 C699 1.387 . S
C701 C703 1.390 . S
C701 H705 0.950 . S
H702 C698 0.950 . S
C703 C701 1.390 . S
C703 C704 1.387 . S
C703 H706 0.950 . S
C704 C703 1.387 . S
C704 C707 1.387 . S
H705 C701 0.950 . S
H706 C703 0.950 . S
C707 C698 1.390 . S
C707 H700 0.950 . S
C707 C704 1.387 . S
C708 C709 1.387 . S
C708 H712 0.950 . S
C708 C717 1.390 . S
C709 C708 1.387 . S
C709 C711 1.387 . S
H710 C717 0.950 . S
C711 C709 1.387 . S
C711 C713 1.390 . S
C711 H715 0.950 . S
H712 C708 0.950 . S
C713 C711 1.390 . S
C713 C714 1.387 . S
C713 H716 0.950 . S
C714 C713 1.387 . S
C714 C717 1.387 . S
H715 C711 0.950 . S
H716 C713 0.950 . S
C717 C708 1.390 . S
C717 H710 0.950 . S
C717 C714 1.387 . S
C718 C719 1.387 . S
C718 H722 0.950 . S
C718 C727 1.390 . S
C719 C718 1.387 . S
C719 C721 1.387 . S
H720 C727 0.950 . S
C721 C719 1.387 . S
C721 C723 1.390 . S
C721 H725 0.950 . S
H722 C718 0.950 . S
C723 C721 1.390 . S
C723 C724 1.387 . S
C723 H726 0.950 . S
C724 C723 1.387 . S
C724 C727 1.387 . S
H725 C721 0.950 . S
H726 C723 0.950 . S
C727 C718 1.390 . S
C727 H720 0.950 . S
C727 C724 1.387 . S
C728 C729 1.387 . S
C728 H732 0.950 . S
C728 C737 1.390 . S
C729 C728 1.387 . S
C729 C731 1.387 . S
H730 C737 0.950 . S
C731 C729 1.387 . S
C731 C733 1.390 . S
C731 H735 0.950 . S
H732 C728 0.950 . S
C733 C731 1.390 . S
C733 C734 1.387 . S
C733 H736 0.950 . S
C734 C733 1.387 . S
C734 C737 1.387 . S
H735 C731 0.950 . S
H736 C733 0.950 . S
C737 C728 1.390 . S
C737 H730 0.950 . S
C737 C734 1.387 . S
C738 C739 1.387 . S
C738 H742 0.950 . S
C738 C747 1.390 . S
C739 C738 1.387 . S
C739 C741 1.387 . S
H740 C747 0.950 . S
C741 C739 1.387 . S
C741 C743 1.390 . S
C741 H745 0.950 . S
H742 C738 0.950 . S
C743 C741 1.390 . S
C743 C744 1.387 . S
C743 H746 0.950 . S
C744 C743 1.387 . S
C744 C747 1.387 . S
H745 C741 0.950 . S
H746 C743 0.950 . S
C747 C738 1.390 . S
C747 H740 0.950 . S
C747 C744 1.387 . S
C748 C749 1.387 . S
C748 H752 0.950 . S
C748 C757 1.390 1_554 S
C749 C748 1.387 . S
C749 C751 1.387 . S
H750 C757 0.950 . S
C751 C749 1.387 . S
C751 C753 1.390 1_554 S
C751 H755 0.950 . S
H752 C748 0.950 . S
C753 C751 1.390 1_556 S
C753 C754 1.387 . S
C753 H756 0.950 . S
C754 C753 1.387 . S
C754 C757 1.387 . S
H755 C751 0.950 . S
H756 C753 0.950 . S
C757 C748 1.390 1_556 S
C757 H750 0.950 . S
C757 C754 1.387 . S
C758 C759 1.387 . S
C758 H762 0.950 . S
C758 C767 1.390 . S
C759 C758 1.387 . S
C759 C761 1.387 . S
H760 C767 0.950 . S
C761 C759 1.387 . S
C761 C763 1.390 . S
C761 H765 0.950 . S
H762 C758 0.950 . S
C763 C761 1.390 . S
C763 C764 1.387 . S
C763 H766 0.950 . S
C764 C763 1.387 . S
C764 C767 1.387 . S
H765 C761 0.950 . S
H766 C763 0.950 . S
C767 C758 1.390 . S
C767 H760 0.950 . S
C767 C764 1.387 . S
C534 C519 1.043 . S
C529 C51 1.379 . S
C539 C125 1.533 . S
C544 C449 1.190 . S
C549 C217 2.484 . S
C554 C469 2.558 . S
C559 C291 1.498 . S
C564 C483 1.509 . S
C574 C491 0.848 . S
C569 C347 1.073 . S
C579 C421 0.978 . S
C584 C505 0.831 . S
C589 C143 2.260 . S
C594 C463 1.911 . S
C599 C199 1.549 . S
C604 C477 1.246 . S
C609 C273 0.653 . S
C614 C497 0.644 . S
C624 C511 1.706 . S
C619 C365 1.632 . S
C634 C525 1.911 . S
C629 C439 1.920 . S
C644 C455 2.444 . S
C639 C69 2.369 . S
C649 C63 1.514 . S
C654 C462 1.654 . S
C659 C137 1.612 . S
C664 C476 1.735 . S
C674 C498 1.393 . S
C669 C187 1.337 . S
C679 C261 1.501 . S
C684 C512 1.538 1_556 S
C694 C526 1.683 . S
C689 C359 1.452 . S
C704 C456 1.327 . S
C699 C433 1.202 . S
C714 C518 1.777 . S
C709 C113 1.686 . S
C719 C211 1.392 . S
C724 C448 1.515 . S
C734 C470 1.828 . S
C729 C285 1.663 . S
C739 C335 1.388 . S
C744 C484 1.484 . S
C749 C409 1.357 . S
C754 C490 1.457 . S
C759 C39 1.650 . S
C764 C504 1.721 . S
