# Generated by pormake.
# Topology zzz, (3,6)-cn, num edge types: 1
# Building blocks:
#     Node 0, Type 0, BuildingBlock: BETDAH_clean_linker_0, # of connection points: 3
#     Node 1, Type 0, BuildingBlock: BETDAH_clean_linker_0, # of connection points: 3
#     Node 2, Type 0, BuildingBlock: BETDAH_clean_linker_0, # of connection points: 3
#     Node 3, Type 0, BuildingBlock: BETDAH_clean_linker_0, # of connection points: 3
#     Node 4, Type 0, BuildingBlock: BETDAH_clean_linker_0, # of connection points: 3
#     Node 5, Type 0, BuildingBlock: BETDAH_clean_linker_0, # of connection points: 3
#     Node 6, Type 0, BuildingBlock: BETDAH_clean_linker_0, # of connection points: 3
#     Node 7, Type 0, BuildingBlock: BETDAH_clean_linker_0, # of connection points: 3
#     Node 8, Type 1, BuildingBlock: KUMBUR_clean_sbu_1, # of connection points: 6
#     Node 9, Type 1, BuildingBlock: KUMBUR_clean_sbu_1, # of connection points: 6
#     Node 10, Type 1, BuildingBlock: KUMBUR_clean_sbu_1, # of connection points: 6
#     Node 11, Type 1, BuildingBlock: KUMBUR_clean_sbu_1, # of connection points: 6
#     Edge 12, Type (0, 1), BuildingBlock: KIFKEQ_clean_linker_1, # of connection points: 2
#     Edge 13, Type (0, 1), BuildingBlock: KIFKEQ_clean_linker_1, # of connection points: 2
#     Edge 14, Type (0, 1), BuildingBlock: KIFKEQ_clean_linker_1, # of connection points: 2
#     Edge 15, Type (0, 1), BuildingBlock: KIFKEQ_clean_linker_1, # of connection points: 2
#     Edge 16, Type (0, 1), BuildingBlock: KIFKEQ_clean_linker_1, # of connection points: 2
#     Edge 17, Type (0, 1), BuildingBlock: KIFKEQ_clean_linker_1, # of connection points: 2
#     Edge 18, Type (0, 1), BuildingBlock: KIFKEQ_clean_linker_1, # of connection points: 2
#     Edge 19, Type (0, 1), BuildingBlock: KIFKEQ_clean_linker_1, # of connection points: 2
#     Edge 20, Type (0, 1), BuildingBlock: KIFKEQ_clean_linker_1, # of connection points: 2
#     Edge 21, Type (0, 1), BuildingBlock: KIFKEQ_clean_linker_1, # of connection points: 2
#     Edge 22, Type (0, 1), BuildingBlock: KIFKEQ_clean_linker_1, # of connection points: 2
#     Edge 23, Type (0, 1), BuildingBlock: KIFKEQ_clean_linker_1, # of connection points: 2
#     Edge 24, Type (0, 1), BuildingBlock: KIFKEQ_clean_linker_1, # of connection points: 2
#     Edge 25, Type (0, 1), BuildingBlock: KIFKEQ_clean_linker_1, # of connection points: 2
#     Edge 26, Type (0, 1), BuildingBlock: KIFKEQ_clean_linker_1, # of connection points: 2
#     Edge 27, Type (0, 1), BuildingBlock: KIFKEQ_clean_linker_1, # of connection points: 2
#     Edge 28, Type (0, 1), BuildingBlock: KIFKEQ_clean_linker_1, # of connection points: 2
#     Edge 29, Type (0, 1), BuildingBlock: KIFKEQ_clean_linker_1, # of connection points: 2
#     Edge 30, Type (0, 1), BuildingBlock: KIFKEQ_clean_linker_1, # of connection points: 2
#     Edge 31, Type (0, 1), BuildingBlock: KIFKEQ_clean_linker_1, # of connection points: 2
#     Edge 32, Type (0, 1), BuildingBlock: KIFKEQ_clean_linker_1, # of connection points: 2
#     Edge 33, Type (0, 1), BuildingBlock: KIFKEQ_clean_linker_1, # of connection points: 2
#     Edge 34, Type (0, 1), BuildingBlock: KIFKEQ_clean_linker_1, # of connection points: 2
#     Edge 35, Type (0, 1), BuildingBlock: KIFKEQ_clean_linker_1, # of connection points: 2
# Relax obj value: 0.178
# Max RMSD: 0.104
# Mean RMSD: 0.081
data_MOF--net-zzz--node1-KUMBUR_clean_sbu_1--node2-BETDAH_clean_linker_0--edge1-KIFKEQ_clean_linker_1
_symmetry_space_group_name_H-M    P1
_symmetry_Int_Tables_number       1
_symmetry_cell_setting            triclinic
loop_
_symmetry_equiv_pos_as_xyz
'x, y, z'
_cell_length_a     50.181718
_cell_length_b     50.305408
_cell_length_c     15.902726
_cell_angle_alpha  89.847688
_cell_angle_beta   90.236136
_cell_angle_gamma 90.214221
loop_
_atom_site_label
_atom_site_type_symbol
_atom_site_fract_x
_atom_site_fract_y
_atom_site_fract_z
_atom_type_partial_charge
H0 H 0.82021 0.59163 0.27606 0.0
H1 H 0.73772 0.58786 0.20458 0.0
H2 H 0.76423 0.55094 0.43516 0.0
C3 C 0.79978 0.58634 0.2908 0.0
C4 C 0.79471 0.57203 0.36488 0.0
C5 C 0.7794 0.59165 0.2322 0.0
C6 C 0.7533 0.58361 0.24993 0.0
C7 C 0.74751 0.56844 0.32167 0.0
C8 C 0.76834 0.56298 0.38012 0.0
N9 N 0.72142 0.55731 0.33259 0.0
C10 C 0.70162 0.55714 0.26954 0.0
H11 H 1.0139 0.84985 0.2624 0.0
H12 H 1.01138 0.77144 0.15635 0.0
H13 H 1.00041 0.78249 0.42343 0.0
C14 C 1.01111 0.82859 0.2702 0.0
C15 C 1.00675 0.81845 0.35087 0.0
C16 C 1.01282 0.81182 0.20013 0.0
C17 C 1.01002 0.78426 0.21075 0.0
C18 C 1.00535 0.77335 0.29097 0.0
C19 C 1.00387 0.79065 0.3613 0.0
N20 N 1.00215 0.74529 0.30242 0.0
C21 C 1.00343 0.72627 0.23804 0.0
H22 H 0.73704 0.98196 0.25693 0.0
H23 H 0.81693 0.99619 0.1717 0.0
H24 H 0.78795 0.03565 0.39358 0.0
C25 C 0.75649 0.99096 0.26632 0.0
C26 C 0.76017 1.00835 0.33426 0.0
C27 C 0.77666 0.98698 0.20652 0.0
C28 C 0.8014 0.99953 0.2175 0.0
C29 C 0.80578 1.01723 0.28428 0.0
C30 C 0.78494 1.02171 0.34259 0.0
N31 N 0.83051 0.03133 0.29163 0.0
C32 C 0.8509 0.03051 0.23137 0.0
H33 H 0.56152 0.72226 0.24016 0.0
H34 H 0.55691 0.80213 0.14525 0.0
H35 H 0.5347 0.78497 0.40152 0.0
C36 C 0.55793 0.74324 0.25052 0.0
C37 C 0.54884 0.75141 0.32946 0.0
C38 C 0.56045 0.76134 0.18349 0.0
C39 C 0.55472 0.78825 0.19686 0.0
C40 C 0.54524 0.79708 0.27487 0.0
C41 C 0.54233 0.77847 0.34138 0.0
N42 N 0.53768 0.82421 0.2865 0.0
C43 C 0.53735 0.84347 0.22241 0.0
H44 H 0.21454 0.49728 0.18238 0.0
H45 H 0.29679 0.49934 0.25319 0.0
H46 H 0.27448 0.50781 0.99183 0.0
C47 C 0.23526 0.49803 0.16357 0.0
C48 C 0.24159 0.50166 0.07826 0.0
C49 C 0.255 0.49715 0.22621 0.0
C50 C 0.28179 0.49987 0.20408 0.0
C51 C 0.28918 0.50374 0.11987 0.0
C52 C 0.26892 0.50475 0.05686 0.0
N53 N 0.31667 0.50703 0.09804 0.0
C54 C 0.33778 0.50787 0.1566 0.0
H55 H 0.08956 0.23774 0.13539 0.0
H56 H 0.07511 0.31491 0.23722 0.0
H57 H 0.03449 0.29008 1.01002 0.0
C58 C 0.08007 0.25698 0.12904 0.0
C59 C 0.06199 0.26132 0.06296 0.0
C60 C 0.08499 0.27622 0.19085 0.0
C61 C 0.07159 0.3005 0.1879 0.0
C62 C 0.0535 0.30589 0.12221 0.0
C63 C 0.04858 0.28609 0.0602 0.0
N64 N 0.03986 0.33078 0.11762 0.0
C65 C 0.0424 0.35155 0.176 0.0
H66 H 0.34139 0.07196 0.08233 0.0
H67 H 0.26693 0.06578 0.21382 0.0
H68 H 0.27463 0.03461 0.96189 0.0
C69 C 0.32037 0.06675 0.0827 0.0
C70 C 0.30988 0.05348 1.01318 0.0
C71 C 0.3052 0.07111 0.1553 0.0
C72 C 0.27843 0.06287 0.15713 0.0
C73 C 0.26693 0.05022 0.08663 0.0
C74 C 0.28298 0.0452 1.01509 0.0
N75 N 0.23977 0.04155 0.08664 0.0
C76 C 0.22157 0.04478 0.15256 0.0
H77 H 0.50529 0.3386 0.19151 0.0
H78 H 0.4984 0.25586 0.25209 0.0
H79 H 0.51023 0.2802 0.99485 0.0
C80 C 0.50457 0.31806 0.17128 0.0
C81 C 0.5078 0.31225 0.08547 0.0
C82 C 0.50138 0.29786 0.23167 0.0
C83 C 0.50104 0.27133 0.20558 0.0
C84 C 0.50443 0.26461 0.12068 0.0
C85 C 0.50737 0.28524 0.06036 0.0
N86 N 0.50573 0.23736 0.09572 0.0
C87 C 0.50648 0.21598 0.15266 0.0
Tb88 Tb 1.00942 0.05578 0.59508 0.0
C89 C 0.0827 0.04803 0.93469 0.0
N90 N 0.08685 0.05336 0.85234 0.0
C91 C 0.11831 0.08745 0.88958 0.0
C92 C 0.09555 0.06273 0.99842 0.0
C93 C 0.10526 0.072 0.82885 0.0
C94 C 0.11315 0.08305 0.97484 0.0
C95 C 0.06344 1.01874 0.03889 0.0
C96 C 0.06695 0.02653 0.95447 0.0
C97 C 0.07512 0.03398 0.10333 0.0
C98 C 0.09108 0.05604 0.08309 0.0
Tb99 Tb 0.06271 0.029 0.75754 0.0
N100 N 0.05643 1.01227 0.89023 0.0
C101 C 0.04898 0.99548 0.05558 0.0
C102 C 0.04326 0.98893 0.90596 0.0
C103 C 0.03914 0.98034 0.98869 0.0
H104 H 0.1095 0.07529 0.76301 0.0
H105 H 0.02835 0.96206 1.00077 0.0
H106 H 0.9691 0.09485 0.70345 0.0
H107 H 0.99169 0.99988 0.31144 0.0
H108 H 0.03534 0.97719 0.85486 0.0
H109 H 0.04583 0.98876 0.11957 0.0
H110 H 1.01898 1.02169 0.4211 0.0
H111 H 0.1324 0.10264 0.87063 0.0
H112 H 0.0725 0.02847 0.16869 0.0
H113 H 0.10042 0.06736 0.13311 0.0
H114 H 0.9208 0.10219 0.71701 0.0
H115 H 0.12344 0.09485 0.02181 0.0
H116 H 0.94246 1.00121 0.31962 0.0
N117 N 0.965 0.06525 0.60863 0.0
C118 C 0.94798 0.05242 0.55627 0.0
C119 C 0.92816 0.08799 0.67176 0.0
C120 C 0.92023 0.05635 0.5604 0.0
C121 C 0.95559 0.08369 0.664 0.0
C122 C 0.91036 0.07402 0.62039 0.0
N123 N 0.98559 0.03513 0.49092 0.0
C124 C 0.99752 1.02264 0.42486 0.0
C125 C 0.94228 0.02461 0.43376 0.0
C126 C 0.95873 0.03679 0.49461 0.0
C127 C 0.95434 1.01082 0.36784 0.0
C128 C 0.98212 1.01013 0.36282 0.0
H129 H 0.88915 0.07759 0.62587 0.0
H130 H 0.88204 0.04587 0.50504 0.0
H131 H 0.90141 1.01809 0.39359 0.0
O132 O 0.03343 0.08986 0.58154 0.0
O133 O 1.02143 1.01389 0.58224 0.0
O134 O 0.03254 0.99967 0.71581 0.0
O135 O 1.00289 0.08095 0.49073 0.0
O136 O 0.04669 0.03731 0.5538 0.0
O137 O 0.07352 0.05521 0.65232 0.0
O138 O 0.09956 1.01068 0.78298 0.0
O139 O 0.05899 0.07194 0.73593 0.0
O140 O 1.01477 0.07892 0.71269 0.0
O141 O 0.0785 1.00288 0.66769 0.0
O142 O 1.02214 0.0297 0.81235 0.0
O143 O 0.98999 0.04304 0.71293 0.0
C144 C 1.02291 0.99501 0.63988 0.0
C145 C 0.04422 0.0983 0.44188 0.0
C146 C 0.08447 0.12097 0.39249 0.0
C147 C 0.08806 0.10052 0.33321 0.0
C148 C 0.04754 0.07892 0.37957 0.0
C149 C 0.0694 0.08003 0.32583 0.0
C150 C 0.06243 0.11943 0.44706 0.0
C151 C 0.06992 0.0474 0.57448 0.0
C152 C 0.02385 0.09538 0.50777 0.0
C153 C 0.90345 0.04326 0.50269 0.0
C154 C 0.91448 0.02745 0.43924 0.0
C155 C 0.0373 0.08575 0.7498 0.0
C156 C 0.1069 0.96949 0.7162 0.0
C157 C 0.09855 0.92445 0.76652 0.0
C158 C 0.11934 0.91525 0.71524 0.0
C159 C 0.1275 0.96007 0.66529 0.0
C160 C 0.09266 0.95175 0.76674 0.0
C161 C 0.13374 0.93303 0.66512 0.0
C162 C 0.99718 0.03463 0.78895 0.0
C163 C 0.09953 0.9976 0.71239 0.0
H164 H 0.10508 0.1004 0.29166 0.0
H165 H 0.03372 0.06256 0.37365 0.0
H166 H 0.07214 0.06469 0.27919 0.0
H167 H 0.05898 0.13478 0.49332 0.0
H168 H 0.12473 0.89443 0.71461 0.0
H169 H 0.13859 0.97358 0.62527 0.0
H170 H 0.07654 0.95925 0.80447 0.0
H171 H 0.14971 0.92582 0.62584 0.0
Tb172 Tb 0.54815 0.05072 0.76222 0.0
C173 C 0.50213 0.94311 0.65139 0.0
N174 N 0.52382 0.95563 0.62008 0.0
C175 C 0.5487 0.91508 0.62786 0.0
C176 C 0.50308 0.91623 0.6761 0.0
C177 C 0.54664 0.94184 0.60432 0.0
C178 C 0.52698 0.90236 0.6657 0.0
C179 C 0.4546 0.94377 0.67361 0.0
C180 C 0.47844 0.9567 0.65036 0.0
C181 C 0.45558 0.91763 0.70495 0.0
C182 C 0.47984 0.90384 0.70617 0.0
Tb183 Tb 0.51988 0.99989 0.59152 0.0
N184 N 0.47845 0.98151 0.61688 0.0
C185 C 0.43045 0.95689 0.65965 0.0
C186 C 0.45474 0.993 0.5945 0.0
C187 C 0.4305 0.98133 0.61787 0.0
H188 H 0.56347 0.95177 0.57577 0.0
H189 H 0.41189 0.99112 0.60306 0.0
H190 H 0.52029 0.03514 0.9441 0.0
H191 H 0.58705 0.1449 0.65372 0.0
H192 H 0.45437 1.01167 0.56087 0.0
H193 H 0.41166 0.94771 0.67666 0.0
H194 H 0.58301 0.09597 0.65871 0.0
H195 H 0.56703 0.90436 0.61733 0.0
H196 H 0.43755 0.90748 0.72445 0.0
H197 H 0.48018 0.8833 0.72683 0.0
H198 H 0.49688 0.05802 0.05846 0.0
H199 H 0.52857 0.88164 0.68376 0.0
H200 H 0.56145 0.17255 0.75331 0.0
N201 N 0.52856 0.07065 0.87572 0.0
C202 C 0.52775 0.09751 0.87631 0.0
C203 C 0.50542 0.06944 1.00759 0.0
C204 C 0.5153 0.1116 0.94172 0.0
C205 C 0.51855 0.0565 0.94202 0.0
C206 C 0.50356 0.09714 1.00717 0.0
N207 N 0.55449 0.09591 0.75732 0.0
C208 C 0.5716 0.10784 0.70201 0.0
C209 C 0.54326 0.13868 0.81511 0.0
C210 C 0.54134 0.11073 0.81443 0.0
C211 C 0.55942 0.1511 0.75512 0.0
C212 C 0.57396 0.13556 0.69903 0.0
H213 H 0.49372 0.10715 0.05865 0.0
H214 H 0.50629 0.1508 0.99023 0.0
H215 H 0.53088 0.1746 0.87897 0.0
O216 O 0.57733 1.02164 0.78337 0.0
O217 O 0.53807 0.06991 0.64155 0.0
O218 O 0.51121 0.04183 0.55985 0.0
O219 O 0.57985 0.05973 0.84451 0.0
O220 O 0.56866 0.04682 0.64057 0.0
O221 O 0.56302 1.00269 0.61534 0.0
O222 O 0.50799 0.97973 0.48176 0.0
O223 O 0.54151 0.98631 0.7042 0.0
O224 O 0.5282 1.01428 0.80704 0.0
O225 O 0.54 1.00804 0.47843 0.0
O226 O 0.49076 0.02793 0.64725 0.0
O227 O 0.50611 0.0395 0.77984 0.0
C228 C 0.52253 0.06515 0.57594 0.0
C229 C 0.62006 0.03871 0.8035 0.0
C230 C 0.66309 1.01642 0.79677 0.0
C231 C 0.67405 0.03945 0.75965 0.0
C232 C 0.63136 0.06161 0.76774 0.0
C233 C 0.65818 0.06175 0.74472 0.0
C234 C 0.63572 1.01605 0.81514 0.0
C235 C 0.57748 0.02443 0.60891 0.0
C236 C 0.59196 0.03745 0.82839 0.0
C237 C 0.51587 0.13955 0.94093 0.0
C238 C 0.52986 0.15309 0.87759 0.0
C239 C 0.53278 0.99001 0.78088 0.0
C240 C 0.51058 1.00838 0.36477 0.0
C241 C 0.47386 0.03632 0.31763 0.0
C242 C 0.48884 0.04399 0.24724 0.0
C243 C 0.52523 1.01584 0.29354 0.0
C244 C 0.48468 1.01823 0.37525 0.0
C245 C 0.5143 0.03348 0.23477 0.0
C246 C 0.48656 0.03513 0.72586 0.0
C247 C 0.52354 0.99386 0.43392 0.0
H248 H 0.6951 0.04082 0.74568 0.0
H249 H 0.61954 0.07926 0.75722 0.0
H250 H 0.66686 0.07944 0.71702 0.0
H251 H 0.62654 0.99832 0.84112 0.0
H252 H 0.48079 0.058 0.20211 0.0
H253 H 0.5454 1.00875 0.28497 0.0
H254 H 0.47338 1.01292 0.43049 0.0
H255 H 0.52581 0.03947 0.18049 0.0
Tb256 Tb 0.55261 0.51567 0.61939 0.0
C257 C 0.47132 0.50059 0.88992 0.0
N258 N 0.46861 0.51058 0.81097 0.0
C259 C 0.43017 0.48303 0.78784 0.0
C260 C 0.45437 0.48027 0.9195 0.0
C261 C 0.44763 0.50308 0.76116 0.0
C262 C 0.4338 0.47128 0.86687 0.0
C263 C 0.49363 0.5023 0.02497 0.0
C264 C 0.49065 0.51151 0.94161 0.0
C265 C 0.47783 0.48101 0.05354 0.0
C266 C 0.45817 0.47007 1.00096 0.0
Tb267 Tb 0.49759 0.54355 0.77372 0.0
N268 N 0.50503 0.5325 0.91224 0.0
C269 C 0.51152 0.51554 0.07816 0.0
C270 C 0.52038 0.54705 0.96669 0.0
C271 C 0.52452 0.53836 0.04935 0.0
H272 H 0.44477 0.51226 0.70032 0.0
H273 H 0.53729 0.54962 0.09132 0.0
H274 H 0.61103 0.52003 0.72294 0.0
H275 H 0.52676 0.54322 0.30134 0.0
H276 H 0.52904 0.56576 0.94758 0.0
H277 H 0.51441 0.50911 0.14264 0.0
H278 H 0.52112 0.51965 0.43619 0.0
H279 H 0.41396 0.47666 0.74751 0.0
H280 H 0.48002 0.47349 0.11709 0.0
H281 H 0.44559 0.45419 0.02459 0.0
H282 H 0.65274 0.54529 0.70952 0.0
H283 H 0.42029 0.45573 0.8873 0.0
H284 H 0.56628 0.57191 0.27863 0.0
N285 N 0.59329 0.53655 0.61249 0.0
C286 C 0.59785 0.55082 0.54124 0.0
C287 C 0.63727 0.54741 0.66236 0.0
C288 C 0.62191 0.5649 0.52935 0.0
C289 C 0.61319 0.53359 0.67081 0.0
C290 C 0.6415 0.56349 0.59197 0.0
N291 N 0.55625 0.53591 0.49131 0.0
C292 C 0.53812 0.53249 0.42789 0.0
C293 C 0.58298 0.56399 0.40194 0.0
C294 C 0.57878 0.5503 0.47822 0.0
C295 C 0.56375 0.56178 0.33832 0.0
C296 C 0.54139 0.54566 0.35098 0.0
H297 H 0.66027 0.57398 0.58525 0.0
H298 H 0.64409 0.59052 0.44471 0.0
H299 H 0.60977 0.58996 0.33352 0.0
O300 O 0.54347 0.47784 0.57104 0.0
O301 O 0.53648 0.55558 0.59113 0.0
O302 O 0.52507 0.57323 0.71996 0.0
O303 O 0.58397 0.49198 0.57521 0.0
O304 O 0.51058 0.5075 0.58268 0.0
O305 O 0.48664 0.542 0.64044 0.0
O306 O 0.47723 0.56878 0.85678 0.0
O307 O 0.50138 0.50043 0.74638 0.0
O308 O 0.54604 0.49618 0.74012 0.0
O309 O 0.46479 0.56519 0.72835 0.0
O310 O 0.53902 0.55611 0.80531 0.0
O311 O 0.56488 0.52225 0.75172 0.0
C312 C 0.53223 0.57607 0.64073 0.0
C313 C 0.57598 0.44766 0.6185 0.0
C314 C 0.5659 0.40233 0.66306 0.0
C315 C 0.58751 0.40304 0.71917 0.0
C316 C 0.59737 0.44827 0.67615 0.0
C317 C 0.60303 0.42605 0.72605 0.0
C318 C 0.5603 0.42467 0.61295 0.0
C319 C 0.48929 0.52293 0.58476 0.0
C320 C 0.56855 0.47129 0.56831 0.0
C321 C 0.62585 0.57937 0.45466 0.0
C322 C 0.60638 0.57898 0.3912 0.0
C323 C 0.52287 0.48631 0.76057 0.0
C324 C 0.46237 0.60738 0.78725 0.0
C325 C 0.48645 0.64959 0.79201 0.0
C326 C 0.46389 0.6623 0.75791 0.0
C327 C 0.4401 0.62033 0.75345 0.0
C328 C 0.48555 0.62198 0.80518 0.0
C329 C 0.44095 0.64768 0.73849 0.0
C330 C 0.56111 0.54182 0.80566 0.0
C331 C 0.46215 0.57841 0.79761 0.0
H332 H 0.59236 0.38583 0.75727 0.0
H333 H 0.60958 0.46592 0.68335 0.0
H334 H 0.61953 0.42666 0.77004 0.0
H335 H 0.54395 0.42398 0.56816 0.0
H336 H 0.46362 0.68361 0.74836 0.0
H337 H 0.42221 0.60924 0.73786 0.0
H338 H 0.50304 0.61169 0.82838 0.0
H339 H 0.42368 0.65764 0.71253 0.0
Tb340 Tb 0.03845 0.56655 0.62166 0.0
C341 C 0.03604 0.46655 0.85283 0.0
N342 N 1.02213 0.47235 0.7817 0.0
C343 C 0.02958 0.42803 0.73112 0.0
C344 C 0.04812 0.44155 0.86467 0.0
C345 C 1.01755 0.45296 0.7232 0.0
C346 C 0.04532 0.42244 0.80151 0.0
C347 C 0.04878 0.47937 0.99424 0.0
C348 C 0.03638 0.48508 0.91662 0.0
C349 C 0.06191 0.45498 1.00516 0.0
C350 C 0.06163 0.43611 0.94038 0.0
Tb351 Tb 1.0048 0.51446 0.77409 0.0
N352 N 0.02349 0.50836 0.90362 0.0
C353 C 0.047 0.49808 0.059 0.0
C354 C 1.02054 0.52613 0.96769 0.0
C355 C 0.03254 0.52143 0.04592 0.0
H356 H 1.00415 0.4563 0.67112 0.0
H357 H 0.03055 0.53577 0.09611 0.0
H358 H 1.00895 0.62173 0.67921 0.0
H359 H 0.05022 0.52345 0.31125 0.0
H360 H 1.00909 0.54398 0.95849 0.0
H361 H 0.0562 0.49444 0.1197 0.0
H362 H 0.06333 0.53254 0.45747 0.0
H363 H 0.02628 0.41298 0.68366 0.0
H364 H 0.07177 0.45027 0.06406 0.0
H365 H 0.0712 0.41709 0.95043 0.0
H366 H 0.97634 0.65359 0.61928 0.0
H367 H 0.05429 0.40297 0.80809 0.0
H368 H 1.01201 0.54712 0.24754 0.0
N369 N 1.00796 0.59639 0.57248 0.0
C370 C 0.99954 0.59307 0.49201 0.0
C371 C 0.98249 0.63649 0.58316 0.0
C372 C 0.9809 0.61052 0.45536 0.0
C373 C 1.00087 0.61848 0.61694 0.0
C374 C 0.97208 0.63223 0.50255 0.0
N375 N 0.03046 0.55823 0.48156 0.0
C376 C 0.04558 0.54182 0.43268 0.0
C377 C 1.0034 0.56934 0.36057 0.0
C378 C 1.01074 0.57286 0.44554 0.0
C379 C 1.01707 0.5505 0.31295 0.0
C380 C 0.03862 0.53707 0.34875 0.0
H381 H 0.95784 0.64618 0.47657 0.0
H382 H 0.95785 0.6192 0.34307 0.0
H383 H 0.9775 0.58303 0.25999 0.0
O384 O 0.06681 0.58539 0.5443 0.0
O385 O 0.99443 0.56603 0.64202 0.0
O386 O 0.98698 0.52195 0.65088 0.0
O387 O 0.06052 0.59854 0.67059 0.0
O388 O 0.04884 0.52432 0.59666 0.0
O389 O 1.01141 0.50221 0.6427 0.0
O390 O 0.96841 0.52818 0.81616 0.0
O391 O 0.04522 0.5291 0.8075 0.0
O392 O 0.0655 0.5373 0.68051 0.0
O393 O 0.97617 0.48544 0.81367 0.0
O394 O 0.99928 0.5567 0.80887 0.0
O395 O 0.03563 0.57871 0.75335 0.0
C396 C 0.97848 0.54558 0.63017 0.0
C397 C 0.10399 0.60133 0.62082 0.0
C398 C 0.14719 0.57918 0.62074 0.0
C399 C 0.15895 0.60267 0.65196 0.0
C400 C 0.11601 0.62448 0.65191 0.0
C401 C 0.14336 0.62502 0.66816 0.0
C402 C 0.11943 0.57861 0.60782 0.0
C403 C 0.03266 0.50356 0.59442 0.0
C404 C 0.07522 0.60084 0.60426 0.0
C405 C 0.97242 0.60622 0.37219 0.0
C406 C 0.98358 0.58559 0.32494 0.0
C407 C 0.06686 0.5307 0.76081 0.0
C408 C 0.93151 0.50051 0.85537 0.0
C409 C 0.88779 0.51983 0.87808 0.0
C410 C 0.87691 0.49422 0.88667 0.0
C411 C 0.9206 0.47498 0.8653 0.0
C412 C 0.915 0.52279 0.8625 0.0
C413 C 0.89334 0.47191 0.88086 0.0
C414 C 1.01582 0.57718 0.80696 0.0
C415 C 0.95898 0.50429 0.82653 0.0
H416 H 0.18027 0.60423 0.66114 0.0
H417 H 0.10425 0.6421 0.66353 0.0
H418 H 0.15261 0.64302 0.69165 0.0
H419 H 0.1097 0.56064 0.58618 0.0
H420 H 0.85591 0.49153 0.89992 0.0
H421 H 0.93291 0.45748 0.85878 0.0
H422 H 0.92313 0.54264 0.85439 0.0
H423 H 0.88492 0.4522 0.88799 0.0
H424 H 0.1687 0.04267 0.12199 0.0
H425 H 0.22617 0.05026 0.32251 0.0
H426 H 0.13242 0.04364 0.22418 0.0
H427 H 0.18993 0.05092 0.42575 0.0
H428 H 0.11663 0.07589 0.58161 0.0
H429 H 0.15329 0.07617 0.48069 0.0
H430 H 0.11155 1.01782 0.33052 0.0
H431 H 0.07477 1.01811 0.43033 0.0
C432 C 0.17352 0.0446 0.18819 0.0
C433 C 0.2002 0.04642 0.21441 0.0
C434 C 0.15272 0.045 0.247 0.0
C435 C 0.15801 0.04727 0.33386 0.0
C436 C 0.18489 0.04944 0.35967 0.0
C437 C 0.20573 0.04895 0.30062 0.0
C438 C 0.11536 0.06304 0.52719 0.0
C439 C 0.09267 0.04703 0.51414 0.0
C440 C 0.13648 0.06311 0.46927 0.0
C441 C 0.13561 0.04705 0.39674 0.0
C442 C 0.11296 0.03079 0.38458 0.0
C443 C 0.09184 0.03081 0.44226 0.0
H444 H 0.48308 0.21309 0.30603 0.0
H445 H 0.53277 0.16939 0.13521 0.0
H446 H 0.48599 0.17679 0.40842 0.0
H447 H 0.53615 0.13309 0.23758 0.0
H448 H 0.5177 0.06201 0.40579 0.0
H449 H 0.51247 0.09782 0.30347 0.0
H450 H 0.51567 0.1551 0.50521 0.0
H451 H 0.51973 0.11883 0.60725 0.0
C452 C 0.49472 0.19571 0.29059 0.0
C453 C 0.50778 0.19406 0.21289 0.0
C454 C 0.49654 0.1749 0.3495 0.0
C455 C 0.5114 0.15183 0.33206 0.0
C456 C 0.52425 0.15026 0.25341 0.0
C457 C 0.52247 0.17113 0.19469 0.0
C458 C 0.51645 0.08214 0.42824 0.0
C459 C 0.51841 0.08735 0.51471 0.0
C460 C 0.51404 0.10286 0.36945 0.0
C461 C 0.51355 0.12961 0.39539 0.0
C462 C 0.51552 0.13484 0.48237 0.0
C463 C 0.51806 0.11402 0.54109 0.0
H464 H 0.36214 0.55234 0.21457 0.0
H465 H 0.36375 0.46698 0.23357 0.0
H466 H 0.39928 0.55547 0.31424 0.0
H467 H 0.40068 0.46983 0.33499 0.0
H468 H 0.483 0.48423 0.46171 0.0
H469 H 0.44726 0.48026 0.35686 0.0
H470 H 0.40984 0.55025 0.4584 0.0
H471 H 0.44553 0.55457 0.56065 0.0
C472 C 0.37043 0.53422 0.2405 0.0
C473 C 0.36 0.50945 0.21652 0.0
C474 C 0.3917 0.53595 0.29821 0.0
C475 C 0.40319 0.51291 0.33389 0.0
C476 C 0.39274 0.48805 0.30876 0.0
C477 C 0.37141 0.48637 0.25097 0.0
C478 C 0.46721 0.49883 0.46143 0.0
C479 C 0.46749 0.5198 0.52006 0.0
C480 C 0.4465 0.49646 0.40144 0.0
C481 C 0.42544 0.51501 0.39806 0.0
C482 C 0.42576 0.5358 0.45719 0.0
C483 C 0.44633 0.53816 0.51683 0.0
H484 H 0.07821 0.36266 0.30109 0.0
H485 H 1.00744 0.39205 0.17875 0.0
H486 H 0.07738 0.4005 0.39865 0.0
H487 H 1.00665 0.42997 0.27458 0.0
H488 H 0.99336 0.47421 0.52107 0.0
H489 H 0.99709 0.43846 0.41964 0.0
H490 H 0.08245 0.44928 0.41409 0.0
H491 H 0.07864 0.48518 0.51819 0.0
C492 C 0.06256 0.37732 0.29489 0.0
C493 C 0.04275 0.37435 0.23288 0.0
C494 C 0.06216 0.39913 0.35038 0.0
C495 C 0.04184 0.4184 0.34536 0.0
C496 C 1.02236 0.41544 0.28177 0.0
C497 C 1.02284 0.39374 0.22643 0.0
C498 C 1.01301 0.46904 0.49852 0.0
C499 C 0.03573 0.48259 0.52849 0.0
C500 C 1.01513 0.44858 0.43941 0.0
C501 C 0.04007 0.4408 0.40784 0.0
C502 C 0.0629 0.45448 0.43727 0.0
C503 C 0.06074 0.47522 0.49648 0.0
H504 H 0.89759 1.00339 0.23644 0.0
H505 H 0.85154 0.05703 0.08309 0.0
H506 H 0.93286 1.0031 0.13019 0.0
H507 H 0.88678 0.05737 0.97714 0.0
H508 H 0.94278 0.034 0.76546 0.0
H509 H 0.90786 0.03223 0.87114 0.0
H510 H 0.96759 0.02845 0.06708 0.0
H511 H 1.00252 0.02999 0.96113 0.0
C512 C 0.89512 1.01521 0.17994 0.0
C513 C 0.87189 0.03024 0.16793 0.0
C514 C 0.91539 1.0152 0.11899 0.0
C515 C 0.91292 0.03019 0.04414 0.0
C516 C 0.88944 0.0452 0.03276 0.0
C517 C 0.86924 0.04519 0.09379 0.0
C518 C 0.94857 0.03279 0.83102 0.0
C519 C 0.9757 0.03213 0.85406 0.0
C520 C 0.92841 0.03189 0.89209 0.0
C521 C 0.93462 0.03033 0.97856 0.0
C522 C 0.96178 0.02928 1.0015 0.0
C523 C 0.98196 0.03018 0.94034 0.0
H524 H 0.53482 0.8966 0.24664 0.0
H525 H 0.53781 0.83712 0.05256 0.0
H526 H 0.53343 0.93164 0.13951 0.0
H527 H 0.5361 0.87201 0.94473 0.0
H528 H 0.56141 0.9435 0.7783 0.0
H529 H 0.56184 0.90776 0.88252 0.0
H530 H 0.50546 0.95122 0.03309 0.0
H531 H 0.50484 0.98669 0.92796 0.0
C532 C 0.53513 0.89106 0.18085 0.0
C533 C 0.53653 0.86419 0.15789 0.0
C534 C 0.53415 0.91113 0.11923 0.0
C535 C 0.53461 0.90484 0.03282 0.0
C536 C 0.53605 0.87777 1.01029 0.0
C537 C 0.53693 0.85771 0.07207 0.0
C538 C 0.54867 0.94516 0.83265 0.0
C539 C 0.53281 0.96786 0.8438 0.0
C540 C 0.549 0.92467 0.89296 0.0
C541 C 0.5337 0.9264 0.96692 0.0
C542 C 0.51783 0.94919 0.97787 0.0
C543 C 0.5174 0.96957 0.9173 0.0
H544 H 0.65319 0.58129 0.26612 0.0
H545 H 0.70464 0.53095 0.12134 0.0
H546 H 0.61886 0.57839 0.15578 0.0
H547 H 0.67097 0.52844 1.00985 0.0
H548 H 0.59571 0.50472 0.86742 0.0
H549 H 0.62895 0.50916 0.978 0.0
H550 H 0.60608 0.59098 1.01401 0.0
H551 H 0.57249 0.5864 0.90225 0.0
C552 C 0.65712 0.56966 0.21039 0.0
C553 C 0.68144 0.55616 0.20263 0.0
C554 C 0.63755 0.56814 0.14661 0.0
C555 C 0.64181 0.55304 0.07315 0.0
C556 C 0.66651 0.53987 0.06559 0.0
C557 C 0.68599 0.5414 0.12936 0.0
C558 C 0.59782 0.5238 0.89818 0.0
C559 C 0.58135 0.54525 0.87491 0.0
C560 C 0.61708 0.52638 0.96198 0.0
C561 C 0.62067 0.55052 1.00542 0.0
C562 C 0.60394 0.57196 0.98295 0.0
C563 C 0.58464 0.56938 0.91853 0.0
H564 H 0.96212 0.70146 0.15948 0.0
H565 H 0.04778 0.70317 0.17558 0.0
H566 H 0.96438 0.66549 0.05588 0.0
H567 H 0.05033 0.66689 0.07378 0.0
H568 H 0.04814 0.62079 0.82836 0.0
H569 H 0.04455 0.65644 0.93001 0.0
H570 H 0.97424 0.61939 0.0341 0.0
H571 H 0.9774 0.58383 0.92991 0.0
C572 C 0.98145 0.69409 0.14067 0.0
C573 C 1.00478 0.70521 0.17497 0.0
C574 C 0.9828 0.67328 0.08176 0.0
C575 C 1.00756 0.66304 0.05555 0.0
C576 C 0.03088 0.67434 0.09071 0.0
C577 C 0.02948 0.69512 0.14952 0.0
C578 C 0.03181 0.6201 0.8726 0.0
C579 C 1.01313 0.5991 0.87043 0.0
C580 C 0.02987 0.64062 0.93184 0.0
C581 C 1.00921 0.641 0.9915 0.0
C582 C 0.99034 0.62011 0.98903 0.0
C583 C 0.99226 0.59951 0.92941 0.0
H584 H 0.1376 0.26338 0.19204 0.0
H585 H 0.06862 0.26933 0.35121 0.0
H586 H 0.15481 0.22752 0.27984 0.0
H587 H 0.08535 0.23329 0.43797 0.0
H588 H 0.09897 0.15375 0.52522 0.0
H589 H 0.11455 0.19963 0.5128 0.0
H590 H 0.12623 0.18818 0.24645 0.0
H591 H 0.10929 0.14376 0.25701 0.0
C592 C 0.12705 0.25823 0.24915 0.0
C593 C 0.10143 0.26831 0.26368 0.0
C594 C 0.13684 0.23762 0.29933 0.0
C595 C 0.12077 0.22675 0.36303 0.0
C596 C 0.09803 0.24089 0.38837 0.0
C597 C 0.08834 0.26163 0.33853 0.0
C598 C 0.10518 0.16093 0.46411 0.0
C599 C 0.10169 0.14521 0.39152 0.0
C600 C 0.11457 0.18709 0.45754 0.0
C601 C 0.12131 0.19769 0.37865 0.0
C602 C 0.12145 0.18071 0.30855 0.0
C603 C 0.11153 0.15492 0.31467 0.0
H604 H 0.30615 0.0469 0.30912 0.0
H605 H 0.33811 0.11394 0.17318 0.0
H606 H 0.34621 0.04535 0.39546 0.0
H607 H 0.37898 0.11101 0.25242 0.0
H608 H 0.4589 0.0884 0.32741 0.0
H609 H 0.41378 0.10575 0.34059 0.0
H610 H 0.38347 0.02497 0.3483 0.0
H611 H 0.42848 1.00831 0.34181 0.0
C612 C 0.32123 0.0621 0.30023 0.0
C613 C 0.31974 0.07968 0.23178 0.0
C614 C 0.34458 0.06084 0.34837 0.0
C615 C 0.36685 0.07656 0.32654 0.0
C616 C 0.36287 0.09784 0.27014 0.0
C617 C 0.33922 0.09964 0.22419 0.0
C618 C 0.44244 0.07456 0.3334 0.0
C619 C 0.44693 0.04707 0.3317 0.0
C620 C 0.41653 0.08443 0.34092 0.0
C621 C 0.39451 0.06695 0.34391 0.0
C622 C 0.39952 0.03937 0.34747 0.0
C623 C 0.42541 0.02962 0.34227 0.0
H624 H 0.52537 0.271 0.36191 0.0
H625 H 0.47671 0.33977 0.30841 0.0
H626 H 0.53294 0.28702 0.50378 0.0
H627 H 0.48612 0.35691 0.44733 0.0
H628 H 0.51207 0.39482 0.66835 0.0
H629 H 0.48777 0.35986 0.59388 0.0
H630 H 0.56253 0.32061 0.54209 0.0
H631 H 0.58615 0.35469 0.61957 0.0
C632 C 0.51573 0.28924 0.3808 0.0
C633 C 0.5011 0.30456 0.32269 0.0
C634 C 0.52032 0.29857 0.46221 0.0
C635 C 0.51092 0.32368 0.48659 0.0
C636 C 0.49383 0.33751 0.43142 0.0
C637 C 0.48883 0.32794 0.35067 0.0
C638 C 0.52298 0.37796 0.64416 0.0
C639 C 0.55093 0.37758 0.64759 0.0
C640 C 0.50916 0.35807 0.60095 0.0
C641 C 0.52322 0.33795 0.55891 0.0
C642 C 0.55087 0.33573 0.57306 0.0
C643 C 0.56458 0.35537 0.61745 0.0
H644 H 0.21918 0.46392 0.30198 0.0
H645 H 0.27212 0.52997 0.35105 0.0
H646 H 0.19541 0.4732 0.43228 0.0
H647 H 0.24835 0.53938 0.4803 0.0
H648 H 0.1951 0.56147 0.68706 0.0
H649 H 0.22615 0.53067 0.62071 0.0
H650 H 0.16762 0.51401 0.42797 0.0
H651 H 0.13767 0.5453 0.48946 0.0
C652 C 0.22632 0.47978 0.34227 0.0
C653 C 0.2469 0.49674 0.31552 0.0
C654 C 0.21284 0.485 0.41691 0.0
C655 C 0.21961 0.50742 0.46512 0.0
C656 C 0.24265 0.52196 0.44451 0.0
C657 C 0.25622 0.51666 0.37004 0.0
C658 C 0.1888 0.55108 0.63084 0.0
C659 C 0.16395 0.55648 0.59296 0.0
C660 C 0.20646 0.53315 0.59376 0.0
C661 C 0.19933 0.51995 0.51922 0.0
C662 C 0.1736 0.52345 0.48627 0.0
C663 C 0.15627 0.54162 0.52201 0.0
H664 H 0.99006 0.85516 0.12681 0.0
H665 H 0.05027 0.79536 0.08752 0.0
H666 H 1.0076 0.88075 1.00865 0.0
H667 H 0.06757 0.82088 0.96827 0.0
H668 H 0.07969 0.93338 0.92476 0.0
H669 H 0.05377 0.9036 1.01259 0.0
H670 H 0.05708 0.84308 0.82107 0.0
H671 H 0.08219 0.87347 0.73021 0.0
C672 C 1.00666 0.84722 0.09163 0.0
C673 C 1.01918 0.82359 0.11722 0.0
C674 C 1.01663 0.86181 0.02413 0.0
C675 C 0.03915 0.85292 0.98059 0.0
C676 C 0.05013 0.82807 1.0009 0.0
C677 C 0.04022 0.81349 0.06898 0.0
C678 C 0.07448 0.91398 0.90015 0.0
C679 C 0.083 0.90589 0.82014 0.0
C680 C 0.05964 0.89691 0.95067 0.0
C681 C 0.05327 0.87118 0.92309 0.0
C682 C 0.0618 0.86286 0.84352 0.0
C683 C 0.07636 0.88017 0.79208 0.0
H684 H 0.79042 1.00363 0.04953 0.0
H685 H 0.74763 0.94122 0.17911 0.0
H686 H 0.76679 0.99352 0.92177 0.0
H687 H 0.72382 0.93072 0.04909 0.0
H688 H 0.7099 0.99714 0.72843 0.0
H689 H 0.74427 0.97266 0.80517 0.0
H690 H 0.68977 0.96175 1.01229 0.0
H691 H 0.65651 0.98643 0.93902 0.0
C692 C 0.77694 0.98677 0.04985 0.0
C693 C 0.77006 0.97395 0.12539 0.0
C694 C 0.76336 0.98079 0.9757 0.0
C695 C 0.74252 0.96205 0.976 0.0
C696 C 0.73916 0.94593 0.04772 0.0
C697 C 0.75265 0.95203 0.12231 0.0
C698 C 0.70515 0.989 0.78969 0.0
C699 C 0.68069 0.99478 0.82855 0.0
C700 C 0.72474 0.97468 0.83316 0.0
C701 C 0.7201 0.96588 0.91592 0.0
C702 C 0.69428 0.96813 0.94882 0.0
C703 C 0.67493 0.9826 0.90616 0.0
H704 H 0.59538 0.72296 0.13053 0.0
H705 H 0.53431 0.77645 0.04077 0.0
H706 H 0.59029 0.69647 1.00297 0.0
H707 H 0.52937 0.7503 0.91463 0.0
H708 H 0.51752 0.64028 0.93014 0.0
H709 H 0.54943 0.66972 0.99374 0.0
H710 H 0.54051 0.72485 0.78678 0.0
H711 H 0.50877 0.69441 0.72 0.0
C712 C 0.58158 0.72959 0.08236 0.0
C713 C 0.56458 0.7512 0.09703 0.0
C714 C 0.5788 0.71454 1.00915 0.0
C715 C 0.55886 0.72084 0.95008 0.0
C716 C 0.54488 0.74481 0.95886 0.0
C717 C 0.54765 0.75983 0.03187 0.0
C718 C 0.52307 0.65802 0.89563 0.0
C719 C 0.50995 0.66522 0.82073 0.0
C720 C 0.54164 0.67499 0.93231 0.0
C721 C 0.5473 0.69983 0.89586 0.0
C722 C 0.53626 0.70595 0.81677 0.0
C723 C 0.51783 0.68869 0.77923 0.0
H724 H 0.76015 0.57056 0.08691 0.0
H725 H 0.81494 0.6302 0.17961 0.0
H726 H 0.78439 0.56783 0.95871 0.0
H727 H 0.83919 0.62833 0.04718 0.0
H728 H 0.84093 0.53362 0.801 0.0
H729 H 0.81079 0.56916 0.84358 0.0
H730 H 0.86843 0.59397 0.0316 0.0
H731 H 0.89849 0.55998 0.98506 0.0
C732 C 0.77661 0.58427 0.0782 0.0
C733 C 0.78655 0.59953 0.14529 0.0
C734 C 0.79071 0.58278 1.00336 0.0
C735 C 0.81508 0.59643 0.99466 0.0
C736 C 0.82145 0.61622 0.05414 0.0
C737 C 0.80754 0.61739 0.13 0.0
C738 C 0.84714 0.54725 0.85 0.0
C739 C 0.87145 0.54364 0.89209 0.0
C740 C 0.83001 0.56765 0.87434 0.0
C741 C 0.83647 0.5839 0.9437 0.0
C742 C 0.86231 0.58206 0.97833 0.0
C743 C 0.87959 0.56218 0.95258 0.0
H744 H 0.09909 0.22825 0.994 0.0
H745 H 1.0145 0.24298 0.99232 0.0
H746 H 0.09225 0.18725 0.91921 0.0
H747 H 1.00752 0.20249 0.90964 0.0
H748 H 1.00023 0.11323 0.84203 0.0
H749 H 1.00517 0.15675 0.90885 0.0
H750 H 0.08417 0.16387 0.80301 0.0
H751 H 0.07964 0.11997 0.74221 0.0
C752 C 0.0789 0.22297 0.97627 0.0
C753 C 0.05735 0.23901 1.00109 0.0
C754 C 0.07492 0.1993 0.93166 0.0
C755 C 0.0492 0.19083 0.90737 0.0
C756 C 0.02764 0.20765 0.92815 0.0
C757 C 0.03165 0.23131 0.97449 0.0
C758 C 1.01866 0.12418 0.83361 0.0
C759 C 0.03969 0.11284 0.78793 0.0
C760 C 1.02149 0.14939 0.87144 0.0
C761 C 0.04527 0.16435 0.86315 0.0
C762 C 0.06584 0.15311 0.8144 0.0
C763 C 0.06323 0.12774 0.77859 0.0
H764 H 0.33735 1.00747 0.99488 0.0
H765 H 0.32807 0.08539 0.88639 0.0
H766 H 0.37893 1.00162 0.91698 0.0
H767 H 0.36955 0.07962 0.80753 0.0
H768 H 0.46868 1.02207 0.882 0.0
H769 H 0.42332 0.02376 0.93623 0.0
H770 H 0.39547 0.05375 0.69718 0.0
H771 H 0.44121 0.05202 0.64267 0.0
C772 C 0.34358 1.02285 0.95131 0.0
C773 C 0.32902 0.04659 0.94509 0.0
C774 C 0.36768 1.01973 0.90775 0.0
C775 C 0.37786 0.04026 0.85647 0.0
C776 C 0.36231 0.0633 0.84578 0.0
C777 C 0.33836 0.06654 0.89032 0.0
C778 C 0.45293 0.02904 0.84084 0.0
C779 C 0.45864 0.03677 0.75776 0.0
C780 C 0.42679 0.02974 0.87171 0.0
C781 C 0.40553 0.03862 0.82098 0.0
C782 C 0.41128 0.04675 0.73806 0.0
C783 C 0.43748 0.04565 0.70666 0.0
H784 H 0.54172 0.35426 0.10637 0.0
H785 H 0.48489 0.32212 0.92929 0.0
H786 H 0.54529 0.39454 0.02348 0.0
H787 H 0.48939 0.36245 0.84268 0.0
H788 H 0.47991 0.45197 0.7692 0.0
H789 H 0.4775 0.4087 0.83957 0.0
H790 H 0.56117 0.41483 0.90196 0.0
H791 H 0.56292 0.45854 0.83666 0.0
C792 C 0.53017 0.35565 0.04884 0.0
C793 C 0.51272 0.33492 0.02546 0.0
C794 C 0.53244 0.37882 1.0004 0.0
C795 C 0.51756 0.38216 0.92587 0.0
C796 C 0.50087 0.36095 0.90028 0.0
C797 C 0.49854 0.33761 0.94933 0.0
C798 C 0.49763 0.44423 0.79927 0.0
C799 C 0.52139 0.45916 0.79907 0.0
C800 C 0.49641 0.41912 0.83848 0.0
C801 C 0.51907 0.40804 0.87781 0.0
C802 C 0.54305 0.4227 0.87458 0.0
C803 C 0.54416 0.44782 0.8362 0.0
H804 H 0.23442 0.53564 0.94101 0.0
H805 H 0.19637 0.47093 0.07347 0.0
H806 H 0.19339 0.54212 0.8577 0.0
H807 H 0.15557 0.47821 0.99376 0.0
H808 H 0.07922 0.52629 0.92881 0.0
H809 H 0.12228 0.51763 0.99457 0.0
H810 H 0.15954 0.5172 0.75093 0.0
H811 H 0.11594 0.52449 0.68424 0.0
C812 C 0.21761 0.52252 0.95163 0.0
C813 C 0.21882 0.50307 1.01563 0.0
C814 C 0.19398 0.52636 0.90419 0.0
C815 C 0.17088 0.51108 0.92029 0.0
C816 C 0.17267 0.49076 0.98081 0.0
C817 C 0.19621 0.48663 0.02672 0.0
C818 C 0.09637 0.52396 0.88873 0.0
C819 C 0.09372 0.52598 0.80077 0.0
C820 C 0.12124 0.51917 0.92668 0.0
C821 C 0.14455 0.51679 0.87823 0.0
C822 C 0.14213 0.51927 0.79031 0.0
C823 C 0.11705 0.52352 0.75211 0.0
H824 H 0.96498 0.84973 0.39351 0.0
H825 H 0.04664 0.8335 0.45889 0.0
H826 H 0.96649 0.8905 0.47664 0.0
H827 H 0.04858 0.87463 0.54127 0.0
H828 H 0.04023 0.948 0.71256 0.0
H829 H 0.03466 0.90264 0.65933 0.0
H830 H 0.98643 0.93291 0.45524 0.0
H831 H 0.9917 0.97757 0.50955 0.0
C832 C 0.98299 0.85444 0.42831 0.0
C833 C 1.00549 0.83807 0.42109 0.0
C834 C 0.98407 0.8781 0.47488 0.0
C835 C 1.00782 0.88635 0.51493 0.0
C836 C 0.02987 0.86903 0.51204 0.0
C837 C 0.02874 0.84529 0.46527 0.0
C838 C 0.02853 0.94496 0.6563 0.0
C839 C 1.01733 0.96685 0.61363 0.0
C840 C 0.02531 0.91885 0.62557 0.0
C841 C 1.01022 0.91381 0.55219 0.0
C842 C 0.99808 0.93566 0.51202 0.0
C843 C 1.00152 0.9616 0.54236 0.0
H844 H 0.7302 0.05358 0.34928 0.0
H845 H 0.73636 0.97339 0.44202 0.0
H846 H 0.68688 0.05814 0.41764 0.0
H847 H 0.69391 0.97808 0.51462 0.0
H848 H 0.60413 0.98072 0.54942 0.0
H849 H 0.64877 0.97822 0.49171 0.0
H850 H 0.65927 0.0625 0.53292 0.0
H851 H 0.61392 0.06507 0.58638 0.0
C852 C 0.72267 0.03723 0.38686 0.0
C853 C 0.7369 1.01324 0.39096 0.0
C854 C 0.69768 0.03975 0.42622 0.0
C855 C 0.6862 1.01838 0.47153 0.0
C856 C 0.70131 0.99485 0.47879 0.0
C857 C 0.72603 0.99223 0.43832 0.0
C858 C 0.61587 0.99878 0.54606 0.0
C859 C 0.60516 1.02309 0.57329 0.0
C860 C 0.64186 0.99732 0.51359 0.0
C861 C 0.65832 1.02009 0.50767 0.0
C862 C 0.64748 0.04445 0.53489 0.0
C863 C 0.62134 0.04593 0.56653 0.0
H864 H 0.50294 0.72492 0.36843 0.0
H865 H 0.58627 0.72907 0.4321 0.0
H866 H 0.49855 0.68379 0.44963 0.0
H867 H 0.58201 0.68858 0.5164 0.0
H868 H 0.57512 0.59932 0.56411 0.0
H869 H 0.57816 0.64291 0.4984 0.0
H870 H 0.49745 0.6596 0.57577 0.0
H871 H 0.49406 0.6147 0.63458 0.0
C872 C 0.52011 0.71751 0.40259 0.0
C873 C 0.54482 0.73052 0.39521 0.0
C874 C 0.51768 0.69379 0.44917 0.0
C875 C 0.53997 0.6823 0.4896 0.0
C876 C 0.56443 0.6962 0.4851 0.0
C877 C 0.56686 0.71977 0.43795 0.0
C878 C 0.55793 0.61209 0.56584 0.0
C879 C 0.53438 0.60344 0.60474 0.0
C880 C 0.55978 0.63752 0.52957 0.0
C881 C 0.53813 0.65536 0.53168 0.0
C882 C 0.51457 0.64666 0.57171 0.0
C883 C 0.51272 0.62103 0.60715 0.0
H884 H 0.81343 0.5963 0.50852 0.0
H885 H 0.83059 0.53268 0.33698 0.0
H886 H 0.85669 0.58951 0.57807 0.0
H887 H 0.87389 0.52606 0.40429 0.0
H888 H 0.94407 0.50684 0.57485 0.0
H889 H 0.89869 0.51143 0.52182 0.0
H890 H 0.9034 0.59635 0.55824 0.0
H891 H 0.94846 0.59141 0.61495 0.0
C892 C 0.82618 0.58039 0.48711 0.0
C893 C 0.81822 0.56457 0.41858 0.0
C894 C 0.85127 0.57674 0.526 0.0
C895 C 0.86926 0.55724 0.49717 0.0
C896 C 0.86076 0.54099 0.42986 0.0
C897 C 0.83577 0.54469 0.39112 0.0
C898 C 0.93547 0.52654 0.57185 0.0
C899 C 0.9504 0.54884 0.59799 0.0
C900 C 0.90931 0.52922 0.54068 0.0
C901 C 0.89698 0.55433 0.53448 0.0
C902 C 0.91181 0.5766 0.56217 0.0
C903 C 0.938 0.57387 0.59359 0.0
loop_
_geom_bond_atom_site_label_1
_geom_bond_atom_site_label_2
_geom_bond_distance
_geom_bond_site_symmetry_2
_ccdc_geom_bond_type
H0 C3 0.929 . S
H1 C6 0.929 . S
H2 C8 0.930 . S
C3 H0 0.929 . S
C3 C4 1.398 . S
C3 C5 1.396 . S
C4 C3 1.398 . S
C4 C8 1.407 . S
C5 C3 1.396 . S
C5 C6 1.394 . S
C6 H1 0.929 . S
C6 C5 1.394 . S
C6 C7 1.382 . S
C7 C6 1.382 . S
C7 C8 1.392 . S
C7 N9 1.420 . S
C8 H2 0.930 . S
C8 C4 1.407 . S
C8 C7 1.392 . S
N9 C7 1.420 . S
N9 C10 1.244 . S
C10 N9 1.244 . S
H11 C14 0.929 . S
H12 C17 0.929 . S
H13 C19 0.930 . S
C14 H11 0.929 . S
C14 C15 1.398 . S
C14 C16 1.396 . S
C15 C14 1.398 . S
C15 C19 1.407 . S
C16 C14 1.396 . S
C16 C17 1.394 . S
C17 H12 0.929 . S
C17 C16 1.394 . S
C17 C18 1.382 . S
C18 C17 1.382 . S
C18 C19 1.392 . S
C18 N20 1.420 . S
C19 H13 0.930 . S
C19 C15 1.407 . S
C19 C18 1.392 . S
N20 C18 1.420 . S
N20 C21 1.244 . S
C21 N20 1.244 . S
H22 C25 0.929 . S
H23 C28 0.929 . S
H24 C30 0.930 . S
C25 H22 0.929 . S
C25 C26 1.398 . S
C25 C27 1.396 . S
C26 C25 1.398 . S
C26 C30 1.407 . S
C27 C25 1.396 . S
C27 C28 1.394 . S
C28 H23 0.929 . S
C28 C27 1.394 . S
C28 C29 1.382 . S
C29 C28 1.382 . S
C29 C30 1.392 . S
C29 N31 1.420 . S
C30 H24 0.930 . S
C30 C26 1.407 . S
C30 C29 1.392 . S
N31 C29 1.420 . S
N31 C32 1.244 . S
C32 N31 1.244 . S
H33 C36 0.929 . S
H34 C39 0.929 . S
H35 C41 0.930 . S
C36 H33 0.929 . S
C36 C37 1.398 . S
C36 C38 1.396 . S
C37 C36 1.398 . S
C37 C41 1.407 . S
C38 C36 1.396 . S
C38 C39 1.394 . S
C39 H34 0.929 . S
C39 C38 1.394 . S
C39 C40 1.382 . S
C40 C39 1.382 . S
C40 C41 1.392 . S
C40 N42 1.420 . S
C41 H35 0.930 . S
C41 C37 1.407 . S
C41 C40 1.392 . S
N42 C40 1.420 . S
N42 C43 1.244 . S
C43 N42 1.244 . S
H44 C47 0.929 . S
H45 C50 0.929 . S
H46 C52 0.930 . S
C47 H44 0.929 . S
C47 C48 1.398 1_554 S
C47 C49 1.396 . S
C48 C47 1.398 1_556 S
C48 C52 1.407 . S
C49 C47 1.396 . S
C49 C50 1.394 . S
C50 H45 0.929 . S
C50 C49 1.394 . S
C50 C51 1.382 . S
C51 C50 1.382 . S
C51 C52 1.392 1_554 S
C51 N53 1.420 . S
C52 H46 0.930 . S
C52 C48 1.407 . S
C52 C51 1.392 1_556 S
N53 C51 1.420 . S
N53 C54 1.244 . S
C54 N53 1.244 . S
H55 C58 0.929 . S
H56 C61 0.929 . S
H57 C63 0.930 . S
C58 H55 0.929 . S
C58 C59 1.398 1_554 S
C58 C60 1.396 . S
C59 C58 1.398 1_556 S
C59 C63 1.407 . S
C60 C58 1.396 . S
C60 C61 1.394 . S
C61 H56 0.929 . S
C61 C60 1.394 . S
C61 C62 1.382 . S
C62 C61 1.382 . S
C62 C63 1.392 1_554 S
C62 N64 1.420 . S
C63 H57 0.930 . S
C63 C59 1.407 . S
C63 C62 1.392 1_556 S
N64 C62 1.420 . S
N64 C65 1.244 . S
C65 N64 1.244 . S
H66 C69 0.929 . S
H67 C72 0.929 . S
H68 C74 0.930 . S
C69 H66 0.929 . S
C69 C70 1.398 1_554 S
C69 C71 1.396 . S
C70 C69 1.398 1_556 S
C70 C74 1.407 . S
C71 C69 1.396 . S
C71 C72 1.394 . S
C72 H67 0.929 . S
C72 C71 1.394 . S
C72 C73 1.382 . S
C73 C72 1.382 . S
C73 C74 1.392 1_554 S
C73 N75 1.420 . S
C74 H68 0.930 . S
C74 C70 1.407 . S
C74 C73 1.392 1_556 S
N75 C73 1.420 . S
N75 C76 1.244 . S
C76 N75 1.244 . S
H77 C80 0.929 . S
H78 C83 0.929 . S
H79 C85 0.930 . S
C80 H77 0.929 . S
C80 C81 1.398 1_554 S
C80 C82 1.396 . S
C81 C80 1.398 1_556 S
C81 C85 1.407 . S
C82 C80 1.396 . S
C82 C83 1.394 . S
C83 H78 0.929 . S
C83 C82 1.394 . S
C83 C84 1.382 . S
C84 C83 1.382 . S
C84 C85 1.392 1_554 S
C84 N86 1.420 . S
C85 H79 0.930 . S
C85 C81 1.407 . S
C85 C84 1.392 1_556 S
N86 C84 1.420 . S
N86 C87 1.244 . S
C87 N86 1.244 . S
Tb88 N117 2.617 . S
Tb88 N123 2.572 . S
Tb88 O132 2.465 1_655 S
Tb88 O133 2.387 1_545 S
Tb88 O135 2.428 . S
Tb88 O136 2.308 1_655 S
Tb88 O140 2.349 1_655 S
Tb88 O143 2.393 . S
Tb88 C152 2.802 . S
C89 N90 1.379 . S
C89 C92 1.416 . S
C89 C96 1.424 . S
N90 C89 1.379 . S
N90 C93 1.334 . S
N90 Tb99 2.617 1_545 S
C91 C93 1.390 . S
C91 C94 1.339 . S
C91 H111 0.930 . S
C92 C89 1.416 . S
C92 C94 1.416 . S
C92 C98 1.448 . S
C93 N90 1.334 . S
C93 C91 1.390 . S
C93 H104 0.930 1_545 S
C94 C91 1.339 . S
C94 C92 1.416 . S
C94 H115 0.930 . S
C95 C96 1.413 1_554 S
C95 C97 1.427 . S
C95 C101 1.416 . S
C96 C89 1.424 . S
C96 C95 1.413 1_556 S
C96 N100 1.361 . S
C97 C95 1.427 . S
C97 C98 1.328 1_554 S
C97 H112 0.929 . S
C98 C92 1.448 . S
C98 C97 1.328 1_556 S
C98 H113 0.930 1_556 S
Tb99 N90 2.617 1_565 S
Tb99 N100 2.572 1_565 S
Tb99 O134 2.349 . S
Tb99 O137 2.393 . S
Tb99 O138 2.465 . S
Tb99 O139 2.387 1_565 S
Tb99 O141 2.428 . S
Tb99 O142 2.308 1_465 S
Tb99 C163 2.802 . S
N100 C96 1.361 . S
N100 Tb99 2.572 1_545 S
N100 C102 1.340 . S
C101 C95 1.416 . S
C101 C103 1.332 . S
C101 H109 0.931 . S
C102 N100 1.340 . S
C102 C103 1.407 1_556 S
C102 H108 0.930 1_455 S
C103 C101 1.332 . S
C103 C102 1.407 1_554 S
C103 H105 0.912 1_455 S
H104 C93 0.930 1_565 S
H105 C103 0.912 1_655 S
H106 C121 0.930 . S
H107 C128 0.929 . S
H108 C102 0.930 1_655 S
H109 C101 0.931 . S
H110 C124 0.930 . S
H111 C91 0.930 . S
H112 C97 0.929 . S
H113 C98 0.930 1_554 S
H114 C119 0.930 . S
H115 C94 0.930 . S
H116 C127 0.931 . S
N117 Tb88 2.617 . S
N117 C118 1.379 . S
N117 C121 1.334 . S
C118 N117 1.379 . S
C118 C120 1.416 1_545 S
C118 C126 1.424 . S
C119 H114 0.930 . S
C119 C121 1.390 . S
C119 C122 1.339 1_545 S
C120 C118 1.416 1_565 S
C120 C122 1.416 . S
C120 C153 1.448 . S
C121 H106 0.930 . S
C121 N117 1.334 . S
C121 C119 1.390 . S
C122 C119 1.339 1_565 S
C122 C120 1.416 . S
C122 H129 0.930 . S
N123 Tb88 2.572 . S
N123 C124 1.340 1_655 S
N123 C126 1.361 . S
C124 H110 0.930 . S
C124 N123 1.340 1_455 S
C124 C128 1.407 1_545 S
C125 C126 1.413 1_565 S
C125 C127 1.416 . S
C125 C154 1.427 . S
C126 C118 1.424 . S
C126 N123 1.361 . S
C126 C125 1.413 1_545 S
C127 H116 0.931 . S
C127 C125 1.416 . S
C127 C128 1.332 1_655 S
C128 H107 0.929 . S
C128 C124 1.407 1_565 S
C128 C127 1.332 1_455 S
H129 C122 0.930 . S
H130 C153 0.930 . S
H131 C154 0.929 . S
O132 Tb88 2.465 1_455 S
O132 C152 1.264 1_455 S
O133 Tb88 2.387 1_565 S
O133 C144 1.264 . S
O134 Tb99 2.349 . S
O134 C144 1.243 1_455 S
O135 Tb88 2.428 . S
O135 C152 1.256 . S
O136 Tb88 2.308 1_455 S
O136 C151 1.266 . S
O137 Tb99 2.393 . S
O137 C151 1.248 1_565 S
O138 Tb99 2.465 . S
O138 C163 1.264 . S
O139 Tb99 2.387 1_545 S
O139 C155 1.264 . S
O140 Tb88 2.349 1_455 S
O140 C155 1.243 . S
O141 Tb99 2.428 . S
O141 C163 1.256 . S
O142 Tb99 2.308 1_645 S
O142 C162 1.266 . S
O143 Tb88 2.393 . S
O143 C162 1.248 . S
C144 O133 1.264 . S
C144 O134 1.243 1_655 S
C145 C148 1.399 . S
C145 C150 1.383 . S
C145 C152 1.496 . S
C146 C147 1.399 . S
C146 C150 1.389 . S
C147 C146 1.399 . S
C147 C149 1.380 . S
C147 H164 0.929 . S
C148 C145 1.399 . S
C148 C149 1.392 . S
C148 H165 0.929 . S
C149 C147 1.380 . S
C149 C148 1.392 . S
C149 H166 0.929 . S
C150 C145 1.383 . S
C150 C146 1.389 . S
C150 H167 0.931 1_655 S
C151 O136 1.266 . S
C151 O137 1.248 1_545 S
C152 Tb88 2.802 . S
C152 O132 1.264 1_655 S
C152 O135 1.256 . S
C152 C145 1.496 . S
C153 C120 1.448 . S
C153 H130 0.930 . S
C153 C154 1.328 . S
C154 C125 1.427 . S
C154 H131 0.929 . S
C154 C153 1.328 . S
C155 O139 1.264 . S
C155 O140 1.243 . S
C156 C159 1.399 . S
C156 C160 1.383 . S
C156 C163 1.496 . S
C157 C158 1.399 . S
C157 C160 1.389 . S
C158 C157 1.399 . S
C158 C161 1.380 . S
C158 H168 0.929 . S
C159 C156 1.399 . S
C159 C161 1.392 . S
C159 H169 0.929 . S
C160 C156 1.383 . S
C160 C157 1.389 . S
C160 H170 0.931 . S
C161 C158 1.380 . S
C161 C159 1.392 . S
C161 H171 0.929 . S
C162 O142 1.266 . S
C162 O143 1.248 . S
C163 Tb99 2.802 . S
C163 O138 1.264 . S
C163 O141 1.256 . S
C163 C156 1.496 . S
H164 C147 0.929 . S
H165 C148 0.929 . S
H166 C149 0.929 . S
H167 C150 0.931 1_455 S
H168 C158 0.929 . S
H169 C159 0.929 . S
H170 C160 0.931 . S
H171 C161 0.929 . S
Tb172 N201 2.617 . S
Tb172 N207 2.572 . S
Tb172 O216 2.465 . S
Tb172 O217 2.387 . S
Tb172 O219 2.428 . S
Tb172 O220 2.308 . S
Tb172 O224 2.349 1_545 S
Tb172 O227 2.393 . S
Tb172 C236 2.802 . S
C173 N174 1.379 . S
C173 C176 1.416 . S
C173 C180 1.424 . S
N174 C173 1.379 . S
N174 C177 1.334 . S
N174 Tb183 2.617 . S
C175 C177 1.390 . S
C175 C178 1.339 . S
C175 H195 0.930 . S
C176 C173 1.416 . S
C176 C178 1.416 . S
C176 C182 1.448 . S
C177 N174 1.334 . S
C177 C175 1.390 . S
C177 H188 0.930 . S
C178 C175 1.339 . S
C178 C176 1.416 . S
C178 H199 0.930 . S
C179 C180 1.413 . S
C179 C181 1.427 . S
C179 C185 1.416 . S
C180 C173 1.424 . S
C180 C179 1.413 . S
C180 N184 1.361 . S
C181 C179 1.427 . S
C181 C182 1.328 . S
C181 H196 0.929 . S
C182 C176 1.448 . S
C182 C181 1.328 . S
C182 H197 0.930 . S
Tb183 N174 2.617 . S
Tb183 N184 2.572 . S
Tb183 O218 2.349 1_565 S
Tb183 O221 2.393 . S
Tb183 O222 2.465 . S
Tb183 O223 2.387 . S
Tb183 O225 2.428 . S
Tb183 O226 2.308 1_565 S
Tb183 C247 2.802 . S
N184 C180 1.361 . S
N184 Tb183 2.572 . S
N184 C186 1.340 . S
C185 C179 1.416 . S
C185 C187 1.332 . S
C185 H193 0.931 . S
C186 N184 1.340 . S
C186 C187 1.407 . S
C186 H192 0.930 . S
C187 C185 1.332 . S
C187 C186 1.407 . S
C187 H189 0.929 . S
H188 C177 0.930 . S
H189 C187 0.929 . S
H190 C205 0.930 . S
H191 C212 0.929 . S
H192 C186 0.930 . S
H193 C185 0.931 . S
H194 C208 0.930 . S
H195 C175 0.930 . S
H196 C181 0.929 . S
H197 C182 0.930 . S
H198 C203 0.930 . S
H199 C178 0.930 . S
H200 C211 0.931 . S
N201 Tb172 2.617 . S
N201 C202 1.379 . S
N201 C205 1.334 . S
C202 N201 1.379 . S
C202 C204 1.416 . S
C202 C210 1.424 . S
C203 H198 0.930 . S
C203 C205 1.390 . S
C203 C206 1.339 . S
C204 C202 1.416 . S
C204 C206 1.416 . S
C204 C237 1.448 . S
C205 H190 0.930 . S
C205 N201 1.334 . S
C205 C203 1.390 . S
C206 C203 1.339 . S
C206 C204 1.416 . S
C206 H213 0.930 . S
N207 Tb172 2.572 . S
N207 C208 1.340 . S
N207 C210 1.361 . S
C208 H194 0.930 . S
C208 N207 1.340 . S
C208 C212 1.407 . S
C209 C210 1.413 . S
C209 C211 1.416 . S
C209 C238 1.427 . S
C210 C202 1.424 . S
C210 N207 1.361 . S
C210 C209 1.413 . S
C211 H200 0.931 . S
C211 C209 1.416 . S
C211 C212 1.332 . S
C212 H191 0.929 . S
C212 C208 1.407 . S
C212 C211 1.332 . S
H213 C206 0.930 . S
H214 C237 0.930 . S
H215 C238 0.929 . S
O216 Tb172 2.465 . S
O216 C236 1.264 . S
O217 Tb172 2.387 . S
O217 C228 1.264 . S
O218 Tb183 2.349 1_545 S
O218 C228 1.243 . S
O219 Tb172 2.428 . S
O219 C236 1.256 . S
O220 Tb172 2.308 . S
O220 C235 1.266 . S
O221 Tb183 2.393 . S
O221 C235 1.248 1_565 S
O222 Tb183 2.465 . S
O222 C247 1.264 . S
O223 Tb183 2.387 . S
O223 C239 1.264 . S
O224 Tb172 2.349 1_565 S
O224 C239 1.243 . S
O225 Tb183 2.428 . S
O225 C247 1.256 . S
O226 Tb183 2.308 1_545 S
O226 C246 1.266 . S
O227 Tb172 2.393 . S
O227 C246 1.248 . S
C228 O217 1.264 . S
C228 O218 1.243 . S
C229 C232 1.399 1_556 S
C229 C234 1.383 . S
C229 C236 1.496 . S
C230 C231 1.399 . S
C230 C234 1.389 1_554 S
C231 C230 1.399 . S
C231 C233 1.380 . S
C231 H248 0.929 . S
C232 C229 1.399 1_554 S
C232 C233 1.392 . S
C232 H249 0.929 . S
C233 C231 1.380 . S
C233 C232 1.392 . S
C233 H250 0.929 . S
C234 C229 1.383 . S
C234 C230 1.389 1_556 S
C234 H251 0.931 . S
C235 O220 1.266 . S
C235 O221 1.248 1_545 S
C236 Tb172 2.802 . S
C236 O216 1.264 . S
C236 O219 1.256 . S
C236 C229 1.496 . S
C237 C204 1.448 . S
C237 H214 0.930 . S
C237 C238 1.328 . S
C238 C209 1.427 . S
C238 H215 0.929 . S
C238 C237 1.328 . S
C239 O223 1.264 . S
C239 O224 1.243 . S
C240 C243 1.399 . S
C240 C244 1.383 1_565 S
C240 C247 1.496 . S
C241 C242 1.399 1_545 S
C241 C244 1.389 . S
C242 C241 1.399 1_565 S
C242 C245 1.380 . S
C242 H252 0.929 . S
C243 C240 1.399 . S
C243 C245 1.392 . S
C243 H253 0.929 . S
C244 C240 1.383 1_545 S
C244 C241 1.389 . S
C244 H254 0.931 . S
C245 C242 1.380 . S
C245 C243 1.392 . S
C245 H255 0.929 . S
C246 O226 1.266 . S
C246 O227 1.248 . S
C247 Tb183 2.802 . S
C247 O222 1.264 . S
C247 O225 1.256 . S
C247 C240 1.496 . S
H248 C231 0.929 . S
H249 C232 0.929 . S
H250 C233 0.929 . S
H251 C234 0.931 . S
H252 C242 0.929 . S
H253 C243 0.929 . S
H254 C244 0.931 . S
H255 C245 0.929 . S
Tb256 N285 2.617 . S
Tb256 N291 2.572 . S
Tb256 O300 2.465 . S
Tb256 O301 2.387 . S
Tb256 O303 2.428 . S
Tb256 O304 2.308 . S
Tb256 O308 2.349 . S
Tb256 O311 2.393 . S
Tb256 C320 2.802 . S
C257 N258 1.379 . S
C257 C260 1.416 . S
C257 C264 1.424 . S
N258 C257 1.379 . S
N258 C261 1.334 . S
N258 Tb267 2.617 . S
C259 C261 1.390 . S
C259 C262 1.339 . S
C259 H279 0.930 . S
C260 C257 1.416 . S
C260 C262 1.416 . S
C260 C266 1.448 . S
C261 N258 1.334 . S
C261 C259 1.390 . S
C261 H272 0.930 . S
C262 C259 1.339 . S
C262 C260 1.416 . S
C262 H283 0.930 . S
C263 C264 1.413 1_554 S
C263 C265 1.427 . S
C263 C269 1.416 . S
C264 C257 1.424 . S
C264 C263 1.413 1_556 S
C264 N268 1.361 . S
C265 C263 1.427 . S
C265 C266 1.328 1_554 S
C265 H280 0.929 . S
C266 C260 1.448 . S
C266 C265 1.328 1_556 S
C266 H281 0.930 1_556 S
Tb267 N258 2.617 . S
Tb267 N268 2.572 . S
Tb267 O302 2.349 . S
Tb267 O305 2.393 . S
Tb267 O306 2.465 . S
Tb267 O307 2.387 . S
Tb267 O309 2.428 . S
Tb267 O310 2.308 . S
Tb267 C331 2.802 . S
N268 C264 1.361 . S
N268 Tb267 2.572 . S
N268 C270 1.340 . S
C269 C263 1.416 . S
C269 C271 1.332 . S
C269 H277 0.931 . S
C270 N268 1.340 . S
C270 C271 1.407 1_556 S
C270 H276 0.930 . S
C271 C269 1.332 . S
C271 C270 1.407 1_554 S
C271 H273 0.929 . S
H272 C261 0.930 . S
H273 C271 0.929 . S
H274 C289 0.930 . S
H275 C296 0.929 . S
H276 C270 0.930 . S
H277 C269 0.931 . S
H278 C292 0.930 . S
H279 C259 0.930 . S
H280 C265 0.929 . S
H281 C266 0.930 1_554 S
H282 C287 0.930 . S
H283 C262 0.930 . S
H284 C295 0.931 . S
N285 Tb256 2.617 . S
N285 C286 1.379 . S
N285 C289 1.334 . S
C286 N285 1.379 . S
C286 C288 1.416 . S
C286 C294 1.424 . S
C287 H282 0.930 . S
C287 C289 1.390 . S
C287 C290 1.339 . S
C288 C286 1.416 . S
C288 C290 1.416 . S
C288 C321 1.448 . S
C289 H274 0.930 . S
C289 N285 1.334 . S
C289 C287 1.390 . S
C290 C287 1.339 . S
C290 C288 1.416 . S
C290 H297 0.930 . S
N291 Tb256 2.572 . S
N291 C292 1.340 . S
N291 C294 1.361 . S
C292 H278 0.930 . S
C292 N291 1.340 . S
C292 C296 1.407 . S
C293 C294 1.413 . S
C293 C295 1.416 . S
C293 C322 1.427 . S
C294 C286 1.424 . S
C294 N291 1.361 . S
C294 C293 1.413 . S
C295 H284 0.931 . S
C295 C293 1.416 . S
C295 C296 1.332 . S
C296 H275 0.929 . S
C296 C292 1.407 . S
C296 C295 1.332 . S
H297 C290 0.930 . S
H298 C321 0.930 . S
H299 C322 0.929 . S
O300 Tb256 2.465 . S
O300 C320 1.264 . S
O301 Tb256 2.387 . S
O301 C312 1.264 . S
O302 Tb267 2.349 . S
O302 C312 1.243 . S
O303 Tb256 2.428 . S
O303 C320 1.256 . S
O304 Tb256 2.308 . S
O304 C319 1.266 . S
O305 Tb267 2.393 . S
O305 C319 1.248 . S
O306 Tb267 2.465 . S
O306 C331 1.264 . S
O307 Tb267 2.387 . S
O307 C323 1.264 . S
O308 Tb256 2.349 . S
O308 C323 1.243 . S
O309 Tb267 2.428 . S
O309 C331 1.256 . S
O310 Tb267 2.308 . S
O310 C330 1.266 . S
O311 Tb256 2.393 . S
O311 C330 1.248 . S
C312 O301 1.264 . S
C312 O302 1.243 . S
C313 C316 1.399 . S
C313 C318 1.383 . S
C313 C320 1.496 . S
C314 C315 1.399 . S
C314 C318 1.389 . S
C315 C314 1.399 . S
C315 C317 1.380 . S
C315 H332 0.929 . S
C316 C313 1.399 . S
C316 C317 1.392 . S
C316 H333 0.929 . S
C317 C315 1.380 . S
C317 C316 1.392 . S
C317 H334 0.929 . S
C318 C313 1.383 . S
C318 C314 1.389 . S
C318 H335 0.931 . S
C319 O304 1.266 . S
C319 O305 1.248 . S
C320 Tb256 2.802 . S
C320 O300 1.264 . S
C320 O303 1.256 . S
C320 C313 1.496 . S
C321 C288 1.448 . S
C321 H298 0.930 . S
C321 C322 1.328 . S
C322 C293 1.427 . S
C322 H299 0.929 . S
C322 C321 1.328 . S
C323 O307 1.264 . S
C323 O308 1.243 . S
C324 C327 1.399 . S
C324 C328 1.383 . S
C324 C331 1.496 . S
C325 C326 1.399 . S
C325 C328 1.389 . S
C326 C325 1.399 . S
C326 C329 1.380 . S
C326 H336 0.930 1_556 S
C327 C324 1.399 . S
C327 C329 1.392 . S
C327 H337 0.929 . S
C328 C324 1.383 . S
C328 C325 1.389 . S
C328 H338 0.931 . S
C329 C326 1.380 . S
C329 C327 1.392 . S
C329 H339 0.929 . S
C330 O310 1.266 . S
C330 O311 1.248 . S
C331 Tb267 2.802 . S
C331 O306 1.264 . S
C331 O309 1.256 . S
C331 C324 1.496 . S
H332 C315 0.929 . S
H333 C316 0.929 . S
H334 C317 0.929 . S
H335 C318 0.931 . S
H336 C326 0.930 1_554 S
H337 C327 0.929 . S
H338 C328 0.931 . S
H339 C329 0.929 . S
Tb340 N369 2.617 . S
Tb340 N375 2.572 . S
Tb340 O384 2.465 . S
Tb340 O385 2.387 1_455 S
Tb340 O387 2.428 . S
Tb340 O388 2.308 . S
Tb340 O392 2.349 . S
Tb340 O395 2.393 . S
Tb340 C404 2.802 . S
C341 N342 1.379 . S
C341 C344 1.416 . S
C341 C348 1.424 . S
N342 C341 1.379 . S
N342 C345 1.331 1_455 S
N342 Tb351 2.617 1_455 S
C343 C345 1.379 1_455 S
C343 C346 1.339 . S
C343 H363 0.930 . S
C344 C341 1.416 . S
C344 C346 1.416 . S
C344 C350 1.448 . S
C345 N342 1.331 1_655 S
C345 C343 1.379 1_655 S
C345 H356 0.946 . S
C346 C343 1.339 . S
C346 C344 1.416 . S
C346 H367 0.930 . S
C347 C348 1.413 1_554 S
C347 C349 1.427 . S
C347 C353 1.416 . S
C348 C341 1.424 . S
C348 C347 1.413 1_556 S
C348 N352 1.361 . S
C349 C347 1.427 . S
C349 C350 1.328 1_554 S
C349 H364 0.929 . S
C350 C344 1.448 . S
C350 C349 1.328 1_556 S
C350 H365 0.930 1_556 S
Tb351 N342 2.617 1_655 S
Tb351 N352 2.572 1_655 S
Tb351 O386 2.349 . S
Tb351 O389 2.393 . S
Tb351 O390 2.465 . S
Tb351 O391 2.387 1_655 S
Tb351 O393 2.428 . S
Tb351 O394 2.308 1_655 S
Tb351 C415 2.802 . S
N352 C348 1.361 . S
N352 Tb351 2.572 1_455 S
N352 C354 1.340 . S
C353 C347 1.416 . S
C353 C355 1.332 . S
C353 H361 0.931 . S
C354 N352 1.340 . S
C354 C355 1.407 1_556 S
C354 H360 0.930 . S
C355 C353 1.332 . S
C355 C354 1.407 1_554 S
C355 H357 0.929 . S
H356 C345 0.946 . S
H357 C355 0.929 . S
H358 C373 0.930 . S
H359 C380 0.929 . S
H360 C354 0.930 . S
H361 C353 0.931 . S
H362 C376 0.930 . S
H363 C343 0.930 . S
H364 C349 0.929 . S
H365 C350 0.930 1_554 S
H366 C371 0.930 . S
H367 C346 0.930 . S
H368 C379 0.931 . S
N369 Tb340 2.617 . S
N369 C370 1.379 . S
N369 C373 1.334 . S
C370 N369 1.379 . S
C370 C372 1.416 1_455 S
C370 C378 1.426 . S
C371 H366 0.930 . S
C371 C373 1.390 . S
C371 C374 1.339 1_455 S
C372 C370 1.416 1_655 S
C372 C374 1.416 . S
C372 C405 1.448 . S
C373 H358 0.930 . S
C373 N369 1.334 . S
C373 C371 1.390 . S
C374 C371 1.339 1_655 S
C374 C372 1.416 . S
C374 H381 0.930 . S
N375 Tb340 2.572 . S
N375 C376 1.340 . S
N375 C378 1.369 . S
C376 H362 0.930 . S
C376 N375 1.340 . S
C376 C380 1.407 1_455 S
C377 C378 1.403 1_655 S
C377 C379 1.416 . S
C377 C406 1.427 . S
C378 C370 1.426 . S
C378 N375 1.369 . S
C378 C377 1.403 1_455 S
C379 H368 0.931 . S
C379 C377 1.416 . S
C379 C380 1.332 . S
C380 H359 0.929 . S
C380 C376 1.407 1_655 S
C380 C379 1.332 . S
H381 C374 0.930 . S
H382 C405 0.930 . S
H383 C406 0.929 . S
O384 Tb340 2.465 . S
O384 C404 1.264 . S
O385 Tb340 2.387 1_655 S
O385 C396 1.264 . S
O386 Tb351 2.349 . S
O386 C396 1.243 . S
O387 Tb340 2.428 . S
O387 C404 1.256 . S
O388 Tb340 2.308 . S
O388 C403 1.266 . S
O389 Tb351 2.393 . S
O389 C403 1.248 1_655 S
O390 Tb351 2.465 . S
O390 C415 1.264 . S
O391 Tb351 2.387 1_455 S
O391 C407 1.264 . S
O392 Tb340 2.349 . S
O392 C407 1.243 . S
O393 Tb351 2.428 . S
O393 C415 1.256 . S
O394 Tb351 2.308 1_455 S
O394 C414 1.266 . S
O395 Tb340 2.393 . S
O395 C414 1.248 . S
C396 O385 1.264 . S
C396 O386 1.243 . S
C397 C400 1.399 . S
C397 C402 1.383 . S
C397 C404 1.496 . S
C398 C399 1.399 . S
C398 C402 1.389 . S
C399 C398 1.399 . S
C399 C401 1.380 . S
C399 H416 0.929 . S
C400 C397 1.399 . S
C400 C401 1.392 . S
C400 H417 0.929 . S
C401 C399 1.380 . S
C401 C400 1.392 . S
C401 H418 0.929 . S
C402 C397 1.383 . S
C402 C398 1.389 . S
C402 H419 0.931 . S
C403 O388 1.266 . S
C403 O389 1.248 1_455 S
C404 Tb340 2.802 . S
C404 O384 1.264 . S
C404 O387 1.256 . S
C404 C397 1.496 . S
C405 C372 1.448 . S
C405 H382 0.930 . S
C405 C406 1.328 . S
C406 C377 1.427 . S
C406 H383 0.929 . S
C406 C405 1.328 . S
C407 O391 1.264 . S
C407 O392 1.243 . S
C408 C411 1.399 . S
C408 C412 1.383 . S
C408 C415 1.496 . S
C409 C410 1.399 . S
C409 C412 1.389 . S
C410 C409 1.399 . S
C410 C413 1.380 . S
C410 H420 0.929 . S
C411 C408 1.399 . S
C411 C413 1.392 . S
C411 H421 0.929 . S
C412 C408 1.383 . S
C412 C409 1.389 . S
C412 H422 0.931 . S
C413 C410 1.380 . S
C413 C411 1.392 . S
C413 H423 0.929 . S
C414 O394 1.266 . S
C414 O395 1.248 . S
C415 Tb351 2.802 . S
C415 O390 1.264 . S
C415 O393 1.256 . S
C415 C408 1.496 . S
H416 C399 0.929 . S
H417 C400 0.929 . S
H418 C401 0.929 . S
H419 C402 0.931 . S
H420 C410 0.929 . S
H421 C411 0.929 . S
H422 C412 0.931 . S
H423 C413 0.929 . S
H424 C432 0.950 . S
H425 C437 0.942 1_565 S
H426 C434 0.950 . S
H427 C436 0.950 1_565 S
H428 C438 0.922 1_565 S
H429 C440 0.950 1_565 S
H430 C442 0.950 . S
H431 C443 0.950 . S
C432 H424 0.950 . S
C432 C433 1.386 . S
C432 C434 1.391 . S
C433 C432 1.386 . S
C433 C437 1.393 . S
C434 H426 0.950 . S
C434 C432 1.391 . S
C434 C435 1.400 . S
C435 C434 1.400 . S
C435 C436 1.398 . S
C435 C441 1.491 . S
C436 H427 0.950 1_545 S
C436 C435 1.398 . S
C436 C437 1.391 . S
C437 H425 0.942 1_545 S
C437 C433 1.393 . S
C437 C436 1.391 . S
C438 H428 0.922 1_545 S
C438 C439 1.410 . S
C438 C440 1.395 . S
C439 C438 1.410 . S
C439 C443 1.393 . S
C440 H429 0.950 1_545 S
C440 C438 1.395 . S
C440 C441 1.400 . S
C441 C435 1.491 . S
C441 C440 1.400 . S
C441 C442 1.398 . S
C442 H430 0.950 . S
C442 C441 1.398 . S
C442 C443 1.391 . S
C443 H431 0.950 . S
C443 C439 1.393 . S
C443 C442 1.391 . S
H444 C452 0.950 . S
H445 C457 0.950 . S
H446 C454 0.950 . S
H447 C456 0.950 . S
H448 C458 0.950 . S
H449 C460 0.950 . S
H450 C462 0.950 . S
H451 C463 0.950 . S
C452 H444 0.950 . S
C452 C453 1.386 . S
C452 C454 1.391 . S
C453 C452 1.386 . S
C453 C457 1.393 . S
C454 H446 0.950 . S
C454 C452 1.391 . S
C454 C455 1.400 . S
C455 C454 1.400 . S
C455 C456 1.398 . S
C455 C461 1.491 . S
C456 H447 0.950 . S
C456 C455 1.398 . S
C456 C457 1.391 . S
C457 H445 0.950 . S
C457 C453 1.393 . S
C457 C456 1.391 . S
C458 H448 0.950 . S
C458 C459 1.386 . S
C458 C460 1.391 . S
C459 C458 1.386 . S
C459 C463 1.393 . S
C460 H449 0.950 . S
C460 C458 1.391 . S
C460 C461 1.400 . S
C461 C455 1.491 . S
C461 C460 1.400 . S
C461 C462 1.398 . S
C462 H450 0.950 . S
C462 C461 1.398 . S
C462 C463 1.391 . S
C463 H451 0.950 . S
C463 C459 1.393 . S
C463 C462 1.391 . S
H464 C472 0.950 . S
H465 C477 0.950 . S
H466 C474 0.950 . S
H467 C476 0.950 . S
H468 C478 0.950 . S
H469 C480 0.950 . S
H470 C482 0.950 . S
H471 C483 0.950 . S
C472 H464 0.950 . S
C472 C473 1.386 . S
C472 C474 1.391 . S
C473 C472 1.386 . S
C473 C477 1.393 . S
C474 H466 0.950 . S
C474 C472 1.391 . S
C474 C475 1.400 . S
C475 C474 1.400 . S
C475 C476 1.398 . S
C475 C481 1.491 . S
C476 H467 0.950 . S
C476 C475 1.398 . S
C476 C477 1.391 . S
C477 H465 0.950 . S
C477 C473 1.393 . S
C477 C476 1.391 . S
C478 H468 0.950 . S
C478 C479 1.386 . S
C478 C480 1.391 . S
C479 C478 1.386 . S
C479 C483 1.393 . S
C480 H469 0.950 . S
C480 C478 1.391 . S
C480 C481 1.400 . S
C481 C475 1.491 . S
C481 C480 1.400 . S
C481 C482 1.398 . S
C482 H470 0.950 . S
C482 C481 1.398 . S
C482 C483 1.391 . S
C483 H471 0.950 . S
C483 C479 1.393 . S
C483 C482 1.391 . S
H484 C492 0.950 . S
H485 C497 0.950 1_655 S
H486 C494 0.950 . S
H487 C496 0.950 1_655 S
H488 C498 0.950 . S
H489 C500 0.939 1_655 S
H490 C502 0.950 . S
H491 C503 0.950 . S
C492 H484 0.950 . S
C492 C493 1.386 . S
C492 C494 1.391 . S
C493 C492 1.386 . S
C493 C497 1.393 . S
C494 H486 0.950 . S
C494 C492 1.391 . S
C494 C495 1.400 . S
C495 C494 1.400 . S
C495 C496 1.398 . S
C495 C501 1.491 . S
C496 H487 0.950 1_455 S
C496 C495 1.398 . S
C496 C497 1.391 . S
C497 H485 0.950 1_455 S
C497 C493 1.393 . S
C497 C496 1.391 . S
C498 H488 0.950 . S
C498 C499 1.386 1_655 S
C498 C500 1.390 1_655 S
C499 C498 1.386 1_455 S
C499 C503 1.393 . S
C500 H489 0.939 1_455 S
C500 C498 1.390 1_455 S
C500 C501 1.412 . S
C501 C495 1.491 . S
C501 C500 1.412 . S
C501 C502 1.398 . S
C502 H490 0.950 . S
C502 C501 1.398 . S
C502 C503 1.391 . S
C503 H491 0.950 . S
C503 C499 1.393 . S
C503 C502 1.391 . S
H504 C512 0.950 . S
H505 C517 0.969 . S
H506 C514 0.955 . S
H507 C516 0.950 . S
H508 C518 0.950 . S
H509 C520 0.950 1_554 S
H510 C522 0.950 . S
H511 C523 0.950 . S
C512 H504 0.950 . S
C512 C513 1.386 . S
C512 C514 1.391 . S
C513 C512 1.386 . S
C513 C517 1.369 1_565 S
C514 H506 0.955 . S
C514 C512 1.391 . S
C514 C515 1.400 . S
C515 C514 1.400 . S
C515 C516 1.398 1_565 S
C515 C521 1.491 1_554 S
C516 H507 0.950 . S
C516 C515 1.398 1_545 S
C516 C517 1.396 . S
C517 H505 0.969 . S
C517 C513 1.369 1_545 S
C517 C516 1.396 . S
C518 H508 0.950 . S
C518 C519 1.368 1_545 S
C518 C520 1.391 . S
C519 C518 1.368 1_565 S
C519 C523 1.416 . S
C520 H509 0.950 1_556 S
C520 C518 1.391 . S
C520 C521 1.400 1_545 S
C521 C515 1.491 1_556 S
C521 C520 1.400 1_565 S
C521 C522 1.398 . S
C522 H510 0.950 . S
C522 C521 1.398 . S
C522 C523 1.391 . S
C523 H511 0.950 . S
C523 C519 1.416 . S
C523 C522 1.391 . S
H524 C532 0.950 . S
H525 C537 0.950 . S
H526 C534 0.950 . S
H527 C536 0.952 . S
H528 C538 0.950 . S
H529 C540 0.950 . S
H530 C542 0.950 1_554 S
H531 C543 0.950 . S
C532 H524 0.950 . S
C532 C533 1.386 . S
C532 C534 1.391 . S
C533 C532 1.386 . S
C533 C537 1.393 . S
C534 H526 0.950 . S
C534 C532 1.391 . S
C534 C535 1.400 . S
C535 C534 1.400 . S
C535 C536 1.398 . S
C535 C541 1.491 1_554 S
C536 H527 0.952 . S
C536 C535 1.398 . S
C536 C537 1.391 . S
C537 H525 0.950 . S
C537 C533 1.393 . S
C537 C536 1.391 . S
C538 H528 0.950 . S
C538 C539 1.386 . S
C538 C540 1.391 . S
C539 C538 1.386 . S
C539 C543 1.393 . S
C540 H529 0.950 . S
C540 C538 1.391 . S
C540 C541 1.400 . S
C541 C535 1.491 1_556 S
C541 C540 1.400 . S
C541 C542 1.398 . S
C542 H530 0.950 1_556 S
C542 C541 1.398 . S
C542 C543 1.391 . S
C543 H531 0.950 . S
C543 C539 1.393 . S
C543 C542 1.391 . S
H544 C552 0.950 . S
H545 C557 0.950 . S
H546 C554 0.950 . S
H547 C556 0.950 . S
H548 C558 0.950 . S
H549 C560 0.950 . S
H550 C562 0.950 1_554 S
H551 C563 0.950 . S
C552 H544 0.950 . S
C552 C553 1.386 . S
C552 C554 1.391 . S
C553 C552 1.386 . S
C553 C557 1.393 . S
C554 H546 0.950 . S
C554 C552 1.391 . S
C554 C555 1.400 . S
C555 C554 1.400 . S
C555 C556 1.398 . S
C555 C561 1.491 1_554 S
C556 H547 0.950 . S
C556 C555 1.398 . S
C556 C557 1.391 . S
C557 H545 0.950 . S
C557 C553 1.393 . S
C557 C556 1.391 . S
C558 H548 0.950 . S
C558 C559 1.386 . S
C558 C560 1.391 . S
C559 C558 1.386 . S
C559 C563 1.393 . S
C560 H549 0.950 . S
C560 C558 1.391 . S
C560 C561 1.400 . S
C561 C555 1.491 1_556 S
C561 C560 1.400 . S
C561 C562 1.398 . S
C562 H550 0.950 1_556 S
C562 C561 1.398 . S
C562 C563 1.391 . S
C563 H551 0.950 . S
C563 C559 1.393 . S
C563 C562 1.391 . S
H564 C572 0.950 . S
H565 C577 0.932 1_455 S
H566 C574 0.950 1_556 S
H567 C576 0.950 . S
H568 C578 0.950 . S
H569 C580 0.950 1_554 S
H570 C582 0.950 . S
H571 C583 0.950 . S
C572 H564 0.950 . S
C572 C573 1.386 . S
C572 C574 1.391 . S
C573 C572 1.386 . S
C573 C577 1.416 . S
C574 H566 0.950 1_554 S
C574 C572 1.391 . S
C574 C575 1.400 . S
C575 C574 1.400 . S
C575 C576 1.398 1_655 S
C575 C581 1.491 1_554 S
C576 H567 0.950 . S
C576 C575 1.398 1_455 S
C576 C577 1.386 1_455 S
C577 H565 0.932 1_655 S
C577 C573 1.416 . S
C577 C576 1.386 1_655 S
C578 H568 0.950 . S
C578 C579 1.386 1_455 S
C578 C580 1.391 . S
C579 C578 1.386 1_655 S
C579 C583 1.393 . S
C580 H569 0.950 1_556 S
C580 C578 1.391 . S
C580 C581 1.400 1_455 S
C581 C575 1.491 1_556 S
C581 C580 1.400 1_655 S
C581 C582 1.398 . S
C582 H570 0.950 . S
C582 C581 1.398 . S
C582 C583 1.391 . S
C583 H571 0.950 . S
C583 C579 1.393 . S
C583 C582 1.391 . S
H584 C592 0.950 . S
H585 C597 0.950 . S
H586 C594 0.950 . S
H587 C596 0.951 1_655 S
H588 C598 0.950 . S
H589 C600 0.950 . S
H590 C602 0.950 . S
H591 C603 0.950 . S
C592 H584 0.950 . S
C592 C593 1.386 . S
C592 C594 1.391 . S
C593 C592 1.386 . S
C593 C597 1.393 . S
C594 H586 0.950 . S
C594 C592 1.391 . S
C594 C595 1.400 . S
C595 C594 1.400 . S
C595 C596 1.398 . S
C595 C601 1.491 . S
C596 H587 0.951 1_455 S
C596 C595 1.398 . S
C596 C597 1.391 . S
C597 H585 0.950 . S
C597 C593 1.393 . S
C597 C596 1.391 . S
C598 H588 0.950 . S
C598 C599 1.386 1_655 S
C598 C600 1.391 . S
C599 C598 1.386 1_455 S
C599 C603 1.393 . S
C600 H589 0.950 . S
C600 C598 1.391 . S
C600 C601 1.400 1_655 S
C601 C595 1.491 . S
C601 C600 1.400 1_455 S
C601 C602 1.398 . S
C602 H590 0.950 . S
C602 C601 1.398 . S
C602 C603 1.391 . S
C603 H591 0.950 . S
C603 C599 1.393 . S
C603 C602 1.391 . S
H604 C612 0.950 . S
H605 C617 0.950 . S
H606 C614 0.950 1_565 S
H607 C616 0.950 . S
H608 C618 0.950 . S
H609 C620 0.950 . S
H610 C622 0.950 . S
H611 C623 0.950 . S
C612 H604 0.950 . S
C612 C613 1.386 . S
C612 C614 1.391 . S
C613 C612 1.386 . S
C613 C617 1.393 . S
C614 H606 0.950 1_545 S
C614 C612 1.391 . S
C614 C615 1.400 . S
C615 C614 1.400 . S
C615 C616 1.398 . S
C615 C621 1.491 . S
C616 H607 0.950 . S
C616 C615 1.398 . S
C616 C617 1.391 . S
C617 H605 0.950 . S
C617 C613 1.393 . S
C617 C616 1.391 . S
C618 H608 0.950 . S
C618 C619 1.386 . S
C618 C620 1.391 . S
C619 C618 1.386 . S
C619 C623 1.393 1_545 S
C620 H609 0.950 . S
C620 C618 1.391 . S
C620 C621 1.400 . S
C621 C615 1.491 . S
C621 C620 1.400 . S
C621 C622 1.398 1_545 S
C622 H610 0.950 . S
C622 C621 1.398 1_565 S
C622 C623 1.391 . S
C623 H611 0.950 . S
C623 C619 1.393 1_565 S
C623 C622 1.391 . S
H624 C632 0.950 . S
H625 C637 0.950 . S
H626 C634 0.950 . S
H627 C636 0.950 . S
H628 C638 0.950 . S
H629 C640 0.950 . S
H630 C642 0.950 . S
H631 C643 0.950 . S
C632 H624 0.950 . S
C632 C633 1.386 . S
C632 C634 1.391 . S
C633 C632 1.386 . S
C633 C637 1.393 . S
C634 H626 0.950 . S
C634 C632 1.391 . S
C634 C635 1.400 . S
C635 C634 1.400 . S
C635 C636 1.398 . S
C635 C641 1.491 . S
C636 H627 0.950 . S
C636 C635 1.398 . S
C636 C637 1.391 . S
C637 H625 0.950 . S
C637 C633 1.393 . S
C637 C636 1.391 . S
C638 H628 0.950 . S
C638 C639 1.386 . S
C638 C640 1.391 . S
C639 C638 1.386 . S
C639 C643 1.393 . S
C640 H629 0.950 . S
C640 C638 1.391 . S
C640 C641 1.400 . S
C641 C635 1.491 . S
C641 C640 1.400 . S
C641 C642 1.398 . S
C642 H630 0.950 . S
C642 C641 1.398 . S
C642 C643 1.391 . S
C643 H631 0.950 . S
C643 C639 1.393 . S
C643 C642 1.391 . S
H644 C652 0.950 . S
H645 C657 0.950 . S
H646 C654 0.950 . S
H647 C656 0.950 . S
H648 C658 0.950 . S
H649 C660 0.950 . S
H650 C662 0.950 . S
H651 C663 0.950 . S
C652 H644 0.950 . S
C652 C653 1.386 . S
C652 C654 1.391 . S
C653 C652 1.386 . S
C653 C657 1.393 . S
C654 H646 0.950 . S
C654 C652 1.391 . S
C654 C655 1.400 . S
C655 C654 1.400 . S
C655 C656 1.398 . S
C655 C661 1.491 . S
C656 H647 0.950 . S
C656 C655 1.398 . S
C656 C657 1.391 . S
C657 H645 0.950 . S
C657 C653 1.393 . S
C657 C656 1.391 . S
C658 H648 0.950 . S
C658 C659 1.386 . S
C658 C660 1.391 . S
C659 C658 1.386 . S
C659 C663 1.393 . S
C660 H649 0.950 . S
C660 C658 1.391 . S
C660 C661 1.400 . S
C661 C655 1.491 . S
C661 C660 1.400 . S
C661 C662 1.398 . S
C662 H650 0.950 . S
C662 C661 1.398 . S
C662 C663 1.391 . S
C663 H651 0.950 . S
C663 C659 1.393 . S
C663 C662 1.391 . S
H664 C672 0.950 . S
H665 C677 0.950 . S
H666 C674 0.950 . S
H667 C676 0.950 . S
H668 C678 0.950 . S
H669 C680 0.950 . S
H670 C682 0.950 . S
H671 C683 0.950 . S
C672 H664 0.950 . S
C672 C673 1.386 . S
C672 C674 1.391 . S
C673 C672 1.386 . S
C673 C677 1.393 1_655 S
C674 H666 0.950 . S
C674 C672 1.391 . S
C674 C675 1.400 . S
C675 C674 1.400 . S
C675 C676 1.398 1_655 S
C675 C681 1.491 . S
C676 H667 0.950 . S
C676 C675 1.398 1_455 S
C676 C677 1.391 . S
C677 H665 0.950 . S
C677 C673 1.393 1_455 S
C677 C676 1.391 . S
C678 H668 0.950 . S
C678 C679 1.386 1_554 S
C678 C680 1.391 . S
C679 C678 1.386 1_556 S
C679 C683 1.393 1_455 S
C680 H669 0.950 . S
C680 C678 1.391 . S
C680 C681 1.400 1_455 S
C681 C675 1.491 . S
C681 C680 1.400 1_655 S
C681 C682 1.398 . S
C682 H670 0.950 . S
C682 C681 1.398 . S
C682 C683 1.391 1_554 S
C683 H671 0.950 . S
C683 C679 1.393 1_655 S
C683 C682 1.391 1_556 S
H684 C692 0.950 . S
H685 C697 0.950 . S
H686 C694 0.950 . S
H687 C696 0.950 . S
H688 C698 0.950 . S
H689 C700 0.944 1_566 S
H690 C702 0.952 . S
H691 C703 0.950 . S
C692 H684 0.950 . S
C692 C693 1.386 . S
C692 C694 1.391 . S
C693 C692 1.386 . S
C693 C697 1.393 . S
C694 H686 0.950 . S
C694 C692 1.391 . S
C694 C695 1.400 . S
C695 C694 1.400 . S
C695 C696 1.398 . S
C695 C701 1.491 . S
C696 H687 0.950 . S
C696 C695 1.398 . S
C696 C697 1.391 . S
C697 H685 0.950 . S
C697 C693 1.393 . S
C697 C696 1.391 . S
C698 H688 0.950 . S
C698 C699 1.385 . S
C698 C700 1.402 1_556 S
C699 C698 1.385 . S
C699 C703 1.394 1_556 S
C700 H689 0.944 1_544 S
C700 C698 1.402 1_554 S
C700 C701 1.397 1_545 S
C701 C695 1.491 . S
C701 C700 1.397 1_565 S
C701 C702 1.398 1_565 S
C702 H690 0.952 . S
C702 C701 1.398 1_545 S
C702 C703 1.391 . S
C703 H691 0.950 . S
C703 C699 1.394 1_554 S
C703 C702 1.391 . S
H704 C712 0.950 . S
H705 C717 0.950 . S
H706 C714 0.950 . S
H707 C716 0.950 . S
H708 C718 0.950 . S
H709 C720 0.950 . S
H710 C722 0.950 . S
H711 C723 0.950 . S
C712 H704 0.950 . S
C712 C713 1.386 . S
C712 C714 1.391 . S
C713 C712 1.386 . S
C713 C717 1.393 . S
C714 H706 0.950 . S
C714 C712 1.391 . S
C714 C715 1.400 . S
C715 C714 1.400 . S
C715 C716 1.398 . S
C715 C721 1.491 . S
C716 H707 0.950 . S
C716 C715 1.398 . S
C716 C717 1.391 . S
C717 H705 0.950 . S
C717 C713 1.393 . S
C717 C716 1.391 . S
C718 H708 0.950 . S
C718 C719 1.386 1_554 S
C718 C720 1.391 . S
C719 C718 1.386 1_556 S
C719 C723 1.393 . S
C720 H709 0.950 . S
C720 C718 1.391 . S
C720 C721 1.400 . S
C721 C715 1.491 . S
C721 C720 1.400 . S
C721 C722 1.398 . S
C722 H710 0.950 . S
C722 C721 1.398 . S
C722 C723 1.391 1_554 S
C723 H711 0.950 . S
C723 C719 1.393 . S
C723 C722 1.391 1_556 S
H724 C732 0.950 . S
H725 C737 0.950 . S
H726 C734 0.950 . S
H727 C736 0.950 . S
H728 C738 0.950 . S
H729 C740 0.950 1_556 S
H730 C742 0.950 . S
H731 C743 0.950 . S
C732 H724 0.950 . S
C732 C733 1.386 . S
C732 C734 1.391 . S
C733 C732 1.386 . S
C733 C737 1.393 . S
C734 H726 0.950 . S
C734 C732 1.391 . S
C734 C735 1.400 . S
C735 C734 1.400 . S
C735 C736 1.398 . S
C735 C741 1.491 . S
C736 H727 0.950 . S
C736 C735 1.398 . S
C736 C737 1.391 . S
C737 H725 0.950 . S
C737 C733 1.393 . S
C737 C736 1.391 . S
C738 H728 0.950 . S
C738 C739 1.386 . S
C738 C740 1.391 1_556 S
C739 C738 1.386 . S
C739 C743 1.393 1_556 S
C740 H729 0.950 1_554 S
C740 C738 1.391 1_554 S
C740 C741 1.400 . S
C741 C735 1.491 . S
C741 C740 1.400 . S
C741 C742 1.398 . S
C742 H730 0.950 . S
C742 C741 1.398 . S
C742 C743 1.391 . S
C743 H731 0.950 . S
C743 C739 1.393 1_554 S
C743 C742 1.391 . S
H744 C752 0.950 . S
H745 C757 0.950 . S
H746 C754 0.950 . S
H747 C756 0.950 . S
H748 C758 0.950 1_655 S
H749 C760 0.950 . S
H750 C762 0.950 . S
H751 C763 0.950 . S
C752 H744 0.950 . S
C752 C753 1.386 . S
C752 C754 1.391 . S
C753 C752 1.386 . S
C753 C757 1.393 . S
C754 H746 0.950 . S
C754 C752 1.391 . S
C754 C755 1.400 . S
C755 C754 1.400 . S
C755 C756 1.398 . S
C755 C761 1.491 . S
C756 H747 0.950 . S
C756 C755 1.398 . S
C756 C757 1.391 . S
C757 H745 0.950 . S
C757 C753 1.393 . S
C757 C756 1.391 . S
C758 H748 0.950 1_455 S
C758 C759 1.386 . S
C758 C760 1.391 . S
C759 C758 1.386 . S
C759 C763 1.393 . S
C760 H749 0.950 . S
C760 C758 1.391 . S
C760 C761 1.400 . S
C761 C755 1.491 . S
C761 C760 1.400 . S
C761 C762 1.398 . S
C762 H750 0.950 . S
C762 C761 1.398 . S
C762 C763 1.391 . S
C763 H751 0.950 . S
C763 C759 1.393 . S
C763 C762 1.391 . S
H764 C772 0.950 . S
H765 C777 0.951 1_554 S
H766 C774 0.950 . S
H767 C776 0.950 . S
H768 C778 0.950 . S
H769 C780 0.950 . S
H770 C782 0.950 . S
H771 C783 0.950 . S
C772 H764 0.950 . S
C772 C773 1.386 . S
C772 C774 1.391 . S
C773 C772 1.386 . S
C773 C777 1.393 . S
C774 H766 0.950 . S
C774 C772 1.391 . S
C774 C775 1.400 . S
C775 C774 1.400 . S
C775 C776 1.398 . S
C775 C781 1.491 . S
C776 H767 0.950 . S
C776 C775 1.398 . S
C776 C777 1.391 . S
C777 H765 0.951 1_556 S
C777 C773 1.393 . S
C777 C776 1.391 . S
C778 H768 0.950 . S
C778 C779 1.386 . S
C778 C780 1.391 . S
C779 C778 1.386 . S
C779 C783 1.393 . S
C780 H769 0.950 . S
C780 C778 1.391 . S
C780 C781 1.400 . S
C781 C775 1.491 . S
C781 C780 1.400 . S
C781 C782 1.398 . S
C782 H770 0.950 . S
C782 C781 1.398 . S
C782 C783 1.391 . S
C783 H771 0.950 . S
C783 C779 1.393 . S
C783 C782 1.391 . S
H784 C792 0.950 . S
H785 C797 0.950 . S
H786 C794 0.950 . S
H787 C796 0.950 . S
H788 C798 0.950 . S
H789 C800 0.950 . S
H790 C802 0.950 . S
H791 C803 0.950 . S
C792 H784 0.950 . S
C792 C793 1.386 . S
C792 C794 1.391 . S
C793 C792 1.386 . S
C793 C797 1.393 . S
C794 H786 0.950 . S
C794 C792 1.391 . S
C794 C795 1.400 . S
C795 C794 1.400 . S
C795 C796 1.398 . S
C795 C801 1.491 . S
C796 H787 0.950 . S
C796 C795 1.398 . S
C796 C797 1.391 . S
C797 H785 0.950 . S
C797 C793 1.393 . S
C797 C796 1.391 . S
C798 H788 0.950 . S
C798 C799 1.386 . S
C798 C800 1.391 . S
C799 C798 1.386 . S
C799 C803 1.393 . S
C800 H789 0.950 . S
C800 C798 1.391 . S
C800 C801 1.400 . S
C801 C795 1.491 . S
C801 C800 1.400 . S
C801 C802 1.398 . S
C802 H790 0.950 . S
C802 C801 1.398 . S
C802 C803 1.391 . S
C803 H791 0.950 . S
C803 C799 1.393 . S
C803 C802 1.391 . S
H804 C812 0.950 . S
H805 C817 0.950 1_554 S
H806 C814 0.950 . S
H807 C816 0.950 . S
H808 C818 0.950 . S
H809 C820 0.950 . S
H810 C822 0.950 . S
H811 C823 0.950 . S
C812 H804 0.950 . S
C812 C813 1.386 . S
C812 C814 1.391 . S
C813 C812 1.386 . S
C813 C817 1.393 . S
C814 H806 0.950 . S
C814 C812 1.391 . S
C814 C815 1.400 . S
C815 C814 1.400 . S
C815 C816 1.398 . S
C815 C821 1.491 . S
C816 H807 0.950 . S
C816 C815 1.398 . S
C816 C817 1.391 . S
C817 H805 0.950 1_556 S
C817 C813 1.393 . S
C817 C816 1.391 . S
C818 H808 0.950 . S
C818 C819 1.386 . S
C818 C820 1.391 . S
C819 C818 1.386 . S
C819 C823 1.393 . S
C820 H809 0.950 . S
C820 C818 1.391 . S
C820 C821 1.400 . S
C821 C815 1.491 . S
C821 C820 1.400 . S
C821 C822 1.398 . S
C822 H810 0.950 . S
C822 C821 1.398 . S
C822 C823 1.391 . S
C823 H811 0.950 . S
C823 C819 1.393 . S
C823 C822 1.391 . S
H824 C832 0.950 . S
H825 C837 0.950 . S
H826 C834 0.950 . S
H827 C836 0.950 . S
H828 C838 0.950 . S
H829 C840 0.950 . S
H830 C842 0.950 . S
H831 C843 0.950 . S
C832 H824 0.950 . S
C832 C833 1.386 . S
C832 C834 1.391 . S
C833 C832 1.386 . S
C833 C837 1.393 1_655 S
C834 H826 0.950 . S
C834 C832 1.391 . S
C834 C835 1.400 . S
C835 C834 1.400 . S
C835 C836 1.398 1_655 S
C835 C841 1.491 . S
C836 H827 0.950 . S
C836 C835 1.398 1_455 S
C836 C837 1.391 . S
C837 H825 0.950 . S
C837 C833 1.393 1_455 S
C837 C836 1.391 . S
C838 H828 0.950 . S
C838 C839 1.386 1_455 S
C838 C840 1.391 . S
C839 C838 1.386 1_655 S
C839 C843 1.393 . S
C840 H829 0.950 . S
C840 C838 1.391 . S
C840 C841 1.400 1_455 S
C841 C835 1.491 . S
C841 C840 1.400 1_655 S
C841 C842 1.398 . S
C842 H830 0.950 . S
C842 C841 1.398 . S
C842 C843 1.391 . S
C843 H831 0.950 . S
C843 C839 1.393 . S
C843 C842 1.391 . S
H844 C852 0.950 . S
H845 C857 0.950 . S
H846 C854 0.950 . S
H847 C856 0.950 . S
H848 C858 0.950 . S
H849 C860 0.950 . S
H850 C862 0.950 . S
H851 C863 0.950 . S
C852 H844 0.950 . S
C852 C853 1.386 1_545 S
C852 C854 1.391 . S
C853 C852 1.386 1_565 S
C853 C857 1.393 . S
C854 H846 0.950 . S
C854 C852 1.391 . S
C854 C855 1.400 1_545 S
C855 C854 1.400 1_565 S
C855 C856 1.398 . S
C855 C861 1.491 . S
C856 H847 0.950 . S
C856 C855 1.398 . S
C856 C857 1.391 . S
C857 H845 0.950 . S
C857 C853 1.393 . S
C857 C856 1.391 . S
C858 H848 0.950 . S
C858 C859 1.386 . S
C858 C860 1.391 . S
C859 C858 1.386 . S
C859 C863 1.393 1_565 S
C860 H849 0.950 . S
C860 C858 1.391 . S
C860 C861 1.400 . S
C861 C855 1.491 . S
C861 C860 1.400 . S
C861 C862 1.398 1_565 S
C862 H850 0.950 . S
C862 C861 1.398 1_545 S
C862 C863 1.391 . S
C863 H851 0.950 . S
C863 C859 1.393 1_545 S
C863 C862 1.391 . S
H864 C872 0.950 . S
H865 C877 0.950 . S
H866 C874 0.950 . S
H867 C876 0.950 . S
H868 C878 0.950 . S
H869 C880 0.950 . S
H870 C882 0.950 . S
H871 C883 0.950 . S
C872 H864 0.950 . S
C872 C873 1.386 . S
C872 C874 1.391 . S
C873 C872 1.386 . S
C873 C877 1.393 . S
C874 H866 0.950 . S
C874 C872 1.391 . S
C874 C875 1.400 . S
C875 C874 1.400 . S
C875 C876 1.398 . S
C875 C881 1.491 . S
C876 H867 0.950 . S
C876 C875 1.398 . S
C876 C877 1.391 . S
C877 H865 0.950 . S
C877 C873 1.393 . S
C877 C876 1.391 . S
C878 H868 0.950 . S
C878 C879 1.386 . S
C878 C880 1.391 . S
C879 C878 1.386 . S
C879 C883 1.393 . S
C880 H869 0.950 . S
C880 C878 1.391 . S
C880 C881 1.400 . S
C881 C875 1.491 . S
C881 C880 1.400 . S
C881 C882 1.398 . S
C882 H870 0.950 . S
C882 C881 1.398 . S
C882 C883 1.391 . S
C883 H871 0.950 . S
C883 C879 1.393 . S
C883 C882 1.391 . S
H884 C892 0.950 . S
H885 C897 0.950 . S
H886 C894 0.950 . S
H887 C896 0.950 . S
H888 C898 0.950 . S
H889 C900 0.950 . S
H890 C902 0.950 . S
H891 C903 0.950 . S
C892 H884 0.950 . S
C892 C893 1.386 . S
C892 C894 1.391 . S
C893 C892 1.386 . S
C893 C897 1.393 . S
C894 H886 0.950 . S
C894 C892 1.391 . S
C894 C895 1.400 . S
C895 C894 1.400 . S
C895 C896 1.398 . S
C895 C901 1.491 . S
C896 H887 0.950 . S
C896 C895 1.398 . S
C896 C897 1.391 . S
C897 H885 0.950 . S
C897 C893 1.393 . S
C897 C896 1.391 . S
C898 H888 0.950 . S
C898 C899 1.386 . S
C898 C900 1.391 . S
C899 C898 1.386 . S
C899 C903 1.393 . S
C900 H889 0.950 . S
C900 C898 1.391 . S
C900 C901 1.400 . S
C901 C895 1.491 . S
C901 C900 1.400 . S
C901 C902 1.398 . S
C902 H890 0.950 . S
C902 C901 1.398 . S
C902 C903 1.391 . S
C903 H891 0.950 . S
C903 C899 1.393 . S
C903 C902 1.391 . S
C433 C76 1.898 . S
C439 C151 2.014 . S
C459 C228 2.028 . S
C453 C87 1.903 . S
C479 C319 2.002 . S
C473 C54 1.865 . S
C499 C403 1.997 . S
C493 C65 1.884 . S
C519 C162 2.005 1_565 S
C513 C32 1.883 . S
C533 C43 1.889 . S
C539 C239 2.025 . S
C553 C10 1.872 . S
C559 C330 1.998 . S
C573 C21 1.868 . S
C579 C414 1.997 1_655 S
C599 C146 0.607 1_455 S
C593 C60 0.609 . S
C619 C241 0.642 . S
C613 C71 0.537 . S
C639 C314 0.585 . S
C633 C82 0.572 . S
C653 C49 0.589 . S
C659 C398 0.575 . S
C673 C16 0.569 . S
C679 C157 0.592 . S
C699 C230 0.603 1_556 S
C693 C27 0.554 . S
C719 C325 0.599 . S
C713 C38 0.568 . S
C733 C5 0.565 . S
C739 C409 0.637 . S
C753 C59 1.906 . S
C759 C155 2.103 . S
C773 C70 1.918 . S
C779 C246 2.114 . S
C799 C323 2.128 . S
C793 C81 1.948 . S
C819 C407 2.127 . S
C813 C48 1.933 . S
C833 C15 1.922 . S
C839 C144 2.109 . S
C859 C235 2.120 1_565 S
C853 C26 1.896 . S
C879 C312 2.120 . S
C873 C37 1.914 . S
C893 C4 1.948 . S
C899 C396 2.133 . S
