# Generated by pormake.
# Topology bwt, (3,3)-cn, num edge types: 1
# Building blocks:
#     Node 0, Type 0, BuildingBlock: OLANEW_clean_sbu_2, # of connection points: 3
#     Node 1, Type 0, BuildingBlock: OLANEW_clean_sbu_2, # of connection points: 3
#     Node 2, Type 0, BuildingBlock: OLANEW_clean_sbu_2, # of connection points: 3
#     Node 3, Type 0, BuildingBlock: OLANEW_clean_sbu_2, # of connection points: 3
#     Node 4, Type 0, BuildingBlock: OLANEW_clean_sbu_2, # of connection points: 3
#     Node 5, Type 0, BuildingBlock: OLANEW_clean_sbu_2, # of connection points: 3
#     Node 6, Type 0, BuildingBlock: OLANEW_clean_sbu_2, # of connection points: 3
#     Node 7, Type 0, BuildingBlock: OLANEW_clean_sbu_2, # of connection points: 3
#     Node 8, Type 0, BuildingBlock: OLANEW_clean_sbu_2, # of connection points: 3
#     Node 9, Type 0, BuildingBlock: OLANEW_clean_sbu_2, # of connection points: 3
#     Node 10, Type 0, BuildingBlock: OLANEW_clean_sbu_2, # of connection points: 3
#     Node 11, Type 0, BuildingBlock: OLANEW_clean_sbu_2, # of connection points: 3
#     Node 12, Type 0, BuildingBlock: OLANEW_clean_sbu_2, # of connection points: 3
#     Node 13, Type 0, BuildingBlock: OLANEW_clean_sbu_2, # of connection points: 3
#     Node 14, Type 0, BuildingBlock: OLANEW_clean_sbu_2, # of connection points: 3
#     Node 15, Type 0, BuildingBlock: OLANEW_clean_sbu_2, # of connection points: 3
#     Node 16, Type 0, BuildingBlock: OLANEW_clean_sbu_2, # of connection points: 3
#     Node 17, Type 0, BuildingBlock: OLANEW_clean_sbu_2, # of connection points: 3
#     Node 18, Type 0, BuildingBlock: OLANEW_clean_sbu_2, # of connection points: 3
#     Node 19, Type 0, BuildingBlock: OLANEW_clean_sbu_2, # of connection points: 3
#     Node 20, Type 0, BuildingBlock: OLANEW_clean_sbu_2, # of connection points: 3
#     Node 21, Type 0, BuildingBlock: OLANEW_clean_sbu_2, # of connection points: 3
#     Node 22, Type 0, BuildingBlock: OLANEW_clean_sbu_2, # of connection points: 3
#     Node 23, Type 0, BuildingBlock: OLANEW_clean_sbu_2, # of connection points: 3
#     Node 24, Type 1, BuildingBlock: ESEHIV_clean_linker_0, # of connection points: 3
#     Node 25, Type 1, BuildingBlock: ESEHIV_clean_linker_0, # of connection points: 3
#     Node 26, Type 1, BuildingBlock: ESEHIV_clean_linker_0, # of connection points: 3
#     Node 27, Type 1, BuildingBlock: ESEHIV_clean_linker_0, # of connection points: 3
#     Node 28, Type 1, BuildingBlock: ESEHIV_clean_linker_0, # of connection points: 3
#     Node 29, Type 1, BuildingBlock: ESEHIV_clean_linker_0, # of connection points: 3
#     Node 30, Type 1, BuildingBlock: ESEHIV_clean_linker_0, # of connection points: 3
#     Node 31, Type 1, BuildingBlock: ESEHIV_clean_linker_0, # of connection points: 3
#     Node 32, Type 1, BuildingBlock: ESEHIV_clean_linker_0, # of connection points: 3
#     Node 33, Type 1, BuildingBlock: ESEHIV_clean_linker_0, # of connection points: 3
#     Node 34, Type 1, BuildingBlock: ESEHIV_clean_linker_0, # of connection points: 3
#     Node 35, Type 1, BuildingBlock: ESEHIV_clean_linker_0, # of connection points: 3
#     Node 36, Type 1, BuildingBlock: ESEHIV_clean_linker_0, # of connection points: 3
#     Node 37, Type 1, BuildingBlock: ESEHIV_clean_linker_0, # of connection points: 3
#     Node 38, Type 1, BuildingBlock: ESEHIV_clean_linker_0, # of connection points: 3
#     Node 39, Type 1, BuildingBlock: ESEHIV_clean_linker_0, # of connection points: 3
#     Node 40, Type 1, BuildingBlock: ESEHIV_clean_linker_0, # of connection points: 3
#     Node 41, Type 1, BuildingBlock: ESEHIV_clean_linker_0, # of connection points: 3
#     Node 42, Type 1, BuildingBlock: ESEHIV_clean_linker_0, # of connection points: 3
#     Node 43, Type 1, BuildingBlock: ESEHIV_clean_linker_0, # of connection points: 3
#     Node 44, Type 1, BuildingBlock: ESEHIV_clean_linker_0, # of connection points: 3
#     Node 45, Type 1, BuildingBlock: ESEHIV_clean_linker_0, # of connection points: 3
#     Node 46, Type 1, BuildingBlock: ESEHIV_clean_linker_0, # of connection points: 3
#     Node 47, Type 1, BuildingBlock: ESEHIV_clean_linker_0, # of connection points: 3
#     Edge 48, Type (0, 1), BuildingBlock: XIVTED_clean_linker_0, # of connection points: 2
#     Edge 49, Type (0, 1), BuildingBlock: XIVTED_clean_linker_0, # of connection points: 2
#     Edge 50, Type (0, 1), BuildingBlock: XIVTED_clean_linker_0, # of connection points: 2
#     Edge 51, Type (0, 1), BuildingBlock: XIVTED_clean_linker_0, # of connection points: 2
#     Edge 52, Type (0, 1), BuildingBlock: XIVTED_clean_linker_0, # of connection points: 2
#     Edge 53, Type (0, 1), BuildingBlock: XIVTED_clean_linker_0, # of connection points: 2
#     Edge 54, Type (0, 1), BuildingBlock: XIVTED_clean_linker_0, # of connection points: 2
#     Edge 55, Type (0, 1), BuildingBlock: XIVTED_clean_linker_0, # of connection points: 2
#     Edge 56, Type (0, 1), BuildingBlock: XIVTED_clean_linker_0, # of connection points: 2
#     Edge 57, Type (0, 1), BuildingBlock: XIVTED_clean_linker_0, # of connection points: 2
#     Edge 58, Type (0, 1), BuildingBlock: XIVTED_clean_linker_0, # of connection points: 2
#     Edge 59, Type (0, 1), BuildingBlock: XIVTED_clean_linker_0, # of connection points: 2
#     Edge 60, Type (0, 1), BuildingBlock: XIVTED_clean_linker_0, # of connection points: 2
#     Edge 61, Type (0, 1), BuildingBlock: XIVTED_clean_linker_0, # of connection points: 2
#     Edge 62, Type (0, 1), BuildingBlock: XIVTED_clean_linker_0, # of connection points: 2
#     Edge 63, Type (0, 1), BuildingBlock: XIVTED_clean_linker_0, # of connection points: 2
#     Edge 64, Type (0, 1), BuildingBlock: XIVTED_clean_linker_0, # of connection points: 2
#     Edge 65, Type (0, 1), BuildingBlock: XIVTED_clean_linker_0, # of connection points: 2
#     Edge 66, Type (0, 1), BuildingBlock: XIVTED_clean_linker_0, # of connection points: 2
#     Edge 67, Type (0, 1), BuildingBlock: XIVTED_clean_linker_0, # of connection points: 2
#     Edge 68, Type (0, 1), BuildingBlock: XIVTED_clean_linker_0, # of connection points: 2
#     Edge 69, Type (0, 1), BuildingBlock: XIVTED_clean_linker_0, # of connection points: 2
#     Edge 70, Type (0, 1), BuildingBlock: XIVTED_clean_linker_0, # of connection points: 2
#     Edge 71, Type (0, 1), BuildingBlock: XIVTED_clean_linker_0, # of connection points: 2
#     Edge 72, Type (0, 1), BuildingBlock: XIVTED_clean_linker_0, # of connection points: 2
#     Edge 73, Type (0, 1), BuildingBlock: XIVTED_clean_linker_0, # of connection points: 2
#     Edge 74, Type (0, 1), BuildingBlock: XIVTED_clean_linker_0, # of connection points: 2
#     Edge 75, Type (0, 1), BuildingBlock: XIVTED_clean_linker_0, # of connection points: 2
#     Edge 76, Type (0, 1), BuildingBlock: XIVTED_clean_linker_0, # of connection points: 2
#     Edge 77, Type (0, 1), BuildingBlock: XIVTED_clean_linker_0, # of connection points: 2
#     Edge 78, Type (0, 1), BuildingBlock: XIVTED_clean_linker_0, # of connection points: 2
#     Edge 79, Type (0, 1), BuildingBlock: XIVTED_clean_linker_0, # of connection points: 2
#     Edge 80, Type (0, 1), BuildingBlock: XIVTED_clean_linker_0, # of connection points: 2
#     Edge 81, Type (0, 1), BuildingBlock: XIVTED_clean_linker_0, # of connection points: 2
#     Edge 82, Type (0, 1), BuildingBlock: XIVTED_clean_linker_0, # of connection points: 2
#     Edge 83, Type (0, 1), BuildingBlock: XIVTED_clean_linker_0, # of connection points: 2
#     Edge 84, Type (0, 1), BuildingBlock: XIVTED_clean_linker_0, # of connection points: 2
#     Edge 85, Type (0, 1), BuildingBlock: XIVTED_clean_linker_0, # of connection points: 2
#     Edge 86, Type (0, 1), BuildingBlock: XIVTED_clean_linker_0, # of connection points: 2
#     Edge 87, Type (0, 1), BuildingBlock: XIVTED_clean_linker_0, # of connection points: 2
#     Edge 88, Type (0, 1), BuildingBlock: XIVTED_clean_linker_0, # of connection points: 2
#     Edge 89, Type (0, 1), BuildingBlock: XIVTED_clean_linker_0, # of connection points: 2
#     Edge 90, Type (0, 1), BuildingBlock: XIVTED_clean_linker_0, # of connection points: 2
#     Edge 91, Type (0, 1), BuildingBlock: XIVTED_clean_linker_0, # of connection points: 2
#     Edge 92, Type (0, 1), BuildingBlock: XIVTED_clean_linker_0, # of connection points: 2
#     Edge 93, Type (0, 1), BuildingBlock: XIVTED_clean_linker_0, # of connection points: 2
#     Edge 94, Type (0, 1), BuildingBlock: XIVTED_clean_linker_0, # of connection points: 2
#     Edge 95, Type (0, 1), BuildingBlock: XIVTED_clean_linker_0, # of connection points: 2
#     Edge 96, Type (0, 1), BuildingBlock: XIVTED_clean_linker_0, # of connection points: 2
#     Edge 97, Type (0, 1), BuildingBlock: XIVTED_clean_linker_0, # of connection points: 2
#     Edge 98, Type (0, 1), BuildingBlock: XIVTED_clean_linker_0, # of connection points: 2
#     Edge 99, Type (0, 1), BuildingBlock: XIVTED_clean_linker_0, # of connection points: 2
#     Edge 100, Type (0, 1), BuildingBlock: XIVTED_clean_linker_0, # of connection points: 2
#     Edge 101, Type (0, 1), BuildingBlock: XIVTED_clean_linker_0, # of connection points: 2
#     Edge 102, Type (0, 1), BuildingBlock: XIVTED_clean_linker_0, # of connection points: 2
#     Edge 103, Type (0, 1), BuildingBlock: XIVTED_clean_linker_0, # of connection points: 2
#     Edge 104, Type (0, 1), BuildingBlock: XIVTED_clean_linker_0, # of connection points: 2
#     Edge 105, Type (0, 1), BuildingBlock: XIVTED_clean_linker_0, # of connection points: 2
#     Edge 106, Type (0, 1), BuildingBlock: XIVTED_clean_linker_0, # of connection points: 2
#     Edge 107, Type (0, 1), BuildingBlock: XIVTED_clean_linker_0, # of connection points: 2
#     Edge 108, Type (0, 1), BuildingBlock: XIVTED_clean_linker_0, # of connection points: 2
#     Edge 109, Type (0, 1), BuildingBlock: XIVTED_clean_linker_0, # of connection points: 2
#     Edge 110, Type (0, 1), BuildingBlock: XIVTED_clean_linker_0, # of connection points: 2
#     Edge 111, Type (0, 1), BuildingBlock: XIVTED_clean_linker_0, # of connection points: 2
#     Edge 112, Type (0, 1), BuildingBlock: XIVTED_clean_linker_0, # of connection points: 2
#     Edge 113, Type (0, 1), BuildingBlock: XIVTED_clean_linker_0, # of connection points: 2
#     Edge 114, Type (0, 1), BuildingBlock: XIVTED_clean_linker_0, # of connection points: 2
#     Edge 115, Type (0, 1), BuildingBlock: XIVTED_clean_linker_0, # of connection points: 2
#     Edge 116, Type (0, 1), BuildingBlock: XIVTED_clean_linker_0, # of connection points: 2
#     Edge 117, Type (0, 1), BuildingBlock: XIVTED_clean_linker_0, # of connection points: 2
#     Edge 118, Type (0, 1), BuildingBlock: XIVTED_clean_linker_0, # of connection points: 2
#     Edge 119, Type (0, 1), BuildingBlock: XIVTED_clean_linker_0, # of connection points: 2
# Relax obj value: 0.142
# Max RMSD: 0.141
# Mean RMSD: 0.092
data_MOF--net-bwt--node1-OLANEW_clean_sbu_2--node2-ESEHIV_clean_linker_0--edge1-XIVTED_clean_linker_0
_symmetry_space_group_name_H-M    P1
_symmetry_Int_Tables_number       1
_symmetry_cell_setting            triclinic
loop_
_symmetry_equiv_pos_as_xyz
'x, y, z'
_cell_length_a     55.452304
_cell_length_b     55.434765
_cell_length_c     55.458481
_cell_angle_alpha  93.5689
_cell_angle_beta   93.564216
_cell_angle_gamma 93.561907
loop_
_atom_site_label
_atom_site_type_symbol
_atom_site_fract_x
_atom_site_fract_y
_atom_site_fract_z
_atom_type_partial_charge
O0 O 0.26948 0.617 0.30121 0.0
Cd1 Cd 0.25923 0.62949 0.26055 0.0
O2 O 0.30833 0.62009 0.29546 0.0
Cd3 Cd 0.34577 0.61399 0.30677 0.0
O4 O 0.38161 0.60209 0.31665 0.0
C5 C 0.39514 0.59541 0.30015 0.0
O6 O 0.38733 0.59618 0.27737 0.0
C7 C 0.29126 0.61501 0.30893 0.0
C8 C 0.21739 0.60241 0.24242 0.0
O9 O 0.23839 0.59466 0.23958 0.0
O10 O 0.21618 0.6234 0.25319 0.0
O11 O 0.22995 0.40597 0.73652 0.0
Cd12 Cd 0.21696 0.39611 0.69399 0.0
O13 O 0.20305 0.37992 0.7496 0.0
Cd14 Cd 0.18166 0.37485 0.7151 0.0
O15 O 0.14615 0.38069 0.69807 0.0
C16 C 0.12809 0.36852 0.70523 0.0
O17 O 0.132 0.35181 0.72055 0.0
C18 C 0.22122 0.39507 0.75383 0.0
C19 C 0.25629 0.40546 0.66632 0.0
O20 O 0.24035 0.42102 0.66905 0.0
O21 O 0.2533 0.38527 0.67616 0.0
O22 O 0.76243 0.98108 0.67993 0.0
Cd23 Cd 0.77476 0.98122 0.72303 0.0
O24 O 0.76755 0.94224 0.67389 0.0
Cd25 Cd 0.79336 0.94472 0.70543 0.0
O26 O 0.82994 0.95994 0.71661 0.0
C27 C 0.84588 0.95559 0.70168 0.0
O28 O 0.8396 0.94133 0.68219 0.0
C29 C 0.75951 0.96162 0.66639 0.0
C30 C 0.73546 0.99588 0.74786 0.0
O31 O 0.75326 0.01092 0.74453 0.0
O32 O 0.73666 0.97371 0.74025 0.0
O33 O 0.75598 0.03847 0.28505 0.0
Cd34 Cd 0.77198 0.04228 0.32727 0.0
O35 O 0.71945 0.04513 0.29595 0.0
Cd36 Cd 0.68048 0.04557 0.28744 0.0
O37 O 0.6418 0.03579 0.28053 0.0
C38 C 0.63515 0.01804 0.26547 0.0
O39 O 0.65172 0.00674 0.25412 0.0
C40 C 0.73376 0.04091 0.27939 0.0
C41 C 0.81368 0.01707 0.33327 0.0
O42 O 0.79278 0.00703 0.33652 0.0
O43 O 0.81485 0.03909 0.32737 0.0
O44 O 0.29954 0.32065 0.60169 0.0
Cd45 Cd 0.2556 0.31365 0.6007 0.0
O46 O 0.30206 0.34825 0.63199 0.0
Cd47 Cd 0.26414 0.35528 0.62485 0.0
O48 O 0.2559 0.38443 0.60151 0.0
C49 C 0.26892 0.38538 0.58347 0.0
O50 O 0.28348 0.36797 0.57942 0.0
C51 C 0.31237 0.33455 0.61721 0.0
C52 C 0.24395 0.26665 0.58102 0.0
O53 O 0.24568 0.28455 0.56754 0.0
O54 O 0.24703 0.27105 0.60401 0.0
O55 O 0.2956 0.74502 0.00405 0.0
Cd56 Cd 0.33213 0.73987 0.98239 0.0
O57 O 0.29435 0.71048 0.02165 0.0
Cd58 Cd 0.32351 0.69424 0.00319 0.0
O59 O 0.33268 0.65744 0.99302 0.0
C60 C 0.32868 0.64252 0.00904 0.0
O61 O 0.32143 0.65076 0.02993 0.0
C62 C 0.28577 0.7308 0.01824 0.0
C63 C 0.34021 0.78218 0.95852 0.0
O64 O 0.3272 0.76403 0.9483 0.0
O65 O 0.35019 0.77998 0.97967 0.0
O66 O 0.71644 0.20735 0.3611 0.0
Cd67 Cd 0.67399 0.20388 0.34581 0.0
O68 O 0.72854 0.17992 0.335 0.0
Cd69 Cd 0.69174 0.16418 0.32651 0.0
O70 O 0.67601 0.13214 0.34215 0.0
C71 C 0.67837 0.13316 0.36513 0.0
O72 O 0.68726 0.15353 0.37666 0.0
C73 C 0.73347 0.1964 0.35187 0.0
C74 C 0.65352 0.24577 0.3629 0.0
O75 O 0.65159 0.22625 0.37407 0.0
O76 O 0.66436 0.24523 0.34315 0.0
O77 O 0.64982 0.74744 0.9802 0.0
Cd78 Cd 0.69235 0.76075 0.98941 0.0
O79 O 0.64193 0.77744 0.95741 0.0
Cd80 Cd 0.67605 0.79847 0.96737 0.0
O81 O 0.69016 0.83454 0.98163 0.0
C82 C 0.67847 0.85167 0.97356 0.0
O83 O 0.6607 0.84633 0.95691 0.0
C84 C 0.63516 0.75775 0.96632 0.0
C85 C 0.71447 0.72497 0.01421 0.0
O86 O 0.70491 0.74243 0.02556 0.0
O87 O 0.7141 0.72474 0.99107 0.0
O88 O 0.64049 0.32667 0.28931 0.0
Cd89 Cd 0.65547 0.2871 0.27893 0.0
O90 O 0.62301 0.31198 0.3202 0.0
Cd91 Cd 0.60014 0.31714 0.35047 0.0
O92 O 0.58241 0.3325 0.38124 0.0
C93 C 0.56795 0.3193 0.39243 0.0
O94 O 0.56345 0.29645 0.38482 0.0
C95 C 0.62805 0.32976 0.30758 0.0
C96 C 0.63331 0.26734 0.23509 0.0
O97 O 0.62452 0.26258 0.25523 0.0
O98 O 0.65272 0.28125 0.23574 0.0
O99 O 0.00867 0.2869 0.76496 0.0
Cd100 Cd 0.00808 0.32941 0.77932 0.0
O101 O 0.00153 0.29541 0.7272 0.0
Cd102 Cd 0.99301 0.28662 0.68848 0.0
O103 O 0.98453 0.2786 0.64973 0.0
C104 C 0.96755 0.26297 0.64222 0.0
O105 O 0.95526 0.25162 0.6581 0.0
C106 C 0.00541 0.27986 0.74268 0.0
C107 C 0.98563 0.33317 0.82288 0.0
O108 O 0.97359 0.33491 0.80264 0.0
O109 O 0.00829 0.32997 0.82251 0.0
O110 O 0.38114 0.7312 0.22018 0.0
Cd111 Cd 0.37106 0.68752 0.21617 0.0
O112 O 0.35632 0.73995 0.18996 0.0
Cd113 Cd 0.34921 0.70258 0.17535 0.0
O114 O 0.3544 0.68531 0.13979 0.0
C115 C 0.3449 0.69566 0.12207 0.0
O116 O 0.33125 0.71373 0.12662 0.0
C117 C 0.37143 0.74682 0.20758 0.0
C118 C 0.3949 0.66764 0.25518 0.0
O119 O 0.40482 0.66964 0.23507 0.0
O120 O 0.37328 0.67427 0.25661 0.0
O121 O 0.9787 0.66789 0.76122 0.0
Cd122 Cd 0.98774 0.71106 0.77176 0.0
O123 O 0.95158 0.66194 0.78793 0.0
Cd124 Cd 0.9599 0.69716 0.80741 0.0
O125 O 0.97599 0.71474 0.84146 0.0
C126 C 0.99816 0.7113 0.84628 0.0
O127 O 0.00988 0.6994 0.82997 0.0
C128 C 0.96312 0.65399 0.77032 0.0
C129 C 0.01141 0.73047 0.7337 0.0
O130 O 0.02329 0.72213 0.75156 0.0
O131 O 0.98832 0.73026 0.73414 0.0
O132 O 0.6941 0.34813 0.67527 0.0
Cd133 Cd 0.71045 0.33905 0.71524 0.0
O134 O 0.68064 0.38153 0.69149 0.0
Cd135 Cd 0.65809 0.41211 0.68622 0.0
O136 O 0.62706 0.43237 0.67513 0.0
C137 C 0.61737 0.42838 0.65374 0.0
O138 O 0.62677 0.41282 0.63881 0.0
C139 C 0.68374 0.36773 0.67292 0.0
C140 C 0.75782 0.35912 0.72024 0.0
O141 O 0.75329 0.33674 0.71323 0.0
O142 O 0.74004 0.37166 0.72567 0.0
O143 O 0.8083 0.64988 0.31777 0.0
Cd144 Cd 0.79983 0.6637 0.35878 0.0
O145 O 0.8242 0.61784 0.33182 0.0
Cd146 Cd 0.84346 0.58489 0.3262 0.0
O147 O 0.87041 0.56015 0.31503 0.0
C148 C 0.89191 0.56437 0.32426 0.0
O149 O 0.89651 0.58258 0.34057 0.0
C150 C 0.8176 0.62973 0.31395 0.0
C151 C 0.75591 0.63995 0.36773 0.0
O152 O 0.75657 0.66087 0.35907 0.0
O153 O 0.77607 0.63078 0.37305 0.0
O154 O 0.23418 0.10313 0.28499 0.0
Cd155 Cd 0.2443 0.10542 0.24299 0.0
O156 O 0.21962 0.06595 0.27473 0.0
Cd157 Cd 0.19975 0.03271 0.28354 0.0
O158 O 0.17202 0.00692 0.2948 0.0
C159 C 0.16091 0.01247 0.31353 0.0
O160 O 0.16709 0.03316 0.3259 0.0
C161 C 0.22463 0.0831 0.2909 0.0
C162 C 0.28202 0.07545 0.2358 0.0
O163 O 0.28636 0.09822 0.24102 0.0
O164 O 0.25987 0.06709 0.23325 0.0
O165 O 0.26355 0.98153 0.67448 0.0
Cd166 Cd 0.24522 0.9911 0.63534 0.0
O167 O 0.29059 0.01205 0.67318 0.0
Cd168 Cd 0.32296 0.03308 0.68933 0.0
O169 O 0.35856 0.04545 0.70635 0.0
C170 C 0.3763 0.03284 0.70174 0.0
O171 O 0.37246 0.01335 0.68694 0.0
C172 C 0.2814 0.99478 0.6844 0.0
C173 C 0.19995 0.00877 0.64229 0.0
O174 O 0.20198 0.9863 0.63637 0.0
O175 O 0.21924 0.02292 0.64438 0.0
O176 O 0.70657 0.71037 0.37611 0.0
Cd177 Cd 0.74381 0.7312 0.36468 0.0
O178 O 0.72497 0.68669 0.40078 0.0
Cd179 Cd 0.72182 0.655 0.42238 0.0
O180 O 0.71188 0.61916 0.43465 0.0
C181 C 0.69008 0.61062 0.43067 0.0
O182 O 0.67431 0.62385 0.42001 0.0
C183 C 0.70559 0.69395 0.39107 0.0
C184 C 0.74277 0.78039 0.3781 0.0
O185 O 0.73332 0.77158 0.3575 0.0
O186 O 0.75316 0.76603 0.39206 0.0
O187 O 0.67846 0.27732 0.97187 0.0
Cd188 Cd 0.63767 0.25761 0.96946 0.0
O189 O 0.67203 0.30039 0.00423 0.0
Cd190 Cd 0.68493 0.32957 0.03119 0.0
O191 O 0.70149 0.36284 0.05009 0.0
C192 C 0.71643 0.37576 0.03907 0.0
O193 O 0.72155 0.3684 0.0171 0.0
C194 C 0.6862 0.29314 0.98855 0.0
C195 C 0.63997 0.21277 0.98943 0.0
O196 O 0.64473 0.21548 0.96742 0.0
O197 O 0.63373 0.23125 0.00204 0.0
O198 O 0.32082 0.79168 0.61661 0.0
Cd199 Cd 0.36197 0.78492 0.63184 0.0
O200 O 0.32428 0.83137 0.6159 0.0
Cd201 Cd 0.31077 0.86574 0.60536 0.0
O202 O 0.29815 0.8976 0.5884 0.0
C203 C 0.28203 0.91033 0.59704 0.0
O204 O 0.27255 0.90442 0.61716 0.0
C205 C 0.31158 0.81145 0.61208 0.0
C206 C 0.36976 0.73763 0.61554 0.0
O207 O 0.3603 0.74209 0.63572 0.0
O208 O 0.37659 0.75563 0.60362 0.0
O209 O 0.31858 0.23141 0.10057 0.0
Cd210 Cd 0.27955 0.24815 0.1064 0.0
O211 O 0.30435 0.20962 0.06771 0.0
Cd212 Cd 0.30893 0.18296 0.03777 0.0
O213 O 0.3153 0.15269 0.01225 0.0
C214 C 0.30936 0.1313 0.01775 0.0
O215 O 0.29948 0.12825 0.03837 0.0
C216 C 0.32204 0.21701 0.08257 0.0
C217 C 0.27686 0.28904 0.07979 0.0
O218 O 0.28665 0.29058 0.10142 0.0
O219 O 0.26782 0.26828 0.07096 0.0
O220 O 0.34647 0.67051 0.68292 0.0
Cd221 Cd 0.33317 0.70664 0.7042 0.0
O222 O 0.37882 0.6922 0.67393 0.0
Cd223 Cd 0.41119 0.69478 0.65334 0.0
O224 O 0.43395 0.68912 0.62295 0.0
C225 C 0.42845 0.67018 0.60911 0.0
O226 O 0.41033 0.65545 0.61424 0.0
C227 C 0.36672 0.6719 0.67342 0.0
C228 C 0.34935 0.70601 0.75265 0.0
O229 O 0.32763 0.69837 0.74556 0.0
O230 O 0.36306 0.71453 0.737 0.0
O231 O 0.95877 0.69842 0.26281 0.0
Cd232 Cd 0.96313 0.65912 0.24178 0.0
O233 O 0.98346 0.69203 0.29391 0.0
Cd234 Cd 0.00647 0.7016 0.3273 0.0
O235 O 0.02567 0.71271 0.36238 0.0
C236 C 0.01401 0.72147 0.37954 0.0
O237 O 0.99062 0.72354 0.37583 0.0
C238 C 0.96979 0.70602 0.28289 0.0
C239 C 0.98559 0.66733 0.19911 0.0
O240 O 0.96252 0.66712 0.19974 0.0
O241 O 0.99797 0.66303 0.21848 0.0
O242 O 0.65279 0.29665 0.77957 0.0
Cd243 Cd 0.67035 0.33749 0.77567 0.0
O244 O 0.64708 0.30311 0.81819 0.0
Cd245 Cd 0.6313 0.29242 0.85137 0.0
O246 O 0.61214 0.27864 0.88134 0.0
C247 C 0.61638 0.2582 0.88929 0.0
O248 O 0.63288 0.24545 0.87949 0.0
C249 C 0.64505 0.28914 0.79901 0.0
C250 C 0.6445 0.35516 0.73675 0.0
O251 O 0.66279 0.34257 0.73358 0.0
O252 O 0.63895 0.36025 0.75849 0.0
O253 O 0.09642 0.26882 0.25364 0.0
Cd254 Cd 0.10259 0.22764 0.2646 0.0
O255 O 0.06389 0.25651 0.23049 0.0
Cd256 Cd 0.03414 0.2628 0.20433 0.0
O257 O 0.00803 0.27405 0.17689 0.0
C258 C 0.01242 0.29371 0.16684 0.0
O259 O 0.03254 0.30689 0.17341 0.0
C260 C 0.07836 0.27369 0.23998 0.0
C261 C 0.07235 0.21786 0.30148 0.0
O262 O 0.09369 0.22794 0.30626 0.0
O263 O 0.06562 0.21173 0.2793 0.0
H264 H 0.34053 0.60242 0.49105 0.0
H265 H 0.30091 0.53346 0.47475 0.0
H266 H 0.32874 0.55439 0.54755 0.0
C267 C 0.33316 0.58533 0.49673 0.0
C268 C 0.33575 0.58069 0.52135 0.0
C269 C 0.32051 0.56862 0.47958 0.0
C270 C 0.31122 0.54641 0.48741 0.0
C271 C 0.31422 0.54115 0.51186 0.0
C272 C 0.32638 0.55841 0.5287 0.0
H273 H 0.27458 0.40028 0.93768 0.0
H274 H 0.29033 0.4742 0.92185 0.0
H275 H 0.30084 0.45292 0.99492 0.0
C276 C 0.28046 0.41877 0.9438 0.0
C277 C 0.28701 0.42453 0.96844 0.0
C278 C 0.28162 0.43652 0.92686 0.0
C279 C 0.29017 0.46027 0.93471 0.0
C280 C 0.2973 0.4664 0.95924 0.0
C281 C 0.29567 0.44835 0.97596 0.0
H282 H 0.71831 0.92799 0.48684 0.0
H283 H 0.691 0.9988 0.49014 0.0
H284 H 0.70307 0.96287 0.42116 0.0
C285 C 0.71178 0.94331 0.47777 0.0
C286 C 0.7108 0.94276 0.45239 0.0
C287 C 0.70501 0.96355 0.49158 0.0
C288 C 0.69678 0.98336 0.47958 0.0
C289 C 0.69606 0.98346 0.45415 0.0
C290 C 0.70288 0.96288 0.44069 0.0
H291 H 0.67815 0.07477 0.10135 0.0
H292 H 0.69597 0.00018 0.09517 0.0
H293 H 0.67415 0.03584 0.0317 0.0
C294 C 0.68027 0.05825 0.09047 0.0
C295 C 0.67575 0.05795 0.06521 0.0
C296 C 0.68769 0.03755 0.10166 0.0
C297 C 0.69016 0.01626 0.08701 0.0
C298 C 0.68494 0.01535 0.06184 0.0
C299 C 0.67795 0.03634 0.05113 0.0
H300 H 0.49891 0.3777 0.6215 0.0
H301 H 0.4765 0.37218 0.54587 0.0
H302 H 0.55219 0.38138 0.56828 0.0
C303 C 0.50349 0.37869 0.60287 0.0
C304 C 0.52793 0.38073 0.59734 0.0
C305 C 0.48489 0.37558 0.58442 0.0
C306 C 0.49082 0.37492 0.56019 0.0
C307 C 0.51505 0.37658 0.55422 0.0
C308 C 0.53348 0.38026 0.57287 0.0
H309 H 0.10786 0.72938 0.0795 0.0
H310 H 0.11093 0.74401 0.00468 0.0
H311 H 0.04393 0.71673 0.031 0.0
C312 C 0.09888 0.72975 0.06162 0.0
C313 C 0.07411 0.72242 0.05776 0.0
C314 C 0.11231 0.73743 0.04256 0.0
C315 C 0.10057 0.73837 0.01952 0.0
C316 C 0.07591 0.73101 0.01514 0.0
C317 C 0.06273 0.72326 0.03443 0.0
H318 H 0.91939 0.21363 0.39376 0.0
H319 H 0.89277 0.2265 0.46423 0.0
H320 H 0.96946 0.2262 0.45623 0.0
C321 C 0.92283 0.21684 0.41318 0.0
C322 C 0.94679 0.2194 0.4232 0.0
C323 C 0.90321 0.21912 0.4278 0.0
C324 C 0.9078 0.22455 0.45283 0.0
C325 C 0.93169 0.22748 0.4632 0.0
C326 C 0.95105 0.22471 0.44825 0.0
H327 H 0.45752 0.70233 0.90825 0.0
H328 H 0.45563 0.69594 0.98482 0.0
H329 H 0.39015 0.68276 0.93884 0.0
C330 C 0.44743 0.69816 0.92374 0.0
C331 C 0.42239 0.6921 0.92054 0.0
C332 C 0.45961 0.6994 0.94676 0.0
C333 C 0.44649 0.69431 0.96688 0.0
C334 C 0.42137 0.68863 0.96418 0.0
C335 C 0.40945 0.68747 0.94096 0.0
H336 H 0.61689 0.50492 0.36252 0.0
H337 H 0.54279 0.49555 0.3349 0.0
H338 H 0.57625 0.56727 0.34938 0.0
C339 C 0.60033 0.51289 0.35683 0.0
C340 C 0.59965 0.53825 0.35667 0.0
C341 C 0.58023 0.49743 0.34832 0.0
C342 C 0.55848 0.50741 0.34129 0.0
C343 C 0.55682 0.53261 0.34266 0.0
C344 C 0.57745 0.54791 0.35002 0.0
H345 H 0.05312 0.10702 0.69229 0.0
H346 H 0.97985 0.09114 0.71016 0.0
H347 H 0.02405 0.03303 0.69026 0.0
C348 C 0.0383 0.09388 0.69461 0.0
C349 C 0.04131 0.06903 0.69006 0.0
C350 C 0.01635 0.10196 0.7023 0.0
C351 C 0.99707 0.08491 0.70504 0.0
C352 C 0.99955 0.06001 0.70039 0.0
C353 C 0.0218 0.05225 0.69309 0.0
H354 H 0.39295 0.93281 0.22847 0.0
H355 H 0.46789 0.9177 0.23668 0.0
H356 H 0.44743 0.99139 0.24304 0.0
C357 C 0.41178 0.93922 0.23187 0.0
C358 C 0.41792 0.96416 0.23596 0.0
C359 C 0.42961 0.92234 0.23218 0.0
C360 C 0.45405 0.93066 0.2364 0.0
C361 C 0.46069 0.95559 0.24015 0.0
C362 C 0.44247 0.97218 0.24002 0.0
H363 H 0.91119 0.47336 0.72297 0.0
H364 H 0.98742 0.47376 0.71368 0.0
H365 H 0.94274 0.40736 0.70051 0.0
C366 C 0.9268 0.46378 0.71808 0.0
C367 C 0.92411 0.43878 0.71175 0.0
C368 C 0.94945 0.47661 0.71847 0.0
C369 C 0.96974 0.4641 0.71252 0.0
C370 C 0.96757 0.43902 0.70634 0.0
C371 C 0.94463 0.42656 0.70581 0.0
H372 H 0.6356 0.37508 0.49156 0.0
H373 H 0.64787 0.45112 0.5112 0.0
H374 H 0.63758 0.42617 0.43617 0.0
C375 C 0.63651 0.39359 0.48633 0.0
C376 C 0.63502 0.39819 0.46162 0.0
C377 C 0.64109 0.41248 0.50437 0.0
C378 C 0.64426 0.43634 0.49746 0.0
C379 C 0.64339 0.44135 0.47294 0.0
C380 C 0.63819 0.42228 0.4551 0.0
H381 H 0.78758 0.60867 0.13431 0.0
H382 H 0.79143 0.53225 0.14193 0.0
H383 H 0.76069 0.55783 0.07584 0.0
C384 C 0.78468 0.59013 0.12679 0.0
C385 C 0.77388 0.58558 0.10325 0.0
C386 C 0.79095 0.57109 0.14102 0.0
C387 C 0.78653 0.5471 0.13121 0.0
C388 C 0.77582 0.54214 0.10761 0.0
C389 C 0.76975 0.56152 0.09368 0.0
H390 H 0.218 0.10925 0.47169 0.0
H391 H 0.22403 0.03244 0.47259 0.0
H392 H 0.23732 0.07783 0.53849 0.0
C393 C 0.22128 0.09341 0.48158 0.0
C394 C 0.22726 0.09628 0.50662 0.0
C395 C 0.22037 0.07057 0.469 0.0
C396 C 0.22501 0.05022 0.48202 0.0
C397 C 0.23101 0.05263 0.50712 0.0
C398 C 0.23187 0.07572 0.51933 0.0
H399 H 0.32782 0.93396 0.85406 0.0
H400 H 0.32518 0.01061 0.87061 0.0
H401 H 0.3364 0.96312 0.92793 0.0
C402 C 0.32897 0.94943 0.86708 0.0
C403 C 0.33301 0.94579 0.89184 0.0
C404 C 0.32603 0.97274 0.85909 0.0
C405 C 0.32734 0.99254 0.87641 0.0
C406 C 0.33075 0.98923 0.90127 0.0
C407 C 0.33379 0.96581 0.90878 0.0
H408 H 0.52913 0.63821 0.38695 0.0
H409 H 0.53928 0.64187 0.46448 0.0
H410 H 0.46804 0.64494 0.43054 0.0
C411 C 0.52159 0.63941 0.40445 0.0
C412 C 0.49646 0.64105 0.40581 0.0
C413 C 0.53735 0.64058 0.42542 0.0
C414 C 0.52746 0.64164 0.44815 0.0
C415 C 0.50242 0.64271 0.45002 0.0
C416 C 0.48711 0.64262 0.42885 0.0
H417 H 0.86777 0.32824 0.96138 0.0
H418 H 0.87068 0.32793 0.03912 0.0
H419 H 0.93643 0.33242 0.00237 0.0
C420 C 0.87807 0.32959 0.9787 0.0
C421 C 0.90353 0.33144 0.97928 0.0
C422 C 0.86589 0.3282 0.00014 0.0
C423 C 0.87967 0.32853 0.02236 0.0
C424 C 0.90506 0.3295 0.02326 0.0
C425 C 0.91683 0.33146 0.00171 0.0
H426 H 0.13096 0.78689 0.60628 0.0
H427 H 0.13297 0.78247 0.52889 0.0
H428 H 0.06788 0.75917 0.56175 0.0
C429 C 0.1219 0.78251 0.58853 0.0
C430 C 0.09776 0.77294 0.58657 0.0
C431 C 0.13479 0.78568 0.56785 0.0
C432 C 0.12311 0.77974 0.54487 0.0
C433 C 0.0988 0.77053 0.54243 0.0
C434 C 0.08627 0.76721 0.56342 0.0
H435 H 0.50552 0.21013 0.09802 0.0
H436 H 0.49665 0.20284 0.0202 0.0
H437 H 0.56762 0.2166 0.05568 0.0
C438 C 0.51326 0.20898 0.08056 0.0
C439 C 0.53845 0.21286 0.07949 0.0
C440 C 0.49787 0.20533 0.05933 0.0
C441 C 0.50815 0.20567 0.03678 0.0
C442 C 0.53321 0.21006 0.03536 0.0
C443 C 0.54828 0.21311 0.05675 0.0
H444 H 0.3854 0.50157 0.60864 0.0
H445 H 0.4618 0.52038 0.61495 0.0
H446 H 0.43536 0.44536 0.60891 0.0
C447 C 0.40381 0.49612 0.60817 0.0
C448 C 0.40798 0.47136 0.60719 0.0
C449 C 0.42299 0.51395 0.61116 0.0
C450 C 0.44683 0.50673 0.6126 0.0
C451 C 0.45151 0.48203 0.61176 0.0
C452 C 0.43196 0.4644 0.6088 0.0
H453 H 0.94029 0.88815 0.3343 0.0
H454 H 0.01708 0.88197 0.33507 0.0
H455 H 0.98873 0.95231 0.34326 0.0
C456 C 0.95849 0.89669 0.33632 0.0
C457 C 0.96204 0.92204 0.33965 0.0
C458 C 0.97827 0.88221 0.33486 0.0
C459 C 0.00184 0.89318 0.33662 0.0
C460 C 0.0058 0.91851 0.3393 0.0
C461 C 0.98581 0.93277 0.34121 0.0
H462 H 0.61045 0.1085 0.79139 0.0
H463 H 0.53625 0.12294 0.77607 0.0
H464 H 0.55747 0.04942 0.77184 0.0
C465 C 0.59179 0.10176 0.78724 0.0
C466 C 0.58622 0.07682 0.78217 0.0
C467 C 0.57387 0.11841 0.78539 0.0
C468 C 0.54997 0.11 0.77819 0.0
C469 C 0.54385 0.08511 0.77307 0.0
C470 C 0.56208 0.06863 0.77539 0.0
H471 H 0.08425 0.45973 0.21875 0.0
H472 H 0.01673 0.44676 0.25141 0.0
H473 H 0.04766 0.51947 0.24902 0.0
C474 C 0.06916 0.46658 0.22796 0.0
C475 C 0.06856 0.49159 0.23347 0.0
C476 C 0.05091 0.45015 0.23479 0.0
C477 C 0.03073 0.45919 0.24559 0.0
C478 C 0.0293 0.48424 0.25043 0.0
C479 C 0.04836 0.50026 0.24448 0.0
H480 H 0.21419 0.55449 0.2271 0.0
H481 H 0.06973 0.53917 0.2208 0.0
H482 H 0.17013 0.6146 0.24164 0.0
H483 H 0.11661 0.48234 0.23814 0.0
H484 H 0.10566 0.56684 0.21877 0.0
H485 H 0.17746 0.52764 0.22039 0.0
C486 C 0.19679 0.56212 0.22855 0.0
C487 C 0.19523 0.58678 0.23522 0.0
C488 C 0.10792 0.5482 0.22274 0.0
C489 C 0.15318 0.55613 0.22756 0.0
C490 C 0.08745 0.53241 0.22406 0.0
C491 C 0.08997 0.50827 0.22974 0.0
C492 C 0.13104 0.53972 0.22677 0.0
C493 C 0.11354 0.50054 0.23325 0.0
C494 C 0.17585 0.54676 0.22482 0.0
C495 C 0.17215 0.59565 0.23676 0.0
N496 N 0.13309 0.5162 0.23174 0.0
N497 N 0.15198 0.58029 0.23309 0.0
H498 H 0.26294 0.44018 0.63401 0.0
H499 H 0.40395 0.43284 0.63582 0.0
H500 H 0.29921 0.38387 0.66898 0.0
H501 H 0.36378 0.46988 0.58188 0.0
H502 H 0.3662 0.41196 0.64592 0.0
H503 H 0.29978 0.45028 0.61368 0.0
C504 C 0.27861 0.4298 0.63723 0.0
C505 C 0.27799 0.41103 0.65303 0.0
C506 C 0.3657 0.42425 0.6315 0.0
C507 C 0.32026 0.42262 0.63007 0.0
C508 C 0.38732 0.43604 0.62556 0.0
C509 C 0.38695 0.45359 0.60837 0.0
C510 C 0.34362 0.43034 0.62041 0.0
C511 C 0.36478 0.457 0.59575 0.0
C512 C 0.29958 0.43546 0.62551 0.0
C513 C 0.29883 0.39829 0.6567 0.0
N514 N 0.34393 0.44593 0.6024 0.0
N515 N 0.31923 0.40451 0.64552 0.0
H516 H 0.73097 0.03707 0.77651 0.0
H517 H 0.59082 0.0371 0.75082 0.0
H518 H 0.68971 0.97408 0.74261 0.0
H519 H 0.62739 0.07808 0.81279 0.0
H520 H 0.62643 0.01374 0.74701 0.0
H521 H 0.69334 0.05313 0.78938 0.0
C522 C 0.71401 0.0265 0.77204 0.0
C523 C 0.71341 0.00429 0.75839 0.0
C524 C 0.62647 0.02762 0.76165 0.0
C525 C 0.67035 0.02271 0.77263 0.0
C526 C 0.60607 0.04092 0.76396 0.0
C527 C 0.60613 0.05994 0.78195 0.0
C528 C 0.64724 0.03365 0.77713 0.0
C529 C 0.6267 0.06411 0.79819 0.0
C530 C 0.69258 0.03562 0.77945 0.0
C531 C 0.69096 0.99128 0.75313 0.0
N532 N 0.64658 0.05141 0.79512 0.0
N533 N 0.67024 0.00089 0.75989 0.0
H534 H 0.81801 0.97204 0.35016 0.0
H535 H 0.95612 0.96521 0.31889 0.0
H536 H 0.85962 0.0312 0.32212 0.0
H537 H 0.91945 0.91347 0.36145 0.0
H538 H 0.92063 0.98909 0.31884 0.0
H539 H 0.85452 0.94954 0.35309 0.0
C540 C 0.83483 0.98033 0.34467 0.0
C541 C 0.83575 0.00353 0.33584 0.0
C542 C 0.92039 0.97257 0.3283 0.0
C543 C 0.87757 0.97782 0.33904 0.0
C544 C 0.94075 0.95898 0.32848 0.0
C545 C 0.94086 0.93725 0.34023 0.0
C546 C 0.89986 0.96433 0.33977 0.0
C547 C 0.9201 0.92989 0.35186 0.0
C548 C 0.85568 0.96749 0.3464 0.0
C549 C 0.85807 0.01338 0.32904 0.0
N550 N 0.90042 0.94334 0.35125 0.0
N551 N 0.87806 0.00042 0.33067 0.0
H552 H 0.24409 0.25121 0.53337 0.0
H553 H 0.21337 0.11125 0.55177 0.0
H554 H 0.23458 0.22493 0.60406 0.0
H555 H 0.24747 0.13773 0.48975 0.0
H556 H 0.21666 0.15271 0.57059 0.0
H557 H 0.23981 0.20958 0.51594 0.0
C558 C 0.24093 0.23669 0.54523 0.0
C559 C 0.23977 0.24156 0.57023 0.0
C560 C 0.22338 0.14933 0.55285 0.0
C561 C 0.23491 0.19378 0.55035 0.0
C562 C 0.22162 0.12569 0.54215 0.0
C563 C 0.22984 0.12099 0.51897 0.0
C564 C 0.23324 0.16835 0.54018 0.0
C565 C 0.24025 0.14049 0.50732 0.0
C566 C 0.23863 0.21291 0.53527 0.0
C567 C 0.23568 0.22197 0.58469 0.0
N568 N 0.2415 0.16325 0.51797 0.0
N569 N 0.23337 0.19888 0.57454 0.0
H570 H 0.36731 0.82369 0.97485 0.0
H571 H 0.3075 0.90342 0.8749 0.0
H572 H 0.31747 0.79399 0.91603 0.0
H573 H 0.36444 0.93153 0.92769 0.0
H574 H 0.31154 0.86308 0.88927 0.0
H575 H 0.36729 0.86312 0.95742 0.0
C576 C 0.35653 0.8254 0.95815 0.0
C577 C 0.34228 0.80552 0.94695 0.0
C578 C 0.32325 0.87804 0.89764 0.0
C579 C 0.34199 0.85068 0.92702 0.0
C580 C 0.32104 0.9011 0.88935 0.0
C581 C 0.33566 0.92098 0.90008 0.0
C582 C 0.34009 0.87474 0.91694 0.0
C583 C 0.35254 0.91684 0.91909 0.0
C584 C 0.3565 0.84794 0.94822 0.0
C585 C 0.32869 0.80881 0.92533 0.0
N586 N 0.35423 0.89423 0.92696 0.0
N587 N 0.32874 0.83099 0.91618 0.0
H588 H 0.62365 0.25185 0.39994 0.0
H589 H 0.65674 0.39385 0.4183 0.0
H590 H 0.66503 0.29189 0.35048 0.0
H591 H 0.60827 0.35482 0.46251 0.0
H592 H 0.65688 0.35768 0.39103 0.0
H593 H 0.61478 0.29004 0.42086 0.0
C594 C 0.63068 0.2687 0.39334 0.0
C595 C 0.64531 0.26868 0.37361 0.0
C596 C 0.646 0.35712 0.40655 0.0
C597 C 0.63561 0.31247 0.39772 0.0
C598 C 0.64573 0.37789 0.42209 0.0
C599 C 0.63266 0.37745 0.443 0.0
C600 C 0.63329 0.33565 0.412 0.0
C601 C 0.61915 0.35594 0.44702 0.0
C602 C 0.62564 0.29051 0.40531 0.0
C603 C 0.65377 0.29106 0.3657 0.0
N604 N 0.62004 0.33588 0.43186 0.0
N605 N 0.64908 0.31205 0.37799 0.0
H606 H 0.71656 0.71982 0.06296 0.0
H607 H 0.77759 0.59251 0.05486 0.0
H608 H 0.73562 0.68501 0.9956 0.0
H609 H 0.75119 0.62509 0.12001 0.0
H610 H 0.76408 0.62677 0.03283 0.0
H611 H 0.73159 0.68611 0.08435 0.0
C612 C 0.72402 0.70513 0.05266 0.0
C613 C 0.72477 0.70522 0.02743 0.0
C614 C 0.76131 0.6264 0.05196 0.0
C615 C 0.74195 0.6664 0.05185 0.0
C616 C 0.76891 0.60681 0.06451 0.0
C617 C 0.7657 0.60601 0.08937 0.0
C618 C 0.75041 0.64529 0.06437 0.0
C619 C 0.75451 0.62515 0.10099 0.0
C620 C 0.73255 0.68583 0.06489 0.0
C621 C 0.73465 0.68567 0.01506 0.0
N622 N 0.74732 0.64395 0.08842 0.0
N623 N 0.74282 0.667 0.02739 0.0
H624 H 0.64464 0.27791 0.18942 0.0
H625 H 0.53571 0.1922 0.12308 0.0
H626 H 0.59411 0.23456 0.22759 0.0
H627 H 0.57685 0.24673 0.08761 0.0
H628 H 0.55994 0.20394 0.16081 0.0
H629 H 0.62307 0.26291 0.15114 0.0
C630 C 0.62908 0.26514 0.18976 0.0
C631 C 0.62109 0.25757 0.21176 0.0
C632 C 0.56372 0.21323 0.14472 0.0
C633 C 0.59634 0.24032 0.16799 0.0
C634 C 0.54986 0.20659 0.12319 0.0
C635 C 0.55416 0.21852 0.1021 0.0
C636 C 0.58212 0.23187 0.14519 0.0
C637 C 0.57304 0.23677 0.10327 0.0
C638 C 0.61675 0.25663 0.16789 0.0
C639 C 0.60083 0.24098 0.21107 0.0
N640 N 0.58624 0.24292 0.12445 0.0
N641 N 0.58913 0.23294 0.18954 0.0
H642 H 0.93993 0.34667 0.83087 0.0
H643 H 0.94475 0.30947 0.96751 0.0
H644 H 0.00392 0.32194 0.86743 0.0
H645 H 0.89112 0.3551 0.93859 0.0
H646 H 0.96516 0.31111 0.92992 0.0
H647 H 0.92009 0.34704 0.86911 0.0
C648 C 0.94982 0.34137 0.84694 0.0
C649 C 0.97361 0.33425 0.84596 0.0
C650 C 0.94898 0.32085 0.93185 0.0
C651 C 0.95096 0.33444 0.88965 0.0
C652 C 0.93735 0.32005 0.9534 0.0
C653 C 0.91618 0.3323 0.95639 0.0
C654 C 0.93927 0.33372 0.91294 0.0
C655 C 0.90719 0.34514 0.93706 0.0
C656 C 0.93851 0.34164 0.86875 0.0
C657 C 0.98558 0.32761 0.86735 0.0
N658 N 0.91873 0.34544 0.91614 0.0
N659 N 0.97407 0.32772 0.88828 0.0
H660 H 0.44198 0.65567 0.25851 0.0
H661 H 0.44754 0.62695 0.39719 0.0
H662 H 0.37946 0.66163 0.3007 0.0
H663 H 0.50811 0.65984 0.36261 0.0
H664 H 0.42169 0.6323 0.36089 0.0
H665 H 0.46597 0.64718 0.29507 0.0
C666 C 0.43322 0.65499 0.2754 0.0
C667 C 0.40873 0.65967 0.2766 0.0
C668 C 0.44078 0.63789 0.36131 0.0
C669 C 0.43617 0.65007 0.31845 0.0
C670 C 0.4556 0.63515 0.38215 0.0
C671 C 0.4804 0.64276 0.38332 0.0
C672 C 0.45095 0.64721 0.34105 0.0
C673 C 0.48952 0.65276 0.36271 0.0
C674 C 0.44698 0.65029 0.29626 0.0
C675 C 0.39835 0.65838 0.299 0.0
N676 N 0.47489 0.65441 0.34244 0.0
N677 N 0.41217 0.65379 0.31913 0.0
H678 H 0.99158 0.74934 0.69297 0.0
H679 H 0.11623 0.75386 0.62763 0.0
H680 H 0.05975 0.7308 0.72642 0.0
H681 H 0.0504 0.77984 0.59605 0.0
H682 H 0.09554 0.74544 0.66392 0.0
H683 H 0.01247 0.76084 0.65739 0.0
C684 C 0.01096 0.74782 0.6929 0.0
C685 C 0.02393 0.73902 0.7127 0.0
C686 C 0.0856 0.75308 0.64912 0.0
C687 C 0.04789 0.752 0.67197 0.0
C688 C 0.09746 0.75804 0.6284 0.0
C689 C 0.08511 0.76777 0.60876 0.0
C690 C 0.06108 0.75769 0.65031 0.0
C691 C 0.06059 0.77217 0.61065 0.0
C692 C 0.02286 0.75438 0.67257 0.0
C693 C 0.049 0.73745 0.71159 0.0
N694 N 0.04938 0.76709 0.63105 0.0
N695 N 0.06012 0.74376 0.69155 0.0
H696 H 0.77142 0.40737 0.72274 0.0
H697 H 0.91324 0.39299 0.72642 0.0
H698 H 0.80059 0.33694 0.71826 0.0
H699 H 0.87965 0.4544 0.6978 0.0
H700 H 0.87296 0.37287 0.7289 0.0
H701 H 0.81216 0.42612 0.72033 0.0
C702 C 0.78643 0.39585 0.72147 0.0
C703 C 0.78262 0.37056 0.72063 0.0
C704 C 0.87453 0.39073 0.72203 0.0
C705 C 0.82924 0.39191 0.71787 0.0
C706 C 0.89749 0.40218 0.72043 0.0
C707 C 0.89994 0.42557 0.71204 0.0
C708 C 0.8539 0.40288 0.71554 0.0
C709 C 0.87876 0.43667 0.70493 0.0
C710 C 0.80963 0.40656 0.71992 0.0
C711 C 0.80275 0.35651 0.71887 0.0
N712 N 0.85667 0.42532 0.70704 0.0
N713 N 0.82527 0.36739 0.71761 0.0
H714 H 0.74876 0.59401 0.3824 0.0
H715 H 0.6056 0.58652 0.37444 0.0
H716 H 0.71008 0.65384 0.35725 0.0
H717 H 0.64653 0.52703 0.34895 0.0
H718 H 0.64313 0.61241 0.3785 0.0
H719 H 0.71024 0.56984 0.38196 0.0
C720 C 0.73217 0.60221 0.37713 0.0
C721 C 0.73262 0.62605 0.36994 0.0
C722 C 0.64365 0.59358 0.37228 0.0
C723 C 0.68868 0.59856 0.36962 0.0
C724 C 0.62222 0.57871 0.36975 0.0
C725 C 0.62247 0.5542 0.36136 0.0
C726 C 0.66561 0.5837 0.36738 0.0
C727 C 0.64504 0.54535 0.35628 0.0
C728 C 0.71028 0.58837 0.37677 0.0
C729 C 0.71052 0.63567 0.36325 0.0
N730 N 0.66562 0.56 0.3596 0.0
N731 N 0.68936 0.6219 0.36329 0.0
H732 H 0.27912 0.02618 0.2362 0.0
H733 H 0.41851 0.00956 0.21815 0.0
H734 H 0.33026 0.08744 0.23164 0.0
H735 H 0.37297 0.95868 0.2538 0.0
H736 H 0.38567 0.03713 0.21738 0.0
H737 H 0.31252 0.99946 0.23596 0.0
C738 C 0.29736 0.034 0.23494 0.0
C739 C 0.30194 0.05908 0.234 0.0
C740 C 0.38298 0.0199 0.22536 0.0
C741 C 0.34021 0.02859 0.23371 0.0
C742 C 0.40175 0.0042 0.22596 0.0
C743 C 0.39854 0.9816 0.23593 0.0
C744 C 0.36077 0.01283 0.23447 0.0
C745 C 0.37619 0.97559 0.24541 0.0
C746 C 0.31641 0.01875 0.23496 0.0
C747 C 0.32596 0.0682 0.23249 0.0
N748 N 0.35814 0.99101 0.2443 0.0
N749 N 0.34424 0.05294 0.23232 0.0
H750 H 0.15495 0.98533 0.63361 0.0
H751 H 0.08734 0.08734 0.70537 0.0
H752 H 0.19087 0.05302 0.66316 0.0
H753 H 0.04918 0.0314 0.65728 0.0
H754 H 0.12563 0.07345 0.69238 0.0
H755 H 0.11613 0.00026 0.64439 0.0
C756 C 0.15467 0.00336 0.64227 0.0
C757 C 0.17619 0.01794 0.64751 0.0
C758 C 0.10886 0.06427 0.68461 0.0
C759 C 0.1319 0.03501 0.6601 0.0
C760 C 0.08693 0.07227 0.69193 0.0
C761 C 0.06485 0.06062 0.68238 0.0
C762 C 0.10886 0.04427 0.6678 0.0
C763 C 0.06567 0.04077 0.66544 0.0
C764 C 0.13251 0.01188 0.64838 0.0
C765 C 0.17473 0.04117 0.65873 0.0
N766 N 0.08729 0.03318 0.65876 0.0
N767 N 0.153 0.04891 0.6648 0.0
H768 H 0.71537 0.8136 0.35656 0.0
H769 H 0.75047 0.91713 0.46214 0.0
H770 H 0.76547 0.80571 0.41787 0.0
H771 H 0.689 0.91931 0.41081 0.0
H772 H 0.76058 0.87915 0.44183 0.0
H773 H 0.70986 0.8551 0.37207 0.0
C774 C 0.72539 0.82066 0.37315 0.0
C775 C 0.74078 0.80611 0.38605 0.0
C776 C 0.74494 0.88797 0.43491 0.0
C777 C 0.73458 0.85351 0.40382 0.0
C778 C 0.7391 0.90962 0.44655 0.0
C779 C 0.71858 0.92119 0.43843 0.0
C780 C 0.73023 0.87775 0.41491 0.0
C781 C 0.70494 0.91098 0.41771 0.0
C782 C 0.72218 0.84432 0.38201 0.0
C783 C 0.7533 0.8162 0.40743 0.0
N784 N 0.71089 0.8897 0.40676 0.0
N785 N 0.74986 0.83924 0.41567 0.0
H786 H 0.6269 0.1993 0.03387 0.0
H787 H 0.69097 0.07436 0.02271 0.0
H788 H 0.65923 0.17264 0.96944 0.0
H789 H 0.64559 0.09262 0.08078 0.0
H790 H 0.68029 0.11097 0.00361 0.0
H791 H 0.63417 0.16102 0.05206 0.0
C792 C 0.63544 0.18538 0.02352 0.0
C793 C 0.64264 0.18924 0.00017 0.0
C794 C 0.67256 0.10694 0.02048 0.0
C795 C 0.65113 0.14553 0.0209 0.0
C796 C 0.67857 0.08593 0.03137 0.0
C797 C 0.66913 0.08026 0.0534 0.0
C798 C 0.65714 0.12265 0.03174 0.0
C799 C 0.65358 0.09636 0.06398 0.0
C800 C 0.63955 0.16353 0.0339 0.0
C801 C 0.65345 0.17051 0.98752 0.0
N802 N 0.64813 0.11685 0.05309 0.0
N803 N 0.65753 0.14957 0.99811 0.0
H804 H 0.39327 0.72153 0.57619 0.0
H805 H 0.32082 0.59273 0.56656 0.0
H806 H 0.34739 0.69659 0.63086 0.0
H807 H 0.37477 0.61318 0.51738 0.0
H808 H 0.33374 0.62871 0.59273 0.0
H809 H 0.38944 0.68079 0.55617 0.0
C810 C 0.38265 0.7074 0.58417 0.0
C811 C 0.37056 0.71248 0.6052 0.0
C812 C 0.34294 0.62521 0.57634 0.0
C813 C 0.3659 0.66589 0.58226 0.0
C814 C 0.3357 0.60449 0.56144 0.0
C815 C 0.34636 0.60009 0.5394 0.0
C816 C 0.36075 0.64185 0.56905 0.0
C817 C 0.36548 0.61619 0.53378 0.0
C818 C 0.38044 0.68415 0.5727 0.0
C819 C 0.35714 0.69347 0.61478 0.0
N820 N 0.37177 0.63655 0.54828 0.0
N821 N 0.35495 0.6711 0.60309 0.0
H822 H 0.30242 0.33284 0.08931 0.0
H823 H 0.25026 0.38918 0.96922 0.0
H824 H 0.25144 0.29378 0.03665 0.0
H825 H 0.31701 0.41687 0.0084 0.0
H826 H 0.24668 0.35716 0.99723 0.0
H827 H 0.30398 0.367 0.06336 0.0
C828 C 0.29141 0.33151 0.07239 0.0
C829 C 0.27684 0.31039 0.06507 0.0
C830 C 0.2621 0.37026 0.9997 0.0
C831 C 0.27851 0.34938 0.03542 0.0
C832 C 0.26427 0.38849 0.98362 0.0
C833 C 0.28417 0.40564 0.9862 0.0
C834 C 0.2798 0.36921 0.01873 0.0
C835 C 0.3013 0.40418 0.00574 0.0
C836 C 0.2924 0.35097 0.05757 0.0
C837 C 0.26301 0.30965 0.04294 0.0
N838 N 0.29874 0.38625 0.02123 0.0
N839 N 0.26418 0.32887 0.02891 0.0
H840 H 0.32369 0.70066 0.79296 0.0
H841 H 0.43913 0.67562 0.87744 0.0
H842 H 0.39652 0.70643 0.76961 0.0
H843 H 0.37726 0.70722 0.90727 0.0
H844 H 0.42066 0.67892 0.83684 0.0
H845 H 0.3403 0.69588 0.83442 0.0
C846 C 0.34314 0.70095 0.79656 0.0
C847 C 0.35879 0.70403 0.77788 0.0
C848 C 0.41113 0.68506 0.85232 0.0
C849 C 0.37769 0.69808 0.82485 0.0
C850 C 0.42168 0.68329 0.87552 0.0
C851 C 0.40998 0.69156 0.89591 0.0
C852 C 0.38848 0.69477 0.84935 0.0
C853 C 0.38695 0.70052 0.89216 0.0
C854 C 0.35254 0.69827 0.82015 0.0
C855 C 0.38382 0.70427 0.7835 0.0
N856 N 0.37694 0.70193 0.86929 0.0
N857 N 0.39248 0.70113 0.80643 0.0
H858 H 0.96539 0.68433 0.15765 0.0
H859 H 0.0901 0.69308 0.09263 0.0
H860 H 0.03337 0.66435 0.19029 0.0
H861 H 0.02712 0.72937 0.06856 0.0
H862 H 0.0682 0.67839 0.12614 0.0
H863 H 0.98631 0.69655 0.12232 0.0
C864 C 0.98467 0.68234 0.15732 0.0
C865 C 0.99767 0.67337 0.177 0.0
C866 C 0.05917 0.68958 0.11354 0.0
C867 C 0.02167 0.68733 0.13665 0.0
C868 C 0.07172 0.69814 0.09446 0.0
C869 C 0.06058 0.7128 0.07785 0.0
C870 C 0.03517 0.69549 0.11604 0.0
C871 C 0.03643 0.71805 0.08081 0.0
C872 C 0.99661 0.68942 0.1372 0.0
C873 C 0.02264 0.67125 0.17559 0.0
N874 N 0.02455 0.70945 0.09957 0.0
N875 N 0.03382 0.67819 0.15578 0.0
H876 H 0.6105 0.38902 0.7361 0.0
H877 H 0.57083 0.35841 0.59593 0.0
H878 H 0.64361 0.33681 0.68996 0.0
H879 H 0.52956 0.40154 0.64395 0.0
H880 H 0.601 0.35524 0.62902 0.0
H881 H 0.5837 0.39809 0.70146 0.0
C882 C 0.61224 0.37961 0.71865 0.0
C883 C 0.62936 0.36221 0.71585 0.0
C884 C 0.58535 0.36543 0.63231 0.0
C885 C 0.59875 0.37232 0.67633 0.0
C886 C 0.56818 0.36755 0.61328 0.0
C887 C 0.54744 0.3803 0.617 0.0
C888 C 0.58178 0.37591 0.65539 0.0
C889 C 0.54493 0.39112 0.64025 0.0
C890 C 0.59695 0.38475 0.69893 0.0
C891 C 0.63086 0.35054 0.69287 0.0
N892 N 0.56183 0.38859 0.65858 0.0
N893 N 0.61573 0.35577 0.67402 0.0
H894 H 0.02844 0.19211 0.29842 0.0
H895 H 0.99045 0.24613 0.42575 0.0
H896 H 0.07767 0.23675 0.34844 0.0
H897 H 0.94981 0.18686 0.3843 0.0
H898 H 0.02264 0.24315 0.39778 0.0
H899 H 0.99923 0.19017 0.32957 0.0
C900 C 0.03318 0.20134 0.31602 0.0
C901 C 0.05547 0.2147 0.32081 0.0
C902 C 0.00675 0.23068 0.39493 0.0
C903 C 0.02203 0.21278 0.35646 0.0
C904 C 0.98839 0.2323 0.41096 0.0
C905 C 0.96724 0.21686 0.40729 0.0
C906 C 0.00388 0.21366 0.37496 0.0
C907 C 0.96551 0.19951 0.38757 0.0
C908 C 0.01652 0.20021 0.33381 0.0
C909 C 0.06069 0.22626 0.34396 0.0
N910 N 0.98348 0.19852 0.37206 0.0
N911 N 0.04398 0.22524 0.36086 0.0
H912 H 0.26953 0.57643 0.3291 0.0
H913 H 0.31458 0.61366 0.46221 0.0
H914 H 0.32447 0.63487 0.34392 0.0
H915 H 0.31618 0.53815 0.43771 0.0
H916 H 0.3095 0.62383 0.42026 0.0
H917 H 0.27758 0.56369 0.37047 0.0
C918 C 0.28331 0.58648 0.34108 0.0
C919 C 0.29651 0.6066 0.33323 0.0
C920 C 0.31105 0.60508 0.42422 0.0
C921 C 0.30519 0.59265 0.38026 0.0
C922 C 0.3142 0.59915 0.4482 0.0
C923 C 0.31635 0.57492 0.45386 0.0
C924 C 0.30913 0.58667 0.40566 0.0
C925 C 0.31441 0.55702 0.43451 0.0
C926 C 0.28793 0.57917 0.36449 0.0
C927 C 0.31413 0.61913 0.34932 0.0
N928 N 0.31069 0.56324 0.41127 0.0
N929 N 0.31772 0.61218 0.37227 0.0
H930 H 0.2604 0.42594 0.76988 0.0
H931 H 0.24166 0.40772 0.90963 0.0
H932 H 0.2053 0.37699 0.79521 0.0
H933 H 0.30168 0.45126 0.88558 0.0
H934 H 0.22789 0.39697 0.86759 0.0
H935 H 0.27571 0.43602 0.81188 0.0
C936 C 0.25158 0.41724 0.78424 0.0
C937 C 0.23149 0.40062 0.77899 0.0
C938 C 0.24412 0.40883 0.87144 0.0
C939 C 0.24884 0.41218 0.82706 0.0
C940 C 0.25208 0.41489 0.89549 0.0
C941 C 0.27299 0.43028 0.90119 0.0
C942 C 0.25705 0.41828 0.8528 0.0
C943 C 0.28538 0.43947 0.88204 0.0
C944 C 0.26032 0.42302 0.80821 0.0
C945 C 0.22081 0.38991 0.79834 0.0
N946 N 0.27723 0.43331 0.85869 0.0
N947 N 0.22956 0.39594 0.82147 0.0
H948 H 0.74424 0.92276 0.63498 0.0
H949 H 0.72138 0.00236 0.52274 0.0
H950 H 0.74811 0.00094 0.64154 0.0
H951 H 0.69655 0.92688 0.52188 0.0
H952 H 0.73108 0.00238 0.56624 0.0
H953 H 0.72714 0.92374 0.59335 0.0
C954 C 0.74138 0.94013 0.62772 0.0
C955 C 0.74776 0.9618 0.64172 0.0
C956 C 0.72327 0.98588 0.55657 0.0
C957 C 0.72835 0.96305 0.59407 0.0
C958 C 0.71756 0.98588 0.53171 0.0
C959 C 0.7083 0.96452 0.51848 0.0
C960 C 0.72001 0.9643 0.5683 0.0
C961 C 0.70416 0.94364 0.53117 0.0
C962 C 0.73154 0.94067 0.60399 0.0
C963 C 0.74352 0.98378 0.6314 0.0
N964 N 0.71029 0.94398 0.5553 0.0
N965 N 0.73431 0.98384 0.60813 0.0
H966 H 0.74246 0.00617 0.24465 0.0
H967 H 0.70585 0.07616 0.13298 0.0
H968 H 0.70547 0.07166 0.25603 0.0
H969 H 0.68186 0.00029 0.13227 0.0
H970 H 0.71437 0.07647 0.1767 0.0
H971 H 0.72924 0.00474 0.20132 0.0
C972 C 0.73146 0.02014 0.23798 0.0
C973 C 0.72482 0.03896 0.25376 0.0
C974 C 0.70718 0.05985 0.16679 0.0
C975 C 0.71051 0.03785 0.20462 0.0
C976 C 0.7021 0.05961 0.14181 0.0
C977 C 0.693 0.03814 0.12851 0.0
C978 C 0.70392 0.03838 0.17853 0.0
C979 C 0.6894 0.01717 0.14132 0.0
C980 C 0.72393 0.01927 0.21343 0.0
C981 C 0.71068 0.05673 0.24437 0.0
N982 N 0.69517 0.01774 0.16554 0.0
N983 N 0.70428 0.05599 0.22025 0.0
H984 H 0.33973 0.31082 0.58527 0.0
H985 H 0.45912 0.39792 0.61925 0.0
H986 H 0.34555 0.3649 0.64518 0.0
H987 H 0.4534 0.33948 0.56359 0.0
H988 H 0.4178 0.3862 0.62968 0.0
H989 H 0.38208 0.3203 0.5784 0.0
C990 C 0.34997 0.32452 0.59719 0.0
C991 C 0.33891 0.33735 0.61561 0.0
C992 C 0.42564 0.37596 0.6152 0.0
C993 C 0.38748 0.34861 0.60757 0.0
C994 C 0.44915 0.38266 0.60925 0.0
C995 C 0.45959 0.36977 0.59041 0.0
C996 C 0.41261 0.35618 0.60228 0.0
C997 C 0.44591 0.35022 0.57793 0.0
C998 C 0.37417 0.33004 0.59316 0.0
C999 C 0.3532 0.35484 0.63051 0.0
N1000 N 0.42318 0.34404 0.5841 0.0
N1001 N 0.3767 0.36016 0.62601 0.0
H1002 H 0.26116 0.70603 0.05129 0.0
H1003 H 0.14082 0.77385 0.02511 0.0
H1004 H 0.2578 0.76873 0.00904 0.0
H1005 H 0.14468 0.71101 0.06702 0.0
H1006 H 0.18499 0.77657 0.02482 0.0
H1007 H 0.22024 0.71201 0.06319 0.0
C1008 C 0.25195 0.72126 0.04476 0.0
C1009 C 0.26279 0.73665 0.02878 0.0
C1010 C 0.1762 0.7624 0.0344 0.0
C1011 C 0.21577 0.74347 0.04218 0.0
C1012 C 0.15099 0.76081 0.03451 0.0
C1013 C 0.13902 0.74198 0.04582 0.0
C1014 C 0.18954 0.74493 0.04553 0.0
C1015 C 0.15311 0.72585 0.05811 0.0
C1016 C 0.22855 0.72466 0.05157 0.0
C1017 C 0.25007 0.75625 0.02118 0.0
N1018 N 0.17759 0.72749 0.05734 0.0
N1019 N 0.22709 0.75889 0.02765 0.0
H1020 H 0.75068 0.23057 0.38775 0.0
H1021 H 0.88483 0.18486 0.39273 0.0
H1022 H 0.77389 0.17391 0.33921 0.0
H1023 H 0.86425 0.24578 0.43741 0.0
H1024 H 0.84402 0.18051 0.3733 0.0
H1025 H 0.79197 0.23662 0.40621 0.0
C1026 C 0.76447 0.21951 0.38084 0.0
C1027 C 0.75876 0.20164 0.36191 0.0
C1028 C 0.84839 0.19486 0.38733 0.0
C1029 C 0.80603 0.20837 0.38314 0.0
C1030 C 0.87174 0.19741 0.39839 0.0
C1031 C 0.87805 0.21581 0.41666 0.0
C1032 C 0.83106 0.21075 0.39458 0.0
C1033 C 0.86015 0.2312 0.42357 0.0
C1034 C 0.78804 0.22295 0.39144 0.0
C1035 C 0.77741 0.18788 0.35375 0.0
N1036 N 0.83747 0.22835 0.4125 0.0
N1037 N 0.80015 0.19146 0.36448 0.0
H1038 H 0.59944 0.77456 0.93684 0.0
H1039 H 0.49536 0.6803 0.97483 0.0
H1040 H 0.61294 0.71832 0.9855 0.0
H1041 H 0.48346 0.73626 0.92551 0.0
H1042 H 0.53855 0.69338 0.97882 0.0
H1043 H 0.55703 0.75974 0.9317 0.0
C1044 C 0.59353 0.75899 0.94635 0.0
C1045 C 0.60981 0.74773 0.9617 0.0
C1046 C 0.52648 0.70273 0.96707 0.0
C1047 C 0.56107 0.73072 0.95601 0.0
C1048 C 0.50182 0.69536 0.96491 0.0
C1049 C 0.48581 0.70711 0.94971 0.0
C1050 C 0.53513 0.72205 0.95403 0.0
C1051 C 0.49519 0.72641 0.93712 0.0
C1052 C 0.56926 0.75055 0.94343 0.0
C1053 C 0.60105 0.72759 0.9735 0.0
N1054 N 0.51918 0.73325 0.93958 0.0
N1055 N 0.57725 0.71979 0.9705 0.0
H1056 H 0.6089 0.36114 0.27695 0.0
H1057 H 0.60075 0.46705 0.37975 0.0
H1058 H 0.62804 0.35309 0.35239 0.0
H1059 H 0.56697 0.46823 0.30767 0.0
H1060 H 0.61077 0.42523 0.37042 0.0
H1061 H 0.59415 0.4009 0.28777 0.0
C1062 C 0.60988 0.36776 0.2958 0.0
C1063 C 0.61925 0.35374 0.31388 0.0
C1064 C 0.60091 0.43453 0.35674 0.0
C1065 C 0.60264 0.39911 0.32642 0.0
C1066 C 0.59519 0.45837 0.36206 0.0
C1067 C 0.58307 0.47109 0.34442 0.0
C1068 C 0.59477 0.42348 0.33349 0.0
C1069 C 0.57616 0.45899 0.32184 0.0
C1070 C 0.60134 0.39034 0.302 0.0
C1071 C 0.62031 0.36311 0.33802 0.0
N1072 N 0.58236 0.43596 0.31692 0.0
N1073 N 0.61217 0.38527 0.34361 0.0
H1074 H 0.02163 0.25871 0.70111 0.0
H1075 H 0.99519 0.12352 0.74062 0.0
H1076 H 0.9912 0.24173 0.76821 0.0
H1077 H 0.03123 0.14017 0.67634 0.0
H1078 H 0.99125 0.16672 0.74963 0.0
H1079 H 0.02288 0.21538 0.69026 0.0
C1080 C 0.01471 0.24587 0.71331 0.0
C1081 C 0.00577 0.25381 0.73534 0.0
C1082 C 0.0 0.16095 0.73353 0.0
C1083 C 0.00788 0.20421 0.72344 0.0
C1084 C 0.00213 0.13627 0.72831 0.0
C1085 C 0.01358 0.1282 0.70771 0.0
C1086 C 0.00933 0.17779 0.71803 0.0
C1087 C 0.02254 0.14559 0.69257 0.0
C1088 C 0.01574 0.22112 0.70727 0.0
C1089 C 0.99813 0.23636 0.75099 0.0
N1090 N 0.02021 0.16956 0.69803 0.0
N1091 N 0.99931 0.2124 0.74472 0.0
H1092 H 0.35474 0.78491 0.18385 0.0
H1093 H 0.4463 0.88489 0.2573 0.0
H1094 H 0.40553 0.76817 0.24167 0.0
H1095 H 0.39628 0.90003 0.19826 0.0
H1096 H 0.432 0.84205 0.25199 0.0
H1097 H 0.36938 0.82736 0.18966 0.0
C1098 C 0.36888 0.79016 0.19789 0.0
C1099 C 0.37893 0.77289 0.21226 0.0
C1100 C 0.42419 0.85475 0.24018 0.0
C1101 C 0.39598 0.8216 0.2189 0.0
C1102 C 0.43248 0.87916 0.24309 0.0
C1103 C 0.42237 0.89608 0.22829 0.0
C1104 C 0.4057 0.84722 0.22232 0.0
C1105 C 0.40431 0.88769 0.21033 0.0
C1106 C 0.37731 0.81444 0.20115 0.0
C1107 C 0.39724 0.78084 0.23016 0.0
N1108 N 0.39654 0.86392 0.20791 0.0
N1109 N 0.40523 0.80461 0.23293 0.0
H1110 H 0.93307 0.61856 0.78702 0.0
H1111 H 0.976 0.5125 0.69799 0.0
H1112 H 0.98517 0.6305 0.73354 0.0
H1113 H 0.92832 0.50076 0.75537 0.0
H1114 H 0.9787 0.55596 0.70967 0.0
H1115 H 0.92952 0.57557 0.77402 0.0
C1116 C 0.94366 0.61219 0.77243 0.0
C1117 C 0.9595 0.6282 0.76142 0.0
C1118 C 0.96763 0.54386 0.71967 0.0
C1119 C 0.95564 0.57886 0.74652 0.0
C1120 C 0.96621 0.51904 0.71311 0.0
C1121 C 0.95182 0.50297 0.72564 0.0
C1122 C 0.95459 0.55266 0.73892 0.0
C1123 C 0.9393 0.5125 0.74492 0.0
C1124 C 0.94168 0.58759 0.76506 0.0
C1125 C 0.97276 0.61884 0.7426 0.0
N1126 N 0.94096 0.53668 0.75094 0.0
N1127 N 0.97058 0.59478 0.7358 0.0
H1128 H 0.69317 0.41096 0.65446 0.0
H1129 H 0.61627 0.37825 0.52901 0.0
H1130 H 0.65677 0.34054 0.63678 0.0
H1131 H 0.67483 0.43385 0.53861 0.0
H1132 H 0.62545 0.36737 0.57061 0.0
H1133 H 0.68134 0.42276 0.61384 0.0
C1134 C 0.68249 0.39808 0.64198 0.0
C1135 C 0.67581 0.37484 0.64879 0.0
C1136 C 0.63618 0.38198 0.56353 0.0
C1137 C 0.66204 0.38817 0.60256 0.0
C1138 C 0.631 0.3882 0.53982 0.0
C1139 C 0.64485 0.40697 0.53019 0.0
C1140 C 0.6552 0.39474 0.57774 0.0
C1141 C 0.66341 0.41952 0.54525 0.0
C1142 C 0.67588 0.40474 0.61883 0.0
C1143 C 0.66224 0.35864 0.63203 0.0
N1144 N 0.66804 0.41316 0.56822 0.0
N1145 N 0.65559 0.36568 0.60963 0.0
H1146 H 0.82898 0.65423 0.27455 0.0
H1147 H 0.78002 0.54642 0.18083 0.0
H1148 H 0.80871 0.58285 0.29632 0.0
H1149 H 0.82301 0.60839 0.15988 0.0
H1150 H 0.79118 0.55887 0.22322 0.0
H1151 H 0.82718 0.63788 0.23232 0.0
C1152 C 0.82457 0.63504 0.27043 0.0
C1153 C 0.81939 0.61977 0.28891 0.0
C1154 C 0.79841 0.56957 0.20933 0.0
C1155 C 0.81677 0.60105 0.24079 0.0
C1156 C 0.79217 0.56239 0.18506 0.0
C1157 C 0.80031 0.57653 0.16666 0.0
C1158 C 0.81262 0.59122 0.2153 0.0
C1159 C 0.81576 0.59724 0.17342 0.0
C1160 C 0.82359 0.6257 0.24639 0.0
C1161 C 0.81349 0.5951 0.28267 0.0
N1162 N 0.82113 0.60415 0.19718 0.0
N1163 N 0.81207 0.58654 0.2591 0.0
H1164 H 0.20742 0.11524 0.3239 0.0
H1165 H 0.2423 0.04108 0.43647 0.0
H1166 H 0.23259 0.04333 0.31587 0.0
H1167 H 0.19014 0.09574 0.4399 0.0
H1168 H 0.23985 0.04192 0.39248 0.0
H1169 H 0.20251 0.10965 0.36693 0.0
C1170 C 0.21165 0.0982 0.33119 0.0
C1171 C 0.22007 0.07958 0.31637 0.0
C1172 C 0.22875 0.05353 0.40288 0.0
C1173 C 0.21497 0.07321 0.36538 0.0
C1174 C 0.22999 0.05295 0.42804 0.0
C1175 C 0.21661 0.06856 0.44209 0.0
C1176 C 0.21436 0.0701 0.39165 0.0
C1177 C 0.20129 0.08383 0.42995 0.0
C1178 C 0.20876 0.09497 0.35564 0.0
C1179 C 0.22552 0.05791 0.32662 0.0
N1180 N 0.20086 0.08447 0.40548 0.0
N1181 N 0.22311 0.05539 0.35058 0.0
H1182 H 0.2906 0.95203 0.70418 0.0
H1183 H 0.29722 0.00589 0.83878 0.0
H1184 H 0.29159 0.02903 0.72126 0.0
H1185 H 0.34204 0.94758 0.8191 0.0
H1186 H 0.2887 0.01156 0.79601 0.0
H1187 H 0.30329 0.94653 0.74678 0.0
C1188 C 0.29369 0.96773 0.71688 0.0
C1189 C 0.29043 0.99103 0.70931 0.0
C1190 C 0.30047 0.9976 0.80117 0.0
C1191 C 0.30408 0.98487 0.75768 0.0
C1192 C 0.30556 0.99442 0.82563 0.0
C1193 C 0.32065 0.97632 0.83287 0.0
C1194 C 0.30991 0.98221 0.78366 0.0
C1195 C 0.33003 0.96152 0.8146 0.0
C1196 C 0.30095 0.96461 0.74103 0.0
C1197 C 0.29439 0.01083 0.72638 0.0
N1198 N 0.32434 0.96464 0.79083 0.0
N1199 N 0.30073 0.00729 0.74986 0.0
H1200 H 0.66824 0.67642 0.35935 0.0
H1201 H 0.571 0.66851 0.45522 0.0
H1202 H 0.68933 0.6874 0.43555 0.0
H1203 H 0.56495 0.61991 0.39073 0.0
H1204 H 0.61327 0.67832 0.44812 0.0
H1205 H 0.62846 0.65928 0.36935 0.0
C1206 C 0.66443 0.67513 0.37817 0.0
C1207 C 0.68197 0.68302 0.39671 0.0
C1208 C 0.6027 0.66529 0.43573 0.0
C1209 C 0.63668 0.66414 0.40822 0.0
C1210 C 0.57855 0.65946 0.43984 0.0
C1211 C 0.56406 0.64354 0.42339 0.0
C1212 C 0.61234 0.65561 0.41475 0.0
C1213 C 0.57506 0.63285 0.40354 0.0
C1214 C 0.64189 0.66528 0.38385 0.0
C1215 C 0.67627 0.68118 0.42081 0.0
N1216 N 0.59841 0.63943 0.39952 0.0
N1217 N 0.65393 0.67222 0.42593 0.0
H1218 H 0.7142 0.3059 0.95194 0.0
H1219 H 0.83734 0.30206 0.0295 0.0
H1220 H 0.71667 0.29915 0.02907 0.0
H1221 H 0.83244 0.34699 0.9686 0.0
H1222 H 0.79338 0.29679 0.02751 0.0
H1223 H 0.75798 0.31704 0.95522 0.0
C1224 C 0.72394 0.30708 0.96957 0.0
C1225 C 0.71188 0.30199 0.99033 0.0
C1226 C 0.80198 0.30794 0.01471 0.0
C1227 C 0.76167 0.31397 0.99409 0.0
C1228 C 0.82716 0.31114 0.01589 0.0
C1229 C 0.83889 0.32518 0.99929 0.0
C1230 C 0.7883 0.31833 0.99646 0.0
C1231 C 0.82439 0.3357 0.98157 0.0
C1232 C 0.7488 0.31346 0.97143 0.0
C1233 C 0.72526 0.30348 0.01273 0.0
N1234 N 0.79986 0.33187 0.98048 0.0
N1235 N 0.74951 0.30906 0.01399 0.0
H1236 H 0.28873 0.77729 0.57999 0.0
H1237 H 0.15736 0.82286 0.59753 0.0
H1238 H 0.27677 0.84315 0.62185 0.0
H1239 H 0.17174 0.76596 0.54474 0.0
H1240 H 0.20101 0.83192 0.60546 0.0
H1241 H 0.246 0.77383 0.56578 0.0
C1242 C 0.27711 0.79118 0.58595 0.0
C1243 C 0.2863 0.81066 0.60189 0.0
C1244 C 0.19462 0.81766 0.59192 0.0
C1245 C 0.23729 0.80668 0.58601 0.0
C1246 C 0.16973 0.81244 0.58745 0.0
C1247 C 0.16095 0.79352 0.57058 0.0
C1248 C 0.21084 0.80366 0.57965 0.0
C1249 C 0.17773 0.78077 0.55782 0.0
C1250 C 0.25274 0.78925 0.57779 0.0
C1251 C 0.27051 0.82814 0.60913 0.0
N1252 N 0.20187 0.78587 0.56283 0.0
N1253 N 0.24669 0.82561 0.60132 0.0
H1254 H 0.3571 0.20625 0.11618 0.0
H1255 H 0.46283 0.22299 0.02909 0.0
H1256 H 0.34347 0.21386 0.03973 0.0
H1257 H 0.47146 0.18291 0.09314 0.0
H1258 H 0.41937 0.22153 0.03338 0.0
H1259 H 0.39956 0.19962 0.10931 0.0
C1260 C 0.363 0.20612 0.09791 0.0
C1261 C 0.34678 0.2102 0.07842 0.0
C1262 C 0.43078 0.21284 0.04634 0.0
C1263 C 0.39518 0.20329 0.07054 0.0
C1264 C 0.45567 0.21351 0.04384 0.0
C1265 C 0.47107 0.20308 0.0608 0.0
C1266 C 0.42114 0.20211 0.06619 0.0
C1267 C 0.46049 0.19165 0.07988 0.0
C1268 C 0.38715 0.2023 0.094 0.0
C1269 C 0.35529 0.21016 0.05514 0.0
N1270 N 0.43623 0.19173 0.08222 0.0
N1271 N 0.379 0.20706 0.05187 0.0
H1272 H 0.41231 0.65723 0.6796 0.0
H1273 H 0.3873 0.53898 0.5892 0.0
H1274 H 0.34279 0.6369 0.64237 0.0
H1275 H 0.44605 0.54758 0.64458 0.0
H1276 H 0.37441 0.5788 0.6026 0.0
H1277 H 0.42813 0.62039 0.66171 0.0
C1278 C 0.40048 0.64507 0.66741 0.0
C1279 C 0.37634 0.65009 0.66217 0.0
C1280 C 0.39024 0.572 0.61164 0.0
C1281 C 0.39424 0.60815 0.64159 0.0
C1282 C 0.39765 0.54932 0.60401 0.0
C1283 C 0.41764 0.53973 0.61597 0.0
C1284 C 0.40299 0.58527 0.63129 0.0
C1285 C 0.43064 0.5542 0.63469 0.0
C1286 C 0.40945 0.62404 0.65734 0.0
C1287 C 0.36156 0.63361 0.64672 0.0
N1288 N 0.42297 0.57615 0.64189 0.0
N1289 N 0.3708 0.61341 0.63678 0.0
H1290 H 0.95916 0.74393 0.25618 0.0
H1291 H 0.99844 0.84608 0.35906 0.0
H1292 H 0.97469 0.72618 0.32987 0.0
H1293 H 0.94956 0.85843 0.29819 0.0
H1294 H 0.99373 0.80237 0.34782 0.0
H1295 H 0.95861 0.78651 0.27019 0.0
C1296 C 0.96256 0.74897 0.27534 0.0
C1297 C 0.96799 0.73153 0.2918 0.0
C1298 C 0.98385 0.81466 0.33712 0.0
C1299 C 0.96757 0.78028 0.30787 0.0
C1300 C 0.9866 0.83951 0.34345 0.0
C1301 C 0.97433 0.85574 0.32952 0.0
C1302 C 0.96917 0.80616 0.31641 0.0
C1303 C 0.95917 0.84644 0.30947 0.0
C1304 C 0.96223 0.77328 0.28329 0.0
C1305 C 0.97196 0.73912 0.31641 0.0
N1306 N 0.95725 0.82226 0.30333 0.0
N1307 N 0.972 0.76301 0.32371 0.0
H1308 H 0.64825 0.25635 0.83378 0.0
H1309 H 0.56099 0.15492 0.75708 0.0
H1310 H 0.61493 0.26618 0.76307 0.0
H1311 H 0.60295 0.14156 0.82247 0.0
H1312 H 0.57632 0.19742 0.7617 0.0
H1313 H 0.62794 0.21573 0.83243 0.0
C1314 C 0.63627 0.25009 0.81819 0.0
C1315 C 0.63285 0.26472 0.79872 0.0
C1316 C 0.58204 0.18523 0.77513 0.0
C1317 C 0.61004 0.21818 0.79673 0.0
C1318 C 0.57313 0.16103 0.77262 0.0
C1319 C 0.58082 0.14469 0.78936 0.0
C1320 C 0.59868 0.19315 0.79458 0.0
C1321 C 0.59681 0.15352 0.809 0.0
C1322 C 0.62489 0.22684 0.8173 0.0
C1323 C 0.61796 0.25543 0.77849 0.0
N1324 N 0.60529 0.17712 0.81101 0.0
N1325 N 0.60706 0.23275 0.77802 0.0
H1326 H 0.11237 0.31079 0.23727 0.0
H1327 H 0.01666 0.41228 0.22259 0.0
H1328 H 0.03511 0.29487 0.23473 0.0
H1329 H 0.09284 0.42754 0.24274 0.0
H1330 H 0.02304 0.36883 0.22134 0.0
H1331 H 0.10555 0.35357 0.23339 0.0
C1332 C 0.09396 0.31627 0.23553 0.0
C1333 C 0.07428 0.29919 0.23571 0.0
C1334 C 0.03833 0.38178 0.22587 0.0
C1335 C 0.06628 0.34809 0.23156 0.0
C1336 C 0.0347 0.40656 0.22668 0.0
C1337 C 0.05424 0.42368 0.23265 0.0
C1338 C 0.06167 0.37411 0.23102 0.0
C1339 C 0.07728 0.41515 0.23753 0.0
C1340 C 0.09006 0.34067 0.23335 0.0
C1341 C 0.05078 0.30726 0.23367 0.0
N1342 N 0.08031 0.39104 0.23662 0.0
N1343 N 0.04742 0.33117 0.23172 0.0
H1344 H 0.41598 0.58968 0.34531 0.0
H1345 H 0.52864 0.52314 0.3006 0.0
H1346 H 0.42937 0.58151 0.26949 0.0
H1347 H 0.53256 0.56554 0.36878 0.0
H1348 H 0.48964 0.53964 0.2898 0.0
H1349 H 0.45639 0.57636 0.35546 0.0
C1350 C 0.42745 0.58523 0.33079 0.0
C1351 C 0.41938 0.587 0.30652 0.0
C1352 C 0.49912 0.5454 0.30706 0.0
C1353 C 0.46523 0.57095 0.31801 0.0
C1354 C 0.52123 0.53592 0.31326 0.0
C1355 C 0.53367 0.54298 0.33561 0.0
C1356 C 0.4892 0.56162 0.32356 0.0
C1357 C 0.52348 0.55972 0.35135 0.0
C1358 C 0.45047 0.5776 0.33662 0.0
C1359 C 0.43485 0.58048 0.28845 0.0
N1360 N 0.50166 0.5683 0.34514 0.0
N1361 N 0.45698 0.57254 0.29455 0.0
H1362 H 0.11361 0.40567 0.67841 0.0
H1363 H 0.9788 0.39469 0.7215 0.0
H1364 H 0.08574 0.34779 0.71962 0.0
H1365 H 0.00639 0.45309 0.68081 0.0
H1366 H 0.01627 0.37463 0.71655 0.0
H1367 H 0.07305 0.42053 0.67459 0.0
C1368 C 0.09891 0.39589 0.68638 0.0
C1369 C 0.10316 0.37562 0.69963 0.0
C1370 C 0.01408 0.39174 0.70852 0.0
C1371 C 0.05673 0.39268 0.6955 0.0
C1372 C 0.99259 0.40315 0.71121 0.0
C1373 C 0.98947 0.42573 0.7017 0.0
C1374 C 0.0327 0.40299 0.69631 0.0
C1375 C 0.00817 0.43593 0.68883 0.0
C1376 C 0.07576 0.40443 0.68425 0.0
C1377 C 0.08339 0.36362 0.70945 0.0
N1378 N 0.02904 0.42457 0.68667 0.0
N1379 N 0.0611 0.37247 0.7074 0.0
H1380 H 0.86374 0.99018 0.73706 0.0
H1381 H 0.98495 0.01993 0.67034 0.0
H1382 H 0.8835 0.95034 0.67266 0.0
H1383 H 0.96645 0.05963 0.73532 0.0
H1384 H 0.94938 0.99226 0.67289 0.0
H1385 H 0.90267 0.01379 0.73873 0.0
C1386 C 0.87634 0.98622 0.72341 0.0
C1387 C 0.87024 0.96837 0.70457 0.0
C1388 C 0.95314 0.00694 0.68669 0.0
C1389 C 0.91475 0.99543 0.70629 0.0
C1390 C 0.97357 0.02269 0.68532 0.0
C1391 C 0.97868 0.04225 0.70257 0.0
C1392 C 0.93758 0.01076 0.70541 0.0
C1393 C 0.96301 0.04506 0.72137 0.0
C1394 C 0.89855 0.99975 0.72435 0.0
C1395 C 0.88732 0.96402 0.68742 0.0
N1396 N 0.94313 0.02958 0.72223 0.0
N1397 N 0.90868 0.97755 0.6886 0.0
H1398 H 0.5964 0.03574 0.28757 0.0
H1399 H 0.49922 0.93951 0.21645 0.0
H1400 H 0.61492 0.98085 0.23445 0.0
H1401 H 0.48131 0.99181 0.27238 0.0
H1402 H 0.54161 0.9547 0.22245 0.0
H1403 H 0.554 0.02055 0.28155 0.0
C1404 C 0.59156 0.02054 0.27459 0.0
C1405 C 0.60928 0.00955 0.26151 0.0
C1406 C 0.52842 0.96285 0.23343 0.0
C1407 C 0.56072 0.99201 0.25457 0.0
C1408 C 0.50421 0.95407 0.23012 0.0
C1409 C 0.48663 0.96439 0.24393 0.0
C1410 C 0.53516 0.98211 0.25067 0.0
C1411 C 0.49415 0.98351 0.26109 0.0
C1412 C 0.56733 0.01184 0.27119 0.0
C1413 C 0.60191 0.98989 0.24495 0.0
N1414 N 0.51783 0.99174 0.26396 0.0
N1415 N 0.57821 0.98175 0.24197 0.0
H1416 H 0.24603 0.42766 0.59031 0.0
H1417 H 0.31852 0.49571 0.49105 0.0
H1418 H 0.2964 0.39326 0.54518 0.0
H1419 H 0.28771 0.53327 0.55103 0.0
H1420 H 0.30402 0.45705 0.50587 0.0
H1421 H 0.25455 0.46559 0.57104 0.0
C1422 C 0.25864 0.42798 0.57616 0.0
C1423 C 0.2708 0.40734 0.56963 0.0
C1424 C 0.30033 0.47376 0.51571 0.0
C1425 C 0.28042 0.45054 0.5474 0.0
C1426 C 0.3085 0.4958 0.50721 0.0
C1427 C 0.30445 0.51768 0.51994 0.0
C1428 C 0.28779 0.47362 0.53695 0.0
C1429 C 0.29149 0.51678 0.54087 0.0
C1430 C 0.26355 0.44965 0.56525 0.0
C1431 C 0.28676 0.40876 0.551 0.0
N1432 N 0.28363 0.4951 0.54874 0.0
N1433 N 0.29119 0.43001 0.54063 0.0
H1434 H 0.31729 0.60627 0.0383 0.0
H1435 H 0.32565 0.49916 0.93621 0.0
H1436 H 0.34005 0.6185 0.96676 0.0
H1437 H 0.2872 0.49197 0.00104 0.0
H1438 H 0.33664 0.54163 0.9492 0.0
H1439 H 0.31262 0.56292 0.02723 0.0
C1440 C 0.32155 0.59984 0.02031 0.0
C1441 C 0.32881 0.6161 0.00333 0.0
C1442 C 0.32592 0.53066 0.96061 0.0
C1443 C 0.32337 0.56636 0.99051 0.0
C1444 C 0.31951 0.50645 0.95317 0.0
C1445 C 0.30536 0.49188 0.96748 0.0
C1446 C 0.31827 0.54039 0.9826 0.0
C1447 C 0.29839 0.50228 0.98951 0.0
C1448 C 0.31878 0.57505 0.01398 0.0
C1449 C 0.33423 0.60663 0.98036 0.0
N1450 N 0.30485 0.52586 0.99634 0.0
N1451 N 0.33124 0.58236 0.97456 0.0
H1452 H 0.66512 0.08652 0.34699 0.0
H1453 H 0.70748 0.03087 0.47002 0.0
H1454 H 0.6849 0.12927 0.41385 0.0
H1455 H 0.67072 0.98692 0.41011 0.0
H1456 H 0.69867 0.06698 0.4494 0.0
H1457 H 0.66599 0.04974 0.36931 0.0
C1458 C 0.6693 0.08821 0.36639 0.0
C1459 C 0.6752 0.11102 0.37852 0.0
C1460 C 0.69231 0.04946 0.44081 0.0
C1461 C 0.67651 0.06906 0.40404 0.0
C1462 C 0.69721 0.02874 0.45268 0.0
C1463 C 0.68977 0.00565 0.44191 0.0
C1464 C 0.68015 0.04728 0.41774 0.0
C1465 C 0.67713 0.00426 0.41902 0.0
C1466 C 0.66983 0.06721 0.3791 0.0
C1467 C 0.68044 0.11211 0.40367 0.0
N1468 N 0.67287 0.02477 0.40761 0.0
N1469 N 0.68123 0.09145 0.41551 0.0
H1470 H 0.71192 0.86922 0.01019 0.0
H1471 H 0.65361 0.997 0.02406 0.0
H1472 H 0.65457 0.89132 0.96181 0.0
H1473 H 0.71853 0.98085 0.06541 0.0
H1474 H 0.65452 0.95852 0.00059 0.0
H1475 H 0.71558 0.91008 0.03019 0.0
C1476 C 0.70026 0.8827 0.00362 0.0
C1477 C 0.68278 0.87677 0.98441 0.0
C1478 C 0.66867 0.96342 0.0147 0.0
C1479 C 0.68674 0.92343 0.00731 0.0
C1480 C 0.66825 0.98552 0.02805 0.0
C1481 C 0.68601 0.99227 0.04682 0.0
C1482 C 0.68686 0.94772 0.0202 0.0
C1483 C 0.70423 0.97628 0.0514 0.0
C1484 C 0.70235 0.90601 0.01506 0.0
C1485 C 0.66821 0.89498 0.97664 0.0
N1486 N 0.70411 0.9547 0.03828 0.0
N1487 N 0.67039 0.91738 0.98823 0.0
H1488 H 0.53808 0.2955 0.42179 0.0
H1489 H 0.54956 0.39941 0.5282 0.0
H1490 H 0.57457 0.3654 0.41391 0.0
H1491 H 0.49487 0.34006 0.52288 0.0
H1492 H 0.56105 0.38678 0.48744 0.0
H1493 H 0.52373 0.31107 0.46005 0.0
C1494 C 0.54296 0.31417 0.42802 0.0
C1495 C 0.55772 0.32909 0.41472 0.0
C1496 C 0.54632 0.37678 0.49514 0.0
C1497 C 0.54152 0.34699 0.45867 0.0
C1498 C 0.53984 0.3839 0.51838 0.0
C1499 C 0.52111 0.37088 0.52888 0.0
C1500 C 0.5342 0.3563 0.48255 0.0
C1501 C 0.50912 0.35091 0.51538 0.0
C1502 C 0.53475 0.32307 0.44987 0.0
C1503 C 0.56335 0.3532 0.42367 0.0
N1504 N 0.51598 0.34415 0.49304 0.0
N1505 N 0.55547 0.36135 0.44525 0.0
H1506 H 0.93212 0.23104 0.61989 0.0
H1507 H 0.96624 0.25999 0.48595 0.0
H1508 H 0.98956 0.28294 0.6046 0.0
H1509 H 0.9083 0.20846 0.50068 0.0
H1510 H 0.9748 0.26876 0.52942 0.0
H1511 H 0.92283 0.2227 0.57639 0.0
C1512 C 0.94279 0.24069 0.6074 0.0
C1513 C 0.96168 0.25771 0.61593 0.0
C1514 C 0.96018 0.25555 0.52318 0.0
C1515 C 0.95111 0.24824 0.56608 0.0
C1516 C 0.95536 0.25045 0.49834 0.0
C1517 C 0.93658 0.23339 0.48963 0.0
C1518 C 0.94616 0.2435 0.53953 0.0
C1519 C 0.92281 0.2219 0.50656 0.0
C1520 C 0.93745 0.23592 0.58256 0.0
C1521 C 0.97485 0.26967 0.59888 0.0
N1522 N 0.92792 0.22711 0.53069 0.0
N1523 N 0.96933 0.26469 0.5748 0.0
H1524 H 0.32997 0.7167 0.08095 0.0
H1525 H 0.43174 0.66138 0.00261 0.0
H1526 H 0.3767 0.66288 0.10642 0.0
H1527 H 0.37961 0.70924 0.97524 0.0
H1528 H 0.4104 0.65962 0.03991 0.0
H1529 H 0.34651 0.71234 0.04141 0.0
C1530 C 0.34344 0.70365 0.07814 0.0
C1531 C 0.35214 0.69032 0.09715 0.0
C1532 C 0.40351 0.67034 0.02566 0.0
C1533 C 0.37106 0.68506 0.05165 0.0
C1534 C 0.41571 0.67139 0.00443 0.0
C1535 C 0.40745 0.68553 0.98588 0.0
C1536 C 0.38312 0.68381 0.02849 0.0
C1537 C 0.3865 0.69798 0.98902 0.0
C1538 C 0.35286 0.70113 0.05547 0.0
C1539 C 0.36956 0.67364 0.09234 0.0
N1540 N 0.37525 0.69706 0.01004 0.0
N1541 N 0.3786 0.67163 0.07011 0.0
H1542 H 0.97789 0.73105 0.8864 0.0
H1543 H 0.09548 0.71502 0.9735 0.0
H1544 H 0.04501 0.706 0.86204 0.0
H1545 H 0.03052 0.74364 0.99945 0.0
H1546 H 0.07726 0.71308 0.93238 0.0
H1547 H 0.99688 0.7376 0.92757 0.0
C1548 C 0.99667 0.72716 0.88964 0.0
C1549 C 0.00984 0.71781 0.87074 0.0
C1550 C 0.06696 0.71991 0.94699 0.0
C1551 C 0.03156 0.72508 0.9178 0.0
C1552 C 0.07744 0.72117 0.97054 0.0
C1553 C 0.06462 0.72974 0.99001 0.0
C1554 C 0.04334 0.7271 0.9427 0.0
C1555 C 0.04101 0.73679 0.98501 0.0
C1556 C 0.00747 0.73083 0.91316 0.0
C1557 C 0.0341 0.7131 0.87602 0.0
N1558 N 0.03111 0.7353 0.96183 0.0
N1559 N 0.0441 0.71665 0.89903 0.0
H1560 H 0.59002 0.45698 0.68166 0.0
H1561 H 0.47488 0.44622 0.58779 0.0
H1562 H 0.5921 0.42355 0.60944 0.0
H1563 H 0.48516 0.50115 0.64682 0.0
H1564 H 0.51639 0.43466 0.59683 0.0
H1565 H 0.55021 0.47096 0.67042 0.0
C1566 C 0.58225 0.45281 0.66336 0.0
C1567 C 0.59439 0.43898 0.64651 0.0
C1568 C 0.50956 0.44937 0.60764 0.0
C1569 C 0.54867 0.4547 0.63363 0.0
C1570 C 0.48588 0.45587 0.60257 0.0
C1571 C 0.47666 0.47485 0.61641 0.0
C1572 C 0.52388 0.46163 0.62695 0.0
C1573 C 0.49167 0.48672 0.63541 0.0
C1574 C 0.55949 0.46077 0.65697 0.0
C1575 C 0.58337 0.43411 0.62305 0.0
N1576 N 0.51444 0.47983 0.64019 0.0
N1577 N 0.56101 0.44178 0.61735 0.0
H1578 H 0.93984 0.56967 0.33963 0.0
H1579 H 0.98089 0.47134 0.24102 0.0
H1580 H 0.88949 0.5271 0.28896 0.0
H1581 H 0.03045 0.51864 0.28815 0.0
H1582 H 0.94692 0.48873 0.26062 0.0
H1583 H 0.97297 0.54835 0.32326 0.0
C1584 C 0.93571 0.55573 0.32514 0.0
C1585 C 0.91185 0.55029 0.31556 0.0
C1586 C 0.96523 0.49524 0.2667 0.0
C1587 C 0.94981 0.5258 0.2966 0.0
C1588 C 0.98461 0.48526 0.25559 0.0
C1589 C 0.00851 0.49374 0.26278 0.0
C1590 C 0.96982 0.51375 0.28521 0.0
C1591 C 0.01231 0.51188 0.2817 0.0
C1592 C 0.95468 0.54357 0.31576 0.0
C1593 C 0.90763 0.53196 0.29684 0.0
N1594 N 0.99319 0.5213 0.29218 0.0
N1595 N 0.92645 0.52045 0.28789 0.0
H1596 H 0.13154 0.02032 0.3508 0.0
H1597 H 0.04053 0.90567 0.30886 0.0
H1598 H 0.14266 0.96906 0.2913 0.0
H1599 H 0.02737 0.95807 0.36665 0.0
H1600 H 0.07993 0.92655 0.30495 0.0
H1601 H 0.09529 0.99582 0.35942 0.0
C1602 C 0.12647 0.00383 0.33964 0.0
C1603 C 0.14006 0.99685 0.32016 0.0
C1604 C 0.06853 0.93342 0.31861 0.0
C1605 C 0.09854 0.96876 0.32992 0.0
C1606 C 0.04606 0.92138 0.321 0.0
C1607 C 0.03055 0.93013 0.33811 0.0
C1608 C 0.07562 0.95447 0.33337 0.0
C1609 C 0.03859 0.95086 0.35299 0.0
C1610 C 0.10575 0.98986 0.34458 0.0
C1611 C 0.13267 0.97524 0.30641 0.0
N1612 N 0.06051 0.96239 0.3502 0.0
N1613 N 0.11234 0.96206 0.31147 0.0
H1614 H 0.41842 0.01163 0.69306 0.0
H1615 H 0.50084 0.10099 0.78806 0.0
H1616 H 0.39033 0.07002 0.73574 0.0
H1617 H 0.52953 0.04982 0.73724 0.0
H1618 H 0.45992 0.08806 0.77129 0.0
H1619 H 0.45894 0.0235 0.71129 0.0
C1620 C 0.42075 0.02695 0.70629 0.0
C1621 C 0.40092 0.03989 0.71282 0.0
C1622 C 0.47518 0.07963 0.76387 0.0
C1623 C 0.44736 0.05356 0.73386 0.0
C1624 C 0.49857 0.08705 0.77338 0.0
C1625 C 0.51874 0.07653 0.76405 0.0
C1626 C 0.47187 0.06148 0.74491 0.0
C1627 C 0.51459 0.05824 0.74528 0.0
C1628 C 0.44392 0.03373 0.71668 0.0
C1629 C 0.40508 0.05957 0.7301 0.0
N1630 N 0.49166 0.05135 0.73632 0.0
N1631 N 0.42784 0.0658 0.74002 0.0
H1632 H 0.64539 0.58647 0.42273 0.0
H1633 H 0.68264 0.47051 0.49035 0.0
H1634 H 0.71798 0.57794 0.45234 0.0
H1635 H 0.61994 0.46848 0.43998 0.0
H1636 H 0.69399 0.51154 0.47967 0.0
H1637 H 0.63397 0.54478 0.43155 0.0
C1638 C 0.65897 0.57583 0.431 0.0
C1639 C 0.68275 0.58569 0.43664 0.0
C1640 C 0.67777 0.50214 0.4709 0.0
C1641 C 0.6696 0.53817 0.44731 0.0
C1642 C 0.67118 0.47881 0.47711 0.0
C1643 C 0.6502 0.4662 0.46617 0.0
C1644 C 0.66316 0.51315 0.45378 0.0
C1645 C 0.63625 0.47762 0.44882 0.0
C1646 C 0.6524 0.55204 0.43604 0.0
C1647 C 0.69945 0.57113 0.44768 0.0
N1648 N 0.64288 0.50058 0.44326 0.0
N1649 N 0.69251 0.54816 0.45278 0.0
H1650 H 0.71135 0.39571 0.08485 0.0
H1651 H 0.78187 0.5218 0.0622 0.0
H1652 H 0.74564 0.40952 0.01883 0.0
H1653 H 0.7552 0.50479 0.13101 0.0
H1654 H 0.76902 0.48062 0.04604 0.0
H1655 H 0.72762 0.43543 0.10223 0.0
C1656 C 0.72237 0.40704 0.07403 0.0
C1657 C 0.72704 0.39929 0.05029 0.0
C1658 C 0.76612 0.48584 0.06472 0.0
C1659 C 0.74566 0.44487 0.07007 0.0
C1660 C 0.77336 0.50937 0.07392 0.0
C1661 C 0.76957 0.51676 0.09798 0.0
C1662 C 0.7548 0.46959 0.07962 0.0
C1663 C 0.7587 0.49981 0.11244 0.0
C1664 C 0.73169 0.42973 0.08399 0.0
C1665 C 0.74151 0.41474 0.03717 0.0
N1666 N 0.75157 0.47709 0.103 0.0
N1667 N 0.75019 0.43683 0.04719 0.0
H1668 H 0.24899 0.94265 0.6108 0.0
H1669 H 0.25985 0.01708 0.49228 0.0
H1670 H 0.29658 0.92605 0.55416 0.0
H1671 H 0.2182 0.03963 0.55191 0.0
H1672 H 0.27166 0.98237 0.51406 0.0
H1673 H 0.23583 0.9771 0.58894 0.0
C1674 C 0.2567 0.94624 0.59381 0.0
C1675 C 0.27394 0.93141 0.58431 0.0
C1676 C 0.25991 0.99486 0.52242 0.0
C1677 C 0.25901 0.97083 0.5593 0.0
C1678 C 0.253 0.01461 0.50989 0.0
C1679 C 0.23789 0.03124 0.52023 0.0
C1680 C 0.25166 0.99158 0.54549 0.0
C1681 C 0.23 0.02734 0.54334 0.0
C1682 C 0.24921 0.96594 0.58138 0.0
C1683 C 0.28328 0.93696 0.56222 0.0
N1684 N 0.23693 0.00788 0.55519 0.0
N1685 N 0.27569 0.95618 0.55049 0.0
H1686 H 0.29657 0.08357 0.02311 0.0
H1687 H 0.35073 0.03575 0.89969 0.0
H1688 H 0.33156 0.13069 0.97484 0.0
H1689 H 0.30828 0.9904 0.94395 0.0
H1690 H 0.34637 0.07032 0.92833 0.0
H1691 H 0.30317 0.04883 0.99563 0.0
C1692 C 0.30567 0.08663 0.00674 0.0
C1693 C 0.31346 0.11012 0.00126 0.0
C1694 C 0.33809 0.05278 0.93181 0.0
C1695 C 0.32114 0.07032 0.96968 0.0
C1696 C 0.3405 0.03304 0.91543 0.0
C1697 C 0.32979 0.0101 0.91934 0.0
C1698 C 0.3249 0.04961 0.95232 0.0
C1699 C 0.31711 0.00763 0.9403 0.0
C1700 C 0.30943 0.06676 0.99104 0.0
C1701 C 0.32518 0.11293 0.97977 0.0
N1702 N 0.31495 0.02713 0.95593 0.0
N1703 N 0.32866 0.09327 0.96477 0.0
H1704 H 0.46658 0.69675 0.59231 0.0
H1705 H 0.46217 0.61887 0.46564 0.0
H1706 H 0.41861 0.63288 0.57471 0.0
H1707 H 0.51954 0.67295 0.48909 0.0
H1708 H 0.44494 0.62482 0.50497 0.0
H1709 H 0.4855 0.68928 0.55407 0.0
C1710 C 0.46009 0.68112 0.58046 0.0
C1711 C 0.44093 0.66547 0.58668 0.0
C1712 C 0.46138 0.63529 0.50157 0.0
C1713 C 0.46235 0.65693 0.54286 0.0
C1714 C 0.47114 0.63197 0.4791 0.0
C1715 C 0.49232 0.64542 0.47412 0.0
C1716 C 0.47273 0.65235 0.51913 0.0
C1717 C 0.50333 0.66202 0.49228 0.0
C1718 C 0.4709 0.67686 0.55865 0.0
C1719 C 0.43326 0.64549 0.57063 0.0
N1720 N 0.49333 0.66512 0.51392 0.0
N1721 N 0.44389 0.64187 0.54941 0.0
H1722 H 0.99468 0.74269 0.41915 0.0
H1723 H 0.11784 0.74764 0.50327 0.0
H1724 H 0.06172 0.71776 0.39446 0.0
H1725 H 0.05219 0.77753 0.52593 0.0
H1726 H 0.09759 0.73625 0.46347 0.0
H1727 H 0.01534 0.755 0.45855 0.0
C1728 C 0.01376 0.73979 0.42199 0.0
C1729 C 0.02647 0.72914 0.40344 0.0
C1730 C 0.08762 0.74534 0.47712 0.0
C1731 C 0.05027 0.7432 0.44863 0.0
C1732 C 0.09922 0.75199 0.49984 0.0
C1733 C 0.08674 0.76364 0.51803 0.0
C1734 C 0.06329 0.75028 0.47248 0.0
C1735 C 0.06246 0.76834 0.5126 0.0
C1736 C 0.02556 0.74686 0.44452 0.0
C1737 C 0.05119 0.7259 0.40822 0.0
N1738 N 0.05156 0.76165 0.49036 0.0
N1739 N 0.06226 0.73286 0.43034 0.0
H1740 H 0.62165 0.2159 0.91168 0.0
H1741 H 0.51587 0.23782 0.00023 0.0
H1742 H 0.5803 0.27941 0.9126 0.0
H1743 H 0.57397 0.19206 0.01709 0.0
H1744 H 0.53466 0.24765 0.96306 0.0
H1745 H 0.59946 0.20155 0.94547 0.0
C1746 C 0.60796 0.22684 0.91897 0.0
C1747 C 0.60296 0.249 0.90941 0.0
C1748 C 0.54319 0.23532 0.97481 0.0
C1749 C 0.57779 0.23276 0.94808 0.0
C1750 C 0.53238 0.22952 0.99589 0.0
C1751 C 0.54338 0.21408 0.01173 0.0
C1752 C 0.56506 0.22545 0.96938 0.0
C1753 C 0.565 0.20416 0.00542 0.0
C1754 C 0.5954 0.21866 0.93828 0.0
C1755 C 0.5849 0.26232 0.91948 0.0
N1756 N 0.57516 0.21002 0.98468 0.0
N1757 N 0.57301 0.25401 0.9383 0.0
H1758 H 0.01795 0.33268 0.13911 0.0
H1759 H 0.89493 0.29789 0.05771 0.0
H1760 H 0.96849 0.27165 0.15006 0.0
H1761 H 0.94764 0.35412 0.04138 0.0
H1762 H 0.91972 0.29099 0.09419 0.0
H1763 H 0.99068 0.34343 0.10567 0.0
C1764 C 0.00131 0.32159 0.13457 0.0
C1765 C 0.99558 0.30112 0.14732 0.0
C1766 C 0.92583 0.30494 0.08273 0.0
C1767 C 0.9643 0.31337 0.10908 0.0
C1768 C 0.91157 0.30904 0.06197 0.0
C1769 C 0.91922 0.3266 0.04642 0.0
C1770 C 0.94797 0.31848 0.08805 0.0
C1771 C 0.94119 0.34019 0.05269 0.0
C1772 C 0.98577 0.32774 0.11546 0.0
C1773 C 0.97374 0.2875 0.14067 0.0
N1774 N 0.95483 0.33579 0.07299 0.0
N1775 N 0.95895 0.29383 0.12198 0.0
loop_
_geom_bond_atom_site_label_1
_geom_bond_atom_site_label_2
_geom_bond_distance
_geom_bond_site_symmetry_2
_ccdc_geom_bond_type
O0 Cd1 2.300 . S
O0 C7 1.275 . S
Cd1 O0 2.300 . S
Cd1 O9 2.381 . S
Cd1 O10 2.378 . S
O2 Cd3 2.385 . S
O2 C7 1.255 . S
Cd3 O2 2.385 . S
Cd3 O4 2.317 . S
O4 Cd3 2.317 . S
O4 C5 1.232 . S
C5 O4 1.232 . S
C5 O6 1.218 . S
O6 C5 1.218 . S
C7 O0 1.275 . S
C7 O2 1.255 . S
C8 O9 1.258 . S
C8 O10 1.256 . S
O9 Cd1 2.381 . S
O9 C8 1.258 . S
O10 Cd1 2.378 . S
O10 C8 1.256 . S
O11 Cd12 2.300 . S
O11 C18 1.275 . S
Cd12 O11 2.300 . S
Cd12 O20 2.381 . S
Cd12 O21 2.378 . S
O13 Cd14 2.385 . S
O13 C18 1.255 . S
Cd14 O13 2.385 . S
Cd14 O15 2.317 . S
O15 Cd14 2.317 . S
O15 C16 1.232 . S
C16 O15 1.232 . S
C16 O17 1.218 . S
O17 C16 1.218 . S
C18 O11 1.275 . S
C18 O13 1.255 . S
C19 O20 1.258 . S
C19 O21 1.256 . S
O20 Cd12 2.381 . S
O20 C19 1.258 . S
O21 Cd12 2.378 . S
O21 C19 1.256 . S
O22 Cd23 2.300 . S
O22 C29 1.275 . S
Cd23 O22 2.300 . S
Cd23 O31 2.381 1_565 S
Cd23 O32 2.378 . S
O24 Cd25 2.385 . S
O24 C29 1.255 . S
Cd25 O24 2.385 . S
Cd25 O26 2.317 . S
O26 Cd25 2.317 . S
O26 C27 1.232 . S
C27 O26 1.232 . S
C27 O28 1.218 . S
O28 C27 1.218 . S
C29 O22 1.275 . S
C29 O24 1.255 . S
C30 O31 1.258 . S
C30 O32 1.256 1_545 S
O31 Cd23 2.381 1_545 S
O31 C30 1.258 . S
O32 Cd23 2.378 . S
O32 C30 1.256 1_565 S
O33 Cd34 2.300 . S
O33 C40 1.275 . S
Cd34 O33 2.300 . S
Cd34 O42 2.381 1_545 S
Cd34 O43 2.378 . S
O35 Cd36 2.385 . S
O35 C40 1.255 . S
Cd36 O35 2.385 . S
Cd36 O37 2.317 . S
O37 Cd36 2.317 . S
O37 C38 1.232 . S
C38 O37 1.232 . S
C38 O39 1.218 . S
O39 C38 1.218 . S
C40 O33 1.275 . S
C40 O35 1.255 . S
C41 O42 1.258 . S
C41 O43 1.256 1_565 S
O42 Cd34 2.381 1_565 S
O42 C41 1.258 . S
O43 Cd34 2.378 . S
O43 C41 1.256 1_545 S
O44 Cd45 2.300 . S
O44 C51 1.275 . S
Cd45 O44 2.300 . S
Cd45 O53 2.381 . S
Cd45 O54 2.378 . S
O46 Cd47 2.385 . S
O46 C51 1.255 . S
Cd47 O46 2.385 . S
Cd47 O48 2.317 . S
O48 Cd47 2.317 . S
O48 C49 1.232 . S
C49 O48 1.232 . S
C49 O50 1.218 . S
O50 C49 1.218 . S
C51 O44 1.275 . S
C51 O46 1.255 . S
C52 O53 1.258 . S
C52 O54 1.256 . S
O53 Cd45 2.381 . S
O53 C52 1.258 . S
O54 Cd45 2.378 . S
O54 C52 1.256 . S
O55 Cd56 2.300 . S
O55 C62 1.275 . S
Cd56 O55 2.300 . S
Cd56 O64 2.381 1_554 S
Cd56 O65 2.378 . S
O57 Cd58 2.385 . S
O57 C62 1.255 . S
Cd58 O57 2.385 . S
Cd58 O59 2.317 . S
O59 Cd58 2.317 . S
O59 C60 1.232 . S
C60 O59 1.232 . S
C60 O61 1.218 . S
O61 C60 1.218 . S
C62 O55 1.275 . S
C62 O57 1.255 . S
C63 O64 1.258 . S
C63 O65 1.256 1_556 S
O64 Cd56 2.381 1_556 S
O64 C63 1.258 . S
O65 Cd56 2.378 . S
O65 C63 1.256 1_554 S
O66 Cd67 2.300 . S
O66 C73 1.275 . S
Cd67 O66 2.300 . S
Cd67 O75 2.381 . S
Cd67 O76 2.378 . S
O68 Cd69 2.385 . S
O68 C73 1.255 . S
Cd69 O68 2.385 . S
Cd69 O70 2.317 . S
O70 Cd69 2.317 . S
O70 C71 1.232 . S
C71 O70 1.232 . S
C71 O72 1.218 . S
O72 C71 1.218 . S
C73 O66 1.275 . S
C73 O68 1.255 . S
C74 O75 1.258 . S
C74 O76 1.256 . S
O75 Cd67 2.381 . S
O75 C74 1.258 . S
O76 Cd67 2.378 . S
O76 C74 1.256 . S
O77 Cd78 2.300 . S
O77 C84 1.275 . S
Cd78 O77 2.300 . S
Cd78 O86 2.381 1_556 S
Cd78 O87 2.378 . S
O79 Cd80 2.385 . S
O79 C84 1.255 . S
Cd80 O79 2.385 . S
Cd80 O81 2.317 . S
O81 Cd80 2.317 . S
O81 C82 1.232 . S
C82 O81 1.232 . S
C82 O83 1.218 . S
O83 C82 1.218 . S
C84 O77 1.275 . S
C84 O79 1.255 . S
C85 O86 1.258 . S
C85 O87 1.256 1_554 S
O86 Cd78 2.381 1_554 S
O86 C85 1.258 . S
O87 Cd78 2.378 . S
O87 C85 1.256 1_556 S
O88 Cd89 2.300 . S
O88 C95 1.275 . S
Cd89 O88 2.300 . S
Cd89 O97 2.381 . S
Cd89 O98 2.378 . S
O90 Cd91 2.385 . S
O90 C95 1.255 . S
Cd91 O90 2.385 . S
Cd91 O92 2.317 . S
O92 Cd91 2.317 . S
O92 C93 1.232 . S
C93 O92 1.232 . S
C93 O94 1.218 . S
O94 C93 1.218 . S
C95 O88 1.275 . S
C95 O90 1.255 . S
C96 O97 1.258 . S
C96 O98 1.256 . S
O97 Cd89 2.381 . S
O97 C96 1.258 . S
O98 Cd89 2.378 . S
O98 C96 1.256 . S
O99 Cd100 2.300 . S
O99 C106 1.275 . S
Cd100 O99 2.300 . S
Cd100 O108 2.381 1_455 S
Cd100 O109 2.378 . S
O101 Cd102 2.385 . S
O101 C106 1.255 . S
Cd102 O101 2.385 . S
Cd102 O103 2.317 . S
O103 Cd102 2.317 . S
O103 C104 1.232 . S
C104 O103 1.232 . S
C104 O105 1.218 . S
O105 C104 1.218 . S
C106 O99 1.275 . S
C106 O101 1.255 . S
C107 O108 1.258 . S
C107 O109 1.256 1_655 S
O108 Cd100 2.381 1_655 S
O108 C107 1.258 . S
O109 Cd100 2.378 . S
O109 C107 1.256 1_455 S
O110 Cd111 2.300 . S
O110 C117 1.275 . S
Cd111 O110 2.300 . S
Cd111 O119 2.381 . S
Cd111 O120 2.378 . S
O112 Cd113 2.385 . S
O112 C117 1.255 . S
Cd113 O112 2.385 . S
Cd113 O114 2.317 . S
O114 Cd113 2.317 . S
O114 C115 1.232 . S
C115 O114 1.232 . S
C115 O116 1.218 . S
O116 C115 1.218 . S
C117 O110 1.275 . S
C117 O112 1.255 . S
C118 O119 1.258 . S
C118 O120 1.256 . S
O119 Cd111 2.381 . S
O119 C118 1.258 . S
O120 Cd111 2.378 . S
O120 C118 1.256 . S
O121 Cd122 2.300 . S
O121 C128 1.275 . S
Cd122 O121 2.300 . S
Cd122 O130 2.381 1_655 S
Cd122 O131 2.378 . S
O123 Cd124 2.385 . S
O123 C128 1.255 . S
Cd124 O123 2.385 . S
Cd124 O125 2.317 . S
O125 Cd124 2.317 . S
O125 C126 1.232 . S
C126 O125 1.232 . S
C126 O127 1.218 . S
O127 C126 1.218 . S
C128 O121 1.275 . S
C128 O123 1.255 . S
C129 O130 1.258 . S
C129 O131 1.256 1_455 S
O130 Cd122 2.381 1_455 S
O130 C129 1.258 . S
O131 Cd122 2.378 . S
O131 C129 1.256 1_655 S
O132 Cd133 2.300 . S
O132 C139 1.275 . S
Cd133 O132 2.300 . S
Cd133 O141 2.381 . S
Cd133 O142 2.378 . S
O134 Cd135 2.385 . S
O134 C139 1.255 . S
Cd135 O134 2.385 . S
Cd135 O136 2.317 . S
O136 Cd135 2.317 . S
O136 C137 1.232 . S
C137 O136 1.232 . S
C137 O138 1.218 . S
O138 C137 1.218 . S
C139 O132 1.275 . S
C139 O134 1.255 . S
C140 O141 1.258 . S
C140 O142 1.256 . S
O141 Cd133 2.381 . S
O141 C140 1.258 . S
O142 Cd133 2.378 . S
O142 C140 1.256 . S
O143 Cd144 2.300 . S
O143 C150 1.275 . S
Cd144 O143 2.300 . S
Cd144 O152 2.381 . S
Cd144 O153 2.378 . S
O145 Cd146 2.385 . S
O145 C150 1.255 . S
Cd146 O145 2.385 . S
Cd146 O147 2.317 . S
O147 Cd146 2.317 . S
O147 C148 1.232 . S
C148 O147 1.232 . S
C148 O149 1.218 . S
O149 C148 1.218 . S
C150 O143 1.275 . S
C150 O145 1.255 . S
C151 O152 1.258 . S
C151 O153 1.256 . S
O152 Cd144 2.381 . S
O152 C151 1.258 . S
O153 Cd144 2.378 . S
O153 C151 1.256 . S
O154 Cd155 2.300 1_545 S
O154 C161 1.275 . S
Cd155 O154 2.300 1_565 S
Cd155 O163 2.381 1_565 S
Cd155 O164 2.378 . S
O156 Cd157 2.385 . S
O156 C161 1.255 1_565 S
Cd157 O156 2.385 . S
Cd157 O158 2.317 . S
O158 Cd157 2.317 . S
O158 C159 1.232 . S
C159 O158 1.232 . S
C159 O160 1.218 . S
O160 C159 1.218 . S
C161 O154 1.275 . S
C161 O156 1.255 1_545 S
C162 O163 1.258 1_565 S
C162 O164 1.256 . S
O163 Cd155 2.381 1_545 S
O163 C162 1.258 1_545 S
O164 Cd155 2.378 . S
O164 C162 1.256 . S
O165 Cd166 2.300 1_565 S
O165 C172 1.275 . S
Cd166 O165 2.300 1_545 S
Cd166 O174 2.381 1_545 S
Cd166 O175 2.378 . S
O167 Cd168 2.385 . S
O167 C172 1.255 1_545 S
Cd168 O167 2.385 . S
Cd168 O169 2.317 . S
O169 Cd168 2.317 . S
O169 C170 1.232 . S
C170 O169 1.232 . S
C170 O171 1.218 . S
O171 C170 1.218 . S
C172 O165 1.275 . S
C172 O167 1.255 1_565 S
C173 O174 1.258 1_545 S
C173 O175 1.256 . S
O174 Cd166 2.381 1_565 S
O174 C173 1.258 1_565 S
O175 Cd166 2.378 . S
O175 C173 1.256 . S
O176 Cd177 2.300 . S
O176 C183 1.275 . S
Cd177 O176 2.300 . S
Cd177 O185 2.381 . S
Cd177 O186 2.378 . S
O178 Cd179 2.385 . S
O178 C183 1.255 . S
Cd179 O178 2.385 . S
Cd179 O180 2.317 . S
O180 Cd179 2.317 . S
O180 C181 1.232 . S
C181 O180 1.232 . S
C181 O182 1.218 . S
O182 C181 1.218 . S
C183 O176 1.275 . S
C183 O178 1.255 . S
C184 O185 1.258 . S
C184 O186 1.256 . S
O185 Cd177 2.381 . S
O185 C184 1.258 . S
O186 Cd177 2.378 . S
O186 C184 1.256 . S
O187 Cd188 2.300 1_556 S
O187 C194 1.275 . S
Cd188 O187 2.300 1_554 S
Cd188 O196 2.381 1_554 S
Cd188 O197 2.378 . S
O189 Cd190 2.385 . S
O189 C194 1.255 1_554 S
Cd190 O189 2.385 . S
Cd190 O191 2.317 . S
O191 Cd190 2.317 . S
O191 C192 1.232 . S
C192 O191 1.232 . S
C192 O193 1.218 . S
O193 C192 1.218 . S
C194 O187 1.275 . S
C194 O189 1.255 1_556 S
C195 O196 1.258 1_554 S
C195 O197 1.256 . S
O196 Cd188 2.381 1_556 S
O196 C195 1.258 1_556 S
O197 Cd188 2.378 . S
O197 C195 1.256 . S
O198 Cd199 2.300 . S
O198 C205 1.275 . S
Cd199 O198 2.300 . S
Cd199 O207 2.381 . S
Cd199 O208 2.378 . S
O200 Cd201 2.385 . S
O200 C205 1.255 . S
Cd201 O200 2.385 . S
Cd201 O202 2.317 . S
O202 Cd201 2.317 . S
O202 C203 1.232 . S
C203 O202 1.232 . S
C203 O204 1.218 . S
O204 C203 1.218 . S
C205 O198 1.275 . S
C205 O200 1.255 . S
C206 O207 1.258 . S
C206 O208 1.256 . S
O207 Cd199 2.381 . S
O207 C206 1.258 . S
O208 Cd199 2.378 . S
O208 C206 1.256 . S
O209 Cd210 2.300 1_554 S
O209 C216 1.275 . S
Cd210 O209 2.300 1_556 S
Cd210 O218 2.381 1_556 S
Cd210 O219 2.378 . S
O211 Cd212 2.385 . S
O211 C216 1.255 1_556 S
Cd212 O211 2.385 . S
Cd212 O213 2.317 . S
O213 Cd212 2.317 . S
O213 C214 1.232 . S
C214 O213 1.232 . S
C214 O215 1.218 . S
O215 C214 1.218 . S
C216 O209 1.275 . S
C216 O211 1.255 1_554 S
C217 O218 1.258 1_556 S
C217 O219 1.256 . S
O218 Cd210 2.381 1_554 S
O218 C217 1.258 1_554 S
O219 Cd210 2.378 . S
O219 C217 1.256 . S
O220 Cd221 2.300 . S
O220 C227 1.275 . S
Cd221 O220 2.300 . S
Cd221 O229 2.381 . S
Cd221 O230 2.378 . S
O222 Cd223 2.385 . S
O222 C227 1.255 . S
Cd223 O222 2.385 . S
Cd223 O224 2.317 . S
O224 Cd223 2.317 . S
O224 C225 1.232 . S
C225 O224 1.232 . S
C225 O226 1.218 . S
O226 C225 1.218 . S
C227 O220 1.275 . S
C227 O222 1.255 . S
C228 O229 1.258 . S
C228 O230 1.256 . S
O229 Cd221 2.381 . S
O229 C228 1.258 . S
O230 Cd221 2.378 . S
O230 C228 1.256 . S
O231 Cd232 2.300 1_655 S
O231 C238 1.275 . S
Cd232 O231 2.300 1_455 S
Cd232 O240 2.381 1_455 S
Cd232 O241 2.378 . S
O233 Cd234 2.385 . S
O233 C238 1.255 1_455 S
Cd234 O233 2.385 . S
Cd234 O235 2.317 . S
O235 Cd234 2.317 . S
O235 C236 1.232 . S
C236 O235 1.232 . S
C236 O237 1.218 . S
O237 C236 1.218 . S
C238 O231 1.275 . S
C238 O233 1.255 1_655 S
C239 O240 1.258 1_455 S
C239 O241 1.256 . S
O240 Cd232 2.381 1_655 S
O240 C239 1.258 1_655 S
O241 Cd232 2.378 . S
O241 C239 1.256 . S
O242 Cd243 2.300 . S
O242 C249 1.275 . S
Cd243 O242 2.300 . S
Cd243 O251 2.381 . S
Cd243 O252 2.378 . S
O244 Cd245 2.385 . S
O244 C249 1.255 . S
Cd245 O244 2.385 . S
Cd245 O246 2.317 . S
O246 Cd245 2.317 . S
O246 C247 1.232 . S
C247 O246 1.232 . S
C247 O248 1.218 . S
O248 C247 1.218 . S
C249 O242 1.275 . S
C249 O244 1.255 . S
C250 O251 1.258 . S
C250 O252 1.256 . S
O251 Cd243 2.381 . S
O251 C250 1.258 . S
O252 Cd243 2.378 . S
O252 C250 1.256 . S
O253 Cd254 2.300 1_455 S
O253 C260 1.275 . S
Cd254 O253 2.300 1_655 S
Cd254 O262 2.381 1_655 S
Cd254 O263 2.378 . S
O255 Cd256 2.385 . S
O255 C260 1.255 1_655 S
Cd256 O255 2.385 . S
Cd256 O257 2.317 . S
O257 Cd256 2.317 . S
O257 C258 1.232 . S
C258 O257 1.232 . S
C258 O259 1.218 . S
O259 C258 1.218 . S
C260 O253 1.275 . S
C260 O255 1.255 1_455 S
C261 O262 1.258 1_655 S
C261 O263 1.256 . S
O262 Cd254 2.381 1_455 S
O262 C261 1.258 1_455 S
O263 Cd254 2.378 . S
O263 C261 1.256 . S
H264 C267 0.931 . S
H265 C270 0.928 . S
H266 C272 0.930 . S
C267 H264 0.931 . S
C267 C268 1.413 . S
C267 C269 1.360 . S
C268 C267 1.413 . S
C268 C272 1.429 . S
C269 C267 1.360 . S
C269 C270 1.372 . S
C270 H265 0.928 . S
C270 C269 1.372 . S
C270 C271 1.404 . S
C271 C270 1.404 . S
C271 C272 1.391 . S
C272 H266 0.930 . S
C272 C268 1.429 . S
C272 C271 1.391 . S
H273 C276 0.931 . S
H274 C279 0.928 . S
H275 C281 0.930 . S
C276 H273 0.931 . S
C276 C277 1.413 . S
C276 C278 1.360 . S
C277 C276 1.413 . S
C277 C281 1.429 . S
C278 C276 1.360 . S
C278 C279 1.372 . S
C279 H274 0.928 . S
C279 C278 1.372 . S
C279 C280 1.404 . S
C280 C279 1.404 . S
C280 C281 1.391 . S
C281 H275 0.930 . S
C281 C277 1.429 . S
C281 C280 1.391 . S
H282 C285 0.931 . S
H283 C288 0.928 . S
H284 C290 0.930 . S
C285 H282 0.931 . S
C285 C286 1.413 . S
C285 C287 1.360 1_565 S
C286 C285 1.413 . S
C286 C290 1.429 . S
C287 C285 1.360 1_545 S
C287 C288 1.372 . S
C288 H283 0.928 . S
C288 C287 1.372 . S
C288 C289 1.404 . S
C289 C288 1.404 . S
C289 C290 1.391 1_545 S
C290 H284 0.930 . S
C290 C286 1.429 . S
C290 C289 1.391 1_565 S
H291 C294 0.931 . S
H292 C297 0.928 . S
H293 C299 0.930 . S
C294 H291 0.931 . S
C294 C295 1.413 . S
C294 C296 1.378 . S
C295 C294 1.413 . S
C295 C299 1.429 1_545 S
C296 C294 1.378 . S
C296 C297 1.355 1_545 S
C297 H292 0.928 . S
C297 C296 1.355 1_565 S
C297 C298 1.404 . S
C298 C297 1.404 . S
C298 C299 1.391 . S
C299 H293 0.930 . S
C299 C295 1.429 1_565 S
C299 C298 1.391 . S
H300 C303 0.931 . S
H301 C306 0.928 . S
H302 C308 0.930 . S
C303 H300 0.931 . S
C303 C304 1.413 . S
C303 C305 1.360 . S
C304 C303 1.413 . S
C304 C308 1.429 . S
C305 C303 1.360 . S
C305 C306 1.372 . S
C306 H301 0.928 . S
C306 C305 1.372 . S
C306 C307 1.404 . S
C307 C306 1.404 . S
C307 C308 1.391 . S
C308 H302 0.930 . S
C308 C304 1.429 . S
C308 C307 1.391 . S
H309 C312 0.931 . S
H310 C315 0.928 . S
H311 C317 0.930 . S
C312 H309 0.931 . S
C312 C313 1.413 . S
C312 C314 1.378 . S
C313 C312 1.413 . S
C313 C317 1.429 1_554 S
C314 C312 1.378 . S
C314 C315 1.355 1_554 S
C315 H310 0.928 . S
C315 C314 1.355 1_556 S
C315 C316 1.404 . S
C316 C315 1.404 . S
C316 C317 1.391 . S
C317 H311 0.930 . S
C317 C313 1.429 1_556 S
C317 C316 1.391 . S
H318 C321 0.931 . S
H319 C324 0.928 . S
H320 C326 0.930 . S
C321 H318 0.931 . S
C321 C322 1.413 . S
C321 C323 1.360 . S
C322 C321 1.413 . S
C322 C326 1.429 . S
C323 C321 1.360 . S
C323 C324 1.372 . S
C324 H319 0.928 . S
C324 C323 1.372 . S
C324 C325 1.404 . S
C325 C324 1.404 . S
C325 C326 1.391 . S
C326 H320 0.930 . S
C326 C322 1.429 . S
C326 C325 1.391 . S
H327 C330 0.931 . S
H328 C333 0.928 . S
H329 C335 0.930 . S
C330 H327 0.931 . S
C330 C331 1.413 . S
C330 C332 1.360 1_556 S
C331 C330 1.413 . S
C331 C335 1.429 . S
C332 C330 1.360 1_554 S
C332 C333 1.372 . S
C333 H328 0.928 . S
C333 C332 1.372 . S
C333 C334 1.404 . S
C334 C333 1.404 . S
C334 C335 1.391 1_554 S
C335 H329 0.930 . S
C335 C331 1.429 . S
C335 C334 1.391 1_556 S
H336 C339 0.931 . S
H337 C342 0.928 . S
H338 C344 0.930 . S
C339 H336 0.931 . S
C339 C340 1.413 . S
C339 C341 1.360 . S
C340 C339 1.413 . S
C340 C344 1.429 . S
C341 C339 1.360 . S
C341 C342 1.372 . S
C342 H337 0.928 . S
C342 C341 1.372 . S
C342 C343 1.404 . S
C343 C342 1.404 . S
C343 C344 1.391 . S
C344 H338 0.930 . S
C344 C340 1.429 . S
C344 C343 1.391 . S
H345 C348 0.931 . S
H346 C351 0.928 . S
H347 C353 0.930 . S
C348 H345 0.931 . S
C348 C349 1.413 . S
C348 C350 1.378 . S
C349 C348 1.413 . S
C349 C353 1.429 1_455 S
C350 C348 1.378 . S
C350 C351 1.355 1_455 S
C351 H346 0.928 . S
C351 C350 1.355 1_655 S
C351 C352 1.404 . S
C352 C351 1.404 . S
C352 C353 1.391 . S
C353 H347 0.930 . S
C353 C349 1.429 1_655 S
C353 C352 1.391 . S
H354 C357 0.931 . S
H355 C360 0.928 . S
H356 C362 0.930 . S
C357 H354 0.931 . S
C357 C358 1.413 . S
C357 C359 1.360 . S
C358 C357 1.413 . S
C358 C362 1.429 . S
C359 C357 1.360 . S
C359 C360 1.372 . S
C360 H355 0.928 . S
C360 C359 1.372 . S
C360 C361 1.404 . S
C361 C360 1.404 . S
C361 C362 1.391 . S
C362 H356 0.930 . S
C362 C358 1.429 . S
C362 C361 1.391 . S
H363 C366 0.931 . S
H364 C369 0.928 . S
H365 C371 0.930 . S
C366 H363 0.931 . S
C366 C367 1.413 . S
C366 C368 1.360 1_655 S
C367 C366 1.413 . S
C367 C371 1.429 . S
C368 C366 1.360 1_455 S
C368 C369 1.372 . S
C369 H364 0.928 . S
C369 C368 1.372 . S
C369 C370 1.404 . S
C370 C369 1.404 . S
C370 C371 1.391 1_455 S
C371 H365 0.930 . S
C371 C367 1.429 . S
C371 C370 1.391 1_655 S
H372 C375 0.931 . S
H373 C378 0.928 . S
H374 C380 0.930 . S
C375 H372 0.931 . S
C375 C376 1.413 . S
C375 C377 1.360 . S
C376 C375 1.413 . S
C376 C380 1.429 . S
C377 C375 1.360 . S
C377 C378 1.372 . S
C378 H373 0.928 . S
C378 C377 1.372 . S
C378 C379 1.404 . S
C379 C378 1.404 . S
C379 C380 1.391 . S
C380 H374 0.930 . S
C380 C376 1.429 . S
C380 C379 1.391 . S
H381 C384 0.931 . S
H382 C387 0.928 . S
H383 C389 0.930 . S
C384 H381 0.931 . S
C384 C385 1.413 . S
C384 C386 1.360 . S
C385 C384 1.413 . S
C385 C389 1.429 . S
C386 C384 1.360 . S
C386 C387 1.372 . S
C387 H382 0.928 . S
C387 C386 1.372 . S
C387 C388 1.404 . S
C388 C387 1.404 . S
C388 C389 1.391 . S
C389 H383 0.930 . S
C389 C385 1.429 . S
C389 C388 1.391 . S
H390 C393 0.931 . S
H391 C396 0.928 . S
H392 C398 0.930 . S
C393 H390 0.931 . S
C393 C394 1.413 . S
C393 C395 1.360 1_545 S
C394 C393 1.413 . S
C394 C398 1.429 . S
C395 C393 1.360 1_565 S
C395 C396 1.372 . S
C396 H391 0.928 . S
C396 C395 1.372 . S
C396 C397 1.404 . S
C397 C396 1.404 . S
C397 C398 1.391 1_565 S
C398 H392 0.930 . S
C398 C394 1.429 . S
C398 C397 1.391 1_545 S
H399 C402 0.931 . S
H400 C405 0.928 . S
H401 C407 0.930 . S
C402 H399 0.931 . S
C402 C403 1.413 . S
C402 C404 1.376 . S
C403 C402 1.413 . S
C403 C407 1.429 1_565 S
C404 C402 1.376 . S
C404 C405 1.357 1_565 S
C405 H400 0.928 . S
C405 C404 1.357 1_545 S
C405 C406 1.404 . S
C406 C405 1.404 . S
C406 C407 1.391 . S
C407 H401 0.930 . S
C407 C403 1.429 1_545 S
C407 C406 1.391 . S
H408 C411 0.931 . S
H409 C414 0.928 . S
H410 C416 0.930 . S
C411 H408 0.931 . S
C411 C412 1.413 . S
C411 C413 1.360 . S
C412 C411 1.413 . S
C412 C416 1.429 . S
C413 C411 1.360 . S
C413 C414 1.372 . S
C414 H409 0.928 . S
C414 C413 1.372 . S
C414 C415 1.404 . S
C415 C414 1.404 . S
C415 C416 1.391 . S
C416 H410 0.930 . S
C416 C412 1.429 . S
C416 C415 1.391 . S
H417 C420 0.931 . S
H418 C423 0.928 . S
H419 C425 0.930 . S
C420 H417 0.931 . S
C420 C421 1.413 . S
C420 C422 1.376 . S
C421 C420 1.413 . S
C421 C425 1.429 1_556 S
C422 C420 1.376 . S
C422 C423 1.357 1_556 S
C423 H418 0.928 . S
C423 C422 1.357 1_554 S
C423 C424 1.404 . S
C424 C423 1.404 . S
C424 C425 1.391 . S
C425 H419 0.930 . S
C425 C421 1.429 1_554 S
C425 C424 1.391 . S
H426 C429 0.931 . S
H427 C432 0.928 . S
H428 C434 0.930 . S
C429 H426 0.931 . S
C429 C430 1.413 . S
C429 C431 1.360 . S
C430 C429 1.413 . S
C430 C434 1.429 . S
C431 C429 1.360 . S
C431 C432 1.372 . S
C432 H427 0.928 . S
C432 C431 1.372 . S
C432 C433 1.404 . S
C433 C432 1.404 . S
C433 C434 1.391 . S
C434 H428 0.930 . S
C434 C430 1.429 . S
C434 C433 1.391 . S
H435 C438 0.931 . S
H436 C441 0.928 . S
H437 C443 0.930 . S
C438 H435 0.931 . S
C438 C439 1.413 . S
C438 C440 1.360 1_554 S
C439 C438 1.413 . S
C439 C443 1.429 . S
C440 C438 1.360 1_556 S
C440 C441 1.372 . S
C441 H436 0.928 . S
C441 C440 1.372 . S
C441 C442 1.404 . S
C442 C441 1.404 . S
C442 C443 1.391 1_556 S
C443 H437 0.930 . S
C443 C439 1.429 . S
C443 C442 1.391 1_554 S
H444 C447 0.931 . S
H445 C450 0.928 . S
H446 C452 0.930 . S
C447 H444 0.931 . S
C447 C448 1.413 . S
C447 C449 1.360 . S
C448 C447 1.413 . S
C448 C452 1.429 . S
C449 C447 1.360 . S
C449 C450 1.372 . S
C450 H445 0.928 . S
C450 C449 1.372 . S
C450 C451 1.404 . S
C451 C450 1.404 . S
C451 C452 1.391 . S
C452 H446 0.930 . S
C452 C448 1.429 . S
C452 C451 1.391 . S
H453 C456 0.931 . S
H454 C459 0.928 . S
H455 C461 0.930 . S
C456 H453 0.931 . S
C456 C457 1.413 . S
C456 C458 1.376 . S
C457 C456 1.413 . S
C457 C461 1.429 1_655 S
C458 C456 1.376 . S
C458 C459 1.357 1_655 S
C459 H454 0.928 . S
C459 C458 1.357 1_455 S
C459 C460 1.404 . S
C460 C459 1.404 . S
C460 C461 1.391 . S
C461 H455 0.930 . S
C461 C457 1.429 1_455 S
C461 C460 1.391 . S
H462 C465 0.931 . S
H463 C468 0.928 . S
H464 C470 0.930 . S
C465 H462 0.931 . S
C465 C466 1.413 . S
C465 C467 1.360 . S
C466 C465 1.413 . S
C466 C470 1.429 . S
C467 C465 1.360 . S
C467 C468 1.372 . S
C468 H463 0.928 . S
C468 C467 1.372 . S
C468 C469 1.404 . S
C469 C468 1.404 . S
C469 C470 1.391 . S
C470 H464 0.930 . S
C470 C466 1.429 . S
C470 C469 1.391 . S
H471 C474 0.931 . S
H472 C477 0.928 . S
H473 C479 0.930 . S
C474 H471 0.931 . S
C474 C475 1.413 . S
C474 C476 1.360 1_455 S
C475 C474 1.413 . S
C475 C479 1.429 . S
C476 C474 1.360 1_655 S
C476 C477 1.372 . S
C477 H472 0.928 . S
C477 C476 1.372 . S
C477 C478 1.404 . S
C478 C477 1.404 . S
C478 C479 1.391 1_655 S
C479 H473 0.930 . S
C479 C475 1.429 . S
C479 C478 1.391 1_455 S
H480 C486 0.930 . S
H481 C490 0.930 . S
H482 C495 0.929 . S
H483 C493 0.929 . S
H484 C488 0.929 . S
H485 C494 0.929 . S
C486 H480 0.930 . S
C486 C487 1.367 . S
C486 C494 1.378 . S
C487 C486 1.367 . S
C487 C495 1.433 . S
C488 H484 0.929 . S
C488 C490 1.378 . S
C488 C492 1.350 . S
C489 C492 1.463 . S
C489 C494 1.350 . S
C489 N497 1.427 . S
C490 H481 0.930 . S
C490 C488 1.378 . S
C490 C491 1.367 . S
C491 C490 1.367 . S
C491 C493 1.433 . S
C492 C488 1.350 . S
C492 C489 1.463 . S
C492 N496 1.427 . S
C493 H483 0.929 . S
C493 C491 1.433 . S
C493 N496 1.384 . S
C494 H485 0.929 . S
C494 C486 1.378 . S
C494 C489 1.350 . S
C495 H482 0.929 . S
C495 C487 1.433 . S
C495 N497 1.384 . S
N496 C492 1.427 . S
N496 C493 1.384 . S
N497 C489 1.427 . S
N497 C495 1.384 . S
H498 C504 0.930 . S
H499 C508 0.930 . S
H500 C513 0.929 . S
H501 C511 0.929 . S
H502 C506 0.929 . S
H503 C512 0.929 . S
C504 H498 0.930 . S
C504 C505 1.367 . S
C504 C512 1.378 . S
C505 C504 1.367 . S
C505 C513 1.433 . S
C506 H502 0.929 . S
C506 C508 1.378 . S
C506 C510 1.350 . S
C507 C510 1.463 . S
C507 C512 1.350 . S
C507 N515 1.427 . S
C508 H499 0.930 . S
C508 C506 1.378 . S
C508 C509 1.367 . S
C509 C508 1.367 . S
C509 C511 1.433 . S
C510 C506 1.350 . S
C510 C507 1.463 . S
C510 N514 1.427 . S
C511 H501 0.929 . S
C511 C509 1.433 . S
C511 N514 1.384 . S
C512 H503 0.929 . S
C512 C504 1.378 . S
C512 C507 1.350 . S
C513 H500 0.929 . S
C513 C505 1.433 . S
C513 N515 1.384 . S
N514 C510 1.427 . S
N514 C511 1.384 . S
N515 C507 1.427 . S
N515 C513 1.384 . S
H516 C522 0.930 . S
H517 C526 0.930 . S
H518 C531 0.929 . S
H519 C529 0.929 . S
H520 C524 0.929 . S
H521 C530 0.929 . S
C522 H516 0.930 . S
C522 C523 1.367 . S
C522 C530 1.378 . S
C523 C522 1.367 . S
C523 C531 1.433 . S
C524 H520 0.929 . S
C524 C526 1.378 . S
C524 C528 1.350 . S
C525 C528 1.463 . S
C525 C530 1.350 . S
C525 N533 1.427 . S
C526 H517 0.930 . S
C526 C524 1.378 . S
C526 C527 1.367 . S
C527 C526 1.367 . S
C527 C529 1.433 . S
C528 C524 1.350 . S
C528 C525 1.463 . S
C528 N532 1.427 . S
C529 H519 0.929 . S
C529 C527 1.433 . S
C529 N532 1.384 . S
C530 H521 0.929 . S
C530 C522 1.378 . S
C530 C525 1.350 . S
C531 H518 0.929 . S
C531 C523 1.433 . S
C531 N533 1.384 . S
N532 C528 1.427 . S
N532 C529 1.384 . S
N533 C525 1.427 . S
N533 C531 1.384 . S
H534 C540 0.930 . S
H535 C544 0.930 . S
H536 C549 0.929 1_545 S
H537 C547 0.929 . S
H538 C542 0.929 . S
H539 C548 0.929 . S
C540 H534 0.930 . S
C540 C541 1.367 . S
C540 C548 1.378 . S
C541 C540 1.367 . S
C541 C549 1.433 . S
C542 H538 0.929 . S
C542 C544 1.378 . S
C542 C546 1.350 . S
C543 C546 1.463 . S
C543 C548 1.350 . S
C543 N551 1.427 . S
C544 H535 0.930 . S
C544 C542 1.378 . S
C544 C545 1.367 . S
C545 C544 1.367 . S
C545 C547 1.433 . S
C546 C542 1.350 . S
C546 C543 1.463 . S
C546 N550 1.427 . S
C547 H537 0.929 . S
C547 C545 1.433 . S
C547 N550 1.384 . S
C548 H539 0.929 . S
C548 C540 1.378 . S
C548 C543 1.350 . S
C549 H536 0.929 1_565 S
C549 C541 1.433 . S
C549 N551 1.384 . S
N550 C546 1.427 . S
N550 C547 1.384 . S
N551 C543 1.427 . S
N551 C549 1.384 . S
H552 C558 0.930 . S
H553 C562 0.930 . S
H554 C567 0.929 . S
H555 C565 0.929 . S
H556 C560 0.929 . S
H557 C566 0.929 . S
C558 H552 0.930 . S
C558 C559 1.367 . S
C558 C566 1.378 . S
C559 C558 1.367 . S
C559 C567 1.433 . S
C560 H556 0.929 . S
C560 C562 1.378 . S
C560 C564 1.350 . S
C561 C564 1.463 . S
C561 C566 1.350 . S
C561 N569 1.427 . S
C562 H553 0.930 . S
C562 C560 1.378 . S
C562 C563 1.367 . S
C563 C562 1.367 . S
C563 C565 1.433 . S
C564 C560 1.350 . S
C564 C561 1.463 . S
C564 N568 1.427 . S
C565 H555 0.929 . S
C565 C563 1.433 . S
C565 N568 1.384 . S
C566 H557 0.929 . S
C566 C558 1.378 . S
C566 C561 1.350 . S
C567 H554 0.929 . S
C567 C559 1.433 . S
C567 N569 1.384 . S
N568 C564 1.427 . S
N568 C565 1.384 . S
N569 C561 1.427 . S
N569 C567 1.384 . S
H570 C576 0.930 . S
H571 C580 0.930 . S
H572 C585 0.929 . S
H573 C583 0.929 . S
H574 C578 0.929 . S
H575 C584 0.929 . S
C576 H570 0.930 . S
C576 C577 1.367 . S
C576 C584 1.378 . S
C577 C576 1.367 . S
C577 C585 1.433 . S
C578 H574 0.929 . S
C578 C580 1.378 . S
C578 C582 1.350 . S
C579 C582 1.463 . S
C579 C584 1.350 . S
C579 N587 1.427 . S
C580 H571 0.930 . S
C580 C578 1.378 . S
C580 C581 1.367 . S
C581 C580 1.367 . S
C581 C583 1.433 . S
C582 C578 1.350 . S
C582 C579 1.463 . S
C582 N586 1.427 . S
C583 H573 0.929 . S
C583 C581 1.433 . S
C583 N586 1.384 . S
C584 H575 0.929 . S
C584 C576 1.378 . S
C584 C579 1.350 . S
C585 H572 0.929 . S
C585 C577 1.433 . S
C585 N587 1.384 . S
N586 C582 1.427 . S
N586 C583 1.384 . S
N587 C579 1.427 . S
N587 C585 1.384 . S
H588 C594 0.930 . S
H589 C598 0.930 . S
H590 C603 0.929 . S
H591 C601 0.929 . S
H592 C596 0.929 . S
H593 C602 0.929 . S
C594 H588 0.930 . S
C594 C595 1.367 . S
C594 C602 1.378 . S
C595 C594 1.367 . S
C595 C603 1.433 . S
C596 H592 0.929 . S
C596 C598 1.378 . S
C596 C600 1.350 . S
C597 C600 1.463 . S
C597 C602 1.350 . S
C597 N605 1.427 . S
C598 H589 0.930 . S
C598 C596 1.378 . S
C598 C599 1.367 . S
C599 C598 1.367 . S
C599 C601 1.433 . S
C600 C596 1.350 . S
C600 C597 1.463 . S
C600 N604 1.427 . S
C601 H591 0.929 . S
C601 C599 1.433 . S
C601 N604 1.384 . S
C602 H593 0.929 . S
C602 C594 1.378 . S
C602 C597 1.350 . S
C603 H590 0.929 . S
C603 C595 1.433 . S
C603 N605 1.384 . S
N604 C600 1.427 . S
N604 C601 1.384 . S
N605 C597 1.427 . S
N605 C603 1.384 . S
H606 C612 0.930 . S
H607 C616 0.930 . S
H608 C621 0.929 1_556 S
H609 C619 0.929 . S
H610 C614 0.929 . S
H611 C620 0.929 . S
C612 H606 0.930 . S
C612 C613 1.367 . S
C612 C620 1.378 . S
C613 C612 1.367 . S
C613 C621 1.433 . S
C614 H610 0.929 . S
C614 C616 1.378 . S
C614 C618 1.350 . S
C615 C618 1.463 . S
C615 C620 1.350 . S
C615 N623 1.427 . S
C616 H607 0.930 . S
C616 C614 1.378 . S
C616 C617 1.367 . S
C617 C616 1.367 . S
C617 C619 1.433 . S
C618 C614 1.350 . S
C618 C615 1.463 . S
C618 N622 1.427 . S
C619 H609 0.929 . S
C619 C617 1.433 . S
C619 N622 1.384 . S
C620 H611 0.929 . S
C620 C612 1.378 . S
C620 C615 1.350 . S
C621 H608 0.929 1_554 S
C621 C613 1.433 . S
C621 N623 1.384 . S
N622 C618 1.427 . S
N622 C619 1.384 . S
N623 C615 1.427 . S
N623 C621 1.384 . S
H624 C630 0.930 . S
H625 C634 0.930 . S
H626 C639 0.929 . S
H627 C637 0.929 . S
H628 C632 0.929 . S
H629 C638 0.929 . S
C630 H624 0.930 . S
C630 C631 1.367 . S
C630 C638 1.378 . S
C631 C630 1.367 . S
C631 C639 1.433 . S
C632 H628 0.929 . S
C632 C634 1.378 . S
C632 C636 1.350 . S
C633 C636 1.463 . S
C633 C638 1.350 . S
C633 N641 1.427 . S
C634 H625 0.930 . S
C634 C632 1.378 . S
C634 C635 1.367 . S
C635 C634 1.367 . S
C635 C637 1.433 . S
C636 C632 1.350 . S
C636 C633 1.463 . S
C636 N640 1.427 . S
C637 H627 0.929 . S
C637 C635 1.433 . S
C637 N640 1.384 . S
C638 H629 0.929 . S
C638 C630 1.378 . S
C638 C633 1.350 . S
C639 H626 0.929 . S
C639 C631 1.433 . S
C639 N641 1.384 . S
N640 C636 1.427 . S
N640 C637 1.384 . S
N641 C633 1.427 . S
N641 C639 1.384 . S
H642 C648 0.930 . S
H643 C652 0.930 . S
H644 C657 0.953 . S
H645 C655 0.929 . S
H646 C650 0.929 . S
H647 C656 0.929 . S
C648 H642 0.930 . S
C648 C649 1.367 . S
C648 C656 1.378 . S
C649 C648 1.367 . S
C649 C657 1.418 1_655 S
C650 H646 0.929 . S
C650 C652 1.378 . S
C650 C654 1.350 . S
C651 C654 1.463 . S
C651 C656 1.350 . S
C651 N659 1.427 . S
C652 H643 0.930 . S
C652 C650 1.378 . S
C652 C653 1.367 . S
C653 C652 1.367 . S
C653 C655 1.433 . S
C654 C650 1.350 . S
C654 C651 1.463 . S
C654 N658 1.427 . S
C655 H645 0.929 . S
C655 C653 1.433 . S
C655 N658 1.384 . S
C656 H647 0.929 . S
C656 C648 1.378 . S
C656 C651 1.350 . S
C657 H644 0.953 . S
C657 C649 1.418 1_455 S
C657 N659 1.374 1_455 S
N658 C654 1.427 . S
N658 C655 1.384 . S
N659 C651 1.427 . S
N659 C657 1.374 1_655 S
H660 C666 0.930 . S
H661 C670 0.930 . S
H662 C675 0.929 . S
H663 C673 0.929 . S
H664 C668 0.929 . S
H665 C674 0.929 . S
C666 H660 0.930 . S
C666 C667 1.367 . S
C666 C674 1.378 . S
C667 C666 1.367 . S
C667 C675 1.433 . S
C668 H664 0.929 . S
C668 C670 1.378 . S
C668 C672 1.350 . S
C669 C672 1.463 . S
C669 C674 1.350 . S
C669 N677 1.427 . S
C670 H661 0.930 . S
C670 C668 1.378 . S
C670 C671 1.367 . S
C671 C670 1.367 . S
C671 C673 1.433 . S
C672 C668 1.350 . S
C672 C669 1.463 . S
C672 N676 1.427 . S
C673 H663 0.929 . S
C673 C671 1.433 . S
C673 N676 1.384 . S
C674 H665 0.929 . S
C674 C666 1.378 . S
C674 C669 1.350 . S
C675 H662 0.929 . S
C675 C667 1.433 . S
C675 N677 1.384 . S
N676 C672 1.427 . S
N676 C673 1.384 . S
N677 C669 1.427 . S
N677 C675 1.384 . S
H678 C684 0.930 . S
H679 C688 0.930 . S
H680 C693 0.929 . S
H681 C691 0.929 . S
H682 C686 0.929 . S
H683 C692 0.929 1_655 S
C684 H678 0.930 . S
C684 C685 1.367 1_655 S
C684 C692 1.378 1_655 S
C685 C684 1.367 1_455 S
C685 C693 1.433 . S
C686 H682 0.929 . S
C686 C688 1.378 . S
C686 C690 1.350 . S
C687 C690 1.463 . S
C687 C692 1.350 . S
C687 N695 1.427 . S
C688 H679 0.930 . S
C688 C686 1.378 . S
C688 C689 1.367 . S
C689 C688 1.367 . S
C689 C691 1.433 . S
C690 C686 1.350 . S
C690 C687 1.463 . S
C690 N694 1.427 . S
C691 H681 0.929 . S
C691 C689 1.433 . S
C691 N694 1.384 . S
C692 H683 0.929 1_455 S
C692 C684 1.378 1_455 S
C692 C687 1.350 . S
C693 H680 0.929 . S
C693 C685 1.433 . S
C693 N695 1.384 . S
N694 C690 1.427 . S
N694 C691 1.384 . S
N695 C687 1.427 . S
N695 C693 1.384 . S
H696 C702 0.930 . S
H697 C706 0.930 . S
H698 C711 0.929 . S
H699 C709 0.929 . S
H700 C704 0.929 . S
H701 C710 0.929 . S
C702 H696 0.930 . S
C702 C703 1.367 . S
C702 C710 1.378 . S
C703 C702 1.367 . S
C703 C711 1.433 . S
C704 H700 0.929 . S
C704 C706 1.378 . S
C704 C708 1.350 . S
C705 C708 1.463 . S
C705 C710 1.350 . S
C705 N713 1.427 . S
C706 H697 0.930 . S
C706 C704 1.378 . S
C706 C707 1.367 . S
C707 C706 1.367 . S
C707 C709 1.433 . S
C708 C704 1.350 . S
C708 C705 1.463 . S
C708 N712 1.427 . S
C709 H699 0.929 . S
C709 C707 1.433 . S
C709 N712 1.384 . S
C710 H701 0.929 . S
C710 C702 1.378 . S
C710 C705 1.350 . S
C711 H698 0.929 . S
C711 C703 1.433 . S
C711 N713 1.384 . S
N712 C708 1.427 . S
N712 C709 1.384 . S
N713 C705 1.427 . S
N713 C711 1.384 . S
H714 C720 0.930 . S
H715 C724 0.930 . S
H716 C729 0.929 . S
H717 C727 0.929 . S
H718 C722 0.929 . S
H719 C728 0.929 . S
C720 H714 0.930 . S
C720 C721 1.367 . S
C720 C728 1.378 . S
C721 C720 1.367 . S
C721 C729 1.433 . S
C722 H718 0.929 . S
C722 C724 1.378 . S
C722 C726 1.350 . S
C723 C726 1.463 . S
C723 C728 1.350 . S
C723 N731 1.427 . S
C724 H715 0.930 . S
C724 C722 1.378 . S
C724 C725 1.367 . S
C725 C724 1.367 . S
C725 C727 1.433 . S
C726 C722 1.350 . S
C726 C723 1.463 . S
C726 N730 1.427 . S
C727 H717 0.929 . S
C727 C725 1.433 . S
C727 N730 1.384 . S
C728 H719 0.929 . S
C728 C720 1.378 . S
C728 C723 1.350 . S
C729 H716 0.929 . S
C729 C721 1.433 . S
C729 N731 1.384 . S
N730 C726 1.427 . S
N730 C727 1.384 . S
N731 C723 1.427 . S
N731 C729 1.384 . S
H732 C738 0.930 . S
H733 C742 0.930 . S
H734 C747 0.929 1_545 S
H735 C745 0.929 . S
H736 C740 0.929 . S
H737 C746 0.929 . S
C738 H732 0.930 . S
C738 C739 1.367 . S
C738 C746 1.378 . S
C739 C738 1.367 . S
C739 C747 1.433 . S
C740 H736 0.929 . S
C740 C742 1.378 . S
C740 C744 1.350 . S
C741 C744 1.463 . S
C741 C746 1.350 . S
C741 N749 1.427 . S
C742 H733 0.930 . S
C742 C740 1.378 . S
C742 C743 1.367 . S
C743 C742 1.367 . S
C743 C745 1.433 . S
C744 C740 1.350 . S
C744 C741 1.463 . S
C744 N748 1.427 . S
C745 H735 0.929 . S
C745 C743 1.433 . S
C745 N748 1.384 . S
C746 H737 0.929 . S
C746 C738 1.378 . S
C746 C741 1.350 . S
C747 H734 0.929 1_565 S
C747 C739 1.433 . S
C747 N749 1.384 . S
N748 C744 1.427 . S
N748 C745 1.384 . S
N749 C741 1.427 . S
N749 C747 1.384 . S
H750 C756 0.930 1_565 S
H751 C760 0.930 . S
H752 C765 0.929 . S
H753 C763 0.929 . S
H754 C758 0.929 . S
H755 C764 0.929 . S
C756 H750 0.930 1_545 S
C756 C757 1.367 . S
C756 C764 1.378 . S
C757 C756 1.367 . S
C757 C765 1.433 . S
C758 H754 0.929 . S
C758 C760 1.378 . S
C758 C762 1.350 . S
C759 C762 1.463 . S
C759 C764 1.350 . S
C759 N767 1.427 . S
C760 H751 0.930 . S
C760 C758 1.378 . S
C760 C761 1.367 . S
C761 C760 1.367 . S
C761 C763 1.433 . S
C762 C758 1.350 . S
C762 C759 1.463 . S
C762 N766 1.427 . S
C763 H753 0.929 . S
C763 C761 1.433 . S
C763 N766 1.384 . S
C764 H755 0.929 . S
C764 C756 1.378 . S
C764 C759 1.350 . S
C765 H752 0.929 . S
C765 C757 1.433 . S
C765 N767 1.384 . S
N766 C762 1.427 . S
N766 C763 1.384 . S
N767 C759 1.427 . S
N767 C765 1.384 . S
H768 C774 0.930 . S
H769 C778 0.930 . S
H770 C783 0.929 . S
H771 C781 0.929 . S
H772 C776 0.929 . S
H773 C782 0.929 . S
C774 H768 0.930 . S
C774 C775 1.367 . S
C774 C782 1.378 . S
C775 C774 1.367 . S
C775 C783 1.433 . S
C776 H772 0.929 . S
C776 C778 1.378 . S
C776 C780 1.350 . S
C777 C780 1.463 . S
C777 C782 1.350 . S
C777 N785 1.427 . S
C778 H769 0.930 . S
C778 C776 1.378 . S
C778 C779 1.367 . S
C779 C778 1.367 . S
C779 C781 1.433 . S
C780 C776 1.350 . S
C780 C777 1.463 . S
C780 N784 1.427 . S
C781 H771 0.929 . S
C781 C779 1.433 . S
C781 N784 1.384 . S
C782 H773 0.929 . S
C782 C774 1.378 . S
C782 C777 1.350 . S
C783 H770 0.929 . S
C783 C775 1.433 . S
C783 N785 1.384 . S
N784 C780 1.427 . S
N784 C781 1.384 . S
N785 C777 1.427 . S
N785 C783 1.384 . S
H786 C792 0.930 . S
H787 C796 0.930 . S
H788 C801 0.929 1_556 S
H789 C799 0.929 . S
H790 C794 0.929 . S
H791 C800 0.929 . S
C792 H786 0.930 . S
C792 C793 1.367 . S
C792 C800 1.378 . S
C793 C792 1.367 . S
C793 C801 1.433 . S
C794 H790 0.929 . S
C794 C796 1.378 . S
C794 C798 1.350 . S
C795 C798 1.463 . S
C795 C800 1.350 . S
C795 N803 1.427 . S
C796 H787 0.930 . S
C796 C794 1.378 . S
C796 C797 1.367 . S
C797 C796 1.367 . S
C797 C799 1.433 . S
C798 C794 1.350 . S
C798 C795 1.463 . S
C798 N802 1.427 . S
C799 H789 0.929 . S
C799 C797 1.433 . S
C799 N802 1.384 . S
C800 H791 0.929 . S
C800 C792 1.378 . S
C800 C795 1.350 . S
C801 H788 0.929 1_554 S
C801 C793 1.433 . S
C801 N803 1.384 . S
N802 C798 1.427 . S
N802 C799 1.384 . S
N803 C795 1.427 . S
N803 C801 1.384 . S
H804 C810 0.930 . S
H805 C814 0.930 . S
H806 C819 0.929 . S
H807 C817 0.929 . S
H808 C812 0.929 . S
H809 C818 0.929 . S
C810 H804 0.930 . S
C810 C811 1.367 . S
C810 C818 1.378 . S
C811 C810 1.367 . S
C811 C819 1.433 . S
C812 H808 0.929 . S
C812 C814 1.378 . S
C812 C816 1.350 . S
C813 C816 1.463 . S
C813 C818 1.350 . S
C813 N821 1.427 . S
C814 H805 0.930 . S
C814 C812 1.378 . S
C814 C815 1.367 . S
C815 C814 1.367 . S
C815 C817 1.433 . S
C816 C812 1.350 . S
C816 C813 1.463 . S
C816 N820 1.427 . S
C817 H807 0.929 . S
C817 C815 1.433 . S
C817 N820 1.384 . S
C818 H809 0.929 . S
C818 C810 1.378 . S
C818 C813 1.350 . S
C819 H806 0.929 . S
C819 C811 1.433 . S
C819 N821 1.384 . S
N820 C816 1.427 . S
N820 C817 1.384 . S
N821 C813 1.427 . S
N821 C819 1.384 . S
H822 C828 0.930 . S
H823 C832 0.930 . S
H824 C837 0.929 . S
H825 C835 0.929 . S
H826 C830 0.929 . S
H827 C836 0.929 1_554 S
C828 H822 0.930 . S
C828 C829 1.367 1_554 S
C828 C836 1.378 1_554 S
C829 C828 1.367 1_556 S
C829 C837 1.433 . S
C830 H826 0.929 . S
C830 C832 1.378 . S
C830 C834 1.350 . S
C831 C834 1.463 . S
C831 C836 1.350 . S
C831 N839 1.427 . S
C832 H823 0.930 . S
C832 C830 1.378 . S
C832 C833 1.367 . S
C833 C832 1.367 . S
C833 C835 1.433 . S
C834 C830 1.350 . S
C834 C831 1.463 . S
C834 N838 1.427 . S
C835 H825 0.929 . S
C835 C833 1.433 . S
C835 N838 1.384 . S
C836 H827 0.929 1_556 S
C836 C828 1.378 1_556 S
C836 C831 1.350 . S
C837 H824 0.929 . S
C837 C829 1.433 . S
C837 N839 1.384 . S
N838 C834 1.427 . S
N838 C835 1.384 . S
N839 C831 1.427 . S
N839 C837 1.384 . S
H840 C846 0.930 . S
H841 C850 0.930 . S
H842 C855 0.929 . S
H843 C853 0.929 . S
H844 C848 0.929 . S
H845 C854 0.929 . S
C846 H840 0.930 . S
C846 C847 1.367 . S
C846 C854 1.378 . S
C847 C846 1.367 . S
C847 C855 1.433 . S
C848 H844 0.929 . S
C848 C850 1.378 . S
C848 C852 1.350 . S
C849 C852 1.463 . S
C849 C854 1.350 . S
C849 N857 1.427 . S
C850 H841 0.930 . S
C850 C848 1.378 . S
C850 C851 1.367 . S
C851 C850 1.367 . S
C851 C853 1.433 . S
C852 C848 1.350 . S
C852 C849 1.463 . S
C852 N856 1.427 . S
C853 H843 0.929 . S
C853 C851 1.433 . S
C853 N856 1.384 . S
C854 H845 0.929 . S
C854 C846 1.378 . S
C854 C849 1.350 . S
C855 H842 0.929 . S
C855 C847 1.433 . S
C855 N857 1.384 . S
N856 C852 1.427 . S
N856 C853 1.384 . S
N857 C849 1.427 . S
N857 C855 1.384 . S
H858 C864 0.930 . S
H859 C868 0.930 . S
H860 C873 0.929 . S
H861 C871 0.929 . S
H862 C866 0.929 . S
H863 C872 0.929 . S
C864 H858 0.930 . S
C864 C865 1.367 . S
C864 C872 1.378 . S
C865 C864 1.367 . S
C865 C873 1.433 . S
C866 H862 0.929 . S
C866 C868 1.378 . S
C866 C870 1.350 . S
C867 C870 1.463 . S
C867 C872 1.350 . S
C867 N875 1.427 . S
C868 H859 0.930 . S
C868 C866 1.378 . S
C868 C869 1.367 . S
C869 C868 1.367 . S
C869 C871 1.433 . S
C870 C866 1.350 . S
C870 C867 1.463 . S
C870 N874 1.427 . S
C871 H861 0.929 . S
C871 C869 1.433 . S
C871 N874 1.384 . S
C872 H863 0.929 . S
C872 C864 1.378 . S
C872 C867 1.350 . S
C873 H860 0.929 . S
C873 C865 1.433 . S
C873 N875 1.384 . S
N874 C870 1.427 . S
N874 C871 1.384 . S
N875 C867 1.427 . S
N875 C873 1.384 . S
H876 C882 0.930 . S
H877 C886 0.930 . S
H878 C891 0.929 . S
H879 C889 0.929 . S
H880 C884 0.929 . S
H881 C890 0.929 . S
C882 H876 0.930 . S
C882 C883 1.367 . S
C882 C890 1.378 . S
C883 C882 1.367 . S
C883 C891 1.433 . S
C884 H880 0.929 . S
C884 C886 1.378 . S
C884 C888 1.350 . S
C885 C888 1.463 . S
C885 C890 1.350 . S
C885 N893 1.427 . S
C886 H877 0.930 . S
C886 C884 1.378 . S
C886 C887 1.367 . S
C887 C886 1.367 . S
C887 C889 1.433 . S
C888 C884 1.350 . S
C888 C885 1.463 . S
C888 N892 1.427 . S
C889 H879 0.929 . S
C889 C887 1.433 . S
C889 N892 1.384 . S
C890 H881 0.929 . S
C890 C882 1.378 . S
C890 C885 1.350 . S
C891 H878 0.929 . S
C891 C883 1.433 . S
C891 N893 1.384 . S
N892 C888 1.427 . S
N892 C889 1.384 . S
N893 C885 1.427 . S
N893 C891 1.384 . S
H894 C900 0.930 . S
H895 C904 0.930 . S
H896 C909 0.929 . S
H897 C907 0.929 . S
H898 C902 0.929 . S
H899 C908 0.929 . S
C900 H894 0.930 . S
C900 C901 1.367 . S
C900 C908 1.378 . S
C901 C900 1.367 . S
C901 C909 1.433 . S
C902 H898 0.929 . S
C902 C904 1.378 . S
C902 C906 1.350 . S
C903 C906 1.463 . S
C903 C908 1.350 . S
C903 N911 1.427 . S
C904 H895 0.930 . S
C904 C902 1.378 . S
C904 C905 1.367 . S
C905 C904 1.367 . S
C905 C907 1.433 . S
C906 C902 1.350 . S
C906 C903 1.463 . S
C906 N910 1.427 . S
C907 H897 0.929 . S
C907 C905 1.433 . S
C907 N910 1.384 . S
C908 H899 0.929 . S
C908 C900 1.378 . S
C908 C903 1.350 . S
C909 H896 0.929 . S
C909 C901 1.433 . S
C909 N911 1.384 . S
N910 C906 1.427 . S
N910 C907 1.384 . S
N911 C903 1.427 . S
N911 C909 1.384 . S
H912 C918 0.930 . S
H913 C922 0.930 . S
H914 C927 0.929 . S
H915 C925 0.929 . S
H916 C920 0.929 . S
H917 C926 0.929 . S
C918 H912 0.930 . S
C918 C919 1.367 . S
C918 C926 1.378 . S
C919 C918 1.367 . S
C919 C927 1.433 . S
C920 H916 0.929 . S
C920 C922 1.378 . S
C920 C924 1.350 . S
C921 C924 1.463 . S
C921 C926 1.350 . S
C921 N929 1.427 . S
C922 H913 0.930 . S
C922 C920 1.378 . S
C922 C923 1.367 . S
C923 C922 1.367 . S
C923 C925 1.433 . S
C924 C920 1.350 . S
C924 C921 1.463 . S
C924 N928 1.427 . S
C925 H915 0.929 . S
C925 C923 1.433 . S
C925 N928 1.384 . S
C926 H917 0.929 . S
C926 C918 1.378 . S
C926 C921 1.350 . S
C927 H914 0.929 . S
C927 C919 1.433 . S
C927 N929 1.384 . S
N928 C924 1.427 . S
N928 C925 1.384 . S
N929 C921 1.427 . S
N929 C927 1.384 . S
H930 C936 0.930 . S
H931 C940 0.930 . S
H932 C945 0.929 . S
H933 C943 0.929 . S
H934 C938 0.929 . S
H935 C944 0.929 . S
C936 H930 0.930 . S
C936 C937 1.367 . S
C936 C944 1.378 . S
C937 C936 1.367 . S
C937 C945 1.433 . S
C938 H934 0.929 . S
C938 C940 1.378 . S
C938 C942 1.350 . S
C939 C942 1.463 . S
C939 C944 1.350 . S
C939 N947 1.427 . S
C940 H931 0.930 . S
C940 C938 1.378 . S
C940 C941 1.367 . S
C941 C940 1.367 . S
C941 C943 1.433 . S
C942 C938 1.350 . S
C942 C939 1.463 . S
C942 N946 1.427 . S
C943 H933 0.929 . S
C943 C941 1.433 . S
C943 N946 1.384 . S
C944 H935 0.929 . S
C944 C936 1.378 . S
C944 C939 1.350 . S
C945 H932 0.929 . S
C945 C937 1.433 . S
C945 N947 1.384 . S
N946 C942 1.427 . S
N946 C943 1.384 . S
N947 C939 1.427 . S
N947 C945 1.384 . S
H948 C954 0.930 . S
H949 C958 0.930 . S
H950 C963 0.929 . S
H951 C961 0.929 . S
H952 C956 0.929 . S
H953 C962 0.929 . S
C954 H948 0.930 . S
C954 C955 1.367 . S
C954 C962 1.378 . S
C955 C954 1.367 . S
C955 C963 1.433 1_565 S
C956 H952 0.929 . S
C956 C958 1.378 . S
C956 C960 1.350 1_545 S
C957 C960 1.463 . S
C957 C962 1.350 . S
C957 N965 1.427 1_565 S
C958 H949 0.930 . S
C958 C956 1.378 . S
C958 C959 1.367 . S
C959 C958 1.367 . S
C959 C961 1.433 1_545 S
C960 C956 1.350 1_565 S
C960 C957 1.463 . S
C960 N964 1.427 . S
C961 H951 0.929 . S
C961 C959 1.433 1_565 S
C961 N964 1.384 . S
C962 H953 0.929 . S
C962 C954 1.378 . S
C962 C957 1.350 . S
C963 H950 0.929 . S
C963 C955 1.433 1_545 S
C963 N965 1.384 . S
N964 C960 1.427 . S
N964 C961 1.384 . S
N965 C957 1.427 1_545 S
N965 C963 1.384 . S
H966 C972 0.930 . S
H967 C976 0.930 . S
H968 C981 0.929 . S
H969 C979 0.929 . S
H970 C974 0.929 . S
H971 C980 0.929 . S
C972 H966 0.930 . S
C972 C973 1.367 1_565 S
C972 C980 1.378 . S
C973 C972 1.367 1_545 S
C973 C981 1.433 . S
C974 H970 0.929 . S
C974 C976 1.378 . S
C974 C978 1.350 . S
C975 C978 1.463 . S
C975 C980 1.350 1_545 S
C975 N983 1.427 . S
C976 H967 0.930 . S
C976 C974 1.378 . S
C976 C977 1.367 . S
C977 C976 1.367 . S
C977 C979 1.433 1_545 S
C978 C974 1.350 . S
C978 C975 1.463 . S
C978 N982 1.427 1_545 S
C979 H969 0.929 . S
C979 C977 1.433 1_565 S
C979 N982 1.384 . S
C980 H971 0.929 . S
C980 C972 1.378 . S
C980 C975 1.350 1_565 S
C981 H968 0.929 . S
C981 C973 1.433 . S
C981 N983 1.384 . S
N982 C978 1.427 1_565 S
N982 C979 1.384 . S
N983 C975 1.427 . S
N983 C981 1.384 . S
H984 C990 0.930 . S
H985 C994 0.930 . S
H986 C999 0.929 . S
H987 C997 0.929 . S
H988 C992 0.929 . S
H989 C998 0.929 . S
C990 H984 0.930 . S
C990 C991 1.367 . S
C990 C998 1.378 . S
C991 C990 1.367 . S
C991 C999 1.433 . S
C992 H988 0.929 . S
C992 C994 1.378 . S
C992 C996 1.350 . S
C993 C996 1.463 . S
C993 C998 1.350 . S
C993 N1001 1.427 . S
C994 H985 0.930 . S
C994 C992 1.378 . S
C994 C995 1.367 . S
C995 C994 1.367 . S
C995 C997 1.433 . S
C996 C992 1.350 . S
C996 C993 1.463 . S
C996 N1000 1.427 . S
C997 H987 0.929 . S
C997 C995 1.433 . S
C997 N1000 1.384 . S
C998 H989 0.929 . S
C998 C990 1.378 . S
C998 C993 1.350 . S
C999 H986 0.929 . S
C999 C991 1.433 . S
C999 N1001 1.384 . S
N1000 C996 1.427 . S
N1000 C997 1.384 . S
N1001 C993 1.427 . S
N1001 C999 1.384 . S
H1002 C1008 0.930 . S
H1003 C1012 0.930 . S
H1004 C1017 0.929 . S
H1005 C1015 0.929 . S
H1006 C1010 0.929 . S
H1007 C1016 0.929 . S
C1008 H1002 0.930 . S
C1008 C1009 1.367 . S
C1008 C1016 1.378 . S
C1009 C1008 1.367 . S
C1009 C1017 1.433 1_554 S
C1010 H1006 0.929 . S
C1010 C1012 1.378 . S
C1010 C1014 1.350 1_556 S
C1011 C1014 1.463 . S
C1011 C1016 1.350 . S
C1011 N1019 1.427 1_554 S
C1012 H1003 0.930 . S
C1012 C1010 1.378 . S
C1012 C1013 1.367 1_556 S
C1013 C1012 1.367 1_554 S
C1013 C1015 1.433 . S
C1014 C1010 1.350 1_554 S
C1014 C1011 1.463 . S
C1014 N1018 1.427 . S
C1015 H1005 0.929 . S
C1015 C1013 1.433 . S
C1015 N1018 1.384 . S
C1016 H1007 0.929 . S
C1016 C1008 1.378 . S
C1016 C1011 1.350 . S
C1017 H1004 0.929 . S
C1017 C1009 1.433 1_556 S
C1017 N1019 1.384 . S
N1018 C1014 1.427 . S
N1018 C1015 1.384 . S
N1019 C1011 1.427 1_556 S
N1019 C1017 1.384 . S
H1020 C1026 0.930 . S
H1021 C1030 0.930 . S
H1022 C1035 0.929 . S
H1023 C1033 0.929 . S
H1024 C1028 0.929 . S
H1025 C1034 0.929 . S
C1026 H1020 0.930 . S
C1026 C1027 1.367 . S
C1026 C1034 1.378 . S
C1027 C1026 1.367 . S
C1027 C1035 1.433 . S
C1028 H1024 0.929 . S
C1028 C1030 1.378 . S
C1028 C1032 1.350 . S
C1029 C1032 1.463 . S
C1029 C1034 1.350 . S
C1029 N1037 1.427 . S
C1030 H1021 0.930 . S
C1030 C1028 1.378 . S
C1030 C1031 1.367 . S
C1031 C1030 1.367 . S
C1031 C1033 1.433 . S
C1032 C1028 1.350 . S
C1032 C1029 1.463 . S
C1032 N1036 1.427 . S
C1033 H1023 0.929 . S
C1033 C1031 1.433 . S
C1033 N1036 1.384 . S
C1034 H1025 0.929 . S
C1034 C1026 1.378 . S
C1034 C1029 1.350 . S
C1035 H1022 0.929 . S
C1035 C1027 1.433 . S
C1035 N1037 1.384 . S
N1036 C1032 1.427 . S
N1036 C1033 1.384 . S
N1037 C1029 1.427 . S
N1037 C1035 1.384 . S
H1038 C1044 0.930 . S
H1039 C1048 0.930 . S
H1040 C1053 0.914 1_554 S
H1041 C1051 0.929 . S
H1042 C1046 0.929 . S
H1043 C1052 0.929 . S
C1044 H1038 0.930 . S
C1044 C1045 1.367 . S
C1044 C1052 1.378 . S
C1045 C1044 1.367 . S
C1045 C1053 1.457 . S
C1046 H1042 0.929 . S
C1046 C1048 1.378 . S
C1046 C1050 1.350 1_554 S
C1047 C1050 1.463 . S
C1047 C1052 1.350 . S
C1047 N1055 1.427 1_556 S
C1048 H1039 0.930 . S
C1048 C1046 1.378 . S
C1048 C1049 1.367 . S
C1049 C1048 1.367 . S
C1049 C1051 1.433 1_554 S
C1050 C1046 1.350 1_556 S
C1050 C1047 1.463 . S
C1050 N1054 1.427 . S
C1051 H1041 0.929 . S
C1051 C1049 1.433 1_556 S
C1051 N1054 1.384 . S
C1052 H1043 0.929 . S
C1052 C1044 1.378 . S
C1052 C1047 1.350 . S
C1053 H1040 0.914 1_556 S
C1053 C1045 1.457 . S
C1053 N1055 1.377 1_556 S
N1054 C1050 1.427 . S
N1054 C1051 1.384 . S
N1055 C1047 1.427 1_554 S
N1055 C1053 1.377 1_554 S
H1056 C1062 0.930 . S
H1057 C1066 0.930 . S
H1058 C1071 0.929 . S
H1059 C1069 0.929 . S
H1060 C1064 0.929 . S
H1061 C1070 0.929 . S
C1062 H1056 0.930 . S
C1062 C1063 1.367 . S
C1062 C1070 1.378 . S
C1063 C1062 1.367 . S
C1063 C1071 1.433 . S
C1064 H1060 0.929 . S
C1064 C1066 1.378 . S
C1064 C1068 1.350 . S
C1065 C1068 1.463 . S
C1065 C1070 1.350 . S
C1065 N1073 1.427 . S
C1066 H1057 0.930 . S
C1066 C1064 1.378 . S
C1066 C1067 1.367 . S
C1067 C1066 1.367 . S
C1067 C1069 1.433 . S
C1068 C1064 1.350 . S
C1068 C1065 1.463 . S
C1068 N1072 1.427 . S
C1069 H1059 0.929 . S
C1069 C1067 1.433 . S
C1069 N1072 1.384 . S
C1070 H1061 0.929 . S
C1070 C1062 1.378 . S
C1070 C1065 1.350 . S
C1071 H1058 0.929 . S
C1071 C1063 1.433 . S
C1071 N1073 1.384 . S
N1072 C1068 1.427 . S
N1072 C1069 1.384 . S
N1073 C1065 1.427 . S
N1073 C1071 1.384 . S
H1074 C1080 0.930 . S
H1075 C1084 0.930 . S
H1076 C1089 0.929 . S
H1077 C1087 0.929 . S
H1078 C1082 0.929 . S
H1079 C1088 0.929 . S
C1080 H1074 0.930 . S
C1080 C1081 1.367 . S
C1080 C1088 1.378 . S
C1081 C1080 1.367 . S
C1081 C1089 1.433 1_455 S
C1082 H1078 0.929 . S
C1082 C1084 1.378 . S
C1082 C1086 1.350 1_655 S
C1083 C1086 1.463 . S
C1083 C1088 1.350 . S
C1083 N1091 1.427 1_455 S
C1084 H1075 0.930 . S
C1084 C1082 1.378 . S
C1084 C1085 1.367 1_655 S
C1085 C1084 1.367 1_455 S
C1085 C1087 1.433 . S
C1086 C1082 1.350 1_455 S
C1086 C1083 1.463 . S
C1086 N1090 1.427 . S
C1087 H1077 0.929 . S
C1087 C1085 1.433 . S
C1087 N1090 1.384 . S
C1088 H1079 0.929 . S
C1088 C1080 1.378 . S
C1088 C1083 1.350 . S
C1089 H1076 0.929 . S
C1089 C1081 1.433 1_655 S
C1089 N1091 1.384 . S
N1090 C1086 1.427 . S
N1090 C1087 1.384 . S
N1091 C1083 1.427 1_655 S
N1091 C1089 1.384 . S
H1092 C1098 0.930 . S
H1093 C1102 0.930 . S
H1094 C1107 0.929 . S
H1095 C1105 0.929 . S
H1096 C1100 0.929 . S
H1097 C1106 0.929 . S
C1098 H1092 0.930 . S
C1098 C1099 1.367 . S
C1098 C1106 1.378 . S
C1099 C1098 1.367 . S
C1099 C1107 1.433 . S
C1100 H1096 0.929 . S
C1100 C1102 1.378 . S
C1100 C1104 1.350 . S
C1101 C1104 1.463 . S
C1101 C1106 1.350 . S
C1101 N1109 1.427 . S
C1102 H1093 0.930 . S
C1102 C1100 1.378 . S
C1102 C1103 1.367 . S
C1103 C1102 1.367 . S
C1103 C1105 1.433 . S
C1104 C1100 1.350 . S
C1104 C1101 1.463 . S
C1104 N1108 1.427 . S
C1105 H1095 0.929 . S
C1105 C1103 1.433 . S
C1105 N1108 1.384 . S
C1106 H1097 0.929 . S
C1106 C1098 1.378 . S
C1106 C1101 1.350 . S
C1107 H1094 0.929 . S
C1107 C1099 1.433 . S
C1107 N1109 1.384 . S
N1108 C1104 1.427 . S
N1108 C1105 1.384 . S
N1109 C1101 1.427 . S
N1109 C1107 1.384 . S
H1110 C1116 0.930 . S
H1111 C1120 0.930 . S
H1112 C1125 0.929 . S
H1113 C1123 0.929 . S
H1114 C1118 0.929 . S
H1115 C1124 0.929 1_455 S
C1116 H1110 0.930 . S
C1116 C1117 1.367 . S
C1116 C1124 1.378 . S
C1117 C1116 1.367 . S
C1117 C1125 1.433 . S
C1118 H1114 0.929 . S
C1118 C1120 1.378 . S
C1118 C1122 1.350 . S
C1119 C1122 1.463 . S
C1119 C1124 1.350 . S
C1119 N1127 1.427 . S
C1120 H1111 0.930 . S
C1120 C1118 1.378 . S
C1120 C1121 1.367 1_655 S
C1121 C1120 1.367 1_455 S
C1121 C1123 1.433 . S
C1122 C1118 1.350 . S
C1122 C1119 1.463 . S
C1122 N1126 1.427 1_655 S
C1123 H1113 0.929 . S
C1123 C1121 1.433 . S
C1123 N1126 1.384 . S
C1124 H1115 0.929 1_655 S
C1124 C1116 1.378 . S
C1124 C1119 1.350 . S
C1125 H1112 0.929 . S
C1125 C1117 1.433 . S
C1125 N1127 1.384 . S
N1126 C1122 1.427 1_455 S
N1126 C1123 1.384 . S
N1127 C1119 1.427 . S
N1127 C1125 1.384 . S
H1128 C1134 0.930 . S
H1129 C1138 0.930 . S
H1130 C1143 0.929 . S
H1131 C1141 0.929 . S
H1132 C1136 0.929 . S
H1133 C1142 0.929 . S
C1134 H1128 0.930 . S
C1134 C1135 1.367 . S
C1134 C1142 1.378 . S
C1135 C1134 1.367 . S
C1135 C1143 1.433 . S
C1136 H1132 0.929 . S
C1136 C1138 1.378 . S
C1136 C1140 1.350 . S
C1137 C1140 1.463 . S
C1137 C1142 1.350 . S
C1137 N1145 1.427 . S
C1138 H1129 0.930 . S
C1138 C1136 1.378 . S
C1138 C1139 1.367 . S
C1139 C1138 1.367 . S
C1139 C1141 1.433 . S
C1140 C1136 1.350 . S
C1140 C1137 1.463 . S
C1140 N1144 1.427 . S
C1141 H1131 0.929 . S
C1141 C1139 1.433 . S
C1141 N1144 1.384 . S
C1142 H1133 0.929 . S
C1142 C1134 1.378 . S
C1142 C1137 1.350 . S
C1143 H1130 0.929 . S
C1143 C1135 1.433 . S
C1143 N1145 1.384 . S
N1144 C1140 1.427 . S
N1144 C1141 1.384 . S
N1145 C1137 1.427 . S
N1145 C1143 1.384 . S
H1146 C1152 0.930 . S
H1147 C1156 0.930 . S
H1148 C1161 0.929 . S
H1149 C1159 0.929 . S
H1150 C1154 0.929 . S
H1151 C1160 0.929 . S
C1152 H1146 0.930 . S
C1152 C1153 1.367 . S
C1152 C1160 1.378 . S
C1153 C1152 1.367 . S
C1153 C1161 1.433 . S
C1154 H1150 0.929 . S
C1154 C1156 1.378 . S
C1154 C1158 1.350 . S
C1155 C1158 1.463 . S
C1155 C1160 1.350 . S
C1155 N1163 1.427 . S
C1156 H1147 0.930 . S
C1156 C1154 1.378 . S
C1156 C1157 1.367 . S
C1157 C1156 1.367 . S
C1157 C1159 1.433 . S
C1158 C1154 1.350 . S
C1158 C1155 1.463 . S
C1158 N1162 1.427 . S
C1159 H1149 0.929 . S
C1159 C1157 1.433 . S
C1159 N1162 1.384 . S
C1160 H1151 0.929 . S
C1160 C1152 1.378 . S
C1160 C1155 1.350 . S
C1161 H1148 0.929 . S
C1161 C1153 1.433 . S
C1161 N1163 1.384 . S
N1162 C1158 1.427 . S
N1162 C1159 1.384 . S
N1163 C1155 1.427 . S
N1163 C1161 1.384 . S
H1164 C1170 0.930 . S
H1165 C1174 0.930 . S
H1166 C1179 0.929 . S
H1167 C1177 0.929 . S
H1168 C1172 0.929 . S
H1169 C1178 0.929 . S
C1170 H1164 0.930 . S
C1170 C1171 1.367 . S
C1170 C1178 1.378 . S
C1171 C1170 1.367 . S
C1171 C1179 1.433 1_545 S
C1172 H1168 0.929 . S
C1172 C1174 1.378 . S
C1172 C1176 1.350 1_565 S
C1173 C1176 1.463 . S
C1173 C1178 1.350 . S
C1173 N1181 1.427 1_545 S
C1174 H1165 0.930 . S
C1174 C1172 1.378 . S
C1174 C1175 1.367 . S
C1175 C1174 1.367 . S
C1175 C1177 1.433 1_565 S
C1176 C1172 1.350 1_545 S
C1176 C1173 1.463 . S
C1176 N1180 1.427 . S
C1177 H1167 0.929 . S
C1177 C1175 1.433 1_545 S
C1177 N1180 1.384 . S
C1178 H1169 0.929 . S
C1178 C1170 1.378 . S
C1178 C1173 1.350 . S
C1179 H1166 0.929 . S
C1179 C1171 1.433 1_565 S
C1179 N1181 1.384 . S
N1180 C1176 1.427 . S
N1180 C1177 1.384 . S
N1181 C1173 1.427 1_565 S
N1181 C1179 1.384 . S
H1182 C1188 0.930 . S
H1183 C1192 0.930 . S
H1184 C1197 0.904 1_545 S
H1185 C1195 0.929 . S
H1186 C1190 0.929 . S
H1187 C1196 0.929 . S
C1188 H1182 0.930 . S
C1188 C1189 1.367 . S
C1188 C1196 1.378 . S
C1189 C1188 1.367 . S
C1189 C1197 1.463 . S
C1190 H1186 0.929 . S
C1190 C1192 1.378 . S
C1190 C1194 1.350 1_545 S
C1191 C1194 1.463 . S
C1191 C1196 1.350 . S
C1191 N1199 1.427 1_565 S
C1192 H1183 0.930 . S
C1192 C1190 1.378 . S
C1192 C1193 1.367 1_545 S
C1193 C1192 1.367 1_565 S
C1193 C1195 1.433 . S
C1194 C1190 1.350 1_565 S
C1194 C1191 1.463 . S
C1194 N1198 1.427 . S
C1195 H1185 0.929 . S
C1195 C1193 1.433 . S
C1195 N1198 1.384 . S
C1196 H1187 0.929 . S
C1196 C1188 1.378 . S
C1196 C1191 1.350 . S
C1197 H1184 0.904 1_565 S
C1197 C1189 1.463 . S
C1197 N1199 1.382 1_565 S
N1198 C1194 1.427 . S
N1198 C1195 1.384 . S
N1199 C1191 1.427 1_545 S
N1199 C1197 1.382 1_545 S
H1200 C1206 0.930 . S
H1201 C1210 0.930 . S
H1202 C1215 0.929 . S
H1203 C1213 0.929 . S
H1204 C1208 0.929 . S
H1205 C1214 0.929 . S
C1206 H1200 0.930 . S
C1206 C1207 1.367 . S
C1206 C1214 1.378 . S
C1207 C1206 1.367 . S
C1207 C1215 1.433 . S
C1208 H1204 0.929 . S
C1208 C1210 1.378 . S
C1208 C1212 1.350 . S
C1209 C1212 1.463 . S
C1209 C1214 1.350 . S
C1209 N1217 1.427 . S
C1210 H1201 0.930 . S
C1210 C1208 1.378 . S
C1210 C1211 1.367 . S
C1211 C1210 1.367 . S
C1211 C1213 1.433 . S
C1212 C1208 1.350 . S
C1212 C1209 1.463 . S
C1212 N1216 1.427 . S
C1213 H1203 0.929 . S
C1213 C1211 1.433 . S
C1213 N1216 1.384 . S
C1214 H1205 0.929 . S
C1214 C1206 1.378 . S
C1214 C1209 1.350 . S
C1215 H1202 0.929 . S
C1215 C1207 1.433 . S
C1215 N1217 1.384 . S
N1216 C1212 1.427 . S
N1216 C1213 1.384 . S
N1217 C1209 1.427 . S
N1217 C1215 1.384 . S
H1218 C1224 0.930 . S
H1219 C1228 0.930 . S
H1220 C1233 0.929 . S
H1221 C1231 0.929 . S
H1222 C1226 0.929 . S
H1223 C1232 0.929 . S
C1224 H1218 0.930 . S
C1224 C1225 1.367 . S
C1224 C1232 1.378 . S
C1225 C1224 1.367 . S
C1225 C1233 1.433 1_556 S
C1226 H1222 0.929 . S
C1226 C1228 1.378 . S
C1226 C1230 1.350 1_554 S
C1227 C1230 1.463 . S
C1227 C1232 1.350 . S
C1227 N1235 1.427 1_556 S
C1228 H1219 0.930 . S
C1228 C1226 1.378 . S
C1228 C1229 1.367 1_554 S
C1229 C1228 1.367 1_556 S
C1229 C1231 1.433 . S
C1230 C1226 1.350 1_556 S
C1230 C1227 1.463 . S
C1230 N1234 1.427 . S
C1231 H1221 0.929 . S
C1231 C1229 1.433 . S
C1231 N1234 1.384 . S
C1232 H1223 0.929 . S
C1232 C1224 1.378 . S
C1232 C1227 1.350 . S
C1233 H1220 0.929 . S
C1233 C1225 1.433 1_554 S
C1233 N1235 1.384 . S
N1234 C1230 1.427 . S
N1234 C1231 1.384 . S
N1235 C1227 1.427 1_554 S
N1235 C1233 1.384 . S
H1236 C1242 0.930 . S
H1237 C1246 0.930 . S
H1238 C1251 0.929 . S
H1239 C1249 0.929 . S
H1240 C1244 0.929 . S
H1241 C1250 0.929 . S
C1242 H1236 0.930 . S
C1242 C1243 1.367 . S
C1242 C1250 1.378 . S
C1243 C1242 1.367 . S
C1243 C1251 1.433 . S
C1244 H1240 0.929 . S
C1244 C1246 1.378 . S
C1244 C1248 1.350 . S
C1245 C1248 1.463 . S
C1245 C1250 1.350 . S
C1245 N1253 1.427 . S
C1246 H1237 0.930 . S
C1246 C1244 1.378 . S
C1246 C1247 1.367 . S
C1247 C1246 1.367 . S
C1247 C1249 1.433 . S
C1248 C1244 1.350 . S
C1248 C1245 1.463 . S
C1248 N1252 1.427 . S
C1249 H1239 0.929 . S
C1249 C1247 1.433 . S
C1249 N1252 1.384 . S
C1250 H1241 0.929 . S
C1250 C1242 1.378 . S
C1250 C1245 1.350 . S
C1251 H1238 0.929 . S
C1251 C1243 1.433 . S
C1251 N1253 1.384 . S
N1252 C1248 1.427 . S
N1252 C1249 1.384 . S
N1253 C1245 1.427 . S
N1253 C1251 1.384 . S
H1254 C1260 0.930 . S
H1255 C1264 0.930 . S
H1256 C1269 0.929 . S
H1257 C1267 0.929 . S
H1258 C1262 0.929 . S
H1259 C1268 0.929 . S
C1260 H1254 0.930 . S
C1260 C1261 1.367 . S
C1260 C1268 1.378 . S
C1261 C1260 1.367 . S
C1261 C1269 1.433 . S
C1262 H1258 0.929 . S
C1262 C1264 1.378 . S
C1262 C1266 1.350 1_556 S
C1263 C1266 1.463 . S
C1263 C1268 1.350 . S
C1263 N1271 1.427 . S
C1264 H1255 0.930 . S
C1264 C1262 1.378 . S
C1264 C1265 1.367 . S
C1265 C1264 1.367 . S
C1265 C1267 1.433 1_556 S
C1266 C1262 1.350 1_554 S
C1266 C1263 1.463 . S
C1266 N1270 1.427 . S
C1267 H1257 0.929 . S
C1267 C1265 1.433 1_554 S
C1267 N1270 1.384 . S
C1268 H1259 0.929 . S
C1268 C1260 1.378 . S
C1268 C1263 1.350 . S
C1269 H1256 0.929 . S
C1269 C1261 1.433 . S
C1269 N1271 1.384 . S
N1270 C1266 1.427 . S
N1270 C1267 1.384 . S
N1271 C1263 1.427 . S
N1271 C1269 1.384 . S
H1272 C1278 0.930 . S
H1273 C1282 0.930 . S
H1274 C1287 0.929 . S
H1275 C1285 0.929 . S
H1276 C1280 0.929 . S
H1277 C1286 0.929 . S
C1278 H1272 0.930 . S
C1278 C1279 1.367 . S
C1278 C1286 1.378 . S
C1279 C1278 1.367 . S
C1279 C1287 1.433 . S
C1280 H1276 0.929 . S
C1280 C1282 1.378 . S
C1280 C1284 1.350 . S
C1281 C1284 1.463 . S
C1281 C1286 1.350 . S
C1281 N1289 1.427 . S
C1282 H1273 0.930 . S
C1282 C1280 1.378 . S
C1282 C1283 1.367 . S
C1283 C1282 1.367 . S
C1283 C1285 1.433 . S
C1284 C1280 1.350 . S
C1284 C1281 1.463 . S
C1284 N1288 1.427 . S
C1285 H1275 0.929 . S
C1285 C1283 1.433 . S
C1285 N1288 1.384 . S
C1286 H1277 0.929 . S
C1286 C1278 1.378 . S
C1286 C1281 1.350 . S
C1287 H1274 0.929 . S
C1287 C1279 1.433 . S
C1287 N1289 1.384 . S
N1288 C1284 1.427 . S
N1288 C1285 1.384 . S
N1289 C1281 1.427 . S
N1289 C1287 1.384 . S
H1290 C1296 0.930 . S
H1291 C1300 0.930 . S
H1292 C1305 0.929 . S
H1293 C1303 0.929 . S
H1294 C1298 0.929 1_455 S
H1295 C1304 0.929 . S
C1296 H1290 0.930 . S
C1296 C1297 1.367 . S
C1296 C1304 1.378 . S
C1297 C1296 1.367 . S
C1297 C1305 1.433 . S
C1298 H1294 0.929 1_655 S
C1298 C1300 1.378 1_655 S
C1298 C1302 1.350 . S
C1299 C1302 1.463 . S
C1299 C1304 1.350 . S
C1299 N1307 1.427 . S
C1300 H1291 0.930 . S
C1300 C1298 1.378 1_455 S
C1300 C1301 1.367 1_455 S
C1301 C1300 1.367 1_655 S
C1301 C1303 1.433 . S
C1302 C1298 1.350 . S
C1302 C1299 1.463 . S
C1302 N1306 1.427 . S
C1303 H1293 0.929 . S
C1303 C1301 1.433 . S
C1303 N1306 1.384 . S
C1304 H1295 0.929 . S
C1304 C1296 1.378 . S
C1304 C1299 1.350 . S
C1305 H1292 0.929 . S
C1305 C1297 1.433 . S
C1305 N1307 1.384 . S
N1306 C1302 1.427 . S
N1306 C1303 1.384 . S
N1307 C1299 1.427 . S
N1307 C1305 1.384 . S
H1308 C1314 0.930 . S
H1309 C1318 0.930 . S
H1310 C1323 0.929 . S
H1311 C1321 0.929 . S
H1312 C1316 0.929 . S
H1313 C1322 0.929 . S
C1314 H1308 0.930 . S
C1314 C1315 1.367 . S
C1314 C1322 1.378 . S
C1315 C1314 1.367 . S
C1315 C1323 1.433 . S
C1316 H1312 0.929 . S
C1316 C1318 1.378 . S
C1316 C1320 1.350 . S
C1317 C1320 1.463 . S
C1317 C1322 1.350 . S
C1317 N1325 1.427 . S
C1318 H1309 0.930 . S
C1318 C1316 1.378 . S
C1318 C1319 1.367 . S
C1319 C1318 1.367 . S
C1319 C1321 1.433 . S
C1320 C1316 1.350 . S
C1320 C1317 1.463 . S
C1320 N1324 1.427 . S
C1321 H1311 0.929 . S
C1321 C1319 1.433 . S
C1321 N1324 1.384 . S
C1322 H1313 0.929 . S
C1322 C1314 1.378 . S
C1322 C1317 1.350 . S
C1323 H1310 0.929 . S
C1323 C1315 1.433 . S
C1323 N1325 1.384 . S
N1324 C1320 1.427 . S
N1324 C1321 1.384 . S
N1325 C1317 1.427 . S
N1325 C1323 1.384 . S
H1326 C1332 0.930 . S
H1327 C1336 0.930 . S
H1328 C1341 0.929 . S
H1329 C1339 0.929 . S
H1330 C1334 0.929 . S
H1331 C1340 0.929 . S
C1332 H1326 0.930 . S
C1332 C1333 1.367 . S
C1332 C1340 1.378 . S
C1333 C1332 1.367 . S
C1333 C1341 1.433 1_455 S
C1334 H1330 0.929 . S
C1334 C1336 1.378 . S
C1334 C1338 1.350 1_655 S
C1335 C1338 1.463 . S
C1335 C1340 1.350 . S
C1335 N1343 1.427 1_455 S
C1336 H1327 0.930 . S
C1336 C1334 1.378 . S
C1336 C1337 1.367 . S
C1337 C1336 1.367 . S
C1337 C1339 1.433 1_655 S
C1338 C1334 1.350 1_455 S
C1338 C1335 1.463 . S
C1338 N1342 1.427 . S
C1339 H1329 0.929 . S
C1339 C1337 1.433 1_455 S
C1339 N1342 1.384 . S
C1340 H1331 0.929 . S
C1340 C1332 1.378 . S
C1340 C1335 1.350 . S
C1341 H1328 0.929 . S
C1341 C1333 1.433 1_655 S
C1341 N1343 1.384 . S
N1342 C1338 1.427 . S
N1342 C1339 1.384 . S
N1343 C1335 1.427 1_655 S
N1343 C1341 1.384 . S
H1344 C1350 0.930 . S
H1345 C1354 0.930 . S
H1346 C1359 0.929 . S
H1347 C1357 0.929 . S
H1348 C1352 0.929 . S
H1349 C1358 0.929 . S
C1350 H1344 0.930 . S
C1350 C1351 1.367 . S
C1350 C1358 1.378 . S
C1351 C1350 1.367 . S
C1351 C1359 1.433 . S
C1352 H1348 0.929 . S
C1352 C1354 1.378 . S
C1352 C1356 1.350 . S
C1353 C1356 1.463 . S
C1353 C1358 1.350 . S
C1353 N1361 1.427 . S
C1354 H1345 0.930 . S
C1354 C1352 1.378 . S
C1354 C1355 1.367 . S
C1355 C1354 1.367 . S
C1355 C1357 1.433 . S
C1356 C1352 1.350 . S
C1356 C1353 1.463 . S
C1356 N1360 1.427 . S
C1357 H1347 0.929 . S
C1357 C1355 1.433 . S
C1357 N1360 1.384 . S
C1358 H1349 0.929 . S
C1358 C1350 1.378 . S
C1358 C1353 1.350 . S
C1359 H1346 0.929 . S
C1359 C1351 1.433 . S
C1359 N1361 1.384 . S
N1360 C1356 1.427 . S
N1360 C1357 1.384 . S
N1361 C1353 1.427 . S
N1361 C1359 1.384 . S
H1362 C1368 0.930 . S
H1363 C1372 0.930 . S
H1364 C1377 0.929 . S
H1365 C1375 0.929 . S
H1366 C1370 0.929 . S
H1367 C1376 0.929 . S
C1368 H1362 0.930 . S
C1368 C1369 1.367 . S
C1368 C1376 1.378 . S
C1369 C1368 1.367 . S
C1369 C1377 1.433 . S
C1370 H1366 0.929 . S
C1370 C1372 1.378 . S
C1370 C1374 1.350 . S
C1371 C1374 1.463 . S
C1371 C1376 1.350 . S
C1371 N1379 1.427 . S
C1372 H1363 0.930 . S
C1372 C1370 1.378 . S
C1372 C1373 1.367 . S
C1373 C1372 1.367 . S
C1373 C1375 1.433 . S
C1374 C1370 1.350 . S
C1374 C1371 1.463 . S
C1374 N1378 1.427 . S
C1375 H1365 0.929 . S
C1375 C1373 1.433 . S
C1375 N1378 1.384 . S
C1376 H1367 0.929 . S
C1376 C1368 1.378 . S
C1376 C1371 1.350 . S
C1377 H1364 0.929 . S
C1377 C1369 1.433 . S
C1377 N1379 1.384 . S
N1378 C1374 1.427 . S
N1378 C1375 1.384 . S
N1379 C1371 1.427 . S
N1379 C1377 1.384 . S
H1380 C1386 0.930 . S
H1381 C1390 0.930 . S
H1382 C1395 0.929 . S
H1383 C1393 0.929 . S
H1384 C1388 0.929 . S
H1385 C1394 0.929 . S
C1386 H1380 0.930 . S
C1386 C1387 1.367 . S
C1386 C1394 1.378 . S
C1387 C1386 1.367 . S
C1387 C1395 1.433 1_545 S
C1388 H1384 0.929 . S
C1388 C1390 1.378 . S
C1388 C1392 1.350 . S
C1389 C1392 1.463 . S
C1389 C1394 1.350 . S
C1389 N1397 1.427 . S
C1390 H1381 0.930 . S
C1390 C1388 1.378 . S
C1390 C1391 1.367 . S
C1391 C1390 1.367 . S
C1391 C1393 1.433 . S
C1392 C1388 1.350 . S
C1392 C1389 1.463 . S
C1392 N1396 1.427 . S
C1393 H1383 0.929 . S
C1393 C1391 1.433 . S
C1393 N1396 1.384 . S
C1394 H1385 0.929 . S
C1394 C1386 1.378 . S
C1394 C1389 1.350 . S
C1395 H1382 0.929 . S
C1395 C1387 1.433 1_565 S
C1395 N1397 1.384 1_565 S
N1396 C1392 1.427 . S
N1396 C1393 1.384 . S
N1397 C1389 1.427 . S
N1397 C1395 1.384 1_545 S
H1398 C1404 0.930 . S
H1399 C1408 0.930 . S
H1400 C1413 0.929 . S
H1401 C1411 0.929 . S
H1402 C1406 0.929 . S
H1403 C1412 0.929 . S
C1404 H1398 0.930 . S
C1404 C1405 1.367 . S
C1404 C1412 1.378 . S
C1405 C1404 1.367 . S
C1405 C1413 1.433 . S
C1406 H1402 0.929 . S
C1406 C1408 1.378 . S
C1406 C1410 1.350 . S
C1407 C1410 1.463 . S
C1407 C1412 1.350 . S
C1407 N1415 1.427 . S
C1408 H1399 0.930 . S
C1408 C1406 1.378 . S
C1408 C1409 1.367 . S
C1409 C1408 1.367 . S
C1409 C1411 1.433 . S
C1410 C1406 1.350 . S
C1410 C1407 1.463 . S
C1410 N1414 1.427 . S
C1411 H1401 0.929 . S
C1411 C1409 1.433 . S
C1411 N1414 1.384 . S
C1412 H1403 0.929 . S
C1412 C1404 1.378 . S
C1412 C1407 1.350 . S
C1413 H1400 0.929 . S
C1413 C1405 1.433 . S
C1413 N1415 1.384 . S
N1414 C1410 1.427 . S
N1414 C1411 1.384 . S
N1415 C1407 1.427 . S
N1415 C1413 1.384 . S
H1416 C1422 0.930 . S
H1417 C1426 0.930 . S
H1418 C1431 0.929 . S
H1419 C1429 0.929 . S
H1420 C1424 0.929 . S
H1421 C1430 0.929 . S
C1422 H1416 0.930 . S
C1422 C1423 1.367 . S
C1422 C1430 1.378 . S
C1423 C1422 1.367 . S
C1423 C1431 1.433 . S
C1424 H1420 0.929 . S
C1424 C1426 1.378 . S
C1424 C1428 1.350 . S
C1425 C1428 1.463 . S
C1425 C1430 1.350 . S
C1425 N1433 1.427 . S
C1426 H1417 0.930 . S
C1426 C1424 1.378 . S
C1426 C1427 1.367 . S
C1427 C1426 1.367 . S
C1427 C1429 1.433 . S
C1428 C1424 1.350 . S
C1428 C1425 1.463 . S
C1428 N1432 1.427 . S
C1429 H1419 0.929 . S
C1429 C1427 1.433 . S
C1429 N1432 1.384 . S
C1430 H1421 0.929 . S
C1430 C1422 1.378 . S
C1430 C1425 1.350 . S
C1431 H1418 0.929 . S
C1431 C1423 1.433 . S
C1431 N1433 1.384 . S
N1432 C1428 1.427 . S
N1432 C1429 1.384 . S
N1433 C1425 1.427 . S
N1433 C1431 1.384 . S
H1434 C1440 0.885 1_554 S
H1435 C1444 0.930 . S
H1436 C1449 0.929 . S
H1437 C1447 0.929 . S
H1438 C1442 0.929 . S
H1439 C1448 0.929 1_554 S
C1440 H1434 0.885 1_556 S
C1440 C1441 1.402 . S
C1440 C1448 1.389 . S
C1441 C1440 1.402 . S
C1441 C1449 1.433 . S
C1442 H1438 0.929 . S
C1442 C1444 1.378 . S
C1442 C1446 1.350 . S
C1443 C1446 1.463 . S
C1443 C1448 1.350 . S
C1443 N1451 1.427 . S
C1444 H1435 0.930 . S
C1444 C1442 1.378 . S
C1444 C1445 1.367 . S
C1445 C1444 1.367 . S
C1445 C1447 1.433 . S
C1446 C1442 1.350 . S
C1446 C1443 1.463 . S
C1446 N1450 1.427 . S
C1447 H1437 0.929 . S
C1447 C1445 1.433 . S
C1447 N1450 1.384 . S
C1448 H1439 0.929 1_556 S
C1448 C1440 1.389 . S
C1448 C1443 1.350 . S
C1449 H1436 0.929 . S
C1449 C1441 1.433 . S
C1449 N1451 1.384 . S
N1450 C1446 1.427 . S
N1450 C1447 1.384 . S
N1451 C1443 1.427 . S
N1451 C1449 1.384 . S
H1452 C1458 0.930 . S
H1453 C1462 0.930 . S
H1454 C1467 0.929 . S
H1455 C1465 0.929 . S
H1456 C1460 0.929 . S
H1457 C1466 0.929 . S
C1458 H1452 0.930 . S
C1458 C1459 1.367 . S
C1458 C1466 1.378 . S
C1459 C1458 1.367 . S
C1459 C1467 1.433 . S
C1460 H1456 0.929 . S
C1460 C1462 1.378 . S
C1460 C1464 1.350 . S
C1461 C1464 1.463 . S
C1461 C1466 1.350 . S
C1461 N1469 1.427 . S
C1462 H1453 0.930 . S
C1462 C1460 1.378 . S
C1462 C1463 1.367 . S
C1463 C1462 1.367 . S
C1463 C1465 1.433 . S
C1464 C1460 1.350 . S
C1464 C1461 1.463 . S
C1464 N1468 1.427 . S
C1465 H1455 0.929 . S
C1465 C1463 1.433 . S
C1465 N1468 1.384 . S
C1466 H1457 0.929 . S
C1466 C1458 1.378 . S
C1466 C1461 1.350 . S
C1467 H1454 0.929 . S
C1467 C1459 1.433 . S
C1467 N1469 1.384 . S
N1468 C1464 1.427 . S
N1468 C1465 1.384 . S
N1469 C1461 1.427 . S
N1469 C1467 1.384 . S
H1470 C1476 0.930 . S
H1471 C1480 0.930 . S
H1472 C1485 0.944 . S
H1473 C1483 0.929 . S
H1474 C1478 0.929 . S
H1475 C1484 0.929 . S
C1476 H1470 0.930 . S
C1476 C1477 1.367 . S
C1476 C1484 1.378 . S
C1477 C1476 1.367 . S
C1477 C1485 1.433 . S
C1478 H1474 0.929 . S
C1478 C1480 1.378 . S
C1478 C1482 1.350 . S
C1479 C1482 1.463 . S
C1479 C1484 1.350 . S
C1479 N1487 1.427 . S
C1480 H1471 0.930 . S
C1480 C1478 1.378 . S
C1480 C1481 1.367 . S
C1481 C1480 1.367 . S
C1481 C1483 1.433 . S
C1482 C1478 1.350 . S
C1482 C1479 1.463 . S
C1482 N1486 1.427 . S
C1483 H1473 0.929 . S
C1483 C1481 1.433 . S
C1483 N1486 1.384 . S
C1484 H1475 0.929 . S
C1484 C1476 1.378 . S
C1484 C1479 1.350 . S
C1485 H1472 0.944 . S
C1485 C1477 1.433 . S
C1485 N1487 1.384 . S
N1486 C1482 1.427 . S
N1486 C1483 1.384 . S
N1487 C1479 1.427 . S
N1487 C1485 1.384 . S
H1488 C1494 0.930 . S
H1489 C1498 0.930 . S
H1490 C1503 0.929 . S
H1491 C1501 0.929 . S
H1492 C1496 0.929 . S
H1493 C1502 0.929 . S
C1494 H1488 0.930 . S
C1494 C1495 1.367 . S
C1494 C1502 1.378 . S
C1495 C1494 1.367 . S
C1495 C1503 1.433 . S
C1496 H1492 0.929 . S
C1496 C1498 1.378 . S
C1496 C1500 1.350 . S
C1497 C1500 1.463 . S
C1497 C1502 1.350 . S
C1497 N1505 1.427 . S
C1498 H1489 0.930 . S
C1498 C1496 1.378 . S
C1498 C1499 1.367 . S
C1499 C1498 1.367 . S
C1499 C1501 1.433 . S
C1500 C1496 1.350 . S
C1500 C1497 1.463 . S
C1500 N1504 1.427 . S
C1501 H1491 0.929 . S
C1501 C1499 1.433 . S
C1501 N1504 1.384 . S
C1502 H1493 0.929 . S
C1502 C1494 1.378 . S
C1502 C1497 1.350 . S
C1503 H1490 0.929 . S
C1503 C1495 1.433 . S
C1503 N1505 1.384 . S
N1504 C1500 1.427 . S
N1504 C1501 1.384 . S
N1505 C1497 1.427 . S
N1505 C1503 1.384 . S
H1506 C1512 0.930 . S
H1507 C1516 0.930 . S
H1508 C1521 0.929 1_455 S
H1509 C1519 0.929 . S
H1510 C1514 0.929 . S
H1511 C1520 0.929 . S
C1512 H1506 0.930 . S
C1512 C1513 1.367 . S
C1512 C1520 1.378 . S
C1513 C1512 1.367 . S
C1513 C1521 1.433 . S
C1514 H1510 0.929 . S
C1514 C1516 1.378 . S
C1514 C1518 1.350 . S
C1515 C1518 1.463 . S
C1515 C1520 1.350 . S
C1515 N1523 1.427 . S
C1516 H1507 0.930 . S
C1516 C1514 1.378 . S
C1516 C1517 1.367 . S
C1517 C1516 1.367 . S
C1517 C1519 1.433 . S
C1518 C1514 1.350 . S
C1518 C1515 1.463 . S
C1518 N1522 1.427 . S
C1519 H1509 0.929 . S
C1519 C1517 1.433 . S
C1519 N1522 1.384 . S
C1520 H1511 0.929 . S
C1520 C1512 1.378 . S
C1520 C1515 1.350 . S
C1521 H1508 0.929 1_655 S
C1521 C1513 1.433 . S
C1521 N1523 1.384 . S
N1522 C1518 1.427 . S
N1522 C1519 1.384 . S
N1523 C1515 1.427 . S
N1523 C1521 1.384 . S
H1524 C1530 0.930 . S
H1525 C1534 0.930 . S
H1526 C1539 0.929 . S
H1527 C1537 0.929 . S
H1528 C1532 0.929 . S
H1529 C1538 0.929 . S
C1530 H1524 0.930 . S
C1530 C1531 1.367 . S
C1530 C1538 1.378 . S
C1531 C1530 1.367 . S
C1531 C1539 1.433 . S
C1532 H1528 0.929 . S
C1532 C1534 1.378 . S
C1532 C1536 1.350 . S
C1533 C1536 1.463 . S
C1533 C1538 1.350 . S
C1533 N1541 1.427 . S
C1534 H1525 0.930 . S
C1534 C1532 1.378 . S
C1534 C1535 1.367 . S
C1535 C1534 1.367 . S
C1535 C1537 1.433 . S
C1536 C1532 1.350 . S
C1536 C1533 1.463 . S
C1536 N1540 1.427 . S
C1537 H1527 0.929 . S
C1537 C1535 1.433 . S
C1537 N1540 1.384 . S
C1538 H1529 0.929 . S
C1538 C1530 1.378 . S
C1538 C1533 1.350 . S
C1539 H1526 0.929 . S
C1539 C1531 1.433 . S
C1539 N1541 1.384 . S
N1540 C1536 1.427 . S
N1540 C1537 1.384 . S
N1541 C1533 1.427 . S
N1541 C1539 1.384 . S
H1542 C1548 0.930 . S
H1543 C1552 0.930 . S
H1544 C1557 0.929 . S
H1545 C1555 0.929 . S
H1546 C1550 0.929 . S
H1547 C1556 0.929 1_655 S
C1548 H1542 0.930 . S
C1548 C1549 1.367 1_655 S
C1548 C1556 1.378 1_655 S
C1549 C1548 1.367 1_455 S
C1549 C1557 1.433 . S
C1550 H1546 0.929 . S
C1550 C1552 1.378 . S
C1550 C1554 1.350 . S
C1551 C1554 1.463 . S
C1551 C1556 1.350 . S
C1551 N1559 1.427 . S
C1552 H1543 0.930 . S
C1552 C1550 1.378 . S
C1552 C1553 1.367 . S
C1553 C1552 1.367 . S
C1553 C1555 1.433 . S
C1554 C1550 1.350 . S
C1554 C1551 1.463 . S
C1554 N1558 1.427 . S
C1555 H1545 0.929 . S
C1555 C1553 1.433 . S
C1555 N1558 1.384 . S
C1556 H1547 0.929 1_455 S
C1556 C1548 1.378 1_455 S
C1556 C1551 1.350 . S
C1557 H1544 0.929 . S
C1557 C1549 1.433 . S
C1557 N1559 1.384 . S
N1558 C1554 1.427 . S
N1558 C1555 1.384 . S
N1559 C1551 1.427 . S
N1559 C1557 1.384 . S
H1560 C1566 0.930 . S
H1561 C1570 0.930 . S
H1562 C1575 0.929 . S
H1563 C1573 0.929 . S
H1564 C1568 0.929 . S
H1565 C1574 0.929 . S
C1566 H1560 0.930 . S
C1566 C1567 1.367 . S
C1566 C1574 1.378 . S
C1567 C1566 1.367 . S
C1567 C1575 1.433 . S
C1568 H1564 0.929 . S
C1568 C1570 1.378 . S
C1568 C1572 1.350 . S
C1569 C1572 1.463 . S
C1569 C1574 1.350 . S
C1569 N1577 1.427 . S
C1570 H1561 0.930 . S
C1570 C1568 1.378 . S
C1570 C1571 1.367 . S
C1571 C1570 1.367 . S
C1571 C1573 1.433 . S
C1572 C1568 1.350 . S
C1572 C1569 1.463 . S
C1572 N1576 1.427 . S
C1573 H1563 0.929 . S
C1573 C1571 1.433 . S
C1573 N1576 1.384 . S
C1574 H1565 0.929 . S
C1574 C1566 1.378 . S
C1574 C1569 1.350 . S
C1575 H1562 0.929 . S
C1575 C1567 1.433 . S
C1575 N1577 1.384 . S
N1576 C1572 1.427 . S
N1576 C1573 1.384 . S
N1577 C1569 1.427 . S
N1577 C1575 1.384 . S
H1578 C1584 0.930 . S
H1579 C1588 0.930 . S
H1580 C1593 0.929 . S
H1581 C1591 0.929 . S
H1582 C1586 0.929 . S
H1583 C1592 0.929 . S
C1584 H1578 0.930 . S
C1584 C1585 1.367 . S
C1584 C1592 1.378 . S
C1585 C1584 1.367 . S
C1585 C1593 1.433 . S
C1586 H1582 0.929 . S
C1586 C1588 1.378 . S
C1586 C1590 1.350 . S
C1587 C1590 1.463 . S
C1587 C1592 1.350 . S
C1587 N1595 1.427 . S
C1588 H1579 0.930 . S
C1588 C1586 1.378 . S
C1588 C1589 1.367 . S
C1589 C1588 1.367 . S
C1589 C1591 1.433 . S
C1590 C1586 1.350 . S
C1590 C1587 1.463 . S
C1590 N1594 1.427 . S
C1591 H1581 0.929 . S
C1591 C1589 1.433 . S
C1591 N1594 1.384 . S
C1592 H1583 0.929 . S
C1592 C1584 1.378 . S
C1592 C1587 1.350 . S
C1593 H1580 0.929 . S
C1593 C1585 1.433 . S
C1593 N1595 1.384 . S
N1594 C1590 1.427 . S
N1594 C1591 1.384 . S
N1595 C1587 1.427 . S
N1595 C1593 1.384 . S
H1596 C1602 0.930 . S
H1597 C1606 0.930 . S
H1598 C1611 0.929 . S
H1599 C1609 0.929 . S
H1600 C1604 0.929 . S
H1601 C1610 0.929 1_545 S
C1602 H1596 0.930 . S
C1602 C1603 1.367 1_545 S
C1602 C1610 1.378 1_545 S
C1603 C1602 1.367 1_565 S
C1603 C1611 1.433 . S
C1604 H1600 0.929 . S
C1604 C1606 1.378 . S
C1604 C1608 1.350 . S
C1605 C1608 1.463 . S
C1605 C1610 1.350 . S
C1605 N1613 1.427 . S
C1606 H1597 0.930 . S
C1606 C1604 1.378 . S
C1606 C1607 1.367 . S
C1607 C1606 1.367 . S
C1607 C1609 1.433 . S
C1608 C1604 1.350 . S
C1608 C1605 1.463 . S
C1608 N1612 1.427 . S
C1609 H1599 0.929 . S
C1609 C1607 1.433 . S
C1609 N1612 1.384 . S
C1610 H1601 0.929 1_565 S
C1610 C1602 1.378 1_565 S
C1610 C1605 1.350 . S
C1611 H1598 0.929 . S
C1611 C1603 1.433 . S
C1611 N1613 1.384 . S
N1612 C1608 1.427 . S
N1612 C1609 1.384 . S
N1613 C1605 1.427 . S
N1613 C1611 1.384 . S
H1614 C1620 0.930 . S
H1615 C1624 0.930 . S
H1616 C1629 0.929 . S
H1617 C1627 0.929 . S
H1618 C1622 0.929 . S
H1619 C1628 0.929 . S
C1620 H1614 0.930 . S
C1620 C1621 1.367 . S
C1620 C1628 1.378 . S
C1621 C1620 1.367 . S
C1621 C1629 1.433 . S
C1622 H1618 0.929 . S
C1622 C1624 1.378 . S
C1622 C1626 1.350 . S
C1623 C1626 1.463 . S
C1623 C1628 1.350 . S
C1623 N1631 1.427 . S
C1624 H1615 0.930 . S
C1624 C1622 1.378 . S
C1624 C1625 1.367 . S
C1625 C1624 1.367 . S
C1625 C1627 1.433 . S
C1626 C1622 1.350 . S
C1626 C1623 1.463 . S
C1626 N1630 1.427 . S
C1627 H1617 0.929 . S
C1627 C1625 1.433 . S
C1627 N1630 1.384 . S
C1628 H1619 0.929 . S
C1628 C1620 1.378 . S
C1628 C1623 1.350 . S
C1629 H1616 0.929 . S
C1629 C1621 1.433 . S
C1629 N1631 1.384 . S
N1630 C1626 1.427 . S
N1630 C1627 1.384 . S
N1631 C1623 1.427 . S
N1631 C1629 1.384 . S
H1632 C1638 0.930 . S
H1633 C1642 0.930 . S
H1634 C1647 0.929 . S
H1635 C1645 0.929 . S
H1636 C1640 0.929 . S
H1637 C1646 0.929 . S
C1638 H1632 0.930 . S
C1638 C1639 1.367 . S
C1638 C1646 1.378 . S
C1639 C1638 1.367 . S
C1639 C1647 1.433 . S
C1640 H1636 0.929 . S
C1640 C1642 1.378 . S
C1640 C1644 1.350 . S
C1641 C1644 1.463 . S
C1641 C1646 1.350 . S
C1641 N1649 1.427 . S
C1642 H1633 0.930 . S
C1642 C1640 1.378 . S
C1642 C1643 1.367 . S
C1643 C1642 1.367 . S
C1643 C1645 1.433 . S
C1644 C1640 1.350 . S
C1644 C1641 1.463 . S
C1644 N1648 1.427 . S
C1645 H1635 0.929 . S
C1645 C1643 1.433 . S
C1645 N1648 1.384 . S
C1646 H1637 0.929 . S
C1646 C1638 1.378 . S
C1646 C1641 1.350 . S
C1647 H1634 0.929 . S
C1647 C1639 1.433 . S
C1647 N1649 1.384 . S
N1648 C1644 1.427 . S
N1648 C1645 1.384 . S
N1649 C1641 1.427 . S
N1649 C1647 1.384 . S
H1650 C1656 0.930 . S
H1651 C1660 0.930 . S
H1652 C1665 0.929 1_556 S
H1653 C1663 0.929 . S
H1654 C1658 0.929 . S
H1655 C1664 0.929 . S
C1656 H1650 0.930 . S
C1656 C1657 1.367 . S
C1656 C1664 1.378 . S
C1657 C1656 1.367 . S
C1657 C1665 1.433 . S
C1658 H1654 0.929 . S
C1658 C1660 1.378 . S
C1658 C1662 1.350 . S
C1659 C1662 1.463 . S
C1659 C1664 1.350 . S
C1659 N1667 1.427 . S
C1660 H1651 0.930 . S
C1660 C1658 1.378 . S
C1660 C1661 1.367 . S
C1661 C1660 1.367 . S
C1661 C1663 1.433 . S
C1662 C1658 1.350 . S
C1662 C1659 1.463 . S
C1662 N1666 1.427 . S
C1663 H1653 0.929 . S
C1663 C1661 1.433 . S
C1663 N1666 1.384 . S
C1664 H1655 0.929 . S
C1664 C1656 1.378 . S
C1664 C1659 1.350 . S
C1665 H1652 0.929 1_554 S
C1665 C1657 1.433 . S
C1665 N1667 1.384 . S
N1666 C1662 1.427 . S
N1666 C1663 1.384 . S
N1667 C1659 1.427 . S
N1667 C1665 1.384 . S
H1668 C1674 0.930 . S
H1669 C1678 0.930 . S
H1670 C1683 0.929 . S
H1671 C1681 0.929 . S
H1672 C1676 0.929 . S
H1673 C1682 0.929 . S
C1674 H1668 0.930 . S
C1674 C1675 1.367 . S
C1674 C1682 1.378 . S
C1675 C1674 1.367 . S
C1675 C1683 1.433 . S
C1676 H1672 0.929 . S
C1676 C1678 1.378 . S
C1676 C1680 1.350 . S
C1677 C1680 1.463 . S
C1677 C1682 1.350 . S
C1677 N1685 1.427 . S
C1678 H1669 0.930 . S
C1678 C1676 1.378 . S
C1678 C1679 1.367 . S
C1679 C1678 1.367 . S
C1679 C1681 1.433 . S
C1680 C1676 1.350 . S
C1680 C1677 1.463 . S
C1680 N1684 1.427 . S
C1681 H1671 0.929 . S
C1681 C1679 1.433 . S
C1681 N1684 1.384 . S
C1682 H1673 0.929 . S
C1682 C1674 1.378 . S
C1682 C1677 1.350 . S
C1683 H1670 0.929 . S
C1683 C1675 1.433 . S
C1683 N1685 1.384 . S
N1684 C1680 1.427 . S
N1684 C1681 1.384 . S
N1685 C1677 1.427 . S
N1685 C1683 1.384 . S
H1686 C1692 0.930 1_554 S
H1687 C1696 0.930 . S
H1688 C1701 0.929 . S
H1689 C1699 0.929 . S
H1690 C1694 0.929 . S
H1691 C1700 0.929 . S
C1692 H1686 0.930 1_556 S
C1692 C1693 1.367 . S
C1692 C1700 1.378 . S
C1693 C1692 1.367 . S
C1693 C1701 1.433 . S
C1694 H1690 0.929 . S
C1694 C1696 1.378 . S
C1694 C1698 1.350 . S
C1695 C1698 1.463 . S
C1695 C1700 1.350 . S
C1695 N1703 1.427 . S
C1696 H1687 0.930 . S
C1696 C1694 1.378 . S
C1696 C1697 1.367 . S
C1697 C1696 1.367 . S
C1697 C1699 1.433 . S
C1698 C1694 1.350 . S
C1698 C1695 1.463 . S
C1698 N1702 1.427 . S
C1699 H1689 0.929 . S
C1699 C1697 1.433 . S
C1699 N1702 1.384 . S
C1700 H1691 0.929 . S
C1700 C1692 1.378 . S
C1700 C1695 1.350 . S
C1701 H1688 0.929 . S
C1701 C1693 1.433 . S
C1701 N1703 1.384 . S
N1702 C1698 1.427 . S
N1702 C1699 1.384 . S
N1703 C1695 1.427 . S
N1703 C1701 1.384 . S
H1704 C1710 0.930 . S
H1705 C1714 0.930 . S
H1706 C1719 0.929 . S
H1707 C1717 0.929 . S
H1708 C1712 0.929 . S
H1709 C1718 0.929 . S
C1710 H1704 0.930 . S
C1710 C1711 1.367 . S
C1710 C1718 1.378 . S
C1711 C1710 1.367 . S
C1711 C1719 1.433 . S
C1712 H1708 0.929 . S
C1712 C1714 1.378 . S
C1712 C1716 1.350 . S
C1713 C1716 1.463 . S
C1713 C1718 1.350 . S
C1713 N1721 1.427 . S
C1714 H1705 0.930 . S
C1714 C1712 1.378 . S
C1714 C1715 1.367 . S
C1715 C1714 1.367 . S
C1715 C1717 1.433 . S
C1716 C1712 1.350 . S
C1716 C1713 1.463 . S
C1716 N1720 1.427 . S
C1717 H1707 0.929 . S
C1717 C1715 1.433 . S
C1717 N1720 1.384 . S
C1718 H1709 0.929 . S
C1718 C1710 1.378 . S
C1718 C1713 1.350 . S
C1719 H1706 0.929 . S
C1719 C1711 1.433 . S
C1719 N1721 1.384 . S
N1720 C1716 1.427 . S
N1720 C1717 1.384 . S
N1721 C1713 1.427 . S
N1721 C1719 1.384 . S
H1722 C1728 0.930 1_655 S
H1723 C1732 0.930 . S
H1724 C1737 0.929 . S
H1725 C1735 0.929 . S
H1726 C1730 0.929 . S
H1727 C1736 0.929 . S
C1728 H1722 0.930 1_455 S
C1728 C1729 1.367 . S
C1728 C1736 1.378 . S
C1729 C1728 1.367 . S
C1729 C1737 1.433 . S
C1730 H1726 0.929 . S
C1730 C1732 1.378 . S
C1730 C1734 1.350 . S
C1731 C1734 1.463 . S
C1731 C1736 1.350 . S
C1731 N1739 1.427 . S
C1732 H1723 0.930 . S
C1732 C1730 1.378 . S
C1732 C1733 1.367 . S
C1733 C1732 1.367 . S
C1733 C1735 1.433 . S
C1734 C1730 1.350 . S
C1734 C1731 1.463 . S
C1734 N1738 1.427 . S
C1735 H1725 0.929 . S
C1735 C1733 1.433 . S
C1735 N1738 1.384 . S
C1736 H1727 0.929 . S
C1736 C1728 1.378 . S
C1736 C1731 1.350 . S
C1737 H1724 0.929 . S
C1737 C1729 1.433 . S
C1737 N1739 1.384 . S
N1738 C1734 1.427 . S
N1738 C1735 1.384 . S
N1739 C1731 1.427 . S
N1739 C1737 1.384 . S
H1740 C1746 0.930 . S
H1741 C1750 0.930 . S
H1742 C1755 0.929 . S
H1743 C1753 0.929 . S
H1744 C1748 0.929 . S
H1745 C1754 0.929 . S
C1746 H1740 0.930 . S
C1746 C1747 1.367 . S
C1746 C1754 1.378 . S
C1747 C1746 1.367 . S
C1747 C1755 1.433 . S
C1748 H1744 0.929 . S
C1748 C1750 1.378 . S
C1748 C1752 1.350 . S
C1749 C1752 1.463 . S
C1749 C1754 1.350 . S
C1749 N1757 1.427 . S
C1750 H1741 0.930 . S
C1750 C1748 1.378 . S
C1750 C1751 1.367 . S
C1751 C1750 1.367 . S
C1751 C1753 1.433 . S
C1752 C1748 1.350 . S
C1752 C1749 1.463 . S
C1752 N1756 1.427 . S
C1753 H1743 0.929 . S
C1753 C1751 1.433 . S
C1753 N1756 1.384 . S
C1754 H1745 0.929 . S
C1754 C1746 1.378 . S
C1754 C1749 1.350 . S
C1755 H1742 0.929 . S
C1755 C1747 1.433 . S
C1755 N1757 1.384 . S
N1756 C1752 1.427 . S
N1756 C1753 1.384 . S
N1757 C1749 1.427 . S
N1757 C1755 1.384 . S
H1758 C1764 0.963 . S
H1759 C1768 0.930 . S
H1760 C1773 0.929 . S
H1761 C1771 0.929 . S
H1762 C1766 0.929 . S
H1763 C1772 0.921 1_455 S
C1764 H1758 0.963 . S
C1764 C1765 1.348 1_455 S
C1764 C1772 1.366 1_455 S
C1765 C1764 1.348 1_655 S
C1765 C1773 1.433 . S
C1766 H1762 0.929 . S
C1766 C1768 1.378 . S
C1766 C1770 1.350 . S
C1767 C1770 1.463 . S
C1767 C1772 1.350 . S
C1767 N1775 1.427 . S
C1768 H1759 0.930 . S
C1768 C1766 1.378 . S
C1768 C1769 1.367 . S
C1769 C1768 1.367 . S
C1769 C1771 1.433 . S
C1770 C1766 1.350 . S
C1770 C1767 1.463 . S
C1770 N1774 1.427 . S
C1771 H1761 0.929 . S
C1771 C1769 1.433 . S
C1771 N1774 1.384 . S
C1772 H1763 0.921 1_655 S
C1772 C1764 1.366 1_655 S
C1772 C1767 1.350 . S
C1773 H1760 0.929 . S
C1773 C1765 1.433 . S
C1773 N1775 1.384 . S
N1774 C1770 1.427 . S
N1774 C1771 1.384 . S
N1775 C1767 1.427 . S
N1775 C1773 1.384 . S
C491 C475 1.805 . S
C487 C8 1.781 . S
C509 C448 1.554 . S
C505 C19 1.502 . S
C527 C466 1.409 . S
C523 C30 1.400 . S
C545 C457 1.973 . S
C541 C41 1.939 . S
C563 C394 1.806 . S
C559 C52 1.784 . S
C577 C63 1.936 . S
C581 C403 1.975 . S
C599 C376 1.553 . S
C595 C74 1.503 . S
C613 C85 1.393 . S
C617 C385 1.408 . S
C635 C439 1.802 . S
C631 C96 1.781 . S
C649 C107 1.935 . S
C653 C421 1.977 . S
C667 C118 1.489 . S
C671 C412 1.553 . S
C689 C430 1.404 . S
C685 C129 1.394 . S
C707 C367 1.805 . S
C703 C140 1.733 . S
C721 C151 1.414 . S
C725 C340 1.553 . S
C743 C358 1.410 . S
C739 C162 1.336 . S
C757 C173 1.866 . S
C761 C349 1.975 . S
C779 C286 1.802 . S
C775 C184 1.737 . S
C797 C295 1.974 . S
C793 C195 1.867 . S
C811 C206 1.425 . S
C815 C268 1.555 . S
C829 C217 1.349 . S
C833 C277 1.402 . S
C847 C228 1.741 . S
C851 C331 1.806 . S
C865 C239 1.852 . S
C869 C313 1.975 . S
C887 C304 1.552 . S
C883 C250 1.434 . S
C901 C261 1.354 . S
C905 C322 1.404 . S
C923 C269 1.201 . S
C919 C7 1.215 . S
C941 C278 1.138 . S
C937 C18 1.152 . S
C955 C29 1.190 . S
C959 C287 1.192 . S
C973 C40 1.022 . S
C977 C296 1.020 . S
C995 C305 1.207 . S
C991 C51 1.210 . S
C1009 C62 1.027 . S
C1013 C314 1.023 . S
C1031 C323 1.148 . S
C1027 C73 1.150 . S
C1049 C332 1.186 . S
C1045 C84 1.195 . S
C1067 C341 1.204 . S
C1063 C95 1.212 . S
C1081 C106 1.025 . S
C1085 C350 1.025 . S
C1099 C117 1.161 . S
C1103 C359 1.140 . S
C1117 C128 1.194 . S
C1121 C368 1.182 . S
C1135 C139 1.129 . S
C1139 C377 1.206 . S
C1153 C150 1.067 . S
C1157 C386 1.148 . S
C1171 C161 1.120 . S
C1175 C395 1.191 . S
C1189 C172 0.972 . S
C1193 C404 1.024 . S
C1207 C183 1.148 . S
C1211 C413 1.207 . S
C1229 C422 1.027 . S
C1225 C194 0.972 . S
C1247 C431 1.155 . S
C1243 C205 1.056 . S
C1265 C440 1.188 . S
C1261 C216 1.116 . S
C1283 C449 1.210 . S
C1279 C227 1.134 . S
C1297 C238 0.953 . S
C1301 C458 1.029 . S
C1315 C249 1.056 . S
C1319 C467 1.142 . S
C1333 C260 1.119 . S
C1337 C476 1.194 . S
C1351 C5 1.462 . S
C1355 C343 1.674 . S
C1373 C370 1.604 . S
C1369 C16 1.442 . S
C1387 C27 1.245 1_545 S
C1391 C352 1.341 . S
C1409 C361 1.980 . S
C1405 C38 1.793 1_565 S
C1423 C49 1.462 . S
C1427 C271 1.674 . S
C1441 C60 1.781 1_556 S
C1445 C280 1.973 . S
C1459 C71 1.433 . S
C1463 C289 1.596 . S
C1477 C82 1.240 1_554 S
C1481 C298 1.340 . S
C1499 C307 1.678 . S
C1495 C93 1.483 . S
C1517 C325 1.974 . S
C1513 C104 1.792 1_655 S
C1531 C115 1.423 . S
C1535 C334 1.590 . S
C1549 C126 1.220 1_455 S
C1553 C316 1.332 . S
C1571 C451 1.683 . S
C1567 C137 1.259 . S
C1589 C478 1.604 . S
C1585 C148 1.096 . S
C1603 C159 1.013 . S
C1607 C460 1.335 . S
C1625 C469 1.985 . S
C1621 C170 1.435 . S
C1639 C181 1.245 . S
C1643 C379 1.677 . S
C1657 C192 1.415 . S
C1661 C388 1.983 . S
C1675 C203 1.093 . S
C1679 C397 1.597 . S
C1697 C406 1.346 . S
C1693 C214 1.016 . S
C1715 C415 1.683 . S
C1711 C225 1.258 . S
C1733 C433 1.979 . S
C1729 C236 1.417 . S
C1747 C247 1.088 . S
C1751 C442 1.596 . S
C1769 C424 1.340 . S
C1765 C258 0.996 . S
