# Generated by pormake.
# Topology pto, (3,4)-cn, num edge types: 1
# Building blocks:
#     Node 0, Type 0, BuildingBlock: WUSLED_clean_sbu_0, # of connection points: 3
#     Node 1, Type 0, BuildingBlock: WUSLED_clean_sbu_0, # of connection points: 3
#     Node 2, Type 0, BuildingBlock: WUSLED_clean_sbu_0, # of connection points: 3
#     Node 3, Type 0, BuildingBlock: WUSLED_clean_sbu_0, # of connection points: 3
#     Node 4, Type 0, BuildingBlock: WUSLED_clean_sbu_0, # of connection points: 3
#     Node 5, Type 0, BuildingBlock: WUSLED_clean_sbu_0, # of connection points: 3
#     Node 6, Type 0, BuildingBlock: WUSLED_clean_sbu_0, # of connection points: 3
#     Node 7, Type 0, BuildingBlock: WUSLED_clean_sbu_0, # of connection points: 3
#     Node 8, Type 1, BuildingBlock: MUDLON_clean_linker_0, # of connection points: 4
#     Node 9, Type 1, BuildingBlock: MUDLON_clean_linker_0, # of connection points: 4
#     Node 10, Type 1, BuildingBlock: MUDLON_clean_linker_0, # of connection points: 4
#     Node 11, Type 1, BuildingBlock: MUDLON_clean_linker_0, # of connection points: 4
#     Node 12, Type 1, BuildingBlock: MUDLON_clean_linker_0, # of connection points: 4
#     Node 13, Type 1, BuildingBlock: MUDLON_clean_linker_0, # of connection points: 4
#     Edge 14, Type (0, 1), BuildingBlock: MIFKUJ_clean_linker_0, # of connection points: 2
#     Edge 15, Type (0, 1), BuildingBlock: MIFKUJ_clean_linker_0, # of connection points: 2
#     Edge 16, Type (0, 1), BuildingBlock: MIFKUJ_clean_linker_0, # of connection points: 2
#     Edge 17, Type (0, 1), BuildingBlock: MIFKUJ_clean_linker_0, # of connection points: 2
#     Edge 18, Type (0, 1), BuildingBlock: MIFKUJ_clean_linker_0, # of connection points: 2
#     Edge 19, Type (0, 1), BuildingBlock: MIFKUJ_clean_linker_0, # of connection points: 2
#     Edge 20, Type (0, 1), BuildingBlock: MIFKUJ_clean_linker_0, # of connection points: 2
#     Edge 21, Type (0, 1), BuildingBlock: MIFKUJ_clean_linker_0, # of connection points: 2
#     Edge 22, Type (0, 1), BuildingBlock: MIFKUJ_clean_linker_0, # of connection points: 2
#     Edge 23, Type (0, 1), BuildingBlock: MIFKUJ_clean_linker_0, # of connection points: 2
#     Edge 24, Type (0, 1), BuildingBlock: MIFKUJ_clean_linker_0, # of connection points: 2
#     Edge 25, Type (0, 1), BuildingBlock: MIFKUJ_clean_linker_0, # of connection points: 2
#     Edge 26, Type (0, 1), BuildingBlock: MIFKUJ_clean_linker_0, # of connection points: 2
#     Edge 27, Type (0, 1), BuildingBlock: MIFKUJ_clean_linker_0, # of connection points: 2
#     Edge 28, Type (0, 1), BuildingBlock: MIFKUJ_clean_linker_0, # of connection points: 2
#     Edge 29, Type (0, 1), BuildingBlock: MIFKUJ_clean_linker_0, # of connection points: 2
#     Edge 30, Type (0, 1), BuildingBlock: MIFKUJ_clean_linker_0, # of connection points: 2
#     Edge 31, Type (0, 1), BuildingBlock: MIFKUJ_clean_linker_0, # of connection points: 2
#     Edge 32, Type (0, 1), BuildingBlock: MIFKUJ_clean_linker_0, # of connection points: 2
#     Edge 33, Type (0, 1), BuildingBlock: MIFKUJ_clean_linker_0, # of connection points: 2
#     Edge 34, Type (0, 1), BuildingBlock: MIFKUJ_clean_linker_0, # of connection points: 2
#     Edge 35, Type (0, 1), BuildingBlock: MIFKUJ_clean_linker_0, # of connection points: 2
#     Edge 36, Type (0, 1), BuildingBlock: MIFKUJ_clean_linker_0, # of connection points: 2
#     Edge 37, Type (0, 1), BuildingBlock: MIFKUJ_clean_linker_0, # of connection points: 2
# Relax obj value: 0.005
# Max RMSD: 0.037
# Mean RMSD: 0.021
data_MOF--net-pto--node1-WUSLED_clean_sbu_0--node2-MUDLON_clean_linker_0--edge1-MIFKUJ_clean_linker_0
_symmetry_space_group_name_H-M    P1
_symmetry_Int_Tables_number       1
_symmetry_cell_setting            triclinic
loop_
_symmetry_equiv_pos_as_xyz
'x, y, z'
_cell_length_a     58.41916
_cell_length_b     97.417078
_cell_length_c     78.771693
_cell_angle_alpha  89.584073
_cell_angle_beta   90.742164
_cell_angle_gamma 90.47689
loop_
_atom_site_label
_atom_site_type_symbol
_atom_site_fract_x
_atom_site_fract_y
_atom_site_fract_z
_atom_type_partial_charge
C0 C 0.23221 0.2417 0.35284 0.0
C1 C 0.23505 0.22963 0.34349 0.0
C2 C 0.22867 0.21582 0.36892 0.0
C3 C 0.23317 0.21679 0.35145 0.0
C4 C 0.2261 0.22796 0.37825 0.0
C5 C 0.22782 0.24079 0.37025 0.0
U6 U 0.25326 0.26495 0.31713 0.0
O7 O 0.23559 0.28137 0.30297 0.0
O8 O 0.26665 0.28612 0.31783 0.0
C9 C 0.24929 0.291 0.30894 0.0
C10 C 0.23385 0.25529 0.34464 0.0
C11 C 0.2377 0.30285 0.31631 0.0
C12 C 0.21754 0.31349 0.33951 0.0
C13 C 0.2292 0.30229 0.33288 0.0
C14 C 0.2228 0.32593 0.31308 0.0
C15 C 0.21407 0.32543 0.32966 0.0
C16 C 0.23451 0.31474 0.30649 0.0
C17 C 0.28918 0.24946 0.28192 0.0
C18 C 0.30751 0.26318 0.26 0.0
C19 C 0.3081 0.23834 0.25854 0.0
C20 C 0.2957 0.23751 0.27356 0.0
C21 C 0.31426 0.25118 0.25159 0.0
C22 C 0.29504 0.26232 0.27503 0.0
C23 C 0.27633 0.24831 0.29778 0.0
O24 O 0.25439 0.2609 0.34467 0.0
O25 O 0.22303 0.25652 0.32997 0.0
O26 O 0.25411 0.25003 0.2963 0.0
O27 O 0.28542 0.25467 0.31093 0.0
H28 H 0.23867 0.23014 0.33005 0.0
H29 H 0.23551 0.20763 0.34398 0.0
H30 H 0.22241 0.22755 0.39168 0.0
H31 H 0.22562 0.25 0.37766 0.0
H32 H 0.21132 0.31281 0.35238 0.0
H33 H 0.23147 0.29315 0.34063 0.0
H34 H 0.22015 0.33485 0.30503 0.0
H35 H 0.24083 0.31531 0.29363 0.0
H36 H 0.31216 0.27322 0.25512 0.0
H37 H 0.31266 0.22891 0.25227 0.0
H38 H 0.29118 0.2275 0.27867 0.0
H39 H 0.29009 0.27167 0.28134 0.0
C40 C 0.22747 0.78583 0.66127 0.0
C41 C 0.23213 0.79795 0.67024 0.0
C42 C 0.22257 0.81162 0.64512 0.0
C43 C 0.22966 0.81074 0.66225 0.0
C44 C 0.21827 0.79939 0.63617 0.0
C45 C 0.22067 0.78663 0.64419 0.0
U46 U 0.24964 0.76268 0.69704 0.0
O47 O 0.23255 0.74591 0.71086 0.0
O48 O 0.26316 0.74166 0.69598 0.0
C49 C 0.24609 0.7365 0.70473 0.0
C50 C 0.22956 0.77229 0.66949 0.0
C51 C 0.23443 0.72455 0.69715 0.0
C52 C 0.20495 0.71477 0.67873 0.0
C53 C 0.21643 0.72623 0.68538 0.0
C54 C 0.22977 0.69982 0.69523 0.0
C55 C 0.21137 0.70141 0.68368 0.0
C56 C 0.24115 0.71129 0.70192 0.0
C57 C 0.28594 0.77795 0.73293 0.0
C58 C 0.30061 0.76405 0.75632 0.0
C59 C 0.30777 0.78859 0.75578 0.0
C60 C 0.29568 0.78965 0.74041 0.0
C61 C 0.31033 0.77579 0.76396 0.0
C62 C 0.28847 0.76513 0.74094 0.0
C63 C 0.27302 0.77933 0.71691 0.0
O64 O 0.25019 0.76701 0.66958 0.0
O65 O 0.2191 0.77089 0.68409 0.0
O66 O 0.2508 0.77742 0.71804 0.0
O67 O 0.28193 0.7732 0.70376 0.0
H68 H 0.2375 0.79751 0.68345 0.0
H69 H 0.23293 0.81994 0.66956 0.0
H70 H 0.21322 0.79966 0.6229 0.0
H71 H 0.21717 0.77737 0.63704 0.0
H72 H 0.19072 0.7164 0.67003 0.0
H73 H 0.21105 0.73642 0.6815 0.0
H74 H 0.23543 0.6897 0.6991 0.0
H75 H 0.25512 0.70981 0.71091 0.0
H76 H 0.3021 0.75407 0.76236 0.0
H77 H 0.31535 0.7978 0.76116 0.0
H78 H 0.29392 0.79962 0.73436 0.0
H79 H 0.28097 0.75599 0.73533 0.0
C80 C 0.73663 0.77779 0.28515 0.0
C81 C 0.7328 0.76479 0.27805 0.0
C82 C 0.70995 0.77504 0.25524 0.0
C83 C 0.71955 0.76343 0.26323 0.0
C84 C 0.71396 0.78805 0.26244 0.0
C85 C 0.72717 0.78939 0.27726 0.0
U86 U 0.77658 0.76299 0.31899 0.0
O87 O 0.80743 0.77199 0.33096 0.0
O88 O 0.77798 0.7662 0.34657 0.0
C89 C 0.79805 0.7724 0.34601 0.0
C90 C 0.75063 0.77939 0.30064 0.0
C91 C 0.79956 0.78572 0.35464 0.0
C92 C 0.78451 0.80839 0.36036 0.0
C93 C 0.78296 0.79585 0.35184 0.0
C94 C 0.8195 0.80089 0.37428 0.0
C95 C 0.80275 0.81105 0.37176 0.0
C96 C 0.81787 0.78835 0.36582 0.0
C97 C 0.79355 0.72524 0.31645 0.0
C98 C 0.8171 0.71404 0.338 0.0
C99 C 0.80596 0.70178 0.3125 0.0
C100 C 0.79399 0.71329 0.30669 0.0
C101 C 0.8177 0.70202 0.32821 0.0
C102 C 0.80516 0.72558 0.33215 0.0
C103 C 0.78107 0.73726 0.30999 0.0
O104 O 0.74324 0.77266 0.31405 0.0
O105 O 0.77282 0.77833 0.29853 0.0
O106 O 0.79389 0.74729 0.304 0.0
O107 O 0.76439 0.74158 0.31958 0.0
H108 H 0.74003 0.75572 0.284 0.0
H109 H 0.7166 0.75325 0.25816 0.0
H110 H 0.70713 0.79722 0.25648 0.0
H111 H 0.73009 0.79951 0.28253 0.0
H112 H 0.7712 0.8159 0.35822 0.0
H113 H 0.76873 0.79402 0.34317 0.0
H114 H 0.834 0.80266 0.38271 0.0
H115 H 0.83093 0.78068 0.36803 0.0
H116 H 0.82616 0.71461 0.35006 0.0
H117 H 0.80582 0.69264 0.30476 0.0
H118 H 0.78507 0.71286 0.29456 0.0
H119 H 0.80505 0.73477 0.33981 0.0
C120 C 0.76571 0.21987 0.68889 0.0
C121 C 0.78007 0.22195 0.67496 0.0
C122 C 0.77454 0.1981 0.66654 0.0
C123 C 0.78447 0.21115 0.66388 0.0
C124 C 0.76008 0.19613 0.68051 0.0
C125 C 0.75573 0.20693 0.69158 0.0
U126 U 0.77266 0.25707 0.70313 0.0
O127 O 0.7475 0.27105 0.71405 0.0
O128 O 0.77819 0.26538 0.72875 0.0
C129 C 0.75832 0.2716 0.72876 0.0
C130 C 0.76112 0.23104 0.70077 0.0
C131 C 0.74418 0.26887 0.74371 0.0
C132 C 0.72054 0.25352 0.76063 0.0
C133 C 0.73386 0.25598 0.74626 0.0
C134 C 0.72783 0.27681 0.77001 0.0
C135 C 0.71734 0.26392 0.77266 0.0
C136 C 0.74112 0.27924 0.75565 0.0
C137 C 0.80859 0.28248 0.67756 0.0
C138 C 0.80693 0.30728 0.68056 0.0
C139 C 0.83968 0.29689 0.66731 0.0
C140 C 0.82985 0.2839 0.66968 0.0
C141 C 0.82833 0.30873 0.67273 0.0
C142 C 0.79721 0.29426 0.68305 0.0
C143 C 0.79881 0.26865 0.68019 0.0
O144 O 0.77891 0.23542 0.70962 0.0
O145 O 0.7484 0.24104 0.69469 0.0
O146 O 0.77643 0.26757 0.67852 0.0
O147 O 0.807 0.26188 0.69339 0.0
H148 H 0.78788 0.23191 0.67268 0.0
H149 H 0.79546 0.21305 0.65313 0.0
H150 H 0.75241 0.18618 0.68307 0.0
H151 H 0.74464 0.20515 0.70232 0.0
H152 H 0.71251 0.24354 0.76218 0.0
H153 H 0.73608 0.24785 0.73713 0.0
H154 H 0.72602 0.28497 0.77913 0.0
H155 H 0.74909 0.28923 0.7539 0.0
H156 H 0.79792 0.3162 0.68503 0.0
H157 H 0.85607 0.29769 0.66109 0.0
H158 H 0.83891 0.27493 0.66538 0.0
H159 H 0.78086 0.29339 0.68933 0.0
C160 C 0.79528 0.72413 0.70547 0.0
C161 C 0.80218 0.72395 0.68848 0.0
C162 C 0.81695 0.70077 0.69233 0.0
C163 C 0.81287 0.71235 0.68195 0.0
C164 C 0.80999 0.70107 0.70936 0.0
C165 C 0.79924 0.71264 0.71585 0.0
U166 U 0.78017 0.76219 0.70396 0.0
O167 O 0.74821 0.77258 0.71035 0.0
O168 O 0.77977 0.77727 0.72465 0.0
C169 C 0.7575 0.7789 0.72345 0.0
C170 C 0.78426 0.73625 0.71264 0.0
C171 C 0.74499 0.77751 0.73944 0.0
C172 C 0.72535 0.76347 0.76041 0.0
C173 C 0.73781 0.76459 0.74541 0.0
C174 C 0.72762 0.78815 0.76383 0.0
C175 C 0.72003 0.77526 0.76975 0.0
C176 C 0.73996 0.78926 0.74879 0.0
C177 C 0.7997 0.78493 0.6673 0.0
C178 C 0.79576 0.80975 0.66758 0.0
C179 C 0.80634 0.79828 0.64167 0.0
C180 C 0.80546 0.78562 0.65011 0.0
C181 C 0.80152 0.81049 0.6503 0.0
C182 C 0.79477 0.79706 0.67599 0.0
C183 C 0.79863 0.7715 0.67591 0.0
O184 O 0.79833 0.74591 0.71805 0.0
O185 O 0.76666 0.74106 0.70397 0.0
O186 O 0.7782 0.76577 0.67636 0.0
O187 O 0.80987 0.77064 0.69044 0.0
H188 H 0.7993 0.73276 0.68029 0.0
H189 H 0.81776 0.71243 0.66874 0.0
H190 H 0.8132 0.69245 0.7178 0.0
H191 H 0.79415 0.71265 0.72903 0.0
H192 H 0.71997 0.75339 0.76474 0.0
H193 H 0.74171 0.75538 0.7384 0.0
H194 H 0.72358 0.79743 0.77063 0.0
H195 H 0.74539 0.79931 0.74436 0.0
H196 H 0.79171 0.81895 0.67452 0.0
H197 H 0.81108 0.79852 0.62842 0.0
H198 H 0.8093 0.77635 0.64321 0.0
H199 H 0.79009 0.7967 0.68926 0.0
C200 C 0.73486 0.24704 0.28443 0.0
C201 C 0.73422 0.25963 0.27567 0.0
C202 C 0.70835 0.24975 0.25444 0.0
C203 C 0.72108 0.26097 0.26078 0.0
C204 C 0.709 0.23719 0.26338 0.0
C205 C 0.72216 0.23586 0.27823 0.0
U206 U 0.77444 0.26168 0.31874 0.0
O207 O 0.77652 0.25718 0.34609 0.0
O208 O 0.80597 0.25308 0.32993 0.0
C209 C 0.79693 0.25169 0.34504 0.0
C210 C 0.74902 0.24536 0.29983 0.0
C211 C 0.79934 0.23805 0.35291 0.0
C212 C 0.78709 0.21427 0.35605 0.0
C213 C 0.78468 0.22717 0.34832 0.0
C214 C 0.81902 0.22298 0.37284 0.0
C215 C 0.80429 0.21203 0.36841 0.0
C216 C 0.81653 0.23587 0.36516 0.0
C217 C 0.79034 0.2997 0.31847 0.0
C218 C 0.82298 0.30918 0.33397 0.0
C219 C 0.79403 0.32435 0.32227 0.0
C220 C 0.78195 0.313 0.31592 0.0
C221 C 0.8148 0.32257 0.33121 0.0
C222 C 0.81079 0.29784 0.32773 0.0
C223 C 0.77777 0.28791 0.31128 0.0
O224 O 0.77113 0.2471 0.29768 0.0
O225 O 0.74141 0.25143 0.31347 0.0
O226 O 0.76145 0.28276 0.3208 0.0
O227 O 0.79045 0.27847 0.30427 0.0
H228 H 0.74392 0.26838 0.28033 0.0
H229 H 0.72074 0.27082 0.25431 0.0
H230 H 0.69964 0.22831 0.25873 0.0
H231 H 0.72256 0.22606 0.28482 0.0
H232 H 0.77564 0.20602 0.35223 0.0
H233 H 0.77139 0.22867 0.33878 0.0
H234 H 0.83224 0.22164 0.38247 0.0
H235 H 0.82797 0.24416 0.36886 0.0
H236 H 0.83877 0.30748 0.34099 0.0
H237 H 0.7874 0.33454 0.31984 0.0
H238 H 0.76616 0.31462 0.30884 0.0
H239 H 0.81744 0.28763 0.33 0.0
C240 C 0.23069 0.23969 0.65938 0.0
C241 C 0.23297 0.22757 0.66899 0.0
C242 C 0.2291 0.2139 0.64334 0.0
C243 C 0.23206 0.21478 0.66105 0.0
C244 C 0.22707 0.22608 0.63376 0.0
C245 C 0.22781 0.23886 0.64173 0.0
U246 U 0.25008 0.26292 0.69553 0.0
O247 O 0.2628 0.28423 0.69515 0.0
O248 O 0.23165 0.27898 0.70914 0.0
C249 C 0.24525 0.28882 0.70365 0.0
C250 C 0.23152 0.25324 0.66753 0.0
C251 C 0.23361 0.30079 0.69623 0.0
C252 C 0.21311 0.31189 0.67294 0.0
C253 C 0.2246 0.30048 0.67964 0.0
C254 C 0.21954 0.324 0.69937 0.0
C255 C 0.21038 0.32379 0.68276 0.0
C256 C 0.23105 0.3126 0.70602 0.0
C257 C 0.28608 0.24797 0.73181 0.0
C258 C 0.30535 0.26211 0.75297 0.0
C259 C 0.30351 0.23742 0.75675 0.0
C260 C 0.2913 0.23625 0.74145 0.0
C261 C 0.31077 0.25035 0.76265 0.0
C262 C 0.29302 0.26093 0.7377 0.0
C263 C 0.2735 0.2465 0.71564 0.0
O264 O 0.22039 0.2542 0.68187 0.0
O265 O 0.25179 0.25919 0.66803 0.0
O266 O 0.28247 0.25296 0.70258 0.0
O267 O 0.25119 0.24786 0.7165 0.0
H268 H 0.23546 0.228 0.68263 0.0
H269 H 0.23394 0.20558 0.66873 0.0
H270 H 0.22456 0.22573 0.62012 0.0
H271 H 0.22608 0.24811 0.63411 0.0
H272 H 0.20649 0.31143 0.66005 0.0
H273 H 0.2264 0.29141 0.67191 0.0
H274 H 0.21743 0.33287 0.70739 0.0
H275 H 0.23778 0.31297 0.71889 0.0
H276 H 0.31049 0.27223 0.75727 0.0
H277 H 0.30765 0.22816 0.76381 0.0
H278 H 0.28606 0.22616 0.73707 0.0
H279 H 0.28897 0.27012 0.73046 0.0
C280 C 0.21904 0.7415 0.34347 0.0
C281 C 0.23013 0.72943 0.33863 0.0
C282 C 0.19764 0.71571 0.34819 0.0
C283 C 0.21956 0.71663 0.34106 0.0
C284 C 0.1866 0.72784 0.35294 0.0
C285 C 0.19724 0.74061 0.35063 0.0
U286 U 0.25862 0.76602 0.31943 0.0
O287 O 0.25383 0.78761 0.31206 0.0
O288 O 0.28232 0.78194 0.32907 0.0
C289 C 0.27052 0.79196 0.32206 0.0
C290 C 0.22971 0.7551 0.34099 0.0
C291 C 0.2648 0.80333 0.33341 0.0
C292 C 0.23848 0.81462 0.35233 0.0
C293 C 0.24377 0.80361 0.34182 0.0
C294 C 0.27536 0.82504 0.34643 0.0
C295 C 0.25419 0.8255 0.35475 0.0
C296 C 0.28057 0.81406 0.33585 0.0
C297 C 0.29091 0.75341 0.28086 0.0
C298 C 0.31165 0.76889 0.26212 0.0
C299 C 0.31375 0.74429 0.2581 0.0
C300 C 0.29931 0.7422 0.2719 0.0
C301 C 0.32002 0.75766 0.25299 0.0
C302 C 0.29725 0.76677 0.27597 0.0
C303 C 0.27529 0.751 0.29506 0.0
O304 O 0.25191 0.75586 0.34389 0.0
O305 O 0.22318 0.76174 0.3272 0.0
O306 O 0.25554 0.75731 0.29385 0.0
O307 O 0.28465 0.75172 0.3103 0.0
H308 H 0.24689 0.7299 0.33293 0.0
H309 H 0.22837 0.70747 0.33712 0.0
H310 H 0.16982 0.72746 0.35862 0.0
H311 H 0.18842 0.74981 0.35442 0.0
H312 H 0.22192 0.8147 0.35834 0.0
H313 H 0.23139 0.79538 0.34015 0.0
H314 H 0.28804 0.83309 0.34822 0.0
H315 H 0.29695 0.81396 0.32955 0.0
H316 H 0.31636 0.7793 0.25862 0.0
H317 H 0.31966 0.73544 0.25122 0.0
H318 H 0.29452 0.73182 0.27549 0.0
H319 H 0.29098 0.77555 0.28282 0.0
H320 H 0.97994 0.45309 0.41365 0.0
N321 N 0.01464 0.46173 0.39473 0.0
H322 H 0.9485 0.4377 0.40503 0.0
H323 H 0.00377 0.45425 0.36209 0.0
H324 H 0.97249 0.43907 0.35341 0.0
H325 H 0.04223 0.46289 0.36691 0.0
H326 H 0.07311 0.44699 0.36064 0.0
H327 H 0.03369 0.44378 0.41591 0.0
H328 H 0.06515 0.42817 0.4101 0.0
H329 H 0.02655 0.47867 0.41946 0.0
H330 H 0.00536 0.47814 0.36688 0.0
H331 H 0.02792 0.50372 0.41872 0.0
H332 H 0.00555 0.50316 0.36618 0.0
H333 H 0.99732 0.5837 0.41274 0.0
H334 H 0.96509 0.59843 0.40515 0.0
H335 H 0.95554 0.576 0.3584 0.0
H336 H 0.98823 0.56155 0.36599 0.0
H337 H 0.02662 0.57249 0.3612 0.0
H338 H 0.05657 0.58867 0.35286 0.0
H339 H 0.08074 0.5904 0.40487 0.0
H340 H 0.05073 0.57402 0.41309 0.0
H341 H 0.0039 0.54767 0.41827 0.0
H342 H 0.00318 0.52262 0.41795 0.0
H343 H 0.02863 0.52336 0.36663 0.0
N344 N 0.01644 0.56473 0.39377 0.0
H345 H 0.02819 0.54839 0.36686 0.0
C346 C 0.99424 0.45482 0.38862 0.0
C347 C 0.97802 0.45032 0.40041 0.0
C348 C 0.9601 0.44155 0.39546 0.0
C349 C 0.95819 0.43706 0.37857 0.0
C350 C 0.97372 0.44219 0.36656 0.0
C351 C 0.99156 0.45099 0.37151 0.0
C352 C 0.03554 0.4544 0.39186 0.0
C353 C 0.04737 0.45548 0.37648 0.0
C354 C 0.06512 0.4464 0.37295 0.0
C355 C 0.07142 0.43614 0.38477 0.0
C356 C 0.06043 0.43572 0.40056 0.0
C357 C 0.04264 0.44472 0.404 0.0
C358 C 0.01559 0.47649 0.39339 0.0
C359 C 0.02205 0.48399 0.40779 0.0
C360 C 0.02262 0.49832 0.40735 0.0
C361 C 0.01652 0.50555 0.39245 0.0
C362 C 0.0105 0.49799 0.37785 0.0
C363 C 0.01018 0.4836 0.37827 0.0
C364 C 0.99514 0.57155 0.39002 0.0
C365 C 0.98792 0.58181 0.40104 0.0
C366 C 0.96945 0.59018 0.39667 0.0
C367 C 0.95774 0.58845 0.38111 0.0
C368 C 0.96438 0.57773 0.37037 0.0
C369 C 0.98294 0.56937 0.37476 0.0
C370 C 0.03642 0.57204 0.38786 0.0
C371 C 0.03869 0.57603 0.37075 0.0
C372 C 0.05573 0.58539 0.36601 0.0
C373 C 0.07086 0.59094 0.37824 0.0
C374 C 0.06948 0.58625 0.39512 0.0
C375 C 0.05236 0.57691 0.39986 0.0
C376 C 0.01634 0.54994 0.39277 0.0
C377 C 0.00928 0.54239 0.40697 0.0
C378 C 0.00907 0.52806 0.40677 0.0
C379 C 0.01615 0.52088 0.39233 0.0
C380 C 0.02292 0.52849 0.37794 0.0
C381 C 0.02289 0.54288 0.37811 0.0
H382 H 0.99795 0.45164 0.65523 0.0
N383 N 0.00582 0.45967 0.62237 0.0
H384 H 0.96841 0.43559 0.66457 0.0
H385 H 0.96998 0.45073 0.60435 0.0
H386 H 0.94027 0.43451 0.61362 0.0
H387 H 0.02359 0.44213 0.60071 0.0
H388 H 0.0562 0.42695 0.60558 0.0
H389 H 0.03575 0.46094 0.64935 0.0
H390 H 0.06789 0.44548 0.65467 0.0
H391 H 0.99733 0.4757 0.65025 0.0
H392 H 0.01635 0.47697 0.5976 0.0
H393 H 0.99742 0.50072 0.65102 0.0
H394 H 0.01768 0.50199 0.59841 0.0
H395 H 0.98436 0.56187 0.65267 0.0
H396 H 0.95369 0.57763 0.6601 0.0
H397 H 0.95639 0.59551 0.60977 0.0
H398 H 0.98762 0.58006 0.60277 0.0
H399 H 0.04068 0.57248 0.60254 0.0
H400 H 0.07232 0.58814 0.60964 0.0
H401 H 0.05547 0.58457 0.66276 0.0
H402 H 0.02365 0.56934 0.6555 0.0
H403 H 0.02066 0.5459 0.65043 0.0
H404 H 0.02038 0.52088 0.65066 0.0
H405 H 0.99348 0.521 0.59925 0.0
N406 N 0.00902 0.56266 0.62338 0.0
H407 H 0.99501 0.54604 0.59891 0.0
C408 C 0.98622 0.4524 0.62899 0.0
C409 C 0.98516 0.44826 0.64612 0.0
C410 C 0.96833 0.43897 0.65144 0.0
C411 C 0.95218 0.43365 0.63979 0.0
C412 C 0.95238 0.43848 0.62292 0.0
C413 C 0.96931 0.44774 0.6176 0.0
C414 C 0.02719 0.45257 0.62464 0.0
C415 C 0.03357 0.4431 0.61233 0.0
C416 C 0.05203 0.43435 0.61524 0.0
C417 C 0.06444 0.43482 0.63065 0.0
C418 C 0.05879 0.44486 0.64264 0.0
C419 C 0.04034 0.45368 0.63965 0.0
C420 C 0.00646 0.47442 0.6237 0.0
C421 C 1.00161 0.48133 0.63885 0.0
C422 C 0.00189 0.49571 0.63931 0.0
C423 C 0.00732 0.50348 0.62472 0.0
C424 C 0.01281 0.49645 0.60978 0.0
C425 C 0.01226 0.48213 0.6093 0.0
C426 C 0.98837 0.56993 0.62718 0.0
C427 C 0.97813 0.56907 0.6432 0.0
C428 C 0.9605 0.57805 0.64739 0.0
C429 C 0.9528 0.58799 0.63561 0.0
C430 C 0.96224 0.5882 0.61927 0.0
C431 C 0.97988 0.5793 0.61516 0.0
C432 C 0.02985 0.56967 0.6284 0.0
C433 C 0.04422 0.57484 0.61574 0.0
C434 C 0.06229 0.58378 0.61984 0.0
C435 C 0.06631 0.58773 0.63677 0.0
C436 C 0.05262 0.58193 0.64956 0.0
C437 C 0.03452 0.57304 0.64544 0.0
C438 C 0.00822 0.54789 0.62446 0.0
C439 C 0.01487 0.54059 0.63917 0.0
C440 C 0.01448 0.5262 0.63933 0.0
C441 C 0.00714 0.51882 0.62491 0.0
C442 C 0.99983 0.52624 0.61045 0.0
C443 C 1.00049 0.54057 0.61025 0.0
H444 H 0.15234 0.08044 0.52398 0.0
N445 N 0.18081 0.06499 0.50667 0.0
H446 H 0.16198 0.0958 0.54754 0.0
H447 H 0.22145 0.06537 0.52432 0.0
H448 H 0.23144 0.08097 0.54762 0.0
H449 H 0.22368 0.07192 0.49553 0.0
H450 H 0.23246 0.0882 0.47288 0.0
H451 H 0.15164 0.07548 0.48403 0.0
H452 H 0.16029 0.09199 0.46135 0.0
H453 H 0.14661 0.04815 0.51399 0.0
H454 H 0.21753 0.04854 0.49974 0.0
H455 H 0.1465 0.02309 0.51422 0.0
H456 H 0.21743 0.02347 0.49916 0.0
H457 H 0.14548 0.95337 0.52846 0.0
H458 H 0.15122 0.93714 0.55202 0.0
H459 H 0.22399 0.93776 0.54289 0.0
H460 H 0.2181 0.95401 0.51959 0.0
H461 H 0.21731 0.96166 0.4898 0.0
H462 H 0.22739 0.94561 0.46728 0.0
H463 H 0.15822 0.92953 0.46721 0.0
H464 H 0.14854 0.9454 0.48991 0.0
H465 H 0.14498 0.97948 0.4959 0.0
H466 H 0.14693 1.00451 0.49527 0.0
H467 H 0.2157 1.00301 0.51615 0.0
N468 N 0.17665 0.96212 0.50659 0.0
H469 H 0.21385 0.97794 0.51596 0.0
C470 C 0.18616 0.07191 0.52232 0.0
C471 C 0.16945 0.08025 0.52942 0.0
C472 C 0.175 0.08899 0.54286 0.0
C473 C 0.19751 0.08964 0.54931 0.0
C474 C 0.21401 0.08075 0.54276 0.0
C475 C 0.20833 0.07184 0.52946 0.0
C476 C 0.18689 0.07244 0.49149 0.0
C477 C 0.20974 0.07592 0.4879 0.0
C478 C 0.21475 0.08537 0.47501 0.0
C479 C 0.19706 0.09151 0.46544 0.0
C480 C 0.17433 0.08738 0.46839 0.0
C481 C 0.16934 0.07795 0.48132 0.0
C482 C 0.18187 0.05023 0.50666 0.0
C483 C 0.16211 0.04278 0.51077 0.0
C484 C 0.16208 0.02846 0.51076 0.0
C485 C 0.18188 0.02118 0.50647 0.0
C486 C 0.2019 0.02869 0.50262 0.0
C487 C 0.20194 0.04308 0.50279 0.0
C488 C 0.18126 0.95494 0.5223 0.0
C489 C 0.16271 0.95029 0.53191 0.0
C490 C 0.16601 0.94094 0.54523 0.0
C491 C 0.18804 0.93604 0.54919 0.0
C492 C 0.20683 0.94141 0.54026 0.0
C493 C 0.20348 0.95074 0.5269 0.0
C494 C 0.18215 0.95464 0.49152 0.0
C495 C 0.20427 0.95484 0.48471 0.0
C496 C 0.20997 0.94568 0.47182 0.0
C497 C 0.19367 0.93618 0.46562 0.0
C498 C 0.17127 0.93655 0.47192 0.0
C499 C 0.16563 0.94568 0.48474 0.0
C500 C 0.17904 0.97684 0.50616 0.0
C501 C 0.16048 0.98459 0.50026 0.0
C502 C 0.1616 0.99891 0.50006 0.0
C503 C 0.18136 1.00586 0.50592 0.0
C504 C 0.20025 0.99804 0.51147 0.0
C505 C 0.19915 0.98365 0.51151 0.0
H506 H 0.5439 0.73973 0.07985 0.0
N507 N 0.51397 0.75839 0.0694 0.0
H508 H 0.57416 0.74263 0.10129 0.0
H509 H 0.52962 0.783 0.08205 0.0
H510 H 0.56047 0.78615 0.1025 0.0
H511 H 0.48979 0.78141 0.07722 0.0
H512 H 0.46041 0.78277 0.09893 0.0
H513 H 0.49186 0.73749 0.08348 0.0
H514 H 0.46163 0.7386 0.10457 0.0
H515 H 0.5059 0.74143 0.04389 0.0
H516 H 0.51935 0.78401 0.05487 0.0
H517 H 0.50413 0.74682 0.01355 0.0
H518 H 0.51914 0.78938 0.02476 0.0
H519 H 0.52506 0.75809 0.9305 0.0
H520 H 0.5567 0.75474 0.91125 0.0
H521 H 0.57713 0.79715 0.91779 0.0
H522 H 0.54578 0.80023 0.93769 0.0
H523 H 0.49211 0.80182 0.92729 0.0
H524 H 0.45969 0.79921 0.90762 0.0
H525 H 0.45404 0.75635 0.92162 0.0
H526 H 0.48658 0.75912 0.94133 0.0
H527 H 0.52643 0.75798 0.96015 0.0
H528 H 0.52654 0.75255 0.99025 0.0
H529 H 0.4963 0.79197 1.00052 0.0
N530 N 0.51281 0.78234 0.94521 0.0
H531 H 0.49763 0.79763 0.97029 0.0
C532 C 0.53461 0.76109 0.07908 0.0
C533 C 0.54789 0.74993 0.08446 0.0
C534 C 0.5652 0.75163 0.09672 0.0
C535 C 0.56966 0.76462 0.1038 0.0
C536 C 0.55725 0.77595 0.0976 0.0
C537 C 0.53976 0.7742 0.08553 0.0
C538 C 0.49323 0.75932 0.07896 0.0
C539 C 0.48351 0.77202 0.08296 0.0
C540 C 0.46657 0.77276 0.09533 0.0
C541 C 0.45897 0.76081 0.10378 0.0
C542 C 0.46751 0.74804 0.09868 0.0
C543 C 0.48455 0.74734 0.08648 0.0
C544 C 0.51309 0.7622 0.0517 0.0
C545 C 0.50872 0.75192 0.03972 0.0
C546 C 0.50791 0.75503 0.02237 0.0
C547 C 0.5117 0.76855 0.01655 0.0
C548 C 0.51585 0.77888 0.02866 0.0
C549 C 0.51631 0.77578 0.04604 0.0
C550 C 0.53313 0.77945 0.9357 0.0
C551 C 0.53665 0.76659 0.9282 0.0
C552 C 0.55466 0.76472 0.91697 0.0
C553 C 0.56937 0.77571 0.91278 0.0
C554 C 0.56634 0.78841 0.92084 0.0
C555 C 0.54842 0.79022 0.93219 0.0
C556 C 0.49176 0.78072 0.93569 0.0
C557 C 0.48354 0.79195 0.92634 0.0
C558 C 0.465 0.79042 0.91515 0.0
C559 C 0.45433 0.77755 0.91301 0.0
C560 C 0.46207 0.76636 0.92286 0.0
C561 C 0.48058 0.76794 0.93418 0.0
C562 C 0.51237 0.77839 0.9629 0.0
C563 C 0.52 0.76554 0.96879 0.0
C564 C 0.5198 0.76236 0.98614 0.0
C565 C 0.51154 0.77183 0.99799 0.0
C566 C 0.50332 0.78452 0.99193 0.0
C567 C 0.50387 0.78775 0.97462 0.0
H568 H 0.80432 0.07292 0.51726 0.0
N569 N 0.84744 0.06345 0.51154 0.0
H570 H 0.79323 0.0878 0.54047 0.0
H571 H 0.87163 0.06874 0.53953 0.0
H572 H 0.86042 0.08304 0.56337 0.0
H573 H 0.87591 0.0829 0.50098 0.0
H574 H 0.86994 0.09925 0.47777 0.0
H575 H 0.81263 0.06236 0.48779 0.0
H576 H 0.80691 0.07826 0.46409 0.0
H577 H 0.80848 0.04756 0.51201 0.0
H578 H 0.88197 0.04623 0.50932 0.0
H579 H 0.80656 0.0225 0.51027 0.0
H580 H 0.88052 0.02123 0.50855 0.0
H581 H 0.80373 0.95297 0.52006 0.0
H582 H 0.793 0.93698 0.54267 0.0
H583 H 0.86348 0.93579 0.55993 0.0
H584 H 0.87393 0.95199 0.53738 0.0
H585 H 0.87729 0.94303 0.49983 0.0
H586 H 0.87069 0.92598 0.47762 0.0
H587 H 0.80323 0.94248 0.46831 0.0
H588 H 0.81026 0.95973 0.49042 0.0
H589 H 0.81471 0.97716 0.52653 0.0
H590 H 0.81376 1.00206 0.52558 0.0
H591 H 0.87136 1.00244 0.49166 0.0
N592 N 0.84738 0.96064 0.5119 0.0
H593 H 0.8731 0.9775 0.49353 0.0
C594 C 0.83897 0.0699 0.52658 0.0
C595 C 0.81653 0.07492 0.5274 0.0
C596 C 0.81018 0.0834 0.54078 0.0
C597 C 0.82605 0.08685 0.55371 0.0
C598 C 0.84793 0.08092 0.55343 0.0
C599 C 0.85432 0.07261 0.53994 0.0
C600 C 0.8449 0.07137 0.49611 0.0
C601 C 0.86105 0.0817 0.49274 0.0
C602 C 0.8576 0.09101 0.47941 0.0
C603 C 0.83787 0.09014 0.46902 0.0
C604 C 0.82212 0.07939 0.47198 0.0
C605 C 0.82551 0.07014 0.48545 0.0
C606 C 0.84544 0.04873 0.51055 0.0
C607 C 0.8242 0.04186 0.51099 0.0
C608 C 0.82318 0.02749 0.51018 0.0
C609 C 0.84338 0.01973 0.50914 0.0
C610 C 0.86454 0.02676 0.50888 0.0
C611 C 0.86548 0.04107 0.50947 0.0
C612 C 0.83972 0.95368 0.52706 0.0
C613 C 0.81676 0.94955 0.52897 0.0
C614 C 0.81068 0.94031 0.54184 0.0
C615 C 0.82742 0.93497 0.55299 0.0
C616 C 0.8501 0.9398 0.55168 0.0
C617 C 0.85614 0.94905 0.53882 0.0
C618 C 0.84429 0.95255 0.49678 0.0
C619 C 0.86132 0.94316 0.49269 0.0
C620 C 0.85741 0.93336 0.48014 0.0
C621 C 0.83629 0.93275 0.47141 0.0
C622 C 0.81968 0.94272 0.47479 0.0
C623 C 0.82364 0.95255 0.48743 0.0
C624 C 0.84427 0.97531 0.51021 0.0
C625 C 0.82715 0.98249 0.51882 0.0
C626 C 0.82648 0.99686 0.51817 0.0
C627 C 0.84268 1.00439 0.50873 0.0
C628 C 0.85899 0.9971 0.49946 0.0
C629 C 0.85987 0.98279 0.50035 0.0
H630 H 0.52199 0.24174 0.08543 0.0
N631 N 0.50986 0.266 0.07004 0.0
H632 H 0.55263 0.23856 0.10628 0.0
H633 H 0.54258 0.28396 0.07839 0.0
H634 H 0.5732 0.28095 0.09962 0.0
H635 H 0.48911 0.28533 0.08751 0.0
H636 H 0.45738 0.28236 0.1072 0.0
H637 H 0.48375 0.24273 0.07363 0.0
H638 H 0.45202 0.23959 0.09344 0.0
H639 H 0.53078 0.24354 0.05551 0.0
H640 H 0.48764 0.27836 0.04474 0.0
H641 H 0.5307 0.23777 0.02568 0.0
H642 H 0.48622 0.2721 0.01482 0.0
H643 H 0.52946 0.22123 0.92859 0.0
H644 H 0.56176 0.2235 0.90932 0.0
H645 H 0.57153 0.26555 0.92517 0.0
H646 H 0.53895 0.2633 0.94389 0.0
H647 H 0.49948 0.26558 0.93174 0.0
H648 H 0.46881 0.26977 0.91119 0.0
H649 H 0.4469 0.22743 0.91601 0.0
H650 H 0.47715 0.22354 0.9372 0.0
H651 H 0.51135 0.22357 0.97263 0.0
H652 H 0.50996 0.22894 1.00285 0.0
H653 H 0.50755 0.27222 0.99027 0.0
N654 N 0.51021 0.24084 0.94649 0.0
H655 H 0.5073 0.26665 0.96033 0.0
C656 C 0.52999 0.26315 0.08026 0.0
C657 C 0.53331 0.2503 0.08816 0.0
C658 C 0.55077 0.24852 0.10022 0.0
C659 C 0.5652 0.25955 0.10479 0.0
C660 C 0.56253 0.27221 0.09631 0.0
C661 C 0.54506 0.27396 0.08419 0.0
C662 C 0.48883 0.26429 0.07922 0.0
C663 C 0.48068 0.27541 0.08846 0.0
C664 C 0.46255 0.27369 0.09967 0.0
C665 C 0.45229 0.26071 0.10194 0.0
C666 C 0.45977 0.24967 0.09208 0.0
C667 C 0.47782 0.25145 0.08073 0.0
C668 C 0.50936 0.26159 0.05252 0.0
C669 C 0.52104 0.24993 0.04686 0.0
C670 C 0.52081 0.24652 0.02962 0.0
C671 C 0.50856 0.25448 0.01765 0.0
C672 C 0.49635 0.26588 0.02348 0.0
C673 C 0.49693 0.26942 0.04064 0.0
C674 C 0.53171 0.242 0.93776 0.0
C675 C 0.53892 0.23083 0.92815 0.0
C676 C 0.55742 0.23216 0.91717 0.0
C677 C 0.56917 0.24475 0.91558 0.0
C678 C 0.56262 0.25577 0.92586 0.0
C679 C 0.54403 0.25444 0.93677 0.0
C680 C 0.49046 0.24422 0.93618 0.0
C681 C 0.48768 0.25731 0.92882 0.0
C682 C 0.47028 0.25963 0.91683 0.0
C683 C 0.45546 0.24891 0.91177 0.0
C684 C 0.45775 0.23599 0.9197 0.0
C685 C 0.47506 0.23371 0.93179 0.0
C686 C 0.50972 0.24463 0.96416 0.0
C687 C 0.51046 0.2342 0.97648 0.0
C688 C 0.50985 0.23733 0.99377 0.0
C689 C 0.50877 0.25106 0.99917 0.0
C690 C 0.50802 0.26151 0.98672 0.0
C691 C 0.50823 0.25834 0.96943 0.0
H692 H 0.22265 0.35301 0.32548 0.0
H693 H 0.19981 0.37218 0.3354 0.0
H694 H 0.15327 0.34373 0.3595 0.0
H695 H 0.17545 0.3245 0.34902 0.0
H696 H 0.13022 0.36257 0.34243 0.0
H697 H 0.19275 0.36306 0.38252 0.0
H698 H 0.23323 0.36373 0.39177 0.0
H699 H 0.24211 0.40282 0.36706 0.0
H700 H 0.20174 0.40229 0.35746 0.0
H701 H 0.06877 0.40871 0.39205 0.0
H702 H 0.09472 0.39065 0.38356 0.0
H703 H 0.13703 0.42057 0.35795 0.0
H704 H 0.11148 0.4389 0.36698 0.0
H705 H 0.16275 0.40157 0.37524 0.0
H706 H 0.09972 0.40098 0.33552 0.0
H707 H 0.059 0.40028 0.3269 0.0
H708 H 0.05099 0.36109 0.35152 0.0
H709 H 0.09161 0.36165 0.36049 0.0
C710 C 0.20749 0.35081 0.33281 0.0
C711 C 0.2009 0.33718 0.33643 0.0
C712 C 0.19458 0.36181 0.33865 0.0
C713 C 0.17493 0.35942 0.34836 0.0
C714 C 0.1684 0.34584 0.35208 0.0
C715 C 0.18124 0.33484 0.3462 0.0
C716 C 0.16069 0.37103 0.35414 0.0
C717 C 0.1373 0.37099 0.3498 0.0
C718 C 0.17001 0.38223 0.36337 0.0
C719 C 0.19428 0.38257 0.36912 0.0
C720 C 0.20339 0.37175 0.37894 0.0
C721 C 0.2263 0.37211 0.38426 0.0
C722 C 0.24025 0.38329 0.37996 0.0
C723 C 0.2313 0.39415 0.37036 0.0
C724 C 0.20839 0.39383 0.36498 0.0
C725 C 0.08381 0.41154 0.38489 0.0
C726 C 0.08802 0.4253 0.38022 0.0
C727 C 0.09851 0.40115 0.37988 0.0
C728 C 0.11763 0.40422 0.3699 0.0
C729 C 0.1223 0.41796 0.36558 0.0
C730 C 0.10759 0.4284 0.37063 0.0
C731 C 0.13231 0.393 0.36366 0.0
C732 C 0.15573 0.39313 0.36786 0.0
C733 C 0.12304 0.38185 0.35434 0.0
C734 C 0.09866 0.38142 0.34879 0.0
C735 C 0.08924 0.39226 0.33919 0.0
C736 C 0.06618 0.39188 0.33423 0.0
C737 C 0.0524 0.38066 0.33869 0.0
C738 C 0.06168 0.36978 0.34808 0.0
C739 C 0.08472 0.37011 0.35309 0.0
H740 H 0.03455 0.38039 0.33484 0.0
H741 H 0.25799 0.38355 0.3841 0.0
H742 H 0.19924 0.67808 0.70114 0.0
H743 H 0.17751 0.65832 0.69067 0.0
H744 H 0.17214 0.67734 0.64119 0.0
H745 H 0.19427 0.6971 0.65148 0.0
H746 H 0.13142 0.66744 0.65131 0.0
H747 H 0.20725 0.65057 0.64709 0.0
H748 H 0.24654 0.64534 0.65675 0.0
H749 H 0.22017 0.6184 0.69534 0.0
H750 H 0.18068 0.62363 0.68606 0.0
H751 H 0.10934 0.59152 0.62366 0.0
H752 H 0.13604 0.61056 0.6292 0.0
H753 H 0.08879 0.6275 0.66491 0.0
H754 H 0.06181 0.60886 0.65906 0.0
H755 H 0.15819 0.61942 0.65741 0.0
H756 H 0.0897 0.66204 0.66204 0.0
H757 H 0.05147 0.66731 0.65016 0.0
H758 H 0.06545 0.64297 0.60632 0.0
H759 H 0.10387 0.63771 0.61782 0.0
C760 C 0.1938 0.67799 0.68794 0.0
C761 C 0.19859 0.6892 0.67714 0.0
C762 C 0.18131 0.66668 0.68199 0.0
C763 C 0.17337 0.66629 0.66511 0.0
C764 C 0.17809 0.67743 0.65428 0.0
C765 C 0.19066 0.68875 0.6602 0.0
C766 C 0.15941 0.65446 0.65901 0.0
C767 C 0.13731 0.65695 0.65259 0.0
C768 C 0.16726 0.64078 0.66035 0.0
C769 C 0.19099 0.63758 0.66596 0.0
C770 C 0.20981 0.64361 0.65772 0.0
C771 C 0.23213 0.64063 0.66311 0.0
C772 C 0.23585 0.63157 0.67667 0.0
C773 C 0.21726 0.62543 0.68484 0.0
C774 C 0.1949 0.62839 0.67951 0.0
C775 C 0.10462 0.59933 0.63265 0.0
C776 C 0.08341 0.59866 0.6409 0.0
C777 C 0.11996 0.61015 0.63588 0.0
C778 C 0.11429 0.62054 0.64731 0.0
C779 C 0.0934 0.6197 0.65587 0.0
C780 C 0.07809 0.60893 0.65265 0.0
C781 C 0.12997 0.63239 0.65022 0.0
C782 C 0.15237 0.62992 0.65604 0.0
C783 C 0.12255 0.6461 0.64804 0.0
C784 C 0.0996 0.64939 0.64088 0.0
C785 C 0.08466 0.65787 0.64983 0.0
C786 C 0.06295 0.66084 0.64317 0.0
C787 C 0.05601 0.65545 0.62752 0.0
C788 C 0.07081 0.64711 0.61847 0.0
C789 C 0.09255 0.64411 0.62506 0.0
H790 H 0.03919 0.65776 0.62239 0.0
H791 H 0.25314 0.62927 0.68082 0.0
H792 H 0.84533 0.68543 0.3097 0.0
H793 H 0.86628 0.6652 0.31942 0.0
H794 H 0.84056 0.67068 0.36999 0.0
H795 H 0.81953 0.691 0.36033 0.0
H796 H 0.88513 0.66506 0.37101 0.0
H797 H 0.81898 0.64542 0.34412 0.0
H798 H 0.79052 0.64181 0.32117 0.0
H799 H 0.84338 0.62775 0.28832 0.0
H800 H 0.87223 0.63146 0.31101 0.0
H801 H 0.92453 0.60023 0.40048 0.0
H802 H 0.89826 0.61858 0.39211 0.0
H803 H 0.92421 0.61767 0.34113 0.0
H804 H 0.95078 0.59952 0.34942 0.0
H805 H 0.87733 0.62034 0.34162 0.0
H806 H 0.94355 0.64141 0.36817 0.0
H807 H 0.97186 0.64498 0.39125 0.0
H808 H 0.91812 0.65622 0.425 0.0
H809 H 0.88944 0.65253 0.40217 0.0
C810 C 0.84394 0.68226 0.32286 0.0
C811 C 0.83064 0.68979 0.33422 0.0
C812 C 0.85593 0.67069 0.3284 0.0
C813 C 0.85473 0.66629 0.34538 0.0
C814 C 0.84171 0.67387 0.35682 0.0
C815 C 0.82976 0.6855 0.3513 0.0
C816 C 0.86742 0.65392 0.35121 0.0
C817 C 0.88311 0.65522 0.36477 0.0
C818 C 0.86511 0.64113 0.34289 0.0
C819 C 0.8478 0.63883 0.32923 0.0
C820 C 0.82457 0.64166 0.33196 0.0
C821 C 0.80836 0.63958 0.31901 0.0
C822 C 0.81514 0.63458 0.30329 0.0
C823 C 0.83815 0.63163 0.3005 0.0
C824 C 0.85444 0.6337 0.31341 0.0
C825 C 0.92463 0.60391 0.38747 0.0
C826 C 0.9399 0.59845 0.37566 0.0
C827 C 0.90957 0.61438 0.38271 0.0
C828 C 0.90949 0.6196 0.36605 0.0
C829 C 0.92397 0.61377 0.35405 0.0
C830 C 0.93909 0.60334 0.35881 0.0
C831 C 0.8951 0.63154 0.36128 0.0
C832 C 0.87915 0.63016 0.34793 0.0
C833 C 0.8971 0.64425 0.36982 0.0
C834 C 0.91433 0.64655 0.38352 0.0
C835 C 0.93775 0.64454 0.38055 0.0
C836 C 0.95387 0.6466 0.39358 0.0
C837 C 0.94679 0.65078 0.4096 0.0
C838 C 0.92358 0.65295 0.4126 0.0
C839 C 0.90739 0.65089 0.39962 0.0
H840 H 0.95929 0.65237 0.41966 0.0
H841 H 0.80256 0.63298 0.29327 0.0
H842 H 0.8079 0.33224 0.66102 0.0
H843 H 0.82577 0.35483 0.65658 0.0
H844 H 0.89046 0.3389 0.67446 0.0
H845 H 0.87268 0.31637 0.67906 0.0
H846 H 0.8803 0.36435 0.68815 0.0
H847 H 0.88098 0.34263 0.63304 0.0
H848 H 0.86322 0.33129 0.60821 0.0
H849 H 0.82115 0.36658 0.59904 0.0
H850 H 0.83846 0.37806 0.62398 0.0
H851 H 0.96315 0.41084 0.65822 0.0
H852 H 0.93875 0.39122 0.66502 0.0
H853 H 0.88178 0.41067 0.63937 0.0
H854 H 0.90641 0.43035 0.63224 0.0
H855 H 0.88371 0.38494 0.63043 0.0
H856 H 0.88483 0.40773 0.68359 0.0
H857 H 0.9018 0.41939 0.70848 0.0
H858 H 0.93873 0.38287 0.72184 0.0
H859 H 0.92224 0.37104 0.69689 0.0
C860 C 0.82588 0.33359 0.66412 0.0
C861 C 0.83892 0.32252 0.67031 0.0
C862 C 0.83609 0.34647 0.6615 0.0
C863 C 0.85947 0.34851 0.66509 0.0
C864 C 0.8724 0.33754 0.67159 0.0
C865 C 0.86227 0.32465 0.67408 0.0
C866 C 0.87068 0.36198 0.66187 0.0
C867 C 0.88122 0.36883 0.67552 0.0
C868 C 0.87115 0.36802 0.64549 0.0
C869 C 0.86081 0.36114 0.63048 0.0
C870 C 0.8678 0.34793 0.62582 0.0
C871 C 0.85785 0.34148 0.61171 0.0
C872 C 0.84102 0.34819 0.60209 0.0
C873 C 0.83416 0.36138 0.60653 0.0
C874 C 0.84404 0.36787 0.62064 0.0
C875 C 0.94532 0.41108 0.65429 0.0
C876 C 0.93665 0.42222 0.64483 0.0
C877 C 0.93135 0.39983 0.65819 0.0
C878 C 0.90827 0.39953 0.65298 0.0
C879 C 0.8995 0.41068 0.64359 0.0
C880 C 0.91357 0.42191 0.63952 0.0
C881 C 0.89378 0.38727 0.65668 0.0
C882 C 0.88259 0.38061 0.64313 0.0
C883 C 0.89252 0.38147 0.6732 0.0
C884 C 0.9024 0.38852 0.68829 0.0
C885 C 0.89669 0.40221 0.69177 0.0
C886 C 0.9062 0.40885 0.7059 0.0
C887 C 0.92136 0.40188 0.71671 0.0
C888 C 0.92699 0.38825 0.71344 0.0
C889 C 0.91754 0.38157 0.69932 0.0
H890 H 0.92871 0.40704 0.72764 0.0
H891 H 0.83334 0.34319 0.59117 0.0
H892 H 0.24693 0.20776 0.39951 0.0
H893 H 0.24251 0.18552 0.41378 0.0
H894 H 0.20126 0.17082 0.3718 0.0
H895 H 0.20534 0.19314 0.35754 0.0
H896 H 0.18213 0.16486 0.4028 0.0
H897 H 0.25495 0.15995 0.37627 0.0
H898 H 0.29447 0.16663 0.36906 0.0
H899 H 0.31379 0.16525 0.42182 0.0
H900 H 0.27429 0.15875 0.42938 0.0
H901 H 0.17892 0.09611 0.43358 0.0
H902 H 0.18534 0.11609 0.41511 0.0
H903 H 0.23245 0.13303 0.4522 0.0
H904 H 0.22629 0.1131 0.47056 0.0
H905 H 0.24864 0.13698 0.4215 0.0
H906 H 0.17632 0.14388 0.44853 0.0
H907 H 0.13682 0.13793 0.45667 0.0
H908 H 0.11659 0.13639 0.40411 0.0
H909 H 0.15607 0.14215 0.39566 0.0
C910 C 0.23686 0.1998 0.39334 0.0
C911 C 0.22649 0.2022 0.3774 0.0
C912 C 0.2345 0.18707 0.40144 0.0
C913 C 0.22172 0.17648 0.39378 0.0
C914 C 0.21127 0.17884 0.3779 0.0
C915 C 0.21374 0.19155 0.36973 0.0
C916 C 0.21883 0.16306 0.40257 0.0
C917 C 0.19664 0.15863 0.40663 0.0
C918 C 0.2378 0.15512 0.40791 0.0
C919 C 0.2616 0.15897 0.4034 0.0
C920 C 0.26758 0.16117 0.38635 0.0
C921 C 0.28998 0.16491 0.3822 0.0
C922 C 0.30661 0.16639 0.39497 0.0
C923 C 0.30088 0.16411 0.41193 0.0
C924 C 0.27849 0.16038 0.41616 0.0
C925 C 0.19071 0.10408 0.43774 0.0
C926 C 0.2021 0.10302 0.45353 0.0
C927 C 0.19434 0.1155 0.4272 0.0
C928 C 0.20916 0.12617 0.43236 0.0
C929 C 0.22099 0.12493 0.44791 0.0
C930 C 0.2175 0.11349 0.45838 0.0
C931 C 0.21193 0.13882 0.42189 0.0
C932 C 0.2341 0.14313 0.41753 0.0
C933 C 0.19294 0.14673 0.4164 0.0
C934 C 0.1692 0.14329 0.42146 0.0
C935 C 0.16349 0.14217 0.43871 0.0
C936 C 0.1411 0.13884 0.44338 0.0
C937 C 0.12422 0.13674 0.43092 0.0
C938 C 0.12969 0.13799 0.41375 0.0
C939 C 0.15206 0.14129 0.40901 0.0
H940 H 0.1069 0.13417 0.43456 0.0
H941 H 0.32395 0.16929 0.39173 0.0
H942 H 0.30847 0.79312 0.79106 0.0
H943 H 0.33099 0.79218 0.81738 0.0
H944 H 0.36354 0.75522 0.80047 0.0
H945 H 0.34112 0.75613 0.774 0.0
H946 H 0.35255 0.75359 0.83403 0.0
H947 H 0.3912 0.78545 0.79739 0.0
H948 H 0.39455 0.80555 0.77836 0.0
H949 H 0.37411 0.83202 0.8187 0.0
H950 H 0.37032 0.81203 0.83791 0.0
H951 H 0.44978 0.75666 0.89017 0.0
H952 H 0.42283 0.75508 0.86624 0.0
H953 H 0.39149 0.79289 0.88159 0.0
H954 H 0.41844 0.79453 0.90553 0.0
H955 H 0.40156 0.79369 0.84885 0.0
H956 H 0.3639 0.76158 0.88583 0.0
H957 H 0.36102 0.74133 0.90465 0.0
H958 H 0.38028 0.71518 0.86367 0.0
H959 H 0.38358 0.73531 0.84465 0.0
C960 C 0.32049 0.78481 0.79289 0.0
C961 C 0.32317 0.77477 0.78035 0.0
C962 C 0.33329 0.78427 0.80797 0.0
C963 C 0.34917 0.77373 0.81079 0.0
C964 C 0.35139 0.76344 0.79855 0.0
C965 C 0.33853 0.76397 0.78345 0.0
C966 C 0.36394 0.77373 0.82628 0.0
C967 C 0.36348 0.76229 0.8372 0.0
C968 C 0.37789 0.78518 0.83054 0.0
C969 C 0.38026 0.79723 0.81904 0.0
C970 C 0.38725 0.79554 0.80217 0.0
C971 C 0.38925 0.80692 0.79135 0.0
C972 C 0.38449 0.82005 0.7973 0.0
C973 C 0.37776 0.82184 0.8141 0.0
C974 C 0.3757 0.81049 0.82496 0.0
C975 C 0.43682 0.76447 0.88867 0.0
C976 C 0.43627 0.77574 0.89973 0.0
C977 C 0.42143 0.76357 0.87496 0.0
C978 C 0.40506 0.77384 0.87214 0.0
C979 C 0.40403 0.78487 0.88348 0.0
C980 C 0.41945 0.78581 0.89713 0.0
C981 C 0.39004 0.77361 0.85677 0.0
C982 C 0.39055 0.78501 0.84578 0.0
C983 C 0.37623 0.7621 0.85246 0.0
C984 C 0.3742 0.74997 0.86386 0.0
C985 C 0.3677 0.75153 0.88087 0.0
C986 C 0.36596 0.74006 0.89156 0.0
C987 C 0.37052 0.72698 0.88537 0.0
C988 C 0.37677 0.72532 0.86845 0.0
C989 C 0.37856 0.73675 0.8577 0.0
H990 H 0.36916 0.71811 0.89368 0.0
H991 H 0.38605 0.82885 0.78891 0.0
H992 H 0.79276 0.837 0.36003 0.0
H993 H 0.79532 0.85858 0.37562 0.0
H994 H 0.81947 0.83669 0.42007 0.0
H995 H 0.81595 0.81505 0.40485 0.0
H996 H 0.7892 0.85503 0.42885 0.0
H997 H 0.856 0.85511 0.3936 0.0
H998 H 0.87693 0.85395 0.36666 0.0
H999 H 0.84124 0.88946 0.34801 0.0
H1000 H 0.81987 0.89072 0.37478 0.0
H1001 H 0.84517 0.90572 0.47709 0.0
H1002 H 0.83656 0.88631 0.45865 0.0
H1003 H 0.80656 0.91368 0.42145 0.0
H1004 H 0.81547 0.93334 0.43989 0.0
H1005 H 0.83591 0.89408 0.40741 0.0
H1006 H 0.77187 0.89494 0.44461 0.0
H1007 H 0.75278 0.89605 0.4723 0.0
H1008 H 0.78507 0.85852 0.48794 0.0
H1009 H 0.80461 0.85727 0.46042 0.0
C1010 C 0.79837 0.83675 0.37318 0.0
C1011 C 0.80426 0.82426 0.38114 0.0
C1012 C 0.80005 0.84913 0.38203 0.0
C1013 C 0.80787 0.8493 0.39897 0.0
C1014 C 0.81346 0.83684 0.407 0.0
C1015 C 0.81167 0.82447 0.3982 0.0
C1016 C 0.81032 0.8624 0.40843 0.0
C1017 C 0.79956 0.86352 0.42419 0.0
C1018 C 0.82332 0.87365 0.40219 0.0
C1019 C 0.83615 0.87291 0.3861 0.0
C1020 C 0.85248 0.8626 0.3837 0.0
C1021 C 0.86445 0.86194 0.36848 0.0
C1022 C 0.86036 0.8716 0.35561 0.0
C1023 C 0.84435 0.88197 0.35797 0.0
C1024 C 0.83232 0.88267 0.37317 0.0
C1025 C 0.83695 0.90766 0.46491 0.0
C1026 C 0.83111 0.92108 0.4599 0.0
C1027 C 0.83185 0.89653 0.45445 0.0
C1028 C 0.82073 0.89854 0.43876 0.0
C1029 C 0.81509 0.91193 0.43355 0.0
C1030 C 0.82007 0.92311 0.44411 0.0
C1031 C 0.81518 0.88655 0.42791 0.0
C1032 C 0.82532 0.88565 0.41192 0.0
C1033 C 0.80177 0.87544 0.43399 0.0
C1034 C 0.78983 0.87606 0.45049 0.0
C1035 C 0.77501 0.88697 0.45399 0.0
C1036 C 0.76409 0.88762 0.46965 0.0
C1037 C 0.76774 0.87738 0.48188 0.0
C1038 C 0.78226 0.86644 0.47845 0.0
C1039 C 0.79324 0.86575 0.46282 0.0
H1040 H 0.75928 0.8779 0.494 0.0
H1041 H 0.86965 0.87107 0.34384 0.0
H1042 H 0.68647 0.28123 0.78694 0.0
H1043 H 0.6637 0.27732 0.81232 0.0
H1044 H 0.69286 0.23701 0.81826 0.0
H1045 H 0.71588 0.24088 0.79289 0.0
H1046 H 0.64711 0.23642 0.82295 0.0
H1047 H 0.71057 0.26296 0.84367 0.0
H1048 H 0.73789 0.28239 0.84421 0.0
H1049 H 0.68266 0.31041 0.85177 0.0
H1050 H 0.65495 0.29117 0.85103 0.0
H1051 H 0.60239 0.22664 0.90602 0.0
H1052 H 0.62951 0.22927 0.88276 0.0
H1053 H 0.6034 0.26974 0.87206 0.0
H1054 H 0.57607 0.26713 0.89503 0.0
H1055 H 0.64992 0.26923 0.87085 0.0
H1056 H 0.58644 0.24286 0.84836 0.0
H1057 H 0.55902 0.22348 0.84762 0.0
H1058 H 0.61451 0.19513 0.84337 0.0
H1059 H 0.6423 0.21434 0.84433 0.0
C1060 C 0.68823 0.27158 0.79373 0.0
C1061 C 0.70313 0.2614 0.78793 0.0
C1062 C 0.67516 0.26935 0.80823 0.0
C1063 C 0.67681 0.25695 0.81733 0.0
C1064 C 0.69135 0.24667 0.81144 0.0
C1065 C 0.70443 0.24888 0.79691 0.0
C1066 C 0.66316 0.25471 0.8329 0.0
C1067 C 0.64802 0.24346 0.83355 0.0
C1068 C 0.66404 0.26403 0.84661 0.0
C1069 C 0.68066 0.27563 0.84715 0.0
C1070 C 0.70422 0.27328 0.84532 0.0
C1071 C 0.71978 0.28426 0.84568 0.0
C1072 C 0.71201 0.29763 0.84799 0.0
C1073 C 0.68866 0.30005 0.84997 0.0
C1074 C 0.67302 0.28911 0.8496 0.0
C1075 C 0.6024 0.23609 0.8987 0.0
C1076 C 0.58699 0.24666 0.9024 0.0
C1077 C 0.61794 0.23759 0.88544 0.0
C1078 C 0.61832 0.24965 0.87558 0.0
C1079 C 0.60346 0.26036 0.87954 0.0
C1080 C 0.5879 0.25887 0.89276 0.0
C1081 C 0.63372 0.25104 0.86081 0.0
C1082 C 0.64918 0.26213 0.86031 0.0
C1083 C 0.63314 0.24157 0.84725 0.0
C1084 C 0.61646 0.23002 0.84662 0.0
C1085 C 0.59281 0.23248 0.84742 0.0
C1086 C 0.5772 0.22153 0.84693 0.0
C1087 C 0.58502 0.20808 0.8455 0.0
C1088 C 0.60848 0.20556 0.84451 0.0
C1089 C 0.62416 0.21647 0.84502 0.0
H1090 H 0.57291 0.19962 0.84512 0.0
H1091 H 0.72408 0.30611 0.84827 0.0
H1092 H 0.18856 0.81922 0.62286 0.0
H1093 H 0.1842 0.84111 0.60798 0.0
H1094 H 0.24465 0.85684 0.63338 0.0
H1095 H 0.24941 0.83482 0.64817 0.0
H1096 H 0.20964 0.87575 0.63235 0.0
H1097 H 0.2486 0.84712 0.59342 0.0
H1098 H 0.25547 0.82627 0.57676 0.0
H1099 H 0.19133 0.83167 0.55043 0.0
H1100 H 0.18389 0.85245 0.56713 0.0
H1101 H 0.22142 0.93272 0.57378 0.0
H1102 H 0.22809 0.9124 0.59171 0.0
H1103 H 0.16853 0.89272 0.56959 0.0
H1104 H 0.16198 0.9128 0.55153 0.0
H1105 H 0.20615 0.87626 0.56937 0.0
H1106 H 0.16686 0.9046 0.60927 0.0
H1107 H 0.16043 0.92548 0.62598 0.0
H1108 H 0.22613 0.92081 0.65031 0.0
H1109 H 0.2331 0.89999 0.63355 0.0
C1110 C 0.20108 0.82727 0.62519 0.0
C1111 C 0.21949 0.82518 0.63659 0.0
C1112 C 0.19849 0.83981 0.61672 0.0
C1113 C 0.21426 0.85055 0.61942 0.0
C1114 C 0.2323 0.84868 0.63112 0.0
C1115 C 0.23495 0.83609 0.63959 0.0
C1116 C 0.212 0.8636 0.60971 0.0
C1117 C 0.20923 0.87591 0.61858 0.0
C1118 C 0.21118 0.86377 0.59175 0.0
C1119 C 0.21559 0.85128 0.58165 0.0
C1120 C 0.23586 0.8438 0.58418 0.0
C1121 C 0.23988 0.832 0.57471 0.0
C1122 C 0.22382 0.82763 0.56257 0.0
C1123 C 0.20373 0.83506 0.55985 0.0
C1124 C 0.19962 0.84686 0.56931 0.0
C1125 C 0.20969 0.92408 0.57284 0.0
C1126 C 0.19112 0.92439 0.56129 0.0
C1127 C 0.21344 0.91252 0.58314 0.0
C1128 C 0.19875 0.90107 0.58201 0.0
C1129 C 0.18005 0.90145 0.57068 0.0
C1130 C 0.17621 0.913 0.56048 0.0
C1131 C 0.20334 0.88838 0.59199 0.0
C1132 C 0.20666 0.87612 0.58315 0.0
C1133 C 0.20475 0.8883 0.60994 0.0
C1134 C 0.20061 0.90083 0.62001 0.0
C1135 C 0.18003 0.9081 0.61806 0.0
C1136 C 0.17627 0.91991 0.62757 0.0
C1137 C 0.19289 0.9245 0.63916 0.0
C1138 C 0.21329 0.91726 0.6413 0.0
C1139 C 0.21715 0.90545 0.63181 0.0
H1140 H 0.18994 0.93364 0.64651 0.0
H1141 H 0.22697 0.81849 0.55525 0.0
H1142 H 0.71738 0.75829 0.22805 0.0
H1143 H 0.69414 0.75609 0.20216 0.0
H1144 H 0.64781 0.78669 0.22057 0.0
H1145 H 0.67045 0.78856 0.24676 0.0
H1146 H 0.62467 0.76567 0.20697 0.0
H1147 H 0.68799 0.79445 0.1904 0.0
H1148 H 0.72872 0.80059 0.18703 0.0
H1149 H 0.73818 0.7653 0.15561 0.0
H1150 H 0.69754 0.75884 0.15899 0.0
H1151 H 0.56485 0.78109 0.13154 0.0
H1152 H 0.58974 0.78278 0.15644 0.0
H1153 H 0.63479 0.75266 0.13535 0.0
H1154 H 0.61059 0.75149 0.1098 0.0
H1155 H 0.65894 0.77253 0.15019 0.0
H1156 H 0.5951 0.74413 0.16616 0.0
H1157 H 0.55421 0.73828 0.16932 0.0
H1158 H 0.54558 0.77296 0.20188 0.0
H1159 H 0.58636 0.77914 0.19873 0.0
C1160 C 0.70211 0.76445 0.22668 0.0
C1161 C 0.69583 0.77364 0.23947 0.0
C1162 C 0.68897 0.76328 0.21178 0.0
C1163 C 0.66939 0.77136 0.20932 0.0
C1164 C 0.6629 0.7804 0.22216 0.0
C1165 C 0.67599 0.78155 0.23706 0.0
C1166 C 0.65556 0.77038 0.1934 0.0
C1167 C 0.63211 0.76733 0.19457 0.0
C1168 C 0.66537 0.7722 0.17719 0.0
C1169 C 0.68978 0.77609 0.17509 0.0
C1170 C 0.6988 0.78794 0.18288 0.0
C1171 C 0.72186 0.79149 0.18095 0.0
C1172 C 0.73604 0.78332 0.17115 0.0
C1173 C 0.72718 0.7716 0.16322 0.0
C1174 C 0.70413 0.768 0.16513 0.0
C1175 C 0.58029 0.77503 0.13194 0.0
C1176 C 0.58566 0.76614 0.11857 0.0
C1177 C 0.59435 0.77586 0.14636 0.0
C1178 C 0.61387 0.76763 0.14795 0.0
C1179 C 0.61969 0.75903 0.13447 0.0
C1180 C 0.60573 0.75829 0.11992 0.0
C1181 C 0.62801 0.76792 0.16377 0.0
C1182 C 0.65151 0.77082 0.16259 0.0
C1183 C 0.61824 0.76597 0.17999 0.0
C1184 C 0.59376 0.76216 0.18209 0.0
C1185 C 0.58445 0.75056 0.17392 0.0
C1186 C 0.5613 0.74718 0.17571 0.0
C1187 C 0.54729 0.75527 0.18576 0.0
C1188 C 0.55644 0.76672 0.19408 0.0
C1189 C 0.57958 0.77015 0.19231 0.0
H1190 H 0.52937 0.75264 0.18712 0.0
H1191 H 0.75389 0.78608 0.16967 0.0
H1192 H 0.74444 0.17878 0.65414 0.0
H1193 H 0.75261 0.15953 0.63549 0.0
H1194 H 0.82356 0.17202 0.63382 0.0
H1195 H 0.81556 0.19125 0.65255 0.0
H1196 H 0.80735 0.16562 0.60267 0.0
H1197 H 0.80639 0.14481 0.65828 0.0
H1198 H 0.78983 0.1391 0.68612 0.0
H1199 H 0.73326 0.11869 0.66142 0.0
H1200 H 0.74934 0.12445 0.63342 0.0
H1201 H 0.85443 0.1067 0.56694 0.0
H1202 H 0.84504 0.12481 0.58669 0.0
H1203 H 0.77539 0.10992 0.58869 0.0
H1204 H 0.78497 0.09119 0.56958 0.0
H1205 H 0.78966 0.11752 0.61939 0.0
H1206 H 0.79044 0.13793 0.56389 0.0
H1207 H 0.80651 0.1437 0.53591 0.0
H1208 H 0.86254 0.16502 0.56008 0.0
H1209 H 0.84697 0.15922 0.58822 0.0
C1210 C 0.76183 0.17737 0.64993 0.0
C1211 C 0.77937 0.18654 0.6549 0.0
C1212 C 0.76646 0.16636 0.63924 0.0
C1213 C 0.78875 0.16423 0.63341 0.0
C1214 C 0.80623 0.17346 0.63815 0.0
C1215 C 0.8016 0.18449 0.64881 0.0
C1216 C 0.79386 0.15244 0.62226 0.0
C1217 C 0.80375 0.15509 0.60642 0.0
C1218 C 0.78857 0.13872 0.62693 0.0
C1219 C 0.77896 0.13518 0.64376 0.0
C1220 C 0.79033 0.13919 0.65879 0.0
C1221 C 0.78105 0.13593 0.67459 0.0
C1222 C 0.76047 0.12856 0.67554 0.0
C1223 C 0.74918 0.12441 0.66067 0.0
C1224 C 0.75838 0.12766 0.64483 0.0
C1225 C 0.83721 0.10703 0.57182 0.0
C1226 C 0.82046 0.09742 0.56659 0.0
C1227 C 0.83178 0.11756 0.58296 0.0
C1228 C 0.80938 0.11892 0.58891 0.0
C1229 C 0.79275 0.10914 0.58415 0.0
C1230 C 0.79822 0.0985 0.5731 0.0
C1231 C 0.80333 0.13069 0.59985 0.0
C1232 C 0.79323 0.12805 0.61562 0.0
C1233 C 0.80833 0.14444 0.59508 0.0
C1234 C 0.81764 0.14804 0.57817 0.0
C1235 C 0.80627 0.14377 0.56324 0.0
C1236 C 0.81528 0.14706 0.54735 0.0
C1237 C 0.83556 0.15469 0.54622 0.0
C1238 C 0.84684 0.1591 0.56097 0.0
C1239 C 0.83792 0.15582 0.5769 0.0
H1240 H 0.84251 0.15722 0.5339 0.0
H1241 H 0.75331 0.12605 0.68778 0.0
H1242 H 0.30911 0.26923 0.22491 0.0
H1243 H 0.33138 0.27049 0.19888 0.0
H1244 H 0.37168 0.23602 0.21597 0.0
H1245 H 0.35013 0.23506 0.24231 0.0
H1246 H 0.39848 0.25524 0.20297 0.0
H1247 H 0.32914 0.23252 0.18548 0.0
H1248 H 0.28739 0.22952 0.18207 0.0
H1249 H 0.28399 0.26657 0.15232 0.0
H1250 H 0.32571 0.26989 0.15575 0.0
H1251 H 0.45059 0.23981 0.12516 0.0
H1252 H 0.42544 0.23767 0.14963 0.0
H1253 H 0.39091 0.27483 0.13446 0.0
H1254 H 0.41588 0.27695 0.10978 0.0
H1255 H 0.36092 0.25429 0.14611 0.0
H1256 H 0.43067 0.2768 0.16396 0.0
H1257 H 0.47254 0.2793 0.16717 0.0
H1258 H 0.47508 0.24187 0.19624 0.0
H1259 H 0.43324 0.23904 0.19298 0.0
C1260 C 0.32285 0.262 0.22322 0.0
C1261 C 0.32775 0.25201 0.2357 0.0
C1262 C 0.33541 0.26264 0.20823 0.0
C1263 C 0.353 0.25322 0.20534 0.0
C1264 C 0.35811 0.24335 0.21786 0.0
C1265 C 0.34562 0.24274 0.23286 0.0
C1266 C 0.36631 0.25375 0.18939 0.0
C1267 C 0.39026 0.25484 0.19056 0.0
C1268 C 0.35559 0.25351 0.17315 0.0
C1269 C 0.33052 0.25152 0.17102 0.0
C1270 C 0.31947 0.24008 0.17832 0.0
C1271 C 0.29581 0.23831 0.17637 0.0
C1272 C 0.28304 0.24787 0.16702 0.0
C1273 C 0.29391 0.25919 0.15957 0.0
C1274 C 0.31756 0.26102 0.16151 0.0
C1275 C 0.43733 0.24737 0.12682 0.0
C1276 C 0.43526 0.25858 0.11557 0.0
C1277 C 0.4231 0.2462 0.14089 0.0
C1278 C 0.40652 0.25619 0.14396 0.0
C1279 C 0.40367 0.26704 0.13234 0.0
C1280 C 0.418 0.26827 0.11831 0.0
C1281 C 0.393 0.2557 0.15976 0.0
C1282 C 0.36907 0.25465 0.15856 0.0
C1283 C 0.40371 0.2559 0.17598 0.0
C1284 C 0.42885 0.25764 0.17807 0.0
C1285 C 0.44018 0.26905 0.17092 0.0
C1286 C 0.4639 0.27053 0.17277 0.0
C1287 C 0.47647 0.26073 0.18186 0.0
C1288 C 0.46532 0.24944 0.18917 0.0
C1289 C 0.4416 0.2479 0.18734 0.0
H1290 H 0.49483 0.2619 0.18328 0.0
H1291 H 0.26472 0.24648 0.16551 0.0
H1292 H 0.8074 0.6736 0.69868 0.0
H1293 H 0.82788 0.65354 0.6885 0.0
H1294 H 0.87332 0.68 0.66025 0.0
H1295 H 0.85322 0.70012 0.67059 0.0
H1296 H 0.8591 0.65774 0.64168 0.0
H1297 H 0.89057 0.66647 0.69744 0.0
H1298 H 0.88888 0.67012 0.72834 0.0
H1299 H 0.85842 0.6302 0.73497 0.0
H1300 H 0.85964 0.62639 0.70405 0.0
H1301 H 0.95398 0.6153 0.62764 0.0
H1302 H 0.92772 0.63313 0.63636 0.0
H1303 H 0.8882 0.60311 0.66414 0.0
H1304 H 0.91442 0.58506 0.65529 0.0
H1305 H 0.8963 0.62586 0.68277 0.0
H1306 H 0.86752 0.61637 0.62714 0.0
H1307 H 0.86943 0.61272 0.59625 0.0
H1308 H 0.89464 0.65387 0.58925 0.0
H1309 H 0.8932 0.65772 0.62014 0.0
C1310 C 0.82185 0.67517 0.6904 0.0
C1311 C 0.82874 0.68851 0.68555 0.0
C1312 C 0.83348 0.66369 0.68454 0.0
C1313 C 0.85225 0.66528 0.67374 0.0
C1314 C 0.85884 0.67853 0.66855 0.0
C1315 C 0.84726 0.69003 0.67443 0.0
C1316 C 0.86535 0.65318 0.66811 0.0
C1317 C 0.86741 0.65083 0.65065 0.0
C1318 C 0.87564 0.64395 0.67983 0.0
C1319 C 0.87496 0.64621 0.69842 0.0
C1320 C 0.88333 0.65852 0.70547 0.0
C1321 C 0.88249 0.66061 0.72299 0.0
C1322 C 0.87349 0.65042 0.73361 0.0
C1323 C 0.86536 0.6381 0.72673 0.0
C1324 C 0.86613 0.63596 0.70921 0.0
C1325 C 0.93948 0.6124 0.63534 0.0
C1326 C 0.9362 0.5987 0.64062 0.0
C1327 C 0.92449 0.62264 0.64036 0.0
C1328 C 0.9058 0.61944 0.65071 0.0
C1329 C 0.90248 0.6058 0.65611 0.0
C1330 C 0.91751 0.59551 0.65107 0.0
C1331 C 0.8903 0.63049 0.65631 0.0
C1332 C 0.88779 0.63266 0.67378 0.0
C1333 C 0.87959 0.63955 0.64459 0.0
C1334 C 0.88042 0.63729 0.62598 0.0
C1335 C 0.87364 0.62461 0.61903 0.0
C1336 C 0.87461 0.62251 0.60152 0.0
C1337 C 0.8822 0.63305 0.5908 0.0
C1338 C 0.88878 0.64572 0.59757 0.0
C1339 C 0.88787 0.64787 0.61508 0.0
H1340 H 0.88293 0.6314 0.57725 0.0
H1341 H 0.87286 0.65205 0.74717 0.0
H1342 H 0.7992 0.34533 0.34753 0.0
H1343 H 0.82149 0.36533 0.35699 0.0
H1344 H 0.88287 0.34713 0.33758 0.0
H1345 H 0.86075 0.32706 0.32841 0.0
H1346 H 0.89158 0.35775 0.36732 0.0
H1347 H 0.85326 0.37343 0.31629 0.0
H1348 H 0.81994 0.37806 0.29763 0.0
H1349 H 0.7924 0.40494 0.33506 0.0
H1350 H 0.82542 0.40032 0.35404 0.0
H1351 H 0.96577 0.41445 0.35939 0.0
H1352 H 0.93915 0.39575 0.35275 0.0
H1353 H 0.88625 0.41595 0.38066 0.0
H1354 H 0.91287 0.43489 0.38725 0.0
H1355 H 0.87109 0.405 0.34911 0.0
H1356 H 0.91171 0.39034 0.39914 0.0
H1357 H 0.94596 0.38594 0.41691 0.0
H1358 H 0.97004 0.3572 0.38027 0.0
H1359 H 0.93609 0.36158 0.36214 0.0
C1360 C 0.81744 0.34564 0.34525 0.0
C1361 C 0.82823 0.33464 0.33722 0.0
C1362 C 0.83016 0.35708 0.35063 0.0
C1363 C 0.85384 0.35783 0.34781 0.0
C1364 C 0.86464 0.34678 0.33994 0.0
C1365 C 0.85199 0.33531 0.33472 0.0
C1366 C 0.86752 0.37007 0.35305 0.0
C1367 C 0.88718 0.36806 0.36318 0.0
C1368 C 0.8615 0.38359 0.34807 0.0
C1369 C 0.84168 0.38641 0.33666 0.0
C1370 C 0.84001 0.38024 0.32059 0.0
C1371 C 0.82119 0.38288 0.30995 0.0
C1372 C 0.80403 0.39175 0.31518 0.0
C1373 C 0.80568 0.39804 0.33104 0.0
C1374 C 0.82445 0.39543 0.34174 0.0
C1375 C 0.94838 0.41504 0.36391 0.0
C1376 C 0.9414 0.42617 0.37381 0.0
C1377 C 0.93325 0.40428 0.36023 0.0
C1378 C 0.91082 0.40441 0.36636 0.0
C1379 C 0.90353 0.41565 0.37586 0.0
C1380 C 0.91876 0.42641 0.37968 0.0
C1381 C 0.89528 0.39259 0.36303 0.0
C1382 C 0.87531 0.39469 0.35332 0.0
C1383 C 0.90108 0.37913 0.36828 0.0
C1384 C 0.92143 0.37638 0.37922 0.0
C1385 C 0.92439 0.38316 0.39481 0.0
C1386 C 0.94374 0.38065 0.40496 0.0
C1387 C 0.96019 0.37132 0.39971 0.0
C1388 C 0.95729 0.36444 0.38431 0.0
C1389 C 0.93798 0.36692 0.37411 0.0
H1390 H 0.97516 0.36939 0.40758 0.0
H1391 H 0.78948 0.39378 0.30692 0.0
H1392 H 0.22065 0.35111 0.68674 0.0
H1393 H 0.19847 0.37083 0.67679 0.0
H1394 H 0.14928 0.34355 0.65315 0.0
H1395 H 0.17116 0.32376 0.66325 0.0
H1396 H 0.15975 0.36543 0.63264 0.0
H1397 H 0.13786 0.35783 0.6907 0.0
H1398 H 0.14466 0.35484 0.72146 0.0
H1399 H 0.17544 0.39498 0.72395 0.0
H1400 H 0.1691 0.39812 0.69313 0.0
H1401 H 0.06239 0.4074 0.62376 0.0
H1402 H 0.09027 0.38982 0.6311 0.0
H1403 H 0.13393 0.42042 0.65443 0.0
H1404 H 0.10606 0.43822 0.64694 0.0
H1405 H 0.12918 0.39809 0.67458 0.0
H1406 H 0.14828 0.4064 0.61669 0.0
H1407 H 0.14107 0.40933 0.58598 0.0
H1408 H 0.11541 0.36797 0.58302 0.0
H1409 H 0.12216 0.36485 0.61378 0.0
C1410 C 0.20505 0.34929 0.6795 0.0
C1411 C 0.19761 0.33582 0.6759 0.0
C1412 C 0.19244 0.36058 0.67377 0.0
C1413 C 0.1721 0.35866 0.66438 0.0
C1414 C 0.16496 0.34527 0.66035 0.0
C1415 C 0.17753 0.33396 0.6661 0.0
C1416 C 0.15792 0.37057 0.65912 0.0
C1417 C 0.15289 0.37251 0.6418 0.0
C1418 C 0.14948 0.38001 0.67105 0.0
C1419 C 0.15324 0.37815 0.68958 0.0
C1420 C 0.14625 0.36597 0.69778 0.0
C1421 C 0.14999 0.36426 0.71523 0.0
C1422 C 0.16054 0.3747 0.72464 0.0
C1423 C 0.16731 0.38689 0.71664 0.0
C1424 C 0.16364 0.38865 0.69918 0.0
C1425 C 0.07811 0.41049 0.63016 0.0
C1426 C 0.08205 0.42428 0.63462 0.0
C1427 C 0.09403 0.40038 0.63439 0.0
C1428 C 0.11434 0.40382 0.64313 0.0
C1429 C 0.11838 0.41755 0.64765 0.0
C1430 C 0.10242 0.4277 0.6434 0.0
C1431 C 0.13079 0.39291 0.64809 0.0
C1432 C 0.13623 0.39112 0.66537 0.0
C1433 C 0.13959 0.38362 0.63611 0.0
C1434 C 0.13556 0.38543 0.61758 0.0
C1435 C 0.14094 0.39796 0.60952 0.0
C1436 C 0.13696 0.39965 0.5921 0.0
C1437 C 0.12775 0.38885 0.58256 0.0
C1438 C 0.12253 0.37633 0.59043 0.0
C1439 C 0.12646 0.37459 0.60786 0.0
H1440 H 0.12468 0.39018 0.56907 0.0
H1441 H 0.16341 0.37335 0.73815 0.0
H1442 H 0.21611 0.69202 0.36112 0.0
H1443 H 0.1967 0.66998 0.36593 0.0
H1444 H 0.134 0.68679 0.34538 0.0
H1445 H 0.15323 0.70885 0.3408 0.0
H1446 H 0.12537 0.67327 0.3733 0.0
H1447 H 0.16803 0.66392 0.32297 0.0
H1448 H 0.20253 0.66249 0.30539 0.0
H1449 H 0.23235 0.63394 0.3409 0.0
H1450 H 0.19813 0.63534 0.35883 0.0
H1451 H 0.06064 0.6134 0.35889 0.0
H1452 H 0.0846 0.63358 0.35355 0.0
H1453 H 0.13973 0.61535 0.38255 0.0
H1454 H 0.11582 0.59494 0.38784 0.0
H1455 H 0.15383 0.62886 0.35185 0.0
H1456 H 0.10975 0.63785 0.40151 0.0
H1457 H 0.07438 0.63902 0.41816 0.0
H1458 H 0.04649 0.6683 0.3827 0.0
H1459 H 0.08158 0.66715 0.36568 0.0
C1460 C 0.19824 0.69096 0.35749 0.0
C1461 C 0.18618 0.70217 0.35061 0.0
C1462 C 0.18716 0.67835 0.36022 0.0
C1463 C 0.1639 0.67666 0.35588 0.0
C1464 C 0.15192 0.68784 0.34889 0.0
C1465 C 0.16291 0.70045 0.3463 0.0
C1466 C 0.15177 0.66342 0.35903 0.0
C1467 C 0.1315 0.6636 0.36842 0.0
C1468 C 0.16004 0.65071 0.35309 0.0
C1469 C 0.18062 0.64985 0.34233 0.0
C1470 C 0.18202 0.65742 0.3271 0.0
C1471 C 0.20151 0.6566 0.31706 0.0
C1472 C 0.21965 0.64816 0.32205 0.0
C1473 C 0.21831 0.64049 0.33707 0.0
C1474 C 0.19886 0.64129 0.34717 0.0
C1475 C 0.07801 0.61354 0.36386 0.0
C1476 C 0.08635 0.60256 0.37378 0.0
C1477 C 0.09162 0.62513 0.36091 0.0
C1478 C 0.11384 0.626 0.36779 0.0
C1479 C 0.1226 0.61487 0.37716 0.0
C1480 C 0.10889 0.60327 0.38025 0.0
C1481 C 0.12736 0.63884 0.36581 0.0
C1482 C 0.14785 0.63856 0.35674 0.0
C1483 C 0.11926 0.65149 0.37193 0.0
C1484 C 0.09822 0.65232 0.38224 0.0
C1485 C 0.09601 0.64446 0.39719 0.0
C1486 C 0.07602 0.64513 0.40671 0.0
C1487 C 0.05818 0.6537 0.40147 0.0
C1488 C 0.06032 0.66165 0.38673 0.0
C1489 C 0.08026 0.66101 0.37715 0.0
H1490 H 0.04271 0.6542 0.40885 0.0
H1491 H 0.23473 0.64754 0.31426 0.0
H1492 H 0.82051 0.83462 0.66157 0.0
H1493 H 0.82318 0.85651 0.64627 0.0
H1494 H 0.78747 0.83865 0.60341 0.0
H1495 H 0.78493 0.81673 0.61859 0.0
H1496 H 0.82335 0.85258 0.593 0.0
H1497 H 0.76143 0.8615 0.63061 0.0
H1498 H 0.74211 0.86288 0.65818 0.0
H1499 H 0.79227 0.89222 0.67554 0.0
H1500 H 0.81208 0.89087 0.64813 0.0
H1501 H 0.80031 0.91263 0.54642 0.0
H1502 H 0.79414 0.89248 0.56438 0.0
H1503 H 0.8364 0.9105 0.60373 0.0
H1504 H 0.84224 0.93096 0.58593 0.0
H1505 H 0.79772 0.89695 0.61643 0.0
H1506 H 0.85941 0.88779 0.57839 0.0
H1507 H 0.87773 0.8866 0.55042 0.0
H1508 H 0.82664 0.85763 0.53358 0.0
H1509 H 0.80782 0.8588 0.5614 0.0
C1510 C 0.813 0.83541 0.64896 0.0
C1511 C 0.80253 0.82394 0.64128 0.0
C1512 C 0.81453 0.84793 0.64022 0.0
C1513 C 0.80534 0.84928 0.62373 0.0
C1514 C 0.79474 0.83786 0.6161 0.0
C1515 C 0.79335 0.82532 0.62477 0.0
C1516 C 0.80742 0.86244 0.61416 0.0
C1517 C 0.81744 0.86223 0.59806 0.0
C1518 C 0.80025 0.87513 0.62089 0.0
C1519 C 0.78837 0.87597 0.63738 0.0
C1520 C 0.76845 0.86816 0.64035 0.0
C1521 C 0.75739 0.86895 0.65594 0.0
C1522 C 0.766 0.8776 0.66862 0.0
C1523 C 0.78565 0.8855 0.66572 0.0
C1524 C 0.79679 0.88474 0.65015 0.0
C1525 C 0.80788 0.91249 0.55904 0.0
C1526 C 0.82182 0.92342 0.56472 0.0
C1527 C 0.8045 0.90089 0.56923 0.0
C1528 C 0.81507 0.89992 0.58529 0.0
C1529 C 0.82817 0.91103 0.59134 0.0
C1530 C 0.83161 0.92266 0.58112 0.0
C1531 C 0.81339 0.88699 0.59528 0.0
C1532 C 0.80358 0.88726 0.61144 0.0
C1533 C 0.82063 0.87433 0.58859 0.0
C1534 C 0.83209 0.87347 0.57193 0.0
C1535 C 0.85199 0.88123 0.56869 0.0
C1536 C 0.86248 0.88055 0.55287 0.0
C1537 C 0.85332 0.87207 0.54022 0.0
C1538 C 0.8337 0.86421 0.54339 0.0
C1539 C 0.82313 0.86486 0.55918 0.0
H1540 H 0.86146 0.87156 0.52798 0.0
H1541 H 0.75741 0.8782 0.68068 0.0
H1542 H 0.72022 0.26279 0.22485 0.0
H1543 H 0.69769 0.26455 0.19853 0.0
H1544 H 0.64293 0.24138 0.22164 0.0
H1545 H 0.66531 0.23961 0.24798 0.0
H1546 H 0.65132 0.23219 0.1904 0.0
H1547 H 0.63969 0.27625 0.21611 0.0
H1548 H 0.65165 0.29826 0.22884 0.0
H1549 H 0.68604 0.30957 0.1829 0.0
H1550 H 0.67453 0.28753 0.16997 0.0
H1551 H 0.55856 0.24646 0.1351 0.0
H1552 H 0.58506 0.24463 0.15914 0.0
H1553 H 0.63575 0.26781 0.13146 0.0
H1554 H 0.60922 0.26964 0.10719 0.0
H1555 H 0.63205 0.27693 0.16357 0.0
H1556 H 0.64161 0.23335 0.13724 0.0
H1557 H 0.62925 0.21141 0.12454 0.0
H1558 H 0.59862 0.19916 0.1716 0.0
H1559 H 0.61052 0.22113 0.18452 0.0
C1560 C 0.70327 0.2582 0.22438 0.0
C1561 C 0.69455 0.25107 0.23852 0.0
C1562 C 0.69044 0.25919 0.20932 0.0
C1563 C 0.66854 0.25318 0.20815 0.0
C1564 C 0.65981 0.24605 0.22223 0.0
C1565 C 0.67265 0.24503 0.23727 0.0
C1566 C 0.65476 0.25416 0.19221 0.0
C1567 C 0.6469 0.24198 0.18463 0.0
C1568 C 0.64956 0.26692 0.1844 0.0
C1569 C 0.65646 0.28018 0.19215 0.0
C1570 C 0.64996 0.28338 0.20878 0.0
C1571 C 0.65663 0.29587 0.21602 0.0
C1572 C 0.66966 0.30529 0.20671 0.0
C1573 C 0.67599 0.30226 0.19011 0.0
C1574 C 0.66938 0.28977 0.18282 0.0
C1575 C 0.57548 0.25097 0.13397 0.0
C1576 C 0.58184 0.25809 0.11914 0.0
C1577 C 0.5906 0.24995 0.14777 0.0
C1578 C 0.61251 0.25592 0.14703 0.0
C1579 C 0.61893 0.2631 0.13229 0.0
C1580 C 0.60375 0.26415 0.11845 0.0
C1581 C 0.62835 0.25496 0.16188 0.0
C1582 C 0.63661 0.26714 0.16926 0.0
C1583 C 0.63391 0.2422 0.16952 0.0
C1584 C 0.62681 0.22894 0.16181 0.0
C1585 C 0.63209 0.22603 0.14485 0.0
C1586 C 0.62519 0.21358 0.13761 0.0
C1587 C 0.61312 0.20391 0.14724 0.0
C1588 C 0.60796 0.20666 0.16415 0.0
C1589 C 0.61481 0.21911 0.17144 0.0
H1590 H 0.60779 0.19428 0.14162 0.0
H1591 H 0.6748 0.31496 0.21233 0.0
H1592 H 0.20507 0.19105 0.65319 0.0
H1593 H 0.20219 0.16897 0.63871 0.0
H1594 H 0.2478 0.18397 0.59997 0.0
H1595 H 0.2504 0.20614 0.61427 0.0
H1596 H 0.21331 0.17145 0.5857 0.0
H1597 H 0.26494 0.16031 0.63112 0.0
H1598 H 0.27871 0.15873 0.66078 0.0
H1599 H 0.22136 0.13292 0.67331 0.0
H1600 H 0.20705 0.13449 0.64376 0.0
H1601 H 0.23359 0.1074 0.54734 0.0
H1602 H 0.24132 0.12747 0.56511 0.0
H1603 H 0.1837 0.11681 0.59637 0.0
H1604 H 0.17575 0.09672 0.57852 0.0
H1605 H 0.22523 0.12658 0.61461 0.0
H1606 H 0.17363 0.13884 0.56855 0.0
H1607 H 0.16168 0.14008 0.53845 0.0
H1608 H 0.22189 0.16375 0.52688 0.0
H1609 H 0.23439 0.16245 0.55689 0.0
C1610 C 0.21467 0.18958 0.64168 0.0
C1611 C 0.22797 0.20033 0.63487 0.0
C1612 C 0.21306 0.17694 0.63343 0.0
C1613 C 0.225 0.17472 0.61833 0.0
C1614 C 0.2384 0.18543 0.61158 0.0
C1615 C 0.23985 0.1981 0.61974 0.0
C1616 C 0.22283 0.16143 0.60923 0.0
C1617 C 0.21628 0.16167 0.59201 0.0
C1618 C 0.22627 0.14861 0.61747 0.0
C1619 C 0.2348 0.14764 0.63526 0.0
C1620 C 0.25516 0.15439 0.64023 0.0
C1621 C 0.26308 0.15348 0.65702 0.0
C1622 C 0.25089 0.14576 0.66893 0.0
C1623 C 0.23077 0.13891 0.66407 0.0
C1624 C 0.22275 0.1398 0.6473 0.0
C1625 C 0.2229 0.10915 0.55823 0.0
C1626 C 0.20405 0.10052 0.56156 0.0
C1627 C 0.22726 0.12064 0.56831 0.0
C1628 C 0.21299 0.12364 0.58196 0.0
C1629 C 0.19491 0.11464 0.58589 0.0
C1630 C 0.19033 0.10323 0.57566 0.0
C1631 C 0.21584 0.13672 0.59123 0.0
C1632 C 0.22241 0.13641 0.6084 0.0
C1633 C 0.21268 0.1495 0.58294 0.0
C1634 C 0.20507 0.15042 0.56492 0.0
C1635 C 0.18442 0.14421 0.55956 0.0
C1636 C 0.17753 0.14494 0.54252 0.0
C1637 C 0.19105 0.15196 0.53074 0.0
C1638 C 0.21146 0.1583 0.536 0.0
C1639 C 0.21845 0.15757 0.55303 0.0
H1640 H 0.18568 0.15252 0.51756 0.0
H1641 H 0.25705 0.14506 0.68192 0.0
H1642 H 0.31535 0.77675 0.22748 0.0
H1643 H 0.33904 0.77956 0.20226 0.0
H1644 H 0.3817 0.74612 0.21927 0.0
H1645 H 0.35846 0.74347 0.2447 0.0
H1646 H 0.40705 0.76744 0.20679 0.0
H1647 H 0.34044 0.74103 0.18944 0.0
H1648 H 0.29902 0.73667 0.18582 0.0
H1649 H 0.29285 0.77303 0.155 0.0
H1650 H 0.33421 0.7777 0.15864 0.0
H1651 H 0.46174 0.74598 0.13327 0.0
H1652 H 0.43778 0.74758 0.15818 0.0
H1653 H 0.39862 0.77971 0.13389 0.0
H1654 H 0.42202 0.77773 0.10842 0.0
H1655 H 0.37106 0.76185 0.14981 0.0
H1656 H 0.43827 0.78725 0.16493 0.0
H1657 H 0.47974 0.79153 0.1682 0.0
H1658 H 0.48505 0.75756 0.20301 0.0
H1659 H 0.44362 0.75295 0.19978 0.0
C1660 C 0.32996 0.77012 0.22596 0.0
C1661 C 0.33495 0.75983 0.23805 0.0
C1662 C 0.34337 0.77167 0.21148 0.0
C1663 C 0.36198 0.76295 0.20879 0.0
C1664 C 0.36738 0.75294 0.22107 0.0
C1665 C 0.35396 0.75135 0.23551 0.0
C1666 C 0.3755 0.76395 0.193 0.0
C1667 C 0.39923 0.76612 0.19433 0.0
C1668 C 0.36518 0.76263 0.17672 0.0
C1669 C 0.34035 0.7598 0.17447 0.0
C1670 C 0.33021 0.74815 0.18201 0.0
C1671 C 0.30676 0.74562 0.17993 0.0
C1672 C 0.2933 0.75459 0.17023 0.0
C1673 C 0.30329 0.7661 0.16254 0.0
C1674 C 0.32673 0.76869 0.16459 0.0
C1675 C 0.4478 0.75324 0.13304 0.0
C1676 C 0.44375 0.76168 0.11875 0.0
C1677 C 0.43431 0.75429 0.14743 0.0
C1678 C 0.41666 0.76394 0.14804 0.0
C1679 C 0.41227 0.77225 0.13374 0.0
C1680 C 0.42574 0.77117 0.11924 0.0
C1681 C 0.40271 0.76512 0.16359 0.0
C1682 C 0.37889 0.76335 0.16223 0.0
C1683 C 0.41295 0.76686 0.17984 0.0
C1684 C 0.43784 0.7697 0.18202 0.0
C1685 C 0.44829 0.78064 0.17321 0.0
C1686 C 0.47179 0.78313 0.17507 0.0
C1687 C 0.48502 0.7748 0.18578 0.0
C1688 C 0.47477 0.76399 0.19471 0.0
C1689 C 0.45127 0.76145 0.19289 0.0
H1690 H 0.50322 0.77675 0.18719 0.0
H1691 H 0.27515 0.75261 0.16863 0.0
H1692 H 0.77033 0.19512 0.38029 0.0
H1693 H 0.77457 0.17313 0.39519 0.0
H1694 H 0.84795 0.1763 0.39083 0.0
H1695 H 0.84382 0.19814 0.3756 0.0
H1696 H 0.83201 0.15019 0.38419 0.0
H1697 H 0.82286 0.18462 0.4273 0.0
H1698 H 0.80336 0.20369 0.4414 0.0
H1699 H 0.74387 0.17822 0.44859 0.0
H1700 H 0.76293 0.15905 0.43431 0.0
H1701 H 0.86847 0.1035 0.44829 0.0
H1702 H 0.86117 0.12296 0.42942 0.0
H1703 H 0.78916 0.12047 0.44066 0.0
H1704 H 0.79652 0.10157 0.46038 0.0
H1705 H 0.80251 0.14571 0.44275 0.0
H1706 H 0.81183 0.11078 0.4012 0.0
H1707 H 0.83078 0.0916 0.38691 0.0
H1708 H 0.88879 0.1175 0.37635 0.0
H1709 H 0.87031 0.13679 0.39078 0.0
C1710 C 0.78735 0.19105 0.38231 0.0
C1711 C 0.80675 0.19841 0.37685 0.0
C1712 C 0.78975 0.17853 0.39093 0.0
C1713 C 0.81159 0.17315 0.39427 0.0
C1714 C 0.83094 0.18028 0.38842 0.0
C1715 C 0.82856 0.19282 0.37986 0.0
C1716 C 0.81435 0.16031 0.40432 0.0
C1717 C 0.82575 0.14922 0.39705 0.0
C1718 C 0.80565 0.15895 0.42093 0.0
C1719 C 0.79423 0.17045 0.42958 0.0
C1720 C 0.80555 0.18312 0.43177 0.0
C1721 C 0.79459 0.19394 0.43981 0.0
C1722 C 0.77237 0.19218 0.44584 0.0
C1723 C 0.76108 0.17958 0.44389 0.0
C1724 C 0.77195 0.16873 0.43583 0.0
C1725 C 0.85107 0.10709 0.44679 0.0
C1726 C 0.83312 0.10094 0.45596 0.0
C1727 C 0.84686 0.11813 0.43579 0.0
C1728 C 0.82455 0.12313 0.43343 0.0
C1729 C 0.80651 0.11679 0.44221 0.0
C1730 C 0.81074 0.10585 0.45336 0.0
C1731 C 0.82024 0.13549 0.42268 0.0
C1732 C 0.8086 0.14655 0.42983 0.0
C1733 C 0.82861 0.13677 0.40593 0.0
C1734 C 0.83975 0.1252 0.3972 0.0
C1735 C 0.8287 0.11236 0.39594 0.0
C1736 C 0.83934 0.10147 0.3878 0.0
C1737 C 0.861 0.10332 0.38076 0.0
C1738 C 0.87202 0.11608 0.38182 0.0
C1739 C 0.86146 0.127 0.38996 0.0
H1740 H 0.86921 0.09488 0.37447 0.0
H1741 H 0.76391 0.20057 0.45207 0.0
H1742 H 0.34888 0.26619 0.76864 0.0
H1743 H 0.37212 0.26733 0.79467 0.0
H1744 H 0.32691 0.23812 0.81878 0.0
H1745 H 0.30334 0.23711 0.79287 0.0
H1746 H 0.33912 0.25957 0.83999 0.0
H1747 H 0.37636 0.22745 0.80348 0.0
H1748 H 0.39394 0.21983 0.77691 0.0
H1749 H 0.44454 0.2519 0.78102 0.0
H1750 H 0.42705 0.25984 0.80752 0.0
H1751 H 0.4118 0.2384 0.90841 0.0
H1752 H 0.38626 0.23996 0.88368 0.0
H1753 H 0.43565 0.2657 0.85815 0.0
H1754 H 0.46173 0.26361 0.88241 0.0
H1755 H 0.42097 0.24662 0.83759 0.0
H1756 H 0.38488 0.27856 0.87432 0.0
H1757 H 0.36739 0.28659 0.90075 0.0
H1758 H 0.31495 0.25563 0.89623 0.0
H1759 H 0.33232 0.24729 0.86988 0.0
C1760 C 0.34372 0.26014 0.77955 0.0
C1761 C 0.32433 0.25151 0.77868 0.0
C1762 C 0.3571 0.26073 0.79437 0.0
C1763 C 0.35136 0.2527 0.80859 0.0
C1764 C 0.33167 0.24437 0.80793 0.0
C1765 C 0.31834 0.24372 0.79308 0.0
C1766 C 0.36626 0.25269 0.82398 0.0
C1767 C 0.35696 0.2566 0.83954 0.0
C1768 C 0.38965 0.24912 0.82328 0.0
C1769 C 0.40025 0.24433 0.80739 0.0
C1770 C 0.39112 0.23295 0.79865 0.0
C1771 C 0.40109 0.22856 0.78361 0.0
C1772 C 0.4203 0.2354 0.77725 0.0
C1773 C 0.42963 0.24662 0.78595 0.0
C1774 C 0.41971 0.25107 0.80098 0.0
C1775 C 0.41725 0.24438 0.89753 0.0
C1776 C 0.43887 0.25088 0.89745 0.0
C1777 C 0.4025 0.2454 0.88346 0.0
C1778 C 0.40891 0.25307 0.86909 0.0
C1779 C 0.43028 0.25976 0.8691 0.0
C1780 C 0.44509 0.25867 0.8831 0.0
C1781 C 0.39391 0.25355 0.8537 0.0
C1782 C 0.40317 0.24968 0.8381 0.0
C1783 C 0.37053 0.25722 0.85438 0.0
C1784 C 0.36003 0.26222 0.87021 0.0
C1785 C 0.36973 0.27339 0.87903 0.0
C1786 C 0.35981 0.27801 0.89398 0.0
C1787 C 0.34011 0.2716 0.90018 0.0
C1788 C 0.33024 0.26058 0.89142 0.0
C1789 C 0.34009 0.25591 0.87647 0.0
H1790 H 0.33246 0.27519 0.91176 0.0
H1791 H 0.428 0.23198 0.76561 0.0
H1792 H 0.23128 0.82501 0.38495 0.0
H1793 H 0.2212 0.84446 0.40268 0.0
H1794 H 0.25449 0.87215 0.36772 0.0
H1795 H 0.26419 0.8528 0.34965 0.0
H1796 H 0.26553 0.87765 0.40141 0.0
H1797 H 0.19796 0.87017 0.36722 0.0
H1798 H 0.16634 0.8565 0.35477 0.0
H1799 H 0.14167 0.84701 0.40464 0.0
H1800 H 0.17336 0.86046 0.41741 0.0
H1801 H 0.22016 0.93873 0.43718 0.0
H1802 H 0.23092 0.92056 0.41751 0.0
H1803 H 0.19302 0.89097 0.44723 0.0
H1804 H 0.18214 0.90902 0.46676 0.0
H1805 H 0.18444 0.88714 0.41478 0.0
H1806 H 0.25206 0.89333 0.44927 0.0
H1807 H 0.28394 0.90632 0.46247 0.0
H1808 H 0.30879 0.91747 0.41316 0.0
H1809 H 0.27685 0.9047 0.39966 0.0
C1810 C 0.23626 0.83524 0.3809 0.0
C1811 C 0.24847 0.83731 0.36579 0.0
C1812 C 0.23057 0.84634 0.3911 0.0
C1813 C 0.23694 0.85976 0.38644 0.0
C1814 C 0.24945 0.86188 0.37156 0.0
C1815 C 0.25506 0.85078 0.36129 0.0
C1816 C 0.23043 0.87157 0.39708 0.0
C1817 C 0.24779 0.87987 0.40414 0.0
C1818 C 0.20731 0.87426 0.40092 0.0
C1819 C 0.18816 0.86623 0.39327 0.0
C1820 C 0.1859 0.86508 0.37554 0.0
C1821 C 0.16795 0.85739 0.36842 0.0
C1822 C 0.15204 0.85086 0.37891 0.0
C1823 C 0.15402 0.85205 0.39653 0.0
C1824 C 0.17196 0.85972 0.40372 0.0
C1825 C 0.21422 0.92833 0.43953 0.0
C1826 C 0.20021 0.92533 0.45348 0.0
C1827 C 0.22039 0.91796 0.4283 0.0
C1828 C 0.21292 0.90436 0.43095 0.0
C1829 C 0.19889 0.90138 0.44485 0.0
C1830 C 0.19262 0.91173 0.45598 0.0
C1831 C 0.21956 0.89317 0.4193 0.0
C1832 C 0.2022 0.88499 0.41201 0.0
C1833 C 0.24269 0.89052 0.41538 0.0
C1834 C 0.26192 0.89819 0.42346 0.0
C1835 C 0.26421 0.89865 0.44125 0.0
C1836 C 0.28231 0.90596 0.44878 0.0
C1837 C 0.29834 0.91275 0.43866 0.0
C1838 C 0.29634 0.91223 0.42098 0.0
C1839 C 0.27825 0.90495 0.41338 0.0
H1840 H 0.31235 0.9184 0.44452 0.0
H1841 H 0.13815 0.84491 0.37337 0.0
H1842 H 0.68149 0.75972 0.77473 0.0
H1843 H 0.65751 0.75878 0.79995 0.0
H1844 H 0.7027 0.78759 0.82512 0.0
H1845 H 0.72702 0.78841 0.80002 0.0
H1846 H 0.68903 0.76616 0.84632 0.0
H1847 H 0.65436 0.79887 0.80806 0.0
H1848 H 0.63818 0.80689 0.78071 0.0
H1849 H 0.58643 0.77538 0.78288 0.0
H1850 H 0.60251 0.76705 0.81014 0.0
H1851 H 0.61296 0.78657 0.91156 0.0
H1852 H 0.63982 0.78554 0.88806 0.0
H1853 H 0.592 0.76021 0.85991 0.0
H1854 H 0.5647 0.76173 0.88292 0.0
H1855 H 0.60768 0.77982 0.84034 0.0
H1856 H 0.64155 0.74706 0.8785 0.0
H1857 H 0.65767 0.73857 0.90564 0.0
H1858 H 0.7106 0.76937 0.90365 0.0
H1859 H 0.6946 0.77817 0.87659 0.0
C1860 C 0.6865 0.76571 0.78571 0.0
C1861 C 0.7061 0.77419 0.78536 0.0
C1862 C 0.6727 0.76524 0.80006 0.0
C1863 C 0.67821 0.77323 0.81433 0.0
C1864 C 0.69812 0.78138 0.81422 0.0
C1865 C 0.71188 0.78192 0.79983 0.0
C1866 C 0.66278 0.77341 0.82913 0.0
C1867 C 0.67131 0.7693 0.84509 0.0
C1868 C 0.63954 0.77722 0.82741 0.0
C1869 C 0.62978 0.78225 0.81106 0.0
C1870 C 0.63964 0.79358 0.80264 0.0
C1871 C 0.63047 0.7982 0.78716 0.0
C1872 C 0.61133 0.79163 0.78004 0.0
C1873 C 0.60128 0.78045 0.7884 0.0
C1874 C 0.6104 0.77579 0.80387 0.0
C1875 C 0.60814 0.78079 0.90036 0.0
C1876 C 0.58664 0.77422 0.89919 0.0
C1877 C 0.62363 0.78009 0.887 0.0
C1878 C 0.61803 0.77268 0.87226 0.0
C1879 C 0.59674 0.76595 0.87116 0.0
C1880 C 0.58123 0.76672 0.88445 0.0
C1881 C 0.63382 0.77246 0.85761 0.0
C1882 C 0.62537 0.77663 0.84163 0.0
C1883 C 0.65707 0.76863 0.85933 0.0
C1884 C 0.66673 0.76336 0.8756 0.0
C1885 C 0.65651 0.7521 0.88392 0.0
C1886 C 0.66565 0.74721 0.89927 0.0
C1887 C 0.68511 0.75345 0.90639 0.0
C1888 C 0.69551 0.76456 0.89814 0.0
C1889 C 0.68642 0.7695 0.88278 0.0
H1890 H 0.69216 0.74965 0.91828 0.0
H1891 H 0.60425 0.79521 0.76806 0.0
loop_
_geom_bond_atom_site_label_1
_geom_bond_atom_site_label_2
_geom_bond_distance
_geom_bond_site_symmetry_2
_ccdc_geom_bond_type
C0 C1 1.264 . S
C0 C5 1.479 . S
C0 C10 1.465 . S
C1 C0 1.264 . S
C1 C3 1.339 . S
C1 H28 0.931 . S
C2 C3 1.395 . S
C2 C4 1.320 . S
C3 C1 1.339 . S
C3 C2 1.395 . S
C3 H29 0.929 . S
C4 C2 1.320 . S
C4 C5 1.405 . S
C4 H30 0.930 . S
C5 C0 1.479 . S
C5 C4 1.405 . S
C5 H31 0.931 . S
U6 O7 2.454 . S
U6 O8 2.458 . S
U6 C9 2.984 . S
U6 C10 2.847 . S
U6 C23 2.882 . S
U6 O24 2.441 . S
U6 O25 2.420 . S
U6 O26 2.455 . S
U6 O27 2.449 . S
O7 U6 2.454 . S
O7 C9 1.353 . S
O8 U6 2.458 . S
O8 C9 1.286 . S
C9 U6 2.984 . S
C9 O7 1.353 . S
C9 O8 1.286 . S
C9 C11 1.363 . S
C10 C0 1.465 . S
C10 U6 2.847 . S
C10 O24 1.249 . S
C10 O25 1.202 . S
C11 C9 1.363 . S
C11 C13 1.408 . S
C11 C16 1.342 . S
C12 C13 1.310 . S
C12 C15 1.461 . S
C12 H32 0.932 . S
C13 C11 1.408 . S
C13 C12 1.310 . S
C13 H33 0.930 . S
C14 C15 1.474 . S
C14 C16 1.285 . S
C14 H34 0.929 . S
C15 C12 1.461 . S
C15 C14 1.474 . S
C16 C11 1.342 . S
C16 C14 1.285 . S
C16 H35 0.930 . S
C17 C20 1.424 . S
C17 C22 1.245 . S
C17 C23 1.428 . S
C18 C21 1.260 . S
C18 C22 1.477 . S
C18 H36 0.932 . S
C19 C20 1.384 . S
C19 C21 1.479 . S
C19 H37 0.929 . S
C20 C17 1.424 . S
C20 C19 1.384 . S
C20 H38 0.928 . S
C21 C18 1.260 . S
C21 C19 1.479 . S
C22 C17 1.245 . S
C22 C18 1.477 . S
C22 H39 0.932 . S
C23 U6 2.882 . S
C23 C17 1.428 . S
C23 O26 1.301 . S
C23 O27 1.282 . S
O24 U6 2.441 . S
O24 C10 1.249 . S
O25 U6 2.420 . S
O25 C10 1.202 . S
O26 U6 2.455 . S
O26 C23 1.301 . S
O27 U6 2.449 . S
O27 C23 1.282 . S
H28 C1 0.931 . S
H29 C3 0.929 . S
H30 C4 0.930 . S
H31 C5 0.931 . S
H32 C12 0.932 . S
H33 C13 0.930 . S
H34 C14 0.929 . S
H35 C16 0.930 . S
H36 C18 0.932 . S
H37 C19 0.929 . S
H38 C20 0.928 . S
H39 C22 0.932 . S
C40 C41 1.264 . S
C40 C45 1.479 . S
C40 C50 1.465 . S
C41 C40 1.264 . S
C41 C43 1.339 . S
C41 H68 0.931 . S
C42 C43 1.395 . S
C42 C44 1.320 . S
C43 C41 1.339 . S
C43 C42 1.395 . S
C43 H69 0.929 . S
C44 C42 1.320 . S
C44 C45 1.405 . S
C44 H70 0.930 . S
C45 C40 1.479 . S
C45 C44 1.405 . S
C45 H71 0.931 . S
U46 O47 2.454 . S
U46 O48 2.458 . S
U46 C49 2.984 . S
U46 C50 2.847 . S
U46 C63 2.882 . S
U46 O64 2.441 . S
U46 O65 2.420 . S
U46 O66 2.455 . S
U46 O67 2.449 . S
O47 U46 2.454 . S
O47 C49 1.353 . S
O48 U46 2.458 . S
O48 C49 1.286 . S
C49 U46 2.984 . S
C49 O47 1.353 . S
C49 O48 1.286 . S
C49 C51 1.363 . S
C50 C40 1.465 . S
C50 U46 2.847 . S
C50 O64 1.249 . S
C50 O65 1.202 . S
C51 C49 1.363 . S
C51 C53 1.408 . S
C51 C56 1.342 . S
C52 C53 1.310 . S
C52 C55 1.461 . S
C52 H72 0.932 . S
C53 C51 1.408 . S
C53 C52 1.310 . S
C53 H73 0.930 . S
C54 C55 1.474 . S
C54 C56 1.285 . S
C54 H74 0.929 . S
C55 C52 1.461 . S
C55 C54 1.474 . S
C56 C51 1.342 . S
C56 C54 1.285 . S
C56 H75 0.930 . S
C57 C60 1.424 . S
C57 C62 1.245 . S
C57 C63 1.428 . S
C58 C61 1.260 . S
C58 C62 1.477 . S
C58 H76 0.932 . S
C59 C60 1.384 . S
C59 C61 1.479 . S
C59 H77 0.929 . S
C60 C57 1.424 . S
C60 C59 1.384 . S
C60 H78 0.928 . S
C61 C58 1.260 . S
C61 C59 1.479 . S
C62 C57 1.245 . S
C62 C58 1.477 . S
C62 H79 0.932 . S
C63 U46 2.882 . S
C63 C57 1.428 . S
C63 O66 1.301 . S
C63 O67 1.282 . S
O64 U46 2.441 . S
O64 C50 1.249 . S
O65 U46 2.420 . S
O65 C50 1.202 . S
O66 U46 2.455 . S
O66 C63 1.301 . S
O67 U46 2.449 . S
O67 C63 1.282 . S
H68 C41 0.931 . S
H69 C43 0.929 . S
H70 C44 0.930 . S
H71 C45 0.931 . S
H72 C52 0.932 . S
H73 C53 0.930 . S
H74 C54 0.929 . S
H75 C56 0.930 . S
H76 C58 0.932 . S
H77 C59 0.929 . S
H78 C60 0.928 . S
H79 C62 0.932 . S
C80 C81 1.264 . S
C80 C85 1.479 . S
C80 C90 1.465 . S
C81 C80 1.264 . S
C81 C83 1.339 . S
C81 H108 0.931 . S
C82 C83 1.395 . S
C82 C84 1.320 . S
C83 C81 1.339 . S
C83 C82 1.395 . S
C83 H109 0.929 . S
C84 C82 1.320 . S
C84 C85 1.405 . S
C84 H110 0.930 . S
C85 C80 1.479 . S
C85 C84 1.405 . S
C85 H111 0.931 . S
U86 O87 2.454 . S
U86 O88 2.458 . S
U86 C89 2.984 . S
U86 C90 2.847 . S
U86 C103 2.882 . S
U86 O104 2.441 . S
U86 O105 2.420 . S
U86 O106 2.455 . S
U86 O107 2.449 . S
O87 U86 2.454 . S
O87 C89 1.353 . S
O88 U86 2.458 . S
O88 C89 1.286 . S
C89 U86 2.984 . S
C89 O87 1.353 . S
C89 O88 1.286 . S
C89 C91 1.363 . S
C90 C80 1.465 . S
C90 U86 2.847 . S
C90 O104 1.249 . S
C90 O105 1.202 . S
C91 C89 1.363 . S
C91 C93 1.408 . S
C91 C96 1.342 . S
C92 C93 1.310 . S
C92 C95 1.461 . S
C92 H112 0.932 . S
C93 C91 1.408 . S
C93 C92 1.310 . S
C93 H113 0.930 . S
C94 C95 1.474 . S
C94 C96 1.285 . S
C94 H114 0.929 . S
C95 C92 1.461 . S
C95 C94 1.474 . S
C96 C91 1.342 . S
C96 C94 1.285 . S
C96 H115 0.930 . S
C97 C100 1.424 . S
C97 C102 1.245 . S
C97 C103 1.428 . S
C98 C101 1.260 . S
C98 C102 1.477 . S
C98 H116 0.932 . S
C99 C100 1.384 . S
C99 C101 1.479 . S
C99 H117 0.929 . S
C100 C97 1.424 . S
C100 C99 1.384 . S
C100 H118 0.928 . S
C101 C98 1.260 . S
C101 C99 1.479 . S
C102 C97 1.245 . S
C102 C98 1.477 . S
C102 H119 0.932 . S
C103 U86 2.882 . S
C103 C97 1.428 . S
C103 O106 1.301 . S
C103 O107 1.282 . S
O104 U86 2.441 . S
O104 C90 1.249 . S
O105 U86 2.420 . S
O105 C90 1.202 . S
O106 U86 2.455 . S
O106 C103 1.301 . S
O107 U86 2.449 . S
O107 C103 1.282 . S
H108 C81 0.931 . S
H109 C83 0.929 . S
H110 C84 0.930 . S
H111 C85 0.931 . S
H112 C92 0.932 . S
H113 C93 0.930 . S
H114 C94 0.929 . S
H115 C96 0.930 . S
H116 C98 0.932 . S
H117 C99 0.929 . S
H118 C100 0.928 . S
H119 C102 0.932 . S
C120 C121 1.264 . S
C120 C125 1.479 . S
C120 C130 1.465 . S
C121 C120 1.264 . S
C121 C123 1.339 . S
C121 H148 0.931 . S
C122 C123 1.395 . S
C122 C124 1.320 . S
C123 C121 1.339 . S
C123 C122 1.395 . S
C123 H149 0.929 . S
C124 C122 1.320 . S
C124 C125 1.405 . S
C124 H150 0.930 . S
C125 C120 1.479 . S
C125 C124 1.405 . S
C125 H151 0.931 . S
U126 O127 2.454 . S
U126 O128 2.458 . S
U126 C129 2.984 . S
U126 C130 2.847 . S
U126 C143 2.882 . S
U126 O144 2.441 . S
U126 O145 2.420 . S
U126 O146 2.455 . S
U126 O147 2.449 . S
O127 U126 2.454 . S
O127 C129 1.353 . S
O128 U126 2.458 . S
O128 C129 1.286 . S
C129 U126 2.984 . S
C129 O127 1.353 . S
C129 O128 1.286 . S
C129 C131 1.363 . S
C130 C120 1.465 . S
C130 U126 2.847 . S
C130 O144 1.249 . S
C130 O145 1.202 . S
C131 C129 1.363 . S
C131 C133 1.408 . S
C131 C136 1.342 . S
C132 C133 1.310 . S
C132 C135 1.461 . S
C132 H152 0.932 . S
C133 C131 1.408 . S
C133 C132 1.310 . S
C133 H153 0.930 . S
C134 C135 1.474 . S
C134 C136 1.285 . S
C134 H154 0.929 . S
C135 C132 1.461 . S
C135 C134 1.474 . S
C136 C131 1.342 . S
C136 C134 1.285 . S
C136 H155 0.930 . S
C137 C140 1.424 . S
C137 C142 1.245 . S
C137 C143 1.428 . S
C138 C141 1.260 . S
C138 C142 1.477 . S
C138 H156 0.932 . S
C139 C140 1.384 . S
C139 C141 1.479 . S
C139 H157 0.929 . S
C140 C137 1.424 . S
C140 C139 1.384 . S
C140 H158 0.928 . S
C141 C138 1.260 . S
C141 C139 1.479 . S
C142 C137 1.245 . S
C142 C138 1.477 . S
C142 H159 0.932 . S
C143 U126 2.882 . S
C143 C137 1.428 . S
C143 O146 1.301 . S
C143 O147 1.282 . S
O144 U126 2.441 . S
O144 C130 1.249 . S
O145 U126 2.420 . S
O145 C130 1.202 . S
O146 U126 2.455 . S
O146 C143 1.301 . S
O147 U126 2.449 . S
O147 C143 1.282 . S
H148 C121 0.931 . S
H149 C123 0.929 . S
H150 C124 0.930 . S
H151 C125 0.931 . S
H152 C132 0.932 . S
H153 C133 0.930 . S
H154 C134 0.929 . S
H155 C136 0.930 . S
H156 C138 0.932 . S
H157 C139 0.929 . S
H158 C140 0.928 . S
H159 C142 0.932 . S
C160 C161 1.264 . S
C160 C165 1.479 . S
C160 C170 1.465 . S
C161 C160 1.264 . S
C161 C163 1.339 . S
C161 H188 0.931 . S
C162 C163 1.395 . S
C162 C164 1.320 . S
C163 C161 1.339 . S
C163 C162 1.395 . S
C163 H189 0.929 . S
C164 C162 1.320 . S
C164 C165 1.405 . S
C164 H190 0.930 . S
C165 C160 1.479 . S
C165 C164 1.405 . S
C165 H191 0.931 . S
U166 O167 2.454 . S
U166 O168 2.458 . S
U166 C169 2.984 . S
U166 C170 2.847 . S
U166 C183 2.882 . S
U166 O184 2.441 . S
U166 O185 2.420 . S
U166 O186 2.455 . S
U166 O187 2.449 . S
O167 U166 2.454 . S
O167 C169 1.353 . S
O168 U166 2.458 . S
O168 C169 1.286 . S
C169 U166 2.984 . S
C169 O167 1.353 . S
C169 O168 1.286 . S
C169 C171 1.363 . S
C170 C160 1.465 . S
C170 U166 2.847 . S
C170 O184 1.249 . S
C170 O185 1.202 . S
C171 C169 1.363 . S
C171 C173 1.408 . S
C171 C176 1.342 . S
C172 C173 1.310 . S
C172 C175 1.461 . S
C172 H192 0.932 . S
C173 C171 1.408 . S
C173 C172 1.310 . S
C173 H193 0.930 . S
C174 C175 1.474 . S
C174 C176 1.285 . S
C174 H194 0.929 . S
C175 C172 1.461 . S
C175 C174 1.474 . S
C176 C171 1.342 . S
C176 C174 1.285 . S
C176 H195 0.930 . S
C177 C180 1.424 . S
C177 C182 1.245 . S
C177 C183 1.428 . S
C178 C181 1.260 . S
C178 C182 1.477 . S
C178 H196 0.932 . S
C179 C180 1.384 . S
C179 C181 1.479 . S
C179 H197 0.929 . S
C180 C177 1.424 . S
C180 C179 1.384 . S
C180 H198 0.928 . S
C181 C178 1.260 . S
C181 C179 1.479 . S
C182 C177 1.245 . S
C182 C178 1.477 . S
C182 H199 0.932 . S
C183 U166 2.882 . S
C183 C177 1.428 . S
C183 O186 1.301 . S
C183 O187 1.282 . S
O184 U166 2.441 . S
O184 C170 1.249 . S
O185 U166 2.420 . S
O185 C170 1.202 . S
O186 U166 2.455 . S
O186 C183 1.301 . S
O187 U166 2.449 . S
O187 C183 1.282 . S
H188 C161 0.931 . S
H189 C163 0.929 . S
H190 C164 0.930 . S
H191 C165 0.931 . S
H192 C172 0.932 . S
H193 C173 0.930 . S
H194 C174 0.929 . S
H195 C176 0.930 . S
H196 C178 0.932 . S
H197 C179 0.929 . S
H198 C180 0.928 . S
H199 C182 0.932 . S
C200 C201 1.264 . S
C200 C205 1.479 . S
C200 C210 1.465 . S
C201 C200 1.264 . S
C201 C203 1.339 . S
C201 H228 0.931 . S
C202 C203 1.395 . S
C202 C204 1.320 . S
C203 C201 1.339 . S
C203 C202 1.395 . S
C203 H229 0.929 . S
C204 C202 1.320 . S
C204 C205 1.405 . S
C204 H230 0.930 . S
C205 C200 1.479 . S
C205 C204 1.405 . S
C205 H231 0.931 . S
U206 O207 2.454 . S
U206 O208 2.458 . S
U206 C209 2.984 . S
U206 C210 2.847 . S
U206 C223 2.882 . S
U206 O224 2.441 . S
U206 O225 2.420 . S
U206 O226 2.455 . S
U206 O227 2.449 . S
O207 U206 2.454 . S
O207 C209 1.353 . S
O208 U206 2.458 . S
O208 C209 1.286 . S
C209 U206 2.984 . S
C209 O207 1.353 . S
C209 O208 1.286 . S
C209 C211 1.363 . S
C210 C200 1.465 . S
C210 U206 2.847 . S
C210 O224 1.249 . S
C210 O225 1.202 . S
C211 C209 1.363 . S
C211 C213 1.408 . S
C211 C216 1.342 . S
C212 C213 1.310 . S
C212 C215 1.461 . S
C212 H232 0.932 . S
C213 C211 1.408 . S
C213 C212 1.310 . S
C213 H233 0.930 . S
C214 C215 1.474 . S
C214 C216 1.285 . S
C214 H234 0.929 . S
C215 C212 1.461 . S
C215 C214 1.474 . S
C216 C211 1.342 . S
C216 C214 1.285 . S
C216 H235 0.930 . S
C217 C220 1.424 . S
C217 C222 1.245 . S
C217 C223 1.428 . S
C218 C221 1.260 . S
C218 C222 1.477 . S
C218 H236 0.932 . S
C219 C220 1.384 . S
C219 C221 1.479 . S
C219 H237 0.929 . S
C220 C217 1.424 . S
C220 C219 1.384 . S
C220 H238 0.928 . S
C221 C218 1.260 . S
C221 C219 1.479 . S
C222 C217 1.245 . S
C222 C218 1.477 . S
C222 H239 0.932 . S
C223 U206 2.882 . S
C223 C217 1.428 . S
C223 O226 1.301 . S
C223 O227 1.282 . S
O224 U206 2.441 . S
O224 C210 1.249 . S
O225 U206 2.420 . S
O225 C210 1.202 . S
O226 U206 2.455 . S
O226 C223 1.301 . S
O227 U206 2.449 . S
O227 C223 1.282 . S
H228 C201 0.931 . S
H229 C203 0.929 . S
H230 C204 0.930 . S
H231 C205 0.931 . S
H232 C212 0.932 . S
H233 C213 0.930 . S
H234 C214 0.929 . S
H235 C216 0.930 . S
H236 C218 0.932 . S
H237 C219 0.929 . S
H238 C220 0.928 . S
H239 C222 0.932 . S
C240 C241 1.264 . S
C240 C245 1.479 . S
C240 C250 1.465 . S
C241 C240 1.264 . S
C241 C243 1.339 . S
C241 H268 0.931 . S
C242 C243 1.395 . S
C242 C244 1.320 . S
C243 C241 1.339 . S
C243 C242 1.395 . S
C243 H269 0.929 . S
C244 C242 1.320 . S
C244 C245 1.405 . S
C244 H270 0.930 . S
C245 C240 1.479 . S
C245 C244 1.405 . S
C245 H271 0.931 . S
U246 O247 2.454 . S
U246 O248 2.458 . S
U246 C249 2.984 . S
U246 C250 2.847 . S
U246 C263 2.882 . S
U246 O264 2.441 . S
U246 O265 2.420 . S
U246 O266 2.455 . S
U246 O267 2.449 . S
O247 U246 2.454 . S
O247 C249 1.353 . S
O248 U246 2.458 . S
O248 C249 1.286 . S
C249 U246 2.984 . S
C249 O247 1.353 . S
C249 O248 1.286 . S
C249 C251 1.363 . S
C250 C240 1.465 . S
C250 U246 2.847 . S
C250 O264 1.249 . S
C250 O265 1.202 . S
C251 C249 1.363 . S
C251 C253 1.408 . S
C251 C256 1.342 . S
C252 C253 1.310 . S
C252 C255 1.461 . S
C252 H272 0.932 . S
C253 C251 1.408 . S
C253 C252 1.310 . S
C253 H273 0.930 . S
C254 C255 1.474 . S
C254 C256 1.285 . S
C254 H274 0.929 . S
C255 C252 1.461 . S
C255 C254 1.474 . S
C256 C251 1.342 . S
C256 C254 1.285 . S
C256 H275 0.930 . S
C257 C260 1.424 . S
C257 C262 1.245 . S
C257 C263 1.428 . S
C258 C261 1.260 . S
C258 C262 1.477 . S
C258 H276 0.932 . S
C259 C260 1.384 . S
C259 C261 1.479 . S
C259 H277 0.929 . S
C260 C257 1.424 . S
C260 C259 1.384 . S
C260 H278 0.928 . S
C261 C258 1.260 . S
C261 C259 1.479 . S
C262 C257 1.245 . S
C262 C258 1.477 . S
C262 H279 0.932 . S
C263 U246 2.882 . S
C263 C257 1.428 . S
C263 O266 1.301 . S
C263 O267 1.282 . S
O264 U246 2.441 . S
O264 C250 1.249 . S
O265 U246 2.420 . S
O265 C250 1.202 . S
O266 U246 2.455 . S
O266 C263 1.301 . S
O267 U246 2.449 . S
O267 C263 1.282 . S
H268 C241 0.931 . S
H269 C243 0.929 . S
H270 C244 0.930 . S
H271 C245 0.931 . S
H272 C252 0.932 . S
H273 C253 0.930 . S
H274 C254 0.929 . S
H275 C256 0.930 . S
H276 C258 0.932 . S
H277 C259 0.929 . S
H278 C260 0.928 . S
H279 C262 0.932 . S
C280 C281 1.264 . S
C280 C285 1.479 . S
C280 C290 1.465 . S
C281 C280 1.264 . S
C281 C283 1.339 . S
C281 H308 0.931 . S
C282 C283 1.395 . S
C282 C284 1.320 . S
C283 C281 1.339 . S
C283 C282 1.395 . S
C283 H309 0.929 . S
C284 C282 1.320 . S
C284 C285 1.405 . S
C284 H310 0.930 . S
C285 C280 1.479 . S
C285 C284 1.405 . S
C285 H311 0.931 . S
U286 O287 2.454 . S
U286 O288 2.458 . S
U286 C289 2.984 . S
U286 C290 2.847 . S
U286 C303 2.882 . S
U286 O304 2.441 . S
U286 O305 2.420 . S
U286 O306 2.455 . S
U286 O307 2.449 . S
O287 U286 2.454 . S
O287 C289 1.353 . S
O288 U286 2.458 . S
O288 C289 1.286 . S
C289 U286 2.984 . S
C289 O287 1.353 . S
C289 O288 1.286 . S
C289 C291 1.363 . S
C290 C280 1.465 . S
C290 U286 2.847 . S
C290 O304 1.249 . S
C290 O305 1.202 . S
C291 C289 1.363 . S
C291 C293 1.408 . S
C291 C296 1.342 . S
C292 C293 1.310 . S
C292 C295 1.461 . S
C292 H312 0.932 . S
C293 C291 1.408 . S
C293 C292 1.310 . S
C293 H313 0.930 . S
C294 C295 1.474 . S
C294 C296 1.285 . S
C294 H314 0.929 . S
C295 C292 1.461 . S
C295 C294 1.474 . S
C296 C291 1.342 . S
C296 C294 1.285 . S
C296 H315 0.930 . S
C297 C300 1.424 . S
C297 C302 1.245 . S
C297 C303 1.428 . S
C298 C301 1.260 . S
C298 C302 1.477 . S
C298 H316 0.932 . S
C299 C300 1.384 . S
C299 C301 1.479 . S
C299 H317 0.929 . S
C300 C297 1.424 . S
C300 C299 1.384 . S
C300 H318 0.928 . S
C301 C298 1.260 . S
C301 C299 1.479 . S
C302 C297 1.245 . S
C302 C298 1.477 . S
C302 H319 0.932 . S
C303 U286 2.882 . S
C303 C297 1.428 . S
C303 O306 1.301 . S
C303 O307 1.282 . S
O304 U286 2.441 . S
O304 C290 1.249 . S
O305 U286 2.420 . S
O305 C290 1.202 . S
O306 U286 2.455 . S
O306 C303 1.301 . S
O307 U286 2.449 . S
O307 C303 1.282 . S
H308 C281 0.931 . S
H309 C283 0.929 . S
H310 C284 0.930 . S
H311 C285 0.931 . S
H312 C292 0.932 . S
H313 C293 0.930 . S
H314 C294 0.929 . S
H315 C296 0.930 . S
H316 C298 0.932 . S
H317 C299 0.929 . S
H318 C300 0.928 . S
H319 C302 0.932 . S
H320 C347 0.929 . S
N321 C346 1.433 1_455 S
N321 C352 1.435 . S
N321 C358 1.423 . S
H322 C348 0.930 . S
H323 C351 0.931 . S
H324 C350 0.929 . S
H325 C353 0.930 . S
H326 C354 0.932 . S
H327 C357 0.929 . S
H328 C356 0.931 . S
H329 C359 0.930 1_655 S
H330 C363 0.932 . S
H331 C360 0.931 1_655 S
H332 C362 0.929 . S
H333 C365 0.929 . S
H334 C366 0.930 . S
H335 C368 0.929 . S
H336 C369 0.931 . S
H337 C371 0.930 . S
H338 C372 0.932 . S
H339 C374 0.931 . S
H340 C375 0.929 . S
H341 C377 0.929 1_655 S
H342 C378 0.931 1_655 S
H343 C380 0.929 . S
N344 C364 1.433 1_455 S
N344 C370 1.435 . S
N344 C376 1.423 . S
H345 C381 0.932 . S
C346 N321 1.433 1_655 S
C346 C347 1.363 . S
C346 C351 1.370 . S
C347 H320 0.929 . S
C347 C346 1.363 . S
C347 C348 1.385 . S
C348 H322 0.930 . S
C348 C347 1.385 . S
C348 C349 1.357 . S
C349 C348 1.357 . S
C349 C350 1.406 . S
C350 H324 0.929 . S
C350 C349 1.406 . S
C350 C351 1.391 . S
C351 H323 0.931 . S
C351 C346 1.370 . S
C351 C350 1.391 . S
C352 N321 1.435 . S
C352 C353 1.358 . S
C352 C357 1.371 . S
C353 H325 0.930 . S
C353 C352 1.358 . S
C353 C354 1.405 . S
C354 H326 0.932 . S
C354 C353 1.405 . S
C354 C355 1.383 . S
C355 C354 1.383 . S
C355 C356 1.393 . S
C356 H328 0.931 . S
C356 C355 1.393 . S
C356 C357 1.382 . S
C357 H327 0.929 . S
C357 C352 1.371 . S
C357 C356 1.382 . S
C358 N321 1.423 . S
C358 C359 1.361 . S
C358 C363 1.388 . S
C359 H329 0.930 1_455 S
C359 C358 1.361 . S
C359 C360 1.376 . S
C360 H331 0.931 1_455 S
C360 C359 1.376 . S
C360 C361 1.396 . S
C361 C360 1.396 . S
C361 C362 1.348 . S
C361 C379 1.472 . S
C362 H332 0.929 . S
C362 C361 1.348 . S
C362 C363 1.443 . S
C363 H330 0.932 . S
C363 C358 1.388 . S
C363 C362 1.443 . S
C364 N344 1.433 1_655 S
C364 C365 1.363 . S
C364 C369 1.370 . S
C365 H333 0.929 . S
C365 C364 1.363 . S
C365 C366 1.385 . S
C366 H334 0.930 . S
C366 C365 1.385 . S
C366 C367 1.357 . S
C367 C366 1.357 . S
C367 C368 1.406 . S
C368 H335 0.929 . S
C368 C367 1.406 . S
C368 C369 1.391 . S
C369 H336 0.931 . S
C369 C364 1.370 . S
C369 C368 1.391 . S
C370 N344 1.435 . S
C370 C371 1.358 . S
C370 C375 1.371 . S
C371 H337 0.930 . S
C371 C370 1.358 . S
C371 C372 1.405 . S
C372 H338 0.932 . S
C372 C371 1.405 . S
C372 C373 1.383 . S
C373 C372 1.383 . S
C373 C374 1.393 . S
C374 H339 0.931 . S
C374 C373 1.393 . S
C374 C375 1.382 . S
C375 H340 0.929 . S
C375 C370 1.371 . S
C375 C374 1.382 . S
C376 N344 1.423 . S
C376 C377 1.362 . S
C376 C381 1.388 . S
C377 H341 0.929 1_455 S
C377 C376 1.362 . S
C377 C378 1.376 . S
C378 H342 0.931 1_455 S
C378 C377 1.376 . S
C378 C379 1.396 . S
C379 C361 1.472 . S
C379 C378 1.396 . S
C379 C380 1.348 . S
C380 H343 0.929 . S
C380 C379 1.348 . S
C380 C381 1.443 . S
C381 H345 0.932 . S
C381 C376 1.388 . S
C381 C380 1.443 . S
H382 C409 0.929 . S
N383 C408 1.433 1_455 S
N383 C414 1.435 . S
N383 C420 1.423 . S
H384 C410 0.930 . S
H385 C413 0.931 . S
H386 C412 0.929 . S
H387 C415 0.930 . S
H388 C416 0.932 . S
H389 C419 0.929 . S
H390 C418 0.931 . S
H391 C421 0.929 . S
H392 C425 0.932 . S
H393 C422 0.920 1_655 S
H394 C424 0.929 . S
H395 C427 0.929 . S
H396 C428 0.930 . S
H397 C430 0.929 . S
H398 C431 0.931 . S
H399 C433 0.930 . S
H400 C434 0.932 . S
H401 C436 0.931 . S
H402 C437 0.929 . S
H403 C439 0.929 . S
H404 C440 0.919 1_655 S
H405 C442 0.929 . S
N406 C426 1.433 1_455 S
N406 C432 1.435 . S
N406 C438 1.423 . S
H407 C443 0.932 . S
C408 N383 1.433 1_655 S
C408 C409 1.363 . S
C408 C413 1.370 . S
C409 H382 0.929 . S
C409 C408 1.363 . S
C409 C410 1.385 . S
C410 H384 0.930 . S
C410 C409 1.385 . S
C410 C411 1.357 . S
C411 C410 1.357 . S
C411 C412 1.406 . S
C412 H386 0.929 . S
C412 C411 1.406 . S
C412 C413 1.391 . S
C413 H385 0.931 . S
C413 C408 1.370 . S
C413 C412 1.391 . S
C414 N383 1.435 . S
C414 C415 1.358 . S
C414 C419 1.371 . S
C415 H387 0.930 . S
C415 C414 1.358 . S
C415 C416 1.405 . S
C416 H388 0.932 . S
C416 C415 1.405 . S
C416 C417 1.383 . S
C417 C416 1.383 . S
C417 C418 1.393 . S
C418 H390 0.931 . S
C418 C417 1.393 . S
C418 C419 1.382 . S
C419 H389 0.929 . S
C419 C414 1.371 . S
C419 C418 1.382 . S
C420 N383 1.423 . S
C420 C421 1.362 1_455 S
C420 C425 1.388 . S
C421 H391 0.929 . S
C421 C420 1.362 1_655 S
C421 C422 1.375 1_655 S
C422 H393 0.920 1_455 S
C422 C421 1.375 1_455 S
C422 C423 1.409 . S
C423 C422 1.409 . S
C423 C424 1.348 . S
C423 C441 1.472 . S
C424 H394 0.929 . S
C424 C423 1.348 . S
C424 C425 1.443 . S
C425 H392 0.932 . S
C425 C420 1.388 . S
C425 C424 1.443 . S
C426 N406 1.433 1_655 S
C426 C427 1.363 . S
C426 C431 1.370 . S
C427 H395 0.929 . S
C427 C426 1.363 . S
C427 C428 1.385 . S
C428 H396 0.930 . S
C428 C427 1.385 . S
C428 C429 1.357 . S
C429 C428 1.357 . S
C429 C430 1.406 . S
C430 H397 0.929 . S
C430 C429 1.406 . S
C430 C431 1.391 . S
C431 H398 0.931 . S
C431 C426 1.370 . S
C431 C430 1.391 . S
C432 N406 1.435 . S
C432 C433 1.358 . S
C432 C437 1.371 . S
C433 H399 0.930 . S
C433 C432 1.358 . S
C433 C434 1.405 . S
C434 H400 0.932 . S
C434 C433 1.405 . S
C434 C435 1.383 . S
C435 C434 1.383 . S
C435 C436 1.393 . S
C436 H401 0.931 . S
C436 C435 1.393 . S
C436 C437 1.382 . S
C437 H402 0.929 . S
C437 C432 1.371 . S
C437 C436 1.382 . S
C438 N406 1.423 . S
C438 C439 1.362 1_455 S
C438 C443 1.388 . S
C439 H403 0.929 . S
C439 C438 1.362 1_655 S
C439 C440 1.374 1_655 S
C440 H404 0.919 1_455 S
C440 C439 1.374 1_455 S
C440 C441 1.410 . S
C441 C423 1.472 . S
C441 C440 1.410 . S
C441 C442 1.348 . S
C442 H405 0.929 . S
C442 C441 1.348 . S
C442 C443 1.443 . S
C443 H407 0.932 . S
C443 C438 1.388 . S
C443 C442 1.443 . S
H444 C471 0.929 . S
N445 C470 1.433 . S
N445 C476 1.435 . S
N445 C482 1.423 . S
H446 C472 0.930 . S
H447 C475 0.931 . S
H448 C474 0.929 . S
H449 C477 0.930 . S
H450 C478 0.932 . S
H451 C481 0.929 . S
H452 C480 0.931 . S
H453 C483 0.929 . S
H454 C487 0.932 . S
H455 C484 0.931 . S
H456 C486 0.929 . S
H457 C489 0.929 . S
H458 C490 0.930 . S
H459 C492 0.929 . S
H460 C493 0.931 . S
H461 C495 0.930 . S
H462 C496 0.932 . S
H463 C498 0.931 . S
H464 C499 0.929 . S
H465 C501 0.929 . S
H466 C502 0.931 . S
H467 C504 0.929 . S
N468 C488 1.433 . S
N468 C494 1.435 . S
N468 C500 1.423 . S
H469 C505 0.932 . S
C470 N445 1.433 . S
C470 C471 1.363 . S
C470 C475 1.370 . S
C471 H444 0.929 . S
C471 C470 1.363 . S
C471 C472 1.385 . S
C472 H446 0.930 . S
C472 C471 1.385 . S
C472 C473 1.357 . S
C473 C472 1.357 . S
C473 C474 1.406 . S
C474 H448 0.929 . S
C474 C473 1.406 . S
C474 C475 1.391 . S
C475 H447 0.931 . S
C475 C470 1.370 . S
C475 C474 1.391 . S
C476 N445 1.435 . S
C476 C477 1.358 . S
C476 C481 1.371 . S
C477 H449 0.930 . S
C477 C476 1.358 . S
C477 C478 1.405 . S
C478 H450 0.932 . S
C478 C477 1.405 . S
C478 C479 1.383 . S
C479 C478 1.383 . S
C479 C480 1.393 . S
C480 H452 0.931 . S
C480 C479 1.393 . S
C480 C481 1.382 . S
C481 H451 0.929 . S
C481 C476 1.371 . S
C481 C480 1.382 . S
C482 N445 1.423 . S
C482 C483 1.362 . S
C482 C487 1.388 . S
C483 H453 0.929 . S
C483 C482 1.362 . S
C483 C484 1.376 . S
C484 H455 0.931 . S
C484 C483 1.376 . S
C484 C485 1.396 . S
C485 C484 1.396 . S
C485 C486 1.348 . S
C485 C503 1.472 1_545 S
C486 H456 0.929 . S
C486 C485 1.348 . S
C486 C487 1.443 . S
C487 H454 0.932 . S
C487 C482 1.388 . S
C487 C486 1.443 . S
C488 N468 1.433 . S
C488 C489 1.363 . S
C488 C493 1.370 . S
C489 H457 0.929 . S
C489 C488 1.363 . S
C489 C490 1.385 . S
C490 H458 0.930 . S
C490 C489 1.385 . S
C490 C491 1.357 . S
C491 C490 1.357 . S
C491 C492 1.406 . S
C492 H459 0.929 . S
C492 C491 1.406 . S
C492 C493 1.391 . S
C493 H460 0.931 . S
C493 C488 1.370 . S
C493 C492 1.391 . S
C494 N468 1.435 . S
C494 C495 1.358 . S
C494 C499 1.371 . S
C495 H461 0.930 . S
C495 C494 1.358 . S
C495 C496 1.405 . S
C496 H462 0.932 . S
C496 C495 1.405 . S
C496 C497 1.383 . S
C497 C496 1.383 . S
C497 C498 1.393 . S
C498 H463 0.931 . S
C498 C497 1.393 . S
C498 C499 1.382 . S
C499 H464 0.929 . S
C499 C494 1.371 . S
C499 C498 1.382 . S
C500 N468 1.423 . S
C500 C501 1.362 . S
C500 C505 1.388 . S
C501 H465 0.929 . S
C501 C500 1.362 . S
C501 C502 1.376 . S
C502 H466 0.931 . S
C502 C501 1.376 . S
C502 C503 1.396 . S
C503 C485 1.472 1_565 S
C503 C502 1.396 . S
C503 C504 1.348 . S
C504 H467 0.929 . S
C504 C503 1.348 . S
C504 C505 1.443 . S
C505 H469 0.932 . S
C505 C500 1.388 . S
C505 C504 1.443 . S
H506 C533 0.929 . S
N507 C532 1.433 . S
N507 C538 1.435 . S
N507 C544 1.423 . S
H508 C534 0.930 . S
H509 C537 0.931 . S
H510 C536 0.929 . S
H511 C539 0.930 . S
H512 C540 0.932 . S
H513 C543 0.929 . S
H514 C542 0.931 . S
H515 C545 0.929 . S
H516 C549 0.932 . S
H517 C546 0.931 . S
H518 C548 0.929 . S
H519 C551 0.929 . S
H520 C552 0.930 . S
H521 C554 0.929 . S
H522 C555 0.931 . S
H523 C557 0.930 . S
H524 C558 0.932 . S
H525 C560 0.931 . S
H526 C561 0.929 . S
H527 C563 0.929 . S
H528 C564 0.931 . S
H529 C566 0.929 . S
N530 C550 1.433 . S
N530 C556 1.435 . S
N530 C562 1.423 . S
H531 C567 0.932 . S
C532 N507 1.433 . S
C532 C533 1.363 . S
C532 C537 1.370 . S
C533 H506 0.929 . S
C533 C532 1.363 . S
C533 C534 1.385 . S
C534 H508 0.930 . S
C534 C533 1.385 . S
C534 C535 1.357 . S
C535 C534 1.357 . S
C535 C536 1.406 . S
C536 H510 0.929 . S
C536 C535 1.406 . S
C536 C537 1.391 . S
C537 H509 0.931 . S
C537 C532 1.370 . S
C537 C536 1.391 . S
C538 N507 1.435 . S
C538 C539 1.358 . S
C538 C543 1.371 . S
C539 H511 0.930 . S
C539 C538 1.358 . S
C539 C540 1.405 . S
C540 H512 0.932 . S
C540 C539 1.405 . S
C540 C541 1.383 . S
C541 C540 1.383 . S
C541 C542 1.393 . S
C542 H514 0.931 . S
C542 C541 1.393 . S
C542 C543 1.382 . S
C543 H513 0.929 . S
C543 C538 1.371 . S
C543 C542 1.382 . S
C544 N507 1.423 . S
C544 C545 1.362 . S
C544 C549 1.388 . S
C545 H515 0.929 . S
C545 C544 1.362 . S
C545 C546 1.376 . S
C546 H517 0.931 . S
C546 C545 1.376 . S
C546 C547 1.396 . S
C547 C546 1.396 . S
C547 C548 1.348 . S
C547 C565 1.472 1_554 S
C548 H518 0.929 . S
C548 C547 1.348 . S
C548 C549 1.443 . S
C549 H516 0.932 . S
C549 C544 1.388 . S
C549 C548 1.443 . S
C550 N530 1.433 . S
C550 C551 1.363 . S
C550 C555 1.370 . S
C551 H519 0.929 . S
C551 C550 1.363 . S
C551 C552 1.385 . S
C552 H520 0.930 . S
C552 C551 1.385 . S
C552 C553 1.357 . S
C553 C552 1.357 . S
C553 C554 1.406 . S
C554 H521 0.929 . S
C554 C553 1.406 . S
C554 C555 1.391 . S
C555 H522 0.931 . S
C555 C550 1.370 . S
C555 C554 1.391 . S
C556 N530 1.435 . S
C556 C557 1.358 . S
C556 C561 1.371 . S
C557 H523 0.930 . S
C557 C556 1.358 . S
C557 C558 1.405 . S
C558 H524 0.932 . S
C558 C557 1.405 . S
C558 C559 1.383 . S
C559 C558 1.383 . S
C559 C560 1.393 . S
C560 H525 0.931 . S
C560 C559 1.393 . S
C560 C561 1.382 . S
C561 H526 0.929 . S
C561 C556 1.371 . S
C561 C560 1.382 . S
C562 N530 1.423 . S
C562 C563 1.362 . S
C562 C567 1.388 . S
C563 H527 0.929 . S
C563 C562 1.362 . S
C563 C564 1.376 . S
C564 H528 0.931 . S
C564 C563 1.376 . S
C564 C565 1.396 . S
C565 C547 1.472 1_556 S
C565 C564 1.396 . S
C565 C566 1.348 . S
C566 H529 0.929 . S
C566 C565 1.348 . S
C566 C567 1.443 . S
C567 H531 0.932 . S
C567 C562 1.388 . S
C567 C566 1.443 . S
H568 C595 0.929 . S
N569 C594 1.433 . S
N569 C600 1.435 . S
N569 C606 1.423 . S
H570 C596 0.930 . S
H571 C599 0.931 . S
H572 C598 0.929 . S
H573 C601 0.930 . S
H574 C602 0.932 . S
H575 C605 0.929 . S
H576 C604 0.931 . S
H577 C607 0.929 . S
H578 C611 0.932 . S
H579 C608 0.931 . S
H580 C610 0.929 . S
H581 C613 0.929 . S
H582 C614 0.930 . S
H583 C616 0.929 . S
H584 C617 0.931 . S
H585 C619 0.930 . S
H586 C620 0.932 . S
H587 C622 0.931 . S
H588 C623 0.929 . S
H589 C625 0.929 . S
H590 C626 0.931 . S
H591 C628 0.929 . S
N592 C612 1.433 . S
N592 C618 1.435 . S
N592 C624 1.423 . S
H593 C629 0.932 . S
C594 N569 1.433 . S
C594 C595 1.363 . S
C594 C599 1.370 . S
C595 H568 0.929 . S
C595 C594 1.363 . S
C595 C596 1.385 . S
C596 H570 0.930 . S
C596 C595 1.385 . S
C596 C597 1.357 . S
C597 C596 1.357 . S
C597 C598 1.406 . S
C598 H572 0.929 . S
C598 C597 1.406 . S
C598 C599 1.391 . S
C599 H571 0.931 . S
C599 C594 1.370 . S
C599 C598 1.391 . S
C600 N569 1.435 . S
C600 C601 1.358 . S
C600 C605 1.371 . S
C601 H573 0.930 . S
C601 C600 1.358 . S
C601 C602 1.405 . S
C602 H574 0.932 . S
C602 C601 1.405 . S
C602 C603 1.383 . S
C603 C602 1.383 . S
C603 C604 1.393 . S
C604 H576 0.931 . S
C604 C603 1.393 . S
C604 C605 1.382 . S
C605 H575 0.929 . S
C605 C600 1.371 . S
C605 C604 1.382 . S
C606 N569 1.423 . S
C606 C607 1.362 . S
C606 C611 1.388 . S
C607 H577 0.929 . S
C607 C606 1.362 . S
C607 C608 1.376 . S
C608 H579 0.931 . S
C608 C607 1.376 . S
C608 C609 1.396 . S
C609 C608 1.396 . S
C609 C610 1.348 . S
C609 C627 1.472 1_545 S
C610 H580 0.929 . S
C610 C609 1.348 . S
C610 C611 1.443 . S
C611 H578 0.932 . S
C611 C606 1.388 . S
C611 C610 1.443 . S
C612 N592 1.433 . S
C612 C613 1.363 . S
C612 C617 1.370 . S
C613 H581 0.929 . S
C613 C612 1.363 . S
C613 C614 1.385 . S
C614 H582 0.930 . S
C614 C613 1.385 . S
C614 C615 1.357 . S
C615 C614 1.357 . S
C615 C616 1.406 . S
C616 H583 0.929 . S
C616 C615 1.406 . S
C616 C617 1.391 . S
C617 H584 0.931 . S
C617 C612 1.370 . S
C617 C616 1.391 . S
C618 N592 1.435 . S
C618 C619 1.358 . S
C618 C623 1.371 . S
C619 H585 0.930 . S
C619 C618 1.358 . S
C619 C620 1.405 . S
C620 H586 0.932 . S
C620 C619 1.405 . S
C620 C621 1.383 . S
C621 C620 1.383 . S
C621 C622 1.393 . S
C622 H587 0.931 . S
C622 C621 1.393 . S
C622 C623 1.382 . S
C623 H588 0.929 . S
C623 C618 1.371 . S
C623 C622 1.382 . S
C624 N592 1.423 . S
C624 C625 1.362 . S
C624 C629 1.388 . S
C625 H589 0.929 . S
C625 C624 1.362 . S
C625 C626 1.376 . S
C626 H590 0.931 . S
C626 C625 1.376 . S
C626 C627 1.396 . S
C627 C609 1.472 1_565 S
C627 C626 1.396 . S
C627 C628 1.348 . S
C628 H591 0.929 . S
C628 C627 1.348 . S
C628 C629 1.443 . S
C629 H593 0.932 . S
C629 C624 1.388 . S
C629 C628 1.443 . S
H630 C657 0.929 . S
N631 C656 1.433 . S
N631 C662 1.435 . S
N631 C668 1.423 . S
H632 C658 0.930 . S
H633 C661 0.931 . S
H634 C660 0.929 . S
H635 C663 0.930 . S
H636 C664 0.932 . S
H637 C667 0.929 . S
H638 C666 0.931 . S
H639 C669 0.929 . S
H640 C673 0.932 . S
H641 C670 0.931 . S
H642 C672 0.929 . S
H643 C675 0.929 . S
H644 C676 0.930 . S
H645 C678 0.929 . S
H646 C679 0.931 . S
H647 C681 0.930 . S
H648 C682 0.932 . S
H649 C684 0.931 . S
H650 C685 0.929 . S
H651 C687 0.929 . S
H652 C688 0.931 . S
H653 C690 0.929 . S
N654 C674 1.433 . S
N654 C680 1.435 . S
N654 C686 1.423 . S
H655 C691 0.932 . S
C656 N631 1.433 . S
C656 C657 1.363 . S
C656 C661 1.370 . S
C657 H630 0.929 . S
C657 C656 1.363 . S
C657 C658 1.385 . S
C658 H632 0.930 . S
C658 C657 1.385 . S
C658 C659 1.357 . S
C659 C658 1.357 . S
C659 C660 1.406 . S
C660 H634 0.929 . S
C660 C659 1.406 . S
C660 C661 1.391 . S
C661 H633 0.931 . S
C661 C656 1.370 . S
C661 C660 1.391 . S
C662 N631 1.435 . S
C662 C663 1.358 . S
C662 C667 1.371 . S
C663 H635 0.930 . S
C663 C662 1.358 . S
C663 C664 1.405 . S
C664 H636 0.932 . S
C664 C663 1.405 . S
C664 C665 1.383 . S
C665 C664 1.383 . S
C665 C666 1.393 . S
C666 H638 0.931 . S
C666 C665 1.393 . S
C666 C667 1.382 . S
C667 H637 0.929 . S
C667 C662 1.371 . S
C667 C666 1.382 . S
C668 N631 1.423 . S
C668 C669 1.362 . S
C668 C673 1.388 . S
C669 H639 0.929 . S
C669 C668 1.362 . S
C669 C670 1.376 . S
C670 H641 0.931 . S
C670 C669 1.376 . S
C670 C671 1.396 . S
C671 C670 1.396 . S
C671 C672 1.348 . S
C671 C689 1.472 1_554 S
C672 H642 0.929 . S
C672 C671 1.348 . S
C672 C673 1.443 . S
C673 H640 0.932 . S
C673 C668 1.388 . S
C673 C672 1.443 . S
C674 N654 1.433 . S
C674 C675 1.363 . S
C674 C679 1.370 . S
C675 H643 0.929 . S
C675 C674 1.363 . S
C675 C676 1.385 . S
C676 H644 0.930 . S
C676 C675 1.385 . S
C676 C677 1.357 . S
C677 C676 1.357 . S
C677 C678 1.406 . S
C678 H645 0.929 . S
C678 C677 1.406 . S
C678 C679 1.391 . S
C679 H646 0.931 . S
C679 C674 1.370 . S
C679 C678 1.391 . S
C680 N654 1.435 . S
C680 C681 1.358 . S
C680 C685 1.371 . S
C681 H647 0.930 . S
C681 C680 1.358 . S
C681 C682 1.405 . S
C682 H648 0.932 . S
C682 C681 1.405 . S
C682 C683 1.383 . S
C683 C682 1.383 . S
C683 C684 1.393 . S
C684 H649 0.931 . S
C684 C683 1.393 . S
C684 C685 1.382 . S
C685 H650 0.929 . S
C685 C680 1.371 . S
C685 C684 1.382 . S
C686 N654 1.423 . S
C686 C687 1.362 . S
C686 C691 1.388 . S
C687 H651 0.929 . S
C687 C686 1.362 . S
C687 C688 1.376 . S
C688 H652 0.931 . S
C688 C687 1.376 . S
C688 C689 1.396 . S
C689 C671 1.472 1_556 S
C689 C688 1.396 . S
C689 C690 1.348 . S
C690 H653 0.929 . S
C690 C689 1.348 . S
C690 C691 1.443 . S
C691 H655 0.932 . S
C691 C686 1.388 . S
C691 C690 1.443 . S
H692 C710 0.951 . S
H693 C712 0.951 . S
H694 C714 0.950 . S
H695 C715 0.950 . S
H696 C717 0.950 . S
H697 C720 0.950 . S
H698 C721 0.950 . S
H699 C723 0.950 . S
H700 C724 0.950 . S
H701 C725 0.951 . S
H702 C727 0.951 . S
H703 C729 0.950 . S
H704 C730 0.950 . S
H705 C732 0.950 . S
H706 C735 0.950 . S
H707 C736 0.950 . S
H708 C738 0.950 . S
H709 C739 0.950 . S
C710 H692 0.951 . S
C710 C711 1.366 . S
C710 C712 1.388 . S
C711 C710 1.366 . S
C711 C715 1.385 . S
C712 H693 0.951 . S
C712 C710 1.388 . S
C712 C713 1.366 . S
C713 C712 1.366 . S
C713 C714 1.414 . S
C713 C716 1.499 . S
C714 H694 0.950 . S
C714 C713 1.414 . S
C714 C715 1.374 . S
C715 H695 0.950 . S
C715 C711 1.385 . S
C715 C714 1.374 . S
C716 C713 1.499 . S
C716 C717 1.373 . S
C716 C718 1.389 . S
C717 H696 0.950 . S
C717 C716 1.373 . S
C717 C733 1.377 . S
C718 C716 1.389 . S
C718 C719 1.524 . S
C718 C732 1.377 . S
C719 C718 1.524 . S
C719 C720 1.397 . S
C719 C724 1.363 . S
C720 H697 0.950 . S
C720 C719 1.397 . S
C720 C721 1.334 . S
C721 H698 0.950 . S
C721 C720 1.334 . S
C721 C722 1.287 . S
C722 C721 1.287 . S
C722 C723 1.524 . S
C722 H741 0.913 . S
C723 H699 0.950 . S
C723 C722 1.524 . S
C723 C724 1.415 . S
C724 H700 0.950 . S
C724 C719 1.363 . S
C724 C723 1.415 . S
C725 H701 0.951 . S
C725 C726 1.366 . S
C725 C727 1.388 . S
C726 C725 1.366 . S
C726 C730 1.385 . S
C727 H702 0.951 . S
C727 C725 1.388 . S
C727 C728 1.366 . S
C728 C727 1.366 . S
C728 C729 1.414 . S
C728 C731 1.499 . S
C729 H703 0.950 . S
C729 C728 1.414 . S
C729 C730 1.374 . S
C730 H704 0.950 . S
C730 C726 1.385 . S
C730 C729 1.374 . S
C731 C728 1.499 . S
C731 C732 1.373 . S
C731 C733 1.389 . S
C732 H705 0.950 . S
C732 C718 1.377 . S
C732 C731 1.373 . S
C733 C717 1.377 . S
C733 C731 1.389 . S
C733 C734 1.524 . S
C734 C733 1.524 . S
C734 C735 1.397 . S
C734 C739 1.363 . S
C735 H706 0.950 . S
C735 C734 1.397 . S
C735 C736 1.334 . S
C736 H707 0.950 . S
C736 C735 1.334 . S
C736 C737 1.287 . S
C737 C736 1.287 . S
C737 C738 1.524 . S
C737 H740 0.999 . S
C738 H708 0.950 . S
C738 C737 1.524 . S
C738 C739 1.415 . S
C739 H709 0.950 . S
C739 C734 1.363 . S
C739 C738 1.415 . S
H740 C737 0.999 . S
H741 C722 0.913 . S
H742 C760 0.951 . S
H743 C762 0.951 . S
H744 C764 0.950 . S
H745 C765 0.950 . S
H746 C767 0.950 . S
H747 C770 0.950 . S
H748 C771 0.950 . S
H749 C773 0.950 . S
H750 C774 0.950 . S
H751 C775 0.951 . S
H752 C777 0.951 . S
H753 C779 0.950 . S
H754 C780 0.950 . S
H755 C782 0.950 . S
H756 C785 0.950 . S
H757 C786 0.950 . S
H758 C788 0.950 . S
H759 C789 0.950 . S
C760 H742 0.951 . S
C760 C761 1.366 . S
C760 C762 1.388 . S
C761 C760 1.366 . S
C761 C765 1.385 . S
C762 H743 0.951 . S
C762 C760 1.388 . S
C762 C763 1.366 . S
C763 C762 1.366 . S
C763 C764 1.414 . S
C763 C766 1.499 . S
C764 H744 0.950 . S
C764 C763 1.414 . S
C764 C765 1.374 . S
C765 H745 0.950 . S
C765 C761 1.385 . S
C765 C764 1.374 . S
C766 C763 1.499 . S
C766 C767 1.373 . S
C766 C768 1.389 . S
C767 H746 0.950 . S
C767 C766 1.373 . S
C767 C783 1.377 . S
C768 C766 1.389 . S
C768 C769 1.524 . S
C768 C782 1.377 . S
C769 C768 1.524 . S
C769 C770 1.397 . S
C769 C774 1.363 . S
C770 H747 0.950 . S
C770 C769 1.397 . S
C770 C771 1.334 . S
C771 H748 0.950 . S
C771 C770 1.334 . S
C771 C772 1.287 . S
C772 C771 1.287 . S
C772 C773 1.524 . S
C772 H791 0.913 . S
C773 H749 0.950 . S
C773 C772 1.524 . S
C773 C774 1.415 . S
C774 H750 0.950 . S
C774 C769 1.363 . S
C774 C773 1.415 . S
C775 H751 0.951 . S
C775 C776 1.366 . S
C775 C777 1.388 . S
C776 C775 1.366 . S
C776 C780 1.385 . S
C777 H752 0.951 . S
C777 C775 1.388 . S
C777 C778 1.366 . S
C778 C777 1.366 . S
C778 C779 1.414 . S
C778 C781 1.499 . S
C779 H753 0.950 . S
C779 C778 1.414 . S
C779 C780 1.374 . S
C780 H754 0.950 . S
C780 C776 1.385 . S
C780 C779 1.374 . S
C781 C778 1.499 . S
C781 C782 1.373 . S
C781 C783 1.389 . S
C782 H755 0.950 . S
C782 C768 1.377 . S
C782 C781 1.373 . S
C783 C767 1.377 . S
C783 C781 1.389 . S
C783 C784 1.524 . S
C784 C783 1.524 . S
C784 C785 1.397 . S
C784 C789 1.363 . S
C785 H756 0.950 . S
C785 C784 1.397 . S
C785 C786 1.334 . S
C786 H757 0.950 . S
C786 C785 1.334 . S
C786 C787 1.287 . S
C787 C786 1.287 . S
C787 C788 1.524 . S
C787 H790 0.999 . S
C788 H758 0.950 . S
C788 C787 1.524 . S
C788 C789 1.415 . S
C789 H759 0.950 . S
C789 C784 1.363 . S
C789 C788 1.415 . S
H790 C787 0.999 . S
H791 C772 0.913 . S
H792 C810 0.951 . S
H793 C812 0.951 . S
H794 C814 0.950 . S
H795 C815 0.950 . S
H796 C817 0.950 . S
H797 C820 0.950 . S
H798 C821 0.950 . S
H799 C823 0.950 . S
H800 C824 0.950 . S
H801 C825 0.951 . S
H802 C827 0.951 . S
H803 C829 0.950 . S
H804 C830 0.950 . S
H805 C832 0.950 . S
H806 C835 0.950 . S
H807 C836 0.950 . S
H808 C838 0.950 . S
H809 C839 0.950 . S
C810 H792 0.951 . S
C810 C811 1.366 . S
C810 C812 1.388 . S
C811 C810 1.366 . S
C811 C815 1.385 . S
C812 H793 0.951 . S
C812 C810 1.388 . S
C812 C813 1.366 . S
C813 C812 1.366 . S
C813 C814 1.414 . S
C813 C816 1.499 . S
C814 H794 0.950 . S
C814 C813 1.414 . S
C814 C815 1.374 . S
C815 H795 0.950 . S
C815 C811 1.385 . S
C815 C814 1.374 . S
C816 C813 1.499 . S
C816 C817 1.373 . S
C816 C818 1.389 . S
C817 H796 0.950 . S
C817 C816 1.373 . S
C817 C833 1.377 . S
C818 C816 1.389 . S
C818 C819 1.524 . S
C818 C832 1.377 . S
C819 C818 1.524 . S
C819 C820 1.397 . S
C819 C824 1.363 . S
C820 H797 0.950 . S
C820 C819 1.397 . S
C820 C821 1.334 . S
C821 H798 0.950 . S
C821 C820 1.334 . S
C821 C822 1.287 . S
C822 C821 1.287 . S
C822 C823 1.524 . S
C822 H841 0.913 . S
C823 H799 0.950 . S
C823 C822 1.524 . S
C823 C824 1.415 . S
C824 H800 0.950 . S
C824 C819 1.363 . S
C824 C823 1.415 . S
C825 H801 0.951 . S
C825 C826 1.366 . S
C825 C827 1.388 . S
C826 C825 1.366 . S
C826 C830 1.385 . S
C827 H802 0.951 . S
C827 C825 1.388 . S
C827 C828 1.366 . S
C828 C827 1.366 . S
C828 C829 1.414 . S
C828 C831 1.499 . S
C829 H803 0.950 . S
C829 C828 1.414 . S
C829 C830 1.374 . S
C830 H804 0.950 . S
C830 C826 1.385 . S
C830 C829 1.374 . S
C831 C828 1.499 . S
C831 C832 1.373 . S
C831 C833 1.389 . S
C832 H805 0.950 . S
C832 C818 1.377 . S
C832 C831 1.373 . S
C833 C817 1.377 . S
C833 C831 1.389 . S
C833 C834 1.524 . S
C834 C833 1.524 . S
C834 C835 1.397 . S
C834 C839 1.363 . S
C835 H806 0.950 . S
C835 C834 1.397 . S
C835 C836 1.334 . S
C836 H807 0.950 . S
C836 C835 1.334 . S
C836 C837 1.287 . S
C837 C836 1.287 . S
C837 C838 1.524 . S
C837 H840 0.999 . S
C838 H808 0.950 . S
C838 C837 1.524 . S
C838 C839 1.415 . S
C839 H809 0.950 . S
C839 C834 1.363 . S
C839 C838 1.415 . S
H840 C837 0.999 . S
H841 C822 0.913 . S
H842 C860 0.951 . S
H843 C862 0.951 . S
H844 C864 0.950 . S
H845 C865 0.950 . S
H846 C867 0.950 . S
H847 C870 0.950 . S
H848 C871 0.950 . S
H849 C873 0.950 . S
H850 C874 0.950 . S
H851 C875 0.951 . S
H852 C877 0.951 . S
H853 C879 0.950 . S
H854 C880 0.950 . S
H855 C882 0.950 . S
H856 C885 0.950 . S
H857 C886 0.950 . S
H858 C888 0.950 . S
H859 C889 0.950 . S
C860 H842 0.951 . S
C860 C861 1.366 . S
C860 C862 1.388 . S
C861 C860 1.366 . S
C861 C865 1.385 . S
C862 H843 0.951 . S
C862 C860 1.388 . S
C862 C863 1.366 . S
C863 C862 1.366 . S
C863 C864 1.414 . S
C863 C866 1.499 . S
C864 H844 0.950 . S
C864 C863 1.414 . S
C864 C865 1.374 . S
C865 H845 0.950 . S
C865 C861 1.385 . S
C865 C864 1.374 . S
C866 C863 1.499 . S
C866 C867 1.373 . S
C866 C868 1.389 . S
C867 H846 0.950 . S
C867 C866 1.373 . S
C867 C883 1.377 . S
C868 C866 1.389 . S
C868 C869 1.524 . S
C868 C882 1.377 . S
C869 C868 1.524 . S
C869 C870 1.397 . S
C869 C874 1.363 . S
C870 H847 0.950 . S
C870 C869 1.397 . S
C870 C871 1.334 . S
C871 H848 0.950 . S
C871 C870 1.334 . S
C871 C872 1.287 . S
C872 C871 1.287 . S
C872 C873 1.524 . S
C872 H891 0.913 . S
C873 H849 0.950 . S
C873 C872 1.524 . S
C873 C874 1.415 . S
C874 H850 0.950 . S
C874 C869 1.363 . S
C874 C873 1.415 . S
C875 H851 0.951 . S
C875 C876 1.366 . S
C875 C877 1.388 . S
C876 C875 1.366 . S
C876 C880 1.385 . S
C877 H852 0.951 . S
C877 C875 1.388 . S
C877 C878 1.366 . S
C878 C877 1.366 . S
C878 C879 1.414 . S
C878 C881 1.499 . S
C879 H853 0.950 . S
C879 C878 1.414 . S
C879 C880 1.374 . S
C880 H854 0.950 . S
C880 C876 1.385 . S
C880 C879 1.374 . S
C881 C878 1.499 . S
C881 C882 1.373 . S
C881 C883 1.389 . S
C882 H855 0.950 . S
C882 C868 1.377 . S
C882 C881 1.373 . S
C883 C867 1.377 . S
C883 C881 1.389 . S
C883 C884 1.524 . S
C884 C883 1.524 . S
C884 C885 1.397 . S
C884 C889 1.363 . S
C885 H856 0.950 . S
C885 C884 1.397 . S
C885 C886 1.334 . S
C886 H857 0.950 . S
C886 C885 1.334 . S
C886 C887 1.287 . S
C887 C886 1.287 . S
C887 C888 1.524 . S
C887 H890 0.999 . S
C888 H858 0.950 . S
C888 C887 1.524 . S
C888 C889 1.415 . S
C889 H859 0.950 . S
C889 C884 1.363 . S
C889 C888 1.415 . S
H890 C887 0.999 . S
H891 C872 0.913 . S
H892 C910 0.951 . S
H893 C912 0.951 . S
H894 C914 0.950 . S
H895 C915 0.950 . S
H896 C917 0.950 . S
H897 C920 0.950 . S
H898 C921 0.950 . S
H899 C923 0.950 . S
H900 C924 0.950 . S
H901 C925 0.951 . S
H902 C927 0.951 . S
H903 C929 0.950 . S
H904 C930 0.950 . S
H905 C932 0.950 . S
H906 C935 0.950 . S
H907 C936 0.950 . S
H908 C938 0.950 . S
H909 C939 0.950 . S
C910 H892 0.951 . S
C910 C911 1.366 . S
C910 C912 1.388 . S
C911 C910 1.366 . S
C911 C915 1.385 . S
C912 H893 0.951 . S
C912 C910 1.388 . S
C912 C913 1.366 . S
C913 C912 1.366 . S
C913 C914 1.414 . S
C913 C916 1.499 . S
C914 H894 0.950 . S
C914 C913 1.414 . S
C914 C915 1.374 . S
C915 H895 0.950 . S
C915 C911 1.385 . S
C915 C914 1.374 . S
C916 C913 1.499 . S
C916 C917 1.373 . S
C916 C918 1.389 . S
C917 H896 0.950 . S
C917 C916 1.373 . S
C917 C933 1.377 . S
C918 C916 1.389 . S
C918 C919 1.524 . S
C918 C932 1.377 . S
C919 C918 1.524 . S
C919 C920 1.397 . S
C919 C924 1.363 . S
C920 H897 0.950 . S
C920 C919 1.397 . S
C920 C921 1.334 . S
C921 H898 0.950 . S
C921 C920 1.334 . S
C921 C922 1.287 . S
C922 C921 1.287 . S
C922 C923 1.524 . S
C922 H941 0.913 . S
C923 H899 0.950 . S
C923 C922 1.524 . S
C923 C924 1.415 . S
C924 H900 0.950 . S
C924 C919 1.363 . S
C924 C923 1.415 . S
C925 H901 0.951 . S
C925 C926 1.366 . S
C925 C927 1.388 . S
C926 C925 1.366 . S
C926 C930 1.385 . S
C927 H902 0.951 . S
C927 C925 1.388 . S
C927 C928 1.366 . S
C928 C927 1.366 . S
C928 C929 1.414 . S
C928 C931 1.499 . S
C929 H903 0.950 . S
C929 C928 1.414 . S
C929 C930 1.374 . S
C930 H904 0.950 . S
C930 C926 1.385 . S
C930 C929 1.374 . S
C931 C928 1.499 . S
C931 C932 1.373 . S
C931 C933 1.389 . S
C932 H905 0.950 . S
C932 C918 1.377 . S
C932 C931 1.373 . S
C933 C917 1.377 . S
C933 C931 1.389 . S
C933 C934 1.524 . S
C934 C933 1.524 . S
C934 C935 1.397 . S
C934 C939 1.363 . S
C935 H906 0.950 . S
C935 C934 1.397 . S
C935 C936 1.334 . S
C936 H907 0.950 . S
C936 C935 1.334 . S
C936 C937 1.287 . S
C937 C936 1.287 . S
C937 C938 1.524 . S
C937 H940 0.999 . S
C938 H908 0.950 . S
C938 C937 1.524 . S
C938 C939 1.415 . S
C939 H909 0.950 . S
C939 C934 1.363 . S
C939 C938 1.415 . S
H940 C937 0.999 . S
H941 C922 0.913 . S
H942 C960 0.951 . S
H943 C962 0.951 . S
H944 C964 0.950 . S
H945 C965 0.950 . S
H946 C967 0.950 . S
H947 C970 0.950 . S
H948 C971 0.950 . S
H949 C973 0.950 . S
H950 C974 0.950 . S
H951 C975 0.951 . S
H952 C977 0.951 . S
H953 C979 0.950 . S
H954 C980 0.950 . S
H955 C982 0.950 . S
H956 C985 0.950 . S
H957 C986 0.950 . S
H958 C988 0.950 . S
H959 C989 0.950 . S
C960 H942 0.951 . S
C960 C961 1.366 . S
C960 C962 1.388 . S
C961 C960 1.366 . S
C961 C965 1.385 . S
C962 H943 0.951 . S
C962 C960 1.388 . S
C962 C963 1.366 . S
C963 C962 1.366 . S
C963 C964 1.414 . S
C963 C966 1.499 . S
C964 H944 0.950 . S
C964 C963 1.414 . S
C964 C965 1.374 . S
C965 H945 0.950 . S
C965 C961 1.385 . S
C965 C964 1.374 . S
C966 C963 1.499 . S
C966 C967 1.373 . S
C966 C968 1.389 . S
C967 H946 0.950 . S
C967 C966 1.373 . S
C967 C983 1.377 . S
C968 C966 1.389 . S
C968 C969 1.524 . S
C968 C982 1.377 . S
C969 C968 1.524 . S
C969 C970 1.397 . S
C969 C974 1.363 . S
C970 H947 0.950 . S
C970 C969 1.397 . S
C970 C971 1.334 . S
C971 H948 0.950 . S
C971 C970 1.334 . S
C971 C972 1.287 . S
C972 C971 1.287 . S
C972 C973 1.524 . S
C972 H991 0.913 . S
C973 H949 0.950 . S
C973 C972 1.524 . S
C973 C974 1.415 . S
C974 H950 0.950 . S
C974 C969 1.363 . S
C974 C973 1.415 . S
C975 H951 0.951 . S
C975 C976 1.366 . S
C975 C977 1.388 . S
C976 C975 1.366 . S
C976 C980 1.385 . S
C977 H952 0.951 . S
C977 C975 1.388 . S
C977 C978 1.366 . S
C978 C977 1.366 . S
C978 C979 1.414 . S
C978 C981 1.499 . S
C979 H953 0.950 . S
C979 C978 1.414 . S
C979 C980 1.374 . S
C980 H954 0.950 . S
C980 C976 1.385 . S
C980 C979 1.374 . S
C981 C978 1.499 . S
C981 C982 1.373 . S
C981 C983 1.389 . S
C982 H955 0.950 . S
C982 C968 1.377 . S
C982 C981 1.373 . S
C983 C967 1.377 . S
C983 C981 1.389 . S
C983 C984 1.524 . S
C984 C983 1.524 . S
C984 C985 1.397 . S
C984 C989 1.363 . S
C985 H956 0.950 . S
C985 C984 1.397 . S
C985 C986 1.334 . S
C986 H957 0.950 . S
C986 C985 1.334 . S
C986 C987 1.287 . S
C987 C986 1.287 . S
C987 C988 1.524 . S
C987 H990 0.999 . S
C988 H958 0.950 . S
C988 C987 1.524 . S
C988 C989 1.415 . S
C989 H959 0.950 . S
C989 C984 1.363 . S
C989 C988 1.415 . S
H990 C987 0.999 . S
H991 C972 0.913 . S
H992 C1010 0.951 . S
H993 C1012 0.951 . S
H994 C1014 0.950 . S
H995 C1015 0.950 . S
H996 C1017 0.950 . S
H997 C1020 0.950 . S
H998 C1021 0.950 . S
H999 C1023 0.950 . S
H1000 C1024 0.950 . S
H1001 C1025 0.951 . S
H1002 C1027 0.951 . S
H1003 C1029 0.950 . S
H1004 C1030 0.950 . S
H1005 C1032 0.950 . S
H1006 C1035 0.950 . S
H1007 C1036 0.950 . S
H1008 C1038 0.950 . S
H1009 C1039 0.950 . S
C1010 H992 0.951 . S
C1010 C1011 1.366 . S
C1010 C1012 1.388 . S
C1011 C1010 1.366 . S
C1011 C1015 1.385 . S
C1012 H993 0.951 . S
C1012 C1010 1.388 . S
C1012 C1013 1.366 . S
C1013 C1012 1.366 . S
C1013 C1014 1.414 . S
C1013 C1016 1.499 . S
C1014 H994 0.950 . S
C1014 C1013 1.414 . S
C1014 C1015 1.374 . S
C1015 H995 0.950 . S
C1015 C1011 1.385 . S
C1015 C1014 1.374 . S
C1016 C1013 1.499 . S
C1016 C1017 1.373 . S
C1016 C1018 1.389 . S
C1017 H996 0.950 . S
C1017 C1016 1.373 . S
C1017 C1033 1.377 . S
C1018 C1016 1.389 . S
C1018 C1019 1.524 . S
C1018 C1032 1.377 . S
C1019 C1018 1.524 . S
C1019 C1020 1.397 . S
C1019 C1024 1.363 . S
C1020 H997 0.950 . S
C1020 C1019 1.397 . S
C1020 C1021 1.334 . S
C1021 H998 0.950 . S
C1021 C1020 1.334 . S
C1021 C1022 1.287 . S
C1022 C1021 1.287 . S
C1022 C1023 1.524 . S
C1022 H1041 0.913 . S
C1023 H999 0.950 . S
C1023 C1022 1.524 . S
C1023 C1024 1.415 . S
C1024 H1000 0.950 . S
C1024 C1019 1.363 . S
C1024 C1023 1.415 . S
C1025 H1001 0.951 . S
C1025 C1026 1.366 . S
C1025 C1027 1.388 . S
C1026 C1025 1.366 . S
C1026 C1030 1.385 . S
C1027 H1002 0.951 . S
C1027 C1025 1.388 . S
C1027 C1028 1.366 . S
C1028 C1027 1.366 . S
C1028 C1029 1.414 . S
C1028 C1031 1.499 . S
C1029 H1003 0.950 . S
C1029 C1028 1.414 . S
C1029 C1030 1.374 . S
C1030 H1004 0.950 . S
C1030 C1026 1.385 . S
C1030 C1029 1.374 . S
C1031 C1028 1.499 . S
C1031 C1032 1.373 . S
C1031 C1033 1.389 . S
C1032 H1005 0.950 . S
C1032 C1018 1.377 . S
C1032 C1031 1.373 . S
C1033 C1017 1.377 . S
C1033 C1031 1.389 . S
C1033 C1034 1.524 . S
C1034 C1033 1.524 . S
C1034 C1035 1.397 . S
C1034 C1039 1.363 . S
C1035 H1006 0.950 . S
C1035 C1034 1.397 . S
C1035 C1036 1.334 . S
C1036 H1007 0.950 . S
C1036 C1035 1.334 . S
C1036 C1037 1.287 . S
C1037 C1036 1.287 . S
C1037 C1038 1.524 . S
C1037 H1040 0.999 . S
C1038 H1008 0.950 . S
C1038 C1037 1.524 . S
C1038 C1039 1.415 . S
C1039 H1009 0.950 . S
C1039 C1034 1.363 . S
C1039 C1038 1.415 . S
H1040 C1037 0.999 . S
H1041 C1022 0.913 . S
H1042 C1060 0.951 . S
H1043 C1062 0.951 . S
H1044 C1064 0.950 . S
H1045 C1065 0.950 . S
H1046 C1067 0.950 . S
H1047 C1070 0.950 . S
H1048 C1071 0.950 . S
H1049 C1073 0.950 . S
H1050 C1074 0.950 . S
H1051 C1075 0.951 . S
H1052 C1077 0.951 . S
H1053 C1079 0.950 . S
H1054 C1080 0.950 . S
H1055 C1082 0.950 . S
H1056 C1085 0.950 . S
H1057 C1086 0.950 . S
H1058 C1088 0.950 . S
H1059 C1089 0.950 . S
C1060 H1042 0.951 . S
C1060 C1061 1.366 . S
C1060 C1062 1.388 . S
C1061 C1060 1.366 . S
C1061 C1065 1.385 . S
C1062 H1043 0.951 . S
C1062 C1060 1.388 . S
C1062 C1063 1.366 . S
C1063 C1062 1.366 . S
C1063 C1064 1.414 . S
C1063 C1066 1.499 . S
C1064 H1044 0.950 . S
C1064 C1063 1.414 . S
C1064 C1065 1.374 . S
C1065 H1045 0.950 . S
C1065 C1061 1.385 . S
C1065 C1064 1.374 . S
C1066 C1063 1.499 . S
C1066 C1067 1.373 . S
C1066 C1068 1.389 . S
C1067 H1046 0.950 . S
C1067 C1066 1.373 . S
C1067 C1083 1.377 . S
C1068 C1066 1.389 . S
C1068 C1069 1.524 . S
C1068 C1082 1.377 . S
C1069 C1068 1.524 . S
C1069 C1070 1.397 . S
C1069 C1074 1.363 . S
C1070 H1047 0.950 . S
C1070 C1069 1.397 . S
C1070 C1071 1.334 . S
C1071 H1048 0.950 . S
C1071 C1070 1.334 . S
C1071 C1072 1.287 . S
C1072 C1071 1.287 . S
C1072 C1073 1.524 . S
C1072 H1091 0.913 . S
C1073 H1049 0.950 . S
C1073 C1072 1.524 . S
C1073 C1074 1.415 . S
C1074 H1050 0.950 . S
C1074 C1069 1.363 . S
C1074 C1073 1.415 . S
C1075 H1051 0.951 . S
C1075 C1076 1.366 . S
C1075 C1077 1.388 . S
C1076 C1075 1.366 . S
C1076 C1080 1.385 . S
C1077 H1052 0.951 . S
C1077 C1075 1.388 . S
C1077 C1078 1.366 . S
C1078 C1077 1.366 . S
C1078 C1079 1.414 . S
C1078 C1081 1.499 . S
C1079 H1053 0.950 . S
C1079 C1078 1.414 . S
C1079 C1080 1.374 . S
C1080 H1054 0.950 . S
C1080 C1076 1.385 . S
C1080 C1079 1.374 . S
C1081 C1078 1.499 . S
C1081 C1082 1.373 . S
C1081 C1083 1.389 . S
C1082 H1055 0.950 . S
C1082 C1068 1.377 . S
C1082 C1081 1.373 . S
C1083 C1067 1.377 . S
C1083 C1081 1.389 . S
C1083 C1084 1.524 . S
C1084 C1083 1.524 . S
C1084 C1085 1.397 . S
C1084 C1089 1.363 . S
C1085 H1056 0.950 . S
C1085 C1084 1.397 . S
C1085 C1086 1.334 . S
C1086 H1057 0.950 . S
C1086 C1085 1.334 . S
C1086 C1087 1.287 . S
C1087 C1086 1.287 . S
C1087 C1088 1.524 . S
C1087 H1090 0.999 . S
C1088 H1058 0.950 . S
C1088 C1087 1.524 . S
C1088 C1089 1.415 . S
C1089 H1059 0.950 . S
C1089 C1084 1.363 . S
C1089 C1088 1.415 . S
H1090 C1087 0.999 . S
H1091 C1072 0.913 . S
H1092 C1110 0.951 . S
H1093 C1112 0.951 . S
H1094 C1114 0.950 . S
H1095 C1115 0.950 . S
H1096 C1117 0.950 . S
H1097 C1120 0.950 . S
H1098 C1121 0.950 . S
H1099 C1123 0.950 . S
H1100 C1124 0.950 . S
H1101 C1125 0.951 . S
H1102 C1127 0.951 . S
H1103 C1129 0.950 . S
H1104 C1130 0.950 . S
H1105 C1132 0.950 . S
H1106 C1135 0.950 . S
H1107 C1136 0.950 . S
H1108 C1138 0.950 . S
H1109 C1139 0.950 . S
C1110 H1092 0.951 . S
C1110 C1111 1.366 . S
C1110 C1112 1.388 . S
C1111 C1110 1.366 . S
C1111 C1115 1.385 . S
C1112 H1093 0.951 . S
C1112 C1110 1.388 . S
C1112 C1113 1.366 . S
C1113 C1112 1.366 . S
C1113 C1114 1.414 . S
C1113 C1116 1.499 . S
C1114 H1094 0.950 . S
C1114 C1113 1.414 . S
C1114 C1115 1.374 . S
C1115 H1095 0.950 . S
C1115 C1111 1.385 . S
C1115 C1114 1.374 . S
C1116 C1113 1.499 . S
C1116 C1117 1.373 . S
C1116 C1118 1.389 . S
C1117 H1096 0.950 . S
C1117 C1116 1.373 . S
C1117 C1133 1.377 . S
C1118 C1116 1.389 . S
C1118 C1119 1.524 . S
C1118 C1132 1.377 . S
C1119 C1118 1.524 . S
C1119 C1120 1.397 . S
C1119 C1124 1.363 . S
C1120 H1097 0.950 . S
C1120 C1119 1.397 . S
C1120 C1121 1.334 . S
C1121 H1098 0.950 . S
C1121 C1120 1.334 . S
C1121 C1122 1.287 . S
C1122 C1121 1.287 . S
C1122 C1123 1.524 . S
C1122 H1141 0.913 . S
C1123 H1099 0.950 . S
C1123 C1122 1.524 . S
C1123 C1124 1.415 . S
C1124 H1100 0.950 . S
C1124 C1119 1.363 . S
C1124 C1123 1.415 . S
C1125 H1101 0.951 . S
C1125 C1126 1.366 . S
C1125 C1127 1.388 . S
C1126 C1125 1.366 . S
C1126 C1130 1.385 . S
C1127 H1102 0.951 . S
C1127 C1125 1.388 . S
C1127 C1128 1.366 . S
C1128 C1127 1.366 . S
C1128 C1129 1.414 . S
C1128 C1131 1.499 . S
C1129 H1103 0.950 . S
C1129 C1128 1.414 . S
C1129 C1130 1.374 . S
C1130 H1104 0.950 . S
C1130 C1126 1.385 . S
C1130 C1129 1.374 . S
C1131 C1128 1.499 . S
C1131 C1132 1.373 . S
C1131 C1133 1.389 . S
C1132 H1105 0.950 . S
C1132 C1118 1.377 . S
C1132 C1131 1.373 . S
C1133 C1117 1.377 . S
C1133 C1131 1.389 . S
C1133 C1134 1.524 . S
C1134 C1133 1.524 . S
C1134 C1135 1.397 . S
C1134 C1139 1.363 . S
C1135 H1106 0.950 . S
C1135 C1134 1.397 . S
C1135 C1136 1.334 . S
C1136 H1107 0.950 . S
C1136 C1135 1.334 . S
C1136 C1137 1.287 . S
C1137 C1136 1.287 . S
C1137 C1138 1.524 . S
C1137 H1140 0.999 . S
C1138 H1108 0.950 . S
C1138 C1137 1.524 . S
C1138 C1139 1.415 . S
C1139 H1109 0.950 . S
C1139 C1134 1.363 . S
C1139 C1138 1.415 . S
H1140 C1137 0.999 . S
H1141 C1122 0.913 . S
H1142 C1160 0.951 . S
H1143 C1162 0.951 . S
H1144 C1164 0.950 . S
H1145 C1165 0.950 . S
H1146 C1167 0.950 . S
H1147 C1170 0.950 . S
H1148 C1171 0.950 . S
H1149 C1173 0.950 . S
H1150 C1174 0.950 . S
H1151 C1175 0.951 . S
H1152 C1177 0.951 . S
H1153 C1179 0.950 . S
H1154 C1180 0.950 . S
H1155 C1182 0.950 . S
H1156 C1185 0.950 . S
H1157 C1186 0.950 . S
H1158 C1188 0.950 . S
H1159 C1189 0.950 . S
C1160 H1142 0.951 . S
C1160 C1161 1.366 . S
C1160 C1162 1.388 . S
C1161 C1160 1.366 . S
C1161 C1165 1.385 . S
C1162 H1143 0.951 . S
C1162 C1160 1.388 . S
C1162 C1163 1.366 . S
C1163 C1162 1.366 . S
C1163 C1164 1.414 . S
C1163 C1166 1.499 . S
C1164 H1144 0.950 . S
C1164 C1163 1.414 . S
C1164 C1165 1.374 . S
C1165 H1145 0.950 . S
C1165 C1161 1.385 . S
C1165 C1164 1.374 . S
C1166 C1163 1.499 . S
C1166 C1167 1.373 . S
C1166 C1168 1.389 . S
C1167 H1146 0.950 . S
C1167 C1166 1.373 . S
C1167 C1183 1.377 . S
C1168 C1166 1.389 . S
C1168 C1169 1.524 . S
C1168 C1182 1.377 . S
C1169 C1168 1.524 . S
C1169 C1170 1.397 . S
C1169 C1174 1.363 . S
C1170 H1147 0.950 . S
C1170 C1169 1.397 . S
C1170 C1171 1.334 . S
C1171 H1148 0.950 . S
C1171 C1170 1.334 . S
C1171 C1172 1.287 . S
C1172 C1171 1.287 . S
C1172 C1173 1.524 . S
C1172 H1191 0.913 . S
C1173 H1149 0.950 . S
C1173 C1172 1.524 . S
C1173 C1174 1.415 . S
C1174 H1150 0.950 . S
C1174 C1169 1.363 . S
C1174 C1173 1.415 . S
C1175 H1151 0.951 . S
C1175 C1176 1.366 . S
C1175 C1177 1.388 . S
C1176 C1175 1.366 . S
C1176 C1180 1.385 . S
C1177 H1152 0.951 . S
C1177 C1175 1.388 . S
C1177 C1178 1.366 . S
C1178 C1177 1.366 . S
C1178 C1179 1.414 . S
C1178 C1181 1.499 . S
C1179 H1153 0.950 . S
C1179 C1178 1.414 . S
C1179 C1180 1.374 . S
C1180 H1154 0.950 . S
C1180 C1176 1.385 . S
C1180 C1179 1.374 . S
C1181 C1178 1.499 . S
C1181 C1182 1.373 . S
C1181 C1183 1.389 . S
C1182 H1155 0.950 . S
C1182 C1168 1.377 . S
C1182 C1181 1.373 . S
C1183 C1167 1.377 . S
C1183 C1181 1.389 . S
C1183 C1184 1.524 . S
C1184 C1183 1.524 . S
C1184 C1185 1.397 . S
C1184 C1189 1.363 . S
C1185 H1156 0.950 . S
C1185 C1184 1.397 . S
C1185 C1186 1.334 . S
C1186 H1157 0.950 . S
C1186 C1185 1.334 . S
C1186 C1187 1.287 . S
C1187 C1186 1.287 . S
C1187 C1188 1.524 . S
C1187 H1190 0.999 . S
C1188 H1158 0.950 . S
C1188 C1187 1.524 . S
C1188 C1189 1.415 . S
C1189 H1159 0.950 . S
C1189 C1184 1.363 . S
C1189 C1188 1.415 . S
H1190 C1187 0.999 . S
H1191 C1172 0.913 . S
H1192 C1210 0.951 . S
H1193 C1212 0.951 . S
H1194 C1214 0.950 . S
H1195 C1215 0.950 . S
H1196 C1217 0.950 . S
H1197 C1220 0.950 . S
H1198 C1221 0.950 . S
H1199 C1223 0.950 . S
H1200 C1224 0.950 . S
H1201 C1225 0.951 . S
H1202 C1227 0.951 . S
H1203 C1229 0.950 . S
H1204 C1230 0.950 . S
H1205 C1232 0.950 . S
H1206 C1235 0.950 . S
H1207 C1236 0.950 . S
H1208 C1238 0.950 . S
H1209 C1239 0.950 . S
C1210 H1192 0.951 . S
C1210 C1211 1.366 . S
C1210 C1212 1.388 . S
C1211 C1210 1.366 . S
C1211 C1215 1.385 . S
C1212 H1193 0.951 . S
C1212 C1210 1.388 . S
C1212 C1213 1.366 . S
C1213 C1212 1.366 . S
C1213 C1214 1.414 . S
C1213 C1216 1.499 . S
C1214 H1194 0.950 . S
C1214 C1213 1.414 . S
C1214 C1215 1.374 . S
C1215 H1195 0.950 . S
C1215 C1211 1.385 . S
C1215 C1214 1.374 . S
C1216 C1213 1.499 . S
C1216 C1217 1.373 . S
C1216 C1218 1.389 . S
C1217 H1196 0.950 . S
C1217 C1216 1.373 . S
C1217 C1233 1.377 . S
C1218 C1216 1.389 . S
C1218 C1219 1.524 . S
C1218 C1232 1.377 . S
C1219 C1218 1.524 . S
C1219 C1220 1.397 . S
C1219 C1224 1.363 . S
C1220 H1197 0.950 . S
C1220 C1219 1.397 . S
C1220 C1221 1.334 . S
C1221 H1198 0.950 . S
C1221 C1220 1.334 . S
C1221 C1222 1.287 . S
C1222 C1221 1.287 . S
C1222 C1223 1.524 . S
C1222 H1241 0.913 . S
C1223 H1199 0.950 . S
C1223 C1222 1.524 . S
C1223 C1224 1.415 . S
C1224 H1200 0.950 . S
C1224 C1219 1.363 . S
C1224 C1223 1.415 . S
C1225 H1201 0.951 . S
C1225 C1226 1.366 . S
C1225 C1227 1.388 . S
C1226 C1225 1.366 . S
C1226 C1230 1.385 . S
C1227 H1202 0.951 . S
C1227 C1225 1.388 . S
C1227 C1228 1.366 . S
C1228 C1227 1.366 . S
C1228 C1229 1.414 . S
C1228 C1231 1.499 . S
C1229 H1203 0.950 . S
C1229 C1228 1.414 . S
C1229 C1230 1.374 . S
C1230 H1204 0.950 . S
C1230 C1226 1.385 . S
C1230 C1229 1.374 . S
C1231 C1228 1.499 . S
C1231 C1232 1.373 . S
C1231 C1233 1.389 . S
C1232 H1205 0.950 . S
C1232 C1218 1.377 . S
C1232 C1231 1.373 . S
C1233 C1217 1.377 . S
C1233 C1231 1.389 . S
C1233 C1234 1.524 . S
C1234 C1233 1.524 . S
C1234 C1235 1.397 . S
C1234 C1239 1.363 . S
C1235 H1206 0.950 . S
C1235 C1234 1.397 . S
C1235 C1236 1.334 . S
C1236 H1207 0.950 . S
C1236 C1235 1.334 . S
C1236 C1237 1.287 . S
C1237 C1236 1.287 . S
C1237 C1238 1.524 . S
C1237 H1240 0.999 . S
C1238 H1208 0.950 . S
C1238 C1237 1.524 . S
C1238 C1239 1.415 . S
C1239 H1209 0.950 . S
C1239 C1234 1.363 . S
C1239 C1238 1.415 . S
H1240 C1237 0.999 . S
H1241 C1222 0.913 . S
H1242 C1260 0.951 . S
H1243 C1262 0.951 . S
H1244 C1264 0.950 . S
H1245 C1265 0.950 . S
H1246 C1267 0.950 . S
H1247 C1270 0.950 . S
H1248 C1271 0.950 . S
H1249 C1273 0.950 . S
H1250 C1274 0.950 . S
H1251 C1275 0.951 . S
H1252 C1277 0.951 . S
H1253 C1279 0.950 . S
H1254 C1280 0.950 . S
H1255 C1282 0.950 . S
H1256 C1285 0.950 . S
H1257 C1286 0.950 . S
H1258 C1288 0.950 . S
H1259 C1289 0.950 . S
C1260 H1242 0.951 . S
C1260 C1261 1.366 . S
C1260 C1262 1.388 . S
C1261 C1260 1.366 . S
C1261 C1265 1.385 . S
C1262 H1243 0.951 . S
C1262 C1260 1.388 . S
C1262 C1263 1.366 . S
C1263 C1262 1.366 . S
C1263 C1264 1.414 . S
C1263 C1266 1.499 . S
C1264 H1244 0.950 . S
C1264 C1263 1.414 . S
C1264 C1265 1.374 . S
C1265 H1245 0.950 . S
C1265 C1261 1.385 . S
C1265 C1264 1.374 . S
C1266 C1263 1.499 . S
C1266 C1267 1.373 . S
C1266 C1268 1.389 . S
C1267 H1246 0.950 . S
C1267 C1266 1.373 . S
C1267 C1283 1.377 . S
C1268 C1266 1.389 . S
C1268 C1269 1.524 . S
C1268 C1282 1.377 . S
C1269 C1268 1.524 . S
C1269 C1270 1.397 . S
C1269 C1274 1.363 . S
C1270 H1247 0.950 . S
C1270 C1269 1.397 . S
C1270 C1271 1.334 . S
C1271 H1248 0.950 . S
C1271 C1270 1.334 . S
C1271 C1272 1.287 . S
C1272 C1271 1.287 . S
C1272 C1273 1.524 . S
C1272 H1291 0.913 . S
C1273 H1249 0.950 . S
C1273 C1272 1.524 . S
C1273 C1274 1.415 . S
C1274 H1250 0.950 . S
C1274 C1269 1.363 . S
C1274 C1273 1.415 . S
C1275 H1251 0.951 . S
C1275 C1276 1.366 . S
C1275 C1277 1.388 . S
C1276 C1275 1.366 . S
C1276 C1280 1.385 . S
C1277 H1252 0.951 . S
C1277 C1275 1.388 . S
C1277 C1278 1.366 . S
C1278 C1277 1.366 . S
C1278 C1279 1.414 . S
C1278 C1281 1.499 . S
C1279 H1253 0.950 . S
C1279 C1278 1.414 . S
C1279 C1280 1.374 . S
C1280 H1254 0.950 . S
C1280 C1276 1.385 . S
C1280 C1279 1.374 . S
C1281 C1278 1.499 . S
C1281 C1282 1.373 . S
C1281 C1283 1.389 . S
C1282 H1255 0.950 . S
C1282 C1268 1.377 . S
C1282 C1281 1.373 . S
C1283 C1267 1.377 . S
C1283 C1281 1.389 . S
C1283 C1284 1.524 . S
C1284 C1283 1.524 . S
C1284 C1285 1.397 . S
C1284 C1289 1.363 . S
C1285 H1256 0.950 . S
C1285 C1284 1.397 . S
C1285 C1286 1.334 . S
C1286 H1257 0.950 . S
C1286 C1285 1.334 . S
C1286 C1287 1.287 . S
C1287 C1286 1.287 . S
C1287 C1288 1.524 . S
C1287 H1290 0.999 . S
C1288 H1258 0.950 . S
C1288 C1287 1.524 . S
C1288 C1289 1.415 . S
C1289 H1259 0.950 . S
C1289 C1284 1.363 . S
C1289 C1288 1.415 . S
H1290 C1287 0.999 . S
H1291 C1272 0.913 . S
H1292 C1310 0.951 . S
H1293 C1312 0.951 . S
H1294 C1314 0.950 . S
H1295 C1315 0.950 . S
H1296 C1317 0.950 . S
H1297 C1320 0.950 . S
H1298 C1321 0.950 . S
H1299 C1323 0.950 . S
H1300 C1324 0.950 . S
H1301 C1325 0.951 . S
H1302 C1327 0.951 . S
H1303 C1329 0.950 . S
H1304 C1330 0.950 . S
H1305 C1332 0.950 . S
H1306 C1335 0.950 . S
H1307 C1336 0.950 . S
H1308 C1338 0.950 . S
H1309 C1339 0.950 . S
C1310 H1292 0.951 . S
C1310 C1311 1.366 . S
C1310 C1312 1.388 . S
C1311 C1310 1.366 . S
C1311 C1315 1.385 . S
C1312 H1293 0.951 . S
C1312 C1310 1.388 . S
C1312 C1313 1.366 . S
C1313 C1312 1.366 . S
C1313 C1314 1.414 . S
C1313 C1316 1.499 . S
C1314 H1294 0.950 . S
C1314 C1313 1.414 . S
C1314 C1315 1.374 . S
C1315 H1295 0.950 . S
C1315 C1311 1.385 . S
C1315 C1314 1.374 . S
C1316 C1313 1.499 . S
C1316 C1317 1.373 . S
C1316 C1318 1.389 . S
C1317 H1296 0.950 . S
C1317 C1316 1.373 . S
C1317 C1333 1.377 . S
C1318 C1316 1.389 . S
C1318 C1319 1.524 . S
C1318 C1332 1.377 . S
C1319 C1318 1.524 . S
C1319 C1320 1.397 . S
C1319 C1324 1.363 . S
C1320 H1297 0.950 . S
C1320 C1319 1.397 . S
C1320 C1321 1.334 . S
C1321 H1298 0.950 . S
C1321 C1320 1.334 . S
C1321 C1322 1.287 . S
C1322 C1321 1.287 . S
C1322 C1323 1.524 . S
C1322 H1341 0.913 . S
C1323 H1299 0.950 . S
C1323 C1322 1.524 . S
C1323 C1324 1.415 . S
C1324 H1300 0.950 . S
C1324 C1319 1.363 . S
C1324 C1323 1.415 . S
C1325 H1301 0.951 . S
C1325 C1326 1.366 . S
C1325 C1327 1.388 . S
C1326 C1325 1.366 . S
C1326 C1330 1.385 . S
C1327 H1302 0.951 . S
C1327 C1325 1.388 . S
C1327 C1328 1.366 . S
C1328 C1327 1.366 . S
C1328 C1329 1.414 . S
C1328 C1331 1.499 . S
C1329 H1303 0.950 . S
C1329 C1328 1.414 . S
C1329 C1330 1.374 . S
C1330 H1304 0.950 . S
C1330 C1326 1.385 . S
C1330 C1329 1.374 . S
C1331 C1328 1.499 . S
C1331 C1332 1.373 . S
C1331 C1333 1.389 . S
C1332 H1305 0.950 . S
C1332 C1318 1.377 . S
C1332 C1331 1.373 . S
C1333 C1317 1.377 . S
C1333 C1331 1.389 . S
C1333 C1334 1.524 . S
C1334 C1333 1.524 . S
C1334 C1335 1.397 . S
C1334 C1339 1.363 . S
C1335 H1306 0.950 . S
C1335 C1334 1.397 . S
C1335 C1336 1.334 . S
C1336 H1307 0.950 . S
C1336 C1335 1.334 . S
C1336 C1337 1.287 . S
C1337 C1336 1.287 . S
C1337 C1338 1.524 . S
C1337 H1340 0.999 . S
C1338 H1308 0.950 . S
C1338 C1337 1.524 . S
C1338 C1339 1.415 . S
C1339 H1309 0.950 . S
C1339 C1334 1.363 . S
C1339 C1338 1.415 . S
H1340 C1337 0.999 . S
H1341 C1322 0.913 . S
H1342 C1360 0.951 . S
H1343 C1362 0.951 . S
H1344 C1364 0.950 . S
H1345 C1365 0.950 . S
H1346 C1367 0.950 . S
H1347 C1370 0.950 . S
H1348 C1371 0.950 . S
H1349 C1373 0.950 . S
H1350 C1374 0.950 . S
H1351 C1375 0.951 . S
H1352 C1377 0.951 . S
H1353 C1379 0.950 . S
H1354 C1380 0.950 . S
H1355 C1382 0.950 . S
H1356 C1385 0.950 . S
H1357 C1386 0.950 . S
H1358 C1388 0.950 . S
H1359 C1389 0.950 . S
C1360 H1342 0.951 . S
C1360 C1361 1.366 . S
C1360 C1362 1.388 . S
C1361 C1360 1.366 . S
C1361 C1365 1.385 . S
C1362 H1343 0.951 . S
C1362 C1360 1.388 . S
C1362 C1363 1.366 . S
C1363 C1362 1.366 . S
C1363 C1364 1.414 . S
C1363 C1366 1.499 . S
C1364 H1344 0.950 . S
C1364 C1363 1.414 . S
C1364 C1365 1.374 . S
C1365 H1345 0.950 . S
C1365 C1361 1.385 . S
C1365 C1364 1.374 . S
C1366 C1363 1.499 . S
C1366 C1367 1.373 . S
C1366 C1368 1.389 . S
C1367 H1346 0.950 . S
C1367 C1366 1.373 . S
C1367 C1383 1.377 . S
C1368 C1366 1.389 . S
C1368 C1369 1.524 . S
C1368 C1382 1.377 . S
C1369 C1368 1.524 . S
C1369 C1370 1.397 . S
C1369 C1374 1.363 . S
C1370 H1347 0.950 . S
C1370 C1369 1.397 . S
C1370 C1371 1.334 . S
C1371 H1348 0.950 . S
C1371 C1370 1.334 . S
C1371 C1372 1.287 . S
C1372 C1371 1.287 . S
C1372 C1373 1.524 . S
C1372 H1391 0.913 . S
C1373 H1349 0.950 . S
C1373 C1372 1.524 . S
C1373 C1374 1.415 . S
C1374 H1350 0.950 . S
C1374 C1369 1.363 . S
C1374 C1373 1.415 . S
C1375 H1351 0.951 . S
C1375 C1376 1.366 . S
C1375 C1377 1.388 . S
C1376 C1375 1.366 . S
C1376 C1380 1.385 . S
C1377 H1352 0.951 . S
C1377 C1375 1.388 . S
C1377 C1378 1.366 . S
C1378 C1377 1.366 . S
C1378 C1379 1.414 . S
C1378 C1381 1.499 . S
C1379 H1353 0.950 . S
C1379 C1378 1.414 . S
C1379 C1380 1.374 . S
C1380 H1354 0.950 . S
C1380 C1376 1.385 . S
C1380 C1379 1.374 . S
C1381 C1378 1.499 . S
C1381 C1382 1.373 . S
C1381 C1383 1.389 . S
C1382 H1355 0.950 . S
C1382 C1368 1.377 . S
C1382 C1381 1.373 . S
C1383 C1367 1.377 . S
C1383 C1381 1.389 . S
C1383 C1384 1.524 . S
C1384 C1383 1.524 . S
C1384 C1385 1.397 . S
C1384 C1389 1.363 . S
C1385 H1356 0.950 . S
C1385 C1384 1.397 . S
C1385 C1386 1.334 . S
C1386 H1357 0.950 . S
C1386 C1385 1.334 . S
C1386 C1387 1.287 . S
C1387 C1386 1.287 . S
C1387 C1388 1.524 . S
C1387 H1390 0.999 . S
C1388 H1358 0.950 . S
C1388 C1387 1.524 . S
C1388 C1389 1.415 . S
C1389 H1359 0.950 . S
C1389 C1384 1.363 . S
C1389 C1388 1.415 . S
H1390 C1387 0.999 . S
H1391 C1372 0.913 . S
H1392 C1410 0.951 . S
H1393 C1412 0.951 . S
H1394 C1414 0.950 . S
H1395 C1415 0.950 . S
H1396 C1417 0.950 . S
H1397 C1420 0.950 . S
H1398 C1421 0.950 . S
H1399 C1423 0.950 . S
H1400 C1424 0.950 . S
H1401 C1425 0.951 . S
H1402 C1427 0.951 . S
H1403 C1429 0.950 . S
H1404 C1430 0.950 . S
H1405 C1432 0.950 . S
H1406 C1435 0.950 . S
H1407 C1436 0.950 . S
H1408 C1438 0.950 . S
H1409 C1439 0.950 . S
C1410 H1392 0.951 . S
C1410 C1411 1.366 . S
C1410 C1412 1.388 . S
C1411 C1410 1.366 . S
C1411 C1415 1.385 . S
C1412 H1393 0.951 . S
C1412 C1410 1.388 . S
C1412 C1413 1.366 . S
C1413 C1412 1.366 . S
C1413 C1414 1.414 . S
C1413 C1416 1.499 . S
C1414 H1394 0.950 . S
C1414 C1413 1.414 . S
C1414 C1415 1.374 . S
C1415 H1395 0.950 . S
C1415 C1411 1.385 . S
C1415 C1414 1.374 . S
C1416 C1413 1.499 . S
C1416 C1417 1.373 . S
C1416 C1418 1.389 . S
C1417 H1396 0.950 . S
C1417 C1416 1.373 . S
C1417 C1433 1.377 . S
C1418 C1416 1.389 . S
C1418 C1419 1.524 . S
C1418 C1432 1.377 . S
C1419 C1418 1.524 . S
C1419 C1420 1.397 . S
C1419 C1424 1.363 . S
C1420 H1397 0.950 . S
C1420 C1419 1.397 . S
C1420 C1421 1.334 . S
C1421 H1398 0.950 . S
C1421 C1420 1.334 . S
C1421 C1422 1.287 . S
C1422 C1421 1.287 . S
C1422 C1423 1.524 . S
C1422 H1441 0.913 . S
C1423 H1399 0.950 . S
C1423 C1422 1.524 . S
C1423 C1424 1.415 . S
C1424 H1400 0.950 . S
C1424 C1419 1.363 . S
C1424 C1423 1.415 . S
C1425 H1401 0.951 . S
C1425 C1426 1.366 . S
C1425 C1427 1.388 . S
C1426 C1425 1.366 . S
C1426 C1430 1.385 . S
C1427 H1402 0.951 . S
C1427 C1425 1.388 . S
C1427 C1428 1.366 . S
C1428 C1427 1.366 . S
C1428 C1429 1.414 . S
C1428 C1431 1.499 . S
C1429 H1403 0.950 . S
C1429 C1428 1.414 . S
C1429 C1430 1.374 . S
C1430 H1404 0.950 . S
C1430 C1426 1.385 . S
C1430 C1429 1.374 . S
C1431 C1428 1.499 . S
C1431 C1432 1.373 . S
C1431 C1433 1.389 . S
C1432 H1405 0.950 . S
C1432 C1418 1.377 . S
C1432 C1431 1.373 . S
C1433 C1417 1.377 . S
C1433 C1431 1.389 . S
C1433 C1434 1.524 . S
C1434 C1433 1.524 . S
C1434 C1435 1.397 . S
C1434 C1439 1.363 . S
C1435 H1406 0.950 . S
C1435 C1434 1.397 . S
C1435 C1436 1.334 . S
C1436 H1407 0.950 . S
C1436 C1435 1.334 . S
C1436 C1437 1.287 . S
C1437 C1436 1.287 . S
C1437 C1438 1.524 . S
C1437 H1440 0.999 . S
C1438 H1408 0.950 . S
C1438 C1437 1.524 . S
C1438 C1439 1.415 . S
C1439 H1409 0.950 . S
C1439 C1434 1.363 . S
C1439 C1438 1.415 . S
H1440 C1437 0.999 . S
H1441 C1422 0.913 . S
H1442 C1460 0.951 . S
H1443 C1462 0.951 . S
H1444 C1464 0.950 . S
H1445 C1465 0.950 . S
H1446 C1467 0.950 . S
H1447 C1470 0.950 . S
H1448 C1471 0.950 . S
H1449 C1473 0.950 . S
H1450 C1474 0.950 . S
H1451 C1475 0.951 . S
H1452 C1477 0.951 . S
H1453 C1479 0.950 . S
H1454 C1480 0.950 . S
H1455 C1482 0.950 . S
H1456 C1485 0.950 . S
H1457 C1486 0.950 . S
H1458 C1488 0.950 . S
H1459 C1489 0.950 . S
C1460 H1442 0.951 . S
C1460 C1461 1.366 . S
C1460 C1462 1.388 . S
C1461 C1460 1.366 . S
C1461 C1465 1.385 . S
C1462 H1443 0.951 . S
C1462 C1460 1.388 . S
C1462 C1463 1.366 . S
C1463 C1462 1.366 . S
C1463 C1464 1.414 . S
C1463 C1466 1.499 . S
C1464 H1444 0.950 . S
C1464 C1463 1.414 . S
C1464 C1465 1.374 . S
C1465 H1445 0.950 . S
C1465 C1461 1.385 . S
C1465 C1464 1.374 . S
C1466 C1463 1.499 . S
C1466 C1467 1.373 . S
C1466 C1468 1.389 . S
C1467 H1446 0.950 . S
C1467 C1466 1.373 . S
C1467 C1483 1.377 . S
C1468 C1466 1.389 . S
C1468 C1469 1.524 . S
C1468 C1482 1.377 . S
C1469 C1468 1.524 . S
C1469 C1470 1.397 . S
C1469 C1474 1.363 . S
C1470 H1447 0.950 . S
C1470 C1469 1.397 . S
C1470 C1471 1.334 . S
C1471 H1448 0.950 . S
C1471 C1470 1.334 . S
C1471 C1472 1.287 . S
C1472 C1471 1.287 . S
C1472 C1473 1.524 . S
C1472 H1491 0.913 . S
C1473 H1449 0.950 . S
C1473 C1472 1.524 . S
C1473 C1474 1.415 . S
C1474 H1450 0.950 . S
C1474 C1469 1.363 . S
C1474 C1473 1.415 . S
C1475 H1451 0.951 . S
C1475 C1476 1.366 . S
C1475 C1477 1.388 . S
C1476 C1475 1.366 . S
C1476 C1480 1.385 . S
C1477 H1452 0.951 . S
C1477 C1475 1.388 . S
C1477 C1478 1.366 . S
C1478 C1477 1.366 . S
C1478 C1479 1.414 . S
C1478 C1481 1.499 . S
C1479 H1453 0.950 . S
C1479 C1478 1.414 . S
C1479 C1480 1.374 . S
C1480 H1454 0.950 . S
C1480 C1476 1.385 . S
C1480 C1479 1.374 . S
C1481 C1478 1.499 . S
C1481 C1482 1.373 . S
C1481 C1483 1.389 . S
C1482 H1455 0.950 . S
C1482 C1468 1.377 . S
C1482 C1481 1.373 . S
C1483 C1467 1.377 . S
C1483 C1481 1.389 . S
C1483 C1484 1.524 . S
C1484 C1483 1.524 . S
C1484 C1485 1.397 . S
C1484 C1489 1.363 . S
C1485 H1456 0.950 . S
C1485 C1484 1.397 . S
C1485 C1486 1.334 . S
C1486 H1457 0.950 . S
C1486 C1485 1.334 . S
C1486 C1487 1.287 . S
C1487 C1486 1.287 . S
C1487 C1488 1.524 . S
C1487 H1490 0.999 . S
C1488 H1458 0.950 . S
C1488 C1487 1.524 . S
C1488 C1489 1.415 . S
C1489 H1459 0.950 . S
C1489 C1484 1.363 . S
C1489 C1488 1.415 . S
H1490 C1487 0.999 . S
H1491 C1472 0.913 . S
H1492 C1510 0.951 . S
H1493 C1512 0.951 . S
H1494 C1514 0.950 . S
H1495 C1515 0.950 . S
H1496 C1517 0.950 . S
H1497 C1520 0.950 . S
H1498 C1521 0.950 . S
H1499 C1523 0.950 . S
H1500 C1524 0.950 . S
H1501 C1525 0.951 . S
H1502 C1527 0.951 . S
H1503 C1529 0.950 . S
H1504 C1530 0.950 . S
H1505 C1532 0.950 . S
H1506 C1535 0.950 . S
H1507 C1536 0.950 . S
H1508 C1538 0.950 . S
H1509 C1539 0.950 . S
C1510 H1492 0.951 . S
C1510 C1511 1.366 . S
C1510 C1512 1.388 . S
C1511 C1510 1.366 . S
C1511 C1515 1.385 . S
C1512 H1493 0.951 . S
C1512 C1510 1.388 . S
C1512 C1513 1.366 . S
C1513 C1512 1.366 . S
C1513 C1514 1.414 . S
C1513 C1516 1.499 . S
C1514 H1494 0.950 . S
C1514 C1513 1.414 . S
C1514 C1515 1.374 . S
C1515 H1495 0.950 . S
C1515 C1511 1.385 . S
C1515 C1514 1.374 . S
C1516 C1513 1.499 . S
C1516 C1517 1.373 . S
C1516 C1518 1.389 . S
C1517 H1496 0.950 . S
C1517 C1516 1.373 . S
C1517 C1533 1.377 . S
C1518 C1516 1.389 . S
C1518 C1519 1.524 . S
C1518 C1532 1.377 . S
C1519 C1518 1.524 . S
C1519 C1520 1.397 . S
C1519 C1524 1.363 . S
C1520 H1497 0.950 . S
C1520 C1519 1.397 . S
C1520 C1521 1.334 . S
C1521 H1498 0.950 . S
C1521 C1520 1.334 . S
C1521 C1522 1.287 . S
C1522 C1521 1.287 . S
C1522 C1523 1.524 . S
C1522 H1541 0.913 . S
C1523 H1499 0.950 . S
C1523 C1522 1.524 . S
C1523 C1524 1.415 . S
C1524 H1500 0.950 . S
C1524 C1519 1.363 . S
C1524 C1523 1.415 . S
C1525 H1501 0.951 . S
C1525 C1526 1.366 . S
C1525 C1527 1.388 . S
C1526 C1525 1.366 . S
C1526 C1530 1.385 . S
C1527 H1502 0.951 . S
C1527 C1525 1.388 . S
C1527 C1528 1.366 . S
C1528 C1527 1.366 . S
C1528 C1529 1.414 . S
C1528 C1531 1.499 . S
C1529 H1503 0.950 . S
C1529 C1528 1.414 . S
C1529 C1530 1.374 . S
C1530 H1504 0.950 . S
C1530 C1526 1.385 . S
C1530 C1529 1.374 . S
C1531 C1528 1.499 . S
C1531 C1532 1.373 . S
C1531 C1533 1.389 . S
C1532 H1505 0.950 . S
C1532 C1518 1.377 . S
C1532 C1531 1.373 . S
C1533 C1517 1.377 . S
C1533 C1531 1.389 . S
C1533 C1534 1.524 . S
C1534 C1533 1.524 . S
C1534 C1535 1.397 . S
C1534 C1539 1.363 . S
C1535 H1506 0.950 . S
C1535 C1534 1.397 . S
C1535 C1536 1.334 . S
C1536 H1507 0.950 . S
C1536 C1535 1.334 . S
C1536 C1537 1.287 . S
C1537 C1536 1.287 . S
C1537 C1538 1.524 . S
C1537 H1540 0.999 . S
C1538 H1508 0.950 . S
C1538 C1537 1.524 . S
C1538 C1539 1.415 . S
C1539 H1509 0.950 . S
C1539 C1534 1.363 . S
C1539 C1538 1.415 . S
H1540 C1537 0.999 . S
H1541 C1522 0.913 . S
H1542 C1560 0.951 . S
H1543 C1562 0.951 . S
H1544 C1564 0.950 . S
H1545 C1565 0.950 . S
H1546 C1567 0.950 . S
H1547 C1570 0.950 . S
H1548 C1571 0.950 . S
H1549 C1573 0.950 . S
H1550 C1574 0.950 . S
H1551 C1575 0.951 . S
H1552 C1577 0.951 . S
H1553 C1579 0.950 . S
H1554 C1580 0.950 . S
H1555 C1582 0.950 . S
H1556 C1585 0.950 . S
H1557 C1586 0.950 . S
H1558 C1588 0.950 . S
H1559 C1589 0.950 . S
C1560 H1542 0.951 . S
C1560 C1561 1.366 . S
C1560 C1562 1.388 . S
C1561 C1560 1.366 . S
C1561 C1565 1.385 . S
C1562 H1543 0.951 . S
C1562 C1560 1.388 . S
C1562 C1563 1.366 . S
C1563 C1562 1.366 . S
C1563 C1564 1.414 . S
C1563 C1566 1.499 . S
C1564 H1544 0.950 . S
C1564 C1563 1.414 . S
C1564 C1565 1.374 . S
C1565 H1545 0.950 . S
C1565 C1561 1.385 . S
C1565 C1564 1.374 . S
C1566 C1563 1.499 . S
C1566 C1567 1.373 . S
C1566 C1568 1.389 . S
C1567 H1546 0.950 . S
C1567 C1566 1.373 . S
C1567 C1583 1.377 . S
C1568 C1566 1.389 . S
C1568 C1569 1.524 . S
C1568 C1582 1.377 . S
C1569 C1568 1.524 . S
C1569 C1570 1.397 . S
C1569 C1574 1.363 . S
C1570 H1547 0.950 . S
C1570 C1569 1.397 . S
C1570 C1571 1.334 . S
C1571 H1548 0.950 . S
C1571 C1570 1.334 . S
C1571 C1572 1.287 . S
C1572 C1571 1.287 . S
C1572 C1573 1.524 . S
C1572 H1591 0.913 . S
C1573 H1549 0.950 . S
C1573 C1572 1.524 . S
C1573 C1574 1.415 . S
C1574 H1550 0.950 . S
C1574 C1569 1.363 . S
C1574 C1573 1.415 . S
C1575 H1551 0.951 . S
C1575 C1576 1.366 . S
C1575 C1577 1.388 . S
C1576 C1575 1.366 . S
C1576 C1580 1.385 . S
C1577 H1552 0.951 . S
C1577 C1575 1.388 . S
C1577 C1578 1.366 . S
C1578 C1577 1.366 . S
C1578 C1579 1.414 . S
C1578 C1581 1.499 . S
C1579 H1553 0.950 . S
C1579 C1578 1.414 . S
C1579 C1580 1.374 . S
C1580 H1554 0.950 . S
C1580 C1576 1.385 . S
C1580 C1579 1.374 . S
C1581 C1578 1.499 . S
C1581 C1582 1.373 . S
C1581 C1583 1.389 . S
C1582 H1555 0.950 . S
C1582 C1568 1.377 . S
C1582 C1581 1.373 . S
C1583 C1567 1.377 . S
C1583 C1581 1.389 . S
C1583 C1584 1.524 . S
C1584 C1583 1.524 . S
C1584 C1585 1.397 . S
C1584 C1589 1.363 . S
C1585 H1556 0.950 . S
C1585 C1584 1.397 . S
C1585 C1586 1.334 . S
C1586 H1557 0.950 . S
C1586 C1585 1.334 . S
C1586 C1587 1.287 . S
C1587 C1586 1.287 . S
C1587 C1588 1.524 . S
C1587 H1590 0.999 . S
C1588 H1558 0.950 . S
C1588 C1587 1.524 . S
C1588 C1589 1.415 . S
C1589 H1559 0.950 . S
C1589 C1584 1.363 . S
C1589 C1588 1.415 . S
H1590 C1587 0.999 . S
H1591 C1572 0.913 . S
H1592 C1610 0.951 . S
H1593 C1612 0.951 . S
H1594 C1614 0.950 . S
H1595 C1615 0.950 . S
H1596 C1617 0.950 . S
H1597 C1620 0.950 . S
H1598 C1621 0.950 . S
H1599 C1623 0.950 . S
H1600 C1624 0.950 . S
H1601 C1625 0.951 . S
H1602 C1627 0.951 . S
H1603 C1629 0.950 . S
H1604 C1630 0.950 . S
H1605 C1632 0.950 . S
H1606 C1635 0.950 . S
H1607 C1636 0.950 . S
H1608 C1638 0.950 . S
H1609 C1639 0.950 . S
C1610 H1592 0.951 . S
C1610 C1611 1.366 . S
C1610 C1612 1.388 . S
C1611 C1610 1.366 . S
C1611 C1615 1.385 . S
C1612 H1593 0.951 . S
C1612 C1610 1.388 . S
C1612 C1613 1.366 . S
C1613 C1612 1.366 . S
C1613 C1614 1.414 . S
C1613 C1616 1.499 . S
C1614 H1594 0.950 . S
C1614 C1613 1.414 . S
C1614 C1615 1.374 . S
C1615 H1595 0.950 . S
C1615 C1611 1.385 . S
C1615 C1614 1.374 . S
C1616 C1613 1.499 . S
C1616 C1617 1.373 . S
C1616 C1618 1.389 . S
C1617 H1596 0.950 . S
C1617 C1616 1.373 . S
C1617 C1633 1.377 . S
C1618 C1616 1.389 . S
C1618 C1619 1.524 . S
C1618 C1632 1.377 . S
C1619 C1618 1.524 . S
C1619 C1620 1.397 . S
C1619 C1624 1.363 . S
C1620 H1597 0.950 . S
C1620 C1619 1.397 . S
C1620 C1621 1.334 . S
C1621 H1598 0.950 . S
C1621 C1620 1.334 . S
C1621 C1622 1.287 . S
C1622 C1621 1.287 . S
C1622 C1623 1.524 . S
C1622 H1641 0.913 . S
C1623 H1599 0.950 . S
C1623 C1622 1.524 . S
C1623 C1624 1.415 . S
C1624 H1600 0.950 . S
C1624 C1619 1.363 . S
C1624 C1623 1.415 . S
C1625 H1601 0.951 . S
C1625 C1626 1.366 . S
C1625 C1627 1.388 . S
C1626 C1625 1.366 . S
C1626 C1630 1.385 . S
C1627 H1602 0.951 . S
C1627 C1625 1.388 . S
C1627 C1628 1.366 . S
C1628 C1627 1.366 . S
C1628 C1629 1.414 . S
C1628 C1631 1.499 . S
C1629 H1603 0.950 . S
C1629 C1628 1.414 . S
C1629 C1630 1.374 . S
C1630 H1604 0.950 . S
C1630 C1626 1.385 . S
C1630 C1629 1.374 . S
C1631 C1628 1.499 . S
C1631 C1632 1.373 . S
C1631 C1633 1.389 . S
C1632 H1605 0.950 . S
C1632 C1618 1.377 . S
C1632 C1631 1.373 . S
C1633 C1617 1.377 . S
C1633 C1631 1.389 . S
C1633 C1634 1.524 . S
C1634 C1633 1.524 . S
C1634 C1635 1.397 . S
C1634 C1639 1.363 . S
C1635 H1606 0.950 . S
C1635 C1634 1.397 . S
C1635 C1636 1.334 . S
C1636 H1607 0.950 . S
C1636 C1635 1.334 . S
C1636 C1637 1.287 . S
C1637 C1636 1.287 . S
C1637 C1638 1.524 . S
C1637 H1640 0.999 . S
C1638 H1608 0.950 . S
C1638 C1637 1.524 . S
C1638 C1639 1.415 . S
C1639 H1609 0.950 . S
C1639 C1634 1.363 . S
C1639 C1638 1.415 . S
H1640 C1637 0.999 . S
H1641 C1622 0.913 . S
H1642 C1660 0.951 . S
H1643 C1662 0.951 . S
H1644 C1664 0.950 . S
H1645 C1665 0.950 . S
H1646 C1667 0.950 . S
H1647 C1670 0.950 . S
H1648 C1671 0.950 . S
H1649 C1673 0.950 . S
H1650 C1674 0.950 . S
H1651 C1675 0.951 . S
H1652 C1677 0.951 . S
H1653 C1679 0.950 . S
H1654 C1680 0.950 . S
H1655 C1682 0.950 . S
H1656 C1685 0.950 . S
H1657 C1686 0.950 . S
H1658 C1688 0.950 . S
H1659 C1689 0.950 . S
C1660 H1642 0.951 . S
C1660 C1661 1.366 . S
C1660 C1662 1.388 . S
C1661 C1660 1.366 . S
C1661 C1665 1.385 . S
C1662 H1643 0.951 . S
C1662 C1660 1.388 . S
C1662 C1663 1.366 . S
C1663 C1662 1.366 . S
C1663 C1664 1.414 . S
C1663 C1666 1.499 . S
C1664 H1644 0.950 . S
C1664 C1663 1.414 . S
C1664 C1665 1.374 . S
C1665 H1645 0.950 . S
C1665 C1661 1.385 . S
C1665 C1664 1.374 . S
C1666 C1663 1.499 . S
C1666 C1667 1.373 . S
C1666 C1668 1.389 . S
C1667 H1646 0.950 . S
C1667 C1666 1.373 . S
C1667 C1683 1.377 . S
C1668 C1666 1.389 . S
C1668 C1669 1.524 . S
C1668 C1682 1.377 . S
C1669 C1668 1.524 . S
C1669 C1670 1.397 . S
C1669 C1674 1.363 . S
C1670 H1647 0.950 . S
C1670 C1669 1.397 . S
C1670 C1671 1.334 . S
C1671 H1648 0.950 . S
C1671 C1670 1.334 . S
C1671 C1672 1.287 . S
C1672 C1671 1.287 . S
C1672 C1673 1.524 . S
C1672 H1691 0.913 . S
C1673 H1649 0.950 . S
C1673 C1672 1.524 . S
C1673 C1674 1.415 . S
C1674 H1650 0.950 . S
C1674 C1669 1.363 . S
C1674 C1673 1.415 . S
C1675 H1651 0.951 . S
C1675 C1676 1.366 . S
C1675 C1677 1.388 . S
C1676 C1675 1.366 . S
C1676 C1680 1.385 . S
C1677 H1652 0.951 . S
C1677 C1675 1.388 . S
C1677 C1678 1.366 . S
C1678 C1677 1.366 . S
C1678 C1679 1.414 . S
C1678 C1681 1.499 . S
C1679 H1653 0.950 . S
C1679 C1678 1.414 . S
C1679 C1680 1.374 . S
C1680 H1654 0.950 . S
C1680 C1676 1.385 . S
C1680 C1679 1.374 . S
C1681 C1678 1.499 . S
C1681 C1682 1.373 . S
C1681 C1683 1.389 . S
C1682 H1655 0.950 . S
C1682 C1668 1.377 . S
C1682 C1681 1.373 . S
C1683 C1667 1.377 . S
C1683 C1681 1.389 . S
C1683 C1684 1.524 . S
C1684 C1683 1.524 . S
C1684 C1685 1.397 . S
C1684 C1689 1.363 . S
C1685 H1656 0.950 . S
C1685 C1684 1.397 . S
C1685 C1686 1.334 . S
C1686 H1657 0.950 . S
C1686 C1685 1.334 . S
C1686 C1687 1.287 . S
C1687 C1686 1.287 . S
C1687 C1688 1.524 . S
C1687 H1690 0.999 . S
C1688 H1658 0.950 . S
C1688 C1687 1.524 . S
C1688 C1689 1.415 . S
C1689 H1659 0.950 . S
C1689 C1684 1.363 . S
C1689 C1688 1.415 . S
H1690 C1687 0.999 . S
H1691 C1672 0.913 . S
H1692 C1710 0.951 . S
H1693 C1712 0.951 . S
H1694 C1714 0.950 . S
H1695 C1715 0.950 . S
H1696 C1717 0.950 . S
H1697 C1720 0.950 . S
H1698 C1721 0.950 . S
H1699 C1723 0.950 . S
H1700 C1724 0.950 . S
H1701 C1725 0.951 . S
H1702 C1727 0.951 . S
H1703 C1729 0.950 . S
H1704 C1730 0.950 . S
H1705 C1732 0.950 . S
H1706 C1735 0.950 . S
H1707 C1736 0.950 . S
H1708 C1738 0.950 . S
H1709 C1739 0.950 . S
C1710 H1692 0.951 . S
C1710 C1711 1.366 . S
C1710 C1712 1.388 . S
C1711 C1710 1.366 . S
C1711 C1715 1.385 . S
C1712 H1693 0.951 . S
C1712 C1710 1.388 . S
C1712 C1713 1.366 . S
C1713 C1712 1.366 . S
C1713 C1714 1.414 . S
C1713 C1716 1.499 . S
C1714 H1694 0.950 . S
C1714 C1713 1.414 . S
C1714 C1715 1.374 . S
C1715 H1695 0.950 . S
C1715 C1711 1.385 . S
C1715 C1714 1.374 . S
C1716 C1713 1.499 . S
C1716 C1717 1.373 . S
C1716 C1718 1.389 . S
C1717 H1696 0.950 . S
C1717 C1716 1.373 . S
C1717 C1733 1.377 . S
C1718 C1716 1.389 . S
C1718 C1719 1.524 . S
C1718 C1732 1.377 . S
C1719 C1718 1.524 . S
C1719 C1720 1.397 . S
C1719 C1724 1.363 . S
C1720 H1697 0.950 . S
C1720 C1719 1.397 . S
C1720 C1721 1.334 . S
C1721 H1698 0.950 . S
C1721 C1720 1.334 . S
C1721 C1722 1.287 . S
C1722 C1721 1.287 . S
C1722 C1723 1.524 . S
C1722 H1741 0.913 . S
C1723 H1699 0.950 . S
C1723 C1722 1.524 . S
C1723 C1724 1.415 . S
C1724 H1700 0.950 . S
C1724 C1719 1.363 . S
C1724 C1723 1.415 . S
C1725 H1701 0.951 . S
C1725 C1726 1.366 . S
C1725 C1727 1.388 . S
C1726 C1725 1.366 . S
C1726 C1730 1.385 . S
C1727 H1702 0.951 . S
C1727 C1725 1.388 . S
C1727 C1728 1.366 . S
C1728 C1727 1.366 . S
C1728 C1729 1.414 . S
C1728 C1731 1.499 . S
C1729 H1703 0.950 . S
C1729 C1728 1.414 . S
C1729 C1730 1.374 . S
C1730 H1704 0.950 . S
C1730 C1726 1.385 . S
C1730 C1729 1.374 . S
C1731 C1728 1.499 . S
C1731 C1732 1.373 . S
C1731 C1733 1.389 . S
C1732 H1705 0.950 . S
C1732 C1718 1.377 . S
C1732 C1731 1.373 . S
C1733 C1717 1.377 . S
C1733 C1731 1.389 . S
C1733 C1734 1.524 . S
C1734 C1733 1.524 . S
C1734 C1735 1.397 . S
C1734 C1739 1.363 . S
C1735 H1706 0.950 . S
C1735 C1734 1.397 . S
C1735 C1736 1.334 . S
C1736 H1707 0.950 . S
C1736 C1735 1.334 . S
C1736 C1737 1.287 . S
C1737 C1736 1.287 . S
C1737 C1738 1.524 . S
C1737 H1740 0.999 . S
C1738 H1708 0.950 . S
C1738 C1737 1.524 . S
C1738 C1739 1.415 . S
C1739 H1709 0.950 . S
C1739 C1734 1.363 . S
C1739 C1738 1.415 . S
H1740 C1737 0.999 . S
H1741 C1722 0.913 . S
H1742 C1760 0.951 . S
H1743 C1762 0.951 . S
H1744 C1764 0.950 . S
H1745 C1765 0.950 . S
H1746 C1767 0.950 . S
H1747 C1770 0.950 . S
H1748 C1771 0.950 . S
H1749 C1773 0.950 . S
H1750 C1774 0.950 . S
H1751 C1775 0.951 . S
H1752 C1777 0.951 . S
H1753 C1779 0.950 . S
H1754 C1780 0.950 . S
H1755 C1782 0.950 . S
H1756 C1785 0.950 . S
H1757 C1786 0.950 . S
H1758 C1788 0.950 . S
H1759 C1789 0.950 . S
C1760 H1742 0.951 . S
C1760 C1761 1.366 . S
C1760 C1762 1.388 . S
C1761 C1760 1.366 . S
C1761 C1765 1.385 . S
C1762 H1743 0.951 . S
C1762 C1760 1.388 . S
C1762 C1763 1.366 . S
C1763 C1762 1.366 . S
C1763 C1764 1.414 . S
C1763 C1766 1.499 . S
C1764 H1744 0.950 . S
C1764 C1763 1.414 . S
C1764 C1765 1.374 . S
C1765 H1745 0.950 . S
C1765 C1761 1.385 . S
C1765 C1764 1.374 . S
C1766 C1763 1.499 . S
C1766 C1767 1.373 . S
C1766 C1768 1.389 . S
C1767 H1746 0.950 . S
C1767 C1766 1.373 . S
C1767 C1783 1.377 . S
C1768 C1766 1.389 . S
C1768 C1769 1.524 . S
C1768 C1782 1.377 . S
C1769 C1768 1.524 . S
C1769 C1770 1.397 . S
C1769 C1774 1.363 . S
C1770 H1747 0.950 . S
C1770 C1769 1.397 . S
C1770 C1771 1.334 . S
C1771 H1748 0.950 . S
C1771 C1770 1.334 . S
C1771 C1772 1.287 . S
C1772 C1771 1.287 . S
C1772 C1773 1.524 . S
C1772 H1791 0.913 . S
C1773 H1749 0.950 . S
C1773 C1772 1.524 . S
C1773 C1774 1.415 . S
C1774 H1750 0.950 . S
C1774 C1769 1.363 . S
C1774 C1773 1.415 . S
C1775 H1751 0.951 . S
C1775 C1776 1.366 . S
C1775 C1777 1.388 . S
C1776 C1775 1.366 . S
C1776 C1780 1.385 . S
C1777 H1752 0.951 . S
C1777 C1775 1.388 . S
C1777 C1778 1.366 . S
C1778 C1777 1.366 . S
C1778 C1779 1.414 . S
C1778 C1781 1.499 . S
C1779 H1753 0.950 . S
C1779 C1778 1.414 . S
C1779 C1780 1.374 . S
C1780 H1754 0.950 . S
C1780 C1776 1.385 . S
C1780 C1779 1.374 . S
C1781 C1778 1.499 . S
C1781 C1782 1.373 . S
C1781 C1783 1.389 . S
C1782 H1755 0.950 . S
C1782 C1768 1.377 . S
C1782 C1781 1.373 . S
C1783 C1767 1.377 . S
C1783 C1781 1.389 . S
C1783 C1784 1.524 . S
C1784 C1783 1.524 . S
C1784 C1785 1.397 . S
C1784 C1789 1.363 . S
C1785 H1756 0.950 . S
C1785 C1784 1.397 . S
C1785 C1786 1.334 . S
C1786 H1757 0.950 . S
C1786 C1785 1.334 . S
C1786 C1787 1.287 . S
C1787 C1786 1.287 . S
C1787 C1788 1.524 . S
C1787 H1790 0.999 . S
C1788 H1758 0.950 . S
C1788 C1787 1.524 . S
C1788 C1789 1.415 . S
C1789 H1759 0.950 . S
C1789 C1784 1.363 . S
C1789 C1788 1.415 . S
H1790 C1787 0.999 . S
H1791 C1772 0.913 . S
H1792 C1810 0.951 . S
H1793 C1812 0.951 . S
H1794 C1814 0.950 . S
H1795 C1815 0.950 . S
H1796 C1817 0.950 . S
H1797 C1820 0.950 . S
H1798 C1821 0.950 . S
H1799 C1823 0.950 . S
H1800 C1824 0.950 . S
H1801 C1825 0.951 . S
H1802 C1827 0.951 . S
H1803 C1829 0.950 . S
H1804 C1830 0.950 . S
H1805 C1832 0.950 . S
H1806 C1835 0.950 . S
H1807 C1836 0.950 . S
H1808 C1838 0.950 . S
H1809 C1839 0.950 . S
C1810 H1792 0.951 . S
C1810 C1811 1.366 . S
C1810 C1812 1.388 . S
C1811 C1810 1.366 . S
C1811 C1815 1.385 . S
C1812 H1793 0.951 . S
C1812 C1810 1.388 . S
C1812 C1813 1.366 . S
C1813 C1812 1.366 . S
C1813 C1814 1.414 . S
C1813 C1816 1.499 . S
C1814 H1794 0.950 . S
C1814 C1813 1.414 . S
C1814 C1815 1.374 . S
C1815 H1795 0.950 . S
C1815 C1811 1.385 . S
C1815 C1814 1.374 . S
C1816 C1813 1.499 . S
C1816 C1817 1.373 . S
C1816 C1818 1.389 . S
C1817 H1796 0.950 . S
C1817 C1816 1.373 . S
C1817 C1833 1.377 . S
C1818 C1816 1.389 . S
C1818 C1819 1.524 . S
C1818 C1832 1.377 . S
C1819 C1818 1.524 . S
C1819 C1820 1.397 . S
C1819 C1824 1.363 . S
C1820 H1797 0.950 . S
C1820 C1819 1.397 . S
C1820 C1821 1.334 . S
C1821 H1798 0.950 . S
C1821 C1820 1.334 . S
C1821 C1822 1.287 . S
C1822 C1821 1.287 . S
C1822 C1823 1.524 . S
C1822 H1841 0.913 . S
C1823 H1799 0.950 . S
C1823 C1822 1.524 . S
C1823 C1824 1.415 . S
C1824 H1800 0.950 . S
C1824 C1819 1.363 . S
C1824 C1823 1.415 . S
C1825 H1801 0.951 . S
C1825 C1826 1.366 . S
C1825 C1827 1.388 . S
C1826 C1825 1.366 . S
C1826 C1830 1.385 . S
C1827 H1802 0.951 . S
C1827 C1825 1.388 . S
C1827 C1828 1.366 . S
C1828 C1827 1.366 . S
C1828 C1829 1.414 . S
C1828 C1831 1.499 . S
C1829 H1803 0.950 . S
C1829 C1828 1.414 . S
C1829 C1830 1.374 . S
C1830 H1804 0.950 . S
C1830 C1826 1.385 . S
C1830 C1829 1.374 . S
C1831 C1828 1.499 . S
C1831 C1832 1.373 . S
C1831 C1833 1.389 . S
C1832 H1805 0.950 . S
C1832 C1818 1.377 . S
C1832 C1831 1.373 . S
C1833 C1817 1.377 . S
C1833 C1831 1.389 . S
C1833 C1834 1.524 . S
C1834 C1833 1.524 . S
C1834 C1835 1.397 . S
C1834 C1839 1.363 . S
C1835 H1806 0.950 . S
C1835 C1834 1.397 . S
C1835 C1836 1.334 . S
C1836 H1807 0.950 . S
C1836 C1835 1.334 . S
C1836 C1837 1.287 . S
C1837 C1836 1.287 . S
C1837 C1838 1.524 . S
C1837 H1840 0.999 . S
C1838 H1808 0.950 . S
C1838 C1837 1.524 . S
C1838 C1839 1.415 . S
C1839 H1809 0.950 . S
C1839 C1834 1.363 . S
C1839 C1838 1.415 . S
H1840 C1837 0.999 . S
H1841 C1822 0.913 . S
H1842 C1860 0.951 . S
H1843 C1862 0.951 . S
H1844 C1864 0.950 . S
H1845 C1865 0.950 . S
H1846 C1867 0.950 . S
H1847 C1870 0.950 . S
H1848 C1871 0.950 . S
H1849 C1873 0.950 . S
H1850 C1874 0.950 . S
H1851 C1875 0.951 . S
H1852 C1877 0.951 . S
H1853 C1879 0.950 . S
H1854 C1880 0.950 . S
H1855 C1882 0.950 . S
H1856 C1885 0.950 . S
H1857 C1886 0.950 . S
H1858 C1888 0.950 . S
H1859 C1889 0.950 . S
C1860 H1842 0.951 . S
C1860 C1861 1.366 . S
C1860 C1862 1.388 . S
C1861 C1860 1.366 . S
C1861 C1865 1.385 . S
C1862 H1843 0.951 . S
C1862 C1860 1.388 . S
C1862 C1863 1.366 . S
C1863 C1862 1.366 . S
C1863 C1864 1.414 . S
C1863 C1866 1.499 . S
C1864 H1844 0.950 . S
C1864 C1863 1.414 . S
C1864 C1865 1.374 . S
C1865 H1845 0.950 . S
C1865 C1861 1.385 . S
C1865 C1864 1.374 . S
C1866 C1863 1.499 . S
C1866 C1867 1.373 . S
C1866 C1868 1.389 . S
C1867 H1846 0.950 . S
C1867 C1866 1.373 . S
C1867 C1883 1.377 . S
C1868 C1866 1.389 . S
C1868 C1869 1.524 . S
C1868 C1882 1.377 . S
C1869 C1868 1.524 . S
C1869 C1870 1.397 . S
C1869 C1874 1.363 . S
C1870 H1847 0.950 . S
C1870 C1869 1.397 . S
C1870 C1871 1.334 . S
C1871 H1848 0.950 . S
C1871 C1870 1.334 . S
C1871 C1872 1.287 . S
C1872 C1871 1.287 . S
C1872 C1873 1.524 . S
C1872 H1891 0.913 . S
C1873 H1849 0.950 . S
C1873 C1872 1.524 . S
C1873 C1874 1.415 . S
C1874 H1850 0.950 . S
C1874 C1869 1.363 . S
C1874 C1873 1.415 . S
C1875 H1851 0.951 . S
C1875 C1876 1.366 . S
C1875 C1877 1.388 . S
C1876 C1875 1.366 . S
C1876 C1880 1.385 . S
C1877 H1852 0.951 . S
C1877 C1875 1.388 . S
C1877 C1878 1.366 . S
C1878 C1877 1.366 . S
C1878 C1879 1.414 . S
C1878 C1881 1.499 . S
C1879 H1853 0.950 . S
C1879 C1878 1.414 . S
C1879 C1880 1.374 . S
C1880 H1854 0.950 . S
C1880 C1876 1.385 . S
C1880 C1879 1.374 . S
C1881 C1878 1.499 . S
C1881 C1882 1.373 . S
C1881 C1883 1.389 . S
C1882 H1855 0.950 . S
C1882 C1868 1.377 . S
C1882 C1881 1.373 . S
C1883 C1867 1.377 . S
C1883 C1881 1.389 . S
C1883 C1884 1.524 . S
C1884 C1883 1.524 . S
C1884 C1885 1.397 . S
C1884 C1889 1.363 . S
C1885 H1856 0.950 . S
C1885 C1884 1.397 . S
C1885 C1886 1.334 . S
C1886 H1857 0.950 . S
C1886 C1885 1.334 . S
C1886 C1887 1.287 . S
C1887 C1886 1.287 . S
C1887 C1888 1.524 . S
C1887 H1890 0.999 . S
C1888 H1858 0.950 . S
C1888 C1887 1.524 . S
C1888 C1889 1.415 . S
C1889 H1859 0.950 . S
C1889 C1884 1.363 . S
C1889 C1888 1.415 . S
H1890 C1887 0.999 . S
H1891 C1872 0.913 . S
C726 C355 1.472 . S
C711 C15 1.488 . S
C776 C435 1.663 . S
C761 C55 1.717 . S
C826 C367 1.636 . S
C811 C101 1.723 . S
C876 C411 1.833 . S
C861 C141 2.001 . S
C926 C479 1.407 . S
C911 C2 1.402 . S
C976 C559 1.476 . S
C961 C61 1.494 . S
C1011 C95 1.828 . S
C1026 C621 1.769 . S
C1076 C677 1.512 . S
C1061 C135 1.626 . S
C1126 C491 1.504 . S
C1111 C42 1.583 . S
C1161 C82 1.613 . S
C1176 C535 1.509 . S
C1226 C597 1.867 . S
C1211 C122 2.051 . S
C1276 C665 1.482 . S
C1261 C21 1.493 . S
C1311 C162 1.996 . S
C1326 C429 1.827 . S
C1376 C349 1.631 . S
C1361 C221 1.729 . S
C1411 C255 1.719 . S
C1426 C417 1.663 . S
C1461 C282 1.460 . S
C1476 C373 1.469 . S
C1526 C615 1.875 . S
C1511 C181 2.063 . S
C1576 C659 1.519 . S
C1561 C202 1.633 . S
C1626 C473 1.506 . S
C1611 C242 1.627 . S
C1661 C301 1.492 . S
C1676 C541 1.472 . S
C1726 C603 1.764 . S
C1711 C215 1.827 . S
C1776 C683 1.483 . S
C1761 C261 1.517 . S
C1826 C497 1.400 . S
C1811 C295 1.429 . S
C1861 C175 1.628 . S
C1876 C553 1.498 . S
