# Generated by pormake.
# Topology pto, (3,4)-cn, num edge types: 1
# Building blocks:
#     Node 0, Type 0, BuildingBlock: PAMTOO_clean_linker_0, # of connection points: 3
#     Node 1, Type 0, BuildingBlock: PAMTOO_clean_linker_0, # of connection points: 3
#     Node 2, Type 0, BuildingBlock: PAMTOO_clean_linker_0, # of connection points: 3
#     Node 3, Type 0, BuildingBlock: PAMTOO_clean_linker_0, # of connection points: 3
#     Node 4, Type 0, BuildingBlock: PAMTOO_clean_linker_0, # of connection points: 3
#     Node 5, Type 0, BuildingBlock: PAMTOO_clean_linker_0, # of connection points: 3
#     Node 6, Type 0, BuildingBlock: PAMTOO_clean_linker_0, # of connection points: 3
#     Node 7, Type 0, BuildingBlock: PAMTOO_clean_linker_0, # of connection points: 3
#     Node 8, Type 1, BuildingBlock: NAWXER_clean_sbu_0, # of connection points: 4
#     Node 9, Type 1, BuildingBlock: NAWXER_clean_sbu_0, # of connection points: 4
#     Node 10, Type 1, BuildingBlock: NAWXER_clean_sbu_0, # of connection points: 4
#     Node 11, Type 1, BuildingBlock: NAWXER_clean_sbu_0, # of connection points: 4
#     Node 12, Type 1, BuildingBlock: NAWXER_clean_sbu_0, # of connection points: 4
#     Node 13, Type 1, BuildingBlock: NAWXER_clean_sbu_0, # of connection points: 4
#     Edge 14, Type (0, 1), BuildingBlock: CIFDUS_clean_linker_0, # of connection points: 2
#     Edge 15, Type (0, 1), BuildingBlock: CIFDUS_clean_linker_0, # of connection points: 2
#     Edge 16, Type (0, 1), BuildingBlock: CIFDUS_clean_linker_0, # of connection points: 2
#     Edge 17, Type (0, 1), BuildingBlock: CIFDUS_clean_linker_0, # of connection points: 2
#     Edge 18, Type (0, 1), BuildingBlock: CIFDUS_clean_linker_0, # of connection points: 2
#     Edge 19, Type (0, 1), BuildingBlock: CIFDUS_clean_linker_0, # of connection points: 2
#     Edge 20, Type (0, 1), BuildingBlock: CIFDUS_clean_linker_0, # of connection points: 2
#     Edge 21, Type (0, 1), BuildingBlock: CIFDUS_clean_linker_0, # of connection points: 2
#     Edge 22, Type (0, 1), BuildingBlock: CIFDUS_clean_linker_0, # of connection points: 2
#     Edge 23, Type (0, 1), BuildingBlock: CIFDUS_clean_linker_0, # of connection points: 2
#     Edge 24, Type (0, 1), BuildingBlock: CIFDUS_clean_linker_0, # of connection points: 2
#     Edge 25, Type (0, 1), BuildingBlock: CIFDUS_clean_linker_0, # of connection points: 2
#     Edge 26, Type (0, 1), BuildingBlock: CIFDUS_clean_linker_0, # of connection points: 2
#     Edge 27, Type (0, 1), BuildingBlock: CIFDUS_clean_linker_0, # of connection points: 2
#     Edge 28, Type (0, 1), BuildingBlock: CIFDUS_clean_linker_0, # of connection points: 2
#     Edge 29, Type (0, 1), BuildingBlock: CIFDUS_clean_linker_0, # of connection points: 2
#     Edge 30, Type (0, 1), BuildingBlock: CIFDUS_clean_linker_0, # of connection points: 2
#     Edge 31, Type (0, 1), BuildingBlock: CIFDUS_clean_linker_0, # of connection points: 2
#     Edge 32, Type (0, 1), BuildingBlock: CIFDUS_clean_linker_0, # of connection points: 2
#     Edge 33, Type (0, 1), BuildingBlock: CIFDUS_clean_linker_0, # of connection points: 2
#     Edge 34, Type (0, 1), BuildingBlock: CIFDUS_clean_linker_0, # of connection points: 2
#     Edge 35, Type (0, 1), BuildingBlock: CIFDUS_clean_linker_0, # of connection points: 2
#     Edge 36, Type (0, 1), BuildingBlock: CIFDUS_clean_linker_0, # of connection points: 2
#     Edge 37, Type (0, 1), BuildingBlock: CIFDUS_clean_linker_0, # of connection points: 2
# Relax obj value: 0.017
# Max RMSD: 0.151
# Mean RMSD: 0.064
data_MOF--net-pto--node1-NAWXER_clean_sbu_0--node2-PAMTOO_clean_linker_0--edge1-CIFDUS_clean_linker_0
_symmetry_space_group_name_H-M    P1
_symmetry_Int_Tables_number       1
_symmetry_cell_setting            triclinic
loop_
_symmetry_equiv_pos_as_xyz
'x, y, z'
_cell_length_a     37.55286
_cell_length_b     33.961791
_cell_length_c     33.031379
_cell_angle_alpha  81.756691
_cell_angle_beta   83.872258
_cell_angle_gamma 99.723548
loop_
_atom_site_label
_atom_site_type_symbol
_atom_site_fract_x
_atom_site_fract_y
_atom_site_fract_z
_atom_type_partial_charge
H0 H 0.16669 0.30111 0.3946 0.0
H1 H 0.26131 0.25985 0.34227 0.0
H2 H 0.23959 0.37453 0.29092 0.0
H3 H 0.26537 0.3281 0.22811 0.0
C4 C 0.28009 0.30864 0.2477 0.0
O5 O 0.28274 0.32243 0.28477 0.0
H6 H 0.26414 0.27714 0.25303 0.0
C7 C 0.19115 0.30609 0.3725 0.0
C8 C 0.20027 0.34181 0.34281 0.0
C9 C 0.21272 0.27584 0.37212 0.0
C10 C 0.24402 0.28236 0.34281 0.0
C11 C 0.25333 0.3176 0.31365 0.0
C12 C 0.23178 0.34728 0.31381 0.0
H13 H 0.2198 0.78405 0.81793 0.0
H14 H 0.27313 0.71719 0.906 0.0
H15 H 0.32463 0.83706 0.84715 0.0
H16 H 0.37084 0.77364 0.85149 0.0
C17 C 0.35972 0.75727 0.88315 0.0
O18 O 0.33105 0.77367 0.89901 0.0
H19 H 0.34975 0.72494 0.88106 0.0
C20 C 0.24252 0.78244 0.83532 0.0
C21 C 0.27191 0.81542 0.82897 0.0
C22 C 0.24246 0.74682 0.86302 0.0
C23 C 0.27222 0.74456 0.88508 0.0
C24 C 0.30188 0.77689 0.87884 0.0
C25 C 0.30159 0.81226 0.85119 0.0
H26 H 0.69668 0.79681 0.33963 0.0
H27 H 0.7673 0.72592 0.28513 0.0
H28 H 0.78986 0.76972 0.39673 0.0
H29 H 0.85327 0.77174 0.34735 0.0
C30 C 0.84522 0.74909 0.32719 0.0
O31 O 0.81079 0.72715 0.34245 0.0
H32 H 0.84506 0.76607 0.29577 0.0
C33 C 0.7205 0.78279 0.34046 0.0
C34 C 0.74198 0.78665 0.37258 0.0
C35 C 0.72963 0.76158 0.30853 0.0
C36 C 0.75963 0.74195 0.30981 0.0
C37 C 0.78088 0.74455 0.34211 0.0
C38 C 0.77204 0.76674 0.37324 0.0
H39 H 0.78323 0.31033 0.88388 0.0
H40 H 0.70946 0.22258 0.83628 0.0
H41 H 0.82023 0.25816 0.77904 0.0
H42 H 0.76001 0.25706 0.72395 0.0
C43 C 0.74149 0.22936 0.74146 0.0
O44 O 0.75644 0.21463 0.77563 0.0
H45 H 0.71503 0.23807 0.75139 0.0
C46 C 0.77834 0.28938 0.86237 0.0
C47 C 0.80667 0.28693 0.83182 0.0
C48 C 0.74318 0.26625 0.86444 0.0
C49 C 0.73657 0.23983 0.83597 0.0
C50 C 0.76418 0.23756 0.80496 0.0
C51 C 0.79918 0.26059 0.80317 0.0
H52 H 0.77352 0.84078 0.80627 0.0
H53 H 0.80847 0.73526 0.86634 0.0
H54 H 0.86335 0.79654 0.74798 0.0
H55 H 0.84884 0.71198 0.75374 0.0
C56 C 0.85064 0.70157 0.78686 0.0
O57 O 0.8596 0.73478 0.80604 0.0
H58 H 0.8236 0.68365 0.80153 0.0
C59 C 0.79204 0.81952 0.80718 0.0
C60 C 0.81925 0.82291 0.77343 0.0
C61 C 0.78769 0.78818 0.8412 0.0
C62 C 0.81119 0.75992 0.84081 0.0
C63 C 0.83834 0.76309 0.80721 0.0
C64 C 0.84275 0.79494 0.77408 0.0
H65 H 0.87246 0.30238 0.30751 0.0
H66 H 0.7742 0.25877 0.25826 0.0
H67 H 0.82508 0.38412 0.22716 0.0
H68 H 0.74817 0.37627 0.23863 0.0
C69 C 0.73982 0.34358 0.23697 0.0
O70 O 0.76919 0.32976 0.21881 0.0
H71 H 0.73098 0.32705 0.26907 0.0
C72 C 0.85186 0.30744 0.28773 0.0
C73 C 0.85252 0.34677 0.26721 0.0
C74 C 0.82394 0.27518 0.2848 0.0
C75 C 0.79642 0.28289 0.26057 0.0
C76 C 0.79696 0.32209 0.23979 0.0
C77 C 0.82538 0.35377 0.24248 0.0
H78 H 0.25144 0.32694 0.71526 0.0
H79 H 0.28953 0.40729 0.7976 0.0
H80 H 0.34711 0.31264 0.77325 0.0
H81 H 0.31806 0.32721 0.86304 0.0
C82 C 0.33356 0.35896 0.85714 0.0
O83 O 0.34387 0.372 0.81531 0.0
H84 H 0.31501 0.37816 0.86918 0.0
C85 C 0.27131 0.33705 0.73488 0.0
C86 C 0.30022 0.31624 0.74095 0.0
C87 C 0.26706 0.36979 0.75534 0.0
C88 C 0.29261 0.38236 0.7812 0.0
C89 C 0.32133 0.36174 0.78763 0.0
C90 C 0.32528 0.32896 0.76731 0.0
H91 H 0.23734 0.83122 0.39537 0.0
H92 H 0.30427 0.79733 0.29711 0.0
H93 H 0.34932 0.89196 0.35984 0.0
H94 H 0.37226 0.91026 0.26932 0.0
C95 C 0.36846 0.87872 0.26267 0.0
O96 O 0.3615 0.8521 0.29959 0.0
H97 H 0.34497 0.87393 0.24489 0.0
C98 C 0.26352 0.83489 0.37663 0.0
C99 C 0.29282 0.86456 0.38247 0.0
C100 C 0.26734 0.80985 0.34659 0.0
C101 C 0.30053 0.81625 0.3204 0.0
C102 C 0.32958 0.84646 0.32479 0.0
C103 C 0.32595 0.87 0.35605 0.0
C104 C 0.01058 0.53201 0.28019 0.0
C105 C 0.10906 0.63808 0.30134 0.0
O106 O 0.01267 0.53427 0.31836 0.0
Zn107 Zn 0.04535 0.56969 0.35497 0.0
O108 O 0.03305 0.55628 0.25233 0.0
Zn109 Zn 0.0595 0.58488 0.28987 0.0
O110 O 0.08438 0.53755 0.31937 0.0
O111 O 0.06629 0.52839 0.38634 0.0
O112 O 0.10015 0.62868 0.26746 0.0
O113 O 0.09084 0.61843 0.33539 0.0
O114 O 1.0093 0.59492 0.38301 0.0
O115 O 0.01804 0.61443 0.31554 0.0
C116 C 0.08458 0.51866 0.35589 0.0
C117 C 1.00118 0.61548 0.35115 0.0
C118 C 0.98568 0.44747 0.8456 0.0
C119 C 0.08363 0.56571 0.8382 0.0
O120 O 0.99726 0.46217 0.87616 0.0
Zn121 Zn 0.03499 0.50597 0.84489 0.0
O122 O 1.00077 0.46331 0.80893 0.0
Zn123 Zn 0.04294 0.51154 0.77823 0.0
O124 O 0.0788 0.48388 0.75245 0.0
O125 O 0.07464 0.47478 0.82037 0.0
O126 O 0.07711 0.55565 0.80343 0.0
O127 O 0.06541 0.54494 0.87142 0.0
O128 O 1.00354 0.54388 0.8131 0.0
O129 O 0.01567 0.54566 0.74592 0.0
C130 C 0.08933 0.46863 0.78558 0.0
C131 C 0.99832 0.55684 0.77622 0.0
C132 C 0.23582 0.9939 0.66024 0.0
C133 C 0.21205 0.09808 0.55371 0.0
O134 O 0.20544 1.00013 0.64964 0.0
Zn135 Zn 0.22365 0.04488 0.60556 0.0
O136 O 0.26544 0.01648 0.64101 0.0
Zn137 Zn 0.28034 0.06782 0.5914 0.0
O138 O 0.30382 0.11043 0.61831 0.0
O139 O 0.24459 0.09237 0.63804 0.0
O140 O 0.24612 0.10016 0.55613 0.0
O141 O 0.18877 0.06999 0.57651 0.0
O142 O 0.25149 0.01798 0.55924 0.0
O143 O 0.30918 0.04865 0.54897 0.0
C144 C 0.27516 0.11501 0.63995 0.0
C145 C 0.28396 0.02253 0.5403 0.0
C146 C 0.60359 0.74314 0.12929 0.0
C147 C 0.51772 0.74395 0.02748 0.0
O148 O 0.58466 0.71255 0.11863 0.0
Zn149 Zn 0.56171 0.74247 0.07732 0.0
O150 O 0.60166 0.77881 0.11176 0.0
Zn151 Zn 0.57389 0.80673 0.0653 0.0
O152 O 0.54627 0.83843 0.09639 0.0
O153 O 0.52736 0.77247 0.11448 0.0
O154 O 0.53355 0.77959 0.03105 0.0
O155 O 0.5265 0.71331 0.04814 0.0
O156 O 0.60687 0.76784 0.02974 0.0
O157 O 0.6136 0.83424 0.02312 0.0
C158 C 0.52422 0.80877 0.11871 0.0
C159 C 0.62396 0.80314 0.0122 0.0
C160 C 0.7869 0.97714 0.58043 0.0
C161 C 0.7841 0.0797 0.46007 0.0
O162 O 0.75545 0.9852 0.57522 0.0
Zn163 Zn 0.7299 0.02295 0.53552 0.0
O164 O 0.81488 0.99616 0.55569 0.0
Zn165 Zn 0.78851 0.02877 0.51988 0.0
O166 O 0.77195 0.06837 0.5595 0.0
O167 O 0.71191 0.05702 0.57302 0.0
O168 O 0.81237 0.0668 0.47027 0.0
O169 O 0.75323 0.06543 0.48211 0.0
O170 O 0.69745 0.98306 0.51281 0.0
O171 O 0.75596 0.9827 0.49525 0.0
C172 C 0.74288 0.07649 0.57774 0.0
C173 C 0.72234 0.96816 0.49453 0.0
C174 C 0.5727 0.34109 0.10444 0.0
C175 C 0.48661 0.32939 0.00337 0.0
O176 O 0.55725 0.30445 0.10425 0.0
Zn177 Zn 0.51696 0.27255 0.07332 0.0
O178 O 0.56316 0.36982 0.08152 0.0
Zn179 Zn 0.52826 0.33673 0.05514 0.0
O180 O 0.48315 0.31441 0.1027 0.0
O181 O 0.47738 0.24806 0.11687 0.0
O182 O 0.50493 0.36188 0.01113 0.0
O183 O 0.48903 0.29526 0.0242 0.0
O184 O 0.54517 0.23846 0.04663 0.0
O185 O 0.56288 0.30384 0.02281 0.0
C186 C 0.46635 0.28026 0.12337 0.0
C187 C 0.56682 0.2671 0.02237 0.0
H188 H 0.16858 0.37513 0.40542 0.0
H189 H 0.17847 0.37825 0.27355 0.0
H190 H 0.14432 0.43313 0.26626 0.0
H191 H 0.1131 0.48143 0.29643 0.0
H192 H 0.10101 0.47878 0.42819 0.0
H193 H 0.13436 0.4226 0.4364 0.0
C194 C 0.16287 0.38758 0.37521 0.0
C195 C 0.17656 0.37289 0.34002 0.0
C196 C 0.14304 0.41943 0.37112 0.0
C197 C 0.16895 0.38945 0.30106 0.0
C198 C 0.1493 0.4208 0.29683 0.0
C199 C 0.11781 0.46875 0.32702 0.0
C200 C 0.10482 0.48466 0.36158 0.0
C201 C 0.13663 0.43636 0.33151 0.0
C202 C 0.11081 0.4673 0.40099 0.0
C203 C 0.12986 0.43511 0.40571 0.0
H204 H 0.2104 0.71812 0.80098 0.0
H205 H 0.20714 0.6953 0.93325 0.0
H206 H 0.15725 0.63726 0.93808 0.0
H207 H 0.11415 0.59297 0.90396 0.0
H208 H 0.11867 0.61895 0.7713 0.0
H209 H 0.16773 0.67608 0.76773 0.0
C210 C 0.19848 0.70091 0.83101 0.0
C211 C 0.21227 0.71136 0.86669 0.0
C212 C 0.1698 0.66805 0.83354 0.0
C213 C 0.19714 0.68782 0.90521 0.0
C214 C 0.16847 0.65476 0.90801 0.0
C215 C 0.12578 0.61129 0.87438 0.0
C216 C 0.11262 0.60137 0.83802 0.0
C217 C 0.15449 0.64457 0.8723 0.0
C218 C 0.12817 0.62548 0.79988 0.0
C219 C 0.15635 0.65833 0.79767 0.0
H220 H 0.87743 0.71583 0.39079 0.0
H221 H 0.87413 0.72039 0.26023 0.0
H222 H 0.922 0.67981 0.25622 0.0
H223 H 0.9661 0.64507 0.28926 0.0
H224 H 0.96899 0.63862 0.42025 0.0
H225 H 0.92015 0.67799 0.42474 0.0
C226 C 0.88718 0.70766 0.3616 0.0
C227 C 0.87275 0.72148 0.32573 0.0
C228 C 0.91479 0.68432 0.35957 0.0
C229 C 0.88515 0.71041 0.28811 0.0
C230 C 0.91254 0.68731 0.28582 0.0
C231 C 0.95619 0.65236 0.31883 0.0
C232 C 0.97151 0.63924 0.35431 0.0
C233 C 0.92787 0.67455 0.32123 0.0
C234 C 0.95783 0.64845 0.39243 0.0
C235 C 0.92987 0.67095 0.39501 0.0
H236 H 0.8442 0.31056 0.89399 0.0
H237 H 0.85077 0.32571 0.76108 0.0
H238 H 0.90768 0.37394 0.75427 0.0
H239 H 0.95341 0.41506 0.78536 0.0
H240 H 0.9459 0.40416 0.91795 0.0
H241 H 0.89117 0.35149 0.92544 0.0
C242 C 0.85795 0.3245 0.86349 0.0
C243 C 0.84293 0.31423 0.82812 0.0
C244 C 0.89036 0.35328 0.85969 0.0
C245 C 0.86172 0.33221 0.78892 0.0
C246 C 0.8942 0.36023 0.78494 0.0
C247 C 0.94006 0.40109 0.81603 0.0
C248 C 0.95381 0.41374 0.85107 0.0
C249 C 0.90846 0.37138 0.82005 0.0
C250 C 0.93595 0.39513 0.89044 0.0
C251 C 0.90462 0.36503 0.89472 0.0
H252 H 0.19423 0.26415 0.45591 0.0
H253 H 0.21071 0.20007 0.35383 0.0
H254 H 0.20775 0.13744 0.40156 0.0
H255 H 0.20867 0.10298 0.47214 0.0
H256 H 0.1926 0.16628 0.57454 0.0
H257 H 0.18666 0.22681 0.52729 0.0
C258 C 0.19621 0.23623 0.44423 0.0
C259 C 0.20336 0.23693 0.40144 0.0
C260 C 0.19484 0.20021 0.47198 0.0
C261 C 0.20593 0.20048 0.38669 0.0
C262 C 0.20423 0.16462 0.41394 0.0
C263 C 0.20281 0.12973 0.48398 0.0
C264 C 0.20067 0.13041 0.52646 0.0
C265 C 0.19996 0.16443 0.4566 0.0
C266 C 0.19378 0.16522 0.5418 0.0
C267 C 0.19068 0.19983 0.51479 0.0
H268 H 0.38785 0.6967 0.92544 0.0
H269 H 0.39909 0.82658 0.90006 0.0
H270 H 0.44933 0.83402 0.94168 0.0
H271 H 0.48986 0.80362 0.98497 0.0
H272 H 0.4789 0.67354 0.01063 0.0
H273 H 0.42886 0.66612 0.96894 0.0
C274 C 0.40128 0.72658 0.92921 0.0
C275 C 0.38978 0.76112 0.90998 0.0
C276 C 0.43023 0.73055 0.95297 0.0
C277 C 0.40746 0.79967 0.91484 0.0
C278 C 0.43617 0.80388 0.93848 0.0
C279 C 0.47669 0.77358 0.98138 0.0
C280 C 0.48827 0.73918 1.00092 0.0
C281 C 0.44782 0.76954 0.95761 0.0
C282 C 0.47066 0.70055 0.99594 0.0
C283 C 0.44197 0.69628 0.97215 0.0
H284 H 0.71246 0.85567 0.36149 0.0
H285 H 0.75457 0.7791 0.45389 0.0
H286 H 0.74932 0.82729 0.50108 0.0
H287 H 0.73758 0.89399 0.51402 0.0
H288 H 0.69086 0.96735 0.42431 0.0
H289 H 0.69142 0.91634 0.37872 0.0
C290 C 0.71947 0.84845 0.3923 0.0
C291 C 0.73455 0.81364 0.40342 0.0
C292 C 0.71524 0.87565 0.41997 0.0
C293 C 0.74404 0.80604 0.44356 0.0
C294 C 0.74067 0.83343 0.47091 0.0
C295 C 0.72654 0.89806 0.48497 0.0
C296 C 0.71392 0.93393 0.47241 0.0
C297 C 0.72704 0.86871 0.45911 0.0
C298 C 0.70009 0.93952 0.43468 0.0
C299 C 0.70084 0.91061 0.40852 0.0
H300 H 0.68951 0.20859 0.91195 0.0
H301 H 0.72794 0.33786 0.88222 0.0
H302 H 0.67693 0.34905 0.9284 0.0
H303 H 0.62126 0.32268 0.97599 0.0
H304 H 0.58153 0.1937 0.00657 0.0
H305 H 0.63307 0.18186 0.96079 0.0
C306 C 0.68661 0.23917 0.91559 0.0
C307 C 0.71266 0.27232 0.8939 0.0
C308 C 0.65695 0.24546 0.94205 0.0
C309 C 0.70871 0.31178 0.89911 0.0
C310 C 0.67937 0.31824 0.92525 0.0
C311 C 0.62367 0.29189 0.97266 0.0
C312 C 0.59744 0.25912 0.99455 0.0
C313 C 0.65332 0.28536 0.9467 0.0
C314 C 0.6013 0.21948 0.99001 0.0
C315 C 0.63077 0.2127 0.96388 0.0
H316 H 0.21416 0.85141 0.81151 0.0
H317 H 0.32981 0.86196 0.77555 0.0
H318 H 0.32915 0.91899 0.72172 0.0
H319 H 0.29524 0.96388 0.6824 0.0
H320 H 0.17893 0.94995 0.71573 0.0
H321 H 0.18033 0.89562 0.77218 0.0
C322 C 0.23925 0.86582 0.79172 0.0
C323 C 0.27196 0.85201 0.79776 0.0
C324 C 0.23852 0.89786 0.75993 0.0
C325 C 0.30427 0.87205 0.77226 0.0
C326 C 0.30387 0.90451 0.74108 0.0
C327 C 0.2702 0.94905 0.70208 0.0
C328 C 0.23702 0.96103 0.69468 0.0
C329 C 0.27109 0.91739 0.73432 0.0
C330 C 0.20484 0.9413 0.72047 0.0
C331 C 0.20561 0.91024 0.75289 0.0
H332 H 0.69579 0.69896 0.27408 0.0
H333 H 0.71836 0.82922 0.26203 0.0
H334 H 0.68241 0.83479 0.20494 0.0
H335 H 0.64301 0.80316 0.16034 0.0
H336 H 0.61781 0.67293 0.17215 0.0
H337 H 0.6563 0.66678 0.22736 0.0
C338 C 0.69298 0.72845 0.25859 0.0
C339 C 0.70947 0.76364 0.27229 0.0
C340 C 0.67168 0.73144 0.226 0.0
C341 C 0.70558 0.80174 0.25223 0.0
C342 C 0.68508 0.80495 0.21959 0.0
C343 C 0.64592 0.77332 0.17478 0.0
C344 C 0.62742 0.73857 0.16209 0.0
C345 C 0.66769 0.77005 0.20656 0.0
C346 C 0.63165 0.70022 0.18134 0.0
C347 C 0.65368 0.69669 0.21291 0.0
H348 H 0.78883 0.21679 0.67872 0.0
H349 H 0.68099 0.17066 0.74404 0.0
H350 H 0.67078 0.12 0.69839 0.0
H351 H 0.69299 0.08887 0.63946 0.0
H352 H 0.80173 0.13544 0.57564 0.0
H353 H 0.81093 0.18598 0.62059 0.0
C354 C 0.76311 0.19565 0.68277 0.0
C355 C 0.73549 0.19768 0.71408 0.0
C356 C 0.75752 0.16681 0.65649 0.0
C357 C 0.70244 0.16981 0.71967 0.0
C358 C 0.69662 0.14095 0.69359 0.0
C359 C 0.71852 0.11031 0.63525 0.0
C360 C 0.74656 0.10831 0.60419 0.0
C361 C 0.72393 0.13926 0.6617 0.0
C362 C 0.77969 0.1361 0.59939 0.0
C363 C 0.78506 0.16509 0.62511 0.0
H364 H 0.31546 0.24552 0.23936 0.0
H365 H 0.32854 0.37518 0.20758 0.0
H366 H 0.38848 0.37817 0.16857 0.0
H367 H 0.43525 0.34355 0.14061 0.0
H368 H 0.42191 0.21347 0.17081 0.0
H369 H 0.36399 0.21096 0.21359 0.0
C370 C 0.33158 0.27436 0.22392 0.0
C371 C 0.31759 0.31008 0.22563 0.0
C372 C 0.36579 0.27572 0.20131 0.0
C373 C 0.33877 0.34736 0.20613 0.0
C374 C 0.37293 0.34903 0.18391 0.0
C375 C 0.41989 0.3146 0.15676 0.0
C376 C 0.4329 0.27872 0.15228 0.0
C377 C 0.38646 0.31334 0.18082 0.0
C378 C 0.41256 0.24156 0.17361 0.0
C379 C 0.37937 0.24008 0.198 0.0
H380 H 0.89211 0.67649 0.7254 0.0
H381 H 0.87103 0.66627 0.85774 0.0
H382 H 0.91492 0.62097 0.8659 0.0
H383 H 0.95833 0.58399 0.83568 0.0
H384 H 0.97961 0.59275 0.70332 0.0
H385 H 0.9364 0.639 0.69481 0.0
C386 C 0.89735 0.66444 0.75596 0.0
C387 C 0.8787 0.67488 0.79101 0.0
C388 C 0.92242 0.63816 0.76035 0.0
C389 C 0.88537 0.65884 0.83044 0.0
C390 C 0.91033 0.63292 0.83506 0.0
C391 C 0.95366 0.59593 0.80485 0.0
C392 C 0.97225 0.58481 0.77015 0.0
C393 C 0.92889 0.62232 0.80026 0.0
C394 C 0.96568 0.60072 0.73055 0.0
C395 C 0.941 0.62719 0.72569 0.0
H396 H 0.89779 0.40603 0.21107 0.0
H397 H 0.86749 0.36365 0.34175 0.0
H398 H 0.91323 0.41753 0.3569 0.0
H399 H 0.96231 0.47522 0.33354 0.0
H400 H 0.99474 0.51849 0.20323 0.0
H401 H 0.94762 0.46573 0.18735 0.0
C402 C 0.9012 0.40891 0.24277 0.0
C403 C 0.87961 0.38079 0.27527 0.0
C404 C 0.9279 0.4399 0.25131 0.0
C405 C 0.88421 0.38462 0.31626 0.0
C406 C 0.91024 0.41546 0.32495 0.0
C407 C 0.95917 0.47334 0.30157 0.0
C408 C 0.98209 0.50078 0.26964 0.0
C409 C 0.93239 0.443 0.29277 0.0
C410 C 0.9775 0.49769 0.22844 0.0
C411 C 0.95055 0.46756 0.21935 0.0
H412 H 0.22063 0.38049 0.81894 0.0
H413 H 0.23952 0.39969 0.68606 0.0
H414 H 0.18515 0.43076 0.68297 0.0
H415 H 0.13304 0.45432 0.71881 0.0
H416 H 0.11482 0.43232 0.85221 0.0
H417 H 0.16784 0.40048 0.8542 0.0
C418 C 0.21294 0.39174 0.7893 0.0
C419 C 0.23423 0.38845 0.75282 0.0
C420 C 0.18163 0.40896 0.78785 0.0
C421 C 0.22355 0.40216 0.71458 0.0
C422 C 0.19251 0.4199 0.71284 0.0
C423 C 0.14052 0.44224 0.74824 0.0
C424 C 0.11994 0.44609 0.78524 0.0
C425 C 0.17138 0.42368 0.74936 0.0
C426 C 0.13008 0.43012 0.82315 0.0
C427 C 0.16054 0.41188 0.82444 0.0
H428 H 0.24243 0.78507 0.27747 0.0
H429 H 0.2244 0.75807 0.41063 0.0
H430 H 0.17412 0.70326 0.40817 0.0
H431 H 0.13516 0.66293 0.36876 0.0
H432 H 0.15286 0.68822 0.2356 0.0
H433 H 0.20355 0.74335 0.23758 0.0
C434 C 0.22766 0.76699 0.30592 0.0
C435 C 0.23706 0.77604 0.34418 0.0
C436 C 0.19871 0.73513 0.30434 0.0
C437 C 0.21739 0.75241 0.38075 0.0
C438 C 0.18873 0.72082 0.37941 0.0
C439 C 0.15004 0.68043 0.34008 0.0
C440 C 0.14008 0.67139 0.30209 0.0
C441 C 0.17908 0.712 0.34144 0.0
C442 C 0.15986 0.69446 0.26531 0.0
C443 C 0.18887 0.72603 0.26641 0.0
H444 H 0.76282 0.8387 0.73427 0.0
H445 H 0.87918 0.87448 0.72822 0.0
H446 H 0.88039 0.92479 0.66649 0.0
H447 H 0.8473 0.95994 0.61522 0.0
H448 H 0.73054 0.92201 0.6238 0.0
H449 H 0.73067 0.87154 0.68342 0.0
C450 C 0.78842 0.85781 0.71971 0.0
C451 C 0.82073 0.8534 0.73605 0.0
C452 C 0.78885 0.88633 0.68454 0.0
C453 C 0.85389 0.8775 0.71617 0.0
C454 C 0.85456 0.90626 0.68097 0.0
C455 C 0.82202 0.94044 0.63006 0.0
C456 C 0.78898 0.94518 0.61517 0.0
C457 C 0.8221 0.91112 0.66493 0.0
C458 C 0.7564 0.91955 0.63474 0.0
C459 C 0.75633 0.89049 0.66893 0.0
H460 H 0.70746 0.40047 0.19492 0.0
H461 H 0.70133 0.27159 0.22552 0.0
H462 H 0.64844 0.25941 0.18845 0.0
H463 H 0.60429 0.28539 0.14755 0.0
H464 H 0.61031 0.4144 0.11604 0.0
H465 H 0.66276 0.42663 0.15365 0.0
C466 C 0.69453 0.36977 0.19329 0.0
C467 C 0.70817 0.33687 0.21274 0.0
C468 C 0.66407 0.36309 0.17209 0.0
C469 C 0.69124 0.29724 0.21059 0.0
C470 C 0.66102 0.29034 0.18955 0.0
C471 C 0.61685 0.31625 0.14905 0.0
C472 C 0.60321 0.34894 0.12907 0.0
C473 C 0.64717 0.32302 0.1703 0.0
C474 C 0.62013 0.38867 0.1312 0.0
C475 C 0.6502 0.39568 0.15261 0.0
H476 H 0.24614 0.25258 0.74145 0.0
H477 H 0.36014 0.29784 0.69826 0.0
H478 H 0.36338 0.23824 0.66497 0.0
H479 H 0.33272 0.17464 0.64555 0.0
H480 H 0.21847 0.13022 0.68994 0.0
H481 H 0.21653 0.18795 0.72536 0.0
C482 C 0.27165 0.24944 0.72457 0.0
C483 C 0.30272 0.27971 0.72179 0.0
C484 C 0.27329 0.21519 0.70578 0.0
C485 C 0.33584 0.27488 0.70071 0.0
C486 C 0.33766 0.24089 0.68163 0.0
C487 C 0.30752 0.17738 0.66332 0.0
C488 C 0.27577 0.14814 0.66478 0.0
C489 C 0.30644 0.21098 0.68364 0.0
C490 C 0.24334 0.15223 0.68804 0.0
C491 C 0.24211 0.18535 0.7083 0.0
H492 H 0.38455 0.80729 0.24471 0.0
H493 H 0.42601 0.93584 0.22084 0.0
H494 H 0.47812 0.92588 0.17479 0.0
H495 H 0.51115 0.88056 0.13996 0.0
H496 H 0.46948 0.75173 0.16468 0.0
H497 H 0.41861 0.76182 0.21183 0.0
C498 C 0.40531 0.83298 0.22981 0.0
C499 C 0.40184 0.87213 0.23667 0.0
C500 C 0.43515 0.827 0.20339 0.0
C501 C 0.42843 0.90534 0.21651 0.0
C502 C 0.45815 0.89967 0.19008 0.0
C503 C 0.49104 0.85468 0.15577 0.0
C504 C 0.49422 0.81547 0.14857 0.0
C505 C 0.4617 0.86063 0.18309 0.0
C506 C 0.46785 0.78229 0.16951 0.0
C507 C 0.43863 0.78799 0.19652 0.0
H508 H 0.76389 0.22509 0.32875 0.0
H509 H 0.8801 0.23498 0.29932 0.0
H510 H 0.87829 0.17426 0.34974 0.0
H511 H 0.84407 0.12108 0.40617 0.0
H512 H 0.72755 0.1118 0.43357 0.0
H513 H 0.72922 0.16886 0.37964 0.0
C514 C 0.78873 0.21349 0.33252 0.0
C515 C 0.82208 0.23488 0.31047 0.0
C516 C 0.78754 0.17867 0.3616 0.0
C517 C 0.85407 0.21952 0.31637 0.0
C518 C 0.85307 0.18473 0.34517 0.0
C519 C 0.81904 0.13132 0.40005 0.0
C520 C 0.78587 0.11231 0.42439 0.0
C521 C 0.82005 0.16454 0.36872 0.0
C522 C 0.75363 0.12591 0.41574 0.0
C523 C 0.75445 0.15866 0.38479 0.0
H524 H 0.36836 0.2981 0.88396 0.0
H525 H 0.37219 0.42601 0.88031 0.0
H526 H 0.42202 0.42929 0.92285 0.0
H527 H 0.46124 0.39431 0.96548 0.0
H528 H 0.45521 0.2656 0.9702 0.0
H529 H 0.40971 0.26409 0.92294 0.0
C530 C 0.38036 0.32669 0.8923 0.0
C531 C 0.36642 0.36164 0.87975 0.0
C532 C 0.40844 0.32812 0.9172 0.0
C533 C 0.38238 0.39868 0.89014 0.0
C534 C 0.41075 0.4005 0.91448 0.0
C535 C 0.45024 0.36606 0.9558 0.0
C536 C 0.46146 0.3301 0.9717 0.0
C537 C 0.42352 0.36521 0.92891 0.0
C538 C 0.44687 0.2937 0.95882 0.0
C539 C 0.42082 0.29275 0.93172 0.0
H540 H 0.32566 0.94318 0.38459 0.0
H541 H 0.25124 0.84072 0.45858 0.0
H542 H 0.24112 0.88078 0.51242 0.0
H543 H 0.25266 0.94502 0.53895 0.0
H544 H 0.33221 0.04489 0.46952 0.0
H545 H 0.34181 0.00531 0.41417 0.0
C546 C 0.30768 0.92917 0.41267 0.0
C547 C 0.28868 0.88893 0.41656 0.0
C548 C 0.30297 0.95193 0.44464 0.0
C549 C 0.26531 0.87192 0.45348 0.0
C550 C 0.25975 0.8947 0.48477 0.0
C551 C 0.27217 0.95802 0.51171 0.0
C552 C 0.29148 0.99786 0.50808 0.0
C553 C 0.27817 0.9348 0.48057 0.0
C554 C 0.31708 0.01421 0.47299 0.0
C555 C 0.32246 0.99165 0.4413 0.0
H556 H 0.76269 0.84853 0.87599 0.0
H557 H 0.74393 0.71848 0.88394 0.0
H558 H 0.69251 0.71177 0.93779 0.0
H559 H 0.65146 0.74272 0.98106 0.0
H560 H 0.66862 0.87287 0.97126 0.0
H561 H 0.72147 0.87953 0.91907 0.0
C562 C 0.74724 0.81868 0.88922 0.0
C563 C 0.7574 0.78409 0.87569 0.0
C564 C 0.71712 0.81502 0.91965 0.0
C565 C 0.73731 0.74567 0.89399 0.0
C566 C 0.70759 0.74178 0.92459 0.0
C567 C 0.6667 0.77259 0.96754 0.0
C568 C 0.6559 0.80724 0.98011 0.0
C569 C 0.69706 0.77625 0.93743 0.0
C570 C 0.67614 0.84566 0.96217 0.0
C571 C 0.70646 0.84951 0.93234 0.0
loop_
_geom_bond_atom_site_label_1
_geom_bond_atom_site_label_2
_geom_bond_distance
_geom_bond_site_symmetry_2
_ccdc_geom_bond_type
H0 C7 0.929 . S
H1 C10 0.930 . S
H2 C12 0.929 . S
H3 C4 0.969 . S
C4 H3 0.969 . S
C4 O5 1.550 . S
C4 H6 0.973 . S
O5 C4 1.550 . S
O5 C11 1.412 . S
H6 C4 0.973 . S
C7 H0 0.929 . S
C7 C8 1.400 . S
C7 C9 1.364 . S
C8 C7 1.400 . S
C8 C12 1.377 . S
C9 C7 1.364 . S
C9 C10 1.374 . S
C10 H1 0.930 . S
C10 C9 1.374 . S
C10 C11 1.383 . S
C11 O5 1.412 . S
C11 C10 1.383 . S
C11 C12 1.394 . S
C12 H2 0.929 . S
C12 C8 1.377 . S
C12 C11 1.394 . S
H13 C20 0.929 . S
H14 C23 0.930 . S
H15 C25 0.929 . S
H16 C17 0.969 . S
C17 H16 0.969 . S
C17 O18 1.550 . S
C17 H19 0.973 . S
O18 C17 1.550 . S
O18 C24 1.412 . S
H19 C17 0.973 . S
C20 H13 0.929 . S
C20 C21 1.400 . S
C20 C22 1.364 . S
C21 C20 1.400 . S
C21 C25 1.377 . S
C22 C20 1.364 . S
C22 C23 1.374 . S
C23 H14 0.930 . S
C23 C22 1.374 . S
C23 C24 1.383 . S
C24 O18 1.412 . S
C24 C23 1.383 . S
C24 C25 1.394 . S
C25 H15 0.929 . S
C25 C21 1.377 . S
C25 C24 1.394 . S
H26 C33 0.929 . S
H27 C36 0.930 . S
H28 C38 0.929 . S
H29 C30 0.969 . S
C30 H29 0.969 . S
C30 O31 1.550 . S
C30 H32 0.973 . S
O31 C30 1.550 . S
O31 C37 1.412 . S
H32 C30 0.973 . S
C33 H26 0.929 . S
C33 C34 1.400 . S
C33 C35 1.364 . S
C34 C33 1.400 . S
C34 C38 1.377 . S
C35 C33 1.364 . S
C35 C36 1.374 . S
C36 H27 0.930 . S
C36 C35 1.374 . S
C36 C37 1.383 . S
C37 O31 1.412 . S
C37 C36 1.383 . S
C37 C38 1.394 . S
C38 H28 0.929 . S
C38 C34 1.377 . S
C38 C37 1.394 . S
H39 C46 0.929 . S
H40 C49 0.930 . S
H41 C51 0.929 . S
H42 C43 0.969 . S
C43 H42 0.969 . S
C43 O44 1.550 . S
C43 H45 0.973 . S
O44 C43 1.550 . S
O44 C50 1.412 . S
H45 C43 0.973 . S
C46 H39 0.929 . S
C46 C47 1.400 . S
C46 C48 1.364 . S
C47 C46 1.400 . S
C47 C51 1.377 . S
C48 C46 1.364 . S
C48 C49 1.374 . S
C49 H40 0.930 . S
C49 C48 1.374 . S
C49 C50 1.383 . S
C50 O44 1.412 . S
C50 C49 1.383 . S
C50 C51 1.394 . S
C51 H41 0.929 . S
C51 C47 1.377 . S
C51 C50 1.394 . S
H52 C59 0.929 . S
H53 C62 0.930 . S
H54 C64 0.929 . S
H55 C56 0.969 . S
C56 H55 0.969 . S
C56 O57 1.550 . S
C56 H58 0.973 . S
O57 C56 1.550 . S
O57 C63 1.412 . S
H58 C56 0.973 . S
C59 H52 0.929 . S
C59 C60 1.400 . S
C59 C61 1.364 . S
C60 C59 1.400 . S
C60 C64 1.377 . S
C61 C59 1.364 . S
C61 C62 1.374 . S
C62 H53 0.930 . S
C62 C61 1.374 . S
C62 C63 1.383 . S
C63 O57 1.412 . S
C63 C62 1.383 . S
C63 C64 1.394 . S
C64 H54 0.929 . S
C64 C60 1.377 . S
C64 C63 1.394 . S
H65 C72 0.929 . S
H66 C75 0.930 . S
H67 C77 0.929 . S
H68 C69 0.969 . S
C69 H68 0.969 . S
C69 O70 1.550 . S
C69 H71 0.973 . S
O70 C69 1.550 . S
O70 C76 1.412 . S
H71 C69 0.973 . S
C72 H65 0.929 . S
C72 C73 1.400 . S
C72 C74 1.364 . S
C73 C72 1.400 . S
C73 C77 1.377 . S
C74 C72 1.364 . S
C74 C75 1.374 . S
C75 H66 0.930 . S
C75 C74 1.374 . S
C75 C76 1.383 . S
C76 O70 1.412 . S
C76 C75 1.383 . S
C76 C77 1.394 . S
C77 H67 0.929 . S
C77 C73 1.377 . S
C77 C76 1.394 . S
H78 C85 0.929 . S
H79 C88 0.930 . S
H80 C90 0.929 . S
H81 C82 0.969 . S
C82 H81 0.969 . S
C82 O83 1.550 . S
C82 H84 0.973 . S
O83 C82 1.550 . S
O83 C89 1.412 . S
H84 C82 0.973 . S
C85 H78 0.929 . S
C85 C86 1.400 . S
C85 C87 1.364 . S
C86 C85 1.400 . S
C86 C90 1.377 . S
C87 C85 1.364 . S
C87 C88 1.374 . S
C88 H79 0.930 . S
C88 C87 1.374 . S
C88 C89 1.383 . S
C89 O83 1.412 . S
C89 C88 1.383 . S
C89 C90 1.394 . S
C90 H80 0.929 . S
C90 C86 1.377 . S
C90 C89 1.394 . S
H91 C98 0.929 . S
H92 C101 0.930 . S
H93 C103 0.929 . S
H94 C95 0.969 . S
C95 H94 0.969 . S
C95 O96 1.550 . S
C95 H97 0.973 . S
O96 C95 1.550 . S
O96 C102 1.412 . S
H97 C95 0.973 . S
C98 H91 0.929 . S
C98 C99 1.400 . S
C98 C100 1.364 . S
C99 C98 1.400 . S
C99 C103 1.377 . S
C100 C98 1.364 . S
C100 C101 1.374 . S
C101 H92 0.930 . S
C101 C100 1.374 . S
C101 C102 1.383 . S
C102 O96 1.412 . S
C102 C101 1.383 . S
C102 C103 1.394 . S
C103 H93 0.929 . S
C103 C99 1.377 . S
C103 C102 1.394 . S
C104 O106 1.247 . S
C104 O108 1.258 . S
C105 O112 1.247 . S
C105 O113 1.258 . S
O106 C104 1.247 . S
O106 Zn107 2.028 1_655 S
Zn107 O106 2.028 1_455 S
Zn107 O111 2.035 . S
Zn107 O113 2.035 . S
Zn107 O114 2.028 1_455 S
O108 C104 1.258 . S
O108 Zn109 2.035 1_655 S
Zn109 O108 2.035 1_455 S
Zn109 O110 2.028 . S
Zn109 O112 2.028 . S
Zn109 O115 2.035 1_455 S
O110 Zn109 2.028 . S
O110 C116 1.247 . S
O111 Zn107 2.035 . S
O111 C116 1.258 . S
O112 C105 1.247 . S
O112 Zn109 2.028 . S
O113 C105 1.258 . S
O113 Zn107 2.035 . S
O114 Zn107 2.028 1_655 S
O114 C117 1.247 . S
O115 Zn109 2.035 1_655 S
O115 C117 1.258 . S
C116 O110 1.247 . S
C116 O111 1.258 . S
C117 O114 1.247 . S
C117 O115 1.258 . S
C118 O120 1.247 . S
C118 O122 1.258 1_655 S
C119 O126 1.247 . S
C119 O127 1.258 . S
O120 C118 1.247 . S
O120 Zn121 2.028 1_655 S
Zn121 O120 2.028 1_455 S
Zn121 O125 2.035 . S
Zn121 O127 2.035 . S
Zn121 O128 2.008 1_455 S
O122 C118 1.258 1_455 S
O122 Zn123 2.035 . S
Zn123 O122 2.035 . S
Zn123 O124 2.028 . S
Zn123 O126 2.028 . S
Zn123 O129 2.035 . S
O124 Zn123 2.028 . S
O124 C130 1.247 . S
O125 Zn121 2.035 . S
O125 C130 1.258 . S
O126 C119 1.247 . S
O126 Zn123 2.028 . S
O127 C119 1.258 . S
O127 Zn121 2.035 . S
O128 Zn121 2.008 1_655 S
O128 C131 1.256 . S
O129 Zn123 2.035 . S
O129 C131 1.258 1_455 S
C130 O124 1.247 . S
C130 O125 1.258 . S
C131 O128 1.256 . S
C131 O129 1.258 1_655 S
C132 O134 1.247 . S
C132 O136 1.258 1_565 S
C133 O140 1.247 . S
C133 O141 1.258 . S
O134 C132 1.247 . S
O134 Zn135 2.028 1_565 S
Zn135 O134 2.028 1_545 S
Zn135 O139 2.035 . S
Zn135 O141 2.035 . S
Zn135 O142 2.028 1_545 S
O136 C132 1.258 1_545 S
O136 Zn137 2.035 . S
Zn137 O136 2.035 . S
Zn137 O138 2.028 . S
Zn137 O140 2.028 . S
Zn137 O143 2.035 . S
O138 Zn137 2.028 . S
O138 C144 1.247 . S
O139 Zn135 2.035 . S
O139 C144 1.258 . S
O140 C133 1.247 . S
O140 Zn137 2.028 . S
O141 C133 1.258 . S
O141 Zn135 2.035 . S
O142 Zn135 2.028 1_565 S
O142 C145 1.247 . S
O143 Zn137 2.035 . S
O143 C145 1.258 1_545 S
C144 O138 1.247 . S
C144 O139 1.258 . S
C145 O142 1.247 . S
C145 O143 1.258 1_565 S
C146 O148 1.247 . S
C146 O150 1.258 . S
C147 O154 1.247 . S
C147 O155 1.258 . S
O148 C146 1.247 . S
O148 Zn149 2.028 . S
Zn149 O148 2.028 . S
Zn149 O153 2.035 . S
Zn149 O155 2.035 . S
Zn149 O156 2.028 . S
O150 C146 1.258 . S
O150 Zn151 2.035 . S
Zn151 O150 2.035 . S
Zn151 O152 2.028 . S
Zn151 O154 2.028 . S
Zn151 O157 2.035 . S
O152 Zn151 2.028 . S
O152 C158 1.247 . S
O153 Zn149 2.035 . S
O153 C158 1.258 . S
O154 C147 1.247 . S
O154 Zn151 2.028 . S
O155 C147 1.258 . S
O155 Zn149 2.035 . S
O156 Zn149 2.028 . S
O156 C159 1.247 . S
O157 Zn151 2.035 . S
O157 C159 1.258 . S
C158 O152 1.247 . S
C158 O153 1.258 . S
C159 O156 1.247 . S
C159 O157 1.258 . S
C160 O162 1.247 . S
C160 O164 1.258 . S
C161 O168 1.247 . S
C161 O169 1.258 . S
O162 C160 1.247 . S
O162 Zn163 2.028 . S
Zn163 O162 2.028 . S
Zn163 O167 2.035 1_565 S
Zn163 O169 2.035 1_565 S
Zn163 O170 2.028 . S
O164 C160 1.258 . S
O164 Zn165 2.035 1_565 S
Zn165 O164 2.035 1_545 S
Zn165 O166 2.028 . S
Zn165 O168 2.028 . S
Zn165 O171 2.035 1_545 S
O166 Zn165 2.028 . S
O166 C172 1.247 . S
O167 Zn163 2.035 1_545 S
O167 C172 1.258 . S
O168 C161 1.247 . S
O168 Zn165 2.028 . S
O169 C161 1.258 . S
O169 Zn163 2.035 1_545 S
O170 Zn163 2.028 . S
O170 C173 1.247 . S
O171 Zn165 2.035 1_565 S
O171 C173 1.258 . S
C172 O166 1.247 . S
C172 O167 1.258 . S
C173 O170 1.247 . S
C173 O171 1.258 . S
C174 O176 1.247 . S
C174 O178 1.258 . S
C175 O182 1.247 . S
C175 O183 1.258 . S
O176 C174 1.247 . S
O176 Zn177 2.028 . S
Zn177 O176 2.028 . S
Zn177 O181 2.035 . S
Zn177 O183 2.035 1_554 S
Zn177 O184 2.028 1_554 S
O178 C174 1.258 . S
O178 Zn179 2.035 1_554 S
Zn179 O178 2.035 1_556 S
Zn179 O180 2.028 1_556 S
Zn179 O182 2.028 . S
Zn179 O185 2.035 . S
O180 Zn179 2.028 1_554 S
O180 C186 1.247 . S
O181 Zn177 2.035 . S
O181 C186 1.258 . S
O182 C175 1.247 . S
O182 Zn179 2.028 . S
O183 C175 1.258 . S
O183 Zn177 2.035 1_556 S
O184 Zn177 2.028 1_556 S
O184 C187 1.247 . S
O185 Zn179 2.035 . S
O185 C187 1.258 . S
C186 O180 1.247 . S
C186 O181 1.258 . S
C187 O184 1.247 . S
C187 O185 1.258 . S
H188 C194 0.930 . S
H189 C197 0.930 . S
H190 C198 0.930 . S
H191 C199 0.930 . S
H192 C202 0.930 . S
H193 C203 0.930 . S
C194 H188 0.930 . S
C194 C195 1.355 . S
C194 C196 1.415 . S
C195 C194 1.355 . S
C195 C197 1.419 . S
C196 C194 1.415 . S
C196 C201 1.425 . S
C196 C203 1.409 . S
C197 H189 0.930 . S
C197 C195 1.419 . S
C197 C198 1.362 . S
C198 H190 0.930 . S
C198 C197 1.362 . S
C198 C201 1.409 . S
C199 H191 0.930 . S
C199 C200 1.355 . S
C199 C201 1.415 . S
C200 C199 1.355 . S
C200 C202 1.419 . S
C201 C196 1.425 . S
C201 C198 1.409 . S
C201 C199 1.415 . S
C202 H192 0.930 . S
C202 C200 1.419 . S
C202 C203 1.362 . S
C203 H193 0.930 . S
C203 C196 1.409 . S
C203 C202 1.362 . S
H204 C210 0.930 . S
H205 C213 0.930 . S
H206 C214 0.930 . S
H207 C215 0.930 . S
H208 C218 0.930 . S
H209 C219 0.930 . S
C210 H204 0.930 . S
C210 C211 1.355 . S
C210 C212 1.415 . S
C211 C210 1.355 . S
C211 C213 1.419 . S
C212 C210 1.415 . S
C212 C217 1.425 . S
C212 C219 1.409 . S
C213 H205 0.930 . S
C213 C211 1.419 . S
C213 C214 1.362 . S
C214 H206 0.930 . S
C214 C213 1.362 . S
C214 C217 1.409 . S
C215 H207 0.930 . S
C215 C216 1.355 . S
C215 C217 1.415 . S
C216 C215 1.355 . S
C216 C218 1.419 . S
C217 C212 1.425 . S
C217 C214 1.409 . S
C217 C215 1.415 . S
C218 H208 0.930 . S
C218 C216 1.419 . S
C218 C219 1.362 . S
C219 H209 0.930 . S
C219 C212 1.409 . S
C219 C218 1.362 . S
H220 C226 0.930 . S
H221 C229 0.930 . S
H222 C230 0.930 . S
H223 C231 0.930 . S
H224 C234 0.930 . S
H225 C235 0.930 . S
C226 H220 0.930 . S
C226 C227 1.355 . S
C226 C228 1.415 . S
C227 C226 1.355 . S
C227 C229 1.419 . S
C228 C226 1.415 . S
C228 C233 1.425 . S
C228 C235 1.409 . S
C229 H221 0.930 . S
C229 C227 1.419 . S
C229 C230 1.362 . S
C230 H222 0.930 . S
C230 C229 1.362 . S
C230 C233 1.409 . S
C231 H223 0.930 . S
C231 C232 1.355 . S
C231 C233 1.415 . S
C232 C231 1.355 . S
C232 C234 1.419 . S
C233 C228 1.425 . S
C233 C230 1.409 . S
C233 C231 1.415 . S
C234 H224 0.930 . S
C234 C232 1.419 . S
C234 C235 1.362 . S
C235 H225 0.930 . S
C235 C228 1.409 . S
C235 C234 1.362 . S
H236 C242 0.930 . S
H237 C245 0.930 . S
H238 C246 0.930 . S
H239 C247 0.930 . S
H240 C250 0.930 . S
H241 C251 0.930 . S
C242 H236 0.930 . S
C242 C243 1.355 . S
C242 C244 1.415 . S
C243 C242 1.355 . S
C243 C245 1.419 . S
C244 C242 1.415 . S
C244 C249 1.425 . S
C244 C251 1.409 . S
C245 H237 0.930 . S
C245 C243 1.419 . S
C245 C246 1.362 . S
C246 H238 0.930 . S
C246 C245 1.362 . S
C246 C249 1.409 . S
C247 H239 0.930 . S
C247 C248 1.355 . S
C247 C249 1.415 . S
C248 C247 1.355 . S
C248 C250 1.419 . S
C249 C244 1.425 . S
C249 C246 1.409 . S
C249 C247 1.415 . S
C250 H240 0.930 . S
C250 C248 1.419 . S
C250 C251 1.362 . S
C251 H241 0.930 . S
C251 C244 1.409 . S
C251 C250 1.362 . S
H252 C258 0.930 . S
H253 C261 0.930 . S
H254 C262 0.930 . S
H255 C263 0.930 . S
H256 C266 0.930 . S
H257 C267 0.930 . S
C258 H252 0.930 . S
C258 C259 1.355 . S
C258 C260 1.415 . S
C259 C258 1.355 . S
C259 C261 1.419 . S
C260 C258 1.415 . S
C260 C265 1.425 . S
C260 C267 1.409 . S
C261 H253 0.930 . S
C261 C259 1.419 . S
C261 C262 1.362 . S
C262 H254 0.930 . S
C262 C261 1.362 . S
C262 C265 1.409 . S
C263 H255 0.930 . S
C263 C264 1.355 . S
C263 C265 1.415 . S
C264 C263 1.355 . S
C264 C266 1.419 . S
C265 C260 1.425 . S
C265 C262 1.409 . S
C265 C263 1.415 . S
C266 H256 0.930 . S
C266 C264 1.419 . S
C266 C267 1.362 . S
C267 H257 0.930 . S
C267 C260 1.409 . S
C267 C266 1.362 . S
H268 C274 0.930 . S
H269 C277 0.930 . S
H270 C278 0.930 . S
H271 C279 0.930 . S
H272 C282 0.930 . S
H273 C283 0.930 . S
C274 H268 0.930 . S
C274 C275 1.355 . S
C274 C276 1.415 . S
C275 C274 1.355 . S
C275 C277 1.419 . S
C276 C274 1.415 . S
C276 C281 1.425 . S
C276 C283 1.409 1_556 S
C277 H269 0.930 . S
C277 C275 1.419 . S
C277 C278 1.362 . S
C278 H270 0.930 . S
C278 C277 1.362 . S
C278 C281 1.409 . S
C279 H271 0.930 . S
C279 C280 1.355 1_556 S
C279 C281 1.415 . S
C280 C279 1.355 1_554 S
C280 C282 1.419 . S
C281 C276 1.425 . S
C281 C278 1.409 . S
C281 C279 1.415 . S
C282 H272 0.930 . S
C282 C280 1.419 . S
C282 C283 1.362 . S
C283 H273 0.930 . S
C283 C276 1.409 1_554 S
C283 C282 1.362 . S
H284 C290 0.930 . S
H285 C293 0.930 . S
H286 C294 0.930 . S
H287 C295 0.930 . S
H288 C298 0.930 . S
H289 C299 0.930 . S
C290 H284 0.930 . S
C290 C291 1.355 . S
C290 C292 1.415 . S
C291 C290 1.355 . S
C291 C293 1.419 . S
C292 C290 1.415 . S
C292 C297 1.425 . S
C292 C299 1.409 . S
C293 H285 0.930 . S
C293 C291 1.419 . S
C293 C294 1.362 . S
C294 H286 0.930 . S
C294 C293 1.362 . S
C294 C297 1.409 . S
C295 H287 0.930 . S
C295 C296 1.355 . S
C295 C297 1.415 . S
C296 C295 1.355 . S
C296 C298 1.419 . S
C297 C292 1.425 . S
C297 C294 1.409 . S
C297 C295 1.415 . S
C298 H288 0.930 . S
C298 C296 1.419 . S
C298 C299 1.362 . S
C299 H289 0.930 . S
C299 C292 1.409 . S
C299 C298 1.362 . S
H300 C306 0.930 . S
H301 C309 0.930 . S
H302 C310 0.930 . S
H303 C311 0.930 . S
H304 C314 0.930 . S
H305 C315 0.930 . S
C306 H300 0.930 . S
C306 C307 1.355 . S
C306 C308 1.415 . S
C307 C306 1.355 . S
C307 C309 1.419 . S
C308 C306 1.415 . S
C308 C313 1.425 . S
C308 C315 1.409 . S
C309 H301 0.930 . S
C309 C307 1.419 . S
C309 C310 1.362 . S
C310 H302 0.930 . S
C310 C309 1.362 . S
C310 C313 1.409 . S
C311 H303 0.930 . S
C311 C312 1.355 . S
C311 C313 1.415 . S
C312 C311 1.355 . S
C312 C314 1.419 . S
C313 C308 1.425 . S
C313 C310 1.409 . S
C313 C311 1.415 . S
C314 H304 0.930 . S
C314 C312 1.419 . S
C314 C315 1.362 . S
C315 H305 0.930 . S
C315 C308 1.409 . S
C315 C314 1.362 . S
H316 C322 0.930 . S
H317 C325 0.930 . S
H318 C326 0.930 . S
H319 C327 0.930 . S
H320 C330 0.930 . S
H321 C331 0.930 . S
C322 H316 0.930 . S
C322 C323 1.355 . S
C322 C324 1.415 . S
C323 C322 1.355 . S
C323 C325 1.419 . S
C324 C322 1.415 . S
C324 C329 1.425 . S
C324 C331 1.409 . S
C325 H317 0.930 . S
C325 C323 1.419 . S
C325 C326 1.362 . S
C326 H318 0.930 . S
C326 C325 1.362 . S
C326 C329 1.409 . S
C327 H319 0.930 . S
C327 C328 1.355 . S
C327 C329 1.415 . S
C328 C327 1.355 . S
C328 C330 1.419 . S
C329 C324 1.425 . S
C329 C326 1.409 . S
C329 C327 1.415 . S
C330 H320 0.930 . S
C330 C328 1.419 . S
C330 C331 1.362 . S
C331 H321 0.930 . S
C331 C324 1.409 . S
C331 C330 1.362 . S
H332 C338 0.930 . S
H333 C341 0.930 . S
H334 C342 0.930 . S
H335 C343 0.930 . S
H336 C346 0.930 . S
H337 C347 0.930 . S
C338 H332 0.930 . S
C338 C339 1.355 . S
C338 C340 1.415 . S
C339 C338 1.355 . S
C339 C341 1.419 . S
C340 C338 1.415 . S
C340 C345 1.425 . S
C340 C347 1.409 . S
C341 H333 0.930 . S
C341 C339 1.419 . S
C341 C342 1.362 . S
C342 H334 0.930 . S
C342 C341 1.362 . S
C342 C345 1.409 . S
C343 H335 0.930 . S
C343 C344 1.355 . S
C343 C345 1.415 . S
C344 C343 1.355 . S
C344 C346 1.419 . S
C345 C340 1.425 . S
C345 C342 1.409 . S
C345 C343 1.415 . S
C346 H336 0.930 . S
C346 C344 1.419 . S
C346 C347 1.362 . S
C347 H337 0.930 . S
C347 C340 1.409 . S
C347 C346 1.362 . S
H348 C354 0.930 . S
H349 C357 0.930 . S
H350 C358 0.930 . S
H351 C359 0.930 . S
H352 C362 0.930 . S
H353 C363 0.930 . S
C354 H348 0.930 . S
C354 C355 1.355 . S
C354 C356 1.415 . S
C355 C354 1.355 . S
C355 C357 1.419 . S
C356 C354 1.415 . S
C356 C361 1.425 . S
C356 C363 1.409 . S
C357 H349 0.930 . S
C357 C355 1.419 . S
C357 C358 1.362 . S
C358 H350 0.930 . S
C358 C357 1.362 . S
C358 C361 1.409 . S
C359 H351 0.930 . S
C359 C360 1.355 . S
C359 C361 1.415 . S
C360 C359 1.355 . S
C360 C362 1.419 . S
C361 C356 1.425 . S
C361 C358 1.409 . S
C361 C359 1.415 . S
C362 H352 0.930 . S
C362 C360 1.419 . S
C362 C363 1.362 . S
C363 H353 0.930 . S
C363 C356 1.409 . S
C363 C362 1.362 . S
H364 C370 0.930 . S
H365 C373 0.930 . S
H366 C374 0.930 . S
H367 C375 0.930 . S
H368 C378 0.930 . S
H369 C379 0.930 . S
C370 H364 0.930 . S
C370 C371 1.355 . S
C370 C372 1.415 . S
C371 C370 1.355 . S
C371 C373 1.419 . S
C372 C370 1.415 . S
C372 C377 1.425 . S
C372 C379 1.409 . S
C373 H365 0.930 . S
C373 C371 1.419 . S
C373 C374 1.362 . S
C374 H366 0.930 . S
C374 C373 1.362 . S
C374 C377 1.409 . S
C375 H367 0.930 . S
C375 C376 1.355 . S
C375 C377 1.415 . S
C376 C375 1.355 . S
C376 C378 1.419 . S
C377 C372 1.425 . S
C377 C374 1.409 . S
C377 C375 1.415 . S
C378 H368 0.930 . S
C378 C376 1.419 . S
C378 C379 1.362 . S
C379 H369 0.930 . S
C379 C372 1.409 . S
C379 C378 1.362 . S
H380 C386 0.930 . S
H381 C389 0.930 . S
H382 C390 0.930 . S
H383 C391 0.930 . S
H384 C394 0.930 . S
H385 C395 0.930 . S
C386 H380 0.930 . S
C386 C387 1.355 . S
C386 C388 1.415 . S
C387 C386 1.355 . S
C387 C389 1.419 . S
C388 C386 1.415 . S
C388 C393 1.425 . S
C388 C395 1.409 . S
C389 H381 0.930 . S
C389 C387 1.419 . S
C389 C390 1.362 . S
C390 H382 0.930 . S
C390 C389 1.362 . S
C390 C393 1.409 . S
C391 H383 0.930 . S
C391 C392 1.355 . S
C391 C393 1.415 . S
C392 C391 1.355 . S
C392 C394 1.419 . S
C393 C388 1.425 . S
C393 C390 1.409 . S
C393 C391 1.415 . S
C394 H384 0.930 . S
C394 C392 1.419 . S
C394 C395 1.362 . S
C395 H385 0.930 . S
C395 C388 1.409 . S
C395 C394 1.362 . S
H396 C402 0.930 . S
H397 C405 0.930 . S
H398 C406 0.930 . S
H399 C407 0.930 . S
H400 C410 0.930 . S
H401 C411 0.930 . S
C402 H396 0.930 . S
C402 C403 1.355 . S
C402 C404 1.415 . S
C403 C402 1.355 . S
C403 C405 1.419 . S
C404 C402 1.415 . S
C404 C409 1.425 . S
C404 C411 1.409 . S
C405 H397 0.930 . S
C405 C403 1.419 . S
C405 C406 1.362 . S
C406 H398 0.930 . S
C406 C405 1.362 . S
C406 C409 1.409 . S
C407 H399 0.930 . S
C407 C408 1.355 . S
C407 C409 1.415 . S
C408 C407 1.355 . S
C408 C410 1.419 . S
C409 C404 1.425 . S
C409 C406 1.409 . S
C409 C407 1.415 . S
C410 H400 0.930 . S
C410 C408 1.419 . S
C410 C411 1.362 . S
C411 H401 0.930 . S
C411 C404 1.409 . S
C411 C410 1.362 . S
H412 C418 0.930 . S
H413 C421 0.930 . S
H414 C422 0.930 . S
H415 C423 0.930 . S
H416 C426 0.930 . S
H417 C427 0.930 . S
C418 H412 0.930 . S
C418 C419 1.355 . S
C418 C420 1.415 . S
C419 C418 1.355 . S
C419 C421 1.419 . S
C420 C418 1.415 . S
C420 C425 1.425 . S
C420 C427 1.409 . S
C421 H413 0.930 . S
C421 C419 1.419 . S
C421 C422 1.362 . S
C422 H414 0.930 . S
C422 C421 1.362 . S
C422 C425 1.409 . S
C423 H415 0.930 . S
C423 C424 1.355 . S
C423 C425 1.415 . S
C424 C423 1.355 . S
C424 C426 1.419 . S
C425 C420 1.425 . S
C425 C422 1.409 . S
C425 C423 1.415 . S
C426 H416 0.930 . S
C426 C424 1.419 . S
C426 C427 1.362 . S
C427 H417 0.930 . S
C427 C420 1.409 . S
C427 C426 1.362 . S
H428 C434 0.930 . S
H429 C437 0.930 . S
H430 C438 0.930 . S
H431 C439 0.930 . S
H432 C442 0.930 . S
H433 C443 0.930 . S
C434 H428 0.930 . S
C434 C435 1.355 . S
C434 C436 1.415 . S
C435 C434 1.355 . S
C435 C437 1.419 . S
C436 C434 1.415 . S
C436 C441 1.425 . S
C436 C443 1.409 . S
C437 H429 0.930 . S
C437 C435 1.419 . S
C437 C438 1.362 . S
C438 H430 0.930 . S
C438 C437 1.362 . S
C438 C441 1.409 . S
C439 H431 0.930 . S
C439 C440 1.355 . S
C439 C441 1.415 . S
C440 C439 1.355 . S
C440 C442 1.419 . S
C441 C436 1.425 . S
C441 C438 1.409 . S
C441 C439 1.415 . S
C442 H432 0.930 . S
C442 C440 1.419 . S
C442 C443 1.362 . S
C443 H433 0.930 . S
C443 C436 1.409 . S
C443 C442 1.362 . S
H444 C450 0.930 . S
H445 C453 0.930 . S
H446 C454 0.930 . S
H447 C455 0.930 . S
H448 C458 0.930 . S
H449 C459 0.930 . S
C450 H444 0.930 . S
C450 C451 1.355 . S
C450 C452 1.415 . S
C451 C450 1.355 . S
C451 C453 1.419 . S
C452 C450 1.415 . S
C452 C457 1.425 . S
C452 C459 1.409 . S
C453 H445 0.930 . S
C453 C451 1.419 . S
C453 C454 1.362 . S
C454 H446 0.930 . S
C454 C453 1.362 . S
C454 C457 1.409 . S
C455 H447 0.930 . S
C455 C456 1.355 . S
C455 C457 1.415 . S
C456 C455 1.355 . S
C456 C458 1.419 . S
C457 C452 1.425 . S
C457 C454 1.409 . S
C457 C455 1.415 . S
C458 H448 0.930 . S
C458 C456 1.419 . S
C458 C459 1.362 . S
C459 H449 0.930 . S
C459 C452 1.409 . S
C459 C458 1.362 . S
H460 C466 0.930 . S
H461 C469 0.930 . S
H462 C470 0.930 . S
H463 C471 0.930 . S
H464 C474 0.930 . S
H465 C475 0.930 . S
C466 H460 0.930 . S
C466 C467 1.355 . S
C466 C468 1.415 . S
C467 C466 1.355 . S
C467 C469 1.419 . S
C468 C466 1.415 . S
C468 C473 1.425 . S
C468 C475 1.409 . S
C469 H461 0.930 . S
C469 C467 1.419 . S
C469 C470 1.362 . S
C470 H462 0.930 . S
C470 C469 1.362 . S
C470 C473 1.409 . S
C471 H463 0.930 . S
C471 C472 1.355 . S
C471 C473 1.415 . S
C472 C471 1.355 . S
C472 C474 1.419 . S
C473 C468 1.425 . S
C473 C470 1.409 . S
C473 C471 1.415 . S
C474 H464 0.930 . S
C474 C472 1.419 . S
C474 C475 1.362 . S
C475 H465 0.930 . S
C475 C468 1.409 . S
C475 C474 1.362 . S
H476 C482 0.930 . S
H477 C485 0.930 . S
H478 C486 0.930 . S
H479 C487 0.930 . S
H480 C490 0.930 . S
H481 C491 0.930 . S
C482 H476 0.930 . S
C482 C483 1.355 . S
C482 C484 1.415 . S
C483 C482 1.355 . S
C483 C485 1.419 . S
C484 C482 1.415 . S
C484 C489 1.425 . S
C484 C491 1.409 . S
C485 H477 0.930 . S
C485 C483 1.419 . S
C485 C486 1.362 . S
C486 H478 0.930 . S
C486 C485 1.362 . S
C486 C489 1.409 . S
C487 H479 0.930 . S
C487 C488 1.355 . S
C487 C489 1.415 . S
C488 C487 1.355 . S
C488 C490 1.419 . S
C489 C484 1.425 . S
C489 C486 1.409 . S
C489 C487 1.415 . S
C490 H480 0.930 . S
C490 C488 1.419 . S
C490 C491 1.362 . S
C491 H481 0.930 . S
C491 C484 1.409 . S
C491 C490 1.362 . S
H492 C498 0.930 . S
H493 C501 0.930 . S
H494 C502 0.930 . S
H495 C503 0.930 . S
H496 C506 0.930 . S
H497 C507 0.930 . S
C498 H492 0.930 . S
C498 C499 1.355 . S
C498 C500 1.415 . S
C499 C498 1.355 . S
C499 C501 1.419 . S
C500 C498 1.415 . S
C500 C505 1.425 . S
C500 C507 1.409 . S
C501 H493 0.930 . S
C501 C499 1.419 . S
C501 C502 1.362 . S
C502 H494 0.930 . S
C502 C501 1.362 . S
C502 C505 1.409 . S
C503 H495 0.930 . S
C503 C504 1.355 . S
C503 C505 1.415 . S
C504 C503 1.355 . S
C504 C506 1.419 . S
C505 C500 1.425 . S
C505 C502 1.409 . S
C505 C503 1.415 . S
C506 H496 0.930 . S
C506 C504 1.419 . S
C506 C507 1.362 . S
C507 H497 0.930 . S
C507 C500 1.409 . S
C507 C506 1.362 . S
H508 C514 0.930 . S
H509 C517 0.930 . S
H510 C518 0.930 . S
H511 C519 0.930 . S
H512 C522 0.930 . S
H513 C523 0.930 . S
C514 H508 0.930 . S
C514 C515 1.355 . S
C514 C516 1.415 . S
C515 C514 1.355 . S
C515 C517 1.419 . S
C516 C514 1.415 . S
C516 C521 1.425 . S
C516 C523 1.409 . S
C517 H509 0.930 . S
C517 C515 1.419 . S
C517 C518 1.362 . S
C518 H510 0.930 . S
C518 C517 1.362 . S
C518 C521 1.409 . S
C519 H511 0.930 . S
C519 C520 1.355 . S
C519 C521 1.415 . S
C520 C519 1.355 . S
C520 C522 1.419 . S
C521 C516 1.425 . S
C521 C518 1.409 . S
C521 C519 1.415 . S
C522 H512 0.930 . S
C522 C520 1.419 . S
C522 C523 1.362 . S
C523 H513 0.930 . S
C523 C516 1.409 . S
C523 C522 1.362 . S
H524 C530 0.930 . S
H525 C533 0.930 . S
H526 C534 0.930 . S
H527 C535 0.930 . S
H528 C538 0.930 . S
H529 C539 0.930 . S
C530 H524 0.930 . S
C530 C531 1.355 . S
C530 C532 1.415 . S
C531 C530 1.355 . S
C531 C533 1.419 . S
C532 C530 1.415 . S
C532 C537 1.425 . S
C532 C539 1.409 . S
C533 H525 0.930 . S
C533 C531 1.419 . S
C533 C534 1.362 . S
C534 H526 0.930 . S
C534 C533 1.362 . S
C534 C537 1.409 . S
C535 H527 0.930 . S
C535 C536 1.355 . S
C535 C537 1.415 . S
C536 C535 1.355 . S
C536 C538 1.419 . S
C537 C532 1.425 . S
C537 C534 1.409 . S
C537 C535 1.415 . S
C538 H528 0.930 . S
C538 C536 1.419 . S
C538 C539 1.362 . S
C539 H529 0.930 . S
C539 C532 1.409 . S
C539 C538 1.362 . S
H540 C546 0.930 . S
H541 C549 0.930 . S
H542 C550 0.930 . S
H543 C551 0.930 . S
H544 C554 0.930 . S
H545 C555 0.930 . S
C546 H540 0.930 . S
C546 C547 1.355 . S
C546 C548 1.415 . S
C547 C546 1.355 . S
C547 C549 1.419 . S
C548 C546 1.415 . S
C548 C553 1.425 . S
C548 C555 1.409 . S
C549 H541 0.930 . S
C549 C547 1.419 . S
C549 C550 1.362 . S
C550 H542 0.930 . S
C550 C549 1.362 . S
C550 C553 1.409 . S
C551 H543 0.930 . S
C551 C552 1.355 . S
C551 C553 1.415 . S
C552 C551 1.355 . S
C552 C554 1.419 . S
C553 C548 1.425 . S
C553 C550 1.409 . S
C553 C551 1.415 . S
C554 H544 0.930 . S
C554 C552 1.419 . S
C554 C555 1.362 . S
C555 H545 0.930 . S
C555 C548 1.409 . S
C555 C554 1.362 . S
H556 C562 0.930 . S
H557 C565 0.930 . S
H558 C566 0.930 . S
H559 C567 0.930 . S
H560 C570 0.930 1_554 S
H561 C571 0.930 . S
C562 H556 0.930 . S
C562 C563 1.355 . S
C562 C564 1.415 . S
C563 C562 1.355 . S
C563 C565 1.419 . S
C564 C562 1.415 . S
C564 C569 1.425 . S
C564 C571 1.409 . S
C565 H557 0.930 . S
C565 C563 1.419 . S
C565 C566 1.362 . S
C566 H558 0.930 . S
C566 C565 1.362 . S
C566 C569 1.409 . S
C567 H559 0.930 . S
C567 C568 1.355 . S
C567 C569 1.415 . S
C568 C567 1.355 . S
C568 C570 1.419 . S
C569 C564 1.425 . S
C569 C566 1.409 . S
C569 C567 1.415 . S
C570 H560 0.930 1_556 S
C570 C568 1.419 . S
C570 C571 1.362 . S
C571 H561 0.930 . S
C571 C564 1.409 . S
C571 C570 1.362 . S
C200 C116 1.621 . S
C195 C8 1.627 . S
C216 C119 1.569 . S
C211 C22 1.533 . S
C232 C117 1.564 . S
C227 C30 1.589 . S
C248 C118 1.403 . S
C243 C47 1.408 . S
C264 C133 1.698 . S
C259 C9 1.708 . S
C280 C147 1.616 . S
C275 C17 1.596 . S
C291 C34 1.520 . S
C296 C173 1.494 . S
C312 C187 1.598 . S
C307 C48 1.602 . S
C328 C132 1.703 . S
C323 C21 1.715 . S
C339 C35 1.651 . S
C344 C146 1.646 . S
C360 C172 1.363 . S
C355 C43 1.293 . S
C376 C186 1.573 . S
C371 C4 1.552 . S
C387 C56 1.366 . S
C392 C131 1.446 . S
C408 C104 1.559 . S
C403 C73 1.566 . S
C419 C87 1.587 . S
C424 C130 1.602 . S
C435 C100 1.715 . S
C440 C105 1.680 . S
C456 C160 1.626 . S
C451 C60 1.633 . S
C472 C174 1.491 . S
C467 C69 1.474 . S
C488 C144 1.772 . S
C483 C86 1.793 . S
C499 C95 1.457 . S
C504 C158 1.489 . S
C520 C161 1.634 . S
C515 C74 1.629 . S
C536 C175 1.481 . S
C531 C82 1.389 . S
C552 C145 1.797 . S
C547 C99 1.826 . S
C563 C61 1.544 . S
C568 C159 1.555 1_556 S
