# Generated by pormake.
# Topology anh, (6,3)-cn, num edge types: 1
# Building blocks:
#     Node 0, Type 0, BuildingBlock: CUWYAW_clean_sbu_0, # of connection points: 6
#     Node 1, Type 0, BuildingBlock: CUWYAW_clean_sbu_0, # of connection points: 6
#     Node 2, Type 0, BuildingBlock: CUWYAW_clean_sbu_0, # of connection points: 6
#     Node 3, Type 1, BuildingBlock: BELTOD_clean_linker_0, # of connection points: 3
#     Node 4, Type 1, BuildingBlock: BELTOD_clean_linker_0, # of connection points: 3
#     Node 5, Type 1, BuildingBlock: BELTOD_clean_linker_0, # of connection points: 3
#     Node 6, Type 1, BuildingBlock: BELTOD_clean_linker_0, # of connection points: 3
#     Node 7, Type 1, BuildingBlock: BELTOD_clean_linker_0, # of connection points: 3
#     Node 8, Type 1, BuildingBlock: BELTOD_clean_linker_0, # of connection points: 3
#     Edge 9, Type (0, 1), None
#     Edge 10, Type (0, 1), None
#     Edge 11, Type (0, 1), None
#     Edge 12, Type (0, 1), None
#     Edge 13, Type (0, 1), None
#     Edge 14, Type (0, 1), None
#     Edge 15, Type (0, 1), None
#     Edge 16, Type (0, 1), None
#     Edge 17, Type (0, 1), None
#     Edge 18, Type (0, 1), None
#     Edge 19, Type (0, 1), None
#     Edge 20, Type (0, 1), None
#     Edge 21, Type (0, 1), None
#     Edge 22, Type (0, 1), None
#     Edge 23, Type (0, 1), None
#     Edge 24, Type (0, 1), None
#     Edge 25, Type (0, 1), None
#     Edge 26, Type (0, 1), None
# Relax obj value: 0.545
# Max RMSD: 0.225
# Mean RMSD: 0.182
data_MOF--net-anh--node1-CUWYAW_clean_sbu_0--node2-BELTOD_clean_linker_0--edge1-none
_symmetry_space_group_name_H-M    P1
_symmetry_Int_Tables_number       1
_symmetry_cell_setting            triclinic
loop_
_symmetry_equiv_pos_as_xyz
'x, y, z'
_cell_length_a     19.648874
_cell_length_b     19.581419
_cell_length_c     31.530183
_cell_angle_alpha  90.070864
_cell_angle_beta   89.262618
_cell_angle_gamma 120.15203
loop_
_atom_site_label
_atom_site_type_symbol
_atom_site_fract_x
_atom_site_fract_y
_atom_site_fract_z
_atom_type_partial_charge
C0 C 1.02551 0.42864 0.10958 0.0
Eu1 Eu 1.07557 0.56794 0.14241 0.0
C2 C 1.01599 0.35614 0.12841 0.0
C3 C 1.00963 0.29485 0.10283 0.0
C4 C 0.99275 0.223 0.12127 0.0
C5 C 0.98068 0.2114 0.16547 0.0
C6 C 0.99293 0.27558 0.19095 0.0
C7 C 1.01106 0.34734 0.17259 0.0
C8 C 1.07363 0.5634 0.23237 0.0
C9 C 0.95202 0.63619 0.14093 0.0
C10 C 0.20418 0.82846 0.21827 0.0
Eu11 Eu 0.1455 0.70346 0.17134 0.0
C12 C 0.28775 0.8732 0.23039 0.0
C13 C 0.3448 0.92266 0.20022 0.0
C14 C 0.42172 0.93719 0.20254 0.0
C15 C 0.44289 0.90361 0.23539 0.0
C16 C 0.38911 0.86418 0.26875 0.0
C17 C 0.31215 0.84952 0.26643 0.0
C18 C 0.18499 0.72507 0.08968 0.0
C19 C 0.27241 0.63874 0.14396 0.0
O20 O 0.97901 0.45221 0.12506 0.0
O21 O 1.09775 0.48629 0.10564 0.0
O22 O 1.01231 0.52897 0.20873 0.0
O23 O 0.13137 0.60121 0.20773 0.0
O24 O 0.96485 0.58052 0.12501 0.0
O25 O 1.01423 0.69003 0.16351 0.0
O26 O 0.16387 0.75702 0.23402 0.0
O27 O 0.19084 0.82988 0.17796 0.0
O28 O 0.23351 0.75546 0.12057 0.0
O29 O 0.11436 0.67814 0.10269 0.0
O30 O 0.26536 0.69416 0.16619 0.0
O31 O 0.20329 0.58338 0.12854 0.0
H32 H 1.01513 0.30162 0.06865 0.0
H33 H 0.98567 0.17557 0.10074 0.0
H34 H 0.9833 0.26937 0.22495 0.0
H35 H 1.01745 0.39482 0.19288 0.0
H36 H 0.32837 0.94327 0.17243 0.0
H37 H 0.4625 0.96905 0.17677 0.0
H38 H 0.40514 0.84039 0.29534 0.0
H39 H 0.27002 0.81273 0.29067 0.0
C40 C 0.49224 0.13408 0.43671 0.0
Eu41 Eu 0.55811 1.06359 0.47402 0.0
C42 C 0.52681 0.21924 0.42834 0.0
C43 C 0.48928 0.25871 0.44427 0.0
C44 C 0.5332 0.33947 0.45295 0.0
C45 C 0.61611 0.38094 0.44784 0.0
C46 C 0.64938 0.34403 0.42364 0.0
C47 C 0.60523 0.26389 0.4142 0.0
C48 C 0.56326 1.06764 0.56336 0.0
C49 C 0.75025 0.18563 0.4752 0.0
C50 C 0.70181 0.95362 0.55359 0.0
Eu51 Eu 0.61847 0.98805 0.50412 0.0
C52 C 0.77984 0.96133 0.55022 0.0
C53 C 0.82684 0.97973 0.58606 0.0
C54 C 0.88964 0.96536 0.58622 0.0
C55 C 0.90244 0.92725 0.55145 0.0
C56 C 0.86544 0.92547 0.51294 0.0
C57 C 0.80421 0.94179 0.51248 0.0
C58 C 0.62655 0.96947 0.4211 0.0
C59 C 0.42935 0.86492 0.47706 0.0
O60 O 0.52336 0.09844 0.41603 0.0
O61 O 0.48187 0.11488 0.47683 0.0
O62 O 0.59636 0.12915 0.53862 0.0
O63 O 0.53443 1.00803 0.53974 0.0
O64 O 0.68225 0.18037 0.46519 0.0
O65 O 0.74018 0.11648 0.49093 0.0
O66 O 0.64902 0.90328 0.5278 0.0
O67 O 0.69961 1.01882 0.55709 0.0
O68 O 0.60141 0.91316 0.44878 0.0
O69 O 0.64124 1.0347 0.43796 0.0
O70 O 0.489 0.87094 0.50053 0.0
O71 O 0.44547 0.93469 0.46043 0.0
H72 H 0.42783 0.22591 0.45389 0.0
H73 H 0.50225 0.36652 0.4671 0.0
H74 H 0.71102 0.37342 0.41526 0.0
H75 H 0.63515 0.23566 0.39991 0.0
H76 H 0.81149 0.99939 0.61489 0.0
H77 H 0.92176 0.97642 0.61535 0.0
H78 H 0.87594 0.90268 0.48396 0.0
H79 H 0.77133 0.9318 0.48355 0.0
C80 C 0.82263 0.69349 0.81143 0.0
Eu81 Eu 0.67396 0.5979 0.82184 0.0
C82 C 0.90665 0.74722 0.80554 0.0
C83 C 0.93746 0.82912 0.80686 0.0
C84 C 1.01863 0.87965 0.80994 0.0
C85 C 1.06902 0.84829 0.81079 0.0
C86 C 1.03795 0.76679 0.80481 0.0
C87 C 0.95707 0.71646 0.8027 0.0
C88 C 0.60672 0.56758 0.90177 0.0
C89 C 0.60152 0.40136 0.80651 0.0
C90 C 0.37219 0.43365 0.816 0.0
Eu91 Eu 0.52396 0.52507 0.80849 0.0
C92 C 0.31327 0.45043 0.8349 0.0
C93 C 0.27546 0.47883 0.80873 0.0
C94 C 0.25166 0.52959 0.82534 0.0
C95 C 0.26478 0.55103 0.86818 0.0
C96 C 0.28764 0.51015 0.89564 0.0
C97 C 0.31129 0.45937 0.87908 0.0
C98 C 0.60814 0.55571 0.73481 0.0
C99 C 0.59314 0.71867 0.80337 0.0
O100 O 0.77062 0.69531 0.7869 0.0
O101 O 0.79458 0.64053 0.84175 0.0
O102 O 0.66331 0.55641 0.88937 0.0
O103 O 0.58326 0.59129 0.87001 0.0
O104 O 0.66759 0.47225 0.81036 0.0
O105 O 0.53588 0.40703 0.8067 0.0
O106 O 0.42238 0.43232 0.8424 0.0
O107 O 0.40706 0.47376 0.78153 0.0
O108 O 0.55415 0.57462 0.74016 0.0
O109 O 0.61526 0.52532 0.76782 0.0
O110 O 0.52657 0.6485 0.8046 0.0
O111 O 0.65819 0.7126 0.80857 0.0
H112 H 0.89864 0.8534 0.80879 0.0
H113 H 1.04146 0.94215 0.81493 0.0
H114 H 1.07538 0.74091 0.80614 0.0
H115 H 0.93372 0.65323 0.80133 0.0
H116 H 0.27398 0.47065 0.77468 0.0
H117 H 0.23276 0.55957 0.80371 0.0
H118 H 0.29585 0.52437 0.92909 0.0
H119 H 0.33726 0.43565 0.90035 0.0
P120 P 0.75115 0.91781 0.25643 0.0
H121 H 0.59217 0.78367 0.25418 0.0
H122 H 0.46655 0.78035 0.25069 0.0
H123 H 0.58827 1.02685 0.21446 0.0
H124 H 0.71331 1.02994 0.2182 0.0
H125 H 0.90544 1.04692 0.28281 0.0
H126 H 1.00157 0.16639 0.24499 0.0
H127 H 0.87092 1.07267 0.12926 0.0
H128 H 0.77962 0.95241 0.16668 0.0
H129 H 0.69035 0.82241 0.33196 0.0
H130 H 0.77418 1.06434 0.29575 0.0
O131 O 0.75223 0.83321 0.25446 0.0
H132 H 0.62939 0.8395 0.39497 0.0
H133 H 0.71413 0.08307 0.3604 0.0
C134 C 0.66193 0.90628 0.23528 0.0
C135 C 0.59155 0.83602 0.24372 0.0
C136 C 0.52009 0.83483 0.24276 0.0
C137 C 0.5181 0.90393 0.2332 0.0
C138 C 0.58815 0.9728 0.22188 0.0
C139 C 0.65961 0.9741 0.22325 0.0
C140 C 0.83382 0.9933 0.22773 0.0
C141 C 0.89929 1.05157 0.24902 0.0
C142 C 0.95385 0.11989 0.22734 0.0
C143 C 0.94223 0.13091 0.18442 0.0
C144 C 0.88202 1.0672 0.16226 0.0
C145 C 0.82886 0.9984 0.18376 0.0
C146 C 0.73919 0.94258 0.30979 0.0
C147 C 0.69868 0.88041 0.33853 0.0
C148 C 0.66217 0.89006 0.37421 0.0
C149 C 0.66577 0.96255 0.38235 0.0
C150 C 0.70966 1.02641 0.35469 0.0
C151 C 0.74565 1.01623 0.31839 0.0
P152 P 0.82602 0.6071 0.58373 0.0
H153 H 0.8617 0.56885 0.49929 0.0
H154 H 0.77967 0.48676 0.44269 0.0
H155 H 0.57269 0.43927 0.51728 0.0
H156 H 0.65477 0.52682 0.56997 0.0
H157 H 0.8993 0.7422 0.64016 0.0
H158 H 0.93608 0.87733 0.62805 0.0
H159 H 0.93867 0.84101 0.49253 0.0
H160 H 0.8948 0.70356 0.50556 0.0
H161 H 0.78101 0.50573 0.65889 0.0
H162 H 0.72861 0.67727 0.60651 0.0
O163 O 0.88457 0.57087 0.59495 0.0
H164 H 0.69199 0.48386 0.71838 0.0
H165 H 0.63766 0.65464 0.66633 0.0
C166 C 0.7651 0.55392 0.53935 0.0
C167 C 0.79846 0.54235 0.50253 0.0
C168 C 0.75043 0.49357 0.47019 0.0
C169 C 0.6674 0.4516 0.47489 0.0
C170 C 0.63516 0.46851 0.51095 0.0
C171 C 0.68319 0.51915 0.54236 0.0
C172 C 0.88614 0.71118 0.57374 0.0
C173 C 0.90766 0.76352 0.60775 0.0
C174 C 0.92946 0.84207 0.60042 0.0
C175 C 0.9296 0.86879 0.55876 0.0
C176 C 0.92933 0.82092 0.5251 0.0
C177 C 0.90483 0.74153 0.53245 0.0
C178 C 0.76267 0.59412 0.62877 0.0
C179 C 0.75067 0.53903 0.66031 0.0
C180 C 0.69922 0.5263 0.69417 0.0
C181 C 0.65762 0.56745 0.69683 0.0
C182 C 0.6685 0.62182 0.66485 0.0
C183 C 0.72107 0.63533 0.63109 0.0
P184 P 0.31357 0.87057 0.9173 0.0
H185 H 0.41412 0.80183 0.92255 0.0
H186 H 0.3915 0.67033 0.90583 0.0
H187 H 0.16152 0.6043 0.85794 0.0
H188 H 0.18407 0.73585 0.87515 0.0
H189 H 0.20693 0.9323 0.93167 0.0
H190 H 1.10423 0.92383 0.88582 0.0
H191 H 0.20807 0.86782 0.77956 0.0
H192 H 0.3122 0.87856 0.82547 0.0
H193 H 0.38313 0.89771 0.99978 0.0
H194 H 0.14976 0.77075 0.9481 0.0
O195 O 0.40856 0.93967 0.91939 0.0
H196 H 0.33297 0.83267 0.06712 0.0
H197 H 1.09733 0.70466 0.01718 0.0
C198 C 0.30229 0.77945 0.89842 0.0
C199 C 0.35941 0.75951 0.90788 0.0
C200 C 0.34561 0.68396 0.89921 0.0
C201 C 0.27411 0.62721 0.88127 0.0
C202 C 0.21677 0.64714 0.87195 0.0
C203 C 0.23037 0.72258 0.88106 0.0
C204 C 0.26403 0.90199 0.88213 0.0
C205 C 0.20981 0.92209 0.89811 0.0
C206 C 0.15173 0.91823 0.87168 0.0
C207 C 0.14748 0.89312 0.82952 0.0
C208 C 0.21007 0.88672 0.81206 0.0
C209 C 0.26896 0.89209 0.83837 0.0
C210 C 0.27014 0.84124 0.9693 0.0
C211 C 0.32038 0.85773 0.00336 0.0
C212 C 0.29126 0.81911 0.04186 0.0
C213 C 0.2108 0.7628 0.04749 0.0
C214 C 0.15946 0.74737 0.01369 0.0
C215 C 0.18924 0.78619 0.9746 0.0
P216 P 1.09882 0.51945 0.42941 0.0
H217 H 0.24599 0.57661 0.48923 0.0
H218 H 0.36845 0.70104 0.50458 0.0
H219 H 0.28933 0.82816 0.42864 0.0
H220 H 0.16684 0.70367 0.41339 0.0
H221 H 1.03955 0.34402 0.45841 0.0
H222 H 0.91451 0.22198 0.47335 0.0
H223 H 0.79102 0.34849 0.45915 0.0
H224 H 0.9166 0.47152 0.44402 0.0
H225 H 0.21326 0.61162 0.36012 0.0
H226 H 0.96142 0.46193 0.3681 0.0
O227 O 0.15028 0.4731 0.42511 0.0
H228 H 0.20438 0.62823 0.28376 0.0
H229 H 0.95277 0.47756 0.29147 0.0
C230 C 0.18853 0.62355 0.45042 0.0
C231 C 0.25194 0.63048 0.47622 0.0
C232 C 0.32559 0.70473 0.48498 0.0
C233 C 0.3456 0.7815 0.46866 0.0
C234 C 0.28193 0.77474 0.44314 0.0
C235 C 0.20824 0.70048 0.43442 0.0
C236 C 0.99563 0.42508 0.44977 0.0
C237 C 0.98693 0.34855 0.4588 0.0
C238 C 0.912 0.27512 0.4675 0.0
C239 C 0.83562 0.26836 0.46765 0.0
C240 C 0.8441 0.34496 0.45925 0.0
C241 C 0.91926 0.41877 0.45085 0.0
C242 C 1.08812 0.53688 0.37178 0.0
C243 C 0.15555 0.58305 0.34603 0.0
C244 C 0.15051 0.59205 0.30167 0.0
C245 C 1.07776 0.55428 0.28046 0.0
C246 C 1.01008 0.50797 0.30602 0.0
C247 C 1.01514 0.49931 0.3506 0.0
P248 P 0.61575 1.07097 0.76036 0.0
H249 H 0.72616 0.23807 0.7993 0.0
H250 H 0.72357 0.36011 0.81304 0.0
H251 H 0.4797 0.24315 0.78059 0.0
H252 H 0.48293 0.1206 0.76536 0.0
H253 H 0.72767 1.00721 0.78601 0.0
H254 H 0.72138 0.88112 0.79955 0.0
H255 H 0.47058 0.76052 0.78821 0.0
H256 H 0.47684 0.88819 0.77401 0.0
H257 H 0.65264 0.19397 0.69504 0.0
H258 H 0.52985 0.93973 0.69588 0.0
O259 O 0.71385 0.11988 0.75723 0.0
H260 H 0.63401 0.19396 0.61837 0.0
H261 H 0.51142 0.93974 0.61883 0.0
C262 C 0.60416 0.16195 0.78184 0.0
C263 C 0.67033 0.23556 0.79556 0.0
C264 C 0.66913 0.30889 0.80344 0.0
C265 C 0.6014 0.3179 0.79882 0.0
C266 C 0.53457 0.24417 0.78561 0.0
C267 C 0.5361 0.17076 0.77707 0.0
C268 C 0.60303 0.96559 0.77885 0.0
C269 C 0.6697 0.95525 0.78667 0.0
C270 C 0.66622 0.87956 0.79457 0.0
C271 C 0.59544 0.80365 0.79562 0.0
C272 C 0.52804 0.81332 0.7883 0.0
C273 C 0.53158 0.88961 0.78018 0.0
C274 C 0.59186 1.06684 0.70277 0.0
C275 C 0.62038 0.13768 0.67918 0.0
C276 C 0.61002 0.13779 0.63475 0.0
C277 C 0.57083 1.06695 0.61157 0.0
C278 C 0.54155 0.99581 0.6351 0.0
C279 C 0.55202 0.99573 0.67972 0.0
P280 P 0.59674 0.60671 0.10076 0.0
H281 H 0.67194 0.50051 0.1075 0.0
H282 H 0.79868 0.51018 0.11928 0.0
H283 H 0.90142 0.75727 0.14433 0.0
H284 H 0.77295 0.74855 0.12971 0.0
H285 H 0.42182 0.52685 0.07794 0.0
H286 H 0.30377 0.53519 0.0935 0.0
H287 H 0.43921 0.73751 0.17116 0.0
H288 H 0.55902 0.72791 0.15621 0.0
H289 H 0.62154 0.50181 0.04243 0.0
H290 H 0.56752 0.68732 0.02531 0.0
O291 O 0.54644 0.51246 0.11645 0.0
H292 H 0.62402 0.4862 0.96619 0.0
H293 H 0.56746 0.66965 0.94727 0.0
C294 C 0.70414 0.62292 0.11688 0.0
C295 C 0.72009 0.55849 0.11507 0.0
C296 C 0.79626 0.56398 0.12235 0.0
C297 C 0.86747 0.63453 0.13363 0.0
C298 C 0.85246 0.69994 0.1363 0.0
C299 C 0.77563 0.69478 0.12773 0.0
C300 C 0.50649 0.62608 0.11465 0.0
C301 C 0.42884 0.57417 0.09851 0.0
C302 C 0.35804 0.579 0.10789 0.0
C303 C 0.35499 0.63702 0.13459 0.0
C304 C 0.43295 0.69037 0.15073 0.0
C305 C 0.5046 0.68499 0.1416 0.0
C306 C 0.59624 0.59723 0.04128 0.0
C307 C 0.61047 0.53999 0.02263 0.0
C308 C 0.61081 0.53017 0.97821 0.0
C309 C 0.59533 0.5758 0.94944 0.0
C310 C 0.57875 0.63219 0.96773 0.0
C311 C 0.57961 0.64294 0.01281 0.0
loop_
_geom_bond_atom_site_label_1
_geom_bond_atom_site_label_2
_geom_bond_distance
_geom_bond_site_symmetry_2
_ccdc_geom_bond_type
C0 Eu1 2.835 . S
C0 C2 1.500 . S
C0 O20 1.257 . S
C0 O21 1.260 . S
Eu1 C0 2.835 . S
Eu1 O20 2.473 . S
Eu1 O21 2.480 . S
Eu1 O22 2.430 . S
Eu1 O23 2.670 1_655 S
Eu1 O24 2.394 . S
Eu1 O29 2.355 1_655 S
Eu1 O31 2.374 1_655 S
C2 C0 1.500 . S
C2 C3 1.377 . S
C2 C7 1.377 . S
C3 C2 1.377 . S
C3 C4 1.395 . S
C3 H32 0.931 . S
C4 C3 1.395 . S
C4 C5 1.383 . S
C4 H33 0.931 . S
C5 C4 1.383 . S
C5 C6 1.394 . S
C6 C5 1.394 . S
C6 C7 1.378 . S
C6 H34 0.931 . S
C7 C2 1.377 . S
C7 C6 1.378 . S
C7 H35 0.931 . S
C8 O22 1.259 1_455 S
C8 O23 1.270 . S
C9 O24 1.251 . S
C9 O25 1.251 . S
C10 Eu11 2.835 . S
C10 C12 1.500 . S
C10 O26 1.257 . S
C10 O27 1.260 . S
Eu11 C10 2.835 . S
Eu11 O23 2.355 . S
Eu11 O25 2.374 1_455 S
Eu11 O26 2.473 . S
Eu11 O27 2.480 . S
Eu11 O28 2.430 . S
Eu11 O29 2.670 . S
Eu11 O30 2.394 . S
C12 C10 1.500 . S
C12 C13 1.377 . S
C12 C17 1.377 . S
C13 C12 1.377 . S
C13 C14 1.395 . S
C13 H36 0.931 . S
C14 C13 1.395 . S
C14 C15 1.383 . S
C14 H37 0.931 . S
C15 C14 1.383 . S
C15 C16 1.394 . S
C16 C15 1.394 . S
C16 C17 1.378 . S
C16 H38 0.931 . S
C17 C12 1.377 . S
C17 C16 1.378 . S
C17 H39 0.931 . S
C18 O28 1.259 . S
C18 O29 1.270 . S
C19 O30 1.251 . S
C19 O31 1.251 . S
O20 C0 1.257 . S
O20 Eu1 2.473 . S
O21 C0 1.260 . S
O21 Eu1 2.480 . S
O22 Eu1 2.430 . S
O22 C8 1.259 1_655 S
O23 Eu1 2.670 1_455 S
O23 C8 1.270 . S
O23 Eu11 2.355 . S
O24 Eu1 2.394 . S
O24 C9 1.251 . S
O25 C9 1.251 . S
O25 Eu11 2.374 1_655 S
O26 C10 1.257 . S
O26 Eu11 2.473 . S
O27 C10 1.260 . S
O27 Eu11 2.480 . S
O28 Eu11 2.430 . S
O28 C18 1.259 . S
O29 Eu1 2.355 1_455 S
O29 Eu11 2.670 . S
O29 C18 1.270 . S
O30 Eu11 2.394 . S
O30 C19 1.251 . S
O31 Eu1 2.374 1_455 S
O31 C19 1.251 . S
H32 C3 0.931 . S
H33 C4 0.931 . S
H34 C6 0.931 . S
H35 C7 0.931 . S
H36 C13 0.931 . S
H37 C14 0.931 . S
H38 C16 0.931 . S
H39 C17 0.931 . S
C40 Eu41 2.835 . S
C40 C42 1.500 . S
C40 O60 1.257 . S
C40 O61 1.260 . S
Eu41 C40 2.835 . S
Eu41 O60 2.473 . S
Eu41 O61 2.480 . S
Eu41 O62 2.430 . S
Eu41 O63 2.670 . S
Eu41 O64 2.394 . S
Eu41 O69 2.355 . S
Eu41 O71 2.374 1_545 S
C42 C40 1.500 . S
C42 C43 1.377 . S
C42 C47 1.377 . S
C43 C42 1.377 . S
C43 C44 1.395 . S
C43 H72 0.931 . S
C44 C43 1.395 . S
C44 C45 1.383 . S
C44 H73 0.931 . S
C45 C44 1.383 . S
C45 C46 1.394 . S
C46 C45 1.394 . S
C46 C47 1.378 . S
C46 H74 0.931 . S
C47 C42 1.377 . S
C47 C46 1.378 . S
C47 H75 0.931 . S
C48 O62 1.259 . S
C48 O63 1.270 . S
C49 O64 1.251 . S
C49 O65 1.251 . S
C50 Eu51 2.835 . S
C50 C52 1.500 . S
C50 O66 1.257 . S
C50 O67 1.260 . S
Eu51 C50 2.835 . S
Eu51 O63 2.355 1_565 S
Eu51 O65 2.374 1_565 S
Eu51 O66 2.473 . S
Eu51 O67 2.480 . S
Eu51 O68 2.430 . S
Eu51 O69 2.670 1_565 S
Eu51 O70 2.394 . S
C52 C50 1.500 . S
C52 C53 1.377 . S
C52 C57 1.377 . S
C53 C52 1.377 . S
C53 C54 1.395 . S
C53 H76 0.931 . S
C54 C53 1.395 . S
C54 C55 1.383 . S
C54 H77 0.931 . S
C55 C54 1.383 . S
C55 C56 1.394 . S
C56 C55 1.394 . S
C56 C57 1.378 . S
C56 H78 0.931 . S
C57 C52 1.377 . S
C57 C56 1.378 . S
C57 H79 0.931 . S
C58 O68 1.259 1_545 S
C58 O69 1.270 . S
C59 O70 1.251 . S
C59 O71 1.251 . S
O60 C40 1.257 . S
O60 Eu41 2.473 . S
O61 C40 1.260 . S
O61 Eu41 2.480 . S
O62 Eu41 2.430 . S
O62 C48 1.259 . S
O63 Eu41 2.670 . S
O63 C48 1.270 . S
O63 Eu51 2.355 1_545 S
O64 Eu41 2.394 . S
O64 C49 1.251 . S
O65 C49 1.251 . S
O65 Eu51 2.374 1_545 S
O66 C50 1.257 . S
O66 Eu51 2.473 . S
O67 C50 1.260 . S
O67 Eu51 2.480 . S
O68 Eu51 2.430 . S
O68 C58 1.259 1_565 S
O69 Eu41 2.355 . S
O69 Eu51 2.670 1_545 S
O69 C58 1.270 . S
O70 Eu51 2.394 . S
O70 C59 1.251 . S
O71 Eu41 2.374 1_565 S
O71 C59 1.251 . S
H72 C43 0.931 . S
H73 C44 0.931 . S
H74 C46 0.931 . S
H75 C47 0.931 . S
H76 C53 0.931 . S
H77 C54 0.931 . S
H78 C56 0.931 . S
H79 C57 0.931 . S
C80 Eu81 2.835 . S
C80 C82 1.500 . S
C80 O100 1.257 . S
C80 O101 1.260 . S
Eu81 C80 2.835 . S
Eu81 O100 2.473 . S
Eu81 O101 2.480 . S
Eu81 O102 2.430 . S
Eu81 O103 2.670 . S
Eu81 O104 2.394 . S
Eu81 O109 2.355 . S
Eu81 O111 2.374 . S
C82 C80 1.500 . S
C82 C83 1.377 . S
C82 C87 1.377 . S
C83 C82 1.377 . S
C83 C84 1.395 . S
C83 H112 0.931 . S
C84 C83 1.395 . S
C84 C85 1.383 . S
C84 H113 0.931 . S
C85 C84 1.383 . S
C85 C86 1.394 . S
C86 C85 1.394 . S
C86 C87 1.378 . S
C86 H114 0.931 . S
C87 C82 1.377 . S
C87 C86 1.378 . S
C87 H115 0.931 . S
C88 O102 1.259 . S
C88 O103 1.270 . S
C89 O104 1.251 . S
C89 O105 1.251 . S
C90 Eu91 2.835 . S
C90 C92 1.500 . S
C90 O106 1.257 . S
C90 O107 1.260 . S
Eu91 C90 2.835 . S
Eu91 O103 2.355 . S
Eu91 O105 2.374 . S
Eu91 O106 2.473 . S
Eu91 O107 2.480 . S
Eu91 O108 2.430 . S
Eu91 O109 2.670 . S
Eu91 O110 2.394 . S
C92 C90 1.500 . S
C92 C93 1.377 . S
C92 C97 1.377 . S
C93 C92 1.377 . S
C93 C94 1.395 . S
C93 H116 0.931 . S
C94 C93 1.395 . S
C94 C95 1.383 . S
C94 H117 0.931 . S
C95 C94 1.383 . S
C95 C96 1.394 . S
C96 C95 1.394 . S
C96 C97 1.378 . S
C96 H118 0.931 . S
C97 C92 1.377 . S
C97 C96 1.378 . S
C97 H119 0.931 . S
C98 O108 1.259 . S
C98 O109 1.270 . S
C99 O110 1.251 . S
C99 O111 1.251 . S
O100 C80 1.257 . S
O100 Eu81 2.473 . S
O101 C80 1.260 . S
O101 Eu81 2.480 . S
O102 Eu81 2.430 . S
O102 C88 1.259 . S
O103 Eu81 2.670 . S
O103 C88 1.270 . S
O103 Eu91 2.355 . S
O104 Eu81 2.394 . S
O104 C89 1.251 . S
O105 C89 1.251 . S
O105 Eu91 2.374 . S
O106 C90 1.257 . S
O106 Eu91 2.473 . S
O107 C90 1.260 . S
O107 Eu91 2.480 . S
O108 Eu91 2.430 . S
O108 C98 1.259 . S
O109 Eu81 2.355 . S
O109 Eu91 2.670 . S
O109 C98 1.270 . S
O110 Eu91 2.394 . S
O110 C99 1.251 . S
O111 Eu81 2.374 . S
O111 C99 1.251 . S
H112 C83 0.931 . S
H113 C84 0.931 . S
H114 C86 0.931 . S
H115 C87 0.931 . S
H116 C93 0.931 . S
H117 C94 0.931 . S
H118 C96 0.931 . S
H119 C97 0.931 . S
P120 O131 1.490 1_545 S
P120 C134 1.812 1_545 S
P120 C140 1.803 . S
P120 C146 1.819 . S
H121 C135 0.941 . S
H122 C136 0.939 . S
H123 C138 0.940 . S
H124 C139 0.940 1_545 S
H125 C141 0.939 . S
H126 C142 0.942 . S
H127 C144 0.940 . S
H128 C145 0.939 . S
H129 C147 0.941 . S
H130 C151 0.939 . S
O131 P120 1.490 1_565 S
H132 C148 0.939 . S
H133 C150 0.940 . S
C134 P120 1.812 1_565 S
C134 C135 1.389 . S
C134 C139 1.391 . S
C135 H121 0.941 . S
C135 C134 1.389 . S
C135 C136 1.397 . S
C136 H122 0.939 . S
C136 C135 1.397 . S
C136 C137 1.378 . S
C137 C136 1.378 . S
C137 C138 1.378 . S
C138 H123 0.940 . S
C138 C137 1.378 . S
C138 C139 1.396 . S
C139 H124 0.940 1_565 S
C139 C134 1.391 . S
C139 C138 1.396 . S
C140 P120 1.803 . S
C140 C141 1.378 . S
C140 C145 1.400 . S
C141 H125 0.939 . S
C141 C140 1.378 . S
C141 C142 1.361 . S
C142 H126 0.942 . S
C142 C141 1.361 . S
C142 C143 1.369 . S
C143 C142 1.369 . S
C143 C144 1.404 . S
C144 H127 0.940 . S
C144 C143 1.404 . S
C144 C145 1.389 . S
C145 H128 0.939 . S
C145 C140 1.400 . S
C145 C144 1.389 . S
C146 P120 1.819 . S
C146 C147 1.391 1_545 S
C146 C151 1.391 . S
C147 H129 0.941 . S
C147 C146 1.391 1_565 S
C147 C148 1.396 . S
C148 H132 0.939 . S
C148 C147 1.396 . S
C148 C149 1.397 1_565 S
C149 C148 1.397 1_545 S
C149 C150 1.385 . S
C150 H133 0.940 . S
C150 C149 1.385 . S
C150 C151 1.388 . S
C151 H130 0.939 . S
C151 C146 1.391 . S
C151 C150 1.388 . S
P152 O163 1.490 . S
P152 C166 1.812 . S
P152 C172 1.803 . S
P152 C178 1.819 . S
H153 C167 0.941 . S
H154 C168 0.939 . S
H155 C170 0.940 . S
H156 C171 0.940 . S
H157 C173 0.939 . S
H158 C174 0.942 . S
H159 C176 0.940 . S
H160 C177 0.939 . S
H161 C179 0.941 . S
H162 C183 0.939 . S
O163 P152 1.490 . S
H164 C180 0.939 . S
H165 C182 0.940 . S
C166 P152 1.812 . S
C166 C167 1.389 . S
C166 C171 1.391 . S
C167 H153 0.941 . S
C167 C166 1.389 . S
C167 C168 1.397 . S
C168 H154 0.939 . S
C168 C167 1.397 . S
C168 C169 1.378 . S
C169 C168 1.378 . S
C169 C170 1.378 . S
C170 H155 0.940 . S
C170 C169 1.378 . S
C170 C171 1.396 . S
C171 H156 0.940 . S
C171 C166 1.391 . S
C171 C170 1.396 . S
C172 P152 1.803 . S
C172 C173 1.378 . S
C172 C177 1.400 . S
C173 H157 0.939 . S
C173 C172 1.378 . S
C173 C174 1.361 . S
C174 H158 0.942 . S
C174 C173 1.361 . S
C174 C175 1.369 . S
C175 C174 1.369 . S
C175 C176 1.404 . S
C176 H159 0.940 . S
C176 C175 1.404 . S
C176 C177 1.389 . S
C177 H160 0.939 . S
C177 C172 1.400 . S
C177 C176 1.389 . S
C178 P152 1.819 . S
C178 C179 1.391 . S
C178 C183 1.391 . S
C179 H161 0.941 . S
C179 C178 1.391 . S
C179 C180 1.396 . S
C180 H164 0.939 . S
C180 C179 1.396 . S
C180 C181 1.397 . S
C181 C180 1.397 . S
C181 C182 1.385 . S
C182 H165 0.940 . S
C182 C181 1.385 . S
C182 C183 1.388 . S
C183 H162 0.939 . S
C183 C178 1.391 . S
C183 C182 1.388 . S
P184 O195 1.490 . S
P184 C198 1.812 . S
P184 C204 1.803 1_455 S
P184 C210 1.819 . S
H185 C199 0.941 . S
H186 C200 0.939 . S
H187 C202 0.940 . S
H188 C203 0.940 . S
H189 C205 0.939 . S
H190 C206 0.942 . S
H191 C208 0.940 . S
H192 C209 0.939 . S
H193 C211 0.941 . S
H194 C215 0.939 . S
O195 P184 1.490 . S
H196 C212 0.939 . S
H197 C214 0.940 . S
C198 P184 1.812 . S
C198 C199 1.389 . S
C198 C203 1.391 . S
C199 H185 0.941 . S
C199 C198 1.389 . S
C199 C200 1.397 . S
C200 H186 0.939 . S
C200 C199 1.397 . S
C200 C201 1.378 . S
C201 C200 1.378 . S
C201 C202 1.378 . S
C202 H187 0.940 . S
C202 C201 1.378 . S
C202 C203 1.396 . S
C203 H188 0.940 . S
C203 C198 1.391 . S
C203 C202 1.396 . S
C204 P184 1.803 1_655 S
C204 C205 1.378 . S
C204 C209 1.400 . S
C205 H189 0.939 . S
C205 C204 1.378 . S
C205 C206 1.361 . S
C206 H190 0.942 . S
C206 C205 1.361 . S
C206 C207 1.369 . S
C207 C206 1.369 . S
C207 C208 1.404 . S
C208 H191 0.940 . S
C208 C207 1.404 . S
C208 C209 1.389 . S
C209 H192 0.939 . S
C209 C204 1.400 . S
C209 C208 1.389 . S
C210 P184 1.819 . S
C210 C211 1.391 1_556 S
C210 C215 1.391 1_455 S
C211 H193 0.941 . S
C211 C210 1.391 1_554 S
C211 C212 1.396 . S
C212 H196 0.939 . S
C212 C211 1.396 . S
C212 C213 1.397 . S
C213 C212 1.397 . S
C213 C214 1.385 1_455 S
C214 H197 0.940 . S
C214 C213 1.385 1_655 S
C214 C215 1.390 1_554 S
C215 H194 0.939 . S
C215 C210 1.391 1_655 S
C215 C214 1.390 1_556 S
P216 O227 1.490 . S
P216 C230 1.812 . S
P216 C236 1.803 . S
P216 C242 1.819 . S
H217 C231 0.941 . S
H218 C232 0.939 . S
H219 C234 0.940 . S
H220 C235 0.940 . S
H221 C237 0.939 1_455 S
H222 C238 0.942 . S
H223 C240 0.940 . S
H224 C241 0.939 1_455 S
H225 C243 0.941 . S
H226 C247 0.939 1_655 S
O227 P216 1.490 . S
H228 C244 0.939 . S
H229 C246 0.940 . S
C230 P216 1.812 . S
C230 C231 1.389 . S
C230 C235 1.391 . S
C231 H217 0.941 . S
C231 C230 1.389 . S
C231 C232 1.397 . S
C232 H218 0.939 . S
C232 C231 1.397 . S
C232 C233 1.378 . S
C233 C232 1.378 . S
C233 C234 1.378 . S
C234 H219 0.940 . S
C234 C233 1.378 . S
C234 C235 1.396 . S
C235 H220 0.940 . S
C235 C230 1.391 . S
C235 C234 1.396 . S
C236 P216 1.803 . S
C236 C237 1.378 1_455 S
C236 C241 1.400 1_455 S
C237 H221 0.939 1_655 S
C237 C236 1.378 1_655 S
C237 C238 1.361 . S
C238 H222 0.942 . S
C238 C237 1.361 . S
C238 C239 1.369 . S
C239 C238 1.369 . S
C239 C240 1.404 . S
C240 H223 0.940 . S
C240 C239 1.404 . S
C240 C241 1.389 . S
C241 H224 0.939 1_655 S
C241 C236 1.400 1_655 S
C241 C240 1.389 . S
C242 P216 1.819 . S
C242 C243 1.391 . S
C242 C247 1.391 . S
C243 H225 0.941 . S
C243 C242 1.391 . S
C243 C244 1.396 . S
C244 H228 0.939 . S
C244 C243 1.396 . S
C244 C245 1.397 . S
C245 C244 1.397 . S
C245 C246 1.385 1_455 S
C246 H229 0.940 . S
C246 C245 1.385 1_655 S
C246 C247 1.388 1_655 S
C247 H226 0.939 1_455 S
C247 C242 1.391 . S
C247 C246 1.388 1_455 S
P248 O259 1.490 . S
P248 C262 1.812 . S
P248 C268 1.803 1_545 S
P248 C274 1.819 . S
H249 C263 0.941 . S
H250 C264 0.939 . S
H251 C266 0.940 . S
H252 C267 0.940 . S
H253 C269 0.939 . S
H254 C270 0.942 . S
H255 C272 0.940 . S
H256 C273 0.939 . S
H257 C275 0.941 . S
H258 C279 0.939 . S
O259 P248 1.490 . S
H260 C276 0.939 . S
H261 C278 0.940 . S
C262 P248 1.812 . S
C262 C263 1.389 . S
C262 C267 1.391 . S
C263 H249 0.941 . S
C263 C262 1.389 . S
C263 C264 1.397 . S
C264 H250 0.939 . S
C264 C263 1.397 . S
C264 C265 1.378 . S
C265 C264 1.378 . S
C265 C266 1.378 . S
C266 H251 0.940 . S
C266 C265 1.378 . S
C266 C267 1.396 . S
C267 H252 0.940 . S
C267 C262 1.391 . S
C267 C266 1.396 . S
C268 P248 1.803 1_565 S
C268 C269 1.378 . S
C268 C273 1.400 . S
C269 H253 0.939 . S
C269 C268 1.378 . S
C269 C270 1.361 . S
C270 H254 0.942 . S
C270 C269 1.361 . S
C270 C271 1.369 . S
C271 C270 1.369 . S
C271 C272 1.404 . S
C272 H255 0.940 . S
C272 C271 1.404 . S
C272 C273 1.389 . S
C273 H256 0.939 . S
C273 C268 1.400 . S
C273 C272 1.389 . S
C274 P248 1.819 . S
C274 C275 1.391 . S
C274 C279 1.391 1_545 S
C275 H257 0.941 . S
C275 C274 1.391 . S
C275 C276 1.396 . S
C276 H260 0.939 . S
C276 C275 1.396 . S
C276 C277 1.397 . S
C277 C276 1.397 . S
C277 C278 1.385 1_545 S
C278 H261 0.940 . S
C278 C277 1.385 1_565 S
C278 C279 1.388 . S
C279 H258 0.939 . S
C279 C274 1.391 1_565 S
C279 C278 1.388 . S
P280 O291 1.490 . S
P280 C294 1.812 . S
P280 C300 1.803 . S
P280 C306 1.819 . S
H281 C295 0.941 . S
H282 C296 0.939 . S
H283 C298 0.940 . S
H284 C299 0.940 . S
H285 C301 0.939 . S
H286 C302 0.942 . S
H287 C304 0.940 . S
H288 C305 0.939 . S
H289 C307 0.941 . S
H290 C311 0.939 . S
O291 P280 1.490 . S
H292 C308 0.939 . S
H293 C310 0.940 . S
C294 P280 1.812 . S
C294 C295 1.389 . S
C294 C299 1.391 . S
C295 H281 0.941 . S
C295 C294 1.389 . S
C295 C296 1.397 . S
C296 H282 0.939 . S
C296 C295 1.397 . S
C296 C297 1.378 . S
C297 C296 1.378 . S
C297 C298 1.378 . S
C298 H283 0.940 . S
C298 C297 1.378 . S
C298 C299 1.396 . S
C299 H284 0.940 . S
C299 C294 1.391 . S
C299 C298 1.396 . S
C300 P280 1.803 . S
C300 C301 1.378 . S
C300 C305 1.400 . S
C301 H285 0.939 . S
C301 C300 1.378 . S
C301 C302 1.361 . S
C302 H286 0.942 . S
C302 C301 1.361 . S
C302 C303 1.369 . S
C303 C302 1.369 . S
C303 C304 1.404 . S
C304 H287 0.940 . S
C304 C303 1.404 . S
C304 C305 1.389 . S
C305 H288 0.939 . S
C305 C300 1.400 . S
C305 C304 1.389 . S
C306 P280 1.819 . S
C306 C307 1.391 . S
C306 C311 1.391 . S
C307 H289 0.941 . S
C307 C306 1.391 . S
C307 C308 1.396 1_554 S
C308 H292 0.939 . S
C308 C307 1.396 1_556 S
C308 C309 1.397 . S
C309 C308 1.397 . S
C309 C310 1.385 . S
C310 H293 0.940 . S
C310 C309 1.385 . S
C310 C311 1.388 1_556 S
C311 H290 0.939 . S
C311 C306 1.391 . S
C311 C310 1.388 1_554 S
C19 C303 4.719 . S
C49 C239 4.812 . S
C99 C271 4.744 . S
C9 C297 4.837 . S
C233 C59 4.733 . S
C265 C89 4.809 . S
C55 C175 2.584 . S
C85 C207 2.501 . S
C15 C137 2.271 . S
C169 C45 2.701 . S
C201 C95 2.314 . S
C5 C143 2.516 . S
C213 C18 0.941 . S
C58 C149 0.837 . S
C98 C181 1.553 . S
C277 C48 2.023 . S
C309 C88 2.012 . S
C8 C245 2.017 . S
