# Generated by pormake.
# Topology ctn, (3,4)-cn, num edge types: 1
# Building blocks:
#     Node 0, Type 0, BuildingBlock: MIDCAF_clean_linker_0, # of connection points: 3
#     Node 1, Type 0, BuildingBlock: MIDCAF_clean_linker_0, # of connection points: 3
#     Node 2, Type 0, BuildingBlock: MIDCAF_clean_linker_0, # of connection points: 3
#     Node 3, Type 0, BuildingBlock: MIDCAF_clean_linker_0, # of connection points: 3
#     Node 4, Type 0, BuildingBlock: MIDCAF_clean_linker_0, # of connection points: 3
#     Node 5, Type 0, BuildingBlock: MIDCAF_clean_linker_0, # of connection points: 3
#     Node 6, Type 0, BuildingBlock: MIDCAF_clean_linker_0, # of connection points: 3
#     Node 7, Type 0, BuildingBlock: MIDCAF_clean_linker_0, # of connection points: 3
#     Node 8, Type 0, BuildingBlock: MIDCAF_clean_linker_0, # of connection points: 3
#     Node 9, Type 0, BuildingBlock: MIDCAF_clean_linker_0, # of connection points: 3
#     Node 10, Type 0, BuildingBlock: MIDCAF_clean_linker_0, # of connection points: 3
#     Node 11, Type 0, BuildingBlock: MIDCAF_clean_linker_0, # of connection points: 3
#     Node 12, Type 0, BuildingBlock: MIDCAF_clean_linker_0, # of connection points: 3
#     Node 13, Type 0, BuildingBlock: MIDCAF_clean_linker_0, # of connection points: 3
#     Node 14, Type 0, BuildingBlock: MIDCAF_clean_linker_0, # of connection points: 3
#     Node 15, Type 0, BuildingBlock: MIDCAF_clean_linker_0, # of connection points: 3
#     Node 16, Type 1, BuildingBlock: TATPOV_clean_sbu_0, # of connection points: 4
#     Node 17, Type 1, BuildingBlock: TATPOV_clean_sbu_0, # of connection points: 4
#     Node 18, Type 1, BuildingBlock: TATPOV_clean_sbu_0, # of connection points: 4
#     Node 19, Type 1, BuildingBlock: TATPOV_clean_sbu_0, # of connection points: 4
#     Node 20, Type 1, BuildingBlock: TATPOV_clean_sbu_0, # of connection points: 4
#     Node 21, Type 1, BuildingBlock: TATPOV_clean_sbu_0, # of connection points: 4
#     Node 22, Type 1, BuildingBlock: TATPOV_clean_sbu_0, # of connection points: 4
#     Node 23, Type 1, BuildingBlock: TATPOV_clean_sbu_0, # of connection points: 4
#     Node 24, Type 1, BuildingBlock: TATPOV_clean_sbu_0, # of connection points: 4
#     Node 25, Type 1, BuildingBlock: TATPOV_clean_sbu_0, # of connection points: 4
#     Node 26, Type 1, BuildingBlock: TATPOV_clean_sbu_0, # of connection points: 4
#     Node 27, Type 1, BuildingBlock: TATPOV_clean_sbu_0, # of connection points: 4
#     Edge 28, Type (0, 1), BuildingBlock: XIVTED_clean_linker_0, # of connection points: 2
#     Edge 29, Type (0, 1), BuildingBlock: XIVTED_clean_linker_0, # of connection points: 2
#     Edge 30, Type (0, 1), BuildingBlock: XIVTED_clean_linker_0, # of connection points: 2
#     Edge 31, Type (0, 1), BuildingBlock: XIVTED_clean_linker_0, # of connection points: 2
#     Edge 32, Type (0, 1), BuildingBlock: XIVTED_clean_linker_0, # of connection points: 2
#     Edge 33, Type (0, 1), BuildingBlock: XIVTED_clean_linker_0, # of connection points: 2
#     Edge 34, Type (0, 1), BuildingBlock: XIVTED_clean_linker_0, # of connection points: 2
#     Edge 35, Type (0, 1), BuildingBlock: XIVTED_clean_linker_0, # of connection points: 2
#     Edge 36, Type (0, 1), BuildingBlock: XIVTED_clean_linker_0, # of connection points: 2
#     Edge 37, Type (0, 1), BuildingBlock: XIVTED_clean_linker_0, # of connection points: 2
#     Edge 38, Type (0, 1), BuildingBlock: XIVTED_clean_linker_0, # of connection points: 2
#     Edge 39, Type (0, 1), BuildingBlock: XIVTED_clean_linker_0, # of connection points: 2
#     Edge 40, Type (0, 1), BuildingBlock: XIVTED_clean_linker_0, # of connection points: 2
#     Edge 41, Type (0, 1), BuildingBlock: XIVTED_clean_linker_0, # of connection points: 2
#     Edge 42, Type (0, 1), BuildingBlock: XIVTED_clean_linker_0, # of connection points: 2
#     Edge 43, Type (0, 1), BuildingBlock: XIVTED_clean_linker_0, # of connection points: 2
#     Edge 44, Type (0, 1), BuildingBlock: XIVTED_clean_linker_0, # of connection points: 2
#     Edge 45, Type (0, 1), BuildingBlock: XIVTED_clean_linker_0, # of connection points: 2
#     Edge 46, Type (0, 1), BuildingBlock: XIVTED_clean_linker_0, # of connection points: 2
#     Edge 47, Type (0, 1), BuildingBlock: XIVTED_clean_linker_0, # of connection points: 2
#     Edge 48, Type (0, 1), BuildingBlock: XIVTED_clean_linker_0, # of connection points: 2
#     Edge 49, Type (0, 1), BuildingBlock: XIVTED_clean_linker_0, # of connection points: 2
#     Edge 50, Type (0, 1), BuildingBlock: XIVTED_clean_linker_0, # of connection points: 2
#     Edge 51, Type (0, 1), BuildingBlock: XIVTED_clean_linker_0, # of connection points: 2
#     Edge 52, Type (0, 1), BuildingBlock: XIVTED_clean_linker_0, # of connection points: 2
#     Edge 53, Type (0, 1), BuildingBlock: XIVTED_clean_linker_0, # of connection points: 2
#     Edge 54, Type (0, 1), BuildingBlock: XIVTED_clean_linker_0, # of connection points: 2
#     Edge 55, Type (0, 1), BuildingBlock: XIVTED_clean_linker_0, # of connection points: 2
#     Edge 56, Type (0, 1), BuildingBlock: XIVTED_clean_linker_0, # of connection points: 2
#     Edge 57, Type (0, 1), BuildingBlock: XIVTED_clean_linker_0, # of connection points: 2
#     Edge 58, Type (0, 1), BuildingBlock: XIVTED_clean_linker_0, # of connection points: 2
#     Edge 59, Type (0, 1), BuildingBlock: XIVTED_clean_linker_0, # of connection points: 2
#     Edge 60, Type (0, 1), BuildingBlock: XIVTED_clean_linker_0, # of connection points: 2
#     Edge 61, Type (0, 1), BuildingBlock: XIVTED_clean_linker_0, # of connection points: 2
#     Edge 62, Type (0, 1), BuildingBlock: XIVTED_clean_linker_0, # of connection points: 2
#     Edge 63, Type (0, 1), BuildingBlock: XIVTED_clean_linker_0, # of connection points: 2
#     Edge 64, Type (0, 1), BuildingBlock: XIVTED_clean_linker_0, # of connection points: 2
#     Edge 65, Type (0, 1), BuildingBlock: XIVTED_clean_linker_0, # of connection points: 2
#     Edge 66, Type (0, 1), BuildingBlock: XIVTED_clean_linker_0, # of connection points: 2
#     Edge 67, Type (0, 1), BuildingBlock: XIVTED_clean_linker_0, # of connection points: 2
#     Edge 68, Type (0, 1), BuildingBlock: XIVTED_clean_linker_0, # of connection points: 2
#     Edge 69, Type (0, 1), BuildingBlock: XIVTED_clean_linker_0, # of connection points: 2
#     Edge 70, Type (0, 1), BuildingBlock: XIVTED_clean_linker_0, # of connection points: 2
#     Edge 71, Type (0, 1), BuildingBlock: XIVTED_clean_linker_0, # of connection points: 2
#     Edge 72, Type (0, 1), BuildingBlock: XIVTED_clean_linker_0, # of connection points: 2
#     Edge 73, Type (0, 1), BuildingBlock: XIVTED_clean_linker_0, # of connection points: 2
#     Edge 74, Type (0, 1), BuildingBlock: XIVTED_clean_linker_0, # of connection points: 2
#     Edge 75, Type (0, 1), BuildingBlock: XIVTED_clean_linker_0, # of connection points: 2
# Relax obj value: 0.003
# Max RMSD: 0.048
# Mean RMSD: 0.021
data_MOF--net-ctn--node1-TATPOV_clean_sbu_0--node2-MIDCAF_clean_linker_0--edge1-XIVTED_clean_linker_0
_symmetry_space_group_name_H-M    P1
_symmetry_Int_Tables_number       1
_symmetry_cell_setting            triclinic
loop_
_symmetry_equiv_pos_as_xyz
'x, y, z'
_cell_length_a     67.120771
_cell_length_b     67.110875
_cell_length_c     67.157559
_cell_angle_alpha  90.990653
_cell_angle_beta   91.009937
_cell_angle_gamma 91.082744
loop_
_atom_site_label
_atom_site_type_symbol
_atom_site_fract_x
_atom_site_fract_y
_atom_site_fract_z
_atom_type_partial_charge
C0 C 0.96883 0.03544 0.07865 0.0
C1 C 0.97063 0.01926 0.09155 0.0
C2 C 0.98596 0.00564 0.08833 0.0
C3 C -0.00076 0.0082 0.07271 0.0
H4 H 0.04713 0.98192 0.04497 0.0
H5 H 0.07383 0.9585 0.03895 0.0
H6 H 0.09771 0.99734 0.99424 0.0
H7 H 0.07094 0.02043 -0.00016 0.0
H8 H 0.04965 0.05858 0.98824 0.0
H9 H 0.04683 0.08672 0.96612 0.0
H10 H 0.99039 0.10146 0.99193 0.0
H11 H 0.99304 0.07311 0.01406 0.0
H12 H 0.9803 0.05076 0.05353 0.0
H13 H 0.95736 0.04636 0.08083 0.0
H14 H 0.98763 0.99285 0.0978 0.0
H15 H 0.01085 0.99739 0.07075 0.0
N16 N 0.02697 0.01445 0.04074 0.0
N17 N 0.03835 0.03314 0.01393 0.0
N18 N 0.01016 0.04325 0.03123 0.0
C19 C 0.04028 0.01722 0.02597 0.0
C20 C 0.02336 0.04621 0.0164 0.0
C21 C 0.01187 0.02742 0.04351 0.0
C22 C 0.05675 0.00306 0.02283 0.0
C23 C 0.05807 0.98548 0.03386 0.0
C24 C 0.07346 0.97207 0.03048 0.0
C25 C 0.08787 0.97595 0.01602 0.0
C26 C 0.08666 0.99365 0.00521 0.0
C27 C 0.07131 0.00699 0.00853 0.0
C28 C 0.02157 0.06351 0.003 0.0
C29 C 0.03659 0.06776 0.98926 0.0
C30 C 0.03506 0.08399 0.97662 0.0
C31 C 0.01842 0.09636 0.9773 0.0
C32 C 0.00332 0.0921 0.99093 0.0
C33 C 0.00491 0.07591 0.0037 0.0
C34 C 0.99753 0.02447 0.05989 0.0
C35 C 0.9821 0.03802 0.06303 0.0
C36 C 0.23495 0.64023 0.24838 0.0
C37 C 0.21718 0.63572 0.23774 0.0
C38 C 0.21237 0.64702 0.22095 0.0
C39 C 0.22498 0.6626 0.21505 0.0
H40 H 0.23863 0.70091 0.16695 0.0
H41 H 0.23202 0.72075 0.13741 0.0
H42 H 0.27072 0.76776 0.16124 0.0
H43 H 0.2775 0.748 0.19063 0.0
H44 H 0.31535 0.72983 0.2166 0.0
H45 H 0.34591 0.73702 0.23545 0.0
H46 H 0.32848 0.6941 0.2794 0.0
H47 H 0.29803 0.68645 0.26025 0.0
H48 H 0.2611 0.65872 0.25111 0.0
H49 H 0.23929 0.6316 0.26117 0.0
H50 H 0.19869 0.64403 0.21253 0.0
H51 H 0.22074 0.67107 0.20212 0.0
N52 N 0.25147 0.6951 0.20379 0.0
N53 N 0.28055 0.71448 0.2094 0.0
N54 N 0.27311 0.68802 0.23046 0.0
C55 C 0.26361 0.71052 0.19855 0.0
C56 C 0.28546 0.70328 0.22533 0.0
C57 C 0.25609 0.68382 0.21981 0.0
C58 C 0.25868 0.72282 0.1811 0.0
C59 C 0.24561 0.71554 0.16596 0.0
C60 C 0.24187 0.72684 0.14902 0.0
C61 C 0.25084 0.74578 0.14707 0.0
C62 C 0.26346 0.75328 0.16244 0.0
C63 C 0.26745 0.74188 0.1792 0.0
C64 C 0.30412 0.70761 0.2369 0.0
C65 C 0.31797 0.72189 0.23028 0.0
C66 C 0.3355 0.7261 0.24116 0.0
C67 C 0.33962 0.71624 0.25904 0.0
C68 C 0.32588 0.70182 0.2656 0.0
C69 C 0.30835 0.69753 0.25465 0.0
C70 C 0.24272 0.66718 0.22579 0.0
C71 C 0.24755 0.65574 0.24249 0.0
C72 C 0.9765 0.35699 0.02778 0.0
C73 C 0.96294 0.35569 0.0116 0.0
C74 C 0.94577 0.36731 0.01201 0.0
C75 C 0.94281 0.38087 0.02759 0.0
H76 H 0.91212 0.43032 0.03777 0.0
H77 H 0.89213 0.45804 0.02706 0.0
H78 H 0.91766 0.49501 0.07453 0.0
H79 H 0.93781 0.46711 0.08552 0.0
H80 H 0.97196 0.44912 0.11266 0.0
H81 H 0.9963 0.45312 0.13978 0.0
H82 H 0.0202 0.39546 0.12528 0.0
H83 H 0.9957 0.39123 0.09829 0.0
H84 H 0.98471 0.3719 0.05526 0.0
H85 H 0.98989 0.34824 0.02784 0.0
H86 H 0.93485 0.36633 -6e-05 0.0
H87 H 0.92969 0.39001 0.02701 0.0
N88 N 0.94162 0.41407 0.05485 0.0
N89 N 0.95366 0.43193 0.08294 0.0
N90 N 0.96801 0.40153 0.07379 0.0
C91 C 0.94071 0.43023 0.0672 0.0
C92 C 0.96727 0.41757 0.08642 0.0
C93 C 0.95516 0.39965 0.058 0.0
C94 C 0.92686 0.44651 0.06235 0.0
C95 C 0.91345 0.44426 0.04611 0.0
C96 C 0.90199 0.46018 0.0399 0.0
C97 C 0.90359 0.47877 0.04976 0.0
C98 C 0.91614 0.48083 0.06666 0.0
C99 C 0.92772 0.46485 0.07289 0.0
C100 C 0.98182 0.41984 0.10323 0.0
C101 C 0.98235 0.43724 0.11523 0.0
C102 C 0.99641 0.43962 0.13071 0.0
C103 C 0.01024 0.42465 0.13462 0.0
C104 C 0.00963 0.40719 0.12275 0.0
C105 C 0.99562 0.40483 0.10721 0.0
C106 C 0.95697 0.38316 0.04318 0.0
C107 C 0.97354 0.37061 0.04344 0.0
C108 C 0.75518 0.72504 0.15166 0.0
C109 C 0.7439 0.70742 0.14834 0.0
C110 C 0.7291 0.7023 0.16201 0.0
C111 C 0.72545 0.71476 0.17844 0.0
H112 H 0.68227 0.72803 0.22257 0.0
H113 H 0.65322 0.72521 0.24399 0.0
H114 H 0.68006 0.76867 0.28489 0.0
H115 H 0.70871 0.77177 0.26356 0.0
H116 H 0.73124 0.80744 0.24137 0.0
H117 H 0.74907 0.83895 0.24546 0.0
H118 H 0.79087 0.82087 0.20074 0.0
H119 H 0.77256 0.78922 0.19616 0.0
H120 H 0.76057 0.75093 0.16997 0.0
H121 H 0.76693 0.72925 0.14162 0.0
H122 H 0.72006 0.68889 0.15979 0.0
H123 H 0.71377 0.71049 0.18854 0.0
N124 N 0.71779 0.74179 0.21169 0.0
N125 N 0.72483 0.7717 0.22918 0.0
N126 N 0.74316 0.76355 0.201 0.0
C127 C 0.714 0.75448 0.22712 0.0
C128 C 0.73938 0.77641 0.21623 0.0
C129 C 0.73247 0.7462 0.19862 0.0
C130 C 0.69764 0.75042 0.24114 0.0
C131 C 0.68208 0.73675 0.23629 0.0
C132 C 0.66547 0.73507 0.24859 0.0
C133 C 0.66421 0.74698 0.26595 0.0
C134 C 0.68037 0.75964 0.27138 0.0
C135 C 0.69683 0.76138 0.25912 0.0
C136 C 0.75052 0.79565 0.21853 0.0
C137 C 0.74424 0.81005 0.23238 0.0
C138 C 0.75456 0.82817 0.23482 0.0
C139 C 0.77158 0.83238 0.22362 0.0
C140 C 0.77776 0.81814 0.20952 0.0
C141 C 0.76732 0.79996 0.20699 0.0
C142 C 0.73657 0.73256 0.18158 0.0
C143 C 0.75158 0.73744 0.16804 0.0
C144 C 0.06479 0.94474 0.5017 0.0
C145 C 0.05649 0.92599 0.49639 0.0
C146 C 0.05269 0.92134 0.4762 0.0
C147 C 0.05637 0.93546 0.46164 0.0
H148 H 0.02999 0.95367 0.4096 0.0
H149 H 0.00433 0.9544 0.3837 0.0
H150 H 0.02401 0.01356 0.36779 0.0
H151 H 0.05004 0.01282 0.39363 0.0
H152 H 0.08961 0.03062 0.41564 0.0
H153 H 0.11609 0.05583 0.41918 0.0
H154 H 0.13483 0.03017 0.47485 0.0
H155 H 0.10821 0.00526 0.4716 0.0
H156 H 0.0749 0.97325 0.4916 0.0
H157 H 0.06784 0.94865 0.51719 0.0
H158 H 0.04611 0.90704 0.47176 0.0
H159 H 0.05278 0.93162 0.44624 0.0
N160 N 0.05471 0.96917 0.43509 0.0
N161 N 0.06953 0.99879 0.42405 0.0
N162 N 0.07996 0.98506 0.45433 0.0
C163 C 0.056 0.98362 0.42124 0.0
C164 C 0.08165 -0.00045 0.44052 0.0
C165 C 0.06658 0.96979 0.45165 0.0
C166 C 0.04193 0.98332 0.40396 0.0
C167 C 0.02904 0.96681 0.40051 0.0
C168 C 0.01427 0.96722 0.38567 0.0
C169 C 0.01196 0.98415 0.3739 0.0
C170 C 0.02548 0.00026 0.37658 0.0
C171 C 0.04033 -0.00014 0.39146 0.0
C172 C 0.09685 0.01574 0.44324 0.0
C173 C 0.09925 0.03043 0.42874 0.0
C174 C 0.11447 0.04486 0.43072 0.0
C175 C 0.12763 0.04496 0.44724 0.0
C176 C 0.12481 0.03069 0.46205 0.0
C177 C 0.10961 0.01626 0.46008 0.0
C178 C 0.06425 0.95439 0.46694 0.0
C179 C 0.06886 0.95876 0.48707 0.0
C180 C 0.20261 0.74783 0.82987 0.0
C181 C 0.19738 0.76797 0.82929 0.0
C182 C 0.19094 0.77598 0.81116 0.0
C183 C 0.18992 0.76408 0.79385 0.0
H184 H 0.16631 0.76081 0.73567 0.0
H185 H 0.14199 0.76822 0.70957 0.0
H186 H 0.14526 0.70783 0.68686 0.0
H187 H 0.16983 0.70036 0.71292 0.0
H188 H 0.22179 0.68681 0.72298 0.0
H189 H 0.24661 0.66088 0.72025 0.0
H190 H 0.2514 0.65908 0.78448 0.0
H191 H 0.22733 0.68546 0.78714 0.0
H192 H 0.20645 0.72064 0.81334 0.0
H193 H 0.2078 0.74137 0.84365 0.0
H194 H 0.18683 0.79148 0.81036 0.0
H195 H 0.18508 0.77072 0.78004 0.0
N196 N 0.18378 0.73639 0.76009 0.0
N197 N 0.19623 0.70954 0.74154 0.0
N198 N 0.20802 0.716 0.77417 0.0
C199 C 0.18378 0.72524 0.74301 0.0
C200 C 0.20848 0.7049 0.75706 0.0
C201 C 0.19576 0.73179 0.77577 0.0
C202 C 0.16996 0.72998 0.72641 0.0
C203 C 0.16197 0.74913 0.72505 0.0
C204 C 0.14813 0.75342 0.71004 0.0
C205 C 0.14176 0.73859 0.69623 0.0
C206 C 0.14988 0.7195 0.6974 0.0
C207 C 0.164 0.71528 0.71224 0.0
C208 C 0.22265 0.68831 0.75528 0.0
C209 C 0.22812 0.68082 0.73651 0.0
C210 C 0.24233 0.66588 0.73495 0.0
C211 C 0.25123 0.65794 0.75213 0.0
C212 C 0.24533 0.66516 0.77088 0.0
C213 C 0.23135 0.68022 0.77243 0.0
C214 C 0.19574 0.74407 0.79429 0.0
C215 C 0.20199 0.73604 0.8125 0.0
C216 C 0.93927 0.63696 0.4712 0.0
C217 C 0.93126 0.63894 0.49028 0.0
C218 C 0.91961 0.62326 0.49777 0.0
C219 C 0.91617 0.60584 0.48643 0.0
H220 H 0.87545 0.5576 0.47767 0.0
H221 H 0.85215 0.53166 0.48852 0.0
H222 H 0.87773 0.48987 0.44712 0.0
H223 H 0.90092 0.51547 0.43627 0.0
H224 H 0.93387 0.52871 0.40794 0.0
H225 H 0.96057 0.5169 0.38714 0.0
H226 H 0.9958 0.56965 0.40248 0.0
H227 H 0.96889 0.58176 0.42315 0.0
H228 H 0.94275 0.61823 0.44544 0.0
H229 H 0.94839 0.6488 0.46513 0.0
H230 H 0.91313 0.6245 0.51239 0.0
H231 H 0.90729 0.59394 0.49271 0.0
N232 N 0.90734 0.57144 0.46054 0.0
N233 N 0.91898 0.5491 0.43642 0.0
N234 N 0.93537 0.57988 0.44177 0.0
C235 C 0.9056 0.55363 0.45066 0.0
C236 C 0.93388 0.56209 0.43185 0.0
C237 C 0.92212 0.58468 0.45608 0.0
C238 C 0.89026 0.53862 0.45623 0.0
C239 C 0.87601 0.54293 0.47076 0.0
C240 C 0.8626 0.52813 0.47693 0.0
C241 C 0.86331 0.50872 0.46883 0.0
C242 C 0.87706 0.50462 0.45386 0.0
C243 C 0.89032 0.51938 0.44759 0.0
C244 C 0.94928 0.55609 0.41747 0.0
C245 C 0.9472 0.53794 0.4068 0.0
C246 C 0.96257 0.53109 0.39492 0.0
C247 C 0.98043 0.54218 0.39342 0.0
C248 C 0.98219 0.56078 0.40329 0.0
C249 C 0.96677 0.56768 0.4152 0.0
C250 C 0.9246 0.60363 0.46752 0.0
C251 C 0.9361 0.61943 0.45998 0.0
C252 C 0.89209 0.80911 0.77841 0.0
C253 C 0.89195 0.82361 0.76355 0.0
C254 C 0.88208 0.84155 0.76714 0.0
C255 C 0.87163 0.84451 0.78467 0.0
H256 H 0.82065 0.87018 0.79889 0.0
H257 H 0.79123 0.89017 0.79389 0.0
H258 H 0.77268 0.87801 0.8537 0.0
H259 H 0.80213 0.85755 0.85884 0.0
H260 H 0.82423 0.81976 0.88151 0.0
H261 H 0.82144 0.79283 0.90529 0.0
H262 H 0.85882 0.75639 0.86825 0.0
H263 H 0.8623 0.78343 0.84516 0.0
H264 H 0.88137 0.8003 0.80685 0.0
H265 H 0.89952 0.7951 0.77605 0.0
H266 H 0.88207 0.8532 0.75617 0.0
H267 H 0.86375 0.85833 0.78661 0.0
N268 N 0.84364 0.84625 0.81635 0.0
N269 N 0.8304 0.83412 0.84592 0.0
N270 N 0.85754 0.81834 0.83119 0.0
C271 C 0.83007 0.84758 0.83102 0.0
C272 C 0.84417 0.81949 0.84614 0.0
C273 C 0.85748 0.83179 0.81633 0.0
C274 C 0.81368 0.862 0.82923 0.0
C275 C 0.81054 0.87192 0.81117 0.0
C276 C 0.79367 0.88337 0.80822 0.0
C277 C 0.77971 0.88547 0.82336 0.0
C278 C 0.78333 0.87663 0.84184 0.0
C279 C 0.80012 0.86486 0.84472 0.0
C280 C 0.84346 0.80378 0.86139 0.0
C281 C 0.83202 0.80606 0.87859 0.0
C282 C 0.83033 0.79055 0.89218 0.0
C283 C 0.83985 0.77232 0.88875 0.0
C284 C 0.85158 0.77028 0.87171 0.0
C285 C 0.85347 0.78582 0.8583 0.0
C286 C 0.87082 0.82961 0.7991 0.0
C287 C 0.88163 0.81209 0.79604 0.0
C288 C 0.40565 0.33426 0.2917 0.0
C289 C 0.40353 0.34729 0.27567 0.0
C290 C 0.39093 0.36367 0.27775 0.0
C291 C 0.37981 0.36629 0.29496 0.0
H292 H 0.33375 0.40042 0.31987 0.0
H293 H 0.30385 0.4201 0.31563 0.0
H294 H 0.27232 0.38065 0.35502 0.0
H295 H 0.30227 0.36176 0.35995 0.0
H296 H 0.32587 0.33116 0.38442 0.0
H297 H 0.3233 0.30192 0.40511 0.0
H298 H 0.37925 0.2811 0.38262 0.0
H299 H 0.38167 0.31013 0.36151 0.0
H300 H 0.39602 0.32608 0.32063 0.0
H301 H 0.41511 0.32141 0.29056 0.0
H302 H 0.38926 0.37422 0.26584 0.0
H303 H 0.36975 0.3787 0.29573 0.0
N304 N 0.35204 0.36685 0.32731 0.0
N305 N 0.33895 0.35247 0.35595 0.0
N306 N 0.36791 0.3398 0.34197 0.0
C307 C 0.33793 0.36642 0.34157 0.0
C308 C 0.35396 0.33921 0.35638 0.0
C309 C 0.36712 0.3536 0.32742 0.0
C310 C 0.32042 0.37948 0.34021 0.0
C311 C 0.32048 0.39614 0.32781 0.0
C312 C 0.30327 0.40735 0.32528 0.0
C313 C 0.28552 0.40198 0.33488 0.0
C314 C 0.2857 0.38558 0.34765 0.0
C315 C 0.30294 0.37459 0.3504 0.0
C316 C 0.35384 0.3229 0.37102 0.0
C317 C 0.33779 0.32051 0.38403 0.0
C318 C 0.33636 0.30377 0.39604 0.0
C319 C 0.35096 0.28905 0.39537 0.0
C320 C 0.36755 0.29198 0.3832 0.0
C321 C 0.36897 0.30869 0.37115 0.0
C322 C 0.38105 0.3526 0.31053 0.0
C323 C 0.39457 0.3369 0.30894 0.0
C324 C 0.48256 0.87065 0.52633 0.0
C325 C 0.46964 0.86883 0.50967 0.0
C326 C 0.45263 0.88067 0.50887 0.0
C327 C 0.44916 0.89481 0.5238 0.0
H328 H 0.41498 0.94231 0.5339 0.0
H329 H 0.39331 0.96864 0.52291 0.0
H330 H 0.41921 0.00854 0.56783 0.0
H331 H 0.44082 0.98198 0.57919 0.0
H332 H 0.47242 0.9643 0.60958 0.0
H333 H 0.49384 0.9683 0.63904 0.0
H334 H 0.52037 0.91149 0.62614 0.0
H335 H 0.49877 0.90726 0.5968 0.0
H336 H 0.48974 0.88648 0.55359 0.0
H337 H 0.49581 0.86174 0.5273 0.0
H338 H 0.4422 0.87933 0.4964 0.0
H339 H 0.43614 0.904 0.52232 0.0
N340 N 0.44622 0.92827 0.55045 0.0
N341 N 0.45653 0.94667 0.57883 0.0
N342 N 0.47217 0.91666 0.57063 0.0
C343 C 0.44431 0.94447 0.56258 0.0
C344 C 0.47042 0.93278 0.58304 0.0
C345 C 0.46005 0.9143 0.5543 0.0
C346 C 0.42987 0.96006 0.55728 0.0
C347 C 0.41603 0.95662 0.54158 0.0
C348 C 0.40363 0.97176 0.5352 0.0
C349 C 0.40476 0.99078 0.54429 0.0
C350 C 0.41794 0.99403 0.56057 0.0
C351 C 0.43038 0.97881 0.56702 0.0
C352 C 0.48376 0.9354 0.6008 0.0
C353 C 0.48281 0.95263 0.61296 0.0
C354 C 0.4952 0.95502 0.6298 0.0
C355 C 0.50879 0.94021 0.63494 0.0
C356 C 0.50988 0.92307 0.62271 0.0
C357 C 0.49754 0.92069 0.60583 0.0
C358 C 0.46263 0.89752 0.53994 0.0
C359 C 0.4791 0.88489 0.54133 0.0
C360 C 0.25654 0.23122 0.65726 0.0
C361 C 0.24383 0.21523 0.65138 0.0
C362 C 0.22696 0.21106 0.66285 0.0
C363 C 0.22266 0.22296 0.67952 0.0
H364 H 0.18168 0.2313 0.72568 0.0
H365 H 0.15167 0.22726 0.74549 0.0
H366 H 0.17122 0.27656 0.78358 0.0
H367 H 0.2009 0.28081 0.76387 0.0
H368 H 0.23517 0.30958 0.75109 0.0
H369 H 0.25163 0.34208 0.75416 0.0
H370 H 0.27756 0.33344 0.69627 0.0
H371 H 0.26161 0.30062 0.69345 0.0
H372 H 0.26235 0.25538 0.67769 0.0
H373 H 0.2699 0.23459 0.64906 0.0
H374 H 0.2168 0.19892 0.65866 0.0
H375 H 0.20936 0.21958 0.68781 0.0
N376 N 0.21513 0.2482 0.71447 0.0
N377 N 0.22126 0.27818 0.73222 0.0
N378 N 0.24061 0.2702 0.7047 0.0
C379 C 0.21063 0.26085 0.72974 0.0
C380 C 0.23623 0.283 0.71976 0.0
C381 C 0.23025 0.25274 0.70197 0.0
C382 C 0.19358 0.25661 0.74293 0.0
C383 C 0.1797 0.24112 0.73843 0.0
C384 C 0.16254 0.23873 0.74983 0.0
C385 C 0.15895 0.25178 0.76592 0.0
C386 C 0.17336 0.26652 0.77103 0.0
C387 C 0.19042 0.26892 0.7597 0.0
C388 C 0.24697 0.30246 0.72199 0.0
C389 C 0.24444 0.31455 0.73903 0.0
C390 C 0.25379 0.33329 0.74073 0.0
C391 C 0.26579 0.34052 0.72537 0.0
C392 C 0.2686 0.3283 0.70848 0.0
C393 C 0.25936 0.30947 0.70683 0.0
C394 C 0.23513 0.2393 0.68503 0.0
C395 C 0.25223 0.24311 0.6738 0.0
C396 C 0.71921 0.1419 0.75121 0.0
C397 C 0.70322 0.13642 0.73837 0.0
C398 C 0.69937 0.14811 0.72161 0.0
C399 C 0.71125 0.16497 0.71783 0.0
H400 H 0.72316 0.21205 0.67552 0.0
H401 H 0.7197 0.23501 0.64768 0.0
H402 H 0.75592 0.27891 0.68008 0.0
H403 H 0.7597 0.25609 0.70745 0.0
H404 H 0.79819 0.23561 0.72813 0.0
H405 H 0.82939 0.24104 0.74619 0.0
H406 H 0.81558 0.19144 0.78404 0.0
H407 H 0.78425 0.18558 0.76553 0.0
H408 H 0.74337 0.16225 0.75761 0.0
H409 H 0.72275 0.13306 0.7641 0.0
H410 H 0.68706 0.14433 0.71151 0.0
H411 H 0.70788 0.17365 0.70479 0.0
N412 N 0.73515 0.20126 0.71236 0.0
N413 N 0.76405 0.22023 0.72003 0.0
N414 N 0.75746 0.19106 0.73744 0.0
C415 C 0.74698 0.21753 0.70912 0.0
C416 C 0.7695 0.20709 0.73413 0.0
C417 C 0.74026 0.18802 0.72668 0.0
C418 C 0.74205 0.23208 0.69351 0.0
C419 C 0.73009 0.22673 0.67678 0.0
C420 C 0.72805 0.2399 0.66088 0.0
C421 C 0.73786 0.25863 0.66154 0.0
C422 C 0.74859 0.26441 0.6789 0.0
C423 C 0.75073 0.2513 0.69461 0.0
C424 C 0.78856 0.21021 0.74541 0.0
C425 C 0.80167 0.22581 0.7403 0.0
C426 C 0.8196 0.22902 0.75076 0.0
C427 C 0.82492 0.21682 0.76673 0.0
C428 C 0.81198 0.20103 0.77174 0.0
C429 C 0.79397 0.19776 0.76119 0.0
C430 C 0.72735 0.17036 0.73063 0.0
C431 C 0.73115 0.1586 0.74737 0.0
C432 C 0.46687 0.53642 0.57189 0.0
C433 C 0.46792 0.52048 0.58515 0.0
C434 C 0.48268 0.50615 0.58235 0.0
C435 C 0.49619 0.50784 0.56683 0.0
H436 H 0.54579 0.48207 0.54406 0.0
H437 H 0.57272 0.45849 0.54119 0.0
H438 H 0.59464 0.48969 0.49003 0.0
H439 H 0.56798 0.51356 0.4931 0.0
H440 H 0.5493 0.55476 0.48168 0.0
H441 H 0.54786 0.58338 0.45991 0.0
H442 H 0.49258 0.60083 0.4865 0.0
H443 H 0.49381 0.57212 0.50812 0.0
H444 H 0.47921 0.55074 0.54659 0.0
H445 H 0.45585 0.54786 0.57374 0.0
H446 H 0.48373 0.49351 0.5921 0.0
H447 H 0.50738 0.49653 0.56523 0.0
N448 N 0.52476 0.51256 0.53541 0.0
N449 N 0.53733 0.53021 0.50839 0.0
N450 N 0.5091 0.54157 0.52488 0.0
C451 C 0.53847 0.51451 0.52088 0.0
C452 C 0.52268 0.5438 0.51027 0.0
C453 C 0.51001 0.526 0.53752 0.0
C454 C 0.55467 0.49983 0.51885 0.0
C455 C 0.55631 0.48394 0.53216 0.0
C456 C 0.57172 0.4703 0.53045 0.0
C457 C 0.58589 0.47217 0.51539 0.0
C458 C 0.58417 0.48795 0.50199 0.0
C459 C 0.56877 0.5016 0.5037 0.0
C460 C 0.52169 0.56107 0.49674 0.0
C461 C 0.53678 0.56463 0.48289 0.0
C462 C 0.53603 0.58113 0.47046 0.0
C463 C 0.52012 0.59442 0.47148 0.0
C464 C 0.50493 0.59077 0.48517 0.0
C465 C 0.50572 0.57434 0.49767 0.0
C466 C 0.4953 0.52392 0.5537 0.0
C467 C 0.48038 0.53813 0.55637 0.0
C468 C 0.5599 0.42159 0.98971 0.0
C469 C 0.54454 0.4076 0.9852 0.0
C470 C 0.53618 0.40695 0.96588 0.0
C471 C 0.54227 0.42055 0.95169 0.0
H472 H 0.51548 0.45149 0.90865 0.0
H473 H 0.49113 0.45607 0.8824 0.0
H474 H 0.5328 0.49386 0.85147 0.0
H475 H 0.55728 0.48982 0.87849 0.0
H476 H 0.59523 0.50656 0.90573 0.0
H477 H 0.62415 0.52869 0.91047 0.0
H478 H 0.63765 0.50094 0.96653 0.0
H479 H 0.60861 0.47897 0.96203 0.0
H480 H 0.5775 0.44627 0.9795 0.0
H481 H 0.5666 0.42247 0.0045 0.0
H482 H 0.52467 0.39603 0.96177 0.0
H483 H 0.53515 0.41976 0.93709 0.0
N484 N 0.54941 0.45312 0.9258 0.0
N485 N 0.56925 0.47962 0.91478 0.0
N486 N 0.57801 0.46294 0.9441 0.0
C487 C 0.55291 0.46751 0.91232 0.0
C488 C 0.58189 0.47743 0.93065 0.0
C489 C 0.56182 0.45064 0.94165 0.0
C490 C 0.53844 0.47022 0.8957 0.0
C491 C 0.51963 0.4607 0.89625 0.0
C492 C 0.50562 0.46322 0.88102 0.0
C493 C 0.51003 0.4751 0.86459 0.0
C494 C 0.52886 0.48468 0.86395 0.0
C495 C 0.54291 0.4823 0.8794 0.0
C496 C 0.59954 0.49091 0.93348 0.0
C497 C 0.60431 0.50516 0.9191 0.0
C498 C 0.62096 0.51781 0.92176 0.0
C499 C 0.63319 0.51658 0.93888 0.0
C500 C 0.62838 0.50244 0.9533 0.0
C501 C 0.61178 0.48973 0.95063 0.0
C502 C 0.55699 0.43515 0.95637 0.0
C503 C 0.56609 0.43525 0.97541 0.0
C504 C 0.74076 0.25731 0.32862 0.0
C505 C 0.72799 0.27301 0.33329 0.0
C506 C 0.7128 0.27772 0.31957 0.0
C507 C 0.7106 0.26707 0.30152 0.0
H508 H 0.67131 0.25557 0.25485 0.0
H509 H 0.64282 0.26103 0.23305 0.0
H510 H 0.66847 0.22332 0.18783 0.0
H511 H 0.69683 0.21732 0.20994 0.0
H512 H 0.7288 0.18366 0.22887 0.0
H513 H 0.75037 0.15485 0.22575 0.0
H514 H 0.79048 0.18084 0.27043 0.0
H515 H 0.76891 0.20928 0.27386 0.0
H516 H 0.74878 0.23474 0.30766 0.0
H517 H 0.75237 0.25299 0.339 0.0
H518 H 0.70281 0.28983 0.32264 0.0
H519 H 0.69881 0.27116 0.29124 0.0
N520 N 0.70588 0.24327 0.26501 0.0
N521 N 0.71707 0.21814 0.24337 0.0
N522 N 0.73466 0.2258 0.27307 0.0
C523 C 0.70363 0.23245 0.24777 0.0
C524 C 0.73269 0.2148 0.25596 0.0
C525 C 0.72136 0.24004 0.27774 0.0
C526 C 0.68643 0.23599 0.2342 0.0
C527 C 0.67097 0.24844 0.24026 0.0
C528 C 0.65462 0.2517 0.22767 0.0
C529 C 0.65334 0.24271 0.20861 0.0
C530 C 0.66883 0.23029 0.2025 0.0
C531 C 0.68516 0.22693 0.21516 0.0
C532 C 0.74691 0.19862 0.25189 0.0
C533 C 0.74237 0.18335 0.23782 0.0
C534 C 0.75478 0.16688 0.23595 0.0
C535 C 0.77197 0.16542 0.24808 0.0
C536 C 0.7771 0.1813 0.2612 0.0
C537 C 0.76472 0.19764 0.26313 0.0
C538 C 0.72355 0.25149 0.2968 0.0
C539 C 0.73862 0.24674 0.31062 0.0
C540 C 0.46941 0.10188 0.03368 0.0
C541 C 0.45286 0.11359 0.03823 0.0
C542 C 0.43381 0.10683 0.03166 0.0
C543 C 0.43144 0.08902 0.02066 0.0
H544 H 0.39095 0.03898 0.00938 0.0
H545 H 0.36086 0.01768 0.00833 0.0
H546 H 0.39156 0.97438 0.97242 0.0
H547 H 0.42104 0.99549 0.97302 0.0
H548 H 0.46165 0.00302 0.95726 0.0
H549 H 0.48741 0.99344 0.93436 0.0
H550 H 0.52012 0.04809 0.94829 0.0
H551 H 0.49403 0.05799 0.97121 0.0
H552 H 0.48018 0.07582 0.01892 0.0
H553 H 0.48425 0.10621 0.03887 0.0
H554 H 0.4207 0.11551 0.03451 0.0
H555 H 0.41664 0.0844 0.01557 0.0
N556 N 0.42866 0.04851 0.00288 0.0
N557 N 0.44223 0.02638 0.97965 0.0
N558 N 0.46116 0.05393 0.99123 0.0
C559 C 0.42682 0.03173 0.99128 0.0
C560 C 0.45938 0.03735 0.97943 0.0
C561 C 0.44589 0.05959 0.00298 0.0
C562 C 0.40842 0.01908 0.99116 0.0
C563 C 0.3912 0.02493 0.00122 0.0
C564 C 0.37399 0.01271 0.00068 0.0
C565 C 0.37368 0.99444 0.99005 0.0
C566 C 0.39102 0.98858 0.98029 0.0
C567 C 0.40807 0.00071 0.98077 0.0
C568 C 0.4757 0.03132 0.96612 0.0
C569 C 0.47432 0.01305 0.95558 0.0
C570 C 0.4892 0.00745 0.94251 0.0
C571 C 0.50587 0.01995 0.93958 0.0
C572 C 0.50738 0.0382 0.95015 0.0
C573 C 0.49248 0.0438 0.96336 0.0
C574 C 0.4481 0.07778 0.01562 0.0
C575 C 0.46708 0.08433 0.02234 0.0
Zn576 Zn 0.26806 0.83962 0.98646 0.0
Zn577 Zn 0.2352 0.85949 0.99626 0.0
O578 O 0.23824 0.84005 0.01951 0.0
O579 O 0.2641 0.82244 0.01062 0.0
O580 O 0.21063 0.87507 0.00292 0.0
O581 O 0.28415 0.86517 0.98794 0.0
O582 O 0.2571 0.88163 0.99537 0.0
C583 C 0.25029 0.82595 0.02274 0.0
C584 C 0.23766 0.83594 0.95639 0.0
O585 O 0.22772 0.84589 0.96903 0.0
O586 O 0.25561 0.83168 0.96008 0.0
C587 C 0.20321 0.88627 0.98975 0.0
O588 O 0.21166 0.88715 0.97227 0.0
C589 C 0.2757 0.88145 0.99183 0.0
Zn590 Zn 0.10681 0.4437 0.29673 0.0
Zn591 Zn 0.11981 0.47911 0.28272 0.0
O592 O 0.09975 0.48757 0.30394 0.0
O593 O 0.08897 0.45882 0.31535 0.0
O594 O 0.1308 0.50508 0.2726 0.0
O595 O 0.13481 0.43731 0.30573 0.0
O596 O 0.1452 0.46558 0.29297 0.0
C597 C 0.08861 0.4777 0.31554 0.0
C598 C 0.09779 0.44907 0.25492 0.0
O599 O 0.10624 0.466 0.25817 0.0
O600 O 0.0966 0.43655 0.26878 0.0
C601 C 0.13843 0.51766 0.28502 0.0
O602 O 0.13836 0.51355 0.30408 0.0
C603 C 0.14885 0.44943 0.30192 0.0
Zn604 Zn 0.8026 0.60202 0.95336 0.0
Zn605 Zn 0.79049 0.61772 0.98809 0.0
O606 O 0.81193 0.59812 0.99742 0.0
O607 O 0.82155 0.58503 0.96895 0.0
O608 O 0.78171 0.63136 0.01329 0.0
O609 O 0.8119 0.62898 0.94412 0.0
O610 O 0.80038 0.64177 0.97194 0.0
C611 C 0.82282 0.58608 0.98778 0.0
C612 C 0.76094 0.59429 0.96088 0.0
O613 O 0.76505 0.60366 0.97716 0.0
O614 O 0.77427 0.59205 0.94794 0.0
C615 C 0.7768 0.62255 0.02912 0.0
O616 O 0.77727 0.60301 0.02967 0.0
C617 C 0.80869 0.64399 0.95519 0.0
Zn618 Zn 0.8471 0.99792 0.2811 0.0
Zn619 Zn 0.86689 -0.00012 0.24775 0.0
O620 O 0.8511 0.02637 0.248 0.0
O621 O 0.83565 0.02473 0.27658 0.0
O622 O 0.88341 0.00148 0.22291 0.0
O623 O 0.87206 0.99554 0.29742 0.0
O624 O 0.88893 0.998 0.26976 0.0
C625 C 0.83959 0.03403 0.26086 0.0
C626 C 0.83696 0.9654 0.25463 0.0
O627 O 0.8498 0.97384 0.2436 0.0
O628 O 0.83286 0.97315 0.27134 0.0
C629 C 0.87657 0.0064 0.20595 0.0
O630 O 0.85759 0.01056 0.20401 0.0
C631 C 0.88856 0.99614 0.28863 0.0
Zn632 Zn 0.30134 0.11658 0.45172 0.0
Zn633 Zn 0.29336 0.1335 0.4872 0.0
O634 O 0.31275 0.11144 0.49514 0.0
O635 O 0.31901 0.09733 0.46612 0.0
O636 O 0.28698 0.14726 0.51312 0.0
O637 O 0.31283 0.14255 0.44217 0.0
O638 O 0.30556 0.15643 0.471 0.0
C639 C 0.32153 0.09821 0.48486 0.0
C640 C 0.25985 0.11412 0.4612 0.0
O641 O 0.26597 0.12287 0.47722 0.0
O642 O 0.27203 0.11005 0.4476 0.0
C643 C 0.27835 0.13841 0.52726 0.0
O644 O 0.27368 0.11937 0.52522 0.0
C645 C 0.31268 0.15775 0.45359 0.0
Zn646 Zn 0.34719 0.50359 0.77707 0.0
Zn647 Zn 0.36514 0.50611 0.74224 0.0
O648 O 0.34927 0.53229 0.74367 0.0
O649 O 0.33822 0.5319 0.77437 0.0
O650 O 0.38062 0.50784 0.71679 0.0
O651 O 0.37309 0.49758 0.79102 0.0
O652 O 0.38817 0.50355 0.76284 0.0
C653 C 0.34006 0.54063 0.75792 0.0
C654 C 0.33399 0.47303 0.74919 0.0
O655 O 0.34762 0.48058 0.7385 0.0
O656 O 0.33016 0.48083 0.76596 0.0
C657 C 0.37377 0.51302 0.69993 0.0
O658 O 0.35492 0.51771 0.69814 0.0
C659 C 0.38896 0.4994 0.78127 0.0
Zn660 Zn 0.775 0.34695 0.50232 0.0
Zn661 Zn 0.74086 0.36574 0.50305 0.0
O662 O 0.73989 0.3486 0.52872 0.0
O663 O 0.76863 0.33337 0.52769 0.0
O664 O 0.71589 0.3821 0.50394 0.0
O665 O 0.79101 0.37235 0.50316 0.0
O666 O 0.76264 0.3882 0.50267 0.0
C667 C 0.75236 0.33662 0.5363 0.0
C668 C 0.75043 0.33817 0.4677 0.0
O669 O 0.73827 0.34968 0.4764 0.0
O670 O 0.76712 0.33462 0.47585 0.0
C671 C 0.69858 0.37551 0.50802 0.0
O672 O 0.69603 0.35652 0.51188 0.0
C673 C 0.78166 0.38853 0.50286 0.0
Zn674 Zn 0.60267 0.93971 0.80097 0.0
Zn675 Zn 0.61577 0.97661 0.792 0.0
O676 O 0.59968 0.98183 0.8173 0.0
O677 O 0.5902 0.95153 0.82559 0.0
O678 O 0.62634 0.00389 0.78475 0.0
O679 O 0.63092 0.93024 0.80205 0.0
O680 O 0.64154 0.96096 0.79691 0.0
C681 C 0.59071 0.97015 0.82909 0.0
C682 C 0.58821 0.95215 0.76294 0.0
O683 O 0.59862 0.96774 0.76739 0.0
O684 O 0.58724 0.93791 0.77503 0.0
C685 C 0.6328 0.00715 0.76739 0.0
O686 O 0.63225 0.99259 0.75405 0.0
C687 C 0.64511 0.94273 0.8003 0.0
Zn688 Zn 0.98974 0.27623 0.84221 0.0
Zn689 Zn 0.99333 0.24178 0.86021 0.0
O690 O 0.01938 0.24381 0.84381 0.0
O691 O 0.01603 0.27267 0.82918 0.0
O692 O 0.99595 0.21613 0.87525 0.0
O693 O 0.98841 0.29105 0.86826 0.0
O694 O 0.99107 0.26241 0.8834 0.0
C695 C 0.02609 0.25724 0.83233 0.0
C696 C 0.95757 0.2491 0.83209 0.0
O697 O 0.9671 0.2376 0.84365 0.0
O698 O 0.96436 0.26646 0.82888 0.0
C699 C 0.01105 0.21382 0.88662 0.0
O700 O 0.02494 0.22788 0.88762 0.0
C701 C 0.98917 0.28128 0.88419 0.0
Zn702 Zn 0.49844 0.78185 0.34442 0.0
Zn703 Zn 0.50022 0.74772 0.3633 0.0
O704 O 0.52672 0.74855 0.34762 0.0
O705 O 0.5252 0.77742 0.33268 0.0
O706 O 0.50153 0.72188 0.37831 0.0
O707 O 0.49638 0.79709 0.37009 0.0
O708 O 0.49788 0.76887 0.38618 0.0
C709 C 0.53441 0.76158 0.33629 0.0
C710 C 0.46613 0.75547 0.33319 0.0
O711 O 0.47467 0.74409 0.34561 0.0
O712 O 0.47352 0.77256 0.3299 0.0
C713 C 0.51708 0.71769 0.38837 0.0
O714 O 0.53234 0.73026 0.38864 0.0
C715 C 0.49643 0.78781 0.38633 0.0
Zn716 Zn 0.95206 0.80326 0.58648 0.0
Zn717 Zn 0.98519 0.7865 0.60231 0.0
O718 O 0.99585 0.8112 0.58782 0.0
O719 O 0.96899 0.82626 0.57693 0.0
O720 O 0.00973 0.77442 0.61481 0.0
O721 O 0.94047 0.80475 0.61398 0.0
O722 O 0.96805 0.7926 0.6267 0.0
C723 C 0.98776 0.82569 0.57895 0.0
C724 C 0.95929 0.76355 0.57124 0.0
O725 O 0.97383 0.76436 0.58372 0.0
O726 O 0.94808 0.77839 0.56919 0.0
C727 C 0.02734 0.77793 0.60892 0.0
O728 O 0.03007 0.7895 0.5936 0.0
C729 C 0.95067 0.79953 0.62898 0.0
Zn730 Zn 0.45456 0.29145 0.10261 0.0
Zn731 Zn 0.49079 0.28461 0.11926 0.0
O732 O 0.49758 0.30479 0.09768 0.0
O733 O 0.46838 0.30991 0.08341 0.0
O734 O 0.51742 0.27971 0.13258 0.0
O735 O 0.4452 0.30241 0.12891 0.0
O736 O 0.47444 0.29598 0.14242 0.0
C737 C 0.487 0.31333 0.08453 0.0
C738 C 0.46554 0.25039 0.09976 0.0
O739 O 0.48152 0.25708 0.1082 0.0
O740 O 0.45131 0.26198 0.09613 0.0
C741 C 0.52888 0.26564 0.12766 0.0
O742 O 0.52353 0.25341 0.11296 0.0
C743 C 0.45683 0.30254 0.14397 0.0
H744 H 0.21777 0.80334 0.83272 0.0
H745 H 0.19981 0.82111 0.94882 0.0
H746 H 0.18315 0.76166 0.86672 0.0
H747 H 0.25532 0.83538 0.92049 0.0
H748 H 0.18709 0.8065 0.91699 0.0
H749 H 0.225 0.8228 0.86333 0.0
C750 C 0.21142 0.7985 0.84659 0.0
C751 C 0.19996 0.78086 0.8473 0.0
C752 C 0.20195 0.81308 0.91779 0.0
C753 C 0.20802 0.80303 0.88216 0.0
C754 C 0.20914 0.82147 0.93582 0.0
C755 C 0.22865 0.82928 0.93719 0.0
C756 C 0.21422 0.81309 0.90106 0.0
C757 C 0.24025 0.82932 0.92003 0.0
C758 C 0.21561 0.80952 0.864 0.0
C759 C 0.1922 0.77512 0.86566 0.0
N760 N 0.23284 0.82139 0.90266 0.0
N761 N 0.19638 0.78619 0.88243 0.0
H762 H 0.00634 0.56116 0.36825 0.0
H763 H 0.06532 0.46127 0.34405 0.0
H764 H 0.99353 0.50398 0.39405 0.0
H765 H 0.07932 0.5175 0.31675 0.0
H766 H 0.04014 0.47757 0.36375 0.0
H767 H 0.03418 0.54634 0.35042 0.0
C768 C 0.00942 0.54553 0.37022 0.0
C769 C 0.99746 0.53374 0.3825 0.0
C770 C 0.04873 0.48642 0.35353 0.0
C771 C 0.02918 0.51672 0.36218 0.0
C772 C 0.06317 0.4771 0.34225 0.0
C773 C 0.0744 0.488 0.3286 0.0
C774 C 0.04533 0.50683 0.35116 0.0
C775 C 0.07098 0.50851 0.32705 0.0
C776 C 0.02526 0.53707 0.36 0.0
C777 C 0.00207 0.51355 0.38443 0.0
N778 N 0.05665 0.51726 0.33812 0.0
N779 N 0.0175 0.50571 0.37437 0.0
H780 H 0.86678 0.74377 0.89934 0.0
H781 H 0.79246 0.67987 0.96543 0.0
H782 H 0.80605 0.76137 0.90895 0.0
H783 H 0.83806 0.65368 0.92942 0.0
H784 H 0.80116 0.71269 0.95195 0.0
H785 H 0.86022 0.71339 0.91777 0.0
C786 C 0.85208 0.74134 0.90532 0.0
C787 C 0.83685 0.7551 0.90218 0.0
C788 C 0.8093 0.69973 0.94717 0.0
C789 C 0.82949 0.72052 0.92382 0.0
C790 C 0.80442 0.68107 0.95487 0.0
C791 C 0.81447 0.66406 0.94839 0.0
C792 C 0.82462 0.70136 0.93328 0.0
C793 C 0.82981 0.6664 0.93466 0.0
C794 C 0.84841 0.72403 0.91595 0.0
C795 C 0.81831 0.75134 0.911 0.0
N796 N 0.83446 0.68471 0.9276 0.0
N797 N 0.81512 0.73436 0.92133 0.0
H798 H 0.01053 0.99865 0.33571 0.0
H799 H 0.89196 0.98694 0.32781 0.0
H800 H 0.97355 0.97309 0.38096 0.0
H801 H 0.92755 0.00104 0.2768 0.0
H802 H 0.92218 0.98381 0.34773 0.0
H803 H 0.98081 0.00153 0.31408 0.0
C804 C 0.9962 0.99362 0.34106 0.0
C805 C 0.99453 0.9855 0.36012 0.0
C806 C 0.92347 0.98755 0.33217 0.0
C807 C 0.96063 0.98881 0.3356 0.0
C808 C 0.90616 0.98942 0.32076 0.0
C809 C 0.90718 0.99428 0.30056 0.0
C810 C 0.9421 0.99069 0.32348 0.0
C811 C 0.92608 0.99723 0.29231 0.0
C812 C 0.9793 0.99519 0.32871 0.0
C813 C 0.97563 0.97913 0.36629 0.0
N814 N 0.94285 0.99545 0.30384 0.0
N815 N 0.95948 0.981 0.35412 0.0
H816 H 0.23987 0.17464 0.64516 0.0
H817 H 0.28397 0.17824 0.53519 0.0
H818 H 0.25741 0.22876 0.61579 0.0
H819 H 0.26102 0.12422 0.5611 0.0
H820 H 0.27511 0.19667 0.56522 0.0
H821 H 0.24786 0.15562 0.61496 0.0
C822 C 0.24528 0.18254 0.63235 0.0
C823 C 0.2481 0.20334 0.6331 0.0
C824 C 0.27198 0.18079 0.56437 0.0
C825 C 0.25746 0.18166 0.59859 0.0
C826 C 0.27709 0.17022 0.54721 0.0
C827 C 0.27324 0.14963 0.54559 0.0
C828 C 0.263 0.17073 0.58014 0.0
C829 C 0.26426 0.14008 0.56169 0.0
C830 C 0.24994 0.17167 0.61515 0.0
C831 C 0.25536 0.21274 0.61609 0.0
N832 N 0.25946 0.15071 0.57831 0.0
N833 N 0.25982 0.20184 0.5996 0.0
H834 H 0.47614 0.50939 0.6235 0.0
H835 H 0.36469 0.52379 0.66156 0.0
H836 H 0.4278 0.52826 0.58545 0.0
H837 H 0.41341 0.50431 0.69879 0.0
H838 H 0.38733 0.52539 0.63341 0.0
H839 H 0.45312 0.50715 0.6511 0.0
C840 C 0.46065 0.51293 0.62089 0.0
C841 C 0.45393 0.51898 0.60206 0.0
C842 C 0.39304 0.52076 0.64775 0.0
C843 C 0.42743 0.51668 0.6338 0.0
C844 C 0.38012 0.51983 0.66383 0.0
C845 C 0.38714 0.51392 0.6826 0.0
C846 C 0.41314 0.51574 0.65044 0.0
C847 C 0.40731 0.50897 0.68463 0.0
C848 C 0.44751 0.51176 0.63672 0.0
C849 C 0.43372 0.52374 0.59974 0.0
N850 N 0.41956 0.51 0.66878 0.0
N851 N 0.4212 0.52248 0.6154 0.0
H852 H 0.77049 0.2777 0.64719 0.0
H853 H 0.71652 0.32982 0.55519 0.0
H854 H 0.70765 0.26826 0.63494 0.0
H855 H 0.7798 0.32037 0.56085 0.0
H856 H 0.71171 0.31148 0.58636 0.0
H857 H 0.77282 0.298 0.61776 0.0
C858 C 0.75708 0.28008 0.63841 0.0
C859 C 0.73881 0.27135 0.64366 0.0
C860 C 0.72659 0.31351 0.58068 0.0
C861 C 0.74147 0.29448 0.60947 0.0
C862 C 0.72936 0.32402 0.563 0.0
C863 C 0.74858 0.32654 0.55535 0.0
C864 C 0.74322 0.30585 0.5908 0.0
C865 C 0.76469 0.31868 0.56603 0.0
C866 C 0.75847 0.29157 0.62146 0.0
C867 C 0.72205 0.27465 0.63137 0.0
N868 N 0.76163 0.30879 0.58314 0.0
N869 N 0.72375 0.28602 0.61481 0.0
H870 H 0.52886 0.97363 0.64947 0.0
H871 H 0.56706 0.91991 0.74809 0.0
H872 H 0.51726 0.91174 0.66232 0.0
H873 H 0.58403 0.98034 0.73389 0.0
H874 H 0.54846 0.9171 0.71675 0.0
H875 H 0.54872 0.97684 0.68035 0.0
C876 C 0.53046 0.96073 0.6588 0.0
C877 C 0.52138 0.94237 0.65329 0.0
C878 C 0.55626 0.93098 0.72042 0.0
C879 C 0.54414 0.94593 0.68856 0.0
C880 C 0.5669 0.93263 0.73838 0.0
C881 C 0.57712 0.95043 0.7437 0.0
C882 C 0.5557 0.94727 0.7076 0.0
C883 C 0.57637 0.96635 0.73041 0.0
C884 C 0.54188 0.96255 0.67636 0.0
C885 C 0.52418 0.9261 0.66582 0.0
N886 N 0.56578 0.96441 0.71298 0.0
N887 N 0.53523 0.92829 0.68286 0.0
H888 H 0.84079 0.25307 0.77817 0.0
H889 H 0.93874 0.21205 0.83181 0.0
H890 H 0.85204 0.19008 0.78144 0.0
H891 H 0.93182 0.27234 0.81165 0.0
H892 H 0.90584 0.20334 0.81699 0.0
H893 H 0.87277 0.26011 0.79457 0.0
C894 C 0.85003 0.24068 0.78226 0.0
C895 C 0.84382 0.22095 0.77809 0.0
C896 C 0.91164 0.21843 0.81584 0.0
C897 C 0.88056 0.22895 0.79723 0.0
C898 C 0.93037 0.22341 0.82428 0.0
C899 C 0.9381 0.24295 0.82296 0.0
C900 C 0.90055 0.23317 0.80629 0.0
C901 C 0.92659 0.25707 0.81303 0.0
C902 C 0.8683 0.24472 0.79171 0.0
C903 C 0.85622 0.20552 0.78437 0.0
N904 N 0.90845 0.25192 0.80519 0.0
N905 N 0.87409 0.20984 0.79356 0.0
H906 H 0.48265 0.83002 0.5092 0.0
H907 H 0.49284 0.82794 0.39069 0.0
H908 H 0.46814 0.87859 0.47061 0.0
H909 H 0.49474 0.77409 0.42493 0.0
H910 H 0.48745 0.847 0.42099 0.0
H911 H 0.49045 0.80956 0.47963 0.0
C912 C 0.48114 0.83636 0.49454 0.0
C913 C 0.47455 0.85595 0.49232 0.0
C914 C 0.48904 0.83102 0.42198 0.0
C915 C 0.48352 0.83283 0.45866 0.0
C916 C 0.49218 0.82006 0.40462 0.0
C917 C 0.49413 0.79929 0.40518 0.0
C918 C 0.48784 0.82128 0.44024 0.0
C919 C 0.49324 0.79006 0.42379 0.0
C920 C 0.48551 0.82468 0.47772 0.0
C921 C 0.47282 0.86346 0.47302 0.0
N922 N 0.4901 0.80113 0.44063 0.0
N923 N 0.47729 0.85192 0.45702 0.0
H924 H 0.1375 0.2192 0.77923 0.0
H925 H 0.04606 0.2859 0.81221 0.0
H926 H 0.13616 0.28332 0.77605 0.0
H927 H 0.05107 0.22485 0.83067 0.0
H928 H 0.07817 0.28376 0.79652 0.0
H929 H 0.10509 0.21955 0.79588 0.0
C930 C 0.13042 0.23331 0.78204 0.0
C931 C 0.13962 0.25128 0.77637 0.0
C932 C 0.07235 0.27079 0.80401 0.0
C933 C 0.1027 0.25176 0.79521 0.0
C934 C 0.0539 0.27196 0.81296 0.0
C935 C 0.04577 0.25551 0.82282 0.0
C936 C 0.08293 0.25298 0.8047 0.0
C937 C 0.05679 0.23791 0.82327 0.0
C938 C 0.11202 0.2335 0.79161 0.0
C939 C 0.12983 0.26914 0.78043 0.0
N940 N 0.07483 0.23706 0.81426 0.0
N941 N 0.11195 0.2689 0.78949 0.0
H942 H 0.48791 0.60952 0.45142 0.0
H943 H 0.54873 0.70327 0.40958 0.0
H944 H 0.55089 0.61985 0.46206 0.0
H945 H 0.48725 0.68984 0.39381 0.0
H946 H 0.54962 0.67304 0.42928 0.0
H947 H 0.48714 0.63921 0.43082 0.0
C948 C 0.50157 0.61806 0.44947 0.0
C949 C 0.51949 0.61217 0.45852 0.0
C950 C 0.53594 0.67666 0.42148 0.0
C951 C 0.51874 0.64616 0.43483 0.0
C952 C 0.53541 0.69396 0.41023 0.0
C953 C 0.51788 0.69914 0.40002 0.0
C954 C 0.51878 0.66445 0.42265 0.0
C955 C 0.5011 0.68644 0.40141 0.0
C956 C 0.50114 0.63495 0.43761 0.0
C957 C 0.53678 0.62368 0.45522 0.0
N958 N 0.50195 0.66973 0.41256 0.0
N959 N 0.53595 0.64013 0.44372 0.0
H960 H 0.8761 0.83171 0.72702 0.0
H961 H 0.96802 0.79063 0.66514 0.0
H962 H 0.92773 0.80609 0.7551 0.0
H963 H 0.91436 0.81404 0.63881 0.0
H964 H 0.95396 0.79586 0.69822 0.0
H965 H 0.89044 0.82531 0.6946 0.0
C966 C 0.89057 0.82488 0.72637 0.0
C967 C 0.90083 0.81963 0.74383 0.0
C968 C 0.94529 0.79979 0.68517 0.0
C969 C 0.91729 0.81193 0.70656 0.0
C970 C 0.95329 0.79681 0.66629 0.0
C971 C 0.94238 0.80195 0.64914 0.0
C972 C 0.92628 0.808 0.68689 0.0
C973 C 0.92337 0.80989 0.65155 0.0
C974 C 0.8987 0.82107 0.7078 0.0
C975 C 0.9193 0.81033 0.74201 0.0
N976 N 0.91598 0.81269 0.67003 0.0
N977 N 0.927 0.80684 0.72368 0.0
H978 H 0.06476 0.88633 0.4989 0.0
H979 H 0.97746 0.86403 0.57198 0.0
H980 H 0.03339 0.93353 0.52848 0.0
H981 H 0.02611 0.82338 0.56592 0.0
H982 H 0.99698 0.8894 0.55485 0.0
H983 H 0.05036 0.86243 0.52215 0.0
C984 C 0.05504 0.89165 0.51047 0.0
C985 C 0.05018 0.91186 0.51181 0.0
C986 C 0.00348 0.87501 0.55749 0.0
C987 C 0.03347 0.88472 0.53808 0.0
C988 C 0.99232 0.86051 0.56716 0.0
C989 C 0.00016 0.84157 0.57026 0.0
C990 C 0.02243 0.87039 0.55044 0.0
C991 C 0.01954 0.83782 0.56383 0.0
C992 C 0.04691 0.87807 0.52373 0.0
C993 C 0.03757 0.91807 0.52705 0.0
N994 N 0.02993 0.85202 0.55391 0.0
N995 N 0.02938 0.90449 0.53941 0.0
H996 H 0.13994 0.77043 0.67146 0.0
H997 H 0.02762 0.7488 0.63703 0.0
H998 H 0.10787 0.71683 0.68714 0.0
H999 H 0.06649 0.7895 0.60631 0.0
H1000 H 0.05627 0.73772 0.65669 0.0
H1001 H 0.11264 0.77868 0.64857 0.0
C1002 C 0.12717 0.76037 0.66998 0.0
C1003 C 0.1261 0.74296 0.6812 0.0
C1004 C 0.05854 0.74896 0.64553 0.0
C1005 C 0.09478 0.75235 0.65524 0.0
C1006 C 0.04219 0.75534 0.63435 0.0
C1007 C 0.04466 0.77016 0.62006 0.0
C1008 C 0.07742 0.75768 0.64261 0.0
C1009 C 0.06389 0.77804 0.61716 0.0
C1010 C 0.11165 0.76502 0.65688 0.0
C1011 C 0.10931 0.73033 0.67864 0.0
N1012 N 0.0795 0.77185 0.62848 0.0
N1013 N 0.09419 0.73539 0.66609 0.0
H1014 H 0.9441 0.64149 0.52909 0.0
H1015 H 0.93631 0.75959 0.53737 0.0
H1016 H 0.92785 0.67773 0.47916 0.0
H1017 H 0.97319 0.72594 0.57741 0.0
H1018 H 0.92955 0.72923 0.5176 0.0
H1019 H 0.95125 0.67188 0.54893 0.0
C1020 C 0.94195 0.65586 0.52237 0.0
C1021 C 0.93537 0.65717 0.5025 0.0
C1022 C 0.93916 0.72852 0.53068 0.0
C1023 C 0.94345 0.69185 0.52502 0.0
C1024 C 0.94297 0.74581 0.54202 0.0
C1025 C 0.95534 0.74529 0.55907 0.0
C1026 C 0.94751 0.7105 0.53659 0.0
C1027 C 0.96363 0.72702 0.56434 0.0
C1028 C 0.94615 0.67316 0.53362 0.0
C1029 C 0.93301 0.67612 0.4944 0.0
N1030 N 0.95945 0.7103 0.5532 0.0
N1031 N 0.93694 0.69274 0.50573 0.0
H1032 H 0.78923 0.85692 0.19606 0.0
H1033 H 0.81208 0.9429 0.27693 0.0
H1034 H 0.77981 0.85138 0.25917 0.0
H1035 H 0.83984 0.94359 0.21939 0.0
H1036 H 0.79726 0.91059 0.26871 0.0
H1037 H 0.80588 0.88938 0.20261 0.0
C1038 C 0.79078 0.86241 0.21127 0.0
C1039 C 0.78282 0.85149 0.22707 0.0
C1040 C 0.80661 0.91772 0.25783 0.0
C1041 C 0.80153 0.88861 0.23454 0.0
C1042 C 0.81504 0.93631 0.26247 0.0
C1043 C 0.82733 0.94604 0.24885 0.0
C1044 C 0.81027 0.90863 0.23933 0.0
C1045 C 0.83051 0.9366 0.23035 0.0
C1046 C 0.8002 0.88096 0.21496 0.0
C1047 C 0.78519 0.85943 0.24645 0.0
N1048 N 0.82198 0.91837 0.22609 0.0
N1049 N 0.79417 0.87749 0.24959 0.0
H1050 H 0.78358 0.14135 0.21666 0.0
H1051 H 0.82317 0.05744 0.28923 0.0
H1052 H 0.78622 0.14664 0.2808 0.0
H1053 H 0.83617 0.05606 0.22649 0.0
H1054 H 0.80795 0.08959 0.28534 0.0
H1055 H 0.80129 0.10963 0.21883 0.0
C1056 C 0.78794 0.1359 0.23115 0.0
C1057 C 0.7835 0.14673 0.24857 0.0
C1058 C 0.81417 0.08238 0.27237 0.0
C1059 C 0.80358 0.11061 0.25114 0.0
C1060 C 0.82282 0.0639 0.27456 0.0
C1061 C 0.83092 0.05395 0.25813 0.0
C1062 C 0.81332 0.09111 0.25355 0.0
C1063 C 0.83013 0.06324 0.23955 0.0
C1064 C 0.79812 0.1179 0.23236 0.0
C1065 C 0.78958 0.13904 0.26695 0.0
N1066 N 0.82133 0.0813 0.2377 0.0
N1067 N 0.79917 0.12148 0.26772 0.0
H1068 H 0.35891 0.97282 0.95806 0.0
H1069 H 0.27078 0.91637 0.01327 0.0
H1070 H 0.34731 0.9857 0.01995 0.0
H1071 H 0.30754 0.88904 0.96879 0.0
H1072 H 0.29225 0.94663 0.01233 0.0
H1073 H 0.33278 0.94711 0.95795 0.0
C1074 C 0.35082 0.97032 0.97163 0.0
C1075 C 0.35571 0.98111 0.9892 0.0
C1076 C 0.29544 0.93398 0.00276 0.0
C1077 C 0.32543 0.95192 0.98898 0.0
C1078 C 0.28323 0.91682 0.00323 0.0
C1079 C 0.28755 0.90018 0.99121 0.0
C1080 C 0.31159 0.93456 0.98975 0.0
C1081 C 0.30383 0.90145 0.97847 0.0
C1082 C 0.33585 0.95569 0.9715 0.0
C1083 C 0.34414 0.97767 0.00611 0.0
N1084 N 0.31517 0.91835 0.97801 0.0
N1085 N 0.3296 0.9632 0.00565 0.0
H1086 H 0.27253 0.4185 0.29976 0.0
H1087 H 0.16081 0.42528 0.33187 0.0
H1088 H 0.25499 0.40963 0.36064 0.0
H1089 H 0.18373 0.46272 0.28561 0.0
H1090 H 0.19492 0.4165 0.34097 0.0
H1091 H 0.23998 0.43271 0.2927 0.0
C1092 C 0.26205 0.41978 0.31176 0.0
C1093 C 0.26658 0.41258 0.33083 0.0
C1094 C 0.19248 0.42675 0.32892 0.0
C1095 C 0.22905 0.42831 0.32254 0.0
C1096 C 0.17304 0.43167 0.32364 0.0
C1097 C 0.16946 0.44469 0.30792 0.0
C1098 C 0.20845 0.43454 0.31812 0.0
C1099 C 0.18587 0.45265 0.29785 0.0
C1100 C 0.24341 0.42781 0.30763 0.0
C1101 C 0.25209 0.41442 0.34558 0.0
N1102 N 0.20469 0.44724 0.30295 0.0
N1103 N 0.2339 0.42182 0.34105 0.0
H1104 H 0.1521 0.0562 0.41711 0.0
H1105 H 0.23047 0.11435 0.48919 0.0
H1106 H 0.14311 0.06528 0.48009 0.0
H1107 H 0.24111 0.09914 0.42759 0.0
H1108 H 0.19651 0.10067 0.48527 0.0
H1109 H 0.18261 0.07639 0.41982 0.0
C1110 C 0.15636 0.0627 0.43147 0.0
C1111 C 0.14506 0.05891 0.44843 0.0
C1112 C 0.20625 0.10048 0.47259 0.0
C1113 C 0.18029 0.08178 0.45171 0.0
C1114 C 0.22562 0.10833 0.4748 0.0
C1115 C 0.23873 0.1077 0.45875 0.0
C1116 C 0.19996 0.09203 0.45419 0.0
C1117 C 0.23161 0.09976 0.44044 0.0
C1118 C 0.1739 0.07411 0.43304 0.0
C1119 C 0.15153 0.06753 0.46669 0.0
N1120 N 0.21278 0.09215 0.43871 0.0
N1121 N 0.16879 0.07845 0.46788 0.0
H1122 H 0.68865 0.12433 0.77413 0.0
H1123 H 0.64608 0.0197 0.73127 0.0
H1124 H 0.68981 0.10734 0.71191 0.0
H1125 H 0.63949 0.03954 0.79225 0.0
H1126 H 0.66167 0.05183 0.72374 0.0
H1127 H 0.67024 0.09352 0.78093 0.0
C1128 C 0.68501 0.11411 0.76189 0.0
C1129 C 0.69089 0.11837 0.74244 0.0
C1130 C 0.65673 0.04919 0.73875 0.0
C1131 C 0.66973 0.08303 0.75011 0.0
C1132 C 0.64784 0.03083 0.74308 0.0
C1133 C 0.64153 0.02686 0.76246 0.0
C1134 C 0.65945 0.06371 0.75393 0.0
C1135 C 0.64415 0.0419 0.77711 0.0
C1136 C 0.67441 0.09655 0.76577 0.0
C1137 C 0.68547 0.10472 0.72711 0.0
N1138 N 0.653 0.0596 0.77257 0.0
N1139 N 0.67533 0.08761 0.73129 0.0
H1140 H 0.39867 -0.00064 0.50517 0.0
H1141 H 0.32886 0.09291 0.52497 0.0
H1142 H 0.38437 0.02003 0.56434 0.0
H1143 H 0.34368 0.06973 0.4668 0.0
H1144 H 0.34968 0.06735 0.54011 0.0
H1145 H 0.379 0.02595 0.49127 0.0
C1146 C 0.39125 0.00943 0.51526 0.0
C1147 C 0.39299 0.0073 0.53596 0.0
C1148 C 0.34837 0.06794 0.52404 0.0
C1149 C 0.37054 0.03815 0.52007 0.0
C1150 C 0.33652 0.08253 0.51539 0.0
C1151 C 0.33446 0.08345 0.49457 0.0
C1152 C 0.3582 0.05425 0.51176 0.0
C1153 C 0.34472 0.06961 0.4829 0.0
C1154 C 0.3801 0.02474 0.50731 0.0
C1155 C 0.38346 0.02116 0.54829 0.0
N1156 N 0.35607 0.05562 0.49165 0.0
N1157 N 0.37255 0.03598 0.54015 0.0
H1158 H 0.62502 0.48015 0.50669 0.0
H1159 H 0.65947 0.36692 0.51648 0.0
H1160 H 0.58483 0.43158 0.52058 0.0
H1161 H 0.69892 0.41564 0.50118 0.0
H1162 H 0.63189 0.3902 0.51796 0.0
H1163 H 0.65215 0.45657 0.50435 0.0
C1164 C 0.62184 0.4645 0.50911 0.0
C1165 C 0.60254 0.45788 0.51382 0.0
C1166 C 0.64658 0.39579 0.51425 0.0
C1167 C 0.63373 0.43074 0.5114 0.0
C1168 C 0.66235 0.38249 0.5134 0.0
C1169 C 0.68158 0.38931 0.50871 0.0
C1170 C 0.65004 0.41607 0.51041 0.0
C1171 C 0.68438 0.40968 0.50487 0.0
C1172 C 0.6374 0.45104 0.50789 0.0
C1173 C 0.59948 0.43743 0.51716 0.0
N1174 N 0.66881 0.4223 0.50583 0.0
N1175 N 0.61489 0.42461 0.51588 0.0
H1176 H 0.76308 0.28508 0.35135 0.0
H1177 H 0.71475 0.33752 0.4464 0.0
H1178 H 0.69937 0.28714 0.35868 0.0
H1179 H 0.77587 0.31888 0.44328 0.0
H1180 H 0.70854 0.32285 0.41295 0.0
H1181 H 0.76782 0.30166 0.3836 0.0
C1182 C 0.75005 0.28894 0.35978 0.0
C1183 C 0.73079 0.28439 0.35238 0.0
C1184 C 0.72327 0.32201 0.41969 0.0
C1185 C 0.73615 0.30374 0.38941 0.0
C1186 C 0.72683 0.33037 0.43873 0.0
C1187 C 0.74584 0.32938 0.44771 0.0
C1188 C 0.73892 0.31287 0.40956 0.0
C1189 C 0.76094 0.31995 0.43708 0.0
C1190 C 0.75278 0.2985 0.3782 0.0
C1191 C 0.71449 0.29037 0.36377 0.0
N1192 N 0.75716 0.31217 0.41862 0.0
N1193 N 0.71753 0.29967 0.38179 0.0
H1194 H 0.52473 0.04299 0.91189 0.0
H1195 H 0.575 0.94914 0.85968 0.0
H1196 H 0.52197 0.98316 0.93435 0.0
H1197 H 0.58314 0.00925 0.83896 0.0
H1198 H 0.55678 0.96196 0.88796 0.0
H1199 H 0.54764 0.03171 0.8862 0.0
C1200 C 0.52915 0.02755 0.91159 0.0
C1201 C 0.52125 0.01395 0.92516 0.0
C1202 C 0.56262 0.97241 0.87732 0.0
C1203 C 0.54722 0.0009 0.8957 0.0
C1204 C 0.57301 0.96508 0.86109 0.0
C1205 C 0.58051 0.97812 0.84681 0.0
C1206 C 0.5595 0.99297 0.87931 0.0
C1207 C 0.57757 0.99865 0.84958 0.0
C1208 C 0.54213 0.0211 0.89686 0.0
C1209 C 0.52736 0.99409 0.92396 0.0
N1210 N 0.56715 0.00544 0.86544 0.0
N1211 N 0.53984 0.98816 0.90943 0.0
H1212 H 0.33622 0.28319 0.43292 0.0
H1213 H 0.33221 0.1646 0.41899 0.0
H1214 H 0.35853 0.25137 0.38179 0.0
H1215 H 0.311 0.19485 0.47156 0.0
H1216 H 0.34366 0.19643 0.40627 0.0
H1217 H 0.32855 0.25123 0.44841 0.0
C1218 C 0.33961 0.26951 0.42499 0.0
C1219 C 0.348 0.27 0.40598 0.0
C1220 C 0.33658 0.19616 0.42063 0.0
C1221 C 0.3393 0.23342 0.42363 0.0
C1222 C 0.32999 0.17795 0.42792 0.0
C1223 C 0.32049 0.17703 0.44634 0.0
C1224 C 0.33359 0.21373 0.43174 0.0
C1225 C 0.3182 0.19486 0.45726 0.0
C1226 C 0.33529 0.25128 0.43388 0.0
C1227 C 0.35231 0.25179 0.39654 0.0
N1228 N 0.32459 0.21252 0.44973 0.0
N1229 N 0.3478 0.2343 0.4054 0.0
H1230 H 0.48329 0.44722 0.84936 0.0
H1231 H 0.42567 0.51623 0.77373 0.0
H1232 H 0.50158 0.50886 0.84324 0.0
H1233 H 0.396 0.47405 0.81147 0.0
H1234 H 0.45728 0.50991 0.79165 0.0
H1235 H 0.45492 0.45288 0.82715 0.0
C1236 C 0.48142 0.46195 0.84333 0.0
C1237 C 0.49462 0.47773 0.84867 0.0
C1238 C 0.4438 0.50206 0.79585 0.0
C1239 C 0.46244 0.48403 0.8227 0.0
C1240 C 0.42586 0.50558 0.78567 0.0
C1241 C 0.40825 0.49573 0.79127 0.0
C1242 C 0.44408 0.48816 0.81122 0.0
C1243 C 0.40921 0.4821 0.80683 0.0
C1244 C 0.46528 0.46509 0.83057 0.0
C1245 C 0.4918 0.49626 0.83965 0.0
N1246 N 0.42685 0.47861 0.81616 0.0
N1247 N 0.4759 0.49896 0.82716 0.0
H1248 H 0.75074 0.71934 0.11031 0.0
H1249 H 0.76663 0.60922 0.06615 0.0
H1250 H 0.74513 0.66649 0.14563 0.0
H1251 H 0.7735 0.663 0.03237 0.0
H1252 H 0.75755 0.6295 0.09517 0.0
H1253 H 0.75797 0.69852 0.08136 0.0
C1254 C 0.75111 0.70333 0.112 0.0
C1255 C 0.74749 0.69467 0.13049 0.0
C1256 C 0.76102 0.63683 0.08138 0.0
C1257 C 0.75559 0.67062 0.09723 0.0
C1258 C 0.76619 0.62526 0.0648 0.0
C1259 C 0.77089 0.63441 0.04679 0.0
C1260 C 0.76052 0.65768 0.07992 0.0
C1261 C 0.77006 0.65527 0.04593 0.0
C1262 C 0.75514 0.69142 0.09541 0.0
C1263 C 0.74772 0.67379 0.13165 0.0
N1264 N 0.76502 0.66615 0.06224 0.0
N1265 N 0.7518 0.66247 0.11526 0.0
H1266 H 0.97933 0.00754 0.12964 0.0
H1267 H 0.86728 0.01702 0.16765 0.0
H1268 H 0.93022 0.02531 0.09201 0.0
H1269 H 0.91657 -0.001 0.20493 0.0
H1270 H 0.88993 0.01974 0.13965 0.0
H1271 H 0.95639 0.00377 0.15719 0.0
C1272 C 0.9637 0.01052 0.12711 0.0
C1273 C 0.95674 0.01675 0.10842 0.0
C1274 C 0.89578 0.01517 0.15395 0.0
C1275 C 0.93034 0.01268 0.14008 0.0
C1276 C 0.88285 0.0136 0.16996 0.0
C1277 C 0.89001 0.0078 0.18871 0.0
C1278 C 0.91606 0.0109 0.15667 0.0
C1279 C 0.91035 0.00355 0.19078 0.0
C1280 C 0.95061 0.00848 0.14291 0.0
C1281 C 0.93634 0.02072 0.10619 0.0
N1282 N 0.92264 0.00521 0.17498 0.0
N1283 N 0.92388 0.01861 0.12181 0.0
H1284 H 0.24179 0.78526 0.14381 0.0
H1285 H 0.26523 0.78897 0.02858 0.0
H1286 H 0.25364 0.73263 0.10855 0.0
H1287 H 0.23112 0.8346 0.0576 0.0
H1288 H 0.26323 0.76898 0.05852 0.0
H1289 H 0.23969 0.80456 0.11315 0.0
C1290 C 0.24383 0.77777 0.12959 0.0
C1291 C 0.24792 0.75735 0.12867 0.0
C1292 C 0.25607 0.78331 0.05831 0.0
C1293 C 0.24576 0.77929 0.0937 0.0
C1294 C 0.25729 0.79478 0.04126 0.0
C1295 C 0.24839 0.81352 0.04062 0.0
C1296 C 0.24618 0.79073 0.07502 0.0
C1297 C 0.23817 0.82022 0.05746 0.0
C1298 C 0.24255 0.78875 0.11214 0.0
C1299 C 0.25033 0.74832 0.1099 0.0
N1300 N 0.23752 0.80891 0.07408 0.0
N1301 N 0.24943 0.75939 0.09317 0.0
H1302 H 0.02208 0.39702 0.16176 0.0
H1303 H 0.09377 0.47364 0.22293 0.0
H1304 H 0.03232 0.45812 0.14503 0.0
H1305 H 0.07904 0.4143 0.24253 0.0
H1306 H 0.07433 0.467 0.19236 0.0
H1307 H 0.04578 0.40195 0.18952 0.0
C1308 C 0.02945 0.41143 0.16382 0.0
C1309 C 0.02512 0.42722 0.15112 0.0
C1310 C 0.07547 0.45539 0.2033 0.0
C1311 C 0.05216 0.43301 0.18298 0.0
C1312 C 0.08663 0.45914 0.22074 0.0
C1313 C 0.08792 0.44456 0.23542 0.0
C1314 C 0.06553 0.43692 0.20049 0.0
C1315 C 0.07836 0.42604 0.23171 0.0
C1316 C 0.04291 0.41426 0.17974 0.0
C1317 C 0.03496 0.44563 0.15465 0.0
N1318 N 0.06748 0.4228 0.21468 0.0
N1319 N 0.04797 0.44803 0.17027 0.0
H1320 H 0.36437 0.69103 0.27946 0.0
H1321 H 0.44276 0.77802 0.30927 0.0
H1322 H 0.35685 0.75309 0.26575 0.0
H1323 H 0.44666 0.71882 0.33307 0.0
H1324 H 0.41202 0.76819 0.29195 0.0
H1325 H 0.39496 0.70005 0.29824 0.0
C1326 C 0.36905 0.70655 0.28048 0.0
C1327 C 0.35804 0.72131 0.27086 0.0
C1328 C 0.41952 0.7573 0.30097 0.0
C1329 C 0.39314 0.73164 0.29211 0.0
C1330 C 0.43718 0.76289 0.31086 0.0
C1331 C 0.44739 0.74922 0.32268 0.0
C1332 C 0.4119 0.73782 0.30272 0.0
C1333 C 0.43928 0.72985 0.32414 0.0
C1334 C 0.38656 0.71165 0.29113 0.0
C1335 C 0.365 0.74113 0.27253 0.0
N1336 N 0.42201 0.72469 0.31422 0.0
N1337 N 0.38208 0.74567 0.28286 0.0
H1338 H 0.97702 0.31737 0.00887 0.0
H1339 H 0.98398 0.32105 0.89021 0.0
H1340 H 0.95953 0.36711 0.9731 0.0
H1341 H 0.98928 0.26603 0.92214 0.0
H1342 H 0.9785 0.3386 0.92144 0.0
H1343 H 0.98468 0.29867 0.97818 0.0
C1344 C 0.9748 0.32433 0.99459 0.0
C1345 C 0.96744 0.34374 0.9935 0.0
C1346 C 0.98087 0.32268 0.9217 0.0
C1347 C 0.97628 0.32262 0.95856 0.0
C1348 C 0.98407 0.31262 0.90381 0.0
C1349 C 0.98698 0.29196 0.90348 0.0
C1350 C 0.9806 0.31214 0.93955 0.0
C1351 C 0.98701 0.28194 0.92169 0.0
C1352 C 0.9791 0.31365 0.97713 0.0
C1353 C 0.96481 0.35207 0.97465 0.0
N1354 N 0.98381 0.29213 0.93904 0.0
N1355 N 0.96926 0.3415 0.95799 0.0
H1356 H 0.63956 0.71592 0.27752 0.0
H1357 H 0.55794 0.78982 0.31963 0.0
H1358 H 0.64605 0.78002 0.28021 0.0
H1359 H 0.55578 0.72693 0.33211 0.0
H1360 H 0.58959 0.78551 0.30345 0.0
H1361 H 0.6082 0.71859 0.2958 0.0
C1362 C 0.63443 0.73051 0.28199 0.0
C1363 C 0.64552 0.74777 0.27746 0.0
C1364 C 0.58232 0.77259 0.30976 0.0
C1365 C 0.60982 0.7509 0.29818 0.0
C1366 C 0.56414 0.77504 0.31898 0.0
C1367 C 0.55412 0.75869 0.32721 0.0
C1368 C 0.59064 0.7536 0.30848 0.0
C1369 C 0.56304 0.73994 0.32599 0.0
C1370 C 0.61663 0.732 0.29249 0.0
C1371 C 0.63823 0.76628 0.28365 0.0
N1372 N 0.58079 0.73785 0.31665 0.0
N1373 N 0.62087 0.76733 0.29357 0.0
H1374 H 0.9857 0.1088 0.9561 0.0
H1375 H 0.04242 0.20315 0.91045 0.0
H1376 H 0.04776 0.12331 0.96778 0.0
H1377 H 0.98303 0.18414 0.89201 0.0
H1378 H 0.0442 0.17458 0.93238 0.0
H1379 H 0.98385 0.13712 0.93369 0.0
C1380 C -0.00109 0.118 0.95403 0.0
C1381 C 0.01693 0.11364 0.96382 0.0
C1382 C 0.03079 0.17661 0.9235 0.0
C1383 C 0.01494 0.14602 0.93809 0.0
C1384 C 0.02976 0.19294 0.91096 0.0
C1385 C 0.01254 0.19607 0.89935 0.0
C1386 C 0.01444 0.16332 0.92459 0.0
C1387 C 0.99662 0.1823 0.90065 0.0
C1388 C 0.99788 0.13409 0.94113 0.0
C1389 C 0.03363 0.12595 0.96038 0.0
N1390 N 0.99792 0.16658 0.91309 0.0
N1391 N 0.03222 0.14157 0.94786 0.0
H1392 H 0.44119 0.33324 0.26887 0.0
H1393 H 0.42116 0.31978 0.15154 0.0
H1394 H 0.38733 0.3507 0.2383 0.0
H1395 H 0.47629 0.30332 0.18042 0.0
H1396 H 0.40927 0.33222 0.18332 0.0
H1397 H 0.45506 0.32331 0.23677 0.0
C1398 C 0.43232 0.33507 0.25542 0.0
C1399 C 0.41304 0.34283 0.25632 0.0
C1400 C 0.42399 0.32594 0.18275 0.0
C1401 C 0.42883 0.33151 0.21957 0.0
C1402 C 0.43081 0.31878 0.16457 0.0
C1403 C 0.44975 0.31039 0.16328 0.0
C1404 C 0.43613 0.32469 0.19991 0.0
C1405 C 0.46157 0.30962 0.18072 0.0
C1406 C 0.44027 0.32946 0.23711 0.0
C1407 C 0.40234 0.34508 0.23837 0.0
N1408 N 0.45454 0.31662 0.19834 0.0
N1409 N 0.41033 0.33936 0.22081 0.0
H1410 H 0.50552 0.39853 0.99192 0.0
H1411 H 0.52666 0.32394 0.08131 0.0
H1412 H 0.56487 0.38663 0.01384 0.0
H1413 H 0.46846 0.33487 0.05577 0.0
H1414 H 0.54122 0.34739 0.05777 0.0
H1415 H 0.49198 0.37589 0.0163 0.0
C1416 C 0.51574 0.39103 0.00181 0.0
C1417 C 0.5364 0.3943 0.00065 0.0
C1418 C 0.52528 0.34463 0.05737 0.0
C1419 C 0.52089 0.3684 0.02895 0.0
C1420 C 0.51694 0.33125 0.07079 0.0
C1421 C 0.49629 0.3274 0.07052 0.0
C1422 C 0.51285 0.35422 0.04364 0.0
C1423 C 0.48445 0.33731 0.05656 0.0
C1424 C 0.50798 0.37816 0.01584 0.0
C1425 C 0.54885 0.38457 0.01425 0.0
N1426 N 0.49289 0.35022 0.04373 0.0
N1427 N 0.54091 0.37196 0.0278 0.0
H1428 H 0.63363 0.21595 0.18337 0.0
H1429 H 0.54666 0.29069 0.15554 0.0
H1430 H 0.63291 0.27738 0.20354 0.0
H1431 H 0.5543 0.23423 0.1251 0.0
H1432 H 0.57755 0.28544 0.17429 0.0
H1433 H 0.6041 0.22181 0.16265 0.0
C1434 C 0.62741 0.23072 0.18333 0.0
C1435 C 0.63579 0.24617 0.19534 0.0
C1436 C 0.57252 0.27423 0.16345 0.0
C1437 C 0.60172 0.25286 0.17187 0.0
C1438 C 0.55485 0.27719 0.15277 0.0
C1439 C 0.54785 0.26285 0.13874 0.0
C1440 C 0.58323 0.25672 0.16025 0.0
C1441 C 0.55914 0.24569 0.13575 0.0
C1442 C 0.61047 0.23402 0.17156 0.0
C1443 C 0.6268 0.2649 0.19486 0.0
N1444 N 0.57622 0.24305 0.14649 0.0
N1445 N 0.61024 0.26768 0.18342 0.0
H1446 H 0.48439 0.1404 0.03676 0.0
H1447 H 0.43149 0.22823 0.09291 0.0
H1448 H 0.42746 0.13151 0.06475 0.0
H1449 H 0.49558 0.22457 0.09167 0.0
H1450 H 0.4288 0.19399 0.07982 0.0
H1451 H 0.48811 0.17246 0.05412 0.0
C1452 C 0.47275 0.14496 0.04672 0.0
C1453 C 0.45555 0.13302 0.04921 0.0
C1454 C 0.44344 0.20064 0.08259 0.0
C1455 C 0.45956 0.1702 0.06865 0.0
C1456 C 0.44499 0.22018 0.08998 0.0
C1457 C 0.46379 0.22925 0.09333 0.0
C1458 C 0.46079 0.19028 0.07809 0.0
C1459 C 0.4808 0.21811 0.08936 0.0
C1460 C 0.47489 0.16338 0.05654 0.0
C1461 C 0.4408 0.14024 0.06196 0.0
N1462 N 0.4789 0.19927 0.08169 0.0
N1463 N 0.44307 0.15843 0.07104 0.0
H1464 H 0.24967 0.37453 0.74092 0.0
H1465 H 0.34446 0.4451 0.72096 0.0
H1466 H 0.30291 0.35308 0.71314 0.0
H1467 H 0.29862 0.45894 0.76302 0.0
H1468 H 0.32721 0.41321 0.71321 0.0
H1469 H 0.26541 0.40742 0.74465 0.0
C1470 C 0.26471 0.37667 0.73568 0.0
C1471 C 0.27504 0.36085 0.72693 0.0
C1472 C 0.32092 0.42333 0.72404 0.0
C1473 C 0.29304 0.39875 0.73082 0.0
C1474 C 0.33068 0.44155 0.72838 0.0
C1475 C 0.32304 0.45463 0.74276 0.0
C1476 C 0.3033 0.41834 0.73397 0.0
C1477 C 0.30516 0.44925 0.75197 0.0
C1478 C 0.27365 0.39552 0.7377 0.0
C1479 C 0.2943 0.3648 0.71989 0.0
N1480 N 0.29594 0.43155 0.74744 0.0
N1481 N 0.30271 0.38334 0.72205 0.0
H1482 H 0.25334 0.62681 0.72484 0.0
H1483 H 0.33409 0.56899 0.78639 0.0
H1484 H 0.2844 0.65313 0.776 0.0
H1485 H 0.32379 0.55615 0.72386 0.0
H1486 H 0.31465 0.59918 0.78329 0.0
H1487 H 0.27771 0.60015 0.72425 0.0
C1488 C 0.26536 0.62718 0.73581 0.0
C1489 C 0.26657 0.6422 0.75067 0.0
C1490 C 0.31683 0.58992 0.77017 0.0
C1491 C 0.29427 0.61147 0.75024 0.0
C1492 C 0.32788 0.57267 0.77194 0.0
C1493 C 0.33049 0.56007 0.75536 0.0
C1494 C 0.30787 0.5944 0.75179 0.0
C1495 C 0.32217 0.56555 0.73698 0.0
C1496 C 0.27923 0.61189 0.73547 0.0
C1497 C 0.28243 0.64163 0.7646 0.0
N1498 N 0.31093 0.58219 0.73573 0.0
N1499 N 0.29547 0.62642 0.76418 0.0
H1500 H 0.82301 0.50869 0.4759 0.0
H1501 H 0.82175 0.39419 0.50754 0.0
H1502 H 0.87475 0.47167 0.47934 0.0
H1503 H 0.76783 0.42612 0.49499 0.0
H1504 H 0.84114 0.4244 0.50186 0.0
H1505 H 0.80238 0.48045 0.48707 0.0
C1506 C 0.83002 0.49468 0.47915 0.0
C1507 C 0.85056 0.4924 0.47648 0.0
C1508 C 0.82507 0.4249 0.50042 0.0
C1509 C 0.82722 0.46025 0.48927 0.0
C1510 C 0.81394 0.40761 0.5037 0.0
C1511 C 0.79311 0.40753 0.50151 0.0
C1512 C 0.81539 0.44234 0.49481 0.0
C1513 C 0.78386 0.42549 0.49674 0.0
C1514 C 0.81826 0.47859 0.48544 0.0
C1515 C 0.85892 0.47396 0.48085 0.0
N1516 N 0.7951 0.44218 0.49337 0.0
N1517 N 0.84724 0.45864 0.48697 0.0
H1518 H 0.75362 0.87667 0.7931 0.0
H1519 H 0.67802 0.96382 0.81435 0.0
H1520 H 0.76244 0.91619 0.84393 0.0
H1521 H 0.65904 0.90598 0.79134 0.0
H1522 H 0.71178 0.9509 0.81968 0.0
H1523 H 0.72137 0.89185 0.78644 0.0
C1524 C 0.7488 0.88869 0.80274 0.0
C1525 C 0.7606 0.89523 0.81908 0.0
C1526 C 0.70017 0.94115 0.81341 0.0
C1527 C 0.72394 0.91271 0.81147 0.0
C1528 C 0.68102 0.94851 0.81025 0.0
C1529 C 0.66578 0.93589 0.80247 0.0
C1530 C 0.70407 0.92127 0.80823 0.0
C1531 C 0.67035 0.91614 0.79749 0.0
C1532 C 0.73041 0.89726 0.79899 0.0
C1533 C 0.75365 0.91072 0.83124 0.0
N1534 N 0.68912 0.90947 0.80034 0.0
N1535 N 0.73574 0.91907 0.82713 0.0
H1536 H 0.66052 0.52692 0.91088 0.0
H1537 H 0.72999 0.59138 0.98697 0.0
H1538 H 0.6468 0.5361 0.97287 0.0
H1539 H 0.74631 0.57607 0.92679 0.0
H1540 H 0.69797 0.57395 0.98132 0.0
H1541 H 0.69054 0.54768 0.9157 0.0
C1542 C 0.66373 0.53345 0.92547 0.0
C1543 C 0.65115 0.52971 0.94151 0.0
C1544 C 0.70854 0.5745 0.96934 0.0
C1545 C 0.68564 0.55336 0.9472 0.0
C1546 C 0.7268 0.5845 0.97253 0.0
C1547 C 0.74093 0.58511 0.95737 0.0
C1548 C 0.70435 0.5651 0.95084 0.0
C1549 C 0.73596 0.57591 0.93896 0.0
C1550 C 0.68094 0.54521 0.92825 0.0
C1551 C 0.65622 0.53836 0.96016 0.0
N1552 N 0.71813 0.56625 0.93624 0.0
N1553 N 0.67309 0.54976 0.9625 0.0
H1554 H 0.19693 0.60768 0.21448 0.0
H1555 H 0.15557 0.54779 0.30771 0.0
H1556 H 0.20697 0.62616 0.27577 0.0
H1557 H 0.14385 0.52963 0.24657 0.0
H1558 H 0.17328 0.57734 0.2961 0.0
H1559 H 0.17615 0.57987 0.22572 0.0
C1560 C 0.19463 0.606 0.23029 0.0
C1561 C 0.20383 0.61922 0.24421 0.0
C1562 C 0.16677 0.56695 0.2852 0.0
C1563 C 0.18023 0.58729 0.25719 0.0
C1564 C 0.15664 0.55005 0.29183 0.0
C1565 C 0.14827 0.53614 0.2781 0.0
C1566 C 0.16865 0.56999 0.26467 0.0
C1567 C 0.1501 0.53992 0.2577 0.0
C1568 C 0.18285 0.59005 0.2367 0.0
C1569 C 0.20049 0.61615 0.26452 0.0
N1570 N 0.16017 0.55644 0.2516 0.0
N1571 N 0.18903 0.6005 0.27038 0.0
H1572 H 0.90173 0.48984 0.01107 0.0
H1573 H 0.82618 0.57912 0.0281 0.0
H1574 H 0.88196 0.5073 0.06949 0.0
H1575 H 0.85047 0.56194 0.97135 0.0
H1576 H 0.84723 0.5543 0.04424 0.0
H1577 H 0.88362 0.51736 0.99687 0.0
C1578 C 0.89347 0.49947 0.02091 0.0
C1579 C 0.89312 0.49612 0.04145 0.0
C1580 C 0.848 0.55612 0.02828 0.0
C1581 C 0.87235 0.52794 0.02527 0.0
C1582 C 0.83604 0.57029 0.01907 0.0
C1583 C 0.83643 0.57252 0.99831 0.0
C1584 C 0.86039 0.54416 0.01661 0.0
C1585 C 0.84948 0.56067 0.98735 0.0
C1586 C 0.88321 0.51529 0.01281 0.0
C1587 C 0.88257 0.50937 0.05356 0.0
N1588 N 0.86081 0.547 0.99661 0.0
N1589 N 0.87243 0.52465 0.04526 0.0
H1590 H 0.10324 0.96507 0.97996 0.0
H1591 H 0.18393 0.89108 0.02525 0.0
H1592 H 0.10946 0.95405 0.04289 0.0
H1593 H 0.18223 0.90932 0.96393 0.0
H1594 H 0.1552 0.91204 0.03182 0.0
H1595 H 0.13072 0.94274 0.97366 0.0
C1596 C 0.11044 0.95803 0.99249 0.0
C1597 C 0.10409 0.96164 0.01202 0.0
C1598 C 0.16112 0.91142 0.01693 0.0
C1599 C 0.13553 0.93571 0.00484 0.0
C1600 C 0.1775 0.89943 0.01316 0.0
C1601 C 0.18555 0.89846 0.99401 0.0
C1602 C 0.15267 0.92244 0.00143 0.0
C1603 C 0.17659 0.90963 0.97893 0.0
C1604 C 0.12609 0.94517 0.98886 0.0
C1605 C 0.11372 0.95164 0.02758 0.0
N1606 N 0.16067 0.92113 0.98296 0.0
N1607 N 0.12899 0.93919 0.02366 0.0
loop_
_geom_bond_atom_site_label_1
_geom_bond_atom_site_label_2
_geom_bond_distance
_geom_bond_site_symmetry_2
_ccdc_geom_bond_type
C0 C1 1.384 . S
C0 H13 0.947 . S
C0 C35 1.382 1_655 S
C1 C0 1.384 . S
C1 C2 1.378 1_655 S
C2 C1 1.378 1_455 S
C2 C3 1.378 . S
C2 H14 0.952 . S
C3 C2 1.378 . S
C3 H15 0.950 . S
C3 C34 1.383 . S
H4 C23 0.944 1_565 S
H5 C24 0.946 . S
H6 C26 0.953 . S
H7 C27 0.945 . S
H8 C29 0.942 1_556 S
H9 C30 0.949 . S
H10 C32 0.950 . S
H11 C33 0.948 . S
H12 C35 0.951 1_655 S
H13 C0 0.947 . S
H14 C2 0.952 . S
H15 C3 0.950 . S
N16 C19 1.382 . S
N16 C21 1.363 . S
N17 C19 1.371 . S
N17 C20 1.372 . S
N18 C20 1.361 . S
N18 C21 1.377 . S
C19 N16 1.382 . S
C19 N17 1.371 . S
C19 C22 1.480 . S
C20 N17 1.372 . S
C20 N18 1.361 . S
C20 C28 1.457 . S
C21 N16 1.363 . S
C21 N18 1.377 . S
C21 C34 1.479 . S
C22 C19 1.480 . S
C22 C23 1.383 . S
C22 C27 1.385 . S
C23 H4 0.944 1_545 S
C23 C22 1.383 . S
C23 C24 1.388 1_545 S
C24 H5 0.946 . S
C24 C23 1.388 1_565 S
C24 C25 1.384 . S
C25 C24 1.384 . S
C25 C26 1.377 1_565 S
C26 H6 0.953 . S
C26 C25 1.377 1_545 S
C26 C27 1.369 . S
C27 H7 0.945 . S
C27 C22 1.385 . S
C27 C26 1.369 . S
C28 C20 1.457 . S
C28 C29 1.418 . S
C28 C33 1.364 . S
C29 H8 0.942 1_554 S
C29 C28 1.418 . S
C29 C30 1.355 1_554 S
C30 H9 0.949 . S
C30 C29 1.355 1_556 S
C30 C31 1.387 . S
C31 C30 1.387 . S
C31 C32 1.372 1_556 S
C32 H10 0.950 . S
C32 C31 1.372 1_554 S
C32 C33 1.379 . S
C33 H11 0.948 . S
C33 C28 1.364 . S
C33 C32 1.379 . S
C34 C3 1.383 . S
C34 C21 1.479 . S
C34 C35 1.398 . S
C35 C0 1.382 1_455 S
C35 H12 0.951 1_455 S
C35 C34 1.398 . S
C36 C37 1.384 . S
C36 H49 0.947 . S
C36 C71 1.382 . S
C37 C36 1.384 . S
C37 C38 1.378 . S
C38 C37 1.378 . S
C38 C39 1.378 . S
C38 H50 0.952 . S
C39 C38 1.378 . S
C39 H51 0.950 . S
C39 C70 1.383 . S
H40 C59 0.947 . S
H41 C60 0.946 . S
H42 C62 0.953 . S
H43 C63 0.945 . S
H44 C65 0.952 . S
H45 C66 0.949 . S
H46 C68 0.950 . S
H47 C69 0.948 . S
H48 C71 0.951 . S
H49 C36 0.947 . S
H50 C38 0.952 . S
H51 C39 0.950 . S
N52 C55 1.382 . S
N52 C57 1.363 . S
N53 C55 1.371 . S
N53 C56 1.372 . S
N54 C56 1.361 . S
N54 C57 1.377 . S
C55 N52 1.382 . S
C55 N53 1.371 . S
C55 C58 1.480 . S
C56 N53 1.372 . S
C56 N54 1.361 . S
C56 C64 1.457 . S
C57 N52 1.363 . S
C57 N54 1.377 . S
C57 C70 1.479 . S
C58 C55 1.480 . S
C58 C59 1.383 . S
C58 C63 1.385 . S
C59 H40 0.947 . S
C59 C58 1.383 . S
C59 C60 1.388 . S
C60 H41 0.946 . S
C60 C59 1.388 . S
C60 C61 1.384 . S
C61 C60 1.384 . S
C61 C62 1.377 . S
C62 H42 0.953 . S
C62 C61 1.377 . S
C62 C63 1.369 . S
C63 H43 0.945 . S
C63 C58 1.385 . S
C63 C62 1.369 . S
C64 C56 1.457 . S
C64 C65 1.372 . S
C64 C69 1.364 . S
C65 H44 0.952 . S
C65 C64 1.372 . S
C65 C66 1.389 . S
C66 H45 0.949 . S
C66 C65 1.389 . S
C66 C67 1.387 . S
C67 C66 1.387 . S
C67 C68 1.372 . S
C68 H46 0.950 . S
C68 C67 1.372 . S
C68 C69 1.379 . S
C69 H47 0.948 . S
C69 C64 1.364 . S
C69 C68 1.379 . S
C70 C39 1.383 . S
C70 C57 1.479 . S
C70 C71 1.398 . S
C71 C36 1.382 . S
C71 H48 0.951 . S
C71 C70 1.398 . S
C72 C73 1.384 . S
C72 H85 0.947 . S
C72 C107 1.382 . S
C73 C72 1.384 . S
C73 C74 1.378 1_554 S
C74 C73 1.378 1_556 S
C74 C75 1.378 1_556 S
C74 H86 0.952 . S
C75 C74 1.378 1_554 S
C75 H87 0.950 . S
C75 C106 1.383 . S
H76 C95 0.947 . S
H77 C96 0.946 . S
H78 C98 0.953 . S
H79 C99 0.945 . S
H80 C101 0.952 . S
H81 C102 0.949 . S
H82 C104 0.950 . S
H83 C105 0.948 . S
H84 C107 0.951 . S
H85 C72 0.947 . S
H86 C74 0.952 . S
H87 C75 0.950 . S
N88 C91 1.382 . S
N88 C93 1.363 . S
N89 C91 1.371 . S
N89 C92 1.372 . S
N90 C92 1.361 . S
N90 C93 1.377 . S
C91 N88 1.382 . S
C91 N89 1.371 . S
C91 C94 1.480 . S
C92 N89 1.372 . S
C92 N90 1.361 . S
C92 C100 1.457 . S
C93 N88 1.363 . S
C93 N90 1.377 . S
C93 C106 1.479 . S
C94 C91 1.480 . S
C94 C95 1.383 . S
C94 C99 1.385 . S
C95 H76 0.947 . S
C95 C94 1.383 . S
C95 C96 1.388 . S
C96 H77 0.946 . S
C96 C95 1.388 . S
C96 C97 1.384 . S
C97 C96 1.384 . S
C97 C98 1.377 . S
C98 H78 0.953 . S
C98 C97 1.377 . S
C98 C99 1.369 . S
C99 H79 0.945 . S
C99 C94 1.385 . S
C99 C98 1.369 . S
C100 C92 1.457 . S
C100 C101 1.372 . S
C100 C105 1.364 . S
C101 H80 0.952 . S
C101 C100 1.372 . S
C101 C102 1.389 . S
C102 H81 0.949 . S
C102 C101 1.389 . S
C102 C103 1.387 1_655 S
C103 C102 1.387 1_455 S
C103 C104 1.372 . S
C104 H82 0.950 . S
C104 C103 1.372 . S
C104 C105 1.379 1_455 S
C105 H83 0.948 . S
C105 C100 1.364 . S
C105 C104 1.379 1_655 S
C106 C75 1.383 . S
C106 C93 1.479 . S
C106 C107 1.398 . S
C107 C72 1.382 . S
C107 H84 0.951 . S
C107 C106 1.398 . S
C108 C109 1.384 . S
C108 H121 0.947 . S
C108 C143 1.382 . S
C109 C108 1.384 . S
C109 C110 1.378 . S
C110 C109 1.378 . S
C110 C111 1.378 . S
C110 H122 0.952 . S
C111 C110 1.378 . S
C111 H123 0.950 . S
C111 C142 1.383 . S
H112 C131 0.947 . S
H113 C132 0.946 . S
H114 C134 0.953 . S
H115 C135 0.945 . S
H116 C137 0.952 . S
H117 C138 0.949 . S
H118 C140 0.950 . S
H119 C141 0.948 . S
H120 C143 0.951 . S
H121 C108 0.947 . S
H122 C110 0.952 . S
H123 C111 0.950 . S
N124 C127 1.382 . S
N124 C129 1.363 . S
N125 C127 1.371 . S
N125 C128 1.372 . S
N126 C128 1.361 . S
N126 C129 1.377 . S
C127 N124 1.382 . S
C127 N125 1.371 . S
C127 C130 1.480 . S
C128 N125 1.372 . S
C128 N126 1.361 . S
C128 C136 1.457 . S
C129 N124 1.363 . S
C129 N126 1.377 . S
C129 C142 1.479 . S
C130 C127 1.480 . S
C130 C131 1.383 . S
C130 C135 1.385 . S
C131 H112 0.947 . S
C131 C130 1.383 . S
C131 C132 1.388 . S
C132 H113 0.946 . S
C132 C131 1.388 . S
C132 C133 1.384 . S
C133 C132 1.384 . S
C133 C134 1.377 . S
C134 H114 0.953 . S
C134 C133 1.377 . S
C134 C135 1.369 . S
C135 H115 0.945 . S
C135 C130 1.385 . S
C135 C134 1.369 . S
C136 C128 1.457 . S
C136 C137 1.372 . S
C136 C141 1.364 . S
C137 H116 0.952 . S
C137 C136 1.372 . S
C137 C138 1.389 . S
C138 H117 0.949 . S
C138 C137 1.389 . S
C138 C139 1.387 . S
C139 C138 1.387 . S
C139 C140 1.372 . S
C140 H118 0.950 . S
C140 C139 1.372 . S
C140 C141 1.379 . S
C141 H119 0.948 . S
C141 C136 1.364 . S
C141 C140 1.379 . S
C142 C111 1.383 . S
C142 C129 1.479 . S
C142 C143 1.398 . S
C143 C108 1.382 . S
C143 H120 0.951 . S
C143 C142 1.398 . S
C144 C145 1.384 . S
C144 H157 0.947 . S
C144 C179 1.382 . S
C145 C144 1.384 . S
C145 C146 1.378 . S
C146 C145 1.378 . S
C146 C147 1.378 . S
C146 H158 0.952 . S
C147 C146 1.378 . S
C147 H159 0.950 . S
C147 C178 1.383 . S
H148 C167 0.947 . S
H149 C168 0.975 . S
H150 C170 0.953 . S
H151 C171 0.945 . S
H152 C173 0.952 . S
H153 C174 0.949 . S
H154 C176 0.950 . S
H155 C177 0.948 . S
H156 C179 0.951 . S
H157 C144 0.947 . S
H158 C146 0.952 . S
H159 C147 0.950 . S
N160 C163 1.382 . S
N160 C165 1.363 . S
N161 C163 1.371 . S
N161 C164 1.372 . S
N162 C164 1.361 . S
N162 C165 1.377 . S
C163 N160 1.382 . S
C163 N161 1.371 . S
C163 C166 1.480 . S
C164 N161 1.372 . S
C164 N162 1.361 . S
C164 C172 1.457 . S
C165 N160 1.363 . S
C165 N162 1.377 . S
C165 C178 1.479 . S
C166 C163 1.480 . S
C166 C167 1.383 . S
C166 C171 1.385 . S
C167 H148 0.947 . S
C167 C166 1.383 . S
C167 C168 1.366 1_455 S
C168 H149 0.975 . S
C168 C167 1.366 1_655 S
C168 C169 1.378 1_655 S
C169 C168 1.378 1_455 S
C169 C170 1.377 . S
C170 H150 0.953 . S
C170 C169 1.377 . S
C170 C171 1.369 . S
C171 H151 0.945 . S
C171 C166 1.385 . S
C171 C170 1.369 . S
C172 C164 1.457 . S
C172 C173 1.372 . S
C172 C177 1.364 . S
C173 H152 0.952 . S
C173 C172 1.372 . S
C173 C174 1.389 1_565 S
C174 H153 0.949 . S
C174 C173 1.389 1_545 S
C174 C175 1.392 . S
C175 C174 1.392 . S
C175 C176 1.355 1_545 S
C176 H154 0.950 . S
C176 C175 1.355 1_565 S
C176 C177 1.379 . S
C177 H155 0.948 . S
C177 C172 1.364 . S
C177 C176 1.379 . S
C178 C147 1.383 . S
C178 C165 1.479 . S
C178 C179 1.398 . S
C179 C144 1.382 . S
C179 H156 0.951 . S
C179 C178 1.398 . S
C180 C181 1.384 . S
C180 H193 0.947 . S
C180 C215 1.382 . S
C181 C180 1.384 . S
C181 C182 1.378 . S
C182 C181 1.378 . S
C182 C183 1.378 . S
C182 H194 0.952 . S
C183 C182 1.378 . S
C183 H195 0.950 . S
C183 C214 1.383 . S
H184 C203 0.947 . S
H185 C204 0.946 . S
H186 C206 0.953 . S
H187 C207 0.945 . S
H188 C209 0.952 . S
H189 C210 0.949 . S
H190 C212 0.950 . S
H191 C213 0.948 . S
H192 C215 0.951 . S
H193 C180 0.947 . S
H194 C182 0.952 . S
H195 C183 0.950 . S
N196 C199 1.382 . S
N196 C201 1.363 . S
N197 C199 1.371 . S
N197 C200 1.372 . S
N198 C200 1.361 . S
N198 C201 1.377 . S
C199 N196 1.382 . S
C199 N197 1.371 . S
C199 C202 1.480 . S
C200 N197 1.372 . S
C200 N198 1.361 . S
C200 C208 1.457 . S
C201 N196 1.363 . S
C201 N198 1.377 . S
C201 C214 1.479 . S
C202 C199 1.480 . S
C202 C203 1.383 . S
C202 C207 1.385 . S
C203 H184 0.947 . S
C203 C202 1.383 . S
C203 C204 1.388 . S
C204 H185 0.946 . S
C204 C203 1.388 . S
C204 C205 1.384 . S
C205 C204 1.384 . S
C205 C206 1.377 . S
C206 H186 0.953 . S
C206 C205 1.377 . S
C206 C207 1.369 . S
C207 H187 0.945 . S
C207 C202 1.385 . S
C207 C206 1.369 . S
C208 C200 1.457 . S
C208 C209 1.372 . S
C208 C213 1.364 . S
C209 H188 0.952 . S
C209 C208 1.372 . S
C209 C210 1.389 . S
C210 H189 0.949 . S
C210 C209 1.389 . S
C210 C211 1.387 . S
C211 C210 1.387 . S
C211 C212 1.372 . S
C212 H190 0.950 . S
C212 C211 1.372 . S
C212 C213 1.379 . S
C213 H191 0.948 . S
C213 C208 1.364 . S
C213 C212 1.379 . S
C214 C183 1.383 . S
C214 C201 1.479 . S
C214 C215 1.398 . S
C215 C180 1.382 . S
C215 H192 0.951 . S
C215 C214 1.398 . S
C216 C217 1.384 . S
C216 H229 0.947 . S
C216 C251 1.382 . S
C217 C216 1.384 . S
C217 C218 1.378 . S
C218 C217 1.378 . S
C218 C219 1.378 . S
C218 H230 0.952 . S
C219 C218 1.378 . S
C219 H231 0.950 . S
C219 C250 1.383 . S
H220 C239 0.947 . S
H221 C240 0.946 . S
H222 C242 0.953 . S
H223 C243 0.945 . S
H224 C245 0.952 . S
H225 C246 0.949 . S
H226 C248 0.950 . S
H227 C249 0.948 . S
H228 C251 0.951 . S
H229 C216 0.947 . S
H230 C218 0.952 . S
H231 C219 0.950 . S
N232 C235 1.382 . S
N232 C237 1.363 . S
N233 C235 1.371 . S
N233 C236 1.372 . S
N234 C236 1.361 . S
N234 C237 1.377 . S
C235 N232 1.382 . S
C235 N233 1.371 . S
C235 C238 1.480 . S
C236 N233 1.372 . S
C236 N234 1.361 . S
C236 C244 1.457 . S
C237 N232 1.363 . S
C237 N234 1.377 . S
C237 C250 1.479 . S
C238 C235 1.480 . S
C238 C239 1.383 . S
C238 C243 1.385 . S
C239 H220 0.947 . S
C239 C238 1.383 . S
C239 C240 1.388 . S
C240 H221 0.946 . S
C240 C239 1.388 . S
C240 C241 1.384 . S
C241 C240 1.384 . S
C241 C242 1.377 . S
C242 H222 0.953 . S
C242 C241 1.377 . S
C242 C243 1.369 . S
C243 H223 0.945 . S
C243 C238 1.385 . S
C243 C242 1.369 . S
C244 C236 1.457 . S
C244 C245 1.372 . S
C244 C249 1.364 1_655 S
C245 H224 0.952 . S
C245 C244 1.372 . S
C245 C246 1.389 . S
C246 H225 0.949 . S
C246 C245 1.389 . S
C246 C247 1.387 1_655 S
C247 C246 1.387 1_455 S
C247 C248 1.372 . S
C248 H226 0.950 . S
C248 C247 1.372 . S
C248 C249 1.379 . S
C249 H227 0.948 . S
C249 C244 1.364 1_455 S
C249 C248 1.379 . S
C250 C219 1.383 . S
C250 C237 1.479 . S
C250 C251 1.398 . S
C251 C216 1.382 . S
C251 H228 0.951 . S
C251 C250 1.398 . S
C252 C253 1.384 . S
C252 H265 0.947 . S
C252 C287 1.382 . S
C253 C252 1.384 . S
C253 C254 1.378 . S
C254 C253 1.378 . S
C254 C255 1.378 . S
C254 H266 0.952 . S
C255 C254 1.378 . S
C255 H267 0.950 . S
C255 C286 1.383 . S
H256 C275 0.947 . S
H257 C276 0.946 . S
H258 C278 0.953 . S
H259 C279 0.945 . S
H260 C281 0.952 . S
H261 C282 0.949 . S
H262 C284 0.950 . S
H263 C285 0.948 . S
H264 C287 0.951 . S
H265 C252 0.947 . S
H266 C254 0.952 . S
H267 C255 0.950 . S
N268 C271 1.382 . S
N268 C273 1.363 . S
N269 C271 1.371 . S
N269 C272 1.372 . S
N270 C272 1.361 . S
N270 C273 1.377 . S
C271 N268 1.382 . S
C271 N269 1.371 . S
C271 C274 1.480 . S
C272 N269 1.372 . S
C272 N270 1.361 . S
C272 C280 1.457 . S
C273 N268 1.363 . S
C273 N270 1.377 . S
C273 C286 1.479 . S
C274 C271 1.480 . S
C274 C275 1.383 . S
C274 C279 1.385 . S
C275 H256 0.947 . S
C275 C274 1.383 . S
C275 C276 1.388 . S
C276 H257 0.946 . S
C276 C275 1.388 . S
C276 C277 1.384 . S
C277 C276 1.384 . S
C277 C278 1.377 . S
C278 H258 0.953 . S
C278 C277 1.377 . S
C278 C279 1.369 . S
C279 H259 0.945 . S
C279 C274 1.385 . S
C279 C278 1.369 . S
C280 C272 1.457 . S
C280 C281 1.372 . S
C280 C285 1.364 . S
C281 H260 0.952 . S
C281 C280 1.372 . S
C281 C282 1.389 . S
C282 H261 0.949 . S
C282 C281 1.389 . S
C282 C283 1.387 . S
C283 C282 1.387 . S
C283 C284 1.372 . S
C284 H262 0.950 . S
C284 C283 1.372 . S
C284 C285 1.379 . S
C285 H263 0.948 . S
C285 C280 1.364 . S
C285 C284 1.379 . S
C286 C255 1.383 . S
C286 C273 1.479 . S
C286 C287 1.398 . S
C287 C252 1.382 . S
C287 H264 0.951 . S
C287 C286 1.398 . S
C288 C289 1.384 . S
C288 H301 0.947 . S
C288 C323 1.382 . S
C289 C288 1.384 . S
C289 C290 1.378 . S
C290 C289 1.378 . S
C290 C291 1.378 . S
C290 H302 0.952 . S
C291 C290 1.378 . S
C291 H303 0.950 . S
C291 C322 1.383 . S
H292 C311 0.947 . S
H293 C312 0.946 . S
H294 C314 0.953 . S
H295 C315 0.945 . S
H296 C317 0.952 . S
H297 C318 0.949 . S
H298 C320 0.950 . S
H299 C321 0.948 . S
H300 C323 0.951 . S
H301 C288 0.947 . S
H302 C290 0.952 . S
H303 C291 0.950 . S
N304 C307 1.382 . S
N304 C309 1.363 . S
N305 C307 1.371 . S
N305 C308 1.372 . S
N306 C308 1.361 . S
N306 C309 1.377 . S
C307 N304 1.382 . S
C307 N305 1.371 . S
C307 C310 1.480 . S
C308 N305 1.372 . S
C308 N306 1.361 . S
C308 C316 1.457 . S
C309 N304 1.363 . S
C309 N306 1.377 . S
C309 C322 1.479 . S
C310 C307 1.480 . S
C310 C311 1.383 . S
C310 C315 1.385 . S
C311 H292 0.947 . S
C311 C310 1.383 . S
C311 C312 1.388 . S
C312 H293 0.946 . S
C312 C311 1.388 . S
C312 C313 1.384 . S
C313 C312 1.384 . S
C313 C314 1.377 . S
C314 H294 0.953 . S
C314 C313 1.377 . S
C314 C315 1.369 . S
C315 H295 0.945 . S
C315 C310 1.385 . S
C315 C314 1.369 . S
C316 C308 1.457 . S
C316 C317 1.372 . S
C316 C321 1.364 . S
C317 H296 0.952 . S
C317 C316 1.372 . S
C317 C318 1.389 . S
C318 H297 0.949 . S
C318 C317 1.389 . S
C318 C319 1.387 . S
C319 C318 1.387 . S
C319 C320 1.372 . S
C320 H298 0.950 . S
C320 C319 1.372 . S
C320 C321 1.379 . S
C321 H299 0.948 . S
C321 C316 1.364 . S
C321 C320 1.379 . S
C322 C291 1.383 . S
C322 C309 1.479 . S
C322 C323 1.398 . S
C323 C288 1.382 . S
C323 H300 0.951 . S
C323 C322 1.398 . S
C324 C325 1.384 . S
C324 H337 0.947 . S
C324 C359 1.382 . S
C325 C324 1.384 . S
C325 C326 1.378 . S
C326 C325 1.378 . S
C326 C327 1.378 . S
C326 H338 0.952 . S
C327 C326 1.378 . S
C327 H339 0.950 . S
C327 C358 1.383 . S
H328 C347 0.947 . S
H329 C348 0.946 . S
H330 C350 0.953 . S
H331 C351 0.945 . S
H332 C353 0.952 . S
H333 C354 0.949 . S
H334 C356 0.950 . S
H335 C357 0.948 . S
H336 C359 0.951 . S
H337 C324 0.947 . S
H338 C326 0.952 . S
H339 C327 0.950 . S
N340 C343 1.382 . S
N340 C345 1.363 . S
N341 C343 1.371 . S
N341 C344 1.372 . S
N342 C344 1.361 . S
N342 C345 1.377 . S
C343 N340 1.382 . S
C343 N341 1.371 . S
C343 C346 1.480 . S
C344 N341 1.372 . S
C344 N342 1.361 . S
C344 C352 1.457 . S
C345 N340 1.363 . S
C345 N342 1.377 . S
C345 C358 1.479 . S
C346 C343 1.480 . S
C346 C347 1.383 . S
C346 C351 1.385 1_565 S
C347 H328 0.947 . S
C347 C346 1.383 . S
C347 C348 1.388 . S
C348 H329 0.946 . S
C348 C347 1.388 . S
C348 C349 1.384 1_565 S
C349 C348 1.384 1_545 S
C349 C350 1.377 . S
C350 H330 0.953 . S
C350 C349 1.377 . S
C350 C351 1.369 . S
C351 H331 0.945 . S
C351 C346 1.385 1_545 S
C351 C350 1.369 . S
C352 C344 1.457 . S
C352 C353 1.372 . S
C352 C357 1.364 . S
C353 H332 0.952 . S
C353 C352 1.372 . S
C353 C354 1.389 . S
C354 H333 0.949 . S
C354 C353 1.389 . S
C354 C355 1.387 . S
C355 C354 1.387 . S
C355 C356 1.372 . S
C356 H334 0.950 . S
C356 C355 1.372 . S
C356 C357 1.379 . S
C357 H335 0.948 . S
C357 C352 1.364 . S
C357 C356 1.379 . S
C358 C327 1.383 . S
C358 C345 1.479 . S
C358 C359 1.398 . S
C359 C324 1.382 . S
C359 H336 0.951 . S
C359 C358 1.398 . S
C360 C361 1.384 . S
C360 H373 0.947 . S
C360 C395 1.382 . S
C361 C360 1.384 . S
C361 C362 1.378 . S
C362 C361 1.378 . S
C362 C363 1.378 . S
C362 H374 0.952 . S
C363 C362 1.378 . S
C363 H375 0.950 . S
C363 C394 1.383 . S
H364 C383 0.947 . S
H365 C384 0.946 . S
H366 C386 0.953 . S
H367 C387 0.945 . S
H368 C389 0.952 . S
H369 C390 0.949 . S
H370 C392 0.950 . S
H371 C393 0.948 . S
H372 C395 0.951 . S
H373 C360 0.947 . S
H374 C362 0.952 . S
H375 C363 0.950 . S
N376 C379 1.382 . S
N376 C381 1.363 . S
N377 C379 1.371 . S
N377 C380 1.372 . S
N378 C380 1.361 . S
N378 C381 1.377 . S
C379 N376 1.382 . S
C379 N377 1.371 . S
C379 C382 1.480 . S
C380 N377 1.372 . S
C380 N378 1.361 . S
C380 C388 1.457 . S
C381 N376 1.363 . S
C381 N378 1.377 . S
C381 C394 1.479 . S
C382 C379 1.480 . S
C382 C383 1.383 . S
C382 C387 1.385 . S
C383 H364 0.947 . S
C383 C382 1.383 . S
C383 C384 1.388 . S
C384 H365 0.946 . S
C384 C383 1.388 . S
C384 C385 1.384 . S
C385 C384 1.384 . S
C385 C386 1.377 . S
C386 H366 0.953 . S
C386 C385 1.377 . S
C386 C387 1.369 . S
C387 H367 0.945 . S
C387 C382 1.385 . S
C387 C386 1.369 . S
C388 C380 1.457 . S
C388 C389 1.372 . S
C388 C393 1.364 . S
C389 H368 0.952 . S
C389 C388 1.372 . S
C389 C390 1.389 . S
C390 H369 0.949 . S
C390 C389 1.389 . S
C390 C391 1.387 . S
C391 C390 1.387 . S
C391 C392 1.372 . S
C392 H370 0.950 . S
C392 C391 1.372 . S
C392 C393 1.379 . S
C393 H371 0.948 . S
C393 C388 1.364 . S
C393 C392 1.379 . S
C394 C363 1.383 . S
C394 C381 1.479 . S
C394 C395 1.398 . S
C395 C360 1.382 . S
C395 H372 0.951 . S
C395 C394 1.398 . S
C396 C397 1.384 . S
C396 H409 0.947 . S
C396 C431 1.382 . S
C397 C396 1.384 . S
C397 C398 1.378 . S
C398 C397 1.378 . S
C398 C399 1.378 . S
C398 H410 0.952 . S
C399 C398 1.378 . S
C399 H411 0.950 . S
C399 C430 1.383 . S
H400 C419 0.947 . S
H401 C420 0.946 . S
H402 C422 0.953 . S
H403 C423 0.945 . S
H404 C425 0.952 . S
H405 C426 0.949 . S
H406 C428 0.950 . S
H407 C429 0.948 . S
H408 C431 0.951 . S
H409 C396 0.947 . S
H410 C398 0.952 . S
H411 C399 0.950 . S
N412 C415 1.382 . S
N412 C417 1.363 . S
N413 C415 1.371 . S
N413 C416 1.372 . S
N414 C416 1.361 . S
N414 C417 1.377 . S
C415 N412 1.382 . S
C415 N413 1.371 . S
C415 C418 1.480 . S
C416 N413 1.372 . S
C416 N414 1.361 . S
C416 C424 1.457 . S
C417 N412 1.363 . S
C417 N414 1.377 . S
C417 C430 1.479 . S
C418 C415 1.480 . S
C418 C419 1.383 . S
C418 C423 1.385 . S
C419 H400 0.947 . S
C419 C418 1.383 . S
C419 C420 1.388 . S
C420 H401 0.946 . S
C420 C419 1.388 . S
C420 C421 1.384 . S
C421 C420 1.384 . S
C421 C422 1.377 . S
C422 H402 0.953 . S
C422 C421 1.377 . S
C422 C423 1.369 . S
C423 H403 0.945 . S
C423 C418 1.385 . S
C423 C422 1.369 . S
C424 C416 1.457 . S
C424 C425 1.372 . S
C424 C429 1.364 . S
C425 H404 0.952 . S
C425 C424 1.372 . S
C425 C426 1.389 . S
C426 H405 0.949 . S
C426 C425 1.389 . S
C426 C427 1.387 . S
C427 C426 1.387 . S
C427 C428 1.372 . S
C428 H406 0.950 . S
C428 C427 1.372 . S
C428 C429 1.379 . S
C429 H407 0.948 . S
C429 C424 1.364 . S
C429 C428 1.379 . S
C430 C399 1.383 . S
C430 C417 1.479 . S
C430 C431 1.398 . S
C431 C396 1.382 . S
C431 H408 0.951 . S
C431 C430 1.398 . S
C432 C433 1.384 . S
C432 H445 0.947 . S
C432 C467 1.382 . S
C433 C432 1.384 . S
C433 C434 1.378 . S
C434 C433 1.378 . S
C434 C435 1.378 . S
C434 H446 0.952 . S
C435 C434 1.378 . S
C435 H447 0.950 . S
C435 C466 1.383 . S
H436 C455 0.947 . S
H437 C456 0.946 . S
H438 C458 0.953 . S
H439 C459 0.945 . S
H440 C461 0.952 . S
H441 C462 0.949 . S
H442 C464 0.950 . S
H443 C465 0.948 . S
H444 C467 0.951 . S
H445 C432 0.947 . S
H446 C434 0.952 . S
H447 C435 0.950 . S
N448 C451 1.382 . S
N448 C453 1.363 . S
N449 C451 1.371 . S
N449 C452 1.372 . S
N450 C452 1.361 . S
N450 C453 1.377 . S
C451 N448 1.382 . S
C451 N449 1.371 . S
C451 C454 1.480 . S
C452 N449 1.372 . S
C452 N450 1.361 . S
C452 C460 1.457 . S
C453 N448 1.363 . S
C453 N450 1.377 . S
C453 C466 1.479 . S
C454 C451 1.480 . S
C454 C455 1.383 . S
C454 C459 1.385 . S
C455 H436 0.947 . S
C455 C454 1.383 . S
C455 C456 1.388 . S
C456 H437 0.946 . S
C456 C455 1.388 . S
C456 C457 1.384 . S
C457 C456 1.384 . S
C457 C458 1.377 . S
C458 H438 0.953 . S
C458 C457 1.377 . S
C458 C459 1.369 . S
C459 H439 0.945 . S
C459 C454 1.385 . S
C459 C458 1.369 . S
C460 C452 1.457 . S
C460 C461 1.372 . S
C460 C465 1.364 . S
C461 H440 0.952 . S
C461 C460 1.372 . S
C461 C462 1.389 . S
C462 H441 0.949 . S
C462 C461 1.389 . S
C462 C463 1.387 . S
C463 C462 1.387 . S
C463 C464 1.372 . S
C464 H442 0.950 . S
C464 C463 1.372 . S
C464 C465 1.379 . S
C465 H443 0.948 . S
C465 C460 1.364 . S
C465 C464 1.379 . S
C466 C435 1.383 . S
C466 C453 1.479 . S
C466 C467 1.398 . S
C467 C432 1.382 . S
C467 H444 0.951 . S
C467 C466 1.398 . S
C468 C469 1.384 . S
C468 H481 0.947 . S
C468 C503 1.382 1_554 S
C469 C468 1.384 . S
C469 C470 1.378 1_554 S
C470 C469 1.378 1_556 S
C470 C471 1.378 . S
C470 H482 0.952 . S
C471 C470 1.378 . S
C471 H483 0.950 . S
C471 C502 1.383 . S
H472 C491 0.947 . S
H473 C492 0.946 . S
H474 C494 0.953 . S
H475 C495 0.945 . S
H476 C497 0.952 . S
H477 C498 0.949 . S
H478 C500 0.950 . S
H479 C501 0.948 . S
H480 C503 0.945 1_554 S
H481 C468 0.947 . S
H482 C470 0.952 . S
H483 C471 0.950 . S
N484 C487 1.382 . S
N484 C489 1.363 . S
N485 C487 1.371 . S
N485 C488 1.372 . S
N486 C488 1.361 . S
N486 C489 1.377 . S
C487 N484 1.382 . S
C487 N485 1.371 . S
C487 C490 1.480 . S
C488 N485 1.372 . S
C488 N486 1.361 . S
C488 C496 1.457 . S
C489 N484 1.363 . S
C489 N486 1.377 . S
C489 C502 1.479 . S
C490 C487 1.480 . S
C490 C491 1.383 . S
C490 C495 1.385 . S
C491 H472 0.947 . S
C491 C490 1.383 . S
C491 C492 1.388 . S
C492 H473 0.946 . S
C492 C491 1.388 . S
C492 C493 1.384 . S
C493 C492 1.384 . S
C493 C494 1.377 . S
C494 H474 0.953 . S
C494 C493 1.377 . S
C494 C495 1.369 . S
C495 H475 0.945 . S
C495 C490 1.385 . S
C495 C494 1.369 . S
C496 C488 1.457 . S
C496 C497 1.372 . S
C496 C501 1.364 . S
C497 H476 0.952 . S
C497 C496 1.372 . S
C497 C498 1.389 . S
C498 H477 0.949 . S
C498 C497 1.389 . S
C498 C499 1.387 . S
C499 C498 1.387 . S
C499 C500 1.372 . S
C500 H478 0.950 . S
C500 C499 1.372 . S
C500 C501 1.379 . S
C501 H479 0.948 . S
C501 C496 1.364 . S
C501 C500 1.379 . S
C502 C471 1.383 . S
C502 C489 1.479 . S
C502 C503 1.398 . S
C503 C468 1.382 1_556 S
C503 H480 0.945 1_556 S
C503 C502 1.398 . S
C504 C505 1.384 . S
C504 H517 0.947 . S
C504 C539 1.382 . S
C505 C504 1.384 . S
C505 C506 1.378 . S
C506 C505 1.378 . S
C506 C507 1.378 . S
C506 H518 0.952 . S
C507 C506 1.378 . S
C507 H519 0.950 . S
C507 C538 1.383 . S
H508 C527 0.947 . S
H509 C528 0.946 . S
H510 C530 0.953 . S
H511 C531 0.945 . S
H512 C533 0.952 . S
H513 C534 0.949 . S
H514 C536 0.950 . S
H515 C537 0.948 . S
H516 C539 0.951 . S
H517 C504 0.947 . S
H518 C506 0.952 . S
H519 C507 0.950 . S
N520 C523 1.382 . S
N520 C525 1.363 . S
N521 C523 1.371 . S
N521 C524 1.372 . S
N522 C524 1.361 . S
N522 C525 1.377 . S
C523 N520 1.382 . S
C523 N521 1.371 . S
C523 C526 1.480 . S
C524 N521 1.372 . S
C524 N522 1.361 . S
C524 C532 1.457 . S
C525 N520 1.363 . S
C525 N522 1.377 . S
C525 C538 1.479 . S
C526 C523 1.480 . S
C526 C527 1.383 . S
C526 C531 1.385 . S
C527 H508 0.947 . S
C527 C526 1.383 . S
C527 C528 1.388 . S
C528 H509 0.946 . S
C528 C527 1.388 . S
C528 C529 1.384 . S
C529 C528 1.384 . S
C529 C530 1.377 . S
C530 H510 0.953 . S
C530 C529 1.377 . S
C530 C531 1.369 . S
C531 H511 0.945 . S
C531 C526 1.385 . S
C531 C530 1.369 . S
C532 C524 1.457 . S
C532 C533 1.372 . S
C532 C537 1.364 . S
C533 H512 0.952 . S
C533 C532 1.372 . S
C533 C534 1.389 . S
C534 H513 0.949 . S
C534 C533 1.389 . S
C534 C535 1.387 . S
C535 C534 1.387 . S
C535 C536 1.372 . S
C536 H514 0.950 . S
C536 C535 1.372 . S
C536 C537 1.379 . S
C537 H515 0.948 . S
C537 C532 1.364 . S
C537 C536 1.379 . S
C538 C507 1.383 . S
C538 C525 1.479 . S
C538 C539 1.398 . S
C539 C504 1.382 . S
C539 H516 0.951 . S
C539 C538 1.398 . S
C540 C541 1.384 1_556 S
C540 H553 0.947 . S
C540 C575 1.382 . S
C541 C540 1.384 1_554 S
C541 C542 1.378 . S
C542 C541 1.378 . S
C542 C543 1.378 1_554 S
C542 H554 0.952 . S
C543 C542 1.378 1_556 S
C543 H555 0.966 . S
C543 C574 1.383 . S
H544 C563 0.947 . S
H545 C564 0.946 . S
H546 C566 0.953 . S
H547 C567 0.945 . S
H548 C569 0.952 . S
H549 C570 0.949 . S
H550 C572 0.950 . S
H551 C573 0.948 . S
H552 C575 0.951 . S
H553 C540 0.947 . S
H554 C542 0.952 . S
H555 C543 0.966 . S
N556 C559 1.382 . S
N556 C561 1.363 . S
N557 C559 1.371 . S
N557 C560 1.372 . S
N558 C560 1.361 . S
N558 C561 1.377 . S
C559 N556 1.382 . S
C559 N557 1.371 . S
C559 C562 1.480 . S
C560 N557 1.372 . S
C560 N558 1.361 . S
C560 C568 1.457 . S
C561 N556 1.363 . S
C561 N558 1.377 . S
C561 C574 1.479 . S
C562 C559 1.480 . S
C562 C563 1.383 . S
C562 C567 1.385 . S
C563 H544 0.947 . S
C563 C562 1.383 . S
C563 C564 1.388 . S
C564 H545 0.946 . S
C564 C563 1.388 . S
C564 C565 1.386 . S
C565 C564 1.386 . S
C565 C566 1.376 1_545 S
C566 H546 0.953 . S
C566 C565 1.376 1_565 S
C566 C567 1.369 1_565 S
C567 H547 0.945 . S
C567 C562 1.385 . S
C567 C566 1.369 1_545 S
C568 C560 1.457 . S
C568 C569 1.372 . S
C568 C573 1.364 . S
C569 H548 0.952 . S
C569 C568 1.372 . S
C569 C570 1.389 . S
C570 H549 0.949 . S
C570 C569 1.389 . S
C570 C571 1.387 . S
C571 C570 1.387 . S
C571 C572 1.372 . S
C572 H550 0.950 . S
C572 C571 1.372 . S
C572 C573 1.379 . S
C573 H551 0.948 . S
C573 C568 1.364 . S
C573 C572 1.379 . S
C574 C543 1.383 . S
C574 C561 1.479 . S
C574 C575 1.398 . S
C575 C540 1.382 . S
C575 H552 0.951 . S
C575 C574 1.398 . S
Zn576 O579 2.036 . S
Zn576 O581 2.046 1_554 S
Zn576 O586 2.060 1_554 S
Zn577 O578 1.962 . S
Zn577 O580 1.986 . S
Zn577 O582 1.996 . S
Zn577 O585 1.943 1_554 S
O578 Zn577 1.962 . S
O578 C583 1.254 . S
O579 Zn576 2.036 . S
O579 C583 1.269 . S
O580 Zn577 1.986 . S
O580 C587 1.262 . S
O581 Zn576 2.046 1_556 S
O581 C589 1.260 . S
O582 Zn577 1.996 . S
O582 C589 1.257 1_554 S
C583 O578 1.254 . S
C583 O579 1.269 . S
C584 O585 1.249 . S
C584 O586 1.270 . S
O585 Zn577 1.943 1_556 S
O585 C584 1.249 . S
O586 Zn576 2.060 1_556 S
O586 C584 1.270 . S
C587 O580 1.262 . S
C587 O588 1.232 . S
O588 C587 1.232 . S
C589 O581 1.260 . S
C589 O582 1.257 1_556 S
Zn590 O593 2.031 . S
Zn590 O595 2.049 . S
Zn590 O600 2.067 . S
Zn591 O592 1.962 . S
Zn591 O594 1.986 . S
Zn591 O596 1.996 . S
Zn591 O599 1.943 . S
O592 Zn591 1.962 . S
O592 C597 1.254 . S
O593 Zn590 2.031 . S
O593 C597 1.269 . S
O594 Zn591 1.986 . S
O594 C601 1.262 . S
O595 Zn590 2.049 . S
O595 C603 1.260 . S
O596 Zn591 1.996 . S
O596 C603 1.257 . S
C597 O592 1.254 . S
C597 O593 1.269 . S
C598 O599 1.249 . S
C598 O600 1.270 . S
O599 Zn591 1.943 . S
O599 C598 1.249 . S
O600 Zn590 2.067 . S
O600 C598 1.270 . S
C601 O594 1.262 . S
C601 O602 1.232 . S
O602 C601 1.232 . S
C603 O595 1.260 . S
C603 O596 1.257 . S
Zn604 O607 2.031 . S
Zn604 O609 2.049 . S
Zn604 O614 2.067 . S
Zn605 O606 1.962 . S
Zn605 O608 1.986 . S
Zn605 O610 1.996 1_554 S
Zn605 O613 1.943 . S
O606 Zn605 1.962 . S
O606 C611 1.254 . S
O607 Zn604 2.031 . S
O607 C611 1.269 1_556 S
O608 Zn605 1.986 . S
O608 C615 1.262 . S
O609 Zn604 2.049 . S
O609 C617 1.260 . S
O610 Zn605 1.996 1_556 S
O610 C617 1.257 . S
C611 O606 1.254 . S
C611 O607 1.269 1_554 S
C612 O613 1.249 1_556 S
C612 O614 1.270 . S
O613 Zn605 1.943 . S
O613 C612 1.249 1_554 S
O614 Zn604 2.067 . S
O614 C612 1.270 . S
C615 O608 1.262 . S
C615 O616 1.232 . S
O616 C615 1.232 . S
C617 O609 1.260 . S
C617 O610 1.257 . S
Zn618 O621 2.046 . S
Zn618 O623 2.039 1_545 S
Zn618 O628 2.046 1_545 S
Zn619 O620 1.962 . S
Zn619 O622 1.986 . S
Zn619 O624 1.996 . S
Zn619 O627 1.943 1_545 S
O620 Zn619 1.962 . S
O620 C625 1.254 . S
O621 Zn618 2.046 . S
O621 C625 1.269 . S
O622 Zn619 1.986 . S
O622 C629 1.262 . S
O623 Zn618 2.039 1_565 S
O623 C631 1.260 . S
O624 Zn619 1.996 . S
O624 C631 1.257 1_545 S
C625 O620 1.254 . S
C625 O621 1.269 . S
C626 O627 1.249 . S
C626 O628 1.270 . S
O627 Zn619 1.943 1_565 S
O627 C626 1.249 . S
O628 Zn618 2.046 1_565 S
O628 C626 1.270 . S
C629 O622 1.262 . S
C629 O630 1.232 . S
O630 C629 1.232 . S
C631 O623 1.260 . S
C631 O624 1.257 1_565 S
Zn632 O635 2.031 . S
Zn632 O637 2.049 . S
Zn632 O642 2.067 . S
Zn633 O634 1.962 . S
Zn633 O636 1.986 . S
Zn633 O638 1.996 . S
Zn633 O641 1.943 . S
O634 Zn633 1.962 . S
O634 C639 1.254 . S
O635 Zn632 2.031 . S
O635 C639 1.269 . S
O636 Zn633 1.986 . S
O636 C643 1.262 . S
O637 Zn632 2.049 . S
O637 C645 1.260 . S
O638 Zn633 1.996 . S
O638 C645 1.257 . S
C639 O634 1.254 . S
C639 O635 1.269 . S
C640 O641 1.249 . S
C640 O642 1.270 . S
O641 Zn633 1.943 . S
O641 C640 1.249 . S
O642 Zn632 2.067 . S
O642 C640 1.270 . S
C643 O636 1.262 . S
C643 O644 1.232 . S
O644 C643 1.232 . S
C645 O637 1.260 . S
C645 O638 1.257 . S
Zn646 O649 2.031 . S
Zn646 O651 2.049 . S
Zn646 O656 2.067 . S
Zn647 O648 1.962 . S
Zn647 O650 1.986 . S
Zn647 O652 1.996 . S
Zn647 O655 1.943 . S
O648 Zn647 1.962 . S
O648 C653 1.254 . S
O649 Zn646 2.031 . S
O649 C653 1.269 . S
O650 Zn647 1.986 . S
O650 C657 1.262 . S
O651 Zn646 2.049 . S
O651 C659 1.260 . S
O652 Zn647 1.996 . S
O652 C659 1.257 . S
C653 O648 1.254 . S
C653 O649 1.269 . S
C654 O655 1.249 . S
C654 O656 1.270 . S
O655 Zn647 1.943 . S
O655 C654 1.249 . S
O656 Zn646 2.067 . S
O656 C654 1.270 . S
C657 O650 1.262 . S
C657 O658 1.232 . S
O658 C657 1.232 . S
C659 O651 1.260 . S
C659 O652 1.257 . S
Zn660 O663 2.031 . S
Zn660 O665 2.049 . S
Zn660 O670 2.067 . S
Zn661 O662 1.962 . S
Zn661 O664 1.986 . S
Zn661 O666 1.996 . S
Zn661 O669 1.943 . S
O662 Zn661 1.962 . S
O662 C667 1.254 . S
O663 Zn660 2.031 . S
O663 C667 1.269 . S
O664 Zn661 1.986 . S
O664 C671 1.262 . S
O665 Zn660 2.049 . S
O665 C673 1.260 . S
O666 Zn661 1.996 . S
O666 C673 1.257 . S
C667 O662 1.254 . S
C667 O663 1.269 . S
C668 O669 1.249 . S
C668 O670 1.270 . S
O669 Zn661 1.943 . S
O669 C668 1.249 . S
O670 Zn660 2.067 . S
O670 C668 1.270 . S
C671 O664 1.262 . S
C671 O672 1.232 . S
O672 C671 1.232 . S
C673 O665 1.260 . S
C673 O666 1.257 . S
Zn674 O677 2.031 . S
Zn674 O679 2.049 . S
Zn674 O684 2.067 . S
Zn675 O676 1.962 . S
Zn675 O678 1.986 . S
Zn675 O680 1.996 1_545 S
Zn675 O683 1.943 . S
O676 Zn675 1.962 . S
O676 C681 1.254 . S
O677 Zn674 2.031 . S
O677 C681 1.269 1_565 S
O678 Zn675 1.986 . S
O678 C685 1.262 . S
O679 Zn674 2.049 . S
O679 C687 1.260 . S
O680 Zn675 1.996 1_565 S
O680 C687 1.257 . S
C681 O676 1.254 . S
C681 O677 1.269 1_545 S
C682 O683 1.249 1_565 S
C682 O684 1.270 . S
O683 Zn675 1.943 . S
O683 C682 1.249 1_545 S
O684 Zn674 2.067 . S
O684 C682 1.270 . S
C685 O678 1.262 . S
C685 O686 1.232 . S
O686 C685 1.232 . S
C687 O679 1.260 . S
C687 O680 1.257 . S
Zn688 O691 2.035 . S
Zn688 O693 2.047 1_455 S
Zn688 O698 2.062 1_455 S
Zn689 O690 1.962 . S
Zn689 O692 1.986 . S
Zn689 O694 1.996 . S
Zn689 O697 1.943 1_455 S
O690 Zn689 1.962 . S
O690 C695 1.254 . S
O691 Zn688 2.035 . S
O691 C695 1.269 . S
O692 Zn689 1.986 . S
O692 C699 1.262 . S
O693 Zn688 2.047 1_655 S
O693 C701 1.260 . S
O694 Zn689 1.996 . S
O694 C701 1.257 1_455 S
C695 O690 1.254 . S
C695 O691 1.269 . S
C696 O697 1.249 . S
C696 O698 1.270 . S
O697 Zn689 1.943 1_655 S
O697 C696 1.249 . S
O698 Zn688 2.062 1_655 S
O698 C696 1.270 . S
C699 O692 1.262 . S
C699 O700 1.232 . S
O700 C699 1.232 . S
C701 O693 1.260 . S
C701 O694 1.257 1_655 S
Zn702 O705 2.031 . S
Zn702 O707 2.049 . S
Zn702 O712 2.067 . S
Zn703 O704 1.962 . S
Zn703 O706 1.986 . S
Zn703 O708 1.996 . S
Zn703 O711 1.943 . S
O704 Zn703 1.962 . S
O704 C709 1.254 . S
O705 Zn702 2.031 . S
O705 C709 1.269 . S
O706 Zn703 1.986 . S
O706 C713 1.262 . S
O707 Zn702 2.049 . S
O707 C715 1.260 . S
O708 Zn703 1.996 . S
O708 C715 1.257 . S
C709 O704 1.254 . S
C709 O705 1.269 . S
C710 O711 1.249 . S
C710 O712 1.270 . S
O711 Zn703 1.943 . S
O711 C710 1.249 . S
O712 Zn702 2.067 . S
O712 C710 1.270 . S
C713 O706 1.262 . S
C713 O714 1.232 . S
O714 C713 1.232 . S
C715 O707 1.260 . S
C715 O708 1.257 . S
Zn716 O719 2.031 . S
Zn716 O721 2.049 . S
Zn716 O726 2.067 . S
Zn717 O718 1.962 . S
Zn717 O720 1.986 . S
Zn717 O722 1.996 1_455 S
Zn717 O725 1.943 . S
O718 Zn717 1.962 . S
O718 C723 1.254 . S
O719 Zn716 2.031 . S
O719 C723 1.269 1_655 S
O720 Zn717 1.986 . S
O720 C727 1.262 . S
O721 Zn716 2.049 . S
O721 C729 1.260 . S
O722 Zn717 1.996 1_655 S
O722 C729 1.257 . S
C723 O718 1.254 . S
C723 O719 1.269 1_455 S
C724 O725 1.249 1_655 S
C724 O726 1.270 . S
O725 Zn717 1.943 . S
O725 C724 1.249 1_455 S
O726 Zn716 2.067 . S
O726 C724 1.270 . S
C727 O720 1.262 . S
C727 O728 1.232 . S
O728 C727 1.232 . S
C729 O721 1.260 . S
C729 O722 1.257 . S
Zn730 O733 2.031 . S
Zn730 O735 2.049 . S
Zn730 O740 2.067 . S
Zn731 O732 1.962 . S
Zn731 O734 1.986 . S
Zn731 O736 1.996 . S
Zn731 O739 1.943 . S
O732 Zn731 1.962 . S
O732 C737 1.254 . S
O733 Zn730 2.031 . S
O733 C737 1.269 . S
O734 Zn731 1.986 . S
O734 C741 1.262 . S
O735 Zn730 2.049 . S
O735 C743 1.260 . S
O736 Zn731 1.996 . S
O736 C743 1.257 . S
C737 O732 1.254 . S
C737 O733 1.269 . S
C738 O739 1.249 . S
C738 O740 1.270 . S
O739 Zn731 1.943 . S
O739 C738 1.249 . S
O740 Zn730 2.067 . S
O740 C738 1.270 . S
C741 O734 1.262 . S
C741 O742 1.232 . S
O742 C741 1.232 . S
C743 O735 1.260 . S
C743 O736 1.257 . S
H744 C750 0.930 . S
H745 C754 0.930 . S
H746 C759 0.929 . S
H747 C757 0.929 . S
H748 C752 0.929 . S
H749 C758 0.929 . S
C750 H744 0.930 . S
C750 C751 1.367 . S
C750 C758 1.378 . S
C751 C750 1.367 . S
C751 C759 1.433 . S
C752 H748 0.929 . S
C752 C754 1.378 . S
C752 C756 1.350 . S
C753 C756 1.463 . S
C753 C758 1.350 . S
C753 N761 1.427 . S
C754 H745 0.930 . S
C754 C752 1.378 . S
C754 C755 1.367 . S
C755 C754 1.367 . S
C755 C757 1.433 . S
C756 C752 1.350 . S
C756 C753 1.463 . S
C756 N760 1.427 . S
C757 H747 0.929 . S
C757 C755 1.433 . S
C757 N760 1.384 . S
C758 H749 0.929 . S
C758 C750 1.378 . S
C758 C753 1.350 . S
C759 H746 0.929 . S
C759 C751 1.433 . S
C759 N761 1.384 . S
N760 C756 1.427 . S
N760 C757 1.384 . S
N761 C753 1.427 . S
N761 C759 1.384 . S
H762 C768 0.930 . S
H763 C772 0.930 . S
H764 C777 0.929 . S
H765 C775 0.929 . S
H766 C770 0.929 . S
H767 C776 0.929 . S
C768 H762 0.930 . S
C768 C769 1.367 . S
C768 C776 1.378 . S
C769 C768 1.367 . S
C769 C777 1.433 . S
C770 H766 0.929 . S
C770 C772 1.378 . S
C770 C774 1.350 . S
C771 C774 1.463 . S
C771 C776 1.350 . S
C771 N779 1.427 . S
C772 H763 0.930 . S
C772 C770 1.378 . S
C772 C773 1.367 . S
C773 C772 1.367 . S
C773 C775 1.433 . S
C774 C770 1.350 . S
C774 C771 1.463 . S
C774 N778 1.427 . S
C775 H765 0.929 . S
C775 C773 1.433 . S
C775 N778 1.384 . S
C776 H767 0.929 . S
C776 C768 1.378 . S
C776 C771 1.350 . S
C777 H764 0.929 . S
C777 C769 1.433 . S
C777 N779 1.384 . S
N778 C774 1.427 . S
N778 C775 1.384 . S
N779 C771 1.427 . S
N779 C777 1.384 . S
H780 C786 0.930 . S
H781 C790 0.930 . S
H782 C795 0.929 . S
H783 C793 0.929 . S
H784 C788 0.929 . S
H785 C794 0.929 . S
C786 H780 0.930 . S
C786 C787 1.367 . S
C786 C794 1.378 . S
C787 C786 1.367 . S
C787 C795 1.433 . S
C788 H784 0.929 . S
C788 C790 1.378 . S
C788 C792 1.350 . S
C789 C792 1.463 . S
C789 C794 1.350 . S
C789 N797 1.427 . S
C790 H781 0.930 . S
C790 C788 1.378 . S
C790 C791 1.367 . S
C791 C790 1.367 . S
C791 C793 1.433 . S
C792 C788 1.350 . S
C792 C789 1.463 . S
C792 N796 1.427 . S
C793 H783 0.929 . S
C793 C791 1.433 . S
C793 N796 1.384 . S
C794 H785 0.929 . S
C794 C786 1.378 . S
C794 C789 1.350 . S
C795 H782 0.929 . S
C795 C787 1.433 . S
C795 N797 1.384 . S
N796 C792 1.427 . S
N796 C793 1.384 . S
N797 C789 1.427 . S
N797 C795 1.384 . S
H798 C804 0.930 1_455 S
H799 C808 0.930 . S
H800 C813 0.929 . S
H801 C811 0.929 . S
H802 C806 0.929 . S
H803 C812 0.929 . S
C804 H798 0.930 1_655 S
C804 C805 1.367 . S
C804 C812 1.378 . S
C805 C804 1.367 . S
C805 C813 1.433 . S
C806 H802 0.929 . S
C806 C808 1.378 . S
C806 C810 1.350 . S
C807 C810 1.463 . S
C807 C812 1.350 . S
C807 N815 1.427 . S
C808 H799 0.930 . S
C808 C806 1.378 . S
C808 C809 1.367 . S
C809 C808 1.367 . S
C809 C811 1.433 . S
C810 C806 1.350 . S
C810 C807 1.463 . S
C810 N814 1.427 . S
C811 H801 0.929 . S
C811 C809 1.433 . S
C811 N814 1.384 . S
C812 H803 0.929 . S
C812 C804 1.378 . S
C812 C807 1.350 . S
C813 H800 0.929 . S
C813 C805 1.433 . S
C813 N815 1.384 . S
N814 C810 1.427 . S
N814 C811 1.384 . S
N815 C807 1.427 . S
N815 C813 1.384 . S
H816 C822 0.930 . S
H817 C826 0.930 . S
H818 C831 0.929 . S
H819 C829 0.929 . S
H820 C824 0.929 . S
H821 C830 0.929 . S
C822 H816 0.930 . S
C822 C823 1.367 . S
C822 C830 1.378 . S
C823 C822 1.367 . S
C823 C831 1.433 . S
C824 H820 0.929 . S
C824 C826 1.378 . S
C824 C828 1.350 . S
C825 C828 1.463 . S
C825 C830 1.350 . S
C825 N833 1.427 . S
C826 H817 0.930 . S
C826 C824 1.378 . S
C826 C827 1.367 . S
C827 C826 1.367 . S
C827 C829 1.433 . S
C828 C824 1.350 . S
C828 C825 1.463 . S
C828 N832 1.427 . S
C829 H819 0.929 . S
C829 C827 1.433 . S
C829 N832 1.384 . S
C830 H821 0.929 . S
C830 C822 1.378 . S
C830 C825 1.350 . S
C831 H818 0.929 . S
C831 C823 1.433 . S
C831 N833 1.384 . S
N832 C828 1.427 . S
N832 C829 1.384 . S
N833 C825 1.427 . S
N833 C831 1.384 . S
H834 C840 0.930 . S
H835 C844 0.930 . S
H836 C849 0.929 . S
H837 C847 0.929 . S
H838 C842 0.929 . S
H839 C848 0.929 . S
C840 H834 0.930 . S
C840 C841 1.367 . S
C840 C848 1.378 . S
C841 C840 1.367 . S
C841 C849 1.433 . S
C842 H838 0.929 . S
C842 C844 1.378 . S
C842 C846 1.350 . S
C843 C846 1.463 . S
C843 C848 1.350 . S
C843 N851 1.427 . S
C844 H835 0.930 . S
C844 C842 1.378 . S
C844 C845 1.367 . S
C845 C844 1.367 . S
C845 C847 1.433 . S
C846 C842 1.350 . S
C846 C843 1.463 . S
C846 N850 1.427 . S
C847 H837 0.929 . S
C847 C845 1.433 . S
C847 N850 1.384 . S
C848 H839 0.929 . S
C848 C840 1.378 . S
C848 C843 1.350 . S
C849 H836 0.929 . S
C849 C841 1.433 . S
C849 N851 1.384 . S
N850 C846 1.427 . S
N850 C847 1.384 . S
N851 C843 1.427 . S
N851 C849 1.384 . S
H852 C858 0.930 . S
H853 C862 0.930 . S
H854 C867 0.929 . S
H855 C865 0.929 . S
H856 C860 0.929 . S
H857 C866 0.929 . S
C858 H852 0.930 . S
C858 C859 1.367 . S
C858 C866 1.378 . S
C859 C858 1.367 . S
C859 C867 1.433 . S
C860 H856 0.929 . S
C860 C862 1.378 . S
C860 C864 1.350 . S
C861 C864 1.463 . S
C861 C866 1.350 . S
C861 N869 1.427 . S
C862 H853 0.930 . S
C862 C860 1.378 . S
C862 C863 1.367 . S
C863 C862 1.367 . S
C863 C865 1.433 . S
C864 C860 1.350 . S
C864 C861 1.463 . S
C864 N868 1.427 . S
C865 H855 0.929 . S
C865 C863 1.433 . S
C865 N868 1.384 . S
C866 H857 0.929 . S
C866 C858 1.378 . S
C866 C861 1.350 . S
C867 H854 0.929 . S
C867 C859 1.433 . S
C867 N869 1.384 . S
N868 C864 1.427 . S
N868 C865 1.384 . S
N869 C861 1.427 . S
N869 C867 1.384 . S
H870 C876 0.930 . S
H871 C880 0.930 . S
H872 C885 0.929 . S
H873 C883 0.929 . S
H874 C878 0.929 . S
H875 C884 0.929 1_545 S
C876 H870 0.930 . S
C876 C877 1.367 . S
C876 C884 1.378 . S
C877 C876 1.367 . S
C877 C885 1.433 . S
C878 H874 0.929 . S
C878 C880 1.378 . S
C878 C882 1.350 . S
C879 C882 1.463 . S
C879 C884 1.350 . S
C879 N887 1.427 . S
C880 H871 0.930 . S
C880 C878 1.378 . S
C880 C881 1.367 . S
C881 C880 1.367 . S
C881 C883 1.433 1_565 S
C882 C878 1.350 . S
C882 C879 1.463 . S
C882 N886 1.427 1_565 S
C883 H873 0.929 . S
C883 C881 1.433 1_545 S
C883 N886 1.384 . S
C884 H875 0.929 1_565 S
C884 C876 1.378 . S
C884 C879 1.350 . S
C885 H872 0.929 . S
C885 C877 1.433 . S
C885 N887 1.384 . S
N886 C882 1.427 1_545 S
N886 C883 1.384 . S
N887 C879 1.427 . S
N887 C885 1.384 . S
H888 C894 0.930 . S
H889 C898 0.930 . S
H890 C903 0.929 . S
H891 C901 0.929 . S
H892 C896 0.929 . S
H893 C902 0.929 . S
C894 H888 0.930 . S
C894 C895 1.367 . S
C894 C902 1.378 . S
C895 C894 1.367 . S
C895 C903 1.433 . S
C896 H892 0.929 . S
C896 C898 1.378 . S
C896 C900 1.350 . S
C897 C900 1.463 . S
C897 C902 1.350 . S
C897 N905 1.427 . S
C898 H889 0.930 . S
C898 C896 1.378 . S
C898 C899 1.367 . S
C899 C898 1.367 . S
C899 C901 1.433 . S
C900 C896 1.350 . S
C900 C897 1.463 . S
C900 N904 1.427 . S
C901 H891 0.929 . S
C901 C899 1.433 . S
C901 N904 1.384 . S
C902 H893 0.929 . S
C902 C894 1.378 . S
C902 C897 1.350 . S
C903 H890 0.929 . S
C903 C895 1.433 . S
C903 N905 1.384 . S
N904 C900 1.427 . S
N904 C901 1.384 . S
N905 C897 1.427 . S
N905 C903 1.384 . S
H906 C912 0.930 . S
H907 C916 0.930 . S
H908 C921 0.929 . S
H909 C919 0.929 . S
H910 C914 0.929 . S
H911 C920 0.929 . S
C912 H906 0.930 . S
C912 C913 1.367 . S
C912 C920 1.378 . S
C913 C912 1.367 . S
C913 C921 1.433 . S
C914 H910 0.929 . S
C914 C916 1.378 . S
C914 C918 1.350 . S
C915 C918 1.463 . S
C915 C920 1.350 . S
C915 N923 1.427 . S
C916 H907 0.930 . S
C916 C914 1.378 . S
C916 C917 1.367 . S
C917 C916 1.367 . S
C917 C919 1.433 . S
C918 C914 1.350 . S
C918 C915 1.463 . S
C918 N922 1.427 . S
C919 H909 0.929 . S
C919 C917 1.433 . S
C919 N922 1.384 . S
C920 H911 0.929 . S
C920 C912 1.378 . S
C920 C915 1.350 . S
C921 H908 0.929 . S
C921 C913 1.433 . S
C921 N923 1.384 . S
N922 C918 1.427 . S
N922 C919 1.384 . S
N923 C915 1.427 . S
N923 C921 1.384 . S
H924 C930 0.930 . S
H925 C934 0.930 . S
H926 C939 0.929 . S
H927 C937 0.929 . S
H928 C932 0.929 . S
H929 C938 0.929 . S
C930 H924 0.930 . S
C930 C931 1.367 . S
C930 C938 1.378 . S
C931 C930 1.367 . S
C931 C939 1.433 . S
C932 H928 0.929 . S
C932 C934 1.378 . S
C932 C936 1.350 . S
C933 C936 1.463 . S
C933 C938 1.350 . S
C933 N941 1.427 . S
C934 H925 0.930 . S
C934 C932 1.378 . S
C934 C935 1.367 . S
C935 C934 1.367 . S
C935 C937 1.433 . S
C936 C932 1.350 . S
C936 C933 1.463 . S
C936 N940 1.427 . S
C937 H927 0.929 . S
C937 C935 1.433 . S
C937 N940 1.384 . S
C938 H929 0.929 . S
C938 C930 1.378 . S
C938 C933 1.350 . S
C939 H926 0.929 . S
C939 C931 1.433 . S
C939 N941 1.384 . S
N940 C936 1.427 . S
N940 C937 1.384 . S
N941 C933 1.427 . S
N941 C939 1.384 . S
H942 C948 0.930 . S
H943 C952 0.930 . S
H944 C957 0.929 . S
H945 C955 0.929 . S
H946 C950 0.929 . S
H947 C956 0.929 . S
C948 H942 0.930 . S
C948 C949 1.367 . S
C948 C956 1.378 . S
C949 C948 1.367 . S
C949 C957 1.433 . S
C950 H946 0.929 . S
C950 C952 1.378 . S
C950 C954 1.350 . S
C951 C954 1.463 . S
C951 C956 1.350 . S
C951 N959 1.427 . S
C952 H943 0.930 . S
C952 C950 1.378 . S
C952 C953 1.367 . S
C953 C952 1.367 . S
C953 C955 1.433 . S
C954 C950 1.350 . S
C954 C951 1.463 . S
C954 N958 1.427 . S
C955 H945 0.929 . S
C955 C953 1.433 . S
C955 N958 1.384 . S
C956 H947 0.929 . S
C956 C948 1.378 . S
C956 C951 1.350 . S
C957 H944 0.929 . S
C957 C949 1.433 . S
C957 N959 1.384 . S
N958 C954 1.427 . S
N958 C955 1.384 . S
N959 C951 1.427 . S
N959 C957 1.384 . S
H960 C966 0.930 . S
H961 C970 0.930 . S
H962 C975 0.929 . S
H963 C973 0.929 . S
H964 C968 0.929 . S
H965 C974 0.929 . S
C966 H960 0.930 . S
C966 C967 1.367 . S
C966 C974 1.378 . S
C967 C966 1.367 . S
C967 C975 1.433 . S
C968 H964 0.929 . S
C968 C970 1.378 . S
C968 C972 1.350 . S
C969 C972 1.463 . S
C969 C974 1.350 . S
C969 N977 1.427 . S
C970 H961 0.930 . S
C970 C968 1.378 . S
C970 C971 1.367 . S
C971 C970 1.367 . S
C971 C973 1.433 . S
C972 C968 1.350 . S
C972 C969 1.463 . S
C972 N976 1.427 . S
C973 H963 0.929 . S
C973 C971 1.433 . S
C973 N976 1.384 . S
C974 H965 0.929 . S
C974 C966 1.378 . S
C974 C969 1.350 . S
C975 H962 0.929 . S
C975 C967 1.433 . S
C975 N977 1.384 . S
N976 C972 1.427 . S
N976 C973 1.384 . S
N977 C969 1.427 . S
N977 C975 1.384 . S
H978 C984 0.930 . S
H979 C988 0.941 . S
H980 C993 0.929 . S
H981 C991 0.929 . S
H982 C986 0.929 . S
H983 C992 0.929 . S
C984 H978 0.930 . S
C984 C985 1.367 . S
C984 C992 1.378 . S
C985 C984 1.367 . S
C985 C993 1.433 . S
C986 H982 0.929 . S
C986 C988 1.378 . S
C986 C990 1.350 . S
C987 C990 1.463 . S
C987 C992 1.350 . S
C987 N995 1.427 . S
C988 H979 0.941 . S
C988 C986 1.378 . S
C988 C989 1.367 . S
C989 C988 1.367 . S
C989 C991 1.433 . S
C990 C986 1.350 . S
C990 C987 1.463 . S
C990 N994 1.427 . S
C991 H981 0.929 . S
C991 C989 1.433 . S
C991 N994 1.384 . S
C992 H983 0.929 . S
C992 C984 1.378 . S
C992 C987 1.350 . S
C993 H980 0.929 . S
C993 C985 1.433 . S
C993 N995 1.384 . S
N994 C990 1.427 . S
N994 C991 1.384 . S
N995 C987 1.427 . S
N995 C993 1.384 . S
H996 C1002 0.930 . S
H997 C1006 0.930 . S
H998 C1011 0.929 . S
H999 C1009 0.929 . S
H1000 C1004 0.929 . S
H1001 C1010 0.929 . S
C1002 H996 0.930 . S
C1002 C1003 1.367 . S
C1002 C1010 1.378 . S
C1003 C1002 1.367 . S
C1003 C1011 1.433 . S
C1004 H1000 0.929 . S
C1004 C1006 1.378 . S
C1004 C1008 1.350 . S
C1005 C1008 1.463 . S
C1005 C1010 1.350 . S
C1005 N1013 1.427 . S
C1006 H997 0.930 . S
C1006 C1004 1.378 . S
C1006 C1007 1.367 . S
C1007 C1006 1.367 . S
C1007 C1009 1.433 . S
C1008 C1004 1.350 . S
C1008 C1005 1.463 . S
C1008 N1012 1.427 . S
C1009 H999 0.929 . S
C1009 C1007 1.433 . S
C1009 N1012 1.384 . S
C1010 H1001 0.929 . S
C1010 C1002 1.378 . S
C1010 C1005 1.350 . S
C1011 H998 0.929 . S
C1011 C1003 1.433 . S
C1011 N1013 1.384 . S
N1012 C1008 1.427 . S
N1012 C1009 1.384 . S
N1013 C1005 1.427 . S
N1013 C1011 1.384 . S
H1014 C1020 0.930 . S
H1015 C1024 0.930 1_455 S
H1016 C1029 0.929 . S
H1017 C1027 0.929 . S
H1018 C1022 0.929 . S
H1019 C1028 0.929 . S
C1020 H1014 0.930 . S
C1020 C1021 1.367 . S
C1020 C1028 1.378 . S
C1021 C1020 1.367 . S
C1021 C1029 1.433 . S
C1022 H1018 0.929 . S
C1022 C1024 1.378 . S
C1022 C1026 1.350 . S
C1023 C1026 1.463 . S
C1023 C1028 1.350 . S
C1023 N1031 1.427 . S
C1024 H1015 0.930 1_655 S
C1024 C1022 1.378 . S
C1024 C1025 1.367 . S
C1025 C1024 1.367 . S
C1025 C1027 1.433 . S
C1026 C1022 1.350 . S
C1026 C1023 1.463 . S
C1026 N1030 1.427 . S
C1027 H1017 0.929 . S
C1027 C1025 1.433 . S
C1027 N1030 1.384 . S
C1028 H1019 0.929 . S
C1028 C1020 1.378 . S
C1028 C1023 1.350 . S
C1029 H1016 0.929 . S
C1029 C1021 1.433 . S
C1029 N1031 1.384 . S
N1030 C1026 1.427 . S
N1030 C1027 1.384 . S
N1031 C1023 1.427 . S
N1031 C1029 1.384 . S
H1032 C1038 0.930 . S
H1033 C1042 0.930 . S
H1034 C1047 0.929 . S
H1035 C1045 0.929 . S
H1036 C1040 0.929 . S
H1037 C1046 0.929 . S
C1038 H1032 0.930 . S
C1038 C1039 1.367 . S
C1038 C1046 1.378 . S
C1039 C1038 1.367 . S
C1039 C1047 1.433 . S
C1040 H1036 0.929 . S
C1040 C1042 1.378 . S
C1040 C1044 1.350 . S
C1041 C1044 1.463 . S
C1041 C1046 1.350 . S
C1041 N1049 1.427 . S
C1042 H1033 0.930 . S
C1042 C1040 1.378 . S
C1042 C1043 1.367 . S
C1043 C1042 1.367 . S
C1043 C1045 1.433 . S
C1044 C1040 1.350 . S
C1044 C1041 1.463 . S
C1044 N1048 1.427 . S
C1045 H1035 0.929 . S
C1045 C1043 1.433 . S
C1045 N1048 1.384 . S
C1046 H1037 0.929 . S
C1046 C1038 1.378 . S
C1046 C1041 1.350 . S
C1047 H1034 0.929 . S
C1047 C1039 1.433 . S
C1047 N1049 1.384 . S
N1048 C1044 1.427 . S
N1048 C1045 1.384 . S
N1049 C1041 1.427 . S
N1049 C1047 1.384 . S
H1050 C1056 0.930 . S
H1051 C1060 0.930 . S
H1052 C1065 0.929 . S
H1053 C1063 0.929 . S
H1054 C1058 0.929 . S
H1055 C1064 0.929 . S
C1056 H1050 0.930 . S
C1056 C1057 1.367 . S
C1056 C1064 1.378 . S
C1057 C1056 1.367 . S
C1057 C1065 1.433 . S
C1058 H1054 0.929 . S
C1058 C1060 1.378 . S
C1058 C1062 1.350 . S
C1059 C1062 1.463 . S
C1059 C1064 1.350 . S
C1059 N1067 1.427 . S
C1060 H1051 0.930 . S
C1060 C1058 1.378 . S
C1060 C1061 1.367 . S
C1061 C1060 1.367 . S
C1061 C1063 1.433 . S
C1062 C1058 1.350 . S
C1062 C1059 1.463 . S
C1062 N1066 1.427 . S
C1063 H1053 0.929 . S
C1063 C1061 1.433 . S
C1063 N1066 1.384 . S
C1064 H1055 0.929 . S
C1064 C1056 1.378 . S
C1064 C1059 1.350 . S
C1065 H1052 0.929 . S
C1065 C1057 1.433 . S
C1065 N1067 1.384 . S
N1066 C1062 1.427 . S
N1066 C1063 1.384 . S
N1067 C1059 1.427 . S
N1067 C1065 1.384 . S
H1068 C1074 0.930 . S
H1069 C1078 0.930 . S
H1070 C1083 0.929 . S
H1071 C1081 0.929 . S
H1072 C1076 0.923 1_554 S
H1073 C1082 0.929 . S
C1074 H1068 0.930 . S
C1074 C1075 1.367 . S
C1074 C1082 1.378 . S
C1075 C1074 1.367 . S
C1075 C1083 1.433 . S
C1076 H1072 0.923 1_556 S
C1076 C1078 1.376 1_556 S
C1076 C1080 1.357 . S
C1077 C1080 1.463 . S
C1077 C1082 1.350 . S
C1077 N1085 1.427 . S
C1078 H1069 0.930 . S
C1078 C1076 1.376 1_554 S
C1078 C1079 1.367 1_554 S
C1079 C1078 1.367 1_556 S
C1079 C1081 1.433 . S
C1080 C1076 1.357 . S
C1080 C1077 1.463 . S
C1080 N1084 1.427 . S
C1081 H1071 0.929 . S
C1081 C1079 1.433 . S
C1081 N1084 1.384 . S
C1082 H1073 0.929 . S
C1082 C1074 1.378 . S
C1082 C1077 1.350 . S
C1083 H1070 0.929 . S
C1083 C1075 1.433 . S
C1083 N1085 1.384 . S
N1084 C1080 1.427 . S
N1084 C1081 1.384 . S
N1085 C1077 1.427 . S
N1085 C1083 1.384 . S
H1086 C1092 0.930 . S
H1087 C1096 0.930 . S
H1088 C1101 0.929 . S
H1089 C1099 0.929 . S
H1090 C1094 0.929 . S
H1091 C1100 0.929 . S
C1092 H1086 0.930 . S
C1092 C1093 1.367 . S
C1092 C1100 1.378 . S
C1093 C1092 1.367 . S
C1093 C1101 1.433 . S
C1094 H1090 0.929 . S
C1094 C1096 1.378 . S
C1094 C1098 1.350 . S
C1095 C1098 1.463 . S
C1095 C1100 1.350 . S
C1095 N1103 1.427 . S
C1096 H1087 0.930 . S
C1096 C1094 1.378 . S
C1096 C1097 1.367 . S
C1097 C1096 1.367 . S
C1097 C1099 1.433 . S
C1098 C1094 1.350 . S
C1098 C1095 1.463 . S
C1098 N1102 1.427 . S
C1099 H1089 0.929 . S
C1099 C1097 1.433 . S
C1099 N1102 1.384 . S
C1100 H1091 0.929 . S
C1100 C1092 1.378 . S
C1100 C1095 1.350 . S
C1101 H1088 0.929 . S
C1101 C1093 1.433 . S
C1101 N1103 1.384 . S
N1102 C1098 1.427 . S
N1102 C1099 1.384 . S
N1103 C1095 1.427 . S
N1103 C1101 1.384 . S
H1104 C1110 0.930 . S
H1105 C1114 0.930 . S
H1106 C1119 0.929 . S
H1107 C1117 0.929 . S
H1108 C1112 0.929 . S
H1109 C1118 0.929 . S
C1110 H1104 0.930 . S
C1110 C1111 1.367 . S
C1110 C1118 1.378 . S
C1111 C1110 1.367 . S
C1111 C1119 1.433 . S
C1112 H1108 0.929 . S
C1112 C1114 1.378 . S
C1112 C1116 1.350 . S
C1113 C1116 1.463 . S
C1113 C1118 1.350 . S
C1113 N1121 1.427 . S
C1114 H1105 0.930 . S
C1114 C1112 1.378 . S
C1114 C1115 1.367 . S
C1115 C1114 1.367 . S
C1115 C1117 1.433 . S
C1116 C1112 1.350 . S
C1116 C1113 1.463 . S
C1116 N1120 1.427 . S
C1117 H1107 0.929 . S
C1117 C1115 1.433 . S
C1117 N1120 1.384 . S
C1118 H1109 0.929 . S
C1118 C1110 1.378 . S
C1118 C1113 1.350 . S
C1119 H1106 0.929 . S
C1119 C1111 1.433 . S
C1119 N1121 1.384 . S
N1120 C1116 1.427 . S
N1120 C1117 1.384 . S
N1121 C1113 1.427 . S
N1121 C1119 1.384 . S
H1122 C1128 0.930 . S
H1123 C1132 0.930 . S
H1124 C1137 0.929 . S
H1125 C1135 0.929 . S
H1126 C1130 0.929 . S
H1127 C1136 0.929 . S
C1128 H1122 0.930 . S
C1128 C1129 1.367 . S
C1128 C1136 1.378 . S
C1129 C1128 1.367 . S
C1129 C1137 1.433 . S
C1130 H1126 0.929 . S
C1130 C1132 1.378 . S
C1130 C1134 1.350 . S
C1131 C1134 1.463 . S
C1131 C1136 1.350 . S
C1131 N1139 1.427 . S
C1132 H1123 0.930 . S
C1132 C1130 1.378 . S
C1132 C1133 1.367 . S
C1133 C1132 1.367 . S
C1133 C1135 1.433 . S
C1134 C1130 1.350 . S
C1134 C1131 1.463 . S
C1134 N1138 1.427 . S
C1135 H1125 0.929 . S
C1135 C1133 1.433 . S
C1135 N1138 1.384 . S
C1136 H1127 0.929 . S
C1136 C1128 1.378 . S
C1136 C1131 1.350 . S
C1137 H1124 0.929 . S
C1137 C1129 1.433 . S
C1137 N1139 1.384 . S
N1138 C1134 1.427 . S
N1138 C1135 1.384 . S
N1139 C1131 1.427 . S
N1139 C1137 1.384 . S
H1140 C1146 0.930 . S
H1141 C1150 0.930 . S
H1142 C1155 0.929 . S
H1143 C1153 0.929 . S
H1144 C1148 0.929 . S
H1145 C1154 0.929 . S
C1146 H1140 0.930 . S
C1146 C1147 1.367 . S
C1146 C1154 1.378 . S
C1147 C1146 1.367 . S
C1147 C1155 1.433 . S
C1148 H1144 0.929 . S
C1148 C1150 1.378 . S
C1148 C1152 1.350 . S
C1149 C1152 1.463 . S
C1149 C1154 1.350 . S
C1149 N1157 1.427 . S
C1150 H1141 0.930 . S
C1150 C1148 1.378 . S
C1150 C1151 1.367 . S
C1151 C1150 1.367 . S
C1151 C1153 1.433 . S
C1152 C1148 1.350 . S
C1152 C1149 1.463 . S
C1152 N1156 1.427 . S
C1153 H1143 0.929 . S
C1153 C1151 1.433 . S
C1153 N1156 1.384 . S
C1154 H1145 0.929 . S
C1154 C1146 1.378 . S
C1154 C1149 1.350 . S
C1155 H1142 0.929 . S
C1155 C1147 1.433 . S
C1155 N1157 1.384 . S
N1156 C1152 1.427 . S
N1156 C1153 1.384 . S
N1157 C1149 1.427 . S
N1157 C1155 1.384 . S
H1158 C1164 0.930 . S
H1159 C1168 0.930 . S
H1160 C1173 0.929 . S
H1161 C1171 0.929 . S
H1162 C1166 0.929 . S
H1163 C1172 0.929 . S
C1164 H1158 0.930 . S
C1164 C1165 1.367 . S
C1164 C1172 1.378 . S
C1165 C1164 1.367 . S
C1165 C1173 1.433 . S
C1166 H1162 0.929 . S
C1166 C1168 1.378 . S
C1166 C1170 1.350 . S
C1167 C1170 1.463 . S
C1167 C1172 1.350 . S
C1167 N1175 1.427 . S
C1168 H1159 0.930 . S
C1168 C1166 1.378 . S
C1168 C1169 1.367 . S
C1169 C1168 1.367 . S
C1169 C1171 1.433 . S
C1170 C1166 1.350 . S
C1170 C1167 1.463 . S
C1170 N1174 1.427 . S
C1171 H1161 0.929 . S
C1171 C1169 1.433 . S
C1171 N1174 1.384 . S
C1172 H1163 0.929 . S
C1172 C1164 1.378 . S
C1172 C1167 1.350 . S
C1173 H1160 0.929 . S
C1173 C1165 1.433 . S
C1173 N1175 1.384 . S
N1174 C1170 1.427 . S
N1174 C1171 1.384 . S
N1175 C1167 1.427 . S
N1175 C1173 1.384 . S
H1176 C1182 0.930 . S
H1177 C1186 0.930 . S
H1178 C1191 0.929 . S
H1179 C1189 0.929 . S
H1180 C1184 0.929 . S
H1181 C1190 0.929 . S
C1182 H1176 0.930 . S
C1182 C1183 1.367 . S
C1182 C1190 1.378 . S
C1183 C1182 1.367 . S
C1183 C1191 1.433 . S
C1184 H1180 0.929 . S
C1184 C1186 1.378 . S
C1184 C1188 1.350 . S
C1185 C1188 1.463 . S
C1185 C1190 1.350 . S
C1185 N1193 1.427 . S
C1186 H1177 0.930 . S
C1186 C1184 1.378 . S
C1186 C1187 1.367 . S
C1187 C1186 1.367 . S
C1187 C1189 1.433 . S
C1188 C1184 1.350 . S
C1188 C1185 1.463 . S
C1188 N1192 1.427 . S
C1189 H1179 0.929 . S
C1189 C1187 1.433 . S
C1189 N1192 1.384 . S
C1190 H1181 0.929 . S
C1190 C1182 1.378 . S
C1190 C1185 1.350 . S
C1191 H1178 0.929 . S
C1191 C1183 1.433 . S
C1191 N1193 1.384 . S
N1192 C1188 1.427 . S
N1192 C1189 1.384 . S
N1193 C1185 1.427 . S
N1193 C1191 1.384 . S
H1194 C1200 0.930 . S
H1195 C1204 0.930 1_565 S
H1196 C1209 0.929 . S
H1197 C1207 0.929 . S
H1198 C1202 0.925 1_565 S
H1199 C1208 0.929 . S
C1200 H1194 0.930 . S
C1200 C1201 1.367 . S
C1200 C1208 1.378 . S
C1201 C1200 1.367 . S
C1201 C1209 1.433 . S
C1202 H1198 0.925 1_545 S
C1202 C1204 1.378 . S
C1202 C1206 1.350 . S
C1203 C1206 1.463 . S
C1203 C1208 1.350 . S
C1203 N1211 1.427 . S
C1204 H1195 0.930 1_545 S
C1204 C1202 1.378 . S
C1204 C1205 1.367 . S
C1205 C1204 1.367 . S
C1205 C1207 1.433 . S
C1206 C1202 1.350 . S
C1206 C1203 1.463 . S
C1206 N1210 1.427 . S
C1207 H1197 0.929 . S
C1207 C1205 1.433 . S
C1207 N1210 1.384 . S
C1208 H1199 0.929 . S
C1208 C1200 1.378 . S
C1208 C1203 1.350 . S
C1209 H1196 0.929 . S
C1209 C1201 1.433 . S
C1209 N1211 1.384 . S
N1210 C1206 1.427 . S
N1210 C1207 1.384 . S
N1211 C1203 1.427 . S
N1211 C1209 1.384 . S
H1212 C1218 0.930 . S
H1213 C1222 0.930 . S
H1214 C1227 0.929 . S
H1215 C1225 0.929 . S
H1216 C1220 0.929 . S
H1217 C1226 0.929 . S
C1218 H1212 0.930 . S
C1218 C1219 1.367 . S
C1218 C1226 1.378 . S
C1219 C1218 1.367 . S
C1219 C1227 1.433 . S
C1220 H1216 0.929 . S
C1220 C1222 1.378 . S
C1220 C1224 1.350 . S
C1221 C1224 1.463 . S
C1221 C1226 1.350 . S
C1221 N1229 1.427 . S
C1222 H1213 0.930 . S
C1222 C1220 1.378 . S
C1222 C1223 1.367 . S
C1223 C1222 1.367 . S
C1223 C1225 1.433 . S
C1224 C1220 1.350 . S
C1224 C1221 1.463 . S
C1224 N1228 1.427 . S
C1225 H1215 0.929 . S
C1225 C1223 1.433 . S
C1225 N1228 1.384 . S
C1226 H1217 0.929 . S
C1226 C1218 1.378 . S
C1226 C1221 1.350 . S
C1227 H1214 0.929 . S
C1227 C1219 1.433 . S
C1227 N1229 1.384 . S
N1228 C1224 1.427 . S
N1228 C1225 1.384 . S
N1229 C1221 1.427 . S
N1229 C1227 1.384 . S
H1230 C1236 0.930 . S
H1231 C1240 0.930 . S
H1232 C1245 0.929 . S
H1233 C1243 0.929 . S
H1234 C1238 0.929 . S
H1235 C1244 0.929 . S
C1236 H1230 0.930 . S
C1236 C1237 1.367 . S
C1236 C1244 1.378 . S
C1237 C1236 1.367 . S
C1237 C1245 1.433 . S
C1238 H1234 0.929 . S
C1238 C1240 1.378 . S
C1238 C1242 1.350 . S
C1239 C1242 1.463 . S
C1239 C1244 1.350 . S
C1239 N1247 1.427 . S
C1240 H1231 0.930 . S
C1240 C1238 1.378 . S
C1240 C1241 1.367 . S
C1241 C1240 1.367 . S
C1241 C1243 1.433 . S
C1242 C1238 1.350 . S
C1242 C1239 1.463 . S
C1242 N1246 1.427 . S
C1243 H1233 0.929 . S
C1243 C1241 1.433 . S
C1243 N1246 1.384 . S
C1244 H1235 0.929 . S
C1244 C1236 1.378 . S
C1244 C1239 1.350 . S
C1245 H1232 0.929 . S
C1245 C1237 1.433 . S
C1245 N1247 1.384 . S
N1246 C1242 1.427 . S
N1246 C1243 1.384 . S
N1247 C1239 1.427 . S
N1247 C1245 1.384 . S
H1248 C1254 0.930 . S
H1249 C1258 0.930 . S
H1250 C1263 0.929 . S
H1251 C1261 0.929 . S
H1252 C1256 0.929 . S
H1253 C1262 0.929 . S
C1254 H1248 0.930 . S
C1254 C1255 1.367 . S
C1254 C1262 1.378 . S
C1255 C1254 1.367 . S
C1255 C1263 1.433 . S
C1256 H1252 0.929 . S
C1256 C1258 1.378 . S
C1256 C1260 1.350 . S
C1257 C1260 1.463 . S
C1257 C1262 1.350 . S
C1257 N1265 1.427 . S
C1258 H1249 0.930 . S
C1258 C1256 1.378 . S
C1258 C1259 1.367 . S
C1259 C1258 1.367 . S
C1259 C1261 1.433 . S
C1260 C1256 1.350 . S
C1260 C1257 1.463 . S
C1260 N1264 1.427 . S
C1261 H1251 0.929 . S
C1261 C1259 1.433 . S
C1261 N1264 1.384 . S
C1262 H1253 0.929 . S
C1262 C1254 1.378 . S
C1262 C1257 1.350 . S
C1263 H1250 0.929 . S
C1263 C1255 1.433 . S
C1263 N1265 1.384 . S
N1264 C1260 1.427 . S
N1264 C1261 1.384 . S
N1265 C1257 1.427 . S
N1265 C1263 1.384 . S
H1266 C1272 0.930 . S
H1267 C1276 0.930 . S
H1268 C1281 0.929 . S
H1269 C1279 0.929 . S
H1270 C1274 0.929 . S
H1271 C1280 0.929 . S
C1272 H1266 0.930 . S
C1272 C1273 1.367 . S
C1272 C1280 1.378 . S
C1273 C1272 1.367 . S
C1273 C1281 1.433 . S
C1274 H1270 0.929 . S
C1274 C1276 1.378 . S
C1274 C1278 1.350 . S
C1275 C1278 1.463 . S
C1275 C1280 1.350 . S
C1275 N1283 1.427 . S
C1276 H1267 0.930 . S
C1276 C1274 1.378 . S
C1276 C1277 1.367 . S
C1277 C1276 1.367 . S
C1277 C1279 1.433 . S
C1278 C1274 1.350 . S
C1278 C1275 1.463 . S
C1278 N1282 1.427 . S
C1279 H1269 0.929 . S
C1279 C1277 1.433 . S
C1279 N1282 1.384 . S
C1280 H1271 0.929 . S
C1280 C1272 1.378 . S
C1280 C1275 1.350 . S
C1281 H1268 0.929 . S
C1281 C1273 1.433 . S
C1281 N1283 1.384 . S
N1282 C1278 1.427 . S
N1282 C1279 1.384 . S
N1283 C1275 1.427 . S
N1283 C1281 1.384 . S
H1284 C1290 0.930 . S
H1285 C1294 0.930 . S
H1286 C1299 0.929 . S
H1287 C1297 0.929 . S
H1288 C1292 0.929 . S
H1289 C1298 0.929 . S
C1290 H1284 0.930 . S
C1290 C1291 1.367 . S
C1290 C1298 1.378 . S
C1291 C1290 1.367 . S
C1291 C1299 1.433 . S
C1292 H1288 0.929 . S
C1292 C1294 1.378 . S
C1292 C1296 1.350 . S
C1293 C1296 1.463 . S
C1293 C1298 1.350 . S
C1293 N1301 1.427 . S
C1294 H1285 0.930 . S
C1294 C1292 1.378 . S
C1294 C1295 1.367 . S
C1295 C1294 1.367 . S
C1295 C1297 1.433 . S
C1296 C1292 1.350 . S
C1296 C1293 1.463 . S
C1296 N1300 1.427 . S
C1297 H1287 0.929 . S
C1297 C1295 1.433 . S
C1297 N1300 1.384 . S
C1298 H1289 0.929 . S
C1298 C1290 1.378 . S
C1298 C1293 1.350 . S
C1299 H1286 0.929 . S
C1299 C1291 1.433 . S
C1299 N1301 1.384 . S
N1300 C1296 1.427 . S
N1300 C1297 1.384 . S
N1301 C1293 1.427 . S
N1301 C1299 1.384 . S
H1302 C1308 0.930 . S
H1303 C1312 0.930 . S
H1304 C1317 0.929 . S
H1305 C1315 0.929 . S
H1306 C1310 0.929 . S
H1307 C1316 0.929 . S
C1308 H1302 0.930 . S
C1308 C1309 1.367 . S
C1308 C1316 1.378 . S
C1309 C1308 1.367 . S
C1309 C1317 1.433 . S
C1310 H1306 0.929 . S
C1310 C1312 1.378 . S
C1310 C1314 1.350 . S
C1311 C1314 1.463 . S
C1311 C1316 1.350 . S
C1311 N1319 1.427 . S
C1312 H1303 0.930 . S
C1312 C1310 1.378 . S
C1312 C1313 1.367 . S
C1313 C1312 1.367 . S
C1313 C1315 1.433 . S
C1314 C1310 1.350 . S
C1314 C1311 1.463 . S
C1314 N1318 1.427 . S
C1315 H1305 0.929 . S
C1315 C1313 1.433 . S
C1315 N1318 1.384 . S
C1316 H1307 0.929 . S
C1316 C1308 1.378 . S
C1316 C1311 1.350 . S
C1317 H1304 0.929 . S
C1317 C1309 1.433 . S
C1317 N1319 1.384 . S
N1318 C1314 1.427 . S
N1318 C1315 1.384 . S
N1319 C1311 1.427 . S
N1319 C1317 1.384 . S
H1320 C1326 0.930 . S
H1321 C1330 0.930 . S
H1322 C1335 0.929 . S
H1323 C1333 0.929 . S
H1324 C1328 0.929 . S
H1325 C1334 0.929 . S
C1326 H1320 0.930 . S
C1326 C1327 1.367 . S
C1326 C1334 1.378 . S
C1327 C1326 1.367 . S
C1327 C1335 1.433 . S
C1328 H1324 0.929 . S
C1328 C1330 1.378 . S
C1328 C1332 1.350 . S
C1329 C1332 1.463 . S
C1329 C1334 1.350 . S
C1329 N1337 1.427 . S
C1330 H1321 0.930 . S
C1330 C1328 1.378 . S
C1330 C1331 1.367 . S
C1331 C1330 1.367 . S
C1331 C1333 1.433 . S
C1332 C1328 1.350 . S
C1332 C1329 1.463 . S
C1332 N1336 1.427 . S
C1333 H1323 0.929 . S
C1333 C1331 1.433 . S
C1333 N1336 1.384 . S
C1334 H1325 0.929 . S
C1334 C1326 1.378 . S
C1334 C1329 1.350 . S
C1335 H1322 0.929 . S
C1335 C1327 1.433 . S
C1335 N1337 1.384 . S
N1336 C1332 1.427 . S
N1336 C1333 1.384 . S
N1337 C1329 1.427 . S
N1337 C1335 1.384 . S
H1338 C1344 0.930 1_554 S
H1339 C1348 0.930 . S
H1340 C1353 0.929 . S
H1341 C1351 0.929 . S
H1342 C1346 0.929 . S
H1343 C1352 0.929 . S
C1344 H1338 0.930 1_556 S
C1344 C1345 1.367 . S
C1344 C1352 1.378 . S
C1345 C1344 1.367 . S
C1345 C1353 1.433 . S
C1346 H1342 0.929 . S
C1346 C1348 1.378 . S
C1346 C1350 1.350 . S
C1347 C1350 1.463 . S
C1347 C1352 1.350 . S
C1347 N1355 1.427 . S
C1348 H1339 0.930 . S
C1348 C1346 1.378 . S
C1348 C1349 1.367 . S
C1349 C1348 1.367 . S
C1349 C1351 1.433 . S
C1350 C1346 1.350 . S
C1350 C1347 1.463 . S
C1350 N1354 1.427 . S
C1351 H1341 0.929 . S
C1351 C1349 1.433 . S
C1351 N1354 1.384 . S
C1352 H1343 0.929 . S
C1352 C1344 1.378 . S
C1352 C1347 1.350 . S
C1353 H1340 0.929 . S
C1353 C1345 1.433 . S
C1353 N1355 1.384 . S
N1354 C1350 1.427 . S
N1354 C1351 1.384 . S
N1355 C1347 1.427 . S
N1355 C1353 1.384 . S
H1356 C1362 0.930 . S
H1357 C1366 0.930 . S
H1358 C1371 0.929 . S
H1359 C1369 0.929 . S
H1360 C1364 0.929 . S
H1361 C1370 0.929 . S
C1362 H1356 0.930 . S
C1362 C1363 1.367 . S
C1362 C1370 1.378 . S
C1363 C1362 1.367 . S
C1363 C1371 1.433 . S
C1364 H1360 0.929 . S
C1364 C1366 1.378 . S
C1364 C1368 1.350 . S
C1365 C1368 1.463 . S
C1365 C1370 1.350 . S
C1365 N1373 1.427 . S
C1366 H1357 0.930 . S
C1366 C1364 1.378 . S
C1366 C1367 1.367 . S
C1367 C1366 1.367 . S
C1367 C1369 1.433 . S
C1368 C1364 1.350 . S
C1368 C1365 1.463 . S
C1368 N1372 1.427 . S
C1369 H1359 0.929 . S
C1369 C1367 1.433 . S
C1369 N1372 1.384 . S
C1370 H1361 0.929 . S
C1370 C1362 1.378 . S
C1370 C1365 1.350 . S
C1371 H1358 0.929 . S
C1371 C1363 1.433 . S
C1371 N1373 1.384 . S
N1372 C1368 1.427 . S
N1372 C1369 1.384 . S
N1373 C1365 1.427 . S
N1373 C1371 1.384 . S
H1374 C1380 0.930 . S
H1375 C1384 0.930 . S
H1376 C1389 0.929 . S
H1377 C1387 0.888 1_655 S
H1378 C1382 0.929 . S
H1379 C1388 0.929 1_655 S
C1380 H1374 0.930 . S
C1380 C1381 1.367 . S
C1380 C1388 1.378 . S
C1381 C1380 1.367 . S
C1381 C1389 1.433 . S
C1382 H1378 0.929 . S
C1382 C1384 1.378 . S
C1382 C1386 1.350 . S
C1383 C1386 1.463 . S
C1383 C1388 1.350 . S
C1383 N1391 1.427 . S
C1384 H1375 0.930 . S
C1384 C1382 1.378 . S
C1384 C1385 1.367 . S
C1385 C1384 1.367 . S
C1385 C1387 1.470 . S
C1386 C1382 1.350 . S
C1386 C1383 1.463 . S
C1386 N1390 1.427 . S
C1387 H1377 0.888 1_455 S
C1387 C1385 1.470 . S
C1387 N1390 1.392 . S
C1388 H1379 0.929 1_455 S
C1388 C1380 1.378 . S
C1388 C1383 1.350 . S
C1389 H1376 0.929 . S
C1389 C1381 1.433 . S
C1389 N1391 1.384 . S
N1390 C1386 1.427 . S
N1390 C1387 1.392 . S
N1391 C1383 1.427 . S
N1391 C1389 1.384 . S
H1392 C1398 0.930 . S
H1393 C1402 0.930 . S
H1394 C1407 0.929 . S
H1395 C1405 0.929 . S
H1396 C1400 0.929 . S
H1397 C1406 0.929 . S
C1398 H1392 0.930 . S
C1398 C1399 1.367 . S
C1398 C1406 1.378 . S
C1399 C1398 1.367 . S
C1399 C1407 1.433 . S
C1400 H1396 0.929 . S
C1400 C1402 1.378 . S
C1400 C1404 1.350 . S
C1401 C1404 1.463 . S
C1401 C1406 1.350 . S
C1401 N1409 1.427 . S
C1402 H1393 0.930 . S
C1402 C1400 1.378 . S
C1402 C1403 1.367 . S
C1403 C1402 1.367 . S
C1403 C1405 1.433 . S
C1404 C1400 1.350 . S
C1404 C1401 1.463 . S
C1404 N1408 1.427 . S
C1405 H1395 0.929 . S
C1405 C1403 1.433 . S
C1405 N1408 1.384 . S
C1406 H1397 0.929 . S
C1406 C1398 1.378 . S
C1406 C1401 1.350 . S
C1407 H1394 0.929 . S
C1407 C1399 1.433 . S
C1407 N1409 1.384 . S
N1408 C1404 1.427 . S
N1408 C1405 1.384 . S
N1409 C1401 1.427 . S
N1409 C1407 1.384 . S
H1410 C1416 0.930 . S
H1411 C1420 0.930 . S
H1412 C1425 0.929 . S
H1413 C1423 0.929 . S
H1414 C1418 0.929 . S
H1415 C1424 0.929 . S
C1416 H1410 0.930 . S
C1416 C1417 1.367 . S
C1416 C1424 1.378 . S
C1417 C1416 1.367 . S
C1417 C1425 1.433 . S
C1418 H1414 0.929 . S
C1418 C1420 1.378 . S
C1418 C1422 1.350 . S
C1419 C1422 1.463 . S
C1419 C1424 1.350 . S
C1419 N1427 1.427 . S
C1420 H1411 0.930 . S
C1420 C1418 1.378 . S
C1420 C1421 1.367 . S
C1421 C1420 1.367 . S
C1421 C1423 1.433 . S
C1422 C1418 1.350 . S
C1422 C1419 1.463 . S
C1422 N1426 1.427 . S
C1423 H1413 0.929 . S
C1423 C1421 1.433 . S
C1423 N1426 1.384 . S
C1424 H1415 0.929 . S
C1424 C1416 1.378 . S
C1424 C1419 1.350 . S
C1425 H1412 0.929 . S
C1425 C1417 1.433 . S
C1425 N1427 1.384 . S
N1426 C1422 1.427 . S
N1426 C1423 1.384 . S
N1427 C1419 1.427 . S
N1427 C1425 1.384 . S
H1428 C1434 0.930 . S
H1429 C1438 0.930 . S
H1430 C1443 0.929 . S
H1431 C1441 0.929 . S
H1432 C1436 0.929 . S
H1433 C1442 0.929 . S
C1434 H1428 0.930 . S
C1434 C1435 1.367 . S
C1434 C1442 1.378 . S
C1435 C1434 1.367 . S
C1435 C1443 1.433 . S
C1436 H1432 0.929 . S
C1436 C1438 1.378 . S
C1436 C1440 1.350 . S
C1437 C1440 1.463 . S
C1437 C1442 1.350 . S
C1437 N1445 1.427 . S
C1438 H1429 0.930 . S
C1438 C1436 1.378 . S
C1438 C1439 1.367 . S
C1439 C1438 1.367 . S
C1439 C1441 1.433 . S
C1440 C1436 1.350 . S
C1440 C1437 1.463 . S
C1440 N1444 1.427 . S
C1441 H1431 0.929 . S
C1441 C1439 1.433 . S
C1441 N1444 1.384 . S
C1442 H1433 0.929 . S
C1442 C1434 1.378 . S
C1442 C1437 1.350 . S
C1443 H1430 0.929 . S
C1443 C1435 1.433 . S
C1443 N1445 1.384 . S
N1444 C1440 1.427 . S
N1444 C1441 1.384 . S
N1445 C1437 1.427 . S
N1445 C1443 1.384 . S
H1446 C1452 0.930 1_556 S
H1447 C1456 0.930 . S
H1448 C1461 0.929 . S
H1449 C1459 0.929 . S
H1450 C1454 0.929 . S
H1451 C1460 0.929 . S
C1452 H1446 0.930 1_554 S
C1452 C1453 1.367 . S
C1452 C1460 1.378 . S
C1453 C1452 1.367 . S
C1453 C1461 1.433 . S
C1454 H1450 0.929 . S
C1454 C1456 1.378 . S
C1454 C1458 1.350 . S
C1455 C1458 1.463 . S
C1455 C1460 1.350 . S
C1455 N1463 1.427 . S
C1456 H1447 0.930 . S
C1456 C1454 1.378 . S
C1456 C1457 1.367 . S
C1457 C1456 1.367 . S
C1457 C1459 1.433 . S
C1458 C1454 1.350 . S
C1458 C1455 1.463 . S
C1458 N1462 1.427 . S
C1459 H1449 0.929 . S
C1459 C1457 1.433 . S
C1459 N1462 1.384 . S
C1460 H1451 0.929 . S
C1460 C1452 1.378 . S
C1460 C1455 1.350 . S
C1461 H1448 0.929 . S
C1461 C1453 1.433 . S
C1461 N1463 1.384 . S
N1462 C1458 1.427 . S
N1462 C1459 1.384 . S
N1463 C1455 1.427 . S
N1463 C1461 1.384 . S
H1464 C1470 0.930 . S
H1465 C1474 0.930 . S
H1466 C1479 0.929 . S
H1467 C1477 0.929 . S
H1468 C1472 0.929 . S
H1469 C1478 0.929 . S
C1470 H1464 0.930 . S
C1470 C1471 1.367 . S
C1470 C1478 1.378 . S
C1471 C1470 1.367 . S
C1471 C1479 1.433 . S
C1472 H1468 0.929 . S
C1472 C1474 1.378 . S
C1472 C1476 1.350 . S
C1473 C1476 1.463 . S
C1473 C1478 1.350 . S
C1473 N1481 1.427 . S
C1474 H1465 0.930 . S
C1474 C1472 1.378 . S
C1474 C1475 1.367 . S
C1475 C1474 1.367 . S
C1475 C1477 1.433 . S
C1476 C1472 1.350 . S
C1476 C1473 1.463 . S
C1476 N1480 1.427 . S
C1477 H1467 0.929 . S
C1477 C1475 1.433 . S
C1477 N1480 1.384 . S
C1478 H1469 0.929 . S
C1478 C1470 1.378 . S
C1478 C1473 1.350 . S
C1479 H1466 0.929 . S
C1479 C1471 1.433 . S
C1479 N1481 1.384 . S
N1480 C1476 1.427 . S
N1480 C1477 1.384 . S
N1481 C1473 1.427 . S
N1481 C1479 1.384 . S
H1482 C1488 0.930 . S
H1483 C1492 0.930 . S
H1484 C1497 0.929 . S
H1485 C1495 0.929 . S
H1486 C1490 0.929 . S
H1487 C1496 0.929 . S
C1488 H1482 0.930 . S
C1488 C1489 1.367 . S
C1488 C1496 1.378 . S
C1489 C1488 1.367 . S
C1489 C1497 1.433 . S
C1490 H1486 0.929 . S
C1490 C1492 1.378 . S
C1490 C1494 1.350 . S
C1491 C1494 1.463 . S
C1491 C1496 1.350 . S
C1491 N1499 1.427 . S
C1492 H1483 0.930 . S
C1492 C1490 1.378 . S
C1492 C1493 1.367 . S
C1493 C1492 1.367 . S
C1493 C1495 1.433 . S
C1494 C1490 1.350 . S
C1494 C1491 1.463 . S
C1494 N1498 1.427 . S
C1495 H1485 0.929 . S
C1495 C1493 1.433 . S
C1495 N1498 1.384 . S
C1496 H1487 0.929 . S
C1496 C1488 1.378 . S
C1496 C1491 1.350 . S
C1497 H1484 0.929 . S
C1497 C1489 1.433 . S
C1497 N1499 1.384 . S
N1498 C1494 1.427 . S
N1498 C1495 1.384 . S
N1499 C1491 1.427 . S
N1499 C1497 1.384 . S
H1500 C1506 0.930 . S
H1501 C1510 0.930 . S
H1502 C1515 0.929 . S
H1503 C1513 0.929 . S
H1504 C1508 0.929 . S
H1505 C1514 0.929 . S
C1506 H1500 0.930 . S
C1506 C1507 1.367 . S
C1506 C1514 1.378 . S
C1507 C1506 1.367 . S
C1507 C1515 1.433 . S
C1508 H1504 0.929 . S
C1508 C1510 1.378 . S
C1508 C1512 1.350 . S
C1509 C1512 1.463 . S
C1509 C1514 1.350 . S
C1509 N1517 1.427 . S
C1510 H1501 0.930 . S
C1510 C1508 1.378 . S
C1510 C1511 1.367 . S
C1511 C1510 1.367 . S
C1511 C1513 1.433 . S
C1512 C1508 1.350 . S
C1512 C1509 1.463 . S
C1512 N1516 1.427 . S
C1513 H1503 0.929 . S
C1513 C1511 1.433 . S
C1513 N1516 1.384 . S
C1514 H1505 0.929 . S
C1514 C1506 1.378 . S
C1514 C1509 1.350 . S
C1515 H1502 0.929 . S
C1515 C1507 1.433 . S
C1515 N1517 1.384 . S
N1516 C1512 1.427 . S
N1516 C1513 1.384 . S
N1517 C1509 1.427 . S
N1517 C1515 1.384 . S
H1518 C1524 0.930 . S
H1519 C1528 0.930 . S
H1520 C1533 0.929 . S
H1521 C1531 0.929 . S
H1522 C1526 0.929 . S
H1523 C1532 0.929 . S
C1524 H1518 0.930 . S
C1524 C1525 1.367 . S
C1524 C1532 1.378 . S
C1525 C1524 1.367 . S
C1525 C1533 1.433 . S
C1526 H1522 0.929 . S
C1526 C1528 1.378 . S
C1526 C1530 1.350 . S
C1527 C1530 1.463 . S
C1527 C1532 1.350 . S
C1527 N1535 1.427 . S
C1528 H1519 0.930 . S
C1528 C1526 1.378 . S
C1528 C1529 1.367 . S
C1529 C1528 1.367 . S
C1529 C1531 1.433 . S
C1530 C1526 1.350 . S
C1530 C1527 1.463 . S
C1530 N1534 1.427 . S
C1531 H1521 0.929 . S
C1531 C1529 1.433 . S
C1531 N1534 1.384 . S
C1532 H1523 0.929 . S
C1532 C1524 1.378 . S
C1532 C1527 1.350 . S
C1533 H1520 0.929 . S
C1533 C1525 1.433 . S
C1533 N1535 1.384 . S
N1534 C1530 1.427 . S
N1534 C1531 1.384 . S
N1535 C1527 1.427 . S
N1535 C1533 1.384 . S
H1536 C1542 0.930 . S
H1537 C1546 0.930 . S
H1538 C1551 0.929 1_554 S
H1539 C1549 0.929 . S
H1540 C1544 0.929 . S
H1541 C1550 0.929 . S
C1542 H1536 0.930 . S
C1542 C1543 1.367 . S
C1542 C1550 1.378 . S
C1543 C1542 1.367 . S
C1543 C1551 1.433 . S
C1544 H1540 0.929 . S
C1544 C1546 1.378 . S
C1544 C1548 1.350 1_554 S
C1545 C1548 1.463 . S
C1545 C1550 1.350 . S
C1545 N1553 1.427 . S
C1546 H1537 0.930 . S
C1546 C1544 1.378 . S
C1546 C1547 1.367 1_554 S
C1547 C1546 1.367 1_556 S
C1547 C1549 1.433 . S
C1548 C1544 1.350 1_556 S
C1548 C1545 1.463 . S
C1548 N1552 1.427 . S
C1549 H1539 0.929 . S
C1549 C1547 1.433 . S
C1549 N1552 1.384 . S
C1550 H1541 0.929 . S
C1550 C1542 1.378 . S
C1550 C1545 1.350 . S
C1551 H1538 0.929 1_556 S
C1551 C1543 1.433 . S
C1551 N1553 1.384 . S
N1552 C1548 1.427 . S
N1552 C1549 1.384 . S
N1553 C1545 1.427 . S
N1553 C1551 1.384 . S
H1554 C1560 0.930 . S
H1555 C1564 0.930 . S
H1556 C1569 0.929 . S
H1557 C1567 0.929 . S
H1558 C1562 0.929 . S
H1559 C1568 0.929 . S
C1560 H1554 0.930 . S
C1560 C1561 1.367 . S
C1560 C1568 1.378 . S
C1561 C1560 1.367 . S
C1561 C1569 1.433 . S
C1562 H1558 0.929 . S
C1562 C1564 1.378 . S
C1562 C1566 1.350 . S
C1563 C1566 1.463 . S
C1563 C1568 1.350 . S
C1563 N1571 1.427 . S
C1564 H1555 0.930 . S
C1564 C1562 1.378 . S
C1564 C1565 1.367 . S
C1565 C1564 1.367 . S
C1565 C1567 1.433 . S
C1566 C1562 1.350 . S
C1566 C1563 1.463 . S
C1566 N1570 1.427 . S
C1567 H1557 0.929 . S
C1567 C1565 1.433 . S
C1567 N1570 1.384 . S
C1568 H1559 0.929 . S
C1568 C1560 1.378 . S
C1568 C1563 1.350 . S
C1569 H1556 0.929 . S
C1569 C1561 1.433 . S
C1569 N1571 1.384 . S
N1570 C1566 1.427 . S
N1570 C1567 1.384 . S
N1571 C1563 1.427 . S
N1571 C1569 1.384 . S
H1572 C1578 0.930 . S
H1573 C1582 0.930 . S
H1574 C1587 0.929 . S
H1575 C1585 0.894 1_556 S
H1576 C1580 0.929 . S
H1577 C1586 0.929 . S
C1578 H1572 0.930 . S
C1578 C1579 1.367 . S
C1578 C1586 1.378 . S
C1579 C1578 1.367 . S
C1579 C1587 1.433 . S
C1580 H1576 0.929 . S
C1580 C1582 1.378 . S
C1580 C1584 1.350 . S
C1581 C1584 1.463 . S
C1581 C1586 1.350 . S
C1581 N1589 1.427 . S
C1582 H1573 0.930 . S
C1582 C1580 1.378 . S
C1582 C1583 1.367 . S
C1583 C1582 1.367 . S
C1583 C1585 1.462 . S
C1584 C1580 1.350 . S
C1584 C1581 1.463 . S
C1584 N1588 1.427 . S
C1585 H1575 0.894 1_554 S
C1585 C1583 1.462 . S
C1585 N1588 1.393 . S
C1586 H1577 0.929 . S
C1586 C1578 1.378 . S
C1586 C1581 1.350 . S
C1587 H1574 0.929 . S
C1587 C1579 1.433 . S
C1587 N1589 1.384 . S
N1588 C1584 1.427 . S
N1588 C1585 1.393 . S
N1589 C1581 1.427 . S
N1589 C1587 1.384 . S
H1590 C1596 0.930 1_556 S
H1591 C1600 0.930 . S
H1592 C1605 0.929 . S
H1593 C1603 0.929 . S
H1594 C1598 0.929 . S
H1595 C1604 0.929 1_556 S
C1596 H1590 0.930 1_554 S
C1596 C1597 1.367 . S
C1596 C1604 1.378 . S
C1597 C1596 1.367 . S
C1597 C1605 1.433 . S
C1598 H1594 0.929 . S
C1598 C1600 1.378 . S
C1598 C1602 1.350 . S
C1599 C1602 1.463 . S
C1599 C1604 1.350 . S
C1599 N1607 1.427 . S
C1600 H1591 0.930 . S
C1600 C1598 1.378 . S
C1600 C1601 1.367 . S
C1601 C1600 1.367 . S
C1601 C1603 1.433 1_554 S
C1602 C1598 1.350 . S
C1602 C1599 1.463 . S
C1602 N1606 1.393 1_554 S
C1603 H1593 0.929 . S
C1603 C1601 1.433 1_556 S
C1603 N1606 1.389 . S
C1604 H1595 0.929 1_554 S
C1604 C1596 1.378 . S
C1604 C1599 1.350 . S
C1605 H1592 0.929 . S
C1605 C1597 1.433 . S
C1605 N1607 1.384 . S
N1606 C1602 1.393 1_556 S
N1606 C1603 1.389 . S
N1607 C1599 1.427 . S
N1607 C1605 1.384 . S
C755 C584 1.484 . S
C751 C181 1.507 . S
C773 C597 1.478 . S
C769 C247 1.480 . S
C787 C283 1.644 . S
C791 C617 1.552 . S
C809 C631 1.364 . S
C805 C169 1.442 1_655 S
C827 C643 1.518 . S
C823 C361 1.520 . S
C845 C657 1.422 . S
C841 C433 1.418 . S
C859 C421 1.485 . S
C863 C667 1.483 . S
C881 C682 1.517 . S
C877 C355 1.543 . S
C895 C427 1.529 . S
C899 C696 1.507 . S
C917 C715 1.366 . S
C913 C325 1.442 . S
C931 C385 1.491 . S
C935 C695 1.479 . S
C953 C713 1.427 . S
C949 C463 1.425 . S
C967 C253 1.656 . S
C971 C729 1.552 . S
C985 C145 1.489 . S
C989 C723 1.482 . S
C1003 C205 1.502 . S
C1007 C727 1.500 . S
C1021 C217 1.524 . S
C1025 C724 1.504 . S
C1039 C139 1.524 . S
C1043 C626 1.496 . S
C1057 C535 1.490 . S
C1061 C625 1.478 . S
C1079 C589 1.355 . S
C1075 C565 1.417 1_565 S
C1097 C603 1.543 . S
C1093 C313 1.641 . S
C1111 C175 1.572 . S
C1115 C640 1.530 . S
C1133 C685 1.513 . S
C1129 C397 1.516 . S
C1151 C639 1.485 . S
C1147 C349 1.479 . S
C1169 C671 1.432 . S
C1165 C457 1.424 . S
C1187 C668 1.487 . S
C1183 C505 1.508 . S
C1201 C571 1.479 . S
C1205 C681 1.477 . S
C1219 C319 1.645 . S
C1223 C645 1.537 . S
C1241 C659 1.377 . S
C1237 C493 1.445 . S
C1255 C109 1.520 . S
C1259 C615 1.516 . S
C1277 C629 1.423 . S
C1273 C1 1.418 . S
C1295 C583 1.478 . S
C1291 C61 1.489 . S
C1313 C598 1.527 . S
C1309 C103 1.545 . S
C1327 C67 1.526 . S
C1331 C710 1.498 . S
C1345 C73 1.443 1_556 S
C1349 C701 1.365 . S
C1363 C133 1.491 . S
C1367 C709 1.480 . S
C1381 C31 1.424 . S
C1385 C699 1.426 . S
C1403 C743 1.541 . S
C1399 C289 1.652 . S
C1421 C737 1.486 . S
C1417 C469 1.489 . S
C1439 C741 1.497 . S
C1435 C529 1.499 . S
C1453 C541 1.530 . S
C1457 C738 1.501 . S
C1471 C391 1.525 . S
C1475 C654 1.497 . S
C1493 C653 1.478 . S
C1489 C211 1.489 . S
C1511 C673 1.348 . S
C1507 C241 1.420 . S
C1529 C687 1.546 . S
C1525 C277 1.641 . S
C1543 C499 1.558 . S
C1547 C612 1.529 . S
C1565 C601 1.510 . S
C1561 C37 1.513 . S
C1579 C97 1.478 . S
C1583 C611 1.485 . S
C1601 C587 1.431 . S
C1597 C25 1.429 . S
