# Generated by pormake.
# Topology pyr, (3,6)-cn, num edge types: 1
# Building blocks:
#     Node 0, Type 0, BuildingBlock: PAMTOO_clean_linker_0, # of connection points: 3
#     Node 1, Type 0, BuildingBlock: PAMTOO_clean_linker_0, # of connection points: 3
#     Node 2, Type 0, BuildingBlock: PAMTOO_clean_linker_0, # of connection points: 3
#     Node 3, Type 0, BuildingBlock: PAMTOO_clean_linker_0, # of connection points: 3
#     Node 4, Type 0, BuildingBlock: PAMTOO_clean_linker_0, # of connection points: 3
#     Node 5, Type 0, BuildingBlock: PAMTOO_clean_linker_0, # of connection points: 3
#     Node 6, Type 0, BuildingBlock: PAMTOO_clean_linker_0, # of connection points: 3
#     Node 7, Type 0, BuildingBlock: PAMTOO_clean_linker_0, # of connection points: 3
#     Node 8, Type 1, BuildingBlock: BETFAJ_clean_sbu_0, # of connection points: 6
#     Node 9, Type 1, BuildingBlock: BETFAJ_clean_sbu_0, # of connection points: 6
#     Node 10, Type 1, BuildingBlock: BETFAJ_clean_sbu_0, # of connection points: 6
#     Node 11, Type 1, BuildingBlock: BETFAJ_clean_sbu_0, # of connection points: 6
#     Edge 12, Type (0, 1), BuildingBlock: MIFKUJ_clean_linker_0, # of connection points: 2
#     Edge 13, Type (0, 1), BuildingBlock: MIFKUJ_clean_linker_0, # of connection points: 2
#     Edge 14, Type (0, 1), BuildingBlock: MIFKUJ_clean_linker_0, # of connection points: 2
#     Edge 15, Type (0, 1), BuildingBlock: MIFKUJ_clean_linker_0, # of connection points: 2
#     Edge 16, Type (0, 1), BuildingBlock: MIFKUJ_clean_linker_0, # of connection points: 2
#     Edge 17, Type (0, 1), BuildingBlock: MIFKUJ_clean_linker_0, # of connection points: 2
#     Edge 18, Type (0, 1), BuildingBlock: MIFKUJ_clean_linker_0, # of connection points: 2
#     Edge 19, Type (0, 1), BuildingBlock: MIFKUJ_clean_linker_0, # of connection points: 2
#     Edge 20, Type (0, 1), BuildingBlock: MIFKUJ_clean_linker_0, # of connection points: 2
#     Edge 21, Type (0, 1), BuildingBlock: MIFKUJ_clean_linker_0, # of connection points: 2
#     Edge 22, Type (0, 1), BuildingBlock: MIFKUJ_clean_linker_0, # of connection points: 2
#     Edge 23, Type (0, 1), BuildingBlock: MIFKUJ_clean_linker_0, # of connection points: 2
#     Edge 24, Type (0, 1), BuildingBlock: MIFKUJ_clean_linker_0, # of connection points: 2
#     Edge 25, Type (0, 1), BuildingBlock: MIFKUJ_clean_linker_0, # of connection points: 2
#     Edge 26, Type (0, 1), BuildingBlock: MIFKUJ_clean_linker_0, # of connection points: 2
#     Edge 27, Type (0, 1), BuildingBlock: MIFKUJ_clean_linker_0, # of connection points: 2
#     Edge 28, Type (0, 1), BuildingBlock: MIFKUJ_clean_linker_0, # of connection points: 2
#     Edge 29, Type (0, 1), BuildingBlock: MIFKUJ_clean_linker_0, # of connection points: 2
#     Edge 30, Type (0, 1), BuildingBlock: MIFKUJ_clean_linker_0, # of connection points: 2
#     Edge 31, Type (0, 1), BuildingBlock: MIFKUJ_clean_linker_0, # of connection points: 2
#     Edge 32, Type (0, 1), BuildingBlock: MIFKUJ_clean_linker_0, # of connection points: 2
#     Edge 33, Type (0, 1), BuildingBlock: MIFKUJ_clean_linker_0, # of connection points: 2
#     Edge 34, Type (0, 1), BuildingBlock: MIFKUJ_clean_linker_0, # of connection points: 2
#     Edge 35, Type (0, 1), BuildingBlock: MIFKUJ_clean_linker_0, # of connection points: 2
# Relax obj value: 0.136
# Max RMSD: 0.214
# Mean RMSD: 0.147
data_MOF--net-pyr--node1-BETFAJ_clean_sbu_0--node2-PAMTOO_clean_linker_0--edge1-MIFKUJ_clean_linker_0
_symmetry_space_group_name_H-M    P1
_symmetry_Int_Tables_number       1
_symmetry_cell_setting            triclinic
loop_
_symmetry_equiv_pos_as_xyz
'x, y, z'
_cell_length_a     48.446536
_cell_length_b     53.968108
_cell_length_c     48.494826
_cell_angle_alpha  91.984454
_cell_angle_beta   89.667736
_cell_angle_gamma 102.5937
loop_
_atom_site_label
_atom_site_type_symbol
_atom_site_fract_x
_atom_site_fract_y
_atom_site_fract_z
_atom_type_partial_charge
H0 H 0.31652 0.27941 0.26065 0.0
H1 H 0.37801 0.23274 0.26289 0.0
H2 H 0.3746 0.27947 0.19348 0.0
H3 H 0.37961 0.22374 0.18044 0.0
C4 C 0.39148 0.22115 0.1993 0.0
O5 O 0.39865 0.24415 0.21404 0.0
H6 H 0.37695 0.20701 0.21185 0.0
C7 C 0.33485 0.27355 0.25204 0.0
C8 C 0.34518 0.28307 0.22656 0.0
C9 C 0.34633 0.25557 0.26567 0.0
C10 C 0.36867 0.24662 0.25295 0.0
C11 C 0.37853 0.25469 0.22671 0.0
C12 C 0.36683 0.27307 0.21357 0.0
H13 H 0.30508 0.91052 0.64452 0.0
H14 H 0.27359 0.85589 0.57915 0.0
H15 H 0.34308 0.8463 0.62872 0.0
H16 H 0.33595 0.85099 0.55827 0.0
C17 C 0.3239 0.83114 0.5612 0.0
O18 O 0.31023 0.82856 0.58627 0.0
H19 H 0.30793 0.8265 0.54438 0.0
C20 C 0.30631 0.89347 0.63249 0.0
C21 C 0.32633 0.87946 0.63926 0.0
C22 C 0.28701 0.88485 0.61108 0.0
C23 C 0.28803 0.86248 0.59617 0.0
C24 C 0.30837 0.84892 0.6023 0.0
C25 C 0.32741 0.85712 0.624 0.0
H26 H 0.72234 0.31208 0.89496 0.0
H27 H 0.6628 0.30663 0.8283 0.0
H28 H 0.73219 0.37186 0.83626 0.0
H29 H 0.67436 0.38269 0.82193 0.0
C30 C 0.66833 0.36782 0.80527 0.0
O31 O 0.6872 0.35133 0.80601 0.0
H32 H 0.64686 0.35691 0.81054 0.0
C33 C 0.71537 0.32007 0.87675 0.0
C34 C 0.73111 0.34359 0.86741 0.0
C35 C 0.6909 0.3062 0.86305 0.0
C36 C 0.68134 0.317 0.83933 0.0
C37 C 0.69564 0.34129 0.82985 0.0
C38 C 0.72057 0.35406 0.84408 0.0
H39 H 0.87186 0.71207 0.41259 0.0
H40 H 0.87672 0.64665 0.36103 0.0
H41 H 0.94293 0.71451 0.35754 0.0
H42 H 0.92278 0.68056 0.29906 0.0
C43 C 0.9182 0.66192 0.30914 0.0
O44 O 0.92533 0.66613 0.33727 0.0
H45 H 0.89496 0.65451 0.30732 0.0
C46 C 0.88293 0.70321 0.39692 0.0
C47 C 0.90886 0.71708 0.38637 0.0
C48 C 0.87119 0.67793 0.38802 0.0
C49 C 0.88555 0.66611 0.36775 0.0
C50 C 0.9113 0.67899 0.3561 0.0
C51 C 0.92297 0.70452 0.36586 0.0
H52 H 0.71802 0.81192 0.81253 0.0
H53 H 0.7095 0.76401 0.8826 0.0
H54 H 0.7633 0.75164 0.81526 0.0
H55 H 0.73413 0.70726 0.83557 0.0
C56 C 0.73695 0.71103 0.8582 0.0
O57 O 0.7458 0.7369 0.86392 0.0
H58 H 0.7162 0.70417 0.86837 0.0
C59 C 0.72226 0.7954 0.82238 0.0
C60 C 0.74137 0.78208 0.81019 0.0
C61 C 0.71058 0.78907 0.84845 0.0
C62 C 0.7175 0.7685 0.86205 0.0
C63 C 0.73642 0.75485 0.84987 0.0
C64 C 0.74816 0.76177 0.82409 0.0
H65 H 0.75664 0.13323 0.41714 0.0
H66 H 0.74055 0.20869 0.4121 0.0
H67 H 0.80251 0.19495 0.46799 0.0
H68 H 0.78087 0.23944 0.49367 0.0
C69 C 0.76306 0.23078 0.47964 0.0
O70 O 0.77371 0.22691 0.45386 0.0
H71 H 0.75213 0.21265 0.48903 0.0
C72 C 0.76072 0.15312 0.42355 0.0
C73 C 0.78151 0.16211 0.44348 0.0
C74 C 0.74703 0.16995 0.41044 0.0
C75 C 0.75103 0.19511 0.42106 0.0
C76 C 0.77031 0.20342 0.44254 0.0
C77 C 0.78628 0.18739 0.45277 0.0
H78 H 0.36698 0.7198 0.14742 0.0
H79 H 0.36329 0.66637 0.21254 0.0
H80 H 0.42939 0.73404 0.21259 0.0
H81 H 0.44748 0.6852 0.23496 0.0
C82 C 0.42626 0.67526 0.24214 0.0
O83 O 0.40763 0.69172 0.24001 0.0
H84 H 0.41919 0.65866 0.22766 0.0
C85 C 0.37564 0.71387 0.16599 0.0
C86 C 0.40014 0.72997 0.17806 0.0
C87 C 0.36152 0.69089 0.17829 0.0
C88 C 0.37327 0.68384 0.20285 0.0
C89 C 0.39793 0.69885 0.21527 0.0
C90 C 0.41091 0.72208 0.20286 0.0
H91 H 0.13398 0.32907 0.73657 0.0
H92 H 0.19576 0.39999 0.72997 0.0
H93 H 0.19235 0.34076 0.6681 0.0
H94 H 0.25062 0.36896 0.69161 0.0
C95 C 0.24695 0.38851 0.68989 0.0
O96 O 0.21855 0.387 0.68378 0.0
H97 H 0.25178 0.39818 0.71046 0.0
C98 C 0.15149 0.34096 0.72605 0.0
C99 C 0.16159 0.33152 0.7008 0.0
C100 C 0.16312 0.36613 0.737 0.0
C101 C 0.18594 0.38107 0.72227 0.0
C102 C 0.1968 0.37192 0.69777 0.0
C103 C 0.18426 0.34745 0.68719 0.0
Sm104 Sm 0.0429 0.03804 0.5091 0.0
Sm105 Sm 0.02359 0.01803 0.56509 0.0
C106 C 0.05762 0.06475 0.46447 0.0
C107 C 0.08249 0.08406 0.45604 0.0
C108 C 0.07904 0.10329 0.43851 0.0
C109 C 0.10263 0.12061 0.42878 0.0
C110 C 0.13016 0.11896 0.43637 0.0
C111 C 0.13346 0.10018 0.45473 0.0
C112 C 0.10988 0.08296 0.46453 0.0
C113 C 0.08094 0.01754 0.53632 0.0
C114 C 0.05633 0.07767 0.56536 0.0
C115 C 0.00763 0.99128 0.60929 0.0
C116 C 0.98305 0.97103 0.61663 0.0
C117 C 0.98738 0.94744 0.62461 0.0
C118 C 0.96465 0.92859 0.63315 0.0
C119 C 0.93707 0.93299 0.63409 0.0
C120 C 0.93258 0.9563 0.62515 0.0
C121 C 0.9553 0.9751 0.61646 0.0
C122 C 0.9865 0.04001 0.53816 0.0
C123 C 0.01045 0.97825 0.50924 0.0
O124 O 0.04157 0.07157 0.48383 0.0
O125 O 0.06177 0.04184 0.46738 0.0
O126 O 0.06657 0.03178 0.54734 0.0
O127 O 0.07677 0.01439 0.51003 0.0
O128 O 0.05156 0.07516 0.53825 0.0
O129 O 0.05153 0.05706 0.58048 0.0
O130 O 0.02546 0.98524 0.59121 0.0
O131 O 1.00277 0.01388 0.6059 0.0
O132 O 1.00012 0.02507 0.52718 0.0
O133 O 0.99044 0.04237 0.56452 0.0
O134 O 0.0158 0.98089 0.5362 0.0
O135 O 0.01465 0.99882 0.49408 0.0
H136 H 0.0581 0.10453 0.43183 0.0
H137 H 0.09933 0.1347 0.41452 0.0
H138 H 0.15432 0.09864 0.46134 0.0
H139 H 0.1131 0.0685 0.47835 0.0
H140 H 0.00847 0.94372 0.62467 0.0
H141 H 0.96876 0.91067 0.63943 0.0
H142 H 0.91167 0.9604 0.62583 0.0
H143 H 0.95115 0.99301 0.61018 0.0
Sm144 Sm 0.57983 0.01742 0.03948 0.0
Sm145 Sm 0.5339 1.01226 0.99804 0.0
C146 C 0.62612 0.03713 0.06764 0.0
C147 C 0.63169 0.04868 0.09545 0.0
C148 C 0.64003 0.07522 0.09859 0.0
C149 C 0.64423 0.08677 0.12474 0.0
C150 C 0.64049 0.07194 0.14818 0.0
C151 C 0.6321 0.0454 0.14515 0.0
C152 C 0.62764 0.03382 0.11896 0.0
C153 C 0.53937 0.97499 0.05615 0.0
C154 C 0.52993 0.04794 0.05375 0.0
C155 C 0.48802 0.99423 0.96869 0.0
C156 C 0.48409 0.98372 0.94023 0.0
C157 C 0.48933 0.95963 0.93335 0.0
C158 C 0.48575 0.9499 0.90634 0.0
C159 C 0.47687 0.96404 0.88573 0.0
C160 C 0.47237 0.98838 0.89244 0.0
C161 C 0.4759 0.99812 0.91949 0.0
C162 C 0.57396 0.05438 0.98097 0.0
C163 C 0.58433 0.98162 0.98446 0.0
O164 O 0.61426 0.05007 0.05077 0.0
O165 O 0.61575 1.01263 0.06549 0.0
O166 O 0.53737 0.98838 0.03523 0.0
O167 O 0.56259 0.98483 0.06926 0.0
O168 O 0.55362 0.04251 0.06219 0.0
O169 O 0.51751 0.03804 0.03052 0.0
O170 O 0.4982 0.98072 0.98628 0.0
O171 O 0.499 0.01853 0.97153 0.0
O172 O 0.57639 0.04135 1.00211 0.0
O173 O 0.55169 0.04337 0.96712 0.0
O174 O 0.55919 0.98501 0.9774 0.0
O175 O 0.59788 0.99378 1.00614 0.0
H176 H 0.64327 0.08708 0.08077 0.0
H177 H 0.65112 0.10725 0.1266 0.0
H178 H 0.62901 0.03364 0.16305 0.0
H179 H 0.621 0.01332 0.11719 0.0
H180 H 0.49603 0.94814 0.94879 0.0
H181 H 0.48958 0.93117 0.90164 0.0
H182 H 0.46509 0.99955 0.87703 0.0
H183 H 0.47194 0.01681 0.92423 0.0
Sm184 Sm 0.54906 0.51403 0.51181 0.0
Sm185 Sm 0.55505 0.55485 0.54703 0.0
C186 C 0.55842 0.47605 0.48038 0.0
C187 C 0.57247 0.45557 0.48594 0.0
C188 C 0.59535 0.45962 0.50441 0.0
C189 C 0.60821 0.4398 0.51022 0.0
C190 C 0.59833 0.41578 0.49758 0.0
C191 C 0.57506 0.41167 0.47955 0.0
C192 C 0.56215 0.43152 0.47381 0.0
C193 C 0.49882 0.51139 0.54039 0.0
C194 C 0.57688 0.50814 0.57412 0.0
C195 C 0.54709 0.59425 0.57733 0.0
C196 C 0.53141 0.61423 0.57289 0.0
C197 C 0.50172 0.60843 0.5713 0.0
C198 C 0.48716 0.62745 0.56661 0.0
C199 C 0.50199 0.65258 0.56324 0.0
C200 C 0.53168 0.65831 0.56444 0.0
C201 C 0.54625 0.6393 0.56934 0.0
C202 C 0.60493 0.55704 0.51808 0.0
C203 C 0.52525 0.55878 0.48483 0.0
O204 O 0.57479 0.49875 0.48054 0.0
O205 O 0.5347 0.47515 0.49354 0.0
O206 O 0.52337 0.51737 0.55102 0.0
O207 O 0.50055 0.5071 0.51402 0.0
O208 O 0.57171 0.49837 0.5487 0.0
O209 O 0.57118 0.5306 0.57989 0.0
O210 O 0.53202 0.57126 0.57995 0.0
O211 O 0.56948 0.59492 0.56206 0.0
O212 O 0.58024 0.55202 0.50768 0.0
O213 O 0.60349 0.55939 0.54474 0.0
O214 O 0.53013 0.5688 0.51027 0.0
O215 O 0.53221 0.53699 0.47901 0.0
H216 H 0.60344 0.4781 0.51419 0.0
H217 H 0.62601 0.44328 0.52432 0.0
H218 H 0.56738 0.39333 0.46927 0.0
H219 H 0.54429 0.42817 0.45977 0.0
H220 H 0.48962 0.58924 0.5738 0.0
H221 H 0.46426 0.62254 0.56625 0.0
H222 H 0.54364 0.67748 0.5616 0.0
H223 H 0.56914 0.64417 0.57026 0.0
Sm224 Sm 0.05098 0.4747 0.05476 0.0
Sm225 Sm 0.03865 0.52301 0.02293 0.0
C226 C 0.07726 0.43793 0.06726 0.0
C227 C 0.09987 0.43111 0.08466 0.0
C228 C 0.1269 0.43207 0.07336 0.0
C229 C 0.14752 0.42295 0.08765 0.0
C230 C 0.14191 0.4124 0.11377 0.0
C231 C 0.11519 0.41218 0.12563 0.0
C232 C 0.09438 0.42126 0.11119 0.0
C233 C 0.02628 0.50562 0.09157 0.0
C234 C 0.09719 0.5317 0.06065 0.0
C235 C 0.01172 0.55939 0.01131 0.0
C236 C 0.98856 0.56472 0.99366 0.0
C237 C 0.96005 0.55797 1.00204 0.0
C238 C 0.93868 0.56581 0.98744 0.0
C239 C 0.9451 0.58076 0.96405 0.0
C240 C 0.97347 0.58666 0.95508 0.0
C241 C 0.99486 0.57883 0.96971 0.0
C242 C 0.06166 0.49209 0.98481 0.0
C243 C 0.99202 0.4669 0.01713 0.0
O244 O 0.08551 0.45421 0.04785 0.0
O245 O 0.05306 0.44007 0.07838 0.0
O246 O 0.03293 0.50893 0.06627 0.0
O247 O 0.03158 0.48379 0.09761 0.0
O248 O 0.09043 0.50712 0.06618 0.0
O249 O 0.08097 0.54248 0.04494 0.0
O250 O 1.00433 0.54346 0.03118 0.0
O251 O 0.03587 0.55761 0.99983 0.0
O252 O 0.05657 0.48822 0.01049 0.0
O253 O 0.05527 0.51365 0.97954 0.0
O254 O 0.99843 0.49178 0.01383 0.0
O255 O 0.00914 0.45524 0.03083 0.0
H256 H 0.132 0.43929 0.05297 0.0
H257 H 0.16791 0.42394 0.07796 0.0
H258 H 0.10997 0.40412 0.14564 0.0
H259 H 0.07377 0.41994 0.12052 0.0
H260 H 0.95426 0.5473 0.02048 0.0
H261 H 0.91726 0.56102 0.99524 0.0
H262 H 0.97929 0.59771 0.93691 0.0
H263 H 0.01649 0.58445 0.96264 0.0
H264 H 0.32101 0.2795 0.30675 0.0
H265 H 0.28736 0.25921 0.34053 0.0
H266 H 0.3094 0.18735 0.32065 0.0
H267 H 0.33998 0.20679 0.28388 0.0
H268 H 0.25749 0.18027 0.31811 0.0
H269 H 0.32247 0.22673 0.38817 0.0
H270 H 0.35158 0.26556 0.41015 0.0
H271 H 0.27802 0.29728 0.42002 0.0
H272 H 0.24854 0.25875 0.39789 0.0
H273 H 0.1783 0.10571 0.41735 0.0
H274 H 0.21848 0.1323 0.3945 0.0
H275 H 0.17916 0.19652 0.40326 0.0
H276 H 0.13894 0.17008 0.42692 0.0
H277 H 0.23774 0.20976 0.41267 0.0
H278 H 0.1737 0.16644 0.34358 0.0
H279 H 0.14267 0.13008 0.31924 0.0
H280 H 0.21337 0.09512 0.3054 0.0
H281 H 0.24474 0.13113 0.33004 0.0
C282 C 0.31866 0.2593 0.30933 0.0
C283 C 0.33257 0.2447 0.2916 0.0
C284 C 0.29977 0.24778 0.32935 0.0
C285 C 0.29561 0.2216 0.33338 0.0
C286 C 0.31188 0.20754 0.3178 0.0
C287 C 0.32981 0.21883 0.29691 0.0
C288 C 0.27191 0.20815 0.3508 0.0
C289 C 0.25383 0.18648 0.33907 0.0
C290 C 0.26566 0.21699 0.37755 0.0
C291 C 0.28336 0.23992 0.39126 0.0
C292 C 0.31254 0.24203 0.39496 0.0
C293 C 0.32909 0.26398 0.40745 0.0
C294 C 0.31666 0.28388 0.41644 0.0
C295 C 0.28762 0.28185 0.41306 0.0
C296 C 0.27098 0.25994 0.4006 0.0
C297 C 0.17836 0.1256 0.41496 0.0
C298 C 0.15533 0.13574 0.42395 0.0
C299 C 0.20129 0.14074 0.4017 0.0
C300 C 0.20168 0.16631 0.39697 0.0
C301 C 0.17925 0.17681 0.40671 0.0
C302 C 0.15619 0.16162 0.41997 0.0
C303 C 0.22473 0.18138 0.38031 0.0
C304 C 0.2421 0.20346 0.39192 0.0
C305 C 0.23035 0.17318 0.35329 0.0
C306 C 0.21147 0.15131 0.33891 0.0
C307 C 0.18255 0.15086 0.33561 0.0
C308 C 0.16492 0.13035 0.3217 0.0
C309 C 0.17602 0.11026 0.31085 0.0
C310 C 0.20479 0.11066 0.31386 0.0
C311 C 0.2225 0.13111 0.32779 0.0
H312 H 0.16235 0.09442 0.30003 0.0
H313 H 0.32952 0.30088 0.42606 0.0
H314 H 0.33373 0.85165 0.68293 0.0
H315 H 0.3629 0.86612 0.72395 0.0
H316 H 0.38988 0.9404 0.69009 0.0
H317 H 0.36039 0.92609 0.64911 0.0
H318 H 0.43439 0.91765 0.71165 0.0
H319 H 0.3458 0.93803 0.73726 0.0
H320 H 0.29429 0.93054 0.74474 0.0
H321 H 0.29889 0.87198 0.80118 0.0
H322 H 0.35039 0.87892 0.79376 0.0
H323 H 0.48873 0.98623 0.83593 0.0
H324 H 0.46817 0.96967 0.79129 0.0
H325 H 0.42821 0.89933 0.82843 0.0
H326 H 0.44771 0.91606 0.87315 0.0
H327 H 0.39084 0.92082 0.80417 0.0
H328 H 0.47934 0.9004 0.77949 0.0
H329 H 0.53091 0.90782 0.77255 0.0
H330 H 0.52691 0.96576 0.71513 0.0
H331 H 0.47533 0.95887 0.72197 0.0
C332 C 0.34614 0.87096 0.6842 0.0
C333 C 0.34514 0.88777 0.663 0.0
C334 C 0.36253 0.87922 0.70759 0.0
C335 C 0.3783 0.90427 0.70985 0.0
C336 C 0.37775 0.92099 0.68851 0.0
C337 C 0.361 0.91285 0.66528 0.0
C338 C 0.3955 0.91284 0.73457 0.0
C339 C 0.42499 0.91869 0.7319 0.0
C340 C 0.38297 0.91352 0.76083 0.0
C341 C 0.35188 0.90877 0.76466 0.0
C342 C 0.33577 0.92332 0.75097 0.0
C343 C 0.30659 0.91924 0.75529 0.0
C344 C 0.29331 0.90074 0.77335 0.0
C345 C 0.30919 0.88627 0.78715 0.0
C346 C 0.33837 0.89028 0.7829 0.0
C347 C 0.47591 0.9671 0.83441 0.0
C348 C 0.46951 0.95253 0.85799 0.0
C349 C 0.46446 0.95757 0.8089 0.0
C350 C 0.44668 0.93332 0.8067 0.0
C351 C 0.44191 0.9181 0.82982 0.0
C352 C 0.45322 0.92763 0.8553 0.0
C353 C 0.42994 0.92523 0.78148 0.0
C354 C 0.4004 0.91964 0.784 0.0
C355 C 0.44247 0.92472 0.75516 0.0
C356 C 0.47353 0.92928 0.75145 0.0
C357 C 0.4895 0.91491 0.76561 0.0
C358 C 0.51872 0.91897 0.76163 0.0
C359 C 0.53219 0.93729 0.74345 0.0
C360 C 0.51645 0.95159 0.72922 0.0
C361 C 0.48723 0.9476 0.73312 0.0
H362 H 0.5548 0.94037 0.74035 0.0
H363 H 0.27073 0.89766 0.77673 0.0
H364 H 0.64514 0.3475 0.75399 0.0
H365 H 0.63202 0.36995 0.71444 0.0
H366 H 0.67027 0.44162 0.75429 0.0
H367 H 0.6832 0.41923 0.79367 0.0
H368 H 0.62207 0.44686 0.73454 0.0
H369 H 0.69897 0.41768 0.68762 0.0
H370 H 0.72485 0.38461 0.67365 0.0
H371 H 0.6494 0.33969 0.63621 0.0
H372 H 0.62327 0.37277 0.6495 0.0
H373 H 0.60273 0.52612 0.62419 0.0
H374 H 0.62134 0.50328 0.65981 0.0
H375 H 0.59517 0.43333 0.61202 0.0
H376 H 0.5785 0.45672 0.57533 0.0
H377 H 0.63703 0.42628 0.636 0.0
H378 H 0.5606 0.4566 0.67896 0.0
H379 H 0.5335 0.48838 0.69408 0.0
H380 H 0.60458 0.52874 0.74188 0.0
H381 H 0.6322 0.49735 0.72678 0.0
C382 C 0.65163 0.36801 0.75402 0.0
C383 C 0.66597 0.38117 0.77734 0.0
C384 C 0.64392 0.38108 0.73115 0.0
C385 C 0.65 0.40801 0.73049 0.0
C386 C 0.66494 0.42105 0.75354 0.0
C387 C 0.67276 0.40803 0.77623 0.0
C388 C 0.6399 0.4226 0.70688 0.0
C389 C 0.6258 0.44244 0.71305 0.0
C390 C 0.64349 0.41704 0.67832 0.0
C391 C 0.65922 0.39757 0.6696 0.0
C392 C 0.68798 0.40075 0.67634 0.0
C393 C 0.70268 0.38206 0.6685 0.0
C394 C 0.68876 0.36004 0.65409 0.0
C395 C 0.66014 0.35673 0.64742 0.0
C396 C 0.64544 0.37554 0.65485 0.0
C397 C 0.60086 0.50586 0.62109 0.0
C398 C 0.58862 0.49359 0.59644 0.0
C399 C 0.61133 0.49245 0.64201 0.0
C400 C 0.60915 0.46578 0.64004 0.0
C401 C 0.59734 0.45363 0.61506 0.0
C402 C 0.58753 0.46718 0.59378 0.0
C403 C 0.6191 0.4508 0.66356 0.0
C404 C 0.63319 0.43083 0.65742 0.0
C405 C 0.61514 0.45605 0.69226 0.0
C406 C 0.59852 0.47477 0.70156 0.0
C407 C 0.57047 0.47232 0.69261 0.0
C408 C 0.55502 0.49026 0.70117 0.0
C409 C 0.56733 0.5106 0.71888 0.0
C410 C 0.59508 0.513 0.72814 0.0
C411 C 0.61063 0.49513 0.71961 0.0
H412 H 0.55535 0.52448 0.72547 0.0
H413 H 0.70017 0.34557 0.64806 0.0
H414 H 0.9019 0.60906 0.30058 0.0
H415 H 0.91894 0.5818 0.26573 0.0
H416 H 0.98444 0.64528 0.24262 0.0
H417 H 0.96711 0.6725 0.27719 0.0
H418 H 0.96156 0.62303 0.19712 0.0
H419 H 0.99273 0.58617 0.27966 0.0
H420 H 0.98483 0.56393 0.3236 0.0
H421 H 0.92602 0.50227 0.28357 0.0
H422 H 0.93333 0.52426 0.23951 0.0
H423 H 0.03478 0.55866 0.09814 0.0
H424 H 0.01827 0.58342 0.13571 0.0
H425 H 0.97021 0.51418 0.16924 0.0
H426 H 0.98885 0.48969 0.13324 0.0
H427 H 0.982 0.53829 0.21023 0.0
H428 H 0.94306 0.56846 0.13276 0.0
H429 H 0.94061 0.58638 0.08697 0.0
H430 H 0.99856 0.65491 0.11392 0.0
H431 H 1.00164 0.63723 0.15977 0.0
C432 C 0.92049 0.61711 0.2887 0.0
C433 C 0.93316 0.64326 0.29239 0.0
C434 C 0.93032 0.60134 0.26841 0.0
C435 C 0.95341 0.61094 0.25086 0.0
C436 C 0.96664 0.63686 0.25534 0.0
C437 C 0.95686 0.65256 0.27561 0.0
C438 C 0.96293 0.5949 0.22705 0.0
C439 C 0.96646 0.60467 0.20029 0.0
C440 C 0.96783 0.56996 0.2298 0.0
C441 C 0.96341 0.55697 0.25638 0.0
C442 C 0.97797 0.56796 0.2803 0.0
C443 C 0.97362 0.55538 0.30521 0.0
C444 C 0.95489 0.53174 0.30639 0.0
C445 C 0.94049 0.5206 0.28265 0.0
C446 C 0.94475 0.5331 0.25772 0.0
C447 C 0.02035 0.54872 0.11327 0.0
C448 C 0.013 0.52192 0.11198 0.0
C449 C 0.01055 0.56304 0.13506 0.0
C450 C 0.99199 0.55135 0.15604 0.0
C451 C 0.9844 0.52448 0.15418 0.0
C452 C 0.99493 0.51022 0.13303 0.0
C453 C 0.98117 0.56658 0.18005 0.0
C454 C 0.97727 0.55667 0.20683 0.0
C455 C 0.97437 0.59079 0.17705 0.0
C456 C 0.97285 0.60141 0.14953 0.0
C457 C 0.95545 0.58727 0.12883 0.0
C458 C 0.95392 0.59739 0.10289 0.0
C459 C 0.96949 0.62174 0.09751 0.0
C460 C 0.98657 0.63603 0.11809 0.0
C461 C 0.98822 0.62598 0.14405 0.0
H462 H 0.96827 0.62956 0.07742 0.0
H463 H 0.95157 0.52203 0.32568 0.0
H464 H 0.41141 0.18214 0.22209 0.0
H465 H 0.44369 0.15783 0.20088 0.0
H466 H 0.4613 0.21139 0.1357 0.0
H467 H 0.42863 0.23542 0.15671 0.0
H468 H 0.44259 0.16659 0.11455 0.0
H469 H 0.51397 0.19963 0.18127 0.0
H470 H 0.53782 0.21038 0.22624 0.0
H471 H 0.51959 0.1315 0.24583 0.0
H472 H 0.49528 0.12029 0.20118 0.0
H473 H 0.52011 0.09222 0.03541 0.0
H474 H 0.50545 0.12633 0.06212 0.0
H475 H 0.49798 0.08129 0.13481 0.0
H476 H 0.51566 0.04837 0.10845 0.0
H477 H 0.5152 0.12495 0.15193 0.0
H478 H 0.43759 0.0933 0.08722 0.0
H479 H 0.41529 0.08332 0.04135 0.0
H480 H 0.44585 0.16068 0.01857 0.0
H481 H 0.4685 0.17102 0.06419 0.0
C482 C 0.42285 0.18916 0.20368 0.0
C483 C 0.41708 0.2105 0.1908 0.0
C484 C 0.44146 0.17525 0.19158 0.0
C485 C 0.45491 0.18246 0.16639 0.0
C486 C 0.45111 0.20516 0.15496 0.0
C487 C 0.43249 0.21903 0.16704 0.0
C488 C 0.46873 0.16448 0.14973 0.0
C489 C 0.45886 0.15787 0.12272 0.0
C490 C 0.48938 0.15229 0.16034 0.0
C491 C 0.50243 0.15916 0.18796 0.0
C492 C 0.5146 0.18461 0.19534 0.0
C493 C 0.52835 0.19078 0.22074 0.0
C494 C 0.53016 0.17165 0.23892 0.0
C495 C 0.51815 0.14632 0.23177 0.0
C496 C 0.50437 0.14005 0.20642 0.0
C497 C 0.51506 0.08958 0.05705 0.0
C498 C 0.51841 0.06741 0.06972 0.0
C499 C 0.5064 0.10907 0.0724 0.0
C500 C 0.49936 0.10639 0.10058 0.0
C501 C 0.50295 0.08412 0.11319 0.0
C502 C 0.51279 0.06509 0.09806 0.0
C503 C 0.48853 0.12665 0.11696 0.0
C504 C 0.49892 0.13368 0.14386 0.0
C505 C 0.46817 0.13923 0.10642 0.0
C506 C 0.45494 0.13283 0.07893 0.0
C507 C 0.43969 0.1081 0.07232 0.0
C508 C 0.42697 0.1024 0.0464 0.0
C509 C 0.42921 0.12133 0.02704 0.0
C510 C 0.44416 0.14602 0.03356 0.0
C511 C 0.45692 0.15181 0.05943 0.0
H512 H 0.41932 0.11689 1.007 0.0
H513 H 0.54094 0.17646 0.2585 0.0
H514 H 0.23115 0.86523 0.60372 0.0
H515 H 0.19463 0.88816 0.59281 0.0
H516 H 0.25747 0.95853 0.59267 0.0
H517 H 0.29424 0.93559 0.60373 0.0
H518 H 0.21132 0.96167 0.62362 0.0
H519 H 0.23008 0.93105 0.53233 0.0
H520 H 0.23545 0.89927 0.49606 0.0
H521 H 0.14982 0.85911 0.50897 0.0
H522 H 0.14405 0.89049 0.54554 0.0
H523 H 0.13194 0.03807 0.5579 0.0
H524 H 0.1653 0.01471 0.57635 0.0
H525 H 0.10188 0.94477 0.56786 0.0
H526 H 0.06921 0.96812 0.54787 0.0
H527 H 0.14755 0.9405 0.54254 0.0
H528 H 0.12762 0.97102 0.63269 0.0
H529 H 0.12122 1.00302 0.6683 0.0
H530 H 0.20743 0.04277 0.6579 0.0
H531 H 0.21425 1.01115 0.62201 0.0
C532 C 0.23715 0.88556 0.60108 0.0
C533 C 0.2653 0.89878 0.6045 0.0
C534 C 0.21639 0.89855 0.59481 0.0
C535 C 0.22362 0.92485 0.59167 0.0
C536 C 0.25172 0.93815 0.59502 0.0
C537 C 0.27254 0.92515 0.60142 0.0
C538 C 0.20145 0.9386 0.58633 0.0
C539 C 0.19753 0.95734 0.60573 0.0
C540 C 0.18307 0.93212 0.56348 0.0
C541 C 0.18675 0.91297 0.54187 0.0
C542 C 0.2125 0.91529 0.52764 0.0
C543 C 0.21558 0.89739 0.50697 0.0
C544 C 0.19302 0.87715 0.50026 0.0
C545 C 0.1673 0.87477 0.5142 0.0
C546 C 0.16411 0.89262 0.53488 0.0
C547 C 0.12518 0.0178 0.56061 0.0
C548 C 0.09859 1.00455 0.55154 0.0
C549 C 0.14399 1.00453 0.57132 0.0
C550 C 0.13587 0.97808 0.57362 0.0
C551 C 0.10842 0.96519 0.56618 0.0
C552 C 0.08989 0.97839 0.55485 0.0
C553 C 0.15719 0.96357 0.57994 0.0
C554 C 0.16108 0.94472 0.56062 0.0
C555 C 0.17538 0.96983 0.60295 0.0
C556 C 0.17138 0.9888 0.62458 0.0
C557 C 0.14515 0.98667 0.63789 0.0
C558 C 0.14146 1.00472 0.65814 0.0
C559 C 0.16389 0.02493 0.66533 0.0
C560 C 0.19008 0.0271 0.65232 0.0
C561 C 0.19388 1.0091 0.63206 0.0
H562 H 0.16098 0.03889 0.68101 0.0
H563 H 0.19544 0.86334 0.48423 0.0
H564 H 0.77038 0.32144 0.89318 0.0
H565 H 0.81297 0.34145 0.91864 0.0
H566 H 0.79957 0.4153 0.89984 0.0
H567 H 0.75601 0.39536 0.87483 0.0
H568 H 0.85554 0.41511 0.89526 0.0
H569 H 0.78622 0.39198 0.96461 0.0
H570 H 0.74768 0.36344 0.98876 0.0
H571 H 0.80352 0.31428 1.00681 0.0
H572 H 0.84233 0.34237 0.98236 0.0
H573 H 0.95098 0.48663 0.99279 0.0
H574 H 0.9081 0.4651 0.96891 0.0
H575 H 0.92628 0.39258 0.98627 0.0
H576 H 0.96988 0.41431 0.01082 0.0
H577 H 0.86817 0.39156 0.99167 0.0
H578 H 0.93807 0.41692 0.92139 0.0
H579 H 0.97566 0.44783 0.89876 0.0
H580 H 0.91711 0.49538 0.88422 0.0
H581 H 0.87925 0.46487 0.90707 0.0
C582 C 0.77588 0.34198 0.89468 0.0
C583 C 0.75872 0.3565 0.882 0.0
C584 C 0.80071 0.3535 0.9093 0.0
C585 C 0.80977 0.3801 0.91184 0.0
C586 C 0.79335 0.39477 0.89849 0.0
C587 C 0.76825 0.38322 0.88397 0.0
C588 C 0.83606 0.3923 0.92857 0.0
C589 C 0.858 0.41006 0.91642 0.0
C590 C 0.8401 0.38581 0.95624 0.0
C591 C 0.81708 0.36912 0.97141 0.0
C592 C 0.79023 0.37499 0.97358 0.0
C593 C 0.76835 0.35891 0.98733 0.0
C594 C 0.77313 0.33701 0.99924 0.0
C595 C 0.79985 0.33123 0.99753 0.0
C596 C 0.82181 0.34723 0.98374 0.0
C597 C 0.94616 0.46606 0.99178 0.0
C598 C 0.96456 0.45243 1.00388 0.0
C599 C 0.92132 0.45366 0.97784 0.0
C600 C 0.91368 0.42701 0.97507 0.0
C601 C 0.93144 0.41314 0.98782 0.0
C602 C 0.95654 0.42564 1.00192 0.0
C603 C 0.88768 0.41419 0.95827 0.0
C604 C 0.86577 0.3964 0.97044 0.0
C605 C 0.88351 0.42084 0.9307 0.0
C606 C 0.9059 0.4387 0.91603 0.0
C607 C 0.93324 0.43399 0.91339 0.0
C608 C 0.95459 0.45144 0.90055 0.0
C609 C 0.94878 0.47357 0.89009 0.0
C610 C 0.92157 0.47823 0.89232 0.0
C611 C 0.90015 0.46084 0.90516 0.0
H612 H 0.96536 0.4871 0.88022 0.0
H613 H 0.75614 0.32455 0.00984 0.0
H614 H 0.81752 0.67167 0.36715 0.0
H615 H 0.77258 0.64988 0.3876 0.0
H616 H 0.8179 0.6306 0.45709 0.0
H617 H 0.86286 0.6525 0.43653 0.0
H618 H 0.77594 0.59046 0.44214 0.0
H619 H 0.78162 0.67848 0.46232 0.0
H620 H 0.78751 0.72386 0.45257 0.0
H621 H 0.71461 0.7064 0.39961 0.0
H622 H 0.70856 0.66083 0.40871 0.0
H623 H 0.65927 0.56347 0.53662 0.0
H624 H 0.70346 0.58198 0.51301 0.0
H625 H 0.65618 0.59277 0.4411 0.0
H626 H 0.61177 0.5737 0.46456 0.0
H627 H 0.6985 0.6364 0.45643 0.0
H628 H 0.69216 0.54796 0.43816 0.0
H629 H 0.68559 0.5031 0.45036 0.0
H630 H 0.75955 0.52179 0.50184 0.0
H631 H 0.76627 0.5669 0.49032 0.0
C632 C 0.81787 0.66271 0.38674 0.0
C633 C 0.8438 0.66384 0.40018 0.0
C634 C 0.7921 0.65029 0.39856 0.0
C635 C 0.79143 0.63859 0.42421 0.0
C636 C 0.8175 0.63933 0.43736 0.0
C637 C 0.84327 0.65194 0.42563 0.0
C638 C 0.76365 0.6261 0.43742 0.0
C639 C 0.75922 0.6007 0.44549 0.0
C640 C 0.74121 0.63894 0.4416 0.0
C641 C 0.74485 0.66624 0.43592 0.0
C642 C 0.76702 0.6843 0.44838 0.0
C643 C 0.77035 0.71005 0.44301 0.0
C644 C 0.7515 0.718 0.42541 0.0
C645 C 0.72924 0.70021 0.41318 0.0
C646 C 0.72584 0.67442 0.41844 0.0
C647 C 0.65822 0.56953 0.51566 0.0
C648 C 0.63182 0.56689 0.50252 0.0
C649 C 0.68362 0.58016 0.50212 0.0
C650 C 0.68348 0.58885 0.4751 0.0
C651 C 0.65709 0.58629 0.4619 0.0
C652 C 0.63164 0.5752 0.47529 0.0
C653 C 0.71081 0.60084 0.46098 0.0
C654 C 0.71519 0.62615 0.45288 0.0
C655 C 0.7332 0.58796 0.45693 0.0
C656 C 0.72956 0.56084 0.46359 0.0
C657 C 0.7069 0.54254 0.45225 0.0
C658 C 0.70316 0.51706 0.45902 0.0
C659 C 0.7221 0.50961 0.47692 0.0
C660 C 0.74487 0.52761 0.48801 0.0
C661 C 0.74867 0.55313 0.48135 0.0
H662 H 0.71916 0.48987 0.48216 0.0
H663 H 0.7541 0.73796 0.4213 0.0
H664 H 0.32786 0.28531 0.17263 0.0
H665 H 0.29685 0.31185 0.15535 0.0
H666 H 0.29866 0.34975 0.23522 0.0
H667 H 0.33037 0.32419 0.25221 0.0
H668 H 0.24377 0.331 0.21616 0.0
H669 H 0.32823 0.38394 0.18664 0.0
H670 H 0.37514 0.39503 0.16475 0.0
H671 H 0.33811 0.36839 0.08601 0.0
H672 H 0.29095 0.35681 0.10754 0.0
H673 H 0.15743 0.41523 0.16898 0.0
H674 H 0.19431 0.39745 0.19041 0.0
H675 H 0.21187 0.36496 0.11146 0.0
H676 H 0.17567 0.38295 0.09007 0.0
H677 H 0.25949 0.38493 0.13441 0.0
H678 H 0.17284 0.33062 0.1693 0.0
H679 H 0.12824 0.32068 0.19557 0.0
H680 H 0.17212 0.35334 0.26934 0.0
H681 H 0.21688 0.36379 0.24342 0.0
C682 C 0.32237 0.29981 0.18625 0.0
C683 C 0.33138 0.3023 0.21392 0.0
C684 C 0.30441 0.31486 0.17643 0.0
C685 C 0.29498 0.33257 0.19411 0.0
C686 C 0.30522 0.33601 0.22127 0.0
C687 C 0.32343 0.32135 0.23092 0.0
C688 C 0.27339 0.34654 0.18475 0.0
C689 C 0.24729 0.34305 0.19846 0.0
C690 C 0.27793 0.3624 0.16186 0.0
C691 C 0.30612 0.36929 0.14873 0.0
C692 C 0.33012 0.38024 0.16469 0.0
C693 C 0.35674 0.38666 0.15235 0.0
C694 C 0.35961 0.38236 0.12401 0.0
C695 C 0.33584 0.37168 0.10796 0.0
C696 C 0.30916 0.36521 0.12021 0.0
C697 C 0.16902 0.40414 0.15624 0.0
C698 C 0.16357 0.40079 0.12765 0.0
C699 C 0.19015 0.39387 0.16855 0.0
C700 C 0.20605 0.37957 0.15271 0.0
C701 C 0.20029 0.37601 0.12429 0.0
C702 C 0.17947 0.38641 0.11199 0.0
C703 C 0.22908 0.36863 0.16508 0.0
C704 C 0.25574 0.37286 0.15207 0.0
C705 C 0.22518 0.35386 0.18907 0.0
C706 C 0.19809 0.3483 0.20433 0.0
C707 C 0.17289 0.33595 0.19104 0.0
C708 C 0.14761 0.33017 0.20589 0.0
C709 C 0.14733 0.33646 0.23408 0.0
C710 C 0.17234 0.34856 0.24749 0.0
C711 C 0.19765 0.35443 0.23273 0.0
H712 H 0.12775 0.33188 0.24555 0.0
H713 H 0.38024 0.38736 0.11448 0.0
H714 H 0.66715 0.2954 0.91427 0.0
H715 H 0.64852 0.25424 0.93453 0.0
H716 H 0.66634 0.2164 0.85887 0.0
H717 H 0.68314 0.2579 0.83804 0.0
H718 H 0.62371 0.18791 0.87632 0.0
H719 H 0.70777 0.22432 0.92827 0.0
H720 H 0.73899 0.25772 0.95661 0.0
H721 H 0.6746 0.25242 0.0187 0.0
H722 H 0.64288 0.21921 0.99056 0.0
H723 H 0.60223 0.06515 0.9322 0.0
H724 H 0.62404 0.10635 0.91368 0.0
H725 H 0.60496 0.14357 0.98924 0.0
H726 H 0.58506 0.1018 1.00854 0.0
H727 H 0.64881 0.17258 0.9722 0.0
H728 H 0.56462 0.1364 0.91847 0.0
H729 H 0.53386 0.10388 0.88871 0.0
H730 H 0.60036 0.10913 0.82882 0.0
H731 H 0.63156 0.14149 0.85835 0.0
C732 C 0.66669 0.27832 0.90172 0.0
C733 C 0.67646 0.28039 0.87421 0.0
C734 C 0.65643 0.25442 0.91362 0.0
C735 C 0.65653 0.23126 0.89901 0.0
C736 C 0.66581 0.23339 0.87121 0.0
C737 C 0.67543 0.25738 0.85906 0.0
C738 C 0.64678 0.20515 0.91233 0.0
C739 C 0.62975 0.18472 0.89718 0.0
C740 C 0.65358 0.20007 0.93993 0.0
C741 C 0.6729 0.21943 0.95723 0.0
C742 C 0.70028 0.23032 0.94795 0.0
C743 C 0.71804 0.24923 0.96396 0.0
C744 C 0.70876 0.25723 0.98941 0.0
C745 C 0.68175 0.24622 0.99897 0.0
C746 C 0.66389 0.22733 0.98303 0.0
C747 C 0.60335 0.08203 0.94526 0.0
C748 C 0.59227 0.07964 0.97226 0.0
C749 C 0.61536 0.10601 0.9343 0.0
C750 C 0.61553 0.12909 0.94919 0.0
C751 C 0.60528 0.12666 0.97667 0.0
C752 C 0.59396 0.10249 0.98797 0.0
C753 C 0.62577 0.15531 0.9361 0.0
C754 C 0.64286 0.17578 0.95132 0.0
C755 C 0.61924 0.16043 0.90845 0.0
C756 C 0.60044 0.14115 0.89069 0.0
C757 C 0.57267 0.13052 0.899 0.0
C758 C 0.55518 0.11213 0.88218 0.0
C759 C 0.56517 0.1044 0.85693 0.0
C760 C 0.59266 0.11511 0.84839 0.0
C761 C 0.61024 0.13348 0.86514 0.0
H762 H 0.5516 0.09015 0.84395 0.0
H763 H 0.72252 0.27193 1.00173 0.0
H764 H 0.88114 0.75673 0.39173 0.0
H765 H 0.89762 0.79959 0.41232 0.0
H766 H 0.97859 0.78274 0.42897 0.0
H767 H 0.96232 0.73985 0.40762 0.0
H768 H 0.95318 0.80922 0.47622 0.0
H769 H 0.97435 0.81999 0.37763 0.0
H770 H 0.95884 0.81506 0.32899 0.0
H771 H 0.89634 0.85884 0.34686 0.0
H772 H 0.91126 0.86373 0.39567 0.0
H773 H 0.02408 0.93321 0.5231 0.0
H774 H 0.00854 0.89068 0.50238 0.0
H775 H 0.9547 0.91905 0.44643 0.0
H776 H 0.97288 0.96222 0.46544 0.0
H777 H 0.96388 0.88519 0.41927 0.0
H778 H 0.9344 0.87597 0.51144 0.0
H779 H 0.93675 0.87886 0.56228 0.0
H780 H 0.99699 0.83108 0.5614 0.0
H781 H 0.99533 0.82822 0.51052 0.0
C782 C 0.9026 0.76208 0.3995 0.0
C783 C 0.92033 0.74441 0.39744 0.0
C784 C 0.91206 0.78683 0.41148 0.0
C785 C 0.93957 0.79504 0.42256 0.0
C786 C 0.95729 0.77737 0.4208 0.0
C787 C 0.948 0.75271 0.40822 0.0
C788 C 0.94981 0.82201 0.43523 0.0
C789 C 0.95601 0.8258 0.46364 0.0
C790 C 0.95192 0.84422 0.41973 0.0
C791 C 0.94386 0.84216 0.39024 0.0
C792 C 0.95728 0.82853 0.37115 0.0
C793 C 0.94858 0.82573 0.34358 0.0
C794 C 0.92661 0.83662 0.33484 0.0
C795 C 0.91337 0.85043 0.35364 0.0
C796 C 0.92197 0.85327 0.38125 0.0
C797 C 0.00894 0.93048 0.50632 0.0
C798 C 0.99986 0.95163 0.49626 0.0
C799 C 0.99948 0.90565 0.49453 0.0
C800 C 0.97918 0.90027 0.47296 0.0
C801 C 0.97018 0.92163 0.46286 0.0
C802 C 0.98057 0.9467 0.47396 0.0
C803 C 0.96804 0.87294 0.46069 0.0
C804 C 0.9614 0.86891 0.43224 0.0
C805 C 0.96387 0.85054 0.47659 0.0
C806 C 0.96499 0.85213 0.50716 0.0
C807 C 0.94829 0.86622 0.52209 0.0
C808 C 0.94949 0.86784 0.55091 0.0
C809 C 0.96707 0.85523 0.56505 0.0
C810 C 0.98343 0.84089 0.55041 0.0
C811 C 0.98236 0.83925 0.52158 0.0
H812 H 0.96797 0.85651 0.58736 0.0
H813 H 0.91985 0.83437 0.3135 0.0
H814 H 0.37487 0.83796 0.58671 0.0
H815 H 0.4066 0.80826 0.58731 0.0
H816 H 0.34868 0.75547 0.53445 0.0
H817 H 0.3166 0.78483 0.53456 0.0
H818 H 0.3675 0.7323 0.57648 0.0
H819 H 0.40826 0.79329 0.50862 0.0
H820 H 0.42701 0.83684 0.49333 0.0
H821 H 0.49236 0.8475 0.55482 0.0
H822 H 0.47369 0.80413 0.57078 0.0
H823 H 0.45507 0.65093 0.53164 0.0
H824 H 0.42626 0.68286 0.5306 0.0
H825 H 0.4849 0.73195 0.58598 0.0
H826 H 0.51351 0.69997 0.58764 0.0
H827 H 0.46676 0.75777 0.54416 0.0
H828 H 0.42795 0.69736 0.61136 0.0
H829 H 0.40865 0.65497 0.62942 0.0
H830 H 0.33935 0.64408 0.57223 0.0
H831 H 0.35862 0.68619 0.55335 0.0
C832 C 0.3692 0.82008 0.57506 0.0
C833 C 0.34388 0.81375 0.55998 0.0
C834 C 0.3872 0.80321 0.57543 0.0
C835 C 0.38011 0.77996 0.56051 0.0
C836 C 0.35452 0.77345 0.54589 0.0
C837 C 0.33641 0.79022 0.54574 0.0
C838 C 0.39938 0.76235 0.56002 0.0
C839 C 0.38908 0.7377 0.56905 0.0
C840 C 0.42773 0.76984 0.55116 0.0
C841 C 0.43947 0.79557 0.541 0.0
C842 C 0.42657 0.80497 0.51894 0.0
C843 C 0.43716 0.82962 0.51017 0.0
C844 C 0.46083 0.84495 0.52313 0.0
C845 C 0.47402 0.83561 0.54482 0.0
C846 C 0.46346 0.811 0.55372 0.0
C847 C 0.46183 0.66854 0.54356 0.0
C848 C 0.48635 0.67288 0.55996 0.0
C849 C 0.44546 0.68674 0.54285 0.0
C850 C 0.45339 0.70947 0.55852 0.0
C851 C 0.47855 0.71443 0.57379 0.0
C852 C 0.49488 0.69621 0.57461 0.0
C853 C 0.43468 0.72754 0.56008 0.0
C854 C 0.44513 0.75232 0.55144 0.0
C855 C 0.40649 0.72021 0.56948 0.0
C856 C 0.39495 0.6948 0.58068 0.0
C857 C 0.40879 0.68581 0.60239 0.0
C858 C 0.39783 0.66184 0.61281 0.0
C859 C 0.37284 0.6468 0.60191 0.0
C860 C 0.35875 0.65572 0.58059 0.0
C861 C 0.3697 0.67962 0.57 0.0
H862 H 0.36436 0.62827 0.61005 0.0
H863 H 0.46897 0.86405 0.51634 0.0
H864 H 0.72099 0.79787 0.76246 0.0
H865 H 0.74907 0.81933 0.72423 0.0
H866 H 0.8255 0.81011 0.76371 0.0
H867 H 0.79796 0.78893 0.80168 0.0
H868 H 0.8166 0.86282 0.75309 0.0
H869 H 0.8137 0.77903 0.71207 0.0
H870 H 0.79058 0.73739 0.69138 0.0
H871 H 0.75539 0.77426 0.62747 0.0
H872 H 0.77787 0.81618 0.64813 0.0
H873 H 0.93914 0.90547 0.67978 0.0
H874 H 0.90035 0.87683 0.70218 0.0
H875 H 0.84258 0.88968 0.6397 0.0
H876 H 0.88169 0.91821 0.61656 0.0
H877 H 0.83451 0.83686 0.65663 0.0
H878 H 0.83927 0.92024 0.6953 0.0
H879 H 0.86202 0.9622 0.71556 0.0
H880 H 0.89211 0.92642 0.78354 0.0
H881 H 0.86987 0.88422 0.76345 0.0
C882 C 0.74374 0.80002 0.76265 0.0
C883 C 0.75727 0.7917 0.78507 0.0
C884 C 0.75967 0.81206 0.74075 0.0
C885 C 0.78925 0.81606 0.74119 0.0
C886 C 0.80263 0.80687 0.76293 0.0
C887 C 0.78683 0.7947 0.78457 0.0
C888 C 0.8068 0.83311 0.72167 0.0
C889 C 0.82054 0.85713 0.732 0.0
C890 C 0.81106 0.82591 0.69393 0.0
C891 C 0.79703 0.80074 0.68195 0.0
C892 C 0.80063 0.77828 0.69389 0.0
C893 C 0.78775 0.75461 0.68209 0.0
C894 C 0.77141 0.75317 0.6582 0.0
C895 C 0.76795 0.7754 0.64604 0.0
C896 C 0.78075 0.79911 0.6578 0.0
C897 C 0.91837 0.90185 0.67036 0.0
C898 C 0.91356 0.91414 0.64633 0.0
C899 C 0.89617 0.88558 0.68332 0.0
C900 C 0.86863 0.88131 0.67267 0.0
C901 C 0.86374 0.89277 0.64818 0.0
C902 C 0.88603 0.9092 0.63517 0.0
C903 C 0.84503 0.86619 0.68849 0.0
C904 C 0.83012 0.84269 0.67753 0.0
C905 C 0.83943 0.87382 0.71574 0.0
C906 C 0.8531 0.8991 0.72776 0.0
C907 C 0.85097 0.92133 0.71443 0.0
C908 C 0.86372 0.94515 0.72591 0.0
C909 C 0.87855 0.94698 0.7508 0.0
C910 C 0.88064 0.92498 0.76426 0.0
C911 C 0.86794 0.90111 0.75284 0.0
H912 H 0.88837 0.96544 0.75968 0.0
H913 H 0.76152 0.73483 0.64905 0.0
H914 H 0.75823 0.13497 0.37202 0.0
H915 H 0.73583 0.12258 0.32832 0.0
H916 H 0.68338 0.17717 0.34086 0.0
H917 H 0.70275 0.18714 0.38731 0.0
H918 H 0.65439 0.13768 0.3165 0.0
H919 H 0.74704 0.18775 0.29878 0.0
H920 H 0.79894 0.20041 0.30333 0.0
H921 H 0.80684 0.12756 0.26996 0.0
H922 H 0.75503 0.11429 0.26562 0.0
H923 H 0.62392 0.11363 0.17018 0.0
H924 H 0.63895 0.13567 0.21452 0.0
H925 H 0.68744 0.07964 0.23152 0.0
H926 H 0.67292 0.05787 0.18734 0.0
H927 H 0.71766 0.12942 0.2375 0.0
H928 H 0.62641 0.07753 0.26201 0.0
H929 H 0.5746 0.06314 0.25871 0.0
H930 H 0.56476 0.13872 0.27958 0.0
H931 H 0.61658 0.15367 0.28241 0.0
C932 C 0.74114 0.1438 0.36642 0.0
C933 C 0.73219 0.16199 0.3838 0.0
C934 C 0.72895 0.13718 0.34073 0.0
C935 C 0.70887 0.14976 0.3308 0.0
C936 C 0.69932 0.16758 0.34801 0.0
C937 C 0.71066 0.17345 0.37446 0.0
C938 C 0.69765 0.14362 0.30261 0.0
C939 C 0.66823 0.13651 0.29906 0.0
C940 C 0.71577 0.14182 0.27992 0.0
C941 C 0.74708 0.15004 0.2819 0.0
C942 C 0.75983 0.17441 0.29246 0.0
C943 C 0.78925 0.18168 0.29503 0.0
C944 C 0.80617 0.1648 0.28694 0.0
C945 C 0.79372 0.14063 0.27619 0.0
C946 C 0.76433 0.13325 0.27362 0.0
C947 C 0.63767 0.10604 0.18354 0.0
C948 C 0.64727 0.08409 0.17557 0.0
C949 C 0.6461 0.11853 0.20874 0.0
C950 C 0.66423 0.10916 0.22603 0.0
C951 C 0.67343 0.08705 0.21828 0.0
C952 C 0.66494 0.07455 0.19325 0.0
C953 C 0.67469 0.12264 0.25193 0.0
C954 C 0.70394 0.1313 0.25486 0.0
C955 C 0.65648 0.1258 0.27396 0.0
C956 C 0.62537 0.1168 0.27197 0.0
C957 C 0.61322 0.09115 0.26552 0.0
C958 C 0.58384 0.08288 0.2638 0.0
C959 C 0.56639 0.10003 0.26878 0.0
C960 C 0.57829 0.12548 0.27557 0.0
C961 C 0.60766 0.13386 0.27722 0.0
H962 H 0.54365 0.09358 0.2675 0.0
H963 H 0.82893 0.17046 0.28899 0.0
H964 H 0.45443 0.70074 0.28866 0.0
H965 H 0.46799 0.68289 0.3312 0.0
H966 H 0.42203 0.60857 0.30397 0.0
H967 H 0.4078 0.62661 0.26203 0.0
H968 H 0.41754 0.60862 0.35605 0.0
H969 H 0.49951 0.63165 0.30025 0.0
H970 H 0.53559 0.65966 0.27274 0.0
H971 H 0.56028 0.7088 0.34403 0.0
H972 H 0.52404 0.68124 0.37187 0.0
H973 H 0.49743 0.53743 0.43722 0.0
H974 H 0.47782 0.55784 0.39981 0.0
H975 H 0.50455 0.63048 0.44212 0.0
H976 H 0.52346 0.60993 0.48022 0.0
H977 H 0.51844 0.63177 0.38385 0.0
H978 H 0.43656 0.60402 0.43995 0.0
H979 H 0.40116 0.57331 0.4653 0.0
H980 H 0.37756 0.52921 0.39036 0.0
H981 H 0.4132 0.55944 0.36463 0.0
C982 C 0.44657 0.68071 0.29202 0.0
C983 C 0.4297 0.66539 0.27155 0.0
C984 C 0.45482 0.67025 0.31637 0.0
C985 C 0.44699 0.64387 0.32121 0.0
C986 C 0.42887 0.62884 0.30138 0.0
C987 C 0.42051 0.63931 0.27714 0.0
C988 C 0.45817 0.63189 0.34613 0.0
C989 C 0.43972 0.61365 0.36173 0.0
C990 C 0.48709 0.63802 0.35459 0.0
C991 C 0.50888 0.65459 0.33802 0.0
C992 C 0.51251 0.64854 0.30999 0.0
C993 C 0.53299 0.66432 0.29435 0.0
C994 C 0.55016 0.68605 0.30661 0.0
C995 C 0.54693 0.692 0.33455 0.0
C996 C 0.52643 0.67631 0.35027 0.0
C997 C 0.49904 0.55776 0.43886 0.0
C998 C 0.51218 0.57179 0.46226 0.0
C999 C 0.48766 0.56952 0.41721 0.0
C1000 C 0.4894 0.59599 0.41758 0.0
C1001 C 0.50269 0.61012 0.44085 0.0
C1002 C 0.51349 0.59824 0.4629 0.0
C1003 C 0.47781 0.60873 0.39368 0.0
C1004 C 0.49625 0.62694 0.3782 0.0
C1005 C 0.44902 0.60216 0.38501 0.0
C1006 C 0.4278 0.58383 0.40044 0.0
C1007 C 0.42405 0.58762 0.42893 0.0
C1008 C 0.4039 0.57033 0.44336 0.0
C1009 C 0.38718 0.54928 0.42947 0.0
C1010 C 0.39057 0.54549 0.4011 0.0
C1011 C 0.41075 0.5627 0.38659 0.0
H1012 H 0.37156 0.53593 0.44066 0.0
H1013 H 0.56601 0.69824 0.29447 0.0
H1014 H 0.15685 0.41555 0.74809 0.0
H1015 H 0.14095 0.43453 0.78985 0.0
H1016 H 0.12793 0.36243 0.82892 0.0
H1017 H 0.14307 0.34306 0.78644 0.0
H1018 H 0.0891 0.38203 0.8476 0.0
H1019 H 0.18797 0.42164 0.84179 0.0
H1020 H 0.23164 0.44629 0.82115 0.0
H1021 H 0.19286 0.51015 0.81397 0.0
H1022 H 0.14884 0.48576 0.83417 0.0
H1023 H 0.06942 0.441 0.98294 0.0
H1024 H 0.08672 0.41799 0.94368 0.0
H1025 H 0.09786 0.48516 0.89575 0.0
H1026 H 0.08117 0.50778 0.93431 0.0
H1027 H 0.13975 0.46656 0.88368 0.0
H1028 H 0.04099 0.42743 0.88731 0.0
H1029 H 0.99646 0.40327 0.90681 0.0
H1030 H 0.03447 0.33935 0.91734 0.0
H1031 H 0.07936 0.36331 0.89833 0.0
C1032 C 0.15088 0.40354 0.76552 0.0
C1033 C 0.15185 0.37749 0.76328 0.0
C1034 C 0.14181 0.41466 0.78992 0.0
C1035 C 0.13375 0.40055 0.81383 0.0
C1036 C 0.13403 0.37433 0.81143 0.0
C1037 C 0.14276 0.36307 0.78678 0.0
C1038 C 0.12465 0.41287 0.84075 0.0
C1039 C 0.10069 0.40035 0.85556 0.0
C1040 C 0.1387 0.43724 0.85174 0.0
C1041 C 0.16503 0.45177 0.83925 0.0
C1042 C 0.18869 0.44086 0.8356 0.0
C1043 C 0.21351 0.45481 0.82401 0.0
C1044 C 0.215 0.47975 0.8162 0.0
C1045 C 0.19167 0.49081 0.81998 0.0
C1046 C 0.16679 0.47694 0.8315 0.0
C1047 C 0.07575 0.45093 0.96413 0.0
C1048 C 0.07372 0.4766 0.96238 0.0
C1049 C 0.08551 0.43759 0.94129 0.0
C1050 C 0.0937 0.44938 0.9158 0.0
C1051 C 0.09203 0.47507 0.91456 0.0
C1052 C 0.08224 0.48818 0.93704 0.0
C1053 C 0.10412 0.43579 0.89042 0.0
C1054 C 0.12831 0.44814 0.87584 0.0
C1055 C 0.09025 0.41136 0.87961 0.0
C1056 C 0.06362 0.39729 0.89181 0.0
C1057 C 0.03994 0.40834 0.89412 0.0
C1058 C 0.01462 0.39466 0.90501 0.0
C1059 C 0.01267 0.36983 0.9134 0.0
C1060 C 0.03603 0.35862 0.91093 0.0
C1061 C 0.06142 0.37225 0.90013 0.0
H1062 H 0.99302 0.35923 0.92175 0.0
H1063 H 0.23425 0.49052 0.80727 0.0
H1064 H 0.65341 0.78772 0.84937 0.0
H1065 H 0.62964 0.81954 0.87078 0.0
H1066 H 0.71052 0.86335 0.89917 0.0
H1067 H 0.73381 0.83129 0.87861 0.0
H1068 H 0.67534 0.86181 0.93854 0.0
H1069 H 0.66982 0.87754 0.84118 0.0
H1070 H 0.65534 0.86751 0.79268 0.0
H1071 H 0.568 0.85149 0.81678 0.0
H1072 H 0.58196 0.86095 0.86548 0.0
H1073 H 0.63977 0.9769 0.98318 0.0
H1074 H 0.65962 0.94442 0.95884 0.0
H1075 H 0.57682 0.90925 0.927 0.0
H1076 H 0.55733 0.94267 0.94987 0.0
H1077 H 0.61012 0.90428 0.88943 0.0
H1078 H 0.61403 0.8868 0.98566 0.0
H1079 H 0.62687 0.89462 0.03485 0.0
H1080 H 0.71501 0.91136 0.01357 0.0
H1081 H 0.70268 0.90398 0.96426 0.0
C1082 C 0.6659 0.80403 0.86055 0.0
C1083 C 0.69535 0.80688 0.86286 0.0
C1084 C 0.6524 0.82241 0.87247 0.0
C1085 C 0.6682 0.84421 0.8865 0.0
C1086 C 0.69767 0.84683 0.88865 0.0
C1087 C 0.71103 0.82845 0.87698 0.0
C1088 C 0.6545 0.86399 0.89997 0.0
C1089 C 0.66137 0.8713 0.92759 0.0
C1090 C 0.63525 0.87584 0.88628 0.0
C1091 C 0.62697 0.86962 0.85704 0.0
C1092 C 0.64755 0.87158 0.83619 0.0
C1093 C 0.63942 0.86605 0.80864 0.0
C1094 C 0.61078 0.85878 0.80166 0.0
C1095 C 0.59018 0.85704 0.82221 0.0
C1096 C 0.59819 0.86246 0.84979 0.0
C1097 C 0.62581 0.96236 0.97083 0.0
C1098 C 0.59689 0.9625 0.96859 0.0
C1099 C 0.63715 0.94349 0.95709 0.0
C1100 C 0.61975 0.92362 0.9415 0.0
C1101 C 0.59092 0.92409 0.93885 0.0
C1102 C 0.57971 0.94331 0.95203 0.0
C1103 C 0.63143 0.90248 0.92795 0.0
C1104 C 0.62408 0.89481 0.9004 0.0
C1105 C 0.65005 0.89001 0.94175 0.0
C1106 C 0.65741 0.89513 0.9713 0.0
C1107 C 0.63613 0.8924 0.99148 0.0
C1108 C 0.64333 0.89671 0.01937 0.0
C1109 C 0.67173 0.90356 0.02732 0.0
C1110 C 0.69302 0.90612 1.00739 0.0
C1111 C 0.68594 0.90189 0.97948 0.0
H1112 H 0.67726 0.90682 0.04893 0.0
H1113 H 0.60453 0.85458 0.78032 0.0
H1114 H 0.80334 0.15875 0.49463 0.0
H1115 H 0.84377 0.14022 0.50502 0.0
H1116 H 0.84442 0.1119 0.4208 0.0
H1117 H 0.80515 0.13138 0.40975 0.0
H1118 H 0.84693 0.07706 0.46798 0.0
H1119 H 0.88832 0.15946 0.4312 0.0
H1120 H 0.89621 0.20608 0.42973 0.0
H1121 H 0.92841 0.21328 0.51261 0.0
H1122 H 0.92005 0.16666 0.51483 0.0
H1123 H 0.97061 0.03409 0.48436 0.0
H1124 H 0.94146 0.05861 0.46064 0.0
H1125 H 0.94269 0.10702 0.53365 0.0
H1126 H 0.97166 0.0827 0.55733 0.0
H1127 H 0.94152 0.13277 0.48625 0.0
H1128 H 0.89449 0.05676 0.52932 0.0
H1129 H 0.88364 1.01114 0.53895 0.0
H1130 H 0.85793 0.99303 0.45471 0.0
H1131 H 0.86939 0.03861 0.44441 0.0
C1132 C 0.81202 0.14844 0.47841 0.0
C1133 C 0.80129 0.14657 0.45139 0.0
C1134 C 0.83501 0.13802 0.48434 0.0
C1135 C 0.847 0.12534 0.46341 0.0
C1136 C 0.83528 0.12194 0.43695 0.0
C1137 C 0.81265 0.13272 0.43086 0.0
C1138 C 0.87177 0.11533 0.46921 0.0
C1139 C 0.8678 0.08909 0.47136 0.0
C1140 C 0.89843 0.13148 0.47457 0.0
C1141 C 0.90322 0.15952 0.47328 0.0
C1142 C 0.8967 0.17095 0.44925 0.0
C1143 C 0.90133 0.19739 0.44826 0.0
C1144 C 0.91272 0.21263 0.47109 0.0
C1145 C 0.91952 0.20146 0.49496 0.0
C1146 C 0.91482 0.17503 0.4961 0.0
C1147 C 0.965 0.05026 0.49505 0.0
C1148 C 0.97231 0.05618 0.52278 0.0
C1149 C 0.94869 0.06429 0.48149 0.0
C1150 C 0.93981 0.08422 0.4957 0.0
C1151 C 0.94942 0.0916 0.52252 0.0
C1152 C 0.9655 0.0775 0.53611 0.0
C1153 C 0.91673 0.09442 0.48485 0.0
C1154 C 0.92086 0.12068 0.48204 0.0
C1155 C 0.88983 0.07843 0.47995 0.0
C1156 C 0.88338 0.05102 0.48595 0.0
C1157 C 0.88697 0.04303 0.51274 0.0
C1158 C 0.88064 0.01719 0.51834 0.0
C1159 C 0.87025 0.99918 0.49742 0.0
C1160 C 0.86614 1.00699 0.47086 0.0
C1161 C 0.87262 0.03282 0.46511 0.0
H1162 H 0.86526 0.97917 0.50181 0.0
H1163 H 0.91636 0.2331 0.47025 0.0
H1164 H 0.34612 0.67977 0.12314 0.0
H1165 H 0.30294 0.65259 0.10391 0.0
H1166 H 0.27089 0.6371 0.18602 0.0
H1167 H 0.31424 0.6638 0.20531 0.0
H1168 H 0.25556 0.59543 0.15831 0.0
H1169 H 0.24674 0.6801 0.13659 0.0
H1170 H 0.26154 0.72228 0.1164 0.0
H1171 H 0.26639 0.68706 0.03624 0.0
H1172 H 0.25187 0.64469 0.05603 0.0
H1173 H 0.11411 0.53634 0.11499 0.0
H1174 H 0.15697 0.56277 0.13565 0.0
H1175 H 0.18567 0.588 0.05479 0.0
H1176 H 0.14127 0.56361 0.03482 0.0
H1177 H 0.20308 0.62466 0.08308 0.0
H1178 H 0.21167 0.53947 0.10401 0.0
H1179 H 0.19684 0.49715 0.12394 0.0
H1180 H 0.19323 0.53191 0.20451 0.0
H1181 H 0.20768 0.5744 0.18501 0.0
C1182 C 0.32987 0.67083 0.13724 0.0
C1183 C 0.33427 0.67438 0.16603 0.0
C1184 C 0.30481 0.65514 0.1261 0.0
C1185 C 0.28267 0.6427 0.14321 0.0
C1186 C 0.28714 0.64613 0.17196 0.0
C1187 C 0.31229 0.66158 0.18309 0.0
C1188 C 0.25514 0.62621 0.1314 0.0
C1189 C 0.24404 0.60203 0.14199 0.0
C1190 C 0.23972 0.63393 0.10962 0.0
C1191 C 0.24851 0.65931 0.09781 0.0
C1192 C 0.25115 0.68139 0.11469 0.0
C1193 C 0.25945 0.70531 0.10332 0.0
C1194 C 0.26498 0.70735 0.07507 0.0
C1195 C 0.26214 0.68546 0.05812 0.0
C1196 C 0.25386 0.66151 0.06939 0.0
C1197 C 0.12957 0.54762 0.10164 0.0
C1198 C 0.12402 0.54774 0.07314 0.0
C1199 C 0.15462 0.56261 0.11348 0.0
C1200 C 0.17595 0.57732 0.0971 0.0
C1201 C 0.1702 0.57721 0.06847 0.0
C1202 C 0.14462 0.56305 0.05683 0.0
C1203 C 0.20353 0.59343 0.10944 0.0
C1204 C 0.21461 0.61772 0.09914 0.0
C1205 C 0.21902 0.58562 0.1313 0.0
C1206 C 0.2105 0.56009 0.143 0.0
C1207 C 0.20758 0.53806 0.12595 0.0
C1208 C 0.19924 0.51406 0.13717 0.0
C1209 C 0.19403 0.51185 0.16545 0.0
C1210 C 0.19722 0.53364 0.1826 0.0
C1211 C 0.2055 0.55768 0.17148 0.0
H1212 H 0.18756 0.49325 0.17409 0.0
H1213 H 0.2714 0.72589 0.0663 0.0
H1214 H 0.26363 0.44054 0.68259 0.0
H1215 H 0.30408 0.46342 0.65596 0.0
H1216 H 0.31886 0.39199 0.62383 0.0
H1217 H 0.27866 0.36927 0.6504 0.0
H1218 H 0.3667 0.41912 0.6424 0.0
H1219 H 0.29498 0.43686 0.58333 0.0
H1220 H 0.25385 0.45305 0.56839 0.0
H1221 H 0.29484 0.52849 0.59597 0.0
H1222 H 0.33604 0.5127 0.61147 0.0
H1223 H 0.46442 0.46442 0.53322 0.0
H1224 H 0.42101 0.44596 0.55825 0.0
H1225 H 0.42952 0.51519 0.60749 0.0
H1226 H 0.47388 0.53338 0.58319 0.0
H1227 H 0.37102 0.49173 0.58145 0.0
H1228 H 0.44254 0.47417 0.64027 0.0
H1229 H 0.48542 0.45887 0.65126 0.0
H1230 H 0.44515 0.38365 0.62233 0.0
H1231 H 0.40217 0.39864 0.61063 0.0
C1232 C 0.27504 0.42976 0.66925 0.0
C1233 C 0.26771 0.40297 0.66875 0.0
C1234 C 0.29835 0.44289 0.654 0.0
C1235 C 0.31506 0.42963 0.63775 0.0
C1236 C 0.30677 0.40291 0.63623 0.0
C1237 C 0.28348 0.38984 0.65132 0.0
C1238 C 0.34216 0.44313 0.62401 0.0
C1239 C 0.36732 0.4348 0.62885 0.0
C1240 C 0.34384 0.46425 0.60681 0.0
C1241 C 0.31842 0.4735 0.59898 0.0
C1242 C 0.29503 0.45682 0.58665 0.0
C1243 C 0.27175 0.46596 0.57796 0.0
C1244 C 0.27168 0.49176 0.58133 0.0
C1245 C 0.29487 0.50849 0.59346 0.0
C1246 C 0.31818 0.49945 0.60222 0.0
C1247 C 0.45712 0.4757 0.54946 0.0
C1248 C 0.47267 0.50037 0.55623 0.0
C1249 C 0.43224 0.46511 0.56377 0.0
C1250 C 0.42172 0.47913 0.58477 0.0
C1251 C 0.43704 0.50395 0.59137 0.0
C1252 C 0.46248 0.5143 0.57757 0.0
C1253 C 0.39499 0.46752 0.59986 0.0
C1254 C 0.37012 0.47615 0.59521 0.0
C1255 C 0.3935 0.44674 0.61726 0.0
C1256 C 0.41925 0.4376 0.62425 0.0
C1257 C 0.44293 0.45443 0.63594 0.0
C1258 C 0.46724 0.44581 0.64236 0.0
C1259 C 0.46804 0.42032 0.63742 0.0
C1260 C 0.44451 0.4034 0.62609 0.0
C1261 C 0.42017 0.41195 0.61956 0.0
H1262 H 0.48687 0.41366 0.64244 0.0
H1263 H 0.2537 0.49881 0.57446 0.0
H1264 H 0.72717 0.66058 0.86861 0.0
H1265 H 0.76051 0.63514 0.88256 0.0
H1266 H 0.82819 0.70197 0.8829 0.0
H1267 H 0.79502 0.72724 0.86787 0.0
H1268 H 0.846 0.6621 0.86099 0.0
H1269 H 0.79214 0.67512 0.94426 0.0
H1270 H 0.74707 0.67162 0.96937 0.0
H1271 H 0.7278 0.59076 0.95456 0.0
H1272 H 0.7726 0.59384 0.92909 0.0
H1273 H 0.95019 0.62803 0.94271 0.0
H1274 H 0.91382 0.64629 0.92207 0.0
H1275 H 0.85239 0.57643 0.93325 0.0
H1276 H 0.88887 0.55799 0.95421 0.0
H1277 H 0.82842 0.61312 0.94641 0.0
H1278 H 0.8785 0.59577 0.86761 0.0
H1279 H 0.9195 0.59421 0.83778 0.0
H1280 H 0.94144 0.67572 0.83797 0.0
H1281 H 0.90076 0.67778 0.86812 0.0
C1282 C 0.74912 0.66989 0.87194 0.0
C1283 C 0.75814 0.69614 0.86811 0.0
C1284 C 0.76823 0.65531 0.87996 0.0
C1285 C 0.79692 0.66664 0.88461 0.0
C1286 C 0.80617 0.69273 0.87984 0.0
C1287 C 0.78709 0.70727 0.87151 0.0
C1288 C 0.81723 0.65148 0.89467 0.0
C1289 C 0.84232 0.65171 0.8799 0.0
C1290 C 0.81193 0.63661 0.91848 0.0
C1291 C 0.78561 0.63473 0.9347 0.0
C1292 C 0.77826 0.65661 0.94637 0.0
C1293 C 0.75276 0.6547 0.96062 0.0
C1294 C 0.73457 0.63099 0.96353 0.0
C1295 C 0.74191 0.60912 0.9523 0.0
C1296 C 0.76736 0.61093 0.93799 0.0
C1297 C 0.9291 0.61628 0.94041 0.0
C1298 C 0.92274 0.59137 0.95009 0.0
C1299 C 0.90816 0.62683 0.92853 0.0
C1300 C 0.88018 0.61276 0.92558 0.0
C1301 C 0.8737 0.58783 0.93519 0.0
C1302 C 0.89466 0.57728 0.94726 0.0
C1303 C 0.8578 0.6245 0.91329 0.0
C1304 C 0.83223 0.6235 0.92752 0.0
C1305 C 0.86223 0.63798 0.88847 0.0
C1306 C 0.88673 0.63693 0.87032 0.0
C1307 C 0.8922 0.61337 0.86146 0.0
C1308 C 0.91535 0.61239 0.84446 0.0
C1309 C 0.9331 0.63486 0.83603 0.0
C1310 C 0.92768 0.65834 0.84453 0.0
C1311 C 0.90456 0.65943 0.86155 0.0
H1312 H 0.95103 0.63406 0.82287 0.0
H1313 H 0.71481 0.62956 0.97451 0.0
H1314 H 0.42852 0.7382 0.12816 0.0
H1315 H 0.4503 0.77858 0.10686 0.0
H1316 H 0.42376 0.8199 0.17593 0.0
H1317 H 0.40273 0.77946 0.19759 0.0
H1318 H 0.41482 0.84246 0.12704 0.0
H1319 H 0.49292 0.81698 0.168 0.0
H1320 H 0.52464 0.7883 0.17769 0.0
H1321 H 0.54646 0.78551 0.09186 0.0
H1322 H 0.51448 0.81389 0.08158 0.0
H1323 H 0.50184 0.96636 0.09964 0.0
H1324 H 0.47725 0.92574 0.11844 0.0
H1325 H 0.51119 0.88544 0.05296 0.0
H1326 H 0.53551 0.92624 0.034 0.0
H1327 H 0.51568 0.86193 0.09933 0.0
H1328 H 0.43813 0.88757 0.05809 0.0
H1329 H 0.40565 0.91544 0.04786 0.0
H1330 H 0.38215 0.91739 0.1333 0.0
H1331 H 0.41484 0.88982 0.14412 0.0
C1332 C 0.42744 0.75586 0.13897 0.0
C1333 C 0.41392 0.75517 0.16494 0.0
C1334 C 0.44003 0.77919 0.12669 0.0
C1335 C 0.43918 0.803 0.1395 0.0
C1336 C 0.42511 0.80227 0.16522 0.0
C1337 C 0.41309 0.77892 0.1778 0.0
C1338 C 0.45303 0.82834 0.12633 0.0
C1339 C 0.437 0.84671 0.1214 0.0
C1340 C 0.4819 0.83441 0.11795 0.0
C1341 C 0.50106 0.81731 0.12397 0.0
C1342 C 0.50427 0.81006 0.15114 0.0
C1343 C 0.52233 0.79389 0.15676 0.0
C1344 C 0.53749 0.78502 0.13539 0.0
C1345 C 0.53466 0.79235 0.10838 0.0
C1346 C 0.51657 0.80848 0.10264 0.0
C1347 C 0.50341 0.94889 0.08868 0.0
C1348 C 0.52003 0.95003 0.06451 0.0
C1349 C 0.48933 0.92537 0.09964 0.0
C1350 C 0.49167 0.90173 0.08733 0.0
C1351 C 0.50846 0.9029 0.06319 0.0
C1352 C 0.52221 0.92648 0.052 0.0
C1353 C 0.4775 0.87617 0.10001 0.0
C1354 C 0.49348 0.85773 0.10489 0.0
C1355 C 0.44855 0.87001 0.10826 0.0
C1356 C 0.42919 0.88688 0.10197 0.0
C1357 C 0.42627 0.89416 0.07475 0.0
C1358 C 0.40777 0.90986 0.06884 0.0
C1359 C 0.39192 0.91824 0.08993 0.0
C1360 C 0.3945 0.91092 0.11699 0.0
C1361 C 0.413 0.89525 0.12303 0.0
H1362 H 0.37757 0.93036 0.0853 0.0
H1363 H 0.55149 0.77253 0.13978 0.0
H1364 H 0.16196 0.28342 0.71937 0.0
H1365 H 0.14556 0.24184 0.69533 0.0
H1366 H 0.11642 0.27872 0.62738 0.0
H1367 H 0.13349 0.32023 0.6511 0.0
H1368 H 0.0779 0.23656 0.63599 0.0
H1369 H 0.17413 0.25424 0.61992 0.0
H1370 H 0.2257 0.26618 0.62686 0.0
H1371 H 0.2221 0.20069 0.67568 0.0
H1372 H 0.17032 0.18854 0.66942 0.0
H1373 H 0.05842 0.12502 0.54376 0.0
H1374 H 0.07566 0.16743 0.56514 0.0
H1375 H 0.09738 0.13357 0.63876 0.0
H1376 H 0.07979 0.09103 0.61756 0.0
H1377 H 0.14023 0.17528 0.62455 0.0
H1378 H 0.03742 0.1603 0.63419 0.0
H1379 H 0.9887 0.15117 0.61592 0.0
H1380 H 0.00966 0.21641 0.56539 0.0
H1381 H 0.0586 0.22572 0.5831 0.0
C1382 C 0.15174 0.28268 0.69947 0.0
C1383 C 0.14874 0.30547 0.68759 0.0
C1384 C 0.14253 0.25874 0.68546 0.0
C1385 C 0.12955 0.25651 0.65913 0.0
C1386 C 0.1261 0.27932 0.64754 0.0
C1387 C 0.13586 0.30325 0.66126 0.0
C1388 C 0.11962 0.23067 0.64389 0.0
C1389 C 0.09178 0.22336 0.63346 0.0
C1390 C 0.13734 0.21302 0.63958 0.0
C1391 C 0.16823 0.22073 0.64464 0.0
C1392 C 0.18424 0.2426 0.63256 0.0
C1393 C 0.21353 0.24935 0.63625 0.0
C1394 C 0.22715 0.23427 0.65182 0.0
C1395 C 0.21149 0.21241 0.66373 0.0
C1396 C 0.18215 0.20559 0.66013 0.0
C1397 C 0.06683 0.12643 0.56453 0.0
C1398 C 0.06743 0.10407 0.5787 0.0
C1399 C 0.07668 0.15098 0.57692 0.0
C1400 C 0.08787 0.15435 0.60399 0.0
C1401 C 0.08895 0.13203 0.61799 0.0
C1402 C 0.0787 0.10746 0.60576 0.0
C1403 C 0.09824 0.18083 0.61769 0.0
C1404 C 0.12629 0.18837 0.62756 0.0
C1405 C 0.08111 0.19915 0.62031 0.0
C1406 C 0.0517 0.19357 0.6098 0.0
C1407 C 0.03167 0.17259 0.61904 0.0
C1408 C 1.00402 0.1674 0.60881 0.0
C1409 C 0.9961 0.18317 0.58946 0.0
C1410 C 0.01582 0.2042 0.58035 0.0
C1411 C 0.0435 0.20944 0.59049 0.0
H1412 H 0.97468 0.17912 0.58156 0.0
H1413 H 0.24987 0.23947 0.65456 0.0
H1414 H 0.70512 0.21865 0.47971 0.0
H1415 H 0.67335 0.24846 0.47997 0.0
H1416 H 0.74547 0.31099 0.47262 0.0
H1417 H 0.77713 0.28134 0.47284 0.0
H1418 H 0.71395 0.31416 0.51883 0.0
H1419 H 0.7005 0.29679 0.42203 0.0
H1420 H 0.68757 0.27198 0.37863 0.0
H1421 H 0.60219 0.24772 0.40716 0.0
H1422 H 0.61475 0.27192 0.45104 0.0
H1423 H 0.65502 0.42014 0.49527 0.0
H1424 H 0.68021 0.38566 0.49454 0.0
H1425 H 0.60149 0.33148 0.50616 0.0
H1426 H 0.57604 0.36605 0.50719 0.0
H1427 H 0.63238 0.32092 0.46052 0.0
H1428 H 0.64752 0.3455 0.55569 0.0
H1429 H 0.6622 0.3757 0.59469 0.0
H1430 H 0.74821 0.38959 0.56662 0.0
H1431 H 0.73375 0.36096 0.52616 0.0
C1432 C 0.71397 0.23878 0.47799 0.0
C1433 C 0.74336 0.24814 0.47737 0.0
C1434 C 0.69592 0.25563 0.47776 0.0
C1435 C 0.70729 0.28176 0.47654 0.0
C1436 C 0.73652 0.29082 0.47377 0.0
C1437 C 0.75449 0.27405 0.47412 0.0
C1438 C 0.6895 0.29995 0.48241 0.0
C1439 C 0.69628 0.3159 0.50593 0.0
C1440 C 0.66599 0.3013 0.46598 0.0
C1441 C 0.65873 0.2858 0.44009 0.0
C1442 C 0.6791 0.28578 0.41931 0.0
C1443 C 0.6718 0.27191 0.39455 0.0
C1444 C 0.64411 0.25818 0.39019 0.0
C1445 C 0.62367 0.25827 0.41061 0.0
C1446 C 0.63088 0.27202 0.43545 0.0
C1447 C 0.6432 0.40097 0.49846 0.0
C1448 C 0.61367 0.39557 0.50121 0.0
C1449 C 0.65756 0.38136 0.49794 0.0
C1450 C 0.64254 0.35625 0.50036 0.0
C1451 C 0.61322 0.35087 0.50423 0.0
C1452 C 0.59882 0.3705 0.50477 0.0
C1453 C 0.65734 0.33554 0.49651 0.0
C1454 C 0.64988 0.31897 0.47355 0.0
C1455 C 0.68066 0.33397 0.51313 0.0
C1456 C 0.68944 0.35113 0.53767 0.0
C1457 C 0.66951 0.35523 0.55755 0.0
C1458 C 0.67782 0.37208 0.57999 0.0
C1459 C 0.70618 0.38433 0.58338 0.0
C1460 C 0.72625 0.38004 0.56405 0.0
C1461 C 0.71796 0.36364 0.54121 0.0
H1462 H 0.71257 0.39721 0.60093 0.0
H1463 H 0.63848 0.24755 0.37096 0.0
loop_
_geom_bond_atom_site_label_1
_geom_bond_atom_site_label_2
_geom_bond_distance
_geom_bond_site_symmetry_2
_ccdc_geom_bond_type
H0 C7 0.929 . S
H1 C10 0.930 . S
H2 C12 0.929 . S
H3 C4 0.969 . S
C4 H3 0.969 . S
C4 O5 1.550 . S
C4 H6 0.973 . S
O5 C4 1.550 . S
O5 C11 1.412 . S
H6 C4 0.973 . S
C7 H0 0.929 . S
C7 C8 1.400 . S
C7 C9 1.364 . S
C8 C7 1.400 . S
C8 C12 1.377 . S
C9 C7 1.364 . S
C9 C10 1.374 . S
C10 H1 0.930 . S
C10 C9 1.374 . S
C10 C11 1.383 . S
C11 O5 1.412 . S
C11 C10 1.383 . S
C11 C12 1.394 . S
C12 H2 0.929 . S
C12 C8 1.377 . S
C12 C11 1.394 . S
H13 C20 0.929 . S
H14 C23 0.930 . S
H15 C25 0.929 . S
H16 C17 0.969 . S
C17 H16 0.969 . S
C17 O18 1.550 . S
C17 H19 0.973 . S
O18 C17 1.550 . S
O18 C24 1.412 . S
H19 C17 0.973 . S
C20 H13 0.929 . S
C20 C21 1.400 . S
C20 C22 1.364 . S
C21 C20 1.400 . S
C21 C25 1.377 . S
C22 C20 1.364 . S
C22 C23 1.374 . S
C23 H14 0.930 . S
C23 C22 1.374 . S
C23 C24 1.383 . S
C24 O18 1.412 . S
C24 C23 1.383 . S
C24 C25 1.394 . S
C25 H15 0.929 . S
C25 C21 1.377 . S
C25 C24 1.394 . S
H26 C33 0.929 . S
H27 C36 0.930 . S
H28 C38 0.929 . S
H29 C30 0.969 . S
C30 H29 0.969 . S
C30 O31 1.550 . S
C30 H32 0.973 . S
O31 C30 1.550 . S
O31 C37 1.412 . S
H32 C30 0.973 . S
C33 H26 0.929 . S
C33 C34 1.400 . S
C33 C35 1.364 . S
C34 C33 1.400 . S
C34 C38 1.377 . S
C35 C33 1.364 . S
C35 C36 1.374 . S
C36 H27 0.930 . S
C36 C35 1.374 . S
C36 C37 1.383 . S
C37 O31 1.412 . S
C37 C36 1.383 . S
C37 C38 1.394 . S
C38 H28 0.929 . S
C38 C34 1.377 . S
C38 C37 1.394 . S
H39 C46 0.929 . S
H40 C49 0.930 . S
H41 C51 0.929 . S
H42 C43 0.969 . S
C43 H42 0.969 . S
C43 O44 1.550 . S
C43 H45 0.973 . S
O44 C43 1.550 . S
O44 C50 1.412 . S
H45 C43 0.973 . S
C46 H39 0.929 . S
C46 C47 1.400 . S
C46 C48 1.364 . S
C47 C46 1.400 . S
C47 C51 1.377 . S
C48 C46 1.364 . S
C48 C49 1.374 . S
C49 H40 0.930 . S
C49 C48 1.374 . S
C49 C50 1.383 . S
C50 O44 1.412 . S
C50 C49 1.383 . S
C50 C51 1.394 . S
C51 H41 0.929 . S
C51 C47 1.377 . S
C51 C50 1.394 . S
H52 C59 0.929 . S
H53 C62 0.930 . S
H54 C64 0.929 . S
H55 C56 0.969 . S
C56 H55 0.969 . S
C56 O57 1.550 . S
C56 H58 0.973 . S
O57 C56 1.550 . S
O57 C63 1.412 . S
H58 C56 0.973 . S
C59 H52 0.929 . S
C59 C60 1.400 . S
C59 C61 1.364 . S
C60 C59 1.400 . S
C60 C64 1.377 . S
C61 C59 1.364 . S
C61 C62 1.374 . S
C62 H53 0.930 . S
C62 C61 1.374 . S
C62 C63 1.383 . S
C63 O57 1.412 . S
C63 C62 1.383 . S
C63 C64 1.394 . S
C64 H54 0.929 . S
C64 C60 1.377 . S
C64 C63 1.394 . S
H65 C72 0.929 . S
H66 C75 0.930 . S
H67 C77 0.929 . S
H68 C69 0.969 . S
C69 H68 0.969 . S
C69 O70 1.550 . S
C69 H71 0.973 . S
O70 C69 1.550 . S
O70 C76 1.412 . S
H71 C69 0.973 . S
C72 H65 0.929 . S
C72 C73 1.400 . S
C72 C74 1.364 . S
C73 C72 1.400 . S
C73 C77 1.377 . S
C74 C72 1.364 . S
C74 C75 1.374 . S
C75 H66 0.930 . S
C75 C74 1.374 . S
C75 C76 1.383 . S
C76 O70 1.412 . S
C76 C75 1.383 . S
C76 C77 1.394 . S
C77 H67 0.929 . S
C77 C73 1.377 . S
C77 C76 1.394 . S
H78 C85 0.929 . S
H79 C88 0.930 . S
H80 C90 0.929 . S
H81 C82 0.969 . S
C82 H81 0.969 . S
C82 O83 1.550 . S
C82 H84 0.973 . S
O83 C82 1.550 . S
O83 C89 1.412 . S
H84 C82 0.973 . S
C85 H78 0.929 . S
C85 C86 1.400 . S
C85 C87 1.364 . S
C86 C85 1.400 . S
C86 C90 1.377 . S
C87 C85 1.364 . S
C87 C88 1.374 . S
C88 H79 0.930 . S
C88 C87 1.374 . S
C88 C89 1.383 . S
C89 O83 1.412 . S
C89 C88 1.383 . S
C89 C90 1.394 . S
C90 H80 0.929 . S
C90 C86 1.377 . S
C90 C89 1.394 . S
H91 C98 0.929 . S
H92 C101 0.930 . S
H93 C103 0.929 . S
H94 C95 0.969 . S
C95 H94 0.969 . S
C95 O96 1.550 . S
C95 H97 0.973 . S
O96 C95 1.550 . S
O96 C102 1.412 . S
H97 C95 0.973 . S
C98 H91 0.929 . S
C98 C99 1.400 . S
C98 C100 1.364 . S
C99 C98 1.400 . S
C99 C103 1.377 . S
C100 C98 1.364 . S
C100 C101 1.374 . S
C101 H92 0.930 . S
C101 C100 1.374 . S
C101 C102 1.383 . S
C102 O96 1.412 . S
C102 C101 1.383 . S
C102 C103 1.394 . S
C103 H93 0.929 . S
C103 C99 1.377 . S
C103 C102 1.394 . S
Sm104 C106 2.846 . S
Sm104 O124 2.543 . S
Sm104 O125 2.450 . S
Sm104 O126 2.681 . S
Sm104 O127 2.464 . S
Sm104 O128 2.396 . S
Sm104 O132 2.386 . S
Sm104 O135 2.408 1_545 S
Sm105 C115 2.846 1_445 S
Sm105 O126 2.386 . S
Sm105 O129 2.408 . S
Sm105 O130 2.543 1_445 S
Sm105 O131 2.450 1_445 S
Sm105 O132 2.681 . S
Sm105 O133 2.464 1_455 S
Sm105 O134 2.396 1_445 S
C106 Sm104 2.846 . S
C106 C107 1.506 . S
C106 O124 1.261 . S
C106 O125 1.242 . S
C107 C106 1.506 . S
C107 C108 1.358 . S
C107 C112 1.382 . S
C108 C107 1.358 . S
C108 C109 1.385 . S
C108 H136 0.930 . S
C109 C108 1.385 . S
C109 C110 1.395 . S
C109 H137 0.929 . S
C110 C109 1.395 . S
C110 C111 1.335 . S
C111 C110 1.335 . S
C111 C112 1.398 . S
C111 H138 0.930 . S
C112 C107 1.382 . S
C112 C111 1.398 . S
C112 H139 0.929 . S
C113 O126 1.271 1_565 S
C113 O127 1.251 1_565 S
C114 O128 1.252 . S
C114 O129 1.272 . S
C115 Sm105 2.846 1_665 S
C115 C116 1.506 . S
C115 O130 1.261 . S
C115 O131 1.242 . S
C116 C115 1.506 . S
C116 C117 1.358 . S
C116 C121 1.382 . S
C117 C116 1.358 . S
C117 C118 1.385 . S
C117 H140 0.930 . S
C118 C117 1.385 . S
C118 C119 1.395 . S
C118 H141 0.929 . S
C119 C118 1.395 . S
C119 C120 1.335 . S
C120 C119 1.335 . S
C120 C121 1.398 . S
C120 H142 0.930 . S
C121 C116 1.382 . S
C121 C120 1.398 . S
C121 H143 0.929 . S
C122 O132 1.271 1_655 S
C122 O133 1.251 . S
C123 O134 1.252 . S
C123 O135 1.272 1_655 S
O124 Sm104 2.543 . S
O124 C106 1.261 . S
O125 Sm104 2.450 . S
O125 C106 1.242 . S
O126 Sm104 2.681 . S
O126 Sm105 2.386 . S
O126 C113 1.271 1_545 S
O127 Sm104 2.464 . S
O127 C113 1.251 1_545 S
O128 Sm104 2.396 . S
O128 C114 1.252 . S
O129 Sm105 2.408 . S
O129 C114 1.272 . S
O130 Sm105 2.543 1_665 S
O130 C115 1.261 . S
O131 Sm105 2.450 1_665 S
O131 C115 1.242 . S
O132 Sm104 2.386 . S
O132 Sm105 2.681 . S
O132 C122 1.271 1_455 S
O133 Sm105 2.464 1_655 S
O133 C122 1.251 . S
O134 Sm105 2.396 1_665 S
O134 C123 1.252 . S
O135 Sm104 2.408 1_565 S
O135 C123 1.272 1_455 S
H136 C108 0.930 . S
H137 C109 0.929 . S
H138 C111 0.930 . S
H139 C112 0.929 . S
H140 C117 0.930 . S
H141 C118 0.929 . S
H142 C120 0.930 . S
H143 C121 0.929 . S
Sm144 C146 2.846 . S
Sm144 O164 2.543 . S
Sm144 O165 2.450 . S
Sm144 O166 2.681 1_545 S
Sm144 O167 2.464 1_545 S
Sm144 O168 2.396 . S
Sm144 O172 2.386 . S
Sm144 O175 2.408 1_544 S
Sm145 C155 2.846 1_545 S
Sm145 O166 2.386 1_546 S
Sm145 O169 2.408 1_556 S
Sm145 O170 2.543 1_545 S
Sm145 O171 2.449 1_545 S
Sm145 O172 2.681 1_556 S
Sm145 O173 2.464 . S
Sm145 O174 2.396 1_545 S
C146 Sm144 2.846 . S
C146 C147 1.506 . S
C146 O164 1.261 . S
C146 O165 1.242 . S
C147 C146 1.506 . S
C147 C148 1.358 . S
C147 C152 1.382 . S
C148 C147 1.358 . S
C148 C149 1.385 . S
C148 H176 0.930 . S
C149 C148 1.385 . S
C149 C150 1.395 . S
C149 H177 0.929 . S
C150 C149 1.395 . S
C150 C151 1.335 . S
C151 C150 1.335 . S
C151 C152 1.398 . S
C151 H178 0.930 . S
C152 C147 1.382 . S
C152 C151 1.398 . S
C152 H179 0.929 . S
C153 O166 1.271 . S
C153 O167 1.251 . S
C154 O168 1.252 . S
C154 O169 1.272 . S
C155 Sm145 2.846 1_565 S
C155 C156 1.506 . S
C155 O170 1.261 . S
C155 O171 1.250 . S
C156 C155 1.506 . S
C156 C157 1.358 . S
C156 C161 1.382 . S
C157 C156 1.358 . S
C157 C158 1.385 . S
C157 H180 0.930 . S
C158 C157 1.385 . S
C158 C159 1.395 . S
C158 H181 0.929 . S
C159 C158 1.395 . S
C159 C160 1.335 . S
C160 C159 1.335 . S
C160 C161 1.398 . S
C160 H182 0.930 . S
C161 C156 1.382 . S
C161 C160 1.398 . S
C161 H183 0.929 . S
C162 O172 1.271 1_556 S
C162 O173 1.251 . S
C163 O174 1.252 . S
C163 O175 1.272 . S
O164 Sm144 2.543 . S
O164 C146 1.261 . S
O165 Sm144 2.450 . S
O165 C146 1.242 . S
O166 Sm144 2.681 1_565 S
O166 Sm145 2.386 1_564 S
O166 C153 1.271 . S
O167 Sm144 2.464 1_565 S
O167 C153 1.251 . S
O168 Sm144 2.396 . S
O168 C154 1.252 . S
O169 Sm145 2.408 1_554 S
O169 C154 1.272 . S
O170 Sm145 2.543 1_565 S
O170 C155 1.261 . S
O171 Sm145 2.449 1_565 S
O171 C155 1.250 . S
O172 Sm144 2.386 . S
O172 Sm145 2.681 1_554 S
O172 C162 1.271 1_554 S
O173 Sm145 2.464 . S
O173 C162 1.251 . S
O174 Sm145 2.396 1_565 S
O174 C163 1.252 . S
O175 Sm144 2.408 1_566 S
O175 C163 1.272 . S
H176 C148 0.930 . S
H177 C149 0.929 . S
H178 C151 0.930 . S
H179 C152 0.929 . S
H180 C157 0.930 . S
H181 C158 0.929 . S
H182 C160 0.930 . S
H183 C161 0.929 . S
Sm184 C186 2.846 . S
Sm184 O204 2.543 . S
Sm184 O205 2.450 . S
Sm184 O206 2.681 . S
Sm184 O207 2.464 . S
Sm184 O208 2.396 . S
Sm184 O212 2.386 . S
Sm184 O215 2.408 . S
Sm185 C195 2.846 . S
Sm185 O206 2.386 . S
Sm185 O209 2.408 . S
Sm185 O210 2.543 . S
Sm185 O211 2.450 . S
Sm185 O212 2.681 . S
Sm185 O213 2.464 . S
Sm185 O214 2.396 . S
C186 Sm184 2.846 . S
C186 C187 1.506 . S
C186 O204 1.261 . S
C186 O205 1.242 . S
C187 C186 1.506 . S
C187 C188 1.358 . S
C187 C192 1.382 . S
C188 C187 1.358 . S
C188 C189 1.385 . S
C188 H216 0.930 . S
C189 C188 1.385 . S
C189 C190 1.395 . S
C189 H217 0.929 . S
C190 C189 1.395 . S
C190 C191 1.335 . S
C191 C190 1.335 . S
C191 C192 1.398 . S
C191 H218 0.930 . S
C192 C187 1.382 . S
C192 C191 1.398 . S
C192 H219 0.929 . S
C193 O206 1.271 . S
C193 O207 1.251 . S
C194 O208 1.252 . S
C194 O209 1.272 . S
C195 Sm185 2.846 . S
C195 C196 1.506 . S
C195 O210 1.261 . S
C195 O211 1.242 . S
C196 C195 1.506 . S
C196 C197 1.358 . S
C196 C201 1.382 . S
C197 C196 1.358 . S
C197 C198 1.385 . S
C197 H220 0.930 . S
C198 C197 1.385 . S
C198 C199 1.395 . S
C198 H221 0.929 . S
C199 C198 1.395 . S
C199 C200 1.335 . S
C200 C199 1.335 . S
C200 C201 1.398 . S
C200 H222 0.930 . S
C201 C196 1.382 . S
C201 C200 1.398 . S
C201 H223 0.929 . S
C202 O212 1.271 . S
C202 O213 1.251 . S
C203 O214 1.252 . S
C203 O215 1.272 . S
O204 Sm184 2.543 . S
O204 C186 1.261 . S
O205 Sm184 2.450 . S
O205 C186 1.242 . S
O206 Sm184 2.681 . S
O206 Sm185 2.386 . S
O206 C193 1.271 . S
O207 Sm184 2.464 . S
O207 C193 1.251 . S
O208 Sm184 2.396 . S
O208 C194 1.252 . S
O209 Sm185 2.408 . S
O209 C194 1.272 . S
O210 Sm185 2.543 . S
O210 C195 1.261 . S
O211 Sm185 2.450 . S
O211 C195 1.242 . S
O212 Sm184 2.386 . S
O212 Sm185 2.681 . S
O212 C202 1.271 . S
O213 Sm185 2.464 . S
O213 C202 1.251 . S
O214 Sm185 2.396 . S
O214 C203 1.252 . S
O215 Sm184 2.408 . S
O215 C203 1.272 . S
H216 C188 0.930 . S
H217 C189 0.929 . S
H218 C191 0.930 . S
H219 C192 0.929 . S
H220 C197 0.930 . S
H221 C198 0.929 . S
H222 C200 0.930 . S
H223 C201 0.929 . S
Sm224 C226 2.846 . S
Sm224 O244 2.543 . S
Sm224 O245 2.450 . S
Sm224 O246 2.681 . S
Sm224 O247 2.464 . S
Sm224 O248 2.396 . S
Sm224 O252 2.386 . S
Sm224 O255 2.408 1_455 S
Sm225 C235 2.846 1_454 S
Sm225 O246 2.386 . S
Sm225 O249 2.408 . S
Sm225 O250 2.543 1_455 S
Sm225 O251 2.450 1_554 S
Sm225 O252 2.681 . S
Sm225 O253 2.464 1_554 S
Sm225 O254 2.405 1_455 S
C226 Sm224 2.846 . S
C226 C227 1.506 . S
C226 O244 1.261 . S
C226 O245 1.242 . S
C227 C226 1.506 . S
C227 C228 1.358 . S
C227 C232 1.382 . S
C228 C227 1.358 . S
C228 C229 1.385 . S
C228 H256 0.930 . S
C229 C228 1.385 . S
C229 C230 1.395 . S
C229 H257 0.929 . S
C230 C229 1.395 . S
C230 C231 1.335 . S
C231 C230 1.335 . S
C231 C232 1.398 . S
C231 H258 0.930 . S
C232 C227 1.382 . S
C232 C231 1.398 . S
C232 H259 0.929 . S
C233 O246 1.271 . S
C233 O247 1.251 . S
C234 O248 1.252 . S
C234 O249 1.272 . S
C235 Sm225 2.846 1_656 S
C235 C236 1.506 . S
C235 O250 1.261 1_556 S
C235 O251 1.242 1_655 S
C236 C235 1.506 . S
C236 C237 1.358 . S
C236 C241 1.382 . S
C237 C236 1.358 . S
C237 C238 1.385 . S
C237 H260 0.930 1_556 S
C238 C237 1.385 . S
C238 C239 1.395 . S
C238 H261 0.929 . S
C239 C238 1.395 . S
C239 C240 1.335 . S
C240 C239 1.335 . S
C240 C241 1.398 . S
C240 H262 0.930 . S
C241 C236 1.382 . S
C241 C240 1.398 . S
C241 H263 0.929 . S
C242 O252 1.271 1_556 S
C242 O253 1.251 . S
C243 O254 1.270 . S
C243 O255 1.272 . S
O244 Sm224 2.543 . S
O244 C226 1.261 . S
O245 Sm224 2.450 . S
O245 C226 1.242 . S
O246 Sm224 2.681 . S
O246 Sm225 2.386 . S
O246 C233 1.271 . S
O247 Sm224 2.464 . S
O247 C233 1.251 . S
O248 Sm224 2.396 . S
O248 C234 1.252 . S
O249 Sm225 2.408 . S
O249 C234 1.272 . S
O250 Sm225 2.543 1_655 S
O250 C235 1.261 1_554 S
O251 Sm225 2.450 1_556 S
O251 C235 1.242 1_455 S
O252 Sm224 2.386 . S
O252 Sm225 2.681 . S
O252 C242 1.271 1_554 S
O253 Sm225 2.464 1_556 S
O253 C242 1.251 . S
O254 Sm225 2.405 1_655 S
O254 C243 1.270 . S
O255 Sm224 2.408 1_655 S
O255 C243 1.272 . S
H256 C228 0.930 . S
H257 C229 0.929 . S
H258 C231 0.930 . S
H259 C232 0.929 . S
H260 C237 0.930 1_554 S
H261 C238 0.929 . S
H262 C240 0.930 . S
H263 C241 0.929 . S
H264 C282 0.951 . S
H265 C284 0.951 . S
H266 C286 0.950 . S
H267 C287 0.950 . S
H268 C289 0.950 . S
H269 C292 0.950 . S
H270 C293 0.950 . S
H271 C295 0.950 . S
H272 C296 0.950 . S
H273 C297 0.951 . S
H274 C299 0.951 . S
H275 C301 0.950 . S
H276 C302 0.950 . S
H277 C304 0.950 . S
H278 C307 0.950 . S
H279 C308 0.950 . S
H280 C310 0.950 . S
H281 C311 0.950 . S
C282 H264 0.951 . S
C282 C283 1.366 . S
C282 C284 1.388 . S
C283 C282 1.366 . S
C283 C287 1.385 . S
C284 H265 0.951 . S
C284 C282 1.388 . S
C284 C285 1.366 . S
C285 C284 1.366 . S
C285 C286 1.414 . S
C285 C288 1.499 . S
C286 H266 0.950 . S
C286 C285 1.414 . S
C286 C287 1.374 . S
C287 H267 0.950 . S
C287 C283 1.385 . S
C287 C286 1.374 . S
C288 C285 1.499 . S
C288 C289 1.373 . S
C288 C290 1.389 . S
C289 H268 0.950 . S
C289 C288 1.373 . S
C289 C305 1.377 . S
C290 C288 1.389 . S
C290 C291 1.524 . S
C290 C304 1.377 . S
C291 C290 1.524 . S
C291 C292 1.397 . S
C291 C296 1.363 . S
C292 H269 0.950 . S
C292 C291 1.397 . S
C292 C293 1.334 . S
C293 H270 0.950 . S
C293 C292 1.334 . S
C293 C294 1.287 . S
C294 C293 1.287 . S
C294 C295 1.524 . S
C294 H313 0.913 . S
C295 H271 0.950 . S
C295 C294 1.524 . S
C295 C296 1.415 . S
C296 H272 0.950 . S
C296 C291 1.363 . S
C296 C295 1.415 . S
C297 H273 0.951 . S
C297 C298 1.366 . S
C297 C299 1.388 . S
C298 C297 1.366 . S
C298 C302 1.385 . S
C299 H274 0.951 . S
C299 C297 1.388 . S
C299 C300 1.366 . S
C300 C299 1.366 . S
C300 C301 1.414 . S
C300 C303 1.499 . S
C301 H275 0.950 . S
C301 C300 1.414 . S
C301 C302 1.374 . S
C302 H276 0.950 . S
C302 C298 1.385 . S
C302 C301 1.374 . S
C303 C300 1.499 . S
C303 C304 1.373 . S
C303 C305 1.389 . S
C304 H277 0.950 . S
C304 C290 1.377 . S
C304 C303 1.373 . S
C305 C289 1.377 . S
C305 C303 1.389 . S
C305 C306 1.524 . S
C306 C305 1.524 . S
C306 C307 1.397 . S
C306 C311 1.363 . S
C307 H278 0.950 . S
C307 C306 1.397 . S
C307 C308 1.334 . S
C308 H279 0.950 . S
C308 C307 1.334 . S
C308 C309 1.287 . S
C309 C308 1.287 . S
C309 C310 1.524 . S
C309 H312 0.999 . S
C310 H280 0.950 . S
C310 C309 1.524 . S
C310 C311 1.415 . S
C311 H281 0.950 . S
C311 C306 1.363 . S
C311 C310 1.415 . S
H312 C309 0.999 . S
H313 C294 0.913 . S
H314 C332 0.951 . S
H315 C334 0.951 . S
H316 C336 0.950 . S
H317 C337 0.950 . S
H318 C339 0.950 . S
H319 C342 0.950 . S
H320 C343 0.950 . S
H321 C345 0.950 . S
H322 C346 0.950 . S
H323 C347 0.951 . S
H324 C349 0.951 . S
H325 C351 0.950 . S
H326 C352 0.950 . S
H327 C354 0.950 . S
H328 C357 0.950 . S
H329 C358 0.950 . S
H330 C360 0.950 . S
H331 C361 0.950 . S
C332 H314 0.951 . S
C332 C333 1.366 . S
C332 C334 1.388 . S
C333 C332 1.366 . S
C333 C337 1.385 . S
C334 H315 0.951 . S
C334 C332 1.388 . S
C334 C335 1.366 . S
C335 C334 1.366 . S
C335 C336 1.414 . S
C335 C338 1.499 . S
C336 H316 0.950 . S
C336 C335 1.414 . S
C336 C337 1.374 . S
C337 H317 0.950 . S
C337 C333 1.385 . S
C337 C336 1.374 . S
C338 C335 1.499 . S
C338 C339 1.373 . S
C338 C340 1.389 . S
C339 H318 0.950 . S
C339 C338 1.373 . S
C339 C355 1.377 . S
C340 C338 1.389 . S
C340 C341 1.524 . S
C340 C354 1.377 . S
C341 C340 1.524 . S
C341 C342 1.397 . S
C341 C346 1.363 . S
C342 H319 0.950 . S
C342 C341 1.397 . S
C342 C343 1.334 . S
C343 H320 0.950 . S
C343 C342 1.334 . S
C343 C344 1.287 . S
C344 C343 1.287 . S
C344 C345 1.524 . S
C344 H363 0.913 . S
C345 H321 0.950 . S
C345 C344 1.524 . S
C345 C346 1.415 . S
C346 H322 0.950 . S
C346 C341 1.363 . S
C346 C345 1.415 . S
C347 H323 0.951 . S
C347 C348 1.366 . S
C347 C349 1.388 . S
C348 C347 1.366 . S
C348 C352 1.385 . S
C349 H324 0.951 . S
C349 C347 1.388 . S
C349 C350 1.366 . S
C350 C349 1.366 . S
C350 C351 1.414 . S
C350 C353 1.499 . S
C351 H325 0.950 . S
C351 C350 1.414 . S
C351 C352 1.374 . S
C352 H326 0.950 . S
C352 C348 1.385 . S
C352 C351 1.374 . S
C353 C350 1.499 . S
C353 C354 1.373 . S
C353 C355 1.389 . S
C354 H327 0.950 . S
C354 C340 1.377 . S
C354 C353 1.373 . S
C355 C339 1.377 . S
C355 C353 1.389 . S
C355 C356 1.524 . S
C356 C355 1.524 . S
C356 C357 1.397 . S
C356 C361 1.363 . S
C357 H328 0.950 . S
C357 C356 1.397 . S
C357 C358 1.334 . S
C358 H329 0.950 . S
C358 C357 1.334 . S
C358 C359 1.287 . S
C359 C358 1.287 . S
C359 C360 1.524 . S
C359 H362 0.999 . S
C360 H330 0.950 . S
C360 C359 1.524 . S
C360 C361 1.415 . S
C361 H331 0.950 . S
C361 C356 1.363 . S
C361 C360 1.415 . S
H362 C359 0.999 . S
H363 C344 0.913 . S
H364 C382 0.951 . S
H365 C384 0.951 . S
H366 C386 0.950 . S
H367 C387 0.950 . S
H368 C389 0.950 . S
H369 C392 0.950 . S
H370 C393 0.950 . S
H371 C395 0.950 . S
H372 C396 0.950 . S
H373 C397 0.951 . S
H374 C399 0.951 . S
H375 C401 0.950 . S
H376 C402 0.950 . S
H377 C404 0.950 . S
H378 C407 0.950 . S
H379 C408 0.950 . S
H380 C410 0.950 . S
H381 C411 0.950 . S
C382 H364 0.951 . S
C382 C383 1.366 . S
C382 C384 1.388 . S
C383 C382 1.366 . S
C383 C387 1.385 . S
C384 H365 0.951 . S
C384 C382 1.388 . S
C384 C385 1.366 . S
C385 C384 1.366 . S
C385 C386 1.414 . S
C385 C388 1.499 . S
C386 H366 0.950 . S
C386 C385 1.414 . S
C386 C387 1.374 . S
C387 H367 0.950 . S
C387 C383 1.385 . S
C387 C386 1.374 . S
C388 C385 1.499 . S
C388 C389 1.373 . S
C388 C390 1.389 . S
C389 H368 0.950 . S
C389 C388 1.373 . S
C389 C405 1.377 . S
C390 C388 1.389 . S
C390 C391 1.524 . S
C390 C404 1.377 . S
C391 C390 1.524 . S
C391 C392 1.397 . S
C391 C396 1.363 . S
C392 H369 0.950 . S
C392 C391 1.397 . S
C392 C393 1.334 . S
C393 H370 0.950 . S
C393 C392 1.334 . S
C393 C394 1.287 . S
C394 C393 1.287 . S
C394 C395 1.524 . S
C394 H413 0.913 . S
C395 H371 0.950 . S
C395 C394 1.524 . S
C395 C396 1.415 . S
C396 H372 0.950 . S
C396 C391 1.363 . S
C396 C395 1.415 . S
C397 H373 0.951 . S
C397 C398 1.366 . S
C397 C399 1.388 . S
C398 C397 1.366 . S
C398 C402 1.385 . S
C399 H374 0.951 . S
C399 C397 1.388 . S
C399 C400 1.366 . S
C400 C399 1.366 . S
C400 C401 1.414 . S
C400 C403 1.499 . S
C401 H375 0.950 . S
C401 C400 1.414 . S
C401 C402 1.374 . S
C402 H376 0.950 . S
C402 C398 1.385 . S
C402 C401 1.374 . S
C403 C400 1.499 . S
C403 C404 1.373 . S
C403 C405 1.389 . S
C404 H377 0.950 . S
C404 C390 1.377 . S
C404 C403 1.373 . S
C405 C389 1.377 . S
C405 C403 1.389 . S
C405 C406 1.524 . S
C406 C405 1.524 . S
C406 C407 1.397 . S
C406 C411 1.363 . S
C407 H378 0.950 . S
C407 C406 1.397 . S
C407 C408 1.334 . S
C408 H379 0.950 . S
C408 C407 1.334 . S
C408 C409 1.287 . S
C409 C408 1.287 . S
C409 C410 1.524 . S
C409 H412 0.999 . S
C410 H380 0.950 . S
C410 C409 1.524 . S
C410 C411 1.415 . S
C411 H381 0.950 . S
C411 C406 1.363 . S
C411 C410 1.415 . S
H412 C409 0.999 . S
H413 C394 0.913 . S
H414 C432 0.951 . S
H415 C434 0.951 . S
H416 C436 0.950 . S
H417 C437 0.950 . S
H418 C439 0.950 . S
H419 C442 0.950 . S
H420 C443 0.950 . S
H421 C445 0.950 . S
H422 C446 0.950 . S
H423 C447 0.951 . S
H424 C449 0.951 1_455 S
H425 C451 0.950 . S
H426 C452 0.950 . S
H427 C454 0.950 . S
H428 C457 0.950 . S
H429 C458 0.950 . S
H430 C460 0.950 . S
H431 C461 0.950 . S
C432 H414 0.951 . S
C432 C433 1.366 . S
C432 C434 1.388 . S
C433 C432 1.366 . S
C433 C437 1.385 . S
C434 H415 0.951 . S
C434 C432 1.388 . S
C434 C435 1.366 . S
C435 C434 1.366 . S
C435 C436 1.414 . S
C435 C438 1.499 . S
C436 H416 0.950 . S
C436 C435 1.414 . S
C436 C437 1.374 . S
C437 H417 0.950 . S
C437 C433 1.385 . S
C437 C436 1.374 . S
C438 C435 1.499 . S
C438 C439 1.373 . S
C438 C440 1.389 . S
C439 H418 0.950 . S
C439 C438 1.373 . S
C439 C455 1.377 . S
C440 C438 1.389 . S
C440 C441 1.524 . S
C440 C454 1.377 . S
C441 C440 1.524 . S
C441 C442 1.397 . S
C441 C446 1.363 . S
C442 H419 0.950 . S
C442 C441 1.397 . S
C442 C443 1.334 . S
C443 H420 0.950 . S
C443 C442 1.334 . S
C443 C444 1.287 . S
C444 C443 1.287 . S
C444 C445 1.524 . S
C444 H463 0.913 . S
C445 H421 0.950 . S
C445 C444 1.524 . S
C445 C446 1.415 . S
C446 H422 0.950 . S
C446 C441 1.363 . S
C446 C445 1.415 . S
C447 H423 0.951 . S
C447 C448 1.366 1_455 S
C447 C449 1.388 1_455 S
C448 C447 1.366 1_655 S
C448 C452 1.385 . S
C449 H424 0.951 1_655 S
C449 C447 1.388 1_655 S
C449 C450 1.366 . S
C450 C449 1.366 . S
C450 C451 1.414 . S
C450 C453 1.499 . S
C451 H425 0.950 . S
C451 C450 1.414 . S
C451 C452 1.374 . S
C452 H426 0.950 . S
C452 C448 1.385 . S
C452 C451 1.374 . S
C453 C450 1.499 . S
C453 C454 1.373 . S
C453 C455 1.389 . S
C454 H427 0.950 . S
C454 C440 1.377 . S
C454 C453 1.373 . S
C455 C439 1.377 . S
C455 C453 1.389 . S
C455 C456 1.524 . S
C456 C455 1.524 . S
C456 C457 1.397 . S
C456 C461 1.363 . S
C457 H428 0.950 . S
C457 C456 1.397 . S
C457 C458 1.334 . S
C458 H429 0.950 . S
C458 C457 1.334 . S
C458 C459 1.287 . S
C459 C458 1.287 . S
C459 C460 1.524 . S
C459 H462 0.999 . S
C460 H430 0.950 . S
C460 C459 1.524 . S
C460 C461 1.415 . S
C461 H431 0.950 . S
C461 C456 1.363 . S
C461 C460 1.415 . S
H462 C459 0.999 . S
H463 C444 0.913 . S
H464 C482 0.951 . S
H465 C484 0.951 . S
H466 C486 0.950 . S
H467 C487 0.950 . S
H468 C489 0.950 . S
H469 C492 0.950 . S
H470 C493 0.950 . S
H471 C495 0.950 . S
H472 C496 0.950 . S
H473 C497 0.951 . S
H474 C499 0.951 . S
H475 C501 0.950 . S
H476 C502 0.950 . S
H477 C504 0.950 . S
H478 C507 0.950 . S
H479 C508 0.950 . S
H480 C510 0.950 . S
H481 C511 0.950 . S
C482 H464 0.951 . S
C482 C483 1.366 . S
C482 C484 1.388 . S
C483 C482 1.366 . S
C483 C487 1.385 . S
C484 H465 0.951 . S
C484 C482 1.388 . S
C484 C485 1.366 . S
C485 C484 1.366 . S
C485 C486 1.414 . S
C485 C488 1.499 . S
C486 H466 0.950 . S
C486 C485 1.414 . S
C486 C487 1.374 . S
C487 H467 0.950 . S
C487 C483 1.385 . S
C487 C486 1.374 . S
C488 C485 1.499 . S
C488 C489 1.373 . S
C488 C490 1.389 . S
C489 H468 0.950 . S
C489 C488 1.373 . S
C489 C505 1.377 . S
C490 C488 1.389 . S
C490 C491 1.524 . S
C490 C504 1.377 . S
C491 C490 1.524 . S
C491 C492 1.397 . S
C491 C496 1.363 . S
C492 H469 0.950 . S
C492 C491 1.397 . S
C492 C493 1.334 . S
C493 H470 0.950 . S
C493 C492 1.334 . S
C493 C494 1.287 . S
C494 C493 1.287 . S
C494 C495 1.524 . S
C494 H513 0.913 . S
C495 H471 0.950 . S
C495 C494 1.524 . S
C495 C496 1.415 . S
C496 H472 0.950 . S
C496 C491 1.363 . S
C496 C495 1.415 . S
C497 H473 0.951 . S
C497 C498 1.366 . S
C497 C499 1.388 . S
C498 C497 1.366 . S
C498 C502 1.385 . S
C499 H474 0.951 . S
C499 C497 1.388 . S
C499 C500 1.366 . S
C500 C499 1.366 . S
C500 C501 1.414 . S
C500 C503 1.499 . S
C501 H475 0.950 . S
C501 C500 1.414 . S
C501 C502 1.374 . S
C502 H476 0.950 . S
C502 C498 1.385 . S
C502 C501 1.374 . S
C503 C500 1.499 . S
C503 C504 1.373 . S
C503 C505 1.389 . S
C504 H477 0.950 . S
C504 C490 1.377 . S
C504 C503 1.373 . S
C505 C489 1.377 . S
C505 C503 1.389 . S
C505 C506 1.524 . S
C506 C505 1.524 . S
C506 C507 1.397 . S
C506 C511 1.363 . S
C507 H478 0.950 . S
C507 C506 1.397 . S
C507 C508 1.334 . S
C508 H479 0.950 . S
C508 C507 1.334 . S
C508 C509 1.287 . S
C509 C508 1.287 . S
C509 C510 1.524 . S
C509 H512 0.999 . S
C510 H480 0.950 . S
C510 C509 1.524 . S
C510 C511 1.415 . S
C511 H481 0.950 . S
C511 C506 1.363 . S
C511 C510 1.415 . S
H512 C509 0.999 . S
H513 C494 0.913 . S
H514 C532 0.951 . S
H515 C534 0.951 . S
H516 C536 0.950 . S
H517 C537 0.950 . S
H518 C539 0.950 . S
H519 C542 0.950 . S
H520 C543 0.950 . S
H521 C545 0.950 . S
H522 C546 0.950 . S
H523 C547 0.951 1_545 S
H524 C549 0.951 . S
H525 C551 0.950 . S
H526 C552 0.950 . S
H527 C554 0.950 . S
H528 C557 0.950 . S
H529 C558 0.950 . S
H530 C560 0.950 . S
H531 C561 0.950 . S
C532 H514 0.951 . S
C532 C533 1.366 . S
C532 C534 1.388 . S
C533 C532 1.366 . S
C533 C537 1.385 . S
C534 H515 0.951 . S
C534 C532 1.388 . S
C534 C535 1.366 . S
C535 C534 1.366 . S
C535 C536 1.414 . S
C535 C538 1.499 . S
C536 H516 0.950 . S
C536 C535 1.414 . S
C536 C537 1.374 . S
C537 H517 0.950 . S
C537 C533 1.385 . S
C537 C536 1.374 . S
C538 C535 1.499 . S
C538 C539 1.373 . S
C538 C540 1.389 . S
C539 H518 0.950 . S
C539 C538 1.373 . S
C539 C555 1.377 . S
C540 C538 1.389 . S
C540 C541 1.524 . S
C540 C554 1.377 . S
C541 C540 1.524 . S
C541 C542 1.397 . S
C541 C546 1.363 . S
C542 H519 0.950 . S
C542 C541 1.397 . S
C542 C543 1.334 . S
C543 H520 0.950 . S
C543 C542 1.334 . S
C543 C544 1.287 . S
C544 C543 1.287 . S
C544 C545 1.524 . S
C544 H563 0.913 . S
C545 H521 0.950 . S
C545 C544 1.524 . S
C545 C546 1.415 . S
C546 H522 0.950 . S
C546 C541 1.363 . S
C546 C545 1.415 . S
C547 H523 0.951 1_565 S
C547 C548 1.366 . S
C547 C549 1.388 . S
C548 C547 1.366 . S
C548 C552 1.385 . S
C549 H524 0.951 . S
C549 C547 1.388 . S
C549 C550 1.366 . S
C550 C549 1.366 . S
C550 C551 1.414 . S
C550 C553 1.499 . S
C551 H525 0.950 . S
C551 C550 1.414 . S
C551 C552 1.374 . S
C552 H526 0.950 . S
C552 C548 1.385 . S
C552 C551 1.374 . S
C553 C550 1.499 . S
C553 C554 1.373 . S
C553 C555 1.389 . S
C554 H527 0.950 . S
C554 C540 1.377 . S
C554 C553 1.373 . S
C555 C539 1.377 . S
C555 C553 1.389 . S
C555 C556 1.524 . S
C556 C555 1.524 . S
C556 C557 1.397 . S
C556 C561 1.363 . S
C557 H528 0.950 . S
C557 C556 1.397 . S
C557 C558 1.334 . S
C558 H529 0.950 . S
C558 C557 1.334 . S
C558 C559 1.287 1_565 S
C559 C558 1.287 1_545 S
C559 C560 1.524 . S
C559 H562 0.999 . S
C560 H530 0.950 . S
C560 C559 1.524 . S
C560 C561 1.415 1_545 S
C561 H531 0.950 . S
C561 C556 1.363 . S
C561 C560 1.415 1_565 S
H562 C559 0.999 . S
H563 C544 0.913 . S
H564 C582 0.951 . S
H565 C584 0.951 . S
H566 C586 0.950 . S
H567 C587 0.950 . S
H568 C589 0.950 . S
H569 C592 0.950 . S
H570 C593 0.950 . S
H571 C595 0.950 1_554 S
H572 C596 0.950 . S
H573 C597 0.951 . S
H574 C599 0.951 . S
H575 C601 0.950 . S
H576 C602 0.932 1_554 S
H577 C604 0.950 . S
H578 C607 0.950 . S
H579 C608 0.950 . S
H580 C610 0.950 . S
H581 C611 0.950 . S
C582 H564 0.951 . S
C582 C583 1.366 . S
C582 C584 1.388 . S
C583 C582 1.366 . S
C583 C587 1.385 . S
C584 H565 0.951 . S
C584 C582 1.388 . S
C584 C585 1.366 . S
C585 C584 1.366 . S
C585 C586 1.414 . S
C585 C588 1.499 . S
C586 H566 0.950 . S
C586 C585 1.414 . S
C586 C587 1.374 . S
C587 H567 0.950 . S
C587 C583 1.385 . S
C587 C586 1.374 . S
C588 C585 1.499 . S
C588 C589 1.373 . S
C588 C590 1.389 . S
C589 H568 0.950 . S
C589 C588 1.373 . S
C589 C605 1.377 . S
C590 C588 1.389 . S
C590 C591 1.524 . S
C590 C604 1.377 . S
C591 C590 1.524 . S
C591 C592 1.397 . S
C591 C596 1.363 . S
C592 H569 0.950 . S
C592 C591 1.397 . S
C592 C593 1.334 . S
C593 H570 0.950 . S
C593 C592 1.334 . S
C593 C594 1.287 . S
C594 C593 1.287 . S
C594 C595 1.524 . S
C594 H613 0.927 . S
C595 H571 0.950 1_556 S
C595 C594 1.524 . S
C595 C596 1.415 . S
C596 H572 0.950 . S
C596 C591 1.363 . S
C596 C595 1.415 . S
C597 H573 0.951 . S
C597 C598 1.346 1_556 S
C597 C599 1.388 . S
C598 C597 1.346 1_554 S
C598 C602 1.384 1_554 S
C599 H574 0.951 . S
C599 C597 1.388 . S
C599 C600 1.366 . S
C600 C599 1.366 . S
C600 C601 1.414 . S
C600 C603 1.499 . S
C601 H575 0.950 . S
C601 C600 1.414 . S
C601 C602 1.394 . S
C602 H576 0.932 1_556 S
C602 C598 1.384 1_556 S
C602 C601 1.394 . S
C603 C600 1.499 . S
C603 C604 1.373 . S
C603 C605 1.389 . S
C604 H577 0.950 . S
C604 C590 1.377 . S
C604 C603 1.373 . S
C605 C589 1.377 . S
C605 C603 1.389 . S
C605 C606 1.524 . S
C606 C605 1.524 . S
C606 C607 1.397 . S
C606 C611 1.363 . S
C607 H578 0.950 . S
C607 C606 1.397 . S
C607 C608 1.334 . S
C608 H579 0.950 . S
C608 C607 1.334 . S
C608 C609 1.287 . S
C609 C608 1.287 . S
C609 C610 1.524 . S
C609 H612 0.999 . S
C610 H580 0.950 . S
C610 C609 1.524 . S
C610 C611 1.415 . S
C611 H581 0.950 . S
C611 C606 1.363 . S
C611 C610 1.415 . S
H612 C609 0.999 . S
H613 C594 0.927 . S
H614 C632 0.951 . S
H615 C634 0.951 . S
H616 C636 0.950 . S
H617 C637 0.950 . S
H618 C639 0.950 . S
H619 C642 0.950 . S
H620 C643 0.950 . S
H621 C645 0.950 . S
H622 C646 0.950 . S
H623 C647 0.951 . S
H624 C649 0.951 . S
H625 C651 0.950 . S
H626 C652 0.950 . S
H627 C654 0.950 . S
H628 C657 0.950 . S
H629 C658 0.950 . S
H630 C660 0.950 . S
H631 C661 0.950 . S
C632 H614 0.951 . S
C632 C633 1.366 . S
C632 C634 1.388 . S
C633 C632 1.366 . S
C633 C637 1.385 . S
C634 H615 0.951 . S
C634 C632 1.388 . S
C634 C635 1.366 . S
C635 C634 1.366 . S
C635 C636 1.414 . S
C635 C638 1.499 . S
C636 H616 0.950 . S
C636 C635 1.414 . S
C636 C637 1.374 . S
C637 H617 0.950 . S
C637 C633 1.385 . S
C637 C636 1.374 . S
C638 C635 1.499 . S
C638 C639 1.373 . S
C638 C640 1.389 . S
C639 H618 0.950 . S
C639 C638 1.373 . S
C639 C655 1.377 . S
C640 C638 1.389 . S
C640 C641 1.524 . S
C640 C654 1.377 . S
C641 C640 1.524 . S
C641 C642 1.397 . S
C641 C646 1.363 . S
C642 H619 0.950 . S
C642 C641 1.397 . S
C642 C643 1.334 . S
C643 H620 0.950 . S
C643 C642 1.334 . S
C643 C644 1.287 . S
C644 C643 1.287 . S
C644 C645 1.524 . S
C644 H663 0.913 . S
C645 H621 0.950 . S
C645 C644 1.524 . S
C645 C646 1.415 . S
C646 H622 0.950 . S
C646 C641 1.363 . S
C646 C645 1.415 . S
C647 H623 0.951 . S
C647 C648 1.366 . S
C647 C649 1.388 . S
C648 C647 1.366 . S
C648 C652 1.385 . S
C649 H624 0.951 . S
C649 C647 1.388 . S
C649 C650 1.366 . S
C650 C649 1.366 . S
C650 C651 1.414 . S
C650 C653 1.499 . S
C651 H625 0.950 . S
C651 C650 1.414 . S
C651 C652 1.374 . S
C652 H626 0.950 . S
C652 C648 1.385 . S
C652 C651 1.374 . S
C653 C650 1.499 . S
C653 C654 1.373 . S
C653 C655 1.389 . S
C654 H627 0.950 . S
C654 C640 1.377 . S
C654 C653 1.373 . S
C655 C639 1.377 . S
C655 C653 1.389 . S
C655 C656 1.524 . S
C656 C655 1.524 . S
C656 C657 1.397 . S
C656 C661 1.363 . S
C657 H628 0.950 . S
C657 C656 1.397 . S
C657 C658 1.334 . S
C658 H629 0.950 . S
C658 C657 1.334 . S
C658 C659 1.287 . S
C659 C658 1.287 . S
C659 C660 1.524 . S
C659 H662 0.999 . S
C660 H630 0.950 . S
C660 C659 1.524 . S
C660 C661 1.415 . S
C661 H631 0.950 . S
C661 C656 1.363 . S
C661 C660 1.415 . S
H662 C659 0.999 . S
H663 C644 0.913 . S
H664 C682 0.951 . S
H665 C684 0.951 . S
H666 C686 0.950 . S
H667 C687 0.950 . S
H668 C689 0.950 . S
H669 C692 0.950 . S
H670 C693 0.950 . S
H671 C695 0.950 . S
H672 C696 0.950 . S
H673 C697 0.951 . S
H674 C699 0.951 . S
H675 C701 0.950 . S
H676 C702 0.950 . S
H677 C704 0.950 . S
H678 C707 0.950 . S
H679 C708 0.950 . S
H680 C710 0.950 . S
H681 C711 0.950 . S
C682 H664 0.951 . S
C682 C683 1.366 . S
C682 C684 1.388 . S
C683 C682 1.366 . S
C683 C687 1.385 . S
C684 H665 0.951 . S
C684 C682 1.388 . S
C684 C685 1.366 . S
C685 C684 1.366 . S
C685 C686 1.414 . S
C685 C688 1.499 . S
C686 H666 0.950 . S
C686 C685 1.414 . S
C686 C687 1.374 . S
C687 H667 0.950 . S
C687 C683 1.385 . S
C687 C686 1.374 . S
C688 C685 1.499 . S
C688 C689 1.373 . S
C688 C690 1.389 . S
C689 H668 0.950 . S
C689 C688 1.373 . S
C689 C705 1.377 . S
C690 C688 1.389 . S
C690 C691 1.524 . S
C690 C704 1.377 . S
C691 C690 1.524 . S
C691 C692 1.397 . S
C691 C696 1.363 . S
C692 H669 0.950 . S
C692 C691 1.397 . S
C692 C693 1.334 . S
C693 H670 0.950 . S
C693 C692 1.334 . S
C693 C694 1.287 . S
C694 C693 1.287 . S
C694 C695 1.524 . S
C694 H713 0.913 . S
C695 H671 0.950 . S
C695 C694 1.524 . S
C695 C696 1.415 . S
C696 H672 0.950 . S
C696 C691 1.363 . S
C696 C695 1.415 . S
C697 H673 0.951 . S
C697 C698 1.366 . S
C697 C699 1.388 . S
C698 C697 1.366 . S
C698 C702 1.385 . S
C699 H674 0.951 . S
C699 C697 1.388 . S
C699 C700 1.366 . S
C700 C699 1.366 . S
C700 C701 1.414 . S
C700 C703 1.499 . S
C701 H675 0.950 . S
C701 C700 1.414 . S
C701 C702 1.374 . S
C702 H676 0.950 . S
C702 C698 1.385 . S
C702 C701 1.374 . S
C703 C700 1.499 . S
C703 C704 1.373 . S
C703 C705 1.389 . S
C704 H677 0.950 . S
C704 C690 1.377 . S
C704 C703 1.373 . S
C705 C689 1.377 . S
C705 C703 1.389 . S
C705 C706 1.524 . S
C706 C705 1.524 . S
C706 C707 1.397 . S
C706 C711 1.363 . S
C707 H678 0.950 . S
C707 C706 1.397 . S
C707 C708 1.334 . S
C708 H679 0.950 . S
C708 C707 1.334 . S
C708 C709 1.287 . S
C709 C708 1.287 . S
C709 C710 1.524 . S
C709 H712 0.999 . S
C710 H680 0.950 . S
C710 C709 1.524 . S
C710 C711 1.415 . S
C711 H681 0.950 . S
C711 C706 1.363 . S
C711 C710 1.415 . S
H712 C709 0.999 . S
H713 C694 0.913 . S
H714 C732 0.951 . S
H715 C734 0.951 . S
H716 C736 0.950 . S
H717 C737 0.950 . S
H718 C739 0.950 . S
H719 C742 0.950 . S
H720 C743 0.950 . S
H721 C745 0.950 1_554 S
H722 C746 0.950 . S
H723 C747 0.951 . S
H724 C749 0.951 . S
H725 C751 0.950 . S
H726 C752 0.950 . S
H727 C754 0.950 . S
H728 C757 0.950 . S
H729 C758 0.950 . S
H730 C760 0.950 . S
H731 C761 0.950 . S
C732 H714 0.951 . S
C732 C733 1.366 . S
C732 C734 1.388 . S
C733 C732 1.366 . S
C733 C737 1.385 . S
C734 H715 0.951 . S
C734 C732 1.388 . S
C734 C735 1.366 . S
C735 C734 1.366 . S
C735 C736 1.414 . S
C735 C738 1.499 . S
C736 H716 0.950 . S
C736 C735 1.414 . S
C736 C737 1.374 . S
C737 H717 0.950 . S
C737 C733 1.385 . S
C737 C736 1.374 . S
C738 C735 1.499 . S
C738 C739 1.373 . S
C738 C740 1.389 . S
C739 H718 0.950 . S
C739 C738 1.373 . S
C739 C755 1.377 . S
C740 C738 1.389 . S
C740 C741 1.524 . S
C740 C754 1.377 . S
C741 C740 1.524 . S
C741 C742 1.397 . S
C741 C746 1.363 . S
C742 H719 0.950 . S
C742 C741 1.397 . S
C742 C743 1.334 . S
C743 H720 0.950 . S
C743 C742 1.334 . S
C743 C744 1.287 . S
C744 C743 1.287 . S
C744 C745 1.524 . S
C744 H763 0.913 . S
C745 H721 0.950 1_556 S
C745 C744 1.524 . S
C745 C746 1.415 . S
C746 H722 0.950 . S
C746 C741 1.363 . S
C746 C745 1.415 . S
C747 H723 0.951 . S
C747 C748 1.366 . S
C747 C749 1.388 . S
C748 C747 1.366 . S
C748 C752 1.385 . S
C749 H724 0.951 . S
C749 C747 1.388 . S
C749 C750 1.366 . S
C750 C749 1.366 . S
C750 C751 1.414 . S
C750 C753 1.499 . S
C751 H725 0.950 . S
C751 C750 1.414 . S
C751 C752 1.374 . S
C752 H726 0.950 . S
C752 C748 1.385 . S
C752 C751 1.374 . S
C753 C750 1.499 . S
C753 C754 1.373 . S
C753 C755 1.389 . S
C754 H727 0.950 . S
C754 C740 1.377 . S
C754 C753 1.373 . S
C755 C739 1.377 . S
C755 C753 1.389 . S
C755 C756 1.524 . S
C756 C755 1.524 . S
C756 C757 1.397 . S
C756 C761 1.363 . S
C757 H728 0.950 . S
C757 C756 1.397 . S
C757 C758 1.334 . S
C758 H729 0.950 . S
C758 C757 1.334 . S
C758 C759 1.287 . S
C759 C758 1.287 . S
C759 C760 1.524 . S
C759 H762 0.999 . S
C760 H730 0.950 . S
C760 C759 1.524 . S
C760 C761 1.415 . S
C761 H731 0.950 . S
C761 C756 1.363 . S
C761 C760 1.415 . S
H762 C759 0.999 . S
H763 C744 0.913 . S
H764 C782 0.951 . S
H765 C784 0.951 . S
H766 C786 0.950 . S
H767 C787 0.950 . S
H768 C789 0.950 . S
H769 C792 0.950 . S
H770 C793 0.950 . S
H771 C795 0.950 . S
H772 C796 0.950 . S
H773 C797 0.951 1_455 S
H774 C799 0.951 . S
H775 C801 0.950 . S
H776 C802 0.950 . S
H777 C804 0.950 . S
H778 C807 0.950 . S
H779 C808 0.950 . S
H780 C810 0.950 . S
H781 C811 0.950 . S
C782 H764 0.951 . S
C782 C783 1.366 . S
C782 C784 1.388 . S
C783 C782 1.366 . S
C783 C787 1.385 . S
C784 H765 0.951 . S
C784 C782 1.388 . S
C784 C785 1.366 . S
C785 C784 1.366 . S
C785 C786 1.414 . S
C785 C788 1.499 . S
C786 H766 0.950 . S
C786 C785 1.414 . S
C786 C787 1.374 . S
C787 H767 0.950 . S
C787 C783 1.385 . S
C787 C786 1.374 . S
C788 C785 1.499 . S
C788 C789 1.373 . S
C788 C790 1.389 . S
C789 H768 0.950 . S
C789 C788 1.373 . S
C789 C805 1.377 . S
C790 C788 1.389 . S
C790 C791 1.524 . S
C790 C804 1.377 . S
C791 C790 1.524 . S
C791 C792 1.397 . S
C791 C796 1.363 . S
C792 H769 0.950 . S
C792 C791 1.397 . S
C792 C793 1.334 . S
C793 H770 0.950 . S
C793 C792 1.334 . S
C793 C794 1.287 . S
C794 C793 1.287 . S
C794 C795 1.524 . S
C794 H813 0.913 . S
C795 H771 0.950 . S
C795 C794 1.524 . S
C795 C796 1.415 . S
C796 H772 0.950 . S
C796 C791 1.363 . S
C796 C795 1.415 . S
C797 H773 0.951 1_655 S
C797 C798 1.366 . S
C797 C799 1.388 . S
C798 C797 1.366 . S
C798 C802 1.385 . S
C799 H774 0.951 . S
C799 C797 1.388 . S
C799 C800 1.366 . S
C800 C799 1.366 . S
C800 C801 1.414 . S
C800 C803 1.499 . S
C801 H775 0.950 . S
C801 C800 1.414 . S
C801 C802 1.374 . S
C802 H776 0.950 . S
C802 C798 1.385 . S
C802 C801 1.374 . S
C803 C800 1.499 . S
C803 C804 1.373 . S
C803 C805 1.389 . S
C804 H777 0.950 . S
C804 C790 1.377 . S
C804 C803 1.373 . S
C805 C789 1.377 . S
C805 C803 1.389 . S
C805 C806 1.524 . S
C806 C805 1.524 . S
C806 C807 1.397 . S
C806 C811 1.363 . S
C807 H778 0.950 . S
C807 C806 1.397 . S
C807 C808 1.334 . S
C808 H779 0.950 . S
C808 C807 1.334 . S
C808 C809 1.287 . S
C809 C808 1.287 . S
C809 C810 1.524 . S
C809 H812 0.999 . S
C810 H780 0.950 . S
C810 C809 1.524 . S
C810 C811 1.415 . S
C811 H781 0.950 . S
C811 C806 1.363 . S
C811 C810 1.415 . S
H812 C809 0.999 . S
H813 C794 0.913 . S
H814 C832 0.951 . S
H815 C834 0.951 . S
H816 C836 0.950 . S
H817 C837 0.950 . S
H818 C839 0.950 . S
H819 C842 0.950 . S
H820 C843 0.950 . S
H821 C845 0.950 . S
H822 C846 0.950 . S
H823 C847 0.951 . S
H824 C849 0.951 . S
H825 C851 0.950 . S
H826 C852 0.950 . S
H827 C854 0.950 . S
H828 C857 0.950 . S
H829 C858 0.950 . S
H830 C860 0.950 . S
H831 C861 0.950 . S
C832 H814 0.951 . S
C832 C833 1.366 . S
C832 C834 1.388 . S
C833 C832 1.366 . S
C833 C837 1.385 . S
C834 H815 0.951 . S
C834 C832 1.388 . S
C834 C835 1.366 . S
C835 C834 1.366 . S
C835 C836 1.414 . S
C835 C838 1.499 . S
C836 H816 0.950 . S
C836 C835 1.414 . S
C836 C837 1.374 . S
C837 H817 0.950 . S
C837 C833 1.385 . S
C837 C836 1.374 . S
C838 C835 1.499 . S
C838 C839 1.373 . S
C838 C840 1.389 . S
C839 H818 0.950 . S
C839 C838 1.373 . S
C839 C855 1.377 . S
C840 C838 1.389 . S
C840 C841 1.524 . S
C840 C854 1.377 . S
C841 C840 1.524 . S
C841 C842 1.397 . S
C841 C846 1.363 . S
C842 H819 0.950 . S
C842 C841 1.397 . S
C842 C843 1.334 . S
C843 H820 0.950 . S
C843 C842 1.334 . S
C843 C844 1.287 . S
C844 C843 1.287 . S
C844 C845 1.524 . S
C844 H863 0.913 . S
C845 H821 0.950 . S
C845 C844 1.524 . S
C845 C846 1.415 . S
C846 H822 0.950 . S
C846 C841 1.363 . S
C846 C845 1.415 . S
C847 H823 0.951 . S
C847 C848 1.366 . S
C847 C849 1.388 . S
C848 C847 1.366 . S
C848 C852 1.385 . S
C849 H824 0.951 . S
C849 C847 1.388 . S
C849 C850 1.366 . S
C850 C849 1.366 . S
C850 C851 1.414 . S
C850 C853 1.499 . S
C851 H825 0.950 . S
C851 C850 1.414 . S
C851 C852 1.374 . S
C852 H826 0.950 . S
C852 C848 1.385 . S
C852 C851 1.374 . S
C853 C850 1.499 . S
C853 C854 1.373 . S
C853 C855 1.389 . S
C854 H827 0.950 . S
C854 C840 1.377 . S
C854 C853 1.373 . S
C855 C839 1.377 . S
C855 C853 1.389 . S
C855 C856 1.524 . S
C856 C855 1.524 . S
C856 C857 1.397 . S
C856 C861 1.363 . S
C857 H828 0.950 . S
C857 C856 1.397 . S
C857 C858 1.334 . S
C858 H829 0.950 . S
C858 C857 1.334 . S
C858 C859 1.287 . S
C859 C858 1.287 . S
C859 C860 1.524 . S
C859 H862 0.999 . S
C860 H830 0.950 . S
C860 C859 1.524 . S
C860 C861 1.415 . S
C861 H831 0.950 . S
C861 C856 1.363 . S
C861 C860 1.415 . S
H862 C859 0.999 . S
H863 C844 0.913 . S
H864 C882 0.951 . S
H865 C884 0.951 . S
H866 C886 0.950 . S
H867 C887 0.950 . S
H868 C889 0.950 . S
H869 C892 0.950 . S
H870 C893 0.950 . S
H871 C895 0.950 . S
H872 C896 0.950 . S
H873 C897 0.951 . S
H874 C899 0.951 . S
H875 C901 0.950 . S
H876 C902 0.950 . S
H877 C904 0.950 . S
H878 C907 0.950 . S
H879 C908 0.950 . S
H880 C910 0.950 . S
H881 C911 0.950 . S
C882 H864 0.951 . S
C882 C883 1.366 . S
C882 C884 1.388 . S
C883 C882 1.366 . S
C883 C887 1.385 . S
C884 H865 0.951 . S
C884 C882 1.388 . S
C884 C885 1.366 . S
C885 C884 1.366 . S
C885 C886 1.414 . S
C885 C888 1.499 . S
C886 H866 0.950 . S
C886 C885 1.414 . S
C886 C887 1.374 . S
C887 H867 0.950 . S
C887 C883 1.385 . S
C887 C886 1.374 . S
C888 C885 1.499 . S
C888 C889 1.373 . S
C888 C890 1.389 . S
C889 H868 0.950 . S
C889 C888 1.373 . S
C889 C905 1.377 . S
C890 C888 1.389 . S
C890 C891 1.524 . S
C890 C904 1.377 . S
C891 C890 1.524 . S
C891 C892 1.397 . S
C891 C896 1.363 . S
C892 H869 0.950 . S
C892 C891 1.397 . S
C892 C893 1.334 . S
C893 H870 0.950 . S
C893 C892 1.334 . S
C893 C894 1.287 . S
C894 C893 1.287 . S
C894 C895 1.524 . S
C894 H913 0.913 . S
C895 H871 0.950 . S
C895 C894 1.524 . S
C895 C896 1.415 . S
C896 H872 0.950 . S
C896 C891 1.363 . S
C896 C895 1.415 . S
C897 H873 0.951 . S
C897 C898 1.366 . S
C897 C899 1.388 . S
C898 C897 1.366 . S
C898 C902 1.385 . S
C899 H874 0.951 . S
C899 C897 1.388 . S
C899 C900 1.366 . S
C900 C899 1.366 . S
C900 C901 1.414 . S
C900 C903 1.499 . S
C901 H875 0.950 . S
C901 C900 1.414 . S
C901 C902 1.374 . S
C902 H876 0.950 . S
C902 C898 1.385 . S
C902 C901 1.374 . S
C903 C900 1.499 . S
C903 C904 1.373 . S
C903 C905 1.389 . S
C904 H877 0.950 . S
C904 C890 1.377 . S
C904 C903 1.373 . S
C905 C889 1.377 . S
C905 C903 1.389 . S
C905 C906 1.524 . S
C906 C905 1.524 . S
C906 C907 1.397 . S
C906 C911 1.363 . S
C907 H878 0.950 . S
C907 C906 1.397 . S
C907 C908 1.334 . S
C908 H879 0.950 . S
C908 C907 1.334 . S
C908 C909 1.287 . S
C909 C908 1.287 . S
C909 C910 1.524 . S
C909 H912 0.999 . S
C910 H880 0.950 . S
C910 C909 1.524 . S
C910 C911 1.415 . S
C911 H881 0.950 . S
C911 C906 1.363 . S
C911 C910 1.415 . S
H912 C909 0.999 . S
H913 C894 0.913 . S
H914 C932 0.951 . S
H915 C934 0.951 . S
H916 C936 0.950 . S
H917 C937 0.950 . S
H918 C939 0.950 . S
H919 C942 0.950 . S
H920 C943 0.950 . S
H921 C945 0.950 . S
H922 C946 0.950 . S
H923 C947 0.951 . S
H924 C949 0.951 . S
H925 C951 0.950 . S
H926 C952 0.950 . S
H927 C954 0.950 . S
H928 C957 0.950 . S
H929 C958 0.950 . S
H930 C960 0.950 . S
H931 C961 0.950 . S
C932 H914 0.951 . S
C932 C933 1.366 . S
C932 C934 1.388 . S
C933 C932 1.366 . S
C933 C937 1.385 . S
C934 H915 0.951 . S
C934 C932 1.388 . S
C934 C935 1.366 . S
C935 C934 1.366 . S
C935 C936 1.414 . S
C935 C938 1.499 . S
C936 H916 0.950 . S
C936 C935 1.414 . S
C936 C937 1.374 . S
C937 H917 0.950 . S
C937 C933 1.385 . S
C937 C936 1.374 . S
C938 C935 1.499 . S
C938 C939 1.373 . S
C938 C940 1.389 . S
C939 H918 0.950 . S
C939 C938 1.373 . S
C939 C955 1.377 . S
C940 C938 1.389 . S
C940 C941 1.524 . S
C940 C954 1.377 . S
C941 C940 1.524 . S
C941 C942 1.397 . S
C941 C946 1.363 . S
C942 H919 0.950 . S
C942 C941 1.397 . S
C942 C943 1.334 . S
C943 H920 0.950 . S
C943 C942 1.334 . S
C943 C944 1.287 . S
C944 C943 1.287 . S
C944 C945 1.524 . S
C944 H963 0.913 . S
C945 H921 0.950 . S
C945 C944 1.524 . S
C945 C946 1.415 . S
C946 H922 0.950 . S
C946 C941 1.363 . S
C946 C945 1.415 . S
C947 H923 0.951 . S
C947 C948 1.366 . S
C947 C949 1.388 . S
C948 C947 1.366 . S
C948 C952 1.385 . S
C949 H924 0.951 . S
C949 C947 1.388 . S
C949 C950 1.366 . S
C950 C949 1.366 . S
C950 C951 1.414 . S
C950 C953 1.499 . S
C951 H925 0.950 . S
C951 C950 1.414 . S
C951 C952 1.374 . S
C952 H926 0.950 . S
C952 C948 1.385 . S
C952 C951 1.374 . S
C953 C950 1.499 . S
C953 C954 1.373 . S
C953 C955 1.389 . S
C954 H927 0.950 . S
C954 C940 1.377 . S
C954 C953 1.373 . S
C955 C939 1.377 . S
C955 C953 1.389 . S
C955 C956 1.524 . S
C956 C955 1.524 . S
C956 C957 1.397 . S
C956 C961 1.363 . S
C957 H928 0.950 . S
C957 C956 1.397 . S
C957 C958 1.334 . S
C958 H929 0.950 . S
C958 C957 1.334 . S
C958 C959 1.287 . S
C959 C958 1.287 . S
C959 C960 1.524 . S
C959 H962 0.999 . S
C960 H930 0.950 . S
C960 C959 1.524 . S
C960 C961 1.415 . S
C961 H931 0.950 . S
C961 C956 1.363 . S
C961 C960 1.415 . S
H962 C959 0.999 . S
H963 C944 0.913 . S
H964 C982 0.951 . S
H965 C984 0.951 . S
H966 C986 0.950 . S
H967 C987 0.950 . S
H968 C989 0.950 . S
H969 C992 0.950 . S
H970 C993 0.950 . S
H971 C995 0.950 . S
H972 C996 0.950 . S
H973 C997 0.951 . S
H974 C999 0.951 . S
H975 C1001 0.950 . S
H976 C1002 0.950 . S
H977 C1004 0.950 . S
H978 C1007 0.950 . S
H979 C1008 0.950 . S
H980 C1010 0.950 . S
H981 C1011 0.950 . S
C982 H964 0.951 . S
C982 C983 1.366 . S
C982 C984 1.388 . S
C983 C982 1.366 . S
C983 C987 1.385 . S
C984 H965 0.951 . S
C984 C982 1.388 . S
C984 C985 1.366 . S
C985 C984 1.366 . S
C985 C986 1.414 . S
C985 C988 1.499 . S
C986 H966 0.950 . S
C986 C985 1.414 . S
C986 C987 1.374 . S
C987 H967 0.950 . S
C987 C983 1.385 . S
C987 C986 1.374 . S
C988 C985 1.499 . S
C988 C989 1.373 . S
C988 C990 1.389 . S
C989 H968 0.950 . S
C989 C988 1.373 . S
C989 C1005 1.377 . S
C990 C988 1.389 . S
C990 C991 1.524 . S
C990 C1004 1.377 . S
C991 C990 1.524 . S
C991 C992 1.397 . S
C991 C996 1.363 . S
C992 H969 0.950 . S
C992 C991 1.397 . S
C992 C993 1.334 . S
C993 H970 0.950 . S
C993 C992 1.334 . S
C993 C994 1.287 . S
C994 C993 1.287 . S
C994 C995 1.524 . S
C994 H1013 0.913 . S
C995 H971 0.950 . S
C995 C994 1.524 . S
C995 C996 1.415 . S
C996 H972 0.950 . S
C996 C991 1.363 . S
C996 C995 1.415 . S
C997 H973 0.951 . S
C997 C998 1.366 . S
C997 C999 1.388 . S
C998 C997 1.366 . S
C998 C1002 1.385 . S
C999 H974 0.951 . S
C999 C997 1.388 . S
C999 C1000 1.366 . S
C1000 C999 1.366 . S
C1000 C1001 1.414 . S
C1000 C1003 1.499 . S
C1001 H975 0.950 . S
C1001 C1000 1.414 . S
C1001 C1002 1.374 . S
C1002 H976 0.950 . S
C1002 C998 1.385 . S
C1002 C1001 1.374 . S
C1003 C1000 1.499 . S
C1003 C1004 1.373 . S
C1003 C1005 1.389 . S
C1004 H977 0.950 . S
C1004 C990 1.377 . S
C1004 C1003 1.373 . S
C1005 C989 1.377 . S
C1005 C1003 1.389 . S
C1005 C1006 1.524 . S
C1006 C1005 1.524 . S
C1006 C1007 1.397 . S
C1006 C1011 1.363 . S
C1007 H978 0.950 . S
C1007 C1006 1.397 . S
C1007 C1008 1.334 . S
C1008 H979 0.950 . S
C1008 C1007 1.334 . S
C1008 C1009 1.287 . S
C1009 C1008 1.287 . S
C1009 C1010 1.524 . S
C1009 H1012 0.999 . S
C1010 H980 0.950 . S
C1010 C1009 1.524 . S
C1010 C1011 1.415 . S
C1011 H981 0.950 . S
C1011 C1006 1.363 . S
C1011 C1010 1.415 . S
H1012 C1009 0.999 . S
H1013 C994 0.913 . S
H1014 C1032 0.951 . S
H1015 C1034 0.951 . S
H1016 C1036 0.950 . S
H1017 C1037 0.950 . S
H1018 C1039 0.950 . S
H1019 C1042 0.950 . S
H1020 C1043 0.950 . S
H1021 C1045 0.950 . S
H1022 C1046 0.950 . S
H1023 C1047 0.951 . S
H1024 C1049 0.951 . S
H1025 C1051 0.950 . S
H1026 C1052 0.950 . S
H1027 C1054 0.950 . S
H1028 C1057 0.950 . S
H1029 C1058 0.950 . S
H1030 C1060 0.950 . S
H1031 C1061 0.950 . S
C1032 H1014 0.951 . S
C1032 C1033 1.366 . S
C1032 C1034 1.388 . S
C1033 C1032 1.366 . S
C1033 C1037 1.385 . S
C1034 H1015 0.951 . S
C1034 C1032 1.388 . S
C1034 C1035 1.366 . S
C1035 C1034 1.366 . S
C1035 C1036 1.414 . S
C1035 C1038 1.499 . S
C1036 H1016 0.950 . S
C1036 C1035 1.414 . S
C1036 C1037 1.374 . S
C1037 H1017 0.950 . S
C1037 C1033 1.385 . S
C1037 C1036 1.374 . S
C1038 C1035 1.499 . S
C1038 C1039 1.373 . S
C1038 C1040 1.389 . S
C1039 H1018 0.950 . S
C1039 C1038 1.373 . S
C1039 C1055 1.377 . S
C1040 C1038 1.389 . S
C1040 C1041 1.524 . S
C1040 C1054 1.377 . S
C1041 C1040 1.524 . S
C1041 C1042 1.397 . S
C1041 C1046 1.363 . S
C1042 H1019 0.950 . S
C1042 C1041 1.397 . S
C1042 C1043 1.334 . S
C1043 H1020 0.950 . S
C1043 C1042 1.334 . S
C1043 C1044 1.287 . S
C1044 C1043 1.287 . S
C1044 C1045 1.524 . S
C1044 H1063 0.913 . S
C1045 H1021 0.950 . S
C1045 C1044 1.524 . S
C1045 C1046 1.415 . S
C1046 H1022 0.950 . S
C1046 C1041 1.363 . S
C1046 C1045 1.415 . S
C1047 H1023 0.951 . S
C1047 C1048 1.366 . S
C1047 C1049 1.388 . S
C1048 C1047 1.366 . S
C1048 C1052 1.385 . S
C1049 H1024 0.951 . S
C1049 C1047 1.388 . S
C1049 C1050 1.366 . S
C1050 C1049 1.366 . S
C1050 C1051 1.414 . S
C1050 C1053 1.499 . S
C1051 H1025 0.950 . S
C1051 C1050 1.414 . S
C1051 C1052 1.374 . S
C1052 H1026 0.950 . S
C1052 C1048 1.385 . S
C1052 C1051 1.374 . S
C1053 C1050 1.499 . S
C1053 C1054 1.373 . S
C1053 C1055 1.389 . S
C1054 H1027 0.950 . S
C1054 C1040 1.377 . S
C1054 C1053 1.373 . S
C1055 C1039 1.377 . S
C1055 C1053 1.389 . S
C1055 C1056 1.524 . S
C1056 C1055 1.524 . S
C1056 C1057 1.397 . S
C1056 C1061 1.363 . S
C1057 H1028 0.950 . S
C1057 C1056 1.397 . S
C1057 C1058 1.334 . S
C1058 H1029 0.950 . S
C1058 C1057 1.334 . S
C1058 C1059 1.287 . S
C1059 C1058 1.287 . S
C1059 C1060 1.524 . S
C1059 H1062 0.999 . S
C1060 H1030 0.950 . S
C1060 C1059 1.524 . S
C1060 C1061 1.415 . S
C1061 H1031 0.950 . S
C1061 C1056 1.363 . S
C1061 C1060 1.415 . S
H1062 C1059 0.999 . S
H1063 C1044 0.913 . S
H1064 C1082 0.951 . S
H1065 C1084 0.951 . S
H1066 C1086 0.950 . S
H1067 C1087 0.950 . S
H1068 C1089 0.950 . S
H1069 C1092 0.950 . S
H1070 C1093 0.950 . S
H1071 C1095 0.950 . S
H1072 C1096 0.950 . S
H1073 C1097 0.951 . S
H1074 C1099 0.951 . S
H1075 C1101 0.950 . S
H1076 C1102 0.950 . S
H1077 C1104 0.950 . S
H1078 C1107 0.950 . S
H1079 C1108 0.950 1_554 S
H1080 C1110 0.950 . S
H1081 C1111 0.950 . S
C1082 H1064 0.951 . S
C1082 C1083 1.366 . S
C1082 C1084 1.388 . S
C1083 C1082 1.366 . S
C1083 C1087 1.385 . S
C1084 H1065 0.951 . S
C1084 C1082 1.388 . S
C1084 C1085 1.366 . S
C1085 C1084 1.366 . S
C1085 C1086 1.414 . S
C1085 C1088 1.499 . S
C1086 H1066 0.950 . S
C1086 C1085 1.414 . S
C1086 C1087 1.374 . S
C1087 H1067 0.950 . S
C1087 C1083 1.385 . S
C1087 C1086 1.374 . S
C1088 C1085 1.499 . S
C1088 C1089 1.373 . S
C1088 C1090 1.389 . S
C1089 H1068 0.950 . S
C1089 C1088 1.373 . S
C1089 C1105 1.377 . S
C1090 C1088 1.389 . S
C1090 C1091 1.524 . S
C1090 C1104 1.377 . S
C1091 C1090 1.524 . S
C1091 C1092 1.397 . S
C1091 C1096 1.363 . S
C1092 H1069 0.950 . S
C1092 C1091 1.397 . S
C1092 C1093 1.334 . S
C1093 H1070 0.950 . S
C1093 C1092 1.334 . S
C1093 C1094 1.287 . S
C1094 C1093 1.287 . S
C1094 C1095 1.524 . S
C1094 H1113 0.913 . S
C1095 H1071 0.950 . S
C1095 C1094 1.524 . S
C1095 C1096 1.415 . S
C1096 H1072 0.950 . S
C1096 C1091 1.363 . S
C1096 C1095 1.415 . S
C1097 H1073 0.951 . S
C1097 C1098 1.366 . S
C1097 C1099 1.388 . S
C1098 C1097 1.366 . S
C1098 C1102 1.385 . S
C1099 H1074 0.951 . S
C1099 C1097 1.388 . S
C1099 C1100 1.366 . S
C1100 C1099 1.366 . S
C1100 C1101 1.414 . S
C1100 C1103 1.499 . S
C1101 H1075 0.950 . S
C1101 C1100 1.414 . S
C1101 C1102 1.374 . S
C1102 H1076 0.950 . S
C1102 C1098 1.385 . S
C1102 C1101 1.374 . S
C1103 C1100 1.499 . S
C1103 C1104 1.373 . S
C1103 C1105 1.389 . S
C1104 H1077 0.950 . S
C1104 C1090 1.377 . S
C1104 C1103 1.373 . S
C1105 C1089 1.377 . S
C1105 C1103 1.389 . S
C1105 C1106 1.524 . S
C1106 C1105 1.524 . S
C1106 C1107 1.397 . S
C1106 C1111 1.363 . S
C1107 H1078 0.950 . S
C1107 C1106 1.397 . S
C1107 C1108 1.334 . S
C1108 H1079 0.950 1_556 S
C1108 C1107 1.334 . S
C1108 C1109 1.285 1_556 S
C1109 C1108 1.285 1_554 S
C1109 C1110 1.520 1_554 S
C1109 H1112 1.006 . S
C1110 H1080 0.950 . S
C1110 C1109 1.520 1_556 S
C1110 C1111 1.415 . S
C1111 H1081 0.950 . S
C1111 C1106 1.363 . S
C1111 C1110 1.415 . S
H1112 C1109 1.006 . S
H1113 C1094 0.913 . S
H1114 C1132 0.951 . S
H1115 C1134 0.951 . S
H1116 C1136 0.950 . S
H1117 C1137 0.950 . S
H1118 C1139 0.950 . S
H1119 C1142 0.950 . S
H1120 C1143 0.950 . S
H1121 C1145 0.950 . S
H1122 C1146 0.950 . S
H1123 C1147 0.951 . S
H1124 C1149 0.951 . S
H1125 C1151 0.950 . S
H1126 C1152 0.950 . S
H1127 C1154 0.950 . S
H1128 C1157 0.950 . S
H1129 C1158 0.950 . S
H1130 C1160 0.950 1_565 S
H1131 C1161 0.950 . S
C1132 H1114 0.951 . S
C1132 C1133 1.366 . S
C1132 C1134 1.388 . S
C1133 C1132 1.366 . S
C1133 C1137 1.385 . S
C1134 H1115 0.951 . S
C1134 C1132 1.388 . S
C1134 C1135 1.366 . S
C1135 C1134 1.366 . S
C1135 C1136 1.414 . S
C1135 C1138 1.499 . S
C1136 H1116 0.950 . S
C1136 C1135 1.414 . S
C1136 C1137 1.374 . S
C1137 H1117 0.950 . S
C1137 C1133 1.385 . S
C1137 C1136 1.374 . S
C1138 C1135 1.499 . S
C1138 C1139 1.373 . S
C1138 C1140 1.389 . S
C1139 H1118 0.950 . S
C1139 C1138 1.373 . S
C1139 C1155 1.377 . S
C1140 C1138 1.389 . S
C1140 C1141 1.524 . S
C1140 C1154 1.377 . S
C1141 C1140 1.524 . S
C1141 C1142 1.397 . S
C1141 C1146 1.363 . S
C1142 H1119 0.950 . S
C1142 C1141 1.397 . S
C1142 C1143 1.334 . S
C1143 H1120 0.950 . S
C1143 C1142 1.334 . S
C1143 C1144 1.287 . S
C1144 C1143 1.287 . S
C1144 C1145 1.524 . S
C1144 H1163 0.913 . S
C1145 H1121 0.950 . S
C1145 C1144 1.524 . S
C1145 C1146 1.415 . S
C1146 H1122 0.950 . S
C1146 C1141 1.363 . S
C1146 C1145 1.415 . S
C1147 H1123 0.951 . S
C1147 C1148 1.366 . S
C1147 C1149 1.388 . S
C1148 C1147 1.366 . S
C1148 C1152 1.385 . S
C1149 H1124 0.951 . S
C1149 C1147 1.388 . S
C1149 C1150 1.366 . S
C1150 C1149 1.366 . S
C1150 C1151 1.414 . S
C1150 C1153 1.499 . S
C1151 H1125 0.950 . S
C1151 C1150 1.414 . S
C1151 C1152 1.374 . S
C1152 H1126 0.950 . S
C1152 C1148 1.385 . S
C1152 C1151 1.374 . S
C1153 C1150 1.499 . S
C1153 C1154 1.373 . S
C1153 C1155 1.389 . S
C1154 H1127 0.950 . S
C1154 C1140 1.377 . S
C1154 C1153 1.373 . S
C1155 C1139 1.377 . S
C1155 C1153 1.389 . S
C1155 C1156 1.524 . S
C1156 C1155 1.524 . S
C1156 C1157 1.397 . S
C1156 C1161 1.363 . S
C1157 H1128 0.950 . S
C1157 C1156 1.397 . S
C1157 C1158 1.334 . S
C1158 H1129 0.950 . S
C1158 C1157 1.334 . S
C1158 C1159 1.287 1_545 S
C1159 C1158 1.287 1_565 S
C1159 C1160 1.524 1_565 S
C1159 H1162 0.999 . S
C1160 H1130 0.950 1_545 S
C1160 C1159 1.524 1_545 S
C1160 C1161 1.415 . S
C1161 H1131 0.950 . S
C1161 C1156 1.363 . S
C1161 C1160 1.415 . S
H1162 C1159 0.999 . S
H1163 C1144 0.913 . S
H1164 C1182 0.951 . S
H1165 C1184 0.951 . S
H1166 C1186 0.950 . S
H1167 C1187 0.950 . S
H1168 C1189 0.950 . S
H1169 C1192 0.950 . S
H1170 C1193 0.950 . S
H1171 C1195 0.950 . S
H1172 C1196 0.950 . S
H1173 C1197 0.951 . S
H1174 C1199 0.951 . S
H1175 C1201 0.950 . S
H1176 C1202 0.950 . S
H1177 C1204 0.950 . S
H1178 C1207 0.950 . S
H1179 C1208 0.950 . S
H1180 C1210 0.950 . S
H1181 C1211 0.950 . S
C1182 H1164 0.951 . S
C1182 C1183 1.366 . S
C1182 C1184 1.388 . S
C1183 C1182 1.366 . S
C1183 C1187 1.385 . S
C1184 H1165 0.951 . S
C1184 C1182 1.388 . S
C1184 C1185 1.366 . S
C1185 C1184 1.366 . S
C1185 C1186 1.414 . S
C1185 C1188 1.499 . S
C1186 H1166 0.950 . S
C1186 C1185 1.414 . S
C1186 C1187 1.374 . S
C1187 H1167 0.950 . S
C1187 C1183 1.385 . S
C1187 C1186 1.374 . S
C1188 C1185 1.499 . S
C1188 C1189 1.373 . S
C1188 C1190 1.389 . S
C1189 H1168 0.950 . S
C1189 C1188 1.373 . S
C1189 C1205 1.377 . S
C1190 C1188 1.389 . S
C1190 C1191 1.524 . S
C1190 C1204 1.377 . S
C1191 C1190 1.524 . S
C1191 C1192 1.397 . S
C1191 C1196 1.363 . S
C1192 H1169 0.950 . S
C1192 C1191 1.397 . S
C1192 C1193 1.334 . S
C1193 H1170 0.950 . S
C1193 C1192 1.334 . S
C1193 C1194 1.287 . S
C1194 C1193 1.287 . S
C1194 C1195 1.524 . S
C1194 H1213 0.913 . S
C1195 H1171 0.950 . S
C1195 C1194 1.524 . S
C1195 C1196 1.415 . S
C1196 H1172 0.950 . S
C1196 C1191 1.363 . S
C1196 C1195 1.415 . S
C1197 H1173 0.951 . S
C1197 C1198 1.366 . S
C1197 C1199 1.388 . S
C1198 C1197 1.366 . S
C1198 C1202 1.385 . S
C1199 H1174 0.951 . S
C1199 C1197 1.388 . S
C1199 C1200 1.366 . S
C1200 C1199 1.366 . S
C1200 C1201 1.414 . S
C1200 C1203 1.499 . S
C1201 H1175 0.950 . S
C1201 C1200 1.414 . S
C1201 C1202 1.374 . S
C1202 H1176 0.950 . S
C1202 C1198 1.385 . S
C1202 C1201 1.374 . S
C1203 C1200 1.499 . S
C1203 C1204 1.373 . S
C1203 C1205 1.389 . S
C1204 H1177 0.950 . S
C1204 C1190 1.377 . S
C1204 C1203 1.373 . S
C1205 C1189 1.377 . S
C1205 C1203 1.389 . S
C1205 C1206 1.524 . S
C1206 C1205 1.524 . S
C1206 C1207 1.397 . S
C1206 C1211 1.363 . S
C1207 H1178 0.950 . S
C1207 C1206 1.397 . S
C1207 C1208 1.334 . S
C1208 H1179 0.950 . S
C1208 C1207 1.334 . S
C1208 C1209 1.287 . S
C1209 C1208 1.287 . S
C1209 C1210 1.524 . S
C1209 H1212 0.999 . S
C1210 H1180 0.950 . S
C1210 C1209 1.524 . S
C1210 C1211 1.415 . S
C1211 H1181 0.950 . S
C1211 C1206 1.363 . S
C1211 C1210 1.415 . S
H1212 C1209 0.999 . S
H1213 C1194 0.913 . S
H1214 C1232 0.951 . S
H1215 C1234 0.951 . S
H1216 C1236 0.950 . S
H1217 C1237 0.950 . S
H1218 C1239 0.950 . S
H1219 C1242 0.950 . S
H1220 C1243 0.950 . S
H1221 C1245 0.950 . S
H1222 C1246 0.950 . S
H1223 C1247 0.951 . S
H1224 C1249 0.951 . S
H1225 C1251 0.950 . S
H1226 C1252 0.950 . S
H1227 C1254 0.950 . S
H1228 C1257 0.950 . S
H1229 C1258 0.950 . S
H1230 C1260 0.950 . S
H1231 C1261 0.950 . S
C1232 H1214 0.951 . S
C1232 C1233 1.366 . S
C1232 C1234 1.388 . S
C1233 C1232 1.366 . S
C1233 C1237 1.385 . S
C1234 H1215 0.951 . S
C1234 C1232 1.388 . S
C1234 C1235 1.366 . S
C1235 C1234 1.366 . S
C1235 C1236 1.414 . S
C1235 C1238 1.499 . S
C1236 H1216 0.950 . S
C1236 C1235 1.414 . S
C1236 C1237 1.374 . S
C1237 H1217 0.950 . S
C1237 C1233 1.385 . S
C1237 C1236 1.374 . S
C1238 C1235 1.499 . S
C1238 C1239 1.373 . S
C1238 C1240 1.389 . S
C1239 H1218 0.950 . S
C1239 C1238 1.373 . S
C1239 C1255 1.377 . S
C1240 C1238 1.389 . S
C1240 C1241 1.524 . S
C1240 C1254 1.377 . S
C1241 C1240 1.524 . S
C1241 C1242 1.397 . S
C1241 C1246 1.363 . S
C1242 H1219 0.950 . S
C1242 C1241 1.397 . S
C1242 C1243 1.334 . S
C1243 H1220 0.950 . S
C1243 C1242 1.334 . S
C1243 C1244 1.287 . S
C1244 C1243 1.287 . S
C1244 C1245 1.524 . S
C1244 H1263 0.913 . S
C1245 H1221 0.950 . S
C1245 C1244 1.524 . S
C1245 C1246 1.415 . S
C1246 H1222 0.950 . S
C1246 C1241 1.363 . S
C1246 C1245 1.415 . S
C1247 H1223 0.951 . S
C1247 C1248 1.366 . S
C1247 C1249 1.388 . S
C1248 C1247 1.366 . S
C1248 C1252 1.385 . S
C1249 H1224 0.951 . S
C1249 C1247 1.388 . S
C1249 C1250 1.366 . S
C1250 C1249 1.366 . S
C1250 C1251 1.414 . S
C1250 C1253 1.499 . S
C1251 H1225 0.950 . S
C1251 C1250 1.414 . S
C1251 C1252 1.374 . S
C1252 H1226 0.950 . S
C1252 C1248 1.385 . S
C1252 C1251 1.374 . S
C1253 C1250 1.499 . S
C1253 C1254 1.373 . S
C1253 C1255 1.389 . S
C1254 H1227 0.950 . S
C1254 C1240 1.377 . S
C1254 C1253 1.373 . S
C1255 C1239 1.377 . S
C1255 C1253 1.389 . S
C1255 C1256 1.524 . S
C1256 C1255 1.524 . S
C1256 C1257 1.397 . S
C1256 C1261 1.363 . S
C1257 H1228 0.950 . S
C1257 C1256 1.397 . S
C1257 C1258 1.334 . S
C1258 H1229 0.950 . S
C1258 C1257 1.334 . S
C1258 C1259 1.287 . S
C1259 C1258 1.287 . S
C1259 C1260 1.524 . S
C1259 H1262 0.999 . S
C1260 H1230 0.950 . S
C1260 C1259 1.524 . S
C1260 C1261 1.415 . S
C1261 H1231 0.950 . S
C1261 C1256 1.363 . S
C1261 C1260 1.415 . S
H1262 C1259 0.999 . S
H1263 C1244 0.913 . S
H1264 C1282 0.951 . S
H1265 C1284 0.951 . S
H1266 C1286 0.950 . S
H1267 C1287 0.950 . S
H1268 C1289 0.950 . S
H1269 C1292 0.950 . S
H1270 C1293 0.950 . S
H1271 C1295 0.950 . S
H1272 C1296 0.950 . S
H1273 C1297 0.951 . S
H1274 C1299 0.951 . S
H1275 C1301 0.950 . S
H1276 C1302 0.950 . S
H1277 C1304 0.950 . S
H1278 C1307 0.950 . S
H1279 C1308 0.950 . S
H1280 C1310 0.950 . S
H1281 C1311 0.950 . S
C1282 H1264 0.951 . S
C1282 C1283 1.366 . S
C1282 C1284 1.388 . S
C1283 C1282 1.366 . S
C1283 C1287 1.385 . S
C1284 H1265 0.951 . S
C1284 C1282 1.388 . S
C1284 C1285 1.366 . S
C1285 C1284 1.366 . S
C1285 C1286 1.414 . S
C1285 C1288 1.499 . S
C1286 H1266 0.950 . S
C1286 C1285 1.414 . S
C1286 C1287 1.374 . S
C1287 H1267 0.950 . S
C1287 C1283 1.385 . S
C1287 C1286 1.374 . S
C1288 C1285 1.499 . S
C1288 C1289 1.373 . S
C1288 C1290 1.389 . S
C1289 H1268 0.950 . S
C1289 C1288 1.373 . S
C1289 C1305 1.377 . S
C1290 C1288 1.389 . S
C1290 C1291 1.524 . S
C1290 C1304 1.377 . S
C1291 C1290 1.524 . S
C1291 C1292 1.397 . S
C1291 C1296 1.363 . S
C1292 H1269 0.950 . S
C1292 C1291 1.397 . S
C1292 C1293 1.334 . S
C1293 H1270 0.950 . S
C1293 C1292 1.334 . S
C1293 C1294 1.287 . S
C1294 C1293 1.287 . S
C1294 C1295 1.524 . S
C1294 H1313 0.913 . S
C1295 H1271 0.950 . S
C1295 C1294 1.524 . S
C1295 C1296 1.415 . S
C1296 H1272 0.950 . S
C1296 C1291 1.363 . S
C1296 C1295 1.415 . S
C1297 H1273 0.951 . S
C1297 C1298 1.366 . S
C1297 C1299 1.388 . S
C1298 C1297 1.366 . S
C1298 C1302 1.385 . S
C1299 H1274 0.951 . S
C1299 C1297 1.388 . S
C1299 C1300 1.366 . S
C1300 C1299 1.366 . S
C1300 C1301 1.414 . S
C1300 C1303 1.499 . S
C1301 H1275 0.950 . S
C1301 C1300 1.414 . S
C1301 C1302 1.374 . S
C1302 H1276 0.950 . S
C1302 C1298 1.385 . S
C1302 C1301 1.374 . S
C1303 C1300 1.499 . S
C1303 C1304 1.373 . S
C1303 C1305 1.389 . S
C1304 H1277 0.950 . S
C1304 C1290 1.377 . S
C1304 C1303 1.373 . S
C1305 C1289 1.377 . S
C1305 C1303 1.389 . S
C1305 C1306 1.524 . S
C1306 C1305 1.524 . S
C1306 C1307 1.397 . S
C1306 C1311 1.363 . S
C1307 H1278 0.950 . S
C1307 C1306 1.397 . S
C1307 C1308 1.334 . S
C1308 H1279 0.950 . S
C1308 C1307 1.334 . S
C1308 C1309 1.287 . S
C1309 C1308 1.287 . S
C1309 C1310 1.524 . S
C1309 H1312 0.999 . S
C1310 H1280 0.950 . S
C1310 C1309 1.524 . S
C1310 C1311 1.415 . S
C1311 H1281 0.950 . S
C1311 C1306 1.363 . S
C1311 C1310 1.415 . S
H1312 C1309 0.999 . S
H1313 C1294 0.913 . S
H1314 C1332 0.951 . S
H1315 C1334 0.951 . S
H1316 C1336 0.950 . S
H1317 C1337 0.950 . S
H1318 C1339 0.950 . S
H1319 C1342 0.950 . S
H1320 C1343 0.950 . S
H1321 C1345 0.950 . S
H1322 C1346 0.950 . S
H1323 C1347 0.951 . S
H1324 C1349 0.951 . S
H1325 C1351 0.950 . S
H1326 C1352 0.950 . S
H1327 C1354 0.950 . S
H1328 C1357 0.950 . S
H1329 C1358 0.950 . S
H1330 C1360 0.950 . S
H1331 C1361 0.950 . S
C1332 H1314 0.951 . S
C1332 C1333 1.366 . S
C1332 C1334 1.388 . S
C1333 C1332 1.366 . S
C1333 C1337 1.385 . S
C1334 H1315 0.951 . S
C1334 C1332 1.388 . S
C1334 C1335 1.366 . S
C1335 C1334 1.366 . S
C1335 C1336 1.414 . S
C1335 C1338 1.499 . S
C1336 H1316 0.950 . S
C1336 C1335 1.414 . S
C1336 C1337 1.374 . S
C1337 H1317 0.950 . S
C1337 C1333 1.385 . S
C1337 C1336 1.374 . S
C1338 C1335 1.499 . S
C1338 C1339 1.373 . S
C1338 C1340 1.389 . S
C1339 H1318 0.950 . S
C1339 C1338 1.373 . S
C1339 C1355 1.377 . S
C1340 C1338 1.389 . S
C1340 C1341 1.524 . S
C1340 C1354 1.377 . S
C1341 C1340 1.524 . S
C1341 C1342 1.397 . S
C1341 C1346 1.363 . S
C1342 H1319 0.950 . S
C1342 C1341 1.397 . S
C1342 C1343 1.334 . S
C1343 H1320 0.950 . S
C1343 C1342 1.334 . S
C1343 C1344 1.287 . S
C1344 C1343 1.287 . S
C1344 C1345 1.524 . S
C1344 H1363 0.913 . S
C1345 H1321 0.950 . S
C1345 C1344 1.524 . S
C1345 C1346 1.415 . S
C1346 H1322 0.950 . S
C1346 C1341 1.363 . S
C1346 C1345 1.415 . S
C1347 H1323 0.951 . S
C1347 C1348 1.366 . S
C1347 C1349 1.388 . S
C1348 C1347 1.366 . S
C1348 C1352 1.385 . S
C1349 H1324 0.951 . S
C1349 C1347 1.388 . S
C1349 C1350 1.366 . S
C1350 C1349 1.366 . S
C1350 C1351 1.414 . S
C1350 C1353 1.499 . S
C1351 H1325 0.950 . S
C1351 C1350 1.414 . S
C1351 C1352 1.374 . S
C1352 H1326 0.950 . S
C1352 C1348 1.385 . S
C1352 C1351 1.374 . S
C1353 C1350 1.499 . S
C1353 C1354 1.373 . S
C1353 C1355 1.389 . S
C1354 H1327 0.950 . S
C1354 C1340 1.377 . S
C1354 C1353 1.373 . S
C1355 C1339 1.377 . S
C1355 C1353 1.389 . S
C1355 C1356 1.524 . S
C1356 C1355 1.524 . S
C1356 C1357 1.397 . S
C1356 C1361 1.363 . S
C1357 H1328 0.950 . S
C1357 C1356 1.397 . S
C1357 C1358 1.334 . S
C1358 H1329 0.950 . S
C1358 C1357 1.334 . S
C1358 C1359 1.287 . S
C1359 C1358 1.287 . S
C1359 C1360 1.524 . S
C1359 H1362 0.999 . S
C1360 H1330 0.950 . S
C1360 C1359 1.524 . S
C1360 C1361 1.415 . S
C1361 H1331 0.950 . S
C1361 C1356 1.363 . S
C1361 C1360 1.415 . S
H1362 C1359 0.999 . S
H1363 C1344 0.913 . S
H1364 C1382 0.951 . S
H1365 C1384 0.951 . S
H1366 C1386 0.950 . S
H1367 C1387 0.950 . S
H1368 C1389 0.950 . S
H1369 C1392 0.950 . S
H1370 C1393 0.950 . S
H1371 C1395 0.950 . S
H1372 C1396 0.950 . S
H1373 C1397 0.951 . S
H1374 C1399 0.951 . S
H1375 C1401 0.950 . S
H1376 C1402 0.950 . S
H1377 C1404 0.950 . S
H1378 C1407 0.950 . S
H1379 C1408 0.950 1_655 S
H1380 C1410 0.950 . S
H1381 C1411 0.950 . S
C1382 H1364 0.951 . S
C1382 C1383 1.366 . S
C1382 C1384 1.388 . S
C1383 C1382 1.366 . S
C1383 C1387 1.385 . S
C1384 H1365 0.951 . S
C1384 C1382 1.388 . S
C1384 C1385 1.366 . S
C1385 C1384 1.366 . S
C1385 C1386 1.414 . S
C1385 C1388 1.499 . S
C1386 H1366 0.950 . S
C1386 C1385 1.414 . S
C1386 C1387 1.374 . S
C1387 H1367 0.950 . S
C1387 C1383 1.385 . S
C1387 C1386 1.374 . S
C1388 C1385 1.499 . S
C1388 C1389 1.373 . S
C1388 C1390 1.389 . S
C1389 H1368 0.950 . S
C1389 C1388 1.373 . S
C1389 C1405 1.377 . S
C1390 C1388 1.389 . S
C1390 C1391 1.524 . S
C1390 C1404 1.377 . S
C1391 C1390 1.524 . S
C1391 C1392 1.397 . S
C1391 C1396 1.363 . S
C1392 H1369 0.950 . S
C1392 C1391 1.397 . S
C1392 C1393 1.334 . S
C1393 H1370 0.950 . S
C1393 C1392 1.334 . S
C1393 C1394 1.287 . S
C1394 C1393 1.287 . S
C1394 C1395 1.524 . S
C1394 H1413 0.913 . S
C1395 H1371 0.950 . S
C1395 C1394 1.524 . S
C1395 C1396 1.415 . S
C1396 H1372 0.950 . S
C1396 C1391 1.363 . S
C1396 C1395 1.415 . S
C1397 H1373 0.951 . S
C1397 C1398 1.366 . S
C1397 C1399 1.388 . S
C1398 C1397 1.366 . S
C1398 C1402 1.385 . S
C1399 H1374 0.951 . S
C1399 C1397 1.388 . S
C1399 C1400 1.366 . S
C1400 C1399 1.366 . S
C1400 C1401 1.414 . S
C1400 C1403 1.499 . S
C1401 H1375 0.950 . S
C1401 C1400 1.414 . S
C1401 C1402 1.374 . S
C1402 H1376 0.950 . S
C1402 C1398 1.385 . S
C1402 C1401 1.374 . S
C1403 C1400 1.499 . S
C1403 C1404 1.373 . S
C1403 C1405 1.389 . S
C1404 H1377 0.950 . S
C1404 C1390 1.377 . S
C1404 C1403 1.373 . S
C1405 C1389 1.377 . S
C1405 C1403 1.389 . S
C1405 C1406 1.524 . S
C1406 C1405 1.524 . S
C1406 C1407 1.397 . S
C1406 C1411 1.363 . S
C1407 H1378 0.950 . S
C1407 C1406 1.397 . S
C1407 C1408 1.334 . S
C1408 H1379 0.950 1_455 S
C1408 C1407 1.334 . S
C1408 C1409 1.287 1_455 S
C1409 C1408 1.287 1_655 S
C1409 C1410 1.524 1_655 S
C1409 H1412 0.999 . S
C1410 H1380 0.950 . S
C1410 C1409 1.524 1_455 S
C1410 C1411 1.415 . S
C1411 H1381 0.950 . S
C1411 C1406 1.363 . S
C1411 C1410 1.415 . S
H1412 C1409 0.999 . S
H1413 C1394 0.913 . S
H1414 C1432 0.951 . S
H1415 C1434 0.951 . S
H1416 C1436 0.950 . S
H1417 C1437 0.950 . S
H1418 C1439 0.950 . S
H1419 C1442 0.950 . S
H1420 C1443 0.950 . S
H1421 C1445 0.950 . S
H1422 C1446 0.950 . S
H1423 C1447 0.951 . S
H1424 C1449 0.951 . S
H1425 C1451 0.950 . S
H1426 C1452 0.950 . S
H1427 C1454 0.950 . S
H1428 C1457 0.950 . S
H1429 C1458 0.950 . S
H1430 C1460 0.950 . S
H1431 C1461 0.950 . S
C1432 H1414 0.951 . S
C1432 C1433 1.366 . S
C1432 C1434 1.388 . S
C1433 C1432 1.366 . S
C1433 C1437 1.385 . S
C1434 H1415 0.951 . S
C1434 C1432 1.388 . S
C1434 C1435 1.366 . S
C1435 C1434 1.366 . S
C1435 C1436 1.414 . S
C1435 C1438 1.499 . S
C1436 H1416 0.950 . S
C1436 C1435 1.414 . S
C1436 C1437 1.374 . S
C1437 H1417 0.950 . S
C1437 C1433 1.385 . S
C1437 C1436 1.374 . S
C1438 C1435 1.499 . S
C1438 C1439 1.373 . S
C1438 C1440 1.389 . S
C1439 H1418 0.950 . S
C1439 C1438 1.373 . S
C1439 C1455 1.377 . S
C1440 C1438 1.389 . S
C1440 C1441 1.524 . S
C1440 C1454 1.377 . S
C1441 C1440 1.524 . S
C1441 C1442 1.397 . S
C1441 C1446 1.363 . S
C1442 H1419 0.950 . S
C1442 C1441 1.397 . S
C1442 C1443 1.334 . S
C1443 H1420 0.950 . S
C1443 C1442 1.334 . S
C1443 C1444 1.287 . S
C1444 C1443 1.287 . S
C1444 C1445 1.524 . S
C1444 H1463 0.913 . S
C1445 H1421 0.950 . S
C1445 C1444 1.524 . S
C1445 C1446 1.415 . S
C1446 H1422 0.950 . S
C1446 C1441 1.363 . S
C1446 C1445 1.415 . S
C1447 H1423 0.951 . S
C1447 C1448 1.366 . S
C1447 C1449 1.388 . S
C1448 C1447 1.366 . S
C1448 C1452 1.385 . S
C1449 H1424 0.951 . S
C1449 C1447 1.388 . S
C1449 C1450 1.366 . S
C1450 C1449 1.366 . S
C1450 C1451 1.414 . S
C1450 C1453 1.499 . S
C1451 H1425 0.950 . S
C1451 C1450 1.414 . S
C1451 C1452 1.374 . S
C1452 H1426 0.950 . S
C1452 C1448 1.385 . S
C1452 C1451 1.374 . S
C1453 C1450 1.499 . S
C1453 C1454 1.373 . S
C1453 C1455 1.389 . S
C1454 H1427 0.950 . S
C1454 C1440 1.377 . S
C1454 C1453 1.373 . S
C1455 C1439 1.377 . S
C1455 C1453 1.389 . S
C1455 C1456 1.524 . S
C1456 C1455 1.524 . S
C1456 C1457 1.397 . S
C1456 C1461 1.363 . S
C1457 H1428 0.950 . S
C1457 C1456 1.397 . S
C1457 C1458 1.334 . S
C1458 H1429 0.950 . S
C1458 C1457 1.334 . S
C1458 C1459 1.287 . S
C1459 C1458 1.287 . S
C1459 C1460 1.524 . S
C1459 H1462 0.999 . S
C1460 H1430 0.950 . S
C1460 C1459 1.524 . S
C1460 C1461 1.415 . S
C1461 H1431 0.950 . S
C1461 C1456 1.363 . S
C1461 C1460 1.415 . S
H1462 C1459 0.999 . S
H1463 C1444 0.913 . S
C283 C9 1.491 . S
C298 C110 1.516 . S
C333 C21 1.024 . S
C348 C159 1.023 . S
C398 C194 2.104 . S
C383 C30 2.103 . S
C433 C43 2.086 . S
C448 C233 2.149 1_655 S
C498 C154 2.138 . S
C483 C4 1.921 . S
C548 C113 1.681 . S
C533 C22 1.741 . S
C598 C243 1.468 . S
C583 C34 1.491 . S
C648 C202 1.384 . S
C633 C48 1.405 . S
C683 C8 1.613 . S
C698 C230 1.653 . S
C748 C162 2.250 . S
C733 C35 2.321 . S
C783 C47 2.581 . S
C798 C123 2.573 . S
C833 C17 0.652 . S
C848 C199 0.648 . S
C898 C119 1.034 . S
C883 C60 1.023 . S
C933 C74 1.107 . S
C948 C150 1.100 . S
C983 C82 1.827 . S
C998 C203 1.871 . S
C1033 C100 2.712 . S
C1048 C242 2.643 . S
C1083 C61 2.591 . S
C1098 C163 2.670 . S
C1148 C122 0.879 . S
C1133 C73 0.896 . S
C1198 C234 2.131 . S
C1183 C87 2.183 . S
C1248 C193 1.126 . S
C1233 C95 1.117 . S
C1283 C56 1.561 . S
C1298 C239 1.566 . S
C1348 C153 2.464 . S
C1333 C86 2.534 . S
C1398 C114 2.297 . S
C1383 C99 2.304 . S
C1433 C69 0.637 . S
C1448 C190 0.583 . S
