# Generated by pormake.
# Topology eea, (3,6)-cn, num edge types: 1
# Building blocks:
#     Node 0, Type 0, BuildingBlock: BETDAH_clean_linker_0, # of connection points: 3
#     Node 1, Type 0, BuildingBlock: BETDAH_clean_linker_0, # of connection points: 3
#     Node 2, Type 0, BuildingBlock: BETDAH_clean_linker_0, # of connection points: 3
#     Node 3, Type 0, BuildingBlock: BETDAH_clean_linker_0, # of connection points: 3
#     Node 4, Type 0, BuildingBlock: BETDAH_clean_linker_0, # of connection points: 3
#     Node 5, Type 0, BuildingBlock: BETDAH_clean_linker_0, # of connection points: 3
#     Node 6, Type 0, BuildingBlock: BETDAH_clean_linker_0, # of connection points: 3
#     Node 7, Type 0, BuildingBlock: BETDAH_clean_linker_0, # of connection points: 3
#     Node 8, Type 0, BuildingBlock: BETDAH_clean_linker_0, # of connection points: 3
#     Node 9, Type 0, BuildingBlock: BETDAH_clean_linker_0, # of connection points: 3
#     Node 10, Type 0, BuildingBlock: BETDAH_clean_linker_0, # of connection points: 3
#     Node 11, Type 0, BuildingBlock: BETDAH_clean_linker_0, # of connection points: 3
#     Node 12, Type 0, BuildingBlock: BETDAH_clean_linker_0, # of connection points: 3
#     Node 13, Type 0, BuildingBlock: BETDAH_clean_linker_0, # of connection points: 3
#     Node 14, Type 0, BuildingBlock: BETDAH_clean_linker_0, # of connection points: 3
#     Node 15, Type 0, BuildingBlock: BETDAH_clean_linker_0, # of connection points: 3
#     Node 16, Type 0, BuildingBlock: BETDAH_clean_linker_0, # of connection points: 3
#     Node 17, Type 0, BuildingBlock: BETDAH_clean_linker_0, # of connection points: 3
#     Node 18, Type 1, BuildingBlock: CUKXOW_clean_sbu_0, # of connection points: 6
#     Node 19, Type 1, BuildingBlock: CUKXOW_clean_sbu_0, # of connection points: 6
#     Node 20, Type 1, BuildingBlock: CUKXOW_clean_sbu_0, # of connection points: 6
#     Node 21, Type 1, BuildingBlock: CUKXOW_clean_sbu_0, # of connection points: 6
#     Node 22, Type 1, BuildingBlock: CUKXOW_clean_sbu_0, # of connection points: 6
#     Node 23, Type 1, BuildingBlock: CUKXOW_clean_sbu_0, # of connection points: 6
#     Node 24, Type 1, BuildingBlock: CUKXOW_clean_sbu_0, # of connection points: 6
#     Node 25, Type 1, BuildingBlock: CUKXOW_clean_sbu_0, # of connection points: 6
#     Node 26, Type 1, BuildingBlock: CUKXOW_clean_sbu_0, # of connection points: 6
#     Edge 27, Type (0, 1), BuildingBlock: KIFKEQ_clean_linker_1, # of connection points: 2
#     Edge 28, Type (0, 1), BuildingBlock: KIFKEQ_clean_linker_1, # of connection points: 2
#     Edge 29, Type (0, 1), BuildingBlock: KIFKEQ_clean_linker_1, # of connection points: 2
#     Edge 30, Type (0, 1), BuildingBlock: KIFKEQ_clean_linker_1, # of connection points: 2
#     Edge 31, Type (0, 1), BuildingBlock: KIFKEQ_clean_linker_1, # of connection points: 2
#     Edge 32, Type (0, 1), BuildingBlock: KIFKEQ_clean_linker_1, # of connection points: 2
#     Edge 33, Type (0, 1), BuildingBlock: KIFKEQ_clean_linker_1, # of connection points: 2
#     Edge 34, Type (0, 1), BuildingBlock: KIFKEQ_clean_linker_1, # of connection points: 2
#     Edge 35, Type (0, 1), BuildingBlock: KIFKEQ_clean_linker_1, # of connection points: 2
#     Edge 36, Type (0, 1), BuildingBlock: KIFKEQ_clean_linker_1, # of connection points: 2
#     Edge 37, Type (0, 1), BuildingBlock: KIFKEQ_clean_linker_1, # of connection points: 2
#     Edge 38, Type (0, 1), BuildingBlock: KIFKEQ_clean_linker_1, # of connection points: 2
#     Edge 39, Type (0, 1), BuildingBlock: KIFKEQ_clean_linker_1, # of connection points: 2
#     Edge 40, Type (0, 1), BuildingBlock: KIFKEQ_clean_linker_1, # of connection points: 2
#     Edge 41, Type (0, 1), BuildingBlock: KIFKEQ_clean_linker_1, # of connection points: 2
#     Edge 42, Type (0, 1), BuildingBlock: KIFKEQ_clean_linker_1, # of connection points: 2
#     Edge 43, Type (0, 1), BuildingBlock: KIFKEQ_clean_linker_1, # of connection points: 2
#     Edge 44, Type (0, 1), BuildingBlock: KIFKEQ_clean_linker_1, # of connection points: 2
#     Edge 45, Type (0, 1), BuildingBlock: KIFKEQ_clean_linker_1, # of connection points: 2
#     Edge 46, Type (0, 1), BuildingBlock: KIFKEQ_clean_linker_1, # of connection points: 2
#     Edge 47, Type (0, 1), BuildingBlock: KIFKEQ_clean_linker_1, # of connection points: 2
#     Edge 48, Type (0, 1), BuildingBlock: KIFKEQ_clean_linker_1, # of connection points: 2
#     Edge 49, Type (0, 1), BuildingBlock: KIFKEQ_clean_linker_1, # of connection points: 2
#     Edge 50, Type (0, 1), BuildingBlock: KIFKEQ_clean_linker_1, # of connection points: 2
#     Edge 51, Type (0, 1), BuildingBlock: KIFKEQ_clean_linker_1, # of connection points: 2
#     Edge 52, Type (0, 1), BuildingBlock: KIFKEQ_clean_linker_1, # of connection points: 2
#     Edge 53, Type (0, 1), BuildingBlock: KIFKEQ_clean_linker_1, # of connection points: 2
#     Edge 54, Type (0, 1), BuildingBlock: KIFKEQ_clean_linker_1, # of connection points: 2
#     Edge 55, Type (0, 1), BuildingBlock: KIFKEQ_clean_linker_1, # of connection points: 2
#     Edge 56, Type (0, 1), BuildingBlock: KIFKEQ_clean_linker_1, # of connection points: 2
#     Edge 57, Type (0, 1), BuildingBlock: KIFKEQ_clean_linker_1, # of connection points: 2
#     Edge 58, Type (0, 1), BuildingBlock: KIFKEQ_clean_linker_1, # of connection points: 2
#     Edge 59, Type (0, 1), BuildingBlock: KIFKEQ_clean_linker_1, # of connection points: 2
#     Edge 60, Type (0, 1), BuildingBlock: KIFKEQ_clean_linker_1, # of connection points: 2
#     Edge 61, Type (0, 1), BuildingBlock: KIFKEQ_clean_linker_1, # of connection points: 2
#     Edge 62, Type (0, 1), BuildingBlock: KIFKEQ_clean_linker_1, # of connection points: 2
#     Edge 63, Type (0, 1), BuildingBlock: KIFKEQ_clean_linker_1, # of connection points: 2
#     Edge 64, Type (0, 1), BuildingBlock: KIFKEQ_clean_linker_1, # of connection points: 2
#     Edge 65, Type (0, 1), BuildingBlock: KIFKEQ_clean_linker_1, # of connection points: 2
#     Edge 66, Type (0, 1), BuildingBlock: KIFKEQ_clean_linker_1, # of connection points: 2
#     Edge 67, Type (0, 1), BuildingBlock: KIFKEQ_clean_linker_1, # of connection points: 2
#     Edge 68, Type (0, 1), BuildingBlock: KIFKEQ_clean_linker_1, # of connection points: 2
#     Edge 69, Type (0, 1), BuildingBlock: KIFKEQ_clean_linker_1, # of connection points: 2
#     Edge 70, Type (0, 1), BuildingBlock: KIFKEQ_clean_linker_1, # of connection points: 2
#     Edge 71, Type (0, 1), BuildingBlock: KIFKEQ_clean_linker_1, # of connection points: 2
#     Edge 72, Type (0, 1), BuildingBlock: KIFKEQ_clean_linker_1, # of connection points: 2
#     Edge 73, Type (0, 1), BuildingBlock: KIFKEQ_clean_linker_1, # of connection points: 2
#     Edge 74, Type (0, 1), BuildingBlock: KIFKEQ_clean_linker_1, # of connection points: 2
#     Edge 75, Type (0, 1), BuildingBlock: KIFKEQ_clean_linker_1, # of connection points: 2
#     Edge 76, Type (0, 1), BuildingBlock: KIFKEQ_clean_linker_1, # of connection points: 2
#     Edge 77, Type (0, 1), BuildingBlock: KIFKEQ_clean_linker_1, # of connection points: 2
#     Edge 78, Type (0, 1), BuildingBlock: KIFKEQ_clean_linker_1, # of connection points: 2
#     Edge 79, Type (0, 1), BuildingBlock: KIFKEQ_clean_linker_1, # of connection points: 2
#     Edge 80, Type (0, 1), BuildingBlock: KIFKEQ_clean_linker_1, # of connection points: 2
# Relax obj value: 0.032
# Max RMSD: 0.156
# Mean RMSD: 0.091
data_MOF--net-eea--node1-CUKXOW_clean_sbu_0--node2-BETDAH_clean_linker_0--edge1-KIFKEQ_clean_linker_1
_symmetry_space_group_name_H-M    P1
_symmetry_Int_Tables_number       1
_symmetry_cell_setting            triclinic
loop_
_symmetry_equiv_pos_as_xyz
'x, y, z'
_cell_length_a     61.194165
_cell_length_b     57.71571
_cell_length_c     51.100885
_cell_angle_alpha  93.28828
_cell_angle_beta   93.287565
_cell_angle_gamma 119.9256
loop_
_atom_site_label
_atom_site_type_symbol
_atom_site_fract_x
_atom_site_fract_y
_atom_site_fract_z
_atom_type_partial_charge
H0 H 0.25381 0.08169 0.45446 0.0
H1 H 0.2407 0.14853 0.4527 0.0
H2 H 0.19932 0.07921 0.39611 0.0
C3 C 0.24452 0.09149 0.44548 0.0
C4 C 0.2264 0.07783 0.42383 0.0
C5 C 0.24962 0.11689 0.45642 0.0
C6 C 0.23685 0.12894 0.44463 0.0
C7 C 0.21883 0.11536 0.42265 0.0
C8 C 0.21344 0.08974 0.4128 0.0
N9 N 0.20512 0.12624 0.41017 0.0
C10 C 0.21148 0.15304 0.4128 0.0
H11 H 0.92864 0.18684 0.46099 0.0
H12 H 0.85787 0.11439 0.4352 0.0
H13 H 0.91924 0.14265 0.38648 0.0
C14 C 0.91687 0.17012 0.4463 0.0
C15 C 0.9271 0.16688 0.42337 0.0
C16 C 0.89189 0.1512 0.45085 0.0
C17 C 0.87718 0.12893 0.43207 0.0
C18 C 0.88712 0.12601 0.40879 0.0
C19 C 0.91183 0.14506 0.40457 0.0
N20 N 0.87281 0.10456 0.38883 0.0
C21 C 0.85214 0.07993 0.39276 0.0
H22 H 0.83531 0.74448 0.47099 0.0
H23 H 0.89322 0.72547 0.45488 0.0
H24 H 0.86681 0.75872 0.39646 0.0
C25 C 0.84869 0.74443 0.45801 0.0
C26 C 0.84949 0.7536 0.43302 0.0
C27 C 0.86427 0.73414 0.46607 0.0
C28 C 0.88153 0.73392 0.44918 0.0
C29 C 0.8821 0.74257 0.42395 0.0
C30 C 0.86607 0.75216 0.41601 0.0
N31 N 0.89657 0.73917 0.40511 0.0
C32 C 0.92243 0.74916 0.40952 0.0
H33 H 0.08302 0.2676 0.55939 0.0
H34 H 0.14014 0.24453 0.5645 0.0
H35 H 0.07957 0.21187 0.6138 0.0
C36 C 0.09092 0.25642 0.5682 0.0
C37 C 0.07894 0.24038 0.58848 0.0
C38 C 0.11281 0.25777 0.55894 0.0
C39 C 0.12311 0.24341 0.57094 0.0
C40 C 0.11106 0.22703 0.59083 0.0
C41 C 0.08898 0.2253 0.59902 0.0
N42 N 0.1198 0.211 0.60245 0.0
C43 C 0.14444 0.21569 0.60347 0.0
H44 H 0.75556 0.82215 0.57121 0.0
H45 H 0.75953 0.89802 0.59052 0.0
H46 H 0.7877 0.86536 0.64778 0.0
C47 C 0.76077 0.8394 0.58511 0.0
C48 C 0.77204 0.84108 0.61045 0.0
C49 C 0.7561 0.85983 0.57764 0.0
C50 C 0.76325 0.88233 0.59587 0.0
C51 C 0.77448 0.88409 0.62126 0.0
C52 C 0.77868 0.8635 0.62828 0.0
N53 N 0.7816 0.9059 0.64066 0.0
C54 C 0.78174 0.9296 0.63672 0.0
H55 H 0.18316 0.92799 0.56409 0.0
H56 H 0.11874 0.85087 0.57435 0.0
H57 H 0.15004 0.91425 0.63753 0.0
C58 C 0.169 0.91472 0.57621 0.0
C59 C 0.1687 0.92446 0.60189 0.0
C60 C 0.1514 0.88808 0.56603 0.0
C61 C 0.13221 0.87156 0.58155 0.0
C62 C 0.13169 0.88125 0.6073 0.0
C63 C 0.15009 0.9074 0.61734 0.0
N64 N 0.11471 0.86447 0.62469 0.0
C65 C 0.08901 0.84666 0.61807 0.0
H66 H 0.91516 0.41303 0.78673 0.0
H67 H 0.92144 0.48984 0.77704 0.0
H68 H 0.89778 0.43078 0.71048 0.0
C69 C 0.91311 0.42663 0.77439 0.0
C70 C 0.90546 0.41864 0.74741 0.0
C71 C 0.91913 0.45234 0.78536 0.0
C72 C 0.91693 0.47004 0.7689 0.0
C73 C 0.90915 0.46208 0.74181 0.0
C74 C 0.90385 0.43669 0.73133 0.0
N75 N 0.90696 0.47902 0.72408 0.0
C76 C 0.90448 0.50121 0.73076 0.0
H77 H 0.59603 0.51981 0.80062 0.0
H78 H 0.53481 0.43743 0.78723 0.0
H79 H 0.59533 0.46668 0.73771 0.0
C80 C 0.58711 0.50007 0.78982 0.0
C81 C 0.59856 0.4959 0.76838 0.0
C82 C 0.56406 0.47912 0.79707 0.0
C83 C 0.55222 0.45396 0.78183 0.0
C84 C 0.56346 0.44978 0.76018 0.0
C85 C 0.58658 0.47055 0.75395 0.0
N86 N 0.55264 0.42486 0.74442 0.0
C87 C 0.52814 0.4035 0.74465 0.0
H88 H 0.50403 0.07848 0.80294 0.0
H89 H 0.55736 0.05212 0.7897 0.0
H90 H 0.53541 0.08659 0.72851 0.0
C91 C 0.51675 0.07636 0.79037 0.0
C92 C 0.51835 0.08453 0.76484 0.0
C93 C 0.53083 0.06482 0.79965 0.0
C94 C 0.54725 0.06209 0.78328 0.0
C95 C 0.54914 0.07027 0.75777 0.0
C96 C 0.5348 0.08158 0.74867 0.0
N97 N 0.56145 0.0624 0.73971 0.0
C98 C 0.58681 0.0784 0.73583 0.0
H99 H 0.7487 0.60588 0.88941 0.0
H100 H 0.8116 0.59214 0.90225 0.0
H101 H 0.75241 0.56246 0.95348 0.0
C102 C 0.75851 0.5978 0.90057 0.0
C103 C 0.74811 0.58447 0.92278 0.0
C104 C 0.78149 0.6007 0.89282 0.0
C105 C 0.79381 0.58981 0.90763 0.0
C106 C 0.78315 0.57601 0.92948 0.0
C107 C 0.76051 0.57345 0.93675 0.0
N108 N 0.7942 0.56404 0.94475 0.0
C109 C 0.81767 0.56636 0.94242 0.0
H110 H 0.42058 0.1516 0.90246 0.0
H111 H 0.43365 0.23207 0.91862 0.0
H112 H 0.45773 0.1969 0.97697 0.0
C113 C 0.42809 0.17002 0.91534 0.0
C114 C 0.43971 0.17173 0.94047 0.0
C115 C 0.42553 0.19158 0.90711 0.0
C116 C 0.43495 0.21509 0.92465 0.0
C117 C 0.44626 0.21673 0.94997 0.0
C118 C 0.44846 0.1951 0.95761 0.0
N119 N 0.45578 0.23967 0.96853 0.0
C120 C 0.45808 0.2642 0.96368 0.0
H121 H 0.84253 0.25754 0.89826 0.0
H122 H 0.78377 0.17735 0.90931 0.0
H123 H 0.81464 0.23868 0.97415 0.0
C124 C 0.82939 0.24343 0.91063 0.0
C125 C 0.83025 0.25181 0.93727 0.0
C126 C 0.81281 0.21659 0.90023 0.0
C127 C 0.79651 0.19814 0.91679 0.0
C128 C 0.79731 0.20627 0.9434 0.0
C129 C 0.81421 0.23286 0.9535 0.0
N130 N 0.78342 0.18734 0.96102 0.0
C131 C 0.75712 0.17314 0.95939 0.0
H132 H 0.57582 0.74339 0.13234 0.0
H133 H 0.58038 0.81874 0.11906 0.0
H134 H 0.55193 0.75522 0.05608 0.0
C135 C 0.57247 0.75585 0.11951 0.0
C136 C 0.56282 0.74594 0.0932 0.0
C137 C 0.57894 0.78209 0.12913 0.0
C138 C 0.57544 0.79851 0.11194 0.0
C139 C 0.56565 0.78863 0.08551 0.0
C140 C 0.5596 0.76259 0.07642 0.0
N141 N 0.56197 0.80411 0.06703 0.0
C142 C 0.56256 0.82825 0.07267 0.0
H143 H 0.2612 0.84505 0.13476 0.0
H144 H 0.19659 0.76531 0.11582 0.0
H145 H 0.25749 0.7956 0.0665 0.0
C146 C 0.25121 0.82636 0.12208 0.0
C147 C 0.26205 0.82309 0.09966 0.0
C148 C 0.22756 0.8056 0.12819 0.0
C149 C 0.21486 0.78132 0.11152 0.0
C150 C 0.22575 0.77791 0.08917 0.0
C151 C 0.24917 0.7987 0.08357 0.0
N152 N 0.21414 0.75398 0.07172 0.0
C153 C 0.19008 0.73198 0.07249 0.0
H154 H 0.1692 0.4119 0.14179 0.0
H155 H 0.2323 0.40241 0.12368 0.0
H156 H 0.19861 0.42963 0.06632 0.0
C157 C 0.18297 0.41387 0.12834 0.0
C158 C 0.18153 0.4219 0.10314 0.0
C159 C 0.2012 0.40683 0.1359 0.0
C160 C 0.21849 0.40824 0.11816 0.0
C161 C 0.21735 0.41648 0.09301 0.0
C162 C 0.19896 0.42313 0.08574 0.0
N163 N 0.23324 0.41677 0.07377 0.0
C164 C 0.25819 0.42299 0.079 0.0
H165 H 0.41145 0.92709 0.21854 0.0
H166 H 0.48076 0.92774 0.24154 0.0
H167 H 0.41911 0.89438 0.28974 0.0
C168 C 0.42268 0.92258 0.23225 0.0
C169 C 0.41206 0.90943 0.25443 0.0
C170 C 0.44748 0.92919 0.22731 0.0
C171 C 0.46156 0.92242 0.24489 0.0
C172 C 0.45122 0.90996 0.26747 0.0
C173 C 0.42674 0.90376 0.2721 0.0
N174 N 0.46501 0.90414 0.28662 0.0
C175 C 0.48531 0.90055 0.28207 0.0
H176 H 0.10143 0.49276 0.22921 0.0
H177 H 0.09167 0.56073 0.24936 0.0
H178 H 0.12201 0.53192 0.30798 0.0
C179 C 0.1029 0.50835 0.24324 0.0
C180 C 0.11207 0.50972 0.26954 0.0
C181 C 0.09514 0.52649 0.23534 0.0
C182 C 0.09807 0.54698 0.25428 0.0
C183 C 0.10809 0.54903 0.28028 0.0
C184 C 0.11456 0.53021 0.28776 0.0
N185 N 0.11096 0.56906 0.29987 0.0
C186 C 0.1146 0.59411 0.29493 0.0
H187 H 0.5126 0.59489 0.23194 0.0
H188 H 0.45521 0.51623 0.24887 0.0
H189 H 0.48983 0.5813 0.31034 0.0
C190 C 0.50057 0.58168 0.24566 0.0
C191 C 0.5029 0.59169 0.27202 0.0
C192 C 0.4835 0.55447 0.23709 0.0
C193 C 0.46808 0.53734 0.25506 0.0
C194 C 0.47017 0.54725 0.28138 0.0
C195 C 0.4877 0.57418 0.28974 0.0
N196 N 0.45704 0.52991 0.30052 0.0
C197 C 0.43081 0.51414 0.29897 0.0
Tb198 Tb 0.53294 0.02643 0.01699 0.0
C199 C 0.52009 0.96997 0.03372 0.0
Tb200 Tb 0.47703 0.98543 0.02438 0.0
O201 O 0.54377 0.02878 0.05918 0.0
O202 O 0.50747 0.01997 0.04576 0.0
O203 O 0.53627 0.99116 0.02216 0.0
C204 C 0.43318 0.9518 0.04269 0.0
O205 O 0.49718 0.96535 0.03853 0.0
C206 C 0.48813 0.99059 0.97547 0.0
C207 C 0.48969 0.04151 0.00689 0.0
O208 O 0.44207 0.94634 0.02223 0.0
O209 O 0.44896 0.97616 0.05278 0.0
O210 O 0.46562 0.98279 0.98256 0.0
O211 O 0.50232 0.99221 0.99523 0.0
O212 O 0.47374 0.02075 0.01912 0.0
O213 O 0.51253 0.04594 1.00196 0.0
C214 C 0.57696 0.06019 0.999 0.0
O215 O 0.56723 0.06601 0.01849 0.0
O216 O 0.56185 0.03537 0.98962 0.0
C217 C 0.52124 0.02156 0.06584 0.0
Tb218 Tb 0.98323 0.50637 0.01009 0.0
C219 C 0.04151 0.54737 0.021 0.0
Tb220 Tb 0.01869 0.48363 0.01729 0.0
O221 O 0.99343 0.52309 0.0514 0.0
O222 O 0.99259 0.48743 0.03964 0.0
O223 O 0.01914 0.54386 0.01203 0.0
C224 C 0.05144 0.46997 0.03757 0.0
O225 O 0.04528 0.52698 0.02498 0.0
C226 C 0.00543 0.48595 0.96817 0.0
C227 C 0.96095 0.44327 0.0059 0.0
O228 O 0.03792 0.46028 0.01502 0.0
O229 O 0.04668 0.48751 0.0487 0.0
O230 O 0.01236 0.46922 0.97546 0.0
O231 O 0.00929 0.50234 0.98767 0.0
O232 O 0.9822 0.44763 0.0191 0.0
O233 O 0.95815 0.4633 0.9981 0.0
C234 C 0.95006 0.52069 0.99286 0.0
O235 O 0.95097 0.51213 0.01562 0.0
O236 O 0.96774 0.52105 0.97975 0.0
C237 C 0.99802 0.50468 0.05885 0.0
Tb238 Tb 0.47749 0.49515 0.01306 0.0
C239 C 0.49519 0.45359 0.99969 0.0
Tb240 Tb 0.5356 0.51652 0.01007 0.0
O241 O 0.46871 0.48378 0.97018 0.0
O242 O 0.50473 0.51314 0.98618 0.0
O243 O 0.47721 0.45728 0.00903 0.0
C244 C 0.58075 0.5333 0.99208 0.0
O245 O 0.5182 0.47371 0.99655 0.0
C246 C 0.52141 0.51316 0.05784 0.0
C247 C 0.51789 0.55774 0.02519 0.0
O248 O 0.5714 0.51639 0.0097 0.0
O249 O 0.56477 0.5408 0.98479 0.0
O250 O 0.54479 0.52787 0.05273 0.0
O251 O 0.50844 0.49865 0.03713 0.0
O252 O 0.53578 0.55428 0.01528 0.0
O253 O 0.49497 0.53748 0.02827 0.0
C254 C 0.43212 0.47996 0.02976 0.0
O255 O 0.44296 0.49777 0.01325 0.0
O256 O 0.44674 0.4706 0.03665 0.0
C257 C 0.49211 0.49877 0.96532 0.0
Tb258 Tb 0.20516 0.36496 0.35439 0.0
C259 C 0.18892 0.30685 0.36947 0.0
Tb260 Tb 0.14782 0.3243 0.35712 0.0
O261 O 0.21317 0.36592 0.39693 0.0
O262 O 0.17764 0.35735 0.38109 0.0
O263 O 0.20646 0.32833 0.3593 0.0
C264 C 0.10253 0.29151 0.3731 0.0
O265 O 0.16591 0.30282 0.37262 0.0
C266 C 0.16239 0.33066 0.30942 0.0
C267 C 0.16326 0.38148 0.34066 0.0
O268 O 0.11232 0.28564 0.35371 0.0
O269 O 0.11822 0.31583 0.38343 0.0
O270 O 0.13907 0.32157 0.31442 0.0
O271 O 0.17531 0.33227 0.33031 0.0
O272 O 0.14591 0.36022 0.35121 0.0
O273 O 0.18653 0.38588 0.33799 0.0
C274 C 0.25121 0.39778 0.33983 0.0
O275 O 0.23917 0.40483 0.35562 0.0
O276 O 0.23737 0.37228 0.33235 0.0
C277 C 0.19004 0.35799 0.40193 0.0
Tb278 Tb 0.65401 0.84469 0.34839 0.0
C279 C 0.71098 0.88831 0.36232 0.0
Tb280 Tb 0.69275 0.8257 0.35519 0.0
O281 O 0.66121 0.8598 0.3901 0.0
O282 O 0.66557 0.82737 0.37772 0.0
O283 O 0.68868 0.88342 0.35139 0.0
C284 C 0.72788 0.81432 0.37284 0.0
O285 O 0.71572 0.86886 0.36769 0.0
C286 C 0.67751 0.82648 0.30636 0.0
C287 C 0.63593 0.78214 0.34017 0.0
O288 O 0.72779 0.82483 0.35108 0.0
O289 O 0.70823 0.81024 0.38462 0.0
O290 O 0.68523 0.81032 0.31357 0.0
O291 O 0.68098 0.84273 0.32586 0.0
O292 O 0.65801 0.78686 0.35162 0.0
O293 O 0.63138 0.80174 0.3349 0.0
C294 C 0.61876 0.85557 0.33 0.0
O295 O 0.61717 0.84206 0.34997 0.0
O296 O 0.64025 0.86308 0.3205 0.0
C297 C 0.66892 0.84361 0.39721 0.0
Tb298 Tb 0.14186 0.82879 0.34136 0.0
C299 C 0.1574 0.78586 0.3265 0.0
Tb300 Tb 0.19878 0.84836 0.33619 0.0
O301 O 0.1321 0.81509 0.29923 0.0
O302 O 0.16804 0.84671 0.31331 0.0
O303 O 0.14038 0.79033 0.33716 0.0
C304 C 0.24282 0.86107 0.31743 0.0
O305 O 0.18016 0.80558 0.32202 0.0
C306 C 0.18615 0.8456 0.3845 0.0
C307 C 0.18351 0.89139 0.35184 0.0
O308 O 0.23397 0.84696 0.33715 0.0
O309 O 0.22696 0.86809 0.30845 0.0
O310 O 0.20925 0.86033 0.37863 0.0
O311 O 0.17257 0.83076 0.36422 0.0
O312 O 0.20116 0.88719 0.34237 0.0
O313 O 0.16021 0.87172 0.35472 0.0
C314 C 0.09751 0.815 0.35984 0.0
O315 O 0.10639 0.82964 0.34046 0.0
O316 O 0.1135 0.80804 0.36862 0.0
C317 C 0.15485 0.83126 0.29315 0.0
Tb318 Tb 0.86878 0.69707 0.68281 0.0
C319 C 0.85517 0.63945 0.69799 0.0
Tb320 Tb 0.81289 0.65644 0.69028 0.0
O321 O 0.87904 0.69973 0.72518 0.0
O322 O 0.843 0.69145 0.71122 0.0
O323 O 0.87223 0.662 0.68889 0.0
C324 C 0.76873 0.62479 0.70927 0.0
O325 O 0.83144 0.63355 0.7007 0.0
C326 C 0.8242 0.65921 0.64135 0.0
C327 C 0.82657 0.7131 0.67424 0.0
O328 O 0.79094 0.63266 0.72124 0.0
O329 O 0.77147 0.63439 0.68663 0.0
O330 O 0.80145 0.65045 0.648 0.0
O331 O 0.83838 0.66228 0.66165 0.0
O332 O 0.81215 0.69375 0.68881 0.0
O333 O 0.84833 0.71618 0.66706 0.0
C334 C 0.9125 0.72977 0.66362 0.0
O335 O 0.89656 0.70515 0.65434 0.0
O336 O 0.90384 0.73604 0.68383 0.0
C337 C 0.85648 0.69298 0.73151 0.0
Tb338 Tb 0.32346 0.17651 0.67748 0.0
C339 C 0.38068 0.2195 0.69155 0.0
Tb340 Tb 0.36221 0.15678 0.6827 0.0
O341 O 0.33006 0.19032 0.71964 0.0
O342 O 0.33608 0.15941 0.70599 0.0
O343 O 0.35837 0.21517 0.68122 0.0
C344 C 0.39657 0.14388 0.69968 0.0
O345 O 0.38534 0.19974 0.69564 0.0
C346 C 0.34625 0.15777 0.63436 0.0
C347 C 0.30466 0.11385 0.66934 0.0
O348 O 0.39829 0.15765 0.67987 0.0
O349 O 0.37551 0.13733 0.7098 0.0
O350 O 0.35455 0.14197 0.64107 0.0
O351 O 0.34984 0.17404 0.65398 0.0
O352 O 0.32704 0.11835 0.67962 0.0
O353 O 0.30007 0.13354 0.66467 0.0
C354 C 0.28819 0.18818 0.66056 0.0
O355 O 0.28802 0.17657 0.68163 0.0
O356 O 0.30825 0.19326 0.64904 0.0
C357 C 0.33921 0.17512 0.72587 0.0
Tb358 Tb 0.81003 0.16763 0.66961 0.0
C359 C 0.82556 0.12194 0.6686 0.0
Tb360 Tb 0.86659 0.18376 0.6719 0.0
O361 O 0.80985 0.17564 0.62787 0.0
O362 O 0.83437 0.16431 0.64433 0.0
O363 O 0.80761 0.12836 0.67141 0.0
C364 C 0.9125 0.20079 0.65558 0.0
O365 O 0.84963 0.14022 0.66651 0.0
C366 C 0.84726 0.17739 0.71727 0.0
C367 C 0.8513 0.22931 0.67514 0.0
O368 O 0.90766 0.20009 0.68008 0.0
O369 O 0.8916 0.19202 0.64055 0.0
O370 O 0.86646 0.17422 0.71296 0.0
O371 O 0.84205 0.18649 0.69757 0.0
O372 O 0.86864 0.22282 0.66923 0.0
O373 O 0.8279 0.21088 0.67931 0.0
C374 C 0.76314 0.14999 0.68319 0.0
O375 O 0.77197 0.16214 0.66238 0.0
O376 O 0.78062 0.14749 0.69612 0.0
C377 C 0.8291 0.17252 0.62409 0.0
H378 H 0.30582 0.85476 0.1323 0.0
H379 H 0.27436 0.84025 0.05123 0.0
H380 H 0.34762 0.88683 0.11951 0.0
H381 H 0.31589 0.87206 0.0385 0.0
H382 H 0.39723 0.90214 0.02056 0.0
H383 H 0.35593 0.8725 0.03551 0.0
H384 H 0.37228 0.9309 0.10147 0.0
H385 H 0.41384 0.96047 0.08656 0.0
C386 C 0.30775 0.85873 0.11185 0.0
C387 C 0.28687 0.84473 0.09273 0.0
C388 C 0.33167 0.87703 0.10451 0.0
C389 C 0.33514 0.88165 0.07792 0.0
C390 C 0.314 0.86846 0.05904 0.0
C391 C 0.29019 0.85028 0.06635 0.0
C392 C 0.39201 0.90859 0.03828 0.0
C393 C 0.40861 0.9336 0.05234 0.0
C394 C 0.36831 0.89172 0.04677 0.0
C395 C 0.36072 0.89946 0.06955 0.0
C396 C 0.3776 0.92431 0.08392 0.0
C397 C 0.40131 0.94127 0.07533 0.0
H398 H 0.16118 0.44659 0.13273 0.0
H399 H 0.15612 0.4114 0.05401 0.0
H400 H 0.12839 0.45653 0.11841 0.0
H401 H 0.12539 0.42361 0.03921 0.0
H402 H 0.05413 0.42583 0.02216 0.0
H403 H 0.08389 0.41292 0.03961 0.0
H404 H 0.11996 0.48479 0.09439 0.0
H405 H 0.08889 0.49657 0.07787 0.0
C406 C 0.15317 0.44099 0.11237 0.0
C407 C 0.16152 0.42825 0.09457 0.0
C408 C 0.13459 0.44711 0.10402 0.0
C409 C 0.12411 0.44098 0.07757 0.0
C410 C 0.13254 0.42828 0.05983 0.0
C411 C 0.15069 0.42173 0.06826 0.0
C412 C 0.06837 0.43874 0.03803 0.0
C413 C 0.06937 0.46223 0.04859 0.0
C414 C 0.08562 0.4315 0.04795 0.0
C415 C 0.10471 0.44794 0.06827 0.0
C416 C 0.10542 0.47138 0.07901 0.0
C417 C 0.08776 0.4783 0.06943 0.0
H418 H 0.57274 0.72971 0.04618 0.0
H419 H 0.53823 0.69969 0.1174 0.0
H420 H 0.56126 0.68433 0.02917 0.0
H421 H 0.52752 0.6544 0.10076 0.0
H422 H 0.48839 0.57332 0.05059 0.0
H423 H 0.49916 0.61868 0.06669 0.0
H424 H 0.57248 0.65021 0.0372 0.0
H425 H 0.56161 0.60496 0.02063 0.0
C426 C 0.56266 0.71341 0.0582 0.0
C427 C 0.55632 0.71832 0.08312 0.0
C428 C 0.55633 0.68744 0.04856 0.0
C429 C 0.54346 0.66572 0.06359 0.0
C430 C 0.53718 0.67063 0.08855 0.0
C431 C 0.54357 0.69663 0.09822 0.0
C432 C 0.50676 0.58991 0.04736 0.0
C433 C 0.5241 0.58543 0.03422 0.0
C434 C 0.513 0.61591 0.05681 0.0
C435 C 0.5367 0.63808 0.0533 0.0
C436 C 0.55395 0.63362 0.03997 0.0
C437 C 0.54774 0.60762 0.03057 0.0
H438 H 0.85837 0.26929 0.98543 0.0
H439 H 0.84369 0.29833 0.91426 0.0
H440 H 0.88801 0.31524 0.00365 0.0
H441 H 0.87443 0.34427 0.93194 0.0
H442 H 0.91413 0.42573 0.97983 0.0
H443 H 0.88171 0.37966 0.96445 0.0
H444 H 0.92925 0.35118 0.99826 0.0
H445 H 0.96126 0.39703 0.01427 0.0
C446 C 0.86136 0.28547 0.97368 0.0
C447 C 0.84852 0.28002 0.94836 0.0
C448 C 0.87866 0.31186 0.98402 0.0
C449 C 0.88372 0.33356 0.96929 0.0
C450 C 0.8708 0.32813 0.94401 0.0
C451 C 0.85341 0.30172 0.9337 0.0
C452 C 0.91755 0.40962 0.98426 0.0
C453 C 0.94033 0.41515 0.99836 0.0
C454 C 0.89903 0.38318 0.97522 0.0
C455 C 0.90286 0.36163 0.97996 0.0
C456 C 0.92544 0.36717 0.99452 0.0
C457 C 0.9439 0.39356 0.00365 0.0
H458 H 0.70325 0.56896 0.89305 0.0
H459 H 0.7389 0.59275 0.97291 0.0
H460 H 0.6625 0.55779 0.90927 0.0
H461 H 0.69841 0.58148 0.98903 0.0
H462 H 0.61807 0.52362 0.00941 0.0
H463 H 0.65873 0.53831 0.99169 0.0
H464 H 0.63918 0.57722 0.93253 0.0
H465 H 0.59842 0.56241 0.95029 0.0
C466 C 0.70248 0.57227 0.91397 0.0
C467 C 0.72419 0.58137 0.93174 0.0
C468 C 0.67916 0.56581 0.92327 0.0
C469 C 0.67719 0.5683 0.95048 0.0
C470 C 0.69919 0.57872 0.96803 0.0
C471 C 0.72239 0.58524 0.95878 0.0
C472 C 0.6225 0.53534 0.99266 0.0
C473 C 0.60524 0.54204 0.98132 0.0
C474 C 0.64581 0.54387 0.98258 0.0
C475 C 0.65223 0.55911 0.96082 0.0
C476 C 0.63474 0.56545 0.94924 0.0
C477 C 0.6115 0.55711 0.95949 0.0
H478 H 0.45661 0.14321 0.91198 0.0
H479 H 0.43205 0.1507 0.98796 0.0
H480 H 0.46705 0.1102 0.92725 0.0
H481 H 0.44315 0.11837 0.00347 0.0
H482 H 0.44618 0.04216 0.01568 0.0
H483 H 0.4318 0.07126 0.99819 0.0
H484 H 0.49957 0.11114 0.95822 0.0
H485 H 0.51378 0.08185 0.97526 0.0
C486 C 0.45315 0.13756 0.93182 0.0
C487 C 0.44364 0.14968 0.9488 0.0
C488 C 0.45941 0.1189 0.94068 0.0
C489 C 0.45616 0.11183 0.96667 0.0
C490 C 0.44576 0.12323 0.98331 0.0
C491 C 0.43961 0.14194 0.97449 0.0
C492 C 0.45805 0.05715 0.00319 0.0
C493 C 0.48123 0.05974 0.99705 0.0
C494 C 0.44982 0.07388 0.99322 0.0
C495 C 0.4645 0.0935 0.97675 0.0
C496 C 0.48762 0.09601 0.97054 0.0
C497 C 0.4959 0.07937 0.98058 0.0
H498 H 0.71775 0.14251 0.9221 0.0
H499 H 0.73686 0.17087 0.00464 0.0
H500 H 0.67272 0.11646 0.92944 0.0
H501 H 0.69234 0.1446 0.01234 0.0
H502 H 0.60942 0.11263 0.01666 0.0
H503 H 0.65216 0.14165 0.00467 0.0
H504 H 0.64418 0.07714 0.95022 0.0
H505 H 0.60109 0.04845 0.96173 0.0
C506 C 0.71219 0.14318 0.94175 0.0
C507 C 0.73046 0.15861 0.96284 0.0
C508 C 0.68651 0.1282 0.94603 0.0
C509 C 0.67882 0.12846 0.97149 0.0
C510 C 0.6974 0.14427 0.99241 0.0
C511 C 0.72292 0.15919 0.98809 0.0
C512 C 0.61674 0.10478 1.00194 0.0
C513 C 0.60206 0.07826 0.99027 0.0
C514 C 0.64129 0.12134 0.99517 0.0
C515 C 0.6518 0.11168 0.97667 0.0
C516 C 0.63668 0.08536 0.96435 0.0
C517 C 0.61205 0.06884 0.97106 0.0
H518 H 0.83149 0.53769 0.91087 0.0
H519 H 0.85472 0.59187 0.98171 0.0
H520 H 0.86613 0.52886 0.92165 0.0
H521 H 0.88935 0.58329 0.99257 0.0
H522 H 0.91689 0.52688 0.02129 0.0
H523 H 0.8876 0.54169 0.00665 0.0
H524 H 0.91383 0.54909 0.92921 0.0
H525 H 0.94329 0.53422 0.94397 0.0
C526 C 0.84454 0.54828 0.92831 0.0
C527 C 0.8408 0.56555 0.94544 0.0
C528 C 0.86428 0.54324 0.93452 0.0
C529 C 0.88024 0.55516 0.95811 0.0
C530 C 0.87714 0.57355 0.97445 0.0
C531 C 0.85754 0.57868 0.96815 0.0
C532 C 0.91643 0.53172 1.00117 0.0
C533 C 0.9323 0.52943 0.98375 0.0
C534 C 0.89982 0.5404 0.99283 0.0
C535 C 0.89859 0.54678 0.96684 0.0
C536 C 0.91436 0.54428 0.94933 0.0
C537 C 0.93121 0.53584 0.95778 0.0
H538 H 0.50345 0.30876 0.97344 0.0
H539 H 0.424 0.28048 0.95502 0.0
H540 H 0.51213 0.35491 0.98008 0.0
H541 H 0.43253 0.32686 0.96091 0.0
H542 H 0.45344 0.40649 0.00911 0.0
H543 H 0.44412 0.36082 0.99701 0.0
H544 H 0.51366 0.39184 0.95968 0.0
H545 H 0.52332 0.43752 0.97237 0.0
C546 C 0.48796 0.31265 0.9702 0.0
C547 C 0.46316 0.2914 0.96359 0.0
C548 C 0.49288 0.33905 0.97393 0.0
C549 C 0.47302 0.34467 0.97112 0.0
C550 C 0.44822 0.32324 0.9636 0.0
C551 C 0.44332 0.29676 0.95995 0.0
C552 C 0.46674 0.4036 0.99829 0.0
C553 C 0.48926 0.42573 0.99197 0.0
C554 C 0.46128 0.37736 0.99113 0.0
C555 C 0.47812 0.37258 0.97735 0.0
C556 C 0.50043 0.39474 0.97063 0.0
C557 C 0.50596 0.42098 0.9779 0.0
H558 H 0.15298 0.71849 0.03397 0.0
H559 H 0.17451 0.68936 0.10078 0.0
H560 H 0.11603 0.67387 0.02178 0.0
H561 H 0.13721 0.64468 0.08916 0.0
H562 H 0.09002 0.56317 0.04053 0.0
H563 H 0.12433 0.60851 0.05485 0.0
H564 H 0.07547 0.63989 0.03352 0.0
H565 H 0.04125 0.59457 0.01857 0.0
C566 C 0.14931 0.70258 0.04641 0.0
C567 C 0.16622 0.70713 0.06836 0.0
C568 C 0.1282 0.67704 0.03947 0.0
C569 C 0.12373 0.65559 0.05436 0.0
C570 C 0.14031 0.66063 0.07701 0.0
C571 C 0.16145 0.6862 0.08389 0.0
C572 C 0.08659 0.57971 0.03867 0.0
C573 C 0.06286 0.57515 0.0282 0.0
C574 C 0.10622 0.60573 0.0472 0.0
C575 C 0.10263 0.62787 0.04556 0.0
C576 C 0.07897 0.62335 0.03487 0.0
C577 C 0.05933 0.59731 0.0263 0.0
H578 H 0.29708 0.4737 0.0839 0.0
H579 H 0.2782 0.39101 0.07177 0.0
H580 H 0.34075 0.48841 0.07489 0.0
H581 H 0.32177 0.40549 0.06239 0.0
H582 H 0.40779 0.44247 0.0637 0.0
H583 H 0.36678 0.42923 0.08011 0.0
H584 H 0.35994 0.4865 0.03456 0.0
H585 H 0.401 0.49985 0.01844 0.0
C586 C 0.30255 0.45875 0.0799 0.0
C587 C 0.28462 0.43133 0.07873 0.0
C588 C 0.32739 0.4671 0.07445 0.0
C589 C 0.33467 0.44812 0.06765 0.0
C590 C 0.31685 0.42062 0.06778 0.0
C591 C 0.29196 0.4123 0.07316 0.0
C592 C 0.39749 0.45222 0.05727 0.0
C593 C 0.40745 0.47209 0.03974 0.0
C594 C 0.37401 0.44461 0.06662 0.0
C595 C 0.36013 0.45686 0.05873 0.0
C596 C 0.37032 0.47696 0.04136 0.0
C597 C 0.39372 0.48446 0.03194 0.0
H598 H 0.53613 0.8432 0.10328 0.0
H599 H 0.58393 0.86608 0.03976 0.0
H600 H 0.52775 0.87997 0.09686 0.0
H601 H 0.57512 0.90215 0.03256 0.0
H602 H 0.56734 0.97567 0.03461 0.0
H603 H 0.58036 0.94427 0.04825 0.0
H604 H 0.50382 0.88939 0.06506 0.0
H605 H 0.49101 0.92115 0.05227 0.0
C606 C 0.54519 0.8565 0.08829 0.0
C607 C 0.56084 0.85224 0.07217 0.0
C608 C 0.54019 0.87731 0.08436 0.0
C609 C 0.55059 0.89398 0.06404 0.0
C610 C 0.56705 0.89008 0.04863 0.0
C611 C 0.5721 0.8694 0.05268 0.0
C612 C 0.55328 0.95693 0.04126 0.0
C613 C 0.52806 0.95087 0.0421 0.0
C614 C 0.56075 0.93886 0.04905 0.0
C615 C 0.54316 0.91418 0.05772 0.0
C616 C 0.51802 0.90834 0.05892 0.0
C617 C 0.51059 0.92649 0.05131 0.0
H618 H 0.96188 0.15416 0.40769 0.0
H619 H 0.95265 0.22199 0.4291 0.0
H620 H 0.00479 0.18441 0.39724 0.0
H621 H 0.99561 0.2525 0.4181 0.0
H622 H 0.08199 0.30026 0.41588 0.0
H623 H 0.0403 0.2704 0.4302 0.0
H624 H 0.02477 0.21281 0.36366 0.0
H625 H 0.06661 0.24231 0.34995 0.0
C626 C 0.96905 0.1756 0.41006 0.0
C627 C 0.95383 0.18571 0.41894 0.0
C628 C 0.99362 0.19296 0.40399 0.0
C629 C 0.00359 0.22091 0.40645 0.0
C630 C 0.98863 0.2311 0.41614 0.0
C631 C 0.96402 0.21366 0.42241 0.0
C632 C 0.0696 0.28116 0.40441 0.0
C633 C 0.07745 0.27353 0.38183 0.0
C634 C 0.04569 0.26413 0.41251 0.0
C635 C 0.02915 0.23914 0.39814 0.0
C636 C 0.03715 0.23165 0.3755 0.0
C637 C 0.06106 0.24862 0.36751 0.0
H638 H 0.83651 0.78562 0.46196 0.0
H639 H 0.8235 0.7442 0.38447 0.0
H640 H 0.80781 0.80141 0.44785 0.0
H641 H 0.79527 0.76042 0.37033 0.0
H642 H 0.7667 0.8169 0.34721 0.0
H643 H 0.79701 0.80337 0.36209 0.0
H644 H 0.76165 0.78186 0.43446 0.0
H645 H 0.73144 0.79554 0.41959 0.0
C646 C 0.82747 0.77979 0.44197 0.0
C647 C 0.83237 0.76366 0.42436 0.0
C648 C 0.81108 0.78889 0.43389 0.0
C649 C 0.79936 0.78221 0.40797 0.0
C650 C 0.80435 0.76625 0.39031 0.0
C651 C 0.82058 0.757 0.39843 0.0
C652 C 0.76552 0.80939 0.36633 0.0
C653 C 0.74675 0.80715 0.38224 0.0
C654 C 0.78276 0.80153 0.37479 0.0
C655 C 0.78165 0.79147 0.3994 0.0
C656 C 0.76311 0.78974 0.41551 0.0
C657 C 0.74576 0.79742 0.40695 0.0
H658 H 0.18169 0.03106 0.42252 0.0
H659 H 0.25789 0.06401 0.40095 0.0
H660 H 0.17175 0.98631 0.40515 0.0
H661 H 0.24778 0.01967 0.38172 0.0
H662 H 0.22985 0.93296 0.37178 0.0
H663 H 0.24037 0.97774 0.38952 0.0
H664 H 0.16303 0.95776 0.36815 0.0
H665 H 0.15237 0.91247 0.35219 0.0
C666 C 0.1962 0.02862 0.41372 0.0
C667 C 0.22051 0.05079 0.41306 0.0
C668 C 0.19051 0.00301 0.40348 0.0
C669 C 0.20885 0.99907 0.39172 0.0
C670 C 0.23322 0.02157 0.39099 0.0
C671 C 0.23904 0.04707 0.40181 0.0
C672 C 0.21518 0.93827 0.37081 0.0
C673 C 0.19029 0.91923 0.36066 0.0
C674 C 0.22121 0.96406 0.38087 0.0
C675 C 0.2026 0.97168 0.38048 0.0
C676 C 0.17782 0.95266 0.36955 0.0
C677 C 0.17169 0.92669 0.36011 0.0
H678 H 0.49666 0.62722 0.30391 0.0
H679 H 0.55251 0.61995 0.26186 0.0
H680 H 0.52864 0.67307 0.32114 0.0
H681 H 0.5844 0.66592 0.27878 0.0
H682 H 0.64002 0.7369 0.33874 0.0
H683 H 0.60769 0.69107 0.32215 0.0
H684 H 0.5545 0.7179 0.30471 0.0
H685 H 0.58667 0.76368 0.32137 0.0
C686 C 0.51576 0.63545 0.29831 0.0
C687 C 0.52206 0.61999 0.28151 0.0
C688 C 0.53402 0.66175 0.30804 0.0
C689 C 0.55906 0.67308 0.30138 0.0
C690 C 0.56533 0.65766 0.28448 0.0
C691 C 0.54701 0.63145 0.27455 0.0
C692 C 0.62138 0.73303 0.33156 0.0
C693 C 0.61596 0.75402 0.33147 0.0
C694 C 0.60293 0.70679 0.32185 0.0
C695 C 0.57857 0.70089 0.31204 0.0
C696 C 0.57302 0.72177 0.31233 0.0
C697 C 0.59152 0.74803 0.32182 0.0
H698 H 0.37587 0.86106 0.26782 0.0
H699 H 0.38888 0.93962 0.25296 0.0
H700 H 0.33424 0.84891 0.28125 0.0
H701 H 0.34716 0.92762 0.26681 0.0
H702 H 0.26145 0.88782 0.27446 0.0
H703 H 0.30137 0.89882 0.25651 0.0
H704 H 0.31849 0.86096 0.31875 0.0
H705 H 0.27843 0.84955 0.33622 0.0
C706 C 0.36976 0.87572 0.2674 0.0
C707 C 0.38572 0.90139 0.25964 0.0
C708 C 0.34595 0.86881 0.27519 0.0
C709 C 0.33752 0.88743 0.27553 0.0
C710 C 0.35303 0.91275 0.26667 0.0
C711 C 0.3769 0.91965 0.25873 0.0
C712 C 0.27381 0.88188 0.28423 0.0
C713 C 0.26693 0.86785 0.3067 0.0
C714 C 0.29669 0.88827 0.27404 0.0
C715 C 0.3131 0.88069 0.28612 0.0
C716 C 0.30611 0.86669 0.30867 0.0
C717 C 0.28325 0.8603 0.31881 0.0
H718 H 0.10009 0.48457 0.31449 0.0
H719 H 0.13876 0.48936 0.24516 0.0
H720 H 0.11286 0.45413 0.33128 0.0
H721 H 0.15081 0.45783 0.26157 0.0
H722 H 0.11777 0.37958 0.3423 0.0
H723 H 0.10481 0.40912 0.32357 0.0
H724 H 0.17875 0.45578 0.29632 0.0
H725 H 0.19163 0.42574 0.31454 0.0
C726 C 0.11128 0.47904 0.30277 0.0
C727 C 0.11858 0.4896 0.27857 0.0
C728 C 0.11838 0.46131 0.31228 0.0
C729 C 0.13289 0.45348 0.29782 0.0
C730 C 0.13988 0.46368 0.27337 0.0
C731 C 0.13273 0.48149 0.26381 0.0
C732 C 0.13136 0.39615 0.3324 0.0
C733 C 0.15584 0.40032 0.33014 0.0
C734 C 0.12392 0.41319 0.3217 0.0
C735 C 0.14074 0.43493 0.30848 0.0
C736 C 0.16521 0.43907 0.30611 0.0
C737 C 0.17267 0.42198 0.31682 0.0
H738 H 0.39215 0.47786 0.26351 0.0
H739 H 0.4101 0.51552 0.34312 0.0
H740 H 0.34745 0.45048 0.27157 0.0
H741 H 0.3659 0.48801 0.35159 0.0
H742 H 0.28153 0.45161 0.35346 0.0
H743 H 0.3242 0.48097 0.34133 0.0
H744 H 0.32115 0.41348 0.29636 0.0
H745 H 0.27824 0.38438 0.30801 0.0
C746 C 0.3864 0.48027 0.28266 0.0
C747 C 0.40425 0.49868 0.30272 0.0
C748 C 0.36092 0.46455 0.28738 0.0
C749 C 0.35301 0.46704 0.31225 0.0
C750 C 0.37113 0.48584 0.3321 0.0
C751 C 0.39647 0.50149 0.32734 0.0
C752 C 0.28998 0.44314 0.34087 0.0
C753 C 0.27669 0.41573 0.33182 0.0
C754 C 0.31446 0.4599 0.334 0.0
C755 C 0.32624 0.44959 0.31797 0.0
C756 C 0.31262 0.4222 0.30847 0.0
C757 C 0.2881 0.40547 0.31531 0.0
H758 H 0.47857 0.85104 0.28027 0.0
H759 H 0.53588 0.93483 0.28536 0.0
H760 H 0.51136 0.83914 0.2886 0.0
H761 H 0.56892 0.9231 0.29385 0.0
H762 H 0.62195 0.8875 0.29134 0.0
H763 H 0.58965 0.89795 0.27515 0.0
H764 H 0.53951 0.84726 0.32956 0.0
H765 H 0.57169 0.83692 0.34568 0.0
C766 C 0.49831 0.8668 0.28258 0.0
C767 C 0.50494 0.89374 0.28209 0.0
C768 C 0.51701 0.86006 0.28756 0.0
C769 C 0.54266 0.88021 0.29214 0.0
C770 C 0.54932 0.90714 0.29022 0.0
C771 C 0.53052 0.91388 0.28538 0.0
C772 C 0.60397 0.87858 0.29973 0.0
C773 C 0.59926 0.86149 0.31979 0.0
C774 C 0.58556 0.8846 0.29053 0.0
C775 C 0.56204 0.87332 0.301 0.0
C776 C 0.55732 0.85595 0.32084 0.0
C777 C 0.57578 0.85017 0.3302 0.0
H778 H 0.16077 0.63789 0.30359 0.0
H779 H 0.08172 0.61183 0.28579 0.0
H780 H 0.17089 0.68465 0.30879 0.0
H781 H 0.09168 0.65873 0.2903 0.0
H782 H 0.1152 0.7398 0.33699 0.0
H783 H 0.10461 0.69359 0.32586 0.0
H784 H 0.17318 0.72162 0.28721 0.0
H785 H 0.18411 0.76794 0.29888 0.0
C786 C 0.14567 0.64236 0.30021 0.0
C787 C 0.12056 0.62157 0.29419 0.0
C788 C 0.15142 0.66911 0.3031 0.0
C789 C 0.1321 0.67552 0.30008 0.0
C790 C 0.10698 0.65451 0.29314 0.0
C791 C 0.10126 0.62772 0.2903 0.0
C792 C 0.12802 0.73617 0.32605 0.0
C793 C 0.15064 0.75767 0.31906 0.0
C794 C 0.12182 0.70959 0.31946 0.0
C795 C 0.13802 0.70381 0.30561 0.0
C796 C 0.16043 0.72532 0.29821 0.0
C797 C 0.16667 0.75191 0.30487 0.0
H798 H 0.80297 0.06295 0.39915 0.0
H799 H 0.85586 0.03584 0.3858 0.0
H800 H 0.76802 0.01617 0.39451 0.0
H801 H 0.82122 0.98927 0.38044 0.0
H802 H 0.75659 0.90692 0.39127 0.0
H803 H 0.79019 0.95336 0.40228 0.0
H804 H 0.74533 0.9803 0.35961 0.0
H805 H 0.71143 0.93389 0.34917 0.0
C806 C 0.80703 0.04686 0.39553 0.0
C807 C 0.83186 0.05265 0.39297 0.0
C808 C 0.7871 0.02016 0.39262 0.0
C809 C 0.79177 0.99891 0.38698 0.0
C810 C 0.81692 0.005 0.38515 0.0
C811 C 0.83676 0.03164 0.38811 0.0
C812 C 0.75385 0.92272 0.38424 0.0
C813 C 0.73136 0.91662 0.36915 0.0
C814 C 0.77317 0.94939 0.39052 0.0
C815 C 0.77054 0.97062 0.38178 0.0
C816 C 0.74788 0.96451 0.367 0.0
C817 C 0.7285 0.93784 0.36082 0.0
H818 H 0.9567 0.80084 0.40606 0.0
H819 H 0.94794 0.7223 0.41008 0.0
H820 H 1.00092 0.81885 0.39715 0.0
H821 H 0.99203 0.73998 0.40081 0.0
H822 H 0.07784 0.78467 0.40035 0.0
H823 H 0.03674 0.77048 0.41686 0.0
H824 H 0.021 0.81338 0.35905 0.0
H825 H 0.06223 0.82782 0.34286 0.0
C826 C 0.96452 0.78763 0.40557 0.0
C827 C 0.9493 0.76037 0.40891 0.0
C828 C 0.98967 0.79781 0.40022 0.0
C829 C 0.99992 0.78079 0.39804 0.0
C830 C 0.9848 0.75367 0.40261 0.0
C831 C 0.95962 0.74352 0.4079 0.0
C832 C 0.06559 0.79114 0.39129 0.0
C833 C 0.07307 0.8072 0.37025 0.0
C834 C 0.04206 0.78296 0.40068 0.0
C835 C 0.0256 0.79079 0.38928 0.0
C836 C 0.03337 0.80731 0.36852 0.0
C837 C 0.05688 0.81542 0.3591 0.0
H838 H 0.23193 0.1851 0.37454 0.0
H839 H 0.19598 0.1788 0.44596 0.0
H840 H 0.22925 0.22493 0.3662 0.0
H841 H 0.19373 0.2191 0.43818 0.0
H842 H 0.15913 0.2622 0.39389 0.0
H843 H 0.16842 0.22814 0.40727 0.0
H844 H 0.24241 0.27143 0.37923 0.0
H845 H 0.23288 0.30546 0.36518 0.0
C846 C 0.22414 0.19283 0.38883 0.0
C847 C 0.21429 0.17921 0.41092 0.0
C848 C 0.22261 0.21564 0.38411 0.0
C849 C 0.21106 0.22514 0.40139 0.0
C850 C 0.20236 0.21209 0.42425 0.0
C851 C 0.20388 0.18924 0.4289 0.0
C852 C 0.17742 0.26458 0.39054 0.0
C853 C 0.19515 0.28652 0.37818 0.0
C854 C 0.18287 0.24512 0.39852 0.0
C855 C 0.20622 0.24703 0.39444 0.0
C856 C 0.22415 0.26919 0.38245 0.0
C857 C 0.21869 0.28874 0.37445 0.0
H858 H 0.61207 0.50828 0.71887 0.0
H859 H 0.64082 0.53251 0.80093 0.0
H860 H 0.65326 0.54021 0.7061 0.0
H861 H 0.68198 0.56588 0.78811 0.0
H862 H 0.75948 0.59825 0.75367 0.0
H863 H 0.71817 0.56891 0.76915 0.0
H864 H 0.68166 0.58603 0.70422 0.0
H865 H 0.72266 0.61414 0.68831 0.0
C866 C 0.62717 0.52061 0.73423 0.0
C867 C 0.62316 0.51759 0.76094 0.0
C868 C 0.6508 0.53925 0.7269 0.0
C869 C 0.67108 0.55574 0.74604 0.0
C870 C 0.66692 0.55329 0.77281 0.0
C871 C 0.64322 0.53442 0.78018 0.0
C872 C 0.74254 0.59562 0.74279 0.0
C873 C 0.74415 0.60809 0.71962 0.0
C874 C 0.71889 0.57903 0.75175 0.0
C875 C 0.69646 0.57484 0.73782 0.0
C876 C 0.69839 0.58819 0.71512 0.0
C877 C 0.72191 0.60444 0.70605 0.0
H878 H 0.46764 0.06126 0.76823 0.0
H879 H 0.53005 0.12844 0.73789 0.0
H880 H 0.43903 0.07619 0.75219 0.0
H881 H 0.50149 0.14409 0.72238 0.0
H882 H 0.43729 0.1489 0.67573 0.0
H883 H 0.4672 0.13494 0.69089 0.0
H884 H 0.42855 0.10971 0.76105 0.0
H885 H 0.39824 0.12265 0.74527 0.0
C886 C 0.47529 0.07946 0.75837 0.0
C887 C 0.50113 0.09384 0.75455 0.0
C888 C 0.45889 0.08813 0.74924 0.0
C889 C 0.46791 0.11158 0.73623 0.0
C890 C 0.49378 0.12581 0.73209 0.0
C891 C 0.51019 0.11694 0.74104 0.0
C892 C 0.43529 0.14036 0.69438 0.0
C893 C 0.41536 0.13661 0.70923 0.0
C894 C 0.45251 0.13251 0.70318 0.0
C895 C 0.45026 0.12096 0.72714 0.0
C896 C 0.43059 0.1179 0.74222 0.0
C897 C 0.41327 0.12547 0.73328 0.0
H898 H 0.87619 0.37085 0.76732 0.0
H899 H 0.91934 0.40472 0.70171 0.0
H900 H 0.86359 0.3258 0.74787 0.0
H901 H 0.90637 0.35952 0.682 0.0
H902 H 0.89838 0.27392 0.67372 0.0
H903 H 0.91216 0.32022 0.69041 0.0
H904 H 0.83603 0.29576 0.70852 0.0
H905 H 0.82222 0.24973 0.69205 0.0
C906 C 0.88312 0.36867 0.74883 0.0
C907 C 0.89871 0.39133 0.73603 0.0
C908 C 0.87569 0.34287 0.73754 0.0
C909 C 0.88381 0.33911 0.71328 0.0
C910 C 0.89986 0.36178 0.70073 0.0
C911 C 0.90712 0.38762 0.71192 0.0
C912 C 0.8845 0.27848 0.68092 0.0
C913 C 0.85922 0.25799 0.6817 0.0
C914 C 0.89241 0.30501 0.69047 0.0
C915 C 0.87525 0.31153 0.70114 0.0
C916 C 0.84981 0.29126 0.70091 0.0
C917 C 0.84188 0.26487 0.69124 0.0
H918 H 0.16244 0.96142 0.63157 0.0
H919 H 0.2196 0.94987 0.59723 0.0
H920 H 0.19497 0.00669 0.64975 0.0
H921 H 0.25195 0.99531 0.61471 0.0
H922 H 0.30696 0.06776 0.67175 0.0
H923 H 0.27385 0.02184 0.65679 0.0
H924 H 0.22302 0.05032 0.63388 0.0
H925 H 0.25589 0.09615 0.64913 0.0
C926 C 0.18195 0.96853 0.62795 0.0
C927 C 0.18842 0.95209 0.61288 0.0
C928 C 0.20055 0.99453 0.63816 0.0
C929 C 0.22606 0.00461 0.63368 0.0
C930 C 0.23253 0.98807 0.61877 0.0
C931 C 0.21394 0.96214 0.60848 0.0
C932 C 0.28868 0.06425 0.66371 0.0
C933 C 0.28416 0.08573 0.66163 0.0
C934 C 0.26975 0.03792 0.65498 0.0
C935 C 0.24583 0.03243 0.64404 0.0
C936 C 0.24115 0.05382 0.64245 0.0
C937 C 0.26008 0.08015 0.65109 0.0
H938 H 0.03904 0.24081 0.56081 0.0
H939 H 0.06602 0.23603 0.63921 0.0
H940 H 1.00026 0.23505 0.57717 0.0
H941 H 0.0265 0.22774 0.65499 0.0
H942 H 0.9593 0.22989 0.68311 0.0
H943 H 1.00031 0.24348 0.66682 0.0
H944 H 0.96235 0.20256 0.59017 0.0
H945 H 0.92176 0.1907 0.6062 0.0
C946 C 0.03682 0.23863 0.58155 0.0
C947 C 0.05571 0.23858 0.59854 0.0
C948 C 0.01428 0.23484 0.59091 0.0
C949 C 0.00982 0.23049 0.61744 0.0
C950 C 0.02908 0.23125 0.63453 0.0
C951 C 0.05172 0.23552 0.6253 0.0
C952 C 0.95988 0.22402 0.66275 0.0
C953 C 0.93743 0.20922 0.64593 0.0
C954 C 0.98338 0.23163 0.65337 0.0
C955 C 0.98492 0.22408 0.62708 0.0
C956 C 0.96223 0.20932 0.61033 0.0
C957 C 0.93884 0.20223 0.61958 0.0
H958 H 0.76471 0.81901 0.65739 0.0
H959 H 0.79174 0.81531 0.5819 0.0
H960 H 0.77738 0.7878 0.67245 0.0
H961 H 0.80353 0.78314 0.59662 0.0
H962 H 0.85021 0.75413 0.6432 0.0
H963 H 0.83547 0.78327 0.62695 0.0
H964 H 0.76793 0.74191 0.66703 0.0
H965 H 0.78294 0.7131 0.68382 0.0
C966 C 0.77321 0.81137 0.64393 0.0
C967 C 0.77742 0.81987 0.61851 0.0
C968 C 0.78024 0.79323 0.65248 0.0
C969 C 0.79163 0.78303 0.63583 0.0
C970 C 0.79516 0.7909 0.61011 0.0
C971 C 0.7881 0.80908 0.60154 0.0
C972 C 0.83227 0.7513 0.6487 0.0
C973 C 0.81787 0.73136 0.66502 0.0
C974 C 0.82368 0.76787 0.63913 0.0
C975 C 0.80045 0.76492 0.64558 0.0
C976 C 0.78605 0.74497 0.66191 0.0
C977 C 0.79464 0.72839 0.6715 0.0
H978 H 0.06315 0.79248 0.61496 0.0
H979 H 0.05454 0.86221 0.62167 0.0
H980 H 0.01874 0.76398 0.623 0.0
H981 H 0.01005 0.83389 0.62938 0.0
H982 H 0.94762 0.78142 0.68178 0.0
H983 H 0.9891 0.80959 0.66638 0.0
H984 H 0.97407 0.74586 0.60678 0.0
H985 H 0.93264 0.7176 0.62247 0.0
C986 C 0.05145 0.80151 0.6174 0.0
C987 C 0.06195 0.82933 0.61749 0.0
C988 C 0.02606 0.78526 0.62202 0.0
C989 C 0.01087 0.79668 0.62707 0.0
C990 C 0.0213 0.82451 0.62594 0.0
C991 C 0.04664 0.84068 0.62124 0.0
C992 C 0.95314 0.77354 0.66528 0.0
C993 C 0.93702 0.74732 0.6534 0.0
C994 C 0.97683 0.78972 0.65631 0.0
C995 C 0.98493 0.78 0.6353 0.0
C996 C 0.96853 0.75386 0.62315 0.0
C997 C 0.94479 0.73772 0.63207 0.0
H998 H 0.17476 0.23665 0.64853 0.0
H999 H 0.16727 0.19683 0.5718 0.0
H1000 H 0.21164 0.23251 0.66174 0.0
H1001 H 0.20417 0.19241 0.58491 0.0
H1002 H 0.28374 0.20727 0.61404 0.0
H1003 H 0.251 0.21744 0.59874 0.0
H1004 H 0.21593 0.19326 0.6709 0.0
H1005 H 0.24856 0.18323 0.68609 0.0
C1006 C 0.18143 0.22751 0.63435 0.0
C1007 C 0.16851 0.21721 0.60917 0.0
C1008 C 0.20234 0.2249 0.64194 0.0
C1009 C 0.21067 0.21187 0.62446 0.0
C1010 C 0.19833 0.2027 0.59876 0.0
C1011 C 0.17728 0.20521 0.59122 0.0
C1012 C 0.26904 0.20425 0.6266 0.0
C1013 C 0.26866 0.19452 0.65126 0.0
C1014 C 0.25028 0.20996 0.61782 0.0
C1015 C 0.23097 0.20633 0.63367 0.0
C1016 C 0.23076 0.19669 0.65839 0.0
C1017 C 0.24934 0.19077 0.66703 0.0
H1018 H 0.81278 0.97072 0.61001 0.0
H1019 H 0.7579 0.94786 0.66678 0.0
H1020 H 0.82222 0.01731 0.61697 0.0
H1021 H 0.76754 0.9944 0.67434 0.0
H1022 H 0.77772 0.07788 0.66597 0.0
H1023 H 0.76516 0.03083 0.65574 0.0
H1024 H 0.84362 0.05359 0.65185 0.0
H1025 H 0.85615 0.10056 0.6615 0.0
C1026 C 0.80247 0.97571 0.62364 0.0
C1027 C 0.7845 0.95596 0.6377 0.0
C1028 C 0.80804 0.00236 0.62789 0.0
C1029 C 0.79582 0.00969 0.64643 0.0
C1030 C 0.77713 0.98948 0.65976 0.0
C1031 C 0.77159 0.96286 0.65546 0.0
C1032 C 0.79233 0.07286 0.66308 0.0
C1033 C 0.81797 0.0931 0.66454 0.0
C1034 C 0.78511 0.04584 0.65722 0.0
C1035 C 0.80334 0.0384 0.6527 0.0
C1036 C 0.829 0.05861 0.65464 0.0
C1037 C 0.83622 0.08559 0.66047 0.0
H1038 H 0.49223 0.38992 0.7047 0.0
H1039 H 0.51029 0.36224 0.77481 0.0
H1040 H 0.45464 0.34562 0.69299 0.0
H1041 H 0.4724 0.31795 0.76361 0.0
H1042 H 0.42811 0.23608 0.71482 0.0
H1043 H 0.46142 0.28151 0.72998 0.0
H1044 H 0.41291 0.31191 0.704 0.0
H1045 H 0.37949 0.26624 0.68825 0.0
C1046 C 0.48765 0.37445 0.71794 0.0
C1047 C 0.50382 0.37922 0.74064 0.0
C1048 C 0.46616 0.34912 0.71129 0.0
C1049 C 0.46063 0.32815 0.72723 0.0
C1050 C 0.47634 0.33354 0.75069 0.0
C1051 C 0.49784 0.35888 0.75728 0.0
C1052 C 0.42445 0.25237 0.71223 0.0
C1053 C 0.40109 0.24743 0.70015 0.0
C1054 C 0.44352 0.27847 0.72123 0.0
C1055 C 0.43978 0.30036 0.71843 0.0
C1056 C 0.41645 0.29549 0.70631 0.0
C1057 C 0.39729 0.26931 0.6973 0.0
H1058 H 0.62993 0.10388 0.76901 0.0
H1059 H 0.6012 0.08243 0.68702 0.0
H1060 H 0.67341 0.12339 0.75676 0.0
H1061 H 0.64433 0.10115 0.67455 0.0
H1062 H 0.7259 0.1564 0.65899 0.0
H1063 H 0.6837 0.14183 0.6726 0.0
H1064 H 0.70051 0.10845 0.73922 0.0
H1065 H 0.74291 0.12373 0.72591 0.0
C1066 C 0.63306 0.10361 0.74837 0.0
C1067 C 0.61251 0.09194 0.72888 0.0
C1068 C 0.65785 0.11452 0.74131 0.0
C1069 C 0.66243 0.1138 0.71463 0.0
C1070 C 0.64163 0.10246 0.69523 0.0
C1071 C 0.61692 0.09164 0.70231 0.0
C1072 C 0.72053 0.14599 0.67656 0.0
C1073 C 0.73758 0.14107 0.69133 0.0
C1074 C 0.69633 0.13754 0.68432 0.0
C1075 C 0.68861 0.1239 0.70701 0.0
C1076 C 0.70587 0.11922 0.72187 0.0
C1077 C 0.7301 0.12775 0.71413 0.0
H1078 H 0.92748 0.54357 0.70325 0.0
H1079 H 0.87114 0.50838 0.75785 0.0
H1080 H 0.91604 0.57791 0.69731 0.0
H1081 H 0.85997 0.54336 0.75276 0.0
H1082 H 0.82523 0.5873 0.70907 0.0
H1083 H 0.83864 0.55546 0.72028 0.0
H1084 H 0.91674 0.61651 0.71644 0.0
H1085 H 0.90331 0.64791 0.70437 0.0
C1086 C 0.91309 0.54376 0.71454 0.0
C1087 C 0.90034 0.52373 0.73119 0.0
C1088 C 0.90651 0.56343 0.71121 0.0
C1089 C 0.88701 0.56348 0.72452 0.0
C1090 C 0.87483 0.54376 0.74192 0.0
C1091 C 0.88139 0.52395 0.74513 0.0
C1092 C 0.84526 0.59392 0.71062 0.0
C1093 C 0.86313 0.62008 0.70545 0.0
C1094 C 0.853 0.57571 0.71729 0.0
C1095 C 0.87881 0.58331 0.71919 0.0
C1096 C 0.89667 0.60972 0.71467 0.0
C1097 C 0.88894 0.6278 0.70778 0.0
H1098 H 0.47399 0.91813 0.19224 0.0
H1099 H 0.44651 0.97256 0.20987 0.0
H1100 H 0.49228 0.94144 0.15392 0.0
H1101 H 0.46535 0.99641 0.17204 0.0
H1102 H 0.47908 0.01548 0.08691 0.0
H1103 H 0.46094 0.99268 0.12556 0.0
H1104 H 0.5254 0.98189 0.14086 0.0
H1105 H 0.54248 0.00313 0.10117 0.0
C1106 C 0.47209 0.93527 0.18804 0.0
C1107 C 0.45876 0.94347 0.20402 0.0
C1108 C 0.48267 0.94874 0.16613 0.0
C1109 C 0.48039 0.97092 0.15981 0.0
C1110 C 0.46714 0.97916 0.17595 0.0
C1111 C 0.45637 0.96553 0.19771 0.0
C1112 C 0.4891 0.00786 0.0984 0.0
C1113 C 0.5118 0.01047 0.09078 0.0
C1114 C 0.47896 0.99516 0.1208 0.0
C1115 C 0.49158 0.9852 0.13635 0.0
C1116 C 0.51485 0.98876 0.12912 0.0
C1117 C 0.52483 1.00125 0.10656 0.0
H1118 H 0.09454 0.56558 0.20676 0.0
H1119 H 0.06776 0.48029 0.20075 0.0
H1120 H 0.07118 0.55987 0.16524 0.0
H1121 H 0.04778 0.47536 0.15728 0.0
H1122 H 0.99098 0.4659 0.09069 0.0
H1123 H 0.01484 0.47106 0.13246 0.0
H1124 H 0.06568 0.55476 0.12183 0.0
H1125 H 0.03977 0.54976 0.0818 0.0
C1126 C 0.0839 0.54555 0.19665 0.0
C1127 C 0.08299 0.52341 0.20792 0.0
C1128 C 0.07083 0.54233 0.1721 0.0
C1129 C 0.05718 0.51703 0.15726 0.0
C1130 C 0.05727 0.49511 0.168 0.0
C1131 C 0.06951 0.49813 0.19303 0.0
C1132 C 0.00719 0.48537 0.09762 0.0
C1133 C 0.01336 0.5075 0.0834 0.0
C1134 C 0.02122 0.4884 0.12149 0.0
C1135 C 0.04249 0.51348 0.13121 0.0
C1136 C 0.0491 0.53532 0.11601 0.0
C1137 C 0.03439 0.53248 0.09275 0.0
H1138 H 0.49029 0.5125 0.22275 0.0
H1139 H 0.47808 0.57313 0.19066 0.0
H1140 H 0.49666 0.49894 0.17879 0.0
H1141 H 0.484 0.55925 0.14661 0.0
H1142 H 0.47671 0.51028 0.06819 0.0
H1143 H 0.46376 0.51663 0.11119 0.0
H1144 H 0.53331 0.52674 0.14893 0.0
H1145 H 0.54627 0.52065 0.10581 0.0
C1146 C 0.48839 0.52247 0.20617 0.0
C1147 C 0.48368 0.54383 0.21003 0.0
C1148 C 0.49219 0.51485 0.18111 0.0
C1149 C 0.49086 0.52809 0.15937 0.0
C1150 C 0.48495 0.5486 0.16302 0.0
C1151 C 0.48165 0.55658 0.18817 0.0
C1152 C 0.48885 0.51309 0.08565 0.0
C1153 C 0.51223 0.51444 0.08369 0.0
C1154 C 0.48161 0.51707 0.11025 0.0
C1155 C 0.49747 0.52199 0.13338 0.0
C1156 C 0.52058 0.52265 0.13144 0.0
C1157 C 0.52802 0.51926 0.10681 0.0
H1158 H 0.9002 0.42324 0.82703 0.0
H1159 H 0.9599 0.49982 0.80787 0.0
H1160 H 0.91961 0.43323 0.87228 0.0
H1161 H 0.97944 0.50986 0.85333 0.0
H1162 H 0.99904 0.52393 0.94426 0.0
H1163 H 0.97566 0.51793 0.90128 0.0
H1164 H 0.95853 0.43554 0.89091 0.0
H1165 H 0.98125 0.44144 0.93366 0.0
C1166 C 0.91737 0.44234 0.83257 0.0
C1167 C 0.92871 0.46056 0.81375 0.0
C1168 C 0.92852 0.44805 0.85849 0.0
C1169 C 0.95133 0.47213 0.86631 0.0
C1170 C 0.96184 0.49116 0.84796 0.0
C1171 C 0.95063 0.48542 0.82192 0.0
C1172 C 0.98995 0.50451 0.93283 0.0
C1173 C 0.99171 0.48308 0.94234 0.0
C1174 C 0.97678 0.50113 0.90818 0.0
C1175 C 0.96501 0.47617 0.89276 0.0
C1176 C 0.96693 0.45487 0.90244 0.0
C1177 C 0.98018 0.45832 0.92685 0.0
H1178 H 0.51362 0.45766 0.80524 0.0
H1179 H 0.58923 0.51006 0.84351 0.0
H1180 H 0.49596 0.46238 0.8453 0.0
H1181 H 0.57161 0.5167 0.88247 0.0
H1182 H 0.53578 0.49845 0.95854 0.0
H1183 H 0.55245 0.49447 0.91798 0.0
H1184 H 0.48759 0.4897 0.87391 0.0
H1185 H 0.4706 0.49288 0.91538 0.0
C1186 C 0.52653 0.47031 0.82207 0.0
C1187 C 0.55295 0.4833 0.82097 0.0
C1188 C 0.51634 0.47339 0.845 0.0
C1189 C 0.53227 0.48982 0.86737 0.0
C1190 C 0.55864 0.5034 0.86595 0.0
C1191 C 0.56881 0.49997 0.84326 0.0
C1192 C 0.52539 0.49727 0.94035 0.0
C1193 C 0.50232 0.49685 0.94026 0.0
C1194 C 0.53491 0.49484 0.91684 0.0
C1195 C 0.52168 0.4922 0.89239 0.0
C1196 C 0.49831 0.4915 0.89228 0.0
C1197 C 0.48862 0.49352 0.916 0.0
H1198 H 0.5657 0.07224 0.84047 0.0
H1199 H 0.48542 0.03089 0.81644 0.0
H1200 H 0.55702 0.05491 0.88375 0.0
H1201 H 0.47671 0.01295 0.85885 0.0
H1202 H 0.46564 0.01035 0.94425 0.0
H1203 H 0.47775 0.02896 0.90261 0.0
H1204 H 0.54125 0.01548 0.90799 0.0
H1205 H 0.52932 0.99749 0.95059 0.0
C1206 C 0.54625 0.05924 0.8444 0.0
C1207 C 0.5262 0.05328 0.82534 0.0
C1208 C 0.54126 0.04924 0.86909 0.0
C1209 C 0.51613 0.03289 0.87501 0.0
C1210 C 0.49625 0.02614 0.85538 0.0
C1211 C 0.50122 0.03633 0.83099 0.0
C1212 C 0.48218 0.01131 0.93654 0.0
C1213 C 0.49645 0.0023 0.95049 0.0
C1214 C 0.48909 0.02189 0.91257 0.0
C1215 C 0.51022 0.02328 0.90158 0.0
C1216 C 0.52492 0.01481 0.91589 0.0
C1217 C 0.51811 0.00447 0.94021 0.0
H1218 H 0.13282 0.24399 0.51832 0.0
H1219 H 0.11871 0.3066 0.54758 0.0
H1220 H 0.15143 0.26887 0.48102 0.0
H1221 H 0.13689 0.3312 0.50978 0.0
H1222 H 0.14735 0.35162 0.42268 0.0
H1223 H 0.12825 0.32741 0.46064 0.0
H1224 H 0.18955 0.31111 0.47271 0.0
H1225 H 0.20817 0.33473 0.43462 0.0
C1226 C 0.13391 0.26319 0.51701 0.0
C1227 C 0.12437 0.27329 0.53619 0.0
C1228 C 0.1445 0.27741 0.49551 0.0
C1229 C 0.14571 0.30205 0.49244 0.0
C1230 C 0.13599 0.31212 0.51142 0.0
C1231 C 0.12555 0.29797 0.53309 0.0
C1232 C 0.15654 0.34264 0.4334 0.0
C1233 C 0.17902 0.34474 0.42558 0.0
C1234 C 0.1458 0.32906 0.45527 0.0
C1235 C 0.15732 0.31721 0.46964 0.0
C1236 C 0.18002 0.31969 0.4619 0.0
C1237 C 0.19082 0.33343 0.44023 0.0
H1238 H 0.76828 0.89879 0.54382 0.0
H1239 H 0.71523 0.81529 0.55111 0.0
H1240 H 0.74758 0.89465 0.50016 0.0
H1241 H 0.69429 0.81117 0.50767 0.0
H1242 H 0.67704 0.80591 0.4187 0.0
H1243 H 0.69918 0.81009 0.46162 0.0
H1244 H 0.70937 0.8893 0.47874 0.0
H1245 H 0.68842 0.88549 0.43533 0.0
C1246 C 0.75206 0.8796 0.53619 0.0
C1247 C 0.74345 0.85738 0.55097 0.0
C1248 C 0.74014 0.87721 0.51114 0.0
C1249 C 0.7192 0.85256 0.50027 0.0
C1250 C 0.71061 0.83035 0.51512 0.0
C1251 C 0.7226 0.83272 0.5401 0.0
C1252 C 0.68445 0.82436 0.43151 0.0
C1253 C 0.68143 0.84554 0.42353 0.0
C1254 C 0.6968 0.82664 0.45628 0.0
C1255 C 0.7062 0.8501 0.47374 0.0
C1256 C 0.70283 0.87114 0.46573 0.0
C1257 C 0.69059 0.86887 0.44094 0.0
H1258 H 0.19553 0.89815 0.54653 0.0
H1259 H 0.11446 0.85403 0.52649 0.0
H1260 H 0.20175 0.88497 0.50317 0.0
H1261 H 0.12062 0.83911 0.48313 0.0
H1262 H 0.14522 0.84912 0.39801 0.0
H1263 H 0.13482 0.85546 0.44216 0.0
H1264 H 0.1989 0.85048 0.47505 0.0
H1265 H 0.20958 0.84517 0.43072 0.0
C1266 C 0.17893 0.88548 0.53286 0.0
C1267 C 0.15448 0.87763 0.53993 0.0
C1268 C 0.18251 0.87745 0.50799 0.0
C1269 C 0.16172 0.86083 0.48944 0.0
C1270 C 0.13713 0.85219 0.49674 0.0
C1271 C 0.13355 0.8605 0.52171 0.0
C1272 C 0.15656 0.84858 0.41466 0.0
C1273 C 0.17793 0.84622 0.41098 0.0
C1274 C 0.1507 0.85235 0.44009 0.0
C1275 C 0.16608 0.8537 0.4624 0.0
C1276 C 0.18691 0.8502 0.45848 0.0
C1277 C 0.19295 0.84692 0.43308 0.0
H1278 H 0.6206 0.83065 0.14774 0.0
H1279 H 0.56319 0.75602 0.17312 0.0
H1280 H 0.64319 0.84344 0.19201 0.0
H1281 H 0.58572 0.76869 0.21711 0.0
H1282 H 0.65228 0.78052 0.27381 0.0
H1283 H 0.62653 0.77219 0.23247 0.0
H1284 H 0.64191 0.85402 0.24076 0.0
H1285 H 0.66818 0.86244 0.28236 0.0
C1286 C 0.61249 0.81728 0.16291 0.0
C1287 C 0.59033 0.79214 0.15683 0.0
C1288 C 0.62544 0.82459 0.18825 0.0
C1289 C 0.61646 0.80684 0.20791 0.0
C1290 C 0.59342 0.78252 0.20223 0.0
C1291 C 0.5805 0.77528 0.17704 0.0
C1292 C 0.6502 0.79675 0.26682 0.0
C1293 C 0.66208 0.82208 0.28131 0.0
C1294 C 0.63524 0.79191 0.24326 0.0
C1295 C 0.63197 0.81237 0.23345 0.0
C1296 C 0.64408 0.83787 0.24783 0.0
C1297 C 0.65891 0.84263 0.27168 0.0
H1298 H 0.20417 0.76973 0.16423 0.0
H1299 H 0.22542 0.85002 0.14608 0.0
H1300 H 0.18647 0.77623 0.20367 0.0
H1301 H 0.2075 0.85648 0.18535 0.0
H1302 H 0.19663 0.86868 0.27202 0.0
H1303 H 0.21453 0.86231 0.23253 0.0
H1304 H 0.15191 0.78069 0.2178 0.0
H1305 H 0.13494 0.78683 0.25803 0.0
C1306 C 0.20482 0.78867 0.16851 0.0
C1307 C 0.21625 0.80936 0.152 0.0
C1308 C 0.19464 0.79241 0.19113 0.0
C1309 C 0.19553 0.8169 0.19778 0.0
C1310 C 0.20684 0.83752 0.18114 0.0
C1311 C 0.21709 0.83381 0.15858 0.0
C1312 C 0.187 0.84929 0.2605 0.0
C1313 C 0.16474 0.82811 0.26831 0.0
C1314 C 0.19699 0.84572 0.23765 0.0
C1315 C 0.18475 0.82091 0.22195 0.0
C1316 C 0.16211 0.79991 0.2296 0.0
C1317 C 0.15221 0.80349 0.25249 0.0
H1318 H 0.19522 0.35818 0.1456 0.0
H1319 H 0.20519 0.43173 0.18425 0.0
H1320 H 0.18853 0.33859 0.18788 0.0
H1321 H 0.19908 0.41244 0.22656 0.0
H1322 H 0.20716 0.37479 0.30071 0.0
H1323 H 0.22027 0.39315 0.25881 0.0
H1324 H 0.15121 0.32728 0.21859 0.0
H1325 H 0.13807 0.30909 0.26075 0.0
C1326 C 0.19655 0.37031 0.16326 0.0
C1327 C 0.20077 0.39643 0.1618 0.0
C1328 C 0.19258 0.35909 0.18734 0.0
C1329 C 0.1933 0.37404 0.21041 0.0
C1330 C 0.19864 0.40059 0.20909 0.0
C1331 C 0.20207 0.41158 0.18495 0.0
C1332 C 0.1952 0.36379 0.28294 0.0
C1333 C 0.17187 0.34026 0.28398 0.0
C1334 C 0.20253 0.37449 0.25896 0.0
C1335 C 0.18681 0.36153 0.23547 0.0
C1336 C 0.16382 0.33748 0.23637 0.0
C1337 C 0.15629 0.32715 0.26046 0.0
H1338 H 0.80512 0.58769 0.85547 0.0
H1339 H 0.78304 0.64613 0.87675 0.0
H1340 H 0.82382 0.61132 0.81751 0.0
H1341 H 0.80139 0.66946 0.83843 0.0
H1342 H 0.81262 0.68462 0.7504 0.0
H1343 H 0.79441 0.66266 0.78958 0.0
H1344 H 0.8599 0.65446 0.80772 0.0
H1345 H 0.87782 0.67602 0.76836 0.0
C1346 C 0.80441 0.6057 0.85223 0.0
C1347 C 0.79261 0.615 0.86933 0.0
C1348 C 0.81512 0.61923 0.8304 0.0
C1349 C 0.81419 0.64235 0.82498 0.0
C1350 C 0.8022 0.65155 0.84189 0.0
C1351 C 0.79162 0.63811 0.86384 0.0
C1352 C 0.82314 0.67826 0.76291 0.0
C1353 C 0.84654 0.68188 0.75633 0.0
C1354 C 0.81279 0.6658 0.78539 0.0
C1355 C 0.82564 0.65667 0.80171 0.0
C1356 C 0.84936 0.66091 0.79537 0.0
C1357 C 0.85974 0.67348 0.77298 0.0
H1358 H 0.42739 0.16602 0.86086 0.0
H1359 H 0.39507 0.2121 0.89232 0.0
H1360 H 0.4055 0.16058 0.81793 0.0
H1361 H 0.37498 0.2087 0.84879 0.0
H1362 H 0.32195 0.17718 0.77315 0.0
H1363 H 0.34216 0.18043 0.81691 0.0
H1364 H 0.40541 0.1823 0.78127 0.0
H1365 H 0.38459 0.17809 0.73798 0.0
C1366 C 0.41566 0.17507 0.8587 0.0
C1367 C 0.41298 0.18938 0.88034 0.0
C1368 C 0.40338 0.17233 0.83381 0.0
C1369 C 0.38838 0.18422 0.82961 0.0
C1370 C 0.38596 0.19883 0.85118 0.0
C1371 C 0.39793 0.20122 0.87618 0.0
C1372 C 0.34005 0.17798 0.77484 0.0
C1373 C 0.35134 0.1765 0.75217 0.0
C1374 C 0.35181 0.18011 0.79991 0.0
C1375 C 0.3755 0.1815 0.80288 0.0
C1376 C 0.38689 0.18047 0.77999 0.0
C1377 C 0.37488 0.17788 0.75499 0.0
H1378 H 0.8122 0.17066 0.88179 0.0
H1379 H 0.81636 0.24267 0.8562 0.0
H1380 H 0.81739 0.15797 0.83715 0.0
H1381 H 0.82242 0.2305 0.81189 0.0
H1382 H 0.81329 0.19261 0.72973 0.0
H1383 H 0.80166 0.19893 0.77324 0.0
H1384 H 0.85096 0.17295 0.80779 0.0
H1385 H 0.86205 0.16593 0.76396 0.0
C1386 C 0.81391 0.18363 0.86658 0.0
C1387 C 0.8139 0.20772 0.8726 0.0
C1388 C 0.8172 0.17651 0.84105 0.0
C1389 C 0.82044 0.19325 0.82091 0.0
C1390 C 0.81973 0.21696 0.82681 0.0
C1391 C 0.8165 0.2241 0.8523 0.0
C1392 C 0.82135 0.18784 0.74656 0.0
C1393 C 0.83862 0.1788 0.74345 0.0
C1394 C 0.81485 0.19169 0.77155 0.0
C1395 C 0.82554 0.18671 0.7941 0.0
C1396 C 0.84219 0.17678 0.79086 0.0
C1397 C 0.84866 0.17287 0.76578 0.0
H1398 H 0.29528 0.12022 0.46826 0.0
H1399 H 0.24348 0.142 0.50037 0.0
H1400 H 0.32022 0.13356 0.51097 0.0
H1401 H 0.26879 0.15575 0.54319 0.0
H1402 H 0.33491 0.19361 0.61253 0.0
H1403 H 0.31297 0.1879 0.56871 0.0
H1404 H 0.30851 0.11128 0.55284 0.0
H1405 H 0.32945 0.11658 0.59646 0.0
C1406 C 0.28937 0.12814 0.48437 0.0
C1407 C 0.26714 0.1296 0.481 0.0
C1408 C 0.30367 0.13581 0.50882 0.0
C1409 C 0.29622 0.14529 0.53053 0.0
C1410 C 0.27502 0.14857 0.52679 0.0
C1411 C 0.26057 0.14074 0.50225 0.0
C1412 C 0.32873 0.17537 0.59981 0.0
C1413 C 0.33348 0.15535 0.60805 0.0
C1414 C 0.31642 0.17221 0.57469 0.0
C1415 C 0.30921 0.14923 0.55727 0.0
C1416 C 0.31418 0.1294 0.56561 0.0
C1417 C 0.32611 0.13241 0.59067 0.0
H1418 H 0.89528 0.19702 0.47406 0.0
H1419 H 0.86487 0.11279 0.48325 0.0
H1420 H 0.87943 0.20264 0.51546 0.0
H1421 H 0.84875 0.11834 0.52433 0.0
H1422 H 0.85413 0.14643 0.61123 0.0
H1423 H 0.86859 0.14179 0.56894 0.0
H1424 H 0.83814 0.18821 0.53585 0.0
H1425 H 0.82377 0.19314 0.57869 0.0
C1426 C 0.88517 0.17971 0.48491 0.0
C1427 C 0.88141 0.15448 0.47545 0.0
C1428 C 0.8759 0.18289 0.50846 0.0
C1429 C 0.86292 0.16096 0.52319 0.0
C1430 C 0.85889 0.13567 0.51354 0.0
C1431 C 0.86794 0.13245 0.48991 0.0
C1432 C 0.85067 0.15586 0.59502 0.0
C1433 C 0.838 0.17035 0.59828 0.0
C1434 C 0.85875 0.15295 0.57071 0.0
C1435 C 0.85439 0.16449 0.54902 0.0
C1436 C 0.84188 0.17922 0.55228 0.0
C1437 C 0.83358 0.18195 0.57669 0.0
H1438 H 0.89996 0.74363 0.50689 0.0
H1439 H 0.82003 0.69594 0.4815 0.0
H1440 H 0.89208 0.72544 0.54991 0.0
H1441 H 0.8122 0.67735 0.52369 0.0
H1442 H 0.80063 0.67703 0.60923 0.0
H1443 H 0.81232 0.695 0.56726 0.0
H1444 H 0.87771 0.68483 0.57411 0.0
H1445 H 0.86592 0.66699 0.61688 0.0
C1446 C 0.88081 0.729 0.51043 0.0
C1447 C 0.86052 0.72155 0.49115 0.0
C1448 C 0.87629 0.71854 0.53496 0.0
C1449 C 0.85144 0.70035 0.54043 0.0
C1450 C 0.83147 0.69193 0.52048 0.0
C1451 C 0.83594 0.70249 0.49625 0.0
C1452 C 0.81748 0.67855 0.60179 0.0
C1453 C 0.83236 0.67057 0.61621 0.0
C1454 C 0.82416 0.68878 0.57765 0.0
C1455 C 0.84573 0.69095 0.56705 0.0
C1456 C 0.86103 0.6835 0.58177 0.0
C1457 C 0.85435 0.67335 0.6062 0.0
loop_
_geom_bond_atom_site_label_1
_geom_bond_atom_site_label_2
_geom_bond_distance
_geom_bond_site_symmetry_2
_ccdc_geom_bond_type
H0 C3 0.929 . S
H1 C6 0.929 . S
H2 C8 0.930 . S
C3 H0 0.929 . S
C3 C4 1.398 . S
C3 C5 1.396 . S
C4 C3 1.398 . S
C4 C8 1.407 . S
C5 C3 1.396 . S
C5 C6 1.394 . S
C6 H1 0.929 . S
C6 C5 1.394 . S
C6 C7 1.382 . S
C7 C6 1.382 . S
C7 C8 1.392 . S
C7 N9 1.420 . S
C8 H2 0.930 . S
C8 C4 1.407 . S
C8 C7 1.392 . S
N9 C7 1.420 . S
N9 C10 1.244 . S
C10 N9 1.244 . S
H11 C14 0.929 . S
H12 C17 0.929 . S
H13 C19 0.930 . S
C14 H11 0.929 . S
C14 C15 1.398 . S
C14 C16 1.396 . S
C15 C14 1.398 . S
C15 C19 1.407 . S
C16 C14 1.396 . S
C16 C17 1.394 . S
C17 H12 0.929 . S
C17 C16 1.394 . S
C17 C18 1.382 . S
C18 C17 1.382 . S
C18 C19 1.392 . S
C18 N20 1.420 . S
C19 H13 0.930 . S
C19 C15 1.407 . S
C19 C18 1.392 . S
N20 C18 1.420 . S
N20 C21 1.244 . S
C21 N20 1.244 . S
H22 C25 0.929 . S
H23 C28 0.929 . S
H24 C30 0.930 . S
C25 H22 0.929 . S
C25 C26 1.398 . S
C25 C27 1.396 . S
C26 C25 1.398 . S
C26 C30 1.407 . S
C27 C25 1.396 . S
C27 C28 1.394 . S
C28 H23 0.929 . S
C28 C27 1.394 . S
C28 C29 1.382 . S
C29 C28 1.382 . S
C29 C30 1.392 . S
C29 N31 1.420 . S
C30 H24 0.930 . S
C30 C26 1.407 . S
C30 C29 1.392 . S
N31 C29 1.420 . S
N31 C32 1.244 . S
C32 N31 1.244 . S
H33 C36 0.929 . S
H34 C39 0.929 . S
H35 C41 0.930 . S
C36 H33 0.929 . S
C36 C37 1.398 . S
C36 C38 1.396 . S
C37 C36 1.398 . S
C37 C41 1.407 . S
C38 C36 1.396 . S
C38 C39 1.394 . S
C39 H34 0.929 . S
C39 C38 1.394 . S
C39 C40 1.382 . S
C40 C39 1.382 . S
C40 C41 1.392 . S
C40 N42 1.420 . S
C41 H35 0.930 . S
C41 C37 1.407 . S
C41 C40 1.392 . S
N42 C40 1.420 . S
N42 C43 1.244 . S
C43 N42 1.244 . S
H44 C47 0.929 . S
H45 C50 0.929 . S
H46 C52 0.930 . S
C47 H44 0.929 . S
C47 C48 1.398 . S
C47 C49 1.396 . S
C48 C47 1.398 . S
C48 C52 1.407 . S
C49 C47 1.396 . S
C49 C50 1.394 . S
C50 H45 0.929 . S
C50 C49 1.394 . S
C50 C51 1.382 . S
C51 C50 1.382 . S
C51 C52 1.392 . S
C51 N53 1.420 . S
C52 H46 0.930 . S
C52 C48 1.407 . S
C52 C51 1.392 . S
N53 C51 1.420 . S
N53 C54 1.244 . S
C54 N53 1.244 . S
H55 C58 0.929 . S
H56 C61 0.929 . S
H57 C63 0.930 . S
C58 H55 0.929 . S
C58 C59 1.398 . S
C58 C60 1.396 . S
C59 C58 1.398 . S
C59 C63 1.407 . S
C60 C58 1.396 . S
C60 C61 1.394 . S
C61 H56 0.929 . S
C61 C60 1.394 . S
C61 C62 1.382 . S
C62 C61 1.382 . S
C62 C63 1.392 . S
C62 N64 1.420 . S
C63 H57 0.930 . S
C63 C59 1.407 . S
C63 C62 1.392 . S
N64 C62 1.420 . S
N64 C65 1.244 . S
C65 N64 1.244 . S
H66 C69 0.929 . S
H67 C72 0.929 . S
H68 C74 0.930 . S
C69 H66 0.929 . S
C69 C70 1.398 . S
C69 C71 1.396 . S
C70 C69 1.398 . S
C70 C74 1.407 . S
C71 C69 1.396 . S
C71 C72 1.394 . S
C72 H67 0.929 . S
C72 C71 1.394 . S
C72 C73 1.382 . S
C73 C72 1.382 . S
C73 C74 1.392 . S
C73 N75 1.420 . S
C74 H68 0.930 . S
C74 C70 1.407 . S
C74 C73 1.392 . S
N75 C73 1.420 . S
N75 C76 1.244 . S
C76 N75 1.244 . S
H77 C80 0.929 . S
H78 C83 0.929 . S
H79 C85 0.930 . S
C80 H77 0.929 . S
C80 C81 1.398 . S
C80 C82 1.396 . S
C81 C80 1.398 . S
C81 C85 1.407 . S
C82 C80 1.396 . S
C82 C83 1.394 . S
C83 H78 0.929 . S
C83 C82 1.394 . S
C83 C84 1.382 . S
C84 C83 1.382 . S
C84 C85 1.392 . S
C84 N86 1.420 . S
C85 H79 0.930 . S
C85 C81 1.407 . S
C85 C84 1.392 . S
N86 C84 1.420 . S
N86 C87 1.244 . S
C87 N86 1.244 . S
H88 C91 0.929 . S
H89 C94 0.929 . S
H90 C96 0.930 . S
C91 H88 0.929 . S
C91 C92 1.398 . S
C91 C93 1.396 . S
C92 C91 1.398 . S
C92 C96 1.407 . S
C93 C91 1.396 . S
C93 C94 1.394 . S
C94 H89 0.929 . S
C94 C93 1.394 . S
C94 C95 1.382 . S
C95 C94 1.382 . S
C95 C96 1.392 . S
C95 N97 1.420 . S
C96 H90 0.930 . S
C96 C92 1.407 . S
C96 C95 1.392 . S
N97 C95 1.420 . S
N97 C98 1.244 . S
C98 N97 1.244 . S
H99 C102 0.929 . S
H100 C105 0.929 . S
H101 C107 0.930 . S
C102 H99 0.929 . S
C102 C103 1.398 . S
C102 C104 1.396 . S
C103 C102 1.398 . S
C103 C107 1.407 . S
C104 C102 1.396 . S
C104 C105 1.394 . S
C105 H100 0.929 . S
C105 C104 1.394 . S
C105 C106 1.382 . S
C106 C105 1.382 . S
C106 C107 1.392 . S
C106 N108 1.420 . S
C107 H101 0.930 . S
C107 C103 1.407 . S
C107 C106 1.392 . S
N108 C106 1.420 . S
N108 C109 1.244 . S
C109 N108 1.244 . S
H110 C113 0.929 . S
H111 C116 0.929 . S
H112 C118 0.930 . S
C113 H110 0.929 . S
C113 C114 1.398 . S
C113 C115 1.396 . S
C114 C113 1.398 . S
C114 C118 1.407 . S
C115 C113 1.396 . S
C115 C116 1.394 . S
C116 H111 0.929 . S
C116 C115 1.394 . S
C116 C117 1.382 . S
C117 C116 1.382 . S
C117 C118 1.392 . S
C117 N119 1.420 . S
C118 H112 0.930 . S
C118 C114 1.407 . S
C118 C117 1.392 . S
N119 C117 1.420 . S
N119 C120 1.244 . S
C120 N119 1.244 . S
H121 C124 0.929 . S
H122 C127 0.929 . S
H123 C129 0.930 . S
C124 H121 0.929 . S
C124 C125 1.398 . S
C124 C126 1.396 . S
C125 C124 1.398 . S
C125 C129 1.407 . S
C126 C124 1.396 . S
C126 C127 1.394 . S
C127 H122 0.929 . S
C127 C126 1.394 . S
C127 C128 1.382 . S
C128 C127 1.382 . S
C128 C129 1.392 . S
C128 N130 1.420 . S
C129 H123 0.930 . S
C129 C125 1.407 . S
C129 C128 1.392 . S
N130 C128 1.420 . S
N130 C131 1.244 . S
C131 N130 1.244 . S
H132 C135 0.929 . S
H133 C138 0.929 . S
H134 C140 0.930 . S
C135 H132 0.929 . S
C135 C136 1.398 . S
C135 C137 1.396 . S
C136 C135 1.398 . S
C136 C140 1.407 . S
C137 C135 1.396 . S
C137 C138 1.394 . S
C138 H133 0.929 . S
C138 C137 1.394 . S
C138 C139 1.382 . S
C139 C138 1.382 . S
C139 C140 1.392 . S
C139 N141 1.420 . S
C140 H134 0.930 . S
C140 C136 1.407 . S
C140 C139 1.392 . S
N141 C139 1.420 . S
N141 C142 1.244 . S
C142 N141 1.244 . S
H143 C146 0.929 . S
H144 C149 0.929 . S
H145 C151 0.930 . S
C146 H143 0.929 . S
C146 C147 1.398 . S
C146 C148 1.396 . S
C147 C146 1.398 . S
C147 C151 1.407 . S
C148 C146 1.396 . S
C148 C149 1.394 . S
C149 H144 0.929 . S
C149 C148 1.394 . S
C149 C150 1.382 . S
C150 C149 1.382 . S
C150 C151 1.392 . S
C150 N152 1.420 . S
C151 H145 0.930 . S
C151 C147 1.407 . S
C151 C150 1.392 . S
N152 C150 1.420 . S
N152 C153 1.244 . S
C153 N152 1.244 . S
H154 C157 0.929 . S
H155 C160 0.929 . S
H156 C162 0.930 . S
C157 H154 0.929 . S
C157 C158 1.398 . S
C157 C159 1.396 . S
C158 C157 1.398 . S
C158 C162 1.407 . S
C159 C157 1.396 . S
C159 C160 1.394 . S
C160 H155 0.929 . S
C160 C159 1.394 . S
C160 C161 1.382 . S
C161 C160 1.382 . S
C161 C162 1.392 . S
C161 N163 1.420 . S
C162 H156 0.930 . S
C162 C158 1.407 . S
C162 C161 1.392 . S
N163 C161 1.420 . S
N163 C164 1.244 . S
C164 N163 1.244 . S
H165 C168 0.929 . S
H166 C171 0.929 . S
H167 C173 0.930 . S
C168 H165 0.929 . S
C168 C169 1.398 . S
C168 C170 1.396 . S
C169 C168 1.398 . S
C169 C173 1.407 . S
C170 C168 1.396 . S
C170 C171 1.394 . S
C171 H166 0.929 . S
C171 C170 1.394 . S
C171 C172 1.382 . S
C172 C171 1.382 . S
C172 C173 1.392 . S
C172 N174 1.420 . S
C173 H167 0.930 . S
C173 C169 1.407 . S
C173 C172 1.392 . S
N174 C172 1.420 . S
N174 C175 1.244 . S
C175 N174 1.244 . S
H176 C179 0.929 . S
H177 C182 0.929 . S
H178 C184 0.930 . S
C179 H176 0.929 . S
C179 C180 1.398 . S
C179 C181 1.396 . S
C180 C179 1.398 . S
C180 C184 1.407 . S
C181 C179 1.396 . S
C181 C182 1.394 . S
C182 H177 0.929 . S
C182 C181 1.394 . S
C182 C183 1.382 . S
C183 C182 1.382 . S
C183 C184 1.392 . S
C183 N185 1.420 . S
C184 H178 0.930 . S
C184 C180 1.407 . S
C184 C183 1.392 . S
N185 C183 1.420 . S
N185 C186 1.244 . S
C186 N185 1.244 . S
H187 C190 0.929 . S
H188 C193 0.929 . S
H189 C195 0.930 . S
C190 H187 0.929 . S
C190 C191 1.398 . S
C190 C192 1.396 . S
C191 C190 1.398 . S
C191 C195 1.407 . S
C192 C190 1.396 . S
C192 C193 1.394 . S
C193 H188 0.929 . S
C193 C192 1.394 . S
C193 C194 1.382 . S
C194 C193 1.382 . S
C194 C195 1.392 . S
C194 N196 1.420 . S
C195 H189 0.930 . S
C195 C191 1.407 . S
C195 C194 1.392 . S
N196 C194 1.420 . S
N196 C197 1.244 . S
C197 N196 1.244 . S
Tb198 O201 2.453 . S
Tb198 O202 2.596 1_545 S
Tb198 O203 2.374 1_545 S
Tb198 O211 2.343 1_554 S
Tb198 O213 2.353 . S
Tb198 O215 2.427 . S
Tb198 O216 2.537 . S
C199 O203 1.251 . S
C199 O205 1.263 1_554 S
Tb200 O202 2.343 1_556 S
Tb200 O205 2.353 . S
Tb200 O208 2.427 1_556 S
Tb200 O209 2.513 1_556 S
Tb200 O210 2.453 . S
Tb200 O211 2.596 1_565 S
Tb200 O212 2.374 1_566 S
O201 Tb198 2.453 . S
O201 C217 1.245 1_545 S
O202 Tb198 2.596 1_565 S
O202 Tb200 2.343 1_554 S
O202 C217 1.259 . S
O203 Tb198 2.374 1_565 S
O203 C199 1.251 . S
C204 O208 1.275 . S
C204 O209 1.246 . S
O205 C199 1.263 1_556 S
O205 Tb200 2.353 . S
C206 O210 1.245 1_545 S
C206 O211 1.259 . S
C207 O212 1.250 . S
C207 O213 1.263 . S
O208 Tb200 2.427 1_554 S
O208 C204 1.275 . S
O209 Tb200 2.513 1_554 S
O209 C204 1.246 . S
O210 Tb200 2.453 . S
O210 C206 1.245 1_565 S
O211 Tb198 2.343 1_556 S
O211 Tb200 2.596 1_545 S
O211 C206 1.259 . S
O212 Tb200 2.374 1_544 S
O212 C207 1.250 . S
O213 Tb198 2.353 . S
O213 C207 1.263 . S
C214 O215 1.275 1_556 S
C214 O216 1.238 1_556 S
O215 Tb198 2.427 . S
O215 C214 1.275 1_554 S
O216 Tb198 2.537 . S
O216 C214 1.238 1_554 S
C217 O201 1.245 1_565 S
C217 O202 1.259 . S
Tb218 O221 2.453 . S
Tb218 O222 2.596 1_655 S
Tb218 O223 2.374 1_655 S
Tb218 O231 2.343 1_554 S
Tb218 O233 2.353 . S
Tb218 O235 2.427 1_554 S
Tb218 O236 2.513 1_554 S
C219 O223 1.251 . S
C219 O225 1.263 . S
Tb220 O222 2.343 1_556 S
Tb220 O225 2.353 1_556 S
Tb220 O228 2.427 1_556 S
Tb220 O229 2.513 1_556 S
Tb220 O230 2.453 . S
Tb220 O231 2.596 1_455 S
Tb220 O232 2.374 1_455 S
O221 Tb218 2.453 . S
O221 C237 1.245 1_655 S
O222 Tb218 2.596 1_455 S
O222 Tb220 2.343 1_554 S
O222 C237 1.259 . S
O223 Tb218 2.374 1_455 S
O223 C219 1.251 . S
C224 O228 1.275 . S
C224 O229 1.246 . S
O225 C219 1.263 . S
O225 Tb220 2.353 1_554 S
C226 O230 1.245 1_655 S
C226 O231 1.259 . S
C227 O232 1.250 1_554 S
C227 O233 1.263 . S
O228 Tb220 2.427 1_554 S
O228 C224 1.275 . S
O229 Tb220 2.513 1_554 S
O229 C224 1.246 . S
O230 Tb220 2.453 . S
O230 C226 1.245 1_455 S
O231 Tb218 2.343 1_556 S
O231 Tb220 2.596 1_655 S
O231 C226 1.259 . S
O232 Tb220 2.374 1_655 S
O232 C227 1.250 1_556 S
O233 Tb218 2.353 . S
O233 C227 1.263 . S
C234 O235 1.275 . S
C234 O236 1.246 . S
O235 Tb218 2.427 1_556 S
O235 C234 1.275 . S
O236 Tb218 2.513 1_556 S
O236 C234 1.246 . S
C237 O221 1.245 1_455 S
C237 O222 1.259 . S
Tb238 O241 2.453 . S
Tb238 O242 2.596 . S
Tb238 O243 2.374 1_556 S
Tb238 O251 2.343 1_556 S
Tb238 O253 2.353 1_556 S
Tb238 O255 2.427 1_556 S
Tb238 O256 2.513 1_556 S
C239 O243 1.251 . S
C239 O245 1.263 . S
Tb240 O242 2.343 1_554 S
Tb240 O245 2.353 . S
Tb240 O248 2.427 . S
Tb240 O249 2.505 1_554 S
Tb240 O250 2.453 . S
Tb240 O251 2.596 . S
Tb240 O252 2.374 . S
O241 Tb238 2.453 . S
O241 C257 1.245 . S
O242 Tb238 2.596 . S
O242 Tb240 2.343 1_556 S
O242 C257 1.259 . S
O243 Tb238 2.374 1_554 S
O243 C239 1.251 . S
C244 O248 1.275 1_556 S
C244 O249 1.248 . S
O245 C239 1.263 . S
O245 Tb240 2.353 . S
C246 O250 1.245 . S
C246 O251 1.259 . S
C247 O252 1.250 . S
C247 O253 1.263 . S
O248 Tb240 2.427 . S
O248 C244 1.275 1_554 S
O249 Tb240 2.505 1_556 S
O249 C244 1.248 . S
O250 Tb240 2.453 . S
O250 C246 1.245 . S
O251 Tb238 2.343 1_554 S
O251 Tb240 2.596 . S
O251 C246 1.259 . S
O252 Tb240 2.374 . S
O252 C247 1.250 . S
O253 Tb238 2.353 1_554 S
O253 C247 1.263 . S
C254 O255 1.275 . S
C254 O256 1.246 . S
O255 Tb238 2.427 1_554 S
O255 C254 1.275 . S
O256 Tb238 2.513 1_554 S
O256 C254 1.246 . S
C257 O241 1.245 . S
C257 O242 1.259 . S
Tb258 O261 2.453 . S
Tb258 O262 2.596 . S
Tb258 O263 2.374 . S
Tb258 O271 2.343 . S
Tb258 O273 2.353 . S
Tb258 O275 2.427 . S
Tb258 O276 2.513 . S
C259 O263 1.251 . S
C259 O265 1.263 . S
Tb260 O262 2.343 . S
Tb260 O265 2.353 . S
Tb260 O268 2.427 . S
Tb260 O269 2.513 . S
Tb260 O270 2.453 . S
Tb260 O271 2.596 . S
Tb260 O272 2.374 . S
O261 Tb258 2.453 . S
O261 C277 1.245 . S
O262 Tb258 2.596 . S
O262 Tb260 2.343 . S
O262 C277 1.259 . S
O263 Tb258 2.374 . S
O263 C259 1.251 . S
C264 O268 1.275 . S
C264 O269 1.246 . S
O265 C259 1.263 . S
O265 Tb260 2.353 . S
C266 O270 1.245 . S
C266 O271 1.259 . S
C267 O272 1.250 . S
C267 O273 1.263 . S
O268 Tb260 2.427 . S
O268 C264 1.275 . S
O269 Tb260 2.513 . S
O269 C264 1.246 . S
O270 Tb260 2.453 . S
O270 C266 1.245 . S
O271 Tb258 2.343 . S
O271 Tb260 2.596 . S
O271 C266 1.259 . S
O272 Tb260 2.374 . S
O272 C267 1.250 . S
O273 Tb258 2.353 . S
O273 C267 1.263 . S
C274 O275 1.275 . S
C274 O276 1.246 . S
O275 Tb258 2.427 . S
O275 C274 1.275 . S
O276 Tb258 2.513 . S
O276 C274 1.246 . S
C277 O261 1.245 . S
C277 O262 1.259 . S
Tb278 O281 2.453 . S
Tb278 O282 2.596 . S
Tb278 O283 2.374 . S
Tb278 O291 2.343 . S
Tb278 O293 2.353 . S
Tb278 O295 2.427 . S
Tb278 O296 2.513 . S
C279 O283 1.251 . S
C279 O285 1.263 . S
Tb280 O282 2.343 . S
Tb280 O285 2.353 . S
Tb280 O288 2.427 . S
Tb280 O289 2.513 . S
Tb280 O290 2.453 . S
Tb280 O291 2.596 . S
Tb280 O292 2.374 . S
O281 Tb278 2.453 . S
O281 C297 1.245 . S
O282 Tb278 2.596 . S
O282 Tb280 2.343 . S
O282 C297 1.259 . S
O283 Tb278 2.374 . S
O283 C279 1.251 . S
C284 O288 1.275 . S
C284 O289 1.246 . S
O285 C279 1.263 . S
O285 Tb280 2.353 . S
C286 O290 1.245 . S
C286 O291 1.259 . S
C287 O292 1.250 . S
C287 O293 1.263 . S
O288 Tb280 2.427 . S
O288 C284 1.275 . S
O289 Tb280 2.513 . S
O289 C284 1.246 . S
O290 Tb280 2.453 . S
O290 C286 1.245 . S
O291 Tb278 2.343 . S
O291 Tb280 2.596 . S
O291 C286 1.259 . S
O292 Tb280 2.374 . S
O292 C287 1.250 . S
O293 Tb278 2.353 . S
O293 C287 1.263 . S
C294 O295 1.275 . S
C294 O296 1.246 . S
O295 Tb278 2.427 . S
O295 C294 1.275 . S
O296 Tb278 2.513 . S
O296 C294 1.246 . S
C297 O281 1.245 . S
C297 O282 1.259 . S
Tb298 O301 2.453 . S
Tb298 O302 2.596 . S
Tb298 O303 2.374 . S
Tb298 O311 2.343 . S
Tb298 O313 2.353 . S
Tb298 O315 2.427 . S
Tb298 O316 2.513 . S
C299 O303 1.251 . S
C299 O305 1.263 . S
Tb300 O302 2.343 . S
Tb300 O305 2.353 . S
Tb300 O308 2.427 . S
Tb300 O309 2.513 . S
Tb300 O310 2.453 . S
Tb300 O311 2.596 . S
Tb300 O312 2.374 . S
O301 Tb298 2.453 . S
O301 C317 1.245 . S
O302 Tb298 2.596 . S
O302 Tb300 2.343 . S
O302 C317 1.259 . S
O303 Tb298 2.374 . S
O303 C299 1.251 . S
C304 O308 1.275 . S
C304 O309 1.246 . S
O305 C299 1.263 . S
O305 Tb300 2.353 . S
C306 O310 1.245 . S
C306 O311 1.259 . S
C307 O312 1.250 . S
C307 O313 1.263 . S
O308 Tb300 2.427 . S
O308 C304 1.275 . S
O309 Tb300 2.513 . S
O309 C304 1.246 . S
O310 Tb300 2.453 . S
O310 C306 1.245 . S
O311 Tb298 2.343 . S
O311 Tb300 2.596 . S
O311 C306 1.259 . S
O312 Tb300 2.374 . S
O312 C307 1.250 . S
O313 Tb298 2.353 . S
O313 C307 1.263 . S
C314 O315 1.275 . S
C314 O316 1.246 . S
O315 Tb298 2.427 . S
O315 C314 1.275 . S
O316 Tb298 2.513 . S
O316 C314 1.246 . S
C317 O301 1.245 . S
C317 O302 1.259 . S
Tb318 O321 2.453 . S
Tb318 O322 2.596 . S
Tb318 O323 2.374 . S
Tb318 O331 2.343 . S
Tb318 O333 2.353 . S
Tb318 O335 2.427 . S
Tb318 O336 2.513 . S
C319 O323 1.251 . S
C319 O325 1.263 . S
Tb320 O322 2.343 . S
Tb320 O325 2.353 . S
Tb320 O328 2.427 . S
Tb320 O329 2.513 . S
Tb320 O330 2.453 . S
Tb320 O331 2.596 . S
Tb320 O332 2.374 . S
O321 Tb318 2.453 . S
O321 C337 1.245 . S
O322 Tb318 2.596 . S
O322 Tb320 2.343 . S
O322 C337 1.259 . S
O323 Tb318 2.374 . S
O323 C319 1.251 . S
C324 O328 1.275 . S
C324 O329 1.246 . S
O325 C319 1.263 . S
O325 Tb320 2.353 . S
C326 O330 1.245 . S
C326 O331 1.259 . S
C327 O332 1.250 . S
C327 O333 1.263 . S
O328 Tb320 2.427 . S
O328 C324 1.275 . S
O329 Tb320 2.513 . S
O329 C324 1.246 . S
O330 Tb320 2.453 . S
O330 C326 1.245 . S
O331 Tb318 2.343 . S
O331 Tb320 2.596 . S
O331 C326 1.259 . S
O332 Tb320 2.374 . S
O332 C327 1.250 . S
O333 Tb318 2.353 . S
O333 C327 1.263 . S
C334 O335 1.275 . S
C334 O336 1.246 . S
O335 Tb318 2.427 . S
O335 C334 1.275 . S
O336 Tb318 2.513 . S
O336 C334 1.246 . S
C337 O321 1.245 . S
C337 O322 1.259 . S
Tb338 O341 2.453 . S
Tb338 O342 2.596 . S
Tb338 O343 2.374 . S
Tb338 O351 2.343 . S
Tb338 O353 2.353 . S
Tb338 O355 2.427 . S
Tb338 O356 2.513 . S
C339 O343 1.251 . S
C339 O345 1.263 . S
Tb340 O342 2.343 . S
Tb340 O345 2.353 . S
Tb340 O348 2.427 . S
Tb340 O349 2.513 . S
Tb340 O350 2.453 . S
Tb340 O351 2.596 . S
Tb340 O352 2.374 . S
O341 Tb338 2.453 . S
O341 C357 1.245 . S
O342 Tb338 2.596 . S
O342 Tb340 2.343 . S
O342 C357 1.259 . S
O343 Tb338 2.374 . S
O343 C339 1.251 . S
C344 O348 1.275 . S
C344 O349 1.246 . S
O345 C339 1.263 . S
O345 Tb340 2.353 . S
C346 O350 1.245 . S
C346 O351 1.259 . S
C347 O352 1.250 . S
C347 O353 1.263 . S
O348 Tb340 2.427 . S
O348 C344 1.275 . S
O349 Tb340 2.513 . S
O349 C344 1.246 . S
O350 Tb340 2.453 . S
O350 C346 1.245 . S
O351 Tb338 2.343 . S
O351 Tb340 2.596 . S
O351 C346 1.259 . S
O352 Tb340 2.374 . S
O352 C347 1.250 . S
O353 Tb338 2.353 . S
O353 C347 1.263 . S
C354 O355 1.275 . S
C354 O356 1.246 . S
O355 Tb338 2.427 . S
O355 C354 1.275 . S
O356 Tb338 2.513 . S
O356 C354 1.246 . S
C357 O341 1.245 . S
C357 O342 1.259 . S
Tb358 O361 2.453 . S
Tb358 O362 2.596 . S
Tb358 O363 2.374 . S
Tb358 O371 2.343 . S
Tb358 O373 2.353 . S
Tb358 O375 2.427 . S
Tb358 O376 2.513 . S
C359 O363 1.251 . S
C359 O365 1.263 . S
Tb360 O362 2.343 . S
Tb360 O365 2.353 . S
Tb360 O368 2.427 . S
Tb360 O369 2.513 . S
Tb360 O370 2.453 . S
Tb360 O371 2.596 . S
Tb360 O372 2.374 . S
O361 Tb358 2.453 . S
O361 C377 1.245 . S
O362 Tb358 2.596 . S
O362 Tb360 2.343 . S
O362 C377 1.259 . S
O363 Tb358 2.374 . S
O363 C359 1.251 . S
C364 O368 1.275 . S
C364 O369 1.246 . S
O365 C359 1.263 . S
O365 Tb360 2.353 . S
C366 O370 1.245 . S
C366 O371 1.259 . S
C367 O372 1.250 . S
C367 O373 1.263 . S
O368 Tb360 2.427 . S
O368 C364 1.275 . S
O369 Tb360 2.513 . S
O369 C364 1.246 . S
O370 Tb360 2.453 . S
O370 C366 1.245 . S
O371 Tb358 2.343 . S
O371 Tb360 2.596 . S
O371 C366 1.259 . S
O372 Tb360 2.374 . S
O372 C367 1.250 . S
O373 Tb358 2.353 . S
O373 C367 1.263 . S
C374 O375 1.275 . S
C374 O376 1.246 . S
O375 Tb358 2.427 . S
O375 C374 1.275 . S
O376 Tb358 2.513 . S
O376 C374 1.246 . S
C377 O361 1.245 . S
C377 O362 1.259 . S
H378 C386 0.950 . S
H379 C391 0.950 . S
H380 C388 0.950 . S
H381 C390 0.950 . S
H382 C392 0.950 . S
H383 C394 0.950 . S
H384 C396 0.950 . S
H385 C397 0.950 . S
C386 H378 0.950 . S
C386 C387 1.386 . S
C386 C388 1.391 . S
C387 C386 1.386 . S
C387 C391 1.393 . S
C388 H380 0.950 . S
C388 C386 1.391 . S
C388 C389 1.400 . S
C389 C388 1.400 . S
C389 C390 1.398 . S
C389 C395 1.491 . S
C390 H381 0.950 . S
C390 C389 1.398 . S
C390 C391 1.391 . S
C391 H379 0.950 . S
C391 C387 1.393 . S
C391 C390 1.391 . S
C392 H382 0.950 . S
C392 C393 1.386 . S
C392 C394 1.391 . S
C393 C392 1.386 . S
C393 C397 1.393 . S
C394 H383 0.950 . S
C394 C392 1.391 . S
C394 C395 1.400 . S
C395 C389 1.491 . S
C395 C394 1.400 . S
C395 C396 1.398 . S
C396 H384 0.950 . S
C396 C395 1.398 . S
C396 C397 1.391 . S
C397 H385 0.950 . S
C397 C393 1.393 . S
C397 C396 1.391 . S
H398 C406 0.950 . S
H399 C411 0.950 . S
H400 C408 0.950 . S
H401 C410 0.950 . S
H402 C412 0.950 . S
H403 C414 0.950 . S
H404 C416 0.950 . S
H405 C417 0.950 . S
C406 H398 0.950 . S
C406 C407 1.386 . S
C406 C408 1.391 . S
C407 C406 1.386 . S
C407 C411 1.393 . S
C408 H400 0.950 . S
C408 C406 1.391 . S
C408 C409 1.400 . S
C409 C408 1.400 . S
C409 C410 1.398 . S
C409 C415 1.491 . S
C410 H401 0.950 . S
C410 C409 1.398 . S
C410 C411 1.391 . S
C411 H399 0.950 . S
C411 C407 1.393 . S
C411 C410 1.391 . S
C412 H402 0.950 . S
C412 C413 1.386 . S
C412 C414 1.391 . S
C413 C412 1.386 . S
C413 C417 1.393 . S
C414 H403 0.950 . S
C414 C412 1.391 . S
C414 C415 1.400 . S
C415 C409 1.491 . S
C415 C414 1.400 . S
C415 C416 1.398 . S
C416 H404 0.950 . S
C416 C415 1.398 . S
C416 C417 1.391 . S
C417 H405 0.950 . S
C417 C413 1.393 . S
C417 C416 1.391 . S
H418 C426 0.950 . S
H419 C431 0.950 . S
H420 C428 0.950 . S
H421 C430 0.950 . S
H422 C432 0.950 . S
H423 C434 0.950 . S
H424 C436 0.950 . S
H425 C437 0.950 . S
C426 H418 0.950 . S
C426 C427 1.386 . S
C426 C428 1.391 . S
C427 C426 1.386 . S
C427 C431 1.393 . S
C428 H420 0.950 . S
C428 C426 1.391 . S
C428 C429 1.400 . S
C429 C428 1.400 . S
C429 C430 1.398 . S
C429 C435 1.491 . S
C430 H421 0.950 . S
C430 C429 1.398 . S
C430 C431 1.391 . S
C431 H419 0.950 . S
C431 C427 1.393 . S
C431 C430 1.391 . S
C432 H422 0.950 . S
C432 C433 1.386 . S
C432 C434 1.391 . S
C433 C432 1.386 . S
C433 C437 1.393 . S
C434 H423 0.950 . S
C434 C432 1.391 . S
C434 C435 1.400 . S
C435 C429 1.491 . S
C435 C434 1.400 . S
C435 C436 1.398 . S
C436 H424 0.950 . S
C436 C435 1.398 . S
C436 C437 1.391 . S
C437 H425 0.950 . S
C437 C433 1.393 . S
C437 C436 1.391 . S
H438 C446 0.950 . S
H439 C451 0.950 . S
H440 C448 0.950 . S
H441 C450 0.950 . S
H442 C452 0.950 . S
H443 C454 0.950 . S
H444 C456 0.950 1_554 S
H445 C457 0.950 . S
C446 H438 0.950 . S
C446 C447 1.386 . S
C446 C448 1.391 . S
C447 C446 1.386 . S
C447 C451 1.393 . S
C448 H440 0.950 . S
C448 C446 1.391 . S
C448 C449 1.400 . S
C449 C448 1.400 . S
C449 C450 1.398 . S
C449 C455 1.491 . S
C450 H441 0.950 . S
C450 C449 1.398 . S
C450 C451 1.391 . S
C451 H439 0.950 . S
C451 C447 1.393 . S
C451 C450 1.391 . S
C452 H442 0.950 . S
C452 C453 1.386 . S
C452 C454 1.391 . S
C453 C452 1.386 . S
C453 C457 1.393 1_556 S
C454 H443 0.950 . S
C454 C452 1.391 . S
C454 C455 1.400 . S
C455 C449 1.491 . S
C455 C454 1.400 . S
C455 C456 1.398 . S
C456 H444 0.950 1_556 S
C456 C455 1.398 . S
C456 C457 1.391 1_556 S
C457 H445 0.950 . S
C457 C453 1.393 1_554 S
C457 C456 1.391 1_554 S
H458 C466 0.950 . S
H459 C471 0.950 . S
H460 C468 0.950 . S
H461 C470 0.950 . S
H462 C472 0.905 1_554 S
H463 C474 0.950 1_554 S
H464 C476 0.950 . S
H465 C477 0.950 . S
C466 H458 0.950 . S
C466 C467 1.386 . S
C466 C468 1.391 . S
C467 C466 1.386 . S
C467 C471 1.393 . S
C468 H460 0.950 . S
C468 C466 1.391 . S
C468 C469 1.400 . S
C469 C468 1.400 . S
C469 C470 1.398 . S
C469 C475 1.491 . S
C470 H461 0.950 . S
C470 C469 1.398 . S
C470 C471 1.391 . S
C471 H459 0.950 . S
C471 C467 1.393 . S
C471 C470 1.391 . S
C472 H462 0.905 1_556 S
C472 C473 1.413 . S
C472 C474 1.409 . S
C473 C472 1.413 . S
C473 C477 1.393 . S
C474 H463 0.950 1_556 S
C474 C472 1.409 . S
C474 C475 1.400 . S
C475 C469 1.491 . S
C475 C474 1.400 . S
C475 C476 1.398 . S
C476 H464 0.950 . S
C476 C475 1.398 . S
C476 C477 1.391 . S
C477 H465 0.950 . S
C477 C473 1.393 . S
C477 C476 1.391 . S
H478 C486 0.950 . S
H479 C491 0.928 1_554 S
H480 C488 0.950 . S
H481 C490 0.950 1_554 S
H482 C492 0.950 . S
H483 C494 0.950 . S
H484 C496 0.950 . S
H485 C497 0.950 . S
C486 H478 0.950 . S
C486 C487 1.386 . S
C486 C488 1.391 . S
C487 C486 1.386 . S
C487 C491 1.393 . S
C488 H480 0.950 . S
C488 C486 1.391 . S
C488 C489 1.400 . S
C489 C488 1.400 . S
C489 C490 1.398 . S
C489 C495 1.491 . S
C490 H481 0.950 1_556 S
C490 C489 1.398 . S
C490 C491 1.391 . S
C491 H479 0.928 1_556 S
C491 C487 1.393 . S
C491 C490 1.391 . S
C492 H482 0.950 . S
C492 C493 1.386 1_554 S
C492 C494 1.391 . S
C493 C492 1.386 1_556 S
C493 C497 1.393 . S
C494 H483 0.950 . S
C494 C492 1.391 . S
C494 C495 1.400 1_554 S
C495 C489 1.491 . S
C495 C494 1.400 1_556 S
C495 C496 1.398 . S
C496 H484 0.950 . S
C496 C495 1.398 . S
C496 C497 1.391 . S
C497 H485 0.950 . S
C497 C493 1.393 . S
C497 C496 1.391 . S
H498 C506 0.950 . S
H499 C511 0.950 . S
H500 C508 0.950 . S
H501 C510 0.950 . S
H502 C512 0.950 1_554 S
H503 C514 0.950 . S
H504 C516 0.950 . S
H505 C517 0.950 . S
C506 H498 0.950 . S
C506 C507 1.386 . S
C506 C508 1.391 . S
C507 C506 1.386 . S
C507 C511 1.393 . S
C508 H500 0.950 . S
C508 C506 1.391 . S
C508 C509 1.400 . S
C509 C508 1.400 . S
C509 C510 1.398 . S
C509 C515 1.491 . S
C510 H501 0.950 . S
C510 C509 1.398 . S
C510 C511 1.391 . S
C511 H499 0.950 . S
C511 C507 1.393 . S
C511 C510 1.391 . S
C512 H502 0.950 1_556 S
C512 C513 1.386 . S
C512 C514 1.391 . S
C513 C512 1.386 . S
C513 C517 1.393 . S
C514 H503 0.950 . S
C514 C512 1.391 . S
C514 C515 1.400 . S
C515 C509 1.491 . S
C515 C514 1.400 . S
C515 C516 1.398 . S
C516 H504 0.950 . S
C516 C515 1.398 . S
C516 C517 1.391 . S
C517 H505 0.950 . S
C517 C513 1.393 . S
C517 C516 1.391 . S
H518 C526 0.950 . S
H519 C531 0.950 . S
H520 C528 0.950 . S
H521 C530 0.950 . S
H522 C532 0.950 1_554 S
H523 C534 0.950 1_554 S
H524 C536 0.950 . S
H525 C537 0.950 . S
C526 H518 0.950 . S
C526 C527 1.386 . S
C526 C528 1.391 . S
C527 C526 1.386 . S
C527 C531 1.393 . S
C528 H520 0.950 . S
C528 C526 1.391 . S
C528 C529 1.400 . S
C529 C528 1.400 . S
C529 C530 1.398 . S
C529 C535 1.491 . S
C530 H521 0.950 . S
C530 C529 1.398 . S
C530 C531 1.391 . S
C531 H519 0.950 . S
C531 C527 1.393 . S
C531 C530 1.391 . S
C532 H522 0.950 1_556 S
C532 C533 1.386 . S
C532 C534 1.391 . S
C533 C532 1.386 . S
C533 C537 1.393 . S
C534 H523 0.950 1_556 S
C534 C532 1.391 . S
C534 C535 1.400 . S
C535 C529 1.491 . S
C535 C534 1.400 . S
C535 C536 1.398 . S
C536 H524 0.950 . S
C536 C535 1.398 . S
C536 C537 1.391 . S
C537 H525 0.950 . S
C537 C533 1.393 . S
C537 C536 1.391 . S
H538 C546 0.950 . S
H539 C551 0.950 . S
H540 C548 0.950 . S
H541 C550 0.950 . S
H542 C552 0.950 . S
H543 C554 0.950 . S
H544 C556 0.950 . S
H545 C557 0.950 . S
C546 H538 0.950 . S
C546 C547 1.386 1_554 S
C546 C548 1.391 . S
C547 C546 1.386 1_556 S
C547 C551 1.393 . S
C548 H540 0.950 . S
C548 C546 1.391 . S
C548 C549 1.400 1_554 S
C549 C548 1.400 1_556 S
C549 C550 1.398 . S
C549 C555 1.491 . S
C550 H541 0.950 . S
C550 C549 1.398 . S
C550 C551 1.391 . S
C551 H539 0.950 . S
C551 C547 1.393 . S
C551 C550 1.391 . S
C552 H542 0.950 . S
C552 C553 1.354 1_556 S
C552 C554 1.391 . S
C553 C552 1.354 1_554 S
C553 C557 1.423 . S
C554 H543 0.950 . S
C554 C552 1.391 . S
C554 C555 1.400 . S
C555 C549 1.491 . S
C555 C554 1.400 . S
C555 C556 1.398 1_556 S
C556 H544 0.950 . S
C556 C555 1.398 1_554 S
C556 C557 1.391 . S
C557 H545 0.950 . S
C557 C553 1.423 . S
C557 C556 1.391 . S
H558 C566 0.950 . S
H559 C571 0.950 . S
H560 C568 0.950 . S
H561 C570 0.950 . S
H562 C572 0.950 . S
H563 C574 0.950 . S
H564 C576 0.950 . S
H565 C577 0.950 . S
C566 H558 0.950 . S
C566 C567 1.386 . S
C566 C568 1.391 . S
C567 C566 1.386 . S
C567 C571 1.393 . S
C568 H560 0.950 . S
C568 C566 1.391 . S
C568 C569 1.400 . S
C569 C568 1.400 . S
C569 C570 1.398 . S
C569 C575 1.491 . S
C570 H561 0.950 . S
C570 C569 1.398 . S
C570 C571 1.391 . S
C571 H559 0.950 . S
C571 C567 1.393 . S
C571 C570 1.391 . S
C572 H562 0.950 . S
C572 C573 1.386 . S
C572 C574 1.391 . S
C573 C572 1.386 . S
C573 C577 1.393 . S
C574 H563 0.950 . S
C574 C572 1.391 . S
C574 C575 1.400 . S
C575 C569 1.491 . S
C575 C574 1.400 . S
C575 C576 1.398 . S
C576 H564 0.950 . S
C576 C575 1.398 . S
C576 C577 1.391 . S
C577 H565 0.950 . S
C577 C573 1.393 . S
C577 C576 1.391 . S
H578 C586 0.950 . S
H579 C591 0.950 . S
H580 C588 0.950 . S
H581 C590 0.950 . S
H582 C592 0.950 . S
H583 C594 0.950 . S
H584 C596 0.950 . S
H585 C597 0.950 . S
C586 H578 0.950 . S
C586 C587 1.386 . S
C586 C588 1.391 . S
C587 C586 1.386 . S
C587 C591 1.393 . S
C588 H580 0.950 . S
C588 C586 1.391 . S
C588 C589 1.400 . S
C589 C588 1.400 . S
C589 C590 1.398 . S
C589 C595 1.491 . S
C590 H581 0.950 . S
C590 C589 1.398 . S
C590 C591 1.391 . S
C591 H579 0.950 . S
C591 C587 1.393 . S
C591 C590 1.391 . S
C592 H582 0.950 . S
C592 C593 1.386 . S
C592 C594 1.391 . S
C593 C592 1.386 . S
C593 C597 1.393 . S
C594 H583 0.950 . S
C594 C592 1.391 . S
C594 C595 1.400 . S
C595 C589 1.491 . S
C595 C594 1.400 . S
C595 C596 1.398 . S
C596 H584 0.950 . S
C596 C595 1.398 . S
C596 C597 1.391 . S
C597 H585 0.950 . S
C597 C593 1.393 . S
C597 C596 1.391 . S
H598 C606 0.950 . S
H599 C611 0.950 . S
H600 C608 0.950 . S
H601 C610 0.950 . S
H602 C612 0.950 1_556 S
H603 C614 0.950 1_556 S
H604 C616 0.950 . S
H605 C617 0.950 . S
C606 H598 0.950 . S
C606 C607 1.386 . S
C606 C608 1.391 . S
C607 C606 1.386 . S
C607 C611 1.393 . S
C608 H600 0.950 . S
C608 C606 1.391 . S
C608 C609 1.400 . S
C609 C608 1.400 . S
C609 C610 1.398 . S
C609 C615 1.491 . S
C610 H601 0.950 . S
C610 C609 1.398 . S
C610 C611 1.391 . S
C611 H599 0.950 . S
C611 C607 1.393 . S
C611 C610 1.391 . S
C612 H602 0.950 1_554 S
C612 C613 1.386 . S
C612 C614 1.391 . S
C613 C612 1.386 . S
C613 C617 1.393 . S
C614 H603 0.950 1_554 S
C614 C612 1.391 . S
C614 C615 1.400 . S
C615 C609 1.491 . S
C615 C614 1.400 . S
C615 C616 1.398 . S
C616 H604 0.950 . S
C616 C615 1.398 . S
C616 C617 1.391 . S
C617 H605 0.950 . S
C617 C613 1.393 . S
C617 C616 1.391 . S
H618 C626 0.950 . S
H619 C631 0.950 . S
H620 C628 0.950 . S
H621 C630 0.950 . S
H622 C632 0.950 . S
H623 C634 0.950 . S
H624 C636 0.950 . S
H625 C637 0.950 . S
C626 H618 0.950 . S
C626 C627 1.386 . S
C626 C628 1.391 . S
C627 C626 1.386 . S
C627 C631 1.393 . S
C628 H620 0.950 . S
C628 C626 1.391 . S
C628 C629 1.400 . S
C629 C628 1.400 . S
C629 C630 1.398 . S
C629 C635 1.491 1_655 S
C630 H621 0.950 . S
C630 C629 1.398 . S
C630 C631 1.391 . S
C631 H619 0.950 . S
C631 C627 1.393 . S
C631 C630 1.391 . S
C632 H622 0.950 . S
C632 C633 1.386 . S
C632 C634 1.391 . S
C633 C632 1.386 . S
C633 C637 1.393 . S
C634 H623 0.950 . S
C634 C632 1.391 . S
C634 C635 1.400 . S
C635 C629 1.491 1_455 S
C635 C634 1.400 . S
C635 C636 1.398 . S
C636 H624 0.950 . S
C636 C635 1.398 . S
C636 C637 1.391 . S
C637 H625 0.950 . S
C637 C633 1.393 . S
C637 C636 1.391 . S
H638 C646 0.950 . S
H639 C651 0.950 . S
H640 C648 0.950 . S
H641 C650 0.950 . S
H642 C652 0.950 . S
H643 C654 0.950 . S
H644 C656 0.950 . S
H645 C657 0.950 . S
C646 H638 0.950 . S
C646 C647 1.386 . S
C646 C648 1.391 . S
C647 C646 1.386 . S
C647 C651 1.393 . S
C648 H640 0.950 . S
C648 C646 1.391 . S
C648 C649 1.400 . S
C649 C648 1.400 . S
C649 C650 1.398 . S
C649 C655 1.491 . S
C650 H641 0.950 . S
C650 C649 1.398 . S
C650 C651 1.391 . S
C651 H639 0.950 . S
C651 C647 1.393 . S
C651 C650 1.391 . S
C652 H642 0.950 . S
C652 C653 1.386 . S
C652 C654 1.391 . S
C653 C652 1.386 . S
C653 C657 1.393 . S
C654 H643 0.950 . S
C654 C652 1.391 . S
C654 C655 1.400 . S
C655 C649 1.491 . S
C655 C654 1.400 . S
C655 C656 1.398 . S
C656 H644 0.950 . S
C656 C655 1.398 . S
C656 C657 1.391 . S
C657 H645 0.950 . S
C657 C653 1.393 . S
C657 C656 1.391 . S
H658 C666 0.950 . S
H659 C671 0.950 . S
H660 C668 0.950 . S
H661 C670 0.950 . S
H662 C672 0.950 . S
H663 C674 0.950 . S
H664 C676 0.950 . S
H665 C677 0.950 . S
C666 H658 0.950 . S
C666 C667 1.386 . S
C666 C668 1.391 . S
C667 C666 1.386 . S
C667 C671 1.393 . S
C668 H660 0.950 . S
C668 C666 1.391 . S
C668 C669 1.400 . S
C669 C668 1.400 . S
C669 C670 1.398 . S
C669 C675 1.491 1_545 S
C670 H661 0.950 . S
C670 C669 1.398 . S
C670 C671 1.391 . S
C671 H659 0.950 . S
C671 C667 1.393 . S
C671 C670 1.391 . S
C672 H662 0.950 . S
C672 C673 1.386 . S
C672 C674 1.391 . S
C673 C672 1.386 . S
C673 C677 1.393 . S
C674 H663 0.950 . S
C674 C672 1.391 . S
C674 C675 1.400 . S
C675 C669 1.491 1_565 S
C675 C674 1.400 . S
C675 C676 1.398 . S
C676 H664 0.950 . S
C676 C675 1.398 . S
C676 C677 1.391 . S
C677 H665 0.950 . S
C677 C673 1.393 . S
C677 C676 1.391 . S
H678 C686 0.950 . S
H679 C691 0.950 . S
H680 C688 0.950 . S
H681 C690 0.950 . S
H682 C692 0.950 . S
H683 C694 0.950 . S
H684 C696 0.950 . S
H685 C697 0.950 . S
C686 H678 0.950 . S
C686 C687 1.386 . S
C686 C688 1.391 . S
C687 C686 1.386 . S
C687 C691 1.393 . S
C688 H680 0.950 . S
C688 C686 1.391 . S
C688 C689 1.400 . S
C689 C688 1.400 . S
C689 C690 1.398 . S
C689 C695 1.491 . S
C690 H681 0.950 . S
C690 C689 1.398 . S
C690 C691 1.391 . S
C691 H679 0.950 . S
C691 C687 1.393 . S
C691 C690 1.391 . S
C692 H682 0.950 . S
C692 C693 1.386 . S
C692 C694 1.391 . S
C693 C692 1.386 . S
C693 C697 1.393 . S
C694 H683 0.950 . S
C694 C692 1.391 . S
C694 C695 1.400 . S
C695 C689 1.491 . S
C695 C694 1.400 . S
C695 C696 1.398 . S
C696 H684 0.950 . S
C696 C695 1.398 . S
C696 C697 1.391 . S
C697 H685 0.950 . S
C697 C693 1.393 . S
C697 C696 1.391 . S
H698 C706 0.950 . S
H699 C711 0.950 . S
H700 C708 0.950 . S
H701 C710 0.950 . S
H702 C712 0.950 . S
H703 C714 0.950 . S
H704 C716 0.950 . S
H705 C717 0.950 . S
C706 H698 0.950 . S
C706 C707 1.386 . S
C706 C708 1.391 . S
C707 C706 1.386 . S
C707 C711 1.393 . S
C708 H700 0.950 . S
C708 C706 1.391 . S
C708 C709 1.400 . S
C709 C708 1.400 . S
C709 C710 1.398 . S
C709 C715 1.491 . S
C710 H701 0.950 . S
C710 C709 1.398 . S
C710 C711 1.391 . S
C711 H699 0.950 . S
C711 C707 1.393 . S
C711 C710 1.391 . S
C712 H702 0.950 . S
C712 C713 1.386 . S
C712 C714 1.391 . S
C713 C712 1.386 . S
C713 C717 1.393 . S
C714 H703 0.950 . S
C714 C712 1.391 . S
C714 C715 1.400 . S
C715 C709 1.491 . S
C715 C714 1.400 . S
C715 C716 1.398 . S
C716 H704 0.950 . S
C716 C715 1.398 . S
C716 C717 1.391 . S
C717 H705 0.950 . S
C717 C713 1.393 . S
C717 C716 1.391 . S
H718 C726 0.950 . S
H719 C731 0.950 . S
H720 C728 0.950 . S
H721 C730 0.950 . S
H722 C732 0.950 . S
H723 C734 0.950 . S
H724 C736 0.950 . S
H725 C737 0.950 . S
C726 H718 0.950 . S
C726 C727 1.386 . S
C726 C728 1.391 . S
C727 C726 1.386 . S
C727 C731 1.393 . S
C728 H720 0.950 . S
C728 C726 1.391 . S
C728 C729 1.400 . S
C729 C728 1.400 . S
C729 C730 1.398 . S
C729 C735 1.491 . S
C730 H721 0.950 . S
C730 C729 1.398 . S
C730 C731 1.391 . S
C731 H719 0.950 . S
C731 C727 1.393 . S
C731 C730 1.391 . S
C732 H722 0.950 . S
C732 C733 1.386 . S
C732 C734 1.391 . S
C733 C732 1.386 . S
C733 C737 1.393 . S
C734 H723 0.950 . S
C734 C732 1.391 . S
C734 C735 1.400 . S
C735 C729 1.491 . S
C735 C734 1.400 . S
C735 C736 1.398 . S
C736 H724 0.950 . S
C736 C735 1.398 . S
C736 C737 1.391 . S
C737 H725 0.950 . S
C737 C733 1.393 . S
C737 C736 1.391 . S
H738 C746 0.950 . S
H739 C751 0.950 . S
H740 C748 0.950 . S
H741 C750 0.950 . S
H742 C752 0.950 . S
H743 C754 0.950 . S
H744 C756 0.950 . S
H745 C757 0.950 . S
C746 H738 0.950 . S
C746 C747 1.386 . S
C746 C748 1.391 . S
C747 C746 1.386 . S
C747 C751 1.393 . S
C748 H740 0.950 . S
C748 C746 1.391 . S
C748 C749 1.400 . S
C749 C748 1.400 . S
C749 C750 1.398 . S
C749 C755 1.491 . S
C750 H741 0.950 . S
C750 C749 1.398 . S
C750 C751 1.391 . S
C751 H739 0.950 . S
C751 C747 1.393 . S
C751 C750 1.391 . S
C752 H742 0.950 . S
C752 C753 1.386 . S
C752 C754 1.391 . S
C753 C752 1.386 . S
C753 C757 1.393 . S
C754 H743 0.950 . S
C754 C752 1.391 . S
C754 C755 1.400 . S
C755 C749 1.491 . S
C755 C754 1.400 . S
C755 C756 1.398 . S
C756 H744 0.950 . S
C756 C755 1.398 . S
C756 C757 1.391 . S
C757 H745 0.950 . S
C757 C753 1.393 . S
C757 C756 1.391 . S
H758 C766 0.950 . S
H759 C771 0.950 . S
H760 C768 0.950 . S
H761 C770 0.950 . S
H762 C772 0.950 . S
H763 C774 0.950 . S
H764 C776 0.950 . S
H765 C777 0.950 . S
C766 H758 0.950 . S
C766 C767 1.386 . S
C766 C768 1.391 . S
C767 C766 1.386 . S
C767 C771 1.393 . S
C768 H760 0.950 . S
C768 C766 1.391 . S
C768 C769 1.400 . S
C769 C768 1.400 . S
C769 C770 1.398 . S
C769 C775 1.491 . S
C770 H761 0.950 . S
C770 C769 1.398 . S
C770 C771 1.391 . S
C771 H759 0.950 . S
C771 C767 1.393 . S
C771 C770 1.391 . S
C772 H762 0.950 . S
C772 C773 1.386 . S
C772 C774 1.391 . S
C773 C772 1.386 . S
C773 C777 1.393 . S
C774 H763 0.950 . S
C774 C772 1.391 . S
C774 C775 1.400 . S
C775 C769 1.491 . S
C775 C774 1.400 . S
C775 C776 1.398 . S
C776 H764 0.950 . S
C776 C775 1.398 . S
C776 C777 1.391 . S
C777 H765 0.950 . S
C777 C773 1.393 . S
C777 C776 1.391 . S
H778 C786 0.950 . S
H779 C791 0.950 . S
H780 C788 0.950 . S
H781 C790 0.950 . S
H782 C792 0.950 . S
H783 C794 0.950 . S
H784 C796 0.950 . S
H785 C797 0.950 . S
C786 H778 0.950 . S
C786 C787 1.386 . S
C786 C788 1.391 . S
C787 C786 1.386 . S
C787 C791 1.393 . S
C788 H780 0.950 . S
C788 C786 1.391 . S
C788 C789 1.400 . S
C789 C788 1.400 . S
C789 C790 1.398 . S
C789 C795 1.491 . S
C790 H781 0.950 . S
C790 C789 1.398 . S
C790 C791 1.391 . S
C791 H779 0.950 . S
C791 C787 1.393 . S
C791 C790 1.391 . S
C792 H782 0.950 . S
C792 C793 1.386 . S
C792 C794 1.391 . S
C793 C792 1.386 . S
C793 C797 1.393 . S
C794 H783 0.950 . S
C794 C792 1.391 . S
C794 C795 1.400 . S
C795 C789 1.491 . S
C795 C794 1.400 . S
C795 C796 1.398 . S
C796 H784 0.950 . S
C796 C795 1.398 . S
C796 C797 1.391 . S
C797 H785 0.950 . S
C797 C793 1.393 . S
C797 C796 1.391 . S
H798 C806 0.950 . S
H799 C811 0.950 . S
H800 C808 0.950 . S
H801 C810 0.950 . S
H802 C812 0.950 . S
H803 C814 0.950 . S
H804 C816 0.950 . S
H805 C817 0.950 . S
C806 H798 0.950 . S
C806 C807 1.386 . S
C806 C808 1.391 1_545 S
C807 C806 1.386 . S
C807 C811 1.393 . S
C808 H800 0.950 . S
C808 C806 1.391 1_565 S
C808 C809 1.400 . S
C809 C808 1.400 . S
C809 C810 1.398 . S
C809 C815 1.491 . S
C810 H801 0.950 . S
C810 C809 1.398 . S
C810 C811 1.391 1_565 S
C811 H799 0.950 . S
C811 C807 1.393 . S
C811 C810 1.391 1_545 S
C812 H802 0.950 . S
C812 C813 1.386 . S
C812 C814 1.391 . S
C813 C812 1.386 . S
C813 C817 1.393 . S
C814 H803 0.950 . S
C814 C812 1.391 . S
C814 C815 1.400 . S
C815 C809 1.491 . S
C815 C814 1.400 . S
C815 C816 1.398 . S
C816 H804 0.950 . S
C816 C815 1.398 . S
C816 C817 1.391 . S
C817 H805 0.950 . S
C817 C813 1.393 . S
C817 C816 1.391 . S
H818 C826 0.950 . S
H819 C831 0.950 . S
H820 C828 0.943 1_455 S
H821 C830 0.950 . S
H822 C832 0.950 . S
H823 C834 0.950 . S
H824 C836 0.950 . S
H825 C837 0.950 . S
C826 H818 0.950 . S
C826 C827 1.386 . S
C826 C828 1.408 . S
C827 C826 1.386 . S
C827 C831 1.393 . S
C828 H820 0.943 1_655 S
C828 C826 1.408 . S
C828 C829 1.391 1_655 S
C829 C828 1.391 1_455 S
C829 C830 1.398 . S
C829 C835 1.491 . S
C830 H821 0.950 . S
C830 C829 1.398 . S
C830 C831 1.391 1_455 S
C831 H819 0.950 . S
C831 C827 1.393 . S
C831 C830 1.391 1_655 S
C832 H822 0.950 . S
C832 C833 1.386 . S
C832 C834 1.391 . S
C833 C832 1.386 . S
C833 C837 1.393 . S
C834 H823 0.950 . S
C834 C832 1.391 . S
C834 C835 1.400 . S
C835 C829 1.491 . S
C835 C834 1.400 . S
C835 C836 1.398 . S
C836 H824 0.950 . S
C836 C835 1.398 . S
C836 C837 1.391 . S
C837 H825 0.950 . S
C837 C833 1.393 . S
C837 C836 1.391 . S
H838 C846 0.950 . S
H839 C851 0.950 . S
H840 C848 0.950 . S
H841 C850 0.950 . S
H842 C852 0.950 . S
H843 C854 0.950 . S
H844 C856 0.950 . S
H845 C857 0.950 . S
C846 H838 0.950 . S
C846 C847 1.386 . S
C846 C848 1.391 . S
C847 C846 1.386 . S
C847 C851 1.393 . S
C848 H840 0.950 . S
C848 C846 1.391 . S
C848 C849 1.400 . S
C849 C848 1.400 . S
C849 C850 1.398 . S
C849 C855 1.491 . S
C850 H841 0.950 . S
C850 C849 1.398 . S
C850 C851 1.391 . S
C851 H839 0.950 . S
C851 C847 1.393 . S
C851 C850 1.391 . S
C852 H842 0.950 . S
C852 C853 1.386 . S
C852 C854 1.391 . S
C853 C852 1.386 . S
C853 C857 1.393 . S
C854 H843 0.950 . S
C854 C852 1.391 . S
C854 C855 1.400 . S
C855 C849 1.491 . S
C855 C854 1.400 . S
C855 C856 1.398 . S
C856 H844 0.950 . S
C856 C855 1.398 . S
C856 C857 1.391 . S
C857 H845 0.950 . S
C857 C853 1.393 . S
C857 C856 1.391 . S
H858 C866 0.950 . S
H859 C871 0.950 . S
H860 C868 0.950 . S
H861 C870 0.950 . S
H862 C872 0.950 . S
H863 C874 0.950 . S
H864 C876 0.950 . S
H865 C877 0.950 . S
C866 H858 0.950 . S
C866 C867 1.386 . S
C866 C868 1.391 . S
C867 C866 1.386 . S
C867 C871 1.393 . S
C868 H860 0.950 . S
C868 C866 1.391 . S
C868 C869 1.400 . S
C869 C868 1.400 . S
C869 C870 1.398 . S
C869 C875 1.491 . S
C870 H861 0.950 . S
C870 C869 1.398 . S
C870 C871 1.391 . S
C871 H859 0.950 . S
C871 C867 1.393 . S
C871 C870 1.391 . S
C872 H862 0.950 . S
C872 C873 1.386 . S
C872 C874 1.391 . S
C873 C872 1.386 . S
C873 C877 1.393 . S
C874 H863 0.950 . S
C874 C872 1.391 . S
C874 C875 1.400 . S
C875 C869 1.491 . S
C875 C874 1.400 . S
C875 C876 1.398 . S
C876 H864 0.950 . S
C876 C875 1.398 . S
C876 C877 1.391 . S
C877 H865 0.950 . S
C877 C873 1.393 . S
C877 C876 1.391 . S
H878 C886 0.950 . S
H879 C891 0.950 . S
H880 C888 0.950 . S
H881 C890 0.950 . S
H882 C892 0.950 . S
H883 C894 0.950 . S
H884 C896 0.950 . S
H885 C897 0.950 . S
C886 H878 0.950 . S
C886 C887 1.386 . S
C886 C888 1.391 . S
C887 C886 1.386 . S
C887 C891 1.393 . S
C888 H880 0.950 . S
C888 C886 1.391 . S
C888 C889 1.400 . S
C889 C888 1.400 . S
C889 C890 1.398 . S
C889 C895 1.491 . S
C890 H881 0.950 . S
C890 C889 1.398 . S
C890 C891 1.391 . S
C891 H879 0.950 . S
C891 C887 1.393 . S
C891 C890 1.391 . S
C892 H882 0.950 . S
C892 C893 1.386 . S
C892 C894 1.391 . S
C893 C892 1.386 . S
C893 C897 1.393 . S
C894 H883 0.950 . S
C894 C892 1.391 . S
C894 C895 1.400 . S
C895 C889 1.491 . S
C895 C894 1.400 . S
C895 C896 1.398 . S
C896 H884 0.950 . S
C896 C895 1.398 . S
C896 C897 1.391 . S
C897 H885 0.950 . S
C897 C893 1.393 . S
C897 C896 1.391 . S
H898 C906 0.950 . S
H899 C911 0.950 . S
H900 C908 0.950 . S
H901 C910 0.950 . S
H902 C912 0.950 . S
H903 C914 0.950 . S
H904 C916 0.950 . S
H905 C917 0.950 . S
C906 H898 0.950 . S
C906 C907 1.386 . S
C906 C908 1.391 . S
C907 C906 1.386 . S
C907 C911 1.393 . S
C908 H900 0.950 . S
C908 C906 1.391 . S
C908 C909 1.400 . S
C909 C908 1.400 . S
C909 C910 1.398 . S
C909 C915 1.491 . S
C910 H901 0.950 . S
C910 C909 1.398 . S
C910 C911 1.391 . S
C911 H899 0.950 . S
C911 C907 1.393 . S
C911 C910 1.391 . S
C912 H902 0.950 . S
C912 C913 1.386 . S
C912 C914 1.391 . S
C913 C912 1.386 . S
C913 C917 1.393 . S
C914 H903 0.950 . S
C914 C912 1.391 . S
C914 C915 1.400 . S
C915 C909 1.491 . S
C915 C914 1.400 . S
C915 C916 1.398 . S
C916 H904 0.950 . S
C916 C915 1.398 . S
C916 C917 1.391 . S
C917 H905 0.950 . S
C917 C913 1.393 . S
C917 C916 1.391 . S
H918 C926 0.950 . S
H919 C931 0.950 . S
H920 C928 0.950 . S
H921 C930 0.950 . S
H922 C932 0.950 . S
H923 C934 0.950 . S
H924 C936 0.950 . S
H925 C937 0.950 . S
C926 H918 0.950 . S
C926 C927 1.386 . S
C926 C928 1.391 . S
C927 C926 1.386 . S
C927 C931 1.393 . S
C928 H920 0.950 . S
C928 C926 1.391 . S
C928 C929 1.400 . S
C929 C928 1.400 . S
C929 C930 1.398 . S
C929 C935 1.491 1_565 S
C930 H921 0.950 . S
C930 C929 1.398 . S
C930 C931 1.391 . S
C931 H919 0.950 . S
C931 C927 1.393 . S
C931 C930 1.391 . S
C932 H922 0.950 . S
C932 C933 1.386 . S
C932 C934 1.391 . S
C933 C932 1.386 . S
C933 C937 1.393 . S
C934 H923 0.950 . S
C934 C932 1.391 . S
C934 C935 1.400 . S
C935 C929 1.491 1_545 S
C935 C934 1.400 . S
C935 C936 1.398 . S
C936 H924 0.950 . S
C936 C935 1.398 . S
C936 C937 1.391 . S
C937 H925 0.950 . S
C937 C933 1.393 . S
C937 C936 1.391 . S
H938 C946 0.950 . S
H939 C951 0.950 . S
H940 C948 0.950 . S
H941 C950 0.950 . S
H942 C952 0.950 . S
H943 C954 0.950 1_455 S
H944 C956 0.950 . S
H945 C957 0.950 . S
C946 H938 0.950 . S
C946 C947 1.386 . S
C946 C948 1.391 . S
C947 C946 1.386 . S
C947 C951 1.393 . S
C948 H940 0.950 . S
C948 C946 1.391 . S
C948 C949 1.400 . S
C949 C948 1.400 . S
C949 C950 1.398 . S
C949 C955 1.491 1_455 S
C950 H941 0.950 . S
C950 C949 1.398 . S
C950 C951 1.391 . S
C951 H939 0.950 . S
C951 C947 1.393 . S
C951 C950 1.391 . S
C952 H942 0.950 . S
C952 C953 1.386 . S
C952 C954 1.391 . S
C953 C952 1.386 . S
C953 C957 1.393 . S
C954 H943 0.950 1_655 S
C954 C952 1.391 . S
C954 C955 1.400 . S
C955 C949 1.491 1_655 S
C955 C954 1.400 . S
C955 C956 1.398 . S
C956 H944 0.950 . S
C956 C955 1.398 . S
C956 C957 1.391 . S
C957 H945 0.950 . S
C957 C953 1.393 . S
C957 C956 1.391 . S
H958 C966 0.950 . S
H959 C971 0.950 . S
H960 C968 0.950 . S
H961 C970 0.950 . S
H962 C972 0.950 . S
H963 C974 0.950 . S
H964 C976 0.950 . S
H965 C977 0.950 . S
C966 H958 0.950 . S
C966 C967 1.386 . S
C966 C968 1.391 . S
C967 C966 1.386 . S
C967 C971 1.393 . S
C968 H960 0.950 . S
C968 C966 1.391 . S
C968 C969 1.400 . S
C969 C968 1.400 . S
C969 C970 1.398 . S
C969 C975 1.491 . S
C970 H961 0.950 . S
C970 C969 1.398 . S
C970 C971 1.391 . S
C971 H959 0.950 . S
C971 C967 1.393 . S
C971 C970 1.391 . S
C972 H962 0.950 . S
C972 C973 1.386 . S
C972 C974 1.391 . S
C973 C972 1.386 . S
C973 C977 1.393 . S
C974 H963 0.950 . S
C974 C972 1.391 . S
C974 C975 1.400 . S
C975 C969 1.491 . S
C975 C974 1.400 . S
C975 C976 1.398 . S
C976 H964 0.950 . S
C976 C975 1.398 . S
C976 C977 1.391 . S
C977 H965 0.950 . S
C977 C973 1.393 . S
C977 C976 1.391 . S
H978 C986 0.950 . S
H979 C991 0.950 . S
H980 C988 0.950 1_655 S
H981 C990 0.950 . S
H982 C992 0.950 . S
H983 C994 0.950 . S
H984 C996 0.950 . S
H985 C997 0.950 . S
C986 H978 0.950 . S
C986 C987 1.386 . S
C986 C988 1.391 . S
C987 C986 1.386 . S
C987 C991 1.393 . S
C988 H980 0.950 1_455 S
C988 C986 1.391 . S
C988 C989 1.400 1_455 S
C989 C988 1.400 1_655 S
C989 C990 1.398 1_655 S
C989 C995 1.491 . S
C990 H981 0.950 . S
C990 C989 1.398 1_455 S
C990 C991 1.391 . S
C991 H979 0.950 . S
C991 C987 1.393 . S
C991 C990 1.391 . S
C992 H982 0.950 . S
C992 C993 1.386 . S
C992 C994 1.391 . S
C993 C992 1.386 . S
C993 C997 1.393 . S
C994 H983 0.950 . S
C994 C992 1.391 . S
C994 C995 1.400 . S
C995 C989 1.491 . S
C995 C994 1.400 . S
C995 C996 1.398 . S
C996 H984 0.950 . S
C996 C995 1.398 . S
C996 C997 1.391 . S
C997 H985 0.950 . S
C997 C993 1.393 . S
C997 C996 1.391 . S
H998 C1006 0.950 . S
H999 C1011 0.950 . S
H1000 C1008 0.950 . S
H1001 C1010 0.950 . S
H1002 C1012 0.950 . S
H1003 C1014 0.950 . S
H1004 C1016 0.950 . S
H1005 C1017 0.950 . S
C1006 H998 0.950 . S
C1006 C1007 1.386 . S
C1006 C1008 1.391 . S
C1007 C1006 1.386 . S
C1007 C1011 1.393 . S
C1008 H1000 0.950 . S
C1008 C1006 1.391 . S
C1008 C1009 1.400 . S
C1009 C1008 1.400 . S
C1009 C1010 1.398 . S
C1009 C1015 1.491 . S
C1010 H1001 0.950 . S
C1010 C1009 1.398 . S
C1010 C1011 1.391 . S
C1011 H999 0.950 . S
C1011 C1007 1.393 . S
C1011 C1010 1.391 . S
C1012 H1002 0.950 . S
C1012 C1013 1.386 . S
C1012 C1014 1.391 . S
C1013 C1012 1.386 . S
C1013 C1017 1.393 . S
C1014 H1003 0.950 . S
C1014 C1012 1.391 . S
C1014 C1015 1.400 . S
C1015 C1009 1.491 . S
C1015 C1014 1.400 . S
C1015 C1016 1.398 . S
C1016 H1004 0.950 . S
C1016 C1015 1.398 . S
C1016 C1017 1.391 . S
C1017 H1005 0.950 . S
C1017 C1013 1.393 . S
C1017 C1016 1.391 . S
H1018 C1026 0.950 . S
H1019 C1031 0.950 . S
H1020 C1028 0.950 . S
H1021 C1030 0.950 . S
H1022 C1032 0.950 . S
H1023 C1034 0.950 . S
H1024 C1036 0.950 . S
H1025 C1037 0.950 . S
C1026 H1018 0.950 . S
C1026 C1027 1.386 . S
C1026 C1028 1.391 1_565 S
C1027 C1026 1.386 . S
C1027 C1031 1.393 . S
C1028 H1020 0.950 . S
C1028 C1026 1.391 1_545 S
C1028 C1029 1.400 . S
C1029 C1028 1.400 . S
C1029 C1030 1.398 . S
C1029 C1035 1.491 . S
C1030 H1021 0.950 . S
C1030 C1029 1.398 . S
C1030 C1031 1.391 1_545 S
C1031 H1019 0.950 . S
C1031 C1027 1.393 . S
C1031 C1030 1.391 1_565 S
C1032 H1022 0.950 . S
C1032 C1033 1.386 . S
C1032 C1034 1.391 . S
C1033 C1032 1.386 . S
C1033 C1037 1.393 . S
C1034 H1023 0.950 . S
C1034 C1032 1.391 . S
C1034 C1035 1.400 . S
C1035 C1029 1.491 . S
C1035 C1034 1.400 . S
C1035 C1036 1.398 . S
C1036 H1024 0.950 . S
C1036 C1035 1.398 . S
C1036 C1037 1.391 . S
C1037 H1025 0.950 . S
C1037 C1033 1.393 . S
C1037 C1036 1.391 . S
H1038 C1046 0.950 . S
H1039 C1051 0.950 . S
H1040 C1048 0.950 . S
H1041 C1050 0.950 . S
H1042 C1052 0.950 . S
H1043 C1054 0.950 . S
H1044 C1056 0.950 . S
H1045 C1057 0.950 . S
C1046 H1038 0.950 . S
C1046 C1047 1.386 . S
C1046 C1048 1.391 . S
C1047 C1046 1.386 . S
C1047 C1051 1.393 . S
C1048 H1040 0.950 . S
C1048 C1046 1.391 . S
C1048 C1049 1.400 . S
C1049 C1048 1.400 . S
C1049 C1050 1.398 . S
C1049 C1055 1.491 . S
C1050 H1041 0.950 . S
C1050 C1049 1.398 . S
C1050 C1051 1.391 . S
C1051 H1039 0.950 . S
C1051 C1047 1.393 . S
C1051 C1050 1.391 . S
C1052 H1042 0.950 . S
C1052 C1053 1.386 . S
C1052 C1054 1.391 . S
C1053 C1052 1.386 . S
C1053 C1057 1.393 . S
C1054 H1043 0.950 . S
C1054 C1052 1.391 . S
C1054 C1055 1.400 . S
C1055 C1049 1.491 . S
C1055 C1054 1.400 . S
C1055 C1056 1.398 . S
C1056 H1044 0.950 . S
C1056 C1055 1.398 . S
C1056 C1057 1.391 . S
C1057 H1045 0.950 . S
C1057 C1053 1.393 . S
C1057 C1056 1.391 . S
H1058 C1066 0.950 . S
H1059 C1071 0.950 . S
H1060 C1068 0.950 . S
H1061 C1070 0.950 . S
H1062 C1072 0.950 . S
H1063 C1074 0.950 . S
H1064 C1076 0.950 . S
H1065 C1077 0.950 . S
C1066 H1058 0.950 . S
C1066 C1067 1.386 . S
C1066 C1068 1.391 . S
C1067 C1066 1.386 . S
C1067 C1071 1.393 . S
C1068 H1060 0.950 . S
C1068 C1066 1.391 . S
C1068 C1069 1.400 . S
C1069 C1068 1.400 . S
C1069 C1070 1.398 . S
C1069 C1075 1.491 . S
C1070 H1061 0.950 . S
C1070 C1069 1.398 . S
C1070 C1071 1.391 . S
C1071 H1059 0.950 . S
C1071 C1067 1.393 . S
C1071 C1070 1.391 . S
C1072 H1062 0.950 . S
C1072 C1073 1.386 . S
C1072 C1074 1.391 . S
C1073 C1072 1.386 . S
C1073 C1077 1.393 . S
C1074 H1063 0.950 . S
C1074 C1072 1.391 . S
C1074 C1075 1.400 . S
C1075 C1069 1.491 . S
C1075 C1074 1.400 . S
C1075 C1076 1.398 . S
C1076 H1064 0.950 . S
C1076 C1075 1.398 . S
C1076 C1077 1.391 . S
C1077 H1065 0.950 . S
C1077 C1073 1.393 . S
C1077 C1076 1.391 . S
H1078 C1086 0.950 . S
H1079 C1091 0.950 . S
H1080 C1088 0.950 . S
H1081 C1090 0.950 . S
H1082 C1092 0.950 . S
H1083 C1094 0.950 . S
H1084 C1096 0.950 . S
H1085 C1097 0.950 . S
C1086 H1078 0.950 . S
C1086 C1087 1.386 . S
C1086 C1088 1.391 . S
C1087 C1086 1.386 . S
C1087 C1091 1.393 . S
C1088 H1080 0.950 . S
C1088 C1086 1.391 . S
C1088 C1089 1.400 . S
C1089 C1088 1.400 . S
C1089 C1090 1.398 . S
C1089 C1095 1.491 . S
C1090 H1081 0.950 . S
C1090 C1089 1.398 . S
C1090 C1091 1.391 . S
C1091 H1079 0.950 . S
C1091 C1087 1.393 . S
C1091 C1090 1.391 . S
C1092 H1082 0.950 . S
C1092 C1093 1.386 . S
C1092 C1094 1.391 . S
C1093 C1092 1.386 . S
C1093 C1097 1.393 . S
C1094 H1083 0.950 . S
C1094 C1092 1.391 . S
C1094 C1095 1.400 . S
C1095 C1089 1.491 . S
C1095 C1094 1.400 . S
C1095 C1096 1.398 . S
C1096 H1084 0.950 . S
C1096 C1095 1.398 . S
C1096 C1097 1.391 . S
C1097 H1085 0.950 . S
C1097 C1093 1.393 . S
C1097 C1096 1.391 . S
H1098 C1106 0.950 . S
H1099 C1111 0.950 . S
H1100 C1108 0.950 . S
H1101 C1110 0.950 . S
H1102 C1112 0.950 . S
H1103 C1114 0.950 . S
H1104 C1116 0.950 . S
H1105 C1117 0.950 . S
C1106 H1098 0.950 . S
C1106 C1107 1.386 . S
C1106 C1108 1.391 . S
C1107 C1106 1.386 . S
C1107 C1111 1.393 . S
C1108 H1100 0.950 . S
C1108 C1106 1.391 . S
C1108 C1109 1.400 . S
C1109 C1108 1.400 . S
C1109 C1110 1.398 . S
C1109 C1115 1.491 . S
C1110 H1101 0.950 . S
C1110 C1109 1.398 . S
C1110 C1111 1.391 . S
C1111 H1099 0.950 . S
C1111 C1107 1.393 . S
C1111 C1110 1.391 . S
C1112 H1102 0.950 . S
C1112 C1113 1.386 . S
C1112 C1114 1.391 . S
C1113 C1112 1.386 . S
C1113 C1117 1.393 . S
C1114 H1103 0.950 . S
C1114 C1112 1.391 . S
C1114 C1115 1.400 . S
C1115 C1109 1.491 . S
C1115 C1114 1.400 . S
C1115 C1116 1.398 . S
C1116 H1104 0.950 . S
C1116 C1115 1.398 . S
C1116 C1117 1.391 . S
C1117 H1105 0.950 . S
C1117 C1113 1.393 . S
C1117 C1116 1.391 . S
H1118 C1126 0.950 . S
H1119 C1131 0.950 . S
H1120 C1128 0.950 . S
H1121 C1130 0.950 . S
H1122 C1132 0.950 1_655 S
H1123 C1134 0.950 . S
H1124 C1136 0.950 . S
H1125 C1137 0.950 . S
C1126 H1118 0.950 . S
C1126 C1127 1.386 . S
C1126 C1128 1.391 . S
C1127 C1126 1.386 . S
C1127 C1131 1.393 . S
C1128 H1120 0.950 . S
C1128 C1126 1.391 . S
C1128 C1129 1.400 . S
C1129 C1128 1.400 . S
C1129 C1130 1.398 . S
C1129 C1135 1.491 . S
C1130 H1121 0.950 . S
C1130 C1129 1.398 . S
C1130 C1131 1.391 . S
C1131 H1119 0.950 . S
C1131 C1127 1.393 . S
C1131 C1130 1.391 . S
C1132 H1122 0.950 1_455 S
C1132 C1133 1.386 . S
C1132 C1134 1.391 . S
C1133 C1132 1.386 . S
C1133 C1137 1.393 . S
C1134 H1123 0.950 . S
C1134 C1132 1.391 . S
C1134 C1135 1.400 . S
C1135 C1129 1.491 . S
C1135 C1134 1.400 . S
C1135 C1136 1.398 . S
C1136 H1124 0.950 . S
C1136 C1135 1.398 . S
C1136 C1137 1.391 . S
C1137 H1125 0.950 . S
C1137 C1133 1.393 . S
C1137 C1136 1.391 . S
H1138 C1146 0.950 . S
H1139 C1151 0.950 . S
H1140 C1148 0.950 . S
H1141 C1150 0.950 . S
H1142 C1152 0.950 . S
H1143 C1154 0.950 . S
H1144 C1156 0.950 . S
H1145 C1157 0.950 . S
C1146 H1138 0.950 . S
C1146 C1147 1.386 . S
C1146 C1148 1.391 . S
C1147 C1146 1.386 . S
C1147 C1151 1.393 . S
C1148 H1140 0.950 . S
C1148 C1146 1.391 . S
C1148 C1149 1.400 . S
C1149 C1148 1.400 . S
C1149 C1150 1.398 . S
C1149 C1155 1.491 . S
C1150 H1141 0.950 . S
C1150 C1149 1.398 . S
C1150 C1151 1.391 . S
C1151 H1139 0.950 . S
C1151 C1147 1.393 . S
C1151 C1150 1.391 . S
C1152 H1142 0.950 . S
C1152 C1153 1.386 . S
C1152 C1154 1.391 . S
C1153 C1152 1.386 . S
C1153 C1157 1.393 . S
C1154 H1143 0.950 . S
C1154 C1152 1.391 . S
C1154 C1155 1.400 . S
C1155 C1149 1.491 . S
C1155 C1154 1.400 . S
C1155 C1156 1.398 . S
C1156 H1144 0.950 . S
C1156 C1155 1.398 . S
C1156 C1157 1.391 . S
C1157 H1145 0.950 . S
C1157 C1153 1.393 . S
C1157 C1156 1.391 . S
H1158 C1166 0.950 . S
H1159 C1171 0.950 . S
H1160 C1168 0.950 . S
H1161 C1170 0.950 . S
H1162 C1172 0.950 . S
H1163 C1174 0.950 . S
H1164 C1176 0.950 . S
H1165 C1177 0.950 . S
C1166 H1158 0.950 . S
C1166 C1167 1.386 . S
C1166 C1168 1.391 . S
C1167 C1166 1.386 . S
C1167 C1171 1.393 . S
C1168 H1160 0.950 . S
C1168 C1166 1.391 . S
C1168 C1169 1.400 . S
C1169 C1168 1.400 . S
C1169 C1170 1.398 . S
C1169 C1175 1.491 . S
C1170 H1161 0.950 . S
C1170 C1169 1.398 . S
C1170 C1171 1.391 . S
C1171 H1159 0.950 . S
C1171 C1167 1.393 . S
C1171 C1170 1.391 . S
C1172 H1162 0.950 . S
C1172 C1173 1.386 . S
C1172 C1174 1.391 . S
C1173 C1172 1.386 . S
C1173 C1177 1.393 . S
C1174 H1163 0.950 . S
C1174 C1172 1.391 . S
C1174 C1175 1.400 . S
C1175 C1169 1.491 . S
C1175 C1174 1.400 . S
C1175 C1176 1.398 . S
C1176 H1164 0.950 . S
C1176 C1175 1.398 . S
C1176 C1177 1.391 . S
C1177 H1165 0.950 . S
C1177 C1173 1.393 . S
C1177 C1176 1.391 . S
H1178 C1186 0.950 . S
H1179 C1191 0.950 . S
H1180 C1188 0.950 . S
H1181 C1190 0.950 . S
H1182 C1192 0.950 . S
H1183 C1194 0.950 . S
H1184 C1196 0.950 . S
H1185 C1197 0.950 . S
C1186 H1178 0.950 . S
C1186 C1187 1.386 . S
C1186 C1188 1.391 . S
C1187 C1186 1.386 . S
C1187 C1191 1.393 . S
C1188 H1180 0.950 . S
C1188 C1186 1.391 . S
C1188 C1189 1.400 . S
C1189 C1188 1.400 . S
C1189 C1190 1.398 . S
C1189 C1195 1.491 . S
C1190 H1181 0.950 . S
C1190 C1189 1.398 . S
C1190 C1191 1.391 . S
C1191 H1179 0.950 . S
C1191 C1187 1.393 . S
C1191 C1190 1.391 . S
C1192 H1182 0.950 . S
C1192 C1193 1.386 . S
C1192 C1194 1.391 . S
C1193 C1192 1.386 . S
C1193 C1197 1.393 . S
C1194 H1183 0.950 . S
C1194 C1192 1.391 . S
C1194 C1195 1.400 . S
C1195 C1189 1.491 . S
C1195 C1194 1.400 . S
C1195 C1196 1.398 . S
C1196 H1184 0.950 . S
C1196 C1195 1.398 . S
C1196 C1197 1.391 . S
C1197 H1185 0.950 . S
C1197 C1193 1.393 . S
C1197 C1196 1.391 . S
H1198 C1206 0.950 . S
H1199 C1211 0.950 . S
H1200 C1208 0.950 . S
H1201 C1210 0.950 . S
H1202 C1212 0.950 . S
H1203 C1214 0.950 . S
H1204 C1216 0.950 . S
H1205 C1217 0.950 . S
C1206 H1198 0.950 . S
C1206 C1207 1.386 . S
C1206 C1208 1.391 . S
C1207 C1206 1.386 . S
C1207 C1211 1.393 . S
C1208 H1200 0.950 . S
C1208 C1206 1.391 . S
C1208 C1209 1.400 . S
C1209 C1208 1.400 . S
C1209 C1210 1.398 . S
C1209 C1215 1.491 . S
C1210 H1201 0.950 . S
C1210 C1209 1.398 . S
C1210 C1211 1.391 . S
C1211 H1199 0.950 . S
C1211 C1207 1.393 . S
C1211 C1210 1.391 . S
C1212 H1202 0.950 . S
C1212 C1213 1.386 . S
C1212 C1214 1.391 . S
C1213 C1212 1.386 . S
C1213 C1217 1.393 . S
C1214 H1203 0.950 . S
C1214 C1212 1.391 . S
C1214 C1215 1.400 . S
C1215 C1209 1.491 . S
C1215 C1214 1.400 . S
C1215 C1216 1.398 . S
C1216 H1204 0.950 . S
C1216 C1215 1.398 . S
C1216 C1217 1.391 . S
C1217 H1205 0.950 . S
C1217 C1213 1.393 . S
C1217 C1216 1.391 . S
H1218 C1226 0.950 . S
H1219 C1231 0.950 . S
H1220 C1228 0.950 . S
H1221 C1230 0.950 . S
H1222 C1232 0.950 . S
H1223 C1234 0.950 . S
H1224 C1236 0.950 . S
H1225 C1237 0.950 . S
C1226 H1218 0.950 . S
C1226 C1227 1.386 . S
C1226 C1228 1.391 . S
C1227 C1226 1.386 . S
C1227 C1231 1.393 . S
C1228 H1220 0.950 . S
C1228 C1226 1.391 . S
C1228 C1229 1.400 . S
C1229 C1228 1.400 . S
C1229 C1230 1.398 . S
C1229 C1235 1.491 . S
C1230 H1221 0.950 . S
C1230 C1229 1.398 . S
C1230 C1231 1.391 . S
C1231 H1219 0.950 . S
C1231 C1227 1.393 . S
C1231 C1230 1.391 . S
C1232 H1222 0.950 . S
C1232 C1233 1.386 . S
C1232 C1234 1.391 . S
C1233 C1232 1.386 . S
C1233 C1237 1.393 . S
C1234 H1223 0.950 . S
C1234 C1232 1.391 . S
C1234 C1235 1.400 . S
C1235 C1229 1.491 . S
C1235 C1234 1.400 . S
C1235 C1236 1.398 . S
C1236 H1224 0.950 . S
C1236 C1235 1.398 . S
C1236 C1237 1.391 . S
C1237 H1225 0.950 . S
C1237 C1233 1.393 . S
C1237 C1236 1.391 . S
H1238 C1246 0.950 . S
H1239 C1251 0.950 . S
H1240 C1248 0.950 . S
H1241 C1250 0.950 . S
H1242 C1252 0.950 . S
H1243 C1254 0.950 . S
H1244 C1256 0.950 . S
H1245 C1257 0.950 . S
C1246 H1238 0.950 . S
C1246 C1247 1.386 . S
C1246 C1248 1.391 . S
C1247 C1246 1.386 . S
C1247 C1251 1.393 . S
C1248 H1240 0.950 . S
C1248 C1246 1.391 . S
C1248 C1249 1.400 . S
C1249 C1248 1.400 . S
C1249 C1250 1.398 . S
C1249 C1255 1.491 . S
C1250 H1241 0.950 . S
C1250 C1249 1.398 . S
C1250 C1251 1.391 . S
C1251 H1239 0.950 . S
C1251 C1247 1.393 . S
C1251 C1250 1.391 . S
C1252 H1242 0.950 . S
C1252 C1253 1.386 . S
C1252 C1254 1.391 . S
C1253 C1252 1.386 . S
C1253 C1257 1.393 . S
C1254 H1243 0.950 . S
C1254 C1252 1.391 . S
C1254 C1255 1.400 . S
C1255 C1249 1.491 . S
C1255 C1254 1.400 . S
C1255 C1256 1.398 . S
C1256 H1244 0.950 . S
C1256 C1255 1.398 . S
C1256 C1257 1.391 . S
C1257 H1245 0.950 . S
C1257 C1253 1.393 . S
C1257 C1256 1.391 . S
H1258 C1266 0.950 . S
H1259 C1271 0.950 . S
H1260 C1268 0.950 . S
H1261 C1270 0.950 . S
H1262 C1272 0.950 . S
H1263 C1274 0.950 . S
H1264 C1276 0.950 . S
H1265 C1277 0.950 . S
C1266 H1258 0.950 . S
C1266 C1267 1.386 . S
C1266 C1268 1.391 . S
C1267 C1266 1.386 . S
C1267 C1271 1.393 . S
C1268 H1260 0.950 . S
C1268 C1266 1.391 . S
C1268 C1269 1.400 . S
C1269 C1268 1.400 . S
C1269 C1270 1.398 . S
C1269 C1275 1.491 . S
C1270 H1261 0.950 . S
C1270 C1269 1.398 . S
C1270 C1271 1.391 . S
C1271 H1259 0.950 . S
C1271 C1267 1.393 . S
C1271 C1270 1.391 . S
C1272 H1262 0.950 . S
C1272 C1273 1.386 . S
C1272 C1274 1.391 . S
C1273 C1272 1.386 . S
C1273 C1277 1.393 . S
C1274 H1263 0.950 . S
C1274 C1272 1.391 . S
C1274 C1275 1.400 . S
C1275 C1269 1.491 . S
C1275 C1274 1.400 . S
C1275 C1276 1.398 . S
C1276 H1264 0.950 . S
C1276 C1275 1.398 . S
C1276 C1277 1.391 . S
C1277 H1265 0.950 . S
C1277 C1273 1.393 . S
C1277 C1276 1.391 . S
H1278 C1286 0.950 . S
H1279 C1291 0.950 . S
H1280 C1288 0.950 . S
H1281 C1290 0.950 . S
H1282 C1292 0.950 . S
H1283 C1294 0.950 . S
H1284 C1296 0.950 . S
H1285 C1297 0.950 . S
C1286 H1278 0.950 . S
C1286 C1287 1.386 . S
C1286 C1288 1.391 . S
C1287 C1286 1.386 . S
C1287 C1291 1.393 . S
C1288 H1280 0.950 . S
C1288 C1286 1.391 . S
C1288 C1289 1.400 . S
C1289 C1288 1.400 . S
C1289 C1290 1.398 . S
C1289 C1295 1.491 . S
C1290 H1281 0.950 . S
C1290 C1289 1.398 . S
C1290 C1291 1.391 . S
C1291 H1279 0.950 . S
C1291 C1287 1.393 . S
C1291 C1290 1.391 . S
C1292 H1282 0.950 . S
C1292 C1293 1.386 . S
C1292 C1294 1.391 . S
C1293 C1292 1.386 . S
C1293 C1297 1.393 . S
C1294 H1283 0.950 . S
C1294 C1292 1.391 . S
C1294 C1295 1.400 . S
C1295 C1289 1.491 . S
C1295 C1294 1.400 . S
C1295 C1296 1.398 . S
C1296 H1284 0.950 . S
C1296 C1295 1.398 . S
C1296 C1297 1.391 . S
C1297 H1285 0.950 . S
C1297 C1293 1.393 . S
C1297 C1296 1.391 . S
H1298 C1306 0.950 . S
H1299 C1311 0.950 . S
H1300 C1308 0.950 . S
H1301 C1310 0.950 . S
H1302 C1312 0.950 . S
H1303 C1314 0.950 . S
H1304 C1316 0.950 . S
H1305 C1317 0.950 . S
C1306 H1298 0.950 . S
C1306 C1307 1.386 . S
C1306 C1308 1.391 . S
C1307 C1306 1.386 . S
C1307 C1311 1.393 . S
C1308 H1300 0.950 . S
C1308 C1306 1.391 . S
C1308 C1309 1.400 . S
C1309 C1308 1.400 . S
C1309 C1310 1.398 . S
C1309 C1315 1.491 . S
C1310 H1301 0.950 . S
C1310 C1309 1.398 . S
C1310 C1311 1.391 . S
C1311 H1299 0.950 . S
C1311 C1307 1.393 . S
C1311 C1310 1.391 . S
C1312 H1302 0.950 . S
C1312 C1313 1.386 . S
C1312 C1314 1.391 . S
C1313 C1312 1.386 . S
C1313 C1317 1.393 . S
C1314 H1303 0.950 . S
C1314 C1312 1.391 . S
C1314 C1315 1.400 . S
C1315 C1309 1.491 . S
C1315 C1314 1.400 . S
C1315 C1316 1.398 . S
C1316 H1304 0.950 . S
C1316 C1315 1.398 . S
C1316 C1317 1.391 . S
C1317 H1305 0.950 . S
C1317 C1313 1.393 . S
C1317 C1316 1.391 . S
H1318 C1326 0.950 . S
H1319 C1331 0.950 . S
H1320 C1328 0.950 . S
H1321 C1330 0.950 . S
H1322 C1332 0.950 . S
H1323 C1334 0.950 . S
H1324 C1336 0.950 . S
H1325 C1337 0.950 . S
C1326 H1318 0.950 . S
C1326 C1327 1.386 . S
C1326 C1328 1.391 . S
C1327 C1326 1.386 . S
C1327 C1331 1.393 . S
C1328 H1320 0.950 . S
C1328 C1326 1.391 . S
C1328 C1329 1.400 . S
C1329 C1328 1.400 . S
C1329 C1330 1.398 . S
C1329 C1335 1.491 . S
C1330 H1321 0.950 . S
C1330 C1329 1.398 . S
C1330 C1331 1.391 . S
C1331 H1319 0.950 . S
C1331 C1327 1.393 . S
C1331 C1330 1.391 . S
C1332 H1322 0.950 . S
C1332 C1333 1.386 . S
C1332 C1334 1.391 . S
C1333 C1332 1.386 . S
C1333 C1337 1.393 . S
C1334 H1323 0.950 . S
C1334 C1332 1.391 . S
C1334 C1335 1.400 . S
C1335 C1329 1.491 . S
C1335 C1334 1.400 . S
C1335 C1336 1.398 . S
C1336 H1324 0.950 . S
C1336 C1335 1.398 . S
C1336 C1337 1.391 . S
C1337 H1325 0.950 . S
C1337 C1333 1.393 . S
C1337 C1336 1.391 . S
H1338 C1346 0.950 . S
H1339 C1351 0.950 . S
H1340 C1348 0.950 . S
H1341 C1350 0.950 . S
H1342 C1352 0.950 . S
H1343 C1354 0.950 . S
H1344 C1356 0.950 . S
H1345 C1357 0.950 . S
C1346 H1338 0.950 . S
C1346 C1347 1.386 . S
C1346 C1348 1.391 . S
C1347 C1346 1.386 . S
C1347 C1351 1.393 . S
C1348 H1340 0.950 . S
C1348 C1346 1.391 . S
C1348 C1349 1.400 . S
C1349 C1348 1.400 . S
C1349 C1350 1.398 . S
C1349 C1355 1.491 . S
C1350 H1341 0.950 . S
C1350 C1349 1.398 . S
C1350 C1351 1.391 . S
C1351 H1339 0.950 . S
C1351 C1347 1.393 . S
C1351 C1350 1.391 . S
C1352 H1342 0.950 . S
C1352 C1353 1.386 . S
C1352 C1354 1.391 . S
C1353 C1352 1.386 . S
C1353 C1357 1.393 . S
C1354 H1343 0.950 . S
C1354 C1352 1.391 . S
C1354 C1355 1.400 . S
C1355 C1349 1.491 . S
C1355 C1354 1.400 . S
C1355 C1356 1.398 . S
C1356 H1344 0.950 . S
C1356 C1355 1.398 . S
C1356 C1357 1.391 . S
C1357 H1345 0.950 . S
C1357 C1353 1.393 . S
C1357 C1356 1.391 . S
H1358 C1366 0.950 . S
H1359 C1371 0.950 . S
H1360 C1368 0.950 . S
H1361 C1370 0.950 . S
H1362 C1372 0.950 . S
H1363 C1374 0.950 . S
H1364 C1376 0.950 . S
H1365 C1377 0.950 . S
C1366 H1358 0.950 . S
C1366 C1367 1.386 . S
C1366 C1368 1.391 . S
C1367 C1366 1.386 . S
C1367 C1371 1.393 . S
C1368 H1360 0.950 . S
C1368 C1366 1.391 . S
C1368 C1369 1.400 . S
C1369 C1368 1.400 . S
C1369 C1370 1.398 . S
C1369 C1375 1.491 . S
C1370 H1361 0.950 . S
C1370 C1369 1.398 . S
C1370 C1371 1.391 . S
C1371 H1359 0.950 . S
C1371 C1367 1.393 . S
C1371 C1370 1.391 . S
C1372 H1362 0.950 . S
C1372 C1373 1.386 . S
C1372 C1374 1.391 . S
C1373 C1372 1.386 . S
C1373 C1377 1.393 . S
C1374 H1363 0.950 . S
C1374 C1372 1.391 . S
C1374 C1375 1.400 . S
C1375 C1369 1.491 . S
C1375 C1374 1.400 . S
C1375 C1376 1.398 . S
C1376 H1364 0.950 . S
C1376 C1375 1.398 . S
C1376 C1377 1.391 . S
C1377 H1365 0.950 . S
C1377 C1373 1.393 . S
C1377 C1376 1.391 . S
H1378 C1386 0.950 . S
H1379 C1391 0.950 . S
H1380 C1388 0.950 . S
H1381 C1390 0.950 . S
H1382 C1392 0.950 . S
H1383 C1394 0.950 . S
H1384 C1396 0.950 . S
H1385 C1397 0.950 . S
C1386 H1378 0.950 . S
C1386 C1387 1.386 . S
C1386 C1388 1.391 . S
C1387 C1386 1.386 . S
C1387 C1391 1.393 . S
C1388 H1380 0.950 . S
C1388 C1386 1.391 . S
C1388 C1389 1.400 . S
C1389 C1388 1.400 . S
C1389 C1390 1.398 . S
C1389 C1395 1.491 . S
C1390 H1381 0.950 . S
C1390 C1389 1.398 . S
C1390 C1391 1.391 . S
C1391 H1379 0.950 . S
C1391 C1387 1.393 . S
C1391 C1390 1.391 . S
C1392 H1382 0.950 . S
C1392 C1393 1.386 . S
C1392 C1394 1.391 . S
C1393 C1392 1.386 . S
C1393 C1397 1.393 . S
C1394 H1383 0.950 . S
C1394 C1392 1.391 . S
C1394 C1395 1.400 . S
C1395 C1389 1.491 . S
C1395 C1394 1.400 . S
C1395 C1396 1.398 . S
C1396 H1384 0.950 . S
C1396 C1395 1.398 . S
C1396 C1397 1.391 . S
C1397 H1385 0.950 . S
C1397 C1393 1.393 . S
C1397 C1396 1.391 . S
H1398 C1406 0.950 . S
H1399 C1411 0.950 . S
H1400 C1408 0.950 . S
H1401 C1410 0.950 . S
H1402 C1412 0.950 . S
H1403 C1414 0.950 . S
H1404 C1416 0.950 . S
H1405 C1417 0.950 . S
C1406 H1398 0.950 . S
C1406 C1407 1.386 . S
C1406 C1408 1.391 . S
C1407 C1406 1.386 . S
C1407 C1411 1.393 . S
C1408 H1400 0.950 . S
C1408 C1406 1.391 . S
C1408 C1409 1.400 . S
C1409 C1408 1.400 . S
C1409 C1410 1.398 . S
C1409 C1415 1.491 . S
C1410 H1401 0.950 . S
C1410 C1409 1.398 . S
C1410 C1411 1.391 . S
C1411 H1399 0.950 . S
C1411 C1407 1.393 . S
C1411 C1410 1.391 . S
C1412 H1402 0.950 . S
C1412 C1413 1.386 . S
C1412 C1414 1.391 . S
C1413 C1412 1.386 . S
C1413 C1417 1.393 . S
C1414 H1403 0.950 . S
C1414 C1412 1.391 . S
C1414 C1415 1.400 . S
C1415 C1409 1.491 . S
C1415 C1414 1.400 . S
C1415 C1416 1.398 . S
C1416 H1404 0.950 . S
C1416 C1415 1.398 . S
C1416 C1417 1.391 . S
C1417 H1405 0.950 . S
C1417 C1413 1.393 . S
C1417 C1416 1.391 . S
H1418 C1426 0.950 . S
H1419 C1431 0.950 . S
H1420 C1428 0.950 . S
H1421 C1430 0.950 . S
H1422 C1432 0.950 . S
H1423 C1434 0.950 . S
H1424 C1436 0.950 . S
H1425 C1437 0.950 . S
C1426 H1418 0.950 . S
C1426 C1427 1.386 . S
C1426 C1428 1.391 . S
C1427 C1426 1.386 . S
C1427 C1431 1.393 . S
C1428 H1420 0.950 . S
C1428 C1426 1.391 . S
C1428 C1429 1.400 . S
C1429 C1428 1.400 . S
C1429 C1430 1.398 . S
C1429 C1435 1.491 . S
C1430 H1421 0.950 . S
C1430 C1429 1.398 . S
C1430 C1431 1.391 . S
C1431 H1419 0.950 . S
C1431 C1427 1.393 . S
C1431 C1430 1.391 . S
C1432 H1422 0.950 . S
C1432 C1433 1.386 . S
C1432 C1434 1.391 . S
C1433 C1432 1.386 . S
C1433 C1437 1.393 . S
C1434 H1423 0.950 . S
C1434 C1432 1.391 . S
C1434 C1435 1.400 . S
C1435 C1429 1.491 . S
C1435 C1434 1.400 . S
C1435 C1436 1.398 . S
C1436 H1424 0.950 . S
C1436 C1435 1.398 . S
C1436 C1437 1.391 . S
C1437 H1425 0.950 . S
C1437 C1433 1.393 . S
C1437 C1436 1.391 . S
H1438 C1446 0.950 . S
H1439 C1451 0.950 . S
H1440 C1448 0.950 . S
H1441 C1450 0.950 . S
H1442 C1452 0.950 . S
H1443 C1454 0.950 . S
H1444 C1456 0.950 . S
H1445 C1457 0.950 . S
C1446 H1438 0.950 . S
C1446 C1447 1.386 . S
C1446 C1448 1.391 . S
C1447 C1446 1.386 . S
C1447 C1451 1.393 . S
C1448 H1440 0.950 . S
C1448 C1446 1.391 . S
C1448 C1449 1.400 . S
C1449 C1448 1.400 . S
C1449 C1450 1.398 . S
C1449 C1455 1.491 . S
C1450 H1441 0.950 . S
C1450 C1449 1.398 . S
C1450 C1451 1.391 . S
C1451 H1439 0.950 . S
C1451 C1447 1.393 . S
C1451 C1450 1.391 . S
C1452 H1442 0.950 . S
C1452 C1453 1.386 . S
C1452 C1454 1.391 . S
C1453 C1452 1.386 . S
C1453 C1457 1.393 . S
C1454 H1443 0.950 . S
C1454 C1452 1.391 . S
C1454 C1455 1.400 . S
C1455 C1449 1.491 . S
C1455 C1454 1.400 . S
C1455 C1456 1.398 . S
C1456 H1444 0.950 . S
C1456 C1455 1.398 . S
C1456 C1457 1.391 . S
C1457 H1445 0.950 . S
C1457 C1453 1.393 . S
C1457 C1456 1.391 . S
C387 C147 1.559 . S
C393 C204 1.540 . S
C407 C158 1.520 . S
C413 C224 1.499 . S
C427 C136 1.506 . S
C433 C247 1.512 . S
C447 C125 1.419 . S
C453 C227 1.424 1_556 S
C473 C244 1.430 . S
C467 C103 1.449 . S
C487 C114 1.470 . S
C493 C207 1.468 1_556 S
C513 C214 1.556 . S
C507 C131 1.575 . S
C533 C234 1.442 . S
C527 C109 1.461 . S
C547 C120 1.541 . S
C553 C239 1.559 . S
C567 C153 1.456 . S
C573 C219 1.460 . S
C587 C164 1.443 . S
C593 C254 1.416 . S
C613 C199 1.542 . S
C607 C142 1.531 . S
C633 C264 1.545 . S
C627 C15 1.561 . S
C647 C26 1.520 . S
C653 C284 1.498 . S
C667 C4 1.515 . S
C673 C307 1.522 . S
C687 C191 1.430 . S
C693 C287 1.432 . S
C707 C169 1.448 . S
C713 C304 1.437 . S
C727 C180 1.466 . S
C733 C267 1.470 . S
C747 C197 1.566 . S
C753 C274 1.545 . S
C767 C175 1.453 . S
C773 C294 1.427 . S
C793 C299 1.552 . S
C787 C186 1.538 . S
C807 C21 1.459 . S
C813 C279 1.467 . S
C833 C314 1.423 . S
C827 C32 1.448 . S
C847 C10 1.530 . S
C853 C259 1.531 . S
C873 C324 1.535 . S
C867 C81 1.556 . S
C887 C92 1.516 . S
C893 C344 1.488 . S
C913 C367 1.522 . S
C907 C70 1.518 . S
C933 C347 1.432 . S
C927 C59 1.430 . S
C953 C364 1.435 . S
C947 C37 1.449 . S
C967 C48 1.463 . S
C973 C327 1.466 . S
C987 C65 1.567 . S
C993 C334 1.546 . S
C1007 C43 1.458 . S
C1013 C354 1.430 . S
C1033 C359 1.559 . S
C1027 C54 1.539 . S
C1047 C87 1.452 . S
C1053 C339 1.457 . S
C1067 C98 1.450 . S
C1073 C374 1.429 . S
C1087 C76 1.535 . S
C1093 C319 1.534 . S
C1107 C170 1.355 . S
C1113 C217 1.292 . S
C1133 C237 1.627 . S
C1127 C181 1.714 . S
C1147 C192 1.524 . S
C1153 C246 1.485 . S
C1167 C71 1.681 . S
C1173 C226 1.643 . S
C1187 C82 1.584 . S
C1193 C257 1.515 . S
C1213 C206 1.299 . S
C1207 C93 1.327 . S
C1227 C38 1.356 . S
C1233 C277 1.293 . S
C1247 C49 1.713 . S
C1253 C297 1.622 . S
C1267 C60 1.524 . S
C1273 C306 1.485 . S
C1287 C137 1.680 . S
C1293 C286 1.621 . S
C1313 C317 1.503 . S
C1307 C148 1.579 . S
C1327 C159 1.337 . S
C1333 C266 1.302 . S
C1347 C104 1.354 . S
C1353 C337 1.292 . S
C1367 C115 1.716 . S
C1373 C357 1.635 . S
C1393 C366 1.481 . S
C1387 C126 1.523 . S
C1407 C5 1.685 . S
C1413 C346 1.636 . S
C1427 C16 1.587 . S
C1433 C377 1.528 . S
C1447 C27 1.324 . S
C1453 C326 1.306 . S
