# Generated by pormake.
# Topology pyr, (3,6)-cn, num edge types: 1
# Building blocks:
#     Node 0, Type 0, BuildingBlock: VETTIZ_charged_linker_0, # of connection points: 3
#     Node 1, Type 0, BuildingBlock: VETTIZ_charged_linker_0, # of connection points: 3
#     Node 2, Type 0, BuildingBlock: VETTIZ_charged_linker_0, # of connection points: 3
#     Node 3, Type 0, BuildingBlock: VETTIZ_charged_linker_0, # of connection points: 3
#     Node 4, Type 0, BuildingBlock: VETTIZ_charged_linker_0, # of connection points: 3
#     Node 5, Type 0, BuildingBlock: VETTIZ_charged_linker_0, # of connection points: 3
#     Node 6, Type 0, BuildingBlock: VETTIZ_charged_linker_0, # of connection points: 3
#     Node 7, Type 0, BuildingBlock: VETTIZ_charged_linker_0, # of connection points: 3
#     Node 8, Type 1, BuildingBlock: BETFEN_clean_sbu_0, # of connection points: 6
#     Node 9, Type 1, BuildingBlock: BETFEN_clean_sbu_0, # of connection points: 6
#     Node 10, Type 1, BuildingBlock: BETFEN_clean_sbu_0, # of connection points: 6
#     Node 11, Type 1, BuildingBlock: BETFEN_clean_sbu_0, # of connection points: 6
#     Edge 12, Type (0, 1), BuildingBlock: XIVTED_clean_linker_0, # of connection points: 2
#     Edge 13, Type (0, 1), BuildingBlock: XIVTED_clean_linker_0, # of connection points: 2
#     Edge 14, Type (0, 1), BuildingBlock: XIVTED_clean_linker_0, # of connection points: 2
#     Edge 15, Type (0, 1), BuildingBlock: XIVTED_clean_linker_0, # of connection points: 2
#     Edge 16, Type (0, 1), BuildingBlock: XIVTED_clean_linker_0, # of connection points: 2
#     Edge 17, Type (0, 1), BuildingBlock: XIVTED_clean_linker_0, # of connection points: 2
#     Edge 18, Type (0, 1), BuildingBlock: XIVTED_clean_linker_0, # of connection points: 2
#     Edge 19, Type (0, 1), BuildingBlock: XIVTED_clean_linker_0, # of connection points: 2
#     Edge 20, Type (0, 1), BuildingBlock: XIVTED_clean_linker_0, # of connection points: 2
#     Edge 21, Type (0, 1), BuildingBlock: XIVTED_clean_linker_0, # of connection points: 2
#     Edge 22, Type (0, 1), BuildingBlock: XIVTED_clean_linker_0, # of connection points: 2
#     Edge 23, Type (0, 1), BuildingBlock: XIVTED_clean_linker_0, # of connection points: 2
#     Edge 24, Type (0, 1), BuildingBlock: XIVTED_clean_linker_0, # of connection points: 2
#     Edge 25, Type (0, 1), BuildingBlock: XIVTED_clean_linker_0, # of connection points: 2
#     Edge 26, Type (0, 1), BuildingBlock: XIVTED_clean_linker_0, # of connection points: 2
#     Edge 27, Type (0, 1), BuildingBlock: XIVTED_clean_linker_0, # of connection points: 2
#     Edge 28, Type (0, 1), BuildingBlock: XIVTED_clean_linker_0, # of connection points: 2
#     Edge 29, Type (0, 1), BuildingBlock: XIVTED_clean_linker_0, # of connection points: 2
#     Edge 30, Type (0, 1), BuildingBlock: XIVTED_clean_linker_0, # of connection points: 2
#     Edge 31, Type (0, 1), BuildingBlock: XIVTED_clean_linker_0, # of connection points: 2
#     Edge 32, Type (0, 1), BuildingBlock: XIVTED_clean_linker_0, # of connection points: 2
#     Edge 33, Type (0, 1), BuildingBlock: XIVTED_clean_linker_0, # of connection points: 2
#     Edge 34, Type (0, 1), BuildingBlock: XIVTED_clean_linker_0, # of connection points: 2
#     Edge 35, Type (0, 1), BuildingBlock: XIVTED_clean_linker_0, # of connection points: 2
# Relax obj value: 0.133
# Max RMSD: 0.233
# Mean RMSD: 0.113
data_MOF--net-pyr--node1-BETFEN_clean_sbu_0--node2-VETTIZ_charged_linker_0--edge1-XIVTED_clean_linker_0
_symmetry_space_group_name_H-M    P1
_symmetry_Int_Tables_number       1
_symmetry_cell_setting            triclinic
loop_
_symmetry_equiv_pos_as_xyz
'x, y, z'
_cell_length_a     45.430668
_cell_length_b     48.713862
_cell_length_c     45.135041
_cell_angle_alpha  91.396556
_cell_angle_beta   97.828567
_cell_angle_gamma 106.14575
loop_
_atom_site_label
_atom_site_type_symbol
_atom_site_fract_x
_atom_site_fract_y
_atom_site_fract_z
_atom_type_partial_charge
C0 C 0.33622 0.29267 0.39161 0.0
C1 C 0.30756 0.2952 0.39798 0.0
C2 C 0.29352 0.31342 0.38107 0.0
C3 C 0.33343 0.32173 0.34904 0.0
C4 C 0.34834 0.30553 0.36679 0.0
C5 C 0.37528 0.30039 0.3538 0.0
H6 H 0.4371 0.28902 0.22992 0.0
C7 C 0.34932 0.32842 0.32249 0.0
C8 C 0.37411 0.31627 0.32526 0.0
H9 H 0.45893 0.25827 0.31688 0.0
H10 H 0.431 0.28713 0.33879 0.0
H11 H 0.4477 0.35567 0.25618 0.0
H12 H 0.36734 0.28355 0.23078 0.0
H13 H 0.3615 0.31429 0.21377 0.0
H14 H 0.39276 0.30137 0.20553 0.0
H15 H 0.42881 0.34838 0.21812 0.0
H16 H 0.41684 0.37003 0.24459 0.0
C17 C 0.40534 0.31413 0.37595 0.0
C18 C 0.36816 0.26756 0.34731 0.0
C19 C 0.29927 0.37164 0.23544 0.0
C20 C 0.30661 0.37784 0.20669 0.0
C21 C 0.33475 0.3751 0.19916 0.0
C22 C 0.35447 0.36451 0.21957 0.0
C23 C 0.34575 0.35656 0.24758 0.0
C24 C 0.31924 0.36135 0.25556 0.0
C25 C 0.31406 0.35256 0.28652 0.0
C26 C 0.34174 0.34139 0.2958 0.0
C27 C 0.35971 0.34303 0.27258 0.0
C28 C 0.31549 0.37959 0.30612 0.0
C29 C 0.28287 0.32857 0.28368 0.0
C30 C 0.43652 0.28904 0.25381 0.0
C31 C 0.44923 0.27054 0.27149 0.0
C32 C 0.44844 0.27161 0.3026 0.0
C33 C 0.43208 0.28821 0.31524 0.0
C34 C 0.41585 0.30339 0.29648 0.0
C35 C 0.4199 0.30525 0.26675 0.0
C36 C 0.4017 0.32335 0.25056 0.0
C37 C 0.38415 0.32995 0.27493 0.0
C38 C 0.39203 0.31757 0.30156 0.0
C39 C 0.42478 0.35073 0.24166 0.0
C40 C 0.37966 0.30487 0.22364 0.0
H41 H 0.29406 0.33963 0.3443 0.0
H42 H 0.34815 0.27947 0.40451 0.0
H43 H 0.34344 0.25805 0.33743 0.0
H44 H 0.38143 0.26146 0.33097 0.0
H45 H 0.37247 0.25684 0.36824 0.0
H46 H 0.4034 0.33303 0.38906 0.0
H47 H 0.41041 0.29867 0.39216 0.0
H48 H 0.42564 0.32257 0.36435 0.0
H49 H 0.27794 0.37406 0.24186 0.0
H50 H 0.34081 0.38002 0.1771 0.0
H51 H 0.37517 0.36194 0.21243 0.0
H52 H 0.33258 0.3988 0.29954 0.0
H53 H 0.29263 0.38405 0.30367 0.0
H54 H 0.32349 0.37803 0.3301 0.0
H55 H 0.27892 0.31484 0.26262 0.0
H56 H 0.28203 0.31352 0.3016 0.0
H57 H 0.26301 0.33774 0.28327 0.0
H58 H 0.27143 0.31587 0.38515 0.0
C59 C 0.30651 0.32695 0.35693 0.0
C60 C 0.19709 0.85358 0.6538 0.0
C61 C 0.18552 0.87294 0.66906 0.0
C62 C 0.19371 0.87788 0.70034 0.0
C63 C 0.22678 0.84664 0.70055 0.0
C64 C 0.21783 0.84076 0.67001 0.0
C65 C 0.23416 0.82104 0.65748 0.0
H66 H 0.34217 0.74839 0.68242 0.0
C67 C 0.25042 0.83203 0.71047 0.0
C68 C 0.25486 0.81679 0.68543 0.0
H69 H 0.28524 0.75176 0.59853 0.0
H70 H 0.26037 0.7823 0.62302 0.0
H71 H 0.3598 0.81152 0.6994 0.0
H72 H 0.28857 0.74242 0.72586 0.0
H73 H 0.30801 0.76445 0.75821 0.0
H74 H 0.32938 0.74751 0.73657 0.0
H75 H 0.36792 0.79065 0.72995 0.0
H76 H 0.3557 0.82242 0.73552 0.0
C77 C 0.25322 0.83685 0.63389 0.0
C78 C 0.20952 0.79284 0.64503 0.0
C79 C 0.30747 0.85302 0.81684 0.0
C80 C 0.33461 0.84746 0.83102 0.0
C81 C 0.34695 0.82831 0.81618 0.0
C82 C 0.33343 0.81616 0.78737 0.0
C83 C 0.30764 0.82357 0.77282 0.0
C84 C 0.29488 0.84144 0.7877 0.0
C85 C 0.26912 0.84887 0.768 0.0
C86 C 0.26879 0.83274 0.7387 0.0
C87 C 0.29113 0.81776 0.74177 0.0
C88 C 0.27861 0.88186 0.76553 0.0
C89 C 0.23879 0.83673 0.78133 0.0
C90 C 0.32394 0.75527 0.66939 0.0
C91 C 0.31524 0.74733 0.63868 0.0
C92 C 0.29221 0.75757 0.62228 0.0
C93 C 0.2778 0.7752 0.63656 0.0
C94 C 0.28691 0.78296 0.66742 0.0
C95 C 0.30972 0.773 0.68316 0.0
C96 C 0.31778 0.78424 0.71533 0.0
C97 C 0.2953 0.80186 0.71677 0.0
C98 C 0.27726 0.80123 0.6887 0.0
C99 C 0.35206 0.80304 0.72059 0.0
C100 C 0.31082 0.75843 0.73525 0.0
H101 H 0.21967 0.86974 0.73987 0.0
H102 H 0.19114 0.84944 0.62973 0.0
H103 H 0.19155 0.78653 0.66 0.0
H104 H 0.21926 0.77454 0.64378 0.0
H105 H 0.19765 0.79527 0.62247 0.0
H106 H 0.26422 0.85977 0.64147 0.0
H107 H 0.23823 0.83604 0.6121 0.0
H108 H 0.27257 0.82827 0.6302 0.0
H109 H 0.29684 0.86713 0.82756 0.0
H110 H 0.36797 0.82371 0.82612 0.0
H111 H 0.34433 0.80226 0.77715 0.0
H112 H 0.30423 0.89087 0.76798 0.0
H113 H 0.27038 0.8928 0.78323 0.0
H114 H 0.27019 0.88829 0.74341 0.0
H115 H 0.2381 0.81575 0.79086 0.0
H116 H 0.21781 0.83227 0.76434 0.0
H117 H 0.23681 0.85148 0.79963 0.0
H118 H 0.18463 0.89234 0.71255 0.0
C119 C 0.21405 0.86471 0.71616 0.0
C120 C 0.60134 0.24876 0.89314 0.0
C121 C 0.57294 0.22979 0.88039 0.0
C122 C 0.55844 0.23543 0.85242 0.0
C123 C 0.60034 0.27932 0.8514 0.0
C124 C 0.61453 0.27297 0.87843 0.0
C125 C 0.64472 0.29463 0.88973 0.0
H126 H 0.75275 0.41817 0.87645 0.0
C127 C 0.6207 0.30665 0.84264 0.0
C128 C 0.64676 0.31527 0.86514 0.0
H129 H 0.75045 0.35968 0.94728 0.0
H130 H 0.7027 0.32846 0.92181 0.0
H131 H 0.67884 0.41353 0.86815 0.0
H132 H 0.73432 0.37233 0.82371 0.0
H133 H 0.70352 0.37326 0.79607 0.0
H134 H 0.73003 0.40644 0.81332 0.0
H135 H 0.70669 0.43127 0.8451 0.0
H136 H 0.66725 0.41331 0.82933 0.0
C137 C 0.64165 0.30859 0.92006 0.0
C138 C 0.67067 0.2794 0.89135 0.0
C139 C 0.58961 0.35709 0.74986 0.0
C140 C 0.60562 0.38199 0.73699 0.0
C141 C 0.63607 0.39669 0.75004 0.0
C142 C 0.65018 0.38749 0.77581 0.0
C143 C 0.63387 0.36317 0.78891 0.0
C144 C 0.60444 0.34779 0.77562 0.0
C145 C 0.59209 0.32116 0.79196 0.0
C146 C 0.61832 0.32414 0.81794 0.0
C147 C 0.64249 0.34913 0.81597 0.0
C148 C 0.56179 0.3226 0.80294 0.0
C149 C 0.58805 0.29469 0.77057 0.0
C150 C 0.74196 0.39855 0.88635 0.0
C151 C 0.75525 0.39161 0.91415 0.0
C152 C 0.74041 0.3659 0.92625 0.0
C153 C 0.71269 0.34761 0.91125 0.0
C154 C 0.69942 0.35497 0.88374 0.0
C155 C 0.71407 0.37998 0.87164 0.0
C156 C 0.6964 0.38419 0.84221 0.0
C157 C 0.66863 0.35762 0.83884 0.0
C158 C 0.67063 0.34075 0.86324 0.0
C159 C 0.68683 0.41208 0.84607 0.0
C160 C 0.71703 0.38428 0.81745 0.0
H161 H 0.55966 0.26383 0.81698 0.0
H162 H 0.61327 0.24479 0.91437 0.0
H163 H 0.66514 0.26192 0.87336 0.0
H164 H 0.69323 0.29375 0.88763 0.0
H165 H 0.67365 0.26969 0.91317 0.0
H166 H 0.61749 0.30941 0.9206 0.0
H167 H 0.64786 0.29628 0.93914 0.0
H168 H 0.65581 0.33115 0.92413 0.0
H169 H 0.56632 0.34515 0.74 0.0
H170 H 0.64877 0.41592 0.74068 0.0
H171 H 0.67322 0.39997 0.78472 0.0
H172 H 0.56492 0.344 0.81419 0.0
H173 H 0.54264 0.31905 0.78384 0.0
H174 H 0.55446 0.30679 0.81949 0.0
H175 H 0.6077 0.29811 0.75751 0.0
H176 H 0.58801 0.27524 0.78258 0.0
H177 H 0.56631 0.29043 0.75438 0.0
H178 H 0.53647 0.22099 0.84217 0.0
C179 C 0.57191 0.26027 0.83793 0.0
C180 C 0.9143 0.76685 0.36928 0.0
C181 C 0.90495 0.78087 0.3926 0.0
C182 C 0.87998 0.76534 0.40637 0.0
C183 C 0.87354 0.72315 0.37374 0.0
C184 C 0.89811 0.73803 0.36012 0.0
C185 C 0.9039 0.71966 0.33524 0.0
H186 H 0.86633 0.59086 0.25491 0.0
C187 C 0.8614 0.69381 0.35922 0.0
C188 C 0.87894 0.69139 0.33655 0.0
H189 H 0.93678 0.66873 0.24353 0.0
H190 H 0.92271 0.69278 0.28433 0.0
H191 H 0.87678 0.59618 0.33041 0.0
H192 H 0.81294 0.62365 0.26563 0.0
H193 H 0.7936 0.60518 0.29374 0.0
H194 H 0.81052 0.58643 0.26907 0.0
H195 H 0.84702 0.57106 0.30496 0.0
H196 H 0.83865 0.585 0.33914 0.0
C197 C 0.9369 0.71641 0.34342 0.0
C198 C 0.89868 0.73376 0.30533 0.0
C199 C 0.76981 0.62656 0.39691 0.0
C200 C 0.75149 0.59833 0.38898 0.0
C201 C 0.75973 0.58263 0.36624 0.0
C202 C 0.78514 0.59531 0.35126 0.0
C203 C 0.80265 0.624 0.3591 0.0
C204 C 0.79474 0.63882 0.38183 0.0
C205 C 0.81519 0.66889 0.38777 0.0
C206 C 0.83676 0.67018 0.36474 0.0
C207 C 0.82967 0.64393 0.34777 0.0
C208 C 0.83263 0.67186 0.4203 0.0
C209 C 0.79461 0.68941 0.38139 0.0
C210 C 0.87882 0.61303 0.26138 0.0
C211 C 0.90277 0.62784 0.24573 0.0
C212 C 0.91808 0.65683 0.25478 0.0
C213 C 0.90996 0.67079 0.27866 0.0
C214 C 0.88594 0.65591 0.29387 0.0
C215 C 0.8706 0.62752 0.2851 0.0
C216 C 0.84485 0.61558 0.30336 0.0
C217 C 0.84757 0.64129 0.32464 0.0
C218 C 0.87193 0.66491 0.319 0.0
C219 C 0.85193 0.59047 0.32034 0.0
C220 C 0.81372 0.60703 0.28196 0.0
H221 H 0.84567 0.72654 0.40882 0.0
H222 H 0.93335 0.77816 0.35814 0.0
H223 H 0.87987 0.74431 0.30528 0.0
H224 H 0.89092 0.71809 0.28576 0.0
H225 H 0.91999 0.75035 0.30164 0.0
H226 H 0.94159 0.71286 0.36766 0.0
H227 H 0.95471 0.736 0.33885 0.0
H228 H 0.94027 0.69775 0.33148 0.0
H229 H 0.76491 0.63918 0.41471 0.0
H230 H 0.74614 0.56078 0.35958 0.0
H231 H 0.79006 0.5824 0.33401 0.0
H232 H 0.83704 0.65133 0.42689 0.0
H233 H 0.819 0.67799 0.43664 0.0
H234 H 0.85592 0.68741 0.42311 0.0
H235 H 0.77463 0.67989 0.3635 0.0
H236 H 0.80694 0.70981 0.37277 0.0
H237 H 0.78508 0.69407 0.40171 0.0
H238 H 0.87263 0.77521 0.42472 0.0
C239 C 0.86438 0.7368 0.39717 0.0
C240 C 0.69141 0.62554 0.83183 0.0
C241 C 0.71433 0.61471 0.82194 0.0
C242 C 0.72203 0.62053 0.79304 0.0
C243 C 0.68782 0.65079 0.7864 0.0
C244 C 0.67846 0.64345 0.8137 0.0
C245 C 0.65552 0.65853 0.82159 0.0
H246 H 0.59416 0.76827 0.79861 0.0
C247 C 0.67284 0.67233 0.77461 0.0
C248 C 0.65319 0.67648 0.79472 0.0
H249 H 0.5829 0.71013 0.86984 0.0
H250 H 0.60839 0.68072 0.84506 0.0
H251 H 0.57666 0.72065 0.74479 0.0
H252 H 0.66362 0.77079 0.79381 0.0
H253 H 0.66554 0.77262 0.75519 0.0
H254 H 0.63702 0.78519 0.7704 0.0
H255 H 0.59535 0.75586 0.73454 0.0
H256 H 0.60344 0.72446 0.71942 0.0
C257 C 0.62444 0.63574 0.82345 0.0
C258 C 0.67005 0.67727 0.85105 0.0
C259 C 0.71576 0.73264 0.69171 0.0
C260 C 0.70919 0.75675 0.67896 0.0
C261 C 0.68207 0.76355 0.68432 0.0
C262 C 0.66364 0.74847 0.70438 0.0
C263 C 0.67259 0.72662 0.71957 0.0
C264 C 0.6971 0.71787 0.71186 0.0
C265 C 0.70219 0.69329 0.72943 0.0
C266 C 0.67776 0.68997 0.75012 0.0
C267 C 0.66115 0.71013 0.74472 0.0
C268 C 0.69559 0.66662 0.70739 0.0
C269 C 0.73555 0.70287 0.74697 0.0
C270 C 0.59642 0.74886 0.80862 0.0
C271 C 0.58695 0.7419 0.83656 0.0
C272 C 0.59064 0.71643 0.84871 0.0
C273 C 0.60548 0.69939 0.83431 0.0
C274 C 0.61714 0.70808 0.8077 0.0
C275 C 0.6114 0.73179 0.79469 0.0
C276 C 0.6255 0.73801 0.76647 0.0
C277 C 0.64128 0.71442 0.76499 0.0
C278 C 0.63683 0.6973 0.78954 0.0
C279 C 0.59904 0.73481 0.73985 0.0
C280 C 0.6491 0.76823 0.77142 0.0
H281 H 0.71624 0.64262 0.75385 0.0
H282 H 0.68451 0.62102 0.85365 0.0
H283 H 0.69488 0.68854 0.85048 0.0
H284 H 0.65918 0.69431 0.85501 0.0
H285 H 0.66886 0.66393 0.87071 0.0
H286 H 0.62113 0.61668 0.80792 0.0
H287 H 0.62354 0.62824 0.84645 0.0
H288 H 0.60413 0.64363 0.81641 0.0
H289 H 0.73617 0.72661 0.68778 0.0
H290 H 0.67587 0.7814 0.67399 0.0
H291 H 0.64403 0.75537 0.70847 0.0
H292 H 0.68066 0.66841 0.68626 0.0
H293 H 0.71737 0.66361 0.70119 0.0
H294 H 0.68257 0.64678 0.71668 0.0
H295 H 0.74049 0.72463 0.75812 0.0
H296 H 0.73962 0.68891 0.76495 0.0
H297 H 0.75294 0.70365 0.73169 0.0
H298 H 0.73968 0.61269 0.78479 0.0
C299 C 0.7087 0.63827 0.77517 0.0
C300 C 0.84177 0.19018 0.41799 0.0
C301 C 0.85705 0.1743 0.40239 0.0
C302 C 0.85157 0.17198 0.37083 0.0
C303 C 0.81432 0.19912 0.3709 0.0
C304 C 0.82079 0.20265 0.40179 0.0
C305 C 0.80253 0.22036 0.41458 0.0
H306 H 0.68544 0.2818 0.39175 0.0
C307 C 0.7904 0.21339 0.36084 0.0
C308 C 0.78383 0.22651 0.38624 0.0
H309 H 0.74151 0.27746 0.4758 0.0
H310 H 0.77364 0.25574 0.44968 0.0
H311 H 0.6816 0.21825 0.36411 0.0
H312 H 0.73875 0.30334 0.35537 0.0
H313 H 0.73702 0.2844 0.32124 0.0
H314 H 0.70189 0.28925 0.33227 0.0
H315 H 0.6678 0.24639 0.34763 0.0
H316 H 0.6826 0.2236 0.32579 0.0
C317 C 0.78166 0.20155 0.43513 0.0
C318 C 0.82554 0.24803 0.43066 0.0
C319 C 0.73267 0.19226 0.25453 0.0
C320 C 0.70737 0.20053 0.23992 0.0
C321 C 0.69871 0.22299 0.2533 0.0
C322 C 0.71274 0.23486 0.28201 0.0
C323 C 0.73551 0.22406 0.29766 0.0
C324 C 0.74646 0.20441 0.28333 0.0
C325 C 0.77224 0.1969 0.30306 0.0
C326 C 0.77319 0.21375 0.33221 0.0
C327 C 0.75107 0.22901 0.32898 0.0
C328 C 0.76235 0.16416 0.30639 0.0
C329 C 0.80252 0.20793 0.28925 0.0
C330 C 0.70459 0.27604 0.40452 0.0
C331 C 0.71068 0.28071 0.4358 0.0
C332 C 0.73632 0.27379 0.45165 0.0
C333 C 0.75477 0.26109 0.43645 0.0
C334 C 0.74748 0.25541 0.40515 0.0
C335 C 0.72316 0.26354 0.38974 0.0
C336 C 0.71875 0.25639 0.35663 0.0
C337 C 0.74429 0.24225 0.35454 0.0
C338 C 0.76077 0.2413 0.38304 0.0
C339 C 0.68599 0.23515 0.34779 0.0
C340 C 0.72414 0.28467 0.34036 0.0
H341 H 0.8267 0.18136 0.33108 0.0
H342 H 0.84597 0.19272 0.44224 0.0
H343 H 0.84634 0.25517 0.41925 0.0
H344 H 0.81561 0.26633 0.43024 0.0
H345 H 0.83359 0.24457 0.45427 0.0
H346 H 0.77065 0.17965 0.42431 0.0
H347 H 0.7954 0.19945 0.45683 0.0
H348 H 0.76234 0.20974 0.43974 0.0
H349 H 0.74022 0.17538 0.24469 0.0
H350 H 0.68006 0.23051 0.24207 0.0
H351 H 0.70428 0.25105 0.29145 0.0
H352 H 0.73825 0.157 0.31161 0.0
H353 H 0.76312 0.15227 0.28532 0.0
H354 H 0.77687 0.15737 0.32468 0.0
H355 H 0.8011 0.22479 0.27337 0.0
H356 H 0.82271 0.21828 0.30647 0.0
H357 H 0.80767 0.19034 0.27669 0.0
H358 H 0.86297 0.15977 0.35836 0.0
C359 C 0.83035 0.18435 0.35503 0.0
C360 C 0.44657 0.68207 0.32594 0.0
C361 C 0.42949 0.65802 0.33928 0.0
C362 C 0.3982 0.64523 0.3274 0.0
C363 C 0.40141 0.67923 0.28894 0.0
C364 C 0.43185 0.69264 0.30104 0.0
C365 C 0.44548 0.71874 0.28449 0.0
H366 H 0.4226 0.80361 0.17034 0.0
C367 C 0.39284 0.69463 0.26292 0.0
C368 C 0.41832 0.71831 0.26035 0.0
H369 H 0.50715 0.81492 0.23214 0.0
H370 H 0.48199 0.7732 0.25765 0.0
H371 H 0.37489 0.78678 0.21718 0.0
H372 H 0.41182 0.74045 0.15696 0.0
H373 H 0.37411 0.71876 0.15757 0.0
H374 H 0.37997 0.75432 0.14443 0.0
H375 H 0.36417 0.78412 0.17723 0.0
H376 H 0.3437 0.75805 0.2005 0.0
C377 C 0.45397 0.74545 0.30654 0.0
C378 C 0.47331 0.71414 0.27092 0.0
C379 C 0.28965 0.65214 0.19525 0.0
C380 C 0.27597 0.6611 0.16872 0.0
C381 C 0.29068 0.68787 0.15855 0.0
C382 C 0.31898 0.70491 0.17375 0.0
C383 C 0.33303 0.6952 0.19947 0.0
C384 C 0.31815 0.6695 0.21018 0.0
C385 C 0.33645 0.66311 0.23824 0.0
C386 C 0.36536 0.68865 0.24169 0.0
C387 C 0.36311 0.70719 0.21889 0.0
C388 C 0.31746 0.66285 0.2644 0.0
C389 C 0.34393 0.63456 0.23193 0.0
C390 C 0.43602 0.79719 0.18922 0.0
C391 C 0.4671 0.81246 0.19883 0.0
C392 C 0.48315 0.80356 0.22416 0.0
C393 C 0.46854 0.77926 0.23885 0.0
C394 C 0.43757 0.76375 0.22811 0.0
C395 C 0.42207 0.77308 0.20366 0.0
C396 C 0.39004 0.75391 0.19383 0.0
C397 C 0.38824 0.73156 0.21665 0.0
C398 C 0.41594 0.73721 0.237 0.0
C399 C 0.36681 0.77148 0.19706 0.0
C400 C 0.38859 0.74124 0.16151 0.0
H401 H 0.36042 0.6446 0.29428 0.0
H402 H 0.47059 0.69248 0.33485 0.0
H403 H 0.46751 0.69203 0.26042 0.0
H404 H 0.47989 0.72857 0.25298 0.0
H405 H 0.49381 0.7172 0.28849 0.0
H406 H 0.43518 0.74444 0.32028 0.0
H407 H 0.47562 0.7469 0.32208 0.0
H408 H 0.45684 0.76555 0.2951 0.0
H409 H 0.27886 0.63176 0.20377 0.0
H410 H 0.28028 0.69569 0.13869 0.0
H411 H 0.32895 0.72489 0.16458 0.0
H412 H 0.29986 0.67474 0.25952 0.0
H413 H 0.30491 0.64065 0.26887 0.0
H414 H 0.33215 0.67379 0.28534 0.0
H415 H 0.35195 0.63419 0.20974 0.0
H416 H 0.3627 0.63117 0.24832 0.0
H417 H 0.32305 0.61603 0.2316 0.0
H418 H 0.38469 0.62662 0.33713 0.0
C419 C 0.38416 0.65562 0.30238 0.0
C420 C 0.1196 0.26985 0.70405 0.0
C421 C 0.12975 0.25506 0.68193 0.0
C422 C 0.15616 0.26966 0.66957 0.0
C423 C 0.16184 0.31268 0.70056 0.0
C424 C 0.13619 0.29861 0.71318 0.0
C425 C 0.12979 0.31774 0.73702 0.0
H426 H 0.16575 0.44895 0.81244 0.0
C427 C 0.17362 0.34241 0.7141 0.0
C428 C 0.15514 0.34574 0.73562 0.0
H429 H 0.09629 0.37137 0.82662 0.0
H430 H 0.11064 0.3461 0.78689 0.0
H431 H 0.1543 0.4403 0.73729 0.0
H432 H 0.22043 0.4171 0.80328 0.0
H433 H 0.23887 0.43568 0.77464 0.0
H434 H 0.2208 0.45376 0.79873 0.0
H435 H 0.1846 0.46694 0.7606 0.0
H436 H 0.19173 0.45075 0.72699 0.0
C437 C 0.09708 0.32119 0.7275 0.0
C438 C 0.13389 0.30436 0.76755 0.0
C439 C 0.26465 0.40878 0.67467 0.0
C440 C 0.28033 0.43816 0.67909 0.0
C441 C 0.27112 0.45459 0.70051 0.0
C442 C 0.24664 0.44196 0.71662 0.0
C443 C 0.23095 0.41253 0.71131 0.0
C444 C 0.24019 0.39673 0.69041 0.0
C445 C 0.22069 0.36622 0.68611 0.0
C446 C 0.1982 0.36584 0.70806 0.0
C447 C 0.20418 0.39285 0.72323 0.0
C448 C 0.20419 0.36085 0.6531 0.0
C449 C 0.24198 0.34689 0.69535 0.0
C450 C 0.15356 0.42656 0.80685 0.0
C451 C 0.12982 0.41221 0.82298 0.0
C452 C 0.11484 0.38294 0.81501 0.0
C453 C 0.12316 0.36825 0.79179 0.0
C454 C 0.14703 0.38269 0.77617 0.0
C455 C 0.16199 0.41136 0.78384 0.0
C456 C 0.18751 0.42284 0.7652 0.0
C457 C 0.18559 0.39635 0.74545 0.0
C458 C 0.16145 0.37286 0.75179 0.0
C459 C 0.17939 0.44663 0.74657 0.0
C460 C 0.21866 0.43309 0.78644 0.0
H461 H 0.19191 0.30764 0.66812 0.0
H462 H 0.09956 0.25921 0.71424 0.0
H463 H 0.15166 0.29252 0.76838 0.0
H464 H 0.14249 0.32063 0.78657 0.0
H465 H 0.11188 0.28901 0.77162 0.0
H466 H 0.09366 0.32532 0.70332 0.0
H467 H 0.07888 0.30145 0.731 0.0
H468 H 0.09314 0.33951 0.73956 0.0
H469 H 0.27118 0.39503 0.65915 0.0
H470 H 0.28243 0.47732 0.70449 0.0
H471 H 0.24065 0.45561 0.73239 0.0
H472 H 0.20045 0.38083 0.64396 0.0
H473 H 0.2181 0.35285 0.63834 0.0
H474 H 0.18065 0.34577 0.65064 0.0
H475 H 0.2606 0.3575 0.71409 0.0
H476 H 0.2296 0.32653 0.70402 0.0
H477 H 0.25336 0.34214 0.67636 0.0
H478 H 0.16429 0.25915 0.65225 0.0
C479 C 0.17214 0.29811 0.6787 0.0
Pr480 Pr 0.99089 1.00651 0.54921 0.0
Pr481 Pr 0.04379 0.03172 0.52035 0.0
C482 C 0.94363 0.97539 0.57534 0.0
C483 C 0.92622 0.94757 0.58497 0.0
C484 C 0.92562 0.94419 0.61567 0.0
C485 C 0.90468 0.92062 0.62537 0.0
C486 C 0.88373 0.90003 0.60453 0.0
C487 C 0.88574 0.90237 0.57385 0.0
C488 C 0.90675 0.92601 0.56412 0.0
C489 C 0.02211 0.06246 0.57377 0.0
C490 C 0.05453 0.98952 0.57015 0.0
C491 C 0.09156 0.0634 0.49503 0.0
C492 C 0.11395 0.0921 0.49575 0.0
C493 C 0.14371 0.09765 0.51239 0.0
C494 C 0.16645 0.12317 0.50992 0.0
C495 C 0.16002 0.14363 0.4906 0.0
C496 C 0.12985 0.13869 0.47502 0.0
C497 C 0.10707 0.11313 0.47748 0.0
C498 C 1.01227 0.97603 0.4953 0.0
C499 C 0.98061 0.05162 0.50152 0.0
O500 O 0.94133 0.97952 0.54672 0.0
O501 O 0.97083 0.98854 0.59038 0.0
O502 O 0.03538 0.04392 0.56745 0.0
O503 O 0.9923 0.05226 0.56784 0.0
O504 O 0.06795 1.01504 0.56183 0.0
O505 O 0.02443 0.97839 0.56269 0.0
O506 O 0.09496 0.04774 0.51758 0.0
O507 O 0.06255 0.06036 0.48435 0.0
O508 O 0.99923 0.99463 0.50192 0.0
O509 O 0.04204 0.98628 0.50059 0.0
O510 O 0.96594 0.02758 0.51208 0.0
O511 O 1.01112 0.06048 0.50595 0.0
H512 H 0.94026 0.96053 0.6322 0.0
H513 H 0.90402 0.91912 0.64919 0.0
H514 H 0.86981 0.8869 0.55728 0.0
H515 H 0.90661 0.92807 0.54026 0.0
H516 H 0.14984 0.08184 0.52654 0.0
H517 H 0.18939 0.1265 0.52247 0.0
H518 H 0.12425 0.15387 0.45967 0.0
H519 H 0.08446 0.10941 0.46414 0.0
Pr520 Pr 0.497 0.0258 0.05325 0.0
Pr521 Pr 0.54641 1.01291 1.02557 0.0
C522 C 0.45305 0.03167 0.08496 0.0
C523 C 0.45086 0.05539 0.10471 0.0
C524 C 0.45346 0.08277 0.09421 0.0
C525 C 0.45492 0.10579 0.11394 0.0
C526 C 0.45414 0.10203 0.14465 0.0
C527 C 0.45084 0.07445 0.15496 0.0
C528 C 0.44909 0.05137 0.13515 0.0
C529 C 0.52287 0.06949 1.01728 0.0
C530 C 0.568 0.05955 0.08068 0.0
C531 C 0.58264 0.99872 0.98891 0.0
C532 C 0.58051 0.97106 0.97381 0.0
C533 C 0.56462 0.94551 0.9853 0.0
C534 C 0.56149 0.91913 0.97055 0.0
C535 C 0.57385 0.91783 0.94385 0.0
C536 C 0.58947 0.94348 0.93221 0.0
C537 C 0.59282 0.96993 0.94715 0.0
C538 C 0.53261 0.98094 0.07527 0.0
C539 C 0.47451 0.97648 0.99811 0.0
O540 O 0.47422 0.01925 0.09503 0.0
O541 O 0.45163 0.03556 0.05624 0.0
O542 O 0.51665 0.04303 1.01013 0.0
O543 O 0.51593 0.07388 0.04354 0.0
O544 O 0.57438 0.05509 0.05371 0.0
O545 O 0.54129 0.04517 0.08831 0.0
O546 O 0.56042 1.01 0.97951 0.0
O547 O 0.58932 1.00042 1.01808 0.0
O548 O 0.51303 0.98515 0.05461 0.0
O549 O 0.56066 0.99393 0.07109 0.0
O550 O 0.46532 0.99374 1.01519 0.0
O551 O 0.50402 0.9778 0.99946 0.0
H552 H 0.45505 0.08664 0.07087 0.0
H553 H 0.4568 0.12657 0.1051 0.0
H554 H 0.4505 0.07079 0.17849 0.0
H555 H 0.44733 0.03051 0.1438 0.0
H556 H 0.55444 0.94598 1.0056 0.0
H557 H 0.549 0.89974 0.9798 0.0
H558 H 0.59941 0.94307 0.91177 0.0
H559 H 0.60486 0.98946 0.93784 0.0
Pr560 Pr 0.52353 0.54846 0.54934 0.0
Pr561 Pr 0.51143 0.48804 0.52284 0.0
C562 C 0.53107 0.6048 0.55968 0.0
C563 C 0.50979 0.62189 0.56528 0.0
C564 C 0.50812 0.63065 0.59473 0.0
C565 C 0.48586 0.6441 0.60046 0.0
C566 C 0.46491 0.6493 0.57684 0.0
C567 C 0.46749 0.64178 0.54727 0.0
C568 C 0.48969 0.62821 0.54153 0.0
C569 C 0.54405 0.51177 0.58845 0.0
C570 C 0.4596 0.50358 0.56259 0.0
C571 C 0.50295 0.4315 0.5127 0.0
C572 C 0.52333 0.41295 0.51006 0.0
C573 C 0.51767 0.39387 0.48482 0.0
C574 C 0.53784 0.37742 0.48109 0.0
C575 C 0.56406 0.37967 0.50264 0.0
C576 C 0.5693 0.39841 0.52822 0.0
C577 C 0.54919 0.41491 0.53186 0.0
C578 C 0.49097 0.52476 0.48374 0.0
C579 C 0.57478 0.53323 0.50905 0.0
O580 O 0.52695 0.59247 0.53277 0.0
O581 O 0.53717 0.58837 0.58079 0.0
O582 O 0.54765 0.51327 0.56123 0.0
O583 O 0.53092 0.53059 0.59671 0.0
O584 O 0.47049 0.48354 0.55163 0.0
O585 O 0.47346 0.53099 0.56081 0.0
O586 O 0.50439 0.4436 0.53927 0.0
O587 O 0.50099 0.4486 0.49109 0.0
O588 O 0.48735 0.52321 0.51095 0.0
O589 O 0.50372 0.50566 0.47541 0.0
O590 O 0.56283 0.55299 0.51885 0.0
O591 O 0.56216 0.50586 0.51254 0.0
H592 H 0.52354 0.62647 0.61347 0.0
H593 H 0.48485 0.65019 0.62346 0.0
H594 H 0.45164 0.64545 0.52861 0.0
H595 H 0.49048 0.62201 0.51851 0.0
H596 H 0.49794 0.39209 0.46767 0.0
H597 H 0.53332 0.36351 0.4609 0.0
H598 H 0.589 0.40039 0.54544 0.0
H599 H 0.55414 0.42941 0.55158 0.0
Pr600 Pr 1.0122 0.54383 1.01409 0.0
Pr601 Pr 0.02594 0.50045 0.05632 0.0
C602 C 0.98604 0.57628 0.97764 0.0
C603 C 0.95443 0.5766 0.96573 0.0
C604 C 0.94849 0.58497 0.9366 0.0
C605 C 0.91829 0.58348 0.92385 0.0
C606 C 0.89351 0.57368 0.94009 0.0
C607 C 0.89954 0.56555 0.96946 0.0
C608 C 0.92979 0.56676 0.98212 0.0
C609 C 0.07256 0.56059 0.04498 0.0
C610 C 0.98889 0.54213 0.08194 0.0
C611 C 0.05019 0.46607 0.09164 0.0
C612 C 0.07708 0.45481 0.09431 0.0
C613 C 0.07719 0.43138 0.11155 0.0
C614 C 0.10321 0.42125 0.1157 0.0
C615 C 0.12961 0.43443 0.10263 0.0
C616 C 0.12914 0.45762 0.08479 0.0
C617 C 0.10299 0.4677 0.08058 0.0
C618 C 0.96521 0.48538 1.02653 0.0
C619 C 0.04773 0.50051 0.98829 0.0
O620 O 0.99425 0.55448 0.96794 0.0
O621 O 0.9954 0.58307 1.00626 0.0
O622 O 0.04868 0.54865 0.05614 0.0
O623 O 0.06554 0.56633 1.01746 0.0
O624 O 1.00773 0.52648 0.09009 0.0
O625 O 0.98345 0.54814 0.05356 0.0
O626 O 0.05612 0.49361 0.09779 0.0
O627 O 0.02895 0.45634 0.0683 0.0
O628 O 0.98901 0.49599 1.01469 0.0
O629 O 0.97229 0.48061 0.05439 0.0
O630 O 0.02903 0.51633 0.98035 0.0
O631 O 0.05357 0.49479 1.01665 0.0
H632 H 0.96719 0.59236 0.92356 0.0
H633 H 0.91435 0.59023 0.90132 0.0
H634 H 0.88081 0.55778 0.98237 0.0
H635 H 0.93388 0.55971 1.0045 0.0
H636 H 0.05735 0.42126 0.12232 0.0
H637 H 0.10299 0.40366 0.12997 0.0
H638 H 0.14903 0.46805 0.07427 0.0
H639 H 0.10314 0.48578 0.06702 0.0
H640 H 0.2674 0.30579 0.4349 0.0
H641 H 0.21841 0.14404 0.48195 0.0
H642 H 0.30757 0.23999 0.40844 0.0
H643 H 0.15925 0.19953 0.48405 0.0
H644 H 0.25805 0.1833 0.46594 0.0
H645 H 0.23392 0.27084 0.46294 0.0
C646 C 0.26949 0.2842 0.43515 0.0
C647 C 0.29039 0.27597 0.41899 0.0
C648 C 0.23653 0.18701 0.4702 0.0
C649 C 0.2525 0.23611 0.45151 0.0
C650 C 0.21396 0.16466 0.47961 0.0
C651 C 0.18538 0.16846 0.48425 0.0
C652 C 0.23061 0.21345 0.46536 0.0
C653 C 0.1808 0.19558 0.48033 0.0
C654 C 0.25043 0.26432 0.45128 0.0
C655 C 0.29237 0.24774 0.4208 0.0
N656 N 0.20314 0.21705 0.47092 0.0
N657 N 0.2736 0.22889 0.43656 0.0
H658 H 0.37058 0.83006 0.87722 0.0
H659 H 0.41588 0.97737 0.97599 0.0
H660 H 0.33845 0.90258 0.84993 0.0
H661 H 0.48035 0.92732 0.97202 0.0
H662 H 0.37876 0.94349 0.93834 0.0
H663 H 0.4031 0.85969 0.92063 0.0
C664 C 0.37011 0.85203 0.88028 0.0
C665 C 0.35169 0.86373 0.85952 0.0
C666 C 0.40097 0.93988 0.94594 0.0
C667 C 0.38813 0.89725 0.90966 0.0
C668 C 0.42209 0.9591 0.96743 0.0
C669 C 0.45129 0.95524 0.97689 0.0
C670 C 0.40891 0.91641 0.93428 0.0
C671 C 0.45817 0.93121 0.96506 0.0
C672 C 0.38857 0.86881 0.90516 0.0
C673 C 0.35162 0.89222 0.86535 0.0
N674 N 0.43707 0.91262 0.94431 0.0
N675 N 0.36955 0.90795 0.88983 0.0
H676 H 0.55098 0.39622 0.73085 0.0
H677 H 0.58083 0.47704 0.57998 0.0
H678 H 0.62809 0.3966 0.68467 0.0
H679 H 0.52295 0.49613 0.64103 0.0
H680 H 0.59197 0.44062 0.61295 0.0
H681 H 0.53319 0.42519 0.6923 0.0
C682 C 0.56369 0.4018 0.71218 0.0
C683 C 0.59106 0.39411 0.71095 0.0
C684 C 0.57676 0.45274 0.61908 0.0
C685 C 0.5712 0.42749 0.66708 0.0
C686 C 0.57041 0.47347 0.60027 0.0
C687 C 0.55112 0.48969 0.60791 0.0
C688 C 0.56348 0.44803 0.64557 0.0
C689 C 0.53819 0.48426 0.63445 0.0
C690 C 0.55377 0.41858 0.69039 0.0
C691 C 0.60694 0.40224 0.68649 0.0
N692 N 0.54457 0.46391 0.6523 0.0
N693 N 0.5969 0.41859 0.66564 0.0
H694 H 0.91408 0.64876 0.19111 0.0
H695 H 0.98427 0.52504 0.13917 0.0
H696 H 0.9133 0.57473 0.24172 0.0
H697 H 0.95884 0.58437 0.07835 0.0
H698 H 0.96111 0.54427 0.17783 0.0
H699 H 0.93291 0.62706 0.15073 0.0
C700 C 0.91781 0.62789 0.19375 0.0
C701 C 0.91214 0.61366 0.22006 0.0
C702 C 0.96045 0.55301 0.15601 0.0
C703 C 0.93408 0.58863 0.17365 0.0
C704 C 0.97379 0.54209 0.13385 0.0
C705 C 0.97366 0.55307 0.10528 0.0
C706 C 0.94717 0.5755 0.14995 0.0
C707 C 0.95952 0.57513 0.09992 0.0
C708 C 0.92847 0.61544 0.17056 0.0
C709 C 0.91714 0.58647 0.22188 0.0
N710 N 0.94714 0.58574 0.12203 0.0
N711 N 0.92809 0.57502 0.19922 0.0
H712 H 0.48211 0.27238 0.22413 0.0
H713 H 0.42422 0.10319 0.19337 0.0
H714 H 0.43478 0.21458 0.28471 0.0
H715 H 0.49076 0.15749 0.14446 0.0
H716 H 0.42871 0.14418 0.2274 0.0
H717 H 0.48701 0.23112 0.19506 0.0
C718 C 0.47322 0.25109 0.23159 0.0
C719 C 0.45796 0.24695 0.25686 0.0
C720 C 0.4425 0.14711 0.20934 0.0
C721 C 0.46309 0.19976 0.22358 0.0
C722 C 0.44002 0.12365 0.1899 0.0
C723 C 0.45703 0.12681 0.16585 0.0
C724 C 0.46189 0.17412 0.2046 0.0
C725 C 0.4767 0.15409 0.16229 0.0
C726 C 0.47603 0.22757 0.21502 0.0
C727 C 0.44704 0.2189 0.26562 0.0
N728 N 0.47843 0.17673 0.18132 0.0
N729 N 0.44947 0.1964 0.24881 0.0
H730 H 0.13311 0.85283 0.62748 0.0
H731 H 0.1145 1.0086 0.59778 0.0
H732 H 0.19456 0.93046 0.67366 0.0
H733 H 0.03829 0.93172 0.57672 0.0
H734 H 0.1467 0.97987 0.62071 0.0
H735 H 0.10057 0.88108 0.60303 0.0
C736 C 0.1398 0.87581 0.63227 0.0
C737 C 0.16633 0.88938 0.65271 0.0
C738 C 0.12289 0.9693 0.61118 0.0
C739 C 0.1296 0.92164 0.62499 0.0
C740 C 0.10451 0.98568 0.59808 0.0
C741 C 0.07365 0.97254 0.58545 0.0
C742 C 0.11048 0.93949 0.6113 0.0
C743 C 0.06192 0.94273 0.58642 0.0
C744 C 0.1212 0.89186 0.61853 0.0
C745 C 0.17404 0.91917 0.65829 0.0
N746 N 0.08042 0.92715 0.59898 0.0
N747 N 0.15581 0.93431 0.64447 0.0
H748 H 0.76979 0.40624 0.97431 0.0
H749 H 0.94692 0.48994 0.96704 0.0
H750 H 0.80766 0.42034 0.89148 0.0
H751 H 0.91162 0.46046 0.04815 0.0
H752 H 0.89441 0.47165 0.93921 0.0
H753 H 0.81997 0.43321 1.00179 0.0
C754 C 0.78868 0.41507 0.96189 0.0
C755 C 0.78467 0.41061 0.93058 0.0
C756 C 0.89816 0.4693 0.96311 0.0
C757 C 0.84218 0.44175 0.96193 0.0
C758 C 0.92807 0.4797 0.97897 0.0
C759 C 0.93356 0.47623 1.00981 0.0
C760 C 0.87367 0.45549 0.97828 0.0
C761 C 0.90837 0.46322 1.02432 0.0
C762 C 0.81729 0.43056 0.97759 0.0
C763 C 0.80972 0.42324 0.9156 0.0
N764 N 0.87953 0.45316 1.00839 0.0
N765 N 0.83753 0.43803 0.93145 0.0
H766 H 0.72967 0.54373 0.40856 0.0
H767 H 0.60301 0.58702 0.49323 0.0
H768 H 0.70995 0.62536 0.4047 0.0
H769 H 0.60781 0.49992 0.48586 0.0
H770 H 0.64467 0.60132 0.46316 0.0
H771 H 0.68681 0.52678 0.43778 0.0
C772 C 0.71625 0.55801 0.41357 0.0
C773 C 0.72388 0.58622 0.40441 0.0
C774 C 0.63673 0.57905 0.46809 0.0
C775 C 0.67506 0.56706 0.43823 0.0
C776 C 0.61292 0.57084 0.48549 0.0
C777 C 0.60171 0.54216 0.49226 0.0
C778 C 0.64983 0.55855 0.45726 0.0
C779 C 0.61564 0.52228 0.4813 0.0
C780 C 0.6919 0.54837 0.43044 0.0
C781 C 0.70562 0.60371 0.4118 0.0
N782 N 0.63895 0.53083 0.46438 0.0
N783 N 0.68239 0.59395 0.4283 0.0
H784 H 0.31325 0.42621 0.17535 0.0
H785 H 0.13375 0.37952 0.1048 0.0
H786 H 0.24789 0.34572 0.1876 0.0
H787 H 0.19001 0.46757 0.11583 0.0
H788 H 0.17938 0.36447 0.1237 0.0
H789 H 0.27193 0.43929 0.14255 0.0
C790 C 0.29031 0.41119 0.1707 0.0
C791 C 0.28363 0.38506 0.18429 0.0
C792 C 0.18181 0.38707 0.12167 0.0
C793 C 0.23678 0.39956 0.14702 0.0
C794 C 0.15577 0.39567 0.11097 0.0
C795 C 0.15795 0.42487 0.1093 0.0
C796 C 0.21029 0.40779 0.13081 0.0
C797 C 0.18726 0.44484 0.11682 0.0
C798 C 0.26682 0.41864 0.15215 0.0
C799 C 0.25371 0.36623 0.17774 0.0
N800 N 0.21226 0.43595 0.12764 0.0
N801 N 0.23135 0.37389 0.15967 0.0
H802 H 0.55458 0.1723 0.86222 0.0
H803 H 0.53169 0.12632 1.02911 0.0
H804 H 0.56124 0.23078 0.93765 0.0
H805 H 0.52774 0.06497 0.95708 0.0
H806 H 0.53967 0.16418 0.99436 0.0
H807 H 0.5406 0.13195 0.89451 0.0
C808 C 0.55245 0.17656 0.88537 0.0
C809 C 0.55911 0.20486 0.89735 0.0
C810 C 0.53707 0.14249 0.98598 0.0
C811 C 0.54373 0.15913 0.9344 0.0
C812 C 0.53258 0.12081 1.00591 0.0
C813 C 0.52906 0.09242 0.99601 0.0
C814 C 0.53814 0.13594 0.95572 0.0
C815 C 0.53042 0.08661 0.96565 0.0
C816 C 0.54479 0.15361 0.90385 0.0
C817 C 0.55643 0.20929 0.92758 0.0
N818 N 0.53487 0.1082 0.94653 0.0
N819 N 0.54915 0.18678 0.945 0.0
H820 H 0.87838 0.82277 0.40619 0.0
H821 H 0.03897 0.93678 0.47556 0.0
H822 H 0.96762 0.80847 0.40418 0.0
H823 H 0.94975 0.95124 0.47711 0.0
H824 H 1.01343 0.89062 0.44796 0.0
H825 H 0.90415 0.87061 0.42985 0.0
C826 C 0.90347 0.82974 0.4106 0.0
C827 C 0.92082 0.81134 0.40341 0.0
C828 C 0.99938 0.90386 0.45421 0.0
C829 C 0.95063 0.86645 0.43067 0.0
C830 C 1.01395 0.93026 0.47002 0.0
C831 C 0.99647 0.94798 0.4786 0.0
C832 C 0.96696 0.89489 0.44687 0.0
C833 C 0.96413 0.93832 0.47089 0.0
C834 C 0.91818 0.85714 0.42412 0.0
C835 C 0.95327 0.82187 0.4092 0.0
N836 N 0.95043 0.91244 0.45551 0.0
N837 N 0.96709 0.84859 0.4227 0.0
H838 H 0.3411 0.7555 0.58687 0.0
H839 H 0.42803 0.63501 0.62026 0.0
H840 H 0.32642 0.69827 0.65829 0.0
H841 H 0.44403 0.69084 0.54774 0.0
H842 H 0.38754 0.65573 0.63164 0.0
H843 H 0.37475 0.72927 0.56855 0.0
C844 C 0.34449 0.73708 0.59831 0.0
C845 C 0.33128 0.72918 0.62429 0.0
C846 C 0.39978 0.66345 0.61316 0.0
C847 C 0.36992 0.69944 0.60385 0.0
C848 C 0.42311 0.65177 0.6068 0.0
C849 C 0.43972 0.66147 0.58326 0.0
C850 C 0.39299 0.68517 0.59596 0.0
C851 C 0.43177 0.68272 0.56609 0.0
C852 C 0.36386 0.72227 0.58802 0.0
C853 C 0.33657 0.70531 0.63844 0.0
N854 N 0.40912 0.69404 0.57292 0.0
N855 N 0.35566 0.69147 0.6282 0.0
H856 H 0.74568 0.74463 0.63908 0.0
H857 H 0.84749 0.90797 0.64529 0.0
H858 H 0.72669 0.81499 0.68536 0.0
H859 H 0.86045 0.84266 0.58625 0.0
H860 H 0.80397 0.87291 0.66107 0.0
H861 H 0.78806 0.77904 0.61954 0.0
C862 C 0.7502 0.76727 0.64489 0.0
C863 C 0.73248 0.77692 0.66379 0.0
C864 C 0.81626 0.86611 0.64467 0.0
C865 C 0.7809 0.81622 0.64179 0.0
C866 C 0.84138 0.8861 0.63588 0.0
C867 C 0.85787 0.87815 0.61467 0.0
C868 C 0.80743 0.83778 0.6323 0.0
C869 C 0.84832 0.84965 0.60266 0.0
C870 C 0.77432 0.78687 0.63371 0.0
C871 C 0.73927 0.80651 0.67047 0.0
N872 N 0.82375 0.8304 0.61175 0.0
N873 N 0.763 0.825 0.65967 0.0
H874 H 0.64438 0.18402 0.22866 0.0
H875 H 0.62898 0.08824 0.07799 0.0
H876 H 0.72463 0.17698 0.191 0.0
H877 H 0.55639 0.08132 0.13241 0.0
H878 H 0.66388 0.12522 0.11467 0.0
H879 H 0.61117 0.1519 0.18805 0.0
C880 C 0.65508 0.17616 0.21152 0.0
C881 C 0.68742 0.18336 0.21324 0.0
C882 C 0.64029 0.11551 0.11845 0.0
C883 C 0.64925 0.14566 0.16688 0.0
C884 C 0.6204 0.09448 0.09759 0.0
C885 C 0.58981 0.08158 0.10227 0.0
C886 C 0.62925 0.12385 0.14381 0.0
C887 C 0.57984 0.09046 0.12797 0.0
C888 C 0.63603 0.15747 0.18848 0.0
C889 C 0.69982 0.17181 0.19067 0.0
N890 N 0.59946 0.11105 0.14767 0.0
N891 N 0.68068 0.1534 0.16839 0.0
H892 H 0.40909 0.64587 0.39295 0.0
H893 H 0.50903 0.53729 0.4294 0.0
H894 H 0.48119 0.63916 0.3427 0.0
H895 H 0.45899 0.56352 0.4942 0.0
H896 H 0.49843 0.57403 0.39712 0.0
H897 H 0.42686 0.61628 0.43056 0.0
C898 C 0.42904 0.63855 0.39017 0.0
C899 C 0.44372 0.64493 0.36471 0.0
C900 C 0.48987 0.57189 0.41845 0.0
C901 C 0.4637 0.61047 0.40723 0.0
C902 C 0.49573 0.55077 0.43681 0.0
C903 C 0.48457 0.54715 0.46437 0.0
C904 C 0.47233 0.58935 0.42746 0.0
C905 C 0.46778 0.56545 0.47299 0.0
C906 C 0.43913 0.62162 0.41158 0.0
C907 C 0.46939 0.63488 0.3621 0.0
N908 N 0.46191 0.58559 0.45446 0.0
N909 N 0.47828 0.61778 0.38285 0.0
H910 H 0.1193 0.46542 0.82498 0.0
H911 H 0.07766 0.45835 0.99281 0.0
H912 H 0.11864 0.39313 0.87837 0.0
H913 H 0.05054 0.51532 0.92994 0.0
H914 H 0.09924 0.43806 0.95346 0.0
H915 H 0.10086 0.48787 0.8654 0.0
C916 C 0.11558 0.45437 0.84528 0.0
C917 C 0.12043 0.4272 0.84807 0.0
C918 C 0.08862 0.45504 0.94828 0.0
C919 C 0.09934 0.45292 0.89466 0.0
C920 C 0.07635 0.46674 0.97081 0.0
C921 C 0.06205 0.48859 0.96482 0.0
C922 C 0.08711 0.46544 0.91945 0.0
C923 C 0.06113 0.49844 0.9357 0.0
C924 C 0.10484 0.46712 0.86829 0.0
C925 C 0.11491 0.4139 0.87495 0.0
N926 N 0.07351 0.48691 0.91425 0.0
N927 N 0.10481 0.42685 0.89708 0.0
H928 H 0.60098 0.75576 0.89707 0.0
H929 H 0.55697 0.90193 0.88396 0.0
H930 H 0.55105 0.77685 0.8165 0.0
H931 H 0.58359 0.8699 0.96872 0.0
H932 H 0.55395 0.85592 0.85883 0.0
H933 H 0.5927 0.79615 0.92418 0.0
C934 C 0.58765 0.76843 0.88516 0.0
C935 C 0.57703 0.76299 0.85427 0.0
C936 C 0.56017 0.85886 0.88296 0.0
C937 C 0.56834 0.80996 0.88514 0.0
C938 C 0.56215 0.88517 0.89725 0.0
C939 C 0.57074 0.88975 0.92841 0.0
C940 C 0.56725 0.8371 0.89991 0.0
C941 C 0.57676 0.8672 0.94465 0.0
C942 C 0.58318 0.79171 0.90066 0.0
C943 C 0.56033 0.78059 0.8401 0.0
N944 N 0.5752 0.84195 0.93018 0.0
N945 N 0.5569 0.80352 0.85553 0.0
H946 H 0.91469 0.1726 0.39248 0.0
H947 H 0.91917 0.04679 0.50083 0.0
H948 H 0.84505 0.14022 0.44893 0.0
H949 H 1.00117 0.09824 0.46911 0.0
H950 H 0.89013 0.07814 0.47807 0.0
H951 H 0.94564 0.14329 0.41704 0.0
C952 C 0.90604 0.15942 0.41017 0.0
C953 C 0.87731 0.15878 0.41873 0.0
C954 C 0.91449 0.0826 0.47613 0.0
C955 C 0.91229 0.12507 0.44657 0.0
C956 C 0.93105 0.0646 0.48894 0.0
C957 C 0.96265 0.06989 0.48682 0.0
C958 C 0.92948 0.10587 0.46074 0.0
C959 C 0.97685 0.09341 0.4713 0.0
C960 C 0.92371 0.1428 0.42419 0.0
C961 C 0.86721 0.14151 0.44186 0.0
N962 N 0.96011 0.11048 0.4587 0.0
N963 N 0.88454 0.12512 0.45479 0.0
H964 H 0.22373 0.62884 0.18945 0.0
H965 H 0.12615 0.58886 1.0251 0.0
H966 H 0.26185 0.65132 0.10789 0.0
H967 H 0.08929 0.55844 0.10522 0.0
H968 H 0.17669 0.61039 0.0553 0.0
H969 H 0.17494 0.60115 0.15937 0.0
C970 C 0.22194 0.62775 0.16525 0.0
C971 C 0.24679 0.64273 0.15117 0.0
C972 C 0.15762 0.5989 0.06632 0.0
C973 C 0.19103 0.61136 0.11664 0.0
C974 C 0.12878 0.58664 0.04907 0.0
C975 C 0.10353 0.57213 0.06276 0.0
C976 C 0.16121 0.59676 0.09753 0.0
C977 C 0.10819 0.56965 0.09385 0.0
C978 C 0.19406 0.61205 0.14809 0.0
C979 C 0.2431 0.64068 0.11972 0.0
N980 N 0.13644 0.58205 0.11026 0.0
N981 N 0.21573 0.62547 0.10356 0.0
H982 H 0.3342 0.48285 0.69554 0.0
H983 H 0.4141 0.45225 0.55692 0.0
H984 H 0.285 0.42307 0.62094 0.0
H985 H 0.44221 0.53541 0.60451 0.0
H986 H 0.36984 0.43822 0.58445 0.0
H987 H 0.37683 0.50033 0.66642 0.0
C988 C 0.33209 0.47347 0.67309 0.0
C989 C 0.30586 0.45096 0.66113 0.0
C990 C 0.38563 0.45959 0.58876 0.0
C991 C 0.35517 0.47052 0.62795 0.0
C992 C 0.41095 0.46759 0.57309 0.0
C993 C 0.43187 0.49511 0.57823 0.0
C994 C 0.38146 0.47895 0.61033 0.0
C995 C 0.42655 0.51405 0.59959 0.0
C996 C 0.35659 0.48341 0.65653 0.0
C997 C 0.30495 0.4397 0.63181 0.0
N998 N 0.40209 0.50555 0.61505 0.0
N999 N 0.32926 0.44931 0.61652 0.0
H1000 H 0.73593 0.56898 0.80916 0.0
H1001 H 0.85072 0.59351 0.96446 0.0
H1002 H 0.73563 0.62825 0.88175 0.0
H1003 H 0.86407 0.55133 0.88432 0.0
H1004 H 0.80074 0.59668 0.93873 0.0
H1005 H 0.7749 0.55263 0.84094 0.0
C1006 C 0.74374 0.5783 0.8319 0.0
C1007 C 0.73286 0.6004 0.84259 0.0
C1008 C 0.81445 0.58641 0.92693 0.0
C1009 C 0.77736 0.5817 0.87908 0.0
C1010 C 0.84286 0.58449 0.94162 0.0
C1011 C 0.86167 0.57253 0.9263 0.0
C1012 C 0.80478 0.57611 0.8968 0.0
C1013 C 0.85048 0.56122 0.89671 0.0
C1014 C 0.76594 0.56891 0.85003 0.0
C1015 C 0.74327 0.61116 0.8725 0.0
N1016 N 0.82288 0.56348 0.88285 0.0
N1017 N 0.76525 0.60198 0.88956 0.0
H1018 H 0.46006 0.81535 0.13805 0.0
H1019 H 0.56842 0.97161 0.12615 0.0
H1020 H 0.50832 0.86528 0.21951 0.0
H1021 H 0.47959 0.93709 0.07095 0.0
H1022 H 0.5556 0.93069 0.15802 0.0
H1023 H 0.47728 0.85718 0.1097 0.0
C1024 C 0.47432 0.83513 0.15007 0.0
C1025 C 0.48195 0.83692 0.18145 0.0
C1026 C 0.53899 0.93231 0.13899 0.0
C1027 C 0.5025 0.8849 0.14865 0.0
C1028 C 0.54625 0.95551 0.12083 0.0
C1029 C 0.52503 0.95767 0.09589 0.0
C1030 C 0.51073 0.91088 0.13154 0.0
C1031 C 0.49661 0.93631 0.08996 0.0
C1032 C 0.48419 0.85898 0.13377 0.0
C1033 C 0.50166 0.86293 0.19543 0.0
N1034 N 0.49048 0.91368 0.1074 0.0
N1035 N 0.51118 0.88604 0.17892 0.0
H1036 H 0.1551 0.21152 0.6715 0.0
H1037 H 0.99534 0.10237 0.59201 0.0
H1038 H 0.06694 0.22964 0.66625 0.0
H1039 H 0.08415 0.08594 0.59503 0.0
H1040 H 0.02059 0.14786 0.62111 0.0
H1041 H 0.12901 0.16432 0.64647 0.0
C1042 C 0.13016 0.20549 0.66524 0.0
C1043 C 0.11325 0.2248 0.67077 0.0
C1044 C 0.0346 0.13433 0.61551 0.0
C1045 C 0.08306 0.17044 0.64186 0.0
C1046 C 0.0202 0.10833 0.59883 0.0
C1047 C 0.03765 0.09026 0.59109 0.0
C1048 C 0.06681 0.1425 0.6246 0.0
C1049 C 0.06979 0.09917 0.6005 0.0
C1050 C 0.11526 0.17847 0.65091 0.0
C1051 C 0.08092 0.2155 0.66257 0.0
N1052 N 0.0833 0.12462 0.61673 0.0
N1053 N 0.06693 0.18912 0.64832 0.0
H1054 H 0.64798 0.26072 0.42941 0.0
H1055 H 0.62765 0.3976 0.51497 0.0
H1056 H 0.72522 0.32666 0.47698 0.0
H1057 H 0.55141 0.32435 0.47933 0.0
H1058 H 0.66387 0.37127 0.50388 0.0
H1059 H 0.6124 0.28276 0.44996 0.0
C1060 C 0.65739 0.27978 0.44444 0.0
C1061 C 0.6895 0.2921 0.45133 0.0
C1062 C 0.63922 0.36088 0.49874 0.0
C1063 C 0.64896 0.31767 0.47476 0.0
C1064 C 0.61848 0.37585 0.50518 0.0
C1065 C 0.58635 0.36327 0.49787 0.0
C1066 C 0.6278 0.33318 0.48471 0.0
C1067 C 0.57593 0.33516 0.48482 0.0
C1068 C 0.6371 0.29233 0.45622 0.0
C1069 C 0.70058 0.31656 0.47117 0.0
N1070 N 0.59657 0.32118 0.47848 0.0
N1071 N 0.68029 0.3288 0.48192 0.0
loop_
_geom_bond_atom_site_label_1
_geom_bond_atom_site_label_2
_geom_bond_distance
_geom_bond_site_symmetry_2
_ccdc_geom_bond_type
C0 C1 1.391 . S
C0 C4 1.391 . S
C0 H42 0.948 . S
C1 C0 1.391 . S
C1 C2 1.391 . S
C2 C1 1.391 . S
C2 H58 0.947 . S
C2 C59 1.392 . S
C3 C4 1.391 . S
C3 C7 1.397 . S
C3 C59 1.419 . S
C4 C0 1.391 . S
C4 C3 1.391 . S
C4 C5 1.399 . S
C5 C4 1.399 . S
C5 C8 1.396 . S
C5 C17 1.453 . S
C5 C18 1.684 . S
H6 C30 0.948 . S
C7 C3 1.397 . S
C7 C8 1.394 . S
C7 C26 1.723 . S
C8 C5 1.396 . S
C8 C7 1.394 . S
C8 C38 1.723 . S
H9 C32 0.947 . S
H10 C33 0.948 . S
H11 C39 0.982 . S
H12 C40 0.979 . S
H13 C40 0.980 . S
H14 C40 0.983 . S
H15 C39 0.979 . S
H16 C39 0.977 . S
C17 C5 1.453 . S
C17 H46 0.982 . S
C17 H47 0.979 . S
C17 H48 0.977 . S
C18 C5 1.684 . S
C18 H43 0.979 . S
C18 H44 0.980 . S
C18 H45 0.983 . S
C19 C20 1.391 . S
C19 C24 1.391 . S
C19 H49 0.948 . S
C20 C19 1.391 . S
C20 C21 1.391 . S
C21 C20 1.391 . S
C21 C22 1.392 . S
C21 H50 0.947 . S
C22 C21 1.392 . S
C22 C23 1.419 . S
C22 H51 0.948 . S
C23 C22 1.419 . S
C23 C24 1.391 . S
C23 C27 1.397 . S
C24 C19 1.391 . S
C24 C23 1.391 . S
C24 C25 1.399 . S
C25 C24 1.399 . S
C25 C26 1.396 . S
C25 C28 1.453 . S
C25 C29 1.684 . S
C26 C7 1.723 . S
C26 C25 1.396 . S
C26 C27 1.394 . S
C27 C23 1.397 . S
C27 C26 1.394 . S
C27 C37 1.723 . S
C28 C25 1.453 . S
C28 H52 0.982 . S
C28 H53 0.979 . S
C28 H54 0.977 . S
C29 C25 1.684 . S
C29 H55 0.979 . S
C29 H56 0.980 . S
C29 H57 0.983 . S
C30 H6 0.948 . S
C30 C31 1.391 . S
C30 C35 1.391 . S
C31 C30 1.391 . S
C31 C32 1.391 . S
C32 H9 0.947 . S
C32 C31 1.391 . S
C32 C33 1.392 . S
C33 H10 0.948 . S
C33 C32 1.392 . S
C33 C34 1.419 . S
C34 C33 1.419 . S
C34 C35 1.391 . S
C34 C38 1.397 . S
C35 C30 1.391 . S
C35 C34 1.391 . S
C35 C36 1.399 . S
C36 C35 1.399 . S
C36 C37 1.396 . S
C36 C39 1.453 . S
C36 C40 1.684 . S
C37 C27 1.723 . S
C37 C36 1.396 . S
C37 C38 1.394 . S
C38 C8 1.723 . S
C38 C34 1.397 . S
C38 C37 1.394 . S
C39 H11 0.982 . S
C39 H15 0.979 . S
C39 H16 0.977 . S
C39 C36 1.453 . S
C40 H12 0.979 . S
C40 H13 0.980 . S
C40 H14 0.983 . S
C40 C36 1.684 . S
H41 C59 0.948 . S
H42 C0 0.948 . S
H43 C18 0.979 . S
H44 C18 0.980 . S
H45 C18 0.983 . S
H46 C17 0.982 . S
H47 C17 0.979 . S
H48 C17 0.977 . S
H49 C19 0.948 . S
H50 C21 0.947 . S
H51 C22 0.948 . S
H52 C28 0.982 . S
H53 C28 0.979 . S
H54 C28 0.977 . S
H55 C29 0.979 . S
H56 C29 0.980 . S
H57 C29 0.983 . S
H58 C2 0.947 . S
C59 C2 1.392 . S
C59 C3 1.419 . S
C59 H41 0.948 . S
C60 C61 1.391 . S
C60 C64 1.391 . S
C60 H102 0.948 . S
C61 C60 1.391 . S
C61 C62 1.391 . S
C62 C61 1.391 . S
C62 H118 0.947 . S
C62 C119 1.392 . S
C63 C64 1.391 . S
C63 C67 1.397 . S
C63 C119 1.419 . S
C64 C60 1.391 . S
C64 C63 1.391 . S
C64 C65 1.399 . S
C65 C64 1.399 . S
C65 C68 1.396 . S
C65 C77 1.453 . S
C65 C78 1.684 . S
H66 C90 0.948 . S
C67 C63 1.397 . S
C67 C68 1.394 . S
C67 C86 1.723 . S
C68 C65 1.396 . S
C68 C67 1.394 . S
C68 C98 1.723 . S
H69 C92 0.947 . S
H70 C93 0.948 . S
H71 C99 0.982 . S
H72 C100 0.979 . S
H73 C100 0.980 . S
H74 C100 0.983 . S
H75 C99 0.979 . S
H76 C99 0.977 . S
C77 C65 1.453 . S
C77 H106 0.982 . S
C77 H107 0.979 . S
C77 H108 0.977 . S
C78 C65 1.684 . S
C78 H103 0.979 . S
C78 H104 0.980 . S
C78 H105 0.983 . S
C79 C80 1.391 . S
C79 C84 1.391 . S
C79 H109 0.948 . S
C80 C79 1.391 . S
C80 C81 1.391 . S
C81 C80 1.391 . S
C81 C82 1.392 . S
C81 H110 0.947 . S
C82 C81 1.392 . S
C82 C83 1.419 . S
C82 H111 0.948 . S
C83 C82 1.419 . S
C83 C84 1.391 . S
C83 C87 1.397 . S
C84 C79 1.391 . S
C84 C83 1.391 . S
C84 C85 1.399 . S
C85 C84 1.399 . S
C85 C86 1.396 . S
C85 C88 1.453 . S
C85 C89 1.684 . S
C86 C67 1.723 . S
C86 C85 1.396 . S
C86 C87 1.394 . S
C87 C83 1.397 . S
C87 C86 1.394 . S
C87 C97 1.723 . S
C88 C85 1.453 . S
C88 H112 0.982 . S
C88 H113 0.979 . S
C88 H114 0.977 . S
C89 C85 1.684 . S
C89 H115 0.979 . S
C89 H116 0.980 . S
C89 H117 0.983 . S
C90 H66 0.948 . S
C90 C91 1.391 . S
C90 C95 1.391 . S
C91 C90 1.391 . S
C91 C92 1.391 . S
C92 H69 0.947 . S
C92 C91 1.391 . S
C92 C93 1.392 . S
C93 H70 0.948 . S
C93 C92 1.392 . S
C93 C94 1.419 . S
C94 C93 1.419 . S
C94 C95 1.391 . S
C94 C98 1.397 . S
C95 C90 1.391 . S
C95 C94 1.391 . S
C95 C96 1.399 . S
C96 C95 1.399 . S
C96 C97 1.396 . S
C96 C99 1.453 . S
C96 C100 1.684 . S
C97 C87 1.723 . S
C97 C96 1.396 . S
C97 C98 1.394 . S
C98 C68 1.723 . S
C98 C94 1.397 . S
C98 C97 1.394 . S
C99 H71 0.982 . S
C99 H75 0.979 . S
C99 H76 0.977 . S
C99 C96 1.453 . S
C100 H72 0.979 . S
C100 H73 0.980 . S
C100 H74 0.983 . S
C100 C96 1.684 . S
H101 C119 0.948 . S
H102 C60 0.948 . S
H103 C78 0.979 . S
H104 C78 0.980 . S
H105 C78 0.983 . S
H106 C77 0.982 . S
H107 C77 0.979 . S
H108 C77 0.977 . S
H109 C79 0.948 . S
H110 C81 0.947 . S
H111 C82 0.948 . S
H112 C88 0.982 . S
H113 C88 0.979 . S
H114 C88 0.977 . S
H115 C89 0.979 . S
H116 C89 0.980 . S
H117 C89 0.983 . S
H118 C62 0.947 . S
C119 C62 1.392 . S
C119 C63 1.419 . S
C119 H101 0.948 . S
C120 C121 1.391 . S
C120 C124 1.391 . S
C120 H162 0.948 . S
C121 C120 1.391 . S
C121 C122 1.391 . S
C122 C121 1.391 . S
C122 H178 0.947 . S
C122 C179 1.392 . S
C123 C124 1.391 . S
C123 C127 1.397 . S
C123 C179 1.419 . S
C124 C120 1.391 . S
C124 C123 1.391 . S
C124 C125 1.399 . S
C125 C124 1.399 . S
C125 C128 1.396 . S
C125 C137 1.453 . S
C125 C138 1.684 . S
H126 C150 0.948 . S
C127 C123 1.397 . S
C127 C128 1.394 . S
C127 C146 1.723 . S
C128 C125 1.396 . S
C128 C127 1.394 . S
C128 C158 1.723 . S
H129 C152 0.947 . S
H130 C153 0.948 . S
H131 C159 0.982 . S
H132 C160 0.979 . S
H133 C160 0.980 . S
H134 C160 0.983 . S
H135 C159 0.979 . S
H136 C159 0.977 . S
C137 C125 1.453 . S
C137 H166 0.982 . S
C137 H167 0.979 . S
C137 H168 0.977 . S
C138 C125 1.684 . S
C138 H163 0.979 . S
C138 H164 0.980 . S
C138 H165 0.983 . S
C139 C140 1.391 . S
C139 C144 1.391 . S
C139 H169 0.948 . S
C140 C139 1.391 . S
C140 C141 1.391 . S
C141 C140 1.391 . S
C141 C142 1.392 . S
C141 H170 0.947 . S
C142 C141 1.392 . S
C142 C143 1.419 . S
C142 H171 0.948 . S
C143 C142 1.419 . S
C143 C144 1.391 . S
C143 C147 1.397 . S
C144 C139 1.391 . S
C144 C143 1.391 . S
C144 C145 1.399 . S
C145 C144 1.399 . S
C145 C146 1.396 . S
C145 C148 1.453 . S
C145 C149 1.684 . S
C146 C127 1.723 . S
C146 C145 1.396 . S
C146 C147 1.394 . S
C147 C143 1.397 . S
C147 C146 1.394 . S
C147 C157 1.723 . S
C148 C145 1.453 . S
C148 H172 0.982 . S
C148 H173 0.979 . S
C148 H174 0.977 . S
C149 C145 1.684 . S
C149 H175 0.979 . S
C149 H176 0.980 . S
C149 H177 0.983 . S
C150 H126 0.948 . S
C150 C151 1.391 . S
C150 C155 1.391 . S
C151 C150 1.391 . S
C151 C152 1.391 . S
C152 H129 0.947 . S
C152 C151 1.391 . S
C152 C153 1.392 . S
C153 H130 0.948 . S
C153 C152 1.392 . S
C153 C154 1.419 . S
C154 C153 1.419 . S
C154 C155 1.391 . S
C154 C158 1.397 . S
C155 C150 1.391 . S
C155 C154 1.391 . S
C155 C156 1.399 . S
C156 C155 1.399 . S
C156 C157 1.396 . S
C156 C159 1.453 . S
C156 C160 1.684 . S
C157 C147 1.723 . S
C157 C156 1.396 . S
C157 C158 1.394 . S
C158 C128 1.723 . S
C158 C154 1.397 . S
C158 C157 1.394 . S
C159 H131 0.982 . S
C159 H135 0.979 . S
C159 H136 0.977 . S
C159 C156 1.453 . S
C160 H132 0.979 . S
C160 H133 0.980 . S
C160 H134 0.983 . S
C160 C156 1.684 . S
H161 C179 0.948 . S
H162 C120 0.948 . S
H163 C138 0.979 . S
H164 C138 0.980 . S
H165 C138 0.983 . S
H166 C137 0.982 . S
H167 C137 0.979 . S
H168 C137 0.977 . S
H169 C139 0.948 . S
H170 C141 0.947 . S
H171 C142 0.948 . S
H172 C148 0.982 . S
H173 C148 0.979 . S
H174 C148 0.977 . S
H175 C149 0.979 . S
H176 C149 0.980 . S
H177 C149 0.983 . S
H178 C122 0.947 . S
C179 C122 1.392 . S
C179 C123 1.419 . S
C179 H161 0.948 . S
C180 C181 1.391 . S
C180 C184 1.391 . S
C180 H222 0.948 . S
C181 C180 1.391 . S
C181 C182 1.391 . S
C182 C181 1.391 . S
C182 H238 0.947 . S
C182 C239 1.392 . S
C183 C184 1.391 . S
C183 C187 1.397 . S
C183 C239 1.419 . S
C184 C180 1.391 . S
C184 C183 1.391 . S
C184 C185 1.399 . S
C185 C184 1.399 . S
C185 C188 1.396 . S
C185 C197 1.453 . S
C185 C198 1.684 . S
H186 C210 0.948 . S
C187 C183 1.397 . S
C187 C188 1.394 . S
C187 C206 1.723 . S
C188 C185 1.396 . S
C188 C187 1.394 . S
C188 C218 1.723 . S
H189 C212 0.947 . S
H190 C213 0.948 . S
H191 C219 0.982 . S
H192 C220 0.979 . S
H193 C220 0.980 . S
H194 C220 0.983 . S
H195 C219 0.979 . S
H196 C219 0.977 . S
C197 C185 1.453 . S
C197 H226 0.982 . S
C197 H227 0.979 . S
C197 H228 0.977 . S
C198 C185 1.684 . S
C198 H223 0.979 . S
C198 H224 0.980 . S
C198 H225 0.983 . S
C199 C200 1.391 . S
C199 C204 1.391 . S
C199 H229 0.948 . S
C200 C199 1.391 . S
C200 C201 1.391 . S
C201 C200 1.391 . S
C201 C202 1.392 . S
C201 H230 0.947 . S
C202 C201 1.392 . S
C202 C203 1.419 . S
C202 H231 0.948 . S
C203 C202 1.419 . S
C203 C204 1.391 . S
C203 C207 1.397 . S
C204 C199 1.391 . S
C204 C203 1.391 . S
C204 C205 1.399 . S
C205 C204 1.399 . S
C205 C206 1.396 . S
C205 C208 1.453 . S
C205 C209 1.684 . S
C206 C187 1.723 . S
C206 C205 1.396 . S
C206 C207 1.394 . S
C207 C203 1.397 . S
C207 C206 1.394 . S
C207 C217 1.723 . S
C208 C205 1.453 . S
C208 H232 0.982 . S
C208 H233 0.979 . S
C208 H234 0.977 . S
C209 C205 1.684 . S
C209 H235 0.979 . S
C209 H236 0.980 . S
C209 H237 0.983 . S
C210 H186 0.948 . S
C210 C211 1.391 . S
C210 C215 1.391 . S
C211 C210 1.391 . S
C211 C212 1.391 . S
C212 H189 0.947 . S
C212 C211 1.391 . S
C212 C213 1.392 . S
C213 H190 0.948 . S
C213 C212 1.392 . S
C213 C214 1.419 . S
C214 C213 1.419 . S
C214 C215 1.391 . S
C214 C218 1.397 . S
C215 C210 1.391 . S
C215 C214 1.391 . S
C215 C216 1.399 . S
C216 C215 1.399 . S
C216 C217 1.396 . S
C216 C219 1.453 . S
C216 C220 1.684 . S
C217 C207 1.723 . S
C217 C216 1.396 . S
C217 C218 1.394 . S
C218 C188 1.723 . S
C218 C214 1.397 . S
C218 C217 1.394 . S
C219 H191 0.982 . S
C219 H195 0.979 . S
C219 H196 0.977 . S
C219 C216 1.453 . S
C220 H192 0.979 . S
C220 H193 0.980 . S
C220 H194 0.983 . S
C220 C216 1.684 . S
H221 C239 0.948 . S
H222 C180 0.948 . S
H223 C198 0.979 . S
H224 C198 0.980 . S
H225 C198 0.983 . S
H226 C197 0.982 . S
H227 C197 0.979 . S
H228 C197 0.977 . S
H229 C199 0.948 . S
H230 C201 0.947 . S
H231 C202 0.948 . S
H232 C208 0.982 . S
H233 C208 0.979 . S
H234 C208 0.977 . S
H235 C209 0.979 . S
H236 C209 0.980 . S
H237 C209 0.983 . S
H238 C182 0.947 . S
C239 C182 1.392 . S
C239 C183 1.419 . S
C239 H221 0.948 . S
C240 C241 1.391 . S
C240 C244 1.391 . S
C240 H282 0.948 . S
C241 C240 1.391 . S
C241 C242 1.391 . S
C242 C241 1.391 . S
C242 H298 0.947 . S
C242 C299 1.392 . S
C243 C244 1.391 . S
C243 C247 1.397 . S
C243 C299 1.419 . S
C244 C240 1.391 . S
C244 C243 1.391 . S
C244 C245 1.399 . S
C245 C244 1.399 . S
C245 C248 1.396 . S
C245 C257 1.453 . S
C245 C258 1.684 . S
H246 C270 0.948 . S
C247 C243 1.397 . S
C247 C248 1.394 . S
C247 C266 1.723 . S
C248 C245 1.396 . S
C248 C247 1.394 . S
C248 C278 1.723 . S
H249 C272 0.947 . S
H250 C273 0.948 . S
H251 C279 0.982 . S
H252 C280 0.979 . S
H253 C280 0.980 . S
H254 C280 0.983 . S
H255 C279 0.979 . S
H256 C279 0.977 . S
C257 C245 1.453 . S
C257 H286 0.982 . S
C257 H287 0.979 . S
C257 H288 0.977 . S
C258 C245 1.684 . S
C258 H283 0.979 . S
C258 H284 0.980 . S
C258 H285 0.983 . S
C259 C260 1.391 . S
C259 C264 1.391 . S
C259 H289 0.948 . S
C260 C259 1.391 . S
C260 C261 1.391 . S
C261 C260 1.391 . S
C261 C262 1.392 . S
C261 H290 0.947 . S
C262 C261 1.392 . S
C262 C263 1.419 . S
C262 H291 0.948 . S
C263 C262 1.419 . S
C263 C264 1.391 . S
C263 C267 1.397 . S
C264 C259 1.391 . S
C264 C263 1.391 . S
C264 C265 1.399 . S
C265 C264 1.399 . S
C265 C266 1.396 . S
C265 C268 1.453 . S
C265 C269 1.684 . S
C266 C247 1.723 . S
C266 C265 1.396 . S
C266 C267 1.394 . S
C267 C263 1.397 . S
C267 C266 1.394 . S
C267 C277 1.723 . S
C268 C265 1.453 . S
C268 H292 0.982 . S
C268 H293 0.979 . S
C268 H294 0.977 . S
C269 C265 1.684 . S
C269 H295 0.979 . S
C269 H296 0.980 . S
C269 H297 0.983 . S
C270 H246 0.948 . S
C270 C271 1.391 . S
C270 C275 1.391 . S
C271 C270 1.391 . S
C271 C272 1.391 . S
C272 H249 0.947 . S
C272 C271 1.391 . S
C272 C273 1.392 . S
C273 H250 0.948 . S
C273 C272 1.392 . S
C273 C274 1.419 . S
C274 C273 1.419 . S
C274 C275 1.391 . S
C274 C278 1.397 . S
C275 C270 1.391 . S
C275 C274 1.391 . S
C275 C276 1.399 . S
C276 C275 1.399 . S
C276 C277 1.396 . S
C276 C279 1.453 . S
C276 C280 1.684 . S
C277 C267 1.723 . S
C277 C276 1.396 . S
C277 C278 1.394 . S
C278 C248 1.723 . S
C278 C274 1.397 . S
C278 C277 1.394 . S
C279 H251 0.982 . S
C279 H255 0.979 . S
C279 H256 0.977 . S
C279 C276 1.453 . S
C280 H252 0.979 . S
C280 H253 0.980 . S
C280 H254 0.983 . S
C280 C276 1.684 . S
H281 C299 0.948 . S
H282 C240 0.948 . S
H283 C258 0.979 . S
H284 C258 0.980 . S
H285 C258 0.983 . S
H286 C257 0.982 . S
H287 C257 0.979 . S
H288 C257 0.977 . S
H289 C259 0.948 . S
H290 C261 0.947 . S
H291 C262 0.948 . S
H292 C268 0.982 . S
H293 C268 0.979 . S
H294 C268 0.977 . S
H295 C269 0.979 . S
H296 C269 0.980 . S
H297 C269 0.983 . S
H298 C242 0.947 . S
C299 C242 1.392 . S
C299 C243 1.419 . S
C299 H281 0.948 . S
C300 C301 1.391 . S
C300 C304 1.391 . S
C300 H342 0.948 . S
C301 C300 1.391 . S
C301 C302 1.391 . S
C302 C301 1.391 . S
C302 H358 0.947 . S
C302 C359 1.392 . S
C303 C304 1.391 . S
C303 C307 1.397 . S
C303 C359 1.419 . S
C304 C300 1.391 . S
C304 C303 1.391 . S
C304 C305 1.399 . S
C305 C304 1.399 . S
C305 C308 1.396 . S
C305 C317 1.453 . S
C305 C318 1.684 . S
H306 C330 0.948 . S
C307 C303 1.397 . S
C307 C308 1.394 . S
C307 C326 1.723 . S
C308 C305 1.396 . S
C308 C307 1.394 . S
C308 C338 1.723 . S
H309 C332 0.947 . S
H310 C333 0.948 . S
H311 C339 0.982 . S
H312 C340 0.979 . S
H313 C340 0.980 . S
H314 C340 0.983 . S
H315 C339 0.979 . S
H316 C339 0.977 . S
C317 C305 1.453 . S
C317 H346 0.982 . S
C317 H347 0.979 . S
C317 H348 0.977 . S
C318 C305 1.684 . S
C318 H343 0.979 . S
C318 H344 0.980 . S
C318 H345 0.983 . S
C319 C320 1.391 . S
C319 C324 1.391 . S
C319 H349 0.948 . S
C320 C319 1.391 . S
C320 C321 1.391 . S
C321 C320 1.391 . S
C321 C322 1.392 . S
C321 H350 0.947 . S
C322 C321 1.392 . S
C322 C323 1.419 . S
C322 H351 0.948 . S
C323 C322 1.419 . S
C323 C324 1.391 . S
C323 C327 1.397 . S
C324 C319 1.391 . S
C324 C323 1.391 . S
C324 C325 1.399 . S
C325 C324 1.399 . S
C325 C326 1.396 . S
C325 C328 1.453 . S
C325 C329 1.684 . S
C326 C307 1.723 . S
C326 C325 1.396 . S
C326 C327 1.394 . S
C327 C323 1.397 . S
C327 C326 1.394 . S
C327 C337 1.723 . S
C328 C325 1.453 . S
C328 H352 0.982 . S
C328 H353 0.979 . S
C328 H354 0.977 . S
C329 C325 1.684 . S
C329 H355 0.979 . S
C329 H356 0.980 . S
C329 H357 0.983 . S
C330 H306 0.948 . S
C330 C331 1.391 . S
C330 C335 1.391 . S
C331 C330 1.391 . S
C331 C332 1.391 . S
C332 H309 0.947 . S
C332 C331 1.391 . S
C332 C333 1.392 . S
C333 H310 0.948 . S
C333 C332 1.392 . S
C333 C334 1.419 . S
C334 C333 1.419 . S
C334 C335 1.391 . S
C334 C338 1.397 . S
C335 C330 1.391 . S
C335 C334 1.391 . S
C335 C336 1.399 . S
C336 C335 1.399 . S
C336 C337 1.396 . S
C336 C339 1.453 . S
C336 C340 1.684 . S
C337 C327 1.723 . S
C337 C336 1.396 . S
C337 C338 1.394 . S
C338 C308 1.723 . S
C338 C334 1.397 . S
C338 C337 1.394 . S
C339 H311 0.982 . S
C339 H315 0.979 . S
C339 H316 0.977 . S
C339 C336 1.453 . S
C340 H312 0.979 . S
C340 H313 0.980 . S
C340 H314 0.983 . S
C340 C336 1.684 . S
H341 C359 0.948 . S
H342 C300 0.948 . S
H343 C318 0.979 . S
H344 C318 0.980 . S
H345 C318 0.983 . S
H346 C317 0.982 . S
H347 C317 0.979 . S
H348 C317 0.977 . S
H349 C319 0.948 . S
H350 C321 0.947 . S
H351 C322 0.948 . S
H352 C328 0.982 . S
H353 C328 0.979 . S
H354 C328 0.977 . S
H355 C329 0.979 . S
H356 C329 0.980 . S
H357 C329 0.983 . S
H358 C302 0.947 . S
C359 C302 1.392 . S
C359 C303 1.419 . S
C359 H341 0.948 . S
C360 C361 1.391 . S
C360 C364 1.391 . S
C360 H402 0.948 . S
C361 C360 1.391 . S
C361 C362 1.391 . S
C362 C361 1.391 . S
C362 H418 0.947 . S
C362 C419 1.392 . S
C363 C364 1.391 . S
C363 C367 1.397 . S
C363 C419 1.419 . S
C364 C360 1.391 . S
C364 C363 1.391 . S
C364 C365 1.399 . S
C365 C364 1.399 . S
C365 C368 1.396 . S
C365 C377 1.453 . S
C365 C378 1.684 . S
H366 C390 0.948 . S
C367 C363 1.397 . S
C367 C368 1.394 . S
C367 C386 1.723 . S
C368 C365 1.396 . S
C368 C367 1.394 . S
C368 C398 1.723 . S
H369 C392 0.947 . S
H370 C393 0.948 . S
H371 C399 0.982 . S
H372 C400 0.979 . S
H373 C400 0.980 . S
H374 C400 0.983 . S
H375 C399 0.979 . S
H376 C399 0.977 . S
C377 C365 1.453 . S
C377 H406 0.982 . S
C377 H407 0.979 . S
C377 H408 0.977 . S
C378 C365 1.684 . S
C378 H403 0.979 . S
C378 H404 0.980 . S
C378 H405 0.983 . S
C379 C380 1.391 . S
C379 C384 1.391 . S
C379 H409 0.948 . S
C380 C379 1.391 . S
C380 C381 1.391 . S
C381 C380 1.391 . S
C381 C382 1.392 . S
C381 H410 0.947 . S
C382 C381 1.392 . S
C382 C383 1.419 . S
C382 H411 0.948 . S
C383 C382 1.419 . S
C383 C384 1.391 . S
C383 C387 1.397 . S
C384 C379 1.391 . S
C384 C383 1.391 . S
C384 C385 1.399 . S
C385 C384 1.399 . S
C385 C386 1.396 . S
C385 C388 1.453 . S
C385 C389 1.684 . S
C386 C367 1.723 . S
C386 C385 1.396 . S
C386 C387 1.394 . S
C387 C383 1.397 . S
C387 C386 1.394 . S
C387 C397 1.723 . S
C388 C385 1.453 . S
C388 H412 0.982 . S
C388 H413 0.979 . S
C388 H414 0.977 . S
C389 C385 1.684 . S
C389 H415 0.979 . S
C389 H416 0.980 . S
C389 H417 0.983 . S
C390 H366 0.948 . S
C390 C391 1.391 . S
C390 C395 1.391 . S
C391 C390 1.391 . S
C391 C392 1.391 . S
C392 H369 0.947 . S
C392 C391 1.391 . S
C392 C393 1.392 . S
C393 H370 0.948 . S
C393 C392 1.392 . S
C393 C394 1.419 . S
C394 C393 1.419 . S
C394 C395 1.391 . S
C394 C398 1.397 . S
C395 C390 1.391 . S
C395 C394 1.391 . S
C395 C396 1.399 . S
C396 C395 1.399 . S
C396 C397 1.396 . S
C396 C399 1.453 . S
C396 C400 1.684 . S
C397 C387 1.723 . S
C397 C396 1.396 . S
C397 C398 1.394 . S
C398 C368 1.723 . S
C398 C394 1.397 . S
C398 C397 1.394 . S
C399 H371 0.982 . S
C399 H375 0.979 . S
C399 H376 0.977 . S
C399 C396 1.453 . S
C400 H372 0.979 . S
C400 H373 0.980 . S
C400 H374 0.983 . S
C400 C396 1.684 . S
H401 C419 0.948 . S
H402 C360 0.948 . S
H403 C378 0.979 . S
H404 C378 0.980 . S
H405 C378 0.983 . S
H406 C377 0.982 . S
H407 C377 0.979 . S
H408 C377 0.977 . S
H409 C379 0.948 . S
H410 C381 0.947 . S
H411 C382 0.948 . S
H412 C388 0.982 . S
H413 C388 0.979 . S
H414 C388 0.977 . S
H415 C389 0.979 . S
H416 C389 0.980 . S
H417 C389 0.983 . S
H418 C362 0.947 . S
C419 C362 1.392 . S
C419 C363 1.419 . S
C419 H401 0.948 . S
C420 C421 1.391 . S
C420 C424 1.391 . S
C420 H462 0.948 . S
C421 C420 1.391 . S
C421 C422 1.391 . S
C422 C421 1.391 . S
C422 H478 0.947 . S
C422 C479 1.392 . S
C423 C424 1.391 . S
C423 C427 1.397 . S
C423 C479 1.419 . S
C424 C420 1.391 . S
C424 C423 1.391 . S
C424 C425 1.399 . S
C425 C424 1.399 . S
C425 C428 1.396 . S
C425 C437 1.453 . S
C425 C438 1.684 . S
H426 C450 0.948 . S
C427 C423 1.397 . S
C427 C428 1.394 . S
C427 C446 1.723 . S
C428 C425 1.396 . S
C428 C427 1.394 . S
C428 C458 1.723 . S
H429 C452 0.947 . S
H430 C453 0.948 . S
H431 C459 0.982 . S
H432 C460 0.979 . S
H433 C460 0.980 . S
H434 C460 0.983 . S
H435 C459 0.979 . S
H436 C459 0.977 . S
C437 C425 1.453 . S
C437 H466 0.982 . S
C437 H467 0.979 . S
C437 H468 0.977 . S
C438 C425 1.684 . S
C438 H463 0.979 . S
C438 H464 0.980 . S
C438 H465 0.983 . S
C439 C440 1.391 . S
C439 C444 1.391 . S
C439 H469 0.948 . S
C440 C439 1.391 . S
C440 C441 1.391 . S
C441 C440 1.391 . S
C441 C442 1.392 . S
C441 H470 0.947 . S
C442 C441 1.392 . S
C442 C443 1.419 . S
C442 H471 0.948 . S
C443 C442 1.419 . S
C443 C444 1.391 . S
C443 C447 1.397 . S
C444 C439 1.391 . S
C444 C443 1.391 . S
C444 C445 1.399 . S
C445 C444 1.399 . S
C445 C446 1.396 . S
C445 C448 1.453 . S
C445 C449 1.684 . S
C446 C427 1.723 . S
C446 C445 1.396 . S
C446 C447 1.394 . S
C447 C443 1.397 . S
C447 C446 1.394 . S
C447 C457 1.723 . S
C448 C445 1.453 . S
C448 H472 0.982 . S
C448 H473 0.979 . S
C448 H474 0.977 . S
C449 C445 1.684 . S
C449 H475 0.979 . S
C449 H476 0.980 . S
C449 H477 0.983 . S
C450 H426 0.948 . S
C450 C451 1.391 . S
C450 C455 1.391 . S
C451 C450 1.391 . S
C451 C452 1.391 . S
C452 H429 0.947 . S
C452 C451 1.391 . S
C452 C453 1.392 . S
C453 H430 0.948 . S
C453 C452 1.392 . S
C453 C454 1.419 . S
C454 C453 1.419 . S
C454 C455 1.391 . S
C454 C458 1.397 . S
C455 C450 1.391 . S
C455 C454 1.391 . S
C455 C456 1.399 . S
C456 C455 1.399 . S
C456 C457 1.396 . S
C456 C459 1.453 . S
C456 C460 1.684 . S
C457 C447 1.723 . S
C457 C456 1.396 . S
C457 C458 1.394 . S
C458 C428 1.723 . S
C458 C454 1.397 . S
C458 C457 1.394 . S
C459 H431 0.982 . S
C459 H435 0.979 . S
C459 H436 0.977 . S
C459 C456 1.453 . S
C460 H432 0.979 . S
C460 H433 0.980 . S
C460 H434 0.983 . S
C460 C456 1.684 . S
H461 C479 0.948 . S
H462 C420 0.948 . S
H463 C438 0.979 . S
H464 C438 0.980 . S
H465 C438 0.983 . S
H466 C437 0.982 . S
H467 C437 0.979 . S
H468 C437 0.977 . S
H469 C439 0.948 . S
H470 C441 0.947 . S
H471 C442 0.948 . S
H472 C448 0.982 . S
H473 C448 0.979 . S
H474 C448 0.977 . S
H475 C449 0.979 . S
H476 C449 0.980 . S
H477 C449 0.983 . S
H478 C422 0.947 . S
C479 C422 1.392 . S
C479 C423 1.419 . S
C479 H461 0.948 . S
Pr480 C482 2.880 . S
Pr480 O500 2.562 . S
Pr480 O501 2.490 . S
Pr480 O502 2.695 1_665 S
Pr480 O503 2.502 1_665 S
Pr480 O505 2.437 1_655 S
Pr480 O508 2.436 . S
Pr480 O510 2.438 1_565 S
Pr481 C491 2.880 . S
Pr481 O502 2.436 . S
Pr481 O504 2.438 1_545 S
Pr481 O506 2.562 . S
Pr481 O507 2.490 . S
Pr481 O508 2.695 1_445 S
Pr481 O509 2.507 1_445 S
Pr481 O511 2.437 1_455 S
C482 Pr480 2.880 . S
C482 C483 1.491 . S
C482 O500 1.254 . S
C482 O501 1.225 . S
C483 C482 1.491 . S
C483 C484 1.392 . S
C483 C488 1.356 . S
C484 C483 1.392 . S
C484 C485 1.368 . S
C484 H512 0.929 . S
C485 C484 1.368 . S
C485 C486 1.386 . S
C485 H513 0.929 . S
C486 C485 1.386 . S
C486 C487 1.373 . S
C487 C486 1.373 . S
C487 C488 1.409 . S
C487 H514 0.931 . S
C488 C483 1.356 . S
C488 C487 1.409 . S
C488 H515 0.930 . S
C489 O502 1.270 . S
C489 O503 1.279 . S
C490 O504 1.267 . S
C490 O505 1.278 . S
C491 Pr481 2.880 . S
C491 C492 1.491 . S
C491 O506 1.254 . S
C491 O507 1.225 . S
C492 C491 1.491 . S
C492 C493 1.392 . S
C492 C497 1.356 . S
C493 C492 1.392 . S
C493 C494 1.368 . S
C493 H516 0.929 . S
C494 C493 1.368 . S
C494 C495 1.386 . S
C494 H517 0.929 . S
C495 C494 1.386 . S
C495 C496 1.373 . S
C496 C495 1.373 . S
C496 C497 1.409 . S
C496 H518 0.931 . S
C497 C492 1.356 . S
C497 C496 1.409 . S
C497 H519 0.930 . S
C498 O508 1.270 . S
C498 O509 1.264 . S
C499 O510 1.267 . S
C499 O511 1.278 . S
O500 Pr480 2.562 . S
O500 C482 1.254 . S
O501 Pr480 2.490 . S
O501 C482 1.225 . S
O502 Pr480 2.695 1_445 S
O502 Pr481 2.436 . S
O502 C489 1.270 . S
O503 Pr480 2.502 1_445 S
O503 C489 1.279 . S
O504 Pr481 2.438 1_565 S
O504 C490 1.267 . S
O505 Pr480 2.437 1_455 S
O505 C490 1.278 . S
O506 Pr481 2.562 . S
O506 C491 1.254 . S
O507 Pr481 2.490 . S
O507 C491 1.225 . S
O508 Pr480 2.436 . S
O508 Pr481 2.695 1_665 S
O508 C498 1.270 . S
O509 Pr481 2.507 1_665 S
O509 C498 1.264 . S
O510 Pr480 2.438 1_545 S
O510 C499 1.267 . S
O511 Pr481 2.437 1_655 S
O511 C499 1.278 . S
H512 C484 0.929 . S
H513 C485 0.929 . S
H514 C487 0.931 . S
H515 C488 0.930 . S
H516 C493 0.929 . S
H517 C494 0.929 . S
H518 C496 0.931 . S
H519 C497 0.930 . S
Pr520 C522 2.877 1_556 S
Pr520 O540 2.559 1_556 S
Pr520 O541 2.489 1_556 S
Pr520 O542 2.697 . S
Pr520 O543 2.515 . S
Pr520 O545 2.435 1_556 S
Pr520 O548 2.434 1_546 S
Pr520 O550 2.441 1_545 S
Pr521 C531 2.869 1_554 S
Pr521 O542 2.430 1_564 S
Pr521 O544 2.449 1_565 S
Pr521 O546 2.548 1_554 S
Pr521 O547 2.484 1_554 S
Pr521 O548 2.704 . S
Pr521 O549 2.523 . S
Pr521 O551 2.430 1_554 S
C522 Pr520 2.877 1_554 S
C522 C523 1.491 . S
C522 O540 1.254 . S
C522 O541 1.225 . S
C523 C522 1.491 . S
C523 C524 1.392 . S
C523 C528 1.356 . S
C524 C523 1.392 . S
C524 C525 1.368 . S
C524 H552 0.929 . S
C525 C524 1.368 . S
C525 C526 1.386 . S
C525 H553 0.929 . S
C526 C525 1.386 . S
C526 C527 1.373 . S
C527 C526 1.373 . S
C527 C528 1.409 . S
C527 H554 0.931 . S
C528 C523 1.356 . S
C528 C527 1.409 . S
C528 H555 0.930 . S
C529 O542 1.270 . S
C529 O543 1.248 . S
C530 O544 1.267 . S
C530 O545 1.278 . S
C531 Pr521 2.869 1_556 S
C531 C532 1.491 . S
C531 O546 1.254 . S
C531 O547 1.225 . S
C532 C531 1.491 . S
C532 C533 1.392 . S
C532 C537 1.356 . S
C533 C532 1.392 . S
C533 C534 1.368 . S
C533 H556 0.929 . S
C534 C533 1.368 . S
C534 C535 1.386 . S
C534 H557 0.929 . S
C535 C534 1.386 . S
C535 C536 1.373 . S
C536 C535 1.373 . S
C536 C537 1.409 . S
C536 H558 0.931 . S
C537 C532 1.356 . S
C537 C536 1.409 . S
C537 H559 0.930 . S
C538 O548 1.270 . S
C538 O549 1.248 . S
C539 O550 1.267 . S
C539 O551 1.278 . S
O540 Pr520 2.559 1_554 S
O540 C522 1.254 . S
O541 Pr520 2.489 1_554 S
O541 C522 1.225 . S
O542 Pr520 2.697 . S
O542 Pr521 2.430 1_546 S
O542 C529 1.270 . S
O543 Pr520 2.515 . S
O543 C529 1.248 . S
O544 Pr521 2.449 1_545 S
O544 C530 1.267 . S
O545 Pr520 2.435 1_554 S
O545 C530 1.278 . S
O546 Pr521 2.548 1_556 S
O546 C531 1.254 . S
O547 Pr521 2.484 1_556 S
O547 C531 1.225 . S
O548 Pr520 2.434 1_564 S
O548 Pr521 2.704 . S
O548 C538 1.270 . S
O549 Pr521 2.523 . S
O549 C538 1.248 . S
O550 Pr520 2.441 1_565 S
O550 C539 1.267 . S
O551 Pr521 2.430 1_556 S
O551 C539 1.278 . S
H552 C524 0.929 . S
H553 C525 0.929 . S
H554 C527 0.931 . S
H555 C528 0.930 . S
H556 C533 0.929 . S
H557 C534 0.929 . S
H558 C536 0.931 . S
H559 C537 0.930 . S
Pr560 C562 2.880 . S
Pr560 O580 2.562 . S
Pr560 O581 2.490 . S
Pr560 O582 2.695 . S
Pr560 O583 2.512 . S
Pr560 O585 2.437 . S
Pr560 O588 2.436 . S
Pr560 O590 2.438 . S
Pr561 C571 2.880 . S
Pr561 O582 2.436 . S
Pr561 O584 2.438 . S
Pr561 O586 2.562 . S
Pr561 O587 2.490 . S
Pr561 O588 2.695 . S
Pr561 O589 2.512 . S
Pr561 O591 2.437 . S
C562 Pr560 2.880 . S
C562 C563 1.491 . S
C562 O580 1.254 . S
C562 O581 1.225 . S
C563 C562 1.491 . S
C563 C564 1.392 . S
C563 C568 1.356 . S
C564 C563 1.392 . S
C564 C565 1.368 . S
C564 H592 0.929 . S
C565 C564 1.368 . S
C565 C566 1.386 . S
C565 H593 0.929 . S
C566 C565 1.386 . S
C566 C567 1.373 . S
C567 C566 1.373 . S
C567 C568 1.409 . S
C567 H594 0.931 . S
C568 C563 1.356 . S
C568 C567 1.409 . S
C568 H595 0.930 . S
C569 O582 1.270 . S
C569 O583 1.248 . S
C570 O584 1.267 . S
C570 O585 1.278 . S
C571 Pr561 2.880 . S
C571 C572 1.491 . S
C571 O586 1.254 . S
C571 O587 1.225 . S
C572 C571 1.491 . S
C572 C573 1.392 . S
C572 C577 1.356 . S
C573 C572 1.392 . S
C573 C574 1.368 . S
C573 H596 0.929 . S
C574 C573 1.368 . S
C574 C575 1.386 . S
C574 H597 0.929 . S
C575 C574 1.386 . S
C575 C576 1.373 . S
C576 C575 1.373 . S
C576 C577 1.409 . S
C576 H598 0.931 . S
C577 C572 1.356 . S
C577 C576 1.409 . S
C577 H599 0.930 . S
C578 O588 1.270 . S
C578 O589 1.248 . S
C579 O590 1.267 . S
C579 O591 1.278 . S
O580 Pr560 2.562 . S
O580 C562 1.254 . S
O581 Pr560 2.490 . S
O581 C562 1.225 . S
O582 Pr560 2.695 . S
O582 Pr561 2.436 . S
O582 C569 1.270 . S
O583 Pr560 2.512 . S
O583 C569 1.248 . S
O584 Pr561 2.438 . S
O584 C570 1.267 . S
O585 Pr560 2.437 . S
O585 C570 1.278 . S
O586 Pr561 2.562 . S
O586 C571 1.254 . S
O587 Pr561 2.490 . S
O587 C571 1.225 . S
O588 Pr560 2.436 . S
O588 Pr561 2.695 . S
O588 C578 1.270 . S
O589 Pr561 2.512 . S
O589 C578 1.248 . S
O590 Pr560 2.438 . S
O590 C579 1.267 . S
O591 Pr561 2.437 . S
O591 C579 1.278 . S
H592 C564 0.929 . S
H593 C565 0.929 . S
H594 C567 0.931 . S
H595 C568 0.930 . S
H596 C573 0.929 . S
H597 C574 0.929 . S
H598 C576 0.931 . S
H599 C577 0.930 . S
Pr600 C602 2.880 . S
Pr600 O620 2.562 . S
Pr600 O621 2.490 . S
Pr600 O622 2.695 1_656 S
Pr600 O623 2.512 1_656 S
Pr600 O625 2.437 1_556 S
Pr600 O628 2.436 . S
Pr600 O630 2.438 1_655 S
Pr601 C611 2.880 . S
Pr601 O622 2.436 . S
Pr601 O624 2.438 1_455 S
Pr601 O626 2.562 . S
Pr601 O627 2.490 . S
Pr601 O628 2.695 1_454 S
Pr601 O629 2.512 1_454 S
Pr601 O631 2.437 1_554 S
C602 Pr600 2.880 . S
C602 C603 1.491 . S
C602 O620 1.254 . S
C602 O621 1.225 . S
C603 C602 1.491 . S
C603 C604 1.392 . S
C603 C608 1.356 . S
C604 C603 1.392 . S
C604 C605 1.368 . S
C604 H632 0.929 . S
C605 C604 1.368 . S
C605 C606 1.386 . S
C605 H633 0.929 . S
C606 C605 1.386 . S
C606 C607 1.373 . S
C607 C606 1.373 . S
C607 C608 1.409 . S
C607 H634 0.931 . S
C608 C603 1.356 . S
C608 C607 1.409 . S
C608 H635 0.930 . S
C609 O622 1.270 . S
C609 O623 1.248 . S
C610 O624 1.267 . S
C610 O625 1.278 . S
C611 Pr601 2.880 . S
C611 C612 1.491 . S
C611 O626 1.254 . S
C611 O627 1.225 . S
C612 C611 1.491 . S
C612 C613 1.392 . S
C612 C617 1.356 . S
C613 C612 1.392 . S
C613 C614 1.368 . S
C613 H636 0.929 . S
C614 C613 1.368 . S
C614 C615 1.386 . S
C614 H637 0.929 . S
C615 C614 1.386 . S
C615 C616 1.373 . S
C616 C615 1.373 . S
C616 C617 1.409 . S
C616 H638 0.931 . S
C617 C612 1.356 . S
C617 C616 1.409 . S
C617 H639 0.930 . S
C618 O628 1.270 . S
C618 O629 1.248 . S
C619 O630 1.267 . S
C619 O631 1.278 . S
O620 Pr600 2.562 . S
O620 C602 1.254 . S
O621 Pr600 2.490 . S
O621 C602 1.225 . S
O622 Pr600 2.695 1_454 S
O622 Pr601 2.436 . S
O622 C609 1.270 . S
O623 Pr600 2.512 1_454 S
O623 C609 1.248 . S
O624 Pr601 2.438 1_655 S
O624 C610 1.267 . S
O625 Pr600 2.437 1_554 S
O625 C610 1.278 . S
O626 Pr601 2.562 . S
O626 C611 1.254 . S
O627 Pr601 2.490 . S
O627 C611 1.225 . S
O628 Pr600 2.436 . S
O628 Pr601 2.695 1_656 S
O628 C618 1.270 . S
O629 Pr601 2.512 1_656 S
O629 C618 1.248 . S
O630 Pr600 2.438 1_455 S
O630 C619 1.267 . S
O631 Pr601 2.437 1_556 S
O631 C619 1.278 . S
H632 C604 0.929 . S
H633 C605 0.929 . S
H634 C607 0.931 . S
H635 C608 0.930 . S
H636 C613 0.929 . S
H637 C614 0.929 . S
H638 C616 0.931 . S
H639 C617 0.930 . S
H640 C646 0.930 . S
H641 C650 0.930 . S
H642 C655 0.929 . S
H643 C653 0.929 . S
H644 C648 0.929 . S
H645 C654 0.929 . S
C646 H640 0.930 . S
C646 C647 1.367 . S
C646 C654 1.378 . S
C647 C646 1.367 . S
C647 C655 1.433 . S
C648 H644 0.929 . S
C648 C650 1.378 . S
C648 C652 1.350 . S
C649 C652 1.463 . S
C649 C654 1.350 . S
C649 N657 1.427 . S
C650 H641 0.930 . S
C650 C648 1.378 . S
C650 C651 1.367 . S
C651 C650 1.367 . S
C651 C653 1.433 . S
C652 C648 1.350 . S
C652 C649 1.463 . S
C652 N656 1.427 . S
C653 H643 0.929 . S
C653 C651 1.433 . S
C653 N656 1.384 . S
C654 H645 0.929 . S
C654 C646 1.378 . S
C654 C649 1.350 . S
C655 H642 0.929 . S
C655 C647 1.433 . S
C655 N657 1.384 . S
N656 C652 1.427 . S
N656 C653 1.384 . S
N657 C649 1.427 . S
N657 C655 1.384 . S
H658 C664 0.930 . S
H659 C668 0.930 . S
H660 C673 0.929 . S
H661 C671 0.929 . S
H662 C666 0.929 . S
H663 C672 0.929 . S
C664 H658 0.930 . S
C664 C665 1.367 . S
C664 C672 1.378 . S
C665 C664 1.367 . S
C665 C673 1.433 . S
C666 H662 0.929 . S
C666 C668 1.378 . S
C666 C670 1.350 . S
C667 C670 1.463 . S
C667 C672 1.350 . S
C667 N675 1.427 . S
C668 H659 0.930 . S
C668 C666 1.378 . S
C668 C669 1.367 . S
C669 C668 1.367 . S
C669 C671 1.433 . S
C670 C666 1.350 . S
C670 C667 1.463 . S
C670 N674 1.427 . S
C671 H661 0.929 . S
C671 C669 1.433 . S
C671 N674 1.384 . S
C672 H663 0.929 . S
C672 C664 1.378 . S
C672 C667 1.350 . S
C673 H660 0.929 . S
C673 C665 1.433 . S
C673 N675 1.384 . S
N674 C670 1.427 . S
N674 C671 1.384 . S
N675 C667 1.427 . S
N675 C673 1.384 . S
H676 C682 0.930 . S
H677 C686 0.930 . S
H678 C691 0.929 . S
H679 C689 0.929 . S
H680 C684 0.929 . S
H681 C690 0.929 . S
C682 H676 0.930 . S
C682 C683 1.367 . S
C682 C690 1.378 . S
C683 C682 1.367 . S
C683 C691 1.433 . S
C684 H680 0.929 . S
C684 C686 1.378 . S
C684 C688 1.350 . S
C685 C688 1.463 . S
C685 C690 1.350 . S
C685 N693 1.427 . S
C686 H677 0.930 . S
C686 C684 1.378 . S
C686 C687 1.367 . S
C687 C686 1.367 . S
C687 C689 1.433 . S
C688 C684 1.350 . S
C688 C685 1.463 . S
C688 N692 1.427 . S
C689 H679 0.929 . S
C689 C687 1.433 . S
C689 N692 1.384 . S
C690 H681 0.929 . S
C690 C682 1.378 . S
C690 C685 1.350 . S
C691 H678 0.929 . S
C691 C683 1.433 . S
C691 N693 1.384 . S
N692 C688 1.427 . S
N692 C689 1.384 . S
N693 C685 1.427 . S
N693 C691 1.384 . S
H694 C700 0.930 . S
H695 C704 0.930 . S
H696 C709 0.929 . S
H697 C707 0.929 . S
H698 C702 0.929 . S
H699 C708 0.929 . S
C700 H694 0.930 . S
C700 C701 1.367 . S
C700 C708 1.378 . S
C701 C700 1.367 . S
C701 C709 1.433 . S
C702 H698 0.929 . S
C702 C704 1.378 . S
C702 C706 1.350 . S
C703 C706 1.463 . S
C703 C708 1.350 . S
C703 N711 1.427 . S
C704 H695 0.930 . S
C704 C702 1.378 . S
C704 C705 1.367 . S
C705 C704 1.367 . S
C705 C707 1.433 . S
C706 C702 1.350 . S
C706 C703 1.463 . S
C706 N710 1.427 . S
C707 H697 0.929 . S
C707 C705 1.433 . S
C707 N710 1.384 . S
C708 H699 0.929 . S
C708 C700 1.378 . S
C708 C703 1.350 . S
C709 H696 0.929 . S
C709 C701 1.433 . S
C709 N711 1.384 . S
N710 C706 1.427 . S
N710 C707 1.384 . S
N711 C703 1.427 . S
N711 C709 1.384 . S
H712 C718 0.930 . S
H713 C722 0.930 . S
H714 C727 0.929 . S
H715 C725 0.929 . S
H716 C720 0.929 . S
H717 C726 0.929 . S
C718 H712 0.930 . S
C718 C719 1.367 . S
C718 C726 1.378 . S
C719 C718 1.367 . S
C719 C727 1.433 . S
C720 H716 0.929 . S
C720 C722 1.378 . S
C720 C724 1.350 . S
C721 C724 1.463 . S
C721 C726 1.350 . S
C721 N729 1.427 . S
C722 H713 0.930 . S
C722 C720 1.378 . S
C722 C723 1.367 . S
C723 C722 1.367 . S
C723 C725 1.433 . S
C724 C720 1.350 . S
C724 C721 1.463 . S
C724 N728 1.427 . S
C725 H715 0.929 . S
C725 C723 1.433 . S
C725 N728 1.384 . S
C726 H717 0.929 . S
C726 C718 1.378 . S
C726 C721 1.350 . S
C727 H714 0.929 . S
C727 C719 1.433 . S
C727 N729 1.384 . S
N728 C724 1.427 . S
N728 C725 1.384 . S
N729 C721 1.427 . S
N729 C727 1.384 . S
H730 C736 0.930 . S
H731 C740 0.930 . S
H732 C745 0.929 . S
H733 C743 0.929 . S
H734 C738 0.929 . S
H735 C744 0.929 . S
C736 H730 0.930 . S
C736 C737 1.367 . S
C736 C744 1.378 . S
C737 C736 1.367 . S
C737 C745 1.433 . S
C738 H734 0.929 . S
C738 C740 1.378 . S
C738 C742 1.350 . S
C739 C742 1.463 . S
C739 C744 1.350 . S
C739 N747 1.427 . S
C740 H731 0.930 . S
C740 C738 1.378 . S
C740 C741 1.367 . S
C741 C740 1.367 . S
C741 C743 1.433 . S
C742 C738 1.350 . S
C742 C739 1.463 . S
C742 N746 1.427 . S
C743 H733 0.929 . S
C743 C741 1.433 . S
C743 N746 1.384 . S
C744 H735 0.929 . S
C744 C736 1.378 . S
C744 C739 1.350 . S
C745 H732 0.929 . S
C745 C737 1.433 . S
C745 N747 1.384 . S
N746 C742 1.427 . S
N746 C743 1.384 . S
N747 C739 1.427 . S
N747 C745 1.384 . S
H748 C754 0.930 . S
H749 C758 0.930 . S
H750 C763 0.929 . S
H751 C761 0.929 . S
H752 C756 0.929 . S
H753 C762 0.929 . S
C754 H748 0.930 . S
C754 C755 1.367 . S
C754 C762 1.378 . S
C755 C754 1.367 . S
C755 C763 1.433 . S
C756 H752 0.929 . S
C756 C758 1.378 . S
C756 C760 1.350 . S
C757 C760 1.463 . S
C757 C762 1.350 . S
C757 N765 1.427 . S
C758 H749 0.930 . S
C758 C756 1.378 . S
C758 C759 1.367 . S
C759 C758 1.367 . S
C759 C761 1.433 . S
C760 C756 1.350 . S
C760 C757 1.463 . S
C760 N764 1.427 . S
C761 H751 0.929 . S
C761 C759 1.433 . S
C761 N764 1.384 . S
C762 H753 0.929 . S
C762 C754 1.378 . S
C762 C757 1.350 . S
C763 H750 0.929 . S
C763 C755 1.433 . S
C763 N765 1.384 . S
N764 C760 1.427 . S
N764 C761 1.384 . S
N765 C757 1.427 . S
N765 C763 1.384 . S
H766 C772 0.930 . S
H767 C776 0.930 . S
H768 C781 0.929 . S
H769 C779 0.929 . S
H770 C774 0.929 . S
H771 C780 0.929 . S
C772 H766 0.930 . S
C772 C773 1.367 . S
C772 C780 1.378 . S
C773 C772 1.367 . S
C773 C781 1.433 . S
C774 H770 0.929 . S
C774 C776 1.378 . S
C774 C778 1.350 . S
C775 C778 1.463 . S
C775 C780 1.350 . S
C775 N783 1.427 . S
C776 H767 0.930 . S
C776 C774 1.378 . S
C776 C777 1.367 . S
C777 C776 1.367 . S
C777 C779 1.433 . S
C778 C774 1.350 . S
C778 C775 1.463 . S
C778 N782 1.427 . S
C779 H769 0.929 . S
C779 C777 1.433 . S
C779 N782 1.384 . S
C780 H771 0.929 . S
C780 C772 1.378 . S
C780 C775 1.350 . S
C781 H768 0.929 . S
C781 C773 1.433 . S
C781 N783 1.384 . S
N782 C778 1.427 . S
N782 C779 1.384 . S
N783 C775 1.427 . S
N783 C781 1.384 . S
H784 C790 0.930 . S
H785 C794 0.930 . S
H786 C799 0.929 . S
H787 C797 0.929 . S
H788 C792 0.929 . S
H789 C798 0.929 . S
C790 H784 0.930 . S
C790 C791 1.367 . S
C790 C798 1.378 . S
C791 C790 1.367 . S
C791 C799 1.433 . S
C792 H788 0.929 . S
C792 C794 1.378 . S
C792 C796 1.350 . S
C793 C796 1.463 . S
C793 C798 1.350 . S
C793 N801 1.427 . S
C794 H785 0.930 . S
C794 C792 1.378 . S
C794 C795 1.367 . S
C795 C794 1.367 . S
C795 C797 1.433 . S
C796 C792 1.350 . S
C796 C793 1.463 . S
C796 N800 1.427 . S
C797 H787 0.929 . S
C797 C795 1.433 . S
C797 N800 1.384 . S
C798 H789 0.929 . S
C798 C790 1.378 . S
C798 C793 1.350 . S
C799 H786 0.929 . S
C799 C791 1.433 . S
C799 N801 1.384 . S
N800 C796 1.427 . S
N800 C797 1.384 . S
N801 C793 1.427 . S
N801 C799 1.384 . S
H802 C808 0.930 . S
H803 C812 0.930 . S
H804 C817 0.929 . S
H805 C815 0.929 . S
H806 C810 0.929 . S
H807 C816 0.929 . S
C808 H802 0.930 . S
C808 C809 1.367 . S
C808 C816 1.378 . S
C809 C808 1.367 . S
C809 C817 1.433 . S
C810 H806 0.929 . S
C810 C812 1.378 . S
C810 C814 1.350 . S
C811 C814 1.463 . S
C811 C816 1.350 . S
C811 N819 1.427 . S
C812 H803 0.930 . S
C812 C810 1.378 . S
C812 C813 1.367 . S
C813 C812 1.367 . S
C813 C815 1.433 . S
C814 C810 1.350 . S
C814 C811 1.463 . S
C814 N818 1.427 . S
C815 H805 0.929 . S
C815 C813 1.433 . S
C815 N818 1.384 . S
C816 H807 0.929 . S
C816 C808 1.378 . S
C816 C811 1.350 . S
C817 H804 0.929 . S
C817 C809 1.433 . S
C817 N819 1.384 . S
N818 C814 1.427 . S
N818 C815 1.384 . S
N819 C811 1.427 . S
N819 C817 1.384 . S
H820 C826 0.930 . S
H821 C830 0.930 . S
H822 C835 0.929 . S
H823 C833 0.929 . S
H824 C828 0.929 . S
H825 C834 0.929 . S
C826 H820 0.930 . S
C826 C827 1.367 . S
C826 C834 1.378 . S
C827 C826 1.367 . S
C827 C835 1.433 . S
C828 H824 0.929 . S
C828 C830 1.378 . S
C828 C832 1.350 . S
C829 C832 1.463 . S
C829 C834 1.350 . S
C829 N837 1.427 . S
C830 H821 0.930 . S
C830 C828 1.378 . S
C830 C831 1.367 . S
C831 C830 1.367 . S
C831 C833 1.433 . S
C832 C828 1.350 . S
C832 C829 1.463 . S
C832 N836 1.427 . S
C833 H823 0.929 . S
C833 C831 1.433 . S
C833 N836 1.384 . S
C834 H825 0.929 . S
C834 C826 1.378 . S
C834 C829 1.350 . S
C835 H822 0.929 . S
C835 C827 1.433 . S
C835 N837 1.384 . S
N836 C832 1.427 . S
N836 C833 1.384 . S
N837 C829 1.427 . S
N837 C835 1.384 . S
H838 C844 0.930 . S
H839 C848 0.930 . S
H840 C853 0.929 . S
H841 C851 0.929 . S
H842 C846 0.929 . S
H843 C852 0.929 . S
C844 H838 0.930 . S
C844 C845 1.367 . S
C844 C852 1.378 . S
C845 C844 1.367 . S
C845 C853 1.433 . S
C846 H842 0.929 . S
C846 C848 1.378 . S
C846 C850 1.350 . S
C847 C850 1.463 . S
C847 C852 1.350 . S
C847 N855 1.427 . S
C848 H839 0.930 . S
C848 C846 1.378 . S
C848 C849 1.367 . S
C849 C848 1.367 . S
C849 C851 1.433 . S
C850 C846 1.350 . S
C850 C847 1.463 . S
C850 N854 1.427 . S
C851 H841 0.929 . S
C851 C849 1.433 . S
C851 N854 1.384 . S
C852 H843 0.929 . S
C852 C844 1.378 . S
C852 C847 1.350 . S
C853 H840 0.929 . S
C853 C845 1.433 . S
C853 N855 1.384 . S
N854 C850 1.427 . S
N854 C851 1.384 . S
N855 C847 1.427 . S
N855 C853 1.384 . S
H856 C862 0.930 . S
H857 C866 0.930 . S
H858 C871 0.929 . S
H859 C869 0.929 . S
H860 C864 0.929 . S
H861 C870 0.929 . S
C862 H856 0.930 . S
C862 C863 1.367 . S
C862 C870 1.378 . S
C863 C862 1.367 . S
C863 C871 1.433 . S
C864 H860 0.929 . S
C864 C866 1.378 . S
C864 C868 1.350 . S
C865 C868 1.463 . S
C865 C870 1.350 . S
C865 N873 1.427 . S
C866 H857 0.930 . S
C866 C864 1.378 . S
C866 C867 1.367 . S
C867 C866 1.367 . S
C867 C869 1.433 . S
C868 C864 1.350 . S
C868 C865 1.463 . S
C868 N872 1.427 . S
C869 H859 0.929 . S
C869 C867 1.433 . S
C869 N872 1.384 . S
C870 H861 0.929 . S
C870 C862 1.378 . S
C870 C865 1.350 . S
C871 H858 0.929 . S
C871 C863 1.433 . S
C871 N873 1.384 . S
N872 C868 1.427 . S
N872 C869 1.384 . S
N873 C865 1.427 . S
N873 C871 1.384 . S
H874 C880 0.930 . S
H875 C884 0.930 . S
H876 C889 0.929 . S
H877 C887 0.929 . S
H878 C882 0.929 . S
H879 C888 0.929 . S
C880 H874 0.930 . S
C880 C881 1.367 . S
C880 C888 1.378 . S
C881 C880 1.367 . S
C881 C889 1.433 . S
C882 H878 0.929 . S
C882 C884 1.378 . S
C882 C886 1.350 . S
C883 C886 1.463 . S
C883 C888 1.350 . S
C883 N891 1.427 . S
C884 H875 0.930 . S
C884 C882 1.378 . S
C884 C885 1.367 . S
C885 C884 1.367 . S
C885 C887 1.433 . S
C886 C882 1.350 . S
C886 C883 1.463 . S
C886 N890 1.427 . S
C887 H877 0.929 . S
C887 C885 1.433 . S
C887 N890 1.384 . S
C888 H879 0.929 . S
C888 C880 1.378 . S
C888 C883 1.350 . S
C889 H876 0.929 . S
C889 C881 1.433 . S
C889 N891 1.384 . S
N890 C886 1.427 . S
N890 C887 1.384 . S
N891 C883 1.427 . S
N891 C889 1.384 . S
H892 C898 0.930 . S
H893 C902 0.930 . S
H894 C907 0.929 . S
H895 C905 0.929 . S
H896 C900 0.929 . S
H897 C906 0.929 . S
C898 H892 0.930 . S
C898 C899 1.367 . S
C898 C906 1.378 . S
C899 C898 1.367 . S
C899 C907 1.433 . S
C900 H896 0.929 . S
C900 C902 1.378 . S
C900 C904 1.350 . S
C901 C904 1.463 . S
C901 C906 1.350 . S
C901 N909 1.427 . S
C902 H893 0.930 . S
C902 C900 1.378 . S
C902 C903 1.367 . S
C903 C902 1.367 . S
C903 C905 1.433 . S
C904 C900 1.350 . S
C904 C901 1.463 . S
C904 N908 1.427 . S
C905 H895 0.929 . S
C905 C903 1.433 . S
C905 N908 1.384 . S
C906 H897 0.929 . S
C906 C898 1.378 . S
C906 C901 1.350 . S
C907 H894 0.929 . S
C907 C899 1.433 . S
C907 N909 1.384 . S
N908 C904 1.427 . S
N908 C905 1.384 . S
N909 C901 1.427 . S
N909 C907 1.384 . S
H910 C916 0.930 . S
H911 C920 0.930 . S
H912 C925 0.929 . S
H913 C923 0.929 . S
H914 C918 0.929 . S
H915 C924 0.929 . S
C916 H910 0.930 . S
C916 C917 1.367 . S
C916 C924 1.378 . S
C917 C916 1.367 . S
C917 C925 1.433 . S
C918 H914 0.929 . S
C918 C920 1.378 . S
C918 C922 1.350 . S
C919 C922 1.463 . S
C919 C924 1.350 . S
C919 N927 1.427 . S
C920 H911 0.930 . S
C920 C918 1.378 . S
C920 C921 1.367 . S
C921 C920 1.367 . S
C921 C923 1.433 . S
C922 C918 1.350 . S
C922 C919 1.463 . S
C922 N926 1.427 . S
C923 H913 0.929 . S
C923 C921 1.433 . S
C923 N926 1.384 . S
C924 H915 0.929 . S
C924 C916 1.378 . S
C924 C919 1.350 . S
C925 H912 0.929 . S
C925 C917 1.433 . S
C925 N927 1.384 . S
N926 C922 1.427 . S
N926 C923 1.384 . S
N927 C919 1.427 . S
N927 C925 1.384 . S
H928 C934 0.930 . S
H929 C938 0.930 . S
H930 C943 0.929 . S
H931 C941 0.929 . S
H932 C936 0.929 . S
H933 C942 0.929 . S
C934 H928 0.930 . S
C934 C935 1.367 . S
C934 C942 1.378 . S
C935 C934 1.367 . S
C935 C943 1.433 . S
C936 H932 0.929 . S
C936 C938 1.378 . S
C936 C940 1.350 . S
C937 C940 1.463 . S
C937 C942 1.350 . S
C937 N945 1.427 . S
C938 H929 0.930 . S
C938 C936 1.378 . S
C938 C939 1.367 . S
C939 C938 1.367 . S
C939 C941 1.433 . S
C940 C936 1.350 . S
C940 C937 1.463 . S
C940 N944 1.427 . S
C941 H931 0.929 . S
C941 C939 1.433 . S
C941 N944 1.384 . S
C942 H933 0.929 . S
C942 C934 1.378 . S
C942 C937 1.350 . S
C943 H930 0.929 . S
C943 C935 1.433 . S
C943 N945 1.384 . S
N944 C940 1.427 . S
N944 C941 1.384 . S
N945 C937 1.427 . S
N945 C943 1.384 . S
H946 C952 0.930 . S
H947 C956 0.930 . S
H948 C961 0.929 . S
H949 C959 0.929 . S
H950 C954 0.929 . S
H951 C960 0.929 . S
C952 H946 0.930 . S
C952 C953 1.367 . S
C952 C960 1.378 . S
C953 C952 1.367 . S
C953 C961 1.433 . S
C954 H950 0.929 . S
C954 C956 1.378 . S
C954 C958 1.350 . S
C955 C958 1.463 . S
C955 C960 1.350 . S
C955 N963 1.427 . S
C956 H947 0.930 . S
C956 C954 1.378 . S
C956 C957 1.367 . S
C957 C956 1.367 . S
C957 C959 1.433 . S
C958 C954 1.350 . S
C958 C955 1.463 . S
C958 N962 1.427 . S
C959 H949 0.929 . S
C959 C957 1.433 . S
C959 N962 1.384 . S
C960 H951 0.929 . S
C960 C952 1.378 . S
C960 C955 1.350 . S
C961 H948 0.929 . S
C961 C953 1.433 . S
C961 N963 1.384 . S
N962 C958 1.427 . S
N962 C959 1.384 . S
N963 C955 1.427 . S
N963 C961 1.384 . S
H964 C970 0.930 . S
H965 C974 0.930 . S
H966 C979 0.929 . S
H967 C977 0.929 . S
H968 C972 0.929 . S
H969 C978 0.929 . S
C970 H964 0.930 . S
C970 C971 1.367 . S
C970 C978 1.378 . S
C971 C970 1.367 . S
C971 C979 1.433 . S
C972 H968 0.929 . S
C972 C974 1.378 . S
C972 C976 1.350 . S
C973 C976 1.463 . S
C973 C978 1.350 . S
C973 N981 1.427 . S
C974 H965 0.930 . S
C974 C972 1.378 . S
C974 C975 1.367 . S
C975 C974 1.367 . S
C975 C977 1.433 . S
C976 C972 1.350 . S
C976 C973 1.463 . S
C976 N980 1.427 . S
C977 H967 0.929 . S
C977 C975 1.433 . S
C977 N980 1.384 . S
C978 H969 0.929 . S
C978 C970 1.378 . S
C978 C973 1.350 . S
C979 H966 0.929 . S
C979 C971 1.433 . S
C979 N981 1.384 . S
N980 C976 1.427 . S
N980 C977 1.384 . S
N981 C973 1.427 . S
N981 C979 1.384 . S
H982 C988 0.930 . S
H983 C992 0.930 . S
H984 C997 0.929 . S
H985 C995 0.929 . S
H986 C990 0.929 . S
H987 C996 0.929 . S
C988 H982 0.930 . S
C988 C989 1.367 . S
C988 C996 1.378 . S
C989 C988 1.367 . S
C989 C997 1.433 . S
C990 H986 0.929 . S
C990 C992 1.378 . S
C990 C994 1.350 . S
C991 C994 1.463 . S
C991 C996 1.350 . S
C991 N999 1.427 . S
C992 H983 0.930 . S
C992 C990 1.378 . S
C992 C993 1.367 . S
C993 C992 1.367 . S
C993 C995 1.433 . S
C994 C990 1.350 . S
C994 C991 1.463 . S
C994 N998 1.427 . S
C995 H985 0.929 . S
C995 C993 1.433 . S
C995 N998 1.384 . S
C996 H987 0.929 . S
C996 C988 1.378 . S
C996 C991 1.350 . S
C997 H984 0.929 . S
C997 C989 1.433 . S
C997 N999 1.384 . S
N998 C994 1.427 . S
N998 C995 1.384 . S
N999 C991 1.427 . S
N999 C997 1.384 . S
H1000 C1006 0.930 . S
H1001 C1010 0.930 . S
H1002 C1015 0.929 . S
H1003 C1013 0.929 . S
H1004 C1008 0.929 . S
H1005 C1014 0.929 . S
C1006 H1000 0.930 . S
C1006 C1007 1.367 . S
C1006 C1014 1.378 . S
C1007 C1006 1.367 . S
C1007 C1015 1.433 . S
C1008 H1004 0.929 . S
C1008 C1010 1.378 . S
C1008 C1012 1.350 . S
C1009 C1012 1.463 . S
C1009 C1014 1.350 . S
C1009 N1017 1.427 . S
C1010 H1001 0.930 . S
C1010 C1008 1.378 . S
C1010 C1011 1.367 . S
C1011 C1010 1.367 . S
C1011 C1013 1.433 . S
C1012 C1008 1.350 . S
C1012 C1009 1.463 . S
C1012 N1016 1.427 . S
C1013 H1003 0.929 . S
C1013 C1011 1.433 . S
C1013 N1016 1.384 . S
C1014 H1005 0.929 . S
C1014 C1006 1.378 . S
C1014 C1009 1.350 . S
C1015 H1002 0.929 . S
C1015 C1007 1.433 . S
C1015 N1017 1.384 . S
N1016 C1012 1.427 . S
N1016 C1013 1.384 . S
N1017 C1009 1.427 . S
N1017 C1015 1.384 . S
H1018 C1024 0.930 . S
H1019 C1028 0.930 . S
H1020 C1033 0.929 . S
H1021 C1031 0.929 . S
H1022 C1026 0.929 . S
H1023 C1032 0.929 . S
C1024 H1018 0.930 . S
C1024 C1025 1.367 . S
C1024 C1032 1.378 . S
C1025 C1024 1.367 . S
C1025 C1033 1.433 . S
C1026 H1022 0.929 . S
C1026 C1028 1.378 . S
C1026 C1030 1.350 . S
C1027 C1030 1.463 . S
C1027 C1032 1.350 . S
C1027 N1035 1.427 . S
C1028 H1019 0.930 . S
C1028 C1026 1.378 . S
C1028 C1029 1.367 . S
C1029 C1028 1.367 . S
C1029 C1031 1.433 . S
C1030 C1026 1.350 . S
C1030 C1027 1.463 . S
C1030 N1034 1.427 . S
C1031 H1021 0.929 . S
C1031 C1029 1.433 . S
C1031 N1034 1.384 . S
C1032 H1023 0.929 . S
C1032 C1024 1.378 . S
C1032 C1027 1.350 . S
C1033 H1020 0.929 . S
C1033 C1025 1.433 . S
C1033 N1035 1.384 . S
N1034 C1030 1.427 . S
N1034 C1031 1.384 . S
N1035 C1027 1.427 . S
N1035 C1033 1.384 . S
H1036 C1042 0.930 . S
H1037 C1046 0.930 . S
H1038 C1051 0.929 . S
H1039 C1049 0.929 . S
H1040 C1044 0.929 . S
H1041 C1050 0.929 . S
C1042 H1036 0.930 . S
C1042 C1043 1.367 . S
C1042 C1050 1.378 . S
C1043 C1042 1.367 . S
C1043 C1051 1.433 . S
C1044 H1040 0.929 . S
C1044 C1046 1.378 . S
C1044 C1048 1.350 . S
C1045 C1048 1.463 . S
C1045 C1050 1.350 . S
C1045 N1053 1.427 . S
C1046 H1037 0.930 . S
C1046 C1044 1.378 . S
C1046 C1047 1.367 . S
C1047 C1046 1.367 . S
C1047 C1049 1.433 . S
C1048 C1044 1.350 . S
C1048 C1045 1.463 . S
C1048 N1052 1.427 . S
C1049 H1039 0.929 . S
C1049 C1047 1.433 . S
C1049 N1052 1.384 . S
C1050 H1041 0.929 . S
C1050 C1042 1.378 . S
C1050 C1045 1.350 . S
C1051 H1038 0.929 . S
C1051 C1043 1.433 . S
C1051 N1053 1.384 . S
N1052 C1048 1.427 . S
N1052 C1049 1.384 . S
N1053 C1045 1.427 . S
N1053 C1051 1.384 . S
H1054 C1060 0.930 . S
H1055 C1064 0.930 . S
H1056 C1069 0.929 . S
H1057 C1067 0.929 . S
H1058 C1062 0.929 . S
H1059 C1068 0.929 . S
C1060 H1054 0.930 . S
C1060 C1061 1.367 . S
C1060 C1068 1.378 . S
C1061 C1060 1.367 . S
C1061 C1069 1.433 . S
C1062 H1058 0.929 . S
C1062 C1064 1.378 . S
C1062 C1066 1.350 . S
C1063 C1066 1.463 . S
C1063 C1068 1.350 . S
C1063 N1071 1.427 . S
C1064 H1055 0.930 . S
C1064 C1062 1.378 . S
C1064 C1065 1.367 . S
C1065 C1064 1.367 . S
C1065 C1067 1.433 . S
C1066 C1062 1.350 . S
C1066 C1063 1.463 . S
C1066 N1070 1.427 . S
C1067 H1057 0.929 . S
C1067 C1065 1.433 . S
C1067 N1070 1.384 . S
C1068 H1059 0.929 . S
C1068 C1060 1.378 . S
C1068 C1063 1.350 . S
C1069 H1056 0.929 . S
C1069 C1061 1.433 . S
C1069 N1071 1.384 . S
N1070 C1066 1.427 . S
N1070 C1067 1.384 . S
N1071 C1063 1.427 . S
N1071 C1069 1.384 . S
C647 C1 1.008 . S
C651 C495 1.071 . S
C665 C80 1.641 . S
C669 C539 1.613 . S
C687 C569 2.183 . S
C683 C140 2.104 . S
C701 C211 2.765 . S
C705 C610 2.765 . S
C723 C526 0.765 . S
C719 C31 0.777 . S
C741 C490 2.543 . S
C737 C61 2.476 . S
C759 C618 1.169 . S
C755 C151 1.144 . S
C777 C579 2.264 . S
C773 C200 2.372 . S
C791 C20 0.997 . S
C795 C615 1.041 . S
C813 C529 2.053 . S
C809 C121 2.119 . S
C827 C181 2.062 . S
C831 C498 2.062 . S
C845 C91 1.968 . S
C849 C566 1.942 . S
C867 C486 1.068 . S
C863 C260 1.046 . S
C881 C320 1.633 . S
C885 C530 1.602 . S
C899 C361 2.072 . S
C903 C578 2.179 . S
C917 C451 2.769 . S
C921 C619 2.764 . S
C935 C271 0.745 . S
C939 C535 0.762 . S
C957 C499 2.543 . S
C953 C301 2.469 . S
C975 C609 1.162 . S
C971 C380 1.133 . S
C993 C570 2.270 . S
C989 C440 2.373 . S
C1007 C241 0.979 . S
C1011 C606 1.043 . S
C1029 C538 2.054 . S
C1025 C391 2.082 . S
C1047 C489 2.056 . S
C1043 C421 2.057 . S
C1061 C331 1.969 . S
C1065 C575 1.936 . S
