# Generated by pormake.
# Topology zzz, (3,6)-cn, num edge types: 1
# Building blocks:
#     Node 0, Type 0, BuildingBlock: PAMTOO_clean_linker_0, # of connection points: 3
#     Node 1, Type 0, BuildingBlock: PAMTOO_clean_linker_0, # of connection points: 3
#     Node 2, Type 0, BuildingBlock: PAMTOO_clean_linker_0, # of connection points: 3
#     Node 3, Type 0, BuildingBlock: PAMTOO_clean_linker_0, # of connection points: 3
#     Node 4, Type 0, BuildingBlock: PAMTOO_clean_linker_0, # of connection points: 3
#     Node 5, Type 0, BuildingBlock: PAMTOO_clean_linker_0, # of connection points: 3
#     Node 6, Type 0, BuildingBlock: PAMTOO_clean_linker_0, # of connection points: 3
#     Node 7, Type 0, BuildingBlock: PAMTOO_clean_linker_0, # of connection points: 3
#     Node 8, Type 1, BuildingBlock: JUFBIX_clean_sbu_0, # of connection points: 6
#     Node 9, Type 1, BuildingBlock: JUFBIX_clean_sbu_0, # of connection points: 6
#     Node 10, Type 1, BuildingBlock: JUFBIX_clean_sbu_0, # of connection points: 6
#     Node 11, Type 1, BuildingBlock: JUFBIX_clean_sbu_0, # of connection points: 6
#     Edge 12, Type (0, 1), BuildingBlock: KIFKEQ_clean_linker_1, # of connection points: 2
#     Edge 13, Type (0, 1), BuildingBlock: KIFKEQ_clean_linker_1, # of connection points: 2
#     Edge 14, Type (0, 1), BuildingBlock: KIFKEQ_clean_linker_1, # of connection points: 2
#     Edge 15, Type (0, 1), BuildingBlock: KIFKEQ_clean_linker_1, # of connection points: 2
#     Edge 16, Type (0, 1), BuildingBlock: KIFKEQ_clean_linker_1, # of connection points: 2
#     Edge 17, Type (0, 1), BuildingBlock: KIFKEQ_clean_linker_1, # of connection points: 2
#     Edge 18, Type (0, 1), BuildingBlock: KIFKEQ_clean_linker_1, # of connection points: 2
#     Edge 19, Type (0, 1), BuildingBlock: KIFKEQ_clean_linker_1, # of connection points: 2
#     Edge 20, Type (0, 1), BuildingBlock: KIFKEQ_clean_linker_1, # of connection points: 2
#     Edge 21, Type (0, 1), BuildingBlock: KIFKEQ_clean_linker_1, # of connection points: 2
#     Edge 22, Type (0, 1), BuildingBlock: KIFKEQ_clean_linker_1, # of connection points: 2
#     Edge 23, Type (0, 1), BuildingBlock: KIFKEQ_clean_linker_1, # of connection points: 2
#     Edge 24, Type (0, 1), BuildingBlock: KIFKEQ_clean_linker_1, # of connection points: 2
#     Edge 25, Type (0, 1), BuildingBlock: KIFKEQ_clean_linker_1, # of connection points: 2
#     Edge 26, Type (0, 1), BuildingBlock: KIFKEQ_clean_linker_1, # of connection points: 2
#     Edge 27, Type (0, 1), BuildingBlock: KIFKEQ_clean_linker_1, # of connection points: 2
#     Edge 28, Type (0, 1), BuildingBlock: KIFKEQ_clean_linker_1, # of connection points: 2
#     Edge 29, Type (0, 1), BuildingBlock: KIFKEQ_clean_linker_1, # of connection points: 2
#     Edge 30, Type (0, 1), BuildingBlock: KIFKEQ_clean_linker_1, # of connection points: 2
#     Edge 31, Type (0, 1), BuildingBlock: KIFKEQ_clean_linker_1, # of connection points: 2
#     Edge 32, Type (0, 1), BuildingBlock: KIFKEQ_clean_linker_1, # of connection points: 2
#     Edge 33, Type (0, 1), BuildingBlock: KIFKEQ_clean_linker_1, # of connection points: 2
#     Edge 34, Type (0, 1), BuildingBlock: KIFKEQ_clean_linker_1, # of connection points: 2
#     Edge 35, Type (0, 1), BuildingBlock: KIFKEQ_clean_linker_1, # of connection points: 2
# Relax obj value: 0.119
# Max RMSD: 0.177
# Mean RMSD: 0.083
data_MOF--net-zzz--node1-JUFBIX_clean_sbu_0--node2-PAMTOO_clean_linker_0--edge1-KIFKEQ_clean_linker_1
_symmetry_space_group_name_H-M    P1
_symmetry_Int_Tables_number       1
_symmetry_cell_setting            triclinic
loop_
_symmetry_equiv_pos_as_xyz
'x, y, z'
_cell_length_a     52.532475
_cell_length_b     52.366844
_cell_length_c     17.795523
_cell_angle_alpha  81.570734
_cell_angle_beta   90.005546
_cell_angle_gamma 91.599971
loop_
_atom_site_label
_atom_site_type_symbol
_atom_site_fract_x
_atom_site_fract_y
_atom_site_fract_z
_atom_type_partial_charge
H0 H 0.86373 0.48884 0.29443 0.0
H1 H 0.79785 0.50198 0.1533 0.0
H2 H 0.79472 0.51412 0.38755 0.0
H3 H 0.73999 0.49631 0.32605 0.0
C4 C 0.74834 0.49646 0.26859 0.0
O5 O 0.76829 0.51456 0.25944 0.0
H6 H 0.75525 0.47671 0.26562 0.0
C7 C 0.84379 0.49368 0.28844 0.0
C8 C 0.83077 0.50106 0.35006 0.0
C9 C 0.83218 0.49403 0.21775 0.0
C10 C 0.80684 0.5014 0.20826 0.0
C11 C 0.79302 0.50803 0.26971 0.0
C12 C 0.80515 0.50836 0.34058 0.0
H13 H 0.01637 0.83097 0.30898 0.0
H14 H 0.01307 0.77328 0.16056 0.0
H15 H 0.99963 0.75174 0.40101 0.0
H16 H 0.0249 0.70634 0.32296 0.0
C17 C 0.02277 0.71759 0.26538 0.0
O18 O 1.00308 0.73451 0.26779 0.0
H19 H 0.04111 0.72829 0.25028 0.0
C20 C 0.01384 0.8109 0.30088 0.0
C21 C 1.00814 0.79235 0.3636 0.0
C22 C 0.01516 0.80442 0.22763 0.0
C23 C 0.01212 0.77851 0.21715 0.0
C24 C 1.00693 0.75934 0.27963 0.0
C25 C 1.00451 0.76632 0.35313 0.0
H26 H 0.6956 0.00803 0.20102 0.0
H27 H 0.7588 1.00505 0.04974 0.0
H28 H 0.77174 1.00401 0.28988 0.0
H29 H 0.81485 0.03277 0.18901 0.0
C30 C 0.80972 0.02469 0.13644 0.0
O31 O 0.79385 1.00315 0.15545 0.0
H32 H 0.79962 0.04 0.09866 0.0
C33 C 0.716 1.00724 0.19192 0.0
C34 C 0.73236 1.00645 0.25392 0.0
C35 C 0.7252 1.00647 0.11874 0.0
C36 C 0.75151 1.00563 0.1064 0.0
C37 C 0.76846 1.00488 0.16792 0.0
C38 C 0.75881 1.00501 0.2422 0.0
H39 H 0.51217 0.66351 0.22706 0.0
H40 H 0.52038 0.73232 0.06382 0.0
H41 H 0.52673 0.7367 0.30347 0.0
H42 H 0.50082 0.78319 0.21669 0.0
C43 C 0.50668 0.7801 0.15873 0.0
O44 O 0.52709 0.76375 0.1646 0.0
H45 H 0.49001 0.77105 0.13299 0.0
C46 C 0.51525 0.68429 0.21449 0.0
C47 C 0.5193 0.69847 0.27424 0.0
C48 C 0.51552 0.69617 0.13892 0.0
C49 C 0.52016 0.72291 0.12226 0.0
C50 C 0.52384 0.73771 0.18149 0.0
C51 C 0.52379 0.72538 0.25777 0.0
H52 H 0.17024 0.53017 0.27958 0.0
H53 H 0.23773 0.5256 0.41638 0.0
H54 H 0.24057 0.50789 0.18739 0.0
H55 H 0.28285 0.47806 0.30164 0.0
C56 C 0.27752 0.48965 0.3465 0.0
O57 O 0.2676 0.51261 0.31157 0.0
H58 H 0.26304 0.47817 0.38395 0.0
C59 C 0.19049 0.52682 0.28543 0.0
C60 C 0.20384 0.51923 0.22477 0.0
C61 C 0.2024 0.52911 0.35443 0.0
C62 C 0.22834 0.52392 0.36306 0.0
C63 C 0.24224 0.51638 0.30298 0.0
C64 C 0.22988 0.51367 0.23383 0.0
H65 H 0.02007 0.18784 0.26832 0.0
H66 H 0.02356 0.2461 0.41507 0.0
H67 H 0.03813 0.26665 0.17494 0.0
H68 H 0.99619 0.29234 0.308 0.0
C69 C 0.01537 0.30212 0.30488 0.0
O70 O 0.03447 0.28436 0.30707 0.0
H71 H 0.01639 0.31508 0.24955 0.0
C72 C 0.0227 0.20795 0.2759 0.0
C73 C 0.02883 0.22627 0.21298 0.0
C74 C 0.02132 0.21468 0.34888 0.0
C75 C 0.02453 0.24064 0.35873 0.0
C76 C 0.0302 0.25954 0.29595 0.0
C77 C 0.03283 0.25228 0.22291 0.0
H78 H 0.34056 1.00056 0.36378 0.0
H79 H 0.27799 0.9971 0.52094 0.0
H80 H 0.26488 0.01558 0.27984 0.0
H81 H 0.22566 0.04046 0.37035 0.0
C82 C 0.23098 0.02997 0.42674 0.0
O83 O 0.24296 1.00748 0.41646 0.0
H84 H 0.24435 0.0427 0.45402 0.0
C85 C 0.32034 1.00209 0.3745 0.0
C86 C 0.30403 0.00867 0.3132 0.0
C87 C 0.31128 0.99781 0.44922 0.0
C88 C 0.28523 1.00039 0.46322 0.0
C89 C 0.26833 1.00662 0.40229 0.0
C90 C 0.27781 0.01086 0.32692 0.0
H91 H 0.51556 0.35015 0.34321 0.0
H92 H 0.51816 0.28195 0.50964 0.0
H93 H 0.52122 0.27576 0.27054 0.0
H94 H 0.49433 0.22864 0.36079 0.0
C95 C 0.49977 0.23321 0.41778 0.0
O96 O 0.52108 0.24959 0.41045 0.0
H97 H 0.48346 0.24302 0.44025 0.0
C98 C 0.51651 0.32929 0.35692 0.0
C99 C 0.51838 0.31452 0.29809 0.0
C100 C 0.51634 0.31788 0.43292 0.0
C101 C 0.51816 0.29098 0.45083 0.0
C102 C 0.51952 0.27562 0.39239 0.0
C103 C 0.51974 0.28747 0.31565 0.0
Co104 Co 0.02825 0.02052 0.83094 0.0
C105 C 0.97691 0.00882 0.8597 0.0
Co106 Co 0.01084 0.99844 0.74569 0.0
C107 C 0.03439 0.06443 0.91129 0.0
C108 C 0.06554 0.0389 0.9315 0.0
N109 N 0.04286 0.04151 0.89636 0.0
N110 N 0.051 0.07648 0.95353 0.0
C111 C 0.07058 0.06026 0.96665 0.0
H112 H 0.01652 0.0723 0.89009 0.0
H113 H 0.07808 0.02299 0.9292 0.0
C114 C 0.06229 0.01038 0.71742 0.0
N115 N 0.99623 0.97739 0.68024 0.0
C116 C 1.0046 0.95442 0.66536 0.0
C117 C 0.97356 0.98007 0.6451 0.0
N118 N 0.98794 0.94242 0.6231 0.0
C119 C 0.96843 0.95872 0.60999 0.0
C120 C 1.00703 0.05033 0.70383 0.0
O121 O 0.06004 0.02085 0.77728 0.0
O122 O 0.0428 0.99925 0.69256 0.0
O123 O 1.00139 0.02893 0.68125 0.0
O124 O 0.01872 0.05041 0.76615 0.0
O125 O 0.97886 0.998 0.80028 0.0
H126 H 0.96108 0.99603 0.64739 0.0
H127 H 0.02244 0.94646 0.68662 0.0
O128 O 0.99655 0.01997 0.88337 0.0
O129 O 0.03753 0.99003 0.89563 0.0
O130 O 0.02052 0.96857 0.81022 0.0
C131 C 0.03202 0.96863 0.87283 0.0
H132 H 0.08785 0.06391 0.99691 0.0
H133 H 0.95113 0.95514 0.57977 0.0
Co134 Co 0.50832 0.01277 0.83688 0.0
C135 C 0.51904 0.95999 0.85436 0.0
Co136 Co 0.52744 1.0007 0.73651 0.0
C137 C 0.4651 0.02489 0.92867 0.0
C138 C 0.49929 0.01854 0.99316 0.0
N139 N 0.49039 0.02104 0.92137 0.0
N140 N 0.45794 0.02421 0.00195 0.0
C141 C 0.4795 0.02042 0.04247 0.0
H142 H 0.45176 0.02611 0.8821 0.0
H143 H 0.51857 0.01368 0.00964 0.0
C144 C 0.51669 0.05354 0.71977 0.0
N145 N 0.54579 0.99166 0.65442 0.0
C146 C 0.56928 1.00062 0.63025 0.0
C147 C 0.54019 0.97277 0.61275 0.0
N148 N 0.57887 0.98781 0.57629 0.0
C149 C 0.56034 0.9704 0.5648 0.0
C150 C 0.47531 0.997 0.72709 0.0
O151 O 0.50737 0.04773 0.78655 0.0
O152 O 0.52648 0.03585 0.68775 0.0
O153 O 0.49556 0.99355 0.6909 0.0
O154 O 0.4771 1.00508 0.79082 0.0
O155 O 0.5281 0.96549 0.78727 0.0
H156 H 0.52296 0.96084 0.61874 0.0
H157 H 0.5796 0.01559 0.65435 0.0
O158 O 0.50953 0.9779 0.88568 0.0
O159 O 0.54031 0.02016 0.88157 0.0
O160 O 0.5586 0.00789 0.78276 0.0
C161 C 0.56046 0.01625 0.84585 0.0
H162 H 0.48065 0.01776 0.10386 0.0
H163 H 0.56128 0.95652 0.52553 0.0
Co164 Co 0.53828 0.50768 0.79214 0.0
C165 C 0.5147 0.46913 0.89736 0.0
Co166 Co 0.49603 0.50621 0.78556 0.0
C167 C 0.58641 0.50874 0.87137 0.0
C168 C 0.5919 0.51001 0.75176 0.0
N169 N 0.57359 0.50897 0.80522 0.0
N170 N 0.612 0.5095 0.86155 0.0
C171 C 0.61544 0.5103 0.78606 0.0
H172 H 0.57704 0.50758 0.92596 0.0
H173 H 0.58834 0.51049 0.6917 0.0
C174 C 0.51984 0.54472 0.68019 0.0
N175 N 0.4607 0.50484 0.77297 0.0
C176 C 0.44756 0.50561 0.7072 0.0
C177 C 0.44269 0.50248 0.82757 0.0
N178 N 0.42201 0.50382 0.71841 0.0
C179 C 0.41901 0.50184 0.79444 0.0
C180 C 0.51331 0.54078 0.87629 0.0
O181 O 0.54044 0.5354 0.70874 0.0
O182 O 0.49865 0.53415 0.70391 0.0
O183 O 0.49311 0.53071 0.85264 0.0
O184 O 0.53485 0.53272 0.85889 0.0
O185 O 0.494 0.47806 0.86839 0.0
H186 H 0.44655 0.50108 0.88773 0.0
H187 H 0.45669 0.5076 0.6521 0.0
O188 O 0.53572 0.48015 0.87425 0.0
O189 O 0.54102 0.48238 0.72501 0.0
O190 O 0.49927 0.48188 0.71888 0.0
C191 C 0.52036 0.47295 0.70166 0.0
H192 H 0.63366 0.5113 0.75727 0.0
H193 H 0.40102 0.49956 0.8246 0.0
Co194 Co 0.01574 0.52973 0.79019 0.0
C195 C 0.0548 0.5055 0.88074 0.0
Co196 Co 0.01912 0.48773 0.78605 0.0
C197 C 0.01322 0.57387 0.87039 0.0
C198 C 0.01087 0.58511 0.75013 0.0
N199 N 0.01296 0.56426 0.80374 0.0
N200 N 0.01148 0.59989 0.8607 0.0
C201 C 0.00999 0.60697 0.78482 0.0
H202 H 0.01518 0.56194 0.925 0.0
H203 H 0.01015 0.58446 0.68969 0.0
C204 C 0.98001 0.512 0.69562 0.0
N205 N 0.02198 0.45321 0.77265 0.0
C206 C 0.02077 0.44338 0.70644 0.0
C207 C 0.02601 0.4327 0.82598 0.0
N208 N 0.02387 0.4175 0.71606 0.0
C209 C 0.02718 0.41082 0.79158 0.0
C210 C 0.9845 0.49686 0.89157 0.0
O211 O 0.9884 0.53267 0.71799 0.0
O212 O 0.99123 0.49095 0.7169 0.0
O213 O 0.99533 0.47849 0.86607 0.0
O214 O 0.99127 0.52011 0.86767 0.0
O215 O 0.047 0.485 0.85631 0.0
H216 H 0.02811 0.43362 0.886 0.0
H217 H 0.01745 0.4551 0.65225 0.0
O218 O 0.04306 0.52636 0.86128 0.0
O219 O 0.04018 0.53885 0.71197 0.0
O220 O 0.04276 0.49741 0.70618 0.0
C221 C 0.05025 0.52057 0.68381 0.0
H222 H 1.00819 0.62653 0.75616 0.0
H223 H 0.03061 0.39155 0.82028 0.0
H224 H 0.21166 0.05928 0.52688 0.0
H225 H 0.19516 0.98968 0.43118 0.0
H226 H 0.17153 0.05377 0.59653 0.0
H227 H 0.1552 0.98343 0.50321 0.0
H228 H 0.0729 0.99588 0.5785 0.0
H229 H 0.11359 0.99931 0.51092 0.0
H230 H 0.14932 0.02987 0.69888 0.0
H231 H 0.10855 0.02729 0.76482 0.0
C232 C 0.19966 0.04243 0.52211 0.0
C233 C 0.20699 0.02456 0.47504 0.0
C234 C 0.17658 0.03919 0.56234 0.0
C235 C 0.15995 0.01798 0.55657 0.0
C236 C 0.16728 1.00011 0.50902 0.0
C237 C 0.19038 1.00348 0.46834 0.0
C238 C 0.08946 1.0033 0.60542 0.0
C239 C 0.08731 0.01146 0.67703 0.0
C240 C 0.11293 1.00512 0.5668 0.0
C241 C 0.13499 0.015 0.59886 0.0
C242 C 0.13282 0.02267 0.67125 0.0
C243 C 0.10936 0.02103 0.70951 0.0
H244 H 0.46984 0.20841 0.5339 0.0
H245 H 0.54005 0.20064 0.41506 0.0
H246 H 0.47497 0.16592 0.60799 0.0
H247 H 0.54581 0.15826 0.49093 0.0
H248 H 0.53171 0.07157 0.57358 0.0
H249 H 0.52908 0.11521 0.50502 0.0
H250 H 0.49792 0.1407 0.70521 0.0
H251 H 0.49985 0.0968 0.77302 0.0
C252 C 0.4867 0.1978 0.52479 0.0
C253 C 0.50476 0.20811 0.46945 0.0
C254 C 0.48972 0.17339 0.56754 0.0
C255 C 0.51086 0.15844 0.55601 0.0
C256 C 0.52912 0.16895 0.50109 0.0
C257 C 0.52602 0.19339 0.4581 0.0
C258 C 0.52434 0.08648 0.60315 0.0
C259 C 0.51589 0.08053 0.67892 0.0
C260 C 0.52301 0.11166 0.56385 0.0
C261 C 0.51327 0.13173 0.59917 0.0
C262 C 0.50516 0.1258 0.67542 0.0
C263 C 0.5064 0.10057 0.71463 0.0
H264 H 0.28494 0.52694 0.44014 0.0
H265 H 0.32109 0.46198 0.36621 0.0
H266 H 0.32046 0.53203 0.5258 0.0
H267 H 0.35628 0.46641 0.4533 0.0
H268 H 0.42637 0.49272 0.5738 0.0
H269 H 0.39269 0.4916 0.48026 0.0
H270 H 0.33813 0.51198 0.64147 0.0
H271 H 0.37191 0.51435 0.73343 0.0
C272 C 0.30064 0.51392 0.44157 0.0
C273 C 0.30047 0.49444 0.39496 0.0
C274 C 0.32093 0.51663 0.49137 0.0
C275 C 0.34144 0.49965 0.49684 0.0
C276 C 0.3412 0.4802 0.44991 0.0
C277 C 0.32096 0.47758 0.39999 0.0
C278 C 0.4073 0.49732 0.58919 0.0
C279 C 0.40207 0.50355 0.66189 0.0
C280 C 0.38782 0.49638 0.53556 0.0
C281 C 0.3625 0.50161 0.55292 0.0
C282 C 0.35735 0.50813 0.62527 0.0
C283 C 0.3768 0.50913 0.67875 0.0
H284 H 0.98894 0.29703 0.43979 0.0
H285 H 0.04872 0.34276 0.31474 0.0
H286 H 0.99153 0.32459 0.53914 0.0
H287 H 0.05206 0.37005 0.4151 0.0
H288 H 0.03099 0.43091 0.56323 0.0
H289 H 0.02968 0.40258 0.46651 0.0
H290 H 0.01627 0.3368 0.6401 0.0
H291 H 0.01628 0.36521 0.73635 0.0
C292 C 1.00282 0.31289 0.43405 0.0
C293 C 0.01838 0.318 0.36911 0.0
C294 C 1.00445 0.32865 0.49122 0.0
C295 C 0.0219 0.3498 0.48531 0.0
C296 C 0.03803 0.35433 0.42115 0.0
C297 C 0.0363 0.3386 0.36387 0.0
C298 C 0.0275 0.41047 0.58103 0.0
C299 C 0.02365 0.40057 0.65827 0.0
C300 C 0.02709 0.39409 0.52533 0.0
C301 C 0.0229 0.36726 0.54504 0.0
C302 C 0.01923 0.35733 0.62228 0.0
C303 C 0.01955 0.37371 0.67793 0.0
H304 H 0.81722 0.02359 0.98399 0.0
H305 H 0.85612 0.0108 0.19882 0.0
H306 H 0.85707 0.01792 0.91773 0.0
H307 H 0.89592 1.00457 0.13334 0.0
H308 H 0.9671 0.02956 0.98886 0.0
H309 H 0.92676 0.03068 0.05518 0.0
H310 H 0.88985 0.98892 0.89154 0.0
H311 H 0.93036 0.9882 0.82408 0.0
C312 C 0.83428 0.0192 0.01702 0.0
C313 C 0.83366 0.01805 0.09644 0.0
C314 C 0.85714 0.01584 0.97916 0.0
C315 C 0.87997 0.01112 0.01985 0.0
C316 C 0.87895 0.00876 0.09976 0.0
C317 C 0.8561 0.01211 0.1375 0.0
C318 C 0.95045 0.02052 0.96694 0.0
C319 C 0.95211 0.0088 0.90087 0.0
C320 C 0.92723 0.021 0.00548 0.0
C321 C 0.90487 0.00979 0.97926 0.0
C322 C 0.90654 0.99797 0.91323 0.0
C323 C 0.92984 0.99744 0.87465 0.0
H324 H 0.52509 0.82474 0.20576 0.0
H325 H 0.50322 0.79334 0.00378 0.0
H326 H 0.53071 0.8676 0.131 0.0
H327 H 0.5083 0.8363 0.92862 0.0
H328 H 0.53632 0.91581 0.80589 0.0
H329 H 0.5368 0.8721 0.87731 0.0
H330 H 0.50296 0.89997 0.06992 0.0
H331 H 0.50285 0.94336 0.99956 0.0
C332 C 0.52171 0.82702 0.14513 0.0
C333 C 0.51334 0.80581 0.11078 0.0
C334 C 0.52471 0.85161 0.10225 0.0
C335 C 0.51953 0.85564 0.02373 0.0
C336 C 0.51252 0.83404 0.98874 0.0
C337 C 0.50952 0.80942 0.03177 0.0
C338 C 0.52906 0.91258 0.86356 0.0
C339 C 0.51955 0.93321 0.89676 0.0
C340 C 0.52924 0.88748 0.90449 0.0
C341 C 0.52006 0.88239 0.9798 0.0
C342 C 0.51065 0.9031 0.01274 0.0
C343 C 0.51038 0.92806 0.97193 0.0
H344 H 0.69657 0.49154 0.28541 0.0
H345 H 0.75449 0.51258 0.11426 0.0
H346 H 0.66383 0.49566 0.18748 0.0
H347 H 0.72178 0.51742 0.01596 0.0
H348 H 0.66042 0.49286 0.85496 0.0
H349 H 0.69315 0.49185 0.95199 0.0
H350 H 0.6411 0.52462 0.09715 0.0
H351 H 0.60826 0.52539 1.00008 0.0
C352 C 0.70225 0.49764 0.22687 0.0
C353 C 0.72812 0.50227 0.20793 0.0
C354 C 0.68345 0.50005 0.17054 0.0
C355 C 0.68999 0.50695 0.09333 0.0
C356 C 0.71593 0.5118 0.07452 0.0
C357 C 0.73473 0.50932 0.13099 0.0
C358 C 0.65597 0.5001 0.90718 0.0
C359 C 0.63155 0.50918 0.91931 0.0
C360 C 0.67484 0.49958 0.96305 0.0
C361 C 0.66995 0.50819 0.03284 0.0
C362 C 0.64556 0.51744 0.04479 0.0
C363 C 0.62664 0.51788 0.98895 0.0
H364 H 0.02963 0.66536 0.28 0.0
H365 H 1.00634 0.7297 0.11755 0.0
H366 H 0.02606 0.63703 0.18295 0.0
H367 H 1.00198 0.70132 0.02047 0.0
H368 H 0.02646 0.65052 0.84534 0.0
H369 H 0.02737 0.67858 0.94289 0.0
H370 H 0.99763 0.61568 0.10643 0.0
H371 H 0.99701 0.58754 0.00874 0.0
C372 C 0.02321 0.67332 0.2238 0.0
C373 C 0.01778 0.69967 0.20691 0.0
C374 C 0.02109 0.65706 0.16802 0.0
C375 C 0.01366 0.66674 0.09345 0.0
C376 C 1.00804 0.69314 0.07683 0.0
C377 C 0.01023 0.7094 0.13269 0.0
C378 C 0.01988 0.64268 0.90184 0.0
C379 C 0.01169 0.61665 0.91881 0.0
C380 C 0.02034 0.65886 0.95804 0.0
C381 C 0.01254 0.64955 0.03299 0.0
C382 C 1.00418 0.62353 0.04984 0.0
C383 C 1.00381 0.60732 0.99364 0.0
H384 H 0.98594 0.20883 0.46459 0.0
H385 H 0.05033 0.17281 0.37701 0.0
H386 H 0.97745 0.16926 0.55592 0.0
H387 H 0.04152 0.1336 0.46567 0.0
H388 H 0.99903 0.05945 0.55084 0.0
H389 H 0.99972 0.10161 0.47065 0.0
H390 H 1.00511 0.13953 0.66982 0.0
H391 H 1.00471 0.09746 0.75031 0.0
C392 C 0.99846 0.19268 0.46592 0.0
C393 C 0.01854 0.19359 0.41341 0.0
C394 C 0.99349 0.17011 0.51732 0.0
C395 C 1.00844 0.14833 0.51573 0.0
C396 C 0.02936 0.14994 0.46635 0.0
C397 C 0.03447 0.17239 0.41616 0.0
C398 C 0.9997 0.07675 0.57757 0.0
C399 C 1.0022 0.07522 0.65652 0.0
C400 C 1.00015 0.10081 0.53183 0.0
C401 C 1.00269 0.12362 0.56449 0.0
C402 C 1.00308 0.12216 0.64364 0.0
C403 C 1.003 0.09811 0.68938 0.0
H404 H 0.32274 0.02457 0.5658 0.0
H405 H 0.34303 0.9575 0.46684 0.0
H406 H 0.36162 0.02095 0.64205 0.0
H407 H 0.38164 0.95352 0.54348 0.0
H408 H 0.46335 0.98374 0.58755 0.0
H409 H 0.42101 0.97977 0.53326 0.0
H410 H 0.38702 0.99621 0.74134 0.0
H411 H 0.42922 1.00044 0.79527 0.0
C412 C 0.33503 0.00848 0.56275 0.0
C413 C 0.33003 0.99136 0.51057 0.0
C414 C 0.35737 1.00644 0.60599 0.0
C415 C 0.37498 0.98722 0.59762 0.0
C416 C 0.36878 0.96887 0.54993 0.0
C417 C 0.34655 0.97094 0.5068 0.0
C418 C 0.44685 0.98627 0.62192 0.0
C419 C 0.44973 0.99264 0.69543 0.0
C420 C 0.42255 0.98384 0.59105 0.0
C421 C 0.40061 0.98771 0.63304 0.0
C422 C 0.40351 0.99341 0.70723 0.0
C423 C 0.42776 0.99579 0.73811 0.0
H424 H 0.55088 0.32574 0.54294 0.0
H425 H 0.47838 0.35012 0.44883 0.0
H426 H 0.55218 0.36233 0.61503 0.0
H427 H 0.47994 0.38692 0.51699 0.0
H428 H 0.47921 0.44244 0.68164 0.0
H429 H 0.47772 0.40175 0.63326 0.0
H430 H 0.55875 0.40861 0.58927 0.0
H431 H 0.56049 0.44924 0.64254 0.0
C432 C 0.53493 0.33852 0.5396 0.0
C433 C 0.51443 0.33512 0.49113 0.0
C434 C 0.53586 0.35972 0.57951 0.0
C435 C 0.51631 0.3778 0.5713 0.0
C436 C 0.4952 0.37334 0.52585 0.0
C437 C 0.49423 0.35221 0.48668 0.0
C438 C 0.49679 0.43549 0.66124 0.0
C439 C 0.51996 0.44935 0.66493 0.0
C440 C 0.4959 0.41202 0.63338 0.0
C441 C 0.51805 0.40187 0.60666 0.0
C442 C 0.54135 0.41568 0.61028 0.0
C443 C 0.54232 0.43913 0.63968 0.0
H444 H 0.17037 0.56899 0.35551 0.0
H445 H 0.19748 0.50069 0.49443 0.0
H446 H 0.13441 0.56987 0.44191 0.0
H447 H 0.16172 0.50175 0.58178 0.0
H448 H 0.07595 0.48531 0.61783 0.0
H449 H 0.11645 0.49146 0.55126 0.0
H450 H 0.11737 0.57256 0.57275 0.0
H451 H 0.07645 0.56647 0.64001 0.0
C452 C 0.16911 0.55477 0.40625 0.0
C453 C 0.18642 0.53459 0.4181 0.0
C454 C 0.14856 0.55527 0.45564 0.0
C455 C 0.14499 0.53553 0.51743 0.0
C456 C 0.1638 0.51691 0.53356 0.0
C457 C 0.18442 0.51648 0.48429 0.0
C458 C 0.0846 0.50453 0.60804 0.0
C459 C 0.07296 0.52541 0.63428 0.0
C460 C 0.10802 0.50796 0.5708 0.0
C461 C 0.12034 0.53236 0.5585 0.0
C462 C 0.10834 0.5535 0.58212 0.0
C463 C 0.08487 0.55004 0.62003 0.0
H464 H 0.98704 0.84703 0.20079 0.0
H465 H 0.05028 0.80975 0.1114 0.0
H466 H 0.99648 0.88619 0.11252 0.0
H467 H 0.0594 0.84926 0.02054 0.0
H468 H 0.03415 0.92143 0.82682 0.0
H469 H 0.03298 0.87943 0.90763 0.0
H470 H 0.03817 0.91752 0.10655 0.0
H471 H 0.03958 0.95961 0.02602 0.0
C472 C 1.00279 0.84718 0.1614 0.0
C473 C 0.01822 0.82561 0.16351 0.0
C474 C 1.00827 0.86959 0.11142 0.0
C475 C 0.02906 0.87081 0.06164 0.0
C476 C 0.04347 0.84871 0.05945 0.0
C477 C 0.03814 0.82617 0.11061 0.0
C478 C 0.03565 0.92082 0.88778 0.0
C479 C 0.03659 0.94375 0.92043 0.0
C480 C 0.03512 0.89681 0.93373 0.0
C481 C 0.0352 0.89543 0.01287 0.0
C482 C 0.03792 0.91826 0.04538 0.0
C483 C 0.03881 0.94227 0.99944 0.0
H484 H 0.71748 0.04307 0.99518 0.0
H485 H 0.68912 0.96954 0.1102 0.0
H486 H 0.67788 0.04787 0.92087 0.0
H487 H 0.64968 0.97449 0.03767 0.0
H488 H 0.57283 0.01389 0.99559 0.0
H489 H 0.61562 0.01139 0.05015 0.0
H490 H 0.64847 0.02213 0.82512 0.0
H491 H 0.60572 0.02422 0.77024 0.0
C492 C 0.70321 0.02756 0.00227 0.0
C493 C 0.70621 1.00592 0.05794 0.0
C494 C 0.68054 0.03042 0.96065 0.0
C495 C 0.66066 0.01181 0.97525 0.0
C496 C 0.66459 0.98929 0.02656 0.0
C497 C 0.68721 0.98631 0.06719 0.0
C498 C 0.58917 0.01619 0.95781 0.0
C499 C 0.58597 0.01906 0.87882 0.0
C500 C 0.61359 0.01458 0.98892 0.0
C501 C 0.63519 0.01627 0.94155 0.0
C502 C 0.63208 0.02072 0.86259 0.0
C503 C 0.60765 0.02186 0.83145 0.0
H504 H 0.47459 0.66498 0.12382 0.0
H505 H 0.54797 0.68871 0.02494 0.0
H506 H 0.47305 0.62818 0.05489 0.0
H507 H 0.54623 0.65217 0.95318 0.0
H508 H 0.55212 0.56539 0.9418 0.0
H509 H 0.55077 0.60636 0.99099 0.0
H510 H 0.47051 0.61098 0.93887 0.0
H511 H 0.47169 0.56963 0.89208 0.0
C512 C 0.48995 0.66278 0.0848 0.0
C513 C 0.51142 0.67952 0.07964 0.0
C514 C 0.48911 0.64168 0.04531 0.0
C515 C 0.50974 0.63692 0.99953 0.0
C516 C 0.53029 0.65498 0.98939 0.0
C517 C 0.53113 0.67615 0.02923 0.0
C518 C 0.53413 0.57502 0.94166 0.0
C519 C 0.51197 0.56412 0.91372 0.0
C520 C 0.53343 0.59872 0.96874 0.0
C521 C 0.5106 0.61217 0.968 0.0
C522 C 0.48838 0.60109 0.94079 0.0
C523 C 0.48904 0.5773 0.91426 0.0
H524 H 0.84371 0.52772 0.09168 0.0
H525 H 0.85773 0.45061 0.20279 0.0
H526 H 0.87921 0.52519 0.00588 0.0
H527 H 0.89261 0.44722 0.11428 0.0
H528 H 0.9752 0.46815 0.03091 0.0
H529 H 0.93457 0.4638 0.09985 0.0
H530 H 0.89859 0.50884 0.90733 0.0
H531 H 0.93944 0.51447 0.84194 0.0
C532 C 0.85375 0.50978 0.09524 0.0
C533 C 0.8481 0.48936 0.15333 0.0
C534 C 0.87419 0.50825 0.04619 0.0
C535 C 0.88913 0.48608 0.05366 0.0
C536 C 0.88198 0.46482 0.10807 0.0
C537 C 0.86179 0.46655 0.15793 0.0
C538 C 0.95847 0.47699 0.004 0.0
C539 C 0.96028 0.49208 0.93244 0.0
C540 C 0.93513 0.47433 0.04278 0.0
C541 C 0.91321 0.48621 0.00951 0.0
C542 C 0.91508 0.50004 0.93576 0.0
C543 C 0.93842 0.50321 0.89814 0.0
H544 H 0.9933 0.20898 0.12061 0.0
H545 H 0.07427 0.21751 0.15082 0.0
H546 H 1.0001 0.17507 0.04286 0.0
H547 H 0.08133 0.18373 0.07225 0.0
H548 H 0.07645 0.0952 0.06782 0.0
H549 H 0.07287 0.13734 0.10761 0.0
H550 H 0.01726 0.15813 0.93229 0.0
H551 H 0.02104 0.11592 0.89144 0.0
C552 C 0.01264 0.20463 0.10673 0.0
C553 C 0.03327 0.21611 0.14086 0.0
C554 C 0.01658 0.18496 0.06282 0.0
C555 C 0.04125 0.17622 0.05265 0.0
C556 C 0.06205 0.18964 0.08018 0.0
C557 C 0.05808 0.2094 0.12383 0.0
C558 C 0.06374 0.10878 0.03669 0.0
C559 C 0.049 0.10183 0.97641 0.0
C560 C 0.06176 0.13313 0.05941 0.0
C561 C 0.04492 0.15132 0.02281 0.0
C562 C 0.03033 0.14457 0.96203 0.0
C563 C 0.0324 0.12021 0.93895 0.0
H564 H 0.32052 0.05401 0.23055 0.0
H565 H 0.31724 0.97173 0.23055 0.0
H566 H 0.35558 0.05822 0.13812 0.0
H567 H 0.35228 0.97579 0.13884 0.0
H568 H 0.4405 0.99154 0.12317 0.0
H569 H 0.39774 0.98846 0.17729 0.0
H570 H 0.37408 0.04964 0.00421 0.0
H571 H 0.41732 0.0524 0.9488 0.0
C572 C 0.32631 0.03705 0.20738 0.0
C573 C 0.3159 0.01259 0.23669 0.0
C574 C 0.34657 0.0394 0.15505 0.0
C575 C 0.35695 0.01728 0.13216 0.0
C576 C 0.34483 0.99315 0.15593 0.0
C577 C 0.32451 0.99085 0.20754 0.0
C578 C 0.42621 1.00433 0.09654 0.0
C579 C 0.43232 0.02237 0.03217 0.0
C580 C 0.40161 1.00237 0.12699 0.0
C581 C 0.38244 0.01866 0.09467 0.0
C582 C 0.38844 0.03678 0.03013 0.0
C583 C 0.41309 0.03835 0.99846 0.0
H584 H 0.55891 0.34132 0.23222 0.0
H585 H 0.48005 0.32274 0.19447 0.0
H586 H 0.55768 0.37755 0.1306 0.0
H587 H 0.47877 0.35844 0.08892 0.0
H588 H 0.47571 0.44471 0.98661 0.0
H589 H 0.4771 0.40359 0.07166 0.0
H590 H 0.55539 0.39551 0.00587 0.0
H591 H 0.55434 0.43699 0.92558 0.0
C592 C 0.54166 0.34423 0.19905 0.0
C593 C 0.51976 0.32892 0.22009 0.0
C594 C 0.5408 0.36521 0.14077 0.0
C595 C 0.51799 0.37139 0.10131 0.0
C596 C 0.49654 0.35475 0.11879 0.0
C597 C 0.49737 0.33386 0.178 0.0
C598 C 0.49323 0.43418 0.99111 0.0
C599 C 0.51503 0.44442 0.95048 0.0
C600 C 0.49399 0.41037 0.03911 0.0
C601 C 0.51643 0.39597 0.04643 0.0
C602 C 0.53793 0.40609 0.00382 0.0
C603 C 0.53732 0.43001 0.95738 0.0
H604 H 0.19409 0.47663 0.15418 0.0
H605 H 0.17894 0.55759 0.14056 0.0
H606 H 0.16033 0.47218 0.06123 0.0
H607 H 0.14462 0.55325 0.05268 0.0
H608 H 0.08875 0.54553 0.87263 0.0
H609 H 0.12903 0.54791 0.93771 0.0
H610 H 0.11595 0.46993 0.05259 0.0
H611 H 0.07622 0.46708 0.98176 0.0
C612 C 0.18405 0.49361 0.12946 0.0
C613 C 0.18927 0.51751 0.15397 0.0
C614 C 0.16429 0.49102 0.07743 0.0
C615 C 0.14922 0.51224 0.04945 0.0
C616 C 0.15575 0.53641 0.07106 0.0
C617 C 0.17555 0.53901 0.12186 0.0
C618 C 0.09445 0.52888 0.91191 0.0
C619 C 0.07905 0.50629 0.92323 0.0
C620 C 0.11764 0.53024 0.94972 0.0
C621 C 0.12588 0.50932 0.00218 0.0
C622 C 0.1106 0.48643 0.01233 0.0
C623 C 0.08761 0.48483 0.97249 0.0
H624 H 0.96299 0.8014 0.42687 0.0
H625 H 0.04409 0.80898 0.45598 0.0
H626 H 0.95652 0.83532 0.50535 0.0
H627 H 0.03789 0.84305 0.5336 0.0
H628 H 0.01791 0.90285 0.68451 0.0
H629 H 0.02129 0.86055 0.64385 0.0
H630 H 0.96534 0.88154 0.4697 0.0
H631 H 0.96216 0.92373 0.50927 0.0
C632 C 0.97934 0.80931 0.45365 0.0
C633 C 1.00401 0.80229 0.43628 0.0
C634 C 0.97571 0.82917 0.49722 0.0
C635 C 0.99672 0.84241 0.52434 0.0
C636 C 0.02125 0.83333 0.51395 0.0
C637 C 0.02484 0.81354 0.47015 0.0
C638 C 1.00639 0.89858 0.6373 0.0
C639 C 0.9898 0.91703 0.60017 0.0
C640 C 1.00823 0.87417 0.6143 0.0
C641 C 0.99341 0.86743 0.55395 0.0
C642 C 0.97661 0.88572 0.5176 0.0
C643 C 0.97487 0.91012 0.54021 0.0
H644 H 0.72457 0.96509 0.36412 0.0
H645 H 0.70959 0.04601 0.30682 0.0
H646 H 0.68979 0.96043 0.45701 0.0
H647 H 0.67441 0.0415 0.39714 0.0
H648 H 0.61281 0.02848 0.57488 0.0
H649 H 0.65517 0.03318 0.51864 0.0
H650 H 0.64497 0.95912 0.44158 0.0
H651 H 0.60334 0.95377 0.50098 0.0
C652 C 0.71462 0.98213 0.37413 0.0
C653 C 0.72004 1.00599 0.32914 0.0
C654 C 0.69425 0.9794 0.42604 0.0
C655 C 0.67871 1.00044 0.43356 0.0
C656 C 0.68584 0.02483 0.39366 0.0
C657 C 0.70623 0.02754 0.34215 0.0
C658 C 0.61963 0.01296 0.54703 0.0
C659 C 0.60421 0.99076 0.54259 0.0
C660 C 0.64401 0.01578 0.51409 0.0
C661 C 0.65376 0.99654 0.47539 0.0
C662 C 0.6385 0.97421 0.47193 0.0
C663 C 0.61421 0.97134 0.50508 0.0
H664 H 0.5584 0.68862 0.37535 0.0
H665 H 0.47849 0.67307 0.34376 0.0
H666 H 0.55906 0.65332 0.48233 0.0
H667 H 0.47908 0.63728 0.44661 0.0
H668 H 0.48143 0.57848 0.65308 0.0
H669 H 0.48161 0.61982 0.57146 0.0
H670 H 0.55881 0.60806 0.50214 0.0
H671 H 0.559 0.56718 0.58839 0.0
C672 C 0.54079 0.67823 0.39319 0.0
C673 C 0.51831 0.68379 0.35215 0.0
C674 C 0.54123 0.65758 0.45333 0.0
C675 C 0.51923 0.64191 0.47302 0.0
C676 C 0.4964 0.64884 0.4347 0.0
C677 C 0.49596 0.66953 0.37554 0.0
C678 C 0.49844 0.58464 0.62019 0.0
C679 C 0.52008 0.56929 0.62641 0.0
C680 C 0.49856 0.60847 0.57301 0.0
C681 C 0.52013 0.61751 0.52897 0.0
C682 C 0.54191 0.60215 0.53572 0.0
C683 C 0.54196 0.57847 0.58443 0.0
H684 H 0.85619 0.46198 0.43015 0.0
H685 H 0.84023 0.54243 0.4259 0.0
H686 H 0.89055 0.46554 0.51867 0.0
H687 H 0.87406 0.54601 0.51914 0.0
H688 H 0.95843 0.5509 0.59664 0.0
H689 H 0.91868 0.54845 0.5257 0.0
H690 H 0.90593 0.4698 0.63552 0.0
H691 H 0.94614 0.47187 0.70121 0.0
C692 C 0.85943 0.48025 0.45088 0.0
C693 C 0.84547 0.50188 0.42117 0.0
C694 C 0.87925 0.48238 0.50204 0.0
C695 C 0.88556 0.50619 0.52628 0.0
C696 C 0.87026 0.52747 0.50081 0.0
C697 C 0.85046 0.52534 0.44859 0.0
C698 C 0.94711 0.5331 0.60487 0.0
C699 C 0.95575 0.51139 0.65296 0.0
C700 C 0.92411 0.53172 0.56496 0.0
C701 C 0.90892 0.50878 0.57368 0.0
C702 C 0.91724 0.48756 0.6248 0.0
C703 C 0.94041 0.48874 0.66289 0.0
loop_
_geom_bond_atom_site_label_1
_geom_bond_atom_site_label_2
_geom_bond_distance
_geom_bond_site_symmetry_2
_ccdc_geom_bond_type
H0 C7 0.929 . S
H1 C10 0.930 . S
H2 C12 0.929 . S
H3 C4 0.969 . S
C4 H3 0.969 . S
C4 O5 1.550 . S
C4 H6 0.973 . S
O5 C4 1.550 . S
O5 C11 1.412 . S
H6 C4 0.973 . S
C7 H0 0.929 . S
C7 C8 1.400 . S
C7 C9 1.364 . S
C8 C7 1.400 . S
C8 C12 1.377 . S
C9 C7 1.364 . S
C9 C10 1.374 . S
C10 H1 0.930 . S
C10 C9 1.374 . S
C10 C11 1.383 . S
C11 O5 1.412 . S
C11 C10 1.383 . S
C11 C12 1.394 . S
C12 H2 0.929 . S
C12 C8 1.377 . S
C12 C11 1.394 . S
H13 C20 0.929 . S
H14 C23 0.930 . S
H15 C25 0.929 . S
H16 C17 0.969 . S
C17 H16 0.969 . S
C17 O18 1.550 . S
C17 H19 0.973 . S
O18 C17 1.550 . S
O18 C24 1.412 . S
H19 C17 0.973 . S
C20 H13 0.929 . S
C20 C21 1.400 . S
C20 C22 1.364 . S
C21 C20 1.400 . S
C21 C25 1.377 . S
C22 C20 1.364 . S
C22 C23 1.374 . S
C23 H14 0.930 . S
C23 C22 1.374 . S
C23 C24 1.383 . S
C24 O18 1.412 . S
C24 C23 1.383 . S
C24 C25 1.394 . S
C25 H15 0.929 . S
C25 C21 1.377 . S
C25 C24 1.394 . S
H26 C33 0.929 1_565 S
H27 C36 0.924 1_556 S
H28 C38 0.930 1_565 S
H29 C30 0.969 . S
C30 H29 0.969 . S
C30 O31 1.550 1_546 S
C30 H32 0.973 1_545 S
O31 C30 1.550 1_564 S
O31 C37 1.404 1_565 S
H32 C30 0.973 1_565 S
C33 H26 0.929 1_545 S
C33 C34 1.398 . S
C33 C35 1.365 . S
C34 C33 1.398 . S
C34 C38 1.376 . S
C35 C33 1.365 . S
C35 C36 1.374 1_545 S
C36 H27 0.924 1_554 S
C36 C35 1.374 1_565 S
C36 C37 1.378 1_565 S
C37 O31 1.404 1_545 S
C37 C36 1.378 1_545 S
C37 C38 1.398 . S
C38 H28 0.930 1_545 S
C38 C34 1.376 . S
C38 C37 1.398 . S
H39 C46 0.929 . S
H40 C49 0.930 . S
H41 C51 0.929 . S
H42 C43 0.969 . S
C43 H42 0.969 . S
C43 O44 1.550 . S
C43 H45 0.973 . S
O44 C43 1.550 . S
O44 C50 1.412 . S
H45 C43 0.973 . S
C46 H39 0.929 . S
C46 C47 1.400 . S
C46 C48 1.364 . S
C47 C46 1.400 . S
C47 C51 1.377 . S
C48 C46 1.364 . S
C48 C49 1.374 . S
C49 H40 0.930 . S
C49 C48 1.374 . S
C49 C50 1.383 . S
C50 O44 1.412 . S
C50 C49 1.383 . S
C50 C51 1.394 . S
C51 H41 0.929 . S
C51 C47 1.377 . S
C51 C50 1.394 . S
H52 C59 0.929 . S
H53 C62 0.930 . S
H54 C64 0.929 . S
H55 C56 0.969 . S
C56 H55 0.969 . S
C56 O57 1.550 . S
C56 H58 0.973 . S
O57 C56 1.550 . S
O57 C63 1.412 . S
H58 C56 0.973 . S
C59 H52 0.929 . S
C59 C60 1.400 . S
C59 C61 1.364 . S
C60 C59 1.400 . S
C60 C64 1.377 . S
C61 C59 1.364 . S
C61 C62 1.374 . S
C62 H53 0.930 . S
C62 C61 1.374 . S
C62 C63 1.383 . S
C63 O57 1.412 . S
C63 C62 1.383 . S
C63 C64 1.394 . S
C64 H54 0.929 . S
C64 C60 1.377 . S
C64 C63 1.394 . S
H65 C72 0.929 . S
H66 C75 0.930 . S
H67 C77 0.929 . S
H68 C69 0.969 . S
C69 H68 0.969 . S
C69 O70 1.550 . S
C69 H71 0.973 . S
O70 C69 1.550 . S
O70 C76 1.412 . S
H71 C69 0.973 . S
C72 H65 0.929 . S
C72 C73 1.400 . S
C72 C74 1.364 . S
C73 C72 1.400 . S
C73 C77 1.377 . S
C74 C72 1.364 . S
C74 C75 1.374 . S
C75 H66 0.930 . S
C75 C74 1.374 . S
C75 C76 1.383 . S
C76 O70 1.412 . S
C76 C75 1.383 . S
C76 C77 1.394 . S
C77 H67 0.929 . S
C77 C73 1.377 . S
C77 C76 1.394 . S
H78 C85 0.928 1_565 S
H79 C88 0.935 . S
H80 C90 0.926 1_565 S
H81 C82 0.969 . S
C82 H81 0.969 . S
C82 O83 1.550 1_545 S
C82 H84 0.973 1_545 S
O83 C82 1.550 1_565 S
O83 C89 1.403 1_565 S
H84 C82 0.973 1_565 S
C85 H78 0.928 1_545 S
C85 C86 1.401 . S
C85 C87 1.363 . S
C86 C85 1.401 . S
C86 C90 1.377 . S
C87 C85 1.363 . S
C87 C88 1.375 1_545 S
C88 H79 0.935 . S
C88 C87 1.375 1_565 S
C88 C89 1.386 1_565 S
C89 O83 1.403 1_545 S
C89 C88 1.386 1_545 S
C89 C90 1.390 . S
C90 H80 0.926 1_545 S
C90 C86 1.377 . S
C90 C89 1.390 . S
H91 C98 0.929 . S
H92 C101 0.930 . S
H93 C103 0.929 . S
H94 C95 0.969 . S
C95 H94 0.969 . S
C95 O96 1.550 . S
C95 H97 0.973 . S
O96 C95 1.550 . S
O96 C102 1.412 . S
H97 C95 0.973 . S
C98 H91 0.929 . S
C98 C99 1.400 . S
C98 C100 1.364 . S
C99 C98 1.400 . S
C99 C103 1.377 . S
C100 C98 1.364 . S
C100 C101 1.374 . S
C101 H92 0.930 . S
C101 C100 1.374 . S
C101 C102 1.383 . S
C102 O96 1.412 . S
C102 C101 1.383 . S
C102 C103 1.394 . S
C103 H93 0.929 . S
C103 C99 1.377 . S
C103 C102 1.394 . S
Co104 N109 2.057 . S
Co104 O121 2.021 . S
Co104 O124 2.062 . S
Co104 O128 2.117 1_455 S
Co104 O129 2.020 1_545 S
C105 O125 1.259 1_545 S
C105 O128 1.258 . S
Co106 N115 2.057 . S
Co106 O122 2.089 1_655 S
Co106 O123 2.017 1_665 S
Co106 O125 2.048 . S
Co106 O130 2.062 . S
C107 N109 1.316 . S
C107 N110 1.347 1_556 S
C107 H112 0.931 . S
C108 N109 1.375 1_655 S
C108 C111 1.350 1_656 S
C108 H113 0.930 . S
N109 Co104 2.057 . S
N109 C107 1.316 . S
N109 C108 1.375 1_455 S
N110 C107 1.347 1_554 S
N110 C111 1.373 . S
C111 C108 1.350 1_454 S
C111 N110 1.373 . S
C111 H132 0.931 1_455 S
H112 C107 0.931 . S
H113 C108 0.930 . S
C114 O121 1.259 1_565 S
C114 O122 1.258 . S
N115 Co106 2.057 . S
N115 C116 1.345 . S
N115 C117 1.346 1_655 S
C116 N115 1.345 . S
C116 N118 1.347 . S
C116 H127 0.931 . S
C117 N115 1.346 1_455 S
C117 C119 1.350 . S
C117 H126 0.930 . S
N118 C116 1.347 . S
N118 C119 1.373 1_655 S
C119 C117 1.350 . S
C119 N118 1.373 1_455 S
C119 H133 0.931 . S
C120 O123 1.256 . S
C120 O124 1.255 . S
O121 Co104 2.021 . S
O121 C114 1.259 1_545 S
O122 Co106 2.089 1_455 S
O122 C114 1.258 . S
O123 Co106 2.017 1_445 S
O123 C120 1.256 . S
O124 Co104 2.062 . S
O124 C120 1.255 . S
O125 C105 1.259 1_565 S
O125 Co106 2.048 . S
H126 C117 0.930 . S
H127 C116 0.931 . S
O128 Co104 2.117 1_655 S
O128 C105 1.258 . S
O129 Co104 2.020 1_565 S
O129 C131 1.256 . S
O130 Co106 2.062 . S
O130 C131 1.255 1_655 S
C131 O129 1.256 . S
C131 O130 1.255 1_455 S
H132 C111 0.931 1_655 S
H133 C119 0.931 . S
Co134 N139 2.057 1_545 S
Co134 O151 2.021 . S
Co134 O154 2.067 . S
Co134 O158 2.117 1_545 S
Co134 O159 2.020 . S
C135 O155 1.259 . S
C135 O158 1.258 . S
Co136 N145 2.057 1_565 S
Co136 O152 2.117 1_565 S
Co136 O153 2.020 . S
Co136 O155 2.021 . S
Co136 O160 2.065 . S
C137 N139 1.316 1_545 S
C137 N140 1.347 1_556 S
C137 H142 0.931 . S
C138 N139 1.375 1_554 S
C138 C141 1.350 . S
C138 H143 0.928 1_554 S
N139 Co134 2.057 1_565 S
N139 C137 1.316 1_565 S
N139 C138 1.375 1_556 S
N140 C137 1.347 1_554 S
N140 C141 1.373 1_545 S
C141 C138 1.350 . S
C141 N140 1.373 1_565 S
C141 H162 0.931 . S
H142 C137 0.931 . S
H143 C138 0.928 1_556 S
C144 O151 1.259 . S
C144 O152 1.258 . S
N145 Co136 2.057 1_545 S
N145 C146 1.316 1_545 S
N145 C147 1.375 . S
C146 N145 1.316 1_565 S
C146 N148 1.347 . S
C146 H157 0.931 . S
C147 N145 1.375 . S
C147 C149 1.350 . S
C147 H156 0.930 . S
N148 C146 1.347 . S
N148 C149 1.373 1_565 S
C149 C147 1.350 . S
C149 N148 1.373 1_545 S
C149 H163 0.931 . S
C150 O153 1.256 . S
C150 O154 1.245 1_565 S
O151 Co134 2.021 . S
O151 C144 1.259 . S
O152 Co136 2.117 1_545 S
O152 C144 1.258 . S
O153 Co136 2.020 . S
O153 C150 1.256 . S
O154 Co134 2.067 . S
O154 C150 1.245 1_545 S
O155 C135 1.259 . S
O155 Co136 2.021 . S
H156 C147 0.930 . S
H157 C146 0.931 . S
O158 Co134 2.117 1_565 S
O158 C135 1.258 . S
O159 Co134 2.020 . S
O159 C161 1.256 . S
O160 Co136 2.065 . S
O160 C161 1.249 1_565 S
C161 O159 1.256 . S
C161 O160 1.249 1_545 S
H162 C141 0.931 . S
H163 C149 0.931 . S
Co164 N169 2.057 . S
Co164 O181 2.021 . S
Co164 O184 2.062 . S
Co164 O188 2.117 . S
Co164 O189 2.020 . S
C165 O185 1.259 . S
C165 O188 1.258 . S
Co166 N175 2.057 . S
Co166 O182 2.117 . S
Co166 O183 2.020 . S
Co166 O185 2.021 . S
Co166 O190 2.062 . S
C167 N169 1.316 . S
C167 N170 1.347 . S
C167 H172 0.931 . S
C168 N169 1.375 . S
C168 C171 1.350 . S
C168 H173 0.930 . S
N169 Co164 2.057 . S
N169 C167 1.316 . S
N169 C168 1.375 . S
N170 C167 1.347 . S
N170 C171 1.373 . S
C171 C168 1.350 . S
C171 N170 1.373 . S
C171 H192 0.931 . S
H172 C167 0.931 . S
H173 C168 0.930 . S
C174 O181 1.259 . S
C174 O182 1.258 . S
N175 Co166 2.057 . S
N175 C176 1.316 . S
N175 C177 1.375 . S
C176 N175 1.316 . S
C176 N178 1.347 . S
C176 H187 0.931 . S
C177 N175 1.375 . S
C177 C179 1.350 . S
C177 H186 0.930 . S
N178 C176 1.347 . S
N178 C179 1.373 . S
C179 C177 1.350 . S
C179 N178 1.373 . S
C179 H193 0.931 . S
C180 O183 1.256 . S
C180 O184 1.255 . S
O181 Co164 2.021 . S
O181 C174 1.259 . S
O182 Co166 2.117 . S
O182 C174 1.258 . S
O183 Co166 2.020 . S
O183 C180 1.256 . S
O184 Co164 2.062 . S
O184 C180 1.255 . S
O185 C165 1.259 . S
O185 Co166 2.021 . S
H186 C177 0.930 . S
H187 C176 0.931 . S
O188 Co164 2.117 . S
O188 C165 1.258 . S
O189 Co164 2.020 . S
O189 C191 1.256 . S
O190 Co166 2.062 . S
O190 C191 1.255 . S
C191 O189 1.256 . S
C191 O190 1.255 . S
H192 C171 0.931 . S
H193 C179 0.931 . S
Co194 N199 2.057 . S
Co194 O211 2.021 1_455 S
Co194 O214 2.062 1_455 S
Co194 O218 2.117 . S
Co194 O219 2.020 . S
C195 O215 1.259 . S
C195 O218 1.258 . S
Co196 N205 2.057 . S
Co196 O212 2.117 1_455 S
Co196 O213 2.020 1_455 S
Co196 O215 2.021 . S
Co196 O220 2.062 . S
C197 N199 1.316 1_655 S
C197 N200 1.347 1_655 S
C197 H202 0.931 . S
C198 N199 1.375 . S
C198 C201 1.350 . S
C198 H203 0.930 . S
N199 Co194 2.057 . S
N199 C197 1.316 1_455 S
N199 C198 1.375 . S
N200 C197 1.347 1_455 S
N200 C201 1.373 . S
C201 C198 1.350 . S
C201 N200 1.373 . S
C201 H222 0.931 . S
H202 C197 0.931 . S
H203 C198 0.930 . S
C204 O211 1.259 . S
C204 O212 1.258 . S
N205 Co196 2.057 . S
N205 C206 1.316 . S
N205 C207 1.375 1_455 S
C206 N205 1.316 . S
C206 N208 1.347 . S
C206 H217 0.931 . S
C207 N205 1.375 1_655 S
C207 C209 1.350 . S
C207 H216 0.930 . S
N208 C206 1.347 . S
N208 C209 1.373 1_455 S
C209 C207 1.350 . S
C209 N208 1.373 1_655 S
C209 H223 0.931 . S
C210 O213 1.256 . S
C210 O214 1.255 . S
O211 Co194 2.021 1_655 S
O211 C204 1.259 . S
O212 Co196 2.117 1_655 S
O212 C204 1.258 . S
O213 Co196 2.020 1_655 S
O213 C210 1.256 . S
O214 Co194 2.062 1_655 S
O214 C210 1.255 . S
O215 C195 1.259 . S
O215 Co196 2.021 . S
H216 C207 0.930 . S
H217 C206 0.931 . S
O218 Co194 2.117 . S
O218 C195 1.258 . S
O219 Co194 2.020 . S
O219 C221 1.256 . S
O220 Co196 2.062 . S
O220 C221 1.255 . S
C221 O219 1.256 . S
C221 O220 1.255 . S
H222 C201 0.931 . S
H223 C209 0.931 . S
H224 C232 0.950 . S
H225 C237 0.950 . S
H226 C234 0.950 . S
H227 C236 0.950 . S
H228 C238 0.950 . S
H229 C240 0.950 . S
H230 C242 0.950 . S
H231 C243 0.950 . S
C232 H224 0.950 . S
C232 C233 1.357 1_545 S
C232 C234 1.391 . S
C233 C232 1.357 1_565 S
C233 C237 1.420 . S
C234 H226 0.950 . S
C234 C232 1.391 . S
C234 C235 1.400 1_545 S
C235 C234 1.400 1_565 S
C235 C236 1.398 . S
C235 C241 1.491 . S
C236 H227 0.950 . S
C236 C235 1.398 . S
C236 C237 1.391 . S
C237 H225 0.950 . S
C237 C233 1.420 . S
C237 C236 1.391 . S
C238 H228 0.950 . S
C238 C239 1.386 . S
C238 C240 1.391 . S
C239 C238 1.386 . S
C239 C243 1.393 1_565 S
C240 H229 0.950 . S
C240 C238 1.391 . S
C240 C241 1.400 . S
C241 C235 1.491 . S
C241 C240 1.400 . S
C241 C242 1.398 1_565 S
C242 H230 0.950 . S
C242 C241 1.398 1_545 S
C242 C243 1.391 . S
C243 H231 0.950 . S
C243 C239 1.393 1_545 S
C243 C242 1.391 . S
H244 C252 0.950 . S
H245 C257 0.950 . S
H246 C254 0.950 . S
H247 C256 0.950 . S
H248 C258 0.950 . S
H249 C260 0.950 . S
H250 C262 0.950 . S
H251 C263 0.950 . S
C252 H244 0.950 . S
C252 C253 1.386 . S
C252 C254 1.391 . S
C253 C252 1.386 . S
C253 C257 1.393 . S
C254 H246 0.950 . S
C254 C252 1.391 . S
C254 C255 1.400 . S
C255 C254 1.400 . S
C255 C256 1.398 . S
C255 C261 1.491 . S
C256 H247 0.950 . S
C256 C255 1.398 . S
C256 C257 1.391 . S
C257 H245 0.950 . S
C257 C253 1.393 . S
C257 C256 1.391 . S
C258 H248 0.950 . S
C258 C259 1.386 . S
C258 C260 1.391 . S
C259 C258 1.386 . S
C259 C263 1.393 . S
C260 H249 0.950 . S
C260 C258 1.391 . S
C260 C261 1.400 . S
C261 C255 1.491 . S
C261 C260 1.400 . S
C261 C262 1.398 . S
C262 H250 0.950 . S
C262 C261 1.398 . S
C262 C263 1.391 . S
C263 H251 0.950 . S
C263 C259 1.393 . S
C263 C262 1.391 . S
H264 C272 0.950 . S
H265 C277 0.950 . S
H266 C274 0.950 . S
H267 C276 0.950 . S
H268 C278 0.950 . S
H269 C280 0.950 . S
H270 C282 0.950 . S
H271 C283 0.950 . S
C272 H264 0.950 . S
C272 C273 1.386 . S
C272 C274 1.391 . S
C273 C272 1.386 . S
C273 C277 1.393 . S
C274 H266 0.950 . S
C274 C272 1.391 . S
C274 C275 1.400 . S
C275 C274 1.400 . S
C275 C276 1.398 . S
C275 C281 1.491 . S
C276 H267 0.950 . S
C276 C275 1.398 . S
C276 C277 1.391 . S
C277 H265 0.950 . S
C277 C273 1.393 . S
C277 C276 1.391 . S
C278 H268 0.950 . S
C278 C279 1.386 . S
C278 C280 1.391 . S
C279 C278 1.386 . S
C279 C283 1.393 . S
C280 H269 0.950 . S
C280 C278 1.391 . S
C280 C281 1.400 . S
C281 C275 1.491 . S
C281 C280 1.400 . S
C281 C282 1.398 . S
C282 H270 0.950 . S
C282 C281 1.398 . S
C282 C283 1.391 . S
C283 H271 0.950 . S
C283 C279 1.393 . S
C283 C282 1.391 . S
H284 C292 0.950 . S
H285 C297 0.950 . S
H286 C294 0.950 . S
H287 C296 0.950 . S
H288 C298 0.950 . S
H289 C300 0.950 . S
H290 C302 0.950 . S
H291 C303 0.950 1_655 S
C292 H284 0.950 . S
C292 C293 1.386 . S
C292 C294 1.391 . S
C293 C292 1.386 . S
C293 C297 1.393 . S
C294 H286 0.950 . S
C294 C292 1.391 . S
C294 C295 1.400 . S
C295 C294 1.400 . S
C295 C296 1.398 . S
C295 C301 1.491 . S
C296 H287 0.950 . S
C296 C295 1.398 . S
C296 C297 1.391 . S
C297 H285 0.950 . S
C297 C293 1.393 . S
C297 C296 1.391 . S
C298 H288 0.950 . S
C298 C299 1.386 . S
C298 C300 1.391 . S
C299 C298 1.386 . S
C299 C303 1.393 . S
C300 H289 0.950 . S
C300 C298 1.391 . S
C300 C301 1.400 . S
C301 C295 1.491 . S
C301 C300 1.400 . S
C301 C302 1.398 . S
C302 H290 0.950 . S
C302 C301 1.398 . S
C302 C303 1.391 . S
C303 H291 0.950 1_455 S
C303 C299 1.393 . S
C303 C302 1.391 . S
H304 C312 0.950 . S
H305 C317 0.950 . S
H306 C314 0.950 . S
H307 C316 0.950 . S
H308 C318 0.950 . S
H309 C320 0.950 . S
H310 C322 0.950 . S
H311 C323 0.950 . S
C312 H304 0.950 . S
C312 C313 1.418 . S
C312 C314 1.391 . S
C313 C312 1.418 . S
C313 C317 1.360 1_546 S
C314 H306 0.950 . S
C314 C312 1.391 . S
C314 C315 1.400 . S
C315 C314 1.400 . S
C315 C316 1.398 1_545 S
C315 C321 1.491 . S
C316 H307 0.950 . S
C316 C315 1.398 1_565 S
C316 C317 1.391 1_556 S
C317 H305 0.950 . S
C317 C313 1.360 1_564 S
C317 C316 1.391 1_554 S
C318 H308 0.950 . S
C318 C319 1.386 1_565 S
C318 C320 1.391 . S
C319 C318 1.386 1_545 S
C319 C323 1.393 . S
C320 H309 0.950 . S
C320 C318 1.391 . S
C320 C321 1.400 1_565 S
C321 C315 1.491 . S
C321 C320 1.400 1_545 S
C321 C322 1.398 . S
C322 H310 0.950 . S
C322 C321 1.398 . S
C322 C323 1.391 . S
C323 H311 0.950 . S
C323 C319 1.393 . S
C323 C322 1.391 . S
H324 C332 0.950 . S
H325 C337 0.950 . S
H326 C334 0.950 . S
H327 C336 0.950 . S
H328 C338 0.950 . S
H329 C340 0.950 . S
H330 C342 0.950 1_554 S
H331 C343 0.950 . S
C332 H324 0.950 . S
C332 C333 1.386 . S
C332 C334 1.391 . S
C333 C332 1.386 . S
C333 C337 1.393 1_554 S
C334 H326 0.950 . S
C334 C332 1.391 . S
C334 C335 1.400 1_554 S
C335 C334 1.400 1_556 S
C335 C336 1.398 . S
C335 C341 1.491 . S
C336 H327 0.950 . S
C336 C335 1.398 . S
C336 C337 1.391 . S
C337 H325 0.950 . S
C337 C333 1.393 1_556 S
C337 C336 1.391 . S
C338 H328 0.950 . S
C338 C339 1.386 . S
C338 C340 1.391 . S
C339 C338 1.386 . S
C339 C343 1.393 . S
C340 H329 0.950 . S
C340 C338 1.391 . S
C340 C341 1.400 . S
C341 C335 1.491 . S
C341 C340 1.400 . S
C341 C342 1.398 . S
C342 H330 0.950 1_556 S
C342 C341 1.398 . S
C342 C343 1.391 . S
C343 H331 0.950 . S
C343 C339 1.393 . S
C343 C342 1.391 . S
H344 C352 0.950 . S
H345 C357 0.956 . S
H346 C354 0.950 . S
H347 C356 0.950 . S
H348 C358 0.950 . S
H349 C360 0.950 . S
H350 C362 0.950 . S
H351 C363 0.950 . S
C352 H344 0.950 . S
C352 C353 1.386 . S
C352 C354 1.391 . S
C353 C352 1.386 . S
C353 C357 1.393 . S
C354 H346 0.950 . S
C354 C352 1.391 . S
C354 C355 1.400 . S
C355 C354 1.400 . S
C355 C356 1.398 1_554 S
C355 C361 1.491 1_554 S
C356 H347 0.950 . S
C356 C355 1.398 1_556 S
C356 C357 1.391 1_556 S
C357 H345 0.956 . S
C357 C353 1.393 . S
C357 C356 1.391 1_554 S
C358 H348 0.950 . S
C358 C359 1.386 . S
C358 C360 1.391 . S
C359 C358 1.386 . S
C359 C363 1.393 . S
C360 H349 0.950 . S
C360 C358 1.391 . S
C360 C361 1.400 . S
C361 C355 1.491 1_556 S
C361 C360 1.400 . S
C361 C362 1.398 1_556 S
C362 H350 0.950 . S
C362 C361 1.398 1_554 S
C362 C363 1.391 1_554 S
C363 H351 0.950 . S
C363 C359 1.393 . S
C363 C362 1.391 1_556 S
H364 C372 0.950 . S
H365 C377 0.950 . S
H366 C374 0.950 . S
H367 C376 0.950 . S
H368 C378 0.950 . S
H369 C380 0.950 . S
H370 C382 0.950 1_554 S
H371 C383 0.950 . S
C372 H364 0.950 . S
C372 C373 1.386 . S
C372 C374 1.391 . S
C373 C372 1.386 . S
C373 C377 1.393 1_554 S
C374 H366 0.950 . S
C374 C372 1.391 . S
C374 C375 1.400 1_554 S
C375 C374 1.400 1_556 S
C375 C376 1.398 . S
C375 C381 1.491 . S
C376 H367 0.950 . S
C376 C375 1.398 . S
C376 C377 1.391 . S
C377 H365 0.950 . S
C377 C373 1.393 1_556 S
C377 C376 1.391 . S
C378 H368 0.950 . S
C378 C379 1.386 . S
C378 C380 1.391 . S
C379 C378 1.386 . S
C379 C383 1.393 . S
C380 H369 0.950 . S
C380 C378 1.391 . S
C380 C381 1.400 . S
C381 C375 1.491 . S
C381 C380 1.400 . S
C381 C382 1.398 . S
C382 H370 0.950 1_556 S
C382 C381 1.398 . S
C382 C383 1.391 . S
C383 H371 0.950 . S
C383 C379 1.393 . S
C383 C382 1.391 . S
H384 C392 0.950 . S
H385 C397 0.950 . S
H386 C394 0.950 . S
H387 C396 0.950 . S
H388 C398 0.950 . S
H389 C400 0.950 . S
H390 C402 0.934 1_655 S
H391 C403 0.950 . S
C392 H384 0.950 . S
C392 C393 1.386 . S
C392 C394 1.391 . S
C393 C392 1.386 . S
C393 C397 1.393 . S
C394 H386 0.950 . S
C394 C392 1.391 . S
C394 C395 1.400 . S
C395 C394 1.400 . S
C395 C396 1.398 . S
C395 C401 1.491 . S
C396 H387 0.950 . S
C396 C395 1.398 . S
C396 C397 1.391 . S
C397 H385 0.950 . S
C397 C393 1.393 . S
C397 C396 1.391 . S
C398 H388 0.950 . S
C398 C399 1.386 . S
C398 C400 1.391 . S
C399 C398 1.386 . S
C399 C403 1.393 1_455 S
C400 H389 0.950 . S
C400 C398 1.391 . S
C400 C401 1.400 . S
C401 C395 1.491 . S
C401 C400 1.400 . S
C401 C402 1.398 . S
C402 H390 0.934 1_455 S
C402 C401 1.398 . S
C402 C403 1.391 1_455 S
C403 H391 0.950 . S
C403 C399 1.393 1_655 S
C403 C402 1.391 1_655 S
H404 C412 0.950 . S
H405 C417 0.950 . S
H406 C414 0.950 . S
H407 C416 0.950 . S
H408 C418 0.950 . S
H409 C420 0.950 . S
H410 C422 0.950 . S
H411 C423 0.960 . S
C412 H404 0.950 . S
C412 C413 1.375 1_545 S
C412 C414 1.391 . S
C413 C412 1.375 1_565 S
C413 C417 1.407 . S
C414 H406 0.950 . S
C414 C412 1.391 . S
C414 C415 1.400 1_545 S
C415 C414 1.400 1_565 S
C415 C416 1.398 . S
C415 C421 1.491 . S
C416 H407 0.950 . S
C416 C415 1.398 . S
C416 C417 1.391 . S
C417 H405 0.950 . S
C417 C413 1.407 . S
C417 C416 1.391 . S
C418 H408 0.950 . S
C418 C419 1.386 . S
C418 C420 1.391 . S
C419 C418 1.386 . S
C419 C423 1.383 1_565 S
C420 H409 0.950 . S
C420 C418 1.391 . S
C420 C421 1.400 . S
C421 C415 1.491 . S
C421 C420 1.400 . S
C421 C422 1.398 1_565 S
C422 H410 0.950 . S
C422 C421 1.398 1_545 S
C422 C423 1.392 . S
C423 H411 0.960 . S
C423 C419 1.383 1_545 S
C423 C422 1.392 . S
H424 C432 0.950 . S
H425 C437 0.950 . S
H426 C434 0.950 . S
H427 C436 0.950 . S
H428 C438 0.950 . S
H429 C440 0.950 . S
H430 C442 0.950 . S
H431 C443 0.950 . S
C432 H424 0.950 . S
C432 C433 1.386 . S
C432 C434 1.391 . S
C433 C432 1.386 . S
C433 C437 1.393 . S
C434 H426 0.950 . S
C434 C432 1.391 . S
C434 C435 1.400 . S
C435 C434 1.400 . S
C435 C436 1.398 . S
C435 C441 1.491 . S
C436 H427 0.950 . S
C436 C435 1.398 . S
C436 C437 1.391 . S
C437 H425 0.950 . S
C437 C433 1.393 . S
C437 C436 1.391 . S
C438 H428 0.950 . S
C438 C439 1.386 . S
C438 C440 1.391 . S
C439 C438 1.386 . S
C439 C443 1.393 . S
C440 H429 0.950 . S
C440 C438 1.391 . S
C440 C441 1.400 . S
C441 C435 1.491 . S
C441 C440 1.400 . S
C441 C442 1.398 . S
C442 H430 0.950 . S
C442 C441 1.398 . S
C442 C443 1.391 . S
C443 H431 0.950 . S
C443 C439 1.393 . S
C443 C442 1.391 . S
H444 C452 0.950 . S
H445 C457 0.950 . S
H446 C454 0.950 . S
H447 C456 0.950 . S
H448 C458 0.950 . S
H449 C460 0.950 . S
H450 C462 0.950 . S
H451 C463 0.950 . S
C452 H444 0.950 . S
C452 C453 1.386 . S
C452 C454 1.391 . S
C453 C452 1.386 . S
C453 C457 1.393 . S
C454 H446 0.950 . S
C454 C452 1.391 . S
C454 C455 1.400 . S
C455 C454 1.400 . S
C455 C456 1.398 . S
C455 C461 1.491 . S
C456 H447 0.950 . S
C456 C455 1.398 . S
C456 C457 1.391 . S
C457 H445 0.950 . S
C457 C453 1.393 . S
C457 C456 1.391 . S
C458 H448 0.950 . S
C458 C459 1.386 . S
C458 C460 1.391 . S
C459 C458 1.386 . S
C459 C463 1.393 . S
C460 H449 0.950 . S
C460 C458 1.391 . S
C460 C461 1.400 . S
C461 C455 1.491 . S
C461 C460 1.400 . S
C461 C462 1.398 . S
C462 H450 0.950 . S
C462 C461 1.398 . S
C462 C463 1.391 . S
C463 H451 0.950 . S
C463 C459 1.393 . S
C463 C462 1.391 . S
H464 C472 0.950 . S
H465 C477 0.950 . S
H466 C474 0.950 . S
H467 C476 0.950 . S
H468 C478 0.950 . S
H469 C480 0.950 . S
H470 C482 0.950 1_554 S
H471 C483 0.950 . S
C472 H464 0.950 . S
C472 C473 1.386 . S
C472 C474 1.391 . S
C473 C472 1.386 . S
C473 C477 1.393 1_554 S
C474 H466 0.950 . S
C474 C472 1.391 . S
C474 C475 1.400 1_554 S
C475 C474 1.400 1_556 S
C475 C476 1.398 . S
C475 C481 1.491 . S
C476 H467 0.950 . S
C476 C475 1.398 . S
C476 C477 1.391 . S
C477 H465 0.950 . S
C477 C473 1.393 1_556 S
C477 C476 1.391 . S
C478 H468 0.950 . S
C478 C479 1.386 . S
C478 C480 1.391 1_455 S
C479 C478 1.386 . S
C479 C483 1.393 1_455 S
C480 H469 0.950 . S
C480 C478 1.391 1_655 S
C480 C481 1.400 . S
C481 C475 1.491 . S
C481 C480 1.400 . S
C481 C482 1.398 . S
C482 H470 0.950 1_556 S
C482 C481 1.398 . S
C482 C483 1.391 . S
C483 H471 0.950 . S
C483 C479 1.393 1_655 S
C483 C482 1.391 . S
H484 C492 0.950 . S
H485 C497 0.950 . S
H486 C494 0.950 . S
H487 C496 0.950 . S
H488 C498 0.949 1_565 S
H489 C500 0.948 1_564 S
H490 C502 0.950 . S
H491 C503 0.950 . S
C492 H484 0.950 . S
C492 C493 1.384 1_545 S
C492 C494 1.391 . S
C493 C492 1.384 1_565 S
C493 C497 1.395 1_556 S
C494 H486 0.950 . S
C494 C492 1.391 . S
C494 C495 1.400 . S
C495 C494 1.400 . S
C495 C496 1.398 1_546 S
C495 C501 1.491 . S
C496 H487 0.950 . S
C496 C495 1.398 1_564 S
C496 C497 1.391 . S
C497 H485 0.950 . S
C497 C493 1.395 1_554 S
C497 C496 1.391 . S
C498 H488 0.949 1_545 S
C498 C499 1.386 . S
C498 C500 1.392 . S
C499 C498 1.386 . S
C499 C503 1.393 . S
C500 H489 0.948 1_546 S
C500 C498 1.392 . S
C500 C501 1.401 . S
C501 C495 1.491 . S
C501 C500 1.401 . S
C501 C502 1.398 . S
C502 H490 0.950 . S
C502 C501 1.398 . S
C502 C503 1.391 . S
C503 H491 0.950 . S
C503 C499 1.393 . S
C503 C502 1.391 . S
H504 C512 0.950 . S
H505 C517 0.950 . S
H506 C514 0.950 . S
H507 C516 0.950 . S
H508 C518 0.950 . S
H509 C520 0.950 . S
H510 C522 0.950 . S
H511 C523 0.950 . S
C512 H504 0.950 . S
C512 C513 1.386 1_556 S
C512 C514 1.391 . S
C513 C512 1.386 1_554 S
C513 C517 1.393 . S
C514 H506 0.950 . S
C514 C512 1.391 . S
C514 C515 1.400 . S
C515 C514 1.400 . S
C515 C516 1.398 1_556 S
C515 C521 1.491 . S
C516 H507 0.950 . S
C516 C515 1.398 1_554 S
C516 C517 1.391 . S
C517 H505 0.950 . S
C517 C513 1.393 . S
C517 C516 1.391 . S
C518 H508 0.950 . S
C518 C519 1.386 . S
C518 C520 1.391 . S
C519 C518 1.386 . S
C519 C523 1.393 . S
C520 H509 0.950 . S
C520 C518 1.391 . S
C520 C521 1.400 . S
C521 C515 1.491 . S
C521 C520 1.400 . S
C521 C522 1.398 . S
C522 H510 0.950 . S
C522 C521 1.398 . S
C522 C523 1.391 . S
C523 H511 0.950 . S
C523 C519 1.393 . S
C523 C522 1.391 . S
H524 C532 0.950 . S
H525 C537 0.950 . S
H526 C534 0.950 . S
H527 C536 0.950 . S
H528 C538 0.950 . S
H529 C540 0.950 . S
H530 C542 0.950 . S
H531 C543 0.950 . S
C532 H524 0.950 . S
C532 C533 1.386 . S
C532 C534 1.391 . S
C533 C532 1.386 . S
C533 C537 1.393 . S
C534 H526 0.950 . S
C534 C532 1.391 . S
C534 C535 1.400 . S
C535 C534 1.400 . S
C535 C536 1.398 . S
C535 C541 1.491 1_554 S
C536 H527 0.950 . S
C536 C535 1.398 . S
C536 C537 1.391 . S
C537 H525 0.950 . S
C537 C533 1.393 . S
C537 C536 1.391 . S
C538 H528 0.950 . S
C538 C539 1.386 . S
C538 C540 1.391 . S
C539 C538 1.386 . S
C539 C543 1.393 . S
C540 H529 0.950 . S
C540 C538 1.391 . S
C540 C541 1.400 . S
C541 C535 1.491 1_556 S
C541 C540 1.400 . S
C541 C542 1.398 . S
C542 H530 0.950 . S
C542 C541 1.398 . S
C542 C543 1.391 . S
C543 H531 0.950 . S
C543 C539 1.393 . S
C543 C542 1.391 . S
H544 C552 0.950 . S
H545 C557 0.950 . S
H546 C554 0.950 . S
H547 C556 0.950 . S
H548 C558 0.950 . S
H549 C560 0.950 . S
H550 C562 0.950 . S
H551 C563 0.950 1_556 S
C552 H544 0.950 . S
C552 C553 1.386 . S
C552 C554 1.391 . S
C553 C552 1.386 . S
C553 C557 1.393 . S
C554 H546 0.950 . S
C554 C552 1.391 . S
C554 C555 1.400 . S
C555 C554 1.400 . S
C555 C556 1.398 . S
C555 C561 1.491 . S
C556 H547 0.950 . S
C556 C555 1.398 . S
C556 C557 1.391 . S
C557 H545 0.950 . S
C557 C553 1.393 . S
C557 C556 1.391 . S
C558 H548 0.950 . S
C558 C559 1.386 . S
C558 C560 1.391 . S
C559 C558 1.386 . S
C559 C563 1.393 . S
C560 H549 0.950 . S
C560 C558 1.391 . S
C560 C561 1.400 . S
C561 C555 1.491 . S
C561 C560 1.400 . S
C561 C562 1.398 . S
C562 H550 0.950 . S
C562 C561 1.398 . S
C562 C563 1.391 . S
C563 H551 0.950 1_554 S
C563 C559 1.393 . S
C563 C562 1.391 . S
H564 C572 0.950 . S
H565 C577 0.950 . S
H566 C574 0.950 . S
H567 C576 0.950 . S
H568 C578 0.950 . S
H569 C580 0.950 . S
H570 C582 0.950 . S
H571 C583 0.950 . S
C572 H564 0.950 . S
C572 C573 1.386 . S
C572 C574 1.391 . S
C573 C572 1.386 . S
C573 C577 1.393 1_545 S
C574 H566 0.950 . S
C574 C572 1.391 . S
C574 C575 1.400 . S
C575 C574 1.400 . S
C575 C576 1.398 1_545 S
C575 C581 1.491 . S
C576 H567 0.950 . S
C576 C575 1.398 1_565 S
C576 C577 1.391 . S
C577 H565 0.950 . S
C577 C573 1.393 1_565 S
C577 C576 1.391 . S
C578 H568 0.950 . S
C578 C579 1.386 1_565 S
C578 C580 1.391 . S
C579 C578 1.386 1_545 S
C579 C583 1.393 . S
C580 H569 0.950 . S
C580 C578 1.391 . S
C580 C581 1.400 1_565 S
C581 C575 1.491 . S
C581 C580 1.400 1_545 S
C581 C582 1.398 . S
C582 H570 0.950 . S
C582 C581 1.398 . S
C582 C583 1.391 . S
C583 H571 0.950 . S
C583 C579 1.393 . S
C583 C582 1.391 . S
H584 C592 0.950 . S
H585 C597 0.950 . S
H586 C594 0.950 . S
H587 C596 0.950 . S
H588 C598 0.950 . S
H589 C600 0.950 . S
H590 C602 0.950 . S
H591 C603 0.950 . S
C592 H584 0.950 . S
C592 C593 1.386 . S
C592 C594 1.391 . S
C593 C592 1.386 . S
C593 C597 1.393 . S
C594 H586 0.950 . S
C594 C592 1.391 . S
C594 C595 1.400 . S
C595 C594 1.400 . S
C595 C596 1.398 . S
C595 C601 1.491 . S
C596 H587 0.950 . S
C596 C595 1.398 . S
C596 C597 1.391 . S
C597 H585 0.950 . S
C597 C593 1.393 . S
C597 C596 1.391 . S
C598 H588 0.950 . S
C598 C599 1.386 1_554 S
C598 C600 1.391 . S
C599 C598 1.386 1_556 S
C599 C603 1.393 . S
C600 H589 0.950 . S
C600 C598 1.391 . S
C600 C601 1.400 . S
C601 C595 1.491 . S
C601 C600 1.400 . S
C601 C602 1.398 . S
C602 H590 0.950 . S
C602 C601 1.398 . S
C602 C603 1.391 1_554 S
C603 H591 0.950 . S
C603 C599 1.393 . S
C603 C602 1.391 1_556 S
H604 C612 0.950 . S
H605 C617 0.950 . S
H606 C614 0.950 . S
H607 C616 0.950 . S
H608 C618 0.950 . S
H609 C620 0.950 . S
H610 C622 0.950 . S
H611 C623 0.950 . S
C612 H604 0.950 . S
C612 C613 1.386 . S
C612 C614 1.391 . S
C613 C612 1.386 . S
C613 C617 1.393 . S
C614 H606 0.950 . S
C614 C612 1.391 . S
C614 C615 1.400 . S
C615 C614 1.400 . S
C615 C616 1.398 . S
C615 C621 1.491 . S
C616 H607 0.950 . S
C616 C615 1.398 . S
C616 C617 1.391 . S
C617 H605 0.950 . S
C617 C613 1.393 . S
C617 C616 1.391 . S
C618 H608 0.950 . S
C618 C619 1.386 . S
C618 C620 1.391 1_556 S
C619 C618 1.386 . S
C619 C623 1.393 1_556 S
C620 H609 0.950 . S
C620 C618 1.391 1_554 S
C620 C621 1.400 . S
C621 C615 1.491 . S
C621 C620 1.400 . S
C621 C622 1.398 . S
C622 H610 0.950 . S
C622 C621 1.398 . S
C622 C623 1.391 . S
C623 H611 0.950 . S
C623 C619 1.393 1_554 S
C623 C622 1.391 . S
H624 C632 0.950 . S
H625 C637 0.950 . S
H626 C634 0.950 . S
H627 C636 0.950 . S
H628 C638 0.950 1_455 S
H629 C640 0.950 . S
H630 C642 0.950 . S
H631 C643 0.950 . S
C632 H624 0.950 . S
C632 C633 1.386 . S
C632 C634 1.391 . S
C633 C632 1.386 . S
C633 C637 1.393 . S
C634 H626 0.950 . S
C634 C632 1.391 . S
C634 C635 1.400 . S
C635 C634 1.400 . S
C635 C636 1.398 . S
C635 C641 1.491 . S
C636 H627 0.950 . S
C636 C635 1.398 . S
C636 C637 1.391 . S
C637 H625 0.950 . S
C637 C633 1.393 . S
C637 C636 1.391 . S
C638 H628 0.950 1_655 S
C638 C639 1.386 . S
C638 C640 1.391 . S
C639 C638 1.386 . S
C639 C643 1.393 . S
C640 H629 0.950 . S
C640 C638 1.391 . S
C640 C641 1.400 . S
C641 C635 1.491 . S
C641 C640 1.400 . S
C641 C642 1.398 . S
C642 H630 0.950 . S
C642 C641 1.398 . S
C642 C643 1.391 . S
C643 H631 0.950 . S
C643 C639 1.393 . S
C643 C642 1.391 . S
H644 C652 0.950 . S
H645 C657 0.950 . S
H646 C654 0.950 . S
H647 C656 0.950 . S
H648 C658 0.950 . S
H649 C660 0.950 . S
H650 C662 0.950 . S
H651 C663 0.950 . S
C652 H644 0.950 . S
C652 C653 1.386 . S
C652 C654 1.391 . S
C653 C652 1.386 . S
C653 C657 1.393 1_565 S
C654 H646 0.950 . S
C654 C652 1.391 . S
C654 C655 1.400 . S
C655 C654 1.400 . S
C655 C656 1.398 1_565 S
C655 C661 1.491 . S
C656 H647 0.950 . S
C656 C655 1.398 1_545 S
C656 C657 1.391 . S
C657 H645 0.950 . S
C657 C653 1.393 1_545 S
C657 C656 1.391 . S
C658 H648 0.950 . S
C658 C659 1.386 1_545 S
C658 C660 1.391 . S
C659 C658 1.386 1_565 S
C659 C663 1.393 . S
C660 H649 0.950 . S
C660 C658 1.391 . S
C660 C661 1.400 1_545 S
C661 C655 1.491 . S
C661 C660 1.400 1_565 S
C661 C662 1.398 . S
C662 H650 0.950 . S
C662 C661 1.398 . S
C662 C663 1.391 . S
C663 H651 0.950 . S
C663 C659 1.393 . S
C663 C662 1.391 . S
H664 C672 0.950 . S
H665 C677 0.950 . S
H666 C674 0.950 . S
H667 C676 0.950 . S
H668 C678 0.950 . S
H669 C680 0.950 . S
H670 C682 0.950 . S
H671 C683 0.950 . S
C672 H664 0.950 . S
C672 C673 1.386 . S
C672 C674 1.391 . S
C673 C672 1.386 . S
C673 C677 1.393 . S
C674 H666 0.950 . S
C674 C672 1.391 . S
C674 C675 1.400 . S
C675 C674 1.400 . S
C675 C676 1.398 . S
C675 C681 1.491 . S
C676 H667 0.950 . S
C676 C675 1.398 . S
C676 C677 1.391 . S
C677 H665 0.950 . S
C677 C673 1.393 . S
C677 C676 1.391 . S
C678 H668 0.950 . S
C678 C679 1.386 . S
C678 C680 1.391 . S
C679 C678 1.386 . S
C679 C683 1.393 . S
C680 H669 0.950 . S
C680 C678 1.391 . S
C680 C681 1.400 . S
C681 C675 1.491 . S
C681 C680 1.400 . S
C681 C682 1.398 . S
C682 H670 0.950 . S
C682 C681 1.398 . S
C682 C683 1.391 . S
C683 H671 0.950 . S
C683 C679 1.393 . S
C683 C682 1.391 . S
H684 C692 0.950 . S
H685 C697 0.950 . S
H686 C694 0.950 . S
H687 C696 0.950 . S
H688 C698 0.950 . S
H689 C700 0.950 . S
H690 C702 0.950 . S
H691 C703 0.950 . S
C692 H684 0.950 . S
C692 C693 1.386 . S
C692 C694 1.391 . S
C693 C692 1.386 . S
C693 C697 1.393 . S
C694 H686 0.950 . S
C694 C692 1.391 . S
C694 C695 1.400 . S
C695 C694 1.400 . S
C695 C696 1.398 . S
C695 C701 1.491 . S
C696 H687 0.950 . S
C696 C695 1.398 . S
C696 C697 1.391 . S
C697 H685 0.950 . S
C697 C693 1.393 . S
C697 C696 1.391 . S
C698 H688 0.950 . S
C698 C699 1.386 . S
C698 C700 1.391 . S
C699 C698 1.386 . S
C699 C703 1.393 . S
C700 H689 0.950 . S
C700 C698 1.391 . S
C700 C701 1.400 . S
C701 C695 1.491 . S
C701 C700 1.400 . S
C701 C702 1.398 . S
C702 H690 0.950 . S
C702 C701 1.398 . S
C702 C703 1.391 . S
C703 H691 0.950 . S
C703 C699 1.393 . S
C703 C702 1.391 . S
C233 C82 1.606 1_565 S
C239 C114 1.674 . S
C259 C144 1.804 . S
C253 C95 1.735 . S
C279 N178 1.358 . S
C273 C56 1.300 . S
C299 N208 1.387 . S
C293 C69 1.340 . S
C319 C105 1.674 . S
C313 C30 1.603 . S
C333 C43 1.691 . S
C339 C135 1.810 . S
C353 C4 1.304 . S
C359 N170 1.353 . S
C373 C17 1.311 . S
C379 N200 1.395 1_655 S
C399 C120 0.402 . S
C393 C74 0.462 . S
C419 C150 0.750 . S
C413 C87 0.761 1_565 S
C439 C191 1.040 . S
C433 C100 1.010 . S
C453 C61 0.559 . S
C459 C221 0.567 . S
C473 C22 0.484 . S
C479 C131 0.390 . S
C499 C161 0.767 . S
C493 C35 0.755 1_566 S
C519 C180 1.052 . S
C513 C48 1.040 . S
C533 C9 0.561 . S
C539 C210 0.569 . S
C553 C73 1.469 . S
C559 N110 1.455 . S
C573 C86 1.418 . S
C579 N140 1.417 . S
C599 C165 1.657 . S
C593 C99 1.631 . S
C619 C195 1.592 . S
C613 C60 1.551 . S
C633 C21 1.474 . S
C639 N118 1.467 . S
C659 N148 1.414 . S
C653 C34 1.440 1_565 S
C679 C174 1.656 . S
C673 C47 1.627 . S
C693 C8 1.551 . S
C699 C204 1.592 . S
