# Generated by pormake.
# Topology pth, (4,4)-cn, num edge types: 1
# Building blocks:
#     Node 0, Type 0, BuildingBlock: CEKHIL_clean_sbu_0, # of connection points: 4
#     Node 1, Type 0, BuildingBlock: CEKHIL_clean_sbu_0, # of connection points: 4
#     Node 2, Type 0, BuildingBlock: CEKHIL_clean_sbu_0, # of connection points: 4
#     Node 3, Type 1, BuildingBlock: MIFKUJ_clean_linker_1, # of connection points: 4
#     Node 4, Type 1, BuildingBlock: MIFKUJ_clean_linker_1, # of connection points: 4
#     Node 5, Type 1, BuildingBlock: MIFKUJ_clean_linker_1, # of connection points: 4
#     Edge 6, Type (0, 1), BuildingBlock: ZUJKAS_clean_linker_0, # of connection points: 2
#     Edge 7, Type (0, 1), BuildingBlock: ZUJKAS_clean_linker_0, # of connection points: 2
#     Edge 8, Type (0, 1), BuildingBlock: ZUJKAS_clean_linker_0, # of connection points: 2
#     Edge 9, Type (0, 1), BuildingBlock: ZUJKAS_clean_linker_0, # of connection points: 2
#     Edge 10, Type (0, 1), BuildingBlock: ZUJKAS_clean_linker_0, # of connection points: 2
#     Edge 11, Type (0, 1), BuildingBlock: ZUJKAS_clean_linker_0, # of connection points: 2
#     Edge 12, Type (0, 1), BuildingBlock: ZUJKAS_clean_linker_0, # of connection points: 2
#     Edge 13, Type (0, 1), BuildingBlock: ZUJKAS_clean_linker_0, # of connection points: 2
#     Edge 14, Type (0, 1), BuildingBlock: ZUJKAS_clean_linker_0, # of connection points: 2
#     Edge 15, Type (0, 1), BuildingBlock: ZUJKAS_clean_linker_0, # of connection points: 2
#     Edge 16, Type (0, 1), BuildingBlock: ZUJKAS_clean_linker_0, # of connection points: 2
#     Edge 17, Type (0, 1), BuildingBlock: ZUJKAS_clean_linker_0, # of connection points: 2
# Relax obj value: 0.014
# Max RMSD: 0.063
# Mean RMSD: 0.055
data_MOF--net-pth--node1-CEKHIL_clean_sbu_0--node2-MIFKUJ_clean_linker_1--edge1-ZUJKAS_clean_linker_0
_symmetry_space_group_name_H-M    P1
_symmetry_Int_Tables_number       1
_symmetry_cell_setting            triclinic
loop_
_symmetry_equiv_pos_as_xyz
'x, y, z'
_cell_length_a     36.361468
_cell_length_b     36.451089
_cell_length_c     80.493403
_cell_angle_alpha  90.683715
_cell_angle_beta   90.02926
_cell_angle_gamma 120.25208
loop_
_atom_site_label
_atom_site_type_symbol
_atom_site_fract_x
_atom_site_fract_y
_atom_site_fract_z
_atom_type_partial_charge
Co0 Co 0.01548 0.02721 0.05899 0.0
O1 O 0.98738 0.98249 0.07483 0.0
O2 O 0.04184 0.99232 0.05939 0.0
C3 C 0.02082 0.07951 0.07594 0.0
O4 O 0.05391 0.07102 0.04193 0.0
Co5 Co 0.97277 0.07701 0.04644 0.0
O6 O 0.03003 0.11623 0.03748 0.0
C7 C 0.94292 0.99019 0.03358 0.0
C8 C 0.01453 0.97073 0.0709 0.0
C9 C 0.05799 0.10525 0.03562 0.0
O10 O 0.9741 0.98987 0.04105 0.0
O11 O 0.9352 0.02067 0.03519 0.0
O12 O 0.04851 0.06704 0.07687 0.0
O13 O 0.98926 0.05786 0.06587 0.0
Co14 Co 0.01364 0.03451 0.37931 0.0
O15 O 0.98578 0.05137 0.36335 0.0
O16 O 0.04 0.09589 0.37929 0.0
C17 C 0.01919 0.98792 0.36225 0.0
O18 O 0.05178 0.02892 0.39659 0.0
Co19 Co 0.97096 0.94153 0.39132 0.0
O20 O 0.02891 0.95951 0.39981 0.0
C21 C 0.94067 0.99798 0.40409 0.0
C22 C 0.01284 0.09032 0.3676 0.0
C23 C 0.05648 0.99856 0.40223 0.0
O24 O 0.97206 0.02986 0.39698 0.0
O25 O 0.93301 0.95977 0.40229 0.0
O26 O 0.0469 0.02824 0.36162 0.0
O27 O 0.98751 0.97764 0.3721 0.0
Co28 Co 0.00845 0.02209 0.71281 0.0
O29 O 0.05289 0.05001 0.69674 0.0
O30 O 0.04336 0.99573 0.7119 0.0
C31 C 0.95571 0.01675 0.69628 0.0
O32 O 0.96494 0.98379 0.73 0.0
Co33 Co 0.95887 0.06458 0.72615 0.0
O34 O 0.91956 0.00742 0.73498 0.0
C35 C 0.04618 0.09452 0.73839 0.0
C36 C 0.06477 0.02294 0.70038 0.0
C37 C 0.93064 0.97956 0.73653 0.0
O38 O 0.04638 0.06347 0.73065 0.0
O39 O 0.0155 0.10209 0.73718 0.0
O40 O 0.96802 0.989 0.69514 0.0
O41 O 0.97767 0.04833 0.70635 0.0
H42 H 0.08769 0.51019 0.18984 0.0
H43 H 0.08895 0.45446 0.17313 0.0
H44 H 0.97126 0.36081 0.19556 0.0
H45 H 0.96994 0.41683 0.21219 0.0
H46 H 0.03231 0.53564 0.18879 0.0
H47 H 0.08004 0.47591 0.23051 0.0
H48 H 0.08055 0.424 0.24936 0.0
H49 H 0.9629 0.40305 0.27096 0.0
H50 H 0.96223 0.45455 0.25198 0.0
H51 H 0.96006 0.56392 0.24834 0.0
H52 H 0.96116 0.62126 0.26483 0.0
H53 H 0.08149 0.71095 0.24292 0.0
H54 H 0.08071 0.65327 0.22679 0.0
H55 H 0.01512 0.53576 0.24986 0.0
H56 H 0.9668 0.59412 0.20747 0.0
H57 H 0.96756 0.64733 0.18898 0.0
H58 H 0.08766 0.67104 0.16889 0.0
H59 H 0.0872 0.61861 0.18767 0.0
C60 C 0.02884 0.46775 0.20233 0.0
C61 C 0.06222 0.47764 0.19122 0.0
C62 C 0.06285 0.44579 0.18164 0.0
C63 C 0.03009 0.40328 0.18297 0.0
C64 C 0.99716 0.39321 0.19439 0.0
C65 C 0.99641 0.4252 0.20391 0.0
C66 C 0.02685 0.50238 0.21145 0.0
C67 C 0.02916 0.53593 0.20219 0.0
C68 C 0.02142 0.50209 0.22888 0.0
C69 C 0.02087 0.46894 0.23969 0.0
C70 C 0.05395 0.45962 0.23909 0.0
C71 C 0.05427 0.43 0.24991 0.0
C72 C 0.02185 0.40952 0.2617 0.0
C73 C 0.98864 0.41869 0.26218 0.0
C74 C 0.98816 0.44803 0.2513 0.0
C75 C 0.02014 0.60432 0.23625 0.0
C76 C 0.98656 0.59599 0.24703 0.0
C77 C 0.98709 0.62884 0.25636 0.0
C78 C 0.02143 0.67067 0.25519 0.0
C79 C 0.05479 0.67901 0.24422 0.0
C80 C 0.05417 0.64615 0.23486 0.0
C81 C 0.02074 0.56892 0.2272 0.0
C82 C 0.01816 0.53527 0.23646 0.0
C83 C 0.02606 0.56913 0.20979 0.0
C84 C 0.02713 0.6026 0.19907 0.0
C85 C 0.99356 0.61119 0.19924 0.0
C86 C 0.99382 0.6413 0.18854 0.0
C87 C 0.02766 0.66341 0.17743 0.0
C88 C 0.06138 0.65497 0.17741 0.0
C89 C 0.06102 0.62478 0.18807 0.0
H90 H 0.59781 0.0903 0.52125 0.0
H91 H 0.65324 0.09102 0.50388 0.0
H92 H 0.62777 0.97211 0.52509 0.0
H93 H 0.57093 0.97047 0.54169 0.0
H94 H 0.51587 0.03863 0.52147 0.0
H95 H 0.62665 0.08141 0.56262 0.0
H96 H 0.68113 0.07829 0.57944 0.0
H97 H 0.58657 0.9546 0.59692 0.0
H98 H 0.53241 0.95764 0.57989 0.0
H99 H 0.42147 0.9588 0.58064 0.0
H100 H 0.3669 0.95625 0.59905 0.0
H101 H 0.39528 0.07985 0.58215 0.0
H102 H 0.45072 0.08265 0.56403 0.0
H103 H 0.50484 0.01375 0.58213 0.0
H104 H 0.39206 0.97671 0.54289 0.0
H105 H 0.33888 0.98169 0.52596 0.0
H106 H 0.43811 0.09674 0.50414 0.0
H107 H 0.49113 0.09272 0.52153 0.0
C108 C 0.58038 0.03056 0.53293 0.0
C109 C 0.60412 0.06434 0.52212 0.0
C110 C 0.63614 0.0649 0.51231 0.0
C111 C 0.64516 0.03166 0.51308 0.0
C112 C 0.62145 0.998 0.52399 0.0
C113 C 0.58924 0.9973 0.5337 0.0
C114 C 0.54541 0.0294 0.54295 0.0
C115 C 0.51379 0.03399 0.5348 0.0
C116 C 0.54209 0.0221 0.56025 0.0
C117 C 0.57553 0.01964 0.56993 0.0
C118 C 0.61778 0.05344 0.56994 0.0
C119 C 0.64879 0.05176 0.57965 0.0
C120 C 0.63812 0.01621 0.58951 0.0
C121 C 0.59587 0.98221 0.58932 0.0
C122 C 0.56485 0.98403 0.57969 0.0
C123 C 0.44005 0.02079 0.57088 0.0
C124 C 0.41581 0.98528 0.58084 0.0
C125 C 0.38441 0.98374 0.59128 0.0
C126 C 0.37669 0.01785 0.59209 0.0
C127 C 0.40071 0.05324 0.58195 0.0
C128 C 0.43211 0.0547 0.57146 0.0
C129 C 0.47522 0.02315 0.56068 0.0
C130 C 0.50691 0.01869 0.56881 0.0
C131 C 0.47867 0.03099 0.54338 0.0
C132 C 0.44573 0.03467 0.53372 0.0
C133 C 0.40238 0.00362 0.53479 0.0
C134 C 0.37198 0.00634 0.52504 0.0
C135 C 0.38442 0.0396 0.51375 0.0
C136 C 0.4277 0.07062 0.51267 0.0
C137 C 0.45798 0.0683 0.52261 0.0
H138 H 0.49307 0.42878 0.85539 0.0
H139 H 0.43698 0.37302 0.83813 0.0
H140 H 0.34504 0.40057 0.86018 0.0
H141 H 0.40122 0.456 0.8775 0.0
H142 H 0.52106 0.51173 0.85525 0.0
H143 H 0.45992 0.40153 0.89592 0.0
H144 H 0.40634 0.34718 0.91382 0.0
H145 H 0.37925 0.44049 0.93499 0.0
H146 H 0.43321 0.4947 0.91721 0.0
H147 H 0.54333 0.60678 0.9162 0.0
H148 H 0.59889 0.66418 0.93304 0.0
H149 H 0.69297 0.64016 0.91074 0.0
H150 H 0.63696 0.58184 0.8943 0.0
H151 H 0.51664 0.5244 0.91651 0.0
H152 H 0.57798 0.63466 0.87611 0.0
H153 H 0.63207 0.68944 0.85853 0.0
H154 H 0.65703 0.59589 0.83612 0.0
H155 H 0.604 0.54162 0.85417 0.0
C156 C 0.45135 0.4464 0.86783 0.0
C157 C 0.46076 0.4226 0.85658 0.0
C158 C 0.42868 0.39086 0.84666 0.0
C159 C 0.38649 0.38238 0.84772 0.0
C160 C 0.37703 0.40581 0.85921 0.0
C161 C 0.40916 0.43757 0.86913 0.0
C162 C 0.48609 0.48209 0.87745 0.0
C163 C 0.52048 0.51416 0.86869 0.0
C164 C 0.48461 0.48586 0.89493 0.0
C165 C 0.45046 0.4522 0.90514 0.0
C166 C 0.44208 0.41015 0.90427 0.0
C167 C 0.41138 0.37908 0.91453 0.0
C168 C 0.38853 0.38943 0.92592 0.0
C169 C 0.39672 0.4315 0.92659 0.0
C170 C 0.42743 0.46252 0.91636 0.0
C171 C 0.58597 0.59017 0.90389 0.0
C172 C 0.57594 0.61391 0.91492 0.0
C173 C 0.60781 0.64696 0.92445 0.0
C174 C 0.65042 0.65685 0.92322 0.0
C175 C 0.66042 0.63312 0.9121 0.0
C176 C 0.6285 0.60006 0.90256 0.0
C177 C 0.55163 0.55402 0.89431 0.0
C178 C 0.51729 0.5219 0.90308 0.0
C179 C 0.55315 0.55023 0.87683 0.0
C180 C 0.58716 0.58403 0.86661 0.0
C181 C 0.59559 0.62607 0.86761 0.0
C182 C 0.62622 0.6573 0.8574 0.0
C183 C 0.64891 0.6471 0.84586 0.0
C184 C 0.64062 0.60503 0.845 0.0
C185 C 0.61003 0.57385 0.85522 0.0
H186 H 0.97142 0.1161 0.07414 0.0
H187 H 0.97503 0.17272 0.09194 0.0
H188 H 0.08008 0.17835 0.11912 0.0
H189 H 0.07736 0.12251 0.10109 0.0
H190 H 0.96364 0.17243 0.12509 0.0
H191 H 0.12553 0.30224 0.10935 0.0
H192 H 0.09803 0.25364 0.09727 0.0
H193 H 0.12462 0.25525 0.11636 0.0
C194 C 0.99559 0.12972 0.0838 0.0
C195 C 0.02424 0.11502 0.08618 0.0
C196 C 0.99755 0.162 0.09398 0.0
C197 C 0.02817 0.18018 0.10673 0.0
C198 C 0.05684 0.16553 0.10912 0.0
H199 H 0.0127 0.32353 0.19147 0.0
H200 H 0.01197 0.26887 0.17322 0.0
C201 C 0.0551 0.13345 0.09886 0.0
C202 C 0.02888 0.2132 0.11792 0.0
H203 H 0.09245 0.31448 0.13257 0.0
C204 C 0.99176 0.20356 0.12668 0.0
C205 C 0.06544 0.25395 0.11985 0.0
C206 C 0.10553 0.26712 0.11009 0.0
C207 C 0.99028 0.23339 0.13743 0.0
C208 C 0.02726 0.27365 0.13978 0.0
C209 C 0.06427 0.28344 0.1309 0.0
C210 C 0.02792 0.30661 0.15098 0.0
C211 C 0.94881 0.22182 0.14586 0.0
C212 C 0.03822 0.34634 0.14465 0.0
C213 C 0.03904 0.37767 0.15506 0.0
C214 C 0.0296 0.36993 0.17204 0.0
C215 C 0.01954 0.3302 0.1784 0.0
C216 C 0.01901 0.29893 0.16798 0.0
H217 H 0.92121 0.19502 0.13936 0.0
H218 H 0.94967 0.21188 0.15876 0.0
H219 H 0.94366 0.24936 0.14641 0.0
H220 H 0.04523 0.35297 0.13158 0.0
H221 H 0.04643 0.40777 0.14975 0.0
H222 H 0.86692 0.93856 0.41871 0.0
H223 H 0.82091 0.95036 0.43729 0.0
H224 H 0.90406 0.08579 0.43363 0.0
H225 H 0.95013 0.07437 0.41467 0.0
H226 H 0.84027 0.99019 0.46766 0.0
H227 H 0.7882 0.07262 0.42407 0.0
H228 H 0.81474 0.0447 0.41712 0.0
H229 H 0.84485 0.09666 0.42649 0.0
C230 C 0.87546 0.97094 0.42174 0.0
C231 C 0.9123 0.00552 0.41512 0.0
C232 C 0.84906 0.97761 0.4324 0.0
C233 C 0.85872 0.01893 0.43672 0.0
C234 C 0.89548 0.05361 0.43021 0.0
H235 H 0.72276 0.09945 0.5044 0.0
H236 H 0.77664 0.09887 0.48632 0.0
C237 C 0.9219 0.04699 0.41943 0.0
C238 C 0.83069 0.02518 0.44841 0.0
H239 H 0.7645 0.06603 0.45181 0.0
C240 C 0.82379 0.00686 0.46419 0.0
C241 C 0.80932 0.04709 0.44391 0.0
C242 C 0.81426 0.06612 0.42694 0.0
C243 C 0.79578 0.00942 0.4755 0.0
C244 C 0.7738 0.03053 0.47086 0.0
C245 C 0.78147 0.04986 0.45529 0.0
C246 C 0.7412 0.03107 0.48174 0.0
C247 C 0.78981 0.98947 0.49233 0.0
C248 C 0.70325 0.9932 0.48496 0.0
C249 C 0.67219 0.99343 0.4951 0.0
C250 C 0.67847 0.03159 0.50229 0.0
C251 C 0.71658 0.06956 0.49895 0.0
C252 C 0.74754 0.0693 0.48869 0.0
H253 H 0.81606 0.98343 0.49544 0.0
H254 H 0.78801 0.01009 0.50218 0.0
H255 H 0.75947 0.95862 0.49234 0.0
H256 H 0.69746 0.96346 0.47946 0.0
H257 H 0.64294 0.96374 0.49707 0.0
H258 H 0.85229 0.95607 0.74923 0.0
H259 H 0.80822 0.89607 0.76695 0.0
H260 H 0.90177 0.85667 0.76478 0.0
H261 H 0.94667 0.91719 0.74702 0.0
H262 H 0.77413 0.80781 0.76034 0.0
H263 H 0.88293 0.86482 0.81526 0.0
H264 H 0.88807 0.89932 0.79841 0.0
H265 H 0.90554 0.86153 0.79582 0.0
C266 C 0.86372 0.93479 0.75248 0.0
C267 C 0.90331 0.94176 0.74674 0.0
C268 C 0.83834 0.90039 0.76261 0.0
C269 C 0.85193 0.87223 0.76735 0.0
C270 C 0.891 0.87844 0.76146 0.0
H271 H 0.72676 0.65955 0.83614 0.0
H272 H 0.77647 0.71171 0.81647 0.0
C273 C 0.91648 0.91291 0.75123 0.0
C274 C 0.82475 0.83653 0.77846 0.0
H275 H 0.8185 0.80006 0.81787 0.0
C276 C 0.7839 0.80594 0.77288 0.0
C277 C 0.83765 0.83411 0.7948 0.0
C278 C 0.8808 0.86677 0.80156 0.0
C279 C 0.75539 0.77325 0.78326 0.0
C280 C 0.76774 0.77163 0.79979 0.0
C281 C 0.80904 0.80148 0.80522 0.0
C282 C 0.73771 0.7401 0.81177 0.0
C283 C 0.71235 0.74066 0.77638 0.0
C284 C 0.69976 0.73922 0.81589 0.0
C285 C 0.6712 0.70933 0.82704 0.0
C286 C 0.68009 0.67983 0.83442 0.0
C287 C 0.71858 0.68135 0.8305 0.0
C288 C 0.74716 0.7113 0.81934 0.0
H289 H 0.71257 0.7388 0.7626 0.0
H290 H 0.70195 0.70867 0.7814 0.0
H291 H 0.68855 0.74979 0.77998 0.0
H292 H 0.6922 0.76169 0.81047 0.0
H293 H 0.64176 0.7089 0.82963 0.0
H294 H 0.96196 0.92312 0.09575 0.0
H295 H 0.96671 0.87032 0.11253 0.0
H296 H 0.074 0.88707 0.08381 0.0
H297 H 0.06951 0.94029 0.06682 0.0
H298 H 0.00842 0.79852 0.09106 0.0
H299 H 0.06522 0.9039 0.14696 0.0
H300 H 0.01798 0.89834 0.13737 0.0
H301 H 0.06742 0.92371 0.12631 0.0
C302 C 0.98645 0.91547 0.09288 0.0
C303 C 0.01557 0.93615 0.08 0.0
C304 C 0.98919 0.88537 0.10255 0.0
C305 C 0.02108 0.8753 0.09957 0.0
C306 C 0.0493 0.89464 0.08635 0.0
H307 H 0.09439 0.74141 0.16919 0.0
H308 H 0.09436 0.79212 0.14951 0.0
C309 C 0.04668 0.92499 0.07666 0.0
C310 C 0.02528 0.84526 0.11058 0.0
H311 H 0.0452 0.83174 0.15084 0.0
C312 C 0.01672 0.8058 0.1041 0.0
C313 C 0.03654 0.85509 0.12755 0.0
C314 C 0.0477 0.89769 0.13499 0.0
C315 C 0.01795 0.77537 0.1143 0.0
C316 C 0.02765 0.78462 0.13141 0.0
C317 C 0.0374 0.82457 0.13775 0.0
C318 C 0.02768 0.75327 0.14301 0.0
C319 C 0.00909 0.73367 0.10667 0.0
C320 C 0.99007 0.71484 0.14603 0.0
C321 C 0.98999 0.68579 0.15726 0.0
C322 C 0.02753 0.69464 0.16571 0.0
C323 C 0.06508 0.73336 0.16273 0.0
C324 C 0.06508 0.76245 0.15155 0.0
H325 H 0.01286 0.73566 0.09296 0.0
H326 H 0.03064 0.72342 0.11196 0.0
H327 H 0.97582 0.70892 0.10941 0.0
H328 H 0.96067 0.70745 0.1398 0.0
H329 H 0.96061 0.65615 0.15917 0.0
H330 H 0.09109 0.94863 0.40764 0.0
H331 H 0.14874 0.96177 0.4267 0.0
H332 H 0.16381 0.08351 0.44018 0.0
H333 H 0.10681 0.07113 0.42058 0.0
H334 H 0.2398 0.08851 0.43767 0.0
H335 H 0.13468 0.95024 0.47609 0.0
H336 H 0.13479 0.93479 0.45488 0.0
H337 H 0.11428 0.96934 0.46001 0.0
C338 C 0.10675 0.97832 0.4146 0.0
C339 C 0.09399 0.00862 0.41275 0.0
C340 C 0.13955 0.98566 0.42559 0.0
C341 C 0.15973 0.02302 0.43529 0.0
C342 C 0.14836 0.05421 0.43297 0.0
H343 H 0.30816 0.03188 0.52238 0.0
H344 H 0.25493 0.03277 0.50396 0.0
C345 C 0.11584 0.04714 0.42175 0.0
C346 C 0.19227 0.02903 0.44792 0.0
H347 H 0.20952 0.98037 0.48052 0.0
C348 C 0.23311 0.06508 0.44714 0.0
C349 C 0.18332 0.99901 0.46056 0.0
C350 C 0.13925 0.96145 0.46307 0.0
C351 C 0.26561 0.07113 0.45827 0.0
C352 C 0.25741 0.0396 0.47018 0.0
C353 C 0.21614 0.00432 0.47128 0.0
C354 C 0.29105 0.04194 0.48145 0.0
C355 C 0.30815 0.11154 0.45724 0.0
C356 C 0.32905 0.04663 0.47499 0.0
C357 C 0.3597 0.04674 0.48553 0.0
C358 C 0.35255 0.04116 0.50271 0.0
C359 C 0.3144 0.03609 0.50917 0.0
C360 C 0.28405 0.03668 0.49866 0.0
H361 H 0.30483 0.13769 0.45188 0.0
H362 H 0.32357 0.12194 0.46966 0.0
H363 H 0.3294 0.10609 0.44898 0.0
H364 H 0.33469 0.04925 0.46174 0.0
H365 H 0.38852 0.05 0.48018 0.0
H366 H 0.12028 0.09313 0.74367 0.0
H367 H 0.17996 0.14007 0.76197 0.0
H368 H 0.11431 0.20613 0.77649 0.0
H369 H 0.05502 0.16009 0.75817 0.0
H370 H 0.1981 0.26039 0.76851 0.0
H371 H 0.18389 0.13819 0.81278 0.0
H372 H 0.18863 0.12692 0.79135 0.0
H373 H 0.14234 0.12852 0.79808 0.0
C374 C 0.11845 0.11755 0.75079 0.0
C375 C 0.08267 0.12266 0.74944 0.0
C376 C 0.15252 0.14421 0.76132 0.0
C377 C 0.15131 0.17622 0.77077 0.0
C378 C 0.11585 0.18155 0.76935 0.0
H379 H 0.30358 0.32432 0.85519 0.0
H380 H 0.2476 0.27424 0.8362 0.0
C381 C 0.08192 0.15509 0.75884 0.0
C382 C 0.18723 0.20503 0.78188 0.0
H383 H 0.24287 0.20765 0.81653 0.0
C384 C 0.20797 0.24886 0.77899 0.0
C385 C 0.19968 0.18993 0.79565 0.0
C386 C 0.1773 0.14337 0.7998 0.0
C387 C 0.24083 0.27804 0.78948 0.0
C388 C 0.25383 0.26292 0.80308 0.0
C389 C 0.23305 0.2191 0.80601 0.0
C390 C 0.28823 0.29228 0.81463 0.0
C391 C 0.26058 0.32489 0.78617 0.0
C392 C 0.32976 0.31852 0.80885 0.0
C393 C 0.3617 0.34738 0.81963 0.0
C394 C 0.35283 0.35038 0.83645 0.0
C395 C 0.31135 0.32328 0.84227 0.0
C396 C 0.27941 0.29443 0.83147 0.0
H397 H 0.24018 0.33156 0.77792 0.0
H398 H 0.26633 0.34323 0.79795 0.0
H399 H 0.29166 0.33644 0.77995 0.0
H400 H 0.33741 0.31691 0.79596 0.0
H401 H 0.39315 0.36799 0.81468 0.0
H402 H 0.90261 0.9522 0.6752 0.0
H403 H 0.84662 0.94908 0.6573 0.0
H404 H 0.87368 0.07151 0.67618 0.0
H405 H 0.92899 0.07439 0.69438 0.0
H406 H 0.78819 0.01488 0.67402 0.0
H407 H 0.86695 0.01541 0.61488 0.0
H408 H 0.85794 0.97307 0.62849 0.0
H409 H 0.89402 0.02723 0.6347 0.0
C410 C 0.89652 0.97838 0.67558 0.0
C411 C 0.92038 0.01368 0.68611 0.0
C412 C 0.86473 0.97669 0.66525 0.0
C413 C 0.85661 0.01048 0.66513 0.0
C414 C 0.87962 0.04522 0.67598 0.0
H415 H 0.69734 0.07978 0.60949 0.0
H416 H 0.74969 0.07725 0.62787 0.0
C417 C 0.91123 0.04682 0.68637 0.0
C418 C 0.8241 0.00977 0.65376 0.0
H419 H 0.79731 0.00511 0.61277 0.0
C420 C 0.79024 0.01283 0.66063 0.0
C421 C 0.82686 0.00715 0.63628 0.0
C422 C 0.86359 0.00593 0.62811 0.0
C423 C 0.75889 0.01301 0.6505 0.0
C424 C 0.76171 0.01042 0.63305 0.0
C425 C 0.79527 0.00697 0.62617 0.0
C426 C 0.73047 0.01205 0.62174 0.0
C427 C 0.7227 0.01551 0.65851 0.0
C428 C 0.70302 0.97649 0.61196 0.0
C429 C 0.67314 0.97786 0.60142 0.0
C430 C 0.67059 0.01501 0.60034 0.0
C431 C 0.69875 0.05082 0.60995 0.0
C432 C 0.72838 0.04932 0.62056 0.0
H433 H 0.72009 0.00814 0.67196 0.0
H434 H 0.72816 0.04816 0.65721 0.0
H435 H 0.69198 0.99323 0.65229 0.0
H436 H 0.70442 0.94755 0.61262 0.0
H437 H 0.65221 0.94993 0.59403 0.0
H438 H 0.87562 0.98067 0.01495 0.0
H439 H 0.83009 0.92237 0.99609 0.0
H440 H 0.90094 0.85994 0.00731 0.0
H441 H 0.94672 0.91813 0.02644 0.0
H442 H 0.85498 0.89387 0.96781 0.0
H443 H 0.77596 0.76693 0.01472 0.0
H444 H 0.80493 0.82264 0.02034 0.0
H445 H 0.83319 0.79553 0.01511 0.0
C446 C 0.88157 0.95453 0.01353 0.0
C447 C 0.9149 0.95417 0.0223 0.0
C448 C 0.85548 0.92124 1.00269 0.0
C449 C 0.86186 0.88667 1.00042 0.0
C450 C 0.89506 0.88604 0.00909 0.0
H451 H 0.71621 0.6565 0.93972 0.0
H452 H 0.7704 0.71256 0.95758 0.0
C453 C 0.92131 0.91944 0.01996 0.0
C454 C 0.83406 0.85189 0.9887 0.0
H455 H 0.75767 0.7469 0.98662 0.0
C456 C 0.83378 0.86168 0.9719 0.0
C457 C 0.80661 0.80993 0.99407 0.0
C458 C 0.80475 0.79797 0.01206 0.0
C459 C 0.80659 0.83069 0.96033 0.0
C460 C 0.77836 0.78898 0.96577 0.0
C461 C 0.77931 0.77893 0.98249 0.0
C462 C 0.74651 0.75571 0.95444 0.0
C463 C 0.80855 0.84284 0.94236 0.0
C464 C 0.71498 0.7613 0.94682 0.0
C465 C 0.68416 0.72949 0.93653 0.0
C466 C 0.68407 0.69127 0.93373 0.0
C467 C 0.71574 0.68579 0.9414 0.0
C468 C 0.74656 0.71765 0.9517 0.0
H469 H 0.83948 0.8715 0.93942 0.0
H470 H 0.80379 0.81646 0.93391 0.0
H471 H 0.78295 0.85018 0.93983 0.0
H472 H 0.71386 0.7901 0.949 0.0
H473 H 0.66044 0.73488 0.93073 0.0
H474 H 0.96877 0.90164 0.3631 0.0
H475 H 0.97259 0.84902 0.34514 0.0
H476 H 0.08117 0.94916 0.32024 0.0
H477 H 0.07759 0.00208 0.33816 0.0
H478 H 0.01369 0.88883 0.29876 0.0
H479 H 0.06321 0.81119 0.34564 0.0
H480 H 0.01821 0.81641 0.35129 0.0
H481 H 0.06952 0.86317 0.34895 0.0
C482 C 0.99369 0.91245 0.3539 0.0
C483 C 0.02291 0.95599 0.35204 0.0
C484 C 0.99592 0.88233 0.3437 0.0
C485 C 0.02738 0.89522 0.33147 0.0
C486 C 0.05676 0.93862 0.32965 0.0
H487 H 0.08985 0.73315 0.27228 0.0
H488 H 0.0921 0.78896 0.29022 0.0
C489 C 0.05472 0.96876 0.33992 0.0
C490 C 0.02847 0.86352 0.32012 0.0
H491 H 0.04242 0.77764 0.31909 0.0
C492 C 0.02014 0.86461 0.30316 0.0
C493 C 0.03724 0.83224 0.32592 0.0
C494 C 0.04792 0.83069 0.34392 0.0
C495 C 0.01954 0.83465 0.29187 0.0
C496 C 0.02712 0.80263 0.29775 0.0
C497 C 0.0363 0.80207 0.31465 0.0
C498 C 0.02576 0.76943 0.28654 0.0
C499 C 0.01118 0.83772 0.27372 0.0
C500 C 0.98764 0.73988 0.27859 0.0
C501 C 0.98627 0.70805 0.26828 0.0
C502 C 0.02302 0.70517 0.26576 0.0
C503 C 0.06116 0.7349 0.27376 0.0
C504 C 0.06244 0.7666 0.2841 0.0
H505 H 0.01607 0.86951 0.27067 0.0
H506 H 0.03224 0.83124 0.26575 0.0
H507 H 0.97769 0.81365 0.27066 0.0
H508 H 0.95883 0.74117 0.28049 0.0
H509 H 0.95648 0.6858 0.26224 0.0
H510 H 0.11271 0.0761 0.67579 0.0
H511 H 0.16574 0.07185 0.65862 0.0
H512 H 0.14835 0.96365 0.6862 0.0
H513 H 0.09494 0.9677 0.70361 0.0
H514 H 0.23663 0.02797 0.6793 0.0
H515 H 0.13328 0.97628 0.62306 0.0
H516 H 0.13904 0.02318 0.63313 0.0
H517 H 0.11278 0.97336 0.64374 0.0
C518 C 0.12024 0.05149 0.67831 0.0
C519 C 0.09936 0.02202 0.691 0.0
C520 C 0.15046 0.04903 0.66842 0.0
C521 C 0.16042 0.01702 0.67096 0.0
C522 C 0.14085 0.98842 0.68399 0.0
H523 H 0.29728 0.95086 0.5987 0.0
H524 H 0.24533 0.94863 0.6186 0.0
C525 C 0.1104 0.99079 0.69391 0.0
C526 C 0.19074 0.01331 0.65973 0.0
H527 H 0.20603 0.99728 0.61904 0.0
C528 C 0.2299 0.02096 0.66615 0.0
C529 C 0.1816 0.00365 0.64262 0.0
C530 C 0.13925 0.99325 0.6352 0.0
C531 C 0.26079 0.02054 0.65577 0.0
C532 C 0.25235 0.01272 0.63852 0.0
C533 C 0.21262 0.00371 0.63223 0.0
C534 C 0.28437 0.01404 0.62674 0.0
C535 C 0.30208 0.02827 0.66335 0.0
C536 C 0.32331 0.05173 0.62453 0.0
C537 C 0.3531 0.0531 0.61318 0.0
C538 C 0.34447 0.01679 0.60378 0.0
C539 C 0.30518 0.97922 0.6059 0.0
C540 C 0.27538 0.97792 0.61722 0.0
H541 H 0.29913 0.02249 0.67694 0.0
H542 H 0.31275 0.0076 0.65741 0.0
H543 H 0.32705 0.06184 0.66141 0.0
H544 H 0.33057 0.08022 0.63151 0.0
H545 H 0.38316 0.08244 0.61196 0.0
H546 H 0.08094 0.18321 0.02316 0.0
H547 H 0.13918 0.22613 0.00445 0.0
H548 H 0.17842 0.13256 0.00517 0.0
H549 H 0.12003 0.08912 0.02418 0.0
H550 H 0.24667 0.21734 0.00786 0.0
H551 H 0.13995 0.19742 0.95512 0.0
H552 H 0.12754 0.2164 0.97375 0.0
H553 H 0.12164 0.16433 0.97324 0.0
C554 C 0.10184 0.17155 0.01941 0.0
C555 C 0.09537 0.13234 0.02508 0.0
C556 C 0.13509 0.19615 0.00862 0.0
C557 C 0.16255 0.18211 0.00311 0.0
C558 C 0.1573 0.14377 0.00915 0.0
H559 H 0.33059 0.30579 0.9188 0.0
H560 H 0.2783 0.25254 0.93746 0.0
C561 C 0.12393 0.11902 0.02003 0.0
C562 C 0.19649 0.20775 0.99102 0.0
H563 H 0.21241 0.25297 0.95283 0.0
C564 C 0.23925 0.2248 0.99575 0.0
C565 C 0.18676 0.21689 0.97511 0.0
C566 C 0.14148 0.19747 0.9689 0.0
C567 C 0.27255 0.25221 0.98527 0.0
C568 C 0.26273 0.26337 0.96977 0.0
C569 C 0.21997 0.24486 0.96478 0.0
C570 C 0.29611 0.2951 0.95873 0.0
C571 C 0.31789 0.26889 0.99089 0.0
C572 C 0.32333 0.33684 0.96443 0.0
C573 C 0.35345 0.36725 0.95384 0.0
C574 C 0.35677 0.35674 0.93724 0.0
C575 C 0.32936 0.31488 0.93156 0.0
C576 C 0.29928 0.28444 0.94218 0.0
H577 H 0.32003 0.24768 1.00016 0.0
H578 H 0.33874 0.27234 0.98024 0.0
H579 H 0.33015 0.30056 0.99688 0.0
H580 H 0.32088 0.34613 0.97703 0.0
H581 H 0.37428 0.39901 0.95871 0.0
H582 H 0.06677 0.17592 0.37277 0.0
H583 H 0.06949 0.23438 0.35692 0.0
H584 H 0.96463 0.14389 0.32635 0.0
H585 H 0.96117 0.08574 0.34221 0.0
H586 H 0.08451 0.25071 0.32371 0.0
H587 H 0.92557 0.22638 0.33918 0.0
H588 H 0.94971 0.20145 0.35056 0.0
H589 H 0.92275 0.17894 0.33112 0.0
C590 C 0.04397 0.16858 0.36281 0.0
C591 C 0.0136 0.1262 0.35882 0.0
C592 C 0.04563 0.20198 0.35374 0.0
C593 C 0.01681 0.19356 0.34061 0.0
C594 C 0.9865 0.15127 0.33667 0.0
H595 H 0.04042 0.34655 0.25549 0.0
H596 H 0.04134 0.29649 0.27526 0.0
C597 C 0.98475 0.118 0.34572 0.0
C598 C 0.01941 0.22859 0.33046 0.0
H599 H 0.95977 0.26946 0.31554 0.0
C600 C 0.05739 0.25514 0.32206 0.0
C601 C 0.98422 0.23475 0.32847 0.0
C602 C 0.94342 0.20915 0.33795 0.0
C603 C 0.06067 0.2867 0.31128 0.0
C604 C 0.02468 0.29123 0.30857 0.0
C605 C 0.98719 0.26564 0.31742 0.0
C606 C 0.02506 0.32214 0.29658 0.0
C607 C 0.10276 0.31505 0.30302 0.0
C608 C 0.01447 0.3525 0.30185 0.0
C609 C 0.01348 0.38082 0.29054 0.0
C610 C 0.02302 0.37937 0.27369 0.0
C611 C 0.03355 0.34889 0.26842 0.0
C612 C 0.03424 0.32037 0.27973 0.0
H613 H 0.12965 0.31634 0.31009 0.0
H614 H 0.10245 0.30223 0.29042 0.0
H615 H 0.10864 0.34788 0.30177 0.0
H616 H 0.00712 0.3544 0.31476 0.0
H617 H 0.00568 0.40419 0.29503 0.0
loop_
_geom_bond_atom_site_label_1
_geom_bond_atom_site_label_2
_geom_bond_distance
_geom_bond_site_symmetry_2
_ccdc_geom_bond_type
Co0 O1 2.216 1_445 S
Co0 O2 2.091 1_545 S
Co0 O4 2.004 . S
Co0 O10 2.021 1_445 S
Co0 O12 2.137 . S
Co0 O13 2.244 1_455 S
O1 Co0 2.216 1_665 S
O1 C8 1.247 1_655 S
O2 Co0 2.091 1_565 S
O2 C8 1.261 . S
C3 O12 1.247 . S
C3 O13 1.272 1_455 S
O4 Co0 2.004 . S
O4 C9 1.259 . S
Co5 O6 2.061 1_655 S
Co5 O11 2.052 . S
Co5 O13 2.135 . S
O6 Co5 2.061 1_455 S
O6 C9 1.235 . S
C7 O10 1.238 . S
C7 O11 1.241 1_565 S
C8 O1 1.247 1_455 S
C8 O2 1.261 . S
C9 O4 1.259 . S
C9 O6 1.235 . S
O10 Co0 2.021 1_665 S
O10 C7 1.238 . S
O11 Co5 2.052 . S
O11 C7 1.241 1_545 S
O12 Co0 2.137 . S
O12 C3 1.247 . S
O13 Co0 2.244 1_655 S
O13 C3 1.272 1_655 S
O13 Co5 2.135 . S
Co14 O15 2.216 1_455 S
Co14 O16 2.091 . S
Co14 O18 2.004 . S
Co14 O24 2.021 1_455 S
Co14 O26 2.137 . S
Co14 O27 2.244 1_445 S
O15 Co14 2.216 1_655 S
O15 C22 1.247 1_655 S
O16 Co14 2.091 . S
O16 C22 1.261 . S
C17 O26 1.247 1_565 S
C17 O27 1.272 1_455 S
O18 Co14 2.004 . S
O18 C23 1.259 . S
Co19 O20 2.061 1_655 S
Co19 O25 2.052 . S
Co19 O27 2.135 . S
O20 Co19 2.061 1_455 S
O20 C23 1.235 1_565 S
C21 O24 1.238 . S
C21 O25 1.241 1_545 S
C22 O15 1.247 1_455 S
C22 O16 1.261 . S
C23 O18 1.259 . S
C23 O20 1.235 1_545 S
O24 Co14 2.021 1_655 S
O24 C21 1.238 . S
O25 Co19 2.052 . S
O25 C21 1.241 1_565 S
O26 Co14 2.137 . S
O26 C17 1.247 1_545 S
O27 Co14 2.244 1_665 S
O27 C17 1.272 1_655 S
O27 Co19 2.135 . S
Co28 O29 2.216 . S
Co28 O30 2.091 1_545 S
Co28 O32 2.004 1_445 S
Co28 O38 2.021 . S
Co28 O40 2.137 1_445 S
Co28 O41 2.244 1_455 S
O29 Co28 2.216 . S
O29 C36 1.247 . S
O30 Co28 2.091 1_565 S
O30 C36 1.261 1_565 S
C31 O40 1.247 1_545 S
C31 O41 1.272 . S
O32 Co28 2.004 1_665 S
O32 C37 1.259 . S
Co33 O34 2.061 1_545 S
Co33 O39 2.052 1_655 S
Co33 O41 2.135 . S
O34 Co33 2.061 1_565 S
O34 C37 1.235 . S
C35 O38 1.238 . S
C35 O39 1.241 . S
C36 O29 1.247 . S
C36 O30 1.261 1_545 S
C37 O32 1.259 . S
C37 O34 1.235 . S
O38 Co28 2.021 . S
O38 C35 1.238 . S
O39 Co33 2.052 1_455 S
O39 C35 1.241 . S
O40 Co28 2.137 1_665 S
O40 C31 1.247 1_565 S
O41 Co28 2.244 1_655 S
O41 C31 1.272 . S
O41 Co33 2.135 . S
H42 C61 0.949 . S
H43 C62 0.950 . S
H44 C64 0.950 . S
H45 C65 0.950 . S
H46 C67 0.950 . S
H47 C70 0.950 . S
H48 C71 0.950 . S
H49 C73 0.951 . S
H50 C74 0.949 . S
H51 C76 0.949 . S
H52 C77 0.950 . S
H53 C79 0.950 . S
H54 C80 0.950 . S
H55 C82 0.950 1_655 S
H56 C85 0.950 . S
H57 C86 0.950 . S
H58 C88 0.951 . S
H59 C89 0.949 . S
C60 C61 1.376 . S
C60 C65 1.386 1_455 S
C60 C66 1.483 . S
C61 H42 0.949 . S
C61 C60 1.376 . S
C61 C62 1.397 . S
C62 H43 0.950 . S
C62 C61 1.397 . S
C62 C63 1.391 . S
C63 C62 1.391 . S
C63 C64 1.405 1_455 S
C64 H44 0.950 . S
C64 C63 1.405 1_655 S
C64 C65 1.367 . S
C65 H45 0.950 . S
C65 C60 1.386 1_655 S
C65 C64 1.367 . S
C66 C60 1.483 . S
C66 C67 1.382 . S
C66 C68 1.403 . S
C67 H46 0.950 . S
C67 C66 1.382 . S
C67 C83 1.411 . S
C68 C66 1.403 . S
C68 C69 1.489 . S
C68 C82 1.411 . S
C69 C68 1.489 . S
C69 C70 1.383 . S
C69 C74 1.382 1_455 S
C70 H47 0.950 . S
C70 C69 1.383 . S
C70 C71 1.395 . S
C71 H48 0.950 . S
C71 C70 1.395 . S
C71 C72 1.288 . S
C72 C71 1.288 . S
C72 C73 1.392 1_455 S
C73 H49 0.951 . S
C73 C72 1.392 1_655 S
C73 C74 1.392 . S
C74 H50 0.949 . S
C74 C69 1.382 1_655 S
C74 C73 1.392 . S
C75 C76 1.376 1_455 S
C75 C80 1.386 . S
C75 C81 1.483 . S
C76 H51 0.949 . S
C76 C75 1.376 1_655 S
C76 C77 1.397 . S
C77 H52 0.950 . S
C77 C76 1.397 . S
C77 C78 1.391 1_655 S
C78 C77 1.391 1_455 S
C78 C79 1.405 . S
C79 H53 0.950 . S
C79 C78 1.405 . S
C79 C80 1.367 . S
C80 H54 0.950 . S
C80 C75 1.386 . S
C80 C79 1.367 . S
C81 C75 1.483 . S
C81 C82 1.382 . S
C81 C83 1.403 . S
C82 H55 0.950 1_455 S
C82 C68 1.411 . S
C82 C81 1.382 . S
C83 C67 1.411 . S
C83 C81 1.403 . S
C83 C84 1.489 . S
C84 C83 1.489 . S
C84 C85 1.383 1_455 S
C84 C89 1.382 . S
C85 H56 0.950 . S
C85 C84 1.383 1_655 S
C85 C86 1.395 . S
C86 H57 0.950 . S
C86 C85 1.395 . S
C86 C87 1.288 1_655 S
C87 C86 1.288 1_455 S
C87 C88 1.392 . S
C88 H58 0.951 . S
C88 C87 1.392 . S
C88 C89 1.392 . S
C89 H59 0.949 . S
C89 C84 1.382 . S
C89 C88 1.392 . S
H90 C109 0.949 . S
H91 C110 0.950 . S
H92 C112 0.950 . S
H93 C113 0.950 . S
H94 C115 0.950 . S
H95 C118 0.950 . S
H96 C119 0.950 . S
H97 C121 0.951 . S
H98 C122 0.949 . S
H99 C124 0.949 . S
H100 C125 0.950 . S
H101 C127 0.950 . S
H102 C128 0.950 . S
H103 C130 0.950 . S
H104 C133 0.950 . S
H105 C134 0.950 . S
H106 C136 0.951 . S
H107 C137 0.949 . S
C108 C109 1.376 . S
C108 C113 1.386 1_545 S
C108 C114 1.483 . S
C109 H90 0.949 . S
C109 C108 1.376 . S
C109 C110 1.397 . S
C110 H91 0.950 . S
C110 C109 1.397 . S
C110 C111 1.391 . S
C111 C110 1.391 . S
C111 C112 1.405 1_545 S
C112 H92 0.950 . S
C112 C111 1.405 1_565 S
C112 C113 1.367 . S
C113 H93 0.950 . S
C113 C108 1.386 1_565 S
C113 C112 1.367 . S
C114 C108 1.483 . S
C114 C115 1.382 . S
C114 C116 1.403 . S
C115 H94 0.950 . S
C115 C114 1.382 . S
C115 C131 1.411 . S
C116 C114 1.403 . S
C116 C117 1.489 . S
C116 C130 1.411 . S
C117 C116 1.489 . S
C117 C118 1.383 . S
C117 C122 1.382 1_545 S
C118 H95 0.950 . S
C118 C117 1.383 . S
C118 C119 1.395 . S
C119 H96 0.950 . S
C119 C118 1.395 . S
C119 C120 1.288 . S
C120 C119 1.288 . S
C120 C121 1.392 1_545 S
C121 H97 0.951 . S
C121 C120 1.392 1_565 S
C121 C122 1.392 . S
C122 H98 0.949 . S
C122 C117 1.382 1_565 S
C122 C121 1.392 . S
C123 C124 1.376 1_545 S
C123 C128 1.386 . S
C123 C129 1.483 . S
C124 H99 0.949 . S
C124 C123 1.376 1_565 S
C124 C125 1.397 . S
C125 H100 0.950 . S
C125 C124 1.397 . S
C125 C126 1.391 1_565 S
C126 C125 1.391 1_545 S
C126 C127 1.405 . S
C127 H101 0.950 . S
C127 C126 1.405 . S
C127 C128 1.367 . S
C128 H102 0.950 . S
C128 C123 1.386 . S
C128 C127 1.367 . S
C129 C123 1.483 . S
C129 C130 1.382 . S
C129 C131 1.403 . S
C130 H103 0.950 . S
C130 C116 1.411 . S
C130 C129 1.382 . S
C131 C115 1.411 . S
C131 C129 1.403 . S
C131 C132 1.489 . S
C132 C131 1.489 . S
C132 C133 1.383 1_545 S
C132 C137 1.382 . S
C133 H104 0.950 . S
C133 C132 1.383 1_565 S
C133 C134 1.395 . S
C134 H105 0.950 . S
C134 C133 1.395 . S
C134 C135 1.288 1_565 S
C135 C134 1.288 1_545 S
C135 C136 1.392 . S
C136 H106 0.951 . S
C136 C135 1.392 . S
C136 C137 1.392 . S
C137 H107 0.949 . S
C137 C132 1.382 . S
C137 C136 1.392 . S
H138 C157 0.949 . S
H139 C158 0.950 . S
H140 C160 0.950 . S
H141 C161 0.950 . S
H142 C163 0.950 . S
H143 C166 0.950 . S
H144 C167 0.950 . S
H145 C169 0.951 . S
H146 C170 0.949 . S
H147 C172 0.949 . S
H148 C173 0.950 . S
H149 C175 0.950 . S
H150 C176 0.950 . S
H151 C178 0.950 . S
H152 C181 0.950 . S
H153 C182 0.950 . S
H154 C184 0.951 . S
H155 C185 0.949 . S
C156 C157 1.376 . S
C156 C161 1.386 . S
C156 C162 1.483 . S
C157 H138 0.949 . S
C157 C156 1.376 . S
C157 C158 1.397 . S
C158 H139 0.950 . S
C158 C157 1.397 . S
C158 C159 1.391 . S
C159 C158 1.391 . S
C159 C160 1.405 . S
C160 H140 0.950 . S
C160 C159 1.405 . S
C160 C161 1.367 . S
C161 H141 0.950 . S
C161 C156 1.386 . S
C161 C160 1.367 . S
C162 C156 1.483 . S
C162 C163 1.382 . S
C162 C164 1.403 . S
C163 H142 0.950 . S
C163 C162 1.382 . S
C163 C179 1.411 . S
C164 C162 1.403 . S
C164 C165 1.489 . S
C164 C178 1.411 . S
C165 C164 1.489 . S
C165 C166 1.383 . S
C165 C170 1.382 . S
C166 H143 0.950 . S
C166 C165 1.383 . S
C166 C167 1.395 . S
C167 H144 0.950 . S
C167 C166 1.395 . S
C167 C168 1.288 . S
C168 C167 1.288 . S
C168 C169 1.392 . S
C169 H145 0.951 . S
C169 C168 1.392 . S
C169 C170 1.392 . S
C170 H146 0.949 . S
C170 C165 1.382 . S
C170 C169 1.392 . S
C171 C172 1.376 . S
C171 C176 1.386 . S
C171 C177 1.483 . S
C172 H147 0.949 . S
C172 C171 1.376 . S
C172 C173 1.397 . S
C173 H148 0.950 . S
C173 C172 1.397 . S
C173 C174 1.391 . S
C174 C173 1.391 . S
C174 C175 1.405 . S
C175 H149 0.950 . S
C175 C174 1.405 . S
C175 C176 1.367 . S
C176 H150 0.950 . S
C176 C171 1.386 . S
C176 C175 1.367 . S
C177 C171 1.483 . S
C177 C178 1.382 . S
C177 C179 1.403 . S
C178 H151 0.950 . S
C178 C164 1.411 . S
C178 C177 1.382 . S
C179 C163 1.411 . S
C179 C177 1.403 . S
C179 C180 1.489 . S
C180 C179 1.489 . S
C180 C181 1.383 . S
C180 C185 1.382 . S
C181 H152 0.950 . S
C181 C180 1.383 . S
C181 C182 1.395 . S
C182 H153 0.950 . S
C182 C181 1.395 . S
C182 C183 1.288 . S
C183 C182 1.288 . S
C183 C184 1.392 . S
C184 H154 0.951 . S
C184 C183 1.392 . S
C184 C185 1.392 . S
C185 H155 0.949 . S
C185 C180 1.382 . S
C185 C184 1.392 . S
H186 C194 0.929 . S
H187 C196 0.930 . S
H188 C198 0.930 . S
H189 C201 0.929 . S
H190 C204 0.930 . S
H191 C206 0.960 . S
H192 C206 0.960 . S
H193 C206 0.960 . S
C194 H186 0.929 . S
C194 C195 1.377 . S
C194 C196 1.384 . S
C195 C194 1.377 . S
C195 C201 1.390 . S
C196 H187 0.930 . S
C196 C194 1.384 . S
C196 C197 1.372 . S
C197 C196 1.372 . S
C197 C198 1.400 . S
C197 C202 1.490 . S
C198 H188 0.930 . S
C198 C197 1.400 . S
C198 C201 1.386 . S
H199 C215 0.930 . S
H200 C216 0.931 . S
C201 H189 0.929 . S
C201 C195 1.390 . S
C201 C198 1.386 . S
C202 C197 1.490 . S
C202 C204 1.395 1_455 S
C202 C205 1.403 . S
H203 C209 0.930 . S
C204 H190 0.930 . S
C204 C202 1.395 1_655 S
C204 C207 1.403 . S
C205 C202 1.403 . S
C205 C206 1.524 . S
C205 C209 1.400 . S
C206 H191 0.960 . S
C206 H192 0.960 . S
C206 H193 0.960 . S
C206 C205 1.524 . S
C207 C204 1.403 . S
C207 C208 1.392 1_655 S
C207 C211 1.495 . S
C208 C207 1.392 1_455 S
C208 C209 1.385 . S
C208 C210 1.478 . S
C209 H203 0.930 . S
C209 C205 1.400 . S
C209 C208 1.385 . S
C210 C208 1.478 . S
C210 C212 1.381 . S
C210 C216 1.383 1_455 S
C211 C207 1.495 . S
C211 H217 0.959 . S
C211 H218 0.961 . S
C211 H219 0.960 . S
C212 C210 1.381 . S
C212 C213 1.394 . S
C212 H220 0.930 . S
C213 C212 1.394 . S
C213 C214 1.383 . S
C213 H221 0.929 . S
C214 C213 1.383 . S
C214 C215 1.377 1_455 S
C215 H199 0.930 . S
C215 C214 1.377 1_655 S
C215 C216 1.379 . S
C216 H200 0.931 . S
C216 C210 1.383 1_655 S
C216 C215 1.379 . S
H217 C211 0.959 . S
H218 C211 0.961 . S
H219 C211 0.960 . S
H220 C212 0.930 . S
H221 C213 0.929 . S
H222 C230 0.929 . S
H223 C232 0.930 . S
H224 C234 0.930 . S
H225 C237 0.929 . S
H226 C240 0.930 . S
H227 C242 0.960 . S
H228 C242 0.960 . S
H229 C242 0.960 . S
C230 H222 0.929 . S
C230 C231 1.377 1_565 S
C230 C232 1.384 . S
C231 C230 1.377 1_545 S
C231 C237 1.390 . S
C232 H223 0.930 . S
C232 C230 1.384 . S
C232 C233 1.372 1_565 S
C233 C232 1.372 1_545 S
C233 C234 1.400 . S
C233 C238 1.490 . S
C234 H224 0.930 . S
C234 C233 1.400 . S
C234 C237 1.386 . S
H235 C251 0.930 . S
H236 C252 0.931 . S
C237 H225 0.929 . S
C237 C231 1.390 . S
C237 C234 1.386 . S
C238 C233 1.490 . S
C238 C240 1.395 . S
C238 C241 1.403 . S
H239 C245 0.930 . S
C240 H226 0.930 . S
C240 C238 1.395 . S
C240 C243 1.403 . S
C241 C238 1.403 . S
C241 C242 1.524 . S
C241 C245 1.400 . S
C242 H227 0.960 . S
C242 H228 0.960 . S
C242 H229 0.960 . S
C242 C241 1.524 . S
C243 C240 1.403 . S
C243 C244 1.392 . S
C243 C247 1.505 . S
C244 C243 1.392 . S
C244 C245 1.385 . S
C244 C246 1.478 . S
C245 H239 0.930 . S
C245 C241 1.400 . S
C245 C244 1.385 . S
C246 C244 1.478 . S
C246 C248 1.381 1_545 S
C246 C252 1.383 . S
C247 C243 1.505 . S
C247 H253 0.939 1_545 S
C247 H254 0.986 . S
C247 H255 0.946 1_545 S
C248 C246 1.381 1_565 S
C248 C249 1.394 . S
C248 H256 0.930 . S
C249 C248 1.394 . S
C249 C250 1.383 1_565 S
C249 H257 0.929 . S
C250 C249 1.383 1_545 S
C250 C251 1.377 . S
C251 H235 0.930 . S
C251 C250 1.377 . S
C251 C252 1.379 . S
C252 H236 0.931 . S
C252 C246 1.383 . S
C252 C251 1.379 . S
H253 C247 0.939 1_565 S
H254 C247 0.986 . S
H255 C247 0.946 1_565 S
H256 C248 0.930 . S
H257 C249 0.929 . S
H258 C266 0.929 . S
H259 C268 0.930 . S
H260 C270 0.930 . S
H261 C273 0.929 . S
H262 C276 0.930 . S
H263 C278 0.960 . S
H264 C278 0.960 . S
H265 C278 0.960 . S
C266 H258 0.929 . S
C266 C267 1.377 . S
C266 C268 1.384 . S
C267 C266 1.377 . S
C267 C273 1.390 . S
C268 H259 0.930 . S
C268 C266 1.384 . S
C268 C269 1.372 . S
C269 C268 1.372 . S
C269 C270 1.400 . S
C269 C274 1.490 . S
C270 H260 0.930 . S
C270 C269 1.400 . S
C270 C273 1.386 . S
H271 C287 0.930 . S
H272 C288 0.931 . S
C273 H261 0.929 . S
C273 C267 1.390 . S
C273 C270 1.386 . S
C274 C269 1.490 . S
C274 C276 1.395 . S
C274 C277 1.403 . S
H275 C281 0.930 . S
C276 H262 0.930 . S
C276 C274 1.395 . S
C276 C279 1.403 . S
C277 C274 1.403 . S
C277 C278 1.524 . S
C277 C281 1.400 . S
C278 H263 0.960 . S
C278 H264 0.960 . S
C278 H265 0.960 . S
C278 C277 1.524 . S
C279 C276 1.403 . S
C279 C280 1.392 . S
C279 C283 1.495 . S
C280 C279 1.392 . S
C280 C281 1.385 . S
C280 C282 1.478 . S
C281 H275 0.930 . S
C281 C277 1.400 . S
C281 C280 1.385 . S
C282 C280 1.478 . S
C282 C284 1.381 . S
C282 C288 1.383 . S
C283 C279 1.495 . S
C283 H289 0.959 . S
C283 H290 0.961 . S
C283 H291 0.960 . S
C284 C282 1.381 . S
C284 C285 1.394 . S
C284 H292 0.930 . S
C285 C284 1.394 . S
C285 C286 1.383 . S
C285 H293 0.929 . S
C286 C285 1.383 . S
C286 C287 1.377 . S
C287 H271 0.930 . S
C287 C286 1.377 . S
C287 C288 1.379 . S
C288 H272 0.931 . S
C288 C282 1.383 . S
C288 C287 1.379 . S
H289 C283 0.959 . S
H290 C283 0.961 . S
H291 C283 0.960 . S
H292 C284 0.930 . S
H293 C285 0.929 . S
H294 C302 0.929 . S
H295 C304 0.930 . S
H296 C306 0.930 . S
H297 C309 0.929 . S
H298 C312 0.930 . S
H299 C314 0.960 . S
H300 C314 0.960 1_655 S
H301 C314 0.960 . S
C302 H294 0.929 . S
C302 C303 1.377 1_655 S
C302 C304 1.384 . S
C303 C302 1.377 1_455 S
C303 C309 1.390 . S
C304 H295 0.930 . S
C304 C302 1.384 . S
C304 C305 1.372 1_655 S
C305 C304 1.372 1_455 S
C305 C306 1.400 . S
C305 C310 1.490 . S
C306 H296 0.930 . S
C306 C305 1.400 . S
C306 C309 1.386 . S
H307 C323 0.930 . S
H308 C324 0.931 . S
C309 H297 0.929 . S
C309 C303 1.390 . S
C309 C306 1.386 . S
C310 C305 1.490 . S
C310 C312 1.395 . S
C310 C313 1.403 . S
H311 C317 0.930 . S
C312 H298 0.930 . S
C312 C310 1.395 . S
C312 C315 1.403 . S
C313 C310 1.403 . S
C313 C314 1.524 . S
C313 C317 1.400 . S
C314 H299 0.960 . S
C314 H300 0.960 1_455 S
C314 H301 0.960 . S
C314 C313 1.524 . S
C315 C312 1.403 . S
C315 C316 1.392 . S
C315 C319 1.495 . S
C316 C315 1.392 . S
C316 C317 1.385 . S
C316 C318 1.478 . S
C317 H311 0.930 . S
C317 C313 1.400 . S
C317 C316 1.385 . S
C318 C316 1.478 . S
C318 C320 1.381 1_455 S
C318 C324 1.383 . S
C319 C315 1.495 . S
C319 H325 0.957 1_455 S
C319 H326 0.961 . S
C319 H327 0.960 1_455 S
C320 C318 1.381 1_655 S
C320 C321 1.394 . S
C320 H328 0.930 . S
C321 C320 1.394 . S
C321 C322 1.383 1_655 S
C321 H329 0.929 . S
C322 C321 1.383 1_455 S
C322 C323 1.377 . S
C323 H307 0.930 . S
C323 C322 1.377 . S
C323 C324 1.379 . S
C324 H308 0.931 . S
C324 C318 1.383 . S
C324 C323 1.379 . S
H325 C319 0.957 1_655 S
H326 C319 0.961 . S
H327 C319 0.960 1_655 S
H328 C320 0.930 . S
H329 C321 0.929 . S
H330 C338 0.929 . S
H331 C340 0.930 . S
H332 C342 0.930 . S
H333 C345 0.929 . S
H334 C348 0.930 . S
H335 C350 0.960 . S
H336 C350 0.960 . S
H337 C350 0.960 . S
C338 H330 0.929 . S
C338 C339 1.377 . S
C338 C340 1.384 . S
C339 C338 1.377 . S
C339 C345 1.390 . S
C340 H331 0.930 . S
C340 C338 1.384 . S
C340 C341 1.372 . S
C341 C340 1.372 . S
C341 C342 1.400 . S
C341 C346 1.490 . S
C342 H332 0.930 . S
C342 C341 1.400 . S
C342 C345 1.386 . S
H343 C359 0.930 . S
H344 C360 0.931 . S
C345 H333 0.929 . S
C345 C339 1.390 . S
C345 C342 1.386 . S
C346 C341 1.490 . S
C346 C348 1.395 . S
C346 C349 1.403 . S
H347 C353 0.930 1_565 S
C348 H334 0.930 . S
C348 C346 1.395 . S
C348 C351 1.403 . S
C349 C346 1.403 . S
C349 C350 1.524 1_545 S
C349 C353 1.400 . S
C350 H335 0.960 . S
C350 H336 0.960 . S
C350 H337 0.960 . S
C350 C349 1.524 1_565 S
C351 C348 1.403 . S
C351 C352 1.392 . S
C351 C355 1.495 . S
C352 C351 1.392 . S
C352 C353 1.385 . S
C352 C354 1.478 . S
C353 H347 0.930 1_545 S
C353 C349 1.400 . S
C353 C352 1.385 . S
C354 C352 1.478 . S
C354 C356 1.381 . S
C354 C360 1.383 . S
C355 C351 1.495 . S
C355 H361 0.959 . S
C355 H362 0.961 . S
C355 H363 0.960 . S
C356 C354 1.381 . S
C356 C357 1.394 . S
C356 H364 0.930 1_545 S
C357 C356 1.394 . S
C357 C358 1.383 . S
C357 H365 0.929 1_545 S
C358 C357 1.383 . S
C358 C359 1.377 . S
C359 H343 0.930 . S
C359 C358 1.377 . S
C359 C360 1.379 . S
C360 H344 0.931 . S
C360 C354 1.383 . S
C360 C359 1.379 . S
H361 C355 0.959 . S
H362 C355 0.961 . S
H363 C355 0.960 . S
H364 C356 0.930 1_565 S
H365 C357 0.929 1_565 S
H366 C374 0.929 . S
H367 C376 0.930 . S
H368 C378 0.930 . S
H369 C381 0.929 . S
H370 C384 0.930 . S
H371 C386 0.960 . S
H372 C386 0.960 . S
H373 C386 0.960 . S
C374 H366 0.929 . S
C374 C375 1.377 . S
C374 C376 1.384 . S
C375 C374 1.377 . S
C375 C381 1.390 . S
C376 H367 0.930 . S
C376 C374 1.384 . S
C376 C377 1.372 . S
C377 C376 1.372 . S
C377 C378 1.400 . S
C377 C382 1.490 . S
C378 H368 0.930 . S
C378 C377 1.400 . S
C378 C381 1.386 . S
H379 C395 0.930 . S
H380 C396 0.931 . S
C381 H369 0.929 . S
C381 C375 1.390 . S
C381 C378 1.386 . S
C382 C377 1.490 . S
C382 C384 1.395 . S
C382 C385 1.403 . S
H383 C389 0.930 . S
C384 H370 0.930 . S
C384 C382 1.395 . S
C384 C387 1.403 . S
C385 C382 1.403 . S
C385 C386 1.524 . S
C385 C389 1.400 . S
C386 H371 0.960 . S
C386 H372 0.960 . S
C386 H373 0.960 . S
C386 C385 1.524 . S
C387 C384 1.403 . S
C387 C388 1.392 . S
C387 C391 1.495 . S
C388 C387 1.392 . S
C388 C389 1.385 . S
C388 C390 1.478 . S
C389 H383 0.930 . S
C389 C385 1.400 . S
C389 C388 1.385 . S
C390 C388 1.478 . S
C390 C392 1.381 . S
C390 C396 1.383 . S
C391 C387 1.495 . S
C391 H397 0.959 . S
C391 H398 0.961 . S
C391 H399 0.960 . S
C392 C390 1.381 . S
C392 C393 1.394 . S
C392 H400 0.930 . S
C393 C392 1.394 . S
C393 C394 1.383 . S
C393 H401 0.929 . S
C394 C393 1.383 . S
C394 C395 1.377 . S
C395 H379 0.930 . S
C395 C394 1.377 . S
C395 C396 1.379 . S
C396 H380 0.931 . S
C396 C390 1.383 . S
C396 C395 1.379 . S
H397 C391 0.959 . S
H398 C391 0.961 . S
H399 C391 0.960 . S
H400 C392 0.930 . S
H401 C393 0.929 . S
H402 C410 0.929 . S
H403 C412 0.930 . S
H404 C414 0.930 . S
H405 C417 0.929 . S
H406 C420 0.930 . S
H407 C422 0.960 . S
H408 C422 0.960 1_565 S
H409 C422 0.960 . S
C410 H402 0.929 . S
C410 C411 1.377 1_565 S
C410 C412 1.384 . S
C411 C410 1.377 1_545 S
C411 C417 1.390 . S
C412 H403 0.930 . S
C412 C410 1.384 . S
C412 C413 1.372 1_565 S
C413 C412 1.372 1_545 S
C413 C414 1.400 . S
C413 C418 1.490 . S
C414 H404 0.930 . S
C414 C413 1.400 . S
C414 C417 1.386 . S
H415 C431 0.930 . S
H416 C432 0.931 . S
C417 H405 0.929 . S
C417 C411 1.390 . S
C417 C414 1.386 . S
C418 C413 1.490 . S
C418 C420 1.395 . S
C418 C421 1.403 . S
H419 C425 0.930 . S
C420 H406 0.930 . S
C420 C418 1.395 . S
C420 C423 1.403 . S
C421 C418 1.403 . S
C421 C422 1.524 . S
C421 C425 1.400 . S
C422 H407 0.960 . S
C422 H408 0.960 1_545 S
C422 H409 0.960 . S
C422 C421 1.524 . S
C423 C420 1.403 . S
C423 C424 1.392 . S
C423 C427 1.495 . S
C424 C423 1.392 . S
C424 C425 1.385 . S
C424 C426 1.478 . S
C425 H419 0.930 . S
C425 C421 1.400 . S
C425 C424 1.385 . S
C426 C424 1.478 . S
C426 C428 1.381 1_545 S
C426 C432 1.383 . S
C427 C423 1.495 . S
C427 H433 0.959 . S
C427 H434 0.961 . S
C427 H435 0.960 1_545 S
C428 C426 1.381 1_565 S
C428 C429 1.394 . S
C428 H436 0.930 . S
C429 C428 1.394 . S
C429 C430 1.383 1_565 S
C429 H437 0.929 . S
C430 C429 1.383 1_545 S
C430 C431 1.377 . S
C431 H415 0.930 . S
C431 C430 1.377 . S
C431 C432 1.379 . S
C432 H416 0.931 . S
C432 C426 1.383 . S
C432 C431 1.379 . S
H433 C427 0.959 . S
H434 C427 0.961 . S
H435 C427 0.960 1_565 S
H436 C428 0.930 . S
H437 C429 0.929 . S
H438 C446 0.929 . S
H439 C448 0.908 1_556 S
H440 C450 0.930 . S
H441 C453 0.929 . S
H442 C456 0.930 . S
H443 C458 0.960 . S
H444 C458 0.960 . S
H445 C458 0.960 . S
C446 H438 0.929 . S
C446 C447 1.377 . S
C446 C448 1.418 . S
C447 C446 1.377 . S
C447 C453 1.390 . S
C448 H439 0.908 1_554 S
C448 C446 1.418 . S
C448 C449 1.363 1_554 S
C449 C448 1.363 1_556 S
C449 C450 1.400 1_556 S
C449 C454 1.490 . S
C450 H440 0.930 . S
C450 C449 1.400 1_554 S
C450 C453 1.386 . S
H451 C467 0.930 . S
H452 C468 0.931 . S
C453 H441 0.929 . S
C453 C447 1.390 . S
C453 C450 1.386 . S
C454 C449 1.490 . S
C454 C456 1.395 . S
C454 C457 1.403 . S
H455 C461 0.930 . S
C456 H442 0.930 . S
C456 C454 1.395 . S
C456 C459 1.403 . S
C457 C454 1.403 . S
C457 C458 1.524 1_556 S
C457 C461 1.400 . S
C458 H443 0.960 . S
C458 H444 0.960 . S
C458 H445 0.960 . S
C458 C457 1.524 1_554 S
C459 C456 1.403 . S
C459 C460 1.392 . S
C459 C463 1.495 . S
C460 C459 1.392 . S
C460 C461 1.385 . S
C460 C462 1.478 . S
C461 H455 0.930 . S
C461 C457 1.400 . S
C461 C460 1.385 . S
C462 C460 1.478 . S
C462 C464 1.381 . S
C462 C468 1.383 . S
C463 C459 1.495 . S
C463 H469 0.959 . S
C463 H470 0.961 . S
C463 H471 0.960 . S
C464 C462 1.381 . S
C464 C465 1.394 . S
C464 H472 0.930 . S
C465 C464 1.394 . S
C465 C466 1.383 . S
C465 H473 0.929 . S
C466 C465 1.383 . S
C466 C467 1.377 . S
C467 H451 0.930 . S
C467 C466 1.377 . S
C467 C468 1.379 . S
C468 H452 0.931 . S
C468 C462 1.383 . S
C468 C467 1.379 . S
H469 C463 0.959 . S
H470 C463 0.961 . S
H471 C463 0.960 . S
H472 C464 0.930 . S
H473 C465 0.929 . S
H474 C482 0.929 . S
H475 C484 0.930 . S
H476 C486 0.930 . S
H477 C489 0.929 . S
H478 C492 0.930 . S
H479 C494 0.960 . S
H480 C494 0.960 . S
H481 C494 0.960 . S
C482 H474 0.929 . S
C482 C483 1.377 1_655 S
C482 C484 1.384 . S
C483 C482 1.377 1_455 S
C483 C489 1.390 . S
C484 H475 0.930 . S
C484 C482 1.384 . S
C484 C485 1.372 1_655 S
C485 C484 1.372 1_455 S
C485 C486 1.400 . S
C485 C490 1.490 . S
C486 H476 0.930 . S
C486 C485 1.400 . S
C486 C489 1.386 . S
H487 C503 0.930 . S
H488 C504 0.931 . S
C489 H477 0.929 . S
C489 C483 1.390 . S
C489 C486 1.386 . S
C490 C485 1.490 . S
C490 C492 1.395 1_455 S
C490 C493 1.403 . S
H491 C497 0.930 . S
C492 H478 0.930 . S
C492 C490 1.395 1_655 S
C492 C495 1.403 . S
C493 C490 1.403 . S
C493 C494 1.524 . S
C493 C497 1.400 . S
C494 H479 0.960 . S
C494 H480 0.960 . S
C494 H481 0.960 . S
C494 C493 1.524 . S
C495 C492 1.403 . S
C495 C496 1.392 1_655 S
C495 C499 1.495 . S
C496 C495 1.392 1_455 S
C496 C497 1.385 . S
C496 C498 1.478 . S
C497 H491 0.930 . S
C497 C493 1.400 . S
C497 C496 1.385 . S
C498 C496 1.478 . S
C498 C500 1.381 1_455 S
C498 C504 1.383 . S
C499 C495 1.495 . S
C499 H505 0.959 . S
C499 H506 0.961 . S
C499 H507 0.960 . S
C500 C498 1.381 1_655 S
C500 C501 1.394 . S
C500 H508 0.930 . S
C501 C500 1.394 . S
C501 C502 1.383 1_655 S
C501 H509 0.929 . S
C502 C501 1.383 1_455 S
C502 C503 1.377 . S
C503 H487 0.930 . S
C503 C502 1.377 . S
C503 C504 1.379 . S
C504 H488 0.931 . S
C504 C498 1.383 . S
C504 C503 1.379 . S
H505 C499 0.959 . S
H506 C499 0.961 . S
H507 C499 0.960 . S
H508 C500 0.930 . S
H509 C501 0.929 . S
H510 C518 0.929 . S
H511 C520 0.930 . S
H512 C522 0.930 . S
H513 C525 0.929 . S
H514 C528 0.930 . S
H515 C530 0.960 1_565 S
H516 C530 0.960 . S
H517 C530 0.960 1_565 S
C518 H510 0.929 . S
C518 C519 1.377 . S
C518 C520 1.384 . S
C519 C518 1.377 . S
C519 C525 1.390 1_545 S
C520 H511 0.930 . S
C520 C518 1.384 . S
C520 C521 1.372 . S
C521 C520 1.372 . S
C521 C522 1.400 1_545 S
C521 C526 1.490 . S
C522 H512 0.930 . S
C522 C521 1.400 1_565 S
C522 C525 1.386 . S
H523 C539 0.930 . S
H524 C540 0.931 . S
C525 H513 0.929 . S
C525 C519 1.390 1_565 S
C525 C522 1.386 . S
C526 C521 1.490 . S
C526 C528 1.395 . S
C526 C529 1.403 . S
H527 C533 0.930 . S
C528 H514 0.930 . S
C528 C526 1.395 . S
C528 C531 1.403 . S
C529 C526 1.403 . S
C529 C530 1.524 . S
C529 C533 1.400 . S
C530 H515 0.960 1_545 S
C530 H516 0.960 . S
C530 H517 0.960 1_545 S
C530 C529 1.524 . S
C531 C528 1.403 . S
C531 C532 1.392 . S
C531 C535 1.495 . S
C532 C531 1.392 . S
C532 C533 1.385 . S
C532 C534 1.478 . S
C533 H527 0.930 . S
C533 C529 1.400 . S
C533 C532 1.385 . S
C534 C532 1.478 . S
C534 C536 1.381 . S
C534 C540 1.383 1_545 S
C535 C531 1.495 . S
C535 H541 0.959 . S
C535 H542 0.961 . S
C535 H543 0.960 . S
C536 C534 1.381 . S
C536 C537 1.394 . S
C536 H544 0.930 . S
C537 C536 1.394 . S
C537 C538 1.383 . S
C537 H545 0.929 . S
C538 C537 1.383 . S
C538 C539 1.377 1_545 S
C539 H523 0.930 . S
C539 C538 1.377 1_565 S
C539 C540 1.379 . S
C540 H524 0.931 . S
C540 C534 1.383 1_565 S
C540 C539 1.379 . S
H541 C535 0.959 . S
H542 C535 0.961 . S
H543 C535 0.960 . S
H544 C536 0.930 . S
H545 C537 0.929 . S
H546 C554 0.929 . S
H547 C556 0.930 . S
H548 C558 0.930 . S
H549 C561 0.913 1_556 S
H550 C564 0.930 1_554 S
H551 C566 0.960 . S
H552 C566 0.960 . S
H553 C566 0.960 . S
C554 H546 0.929 . S
C554 C555 1.377 . S
C554 C556 1.384 . S
C555 C554 1.377 . S
C555 C561 1.441 . S
C556 H547 0.930 . S
C556 C554 1.384 . S
C556 C557 1.372 1_554 S
C557 C556 1.372 1_556 S
C557 C558 1.400 . S
C557 C562 1.490 . S
C558 H548 0.930 . S
C558 C557 1.400 . S
C558 C561 1.353 1_556 S
H559 C575 0.930 . S
H560 C576 0.931 . S
C561 H549 0.913 1_554 S
C561 C555 1.441 . S
C561 C558 1.353 1_554 S
C562 C557 1.490 . S
C562 C564 1.395 . S
C562 C565 1.403 . S
H563 C569 0.930 . S
C564 H550 0.930 1_556 S
C564 C562 1.395 . S
C564 C567 1.403 . S
C565 C562 1.403 . S
C565 C566 1.524 . S
C565 C569 1.400 . S
C566 H551 0.960 . S
C566 H552 0.960 . S
C566 H553 0.960 . S
C566 C565 1.524 . S
C567 C564 1.403 . S
C567 C568 1.392 . S
C567 C571 1.495 . S
C568 C567 1.392 . S
C568 C569 1.385 . S
C568 C570 1.478 . S
C569 H563 0.930 . S
C569 C565 1.400 . S
C569 C568 1.385 . S
C570 C568 1.478 . S
C570 C572 1.381 . S
C570 C576 1.383 . S
C571 C567 1.495 . S
C571 H577 0.959 . S
C571 H578 0.961 . S
C571 H579 0.960 . S
C572 C570 1.381 . S
C572 C573 1.394 . S
C572 H580 0.930 . S
C573 C572 1.394 . S
C573 C574 1.383 . S
C573 H581 0.929 . S
C574 C573 1.383 . S
C574 C575 1.377 . S
C575 H559 0.930 . S
C575 C574 1.377 . S
C575 C576 1.379 . S
C576 H560 0.931 . S
C576 C570 1.383 . S
C576 C575 1.379 . S
H577 C571 0.959 . S
H578 C571 0.961 . S
H579 C571 0.960 . S
H580 C572 0.930 . S
H581 C573 0.929 . S
H582 C590 0.929 . S
H583 C592 0.930 . S
H584 C594 0.930 1_655 S
H585 C597 0.929 1_655 S
H586 C600 0.930 . S
H587 C602 0.960 . S
H588 C602 0.960 . S
H589 C602 0.960 . S
C590 H582 0.929 . S
C590 C591 1.377 . S
C590 C592 1.384 . S
C591 C590 1.377 . S
C591 C597 1.390 . S
C592 H583 0.930 . S
C592 C590 1.384 . S
C592 C593 1.372 . S
C593 C592 1.372 . S
C593 C594 1.400 . S
C593 C598 1.490 . S
C594 H584 0.930 1_455 S
C594 C593 1.400 . S
C594 C597 1.386 . S
H595 C611 0.930 1_655 S
H596 C612 0.937 1_655 S
C597 H585 0.929 1_455 S
C597 C591 1.390 . S
C597 C594 1.386 . S
C598 C593 1.490 . S
C598 C600 1.395 . S
C598 C601 1.403 1_455 S
H599 C605 0.930 . S
C600 H586 0.930 . S
C600 C598 1.395 . S
C600 C603 1.403 . S
C601 C598 1.403 1_655 S
C601 C602 1.524 . S
C601 C605 1.400 . S
C602 H587 0.960 . S
C602 H588 0.960 . S
C602 H589 0.960 . S
C602 C601 1.524 . S
C603 C600 1.403 . S
C603 C604 1.392 . S
C603 C607 1.495 . S
C604 C603 1.392 . S
C604 C605 1.385 1_455 S
C604 C606 1.478 . S
C605 H599 0.930 . S
C605 C601 1.400 . S
C605 C604 1.385 1_655 S
C606 C604 1.478 . S
C606 C608 1.381 . S
C606 C612 1.383 . S
C607 C603 1.495 . S
C607 H613 0.959 . S
C607 H614 0.961 . S
C607 H615 0.960 . S
C608 C606 1.381 . S
C608 C609 1.394 . S
C608 H616 0.930 . S
C609 C608 1.394 . S
C609 C610 1.383 . S
C609 H617 0.929 . S
C610 C609 1.383 . S
C610 C611 1.377 . S
C611 H595 0.930 1_455 S
C611 C610 1.377 . S
C611 C612 1.379 . S
C612 H596 0.937 1_455 S
C612 C606 1.383 . S
C612 C611 1.379 . S
H613 C607 0.959 . S
H614 C607 0.961 . S
H615 C607 0.960 . S
H616 C608 0.930 . S
H617 C609 0.929 . S
C214 C63 1.513 . S
C195 C3 1.509 . S
C231 C21 1.529 . S
C250 C111 1.546 . S
C267 C37 1.505 . S
C286 C183 1.511 . S
C303 C8 1.521 . S
C322 C87 1.505 . S
C358 C135 1.519 . S
C339 C23 1.516 . S
C375 C35 1.513 . S
C394 C159 1.532 . S
C430 C120 1.487 . S
C411 C31 1.495 . S
C447 C7 1.509 . S
C466 C174 1.528 . S
C502 C78 1.508 . S
C483 C17 1.512 . S
C538 C126 1.495 . S
C519 C36 1.497 . S
C574 C168 1.525 . S
C555 C9 1.506 . S
C591 C22 1.521 . S
C610 C72 1.520 . S
