# Generated by pormake.
# Topology anh, (6,3)-cn, num edge types: 1
# Building blocks:
#     Node 0, Type 0, BuildingBlock: BETGAK_clean_sbu_0, # of connection points: 6
#     Node 1, Type 0, BuildingBlock: BETGAK_clean_sbu_0, # of connection points: 6
#     Node 2, Type 0, BuildingBlock: BETGAK_clean_sbu_0, # of connection points: 6
#     Node 3, Type 1, BuildingBlock: KAKCAD_clean_linker_0, # of connection points: 3
#     Node 4, Type 1, BuildingBlock: KAKCAD_clean_linker_0, # of connection points: 3
#     Node 5, Type 1, BuildingBlock: KAKCAD_clean_linker_0, # of connection points: 3
#     Node 6, Type 1, BuildingBlock: KAKCAD_clean_linker_0, # of connection points: 3
#     Node 7, Type 1, BuildingBlock: KAKCAD_clean_linker_0, # of connection points: 3
#     Node 8, Type 1, BuildingBlock: KAKCAD_clean_linker_0, # of connection points: 3
#     Edge 9, Type (0, 1), BuildingBlock: OJICUG_clean_linker_0, # of connection points: 2
#     Edge 10, Type (0, 1), BuildingBlock: OJICUG_clean_linker_0, # of connection points: 2
#     Edge 11, Type (0, 1), BuildingBlock: OJICUG_clean_linker_0, # of connection points: 2
#     Edge 12, Type (0, 1), BuildingBlock: OJICUG_clean_linker_0, # of connection points: 2
#     Edge 13, Type (0, 1), BuildingBlock: OJICUG_clean_linker_0, # of connection points: 2
#     Edge 14, Type (0, 1), BuildingBlock: OJICUG_clean_linker_0, # of connection points: 2
#     Edge 15, Type (0, 1), BuildingBlock: OJICUG_clean_linker_0, # of connection points: 2
#     Edge 16, Type (0, 1), BuildingBlock: OJICUG_clean_linker_0, # of connection points: 2
#     Edge 17, Type (0, 1), BuildingBlock: OJICUG_clean_linker_0, # of connection points: 2
#     Edge 18, Type (0, 1), BuildingBlock: OJICUG_clean_linker_0, # of connection points: 2
#     Edge 19, Type (0, 1), BuildingBlock: OJICUG_clean_linker_0, # of connection points: 2
#     Edge 20, Type (0, 1), BuildingBlock: OJICUG_clean_linker_0, # of connection points: 2
#     Edge 21, Type (0, 1), BuildingBlock: OJICUG_clean_linker_0, # of connection points: 2
#     Edge 22, Type (0, 1), BuildingBlock: OJICUG_clean_linker_0, # of connection points: 2
#     Edge 23, Type (0, 1), BuildingBlock: OJICUG_clean_linker_0, # of connection points: 2
#     Edge 24, Type (0, 1), BuildingBlock: OJICUG_clean_linker_0, # of connection points: 2
#     Edge 25, Type (0, 1), BuildingBlock: OJICUG_clean_linker_0, # of connection points: 2
#     Edge 26, Type (0, 1), BuildingBlock: OJICUG_clean_linker_0, # of connection points: 2
# Relax obj value: 0.215
# Max RMSD: 0.223
# Mean RMSD: 0.164
data_MOF--net-anh--node1-BETGAK_clean_sbu_0--node2-KAKCAD_clean_linker_0--edge1-OJICUG_clean_linker_0
_symmetry_space_group_name_H-M    P1
_symmetry_Int_Tables_number       1
_symmetry_cell_setting            triclinic
loop_
_symmetry_equiv_pos_as_xyz
'x, y, z'
_cell_length_a     29.480375
_cell_length_b     35.725346
_cell_length_c     52.490251
_cell_angle_alpha  92.126455
_cell_angle_beta   89.152856
_cell_angle_gamma 130.77331
loop_
_atom_site_label
_atom_site_type_symbol
_atom_site_fract_x
_atom_site_fract_y
_atom_site_fract_z
_atom_type_partial_charge
La0 La 0.13915 0.51263 0.15357 0.0
La1 La 1.07724 0.54917 0.15478 0.0
C2 C 0.21504 0.50336 0.14974 0.0
C3 C 0.27105 0.53402 0.16453 0.0
C4 C 0.28295 0.51197 0.18147 0.0
C5 C 0.33832 0.54078 0.19394 0.0
C6 C 0.38314 0.59079 0.18769 0.0
C7 C 0.3643 0.61456 0.17764 0.0
C8 C 0.31033 0.58599 0.16411 0.0
C9 C 0.10231 0.5132 0.19926 0.0
C10 C 0.21356 0.62975 0.15517 0.0
C11 C 1.02643 0.57531 0.17686 0.0
C12 C 0.96627 0.54149 0.18666 0.0
C13 C 0.92201 0.49823 0.1724 0.0
C14 C 0.86412 0.4659 0.18124 0.0
C15 C 0.84943 0.4771 0.20422 0.0
C16 C 0.89565 0.51622 0.22024 0.0
C17 C 0.95407 0.54883 0.21129 0.0
C18 C 0.0832 0.5335 0.10564 0.0
C19 C 1.00277 0.4337 0.15046 0.0
O20 O 0.16721 0.47425 0.1635 0.0
O21 O 0.20928 0.5259 0.13265 0.0
O22 O 0.09772 0.47716 0.18954 0.0
O23 O 0.12671 0.54698 0.18326 0.0
O24 O 0.21266 0.59336 0.16059 0.0
O25 O 0.16395 0.62029 0.14929 0.0
O26 O 1.03071 0.57466 0.15202 0.0
O27 O 1.06359 0.57347 0.18852 0.0
O28 O 1.05596 0.54797 0.11517 0.0
O29 O 0.10421 0.52565 0.12361 0.0
O30 O 1.00436 0.46939 0.16002 0.0
O31 O 1.05166 0.44459 0.14091 0.0
H32 H 0.25124 0.47232 0.18378 0.0
H33 H 0.3492 0.52164 0.2041 0.0
H34 H 0.39656 0.65391 0.17447 0.0
H35 H 0.30197 0.60473 0.15198 0.0
H36 H 0.93131 0.49046 0.15382 0.0
H37 H 0.82997 0.43595 0.16837 0.0
H38 H 0.88538 0.52496 0.23822 0.0
H39 H 0.98899 0.58072 0.22306 0.0
La40 La 0.62727 0.0151 0.47365 0.0
La41 La 0.55127 0.03908 0.47095 0.0
C42 C 0.67325 0.97699 0.48125 0.0
C43 C 0.64979 0.92653 0.4847 0.0
C44 C 0.67418 0.90963 0.47041 0.0
C45 C 0.65532 0.86294 0.47428 0.0
C46 C 0.61176 0.83246 0.49259 0.0
C47 C 0.58481 0.84835 0.50582 0.0
C48 C 0.60361 0.89503 0.50188 0.0
C49 C 0.61383 0.03352 0.42758 0.0
C50 C 0.48535 0.9285 0.46948 0.0
C51 C 0.50867 0.07902 0.46079 0.0
C52 C 0.52708 0.12751 0.46856 0.0
C53 C 0.5079 0.13355 0.4918 0.0
C54 C 0.52642 0.17952 0.49944 0.0
C55 C 0.56442 0.2205 0.484 0.0
C56 C 0.5838 0.21462 0.46078 0.0
C57 C 0.56526 0.16855 0.45312 0.0
C58 C 0.56594 0.02337 0.5179 0.0
C59 C 0.69447 0.12657 0.47445 0.0
O60 O 0.66458 0.98539 0.45864 0.0
O61 O 0.66329 0.99683 0.49944 0.0
O62 O 0.66412 0.04942 0.43703 0.0
O63 O 0.57284 1.00776 0.44356 0.0
O64 O 0.53607 0.94328 0.47939 0.0
O65 O 0.48346 0.96114 0.45998 0.0
O66 O 0.48811 0.04723 0.47876 0.0
O67 O 0.54521 0.08 0.44578 0.0
O68 O 0.51786 1.01281 0.50924 0.0
O69 O 0.6058 0.04644 0.5012 0.0
O70 O 0.64175 0.11206 0.46796 0.0
O71 O 0.69969 0.09425 0.48112 0.0
H72 H 0.70907 0.93314 0.45672 0.0
H73 H 0.67705 0.85182 0.46386 0.0
H74 H 0.55028 0.82518 0.51969 0.0
H75 H 0.58295 0.90679 0.51267 0.0
H76 H 0.47847 0.10276 0.50416 0.0
H77 H 0.51006 0.18272 0.51728 0.0
H78 H 0.61364 0.24571 0.44864 0.0
H79 H 0.58106 0.16515 0.43515 0.0
La80 La 0.67464 0.60244 0.83387 0.0
La81 La 0.58773 0.49361 0.83326 0.0
C82 C 0.72604 0.68932 0.82211 0.0
C83 C 0.70387 0.71565 0.81848 0.0
C84 C 0.7329 0.76173 0.83092 0.0
C85 C 0.71328 0.78771 0.82718 0.0
C86 C 0.66442 0.76802 0.81082 0.0
C87 C 0.63387 0.72089 0.79923 0.0
C88 C 0.65327 0.69487 0.80307 0.0
C89 C 0.64986 0.56419 0.87813 0.0
C90 C 0.52901 0.54387 0.83822 0.0
C91 C 0.53454 0.40447 0.84127 0.0
C92 C 0.54658 0.37123 0.83401 0.0
C93 C 0.52344 0.34313 0.81098 0.0
C94 C 0.53496 0.31208 0.80384 0.0
C95 C 0.56981 0.3082 0.81957 0.0
C96 C 0.59292 0.33617 0.84266 0.0
C97 C 0.58135 0.36733 0.84983 0.0
C98 C 0.61287 0.53169 0.7879 0.0
C99 C 0.73353 0.55268 0.83648 0.0
O100 O 0.72435 0.67693 0.84547 0.0
O101 O 0.70785 0.65375 0.80532 0.0
O102 O 0.70284 0.60458 0.87242 0.0
O103 O 0.61331 0.54923 0.86021 0.0
O104 O 0.58527 0.58571 0.8339 0.0
O105 O 0.51983 0.50232 0.84111 0.0
O106 O 0.52058 0.41877 0.82264 0.0
O107 O 0.57168 0.4408 0.85767 0.0
O108 O 0.56171 0.49075 0.79421 0.0
O109 O 0.64961 0.54697 0.80593 0.0
O110 O 0.67631 0.51056 0.83799 0.0
O111 O 0.74438 0.59468 0.83255 0.0
H112 H 0.77136 0.77796 0.84322 0.0
H113 H 0.73775 0.82398 0.83632 0.0
H114 H 0.59534 0.70438 0.78692 0.0
H115 H 0.62898 0.65878 0.79374 0.0
H116 H 0.49619 0.34497 0.7984 0.0
H117 H 0.51567 0.29049 0.78612 0.0
H118 H 0.62047 0.3344 0.85506 0.0
H119 H 0.59984 0.38847 0.86771 0.0
C120 C 0.61045 0.07617 0.30555 0.0
C121 C 0.59525 0.03591 0.31876 0.0
C122 C 0.61248 0.076 0.2789 0.0
C123 C 0.60037 0.03591 0.26486 0.0
C124 C 0.58526 0.99571 0.27824 0.0
C125 C 0.58223 0.99554 0.30483 0.0
C126 C 0.60351 0.03585 0.23642 0.0
C127 C 0.64635 0.07975 0.2236 0.0
C128 C 0.64986 0.08004 0.19681 0.0
C129 C 0.60995 0.03472 0.18261 0.0
C130 C 0.56671 0.99025 0.19535 0.0
C131 C 0.56373 0.99157 0.222 0.0
C132 C 0.52312 0.94106 0.18202 0.0
C133 C 0.46982 0.92638 0.17165 0.0
C134 C 0.52791 0.90491 0.18525 0.0
C135 C 0.47996 0.85497 0.17898 0.0
C136 C 0.42495 0.83932 0.16984 0.0
C137 C 0.69551 0.12876 0.18471 0.0
C138 C 0.69827 0.16857 0.19167 0.0
C139 C 0.74103 0.13806 0.16923 0.0
C140 C 0.79 0.18666 0.1622 0.0
C141 C 0.79427 0.22716 0.17022 0.0
C142 C 0.74625 0.21665 0.18435 0.0
C143 C 0.4213 0.87622 0.16572 0.0
H144 H 0.62049 0.1077 0.31586 0.0
H145 H 0.62318 0.10721 0.26935 0.0
H146 H 0.57695 0.96463 0.26827 0.0
H147 H 0.57147 0.96443 0.31455 0.0
H148 H 0.67823 0.11409 0.23452 0.0
H149 H 0.52931 0.95751 0.23149 0.0
H150 H 0.61212 0.03413 0.16199 0.0
H151 H 0.46429 0.95328 0.16966 0.0
H152 H 0.56805 0.91509 0.19375 0.0
H153 H 0.48598 0.82864 0.18189 0.0
H154 H 0.66372 0.16263 0.20346 0.0
H155 H 0.74042 0.10821 0.16371 0.0
H156 H 0.38006 0.86646 0.15913 0.0
H157 H 0.74561 0.24565 0.19019 0.0
H158 H 0.82552 0.19247 0.15138 0.0
C159 C 0.59853 0.55882 0.66752 0.0
C160 C 0.63677 0.554 0.67947 0.0
C161 C 0.59417 0.55681 0.64094 0.0
C162 C 0.62828 0.55026 0.62563 0.0
C163 C 0.66742 0.54645 0.63763 0.0
C164 C 0.67142 0.54809 0.66421 0.0
C165 C 0.62239 0.54664 0.59731 0.0
C166 C 0.61439 0.57577 0.58446 0.0
C167 C 0.60765 0.57177 0.5578 0.0
C168 C 0.61025 0.53909 0.54379 0.0
C169 C 0.61859 0.50993 0.55625 0.0
C170 C 0.62405 0.51357 0.58298 0.0
C171 C 0.62016 0.47464 0.54158 0.0
C172 C 0.578 0.44386 0.52203 0.0
C173 C 0.66216 0.46983 0.54798 0.0
C174 C 0.65989 0.43308 0.53616 0.0
C175 C 0.6155 0.40031 0.51772 0.0
C176 C 0.59801 0.60204 0.54474 0.0
C177 C 0.5575 0.60675 0.55473 0.0
C178 C 0.63077 0.62792 0.52295 0.0
C179 C 0.62562 0.66027 0.51228 0.0
C180 C 0.58754 0.66704 0.52324 0.0
C181 C 0.5522 0.63882 0.54405 0.0
C182 C 0.57569 0.40697 0.51018 0.0
H183 H 0.57048 0.56259 0.67873 0.0
H184 H 0.56284 0.55909 0.63242 0.0
H185 H 0.69525 0.54235 0.62649 0.0
H186 H 0.70178 0.5448 0.67283 0.0
H187 H 0.61451 0.60237 0.59515 0.0
H188 H 0.62799 0.48953 0.59267 0.0
H189 H 0.60548 0.53618 0.5232 0.0
H190 H 0.54499 0.44669 0.51673 0.0
H191 H 0.69606 0.49387 0.56254 0.0
H192 H 0.69195 0.42945 0.54194 0.0
H193 H 0.53066 0.58627 0.57114 0.0
H194 H 0.66234 0.6249 0.51487 0.0
H195 H 0.54078 0.38208 0.49612 0.0
H196 H 0.52156 0.64257 0.55253 0.0
H197 H 0.65365 0.68177 0.49631 0.0
C198 C 0.16455 0.55958 0.98334 0.0
C199 C 0.10788 0.52933 0.99491 0.0
C200 C 0.16977 0.56296 0.95663 0.0
C201 C 0.1185 0.53617 0.94067 0.0
C202 C 1.062 0.50498 0.95225 0.0
C203 C 1.0568 0.5016 0.97884 0.0
C204 C 0.12339 0.5408 0.91214 0.0
C205 C 0.16618 0.54228 0.89879 0.0
C206 C 0.17266 0.54627 0.87206 0.0
C207 C 0.13011 0.54717 0.85836 0.0
C208 C 0.08431 0.5451 0.87178 0.0
C209 C 0.08444 0.54306 0.89861 0.0
C210 C 1.03308 0.54305 0.8607 0.0
C211 C 1.04177 0.57869 0.84482 0.0
C212 C 0.97416 0.50917 0.87066 0.0
C213 C 0.9282 0.51128 0.86605 0.0
C214 C 0.93636 0.54721 0.85069 0.0
C215 C 0.22609 0.55037 0.86143 0.0
C216 C 0.28305 0.58302 0.87394 0.0
C217 C 0.22026 0.51669 0.84336 0.0
C218 C 0.26784 0.51548 0.83871 0.0
C219 C 0.3245 0.54773 0.85184 0.0
C220 C 0.33001 0.58175 0.86943 0.0
C221 C 0.99501 0.58058 0.83992 0.0
H222 H 0.20499 0.58189 0.99495 0.0
H223 H 0.2141 0.58765 0.94852 0.0
H224 H 1.02144 0.48284 0.94071 0.0
H225 H 1.01234 0.47705 0.98683 0.0
H226 H 0.19481 0.53945 0.90961 0.0
H227 H 1.05329 0.54356 0.90948 0.0
H228 H 0.13256 0.54938 0.83782 0.0
H229 H 0.08561 0.60659 0.83683 0.0
H230 H 0.96361 0.48105 0.88318 0.0
H231 H 0.88619 0.48465 0.87554 0.0
H232 H 0.29098 0.60924 0.88838 0.0
H233 H 0.17787 0.48967 0.83343 0.0
H234 H 1.00571 0.60909 0.82774 0.0
H235 H 0.37052 0.60713 0.88075 0.0
H236 H 0.25953 0.48848 0.82477 0.0
C237 C 1.03214 0.49499 0.32242 0.0
C238 C 0.08643 0.52583 0.30918 0.0
C239 C 1.03163 0.49537 0.34914 0.0
C240 C 0.08553 0.52601 0.36341 0.0
C241 C 0.13982 0.55683 0.35002 0.0
C242 C 0.1402 0.55707 0.32334 0.0
C243 C 0.08536 0.5259 0.39201 0.0
C244 C 1.04187 0.48256 0.40512 0.0
C245 C 1.04099 0.48211 0.432 0.0
C246 C 0.08698 0.52616 0.44603 0.0
C247 C 0.13192 0.56995 0.43307 0.0
C248 C 0.1293 0.5693 0.40632 0.0
C249 C 0.18339 0.61751 0.44615 0.0
C250 C 0.1747 0.64357 0.46326 0.0
C251 C 0.24182 0.6415 0.43751 0.0
C252 C 0.28954 0.69105 0.44435 0.0
C253 C 0.28032 0.71797 0.46015 0.0
C254 C 0.99064 0.43472 0.44427 0.0
C255 C 0.93184 0.40811 0.43512 0.0
C256 C 1.00054 0.41248 0.46236 0.0
C257 C 0.95346 0.36335 0.46948 0.0
C258 C 0.89546 0.33553 0.45872 0.0
C259 C 0.88519 0.35964 0.44226 0.0
C260 C 0.22285 0.69355 0.47014 0.0
H261 H 0.98988 0.47069 0.31207 0.0
H262 H 0.98879 0.47181 0.35855 0.0
H263 H 0.18246 0.58019 0.36008 0.0
H264 H 0.18284 0.58066 0.31374 0.0
H265 H 1.00865 0.44839 0.39434 0.0
H266 H 0.16203 0.60346 0.39661 0.0
H267 H 0.08778 0.52639 0.46667 0.0
H268 H 0.1302 0.62637 0.46999 0.0
H269 H 0.24993 0.62255 0.42421 0.0
H270 H 0.3333 0.70903 0.43637 0.0
H271 H 0.92221 0.42432 0.42156 0.0
H272 H 1.04523 0.43194 0.46986 0.0
H273 H 0.21474 0.71368 0.48238 0.0
H274 H 0.84103 0.34065 0.43428 0.0
H275 H 0.9633 0.34649 0.48241 0.0
C276 C 0.57092 0.98278 0.63892 0.0
C277 C 0.59807 0.02713 0.62661 0.0
C278 C 0.57204 0.98224 0.66558 0.0
C279 C 0.60135 0.02627 0.68051 0.0
C280 C 0.63052 0.07085 0.66792 0.0
C281 C 0.62825 0.07115 0.64137 0.0
C282 C 0.60069 0.02592 0.70902 0.0
C283 C 0.60094 0.99239 0.72207 0.0
C284 C 0.60055 0.99234 0.7489 0.0
C285 C 0.60148 0.0271 0.76286 0.0
C286 C 0.60211 0.06127 0.75019 0.0
C287 C 0.60033 0.05967 0.72342 0.0
C288 C 0.60565 0.09956 0.76454 0.0
C289 C 0.56708 0.08729 0.78489 0.0
C290 C 0.64587 0.14861 0.75677 0.0
C291 C 0.64513 0.18411 0.76798 0.0
C292 C 0.60378 0.17134 0.78711 0.0
C293 C 0.60091 0.95662 0.76209 0.0
C294 C 0.56361 0.90709 0.75324 0.0
C295 C 0.64073 0.97216 0.78251 0.0
C296 C 0.64583 0.93944 0.79274 0.0
C297 C 0.61102 0.89066 0.78276 0.0
C298 C 0.56846 0.87444 0.76352 0.0
C299 C 0.56601 0.12292 0.79606 0.0
H300 H 0.54696 0.94824 0.62796 0.0
H301 H 0.54842 0.94705 0.67442 0.0
H302 H 0.65522 0.10581 0.67851 0.0
H303 H 0.65014 0.10594 0.63233 0.0
H304 H 0.60311 0.96706 0.71141 0.0
H305 H 0.59796 0.08472 0.71386 0.0
H306 H 0.6022 0.02786 0.78353 0.0
H307 H 0.5358 0.04971 0.7913 0.0
H308 H 0.67712 0.1593 0.74155 0.0
H309 H 0.67605 0.22141 0.76118 0.0
H310 H 0.5315 0.89385 0.73795 0.0
H311 H 0.67002 1.01019 0.78971 0.0
H312 H 0.53362 0.11189 0.81077 0.0
H313 H 0.53989 0.83671 0.7559 0.0
H314 H 0.67914 0.95308 0.80752 0.0
C315 C 0.59071 0.44194 0.98377 0.0
C316 C 0.58285 0.47265 0.97306 0.0
C317 C 0.57338 0.42755 0.00885 0.0
C318 C 0.54886 0.4444 0.02328 0.0
C319 C 0.54185 0.47565 0.01226 0.0
C320 C 0.55811 0.48916 0.98725 0.0
C321 C 0.53466 0.43301 0.05035 0.0
C322 C 0.57582 0.43785 0.06656 0.0
C323 C 0.56819 0.43659 0.09293 0.0
C324 C 0.51879 0.4291 0.10297 0.0
C325 C 0.48169 0.4297 0.08725 0.0
C326 C 0.48622 0.42702 0.06087 0.0
C327 C 0.46018 0.45404 0.09817 0.0
C328 C 0.43276 0.44066 0.12208 0.0
C329 C 0.48503 0.50023 0.08876 0.0
C330 C 0.48816 0.53442 0.10403 0.0
C331 C 0.46536 0.52274 0.12881 0.0
C332 C 0.61448 0.44896 0.11072 0.0
C333 C 0.63718 0.42477 0.10857 0.0
C334 C 0.63029 0.48072 0.13193 0.0
C335 C 0.66116 0.4828 0.15234 0.0
C336 C 0.67904 0.45484 0.15138 0.0
C337 C 0.66977 0.42799 0.12877 0.0
C338 C 0.43528 0.47479 0.1373 0.0
H339 H 0.61023 0.42935 0.9728 0.0
H340 H 0.57954 0.40371 0.017 0.0
H341 H 0.52547 0.491 0.0231 0.0
H342 H 0.55277 0.51358 0.97913 0.0
H343 H 0.61597 0.44647 0.05891 0.0
H344 H 0.45654 0.42676 0.04876 0.0
H345 H 0.51454 0.43015 0.12349 0.0
H346 H 0.41378 0.40539 0.12978 0.0
H347 H 0.50771 0.51209 0.07063 0.0
H348 H 0.51128 0.57087 0.09684 0.0
H349 H 0.62686 0.40122 0.09202 0.0
H350 H 0.61541 0.50157 0.13344 0.0
H351 H 0.41507 0.464 0.15595 0.0
H352 H 0.68619 0.40836 0.12696 0.0
H353 H 0.66861 0.50466 0.1692 0.0
C354 C 0.4615 0.58369 0.18766 0.0
C355 C 0.43814 0.6034 0.17676 0.0
H356 H 0.48698 0.54031 0.1805 0.0
C357 C 0.44703 0.61287 0.15047 0.0
H358 H 0.45817 0.57816 0.20798 0.0
C359 C 0.4604 0.58931 0.13473 0.0
C360 C 0.46982 0.55941 0.14527 0.0
H361 H 0.43264 0.63018 0.14115 0.0
H362 H 0.4564 0.59013 0.11432 0.0
C363 C 0.47625 0.56081 0.17187 0.0
C364 C 0.79035 0.2095 0.49058 0.0
C365 C 0.74847 0.17906 0.47087 0.0
H366 H 0.86872 0.28309 0.50265 0.0
C367 C 0.7568 0.19961 0.44722 0.0
H368 H 0.78473 0.19453 0.50907 0.0
C369 C 0.80523 0.24952 0.4433 0.0
C370 C 0.84618 0.28118 0.46316 0.0
H371 H 0.72568 0.17682 0.43159 0.0
H372 H 0.81033 0.26325 0.4245 0.0
C373 C 0.83851 0.2602 0.48683 0.0
C374 C 0.64678 0.82638 0.823 0.0
C375 C 0.64813 0.79793 0.80428 0.0
H376 H 0.63298 0.87761 0.83098 0.0
C377 C 0.63633 0.79972 0.77876 0.0
H378 H 0.65544 0.82548 0.84285 0.0
C379 C 0.62376 0.82943 0.77201 0.0
C380 C 0.62237 0.85797 0.79061 0.0
H381 H 0.63847 0.77919 0.76382 0.0
H382 H 0.61665 0.83099 0.75202 0.0
C383 C 0.63399 0.85617 0.81622 0.0
C384 C 0.74071 0.41638 0.195 0.0
C385 C 0.79028 0.4631 0.20502 0.0
H386 H 0.66626 0.37734 0.16908 0.0
C387 C 0.79052 0.50249 0.20411 0.0
H388 H 0.7389 0.38518 0.19597 0.0
C389 C 0.75116 0.49886 0.18782 0.0
C390 C 0.70905 0.45488 0.17352 0.0
H391 H 0.82753 0.53888 0.21202 0.0
H392 H 0.75852 0.53216 0.18444 0.0
C393 C 0.70047 0.41242 0.17897 0.0
C394 C 0.42306 0.84198 0.48554 0.0
C395 C 0.43118 0.87487 0.46807 0.0
H396 H 0.36797 0.76657 0.49711 0.0
C397 C 0.3875 0.85579 0.44886 0.0
H398 H 0.45567 0.85551 0.50064 0.0
C399 C 0.33772 0.80499 0.4468 0.0
C400 C 0.32988 0.77221 0.46416 0.0
H401 H 0.39267 0.87994 0.43493 0.0
H402 H 0.30587 0.79109 0.4313 0.0
C403 C 0.37277 0.79119 0.48365 0.0
C404 C 0.59255 0.27088 0.78616 0.0
C405 C 0.5813 0.27467 0.8118 0.0
H406 H 0.60688 0.23471 0.75829 0.0
C407 C 0.57904 0.24501 0.8296 0.0
H408 H 0.59534 0.29358 0.77199 0.0
C409 C 0.58687 0.21168 0.82179 0.0
C410 C 0.59728 0.20752 0.79604 0.0
H411 H 0.56989 0.24674 0.84947 0.0
H412 H 0.58479 0.18922 0.83588 0.0
C413 C 0.60004 0.23756 0.77836 0.0
C414 C 0.59569 0.75547 0.48139 0.0
C415 C 0.59958 0.78706 0.49985 0.0
H416 H 0.58813 0.69205 0.4743 0.0
C417 C 0.59697 0.7775 0.52576 0.0
H418 H 0.59734 0.76188 0.46126 0.0
C419 C 0.59175 0.73789 0.53314 0.0
C420 C 0.58892 0.70677 0.5148 0.0
H421 H 0.60146 0.80188 0.54046 0.0
H422 H 0.59214 0.73273 0.55332 0.0
C423 C 0.59051 0.71565 0.48882 0.0
C424 C 0.77648 0.51109 0.84976 0.0
C425 C 0.78605 0.55206 0.83971 0.0
H426 H 0.81097 0.47646 0.86073 0.0
C427 C 0.84664 0.59182 0.8332 0.0
H428 H 0.73171 0.47934 0.85536 0.0
C429 C 0.89405 0.59038 0.83636 0.0
C430 C 0.8846 0.54925 0.84656 0.0
H431 H 0.85778 0.62454 0.82539 0.0
H432 H 0.93868 0.6224 0.83092 0.0
C433 C 0.82365 0.50975 0.8531 0.0
C434 C 0.31435 0.69795 0.17569 0.0
C435 C 0.26941 0.6825 0.15795 0.0
H436 H 0.39628 0.75861 0.19433 0.0
C437 C 0.27605 0.71864 0.144 0.0
H438 H 0.30994 0.67117 0.18718 0.0
C439 C 0.3265 0.76891 0.14748 0.0
C440 C 0.37152 0.78499 0.16551 0.0
H441 H 0.24211 0.708 0.13021 0.0
H442 H 0.33 0.79498 0.13578 0.0
C443 C 0.36424 0.74844 0.17966 0.0
C444 C 0.59744 0.28553 0.51757 0.0
C445 C 0.58231 0.26876 0.49199 0.0
H446 H 0.61903 0.33983 0.54571 0.0
C447 C 0.58147 0.29713 0.47446 0.0
H448 H 0.59914 0.26478 0.53146 0.0
C449 C 0.59362 0.34063 0.48258 0.0
C450 C 0.60719 0.3566 0.50833 0.0
H451 H 0.56952 0.2849 0.45464 0.0
H452 H 0.59177 0.36145 0.4688 0.0
C453 C 0.60959 0.32888 0.52566 0.0
C454 C 0.41569 0.50314 0.8349 0.0
C455 C 0.47638 0.54445 0.84139 0.0
H456 H 0.32306 0.47112 0.83223 0.0
C457 C 0.48566 0.58657 0.85119 0.0
H458 H 0.40494 0.46959 0.8272 0.0
C459 C 0.43781 0.58734 0.85452 0.0
C460 C 0.37686 0.54632 0.84784 0.0
H461 H 0.53057 0.61945 0.85676 0.0
H462 H 0.44965 0.62127 0.86216 0.0
C463 C 0.3678 0.50421 0.83773 0.0
C464 C 0.91366 0.36875 0.17622 0.0
C465 C 0.94886 0.38096 0.15455 0.0
H466 H 0.84127 0.31221 0.19898 0.0
C467 C 0.93424 0.34219 0.13824 0.0
H468 H 0.92474 0.39748 0.18969 0.0
C469 C 0.88435 0.29253 0.14307 0.0
C470 C 0.84851 0.28012 0.16475 0.0
H471 H 0.96097 0.35029 0.12154 0.0
H472 H 0.8737 0.26409 0.12957 0.0
C473 C 0.86512 0.31935 0.18145 0.0
C474 C 0.13293 0.5292 0.06681 0.0
C475 C 0.08861 0.52883 0.07755 0.0
H476 H 0.1744 0.53006 0.03239 0.0
C477 C 1.05061 0.52761 0.06096 0.0
H478 H 0.16334 0.53062 0.07904 0.0
C479 C 1.0567 0.5272 0.03447 0.0
C480 C 0.10142 0.52838 0.02348 0.0
H481 H 1.01614 0.52754 0.06848 0.0
H482 H 1.02703 0.52727 0.0226 0.0
C483 C 0.13956 0.52936 0.04007 0.0
C484 C 0.55317 0.99566 0.38719 0.0
C485 C 0.60499 0.03595 0.40037 0.0
H486 H 0.50983 0.96377 0.35068 0.0
C487 C 0.6513 0.07745 0.38691 0.0
H488 H 0.51706 0.96312 0.39721 0.0
C489 C 0.64674 0.07828 0.36052 0.0
C490 C 0.59638 0.03705 0.34704 0.0
H491 H 0.69164 0.10892 0.39675 0.0
H492 H 0.68382 0.11031 0.35053 0.0
C493 C 0.54924 0.99594 0.36064 0.0
C494 C 0.63165 0.51175 0.74546 0.0
C495 C 0.62925 0.54311 0.76104 0.0
H496 H 0.63587 0.49059 0.70742 0.0
C497 C 0.63308 0.58019 0.75 0.0
H498 H 0.62755 0.48227 0.75366 0.0
C499 C 0.63746 0.58489 0.72351 0.0
C500 C 0.63804 0.55249 0.7077 0.0
H501 H 0.63012 0.60411 0.76171 0.0
H502 H 0.63913 0.61317 0.71536 0.0
C503 C 0.63637 0.51655 0.71904 0.0
C504 C 0.56266 0.0481 0.56236 0.0
C505 C 0.57793 0.02662 0.54544 0.0
H506 H 0.558 0.06565 0.60126 0.0
C507 C 0.60085 1.00578 0.55524 0.0
H508 H 0.54459 0.06416 0.55523 0.0
C509 C 0.60734 1.00566 0.58167 0.0
C510 C 0.59224 0.02739 0.59859 0.0
H511 H 0.61191 0.98824 0.54259 0.0
H512 H 0.62425 0.98874 0.58889 0.0
C513 C 0.57042 0.04902 0.58864 0.0
C514 C 0.57447 0.49568 0.90567 0.0
C515 C 0.63431 0.53778 0.90154 0.0
H516 H 0.51155 0.44077 0.93201 0.0
C517 C 0.67833 0.55458 0.92003 0.0
H518 H 0.53979 0.48216 0.89161 0.0
C519 C 0.66209 0.53057 0.94296 0.0
C520 C 0.60192 0.48975 0.94734 0.0
H521 H 0.72472 0.587 0.91709 0.0
H522 H 0.69573 0.54534 0.95776 0.0
C523 C 0.55834 0.47176 0.92851 0.0
C524 C 0.12676 0.56386 0.23988 0.0
C525 C 0.09446 0.51767 0.22692 0.0
H526 H 0.15003 0.60276 0.27619 0.0
C527 C 1.05732 0.47458 0.24103 0.0
H528 H 0.156 0.59769 0.22954 0.0
C529 C 1.0534 0.47738 0.26753 0.0
C530 C 0.08727 0.52344 0.28072 0.0
H531 H 1.03191 0.43845 0.23157 0.0
H532 H 1.02539 0.44339 0.27781 0.0
C533 C 0.12364 0.56671 0.26658 0.0
loop_
_geom_bond_atom_site_label_1
_geom_bond_atom_site_label_2
_geom_bond_distance
_geom_bond_site_symmetry_2
_ccdc_geom_bond_type
La0 C2 2.928 . S
La0 O20 2.521 . S
La0 O21 2.628 . S
La0 O22 2.554 . S
La0 O23 2.757 . S
La0 O24 2.470 . S
La0 O29 2.482 . S
La0 O31 2.503 1_455 S
La1 C11 2.928 . S
La1 O23 2.482 1_655 S
La1 O25 2.503 1_655 S
La1 O26 2.521 . S
La1 O27 2.628 . S
La1 O28 2.554 . S
La1 O29 2.757 1_655 S
La1 O30 2.470 . S
C2 La0 2.928 . S
C2 C3 1.503 . S
C2 O20 1.261 . S
C2 O21 1.243 . S
C3 C2 1.503 . S
C3 C4 1.394 . S
C3 C8 1.373 . S
C4 C3 1.394 . S
C4 C5 1.380 . S
C4 H32 0.930 . S
C5 C4 1.380 . S
C5 C6 1.376 . S
C5 H33 0.930 . S
C6 C5 1.376 . S
C6 C7 1.370 . S
C7 C6 1.370 . S
C7 C8 1.396 . S
C7 H34 0.929 . S
C8 C3 1.373 . S
C8 C7 1.396 . S
C8 H35 0.929 . S
C9 O22 1.240 . S
C9 O23 1.289 . S
C10 O24 1.258 . S
C10 O25 1.256 . S
C11 La1 2.928 . S
C11 C12 1.503 . S
C11 O26 1.261 . S
C11 O27 1.243 . S
C12 C11 1.503 . S
C12 C13 1.394 . S
C12 C17 1.373 . S
C13 C12 1.394 . S
C13 C14 1.380 . S
C13 H36 0.930 . S
C14 C13 1.380 . S
C14 C15 1.376 . S
C14 H37 0.930 . S
C15 C14 1.376 . S
C15 C16 1.370 . S
C16 C15 1.370 . S
C16 C17 1.396 . S
C16 H38 0.929 . S
C17 C12 1.373 . S
C17 C16 1.396 . S
C17 H39 0.929 . S
C18 O28 1.240 1_455 S
C18 O29 1.289 . S
C19 O30 1.258 . S
C19 O31 1.256 . S
O20 La0 2.521 . S
O20 C2 1.261 . S
O21 La0 2.628 . S
O21 C2 1.243 . S
O22 La0 2.554 . S
O22 C9 1.240 . S
O23 La0 2.757 . S
O23 La1 2.482 1_455 S
O23 C9 1.289 . S
O24 La0 2.470 . S
O24 C10 1.258 . S
O25 La1 2.503 1_455 S
O25 C10 1.256 . S
O26 La1 2.521 . S
O26 C11 1.261 . S
O27 La1 2.628 . S
O27 C11 1.243 . S
O28 La1 2.554 . S
O28 C18 1.240 1_655 S
O29 La0 2.482 . S
O29 La1 2.757 1_455 S
O29 C18 1.289 . S
O30 La1 2.470 . S
O30 C19 1.258 . S
O31 La0 2.503 1_655 S
O31 C19 1.256 . S
H32 C4 0.930 . S
H33 C5 0.930 . S
H34 C7 0.929 . S
H35 C8 0.929 . S
H36 C13 0.930 . S
H37 C14 0.930 . S
H38 C16 0.929 . S
H39 C17 0.929 . S
La40 C42 2.928 . S
La40 O60 2.521 . S
La40 O61 2.628 . S
La40 O62 2.554 . S
La40 O63 2.757 1_565 S
La40 O64 2.470 . S
La40 O69 2.482 . S
La40 O71 2.503 1_565 S
La41 C51 2.928 . S
La41 O63 2.482 . S
La41 O65 2.503 1_545 S
La41 O66 2.521 . S
La41 O67 2.628 . S
La41 O68 2.554 . S
La41 O69 2.757 1_545 S
La41 O70 2.470 . S
C42 La40 2.928 . S
C42 C43 1.503 . S
C42 O60 1.261 . S
C42 O61 1.243 . S
C43 C42 1.503 . S
C43 C44 1.394 . S
C43 C48 1.373 . S
C44 C43 1.394 . S
C44 C45 1.380 . S
C44 H72 0.930 . S
C45 C44 1.380 . S
C45 C46 1.376 . S
C45 H73 0.930 . S
C46 C45 1.376 . S
C46 C47 1.370 . S
C47 C46 1.370 . S
C47 C48 1.396 . S
C47 H74 0.929 . S
C48 C43 1.373 . S
C48 C47 1.396 . S
C48 H75 0.929 . S
C49 O62 1.240 1_545 S
C49 O63 1.289 . S
C50 O64 1.258 . S
C50 O65 1.256 . S
C51 La41 2.928 . S
C51 C52 1.503 . S
C51 O66 1.261 . S
C51 O67 1.243 . S
C52 C51 1.503 . S
C52 C53 1.394 . S
C52 C57 1.373 . S
C53 C52 1.394 . S
C53 C54 1.380 . S
C53 H76 0.930 . S
C54 C53 1.380 . S
C54 C55 1.376 . S
C54 H77 0.930 . S
C55 C54 1.376 . S
C55 C56 1.370 . S
C56 C55 1.370 . S
C56 C57 1.396 . S
C56 H78 0.929 . S
C57 C52 1.373 . S
C57 C56 1.396 . S
C57 H79 0.929 . S
C58 O68 1.240 . S
C58 O69 1.289 1_545 S
C59 O70 1.258 . S
C59 O71 1.256 . S
O60 La40 2.521 . S
O60 C42 1.261 . S
O61 La40 2.628 . S
O61 C42 1.243 . S
O62 La40 2.554 . S
O62 C49 1.240 1_565 S
O63 La40 2.757 1_545 S
O63 La41 2.482 . S
O63 C49 1.289 . S
O64 La40 2.470 . S
O64 C50 1.258 . S
O65 La41 2.503 1_565 S
O65 C50 1.256 . S
O66 La41 2.521 . S
O66 C51 1.261 . S
O67 La41 2.628 . S
O67 C51 1.243 . S
O68 La41 2.554 . S
O68 C58 1.240 . S
O69 La40 2.482 . S
O69 La41 2.757 1_565 S
O69 C58 1.289 1_565 S
O70 La41 2.470 . S
O70 C59 1.258 . S
O71 La40 2.503 1_545 S
O71 C59 1.256 . S
H72 C44 0.930 . S
H73 C45 0.930 . S
H74 C47 0.929 . S
H75 C48 0.929 . S
H76 C53 0.930 . S
H77 C54 0.930 . S
H78 C56 0.929 . S
H79 C57 0.929 . S
La80 C82 2.928 . S
La80 O100 2.521 . S
La80 O101 2.628 . S
La80 O102 2.554 . S
La80 O103 2.757 . S
La80 O104 2.470 . S
La80 O109 2.482 . S
La80 O111 2.503 . S
La81 C91 2.928 . S
La81 O103 2.482 . S
La81 O105 2.503 . S
La81 O106 2.521 . S
La81 O107 2.628 . S
La81 O108 2.554 . S
La81 O109 2.757 . S
La81 O110 2.470 . S
C82 La80 2.928 . S
C82 C83 1.503 . S
C82 O100 1.261 . S
C82 O101 1.243 . S
C83 C82 1.503 . S
C83 C84 1.394 . S
C83 C88 1.373 . S
C84 C83 1.394 . S
C84 C85 1.380 . S
C84 H112 0.930 . S
C85 C84 1.380 . S
C85 C86 1.376 . S
C85 H113 0.930 . S
C86 C85 1.376 . S
C86 C87 1.370 . S
C87 C86 1.370 . S
C87 C88 1.396 . S
C87 H114 0.929 . S
C88 C83 1.373 . S
C88 C87 1.396 . S
C88 H115 0.929 . S
C89 O102 1.240 . S
C89 O103 1.289 . S
C90 O104 1.258 . S
C90 O105 1.256 . S
C91 La81 2.928 . S
C91 C92 1.503 . S
C91 O106 1.261 . S
C91 O107 1.243 . S
C92 C91 1.503 . S
C92 C93 1.394 . S
C92 C97 1.373 . S
C93 C92 1.394 . S
C93 C94 1.380 . S
C93 H116 0.930 . S
C94 C93 1.380 . S
C94 C95 1.376 . S
C94 H117 0.930 . S
C95 C94 1.376 . S
C95 C96 1.370 . S
C96 C95 1.370 . S
C96 C97 1.396 . S
C96 H118 0.929 . S
C97 C92 1.373 . S
C97 C96 1.396 . S
C97 H119 0.929 . S
C98 O108 1.240 . S
C98 O109 1.289 . S
C99 O110 1.258 . S
C99 O111 1.256 . S
O100 La80 2.521 . S
O100 C82 1.261 . S
O101 La80 2.628 . S
O101 C82 1.243 . S
O102 La80 2.554 . S
O102 C89 1.240 . S
O103 La80 2.757 . S
O103 La81 2.482 . S
O103 C89 1.289 . S
O104 La80 2.470 . S
O104 C90 1.258 . S
O105 La81 2.503 . S
O105 C90 1.256 . S
O106 La81 2.521 . S
O106 C91 1.261 . S
O107 La81 2.628 . S
O107 C91 1.243 . S
O108 La81 2.554 . S
O108 C98 1.240 . S
O109 La80 2.482 . S
O109 La81 2.757 . S
O109 C98 1.289 . S
O110 La81 2.470 . S
O110 C99 1.258 . S
O111 La80 2.503 . S
O111 C99 1.256 . S
H112 C84 0.930 . S
H113 C85 0.930 . S
H114 C87 0.929 . S
H115 C88 0.929 . S
H116 C93 0.930 . S
H117 C94 0.930 . S
H118 C96 0.929 . S
H119 C97 0.929 . S
C120 C121 1.386 . S
C120 C122 1.397 . S
C120 H144 0.931 . S
C121 C120 1.386 . S
C121 C125 1.397 1_545 S
C122 C120 1.397 . S
C122 C123 1.384 . S
C122 H145 0.930 . S
C123 C122 1.384 . S
C123 C124 1.377 1_545 S
C123 C126 1.481 . S
C124 C123 1.377 1_565 S
C124 C125 1.389 . S
C124 H146 0.929 . S
C125 C121 1.397 1_565 S
C125 C124 1.389 . S
C125 H147 0.931 . S
C126 C123 1.481 . S
C126 C127 1.387 . S
C126 C131 1.390 1_545 S
C127 C126 1.387 . S
C127 C128 1.401 . S
C127 H148 0.930 . S
C128 C127 1.401 . S
C128 C129 1.376 . S
C128 C137 1.511 . S
C129 C128 1.376 . S
C129 C130 1.392 1_545 S
C129 H150 0.931 . S
C130 C129 1.392 1_565 S
C130 C131 1.361 . S
C130 C132 1.500 . S
C131 C126 1.390 1_565 S
C131 C130 1.361 . S
C131 H149 0.931 . S
C132 C130 1.500 . S
C132 C133 1.371 . S
C132 C134 1.365 . S
C133 C132 1.371 . S
C133 C143 1.386 . S
C133 H151 0.931 . S
C134 C132 1.365 . S
C134 C135 1.409 . S
C134 H152 0.929 . S
C135 C134 1.409 . S
C135 C136 1.380 . S
C135 H153 0.930 . S
C136 C135 1.380 . S
C136 C143 1.357 . S
C137 C128 1.511 . S
C137 C138 1.341 . S
C137 C139 1.371 . S
C138 C137 1.341 . S
C138 C142 1.394 . S
C138 H154 0.930 . S
C139 C137 1.371 . S
C139 C140 1.392 . S
C139 H155 0.931 . S
C140 C139 1.392 . S
C140 C141 1.331 . S
C140 H158 0.932 . S
C141 C140 1.331 . S
C141 C142 1.336 . S
C142 C138 1.394 . S
C142 C141 1.336 . S
C142 H157 0.929 . S
C143 C133 1.386 . S
C143 C136 1.357 . S
C143 H156 0.928 . S
H144 C120 0.931 . S
H145 C122 0.930 . S
H146 C124 0.929 . S
H147 C125 0.931 . S
H148 C127 0.930 . S
H149 C131 0.931 . S
H150 C129 0.931 . S
H151 C133 0.931 . S
H152 C134 0.929 . S
H153 C135 0.930 . S
H154 C138 0.930 . S
H155 C139 0.931 . S
H156 C143 0.928 . S
H157 C142 0.929 . S
H158 C140 0.932 . S
C159 C160 1.386 . S
C159 C161 1.397 . S
C159 H183 0.931 . S
C160 C159 1.386 . S
C160 C164 1.397 . S
C161 C159 1.397 . S
C161 C162 1.384 . S
C161 H184 0.930 . S
C162 C161 1.384 . S
C162 C163 1.377 . S
C162 C165 1.481 . S
C163 C162 1.377 . S
C163 C164 1.389 . S
C163 H185 0.929 . S
C164 C160 1.397 . S
C164 C163 1.389 . S
C164 H186 0.931 . S
C165 C162 1.481 . S
C165 C166 1.387 . S
C165 C170 1.390 . S
C166 C165 1.387 . S
C166 C167 1.401 . S
C166 H187 0.930 . S
C167 C166 1.401 . S
C167 C168 1.376 . S
C167 C176 1.511 . S
C168 C167 1.376 . S
C168 C169 1.392 . S
C168 H189 0.931 . S
C169 C168 1.392 . S
C169 C170 1.361 . S
C169 C171 1.500 . S
C170 C165 1.390 . S
C170 C169 1.361 . S
C170 H188 0.931 . S
C171 C169 1.500 . S
C171 C172 1.371 . S
C171 C173 1.365 . S
C172 C171 1.371 . S
C172 C182 1.386 . S
C172 H190 0.931 . S
C173 C171 1.365 . S
C173 C174 1.409 . S
C173 H191 0.929 . S
C174 C173 1.409 . S
C174 C175 1.380 . S
C174 H192 0.930 . S
C175 C174 1.380 . S
C175 C182 1.357 . S
C176 C167 1.511 . S
C176 C177 1.341 . S
C176 C178 1.371 . S
C177 C176 1.341 . S
C177 C181 1.394 . S
C177 H193 0.930 . S
C178 C176 1.371 . S
C178 C179 1.392 . S
C178 H194 0.931 . S
C179 C178 1.392 . S
C179 C180 1.331 . S
C179 H197 0.932 . S
C180 C179 1.331 . S
C180 C181 1.336 . S
C181 C177 1.394 . S
C181 C180 1.336 . S
C181 H196 0.929 . S
C182 C172 1.386 . S
C182 C175 1.357 . S
C182 H195 0.928 . S
H183 C159 0.931 . S
H184 C161 0.930 . S
H185 C163 0.929 . S
H186 C164 0.931 . S
H187 C166 0.930 . S
H188 C170 0.931 . S
H189 C168 0.931 . S
H190 C172 0.931 . S
H191 C173 0.929 . S
H192 C174 0.930 . S
H193 C177 0.930 . S
H194 C178 0.931 . S
H195 C182 0.928 . S
H196 C181 0.929 . S
H197 C179 0.932 . S
C198 C199 1.386 . S
C198 C200 1.397 . S
C198 H222 0.931 . S
C199 C198 1.386 . S
C199 C203 1.397 1_455 S
C200 C198 1.397 . S
C200 C201 1.384 . S
C200 H223 0.930 . S
C201 C200 1.384 . S
C201 C202 1.365 1_455 S
C201 C204 1.481 . S
C202 C201 1.365 1_655 S
C202 C203 1.390 . S
C202 H224 0.941 . S
C203 C199 1.397 1_655 S
C203 C202 1.390 . S
C203 H225 0.931 . S
C204 C201 1.481 . S
C204 C205 1.387 . S
C204 C209 1.390 . S
C205 C204 1.387 . S
C205 C206 1.401 . S
C205 H226 0.930 . S
C206 C205 1.401 . S
C206 C207 1.376 . S
C206 C215 1.511 . S
C207 C206 1.376 . S
C207 C208 1.392 . S
C207 H228 0.931 . S
C208 C207 1.392 . S
C208 C209 1.361 . S
C208 C210 1.500 1_455 S
C209 C204 1.390 . S
C209 C208 1.361 . S
C209 H227 0.931 1_455 S
C210 C208 1.500 1_655 S
C210 C211 1.371 . S
C210 C212 1.365 . S
C211 C210 1.371 . S
C211 C221 1.386 . S
C211 H229 0.931 1_655 S
C212 C210 1.365 . S
C212 C213 1.409 . S
C212 H230 0.929 . S
C213 C212 1.409 . S
C213 C214 1.380 . S
C213 H231 0.930 . S
C214 C213 1.380 . S
C214 C221 1.357 . S
C215 C206 1.511 . S
C215 C216 1.341 . S
C215 C217 1.371 . S
C216 C215 1.341 . S
C216 C220 1.394 . S
C216 H232 0.930 . S
C217 C215 1.371 . S
C217 C218 1.392 . S
C217 H233 0.931 . S
C218 C217 1.392 . S
C218 C219 1.331 . S
C218 H236 0.932 . S
C219 C218 1.331 . S
C219 C220 1.336 . S
C220 C216 1.394 . S
C220 C219 1.336 . S
C220 H235 0.929 . S
C221 C211 1.386 . S
C221 C214 1.357 . S
C221 H234 0.928 . S
H222 C198 0.931 . S
H223 C200 0.930 . S
H224 C202 0.941 . S
H225 C203 0.931 . S
H226 C205 0.930 . S
H227 C209 0.931 1_655 S
H228 C207 0.931 . S
H229 C211 0.931 1_455 S
H230 C212 0.929 . S
H231 C213 0.930 . S
H232 C216 0.930 . S
H233 C217 0.931 . S
H234 C221 0.928 . S
H235 C220 0.929 . S
H236 C218 0.932 . S
C237 C238 1.384 . S
C237 C239 1.397 . S
C237 H261 0.931 . S
C238 C237 1.384 . S
C238 C242 1.399 1_655 S
C239 C237 1.397 . S
C239 C240 1.384 . S
C239 H262 0.930 . S
C240 C239 1.384 . S
C240 C241 1.377 1_655 S
C240 C243 1.481 . S
C241 C240 1.377 1_455 S
C241 C242 1.389 . S
C241 H263 0.929 . S
C242 C238 1.399 1_455 S
C242 C241 1.389 . S
C242 H264 0.931 . S
C243 C240 1.481 . S
C243 C244 1.387 . S
C243 C248 1.390 1_655 S
C244 C243 1.387 . S
C244 C245 1.401 . S
C244 H265 0.930 . S
C245 C244 1.401 . S
C245 C246 1.376 . S
C245 C254 1.511 . S
C246 C245 1.376 . S
C246 C247 1.392 1_655 S
C246 H267 0.931 . S
C247 C246 1.392 1_455 S
C247 C248 1.361 . S
C247 C249 1.500 . S
C248 C243 1.390 1_455 S
C248 C247 1.361 . S
C248 H266 0.931 . S
C249 C247 1.500 . S
C249 C250 1.371 . S
C249 C251 1.365 . S
C250 C249 1.371 . S
C250 C260 1.386 . S
C250 H268 0.931 . S
C251 C249 1.365 . S
C251 C252 1.409 . S
C251 H269 0.929 . S
C252 C251 1.409 . S
C252 C253 1.380 . S
C252 H270 0.930 . S
C253 C252 1.380 . S
C253 C260 1.357 . S
C254 C245 1.511 . S
C254 C255 1.341 . S
C254 C256 1.371 . S
C255 C254 1.341 . S
C255 C259 1.394 . S
C255 H271 0.930 . S
C256 C254 1.371 . S
C256 C257 1.392 . S
C256 H272 0.931 . S
C257 C256 1.392 . S
C257 C258 1.331 . S
C257 H275 0.932 . S
C258 C257 1.331 . S
C258 C259 1.336 . S
C259 C255 1.394 . S
C259 C258 1.336 . S
C259 H274 0.929 . S
C260 C250 1.386 . S
C260 C253 1.357 . S
C260 H273 0.928 . S
H261 C237 0.931 . S
H262 C239 0.930 . S
H263 C241 0.929 . S
H264 C242 0.931 . S
H265 C244 0.930 . S
H266 C248 0.931 . S
H267 C246 0.931 . S
H268 C250 0.931 . S
H269 C251 0.929 . S
H270 C252 0.930 . S
H271 C255 0.930 . S
H272 C256 0.931 . S
H273 C260 0.928 . S
H274 C259 0.929 . S
H275 C257 0.932 . S
C276 C277 1.386 . S
C276 C278 1.397 . S
C276 H300 0.931 . S
C277 C276 1.386 . S
C277 C281 1.397 1_565 S
C278 C276 1.397 . S
C278 C279 1.384 . S
C278 H301 0.930 . S
C279 C278 1.384 . S
C279 C280 1.377 1_565 S
C279 C282 1.481 . S
C280 C279 1.377 1_545 S
C280 C281 1.389 . S
C280 H302 0.929 . S
C281 C277 1.397 1_545 S
C281 C280 1.389 . S
C281 H303 0.931 . S
C282 C279 1.481 . S
C282 C283 1.387 . S
C282 C287 1.390 1_565 S
C283 C282 1.387 . S
C283 C284 1.401 . S
C283 H304 0.930 . S
C284 C283 1.401 . S
C284 C285 1.376 1_565 S
C284 C293 1.511 . S
C285 C284 1.376 1_545 S
C285 C286 1.392 . S
C285 H306 0.931 . S
C286 C285 1.392 . S
C286 C287 1.361 . S
C286 C288 1.500 . S
C287 C282 1.390 1_545 S
C287 C286 1.361 . S
C287 H305 0.931 . S
C288 C286 1.500 . S
C288 C289 1.371 . S
C288 C290 1.365 . S
C289 C288 1.371 . S
C289 C299 1.386 . S
C289 H307 0.931 . S
C290 C288 1.365 . S
C290 C291 1.409 . S
C290 H308 0.929 . S
C291 C290 1.409 . S
C291 C292 1.380 . S
C291 H309 0.930 . S
C292 C291 1.380 . S
C292 C299 1.357 . S
C293 C284 1.511 . S
C293 C294 1.341 . S
C293 C295 1.371 . S
C294 C293 1.341 . S
C294 C298 1.394 . S
C294 H310 0.930 . S
C295 C293 1.371 . S
C295 C296 1.392 . S
C295 H311 0.931 . S
C296 C295 1.392 . S
C296 C297 1.331 . S
C296 H314 0.932 . S
C297 C296 1.331 . S
C297 C298 1.336 . S
C298 C294 1.394 . S
C298 C297 1.336 . S
C298 H313 0.929 . S
C299 C289 1.386 . S
C299 C292 1.357 . S
C299 H312 0.928 . S
H300 C276 0.931 . S
H301 C278 0.930 . S
H302 C280 0.929 . S
H303 C281 0.931 . S
H304 C283 0.930 . S
H305 C287 0.931 . S
H306 C285 0.931 . S
H307 C289 0.931 . S
H308 C290 0.929 . S
H309 C291 0.930 . S
H310 C294 0.930 . S
H311 C295 0.931 . S
H312 C299 0.928 . S
H313 C298 0.929 . S
H314 C296 0.932 . S
C315 C316 1.386 . S
C315 C317 1.397 1_556 S
C315 H339 0.931 . S
C316 C315 1.386 . S
C316 C320 1.397 . S
C317 C315 1.397 1_554 S
C317 C318 1.384 . S
C317 H340 0.930 . S
C318 C317 1.384 . S
C318 C319 1.377 . S
C318 C321 1.481 . S
C319 C318 1.377 . S
C319 C320 1.389 1_554 S
C319 H341 0.929 . S
C320 C316 1.397 . S
C320 C319 1.389 1_556 S
C320 H342 0.931 . S
C321 C318 1.481 . S
C321 C322 1.387 . S
C321 C326 1.390 . S
C322 C321 1.387 . S
C322 C323 1.401 . S
C322 H343 0.930 . S
C323 C322 1.401 . S
C323 C324 1.376 . S
C323 C332 1.511 . S
C324 C323 1.376 . S
C324 C325 1.392 . S
C324 H345 0.931 . S
C325 C324 1.392 . S
C325 C326 1.361 . S
C325 C327 1.500 . S
C326 C321 1.390 . S
C326 C325 1.361 . S
C326 H344 0.931 . S
C327 C325 1.500 . S
C327 C328 1.371 . S
C327 C329 1.365 . S
C328 C327 1.371 . S
C328 C338 1.386 . S
C328 H346 0.931 . S
C329 C327 1.365 . S
C329 C330 1.409 . S
C329 H347 0.929 . S
C330 C329 1.409 . S
C330 C331 1.380 . S
C330 H348 0.930 . S
C331 C330 1.380 . S
C331 C338 1.357 . S
C332 C323 1.511 . S
C332 C333 1.341 . S
C332 C334 1.371 . S
C333 C332 1.341 . S
C333 C337 1.394 . S
C333 H349 0.930 . S
C334 C332 1.371 . S
C334 C335 1.392 . S
C334 H350 0.931 . S
C335 C334 1.392 . S
C335 C336 1.331 . S
C335 H353 0.932 . S
C336 C335 1.331 . S
C336 C337 1.336 . S
C337 C333 1.394 . S
C337 C336 1.336 . S
C337 H352 0.929 . S
C338 C328 1.386 . S
C338 C331 1.357 . S
C338 H351 0.928 . S
H339 C315 0.931 . S
H340 C317 0.930 . S
H341 C319 0.929 . S
H342 C320 0.931 . S
H343 C322 0.930 . S
H344 C326 0.931 . S
H345 C324 0.931 . S
H346 C328 0.931 . S
H347 C329 0.929 . S
H348 C330 0.930 . S
H349 C333 0.930 . S
H350 C334 0.931 . S
H351 C338 0.928 . S
H352 C337 0.929 . S
H353 C335 0.932 . S
C354 C355 1.387 . S
C354 H358 0.950 . S
C354 C363 1.390 . S
C355 C354 1.387 . S
C355 C357 1.387 . S
H356 C363 0.950 . S
C357 C355 1.387 . S
C357 C359 1.390 . S
C357 H361 0.950 . S
H358 C354 0.950 . S
C359 C357 1.390 . S
C359 C360 1.387 . S
C359 H362 0.950 . S
C360 C359 1.387 . S
C360 C363 1.387 . S
H361 C357 0.950 . S
H362 C359 0.950 . S
C363 C354 1.390 . S
C363 H356 0.950 . S
C363 C360 1.387 . S
C364 C365 1.387 . S
C364 H368 0.950 . S
C364 C373 1.390 . S
C365 C364 1.387 . S
C365 C367 1.387 . S
H366 C373 0.950 . S
C367 C365 1.387 . S
C367 C369 1.390 . S
C367 H371 0.950 . S
H368 C364 0.950 . S
C369 C367 1.390 . S
C369 C370 1.387 . S
C369 H372 0.950 . S
C370 C369 1.387 . S
C370 C373 1.387 . S
H371 C367 0.950 . S
H372 C369 0.950 . S
C373 C364 1.390 . S
C373 H366 0.950 . S
C373 C370 1.387 . S
C374 C375 1.387 . S
C374 H378 0.950 . S
C374 C383 1.390 . S
C375 C374 1.387 . S
C375 C377 1.387 . S
H376 C383 0.950 . S
C377 C375 1.387 . S
C377 C379 1.390 . S
C377 H381 0.950 . S
H378 C374 0.950 . S
C379 C377 1.390 . S
C379 C380 1.387 . S
C379 H382 0.950 . S
C380 C379 1.387 . S
C380 C383 1.387 . S
H381 C377 0.950 . S
H382 C379 0.950 . S
C383 C374 1.390 . S
C383 H376 0.950 . S
C383 C380 1.387 . S
C384 C385 1.387 . S
C384 H388 0.950 . S
C384 C393 1.390 . S
C385 C384 1.387 . S
C385 C387 1.387 . S
H386 C393 0.950 . S
C387 C385 1.387 . S
C387 C389 1.390 . S
C387 H391 0.950 . S
H388 C384 0.950 . S
C389 C387 1.390 . S
C389 C390 1.387 . S
C389 H392 0.950 . S
C390 C389 1.387 . S
C390 C393 1.387 . S
H391 C387 0.950 . S
H392 C389 0.950 . S
C393 C384 1.390 . S
C393 H386 0.950 . S
C393 C390 1.387 . S
C394 C395 1.387 . S
C394 H398 0.950 . S
C394 C403 1.390 . S
C395 C394 1.387 . S
C395 C397 1.387 . S
H396 C403 0.950 . S
C397 C395 1.387 . S
C397 C399 1.390 . S
C397 H401 0.950 . S
H398 C394 0.950 . S
C399 C397 1.390 . S
C399 C400 1.387 . S
C399 H402 0.950 . S
C400 C399 1.387 . S
C400 C403 1.387 . S
H401 C397 0.950 . S
H402 C399 0.950 . S
C403 C394 1.390 . S
C403 H396 0.950 . S
C403 C400 1.387 . S
C404 C405 1.387 . S
C404 H408 0.950 . S
C404 C413 1.390 . S
C405 C404 1.387 . S
C405 C407 1.387 . S
H406 C413 0.950 . S
C407 C405 1.387 . S
C407 C409 1.390 . S
C407 H411 0.950 . S
H408 C404 0.950 . S
C409 C407 1.390 . S
C409 C410 1.387 . S
C409 H412 0.950 . S
C410 C409 1.387 . S
C410 C413 1.387 . S
H411 C407 0.950 . S
H412 C409 0.950 . S
C413 C404 1.390 . S
C413 H406 0.950 . S
C413 C410 1.387 . S
C414 C415 1.387 . S
C414 H418 0.950 . S
C414 C423 1.390 . S
C415 C414 1.387 . S
C415 C417 1.387 . S
H416 C423 0.950 . S
C417 C415 1.387 . S
C417 C419 1.390 . S
C417 H421 0.950 . S
H418 C414 0.950 . S
C419 C417 1.390 . S
C419 C420 1.387 . S
C419 H422 0.950 . S
C420 C419 1.387 . S
C420 C423 1.387 . S
H421 C417 0.950 . S
H422 C419 0.950 . S
C423 C414 1.390 . S
C423 H416 0.950 . S
C423 C420 1.387 . S
C424 C425 1.387 . S
C424 H428 0.950 . S
C424 C433 1.390 . S
C425 C424 1.387 . S
C425 C427 1.387 . S
H426 C433 0.950 . S
C427 C425 1.387 . S
C427 C429 1.390 . S
C427 H431 0.950 . S
H428 C424 0.950 . S
C429 C427 1.390 . S
C429 C430 1.387 . S
C429 H432 0.950 . S
C430 C429 1.387 . S
C430 C433 1.387 . S
H431 C427 0.950 . S
H432 C429 0.950 . S
C433 C424 1.390 . S
C433 H426 0.950 . S
C433 C430 1.387 . S
C434 C435 1.387 . S
C434 H438 0.950 . S
C434 C443 1.390 . S
C435 C434 1.387 . S
C435 C437 1.387 . S
H436 C443 0.950 . S
C437 C435 1.387 . S
C437 C439 1.390 . S
C437 H441 0.950 . S
H438 C434 0.950 . S
C439 C437 1.390 . S
C439 C440 1.387 . S
C439 H442 0.950 . S
C440 C439 1.387 . S
C440 C443 1.387 . S
H441 C437 0.950 . S
H442 C439 0.950 . S
C443 C434 1.390 . S
C443 H436 0.950 . S
C443 C440 1.387 . S
C444 C445 1.387 . S
C444 H448 0.950 . S
C444 C453 1.390 . S
C445 C444 1.387 . S
C445 C447 1.387 . S
H446 C453 0.950 . S
C447 C445 1.387 . S
C447 C449 1.390 . S
C447 H451 0.950 . S
H448 C444 0.950 . S
C449 C447 1.390 . S
C449 C450 1.387 . S
C449 H452 0.950 . S
C450 C449 1.387 . S
C450 C453 1.387 . S
H451 C447 0.950 . S
H452 C449 0.950 . S
C453 C444 1.390 . S
C453 H446 0.950 . S
C453 C450 1.387 . S
C454 C455 1.387 . S
C454 H458 0.950 . S
C454 C463 1.390 . S
C455 C454 1.387 . S
C455 C457 1.387 . S
H456 C463 0.950 . S
C457 C455 1.387 . S
C457 C459 1.390 . S
C457 H461 0.950 . S
H458 C454 0.950 . S
C459 C457 1.390 . S
C459 C460 1.387 . S
C459 H462 0.950 . S
C460 C459 1.387 . S
C460 C463 1.387 . S
H461 C457 0.950 . S
H462 C459 0.950 . S
C463 C454 1.390 . S
C463 H456 0.950 . S
C463 C460 1.387 . S
C464 C465 1.387 . S
C464 H468 0.950 . S
C464 C473 1.390 . S
C465 C464 1.387 . S
C465 C467 1.387 . S
H466 C473 0.950 . S
C467 C465 1.387 . S
C467 C469 1.390 . S
C467 H471 0.950 . S
H468 C464 0.950 . S
C469 C467 1.390 . S
C469 C470 1.387 . S
C469 H472 0.950 . S
C470 C469 1.387 . S
C470 C473 1.387 . S
H471 C467 0.950 . S
H472 C469 0.950 . S
C473 C464 1.390 . S
C473 H466 0.950 . S
C473 C470 1.387 . S
C474 C475 1.387 . S
C474 H478 0.950 . S
C474 C483 1.390 . S
C475 C474 1.387 . S
C475 C477 1.387 1_455 S
H476 C483 0.950 . S
C477 C475 1.387 1_655 S
C477 C479 1.390 . S
C477 H481 0.950 . S
H478 C474 0.950 . S
C479 C477 1.390 . S
C479 C480 1.387 1_655 S
C479 H482 0.950 . S
C480 C479 1.387 1_455 S
C480 C483 1.387 . S
H481 C477 0.950 . S
H482 C479 0.950 . S
C483 C474 1.390 . S
C483 H476 0.950 . S
C483 C480 1.387 . S
C484 C485 1.387 1_565 S
C484 H488 0.950 . S
C484 C493 1.390 . S
C485 C484 1.387 1_545 S
C485 C487 1.387 . S
H486 C493 0.950 . S
C487 C485 1.387 . S
C487 C489 1.390 . S
C487 H491 0.950 . S
H488 C484 0.950 . S
C489 C487 1.390 . S
C489 C490 1.387 . S
C489 H492 0.950 . S
C490 C489 1.387 . S
C490 C493 1.387 1_545 S
H491 C487 0.950 . S
H492 C489 0.950 . S
C493 C484 1.390 . S
C493 H486 0.950 . S
C493 C490 1.387 1_565 S
C494 C495 1.387 . S
C494 H498 0.950 . S
C494 C503 1.390 . S
C495 C494 1.387 . S
C495 C497 1.387 . S
H496 C503 0.950 . S
C497 C495 1.387 . S
C497 C499 1.390 . S
C497 H501 0.950 . S
H498 C494 0.950 . S
C499 C497 1.390 . S
C499 C500 1.387 . S
C499 H502 0.950 . S
C500 C499 1.387 . S
C500 C503 1.387 . S
H501 C497 0.950 . S
H502 C499 0.950 . S
C503 C494 1.390 . S
C503 H496 0.950 . S
C503 C500 1.387 . S
C504 C505 1.387 . S
C504 H508 0.950 . S
C504 C513 1.390 . S
C505 C504 1.387 . S
C505 C507 1.387 1_545 S
H506 C513 0.950 . S
C507 C505 1.387 1_565 S
C507 C509 1.390 . S
C507 H511 0.950 . S
H508 C504 0.950 . S
C509 C507 1.390 . S
C509 C510 1.387 . S
C509 H512 0.950 . S
C510 C509 1.387 . S
C510 C513 1.387 1_565 S
H511 C507 0.950 . S
H512 C509 0.950 . S
C513 C504 1.390 . S
C513 H506 0.950 . S
C513 C510 1.387 1_545 S
C514 C515 1.387 . S
C514 H518 0.950 . S
C514 C523 1.390 . S
C515 C514 1.387 . S
C515 C517 1.387 . S
H516 C523 0.950 . S
C517 C515 1.387 . S
C517 C519 1.390 . S
C517 H521 0.950 . S
H518 C514 0.950 . S
C519 C517 1.390 . S
C519 C520 1.387 . S
C519 H522 0.950 . S
C520 C519 1.387 . S
C520 C523 1.387 . S
H521 C517 0.950 . S
H522 C519 0.950 . S
C523 C514 1.390 . S
C523 H516 0.950 . S
C523 C520 1.387 . S
C524 C525 1.387 . S
C524 H528 0.950 . S
C524 C533 1.390 . S
C525 C524 1.387 . S
C525 C527 1.387 1_455 S
H526 C533 0.950 . S
C527 C525 1.387 1_655 S
C527 C529 1.390 . S
C527 H531 0.950 . S
H528 C524 0.950 . S
C529 C527 1.390 . S
C529 C530 1.387 1_655 S
C529 H532 0.950 . S
C530 C529 1.387 1_455 S
C530 C533 1.387 . S
H531 C527 0.950 . S
H532 C529 0.950 . S
C533 C524 1.390 . S
C533 H526 0.950 . S
C533 C530 1.387 . S
C355 C6 0.914 . S
C360 C331 0.968 . S
C365 C59 2.021 . S
C370 C258 1.976 . S
C375 C86 1.363 . S
C380 C297 1.407 . S
C385 C15 0.641 . S
C390 C336 0.556 . S
C400 C253 2.051 . S
C395 C50 2.152 . S
C410 C292 1.381 . S
C405 C95 1.353 . S
C415 C46 1.288 . S
C420 C180 1.314 . S
C425 C99 3.203 . S
C430 C214 3.149 . S
C435 C10 2.180 . S
C440 C136 2.102 . S
C450 C175 1.386 . S
C445 C55 1.343 . S
C460 C219 3.076 . S
C455 C90 3.131 . S
C465 C19 2.016 . S
C470 C141 1.988 . S
C480 C199 1.797 1_554 S
C475 C18 1.717 . S
C485 C49 1.318 . S
C490 C121 1.367 . S
C495 C98 1.449 . S
C500 C160 1.506 . S
C510 C277 1.486 . S
C505 C58 1.439 . S
C520 C316 1.076 . S
C515 C89 1.077 . S
C525 C9 1.310 . S
C530 C238 1.352 1_455 S
