# Generated by pormake.
# Topology pyr, (3,6)-cn, num edge types: 1
# Building blocks:
#     Node 0, Type 0, BuildingBlock: ESEHIV_clean_linker_0, # of connection points: 3
#     Node 1, Type 0, BuildingBlock: ESEHIV_clean_linker_0, # of connection points: 3
#     Node 2, Type 0, BuildingBlock: ESEHIV_clean_linker_0, # of connection points: 3
#     Node 3, Type 0, BuildingBlock: ESEHIV_clean_linker_0, # of connection points: 3
#     Node 4, Type 0, BuildingBlock: ESEHIV_clean_linker_0, # of connection points: 3
#     Node 5, Type 0, BuildingBlock: ESEHIV_clean_linker_0, # of connection points: 3
#     Node 6, Type 0, BuildingBlock: ESEHIV_clean_linker_0, # of connection points: 3
#     Node 7, Type 0, BuildingBlock: ESEHIV_clean_linker_0, # of connection points: 3
#     Node 8, Type 1, BuildingBlock: BETFEN_clean_sbu_0, # of connection points: 6
#     Node 9, Type 1, BuildingBlock: BETFEN_clean_sbu_0, # of connection points: 6
#     Node 10, Type 1, BuildingBlock: BETFEN_clean_sbu_0, # of connection points: 6
#     Node 11, Type 1, BuildingBlock: BETFEN_clean_sbu_0, # of connection points: 6
#     Edge 12, Type (0, 1), BuildingBlock: XUDNAN_clean_linker_2, # of connection points: 2
#     Edge 13, Type (0, 1), BuildingBlock: XUDNAN_clean_linker_2, # of connection points: 2
#     Edge 14, Type (0, 1), BuildingBlock: XUDNAN_clean_linker_2, # of connection points: 2
#     Edge 15, Type (0, 1), BuildingBlock: XUDNAN_clean_linker_2, # of connection points: 2
#     Edge 16, Type (0, 1), BuildingBlock: XUDNAN_clean_linker_2, # of connection points: 2
#     Edge 17, Type (0, 1), BuildingBlock: XUDNAN_clean_linker_2, # of connection points: 2
#     Edge 18, Type (0, 1), BuildingBlock: XUDNAN_clean_linker_2, # of connection points: 2
#     Edge 19, Type (0, 1), BuildingBlock: XUDNAN_clean_linker_2, # of connection points: 2
#     Edge 20, Type (0, 1), BuildingBlock: XUDNAN_clean_linker_2, # of connection points: 2
#     Edge 21, Type (0, 1), BuildingBlock: XUDNAN_clean_linker_2, # of connection points: 2
#     Edge 22, Type (0, 1), BuildingBlock: XUDNAN_clean_linker_2, # of connection points: 2
#     Edge 23, Type (0, 1), BuildingBlock: XUDNAN_clean_linker_2, # of connection points: 2
#     Edge 24, Type (0, 1), BuildingBlock: XUDNAN_clean_linker_2, # of connection points: 2
#     Edge 25, Type (0, 1), BuildingBlock: XUDNAN_clean_linker_2, # of connection points: 2
#     Edge 26, Type (0, 1), BuildingBlock: XUDNAN_clean_linker_2, # of connection points: 2
#     Edge 27, Type (0, 1), BuildingBlock: XUDNAN_clean_linker_2, # of connection points: 2
#     Edge 28, Type (0, 1), BuildingBlock: XUDNAN_clean_linker_2, # of connection points: 2
#     Edge 29, Type (0, 1), BuildingBlock: XUDNAN_clean_linker_2, # of connection points: 2
#     Edge 30, Type (0, 1), BuildingBlock: XUDNAN_clean_linker_2, # of connection points: 2
#     Edge 31, Type (0, 1), BuildingBlock: XUDNAN_clean_linker_2, # of connection points: 2
#     Edge 32, Type (0, 1), BuildingBlock: XUDNAN_clean_linker_2, # of connection points: 2
#     Edge 33, Type (0, 1), BuildingBlock: XUDNAN_clean_linker_2, # of connection points: 2
#     Edge 34, Type (0, 1), BuildingBlock: XUDNAN_clean_linker_2, # of connection points: 2
#     Edge 35, Type (0, 1), BuildingBlock: XUDNAN_clean_linker_2, # of connection points: 2
# Relax obj value: 0.171
# Max RMSD: 0.261
# Mean RMSD: 0.125
data_MOF--net-pyr--node1-BETFEN_clean_sbu_0--node2-ESEHIV_clean_linker_0--edge1-XUDNAN_clean_linker_2
_symmetry_space_group_name_H-M    P1
_symmetry_Int_Tables_number       1
_symmetry_cell_setting            triclinic
loop_
_symmetry_equiv_pos_as_xyz
'x, y, z'
_cell_length_a     34.689242
_cell_length_b     38.335073
_cell_length_c     34.577302
_cell_angle_alpha  91.54114
_cell_angle_beta   98.494087
_cell_angle_gamma 111.08163
loop_
_atom_site_label
_atom_site_type_symbol
_atom_site_fract_x
_atom_site_fract_y
_atom_site_fract_z
_atom_type_partial_charge
H0 H 0.40146 0.42755 0.355 0.0
H1 H 0.45804 0.34543 0.3766 0.0
H2 H 0.4682 0.40158 0.27048 0.0
C3 C 0.42141 0.41326 0.34702 0.0
C4 C 0.43486 0.4182 0.31057 0.0
C5 C 0.42933 0.38681 0.37103 0.0
C6 C 0.45388 0.36744 0.35944 0.0
C7 C 0.46845 0.37266 0.32337 0.0
C8 C 0.45885 0.39833 0.29914 0.0
H9 H 0.29571 0.90699 0.73865 0.0
H10 H 0.36443 0.83364 0.73528 0.0
H11 H 0.33154 0.88199 0.63069 0.0
C12 C 0.30961 0.89143 0.72238 0.0
C13 C 0.30988 0.89587 0.68223 0.0
C14 C 0.32944 0.86925 0.74203 0.0
C15 C 0.34884 0.85072 0.72051 0.0
C16 C 0.35058 0.85581 0.68062 0.0
C17 C 0.33085 0.87834 0.66159 0.0
H18 H 0.668 0.31347 0.91701 0.0
H19 H 0.68941 0.40277 0.84132 0.0
H20 H 0.58451 0.29859 0.80712 0.0
C21 C 0.65898 0.32382 0.88964 0.0
C22 C 0.62358 0.30083 0.863 0.0
C23 C 0.68296 0.36029 0.88198 0.0
C24 C 0.67102 0.37448 0.84716 0.0
C25 C 0.63524 0.35265 0.82007 0.0
C26 C 0.61188 0.31559 0.82797 0.0
H27 H 0.86581 0.71028 0.40163 0.0
H28 H 0.94747 0.71366 0.31775 0.0
H29 H 0.85747 0.60816 0.34147 0.0
C30 C 0.87702 0.69638 0.38067 0.0
C31 C 0.85865 0.65713 0.37445 0.0
C32 C 0.90962 0.7176 0.36127 0.0
C33 C 0.92188 0.69832 0.33257 0.0
C34 C 0.903 0.65875 0.32455 0.0
C35 C 0.87135 0.6385 0.34602 0.0
H36 H 0.58267 0.71513 0.72627 0.0
H37 H 0.69103 0.68556 0.75582 0.0
H38 H 0.59609 0.65749 0.82849 0.0
C39 C 0.59983 0.70139 0.7444 0.0
C40 C 0.58617 0.68836 0.77942 0.0
C41 C 0.63771 0.70076 0.73494 0.0
C42 C 0.66019 0.68375 0.76022 0.0
C43 C 0.64525 0.66771 0.7938 0.0
C44 C 0.60736 0.66897 0.80223 0.0
H45 H 0.71615 0.22702 0.36603 0.0
H46 H 0.77869 0.14943 0.35584 0.0
H47 H 0.76127 0.18362 0.46928 0.0
C48 C 0.73187 0.20944 0.37952 0.0
C49 C 0.7367 0.20765 0.42037 0.0
C50 C 0.74686 0.18857 0.35589 0.0
C51 C 0.76805 0.16661 0.37378 0.0
C52 C 0.77342 0.1648 0.41461 0.0
C53 C 0.75764 0.18533 0.43778 0.0
H54 H 0.40163 0.73766 0.18449 0.0
H55 H 0.38082 0.65105 0.26309 0.0
H56 H 0.48508 0.75649 0.29485 0.0
C57 C 0.41074 0.7283 0.21247 0.0
C58 C 0.44538 0.75243 0.23906 0.0
C59 C 0.38758 0.69197 0.22095 0.0
C60 C 0.39936 0.67905 0.25665 0.0
C61 C 0.43514 0.70165 0.28351 0.0
C62 C 0.45775 0.73864 0.27452 0.0
H63 H 0.12911 0.34174 0.76934 0.0
H64 H 0.21827 0.35021 0.69171 0.0
H65 H 0.22488 0.44803 0.7604 0.0
C66 C 0.15658 0.35787 0.7573 0.0
C67 C 0.17547 0.39681 0.76852 0.0
C68 C 0.17154 0.34031 0.72927 0.0
C69 C 0.20636 0.36297 0.71298 0.0
C70 C 0.22583 0.40199 0.72331 0.0
C71 C 0.21008 0.4183 0.75141 0.0
Pr72 Pr 1.01856 1.00371 0.5695 0.0
Pr73 Pr 0.06593 0.05442 0.51813 0.0
C74 C 0.97968 0.94489 0.60899 0.0
C75 C 0.93643 0.91877 0.61014 0.0
C76 C 0.91013 0.92972 0.63083 0.0
C77 C 0.86958 0.90496 0.63227 0.0
C78 C 0.85422 0.86857 0.61314 0.0
C79 C 0.88057 0.85744 0.59265 0.0
C80 C 0.92128 0.8823 0.59116 0.0
C81 C 0.04987 0.07889 0.60197 0.0
C82 C 0.11974 1.01916 0.57605 0.0
C83 C 0.10129 0.11262 0.47653 0.0
C84 C 0.13864 0.14679 0.47852 0.0
C85 C 0.14875 0.16247 0.44361 0.0
C86 C 0.18376 0.19519 0.44438 0.0
C87 C 0.2093 0.21304 0.48021 0.0
C88 C 0.19918 0.19705 0.51528 0.0
C89 C 0.16403 0.16411 0.51444 0.0
C90 C 1.03342 0.97961 0.48486 0.0
C91 C 0.96456 0.04011 0.5133 0.0
O92 O 0.98987 0.97985 0.62218 0.0
O93 O 0.99547 0.94152 0.57771 0.0
O94 O 0.07083 0.06387 0.58505 0.0
O95 O 1.01271 0.05473 0.60334 0.0
O96 O 0.12364 0.0497 0.55806 0.0
O97 O 0.0825 0.99514 0.57963 0.0
O98 O 0.10643 0.08065 0.47297 0.0
O99 O 0.07529 0.11272 0.50021 0.0
O100 O 1.01318 0.9949 0.50242 0.0
O101 O 0.07037 1.00356 0.48271 0.0
O102 O 0.96059 1.01054 0.53291 0.0
O103 O 1.00161 0.06273 0.50735 0.0
H104 H 0.92087 0.95738 0.64622 0.0
H105 H 0.85051 0.91416 0.64915 0.0
H106 H 0.86965 0.82961 0.57761 0.0
H107 H 0.94095 0.87294 0.57523 0.0
H108 H 0.12958 0.1493 0.41564 0.0
H109 H 0.19119 0.20611 0.41673 0.0
H110 H 0.21823 0.21012 0.54329 0.0
H111 H 0.15666 0.15218 0.54171 0.0
Pr112 Pr 0.49782 0.0334 0.06984 0.0
Pr113 Pr 0.56057 1.02089 1.03183 0.0
C114 C 0.4592 0.05164 0.12451 0.0
C115 C 0.46987 0.08709 0.14866 0.0
C116 C 0.48645 0.12164 0.13271 0.0
C117 C 0.49802 0.15526 0.15597 0.0
C118 C 0.49387 0.155 0.19575 0.0
C119 C 0.47853 0.12044 0.21202 0.0
C120 C 0.46649 0.08671 0.18858 0.0
C121 C 0.51343 0.07653 1.00536 0.0
C122 C 0.59873 0.08681 0.09973 0.0
C123 C 0.59896 1.00188 0.97748 0.0
C124 C 0.58733 0.96565 0.95452 0.0
C125 C 0.56791 0.93204 0.97115 0.0
C126 C 0.5544 0.89765 0.94889 0.0
C127 C 0.55944 0.89621 0.90942 0.0
C128 C 0.57807 0.92988 0.89251 0.0
C129 C 0.59199 0.96439 0.91497 0.0
C130 C 0.54574 0.97841 0.09664 0.0
C131 C 0.45939 0.96769 1.00184 0.0
O132 O 0.4854 0.03438 0.13227 0.0
O133 O 0.44708 0.05177 0.08686 0.0
O134 O 0.54142 0.07244 1.03066 0.0
O135 O 0.4763 0.05824 1.01306 0.0
O136 O 0.60724 0.07615 0.06666 0.0
O137 O 0.56122 0.07095 0.10905 0.0
O138 O 0.57285 1.01918 0.96939 0.0
O139 O 0.61156 1.00264 1.01519 0.0
O140 O 0.51735 0.98192 0.07127 0.0
O141 O 0.58271 0.99711 0.08886 0.0
O142 O 0.45057 0.97863 1.03459 0.0
O143 O 0.49709 0.98323 0.99284 0.0
H144 H 0.49053 0.12269 0.10223 0.0
H145 H 0.51022 0.18154 0.14286 0.0
H146 H 0.47483 0.11951 0.24258 0.0
H147 H 0.45455 0.06034 0.20158 0.0
H148 H 0.56282 0.93235 1.00131 0.0
H149 H 0.53969 0.87212 0.96245 0.0
H150 H 0.58247 0.92945 0.86216 0.0
H151 H 0.60612 0.99007 0.90144 0.0
Pr152 Pr 0.56529 0.57394 0.58093 0.0
Pr153 Pr 0.52961 0.49578 0.53007 0.0
C154 C 0.59345 0.64752 0.60459 0.0
C155 C 0.57411 0.6757 0.60913 0.0
C156 C 0.55654 0.67836 0.64261 0.0
C157 C 0.53562 0.70306 0.64549 0.0
C158 C 0.53137 0.72547 0.61483 0.0
C159 C 0.55005 0.72358 0.58179 0.0
C160 C 0.57142 0.69914 0.5791 0.0
C161 C 0.57688 0.51514 0.62073 0.0
C162 C 0.47032 0.51669 0.5879 0.0
C163 C 0.512 0.42304 0.50942 0.0
C164 C 0.53737 0.39954 0.51189 0.0
C165 C 0.58118 0.41624 0.51649 0.0
C166 C 0.60542 0.394 0.51782 0.0
C167 C 0.58618 0.3547 0.51426 0.0
C168 C 0.54234 0.33808 0.51058 0.0
C169 C 0.51814 0.36042 0.50973 0.0
C170 C 0.50069 0.54696 0.48914 0.0
C171 C 0.62572 0.55449 0.52226 0.0
O172 O 0.59166 0.63483 0.5686 0.0
O173 O 0.58684 0.62129 0.62905 0.0
O174 O 0.58072 0.52003 0.58508 0.0
O175 O 0.57013 0.54272 0.63739 0.0
O176 O 0.48016 0.48978 0.5722 0.0
O177 O 0.49425 0.55255 0.588 0.0
O178 O 0.50583 0.43483 0.54302 0.0
O179 O 0.52099 0.44901 0.48477 0.0
O180 O 0.5233 0.55249 0.52235 0.0
O181 O 0.49058 0.51226 0.47582 0.0
O182 O 0.62199 0.57784 0.54907 0.0
O183 O 0.59583 0.52143 0.51028 0.0
H184 H 0.55834 0.66095 0.66643 0.0
H185 H 0.52251 0.70438 0.67175 0.0
H186 H 0.54712 0.7401 0.55741 0.0
H187 H 0.58487 0.69789 0.55299 0.0
H188 H 0.59659 0.44649 0.51863 0.0
H189 H 0.63911 0.40752 0.52028 0.0
H190 H 0.52683 0.30783 0.50812 0.0
H191 H 0.48448 0.34715 0.50699 0.0
Pr192 Pr 1.0281 0.55587 1.02168 0.0
Pr193 Pr 0.04891 0.49955 0.07012 0.0
C194 C 0.99374 0.59936 0.98049 0.0
C195 C 0.9526 0.60291 0.96902 0.0
C196 C 0.94636 0.63504 0.9824 0.0
C197 C 0.90846 0.63979 0.96999 0.0
C198 C 0.87615 0.61261 0.94363 0.0
C199 C 0.8823 0.58031 0.93054 0.0
C200 C 0.92003 0.57541 0.94319 0.0
C201 C 0.11308 0.57897 0.05471 0.0
C202 C 1.0083 0.55191 0.11381 0.0
C203 C 0.08687 0.45846 0.11103 0.0
C204 C 0.13023 0.46042 0.12164 0.0
C205 C 0.13815 0.43107 0.14007 0.0
C206 C 0.17934 0.43414 0.15358 0.0
C207 C 0.21333 0.46674 0.14901 0.0
C208 C 0.20523 0.49571 0.12946 0.0
C209 C 0.16397 0.49252 0.1158 0.0
C210 C 0.9637 0.47594 1.03862 0.0
C211 C 0.06755 0.50293 0.97751 0.0
O212 O 0.99869 0.5702 0.96486 0.0
O213 O 1.01169 0.60815 1.01727 0.0
O214 O 0.08288 0.56292 0.07198 0.0
O215 O 0.10017 0.58576 1.01966 0.0
O216 O 1.03351 0.53298 0.11967 0.0
O217 O 0.9966 0.55972 0.07787 0.0
O218 O 0.07876 0.48568 0.12708 0.0
O219 O 0.06979 0.44978 0.07407 0.0
O220 O 0.99315 0.49232 1.02037 0.0
O221 O 0.97772 0.46833 0.07295 0.0
O222 O 0.04266 0.52215 0.97183 0.0
O223 O 0.0794 0.4952 1.0134 0.0
H224 H 0.97107 0.65681 1.00201 0.0
H225 H 0.90492 0.66525 0.9802 0.0
H226 H 0.85791 0.55884 0.91042 0.0
H227 H 0.9238 0.5503 0.93228 0.0
H228 H 0.11246 0.4062 0.14497 0.0
H229 H 0.18448 0.41155 0.16899 0.0
H230 H 0.23074 0.52102 0.12522 0.0
H231 H 0.15833 0.51542 0.10147 0.0
H232 H 0.34673 0.3742 0.37027 0.0
H233 H 0.45579 0.36604 0.44262 0.0
H234 H 0.41047 0.3293 0.48769 0.0
H235 H 0.28493 0.37487 0.45351 0.0
H236 H 0.23677 0.34705 0.42173 0.0
H237 H 0.27868 0.38065 0.40167 0.0
H238 H 0.27724 0.32797 0.35233 0.0
H239 H 0.23613 0.29414 0.37252 0.0
H240 H 0.28424 0.28664 0.37059 0.0
H241 H 0.35273 0.28244 0.51546 0.0
H242 H 0.28775 0.23092 0.52406 0.0
H243 H 0.21665 0.27182 0.43505 0.0
C244 C 0.36159 0.36662 0.39675 0.0
C245 C 0.40496 0.37343 0.40321 0.0
C246 C 0.42271 0.36132 0.4373 0.0
C247 C 0.39728 0.34065 0.46312 0.0
C248 C 0.35429 0.33279 0.45474 0.0
C249 C 0.33669 0.34603 0.42269 0.0
C250 C 0.28931 0.32937 0.4167 0.0
C251 C 0.27137 0.3598 0.42385 0.0
C252 C 0.27069 0.30828 0.37563 0.0
C253 C 0.28298 0.30271 0.44866 0.0
C254 C 0.32072 0.30564 0.47093 0.0
C255 C 0.32292 0.28066 0.49902 0.0
C256 C 0.2858 0.25147 0.50375 0.0
C257 C 0.2471 0.24732 0.4802 0.0
C258 C 0.24575 0.27419 0.45342 0.0
H259 H 0.39804 0.86959 0.79258 0.0
H260 H 0.27341 0.8715 0.7905 0.0
H261 H 0.28887 0.88535 0.86248 0.0
H262 H 0.40549 0.82937 0.89286 0.0
H263 H 0.46068 0.85735 0.90311 0.0
H264 H 0.43543 0.8389 0.85345 0.0
H265 H 0.46324 0.9069 0.83136 0.0
H266 H 0.48761 0.92484 0.88088 0.0
H267 H 0.45061 0.94282 0.85518 0.0
H268 H 0.32358 0.91241 0.93177 0.0
H269 H 0.37379 0.94885 0.99037 0.0
H270 H 0.47308 0.92454 0.94673 0.0
C271 C 0.37302 0.87091 0.80717 0.0
C272 C 0.33453 0.86949 0.7856 0.0
C273 C 0.30344 0.87297 0.8062 0.0
C274 C 0.31173 0.88039 0.8472 0.0
C275 C 0.35081 0.88323 0.86731 0.0
C276 C 0.38058 0.87777 0.84791 0.0
C277 C 0.42187 0.88672 0.875 0.0
C278 C 0.43145 0.85097 0.88149 0.0
C279 C 0.4579 0.91711 0.85969 0.0
C280 C 0.41185 0.9011 0.91181 0.0
C281 C 0.37044 0.89801 0.9074 0.0
C282 C 0.35571 0.91395 0.93599 0.0
C283 C 0.38437 0.93459 0.96918 0.0
C284 C 0.42716 0.93942 0.97287 0.0
C285 C 0.44042 0.92107 0.94468 0.0
H286 H 0.62501 0.42015 0.8158 0.0
H287 H 0.61741 0.32335 0.74304 0.0
H288 H 0.60201 0.35392 0.68336 0.0
H289 H 0.53989 0.43765 0.75537 0.0
H290 H 0.56497 0.4879 0.76465 0.0
H291 H 0.57497 0.45796 0.80089 0.0
H292 H 0.65474 0.48954 0.80062 0.0
H293 H 0.64481 0.51939 0.76428 0.0
H294 H 0.67419 0.4906 0.75495 0.0
H295 H 0.59189 0.39839 0.63096 0.0
H296 H 0.58112 0.44884 0.59237 0.0
H297 H 0.59123 0.51388 0.70032 0.0
C298 C 0.61994 0.40531 0.78729 0.0
C299 C 0.62259 0.36938 0.78406 0.0
C300 C 0.61531 0.35076 0.74622 0.0
C301 C 0.6068 0.36804 0.71218 0.0
C302 C 0.60503 0.40379 0.71642 0.0
C303 C 0.6108 0.42187 0.75317 0.0
C304 C 0.6065 0.45973 0.75013 0.0
C305 C 0.56937 0.46086 0.76886 0.0
C306 C 0.6475 0.49168 0.76858 0.0
C307 C 0.59791 0.46048 0.70595 0.0
C308 C 0.59752 0.42819 0.68682 0.0
C309 C 0.59165 0.4235 0.64582 0.0
C310 C 0.58561 0.45229 0.62404 0.0
C311 C 0.58484 0.48509 0.64317 0.0
C312 C 0.59118 0.489 0.68469 0.0
H313 H 0.91925 0.67361 0.24833 0.0
H314 H 0.92325 0.5969 0.33746 0.0
H315 H 0.94957 0.5622 0.29357 0.0
H316 H 0.88405 0.60266 0.16498 0.0
H317 H 0.91488 0.63297 0.13291 0.0
H318 H 0.89691 0.65263 0.17132 0.0
H319 H 0.97324 0.69626 0.19865 0.0
H320 H 0.99142 0.67675 0.16031 0.0
H321 H 1.01269 0.67617 0.21101 0.0
H322 H 0.97791 0.5366 0.2413 0.0
H323 H 1.00261 0.51962 0.18302 0.0
H324 H 0.97774 0.60971 0.12403 0.0
C325 C 0.92575 0.64954 0.25859 0.0
C326 C 0.91887 0.63807 0.29667 0.0
C327 C 0.92762 0.60618 0.30856 0.0
C328 C 0.94285 0.58631 0.28379 0.0
C329 C 0.94904 0.59813 0.2466 0.0
C330 C 0.94048 0.62881 0.23377 0.0
C331 C 0.94919 0.63481 0.19187 0.0
C332 C 0.90885 0.63051 0.1636 0.0
C333 C 0.98369 0.67329 0.19038 0.0
C334 C 0.96426 0.60294 0.18338 0.0
C335 C 0.96415 0.58241 0.21566 0.0
C336 C 0.97782 0.55236 0.21582 0.0
C337 C 0.99197 0.54295 0.18239 0.0
C338 C 0.99213 0.56301 0.14848 0.0
C339 C 0.97771 0.59342 0.14912 0.0
H340 H 0.45128 0.3378 0.24937 0.0
H341 H 0.52572 0.34685 0.36431 0.0
H342 H 0.54644 0.29529 0.34214 0.0
H343 H 0.41074 0.24267 0.23511 0.0
H344 H 0.41224 0.23943 0.18329 0.0
H345 H 0.40844 0.28048 0.20608 0.0
H346 H 0.47516 0.32279 0.18091 0.0
H347 H 0.47892 0.28183 0.15748 0.0
H348 H 0.52276 0.31338 0.19178 0.0
H349 H 0.55047 0.23672 0.31014 0.0
H350 H 0.54058 0.17884 0.2695 0.0
H351 H 0.46568 0.21061 0.17553 0.0
C352 C 0.47334 0.33013 0.26949 0.0
C353 C 0.48709 0.34662 0.30853 0.0
C354 C 0.51467 0.33456 0.33428 0.0
C355 C 0.52677 0.30542 0.32192 0.0
C356 C 0.51147 0.28897 0.28358 0.0
C357 C 0.48588 0.30135 0.25759 0.0
C358 C 0.47093 0.27729 0.219 0.0
C359 C 0.42275 0.25889 0.21041 0.0
C360 C 0.48798 0.30019 0.1853 0.0
C361 C 0.49085 0.24859 0.22775 0.0
C362 C 0.51438 0.25582 0.26502 0.0
C363 C 0.53282 0.23122 0.28063 0.0
C364 C 0.52683 0.19837 0.25754 0.0
C365 C 0.50276 0.19063 0.21934 0.0
C366 C 0.48508 0.21635 0.20428 0.0
H367 H 0.23203 0.89484 0.68734 0.0
H368 H 0.34046 0.95039 0.63271 0.0
H369 H 0.30541 0.99126 0.60186 0.0
H370 H 0.15503 0.89407 0.60675 0.0
H371 H 0.12063 0.90197 0.63733 0.0
H372 H 0.15514 0.87831 0.65541 0.0
H373 H 0.18648 0.92738 0.71583 0.0
H374 H 0.15226 0.95137 0.69773 0.0
H375 H 0.20813 0.97657 0.70844 0.0
H376 H 0.25741 1.02614 0.57719 0.0
H377 H 0.1989 0.04806 0.55695 0.0
H378 H 0.12339 0.96857 0.62844 0.0
C379 C 0.24854 0.91579 0.66911 0.0
C380 C 0.28894 0.91966 0.66249 0.0
C381 C 0.3093 0.9469 0.63789 0.0
C382 C 0.2898 0.97037 0.62055 0.0
C383 C 0.25001 0.96605 0.62808 0.0
C384 C 0.22957 0.93919 0.65157 0.0
C385 C 0.18649 0.93909 0.65414 0.0
C386 C 0.15232 0.90112 0.63739 0.0
C387 C 0.18317 0.94922 0.69656 0.0
C388 C 0.18561 0.96992 0.6282 0.0
C389 C 0.22256 0.9855 0.61365 0.0
C390 C 0.22837 1.01416 0.58848 0.0
C391 C 0.19512 1.02655 0.57729 0.0
C392 C 0.15666 1.00994 0.59105 0.0
C393 C 0.15236 0.98177 0.6173 0.0
H394 H 0.7629 0.39964 0.8686 0.0
H395 H 0.68768 0.37134 0.96104 0.0
H396 H 0.75109 0.40189 1.01075 0.0
H397 H 0.84872 0.38172 0.91714 0.0
H398 H 0.88844 0.4201 0.89992 0.0
H399 H 0.83679 0.39966 0.87107 0.0
H400 H 0.82999 0.46481 0.87119 0.0
H401 H 0.88193 0.48548 0.89958 0.0
H402 H 0.83822 0.49163 0.91731 0.0
H403 H 0.82261 0.42871 0.05051 0.0
H404 H 0.89812 0.45372 0.07809 0.0
H405 H 0.928 0.46731 0.9606 0.0
C406 C 0.75974 0.40079 0.89925 0.0
C407 C 0.7204 0.3831 0.91102 0.0
C408 C 0.71756 0.3845 0.95145 0.0
C409 C 0.75336 0.40189 0.97987 0.0
C410 C 0.79183 0.41807 0.96745 0.0
C411 C 0.79531 0.41809 0.92813 0.0
C412 C 0.84082 0.43577 0.92296 0.0
C413 C 0.85448 0.40762 0.90151 0.0
C414 C 0.84819 0.47158 0.90148 0.0
C415 C 0.86237 0.44482 0.9655 0.0
C416 C 0.83341 0.43441 0.99062 0.0
C417 C 0.84558 0.43754 1.03119 0.0
C418 C 0.8885 0.45158 1.04658 0.0
C419 C 0.91875 0.46252 1.0215 0.0
C420 C 0.90547 0.45954 0.98045 0.0
H421 H 0.77487 0.60796 0.35735 0.0
H422 H 0.87732 0.66181 0.45346 0.0
H423 H 0.82987 0.63735 0.50103 0.0
H424 H 0.69725 0.62694 0.39962 0.0
H425 H 0.65519 0.58285 0.38267 0.0
H426 H 0.69766 0.60099 0.35551 0.0
H427 H 0.71219 0.53948 0.36077 0.0
H428 H 0.66954 0.52105 0.38777 0.0
H429 H 0.72124 0.52308 0.40839 0.0
H430 H 0.77091 0.61443 0.53818 0.0
H431 H 0.70404 0.58997 0.56326 0.0
H432 H 0.63779 0.54718 0.44515 0.0
C433 C 0.78739 0.61361 0.38843 0.0
C434 C 0.83001 0.63667 0.4017 0.0
C435 C 0.84495 0.64417 0.44263 0.0
C436 C 0.81819 0.6304 0.46992 0.0
C437 C 0.77624 0.60875 0.45611 0.0
C438 C 0.76081 0.59987 0.41641 0.0
C439 C 0.71372 0.57745 0.40991 0.0
C440 C 0.68954 0.59831 0.38548 0.0
C441 C 0.70358 0.53791 0.39056 0.0
C442 C 0.70519 0.57593 0.452 0.0
C443 C 0.7419 0.59429 0.47804 0.0
C444 C 0.74209 0.59932 0.51817 0.0
C445 C 0.7039 0.5854 0.53217 0.0
C446 C 0.66578 0.5661 0.50639 0.0
C447 C 0.66658 0.56096 0.46572 0.0
H448 H 0.38307 0.38716 0.24222 0.0
H449 H 0.44085 0.49122 0.31642 0.0
H450 H 0.39809 0.51955 0.2737 0.0
H451 H 0.3629 0.42783 0.14593 0.0
H452 H 0.31278 0.39013 0.13212 0.0
H453 H 0.35539 0.38177 0.16182 0.0
H454 H 0.30841 0.3565 0.21426 0.0
H455 H 0.26595 0.36513 0.18512 0.0
H456 H 0.28462 0.38575 0.23502 0.0
H457 H 0.34103 0.5325 0.23045 0.0
H458 H 0.27357 0.52853 0.19196 0.0
H459 H 0.25025 0.41446 0.14817 0.0
C460 C 0.38797 0.41646 0.2483 0.0
C461 C 0.41607 0.43764 0.28166 0.0
C462 C 0.42024 0.47518 0.29026 0.0
C463 C 0.39602 0.4913 0.26629 0.0
C464 C 0.36735 0.46921 0.23432 0.0
C465 C 0.36329 0.43255 0.22527 0.0
C466 C 0.32594 0.41285 0.19341 0.0
C467 C 0.34011 0.40255 0.1561 0.0
C468 C 0.29439 0.37803 0.20784 0.0
C469 C 0.30844 0.44354 0.18717 0.0
C470 C 0.33334 0.47616 0.21025 0.0
C471 C 0.32176 0.50737 0.21168 0.0
C472 C 0.28335 0.50487 0.18964 0.0
C473 C 0.25663 0.47118 0.16703 0.0
C474 C 0.27002 0.44057 0.16515 0.0
H475 H 0.65285 0.25077 0.90183 0.0
H476 H 0.53754 0.26389 0.8499 0.0
H477 H 0.49681 0.20491 0.87604 0.0
H478 H 0.61485 0.14777 0.89058 0.0
H479 H 0.64385 0.14533 0.93752 0.0
H480 H 0.66355 0.18545 0.91006 0.0
H481 H 0.66693 0.22941 0.96973 0.0
H482 H 0.64708 0.18949 0.99728 0.0
H483 H 0.62038 0.22203 0.99082 0.0
H484 H 0.46871 0.14712 0.91324 0.0
H485 H 0.45579 0.09624 0.95772 0.0
H486 H 0.58969 0.12321 0.98878 0.0
C487 C 0.619 0.2413 0.89561 0.0
C488 C 0.59859 0.26243 0.8737 0.0
C489 C 0.55415 0.24825 0.86597 0.0
C490 C 0.53069 0.21481 0.881 0.0
C491 C 0.55198 0.19565 0.90374 0.0
C492 C 0.5952 0.20837 0.91085 0.0
C493 C 0.61074 0.18428 0.93847 0.0
C494 C 0.63466 0.16454 0.91792 0.0
C495 C 0.63788 0.2077 0.97631 0.0
C496 C 0.56953 0.15637 0.94654 0.0
C497 C 0.53597 0.1631 0.92583 0.0
C498 C 0.4948 0.14154 0.92933 0.0
C499 C 0.48777 0.11268 0.95475 0.0
C500 C 0.52168 0.10569 0.97682 0.0
C501 C 0.56308 0.12774 0.97226 0.0
H502 H 0.92068 0.75728 0.43364 0.0
H503 H 0.94819 0.77416 0.31532 0.0
H504 H 0.9819 0.84225 0.33397 0.0
H505 H 0.89187 0.83877 0.44351 0.0
H506 H 0.91351 0.8488 0.49507 0.0
H507 H 0.89353 0.80119 0.47315 0.0
H508 H 0.96488 0.79535 0.49815 0.0
H509 H 0.98498 0.8429 0.52017 0.0
H510 H 1.01211 0.82898 0.48569 0.0
H511 H 1.01504 0.9091 0.36661 0.0
H512 H 0.04138 0.96863 0.40902 0.0
H513 H 0.9844 0.90924 0.50325 0.0
C514 C 0.93282 0.77494 0.411 0.0
C515 C 0.9311 0.75941 0.37253 0.0
C516 C 0.94927 0.7845 0.34503 0.0
C517 C 0.96826 0.82351 0.3553 0.0
C518 C 0.96852 0.83754 0.39311 0.0
C519 C 0.95088 0.81397 0.42041 0.0
C520 C 0.95435 0.83614 0.45884 0.0
C521 C 0.91072 0.83091 0.46818 0.0
C522 C 0.98065 0.82518 0.4927 0.0
C523 C 0.977 0.87599 0.44905 0.0
C524 C 0.98532 0.87609 0.41109 0.0
C525 C 1.00811 0.90927 0.3961 0.0
C526 C 1.02294 0.943 0.42043 0.0
C527 C 1.01433 0.94375 0.45919 0.0
C528 C 0.99064 0.90973 0.47347 0.0
H529 H 0.35336 0.7854 0.68353 0.0
H530 H 0.40659 0.89106 0.63298 0.0
H531 H 0.45604 0.86772 0.60649 0.0
H532 H 0.44805 0.77504 0.71597 0.0
H533 H 0.42862 0.72478 0.70571 0.0
H534 H 0.39368 0.7475 0.71638 0.0
H535 H 0.34407 0.71806 0.65063 0.0
H536 H 0.3783 0.6945 0.63995 0.0
H537 H 0.36478 0.72431 0.60537 0.0
H538 H 0.50499 0.83554 0.59241 0.0
H539 H 0.54663 0.79559 0.58825 0.0
H540 H 0.45965 0.71053 0.64661 0.0
C541 C 0.37499 0.80341 0.66636 0.0
C542 C 0.37607 0.83997 0.66018 0.0
C543 C 0.40479 0.86271 0.63754 0.0
C544 C 0.43316 0.8498 0.6226 0.0
C545 C 0.43213 0.81402 0.63033 0.0
C546 C 0.40342 0.79098 0.65128 0.0
C547 C 0.41024 0.7546 0.65748 0.0
C548 C 0.42078 0.75024 0.70149 0.0
C549 C 0.37208 0.72088 0.63713 0.0
C550 C 0.44775 0.76103 0.63735 0.0
C551 C 0.45995 0.79539 0.62184 0.0
C552 C 0.49527 0.80825 0.6038 0.0
C553 C 0.51864 0.78527 0.60146 0.0
C554 C 0.50648 0.74976 0.61696 0.0
C555 C 0.47028 0.73761 0.63483 0.0
H556 H 0.69735 0.69209 0.69355 0.0
H557 H 0.62444 0.76272 0.70408 0.0
H558 H 0.66203 0.80369 0.65914 0.0
H559 H 0.7894 0.76551 0.70813 0.0
H560 H 0.8153 0.7474 0.67571 0.0
H561 H 0.77381 0.71559 0.69734 0.0
H562 H 0.7335 0.68521 0.62823 0.0
H563 H 0.77507 0.71704 0.60624 0.0
H564 H 0.72188 0.71423 0.59165 0.0
H565 H 0.71527 0.84482 0.62485 0.0
H566 H 0.78292 0.88434 0.60774 0.0
H567 H 0.82907 0.79387 0.62671 0.0
C568 C 0.68863 0.71579 0.68623 0.0
C569 C 0.65686 0.72299 0.70278 0.0
C570 C 0.64693 0.75461 0.69142 0.0
C571 C 0.66859 0.77875 0.66573 0.0
C572 C 0.70102 0.77187 0.65194 0.0
C573 C 0.71127 0.74126 0.6619 0.0
C574 C 0.75243 0.74426 0.64942 0.0
C575 C 0.78461 0.74315 0.68475 0.0
C576 C 0.74528 0.71335 0.61695 0.0
C577 C 0.76504 0.78261 0.63359 0.0
C578 C 0.73401 0.79723 0.63386 0.0
C579 C 0.73956 0.83348 0.62391 0.0
C580 C 0.77827 0.85587 0.61463 0.0
C581 C 0.81138 0.84231 0.61617 0.0
C582 C 0.80411 0.80476 0.62456 0.0
H583 H 0.67274 0.18351 0.31196 0.0
H584 H 0.79733 0.18735 0.30186 0.0
H585 H 0.77567 0.17321 0.23009 0.0
H586 H 0.61887 0.10802 0.25054 0.0
H587 H 0.57768 0.12313 0.22853 0.0
H588 H 0.60538 0.14203 0.27697 0.0
H589 H 0.62499 0.20938 0.255 0.0
H590 H 0.59706 0.19049 0.20626 0.0
H591 H 0.65126 0.22151 0.21326 0.0
H592 H 0.73698 0.14694 0.16239 0.0
H593 H 0.68433 0.10997 0.10561 0.0
H594 H 0.58612 0.12554 0.16012 0.0
C595 C 0.69609 0.18312 0.29452 0.0
C596 C 0.73677 0.1867 0.31248 0.0
C597 C 0.7659 0.1845 0.28871 0.0
C598 C 0.75401 0.17688 0.24789 0.0
C599 C 0.71312 0.17214 0.23126 0.0
C600 C 0.68474 0.17569 0.25386 0.0
C601 C 0.64126 0.16448 0.22999 0.0
C602 C 0.60896 0.13251 0.24755 0.0
C603 C 0.62788 0.1985 0.22588 0.0
C604 C 0.64899 0.15142 0.19124 0.0
C605 C 0.69077 0.15701 0.19206 0.0
C606 C 0.70437 0.14328 0.161 0.0
C607 C 0.67431 0.12231 0.12889 0.0
C608 C 0.63129 0.1149 0.12864 0.0
C609 C 0.61889 0.13092 0.15949 0.0
H610 H 0.43183 0.62934 0.29249 0.0
H611 H 0.46968 0.73779 0.35809 0.0
H612 H 0.4904 0.71067 0.41823 0.0
H613 H 0.387 0.57291 0.36924 0.0
H614 H 0.4043 0.53617 0.35483 0.0
H615 H 0.39278 0.56597 0.31908 0.0
H616 H 0.46749 0.58023 0.30267 0.0
H617 H 0.48103 0.55405 0.34139 0.0
H618 H 0.51255 0.60275 0.34034 0.0
H619 H 0.50684 0.67005 0.47229 0.0
H620 H 0.51761 0.62096 0.5131 0.0
H621 H 0.46597 0.53952 0.41166 0.0
C622 C 0.4439 0.64751 0.31949 0.0
C623 C 0.44876 0.68588 0.3202 0.0
C624 C 0.46593 0.70849 0.35633 0.0
C625 C 0.47752 0.6932 0.39083 0.0
C626 C 0.47173 0.65515 0.389 0.0
C627 C 0.45523 0.6327 0.35412 0.0
C628 C 0.4522 0.59275 0.35947 0.0
C629 C 0.40637 0.5653 0.35009 0.0
C630 C 0.47992 0.5818 0.33445 0.0
C631 C 0.46937 0.59593 0.40286 0.0
C632 C 0.48066 0.63213 0.41956 0.0
C633 C 0.49791 0.64165 0.45935 0.0
C634 C 0.50389 0.61358 0.48237 0.0
C635 C 0.49246 0.57634 0.46568 0.0
C636 C 0.47474 0.56762 0.42544 0.0
H637 H 0.15788 0.38118 0.84428 0.0
H638 H 0.15267 0.45678 0.75434 0.0
H639 H 0.12474 0.49083 0.7974 0.0
H640 H 0.0635 0.37761 0.88163 0.0
H641 H 0.08523 0.37786 0.93236 0.0
H642 H 0.10351 0.35821 0.8942 0.0
H643 H 0.17964 0.40271 0.9209 0.0
H644 H 0.16157 0.42255 0.95908 0.0
H645 H 0.19182 0.45262 0.92649 0.0
H646 H 0.096 0.51641 0.84925 0.0
H647 H 0.07179 0.53401 0.90755 0.0
H648 H 0.09855 0.44535 0.96785 0.0
C649 C 0.15056 0.40475 0.83364 0.0
C650 C 0.15746 0.41614 0.79557 0.0
C651 C 0.1479 0.44749 0.78317 0.0
C652 C 0.13188 0.46701 0.80749 0.0
C653 C 0.12579 0.4554 0.84476 0.0
C654 C 0.13509 0.42518 0.85806 0.0
C655 C 0.12674 0.41964 0.90011 0.0
C656 C 0.09272 0.38103 0.90219 0.0
C657 C 0.16737 0.42468 0.92831 0.0
C658 C 0.11115 0.45127 0.90817 0.0
C659 C 0.1106 0.47123 0.87553 0.0
C660 C 0.09655 0.50106 0.87501 0.0
C661 C 0.08269 0.51084 0.90845 0.0
C662 C 0.08322 0.49137 0.94274 0.0
C663 C 0.09799 0.46116 0.94244 0.0
H664 H 0.59303 0.7116 0.85638 0.0
H665 H 0.51793 0.70349 0.74195 0.0
H666 H 0.49392 0.75175 0.76643 0.0
H667 H 0.51658 0.7337 0.91555 0.0
H668 H 0.56082 0.76391 0.9504 0.0
H669 H 0.56278 0.72218 0.92683 0.0
H670 H 0.63132 0.7629 0.90366 0.0
H671 H 0.62901 0.80484 0.92557 0.0
H672 H 0.63135 0.80089 0.87398 0.0
H673 H 0.49621 0.81295 0.7969 0.0
H674 H 0.51307 0.8735 0.83544 0.0
H675 H 0.58046 0.83718 0.93157 0.0
C676 C 0.56947 0.71792 0.83689 0.0
C677 C 0.55836 0.70419 0.79681 0.0
C678 C 0.52805 0.71431 0.77245 0.0
C679 C 0.5139 0.74156 0.7862 0.0
C680 C 0.5288 0.75714 0.82488 0.0
C681 C 0.55448 0.74445 0.85039 0.0
C682 C 0.56992 0.76831 0.88917 0.0
C683 C 0.5514 0.74567 0.92246 0.0
C684 C 0.61822 0.78522 0.89857 0.0
C685 C 0.55179 0.79819 0.88037 0.0
C686 C 0.52781 0.7912 0.84329 0.0
C687 C 0.51336 0.81791 0.82658 0.0
C688 C 0.52341 0.85234 0.84845 0.0
C689 C 0.54714 0.85948 0.88675 0.0
C690 C 0.56097 0.83182 0.90289 0.0
H691 H 0.84848 0.16271 0.403 0.0
H692 H 0.74626 0.11273 0.46699 0.0
H693 H 0.78185 0.07169 0.49631 0.0
H694 H 0.86937 0.07868 0.3825 0.0
H695 H 0.92535 0.10328 0.38953 0.0
H696 H 0.89072 0.12718 0.37235 0.0
H697 H 0.9266 0.17872 0.43013 0.0
H698 H 0.96145 0.15511 0.44731 0.0
H699 H 0.92999 0.16535 0.47975 0.0
H700 H 0.82945 0.03656 0.51883 0.0
H701 H 0.8878 1.01419 0.53707 0.0
H702 H 0.95874 0.08887 0.45903 0.0
C703 C 0.83347 0.14286 0.42292 0.0
C704 C 0.79467 0.14061 0.4327 0.0
C705 C 0.77617 0.11487 0.45937 0.0
C706 C 0.79596 0.09133 0.47588 0.0
C707 C 0.83423 0.09415 0.46548 0.0
C708 C 0.85291 0.11952 0.43987 0.0
C709 C 0.89507 0.11852 0.43498 0.0
C710 C 0.8951 0.10617 0.3923 0.0
C711 C 0.93035 0.15669 0.44889 0.0
C712 C 0.89742 0.08885 0.46209 0.0
C713 C 0.86187 0.07472 0.47907 0.0
C714 C 0.8574 0.04736 0.50565 0.0
C715 C 0.89058 0.03473 0.5157 0.0
C716 C 0.92775 0.04986 0.4995 0.0
C717 C 0.93074 0.07681 0.47196 0.0
H718 H 0.30615 0.65541 0.23158 0.0
H719 H 0.3872 0.67586 0.14381 0.0
H720 H 0.32579 0.64418 0.09223 0.0
H721 H 0.22744 0.56254 0.18507 0.0
H722 H 0.18449 0.57314 0.19859 0.0
H723 H 0.2355 0.59227 0.22907 0.0
H724 H 0.23387 0.6591 0.22323 0.0
H725 H 0.18344 0.64 0.19206 0.0
H726 H 0.22649 0.67536 0.17525 0.0
H727 H 0.25577 0.61837 0.04936 0.0
H728 H 0.18116 0.59615 1.01826 0.0
H729 H 0.14477 0.59058 0.13332 0.0
C730 C 0.31094 0.65205 0.20167 0.0
C731 C 0.35134 0.66785 0.19158 0.0
C732 C 0.35644 0.66391 0.15202 0.0
C733 C 0.3218 0.64589 0.12259 0.0
C734 C 0.2822 0.63173 0.13318 0.0
C735 C 0.27652 0.63416 0.1718 0.0
C736 C 0.23025 0.61942 0.17467 0.0
C737 C 0.21876 0.58479 0.19827 0.0
C738 C 0.2178 0.65032 0.19234 0.0
C739 C 0.21097 0.60905 0.13167 0.0
C740 C 0.24151 0.61634 0.10825 0.0
C741 C 0.23152 0.61186 0.06739 0.0
C742 C 0.18918 0.59949 0.04998 0.0
C743 C 0.15743 0.59153 0.07342 0.0
C744 C 0.1685 0.59604 0.11476 0.0
H745 H 0.28822 0.38293 0.69561 0.0
H746 H 0.24488 0.47556 0.70509 0.0
H747 H 0.30239 0.51457 0.67297 0.0
H748 H 0.39857 0.43696 0.71035 0.0
H749 H 0.40938 0.40844 0.67431 0.0
H750 H 0.36584 0.38803 0.69972 0.0
H751 H 0.31552 0.36581 0.63316 0.0
H752 H 0.35892 0.38614 0.60755 0.0
H753 H 0.31386 0.39953 0.59823 0.0
H754 H 0.36603 0.54454 0.64 0.0
H755 H 0.42796 0.56141 0.60682 0.0
H756 H 0.42669 0.44815 0.61367 0.0
C757 C 0.29026 0.41124 0.69073 0.0
C758 C 0.26154 0.42584 0.70373 0.0
C759 C 0.26659 0.46351 0.69678 0.0
C760 C 0.29913 0.48599 0.67804 0.0
C761 C 0.32653 0.47061 0.66565 0.0
C762 C 0.32221 0.43397 0.67144 0.0
C763 C 0.35524 0.42392 0.65433 0.0
C764 C 0.38396 0.41374 0.68661 0.0
C765 C 0.33465 0.39196 0.62136 0.0
C766 C 0.37887 0.46065 0.63816 0.0
C767 C 0.36199 0.48733 0.64526 0.0
C768 C 0.37925 0.52372 0.63408 0.0
C769 C 0.41455 0.53309 0.61523 0.0
C770 C 0.43222 0.50615 0.60717 0.0
C771 C 0.41378 0.46938 0.61881 0.0
H772 H 0.69648 0.62921 0.78071 0.0
H773 H 0.65799 0.68063 0.87392 0.0
H774 H 0.70812 0.66642 0.92269 0.0
H775 H 0.71809 0.55573 0.83655 0.0
H776 H 0.76386 0.56036 0.81519 0.0
H777 H 0.72111 0.56995 0.78745 0.0
H778 H 0.7716 0.63617 0.77697 0.0
H779 H 0.81473 0.62699 0.80435 0.0
H780 H 0.80364 0.66742 0.81895 0.0
H781 H 0.76698 0.65268 0.96095 0.0
H782 H 0.83038 0.63951 0.98595 0.0
H783 H 0.83311 0.59956 0.86809 0.0
C784 C 0.69813 0.63698 0.81142 0.0
C785 C 0.67258 0.65547 0.82333 0.0
C786 C 0.67609 0.66541 0.86391 0.0
C787 C 0.7048 0.65772 0.89195 0.0
C788 C 0.72998 0.64016 0.87913 0.0
C789 C 0.7269 0.62978 0.83986 0.0
C790 C 0.75992 0.61389 0.83366 0.0
C791 C 0.73951 0.57252 0.81726 0.0
C792 C 0.7892 0.63754 0.80691 0.0
C793 C 0.78259 0.61782 0.87545 0.0
C794 C 0.76456 0.63271 0.90125 0.0
C795 C 0.78118 0.64067 0.94111 0.0
C796 C 0.81736 0.63338 0.95498 0.0
C797 C 0.83665 0.61845 0.92903 0.0
C798 C 0.81866 0.61031 0.8888 0.0
H799 H 0.41287 0.79989 0.19909 0.0
H800 H 0.53089 0.79269 0.2525 0.0
H801 H 0.56902 0.85258 0.22641 0.0
H802 H 0.44525 0.83039 0.11034 0.0
H803 H 0.41594 0.86083 0.1034 0.0
H804 H 0.39792 0.82049 0.13081 0.0
H805 H 0.39783 0.8631 0.19019 0.0
H806 H 0.41571 0.90363 0.16288 0.0
H807 H 0.44493 0.90234 0.21011 0.0
H808 H 0.59439 0.91082 0.18948 0.0
H809 H 0.60496 0.96165 0.14515 0.0
H810 H 0.4703 0.92869 0.11234 0.0
C811 C 0.44677 0.81083 0.20561 0.0
C812 C 0.46872 0.79112 0.22797 0.0
C813 C 0.51311 0.80719 0.23609 0.0
C814 C 0.5351 0.84117 0.22109 0.0
C815 C 0.51237 0.85895 0.19799 0.0
C816 C 0.46913 0.84432 0.19042 0.0
C817 C 0.45203 0.86731 0.16254 0.0
C818 C 0.42628 0.84332 0.12453 0.0
C819 C 0.42609 0.88515 0.18264 0.0
C820 C 0.49243 0.89686 0.15491 0.0
C821 C 0.52688 0.89181 0.17603 0.0
C822 C 0.56759 0.91506 0.17305 0.0
C823 C 0.57327 0.94389 0.14769 0.0
C824 C 0.53849 0.94921 0.12517 0.0
C825 C 0.49753 0.92548 0.12923 0.0
H826 H 0.16644 0.30154 0.65728 0.0
H827 H 0.12957 0.28277 0.77219 0.0
H828 H 0.09558 0.21527 0.752 0.0
H829 H 0.07653 0.23143 0.60005 0.0
H830 H 0.10565 0.21699 0.56804 0.0
H831 H 0.12577 0.26434 0.59066 0.0
H832 H 0.19472 0.25624 0.61993 0.0
H833 H 0.17466 0.20866 0.59791 0.0
H834 H 0.19295 0.21819 0.65004 0.0
H835 H 0.06268 0.14947 0.7186 0.0
H836 H 0.03732 0.09022 0.67603 0.0
H837 H 0.10186 0.14925 0.58533 0.0
C838 C 0.15196 0.28354 0.67877 0.0
C839 C 0.15089 0.29859 0.71665 0.0
C840 C 0.13034 0.27302 0.74278 0.0
C841 C 0.11115 0.23423 0.73168 0.0
C842 C 0.1131 0.22069 0.69445 0.0
C843 C 0.1334 0.2445 0.6685 0.0
C844 C 0.13183 0.22243 0.63053 0.0
C845 C 0.10855 0.23452 0.59524 0.0
C846 C 0.17619 0.22665 0.62425 0.0
C847 C 0.10702 0.18252 0.63902 0.0
C848 C 0.09626 0.18234 0.676 0.0
C849 C 0.07146 0.1493 0.68986 0.0
C850 C 0.05716 0.11571 0.66541 0.0
C851 C 0.06815 0.11487 0.62763 0.0
C852 C 0.09378 0.14882 0.61443 0.0
H853 H 0.65899 0.2114 0.40464 0.0
H854 H 0.77387 0.25075 0.48995 0.0
H855 H 0.74478 0.2884 0.52758 0.0
H856 H 0.64425 0.29667 0.40158 0.0
H857 H 0.58797 0.27638 0.39656 0.0
H858 H 0.61603 0.24962 0.37892 0.0
H859 H 0.58216 0.19642 0.42198 0.0
H860 H 0.55388 0.22308 0.43971 0.0
H861 H 0.58698 0.207 0.474 0.0
H862 H 0.7059 0.3265 0.5518 0.0
H863 H 0.65976 0.36139 0.5613 0.0
H864 H 0.57076 0.29656 0.45993 0.0
C865 C 0.67792 0.22775 0.4314 0.0
C866 C 0.71867 0.22833 0.44443 0.0
C867 C 0.74239 0.24974 0.47973 0.0
C868 C 0.72617 0.27119 0.50121 0.0
C869 C 0.68609 0.27049 0.48712 0.0
C870 C 0.66219 0.24911 0.45315 0.0
C871 C 0.62104 0.25471 0.44302 0.0
C872 C 0.61715 0.27029 0.40264 0.0
C873 C 0.58382 0.21812 0.4448 0.0
C874 C 0.62599 0.2835 0.47596 0.0
C875 C 0.66353 0.29203 0.50131 0.0
C876 C 0.67616 0.31967 0.5325 0.0
C877 C 0.64993 0.33941 0.53757 0.0
C878 C 0.61164 0.33132 0.51156 0.0
C879 C 0.59937 0.30264 0.4808 0.0
loop_
_geom_bond_atom_site_label_1
_geom_bond_atom_site_label_2
_geom_bond_distance
_geom_bond_site_symmetry_2
_ccdc_geom_bond_type
H0 C3 0.931 . S
H1 C6 0.928 . S
H2 C8 0.930 . S
C3 H0 0.931 . S
C3 C4 1.413 . S
C3 C5 1.360 . S
C4 C3 1.413 . S
C4 C8 1.429 . S
C5 C3 1.360 . S
C5 C6 1.372 . S
C6 H1 0.928 . S
C6 C5 1.372 . S
C6 C7 1.404 . S
C7 C6 1.404 . S
C7 C8 1.391 . S
C8 H2 0.930 . S
C8 C4 1.429 . S
C8 C7 1.391 . S
H9 C12 0.931 . S
H10 C15 0.928 . S
H11 C17 0.930 . S
C12 H9 0.931 . S
C12 C13 1.413 . S
C12 C14 1.360 . S
C13 C12 1.413 . S
C13 C17 1.429 . S
C14 C12 1.360 . S
C14 C15 1.372 . S
C15 H10 0.928 . S
C15 C14 1.372 . S
C15 C16 1.404 . S
C16 C15 1.404 . S
C16 C17 1.391 . S
C17 H11 0.930 . S
C17 C13 1.429 . S
C17 C16 1.391 . S
H18 C21 0.931 . S
H19 C24 0.928 . S
H20 C26 0.930 . S
C21 H18 0.931 . S
C21 C22 1.413 . S
C21 C23 1.360 . S
C22 C21 1.413 . S
C22 C26 1.429 . S
C23 C21 1.360 . S
C23 C24 1.372 . S
C24 H19 0.928 . S
C24 C23 1.372 . S
C24 C25 1.404 . S
C25 C24 1.404 . S
C25 C26 1.391 . S
C26 H20 0.930 . S
C26 C22 1.429 . S
C26 C25 1.391 . S
H27 C30 0.931 . S
H28 C33 0.928 . S
H29 C35 0.930 . S
C30 H27 0.931 . S
C30 C31 1.413 . S
C30 C32 1.360 . S
C31 C30 1.413 . S
C31 C35 1.429 . S
C32 C30 1.360 . S
C32 C33 1.372 . S
C33 H28 0.928 . S
C33 C32 1.372 . S
C33 C34 1.404 . S
C34 C33 1.404 . S
C34 C35 1.391 . S
C35 H29 0.930 . S
C35 C31 1.429 . S
C35 C34 1.391 . S
H36 C39 0.931 . S
H37 C42 0.928 . S
H38 C44 0.930 . S
C39 H36 0.931 . S
C39 C40 1.413 . S
C39 C41 1.360 . S
C40 C39 1.413 . S
C40 C44 1.429 . S
C41 C39 1.360 . S
C41 C42 1.372 . S
C42 H37 0.928 . S
C42 C41 1.372 . S
C42 C43 1.404 . S
C43 C42 1.404 . S
C43 C44 1.391 . S
C44 H38 0.930 . S
C44 C40 1.429 . S
C44 C43 1.391 . S
H45 C48 0.931 . S
H46 C51 0.928 . S
H47 C53 0.930 . S
C48 H45 0.931 . S
C48 C49 1.413 . S
C48 C50 1.360 . S
C49 C48 1.413 . S
C49 C53 1.429 . S
C50 C48 1.360 . S
C50 C51 1.372 . S
C51 H46 0.928 . S
C51 C50 1.372 . S
C51 C52 1.404 . S
C52 C51 1.404 . S
C52 C53 1.391 . S
C53 H47 0.930 . S
C53 C49 1.429 . S
C53 C52 1.391 . S
H54 C57 0.931 . S
H55 C60 0.928 . S
H56 C62 0.930 . S
C57 H54 0.931 . S
C57 C58 1.413 . S
C57 C59 1.360 . S
C58 C57 1.413 . S
C58 C62 1.429 . S
C59 C57 1.360 . S
C59 C60 1.372 . S
C60 H55 0.928 . S
C60 C59 1.372 . S
C60 C61 1.404 . S
C61 C60 1.404 . S
C61 C62 1.391 . S
C62 H56 0.930 . S
C62 C58 1.429 . S
C62 C61 1.391 . S
H63 C66 0.931 . S
H64 C69 0.928 . S
H65 C71 0.930 . S
C66 H63 0.931 . S
C66 C67 1.413 . S
C66 C68 1.360 . S
C67 C66 1.413 . S
C67 C71 1.429 . S
C68 C66 1.360 . S
C68 C69 1.372 . S
C69 H64 0.928 . S
C69 C68 1.372 . S
C69 C70 1.404 . S
C70 C69 1.404 . S
C70 C71 1.391 . S
C71 H65 0.930 . S
C71 C67 1.429 . S
C71 C70 1.391 . S
Pr72 C74 2.880 . S
Pr72 O92 2.562 . S
Pr72 O93 2.490 . S
Pr72 O94 2.695 1_665 S
Pr72 O95 2.509 1_665 S
Pr72 O97 2.437 1_655 S
Pr72 O100 2.436 . S
Pr72 O102 2.438 1_565 S
Pr73 C83 2.880 . S
Pr73 O94 2.436 . S
Pr73 O96 2.438 1_545 S
Pr73 O98 2.562 . S
Pr73 O99 2.490 . S
Pr73 O100 2.695 1_445 S
Pr73 O101 2.512 1_545 S
Pr73 O103 2.437 1_455 S
C74 Pr72 2.880 . S
C74 C75 1.491 . S
C74 O92 1.254 . S
C74 O93 1.225 . S
C75 C74 1.491 . S
C75 C76 1.392 . S
C75 C80 1.356 . S
C76 C75 1.392 . S
C76 C77 1.368 . S
C76 H104 0.929 . S
C77 C76 1.368 . S
C77 C78 1.386 . S
C77 H105 0.929 . S
C78 C77 1.386 . S
C78 C79 1.373 . S
C79 C78 1.373 . S
C79 C80 1.409 . S
C79 H106 0.931 . S
C80 C75 1.356 . S
C80 C79 1.409 . S
C80 H107 0.930 . S
C81 O94 1.270 . S
C81 O95 1.263 . S
C82 O96 1.267 . S
C82 O97 1.278 . S
C83 Pr73 2.880 . S
C83 C84 1.491 . S
C83 O98 1.254 . S
C83 O99 1.225 . S
C84 C83 1.491 . S
C84 C85 1.392 . S
C84 C89 1.356 . S
C85 C84 1.392 . S
C85 C86 1.368 . S
C85 H108 0.929 . S
C86 C85 1.368 . S
C86 C87 1.386 . S
C86 H109 0.929 . S
C87 C86 1.386 . S
C87 C88 1.373 . S
C88 C87 1.373 . S
C88 C89 1.409 . S
C88 H110 0.931 . S
C89 C84 1.356 . S
C89 C88 1.409 . S
C89 H111 0.930 . S
C90 O100 1.270 . S
C90 O101 1.248 1_655 S
C91 O102 1.267 . S
C91 O103 1.278 . S
O92 Pr72 2.562 . S
O92 C74 1.254 . S
O93 Pr72 2.490 . S
O93 C74 1.225 . S
O94 Pr72 2.695 1_445 S
O94 Pr73 2.436 . S
O94 C81 1.270 . S
O95 Pr72 2.509 1_445 S
O95 C81 1.263 . S
O96 Pr73 2.438 1_565 S
O96 C82 1.267 . S
O97 Pr72 2.437 1_455 S
O97 C82 1.278 . S
O98 Pr73 2.562 . S
O98 C83 1.254 . S
O99 Pr73 2.490 . S
O99 C83 1.225 . S
O100 Pr72 2.436 . S
O100 Pr73 2.695 1_665 S
O100 C90 1.270 . S
O101 Pr73 2.512 1_565 S
O101 C90 1.248 1_455 S
O102 Pr72 2.438 1_545 S
O102 C91 1.267 . S
O103 Pr73 2.437 1_655 S
O103 C91 1.278 . S
H104 C76 0.929 . S
H105 C77 0.929 . S
H106 C79 0.931 . S
H107 C80 0.930 . S
H108 C85 0.929 . S
H109 C86 0.929 . S
H110 C88 0.931 . S
H111 C89 0.930 . S
Pr112 C114 2.880 . S
Pr112 O132 2.562 . S
Pr112 O133 2.490 . S
Pr112 O134 2.695 1_554 S
Pr112 O135 2.512 1_554 S
Pr112 O137 2.437 . S
Pr112 O140 2.436 1_545 S
Pr112 O142 2.438 1_544 S
Pr113 C123 2.881 1_554 S
Pr113 O134 2.436 1_564 S
Pr113 O136 2.437 1_565 S
Pr113 O138 2.564 1_554 S
Pr113 O139 2.491 1_554 S
Pr113 O140 2.694 . S
Pr113 O141 2.511 . S
Pr113 O143 2.438 1_554 S
C114 Pr112 2.880 . S
C114 C115 1.491 . S
C114 O132 1.254 . S
C114 O133 1.225 . S
C115 C114 1.491 . S
C115 C116 1.392 . S
C115 C120 1.356 . S
C116 C115 1.392 . S
C116 C117 1.368 . S
C116 H144 0.929 . S
C117 C116 1.368 . S
C117 C118 1.386 . S
C117 H145 0.929 . S
C118 C117 1.386 . S
C118 C119 1.373 . S
C119 C118 1.373 . S
C119 C120 1.409 . S
C119 H146 0.931 . S
C120 C115 1.356 . S
C120 C119 1.409 . S
C120 H147 0.930 . S
C121 O134 1.270 . S
C121 O135 1.248 . S
C122 O136 1.267 . S
C122 O137 1.278 . S
C123 Pr113 2.881 1_556 S
C123 C124 1.491 . S
C123 O138 1.254 . S
C123 O139 1.225 . S
C124 C123 1.491 . S
C124 C125 1.392 . S
C124 C129 1.356 . S
C125 C124 1.392 . S
C125 C126 1.368 . S
C125 H148 0.929 . S
C126 C125 1.368 . S
C126 C127 1.386 . S
C126 H149 0.929 . S
C127 C126 1.386 . S
C127 C128 1.373 . S
C128 C127 1.373 . S
C128 C129 1.409 . S
C128 H150 0.931 . S
C129 C124 1.356 . S
C129 C128 1.409 . S
C129 H151 0.930 . S
C130 O140 1.270 . S
C130 O141 1.248 . S
C131 O142 1.267 . S
C131 O143 1.278 . S
O132 Pr112 2.562 . S
O132 C114 1.254 . S
O133 Pr112 2.490 . S
O133 C114 1.225 . S
O134 Pr112 2.695 1_556 S
O134 Pr113 2.436 1_546 S
O134 C121 1.270 . S
O135 Pr112 2.512 1_556 S
O135 C121 1.248 . S
O136 Pr113 2.437 1_545 S
O136 C122 1.267 . S
O137 Pr112 2.437 . S
O137 C122 1.278 . S
O138 Pr113 2.564 1_556 S
O138 C123 1.254 . S
O139 Pr113 2.491 1_556 S
O139 C123 1.225 . S
O140 Pr112 2.436 1_565 S
O140 Pr113 2.694 . S
O140 C130 1.270 . S
O141 Pr113 2.511 . S
O141 C130 1.248 . S
O142 Pr112 2.438 1_566 S
O142 C131 1.267 . S
O143 Pr113 2.438 1_556 S
O143 C131 1.278 . S
H144 C116 0.929 . S
H145 C117 0.929 . S
H146 C119 0.931 . S
H147 C120 0.930 . S
H148 C125 0.929 . S
H149 C126 0.929 . S
H150 C128 0.931 . S
H151 C129 0.930 . S
Pr152 C154 2.880 . S
Pr152 O172 2.562 . S
Pr152 O173 2.490 . S
Pr152 O174 2.695 . S
Pr152 O175 2.512 . S
Pr152 O177 2.437 . S
Pr152 O180 2.436 . S
Pr152 O182 2.438 . S
Pr153 C163 2.880 . S
Pr153 O174 2.436 . S
Pr153 O176 2.438 . S
Pr153 O178 2.562 . S
Pr153 O179 2.490 . S
Pr153 O180 2.695 . S
Pr153 O181 2.512 . S
Pr153 O183 2.437 . S
C154 Pr152 2.880 . S
C154 C155 1.491 . S
C154 O172 1.254 . S
C154 O173 1.225 . S
C155 C154 1.491 . S
C155 C156 1.392 . S
C155 C160 1.356 . S
C156 C155 1.392 . S
C156 C157 1.368 . S
C156 H184 0.929 . S
C157 C156 1.368 . S
C157 C158 1.386 . S
C157 H185 0.929 . S
C158 C157 1.386 . S
C158 C159 1.373 . S
C159 C158 1.373 . S
C159 C160 1.409 . S
C159 H186 0.931 . S
C160 C155 1.356 . S
C160 C159 1.409 . S
C160 H187 0.930 . S
C161 O174 1.270 . S
C161 O175 1.248 . S
C162 O176 1.267 . S
C162 O177 1.278 . S
C163 Pr153 2.880 . S
C163 C164 1.491 . S
C163 O178 1.254 . S
C163 O179 1.225 . S
C164 C163 1.491 . S
C164 C165 1.392 . S
C164 C169 1.356 . S
C165 C164 1.392 . S
C165 C166 1.368 . S
C165 H188 0.929 . S
C166 C165 1.368 . S
C166 C167 1.386 . S
C166 H189 0.929 . S
C167 C166 1.386 . S
C167 C168 1.373 . S
C168 C167 1.373 . S
C168 C169 1.409 . S
C168 H190 0.931 . S
C169 C164 1.356 . S
C169 C168 1.409 . S
C169 H191 0.930 . S
C170 O180 1.270 . S
C170 O181 1.248 . S
C171 O182 1.267 . S
C171 O183 1.278 . S
O172 Pr152 2.562 . S
O172 C154 1.254 . S
O173 Pr152 2.490 . S
O173 C154 1.225 . S
O174 Pr152 2.695 . S
O174 Pr153 2.436 . S
O174 C161 1.270 . S
O175 Pr152 2.512 . S
O175 C161 1.248 . S
O176 Pr153 2.438 . S
O176 C162 1.267 . S
O177 Pr152 2.437 . S
O177 C162 1.278 . S
O178 Pr153 2.562 . S
O178 C163 1.254 . S
O179 Pr153 2.490 . S
O179 C163 1.225 . S
O180 Pr152 2.436 . S
O180 Pr153 2.695 . S
O180 C170 1.270 . S
O181 Pr153 2.512 . S
O181 C170 1.248 . S
O182 Pr152 2.438 . S
O182 C171 1.267 . S
O183 Pr153 2.437 . S
O183 C171 1.278 . S
H184 C156 0.929 . S
H185 C157 0.929 . S
H186 C159 0.931 . S
H187 C160 0.930 . S
H188 C165 0.929 . S
H189 C166 0.929 . S
H190 C168 0.931 . S
H191 C169 0.930 . S
Pr192 C194 2.880 . S
Pr192 O212 2.562 . S
Pr192 O213 2.490 . S
Pr192 O214 2.695 1_656 S
Pr192 O215 2.512 1_656 S
Pr192 O217 2.437 1_556 S
Pr192 O220 2.436 . S
Pr192 O222 2.438 1_655 S
Pr193 C203 2.880 . S
Pr193 O214 2.436 . S
Pr193 O216 2.438 1_455 S
Pr193 O218 2.562 . S
Pr193 O219 2.490 . S
Pr193 O220 2.695 1_454 S
Pr193 O221 2.512 1_454 S
Pr193 O223 2.437 1_554 S
C194 Pr192 2.880 . S
C194 C195 1.491 . S
C194 O212 1.254 . S
C194 O213 1.225 . S
C195 C194 1.491 . S
C195 C196 1.392 . S
C195 C200 1.356 . S
C196 C195 1.392 . S
C196 C197 1.368 . S
C196 H224 0.929 . S
C197 C196 1.368 . S
C197 C198 1.386 . S
C197 H225 0.929 . S
C198 C197 1.386 . S
C198 C199 1.373 . S
C199 C198 1.373 . S
C199 C200 1.409 . S
C199 H226 0.931 . S
C200 C195 1.356 . S
C200 C199 1.409 . S
C200 H227 0.930 . S
C201 O214 1.270 . S
C201 O215 1.248 . S
C202 O216 1.267 . S
C202 O217 1.278 . S
C203 Pr193 2.880 . S
C203 C204 1.491 . S
C203 O218 1.254 . S
C203 O219 1.225 . S
C204 C203 1.491 . S
C204 C205 1.392 . S
C204 C209 1.356 . S
C205 C204 1.392 . S
C205 C206 1.368 . S
C205 H228 0.929 . S
C206 C205 1.368 . S
C206 C207 1.386 . S
C206 H229 0.929 . S
C207 C206 1.386 . S
C207 C208 1.373 . S
C208 C207 1.373 . S
C208 C209 1.409 . S
C208 H230 0.931 . S
C209 C204 1.356 . S
C209 C208 1.409 . S
C209 H231 0.930 . S
C210 O220 1.270 . S
C210 O221 1.248 . S
C211 O222 1.267 . S
C211 O223 1.278 . S
O212 Pr192 2.562 . S
O212 C194 1.254 . S
O213 Pr192 2.490 . S
O213 C194 1.225 . S
O214 Pr192 2.695 1_454 S
O214 Pr193 2.436 . S
O214 C201 1.270 . S
O215 Pr192 2.512 1_454 S
O215 C201 1.248 . S
O216 Pr193 2.438 1_655 S
O216 C202 1.267 . S
O217 Pr192 2.437 1_554 S
O217 C202 1.278 . S
O218 Pr193 2.562 . S
O218 C203 1.254 . S
O219 Pr193 2.490 . S
O219 C203 1.225 . S
O220 Pr192 2.436 . S
O220 Pr193 2.695 1_656 S
O220 C210 1.270 . S
O221 Pr193 2.512 1_656 S
O221 C210 1.248 . S
O222 Pr192 2.438 1_455 S
O222 C211 1.267 . S
O223 Pr193 2.437 1_556 S
O223 C211 1.278 . S
H224 C196 0.929 . S
H225 C197 0.929 . S
H226 C199 0.931 . S
H227 C200 0.930 . S
H228 C205 0.929 . S
H229 C206 0.929 . S
H230 C208 0.931 . S
H231 C209 0.930 . S
H232 C244 0.930 . S
H233 C246 0.930 . S
H234 C247 0.930 . S
H235 C251 0.959 . S
H236 C251 0.959 . S
H237 C251 0.961 . S
H238 C252 0.960 . S
H239 C252 0.961 . S
H240 C252 0.959 . S
H241 C255 0.929 . S
H242 C256 0.931 . S
H243 C258 0.930 . S
C244 H232 0.930 . S
C244 C245 1.399 . S
C244 C249 1.399 . S
C245 C244 1.399 . S
C245 C246 1.376 . S
C246 H233 0.930 . S
C246 C245 1.376 . S
C246 C247 1.388 . S
C247 H234 0.930 . S
C247 C246 1.388 . S
C247 C248 1.390 . S
C248 C247 1.390 . S
C248 C249 1.394 . S
C248 C254 1.465 . S
C249 C244 1.399 . S
C249 C248 1.394 . S
C249 C250 1.516 . S
C250 C249 1.516 . S
C250 C251 1.502 . S
C250 C252 1.561 . S
C250 C253 1.526 . S
C251 H235 0.959 . S
C251 H236 0.959 . S
C251 H237 0.961 . S
C251 C250 1.502 . S
C252 H238 0.960 . S
C252 H239 0.961 . S
C252 H240 0.959 . S
C252 C250 1.561 . S
C253 C250 1.526 . S
C253 C254 1.396 . S
C253 C258 1.390 . S
C254 C248 1.465 . S
C254 C253 1.396 . S
C254 C255 1.399 . S
C255 H241 0.929 . S
C255 C254 1.399 . S
C255 C256 1.385 . S
C256 H242 0.931 . S
C256 C255 1.385 . S
C256 C257 1.389 . S
C257 C256 1.389 . S
C257 C258 1.387 . S
C258 H243 0.930 . S
C258 C253 1.390 . S
C258 C257 1.387 . S
H259 C271 0.930 . S
H260 C273 0.930 . S
H261 C274 0.930 . S
H262 C278 0.959 . S
H263 C278 0.959 . S
H264 C278 0.961 . S
H265 C279 0.960 . S
H266 C279 0.961 . S
H267 C279 0.959 . S
H268 C282 0.929 . S
H269 C283 0.931 . S
H270 C285 0.930 . S
C271 H259 0.930 . S
C271 C272 1.399 . S
C271 C276 1.399 . S
C272 C271 1.399 . S
C272 C273 1.376 . S
C273 H260 0.930 . S
C273 C272 1.376 . S
C273 C274 1.388 . S
C274 H261 0.930 . S
C274 C273 1.388 . S
C274 C275 1.390 . S
C275 C274 1.390 . S
C275 C276 1.394 . S
C275 C281 1.465 . S
C276 C271 1.399 . S
C276 C275 1.394 . S
C276 C277 1.516 . S
C277 C276 1.516 . S
C277 C278 1.502 . S
C277 C279 1.561 . S
C277 C280 1.526 . S
C278 H262 0.959 . S
C278 H263 0.959 . S
C278 H264 0.961 . S
C278 C277 1.502 . S
C279 H265 0.960 . S
C279 H266 0.961 . S
C279 H267 0.959 . S
C279 C277 1.561 . S
C280 C277 1.526 . S
C280 C281 1.396 . S
C280 C285 1.390 . S
C281 C275 1.465 . S
C281 C280 1.396 . S
C281 C282 1.399 . S
C282 H268 0.929 . S
C282 C281 1.399 . S
C282 C283 1.385 . S
C283 H269 0.931 . S
C283 C282 1.385 . S
C283 C284 1.389 . S
C284 C283 1.389 . S
C284 C285 1.387 . S
C285 H270 0.930 . S
C285 C280 1.390 . S
C285 C284 1.387 . S
H286 C298 0.930 . S
H287 C300 0.930 . S
H288 C301 0.930 . S
H289 C305 0.959 . S
H290 C305 0.959 . S
H291 C305 0.961 . S
H292 C306 0.960 . S
H293 C306 0.961 . S
H294 C306 0.959 . S
H295 C309 0.929 . S
H296 C310 0.931 . S
H297 C312 0.930 . S
C298 H286 0.930 . S
C298 C299 1.399 . S
C298 C303 1.399 . S
C299 C298 1.399 . S
C299 C300 1.376 . S
C300 H287 0.930 . S
C300 C299 1.376 . S
C300 C301 1.388 . S
C301 H288 0.930 . S
C301 C300 1.388 . S
C301 C302 1.390 . S
C302 C301 1.390 . S
C302 C303 1.394 . S
C302 C308 1.465 . S
C303 C298 1.399 . S
C303 C302 1.394 . S
C303 C304 1.516 . S
C304 C303 1.516 . S
C304 C305 1.502 . S
C304 C306 1.561 . S
C304 C307 1.526 . S
C305 H289 0.959 . S
C305 H290 0.959 . S
C305 H291 0.961 . S
C305 C304 1.502 . S
C306 H292 0.960 . S
C306 H293 0.961 . S
C306 H294 0.959 . S
C306 C304 1.561 . S
C307 C304 1.526 . S
C307 C308 1.396 . S
C307 C312 1.390 . S
C308 C302 1.465 . S
C308 C307 1.396 . S
C308 C309 1.399 . S
C309 H295 0.929 . S
C309 C308 1.399 . S
C309 C310 1.385 . S
C310 H296 0.931 . S
C310 C309 1.385 . S
C310 C311 1.389 . S
C311 C310 1.389 . S
C311 C312 1.387 . S
C312 H297 0.930 . S
C312 C307 1.390 . S
C312 C311 1.387 . S
H313 C325 0.930 . S
H314 C327 0.930 . S
H315 C328 0.930 . S
H316 C332 0.959 . S
H317 C332 0.959 . S
H318 C332 0.961 . S
H319 C333 0.960 . S
H320 C333 0.961 . S
H321 C333 0.959 . S
H322 C336 0.929 . S
H323 C337 0.931 . S
H324 C339 0.930 . S
C325 H313 0.930 . S
C325 C326 1.399 . S
C325 C330 1.399 . S
C326 C325 1.399 . S
C326 C327 1.376 . S
C327 H314 0.930 . S
C327 C326 1.376 . S
C327 C328 1.388 . S
C328 H315 0.930 . S
C328 C327 1.388 . S
C328 C329 1.390 . S
C329 C328 1.390 . S
C329 C330 1.394 . S
C329 C335 1.465 . S
C330 C325 1.399 . S
C330 C329 1.394 . S
C330 C331 1.516 . S
C331 C330 1.516 . S
C331 C332 1.502 . S
C331 C333 1.561 . S
C331 C334 1.526 . S
C332 H316 0.959 . S
C332 H317 0.959 . S
C332 H318 0.961 . S
C332 C331 1.502 . S
C333 H319 0.960 . S
C333 H320 0.961 . S
C333 H321 0.959 . S
C333 C331 1.561 . S
C334 C331 1.526 . S
C334 C335 1.396 . S
C334 C339 1.390 . S
C335 C329 1.465 . S
C335 C334 1.396 . S
C335 C336 1.399 . S
C336 H322 0.929 . S
C336 C335 1.399 . S
C336 C337 1.385 . S
C337 H323 0.931 . S
C337 C336 1.385 . S
C337 C338 1.389 . S
C338 C337 1.389 . S
C338 C339 1.387 . S
C339 H324 0.930 . S
C339 C334 1.390 . S
C339 C338 1.387 . S
H340 C352 0.930 . S
H341 C354 0.930 . S
H342 C355 0.930 . S
H343 C359 0.959 . S
H344 C359 0.959 . S
H345 C359 0.961 . S
H346 C360 0.960 . S
H347 C360 0.961 . S
H348 C360 0.959 . S
H349 C363 0.929 . S
H350 C364 0.931 . S
H351 C366 0.930 . S
C352 H340 0.930 . S
C352 C353 1.399 . S
C352 C357 1.399 . S
C353 C352 1.399 . S
C353 C354 1.376 . S
C354 H341 0.930 . S
C354 C353 1.376 . S
C354 C355 1.388 . S
C355 H342 0.930 . S
C355 C354 1.388 . S
C355 C356 1.390 . S
C356 C355 1.390 . S
C356 C357 1.394 . S
C356 C362 1.465 . S
C357 C352 1.399 . S
C357 C356 1.394 . S
C357 C358 1.516 . S
C358 C357 1.516 . S
C358 C359 1.502 . S
C358 C360 1.561 . S
C358 C361 1.526 . S
C359 H343 0.959 . S
C359 H344 0.959 . S
C359 H345 0.961 . S
C359 C358 1.502 . S
C360 H346 0.960 . S
C360 H347 0.961 . S
C360 H348 0.959 . S
C360 C358 1.561 . S
C361 C358 1.526 . S
C361 C362 1.396 . S
C361 C366 1.390 . S
C362 C356 1.465 . S
C362 C361 1.396 . S
C362 C363 1.399 . S
C363 H349 0.929 . S
C363 C362 1.399 . S
C363 C364 1.385 . S
C364 H350 0.931 . S
C364 C363 1.385 . S
C364 C365 1.389 . S
C365 C364 1.389 . S
C365 C366 1.387 . S
C366 H351 0.930 . S
C366 C361 1.390 . S
C366 C365 1.387 . S
H367 C379 0.930 . S
H368 C381 0.930 . S
H369 C382 0.930 . S
H370 C386 0.959 . S
H371 C386 0.959 . S
H372 C386 0.961 . S
H373 C387 0.960 . S
H374 C387 0.961 . S
H375 C387 0.959 . S
H376 C390 0.929 . S
H377 C391 0.931 . S
H378 C393 0.930 . S
C379 H367 0.930 . S
C379 C380 1.399 . S
C379 C384 1.399 . S
C380 C379 1.399 . S
C380 C381 1.376 . S
C381 H368 0.930 . S
C381 C380 1.376 . S
C381 C382 1.388 . S
C382 H369 0.930 . S
C382 C381 1.388 . S
C382 C383 1.390 . S
C383 C382 1.390 . S
C383 C384 1.394 . S
C383 C389 1.465 . S
C384 C379 1.399 . S
C384 C383 1.394 . S
C384 C385 1.516 . S
C385 C384 1.516 . S
C385 C386 1.502 . S
C385 C387 1.561 . S
C385 C388 1.526 . S
C386 H370 0.959 . S
C386 H371 0.959 . S
C386 H372 0.961 . S
C386 C385 1.502 . S
C387 H373 0.960 . S
C387 H374 0.961 . S
C387 H375 0.959 . S
C387 C385 1.561 . S
C388 C385 1.526 . S
C388 C389 1.396 . S
C388 C393 1.390 . S
C389 C383 1.465 . S
C389 C388 1.396 . S
C389 C390 1.399 . S
C390 H376 0.929 . S
C390 C389 1.399 . S
C390 C391 1.385 . S
C391 H377 0.931 . S
C391 C390 1.385 . S
C391 C392 1.389 . S
C392 C391 1.389 . S
C392 C393 1.387 . S
C393 H378 0.930 . S
C393 C388 1.390 . S
C393 C392 1.387 . S
H394 C406 0.930 . S
H395 C408 0.930 . S
H396 C409 0.930 . S
H397 C413 0.959 . S
H398 C413 0.959 . S
H399 C413 0.961 . S
H400 C414 0.960 . S
H401 C414 0.961 . S
H402 C414 0.959 . S
H403 C417 0.929 . S
H404 C418 0.931 . S
H405 C420 0.930 . S
C406 H394 0.930 . S
C406 C407 1.399 . S
C406 C411 1.399 . S
C407 C406 1.399 . S
C407 C408 1.376 . S
C408 H395 0.930 . S
C408 C407 1.376 . S
C408 C409 1.388 . S
C409 H396 0.930 . S
C409 C408 1.388 . S
C409 C410 1.390 . S
C410 C409 1.390 . S
C410 C411 1.394 . S
C410 C416 1.465 . S
C411 C406 1.399 . S
C411 C410 1.394 . S
C411 C412 1.516 . S
C412 C411 1.516 . S
C412 C413 1.502 . S
C412 C414 1.561 . S
C412 C415 1.526 . S
C413 H397 0.959 . S
C413 H398 0.959 . S
C413 H399 0.961 . S
C413 C412 1.502 . S
C414 H400 0.960 . S
C414 H401 0.961 . S
C414 H402 0.959 . S
C414 C412 1.561 . S
C415 C412 1.526 . S
C415 C416 1.396 . S
C415 C420 1.390 . S
C416 C410 1.465 . S
C416 C415 1.396 . S
C416 C417 1.399 . S
C417 H403 0.929 . S
C417 C416 1.399 . S
C417 C418 1.385 . S
C418 H404 0.931 . S
C418 C417 1.385 . S
C418 C419 1.389 . S
C419 C418 1.389 . S
C419 C420 1.387 . S
C420 H405 0.930 . S
C420 C415 1.390 . S
C420 C419 1.387 . S
H421 C433 0.930 . S
H422 C435 0.930 . S
H423 C436 0.930 . S
H424 C440 0.959 . S
H425 C440 0.959 . S
H426 C440 0.961 . S
H427 C441 0.960 . S
H428 C441 0.961 . S
H429 C441 0.959 . S
H430 C444 0.929 . S
H431 C445 0.931 . S
H432 C447 0.930 . S
C433 H421 0.930 . S
C433 C434 1.399 . S
C433 C438 1.399 . S
C434 C433 1.399 . S
C434 C435 1.376 . S
C435 H422 0.930 . S
C435 C434 1.376 . S
C435 C436 1.388 . S
C436 H423 0.930 . S
C436 C435 1.388 . S
C436 C437 1.390 . S
C437 C436 1.390 . S
C437 C438 1.394 . S
C437 C443 1.465 . S
C438 C433 1.399 . S
C438 C437 1.394 . S
C438 C439 1.516 . S
C439 C438 1.516 . S
C439 C440 1.502 . S
C439 C441 1.561 . S
C439 C442 1.526 . S
C440 H424 0.959 . S
C440 H425 0.959 . S
C440 H426 0.961 . S
C440 C439 1.502 . S
C441 H427 0.960 . S
C441 H428 0.961 . S
C441 H429 0.959 . S
C441 C439 1.561 . S
C442 C439 1.526 . S
C442 C443 1.396 . S
C442 C447 1.390 . S
C443 C437 1.465 . S
C443 C442 1.396 . S
C443 C444 1.399 . S
C444 H430 0.929 . S
C444 C443 1.399 . S
C444 C445 1.385 . S
C445 H431 0.931 . S
C445 C444 1.385 . S
C445 C446 1.389 . S
C446 C445 1.389 . S
C446 C447 1.387 . S
C447 H432 0.930 . S
C447 C442 1.390 . S
C447 C446 1.387 . S
H448 C460 0.930 . S
H449 C462 0.930 . S
H450 C463 0.930 . S
H451 C467 0.959 . S
H452 C467 0.959 . S
H453 C467 0.961 . S
H454 C468 0.960 . S
H455 C468 0.961 . S
H456 C468 0.959 . S
H457 C471 0.929 . S
H458 C472 0.931 . S
H459 C474 0.930 . S
C460 H448 0.930 . S
C460 C461 1.399 . S
C460 C465 1.399 . S
C461 C460 1.399 . S
C461 C462 1.376 . S
C462 H449 0.930 . S
C462 C461 1.376 . S
C462 C463 1.388 . S
C463 H450 0.930 . S
C463 C462 1.388 . S
C463 C464 1.390 . S
C464 C463 1.390 . S
C464 C465 1.394 . S
C464 C470 1.465 . S
C465 C460 1.399 . S
C465 C464 1.394 . S
C465 C466 1.516 . S
C466 C465 1.516 . S
C466 C467 1.502 . S
C466 C468 1.561 . S
C466 C469 1.526 . S
C467 H451 0.959 . S
C467 H452 0.959 . S
C467 H453 0.961 . S
C467 C466 1.502 . S
C468 H454 0.960 . S
C468 H455 0.961 . S
C468 H456 0.959 . S
C468 C466 1.561 . S
C469 C466 1.526 . S
C469 C470 1.396 . S
C469 C474 1.390 . S
C470 C464 1.465 . S
C470 C469 1.396 . S
C470 C471 1.399 . S
C471 H457 0.929 . S
C471 C470 1.399 . S
C471 C472 1.385 . S
C472 H458 0.931 . S
C472 C471 1.385 . S
C472 C473 1.389 . S
C473 C472 1.389 . S
C473 C474 1.387 . S
C474 H459 0.930 . S
C474 C469 1.390 . S
C474 C473 1.387 . S
H475 C487 0.930 . S
H476 C489 0.930 . S
H477 C490 0.930 . S
H478 C494 0.959 . S
H479 C494 0.959 . S
H480 C494 0.961 . S
H481 C495 0.960 . S
H482 C495 0.961 . S
H483 C495 0.959 . S
H484 C498 0.929 . S
H485 C499 0.931 . S
H486 C501 0.930 . S
C487 H475 0.930 . S
C487 C488 1.399 . S
C487 C492 1.399 . S
C488 C487 1.399 . S
C488 C489 1.376 . S
C489 H476 0.930 . S
C489 C488 1.376 . S
C489 C490 1.388 . S
C490 H477 0.930 . S
C490 C489 1.388 . S
C490 C491 1.390 . S
C491 C490 1.390 . S
C491 C492 1.394 . S
C491 C497 1.465 . S
C492 C487 1.399 . S
C492 C491 1.394 . S
C492 C493 1.516 . S
C493 C492 1.516 . S
C493 C494 1.502 . S
C493 C495 1.561 . S
C493 C496 1.526 . S
C494 H478 0.959 . S
C494 H479 0.959 . S
C494 H480 0.961 . S
C494 C493 1.502 . S
C495 H481 0.960 . S
C495 H482 0.961 . S
C495 H483 0.959 . S
C495 C493 1.561 . S
C496 C493 1.526 . S
C496 C497 1.396 . S
C496 C501 1.390 . S
C497 C491 1.465 . S
C497 C496 1.396 . S
C497 C498 1.399 . S
C498 H484 0.929 . S
C498 C497 1.399 . S
C498 C499 1.385 . S
C499 H485 0.931 . S
C499 C498 1.385 . S
C499 C500 1.389 . S
C500 C499 1.389 . S
C500 C501 1.387 . S
C501 H486 0.930 . S
C501 C496 1.390 . S
C501 C500 1.387 . S
H502 C514 0.930 . S
H503 C516 0.930 . S
H504 C517 0.930 . S
H505 C521 0.959 . S
H506 C521 0.959 . S
H507 C521 0.961 . S
H508 C522 0.960 . S
H509 C522 0.961 . S
H510 C522 0.959 . S
H511 C525 0.929 . S
H512 C526 0.931 . S
H513 C528 0.930 . S
C514 H502 0.930 . S
C514 C515 1.399 . S
C514 C519 1.399 . S
C515 C514 1.399 . S
C515 C516 1.376 . S
C516 H503 0.930 . S
C516 C515 1.376 . S
C516 C517 1.388 . S
C517 H504 0.930 . S
C517 C516 1.388 . S
C517 C518 1.390 . S
C518 C517 1.390 . S
C518 C519 1.394 . S
C518 C524 1.465 . S
C519 C514 1.399 . S
C519 C518 1.394 . S
C519 C520 1.516 . S
C520 C519 1.516 . S
C520 C521 1.502 . S
C520 C522 1.561 . S
C520 C523 1.526 . S
C521 H505 0.959 . S
C521 H506 0.959 . S
C521 H507 0.961 . S
C521 C520 1.502 . S
C522 H508 0.960 . S
C522 H509 0.961 . S
C522 H510 0.959 . S
C522 C520 1.561 . S
C523 C520 1.526 . S
C523 C524 1.396 . S
C523 C528 1.390 . S
C524 C518 1.465 . S
C524 C523 1.396 . S
C524 C525 1.399 . S
C525 H511 0.929 . S
C525 C524 1.399 . S
C525 C526 1.385 . S
C526 H512 0.931 . S
C526 C525 1.385 . S
C526 C527 1.389 . S
C527 C526 1.389 . S
C527 C528 1.387 . S
C528 H513 0.930 . S
C528 C523 1.390 . S
C528 C527 1.387 . S
H529 C541 0.930 . S
H530 C543 0.930 . S
H531 C544 0.930 . S
H532 C548 0.959 . S
H533 C548 0.959 . S
H534 C548 0.961 . S
H535 C549 0.960 . S
H536 C549 0.961 . S
H537 C549 0.959 . S
H538 C552 0.929 . S
H539 C553 0.931 . S
H540 C555 0.930 . S
C541 H529 0.930 . S
C541 C542 1.399 . S
C541 C546 1.399 . S
C542 C541 1.399 . S
C542 C543 1.376 . S
C543 H530 0.930 . S
C543 C542 1.376 . S
C543 C544 1.388 . S
C544 H531 0.930 . S
C544 C543 1.388 . S
C544 C545 1.390 . S
C545 C544 1.390 . S
C545 C546 1.394 . S
C545 C551 1.465 . S
C546 C541 1.399 . S
C546 C545 1.394 . S
C546 C547 1.516 . S
C547 C546 1.516 . S
C547 C548 1.502 . S
C547 C549 1.561 . S
C547 C550 1.526 . S
C548 H532 0.959 . S
C548 H533 0.959 . S
C548 H534 0.961 . S
C548 C547 1.502 . S
C549 H535 0.960 . S
C549 H536 0.961 . S
C549 H537 0.959 . S
C549 C547 1.561 . S
C550 C547 1.526 . S
C550 C551 1.396 . S
C550 C555 1.390 . S
C551 C545 1.465 . S
C551 C550 1.396 . S
C551 C552 1.399 . S
C552 H538 0.929 . S
C552 C551 1.399 . S
C552 C553 1.385 . S
C553 H539 0.931 . S
C553 C552 1.385 . S
C553 C554 1.389 . S
C554 C553 1.389 . S
C554 C555 1.387 . S
C555 H540 0.930 . S
C555 C550 1.390 . S
C555 C554 1.387 . S
H556 C568 0.930 . S
H557 C570 0.930 . S
H558 C571 0.930 . S
H559 C575 0.959 . S
H560 C575 0.959 . S
H561 C575 0.961 . S
H562 C576 0.960 . S
H563 C576 0.961 . S
H564 C576 0.959 . S
H565 C579 0.929 . S
H566 C580 0.931 . S
H567 C582 0.930 . S
C568 H556 0.930 . S
C568 C569 1.399 . S
C568 C573 1.399 . S
C569 C568 1.399 . S
C569 C570 1.376 . S
C570 H557 0.930 . S
C570 C569 1.376 . S
C570 C571 1.388 . S
C571 H558 0.930 . S
C571 C570 1.388 . S
C571 C572 1.390 . S
C572 C571 1.390 . S
C572 C573 1.394 . S
C572 C578 1.465 . S
C573 C568 1.399 . S
C573 C572 1.394 . S
C573 C574 1.516 . S
C574 C573 1.516 . S
C574 C575 1.502 . S
C574 C576 1.561 . S
C574 C577 1.526 . S
C575 H559 0.959 . S
C575 H560 0.959 . S
C575 H561 0.961 . S
C575 C574 1.502 . S
C576 H562 0.960 . S
C576 H563 0.961 . S
C576 H564 0.959 . S
C576 C574 1.561 . S
C577 C574 1.526 . S
C577 C578 1.396 . S
C577 C582 1.390 . S
C578 C572 1.465 . S
C578 C577 1.396 . S
C578 C579 1.399 . S
C579 H565 0.929 . S
C579 C578 1.399 . S
C579 C580 1.385 . S
C580 H566 0.931 . S
C580 C579 1.385 . S
C580 C581 1.389 . S
C581 C580 1.389 . S
C581 C582 1.387 . S
C582 H567 0.930 . S
C582 C577 1.390 . S
C582 C581 1.387 . S
H583 C595 0.930 . S
H584 C597 0.930 . S
H585 C598 0.930 . S
H586 C602 0.959 . S
H587 C602 0.959 . S
H588 C602 0.961 . S
H589 C603 0.960 . S
H590 C603 0.961 . S
H591 C603 0.959 . S
H592 C606 0.929 . S
H593 C607 0.931 . S
H594 C609 0.930 . S
C595 H583 0.930 . S
C595 C596 1.399 . S
C595 C600 1.399 . S
C596 C595 1.399 . S
C596 C597 1.376 . S
C597 H584 0.930 . S
C597 C596 1.376 . S
C597 C598 1.388 . S
C598 H585 0.930 . S
C598 C597 1.388 . S
C598 C599 1.390 . S
C599 C598 1.390 . S
C599 C600 1.394 . S
C599 C605 1.465 . S
C600 C595 1.399 . S
C600 C599 1.394 . S
C600 C601 1.516 . S
C601 C600 1.516 . S
C601 C602 1.502 . S
C601 C603 1.561 . S
C601 C604 1.526 . S
C602 H586 0.959 . S
C602 H587 0.959 . S
C602 H588 0.961 . S
C602 C601 1.502 . S
C603 H589 0.960 . S
C603 H590 0.961 . S
C603 H591 0.959 . S
C603 C601 1.561 . S
C604 C601 1.526 . S
C604 C605 1.396 . S
C604 C609 1.390 . S
C605 C599 1.465 . S
C605 C604 1.396 . S
C605 C606 1.399 . S
C606 H592 0.929 . S
C606 C605 1.399 . S
C606 C607 1.385 . S
C607 H593 0.931 . S
C607 C606 1.385 . S
C607 C608 1.389 . S
C608 C607 1.389 . S
C608 C609 1.387 . S
C609 H594 0.930 . S
C609 C604 1.390 . S
C609 C608 1.387 . S
H610 C622 0.930 . S
H611 C624 0.930 . S
H612 C625 0.930 . S
H613 C629 0.959 . S
H614 C629 0.959 . S
H615 C629 0.961 . S
H616 C630 0.960 . S
H617 C630 0.961 . S
H618 C630 0.959 . S
H619 C633 0.929 . S
H620 C634 0.931 . S
H621 C636 0.930 . S
C622 H610 0.930 . S
C622 C623 1.399 . S
C622 C627 1.399 . S
C623 C622 1.399 . S
C623 C624 1.376 . S
C624 H611 0.930 . S
C624 C623 1.376 . S
C624 C625 1.388 . S
C625 H612 0.930 . S
C625 C624 1.388 . S
C625 C626 1.390 . S
C626 C625 1.390 . S
C626 C627 1.394 . S
C626 C632 1.465 . S
C627 C622 1.399 . S
C627 C626 1.394 . S
C627 C628 1.516 . S
C628 C627 1.516 . S
C628 C629 1.502 . S
C628 C630 1.561 . S
C628 C631 1.526 . S
C629 H613 0.959 . S
C629 H614 0.959 . S
C629 H615 0.961 . S
C629 C628 1.502 . S
C630 H616 0.960 . S
C630 H617 0.961 . S
C630 H618 0.959 . S
C630 C628 1.561 . S
C631 C628 1.526 . S
C631 C632 1.396 . S
C631 C636 1.390 . S
C632 C626 1.465 . S
C632 C631 1.396 . S
C632 C633 1.399 . S
C633 H619 0.929 . S
C633 C632 1.399 . S
C633 C634 1.385 . S
C634 H620 0.931 . S
C634 C633 1.385 . S
C634 C635 1.389 . S
C635 C634 1.389 . S
C635 C636 1.387 . S
C636 H621 0.930 . S
C636 C631 1.390 . S
C636 C635 1.387 . S
H637 C649 0.930 . S
H638 C651 0.930 . S
H639 C652 0.930 . S
H640 C656 0.959 . S
H641 C656 0.959 . S
H642 C656 0.961 . S
H643 C657 0.960 . S
H644 C657 0.961 . S
H645 C657 0.959 . S
H646 C660 0.929 . S
H647 C661 0.931 . S
H648 C663 0.930 . S
C649 H637 0.930 . S
C649 C650 1.399 . S
C649 C654 1.399 . S
C650 C649 1.399 . S
C650 C651 1.376 . S
C651 H638 0.930 . S
C651 C650 1.376 . S
C651 C652 1.388 . S
C652 H639 0.930 . S
C652 C651 1.388 . S
C652 C653 1.390 . S
C653 C652 1.390 . S
C653 C654 1.394 . S
C653 C659 1.465 . S
C654 C649 1.399 . S
C654 C653 1.394 . S
C654 C655 1.516 . S
C655 C654 1.516 . S
C655 C656 1.502 . S
C655 C657 1.561 . S
C655 C658 1.526 . S
C656 H640 0.959 . S
C656 H641 0.959 . S
C656 H642 0.961 . S
C656 C655 1.502 . S
C657 H643 0.960 . S
C657 H644 0.961 . S
C657 H645 0.959 . S
C657 C655 1.561 . S
C658 C655 1.526 . S
C658 C659 1.396 . S
C658 C663 1.390 . S
C659 C653 1.465 . S
C659 C658 1.396 . S
C659 C660 1.399 . S
C660 H646 0.929 . S
C660 C659 1.399 . S
C660 C661 1.385 . S
C661 H647 0.931 . S
C661 C660 1.385 . S
C661 C662 1.389 . S
C662 C661 1.389 . S
C662 C663 1.387 . S
C663 H648 0.930 . S
C663 C658 1.390 . S
C663 C662 1.387 . S
H664 C676 0.930 . S
H665 C678 0.930 . S
H666 C679 0.930 . S
H667 C683 0.959 . S
H668 C683 0.959 . S
H669 C683 0.961 . S
H670 C684 0.960 . S
H671 C684 0.961 . S
H672 C684 0.959 . S
H673 C687 0.929 . S
H674 C688 0.931 . S
H675 C690 0.930 . S
C676 H664 0.930 . S
C676 C677 1.399 . S
C676 C681 1.399 . S
C677 C676 1.399 . S
C677 C678 1.376 . S
C678 H665 0.930 . S
C678 C677 1.376 . S
C678 C679 1.388 . S
C679 H666 0.930 . S
C679 C678 1.388 . S
C679 C680 1.390 . S
C680 C679 1.390 . S
C680 C681 1.394 . S
C680 C686 1.465 . S
C681 C676 1.399 . S
C681 C680 1.394 . S
C681 C682 1.516 . S
C682 C681 1.516 . S
C682 C683 1.502 . S
C682 C684 1.561 . S
C682 C685 1.526 . S
C683 H667 0.959 . S
C683 H668 0.959 . S
C683 H669 0.961 . S
C683 C682 1.502 . S
C684 H670 0.960 . S
C684 H671 0.961 . S
C684 H672 0.959 . S
C684 C682 1.561 . S
C685 C682 1.526 . S
C685 C686 1.396 . S
C685 C690 1.390 . S
C686 C680 1.465 . S
C686 C685 1.396 . S
C686 C687 1.399 . S
C687 H673 0.929 . S
C687 C686 1.399 . S
C687 C688 1.385 . S
C688 H674 0.931 . S
C688 C687 1.385 . S
C688 C689 1.389 . S
C689 C688 1.389 . S
C689 C690 1.387 . S
C690 H675 0.930 . S
C690 C685 1.390 . S
C690 C689 1.387 . S
H691 C703 0.930 . S
H692 C705 0.930 . S
H693 C706 0.930 . S
H694 C710 0.959 . S
H695 C710 0.959 . S
H696 C710 0.961 . S
H697 C711 0.960 . S
H698 C711 0.961 . S
H699 C711 0.959 . S
H700 C714 0.929 . S
H701 C715 0.931 . S
H702 C717 0.930 . S
C703 H691 0.930 . S
C703 C704 1.399 . S
C703 C708 1.399 . S
C704 C703 1.399 . S
C704 C705 1.376 . S
C705 H692 0.930 . S
C705 C704 1.376 . S
C705 C706 1.388 . S
C706 H693 0.930 . S
C706 C705 1.388 . S
C706 C707 1.390 . S
C707 C706 1.390 . S
C707 C708 1.394 . S
C707 C713 1.465 . S
C708 C703 1.399 . S
C708 C707 1.394 . S
C708 C709 1.516 . S
C709 C708 1.516 . S
C709 C710 1.502 . S
C709 C711 1.561 . S
C709 C712 1.526 . S
C710 H694 0.959 . S
C710 H695 0.959 . S
C710 H696 0.961 . S
C710 C709 1.502 . S
C711 H697 0.960 . S
C711 H698 0.961 . S
C711 H699 0.959 . S
C711 C709 1.561 . S
C712 C709 1.526 . S
C712 C713 1.396 . S
C712 C717 1.390 . S
C713 C707 1.465 . S
C713 C712 1.396 . S
C713 C714 1.399 . S
C714 H700 0.929 . S
C714 C713 1.399 . S
C714 C715 1.385 . S
C715 H701 0.931 . S
C715 C714 1.385 . S
C715 C716 1.389 . S
C716 C715 1.389 . S
C716 C717 1.387 . S
C717 H702 0.930 . S
C717 C712 1.390 . S
C717 C716 1.387 . S
H718 C730 0.930 . S
H719 C732 0.930 . S
H720 C733 0.930 . S
H721 C737 0.959 . S
H722 C737 0.959 . S
H723 C737 0.961 . S
H724 C738 0.960 . S
H725 C738 0.961 . S
H726 C738 0.959 . S
H727 C741 0.929 . S
H728 C742 0.931 . S
H729 C744 0.930 . S
C730 H718 0.930 . S
C730 C731 1.399 . S
C730 C735 1.399 . S
C731 C730 1.399 . S
C731 C732 1.376 . S
C732 H719 0.930 . S
C732 C731 1.376 . S
C732 C733 1.388 . S
C733 H720 0.930 . S
C733 C732 1.388 . S
C733 C734 1.390 . S
C734 C733 1.390 . S
C734 C735 1.394 . S
C734 C740 1.465 . S
C735 C730 1.399 . S
C735 C734 1.394 . S
C735 C736 1.516 . S
C736 C735 1.516 . S
C736 C737 1.502 . S
C736 C738 1.561 . S
C736 C739 1.526 . S
C737 H721 0.959 . S
C737 H722 0.959 . S
C737 H723 0.961 . S
C737 C736 1.502 . S
C738 H724 0.960 . S
C738 H725 0.961 . S
C738 H726 0.959 . S
C738 C736 1.561 . S
C739 C736 1.526 . S
C739 C740 1.396 . S
C739 C744 1.390 . S
C740 C734 1.465 . S
C740 C739 1.396 . S
C740 C741 1.399 . S
C741 H727 0.929 . S
C741 C740 1.399 . S
C741 C742 1.385 . S
C742 H728 0.931 . S
C742 C741 1.385 . S
C742 C743 1.389 . S
C743 C742 1.389 . S
C743 C744 1.387 . S
C744 H729 0.930 . S
C744 C739 1.390 . S
C744 C743 1.387 . S
H745 C757 0.930 . S
H746 C759 0.930 . S
H747 C760 0.930 . S
H748 C764 0.959 . S
H749 C764 0.959 . S
H750 C764 0.961 . S
H751 C765 0.960 . S
H752 C765 0.961 . S
H753 C765 0.959 . S
H754 C768 0.929 . S
H755 C769 0.931 . S
H756 C771 0.930 . S
C757 H745 0.930 . S
C757 C758 1.399 . S
C757 C762 1.399 . S
C758 C757 1.399 . S
C758 C759 1.376 . S
C759 H746 0.930 . S
C759 C758 1.376 . S
C759 C760 1.388 . S
C760 H747 0.930 . S
C760 C759 1.388 . S
C760 C761 1.390 . S
C761 C760 1.390 . S
C761 C762 1.394 . S
C761 C767 1.465 . S
C762 C757 1.399 . S
C762 C761 1.394 . S
C762 C763 1.516 . S
C763 C762 1.516 . S
C763 C764 1.502 . S
C763 C765 1.561 . S
C763 C766 1.526 . S
C764 H748 0.959 . S
C764 H749 0.959 . S
C764 H750 0.961 . S
C764 C763 1.502 . S
C765 H751 0.960 . S
C765 H752 0.961 . S
C765 H753 0.959 . S
C765 C763 1.561 . S
C766 C763 1.526 . S
C766 C767 1.396 . S
C766 C771 1.390 . S
C767 C761 1.465 . S
C767 C766 1.396 . S
C767 C768 1.399 . S
C768 H754 0.929 . S
C768 C767 1.399 . S
C768 C769 1.385 . S
C769 H755 0.931 . S
C769 C768 1.385 . S
C769 C770 1.389 . S
C770 C769 1.389 . S
C770 C771 1.387 . S
C771 H756 0.930 . S
C771 C766 1.390 . S
C771 C770 1.387 . S
H772 C784 0.930 . S
H773 C786 0.930 . S
H774 C787 0.930 . S
H775 C791 0.959 . S
H776 C791 0.959 . S
H777 C791 0.961 . S
H778 C792 0.960 . S
H779 C792 0.961 . S
H780 C792 0.959 . S
H781 C795 0.929 . S
H782 C796 0.931 . S
H783 C798 0.930 . S
C784 H772 0.930 . S
C784 C785 1.399 . S
C784 C789 1.399 . S
C785 C784 1.399 . S
C785 C786 1.376 . S
C786 H773 0.930 . S
C786 C785 1.376 . S
C786 C787 1.388 . S
C787 H774 0.930 . S
C787 C786 1.388 . S
C787 C788 1.390 . S
C788 C787 1.390 . S
C788 C789 1.394 . S
C788 C794 1.465 . S
C789 C784 1.399 . S
C789 C788 1.394 . S
C789 C790 1.516 . S
C790 C789 1.516 . S
C790 C791 1.502 . S
C790 C792 1.561 . S
C790 C793 1.526 . S
C791 H775 0.959 . S
C791 H776 0.959 . S
C791 H777 0.961 . S
C791 C790 1.502 . S
C792 H778 0.960 . S
C792 H779 0.961 . S
C792 H780 0.959 . S
C792 C790 1.561 . S
C793 C790 1.526 . S
C793 C794 1.396 . S
C793 C798 1.390 . S
C794 C788 1.465 . S
C794 C793 1.396 . S
C794 C795 1.399 . S
C795 H781 0.929 . S
C795 C794 1.399 . S
C795 C796 1.385 . S
C796 H782 0.931 . S
C796 C795 1.385 . S
C796 C797 1.389 . S
C797 C796 1.389 . S
C797 C798 1.387 . S
C798 H783 0.930 . S
C798 C793 1.390 . S
C798 C797 1.387 . S
H799 C811 0.930 . S
H800 C813 0.930 . S
H801 C814 0.930 . S
H802 C818 0.959 . S
H803 C818 0.959 . S
H804 C818 0.961 . S
H805 C819 0.960 . S
H806 C819 0.961 . S
H807 C819 0.959 . S
H808 C822 0.929 . S
H809 C823 0.931 . S
H810 C825 0.930 . S
C811 H799 0.930 . S
C811 C812 1.399 . S
C811 C816 1.399 . S
C812 C811 1.399 . S
C812 C813 1.376 . S
C813 H800 0.930 . S
C813 C812 1.376 . S
C813 C814 1.388 . S
C814 H801 0.930 . S
C814 C813 1.388 . S
C814 C815 1.390 . S
C815 C814 1.390 . S
C815 C816 1.394 . S
C815 C821 1.465 . S
C816 C811 1.399 . S
C816 C815 1.394 . S
C816 C817 1.516 . S
C817 C816 1.516 . S
C817 C818 1.502 . S
C817 C819 1.561 . S
C817 C820 1.526 . S
C818 H802 0.959 . S
C818 H803 0.959 . S
C818 H804 0.961 . S
C818 C817 1.502 . S
C819 H805 0.960 . S
C819 H806 0.961 . S
C819 H807 0.959 . S
C819 C817 1.561 . S
C820 C817 1.526 . S
C820 C821 1.396 . S
C820 C825 1.390 . S
C821 C815 1.465 . S
C821 C820 1.396 . S
C821 C822 1.399 . S
C822 H808 0.929 . S
C822 C821 1.399 . S
C822 C823 1.385 . S
C823 H809 0.931 . S
C823 C822 1.385 . S
C823 C824 1.389 . S
C824 C823 1.389 . S
C824 C825 1.387 . S
C825 H810 0.930 . S
C825 C820 1.390 . S
C825 C824 1.387 . S
H826 C838 0.930 . S
H827 C840 0.930 . S
H828 C841 0.930 . S
H829 C845 0.959 . S
H830 C845 0.959 . S
H831 C845 0.961 . S
H832 C846 0.960 . S
H833 C846 0.961 . S
H834 C846 0.959 . S
H835 C849 0.929 . S
H836 C850 0.931 . S
H837 C852 0.930 . S
C838 H826 0.930 . S
C838 C839 1.399 . S
C838 C843 1.399 . S
C839 C838 1.399 . S
C839 C840 1.376 . S
C840 H827 0.930 . S
C840 C839 1.376 . S
C840 C841 1.388 . S
C841 H828 0.930 . S
C841 C840 1.388 . S
C841 C842 1.390 . S
C842 C841 1.390 . S
C842 C843 1.394 . S
C842 C848 1.465 . S
C843 C838 1.399 . S
C843 C842 1.394 . S
C843 C844 1.516 . S
C844 C843 1.516 . S
C844 C845 1.502 . S
C844 C846 1.561 . S
C844 C847 1.526 . S
C845 H829 0.959 . S
C845 H830 0.959 . S
C845 H831 0.961 . S
C845 C844 1.502 . S
C846 H832 0.960 . S
C846 H833 0.961 . S
C846 H834 0.959 . S
C846 C844 1.561 . S
C847 C844 1.526 . S
C847 C848 1.396 . S
C847 C852 1.390 . S
C848 C842 1.465 . S
C848 C847 1.396 . S
C848 C849 1.399 . S
C849 H835 0.929 . S
C849 C848 1.399 . S
C849 C850 1.385 . S
C850 H836 0.931 . S
C850 C849 1.385 . S
C850 C851 1.389 . S
C851 C850 1.389 . S
C851 C852 1.387 . S
C852 H837 0.930 . S
C852 C847 1.390 . S
C852 C851 1.387 . S
H853 C865 0.930 . S
H854 C867 0.930 . S
H855 C868 0.930 . S
H856 C872 0.959 . S
H857 C872 0.959 . S
H858 C872 0.961 . S
H859 C873 0.960 . S
H860 C873 0.961 . S
H861 C873 0.959 . S
H862 C876 0.929 . S
H863 C877 0.931 . S
H864 C879 0.930 . S
C865 H853 0.930 . S
C865 C866 1.399 . S
C865 C870 1.399 . S
C866 C865 1.399 . S
C866 C867 1.376 . S
C867 H854 0.930 . S
C867 C866 1.376 . S
C867 C868 1.388 . S
C868 H855 0.930 . S
C868 C867 1.388 . S
C868 C869 1.390 . S
C869 C868 1.390 . S
C869 C870 1.394 . S
C869 C875 1.465 . S
C870 C865 1.399 . S
C870 C869 1.394 . S
C870 C871 1.516 . S
C871 C870 1.516 . S
C871 C872 1.502 . S
C871 C873 1.561 . S
C871 C874 1.526 . S
C872 H856 0.959 . S
C872 H857 0.959 . S
C872 H858 0.961 . S
C872 C871 1.502 . S
C873 H859 0.960 . S
C873 H860 0.961 . S
C873 H861 0.959 . S
C873 C871 1.561 . S
C874 C871 1.526 . S
C874 C875 1.396 . S
C874 C879 1.390 . S
C875 C869 1.465 . S
C875 C874 1.396 . S
C875 C876 1.399 . S
C876 H862 0.929 . S
C876 C875 1.399 . S
C876 C877 1.385 . S
C877 H863 0.931 . S
C877 C876 1.385 . S
C877 C878 1.389 . S
C878 C877 1.389 . S
C878 C879 1.387 . S
C879 H864 0.930 . S
C879 C874 1.390 . S
C879 C878 1.387 . S
C245 C5 0.993 . S
C257 C87 0.895 . S
C272 C14 1.400 . S
C284 C131 1.348 . S
C311 C161 2.151 . S
C299 C25 2.157 . S
C326 C34 2.756 . S
C338 C202 2.717 . S
C365 C118 0.729 . S
C353 C7 0.744 . S
C392 C82 2.271 . S
C380 C13 2.252 . S
C419 C210 1.106 . S
C407 C23 1.099 . S
C446 C171 2.187 . S
C434 C31 2.224 . S
C461 C4 1.058 . S
C473 C207 0.939 . S
C500 C121 1.998 . S
C488 C22 2.026 . S
C515 C32 2.010 . S
C527 C90 1.933 . S
C542 C16 1.842 . S
C554 C158 1.816 . S
C581 C78 0.909 . S
C569 C41 0.938 . S
C596 C50 1.391 . S
C608 C122 1.384 . S
C623 C61 2.147 . S
C635 C170 2.166 . S
C650 C67 2.766 . S
C662 C211 2.720 . S
C677 C40 0.702 . S
C689 C127 0.747 . S
C716 C91 2.252 . S
C704 C52 2.212 . S
C743 C201 1.113 . S
C731 C59 1.119 . S
C770 C162 2.203 . S
C758 C70 2.242 . S
C785 C43 0.916 . S
C797 C198 1.044 . S
C824 C130 1.986 . S
C812 C58 2.046 . S
C851 C81 1.934 . S
C839 C68 1.987 . S
C866 C49 1.839 . S
C878 C167 1.862 . S
