# Generated by pormake.
# Topology pth, (4,4)-cn, num edge types: 1
# Building blocks:
#     Node 0, Type 0, BuildingBlock: KUFVIS_clean_sbu_0, # of connection points: 4
#     Node 1, Type 0, BuildingBlock: KUFVIS_clean_sbu_0, # of connection points: 4
#     Node 2, Type 0, BuildingBlock: KUFVIS_clean_sbu_0, # of connection points: 4
#     Node 3, Type 1, BuildingBlock: AZAVOO_clean_linker_0, # of connection points: 4
#     Node 4, Type 1, BuildingBlock: AZAVOO_clean_linker_0, # of connection points: 4
#     Node 5, Type 1, BuildingBlock: AZAVOO_clean_linker_0, # of connection points: 4
#     Edge 6, Type (0, 1), BuildingBlock: FUNLAD_clean_linker_0, # of connection points: 2
#     Edge 7, Type (0, 1), BuildingBlock: FUNLAD_clean_linker_0, # of connection points: 2
#     Edge 8, Type (0, 1), BuildingBlock: FUNLAD_clean_linker_0, # of connection points: 2
#     Edge 9, Type (0, 1), BuildingBlock: FUNLAD_clean_linker_0, # of connection points: 2
#     Edge 10, Type (0, 1), BuildingBlock: FUNLAD_clean_linker_0, # of connection points: 2
#     Edge 11, Type (0, 1), BuildingBlock: FUNLAD_clean_linker_0, # of connection points: 2
#     Edge 12, Type (0, 1), BuildingBlock: FUNLAD_clean_linker_0, # of connection points: 2
#     Edge 13, Type (0, 1), BuildingBlock: FUNLAD_clean_linker_0, # of connection points: 2
#     Edge 14, Type (0, 1), BuildingBlock: FUNLAD_clean_linker_0, # of connection points: 2
#     Edge 15, Type (0, 1), BuildingBlock: FUNLAD_clean_linker_0, # of connection points: 2
#     Edge 16, Type (0, 1), BuildingBlock: FUNLAD_clean_linker_0, # of connection points: 2
#     Edge 17, Type (0, 1), BuildingBlock: FUNLAD_clean_linker_0, # of connection points: 2
# Relax obj value: 0.107
# Max RMSD: 0.224
# Mean RMSD: 0.161
data_MOF--net-pth--node1-KUFVIS_clean_sbu_0--node2-AZAVOO_clean_linker_0--edge1-FUNLAD_clean_linker_0
_symmetry_space_group_name_H-M    P1
_symmetry_Int_Tables_number       1
_symmetry_cell_setting            triclinic
loop_
_symmetry_equiv_pos_as_xyz
'x, y, z'
_cell_length_a     29.56908
_cell_length_b     29.848483
_cell_length_c     81.354686
_cell_angle_alpha  92.582677
_cell_angle_beta   91.000902
_cell_angle_gamma 120.24984
loop_
_atom_site_label
_atom_site_type_symbol
_atom_site_fract_x
_atom_site_fract_y
_atom_site_fract_z
_atom_type_partial_charge
Mn0 Mn 0.09884 0.06986 0.07282 0.0
Mn1 Mn 0.01192 0.09861 0.05617 0.0
C2 C 0.05764 0.03123 0.04765 0.0
C3 C 0.11641 0.02141 0.09065 0.0
C4 C 0.12986 0.16999 0.05596 0.0
O5 O 0.08314 0.10491 0.09198 0.0
O6 O 0.02007 0.11598 0.08038 0.0
C7 C 0.91671 0.01982 0.07165 0.0
N8 N 0.94257 0.04114 0.05785 0.0
C9 C 0.86842 0.98 0.04034 0.0
C10 C 0.84086 0.9576 0.05437 0.0
C11 C 0.86517 0.97753 0.07009 0.0
C12 C 0.91965 0.02211 0.04267 0.0
H13 H 0.93533 0.03489 0.08375 0.0
C14 C 0.04886 0.11875 0.0928 0.0
O15 O 0.15327 0.06675 0.08669 0.0
O16 O 0.06969 0.00452 0.08427 0.0
N17 N -0.00041 0.08349 0.03286 0.0
C18 C 0.03198 0.10869 0.02057 0.0
C19 C 0.01378 0.09313 0.00407 0.0
C20 C 0.96239 0.05218 0.00038 0.0
C21 C 0.92952 0.02736 0.01323 0.0
C22 C 0.94966 0.04488 0.02943 0.0
H23 H 0.07148 0.14028 0.02331 0.0
O24 O 0.10069 0.03255 0.0521 0.0
O25 O 0.0395 0.05147 0.05824 0.0
O26 O 0.14232 0.13977 0.06276 0.0
O27 O 0.08247 0.15913 0.05347 0.0
C28 C 0.87781 0.98548 0.0106 0.0
C29 C 0.84733 0.96172 0.02414 0.0
H30 H 0.80117 0.92487 0.05322 0.0
H31 H 0.84425 0.96029 0.08098 0.0
H32 H 0.03936 0.11254 0.99423 0.0
H33 H 0.94866 0.03994 0.98765 0.0
H34 H 0.86132 0.97085 -0.0018 0.0
H35 H 0.80784 0.92917 0.02196 0.0
Mn36 Mn 0.00382 0.04513 0.40307 0.0
Mn37 Mn 0.06917 0.16843 0.41991 0.0
C38 C 0.06559 0.06723 0.42415 0.0
C39 C 0.99476 0.98271 0.383 0.0
C40 C 0.95857 0.08953 0.42819 0.0
O41 O 0.98878 0.08517 0.38636 0.0
O42 O 0.03717 0.16635 0.39801 0.0
C43 C 0.15335 0.21225 0.39614 0.0
N44 N 0.13838 0.20286 0.41194 0.0
C45 C 0.22809 0.24509 0.42227 0.0
C46 C 0.2445 0.25555 0.40612 0.0
C47 C 0.20695 0.23893 0.393 0.0
C48 C 0.17415 0.21836 0.42465 0.0
H49 H 0.1246 0.19938 0.38602 0.0
C50 C 0.00683 0.13402 0.38643 0.0
O51 O 0.95482 0.9777 0.3909 0.0
O52 O 0.03949 0.02474 0.38641 0.0
N53 N 0.10256 0.17719 0.44112 0.0
C54 C 0.08022 0.16366 0.45595 0.0
C55 C 0.11241 0.17715 0.47035 0.0
C56 C 0.16717 0.20498 0.46938 0.0
C57 C 0.18925 0.21956 0.45404 0.0
C58 C 0.15519 0.20538 0.44013 0.0
H59 H 0.03816 0.14242 0.45679 0.0
O60 O 0.03032 0.01901 0.42065 0.0
O61 O 0.06484 0.1013 0.41487 0.0
O62 O 0.95466 0.05155 0.41916 0.0
O63 O -0.0011 0.13514 0.42905 0.0
C64 C 0.2437 0.24704 0.45196 0.0
C65 C 0.26311 0.25964 0.43609 0.0
H66 H 0.2858 0.27602 0.40364 0.0
H67 H 0.2193 0.24664 0.38049 0.0
H68 H 0.09506 0.16597 0.48216 0.0
H69 H 0.19186 0.21488 0.48049 0.0
H70 H 0.271 0.25825 0.46248 0.0
H71 H 0.30505 0.28034 0.43463 0.0
Mn72 Mn 0.06745 0.08635 0.74196 0.0
Mn73 Mn 0.02438 0.1588 0.76158 0.0
C74 C 0.116 0.1427 0.76406 0.0
C75 C 0.11485 0.07574 0.72116 0.0
C76 C 0.97944 0.04369 0.76607 0.0
O77 O 0.01167 0.08162 0.72574 0.0
O78 O 0.99136 0.13679 0.73896 0.0
C79 C 0.0723 0.2501 0.74125 0.0
N80 N 0.06603 0.22964 0.75624 0.0
C81 C 0.12371 0.31398 0.76961 0.0
C82 C 0.13043 0.33601 0.75434 0.0
C83 C 0.1047 0.3039 0.7401 0.0
C84 C 0.09078 0.26014 0.77001 0.0
H85 H 0.05286 0.22553 0.73026 0.0
C86 C 0.98727 0.10679 0.72653 0.0
O87 O 0.07799 0.03596 0.72804 0.0
O88 O 0.12258 0.1212 0.72594 0.0
N89 N 0.05383 0.18322 0.78352 0.0
C90 C 0.0449 0.15562 0.79719 0.0
C91 C 0.06861 0.18188 0.81243 0.0
C92 C 0.10096 0.2362 0.8135 0.0
C93 C 0.10908 0.26382 0.79931 0.0
C94 C 0.084 0.2356 0.78448 0.0
H95 H 0.02007 0.11388 0.79646 0.0
O96 O 0.12287 0.10436 0.75961 0.0
O97 O 0.08135 0.14709 0.75536 0.0
O98 O 0.01071 0.03766 0.75688 0.0
O99 O 0.98023 0.08679 0.7682 0.0
C100 C 0.14174 0.31815 0.79924 0.0
C101 C 0.14914 0.34319 0.7844 0.0
H102 H 0.15559 0.37746 0.75338 0.0
H103 H 0.10994 0.32058 0.72825 0.0
H104 H 0.06214 0.16028 0.82333 0.0
H105 H 0.11962 0.25625 0.82524 0.0
H106 H 0.1619 0.34095 0.8105 0.0
H107 H 0.1749 0.38489 0.78447 0.0
H108 H 0.00532 0.47542 0.12734 0.0
H109 H 0.15227 0.88157 0.27504 0.0
H110 H 0.92964 0.43042 0.21186 0.0
H111 H 0.92178 0.35284 0.19763 0.0
H112 H 0.06619 0.38385 0.22238 0.0
H113 H 0.07458 0.46251 0.2361 0.0
H114 H 0.96454 0.53399 0.19261 0.0
H115 H 0.96913 0.51073 0.1637 0.0
H116 H 0.10462 0.49783 0.17638 0.0
H117 H 0.10005 0.52191 0.20518 0.0
H118 H 0.98842 0.64161 0.21308 0.0
H119 H 0.0161 0.70813 0.19295 0.0
H120 H 0.15702 0.70127 0.18606 0.0
H121 H 0.12995 0.63588 0.20667 0.0
H122 H 0.97029 0.64248 0.24685 0.0
H123 H 0.99316 0.72869 0.25857 0.0
H124 H 0.15754 0.77639 0.25766 0.0
H125 H 0.134 0.68979 0.24608 0.0
H126 H 0.93494 0.55612 0.26655 0.0
H127 H 0.93482 0.60861 0.29041 0.0
H128 H 0.10035 0.66742 0.2997 0.0
H129 H 0.10022 0.61621 0.27538 0.0
H130 H 0.91559 0.43646 0.25391 0.0
H131 H 0.89766 0.37012 0.27371 0.0
H132 H 0.06292 0.44674 0.28736 0.0
H133 H 0.08031 0.51284 0.26773 0.0
O134 O 0.00441 0.48484 0.13881 0.0
O135 O 0.07367 0.4783 0.14601 0.0
O136 O 0.05717 0.82117 0.27018 0.0
O137 O 0.14219 0.84762 0.27002 0.0
C138 C 0.01367 0.50488 0.23031 0.0
C139 C 0.0284 0.54287 0.21856 0.0
C140 C 0.04024 0.5937 0.22353 0.0
C141 C 0.03644 0.60622 0.24017 0.0
C142 C 0.02156 0.56821 0.25189 0.0
C143 C 0.01082 0.51779 0.24702 0.0
C144 C 0.00275 0.4521 0.22494 0.0
C145 C 0.95878 0.41961 0.21453 0.0
C146 C 0.95431 0.37519 0.20646 0.0
C147 C 0.9937 0.36247 0.20874 0.0
C148 C 0.03564 0.39306 0.22018 0.0
C149 C 0.0402 0.43764 0.22818 0.0
C150 C 0.03181 0.52942 0.20098 0.0
C151 C 0.99529 0.52634 0.18909 0.0
C152 C -0.00205 0.51293 0.1726 0.0
C153 C 0.03718 0.5023 0.16773 0.0
C154 C 0.07387 0.50568 0.17971 0.0
C155 C 0.07127 0.51928 0.19617 0.0
C156 C 0.05726 0.6341 0.21137 0.0
C157 C 0.02558 0.65497 0.2074 0.0
C158 C 0.04141 0.69286 0.19593 0.0
C159 C 0.08874 0.7098 0.18805 0.0
C160 C 0.12029 0.68864 0.19195 0.0
C161 C 0.10487 0.65139 0.20366 0.0
C162 C 0.05051 0.66002 0.24565 0.0
C163 C 0.01121 0.67178 0.24908 0.0
C164 C 0.02439 0.72098 0.2558 0.0
C165 C 0.07721 0.75938 0.25913 0.0
C166 C 0.11651 0.74772 0.25529 0.0
C167 C 0.10323 0.69843 0.24859 0.0
C168 C 0.01763 0.58271 0.26922 0.0
C169 C 0.9706 0.5786 0.27418 0.0
C170 C 0.97074 0.6089 0.28781 0.0
C171 C 0.01791 0.64331 0.29672 0.0
C172 C 0.06366 0.64243 0.29281 0.0
C173 C 0.06355 0.61251 0.27911 0.0
C174 C -0.00082 0.4793 0.25948 0.0
C175 C 0.94771 0.43896 0.2613 0.0
C176 C 0.93759 0.40129 0.27256 0.0
C177 C 0.97899 0.40319 0.28194 0.0
C178 C 0.03041 0.44402 0.28013 0.0
C179 C 0.04036 0.48192 0.26905 0.0
C180 C 0.0397 0.48776 0.15022 0.0
C181 C 0.09136 0.81118 0.26675 0.0
H182 H 0.51487 0.00217 0.46559 0.0
H183 H 0.33379 0.19336 0.62031 0.0
H184 H 0.5399 0.96996 0.55078 0.0
H185 H 0.59924 0.95765 0.53299 0.0
H186 H 0.72675 0.10846 0.55046 0.0
H187 H 0.66677 0.12133 0.56788 0.0
H188 H 0.45834 0.98902 0.53448 0.0
H189 H 0.46775 0.98123 0.50483 0.0
H190 H 0.61554 0.12625 0.50892 0.0
H191 H 0.60521 0.13395 0.53851 0.0
H192 H 0.38607 0.00439 0.55729 0.0
H193 H 0.32272 0.00866 0.53873 0.0
H194 H 0.44297 0.16035 0.52529 0.0
H195 H 0.5064 0.15528 0.54385 0.0
H196 H 0.38846 0.01437 0.59095 0.0
H197 H 0.32844 0.0362 0.6047 0.0
H198 H 0.43627 0.19917 0.59873 0.0
H199 H 0.49599 0.17671 0.58507 0.0
H200 H 0.45939 0.99613 0.60988 0.0
H201 H 0.41752 0.00407 0.63444 0.0
H202 H 0.52162 0.17071 0.63701 0.0
H203 H 0.56104 0.16224 0.61182 0.0
H204 H 0.56391 0.97857 0.59032 0.0
H205 H 0.62794 0.97292 0.60835 0.0
H206 H 0.69793 0.13632 0.62293 0.0
H207 H 0.63516 0.14183 0.60447 0.0
O208 O 0.51154 0.00641 0.47729 0.0
O209 O 0.58763 0.08077 0.48011 0.0
O210 O 0.30136 0.09919 0.61689 0.0
O211 O 0.35596 0.18353 0.61444 0.0
C212 C 0.56051 0.05926 0.56756 0.0
C213 C 0.5264 0.06567 0.55673 0.0
C214 C 0.48841 0.07603 0.56314 0.0
C215 C 0.48521 0.0812 0.58028 0.0
C216 C 0.5197 0.07557 0.59111 0.0
C217 C 0.55759 0.06479 0.58479 0.0
C218 C 0.59899 0.04673 0.56047 0.0
C219 C 0.58095 -0.00025 0.5511 0.0
C220 C 0.61469 0.99284 0.54093 0.0
C221 C 0.66721 0.03235 0.5403 0.0
C222 C 0.68638 0.07742 0.55082 0.0
C223 C 0.65232 0.08472 0.56079 0.0
C224 C 0.531 0.0621 0.53861 0.0
C225 C 0.4924 0.01932 0.52891 0.0
C226 C 0.49804 0.01486 0.51199 0.0
C227 C 0.54247 0.05307 0.50451 0.0
C228 C 0.58087 0.09612 0.51429 0.0
C229 C 0.57506 0.10063 0.53118 0.0
C230 C 0.45056 0.07962 0.55193 0.0
C231 C 0.39856 0.03864 0.5504 0.0
C232 C 0.36246 0.0413 0.53986 0.0
C233 C 0.37777 0.08504 0.53063 0.0
C234 C 0.43013 0.12603 0.53215 0.0
C235 C 0.46628 0.12333 0.54276 0.0
C236 C 0.44644 0.09399 0.58705 0.0
C237 C 0.3987 0.05469 0.59247 0.0
C238 C 0.36462 0.06729 0.60037 0.0
C239 C 0.37768 0.11949 0.60288 0.0
C240 C 0.42506 0.15863 0.59703 0.0
C241 C 0.45911 0.14594 0.58915 0.0
C242 C 0.51287 0.0786 0.60903 0.0
C243 C 0.47483 0.03405 0.61622 0.0
C244 C 0.45071 0.03881 0.63027 0.0
C245 C 0.46503 0.08827 0.63744 0.0
C246 C 0.50841 0.13218 0.63148 0.0
C247 C 0.53186 0.1274 0.61728 0.0
C248 C 0.59479 0.06056 0.59616 0.0
C249 C 0.59315 0.01305 0.59743 0.0
C250 C 0.62955 0.00988 0.60779 0.0
C251 C 0.66819 0.05421 0.61705 0.0
C252 C 0.66927 0.10161 0.61579 0.0
C253 C 0.63304 0.10475 0.60541 0.0
C254 C 0.54875 0.04779 0.48658 0.0
C255 C 0.34252 0.13322 0.61179 0.0
H256 H 0.65638 0.73596 0.01663 0.0
H257 H 0.27917 0.28822 0.89456 0.0
H258 H 0.63102 0.7449 0.92901 0.0
H259 H 0.7164 0.81437 0.94022 0.0
H260 H 0.78812 0.72792 0.92179 0.0
H261 H 0.70223 0.65813 0.91087 0.0
H262 H 0.54519 0.66848 0.95205 0.0
H263 H 0.58108 0.7012 0.9802 0.0
H264 H 0.69483 0.65242 0.97291 0.0
H265 H 0.65808 0.61926 0.94488 0.0
H266 H 0.43996 0.57716 0.93476 0.0
H267 H 0.38149 0.52979 0.95649 0.0
H268 H 0.48368 0.47177 0.97013 0.0
H269 H 0.54217 0.51967 0.94834 0.0
H270 H 0.41565 0.54759 0.90025 0.0
H271 H 0.33283 0.4665 0.8939 0.0
H272 H 0.40795 0.37913 0.90608 0.0
H273 H 0.49064 0.46058 0.9122 0.0
H274 H 0.47973 0.60831 0.87691 0.0
H275 H 0.42806 0.55764 0.85196 0.0
H276 H 0.50123 0.4639 0.85363 0.0
H277 H 0.55182 0.51396 0.87873 0.0
H278 H 0.59696 0.72205 0.89106 0.0
H279 H 0.64548 0.77537 0.86862 0.0
H280 H 0.69275 0.66413 0.85448 0.0
H281 H 0.64458 0.61136 0.87723 0.0
O282 O 0.64246 0.72234 0.00552 0.0
O283 O 0.70027 0.69674 0.0011 0.0
O284 O 0.27469 0.3676 0.89082 0.0
O285 O 0.31132 0.32086 0.89707 0.0
C286 C 0.60802 0.64991 0.91592 0.0
C287 C 0.57809 0.62288 0.92925 0.0
C288 C 0.52837 0.57811 0.92617 0.0
C289 C 0.50973 0.55894 0.90983 0.0
C290 C 0.5398 0.58574 0.89654 0.0
C291 C 0.58842 0.63182 0.89956 0.0
C292 C 0.66055 0.69643 0.91929 0.0
C293 C 0.66545 0.7417 0.92702 0.0
C294 C 0.71427 0.78139 0.93334 0.0
C295 C 0.75884 0.77629 0.93202 0.0
C296 C 0.75431 0.73255 0.92315 0.0
C297 C 0.70546 0.69291 0.91681 0.0
C298 C 0.59903 0.64151 0.94646 0.0
C299 C 0.57761 0.66459 0.95662 0.0
C300 C 0.59831 0.68339 0.97266 0.0
C301 C 0.64089 0.6795 0.9788 0.0
C302 C 0.66206 0.65607 0.96857 0.0
C303 C 0.6412 0.63713 0.95256 0.0
C304 C 0.49502 0.55154 0.93997 0.0
C305 C 0.44974 0.55436 0.9425 0.0
C306 C 0.41639 0.52719 0.95486 0.0
C307 C 0.42787 0.49684 0.96495 0.0
C308 C 0.47409 0.49522 0.96265 0.0
C309 C 0.50738 0.52231 0.95021 0.0
C310 C 0.45905 0.5098 0.90658 0.0
C311 C 0.41408 0.51086 0.9015 0.0
C312 C 0.36686 0.46452 0.89791 0.0
C313 C 0.3638 0.41629 0.89945 0.0
C314 C 0.40894 0.41554 0.90474 0.0
C315 C 0.45617 0.46195 0.90828 0.0
C316 C 0.51938 0.56467 0.87953 0.0
C317 C 0.48571 0.57788 0.87157 0.0
C318 C 0.45609 0.54879 0.85744 0.0
C319 C 0.4606 0.50682 0.851 0.0
C320 C 0.49741 0.49635 0.8583 0.0
C321 C 0.52634 0.52487 0.87257 0.0
C322 C 0.61726 0.66294 0.88571 0.0
C323 C 0.6177 0.7092 0.88307 0.0
C324 C 0.64511 0.73934 0.87019 0.0
C325 C 0.67269 0.72378 0.85971 0.0
C326 C 0.67212 0.67725 0.8624 0.0
C327 C 0.64447 0.64697 0.8753 0.0
C328 C 0.66312 0.69995 0.99579 0.0
C329 C 0.31384 0.36693 0.89552 0.0
C330 C 0.00322 0.15286 0.1107 0.0
C331 C 0.04254 0.13989 0.10889 0.0
C332 C -0.00115 0.17512 0.12563 0.0
C333 C 0.03361 0.18471 0.13914 0.0
C334 C 0.07237 0.1711 0.13739 0.0
C335 C 0.07666 0.14868 0.12249 0.0
C336 C 0.03364 0.21301 0.15464 0.0
C337 C 0.99166 0.21541 0.15963 0.0
C338 C 0.99413 0.25025 0.1737 0.0
C339 C 0.94755 0.24004 0.18107 0.0
C340 C 0.94755 0.27518 0.19304 0.0
C341 C 0.99419 0.32154 0.1978 0.0
H342 H 0.07752 0.30639 0.17308 0.0
C343 C 0.04102 0.33105 0.19073 0.0
C344 C 0.04104 0.29598 0.17881 0.0
H345 H 0.07741 0.36699 0.19377 0.0
H346 H 0.97627 0.14671 0.1005 0.0
H347 H 0.9694 0.1864 0.12627 0.0
H348 H 0.09996 0.17849 0.14754 0.0
H349 H 0.10744 0.13922 0.12157 0.0
H350 H 0.06999 0.23283 0.16212 0.0
H351 H 0.95395 0.19153 0.15309 0.0
H352 H 0.91081 0.20531 0.1773 0.0
H353 H 0.91086 0.2666 0.19832 0.0
C354 C 0.8869 0.03141 0.44602 0.0
C355 C 0.91569 0.07975 0.43912 0.0
C356 C 0.84991 0.02379 0.45768 0.0
C357 C 0.84045 0.06412 0.46237 0.0
C358 C 0.86752 0.1116 0.45494 0.0
C359 C 0.90546 0.11968 0.4436 0.0
C360 C 0.80259 0.05761 0.47499 0.0
C361 C 0.79933 0.03346 0.48886 0.0
C362 C 0.76421 0.03061 0.50201 0.0
C363 C 0.78148 0.03679 0.51859 0.0
C364 C 0.74989 0.03695 0.53116 0.0
C365 C 0.69996 0.02934 0.52731 0.0
H366 H 0.69919 0.01635 0.48554 0.0
C367 C 0.68198 0.02136 0.51076 0.0
C368 C 0.7139 0.02224 0.49821 0.0
H369 H 0.64371 0.01582 0.50751 0.0
H370 H 0.89421 6e-05 0.44283 0.0
H371 H 0.82876 0.98644 0.46302 0.0
H372 H 0.86046 0.14302 0.45829 0.0
H373 H 0.92699 0.15724 0.43841 0.0
H374 H 0.78016 0.07703 0.47349 0.0
H375 H 0.826 0.01915 0.49121 0.0
H376 H 0.82003 0.04299 0.52178 0.0
H377 H 0.7644 0.04314 0.54387 0.0
C378 C 0.90773 0.00468 0.78603 0.0
C379 C 0.94149 -0.00089 0.77525 0.0
C380 C 0.87376 0.96367 0.79531 0.0
C381 C 0.87237 0.9158 0.79396 0.0
C382 C 0.90594 0.91015 0.78318 0.0
C383 C 0.93994 0.95118 0.77386 0.0
C384 C 0.83889 0.87235 0.80436 0.0
C385 C 0.7947 0.86642 0.81083 0.0
C386 C 0.76303 0.82608 0.82242 0.0
C387 C 0.71162 0.81488 0.82497 0.0
C388 C 0.68183 0.78061 0.83674 0.0
C389 C 0.70288 0.75689 0.84632 0.0
H390 H 0.8237 0.81003 0.8306 0.0
C391 C 0.75391 0.76711 0.84356 0.0
C392 C 0.78381 0.80151 0.83179 0.0
H393 H 0.7715 0.75005 0.85093 0.0
H394 H 0.90814 0.04112 0.78757 0.0
H395 H 0.84992 0.97038 0.80388 0.0
H396 H 0.90608 0.87391 0.78201 0.0
H397 H 0.9655 0.94547 0.76574 0.0
H398 H 0.85086 0.84407 0.80642 0.0
H399 H 0.78037 0.89197 0.80741 0.0
H400 H 0.69462 0.83329 0.81798 0.0
H401 H 0.64239 0.77304 0.83844 0.0
C402 C 0.09014 0.9371 0.10276 0.0
C403 C 0.12637 0.99036 0.10219 0.0
C404 C 0.09739 0.90773 0.11423 0.0
C405 C 0.14089 0.93115 0.12549 0.0
C406 C 0.17728 0.98437 0.12489 0.0
C407 C 0.17048 0.01367 0.11317 0.0
C408 C 0.1461 0.90162 0.13882 0.0
C409 C 0.12916 0.85051 0.13678 0.0
C410 C 0.12503 0.81822 0.1506 0.0
C411 C 0.12728 0.77279 0.14742 0.0
C412 C 0.11753 0.73847 0.1598 0.0
C413 C 0.1042 0.7485 0.17547 0.0
H414 H 0.10988 0.86297 0.16923 0.0
C415 C 0.1028 0.79434 0.17875 0.0
C416 C 0.11332 0.82903 0.16646 0.0
H417 H 0.09265 0.80287 0.19076 0.0
H418 H 0.05572 0.91814 0.09445 0.0
H419 H 0.06777 0.86713 0.11466 0.0
H420 H 0.21074 0.00335 0.13357 0.0
H421 H 0.19881 0.05478 0.11306 0.0
H422 H 0.16351 0.92238 0.15063 0.0
H423 H 0.11671 0.83113 0.12454 0.0
H424 H 0.1356 0.76335 0.13525 0.0
H425 H 0.11835 0.70309 0.15695 0.0
C426 C 0.09398 0.06227 0.45247 0.0
C427 C 0.10718 0.07969 0.43663 0.0
C428 C 0.13303 0.07127 0.46422 0.0
C429 C 0.18603 0.09616 0.4601 0.0
C430 C 0.19887 0.11294 0.44409 0.0
C431 C 0.1597 0.1044 0.4324 0.0
C432 C 0.22885 0.10519 0.47205 0.0
C433 C 0.22074 0.07768 0.48547 0.0
C434 C 0.26317 0.08424 0.49709 0.0
C435 C 0.25007 0.06745 0.51305 0.0
C436 C 0.28761 0.06912 0.52407 0.0
C437 C 0.33913 0.08713 0.51931 0.0
H438 H 0.32644 0.11526 0.48007 0.0
C439 C 0.35265 0.10488 0.50343 0.0
C440 C 0.31504 0.10334 0.4924 0.0
H441 H 0.39183 0.1182 0.49932 0.0
H442 H 0.05342 0.0425 0.45584 0.0
H443 H 0.12118 0.05912 0.47648 0.0
H444 H 0.23925 0.13223 0.44056 0.0
H445 H 0.17035 0.11672 0.42003 0.0
H446 H 0.26842 0.13453 0.46935 0.0
H447 H 0.1813 0.04829 0.48821 0.0
H448 H 0.21042 0.0525 0.51698 0.0
H449 H 0.27616 0.05587 0.5363 0.0
C450 C 0.18393 0.23513 0.76975 0.0
C451 C 0.15472 0.18496 0.77531 0.0
C452 C 0.22168 0.27568 0.7802 0.0
C453 C 0.23101 0.26648 0.79636 0.0
C454 C 0.20231 0.21593 0.80178 0.0
C455 C 0.1651 0.17518 0.7912 0.0
C456 C 0.2687 0.30923 0.80801 0.0
C457 C 0.31258 0.35066 0.80319 0.0
C458 C 0.35013 0.39272 0.81506 0.0
C459 C 0.40407 0.41647 0.81263 0.0
C460 C 0.44029 0.45449 0.82413 0.0
C461 C 0.42296 0.47029 0.83798 0.0
H462 H 0.29138 0.39274 0.83069 0.0
C463 C 0.36893 0.44802 0.84005 0.0
C464 C 0.33281 0.40946 0.82872 0.0
H465 H 0.35464 0.45927 0.85072 0.0
H466 H 0.17719 0.24303 0.75736 0.0
H467 H 0.24234 0.31433 0.77573 0.0
H468 H 0.20878 0.20797 0.81419 0.0
H469 H 0.14351 0.13639 0.79555 0.0
H470 H 0.26126 0.30519 0.82106 0.0
H471 H 0.32307 0.35225 0.79041 0.0
H472 H 0.41822 0.40449 0.80209 0.0
H473 H 0.4818 0.47123 0.8223 0.0
C474 C 0.93552 0.06163 0.70005 0.0
C475 C 0.95313 0.10247 0.71227 0.0
C476 C 0.90283 0.05798 0.68675 0.0
C477 C 0.88762 0.09545 0.68538 0.0
C478 C 0.90605 0.13662 0.69741 0.0
C479 C 0.93797 0.13989 0.71077 0.0
C480 C 0.85376 0.09397 0.67145 0.0
C481 C 0.81672 0.0498 0.66335 0.0
C482 C 0.7802 0.0498 0.65058 0.0
C483 C 0.72854 0.00788 0.64888 0.0
C484 C 0.69228 0.00875 0.63781 0.0
C485 C 0.70722 0.05139 0.62807 0.0
H486 H 0.83576 0.12347 0.64088 0.0
C487 C 0.75964 0.09217 0.62924 0.0
C488 C 0.79573 0.0914 0.64034 0.0
H489 H 0.77284 0.12487 0.62158 0.0
H490 H 0.94668 0.03232 0.70081 0.0
H491 H 0.89032 0.02638 0.67746 0.0
H492 H 0.89526 0.16621 0.69659 0.0
H493 H 0.95115 0.17217 0.71985 0.0
H494 H 0.85671 0.13062 0.66869 0.0
H495 H 0.80982 0.01252 0.66716 0.0
H496 H 0.71572 0.97517 0.65653 0.0
H497 H 0.65219 0.97677 0.63726 0.0
C498 C 0.04669 0.00577 0.01763 0.0
C499 C 0.02616 0.99783 0.03332 0.0
C500 C 0.01611 0.97343 0.00407 0.0
C501 C 0.96525 0.93187 0.0062 0.0
C502 C 0.9462 0.92239 0.0221 0.0
C503 C 0.97631 0.95529 0.03555 0.0
C504 C 0.93112 0.89727 0.99221 0.0
C505 C 0.93051 0.91403 0.97717 0.0
C506 C 0.89124 0.87956 0.96409 0.0
C507 C 0.86836 0.89974 0.95373 0.0
C508 C 0.82662 0.8666 0.9427 0.0
C509 C 0.8078 0.81286 0.94169 0.0
H510 H 0.89224 0.80981 0.96993 0.0
C511 C 0.83305 0.7933 0.95134 0.0
C512 C 0.87438 0.82629 0.96241 0.0
H513 H 0.81924 0.75204 0.95094 0.0
H514 H 0.0858 0.03764 0.01582 0.0
H515 H 0.03236 0.98074 0.992 0.0
H516 H 0.90741 0.89021 0.02406 0.0
H517 H 0.9606 0.94767 0.0477 0.0
H518 H 0.90203 0.85781 0.99485 0.0
H519 H 0.95541 0.95488 0.97496 0.0
H520 H 0.88112 0.94079 0.95471 0.0
H521 H 0.80818 0.88276 0.93529 0.0
C522 C 0.03401 0.94848 0.36266 0.0
C523 C 0.9906 0.94089 0.37151 0.0
C524 C 0.03196 0.90774 0.3529 0.0
C525 C 0.98652 0.85814 0.35194 0.0
C526 C 0.94244 0.85123 0.36026 0.0
C527 C 0.94443 0.89212 0.36998 0.0
C528 C 0.98344 0.81301 0.3423 0.0
C529 C 0.02596 0.81003 0.33833 0.0
C530 C 0.02315 0.76585 0.32831 0.0
C531 C 0.06506 0.77544 0.31841 0.0
C532 C 0.06373 0.73542 0.30848 0.0
C533 C 0.02079 0.68445 0.30845 0.0
H534 H 0.94826 0.70569 0.33647 0.0
C535 C 0.9794 0.6745 0.31875 0.0
C536 C 0.98052 0.71478 0.32858 0.0
H537 H 0.94606 0.6356 0.31917 0.0
H538 H 0.06993 0.98583 0.36341 0.0
H539 H 0.0661 0.91565 0.34614 0.0
H540 H 0.90667 0.81373 0.35956 0.0
H541 H 0.91023 0.88511 0.37661 0.0
H542 H 0.94465 0.78096 0.33855 0.0
H543 H 0.06489 0.84179 0.34201 0.0
H544 H 0.09841 0.81438 0.318 0.0
H545 H 0.09573 0.74494 0.30043 0.0
C546 C 0.18593 0.11368 0.70121 0.0
C547 C 0.15002 0.07057 0.70955 0.0
C548 C 0.22359 0.1112 0.69174 0.0
C549 C 0.22674 0.06562 0.69059 0.0
C550 C 0.18914 0.02174 0.6983 0.0
C551 C 0.15114 0.02414 0.70769 0.0
C552 C 0.26834 0.06222 0.68152 0.0
C553 C 0.31362 0.10409 0.67766 0.0
C554 C 0.35411 0.10025 0.66825 0.0
C555 C 0.3832 0.13881 0.65742 0.0
C556 C 0.42033 0.13572 0.64785 0.0
C557 C 0.43013 0.09445 0.64916 0.0
H558 H 0.344 0.03021 0.67863 0.0
C559 C 0.40243 0.05693 0.66055 0.0
C560 C 0.36465 0.05967 0.66997 0.0
H561 H 0.4095 0.02509 0.66209 0.0
H562 H 0.18554 0.1498 0.70222 0.0
H563 H 0.24997 0.14527 0.68544 0.0
H564 H 0.19002 0.98586 0.69743 0.0
H565 H 0.12388 0.9902 0.71395 0.0
H566 H 0.26155 0.02363 0.6781 0.0
H567 H 0.32114 0.14297 0.68086 0.0
H568 H 0.37592 0.17057 0.65592 0.0
H569 H 0.43976 0.16473 0.63897 0.0
C570 C 0.16076 0.25412 0.04261 0.0
C571 C 0.1722 0.21854 0.04962 0.0
C572 C 0.19949 0.29699 0.03502 0.0
C573 C 0.25048 0.30487 0.03407 0.0
C574 C 0.26264 0.27108 0.04191 0.0
C575 C 0.22397 0.22831 0.04957 0.0
C576 C 0.29131 0.34645 0.02454 0.0
C577 C 0.27959 0.36596 0.01157 0.0
C578 C 0.31894 0.40178 0.0003 0.0
C579 C 0.3012 0.40576 0.98462 0.0
C580 C 0.33651 0.43698 0.97325 0.0
C581 C 0.39053 0.46526 0.97733 0.0
H582 H 0.38833 0.43068 0.01667 0.0
C583 C 0.40842 0.46235 0.99314 0.0
C584 C 0.373 0.43118 0.00456 0.0
H585 H 0.44979 0.4845 0.99671 0.0
H586 H 0.12155 0.24836 0.04267 0.0
H587 H 0.18902 0.32338 0.02977 0.0
H588 H 0.30175 0.27661 0.04158 0.0
H589 H 0.23439 0.20201 0.05496 0.0
H590 H 0.33165 0.35706 0.02729 0.0
H591 H 0.23877 0.35171 0.00808 0.0
H592 H 0.25984 0.38379 0.98099 0.0
H593 H 0.32153 0.43799 0.96111 0.0
C594 C -0.00102 0.20505 0.37409 0.0
C595 C 0.99302 0.15527 0.37235 0.0
C596 C 0.9889 0.22686 0.36072 0.0
C597 C 0.97279 0.19946 0.34523 0.0
C598 C 0.96643 0.14956 0.34349 0.0
C599 C 0.97585 0.12735 0.35697 0.0
C600 C 0.9672 0.2242 0.33052 0.0
C601 C 0.95283 0.26045 0.33143 0.0
C602 C 0.95594 0.29216 0.3175 0.0
C603 C 0.92414 0.31463 0.31713 0.0
C604 C 0.93023 0.34932 0.3052 0.0
C605 C 0.96904 0.36294 0.29362 0.0
H606 H 0.01991 0.28922 0.30571 0.0
C607 C 0.00022 0.33976 0.29378 0.0
C608 C 0.99372 0.30465 0.30557 0.0
H609 H 0.03028 0.34947 0.28493 0.0
H610 H 0.01212 0.22762 0.38578 0.0
H611 H 0.99574 0.266 0.36244 0.0
H612 H 0.95467 0.12795 0.33163 0.0
H613 H 0.97121 0.08904 0.35521 0.0
H614 H 0.97589 0.21263 0.31869 0.0
H615 H 0.93907 0.26807 0.34294 0.0
H616 H 0.89517 0.3061 0.3263 0.0
H617 H 0.90597 0.36698 0.30541 0.0
loop_
_geom_bond_atom_site_label_1
_geom_bond_atom_site_label_2
_geom_bond_distance
_geom_bond_site_symmetry_2
_ccdc_geom_bond_type
Mn0 O5 2.095 . S
Mn0 O15 2.162 . S
Mn0 O16 2.297 . S
Mn0 O24 2.385 . S
Mn0 O25 2.209 . S
Mn0 O26 2.094 . S
Mn1 O6 2.121 . S
Mn1 N8 2.257 1_455 S
Mn1 N17 2.282 . S
Mn1 O25 2.215 . S
Mn1 O27 2.117 . S
C2 O24 1.234 . S
C2 O25 1.283 . S
C3 O15 1.281 . S
C3 O16 1.236 . S
C4 O26 1.240 . S
C4 O27 1.264 . S
O5 Mn0 2.095 . S
O5 C14 1.250 . S
O6 Mn1 2.121 . S
O6 C14 1.258 . S
C7 N8 1.326 . S
C7 C11 1.460 . S
C7 H13 0.929 . S
N8 Mn1 2.257 1_655 S
N8 C7 1.326 . S
N8 C12 1.362 . S
C9 C10 1.258 . S
C9 C12 1.431 . S
C9 C29 1.449 . S
C10 C9 1.258 . S
C10 C11 1.477 . S
C10 H30 0.931 . S
C11 C7 1.460 . S
C11 C10 1.477 . S
C11 H31 0.930 . S
C12 N8 1.362 . S
C12 C9 1.431 . S
C12 C22 1.476 . S
H13 C7 0.929 . S
C14 O5 1.250 . S
C14 O6 1.258 . S
O15 Mn0 2.162 . S
O15 C3 1.281 . S
O16 Mn0 2.297 . S
O16 C3 1.236 . S
N17 Mn1 2.282 . S
N17 C18 1.328 . S
N17 C22 1.318 1_455 S
C18 N17 1.328 . S
C18 C19 1.457 . S
C18 H23 0.929 . S
C19 C18 1.457 . S
C19 C20 1.291 1_454 S
C19 H32 0.931 1_554 S
C20 C19 1.291 1_656 S
C20 C21 1.372 1_556 S
C20 H33 0.931 . S
C21 C20 1.372 1_554 S
C21 C22 1.396 . S
C21 C28 1.403 . S
C22 C12 1.476 . S
C22 N17 1.318 1_655 S
C22 C21 1.396 . S
H23 C18 0.929 . S
O24 Mn0 2.385 . S
O24 C2 1.234 . S
O25 Mn0 2.209 . S
O25 Mn1 2.215 . S
O25 C2 1.283 . S
O26 Mn0 2.094 . S
O26 C4 1.240 . S
O27 Mn1 2.117 . S
O27 C4 1.264 . S
C28 C21 1.403 . S
C28 C29 1.399 . S
C28 H34 0.929 1_554 S
C29 C9 1.449 . S
C29 C28 1.399 . S
C29 H35 0.930 . S
H30 C10 0.931 . S
H31 C11 0.930 . S
H32 C19 0.931 1_556 S
H33 C20 0.931 . S
H34 C28 0.929 1_556 S
H35 C29 0.930 . S
Mn36 O41 2.095 . S
Mn36 O51 2.162 1_545 S
Mn36 O52 2.297 1_645 S
Mn36 O60 2.385 1_645 S
Mn36 O61 2.209 1_655 S
Mn36 O62 2.094 1_545 S
Mn37 O42 2.121 . S
Mn37 N44 2.257 . S
Mn37 N53 2.282 . S
Mn37 O61 2.215 . S
Mn37 O63 2.117 1_455 S
C38 O60 1.234 1_545 S
C38 O61 1.283 . S
C39 O51 1.281 . S
C39 O52 1.236 1_655 S
C40 O62 1.240 1_545 S
C40 O63 1.264 . S
O41 Mn36 2.095 . S
O41 C50 1.250 1_655 S
O42 Mn37 2.121 . S
O42 C50 1.258 . S
C43 N44 1.326 . S
C43 C47 1.460 . S
C43 H49 0.929 . S
N44 Mn37 2.257 . S
N44 C43 1.326 . S
N44 C48 1.362 . S
C45 C46 1.258 . S
C45 C48 1.431 . S
C45 C65 1.449 . S
C46 C45 1.258 . S
C46 C47 1.477 . S
C46 H66 0.931 . S
C47 C43 1.460 . S
C47 C46 1.477 . S
C47 H67 0.930 . S
C48 N44 1.362 . S
C48 C45 1.431 . S
C48 C58 1.476 . S
H49 C43 0.929 . S
C50 O41 1.250 1_455 S
C50 O42 1.258 . S
O51 Mn36 2.162 1_565 S
O51 C39 1.281 . S
O52 Mn36 2.297 1_465 S
O52 C39 1.236 1_455 S
N53 Mn37 2.282 . S
N53 C54 1.328 . S
N53 C58 1.318 . S
C54 N53 1.328 . S
C54 C55 1.457 . S
C54 H59 0.929 . S
C55 C54 1.457 . S
C55 C56 1.291 . S
C55 H68 0.931 . S
C56 C55 1.291 . S
C56 C57 1.373 . S
C56 H69 0.929 . S
C57 C56 1.373 . S
C57 C58 1.396 . S
C57 C64 1.403 . S
C58 C48 1.476 . S
C58 N53 1.318 . S
C58 C57 1.396 . S
H59 C54 0.929 . S
O60 Mn36 2.385 1_465 S
O60 C38 1.234 1_565 S
O61 Mn36 2.209 1_455 S
O61 Mn37 2.215 . S
O61 C38 1.283 . S
O62 Mn36 2.094 1_565 S
O62 C40 1.240 1_565 S
O63 Mn37 2.117 1_655 S
O63 C40 1.264 . S
C64 C57 1.403 . S
C64 C65 1.399 . S
C64 H70 0.929 . S
C65 C45 1.449 . S
C65 C64 1.399 . S
C65 H71 0.930 . S
H66 C46 0.931 . S
H67 C47 0.930 . S
H68 C55 0.931 . S
H69 C56 0.929 . S
H70 C64 0.929 . S
H71 C65 0.930 . S
Mn72 O77 2.095 . S
Mn72 O87 2.162 . S
Mn72 O88 2.297 . S
Mn72 O96 2.385 . S
Mn72 O97 2.209 . S
Mn72 O98 2.094 . S
Mn73 O78 2.121 . S
Mn73 N80 2.257 . S
Mn73 N89 2.282 . S
Mn73 O97 2.215 . S
Mn73 O99 2.117 . S
C74 O96 1.234 . S
C74 O97 1.283 . S
C75 O87 1.281 . S
C75 O88 1.236 . S
C76 O98 1.240 . S
C76 O99 1.264 . S
O77 Mn72 2.095 . S
O77 C86 1.250 . S
O78 Mn73 2.121 . S
O78 C86 1.258 . S
C79 N80 1.326 . S
C79 C83 1.460 . S
C79 H85 0.929 . S
N80 Mn73 2.257 . S
N80 C79 1.326 . S
N80 C84 1.362 . S
C81 C82 1.258 . S
C81 C84 1.431 . S
C81 C101 1.449 . S
C82 C81 1.258 . S
C82 C83 1.477 . S
C82 H102 0.931 . S
C83 C79 1.460 . S
C83 C82 1.477 . S
C83 H103 0.930 . S
C84 N80 1.362 . S
C84 C81 1.431 . S
C84 C94 1.476 . S
H85 C79 0.929 . S
C86 O77 1.250 . S
C86 O78 1.258 . S
O87 Mn72 2.162 . S
O87 C75 1.281 . S
O88 Mn72 2.297 . S
O88 C75 1.236 . S
N89 Mn73 2.282 . S
N89 C90 1.328 . S
N89 C94 1.318 . S
C90 N89 1.328 . S
C90 C91 1.457 . S
C90 H95 0.929 . S
C91 C90 1.457 . S
C91 C92 1.291 . S
C91 H104 0.931 . S
C92 C91 1.291 . S
C92 C93 1.373 . S
C92 H105 0.929 . S
C93 C92 1.373 . S
C93 C94 1.396 . S
C93 C100 1.403 . S
C94 C84 1.476 . S
C94 N89 1.318 . S
C94 C93 1.396 . S
H95 C90 0.929 . S
O96 Mn72 2.385 . S
O96 C74 1.234 . S
O97 Mn72 2.209 . S
O97 Mn73 2.215 . S
O97 C74 1.283 . S
O98 Mn72 2.094 . S
O98 C76 1.240 . S
O99 Mn73 2.117 . S
O99 C76 1.264 . S
C100 C93 1.403 . S
C100 C101 1.399 . S
C100 H106 0.929 . S
C101 C81 1.449 . S
C101 C100 1.399 . S
C101 H107 0.930 . S
H102 C82 0.931 . S
H103 C83 0.930 . S
H104 C91 0.931 . S
H105 C92 0.929 . S
H106 C100 0.929 . S
H107 C101 0.930 . S
H108 O134 0.856 . S
H109 O137 0.854 . S
H110 C145 0.930 . S
H111 C146 0.930 . S
H112 C148 0.930 . S
H113 C149 0.930 . S
H114 C151 0.931 1_655 S
H115 C152 0.930 1_655 S
H116 C154 0.930 . S
H117 C155 0.929 . S
H118 C157 0.930 1_655 S
H119 C158 0.931 1_655 S
H120 C160 0.930 . S
H121 C161 0.929 . S
H122 C163 0.931 . S
H123 C164 0.930 . S
H124 C166 0.930 . S
H125 C167 0.932 . S
H126 C169 0.930 . S
H127 C170 0.929 . S
H128 C172 0.931 . S
H129 C173 0.930 . S
H130 C175 0.929 . S
H131 C176 0.931 . S
H132 C178 0.930 . S
H133 C179 0.929 . S
O134 H108 0.856 . S
O134 C180 1.300 . S
O135 C180 1.209 . S
O136 C181 1.199 . S
O137 H109 0.854 . S
O137 C181 1.297 . S
C138 C139 1.404 . S
C138 C143 1.397 . S
C138 C144 1.492 . S
C139 C138 1.404 . S
C139 C140 1.396 . S
C139 C150 1.492 . S
C140 C139 1.396 . S
C140 C141 1.397 . S
C140 C156 1.509 . S
C141 C140 1.397 . S
C141 C142 1.412 . S
C141 C162 1.485 . S
C142 C141 1.412 . S
C142 C143 1.388 . S
C142 C168 1.490 . S
C143 C138 1.397 . S
C143 C142 1.388 . S
C143 C174 1.519 . S
C144 C138 1.492 . S
C144 C145 1.363 1_455 S
C144 C149 1.390 . S
C145 H110 0.930 . S
C145 C144 1.363 1_655 S
C145 C146 1.372 . S
C146 H111 0.930 . S
C146 C145 1.372 . S
C146 C147 1.383 1_655 S
C147 C146 1.383 1_455 S
C147 C148 1.395 . S
C148 H112 0.930 . S
C148 C147 1.395 . S
C148 C149 1.362 . S
C149 H113 0.930 . S
C149 C144 1.390 . S
C149 C148 1.362 . S
C150 C139 1.492 . S
C150 C151 1.377 . S
C150 C155 1.397 . S
C151 H114 0.931 1_455 S
C151 C150 1.377 . S
C151 C152 1.376 . S
C152 H115 0.930 1_455 S
C152 C151 1.376 . S
C152 C153 1.376 . S
C153 C152 1.376 . S
C153 C154 1.378 . S
C153 C180 1.486 . S
C154 H116 0.930 . S
C154 C153 1.378 . S
C154 C155 1.376 . S
C155 H117 0.929 . S
C155 C150 1.397 . S
C155 C154 1.376 . S
C156 C140 1.509 . S
C156 C157 1.391 . S
C156 C161 1.386 . S
C157 H118 0.930 1_455 S
C157 C156 1.391 . S
C157 C158 1.375 . S
C158 H119 0.931 1_455 S
C158 C157 1.375 . S
C158 C159 1.375 . S
C159 C158 1.375 . S
C159 C160 1.361 . S
C160 H120 0.930 . S
C160 C159 1.361 . S
C160 C161 1.399 . S
C161 H121 0.929 . S
C161 C156 1.386 . S
C161 C160 1.399 . S
C162 C141 1.485 . S
C162 C163 1.394 1_455 S
C162 C167 1.360 . S
C163 H122 0.931 . S
C163 C162 1.394 1_655 S
C163 C164 1.372 . S
C164 H123 0.930 . S
C164 C163 1.372 . S
C164 C165 1.397 1_655 S
C165 C164 1.397 1_455 S
C165 C166 1.390 . S
C165 C181 1.476 . S
C166 H124 0.930 . S
C166 C165 1.390 . S
C166 C167 1.366 . S
C167 H125 0.932 . S
C167 C162 1.360 . S
C167 C166 1.366 . S
C168 C142 1.490 . S
C168 C169 1.380 1_455 S
C168 C173 1.386 . S
C169 H126 0.930 . S
C169 C168 1.380 1_655 S
C169 C170 1.381 . S
C170 H127 0.929 . S
C170 C169 1.381 . S
C170 C171 1.371 . S
C171 C170 1.371 . S
C171 C172 1.380 1_655 S
C172 H128 0.931 . S
C172 C171 1.380 1_455 S
C172 C173 1.387 . S
C173 H129 0.930 . S
C173 C168 1.386 . S
C173 C172 1.387 . S
C174 C143 1.519 . S
C174 C175 1.377 1_455 S
C174 C179 1.361 . S
C175 H130 0.929 . S
C175 C174 1.377 1_655 S
C175 C176 1.386 . S
C176 H131 0.931 . S
C176 C175 1.386 . S
C176 C177 1.363 1_655 S
C177 C176 1.363 1_455 S
C177 C178 1.385 . S
C178 H132 0.930 . S
C178 C177 1.385 . S
C178 C179 1.396 . S
C179 H133 0.929 . S
C179 C174 1.361 . S
C179 C178 1.396 . S
C180 O134 1.300 . S
C180 O135 1.209 . S
C180 C153 1.486 . S
C181 O136 1.199 . S
C181 O137 1.297 . S
C181 C165 1.476 . S
H182 O208 0.856 . S
H183 O211 0.854 . S
H184 C219 0.930 . S
H185 C220 0.930 . S
H186 C222 0.930 . S
H187 C223 0.930 . S
H188 C225 0.931 . S
H189 C226 0.930 . S
H190 C228 0.930 . S
H191 C229 0.929 . S
H192 C231 0.930 . S
H193 C232 0.931 . S
H194 C234 0.930 . S
H195 C235 0.929 . S
H196 C237 0.931 . S
H197 C238 0.930 . S
H198 C240 0.930 . S
H199 C241 0.932 . S
H200 C243 0.930 . S
H201 C244 0.929 . S
H202 C246 0.931 . S
H203 C247 0.930 . S
H204 C249 0.929 . S
H205 C250 0.931 . S
H206 C252 0.930 . S
H207 C253 0.929 . S
O208 H182 0.856 . S
O208 C254 1.300 . S
O209 C254 1.209 . S
O210 C255 1.199 . S
O211 H183 0.854 . S
O211 C255 1.297 . S
C212 C213 1.404 . S
C212 C217 1.397 . S
C212 C218 1.492 . S
C213 C212 1.404 . S
C213 C214 1.396 . S
C213 C224 1.492 . S
C214 C213 1.396 . S
C214 C215 1.397 . S
C214 C230 1.509 . S
C215 C214 1.397 . S
C215 C216 1.412 . S
C215 C236 1.485 . S
C216 C215 1.412 . S
C216 C217 1.388 . S
C216 C242 1.490 . S
C217 C212 1.397 . S
C217 C216 1.388 . S
C217 C248 1.519 . S
C218 C212 1.492 . S
C218 C219 1.363 . S
C218 C223 1.390 . S
C219 H184 0.930 . S
C219 C218 1.363 . S
C219 C220 1.372 . S
C220 H185 0.930 . S
C220 C219 1.372 . S
C220 C221 1.383 . S
C221 C220 1.383 . S
C221 C222 1.395 . S
C222 H186 0.930 . S
C222 C221 1.395 . S
C222 C223 1.362 . S
C223 H187 0.930 . S
C223 C218 1.390 . S
C223 C222 1.362 . S
C224 C213 1.492 . S
C224 C225 1.377 . S
C224 C229 1.397 . S
C225 H188 0.931 . S
C225 C224 1.377 . S
C225 C226 1.376 . S
C226 H189 0.930 . S
C226 C225 1.376 . S
C226 C227 1.376 . S
C227 C226 1.376 . S
C227 C228 1.378 . S
C227 C254 1.486 . S
C228 H190 0.930 . S
C228 C227 1.378 . S
C228 C229 1.376 . S
C229 H191 0.929 . S
C229 C224 1.397 . S
C229 C228 1.376 . S
C230 C214 1.509 . S
C230 C231 1.391 . S
C230 C235 1.386 . S
C231 H192 0.930 . S
C231 C230 1.391 . S
C231 C232 1.375 . S
C232 H193 0.931 . S
C232 C231 1.375 . S
C232 C233 1.375 . S
C233 C232 1.375 . S
C233 C234 1.361 . S
C234 H194 0.930 . S
C234 C233 1.361 . S
C234 C235 1.399 . S
C235 H195 0.929 . S
C235 C230 1.386 . S
C235 C234 1.399 . S
C236 C215 1.485 . S
C236 C237 1.394 . S
C236 C241 1.360 . S
C237 H196 0.931 . S
C237 C236 1.394 . S
C237 C238 1.372 . S
C238 H197 0.930 . S
C238 C237 1.372 . S
C238 C239 1.397 . S
C239 C238 1.397 . S
C239 C240 1.390 . S
C239 C255 1.476 . S
C240 H198 0.930 . S
C240 C239 1.390 . S
C240 C241 1.366 . S
C241 H199 0.932 . S
C241 C236 1.360 . S
C241 C240 1.366 . S
C242 C216 1.490 . S
C242 C243 1.380 . S
C242 C247 1.386 . S
C243 H200 0.930 . S
C243 C242 1.380 . S
C243 C244 1.381 . S
C244 H201 0.929 . S
C244 C243 1.381 . S
C244 C245 1.371 . S
C245 C244 1.371 . S
C245 C246 1.380 . S
C246 H202 0.931 . S
C246 C245 1.380 . S
C246 C247 1.387 . S
C247 H203 0.930 . S
C247 C242 1.386 . S
C247 C246 1.387 . S
C248 C217 1.519 . S
C248 C249 1.377 . S
C248 C253 1.361 . S
C249 H204 0.929 . S
C249 C248 1.377 . S
C249 C250 1.386 . S
C250 H205 0.931 . S
C250 C249 1.386 . S
C250 C251 1.363 . S
C251 C250 1.363 . S
C251 C252 1.385 . S
C252 H206 0.930 . S
C252 C251 1.385 . S
C252 C253 1.396 . S
C253 H207 0.929 . S
C253 C248 1.361 . S
C253 C252 1.396 . S
C254 O208 1.300 . S
C254 O209 1.209 . S
C254 C227 1.486 . S
C255 O210 1.199 . S
C255 O211 1.297 . S
C255 C239 1.476 . S
H256 O282 0.856 . S
H257 O285 0.854 . S
H258 C293 0.930 . S
H259 C294 0.930 . S
H260 C296 0.930 . S
H261 C297 0.930 . S
H262 C299 0.931 . S
H263 C300 0.930 . S
H264 C302 0.930 . S
H265 C303 0.929 . S
H266 C305 0.930 . S
H267 C306 0.931 . S
H268 C308 0.930 . S
H269 C309 0.929 . S
H270 C311 0.931 . S
H271 C312 0.930 . S
H272 C314 0.930 . S
H273 C315 0.932 . S
H274 C317 0.930 . S
H275 C318 0.929 . S
H276 C320 0.931 . S
H277 C321 0.930 . S
H278 C323 0.929 . S
H279 C324 0.931 . S
H280 C326 0.930 . S
H281 C327 0.929 . S
O282 H256 0.856 . S
O282 C328 1.300 . S
O283 C328 1.209 . S
O284 C329 1.199 . S
O285 H257 0.854 . S
O285 C329 1.297 . S
C286 C287 1.404 . S
C286 C291 1.397 . S
C286 C292 1.492 . S
C287 C286 1.404 . S
C287 C288 1.396 . S
C287 C298 1.492 . S
C288 C287 1.396 . S
C288 C289 1.397 . S
C288 C304 1.509 . S
C289 C288 1.397 . S
C289 C290 1.412 . S
C289 C310 1.485 . S
C290 C289 1.412 . S
C290 C291 1.388 . S
C290 C316 1.490 . S
C291 C286 1.397 . S
C291 C290 1.388 . S
C291 C322 1.519 . S
C292 C286 1.492 . S
C292 C293 1.363 . S
C292 C297 1.390 . S
C293 H258 0.930 . S
C293 C292 1.363 . S
C293 C294 1.372 . S
C294 H259 0.930 . S
C294 C293 1.372 . S
C294 C295 1.383 . S
C295 C294 1.383 . S
C295 C296 1.395 . S
C296 H260 0.930 . S
C296 C295 1.395 . S
C296 C297 1.362 . S
C297 H261 0.930 . S
C297 C292 1.390 . S
C297 C296 1.362 . S
C298 C287 1.492 . S
C298 C299 1.377 . S
C298 C303 1.397 . S
C299 H262 0.931 . S
C299 C298 1.377 . S
C299 C300 1.376 . S
C300 H263 0.930 . S
C300 C299 1.376 . S
C300 C301 1.376 . S
C301 C300 1.376 . S
C301 C302 1.378 . S
C301 C328 1.486 1_556 S
C302 H264 0.930 . S
C302 C301 1.378 . S
C302 C303 1.376 . S
C303 H265 0.929 . S
C303 C298 1.397 . S
C303 C302 1.376 . S
C304 C288 1.509 . S
C304 C305 1.391 . S
C304 C309 1.386 . S
C305 H266 0.930 . S
C305 C304 1.391 . S
C305 C306 1.375 . S
C306 H267 0.931 . S
C306 C305 1.375 . S
C306 C307 1.375 . S
C307 C306 1.375 . S
C307 C308 1.361 . S
C308 H268 0.930 . S
C308 C307 1.361 . S
C308 C309 1.399 . S
C309 H269 0.929 . S
C309 C304 1.386 . S
C309 C308 1.399 . S
C310 C289 1.485 . S
C310 C311 1.394 . S
C310 C315 1.360 . S
C311 H270 0.931 . S
C311 C310 1.394 . S
C311 C312 1.372 . S
C312 H271 0.930 . S
C312 C311 1.372 . S
C312 C313 1.397 . S
C313 C312 1.397 . S
C313 C314 1.390 . S
C313 C329 1.476 . S
C314 H272 0.930 . S
C314 C313 1.390 . S
C314 C315 1.366 . S
C315 H273 0.932 . S
C315 C310 1.360 . S
C315 C314 1.366 . S
C316 C290 1.490 . S
C316 C317 1.380 . S
C316 C321 1.386 . S
C317 H274 0.930 . S
C317 C316 1.380 . S
C317 C318 1.381 . S
C318 H275 0.929 . S
C318 C317 1.381 . S
C318 C319 1.371 . S
C319 C318 1.371 . S
C319 C320 1.380 . S
C320 H276 0.931 . S
C320 C319 1.380 . S
C320 C321 1.387 . S
C321 H277 0.930 . S
C321 C316 1.386 . S
C321 C320 1.387 . S
C322 C291 1.519 . S
C322 C323 1.377 . S
C322 C327 1.361 . S
C323 H278 0.929 . S
C323 C322 1.377 . S
C323 C324 1.386 . S
C324 H279 0.931 . S
C324 C323 1.386 . S
C324 C325 1.363 . S
C325 C324 1.363 . S
C325 C326 1.385 . S
C326 H280 0.930 . S
C326 C325 1.385 . S
C326 C327 1.396 . S
C327 H281 0.929 . S
C327 C322 1.361 . S
C327 C326 1.396 . S
C328 O282 1.300 . S
C328 O283 1.209 . S
C328 C301 1.486 1_554 S
C329 O284 1.199 . S
C329 O285 1.297 . S
C329 C313 1.476 . S
C330 C331 1.386 . S
C330 C332 1.383 . S
C330 H346 0.951 . S
C331 C330 1.386 . S
C331 C335 1.383 . S
C332 C330 1.383 . S
C332 C333 1.402 . S
C332 H347 0.951 . S
C333 C332 1.402 . S
C333 C334 1.375 . S
C333 C336 1.481 . S
C334 C333 1.375 . S
C334 C335 1.367 . S
C334 H348 0.951 . S
C335 C331 1.383 . S
C335 C334 1.367 . S
C335 H349 0.950 . S
C336 C333 1.481 . S
C336 C337 1.297 . S
C336 H350 0.950 . S
C337 C336 1.297 . S
C337 C338 1.479 . S
C337 H351 0.950 . S
C338 C337 1.479 . S
C338 C339 1.375 1_455 S
C338 C344 1.404 . S
C339 C338 1.375 1_655 S
C339 C340 1.369 . S
C339 H352 0.950 . S
C340 C339 1.369 . S
C340 C341 1.392 1_655 S
C340 H353 0.951 . S
C341 C340 1.392 1_455 S
C341 C343 1.384 . S
H342 C344 0.949 . S
C343 C341 1.384 . S
C343 C344 1.385 . S
C343 H345 0.950 . S
C344 C338 1.404 . S
C344 H342 0.949 . S
C344 C343 1.385 . S
H345 C343 0.950 . S
H346 C330 0.951 . S
H347 C332 0.951 . S
H348 C334 0.951 . S
H349 C335 0.950 . S
H350 C336 0.950 . S
H351 C337 0.950 . S
H352 C339 0.950 . S
H353 C340 0.951 . S
C354 C355 1.386 . S
C354 C356 1.383 . S
C354 H370 0.951 . S
C355 C354 1.386 . S
C355 C359 1.383 . S
C356 C354 1.383 . S
C356 C357 1.402 . S
C356 H371 0.951 . S
C357 C356 1.402 . S
C357 C358 1.375 . S
C357 C360 1.481 . S
C358 C357 1.375 . S
C358 C359 1.367 . S
C358 H372 0.951 . S
C359 C355 1.383 . S
C359 C358 1.367 . S
C359 H373 0.950 . S
C360 C357 1.481 . S
C360 C361 1.297 . S
C360 H374 0.950 . S
C361 C360 1.297 . S
C361 C362 1.479 . S
C361 H375 0.950 . S
C362 C361 1.479 . S
C362 C363 1.375 . S
C362 C368 1.404 . S
C363 C362 1.375 . S
C363 C364 1.369 . S
C363 H376 0.950 . S
C364 C363 1.369 . S
C364 C365 1.392 . S
C364 H377 0.951 . S
C365 C364 1.392 . S
C365 C367 1.384 . S
H366 C368 0.949 . S
C367 C365 1.384 . S
C367 C368 1.385 . S
C367 H369 0.950 . S
C368 C362 1.404 . S
C368 H366 0.949 . S
C368 C367 1.385 . S
H369 C367 0.950 . S
H370 C354 0.951 . S
H371 C356 0.951 . S
H372 C358 0.951 . S
H373 C359 0.950 . S
H374 C360 0.950 . S
H375 C361 0.950 . S
H376 C363 0.950 . S
H377 C364 0.951 . S
C378 C379 1.386 . S
C378 C380 1.383 . S
C378 H394 0.951 . S
C379 C378 1.386 . S
C379 C383 1.383 . S
C380 C378 1.383 . S
C380 C381 1.402 . S
C380 H395 0.951 . S
C381 C380 1.402 . S
C381 C382 1.375 . S
C381 C384 1.481 . S
C382 C381 1.375 . S
C382 C383 1.367 . S
C382 H396 0.951 . S
C383 C379 1.383 . S
C383 C382 1.367 . S
C383 H397 0.950 1_655 S
C384 C381 1.481 . S
C384 C385 1.297 . S
C384 H398 0.950 . S
C385 C384 1.297 . S
C385 C386 1.479 . S
C385 H399 0.950 . S
C386 C385 1.479 . S
C386 C387 1.375 . S
C386 C392 1.404 . S
C387 C386 1.375 . S
C387 C388 1.369 . S
C387 H400 0.950 . S
C388 C387 1.369 . S
C388 C389 1.392 . S
C388 H401 0.951 . S
C389 C388 1.392 . S
C389 C391 1.384 . S
H390 C392 0.949 . S
C391 C389 1.384 . S
C391 C392 1.385 . S
C391 H393 0.950 . S
C392 C386 1.404 . S
C392 H390 0.949 . S
C392 C391 1.385 . S
H393 C391 0.950 . S
H394 C378 0.951 . S
H395 C380 0.951 . S
H396 C382 0.951 . S
H397 C383 0.950 1_455 S
H398 C384 0.950 . S
H399 C385 0.950 . S
H400 C387 0.950 . S
H401 C388 0.951 . S
C402 C403 1.386 . S
C402 C404 1.383 . S
C402 H418 0.951 . S
C403 C402 1.386 . S
C403 C407 1.383 1_565 S
C404 C402 1.383 . S
C404 C405 1.402 . S
C404 H419 0.951 . S
C405 C404 1.402 . S
C405 C406 1.375 . S
C405 C408 1.481 . S
C406 C405 1.375 . S
C406 C407 1.367 1_565 S
C406 H420 0.951 . S
C407 C403 1.383 1_545 S
C407 C406 1.367 1_545 S
C407 H421 0.950 . S
C408 C405 1.481 . S
C408 C409 1.297 . S
C408 H422 0.950 . S
C409 C408 1.297 . S
C409 C410 1.479 . S
C409 H423 0.950 . S
C410 C409 1.479 . S
C410 C411 1.375 . S
C410 C416 1.404 . S
C411 C410 1.375 . S
C411 C412 1.369 . S
C411 H424 0.950 . S
C412 C411 1.369 . S
C412 C413 1.392 . S
C412 H425 0.951 . S
C413 C412 1.392 . S
C413 C415 1.384 . S
H414 C416 0.949 . S
C415 C413 1.384 . S
C415 C416 1.385 . S
C415 H417 0.950 . S
C416 C410 1.404 . S
C416 H414 0.949 . S
C416 C415 1.385 . S
H417 C415 0.950 . S
H418 C402 0.951 . S
H419 C404 0.951 . S
H420 C406 0.951 . S
H421 C407 0.950 . S
H422 C408 0.950 . S
H423 C409 0.950 . S
H424 C411 0.950 . S
H425 C412 0.951 . S
C426 C427 1.386 . S
C426 C428 1.383 . S
C426 H442 0.951 1_545 S
C427 C426 1.386 . S
C427 C431 1.383 . S
C428 C426 1.383 . S
C428 C429 1.402 . S
C428 H443 0.951 . S
C429 C428 1.402 . S
C429 C430 1.375 . S
C429 C432 1.481 . S
C430 C429 1.375 . S
C430 C431 1.367 . S
C430 H444 0.951 . S
C431 C427 1.383 . S
C431 C430 1.367 . S
C431 H445 0.950 . S
C432 C429 1.481 . S
C432 C433 1.297 . S
C432 H446 0.950 . S
C433 C432 1.297 . S
C433 C434 1.479 . S
C433 H447 0.950 . S
C434 C433 1.479 . S
C434 C435 1.375 . S
C434 C440 1.404 . S
C435 C434 1.375 . S
C435 C436 1.369 . S
C435 H448 0.950 . S
C436 C435 1.369 . S
C436 C437 1.392 . S
C436 H449 0.951 . S
C437 C436 1.392 . S
C437 C439 1.384 . S
H438 C440 0.949 . S
C439 C437 1.384 . S
C439 C440 1.385 . S
C439 H441 0.950 . S
C440 C434 1.404 . S
C440 H438 0.949 . S
C440 C439 1.385 . S
H441 C439 0.950 . S
H442 C426 0.951 1_565 S
H443 C428 0.951 . S
H444 C430 0.951 . S
H445 C431 0.950 . S
H446 C432 0.950 . S
H447 C433 0.950 . S
H448 C435 0.950 . S
H449 C436 0.951 . S
C450 C451 1.386 . S
C450 C452 1.383 . S
C450 H466 0.951 . S
C451 C450 1.386 . S
C451 C455 1.383 . S
C452 C450 1.383 . S
C452 C453 1.402 . S
C452 H467 0.951 . S
C453 C452 1.402 . S
C453 C454 1.375 . S
C453 C456 1.481 . S
C454 C453 1.375 . S
C454 C455 1.367 . S
C454 H468 0.951 . S
C455 C451 1.383 . S
C455 C454 1.367 . S
C455 H469 0.950 . S
C456 C453 1.481 . S
C456 C457 1.297 . S
C456 H470 0.950 . S
C457 C456 1.297 . S
C457 C458 1.479 . S
C457 H471 0.950 . S
C458 C457 1.479 . S
C458 C459 1.375 . S
C458 C464 1.404 . S
C459 C458 1.375 . S
C459 C460 1.369 . S
C459 H472 0.950 . S
C460 C459 1.369 . S
C460 C461 1.392 . S
C460 H473 0.951 . S
C461 C460 1.392 . S
C461 C463 1.384 . S
H462 C464 0.949 . S
C463 C461 1.384 . S
C463 C464 1.385 . S
C463 H465 0.950 . S
C464 C458 1.404 . S
C464 H462 0.949 . S
C464 C463 1.385 . S
H465 C463 0.950 . S
H466 C450 0.951 . S
H467 C452 0.951 . S
H468 C454 0.951 . S
H469 C455 0.950 . S
H470 C456 0.950 . S
H471 C457 0.950 . S
H472 C459 0.950 . S
H473 C460 0.951 . S
C474 C475 1.386 . S
C474 C476 1.383 . S
C474 H490 0.951 . S
C475 C474 1.386 . S
C475 C479 1.383 . S
C476 C474 1.383 . S
C476 C477 1.402 . S
C476 H491 0.951 . S
C477 C476 1.402 . S
C477 C478 1.375 . S
C477 C480 1.481 . S
C478 C477 1.375 . S
C478 C479 1.367 . S
C478 H492 0.951 . S
C479 C475 1.383 . S
C479 C478 1.367 . S
C479 H493 0.950 1_655 S
C480 C477 1.481 . S
C480 C481 1.297 . S
C480 H494 0.950 . S
C481 C480 1.297 . S
C481 C482 1.479 . S
C481 H495 0.950 . S
C482 C481 1.479 . S
C482 C483 1.375 . S
C482 C488 1.404 . S
C483 C482 1.375 . S
C483 C484 1.369 . S
C483 H496 0.950 . S
C484 C483 1.369 . S
C484 C485 1.392 . S
C484 H497 0.951 . S
C485 C484 1.392 . S
C485 C487 1.384 . S
H486 C488 0.949 . S
C487 C485 1.384 . S
C487 C488 1.385 . S
C487 H489 0.950 . S
C488 C482 1.404 . S
C488 H486 0.949 . S
C488 C487 1.385 . S
H489 C487 0.950 . S
H490 C474 0.951 . S
H491 C476 0.951 . S
H492 C478 0.951 . S
H493 C479 0.950 1_455 S
H494 C480 0.950 . S
H495 C481 0.950 . S
H496 C483 0.950 . S
H497 C484 0.951 . S
C498 C499 1.386 1_545 S
C498 C500 1.383 1_545 S
C498 H514 0.951 . S
C499 C498 1.386 1_565 S
C499 C503 1.383 . S
C500 C498 1.383 1_565 S
C500 C501 1.402 . S
C500 H515 0.951 . S
C501 C500 1.402 . S
C501 C502 1.375 . S
C501 C504 1.481 . S
C502 C501 1.375 . S
C502 C503 1.367 . S
C502 H516 0.951 . S
C503 C499 1.383 . S
C503 C502 1.367 . S
C503 H517 0.950 . S
C504 C501 1.481 . S
C504 C505 1.297 1_554 S
C504 H518 0.950 . S
C505 C504 1.297 1_556 S
C505 C506 1.479 . S
C505 H519 0.950 . S
C506 C505 1.479 . S
C506 C507 1.375 . S
C506 C512 1.404 . S
C507 C506 1.375 . S
C507 C508 1.369 . S
C507 H520 0.950 . S
C508 C507 1.369 . S
C508 C509 1.392 . S
C508 H521 0.951 . S
C509 C508 1.392 . S
C509 C511 1.384 . S
H510 C512 0.949 . S
C511 C509 1.384 . S
C511 C512 1.385 . S
C511 H513 0.950 . S
C512 C506 1.404 . S
C512 H510 0.949 . S
C512 C511 1.385 . S
H513 C511 0.950 . S
H514 C498 0.951 . S
H515 C500 0.951 . S
H516 C502 0.951 . S
H517 C503 0.950 . S
H518 C504 0.950 . S
H519 C505 0.950 . S
H520 C507 0.950 . S
H521 C508 0.951 . S
C522 C523 1.386 1_455 S
C522 C524 1.383 . S
C522 H538 0.951 . S
C523 C522 1.386 1_655 S
C523 C527 1.383 . S
C524 C522 1.383 . S
C524 C525 1.402 1_455 S
C524 H539 0.951 . S
C525 C524 1.402 1_655 S
C525 C526 1.375 . S
C525 C528 1.481 . S
C526 C525 1.375 . S
C526 C527 1.367 . S
C526 H540 0.951 . S
C527 C523 1.383 . S
C527 C526 1.367 . S
C527 H541 0.950 . S
C528 C525 1.481 . S
C528 C529 1.297 1_655 S
C528 H542 0.950 . S
C529 C528 1.297 1_455 S
C529 C530 1.479 . S
C529 H543 0.950 . S
C530 C529 1.479 . S
C530 C531 1.375 . S
C530 C536 1.404 1_455 S
C531 C530 1.375 . S
C531 C532 1.369 . S
C531 H544 0.950 . S
C532 C531 1.369 . S
C532 C533 1.392 1_455 S
C532 H545 0.951 . S
C533 C532 1.392 1_655 S
C533 C535 1.384 . S
H534 C536 0.949 . S
C535 C533 1.384 . S
C535 C536 1.385 . S
C535 H537 0.950 . S
C536 C530 1.404 1_655 S
C536 H534 0.949 . S
C536 C535 1.385 . S
H537 C535 0.950 . S
H538 C522 0.951 . S
H539 C524 0.951 . S
H540 C526 0.951 . S
H541 C527 0.950 . S
H542 C528 0.950 . S
H543 C529 0.950 . S
H544 C531 0.950 . S
H545 C532 0.951 . S
C546 C547 1.386 . S
C546 C548 1.383 . S
C546 H562 0.951 . S
C547 C546 1.386 . S
C547 C551 1.383 . S
C548 C546 1.383 . S
C548 C549 1.402 . S
C548 H563 0.951 . S
C549 C548 1.402 . S
C549 C550 1.375 . S
C549 C552 1.481 . S
C550 C549 1.375 . S
C550 C551 1.367 . S
C550 H564 0.951 . S
C551 C547 1.383 . S
C551 C550 1.367 . S
C551 H565 0.950 . S
C552 C549 1.481 . S
C552 C553 1.297 . S
C552 H566 0.950 . S
C553 C552 1.297 . S
C553 C554 1.479 . S
C553 H567 0.950 . S
C554 C553 1.479 . S
C554 C555 1.375 . S
C554 C560 1.404 . S
C555 C554 1.375 . S
C555 C556 1.369 . S
C555 H568 0.950 . S
C556 C555 1.369 . S
C556 C557 1.392 . S
C556 H569 0.951 . S
C557 C556 1.392 . S
C557 C559 1.384 . S
H558 C560 0.949 . S
C559 C557 1.384 . S
C559 C560 1.385 . S
C559 H561 0.950 . S
C560 C554 1.404 . S
C560 H558 0.949 . S
C560 C559 1.385 . S
H561 C559 0.950 . S
H562 C546 0.951 . S
H563 C548 0.951 . S
H564 C550 0.951 . S
H565 C551 0.950 . S
H566 C552 0.950 . S
H567 C553 0.950 . S
H568 C555 0.950 . S
H569 C556 0.951 . S
C570 C571 1.386 . S
C570 C572 1.383 . S
C570 H586 0.951 . S
C571 C570 1.386 . S
C571 C575 1.383 . S
C572 C570 1.383 . S
C572 C573 1.402 . S
C572 H587 0.951 . S
C573 C572 1.402 . S
C573 C574 1.375 . S
C573 C576 1.481 . S
C574 C573 1.375 . S
C574 C575 1.367 . S
C574 H588 0.951 . S
C575 C571 1.383 . S
C575 C574 1.367 . S
C575 H589 0.950 . S
C576 C573 1.481 . S
C576 C577 1.297 . S
C576 H590 0.950 . S
C577 C576 1.297 . S
C577 C578 1.479 . S
C577 H591 0.950 . S
C578 C577 1.479 . S
C578 C579 1.375 1_554 S
C578 C584 1.404 . S
C579 C578 1.375 1_556 S
C579 C580 1.369 . S
C579 H592 0.950 . S
C580 C579 1.369 . S
C580 C581 1.392 . S
C580 H593 0.951 . S
C581 C580 1.392 . S
C581 C583 1.384 . S
H582 C584 0.949 . S
C583 C581 1.384 . S
C583 C584 1.385 1_556 S
C583 H585 0.950 . S
C584 C578 1.404 . S
C584 H582 0.949 . S
C584 C583 1.385 1_554 S
H585 C583 0.950 . S
H586 C570 0.951 . S
H587 C572 0.951 . S
H588 C574 0.951 . S
H589 C575 0.950 . S
H590 C576 0.950 . S
H591 C577 0.950 . S
H592 C579 0.950 . S
H593 C580 0.951 . S
C594 C595 1.386 1_655 S
C594 C596 1.383 1_655 S
C594 H610 0.951 . S
C595 C594 1.386 1_455 S
C595 C599 1.383 . S
C596 C594 1.383 1_455 S
C596 C597 1.402 . S
C596 H611 0.951 1_455 S
C597 C596 1.402 . S
C597 C598 1.375 . S
C597 C600 1.481 . S
C598 C597 1.375 . S
C598 C599 1.367 . S
C598 H612 0.951 . S
C599 C595 1.383 . S
C599 C598 1.367 . S
C599 H613 0.950 . S
C600 C597 1.481 . S
C600 C601 1.297 . S
C600 H614 0.950 . S
C601 C600 1.297 . S
C601 C602 1.479 . S
C601 H615 0.950 . S
C602 C601 1.479 . S
C602 C603 1.375 . S
C602 C608 1.404 . S
C603 C602 1.375 . S
C603 C604 1.369 . S
C603 H616 0.950 1_455 S
C604 C603 1.369 . S
C604 C605 1.392 . S
C604 H617 0.951 1_455 S
C605 C604 1.392 . S
C605 C607 1.384 . S
H606 C608 0.949 . S
C607 C605 1.384 . S
C607 C608 1.385 . S
C607 H609 0.950 . S
C608 C602 1.404 . S
C608 H606 0.949 . S
C608 C607 1.385 . S
H609 C607 0.950 . S
H610 C594 0.951 . S
H611 C596 0.951 1_655 S
H612 C598 0.951 . S
H613 C599 0.950 . S
H614 C600 0.950 . S
H615 C601 0.950 . S
H616 C603 0.950 1_655 S
H617 C604 0.951 1_655 S
C341 C147 1.434 . S
C331 C14 1.475 . S
C355 C40 1.386 . S
C365 C221 1.326 . S
C379 C76 2.123 1_665 S
C389 C325 2.122 . S
C403 C3 0.730 1_565 S
C413 C159 0.764 . S
C437 C233 0.781 . S
C427 C38 0.806 . S
C451 C74 1.490 . S
C461 C319 1.435 . S
C485 C251 2.124 . S
C475 C86 2.089 1_655 S
C499 C2 1.459 1_665 S
C509 C295 1.414 . S
C533 C171 1.420 . S
C523 C39 1.474 . S
C557 C245 1.357 . S
C547 C75 1.400 . S
C581 C307 0.759 . S
C571 C4 0.784 . S
C595 C50 2.168 . S
C605 C177 2.209 . S
