# Generated by pormake.
# Topology zzz, (3,6)-cn, num edge types: 1
# Building blocks:
#     Node 0, Type 0, BuildingBlock: PAMTOO_clean_linker_0, # of connection points: 3
#     Node 1, Type 0, BuildingBlock: PAMTOO_clean_linker_0, # of connection points: 3
#     Node 2, Type 0, BuildingBlock: PAMTOO_clean_linker_0, # of connection points: 3
#     Node 3, Type 0, BuildingBlock: PAMTOO_clean_linker_0, # of connection points: 3
#     Node 4, Type 0, BuildingBlock: PAMTOO_clean_linker_0, # of connection points: 3
#     Node 5, Type 0, BuildingBlock: PAMTOO_clean_linker_0, # of connection points: 3
#     Node 6, Type 0, BuildingBlock: PAMTOO_clean_linker_0, # of connection points: 3
#     Node 7, Type 0, BuildingBlock: PAMTOO_clean_linker_0, # of connection points: 3
#     Node 8, Type 1, BuildingBlock: GEDQOX_clean_sbu_0, # of connection points: 6
#     Node 9, Type 1, BuildingBlock: GEDQOX_clean_sbu_0, # of connection points: 6
#     Node 10, Type 1, BuildingBlock: GEDQOX_clean_sbu_0, # of connection points: 6
#     Node 11, Type 1, BuildingBlock: GEDQOX_clean_sbu_0, # of connection points: 6
#     Edge 12, Type (0, 1), BuildingBlock: ZUJKAS_clean_linker_0, # of connection points: 2
#     Edge 13, Type (0, 1), BuildingBlock: ZUJKAS_clean_linker_0, # of connection points: 2
#     Edge 14, Type (0, 1), BuildingBlock: ZUJKAS_clean_linker_0, # of connection points: 2
#     Edge 15, Type (0, 1), BuildingBlock: ZUJKAS_clean_linker_0, # of connection points: 2
#     Edge 16, Type (0, 1), BuildingBlock: ZUJKAS_clean_linker_0, # of connection points: 2
#     Edge 17, Type (0, 1), BuildingBlock: ZUJKAS_clean_linker_0, # of connection points: 2
#     Edge 18, Type (0, 1), BuildingBlock: ZUJKAS_clean_linker_0, # of connection points: 2
#     Edge 19, Type (0, 1), BuildingBlock: ZUJKAS_clean_linker_0, # of connection points: 2
#     Edge 20, Type (0, 1), BuildingBlock: ZUJKAS_clean_linker_0, # of connection points: 2
#     Edge 21, Type (0, 1), BuildingBlock: ZUJKAS_clean_linker_0, # of connection points: 2
#     Edge 22, Type (0, 1), BuildingBlock: ZUJKAS_clean_linker_0, # of connection points: 2
#     Edge 23, Type (0, 1), BuildingBlock: ZUJKAS_clean_linker_0, # of connection points: 2
#     Edge 24, Type (0, 1), BuildingBlock: ZUJKAS_clean_linker_0, # of connection points: 2
#     Edge 25, Type (0, 1), BuildingBlock: ZUJKAS_clean_linker_0, # of connection points: 2
#     Edge 26, Type (0, 1), BuildingBlock: ZUJKAS_clean_linker_0, # of connection points: 2
#     Edge 27, Type (0, 1), BuildingBlock: ZUJKAS_clean_linker_0, # of connection points: 2
#     Edge 28, Type (0, 1), BuildingBlock: ZUJKAS_clean_linker_0, # of connection points: 2
#     Edge 29, Type (0, 1), BuildingBlock: ZUJKAS_clean_linker_0, # of connection points: 2
#     Edge 30, Type (0, 1), BuildingBlock: ZUJKAS_clean_linker_0, # of connection points: 2
#     Edge 31, Type (0, 1), BuildingBlock: ZUJKAS_clean_linker_0, # of connection points: 2
#     Edge 32, Type (0, 1), BuildingBlock: ZUJKAS_clean_linker_0, # of connection points: 2
#     Edge 33, Type (0, 1), BuildingBlock: ZUJKAS_clean_linker_0, # of connection points: 2
#     Edge 34, Type (0, 1), BuildingBlock: ZUJKAS_clean_linker_0, # of connection points: 2
#     Edge 35, Type (0, 1), BuildingBlock: ZUJKAS_clean_linker_0, # of connection points: 2
# Relax obj value: 0.122
# Max RMSD: 0.172
# Mean RMSD: 0.091
data_MOF--net-zzz--node1-GEDQOX_clean_sbu_0--node2-PAMTOO_clean_linker_0--edge1-ZUJKAS_clean_linker_0
_symmetry_space_group_name_H-M    P1
_symmetry_Int_Tables_number       1
_symmetry_cell_setting            triclinic
loop_
_symmetry_equiv_pos_as_xyz
'x, y, z'
_cell_length_a     69.807599
_cell_length_b     69.090477
_cell_length_c     21.26966
_cell_angle_alpha  81.515662
_cell_angle_beta   88.899047
_cell_angle_gamma 98.042846
loop_
_atom_site_label
_atom_site_type_symbol
_atom_site_fract_x
_atom_site_fract_y
_atom_site_fract_z
_atom_type_partial_charge
H0 H 0.81323 0.55115 0.16808 0.0
H1 H 0.76401 0.53838 0.05453 0.0
H2 H 0.7563 0.55674 0.237 0.0
H3 H 0.72566 0.52488 0.2061 0.0
C4 C 0.72607 0.529 0.15344 0.0
O5 O 0.73872 0.5463 0.13623 0.0
H6 H 0.73114 0.51682 0.13173 0.0
C7 C 0.79784 0.55054 0.16075 0.0
C8 C 0.78587 0.55513 0.2084 0.0
C9 C 0.79025 0.54448 0.10506 0.0
C10 C 0.77018 0.54291 0.09734 0.0
C11 C 0.75796 0.54735 0.14487 0.0
C12 C 0.76579 0.55331 0.20058 0.0
H13 H 0.02337 0.81096 0.25381 0.0
H14 H 0.02147 0.76711 0.12935 0.0
H15 H 0.99738 0.75113 0.32144 0.0
H16 H 0.01509 0.71679 0.27653 0.0
C17 C 0.01719 0.72369 0.22578 0.0
O18 O 0.00478 0.73767 0.21352 0.0
H19 H 0.03255 0.73089 0.21889 0.0
C20 C 0.0198 0.7957 0.24613 0.0
C21 C 0.01016 0.78179 0.29493 0.0
C22 C 0.02384 0.79067 0.18645 0.0
C23 C 0.01856 0.77111 0.1756 0.0
C24 C 0.00947 0.75663 0.22462 0.0
C25 C 0.0049 0.7621 0.28417 0.0
H26 H 0.69336 0.96938 0.1881 0.0
H27 H 0.74613 0.98839 0.07464 0.0
H28 H 0.74807 0.96113 0.26957 0.0
H29 H 0.78216 0.99201 0.22825 0.0
C30 C 0.78094 0.99244 0.17601 0.0
O31 O 0.76874 0.97598 0.16431 0.0
H32 H 0.77501 1.0062 0.15699 0.0
C33 C 0.70898 0.97036 0.18277 0.0
C34 C 0.71947 0.96385 0.23523 0.0
C35 C 0.71839 0.97939 0.12497 0.0
C36 C 0.73864 0.98141 0.11905 0.0
C37 C 0.74929 0.97448 0.17086 0.0
C38 C 0.73974 0.96597 0.22926 0.0
H39 H 0.47728 0.7213 0.36287 0.0
H40 H 0.48474 0.78066 0.26117 0.0
H41 H 0.50407 0.76962 0.45208 0.0
H42 H 0.49423 0.81388 0.41827 0.0
C43 C 0.48976 0.81004 0.37124 0.0
O44 O 0.50126 0.79688 0.35343 0.0
H45 H 0.47423 0.80331 0.37722 0.0
C46 C 0.48167 0.73704 0.36178 0.0
C47 C 0.49044 0.74379 0.41488 0.0
C48 C 0.47953 0.7501 0.30602 0.0
C49 C 0.48621 0.77032 0.30375 0.0
C50 C 0.49486 0.77734 0.35653 0.0
C51 C 0.49716 0.76408 0.4118 0.0
H52 H 0.20503 0.50623 0.5207 0.0
H53 H 0.25078 0.51173 0.65273 0.0
H54 H 0.26191 0.49534 0.46927 0.0
H55 H 0.28325 0.47532 0.57003 0.0
C56 C 0.28369 0.48593 0.60471 0.0
O57 O 0.27729 0.50307 0.57667 0.0
H58 H 0.27397 0.47893 0.64645 0.0
C59 C 0.21997 0.50547 0.53277 0.0
C60 C 0.23264 0.50039 0.48826 0.0
C61 C 0.22616 0.50931 0.59262 0.0
C62 C 0.24566 0.50872 0.6069 0.0
C63 C 0.25855 0.50367 0.56247 0.0
C64 C 0.25199 0.49936 0.50326 0.0
H65 H 0.00751 0.2349 0.47614 0.0
H66 H 0.99993 0.27924 0.59287 0.0
H67 H 0.01102 0.29574 0.39027 0.0
H68 H 0.02959 0.3277 0.46776 0.0
C69 C 0.02109 0.32165 0.51283 0.0
O70 O 0.00491 0.30907 0.49946 0.0
H71 H 0.03068 0.31332 0.54444 0.0
C72 C 0.00705 0.25029 0.48068 0.0
C73 C 0.00959 0.26451 0.42619 0.0
C74 C 0.00365 0.25538 0.5407 0.0
C75 C 0.00263 0.27518 0.54656 0.0
C76 C 0.00558 0.2899 0.49262 0.0
C77 C 0.00895 0.28451 0.43204 0.0
H78 H 0.31024 0.04497 0.55123 0.0
H79 H 0.26174 0.04572 0.67776 0.0
H80 H 0.26183 0.07316 0.48237 0.0
H81 H 0.24134 0.09397 0.57566 0.0
C82 C 0.23815 0.08102 0.61401 0.0
O83 O 0.24173 0.06417 0.59108 0.0
H84 H 0.24763 0.08381 0.65418 0.0
C85 C 0.29598 0.04895 0.55909 0.0
C86 C 0.28716 0.05952 0.50907 0.0
C87 C 0.28702 0.04402 0.61987 0.0
C88 C 0.26887 0.04958 0.63099 0.0
C89 C 0.25977 0.05999 0.58122 0.0
C90 C 0.269 0.06517 0.52054 0.0
H91 H 0.51706 0.31833 0.37917 0.0
H92 H 0.5271 0.25986 0.45908 0.0
H93 H 0.51433 0.27252 0.26152 0.0
H94 H 0.50389 0.22487 0.31398 0.0
C95 C 0.50604 0.2304 0.36017 0.0
O96 O 0.52193 0.24504 0.35345 0.0
H97 H 0.49254 0.23635 0.37156 0.0
C98 C 0.51763 0.30303 0.37406 0.0
C99 C 0.51474 0.29707 0.31431 0.0
C100 C 0.52216 0.28985 0.42654 0.0
C101 C 0.52367 0.27028 0.41907 0.0
C102 C 0.52065 0.26402 0.35983 0.0
C103 C 0.51648 0.27746 0.30725 0.0
Nd104 Nd 0.99817 0.01424 0.80514 0.0
Nd105 Nd 0.01386 0.02931 0.92437 0.0
C106 C 0.9819 0.992 0.72313 0.0
C107 C 0.98409 0.97335 0.69795 0.0
C108 C 0.98057 0.95472 0.73656 0.0
C109 C 0.98193 0.93733 0.71083 0.0
C110 C 0.98681 0.93807 0.64578 0.0
C111 C 0.99058 0.95678 0.60763 0.0
C112 C 0.98916 0.97412 0.63328 0.0
C113 C 0.03558 0.03328 0.79105 0.0
C114 C 0.01917 0.98493 0.91222 0.0
C115 C 0.0307 0.05205 0.00389 0.0
C116 C 0.02852 0.07102 0.02681 0.0
C117 C 0.04452 0.08598 0.02305 0.0
C118 C 0.04306 0.10376 0.04603 0.0
C119 C 0.02554 0.10707 0.07384 0.0
C120 C 0.00942 0.09212 0.07668 0.0
C121 C 0.01088 0.07436 0.0534 0.0
C122 C 0.97634 0.01046 0.93855 0.0
C123 C 0.99233 0.05849 0.81824 0.0
O124 O 0.97547 0.99068 0.78209 0.0
O125 O 0.99548 1.00709 0.70677 0.0
O126 O 0.02299 0.03483 0.7472 0.0
O127 O 0.02858 0.02124 0.83907 0.0
O128 O 0.00652 0.98662 0.86704 0.0
O129 O 0.02678 1.00037 0.93795 0.0
O130 O 0.03675 0.05318 0.94464 0.0
O131 O 0.01735 0.03682 0.02187 0.0
O132 O 0.98899 1.0088 0.98234 0.0
O133 O 0.98345 0.02244 0.89047 0.0
O134 O 0.00431 0.05673 0.86534 0.0
O135 O 0.98559 0.04338 0.78957 0.0
H136 H 0.97656 0.95351 0.78657 0.0
H137 H 0.97872 0.92327 0.74179 0.0
H138 H 0.99475 0.95812 0.55772 0.0
H139 H 0.99194 0.98821 0.60223 0.0
H140 H 0.05826 0.08387 0.00253 0.0
H141 H 0.05572 0.11495 0.04168 0.0
H142 H 0.99574 0.09392 0.09826 0.0
H143 H 0.99822 0.06317 0.05687 0.0
Nd144 Nd 0.50798 1.00785 0.82061 0.0
Nd145 Nd 0.5023 0.03824 0.91889 0.0
C146 C 0.51247 0.97919 0.75489 0.0
C147 C 0.52936 0.97571 0.71826 0.0
C148 C 0.52882 0.9588 0.6889 0.0
C149 C 0.54534 0.95534 0.65626 0.0
C150 C 0.56261 0.96879 0.65262 0.0
C151 C 0.563 0.9857 0.68242 0.0
C152 C 0.54654 0.98912 0.71486 0.0
C153 C 0.51496 0.04755 0.77239 0.0
C154 C 0.54547 0.0283 0.88671 0.0
C155 C 0.49448 0.06908 0.96948 0.0
C156 C 0.47728 0.07177 0.0063 0.0
C157 C 0.47585 0.08973 0.0279 0.0
C158 C 0.45905 0.09215 0.06134 0.0
C159 C 0.44342 0.07663 0.07334 0.0
C160 C 0.44502 0.0587 0.05107 0.0
C161 C 0.4618 0.05627 0.01835 0.0
C162 C 0.49965 0.99982 0.9824 0.0
C163 C 0.4638 0.01389 0.86428 0.0
O164 O 0.51467 0.97773 0.81631 0.0
O165 O 0.50446 0.99467 0.73181 0.0
O166 O 0.52463 0.03452 0.7539 0.0
O167 O 0.50171 0.03924 0.81243 0.0
O168 O 0.53727 0.01223 0.86539 0.0
O169 O 0.53547 0.04211 0.90141 0.0
O170 O 0.4915 0.0671 0.91009 0.0
O171 O 0.50495 0.05625 0.99735 0.0
O172 O 0.49771 0.01485 0.01083 0.0
O173 O 0.50264 1.00591 0.92402 0.0
O174 O 0.47097 0.02793 0.8969 0.0
O175 O 0.47477 1.00369 0.83412 0.0
H176 H 0.51569 0.94826 0.6914 0.0
H177 H 0.54452 0.94228 0.63328 0.0
H178 H 0.57612 0.99618 0.68145 0.0
H179 H 0.54726 1.00217 0.73791 0.0
H180 H 0.48768 0.10186 0.01889 0.0
H181 H 0.45841 0.10607 0.07836 0.0
H182 H 0.43319 0.04656 0.05818 0.0
H183 H 0.46263 0.04229 0.00201 0.0
Nd184 Nd 0.49252 0.5249 0.91738 0.0
Nd185 Nd 0.52104 0.51895 0.81531 0.0
C186 C 0.46344 0.53559 0.97878 0.0
C187 C 0.45658 0.55469 0.98125 0.0
C188 C 0.45547 0.56817 0.92552 0.0
C189 C 0.45152 0.58726 0.92917 0.0
C190 C 0.44855 0.5932 0.98859 0.0
C191 C 0.4488 0.57935 0.0441 0.0
C192 C 0.45279 0.56029 0.0404 0.0
C193 C 0.53035 0.5287 0.95161 0.0
C194 C 0.51078 0.5627 0.80731 0.0
C195 C 0.54945 0.5074 0.75335 0.0
C196 C 0.55366 0.4876 0.74389 0.0
C197 C 0.55924 0.47429 0.79464 0.0
C198 C 0.56047 0.45471 0.78725 0.0
C199 C 0.55602 0.4481 0.72925 0.0
C200 C 0.55144 0.46164 0.67771 0.0
C201 C 0.55039 0.48122 0.68485 0.0
C202 C 0.48303 0.51462 0.78212 0.0
C203 C 0.50326 0.4811 0.92611 0.0
O204 O 0.46159 0.52853 0.92506 0.0
O205 O 0.48013 0.53365 0.00398 0.0
O206 O 0.51594 0.52042 0.99041 0.0
O207 O 0.52451 0.53548 0.89817 0.0
O208 O 0.49626 0.5545 0.84783 0.0
O209 O 0.5245 0.55259 0.79284 0.0
O210 O 0.55096 0.51181 0.811 0.0
O211 O 0.53417 0.5131 0.72558 0.0
O212 O 0.49727 0.52298 0.74282 0.0
O213 O 0.48918 0.50805 0.83521 0.0
O214 O 0.51719 0.48912 0.88324 0.0
O215 O 0.48991 0.49132 0.94302 0.0
H216 H 0.45826 0.5642 0.87917 0.0
H217 H 0.45123 0.59751 0.88555 0.0
H218 H 0.44686 0.58351 0.09069 0.0
H219 H 0.45366 0.55015 0.08393 0.0
H220 H 0.56194 0.47873 0.84079 0.0
H221 H 0.564 0.44453 0.82769 0.0
H222 H 0.54823 0.45693 0.63219 0.0
H223 H 0.54627 0.49118 0.6448 0.0
Nd224 Nd 0.00298 0.53969 0.7962 0.0
Nd225 Nd 0.01152 0.50672 0.92052 0.0
C226 C 0.98925 0.56973 0.73034 0.0
C227 C 0.97134 0.57062 0.69548 0.0
C228 C 0.96611 0.58883 0.66893 0.0
C229 C 0.94844 0.58955 0.63908 0.0
C230 C 0.93569 0.57205 0.63573 0.0
C231 C 0.94114 0.55384 0.66228 0.0
C232 C 0.95878 0.55314 0.6918 0.0
C233 C 0.00352 0.50207 0.76434 0.0
C234 C 0.96687 0.50957 0.88068 0.0
C235 C 0.02487 0.47647 0.98633 0.0
C236 C 0.04225 0.47528 0.02405 0.0
C237 C 0.05121 0.4582 0.03029 0.0
C238 C 0.06878 0.45777 0.06089 0.0
C239 C 0.07771 0.47445 0.08565 0.0
C240 C 0.06844 0.49143 0.07997 0.0
C241 C 0.05098 0.49187 0.04917 0.0
C242 C 0.01131 0.54433 0.95273 0.0
C243 C 0.04764 0.53677 0.83546 0.0
O244 O 0.98659 0.56495 0.79216 0.0
O245 O 1.0022 0.56045 0.70649 0.0
O246 O 1.00148 0.51748 0.72311 0.0
O247 O 0.00516 0.50763 0.81804 0.0
O248 O 0.97291 0.52514 0.83718 0.0
O249 O 0.97851 0.49931 0.91626 0.0
O250 O 0.02839 0.48176 0.92497 0.0
O251 O 0.01132 0.48528 0.00902 0.0
O252 O 0.0136 0.52891 0.99357 0.0
O253 O 0.00915 0.53881 0.89906 0.0
O254 O 0.0416 0.52113 0.87882 0.0
O255 O 0.03596 0.54715 0.80041 0.0
H256 H 0.97555 0.60248 0.67193 0.0
H257 H 0.94462 0.60383 0.61965 0.0
H258 H 0.93184 0.54006 0.65974 0.0
H259 H 0.96256 0.53893 0.71225 0.0
H260 H 0.04485 0.44537 0.01027 0.0
H261 H 0.07559 0.44454 0.06365 0.0
H262 H 0.07467 0.50443 0.09932 0.0
H263 H 0.04444 0.50532 0.0441 0.0
H264 H 0.22224 0.06296 0.72999 0.0
H265 H 0.18785 0.05617 0.76446 0.0
H266 H 0.17284 0.08554 0.58262 0.0
H267 H 0.20717 0.09211 0.54791 0.0
H268 H 0.16007 0.08213 0.77286 0.0
H269 H 0.14027 0.03063 0.59976 0.0
H270 H 0.16505 0.03847 0.61773 0.0
H271 H 0.15241 0.05451 0.56442 0.0
C272 C 0.21156 0.06812 0.69783 0.0
C273 C 0.21727 0.07829 0.63673 0.0
C274 C 0.19198 0.06423 0.71743 0.0
C275 C 0.1778 0.07019 0.67588 0.0
C276 C 0.18353 0.08059 0.61511 0.0
H277 H 0.05294 0.05633 0.68509 0.0
H278 H 0.08763 0.06628 0.66111 0.0
C279 C 0.2031 0.08447 0.5955 0.0
C280 C 0.15699 0.06518 0.69554 0.0
H281 H 0.11438 0.03978 0.65711 0.0
C282 C 0.15006 0.07281 0.74782 0.0
C283 C 0.14402 0.05292 0.66291 0.0
C284 C 0.1508 0.04349 0.60845 0.0
C285 C 0.13036 0.06893 0.76729 0.0
C286 C 0.11737 0.05689 0.73408 0.0
C287 C 0.12436 0.04911 0.68225 0.0
C288 C 0.0964 0.05222 0.75159 0.0
C289 C 0.12352 0.07812 0.82216 0.0
C290 C 0.08981 0.04115 0.8107 0.0
C291 C 0.06995 0.03544 0.82456 0.0
C292 C 0.05642 0.04062 0.77929 0.0
C293 C 0.06305 0.05209 0.72082 0.0
C294 C 0.08285 0.05777 0.70704 0.0
H295 H 0.13426 0.09055 0.83272 0.0
H296 H 0.10953 0.08364 0.81208 0.0
H297 H 0.12125 0.06676 0.86534 0.0
H298 H 0.10003 0.03642 0.84535 0.0
H299 H 0.06523 0.02656 0.86996 0.0
H300 H 0.48597 0.21723 0.47442 0.0
H301 H 0.48941 0.18791 0.5515 0.0
H302 H 0.53647 0.17597 0.43562 0.0
H303 H 0.53303 0.20532 0.35834 0.0
H304 H 0.48561 0.14875 0.52075 0.0
H305 H 0.55741 0.17067 0.61763 0.0
H306 H 0.54346 0.18845 0.57681 0.0
H307 H 0.55673 0.17419 0.53229 0.0
C308 C 0.49719 0.20847 0.46588 0.0
C309 C 0.50923 0.21346 0.41046 0.0
C310 C 0.49914 0.19175 0.50986 0.0
C311 C 0.51331 0.17986 0.49961 0.0
C312 C 0.52566 0.18511 0.44503 0.0
H313 H 0.54146 0.06686 0.68025 0.0
H314 H 0.54117 0.09941 0.61653 0.0
C315 C 0.52365 0.20179 0.40086 0.0
C316 C 0.51417 0.16119 0.54349 0.0
H317 H 0.5433 0.13708 0.6456 0.0
C318 C 0.49816 0.14623 0.54845 0.0
C319 C 0.53062 0.15791 0.5791 0.0
C320 C 0.548 0.17368 0.57681 0.0
C321 C 0.49828 0.12791 0.587 0.0
C322 C 0.51469 0.12461 0.62303 0.0
C323 C 0.53071 0.13962 0.61821 0.0
C324 C 0.51561 0.10552 0.66484 0.0
C325 C 0.48105 0.11204 0.58704 0.0
C326 C 0.50166 0.09833 0.71433 0.0
C327 C 0.5017 0.07967 0.75034 0.0
C328 C 0.51589 0.06797 0.73831 0.0
C329 C 0.53032 0.07553 0.69054 0.0
C330 C 0.53019 0.09413 0.65419 0.0
H331 H 0.47235 0.1149 0.54435 0.0
H332 H 0.48566 0.09723 0.58864 0.0
H333 H 0.47152 0.11173 0.62965 0.0
H334 H 0.49052 0.107 0.7244 0.0
H335 H 0.49029 0.0742 0.78632 0.0
H336 H 0.29802 0.47766 0.7237 0.0
H337 H 0.33174 0.48346 0.75488 0.0
H338 H 0.34945 0.50936 0.56191 0.0
H339 H 0.31568 0.50359 0.53056 0.0
H340 H 0.36378 0.46856 0.70356 0.0
H341 H 0.37451 0.55069 0.66956 0.0
H342 H 0.35079 0.53607 0.67618 0.0
H343 H 0.36496 0.53981 0.60289 0.0
C344 C 0.3091 0.48477 0.68812 0.0
C345 C 0.30426 0.4904 0.62485 0.0
C346 C 0.32833 0.48803 0.70594 0.0
C347 C 0.34307 0.49708 0.66093 0.0
C348 C 0.33827 0.50271 0.59767 0.0
H349 H 0.46789 0.5272 0.66872 0.0
H350 H 0.4339 0.52251 0.64031 0.0
C351 C 0.31903 0.49938 0.57977 0.0
C352 C 0.36354 0.49989 0.67968 0.0
H353 H 0.40235 0.53512 0.69086 0.0
C354 C 0.37221 0.48311 0.70112 0.0
C355 C 0.3745 0.51888 0.67618 0.0
C356 C 0.36573 0.53744 0.65548 0.0
C357 C 0.39168 0.48477 0.71796 0.0
C358 C 0.40265 0.50377 0.71469 0.0
C359 C 0.39394 0.52056 0.69339 0.0
C360 C 0.42326 0.50656 0.73246 0.0
C361 C 0.40044 0.46612 0.73736 0.0
C362 C 0.42859 0.49938 0.79396 0.0
C363 C 0.44803 0.50192 0.81012 0.0
C364 C 0.46247 0.51191 0.76531 0.0
C365 C 0.45709 0.51937 0.70415 0.0
C366 C 0.43767 0.51674 0.68792 0.0
H367 H 0.39197 0.45315 0.72057 0.0
H368 H 0.41559 0.46773 0.71831 0.0
H369 H 0.40052 0.463 0.79004 0.0
H370 H 0.4177 0.49189 0.82961 0.0
H371 H 0.45175 0.49608 0.85771 0.0
H372 H 0.01665 0.32337 0.64079 0.0
H373 H 0.01126 0.3519 0.69208 0.0
H374 H 0.00829 0.38665 0.50759 0.0
H375 H 0.01344 0.35809 0.45651 0.0
H376 H 0.03416 0.38797 0.68227 0.0
H377 H 0.96128 0.39899 0.59964 0.0
H378 H 0.97138 0.37663 0.5937 0.0
H379 H 0.97804 0.39833 0.53527 0.0
C380 C 0.01454 0.33703 0.61133 0.0
C381 C 0.01555 0.33852 0.5446 0.0
C382 C 0.01154 0.35337 0.64065 0.0
C383 C 0.0092 0.37151 0.60396 0.0
C384 C 0.00968 0.37281 0.53725 0.0
H385 H 0.00464 0.49239 0.64588 0.0
H386 H 0.00573 0.46009 0.61389 0.0
C387 C 0.0127 0.35648 0.50796 0.0
C388 C 0.00728 0.38932 0.63499 0.0
H389 H 0.97932 0.42598 0.64135 0.0
C390 C 0.02204 0.39613 0.67397 0.0
C391 C 0.99145 0.40004 0.62461 0.0
C392 C 0.97454 0.39303 0.58657 0.0
C393 C 0.02183 0.41373 0.70021 0.0
C394 C 0.0063 0.42477 0.68809 0.0
C395 C 0.99129 0.41764 0.65063 0.0
C396 C 0.00596 0.44443 0.70965 0.0
C397 C 0.03867 0.42081 0.73845 0.0
C398 C 0.00564 0.4466 0.77454 0.0
C399 C 0.00502 0.46527 0.79318 0.0
C400 C 0.00471 0.4821 0.74725 0.0
C401 C 0.00496 0.47979 0.68261 0.0
C402 C 0.00554 0.46126 0.66413 0.0
H403 H 0.05124 0.4129 0.73254 0.0
H404 H 0.04339 0.43692 0.72437 0.0
H405 H 0.03412 0.41816 0.78963 0.0
H406 H 0.00555 0.43382 0.81082 0.0
H407 H 0.00446 0.46647 0.8433 0.0
H408 H 0.81298 0.97891 0.2289 0.0
H409 H 0.84495 0.97985 0.17747 0.0
H410 H 0.82432 1.00655 1.0001 0.0
H411 H 0.79239 1.00584 0.05177 0.0
H412 H 0.85566 0.96319 0.07008 0.0
H413 H 0.87257 0.04528 0.02911 0.0
H414 H 0.85307 0.03218 0.0826 0.0
H415 H 0.85019 0.03523 0.99813 0.0
C416 C 0.81537 0.98508 0.17906 0.0
C417 C 0.80048 0.99278 0.14452 0.0
C418 C 0.83355 0.98552 0.14968 0.0
C419 C 0.83709 0.9936 0.08529 0.0
C420 C 0.82201 1.00066 0.05017 0.0
H421 H 0.94679 0.01957 0.86231 0.0
H422 H 0.91204 0.01347 0.8911 0.0
C423 C 0.80383 1.00023 0.07956 0.0
C424 C 0.85667 0.99483 0.05539 0.0
H425 H 0.89564 0.02767 0.99051 0.0
C426 C 0.86439 0.97727 0.05242 0.0
C427 C 0.86798 0.01323 0.03213 0.0
C428 C 0.86066 0.03259 0.03595 0.0
C429 C 0.88321 0.97762 0.02719 0.0
C430 C 0.89469 0.99603 0.00546 0.0
C431 C 0.88678 0.01356 0.00701 0.0
C432 C 0.91536 0.99763 0.985 0.0
C433 C 0.89059 0.95828 0.02385 0.0
C434 C 0.92872 0.99057 0.02795 0.0
C435 C 0.94851 0.99402 0.01163 0.0
C436 C 0.95533 1.00474 0.95225 0.0
C437 C 0.94192 0.01125 0.90841 0.0
C438 C 0.9221 1.0078 0.92481 0.0
H439 H 0.87848 0.94604 0.02304 0.0
H440 H 0.90024 0.9593 0.98103 0.0
H441 H 0.89897 0.95447 0.0666 0.0
H442 H 0.92391 0.98305 0.07512 0.0
H443 H 0.95852 0.98887 0.0464 0.0
H444 H 0.46938 0.81668 0.2633 0.0
H445 H 0.47157 0.84713 0.18588 0.0
H446 H 0.51703 0.87489 0.29129 0.0
H447 H 0.51496 0.84442 0.36819 0.0
H448 H 0.46504 0.88377 0.21168 0.0
H449 H 0.53932 0.88835 0.10864 0.0
H450 H 0.52657 0.86596 0.15416 0.0
H451 H 0.53834 0.88532 0.19399 0.0
C452 C 0.47991 0.82928 0.26947 0.0
C453 C 0.4918 0.82838 0.32205 0.0
C454 C 0.48117 0.84662 0.22532 0.0
C455 C 0.49457 0.86325 0.23245 0.0
C456 C 0.50681 0.86216 0.28415 0.0
H457 H 0.49286 0.98669 0.1084 0.0
H458 H 0.49098 0.95286 0.16412 0.0
C459 C 0.50552 0.84483 0.32831 0.0
C460 C 0.49489 0.88214 0.18844 0.0
H461 H 0.52459 0.91789 0.08957 0.0
C462 C 0.47801 0.89112 0.18448 0.0
C463 C 0.51173 0.89163 0.15228 0.0
C464 C 0.52997 0.88224 0.15186 0.0
C465 C 0.47775 0.90966 0.1474 0.0
C466 C 0.49487 0.91962 0.11396 0.0
C467 C 0.51153 0.91031 0.11577 0.0
C468 C 0.49597 0.94008 0.07939 0.0
C469 C 0.45915 0.91851 0.14458 0.0
C470 C 0.49974 0.94421 0.0133 0.0
C471 C 0.50081 0.96361 0.98126 0.0
C472 C 0.49836 0.97918 0.01489 0.0
C473 C 0.49475 0.97499 0.08108 0.0
C474 C 0.49359 0.95565 0.11299 0.0
H475 H 0.44634 0.90704 0.15805 0.0
H476 H 0.45957 0.92933 0.17842 0.0
H477 H 0.4573 0.9264 0.09617 0.0
H478 H 0.5017 0.93242 0.9865 0.0
H479 H 0.50354 0.9664 0.93041 0.0
H480 H 0.7158 0.54118 0.03188 0.0
H481 H 0.68321 0.54391 0.99312 0.0
H482 H 0.65898 0.524 0.18361 0.0
H483 H 0.69149 0.52171 0.22249 0.0
H484 H 0.65229 0.51512 0.99599 0.0
H485 H 0.6332 0.57246 0.13264 0.0
H486 H 0.65766 0.56716 0.12517 0.0
H487 H 0.64064 0.55182 0.18269 0.0
C488 C 0.70349 0.53771 0.06544 0.0
C489 C 0.70615 0.53158 0.13028 0.0
C490 C 0.68491 0.53919 0.04332 0.0
C491 C 0.66865 0.53454 0.08564 0.0
C492 C 0.67131 0.52821 0.15033 0.0
H493 H 0.54464 0.51603 0.06612 0.0
H494 H 0.57861 0.51833 0.09481 0.0
C495 C 0.68988 0.52681 0.17247 0.0
C496 C 0.64883 0.53536 0.06188 0.0
H497 H 0.607 0.55426 0.08546 0.0
C498 C 0.64247 0.52387 0.01499 0.0
C499 C 0.63601 0.54683 0.08653 0.0
C500 C 0.64227 0.56042 0.13405 0.0
C501 C 0.62345 0.52296 0.99385 0.0
C502 C 0.61051 0.53396 0.01993 0.0
C503 C 0.61695 0.54576 0.06582 0.0
C504 C 0.59001 0.53286 0.00189 0.0
C505 C 0.61711 0.50975 0.94532 0.0
C506 C 0.58516 0.54047 0.94026 0.0
C507 C 0.56574 0.53927 0.92383 0.0
C508 C 0.55088 0.53039 0.96876 0.0
C509 C 0.55578 0.52292 0.03049 0.0
C510 C 0.57517 0.52424 0.04697 0.0
H511 H 0.62773 0.49962 0.93824 0.0
H512 H 0.60283 0.50079 0.96001 0.0
H513 H 0.61552 0.51903 0.899 0.0
H514 H 0.5964 0.5474 0.90501 0.0
H515 H 0.56237 0.54523 0.87599 0.0
H516 H 0.03651 0.7211 0.1139 0.0
H517 H 0.03388 0.69315 0.05389 0.0
H518 H 0.98764 0.66202 0.18332 0.0
H519 H 0.9902 0.69004 0.24306 0.0
H520 H 0.04033 0.65561 0.10103 0.0
H521 H 0.96613 0.65266 0.01189 0.0
H522 H 0.9784 0.67405 0.04168 0.0
H523 H 0.96696 0.65299 0.09604 0.0
C524 C 0.02555 0.70844 0.12877 0.0
C525 C 0.01364 0.70771 0.18346 0.0
C526 C 0.02408 0.69242 0.09455 0.0
C527 C 0.01048 0.67541 0.11358 0.0
C528 C 0.99803 0.67503 0.16674 0.0
H529 H 0.01302 0.55436 0.0709 0.0
H530 H 0.01298 0.58681 0.10312 0.0
C531 C 0.99954 0.69103 0.20109 0.0
C532 C 0.01045 0.65751 0.08132 0.0
H533 H 0.98153 0.62388 0.00834 0.0
C534 C 0.0275 0.64885 0.08018 0.0
C535 C 0.99382 0.64863 0.05341 0.0
C536 C 0.97533 0.65765 0.05014 0.0
C537 C 0.02815 0.6313 0.05437 0.0
C538 C 0.0113 0.62195 0.02908 0.0
C539 C 0.99444 0.63095 0.02795 0.0
C540 C 0.01072 0.60217 0.008 0.0
C541 C 0.04686 0.62269 0.05501 0.0
C542 C 0.00922 0.59981 0.94354 0.0
C543 C 0.00937 0.58109 0.9247 0.0
C544 C 0.01072 0.56438 0.97013 0.0
C545 C 0.01195 0.56686 0.03452 0.0
C546 C 0.01195 0.58546 0.05315 0.0
H547 H 0.05948 0.63375 0.06221 0.0
H548 H 0.04602 0.61012 0.09452 0.0
H549 H 0.04935 0.61698 0.00982 0.0
H550 H 0.0083 0.61249 0.90774 0.0
H551 H 0.00872 0.57977 0.87475 0.0
H552 H 0.02942 0.23102 0.58064 0.0
H553 H 0.02235 0.19888 0.64777 0.0
H554 H 0.96483 0.2108 0.69045 0.0
H555 H 0.97181 0.24299 0.62114 0.0
H556 H 0.01087 0.18406 0.76857 0.0
H557 H 0.95368 0.16221 0.6034 0.0
H558 H 0.97009 0.18508 0.58653 0.0
H559 H 0.95014 0.18272 0.64312 0.0
C560 C 0.01546 0.22701 0.60588 0.0
C561 C 1.00111 0.23933 0.59563 0.0
C562 C 0.01139 0.20862 0.64406 0.0
C563 C 0.99289 0.2022 0.67277 0.0
C564 C 0.97905 0.21527 0.66744 0.0
H565 H 0.98282 0.08354 0.89608 0.0
H566 H 0.97886 0.11826 0.86645 0.0
C567 C 0.98312 0.23375 0.62876 0.0
C568 C 0.98799 0.18124 0.70285 0.0
H569 H 0.96118 0.13741 0.68272 0.0
C570 C 0.99982 0.17387 0.75053 0.0
C571 C 0.97377 0.16794 0.67829 0.0
C572 C 0.96127 0.17477 0.62468 0.0
C573 C 0.99845 0.15353 0.77247 0.0
C574 C 0.98428 0.14019 0.74772 0.0
C575 C 0.97193 0.14764 0.70183 0.0
C576 C 0.98313 0.11841 0.76527 0.0
C577 C 0.01302 0.14654 0.81902 0.0
C578 C 0.98523 0.10651 0.71798 0.0
C579 C 0.9868 0.08643 0.73479 0.0
C580 C 0.98658 0.07813 0.7991 0.0
C581 C 0.98325 0.08972 0.84609 0.0
C582 C 0.98118 0.10959 0.82927 0.0
H583 H 0.02586 0.15799 0.81973 0.0
H584 H 0.0062 0.14323 0.86767 0.0
H585 H 0.01809 0.13292 0.80724 0.0
H586 H 0.98661 0.11295 0.6682 0.0
H587 H 0.98945 0.07777 0.69784 0.0
H588 H 0.30217 0.05852 0.72301 0.0
H589 H 0.32822 0.04598 0.78574 0.0
H590 H 0.32234 0.99441 0.69161 0.0
H591 H 0.29665 1.00714 0.628 0.0
H592 H 0.33595 1.00857 0.86402 0.0
H593 H 0.37571 0.02745 0.62864 0.0
H594 H 0.35273 0.03543 0.64317 0.0
H595 H 0.3537 0.01036 0.63139 0.0
C596 C 0.30592 0.04413 0.71785 0.0
C597 C 0.29756 0.03376 0.67088 0.0
C598 C 0.3208 0.037 0.75346 0.0
C599 C 0.32736 0.01945 0.74241 0.0
C600 C 0.31757 1.00808 0.70029 0.0
H601 H 0.44253 0.98709 0.80031 0.0
H602 H 0.40799 0.98462 0.77982 0.0
C603 C 0.30288 0.01528 0.6643 0.0
C604 C 0.34625 0.01487 0.76609 0.0
H605 H 0.39288 0.01494 0.71516 0.0
C606 C 0.3484 0.00978 0.83163 0.0
C607 C 0.36245 0.0166 0.72355 0.0
C608 C 0.36118 0.02291 0.65281 0.0
C609 C 0.36644 1.00634 0.85579 0.0
C610 C 0.3827 1.00841 0.81322 0.0
C611 C 0.38038 0.01315 0.74767 0.0
C612 C 0.40263 1.00738 0.83502 0.0
C613 C 0.3679 1.00052 0.92652 0.0
C614 C 0.41102 0.02077 0.87366 0.0
C615 C 0.43072 0.0222 0.88555 0.0
C616 C 0.44252 0.01043 0.85833 0.0
C617 C 0.43391 0.99643 0.82181 0.0
C618 C 0.41415 0.99496 0.81017 0.0
H619 H 0.35374 0.99323 0.94915 0.0
H620 H 0.37883 0.99039 0.93727 0.0
H621 H 0.37233 0.01401 0.94834 0.0
H622 H 0.40257 0.03086 0.89204 0.0
H623 H 0.4368 0.03316 0.91395 0.0
H624 H 0.50063 0.31187 0.48712 0.0
H625 H 0.51077 0.33064 0.57214 0.0
H626 H 0.56272 0.30332 0.58999 0.0
H627 H 0.55287 0.28489 0.50279 0.0
H628 H 0.52169 0.32348 0.69733 0.0
H629 H 0.58377 0.36153 0.535 0.0
H630 H 0.5644 0.34505 0.50795 0.0
H631 H 0.58221 0.33527 0.55836 0.0
C632 C 0.51406 0.30961 0.50987 0.0
C633 C 0.52617 0.29727 0.48753 0.0
C634 C 0.51979 0.32024 0.55873 0.0
C635 C 0.53771 0.31872 0.58638 0.0
C636 C 0.54902 0.305 0.56834 0.0
H637 H 0.583 0.42337 0.76067 0.0
H638 H 0.58121 0.38862 0.74413 0.0
C639 C 0.5433 0.29436 0.51901 0.0
C640 C 0.54514 0.33337 0.62759 0.0
H641 H 0.57588 0.37674 0.62064 0.0
C642 C 0.53388 0.33485 0.68163 0.0
C643 C 0.56112 0.34817 0.60721 0.0
C644 C 0.57357 0.34761 0.54884 0.0
C645 C 0.53718 0.35151 0.7126 0.0
C646 C 0.55203 0.36706 0.68862 0.0
C647 C 0.56447 0.36475 0.63864 0.0
C648 C 0.5526 0.38706 0.70614 0.0
C649 C 0.52407 0.35288 0.76844 0.0
C650 C 0.53719 0.3976 0.68977 0.0
C651 C 0.53831 0.41733 0.69817 0.0
C652 C 0.55484 0.42692 0.72325 0.0
C653 C 0.57009 0.41624 0.74134 0.0
C654 C 0.56907 0.39646 0.73209 0.0
H655 H 0.51802 0.33796 0.79361 0.0
H656 H 0.53189 0.36146 0.80273 0.0
H657 H 0.51177 0.36049 0.75105 0.0
H658 H 0.52453 0.39073 0.66844 0.0
H659 H 0.52628 0.42517 0.68449 0.0
H660 H 0.19013 0.48928 0.62274 0.0
H661 H 0.1643 0.49902 0.68396 0.0
H662 H 0.20369 0.54811 0.73195 0.0
H663 H 0.22963 0.53884 0.66748 0.0
H664 H 0.15868 0.50331 0.80459 0.0
H665 H 0.16136 0.57615 0.65002 0.0
H666 H 0.17488 0.55734 0.63008 0.0
H667 H 0.18305 0.57181 0.69059 0.0
C668 C 0.19334 0.50215 0.64636 0.0
C669 C 0.21178 0.51356 0.63915 0.0
C670 C 0.17858 0.50764 0.68176 0.0
C671 C 0.1819 0.52457 0.71139 0.0
C672 C 0.20066 0.53528 0.7081 0.0
H673 H 0.0755 0.53592 0.92285 0.0
H674 H 0.11033 0.53739 0.90216 0.0
C675 C 0.21552 0.52984 0.672 0.0
C676 C 0.16519 0.5311 0.74248 0.0
H677 H 0.13564 0.56685 0.72552 0.0
C678 C 0.15375 0.51733 0.78808 0.0
C679 C 0.15875 0.54936 0.72043 0.0
C680 C 0.17002 0.56451 0.66978 0.0
C681 C 0.13549 0.52066 0.80912 0.0
C682 C 0.12881 0.53875 0.78594 0.0
C683 C 0.14079 0.55305 0.7433 0.0
C684 C 0.10864 0.54208 0.79959 0.0
C685 C 0.12307 0.50411 0.85226 0.0
C686 C 0.09636 0.54602 0.74903 0.0
C687 C 0.07657 0.54595 0.76087 0.0
C688 C 0.06874 0.54162 0.8234 0.0
C689 C 0.08121 0.53909 0.87411 0.0
C690 C 0.10107 0.53972 0.86232 0.0
H691 H 0.12847 0.4897 0.85266 0.0
H692 H 0.12326 0.50745 0.9017 0.0
H693 H 0.10785 0.50242 0.83735 0.0
H694 H 0.10187 0.54803 0.70018 0.0
H695 H 0.06723 0.54784 0.72101 0.0
H696 H 0.05766 0.81552 0.1849 0.0
H697 H 0.06452 0.8488 0.12365 0.0
H698 H 0.01377 0.83657 0.01568 0.0
H699 H 0.00696 0.80316 0.07664 0.0
H700 H 0.0482 0.86379 0.947 0.0
H701 H 0.02363 0.88357 0.17706 0.0
H702 H 0.04337 0.86936 0.17953 0.0
H703 H 0.01976 0.85852 0.16014 0.0
C704 C 0.04851 0.81965 0.14604 0.0
C705 C 0.03176 0.80689 0.13544 0.0
C706 C 0.05236 0.83868 0.11146 0.0
C707 C 0.03944 0.8452 0.06614 0.0
C708 C 0.02389 0.83176 0.05061 0.0
H709 H 0.00515 0.9504 0.87085 0.0
H710 H 0.01329 0.91758 0.90567 0.0
C711 C 0.02007 0.81266 0.08508 0.0
C712 C 0.04019 0.86659 0.04305 0.0
H713 H 0.03048 0.9093 0.0914 0.0
C714 C 0.04452 0.87382 0.97852 0.0
C715 C 0.03541 0.8796 0.08452 0.0
C716 C 0.03014 0.87246 0.15412 0.0
C717 C 0.04397 0.89378 0.95411 0.0
C718 C 0.03847 0.90663 0.99514 0.0
C719 C 0.03475 0.89948 0.06006 0.0
C720 C 0.03475 0.92701 0.97116 0.0
C721 C 0.04924 0.90087 0.88461 0.0
C722 C 0.0437 0.94328 0.99769 0.0
C723 C 0.03884 0.96222 0.97845 0.0
C724 C 0.02487 0.96514 0.9326 0.0
C725 C 0.01605 0.94879 0.90605 0.0
C726 C 0.02085 0.92995 0.92539 0.0
H727 H 0.05936 0.89178 0.86602 0.0
H728 H 0.03594 0.89944 0.85693 0.0
H729 H 0.05604 0.91659 0.87639 0.0
H730 H 0.05431 0.94129 0.0337 0.0
H731 H 0.0459 0.97448 0.99983 0.0
H732 H 0.68784 0.96042 0.071 0.0
H733 H 0.66287 0.97587 0.0116 0.0
H734 H 0.69655 0.03331 0.00857 0.0
H735 H 0.72175 0.01782 0.06806 0.0
H736 H 0.6474 1.00754 0.0789 0.0
H737 H 0.67056 0.0304 0.82335 0.0
H738 H 0.67844 0.00905 0.8696 0.0
H739 H 0.68774 0.03333 0.8849 0.0
C740 C 0.69024 0.97626 0.05551 0.0
C741 C 0.70663 0.98797 0.074 0.0
C742 C 0.67599 0.98506 0.02179 0.0
C743 C 0.67791 1.00569 0.006 0.0
C744 C 0.69496 0.01734 0.01991 0.0
H745 H 0.56791 0.05402 0.95222 0.0
H746 H 0.60212 0.05373 0.97678 0.0
C747 C 0.70934 1.0085 0.05354 0.0
C748 C 0.66076 0.0148 0.98488 0.0
H749 H 0.6387 0.03418 0.85332 0.0
C750 C 0.64555 0.01371 0.02982 0.0
C751 C 0.65857 0.02277 0.92092 0.0
C752 C 0.67462 0.02403 0.87146 0.0
C753 C 0.62773 0.01947 0.01195 0.0
C754 C 0.62522 0.02686 0.94742 0.0
C755 C 0.64076 0.02873 0.90285 0.0
C756 C 0.6058 0.02983 0.92439 0.0
C757 C 0.61137 0.01639 0.06155 0.0
C758 C 0.59688 0.01713 0.88457 0.0
C759 C 0.5775 0.01729 0.87044 0.0
C760 C 0.56659 0.03018 0.89582 0.0
C761 C 0.57587 0.0438 0.93246 0.0
C762 C 0.59538 0.04362 0.94663 0.0
H763 H 0.61487 1.00755 0.10677 0.0
H764 H 0.60839 0.03096 0.07209 0.0
H765 H 0.59796 1.00874 0.04379 0.0
H766 H 0.60466 1.0064 0.8668 0.0
H767 H 0.57094 1.00681 0.84114 0.0
H768 H 0.44786 0.72233 0.30245 0.0
H769 H 0.43968 0.70319 0.21658 0.0
H770 H 0.48457 0.74054 0.09522 0.0
H771 H 0.4934 0.7593 0.18217 0.0
H772 H 0.42983 0.70912 0.0889 0.0
H773 H 0.50323 0.68668 0.11759 0.0
H774 H 0.493 0.70042 0.17226 0.0
H775 H 0.50239 0.71263 0.0951 0.0
C776 C 0.45581 0.72666 0.25715 0.0
C777 C 0.47159 0.74198 0.24954 0.0
C778 C 0.45101 0.71581 0.20793 0.0
C779 C 0.46184 0.72015 0.1501 0.0
C780 C 0.47631 0.73672 0.14002 0.0
H781 H 0.46943 0.62647 0.92092 0.0
H782 H 0.4707 0.66048 0.94151 0.0
C783 C 0.48122 0.74753 0.18954 0.0
C784 C 0.45961 0.70563 0.10506 0.0
H785 H 0.48215 0.6696 0.05469 0.0
C786 C 0.44136 0.70071 0.08028 0.0
C787 C 0.47468 0.69463 0.094 0.0
C788 C 0.4944 0.69868 0.12136 0.0
C789 C 0.43756 0.68454 0.04706 0.0
C790 C 0.45232 0.67291 0.03928 0.0
C791 C 0.47086 0.67858 0.06058 0.0
C792 C 0.44848 0.65344 0.01699 0.0
C793 C 0.41766 0.67977 0.02207 0.0
C794 C 0.43523 0.63826 0.05152 0.0
C795 C 0.43439 0.61882 0.03968 0.0
C796 C 0.44694 0.61415 0.99348 0.0
C797 C 0.45942 0.62956 0.95643 0.0
C798 C 0.46022 0.64902 0.96826 0.0
H799 H 0.41066 0.6933 0.0111 0.0
H800 H 0.41823 0.67272 0.97855 0.0
H801 H 0.40842 0.6694 0.05902 0.0
H802 H 0.42633 0.64121 0.09029 0.0
H803 H 0.42448 0.60731 0.06851 0.0
H804 H 0.78588 0.51221 0.04198 0.0
H805 H 0.81101 0.50106 0.97937 0.0
H806 H 0.85029 0.55346 0.00165 0.0
H807 H 0.82508 0.56509 0.06036 0.0
H808 H 0.85576 0.54394 0.88861 0.0
H809 H 0.85362 0.47656 0.06946 0.0
H810 H 0.83179 0.4789 0.02751 0.0
H811 H 0.83993 0.49616 0.08025 0.0
C812 C 0.79971 0.52156 0.03184 0.0
C813 C 0.80367 0.53932 0.05719 0.0
C814 C 0.81415 0.51504 0.99691 0.0
C815 C 0.83277 0.52609 0.98761 0.0
C816 C 0.83614 0.54453 0.00872 0.0
H817 H 0.9469 0.5017 0.99462 0.0
H818 H 0.91223 0.50226 0.01192 0.0
C819 C 0.82175 0.55112 0.0427 0.0
C820 C 0.84936 0.51828 0.96033 0.0
H821 H 0.87884 0.48281 0.99219 0.0
C822 C 0.86071 0.53042 0.9106 0.0
C823 C 0.85583 0.50068 0.98944 0.0
C824 C 0.84479 0.48736 0.04491 0.0
C825 C 0.87894 0.5263 0.89219 0.0
C826 C 0.88565 0.50892 0.92238 0.0
C827 C 0.8737 0.49608 0.96912 0.0
C828 C 0.90584 0.50511 0.91187 0.0
C829 C 0.8913 0.54142 0.844 0.0
C830 C 0.91366 0.50545 0.85032 0.0
C831 C 0.93355 0.5057 0.84041 0.0
C832 C 0.94578 0.50471 0.89212 0.0
C833 C 0.93771 0.50232 0.9541 0.0
C834 C 0.91791 0.5027 0.96388 0.0
H835 H 0.88591 0.55595 0.8376 0.0
H836 H 0.90655 0.54376 0.85841 0.0
H837 H 0.89102 0.53616 0.79718 0.0
H838 H 0.90458 0.50652 0.80963 0.0
H839 H 0.93949 0.50743 0.79213 0.0
H840 H 0.98237 0.25199 0.34577 0.0
H841 H 0.98597 0.22834 0.27225 0.0
H842 H 0.04731 0.23454 0.3016 0.0
H843 H 0.04366 0.25808 0.37532 0.0
H844 H 0.01064 0.22654 0.15896 0.0
H845 H 0.02592 0.17592 0.37441 0.0
H846 H 0.01584 0.19837 0.37882 0.0
H847 H 0.04123 0.19943 0.36065 0.0
C848 C 0.99674 0.24907 0.3339 0.0
C849 C 0.0128 0.25722 0.36512 0.0
C850 C 0.99877 0.23535 0.29248 0.0
C851 C 0.01686 0.22938 0.28215 0.0
C852 C 0.03317 0.23876 0.30924 0.0
H853 H 0.05325 0.12825 0.13712 0.0
H854 H 0.0512 0.15845 0.18203 0.0
C855 C 0.03114 0.25247 0.35056 0.0
C856 C 0.01832 0.21191 0.24936 0.0
H857 H 0.02791 0.16422 0.27626 0.0
C858 C 0.01442 0.2129 0.1845 0.0
C859 C 0.02312 0.19404 0.28275 0.0
C860 C 0.02662 0.19169 0.35312 0.0
C861 C 0.01567 0.19671 0.15188 0.0
C862 C 0.02051 0.17882 0.18534 0.0
C863 C 0.02429 0.17787 0.25031 0.0
C864 C 0.02187 0.1609 0.15434 0.0
C865 C 0.01228 0.19914 0.08151 0.0
C866 C 0.00606 0.15196 0.12375 0.0
C867 C 0.00727 0.13471 0.09711 0.0
C868 C 0.02427 0.12579 0.10091 0.0
C869 C 0.04003 0.13477 0.13191 0.0
C870 C 0.03883 0.15203 0.15823 0.0
H871 H 0.01441 0.21497 0.0598 0.0
H872 H 0.02213 0.19128 0.05625 0.0
H873 H 0.99714 0.19283 0.07403 0.0
H874 H 0.99262 0.15813 0.12126 0.0
H875 H 0.99486 0.12842 0.07333 0.0
H876 H 0.30384 0.03489 0.44391 0.0
H877 H 0.32657 0.04406 0.35244 0.0
H878 H 0.31673 0.10478 0.33929 0.0
H879 H 0.29423 0.09567 0.43282 0.0
H880 H 0.32523 0.06185 0.22852 0.0
H881 H 0.37475 0.10875 0.36624 0.0
H882 H 0.35397 0.09227 0.40328 0.0
H883 H 0.35084 0.11516 0.35513 0.0
C884 C 0.30633 0.05016 0.42104 0.0
C885 C 0.29753 0.06463 0.44602 0.0
C886 C 0.31926 0.05538 0.36862 0.0
C887 C 0.32368 0.07518 0.33988 0.0
C888 C 0.31383 0.08948 0.36164 0.0
H889 H 0.42464 0.10936 0.06718 0.0
H890 H 0.39454 0.11224 0.12451 0.0
C891 C 0.30083 0.08424 0.41451 0.0
C892 C 0.3397 0.08057 0.29081 0.0
H893 H 0.38687 0.1025 0.26901 0.0
C894 C 0.33857 0.07107 0.23672 0.0
C895 C 0.35714 0.09258 0.30163 0.0
C896 C 0.35943 0.10271 0.35982 0.0
C897 C 0.3547 0.07241 0.1951 0.0
C898 C 0.37238 0.08347 0.208 0.0
C899 C 0.37322 0.09404 0.25951 0.0
C900 C 0.39063 0.08215 0.17347 0.0
C901 C 0.35299 0.06131 0.13903 0.0
C902 C 0.39854 0.06444 0.1834 0.0
C903 C 0.4158 0.06283 0.15178 0.0
C904 C 0.42549 0.07887 0.10907 0.0
C905 C 0.41766 0.09676 0.10005 0.0
C906 C 0.4004 0.0984 0.13232 0.0
H907 H 0.33765 0.05755 0.12673 0.0
H908 H 0.36126 0.07011 0.0967 0.0
H909 H 0.35914 0.04731 0.15094 0.0
H910 H 0.39138 0.05186 0.216 0.0
H911 H 0.4216 0.049 0.1612 0.0
H912 H 0.5324 0.30562 0.19508 0.0
H913 H 0.52923 0.33403 0.11345 0.0
H914 H 0.48518 0.35074 0.23104 0.0
H915 H 0.48806 0.32234 0.31189 0.0
H916 H 0.4775 0.35536 0.09875 0.0
H917 H 0.55161 0.39021 0.14608 0.0
H918 H 0.54961 0.3659 0.12395 0.0
H919 H 0.53883 0.3692 0.19823 0.0
C920 C 0.52172 0.31509 0.20268 0.0
C921 C 0.51061 0.3119 0.26007 0.0
C922 C 0.52006 0.33141 0.15638 0.0
C923 C 0.50723 0.34471 0.16678 0.0
C924 C 0.49526 0.34076 0.22219 0.0
H925 H 0.47892 0.45984 0.0226 0.0
H926 H 0.47956 0.42592 0.07445 0.0
C927 C 0.49696 0.32457 0.26841 0.0
C928 C 0.50706 0.36348 0.12267 0.0
H929 H 0.53394 0.40858 0.07258 0.0
C930 C 0.48989 0.36695 0.0925 0.0
C931 C 0.52323 0.3786 0.11473 0.0
C932 C 0.54185 0.37597 0.14771 0.0
C933 C 0.48839 0.38519 0.05505 0.0
C934 C 0.50436 0.40053 0.04876 0.0
C935 C 0.5217 0.39684 0.07749 0.0
C936 C 0.50324 0.42075 0.01482 0.0
C937 C 0.46973 0.38784 0.02242 0.0
C938 C 0.51657 0.42932 0.9648 0.0
C939 C 0.51637 0.44878 0.93546 0.0
C940 C 0.50287 0.46017 0.95571 0.0
C941 C 0.48943 0.45149 0.00549 0.0
C942 C 0.48968 0.43202 0.03493 0.0
H943 H 0.46147 0.3734 0.01553 0.0
H944 H 0.46053 0.39501 0.05243 0.0
H945 H 0.47249 0.39735 0.97538 0.0
H946 H 0.52724 0.42097 0.9487 0.0
H947 H 0.52693 0.45494 0.89726 0.0
H948 H 0.22145 0.52587 0.39155 0.0
H949 H 0.19928 0.51724 0.30872 0.0
H950 H 0.202 0.45538 0.36987 0.0
H951 H 0.22435 0.46405 0.45268 0.0
H952 H 0.19889 0.48993 0.20621 0.0
H953 H 0.14457 0.46667 0.40844 0.0
H954 H 0.16704 0.4825 0.41571 0.0
H955 H 0.16704 0.45664 0.41371 0.0
C956 C 0.21796 0.5105 0.38533 0.0
C957 C 0.2247 0.49561 0.4277 0.0
C958 C 0.20525 0.50558 0.33834 0.0
C959 C 0.19891 0.48569 0.33364 0.0
C960 C 0.20676 0.47082 0.37285 0.0
H961 H 0.09031 0.44405 0.16496 0.0
H962 H 0.12098 0.44446 0.21878 0.0
C963 C 0.21962 0.47576 0.41965 0.0
C964 C 0.1822 0.48068 0.29424 0.0
H965 H 0.13327 0.46644 0.30569 0.0
C966 C 0.18456 0.48456 0.22775 0.0
C967 C 0.16355 0.47369 0.32265 0.0
C968 C 0.16021 0.46969 0.39402 0.0
C969 C 0.16865 0.48183 0.18877 0.0
C970 C 0.14984 0.47563 0.21724 0.0
C971 C 0.14765 0.47119 0.2838 0.0
C972 C 0.13208 0.47476 0.1796 0.0
C973 C 0.1722 0.48558 0.11754 0.0
C974 C 0.12806 0.49164 0.13956 0.0
C975 C 0.11065 0.49137 0.10808 0.0
C976 C 0.09667 0.47432 0.11676 0.0
C977 C 0.1008 0.45737 0.15648 0.0
C978 C 0.11831 0.4576 0.18761 0.0
H979 H 0.1871 0.4833 0.10421 0.0
H980 H 0.16169 0.47577 0.09365 0.0
H981 H 0.17068 0.50117 0.0994 0.0
H982 H 0.13818 0.50522 0.13379 0.0
H983 H 0.10813 0.50462 0.07719 0.0
H984 H 0.97482 0.78898 0.33485 0.0
H985 H 0.96929 0.81246 0.40735 0.0
H986 H 0.02923 0.81701 0.45602 0.0
H987 H 0.03476 0.79372 0.38341 0.0
H988 H 0.97712 0.8171 0.54216 0.0
H989 H 0.02164 0.8731 0.3637 0.0
H990 H 0.01181 0.8489 0.34693 0.0
H991 H 0.03288 0.85191 0.39364 0.0
C992 C 0.98655 0.79424 0.36345 0.0
C993 C 0.00515 0.78927 0.3543 0.0
C994 C 0.98345 0.80785 0.40434 0.0
C995 C 0.99893 0.81678 0.43636 0.0
C996 C 0.01711 0.81049 0.43139 0.0
H997 H 0.99992 0.90364 0.69942 0.0
H998 H 1.00194 0.8738 0.65167 0.0
C999 C 0.0202 0.79696 0.39058 0.0
C1000 C 0.99672 0.83417 0.46872 0.0
H1001 H 0.01144 0.88398 0.4573 0.0
C1002 C 0.98464 0.83171 0.52376 0.0
C1003 C 0.00628 0.85334 0.44413 0.0
C1004 C 0.01876 0.85712 0.38357 0.0
C1005 C 0.98215 0.84785 0.55534 0.0
C1006 C 0.99209 0.86693 0.53154 0.0
C1007 C 0.00394 0.86937 0.47598 0.0
C1008 C 0.99009 0.88473 0.56227 0.0
C1009 C 0.96858 0.84442 0.61318 0.0
C1010 C 0.983 0.90102 0.52795 0.0
C1011 C 0.98175 0.9181 0.55519 0.0
C1012 C 0.98777 0.91951 0.61746 0.0
C1013 C 0.99485 0.9031 0.65184 0.0
C1014 C 0.99602 0.88596 0.62454 0.0
H1015 H 0.95867 0.83021 0.61647 0.0
H1016 H 0.97717 0.84391 0.65659 0.0
H1017 H 0.95977 0.85664 0.61251 0.0
H1018 H 0.97834 0.90049 0.47985 0.0
H1019 H 0.9759 0.93018 0.52737 0.0
H1020 H 0.691 0.93248 0.26257 0.0
H1021 H 0.66626 0.9278 0.34882 0.0
H1022 H 0.69787 0.97582 0.42946 0.0
H1023 H 0.72285 0.98029 0.34369 0.0
H1024 H 0.67613 0.94346 0.52209 0.0
H1025 H 0.63308 0.97401 0.32348 0.0
H1026 H 0.64288 0.95198 0.31249 0.0
H1027 H 0.65893 0.9745 0.31576 0.0
C1028 C 0.69307 0.94142 0.30034 0.0
C1029 C 0.70873 0.95677 0.29668 0.0
C1030 C 0.6789 0.93883 0.34927 0.0
C1031 C 0.68008 0.95173 0.39463 0.0
C1032 C 0.69672 0.96574 0.39478 0.0
H1033 H 0.58761 0.99604 0.57346 0.0
H1034 H 0.61658 0.99077 0.51599 0.0
C1035 C 0.71101 0.96823 0.34604 0.0
C1036 C 0.66278 0.9528 0.4346 0.0
H1037 H 0.61743 0.96589 0.42471 0.0
C1038 C 0.66323 0.94824 0.50101 0.0
C1039 C 0.64613 0.95939 0.40675 0.0
C1040 C 0.64517 0.96543 0.33578 0.0
C1041 C 0.64733 0.95002 0.5404 0.0
C1042 C 0.63062 0.95637 0.51234 0.0
C1043 C 0.63023 0.9609 0.44598 0.0
C1044 C 0.61362 0.9594 0.55061 0.0
C1045 C 0.64872 0.94564 0.61162 0.0
C1046 C 0.60227 0.94346 0.58887 0.0
C1047 C 0.58568 0.94644 0.62208 0.0
C1048 C 0.58016 0.96542 0.61743 0.0
C1049 C 0.5916 0.9813 0.5789 0.0
C1050 C 0.60812 0.97831 0.54579 0.0
H1051 H 0.66387 0.94493 0.62578 0.0
H1052 H 0.64292 0.95708 0.63501 0.0
H1053 H 0.63993 0.93115 0.62955 0.0
H1054 H 0.60608 0.92868 0.59232 0.0
H1055 H 0.57726 0.93393 0.65171 0.0
H1056 H 0.52351 0.73995 0.48059 0.0
H1057 H 0.5293 0.71162 0.55889 0.0
H1058 H 0.46963 0.68578 0.55246 0.0
H1059 H 0.4637 0.71398 0.47505 0.0
H1060 H 0.50669 0.69053 0.68558 0.0
H1061 H 0.50627 0.64745 0.48418 0.0
H1062 H 0.51064 0.67416 0.47267 0.0
H1063 H 0.48649 0.66134 0.48973 0.0
C1064 C 0.51152 0.72851 0.49735 0.0
C1065 C 0.4932 0.72906 0.47122 0.0
C1066 C 0.51486 0.71232 0.54181 0.0
C1067 C 0.49994 0.69654 0.56071 0.0
C1068 C 0.48136 0.69774 0.53801 0.0
H1069 H 0.48608 0.58868 0.82959 0.0
H1070 H 0.48533 0.62198 0.77342 0.0
C1071 C 0.47802 0.71384 0.49377 0.0
C1072 C 0.50399 0.67793 0.59897 0.0
H1073 H 0.50674 0.62962 0.58769 0.0
C1074 C 0.50686 0.67722 0.66432 0.0
C1075 C 0.50439 0.66068 0.57081 0.0
C1076 C 0.50193 0.66084 0.5004 0.0
C1077 C 0.50959 0.65946 0.70268 0.0
C1078 C 0.50926 0.642 0.67485 0.0
C1079 C 0.50695 0.64295 0.6091 0.0
C1080 C 0.5107 0.62241 0.71281 0.0
C1081 C 0.51286 0.65956 0.77253 0.0
C1082 C 0.52506 0.61138 0.69709 0.0
C1083 C 0.5254 0.59217 0.72876 0.0
C1084 C 0.51128 0.58354 0.77656 0.0
C1085 C 0.49714 0.59479 0.79301 0.0
C1086 C 0.49681 0.61397 0.76131 0.0
H1087 H 0.5184 0.67465 0.78238 0.0
H1088 H 0.49891 0.65452 0.79986 0.0
H1089 H 0.52327 0.64943 0.79004 0.0
H1090 H 0.53586 0.61753 0.65954 0.0
H1091 H 0.53649 0.58397 0.71478 0.0
H1092 H 0.8161 0.58407 0.21359 0.0
H1093 H 0.83624 0.58872 0.30428 0.0
H1094 H 0.79667 0.54442 0.42468 0.0
H1095 H 0.77659 0.53939 0.33306 0.0
H1096 H 0.83154 0.59778 0.42708 0.0
H1097 H 0.84746 0.52087 0.43023 0.0
H1098 H 0.83504 0.53331 0.36625 0.0
H1099 H 0.82242 0.52354 0.44107 0.0
C1100 C 0.81148 0.57562 0.25974 0.0
C1101 C 0.79495 0.56119 0.26625 0.0
C1102 C 0.82297 0.57831 0.31154 0.0
C1103 C 0.8182 0.56661 0.37089 0.0
C1104 C 0.8008 0.55334 0.37892 0.0
H1105 H 0.90045 0.55023 0.67442 0.0
H1106 H 0.87012 0.54965 0.61839 0.0
C1107 C 0.78924 0.55063 0.32685 0.0
C1108 C 0.83255 0.56707 0.42148 0.0
H1109 H 0.86476 0.5399 0.49835 0.0
C1110 C 0.83863 0.58506 0.4434 0.0
C1111 C 0.84187 0.55048 0.44244 0.0
C1112 C 0.83654 0.53097 0.4186 0.0
C1113 C 0.85406 0.58701 0.4846 0.0
C1114 C 0.86383 0.57062 0.50356 0.0
C1115 C 0.85724 0.55244 0.48374 0.0
C1116 C 0.88171 0.57224 0.5403 0.0
C1117 C 0.85988 0.60664 0.50693 0.0
C1118 C 0.89833 0.5851 0.51495 0.0
C1119 C 0.91572 0.58537 0.54661 0.0
C1120 C 0.9169 0.57267 0.60407 0.0
C1121 C 0.90012 0.56002 0.62984 0.0
C1122 C 0.88274 0.55976 0.59813 0.0
H1123 H 0.84769 0.61545 0.50489 0.0
H1124 H 0.86491 0.60462 0.55636 0.0
H1125 H 0.87192 0.61527 0.47542 0.0
H1126 H 0.89803 0.59449 0.46956 0.0
H1127 H 0.92841 0.59506 0.52491 0.0
loop_
_geom_bond_atom_site_label_1
_geom_bond_atom_site_label_2
_geom_bond_distance
_geom_bond_site_symmetry_2
_ccdc_geom_bond_type
H0 C7 0.929 . S
H1 C10 0.930 . S
H2 C12 0.929 . S
H3 C4 0.969 . S
C4 H3 0.969 . S
C4 O5 1.550 1_556 S
C4 H6 0.973 . S
O5 C4 1.550 1_554 S
O5 C11 1.412 . S
H6 C4 0.973 . S
C7 H0 0.929 . S
C7 C8 1.400 . S
C7 C9 1.364 1_554 S
C8 C7 1.400 . S
C8 C12 1.377 . S
C9 C7 1.364 1_556 S
C9 C10 1.374 . S
C10 H1 0.930 . S
C10 C9 1.374 . S
C10 C11 1.383 1_556 S
C11 O5 1.412 . S
C11 C10 1.383 1_554 S
C11 C12 1.394 . S
C12 H2 0.929 . S
C12 C8 1.377 . S
C12 C11 1.394 . S
H13 C20 0.929 . S
H14 C23 0.930 . S
H15 C25 0.929 . S
H16 C17 0.969 1_455 S
C17 H16 0.969 1_655 S
C17 O18 1.550 . S
C17 H19 0.973 . S
O18 C17 1.550 . S
O18 C24 1.412 . S
H19 C17 0.973 . S
C20 H13 0.929 . S
C20 C21 1.400 . S
C20 C22 1.364 . S
C21 C20 1.400 . S
C21 C25 1.377 . S
C22 C20 1.364 . S
C22 C23 1.374 . S
C23 H14 0.930 . S
C23 C22 1.374 . S
C23 C24 1.383 . S
C24 O18 1.412 . S
C24 C23 1.383 . S
C24 C25 1.394 . S
C25 H15 0.929 . S
C25 C21 1.377 . S
C25 C24 1.394 . S
H26 C33 0.929 . S
H27 C36 0.930 . S
H28 C38 0.929 . S
H29 C30 0.969 . S
C30 H29 0.969 . S
C30 O31 1.550 . S
C30 H32 0.973 . S
O31 C30 1.550 . S
O31 C37 1.412 . S
H32 C30 0.973 . S
C33 H26 0.929 . S
C33 C34 1.400 . S
C33 C35 1.364 . S
C34 C33 1.400 . S
C34 C38 1.377 . S
C35 C33 1.364 . S
C35 C36 1.374 . S
C36 H27 0.930 . S
C36 C35 1.374 . S
C36 C37 1.383 . S
C37 O31 1.412 . S
C37 C36 1.383 . S
C37 C38 1.394 . S
C38 H28 0.929 . S
C38 C34 1.377 . S
C38 C37 1.394 . S
H39 C46 0.929 . S
H40 C49 0.930 . S
H41 C51 0.929 . S
H42 C43 0.969 . S
C43 H42 0.969 . S
C43 O44 1.550 . S
C43 H45 0.973 . S
O44 C43 1.550 . S
O44 C50 1.412 . S
H45 C43 0.973 . S
C46 H39 0.929 . S
C46 C47 1.400 . S
C46 C48 1.364 . S
C47 C46 1.400 . S
C47 C51 1.377 . S
C48 C46 1.364 . S
C48 C49 1.374 . S
C49 H40 0.930 . S
C49 C48 1.374 . S
C49 C50 1.383 . S
C50 O44 1.412 . S
C50 C49 1.383 . S
C50 C51 1.394 . S
C51 H41 0.929 . S
C51 C47 1.377 . S
C51 C50 1.394 . S
H52 C59 0.929 . S
H53 C62 0.930 . S
H54 C64 0.929 . S
H55 C56 0.969 . S
C56 H55 0.969 . S
C56 O57 1.550 . S
C56 H58 0.973 . S
O57 C56 1.550 . S
O57 C63 1.412 . S
H58 C56 0.973 . S
C59 H52 0.929 . S
C59 C60 1.400 . S
C59 C61 1.364 . S
C60 C59 1.400 . S
C60 C64 1.377 . S
C61 C59 1.364 . S
C61 C62 1.374 . S
C62 H53 0.930 . S
C62 C61 1.374 . S
C62 C63 1.383 . S
C63 O57 1.412 . S
C63 C62 1.383 . S
C63 C64 1.394 . S
C64 H54 0.929 . S
C64 C60 1.377 . S
C64 C63 1.394 . S
H65 C72 0.929 . S
H66 C75 0.930 . S
H67 C77 0.929 . S
H68 C69 0.969 . S
C69 H68 0.969 . S
C69 O70 1.550 . S
C69 H71 0.973 . S
O70 C69 1.550 . S
O70 C76 1.412 . S
H71 C69 0.973 . S
C72 H65 0.929 . S
C72 C73 1.400 . S
C72 C74 1.364 . S
C73 C72 1.400 . S
C73 C77 1.377 . S
C74 C72 1.364 . S
C74 C75 1.374 . S
C75 H66 0.930 . S
C75 C74 1.374 . S
C75 C76 1.383 . S
C76 O70 1.412 . S
C76 C75 1.383 . S
C76 C77 1.394 . S
C77 H67 0.929 . S
C77 C73 1.377 . S
C77 C76 1.394 . S
H78 C85 0.929 . S
H79 C88 0.930 . S
H80 C90 0.929 . S
H81 C82 0.969 . S
C82 H81 0.969 . S
C82 O83 1.550 . S
C82 H84 0.973 . S
O83 C82 1.550 . S
O83 C89 1.412 . S
H84 C82 0.973 . S
C85 H78 0.929 . S
C85 C86 1.400 . S
C85 C87 1.364 . S
C86 C85 1.400 . S
C86 C90 1.377 . S
C87 C85 1.364 . S
C87 C88 1.374 . S
C88 H79 0.930 . S
C88 C87 1.374 . S
C88 C89 1.383 . S
C89 O83 1.412 . S
C89 C88 1.383 . S
C89 C90 1.394 . S
C90 H80 0.929 . S
C90 C86 1.377 . S
C90 C89 1.394 . S
H91 C98 0.929 . S
H92 C101 0.930 . S
H93 C103 0.929 . S
H94 C95 0.969 . S
C95 H94 0.969 . S
C95 O96 1.550 . S
C95 H97 0.973 . S
O96 C95 1.550 . S
O96 C102 1.412 . S
H97 C95 0.973 . S
C98 H91 0.929 . S
C98 C99 1.400 . S
C98 C100 1.364 . S
C99 C98 1.400 . S
C99 C103 1.377 . S
C100 C98 1.364 . S
C100 C101 1.374 . S
C101 H92 0.930 . S
C101 C100 1.374 . S
C101 C102 1.383 . S
C102 O96 1.412 . S
C102 C101 1.383 . S
C102 C103 1.394 . S
C103 H93 0.929 . S
C103 C99 1.377 . S
C103 C102 1.394 . S
Nd104 C106 2.836 1_445 S
Nd104 O124 2.500 1_445 S
Nd104 O125 2.492 1_545 S
Nd104 O126 2.487 . S
Nd104 O127 2.682 . S
Nd104 O128 2.410 1_545 S
Nd104 O133 2.414 1_455 S
Nd104 O135 2.424 . S
Nd105 C115 2.836 1_556 S
Nd105 O127 2.414 . S
Nd105 O129 2.424 1_545 S
Nd105 O130 2.500 . S
Nd105 O131 2.492 1_456 S
Nd105 O132 2.487 1_455 S
Nd105 O133 2.682 1_455 S
Nd105 O134 2.410 1_455 S
C106 Nd104 2.836 1_665 S
C106 C107 1.498 . S
C106 O124 1.258 . S
C106 O125 1.239 1_655 S
C107 C106 1.498 . S
C107 C108 1.366 . S
C107 C112 1.407 1_655 S
C108 C107 1.366 . S
C108 C109 1.392 . S
C108 H136 0.930 . S
C109 C108 1.392 . S
C109 C110 1.398 . S
C109 H137 0.929 . S
C110 C109 1.398 . S
C110 C111 1.352 1_655 S
C111 C110 1.352 1_455 S
C111 C112 1.384 . S
C111 H138 0.930 . S
C112 C107 1.407 1_455 S
C112 C111 1.384 . S
C112 H139 0.929 . S
C113 O126 1.241 . S
C113 O127 1.273 . S
C114 O128 1.251 . S
C114 O129 1.268 . S
C115 Nd105 2.836 1_554 S
C115 C116 1.498 . S
C115 O130 1.258 1_554 S
C115 O131 1.239 1_455 S
C116 C115 1.498 . S
C116 C117 1.366 . S
C116 C121 1.407 1_455 S
C117 C116 1.366 . S
C117 C118 1.392 . S
C117 H140 0.930 1_554 S
C118 C117 1.392 . S
C118 C119 1.398 . S
C118 H141 0.929 . S
C119 C118 1.398 . S
C119 C120 1.327 1_455 S
C120 C119 1.327 1_655 S
C120 C121 1.385 . S
C120 H142 0.956 . S
C121 C116 1.407 1_655 S
C121 C120 1.385 . S
C121 H143 0.929 . S
C122 O132 1.241 . S
C122 O133 1.273 . S
C123 O134 1.246 1_455 S
C123 O135 1.273 . S
O124 Nd104 2.500 1_665 S
O124 C106 1.258 . S
O125 Nd104 2.492 1_565 S
O125 C106 1.239 1_455 S
O126 Nd104 2.487 . S
O126 C113 1.241 . S
O127 Nd104 2.682 . S
O127 Nd105 2.414 . S
O127 C113 1.273 . S
O128 Nd104 2.410 1_565 S
O128 C114 1.251 . S
O129 Nd105 2.424 1_565 S
O129 C114 1.268 . S
O130 Nd105 2.500 . S
O130 C115 1.258 1_556 S
O131 Nd105 2.492 1_654 S
O131 C115 1.239 1_655 S
O132 Nd105 2.487 1_655 S
O132 C122 1.241 . S
O133 Nd104 2.414 1_655 S
O133 Nd105 2.682 1_655 S
O133 C122 1.273 . S
O134 Nd105 2.410 1_655 S
O134 C123 1.246 1_655 S
O135 Nd104 2.424 . S
O135 C123 1.273 . S
H136 C108 0.930 . S
H137 C109 0.929 . S
H138 C111 0.930 . S
H139 C112 0.929 . S
H140 C117 0.930 1_556 S
H141 C118 0.929 . S
H142 C120 0.956 . S
H143 C121 0.929 . S
Nd144 C146 2.836 1_545 S
Nd144 O164 2.500 1_545 S
Nd144 O165 2.492 . S
Nd144 O166 2.487 . S
Nd144 O167 2.682 . S
Nd144 O168 2.410 . S
Nd144 O173 2.414 1_545 S
Nd144 O175 2.424 . S
Nd145 C155 2.836 1_556 S
Nd145 O167 2.414 . S
Nd145 O169 2.424 . S
Nd145 O170 2.500 . S
Nd145 O171 2.492 1_556 S
Nd145 O172 2.487 1_545 S
Nd145 O173 2.682 1_545 S
Nd145 O174 2.410 . S
C146 Nd144 2.836 1_565 S
C146 C147 1.498 . S
C146 O164 1.258 . S
C146 O165 1.239 1_565 S
C147 C146 1.498 . S
C147 C148 1.366 . S
C147 C152 1.407 . S
C148 C147 1.366 . S
C148 C149 1.392 . S
C148 H176 0.930 . S
C149 C148 1.392 . S
C149 C150 1.398 . S
C149 H177 0.929 . S
C150 C149 1.398 . S
C150 C151 1.352 . S
C151 C150 1.352 . S
C151 C152 1.384 . S
C151 H178 0.930 . S
C152 C147 1.407 . S
C152 C151 1.384 . S
C152 H179 0.929 1_565 S
C153 O166 1.241 . S
C153 O167 1.273 . S
C154 O168 1.251 . S
C154 O169 1.268 . S
C155 Nd145 2.836 1_554 S
C155 C156 1.498 . S
C155 O170 1.258 1_554 S
C155 O171 1.239 . S
C156 C155 1.498 . S
C156 C157 1.366 . S
C156 C161 1.407 . S
C157 C156 1.366 . S
C157 C158 1.392 . S
C157 H180 0.930 1_554 S
C158 C157 1.392 . S
C158 C159 1.398 . S
C158 H181 0.929 . S
C159 C158 1.398 . S
C159 C160 1.352 . S
C160 C159 1.352 . S
C160 C161 1.384 . S
C160 H182 0.930 . S
C161 C156 1.407 . S
C161 C160 1.384 . S
C161 H183 0.929 . S
C162 O172 1.241 . S
C162 O173 1.273 . S
C163 O174 1.251 . S
C163 O175 1.268 . S
O164 Nd144 2.500 1_565 S
O164 C146 1.258 . S
O165 Nd144 2.492 . S
O165 C146 1.239 1_545 S
O166 Nd144 2.487 . S
O166 C153 1.241 . S
O167 Nd144 2.682 . S
O167 Nd145 2.414 . S
O167 C153 1.273 . S
O168 Nd144 2.410 . S
O168 C154 1.251 . S
O169 Nd145 2.424 . S
O169 C154 1.268 . S
O170 Nd145 2.500 . S
O170 C155 1.258 1_556 S
O171 Nd145 2.492 1_554 S
O171 C155 1.239 . S
O172 Nd145 2.487 1_565 S
O172 C162 1.241 . S
O173 Nd144 2.414 1_565 S
O173 Nd145 2.682 1_565 S
O173 C162 1.273 . S
O174 Nd145 2.410 . S
O174 C163 1.251 . S
O175 Nd144 2.424 . S
O175 C163 1.268 . S
H176 C148 0.930 . S
H177 C149 0.929 . S
H178 C151 0.930 . S
H179 C152 0.929 1_545 S
H180 C157 0.930 1_556 S
H181 C158 0.929 . S
H182 C160 0.930 . S
H183 C161 0.929 . S
Nd184 C186 2.836 . S
Nd184 O204 2.500 . S
Nd184 O205 2.492 . S
Nd184 O206 2.487 . S
Nd184 O207 2.682 . S
Nd184 O208 2.410 . S
Nd184 O213 2.414 . S
Nd184 O215 2.424 . S
Nd185 C195 2.836 . S
Nd185 O207 2.414 . S
Nd185 O209 2.424 . S
Nd185 O210 2.500 . S
Nd185 O211 2.492 . S
Nd185 O212 2.487 . S
Nd185 O213 2.682 . S
Nd185 O214 2.410 . S
C186 Nd184 2.836 . S
C186 C187 1.494 1_556 S
C186 O204 1.258 . S
C186 O205 1.239 . S
C187 C186 1.494 1_554 S
C187 C188 1.364 1_554 S
C187 C192 1.413 . S
C188 C187 1.364 1_556 S
C188 C189 1.392 1_556 S
C188 H216 0.930 . S
C189 C188 1.392 1_554 S
C189 C190 1.398 . S
C189 H217 0.929 1_554 S
C190 C189 1.398 . S
C190 C191 1.352 . S
C191 C190 1.352 . S
C191 C192 1.384 . S
C191 H218 0.930 . S
C192 C187 1.413 . S
C192 C191 1.384 . S
C192 H219 0.929 . S
C193 O206 1.241 . S
C193 O207 1.273 . S
C194 O208 1.251 . S
C194 O209 1.268 . S
C195 Nd185 2.836 . S
C195 C196 1.498 . S
C195 O210 1.258 . S
C195 O211 1.239 . S
C196 C195 1.498 . S
C196 C197 1.366 . S
C196 C201 1.407 . S
C197 C196 1.366 . S
C197 C198 1.392 . S
C197 H220 0.930 . S
C198 C197 1.392 . S
C198 C199 1.398 . S
C198 H221 0.929 . S
C199 C198 1.398 . S
C199 C200 1.352 . S
C200 C199 1.352 . S
C200 C201 1.384 . S
C200 H222 0.930 . S
C201 C196 1.407 . S
C201 C200 1.384 . S
C201 H223 0.929 . S
C202 O212 1.241 . S
C202 O213 1.273 . S
C203 O214 1.251 . S
C203 O215 1.268 . S
O204 Nd184 2.500 . S
O204 C186 1.258 . S
O205 Nd184 2.492 . S
O205 C186 1.239 . S
O206 Nd184 2.487 . S
O206 C193 1.241 . S
O207 Nd184 2.682 . S
O207 Nd185 2.414 . S
O207 C193 1.273 . S
O208 Nd184 2.410 . S
O208 C194 1.251 . S
O209 Nd185 2.424 . S
O209 C194 1.268 . S
O210 Nd185 2.500 . S
O210 C195 1.258 . S
O211 Nd185 2.492 . S
O211 C195 1.239 . S
O212 Nd185 2.487 . S
O212 C202 1.241 . S
O213 Nd184 2.414 . S
O213 Nd185 2.682 . S
O213 C202 1.273 . S
O214 Nd185 2.410 . S
O214 C203 1.251 . S
O215 Nd184 2.424 . S
O215 C203 1.268 . S
H216 C188 0.930 . S
H217 C189 0.929 1_556 S
H218 C191 0.930 . S
H219 C192 0.929 . S
H220 C197 0.930 . S
H221 C198 0.929 . S
H222 C200 0.930 . S
H223 C201 0.929 . S
Nd224 C226 2.789 1_455 S
Nd224 O244 2.458 1_455 S
Nd224 O245 2.451 1_455 S
Nd224 O246 2.486 1_455 S
Nd224 O247 2.695 . S
Nd224 O248 2.361 1_455 S
Nd224 O253 2.416 . S
Nd224 O255 2.483 . S
Nd225 C235 2.836 1_556 S
Nd225 O247 2.414 . S
Nd225 O249 2.424 1_455 S
Nd225 O250 2.500 1_556 S
Nd225 O251 2.492 1_556 S
Nd225 O252 2.487 . S
Nd225 O253 2.682 . S
Nd225 O254 2.410 . S
C226 Nd224 2.789 1_655 S
C226 C227 1.498 . S
C226 O244 1.258 . S
C226 O245 1.239 . S
C227 C226 1.498 . S
C227 C228 1.366 . S
C227 C232 1.407 . S
C228 C227 1.366 . S
C228 C229 1.392 . S
C228 H256 0.930 . S
C229 C228 1.392 . S
C229 C230 1.398 . S
C229 H257 0.929 . S
C230 C229 1.398 . S
C230 C231 1.352 . S
C231 C230 1.352 . S
C231 C232 1.384 . S
C231 H258 0.930 . S
C232 C227 1.407 . S
C232 C231 1.384 . S
C232 H259 0.929 . S
C233 O246 1.239 . S
C233 O247 1.274 1_655 S
C234 O248 1.251 . S
C234 O249 1.268 . S
C235 Nd225 2.836 1_554 S
C235 C236 1.498 . S
C235 O250 1.258 . S
C235 O251 1.239 . S
C236 C235 1.498 . S
C236 C237 1.366 . S
C236 C241 1.407 . S
C237 C236 1.366 . S
C237 C238 1.392 . S
C237 H260 0.930 . S
C238 C237 1.392 . S
C238 C239 1.398 . S
C238 H261 0.929 . S
C239 C238 1.398 . S
C239 C240 1.352 . S
C240 C239 1.352 . S
C240 C241 1.384 . S
C240 H262 0.930 . S
C241 C236 1.407 . S
C241 C240 1.384 . S
C241 H263 0.929 . S
C242 O252 1.241 . S
C242 O253 1.273 . S
C243 O254 1.251 . S
C243 O255 1.268 . S
O244 Nd224 2.458 1_655 S
O244 C226 1.258 . S
O245 Nd224 2.451 1_655 S
O245 C226 1.239 . S
O246 Nd224 2.486 1_655 S
O246 C233 1.239 . S
O247 Nd224 2.695 . S
O247 Nd225 2.414 . S
O247 C233 1.274 1_455 S
O248 Nd224 2.361 1_655 S
O248 C234 1.251 . S
O249 Nd225 2.424 1_655 S
O249 C234 1.268 . S
O250 Nd225 2.500 1_554 S
O250 C235 1.258 . S
O251 Nd225 2.492 1_554 S
O251 C235 1.239 . S
O252 Nd225 2.487 . S
O252 C242 1.241 . S
O253 Nd224 2.416 . S
O253 Nd225 2.682 . S
O253 C242 1.273 . S
O254 Nd225 2.410 . S
O254 C243 1.251 . S
O255 Nd224 2.483 . S
O255 C243 1.268 . S
H256 C228 0.930 . S
H257 C229 0.929 . S
H258 C231 0.930 . S
H259 C232 0.929 . S
H260 C237 0.930 . S
H261 C238 0.929 . S
H262 C240 0.930 . S
H263 C241 0.929 . S
H264 C272 0.929 . S
H265 C274 0.930 . S
H266 C276 0.930 . S
H267 C279 0.929 . S
H268 C282 0.930 . S
H269 C284 0.960 . S
H270 C284 0.960 . S
H271 C284 0.960 . S
C272 H264 0.929 . S
C272 C273 1.377 . S
C272 C274 1.384 . S
C273 C272 1.377 . S
C273 C279 1.390 . S
C274 H265 0.930 . S
C274 C272 1.384 . S
C274 C275 1.372 . S
C275 C274 1.372 . S
C275 C276 1.400 . S
C275 C280 1.490 . S
C276 H266 0.930 . S
C276 C275 1.400 . S
C276 C279 1.386 . S
H277 C293 0.930 . S
H278 C294 0.931 . S
C279 H267 0.929 . S
C279 C273 1.390 . S
C279 C276 1.386 . S
C280 C275 1.490 . S
C280 C282 1.395 . S
C280 C283 1.403 . S
H281 C287 0.930 . S
C282 H268 0.930 . S
C282 C280 1.395 . S
C282 C285 1.403 . S
C283 C280 1.403 . S
C283 C284 1.524 . S
C283 C287 1.400 . S
C284 H269 0.960 . S
C284 H270 0.960 . S
C284 H271 0.960 . S
C284 C283 1.524 . S
C285 C282 1.403 . S
C285 C286 1.392 . S
C285 C289 1.495 . S
C286 C285 1.392 . S
C286 C287 1.385 . S
C286 C288 1.478 . S
C287 H281 0.930 . S
C287 C283 1.400 . S
C287 C286 1.385 . S
C288 C286 1.478 . S
C288 C290 1.381 . S
C288 C294 1.383 . S
C289 C285 1.495 . S
C289 H295 0.959 . S
C289 H296 0.961 . S
C289 H297 0.960 . S
C290 C288 1.381 . S
C290 C291 1.394 . S
C290 H298 0.930 . S
C291 C290 1.394 . S
C291 C292 1.383 . S
C291 H299 0.929 . S
C292 C291 1.383 . S
C292 C293 1.377 . S
C293 H277 0.930 . S
C293 C292 1.377 . S
C293 C294 1.379 . S
C294 H278 0.931 . S
C294 C288 1.383 . S
C294 C293 1.379 . S
H295 C289 0.959 . S
H296 C289 0.961 . S
H297 C289 0.960 . S
H298 C290 0.930 . S
H299 C291 0.929 . S
H300 C308 0.929 . S
H301 C310 0.930 . S
H302 C312 0.930 . S
H303 C315 0.929 . S
H304 C318 0.930 . S
H305 C320 0.960 . S
H306 C320 0.960 . S
H307 C320 0.960 . S
C308 H300 0.929 . S
C308 C309 1.377 . S
C308 C310 1.384 . S
C309 C308 1.377 . S
C309 C315 1.390 . S
C310 H301 0.930 . S
C310 C308 1.384 . S
C310 C311 1.372 . S
C311 C310 1.372 . S
C311 C312 1.400 . S
C311 C316 1.490 . S
C312 H302 0.930 . S
C312 C311 1.400 . S
C312 C315 1.386 . S
H313 C329 0.930 . S
H314 C330 0.931 . S
C315 H303 0.929 . S
C315 C309 1.390 . S
C315 C312 1.386 . S
C316 C311 1.490 . S
C316 C318 1.395 . S
C316 C319 1.403 . S
H317 C323 0.930 . S
C318 H304 0.930 . S
C318 C316 1.395 . S
C318 C321 1.403 . S
C319 C316 1.403 . S
C319 C320 1.524 . S
C319 C323 1.400 . S
C320 H305 0.960 . S
C320 H306 0.960 . S
C320 H307 0.960 . S
C320 C319 1.524 . S
C321 C318 1.403 . S
C321 C322 1.392 . S
C321 C325 1.495 . S
C322 C321 1.392 . S
C322 C323 1.385 . S
C322 C324 1.478 . S
C323 H317 0.930 . S
C323 C319 1.400 . S
C323 C322 1.385 . S
C324 C322 1.478 . S
C324 C326 1.381 . S
C324 C330 1.383 . S
C325 C321 1.495 . S
C325 H331 0.959 . S
C325 H332 0.961 . S
C325 H333 0.960 . S
C326 C324 1.381 . S
C326 C327 1.394 . S
C326 H334 0.930 . S
C327 C326 1.394 . S
C327 C328 1.383 . S
C327 H335 0.929 . S
C328 C327 1.383 . S
C328 C329 1.377 . S
C329 H313 0.930 . S
C329 C328 1.377 . S
C329 C330 1.379 . S
C330 H314 0.931 . S
C330 C324 1.383 . S
C330 C329 1.379 . S
H331 C325 0.959 . S
H332 C325 0.961 . S
H333 C325 0.960 . S
H334 C326 0.930 . S
H335 C327 0.929 . S
H336 C344 0.929 . S
H337 C346 0.930 . S
H338 C348 0.930 . S
H339 C351 0.929 . S
H340 C354 0.930 . S
H341 C356 0.960 . S
H342 C356 0.960 . S
H343 C356 0.960 . S
C344 H336 0.929 . S
C344 C345 1.377 . S
C344 C346 1.384 . S
C345 C344 1.377 . S
C345 C351 1.390 . S
C346 H337 0.930 . S
C346 C344 1.384 . S
C346 C347 1.372 . S
C347 C346 1.372 . S
C347 C348 1.400 . S
C347 C352 1.490 . S
C348 H338 0.930 . S
C348 C347 1.400 . S
C348 C351 1.386 . S
H349 C365 0.930 . S
H350 C366 0.931 . S
C351 H339 0.929 . S
C351 C345 1.390 . S
C351 C348 1.386 . S
C352 C347 1.490 . S
C352 C354 1.395 . S
C352 C355 1.403 . S
H353 C359 0.930 . S
C354 H340 0.930 . S
C354 C352 1.395 . S
C354 C357 1.403 . S
C355 C352 1.403 . S
C355 C356 1.524 . S
C355 C359 1.400 . S
C356 H341 0.960 . S
C356 H342 0.960 . S
C356 H343 0.960 . S
C356 C355 1.524 . S
C357 C354 1.403 . S
C357 C358 1.392 . S
C357 C361 1.495 . S
C358 C357 1.392 . S
C358 C359 1.385 . S
C358 C360 1.478 . S
C359 H353 0.930 . S
C359 C355 1.400 . S
C359 C358 1.385 . S
C360 C358 1.478 . S
C360 C362 1.381 . S
C360 C366 1.383 . S
C361 C357 1.495 . S
C361 H367 0.959 . S
C361 H368 0.961 . S
C361 H369 0.960 . S
C362 C360 1.381 . S
C362 C363 1.394 . S
C362 H370 0.930 . S
C363 C362 1.394 . S
C363 C364 1.383 . S
C363 H371 0.929 . S
C364 C363 1.383 . S
C364 C365 1.377 . S
C365 H349 0.930 . S
C365 C364 1.377 . S
C365 C366 1.379 . S
C366 H350 0.931 . S
C366 C360 1.383 . S
C366 C365 1.379 . S
H367 C361 0.959 . S
H368 C361 0.961 . S
H369 C361 0.960 . S
H370 C362 0.930 . S
H371 C363 0.929 . S
H372 C380 0.929 . S
H373 C382 0.930 . S
H374 C384 0.930 . S
H375 C387 0.929 . S
H376 C390 0.930 . S
H377 C392 0.960 . S
H378 C392 0.960 . S
H379 C392 0.960 . S
C380 H372 0.929 . S
C380 C381 1.377 . S
C380 C382 1.384 . S
C381 C380 1.377 . S
C381 C387 1.390 1_455 S
C382 H373 0.930 . S
C382 C380 1.384 . S
C382 C383 1.372 . S
C383 C382 1.372 . S
C383 C384 1.400 1_455 S
C383 C388 1.490 . S
C384 H374 0.930 . S
C384 C383 1.400 1_655 S
C384 C387 1.386 . S
H385 C401 0.930 . S
H386 C402 0.931 . S
C387 H375 0.929 . S
C387 C381 1.390 1_655 S
C387 C384 1.386 . S
C388 C383 1.490 . S
C388 C390 1.395 . S
C388 C391 1.403 1_455 S
H389 C395 0.930 . S
C390 H376 0.930 . S
C390 C388 1.395 . S
C390 C393 1.403 . S
C391 C388 1.403 1_655 S
C391 C392 1.524 . S
C391 C395 1.400 . S
C392 H377 0.960 . S
C392 H378 0.960 . S
C392 H379 0.960 . S
C392 C391 1.524 . S
C393 C390 1.403 . S
C393 C394 1.392 . S
C393 C397 1.495 . S
C394 C393 1.392 . S
C394 C395 1.385 1_455 S
C394 C396 1.478 . S
C395 H389 0.930 . S
C395 C391 1.400 . S
C395 C394 1.385 1_655 S
C396 C394 1.478 . S
C396 C398 1.381 . S
C396 C402 1.383 1_455 S
C397 C393 1.495 . S
C397 H403 0.959 . S
C397 H404 0.961 . S
C397 H405 0.960 . S
C398 C396 1.381 . S
C398 C399 1.394 . S
C398 H406 0.930 . S
C399 C398 1.394 . S
C399 C400 1.383 . S
C399 H407 0.929 . S
C400 C399 1.383 . S
C400 C401 1.377 1_455 S
C401 H385 0.930 . S
C401 C400 1.377 1_655 S
C401 C402 1.379 . S
C402 H386 0.931 . S
C402 C396 1.383 1_655 S
C402 C401 1.379 . S
H403 C397 0.959 . S
H404 C397 0.961 . S
H405 C397 0.960 . S
H406 C398 0.930 . S
H407 C399 0.929 . S
H408 C416 0.929 . S
H409 C418 0.930 . S
H410 C420 0.930 . S
H411 C423 0.929 . S
H412 C426 0.930 . S
H413 C428 0.937 1_545 S
H414 C428 0.960 1_554 S
H415 C428 0.960 . S
C416 H408 0.929 . S
C416 C417 1.377 . S
C416 C418 1.384 . S
C417 C416 1.377 . S
C417 C423 1.390 1_554 S
C418 H409 0.930 . S
C418 C416 1.384 . S
C418 C419 1.372 . S
C419 C418 1.372 . S
C419 C420 1.400 1_554 S
C419 C424 1.490 1_554 S
C420 H410 0.930 . S
C420 C419 1.400 1_556 S
C420 C423 1.386 . S
H421 C437 0.929 1_545 S
H422 C438 0.931 . S
C423 H411 0.929 . S
C423 C417 1.390 1_556 S
C423 C420 1.386 . S
C424 C419 1.490 1_556 S
C424 C426 1.395 . S
C424 C427 1.403 . S
H425 C431 0.930 . S
C426 H412 0.930 . S
C426 C424 1.395 . S
C426 C429 1.403 . S
C427 C424 1.403 . S
C427 C428 1.524 . S
C427 C431 1.400 . S
C428 H413 0.937 1_565 S
C428 H414 0.960 1_556 S
C428 H415 0.960 . S
C428 C427 1.524 . S
C429 C426 1.403 . S
C429 C430 1.392 . S
C429 C433 1.495 . S
C430 C429 1.392 . S
C430 C431 1.385 . S
C430 C432 1.478 . S
C431 H425 0.930 . S
C431 C427 1.400 . S
C431 C430 1.385 . S
C432 C430 1.478 . S
C432 C434 1.381 . S
C432 C438 1.383 . S
C433 C429 1.495 . S
C433 H439 0.959 . S
C433 H440 0.961 . S
C433 H441 0.960 . S
C434 C432 1.381 . S
C434 C435 1.394 . S
C434 H442 0.930 1_556 S
C435 C434 1.394 . S
C435 C436 1.383 . S
C435 H443 0.929 . S
C436 C435 1.383 . S
C436 C437 1.377 . S
C437 H421 0.929 1_565 S
C437 C436 1.377 . S
C437 C438 1.379 . S
C438 H422 0.931 . S
C438 C432 1.383 . S
C438 C437 1.379 . S
H439 C433 0.959 . S
H440 C433 0.961 . S
H441 C433 0.960 . S
H442 C434 0.930 1_554 S
H443 C435 0.929 . S
H444 C452 0.929 . S
H445 C454 0.930 . S
H446 C456 0.930 . S
H447 C459 0.929 . S
H448 C462 0.930 . S
H449 C464 0.960 . S
H450 C464 0.960 . S
H451 C464 0.960 . S
C452 H444 0.929 . S
C452 C453 1.377 . S
C452 C454 1.384 . S
C453 C452 1.377 . S
C453 C459 1.390 . S
C454 H445 0.930 . S
C454 C452 1.384 . S
C454 C455 1.372 . S
C455 C454 1.372 . S
C455 C456 1.400 . S
C455 C460 1.490 . S
C456 H446 0.930 . S
C456 C455 1.400 . S
C456 C459 1.386 . S
H457 C473 0.930 . S
H458 C474 0.931 . S
C459 H447 0.929 . S
C459 C453 1.390 . S
C459 C456 1.386 . S
C460 C455 1.490 . S
C460 C462 1.395 . S
C460 C463 1.403 . S
H461 C467 0.930 . S
C462 H448 0.930 . S
C462 C460 1.395 . S
C462 C465 1.403 . S
C463 C460 1.403 . S
C463 C464 1.524 . S
C463 C467 1.400 . S
C464 H449 0.960 . S
C464 H450 0.960 . S
C464 H451 0.960 . S
C464 C463 1.524 . S
C465 C462 1.403 . S
C465 C466 1.392 . S
C465 C469 1.495 . S
C466 C465 1.392 . S
C466 C467 1.385 . S
C466 C468 1.478 . S
C467 H461 0.930 . S
C467 C463 1.400 . S
C467 C466 1.385 . S
C468 C466 1.478 . S
C468 C470 1.381 1_554 S
C468 C474 1.383 . S
C469 C465 1.495 . S
C469 H475 0.959 . S
C469 H476 0.961 . S
C469 H477 0.960 . S
C470 C468 1.381 1_556 S
C470 C471 1.394 . S
C470 H478 0.930 . S
C471 C470 1.394 . S
C471 C472 1.383 . S
C471 H479 0.929 . S
C472 C471 1.383 . S
C472 C473 1.377 1_556 S
C473 H457 0.930 . S
C473 C472 1.377 1_554 S
C473 C474 1.379 . S
C474 H458 0.931 . S
C474 C468 1.383 . S
C474 C473 1.379 . S
H475 C469 0.959 . S
H476 C469 0.961 . S
H477 C469 0.960 . S
H478 C470 0.930 . S
H479 C471 0.929 . S
H480 C488 0.929 . S
H481 C490 0.930 . S
H482 C492 0.930 . S
H483 C495 0.929 . S
H484 C498 0.930 . S
H485 C500 0.960 . S
H486 C500 0.960 . S
H487 C500 0.960 . S
C488 H480 0.929 . S
C488 C489 1.377 . S
C488 C490 1.384 . S
C489 C488 1.377 . S
C489 C495 1.390 . S
C490 H481 0.930 . S
C490 C488 1.384 . S
C490 C491 1.372 . S
C491 C490 1.372 . S
C491 C492 1.400 . S
C491 C496 1.490 . S
C492 H482 0.930 . S
C492 C491 1.400 . S
C492 C495 1.386 . S
H493 C509 0.930 . S
H494 C510 0.931 . S
C495 H483 0.929 . S
C495 C489 1.390 . S
C495 C492 1.386 . S
C496 C491 1.490 . S
C496 C498 1.395 . S
C496 C499 1.403 . S
H497 C503 0.930 . S
C498 H484 0.930 . S
C498 C496 1.395 . S
C498 C501 1.403 . S
C499 C496 1.403 . S
C499 C500 1.524 1_556 S
C499 C503 1.400 . S
C500 H485 0.960 . S
C500 H486 0.960 . S
C500 H487 0.960 . S
C500 C499 1.524 1_554 S
C501 C498 1.403 . S
C501 C502 1.392 . S
C501 C505 1.495 . S
C502 C501 1.392 . S
C502 C503 1.385 . S
C502 C504 1.478 . S
C503 H497 0.930 . S
C503 C499 1.400 . S
C503 C502 1.385 . S
C504 C502 1.478 . S
C504 C506 1.381 . S
C504 C510 1.383 . S
C505 C501 1.495 . S
C505 H511 0.959 . S
C505 H512 0.961 . S
C505 H513 0.960 . S
C506 C504 1.381 . S
C506 C507 1.394 . S
C506 H514 0.930 . S
C507 C506 1.394 . S
C507 C508 1.383 . S
C507 H515 0.929 . S
C508 C507 1.383 . S
C508 C509 1.377 . S
C509 H493 0.930 . S
C509 C508 1.377 . S
C509 C510 1.379 . S
C510 H494 0.931 . S
C510 C504 1.383 . S
C510 C509 1.379 . S
H511 C505 0.959 . S
H512 C505 0.961 . S
H513 C505 0.960 . S
H514 C506 0.930 . S
H515 C507 0.929 . S
H516 C524 0.929 1_556 S
H517 C526 0.930 . S
H518 C528 0.930 . S
H519 C531 0.929 . S
H520 C534 0.930 . S
H521 C536 0.960 . S
H522 C536 0.960 . S
H523 C536 0.960 . S
C524 H516 0.929 1_554 S
C524 C525 1.377 . S
C524 C526 1.384 1_554 S
C525 C524 1.377 . S
C525 C531 1.390 1_655 S
C526 H517 0.930 . S
C526 C524 1.384 1_556 S
C526 C527 1.372 1_556 S
C527 C526 1.372 1_554 S
C527 C528 1.400 1_655 S
C527 C532 1.490 1_554 S
C528 H518 0.930 . S
C528 C527 1.400 1_455 S
C528 C531 1.386 . S
H529 C545 0.930 . S
H530 C546 0.931 1_554 S
C531 H519 0.929 . S
C531 C525 1.390 1_455 S
C531 C528 1.386 . S
C532 C527 1.490 1_556 S
C532 C534 1.395 1_655 S
C532 C535 1.403 1_556 S
H533 C539 0.930 . S
C534 H520 0.930 . S
C534 C532 1.395 1_455 S
C534 C537 1.403 . S
C535 C532 1.403 1_554 S
C535 C536 1.524 . S
C535 C539 1.400 . S
C536 H521 0.960 . S
C536 H522 0.960 . S
C536 H523 0.960 . S
C536 C535 1.524 . S
C537 C534 1.403 . S
C537 C538 1.392 . S
C537 C541 1.495 . S
C538 C537 1.392 . S
C538 C539 1.385 1_456 S
C538 C540 1.478 . S
C539 H533 0.930 . S
C539 C535 1.400 . S
C539 C538 1.385 1_654 S
C540 C538 1.478 . S
C540 C542 1.381 1_455 S
C540 C546 1.383 . S
C541 C537 1.495 . S
C541 H547 0.959 . S
C541 H548 0.961 . S
C541 H549 0.960 . S
C542 C540 1.381 1_655 S
C542 C543 1.394 . S
C542 H550 0.930 . S
C543 C542 1.394 . S
C543 C544 1.383 1_655 S
C543 H551 0.929 . S
C544 C543 1.383 1_455 S
C544 C545 1.377 . S
C545 H529 0.930 . S
C545 C544 1.377 . S
C545 C546 1.379 . S
C546 H530 0.931 1_556 S
C546 C540 1.383 . S
C546 C545 1.379 . S
H547 C541 0.959 . S
H548 C541 0.961 . S
H549 C541 0.960 . S
H550 C542 0.930 . S
H551 C543 0.929 . S
H552 C560 0.929 . S
H553 C562 0.930 . S
H554 C564 0.930 1_655 S
H555 C567 0.929 1_655 S
H556 C570 0.930 . S
H557 C572 0.960 . S
H558 C572 0.960 . S
H559 C572 0.960 . S
C560 H552 0.929 . S
C560 C561 1.377 . S
C560 C562 1.384 . S
C561 C560 1.377 . S
C561 C567 1.390 . S
C562 H553 0.930 . S
C562 C560 1.384 . S
C562 C563 1.372 . S
C563 C562 1.372 . S
C563 C564 1.400 . S
C563 C568 1.490 . S
C564 H554 0.930 1_455 S
C564 C563 1.400 . S
C564 C567 1.386 . S
H565 C581 0.930 . S
H566 C582 0.954 . S
C567 H555 0.929 1_455 S
C567 C561 1.390 . S
C567 C564 1.386 . S
C568 C563 1.490 . S
C568 C570 1.395 . S
C568 C571 1.403 1_455 S
H569 C575 0.930 . S
C570 H556 0.930 . S
C570 C568 1.395 . S
C570 C573 1.403 . S
C571 C568 1.403 1_655 S
C571 C572 1.524 . S
C571 C575 1.400 . S
C572 H557 0.960 . S
C572 H558 0.960 . S
C572 H559 0.960 . S
C572 C571 1.524 . S
C573 C570 1.403 . S
C573 C574 1.392 . S
C573 C577 1.495 . S
C574 C573 1.392 . S
C574 C575 1.385 1_455 S
C574 C576 1.478 . S
C575 H569 0.930 . S
C575 C571 1.400 . S
C575 C574 1.385 1_655 S
C576 C574 1.478 . S
C576 C578 1.381 . S
C576 C582 1.363 1_455 S
C577 C573 1.495 . S
C577 H583 0.959 . S
C577 H584 0.961 . S
C577 H585 0.960 . S
C578 C576 1.381 . S
C578 C579 1.394 . S
C578 H586 0.930 . S
C579 C578 1.394 . S
C579 C580 1.383 . S
C579 H587 0.929 . S
C580 C579 1.383 . S
C580 C581 1.377 1_455 S
C581 H565 0.930 . S
C581 C580 1.377 1_655 S
C581 C582 1.380 . S
C582 H566 0.954 . S
C582 C576 1.363 1_655 S
C582 C581 1.380 . S
H583 C577 0.959 . S
H584 C577 0.961 . S
H585 C577 0.960 . S
H586 C578 0.930 . S
H587 C579 0.929 . S
H588 C596 0.929 . S
H589 C598 0.930 . S
H590 C600 0.930 . S
H591 C603 0.929 . S
H592 C606 0.930 . S
H593 C608 0.960 . S
H594 C608 0.960 . S
H595 C608 0.960 . S
C596 H588 0.929 . S
C596 C597 1.377 . S
C596 C598 1.384 . S
C597 C596 1.377 . S
C597 C603 1.390 . S
C598 H589 0.930 . S
C598 C596 1.384 . S
C598 C599 1.372 . S
C599 C598 1.372 . S
C599 C600 1.400 . S
C599 C604 1.490 . S
C600 H590 0.930 . S
C600 C599 1.400 . S
C600 C603 1.386 . S
H601 C617 0.930 . S
H602 C618 0.931 . S
C603 H591 0.929 . S
C603 C597 1.390 . S
C603 C600 1.386 . S
C604 C599 1.490 . S
C604 C606 1.395 . S
C604 C607 1.403 . S
H605 C611 0.930 . S
C606 H592 0.930 . S
C606 C604 1.395 . S
C606 C609 1.403 . S
C607 C604 1.403 . S
C607 C608 1.524 . S
C607 C611 1.400 . S
C608 H593 0.960 . S
C608 H594 0.960 . S
C608 H595 0.960 . S
C608 C607 1.524 . S
C609 C606 1.403 . S
C609 C610 1.392 . S
C609 C613 1.495 . S
C610 C609 1.392 . S
C610 C611 1.385 . S
C610 C612 1.478 . S
C611 H605 0.930 . S
C611 C607 1.400 . S
C611 C610 1.385 . S
C612 C610 1.478 . S
C612 C614 1.381 . S
C612 C618 1.383 . S
C613 C609 1.495 . S
C613 H619 0.959 . S
C613 H620 0.961 . S
C613 H621 0.960 . S
C614 C612 1.381 . S
C614 C615 1.394 . S
C614 H622 0.930 . S
C615 C614 1.394 . S
C615 C616 1.383 . S
C615 H623 0.929 . S
C616 C615 1.383 . S
C616 C617 1.377 . S
C617 H601 0.930 . S
C617 C616 1.377 . S
C617 C618 1.379 . S
C618 H602 0.931 . S
C618 C612 1.383 . S
C618 C617 1.379 . S
H619 C613 0.959 . S
H620 C613 0.961 . S
H621 C613 0.960 . S
H622 C614 0.930 . S
H623 C615 0.929 . S
H624 C632 0.929 . S
H625 C634 0.930 . S
H626 C636 0.930 . S
H627 C639 0.929 . S
H628 C642 0.930 . S
H629 C644 0.960 . S
H630 C644 0.960 . S
H631 C644 0.960 . S
C632 H624 0.929 . S
C632 C633 1.377 . S
C632 C634 1.384 . S
C633 C632 1.377 . S
C633 C639 1.390 . S
C634 H625 0.930 . S
C634 C632 1.384 . S
C634 C635 1.372 . S
C635 C634 1.372 . S
C635 C636 1.400 . S
C635 C640 1.490 . S
C636 H626 0.930 . S
C636 C635 1.400 . S
C636 C639 1.386 . S
H637 C653 0.930 . S
H638 C654 0.931 . S
C639 H627 0.929 . S
C639 C633 1.390 . S
C639 C636 1.386 . S
C640 C635 1.490 . S
C640 C642 1.395 . S
C640 C643 1.403 . S
H641 C647 0.930 . S
C642 H628 0.930 . S
C642 C640 1.395 . S
C642 C645 1.403 . S
C643 C640 1.403 . S
C643 C644 1.524 . S
C643 C647 1.400 . S
C644 H629 0.960 . S
C644 H630 0.960 . S
C644 H631 0.960 . S
C644 C643 1.524 . S
C645 C642 1.403 . S
C645 C646 1.392 . S
C645 C649 1.495 . S
C646 C645 1.392 . S
C646 C647 1.385 . S
C646 C648 1.478 . S
C647 H641 0.930 . S
C647 C643 1.400 . S
C647 C646 1.385 . S
C648 C646 1.478 . S
C648 C650 1.381 . S
C648 C654 1.383 . S
C649 C645 1.495 . S
C649 H655 0.959 . S
C649 H656 0.961 . S
C649 H657 0.960 . S
C650 C648 1.381 . S
C650 C651 1.394 . S
C650 H658 0.930 . S
C651 C650 1.394 . S
C651 C652 1.383 . S
C651 H659 0.929 . S
C652 C651 1.383 . S
C652 C653 1.377 . S
C653 H637 0.930 . S
C653 C652 1.377 . S
C653 C654 1.379 . S
C654 H638 0.931 . S
C654 C648 1.383 . S
C654 C653 1.379 . S
H655 C649 0.959 . S
H656 C649 0.961 . S
H657 C649 0.960 . S
H658 C650 0.930 . S
H659 C651 0.929 . S
H660 C668 0.929 . S
H661 C670 0.930 . S
H662 C672 0.930 . S
H663 C675 0.929 . S
H664 C678 0.930 . S
H665 C680 0.960 . S
H666 C680 0.960 . S
H667 C680 0.960 . S
C668 H660 0.929 . S
C668 C669 1.377 . S
C668 C670 1.384 . S
C669 C668 1.377 . S
C669 C675 1.390 . S
C670 H661 0.930 . S
C670 C668 1.384 . S
C670 C671 1.372 . S
C671 C670 1.372 . S
C671 C672 1.400 . S
C671 C676 1.490 . S
C672 H662 0.930 . S
C672 C671 1.400 . S
C672 C675 1.386 . S
H673 C689 0.930 . S
H674 C690 0.931 . S
C675 H663 0.929 . S
C675 C669 1.390 . S
C675 C672 1.386 . S
C676 C671 1.490 . S
C676 C678 1.395 . S
C676 C679 1.403 . S
H677 C683 0.930 . S
C678 H664 0.930 . S
C678 C676 1.395 . S
C678 C681 1.403 . S
C679 C676 1.403 . S
C679 C680 1.524 . S
C679 C683 1.400 . S
C680 H665 0.960 . S
C680 H666 0.960 . S
C680 H667 0.960 . S
C680 C679 1.524 . S
C681 C678 1.403 . S
C681 C682 1.392 . S
C681 C685 1.495 . S
C682 C681 1.392 . S
C682 C683 1.385 . S
C682 C684 1.478 . S
C683 H677 0.930 . S
C683 C679 1.400 . S
C683 C682 1.385 . S
C684 C682 1.478 . S
C684 C686 1.381 . S
C684 C690 1.383 . S
C685 C681 1.495 . S
C685 H691 0.959 . S
C685 H692 0.961 . S
C685 H693 0.960 . S
C686 C684 1.381 . S
C686 C687 1.394 . S
C686 H694 0.930 . S
C687 C686 1.394 . S
C687 C688 1.383 . S
C687 H695 0.929 . S
C688 C687 1.383 . S
C688 C689 1.377 . S
C689 H673 0.930 . S
C689 C688 1.377 . S
C689 C690 1.379 . S
C690 H674 0.931 . S
C690 C684 1.383 . S
C690 C689 1.379 . S
H691 C685 0.959 . S
H692 C685 0.961 . S
H693 C685 0.960 . S
H694 C686 0.930 . S
H695 C687 0.929 . S
H696 C704 0.929 . S
H697 C706 0.930 . S
H698 C708 0.930 . S
H699 C711 0.930 1_556 S
H700 C714 0.930 . S
H701 C716 0.960 . S
H702 C716 0.960 . S
H703 C716 0.960 . S
C704 H696 0.929 . S
C704 C705 1.377 1_455 S
C704 C706 1.384 . S
C705 C704 1.377 1_655 S
C705 C711 1.389 . S
C706 H697 0.930 . S
C706 C704 1.384 . S
C706 C707 1.372 1_455 S
C707 C706 1.372 1_655 S
C707 C708 1.400 1_554 S
C707 C712 1.489 1_554 S
C708 H698 0.930 . S
C708 C707 1.400 1_556 S
C708 C711 1.386 1_556 S
H709 C725 0.930 . S
H710 C726 0.931 . S
C711 H699 0.930 1_554 S
C711 C705 1.389 . S
C711 C708 1.386 1_554 S
C712 C707 1.489 1_556 S
C712 C714 1.367 1_655 S
C712 C715 1.432 1_556 S
H713 C719 0.930 . S
C714 H700 0.930 . S
C714 C712 1.367 1_455 S
C714 C717 1.403 . S
C715 C712 1.432 1_554 S
C715 C716 1.524 . S
C715 C719 1.400 1_554 S
C716 H701 0.960 . S
C716 H702 0.960 . S
C716 H703 0.960 . S
C716 C715 1.524 . S
C717 C714 1.403 . S
C717 C718 1.392 . S
C717 C721 1.495 . S
C718 C717 1.392 . S
C718 C719 1.385 1_455 S
C718 C720 1.478 . S
C719 H713 0.930 . S
C719 C715 1.400 1_556 S
C719 C718 1.385 1_655 S
C720 C718 1.478 . S
C720 C722 1.381 . S
C720 C726 1.383 1_455 S
C721 C717 1.495 . S
C721 H727 0.959 . S
C721 H728 0.961 . S
C721 H729 0.960 . S
C722 C720 1.381 . S
C722 C723 1.394 . S
C722 H730 0.930 1_556 S
C723 C722 1.394 . S
C723 C724 1.383 . S
C723 H731 0.929 . S
C724 C723 1.383 . S
C724 C725 1.377 1_455 S
C725 H709 0.930 . S
C725 C724 1.377 1_655 S
C725 C726 1.379 . S
C726 H710 0.931 . S
C726 C720 1.383 1_655 S
C726 C725 1.379 . S
H727 C721 0.959 . S
H728 C721 0.961 . S
H729 C721 0.960 . S
H730 C722 0.930 1_554 S
H731 C723 0.929 . S
H732 C740 0.929 . S
H733 C742 0.928 1_556 S
H734 C744 0.930 . S
H735 C747 0.929 . S
H736 C750 0.930 . S
H737 C752 0.960 . S
H738 C752 0.960 . S
H739 C752 0.960 . S
C740 H732 0.929 . S
C740 C741 1.377 . S
C740 C742 1.384 . S
C741 C740 1.377 . S
C741 C747 1.390 . S
C742 H733 0.928 1_554 S
C742 C740 1.384 . S
C742 C743 1.372 1_554 S
C743 C742 1.372 1_556 S
C743 C744 1.400 . S
C743 C748 1.490 . S
C744 H734 0.930 . S
C744 C743 1.400 . S
C744 C747 1.386 1_556 S
H745 C761 0.930 . S
H746 C762 0.917 1_545 S
C747 H735 0.929 . S
C747 C741 1.390 . S
C747 C744 1.386 1_554 S
C748 C743 1.490 . S
C748 C750 1.395 1_556 S
C748 C751 1.403 . S
H749 C755 0.930 . S
C750 H736 0.930 . S
C750 C748 1.395 1_554 S
C750 C753 1.403 . S
C751 C748 1.403 . S
C751 C752 1.524 . S
C751 C755 1.400 . S
C752 H737 0.960 . S
C752 H738 0.960 . S
C752 H739 0.960 . S
C752 C751 1.524 . S
C753 C750 1.403 . S
C753 C754 1.392 1_554 S
C753 C757 1.495 . S
C754 C753 1.392 1_556 S
C754 C755 1.385 . S
C754 C756 1.478 . S
C755 H749 0.930 . S
C755 C751 1.400 . S
C755 C754 1.385 . S
C756 C754 1.478 . S
C756 C758 1.381 . S
C756 C762 1.414 . S
C757 C753 1.495 . S
C757 H763 0.959 . S
C757 H764 0.961 . S
C757 H765 0.960 . S
C758 C756 1.381 . S
C758 C759 1.394 . S
C758 H766 0.930 . S
C759 C758 1.394 . S
C759 C760 1.383 . S
C759 H767 0.929 . S
C760 C759 1.383 . S
C760 C761 1.377 1_565 S
C761 H745 0.930 . S
C761 C760 1.377 1_545 S
C761 C762 1.362 1_545 S
C762 H746 0.917 1_565 S
C762 C756 1.414 . S
C762 C761 1.362 1_565 S
H763 C757 0.959 . S
H764 C757 0.961 . S
H765 C757 0.960 . S
H766 C758 0.930 . S
H767 C759 0.929 . S
H768 C776 0.929 . S
H769 C778 0.930 . S
H770 C780 0.930 . S
H771 C783 0.929 . S
H772 C786 0.930 . S
H773 C788 0.960 . S
H774 C788 0.960 . S
H775 C788 0.960 . S
C776 H768 0.929 . S
C776 C777 1.377 . S
C776 C778 1.384 . S
C777 C776 1.377 . S
C777 C783 1.390 . S
C778 H769 0.930 . S
C778 C776 1.384 . S
C778 C779 1.372 . S
C779 C778 1.372 . S
C779 C780 1.400 . S
C779 C784 1.490 . S
C780 H770 0.930 . S
C780 C779 1.400 . S
C780 C783 1.386 . S
H781 C797 0.930 1_556 S
H782 C798 0.931 . S
C783 H771 0.929 . S
C783 C777 1.390 . S
C783 C780 1.386 . S
C784 C779 1.490 . S
C784 C786 1.395 . S
C784 C787 1.403 . S
H785 C791 0.930 . S
C786 H772 0.930 . S
C786 C784 1.395 . S
C786 C789 1.403 . S
C787 C784 1.403 . S
C787 C788 1.524 . S
C787 C791 1.400 . S
C788 H773 0.960 . S
C788 H774 0.960 . S
C788 H775 0.960 . S
C788 C787 1.524 . S
C789 C786 1.403 . S
C789 C790 1.392 . S
C789 C793 1.495 . S
C790 C789 1.392 . S
C790 C791 1.385 . S
C790 C792 1.478 . S
C791 H785 0.930 . S
C791 C787 1.400 . S
C791 C790 1.385 . S
C792 C790 1.478 . S
C792 C794 1.381 . S
C792 C798 1.383 . S
C793 C789 1.495 . S
C793 H799 0.959 . S
C793 H800 0.961 . S
C793 H801 0.960 . S
C794 C792 1.381 . S
C794 C795 1.394 . S
C794 H802 0.930 . S
C795 C794 1.394 . S
C795 C796 1.383 . S
C795 H803 0.929 . S
C796 C795 1.383 . S
C796 C797 1.377 . S
C797 H781 0.930 1_554 S
C797 C796 1.377 . S
C797 C798 1.379 . S
C798 H782 0.931 . S
C798 C792 1.383 . S
C798 C797 1.379 . S
H799 C793 0.959 . S
H800 C793 0.961 . S
H801 C793 0.960 . S
H802 C794 0.930 . S
H803 C795 0.929 . S
H804 C812 0.929 . S
H805 C814 0.930 . S
H806 C816 0.930 . S
H807 C819 0.929 . S
H808 C822 0.930 . S
H809 C824 0.960 . S
H810 C824 0.960 . S
H811 C824 0.960 . S
C812 H804 0.929 . S
C812 C813 1.377 . S
C812 C814 1.384 . S
C813 C812 1.377 . S
C813 C819 1.390 . S
C814 H805 0.930 . S
C814 C812 1.384 . S
C814 C815 1.372 . S
C815 C814 1.372 . S
C815 C816 1.400 . S
C815 C820 1.490 . S
C816 H806 0.930 . S
C816 C815 1.400 . S
C816 C819 1.386 . S
H817 C833 0.930 . S
H818 C834 0.931 . S
C819 H807 0.929 . S
C819 C813 1.390 . S
C819 C816 1.386 . S
C820 C815 1.490 . S
C820 C822 1.395 . S
C820 C823 1.403 . S
H821 C827 0.930 . S
C822 H808 0.930 . S
C822 C820 1.395 . S
C822 C825 1.403 . S
C823 C820 1.403 . S
C823 C824 1.524 1_556 S
C823 C827 1.400 . S
C824 H809 0.960 . S
C824 H810 0.960 . S
C824 H811 0.960 . S
C824 C823 1.524 1_554 S
C825 C822 1.403 . S
C825 C826 1.392 . S
C825 C829 1.495 . S
C826 C825 1.392 . S
C826 C827 1.385 . S
C826 C828 1.478 . S
C827 H821 0.930 . S
C827 C823 1.400 . S
C827 C826 1.385 . S
C828 C826 1.478 . S
C828 C830 1.381 . S
C828 C834 1.383 . S
C829 C825 1.495 . S
C829 H835 0.959 . S
C829 H836 0.961 . S
C829 H837 0.960 . S
C830 C828 1.381 . S
C830 C831 1.394 . S
C830 H838 0.930 . S
C831 C830 1.394 . S
C831 C832 1.383 . S
C831 H839 0.929 . S
C832 C831 1.383 . S
C832 C833 1.377 . S
C833 H817 0.930 . S
C833 C832 1.377 . S
C833 C834 1.379 . S
C834 H818 0.931 . S
C834 C828 1.383 . S
C834 C833 1.379 . S
H835 C829 0.959 . S
H836 C829 0.961 . S
H837 C829 0.960 . S
H838 C830 0.930 . S
H839 C831 0.929 . S
H840 C848 0.929 1_655 S
H841 C850 0.930 1_655 S
H842 C852 0.930 . S
H843 C855 0.929 . S
H844 C858 0.930 . S
H845 C860 0.960 1_655 S
H846 C860 0.960 1_655 S
H847 C860 0.960 . S
C848 H840 0.929 1_455 S
C848 C849 1.377 . S
C848 C850 1.384 . S
C849 C848 1.377 . S
C849 C855 1.390 . S
C850 H841 0.930 1_455 S
C850 C848 1.384 . S
C850 C851 1.372 . S
C851 C850 1.372 . S
C851 C852 1.400 . S
C851 C856 1.490 . S
C852 H842 0.930 . S
C852 C851 1.400 . S
C852 C855 1.386 . S
H853 C869 0.930 . S
H854 C870 0.931 . S
C855 H843 0.929 . S
C855 C849 1.390 . S
C855 C852 1.386 . S
C856 C851 1.490 . S
C856 C858 1.395 . S
C856 C859 1.403 . S
H857 C863 0.930 . S
C858 H844 0.930 . S
C858 C856 1.395 . S
C858 C861 1.403 . S
C859 C856 1.403 . S
C859 C860 1.524 . S
C859 C863 1.400 . S
C860 H845 0.960 1_455 S
C860 H846 0.960 1_455 S
C860 H847 0.960 . S
C860 C859 1.524 . S
C861 C858 1.403 . S
C861 C862 1.392 . S
C861 C865 1.495 . S
C862 C861 1.392 . S
C862 C863 1.385 . S
C862 C864 1.478 . S
C863 H857 0.930 . S
C863 C859 1.400 . S
C863 C862 1.385 . S
C864 C862 1.478 . S
C864 C866 1.381 . S
C864 C870 1.383 . S
C865 C861 1.495 . S
C865 H871 0.959 . S
C865 H872 0.961 . S
C865 H873 0.960 . S
C866 C864 1.381 . S
C866 C867 1.394 . S
C866 H874 0.930 1_455 S
C867 C866 1.394 . S
C867 C868 1.383 . S
C867 H875 0.929 1_455 S
C868 C867 1.383 . S
C868 C869 1.377 . S
C869 H853 0.930 . S
C869 C868 1.377 . S
C869 C870 1.379 . S
C870 H854 0.931 . S
C870 C864 1.383 . S
C870 C869 1.379 . S
H871 C865 0.959 . S
H872 C865 0.961 . S
H873 C865 0.960 . S
H874 C866 0.930 1_655 S
H875 C867 0.929 1_655 S
H876 C884 0.929 . S
H877 C886 0.930 . S
H878 C888 0.930 . S
H879 C891 0.929 . S
H880 C894 0.930 . S
H881 C896 0.960 . S
H882 C896 0.960 . S
H883 C896 0.960 . S
C884 H876 0.929 . S
C884 C885 1.377 . S
C884 C886 1.384 . S
C885 C884 1.377 . S
C885 C891 1.390 . S
C886 H877 0.930 . S
C886 C884 1.384 . S
C886 C887 1.372 . S
C887 C886 1.372 . S
C887 C888 1.400 . S
C887 C892 1.490 . S
C888 H878 0.930 . S
C888 C887 1.400 . S
C888 C891 1.386 . S
H889 C905 0.930 . S
H890 C906 0.931 . S
C891 H879 0.929 . S
C891 C885 1.390 . S
C891 C888 1.386 . S
C892 C887 1.490 . S
C892 C894 1.395 . S
C892 C895 1.403 . S
H893 C899 0.930 . S
C894 H880 0.930 . S
C894 C892 1.395 . S
C894 C897 1.403 . S
C895 C892 1.403 . S
C895 C896 1.524 . S
C895 C899 1.400 . S
C896 H881 0.960 . S
C896 H882 0.960 . S
C896 H883 0.960 . S
C896 C895 1.524 . S
C897 C894 1.403 . S
C897 C898 1.392 . S
C897 C901 1.495 . S
C898 C897 1.392 . S
C898 C899 1.385 . S
C898 C900 1.478 . S
C899 H893 0.930 . S
C899 C895 1.400 . S
C899 C898 1.385 . S
C900 C898 1.478 . S
C900 C902 1.381 . S
C900 C906 1.383 . S
C901 C897 1.495 . S
C901 H907 0.959 . S
C901 H908 0.961 . S
C901 H909 0.960 . S
C902 C900 1.381 . S
C902 C903 1.394 . S
C902 H910 0.930 . S
C903 C902 1.394 . S
C903 C904 1.383 . S
C903 H911 0.929 . S
C904 C903 1.383 . S
C904 C905 1.377 . S
C905 H889 0.930 . S
C905 C904 1.377 . S
C905 C906 1.379 . S
C906 H890 0.931 . S
C906 C900 1.383 . S
C906 C905 1.379 . S
H907 C901 0.959 . S
H908 C901 0.961 . S
H909 C901 0.960 . S
H910 C902 0.930 . S
H911 C903 0.929 . S
H912 C920 0.929 . S
H913 C922 0.930 . S
H914 C924 0.930 . S
H915 C927 0.929 . S
H916 C930 0.930 . S
H917 C932 0.960 . S
H918 C932 0.960 . S
H919 C932 0.960 . S
C920 H912 0.929 . S
C920 C921 1.377 . S
C920 C922 1.384 . S
C921 C920 1.377 . S
C921 C927 1.390 . S
C922 H913 0.930 . S
C922 C920 1.384 . S
C922 C923 1.372 . S
C923 C922 1.372 . S
C923 C924 1.400 . S
C923 C928 1.490 . S
C924 H914 0.930 . S
C924 C923 1.400 . S
C924 C927 1.386 . S
H925 C941 0.930 . S
H926 C942 0.931 . S
C927 H915 0.929 . S
C927 C921 1.390 . S
C927 C924 1.386 . S
C928 C923 1.490 . S
C928 C930 1.395 . S
C928 C931 1.403 . S
H929 C935 0.930 . S
C930 H916 0.930 . S
C930 C928 1.395 . S
C930 C933 1.403 . S
C931 C928 1.403 . S
C931 C932 1.524 . S
C931 C935 1.400 . S
C932 H917 0.960 . S
C932 H918 0.960 . S
C932 H919 0.960 . S
C932 C931 1.524 . S
C933 C930 1.403 . S
C933 C934 1.392 . S
C933 C937 1.495 . S
C934 C933 1.392 . S
C934 C935 1.385 . S
C934 C936 1.478 . S
C935 H929 0.930 . S
C935 C931 1.400 . S
C935 C934 1.385 . S
C936 C934 1.478 . S
C936 C938 1.381 1_554 S
C936 C942 1.383 . S
C937 C933 1.495 . S
C937 H943 0.959 . S
C937 H944 0.961 . S
C937 H945 0.960 1_554 S
C938 C936 1.381 1_556 S
C938 C939 1.394 . S
C938 H946 0.930 . S
C939 C938 1.394 . S
C939 C940 1.383 . S
C939 H947 0.929 . S
C940 C939 1.383 . S
C940 C941 1.377 1_556 S
C941 H925 0.930 . S
C941 C940 1.377 1_554 S
C941 C942 1.379 . S
C942 H926 0.931 . S
C942 C936 1.383 . S
C942 C941 1.379 . S
H943 C937 0.959 . S
H944 C937 0.961 . S
H945 C937 0.960 1_556 S
H946 C938 0.930 . S
H947 C939 0.929 . S
H948 C956 0.929 . S
H949 C958 0.930 . S
H950 C960 0.930 . S
H951 C963 0.929 . S
H952 C966 0.930 . S
H953 C968 0.960 . S
H954 C968 0.960 . S
H955 C968 0.960 . S
C956 H948 0.929 . S
C956 C957 1.377 . S
C956 C958 1.384 . S
C957 C956 1.377 . S
C957 C963 1.390 . S
C958 H949 0.930 . S
C958 C956 1.384 . S
C958 C959 1.372 . S
C959 C958 1.372 . S
C959 C960 1.400 . S
C959 C964 1.490 . S
C960 H950 0.930 . S
C960 C959 1.400 . S
C960 C963 1.386 . S
H961 C977 0.930 . S
H962 C978 0.931 . S
C963 H951 0.929 . S
C963 C957 1.390 . S
C963 C960 1.386 . S
C964 C959 1.490 . S
C964 C966 1.395 . S
C964 C967 1.403 . S
H965 C971 0.930 . S
C966 H952 0.930 . S
C966 C964 1.395 . S
C966 C969 1.403 . S
C967 C964 1.403 . S
C967 C968 1.524 . S
C967 C971 1.400 . S
C968 H953 0.960 . S
C968 H954 0.960 . S
C968 H955 0.960 . S
C968 C967 1.524 . S
C969 C966 1.403 . S
C969 C970 1.392 . S
C969 C973 1.495 . S
C970 C969 1.392 . S
C970 C971 1.385 . S
C970 C972 1.478 . S
C971 H965 0.930 . S
C971 C967 1.400 . S
C971 C970 1.385 . S
C972 C970 1.478 . S
C972 C974 1.381 . S
C972 C978 1.383 . S
C973 C969 1.495 . S
C973 H979 0.959 . S
C973 H980 0.961 . S
C973 H981 0.960 . S
C974 C972 1.381 . S
C974 C975 1.394 . S
C974 H982 0.930 . S
C975 C974 1.394 . S
C975 C976 1.383 . S
C975 H983 0.929 . S
C976 C975 1.383 . S
C976 C977 1.377 . S
C977 H961 0.930 . S
C977 C976 1.377 . S
C977 C978 1.379 . S
C978 H962 0.931 . S
C978 C972 1.383 . S
C978 C977 1.379 . S
H979 C973 0.959 . S
H980 C973 0.961 . S
H981 C973 0.960 . S
H982 C974 0.930 . S
H983 C975 0.929 . S
H984 C992 0.929 . S
H985 C994 0.930 . S
H986 C996 0.918 1_455 S
H987 C999 0.922 1_455 S
H988 C1002 0.930 . S
H989 C1004 0.960 . S
H990 C1004 0.960 . S
H991 C1004 0.960 . S
C992 H984 0.929 . S
C992 C993 1.377 . S
C992 C994 1.384 . S
C993 C992 1.377 . S
C993 C999 1.395 . S
C994 H985 0.930 . S
C994 C992 1.384 . S
C994 C995 1.372 . S
C995 C994 1.372 . S
C995 C996 1.416 . S
C995 C1000 1.490 . S
C996 H986 0.918 1_655 S
C996 C995 1.416 . S
C996 C999 1.384 . S
H997 C1013 0.930 . S
H998 C1014 0.931 . S
C999 H987 0.922 1_655 S
C999 C993 1.395 . S
C999 C996 1.384 . S
C1000 C995 1.490 . S
C1000 C1002 1.395 . S
C1000 C1003 1.403 1_655 S
H1001 C1007 0.930 . S
C1002 H988 0.930 . S
C1002 C1000 1.395 . S
C1002 C1005 1.403 . S
C1003 C1000 1.403 1_455 S
C1003 C1004 1.524 . S
C1003 C1007 1.400 . S
C1004 H989 0.960 . S
C1004 H990 0.960 . S
C1004 H991 0.960 . S
C1004 C1003 1.524 . S
C1005 C1002 1.403 . S
C1005 C1006 1.392 . S
C1005 C1009 1.495 . S
C1006 C1005 1.392 . S
C1006 C1007 1.385 1_655 S
C1006 C1008 1.478 . S
C1007 H1001 0.930 . S
C1007 C1003 1.400 . S
C1007 C1006 1.385 1_455 S
C1008 C1006 1.478 . S
C1008 C1010 1.381 . S
C1008 C1014 1.383 . S
C1009 C1005 1.495 . S
C1009 H1015 0.959 . S
C1009 H1016 0.961 . S
C1009 H1017 0.960 . S
C1010 C1008 1.381 . S
C1010 C1011 1.394 . S
C1010 H1018 0.930 . S
C1011 C1010 1.394 . S
C1011 C1012 1.383 . S
C1011 H1019 0.929 . S
C1012 C1011 1.383 . S
C1012 C1013 1.377 . S
C1013 H997 0.930 . S
C1013 C1012 1.377 . S
C1013 C1014 1.379 . S
C1014 H998 0.931 . S
C1014 C1008 1.383 . S
C1014 C1013 1.379 . S
H1015 C1009 0.959 . S
H1016 C1009 0.961 . S
H1017 C1009 0.960 . S
H1018 C1010 0.930 . S
H1019 C1011 0.929 . S
H1020 C1028 0.929 . S
H1021 C1030 0.930 . S
H1022 C1032 0.930 . S
H1023 C1035 0.929 . S
H1024 C1038 0.930 . S
H1025 C1040 0.960 . S
H1026 C1040 0.960 . S
H1027 C1040 0.960 . S
C1028 H1020 0.929 . S
C1028 C1029 1.377 . S
C1028 C1030 1.384 . S
C1029 C1028 1.377 . S
C1029 C1035 1.390 . S
C1030 H1021 0.930 . S
C1030 C1028 1.384 . S
C1030 C1031 1.372 . S
C1031 C1030 1.372 . S
C1031 C1032 1.400 . S
C1031 C1036 1.490 . S
C1032 H1022 0.930 . S
C1032 C1031 1.400 . S
C1032 C1035 1.386 . S
H1033 C1049 0.930 . S
H1034 C1050 0.931 . S
C1035 H1023 0.929 . S
C1035 C1029 1.390 . S
C1035 C1032 1.386 . S
C1036 C1031 1.490 . S
C1036 C1038 1.395 . S
C1036 C1039 1.403 . S
H1037 C1043 0.930 . S
C1038 H1024 0.930 . S
C1038 C1036 1.395 . S
C1038 C1041 1.403 . S
C1039 C1036 1.403 . S
C1039 C1040 1.524 . S
C1039 C1043 1.400 . S
C1040 H1025 0.960 . S
C1040 H1026 0.960 . S
C1040 H1027 0.960 . S
C1040 C1039 1.524 . S
C1041 C1038 1.403 . S
C1041 C1042 1.392 . S
C1041 C1045 1.495 . S
C1042 C1041 1.392 . S
C1042 C1043 1.385 . S
C1042 C1044 1.478 . S
C1043 H1037 0.930 . S
C1043 C1039 1.400 . S
C1043 C1042 1.385 . S
C1044 C1042 1.478 . S
C1044 C1046 1.381 . S
C1044 C1050 1.383 . S
C1045 C1041 1.495 . S
C1045 H1051 0.959 . S
C1045 H1052 0.961 . S
C1045 H1053 0.960 . S
C1046 C1044 1.381 . S
C1046 C1047 1.394 . S
C1046 H1054 0.930 . S
C1047 C1046 1.394 . S
C1047 C1048 1.383 . S
C1047 H1055 0.929 . S
C1048 C1047 1.383 . S
C1048 C1049 1.377 . S
C1049 H1033 0.930 . S
C1049 C1048 1.377 . S
C1049 C1050 1.379 . S
C1050 H1034 0.931 . S
C1050 C1044 1.383 . S
C1050 C1049 1.379 . S
H1051 C1045 0.959 . S
H1052 C1045 0.961 . S
H1053 C1045 0.960 . S
H1054 C1046 0.930 . S
H1055 C1047 0.929 . S
H1056 C1064 0.929 . S
H1057 C1066 0.930 . S
H1058 C1068 0.930 . S
H1059 C1071 0.929 . S
H1060 C1074 0.930 . S
H1061 C1076 0.960 . S
H1062 C1076 0.960 . S
H1063 C1076 0.960 . S
C1064 H1056 0.929 . S
C1064 C1065 1.377 . S
C1064 C1066 1.384 . S
C1065 C1064 1.377 . S
C1065 C1071 1.390 . S
C1066 H1057 0.930 . S
C1066 C1064 1.384 . S
C1066 C1067 1.372 . S
C1067 C1066 1.372 . S
C1067 C1068 1.400 . S
C1067 C1072 1.490 . S
C1068 H1058 0.930 . S
C1068 C1067 1.400 . S
C1068 C1071 1.386 . S
H1069 C1085 0.930 . S
H1070 C1086 0.931 . S
C1071 H1059 0.929 . S
C1071 C1065 1.390 . S
C1071 C1068 1.386 . S
C1072 C1067 1.490 . S
C1072 C1074 1.395 . S
C1072 C1075 1.403 . S
H1073 C1079 0.930 . S
C1074 H1060 0.930 . S
C1074 C1072 1.395 . S
C1074 C1077 1.403 . S
C1075 C1072 1.403 . S
C1075 C1076 1.524 . S
C1075 C1079 1.400 . S
C1076 H1061 0.960 . S
C1076 H1062 0.960 . S
C1076 H1063 0.960 . S
C1076 C1075 1.524 . S
C1077 C1074 1.403 . S
C1077 C1078 1.392 . S
C1077 C1081 1.495 . S
C1078 C1077 1.392 . S
C1078 C1079 1.385 . S
C1078 C1080 1.478 . S
C1079 H1073 0.930 . S
C1079 C1075 1.400 . S
C1079 C1078 1.385 . S
C1080 C1078 1.478 . S
C1080 C1082 1.381 . S
C1080 C1086 1.383 . S
C1081 C1077 1.495 . S
C1081 H1087 0.959 . S
C1081 H1088 0.961 . S
C1081 H1089 0.960 . S
C1082 C1080 1.381 . S
C1082 C1083 1.394 . S
C1082 H1090 0.930 . S
C1083 C1082 1.394 . S
C1083 C1084 1.383 . S
C1083 H1091 0.929 . S
C1084 C1083 1.383 . S
C1084 C1085 1.377 . S
C1085 H1069 0.930 . S
C1085 C1084 1.377 . S
C1085 C1086 1.379 . S
C1086 H1070 0.931 . S
C1086 C1080 1.383 . S
C1086 C1085 1.379 . S
H1087 C1081 0.959 . S
H1088 C1081 0.961 . S
H1089 C1081 0.960 . S
H1090 C1082 0.930 . S
H1091 C1083 0.929 . S
H1092 C1100 0.929 . S
H1093 C1102 0.930 . S
H1094 C1104 0.930 . S
H1095 C1107 0.929 . S
H1096 C1110 0.930 . S
H1097 C1112 0.960 . S
H1098 C1112 0.960 . S
H1099 C1112 0.960 . S
C1100 H1092 0.929 . S
C1100 C1101 1.377 . S
C1100 C1102 1.384 . S
C1101 C1100 1.377 . S
C1101 C1107 1.390 . S
C1102 H1093 0.930 . S
C1102 C1100 1.384 . S
C1102 C1103 1.372 . S
C1103 C1102 1.372 . S
C1103 C1104 1.400 . S
C1103 C1108 1.490 . S
C1104 H1094 0.930 . S
C1104 C1103 1.400 . S
C1104 C1107 1.386 . S
H1105 C1121 0.930 . S
H1106 C1122 0.931 . S
C1107 H1095 0.929 . S
C1107 C1101 1.390 . S
C1107 C1104 1.386 . S
C1108 C1103 1.490 . S
C1108 C1110 1.395 . S
C1108 C1111 1.403 . S
H1109 C1115 0.930 . S
C1110 H1096 0.930 . S
C1110 C1108 1.395 . S
C1110 C1113 1.403 . S
C1111 C1108 1.403 . S
C1111 C1112 1.524 . S
C1111 C1115 1.400 . S
C1112 H1097 0.960 . S
C1112 H1098 0.960 . S
C1112 H1099 0.960 . S
C1112 C1111 1.524 . S
C1113 C1110 1.403 . S
C1113 C1114 1.392 . S
C1113 C1117 1.495 . S
C1114 C1113 1.392 . S
C1114 C1115 1.385 . S
C1114 C1116 1.478 . S
C1115 H1109 0.930 . S
C1115 C1111 1.400 . S
C1115 C1114 1.385 . S
C1116 C1114 1.478 . S
C1116 C1118 1.381 . S
C1116 C1122 1.383 . S
C1117 C1113 1.495 . S
C1117 H1123 0.959 . S
C1117 H1124 0.961 . S
C1117 H1125 0.960 . S
C1118 C1116 1.381 . S
C1118 C1119 1.394 . S
C1118 H1126 0.930 . S
C1119 C1118 1.394 . S
C1119 C1120 1.383 . S
C1119 H1127 0.929 . S
C1120 C1119 1.383 . S
C1120 C1121 1.377 . S
C1121 H1105 0.930 . S
C1121 C1120 1.377 . S
C1121 C1122 1.379 . S
C1122 H1106 0.931 . S
C1122 C1116 1.383 . S
C1122 C1121 1.379 . S
H1123 C1117 0.959 . S
H1124 C1117 0.961 . S
H1125 C1117 0.960 . S
H1126 C1118 0.930 . S
H1127 C1119 0.929 . S
C273 C82 1.741 . S
C292 C113 1.733 . S
C328 C153 1.328 . S
C309 C95 1.232 . S
C364 C202 1.266 . S
C345 C56 1.323 . S
C400 C233 1.512 1_455 S
C381 C69 1.547 . S
C436 C122 1.714 1_565 S
C417 C30 1.645 . S
C453 C43 1.276 . S
C472 C162 1.319 . S
C489 C4 1.290 . S
C508 C193 1.317 . S
C525 C17 1.538 . S
C544 C242 1.561 . S
C580 C123 0.726 . S
C561 C74 0.706 . S
C616 C163 1.317 . S
C597 C87 1.209 . S
C652 C199 0.620 . S
C633 C100 0.608 . S
C669 C61 0.857 . S
C688 C243 0.908 . S
C705 C22 0.706 . S
C724 C114 0.703 . S
C760 C154 1.309 1_565 S
C741 C35 1.207 . S
C796 C190 0.623 . S
C777 C48 0.608 . S
C813 C9 0.858 . S
C832 C234 0.911 . S
C849 C73 1.621 . S
C868 C119 1.662 . S
C885 C86 1.396 . S
C904 C159 1.394 . S
C940 C203 1.922 . S
C921 C99 1.806 . S
C976 C239 1.421 . S
C957 C60 1.416 . S
C993 C21 1.618 . S
C1012 C110 1.661 . S
C1048 C150 1.404 . S
C1029 C34 1.396 . S
C1084 C194 1.925 . S
C1065 C47 1.801 . S
C1101 C8 1.416 . S
C1120 C230 1.436 . S
