# Generated by pormake.
# Topology ctn, (3,4)-cn, num edge types: 1
# Building blocks:
#     Node 0, Type 0, BuildingBlock: QEWDON_clean_linker_0, # of connection points: 3
#     Node 1, Type 0, BuildingBlock: QEWDON_clean_linker_0, # of connection points: 3
#     Node 2, Type 0, BuildingBlock: QEWDON_clean_linker_0, # of connection points: 3
#     Node 3, Type 0, BuildingBlock: QEWDON_clean_linker_0, # of connection points: 3
#     Node 4, Type 0, BuildingBlock: QEWDON_clean_linker_0, # of connection points: 3
#     Node 5, Type 0, BuildingBlock: QEWDON_clean_linker_0, # of connection points: 3
#     Node 6, Type 0, BuildingBlock: QEWDON_clean_linker_0, # of connection points: 3
#     Node 7, Type 0, BuildingBlock: QEWDON_clean_linker_0, # of connection points: 3
#     Node 8, Type 0, BuildingBlock: QEWDON_clean_linker_0, # of connection points: 3
#     Node 9, Type 0, BuildingBlock: QEWDON_clean_linker_0, # of connection points: 3
#     Node 10, Type 0, BuildingBlock: QEWDON_clean_linker_0, # of connection points: 3
#     Node 11, Type 0, BuildingBlock: QEWDON_clean_linker_0, # of connection points: 3
#     Node 12, Type 0, BuildingBlock: QEWDON_clean_linker_0, # of connection points: 3
#     Node 13, Type 0, BuildingBlock: QEWDON_clean_linker_0, # of connection points: 3
#     Node 14, Type 0, BuildingBlock: QEWDON_clean_linker_0, # of connection points: 3
#     Node 15, Type 0, BuildingBlock: QEWDON_clean_linker_0, # of connection points: 3
#     Node 16, Type 1, BuildingBlock: QUQFOY_clean_sbu_1, # of connection points: 4
#     Node 17, Type 1, BuildingBlock: QUQFOY_clean_sbu_1, # of connection points: 4
#     Node 18, Type 1, BuildingBlock: QUQFOY_clean_sbu_1, # of connection points: 4
#     Node 19, Type 1, BuildingBlock: QUQFOY_clean_sbu_1, # of connection points: 4
#     Node 20, Type 1, BuildingBlock: QUQFOY_clean_sbu_1, # of connection points: 4
#     Node 21, Type 1, BuildingBlock: QUQFOY_clean_sbu_1, # of connection points: 4
#     Node 22, Type 1, BuildingBlock: QUQFOY_clean_sbu_1, # of connection points: 4
#     Node 23, Type 1, BuildingBlock: QUQFOY_clean_sbu_1, # of connection points: 4
#     Node 24, Type 1, BuildingBlock: QUQFOY_clean_sbu_1, # of connection points: 4
#     Node 25, Type 1, BuildingBlock: QUQFOY_clean_sbu_1, # of connection points: 4
#     Node 26, Type 1, BuildingBlock: QUQFOY_clean_sbu_1, # of connection points: 4
#     Node 27, Type 1, BuildingBlock: QUQFOY_clean_sbu_1, # of connection points: 4
#     Edge 28, Type (0, 1), BuildingBlock: CIFDUS_clean_linker_0, # of connection points: 2
#     Edge 29, Type (0, 1), BuildingBlock: CIFDUS_clean_linker_0, # of connection points: 2
#     Edge 30, Type (0, 1), BuildingBlock: CIFDUS_clean_linker_0, # of connection points: 2
#     Edge 31, Type (0, 1), BuildingBlock: CIFDUS_clean_linker_0, # of connection points: 2
#     Edge 32, Type (0, 1), BuildingBlock: CIFDUS_clean_linker_0, # of connection points: 2
#     Edge 33, Type (0, 1), BuildingBlock: CIFDUS_clean_linker_0, # of connection points: 2
#     Edge 34, Type (0, 1), BuildingBlock: CIFDUS_clean_linker_0, # of connection points: 2
#     Edge 35, Type (0, 1), BuildingBlock: CIFDUS_clean_linker_0, # of connection points: 2
#     Edge 36, Type (0, 1), BuildingBlock: CIFDUS_clean_linker_0, # of connection points: 2
#     Edge 37, Type (0, 1), BuildingBlock: CIFDUS_clean_linker_0, # of connection points: 2
#     Edge 38, Type (0, 1), BuildingBlock: CIFDUS_clean_linker_0, # of connection points: 2
#     Edge 39, Type (0, 1), BuildingBlock: CIFDUS_clean_linker_0, # of connection points: 2
#     Edge 40, Type (0, 1), BuildingBlock: CIFDUS_clean_linker_0, # of connection points: 2
#     Edge 41, Type (0, 1), BuildingBlock: CIFDUS_clean_linker_0, # of connection points: 2
#     Edge 42, Type (0, 1), BuildingBlock: CIFDUS_clean_linker_0, # of connection points: 2
#     Edge 43, Type (0, 1), BuildingBlock: CIFDUS_clean_linker_0, # of connection points: 2
#     Edge 44, Type (0, 1), BuildingBlock: CIFDUS_clean_linker_0, # of connection points: 2
#     Edge 45, Type (0, 1), BuildingBlock: CIFDUS_clean_linker_0, # of connection points: 2
#     Edge 46, Type (0, 1), BuildingBlock: CIFDUS_clean_linker_0, # of connection points: 2
#     Edge 47, Type (0, 1), BuildingBlock: CIFDUS_clean_linker_0, # of connection points: 2
#     Edge 48, Type (0, 1), BuildingBlock: CIFDUS_clean_linker_0, # of connection points: 2
#     Edge 49, Type (0, 1), BuildingBlock: CIFDUS_clean_linker_0, # of connection points: 2
#     Edge 50, Type (0, 1), BuildingBlock: CIFDUS_clean_linker_0, # of connection points: 2
#     Edge 51, Type (0, 1), BuildingBlock: CIFDUS_clean_linker_0, # of connection points: 2
#     Edge 52, Type (0, 1), BuildingBlock: CIFDUS_clean_linker_0, # of connection points: 2
#     Edge 53, Type (0, 1), BuildingBlock: CIFDUS_clean_linker_0, # of connection points: 2
#     Edge 54, Type (0, 1), BuildingBlock: CIFDUS_clean_linker_0, # of connection points: 2
#     Edge 55, Type (0, 1), BuildingBlock: CIFDUS_clean_linker_0, # of connection points: 2
#     Edge 56, Type (0, 1), BuildingBlock: CIFDUS_clean_linker_0, # of connection points: 2
#     Edge 57, Type (0, 1), BuildingBlock: CIFDUS_clean_linker_0, # of connection points: 2
#     Edge 58, Type (0, 1), BuildingBlock: CIFDUS_clean_linker_0, # of connection points: 2
#     Edge 59, Type (0, 1), BuildingBlock: CIFDUS_clean_linker_0, # of connection points: 2
#     Edge 60, Type (0, 1), BuildingBlock: CIFDUS_clean_linker_0, # of connection points: 2
#     Edge 61, Type (0, 1), BuildingBlock: CIFDUS_clean_linker_0, # of connection points: 2
#     Edge 62, Type (0, 1), BuildingBlock: CIFDUS_clean_linker_0, # of connection points: 2
#     Edge 63, Type (0, 1), BuildingBlock: CIFDUS_clean_linker_0, # of connection points: 2
#     Edge 64, Type (0, 1), BuildingBlock: CIFDUS_clean_linker_0, # of connection points: 2
#     Edge 65, Type (0, 1), BuildingBlock: CIFDUS_clean_linker_0, # of connection points: 2
#     Edge 66, Type (0, 1), BuildingBlock: CIFDUS_clean_linker_0, # of connection points: 2
#     Edge 67, Type (0, 1), BuildingBlock: CIFDUS_clean_linker_0, # of connection points: 2
#     Edge 68, Type (0, 1), BuildingBlock: CIFDUS_clean_linker_0, # of connection points: 2
#     Edge 69, Type (0, 1), BuildingBlock: CIFDUS_clean_linker_0, # of connection points: 2
#     Edge 70, Type (0, 1), BuildingBlock: CIFDUS_clean_linker_0, # of connection points: 2
#     Edge 71, Type (0, 1), BuildingBlock: CIFDUS_clean_linker_0, # of connection points: 2
#     Edge 72, Type (0, 1), BuildingBlock: CIFDUS_clean_linker_0, # of connection points: 2
#     Edge 73, Type (0, 1), BuildingBlock: CIFDUS_clean_linker_0, # of connection points: 2
#     Edge 74, Type (0, 1), BuildingBlock: CIFDUS_clean_linker_0, # of connection points: 2
#     Edge 75, Type (0, 1), BuildingBlock: CIFDUS_clean_linker_0, # of connection points: 2
# Relax obj value: 0.131
# Max RMSD: 0.255
# Mean RMSD: 0.169
data_MOF--net-ctn--node1-QUQFOY_clean_sbu_1--node2-QEWDON_clean_linker_0--edge1-CIFDUS_clean_linker_0
_symmetry_space_group_name_H-M    P1
_symmetry_Int_Tables_number       1
_symmetry_cell_setting            triclinic
loop_
_symmetry_equiv_pos_as_xyz
'x, y, z'
_cell_length_a     45.922541
_cell_length_b     47.782016
_cell_length_c     52.166352
_cell_angle_alpha  102.25899
_cell_angle_beta   92.396582
_cell_angle_gamma 101.79948
loop_
_atom_site_label
_atom_site_type_symbol
_atom_site_fract_x
_atom_site_fract_y
_atom_site_fract_z
_atom_type_partial_charge
H0 H 0.12116 0.04862 0.06832 0.0
C1 C 0.10968 0.04606 0.08568 0.0
C2 C 0.11151 0.02251 0.09756 0.0
C3 C 0.09405 0.06727 0.09657 0.0
H4 H 0.09784 0.00259 0.12987 0.0
C5 C 0.09585 0.01993 0.11996 0.0
C6 C 0.07851 0.04027 0.13025 0.0
C7 C 0.0781 0.06402 0.11838 0.0
C8 C 0.09683 0.09442 0.0868 0.0
H9 H 0.06516 0.08011 0.1258 0.0
C10 C 0.08648 0.09368 0.06087 0.0
C11 C 0.09032 0.11978 0.05177 0.0
C12 C 0.11089 0.12132 0.10357 0.0
H13 H 0.11908 0.12224 0.12358 0.0
C14 C 0.11503 0.14715 0.0945 0.0
H15 H 0.07544 0.07296 0.04792 0.0
C16 C 0.10489 0.14644 0.06875 0.0
H17 H 0.10782 0.16686 0.06228 0.0
H18 H 0.12602 0.1678 0.1075 0.0
H19 H 0.36227 0.77789 0.27226 0.0
C20 C 0.34607 0.75734 0.26958 0.0
C21 C 0.35441 0.7321 0.27484 0.0
C22 C 0.31631 0.75667 0.26179 0.0
H23 H 0.33774 0.68631 0.27505 0.0
C24 C 0.33233 0.70589 0.27071 0.0
C25 C 0.30268 0.7048 0.26195 0.0
C26 C 0.29488 0.73042 0.25774 0.0
C27 C 0.30647 0.78393 0.26086 0.0
H28 H 0.27179 0.73033 0.25234 0.0
C29 C 0.30721 0.79458 0.23777 0.0
C30 C 0.29433 0.81861 0.23594 0.0
C31 C 0.29376 0.79782 0.2826 0.0
H32 H 0.29284 0.78966 0.30048 0.0
C33 C 0.28152 0.8219 0.28122 0.0
H34 H 0.31745 0.78377 0.22127 0.0
C35 C 0.28146 0.83206 0.25804 0.0
H36 H 0.27063 0.85001 0.25735 0.0
H37 H 0.27142 0.83233 0.29799 0.0
H38 H 0.97135 0.45179 0.07122 0.0
C39 C 0.96679 0.47121 0.06574 0.0
C40 C 0.97789 0.49918 0.08225 0.0
C41 C 0.94952 0.46783 0.04213 0.0
H42 H 0.98086 0.5459 0.08614 0.0
C43 C 0.97245 0.52411 0.07392 0.0
C44 C 0.95623 0.52087 0.04955 0.0
C45 C 0.94431 0.4926 0.03416 0.0
C46 C 0.93677 0.43829 0.02575 0.0
H47 H 0.9311 0.48982 0.0157 0.0
C48 C 0.95554 0.41937 0.01625 0.0
C49 C 0.94345 0.39119 0.00071 0.0
C50 C 0.90578 0.42893 0.0196 0.0
H51 H 0.89099 0.44328 0.02677 0.0
C52 C 0.89364 0.40079 0.00447 0.0
H53 H 0.97951 0.42665 0.02084 0.0
C54 C 0.91231 0.38195 0.99509 0.0
H55 H 0.90248 0.36038 0.983 0.0
H56 H 0.86971 0.39361 -0.00012 0.0
H57 H 0.78304 0.81864 0.26419 0.0
C58 C 0.78255 0.80976 0.24323 0.0
C59 C 0.79072 0.82874 0.2262 0.0
C60 C 0.77486 0.77915 0.23349 0.0
H61 H 0.79579 0.83081 0.18556 0.0
C62 C 0.79027 0.81661 0.19913 0.0
C63 C 0.78373 0.78618 0.18932 0.0
C64 C 0.77612 0.76753 0.20654 0.0
C65 C 0.76467 0.75924 0.25122 0.0
H66 H 0.77032 0.74399 0.19874 0.0
C67 C 0.74343 0.76553 0.26901 0.0
C68 C 0.73107 0.74535 0.28396 0.0
C69 C 0.77472 0.7331 0.2494 0.0
H70 H 0.79131 0.72785 0.23609 0.0
C71 C 0.76331 0.71338 0.26463 0.0
H72 H 0.736 0.78587 0.27059 0.0
C73 C 0.74143 0.7192 0.28153 0.0
H74 H 0.73214 0.70274 0.29209 0.0
H75 H 0.77101 0.69316 0.26292 0.0
H76 H 0.12363 0.97107 0.47991 0.0
C77 C 0.10861 0.97875 0.46781 0.0
C78 C 0.11749 0.00641 0.4618 0.0
C79 C 0.08063 0.96064 0.45743 0.0
H80 H 0.10535 0.03663 0.44003 0.0
C81 C 0.09827 0.0157 0.44539 0.0
C82 C 0.07046 0.99789 0.43495 0.0
C83 C 0.06154 0.97053 0.44124 0.0
C84 C 0.07193 0.93048 0.4616 0.0
H85 H 0.04018 0.95647 0.4328 0.0
C86 C 0.0708 0.92516 0.48713 0.0
C87 C 0.05996 0.89654 0.49047 0.0
C88 C 0.06333 0.90682 0.43964 0.0
H89 H 0.06425 0.91041 0.41984 0.0
C90 C 0.05334 0.87837 0.44299 0.0
H91 H 0.07697 0.9433 0.5042 0.0
C92 C 0.05138 0.87325 0.46825 0.0
H93 H 0.04302 0.85107 0.47049 0.0
H94 H 0.0467 0.8603 0.42597 0.0
H95 H 0.30343 0.71847 0.78648 0.0
C96 C 0.29428 0.72458 0.80514 0.0
C97 C 0.29818 0.70997 0.82538 0.0
C98 C 0.278 0.74674 0.80858 0.0
H99 H 0.2884 0.70703 0.86496 0.0
C100 C 0.28534 0.71795 0.8492 0.0
C101 C 0.26917 0.74036 0.85309 0.0
C102 C 0.26561 0.75449 0.83249 0.0
C103 C 0.27446 0.76268 0.78761 0.0
H104 H 0.25423 0.77252 0.8353 0.0
C105 C 0.24597 0.76572 0.7794 0.0
C106 C 0.24225 0.78275 0.76097 0.0
C107 C 0.2995 0.77609 0.77669 0.0
H108 H 0.32169 0.77413 0.78281 0.0
C109 C 0.29615 0.79297 0.75841 0.0
H110 H 0.22673 0.75433 0.78725 0.0
C111 C 0.26785 0.79654 0.75075 0.0
H112 H 0.26621 0.8104 0.73707 0.0
H113 H 0.31563 0.80366 0.75038 0.0
H114 H 0.96471 0.60096 0.47103 0.0
C115 C 0.95652 0.5821 0.47922 0.0
C116 C 0.95697 0.58524 0.50672 0.0
C117 C 0.94403 0.55496 0.46216 0.0
H118 H 0.94476 0.56273 0.53784 0.0
C119 C 0.94555 0.56051 0.51678 0.0
C120 C 0.93344 0.53318 0.49982 0.0
C121 C 0.93286 0.53057 0.47251 0.0
C122 C 0.93896 0.55276 0.43366 0.0
H123 H 0.92224 0.5099 0.45924 0.0
C124 C 0.96273 0.55343 0.41757 0.0
C125 C 0.95733 0.55032 0.39021 0.0
C126 C 0.90979 0.5493 0.42242 0.0
H127 H 0.89122 0.54868 0.4346 0.0
C128 C 0.90437 0.54666 0.39543 0.0
H129 H 0.98523 0.55611 0.42633 0.0
C130 C 0.92792 0.5471 0.37937 0.0
H131 H 0.92302 0.5443 0.35837 0.0
H132 H 0.88181 0.54398 0.38688 0.0
H133 H 0.8825 0.86486 0.80744 0.0
C134 C 0.8765 0.85016 0.82053 0.0
C135 C 0.88877 0.82525 0.81852 0.0
C136 C 0.85771 0.85724 0.84022 0.0
H137 H 0.89281 0.78923 0.83611 0.0
C138 C 0.88246 0.80779 0.83707 0.0
C139 C 0.86374 0.81463 0.85719 0.0
C140 C 0.85081 0.83915 0.85803 0.0
C141 C 0.84958 0.88612 0.84487 0.0
H142 H 0.8363 0.84506 0.87316 0.0
C143 C 0.82001 0.8889 0.83999 0.0
C144 C 0.81319 0.91691 0.84532 0.0
C145 C 0.87212 0.91132 0.85477 0.0
H146 H 0.89496 0.90951 0.85861 0.0
C147 C 0.86538 0.93898 0.8601 0.0
H148 H 0.80254 0.86952 0.83225 0.0
C149 C 0.83613 0.9418 0.85549 0.0
H150 H 0.83145 0.96357 0.85955 0.0
H151 H 0.88287 0.9583 0.86781 0.0
H152 H 0.36705 0.34499 0.29269 0.0
C153 C 0.36595 0.3311 0.30671 0.0
C154 C 0.37706 0.30526 0.30122 0.0
C155 C 0.35446 0.33991 0.33083 0.0
H156 H 0.38289 0.26751 0.31587 0.0
C157 C 0.37467 0.28752 0.31985 0.0
C158 C 0.3624 0.29568 0.34388 0.0
C159 C 0.35298 0.32237 0.34931 0.0
C160 C 0.34692 0.36896 0.33817 0.0
H161 H 0.34499 0.33006 0.36823 0.0
C162 C 0.32122 0.37475 0.32654 0.0
C163 C 0.31344 0.40203 0.33532 0.0
C164 C 0.36517 0.39073 0.35799 0.0
H165 H 0.385 0.38656 0.36713 0.0
C166 C 0.35799 0.41799 0.3662 0.0
H167 H 0.30684 0.35778 0.31153 0.0
C168 C 0.33229 0.42362 0.35505 0.0
H169 H 0.32715 0.44497 0.36185 0.0
H170 H 0.37226 0.43474 0.38141 0.0
H171 H 0.47152 0.95865 0.56512 0.0
C172 C 0.46595 0.97607 0.55686 0.0
C173 C 0.47901 0.00558 0.56853 0.0
C174 C 0.44493 0.96862 0.53497 0.0
H175 H 0.4806 0.05063 0.56626 0.0
C176 C 0.47042 0.02777 0.55788 0.0
C177 C 0.44918 0.02053 0.53595 0.0
C178 C 0.43646 0.99086 0.52475 0.0
C179 C 0.43238 0.93746 0.52238 0.0
H180 H 0.41994 0.98498 0.50794 0.0
C181 C 0.45161 0.91839 0.51483 0.0
C182 C 0.44016 0.88892 0.50203 0.0
C183 C 0.40138 0.92678 0.51739 0.0
H184 H 0.38617 0.94113 0.5231 0.0
C185 C 0.38981 0.89737 0.50518 0.0
H186 H 0.47556 0.92669 0.51858 0.0
C187 C 0.40902 0.87852 0.49747 0.0
H188 H 0.39951 0.85601 0.48737 0.0
H189 H 0.36589 0.88923 0.5014 0.0
H190 H 0.29574 0.29779 0.77748 0.0
C191 C 0.30177 0.28913 0.758 0.0
C192 C 0.31727 0.30836 0.74368 0.0
C193 C 0.29372 0.25872 0.74726 0.0
H194 H 0.33756 0.31093 0.70736 0.0
C195 C 0.32479 0.29664 0.71841 0.0
C196 C 0.31604 0.26654 0.70701 0.0
C197 C 0.30089 0.24763 0.72169 0.0
C198 C 0.27677 0.23859 0.76228 0.0
H199 H 0.29349 0.22443 0.71274 0.0
C200 C 0.25304 0.24631 0.77638 0.0
C201 C 0.23609 0.22691 0.78983 0.0
C202 C 0.28382 0.2113 0.76213 0.0
H203 H 0.30217 0.20489 0.75171 0.0
C204 C 0.26733 0.19204 0.77558 0.0
H205 H 0.24756 0.26735 0.77661 0.0
C206 C 0.24355 0.19964 0.78922 0.0
H207 H 0.23069 0.18387 0.79884 0.0
H208 H 0.27284 0.17101 0.77524 0.0
H209 H 0.87075 0.26102 0.76271 0.0
C210 C 0.85408 0.24096 0.75517 0.0
C211 C 0.86059 0.21353 0.75579 0.0
C212 C 0.8255 0.24277 0.74599 0.0
H213 H 0.84269 0.16676 0.7469 0.0
C214 C 0.838 0.18808 0.74691 0.0
C215 C 0.80886 0.18981 0.73936 0.0
C216 C 0.80299 0.21721 0.73815 0.0
C217 C 0.8179 0.27153 0.74739 0.0
H218 H 0.78047 0.21899 0.73283 0.0
C219 C 0.81212 0.28079 0.72425 0.0
C220 C 0.80252 0.30725 0.72534 0.0
C221 C 0.81461 0.28893 0.77187 0.0
H222 H 0.81883 0.28197 0.78987 0.0
C223 C 0.80497 0.315 0.77321 0.0
H224 H 0.81556 0.26741 0.70558 0.0
C225 C 0.7987 0.32401 0.75019 0.0
H226 H 0.79054 0.34398 0.75199 0.0
H227 H 0.80198 0.32813 0.79215 0.0
H228 H 0.6192 0.54991 0.56247 0.0
C229 C 0.60341 0.54563 0.57678 0.0
C230 C 0.59825 0.51851 0.58419 0.0
C231 C 0.58959 0.56798 0.58874 0.0
H232 H 0.57529 0.49348 0.60993 0.0
C233 C 0.57885 0.51413 0.60388 0.0
C234 C 0.56428 0.53621 0.61585 0.0
C235 C 0.56984 0.56305 0.60791 0.0
C236 C 0.59732 0.59727 0.58252 0.0
H237 H 0.55869 0.58028 0.6164 0.0
C238 C 0.5939 0.60061 0.55646 0.0
C239 C 0.6016 0.62864 0.55083 0.0
C240 C 0.60861 0.62208 0.60288 0.0
H241 H 0.61153 0.61994 0.62304 0.0
C242 C 0.61667 0.64978 0.59736 0.0
H243 H 0.58503 0.58152 0.54071 0.0
C244 C 0.61321 0.65311 0.57156 0.0
H245 H 0.61893 0.67498 0.56792 0.0
H246 H 0.62542 0.6688 0.61316 0.0
H247 H 0.63788 0.48815 0.98286 0.0
C248 C 0.61844 0.49184 0.97265 0.0
C249 C 0.61941 0.5189 0.96597 0.0
C250 C 0.59272 0.46926 0.96573 0.0
H251 H 0.59554 0.54377 0.94626 0.0
C252 C 0.59452 0.52314 0.9521 0.0
C253 C 0.56894 0.50049 0.94435 0.0
C254 C 0.56785 0.47365 0.95172 0.0
C255 C 0.59366 0.44015 0.97052 0.0
H256 H 0.54851 0.45575 0.94531 0.0
C257 C 0.58091 0.43091 0.99218 0.0
C258 C 0.58481 0.40435 0.99798 0.0
C259 C 0.60966 0.42248 0.95434 0.0
H260 H 0.6198 0.42946 0.9377 0.0
C261 C 0.61307 0.39592 0.95974 0.0
H262 H 0.56894 0.44476 0.00493 0.0
C263 C 0.60091 0.38695 0.9815 0.0
H264 H 0.6039 0.36627 0.98538 0.0
H265 H 0.62544 0.38238 0.94718 0.0
H266 H 0.81715 0.23432 0.2784 0.0
C267 C 0.8082 0.24346 0.29642 0.0
C268 C 0.81258 0.2332 0.31932 0.0
C269 C 0.79167 0.26505 0.29634 0.0
H270 H 0.80585 0.23907 0.36056 0.0
C271 C 0.80096 0.2457 0.34254 0.0
C272 C 0.78431 0.26751 0.34285 0.0
C273 C 0.77913 0.27633 0.31928 0.0
C274 C 0.78887 0.27722 0.27277 0.0
H275 H 0.76603 0.29269 0.31878 0.0
C276 C 0.76063 0.27741 0.26144 0.0
C277 C 0.75788 0.29079 0.24005 0.0
C278 C 0.81461 0.28997 0.26232 0.0
H279 H 0.83659 0.29016 0.27086 0.0
C280 C 0.81221 0.30344 0.24133 0.0
H281 H 0.74096 0.26661 0.26915 0.0
C282 C 0.78415 0.30412 0.2304 0.0
H283 H 0.78319 0.31539 0.21455 0.0
H284 H 0.83219 0.3137 0.23367 0.0
H285 H 0.47482 0.09565 0.96556 0.0
C286 C 0.46247 0.07865 0.97422 0.0
C287 C 0.46126 0.08353 0.00173 0.0
C288 C 0.44653 0.05229 0.95775 0.0
H289 H 0.44268 0.06501 0.03352 0.0
C290 C 0.44481 0.06124 0.01251 0.0
C291 C 0.42885 0.03498 0.99613 0.0
C292 C 0.4298 0.03065 0.96882 0.0
C293 C 0.44495 0.04789 0.92884 0.0
H294 H 0.41702 0.01052 0.95606 0.0
C295 C 0.4704 0.04564 0.91519 0.0
C296 C 0.46801 0.0387 0.88741 0.0
C297 C 0.41718 0.04391 0.91471 0.0
H298 H 0.39732 0.04546 0.92495 0.0
C299 C 0.41474 0.03758 0.88728 0.0
H300 H 0.49179 0.04873 0.9262 0.0
C301 C 0.43986 0.03475 0.87368 0.0
H302 H 0.43703 0.02881 0.85237 0.0
H303 H 0.39321 0.03435 0.87651 0.0
O304 O 0.27304 0.8273 0.01734 0.0
Cd305 Cd 0.28249 0.86076 0.05068 0.0
Cd306 Cd 0.23701 0.87571 0.02673 0.0
O307 O 0.23234 0.83616 -0.00026 0.0
O308 O 0.30506 0.84492 0.07552 0.0
O309 O 0.26233 0.85849 0.08382 0.0
C310 C 0.28416 0.84774 0.09097 0.0
C311 C 0.19745 0.89512 0.04383 0.0
C312 C 0.25185 0.82061 0.99914 0.0
C313 C 0.29913 0.91501 0.03197 0.0
O314 O 0.27217 0.90808 0.02218 0.0
O315 O 0.3086 0.89966 0.04621 0.0
O316 O 0.20294 0.89367 0.01963 0.0
O317 O 0.21301 0.88345 0.05807 0.0
O318 O 0.18227 0.54563 0.28767 0.0
Cd319 Cd 0.15335 0.50794 0.29159 0.0
Cd320 Cd 0.11695 0.53318 0.25178 0.0
O321 O 0.15922 0.55911 0.25573 0.0
O322 O 0.1759 0.49842 0.32087 0.0
O323 O 0.16771 0.46977 0.28104 0.0
C324 C 0.17971 0.47526 0.30488 0.0
C325 C 0.08955 0.52927 0.21176 0.0
C326 C 0.18187 0.56233 0.27175 0.0
C327 C 0.09291 0.52319 0.30385 0.0
O328 O 0.09189 0.53416 0.28374 0.0
O329 O 0.11386 0.51071 0.30854 0.0
O330 O 0.09636 0.55355 0.2292 0.0
O331 O 0.09816 0.50681 0.21687 0.0
O332 O 0.82921 0.71151 0.97234 0.0
Cd333 Cd 0.81287 0.68858 0.0 0.0
Cd334 Cd 0.84422 0.65016 0.97637 0.0
O335 O 0.85352 0.67921 0.95185 0.0
O336 O 0.79665 0.71618 0.02684 0.0
O337 O 0.83342 0.69542 0.03621 0.0
C338 C 0.81514 0.71201 0.04421 0.0
C339 C 0.88069 0.63595 -0.0 0.0
C340 C 0.84487 0.70319 0.95386 0.0
C341 C 0.77896 0.62675 0.97653 0.0
O342 O 0.80355 0.62087 0.96942 0.0
O343 O 0.77798 0.65259 0.98848 0.0
O344 O 0.87525 0.62632 0.97483 0.0
O345 O 0.86653 0.65514 0.01158 0.0
O346 O 0.96199 0.03743 0.31888 0.0
Cd347 Cd 0.94253 0.03715 0.28247 0.0
Cd348 Cd 0.89568 0.04768 0.31675 0.0
O349 O 0.92625 0.04389 0.34519 0.0
O350 O 0.9727 0.02279 0.25964 0.0
O351 O 0.96186 0.06586 0.26112 0.0
C352 C 0.97682 0.04662 0.25137 0.0
C353 C 0.87556 0.0894 0.32219 0.0
C354 C 0.95234 0.03963 0.34156 0.0
C355 C 0.88099 0.99451 0.27296 0.0
O356 O 0.87168 0.00895 0.2931 0.0
O357 O 0.90693 0.00329 0.2662 0.0
O358 O 0.86643 0.069 0.33456 0.0
O359 O 0.89654 0.08621 0.30675 0.0
O360 O 0.31299 0.21558 0.47766 0.0
Cd361 Cd 0.30257 0.19462 0.50771 0.0
Cd362 Cd 0.32665 0.15354 0.47814 0.0
O363 O 0.33461 0.18306 0.45376 0.0
O364 O 0.29289 0.22539 0.536 0.0
O365 O 0.32854 0.20171 0.5415 0.0
C366 C 0.31328 0.2207 0.55124 0.0
C367 C 0.36485 0.13596 0.49565 0.0
C368 C 0.32607 0.2072 0.45737 0.0
C369 C 0.26245 0.1353 0.48823 0.0
O370 O 0.28428 0.1274 0.4767 0.0
O371 O 0.26522 0.16141 0.5014 0.0
O372 O 0.35443 0.12639 0.47128 0.0
O373 O 0.35445 0.15671 0.50984 0.0
O374 O 0.46695 0.52498 0.80867 0.0
Cd375 Cd 0.44021 0.5232 0.77501 0.0
Cd376 Cd 0.40246 0.53629 0.81633 0.0
O377 O 0.43886 0.53721 0.84087 0.0
O378 O 0.46579 0.5099 0.74687 0.0
O379 O 0.4534 0.55285 0.75269 0.0
C380 C 0.46726 0.53423 0.73974 0.0
C381 C 0.37764 0.57483 0.8221 0.0
C382 C 0.46304 0.53086 0.83309 0.0
C383 C 0.3817 0.48021 0.77653 0.0
O384 O 0.37824 0.49516 0.79891 0.0
O385 O 0.40318 0.489 0.76356 0.0
O386 O 0.37432 0.5564 0.83717 0.0
O387 O 0.39586 0.57182 0.80398 0.0
O388 O 0.76564 0.32587 0.50784 0.0
Cd389 Cd 0.78139 0.35395 0.5436 0.0
Cd390 Cd 0.74443 0.38665 0.52831 0.0
O391 O 0.74065 0.35514 0.49339 0.0
O392 O 0.79705 0.32985 0.56534 0.0
O393 O 0.76075 0.35318 0.5767 0.0
C394 C 0.77818 0.33665 0.58191 0.0
C395 C 0.70311 0.4054 0.54273 0.0
C396 C 0.7506 0.33175 0.48948 0.0
C397 C 0.8101 0.41468 0.54119 0.0
O398 O 0.78368 0.41783 0.53687 0.0
O399 O 0.81497 0.38994 0.54311 0.0
O400 O 0.71501 0.41039 0.52178 0.0
O401 O 0.71375 0.38836 0.555 0.0
O402 O 0.68167 0.03878 0.77118 0.0
Cd403 Cd 0.65169 0.00269 0.77722 0.0
Cd404 Cd 0.61893 0.02166 0.73275 0.0
O405 O 0.66028 0.04911 0.73658 0.0
O406 O 0.67457 0.99165 0.80546 0.0
O407 O 0.6628 0.96317 0.76566 0.0
C408 C 0.67634 0.96804 0.78889 0.0
C409 C 0.5924 0.01331 0.69146 0.0
C410 C 0.68222 0.05376 0.75369 0.0
C411 C 0.59199 0.01907 0.78575 0.0
O412 O 0.59209 0.02549 0.76333 0.0
O413 O 0.61276 0.00847 0.79418 0.0
O414 O 0.59671 0.03814 0.70806 0.0
O415 O 0.60355 0.99288 0.69806 0.0
O416 O 0.00649 0.23467 0.92912 0.0
Cd417 Cd 0.01726 0.19929 0.90447 0.0
Cd418 Cd 0.04734 0.24205 0.88398 0.0
O419 O 0.03687 0.27023 0.91633 0.0
O420 O 0.01129 0.16719 0.92417 0.0
O421 O 0.05536 0.18827 0.9138 0.0
C422 C 0.03993 0.17011 0.92582 0.0
C423 C 0.09576 0.24271 0.87243 0.0
C424 C 0.01757 0.26184 0.9315 0.0
C425 C 0.99376 0.20086 0.85124 0.0
O426 O 0.01339 0.22457 0.8544 0.0
O427 O 0.99278 0.1852 0.86825 0.0
O428 O 0.08169 0.262 0.86741 0.0
O429 O 0.08267 0.22381 0.88495 0.0
O430 O 0.50383 0.73424 0.4304 0.0
Cd431 Cd 0.51568 0.70022 0.40442 0.0
Cd432 Cd 0.5504 0.74457 0.39144 0.0
O433 O 0.54093 0.76973 0.42586 0.0
O434 O 0.50502 0.66552 0.42038 0.0
O435 O 0.55159 0.68673 0.41603 0.0
C436 C 0.53328 0.66745 0.42498 0.0
C437 C 0.5983 0.74726 0.37787 0.0
C438 C 0.51804 0.76084 0.43727 0.0
C439 C 0.49698 0.71086 0.35397 0.0
O440 O 0.51663 0.73448 0.36175 0.0
O441 O 0.49483 0.69062 0.36661 0.0
O442 O 0.58423 0.76786 0.37708 0.0
O443 O 0.58573 0.72565 0.38771 0.0
O444 O 0.00423 0.78523 0.69819 0.0
Cd445 Cd 0.03468 0.77065 0.67357 0.0
Cd446 Cd 0.00196 0.79284 0.63802 0.0
O447 O 0.97879 0.80267 0.67077 0.0
O448 O 0.06467 0.76285 0.69819 0.0
O449 O 0.07609 0.79473 0.67299 0.0
C450 C 0.08451 0.78168 0.69036 0.0
C451 C 0.0098 0.82581 0.61025 0.0
C452 C 0.98318 0.79749 0.69338 0.0
C453 C 0.00587 0.72854 0.62361 0.0
O454 O 0.99634 0.74975 0.61775 0.0
O455 O 0.02128 0.73208 0.64531 0.0
O456 O 0.98373 0.81033 0.61175 0.0
O457 O 0.03168 0.82357 0.62551 0.0
O458 O 0.50437 0.27489 0.1924 0.0
Cd459 Cd 0.53877 0.26313 0.17168 0.0
Cd460 Cd 0.51512 0.28963 0.13626 0.0
O461 O 0.48955 0.30174 0.16693 0.0
O462 O 0.56622 0.25516 0.19844 0.0
O463 O 0.57986 0.28906 0.17549 0.0
C464 C 0.5866 0.27544 0.19305 0.0
C465 C 0.53761 0.32427 0.11354 0.0
C466 C 0.48766 0.29162 0.1876 0.0
C467 C 0.51468 0.22456 0.11943 0.0
O468 O 0.50631 0.2467 0.11421 0.0
O469 O 0.52872 0.22656 0.14146 0.0
O470 O 0.50922 0.3136 0.11029 0.0
O471 O 0.55324 0.31607 0.13061 0.0
H472 H 0.29468 0.74335 0.90221 0.0
H473 H 0.21772 0.76052 0.86288 0.0
H474 H 0.20348 0.78435 0.90514 0.0
H475 H 0.21604 0.805 0.95277 0.0
H476 H 0.29163 0.78506 0.99169 0.0
H477 H 0.30222 0.75645 0.95014 0.0
C478 C 0.27426 0.75142 0.90273 0.0
C479 C 0.25778 0.75059 0.8791 0.0
C480 C 0.26583 0.76465 0.92714 0.0
C481 C 0.23154 0.76164 0.88056 0.0
C482 C 0.22317 0.77509 0.90479 0.0
C483 C 0.23441 0.79384 0.9523 0.0
C484 C 0.25332 0.79775 0.97532 0.0
C485 C 0.24066 0.7775 0.92816 0.0
C486 C 0.27687 0.78285 0.97429 0.0
C487 C 0.28309 0.76654 0.95046 0.0
H488 H 0.00203 0.52089 0.39148 0.0
H489 H 0.96768 0.5776 0.34945 0.0
H490 H 0.00625 0.57384 0.31887 0.0
H491 H 0.04923 0.55401 0.30374 0.0
H492 H 0.08418 0.4978 0.34608 0.0
H493 H 0.04598 0.50201 0.37697 0.0
C494 C 0.00325 0.53275 0.37585 0.0
C495 C 0.98197 0.54945 0.37272 0.0
C496 C 0.02549 0.53048 0.35832 0.0
C497 C 0.98358 0.56432 0.3521 0.0
C498 C 0.00567 0.56225 0.33465 0.0
C499 C 0.04851 0.5426 0.31968 0.0
C500 C 0.06953 0.52552 0.32247 0.0
C501 C 0.02659 0.54522 0.33745 0.0
C502 C 0.0683 0.51108 0.34339 0.0
C503 C 0.04646 0.51349 0.36111 0.0
H504 H 0.86219 0.75588 0.85306 0.0
H505 H 0.85629 0.83471 0.90952 0.0
H506 H 0.84952 0.80732 0.94384 0.0
H507 H 0.8458 0.76114 0.95836 0.0
H508 H 0.85714 0.68373 0.90326 0.0
H509 H 0.86258 0.71083 0.8683 0.0
C510 C 0.85995 0.76738 0.87289 0.0
C511 C 0.85941 0.79749 0.87824 0.0
C512 C 0.85743 0.75179 0.89303 0.0
C513 C 0.85586 0.81147 0.90423 0.0
C514 C 0.8524 0.79588 0.92414 0.0
C515 C 0.84965 0.75026 0.93873 0.0
C516 C 0.85098 0.72044 0.93343 0.0
C517 C 0.85316 0.76606 0.91878 0.0
C518 C 0.85621 0.70672 0.90794 0.0
C519 C 0.85913 0.72215 0.88788 0.0
H520 H 0.01256 0.00296 0.43687 0.0
H521 H 0.08766 0.01373 0.39022 0.0
H522 H 0.05823 0.02934 0.35801 0.0
H523 H 0.01105 0.03856 0.34253 0.0
H524 H 0.93557 0.0288 0.38901 0.0
H525 H 0.96537 0.01469 0.42213 0.0
C526 C 0.0223 0.0087 0.41959 0.0
C527 C 0.05208 0.00715 0.41575 0.0
C528 C 0.00533 0.01803 0.40129 0.0
C529 C 0.06475 0.0149 0.39352 0.0
C530 C 0.04797 0.0238 0.37514 0.0
C531 C 0.0011 0.03355 0.35998 0.0
C532 C 0.97107 0.03457 0.36318 0.0
C533 C 0.01824 0.02534 0.37878 0.0
C534 C 0.95868 0.02827 0.38606 0.0
C535 C 0.97564 0.02001 0.40493 0.0
H536 H 0.30543 0.29042 0.66605 0.0
H537 H 0.33654 0.21747 0.68528 0.0
H538 H 0.34143 0.1982 0.63859 0.0
H539 H 0.33388 0.20079 0.59204 0.0
H540 H 0.30032 0.27282 0.57349 0.0
H541 H 0.30012 0.29423 0.62029 0.0
C542 C 0.31378 0.27056 0.66009 0.0
C543 C 0.32071 0.25542 0.67905 0.0
C544 C 0.31616 0.25954 0.63335 0.0
C545 C 0.33088 0.22939 0.67098 0.0
C546 C 0.33378 0.21845 0.64433 0.0
C547 C 0.32706 0.22143 0.59833 0.0
C548 C 0.31716 0.23527 0.57943 0.0
C549 C 0.32611 0.23316 0.6253 0.0
C550 C 0.30795 0.26177 0.58773 0.0
C551 C 0.30775 0.27397 0.61445 0.0
H552 H 0.55401 0.57682 0.65861 0.0
H553 H 0.52728 0.48469 0.62043 0.0
H554 H 0.49567 0.47623 0.65544 0.0
H555 H 0.47583 0.49459 0.69716 0.0
H556 H 0.49772 0.5872 0.73281 0.0
H557 H 0.53015 0.59602 0.69785 0.0
C558 C 0.54087 0.55494 0.65745 0.0
C559 C 0.54366 0.53141 0.63678 0.0
C560 C 0.52164 0.55031 0.67715 0.0
C561 C 0.5266 0.50319 0.63631 0.0
C562 C 0.50813 0.49831 0.65623 0.0
C563 C 0.4876 0.51673 0.69717 0.0
C564 C 0.48466 0.5402 0.71758 0.0
C565 C 0.50565 0.52164 0.67681 0.0
C566 C 0.49963 0.56882 0.71723 0.0
C567 C 0.51826 0.57381 0.69734 0.0
H568 H 0.78159 0.27383 0.67587 0.0
H569 H 0.81075 0.36402 0.71905 0.0
H570 H 0.80194 0.38081 0.67919 0.0
H571 H 0.7891 0.37015 0.63126 0.0
H572 H 0.76739 0.28042 0.58719 0.0
H573 H 0.77069 0.26316 0.62803 0.0
C574 C 0.78652 0.29718 0.67668 0.0
C575 C 0.79679 0.31746 0.70078 0.0
C576 C 0.78277 0.30681 0.65336 0.0
C577 C 0.8022 0.34768 0.70114 0.0
C578 C 0.79745 0.35742 0.67821 0.0
C579 C 0.78472 0.34685 0.6308 0.0
C580 C 0.77759 0.32647 0.60656 0.0
C581 C 0.78802 0.33721 0.65418 0.0
C582 C 0.77265 0.29636 0.60582 0.0
C583 C 0.77464 0.28655 0.6291 0.0
H584 H 0.52143 0.97587 0.57906 0.0
H585 H 0.48583 0.05158 0.61156 0.0
H586 H 0.51921 0.06147 0.65153 0.0
H587 H 0.55611 0.04704 0.67835 0.0
H588 H 0.58844 0.96893 0.64768 0.0
H589 H 0.55795 0.96107 0.60609 0.0
C590 C 0.52064 0.99438 0.59494 0.0
C591 C 0.50087 0.01282 0.59219 0.0
C592 C 0.53907 -0.00067 0.61833 0.0
C593 C 0.50099 0.03719 0.61282 0.0
C594 C 0.51987 0.04271 0.63586 0.0
C595 C 0.55663 0.02836 0.66253 0.0
C596 C 0.57452 0.00859 0.66607 0.0
C597 C 0.53867 0.02371 0.63895 0.0
C598 C 0.57477 0.98439 0.64546 0.0
C599 C 0.5574 0.97994 0.62168 0.0
H600 H 0.87015 0.1761 0.78647 0.0
H601 H 0.91661 0.24671 0.75369 0.0
H602 H 0.9631 0.24663 0.77819 0.0
H603 H 0.98925 0.22938 0.81177 0.0
H604 H 0.9425 0.15813 0.8436 0.0
H605 H 0.89765 0.15464 0.81533 0.0
C606 C 0.89051 0.19096 0.78393 0.0
C607 C 0.88967 0.21153 0.76827 0.0
C608 C 0.91718 0.19057 0.79779 0.0
C609 C 0.91637 0.23101 0.76595 0.0
C610 C 0.94304 0.23084 0.77982 0.0
C611 C 0.96945 0.21269 0.8122 0.0
C612 C 0.96917 0.19433 0.8301 0.0
C613 C 0.94352 0.21115 0.79625 0.0
C614 C 0.94337 0.17266 0.83014 0.0
C615 C 0.9176 0.17079 0.81412 0.0
H616 H 0.43582 0.83192 0.50466 0.0
H617 H 0.49055 0.90248 0.47718 0.0
H618 H 0.52226 0.86986 0.45794 0.0
H619 H 0.53138 0.82026 0.44506 0.0
H620 H 0.47505 0.74897 0.47039 0.0
H621 H 0.44725 0.78293 0.49447 0.0
C622 C 0.45472 0.84014 0.49449 0.0
C623 C 0.46066 0.86952 0.49222 0.0
C624 C 0.47258 0.82113 0.48305 0.0
C625 C 0.48558 0.88002 0.47941 0.0
C626 C 0.50365 0.86133 0.46826 0.0
C627 C 0.51343 0.81222 0.45628 0.0
C628 C 0.50518 0.78209 0.45575 0.0
C629 C 0.497 0.83171 0.46949 0.0
C630 C 0.48175 0.77205 0.47033 0.0
C631 C 0.46574 0.79143 0.48402 0.0
H632 H 0.21764 0.21435 0.83608 0.0
H633 H 0.19576 0.25681 0.77479 0.0
H634 H 0.15252 0.26831 0.79669 0.0
H635 H 0.11886 0.26347 0.83151 0.0
H636 H 0.13775 0.21684 0.89034 0.0
H637 H 0.18399 0.20952 0.87096 0.0
C638 C 0.20332 0.22591 0.82734 0.0
C639 C 0.21016 0.23468 0.80376 0.0
C640 C 0.17783 0.23164 0.83957 0.0
C641 C 0.19154 0.25019 0.79312 0.0
C642 C 0.16657 0.25659 0.80553 0.0
C643 C 0.13332 0.25206 0.8403 0.0
C644 C 0.12502 0.2408 0.86236 0.0
C645 C 0.15931 0.24713 0.82857 0.0
C646 C 0.14371 0.22569 0.87333 0.0
C647 C 0.17009 0.22146 0.86223 0.0
H648 H 0.55154 0.60552 0.51714 0.0
H649 H 0.63902 0.66212 0.52424 0.0
H650 H 0.62693 0.67596 0.48324 0.0
H651 H 0.58939 0.67675 0.44865 0.0
H652 H 0.50108 0.62185 0.44277 0.0
H653 H 0.51584 0.60201 0.47952 0.0
C654 C 0.56819 0.62031 0.50936 0.0
C655 C 0.596 0.63303 0.52385 0.0
C656 C 0.56087 0.62862 0.48603 0.0
C657 C 0.61728 0.65239 0.51364 0.0
C658 C 0.6104 0.66028 0.49018 0.0
C659 C 0.57357 0.65994 0.45499 0.0
C660 C 0.54409 0.65102 0.44312 0.0
C661 C 0.58193 0.64927 0.47668 0.0
C662 C 0.52387 0.62926 0.45166 0.0
C663 C 0.53224 0.61799 0.47278 0.0
H664 H 0.88367 0.82971 0.76732 0.0
H665 H 0.94062 0.80596 0.82332 0.0
H666 H 0.9745 0.7952 0.78965 0.0
H667 H 0.98832 0.79293 0.74447 0.0
H668 H 0.93244 0.81845 0.68885 0.0
H669 H 0.89823 0.82876 0.72243 0.0
C670 C 0.90363 0.82244 0.77227 0.0
C671 C 0.90937 0.81849 0.79786 0.0
C672 C 0.92337 0.81679 0.75292 0.0
C673 C 0.9352 0.80865 0.80371 0.0
C674 C 0.95479 0.80274 0.78451 0.0
C675 C 0.96871 0.80081 0.73965 0.0
C676 C 0.96302 0.80485 0.71409 0.0
C677 C 0.94911 0.80674 0.75906 0.0
C678 C 0.93748 0.81517 0.70832 0.0
C679 C 0.91783 0.82101 0.72751 0.0
H680 H 0.00787 0.87722 0.50907 0.0
H681 H 0.1027 0.9019 0.53032 0.0
H682 H 0.09558 0.88438 0.57114 0.0
H683 H 0.06236 0.85739 0.5983 0.0
H684 H 0.96732 0.83343 0.57619 0.0
H685 H 0.97447 0.85563 0.53845 0.0
C686 C 0.02687 0.87915 0.52292 0.0
C687 C 0.05572 0.89055 0.51685 0.0
C688 C 0.02255 0.86899 0.54608 0.0
C689 C 0.08028 0.89319 0.5348 0.0
C690 C 0.0762 0.88304 0.55799 0.0
C691 C 0.0432 0.85746 0.58545 0.0
C692 C 0.01439 0.84338 0.58993 0.0
C693 C 0.04745 0.8702 0.56351 0.0
C694 C 0.98978 0.84383 0.57315 0.0
C695 C 0.99381 0.85648 0.55147 0.0
H696 H 0.22163 0.78899 0.71269 0.0
H697 H 0.19377 0.78401 0.79009 0.0
H698 H 0.14289 0.78362 0.77507 0.0
H699 H 0.10559 0.78218 0.73946 0.0
H700 H 0.13384 0.79252 0.66364 0.0
H701 H 0.1856 0.79445 0.67891 0.0
C702 C 0.20474 0.78849 0.72658 0.0
C703 C 0.21176 0.78573 0.7524 0.0
C704 C 0.17553 0.78936 0.71812 0.0
C705 C 0.18911 0.78493 0.76982 0.0
C706 C 0.15993 0.78506 0.76135 0.0
C707 C 0.12319 0.78518 0.72641 0.0
C708 C 0.11605 0.78691 0.70045 0.0
C709 C 0.1528 0.78673 0.73545 0.0
C710 C 0.13895 0.7912 0.68376 0.0
C711 C 0.16845 0.79212 0.69244 0.0
H712 H 0.98914 0.59948 0.55466 0.0
H713 H 0.94522 0.63714 0.49992 0.0
H714 H 0.95697 0.68464 0.53099 0.0
H715 H 0.97769 0.71502 0.57429 0.0
H716 H 0.02038 0.67736 0.62981 0.0
H717 H 0.01052 0.6302 0.59802 0.0
C718 C 0.98209 0.61806 0.54954 0.0
C719 C 0.96638 0.61466 0.52491 0.0
C720 C 0.98836 0.64525 0.56775 0.0
C721 C 0.9578 0.63913 0.51849 0.0
C722 C 0.96422 0.66629 0.53638 0.0
C723 C 0.98483 0.69652 0.57953 0.0
C724 C -0.00038 0.69976 0.60451 0.0
C725 C 0.97917 0.66951 0.56116 0.0
C726 C 0.00885 0.67552 0.6108 0.0
C727 C 0.00328 0.64853 0.59259 0.0
H728 H 0.83515 0.86519 0.20895 0.0
H729 H 0.77111 0.86497 0.26727 0.0
H730 H 0.79189 0.9171 0.28588 0.0
H731 H 0.83031 0.96202 0.28696 0.0
H732 H 0.89238 0.96135 0.22691 0.0
H733 H 0.8692 0.9105 0.20693 0.0
C734 C 0.82502 0.87653 0.22527 0.0
C735 C 0.80156 0.86095 0.23664 0.0
C736 C 0.83664 0.90648 0.23552 0.0
C737 C 0.78953 0.87617 0.25833 0.0
C738 C 0.80124 0.90607 0.26888 0.0
C739 C 0.8384 0.95091 0.26923 0.0
C740 C 0.86331 0.96546 0.25868 0.0
C741 C 0.8251 0.92136 0.25784 0.0
C742 C 0.87346 0.95069 0.23566 0.0
C743 C 0.86029 0.92152 0.22422 0.0
H744 H 0.79929 0.18669 0.34247 0.0
H745 H 0.86325 0.22605 0.295 0.0
H746 H 0.88849 0.18532 0.29181 0.0
H747 H 0.89169 0.13775 0.30158 0.0
H748 H 0.82821 0.09917 0.3499 0.0
H749 H 0.8039 0.14053 0.35397 0.0
C750 C 0.81901 0.18662 0.33175 0.0
C751 C 0.82917 0.20937 0.31885 0.0
C752 C 0.83354 0.16319 0.33009 0.0
C753 C 0.85458 0.20862 0.30475 0.0
C754 C 0.86915 0.18538 0.30302 0.0
C755 C 0.8726 0.13844 0.31307 0.0
C756 C 0.86176 0.11527 0.3253 0.0
C757 C 0.85866 0.16238 0.31539 0.0
C758 C 0.83706 0.11663 0.34022 0.0
C759 C 0.82308 0.14029 0.34256 0.0
H760 H 0.37002 0.01531 0.98313 0.0
H761 H 0.4424 0.00694 0.03414 0.0
H762 H 0.40834 0.96952 0.05088 0.0
H763 H 0.35811 0.93782 0.04932 0.0
H764 H 0.28605 0.94823 0.99864 0.0
H765 H 0.31982 0.98634 0.9836 0.0
C766 C 0.37826 0.0052 0.99789 0.0
C767 C 0.40855 0.01333 0.00717 0.0
C768 C 0.35863 0.98415 0.00748 0.0
C769 C 0.41907 0.00072 0.02668 0.0
C770 C 0.39965 0.97939 0.03618 0.0
C771 C 0.34978 0.94859 0.03514 0.0
C772 C 0.31962 0.93992 0.02499 0.0
C773 C 0.36939 0.97071 0.02651 0.0
C774 C 0.30915 0.95428 0.00675 0.0
C775 C 0.32845 0.97609 0.99804 0.0
H776 H 0.27245 0.4252 0.36318 0.0
H777 H 0.292 0.39298 0.28361 0.0
H778 H 0.2495 0.40969 0.26661 0.0
H779 H 0.21024 0.43859 0.27486 0.0
H780 H 0.19306 0.47214 0.35503 0.0
H781 H 0.23097 0.44969 0.37127 0.0
C782 C 0.26729 0.42169 0.34209 0.0
C783 C 0.28557 0.40834 0.32467 0.0
C784 C 0.2433 0.43175 0.33259 0.0
C785 C 0.27825 0.40328 0.29741 0.0
C786 C 0.25407 0.41298 0.28771 0.0
C787 C 0.21443 0.44043 0.29582 0.0
C788 C 0.19904 0.45723 0.31372 0.0
C789 C 0.23689 0.42795 0.30515 0.0
C790 C 0.20478 0.45957 0.34086 0.0
C791 C 0.22651 0.44678 0.35019 0.0
H792 H 0.13041 0.06403 0.48505 0.0
H793 H 0.17161 0.9912 0.45732 0.0
H794 H 0.22082 0.02473 0.46364 0.0
H795 H 0.25127 0.07544 0.4733 0.0
H796 H 0.20892 0.14786 0.5004 0.0
H797 H 0.16097 0.11385 0.49768 0.0
C798 C 0.15027 0.05551 0.48075 0.0
C799 C 0.14751 0.02533 0.47062 0.0
C800 C 0.17816 0.0749 0.48382 0.0
C801 C 0.17331 0.01438 0.46535 0.0
C802 C 0.20134 0.03358 0.46865 0.0
C803 C 0.23153 0.08374 0.47859 0.0
C804 C 0.23363 0.11418 0.48672 0.0
C805 C 0.20391 0.06399 0.47718 0.0
C806 C 0.20794 0.12457 0.49394 0.0
C807 C 0.18048 0.10514 0.49245 0.0
H808 H 0.80082 0.15119 0.77078 0.0
H809 H 0.76061 0.17066 0.70225 0.0
H810 H 0.71793 0.12977 0.70035 0.0
H811 H 0.69162 0.08956 0.71911 0.0
H812 H 0.73262 0.07068 0.78775 0.0
H813 H 0.77578 0.11016 0.78834 0.0
C814 C 0.78305 0.14615 0.75505 0.0
C815 C 0.784 0.16377 0.73652 0.0
C816 C 0.7587 0.12285 0.75419 0.0
C817 C 0.76034 0.15744 0.71676 0.0
C818 C 0.736 0.13408 0.71567 0.0
C819 C 0.71003 0.09399 0.73416 0.0
C820 C 0.70875 0.07721 0.75344 0.0
C821 C 0.73483 0.11683 0.73446 0.0
C822 C 0.73289 0.08325 0.77273 0.0
C823 C 0.75762 0.10584 0.77309 0.0
H824 H 0.43378 0.07041 0.56223 0.0
H825 H 0.44292 0.02216 0.4842 0.0
H826 H 0.42025 0.05568 0.46484 0.0
H827 H 0.39333 0.0954 0.46996 0.0
H828 H 0.38325 0.14361 0.54778 0.0
H829 H 0.41136 0.11386 0.56731 0.0
C830 C 0.43135 0.06764 0.54102 0.0
C831 C 0.43958 0.04358 0.52467 0.0
C832 C 0.41799 0.08688 0.52997 0.0
C833 C 0.43621 0.04019 0.49719 0.0
C834 C 0.42332 0.05937 0.4861 0.0
C835 C 0.39762 0.09971 0.4912 0.0
C836 C 0.3859 0.12146 0.50737 0.0
C837 C 0.41337 0.08227 0.50228 0.0
C838 C 0.39193 0.12693 0.53485 0.0
C839 C 0.40789 0.10982 0.54605 0.0
H840 H 0.62263 0.48148 0.60783 0.0
H841 H 0.60925 0.50316 0.53255 0.0
H842 H 0.63886 0.46868 0.51282 0.0
H843 H 0.67108 0.43475 0.51742 0.0
H844 H 0.6836 0.41172 0.5921 0.0
H845 H 0.65096 0.44365 0.61133 0.0
C846 C 0.62564 0.47828 0.58699 0.0
C847 C 0.61399 0.49533 0.57185 0.0
C848 C 0.6425 0.45811 0.57561 0.0
C849 C 0.6185 0.49095 0.54489 0.0
C850 C 0.63528 0.47106 0.5335 0.0
C851 C 0.6664 0.43642 0.53783 0.0
C852 C 0.67995 0.42105 0.55335 0.0
C853 C 0.64782 0.45493 0.54877 0.0
C854 C 0.67343 0.42328 0.5797 0.0
C855 C 0.65491 0.44169 0.59075 0.0
H856 H 0.76575 0.24416 0.38489 0.0
H857 H 0.78016 0.32513 0.35801 0.0
H858 H 0.76564 0.35035 0.39923 0.0
H859 H 0.75385 0.35117 0.44461 0.0
H860 H 0.74655 0.27262 0.4742 0.0
H861 H 0.75348 0.24489 0.43048 0.0
C862 C 0.76595 0.26736 0.38801 0.0
C863 C 0.77399 0.28243 0.36796 0.0
C864 C 0.75887 0.28231 0.41243 0.0
C865 C 0.77344 0.31248 0.37251 0.0
C866 C 0.76541 0.32716 0.39633 0.0
C867 C 0.75306 0.32782 0.44131 0.0
C868 C 0.74936 0.31385 0.46246 0.0
C869 C 0.75858 0.31245 0.41656 0.0
C870 C 0.74916 0.28376 0.45812 0.0
C871 C 0.75331 0.26798 0.43318 0.0
H872 H 0.48231 0.05557 0.84213 0.0
H873 H 0.51295 0.01209 0.89919 0.0
H874 H 0.55446 0.00276 0.87325 0.0
H875 H 0.58098 0.0053 0.83333 0.0
H876 H 0.54802 0.04676 0.77556 0.0
H877 H 0.50814 0.05775 0.80251 0.0
C878 C 0.49787 0.04381 0.84884 0.0
C879 C 0.49435 0.03448 0.87255 0.0
C880 C 0.52118 0.03786 0.83354 0.0
C881 C 0.51526 0.0199 0.88119 0.0
C882 C 0.53887 0.01428 0.86623 0.0
C883 C 0.56507 0.01672 0.82663 0.0
C884 C 0.56757 0.02508 0.80236 0.0
C885 C 0.5419 0.02292 0.84222 0.0
C886 C 0.54669 0.03989 0.79404 0.0
C887 C 0.52384 0.04631 0.80949 0.0
H888 H 0.31866 0.28746 0.37708 0.0
H889 H 0.40057 0.26127 0.35543 0.0
H890 H 0.39581 0.23044 0.3874 0.0
H891 H 0.36891 0.21166 0.4226 0.0
H892 H 0.29022 0.24259 0.44692 0.0
H893 H 0.29381 0.27142 0.41342 0.0
C894 C 0.33587 0.2755 0.37955 0.0
C895 C 0.35988 0.27684 0.36358 0.0
C896 C 0.33369 0.2587 0.39869 0.0
C897 C 0.38142 0.26037 0.36687 0.0
C898 C 0.37891 0.24288 0.38541 0.0
C899 C 0.35261 0.22474 0.4205 0.0
C900 C 0.32934 0.22496 0.43721 0.0
C901 C 0.35517 0.24192 0.40151 0.0
C902 C 0.30848 0.24219 0.43445 0.0
C903 C 0.31043 0.25861 0.41522 0.0
H904 H 0.57576 0.51864 0.89911 0.0
H905 H 0.50872 0.49076 0.94927 0.0
H906 H 0.46992 0.49948 0.91994 0.0
H907 H 0.45539 0.51498 0.87982 0.0
H908 H 0.52281 0.54031 0.82892 0.0
H909 H 0.56137 0.53317 0.85905 0.0
C910 C 0.55264 0.51463 0.90368 0.0
C911 C 0.54502 0.50437 0.92637 0.0
C912 C 0.53067 0.51947 0.88672 0.0
C913 C 0.515 0.49864 0.93184 0.0
C914 C 0.49292 0.50377 0.91518 0.0
C915 C 0.47859 0.51925 0.87554 0.0
C916 C 0.48635 0.52842 0.85234 0.0
C917 C 0.50054 0.51429 0.8926 0.0
C918 C 0.51635 0.53331 0.84669 0.0
C919 C 0.53837 0.52917 0.86386 0.0
H920 H 0.81694 0.74785 0.16812 0.0
H921 H 0.7555 0.79839 0.14756 0.0
H922 H 0.76049 0.78051 0.10074 0.0
H923 H 0.78227 0.75058 0.06584 0.0
H924 H 0.84498 0.70099 0.08617 0.0
H925 H 0.83985 0.71868 0.13295 0.0
C926 C 0.8045 0.75466 0.15328 0.0
C927 C 0.7857 0.77413 0.16107 0.0
C928 C 0.80794 0.74473 0.12648 0.0
C929 C 0.77004 0.78333 0.14187 0.0
C930 C 0.77293 0.77317 0.11518 0.0
C931 C 0.79495 0.74373 0.08049 0.0
C932 C 0.81395 0.72447 0.07252 0.0
C933 C 0.79189 0.75395 0.10728 0.0
C934 C 0.83028 0.7159 0.09177 0.0
C935 C 0.82725 0.72588 0.11852 0.0
H936 H 0.06595 0.08344 0.16952 0.0
H937 H 0.05028 0.98909 0.1428 0.0
H938 H 0.01927 0.98315 0.17878 0.0
H939 H 0.99443 0.0044 0.21639 0.0
H940 H 0.00517 0.09833 0.24016 0.0
H941 H 0.03948 0.10471 0.20604 0.0
C942 C 0.05545 0.0615 0.17115 0.0
C943 C 0.06064 0.03677 0.15315 0.0
C944 C 0.03645 0.05814 0.19123 0.0
C945 C 0.04737 0.00862 0.15644 0.0
C946 C 0.02926 0.00514 0.17689 0.0
C947 C 0.00437 0.0263 0.21418 0.0
C948 C 0.99742 0.05089 0.23082 0.0
C949 C 0.02342 0.02972 0.1942 0.0
C950 C 0.01015 0.07908 0.22753 0.0
C951 C 0.0298 0.08271 0.20809 0.0
H952 H 0.28906 0.78589 0.18535 0.0
H953 H 0.29699 0.87489 0.22975 0.0
H954 H 0.29193 0.89119 0.18899 0.0
H955 H 0.28599 0.88045 0.14038 0.0
H956 H 0.28497 0.79306 0.0964 0.0
H957 H 0.28724 0.77594 0.13734 0.0
C958 C 0.29035 0.80899 0.18632 0.0
C959 C 0.29315 0.82894 0.21089 0.0
C960 C 0.28861 0.81854 0.16276 0.0
C961 C 0.29408 0.85871 0.21132 0.0
C962 C 0.29144 0.8682 0.18795 0.0
C963 C 0.28613 0.85768 0.13994 0.0
C964 C 0.28493 0.83785 0.11568 0.0
C965 C 0.28859 0.8483 0.16356 0.0
C966 C 0.28571 0.80853 0.11503 0.0
C967 C 0.28704 0.7988 0.13837 0.0
H968 H 0.02616 0.54216 0.10665 0.0
H969 H 0.96846 0.46201 0.11598 0.0
H970 H 0.99928 0.46289 0.15527 0.0
H971 H 0.04284 0.48621 0.18728 0.0
H972 H 0.09686 0.56925 0.18136 0.0
H973 H 0.06721 0.56762 0.14071 0.0
C974 C 0.01996 0.52512 0.11744 0.0
C975 C 0.99526 0.50173 0.10781 0.0
C976 C 0.0373 0.52616 0.14066 0.0
C977 C 0.98785 0.47983 0.12225 0.0
C978 C 0.00536 0.48037 0.14493 0.0
C979 C 0.04815 0.50378 0.17691 0.0
C980 C 0.07214 0.52756 0.1869 0.0
C981 C 0.03031 0.50324 0.15418 0.0
C982 C 0.07851 0.55062 0.1738 0.0
C983 C 0.06155 0.54972 0.15063 0.0
H984 H 0.38559 0.68776 0.27168 0.0
H985 H 0.39297 0.77997 0.30666 0.0
H986 H 0.43997 0.78173 0.3301 0.0
H987 H 0.47586 0.75654 0.34529 0.0
H988 H 0.46424 0.66292 0.31786 0.0
H989 H 0.42137 0.66209 0.28766 0.0
C990 C 0.39701 0.70826 0.28467 0.0
C991 C 0.38501 0.73364 0.28713 0.0
C992 C 0.42323 0.70879 0.29986 0.0
C993 C 0.40136 0.76007 0.30349 0.0
C994 C 0.42827 0.7611 0.3174 0.0
C995 C 0.46429 0.73598 0.33236 0.0
C996 C 0.47331 0.70985 0.33354 0.0
C997 C 0.43896 0.7355 0.31626 0.0
C998 C 0.45771 0.6833 0.31716 0.0
C999 C 0.43322 0.68287 0.29999 0.0
H1000 H 0.93882 0.33422 0.00235 0.0
H1001 H 0.99237 0.40479 0.97423 0.0
H1002 H 0.02241 0.37153 0.95236 0.0
H1003 H 0.03043 0.32143 0.93808 0.0
H1004 H 0.9764 0.25095 0.96633 0.0
H1005 H 0.94987 0.28518 0.9915 0.0
C1006 C 0.95718 0.34227 0.99152 0.0
C1007 C 0.96324 0.37172 0.98961 0.0
C1008 C 0.97424 0.32306 0.979 0.0
C1009 C 0.98737 0.38214 0.97596 0.0
C1010 C 0.00445 0.36313 0.96338 0.0
C1011 C 0.01318 0.31362 0.95007 0.0
C1012 C 0.00521 0.28356 0.95 0.0
C1013 C 0.9977 0.3334 0.96434 0.0
C1014 C 0.98288 0.27389 0.96578 0.0
C1015 C 0.96758 0.29345 0.98016 0.0
H1016 H 0.71863 0.7284 0.33025 0.0
H1017 H 0.68671 0.77403 0.27533 0.0
H1018 H 0.64547 0.78162 0.30152 0.0
H1019 H 0.61609 0.77241 0.33799 0.0
H1020 H 0.64335 0.72106 0.38952 0.0
H1021 H 0.68837 0.71805 0.36633 0.0
C1022 C 0.70257 0.73975 0.32374 0.0
C1023 C 0.70629 0.75076 0.30075 0.0
C1024 C 0.67783 0.74286 0.33823 0.0
C1025 C 0.68528 0.76592 0.29319 0.0
C1026 C 0.6613 0.77001 0.30802 0.0
C1027 C 0.6321 0.76088 0.34438 0.0
C1028 C 0.62663 0.74719 0.36554 0.0
C1029 C 0.65717 0.75829 0.33036 0.0
C1030 C 0.6472 0.73183 0.37329 0.0
C1031 C 0.67286 0.73008 0.36001 0.0
H1032 H 0.11908 0.14406 0.01484 0.0
H1033 H 0.03348 0.09631 0.02955 0.0
H1034 H 0.01058 0.10434 0.98926 0.0
H1035 H 0.01387 0.13068 0.95338 0.0
H1036 H 0.09968 0.17882 0.93908 0.0
H1037 H 0.12359 0.16451 0.97539 0.0
C1038 C 0.0955 0.13504 0.00893 0.0
C1039 C 0.07786 0.11996 0.02519 0.0
C1040 C 0.08251 0.14 0.98594 0.0
C1041 C 0.04746 0.10798 0.01726 0.0
C1042 C 0.03435 0.11274 0.99435 0.0
C1043 C 0.03788 0.13755 0.95786 0.0
C1044 C 0.05487 0.1562 0.9438 0.0
C1045 C 0.05148 0.12955 0.97902 0.0
C1046 C 0.08601 0.16465 0.94969 0.0
C1047 C 0.09972 0.1566 0.97056 0.0
H1048 H 0.41184 0.34299 0.27597 0.0
H1049 H 0.37839 0.2505 0.27158 0.0
H1050 H 0.40981 0.23838 0.23632 0.0
H1051 H 0.44886 0.25396 0.20822 0.0
H1052 H 0.47787 0.34573 0.20879 0.0
H1053 H 0.4453 0.35821 0.24361 0.0
C1054 C 0.41063 0.32011 0.26697 0.0
C1055 C 0.39303 0.29779 0.27712 0.0
C1056 C 0.42803 0.31315 0.24598 0.0
C1057 C 0.39238 0.26831 0.26505 0.0
C1058 C 0.41019 0.26127 0.24464 0.0
C1059 C 0.44776 0.27665 0.21587 0.0
C1060 C 0.46584 0.29898 0.20635 0.0
C1061 C 0.42852 0.28351 0.23532 0.0
C1062 C 0.46407 0.32826 0.21595 0.0
C1063 C 0.44557 0.33535 0.23587 0.0
H1064 H 0.6139 0.38668 0.03582 0.0
H1065 H 0.52769 0.39984 0.01177 0.0
H1066 H 0.50573 0.37821 0.04702 0.0
H1067 H 0.51039 0.35177 0.08213 0.0
H1068 H 0.59688 0.33918 0.10646 0.0
H1069 H 0.61948 0.36463 0.0738 0.0
C1070 C 0.59035 0.38497 0.03847 0.0
C1071 C 0.57231 0.39447 0.0211 0.0
C1072 C 0.57796 0.37255 0.05873 0.0
C1073 C 0.54196 0.39266 0.02494 0.0
C1074 C 0.52941 0.38018 0.04499 0.0
C1075 C 0.53425 0.3549 0.0805 0.0
C1076 C 0.55187 0.34331 0.09652 0.0
C1077 C 0.54708 0.36949 0.06164 0.0
C1078 C 0.5828 0.34783 0.09437 0.0
C1079 C 0.59572 0.36226 0.0756 0.0
H1080 H 0.70584 0.29241 0.26377 0.0
H1081 H 0.7417 0.28839 0.18806 0.0
H1082 H 0.69275 0.28719 0.16771 0.0
H1083 H 0.63876 0.28385 0.17057 0.0
H1084 H 0.60195 0.28044 0.24475 0.0
H1085 H 0.65206 0.28735 0.2664 0.0
C1086 C 0.70307 0.29082 0.24274 0.0
C1087 C 0.72783 0.29055 0.22767 0.0
C1088 C 0.67449 0.28869 0.2308 0.0
C1089 C 0.72348 0.28929 0.2005 0.0
C1090 C 0.69531 0.28829 0.18868 0.0
C1091 C 0.6419 0.28502 0.19153 0.0
C1092 C 0.61696 0.28196 0.20619 0.0
C1093 C 0.67059 0.28766 0.20356 0.0
C1094 C 0.62099 0.28285 0.23319 0.0
C1095 C 0.64957 0.28674 0.24552 0.0
H1096 H 0.49141 0.09538 0.05017 0.0
H1097 H 0.45912 0.13739 0.99269 0.0
H1098 H 0.4738 0.18495 0.02371 0.0
H1099 H 0.49231 0.21402 0.06825 0.0
H1100 H 0.52326 0.17158 0.1261 0.0
H1101 H 0.51207 0.12476 0.09399 0.0
C1102 C 0.4877 0.11497 0.0444 0.0
C1103 C 0.47408 0.11278 0.01918 0.0
C1104 C 0.49552 0.14213 0.06253 0.0
C1105 C 0.46989 0.13845 0.01184 0.0
C1106 C 0.47796 0.16563 0.02969 0.0
C1107 C 0.49663 0.19454 0.07385 0.0
C1108 C 0.50832 0.19631 0.09966 0.0
C1109 C 0.4902 0.16763 0.05527 0.0
C1110 C 0.51412 0.17088 0.10645 0.0
C1111 C 0.50777 0.14407 0.08807 0.0
H1112 H 0.31884 0.35227 0.71736 0.0
H1113 H 0.33446 0.33748 0.79521 0.0
H1114 H 0.35099 0.39015 0.81273 0.0
H1115 H 0.36612 0.43991 0.80525 0.0
H1116 H 0.35804 0.45364 0.72647 0.0
H1117 H 0.33388 0.40177 0.70985 0.0
C1118 C 0.32619 0.36039 0.73812 0.0
C1119 C 0.32563 0.34065 0.75479 0.0
C1120 C 0.33714 0.39059 0.74787 0.0
C1121 C 0.33427 0.35195 0.78184 0.0
C1122 C 0.34402 0.38213 0.79189 0.0
C1123 C 0.35847 0.43157 0.78454 0.0
C1124 C 0.36343 0.45038 0.76707 0.0
C1125 C 0.34613 0.40156 0.775 0.0
C1126 C 0.35419 0.43941 0.7402 0.0
C1127 C 0.34055 0.40983 0.73073 0.0
H1128 H 0.28823 0.65952 0.84358 0.0
H1129 H 0.34888 0.70824 0.79938 0.0
H1130 H 0.37817 0.67052 0.79372 0.0
H1131 H 0.38723 0.62392 0.80198 0.0
H1132 H 0.32856 0.57758 0.84909 0.0
H1133 H 0.29845 0.61456 0.85352 0.0
C1134 C 0.30808 0.66224 0.83303 0.0
C1135 C 0.3161 0.68682 0.82189 0.0
C1136 C 0.3254 0.64091 0.83049 0.0
C1137 C 0.34166 0.68938 0.80778 0.0
C1138 C 0.35867 0.66791 0.80472 0.0
C1139 C 0.36787 0.62196 0.81322 0.0
C1140 C 0.36016 0.59799 0.82514 0.0
C1141 C 0.35079 0.64359 0.81603 0.0
C1142 C 0.3351 0.59586 0.8398 0.0
C1143 C 0.31778 0.61696 0.84228 0.0
H1144 H 0.89129 0.53443 0.53423 0.0
H1145 H 0.93949 0.47625 0.48792 0.0
H1146 H 0.90793 0.43409 0.50025 0.0
H1147 H 0.8628 0.41349 0.51991 0.0
H1148 H 0.81221 0.4719 0.5626 0.0
H1149 H 0.84888 0.51436 0.55659 0.0
C1150 C 0.89534 0.51259 0.5274 0.0
C1151 C 0.91762 0.50834 0.51027 0.0
C1152 C 0.87656 0.48852 0.53386 0.0
C1153 C 0.92233 0.47991 0.50108 0.0
C1154 C 0.9043 0.45587 0.5081 0.0
C1155 C 0.86032 0.43557 0.52843 0.0
C1156 C 0.83499 0.43972 0.54168 0.0
C1157 C 0.8808 0.45983 0.52388 0.0
C1158 C 0.83159 0.46832 0.55227 0.0
C1159 C 0.85245 0.49255 0.54876 0.0
H1160 H 0.77809 0.89951 0.79886 0.0
H1161 H 0.78049 0.94476 0.88 0.0
H1162 H 0.73526 0.96131 0.87013 0.0
H1163 H 0.69958 0.96869 0.83754 0.0
H1164 H 0.69772 0.92553 0.75582 0.0
H1165 H 0.73772 0.90196 0.76678 0.0
C1166 C 0.76815 0.91232 0.81443 0.0
C1167 C 0.78261 0.92112 0.84007 0.0
C1168 C 0.74248 0.92243 0.80843 0.0
C1169 C 0.76977 0.93792 0.8601 0.0
C1170 C 0.744 0.94747 0.85444 0.0
C1171 C 0.70754 0.95373 0.82215 0.0
C1172 C 0.69598 0.94921 0.79585 0.0
C1173 C 0.73087 0.94079 0.82852 0.0
C1174 C 0.7063 0.92947 0.77622 0.0
C1175 C 0.72932 0.91613 0.78246 0.0
H1176 H 0.67498 0.51307 0.95409 0.0
H1177 H 0.62538 0.57664 0.98924 0.0
H1178 H 0.6704 0.61579 0.99524 0.0
H1179 H 0.72342 0.63189 0.98983 0.0
H1180 H 0.77303 0.56847 0.95388 0.0
H1181 H 0.72833 0.52928 0.94872 0.0
C1182 C 0.67422 0.53546 0.96339 0.0
C1183 C 0.6471 0.54206 0.97141 0.0
C1184 C 0.70003 0.55785 0.96636 0.0
C1185 C 0.64611 0.57116 0.98295 0.0
C1186 C 0.67177 0.59349 0.98633 0.0
C1187 C 0.72451 0.60952 0.98078 0.0
C1188 C 0.75158 0.60318 0.97222 0.0
C1189 C 0.69878 0.58711 0.97791 0.0
C1190 C 0.7525 0.57402 0.96057 0.0
C1191 C 0.72696 0.55157 0.95769 0.0
H1192 H 0.29512 0.66673 0.29451 0.0
H1193 H 0.25758 0.6817 0.22265 0.0
H1194 H 0.21725 0.63852 0.21902 0.0
H1195 H 0.19192 0.59757 0.23698 0.0
H1196 H 0.23023 0.58192 0.30827 0.0
H1197 H 0.27147 0.62403 0.311 0.0
C1198 C 0.27846 0.66027 0.27777 0.0
C1199 C 0.27934 0.67748 0.25891 0.0
C1200 C 0.25549 0.63533 0.2757 0.0
C1201 C 0.25719 0.66905 0.23763 0.0
C1202 C 0.23421 0.64431 0.23548 0.0
C1203 C 0.20933 0.60326 0.25308 0.0
C1204 C 0.20782 0.58671 0.27249 0.0
C1205 C 0.23297 0.62749 0.25455 0.0
C1206 C 0.23076 0.59428 0.29307 0.0
C1207 C 0.25434 0.61841 0.29469 0.0
H1208 H 0.93297 0.56679 0.07415 0.0
H1209 H 0.96797 0.53162 0.00175 0.0
H1210 H 0.95083 0.56708 0.98079 0.0
H1211 H 0.92003 0.60321 0.98116 0.0
H1212 H 0.88392 0.6384 0.05299 0.0
H1213 H 0.90777 0.60836 0.07616 0.0
C1214 C 0.93747 0.56749 0.05403 0.0
C1215 C 0.9513 0.5464 0.03937 0.0
C1216 C 0.92706 0.58771 0.0419 0.0
C1217 C 0.95698 0.54742 0.01327 0.0
C1218 C 0.94715 0.56763 0.00126 0.0
C1219 C 0.91781 0.60472 0.00201 0.0
C1220 C 0.89989 0.62268 0.01521 0.0
C1221 C 0.9312 0.58712 0.01507 0.0
C1222 C 0.89754 0.62466 0.04231 0.0
C1223 C 0.91102 0.60734 0.05555 0.0
H1224 H 0.10358 0.96348 0.09731 0.0
H1225 H 0.16409 0.03456 0.07487 0.0
H1226 H 0.19397 0.00093 0.055 0.0
H1227 H 0.20353 0.95159 0.04376 0.0
H1228 H 0.14846 0.88142 0.07104 0.0
H1229 H 0.11624 0.91453 0.0898 0.0
C1230 C 0.1235 0.97182 0.08845 0.0
C1231 C 0.13077 0.00165 0.08706 0.0
C1232 C 0.14167 0.95248 0.07794 0.0
C1233 C 0.15686 0.01168 0.07537 0.0
C1234 C 0.17435 0.99249 0.06421 0.0
C1235 C 0.18437 0.94359 0.05378 0.0
C1236 C 0.17789 0.91419 0.05572 0.0
C1237 C 0.16685 0.96288 0.06519 0.0
C1238 C 0.15358 0.90403 0.06922 0.0
C1239 C 0.13526 0.92294 0.0799 0.0
loop_
_geom_bond_atom_site_label_1
_geom_bond_atom_site_label_2
_geom_bond_distance
_geom_bond_site_symmetry_2
_ccdc_geom_bond_type
H0 C1 0.949 . S
C1 H0 0.949 . S
C1 C2 1.395 . S
C1 C3 1.391 . S
C2 C1 1.395 . S
C2 C5 1.390 . S
C3 C1 1.391 . S
C3 C7 1.387 . S
C3 C8 1.491 . S
H4 C5 0.950 . S
C5 C2 1.390 . S
C5 H4 0.950 . S
C5 C6 1.378 . S
C6 C5 1.378 . S
C6 C7 1.409 . S
C7 C3 1.387 . S
C7 C6 1.409 . S
C7 H9 0.951 . S
C8 C3 1.491 . S
C8 C10 1.382 . S
C8 C12 1.404 . S
H9 C7 0.951 . S
C10 C8 1.382 . S
C10 C11 1.390 . S
C10 H15 0.949 . S
C11 C10 1.390 . S
C11 C16 1.399 . S
C12 C8 1.404 . S
C12 H13 0.950 . S
C12 C14 1.375 . S
H13 C12 0.950 . S
C14 C12 1.375 . S
C14 C16 1.382 . S
C14 H18 0.950 . S
H15 C10 0.949 . S
C16 C11 1.399 . S
C16 C14 1.382 . S
C16 H17 0.952 . S
H17 C16 0.952 . S
H18 C14 0.950 . S
H19 C20 0.949 . S
C20 H19 0.949 . S
C20 C21 1.395 . S
C20 C22 1.391 . S
C21 C20 1.395 . S
C21 C24 1.390 . S
C22 C20 1.391 . S
C22 C26 1.387 . S
C22 C27 1.491 . S
H23 C24 0.950 . S
C24 C21 1.390 . S
C24 H23 0.950 . S
C24 C25 1.378 . S
C25 C24 1.378 . S
C25 C26 1.409 . S
C26 C22 1.387 . S
C26 C25 1.409 . S
C26 H28 0.951 . S
C27 C22 1.491 . S
C27 C29 1.382 . S
C27 C31 1.404 . S
H28 C26 0.951 . S
C29 C27 1.382 . S
C29 C30 1.390 . S
C29 H34 0.949 . S
C30 C29 1.390 . S
C30 C35 1.399 . S
C31 C27 1.404 . S
C31 H32 0.950 . S
C31 C33 1.375 . S
H32 C31 0.950 . S
C33 C31 1.375 . S
C33 C35 1.382 . S
C33 H37 0.950 . S
H34 C29 0.949 . S
C35 C30 1.399 . S
C35 C33 1.382 . S
C35 H36 0.952 . S
H36 C35 0.952 . S
H37 C33 0.950 . S
H38 C39 0.949 . S
C39 H38 0.949 . S
C39 C40 1.395 . S
C39 C41 1.391 . S
C40 C39 1.395 . S
C40 C43 1.390 . S
C41 C39 1.391 . S
C41 C45 1.387 . S
C41 C46 1.491 . S
H42 C43 0.950 . S
C43 C40 1.390 . S
C43 H42 0.950 . S
C43 C44 1.378 . S
C44 C43 1.378 . S
C44 C45 1.409 . S
C45 C41 1.387 . S
C45 C44 1.409 . S
C45 H47 0.951 . S
C46 C41 1.491 . S
C46 C48 1.382 . S
C46 C50 1.404 1_554 S
H47 C45 0.951 . S
C48 C46 1.382 . S
C48 C49 1.390 1_554 S
C48 H53 0.949 . S
C49 C48 1.390 1_556 S
C49 C54 1.399 . S
C50 C46 1.404 1_556 S
C50 H51 0.950 . S
C50 C52 1.375 . S
H51 C50 0.950 . S
C52 C50 1.375 . S
C52 C54 1.382 . S
C52 H56 0.950 . S
H53 C48 0.949 . S
C54 C49 1.399 . S
C54 C52 1.382 . S
C54 H55 0.952 . S
H55 C54 0.952 . S
H56 C52 0.950 . S
H57 C58 0.949 . S
C58 H57 0.949 . S
C58 C59 1.395 . S
C58 C60 1.391 . S
C59 C58 1.395 . S
C59 C62 1.390 . S
C60 C58 1.391 . S
C60 C64 1.387 . S
C60 C65 1.491 . S
H61 C62 0.950 . S
C62 C59 1.390 . S
C62 H61 0.950 . S
C62 C63 1.378 . S
C63 C62 1.378 . S
C63 C64 1.409 . S
C64 C60 1.387 . S
C64 C63 1.409 . S
C64 H66 0.951 . S
C65 C60 1.491 . S
C65 C67 1.382 . S
C65 C69 1.404 . S
H66 C64 0.951 . S
C67 C65 1.382 . S
C67 C68 1.390 . S
C67 H72 0.949 . S
C68 C67 1.390 . S
C68 C73 1.399 . S
C69 C65 1.404 . S
C69 H70 0.950 . S
C69 C71 1.375 . S
H70 C69 0.950 . S
C71 C69 1.375 . S
C71 C73 1.382 . S
C71 H75 0.950 . S
H72 C67 0.949 . S
C73 C68 1.399 . S
C73 C71 1.382 . S
C73 H74 0.952 . S
H74 C73 0.952 . S
H75 C71 0.950 . S
H76 C77 0.949 . S
C77 H76 0.949 . S
C77 C78 1.395 . S
C77 C79 1.391 . S
C78 C77 1.395 . S
C78 C81 1.390 . S
C79 C77 1.391 . S
C79 C83 1.387 . S
C79 C84 1.491 . S
H80 C81 0.950 1_545 S
C81 C78 1.390 . S
C81 H80 0.950 1_565 S
C81 C82 1.378 . S
C82 C81 1.378 . S
C82 C83 1.409 . S
C83 C79 1.387 . S
C83 C82 1.409 . S
C83 H85 0.951 . S
C84 C79 1.491 . S
C84 C86 1.382 . S
C84 C88 1.404 . S
H85 C83 0.951 . S
C86 C84 1.382 . S
C86 C87 1.390 . S
C86 H91 0.949 . S
C87 C86 1.390 . S
C87 C92 1.399 . S
C88 C84 1.404 . S
C88 H89 0.950 . S
C88 C90 1.375 . S
H89 C88 0.950 . S
C90 C88 1.375 . S
C90 C92 1.382 . S
C90 H94 0.950 . S
H91 C86 0.949 . S
C92 C87 1.399 . S
C92 C90 1.382 . S
C92 H93 0.952 . S
H93 C92 0.952 . S
H94 C90 0.950 . S
H95 C96 0.949 . S
C96 H95 0.949 . S
C96 C97 1.395 . S
C96 C98 1.391 . S
C97 C96 1.395 . S
C97 C100 1.390 . S
C98 C96 1.391 . S
C98 C102 1.387 . S
C98 C103 1.491 . S
H99 C100 0.950 . S
C100 C97 1.390 . S
C100 H99 0.950 . S
C100 C101 1.378 . S
C101 C100 1.378 . S
C101 C102 1.409 . S
C102 C98 1.387 . S
C102 C101 1.409 . S
C102 H104 0.951 . S
C103 C98 1.491 . S
C103 C105 1.382 . S
C103 C107 1.404 . S
H104 C102 0.951 . S
C105 C103 1.382 . S
C105 C106 1.390 . S
C105 H110 0.949 . S
C106 C105 1.390 . S
C106 C111 1.399 . S
C107 C103 1.404 . S
C107 H108 0.950 . S
C107 C109 1.375 . S
H108 C107 0.950 . S
C109 C107 1.375 . S
C109 C111 1.382 . S
C109 H113 0.950 . S
H110 C105 0.949 . S
C111 C106 1.399 . S
C111 C109 1.382 . S
C111 H112 0.952 . S
H112 C111 0.952 . S
H113 C109 0.950 . S
H114 C115 0.949 . S
C115 H114 0.949 . S
C115 C116 1.395 . S
C115 C117 1.391 . S
C116 C115 1.395 . S
C116 C119 1.390 . S
C117 C115 1.391 . S
C117 C121 1.387 . S
C117 C122 1.491 . S
H118 C119 0.950 . S
C119 C116 1.390 . S
C119 H118 0.950 . S
C119 C120 1.378 . S
C120 C119 1.378 . S
C120 C121 1.409 . S
C121 C117 1.387 . S
C121 C120 1.409 . S
C121 H123 0.951 . S
C122 C117 1.491 . S
C122 C124 1.382 . S
C122 C126 1.404 . S
H123 C121 0.951 . S
C124 C122 1.382 . S
C124 C125 1.390 . S
C124 H129 0.949 . S
C125 C124 1.390 . S
C125 C130 1.399 . S
C126 C122 1.404 . S
C126 H127 0.950 . S
C126 C128 1.375 . S
H127 C126 0.950 . S
C128 C126 1.375 . S
C128 C130 1.382 . S
C128 H132 0.950 . S
H129 C124 0.949 . S
C130 C125 1.399 . S
C130 C128 1.382 . S
C130 H131 0.952 . S
H131 C130 0.952 . S
H132 C128 0.950 . S
H133 C134 0.949 . S
C134 H133 0.949 . S
C134 C135 1.395 . S
C134 C136 1.391 . S
C135 C134 1.395 . S
C135 C138 1.390 . S
C136 C134 1.391 . S
C136 C140 1.387 . S
C136 C141 1.491 . S
H137 C138 0.950 . S
C138 C135 1.390 . S
C138 H137 0.950 . S
C138 C139 1.378 . S
C139 C138 1.378 . S
C139 C140 1.409 . S
C140 C136 1.387 . S
C140 C139 1.409 . S
C140 H142 0.951 . S
C141 C136 1.491 . S
C141 C143 1.382 . S
C141 C145 1.404 . S
H142 C140 0.951 . S
C143 C141 1.382 . S
C143 C144 1.390 . S
C143 H148 0.949 . S
C144 C143 1.390 . S
C144 C149 1.399 . S
C145 C141 1.404 . S
C145 H146 0.950 . S
C145 C147 1.375 . S
H146 C145 0.950 . S
C147 C145 1.375 . S
C147 C149 1.382 . S
C147 H151 0.950 . S
H148 C143 0.949 . S
C149 C144 1.399 . S
C149 C147 1.382 . S
C149 H150 0.952 . S
H150 C149 0.952 . S
H151 C147 0.950 . S
H152 C153 0.949 . S
C153 H152 0.949 . S
C153 C154 1.395 . S
C153 C155 1.391 . S
C154 C153 1.395 . S
C154 C157 1.390 . S
C155 C153 1.391 . S
C155 C159 1.387 . S
C155 C160 1.491 . S
H156 C157 0.950 . S
C157 C154 1.390 . S
C157 H156 0.950 . S
C157 C158 1.378 . S
C158 C157 1.378 . S
C158 C159 1.409 . S
C159 C155 1.387 . S
C159 C158 1.409 . S
C159 H161 0.951 . S
C160 C155 1.491 . S
C160 C162 1.382 . S
C160 C164 1.404 . S
H161 C159 0.951 . S
C162 C160 1.382 . S
C162 C163 1.390 . S
C162 H167 0.949 . S
C163 C162 1.390 . S
C163 C168 1.399 . S
C164 C160 1.404 . S
C164 H165 0.950 . S
C164 C166 1.375 . S
H165 C164 0.950 . S
C166 C164 1.375 . S
C166 C168 1.382 . S
C166 H170 0.950 . S
H167 C162 0.949 . S
C168 C163 1.399 . S
C168 C166 1.382 . S
C168 H169 0.952 . S
H169 C168 0.952 . S
H170 C166 0.950 . S
H171 C172 0.949 . S
C172 H171 0.949 . S
C172 C173 1.395 . S
C172 C174 1.391 . S
C173 C172 1.395 . S
C173 C176 1.390 . S
C174 C172 1.391 . S
C174 C178 1.387 . S
C174 C179 1.491 . S
H175 C176 0.950 . S
C176 C173 1.390 . S
C176 H175 0.950 . S
C176 C177 1.378 . S
C177 C176 1.378 . S
C177 C178 1.409 . S
C178 C174 1.387 . S
C178 C177 1.409 . S
C178 H180 0.951 . S
C179 C174 1.491 . S
C179 C181 1.382 . S
C179 C183 1.404 . S
H180 C178 0.951 . S
C181 C179 1.382 . S
C181 C182 1.390 . S
C181 H186 0.949 . S
C182 C181 1.390 . S
C182 C187 1.399 . S
C183 C179 1.404 . S
C183 H184 0.950 . S
C183 C185 1.375 . S
H184 C183 0.950 . S
C185 C183 1.375 . S
C185 C187 1.382 . S
C185 H189 0.950 . S
H186 C181 0.949 . S
C187 C182 1.399 . S
C187 C185 1.382 . S
C187 H188 0.952 . S
H188 C187 0.952 . S
H189 C185 0.950 . S
H190 C191 0.949 . S
C191 H190 0.949 . S
C191 C192 1.395 . S
C191 C193 1.391 . S
C192 C191 1.395 . S
C192 C195 1.390 . S
C193 C191 1.391 . S
C193 C197 1.387 . S
C193 C198 1.491 . S
H194 C195 0.950 . S
C195 C192 1.390 . S
C195 H194 0.950 . S
C195 C196 1.378 . S
C196 C195 1.378 . S
C196 C197 1.409 . S
C197 C193 1.387 . S
C197 C196 1.409 . S
C197 H199 0.951 . S
C198 C193 1.491 . S
C198 C200 1.382 . S
C198 C202 1.404 . S
H199 C197 0.951 . S
C200 C198 1.382 . S
C200 C201 1.390 . S
C200 H205 0.949 . S
C201 C200 1.390 . S
C201 C206 1.399 . S
C202 C198 1.404 . S
C202 H203 0.950 . S
C202 C204 1.375 . S
H203 C202 0.950 . S
C204 C202 1.375 . S
C204 C206 1.382 . S
C204 H208 0.950 . S
H205 C200 0.949 . S
C206 C201 1.399 . S
C206 C204 1.382 . S
C206 H207 0.952 . S
H207 C206 0.952 . S
H208 C204 0.950 . S
H209 C210 0.949 . S
C210 H209 0.949 . S
C210 C211 1.395 . S
C210 C212 1.391 . S
C211 C210 1.395 . S
C211 C214 1.390 . S
C212 C210 1.391 . S
C212 C216 1.387 . S
C212 C217 1.491 . S
H213 C214 0.950 . S
C214 C211 1.390 . S
C214 H213 0.950 . S
C214 C215 1.378 . S
C215 C214 1.378 . S
C215 C216 1.409 . S
C216 C212 1.387 . S
C216 C215 1.409 . S
C216 H218 0.951 . S
C217 C212 1.491 . S
C217 C219 1.382 . S
C217 C221 1.404 . S
H218 C216 0.951 . S
C219 C217 1.382 . S
C219 C220 1.390 . S
C219 H224 0.949 . S
C220 C219 1.390 . S
C220 C225 1.399 . S
C221 C217 1.404 . S
C221 H222 0.950 . S
C221 C223 1.375 . S
H222 C221 0.950 . S
C223 C221 1.375 . S
C223 C225 1.382 . S
C223 H227 0.950 . S
H224 C219 0.949 . S
C225 C220 1.399 . S
C225 C223 1.382 . S
C225 H226 0.952 . S
H226 C225 0.952 . S
H227 C223 0.950 . S
H228 C229 0.949 . S
C229 H228 0.949 . S
C229 C230 1.395 . S
C229 C231 1.391 . S
C230 C229 1.395 . S
C230 C233 1.390 . S
C231 C229 1.391 . S
C231 C235 1.387 . S
C231 C236 1.491 . S
H232 C233 0.950 . S
C233 C230 1.390 . S
C233 H232 0.950 . S
C233 C234 1.378 . S
C234 C233 1.378 . S
C234 C235 1.409 . S
C235 C231 1.387 . S
C235 C234 1.409 . S
C235 H237 0.951 . S
C236 C231 1.491 . S
C236 C238 1.382 . S
C236 C240 1.404 . S
H237 C235 0.951 . S
C238 C236 1.382 . S
C238 C239 1.390 . S
C238 H243 0.949 . S
C239 C238 1.390 . S
C239 C244 1.399 . S
C240 C236 1.404 . S
C240 H241 0.950 . S
C240 C242 1.375 . S
H241 C240 0.950 . S
C242 C240 1.375 . S
C242 C244 1.382 . S
C242 H246 0.950 . S
H243 C238 0.949 . S
C244 C239 1.399 . S
C244 C242 1.382 . S
C244 H245 0.952 . S
H245 C244 0.952 . S
H246 C242 0.950 . S
H247 C248 0.949 . S
C248 H247 0.949 . S
C248 C249 1.395 . S
C248 C250 1.391 . S
C249 C248 1.395 . S
C249 C252 1.390 . S
C250 C248 1.391 . S
C250 C254 1.387 . S
C250 C255 1.491 . S
H251 C252 0.950 . S
C252 C249 1.390 . S
C252 H251 0.950 . S
C252 C253 1.378 . S
C253 C252 1.378 . S
C253 C254 1.409 . S
C254 C250 1.387 . S
C254 C253 1.409 . S
C254 H256 0.951 . S
C255 C250 1.491 . S
C255 C257 1.382 . S
C255 C259 1.404 . S
H256 C254 0.951 . S
C257 C255 1.382 . S
C257 C258 1.390 . S
C257 H262 0.949 . S
C258 C257 1.390 . S
C258 C263 1.399 . S
C259 C255 1.404 . S
C259 H260 0.950 . S
C259 C261 1.375 . S
H260 C259 0.950 . S
C261 C259 1.375 . S
C261 C263 1.382 . S
C261 H265 0.950 . S
H262 C257 0.949 . S
C263 C258 1.399 . S
C263 C261 1.382 . S
C263 H264 0.952 . S
H264 C263 0.952 . S
H265 C261 0.950 . S
H266 C267 0.949 . S
C267 H266 0.949 . S
C267 C268 1.395 . S
C267 C269 1.391 . S
C268 C267 1.395 . S
C268 C271 1.390 . S
C269 C267 1.391 . S
C269 C273 1.387 . S
C269 C274 1.491 . S
H270 C271 0.950 . S
C271 C268 1.390 . S
C271 H270 0.950 . S
C271 C272 1.378 . S
C272 C271 1.378 . S
C272 C273 1.409 . S
C273 C269 1.387 . S
C273 C272 1.409 . S
C273 H275 0.951 . S
C274 C269 1.491 . S
C274 C276 1.382 . S
C274 C278 1.404 . S
H275 C273 0.951 . S
C276 C274 1.382 . S
C276 C277 1.390 . S
C276 H281 0.949 . S
C277 C276 1.390 . S
C277 C282 1.399 . S
C278 C274 1.404 . S
C278 H279 0.950 . S
C278 C280 1.375 . S
H279 C278 0.950 . S
C280 C278 1.375 . S
C280 C282 1.382 . S
C280 H284 0.950 . S
H281 C276 0.949 . S
C282 C277 1.399 . S
C282 C280 1.382 . S
C282 H283 0.952 . S
H283 C282 0.952 . S
H284 C280 0.950 . S
H285 C286 0.949 . S
C286 H285 0.949 . S
C286 C287 1.395 . S
C286 C288 1.391 . S
C287 C286 1.395 . S
C287 C290 1.390 . S
C288 C286 1.391 . S
C288 C292 1.387 . S
C288 C293 1.491 . S
H289 C290 0.950 . S
C290 C287 1.390 . S
C290 H289 0.950 . S
C290 C291 1.378 . S
C291 C290 1.378 . S
C291 C292 1.409 . S
C292 C288 1.387 . S
C292 C291 1.409 . S
C292 H294 0.951 . S
C293 C288 1.491 . S
C293 C295 1.382 . S
C293 C297 1.404 . S
H294 C292 0.951 . S
C295 C293 1.382 . S
C295 C296 1.390 . S
C295 H300 0.949 . S
C296 C295 1.390 . S
C296 C301 1.399 . S
C297 C293 1.404 . S
C297 H298 0.950 . S
C297 C299 1.375 . S
H298 C297 0.950 . S
C299 C297 1.375 . S
C299 C301 1.382 . S
C299 H303 0.950 . S
H300 C295 0.949 . S
C301 C296 1.399 . S
C301 C299 1.382 . S
C301 H302 0.952 . S
H302 C301 0.952 . S
H303 C299 0.950 . S
O304 Cd305 2.223 . S
O304 C312 1.315 . S
Cd305 O304 2.223 . S
Cd305 O308 2.297 . S
Cd305 O309 2.439 . S
Cd305 O315 2.240 . S
Cd306 O307 2.240 . S
Cd306 O314 2.223 . S
Cd306 O316 2.313 . S
Cd306 O317 2.439 . S
O307 Cd306 2.240 . S
O307 C312 1.279 . S
O308 Cd305 2.297 . S
O308 C310 1.247 . S
O309 Cd305 2.439 . S
O309 C310 1.208 . S
C310 O308 1.247 . S
C310 O309 1.208 . S
C311 O316 1.252 . S
C311 O317 1.208 . S
C312 O304 1.315 . S
C312 O307 1.279 . S
C313 O314 1.315 . S
C313 O315 1.279 . S
O314 Cd306 2.223 . S
O314 C313 1.315 . S
O315 Cd305 2.240 . S
O315 C313 1.279 . S
O316 Cd306 2.313 . S
O316 C311 1.252 . S
O317 Cd306 2.439 . S
O317 C311 1.208 . S
O318 Cd319 2.223 . S
O318 C326 1.315 . S
Cd319 O318 2.223 . S
Cd319 O322 2.297 . S
Cd319 O323 2.439 . S
Cd319 O329 2.240 . S
Cd320 O321 2.240 . S
Cd320 O328 2.223 . S
Cd320 O330 2.297 . S
Cd320 O331 2.439 . S
O321 Cd320 2.240 . S
O321 C326 1.279 . S
O322 Cd319 2.297 . S
O322 C324 1.247 . S
O323 Cd319 2.439 . S
O323 C324 1.208 . S
C324 O322 1.247 . S
C324 O323 1.208 . S
C325 O330 1.247 . S
C325 O331 1.208 . S
C326 O318 1.315 . S
C326 O321 1.279 . S
C327 O328 1.315 . S
C327 O329 1.279 . S
O328 Cd320 2.223 . S
O328 C327 1.315 . S
O329 Cd319 2.240 . S
O329 C327 1.279 . S
O330 Cd320 2.297 . S
O330 C325 1.247 . S
O331 Cd320 2.439 . S
O331 C325 1.208 . S
O332 Cd333 2.223 1_556 S
O332 C340 1.315 . S
Cd333 O332 2.223 1_554 S
Cd333 O336 2.297 . S
Cd333 O337 2.439 . S
Cd333 O343 2.231 1_554 S
Cd334 O335 2.240 . S
Cd334 O342 2.223 . S
Cd334 O344 2.297 . S
Cd334 O345 2.439 1_556 S
O335 Cd334 2.240 . S
O335 C340 1.279 . S
O336 Cd333 2.297 . S
O336 C338 1.247 . S
O337 Cd333 2.439 . S
O337 C338 1.208 . S
C338 O336 1.247 . S
C338 O337 1.208 . S
C339 O344 1.247 1_554 S
C339 O345 1.208 . S
C340 O332 1.315 . S
C340 O335 1.279 . S
C341 O342 1.315 . S
C341 O343 1.319 . S
O342 Cd334 2.223 . S
O342 C341 1.315 . S
O343 Cd333 2.231 1_556 S
O343 C341 1.319 . S
O344 Cd334 2.297 . S
O344 C339 1.247 1_556 S
O345 Cd334 2.439 1_554 S
O345 C339 1.208 . S
O346 Cd347 2.223 1_455 S
O346 C354 1.315 . S
Cd347 O346 2.223 1_655 S
Cd347 O350 2.297 1_655 S
Cd347 O351 2.439 1_655 S
Cd347 O357 2.240 . S
Cd348 O349 2.240 1_655 S
Cd348 O356 2.223 . S
Cd348 O358 2.297 . S
Cd348 O359 2.439 . S
O349 Cd348 2.240 1_455 S
O349 C354 1.279 . S
O350 Cd347 2.297 1_455 S
O350 C352 1.247 . S
O351 Cd347 2.439 1_455 S
O351 C352 1.208 . S
C352 O350 1.247 . S
C352 O351 1.208 . S
C353 O358 1.247 . S
C353 O359 1.208 . S
C354 O346 1.315 . S
C354 O349 1.279 . S
C355 O356 1.315 . S
C355 O357 1.279 . S
O356 Cd348 2.223 . S
O356 C355 1.315 . S
O357 Cd347 2.240 . S
O357 C355 1.279 . S
O358 Cd348 2.297 . S
O358 C353 1.247 . S
O359 Cd348 2.439 . S
O359 C353 1.208 . S
O360 Cd361 2.223 . S
O360 C368 1.315 . S
Cd361 O360 2.223 . S
Cd361 O364 2.297 . S
Cd361 O365 2.439 . S
Cd361 O371 2.240 . S
Cd362 O363 2.240 . S
Cd362 O370 2.223 . S
Cd362 O372 2.297 . S
Cd362 O373 2.439 . S
O363 Cd362 2.240 . S
O363 C368 1.279 . S
O364 Cd361 2.297 . S
O364 C366 1.247 . S
O365 Cd361 2.439 . S
O365 C366 1.208 . S
C366 O364 1.247 . S
C366 O365 1.208 . S
C367 O372 1.247 . S
C367 O373 1.208 . S
C368 O360 1.315 . S
C368 O363 1.279 . S
C369 O370 1.315 . S
C369 O371 1.279 . S
O370 Cd362 2.223 . S
O370 C369 1.315 . S
O371 Cd361 2.240 . S
O371 C369 1.279 . S
O372 Cd362 2.297 . S
O372 C367 1.247 . S
O373 Cd362 2.439 . S
O373 C367 1.208 . S
O374 Cd375 2.223 . S
O374 C382 1.315 . S
Cd375 O374 2.223 . S
Cd375 O378 2.297 . S
Cd375 O379 2.439 . S
Cd375 O385 2.240 . S
Cd376 O377 2.240 . S
Cd376 O384 2.223 . S
Cd376 O386 2.297 . S
Cd376 O387 2.439 . S
O377 Cd376 2.240 . S
O377 C382 1.279 . S
O378 Cd375 2.297 . S
O378 C380 1.247 . S
O379 Cd375 2.439 . S
O379 C380 1.208 . S
C380 O378 1.247 . S
C380 O379 1.208 . S
C381 O386 1.247 . S
C381 O387 1.208 . S
C382 O374 1.315 . S
C382 O377 1.279 . S
C383 O384 1.315 . S
C383 O385 1.279 . S
O384 Cd376 2.223 . S
O384 C383 1.315 . S
O385 Cd375 2.240 . S
O385 C383 1.279 . S
O386 Cd376 2.297 . S
O386 C381 1.247 . S
O387 Cd376 2.439 . S
O387 C381 1.208 . S
O388 Cd389 2.223 . S
O388 C396 1.315 . S
Cd389 O388 2.223 . S
Cd389 O392 2.297 . S
Cd389 O393 2.439 . S
Cd389 O399 2.240 . S
Cd390 O391 2.240 . S
Cd390 O398 2.223 . S
Cd390 O400 2.297 . S
Cd390 O401 2.439 . S
O391 Cd390 2.240 . S
O391 C396 1.279 . S
O392 Cd389 2.297 . S
O392 C394 1.247 . S
O393 Cd389 2.439 . S
O393 C394 1.208 . S
C394 O392 1.247 . S
C394 O393 1.208 . S
C395 O400 1.247 . S
C395 O401 1.208 . S
C396 O388 1.315 . S
C396 O391 1.279 . S
C397 O398 1.315 . S
C397 O399 1.279 . S
O398 Cd390 2.223 . S
O398 C397 1.315 . S
O399 Cd389 2.240 . S
O399 C397 1.279 . S
O400 Cd390 2.297 . S
O400 C395 1.247 . S
O401 Cd390 2.439 . S
O401 C395 1.208 . S
O402 Cd403 2.223 1_545 S
O402 C410 1.315 . S
Cd403 O402 2.223 1_565 S
Cd403 O406 2.297 . S
Cd403 O407 2.439 . S
Cd403 O413 2.240 1_565 S
Cd404 O405 2.240 . S
Cd404 O412 2.223 . S
Cd404 O414 2.297 1_545 S
Cd404 O415 2.439 1_545 S
O405 Cd404 2.240 . S
O405 C410 1.279 . S
O406 Cd403 2.297 . S
O406 C408 1.247 . S
O407 Cd403 2.439 . S
O407 C408 1.208 . S
C408 O406 1.247 . S
C408 O407 1.208 . S
C409 O414 1.247 . S
C409 O415 1.208 . S
C410 O402 1.315 . S
C410 O405 1.279 . S
C411 O412 1.315 . S
C411 O413 1.279 . S
O412 Cd404 2.223 . S
O412 C411 1.315 . S
O413 Cd403 2.240 1_545 S
O413 C411 1.279 . S
O414 Cd404 2.297 1_565 S
O414 C409 1.247 . S
O415 Cd404 2.439 1_565 S
O415 C409 1.208 . S
O416 Cd417 2.223 . S
O416 C424 1.315 . S
Cd417 O416 2.223 . S
Cd417 O420 2.298 1_655 S
Cd417 O421 2.439 1_655 S
Cd417 O427 2.240 . S
Cd418 O419 2.240 . S
Cd418 O426 2.223 1_455 S
Cd418 O428 2.297 . S
Cd418 O429 2.439 . S
O419 Cd418 2.240 . S
O419 C424 1.279 1_455 S
O420 Cd417 2.298 1_455 S
O420 C422 1.247 . S
O421 Cd417 2.439 1_455 S
O421 C422 1.208 . S
C422 O420 1.247 . S
C422 O421 1.208 . S
C423 O428 1.247 . S
C423 O429 1.208 . S
C424 O416 1.315 . S
C424 O419 1.279 1_655 S
C425 O426 1.315 . S
C425 O427 1.279 . S
O426 Cd418 2.223 1_655 S
O426 C425 1.315 . S
O427 Cd417 2.240 . S
O427 C425 1.279 . S
O428 Cd418 2.297 . S
O428 C423 1.247 . S
O429 Cd418 2.439 . S
O429 C423 1.208 . S
O430 Cd431 2.223 . S
O430 C438 1.315 . S
Cd431 O430 2.223 . S
Cd431 O434 2.297 . S
Cd431 O435 2.439 . S
Cd431 O441 2.240 . S
Cd432 O433 2.240 . S
Cd432 O440 2.223 . S
Cd432 O442 2.297 . S
Cd432 O443 2.439 . S
O433 Cd432 2.240 . S
O433 C438 1.279 . S
O434 Cd431 2.297 . S
O434 C436 1.247 . S
O435 Cd431 2.439 . S
O435 C436 1.208 . S
C436 O434 1.247 . S
C436 O435 1.208 . S
C437 O442 1.247 . S
C437 O443 1.208 . S
C438 O430 1.315 . S
C438 O433 1.279 . S
C439 O440 1.315 . S
C439 O441 1.279 . S
O440 Cd432 2.223 . S
O440 C439 1.315 . S
O441 Cd431 2.240 . S
O441 C439 1.279 . S
O442 Cd432 2.297 . S
O442 C437 1.247 . S
O443 Cd432 2.439 . S
O443 C437 1.208 . S
O444 Cd445 2.223 1_655 S
O444 C452 1.315 . S
Cd445 O444 2.223 1_455 S
Cd445 O448 2.297 . S
Cd445 O449 2.439 . S
Cd445 O455 2.240 . S
Cd446 O447 2.240 . S
Cd446 O454 2.223 1_455 S
Cd446 O456 2.297 . S
Cd446 O457 2.439 . S
O447 Cd446 2.240 . S
O447 C452 1.279 1_455 S
O448 Cd445 2.297 . S
O448 C450 1.247 . S
O449 Cd445 2.439 . S
O449 C450 1.208 . S
C450 O448 1.247 . S
C450 O449 1.208 . S
C451 O456 1.247 . S
C451 O457 1.208 . S
C452 O444 1.315 . S
C452 O447 1.279 1_655 S
C453 O454 1.315 . S
C453 O455 1.279 1_655 S
O454 Cd446 2.223 1_655 S
O454 C453 1.315 . S
O455 Cd445 2.240 . S
O455 C453 1.279 1_455 S
O456 Cd446 2.297 . S
O456 C451 1.247 . S
O457 Cd446 2.439 . S
O457 C451 1.208 . S
O458 Cd459 2.223 . S
O458 C466 1.315 . S
Cd459 O458 2.223 . S
Cd459 O462 2.297 . S
Cd459 O463 2.439 . S
Cd459 O469 2.240 . S
Cd460 O461 2.240 . S
Cd460 O468 2.223 . S
Cd460 O470 2.297 . S
Cd460 O471 2.439 . S
O461 Cd460 2.240 . S
O461 C466 1.279 . S
O462 Cd459 2.297 . S
O462 C464 1.247 . S
O463 Cd459 2.439 . S
O463 C464 1.208 . S
C464 O462 1.247 . S
C464 O463 1.208 . S
C465 O470 1.247 . S
C465 O471 1.208 . S
C466 O458 1.315 . S
C466 O461 1.279 . S
C467 O468 1.315 . S
C467 O469 1.279 . S
O468 Cd460 2.223 . S
O468 C467 1.315 . S
O469 Cd459 2.240 . S
O469 C467 1.279 . S
O470 Cd460 2.297 . S
O470 C465 1.247 . S
O471 Cd460 2.439 . S
O471 C465 1.208 . S
H472 C478 0.930 . S
H473 C481 0.930 . S
H474 C482 0.930 . S
H475 C483 0.930 . S
H476 C486 0.930 . S
H477 C487 0.930 . S
C478 H472 0.930 . S
C478 C479 1.355 . S
C478 C480 1.415 . S
C479 C478 1.355 . S
C479 C481 1.419 . S
C480 C478 1.415 . S
C480 C485 1.425 . S
C480 C487 1.409 . S
C481 H473 0.930 . S
C481 C479 1.419 . S
C481 C482 1.362 . S
C482 H474 0.930 . S
C482 C481 1.362 . S
C482 C485 1.409 . S
C483 H475 0.930 . S
C483 C484 1.355 1_556 S
C483 C485 1.415 . S
C484 C483 1.355 1_554 S
C484 C486 1.419 . S
C485 C480 1.425 . S
C485 C482 1.409 . S
C485 C483 1.415 . S
C486 H476 0.930 . S
C486 C484 1.419 . S
C486 C487 1.362 1_554 S
C487 H477 0.930 . S
C487 C480 1.409 . S
C487 C486 1.362 1_556 S
H488 C494 0.930 . S
H489 C497 0.930 . S
H490 C498 0.930 . S
H491 C499 0.930 . S
H492 C502 0.930 . S
H493 C503 0.930 . S
C494 H488 0.930 . S
C494 C495 1.355 1_455 S
C494 C496 1.415 . S
C495 C494 1.355 1_655 S
C495 C497 1.419 . S
C496 C494 1.415 . S
C496 C501 1.425 . S
C496 C503 1.409 . S
C497 H489 0.930 . S
C497 C495 1.419 . S
C497 C498 1.362 . S
C498 H490 0.930 . S
C498 C497 1.362 . S
C498 C501 1.409 1_655 S
C499 H491 0.930 . S
C499 C500 1.355 . S
C499 C501 1.415 . S
C500 C499 1.355 . S
C500 C502 1.419 . S
C501 C496 1.425 . S
C501 C498 1.409 1_455 S
C501 C499 1.415 . S
C502 H492 0.930 . S
C502 C500 1.419 . S
C502 C503 1.362 . S
C503 H493 0.930 . S
C503 C496 1.409 . S
C503 C502 1.362 . S
H504 C510 0.930 . S
H505 C513 0.930 . S
H506 C514 0.930 . S
H507 C515 0.930 . S
H508 C518 0.930 . S
H509 C519 0.930 . S
C510 H504 0.930 . S
C510 C511 1.355 . S
C510 C512 1.415 . S
C511 C510 1.355 . S
C511 C513 1.419 . S
C512 C510 1.415 . S
C512 C517 1.425 . S
C512 C519 1.409 . S
C513 H505 0.930 . S
C513 C511 1.419 . S
C513 C514 1.362 . S
C514 H506 0.930 . S
C514 C513 1.362 . S
C514 C517 1.409 . S
C515 H507 0.930 . S
C515 C516 1.355 . S
C515 C517 1.415 . S
C516 C515 1.355 . S
C516 C518 1.419 . S
C517 C512 1.425 . S
C517 C514 1.409 . S
C517 C515 1.415 . S
C518 H508 0.930 . S
C518 C516 1.419 . S
C518 C519 1.362 . S
C519 H509 0.930 . S
C519 C512 1.409 . S
C519 C518 1.362 . S
H520 C526 0.930 . S
H521 C529 0.930 . S
H522 C530 0.930 . S
H523 C531 0.930 . S
H524 C534 0.930 1_655 S
H525 C535 0.930 . S
C526 H520 0.930 . S
C526 C527 1.355 . S
C526 C528 1.415 . S
C527 C526 1.355 . S
C527 C529 1.419 1_565 S
C528 C526 1.415 . S
C528 C533 1.425 1_565 S
C528 C535 1.409 . S
C529 H521 0.930 . S
C529 C527 1.419 1_545 S
C529 C530 1.362 . S
C530 H522 0.930 . S
C530 C529 1.362 . S
C530 C533 1.409 . S
C531 H523 0.930 . S
C531 C532 1.355 . S
C531 C533 1.415 . S
C532 C531 1.355 . S
C532 C534 1.419 . S
C533 C528 1.425 1_545 S
C533 C530 1.409 . S
C533 C531 1.415 . S
C534 H524 0.930 1_455 S
C534 C532 1.419 . S
C534 C535 1.362 1_545 S
C535 H525 0.930 . S
C535 C528 1.409 . S
C535 C534 1.362 1_565 S
H536 C542 0.930 . S
H537 C545 0.930 . S
H538 C546 0.930 . S
H539 C547 0.930 . S
H540 C550 0.930 . S
H541 C551 0.930 . S
C542 H536 0.930 . S
C542 C543 1.355 . S
C542 C544 1.415 . S
C543 C542 1.355 . S
C543 C545 1.419 . S
C544 C542 1.415 . S
C544 C549 1.425 . S
C544 C551 1.409 . S
C545 H537 0.930 . S
C545 C543 1.419 . S
C545 C546 1.362 . S
C546 H538 0.930 . S
C546 C545 1.362 . S
C546 C549 1.409 . S
C547 H539 0.930 . S
C547 C548 1.355 . S
C547 C549 1.415 . S
C548 C547 1.355 . S
C548 C550 1.419 . S
C549 C544 1.425 . S
C549 C546 1.409 . S
C549 C547 1.415 . S
C550 H540 0.930 . S
C550 C548 1.419 . S
C550 C551 1.362 . S
C551 H541 0.930 . S
C551 C544 1.409 . S
C551 C550 1.362 . S
H552 C558 0.930 . S
H553 C561 0.930 . S
H554 C562 0.930 . S
H555 C563 0.930 . S
H556 C566 0.930 . S
H557 C567 0.930 . S
C558 H552 0.930 . S
C558 C559 1.355 . S
C558 C560 1.415 . S
C559 C558 1.355 . S
C559 C561 1.419 . S
C560 C558 1.415 . S
C560 C565 1.425 . S
C560 C567 1.409 . S
C561 H553 0.930 . S
C561 C559 1.419 . S
C561 C562 1.362 . S
C562 H554 0.930 . S
C562 C561 1.362 . S
C562 C565 1.409 . S
C563 H555 0.930 . S
C563 C564 1.355 . S
C563 C565 1.415 . S
C564 C563 1.355 . S
C564 C566 1.419 . S
C565 C560 1.425 . S
C565 C562 1.409 . S
C565 C563 1.415 . S
C566 H556 0.930 . S
C566 C564 1.419 . S
C566 C567 1.362 . S
C567 H557 0.930 . S
C567 C560 1.409 . S
C567 C566 1.362 . S
H568 C574 0.930 . S
H569 C577 0.930 . S
H570 C578 0.930 . S
H571 C579 0.930 . S
H572 C582 0.930 . S
H573 C583 0.930 . S
C574 H568 0.930 . S
C574 C575 1.355 . S
C574 C576 1.415 . S
C575 C574 1.355 . S
C575 C577 1.419 . S
C576 C574 1.415 . S
C576 C581 1.425 . S
C576 C583 1.409 . S
C577 H569 0.930 . S
C577 C575 1.419 . S
C577 C578 1.362 . S
C578 H570 0.930 . S
C578 C577 1.362 . S
C578 C581 1.409 . S
C579 H571 0.930 . S
C579 C580 1.355 . S
C579 C581 1.415 . S
C580 C579 1.355 . S
C580 C582 1.419 . S
C581 C576 1.425 . S
C581 C578 1.409 . S
C581 C579 1.415 . S
C582 H572 0.930 . S
C582 C580 1.419 . S
C582 C583 1.362 . S
C583 H573 0.930 . S
C583 C576 1.409 . S
C583 C582 1.362 . S
H584 C590 0.930 . S
H585 C593 0.930 . S
H586 C594 0.930 . S
H587 C595 0.930 . S
H588 C598 0.930 . S
H589 C599 0.930 . S
C590 H584 0.930 . S
C590 C591 1.355 . S
C590 C592 1.415 . S
C591 C590 1.355 . S
C591 C593 1.419 . S
C592 C590 1.415 . S
C592 C597 1.425 . S
C592 C599 1.409 . S
C593 H585 0.930 . S
C593 C591 1.419 . S
C593 C594 1.362 . S
C594 H586 0.930 . S
C594 C593 1.362 . S
C594 C597 1.409 . S
C595 H587 0.930 . S
C595 C596 1.355 . S
C595 C597 1.415 . S
C596 C595 1.355 . S
C596 C598 1.419 . S
C597 C592 1.425 . S
C597 C594 1.409 . S
C597 C595 1.415 . S
C598 H588 0.930 . S
C598 C596 1.419 . S
C598 C599 1.362 . S
C599 H589 0.930 . S
C599 C592 1.409 . S
C599 C598 1.362 . S
H600 C606 0.930 . S
H601 C609 0.930 . S
H602 C610 0.930 . S
H603 C611 0.930 . S
H604 C614 0.930 . S
H605 C615 0.930 . S
C606 H600 0.930 . S
C606 C607 1.355 . S
C606 C608 1.415 . S
C607 C606 1.355 . S
C607 C609 1.419 . S
C608 C606 1.415 . S
C608 C613 1.425 . S
C608 C615 1.409 . S
C609 H601 0.930 . S
C609 C607 1.419 . S
C609 C610 1.362 . S
C610 H602 0.930 . S
C610 C609 1.362 . S
C610 C613 1.409 . S
C611 H603 0.930 . S
C611 C612 1.355 . S
C611 C613 1.415 . S
C612 C611 1.355 . S
C612 C614 1.419 . S
C613 C608 1.425 . S
C613 C610 1.409 . S
C613 C611 1.415 . S
C614 H604 0.930 . S
C614 C612 1.419 . S
C614 C615 1.362 . S
C615 H605 0.930 . S
C615 C608 1.409 . S
C615 C614 1.362 . S
H616 C622 0.930 . S
H617 C625 0.930 . S
H618 C626 0.930 . S
H619 C627 0.930 . S
H620 C630 0.930 . S
H621 C631 0.930 . S
C622 H616 0.930 . S
C622 C623 1.355 . S
C622 C624 1.415 . S
C623 C622 1.355 . S
C623 C625 1.419 . S
C624 C622 1.415 . S
C624 C629 1.425 . S
C624 C631 1.409 . S
C625 H617 0.930 . S
C625 C623 1.419 . S
C625 C626 1.362 . S
C626 H618 0.930 . S
C626 C625 1.362 . S
C626 C629 1.409 . S
C627 H619 0.930 . S
C627 C628 1.355 . S
C627 C629 1.415 . S
C628 C627 1.355 . S
C628 C630 1.419 . S
C629 C624 1.425 . S
C629 C626 1.409 . S
C629 C627 1.415 . S
C630 H620 0.930 . S
C630 C628 1.419 . S
C630 C631 1.362 . S
C631 H621 0.930 . S
C631 C624 1.409 . S
C631 C630 1.362 . S
H632 C638 0.930 . S
H633 C641 0.930 . S
H634 C642 0.930 . S
H635 C643 0.930 . S
H636 C646 0.930 . S
H637 C647 0.930 . S
C638 H632 0.930 . S
C638 C639 1.355 . S
C638 C640 1.415 . S
C639 C638 1.355 . S
C639 C641 1.419 . S
C640 C638 1.415 . S
C640 C645 1.425 . S
C640 C647 1.409 . S
C641 H633 0.930 . S
C641 C639 1.419 . S
C641 C642 1.362 . S
C642 H634 0.930 . S
C642 C641 1.362 . S
C642 C645 1.409 . S
C643 H635 0.930 . S
C643 C644 1.355 . S
C643 C645 1.415 . S
C644 C643 1.355 . S
C644 C646 1.419 . S
C645 C640 1.425 . S
C645 C642 1.409 . S
C645 C643 1.415 . S
C646 H636 0.930 . S
C646 C644 1.419 . S
C646 C647 1.362 . S
C647 H637 0.930 . S
C647 C640 1.409 . S
C647 C646 1.362 . S
H648 C654 0.930 . S
H649 C657 0.930 . S
H650 C658 0.930 . S
H651 C659 0.930 . S
H652 C662 0.930 . S
H653 C663 0.930 . S
C654 H648 0.930 . S
C654 C655 1.355 . S
C654 C656 1.415 . S
C655 C654 1.355 . S
C655 C657 1.419 . S
C656 C654 1.415 . S
C656 C661 1.425 . S
C656 C663 1.409 . S
C657 H649 0.930 . S
C657 C655 1.419 . S
C657 C658 1.362 . S
C658 H650 0.930 . S
C658 C657 1.362 . S
C658 C661 1.409 . S
C659 H651 0.930 . S
C659 C660 1.355 . S
C659 C661 1.415 . S
C660 C659 1.355 . S
C660 C662 1.419 . S
C661 C656 1.425 . S
C661 C658 1.409 . S
C661 C659 1.415 . S
C662 H652 0.930 . S
C662 C660 1.419 . S
C662 C663 1.362 . S
C663 H653 0.930 . S
C663 C656 1.409 . S
C663 C662 1.362 . S
H664 C670 0.930 . S
H665 C673 0.930 . S
H666 C674 0.930 . S
H667 C675 0.930 . S
H668 C678 0.930 . S
H669 C679 0.930 . S
C670 H664 0.930 . S
C670 C671 1.355 . S
C670 C672 1.415 . S
C671 C670 1.355 . S
C671 C673 1.419 . S
C672 C670 1.415 . S
C672 C677 1.425 . S
C672 C679 1.409 . S
C673 H665 0.930 . S
C673 C671 1.419 . S
C673 C674 1.362 . S
C674 H666 0.930 . S
C674 C673 1.362 . S
C674 C677 1.409 . S
C675 H667 0.930 . S
C675 C676 1.355 . S
C675 C677 1.415 . S
C676 C675 1.355 . S
C676 C678 1.419 . S
C677 C672 1.425 . S
C677 C674 1.409 . S
C677 C675 1.415 . S
C678 H668 0.930 . S
C678 C676 1.419 . S
C678 C679 1.362 . S
C679 H669 0.930 . S
C679 C672 1.409 . S
C679 C678 1.362 . S
H680 C686 0.930 . S
H681 C689 0.930 . S
H682 C690 0.930 . S
H683 C691 0.930 . S
H684 C694 0.930 . S
H685 C695 0.930 . S
C686 H680 0.930 . S
C686 C687 1.355 . S
C686 C688 1.415 . S
C687 C686 1.355 . S
C687 C689 1.419 . S
C688 C686 1.415 . S
C688 C693 1.425 . S
C688 C695 1.409 . S
C689 H681 0.930 . S
C689 C687 1.419 . S
C689 C690 1.362 . S
C690 H682 0.930 . S
C690 C689 1.362 . S
C690 C693 1.409 . S
C691 H683 0.930 . S
C691 C692 1.355 . S
C691 C693 1.415 . S
C692 C691 1.355 . S
C692 C694 1.419 . S
C693 C688 1.425 . S
C693 C690 1.409 . S
C693 C691 1.415 . S
C694 H684 0.930 . S
C694 C692 1.419 . S
C694 C695 1.362 . S
C695 H685 0.930 . S
C695 C688 1.409 . S
C695 C694 1.362 . S
H696 C702 0.930 . S
H697 C705 0.930 . S
H698 C706 0.930 . S
H699 C707 0.930 . S
H700 C710 0.930 . S
H701 C711 0.930 . S
C702 H696 0.930 . S
C702 C703 1.355 . S
C702 C704 1.415 . S
C703 C702 1.355 . S
C703 C705 1.419 . S
C704 C702 1.415 . S
C704 C709 1.425 . S
C704 C711 1.409 . S
C705 H697 0.930 . S
C705 C703 1.419 . S
C705 C706 1.362 . S
C706 H698 0.930 . S
C706 C705 1.362 . S
C706 C709 1.409 . S
C707 H699 0.930 . S
C707 C708 1.355 . S
C707 C709 1.415 . S
C708 C707 1.355 . S
C708 C710 1.419 . S
C709 C704 1.425 . S
C709 C706 1.409 . S
C709 C707 1.415 . S
C710 H700 0.930 . S
C710 C708 1.419 . S
C710 C711 1.362 . S
C711 H701 0.930 . S
C711 C704 1.409 . S
C711 C710 1.362 . S
H712 C718 0.930 . S
H713 C721 0.930 . S
H714 C722 0.930 . S
H715 C723 0.930 . S
H716 C726 0.930 . S
H717 C727 0.930 . S
C718 H712 0.930 . S
C718 C719 1.355 . S
C718 C720 1.415 . S
C719 C718 1.355 . S
C719 C721 1.419 . S
C720 C718 1.415 . S
C720 C725 1.425 . S
C720 C727 1.409 . S
C721 H713 0.930 . S
C721 C719 1.419 . S
C721 C722 1.362 . S
C722 H714 0.930 . S
C722 C721 1.362 . S
C722 C725 1.409 . S
C723 H715 0.930 . S
C723 C724 1.355 . S
C723 C725 1.415 . S
C724 C723 1.355 . S
C724 C726 1.419 . S
C725 C720 1.425 . S
C725 C722 1.409 . S
C725 C723 1.415 . S
C726 H716 0.930 . S
C726 C724 1.419 . S
C726 C727 1.362 . S
C727 H717 0.930 . S
C727 C720 1.409 . S
C727 C726 1.362 . S
H728 C734 0.930 . S
H729 C737 0.930 . S
H730 C738 0.930 . S
H731 C739 0.930 . S
H732 C742 0.930 . S
H733 C743 0.930 . S
C734 H728 0.930 . S
C734 C735 1.355 . S
C734 C736 1.415 . S
C735 C734 1.355 . S
C735 C737 1.419 . S
C736 C734 1.415 . S
C736 C741 1.425 . S
C736 C743 1.409 . S
C737 H729 0.930 . S
C737 C735 1.419 . S
C737 C738 1.362 . S
C738 H730 0.930 . S
C738 C737 1.362 . S
C738 C741 1.409 . S
C739 H731 0.930 . S
C739 C740 1.355 . S
C739 C741 1.415 . S
C740 C739 1.355 . S
C740 C742 1.419 . S
C741 C736 1.425 . S
C741 C738 1.409 . S
C741 C739 1.415 . S
C742 H732 0.930 . S
C742 C740 1.419 . S
C742 C743 1.362 . S
C743 H733 0.930 . S
C743 C736 1.409 . S
C743 C742 1.362 . S
H744 C750 0.930 . S
H745 C753 0.930 . S
H746 C754 0.930 . S
H747 C755 0.930 . S
H748 C758 0.930 . S
H749 C759 0.930 . S
C750 H744 0.930 . S
C750 C751 1.355 . S
C750 C752 1.415 . S
C751 C750 1.355 . S
C751 C753 1.419 . S
C752 C750 1.415 . S
C752 C757 1.425 . S
C752 C759 1.409 . S
C753 H745 0.930 . S
C753 C751 1.419 . S
C753 C754 1.362 . S
C754 H746 0.930 . S
C754 C753 1.362 . S
C754 C757 1.409 . S
C755 H747 0.930 . S
C755 C756 1.355 . S
C755 C757 1.415 . S
C756 C755 1.355 . S
C756 C758 1.419 . S
C757 C752 1.425 . S
C757 C754 1.409 . S
C757 C755 1.415 . S
C758 H748 0.930 . S
C758 C756 1.419 . S
C758 C759 1.362 . S
C759 H749 0.930 . S
C759 C752 1.409 . S
C759 C758 1.362 . S
H760 C766 0.930 . S
H761 C769 0.930 . S
H762 C770 0.930 . S
H763 C771 0.930 . S
H764 C774 0.930 . S
H765 C775 0.930 . S
C766 H760 0.930 . S
C766 C767 1.355 . S
C766 C768 1.392 1_556 S
C767 C766 1.355 . S
C767 C769 1.419 1_556 S
C768 C766 1.392 1_554 S
C768 C773 1.444 . S
C768 C775 1.414 1_544 S
C769 H761 0.930 . S
C769 C767 1.419 1_554 S
C769 C770 1.362 . S
C770 H762 0.930 . S
C770 C769 1.362 . S
C770 C773 1.409 . S
C771 H763 0.930 . S
C771 C772 1.355 1_545 S
C771 C773 1.415 . S
C772 C771 1.355 1_565 S
C772 C774 1.419 . S
C773 C768 1.444 . S
C773 C770 1.409 . S
C773 C771 1.415 . S
C774 H764 0.930 . S
C774 C772 1.419 . S
C774 C775 1.362 1_554 S
C775 H765 0.930 . S
C775 C768 1.414 1_566 S
C775 C774 1.362 1_556 S
H776 C782 0.930 . S
H777 C785 0.930 . S
H778 C786 0.930 . S
H779 C787 0.930 . S
H780 C790 0.930 . S
H781 C791 0.930 . S
C782 H776 0.930 . S
C782 C783 1.355 . S
C782 C784 1.415 . S
C783 C782 1.355 . S
C783 C785 1.419 . S
C784 C782 1.415 . S
C784 C789 1.425 . S
C784 C791 1.409 . S
C785 H777 0.930 . S
C785 C783 1.419 . S
C785 C786 1.362 . S
C786 H778 0.930 . S
C786 C785 1.362 . S
C786 C789 1.409 . S
C787 H779 0.930 . S
C787 C788 1.355 . S
C787 C789 1.415 . S
C788 C787 1.355 . S
C788 C790 1.419 . S
C789 C784 1.425 . S
C789 C786 1.409 . S
C789 C787 1.415 . S
C790 H780 0.930 . S
C790 C788 1.419 . S
C790 C791 1.362 . S
C791 H781 0.930 . S
C791 C784 1.409 . S
C791 C790 1.362 . S
H792 C798 0.930 . S
H793 C801 0.930 . S
H794 C802 0.930 . S
H795 C803 0.930 . S
H796 C806 0.930 . S
H797 C807 0.930 . S
C798 H792 0.930 . S
C798 C799 1.359 1_545 S
C798 C800 1.415 . S
C799 C798 1.359 1_565 S
C799 C801 1.417 . S
C800 C798 1.415 . S
C800 C805 1.425 . S
C800 C807 1.409 . S
C801 H793 0.930 . S
C801 C799 1.417 . S
C801 C802 1.362 1_565 S
C802 H794 0.930 . S
C802 C801 1.362 1_545 S
C802 C805 1.409 . S
C803 H795 0.930 . S
C803 C804 1.355 . S
C803 C805 1.415 . S
C804 C803 1.355 . S
C804 C806 1.419 . S
C805 C800 1.425 . S
C805 C802 1.409 . S
C805 C803 1.415 . S
C806 H796 0.930 . S
C806 C804 1.419 . S
C806 C807 1.362 . S
C807 H797 0.930 . S
C807 C800 1.409 . S
C807 C806 1.362 . S
H808 C814 0.930 . S
H809 C817 0.930 . S
H810 C818 0.930 . S
H811 C819 0.930 . S
H812 C822 0.930 . S
H813 C823 0.930 . S
C814 H808 0.930 . S
C814 C815 1.355 . S
C814 C816 1.415 . S
C815 C814 1.355 . S
C815 C817 1.419 . S
C816 C814 1.415 . S
C816 C821 1.425 . S
C816 C823 1.409 . S
C817 H809 0.930 . S
C817 C815 1.419 . S
C817 C818 1.362 . S
C818 H810 0.930 . S
C818 C817 1.362 . S
C818 C821 1.409 . S
C819 H811 0.930 . S
C819 C820 1.355 . S
C819 C821 1.415 . S
C820 C819 1.355 . S
C820 C822 1.419 . S
C821 C816 1.425 . S
C821 C818 1.409 . S
C821 C819 1.415 . S
C822 H812 0.930 . S
C822 C820 1.419 . S
C822 C823 1.362 . S
C823 H813 0.930 . S
C823 C816 1.409 . S
C823 C822 1.362 . S
H824 C830 0.931 . S
H825 C833 0.930 . S
H826 C834 0.930 . S
H827 C835 0.930 . S
H828 C838 0.930 . S
H829 C839 0.930 . S
C830 H824 0.931 . S
C830 C831 1.375 . S
C830 C832 1.393 1_565 S
C831 C830 1.375 . S
C831 C833 1.419 . S
C832 C830 1.393 1_545 S
C832 C837 1.425 . S
C832 C839 1.409 . S
C833 H825 0.930 . S
C833 C831 1.419 . S
C833 C834 1.362 1_565 S
C834 H826 0.930 . S
C834 C833 1.362 1_545 S
C834 C837 1.409 . S
C835 H827 0.930 . S
C835 C836 1.355 . S
C835 C837 1.415 . S
C836 C835 1.355 . S
C836 C838 1.419 . S
C837 C832 1.425 . S
C837 C834 1.409 . S
C837 C835 1.415 . S
C838 H828 0.930 . S
C838 C836 1.419 . S
C838 C839 1.362 . S
C839 H829 0.930 . S
C839 C832 1.409 . S
C839 C838 1.362 . S
H840 C846 0.930 . S
H841 C849 0.930 . S
H842 C850 0.930 . S
H843 C851 0.930 . S
H844 C854 0.930 . S
H845 C855 0.930 . S
C846 H840 0.930 . S
C846 C847 1.355 . S
C846 C848 1.415 . S
C847 C846 1.355 . S
C847 C849 1.419 . S
C848 C846 1.415 . S
C848 C853 1.425 . S
C848 C855 1.409 . S
C849 H841 0.930 . S
C849 C847 1.419 . S
C849 C850 1.362 . S
C850 H842 0.930 . S
C850 C849 1.362 . S
C850 C853 1.409 . S
C851 H843 0.930 . S
C851 C852 1.355 . S
C851 C853 1.415 . S
C852 C851 1.355 . S
C852 C854 1.419 . S
C853 C848 1.425 . S
C853 C850 1.409 . S
C853 C851 1.415 . S
C854 H844 0.930 . S
C854 C852 1.419 . S
C854 C855 1.362 . S
C855 H845 0.930 . S
C855 C848 1.409 . S
C855 C854 1.362 . S
H856 C862 0.930 . S
H857 C865 0.930 . S
H858 C866 0.930 . S
H859 C867 0.930 . S
H860 C870 0.930 . S
H861 C871 0.930 . S
C862 H856 0.930 . S
C862 C863 1.355 . S
C862 C864 1.415 . S
C863 C862 1.355 . S
C863 C865 1.419 . S
C864 C862 1.415 . S
C864 C869 1.425 . S
C864 C871 1.409 . S
C865 H857 0.930 . S
C865 C863 1.419 . S
C865 C866 1.362 . S
C866 H858 0.930 . S
C866 C865 1.362 . S
C866 C869 1.409 . S
C867 H859 0.930 . S
C867 C868 1.355 . S
C867 C869 1.415 . S
C868 C867 1.355 . S
C868 C870 1.419 . S
C869 C864 1.425 . S
C869 C866 1.409 . S
C869 C867 1.415 . S
C870 H860 0.930 . S
C870 C868 1.419 . S
C870 C871 1.362 . S
C871 H861 0.930 . S
C871 C864 1.409 . S
C871 C870 1.362 . S
H872 C878 0.930 . S
H873 C881 0.930 . S
H874 C882 0.930 . S
H875 C883 0.930 . S
H876 C886 0.930 . S
H877 C887 0.930 . S
C878 H872 0.930 . S
C878 C879 1.355 . S
C878 C880 1.415 . S
C879 C878 1.355 . S
C879 C881 1.419 . S
C880 C878 1.415 . S
C880 C885 1.425 . S
C880 C887 1.409 . S
C881 H873 0.930 . S
C881 C879 1.419 . S
C881 C882 1.362 . S
C882 H874 0.930 . S
C882 C881 1.362 . S
C882 C885 1.409 . S
C883 H875 0.930 . S
C883 C884 1.355 . S
C883 C885 1.415 . S
C884 C883 1.355 . S
C884 C886 1.419 . S
C885 C880 1.425 . S
C885 C882 1.409 . S
C885 C883 1.415 . S
C886 H876 0.930 . S
C886 C884 1.419 . S
C886 C887 1.362 . S
C887 H877 0.930 . S
C887 C880 1.409 . S
C887 C886 1.362 . S
H888 C894 0.930 . S
H889 C897 0.930 . S
H890 C898 0.930 . S
H891 C899 0.930 . S
H892 C902 0.930 . S
H893 C903 0.930 . S
C894 H888 0.930 . S
C894 C895 1.355 . S
C894 C896 1.415 . S
C895 C894 1.355 . S
C895 C897 1.419 . S
C896 C894 1.415 . S
C896 C901 1.425 . S
C896 C903 1.409 . S
C897 H889 0.930 . S
C897 C895 1.419 . S
C897 C898 1.362 . S
C898 H890 0.930 . S
C898 C897 1.362 . S
C898 C901 1.409 . S
C899 H891 0.930 . S
C899 C900 1.355 . S
C899 C901 1.415 . S
C900 C899 1.355 . S
C900 C902 1.419 . S
C901 C896 1.425 . S
C901 C898 1.409 . S
C901 C899 1.415 . S
C902 H892 0.930 . S
C902 C900 1.419 . S
C902 C903 1.362 . S
C903 H893 0.930 . S
C903 C896 1.409 . S
C903 C902 1.362 . S
H904 C910 0.930 . S
H905 C913 0.930 . S
H906 C914 0.930 . S
H907 C915 0.930 . S
H908 C918 0.930 . S
H909 C919 0.930 . S
C910 H904 0.930 . S
C910 C911 1.355 . S
C910 C912 1.415 . S
C911 C910 1.355 . S
C911 C913 1.419 . S
C912 C910 1.415 . S
C912 C917 1.425 . S
C912 C919 1.409 . S
C913 H905 0.930 . S
C913 C911 1.419 . S
C913 C914 1.362 . S
C914 H906 0.930 . S
C914 C913 1.362 . S
C914 C917 1.409 . S
C915 H907 0.930 . S
C915 C916 1.355 . S
C915 C917 1.415 . S
C916 C915 1.355 . S
C916 C918 1.419 . S
C917 C912 1.425 . S
C917 C914 1.409 . S
C917 C915 1.415 . S
C918 H908 0.930 . S
C918 C916 1.419 . S
C918 C919 1.362 . S
C919 H909 0.930 . S
C919 C912 1.409 . S
C919 C918 1.362 . S
H920 C926 0.930 . S
H921 C929 0.930 . S
H922 C930 0.930 . S
H923 C931 0.930 . S
H924 C934 0.930 . S
H925 C935 0.930 . S
C926 H920 0.930 . S
C926 C927 1.355 . S
C926 C928 1.415 . S
C927 C926 1.355 . S
C927 C929 1.419 . S
C928 C926 1.415 . S
C928 C933 1.425 . S
C928 C935 1.409 . S
C929 H921 0.930 . S
C929 C927 1.419 . S
C929 C930 1.362 . S
C930 H922 0.930 . S
C930 C929 1.362 . S
C930 C933 1.409 . S
C931 H923 0.930 . S
C931 C932 1.355 . S
C931 C933 1.415 . S
C932 C931 1.355 . S
C932 C934 1.419 . S
C933 C928 1.425 . S
C933 C930 1.409 . S
C933 C931 1.415 . S
C934 H924 0.930 . S
C934 C932 1.419 . S
C934 C935 1.362 . S
C935 H925 0.930 . S
C935 C928 1.409 . S
C935 C934 1.362 . S
H936 C942 0.930 . S
H937 C945 0.930 . S
H938 C946 0.930 . S
H939 C947 0.930 . S
H940 C950 0.930 . S
H941 C951 0.930 . S
C942 H936 0.930 . S
C942 C943 1.355 . S
C942 C944 1.415 . S
C943 C942 1.355 . S
C943 C945 1.419 . S
C944 C942 1.415 . S
C944 C949 1.425 . S
C944 C951 1.409 . S
C945 H937 0.930 . S
C945 C943 1.419 . S
C945 C946 1.362 . S
C946 H938 0.930 . S
C946 C945 1.362 . S
C946 C949 1.409 . S
C947 H939 0.930 . S
C947 C948 1.355 . S
C947 C949 1.415 . S
C948 C947 1.355 . S
C948 C950 1.419 . S
C949 C944 1.425 . S
C949 C946 1.409 . S
C949 C947 1.415 . S
C950 H940 0.930 . S
C950 C948 1.419 . S
C950 C951 1.362 . S
C951 H941 0.930 . S
C951 C944 1.409 . S
C951 C950 1.362 . S
H952 C958 0.930 . S
H953 C961 0.930 . S
H954 C962 0.930 . S
H955 C963 0.930 . S
H956 C966 0.930 . S
H957 C967 0.930 . S
C958 H952 0.930 . S
C958 C959 1.355 . S
C958 C960 1.415 . S
C959 C958 1.355 . S
C959 C961 1.419 . S
C960 C958 1.415 . S
C960 C965 1.425 . S
C960 C967 1.409 . S
C961 H953 0.930 . S
C961 C959 1.419 . S
C961 C962 1.362 . S
C962 H954 0.930 . S
C962 C961 1.362 . S
C962 C965 1.409 . S
C963 H955 0.930 . S
C963 C964 1.355 . S
C963 C965 1.415 . S
C964 C963 1.355 . S
C964 C966 1.419 . S
C965 C960 1.425 . S
C965 C962 1.409 . S
C965 C963 1.415 . S
C966 H956 0.930 . S
C966 C964 1.419 . S
C966 C967 1.362 . S
C967 H957 0.930 . S
C967 C960 1.409 . S
C967 C966 1.362 . S
H968 C974 0.930 . S
H969 C977 0.930 . S
H970 C978 0.930 . S
H971 C979 0.930 . S
H972 C982 0.930 . S
H973 C983 0.930 . S
C974 H968 0.930 . S
C974 C975 1.355 . S
C974 C976 1.415 . S
C975 C974 1.355 . S
C975 C977 1.419 . S
C976 C974 1.415 . S
C976 C981 1.425 . S
C976 C983 1.409 1_655 S
C977 H969 0.930 . S
C977 C975 1.419 . S
C977 C978 1.362 . S
C978 H970 0.930 . S
C978 C977 1.362 . S
C978 C981 1.409 . S
C979 H971 0.930 . S
C979 C980 1.355 . S
C979 C981 1.415 1_455 S
C980 C979 1.355 . S
C980 C982 1.419 . S
C981 C976 1.425 . S
C981 C978 1.409 . S
C981 C979 1.415 1_655 S
C982 H972 0.930 . S
C982 C980 1.419 . S
C982 C983 1.362 . S
C983 H973 0.930 . S
C983 C976 1.409 1_455 S
C983 C982 1.362 . S
H984 C990 0.930 . S
H985 C993 0.930 . S
H986 C994 0.930 . S
H987 C995 0.930 . S
H988 C998 0.930 . S
H989 C999 0.930 . S
C990 H984 0.930 . S
C990 C991 1.355 . S
C990 C992 1.415 . S
C991 C990 1.355 . S
C991 C993 1.419 . S
C992 C990 1.415 . S
C992 C997 1.425 . S
C992 C999 1.409 . S
C993 H985 0.930 . S
C993 C991 1.419 . S
C993 C994 1.362 . S
C994 H986 0.930 . S
C994 C993 1.362 . S
C994 C997 1.409 . S
C995 H987 0.930 . S
C995 C996 1.355 . S
C995 C997 1.415 . S
C996 C995 1.355 . S
C996 C998 1.419 . S
C997 C992 1.425 . S
C997 C994 1.409 . S
C997 C995 1.415 . S
C998 H988 0.930 . S
C998 C996 1.419 . S
C998 C999 1.362 . S
C999 H989 0.930 . S
C999 C992 1.409 . S
C999 C998 1.362 . S
H1000 C1006 0.930 . S
H1001 C1009 0.930 . S
H1002 C1010 0.930 . S
H1003 C1011 0.930 . S
H1004 C1014 0.930 . S
H1005 C1015 0.930 . S
C1006 H1000 0.930 . S
C1006 C1007 1.355 . S
C1006 C1008 1.415 . S
C1007 C1006 1.355 . S
C1007 C1009 1.419 . S
C1008 C1006 1.415 . S
C1008 C1013 1.425 . S
C1008 C1015 1.409 . S
C1009 H1001 0.930 . S
C1009 C1007 1.419 . S
C1009 C1010 1.362 . S
C1010 H1002 0.930 . S
C1010 C1009 1.362 . S
C1010 C1013 1.409 . S
C1011 H1003 0.930 . S
C1011 C1012 1.355 . S
C1011 C1013 1.415 . S
C1012 C1011 1.355 . S
C1012 C1014 1.419 . S
C1013 C1008 1.425 . S
C1013 C1010 1.409 . S
C1013 C1011 1.415 . S
C1014 H1004 0.930 . S
C1014 C1012 1.419 . S
C1014 C1015 1.362 . S
C1015 H1005 0.930 . S
C1015 C1008 1.409 . S
C1015 C1014 1.362 . S
H1016 C1022 0.930 . S
H1017 C1025 0.930 . S
H1018 C1026 0.930 . S
H1019 C1027 0.930 . S
H1020 C1030 0.930 . S
H1021 C1031 0.930 . S
C1022 H1016 0.930 . S
C1022 C1023 1.355 . S
C1022 C1024 1.415 . S
C1023 C1022 1.355 . S
C1023 C1025 1.419 . S
C1024 C1022 1.415 . S
C1024 C1029 1.425 . S
C1024 C1031 1.409 . S
C1025 H1017 0.930 . S
C1025 C1023 1.419 . S
C1025 C1026 1.362 . S
C1026 H1018 0.930 . S
C1026 C1025 1.362 . S
C1026 C1029 1.409 . S
C1027 H1019 0.930 . S
C1027 C1028 1.355 . S
C1027 C1029 1.415 . S
C1028 C1027 1.355 . S
C1028 C1030 1.419 . S
C1029 C1024 1.425 . S
C1029 C1026 1.409 . S
C1029 C1027 1.415 . S
C1030 H1020 0.930 . S
C1030 C1028 1.419 . S
C1030 C1031 1.362 . S
C1031 H1021 0.930 . S
C1031 C1024 1.409 . S
C1031 C1030 1.362 . S
H1032 C1038 0.930 . S
H1033 C1041 0.930 . S
H1034 C1042 0.930 . S
H1035 C1043 0.930 . S
H1036 C1046 0.930 . S
H1037 C1047 0.930 . S
C1038 H1032 0.930 . S
C1038 C1039 1.355 . S
C1038 C1040 1.415 1_554 S
C1039 C1038 1.355 . S
C1039 C1041 1.419 . S
C1040 C1038 1.415 1_556 S
C1040 C1045 1.425 . S
C1040 C1047 1.409 . S
C1041 H1033 0.930 . S
C1041 C1039 1.419 . S
C1041 C1042 1.362 1_554 S
C1042 H1034 0.930 . S
C1042 C1041 1.362 1_556 S
C1042 C1045 1.409 . S
C1043 H1035 0.930 . S
C1043 C1044 1.355 . S
C1043 C1045 1.415 . S
C1044 C1043 1.355 . S
C1044 C1046 1.419 . S
C1045 C1040 1.425 . S
C1045 C1042 1.409 . S
C1045 C1043 1.415 . S
C1046 H1036 0.930 . S
C1046 C1044 1.419 . S
C1046 C1047 1.362 . S
C1047 H1037 0.930 . S
C1047 C1040 1.409 . S
C1047 C1046 1.362 . S
H1048 C1054 0.930 . S
H1049 C1057 0.930 . S
H1050 C1058 0.930 . S
H1051 C1059 0.930 . S
H1052 C1062 0.930 . S
H1053 C1063 0.930 . S
C1054 H1048 0.930 . S
C1054 C1055 1.355 . S
C1054 C1056 1.415 . S
C1055 C1054 1.355 . S
C1055 C1057 1.419 . S
C1056 C1054 1.415 . S
C1056 C1061 1.425 . S
C1056 C1063 1.409 . S
C1057 H1049 0.930 . S
C1057 C1055 1.419 . S
C1057 C1058 1.362 . S
C1058 H1050 0.930 . S
C1058 C1057 1.362 . S
C1058 C1061 1.409 . S
C1059 H1051 0.930 . S
C1059 C1060 1.355 . S
C1059 C1061 1.415 . S
C1060 C1059 1.355 . S
C1060 C1062 1.419 . S
C1061 C1056 1.425 . S
C1061 C1058 1.409 . S
C1061 C1059 1.415 . S
C1062 H1052 0.930 . S
C1062 C1060 1.419 . S
C1062 C1063 1.362 . S
C1063 H1053 0.930 . S
C1063 C1056 1.409 . S
C1063 C1062 1.362 . S
H1064 C1070 0.930 . S
H1065 C1073 0.930 . S
H1066 C1074 0.930 . S
H1067 C1075 0.930 . S
H1068 C1078 0.930 . S
H1069 C1079 0.930 . S
C1070 H1064 0.930 . S
C1070 C1071 1.355 . S
C1070 C1072 1.415 . S
C1071 C1070 1.355 . S
C1071 C1073 1.419 1_554 S
C1072 C1070 1.415 . S
C1072 C1077 1.425 . S
C1072 C1079 1.409 . S
C1073 H1065 0.930 . S
C1073 C1071 1.419 1_556 S
C1073 C1074 1.362 1_556 S
C1074 H1066 0.930 . S
C1074 C1073 1.362 1_554 S
C1074 C1077 1.409 . S
C1075 H1067 0.930 . S
C1075 C1076 1.355 . S
C1075 C1077 1.415 . S
C1076 C1075 1.355 . S
C1076 C1078 1.419 . S
C1077 C1072 1.425 . S
C1077 C1074 1.409 . S
C1077 C1075 1.415 . S
C1078 H1068 0.930 . S
C1078 C1076 1.419 . S
C1078 C1079 1.362 . S
C1079 H1069 0.930 . S
C1079 C1072 1.409 . S
C1079 C1078 1.362 . S
H1080 C1086 0.930 . S
H1081 C1089 0.930 . S
H1082 C1090 0.930 . S
H1083 C1091 0.930 . S
H1084 C1094 0.930 . S
H1085 C1095 0.930 . S
C1086 H1080 0.930 . S
C1086 C1087 1.355 . S
C1086 C1088 1.415 . S
C1087 C1086 1.355 . S
C1087 C1089 1.419 . S
C1088 C1086 1.415 . S
C1088 C1093 1.425 . S
C1088 C1095 1.409 . S
C1089 H1081 0.930 . S
C1089 C1087 1.419 . S
C1089 C1090 1.362 . S
C1090 H1082 0.930 . S
C1090 C1089 1.362 . S
C1090 C1093 1.409 . S
C1091 H1083 0.930 . S
C1091 C1092 1.355 . S
C1091 C1093 1.415 . S
C1092 C1091 1.355 . S
C1092 C1094 1.419 . S
C1093 C1088 1.425 . S
C1093 C1090 1.409 . S
C1093 C1091 1.415 . S
C1094 H1084 0.930 . S
C1094 C1092 1.419 . S
C1094 C1095 1.362 . S
C1095 H1085 0.930 . S
C1095 C1088 1.409 . S
C1095 C1094 1.362 . S
H1096 C1102 0.930 . S
H1097 C1105 0.930 . S
H1098 C1106 0.930 . S
H1099 C1107 0.930 . S
H1100 C1110 0.930 . S
H1101 C1111 0.930 . S
C1102 H1096 0.930 . S
C1102 C1103 1.355 1_554 S
C1102 C1104 1.415 . S
C1103 C1102 1.355 1_556 S
C1103 C1105 1.419 . S
C1104 C1102 1.415 . S
C1104 C1109 1.425 . S
C1104 C1111 1.409 . S
C1105 H1097 0.930 . S
C1105 C1103 1.419 . S
C1105 C1106 1.362 1_556 S
C1106 H1098 0.930 . S
C1106 C1105 1.362 1_554 S
C1106 C1109 1.409 . S
C1107 H1099 0.930 . S
C1107 C1108 1.355 . S
C1107 C1109 1.415 . S
C1108 C1107 1.355 . S
C1108 C1110 1.419 . S
C1109 C1104 1.425 . S
C1109 C1106 1.409 . S
C1109 C1107 1.415 . S
C1110 H1100 0.930 . S
C1110 C1108 1.419 . S
C1110 C1111 1.362 . S
C1111 H1101 0.930 . S
C1111 C1104 1.409 . S
C1111 C1110 1.362 . S
H1112 C1118 0.930 . S
H1113 C1121 0.930 . S
H1114 C1122 0.930 . S
H1115 C1123 0.930 . S
H1116 C1126 0.930 . S
H1117 C1127 0.930 . S
C1118 H1112 0.930 . S
C1118 C1119 1.355 . S
C1118 C1120 1.415 . S
C1119 C1118 1.355 . S
C1119 C1121 1.419 . S
C1120 C1118 1.415 . S
C1120 C1125 1.425 . S
C1120 C1127 1.409 . S
C1121 H1113 0.930 . S
C1121 C1119 1.419 . S
C1121 C1122 1.362 . S
C1122 H1114 0.930 . S
C1122 C1121 1.362 . S
C1122 C1125 1.409 . S
C1123 H1115 0.930 . S
C1123 C1124 1.355 . S
C1123 C1125 1.415 . S
C1124 C1123 1.355 . S
C1124 C1126 1.419 . S
C1125 C1120 1.425 . S
C1125 C1122 1.409 . S
C1125 C1123 1.415 . S
C1126 H1116 0.930 . S
C1126 C1124 1.419 . S
C1126 C1127 1.362 . S
C1127 H1117 0.930 . S
C1127 C1120 1.409 . S
C1127 C1126 1.362 . S
H1128 C1134 0.930 . S
H1129 C1137 0.930 . S
H1130 C1138 0.930 . S
H1131 C1139 0.930 . S
H1132 C1142 0.930 . S
H1133 C1143 0.930 . S
C1134 H1128 0.930 . S
C1134 C1135 1.355 . S
C1134 C1136 1.415 . S
C1135 C1134 1.355 . S
C1135 C1137 1.419 . S
C1136 C1134 1.415 . S
C1136 C1141 1.425 . S
C1136 C1143 1.409 . S
C1137 H1129 0.930 . S
C1137 C1135 1.419 . S
C1137 C1138 1.362 . S
C1138 H1130 0.930 . S
C1138 C1137 1.362 . S
C1138 C1141 1.409 . S
C1139 H1131 0.930 . S
C1139 C1140 1.355 . S
C1139 C1141 1.415 . S
C1140 C1139 1.355 . S
C1140 C1142 1.419 . S
C1141 C1136 1.425 . S
C1141 C1138 1.409 . S
C1141 C1139 1.415 . S
C1142 H1132 0.930 . S
C1142 C1140 1.419 . S
C1142 C1143 1.362 . S
C1143 H1133 0.930 . S
C1143 C1136 1.409 . S
C1143 C1142 1.362 . S
H1144 C1150 0.930 . S
H1145 C1153 0.930 . S
H1146 C1154 0.930 . S
H1147 C1155 0.930 . S
H1148 C1158 0.930 . S
H1149 C1159 0.930 . S
C1150 H1144 0.930 . S
C1150 C1151 1.355 . S
C1150 C1152 1.415 . S
C1151 C1150 1.355 . S
C1151 C1153 1.419 . S
C1152 C1150 1.415 . S
C1152 C1157 1.425 . S
C1152 C1159 1.409 . S
C1153 H1145 0.930 . S
C1153 C1151 1.419 . S
C1153 C1154 1.362 . S
C1154 H1146 0.930 . S
C1154 C1153 1.362 . S
C1154 C1157 1.409 . S
C1155 H1147 0.930 . S
C1155 C1156 1.355 . S
C1155 C1157 1.415 . S
C1156 C1155 1.355 . S
C1156 C1158 1.419 . S
C1157 C1152 1.425 . S
C1157 C1154 1.409 . S
C1157 C1155 1.415 . S
C1158 H1148 0.930 . S
C1158 C1156 1.419 . S
C1158 C1159 1.362 . S
C1159 H1149 0.930 . S
C1159 C1152 1.409 . S
C1159 C1158 1.362 . S
H1160 C1166 0.930 . S
H1161 C1169 0.930 . S
H1162 C1170 0.930 . S
H1163 C1171 0.930 . S
H1164 C1174 0.930 . S
H1165 C1175 0.930 . S
C1166 H1160 0.930 . S
C1166 C1167 1.355 . S
C1166 C1168 1.415 . S
C1167 C1166 1.355 . S
C1167 C1169 1.419 . S
C1168 C1166 1.415 . S
C1168 C1173 1.425 . S
C1168 C1175 1.409 . S
C1169 H1161 0.930 . S
C1169 C1167 1.419 . S
C1169 C1170 1.362 . S
C1170 H1162 0.930 . S
C1170 C1169 1.362 . S
C1170 C1173 1.409 . S
C1171 H1163 0.930 . S
C1171 C1172 1.355 . S
C1171 C1173 1.415 . S
C1172 C1171 1.355 . S
C1172 C1174 1.419 . S
C1173 C1168 1.425 . S
C1173 C1170 1.409 . S
C1173 C1171 1.415 . S
C1174 H1164 0.930 . S
C1174 C1172 1.419 . S
C1174 C1175 1.362 . S
C1175 H1165 0.930 . S
C1175 C1168 1.409 . S
C1175 C1174 1.362 . S
H1176 C1182 0.930 . S
H1177 C1185 0.930 . S
H1178 C1186 0.930 . S
H1179 C1187 0.930 . S
H1180 C1190 0.930 . S
H1181 C1191 0.930 . S
C1182 H1176 0.930 . S
C1182 C1183 1.355 . S
C1182 C1184 1.415 . S
C1183 C1182 1.355 . S
C1183 C1185 1.419 . S
C1184 C1182 1.415 . S
C1184 C1189 1.425 . S
C1184 C1191 1.409 . S
C1185 H1177 0.930 . S
C1185 C1183 1.419 . S
C1185 C1186 1.362 . S
C1186 H1178 0.930 . S
C1186 C1185 1.362 . S
C1186 C1189 1.409 . S
C1187 H1179 0.930 . S
C1187 C1188 1.355 . S
C1187 C1189 1.415 . S
C1188 C1187 1.355 . S
C1188 C1190 1.419 . S
C1189 C1184 1.425 . S
C1189 C1186 1.409 . S
C1189 C1187 1.415 . S
C1190 H1180 0.930 . S
C1190 C1188 1.419 . S
C1190 C1191 1.362 . S
C1191 H1181 0.930 . S
C1191 C1184 1.409 . S
C1191 C1190 1.362 . S
H1192 C1198 0.930 . S
H1193 C1201 0.930 . S
H1194 C1202 0.930 . S
H1195 C1203 0.930 . S
H1196 C1206 0.930 . S
H1197 C1207 0.930 . S
C1198 H1192 0.930 . S
C1198 C1199 1.355 . S
C1198 C1200 1.415 . S
C1199 C1198 1.355 . S
C1199 C1201 1.419 . S
C1200 C1198 1.415 . S
C1200 C1205 1.425 . S
C1200 C1207 1.409 . S
C1201 H1193 0.930 . S
C1201 C1199 1.419 . S
C1201 C1202 1.362 . S
C1202 H1194 0.930 . S
C1202 C1201 1.362 . S
C1202 C1205 1.409 . S
C1203 H1195 0.930 . S
C1203 C1204 1.355 . S
C1203 C1205 1.415 . S
C1204 C1203 1.355 . S
C1204 C1206 1.419 . S
C1205 C1200 1.425 . S
C1205 C1202 1.409 . S
C1205 C1203 1.415 . S
C1206 H1196 0.930 . S
C1206 C1204 1.419 . S
C1206 C1207 1.362 . S
C1207 H1197 0.930 . S
C1207 C1200 1.409 . S
C1207 C1206 1.362 . S
H1208 C1214 0.930 . S
H1209 C1217 0.930 . S
H1210 C1218 0.930 . S
H1211 C1219 0.930 . S
H1212 C1222 0.930 . S
H1213 C1223 0.930 . S
C1214 H1208 0.930 . S
C1214 C1215 1.355 . S
C1214 C1216 1.415 . S
C1215 C1214 1.355 . S
C1215 C1217 1.419 . S
C1216 C1214 1.415 . S
C1216 C1221 1.425 . S
C1216 C1223 1.409 . S
C1217 H1209 0.930 . S
C1217 C1215 1.419 . S
C1217 C1218 1.362 . S
C1218 H1210 0.930 . S
C1218 C1217 1.362 . S
C1218 C1221 1.409 . S
C1219 H1211 0.930 . S
C1219 C1220 1.355 . S
C1219 C1221 1.415 . S
C1220 C1219 1.355 . S
C1220 C1222 1.419 . S
C1221 C1216 1.425 . S
C1221 C1218 1.409 . S
C1221 C1219 1.415 . S
C1222 H1212 0.930 . S
C1222 C1220 1.419 . S
C1222 C1223 1.362 . S
C1223 H1213 0.930 . S
C1223 C1216 1.409 . S
C1223 C1222 1.362 . S
H1224 C1230 0.930 . S
H1225 C1233 0.930 . S
H1226 C1234 0.930 . S
H1227 C1235 0.930 . S
H1228 C1238 0.945 . S
H1229 C1239 0.930 . S
C1230 H1224 0.930 . S
C1230 C1231 1.355 . S
C1230 C1232 1.415 . S
C1231 C1230 1.355 . S
C1231 C1233 1.419 . S
C1232 C1230 1.415 . S
C1232 C1237 1.425 . S
C1232 C1239 1.409 . S
C1233 H1225 0.930 . S
C1233 C1231 1.419 . S
C1233 C1234 1.362 . S
C1234 H1226 0.930 . S
C1234 C1233 1.362 . S
C1234 C1237 1.409 . S
C1235 H1227 0.930 . S
C1235 C1236 1.355 . S
C1235 C1237 1.415 . S
C1236 C1235 1.355 . S
C1236 C1238 1.419 . S
C1237 C1232 1.425 . S
C1237 C1234 1.409 . S
C1237 C1235 1.415 . S
C1238 H1228 0.945 . S
C1238 C1236 1.419 . S
C1238 C1239 1.362 . S
C1239 H1229 0.930 . S
C1239 C1232 1.409 . S
C1239 C1238 1.362 . S
C484 C312 1.989 . S
C479 C101 2.000 . S
C500 C327 1.545 . S
C495 C125 1.482 . S
C511 C139 2.164 . S
C516 C340 2.146 . S
C532 C354 1.695 . S
C527 C82 1.711 . S
C548 C366 1.742 . S
C543 C196 1.911 . S
C564 C380 1.615 . S
C559 C234 1.625 . S
C575 C220 1.146 . S
C580 C394 1.214 . S
C596 C409 1.544 . S
C591 C173 1.582 . S
C607 C211 1.475 . S
C612 C425 1.422 . S
C628 C438 1.209 . S
C623 C182 1.011 . S
C639 C201 1.514 . S
C644 C423 1.604 . S
C660 C436 1.669 . S
C655 C239 1.709 . S
C671 C135 1.994 . S
C676 C452 2.008 . S
C687 C87 1.827 . S
C692 C451 1.812 . S
C703 C106 1.271 . S
C708 C450 1.433 . S
C719 C116 1.394 . S
C724 C453 1.406 . S
C735 C59 2.071 . S
C740 C355 2.063 1_565 S
C751 C268 1.991 . S
C756 C353 1.982 . S
C772 C313 1.224 . S
C767 C291 1.284 . S
C788 C324 1.644 . S
C783 C163 1.613 . S
C799 C78 1.844 . S
C804 C369 1.845 . S
C820 C410 1.629 . S
C815 C215 1.634 . S
C836 C367 1.943 . S
C831 C177 1.929 . S
C852 C395 1.674 . S
C847 C230 1.681 . S
C868 C396 1.988 . S
C863 C272 1.996 . S
C879 C296 1.516 . S
C884 C411 1.488 . S
C895 C158 2.164 . S
C900 C368 2.129 . S
C916 C382 1.649 . S
C911 C253 1.682 . S
C927 C63 1.924 . S
C932 C338 1.752 . S
C948 C352 1.617 . S
C943 C6 1.627 . S
C964 C310 1.220 . S
C959 C30 1.174 . S
C980 C325 1.507 . S
C975 C40 1.584 . S
C991 C21 1.450 . S
C996 C439 1.374 . S
C1007 C49 1.050 . S
C1012 C424 1.222 . S
C1023 C68 1.445 . S
C1028 C437 1.550 . S
C1039 C11 1.697 . S
C1044 C422 1.675 . S
C1060 C466 1.987 . S
C1055 C154 2.010 . S
C1076 C465 1.844 . S
C1071 C258 1.764 1_554 S
C1092 C464 1.463 . S
C1087 C277 1.330 . S
C1103 C287 1.399 . S
C1108 C467 1.412 . S
C1119 C192 2.058 . S
C1124 C383 2.051 . S
C1140 C381 1.977 . S
C1135 C97 1.991 . S
C1156 C397 1.178 . S
C1151 C120 1.256 . S
C1172 C408 1.680 . S
C1167 C144 1.615 . S
C1183 C249 1.824 . S
C1188 C341 1.833 . S
C1204 C326 1.636 . S
C1199 C25 1.632 . S
C1215 C44 1.921 . S
C1220 C339 1.922 . S
C1236 C311 1.645 1_545 S
C1231 C2 1.699 . S
