# Generated by pormake.
# Topology zzz, (3,6)-cn, num edge types: 1
# Building blocks:
#     Node 0, Type 0, BuildingBlock: CUQRIR_clean_linker_1, # of connection points: 3
#     Node 1, Type 0, BuildingBlock: CUQRIR_clean_linker_1, # of connection points: 3
#     Node 2, Type 0, BuildingBlock: CUQRIR_clean_linker_1, # of connection points: 3
#     Node 3, Type 0, BuildingBlock: CUQRIR_clean_linker_1, # of connection points: 3
#     Node 4, Type 0, BuildingBlock: CUQRIR_clean_linker_1, # of connection points: 3
#     Node 5, Type 0, BuildingBlock: CUQRIR_clean_linker_1, # of connection points: 3
#     Node 6, Type 0, BuildingBlock: CUQRIR_clean_linker_1, # of connection points: 3
#     Node 7, Type 0, BuildingBlock: CUQRIR_clean_linker_1, # of connection points: 3
#     Node 8, Type 1, BuildingBlock: JUFBIX_clean_sbu_0, # of connection points: 6
#     Node 9, Type 1, BuildingBlock: JUFBIX_clean_sbu_0, # of connection points: 6
#     Node 10, Type 1, BuildingBlock: JUFBIX_clean_sbu_0, # of connection points: 6
#     Node 11, Type 1, BuildingBlock: JUFBIX_clean_sbu_0, # of connection points: 6
#     Edge 12, Type (0, 1), BuildingBlock: OJICUG_clean_linker_0, # of connection points: 2
#     Edge 13, Type (0, 1), BuildingBlock: OJICUG_clean_linker_0, # of connection points: 2
#     Edge 14, Type (0, 1), BuildingBlock: OJICUG_clean_linker_0, # of connection points: 2
#     Edge 15, Type (0, 1), BuildingBlock: OJICUG_clean_linker_0, # of connection points: 2
#     Edge 16, Type (0, 1), BuildingBlock: OJICUG_clean_linker_0, # of connection points: 2
#     Edge 17, Type (0, 1), BuildingBlock: OJICUG_clean_linker_0, # of connection points: 2
#     Edge 18, Type (0, 1), BuildingBlock: OJICUG_clean_linker_0, # of connection points: 2
#     Edge 19, Type (0, 1), BuildingBlock: OJICUG_clean_linker_0, # of connection points: 2
#     Edge 20, Type (0, 1), BuildingBlock: OJICUG_clean_linker_0, # of connection points: 2
#     Edge 21, Type (0, 1), BuildingBlock: OJICUG_clean_linker_0, # of connection points: 2
#     Edge 22, Type (0, 1), BuildingBlock: OJICUG_clean_linker_0, # of connection points: 2
#     Edge 23, Type (0, 1), BuildingBlock: OJICUG_clean_linker_0, # of connection points: 2
#     Edge 24, Type (0, 1), BuildingBlock: OJICUG_clean_linker_0, # of connection points: 2
#     Edge 25, Type (0, 1), BuildingBlock: OJICUG_clean_linker_0, # of connection points: 2
#     Edge 26, Type (0, 1), BuildingBlock: OJICUG_clean_linker_0, # of connection points: 2
#     Edge 27, Type (0, 1), BuildingBlock: OJICUG_clean_linker_0, # of connection points: 2
#     Edge 28, Type (0, 1), BuildingBlock: OJICUG_clean_linker_0, # of connection points: 2
#     Edge 29, Type (0, 1), BuildingBlock: OJICUG_clean_linker_0, # of connection points: 2
#     Edge 30, Type (0, 1), BuildingBlock: OJICUG_clean_linker_0, # of connection points: 2
#     Edge 31, Type (0, 1), BuildingBlock: OJICUG_clean_linker_0, # of connection points: 2
#     Edge 32, Type (0, 1), BuildingBlock: OJICUG_clean_linker_0, # of connection points: 2
#     Edge 33, Type (0, 1), BuildingBlock: OJICUG_clean_linker_0, # of connection points: 2
#     Edge 34, Type (0, 1), BuildingBlock: OJICUG_clean_linker_0, # of connection points: 2
#     Edge 35, Type (0, 1), BuildingBlock: OJICUG_clean_linker_0, # of connection points: 2
# Relax obj value: 0.126
# Max RMSD: 0.173
# Mean RMSD: 0.097
data_MOF--net-zzz--node1-JUFBIX_clean_sbu_0--node2-CUQRIR_clean_linker_1--edge1-OJICUG_clean_linker_0
_symmetry_space_group_name_H-M    P1
_symmetry_Int_Tables_number       1
_symmetry_cell_setting            triclinic
loop_
_symmetry_equiv_pos_as_xyz
'x, y, z'
_cell_length_a     34.749448
_cell_length_b     34.525034
_cell_length_c     11.432998
_cell_angle_alpha  76.785049
_cell_angle_beta   89.942723
_cell_angle_gamma 91.25165
loop_
_atom_site_label
_atom_site_type_symbol
_atom_site_fract_x
_atom_site_fract_y
_atom_site_fract_z
_atom_type_partial_charge
C0 C 0.81646 0.5055 0.35649 0.0
N1 N 0.85379 0.49508 0.37422 0.0
N2 N 0.80306 0.49638 0.25448 0.0
C3 C 0.79376 0.52638 0.43428 0.0
C4 C 0.83352 0.48013 0.21119 0.0
N5 N 0.86437 0.47926 0.28376 0.0
C6 C 0.83456 0.46963 0.09024 0.0
H7 H 0.80342 0.51768 0.52897 0.0
H8 H 0.76255 0.5195 0.42909 0.0
H9 H 0.79837 0.55897 0.40174 0.0
H10 H 0.80572 0.47067 0.04843 0.0
H11 H 0.84559 0.43919 0.09998 0.0
H12 H 0.85449 0.49058 0.02955 0.0
C13 C 0.04449 0.74894 0.3619 0.0
N14 N 0.05373 0.78645 0.37111 0.0
N15 N 0.05898 0.74199 0.25868 0.0
C16 C 0.01827 0.72058 0.44638 0.0
C17 C 0.07701 0.77671 0.20589 0.0
N18 N 0.07316 0.80407 0.27248 0.0
C19 C 0.09156 0.78639 0.07813 0.0
H20 H 0.01978 0.72612 0.53816 0.0
H21 H 0.026 0.68939 0.44867 0.0
H22 H 0.98825 0.72489 0.41382 0.0
H23 H 0.06767 0.7985 0.01719 0.0
H24 H 0.1021 0.75931 0.05272 0.0
H25 H 0.11509 0.80922 0.06631 0.0
C26 C 0.80216 0.01931 0.20707 0.0
N27 N 0.76337 0.02286 0.19939 0.0
N28 N 0.81854 0.0291 0.09592 0.0
C29 C 0.82372 1.00297 0.32065 0.0
C30 C 0.78828 0.03869 0.02113 0.0
N31 N 0.75484 0.03474 0.08368 0.0
C32 C 0.79153 0.05249 0.88672 0.0
H33 H 0.8426 0.02685 0.34126 0.0
H34 H 0.84254 0.97872 0.30755 0.0
H35 H 0.80395 0.99163 0.39769 0.0
H36 H 0.79101 0.02625 0.84596 0.0
H37 H 0.81909 0.06915 0.86112 0.0
H38 H 0.76712 0.07167 0.85015 0.0
C39 C 0.53376 0.7507 0.23097 0.0
N40 N 0.53035 0.71116 0.23535 0.0
N41 N 0.52788 0.77234 0.11737 0.0
C42 C 0.54272 0.76828 0.33681 0.0
C43 C 0.52054 0.7443 0.05361 0.0
N44 N 0.52181 0.70729 0.12545 0.0
C45 C 0.51316 0.75297 0.92059 0.0
H46 H 0.51537 0.77647 0.37407 0.0
H47 H 0.56089 0.79567 0.30856 0.0
H48 H 0.55746 0.74684 0.40884 0.0
H49 H 0.54083 0.75226 0.87272 0.0
H50 H 0.50054 0.78275 0.88882 0.0
H51 H 0.49344 0.73026 0.8973 0.0
C52 C 0.2582 0.52685 0.27112 0.0
N53 N 0.22089 0.5373 0.25321 0.0
N54 N 0.27156 0.53598 0.37314 0.0
C55 C 0.2809 0.50591 0.19352 0.0
C56 C 0.24111 0.55228 0.41626 0.0
N57 N 0.21028 0.55316 0.34358 0.0
C58 C 0.24003 0.5628 0.53717 0.0
H59 H 0.27626 0.47332 0.22617 0.0
H60 H 0.31212 0.51276 0.19878 0.0
H61 H 0.27127 0.51458 0.09878 0.0
H62 H 0.22896 0.59323 0.52739 0.0
H63 H 0.26887 0.5618 0.579 0.0
H64 H 0.22011 0.54184 0.59787 0.0
C65 C 0.03043 0.28278 0.26712 0.0
N66 N 0.02111 0.24527 0.25803 0.0
N67 N 0.01607 0.28975 0.37047 0.0
C68 C 0.05657 0.31113 0.18228 0.0
C69 C 0.99806 0.25505 0.42349 0.0
N70 N 1.00175 0.2277 0.35683 0.0
C71 C 0.98363 0.24541 0.55139 0.0
H72 H 0.08662 0.30683 0.21452 0.0
H73 H 0.04886 0.34233 0.18001 0.0
H74 H 0.05494 0.30557 0.09055 0.0
H75 H 0.95997 0.22271 0.56333 0.0
H76 H 0.9733 0.27252 0.57707 0.0
H77 H 1.00752 0.23312 0.61206 0.0
C78 C 0.272 1.01238 0.42162 0.0
N79 N 0.31079 1.00886 0.42927 0.0
N80 N 0.25562 1.00257 0.53278 0.0
C81 C 0.25042 0.02871 0.30806 0.0
C82 C 0.2859 0.99301 0.60755 0.0
N83 N 0.31933 0.997 0.54498 0.0
C84 C 0.28266 0.97922 0.74196 0.0
H85 H 0.23168 0.05304 0.32109 0.0
H86 H 0.23145 1.00486 0.28769 0.0
H87 H 0.27017 0.03995 0.23092 0.0
H88 H 0.25511 0.96254 0.76759 0.0
H89 H 0.28315 1.00546 0.7827 0.0
H90 H 0.30709 0.96006 0.77854 0.0
C91 C 0.54052 0.28124 0.39767 0.0
N92 N 0.54396 0.32078 0.3933 0.0
N93 N 0.54637 0.2596 0.51128 0.0
C94 C 0.53155 0.26367 0.29182 0.0
C95 C 0.55373 0.28763 0.57506 0.0
N96 N 0.5525 0.32464 0.50321 0.0
C97 C 0.56109 0.27895 0.70808 0.0
H98 H 0.51682 0.28513 0.21979 0.0
H99 H 0.51336 0.23629 0.32005 0.0
H100 H 0.5589 0.25547 0.25458 0.0
H101 H 0.57369 0.24916 0.73987 0.0
H102 H 0.53341 0.27968 0.75592 0.0
H103 H 0.58081 0.30165 0.73142 0.0
Co104 Co 0.04951 0.0352 0.87049 0.0
C105 C 0.97083 0.01755 0.91114 0.0
Co106 Co 0.02469 0.99644 0.75843 0.0
C107 C 0.05032 0.10537 0.96437 0.0
C108 C 0.10157 0.07244 0.01257 0.0
N109 N 0.06815 0.07204 0.95319 0.0
N110 N 0.07103 0.12666 0.02887 0.0
C111 C 0.1034 0.1059 0.05936 0.0
H112 H 0.02254 0.11375 0.92526 0.0
H113 H 0.12302 0.0497 0.02214 0.0
C114 C 0.10336 1.01408 0.71776 0.0
N115 N 1.00607 0.95958 0.67573 0.0
C116 C 0.02395 0.92626 0.66464 0.0
C117 C 0.97269 0.95915 0.61616 0.0
N118 N 1.00332 0.90496 0.59997 0.0
C119 C 0.97094 0.9257 0.56932 0.0
C120 C 0.02017 0.07359 0.64587 0.0
O121 O 0.09873 0.03365 0.79834 0.0
O122 O 0.07464 0.99526 0.68688 0.0
O123 O 1.01125 0.03929 0.6304 0.0
O124 O 0.03641 0.07728 0.74219 0.0
O125 O 0.97546 0.99799 0.83053 0.0
H126 H 0.95122 0.98188 0.60644 0.0
H127 H 0.05172 0.91791 0.70388 0.0
O128 O 0.99956 0.03636 0.94208 0.0
O129 O 0.06296 0.99234 0.99849 0.0
O130 O 0.03777 0.95435 0.88675 0.0
C131 C 0.05403 0.95804 0.98305 0.0
H132 H 0.1263 0.11354 0.11464 0.0
H133 H 0.94809 0.91805 0.51386 0.0
Co134 Co 0.52335 0.02255 0.89515 0.0
C135 C 0.53501 0.94166 0.91622 0.0
Co136 Co 0.5508 1.00937 0.73341 0.0
C137 C 0.46006 0.02183 0.0608 0.0
C138 C 0.50654 0.05989 0.09122 0.0
N139 N 0.49626 0.03411 0.02379 0.0
N140 N 0.44703 0.03932 0.14727 0.0
C141 C 0.47655 0.06304 0.16719 0.0
H142 H 0.44309 1.00145 0.02169 0.0
H143 H 0.5337 0.07623 0.08337 0.0
C144 C 0.53915 0.09027 0.71234 0.0
N145 N 0.57789 0.99781 0.60477 0.0
C146 C 0.6141 1.01005 0.5678 0.0
C147 C 0.56757 0.97205 0.5373 0.0
N148 N 0.62711 0.99256 0.48131 0.0
C149 C 0.59756 0.96888 0.46134 0.0
C150 C 0.47263 1.0085 0.71766 0.0
O151 O 0.52513 0.07775 0.81752 0.0
O152 O 0.5525 0.06519 0.65737 0.0
O153 O 0.5025 1.00342 0.65904 0.0
O154 O 0.4763 0.01696 0.81927 0.0
O155 O 0.54903 0.95418 0.81104 0.0
H156 H 0.5404 0.95575 0.5451 0.0
H157 H 0.63109 0.0304 0.60694 0.0
O158 O 0.52166 0.96674 0.97119 0.0
O159 O 0.57166 0.02851 0.96952 0.0
O160 O 0.59785 1.01497 0.80928 0.0
C161 C 0.60152 0.02341 0.9109 0.0
H162 H 0.47664 0.08162 0.2316 0.0
H163 H 0.59745 0.9503 0.3969 0.0
Co164 Co 0.56882 0.51894 0.82036 0.0
C165 C 0.53574 0.45787 0.99904 0.0
Co166 Co 0.50557 0.51301 0.80828 0.0
C167 C 0.64025 0.5198 0.94686 0.0
C168 C 0.64916 0.53468 0.75634 0.0
N169 N 0.62149 0.52434 0.84114 0.0
N170 N 0.67846 0.527 0.93158 0.0
C171 C 0.68418 0.53644 0.81163 0.0
H172 H 0.62604 0.51186 0.03362 0.0
H173 H 0.64419 0.54054 0.66057 0.0
C174 C 0.53864 0.57408 0.6296 0.0
N175 N 0.4529 0.50762 0.78745 0.0
C176 C 0.43418 0.51219 0.68166 0.0
C177 C 0.4252 0.4973 0.87215 0.0
N178 N 0.39596 0.50505 0.6968 0.0
C179 C 0.3902 0.4956 0.81673 0.0
C180 C 0.5274 0.56639 0.94237 0.0
O181 O 0.57019 0.56237 0.68081 0.0
O182 O 0.50754 0.55594 0.67035 0.0
O183 O 0.49777 0.55049 0.90546 0.0
O184 O 0.56061 0.55583 0.91698 0.0
O185 O 0.50419 0.46958 0.94781 0.0
H186 H 0.43014 0.49143 0.96793 0.0
H187 H 0.44842 0.52013 0.59496 0.0
O188 O 0.56685 0.47601 0.95832 0.0
O189 O 0.57662 0.48144 0.72319 0.0
O190 O 0.51378 0.47613 0.71165 0.0
C191 C 0.54698 0.46556 0.68627 0.0
H192 H 0.71181 0.54327 0.767 0.0
H193 H 0.36254 0.48881 0.86125 0.0
Co194 Co 0.03228 0.54802 0.80658 0.0
C195 C 0.09943 0.51672 0.93314 0.0
Co196 Co 0.04242 0.4843 0.8209 0.0
C197 C 0.03135 0.60962 0.93173 0.0
C198 C 1.01202 0.63219 0.75195 0.0
N199 N 0.0247 0.59899 0.82692 0.0
N200 N 0.02363 0.648 0.92607 0.0
C201 C 1.01127 0.66247 0.81294 0.0
H202 H 0.0414 0.58925 0.01181 0.0
H203 H 1.00404 0.63428 0.65931 0.0
C204 C 0.97528 0.5156 0.69431 0.0
N205 N 0.05002 0.43332 0.80069 0.0
C206 C 0.04345 0.42261 0.69595 0.0
C207 C 0.06269 0.40016 0.87591 0.0
N208 N 0.05121 0.38423 0.70189 0.0
C209 C 0.06351 0.36983 0.81514 0.0
C210 C 0.99892 0.49234 1.00585 0.0
O211 O 0.98559 0.54886 0.716 0.0
O212 O 0.99607 0.48558 0.73217 0.0
O213 O 1.01384 0.46487 0.96469 0.0
O214 O 1.00412 0.52832 0.94991 0.0
O215 O 0.0891 0.48345 0.91155 0.0
H216 H 0.0706 0.39814 0.96856 0.0
H217 H 0.03342 0.44293 0.61574 0.0
O218 O 0.07864 0.54673 0.89522 0.0
O219 O 0.06083 0.56744 0.66277 0.0
O220 O 0.07059 0.504 0.67759 0.0
C221 C 0.07577 0.53998 0.62162 0.0
H222 H 1.00313 0.69289 0.7761 0.0
H223 H 0.07166 0.33943 0.85222 0.0
C224 C 0.20956 0.03365 0.64498 0.0
C225 C 0.21663 1.00826 0.56782 0.0
H226 H 0.16861 0.05534 0.75283 0.0
C227 C 0.1858 0.98629 0.53424 0.0
H228 H 0.2329 0.05116 0.67092 0.0
C229 C 0.14872 0.98861 0.58094 0.0
C230 C 0.14192 1.01298 0.66207 0.0
H231 H 0.19073 0.96636 0.47538 0.0
H232 H 0.12562 0.97063 0.55573 0.0
C233 C 0.17274 0.03594 0.69179 0.0
C234 C 0.56467 0.19092 0.50539 0.0
C235 C 0.54313 0.21692 0.55651 0.0
H236 H 0.58029 0.13045 0.51385 0.0
C237 C 0.51926 0.2008 0.65562 0.0
H238 H 0.58352 0.20261 0.42953 0.0
C239 C 0.51789 0.15979 0.70531 0.0
C240 C 0.53991 0.13367 0.65589 0.0
H241 H 0.50183 0.22009 0.69531 0.0
H242 H 0.49951 0.14856 0.78277 0.0
C243 C 0.56293 0.14967 0.55413 0.0
C244 C 0.34019 0.54519 0.41516 0.0
C245 C 0.30585 0.5227 0.43911 0.0
H246 H 0.39622 0.55713 0.47929 0.0
C247 C 0.30308 0.49174 0.54253 0.0
H248 H 0.34247 0.56964 0.33679 0.0
C249 C 0.33324 0.48497 0.62492 0.0
C250 C 0.36695 0.50884 0.60486 0.0
H251 H 0.27653 0.47447 0.56283 0.0
H252 H 0.32976 0.46184 0.70617 0.0
C253 C 0.37069 0.53813 0.49699 0.0
C254 C 1.00821 0.35179 0.43723 0.0
C255 C 0.0299 0.31832 0.43493 0.0
H256 H 0.99775 0.39897 0.52525 0.0
C257 C 0.06046 0.30837 0.51567 0.0
H258 H 0.98397 0.3592 0.37742 0.0
C259 C 0.06807 0.33046 0.60175 0.0
C260 C 0.04539 0.36312 0.60783 0.0
H261 H 0.07692 0.28204 0.51627 0.0
H262 H 0.09111 0.3215 0.66512 0.0
C263 C 0.01602 0.37421 0.52243 0.0
C264 C 0.8646 0.99804 0.98368 0.0
C265 C 0.85754 0.02341 0.06092 0.0
H266 H 0.90557 0.97636 0.87583 0.0
C267 C 0.88838 0.04533 0.09464 0.0
H268 H 0.84126 0.98055 0.95764 0.0
C269 C 0.92546 0.043 0.04799 0.0
C270 C 0.93226 0.01866 0.96679 0.0
H271 H 0.88345 0.06524 0.15357 0.0
H272 H 0.94857 0.06095 0.07331 0.0
C273 C 0.90143 0.99573 0.93693 0.0
C274 C 0.50954 0.84101 0.12324 0.0
C275 C 0.53109 0.81502 0.07212 0.0
H276 H 0.49389 0.90147 0.11475 0.0
C277 C 0.55496 0.83115 0.97299 0.0
H278 H 0.4907 0.82931 0.19911 0.0
C279 C 0.5563 0.87215 0.92327 0.0
C280 C 0.53426 0.89826 0.97269 0.0
H281 H 0.57239 0.81186 0.9333 0.0
H282 H 0.57467 0.88339 0.8458 0.0
C283 C 0.51125 0.88225 0.07447 0.0
C284 C 0.73443 0.487 0.2129 0.0
C285 C 0.76871 0.50958 0.18876 0.0
H286 H 0.67839 0.47493 0.14909 0.0
C287 C 0.77137 0.54056 0.08535 0.0
H288 H 0.73224 0.46255 0.29126 0.0
C289 C 0.74115 0.54725 1.00314 0.0
C290 C 0.7075 0.52329 0.02338 0.0
H291 H 0.79788 0.5579 0.0649 0.0
H292 H 0.74455 0.57039 0.92188 0.0
C293 C 0.70388 0.49399 0.13126 0.0
C294 C 1.01452 0.72355 0.11337 0.0
C295 C 0.04514 0.71353 0.19385 0.0
H296 H 0.98377 0.71062 0.96382 0.0
C297 C 0.06686 0.68014 0.19092 0.0
H298 H 0.99805 0.74984 0.11324 0.0
C299 C 0.05899 0.65785 0.10542 0.0
C300 C 0.02955 0.66901 0.02032 0.0
H301 H 0.09114 0.67267 0.25051 0.0
H302 H 0.07727 0.63313 0.10214 0.0
C303 C 1.00687 0.70161 0.02697 0.0
C304 C 0.97417 0.16003 0.43615 0.0
C305 C 1.006 0.18634 0.41174 0.0
H306 H 0.95391 0.10177 0.52979 0.0
C307 C 0.04258 0.17336 0.45167 0.0
H308 H 0.94578 0.17001 0.40602 0.0
C309 C 0.04721 0.13529 0.52124 0.0
C310 C 0.01532 0.10945 0.55138 0.0
H311 H 0.06722 0.19366 0.43416 0.0
H312 H 0.07549 0.12661 0.55647 0.0
C313 C 0.97887 0.12133 0.50559 0.0
C314 C 0.38721 0.9763 0.55452 0.0
C315 C 0.35755 0.99752 0.59323 0.0
H316 H 0.44762 0.96391 0.56099 0.0
C317 C 0.36617 0.02238 0.6712 0.0
H318 H 0.38101 0.95682 0.4947 0.0
C319 C 0.40366 0.02579 0.71082 0.0
C320 C 0.43355 1.00513 0.67096 0.0
H321 H 0.34399 0.0399 0.69923 0.0
H322 H 0.40937 0.04522 0.77133 0.0
C323 C 0.42513 0.98046 0.59192 0.0
C324 C 0.51831 0.38278 0.53508 0.0
C325 C 0.55242 0.36165 0.54092 0.0
H326 H 0.48994 0.43255 0.5749 0.0
C327 C 0.58596 0.37677 0.58413 0.0
H328 H 0.49232 0.3716 0.50081 0.0
C329 C 0.5849 0.41181 0.62627 0.0
C330 C 0.55019 0.43211 0.62575 0.0
H331 H 0.61268 0.36102 0.58712 0.0
H332 H 0.61084 0.42217 0.6631 0.0
C333 C 0.51712 0.41761 0.57726 0.0
C334 C 0.15754 0.58796 0.41965 0.0
C335 C 0.1711 0.55454 0.38295 0.0
H336 H 0.11561 0.60989 0.52515 0.0
C337 C 0.14836 0.51965 0.40379 0.0
H338 H 0.17449 0.61537 0.40225 0.0
C339 C 0.11461 0.51673 0.47072 0.0
C340 C 0.10338 0.5484 0.52055 0.0
H341 H 0.1584 0.49344 0.37736 0.0
H342 H 0.09912 0.48838 0.492 0.0
C343 C 0.1238 0.5849 0.48877 0.0
C344 C 0.1003 0.87196 0.19368 0.0
C345 C 0.06867 0.84537 0.21731 0.0
H346 H 0.12023 0.93041 0.10062 0.0
C347 C 0.03208 0.85802 0.17648 0.0
H348 H 0.1287 0.86224 0.22455 0.0
C349 C 0.02727 0.89604 0.10677 0.0
C350 C 0.05898 0.92216 0.07743 0.0
H351 H 1.00759 0.83751 0.19346 0.0
H352 H 0.99901 0.90445 0.07091 0.0
C353 C 0.09541 0.91062 0.12415 0.0
C354 C 0.70797 1.00943 0.95741 0.0
C355 C 0.71662 0.03426 0.03541 0.0
H356 H 0.66475 0.98664 0.85723 0.0
C357 C 0.68698 0.05551 0.07413 0.0
H358 H 0.73013 0.99188 0.92937 0.0
C359 C 0.64906 0.0514 0.0367 0.0
C360 C 0.64061 0.02675 0.95762 0.0
H361 H 0.6932 0.07498 0.13397 0.0
H362 H 0.62658 0.06797 0.06764 0.0
C363 C 0.67047 1.00606 0.91776 0.0
C364 C 0.48837 0.65513 0.04461 0.0
C365 C 0.5219 0.67029 0.08775 0.0
H366 H 0.46351 0.60972 0.96568 0.0
C367 C 0.55604 0.64918 0.09351 0.0
H368 H 0.46164 0.67086 0.04166 0.0
C369 C 0.55725 0.61437 0.05132 0.0
C370 C 0.52418 0.59983 1.0029 0.0
H371 H 0.58202 0.66039 0.12774 0.0
H372 H 0.58444 0.59944 0.05363 0.0
C373 C 0.48945 0.62009 1.00245 0.0
C374 C 0.91707 0.44443 0.20758 0.0
C375 C 0.90355 0.47786 0.24434 0.0
H376 H 0.95899 0.42247 0.1021 0.0
C377 C 0.92632 0.51271 0.2236 0.0
H378 H 0.90009 0.41704 0.22491 0.0
C379 C 0.96008 0.51561 0.15673 0.0
C380 C 0.97129 0.48394 0.10687 0.0
H381 H 0.9163 0.53893 0.25008 0.0
H382 H 0.9756 0.54394 0.13552 0.0
C383 C 0.95081 0.44746 0.13853 0.0
C384 C 1.00792 0.20108 0.12334 0.0
C385 C 0.03468 0.22361 0.17289 0.0
H386 H 0.99805 0.15246 0.04071 0.0
C387 C 0.07407 0.21694 0.16216 0.0
H388 H 0.97739 0.20529 0.13324 0.0
C389 C 0.08624 0.18632 0.10959 0.0
C390 C 0.05919 0.16178 0.06726 0.0
H391 H 0.09517 0.23327 0.2026 0.0
H392 H 0.11673 0.18091 0.10658 0.0
C393 C 0.01992 0.1706 0.071 0.0
C394 C 0.36163 0.05569 0.33205 0.0
C395 C 0.33931 0.02113 0.33582 0.0
H396 H 0.41298 0.08895 0.26867 0.0
C397 C 0.35085 0.99444 0.2676 0.0
H398 H 0.35339 0.07628 0.38578 0.0
C399 C 0.38556 1.00091 0.20266 0.0
C400 C 0.40939 0.03439 0.20449 0.0
H401 H 0.33437 0.96716 0.27182 0.0
H402 H 0.39452 0.97856 0.15643 0.0
C403 C 0.39618 0.06236 0.26691 0.0
C404 C 0.57426 0.37835 0.25512 0.0
C405 C 0.54179 0.35366 0.29009 0.0
H406 H 0.59786 0.43049 0.13661 0.0
C407 C 0.50674 0.3637 0.23113 0.0
H408 H 0.60132 0.37139 0.30124 0.0
C409 C 0.5044 0.39784 0.13733 0.0
C410 C 0.53713 0.42249 0.10128 0.0
H411 H 0.48116 0.34548 0.2592 0.0
H412 H 0.47706 0.40483 0.09297 0.0
C413 C 0.57208 0.41224 0.16147 0.0
C414 C 0.18691 0.49432 0.13719 0.0
C415 C 0.1954 0.53219 0.15803 0.0
H416 H 0.14951 0.45934 0.04966 0.0
C417 C 0.17431 0.56472 0.09765 0.0
H418 H 0.20232 0.46865 0.18505 0.0
C419 C 0.14425 0.55957 0.02171 0.0
C420 C 0.13422 0.52153 1.00454 0.0
H421 H 0.18024 0.59403 0.1134 0.0
H422 H 0.12804 0.58546 0.97955 0.0
C423 C 0.15648 0.489 0.0609 0.0
C424 C 0.06666 0.83062 0.50603 0.0
C425 C 0.04001 0.80809 0.45609 0.0
H426 H 0.07635 0.8792 0.58891 0.0
C427 C 1.00059 0.81476 0.4663 0.0
H428 H 0.09721 0.82642 0.49652 0.0
C429 C 0.9883 0.84535 0.5188 0.0
C430 C 0.01526 0.86988 0.56157 0.0
H431 H 0.97957 0.79843 0.42553 0.0
H432 H 0.9578 0.85074 0.52142 0.0
C433 C 0.05454 0.86108 0.55829 0.0
C434 C 0.71248 0.97609 0.29656 0.0
C435 C 0.73484 1.01063 0.29283 0.0
H436 H 0.6611 0.94289 0.3599 0.0
C437 C 0.72334 0.03733 0.36107 0.0
H438 H 0.72069 0.9555 0.24282 0.0
C439 C 0.68862 0.03089 0.42599 0.0
C440 C 0.66475 0.99744 0.42412 0.0
H441 H 0.73984 0.06458 0.35687 0.0
H442 H 0.67969 0.05325 0.47223 0.0
C443 C 0.67792 0.96946 0.36169 0.0
C444 C 0.56759 0.66826 0.3975 0.0
C445 C 0.53254 0.67828 0.33856 0.0
H446 H 0.5973 0.62714 0.53563 0.0
C447 C 0.50008 0.65358 0.37357 0.0
H448 H 0.59317 0.6865 0.3694 0.0
C449 C 0.50228 0.61969 0.46721 0.0
C450 C 0.53724 0.60946 0.52737 0.0
H451 H 0.47301 0.66053 0.32746 0.0
H452 H 0.4765 0.60143 0.49209 0.0
C453 C 0.56996 0.63413 0.49129 0.0
C454 C 0.90041 0.46764 0.52962 0.0
C455 C 0.87929 0.50018 0.46938 0.0
H456 H 0.9467 0.44689 0.6476 0.0
C457 C 0.88778 0.53803 0.49035 0.0
H458 H 0.89449 0.43834 0.51376 0.0
C459 C 0.91821 0.54333 0.56664 0.0
C460 C 0.94049 0.5108 0.62288 0.0
H461 H 0.87235 0.56371 0.4426 0.0
H462 H 0.92516 0.57298 0.578 0.0
C463 C 0.93047 0.47277 0.60555 0.0
loop_
_geom_bond_atom_site_label_1
_geom_bond_atom_site_label_2
_geom_bond_distance
_geom_bond_site_symmetry_2
_ccdc_geom_bond_type
C0 N1 1.317 . S
C0 N2 1.348 . S
C0 C3 1.485 . S
N1 C0 1.317 . S
N1 N5 1.370 . S
N2 C0 1.348 . S
N2 C4 1.346 . S
C3 C0 1.485 . S
C3 H7 0.960 . S
C3 H8 0.961 . S
C3 H9 0.960 . S
C4 N2 1.346 . S
C4 N5 1.307 . S
C4 C6 1.486 1_554 S
N5 N1 1.370 . S
N5 C4 1.307 . S
C6 C4 1.486 1_556 S
C6 H10 0.960 . S
C6 H11 0.960 . S
C6 H12 0.959 . S
H7 C3 0.960 . S
H8 C3 0.961 . S
H9 C3 0.960 . S
H10 C6 0.960 . S
H11 C6 0.960 . S
H12 C6 0.959 . S
C13 N14 1.317 . S
C13 N15 1.348 . S
C13 C16 1.485 . S
N14 C13 1.317 . S
N14 N18 1.370 . S
N15 C13 1.348 . S
N15 C17 1.346 1_554 S
C16 C13 1.485 . S
C16 H20 0.960 . S
C16 H21 0.961 . S
C16 H22 0.960 . S
C17 N15 1.346 1_556 S
C17 N18 1.307 1_556 S
C17 C19 1.486 . S
N18 N14 1.370 . S
N18 C17 1.307 1_554 S
C19 C17 1.486 . S
C19 H23 0.960 . S
C19 H24 0.960 . S
C19 H25 0.959 . S
H20 C16 0.960 . S
H21 C16 0.961 . S
H22 C16 0.960 . S
H23 C19 0.960 . S
H24 C19 0.960 . S
H25 C19 0.959 . S
C26 N27 1.317 . S
C26 N28 1.348 . S
C26 C29 1.485 . S
N27 C26 1.317 . S
N27 N31 1.368 1_554 S
N28 C26 1.348 . S
N28 C30 1.347 1_564 S
C29 C26 1.485 . S
C29 H33 0.960 1_565 S
C29 H34 0.961 . S
C29 H35 0.960 . S
C30 N28 1.347 1_546 S
C30 N31 1.309 1_545 S
C30 C32 1.485 . S
N31 N27 1.368 1_556 S
N31 C30 1.309 1_565 S
C32 C30 1.485 . S
C32 H36 0.960 1_545 S
C32 H37 0.960 . S
C32 H38 0.959 . S
H33 C29 0.960 1_545 S
H34 C29 0.961 . S
H35 C29 0.960 . S
H36 C32 0.960 1_565 S
H37 C32 0.960 . S
H38 C32 0.959 . S
C39 N40 1.317 . S
C39 N41 1.348 . S
C39 C42 1.485 . S
N40 C39 1.317 . S
N40 N44 1.370 . S
N41 C39 1.348 . S
N41 C43 1.346 . S
C42 C39 1.485 . S
C42 H46 0.960 . S
C42 H47 0.961 . S
C42 H48 0.960 . S
C43 N41 1.346 . S
C43 N44 1.307 . S
C43 C45 1.486 1_554 S
N44 N40 1.370 . S
N44 C43 1.307 . S
C45 C43 1.486 1_556 S
C45 H49 0.960 . S
C45 H50 0.960 . S
C45 H51 0.959 . S
H46 C42 0.960 . S
H47 C42 0.961 . S
H48 C42 0.960 . S
H49 C45 0.960 . S
H50 C45 0.960 . S
H51 C45 0.959 . S
C52 N53 1.317 . S
C52 N54 1.348 . S
C52 C55 1.485 . S
N53 C52 1.317 . S
N53 N57 1.370 . S
N54 C52 1.348 . S
N54 C56 1.346 . S
C55 C52 1.485 . S
C55 H59 0.960 . S
C55 H60 0.961 . S
C55 H61 0.960 . S
C56 N54 1.346 . S
C56 N57 1.307 . S
C56 C58 1.486 . S
N57 N53 1.370 . S
N57 C56 1.307 . S
C58 C56 1.486 . S
C58 H62 0.960 . S
C58 H63 0.960 . S
C58 H64 0.959 . S
H59 C55 0.960 . S
H60 C55 0.961 . S
H61 C55 0.960 . S
H62 C58 0.960 . S
H63 C58 0.960 . S
H64 C58 0.959 . S
C65 N66 1.317 . S
C65 N67 1.348 . S
C65 C68 1.485 . S
N66 C65 1.317 . S
N66 N70 1.370 . S
N67 C65 1.348 . S
N67 C69 1.346 . S
C68 C65 1.485 . S
C68 H72 0.960 . S
C68 H73 0.961 . S
C68 H74 0.960 . S
C69 N67 1.346 . S
C69 N70 1.307 . S
C69 C71 1.486 . S
N70 N66 1.370 . S
N70 C69 1.307 . S
C71 C69 1.486 . S
C71 H75 0.960 . S
C71 H76 0.960 . S
C71 H77 0.959 . S
H72 C68 0.960 . S
H73 C68 0.961 . S
H74 C68 0.960 . S
H75 C71 0.960 . S
H76 C71 0.960 . S
H77 C71 0.959 . S
C78 N79 1.317 . S
C78 N80 1.348 . S
C78 C81 1.485 . S
N79 C78 1.317 . S
N79 N83 1.372 . S
N80 C78 1.348 . S
N80 C82 1.345 1_565 S
C81 C78 1.485 . S
C81 H85 0.960 1_565 S
C81 H86 0.961 . S
C81 H87 0.960 . S
C82 N80 1.345 1_545 S
C82 N83 1.305 1_545 S
C82 C84 1.489 . S
N83 N79 1.372 . S
N83 C82 1.305 1_565 S
C84 C82 1.489 . S
C84 H88 0.960 1_545 S
C84 H89 0.960 . S
C84 H90 0.959 . S
H85 C81 0.960 1_545 S
H86 C81 0.961 . S
H87 C81 0.960 . S
H88 C84 0.960 1_565 S
H89 C84 0.960 . S
H90 C84 0.959 . S
C91 N92 1.317 . S
C91 N93 1.348 . S
C91 C94 1.485 . S
N92 C91 1.317 . S
N92 N96 1.370 . S
N93 C91 1.348 . S
N93 C95 1.346 . S
C94 C91 1.485 . S
C94 H98 0.960 . S
C94 H99 0.961 . S
C94 H100 0.960 . S
C95 N93 1.346 . S
C95 N96 1.307 . S
C95 C97 1.486 . S
N96 N92 1.370 . S
N96 C95 1.307 . S
C97 C95 1.486 . S
C97 H101 0.960 . S
C97 H102 0.960 . S
C97 H103 0.959 . S
H98 C94 0.960 . S
H99 C94 0.961 . S
H100 C94 0.960 . S
H101 C97 0.960 . S
H102 C97 0.960 . S
H103 C97 0.959 . S
Co104 N109 2.057 1_556 S
Co104 O121 2.021 . S
Co104 O124 2.062 . S
Co104 O128 2.117 1_455 S
Co104 O129 2.020 1_545 S
C105 O125 1.259 1_545 S
C105 O128 1.258 . S
Co106 N115 2.057 . S
Co106 O122 2.117 . S
Co106 O123 2.020 1_565 S
Co106 O125 2.021 1_455 S
Co106 O130 2.062 . S
C107 N109 1.316 . S
C107 N110 1.347 . S
C107 H112 0.931 . S
C108 N109 1.375 . S
C108 C111 1.350 . S
C108 H113 0.930 1_455 S
N109 Co104 2.057 1_554 S
N109 C107 1.316 . S
N109 C108 1.375 . S
N110 C107 1.347 . S
N110 C111 1.373 . S
C111 C108 1.350 . S
C111 N110 1.373 . S
C111 H132 0.913 1_455 S
H112 C107 0.931 . S
H113 C108 0.930 1_655 S
C114 O121 1.259 1_565 S
C114 O122 1.258 . S
N115 Co106 2.057 . S
N115 C116 1.316 1_455 S
N115 C117 1.375 . S
C116 N115 1.316 1_655 S
C116 N118 1.347 . S
C116 H127 0.931 . S
C117 N115 1.375 . S
C117 C119 1.350 . S
C117 H126 0.930 . S
N118 C116 1.347 . S
N118 C119 1.373 1_655 S
C119 C117 1.350 . S
C119 N118 1.373 1_455 S
C119 H133 0.931 . S
C120 O123 1.256 . S
C120 O124 1.255 . S
O121 Co104 2.021 . S
O121 C114 1.259 1_545 S
O122 Co106 2.117 . S
O122 C114 1.258 . S
O123 Co106 2.020 1_545 S
O123 C120 1.256 . S
O124 Co104 2.062 . S
O124 C120 1.255 . S
O125 C105 1.259 1_565 S
O125 Co106 2.021 1_655 S
H126 C117 0.930 . S
H127 C116 0.931 . S
O128 Co104 2.117 1_655 S
O128 C105 1.258 . S
O129 Co104 2.020 1_565 S
O129 C131 1.256 . S
O130 Co106 2.062 . S
O130 C131 1.255 . S
C131 O129 1.256 . S
C131 O130 1.255 . S
H132 C111 0.913 1_655 S
H133 C119 0.931 . S
Co134 N139 2.057 1_546 S
Co134 O151 2.021 . S
Co134 O154 2.062 . S
Co134 O158 2.117 1_545 S
Co134 O159 2.020 . S
C135 O155 1.259 . S
C135 O158 1.258 . S
Co136 N145 2.057 1_565 S
Co136 O152 2.117 1_565 S
Co136 O153 2.020 . S
Co136 O155 2.021 . S
Co136 O160 2.062 . S
C137 N139 1.316 1_545 S
C137 N140 1.347 . S
C137 H142 0.931 . S
C138 N139 1.375 . S
C138 C141 1.350 . S
C138 H143 0.930 . S
N139 Co134 2.057 1_564 S
N139 C137 1.316 1_565 S
N139 C138 1.375 . S
N140 C137 1.347 . S
N140 C141 1.373 1_545 S
C141 C138 1.350 . S
C141 N140 1.373 1_565 S
C141 H162 0.931 . S
H142 C137 0.931 . S
H143 C138 0.930 . S
C144 O151 1.259 . S
C144 O152 1.258 . S
N145 Co136 2.057 1_545 S
N145 C146 1.316 1_545 S
N145 C147 1.375 . S
C146 N145 1.316 1_565 S
C146 N148 1.347 . S
C146 H157 0.931 . S
C147 N145 1.375 . S
C147 C149 1.350 . S
C147 H156 0.930 . S
N148 C146 1.347 . S
N148 C149 1.373 1_565 S
C149 C147 1.350 . S
C149 N148 1.373 1_545 S
C149 H163 0.931 . S
C150 O153 1.256 . S
C150 O154 1.255 1_565 S
O151 Co134 2.021 . S
O151 C144 1.259 . S
O152 Co136 2.117 1_545 S
O152 C144 1.258 . S
O153 Co136 2.020 . S
O153 C150 1.256 . S
O154 Co134 2.062 . S
O154 C150 1.255 1_545 S
O155 C135 1.259 . S
O155 Co136 2.021 . S
H156 C147 0.930 . S
H157 C146 0.931 . S
O158 Co134 2.117 1_565 S
O158 C135 1.258 . S
O159 Co134 2.020 . S
O159 C161 1.256 . S
O160 Co136 2.062 . S
O160 C161 1.255 1_565 S
C161 O159 1.256 . S
C161 O160 1.255 1_545 S
H162 C141 0.931 . S
H163 C149 0.931 . S
Co164 N169 2.057 . S
Co164 O181 2.021 . S
Co164 O184 2.062 . S
Co164 O188 2.117 . S
Co164 O189 2.020 . S
C165 O185 1.259 . S
C165 O188 1.258 . S
Co166 N175 2.057 . S
Co166 O182 2.117 . S
Co166 O183 2.020 . S
Co166 O185 2.021 . S
Co166 O190 2.062 . S
C167 N169 1.316 . S
C167 N170 1.347 . S
C167 H172 0.931 . S
C168 N169 1.375 . S
C168 C171 1.350 1_556 S
C168 H173 0.930 1_556 S
N169 Co164 2.057 . S
N169 C167 1.316 . S
N169 C168 1.375 . S
N170 C167 1.347 . S
N170 C171 1.373 1_556 S
C171 C168 1.350 1_554 S
C171 N170 1.373 1_554 S
C171 H192 0.931 . S
H172 C167 0.931 . S
H173 C168 0.930 1_554 S
C174 O181 1.259 . S
C174 O182 1.258 . S
N175 Co166 2.057 . S
N175 C176 1.316 . S
N175 C177 1.375 . S
C176 N175 1.316 . S
C176 N178 1.347 . S
C176 H187 0.931 . S
C177 N175 1.375 . S
C177 C179 1.350 . S
C177 H186 0.930 . S
N178 C176 1.347 . S
N178 C179 1.373 . S
C179 C177 1.350 . S
C179 N178 1.373 . S
C179 H193 0.931 . S
C180 O183 1.256 . S
C180 O184 1.255 . S
O181 Co164 2.021 . S
O181 C174 1.259 . S
O182 Co166 2.117 . S
O182 C174 1.258 . S
O183 Co166 2.020 . S
O183 C180 1.256 . S
O184 Co164 2.062 . S
O184 C180 1.255 . S
O185 C165 1.259 . S
O185 Co166 2.021 . S
H186 C177 0.930 . S
H187 C176 0.931 . S
O188 Co164 2.117 . S
O188 C165 1.258 . S
O189 Co164 2.020 . S
O189 C191 1.256 . S
O190 Co166 2.062 . S
O190 C191 1.255 . S
C191 O189 1.256 . S
C191 O190 1.255 . S
H192 C171 0.931 . S
H193 C179 0.931 . S
Co194 N199 2.057 . S
Co194 O211 2.021 1_455 S
Co194 O214 2.062 1_455 S
Co194 O218 2.117 . S
Co194 O219 2.020 . S
C195 O215 1.259 . S
C195 O218 1.258 . S
Co196 N205 2.057 . S
Co196 O212 2.117 1_455 S
Co196 O213 2.020 1_455 S
Co196 O215 2.021 . S
Co196 O220 2.062 . S
C197 N199 1.316 . S
C197 N200 1.347 . S
C197 H202 0.931 1_455 S
C198 N199 1.375 . S
C198 C201 1.350 . S
C198 H203 0.930 . S
N199 Co194 2.057 . S
N199 C197 1.316 . S
N199 C198 1.375 . S
N200 C197 1.347 . S
N200 C201 1.373 . S
C201 C198 1.350 . S
C201 N200 1.373 . S
C201 H222 0.931 . S
H202 C197 0.931 1_655 S
H203 C198 0.930 . S
C204 O211 1.259 . S
C204 O212 1.258 . S
N205 Co196 2.057 . S
N205 C206 1.316 . S
N205 C207 1.375 1_455 S
C206 N205 1.316 . S
C206 N208 1.347 . S
C206 H217 0.931 . S
C207 N205 1.375 1_655 S
C207 C209 1.350 1_655 S
C207 H216 0.930 . S
N208 C206 1.347 . S
N208 C209 1.373 . S
C209 C207 1.350 1_455 S
C209 N208 1.373 . S
C209 H223 0.931 1_455 S
C210 O213 1.256 . S
C210 O214 1.255 . S
O211 Co194 2.021 1_655 S
O211 C204 1.259 . S
O212 Co196 2.117 1_655 S
O212 C204 1.258 . S
O213 Co196 2.020 1_655 S
O213 C210 1.256 . S
O214 Co194 2.062 1_655 S
O214 C210 1.255 . S
O215 C195 1.259 . S
O215 Co196 2.021 . S
H216 C207 0.930 . S
H217 C206 0.931 . S
O218 Co194 2.117 . S
O218 C195 1.258 . S
O219 Co194 2.020 . S
O219 C221 1.256 . S
O220 Co196 2.062 . S
O220 C221 1.255 . S
C221 O219 1.256 . S
C221 O220 1.255 . S
H222 C201 0.931 . S
H223 C209 0.931 1_655 S
C224 C225 1.387 1_545 S
C224 H228 0.950 . S
C224 C233 1.390 . S
C225 C224 1.387 1_565 S
C225 C227 1.387 . S
H226 C233 0.950 . S
C227 C225 1.387 . S
C227 C229 1.390 . S
C227 H231 0.950 . S
H228 C224 0.950 . S
C229 C227 1.390 . S
C229 C230 1.387 . S
C229 H232 0.950 . S
C230 C229 1.387 . S
C230 C233 1.387 1_565 S
H231 C227 0.950 . S
H232 C229 0.950 . S
C233 C224 1.390 . S
C233 H226 0.950 . S
C233 C230 1.387 1_545 S
C234 C235 1.387 . S
C234 H238 0.950 . S
C234 C243 1.390 . S
C235 C234 1.387 . S
C235 C237 1.387 . S
H236 C243 0.950 . S
C237 C235 1.387 . S
C237 C239 1.390 . S
C237 H241 0.950 . S
H238 C234 0.950 . S
C239 C237 1.390 . S
C239 C240 1.387 . S
C239 H242 0.950 . S
C240 C239 1.387 . S
C240 C243 1.387 . S
H241 C237 0.950 . S
H242 C239 0.950 . S
C243 C234 1.390 . S
C243 H236 0.950 . S
C243 C240 1.387 . S
C244 C245 1.387 . S
C244 H248 0.950 . S
C244 C253 1.390 . S
C245 C244 1.387 . S
C245 C247 1.387 . S
H246 C253 0.950 . S
C247 C245 1.387 . S
C247 C249 1.390 . S
C247 H251 0.950 . S
H248 C244 0.950 . S
C249 C247 1.390 . S
C249 C250 1.387 . S
C249 H252 0.950 . S
C250 C249 1.387 . S
C250 C253 1.387 . S
H251 C247 0.950 . S
H252 C249 0.950 . S
C253 C244 1.390 . S
C253 H246 0.950 . S
C253 C250 1.387 . S
C254 C255 1.387 . S
C254 H258 0.950 . S
C254 C263 1.390 . S
C255 C254 1.387 . S
C255 C257 1.387 . S
H256 C263 0.950 . S
C257 C255 1.387 . S
C257 C259 1.390 . S
C257 H261 0.950 . S
H258 C254 0.950 . S
C259 C257 1.390 . S
C259 C260 1.387 . S
C259 H262 0.950 . S
C260 C259 1.387 . S
C260 C263 1.387 . S
H261 C257 0.950 . S
H262 C259 0.950 . S
C263 C254 1.390 . S
C263 H256 0.950 . S
C263 C260 1.387 . S
C264 C265 1.387 1_565 S
C264 H268 0.950 . S
C264 C273 1.390 . S
C265 C264 1.387 1_545 S
C265 C267 1.387 . S
H266 C273 0.950 . S
C267 C265 1.387 . S
C267 C269 1.390 . S
C267 H271 0.950 1_556 S
H268 C264 0.950 . S
C269 C267 1.390 . S
C269 C270 1.387 . S
C269 H272 0.950 . S
C270 C269 1.387 . S
C270 C273 1.387 1_545 S
H271 C267 0.950 1_554 S
H272 C269 0.950 . S
C273 C264 1.390 . S
C273 H266 0.950 . S
C273 C270 1.387 1_565 S
C274 C275 1.387 1_556 S
C274 H278 0.950 . S
C274 C283 1.390 . S
C275 C274 1.387 1_554 S
C275 C277 1.387 . S
H276 C283 0.950 . S
C277 C275 1.387 . S
C277 C279 1.390 1_554 S
C277 H281 0.950 . S
H278 C274 0.950 . S
C279 C277 1.390 1_556 S
C279 C280 1.387 . S
C279 H282 0.950 1_556 S
C280 C279 1.387 . S
C280 C283 1.387 . S
H281 C277 0.950 . S
H282 C279 0.950 1_554 S
C283 C274 1.390 . S
C283 H276 0.950 . S
C283 C280 1.387 . S
C284 C285 1.387 . S
C284 H288 0.950 . S
C284 C293 1.390 . S
C285 C284 1.387 . S
C285 C287 1.387 . S
H286 C293 0.950 . S
C287 C285 1.387 . S
C287 C289 1.390 1_554 S
C287 H291 0.950 . S
H288 C284 0.950 . S
C289 C287 1.390 1_556 S
C289 C290 1.387 . S
C289 H292 0.950 . S
C290 C289 1.387 . S
C290 C293 1.387 1_556 S
H291 C287 0.950 . S
H292 C289 0.950 . S
C293 C284 1.390 . S
C293 H286 0.950 . S
C293 C290 1.387 1_554 S
C294 C295 1.387 1_556 S
C294 H298 0.950 . S
C294 C303 1.390 . S
C295 C294 1.387 1_554 S
C295 C297 1.387 1_654 S
H296 C303 0.950 . S
C297 C295 1.387 1_456 S
C297 C299 1.390 . S
C297 H301 0.950 1_556 S
H298 C294 0.950 . S
C299 C297 1.390 . S
C299 C300 1.387 1_455 S
C299 H302 0.950 . S
C300 C299 1.387 1_655 S
C300 C303 1.387 . S
H301 C297 0.950 1_554 S
H302 C299 0.950 . S
C303 C294 1.390 . S
C303 H296 0.950 . S
C303 C300 1.387 . S
C304 C305 1.387 . S
C304 H308 0.950 . S
C304 C313 1.390 . S
C305 C304 1.387 . S
C305 C307 1.387 . S
H306 C313 0.950 . S
C307 C305 1.387 . S
C307 C309 1.390 . S
C307 H311 0.950 . S
H308 C304 0.950 . S
C309 C307 1.390 . S
C309 C310 1.387 . S
C309 H312 0.950 . S
C310 C309 1.387 . S
C310 C313 1.387 . S
H311 C307 0.950 . S
H312 C309 0.950 . S
C313 C304 1.390 . S
C313 H306 0.950 . S
C313 C310 1.387 . S
C314 C315 1.402 . S
C314 H318 0.950 . S
C314 C323 1.390 . S
C315 C314 1.402 . S
C315 C317 1.375 1_565 S
H316 C323 0.950 . S
C317 C315 1.375 1_545 S
C317 C319 1.390 . S
C317 H321 0.950 . S
H318 C314 0.950 . S
C319 C317 1.390 . S
C319 C320 1.387 1_545 S
C319 H322 0.950 . S
C320 C319 1.387 1_565 S
C320 C323 1.387 . S
H321 C317 0.950 . S
H322 C319 0.950 . S
C323 C314 1.390 . S
C323 H316 0.950 . S
C323 C320 1.387 . S
C324 C325 1.387 . S
C324 H328 0.950 . S
C324 C333 1.390 . S
C325 C324 1.387 . S
C325 C327 1.387 . S
H326 C333 0.950 . S
C327 C325 1.387 . S
C327 C329 1.390 . S
C327 H331 0.950 . S
H328 C324 0.950 . S
C329 C327 1.390 . S
C329 C330 1.387 . S
C329 H332 0.950 . S
C330 C329 1.387 . S
C330 C333 1.387 . S
H331 C327 0.950 . S
H332 C329 0.950 . S
C333 C324 1.390 . S
C333 H326 0.950 . S
C333 C330 1.387 . S
C334 C335 1.387 . S
C334 H338 0.950 . S
C334 C343 1.390 . S
C335 C334 1.387 . S
C335 C337 1.387 . S
H336 C343 0.950 . S
C337 C335 1.387 . S
C337 C339 1.390 . S
C337 H341 0.950 . S
H338 C334 0.950 . S
C339 C337 1.390 . S
C339 C340 1.387 . S
C339 H342 0.950 . S
C340 C339 1.387 . S
C340 C343 1.387 . S
H341 C337 0.950 . S
H342 C339 0.950 . S
C343 C334 1.390 . S
C343 H336 0.950 . S
C343 C340 1.387 . S
C344 C345 1.387 1_554 S
C344 H348 0.950 . S
C344 C353 1.375 1_655 S
C345 C344 1.387 1_556 S
C345 C347 1.387 . S
H346 C353 0.958 . S
C347 C345 1.387 . S
C347 C349 1.390 . S
C347 H351 0.950 . S
H348 C344 0.950 . S
C349 C347 1.390 . S
C349 C350 1.387 1_655 S
C349 H352 0.950 1_655 S
C350 C349 1.387 1_455 S
C350 C353 1.394 1_556 S
H351 C347 0.950 . S
H352 C349 0.950 1_455 S
C353 C344 1.375 1_455 S
C353 H346 0.958 . S
C353 C350 1.394 1_554 S
C354 C355 1.368 1_565 S
C354 H358 0.950 . S
C354 C363 1.390 . S
C355 C354 1.368 1_545 S
C355 C357 1.409 1_556 S
H356 C363 0.950 . S
C357 C355 1.409 1_554 S
C357 C359 1.390 1_554 S
C357 H361 0.950 . S
H358 C354 0.950 . S
C359 C357 1.390 1_556 S
C359 C360 1.387 . S
C359 H362 0.950 1_556 S
C360 C359 1.387 . S
C360 C363 1.387 1_545 S
H361 C357 0.950 . S
H362 C359 0.950 1_554 S
C363 C354 1.390 . S
C363 H356 0.950 . S
C363 C360 1.387 1_565 S
C364 C365 1.387 . S
C364 H368 0.950 . S
C364 C373 1.390 . S
C365 C364 1.387 . S
C365 C367 1.387 1_554 S
H366 C373 0.950 . S
C367 C365 1.387 1_556 S
C367 C369 1.390 . S
C367 H371 0.950 . S
H368 C364 0.950 . S
C369 C367 1.390 . S
C369 C370 1.387 . S
C369 H372 0.950 . S
C370 C369 1.387 . S
C370 C373 1.387 1_556 S
H371 C367 0.950 . S
H372 C369 0.950 . S
C373 C364 1.390 . S
C373 H366 0.950 . S
C373 C370 1.387 1_554 S
C374 C375 1.387 . S
C374 H378 0.950 . S
C374 C383 1.390 . S
C375 C374 1.387 . S
C375 C377 1.387 . S
H376 C383 0.950 . S
C377 C375 1.387 . S
C377 C379 1.390 1_554 S
C377 H381 0.950 1_554 S
H378 C374 0.950 . S
C379 C377 1.390 1_556 S
C379 C380 1.387 . S
C379 H382 0.950 . S
C380 C379 1.387 . S
C380 C383 1.387 1_556 S
H381 C377 0.950 1_556 S
H382 C379 0.950 . S
C383 C374 1.390 . S
C383 H376 0.950 . S
C383 C380 1.387 1_554 S
C384 C385 1.387 . S
C384 H388 0.950 . S
C384 C393 1.390 . S
C385 C384 1.387 . S
C385 C387 1.387 . S
H386 C393 0.950 . S
C387 C385 1.387 . S
C387 C389 1.390 . S
C387 H391 0.950 . S
H388 C384 0.950 . S
C389 C387 1.390 . S
C389 C390 1.387 . S
C389 H392 0.950 . S
C390 C389 1.387 . S
C390 C393 1.387 . S
H391 C387 0.950 . S
H392 C389 0.950 . S
C393 C384 1.390 . S
C393 H386 0.950 . S
C393 C390 1.387 . S
C394 C395 1.387 . S
C394 H398 0.950 . S
C394 C403 1.390 . S
C395 C394 1.387 . S
C395 C397 1.387 1_545 S
H396 C403 0.950 . S
C397 C395 1.387 1_565 S
C397 C399 1.390 . S
C397 H401 0.950 . S
H398 C394 0.950 . S
C399 C397 1.390 . S
C399 C400 1.387 1_565 S
C399 H402 0.950 . S
C400 C399 1.387 1_545 S
C400 C403 1.387 . S
H401 C397 0.950 . S
H402 C399 0.950 . S
C403 C394 1.390 . S
C403 H396 0.950 . S
C403 C400 1.387 . S
C404 C405 1.387 . S
C404 H408 0.950 . S
C404 C413 1.390 . S
C405 C404 1.387 . S
C405 C407 1.387 . S
H406 C413 0.950 . S
C407 C405 1.387 . S
C407 C409 1.390 . S
C407 H411 0.950 . S
H408 C404 0.950 . S
C409 C407 1.390 . S
C409 C410 1.387 . S
C409 H412 0.950 . S
C410 C409 1.387 . S
C410 C413 1.387 . S
H411 C407 0.950 . S
H412 C409 0.950 . S
C413 C404 1.390 . S
C413 H406 0.950 . S
C413 C410 1.387 . S
C414 C415 1.387 . S
C414 H418 0.950 . S
C414 C423 1.390 . S
C415 C414 1.387 . S
C415 C417 1.387 . S
H416 C423 0.950 . S
C417 C415 1.387 . S
C417 C419 1.390 . S
C417 H421 0.950 . S
H418 C414 0.950 . S
C419 C417 1.390 . S
C419 C420 1.387 . S
C419 H422 0.950 . S
C420 C419 1.387 . S
C420 C423 1.387 . S
H421 C417 0.950 . S
H422 C419 0.950 . S
C423 C414 1.390 . S
C423 H416 0.950 . S
C423 C420 1.387 . S
C424 C425 1.387 . S
C424 H428 0.950 1_655 S
C424 C433 1.390 . S
C425 C424 1.387 . S
C425 C427 1.387 . S
H426 C433 0.950 1_455 S
C427 C425 1.387 . S
C427 C429 1.390 . S
C427 H431 0.950 . S
H428 C424 0.950 1_455 S
C429 C427 1.390 . S
C429 C430 1.387 . S
C429 H432 0.950 . S
C430 C429 1.387 . S
C430 C433 1.387 . S
H431 C427 0.950 . S
H432 C429 0.950 . S
C433 C424 1.390 . S
C433 H426 0.950 1_655 S
C433 C430 1.387 . S
C434 C435 1.387 . S
C434 H438 0.950 . S
C434 C443 1.390 . S
C435 C434 1.387 . S
C435 C437 1.387 1_565 S
H436 C443 0.950 . S
C437 C435 1.387 1_545 S
C437 C439 1.390 . S
C437 H441 0.950 . S
H438 C434 0.950 . S
C439 C437 1.390 . S
C439 C440 1.387 1_545 S
C439 H442 0.950 . S
C440 C439 1.387 1_565 S
C440 C443 1.387 . S
H441 C437 0.950 . S
H442 C439 0.950 . S
C443 C434 1.390 . S
C443 H436 0.950 . S
C443 C440 1.387 . S
C444 C445 1.387 . S
C444 H448 0.950 . S
C444 C453 1.390 . S
C445 C444 1.387 . S
C445 C447 1.387 . S
H446 C453 0.950 . S
C447 C445 1.387 . S
C447 C449 1.390 . S
C447 H451 0.950 . S
H448 C444 0.950 . S
C449 C447 1.390 . S
C449 C450 1.387 . S
C449 H452 0.950 . S
C450 C449 1.387 . S
C450 C453 1.387 . S
H451 C447 0.950 . S
H452 C449 0.950 . S
C453 C444 1.390 . S
C453 H446 0.950 . S
C453 C450 1.387 . S
C454 C455 1.387 . S
C454 H458 0.950 . S
C454 C463 1.390 . S
C455 C454 1.387 . S
C455 C457 1.387 . S
H456 C463 0.950 . S
C457 C455 1.387 . S
C457 C459 1.390 . S
C457 H461 0.950 . S
H458 C454 0.950 . S
C459 C457 1.390 . S
C459 C460 1.387 . S
C459 H462 0.950 . S
C460 C459 1.387 . S
C460 C463 1.387 . S
H461 C457 0.950 . S
H462 C459 0.950 . S
C463 C454 1.390 . S
C463 H456 0.950 . S
C463 C460 1.387 . S
C225 N80 1.746 . S
C230 C114 1.744 . S
C240 C144 1.814 . S
C235 N93 1.801 . S
C250 N178 1.374 . S
C245 N54 1.422 . S
C260 N208 1.449 . S
C255 N67 1.468 . S
C270 C105 1.745 . S
C265 N28 1.751 1_546 S
C275 N41 1.811 . S
C280 C135 1.817 . S
C285 N2 1.421 . S
C290 N170 1.371 . S
C295 N15 1.483 . S
C300 N200 1.448 1_655 S
C310 C120 0.692 . S
C305 N70 0.696 . S
C320 C150 1.109 . S
C315 N83 1.113 . S
C330 C191 1.365 . S
C325 N96 1.370 . S
C335 N57 0.871 . S
C340 C221 0.871 . S
C345 N18 0.696 1_556 S
C350 C131 0.694 . S
C360 C161 1.109 . S
C355 N31 1.114 1_545 S
C370 C180 1.367 . S
C365 N44 1.375 . S
C375 N5 0.875 . S
C380 C210 0.872 . S
C385 N66 1.502 . S
C390 N110 1.478 . S
C395 N79 1.483 1_545 S
C400 N140 1.447 . S
C410 C165 1.669 1_554 S
C405 N92 1.666 . S
C420 C195 1.597 1_554 S
C415 N53 1.595 . S
C425 N14 1.514 . S
C430 N118 1.483 . S
C440 N148 1.446 . S
C435 N27 1.476 . S
C450 C174 1.669 . S
C445 N40 1.671 . S
C455 N1 1.593 . S
C460 C204 1.597 . S
