# Generated by pormake.
# Topology zzz, (3,6)-cn, num edge types: 1
# Building blocks:
#     Node 0, Type 0, BuildingBlock: BELTOD_clean_linker_0, # of connection points: 3
#     Node 1, Type 0, BuildingBlock: BELTOD_clean_linker_0, # of connection points: 3
#     Node 2, Type 0, BuildingBlock: BELTOD_clean_linker_0, # of connection points: 3
#     Node 3, Type 0, BuildingBlock: BELTOD_clean_linker_0, # of connection points: 3
#     Node 4, Type 0, BuildingBlock: BELTOD_clean_linker_0, # of connection points: 3
#     Node 5, Type 0, BuildingBlock: BELTOD_clean_linker_0, # of connection points: 3
#     Node 6, Type 0, BuildingBlock: BELTOD_clean_linker_0, # of connection points: 3
#     Node 7, Type 0, BuildingBlock: BELTOD_clean_linker_0, # of connection points: 3
#     Node 8, Type 1, BuildingBlock: CUKXOW_clean_sbu_0, # of connection points: 6
#     Node 9, Type 1, BuildingBlock: CUKXOW_clean_sbu_0, # of connection points: 6
#     Node 10, Type 1, BuildingBlock: CUKXOW_clean_sbu_0, # of connection points: 6
#     Node 11, Type 1, BuildingBlock: CUKXOW_clean_sbu_0, # of connection points: 6
#     Edge 12, Type (0, 1), BuildingBlock: TEMPAE_clean_linker_10, # of connection points: 2
#     Edge 13, Type (0, 1), BuildingBlock: TEMPAE_clean_linker_10, # of connection points: 2
#     Edge 14, Type (0, 1), BuildingBlock: TEMPAE_clean_linker_10, # of connection points: 2
#     Edge 15, Type (0, 1), BuildingBlock: TEMPAE_clean_linker_10, # of connection points: 2
#     Edge 16, Type (0, 1), BuildingBlock: TEMPAE_clean_linker_10, # of connection points: 2
#     Edge 17, Type (0, 1), BuildingBlock: TEMPAE_clean_linker_10, # of connection points: 2
#     Edge 18, Type (0, 1), BuildingBlock: TEMPAE_clean_linker_10, # of connection points: 2
#     Edge 19, Type (0, 1), BuildingBlock: TEMPAE_clean_linker_10, # of connection points: 2
#     Edge 20, Type (0, 1), BuildingBlock: TEMPAE_clean_linker_10, # of connection points: 2
#     Edge 21, Type (0, 1), BuildingBlock: TEMPAE_clean_linker_10, # of connection points: 2
#     Edge 22, Type (0, 1), BuildingBlock: TEMPAE_clean_linker_10, # of connection points: 2
#     Edge 23, Type (0, 1), BuildingBlock: TEMPAE_clean_linker_10, # of connection points: 2
#     Edge 24, Type (0, 1), BuildingBlock: TEMPAE_clean_linker_10, # of connection points: 2
#     Edge 25, Type (0, 1), BuildingBlock: TEMPAE_clean_linker_10, # of connection points: 2
#     Edge 26, Type (0, 1), BuildingBlock: TEMPAE_clean_linker_10, # of connection points: 2
#     Edge 27, Type (0, 1), BuildingBlock: TEMPAE_clean_linker_10, # of connection points: 2
#     Edge 28, Type (0, 1), BuildingBlock: TEMPAE_clean_linker_10, # of connection points: 2
#     Edge 29, Type (0, 1), BuildingBlock: TEMPAE_clean_linker_10, # of connection points: 2
#     Edge 30, Type (0, 1), BuildingBlock: TEMPAE_clean_linker_10, # of connection points: 2
#     Edge 31, Type (0, 1), BuildingBlock: TEMPAE_clean_linker_10, # of connection points: 2
#     Edge 32, Type (0, 1), BuildingBlock: TEMPAE_clean_linker_10, # of connection points: 2
#     Edge 33, Type (0, 1), BuildingBlock: TEMPAE_clean_linker_10, # of connection points: 2
#     Edge 34, Type (0, 1), BuildingBlock: TEMPAE_clean_linker_10, # of connection points: 2
#     Edge 35, Type (0, 1), BuildingBlock: TEMPAE_clean_linker_10, # of connection points: 2
# Relax obj value: 0.195
# Max RMSD: 0.216
# Mean RMSD: 0.177
data_MOF--net-zzz--node1-CUKXOW_clean_sbu_0--node2-BELTOD_clean_linker_0--edge1-TEMPAE_clean_linker_10
_symmetry_space_group_name_H-M    P1
_symmetry_Int_Tables_number       1
_symmetry_cell_setting            triclinic
loop_
_symmetry_equiv_pos_as_xyz
'x, y, z'
_cell_length_a     55.061442
_cell_length_b     54.084856
_cell_length_c     19.188043
_cell_angle_alpha  92.737161
_cell_angle_beta   88.082927
_cell_angle_gamma 95.517998
loop_
_atom_site_label
_atom_site_type_symbol
_atom_site_fract_x
_atom_site_fract_y
_atom_site_fract_z
_atom_type_partial_charge
P0 P 0.75411 0.38758 0.10505 0.0
H1 H 0.76044 0.37703 0.25199 0.0
H2 H 0.78385 0.4005 0.34381 0.0
H3 H 0.79627 0.46303 0.21123 0.0
H4 H 0.77262 0.43961 0.11991 0.0
H5 H 0.72911 0.37433 0.97561 0.0
H6 H 0.69559 0.3911 0.91992 0.0
H7 H 0.68479 0.43878 0.10389 0.0
H8 H 0.7196 0.42315 0.15661 0.0
H9 H 0.80214 0.37006 0.10824 0.0
H10 H 0.76327 0.4121 0.9707 0.0
O11 O 0.74794 0.35807 0.12668 0.0
H12 H 0.83969 0.38006 0.04062 0.0
H13 H 0.79985 0.41994 0.89883 0.0
C14 C 0.76487 0.4066 0.17921 0.0
C15 C 0.7675 0.39606 0.24353 0.0
C16 C 0.78085 0.40949 0.29599 0.0
C17 C 0.79198 0.43347 0.28422 0.0
C18 C 0.78796 0.44452 0.22137 0.0
C19 C 0.77439 0.43121 0.1694 0.0
C20 C 0.72733 0.39807 0.06911 0.0
C21 C 0.71954 0.38848 0.0037 0.0
C22 C 0.70014 0.39798 0.97221 0.0
C23 C 0.68749 0.41662 0.00682 0.0
C24 C 0.69453 0.42507 0.07447 0.0
C25 C 0.71436 0.41597 0.10513 0.0
C26 C 0.77969 0.38976 0.04391 0.0
C27 C 0.80145 0.38053 0.06171 0.0
C28 C 0.82295 0.38621 0.02259 0.0
C29 C 0.82302 0.40099 0.96404 0.0
C30 C 0.80076 0.409 0.9443 0.0
C31 C 0.77949 0.40397 0.98474 0.0
P32 P 0.96014 0.76764 0.14219 0.0
H33 H 0.96931 0.77243 0.29129 0.0
H34 H 0.95106 0.79709 0.3844 0.0
H35 H 0.89279 0.81014 0.24944 0.0
H36 H 0.91114 0.7848 0.15587 0.0
H37 H 0.96646 0.71714 0.17678 0.0
H38 H 0.95662 0.67725 0.11518 0.0
H39 H 0.91605 0.71309 0.96629 0.0
H40 H 0.9264 0.75325 0.02821 0.0
H41 H 0.95102 0.82064 0.14504 0.0
H42 H 0.97977 0.76684 0.99894 0.0
O43 O 0.98814 0.76425 0.16876 0.0
H44 H 0.95895 0.85257 0.0602 0.0
H45 H 0.98874 0.79943 0.91437 0.0
C46 C 0.94196 0.77751 0.21612 0.0
C47 C 0.95213 0.77976 0.28227 0.0
C48 C 0.94151 0.79374 0.33589 0.0
C49 C 0.92069 0.80588 0.32382 0.0
C50 C 0.90895 0.80113 0.25989 0.0
C51 C 0.91939 0.78669 0.20653 0.0
C52 C 0.94779 0.73813 0.10565 0.0
C53 C 0.95507 0.71635 0.13162 0.0
C54 C 0.94922 0.69349 0.09661 0.0
C55 C 0.9358 0.69202 0.03519 0.0
C56 C 0.92679 0.7137 0.01273 0.0
C57 C 0.93265 0.73662 0.04804 0.0
C58 C 0.96386 0.79095 0.07749 0.0
C59 C 0.95833 0.81538 0.09411 0.0
C60 C 0.96301 0.83377 0.04561 0.0
C61 C 0.97408 0.82832 0.98049 0.0
C62 C 0.97991 0.80397 0.96401 0.0
C63 C 0.97475 0.7854 0.01215 0.0
P64 P 0.75788 0.06529 0.1899 0.0
H65 H 0.74191 0.08132 0.32939 0.0
H66 H 0.71335 0.06142 0.4129 0.0
H67 H 0.71325 0.99212 0.29056 0.0
H68 H 0.74124 0.01275 0.20508 0.0
H69 H 0.78551 0.07789 0.06459 0.0
H70 H 0.82103 0.06198 0.0059 0.0
H71 H 0.8233 0.00853 0.16559 0.0
H72 H 0.78804 0.02533 0.22565 0.0
H73 H 0.71849 0.097 0.17778 0.0
H74 H 0.74388 0.0322 0.06963 0.0
O75 O 0.76652 0.09455 0.2165 0.0
H76 H 0.68363 0.09466 0.10099 0.0
H77 H 0.70913 0.02975 0.99277 0.0
C78 C 0.74395 0.04844 0.26151 0.0
C79 C 0.73645 0.06164 0.32164 0.0
C80 C 0.72009 0.05011 0.36974 0.0
C81 C 0.71083 0.02511 0.3585 0.0
C82 C 0.71977 0.01146 0.30045 0.0
C83 C 0.73601 0.02313 0.25197 0.0
C84 C 0.78391 0.05249 0.14859 0.0
C85 C 0.79358 0.06266 0.08681 0.0
C86 C 0.81378 0.05338 0.05301 0.0
C87 C 0.82475 0.03365 0.08035 0.0
C88 C 0.81522 0.0237 0.14314 0.0
C89 C 0.79496 0.03315 0.17723 0.0
C90 C 0.73411 0.06525 0.12799 0.0
C91 C 0.71679 0.08256 0.13669 0.0
C92 C 0.69678 0.08104 0.0933 0.0
C93 C 0.69373 0.06206 0.04076 0.0
C94 C 0.71122 0.0448 0.03206 0.0
C95 C 0.73112 0.04624 0.07583 0.0
P96 P 0.53685 0.75798 0.19242 0.0
H97 H 0.50875 0.7403 0.31396 0.0
H98 H 0.51753 0.71163 0.40133 0.0
H99 H 0.59276 0.71548 0.32798 0.0
H100 H 0.58407 0.74551 0.24241 0.0
H101 H 0.56241 0.77261 0.06157 0.0
H102 H 0.57382 0.8137 0.01804 0.0
H103 H 0.56031 0.84665 0.22333 0.0
H104 H 0.5491 0.80518 0.26724 0.0
H105 H 0.4977 0.7313 0.11102 0.0
H106 H 0.57556 0.73025 0.12734 0.0
O107 O 0.50841 0.76593 0.20455 0.0
H108 H 0.49648 0.69428 0.0329 0.0
H109 H 0.57431 0.69282 0.05017 0.0
C110 C 0.54569 0.74485 0.27104 0.0
C111 C 0.52737 0.73581 0.31814 0.0
C112 C 0.53235 0.71913 0.36768 0.0
C113 C 0.55566 0.7107 0.37006 0.0
C114 C 0.57459 0.72152 0.32714 0.0
C115 C 0.56961 0.7386 0.27801 0.0
C116 C 0.55495 0.78579 0.16787 0.0
C117 C 0.56301 0.78845 0.09829 0.0
C118 C 0.56957 0.81206 0.07326 0.0
C119 C 0.56768 0.83337 0.11716 0.0
C120 C 0.5618 0.8305 0.18836 0.0
C121 C 0.55554 0.80683 0.21355 0.0
C122 C 0.53669 0.7334 0.1257 0.0
C123 C 0.51461 0.72337 0.09708 0.0
C124 C 0.51392 0.70224 0.05219 0.0
C125 C 0.53529 0.69065 0.0359 0.0
C126 C 0.55755 0.70129 0.0625 0.0
C127 C 0.55826 0.72261 0.10671 0.0
P128 P 0.24069 0.45752 0.26795 0.0
H129 H 0.23618 0.43543 0.12625 0.0
H130 H 0.21613 0.44848 0.02434 0.0
H131 H 0.20673 0.51933 0.13047 0.0
H132 H 0.22722 0.5064 0.23142 0.0
H133 H 0.27626 0.43148 0.33587 0.0
H134 H 0.31639 0.44456 0.38169 0.0
H135 H 0.31263 0.51801 0.30618 0.0
H136 H 0.27228 0.50462 0.25911 0.0
H137 H 0.19311 0.43514 0.31409 0.0
H138 H 0.23996 0.50185 0.3632 0.0
O139 O 0.23733 0.42651 0.25965 0.0
H140 H 0.1607 0.45085 0.38847 0.0
H141 H 0.20744 0.51773 0.43742 0.0
C142 C 0.2327 0.46973 0.18703 0.0
C143 C 0.23038 0.45401 0.12696 0.0
C144 C 0.21882 0.46145 0.06881 0.0
C145 C 0.20941 0.48474 0.0699 0.0
C146 C 0.2138 0.50129 0.12785 0.0
C147 C 0.22541 0.49384 0.18592 0.0
C148 C 0.27144 0.46697 0.29326 0.0
C149 C 0.28422 0.45025 0.32768 0.0
C150 C 0.3072 0.45773 0.3538 0.0
C151 C 0.31768 0.48225 0.34701 0.0
C152 C 0.30494 0.499 0.31196 0.0
C153 C 0.28199 0.49134 0.28487 0.0
C154 C 0.21909 0.46712 0.33383 0.0
C155 C 0.19668 0.45285 0.34238 0.0
C156 C 0.17815 0.46185 0.38498 0.0
C157 C 0.18157 0.48549 0.41884 0.0
C158 C 0.20431 0.49946 0.41183 0.0
C159 C 0.22296 0.49031 0.36974 0.0
P160 P 0.14106 0.25515 0.33985 0.0
H161 H 0.16815 0.24388 0.20875 0.0
H162 H 0.15688 0.21713 0.10548 0.0
H163 H 0.08375 0.20308 0.19261 0.0
H164 H 0.09515 0.22912 0.29525 0.0
H165 H 0.15695 0.30106 0.41802 0.0
H166 H 0.13812 0.34004 0.44036 0.0
H167 H 0.08104 0.31416 0.29828 0.0
H168 H 0.09992 0.27555 0.27553 0.0
H169 H 0.15264 0.20844 0.39321 0.0
H170 H 0.09807 0.25986 0.43363 0.0
O171 O 0.17134 0.25793 0.3466 0.0
H172 H 0.12842 0.17767 0.46236 0.0
H173 H 0.07399 0.22937 0.5033 0.0
C174 C 0.13258 0.23818 0.26001 0.0
C175 C 0.14968 0.23514 0.2052 0.0
C176 C 0.1432 0.21997 0.14619 0.0
C177 C 0.11954 0.20773 0.14154 0.0
C178 C 0.10226 0.21181 0.19537 0.0
C179 C 0.10875 0.2268 0.254 0.0
C180 C 0.13001 0.28546 0.34469 0.0
C181 C 0.14077 0.30408 0.3902 0.0
C182 C 0.13004 0.32632 0.40286 0.0
C183 C 0.10813 0.33002 0.37103 0.0
C184 C 0.09789 0.3117 0.32359 0.0
C185 C 0.10876 0.28962 0.31045 0.0
C186 C 0.12733 0.23651 0.40862 0.0
C187 C 0.13593 0.21347 0.41921 0.0
C188 C 0.12204 0.19588 0.4587 0.0
C189 C 0.09918 0.20103 0.48774 0.0
C190 C 0.0914 0.22478 0.48089 0.0
C191 C 0.10532 0.24234 0.44147 0.0
P192 P 0.2818 0.09317 0.27995 0.0
H193 H 0.30439 0.1266 0.17608 0.0
H194 H 0.33225 0.11875 0.07775 0.0
H195 H 0.31614 0.03965 0.09876 0.0
H196 H 0.28799 0.04767 0.19664 0.0
H197 H 0.25192 0.09147 0.40569 0.0
H198 H 0.21122 0.07203 0.43396 0.0
H199 H 0.2029 0.04652 0.21857 0.0
H200 H 0.24402 0.06615 0.19033 0.0
H201 H 0.33223 0.10788 0.31385 0.0
H202 H 0.27777 0.04755 0.35981 0.0
O203 O 0.28297 0.12366 0.2993 0.0
H204 H 0.36265 0.08704 0.37332 0.0
H205 H 0.30787 0.02727 0.42168 0.0
C206 C 0.29398 0.0877 0.19326 0.0
C207 C 0.30604 0.10757 0.1578 0.0
C208 C 0.32219 0.10307 0.10205 0.0
C209 C 0.32667 0.07859 0.08136 0.0
C210 C 0.31296 0.0587 0.1132 0.0
C211 C 0.29678 0.06325 0.16898 0.0
C212 C 0.25108 0.0799 0.29633 0.0
C213 C 0.24136 0.08171 0.36447 0.0
C214 C 0.2182 0.07045 0.38062 0.0
C215 C 0.20414 0.05738 0.32864 0.0
C216 C 0.2135 0.05633 0.25959 0.0
C217 C 0.23695 0.06747 0.24354 0.0
C218 C 0.30256 0.0797 0.33421 0.0
C219 C 0.32666 0.09051 0.33834 0.0
C220 C 0.34405 0.07853 0.3718 0.0
C221 C 0.33749 0.05566 0.40239 0.0
C222 C 0.31325 0.04504 0.39923 0.0
C223 C 0.296 0.05678 0.36438 0.0
P224 P 0.35491 0.2626 0.28584 0.0
H225 H 0.32655 0.27745 0.16997 0.0
H226 H 0.33904 0.29875 0.06285 0.0
H227 H 0.41471 0.29457 0.11015 0.0
H228 H 0.40209 0.27308 0.2159 0.0
H229 H 0.34953 0.23141 0.40514 0.0
H230 H 0.36857 0.19431 0.43345 0.0
H231 H 0.39955 0.18958 0.2239 0.0
H232 H 0.38056 0.2267 0.19606 0.0
H233 H 0.3458 0.31293 0.33379 0.0
H234 H 0.39978 0.26205 0.36452 0.0
O235 O 0.32485 0.26238 0.30027 0.0
H236 H 0.37049 0.34576 0.39861 0.0
H237 H 0.42391 0.29424 0.43161 0.0
C238 C 0.36342 0.2736 0.20059 0.0
C239 C 0.34579 0.2806 0.15629 0.0
C240 C 0.35296 0.29288 0.09529 0.0
C241 C 0.37787 0.29838 0.07792 0.0
C242 C 0.39538 0.29027 0.12113 0.0
C243 C 0.3882 0.27809 0.18192 0.0
C244 C 0.36398 0.23208 0.29905 0.0
C245 C 0.35992 0.222 0.36479 0.0
C246 C 0.37075 0.20074 0.3808 0.0
C247 C 0.38582 0.18919 0.33112 0.0
C248 C 0.38838 0.19834 0.2636 0.0
C249 C 0.37751 0.21961 0.24766 0.0
C250 C 0.37061 0.28488 0.34559 0.0
C251 C 0.36256 0.3086 0.35639 0.0
C252 C 0.37671 0.32735 0.39354 0.0
C253 C 0.39925 0.32268 0.42025 0.0
C254 C 0.40682 0.29859 0.41107 0.0
C255 C 0.39279 0.27999 0.37346 0.0
Tb256 Tb 0.99794 0.99836 0.64641 0.0
C257 C 0.0491 0.02037 0.59138 0.0
Tb258 Tb 0.02784 0.03737 0.74051 0.0
O259 O 0.9939 0.02635 0.56932 0.0
O260 O 0.99817 0.0366 0.67357 0.0
O261 O 0.03255 0.00082 0.58751 0.0
C262 C 0.05268 0.07806 0.7949 0.0
O263 O 0.0488 0.03787 0.64225 0.0
C264 C 0.02836 0.9912 0.77539 0.0
C265 C 0.97673 0.01564 0.79507 0.0
O266 O 0.06131 0.05674 0.78244 0.0
O267 O 0.03 0.07636 0.77749 0.0
O268 O 0.03187 0.01023 0.81903 0.0
O269 O 0.02746 0.99885 0.71455 0.0
O270 O 0.99309 0.03534 0.79734 0.0
O271 O 0.97737 0.99739 0.74625 0.0
C272 C 0.97298 0.95787 0.59089 0.0
O273 O 0.96348 0.97784 0.61408 0.0
O274 O 0.9964 0.9609 0.59816 0.0
C275 C 0.99728 0.04507 0.61403 0.0
Tb276 Tb 0.5106 0.05172 0.65532 0.0
C277 C 0.55088 0.01615 0.61171 0.0
Tb278 Tb 0.51413 0.00419 0.74067 0.0
O279 O 0.54578 0.06962 0.68848 0.0
O280 O 0.52606 0.0427 0.74875 0.0
O281 O 0.5376 0.03364 0.5915 0.0
C282 C 0.5286 0.97064 0.8235 0.0
O283 O 0.54602 0.00387 0.6697 0.0
C284 C 0.47838 0.00155 0.65198 0.0
C285 C 0.47565 0.04072 0.79043 0.0
O286 O 0.52174 0.96613 0.75961 0.0
O287 O 0.52695 0.9939 0.84101 0.0
O288 O 0.47827 0.98739 0.70485 0.0
O289 O 0.49904 0.01359 0.64741 0.0
O290 O 0.4881 0.02227 0.80826 0.0
O291 O 0.48088 0.05346 0.73351 0.0
C292 C 0.4938 0.08252 0.56777 0.0
O293 O 0.49947 0.08817 0.63219 0.0
O294 O 0.49799 0.05966 0.55248 0.0
C295 C 0.5465 0.05518 0.74066 0.0
Tb296 Tb 0.52082 0.51278 0.66728 0.0
C297 C 0.46388 0.503 0.64533 0.0
Tb298 Tb 0.48978 0.47498 0.76053 0.0
O299 O 0.51433 0.48863 0.5739 0.0
O300 O 0.51377 0.47376 0.67249 0.0
O301 O 0.48432 0.51742 0.63217 0.0
C302 C 0.46275 0.43599 0.81176 0.0
O303 O 0.46216 0.48533 0.69161 0.0
C304 C 0.49983 0.5195 0.81746 0.0
C305 C 0.54664 0.48126 0.77319 0.0
O306 O 0.46254 0.44277 0.74786 0.0
O307 O 0.47801 0.4512 0.84648 0.0
O308 O 0.49265 0.50039 0.85359 0.0
O309 O 0.49663 0.51371 0.75417 0.0
O310 O 0.52656 0.4656 0.77677 0.0
O311 O 0.54802 0.5021 0.7384 0.0
C312 C 0.54401 0.5553 0.62533 0.0
O313 O 0.54961 0.53322 0.60461 0.0
O314 O 0.52548 0.5532 0.66873 0.0
C315 C 0.50925 0.46868 0.60914 0.0
Tb316 Tb 0.97804 0.50084 0.63639 0.0
C317 C 0.02073 0.46646 0.60648 0.0
Tb318 Tb 0.02218 0.50673 0.73322 0.0
O319 O -0.00047 0.51573 0.54795 0.0
O320 O 0.00999 0.52567 0.64905 0.0
O321 O 0.99806 0.47059 0.59184 0.0
C322 C 0.06615 0.51348 0.79015 0.0
O323 O 0.03336 0.47862 0.65721 0.0
C324 C 0.98393 0.47882 0.77946 0.0
C325 C 0.98179 0.54258 0.75673 0.0
O326 O 0.04555 0.51655 0.82252 0.0
O327 O 0.06201 0.50682 0.72557 0.0
O328 O 0.00014 0.4903 0.81981 0.0
O329 O 0.99124 0.48099 0.71727 0.0
O330 O 0.00578 0.54128 0.75572 0.0
O331 O 0.96693 0.52595 0.72187 0.0
C332 C 0.93385 0.49046 0.58312 0.0
O333 O 0.94591 0.51232 0.58615 0.0
O334 O 0.94672 0.47464 0.60974 0.0
C335 C 0.01701 0.5265 0.58581 0.0
C336 C 0.15898 0.05008 0.31257 0.0
C337 C 0.17975 0.04526 0.34799 0.0
C338 C 0.13548 0.0427 0.33954 0.0
C339 C 0.13292 0.03035 0.40321 0.0
C340 C 0.15388 0.02349 0.43542 0.0
C341 C 0.17704 0.03102 0.40731 0.0
C342 C 0.11354 0.0499 0.30299 0.0
C343 C 0.15202 0.01024 0.50321 0.0
C344 C 0.08419 0.04563 0.5368 0.0
C345 C 0.06886 0.02336 0.5373 0.0
C346 C 0.10431 0.04852 0.4906 0.0
C347 C 0.10928 0.02868 0.44315 0.0
C348 C 0.09311 0.00667 0.44029 0.0
C349 C 0.07305 0.00422 0.4877 0.0
C350 C 0.12097 0.07242 0.49513 0.0
C351 C 0.09758 0.98533 0.38943 0.0
H352 H 0.16107 0.06101 0.26645 0.0
H353 H 0.19314 0.02686 0.43389 0.0
H354 H 0.09858 0.03462 0.30333 0.0
H355 H 0.1066 0.06635 0.33096 0.0
H356 H 0.11811 0.05469 0.24813 0.0
H357 H 0.16967 0.00357 0.51672 0.0
H358 H 0.14635 0.02316 0.54609 0.0
H359 H 0.13799 0.99413 0.50041 0.0
H360 H 0.08086 0.06075 0.57385 0.0
H361 H 0.06113 0.98706 0.48715 0.0
H362 H 0.12313 0.08073 0.44331 0.0
H363 H 0.13935 0.0685 0.51111 0.0
H364 H 0.11403 0.08637 0.53317 0.0
H365 H 0.10285 0.9922 0.33697 0.0
H366 H 0.08124 0.97166 0.38485 0.0
H367 H 0.11289 0.97557 0.40736 0.0
C368 C 0.39147 0.15112 0.39663 0.0
C369 C 0.40108 0.16982 0.35248 0.0
C370 C 0.40673 0.1352 0.42564 0.0
C371 C 0.43214 0.1381 0.40998 0.0
C372 C 0.44169 0.15598 0.36238 0.0
C373 C 0.42606 0.17164 0.33427 0.0
C374 C 0.39584 0.11596 0.47514 0.0
C375 C 0.46866 0.15953 0.34414 0.0
C376 C 0.47385 0.12094 0.54963 0.0
C377 C 0.48017 0.0977 0.52401 0.0
C378 C 0.4584 0.13434 0.51253 0.0
C379 C 0.44904 0.12418 0.44834 0.0
C380 C 0.45584 0.10095 0.42139 0.0
C381 C 0.47141 0.08797 0.45959 0.0
C382 C 0.45164 0.15913 0.54284 0.0
C383 C 0.44605 0.08942 0.35355 0.0
H384 H 0.37211 0.14939 0.40994 0.0
H385 H 0.43367 0.1862 0.30083 0.0
H386 H 0.39966 0.09714 0.45483 0.0
H387 H 0.40437 0.11909 0.52679 0.0
H388 H 0.37578 0.1163 0.48259 0.0
H389 H 0.47284 0.17262 0.3015 0.0
H390 H 0.47879 0.16695 0.39086 0.0
H391 H 0.47555 0.14145 0.32797 0.0
H392 H 0.4805 0.12839 0.59964 0.0
H393 H 0.47608 0.06983 0.44011 0.0
H394 H 0.43161 0.15829 0.55283 0.0
H395 H 0.45653 0.17381 0.505 0.0
H396 H 0.46091 0.16465 0.59251 0.0
H397 H 0.42627 0.08363 0.36053 0.0
H398 H 0.45541 0.07285 0.33561 0.0
H399 H 0.4481 0.10312 0.31203 0.0
C400 C 0.3605 0.47539 0.37376 0.0
C401 C 0.34108 0.49035 0.38081 0.0
C402 C 0.38134 0.48061 0.41382 0.0
C403 C 0.38268 0.50121 0.46238 0.0
C404 C 0.36372 0.51719 0.46691 0.0
C405 C 0.34312 0.5116 0.4258 0.0
C406 C 0.40129 0.46327 0.40699 0.0
C407 C 0.36448 0.53926 0.51826 0.0
C408 C 0.41989 0.49207 0.61984 0.0
C409 C 0.4423 0.50536 0.603 0.0
C410 C 0.40006 0.49145 0.57575 0.0
C411 C 0.40268 0.50434 0.51305 0.0
C412 C 0.4249 0.51859 0.49698 0.0
C413 C 0.44446 0.51898 0.54228 0.0
C414 C 0.37663 0.47606 0.59491 0.0
C415 C 0.4284 0.53244 0.43038 0.0
H416 H 0.35904 0.45911 0.33837 0.0
H417 H 0.32803 0.52308 0.43171 0.0
H418 H 0.41934 0.47399 0.39994 0.0
H419 H 0.40177 0.45304 0.4556 0.0
H420 H 0.39855 0.44949 0.36246 0.0
H421 H 0.34983 0.55144 0.50962 0.0
H422 H 0.36224 0.53262 0.57215 0.0
H423 H 0.3824 0.55047 0.51462 0.0
H424 H 0.41797 0.48156 0.66672 0.0
H425 H 0.46173 0.5292 0.52858 0.0
H426 H 0.3737 0.45994 0.55718 0.0
H427 H 0.36084 0.48723 0.59196 0.0
H428 H 0.37685 0.46895 0.64823 0.0
H429 H 0.42854 0.51891 0.38507 0.0
H430 H 0.44577 0.54472 0.42907 0.0
H431 H 0.41303 0.5439 0.42391 0.0
C432 C 0.10654 0.37574 0.39625 0.0
C433 C 0.09469 0.35162 0.39295 0.0
C434 C 0.09432 0.39591 0.42305 0.0
C435 C 0.06994 0.39162 0.44889 0.0
C436 C 0.0577 0.36739 0.44362 0.0
C437 C 0.07018 0.34772 0.41519 0.0
C438 C 0.10796 0.42148 0.42641 0.0
C439 C 0.03188 0.36196 0.47167 0.0
C440 C 0.04884 0.43325 0.59847 0.0
C441 C 0.03285 0.44725 0.56554 0.0
C442 C 0.06126 0.41533 0.56076 0.0
C443 C 0.05797 0.41171 0.48804 0.0
C444 C 0.04236 0.42634 0.45408 0.0
C445 C 0.02966 0.44377 0.49354 0.0
C446 C 0.07777 0.40016 0.59893 0.0
C447 C 0.03928 0.42369 0.37617 0.0
H448 H 0.12547 0.37877 0.37867 0.0
H449 H 0.06109 0.32902 0.41342 0.0
H450 H 0.09571 0.43613 0.41814 0.0
H451 H 0.11589 0.42512 0.47869 0.0
H452 H 0.12312 0.42299 0.38677 0.0
H453 H 0.02449 0.34243 0.45974 0.0
H454 H 0.03138 0.36542 0.52917 0.0
H455 H 0.0197 0.37456 0.44943 0.0
H456 H 0.05144 0.43612 0.65415 0.0
H457 H 0.01773 0.45509 0.46793 0.0
H458 H 0.09671 0.40323 0.57741 0.0
H459 H 0.07179 0.38006 0.59118 0.0
H460 H 0.07794 0.40499 0.65586 0.0
H461 H 0.05738 0.42656 0.34896 0.0
H462 H 0.02729 0.4372 0.35735 0.0
H463 H 0.03137 0.4046 0.36138 0.0
C464 C 0.84767 0.02232 0.97067 0.0
C465 C 0.84651 0.02433 0.04383 0.0
C466 C 0.86932 0.01745 0.93454 0.0
C467 C 0.89024 0.01401 0.9725 0.0
C468 C 0.88867 0.01399 0.04629 0.0
C469 C 0.86683 0.01935 0.08122 0.0
C470 C 0.87021 0.01765 0.85577 0.0
C471 C 0.91044 0.00981 0.08846 0.0
C472 C 0.94267 0.9919 0.86029 0.0
C473 C 0.95624 0.01456 0.84677 0.0
C474 C 0.92185 0.99114 0.90474 0.0
C475 C 0.91423 0.01362 0.93492 0.0
C476 C 0.92845 0.03639 0.92356 0.0
C477 C 0.9494 0.03654 0.88014 0.0
C478 C 0.90754 0.96645 0.91725 0.0
C479 C 0.92083 0.06082 0.95422 0.0
H480 H 0.83182 0.02546 0.94146 0.0
H481 H 0.86611 0.02085 0.13776 0.0
H482 H 0.88244 0.03391 0.83878 0.0
H483 H 0.87782 0.0007 0.83306 0.0
H484 H 0.85191 0.01872 0.83404 0.0
H485 H 0.90516 0.006 0.14358 0.0
H486 H 0.91992 0.99404 0.06527 0.0
H487 H 0.92368 0.02662 0.08808 0.0
H488 H 0.94813 0.9748 0.83543 0.0
H489 H 0.95982 0.0541 0.86988 0.0
H490 H 0.89002 0.9653 0.8898 0.0
H491 H 0.90306 0.96464 0.9737 0.0
H492 H 0.91766 0.95053 0.8982 0.0
H493 H 0.90324 0.06455 0.9321 0.0
H494 H 0.93457 0.07669 0.94335 0.0
H495 H 0.91792 0.05993 0.01154 0.0
C496 C 0.58445 0.86599 0.03504 0.0
C497 C 0.567 0.8578 0.08581 0.0
C498 C 0.58114 0.8866 0.99571 0.0
C499 C 0.55959 0.89881 0.00638 0.0
C500 C 0.54259 0.8914 0.06012 0.0
C501 C 0.54661 0.87111 0.09953 0.0
C502 C 0.60002 0.89443 0.94023 0.0
C503 C 0.51921 0.90365 0.07257 0.0
C504 C 0.55032 0.96039 0.92868 0.0
C505 C 0.53743 0.95239 0.86871 0.0
C506 C 0.55874 0.94317 0.97246 0.0
C507 C 0.55337 0.91742 0.95692 0.0
C508 C 0.54049 0.90931 0.89596 0.0
C509 C 0.53296 0.92694 0.85205 0.0
C510 C 0.57302 0.95253 0.03576 0.0
C511 C 0.534 0.88201 0.87819 0.0
H512 H 0.60026 0.85574 0.02453 0.0
H513 H 0.53288 0.86461 0.13796 0.0
H514 H 0.59282 0.88884 0.88792 0.0
H515 H 0.60406 0.91495 0.94229 0.0
H516 H 0.6173 0.88577 0.94589 0.0
H517 H 0.50884 0.89698 0.11979 0.0
H518 H 0.52312 0.92412 0.0785 0.0
H519 H 0.50744 0.89965 0.02677 0.0
H520 H 0.55394 0.98013 0.94121 0.0
H521 H 0.52299 0.9208 0.8056 0.0
H522 H 0.58995 0.94303 0.03775 0.0
H523 H 0.56202 0.94818 0.08387 0.0
H524 H 0.57803 0.97293 0.03604 0.0
H525 H 0.55075 0.87212 0.87385 0.0
H526 H 0.52418 0.87882 0.82843 0.0
H527 H 0.52227 0.87359 0.92064 0.0
C528 C 0.66362 0.45268 0.98368 0.0
C529 C 0.66736 0.42745 0.97205 0.0
C530 C 0.64464 0.46303 0.95172 0.0
C531 C 0.62946 0.44803 0.90531 0.0
C532 C 0.63343 0.42276 0.89197 0.0
C533 C 0.65202 0.41269 0.92633 0.0
C534 C 0.64058 0.48992 0.96851 0.0
C535 C 0.61785 0.40624 0.8419 0.0
C536 C 0.56521 0.46311 0.87241 0.0
C537 C 0.56825 0.47457 0.80839 0.0
C538 C 0.58518 0.4553 0.90582 0.0
C539 C 0.60864 0.45833 0.87319 0.0
C540 C 0.61187 0.47017 0.80876 0.0
C541 C 0.59161 0.47855 0.77755 0.0
C542 C 0.58108 0.44347 0.97551 0.0
C543 C 0.6365 0.47312 0.77158 0.0
H544 H 0.6756 0.46448 0.01755 0.0
H545 H 0.6543 0.39309 0.91777 0.0
H546 H 0.64192 0.50043 0.92009 0.0
H547 H 0.62191 0.49115 0.99126 0.0
H548 H 0.65396 0.49906 0.00591 0.0
H549 H 0.62456 0.3876 0.83293 0.0
H550 H 0.59878 0.40378 0.86272 0.0
H551 H 0.61749 0.41506 0.79094 0.0
H552 H 0.54712 0.4603 0.89655 0.0
H553 H 0.59387 0.48729 0.72777 0.0
H554 H 0.59384 0.45287 0.01414 0.0
H555 H 0.58488 0.42368 0.97025 0.0
H556 H 0.5621 0.44432 0.99633 0.0
H557 H 0.65027 0.48305 0.80636 0.0
H558 H 0.63611 0.48346 0.72304 0.0
H559 H 0.64266 0.45451 0.75787 0.0
C560 C 0.93964 0.66984 0.91871 0.0
C561 C 0.93432 0.66874 0.99058 0.0
C562 C 0.94365 0.64831 0.87801 0.0
C563 C 0.94242 0.62518 0.91006 0.0
C564 C 0.93509 0.62365 0.98126 0.0
C565 C 0.93108 0.64548 0.02069 0.0
C566 C 0.95118 0.6507 0.80205 0.0
C567 C 0.93334 0.59928 0.01718 0.0
C568 C 0.94642 0.56644 0.79486 0.0
C569 C 0.97144 0.56341 0.79659 0.0
C570 C 0.93655 0.58633 0.83201 0.0
C571 C 0.95207 0.6035 0.87186 0.0
C572 C 0.97727 0.60037 0.87439 0.0
C573 C 0.98663 0.58041 0.8367 0.0
C574 C 0.90962 0.58913 0.82805 0.0
C575 C 0.99443 0.61826 0.91658 0.0
H576 H 0.94238 0.68773 0.89503 0.0
H577 H 0.92653 0.64447 0.07595 0.0
H578 H 0.97096 0.64846 0.79523 0.0
H579 H 0.94122 0.63588 0.76922 0.0
H580 H 0.94781 0.66907 0.78273 0.0
H581 H 0.92403 0.60056 0.06931 0.0
H582 H 0.92337 0.58431 0.98489 0.0
H583 H 0.95198 0.59378 0.02416 0.0
H584 H 0.93451 0.55337 0.7641 0.0
H585 H 0.00594 0.57819 0.83871 0.0
H586 H 0.90696 0.607 0.80459 0.0
H587 H 0.90112 0.58968 0.88127 0.0
H588 H 0.89989 0.57375 0.79649 0.0
H589 H 0.99454 0.63726 0.89711 0.0
H590 H 0.01343 0.61292 0.91409 0.0
H591 H 0.98805 0.61906 0.97204 0.0
C592 C 0.09087 0.16367 0.56092 0.0
C593 C 0.08234 0.18078 0.51712 0.0
C594 C 0.07573 0.14272 0.58151 0.0
C595 C 0.05154 0.13882 0.55748 0.0
C596 C 0.04251 0.15663 0.51597 0.0
C597 C 0.05802 0.17736 0.49622 0.0
C598 C 0.08578 0.12458 0.62789 0.0
C599 C 0.0168 0.15322 0.48973 0.0
C600 C 0.02314 0.07232 0.53477 0.0
C601 C 0.00872 0.06975 0.59593 0.0
C602 C 0.0373 0.09469 0.52203 0.0
C603 C 0.03636 0.11517 0.57061 0.0
C604 C 0.02104 0.11293 0.63116 0.0
C605 C 0.00745 0.09013 0.64323 0.0
C606 C 0.05394 0.0961 0.45785 0.0
C607 C 0.01933 0.13444 0.68361 0.0
H608 H 0.10953 0.16647 0.57806 0.0
H609 H 0.05138 0.19032 0.46166 0.0
H610 H 0.07699 0.12598 0.68061 0.0
H611 H 0.0816 0.10521 0.60723 0.0
H612 H 0.10584 0.12827 0.63333 0.0
H613 H 0.01182 0.16991 0.46392 0.0
H614 H 0.01497 0.13712 0.45158 0.0
H615 H 0.00354 0.1491 0.53342 0.0
H616 H 0.02431 0.05645 0.49851 0.0
H617 H 0.99608 0.08809 0.69022 0.0
H618 H 0.07311 0.10089 0.47344 0.0
H619 H 0.04907 0.11103 0.42469 0.0
H620 H 0.05295 0.07831 0.42616 0.0
H621 H 0.03752 0.14009 0.7055 0.0
H622 H 0.00619 0.12978 0.72729 0.0
H623 H 0.0136 0.15073 0.65759 0.0
C624 C 0.37827 0.03914 0.40148 0.0
C625 C 0.35607 0.04275 0.43646 0.0
C626 C 0.39671 0.02841 0.43462 0.0
C627 C 0.39299 0.02161 0.5048 0.0
C628 C 0.37022 0.02435 0.53947 0.0
C629 C 0.35192 0.03473 0.50455 0.0
C630 C 0.42062 0.02548 0.39572 0.0
C631 C 0.36579 0.018 0.6149 0.0
C632 C 0.44063 0.98643 0.58752 0.0
C633 C 0.45645 0.00623 0.61412 0.0
C634 C 0.41976 0.99094 0.55132 0.0
C635 C 0.41417 0.01575 0.54481 0.0
C636 C 0.42954 0.03561 0.57444 0.0
C637 C 0.45073 0.03056 0.60678 0.0
C638 C 0.40398 0.96932 0.51913 0.0
C639 C 0.42367 0.0623 0.57187 0.0
H640 H 0.38131 0.04503 0.34841 0.0
H641 H 0.33475 0.03763 0.53159 0.0
H642 H 0.43537 0.03801 0.42029 0.0
H643 H 0.42558 0.00617 0.39893 0.0
H644 H 0.41994 0.02987 0.33989 0.0
H645 H 0.34623 0.01794 0.63113 0.0
H646 H 0.37193 0.99954 0.62419 0.0
H647 H 0.37656 0.0319 0.64874 0.0
H648 H 0.44494 0.96752 0.59343 0.0
H649 H 0.46244 0.04588 0.62744 0.0
H650 H 0.40397 0.97091 0.46168 0.0
H651 H 0.38482 0.96969 0.53861 0.0
H652 H 0.41041 0.95114 0.53058 0.0
H653 H 0.42417 0.06786 0.51696 0.0
H654 H 0.4366 0.07541 0.60193 0.0
H655 H 0.40496 0.06426 0.59331 0.0
C656 C 0.40608 0.36142 0.4979 0.0
C657 C 0.41559 0.34317 0.45326 0.0
C658 C 0.42133 0.38146 0.52626 0.0
C659 C 0.44668 0.38324 0.50971 0.0
C660 C 0.45644 0.36468 0.46577 0.0
C661 C 0.44079 0.34496 0.4379 0.0
C662 C 0.41024 0.40104 0.57253 0.0
C663 C 0.48336 0.36598 0.44671 0.0
C664 C 0.48236 0.44688 0.51944 0.0
C665 C 0.49421 0.44639 0.58275 0.0
C666 C 0.46671 0.4265 0.49537 0.0
C667 C 0.46288 0.40512 0.5356 0.0
C668 C 0.47493 0.4045 0.5995 0.0
C669 C 0.49068 0.4251 0.62196 0.0
C670 C 0.45444 0.42781 0.42659 0.0
C671 C 0.47129 0.38207 0.64396 0.0
H672 H 0.38668 0.36007 0.51059 0.0
H673 H 0.44828 0.33127 0.4024 0.0
H674 H 0.42031 0.40429 0.62171 0.0
H675 H 0.41181 0.41891 0.54585 0.0
H676 H 0.39067 0.39581 0.58559 0.0
H677 H 0.48822 0.34945 0.41451 0.0
H678 H 0.48876 0.38286 0.4171 0.0
H679 H 0.49422 0.36747 0.49465 0.0
H680 H 0.48503 0.46336 0.48905 0.0
H681 H 0.50006 0.42467 0.67063 0.0
H682 H 0.43454 0.42248 0.4325 0.0
H683 H 0.46184 0.41438 0.38789 0.0
H684 H 0.45729 0.44666 0.40539 0.0
H685 H 0.45156 0.37611 0.65144 0.0
H686 H 0.47946 0.38576 0.69604 0.0
H687 H 0.47983 0.36634 0.61706 0.0
C688 C 0.14499 0.48188 0.49995 0.0
C689 C 0.16063 0.49627 0.4554 0.0
C690 C 0.12313 0.49048 0.52637 0.0
C691 C 0.11666 0.51388 0.50699 0.0
C692 C 0.13302 0.52906 0.46518 0.0
C693 C 0.1549 0.5201 0.44008 0.0
C694 C 0.10624 0.47375 0.57114 0.0
C695 C 0.12664 0.55396 0.44285 0.0
C696 C 0.04843 0.51534 0.49751 0.0
C697 C 0.04272 0.52749 0.56123 0.0
C698 C 0.07259 0.51183 0.47799 0.0
C699 C 0.09157 0.52082 0.52318 0.0
C700 C 0.08608 0.53461 0.58547 0.0
C701 C 0.0616 0.53798 0.60348 0.0
C702 C 0.07759 0.49731 0.41063 0.0
C703 C 0.10585 0.54527 0.63396 0.0
H704 H 0.1495 0.46355 0.5124 0.0
H705 H 0.16684 0.53117 0.40508 0.0
H706 H 0.09808 0.48455 0.61502 0.0
H707 H 0.09107 0.46505 0.53906 0.0
H708 H 0.11574 0.45869 0.59255 0.0
H709 H 0.1422 0.56443 0.41553 0.0
H710 H 0.11106 0.55116 0.40716 0.0
H711 H 0.12082 0.56542 0.48874 0.0
H712 H 0.0339 0.50738 0.46423 0.0
H713 H 0.05715 0.54789 0.65199 0.0
H714 H 0.08353 0.479 0.42254 0.0
H715 H 0.09256 0.50726 0.3798 0.0
H716 H 0.06121 0.49403 0.37796 0.0
H717 H 0.11997 0.53219 0.63869 0.0
H718 H 0.09835 0.54999 0.68688 0.0
H719 H 0.11498 0.56256 0.61251 0.0
C720 C 0.00595 0.85351 0.91231 0.0
C721 C 0.98141 0.8487 0.93321 0.0
C722 C 0.01407 0.87524 0.87799 0.0
C723 C 0.99711 0.89225 0.86329 0.0
C724 C 0.972 0.88653 0.8798 0.0
C725 C 0.96448 0.86492 0.91542 0.0
C726 C 0.04104 0.88087 0.86237 0.0
C727 C 0.95329 0.90394 0.86352 0.0
C728 C 0.0186 0.96093 0.86779 0.0
C729 C 0.02175 0.96554 0.79673 0.0
C730 C 0.01102 0.93704 0.88989 0.0
C731 C 0.00597 0.91736 0.83956 0.0
C732 C 0.00935 0.92185 0.76762 0.0
C733 C 0.01773 0.94586 0.74719 0.0
C734 C 0.00817 0.93296 0.96721 0.0
C735 C 0.00361 0.9015 0.71237 0.0
H736 H 0.01906 0.84104 0.92668 0.0
H737 H 0.94546 0.86105 0.93129 0.0
H738 H 0.04429 0.88673 0.80799 0.0
H739 H 0.04838 0.89652 0.89748 0.0
H740 H 0.05141 0.86462 0.86995 0.0
H741 H 0.93432 0.89525 0.87091 0.0
H742 H 0.95565 0.92093 0.89829 0.0
H743 H 0.95588 0.90986 0.80898 0.0
H744 H 0.02187 0.9761 0.90636 0.0
H745 H 0.02111 0.94925 0.69258 0.0
H746 H 0.01904 0.91777 0.98121 0.0
H747 H 0.98879 0.92718 0.98089 0.0
H748 H 0.01408 0.94994 0.99945 0.0
H749 H 0.01398 0.88538 0.72095 0.0
H750 H 0.00794 0.90789 0.6588 0.0
H751 H 0.98392 0.89486 0.71603 0.0
C752 C 0.67453 0.05568 0.92395 0.0
C753 C 0.67202 0.05989 0.9964 0.0
C754 C 0.65413 0.05394 0.88143 0.0
C755 C 0.63071 0.05636 0.9123 0.0
C756 C 0.62802 0.06015 0.98552 0.0
C757 C 0.64874 0.06195 0.02669 0.0
C758 C 0.65766 0.04986 0.80345 0.0
C759 C 0.60329 0.0625 0.0203 0.0
C760 C 0.58177 0.07764 0.80077 0.0
C761 C 0.56761 0.05527 0.78563 0.0
C762 C 0.60237 0.07825 0.84206 0.0
C763 C 0.60909 0.05584 0.86782 0.0
C764 C 0.5951 0.03309 0.85126 0.0
C765 C 0.5745 0.03312 0.81017 0.0
C766 C 0.61691 0.10286 0.85824 0.0
C767 C 0.60183 0.00875 0.87691 0.0
H768 H 0.69253 0.0542 0.90037 0.0
H769 H 0.6467 0.06478 0.08282 0.0
H770 H 0.64606 0.0331 0.78476 0.0
H771 H 0.65186 0.06591 0.77644 0.0
H772 H 0.67696 0.04754 0.78793 0.0
H773 H 0.59517 0.0787 0.00049 0.0
H774 H 0.59077 0.04572 0.0072 0.0
H775 H 0.60426 0.06485 0.078 0.0
H776 H 0.57658 0.09474 0.78079 0.0
H777 H 0.56436 0.01574 0.79516 0.0
H778 H 0.63611 0.10209 0.83947 0.0
H779 H 0.61717 0.10671 0.91554 0.0
H780 H 0.60932 0.11855 0.83378 0.0
H781 H 0.62146 0.00667 0.86599 0.0
H782 H 0.59089 0.9925 0.85239 0.0
H783 H 0.59873 0.00847 0.93432 0.0
C784 C 0.54414 0.64628 0.02333 0.0
C785 C 0.53383 0.6664 0.9964 0.0
C786 C 0.5404 0.62239 0.99162 0.0
C787 C 0.52621 0.61863 0.93119 0.0
C788 C 0.51683 0.63913 0.9017 0.0
C789 C 0.52057 0.66277 0.93508 0.0
C790 C 0.55061 0.60098 0.02478 0.0
C791 C 0.50206 0.6359 0.83644 0.0
C792 C 0.52841 0.55796 0.8243 0.0
C793 C 0.50678 0.54463 0.84677 0.0
C794 C 0.53489 0.58227 0.85049 0.0
C795 C 0.51965 0.59304 0.90197 0.0
C796 C 0.49814 0.57922 0.92649 0.0
C797 C 0.49199 0.55508 0.89857 0.0
C798 C 0.55803 0.59633 0.82336 0.0
C799 C 0.48158 0.58998 0.98195 0.0
H800 H 0.55419 0.64902 0.07116 0.0
H801 H 0.5128 0.67839 0.91393 0.0
H802 H 0.5354 0.58818 0.04549 0.0
H803 H 0.56094 0.59017 0.98539 0.0
H804 H 0.56285 0.60733 0.06828 0.0
H805 H 0.49841 0.65401 0.81594 0.0
H806 H 0.5117 0.62523 0.79508 0.0
H807 H 0.48433 0.6251 0.84796 0.0
H808 H 0.54053 0.54919 0.78733 0.0
H809 H 0.47544 0.54447 0.91657 0.0
H810 H 0.57103 0.60033 0.86628 0.0
H811 H 0.55399 0.61447 0.80407 0.0
H812 H 0.56706 0.5858 0.78034 0.0
H813 H 0.49193 0.59533 0.02984 0.0
H814 H 0.46569 0.57669 0.99576 0.0
H815 H 0.47472 0.60709 0.96355 0.0
C816 C 0.86608 0.39501 0.92239 0.0
C817 C 0.84641 0.40981 0.92769 0.0
C818 C 0.88895 0.4043 0.89515 0.0
C819 C 0.89206 0.42871 0.87075 0.0
C820 C 0.87204 0.44327 0.87245 0.0
C821 C 0.84964 0.43383 0.9019 0.0
C822 C 0.91002 0.38837 0.89503 0.0
C823 C 0.87451 0.46921 0.84544 0.0
C824 C 0.95361 0.46659 0.8734 0.0
C825 C 0.9613 0.46457 0.80329 0.0
C826 C 0.93151 0.45415 0.89654 0.0
C827 C 0.91658 0.43982 0.84794 0.0
C828 C 0.92459 0.43723 0.77733 0.0
C829 C 0.94717 0.44924 0.75626 0.0
C830 C 0.92389 0.45683 0.97268 0.0
C831 C 0.90897 0.4226 0.72358 0.0
H832 H 0.86377 0.37626 0.94066 0.0
H833 H 0.83492 0.44577 0.90678 0.0
H834 H 0.91851 0.38684 0.84196 0.0
H835 H 0.92428 0.39725 0.93012 0.0
H836 H 0.90433 0.36936 0.91269 0.0
H837 H 0.85663 0.47706 0.84375 0.0
H838 H 0.88663 0.4817 0.87954 0.0
H839 H 0.883 0.46917 0.79217 0.0
H840 H 0.96472 0.47818 0.91009 0.0
H841 H 0.95374 0.4467 0.70292 0.0
H842 H 0.91903 0.43824 0.99409 0.0
H843 H 0.90743 0.46715 0.97821 0.0
H844 H 0.93849 0.46689 0.0046 0.0
H845 H 0.90289 0.40378 0.74171 0.0
H846 H 0.91873 0.42068 0.67227 0.0
H847 H 0.89234 0.43213 0.71611 0.0
C848 C 0.11911 0.19534 0.01352 0.0
C849 C 0.11288 0.18977 0.08288 0.0
C850 C 0.11158 0.17871 0.95809 0.0
C851 C 0.09757 0.15611 0.97275 0.0
C852 C 0.09182 0.15018 0.0428 0.0
C853 C 0.09962 0.16703 0.09687 0.0
C854 C 0.11813 0.18552 0.88399 0.0
C855 C 0.07702 0.12621 0.06076 0.0
C856 C 0.05338 0.12081 0.84892 0.0
C857 C 0.06568 0.09989 0.83043 0.0
C858 C 0.06432 0.1403 0.89128 0.0
C859 C 0.08809 0.1387 0.91564 0.0
C860 C 0.10123 0.1184 0.89289 0.0
C861 C 0.08981 0.09915 0.8505 0.0
C862 C 0.04974 0.16168 0.91407 0.0
C863 C 0.12669 0.11614 0.91716 0.0
H864 H 0.12932 0.21294 0.00254 0.0
H865 H 0.09523 0.1624 0.15049 0.0
H866 H 0.12716 0.17033 0.85586 0.0
H867 H 0.10128 0.18787 0.85585 0.0
H868 H 0.13043 0.203 0.88157 0.0
H869 H 0.0745 0.12426 0.118 0.0
H870 H 0.05875 0.12537 0.03755 0.0
H871 H 0.08611 0.11007 0.03841 0.0
H872 H 0.03475 0.12143 0.83302 0.0
H873 H 0.09942 0.08305 0.83553 0.0
H874 H 0.06099 0.17969 0.90926 0.0
H875 H 0.04408 0.16007 0.96985 0.0
H876 H 0.0331 0.16193 0.88303 0.0
H877 H 0.13816 0.13405 0.91297 0.0
H878 H 0.1357 0.10143 0.88666 0.0
H879 H 0.12581 0.11148 0.97293 0.0
C880 C 0.37037 0.08753 0.0446 0.0
C881 C 0.3477 0.07392 0.03386 0.0
C882 C 0.39111 0.08224 0.00448 0.0
C883 C 0.38915 0.06287 0.95221 0.0
C884 C 0.36626 0.04928 0.94025 0.0
C885 C 0.34578 0.0549 0.98151 0.0
C886 C 0.41521 0.09709 0.01896 0.0
C887 C 0.36348 0.02862 0.88449 0.0
C888 C 0.43882 0.06404 0.81047 0.0
C889 C 0.45395 0.04675 0.83334 0.0
C890 C 0.41753 0.06921 0.84817 0.0
C891 C 0.41118 0.05685 0.91042 0.0
C892 C 0.42628 0.03936 0.93388 0.0
C893 C 0.4475 0.0345 0.89502 0.0
C894 C 0.40187 0.08795 0.82142 0.0
C895 C 0.42003 0.02582 9e-05 0.0
H896 H 0.37208 0.10189 0.08601 0.0
H897 H 0.32828 0.04439 0.97303 0.0
H898 H 0.42863 0.08456 0.03497 0.0
H899 H 0.4227 0.10594 0.97082 0.0
H900 H 0.41353 0.11184 0.06071 0.0
H901 H 0.34433 0.02019 0.88086 0.0
H902 H 0.36958 0.03581 0.83295 0.0
H903 H 0.37526 0.01385 0.89568 0.0
H904 H 0.44342 0.07345 0.76251 0.0
H905 H 0.45896 0.02101 0.9129 0.0
H906 H 0.40083 0.10368 0.86036 0.0
H907 H 0.38298 0.0793 0.81407 0.0
H908 H 0.40904 0.09545 0.77107 0.0
H909 H 0.41942 0.03939 0.04519 0.0
H910 H 0.43344 0.01244 0.01051 0.0
H911 H 0.40165 0.01554 0.99669 0.0
C912 C 0.3746 0.33674 0.01224 0.0
C913 C 0.38587 0.31489 0.02007 0.0
C914 C 0.38488 0.35505 0.96781 0.0
C915 C 0.407 0.35145 0.93064 0.0
C916 C 0.41732 0.32856 0.9338 0.0
C917 C 0.4066 0.31053 0.97847 0.0
C918 C 0.37319 0.37912 0.96547 0.0
C919 C 0.44077 0.3239 0.89451 0.0
C920 C 0.43215 0.39887 0.79967 0.0
C921 C 0.44838 0.41431 0.84088 0.0
C922 C 0.41858 0.37811 0.82766 0.0
C923 C 0.42131 0.37293 0.8985 0.0
C924 C 0.43777 0.38854 0.94008 0.0
C925 C 0.4511 0.40902 0.91069 0.0
C926 C 0.40126 0.36188 0.78173 0.0
C927 C 0.44128 0.38367 0.01583 0.0
H928 H 0.35867 0.34036 0.04442 0.0
H929 H 0.41513 0.29346 0.98327 0.0
H930 H 0.38417 0.39394 0.99575 0.0
H931 H 0.37275 0.38507 0.91105 0.0
H932 H 0.35428 0.37751 0.98799 0.0
H933 H 0.44426 0.304 0.89355 0.0
H934 H 0.44038 0.32982 0.84004 0.0
H935 H 0.45626 0.33505 0.92002 0.0
H936 H 0.43004 0.40305 0.7457 0.0
H937 H 0.46368 0.42095 0.94257 0.0
H938 H 0.38228 0.36261 0.80242 0.0
H939 H 0.40544 0.34223 0.78213 0.0
H940 H 0.40221 0.36774 0.72688 0.0
H941 H 0.42369 0.38417 0.04556 0.0
H942 H 0.45494 0.39751 0.04067 0.0
H943 H 0.44738 0.36486 0.02028 0.0
C944 C 0.17353 0.47223 0.99593 0.0
C945 C 0.19223 0.49036 0.01601 0.0
C946 C 0.15494 0.47786 0.95294 0.0
C947 C 0.15506 0.50223 0.92908 0.0
C948 C 0.17451 0.52033 0.94624 0.0
C949 C 0.19283 0.51422 0.98996 0.0
C950 C 0.13445 0.45804 0.93625 0.0
C951 C 0.17545 0.54639 0.92077 0.0
C952 C 0.11042 0.50704 0.78518 0.0
C953 C 0.08991 0.51404 0.82359 0.0
C954 C 0.13241 0.50467 0.81807 0.0
C955 C 0.13368 0.509 0.89127 0.0
C956 C 0.1133 0.51717 0.92973 0.0
C957 C 0.09167 0.51969 0.89529 0.0
C958 C 0.1538 0.49625 0.77501 0.0
C959 C 0.11385 0.52187 0.00792 0.0
H960 H 0.17268 0.45388 0.01677 0.0
H961 H 0.20735 0.52824 0.00492 0.0
H962 H 0.11711 0.46353 0.96072 0.0
H963 H 0.13191 0.45607 0.87909 0.0
H964 H 0.13784 0.43964 0.95532 0.0
H965 H 0.19313 0.55734 0.93177 0.0
H966 H 0.17251 0.54589 0.86377 0.0
H967 H 0.16057 0.55616 0.9468 0.0
H968 H 0.10904 0.50251 0.72983 0.0
H969 H 0.07581 0.52514 0.92504 0.0
H970 H 0.15626 0.47672 0.78611 0.0
H971 H 0.17087 0.50774 0.789 0.0
H972 H 0.1511 0.49728 0.71811 0.0
H973 H 0.11527 0.50408 0.0334 0.0
H974 H 0.09724 0.53005 0.02919 0.0
H975 H 0.1301 0.53459 0.02229 0.0
C976 C 0.91505 0.85071 0.34234 0.0
C977 C 0.91527 0.82733 0.37081 0.0
C978 C 0.91881 0.87257 0.38433 0.0
C979 C 0.92254 0.87091 0.45653 0.0
C980 C 0.91941 0.84742 0.48688 0.0
C981 C 0.91602 0.82581 0.44345 0.0
C982 C 0.92198 0.8972 0.34966 0.0
C983 C 0.92238 0.84493 0.56403 0.0
C984 C 0.97281 0.91694 0.52733 0.0
C985 C 0.95964 0.93534 0.55988 0.0
C986 C 0.96082 0.89573 0.49472 0.0
C987 C 0.93495 0.89262 0.49579 0.0
C988 C 0.92151 0.91075 0.53086 0.0
C989 C 0.93407 0.93213 0.56198 0.0
C990 C 0.97592 0.87695 0.45752 0.0
C991 C 0.89397 0.90779 0.53449 0.0
H992 H 0.9146 0.85203 0.2862 0.0
H993 H 0.91587 0.80774 0.46569 0.0
H994 H 0.91306 0.91163 0.38135 0.0
H995 H 0.94174 0.90349 0.34493 0.0
H996 H 0.91436 0.89581 0.29657 0.0
H997 H 0.91406 0.82665 0.58153 0.0
H998 H 0.94211 0.84653 0.57547 0.0
H999 H 0.914 0.85995 0.59487 0.0
H1000 H 0.99259 0.91937 0.52601 0.0
H1001 H 0.9239 0.94631 0.58782 0.0
H1002 H 0.97149 0.87513 0.40139 0.0
H1003 H 0.97155 0.85842 0.47964 0.0
H1004 H 0.99584 0.8822 0.46171 0.0
H1005 H 0.88682 0.91036 0.48224 0.0
H1006 H 0.88643 0.92153 0.57214 0.0
H1007 H 0.88717 0.88878 0.54982 0.0
C1008 C 0.68709 0.02197 0.47228 0.0
C1009 C 0.68947 0.01486 0.40125 0.0
C1010 C 0.66468 0.01777 0.50872 0.0
C1011 C 0.64433 0.0057 0.47359 0.0
C1012 C 0.64731 0.99607 0.40433 0.0
C1013 C 0.66978 0.00097 0.36871 0.0
C1014 C 0.66227 0.02831 0.5827 0.0
C1015 C 0.6262 0.98252 0.36568 0.0
C1016 C 0.58625 0.99117 0.58268 0.0
C1017 C 0.57353 0.01184 0.57121 0.0
C1018 C 0.609 0.98835 0.54943 0.0
C1019 C 0.61942 0.00689 0.50495 0.0
C1020 C 0.60639 0.02745 0.49195 0.0
C1021 C 0.58354 0.02955 0.52473 0.0
C1022 C 0.62212 0.9659 0.56319 0.0
C1023 C 0.61696 0.04777 0.44524 0.0
H1024 H 0.70239 0.03212 0.49839 0.0
H1025 H 0.67125 0.99542 0.31384 0.0
H1026 H 0.65159 0.04471 0.58329 0.0
H1027 H 0.65227 0.01448 0.61659 0.0
H1028 H 0.68032 0.03423 0.60545 0.0
H1029 H 0.63248 0.97212 0.31816 0.0
H1030 H 0.61537 0.96931 0.3998 0.0
H1031 H 0.6139 0.99615 0.34951 0.0
H1032 H 0.57858 0.97734 0.61834 0.0
H1033 H 0.57396 0.04565 0.51586 0.0
H1034 H 0.63852 0.97172 0.59409 0.0
H1035 H 0.62845 0.95707 0.51333 0.0
H1036 H 0.61036 0.95182 0.59239 0.0
H1037 H 0.63435 0.05661 0.46649 0.0
H1038 H 0.60437 0.06241 0.44017 0.0
H1039 H 0.62114 0.03978 0.39238 0.0
C1040 C 0.5797 0.6874 0.4507 0.0
C1041 C 0.55904 0.68861 0.41057 0.0
C1042 C 0.58235 0.66633 0.48922 0.0
C1043 C 0.56393 0.64614 0.48717 0.0
C1044 C 0.54341 0.64709 0.44523 0.0
C1045 C 0.5413 0.6682 0.40741 0.0
C1046 C 0.60451 0.66588 0.53313 0.0
C1047 C 0.52336 0.62595 0.44108 0.0
C1048 C 0.56858 0.57986 0.53593 0.0
C1049 C 0.55425 0.57914 0.59758 0.0
C1050 C 0.57402 0.60231 0.5021 0.0
C1051 C 0.56494 0.62434 0.53103 0.0
C1052 C 0.55252 0.62398 0.59684 0.0
C1053 C 0.54722 0.60134 0.6291 0.0
C1054 C 0.58757 0.60196 0.43245 0.0
C1055 C 0.54271 0.64701 0.6301 0.0
H1056 H 0.59352 0.70308 0.453 0.0
H1057 H 0.52565 0.66868 0.37483 0.0
H1058 H 0.59889 0.6662 0.58921 0.0
H1059 H 0.61329 0.64847 0.52161 0.0
H1060 H 0.61818 0.68199 0.52425 0.0
H1061 H 0.50896 0.62939 0.4045 0.0
H1062 H 0.53109 0.60841 0.42371 0.0
H1063 H 0.5147 0.62316 0.49353 0.0
H1064 H 0.57417 0.5627 0.5118 0.0
H1065 H 0.53635 0.60084 0.6773 0.0
H1066 H 0.60088 0.61861 0.42827 0.0
H1067 H 0.57437 0.60232 0.39014 0.0
H1068 H 0.59739 0.58502 0.4238 0.0
H1069 H 0.5563 0.66341 0.62565 0.0
H1070 H 0.53763 0.64473 0.68612 0.0
H1071 H 0.5262 0.65092 0.60251 0.0
C1072 C 0.8052 0.44758 0.40482 0.0
C1073 C 0.81034 0.44545 0.33288 0.0
C1074 C 0.82342 0.45696 0.45128 0.0
C1075 C 0.84739 0.46366 0.42508 0.0
C1076 C 0.85247 0.46196 0.35227 0.0
C1077 C 0.83383 0.45308 0.30708 0.0
C1078 C 0.81721 0.45907 0.5284 0.0
C1079 C 0.87789 0.46841 0.32224 0.0
C1080 C 0.89664 0.50239 0.5269 0.0
C1081 C 0.91033 0.4839 0.54927 0.0
C1082 C 0.8752 0.49606 0.48971 0.0
C1083 C 0.86772 0.4707 0.47343 0.0
C1084 C 0.88112 0.45199 0.49812 0.0
C1085 C 0.90214 0.45884 0.53637 0.0
C1086 C 0.86104 0.51649 0.46575 0.0
C1087 C 0.87401 0.42475 0.48106 0.0
H1088 H 0.78699 0.44171 0.42468 0.0
H1089 H 0.83791 0.45108 0.25153 0.0
H1090 H 0.82661 0.44536 0.55613 0.0
H1091 H 0.82372 0.47782 0.55018 0.0
H1092 H 0.79727 0.45566 0.53953 0.0
H1093 H 0.87859 0.46682 0.26428 0.0
H1094 H 0.8847 0.48766 0.33909 0.0
H1095 H 0.89054 0.45579 0.34218 0.0
H1096 H 0.90288 0.52179 0.5375 0.0
H1097 H 0.9127 0.44452 0.55386 0.0
H1098 H 0.84131 0.51244 0.47867 0.0
H1099 H 0.86302 0.5175 0.40821 0.0
H1100 H 0.86748 0.53494 0.48988 0.0
H1101 H 0.85464 0.41973 0.49644 0.0
H1102 H 0.88552 0.41251 0.50764 0.0
H1103 H 0.87586 0.42096 0.42387 0.0
loop_
_geom_bond_atom_site_label_1
_geom_bond_atom_site_label_2
_geom_bond_distance
_geom_bond_site_symmetry_2
_ccdc_geom_bond_type
P0 O11 1.490 . S
P0 C14 1.812 . S
P0 C20 1.803 . S
P0 C26 1.819 . S
H1 C15 0.941 . S
H2 C16 0.939 . S
H3 C18 0.940 . S
H4 C19 0.940 . S
H5 C21 0.939 1_556 S
H6 C22 0.942 . S
H7 C24 0.940 . S
H8 C25 0.939 . S
H9 C27 0.937 1_554 S
H10 C31 0.939 . S
O11 P0 1.490 . S
H12 C28 0.939 . S
H13 C30 0.940 . S
C14 P0 1.812 . S
C14 C15 1.389 . S
C14 C19 1.391 . S
C15 H1 0.941 . S
C15 C14 1.389 . S
C15 C16 1.397 . S
C16 H2 0.939 . S
C16 C15 1.397 . S
C16 C17 1.378 . S
C17 C16 1.378 . S
C17 C18 1.378 . S
C18 H3 0.940 . S
C18 C17 1.378 . S
C18 C19 1.396 . S
C19 H4 0.940 . S
C19 C14 1.391 . S
C19 C18 1.396 . S
C20 P0 1.803 . S
C20 C21 1.378 . S
C20 C25 1.400 . S
C21 H5 0.939 1_554 S
C21 C20 1.378 . S
C21 C22 1.361 1_554 S
C22 H6 0.942 . S
C22 C21 1.361 1_556 S
C22 C23 1.369 1_556 S
C23 C22 1.369 1_554 S
C23 C24 1.404 . S
C24 H7 0.940 . S
C24 C23 1.404 . S
C24 C25 1.389 . S
C25 H8 0.939 . S
C25 C20 1.400 . S
C25 C24 1.389 . S
C26 P0 1.819 . S
C26 C27 1.391 1_554 S
C26 C31 1.391 1_554 S
C27 H9 0.937 1_556 S
C27 C26 1.391 1_556 S
C27 C28 1.401 . S
C28 H12 0.939 . S
C28 C27 1.401 . S
C28 C29 1.397 . S
C29 C28 1.397 . S
C29 C30 1.385 . S
C30 H13 0.940 . S
C30 C29 1.385 . S
C30 C31 1.388 . S
C31 H10 0.939 . S
C31 C26 1.391 1_556 S
C31 C30 1.388 . S
P32 O43 1.490 . S
P32 C46 1.812 . S
P32 C52 1.803 . S
P32 C58 1.819 1_554 S
H33 C47 0.941 . S
H34 C48 0.939 . S
H35 C50 0.940 . S
H36 C51 0.940 . S
H37 C53 0.939 . S
H38 C54 0.942 . S
H39 C56 0.940 . S
H40 C57 0.939 . S
H41 C59 0.941 1_554 S
H42 C63 0.939 . S
O43 P32 1.490 . S
H44 C60 0.939 . S
H45 C62 0.940 . S
C46 P32 1.812 . S
C46 C47 1.389 . S
C46 C51 1.391 . S
C47 H33 0.941 . S
C47 C46 1.389 . S
C47 C48 1.397 . S
C48 H34 0.939 . S
C48 C47 1.397 . S
C48 C49 1.378 . S
C49 C48 1.378 . S
C49 C50 1.378 . S
C50 H35 0.940 . S
C50 C49 1.378 . S
C50 C51 1.396 . S
C51 H36 0.940 . S
C51 C46 1.391 . S
C51 C50 1.396 . S
C52 P32 1.803 . S
C52 C53 1.378 1_554 S
C52 C57 1.400 . S
C53 H37 0.939 . S
C53 C52 1.378 1_556 S
C53 C54 1.361 . S
C54 H38 0.942 . S
C54 C53 1.361 . S
C54 C55 1.369 . S
C55 C54 1.369 . S
C55 C56 1.404 1_556 S
C56 H39 0.940 . S
C56 C55 1.404 1_554 S
C56 C57 1.389 . S
C57 H40 0.939 . S
C57 C52 1.400 . S
C57 C56 1.389 . S
C58 P32 1.819 1_556 S
C58 C59 1.391 . S
C58 C63 1.391 . S
C59 H41 0.941 1_556 S
C59 C58 1.391 . S
C59 C60 1.396 . S
C60 H44 0.939 . S
C60 C59 1.396 . S
C60 C61 1.397 . S
C61 C60 1.397 . S
C61 C62 1.385 . S
C62 H45 0.940 . S
C62 C61 1.385 . S
C62 C63 1.388 . S
C63 H42 0.939 . S
C63 C58 1.391 . S
C63 C62 1.388 . S
P64 O75 1.490 . S
P64 C78 1.812 . S
P64 C84 1.803 . S
P64 C90 1.819 . S
H65 C79 0.941 . S
H66 C80 0.939 . S
H67 C82 0.940 . S
H68 C83 0.949 . S
H69 C85 0.939 . S
H70 C86 0.942 . S
H71 C88 0.940 . S
H72 C89 0.958 . S
H73 C91 0.941 . S
H74 C95 0.926 1_565 S
O75 P64 1.490 . S
H76 C92 0.939 . S
H77 C94 0.940 . S
C78 P64 1.812 . S
C78 C79 1.389 . S
C78 C83 1.376 1_545 S
C79 H65 0.941 . S
C79 C78 1.389 . S
C79 C80 1.397 . S
C80 H66 0.939 . S
C80 C79 1.397 . S
C80 C81 1.378 . S
C81 C80 1.378 . S
C81 C82 1.378 1_545 S
C82 H67 0.940 . S
C82 C81 1.378 1_565 S
C82 C83 1.403 . S
C83 H68 0.949 . S
C83 C78 1.376 1_565 S
C83 C82 1.403 . S
C84 P64 1.803 . S
C84 C85 1.378 . S
C84 C89 1.367 1_545 S
C85 H69 0.939 . S
C85 C84 1.378 . S
C85 C86 1.361 . S
C86 H70 0.942 . S
C86 C85 1.361 . S
C86 C87 1.369 . S
C87 C86 1.369 . S
C87 C88 1.404 1_545 S
C88 H71 0.940 . S
C88 C87 1.404 1_565 S
C88 C89 1.404 . S
C89 H72 0.958 . S
C89 C84 1.367 1_565 S
C89 C88 1.404 . S
C90 P64 1.819 . S
C90 C91 1.391 . S
C90 C95 1.391 1_554 S
C91 H73 0.941 . S
C91 C90 1.391 . S
C91 C92 1.398 . S
C92 H76 0.939 . S
C92 C91 1.398 . S
C92 C93 1.396 1_554 S
C93 C92 1.396 1_556 S
C93 C94 1.385 1_545 S
C94 H77 0.940 . S
C94 C93 1.385 1_565 S
C94 C95 1.388 1_565 S
C95 H74 0.926 1_545 S
C95 C90 1.391 1_556 S
C95 C94 1.388 1_545 S
P96 O107 1.490 . S
P96 C110 1.812 . S
P96 C116 1.803 . S
P96 C122 1.819 . S
H97 C111 0.941 . S
H98 C112 0.939 . S
H99 C114 0.940 . S
H100 C115 0.940 . S
H101 C117 0.939 . S
H102 C118 0.942 1_556 S
H103 C120 0.940 . S
H104 C121 0.939 . S
H105 C123 0.941 . S
H106 C127 0.939 . S
O107 P96 1.490 . S
H108 C124 0.939 . S
H109 C126 0.940 . S
C110 P96 1.812 . S
C110 C111 1.389 . S
C110 C115 1.391 . S
C111 H97 0.941 . S
C111 C110 1.389 . S
C111 C112 1.397 . S
C112 H98 0.939 . S
C112 C111 1.397 . S
C112 C113 1.378 . S
C113 C112 1.378 . S
C113 C114 1.378 . S
C114 H99 0.940 . S
C114 C113 1.378 . S
C114 C115 1.396 . S
C115 H100 0.940 . S
C115 C110 1.391 . S
C115 C114 1.396 . S
C116 P96 1.803 . S
C116 C117 1.378 . S
C116 C121 1.400 . S
C117 H101 0.939 . S
C117 C116 1.378 . S
C117 C118 1.361 . S
C118 H102 0.942 1_554 S
C118 C117 1.361 . S
C118 C119 1.369 . S
C119 C118 1.369 . S
C119 C120 1.404 . S
C120 H103 0.940 . S
C120 C119 1.404 . S
C120 C121 1.389 . S
C121 H104 0.939 . S
C121 C116 1.400 . S
C121 C120 1.389 . S
C122 P96 1.819 . S
C122 C123 1.391 . S
C122 C127 1.391 1_554 S
C123 H105 0.941 . S
C123 C122 1.391 . S
C123 C124 1.396 1_554 S
C124 H108 0.939 . S
C124 C123 1.396 1_556 S
C124 C125 1.397 . S
C125 C124 1.397 . S
C125 C126 1.385 . S
C126 H109 0.940 . S
C126 C125 1.385 . S
C126 C127 1.388 . S
C127 H106 0.939 . S
C127 C122 1.391 1_556 S
C127 C126 1.388 . S
P128 O139 1.490 . S
P128 C142 1.812 . S
P128 C148 1.803 . S
P128 C154 1.819 . S
H129 C143 0.941 . S
H130 C144 0.939 . S
H131 C146 0.940 . S
H132 C147 0.940 . S
H133 C149 0.939 . S
H134 C150 0.942 . S
H135 C152 0.940 . S
H136 C153 0.939 . S
H137 C155 0.941 . S
H138 C159 0.939 . S
O139 P128 1.490 . S
H140 C156 0.939 . S
H141 C158 0.940 . S
C142 P128 1.812 . S
C142 C143 1.389 . S
C142 C147 1.391 . S
C143 H129 0.941 . S
C143 C142 1.389 . S
C143 C144 1.397 . S
C144 H130 0.939 . S
C144 C143 1.397 . S
C144 C145 1.378 . S
C145 C144 1.378 . S
C145 C146 1.378 . S
C146 H131 0.940 . S
C146 C145 1.378 . S
C146 C147 1.396 . S
C147 H132 0.940 . S
C147 C142 1.391 . S
C147 C146 1.396 . S
C148 P128 1.803 . S
C148 C149 1.378 . S
C148 C153 1.400 . S
C149 H133 0.939 . S
C149 C148 1.378 . S
C149 C150 1.361 . S
C150 H134 0.942 . S
C150 C149 1.361 . S
C150 C151 1.369 . S
C151 C150 1.369 . S
C151 C152 1.404 . S
C152 H135 0.940 . S
C152 C151 1.404 . S
C152 C153 1.389 . S
C153 H136 0.939 . S
C153 C148 1.400 . S
C153 C152 1.389 . S
C154 P128 1.819 . S
C154 C155 1.391 . S
C154 C159 1.391 . S
C155 H137 0.941 . S
C155 C154 1.391 . S
C155 C156 1.396 . S
C156 H140 0.939 . S
C156 C155 1.396 . S
C156 C157 1.397 . S
C157 C156 1.397 . S
C157 C158 1.385 . S
C158 H141 0.940 . S
C158 C157 1.385 . S
C158 C159 1.388 . S
C159 H138 0.939 . S
C159 C154 1.391 . S
C159 C158 1.388 . S
P160 O171 1.490 . S
P160 C174 1.812 . S
P160 C180 1.803 . S
P160 C186 1.819 . S
H161 C175 0.941 . S
H162 C176 0.939 . S
H163 C178 0.940 . S
H164 C179 0.940 . S
H165 C181 0.939 . S
H166 C182 0.942 . S
H167 C184 0.940 . S
H168 C185 0.939 . S
H169 C187 0.941 . S
H170 C191 0.939 . S
O171 P160 1.490 . S
H172 C188 0.939 . S
H173 C190 0.940 . S
C174 P160 1.812 . S
C174 C175 1.389 . S
C174 C179 1.391 . S
C175 H161 0.941 . S
C175 C174 1.389 . S
C175 C176 1.397 . S
C176 H162 0.939 . S
C176 C175 1.397 . S
C176 C177 1.378 . S
C177 C176 1.378 . S
C177 C178 1.378 . S
C178 H163 0.940 . S
C178 C177 1.378 . S
C178 C179 1.396 . S
C179 H164 0.940 . S
C179 C174 1.391 . S
C179 C178 1.396 . S
C180 P160 1.803 . S
C180 C181 1.378 . S
C180 C185 1.400 . S
C181 H165 0.939 . S
C181 C180 1.378 . S
C181 C182 1.361 . S
C182 H166 0.942 . S
C182 C181 1.361 . S
C182 C183 1.369 . S
C183 C182 1.369 . S
C183 C184 1.404 . S
C184 H167 0.940 . S
C184 C183 1.404 . S
C184 C185 1.389 . S
C185 H168 0.939 . S
C185 C180 1.400 . S
C185 C184 1.389 . S
C186 P160 1.819 . S
C186 C187 1.391 . S
C186 C191 1.391 . S
C187 H169 0.941 . S
C187 C186 1.391 . S
C187 C188 1.396 . S
C188 H172 0.939 . S
C188 C187 1.396 . S
C188 C189 1.397 . S
C189 C188 1.397 . S
C189 C190 1.385 . S
C190 H173 0.940 . S
C190 C189 1.385 . S
C190 C191 1.388 . S
C191 H170 0.939 . S
C191 C186 1.391 . S
C191 C190 1.388 . S
P192 O203 1.490 . S
P192 C206 1.812 . S
P192 C212 1.803 . S
P192 C218 1.819 . S
H193 C207 0.941 . S
H194 C208 0.939 . S
H195 C210 0.940 1_565 S
H196 C211 0.940 . S
H197 C213 0.939 . S
H198 C214 0.942 . S
H199 C216 0.940 1_565 S
H200 C217 0.939 . S
H201 C219 0.941 . S
H202 C223 0.939 . S
O203 P192 1.490 . S
H204 C220 0.939 . S
H205 C222 0.940 1_565 S
C206 P192 1.812 . S
C206 C207 1.389 . S
C206 C211 1.391 . S
C207 H193 0.941 . S
C207 C206 1.389 . S
C207 C208 1.397 . S
C208 H194 0.939 . S
C208 C207 1.397 . S
C208 C209 1.378 . S
C209 C208 1.378 . S
C209 C210 1.378 . S
C210 H195 0.940 1_545 S
C210 C209 1.378 . S
C210 C211 1.396 . S
C211 H196 0.940 . S
C211 C206 1.391 . S
C211 C210 1.396 . S
C212 P192 1.803 . S
C212 C213 1.378 . S
C212 C217 1.400 . S
C213 H197 0.939 . S
C213 C212 1.378 . S
C213 C214 1.361 . S
C214 H198 0.942 . S
C214 C213 1.361 . S
C214 C215 1.369 . S
C215 C214 1.369 . S
C215 C216 1.404 . S
C216 H199 0.940 1_545 S
C216 C215 1.404 . S
C216 C217 1.389 . S
C217 H200 0.939 . S
C217 C212 1.400 . S
C217 C216 1.389 . S
C218 P192 1.819 . S
C218 C219 1.391 . S
C218 C223 1.391 . S
C219 H201 0.941 . S
C219 C218 1.391 . S
C219 C220 1.396 . S
C220 H204 0.939 . S
C220 C219 1.396 . S
C220 C221 1.397 . S
C221 C220 1.397 . S
C221 C222 1.385 . S
C222 H205 0.940 1_545 S
C222 C221 1.385 . S
C222 C223 1.388 . S
C223 H202 0.939 . S
C223 C218 1.391 . S
C223 C222 1.388 . S
P224 O235 1.490 . S
P224 C238 1.812 . S
P224 C244 1.803 . S
P224 C250 1.819 . S
H225 C239 0.941 . S
H226 C240 0.939 . S
H227 C242 0.940 . S
H228 C243 0.940 . S
H229 C245 0.939 . S
H230 C246 0.942 . S
H231 C248 0.940 . S
H232 C249 0.939 . S
H233 C251 0.941 . S
H234 C255 0.939 . S
O235 P224 1.490 . S
H236 C252 0.939 . S
H237 C254 0.940 . S
C238 P224 1.812 . S
C238 C239 1.389 . S
C238 C243 1.391 . S
C239 H225 0.941 . S
C239 C238 1.389 . S
C239 C240 1.397 . S
C240 H226 0.939 . S
C240 C239 1.397 . S
C240 C241 1.378 . S
C241 C240 1.378 . S
C241 C242 1.378 . S
C242 H227 0.940 . S
C242 C241 1.378 . S
C242 C243 1.396 . S
C243 H228 0.940 . S
C243 C238 1.391 . S
C243 C242 1.396 . S
C244 P224 1.803 . S
C244 C245 1.378 . S
C244 C249 1.400 . S
C245 H229 0.939 . S
C245 C244 1.378 . S
C245 C246 1.361 . S
C246 H230 0.942 . S
C246 C245 1.361 . S
C246 C247 1.369 . S
C247 C246 1.369 . S
C247 C248 1.404 . S
C248 H231 0.940 . S
C248 C247 1.404 . S
C248 C249 1.389 . S
C249 H232 0.939 . S
C249 C244 1.400 . S
C249 C248 1.389 . S
C250 P224 1.819 . S
C250 C251 1.391 . S
C250 C255 1.391 . S
C251 H233 0.941 . S
C251 C250 1.391 . S
C251 C252 1.396 . S
C252 H236 0.939 . S
C252 C251 1.396 . S
C252 C253 1.397 . S
C253 C252 1.397 . S
C253 C254 1.385 . S
C254 H237 0.940 . S
C254 C253 1.385 . S
C254 C255 1.388 . S
C255 H234 0.939 . S
C255 C250 1.391 . S
C255 C254 1.388 . S
Tb256 O259 2.453 1_655 S
Tb256 O260 2.596 1_655 S
Tb256 O261 2.374 1_645 S
Tb256 O269 2.343 1_545 S
Tb256 O271 2.353 . S
Tb256 O273 2.427 1_545 S
Tb256 O274 2.513 1_545 S
C257 O261 1.251 1_545 S
C257 O263 1.263 . S
Tb258 O260 2.343 . S
Tb258 O263 2.353 . S
Tb258 O266 2.427 . S
Tb258 O267 2.513 . S
Tb258 O268 2.453 1_545 S
Tb258 O269 2.596 1_445 S
Tb258 O270 2.374 1_455 S
O259 Tb256 2.453 1_455 S
O259 C275 1.245 . S
O260 Tb256 2.596 1_455 S
O260 Tb258 2.343 . S
O260 C275 1.259 . S
O261 Tb256 2.374 1_465 S
O261 C257 1.251 1_565 S
C262 O266 1.275 . S
C262 O267 1.246 . S
O263 C257 1.263 . S
O263 Tb258 2.353 . S
C264 O268 1.245 1_655 S
C264 O269 1.259 . S
C265 O270 1.250 . S
C265 O271 1.263 . S
O266 Tb258 2.427 . S
O266 C262 1.275 . S
O267 Tb258 2.513 . S
O267 C262 1.246 . S
O268 Tb258 2.453 1_565 S
O268 C264 1.245 1_455 S
O269 Tb256 2.343 1_565 S
O269 Tb258 2.596 1_665 S
O269 C264 1.259 . S
O270 Tb258 2.374 1_655 S
O270 C265 1.250 . S
O271 Tb256 2.353 . S
O271 C265 1.263 . S
C272 O273 1.275 . S
C272 O274 1.246 . S
O273 Tb256 2.427 1_565 S
O273 C272 1.275 . S
O274 Tb256 2.513 1_565 S
O274 C272 1.246 . S
C275 O259 1.245 . S
C275 O260 1.259 . S
Tb276 O279 2.453 . S
Tb276 O280 2.596 . S
Tb276 O281 2.374 . S
Tb276 O289 2.343 . S
Tb276 O291 2.353 . S
Tb276 O293 2.427 . S
Tb276 O294 2.513 . S
C277 O281 1.251 . S
C277 O283 1.263 1_545 S
Tb278 O280 2.343 1_565 S
Tb278 O283 2.353 . S
Tb278 O286 2.427 . S
Tb278 O287 2.513 . S
Tb278 O288 2.453 . S
Tb278 O289 2.596 1_565 S
Tb278 O290 2.374 . S
O279 Tb276 2.453 . S
O279 C295 1.245 . S
O280 Tb276 2.596 . S
O280 Tb278 2.343 1_545 S
O280 C295 1.259 . S
O281 Tb276 2.374 . S
O281 C277 1.251 . S
C282 O286 1.275 . S
C282 O287 1.246 . S
O283 C277 1.263 1_565 S
O283 Tb278 2.353 . S
C284 O288 1.254 . S
C284 O289 1.255 1_565 S
C285 O290 1.250 1_545 S
C285 O291 1.263 . S
O286 Tb278 2.427 . S
O286 C282 1.275 . S
O287 Tb278 2.513 . S
O287 C282 1.246 . S
O288 Tb278 2.453 . S
O288 C284 1.254 . S
O289 Tb276 2.343 . S
O289 Tb278 2.596 1_545 S
O289 C284 1.255 1_545 S
O290 Tb278 2.374 . S
O290 C285 1.250 1_565 S
O291 Tb276 2.353 . S
O291 C285 1.263 . S
C292 O293 1.275 . S
C292 O294 1.246 . S
O293 Tb276 2.427 . S
O293 C292 1.275 . S
O294 Tb276 2.513 . S
O294 C292 1.246 . S
C295 O279 1.245 . S
C295 O280 1.259 . S
Tb296 O299 2.453 . S
Tb296 O300 2.596 . S
Tb296 O301 2.374 . S
Tb296 O309 2.343 . S
Tb296 O311 2.353 . S
Tb296 O313 2.427 . S
Tb296 O314 2.513 . S
C297 O301 1.251 . S
C297 O303 1.263 . S
Tb298 O300 2.343 . S
Tb298 O303 2.353 . S
Tb298 O306 2.427 . S
Tb298 O307 2.513 . S
Tb298 O308 2.453 . S
Tb298 O309 2.596 . S
Tb298 O310 2.374 . S
O299 Tb296 2.453 . S
O299 C315 1.245 . S
O300 Tb296 2.596 . S
O300 Tb298 2.343 . S
O300 C315 1.259 . S
O301 Tb296 2.374 . S
O301 C297 1.251 . S
C302 O306 1.275 . S
C302 O307 1.246 . S
O303 C297 1.263 . S
O303 Tb298 2.353 . S
C304 O308 1.245 . S
C304 O309 1.259 . S
C305 O310 1.250 . S
C305 O311 1.263 . S
O306 Tb298 2.427 . S
O306 C302 1.275 . S
O307 Tb298 2.513 . S
O307 C302 1.246 . S
O308 Tb298 2.453 . S
O308 C304 1.245 . S
O309 Tb296 2.343 . S
O309 Tb298 2.596 . S
O309 C304 1.259 . S
O310 Tb298 2.374 . S
O310 C305 1.250 . S
O311 Tb296 2.353 . S
O311 C305 1.263 . S
C312 O313 1.275 . S
C312 O314 1.246 . S
O313 Tb296 2.427 . S
O313 C312 1.275 . S
O314 Tb296 2.513 . S
O314 C312 1.246 . S
C315 O299 1.245 . S
C315 O300 1.259 . S
Tb316 O319 2.453 1_655 S
Tb316 O320 2.596 1_655 S
Tb316 O321 2.374 1_655 S
Tb316 O329 2.343 . S
Tb316 O331 2.353 . S
Tb316 O333 2.427 . S
Tb316 O334 2.513 . S
C317 O321 1.251 . S
C317 O323 1.263 . S
Tb318 O320 2.343 . S
Tb318 O323 2.353 . S
Tb318 O326 2.427 . S
Tb318 O327 2.513 . S
Tb318 O328 2.453 1_455 S
Tb318 O329 2.596 1_455 S
Tb318 O330 2.374 . S
O319 Tb316 2.453 1_455 S
O319 C335 1.245 . S
O320 Tb316 2.596 1_455 S
O320 Tb318 2.343 . S
O320 C335 1.259 . S
O321 Tb316 2.374 1_455 S
O321 C317 1.251 . S
C322 O326 1.275 . S
C322 O327 1.246 . S
O323 C317 1.263 . S
O323 Tb318 2.353 . S
C324 O328 1.245 . S
C324 O329 1.259 . S
C325 O330 1.250 1_655 S
C325 O331 1.263 . S
O326 Tb318 2.427 . S
O326 C322 1.275 . S
O327 Tb318 2.513 . S
O327 C322 1.246 . S
O328 Tb318 2.453 1_655 S
O328 C324 1.245 . S
O329 Tb316 2.343 . S
O329 Tb318 2.596 1_655 S
O329 C324 1.259 . S
O330 Tb318 2.374 . S
O330 C325 1.250 1_455 S
O331 Tb316 2.353 . S
O331 C325 1.263 . S
C332 O333 1.275 . S
C332 O334 1.246 . S
O333 Tb316 2.427 . S
O333 C332 1.275 . S
O334 Tb316 2.513 . S
O334 C332 1.246 . S
C335 O319 1.245 . S
C335 O320 1.259 . S
C336 C337 1.391 . S
C336 C338 1.394 . S
C336 H352 0.931 . S
C337 C336 1.391 . S
C337 C341 1.376 . S
C338 C336 1.394 . S
C338 C339 1.369 . S
C338 C342 1.531 . S
C339 C338 1.369 . S
C339 C340 1.410 . S
C339 C347 1.503 . S
C340 C339 1.410 . S
C340 C341 1.392 . S
C340 C343 1.511 1_545 S
C341 C337 1.376 . S
C341 C340 1.392 . S
C341 H353 0.929 . S
C342 C338 1.531 . S
C342 H354 0.960 . S
C342 H355 0.962 . S
C342 H356 0.960 . S
C343 C340 1.511 1_565 S
C343 H357 0.971 . S
C343 H358 0.957 1_565 S
C343 H359 0.961 . S
C344 C345 1.370 . S
C344 C346 1.363 . S
C344 H360 0.931 . S
C345 C344 1.370 . S
C345 C349 1.408 1_545 S
C346 C344 1.363 . S
C346 C347 1.370 . S
C346 C350 1.524 . S
C347 C339 1.503 . S
C347 C346 1.370 . S
C347 C348 1.403 1_545 S
C348 C347 1.403 1_565 S
C348 C349 1.404 . S
C348 C351 1.539 . S
C349 C345 1.408 1_565 S
C349 C348 1.404 . S
C349 H361 0.930 . S
C350 C346 1.524 . S
C350 H362 0.956 . S
C350 H363 0.961 . S
C350 H364 0.961 . S
C351 C348 1.539 . S
C351 H365 0.958 . S
C351 H366 0.961 . S
C351 H367 0.960 . S
H352 C336 0.931 . S
H353 C341 0.929 . S
H354 C342 0.960 . S
H355 C342 0.962 . S
H356 C342 0.960 . S
H357 C343 0.971 . S
H358 C343 0.957 1_545 S
H359 C343 0.961 . S
H360 C344 0.931 . S
H361 C349 0.930 . S
H362 C350 0.956 . S
H363 C350 0.961 . S
H364 C350 0.961 . S
H365 C351 0.958 . S
H366 C351 0.961 . S
H367 C351 0.960 . S
C368 C369 1.391 . S
C368 C370 1.394 . S
C368 H384 0.931 . S
C369 C368 1.391 . S
C369 C373 1.376 . S
C370 C368 1.394 . S
C370 C371 1.369 . S
C370 C374 1.531 . S
C371 C370 1.369 . S
C371 C372 1.410 . S
C371 C379 1.503 . S
C372 C371 1.410 . S
C372 C373 1.392 . S
C372 C375 1.511 . S
C373 C369 1.376 . S
C373 C372 1.392 . S
C373 H385 0.929 . S
C374 C370 1.531 . S
C374 H386 0.960 . S
C374 H387 0.962 . S
C374 H388 0.960 . S
C375 C372 1.511 . S
C375 H389 0.961 . S
C375 H390 0.961 . S
C375 H391 0.961 . S
C376 C377 1.370 . S
C376 C378 1.363 . S
C376 H392 0.931 . S
C377 C376 1.370 . S
C377 C381 1.408 . S
C378 C376 1.363 . S
C378 C379 1.370 . S
C378 C382 1.524 . S
C379 C371 1.503 . S
C379 C378 1.370 . S
C379 C380 1.403 . S
C380 C379 1.403 . S
C380 C381 1.404 . S
C380 C383 1.539 . S
C381 C377 1.408 . S
C381 C380 1.404 . S
C381 H393 0.930 . S
C382 C378 1.524 . S
C382 H394 0.956 . S
C382 H395 0.961 . S
C382 H396 0.961 . S
C383 C380 1.539 . S
C383 H397 0.958 . S
C383 H398 0.961 . S
C383 H399 0.960 . S
H384 C368 0.931 . S
H385 C373 0.929 . S
H386 C374 0.960 . S
H387 C374 0.962 . S
H388 C374 0.960 . S
H389 C375 0.961 . S
H390 C375 0.961 . S
H391 C375 0.961 . S
H392 C376 0.931 . S
H393 C381 0.930 . S
H394 C382 0.956 . S
H395 C382 0.961 . S
H396 C382 0.961 . S
H397 C383 0.958 . S
H398 C383 0.961 . S
H399 C383 0.960 . S
C400 C401 1.391 . S
C400 C402 1.394 . S
C400 H416 0.931 . S
C401 C400 1.391 . S
C401 C405 1.376 . S
C402 C400 1.394 . S
C402 C403 1.369 . S
C402 C406 1.531 . S
C403 C402 1.369 . S
C403 C404 1.410 . S
C403 C411 1.503 . S
C404 C403 1.410 . S
C404 C405 1.392 . S
C404 C407 1.511 . S
C405 C401 1.376 . S
C405 C404 1.392 . S
C405 H417 0.929 . S
C406 C402 1.531 . S
C406 H418 0.960 . S
C406 H419 0.962 . S
C406 H420 0.960 . S
C407 C404 1.511 . S
C407 H421 0.961 . S
C407 H422 0.961 . S
C407 H423 0.961 . S
C408 C409 1.370 . S
C408 C410 1.363 . S
C408 H424 0.931 . S
C409 C408 1.370 . S
C409 C413 1.408 . S
C410 C408 1.363 . S
C410 C411 1.370 . S
C410 C414 1.524 . S
C411 C403 1.503 . S
C411 C410 1.370 . S
C411 C412 1.403 . S
C412 C411 1.403 . S
C412 C413 1.404 . S
C412 C415 1.539 . S
C413 C409 1.408 . S
C413 C412 1.404 . S
C413 H425 0.930 . S
C414 C410 1.524 . S
C414 H426 0.956 . S
C414 H427 0.961 . S
C414 H428 0.961 . S
C415 C412 1.539 . S
C415 H429 0.958 . S
C415 H430 0.961 . S
C415 H431 0.960 . S
H416 C400 0.931 . S
H417 C405 0.929 . S
H418 C406 0.960 . S
H419 C406 0.962 . S
H420 C406 0.960 . S
H421 C407 0.961 . S
H422 C407 0.961 . S
H423 C407 0.961 . S
H424 C408 0.931 . S
H425 C413 0.930 . S
H426 C414 0.956 . S
H427 C414 0.961 . S
H428 C414 0.961 . S
H429 C415 0.958 . S
H430 C415 0.961 . S
H431 C415 0.960 . S
C432 C433 1.391 . S
C432 C434 1.394 . S
C432 H448 0.931 . S
C433 C432 1.391 . S
C433 C437 1.376 . S
C434 C432 1.394 . S
C434 C435 1.369 . S
C434 C438 1.531 . S
C435 C434 1.369 . S
C435 C436 1.410 . S
C435 C443 1.503 . S
C436 C435 1.410 . S
C436 C437 1.392 . S
C436 C439 1.511 . S
C437 C433 1.376 . S
C437 C436 1.392 . S
C437 H449 0.929 . S
C438 C434 1.531 . S
C438 H450 0.960 . S
C438 H451 0.962 . S
C438 H452 0.960 . S
C439 C436 1.511 . S
C439 H453 0.961 . S
C439 H454 0.961 . S
C439 H455 0.961 . S
C440 C441 1.370 . S
C440 C442 1.363 . S
C440 H456 0.931 . S
C441 C440 1.370 . S
C441 C445 1.408 . S
C442 C440 1.363 . S
C442 C443 1.370 . S
C442 C446 1.524 . S
C443 C435 1.503 . S
C443 C442 1.370 . S
C443 C444 1.403 . S
C444 C443 1.403 . S
C444 C445 1.404 . S
C444 C447 1.539 . S
C445 C441 1.408 . S
C445 C444 1.404 . S
C445 H457 0.930 . S
C446 C442 1.524 . S
C446 H458 0.956 . S
C446 H459 0.961 . S
C446 H460 0.961 . S
C447 C444 1.539 . S
C447 H461 0.958 . S
C447 H462 0.961 . S
C447 H463 0.960 . S
H448 C432 0.931 . S
H449 C437 0.929 . S
H450 C438 0.960 . S
H451 C438 0.962 . S
H452 C438 0.960 . S
H453 C439 0.961 . S
H454 C439 0.961 . S
H455 C439 0.961 . S
H456 C440 0.931 . S
H457 C445 0.930 . S
H458 C446 0.956 . S
H459 C446 0.961 . S
H460 C446 0.961 . S
H461 C447 0.958 . S
H462 C447 0.961 . S
H463 C447 0.960 . S
C464 C465 1.391 1_556 S
C464 C466 1.394 . S
C464 H480 0.931 . S
C465 C464 1.391 1_554 S
C465 C469 1.376 1_545 S
C466 C464 1.394 . S
C466 C467 1.369 . S
C466 C470 1.531 . S
C467 C466 1.369 . S
C467 C468 1.411 1_545 S
C467 C475 1.503 . S
C468 C467 1.411 1_565 S
C468 C469 1.392 1_556 S
C468 C471 1.511 1_556 S
C469 C465 1.376 1_565 S
C469 C468 1.392 1_554 S
C469 H481 0.929 . S
C470 C466 1.531 . S
C470 H482 0.960 . S
C470 H483 0.962 . S
C470 H484 0.960 . S
C471 C468 1.511 1_554 S
C471 H485 0.961 . S
C471 H486 0.961 1_554 S
C471 H487 0.961 1_565 S
C472 C473 1.370 1_565 S
C472 C474 1.363 . S
C472 H488 0.931 . S
C473 C472 1.370 1_545 S
C473 C477 1.408 . S
C474 C472 1.363 . S
C474 C475 1.370 1_565 S
C474 C478 1.524 . S
C475 C467 1.503 . S
C475 C474 1.370 1_545 S
C475 C476 1.403 . S
C476 C475 1.403 . S
C476 C477 1.404 . S
C476 C479 1.539 . S
C477 C473 1.408 . S
C477 C476 1.404 . S
C477 H489 0.930 . S
C478 C474 1.524 . S
C478 H490 0.956 . S
C478 H491 0.961 . S
C478 H492 0.961 . S
C479 C476 1.539 . S
C479 H493 0.958 . S
C479 H494 0.961 . S
C479 H495 0.960 . S
H480 C464 0.931 . S
H481 C469 0.929 . S
H482 C470 0.960 . S
H483 C470 0.962 . S
H484 C470 0.960 . S
H485 C471 0.961 . S
H486 C471 0.961 1_556 S
H487 C471 0.961 1_545 S
H488 C472 0.931 . S
H489 C477 0.930 . S
H490 C478 0.956 . S
H491 C478 0.961 . S
H492 C478 0.961 . S
H493 C479 0.958 . S
H494 C479 0.961 . S
H495 C479 0.960 . S
C496 C497 1.391 . S
C496 C498 1.394 . S
C496 H512 0.931 . S
C497 C496 1.391 . S
C497 C501 1.376 1_556 S
C498 C496 1.394 . S
C498 C499 1.369 . S
C498 C502 1.531 . S
C499 C498 1.369 . S
C499 C500 1.410 . S
C499 C507 1.503 . S
C500 C499 1.410 . S
C500 C501 1.392 1_556 S
C500 C503 1.511 1_556 S
C501 C497 1.376 1_554 S
C501 C500 1.392 1_554 S
C501 H513 0.929 . S
C502 C498 1.531 . S
C502 H514 0.960 . S
C502 H515 0.962 . S
C502 H516 0.960 . S
C503 C500 1.511 1_554 S
C503 H517 0.961 . S
C503 H518 0.961 . S
C503 H519 0.962 . S
C504 C505 1.370 . S
C504 C506 1.363 . S
C504 H520 0.931 . S
C505 C504 1.370 . S
C505 C509 1.408 . S
C506 C504 1.363 . S
C506 C507 1.370 . S
C506 C510 1.524 . S
C507 C499 1.503 . S
C507 C506 1.370 . S
C507 C508 1.403 . S
C508 C507 1.403 . S
C508 C509 1.404 . S
C508 C511 1.539 . S
C509 C505 1.408 . S
C509 C508 1.404 . S
C509 H521 0.930 . S
C510 C506 1.524 . S
C510 H522 0.956 . S
C510 H523 0.961 1_556 S
C510 H524 0.961 . S
C511 C508 1.539 . S
C511 H525 0.958 . S
C511 H526 0.961 . S
C511 H527 0.960 . S
H512 C496 0.931 . S
H513 C501 0.929 . S
H514 C502 0.960 . S
H515 C502 0.962 . S
H516 C502 0.960 . S
H517 C503 0.961 . S
H518 C503 0.961 . S
H519 C503 0.962 . S
H520 C504 0.931 . S
H521 C509 0.930 . S
H522 C510 0.956 . S
H523 C510 0.961 1_554 S
H524 C510 0.961 . S
H525 C511 0.958 . S
H526 C511 0.961 . S
H527 C511 0.960 . S
C528 C529 1.391 . S
C528 C530 1.394 . S
C528 H544 0.931 . S
C529 C528 1.391 . S
C529 C533 1.376 . S
C530 C528 1.394 . S
C530 C531 1.369 . S
C530 C534 1.531 . S
C531 C530 1.369 . S
C531 C532 1.410 . S
C531 C539 1.503 . S
C532 C531 1.410 . S
C532 C533 1.392 . S
C532 C535 1.511 . S
C533 C529 1.376 . S
C533 C532 1.392 . S
C533 H545 0.929 1_556 S
C534 C530 1.531 . S
C534 H546 0.960 . S
C534 H547 0.962 . S
C534 H548 0.960 . S
C535 C532 1.511 . S
C535 H549 0.961 . S
C535 H550 0.961 . S
C535 H551 0.961 . S
C536 C537 1.370 . S
C536 C538 1.363 . S
C536 H552 0.931 . S
C537 C536 1.370 . S
C537 C541 1.408 . S
C538 C536 1.363 . S
C538 C539 1.370 . S
C538 C542 1.524 . S
C539 C531 1.503 . S
C539 C538 1.370 . S
C539 C540 1.403 . S
C540 C539 1.403 . S
C540 C541 1.404 . S
C540 C543 1.539 . S
C541 C537 1.408 . S
C541 C540 1.404 . S
C541 H553 0.930 . S
C542 C538 1.524 . S
C542 H554 0.956 . S
C542 H555 0.961 . S
C542 H556 0.961 . S
C543 C540 1.539 . S
C543 H557 0.958 . S
C543 H558 0.961 . S
C543 H559 0.960 . S
H544 C528 0.931 . S
H545 C533 0.929 1_554 S
H546 C534 0.960 . S
H547 C534 0.962 . S
H548 C534 0.960 . S
H549 C535 0.961 . S
H550 C535 0.961 . S
H551 C535 0.961 . S
H552 C536 0.931 . S
H553 C541 0.930 . S
H554 C542 0.956 . S
H555 C542 0.961 . S
H556 C542 0.961 . S
H557 C543 0.958 . S
H558 C543 0.961 . S
H559 C543 0.960 . S
C560 C561 1.391 . S
C560 C562 1.394 . S
C560 H576 0.931 . S
C561 C560 1.391 . S
C561 C565 1.376 . S
C562 C560 1.394 . S
C562 C563 1.369 . S
C562 C566 1.531 . S
C563 C562 1.369 . S
C563 C564 1.410 . S
C563 C571 1.503 . S
C564 C563 1.410 . S
C564 C565 1.392 . S
C564 C567 1.511 . S
C565 C561 1.376 . S
C565 C564 1.392 . S
C565 H577 0.929 . S
C566 C562 1.531 . S
C566 H578 0.960 . S
C566 H579 0.962 . S
C566 H580 0.960 . S
C567 C564 1.511 . S
C567 H581 0.961 . S
C567 H582 0.961 . S
C567 H583 0.950 1_556 S
C568 C569 1.370 . S
C568 C570 1.363 . S
C568 H584 0.931 . S
C569 C568 1.370 . S
C569 C573 1.408 . S
C570 C568 1.363 . S
C570 C571 1.370 . S
C570 C574 1.524 . S
C571 C563 1.503 . S
C571 C570 1.370 . S
C571 C572 1.403 . S
C572 C571 1.403 . S
C572 C573 1.404 . S
C572 C575 1.539 . S
C573 C569 1.408 . S
C573 C572 1.404 . S
C573 H585 0.930 . S
C574 C570 1.524 . S
C574 H586 0.956 . S
C574 H587 0.961 . S
C574 H588 0.961 . S
C575 C572 1.539 . S
C575 H589 0.958 . S
C575 H590 0.961 . S
C575 H591 0.960 . S
H576 C560 0.931 . S
H577 C565 0.929 . S
H578 C566 0.960 . S
H579 C566 0.962 . S
H580 C566 0.960 . S
H581 C567 0.961 . S
H582 C567 0.961 . S
H583 C567 0.950 1_554 S
H584 C568 0.931 . S
H585 C573 0.930 . S
H586 C574 0.956 . S
H587 C574 0.961 . S
H588 C574 0.961 . S
H589 C575 0.958 . S
H590 C575 0.961 . S
H591 C575 0.960 . S
C592 C593 1.391 . S
C592 C594 1.394 . S
C592 H608 0.931 . S
C593 C592 1.391 . S
C593 C597 1.376 . S
C594 C592 1.394 . S
C594 C595 1.369 . S
C594 C598 1.531 . S
C595 C594 1.369 . S
C595 C596 1.410 . S
C595 C603 1.503 . S
C596 C595 1.410 . S
C596 C597 1.392 . S
C596 C599 1.511 . S
C597 C593 1.376 . S
C597 C596 1.392 . S
C597 H609 0.929 . S
C598 C594 1.531 . S
C598 H610 0.960 . S
C598 H611 0.962 . S
C598 H612 0.960 . S
C599 C596 1.511 . S
C599 H613 0.961 . S
C599 H614 0.961 . S
C599 H615 0.961 . S
C600 C601 1.370 . S
C600 C602 1.363 . S
C600 H616 0.931 . S
C601 C600 1.370 . S
C601 C605 1.408 . S
C602 C600 1.363 . S
C602 C603 1.370 . S
C602 C606 1.524 . S
C603 C595 1.503 . S
C603 C602 1.370 . S
C603 C604 1.403 . S
C604 C603 1.403 . S
C604 C605 1.404 . S
C604 C607 1.539 . S
C605 C601 1.408 . S
C605 C604 1.404 . S
C605 H617 0.930 . S
C606 C602 1.524 . S
C606 H618 0.956 . S
C606 H619 0.961 . S
C606 H620 0.961 . S
C607 C604 1.539 . S
C607 H621 0.958 . S
C607 H622 0.961 . S
C607 H623 0.960 . S
H608 C592 0.931 . S
H609 C597 0.929 . S
H610 C598 0.960 . S
H611 C598 0.962 . S
H612 C598 0.960 . S
H613 C599 0.961 . S
H614 C599 0.961 . S
H615 C599 0.961 . S
H616 C600 0.931 . S
H617 C605 0.930 . S
H618 C606 0.956 . S
H619 C606 0.961 . S
H620 C606 0.961 . S
H621 C607 0.958 . S
H622 C607 0.961 . S
H623 C607 0.960 . S
C624 C625 1.391 . S
C624 C626 1.394 . S
C624 H640 0.931 . S
C625 C624 1.391 . S
C625 C629 1.376 . S
C626 C624 1.394 . S
C626 C627 1.369 . S
C626 C630 1.531 . S
C627 C626 1.369 . S
C627 C628 1.410 . S
C627 C635 1.503 . S
C628 C627 1.410 . S
C628 C629 1.392 . S
C628 C631 1.511 1_545 S
C629 C625 1.376 . S
C629 C628 1.392 . S
C629 H641 0.929 1_545 S
C630 C626 1.531 . S
C630 H642 0.960 . S
C630 H643 0.962 . S
C630 H644 0.960 . S
C631 C628 1.511 1_565 S
C631 H645 0.961 . S
C631 H646 0.961 . S
C631 H647 0.961 1_565 S
C632 C633 1.370 1_565 S
C632 C634 1.363 . S
C632 H648 0.931 . S
C633 C632 1.370 1_545 S
C633 C637 1.408 . S
C634 C632 1.363 . S
C634 C635 1.370 1_565 S
C634 C638 1.524 . S
C635 C627 1.503 . S
C635 C634 1.370 1_545 S
C635 C636 1.403 . S
C636 C635 1.403 . S
C636 C637 1.404 . S
C636 C639 1.539 . S
C637 C633 1.408 . S
C637 C636 1.404 . S
C637 H649 0.930 . S
C638 C634 1.524 . S
C638 H650 0.956 . S
C638 H651 0.961 . S
C638 H652 0.961 . S
C639 C636 1.539 . S
C639 H653 0.958 . S
C639 H654 0.961 . S
C639 H655 0.960 . S
H640 C624 0.931 . S
H641 C629 0.929 1_565 S
H642 C630 0.960 . S
H643 C630 0.962 . S
H644 C630 0.960 . S
H645 C631 0.961 . S
H646 C631 0.961 . S
H647 C631 0.961 1_545 S
H648 C632 0.931 . S
H649 C637 0.930 . S
H650 C638 0.956 . S
H651 C638 0.961 . S
H652 C638 0.961 . S
H653 C639 0.958 . S
H654 C639 0.961 . S
H655 C639 0.960 . S
C656 C657 1.391 . S
C656 C658 1.394 . S
C656 H672 0.931 . S
C657 C656 1.391 . S
C657 C661 1.376 . S
C658 C656 1.394 . S
C658 C659 1.369 . S
C658 C662 1.531 . S
C659 C658 1.369 . S
C659 C660 1.410 . S
C659 C667 1.503 . S
C660 C659 1.410 . S
C660 C661 1.392 . S
C660 C663 1.511 . S
C661 C657 1.376 . S
C661 C660 1.392 . S
C661 H673 0.929 . S
C662 C658 1.531 . S
C662 H674 0.960 . S
C662 H675 0.962 . S
C662 H676 0.960 . S
C663 C660 1.511 . S
C663 H677 0.961 . S
C663 H678 0.961 . S
C663 H679 0.961 . S
C664 C665 1.370 . S
C664 C666 1.363 . S
C664 H680 0.931 . S
C665 C664 1.370 . S
C665 C669 1.408 . S
C666 C664 1.363 . S
C666 C667 1.370 . S
C666 C670 1.524 . S
C667 C659 1.503 . S
C667 C666 1.370 . S
C667 C668 1.403 . S
C668 C667 1.403 . S
C668 C669 1.404 . S
C668 C671 1.539 . S
C669 C665 1.408 . S
C669 C668 1.404 . S
C669 H681 0.930 . S
C670 C666 1.524 . S
C670 H682 0.956 . S
C670 H683 0.961 . S
C670 H684 0.961 . S
C671 C668 1.539 . S
C671 H685 0.958 . S
C671 H686 0.961 . S
C671 H687 0.960 . S
H672 C656 0.931 . S
H673 C661 0.929 . S
H674 C662 0.960 . S
H675 C662 0.962 . S
H676 C662 0.960 . S
H677 C663 0.961 . S
H678 C663 0.961 . S
H679 C663 0.961 . S
H680 C664 0.931 . S
H681 C669 0.930 . S
H682 C670 0.956 . S
H683 C670 0.961 . S
H684 C670 0.961 . S
H685 C671 0.958 . S
H686 C671 0.961 . S
H687 C671 0.960 . S
C688 C689 1.391 . S
C688 C690 1.394 . S
C688 H704 0.931 . S
C689 C688 1.391 . S
C689 C693 1.376 . S
C690 C688 1.394 . S
C690 C691 1.369 . S
C690 C694 1.531 . S
C691 C690 1.369 . S
C691 C692 1.410 . S
C691 C699 1.503 . S
C692 C691 1.410 . S
C692 C693 1.392 . S
C692 C695 1.511 . S
C693 C689 1.376 . S
C693 C692 1.392 . S
C693 H705 0.929 . S
C694 C690 1.531 . S
C694 H706 0.960 . S
C694 H707 0.962 . S
C694 H708 0.960 . S
C695 C692 1.511 . S
C695 H709 0.961 . S
C695 H710 0.961 . S
C695 H711 0.961 . S
C696 C697 1.370 . S
C696 C698 1.363 . S
C696 H712 0.931 . S
C697 C696 1.370 . S
C697 C701 1.408 . S
C698 C696 1.363 . S
C698 C699 1.370 . S
C698 C702 1.524 . S
C699 C691 1.503 . S
C699 C698 1.370 . S
C699 C700 1.403 . S
C700 C699 1.403 . S
C700 C701 1.404 . S
C700 C703 1.539 . S
C701 C697 1.408 . S
C701 C700 1.404 . S
C701 H713 0.930 . S
C702 C698 1.524 . S
C702 H714 0.956 . S
C702 H715 0.961 . S
C702 H716 0.961 . S
C703 C700 1.539 . S
C703 H717 0.958 . S
C703 H718 0.961 . S
C703 H719 0.960 . S
H704 C688 0.931 . S
H705 C693 0.929 . S
H706 C694 0.960 . S
H707 C694 0.962 . S
H708 C694 0.960 . S
H709 C695 0.961 . S
H710 C695 0.961 . S
H711 C695 0.961 . S
H712 C696 0.931 . S
H713 C701 0.930 . S
H714 C702 0.956 . S
H715 C702 0.961 . S
H716 C702 0.961 . S
H717 C703 0.958 . S
H718 C703 0.961 . S
H719 C703 0.960 . S
C720 C721 1.391 . S
C720 C722 1.394 . S
C720 H736 0.931 . S
C721 C720 1.391 . S
C721 C725 1.376 . S
C722 C720 1.394 . S
C722 C723 1.369 . S
C722 C726 1.531 . S
C723 C722 1.369 . S
C723 C724 1.410 . S
C723 C731 1.503 . S
C724 C723 1.410 . S
C724 C725 1.392 . S
C724 C727 1.511 . S
C725 C721 1.376 . S
C725 C724 1.392 . S
C725 H737 0.929 . S
C726 C722 1.531 . S
C726 H738 0.960 . S
C726 H739 0.962 . S
C726 H740 0.960 . S
C727 C724 1.511 . S
C727 H741 0.961 . S
C727 H742 0.961 . S
C727 H743 0.961 . S
C728 C729 1.370 . S
C728 C730 1.363 . S
C728 H744 0.931 . S
C729 C728 1.370 . S
C729 C733 1.408 . S
C730 C728 1.363 . S
C730 C731 1.370 . S
C730 C734 1.524 . S
C731 C723 1.503 . S
C731 C730 1.370 . S
C731 C732 1.403 . S
C732 C731 1.403 . S
C732 C733 1.404 . S
C732 C735 1.539 . S
C733 C729 1.408 . S
C733 C732 1.404 . S
C733 H745 0.930 . S
C734 C730 1.524 . S
C734 H746 0.956 . S
C734 H747 0.961 . S
C734 H748 0.961 . S
C735 C732 1.539 . S
C735 H749 0.958 . S
C735 H750 0.961 . S
C735 H751 0.960 . S
H736 C720 0.931 . S
H737 C725 0.929 . S
H738 C726 0.960 . S
H739 C726 0.962 . S
H740 C726 0.960 . S
H741 C727 0.961 . S
H742 C727 0.961 . S
H743 C727 0.961 . S
H744 C728 0.931 . S
H745 C733 0.930 . S
H746 C734 0.956 . S
H747 C734 0.961 . S
H748 C734 0.961 . S
H749 C735 0.958 . S
H750 C735 0.961 . S
H751 C735 0.960 . S
C752 C753 1.391 . S
C752 C754 1.394 . S
C752 H768 0.931 . S
C753 C752 1.391 . S
C753 C757 1.376 . S
C754 C752 1.394 . S
C754 C755 1.369 . S
C754 C758 1.531 . S
C755 C754 1.369 . S
C755 C756 1.410 . S
C755 C763 1.503 1_565 S
C756 C755 1.410 . S
C756 C757 1.392 . S
C756 C759 1.511 . S
C757 C753 1.376 . S
C757 C756 1.392 . S
C757 H769 0.929 1_556 S
C758 C754 1.531 . S
C758 H770 0.960 . S
C758 H771 0.962 1_565 S
C758 H772 0.960 . S
C759 C756 1.511 . S
C759 H773 0.961 1_566 S
C759 H774 0.961 1_565 S
C759 H775 0.961 . S
C760 C761 1.370 . S
C760 C762 1.363 . S
C760 H776 0.931 . S
C761 C760 1.370 . S
C761 C765 1.408 1_545 S
C762 C760 1.363 . S
C762 C763 1.370 . S
C762 C766 1.524 . S
C763 C755 1.503 1_545 S
C763 C762 1.370 . S
C763 C764 1.403 1_545 S
C764 C763 1.403 1_565 S
C764 C765 1.404 . S
C764 C767 1.539 . S
C765 C761 1.408 1_565 S
C765 C764 1.404 . S
C765 H777 0.930 . S
C766 C762 1.524 . S
C766 H778 0.956 . S
C766 H779 0.961 . S
C766 H780 0.961 . S
C767 C764 1.539 . S
C767 H781 0.958 . S
C767 H782 0.961 . S
C767 H783 0.960 . S
H768 C752 0.931 . S
H769 C757 0.929 1_554 S
H770 C758 0.960 . S
H771 C758 0.962 1_545 S
H772 C758 0.960 . S
H773 C759 0.961 1_544 S
H774 C759 0.961 1_545 S
H775 C759 0.961 . S
H776 C760 0.931 . S
H777 C765 0.930 . S
H778 C766 0.956 . S
H779 C766 0.961 . S
H780 C766 0.961 . S
H781 C767 0.958 . S
H782 C767 0.961 . S
H783 C767 0.960 . S
C784 C785 1.391 . S
C784 C786 1.394 . S
C784 H800 0.931 . S
C785 C784 1.391 . S
C785 C789 1.376 . S
C786 C784 1.394 . S
C786 C787 1.369 . S
C786 C790 1.531 . S
C787 C786 1.369 . S
C787 C788 1.410 . S
C787 C795 1.503 . S
C788 C787 1.410 . S
C788 C789 1.392 . S
C788 C791 1.511 . S
C789 C785 1.376 . S
C789 C788 1.392 . S
C789 H801 0.929 . S
C790 C786 1.531 . S
C790 H802 0.960 . S
C790 H803 0.962 . S
C790 H804 0.960 . S
C791 C788 1.511 . S
C791 H805 0.961 . S
C791 H806 0.961 . S
C791 H807 0.961 . S
C792 C793 1.370 . S
C792 C794 1.363 . S
C792 H808 0.931 . S
C793 C792 1.370 . S
C793 C797 1.408 . S
C794 C792 1.363 . S
C794 C795 1.370 . S
C794 C798 1.524 . S
C795 C787 1.503 . S
C795 C794 1.370 . S
C795 C796 1.403 . S
C796 C795 1.403 . S
C796 C797 1.404 . S
C796 C799 1.539 . S
C797 C793 1.408 . S
C797 C796 1.404 . S
C797 H809 0.930 . S
C798 C794 1.524 . S
C798 H810 0.956 . S
C798 H811 0.961 . S
C798 H812 0.961 . S
C799 C796 1.539 . S
C799 H813 0.958 . S
C799 H814 0.961 . S
C799 H815 0.960 . S
H800 C784 0.931 . S
H801 C789 0.929 . S
H802 C790 0.960 . S
H803 C790 0.962 . S
H804 C790 0.960 . S
H805 C791 0.961 . S
H806 C791 0.961 . S
H807 C791 0.961 . S
H808 C792 0.931 . S
H809 C797 0.930 . S
H810 C798 0.956 . S
H811 C798 0.961 . S
H812 C798 0.961 . S
H813 C799 0.958 . S
H814 C799 0.961 . S
H815 C799 0.960 . S
C816 C817 1.391 . S
C816 C818 1.394 . S
C816 H832 0.931 . S
C817 C816 1.391 . S
C817 C821 1.376 . S
C818 C816 1.394 . S
C818 C819 1.369 . S
C818 C822 1.531 . S
C819 C818 1.369 . S
C819 C820 1.410 . S
C819 C827 1.503 . S
C820 C819 1.410 . S
C820 C821 1.392 . S
C820 C823 1.511 . S
C821 C817 1.376 . S
C821 C820 1.392 . S
C821 H833 0.929 . S
C822 C818 1.531 . S
C822 H834 0.960 . S
C822 H835 0.962 . S
C822 H836 0.960 . S
C823 C820 1.511 . S
C823 H837 0.961 . S
C823 H838 0.961 . S
C823 H839 0.961 . S
C824 C825 1.370 . S
C824 C826 1.363 . S
C824 H840 0.931 . S
C825 C824 1.370 . S
C825 C829 1.408 . S
C826 C824 1.363 . S
C826 C827 1.370 . S
C826 C830 1.524 . S
C827 C819 1.503 . S
C827 C826 1.370 . S
C827 C828 1.403 . S
C828 C827 1.403 . S
C828 C829 1.404 . S
C828 C831 1.539 . S
C829 C825 1.408 . S
C829 C828 1.404 . S
C829 H841 0.930 . S
C830 C826 1.524 . S
C830 H842 0.956 . S
C830 H843 0.961 . S
C830 H844 0.961 . S
C831 C828 1.539 . S
C831 H845 0.958 . S
C831 H846 0.961 . S
C831 H847 0.960 . S
H832 C816 0.931 . S
H833 C821 0.929 . S
H834 C822 0.960 . S
H835 C822 0.962 . S
H836 C822 0.960 . S
H837 C823 0.961 . S
H838 C823 0.961 . S
H839 C823 0.961 . S
H840 C824 0.931 . S
H841 C829 0.930 . S
H842 C830 0.956 . S
H843 C830 0.961 . S
H844 C830 0.961 . S
H845 C831 0.958 . S
H846 C831 0.961 . S
H847 C831 0.960 . S
C848 C849 1.391 . S
C848 C850 1.394 1_554 S
C848 H864 0.931 . S
C849 C848 1.391 . S
C849 C853 1.376 . S
C850 C848 1.394 1_556 S
C850 C851 1.369 1_556 S
C850 C854 1.531 . S
C851 C850 1.369 1_554 S
C851 C852 1.410 . S
C851 C859 1.503 1_554 S
C852 C851 1.410 . S
C852 C853 1.392 . S
C852 C855 1.511 . S
C853 C849 1.376 . S
C853 C852 1.392 . S
C853 H865 0.929 . S
C854 C850 1.531 . S
C854 H866 0.960 . S
C854 H867 0.962 . S
C854 H868 0.960 . S
C855 C852 1.511 . S
C855 H869 0.961 . S
C855 H870 0.961 . S
C855 H871 0.961 . S
C856 C857 1.370 . S
C856 C858 1.363 . S
C856 H872 0.931 . S
C857 C856 1.370 . S
C857 C861 1.408 . S
C858 C856 1.363 . S
C858 C859 1.370 . S
C858 C862 1.524 . S
C859 C851 1.503 1_556 S
C859 C858 1.370 . S
C859 C860 1.403 . S
C860 C859 1.403 . S
C860 C861 1.404 . S
C860 C863 1.539 1_556 S
C861 C857 1.408 . S
C861 C860 1.404 . S
C861 H873 0.930 . S
C862 C858 1.524 . S
C862 H874 0.956 . S
C862 H875 0.961 . S
C862 H876 0.961 . S
C863 C860 1.539 1_554 S
C863 H877 0.958 1_554 S
C863 H878 0.961 . S
C863 H879 0.960 . S
H864 C848 0.931 . S
H865 C853 0.929 . S
H866 C854 0.960 . S
H867 C854 0.962 . S
H868 C854 0.960 . S
H869 C855 0.961 . S
H870 C855 0.961 . S
H871 C855 0.961 . S
H872 C856 0.931 . S
H873 C861 0.930 . S
H874 C862 0.956 . S
H875 C862 0.961 . S
H876 C862 0.961 . S
H877 C863 0.958 1_556 S
H878 C863 0.961 . S
H879 C863 0.960 . S
C880 C881 1.391 1_565 S
C880 C882 1.394 . S
C880 H896 0.931 . S
C881 C880 1.391 1_545 S
C881 C885 1.376 1_554 S
C882 C880 1.394 . S
C882 C883 1.369 1_564 S
C882 C886 1.531 . S
C883 C882 1.369 1_546 S
C883 C884 1.410 . S
C883 C891 1.503 . S
C884 C883 1.410 . S
C884 C885 1.392 . S
C884 C887 1.511 . S
C885 C881 1.376 1_556 S
C885 C884 1.392 . S
C885 H897 0.929 . S
C886 C882 1.531 . S
C886 H898 0.960 1_554 S
C886 H899 0.962 . S
C886 H900 0.960 . S
C887 C884 1.511 . S
C887 H901 0.961 . S
C887 H902 0.961 . S
C887 H903 0.961 . S
C888 C889 1.370 . S
C888 C890 1.363 . S
C888 H904 0.931 . S
C889 C888 1.370 . S
C889 C893 1.408 1_545 S
C890 C888 1.363 . S
C890 C891 1.370 . S
C890 C894 1.524 1_556 S
C891 C883 1.503 . S
C891 C890 1.370 . S
C891 C892 1.403 1_545 S
C892 C891 1.403 1_565 S
C892 C893 1.404 . S
C892 C895 1.539 . S
C893 C889 1.408 1_565 S
C893 C892 1.404 . S
C893 H905 0.930 . S
C894 C890 1.524 1_554 S
C894 H906 0.956 . S
C894 H907 0.961 1_554 S
C894 H908 0.961 . S
C895 C892 1.539 . S
C895 H909 0.958 . S
C895 H910 0.961 . S
C895 H911 0.960 . S
H896 C880 0.931 . S
H897 C885 0.929 . S
H898 C886 0.960 1_556 S
H899 C886 0.962 . S
H900 C886 0.960 . S
H901 C887 0.961 . S
H902 C887 0.961 . S
H903 C887 0.961 . S
H904 C888 0.931 . S
H905 C893 0.930 . S
H906 C894 0.956 . S
H907 C894 0.961 1_556 S
H908 C894 0.961 . S
H909 C895 0.958 . S
H910 C895 0.961 . S
H911 C895 0.960 . S
C912 C913 1.391 . S
C912 C914 1.394 . S
C912 H928 0.931 . S
C913 C912 1.391 . S
C913 C917 1.376 . S
C914 C912 1.394 . S
C914 C915 1.369 1_554 S
C914 C918 1.531 . S
C915 C914 1.369 1_556 S
C915 C916 1.410 . S
C915 C923 1.503 . S
C916 C915 1.410 . S
C916 C917 1.392 1_556 S
C916 C919 1.511 . S
C917 C913 1.376 . S
C917 C916 1.392 1_554 S
C917 H929 0.929 . S
C918 C914 1.531 . S
C918 H930 0.960 . S
C918 H931 0.962 1_554 S
C918 H932 0.960 . S
C919 C916 1.511 . S
C919 H933 0.961 . S
C919 H934 0.961 . S
C919 H935 0.961 . S
C920 C921 1.370 . S
C920 C922 1.363 . S
C920 H936 0.931 . S
C921 C920 1.370 . S
C921 C925 1.408 . S
C922 C920 1.363 . S
C922 C923 1.370 . S
C922 C926 1.524 . S
C923 C915 1.503 . S
C923 C922 1.370 . S
C923 C924 1.403 . S
C924 C923 1.403 . S
C924 C925 1.404 . S
C924 C927 1.539 1_556 S
C925 C921 1.408 . S
C925 C924 1.404 . S
C925 H937 0.930 . S
C926 C922 1.524 . S
C926 H938 0.956 . S
C926 H939 0.961 . S
C926 H940 0.961 . S
C927 C924 1.539 1_554 S
C927 H941 0.958 . S
C927 H942 0.961 . S
C927 H943 0.960 . S
H928 C912 0.931 . S
H929 C917 0.929 . S
H930 C918 0.960 . S
H931 C918 0.962 1_556 S
H932 C918 0.960 . S
H933 C919 0.961 . S
H934 C919 0.961 . S
H935 C919 0.961 . S
H936 C920 0.931 . S
H937 C925 0.930 . S
H938 C926 0.956 . S
H939 C926 0.961 . S
H940 C926 0.961 . S
H941 C927 0.958 . S
H942 C927 0.961 . S
H943 C927 0.960 . S
C944 C945 1.391 . S
C944 C946 1.394 1_554 S
C944 H960 0.931 . S
C945 C944 1.391 . S
C945 C949 1.376 . S
C946 C944 1.394 1_556 S
C946 C947 1.368 1_556 S
C946 C950 1.531 . S
C947 C946 1.368 1_554 S
C947 C948 1.417 . S
C947 C955 1.495 1_554 S
C948 C947 1.417 . S
C948 C949 1.392 . S
C948 C951 1.511 . S
C949 C945 1.376 . S
C949 C948 1.392 . S
C949 H961 0.929 . S
C950 C946 1.531 . S
C950 H962 0.960 . S
C950 H963 0.962 . S
C950 H964 0.960 . S
C951 C948 1.511 . S
C951 H965 0.961 . S
C951 H966 0.961 . S
C951 H967 0.961 . S
C952 C953 1.370 . S
C952 C954 1.363 . S
C952 H968 0.931 . S
C953 C952 1.370 . S
C953 C957 1.408 . S
C954 C952 1.363 . S
C954 C955 1.370 . S
C954 C958 1.524 . S
C955 C947 1.495 1_556 S
C955 C954 1.370 . S
C955 C956 1.403 . S
C956 C955 1.403 . S
C956 C957 1.404 . S
C956 C959 1.539 1_556 S
C957 C953 1.408 . S
C957 C956 1.404 . S
C957 H969 0.930 . S
C958 C954 1.524 . S
C958 H970 0.956 . S
C958 H971 0.961 . S
C958 H972 0.961 . S
C959 C956 1.539 1_554 S
C959 H973 0.958 . S
C959 H974 0.961 . S
C959 H975 0.960 . S
H960 C944 0.931 . S
H961 C949 0.929 . S
H962 C950 0.960 . S
H963 C950 0.962 . S
H964 C950 0.960 . S
H965 C951 0.961 . S
H966 C951 0.961 . S
H967 C951 0.961 . S
H968 C952 0.931 . S
H969 C957 0.930 . S
H970 C958 0.956 . S
H971 C958 0.961 . S
H972 C958 0.961 . S
H973 C959 0.958 . S
H974 C959 0.961 . S
H975 C959 0.960 . S
C976 C977 1.391 . S
C976 C978 1.394 . S
C976 H992 0.931 . S
C977 C976 1.391 . S
C977 C981 1.376 . S
C978 C976 1.394 . S
C978 C979 1.369 . S
C978 C982 1.531 . S
C979 C978 1.369 . S
C979 C980 1.410 . S
C979 C987 1.503 . S
C980 C979 1.410 . S
C980 C981 1.392 . S
C980 C983 1.511 . S
C981 C977 1.376 . S
C981 C980 1.392 . S
C981 H993 0.929 . S
C982 C978 1.531 . S
C982 H994 0.960 . S
C982 H995 0.962 . S
C982 H996 0.960 . S
C983 C980 1.511 . S
C983 H997 0.961 . S
C983 H998 0.961 . S
C983 H999 0.961 . S
C984 C985 1.370 . S
C984 C986 1.363 . S
C984 H1000 0.931 . S
C985 C984 1.370 . S
C985 C989 1.408 . S
C986 C984 1.363 . S
C986 C987 1.370 . S
C986 C990 1.524 . S
C987 C979 1.503 . S
C987 C986 1.370 . S
C987 C988 1.403 . S
C988 C987 1.403 . S
C988 C989 1.404 . S
C988 C991 1.539 . S
C989 C985 1.408 . S
C989 C988 1.404 . S
C989 H1001 0.930 . S
C990 C986 1.524 . S
C990 H1002 0.956 . S
C990 H1003 0.961 . S
C990 H1004 0.961 . S
C991 C988 1.539 . S
C991 H1005 0.958 . S
C991 H1006 0.961 . S
C991 H1007 0.960 . S
H992 C976 0.931 . S
H993 C981 0.929 . S
H994 C982 0.960 . S
H995 C982 0.962 . S
H996 C982 0.960 . S
H997 C983 0.961 . S
H998 C983 0.961 . S
H999 C983 0.961 . S
H1000 C984 0.931 . S
H1001 C989 0.930 . S
H1002 C990 0.956 . S
H1003 C990 0.961 . S
H1004 C990 0.961 . S
H1005 C991 0.958 . S
H1006 C991 0.961 . S
H1007 C991 0.960 . S
C1008 C1009 1.391 1_565 S
C1008 C1010 1.394 . S
C1008 H1024 0.931 . S
C1009 C1008 1.391 1_545 S
C1009 C1013 1.376 . S
C1010 C1008 1.394 . S
C1010 C1011 1.369 1_565 S
C1010 C1014 1.531 . S
C1011 C1010 1.369 1_545 S
C1011 C1012 1.410 . S
C1011 C1019 1.503 . S
C1012 C1011 1.410 . S
C1012 C1013 1.392 . S
C1012 C1015 1.511 . S
C1013 C1009 1.376 . S
C1013 C1012 1.392 . S
C1013 H1025 0.929 . S
C1014 C1010 1.531 . S
C1014 H1026 0.960 . S
C1014 H1027 0.962 . S
C1014 H1028 0.960 . S
C1015 C1012 1.511 . S
C1015 H1029 0.961 . S
C1015 H1030 0.961 . S
C1015 H1031 0.961 . S
C1016 C1017 1.370 1_565 S
C1016 C1018 1.363 . S
C1016 H1032 0.931 . S
C1017 C1016 1.370 1_545 S
C1017 C1021 1.408 . S
C1018 C1016 1.363 . S
C1018 C1019 1.370 1_565 S
C1018 C1022 1.524 . S
C1019 C1011 1.503 . S
C1019 C1018 1.370 1_545 S
C1019 C1020 1.403 . S
C1020 C1019 1.403 . S
C1020 C1021 1.404 . S
C1020 C1023 1.539 . S
C1021 C1017 1.408 . S
C1021 C1020 1.404 . S
C1021 H1033 0.930 . S
C1022 C1018 1.524 . S
C1022 H1034 0.956 . S
C1022 H1035 0.961 . S
C1022 H1036 0.961 . S
C1023 C1020 1.539 . S
C1023 H1037 0.958 . S
C1023 H1038 0.961 . S
C1023 H1039 0.960 . S
H1024 C1008 0.931 . S
H1025 C1013 0.929 . S
H1026 C1014 0.960 . S
H1027 C1014 0.962 . S
H1028 C1014 0.960 . S
H1029 C1015 0.961 . S
H1030 C1015 0.961 . S
H1031 C1015 0.961 . S
H1032 C1016 0.931 . S
H1033 C1021 0.930 . S
H1034 C1022 0.956 . S
H1035 C1022 0.961 . S
H1036 C1022 0.961 . S
H1037 C1023 0.958 . S
H1038 C1023 0.961 . S
H1039 C1023 0.960 . S
C1040 C1041 1.391 . S
C1040 C1042 1.394 . S
C1040 H1056 0.931 . S
C1041 C1040 1.391 . S
C1041 C1045 1.376 . S
C1042 C1040 1.394 . S
C1042 C1043 1.369 . S
C1042 C1046 1.531 . S
C1043 C1042 1.369 . S
C1043 C1044 1.410 . S
C1043 C1051 1.503 . S
C1044 C1043 1.410 . S
C1044 C1045 1.392 . S
C1044 C1047 1.511 . S
C1045 C1041 1.376 . S
C1045 C1044 1.392 . S
C1045 H1057 0.929 . S
C1046 C1042 1.531 . S
C1046 H1058 0.960 . S
C1046 H1059 0.962 . S
C1046 H1060 0.960 . S
C1047 C1044 1.511 . S
C1047 H1061 0.961 . S
C1047 H1062 0.961 . S
C1047 H1063 0.961 . S
C1048 C1049 1.370 . S
C1048 C1050 1.363 . S
C1048 H1064 0.931 . S
C1049 C1048 1.370 . S
C1049 C1053 1.408 . S
C1050 C1048 1.363 . S
C1050 C1051 1.370 . S
C1050 C1054 1.524 . S
C1051 C1043 1.503 . S
C1051 C1050 1.370 . S
C1051 C1052 1.403 . S
C1052 C1051 1.403 . S
C1052 C1053 1.404 . S
C1052 C1055 1.539 . S
C1053 C1049 1.408 . S
C1053 C1052 1.404 . S
C1053 H1065 0.930 . S
C1054 C1050 1.524 . S
C1054 H1066 0.956 . S
C1054 H1067 0.961 . S
C1054 H1068 0.961 . S
C1055 C1052 1.539 . S
C1055 H1069 0.958 . S
C1055 H1070 0.961 . S
C1055 H1071 0.960 . S
H1056 C1040 0.931 . S
H1057 C1045 0.929 . S
H1058 C1046 0.960 . S
H1059 C1046 0.962 . S
H1060 C1046 0.960 . S
H1061 C1047 0.961 . S
H1062 C1047 0.961 . S
H1063 C1047 0.961 . S
H1064 C1048 0.931 . S
H1065 C1053 0.930 . S
H1066 C1054 0.956 . S
H1067 C1054 0.961 . S
H1068 C1054 0.961 . S
H1069 C1055 0.958 . S
H1070 C1055 0.961 . S
H1071 C1055 0.960 . S
C1072 C1073 1.391 . S
C1072 C1074 1.394 . S
C1072 H1088 0.931 . S
C1073 C1072 1.391 . S
C1073 C1077 1.376 . S
C1074 C1072 1.394 . S
C1074 C1075 1.369 . S
C1074 C1078 1.531 . S
C1075 C1074 1.369 . S
C1075 C1076 1.410 . S
C1075 C1083 1.503 . S
C1076 C1075 1.410 . S
C1076 C1077 1.392 . S
C1076 C1079 1.511 . S
C1077 C1073 1.376 . S
C1077 C1076 1.392 . S
C1077 H1089 0.929 . S
C1078 C1074 1.531 . S
C1078 H1090 0.960 . S
C1078 H1091 0.962 . S
C1078 H1092 0.960 . S
C1079 C1076 1.511 . S
C1079 H1093 0.961 . S
C1079 H1094 0.961 . S
C1079 H1095 0.961 . S
C1080 C1081 1.370 . S
C1080 C1082 1.363 . S
C1080 H1096 0.931 . S
C1081 C1080 1.370 . S
C1081 C1085 1.408 . S
C1082 C1080 1.363 . S
C1082 C1083 1.370 . S
C1082 C1086 1.524 . S
C1083 C1075 1.503 . S
C1083 C1082 1.370 . S
C1083 C1084 1.403 . S
C1084 C1083 1.403 . S
C1084 C1085 1.404 . S
C1084 C1087 1.539 . S
C1085 C1081 1.408 . S
C1085 C1084 1.404 . S
C1085 H1097 0.930 . S
C1086 C1082 1.524 . S
C1086 H1098 0.956 . S
C1086 H1099 0.961 . S
C1086 H1100 0.961 . S
C1087 C1084 1.539 . S
C1087 H1101 0.958 . S
C1087 H1102 0.961 . S
C1087 H1103 0.960 . S
H1088 C1072 0.931 . S
H1089 C1077 0.929 . S
H1090 C1078 0.960 . S
H1091 C1078 0.962 . S
H1092 C1078 0.960 . S
H1093 C1079 0.961 . S
H1094 C1079 0.961 . S
H1095 C1079 0.961 . S
H1096 C1080 0.931 . S
H1097 C1085 0.930 . S
H1098 C1086 0.956 . S
H1099 C1086 0.961 . S
H1100 C1086 0.961 . S
H1101 C1087 0.958 . S
H1102 C1087 0.961 . S
H1103 C1087 0.960 . S
C337 C215 1.497 . S
C345 C257 1.498 . S
C377 C292 2.030 . S
C369 C247 1.998 . S
C409 C297 1.324 . S
C401 C151 1.326 . S
C441 C317 1.781 . S
C433 C183 1.767 . S
C473 C265 1.496 . S
C465 C87 1.440 . S
C497 C119 1.752 1_556 S
C505 C282 2.030 . S
C529 C23 1.315 1_556 S
C537 C305 1.334 . S
C561 C55 1.551 . S
C569 C325 1.781 . S
C601 C275 1.356 . S
C593 C189 1.357 . S
C633 C284 0.727 1_545 S
C625 C221 0.704 . S
C665 C315 1.494 . S
C657 C253 1.487 . S
C689 C157 0.902 . S
C697 C335 0.874 . S
C721 C61 1.190 . S
C729 C264 1.356 . S
C761 C295 0.737 . S
C753 C93 0.773 1_565 S
C793 C304 1.479 . S
C785 C125 1.201 . S
C817 C29 0.895 . S
C825 C324 0.880 . S
C849 C177 1.907 . S
C857 C262 1.953 . S
C881 C209 1.618 . S
C889 C285 1.691 . S
C921 C302 2.072 . S
C913 C241 1.991 . S
C953 C322 1.849 . S
C945 C145 1.688 . S
C977 C49 1.813 . S
C985 C272 1.961 . S
C1017 C277 1.690 . S
C1009 C81 1.572 . S
C1049 C312 2.078 . S
C1041 C113 1.841 . S
C1073 C17 1.767 . S
C1081 C332 1.849 . S
