# Generated by pormake.
# Topology anh, (6,3)-cn, num edge types: 1
# Building blocks:
#     Node 0, Type 0, BuildingBlock: VOLQOD_clean_sbu_1, # of connection points: 6
#     Node 1, Type 0, BuildingBlock: VOLQOD_clean_sbu_1, # of connection points: 6
#     Node 2, Type 0, BuildingBlock: VOLQOD_clean_sbu_1, # of connection points: 6
#     Node 3, Type 1, BuildingBlock: BETDAH_clean_linker_0, # of connection points: 3
#     Node 4, Type 1, BuildingBlock: BETDAH_clean_linker_0, # of connection points: 3
#     Node 5, Type 1, BuildingBlock: BETDAH_clean_linker_0, # of connection points: 3
#     Node 6, Type 1, BuildingBlock: BETDAH_clean_linker_0, # of connection points: 3
#     Node 7, Type 1, BuildingBlock: BETDAH_clean_linker_0, # of connection points: 3
#     Node 8, Type 1, BuildingBlock: BETDAH_clean_linker_0, # of connection points: 3
#     Edge 9, Type (0, 1), BuildingBlock: FUNLAD_clean_linker_0, # of connection points: 2
#     Edge 10, Type (0, 1), BuildingBlock: FUNLAD_clean_linker_0, # of connection points: 2
#     Edge 11, Type (0, 1), BuildingBlock: FUNLAD_clean_linker_0, # of connection points: 2
#     Edge 12, Type (0, 1), BuildingBlock: FUNLAD_clean_linker_0, # of connection points: 2
#     Edge 13, Type (0, 1), BuildingBlock: FUNLAD_clean_linker_0, # of connection points: 2
#     Edge 14, Type (0, 1), BuildingBlock: FUNLAD_clean_linker_0, # of connection points: 2
#     Edge 15, Type (0, 1), BuildingBlock: FUNLAD_clean_linker_0, # of connection points: 2
#     Edge 16, Type (0, 1), BuildingBlock: FUNLAD_clean_linker_0, # of connection points: 2
#     Edge 17, Type (0, 1), BuildingBlock: FUNLAD_clean_linker_0, # of connection points: 2
#     Edge 18, Type (0, 1), BuildingBlock: FUNLAD_clean_linker_0, # of connection points: 2
#     Edge 19, Type (0, 1), BuildingBlock: FUNLAD_clean_linker_0, # of connection points: 2
#     Edge 20, Type (0, 1), BuildingBlock: FUNLAD_clean_linker_0, # of connection points: 2
#     Edge 21, Type (0, 1), BuildingBlock: FUNLAD_clean_linker_0, # of connection points: 2
#     Edge 22, Type (0, 1), BuildingBlock: FUNLAD_clean_linker_0, # of connection points: 2
#     Edge 23, Type (0, 1), BuildingBlock: FUNLAD_clean_linker_0, # of connection points: 2
#     Edge 24, Type (0, 1), BuildingBlock: FUNLAD_clean_linker_0, # of connection points: 2
#     Edge 25, Type (0, 1), BuildingBlock: FUNLAD_clean_linker_0, # of connection points: 2
#     Edge 26, Type (0, 1), BuildingBlock: FUNLAD_clean_linker_0, # of connection points: 2
# Relax obj value: 0.157
# Max RMSD: 0.216
# Mean RMSD: 0.138
data_MOF--net-anh--node1-VOLQOD_clean_sbu_1--node2-BETDAH_clean_linker_0--edge1-FUNLAD_clean_linker_0
_symmetry_space_group_name_H-M    P1
_symmetry_Int_Tables_number       1
_symmetry_cell_setting            triclinic
loop_
_symmetry_equiv_pos_as_xyz
'x, y, z'
_cell_length_a     34.102946
_cell_length_b     33.847674
_cell_length_c     65.578181
_cell_angle_alpha  92.613328
_cell_angle_beta   92.42413
_cell_angle_gamma 120.11097
loop_
_atom_site_label
_atom_site_type_symbol
_atom_site_fract_x
_atom_site_fract_y
_atom_site_fract_z
_atom_type_partial_charge
O0 O 0.0135 0.60134 0.20979 0.0
Zn1 Zn 0.01372 0.61315 0.17976 0.0
O2 O 0.0183 0.56709 0.16251 0.0
Zn3 Zn 0.96525 0.53511 0.1432 0.0
Zn4 Zn 0.02185 0.52349 0.17989 0.0
Zn5 Zn 0.07168 0.59604 0.14674 0.0
O6 O 0.982 0.53202 0.11446 0.0
O7 O 0.05619 0.58073 0.11625 0.0
O8 O 0.95756 0.61574 0.17124 0.0
O9 O 0.92935 0.56709 0.14345 0.0
O10 O 0.92486 0.47049 0.15037 0.0
O11 O 0.96591 0.46124 0.17484 0.0
O12 O 0.0767 0.5179 0.17476 0.0
O13 O 0.06721 0.67569 0.17662 0.0
O14 O 0.11345 0.57232 0.15371 0.0
O15 O 0.1057 0.66425 0.15281 0.0
C16 C 0.01965 0.57268 0.21934 0.0
C17 C 0.01913 0.55294 0.10588 0.0
C18 C 0.92995 0.44557 0.16296 0.0
C19 C 0.92891 0.59701 0.15577 0.0
C20 C 0.11066 0.54056 0.16432 0.0
C21 C 0.10031 0.69094 0.16521 0.0
O22 O 0.02496 0.54232 0.20974 0.0
O23 O 0.52993 0.0975 0.44614 0.0
Zn24 Zn 0.51558 0.09701 0.47577 0.0
O25 O 0.55619 0.08463 0.49296 0.0
Zn26 Zn 0.59606 0.13874 0.51101 0.0
Zn27 Zn 0.59305 0.06935 0.47578 0.0
Zn28 Zn 0.52057 0.03366 0.50946 0.0
O29 O 0.59175 0.12428 0.54052 0.0
O30 O 0.53432 0.05264 0.53976 0.0
O31 O 0.52071 0.15789 0.48465 0.0
O32 O 0.57844 0.18655 0.50838 0.0
O33 O 0.66092 0.16739 0.50374 0.0
O34 O 0.6591 0.11838 0.47957 0.0
O35 O 0.58679 0.00818 0.48144 0.0
O36 O 0.45049 0.04659 0.4769 0.0
O37 O 0.53523 0.98373 0.50442 0.0
O38 O 0.45373 0.00525 0.50156 0.0
C39 C 0.55262 0.08298 0.4366 0.0
C40 C 0.56481 0.08939 0.54969 0.0
C41 C 0.68086 0.15561 0.4909 0.0
C42 C 0.54838 0.18999 0.49774 0.0
C43 C 0.56175 0.97789 0.4932 0.0
C44 C 0.43104 0.01299 0.48801 0.0
O45 O 0.57563 0.06841 0.44609 0.0
O46 O 0.51988 0.51636 0.7926 0.0
Zn47 Zn 0.50439 0.49964 0.82152 0.0
O48 O 0.55124 0.54559 0.84157 0.0
Zn49 Zn 0.52748 0.57782 0.85765 0.0
Zn50 Zn 0.60314 0.58905 0.82731 0.0
Zn51 Zn 0.57022 0.51504 0.86038 0.0
O52 O 0.53364 0.5729 0.8883 0.0
O53 O 0.55459 0.52068 0.88891 0.0
O54 O 0.44323 0.49248 0.82639 0.0
O55 O 0.46054 0.54808 0.85058 0.0
O56 O 0.55716 0.64408 0.85132 0.0
O57 O 0.61104 0.65198 0.83116 0.0
O58 O 0.66155 0.59138 0.83706 0.0
O59 O 0.49955 0.43798 0.82353 0.0
O60 O 0.63714 0.54202 0.8611 0.0
O61 O 0.54328 0.44864 0.85162 0.0
C62 C 0.5569 0.5447 0.78525 0.0
C63 C 0.54235 0.54617 0.89809 0.0
C64 C 0.59006 0.66862 0.84061 0.0
C65 C 0.43146 0.51461 0.83847 0.0
C66 C 0.6691 0.57071 0.85111 0.0
C67 C 0.5166 0.42288 0.83653 0.0
O68 O 0.59185 0.5726 0.7969 0.0
H69 H 0.44064 0.04218 0.25454 0.0
H70 H 0.57794 0.08719 0.23973 0.0
H71 H 0.46659 0.00404 0.19536 0.0
C72 C 0.46447 0.0441 0.24365 0.0
C73 C 0.44796 0.02143 0.22409 0.0
C74 C 0.51127 0.06751 0.24957 0.0
C75 C 0.54179 0.06934 0.23535 0.0
C76 C 0.52546 0.04665 0.21572 0.0
C77 C 0.47879 0.02248 0.21033 0.0
N78 N 0.55503 0.04617 0.20132 0.0
C79 C 0.59837 0.08301 0.19996 0.0
H80 H 0.58544 0.51489 0.59069 0.0
H81 H 0.65523 0.66041 0.60545 0.0
H82 H 0.63008 0.60771 0.54266 0.0
C83 C 0.60061 0.54933 0.58576 0.0
C84 C 0.60513 0.55642 0.56478 0.0
C85 C 0.61845 0.58655 0.60059 0.0
C86 C 0.64094 0.63121 0.59424 0.0
C87 C 0.64438 0.63889 0.57348 0.0
C88 C 0.62621 0.60154 0.55872 0.0
N89 N 0.66886 0.68465 0.56801 0.0
C90 C 0.65491 0.7006 0.55173 0.0
H91 H 0.9708 0.51276 0.91934 0.0
H92 H 0.03077 0.42714 0.91718 0.0
H93 H 0.94382 0.42074 0.8663 0.0
C94 C 0.97678 0.48801 0.91108 0.0
C95 C 0.95498 0.46955 0.89151 0.0
C96 C 0.00363 0.47249 0.92066 0.0
C97 C 0.00985 0.43922 0.91008 0.0
C98 C 0.98824 0.42071 0.89046 0.0
C99 C 0.96034 0.43531 0.88144 0.0
N100 N -0.00535 0.38774 0.87946 0.0
C101 C 0.03816 0.39631 0.87662 0.0
H102 H 0.09288 0.6552 0.4056 0.0
H103 H 0.04537 0.51325 0.41502 0.0
H104 H 0.12394 0.61731 0.46314 0.0
C105 C 0.08948 0.62889 0.4154 0.0
C106 C 0.10954 0.64174 0.43554 0.0
C107 C 0.06656 0.58265 0.40765 0.0
C108 C 0.06286 0.54902 0.42063 0.0
C109 C 0.08359 0.5618 0.44064 0.0
C110 C 0.10707 0.60789 0.44786 0.0
N111 N 0.08409 0.52944 0.45341 0.0
C112 C 0.04581 0.48757 0.45591 0.0
H113 H 0.55576 0.12236 0.73886 0.0
H114 H 0.64029 0.06183 0.74409 0.0
H115 H 0.61434 0.11968 0.79784 0.0
C116 C 0.57556 0.11217 0.7483 0.0
C117 C 0.58115 0.12252 0.76956 0.0
C118 C 0.59695 0.09061 0.73894 0.0
C119 C 0.62293 0.07773 0.75114 0.0
C120 C 0.62938 0.08874 0.77239 0.0
C121 C 0.60888 0.11131 0.78144 0.0
N122 N 0.65927 0.08072 0.78475 0.0
C123 C 0.65384 0.03746 0.78572 0.0
H124 H 0.58378 0.56013 0.08693 0.0
H125 H 0.43913 0.46831 0.08492 0.0
H126 H 0.52289 0.48192 0.13832 0.0
C127 C 0.55391 0.5366 0.09438 0.0
C128 C 0.55891 0.52464 0.11419 0.0
C129 C 0.51094 0.51641 0.08358 0.0
C130 C 0.47254 0.48423 0.09297 0.0
C131 C 0.47733 0.47158 0.11259 0.0
C132 C 0.5202 0.4916 0.12303 0.0
N133 N 0.4394 0.43821 0.12202 0.0
C134 C 0.40095 0.44176 0.12368 0.0
C135 C 0.18306 0.55171 0.15125 0.0
C136 C 0.14625 0.5279 0.16329 0.0
C137 C 0.21468 0.53759 0.14876 0.0
C138 C 0.21005 0.49911 0.15817 0.0
C139 C 0.17451 0.47655 0.17094 0.0
C140 C 0.14273 0.49062 0.17341 0.0
C141 C 0.24216 0.48229 0.15517 0.0
C142 C 0.26358 0.48742 0.13784 0.0
C143 C 0.29698 0.47231 0.13455 0.0
C144 C 0.30756 0.46744 0.11443 0.0
C145 C 0.3409 0.45609 0.11074 0.0
C146 C 0.36407 0.44957 0.12713 0.0
H147 H 0.31445 0.47017 0.16668 0.0
C148 C 0.35359 0.45394 0.14719 0.0
C149 C 0.32038 0.46537 0.15093 0.0
H150 H 0.37189 0.44967 0.16001 0.0
H151 H 0.1872 0.58095 0.14345 0.0
H152 H 0.24273 0.55702 0.13949 0.0
H153 H 0.17066 0.44727 0.17862 0.0
H154 H 0.11495 0.47171 0.18291 0.0
H155 H 0.24629 0.46332 0.16715 0.0
H156 H 0.25557 0.50242 0.12518 0.0
H157 H 0.2904 0.47301 0.10156 0.0
H158 H 0.34916 0.45332 0.09515 0.0
C159 C 0.75258 0.23104 0.49873 0.0
C160 C 0.72896 0.18821 0.48747 0.0
C161 C 0.79552 0.26444 0.49362 0.0
C162 C 0.81611 0.25564 0.47721 0.0
C163 C 0.79317 0.21232 0.46643 0.0
C164 C 0.75019 0.17887 0.47155 0.0
C165 C 0.8594 0.2919 0.46989 0.0
C166 C 0.89001 0.32928 0.48176 0.0
C167 C 0.93113 0.36794 0.47413 0.0
C168 C 0.96722 0.39745 0.48839 0.0
C169 C 0.00517 0.43613 0.48219 0.0
C170 C 0.00752 0.44614 0.46166 0.0
H171 H 0.90625 0.35698 0.44204 0.0
C172 C 0.97196 0.41692 0.44724 0.0
C173 C 0.93388 0.37801 0.45341 0.0
H174 H 0.97321 0.42461 0.43134 0.0
H175 H 0.73719 0.23956 0.51101 0.0
H176 H 0.81128 0.29768 0.50201 0.0
H177 H 0.80809 0.20465 0.45368 0.0
H178 H 0.73296 0.1463 0.4625 0.0
H179 H 0.86613 0.28728 0.45418 0.0
H180 H 0.88539 0.33173 0.49795 0.0
H181 H 0.96585 0.39084 0.50443 0.0
H182 H 0.03238 0.45865 0.49353 0.0
C183 C 0.63484 0.74251 0.82429 0.0
C184 C 0.6018 0.71637 0.83769 0.0
C185 C 0.64268 0.78574 0.81983 0.0
C186 C 0.61747 0.80374 0.82864 0.0
C187 C 0.5861 0.77862 0.84278 0.0
C188 C 0.57814 0.73532 0.8472 0.0
C189 C 0.62265 0.84831 0.82347 0.0
C190 C 0.63706 0.86675 0.80555 0.0
C191 C 0.63988 0.91018 0.80011 0.0
C192 C 0.67112 0.93671 0.78615 0.0
C193 C 0.67523 0.97823 0.78101 0.0
C194 C 0.64767 0.99331 0.78956 0.0
H195 H 0.5857 0.90484 0.81831 0.0
C196 C 0.6155 0.96644 0.80296 0.0
C197 C 0.61141 0.92507 0.80815 0.0
H198 H 0.59382 0.97768 0.8096 0.0
H199 H 0.6541 0.72924 0.81686 0.0
H200 H 0.66845 0.80474 0.80948 0.0
H201 H 0.56668 0.79195 0.85001 0.0
H202 H 0.55268 0.71631 0.8577 0.0
H203 H 0.6125 0.8655 0.83463 0.0
H204 H 0.6475 0.84989 0.79438 0.0
H205 H 0.69301 0.92575 0.77954 0.0
H206 H 0.70032 -0.0012 0.77063 0.0
C207 C 0.87569 0.62159 0.16845 0.0
C208 C 0.89358 0.60922 0.15206 0.0
C209 C 0.83833 0.62755 0.16489 0.0
C210 C 0.81906 0.62208 0.14484 0.0
C211 C 0.83911 0.61308 0.12841 0.0
C212 C 0.87565 0.60607 0.13199 0.0
C213 C 0.77557 0.62087 0.14063 0.0
C214 C 0.74023 0.59736 0.15198 0.0
C215 C 0.69307 0.58171 0.1441 0.0
C216 C 0.65923 0.53687 0.14706 0.0
C217 C 0.61565 0.51855 0.13755 0.0
C218 C 0.60464 0.54514 0.12526 0.0
H219 H 0.70732 0.64413 0.13029 0.0
C220 C 0.63808 0.591 0.12323 0.0
C221 C 0.68198 0.60904 0.13246 0.0
H222 H 0.63051 0.61287 0.11435 0.0
H223 H 0.88914 0.62449 0.18406 0.0
H224 H 0.82381 0.6352 0.17779 0.0
H225 H 0.82487 0.60891 0.11283 0.0
H226 H 0.88929 0.59722 0.11907 0.0
H227 H 0.76994 0.63156 0.12594 0.0
H228 H 0.74491 0.58221 0.16547 0.0
H229 H 0.6671 0.51515 0.15592 0.0
H230 H 0.59118 0.48297 0.13929 0.0
C231 C 0.3608 0.94027 0.49475 0.0
C232 C 0.38219 0.97888 0.48337 0.0
C233 C 0.31767 0.90379 0.48819 0.0
C234 C 0.29468 0.90521 0.47013 0.0
C235 C 0.31488 0.94503 0.4595 0.0
C236 C 0.35807 0.98157 0.46607 0.0
C237 C 0.25314 0.86397 0.46049 0.0
C238 C 0.22671 0.82692 0.47058 0.0
C239 C 0.19257 0.78169 0.46021 0.0
C240 C 0.16022 0.74862 0.47192 0.0
C241 C 0.13194 0.70363 0.46364 0.0
C242 C 0.13558 0.69061 0.44346 0.0
H243 H 0.22024 0.79289 0.4303 0.0
C244 C 0.16667 0.72402 0.43145 0.0
C245 C 0.19499 0.76903 0.43973 0.0
H246 H 0.17078 0.7149 0.41597 0.0
H247 H 0.37831 0.93704 0.50817 0.0
H248 H 0.3041 0.87362 0.4967 0.0
H249 H 0.29808 0.94709 0.44552 0.0
H250 H 0.37343 0.01084 0.45695 0.0
H251 H 0.24564 0.86351 0.4442 0.0
H252 H 0.23129 0.82885 0.48714 0.0
H253 H 0.15773 0.75726 0.48774 0.0
H254 H 0.10791 0.67872 0.4732 0.0
C255 C 0.49144 0.35136 0.81391 0.0
C256 C 0.50941 0.37614 0.83301 0.0
C257 C 0.49204 0.3109 0.80942 0.0
C258 C 0.51024 0.2941 0.82411 0.0
C259 C 0.5253 0.31737 0.84364 0.0
C260 C 0.52496 0.35791 0.84805 0.0
C261 C 0.51945 0.25631 0.81914 0.0
C262 C 0.50514 0.22964 0.80145 0.0
C263 C 0.52334 0.19964 0.79509 0.0
C264 C 0.49784 0.16276 0.78044 0.0
C265 C 0.51601 0.13681 0.77257 0.0
C266 C 0.56033 0.14755 0.77906 0.0
H267 H 0.58895 0.23904 0.81252 0.0
C268 C 0.58558 0.18401 0.79397 0.0
C269 C 0.56742 0.20986 0.80185 0.0
H270 H 0.62017 0.19383 0.79896 0.0
H271 H 0.47918 0.36447 0.80198 0.0
H272 H 0.48038 0.29466 0.7941 0.0
H273 H 0.53937 0.30531 0.85529 0.0
H274 H 0.53867 0.37591 0.86302 0.0
H275 H 0.5412 0.25196 0.8303 0.0
H276 H 0.48025 0.23032 0.79085 0.0
H277 H 0.46401 0.15442 0.77483 0.0
H278 H 0.49554 0.10863 0.76123 0.0
C279 C 0.59879 0.93109 0.48578 0.0
C280 C 0.56388 0.93537 0.49437 0.0
C281 C 0.60221 0.89201 0.48825 0.0
C282 C 0.57063 0.8564 0.49933 0.0
C283 C 0.53461 0.85984 0.50701 0.0
C284 C 0.53141 0.89892 0.50471 0.0
C285 C 0.57474 0.81599 0.50399 0.0
C286 C 0.61497 0.8175 0.5062 0.0
C287 C 0.62138 0.7813 0.51526 0.0
C288 C 0.66414 0.78469 0.51465 0.0
C289 C 0.67434 0.75611 0.52564 0.0
C290 C 0.64185 0.72356 0.53736 0.0
H291 H 0.55508 0.74314 0.52776 0.0
C292 C 0.59849 0.71831 0.53732 0.0
C293 C 0.5882 0.74688 0.52638 0.0
H294 H 0.57324 0.69368 0.54658 0.0
H295 H 0.62407 0.95832 0.47753 0.0
H296 H 0.62965 0.89 0.48153 0.0
H297 H 0.50958 0.83279 0.51545 0.0
H298 H 0.50372 0.90075 0.5113 0.0
H299 H 0.54386 0.78568 0.50753 0.0
H300 H 0.6456 0.84824 0.50269 0.0
H301 H 0.69046 0.81084 0.50634 0.0
H302 H 0.70826 0.76092 0.52573 0.0
C303 C 0.72319 0.55732 0.87206 0.0
C304 C 0.71473 0.57644 0.85504 0.0
C305 C 0.76277 0.55521 0.8743 0.0
C306 C 0.79487 0.57217 0.8596 0.0
C307 C 0.78853 0.59473 0.84347 0.0
C308 C 0.74848 0.59666 0.84112 0.0
C309 C 0.83345 0.56382 0.86065 0.0
C310 C 0.82618 0.52204 0.8645 0.0
C311 C 0.86232 0.51079 0.86858 0.0
C312 C 0.85033 0.46454 0.86688 0.0
C313 C 0.88113 0.45135 0.87354 0.0
C314 C 0.92448 0.48422 0.88224 0.0
H315 H 0.9166 0.57989 0.87834 0.0
C316 C 0.93721 0.53076 0.88323 0.0
C317 C 0.90643 0.54401 0.87644 0.0
H318 H 0.97061 0.5568 0.88974 0.0
H319 H 0.69841 0.5423 0.88332 0.0
H320 H 0.76763 0.53895 0.88726 0.0
H321 H 0.81331 0.60861 0.83214 0.0
H322 H 0.74305 0.61194 0.82793 0.0
H323 H 0.86707 0.59138 0.85785 0.0
H324 H 0.79133 0.49429 0.8652 0.0
H325 H 0.81642 0.43827 0.86103 0.0
H326 H 0.87022 0.41521 0.87276 0.0
C327 C 0.13186 0.77004 0.18201 0.0
C328 C 0.13475 0.74032 0.16725 0.0
C329 C 0.16714 0.81541 0.18559 0.0
C330 C 0.20611 0.8318 0.17453 0.0
C331 C 0.20746 0.80308 0.15881 0.0
C332 C 0.17227 0.75774 0.15525 0.0
C333 C 0.24741 0.877 0.17995 0.0
C334 C 0.25931 0.89632 0.19929 0.0
C335 C 0.30608 0.93342 0.20601 0.0
C336 C 0.32304 0.93503 0.22609 0.0
C337 C 0.36881 0.96481 0.23221 0.0
C338 C 0.39844 0.99396 0.21841 0.0
H339 H 0.3227 0.96561 0.17724 0.0
C340 C 0.38083 0.99455 0.19873 0.0
C341 C 0.33502 0.96469 0.19259 0.0
H342 H 0.4027 0.01752 0.18795 0.0
H343 H 0.10302 0.75796 0.19127 0.0
H344 H 0.16417 0.83712 0.19731 0.0
H345 H 0.23687 0.81504 0.1499 0.0
H346 H 0.17531 0.73599 0.14355 0.0
H347 H 0.2718 0.89079 0.1684 0.0
H348 H 0.23659 0.88002 0.21122 0.0
H349 H 0.30139 0.91151 0.23677 0.0
H350 H 0.38138 0.96338 0.24745 0.0
C351 C 0.5835 0.27184 0.5109 0.0
C352 C 0.54623 0.23246 0.50087 0.0
C353 C 0.58168 0.31168 0.5148 0.0
C354 C 0.54245 0.31325 0.50879 0.0
C355 C 0.50508 0.27397 0.49876 0.0
C356 C 0.50711 0.23404 0.4946 0.0
C357 C 0.53899 0.35437 0.51444 0.0
C358 C 0.57564 0.39693 0.51591 0.0
C359 C 0.57713 0.4382 0.52573 0.0
C360 C 0.61488 0.48132 0.52315 0.0
C361 C 0.62243 0.52025 0.53494 0.0
C362 C 0.59243 0.51695 0.5497 0.0
H363 H 0.51633 0.40278 0.54234 0.0
C364 C 0.55313 0.47432 0.55143 0.0
C365 C 0.54554 0.4353 0.53961 0.0
H366 H 0.52913 0.47076 0.56252 0.0
H367 H 0.61415 0.27186 0.51597 0.0
H368 H 0.61062 0.34071 0.52316 0.0
H369 H 0.47423 0.27411 0.49423 0.0
H370 H 0.47773 0.20415 0.48695 0.0
H371 H 0.50592 0.34907 0.51788 0.0
H372 H 0.60729 0.40164 0.51047 0.0
H373 H 0.63989 0.4846 0.51266 0.0
H374 H 0.6533 0.55239 0.53335 0.0
C375 C 0.3694 0.52026 0.85472 0.0
C376 C 0.38271 0.49913 0.8398 0.0
C377 C 0.32359 0.50329 0.85756 0.0
C378 C 0.28972 0.46504 0.84531 0.0
C379 C 0.30298 0.4444 0.83015 0.0
C380 C 0.34899 0.46129 0.82737 0.0
C381 C 0.24064 0.44422 0.84871 0.0
C382 C 0.22329 0.46698 0.85869 0.0
C383 C 0.17508 0.44594 0.86351 0.0
C384 C 0.1644 0.46695 0.87958 0.0
C385 C 0.11944 0.44956 0.88431 0.0
C386 C 0.08448 0.41101 0.87296 0.0
H387 H 0.14616 0.39039 0.83937 0.0
C388 C 0.0946 0.38956 0.85697 0.0
C389 C 0.13965 0.40687 0.85223 0.0
H390 H 0.06764 0.36016 0.84785 0.0
H391 H 0.39442 0.54919 0.86473 0.0
H392 H 0.31538 0.51948 0.86991 0.0
H393 H 0.27767 0.41473 0.82058 0.0
H394 H 0.35807 0.44407 0.81579 0.0
H395 H 0.21855 0.40871 0.84305 0.0
H396 H 0.24531 0.50261 0.86415 0.0
H397 H 0.19092 0.49716 0.88844 0.0
H398 H 0.11191 0.4668 0.89654 0.0
C399 C 0.89467 0.37155 0.17979 0.0
C400 C 0.8927 0.39794 0.16425 0.0
C401 C 0.85828 0.32751 0.18171 0.0
C402 C 0.81915 0.30903 0.1681 0.0
C403 C 0.81798 0.33469 0.15213 0.0
C404 C 0.85419 0.37877 0.15028 0.0
C405 C 0.77862 0.26355 0.17014 0.0
C406 C 0.76701 0.24469 0.18816 0.0
C407 C 0.72358 0.20187 0.19051 0.0
C408 C 0.72026 0.17624 0.2073 0.0
C409 C 0.67924 0.13676 0.21041 0.0
C410 C 0.64108 0.12274 0.19682 0.0
H411 H 0.68511 0.20715 0.16442 0.0
C412 C 0.64393 0.14818 0.18018 0.0
C413 C 0.68474 0.18756 0.17705 0.0
H414 H 0.61439 0.13794 0.16971 0.0
H415 H 0.92405 0.3851 0.19069 0.0
H416 H 0.8611 0.30818 0.1938 0.0
H417 H 0.78841 0.32105 0.14132 0.0
H418 H 0.85171 0.39796 0.13801 0.0
H419 H 0.75638 0.24651 0.15638 0.0
H420 H 0.78936 0.26153 0.20191 0.0
H421 H 0.74942 0.18683 0.21805 0.0
H422 H 0.67726 0.11746 0.22346 0.0
C423 C 0.05952 0.56554 0.07348 0.0
C424 C 0.01935 0.54281 0.08366 0.0
C425 C 0.05988 0.55396 0.05274 0.0
C426 C 0.01999 0.51935 0.04177 0.0
C427 C 0.97998 0.49685 0.05195 0.0
C428 C 0.97953 0.50856 0.07258 0.0
C429 C 0.01869 0.50455 0.01995 0.0
C430 C 0.04759 0.53138 0.00656 0.0
C431 C 0.04171 0.51648 0.98444 0.0
C432 C 0.05158 0.54884 0.96995 0.0
C433 C 0.04119 0.5349 0.94907 0.0
C434 C 0.02146 0.4884 0.94229 0.0
H435 H 0.01799 0.44474 0.98833 0.0
C436 C 0.01461 0.45647 0.9567 0.0
C437 C 0.0246 0.47035 0.97758 0.0
H438 H -0.00056 0.42041 0.95193 0.0
H439 H 0.09088 0.59187 0.08159 0.0
H440 H 0.09165 0.57139 0.04557 0.0
H441 H 0.94881 0.46997 0.0439 0.0
H442 H 0.94801 0.49014 0.07989 0.0
H443 H 0.99051 0.47106 0.01437 0.0
H444 H 0.07315 0.56656 0.01138 0.0
H445 H 0.06536 0.58466 0.97483 0.0
H446 H 0.04737 0.56032 0.93826 0.0
C447 C 0.53154 0.1032 0.40308 0.0
C448 C 0.55319 0.08381 0.41404 0.0
C449 C 0.53267 0.10428 0.3818 0.0
C450 C 0.55563 0.08603 0.37105 0.0
C451 C 0.57687 0.06637 0.38201 0.0
C452 C 0.57592 0.06546 0.40324 0.0
C453 C 0.55593 0.08417 0.34839 0.0
C454 C 0.54938 0.11227 0.33661 0.0
C455 C 0.54528 0.1063 0.3139 0.0
C456 C 0.51732 0.11868 0.30298 0.0
C457 C 0.50811 0.10833 0.28184 0.0
C458 C 0.52711 0.0858 0.27117 0.0
H459 H 0.59021 0.07849 0.31077 0.0
C460 C 0.55781 0.07653 0.28187 0.0
C461 C 0.56694 0.0868 0.30301 0.0
H462 H 0.57307 0.05926 0.27409 0.0
H463 H 0.51354 0.11744 0.4109 0.0
H464 H 0.51459 0.11842 0.3739 0.0
H465 H 0.59437 0.05163 0.37411 0.0
H466 H 0.59288 0.05014 0.41115 0.0
H467 H 0.56103 0.05772 0.34121 0.0
H468 H 0.54382 0.13853 0.34364 0.0
H469 H 0.50086 0.13448 0.31094 0.0
H470 H 0.48495 0.11664 0.27393 0.0
C471 C 0.59995 0.57689 0.7544 0.0
C472 C 0.55958 0.54535 0.76274 0.0
C473 C 0.60273 0.57777 0.73322 0.0
C474 C 0.56523 0.54681 0.71982 0.0
C475 C 0.52473 0.51567 0.72815 0.0
C476 C 0.52194 0.51477 0.74936 0.0
C477 C 0.56647 0.54739 0.69717 0.0
C478 C 0.60525 0.56385 0.68757 0.0
C479 C 0.60747 0.56759 0.66509 0.0
C480 C 0.6488 0.59973 0.65773 0.0
C481 C 0.65244 0.60558 0.63683 0.0
C482 C 0.61486 0.57904 0.62273 0.0
H483 H 0.53799 0.51396 0.65586 0.0
C484 C 0.57379 0.54585 0.62997 0.0
C485 C 0.57006 0.54013 0.65093 0.0
H486 H 0.54428 0.52482 0.61945 0.0
H487 H 0.62949 0.60128 0.76422 0.0
H488 H 0.63406 0.60351 0.72753 0.0
H489 H 0.49516 0.49179 0.7182 0.0
H490 H 0.49024 0.49013 0.75524 0.0
H491 H 0.53419 0.53397 0.6883 0.0
H492 H 0.63738 0.57684 0.69653 0.0
H493 H 0.67832 0.62096 0.66823 0.0
H494 H 0.6848 0.63084 0.63169 0.0
C495 C 0.54851 0.05201 0.58297 0.0
C496 C 0.56908 0.09194 0.57234 0.0
C497 C 0.55296 0.05483 0.60439 0.0
C498 C 0.57776 0.09772 0.61557 0.0
C499 C 0.59774 0.1375 0.60494 0.0
C500 C 0.59387 0.13468 0.58359 0.0
C501 C 0.5819 0.10282 0.63827 0.0
C502 C 0.58255 0.07166 0.65019 0.0
C503 C 0.58803 0.07765 0.67303 0.0
C504 C 0.57848 0.03964 0.68419 0.0
C505 C 0.58219 0.04368 0.70565 0.0
C506 C 0.59522 0.08582 0.71632 0.0
H507 H 0.61277 0.15112 0.6763 0.0
C508 C 0.60609 0.12406 0.70525 0.0
C509 C 0.60296 0.12025 0.68393 0.0
H510 H 0.61731 0.15723 0.71316 0.0
H511 H 0.52908 0.01856 0.57474 0.0
H512 H 0.53612 0.02353 0.61211 0.0
H513 H 0.61669 0.17098 0.61319 0.0
H514 H 0.60988 0.16612 0.57591 0.0
H515 H 0.58573 0.13441 0.6451 0.0
H516 H 0.57889 0.04032 0.643 0.0
H517 H 0.56751 0.00654 0.67628 0.0
H518 H 0.57386 0.01373 0.71388 0.0
C519 C 0.52255 0.56959 0.93142 0.0
C520 C 0.5365 0.54277 0.92035 0.0
C521 C 0.51513 0.56418 0.95224 0.0
C522 C 0.52154 0.53177 0.96234 0.0
C523 C 0.53565 0.5053 0.95126 0.0
C524 C 0.54327 0.51084 0.93061 0.0
C525 C 0.51253 0.523 0.98413 0.0
C526 C 0.51345 0.55355 0.99833 0.0
C527 C 0.50841 0.54412 0.02027 0.0
C528 C 0.53288 0.58022 0.03539 0.0
C529 C 0.5325 0.57155 0.05605 0.0
C530 C 0.5071 0.5266 0.06202 0.0
H531 H 0.46046 0.47106 0.01515 0.0
C532 C 0.48045 0.49087 0.04698 0.0
C533 C 0.48099 0.49952 0.02634 0.0
H534 H 0.46053 0.45586 0.05105 0.0
H535 H 0.51674 0.59429 0.92396 0.0
H536 H 0.50335 0.58457 0.96015 0.0
H537 H 0.54075 0.48001 0.95861 0.0
H538 H 0.5539 0.48945 0.92263 0.0
H539 H 0.508 0.49075 0.98893 0.0
H540 H 0.52233 0.58763 0.99426 0.0
H541 H 0.55374 0.61498 0.03115 0.0
H542 H 0.55279 0.59991 0.06733 0.0
C543 C 0.02834 0.54367 0.25278 0.0
C544 C 0.02048 0.57436 0.24202 0.0
C545 C 0.02952 0.54523 0.27415 0.0
C546 C 0.02248 0.57738 0.28534 0.0
C547 C 0.0148 0.60812 0.27457 0.0
C548 C 0.01366 0.60659 0.25319 0.0
C549 C 0.02532 0.58168 0.30816 0.0
C550 C 0.02183 0.54866 0.32002 0.0
C551 C 0.02917 0.55529 0.34273 0.0
C552 C 0.04604 0.53074 0.35297 0.0
C553 C 0.05668 0.53842 0.37413 0.0
C554 C 0.05009 0.57046 0.38561 0.0
H555 H 0.00579 0.60395 0.3471 0.0
C556 C 0.03083 0.5932 0.3755 0.0
C557 C 0.02048 0.58574 0.3543 0.0
H558 H 0.02423 0.61725 0.38394 0.0
H559 H 0.03409 0.51859 0.24472 0.0
H560 H 0.03707 0.52183 0.28168 0.0
H561 H 0.0097 0.63355 0.28275 0.0
H562 H 0.0076 0.63082 0.24543 0.0
H563 H 0.03152 0.61402 0.31537 0.0
H564 H 0.01589 0.51631 0.31301 0.0
H565 H 0.05265 0.50675 0.34447 0.0
H566 H 0.07183 0.52056 0.38132 0.0
loop_
_geom_bond_atom_site_label_1
_geom_bond_atom_site_label_2
_geom_bond_distance
_geom_bond_site_symmetry_2
_ccdc_geom_bond_type
O0 Zn1 1.953 . S
O0 C16 1.225 . S
Zn1 O0 1.953 . S
Zn1 O2 1.949 . S
Zn1 O8 1.919 1_455 S
Zn1 O13 1.924 . S
O2 Zn1 1.949 . S
O2 Zn3 1.923 1_455 S
O2 Zn4 1.950 . S
O2 Zn5 1.945 . S
Zn3 O2 1.923 1_655 S
Zn3 O6 1.933 1_655 S
Zn3 O9 1.941 . S
Zn3 O10 1.965 . S
Zn4 O2 1.950 . S
Zn4 O11 1.938 . S
Zn4 O12 1.906 . S
Zn4 O22 1.953 . S
Zn5 O2 1.945 . S
Zn5 O7 1.932 . S
Zn5 O14 1.977 . S
Zn5 O15 1.910 . S
O6 Zn3 1.933 1_455 S
O6 C17 1.226 . S
O7 Zn5 1.932 . S
O7 C17 1.307 . S
O8 Zn1 1.919 1_655 S
O8 C19 1.253 . S
O9 Zn3 1.941 . S
O9 C19 1.283 . S
O10 Zn3 1.965 . S
O10 C18 1.303 . S
O11 Zn4 1.938 . S
O11 C18 1.247 1_455 S
O12 Zn4 1.906 . S
O12 C20 1.304 . S
O13 Zn1 1.924 . S
O13 C21 1.311 . S
O14 Zn5 1.977 . S
O14 C20 1.272 . S
O15 Zn5 1.910 . S
O15 C21 1.231 . S
C16 O0 1.225 . S
C16 O22 1.298 . S
C17 O6 1.226 . S
C17 O7 1.307 . S
C18 O10 1.303 . S
C18 O11 1.247 1_655 S
C19 O8 1.253 . S
C19 O9 1.283 . S
C20 O12 1.304 . S
C20 O14 1.272 . S
C21 O13 1.311 . S
C21 O15 1.231 . S
O22 Zn4 1.953 . S
O22 C16 1.298 . S
O23 Zn24 1.953 . S
O23 C39 1.225 . S
Zn24 O23 1.953 . S
Zn24 O25 1.949 . S
Zn24 O31 1.919 . S
Zn24 O36 1.924 . S
O25 Zn24 1.949 . S
O25 Zn26 1.923 . S
O25 Zn27 1.950 . S
O25 Zn28 1.945 . S
Zn26 O25 1.923 . S
Zn26 O29 1.933 . S
Zn26 O32 1.941 . S
Zn26 O33 1.965 . S
Zn27 O25 1.950 . S
Zn27 O34 1.938 . S
Zn27 O35 1.906 1_545 S
Zn27 O45 1.953 . S
Zn28 O25 1.945 . S
Zn28 O30 1.932 . S
Zn28 O37 1.977 1_545 S
Zn28 O38 1.910 1_545 S
O29 Zn26 1.933 . S
O29 C40 1.226 . S
O30 Zn28 1.932 . S
O30 C40 1.307 . S
O31 Zn24 1.919 . S
O31 C42 1.253 . S
O32 Zn26 1.941 . S
O32 C42 1.283 . S
O33 Zn26 1.965 . S
O33 C41 1.303 . S
O34 Zn27 1.938 . S
O34 C41 1.247 . S
O35 Zn27 1.906 1_565 S
O35 C43 1.304 . S
O36 Zn24 1.924 . S
O36 C44 1.311 1_545 S
O37 Zn28 1.977 1_565 S
O37 C43 1.272 . S
O38 Zn28 1.910 1_565 S
O38 C44 1.231 . S
C39 O23 1.225 . S
C39 O45 1.298 . S
C40 O29 1.226 . S
C40 O30 1.307 . S
C41 O33 1.303 . S
C41 O34 1.247 . S
C42 O31 1.253 . S
C42 O32 1.283 . S
C43 O35 1.304 . S
C43 O37 1.272 . S
C44 O36 1.311 1_565 S
C44 O38 1.231 . S
O45 Zn27 1.953 . S
O45 C39 1.298 . S
O46 Zn47 1.953 . S
O46 C62 1.225 . S
Zn47 O46 1.953 . S
Zn47 O48 1.949 . S
Zn47 O54 1.919 . S
Zn47 O59 1.924 . S
O48 Zn47 1.949 . S
O48 Zn49 1.923 . S
O48 Zn50 1.950 . S
O48 Zn51 1.945 . S
Zn49 O48 1.923 . S
Zn49 O52 1.933 . S
Zn49 O55 1.941 . S
Zn49 O56 1.965 . S
Zn50 O48 1.950 . S
Zn50 O57 1.938 . S
Zn50 O58 1.906 . S
Zn50 O68 1.953 . S
Zn51 O48 1.945 . S
Zn51 O53 1.932 . S
Zn51 O60 1.977 . S
Zn51 O61 1.910 . S
O52 Zn49 1.933 . S
O52 C63 1.226 . S
O53 Zn51 1.932 . S
O53 C63 1.307 . S
O54 Zn47 1.919 . S
O54 C65 1.253 . S
O55 Zn49 1.941 . S
O55 C65 1.283 . S
O56 Zn49 1.965 . S
O56 C64 1.303 . S
O57 Zn50 1.938 . S
O57 C64 1.247 . S
O58 Zn50 1.906 . S
O58 C66 1.304 . S
O59 Zn47 1.924 . S
O59 C67 1.311 . S
O60 Zn51 1.977 . S
O60 C66 1.272 . S
O61 Zn51 1.910 . S
O61 C67 1.231 . S
C62 O46 1.225 . S
C62 O68 1.298 . S
C63 O52 1.226 . S
C63 O53 1.307 . S
C64 O56 1.303 . S
C64 O57 1.247 . S
C65 O54 1.253 . S
C65 O55 1.283 . S
C66 O58 1.304 . S
C66 O60 1.272 . S
C67 O59 1.311 . S
C67 O61 1.231 . S
O68 Zn50 1.953 . S
O68 C62 1.298 . S
H69 C72 0.929 . S
H70 C75 0.929 . S
H71 C77 0.930 . S
C72 H69 0.929 . S
C72 C73 1.398 . S
C72 C74 1.396 . S
C73 C72 1.398 . S
C73 C77 1.407 . S
C74 C72 1.396 . S
C74 C75 1.394 . S
C75 H70 0.929 . S
C75 C74 1.394 . S
C75 C76 1.382 . S
C76 C75 1.382 . S
C76 C77 1.392 . S
C76 N78 1.420 . S
C77 H71 0.930 . S
C77 C73 1.407 . S
C77 C76 1.392 . S
N78 C76 1.420 . S
N78 C79 1.244 . S
C79 N78 1.244 . S
H80 C83 0.929 . S
H81 C86 0.929 . S
H82 C88 0.930 . S
C83 H80 0.929 . S
C83 C84 1.398 . S
C83 C85 1.396 . S
C84 C83 1.398 . S
C84 C88 1.407 . S
C85 C83 1.396 . S
C85 C86 1.394 . S
C86 H81 0.929 . S
C86 C85 1.394 . S
C86 C87 1.382 . S
C87 C86 1.382 . S
C87 C88 1.392 . S
C87 N89 1.420 . S
C88 H82 0.930 . S
C88 C84 1.407 . S
C88 C87 1.392 . S
N89 C87 1.420 . S
N89 C90 1.244 . S
C90 N89 1.244 . S
H91 C94 0.929 . S
H92 C97 0.929 . S
H93 C99 0.930 . S
C94 H91 0.929 . S
C94 C95 1.398 . S
C94 C96 1.396 . S
C95 C94 1.398 . S
C95 C99 1.407 . S
C96 C94 1.396 . S
C96 C97 1.394 . S
C97 H92 0.929 . S
C97 C96 1.394 . S
C97 C98 1.382 . S
C98 C97 1.382 . S
C98 C99 1.392 . S
C98 N100 1.420 . S
C99 H93 0.930 . S
C99 C95 1.407 . S
C99 C98 1.392 . S
N100 C98 1.420 . S
N100 C101 1.244 . S
C101 N100 1.244 . S
H102 C105 0.929 . S
H103 C108 0.929 1_655 S
H104 C110 0.930 . S
C105 H102 0.929 . S
C105 C106 1.398 . S
C105 C107 1.396 . S
C106 C105 1.398 . S
C106 C110 1.407 . S
C107 C105 1.396 . S
C107 C108 1.394 . S
C108 H103 0.929 1_455 S
C108 C107 1.394 . S
C108 C109 1.382 . S
C109 C108 1.382 . S
C109 C110 1.392 . S
C109 N111 1.420 1_455 S
C110 H104 0.930 . S
C110 C106 1.407 . S
C110 C109 1.392 . S
N111 C109 1.420 1_655 S
N111 C112 1.244 . S
C112 N111 1.244 . S
H113 C116 0.929 . S
H114 C119 0.929 1_565 S
H115 C121 0.930 . S
C116 H113 0.929 . S
C116 C117 1.398 . S
C116 C118 1.396 . S
C117 C116 1.398 . S
C117 C121 1.407 . S
C118 C116 1.396 . S
C118 C119 1.394 . S
C119 H114 0.929 1_545 S
C119 C118 1.394 . S
C119 C120 1.382 . S
C120 C119 1.382 . S
C120 C121 1.392 . S
C120 N122 1.420 1_545 S
C121 H115 0.930 . S
C121 C117 1.407 . S
C121 C120 1.392 . S
N122 C120 1.420 1_565 S
N122 C123 1.244 . S
C123 N122 1.244 . S
H124 C127 0.929 . S
H125 C130 0.929 . S
H126 C132 0.930 . S
C127 H124 0.929 . S
C127 C128 1.398 . S
C127 C129 1.396 . S
C128 C127 1.398 . S
C128 C132 1.407 . S
C129 C127 1.396 . S
C129 C130 1.394 . S
C130 H125 0.929 . S
C130 C129 1.394 . S
C130 C131 1.382 . S
C131 C130 1.382 . S
C131 C132 1.392 . S
C131 N133 1.420 . S
C132 H126 0.930 . S
C132 C128 1.407 . S
C132 C131 1.392 . S
N133 C131 1.420 . S
N133 C134 1.244 . S
C134 N133 1.244 . S
C135 C136 1.386 . S
C135 C137 1.383 . S
C135 H151 0.951 . S
C136 C135 1.386 . S
C136 C140 1.383 . S
C137 C135 1.383 . S
C137 C138 1.402 . S
C137 H152 0.951 . S
C138 C137 1.402 . S
C138 C139 1.375 . S
C138 C141 1.481 . S
C139 C138 1.375 . S
C139 C140 1.367 . S
C139 H153 0.951 . S
C140 C136 1.383 . S
C140 C139 1.367 . S
C140 H154 0.950 . S
C141 C138 1.481 . S
C141 C142 1.297 . S
C141 H155 0.950 . S
C142 C141 1.297 . S
C142 C143 1.479 . S
C142 H156 0.950 . S
C143 C142 1.479 . S
C143 C144 1.375 . S
C143 C149 1.404 . S
C144 C143 1.375 . S
C144 C145 1.369 . S
C144 H157 0.950 . S
C145 C144 1.369 . S
C145 C146 1.392 . S
C145 H158 0.951 . S
C146 C145 1.392 . S
C146 C148 1.384 . S
H147 C149 0.949 . S
C148 C146 1.384 . S
C148 C149 1.385 . S
C148 H150 0.950 . S
C149 C143 1.404 . S
C149 H147 0.949 . S
C149 C148 1.385 . S
H150 C148 0.950 . S
H151 C135 0.951 . S
H152 C137 0.951 . S
H153 C139 0.951 . S
H154 C140 0.950 . S
H155 C141 0.950 . S
H156 C142 0.950 . S
H157 C144 0.950 . S
H158 C145 0.951 . S
C159 C160 1.386 . S
C159 C161 1.383 . S
C159 H175 0.951 . S
C160 C159 1.386 . S
C160 C164 1.383 . S
C161 C159 1.383 . S
C161 C162 1.402 . S
C161 H176 0.951 . S
C162 C161 1.402 . S
C162 C163 1.375 . S
C162 C165 1.481 . S
C163 C162 1.375 . S
C163 C164 1.367 . S
C163 H177 0.951 . S
C164 C160 1.383 . S
C164 C163 1.367 . S
C164 H178 0.950 . S
C165 C162 1.481 . S
C165 C166 1.297 . S
C165 H179 0.950 . S
C166 C165 1.297 . S
C166 C167 1.479 . S
C166 H180 0.950 . S
C167 C166 1.479 . S
C167 C168 1.375 . S
C167 C173 1.404 . S
C168 C167 1.375 . S
C168 C169 1.369 . S
C168 H181 0.950 . S
C169 C168 1.369 . S
C169 C170 1.392 . S
C169 H182 0.951 . S
C170 C169 1.392 . S
C170 C172 1.384 . S
H171 C173 0.949 . S
C172 C170 1.384 . S
C172 C173 1.385 . S
C172 H174 0.950 . S
C173 C167 1.404 . S
C173 H171 0.949 . S
C173 C172 1.385 . S
H174 C172 0.950 . S
H175 C159 0.951 . S
H176 C161 0.951 . S
H177 C163 0.951 . S
H178 C164 0.950 . S
H179 C165 0.950 . S
H180 C166 0.950 . S
H181 C168 0.950 . S
H182 C169 0.951 . S
C183 C184 1.386 . S
C183 C185 1.383 . S
C183 H199 0.951 . S
C184 C183 1.386 . S
C184 C188 1.383 . S
C185 C183 1.383 . S
C185 C186 1.402 . S
C185 H200 0.951 . S
C186 C185 1.402 . S
C186 C187 1.375 . S
C186 C189 1.481 . S
C187 C186 1.375 . S
C187 C188 1.367 . S
C187 H201 0.951 . S
C188 C184 1.383 . S
C188 C187 1.367 . S
C188 H202 0.950 . S
C189 C186 1.481 . S
C189 C190 1.297 . S
C189 H203 0.950 . S
C190 C189 1.297 . S
C190 C191 1.479 . S
C190 H204 0.950 . S
C191 C190 1.479 . S
C191 C192 1.375 . S
C191 C197 1.404 . S
C192 C191 1.375 . S
C192 C193 1.369 . S
C192 H205 0.950 . S
C193 C192 1.369 . S
C193 C194 1.392 . S
C193 H206 0.951 . S
C194 C193 1.392 . S
C194 C196 1.384 . S
H195 C197 0.949 . S
C196 C194 1.384 . S
C196 C197 1.385 . S
C196 H198 0.950 . S
C197 C191 1.404 . S
C197 H195 0.949 . S
C197 C196 1.385 . S
H198 C196 0.950 . S
H199 C183 0.951 . S
H200 C185 0.951 . S
H201 C187 0.951 . S
H202 C188 0.950 . S
H203 C189 0.950 . S
H204 C190 0.950 . S
H205 C192 0.950 . S
H206 C193 0.951 . S
C207 C208 1.386 . S
C207 C209 1.383 . S
C207 H223 0.951 . S
C208 C207 1.386 . S
C208 C212 1.383 . S
C209 C207 1.383 . S
C209 C210 1.402 . S
C209 H224 0.951 . S
C210 C209 1.402 . S
C210 C211 1.375 . S
C210 C213 1.481 . S
C211 C210 1.375 . S
C211 C212 1.367 . S
C211 H225 0.951 . S
C212 C208 1.383 . S
C212 C211 1.367 . S
C212 H226 0.950 . S
C213 C210 1.481 . S
C213 C214 1.297 . S
C213 H227 0.950 . S
C214 C213 1.297 . S
C214 C215 1.479 . S
C214 H228 0.950 . S
C215 C214 1.479 . S
C215 C216 1.375 . S
C215 C221 1.404 . S
C216 C215 1.375 . S
C216 C217 1.369 . S
C216 H229 0.950 . S
C217 C216 1.369 . S
C217 C218 1.392 . S
C217 H230 0.951 . S
C218 C217 1.392 . S
C218 C220 1.384 . S
H219 C221 0.949 . S
C220 C218 1.384 . S
C220 C221 1.385 . S
C220 H222 0.950 . S
C221 C215 1.404 . S
C221 H219 0.949 . S
C221 C220 1.385 . S
H222 C220 0.950 . S
H223 C207 0.951 . S
H224 C209 0.951 . S
H225 C211 0.951 . S
H226 C212 0.950 . S
H227 C213 0.950 . S
H228 C214 0.950 . S
H229 C216 0.950 . S
H230 C217 0.951 . S
C231 C232 1.386 . S
C231 C233 1.383 . S
C231 H247 0.951 . S
C232 C231 1.386 . S
C232 C236 1.383 . S
C233 C231 1.383 . S
C233 C234 1.402 . S
C233 H248 0.951 . S
C234 C233 1.402 . S
C234 C235 1.375 . S
C234 C237 1.481 . S
C235 C234 1.375 . S
C235 C236 1.367 . S
C235 H249 0.951 . S
C236 C232 1.383 . S
C236 C235 1.367 . S
C236 H250 0.950 . S
C237 C234 1.481 . S
C237 C238 1.297 . S
C237 H251 0.950 . S
C238 C237 1.297 . S
C238 C239 1.479 . S
C238 H252 0.950 . S
C239 C238 1.479 . S
C239 C240 1.375 . S
C239 C245 1.404 . S
C240 C239 1.375 . S
C240 C241 1.369 . S
C240 H253 0.950 . S
C241 C240 1.369 . S
C241 C242 1.392 . S
C241 H254 0.951 . S
C242 C241 1.392 . S
C242 C244 1.384 . S
H243 C245 0.949 . S
C244 C242 1.384 . S
C244 C245 1.385 . S
C244 H246 0.950 . S
C245 C239 1.404 . S
C245 H243 0.949 . S
C245 C244 1.385 . S
H246 C244 0.950 . S
H247 C231 0.951 . S
H248 C233 0.951 . S
H249 C235 0.951 . S
H250 C236 0.950 . S
H251 C237 0.950 . S
H252 C238 0.950 . S
H253 C240 0.950 . S
H254 C241 0.951 . S
C255 C256 1.386 . S
C255 C257 1.383 . S
C255 H271 0.951 . S
C256 C255 1.386 . S
C256 C260 1.383 . S
C257 C255 1.383 . S
C257 C258 1.402 . S
C257 H272 0.951 . S
C258 C257 1.402 . S
C258 C259 1.375 . S
C258 C261 1.481 . S
C259 C258 1.375 . S
C259 C260 1.367 . S
C259 H273 0.951 . S
C260 C256 1.383 . S
C260 C259 1.367 . S
C260 H274 0.950 . S
C261 C258 1.481 . S
C261 C262 1.297 . S
C261 H275 0.950 . S
C262 C261 1.297 . S
C262 C263 1.479 . S
C262 H276 0.950 . S
C263 C262 1.479 . S
C263 C264 1.375 . S
C263 C269 1.404 . S
C264 C263 1.375 . S
C264 C265 1.369 . S
C264 H277 0.950 . S
C265 C264 1.369 . S
C265 C266 1.392 . S
C265 H278 0.951 . S
C266 C265 1.392 . S
C266 C268 1.384 . S
H267 C269 0.949 . S
C268 C266 1.384 . S
C268 C269 1.385 . S
C268 H270 0.950 . S
C269 C263 1.404 . S
C269 H267 0.949 . S
C269 C268 1.385 . S
H270 C268 0.950 . S
H271 C255 0.951 . S
H272 C257 0.951 . S
H273 C259 0.951 . S
H274 C260 0.950 . S
H275 C261 0.950 . S
H276 C262 0.950 . S
H277 C264 0.950 . S
H278 C265 0.951 . S
C279 C280 1.386 . S
C279 C281 1.383 . S
C279 H295 0.951 . S
C280 C279 1.386 . S
C280 C284 1.383 . S
C281 C279 1.383 . S
C281 C282 1.402 . S
C281 H296 0.951 . S
C282 C281 1.402 . S
C282 C283 1.375 . S
C282 C285 1.481 . S
C283 C282 1.375 . S
C283 C284 1.367 . S
C283 H297 0.951 . S
C284 C280 1.383 . S
C284 C283 1.367 . S
C284 H298 0.950 . S
C285 C282 1.481 . S
C285 C286 1.297 . S
C285 H299 0.950 . S
C286 C285 1.297 . S
C286 C287 1.479 . S
C286 H300 0.950 . S
C287 C286 1.479 . S
C287 C288 1.375 . S
C287 C293 1.404 . S
C288 C287 1.375 . S
C288 C289 1.369 . S
C288 H301 0.950 . S
C289 C288 1.369 . S
C289 C290 1.392 . S
C289 H302 0.951 . S
C290 C289 1.392 . S
C290 C292 1.384 . S
H291 C293 0.949 . S
C292 C290 1.384 . S
C292 C293 1.385 . S
C292 H294 0.950 . S
C293 C287 1.404 . S
C293 H291 0.949 . S
C293 C292 1.385 . S
H294 C292 0.950 . S
H295 C279 0.951 . S
H296 C281 0.951 . S
H297 C283 0.951 . S
H298 C284 0.950 . S
H299 C285 0.950 . S
H300 C286 0.950 . S
H301 C288 0.950 . S
H302 C289 0.951 . S
C303 C304 1.386 . S
C303 C305 1.383 . S
C303 H319 0.951 . S
C304 C303 1.386 . S
C304 C308 1.383 . S
C305 C303 1.383 . S
C305 C306 1.402 . S
C305 H320 0.951 . S
C306 C305 1.402 . S
C306 C307 1.375 . S
C306 C309 1.481 . S
C307 C306 1.375 . S
C307 C308 1.367 . S
C307 H321 0.951 . S
C308 C304 1.383 . S
C308 C307 1.367 . S
C308 H322 0.950 . S
C309 C306 1.481 . S
C309 C310 1.297 . S
C309 H323 0.950 . S
C310 C309 1.297 . S
C310 C311 1.479 . S
C310 H324 0.950 . S
C311 C310 1.479 . S
C311 C312 1.375 . S
C311 C317 1.404 . S
C312 C311 1.375 . S
C312 C313 1.369 . S
C312 H325 0.950 . S
C313 C312 1.369 . S
C313 C314 1.392 . S
C313 H326 0.951 . S
C314 C313 1.392 . S
C314 C316 1.384 . S
H315 C317 0.949 . S
C316 C314 1.384 . S
C316 C317 1.385 . S
C316 H318 0.950 1_655 S
C317 C311 1.404 . S
C317 H315 0.949 . S
C317 C316 1.385 . S
H318 C316 0.950 1_455 S
H319 C303 0.951 . S
H320 C305 0.951 . S
H321 C307 0.951 . S
H322 C308 0.950 . S
H323 C309 0.950 . S
H324 C310 0.950 . S
H325 C312 0.950 . S
H326 C313 0.951 . S
C327 C328 1.386 . S
C327 C329 1.383 . S
C327 H343 0.951 . S
C328 C327 1.386 . S
C328 C332 1.383 . S
C329 C327 1.383 . S
C329 C330 1.402 . S
C329 H344 0.951 . S
C330 C329 1.402 . S
C330 C331 1.375 . S
C330 C333 1.481 . S
C331 C330 1.375 . S
C331 C332 1.367 . S
C331 H345 0.951 . S
C332 C328 1.383 . S
C332 C331 1.367 . S
C332 H346 0.950 . S
C333 C330 1.481 . S
C333 C334 1.297 . S
C333 H347 0.950 . S
C334 C333 1.297 . S
C334 C335 1.479 . S
C334 H348 0.950 . S
C335 C334 1.479 . S
C335 C336 1.375 . S
C335 C341 1.404 . S
C336 C335 1.375 . S
C336 C337 1.369 . S
C336 H349 0.950 . S
C337 C336 1.369 . S
C337 C338 1.392 . S
C337 H350 0.951 . S
C338 C337 1.392 . S
C338 C340 1.384 . S
H339 C341 0.949 . S
C340 C338 1.384 . S
C340 C341 1.385 . S
C340 H342 0.950 1_565 S
C341 C335 1.404 . S
C341 H339 0.949 . S
C341 C340 1.385 . S
H342 C340 0.950 1_545 S
H343 C327 0.951 . S
H344 C329 0.951 . S
H345 C331 0.951 . S
H346 C332 0.950 . S
H347 C333 0.950 . S
H348 C334 0.950 . S
H349 C336 0.950 . S
H350 C337 0.951 . S
C351 C352 1.386 . S
C351 C353 1.383 . S
C351 H367 0.951 . S
C352 C351 1.386 . S
C352 C356 1.383 . S
C353 C351 1.383 . S
C353 C354 1.402 . S
C353 H368 0.951 . S
C354 C353 1.402 . S
C354 C355 1.375 . S
C354 C357 1.481 . S
C355 C354 1.375 . S
C355 C356 1.367 . S
C355 H369 0.951 . S
C356 C352 1.383 . S
C356 C355 1.367 . S
C356 H370 0.950 . S
C357 C354 1.481 . S
C357 C358 1.297 . S
C357 H371 0.950 . S
C358 C357 1.297 . S
C358 C359 1.479 . S
C358 H372 0.950 . S
C359 C358 1.479 . S
C359 C360 1.375 . S
C359 C365 1.404 . S
C360 C359 1.375 . S
C360 C361 1.369 . S
C360 H373 0.950 . S
C361 C360 1.369 . S
C361 C362 1.392 . S
C361 H374 0.951 . S
C362 C361 1.392 . S
C362 C364 1.384 . S
H363 C365 0.949 . S
C364 C362 1.384 . S
C364 C365 1.385 . S
C364 H366 0.950 . S
C365 C359 1.404 . S
C365 H363 0.949 . S
C365 C364 1.385 . S
H366 C364 0.950 . S
H367 C351 0.951 . S
H368 C353 0.951 . S
H369 C355 0.951 . S
H370 C356 0.950 . S
H371 C357 0.950 . S
H372 C358 0.950 . S
H373 C360 0.950 . S
H374 C361 0.951 . S
C375 C376 1.386 . S
C375 C377 1.383 . S
C375 H391 0.951 . S
C376 C375 1.386 . S
C376 C380 1.383 . S
C377 C375 1.383 . S
C377 C378 1.402 . S
C377 H392 0.951 . S
C378 C377 1.402 . S
C378 C379 1.375 . S
C378 C381 1.481 . S
C379 C378 1.375 . S
C379 C380 1.367 . S
C379 H393 0.951 . S
C380 C376 1.383 . S
C380 C379 1.367 . S
C380 H394 0.950 . S
C381 C378 1.481 . S
C381 C382 1.297 . S
C381 H395 0.950 . S
C382 C381 1.297 . S
C382 C383 1.479 . S
C382 H396 0.950 . S
C383 C382 1.479 . S
C383 C384 1.375 . S
C383 C389 1.404 . S
C384 C383 1.375 . S
C384 C385 1.369 . S
C384 H397 0.950 . S
C385 C384 1.369 . S
C385 C386 1.392 . S
C385 H398 0.951 . S
C386 C385 1.392 . S
C386 C388 1.384 . S
H387 C389 0.949 . S
C388 C386 1.384 . S
C388 C389 1.385 . S
C388 H390 0.950 . S
C389 C383 1.404 . S
C389 H387 0.949 . S
C389 C388 1.385 . S
H390 C388 0.950 . S
H391 C375 0.951 . S
H392 C377 0.951 . S
H393 C379 0.951 . S
H394 C380 0.950 . S
H395 C381 0.950 . S
H396 C382 0.950 . S
H397 C384 0.950 . S
H398 C385 0.951 . S
C399 C400 1.386 . S
C399 C401 1.383 . S
C399 H415 0.951 . S
C400 C399 1.386 . S
C400 C404 1.383 . S
C401 C399 1.383 . S
C401 C402 1.402 . S
C401 H416 0.951 . S
C402 C401 1.402 . S
C402 C403 1.375 . S
C402 C405 1.481 . S
C403 C402 1.375 . S
C403 C404 1.367 . S
C403 H417 0.951 . S
C404 C400 1.383 . S
C404 C403 1.367 . S
C404 H418 0.950 . S
C405 C402 1.481 . S
C405 C406 1.297 . S
C405 H419 0.950 . S
C406 C405 1.297 . S
C406 C407 1.479 . S
C406 H420 0.950 . S
C407 C406 1.479 . S
C407 C408 1.375 . S
C407 C413 1.404 . S
C408 C407 1.375 . S
C408 C409 1.369 . S
C408 H421 0.950 . S
C409 C408 1.369 . S
C409 C410 1.392 . S
C409 H422 0.951 . S
C410 C409 1.392 . S
C410 C412 1.384 . S
H411 C413 0.949 . S
C412 C410 1.384 . S
C412 C413 1.385 . S
C412 H414 0.950 . S
C413 C407 1.404 . S
C413 H411 0.949 . S
C413 C412 1.385 . S
H414 C412 0.950 . S
H415 C399 0.951 . S
H416 C401 0.951 . S
H417 C403 0.951 . S
H418 C404 0.950 . S
H419 C405 0.950 . S
H420 C406 0.950 . S
H421 C408 0.950 . S
H422 C409 0.951 . S
C423 C424 1.386 . S
C423 C425 1.383 . S
C423 H439 0.951 . S
C424 C423 1.386 . S
C424 C428 1.383 . S
C425 C423 1.383 . S
C425 C426 1.402 . S
C425 H440 0.951 . S
C426 C425 1.402 . S
C426 C427 1.375 . S
C426 C429 1.481 . S
C427 C426 1.375 . S
C427 C428 1.367 . S
C427 H441 0.951 . S
C428 C424 1.383 . S
C428 C427 1.367 . S
C428 H442 0.950 . S
C429 C426 1.481 . S
C429 C430 1.297 . S
C429 H443 0.950 . S
C430 C429 1.297 . S
C430 C431 1.479 1_554 S
C430 H444 0.950 . S
C431 C430 1.479 1_556 S
C431 C432 1.375 . S
C431 C437 1.404 . S
C432 C431 1.375 . S
C432 C433 1.369 . S
C432 H445 0.950 . S
C433 C432 1.369 . S
C433 C434 1.392 . S
C433 H446 0.951 . S
C434 C433 1.392 . S
C434 C436 1.384 . S
H435 C437 0.949 . S
C436 C434 1.384 . S
C436 C437 1.385 . S
C436 H438 0.950 . S
C437 C431 1.404 . S
C437 H435 0.949 . S
C437 C436 1.385 . S
H438 C436 0.950 . S
H439 C423 0.951 . S
H440 C425 0.951 . S
H441 C427 0.951 . S
H442 C428 0.950 . S
H443 C429 0.950 . S
H444 C430 0.950 . S
H445 C432 0.950 . S
H446 C433 0.951 . S
C447 C448 1.386 . S
C447 C449 1.383 . S
C447 H463 0.951 . S
C448 C447 1.386 . S
C448 C452 1.383 . S
C449 C447 1.383 . S
C449 C450 1.402 . S
C449 H464 0.951 . S
C450 C449 1.402 . S
C450 C451 1.375 . S
C450 C453 1.481 . S
C451 C450 1.375 . S
C451 C452 1.367 . S
C451 H465 0.951 . S
C452 C448 1.383 . S
C452 C451 1.367 . S
C452 H466 0.950 . S
C453 C450 1.481 . S
C453 C454 1.297 . S
C453 H467 0.950 . S
C454 C453 1.297 . S
C454 C455 1.479 . S
C454 H468 0.950 . S
C455 C454 1.479 . S
C455 C456 1.375 . S
C455 C461 1.404 . S
C456 C455 1.375 . S
C456 C457 1.369 . S
C456 H469 0.950 . S
C457 C456 1.369 . S
C457 C458 1.392 . S
C457 H470 0.951 . S
C458 C457 1.392 . S
C458 C460 1.384 . S
H459 C461 0.949 . S
C460 C458 1.384 . S
C460 C461 1.385 . S
C460 H462 0.950 . S
C461 C455 1.404 . S
C461 H459 0.949 . S
C461 C460 1.385 . S
H462 C460 0.950 . S
H463 C447 0.951 . S
H464 C449 0.951 . S
H465 C451 0.951 . S
H466 C452 0.950 . S
H467 C453 0.950 . S
H468 C454 0.950 . S
H469 C456 0.950 . S
H470 C457 0.951 . S
C471 C472 1.386 . S
C471 C473 1.383 . S
C471 H487 0.951 . S
C472 C471 1.386 . S
C472 C476 1.383 . S
C473 C471 1.383 . S
C473 C474 1.402 . S
C473 H488 0.951 . S
C474 C473 1.402 . S
C474 C475 1.375 . S
C474 C477 1.481 . S
C475 C474 1.375 . S
C475 C476 1.367 . S
C475 H489 0.951 . S
C476 C472 1.383 . S
C476 C475 1.367 . S
C476 H490 0.950 . S
C477 C474 1.481 . S
C477 C478 1.297 . S
C477 H491 0.950 . S
C478 C477 1.297 . S
C478 C479 1.479 . S
C478 H492 0.950 . S
C479 C478 1.479 . S
C479 C480 1.375 . S
C479 C485 1.404 . S
C480 C479 1.375 . S
C480 C481 1.369 . S
C480 H493 0.950 . S
C481 C480 1.369 . S
C481 C482 1.392 . S
C481 H494 0.951 . S
C482 C481 1.392 . S
C482 C484 1.384 . S
H483 C485 0.949 . S
C484 C482 1.384 . S
C484 C485 1.385 . S
C484 H486 0.950 . S
C485 C479 1.404 . S
C485 H483 0.949 . S
C485 C484 1.385 . S
H486 C484 0.950 . S
H487 C471 0.951 . S
H488 C473 0.951 . S
H489 C475 0.951 . S
H490 C476 0.950 . S
H491 C477 0.950 . S
H492 C478 0.950 . S
H493 C480 0.950 . S
H494 C481 0.951 . S
C495 C496 1.386 . S
C495 C497 1.383 . S
C495 H511 0.963 . S
C496 C495 1.386 . S
C496 C500 1.383 . S
C497 C495 1.383 . S
C497 C498 1.402 . S
C497 H512 0.951 . S
C498 C497 1.402 . S
C498 C499 1.375 . S
C498 C501 1.481 . S
C499 C498 1.375 . S
C499 C500 1.367 . S
C499 H513 0.951 . S
C500 C496 1.383 . S
C500 C499 1.367 . S
C500 H514 0.950 . S
C501 C498 1.481 . S
C501 C502 1.297 . S
C501 H515 0.950 . S
C502 C501 1.297 . S
C502 C503 1.479 . S
C502 H516 0.950 . S
C503 C502 1.479 . S
C503 C504 1.375 . S
C503 C509 1.404 . S
C504 C503 1.375 . S
C504 C505 1.369 . S
C504 H517 0.950 1_545 S
C505 C504 1.369 . S
C505 C506 1.392 . S
C505 H518 0.951 1_545 S
C506 C505 1.392 . S
C506 C508 1.384 . S
H507 C509 0.949 . S
C508 C506 1.384 . S
C508 C509 1.385 . S
C508 H510 0.950 . S
C509 C503 1.404 . S
C509 H507 0.949 . S
C509 C508 1.385 . S
H510 C508 0.950 . S
H511 C495 0.963 . S
H512 C497 0.951 . S
H513 C499 0.951 . S
H514 C500 0.950 . S
H515 C501 0.950 . S
H516 C502 0.950 . S
H517 C504 0.950 1_565 S
H518 C505 0.951 1_565 S
C519 C520 1.386 . S
C519 C521 1.383 . S
C519 H535 0.951 . S
C520 C519 1.386 . S
C520 C524 1.383 . S
C521 C519 1.383 . S
C521 C522 1.402 . S
C521 H536 0.951 . S
C522 C521 1.402 . S
C522 C523 1.375 . S
C522 C525 1.481 . S
C523 C522 1.375 . S
C523 C524 1.367 . S
C523 H537 0.951 . S
C524 C520 1.383 . S
C524 C523 1.367 . S
C524 H538 0.950 . S
C525 C522 1.481 . S
C525 C526 1.297 . S
C525 H539 0.950 . S
C526 C525 1.297 . S
C526 C527 1.479 1_556 S
C526 H540 0.950 . S
C527 C526 1.479 1_554 S
C527 C528 1.375 . S
C527 C533 1.404 . S
C528 C527 1.375 . S
C528 C529 1.369 . S
C528 H541 0.950 . S
C529 C528 1.369 . S
C529 C530 1.392 . S
C529 H542 0.951 . S
C530 C529 1.392 . S
C530 C532 1.384 . S
H531 C533 0.949 . S
C532 C530 1.384 . S
C532 C533 1.385 . S
C532 H534 0.950 . S
C533 C527 1.404 . S
C533 H531 0.949 . S
C533 C532 1.385 . S
H534 C532 0.950 . S
H535 C519 0.951 . S
H536 C521 0.951 . S
H537 C523 0.951 . S
H538 C524 0.950 . S
H539 C525 0.950 . S
H540 C526 0.950 . S
H541 C528 0.950 . S
H542 C529 0.951 . S
C543 C544 1.386 . S
C543 C545 1.383 . S
C543 H559 0.951 . S
C544 C543 1.386 . S
C544 C548 1.383 . S
C545 C543 1.383 . S
C545 C546 1.402 . S
C545 H560 0.951 . S
C546 C545 1.402 . S
C546 C547 1.375 . S
C546 C549 1.481 . S
C547 C546 1.375 . S
C547 C548 1.367 . S
C547 H561 0.951 1_455 S
C548 C544 1.383 . S
C548 C547 1.367 . S
C548 H562 0.950 1_455 S
C549 C546 1.481 . S
C549 C550 1.297 . S
C549 H563 0.950 . S
C550 C549 1.297 . S
C550 C551 1.479 . S
C550 H564 0.950 . S
C551 C550 1.479 . S
C551 C552 1.375 . S
C551 C557 1.404 . S
C552 C551 1.375 . S
C552 C553 1.369 . S
C552 H565 0.950 . S
C553 C552 1.369 . S
C553 C554 1.392 . S
C553 H566 0.951 . S
C554 C553 1.392 . S
C554 C556 1.384 . S
H555 C557 0.947 1_655 S
C556 C554 1.384 . S
C556 C557 1.385 . S
C556 H558 0.950 1_455 S
C557 C551 1.404 . S
C557 H555 0.947 1_455 S
C557 C556 1.385 . S
H558 C556 0.950 1_655 S
H559 C543 0.951 . S
H560 C545 0.951 . S
H561 C547 0.951 1_655 S
H562 C548 0.950 1_655 S
H563 C549 0.950 . S
H564 C550 0.950 . S
H565 C552 0.950 . S
H566 C553 0.951 . S
C136 C20 1.214 . S
C146 C134 1.217 . S
C160 C41 1.269 . S
C170 C112 1.252 . S
C184 C64 1.281 . S
C194 C123 1.253 . S
C208 C19 1.247 . S
C218 C128 1.267 . S
C242 C106 1.196 . S
C232 C44 1.233 . S
C266 C117 1.164 . S
C256 C67 1.169 . S
C280 C43 1.241 . S
C290 C90 1.224 . S
C304 C66 1.149 . S
C314 C95 1.191 1_655 S
C328 C21 1.208 . S
C338 C73 1.244 1_565 S
C362 C84 1.266 . S
C352 C42 1.217 . S
C386 C101 1.248 . S
C376 C65 1.212 . S
C400 C18 1.274 . S
C410 C79 1.213 . S
C434 C96 1.519 . S
C424 C17 1.506 . S
C448 C39 1.519 . S
C458 C74 1.520 . S
C472 C62 1.533 . S
C482 C85 1.498 . S
C506 C118 1.503 . S
C496 C40 1.505 . S
C530 C129 1.523 . S
C520 C63 1.517 . S
C544 C16 1.526 . S
C554 C107 1.488 . S
