# Generated by pormake.
# Topology pth, (4,4)-cn, num edge types: 1
# Building blocks:
#     Node 0, Type 0, BuildingBlock: QUQFOY_clean_sbu_1, # of connection points: 4
#     Node 1, Type 0, BuildingBlock: QUQFOY_clean_sbu_1, # of connection points: 4
#     Node 2, Type 0, BuildingBlock: QUQFOY_clean_sbu_1, # of connection points: 4
#     Node 3, Type 1, BuildingBlock: MUDLON_clean_linker_0, # of connection points: 4
#     Node 4, Type 1, BuildingBlock: MUDLON_clean_linker_0, # of connection points: 4
#     Node 5, Type 1, BuildingBlock: MUDLON_clean_linker_0, # of connection points: 4
#     Edge 6, Type (0, 1), BuildingBlock: FUNLAD_clean_linker_0, # of connection points: 2
#     Edge 7, Type (0, 1), BuildingBlock: FUNLAD_clean_linker_0, # of connection points: 2
#     Edge 8, Type (0, 1), BuildingBlock: FUNLAD_clean_linker_0, # of connection points: 2
#     Edge 9, Type (0, 1), BuildingBlock: FUNLAD_clean_linker_0, # of connection points: 2
#     Edge 10, Type (0, 1), BuildingBlock: FUNLAD_clean_linker_0, # of connection points: 2
#     Edge 11, Type (0, 1), BuildingBlock: FUNLAD_clean_linker_0, # of connection points: 2
#     Edge 12, Type (0, 1), BuildingBlock: FUNLAD_clean_linker_0, # of connection points: 2
#     Edge 13, Type (0, 1), BuildingBlock: FUNLAD_clean_linker_0, # of connection points: 2
#     Edge 14, Type (0, 1), BuildingBlock: FUNLAD_clean_linker_0, # of connection points: 2
#     Edge 15, Type (0, 1), BuildingBlock: FUNLAD_clean_linker_0, # of connection points: 2
#     Edge 16, Type (0, 1), BuildingBlock: FUNLAD_clean_linker_0, # of connection points: 2
#     Edge 17, Type (0, 1), BuildingBlock: FUNLAD_clean_linker_0, # of connection points: 2
# Relax obj value: 0.049
# Max RMSD: 0.151
# Mean RMSD: 0.117
data_MOF--net-pth--node1-QUQFOY_clean_sbu_1--node2-MUDLON_clean_linker_0--edge1-FUNLAD_clean_linker_0
_symmetry_space_group_name_H-M    P1
_symmetry_Int_Tables_number       1
_symmetry_cell_setting            triclinic
loop_
_symmetry_equiv_pos_as_xyz
'x, y, z'
_cell_length_a     36.522165
_cell_length_b     39.190545
_cell_length_c     79.364939
_cell_angle_alpha  89.955377
_cell_angle_beta   89.991922
_cell_angle_gamma 120.00415
loop_
_atom_site_label
_atom_site_type_symbol
_atom_site_fract_x
_atom_site_fract_y
_atom_site_fract_z
_atom_type_partial_charge
O0 O 0.02553 0.06562 0.01602 0.0
Cd1 Cd 0.97645 0.02688 0.03139 0.0
Cd2 Cd 0.01902 0.9877 0.02867 0.0
O3 O 0.06629 0.03925 0.01835 0.0
O4 O 0.94883 0.05731 0.03845 0.0
O5 O 0.98229 0.03888 0.05625 0.0
C6 C 0.96192 0.05742 0.05353 0.0
C7 C 0.03047 0.95669 0.0514 0.0
C8 C 0.06038 0.06678 0.01312 0.0
C9 C 0.93297 0.9499 0.0133 0.0
O10 O 0.96858 0.95152 0.0135 0.0
O11 O 0.92794 0.97554 0.02113 0.0
O12 O 0.04344 0.95501 0.03646 0.0
O13 O 0.01257 0.9777 0.05356 0.0
O14 O 0.96766 0.02968 0.37559 0.0
Cd15 Cd 0.01906 0.04602 0.3601 0.0
Cd16 Cd 0.98606 0.96706 0.35874 0.0
O17 O 0.93464 0.96591 0.3703 0.0
O18 O 0.03707 0.10101 0.35316 0.0
O19 O 0.01275 0.05121 0.33522 0.0
C20 C 0.0264 0.08815 0.33798 0.0
C21 C 0.97555 0.92413 0.33651 0.0
C22 C 0.93557 0.99552 0.37728 0.0
C23 C 0.071 0.01592 0.3757 0.0
O24 O 0.03926 0.98195 0.37308 0.0
O25 O 0.07098 0.04652 0.37043 0.0
O26 O 0.96658 0.91179 0.35184 0.0
O27 O 0.98926 0.96105 0.33366 0.0
O28 O 0.94007 0.98109 0.68153 0.0
Cd29 Cd 0.97706 0.96576 0.69568 0.0
Cd30 Cd 0.02384 0.04478 0.69973 0.0
O31 O 0.97407 0.0446 0.68735 0.0
O32 O 0.94015 0.90903 0.7013 0.0
O33 O 0.96566 0.95629 0.7205 0.0
C34 C 0.94257 0.91932 0.71688 0.0
C35 C 0.05197 0.08248 0.72402 0.0
C36 C 0.94361 0.01495 0.68023 0.0
C37 C 0.064 0.00442 0.68125 0.0
O38 O 0.06621 0.0366 0.6856 0.0
O39 O 0.0313 0.97169 0.68475 0.0
O40 O 0.05844 0.09859 0.70934 0.0
O41 O 0.02806 0.04466 0.725 0.0
H42 H 0.88819 0.62167 0.20048 0.0
N43 N 0.95154 0.61311 0.18944 0.0
H44 H 0.88825 0.66047 0.22464 0.0
H45 H 0.01479 0.64863 0.21258 0.0
H46 H 0.01542 0.68784 0.23684 0.0
H47 H 0.0321 0.67337 0.18396 0.0
H48 H 0.05417 0.72301 0.16176 0.0
H49 H 0.90726 0.61027 0.16246 0.0
H50 H 0.92925 0.65929 0.13988 0.0
H51 H 0.89068 0.54183 0.19785 0.0
H52 H 0.02263 0.60711 0.18456 0.0
H53 H 0.89447 0.4817 0.2002 0.0
H54 H 0.0264 0.54653 0.18585 0.0
H55 H 0.90779 0.31918 0.22279 0.0
H56 H 0.92582 0.28989 0.24633 0.0
H57 H 0.0558 0.34865 0.2295 0.0
H58 H 0.03757 0.37849 0.20636 0.0
H59 H 0.02594 0.38442 0.17689 0.0
H60 H 0.03212 0.34536 0.15399 0.0
H61 H 0.90206 0.25507 0.16204 0.0
H62 H 0.89656 0.29409 0.18491 0.0
H63 H 0.8974 0.37306 0.18592 0.0
H64 H 0.8983 0.43539 0.18323 0.0
H65 H 0.02557 0.49671 0.20316 0.0
N66 N 0.9578 0.36093 0.19751 0.0
H67 H 0.02503 0.43409 0.20478 0.0
C68 C 0.95138 0.63246 0.20478 0.0
C69 C 0.91574 0.63557 0.20856 0.0
C70 C 0.91587 0.65766 0.22236 0.0
C71 C 0.95192 0.67734 0.23261 0.0
C72 C 0.98738 0.67338 0.22905 0.0
C73 C 0.98704 0.65092 0.21527 0.0
C74 C 0.96787 0.63814 0.17485 0.0
C75 C 0.00975 0.66961 0.1742 0.0
C76 C 0.02235 0.698 0.16145 0.0
C77 C 0.99328 0.69544 0.14918 0.0
C78 C 0.95217 0.66256 0.14934 0.0
C79 C 0.93966 0.63429 0.16208 0.0
C80 C 0.95598 0.57871 0.19079 0.0
C81 C 0.92041 0.54298 0.19527 0.0
C82 C 0.92264 0.50857 0.19644 0.0
C83 C 0.96057 0.50885 0.19288 0.0
C84 C 0.99668 0.54507 0.18874 0.0
C85 C 0.9945 0.57979 0.18783 0.0
C86 C 0.97117 0.3509 0.21287 0.0
C87 C 0.94034 0.32654 0.22452 0.0
C88 C 0.95065 0.30949 0.2378 0.0
C89 C 0.99214 0.31639 0.23963 0.0
C90 C 0.02361 0.34284 0.22852 0.0
C91 C 0.01322 0.35994 0.21524 0.0
C92 C 0.96077 0.34182 0.18256 0.0
C93 C 0.99878 0.35641 0.17355 0.0
C94 C 1.00226 0.33403 0.16055 0.0
C95 C 0.96761 0.29707 0.15627 0.0
C96 C 0.92917 0.28357 0.1649 0.0
C97 C 0.92592 0.30571 0.17795 0.0
C98 C 0.96071 0.39877 0.19577 0.0
C99 C 0.92554 0.40004 0.1896 0.0
C100 C 0.92606 0.43576 0.18825 0.0
C101 C 0.96171 0.47127 0.19332 0.0
C102 C 0.99758 0.47009 0.19909 0.0
C103 C 0.99722 0.43417 0.20017 0.0
H104 H 0.73516 0.09693 0.539 0.0
N105 N 0.66014 0.04722 0.526 0.0
H106 H 0.76658 0.08908 0.56492 0.0
H107 H 0.62141 0.98667 0.54885 0.0
H108 H 0.65185 0.97914 0.57487 0.0
H109 H 0.64587 0.97205 0.52179 0.0
H110 H 0.67257 0.94931 0.49863 0.0
H111 H 0.69593 0.08536 0.49772 0.0
H112 H 0.72178 0.06247 0.47428 0.0
H113 H 0.6481 0.10832 0.52662 0.0
H114 H 0.58136 0.98153 0.52508 0.0
H115 H 0.58112 0.10783 0.5273 0.0
H116 H 0.51401 0.98027 0.52716 0.0
H117 H 0.37044 0.09526 0.5499 0.0
H118 H 0.32766 0.07686 0.57562 0.0
H119 H 0.30785 0.95884 0.57193 0.0
H120 H 0.3517 0.9779 0.54636 0.0
H121 H 0.3258 0.97806 0.51899 0.0
H122 H 0.28238 0.96633 0.49401 0.0
H123 H 0.3492 0.09129 0.4834 0.0
H124 H 0.39334 0.10259 0.50835 0.0
H125 H 0.4604 0.09828 0.54539 0.0
H126 H 0.52569 0.09575 0.54486 0.0
H127 H 0.46466 0.99145 0.51361 0.0
N128 N 0.38752 0.04975 0.53074 0.0
H129 H 0.39888 0.99262 0.51537 0.0
C130 C 0.67603 0.04267 0.54197 0.0
C131 C 0.71679 0.07137 0.5469 0.0
C132 C 0.73453 0.06689 0.56174 0.0
C133 C 0.71172 0.03344 0.57197 0.0
C134 C 0.67047 0.00501 0.56717 0.0
C135 C 0.65283 0.00949 0.5523 0.0
C136 C 0.66972 0.0308 0.51158 0.0
C137 C 0.66201 0.99186 0.51143 0.0
C138 C 0.6772 0.97884 0.49818 0.0
C139 C 0.69937 0.00421 0.48473 0.0
C140 C 0.70451 0.0422 0.48442 0.0
C141 C 0.68997 0.05537 0.49778 0.0
C142 C 0.61971 0.04515 0.5261 0.0
C143 C 0.6188 0.08035 0.52665 0.0
C144 C 0.5804 0.07989 0.52723 0.0
C145 C 0.54182 0.04396 0.52761 0.0
C146 C 0.54287 0.00853 0.52679 0.0
C147 C 0.58145 0.00913 0.52583 0.0
C148 C 0.3638 0.03796 0.5462 0.0
C149 C 0.35715 0.06557 0.55476 0.0
C150 C 0.33293 0.05504 0.56944 0.0
C151 C 0.31448 0.01642 0.57574 0.0
C152 C 0.3215 0.98872 0.56725 0.0
C153 C 0.34638 0.99952 0.55266 0.0
C154 C 0.36285 0.04139 0.51555 0.0
C155 C 0.33137 1.00293 0.51127 0.0
C156 C 0.30636 0.99628 0.49699 0.0
C157 C 0.31211 0.0279 0.48675 0.0
C158 C 0.34424 0.06622 0.49089 0.0
C159 C 0.36933 0.0728 0.50516 0.0
C160 C 0.42495 0.04625 0.53023 0.0
C161 C 0.46119 0.07477 0.53853 0.0
C162 C 0.49862 0.07344 0.53803 0.0
C163 C 0.50098 0.04381 0.5289 0.0
C164 C 0.46419 0.0146 0.52087 0.0
C165 C 0.42641 0.01549 0.5217 0.0
H166 H 0.63969 0.67247 0.87683 0.0
N167 N 0.66236 0.61606 0.8733 0.0
H168 H 0.66276 0.72131 0.89945 0.0
H169 H 0.69775 0.61437 0.90222 0.0
H170 H 0.72047 0.66278 0.92502 0.0
H171 H 0.74009 0.63387 0.86482 0.0
H172 H 0.78351 0.67702 0.84191 0.0
H173 H 0.63517 0.64672 0.84846 0.0
H174 H 0.67843 0.69057 0.82581 0.0
H175 H 0.58328 0.60608 0.86846 0.0
H176 H 0.6527 0.5447 0.87437 0.0
H177 H 0.51744 0.54312 0.86547 0.0
H178 H 0.58718 0.48164 0.87228 0.0
H179 H 0.33681 0.36344 0.8835 0.0
H180 H 0.2976 0.33231 0.90921 0.0
H181 H 0.37573 0.27964 0.91715 0.0
H182 H 0.41551 0.31186 0.89154 0.0
H183 H 0.37535 0.28512 0.8542 0.0
H184 H 0.32015 0.25245 0.8329 0.0
H185 H 0.3012 0.35278 0.83213 0.0
H186 H 0.35687 0.38539 0.85344 0.0
H187 H 0.40471 0.42176 0.88102 0.0
H188 H 0.46804 0.48673 0.88094 0.0
H189 H 0.53478 0.43936 0.85336 0.0
N190 N 0.39886 0.35305 0.86937 0.0
H191 H 0.47184 0.37402 0.85441 0.0
C192 C 0.66757 0.64006 0.8878 0.0
C193 C 0.65649 0.66962 0.88746 0.0
C194 C 0.66976 0.69758 0.90037 0.0
C195 C 0.69369 0.69601 0.91392 0.0
C196 C 0.70179 0.66457 0.91483 0.0
C197 C 0.68896 0.63697 0.90182 0.0
C198 C 0.68454 0.63702 0.85834 0.0
C199 C 0.72631 0.64559 0.85611 0.0
C200 C 0.75112 0.67056 0.84314 0.0
C201 C 0.73459 0.68762 0.83214 0.0
C202 C 0.69206 0.67771 0.83398 0.0
C203 C 0.66724 0.65265 0.84698 0.0
C204 C 0.62292 0.57988 0.87143 0.0
C205 C 0.58436 0.57904 0.86904 0.0
C206 C 0.54665 0.54293 0.86751 0.0
C207 C 0.54684 0.5071 0.8685 0.0
C208 C 0.58569 0.50843 0.87102 0.0
C209 C 0.62321 0.54441 0.87237 0.0
C210 C 0.3792 0.33993 0.88563 0.0
C211 C 0.34617 0.34598 0.89096 0.0
C212 C 0.32351 0.32784 0.9056 0.0
C213 C 0.33324 0.30315 0.91515 0.0
C214 C 0.36764 0.29876 0.91021 0.0
C215 C 0.39035 0.31701 0.89557 0.0
C216 C 0.37025 0.33755 0.85532 0.0
C217 C 0.35972 0.30025 0.84921 0.0
C218 C 0.32794 0.28154 0.8372 0.0
C219 C 0.30601 0.29987 0.831 0.0
C220 C 0.31768 0.33802 0.83664 0.0
C221 C 0.34945 0.35668 0.84879 0.0
C222 C 0.4339 0.39273 0.86803 0.0
C223 C 0.43291 0.42526 0.87498 0.0
C224 C 0.4692 0.46265 0.87477 0.0
C225 C 0.50693 0.46834 0.86739 0.0
C226 C 0.50681 0.43601 0.85961 0.0
C227 C 0.47078 0.39868 0.86004 0.0
C228 C 0.98174 0.09297 0.08123 0.0
C229 C 0.95562 0.08019 0.06691 0.0
C230 C 0.97854 0.11816 0.0929 0.0
C231 C 0.9488 0.13059 0.09051 0.0
C232 C 0.92146 0.11625 0.07663 0.0
C233 C 0.92513 0.09171 0.06485 0.0
C234 C 0.94507 0.15821 0.10221 0.0
C235 C 0.97847 0.18758 0.11027 0.0
C236 C 0.97559 0.21681 0.12138 0.0
C237 C 0.00867 0.23878 0.13273 0.0
C238 C 0.00678 0.26577 0.14371 0.0
C239 C 0.97172 0.27145 0.14354 0.0
H240 H 0.91593 0.20897 0.11177 0.0
C241 C 0.93933 0.25058 0.13179 0.0
C242 C 0.9413 0.22378 0.12076 0.0
H243 H 0.91232 0.25494 0.13114 0.0
H244 H 0.00548 0.08449 0.08315 0.0
H245 H 0.99927 0.12775 0.10374 0.0
H246 H 0.89796 0.12501 0.07462 0.0
H247 H 0.90437 0.08212 0.054 0.0
H248 H 0.91394 0.15498 0.10348 0.0
H249 H 0.00945 0.19044 0.10874 0.0
H250 H 0.03572 0.23447 0.13337 0.0
H251 H 0.03212 0.28123 0.15271 0.0
C252 C 0.90702 0.01821 0.40055 0.0
C253 C 0.90005 0.99031 0.38801 0.0
C254 C 0.87419 0.01314 0.41114 0.0
C255 C 0.83348 0.98034 0.40927 0.0
C256 C 0.82607 0.95298 0.39645 0.0
C257 C 0.85926 0.95757 0.38606 0.0
C258 C 0.79851 0.97522 0.42039 0.0
C259 C 0.80456 0.9826 0.43701 0.0
C260 C 0.77242 0.98234 0.44849 0.0
C261 C 0.77367 0.97416 0.46562 0.0
C262 C 0.74792 0.979 0.47724 0.0
C263 C 0.72105 0.99295 0.47199 0.0
H264 H 0.7429 1.00179 0.43 0.0
C265 C 0.71875 0.99997 0.45477 0.0
C266 C 0.74401 0.99447 0.44308 0.0
H267 H 0.69833 0.01084 0.45043 0.0
H268 H 0.93807 0.04375 0.40236 0.0
H269 H 0.88057 0.0352 0.42067 0.0
H270 H 0.7948 0.92771 0.39469 0.0
H271 H 0.85294 0.93576 0.37642 0.0
H272 H 0.76743 0.96464 0.41489 0.0
H273 H 0.83471 0.98935 0.44253 0.0
H274 H 0.79555 0.96512 0.47011 0.0
H275 H 0.75074 0.97387 0.49047 0.0
C276 C 0.91762 0.90086 0.74674 0.0
C277 C 0.91819 0.88959 0.72998 0.0
C278 C 0.89258 0.87277 0.75884 0.0
C279 C 0.86781 0.8327 0.75443 0.0
C280 C 0.86871 0.82158 0.73769 0.0
C281 C 0.89364 0.8496 0.72563 0.0
C282 C 0.83927 0.80182 0.76658 0.0
C283 C 0.84355 0.80559 0.78345 0.0
C284 C 0.81495 0.7744 0.79548 0.0
C285 C 0.82974 0.77429 0.81178 0.0
C286 C 0.80383 0.74594 0.82357 0.0
C287 C 0.76226 0.7171 0.81937 0.0
H288 H 0.75999 0.74548 0.77906 0.0
C289 C 0.74719 0.71741 0.80311 0.0
C290 C 0.77316 0.74577 0.7913 0.0
H291 H 0.71532 0.69564 0.79948 0.0
H292 H 0.93587 0.9315 0.75046 0.0
H293 H 0.89201 0.88291 0.77145 0.0
H294 H 0.84984 0.79105 0.73388 0.0
H295 H 0.89322 0.83989 0.71282 0.0
H296 H 0.81485 0.77423 0.76128 0.0
H297 H 0.8702 0.83167 0.7888 0.0
H298 H 0.86154 0.79623 0.81544 0.0
H299 H 0.81618 0.7471 0.83609 0.0
C300 C 0.04878 0.907 0.06214 0.0
C301 C 0.03302 0.93259 0.06525 0.0
C302 C 0.04645 0.88055 0.0745 0.0
C303 C 0.02857 0.87931 0.09037 0.0
C304 C 0.01428 0.90597 0.09365 0.0
C305 C 0.0165 0.93234 0.08125 0.0
C306 C 0.02088 0.84876 0.10328 0.0
C307 C 0.0384 0.82552 0.10298 0.0
C308 C 0.02654 0.79251 0.11506 0.0
C309 C 0.05526 0.77934 0.11831 0.0
C310 C 0.04459 0.74774 0.12929 0.0
C311 C 0.00467 0.72827 0.13708 0.0
H312 H 0.96278 0.78092 0.12013 0.0
C313 C 0.97574 0.74112 0.13362 0.0
C314 C 0.98642 0.77268 0.12271 0.0
H315 H 0.94486 0.72707 0.13953 0.0
H316 H 0.06155 0.9063 0.04991 0.0
H317 H 0.05712 0.86021 0.07119 0.0
H318 H 1.00025 0.9057 0.10571 0.0
H319 H 0.00404 0.95164 0.08407 0.0
H320 H 0.99942 0.84526 0.11347 0.0
H321 H 0.06278 0.83092 0.09384 0.0
H322 H 0.08614 0.79366 0.11239 0.0
H323 H 0.06744 0.73833 0.13156 0.0
C324 C 0.10734 0.986 0.39156 0.0
C325 C 0.10707 0.01976 0.38574 0.0
C326 C 0.13949 0.98941 0.40218 0.0
C327 C 0.17198 0.02674 0.40734 0.0
C328 C 0.17283 0.06048 0.40086 0.0
C329 C 0.14065 0.05708 0.39023 0.0
C330 C 0.20485 0.03156 0.41967 0.0
C331 C 0.19783 0.00446 0.43161 0.0
C332 C 0.22838 0.0104 0.44522 0.0
C333 C 0.21283 0.98899 0.46024 0.0
C334 C 0.24002 0.9944 0.47361 0.0
C335 C 0.28361 0.02113 0.47222 0.0
H336 H 0.2856 0.05261 0.43207 0.0
C337 C 0.29942 0.04189 0.45702 0.0
C338 C 0.27215 0.03653 0.44363 0.0
H339 H 0.33295 0.0621 0.45543 0.0
H340 H 0.08232 0.95679 0.38814 0.0
H341 H 0.13861 0.96272 0.40634 0.0
H342 H 0.19777 0.0896 0.40446 0.0
H343 H 0.14162 0.08371 0.38586 0.0
H344 H 0.23407 0.0597 0.41981 0.0
H345 H 0.167 0.97799 0.43236 0.0
H346 H 0.17932 0.96853 0.46178 0.0
H347 H 0.22667 0.97826 0.48519 0.0
C348 C 0.10031 0.14756 0.73743 0.0
C349 C 0.07379 0.10659 0.73901 0.0
C350 C 0.12469 0.17009 0.75102 0.0
C351 C 0.12293 0.15214 0.76661 0.0
C352 C 0.09545 0.11134 0.7683 0.0
C353 C 0.07102 0.0888 0.75468 0.0
C354 C 0.15167 0.17406 0.78086 0.0
C355 C 0.17214 0.21367 0.7825 0.0
C356 C 0.20456 0.2356 0.79571 0.0
C357 C 0.23368 0.27579 0.79312 0.0
C358 C 0.2662 0.29701 0.80469 0.0
C359 C 0.27029 0.27842 0.81911 0.0
H360 H 0.18506 0.18721 0.81353 0.0
C361 C 0.24027 0.23866 0.82205 0.0
C362 C 0.20765 0.21754 0.81057 0.0
H363 H 0.24194 0.22384 0.8333 0.0
H364 H 0.10334 0.16219 0.72549 0.0
H365 H 0.14608 0.20114 0.74892 0.0
H366 H 0.09355 0.09664 0.78011 0.0
H367 H 0.05098 0.05729 0.75631 0.0
H368 H 0.15698 0.1564 0.78999 0.0
H369 H 0.16663 0.23125 0.77339 0.0
H370 H 0.2319 0.29065 0.7819 0.0
H371 H 0.28882 0.32764 0.80211 0.0
C372 C 0.8808 0.98782 0.66103 0.0
C373 C 0.91326 0.02009 0.66966 0.0
C374 C 0.85399 0.99297 0.6501 0.0
C375 C 0.85876 0.03059 0.64763 0.0
C376 C 0.89076 0.06268 0.65648 0.0
C377 C 0.91763 0.05753 0.66741 0.0
C378 C 0.83326 0.03809 0.6351 0.0
C379 C 0.7959 0.00981 0.62893 0.0
C380 C 0.77311 0.01667 0.61501 0.0
C381 C 0.74608 0.98469 0.60477 0.0
C382 C 0.72572 0.99002 0.59098 0.0
C383 C 0.73157 0.02747 0.5872 0.0
H384 H 0.79726 0.07909 0.6195 0.0
C385 C 0.75749 0.05928 0.59778 0.0
C386 C 0.77797 0.05396 0.61157 0.0
H387 H 0.76188 0.08832 0.59544 0.0
H388 H 0.87669 0.9586 0.66238 0.0
H389 H 0.83073 0.96753 0.64322 0.0
H390 H 0.89541 0.09202 0.65476 0.0
H391 H 0.94233 0.08306 0.67384 0.0
H392 H 0.8468 0.06807 0.63048 0.0
H393 H 0.78223 0.97981 0.63351 0.0
H394 H 0.74155 0.9556 0.60718 0.0
H395 H 0.70633 0.96493 0.58301 0.0
C396 C 0.906 0.89908 0.99057 0.0
C397 C 0.89765 0.91851 0.00359 0.0
C398 C 0.873 0.87001 0.98107 0.0
C399 C 0.83086 0.85936 0.98453 0.0
C400 C 0.82231 0.87795 -0.00219 0.0
C401 C 0.85547 0.90771 0.00712 0.0
C402 C 0.79564 0.82811 0.97463 0.0
C403 C 0.79877 0.82515 0.95787 0.0
C404 C 0.76641 0.79252 0.94751 0.0
C405 C 0.76384 0.7992 0.9303 0.0
C406 C 0.73806 0.76808 0.9196 0.0
C407 C 0.71485 0.72943 0.92585 0.0
H408 H 0.74345 0.74782 0.96711 0.0
C409 C 0.7162 0.72286 0.94319 0.0
C410 C 0.7416 0.75415 0.95396 0.0
H411 H 0.69867 0.69332 0.94832 0.0
H412 H 0.93813 0.90666 0.98757 0.0
H413 H 0.88049 0.85548 0.97117 0.0
H414 H 0.79003 0.86989 0.0008 0.0
H415 H 0.84807 0.92197 0.01717 0.0
H416 H 0.76653 0.80808 0.98116 0.0
H417 H 0.82647 0.84785 0.95134 0.0
H418 H 0.78287 0.82842 0.925 0.0
H419 H 0.73816 0.77398 0.90626 0.0
C420 C 0.95901 0.85735 0.32668 0.0
C421 C 0.97218 0.89688 0.3229 0.0
C422 C 0.95849 0.83193 0.31425 0.0
C423 C 0.97076 0.84534 0.29762 0.0
C424 C 0.98364 0.88481 0.29382 0.0
C425 C 0.98422 0.91031 0.3063 0.0
C426 C 0.97245 0.81963 0.28419 0.0
C427 C 0.94989 0.77992 0.28473 0.0
C428 C 0.95183 0.7541 0.27146 0.0
C429 C 0.91716 0.71595 0.26947 0.0
C430 C 0.91747 0.69081 0.25707 0.0
C431 C 0.95275 0.70309 0.2465 0.0
H432 H 0.01552 0.79479 0.26265 0.0
C433 C 0.98803 0.74083 0.24881 0.0
C434 C 0.98763 0.7661 0.26116 0.0
H435 H 0.01564 0.75118 0.24083 0.0
H436 H 0.94993 0.84611 0.33939 0.0
H437 H 0.94964 0.80221 0.31792 0.0
H438 H 0.99357 0.89606 0.28116 0.0
H439 H 0.99477 0.94066 0.303 0.0
H440 H 0.99191 0.83413 0.27324 0.0
H441 H 0.92734 0.7654 0.29485 0.0
H442 H 0.88943 0.70571 0.27739 0.0
H443 H 0.89003 0.66171 0.25575 0.0
C444 C 0.09767 0.97053 0.66624 0.0
C445 C 0.09923 0.00546 0.67156 0.0
C446 C 0.13016 0.97196 0.65633 0.0
C447 C 0.1648 0.00847 0.65144 0.0
C448 C 0.1668 0.04321 0.65724 0.0
C449 C 0.13449 0.04178 0.66712 0.0
C450 C 0.19922 0.01229 0.64014 0.0
C451 C 0.19711 0.98301 0.6305 0.0
C452 C 0.22964 0.98963 0.61759 0.0
C453 C 0.21794 0.96398 0.60373 0.0
C454 C 0.24616 0.97163 0.59043 0.0
C455 C 0.28667 0.00516 0.59075 0.0
H456 H 0.28244 0.04113 0.62916 0.0
C457 C 0.29931 0.02952 0.60503 0.0
C458 C 0.27131 0.02167 0.61839 0.0
H459 H 0.33074 0.05507 0.60574 0.0
H460 H 0.07116 0.94204 0.66958 0.0
H461 H 0.12773 0.94439 0.65261 0.0
H462 H 0.19315 0.07177 0.65383 0.0
H463 H 0.13695 0.06931 0.67107 0.0
H464 H 0.22616 0.04176 0.63876 0.0
H465 H 0.16899 0.9541 0.63081 0.0
H466 H 0.18629 0.93879 0.60286 0.0
H467 H 0.23561 0.95236 0.57956 0.0
C468 C 0.13116 0.10044 -0.00125 0.0
C469 C 0.09354 0.0998 0.00317 0.0
C470 C 0.16131 0.13057 0.98857 0.0
C471 C 0.15459 0.16093 0.98269 0.0
C472 C 0.11729 0.16051 0.98734 0.0
C473 C 0.08719 0.13044 -0.00251 0.0
C474 C 0.18386 0.19177 0.97071 0.0
C475 C 0.22447 0.20147 0.96831 0.0
C476 C 0.25183 0.22971 0.9551 0.0
C477 C 0.29597 0.24836 0.95679 0.0
C478 C 0.32257 0.27312 0.94408 0.0
C479 C 0.30552 0.27952 0.92933 0.0
H480 H 0.20108 0.22147 0.93822 0.0
C481 C 0.26136 0.26106 0.9277 0.0
C482 C 0.23483 0.23636 0.94037 0.0
H483 H 0.24714 0.26448 0.91632 0.0
H484 H 0.13696 0.07719 0.00283 0.0
H485 H 0.189 0.12907 0.98494 0.0
H486 H 0.1111 0.18332 0.98292 0.0
H487 H 0.05861 0.13094 0.00066 0.0
H488 H 0.17117 0.20734 0.96371 0.0
H489 H 0.23864 0.18883 0.97636 0.0
H490 H 0.30994 0.24353 0.96793 0.0
H491 H 0.35647 0.28703 0.94576 0.0
C492 C 0.03941 0.15398 0.32817 0.0
C493 C 0.02743 0.11469 0.32446 0.0
C494 C 0.03666 0.17826 0.31594 0.0
C495 C 0.02221 0.16391 0.29959 0.0
C496 C 0.01126 0.1249 0.2958 0.0
C497 C 0.01389 0.10056 0.30806 0.0
C498 C 0.01505 0.18743 0.2866 0.0
C499 C 0.03134 0.22683 0.28733 0.0
C500 C 0.02084 0.24918 0.27494 0.0
C501 C 0.04898 0.28968 0.27272 0.0
C502 C 0.03969 0.31171 0.2614 0.0
C503 C 1.00173 0.29376 0.25219 0.0
H504 H 0.95931 0.20061 0.26763 0.0
C505 C 0.97327 0.25337 0.25463 0.0
C506 C 0.98257 0.23138 0.26591 0.0
H507 H 0.94393 0.23847 0.24763 0.0
H508 H 0.04974 0.16575 0.34072 0.0
H509 H 0.04446 0.20766 0.31965 0.0
H510 H 0.99981 0.11291 0.28336 0.0
H511 H 0.00435 0.07041 0.3048 0.0
H512 H 0.99554 0.17129 0.2759 0.0
H513 H 0.05398 0.24381 0.29708 0.0
H514 H 0.07839 0.3043 0.2797 0.0
H515 H 0.06209 0.34284 0.25994 0.0
loop_
_geom_bond_atom_site_label_1
_geom_bond_atom_site_label_2
_geom_bond_distance
_geom_bond_site_symmetry_2
_ccdc_geom_bond_type
O0 Cd1 2.223 1_455 S
O0 C8 1.315 . S
Cd1 O0 2.223 1_655 S
Cd1 O4 2.297 . S
Cd1 O5 2.439 . S
Cd1 O11 2.240 1_545 S
Cd2 O3 2.240 1_565 S
Cd2 O10 2.223 1_455 S
Cd2 O12 2.297 . S
Cd2 O13 2.439 . S
O3 Cd2 2.240 1_545 S
O3 C8 1.279 . S
O4 Cd1 2.297 . S
O4 C6 1.247 . S
O5 Cd1 2.439 . S
O5 C6 1.208 . S
C6 O4 1.247 . S
C6 O5 1.208 . S
C7 O12 1.247 . S
C7 O13 1.208 . S
C8 O0 1.315 . S
C8 O3 1.279 . S
C9 O10 1.315 . S
C9 O11 1.279 . S
O10 Cd2 2.223 1_655 S
O10 C9 1.315 . S
O11 Cd1 2.240 1_565 S
O11 C9 1.279 . S
O12 Cd2 2.297 . S
O12 C7 1.247 . S
O13 Cd2 2.439 . S
O13 C7 1.208 . S
O14 Cd15 2.223 1_655 S
O14 C22 1.315 . S
Cd15 O14 2.223 1_455 S
Cd15 O18 2.297 . S
Cd15 O19 2.439 . S
Cd15 O25 2.240 . S
Cd16 O17 2.240 . S
Cd16 O24 2.223 1_655 S
Cd16 O26 2.297 . S
Cd16 O27 2.439 . S
O17 Cd16 2.240 . S
O17 C22 1.279 1_565 S
O18 Cd15 2.297 . S
O18 C20 1.247 . S
O19 Cd15 2.439 . S
O19 C20 1.208 . S
C20 O18 1.247 . S
C20 O19 1.208 . S
C21 O26 1.247 . S
C21 O27 1.208 . S
C22 O14 1.315 . S
C22 O17 1.279 1_545 S
C23 O24 1.315 . S
C23 O25 1.279 1_565 S
O24 Cd16 2.223 1_455 S
O24 C23 1.315 . S
O25 Cd15 2.240 . S
O25 C23 1.279 1_545 S
O26 Cd16 2.297 . S
O26 C21 1.247 . S
O27 Cd16 2.439 . S
O27 C21 1.208 . S
O28 Cd29 2.223 . S
O28 C36 1.315 . S
Cd29 O28 2.223 . S
Cd29 O32 2.297 . S
Cd29 O33 2.439 . S
Cd29 O39 2.240 1_655 S
Cd30 O31 2.240 1_455 S
Cd30 O38 2.223 . S
Cd30 O40 2.297 . S
Cd30 O41 2.439 . S
O31 Cd30 2.240 1_655 S
O31 C36 1.279 1_545 S
O32 Cd29 2.297 . S
O32 C34 1.247 . S
O33 Cd29 2.439 . S
O33 C34 1.208 . S
C34 O32 1.247 . S
C34 O33 1.208 . S
C35 O40 1.247 . S
C35 O41 1.208 . S
C36 O28 1.315 . S
C36 O31 1.279 1_565 S
C37 O38 1.315 . S
C37 O39 1.279 1_545 S
O38 Cd30 2.223 . S
O38 C37 1.315 . S
O39 Cd29 2.240 1_455 S
O39 C37 1.279 1_565 S
O40 Cd30 2.297 . S
O40 C35 1.247 . S
O41 Cd30 2.439 . S
O41 C35 1.208 . S
H42 C69 0.929 . S
N43 C68 1.433 . S
N43 C74 1.435 . S
N43 C80 1.423 . S
H44 C70 0.930 . S
H45 C73 0.931 . S
H46 C72 0.929 . S
H47 C75 0.930 . S
H48 C76 0.932 . S
H49 C79 0.929 . S
H50 C78 0.931 . S
H51 C81 0.929 . S
H52 C85 0.932 1_455 S
H53 C82 0.931 . S
H54 C84 0.929 1_455 S
H55 C87 0.929 . S
H56 C88 0.930 . S
H57 C90 0.929 . S
H58 C91 0.931 . S
H59 C93 0.930 . S
H60 C94 0.932 . S
H61 C96 0.931 . S
H62 C97 0.929 . S
H63 C99 0.929 . S
H64 C100 0.931 . S
H65 C102 0.929 1_455 S
N66 C86 1.433 . S
N66 C92 1.435 . S
N66 C98 1.423 . S
H67 C103 0.932 1_455 S
C68 N43 1.433 . S
C68 C69 1.363 . S
C68 C73 1.370 1_655 S
C69 H42 0.929 . S
C69 C68 1.363 . S
C69 C70 1.385 . S
C70 H44 0.930 . S
C70 C69 1.385 . S
C70 C71 1.357 . S
C71 C70 1.357 . S
C71 C72 1.406 1_655 S
C72 H46 0.929 . S
C72 C71 1.406 1_455 S
C72 C73 1.391 . S
C73 H45 0.931 . S
C73 C68 1.370 1_455 S
C73 C72 1.391 . S
C74 N43 1.435 . S
C74 C75 1.358 1_655 S
C74 C79 1.371 . S
C75 H47 0.930 . S
C75 C74 1.358 1_455 S
C75 C76 1.405 . S
C76 H48 0.932 . S
C76 C75 1.405 . S
C76 C77 1.383 1_455 S
C77 C76 1.383 1_655 S
C77 C78 1.393 . S
C78 H50 0.931 . S
C78 C77 1.393 . S
C78 C79 1.382 . S
C79 H49 0.929 . S
C79 C74 1.371 . S
C79 C78 1.382 . S
C80 N43 1.423 . S
C80 C81 1.362 . S
C80 C85 1.388 . S
C81 H51 0.929 . S
C81 C80 1.362 . S
C81 C82 1.376 . S
C82 H53 0.931 . S
C82 C81 1.376 . S
C82 C83 1.396 . S
C83 C82 1.396 . S
C83 C84 1.348 . S
C83 C101 1.472 . S
C84 H54 0.929 1_655 S
C84 C83 1.348 . S
C84 C85 1.443 . S
C85 H52 0.932 1_655 S
C85 C80 1.388 . S
C85 C84 1.443 . S
C86 N66 1.433 . S
C86 C87 1.363 . S
C86 C91 1.370 1_655 S
C87 H55 0.929 . S
C87 C86 1.363 . S
C87 C88 1.385 . S
C88 H56 0.930 . S
C88 C87 1.385 . S
C88 C89 1.357 . S
C89 C88 1.357 . S
C89 C90 1.406 1_655 S
C90 H57 0.929 . S
C90 C89 1.406 1_455 S
C90 C91 1.391 . S
C91 H58 0.931 . S
C91 C86 1.370 1_455 S
C91 C90 1.391 . S
C92 N66 1.435 . S
C92 C93 1.358 1_655 S
C92 C97 1.371 . S
C93 H59 0.930 . S
C93 C92 1.358 1_455 S
C93 C94 1.405 . S
C94 H60 0.932 . S
C94 C93 1.405 . S
C94 C95 1.383 1_455 S
C95 C94 1.383 1_655 S
C95 C96 1.393 . S
C96 H61 0.931 . S
C96 C95 1.393 . S
C96 C97 1.382 . S
C97 H62 0.929 . S
C97 C92 1.371 . S
C97 C96 1.382 . S
C98 N66 1.423 . S
C98 C99 1.362 . S
C98 C103 1.388 . S
C99 H63 0.929 . S
C99 C98 1.362 . S
C99 C100 1.376 . S
C100 H64 0.931 . S
C100 C99 1.376 . S
C100 C101 1.396 . S
C101 C83 1.472 . S
C101 C100 1.396 . S
C101 C102 1.348 . S
C102 H65 0.929 1_655 S
C102 C101 1.348 . S
C102 C103 1.443 . S
C103 H67 0.932 1_655 S
C103 C98 1.388 . S
C103 C102 1.443 . S
H104 C131 0.929 . S
N105 C130 1.433 . S
N105 C136 1.435 . S
N105 C142 1.423 . S
H106 C132 0.930 . S
H107 C135 0.931 . S
H108 C134 0.929 . S
H109 C137 0.930 . S
H110 C138 0.932 . S
H111 C141 0.929 . S
H112 C140 0.931 . S
H113 C143 0.929 . S
H114 C147 0.932 1_565 S
H115 C144 0.931 . S
H116 C146 0.929 1_565 S
H117 C149 0.929 . S
H118 C150 0.930 . S
H119 C152 0.929 . S
H120 C153 0.931 . S
H121 C155 0.930 . S
H122 C156 0.932 . S
H123 C158 0.931 . S
H124 C159 0.929 . S
H125 C161 0.929 . S
H126 C162 0.931 . S
H127 C164 0.929 1_565 S
N128 C148 1.433 . S
N128 C154 1.435 . S
N128 C160 1.423 . S
H129 C165 0.932 1_565 S
C130 N105 1.433 . S
C130 C131 1.363 . S
C130 C135 1.370 1_545 S
C131 H104 0.929 . S
C131 C130 1.363 . S
C131 C132 1.385 . S
C132 H106 0.930 . S
C132 C131 1.385 . S
C132 C133 1.357 . S
C133 C132 1.357 . S
C133 C134 1.406 1_545 S
C134 H108 0.929 . S
C134 C133 1.406 1_565 S
C134 C135 1.391 . S
C135 H107 0.931 . S
C135 C130 1.370 1_565 S
C135 C134 1.391 . S
C136 N105 1.435 . S
C136 C137 1.358 1_545 S
C136 C141 1.371 . S
C137 H109 0.930 . S
C137 C136 1.358 1_565 S
C137 C138 1.405 . S
C138 H110 0.932 . S
C138 C137 1.405 . S
C138 C139 1.383 1_565 S
C139 C138 1.383 1_545 S
C139 C140 1.393 . S
C140 H112 0.931 . S
C140 C139 1.393 . S
C140 C141 1.382 . S
C141 H111 0.929 . S
C141 C136 1.371 . S
C141 C140 1.382 . S
C142 N105 1.423 . S
C142 C143 1.362 . S
C142 C147 1.388 . S
C143 H113 0.929 . S
C143 C142 1.362 . S
C143 C144 1.376 . S
C144 H115 0.931 . S
C144 C143 1.376 . S
C144 C145 1.396 . S
C145 C144 1.396 . S
C145 C146 1.348 . S
C145 C163 1.472 . S
C146 H116 0.929 1_545 S
C146 C145 1.348 . S
C146 C147 1.443 . S
C147 H114 0.932 1_545 S
C147 C142 1.388 . S
C147 C146 1.443 . S
C148 N128 1.433 . S
C148 C149 1.363 . S
C148 C153 1.370 1_545 S
C149 H117 0.929 . S
C149 C148 1.363 . S
C149 C150 1.385 . S
C150 H118 0.930 . S
C150 C149 1.385 . S
C150 C151 1.357 . S
C151 C150 1.357 . S
C151 C152 1.406 1_545 S
C152 H119 0.929 . S
C152 C151 1.406 1_565 S
C152 C153 1.391 . S
C153 H120 0.931 . S
C153 C148 1.370 1_565 S
C153 C152 1.391 . S
C154 N128 1.435 . S
C154 C155 1.358 1_545 S
C154 C159 1.371 . S
C155 H121 0.930 . S
C155 C154 1.358 1_565 S
C155 C156 1.405 . S
C156 H122 0.932 . S
C156 C155 1.405 . S
C156 C157 1.383 1_565 S
C157 C156 1.383 1_545 S
C157 C158 1.393 . S
C158 H123 0.931 . S
C158 C157 1.393 . S
C158 C159 1.382 . S
C159 H124 0.929 . S
C159 C154 1.371 . S
C159 C158 1.382 . S
C160 N128 1.423 . S
C160 C161 1.362 . S
C160 C165 1.388 . S
C161 H125 0.929 . S
C161 C160 1.362 . S
C161 C162 1.376 . S
C162 H126 0.931 . S
C162 C161 1.376 . S
C162 C163 1.396 . S
C163 C145 1.472 . S
C163 C162 1.396 . S
C163 C164 1.348 . S
C164 H127 0.929 1_545 S
C164 C163 1.348 . S
C164 C165 1.443 . S
C165 H129 0.932 1_545 S
C165 C160 1.388 . S
C165 C164 1.443 . S
H166 C193 0.929 . S
N167 C192 1.433 . S
N167 C198 1.435 . S
N167 C204 1.423 . S
H168 C194 0.930 . S
H169 C197 0.931 . S
H170 C196 0.929 . S
H171 C199 0.930 . S
H172 C200 0.932 . S
H173 C203 0.929 . S
H174 C202 0.931 . S
H175 C205 0.929 . S
H176 C209 0.932 . S
H177 C206 0.931 . S
H178 C208 0.929 . S
H179 C211 0.929 . S
H180 C212 0.930 . S
H181 C214 0.929 . S
H182 C215 0.931 . S
H183 C217 0.930 . S
H184 C218 0.932 . S
H185 C220 0.931 . S
H186 C221 0.929 . S
H187 C223 0.929 . S
H188 C224 0.931 . S
H189 C226 0.929 . S
N190 C210 1.433 . S
N190 C216 1.435 . S
N190 C222 1.423 . S
H191 C227 0.932 . S
C192 N167 1.433 . S
C192 C193 1.363 . S
C192 C197 1.370 . S
C193 H166 0.929 . S
C193 C192 1.363 . S
C193 C194 1.385 . S
C194 H168 0.930 . S
C194 C193 1.385 . S
C194 C195 1.357 . S
C195 C194 1.357 . S
C195 C196 1.406 . S
C196 H170 0.929 . S
C196 C195 1.406 . S
C196 C197 1.391 . S
C197 H169 0.931 . S
C197 C192 1.370 . S
C197 C196 1.391 . S
C198 N167 1.435 . S
C198 C199 1.358 . S
C198 C203 1.371 . S
C199 H171 0.930 . S
C199 C198 1.358 . S
C199 C200 1.405 . S
C200 H172 0.932 . S
C200 C199 1.405 . S
C200 C201 1.383 . S
C201 C200 1.383 . S
C201 C202 1.393 . S
C202 H174 0.931 . S
C202 C201 1.393 . S
C202 C203 1.382 . S
C203 H173 0.929 . S
C203 C198 1.371 . S
C203 C202 1.382 . S
C204 N167 1.423 . S
C204 C205 1.362 . S
C204 C209 1.388 . S
C205 H175 0.929 . S
C205 C204 1.362 . S
C205 C206 1.376 . S
C206 H177 0.931 . S
C206 C205 1.376 . S
C206 C207 1.396 . S
C207 C206 1.396 . S
C207 C208 1.348 . S
C207 C225 1.472 . S
C208 H178 0.929 . S
C208 C207 1.348 . S
C208 C209 1.443 . S
C209 H176 0.932 . S
C209 C204 1.388 . S
C209 C208 1.443 . S
C210 N190 1.433 . S
C210 C211 1.363 . S
C210 C215 1.370 . S
C211 H179 0.929 . S
C211 C210 1.363 . S
C211 C212 1.385 . S
C212 H180 0.930 . S
C212 C211 1.385 . S
C212 C213 1.357 . S
C213 C212 1.357 . S
C213 C214 1.406 . S
C214 H181 0.929 . S
C214 C213 1.406 . S
C214 C215 1.391 . S
C215 H182 0.931 . S
C215 C210 1.370 . S
C215 C214 1.391 . S
C216 N190 1.435 . S
C216 C217 1.358 . S
C216 C221 1.371 . S
C217 H183 0.930 . S
C217 C216 1.358 . S
C217 C218 1.405 . S
C218 H184 0.932 . S
C218 C217 1.405 . S
C218 C219 1.383 . S
C219 C218 1.383 . S
C219 C220 1.393 . S
C220 H185 0.931 . S
C220 C219 1.393 . S
C220 C221 1.382 . S
C221 H186 0.929 . S
C221 C216 1.371 . S
C221 C220 1.382 . S
C222 N190 1.423 . S
C222 C223 1.362 . S
C222 C227 1.388 . S
C223 H187 0.929 . S
C223 C222 1.362 . S
C223 C224 1.376 . S
C224 H188 0.931 . S
C224 C223 1.376 . S
C224 C225 1.396 . S
C225 C207 1.472 . S
C225 C224 1.396 . S
C225 C226 1.348 . S
C226 H189 0.929 . S
C226 C225 1.348 . S
C226 C227 1.443 . S
C227 H191 0.932 . S
C227 C222 1.388 . S
C227 C226 1.443 . S
C228 C229 1.386 1_655 S
C228 C230 1.383 1_655 S
C228 H244 0.951 . S
C229 C228 1.386 1_455 S
C229 C233 1.383 . S
C230 C228 1.383 1_455 S
C230 C231 1.401 . S
C230 H245 0.950 1_455 S
C231 C230 1.401 . S
C231 C232 1.375 . S
C231 C234 1.481 . S
C232 C231 1.375 . S
C232 C233 1.367 . S
C232 H246 0.951 . S
C233 C229 1.383 . S
C233 C232 1.367 . S
C233 H247 0.950 . S
C234 C231 1.481 . S
C234 C235 1.297 . S
C234 H248 0.950 . S
C235 C234 1.297 . S
C235 C236 1.479 . S
C235 H249 0.950 . S
C236 C235 1.479 . S
C236 C237 1.381 . S
C236 C242 1.404 . S
C237 C236 1.381 . S
C237 C238 1.358 1_455 S
C237 H250 0.955 1_455 S
C238 C237 1.358 1_655 S
C238 C239 1.392 1_655 S
C238 H251 0.951 . S
C239 C238 1.392 1_455 S
C239 C241 1.384 . S
H240 C242 0.949 . S
C241 C239 1.384 . S
C241 C242 1.385 . S
C241 H243 0.950 . S
C242 C236 1.404 . S
C242 H240 0.949 . S
C242 C241 1.385 . S
H243 C241 0.950 . S
H244 C228 0.951 . S
H245 C230 0.950 1_655 S
H246 C232 0.951 . S
H247 C233 0.950 . S
H248 C234 0.950 . S
H249 C235 0.950 . S
H250 C237 0.955 1_655 S
H251 C238 0.951 . S
C252 C253 1.386 . S
C252 C254 1.383 . S
C252 H268 0.951 . S
C253 C252 1.386 . S
C253 C257 1.383 1_545 S
C254 C252 1.383 . S
C254 C255 1.402 . S
C254 H269 0.951 . S
C255 C254 1.402 . S
C255 C256 1.370 1_545 S
C255 C258 1.481 . S
C256 C255 1.370 1_565 S
C256 C257 1.380 . S
C256 H270 0.944 . S
C257 C253 1.383 1_565 S
C257 C256 1.380 . S
C257 H271 0.950 . S
C258 C255 1.481 . S
C258 C259 1.297 . S
C258 H272 0.950 . S
C259 C258 1.297 . S
C259 C260 1.479 . S
C259 H273 0.950 . S
C260 C259 1.479 . S
C260 C261 1.375 . S
C260 C266 1.404 . S
C261 C260 1.375 . S
C261 C262 1.369 . S
C261 H274 0.950 . S
C262 C261 1.369 . S
C262 C263 1.392 . S
C262 H275 0.951 . S
C263 C262 1.392 . S
C263 C265 1.384 . S
H264 C266 0.949 . S
C265 C263 1.384 . S
C265 C266 1.385 . S
C265 H267 0.956 1_545 S
C266 C260 1.404 . S
C266 H264 0.949 . S
C266 C265 1.385 . S
H267 C265 0.956 1_565 S
H268 C252 0.951 . S
H269 C254 0.951 . S
H270 C256 0.944 . S
H271 C257 0.950 . S
H272 C258 0.950 . S
H273 C259 0.950 . S
H274 C261 0.950 . S
H275 C262 0.951 . S
C276 C277 1.386 . S
C276 C278 1.383 . S
C276 H292 0.951 . S
C277 C276 1.386 . S
C277 C281 1.383 . S
C278 C276 1.383 . S
C278 C279 1.402 . S
C278 H293 0.951 . S
C279 C278 1.402 . S
C279 C280 1.375 . S
C279 C282 1.481 . S
C280 C279 1.375 . S
C280 C281 1.367 . S
C280 H294 0.951 . S
C281 C277 1.383 . S
C281 C280 1.367 . S
C281 H295 0.950 . S
C282 C279 1.481 . S
C282 C283 1.297 . S
C282 H296 0.950 . S
C283 C282 1.297 . S
C283 C284 1.479 . S
C283 H297 0.950 . S
C284 C283 1.479 . S
C284 C285 1.375 . S
C284 C290 1.404 . S
C285 C284 1.375 . S
C285 C286 1.369 . S
C285 H298 0.950 . S
C286 C285 1.369 . S
C286 C287 1.392 . S
C286 H299 0.951 . S
C287 C286 1.392 . S
C287 C289 1.384 . S
H288 C290 0.949 . S
C289 C287 1.384 . S
C289 C290 1.385 . S
C289 H291 0.950 . S
C290 C284 1.404 . S
C290 H288 0.949 . S
C290 C289 1.385 . S
H291 C289 0.950 . S
H292 C276 0.951 . S
H293 C278 0.951 . S
H294 C280 0.951 . S
H295 C281 0.950 . S
H296 C282 0.950 . S
H297 C283 0.950 . S
H298 C285 0.950 . S
H299 C286 0.951 . S
C300 C301 1.386 1_455 S
C300 C302 1.383 . S
C300 H316 0.951 . S
C301 C300 1.386 1_655 S
C301 C305 1.383 . S
C302 C300 1.383 . S
C302 C303 1.402 1_455 S
C302 H317 0.951 . S
C303 C302 1.402 1_655 S
C303 C304 1.375 . S
C303 C306 1.481 . S
C304 C303 1.375 . S
C304 C305 1.367 . S
C304 H318 0.951 . S
C305 C301 1.383 . S
C305 C304 1.367 . S
C305 H319 0.950 . S
C306 C303 1.481 . S
C306 C307 1.297 1_655 S
C306 H320 0.950 . S
C307 C306 1.297 1_455 S
C307 C308 1.471 . S
C307 H321 0.950 . S
C308 C307 1.471 . S
C308 C309 1.401 . S
C308 C314 1.390 1_455 S
C309 C308 1.401 . S
C309 C310 1.369 . S
C309 H322 0.950 . S
C310 C309 1.369 . S
C310 C311 1.383 1_455 S
C310 H323 0.951 . S
C311 C310 1.383 1_655 S
C311 C313 1.402 . S
H312 C314 0.949 . S
C313 C311 1.402 . S
C313 C314 1.385 . S
C313 H315 0.950 . S
C314 C308 1.390 1_655 S
C314 H312 0.949 . S
C314 C313 1.385 . S
H315 C313 0.950 . S
H316 C300 0.951 . S
H317 C302 0.951 . S
H318 C304 0.951 . S
H319 C305 0.950 . S
H320 C306 0.950 . S
H321 C307 0.950 . S
H322 C309 0.950 . S
H323 C310 0.951 . S
C324 C325 1.386 . S
C324 C326 1.383 . S
C324 H340 0.951 . S
C325 C324 1.386 . S
C325 C329 1.383 1_565 S
C326 C324 1.383 . S
C326 C327 1.402 . S
C326 H341 0.951 . S
C327 C326 1.402 . S
C327 C328 1.375 1_565 S
C327 C330 1.481 . S
C328 C327 1.375 1_545 S
C328 C329 1.367 . S
C328 H342 0.951 . S
C329 C325 1.383 1_545 S
C329 C328 1.367 . S
C329 H343 0.950 . S
C330 C327 1.481 . S
C330 C331 1.297 . S
C330 H344 0.953 1_565 S
C331 C330 1.297 . S
C331 C332 1.479 . S
C331 H345 0.950 . S
C332 C331 1.479 . S
C332 C333 1.375 . S
C332 C338 1.404 . S
C333 C332 1.375 . S
C333 C334 1.369 . S
C333 H346 0.950 . S
C334 C333 1.369 . S
C334 C335 1.392 . S
C334 H347 0.951 . S
C335 C334 1.392 . S
C335 C337 1.384 . S
H336 C338 0.949 . S
C337 C335 1.384 . S
C337 C338 1.385 . S
C337 H339 0.950 1_565 S
C338 C332 1.404 . S
C338 H336 0.949 . S
C338 C337 1.385 . S
H339 C337 0.950 1_545 S
H340 C324 0.951 . S
H341 C326 0.951 . S
H342 C328 0.951 . S
H343 C329 0.950 . S
H344 C330 0.953 1_545 S
H345 C331 0.950 . S
H346 C333 0.950 . S
H347 C334 0.951 . S
C348 C349 1.386 . S
C348 C350 1.383 . S
C348 H364 0.951 . S
C349 C348 1.386 . S
C349 C353 1.383 . S
C350 C348 1.383 . S
C350 C351 1.402 . S
C350 H365 0.951 . S
C351 C350 1.402 . S
C351 C352 1.375 . S
C351 C354 1.481 . S
C352 C351 1.375 . S
C352 C353 1.367 . S
C352 H366 0.951 . S
C353 C349 1.383 . S
C353 C352 1.367 . S
C353 H367 0.950 . S
C354 C351 1.481 . S
C354 C355 1.297 . S
C354 H368 0.950 . S
C355 C354 1.297 . S
C355 C356 1.479 . S
C355 H369 0.950 . S
C356 C355 1.479 . S
C356 C357 1.375 . S
C356 C362 1.404 . S
C357 C356 1.375 . S
C357 C358 1.369 . S
C357 H370 0.950 . S
C358 C357 1.369 . S
C358 C359 1.392 . S
C358 H371 0.951 . S
C359 C358 1.392 . S
C359 C361 1.384 . S
H360 C362 0.949 . S
C361 C359 1.384 . S
C361 C362 1.385 . S
C361 H363 0.950 . S
C362 C356 1.404 . S
C362 H360 0.949 . S
C362 C361 1.385 . S
H363 C361 0.950 . S
H364 C348 0.951 . S
H365 C350 0.951 . S
H366 C352 0.951 . S
H367 C353 0.950 . S
H368 C354 0.950 . S
H369 C355 0.950 . S
H370 C357 0.950 . S
H371 C358 0.951 . S
C372 C373 1.386 . S
C372 C374 1.383 . S
C372 H388 0.951 . S
C373 C372 1.386 . S
C373 C377 1.398 . S
C374 C372 1.383 . S
C374 C375 1.402 . S
C374 H389 0.951 . S
C375 C374 1.402 . S
C375 C376 1.375 . S
C375 C378 1.481 . S
C376 C375 1.375 . S
C376 C377 1.355 . S
C376 H390 0.951 1_565 S
C377 C373 1.398 . S
C377 C376 1.355 . S
C377 H391 0.946 1_565 S
C378 C375 1.481 . S
C378 C379 1.297 . S
C378 H392 0.950 . S
C379 C378 1.297 . S
C379 C380 1.479 . S
C379 H393 0.950 . S
C380 C379 1.479 . S
C380 C381 1.375 . S
C380 C386 1.404 . S
C381 C380 1.375 . S
C381 C382 1.369 . S
C381 H394 0.950 . S
C382 C381 1.369 . S
C382 C383 1.392 . S
C382 H395 0.951 . S
C383 C382 1.392 . S
C383 C385 1.384 . S
H384 C386 0.949 . S
C385 C383 1.384 . S
C385 C386 1.385 . S
C385 H387 0.950 . S
C386 C380 1.404 . S
C386 H384 0.949 . S
C386 C385 1.385 . S
H387 C385 0.950 . S
H388 C372 0.951 . S
H389 C374 0.951 . S
H390 C376 0.951 1_545 S
H391 C377 0.946 1_545 S
H392 C378 0.950 . S
H393 C379 0.950 . S
H394 C381 0.950 . S
H395 C382 0.951 . S
C396 C397 1.423 . S
C396 C398 1.383 . S
C396 H412 0.951 . S
C397 C396 1.423 . S
C397 C401 1.363 1_556 S
C398 C396 1.383 . S
C398 C399 1.402 . S
C398 H413 0.951 . S
C399 C398 1.402 . S
C399 C400 1.317 1_556 S
C399 C402 1.481 . S
C400 C399 1.317 1_554 S
C400 C401 1.394 . S
C400 H414 0.984 . S
C401 C397 1.363 1_554 S
C401 C400 1.394 . S
C401 H415 0.950 . S
C402 C399 1.481 . S
C402 C403 1.297 . S
C402 H416 0.950 . S
C403 C402 1.297 . S
C403 C404 1.479 . S
C403 H417 0.950 . S
C404 C403 1.479 . S
C404 C405 1.375 . S
C404 C410 1.404 . S
C405 C404 1.375 . S
C405 C406 1.369 . S
C405 H418 0.950 . S
C406 C405 1.369 . S
C406 C407 1.392 . S
C406 H419 0.951 . S
C407 C406 1.392 . S
C407 C409 1.384 . S
H408 C410 0.949 . S
C409 C407 1.384 . S
C409 C410 1.385 . S
C409 H411 0.950 . S
C410 C404 1.404 . S
C410 H408 0.949 . S
C410 C409 1.385 . S
H411 C409 0.950 . S
H412 C396 0.951 . S
H413 C398 0.951 . S
H414 C400 0.984 . S
H415 C401 0.950 . S
H416 C402 0.950 . S
H417 C403 0.950 . S
H418 C405 0.950 . S
H419 C406 0.951 . S
C420 C421 1.386 1_655 S
C420 C422 1.383 . S
C420 H436 0.951 . S
C421 C420 1.386 1_455 S
C421 C425 1.383 . S
C422 C420 1.383 . S
C422 C423 1.402 1_655 S
C422 H437 0.951 . S
C423 C422 1.402 1_455 S
C423 C424 1.375 . S
C423 C426 1.481 . S
C424 C423 1.375 . S
C424 C425 1.367 . S
C424 H438 0.951 . S
C425 C421 1.383 . S
C425 C424 1.367 . S
C425 H439 0.950 . S
C426 C423 1.481 . S
C426 C427 1.297 1_455 S
C426 H440 0.950 . S
C427 C426 1.297 1_655 S
C427 C428 1.479 1_655 S
C427 H441 0.950 . S
C428 C427 1.479 1_455 S
C428 C429 1.375 1_455 S
C428 C434 1.404 . S
C429 C428 1.375 1_655 S
C429 C430 1.369 . S
C429 H442 0.950 . S
C430 C429 1.369 . S
C430 C431 1.392 1_655 S
C430 H443 0.951 . S
C431 C430 1.392 1_455 S
C431 C433 1.384 . S
H432 C434 0.949 . S
C433 C431 1.384 . S
C433 C434 1.385 . S
C433 H435 0.950 . S
C434 C428 1.404 . S
C434 H432 0.949 . S
C434 C433 1.385 . S
H435 C433 0.950 . S
H436 C420 0.951 . S
H437 C422 0.951 . S
H438 C424 0.951 . S
H439 C425 0.950 . S
H440 C426 0.950 . S
H441 C427 0.950 . S
H442 C429 0.950 . S
H443 C430 0.951 . S
C444 C445 1.386 1_565 S
C444 C446 1.383 . S
C444 H460 0.951 . S
C445 C444 1.386 1_545 S
C445 C449 1.383 . S
C446 C444 1.383 . S
C446 C447 1.402 1_565 S
C446 H461 0.951 . S
C447 C446 1.402 1_545 S
C447 C448 1.375 . S
C447 C450 1.481 . S
C448 C447 1.375 . S
C448 C449 1.367 . S
C448 H462 0.951 . S
C449 C445 1.383 . S
C449 C448 1.367 . S
C449 H463 0.950 . S
C450 C447 1.481 . S
C450 C451 1.297 1_545 S
C450 H464 0.950 . S
C451 C450 1.297 1_565 S
C451 C452 1.469 . S
C451 H465 0.950 . S
C452 C451 1.469 . S
C452 C453 1.405 . S
C452 C458 1.387 1_565 S
C453 C452 1.405 . S
C453 C454 1.369 . S
C453 H466 0.950 . S
C454 C453 1.369 . S
C454 C455 1.381 1_565 S
C454 H467 0.951 . S
C455 C454 1.381 1_545 S
C455 C457 1.405 . S
H456 C458 0.949 . S
C457 C455 1.405 . S
C457 C458 1.385 . S
C457 H459 0.950 . S
C458 C452 1.387 1_545 S
C458 H456 0.949 . S
C458 C457 1.385 . S
H459 C457 0.950 . S
H460 C444 0.951 . S
H461 C446 0.951 . S
H462 C448 0.951 . S
H463 C449 0.950 . S
H464 C450 0.950 . S
H465 C451 0.950 . S
H466 C453 0.950 . S
H467 C454 0.951 . S
C468 C469 1.386 1_554 S
C468 C470 1.383 1_554 S
C468 H484 0.951 . S
C469 C468 1.386 1_556 S
C469 C473 1.383 . S
C470 C468 1.383 1_556 S
C470 C471 1.402 . S
C470 H485 0.951 . S
C471 C470 1.402 . S
C471 C472 1.375 . S
C471 C474 1.481 . S
C472 C471 1.375 . S
C472 C473 1.367 . S
C472 H486 0.951 . S
C473 C469 1.383 . S
C473 C472 1.367 . S
C473 H487 0.950 . S
C474 C471 1.481 . S
C474 C475 1.297 . S
C474 H488 0.950 . S
C475 C474 1.297 . S
C475 C476 1.479 . S
C475 H489 0.950 . S
C476 C475 1.479 . S
C476 C477 1.375 . S
C476 C482 1.404 . S
C477 C476 1.375 . S
C477 C478 1.369 . S
C477 H490 0.950 . S
C478 C477 1.369 . S
C478 C479 1.392 . S
C478 H491 0.951 . S
C479 C478 1.392 . S
C479 C481 1.384 . S
H480 C482 0.949 . S
C481 C479 1.384 . S
C481 C482 1.385 . S
C481 H483 0.950 . S
C482 C476 1.404 . S
C482 H480 0.949 . S
C482 C481 1.385 . S
H483 C481 0.950 . S
H484 C468 0.951 . S
H485 C470 0.951 . S
H486 C472 0.951 . S
H487 C473 0.950 . S
H488 C474 0.950 . S
H489 C475 0.950 . S
H490 C477 0.950 . S
H491 C478 0.951 . S
C492 C493 1.386 1_455 S
C492 C494 1.383 . S
C492 H508 0.951 . S
C493 C492 1.386 1_655 S
C493 C497 1.383 . S
C494 C492 1.383 . S
C494 C495 1.402 . S
C494 H509 0.951 . S
C495 C494 1.402 . S
C495 C496 1.375 1_455 S
C495 C498 1.481 . S
C496 C495 1.375 1_655 S
C496 C497 1.367 . S
C496 H510 0.951 . S
C497 C493 1.383 . S
C497 C496 1.367 . S
C497 H511 0.950 . S
C498 C495 1.481 . S
C498 C499 1.297 . S
C498 H512 0.950 1_455 S
C499 C498 1.297 . S
C499 C500 1.479 . S
C499 H513 0.950 . S
C500 C499 1.479 . S
C500 C501 1.375 . S
C500 C506 1.404 . S
C501 C500 1.375 . S
C501 C502 1.369 . S
C501 H514 0.950 . S
C502 C501 1.369 . S
C502 C503 1.392 . S
C502 H515 0.951 . S
C503 C502 1.392 . S
C503 C505 1.384 1_455 S
H504 C506 0.954 1_655 S
C505 C503 1.384 1_655 S
C505 C506 1.385 1_655 S
C505 H507 0.950 . S
C506 C500 1.404 . S
C506 H504 0.954 1_455 S
C506 C505 1.385 1_455 S
H507 C505 0.950 . S
H508 C492 0.951 . S
H509 C494 0.951 . S
H510 C496 0.951 . S
H511 C497 0.950 . S
H512 C498 0.950 1_655 S
H513 C499 0.950 . S
H514 C501 0.950 . S
H515 C502 0.951 . S
C239 C95 1.331 1_455 S
C229 C6 1.339 1_455 S
C253 C22 1.523 . S
C263 C139 1.534 . S
C277 C34 1.123 . S
C287 C201 1.094 . S
C301 C7 1.356 1_655 S
C311 C77 1.301 . S
C335 C157 1.549 1_565 S
C325 C23 1.521 . S
C349 C35 1.112 . S
C359 C219 1.108 . S
C383 C133 1.754 1_565 S
C373 C36 1.806 . S
C397 C9 2.049 1_556 S
C407 C195 2.003 . S
C431 C71 1.553 1_455 S
C421 C21 1.704 1_455 S
C455 C151 1.679 . S
C445 C37 1.808 . S
C479 C213 1.992 . S
C469 C8 2.095 1_556 S
C493 C20 1.695 1_655 S
C503 C89 1.601 1_455 S
