# Generated by pormake.
# Topology pto, (3,4)-cn, num edge types: 1
# Building blocks:
#     Node 0, Type 0, BuildingBlock: BETDAH_clean_linker_0, # of connection points: 3
#     Node 1, Type 0, BuildingBlock: BETDAH_clean_linker_0, # of connection points: 3
#     Node 2, Type 0, BuildingBlock: BETDAH_clean_linker_0, # of connection points: 3
#     Node 3, Type 0, BuildingBlock: BETDAH_clean_linker_0, # of connection points: 3
#     Node 4, Type 0, BuildingBlock: BETDAH_clean_linker_0, # of connection points: 3
#     Node 5, Type 0, BuildingBlock: BETDAH_clean_linker_0, # of connection points: 3
#     Node 6, Type 0, BuildingBlock: BETDAH_clean_linker_0, # of connection points: 3
#     Node 7, Type 0, BuildingBlock: BETDAH_clean_linker_0, # of connection points: 3
#     Node 8, Type 1, BuildingBlock: KOZSID_clean_sbu_0, # of connection points: 4
#     Node 9, Type 1, BuildingBlock: KOZSID_clean_sbu_0, # of connection points: 4
#     Node 10, Type 1, BuildingBlock: KOZSID_clean_sbu_0, # of connection points: 4
#     Node 11, Type 1, BuildingBlock: KOZSID_clean_sbu_0, # of connection points: 4
#     Node 12, Type 1, BuildingBlock: KOZSID_clean_sbu_0, # of connection points: 4
#     Node 13, Type 1, BuildingBlock: KOZSID_clean_sbu_0, # of connection points: 4
#     Edge 14, Type (0, 1), BuildingBlock: MIFKUJ_clean_linker_0, # of connection points: 2
#     Edge 15, Type (0, 1), BuildingBlock: MIFKUJ_clean_linker_0, # of connection points: 2
#     Edge 16, Type (0, 1), BuildingBlock: MIFKUJ_clean_linker_0, # of connection points: 2
#     Edge 17, Type (0, 1), BuildingBlock: MIFKUJ_clean_linker_0, # of connection points: 2
#     Edge 18, Type (0, 1), BuildingBlock: MIFKUJ_clean_linker_0, # of connection points: 2
#     Edge 19, Type (0, 1), BuildingBlock: MIFKUJ_clean_linker_0, # of connection points: 2
#     Edge 20, Type (0, 1), BuildingBlock: MIFKUJ_clean_linker_0, # of connection points: 2
#     Edge 21, Type (0, 1), BuildingBlock: MIFKUJ_clean_linker_0, # of connection points: 2
#     Edge 22, Type (0, 1), BuildingBlock: MIFKUJ_clean_linker_0, # of connection points: 2
#     Edge 23, Type (0, 1), BuildingBlock: MIFKUJ_clean_linker_0, # of connection points: 2
#     Edge 24, Type (0, 1), BuildingBlock: MIFKUJ_clean_linker_0, # of connection points: 2
#     Edge 25, Type (0, 1), BuildingBlock: MIFKUJ_clean_linker_0, # of connection points: 2
#     Edge 26, Type (0, 1), BuildingBlock: MIFKUJ_clean_linker_0, # of connection points: 2
#     Edge 27, Type (0, 1), BuildingBlock: MIFKUJ_clean_linker_0, # of connection points: 2
#     Edge 28, Type (0, 1), BuildingBlock: MIFKUJ_clean_linker_0, # of connection points: 2
#     Edge 29, Type (0, 1), BuildingBlock: MIFKUJ_clean_linker_0, # of connection points: 2
#     Edge 30, Type (0, 1), BuildingBlock: MIFKUJ_clean_linker_0, # of connection points: 2
#     Edge 31, Type (0, 1), BuildingBlock: MIFKUJ_clean_linker_0, # of connection points: 2
#     Edge 32, Type (0, 1), BuildingBlock: MIFKUJ_clean_linker_0, # of connection points: 2
#     Edge 33, Type (0, 1), BuildingBlock: MIFKUJ_clean_linker_0, # of connection points: 2
#     Edge 34, Type (0, 1), BuildingBlock: MIFKUJ_clean_linker_0, # of connection points: 2
#     Edge 35, Type (0, 1), BuildingBlock: MIFKUJ_clean_linker_0, # of connection points: 2
#     Edge 36, Type (0, 1), BuildingBlock: MIFKUJ_clean_linker_0, # of connection points: 2
#     Edge 37, Type (0, 1), BuildingBlock: MIFKUJ_clean_linker_0, # of connection points: 2
# Relax obj value: 0.010
# Max RMSD: 0.122
# Mean RMSD: 0.061
data_MOF--net-pto--node1-KOZSID_clean_sbu_0--node2-BETDAH_clean_linker_0--edge1-MIFKUJ_clean_linker_0
_symmetry_space_group_name_H-M    P1
_symmetry_Int_Tables_number       1
_symmetry_cell_setting            triclinic
loop_
_symmetry_equiv_pos_as_xyz
'x, y, z'
_cell_length_a     49.129552
_cell_length_b     63.991808
_cell_length_c     57.415139
_cell_angle_alpha  102.63439
_cell_angle_beta   94.362142
_cell_angle_gamma 102.65944
loop_
_atom_site_label
_atom_site_type_symbol
_atom_site_fract_x
_atom_site_fract_y
_atom_site_fract_z
_atom_type_partial_charge
H0 H 0.31584 0.2115 0.38579 0.0
H1 H 0.27869 0.26715 0.39139 0.0
H2 H 0.25591 0.22137 0.4354 0.0
C3 C 0.30206 0.22121 0.39406 0.0
C4 C 0.28638 0.21412 0.41155 0.0
C5 C 0.29935 0.24026 0.38655 0.0
C6 C 0.28066 0.25234 0.39686 0.0
C7 C 0.26496 0.24547 0.41451 0.0
C8 C 0.2679 0.22642 0.42164 0.0
N9 N 0.24611 0.25724 0.42567 0.0
C10 C 0.24047 0.27621 0.42041 0.0
H11 H 0.28437 0.73339 0.78154 0.0
H12 H 0.31834 0.78399 0.74568 0.0
H13 H 0.24566 0.7321 0.71152 0.0
C14 C 0.28365 0.74067 0.76622 0.0
C15 C 0.26242 0.73059 0.74677 0.0
C16 C 0.30388 0.75999 0.76617 0.0
C17 C 0.30284 0.76917 0.746 0.0
C18 C 0.28168 0.75904 0.72626 0.0
C19 C 0.26173 0.73987 0.72684 0.0
N20 N 0.27985 0.76714 0.70521 0.0
C21 C 0.29328 0.788 0.70303 0.0
H22 H 0.85692 0.7428 0.39688 0.0
H23 H 0.81092 0.75719 0.33764 0.0
H24 H 0.83606 0.69611 0.32812 0.0
C25 C 0.8476 0.73834 0.37822 0.0
C26 C 0.84845 0.71783 0.36365 0.0
C27 C 0.83416 0.75281 0.36912 0.0
C28 C 0.82107 0.74623 0.34505 0.0
C29 C 0.82157 0.72561 0.3304 0.0
C30 C 0.83532 0.71172 0.33979 0.0
N31 N 0.80881 0.71809 0.30607 0.0
C32 C 0.79406 0.72928 0.29351 0.0
H33 H 0.81919 0.26777 0.85755 0.0
H34 H 0.78605 0.22242 0.89964 0.0
H35 H 0.7977 0.29206 0.92807 0.0
C36 C 0.81117 0.26461 0.87384 0.0
C37 C 0.81005 0.28254 0.89262 0.0
C38 C 0.80232 0.24278 0.87594 0.0
C39 C 0.79197 0.23905 0.89717 0.0
C40 C 0.7895 0.25663 0.91561 0.0
C41 C 0.79831 0.27843 0.91327 0.0
N42 N 0.78088 0.25195 0.93727 0.0
C43 C 0.76069 0.26054 0.94912 0.0
H44 H 0.77653 0.72648 0.81204 0.0
H45 H 0.78846 0.72087 0.73778 0.0
H46 H 0.74156 0.76579 0.77133 0.0
C47 C 0.77374 0.73185 0.79556 0.0
C48 C 0.75764 0.74734 0.79432 0.0
C49 C 0.78502 0.72227 0.77534 0.0
C50 C 0.78 0.72821 0.7536 0.0
C51 C 0.76499 0.74421 0.75226 0.0
C52 C 0.75378 0.7538 0.77261 0.0
N53 N 0.76045 0.74963 0.72989 0.0
C54 C 0.76396 0.77118 0.72762 0.0
H55 H 0.7909 0.28885 0.41017 0.0
H56 H 0.8252 0.24658 0.44685 0.0
H57 H 0.74871 0.22029 0.39749 0.0
C58 C 0.7895 0.27274 0.41382 0.0
C59 C 0.76718 0.255 0.40184 0.0
C60 C 0.81045 0.26988 0.43007 0.0
C61 C 0.80894 0.2489 0.43452 0.0
C62 C 0.78619 0.23108 0.42296 0.0
C63 C 0.76564 0.23429 0.40676 0.0
N64 N 0.78306 0.20951 0.42662 0.0
C65 C 0.80092 0.20277 0.44178 0.0
H66 H 0.28316 0.24211 0.86257 0.0
H67 H 0.26391 0.30545 0.86887 0.0
H68 H 0.25834 0.2623 0.7991 0.0
C69 C 0.27632 0.25406 0.85424 0.0
C70 C 0.27038 0.24938 0.82908 0.0
C71 C 0.27435 0.27432 0.86875 0.0
C72 C 0.2654 0.28976 0.85786 0.0
C73 C 0.2593 0.28519 0.83268 0.0
C74 C 0.26227 0.26527 0.81852 0.0
N75 N 0.25131 0.30058 0.82084 0.0
C76 C 0.23701 0.31609 0.83082 0.0
H77 H 0.27943 0.75399 0.35395 0.0
H78 H 0.31436 0.77595 0.29444 0.0
H79 H 0.27076 0.70805 0.28526 0.0
C80 C 0.28338 0.7504 0.33534 0.0
C81 C 0.27346 0.72889 0.32087 0.0
C82 C 0.29806 0.76744 0.32592 0.0
C83 C 0.3032 0.76281 0.30178 0.0
C84 C 0.29359 0.7412 0.28721 0.0
C85 C 0.2786 0.72452 0.29679 0.0
N86 N 0.29785 0.73559 0.26268 0.0
C87 C 0.31819 0.74783 0.25218 0.0
C88 C 0.10706 0.54874 0.42677 0.0
C89 C 0.12514 0.56341 0.44606 0.0
C90 C 0.11664 0.55775 0.46639 0.0
C91 C 0.09406 0.53996 0.45838 0.0
N92 N 0.08775 0.53375 0.43413 0.0
Co93 Co 0.05645 0.5088 0.41489 0.0
N94 N 0.04259 0.50161 0.44491 0.0
C95 C 0.05299 0.51249 0.46792 0.0
C96 C 0.03955 0.50339 0.48471 0.0
C97 C 0.01952 0.48548 0.47167 0.0
C98 C 0.02194 0.48471 0.44759 0.0
N99 N 0.02549 0.48353 0.39566 0.0
C100 C 0.00687 0.46812 0.40306 0.0
C101 C 0.98957 0.45279 0.38377 0.0
C102 C 0.99787 0.45848 0.36341 0.0
C103 C 0.01964 0.47687 0.37139 0.0
N104 N 0.06995 0.51625 0.38487 0.0
C105 C 0.05864 0.50604 0.36185 0.0
C106 C 0.07145 0.51556 0.34508 0.0
C107 C 0.092 0.53308 0.35811 0.0
C108 C 0.09063 0.53315 0.38221 0.0
N109 N 0.08147 0.48817 0.41451 0.0
C110 C 0.11367 0.45656 0.41415 0.0
C111 C 0.09955 0.4583 0.39287 0.0
C112 C 0.08381 0.47408 0.39344 0.0
C113 C 0.11205 0.4714 0.43556 0.0
C114 C 0.09602 0.48695 0.43532 0.0
N115 N 0.03138 0.52944 0.41522 0.0
C116 C 0.99776 0.54368 0.39415 0.0
C117 C 0.99876 0.56064 0.41443 0.0
C118 C 0.01588 0.56138 0.43532 0.0
C119 C 0.03174 0.54568 0.43537 0.0
C120 C 0.01403 0.52843 0.39494 0.0
H121 H 0.04435 0.54719 0.45185 0.0
H122 H 0.01249 0.51618 0.37875 0.0
H123 H 0.07345 0.47437 0.3766 0.0
H124 H 0.09536 0.49757 0.45226 0.0
C125 C 0.07708 0.52985 0.47318 0.0
C126 C 0.10859 0.55016 0.4019 0.0
C127 C 0.00529 0.46693 0.42799 0.0
C128 C 0.03551 0.48787 0.35657 0.0
H129 H 0.14236 0.57705 0.4455 0.0
H130 H 0.1254 0.56599 0.48483 0.0
H131 H 0.04442 0.50867 0.50411 0.0
H132 H 0.00529 0.47393 0.47907 0.0
H133 H 0.97294 0.43875 0.38437 0.0
H134 H 0.9894 0.44997 0.34497 0.0
H135 H 0.06612 0.51062 0.32571 0.0
H136 H 0.10601 0.54471 0.35066 0.0
H137 H 0.1006 0.44752 0.37572 0.0
H138 H 0.12249 0.47068 0.45257 0.0
H139 H 0.98503 0.54247 0.37743 0.0
H140 H 0.01704 0.57399 0.45164 0.0
C141 C 0.05733 0.55675 0.82156 0.0
C142 C 0.07393 0.57488 0.83853 0.0
C143 C 0.06477 0.57377 0.86015 0.0
C144 C 0.04311 0.55521 0.85518 0.0
N145 N 0.038 0.54422 0.83171 0.0
Co146 Co 0.00703 0.51738 0.81643 0.0
N147 N 0.99383 0.5156 0.84836 0.0
C148 C 0.00522 0.52911 0.87012 0.0
C149 C 0.99274 0.52302 0.88895 0.0
C150 C 0.97245 0.50424 0.87869 0.0
C151 C 0.97367 0.50005 0.85407 0.0
N152 N 0.97542 0.49106 0.80103 0.0
C153 C 0.95641 0.47831 0.81119 0.0
C154 C 0.93775 0.46166 0.79397 0.0
C155 C 0.94558 0.46372 0.77213 0.0
C156 C 0.96836 0.4815 0.77723 0.0
N157 N 0.02091 0.51854 0.78462 0.0
C158 C 0.01035 0.50432 0.76306 0.0
C159 C 0.02453 0.50912 0.7445 0.0
C160 C 0.04536 0.52755 0.75477 0.0
C161 C 0.04253 0.53301 0.77908 0.0
N162 N 0.03198 0.49778 0.82138 0.0
C163 C 0.06589 0.46905 0.82904 0.0
C164 C 0.04707 0.46412 0.80799 0.0
C165 C 0.03056 0.47863 0.80451 0.0
C166 C 0.06776 0.48875 0.84605 0.0
C167 C 0.05066 0.50274 0.84193 0.0
N168 N 0.98202 0.53705 0.81146 0.0
C169 C 0.95294 0.55029 0.78485 0.0
C170 C 0.9485 0.56627 0.80408 0.0
C171 C 0.9608 0.56709 0.82713 0.0
C172 C 0.9774 0.55255 0.83036 0.0
C173 C 0.9694 0.5359 0.78893 0.0
H174 H 0.98634 0.55431 0.84835 0.0
H175 H 0.9718 0.52415 0.77346 0.0
H176 H 0.01672 0.47395 0.78805 0.0
H177 H 0.05276 0.51737 0.85572 0.0
C178 C 0.02766 0.54736 0.87224 0.0
C179 C 0.06032 0.55249 0.79598 0.0
C180 C 0.95607 0.48063 0.83697 0.0
C181 C 0.9856 0.48787 0.7605 0.0
H182 H 0.09077 0.5877 0.83557 0.0
H183 H 0.07287 0.58518 0.87743 0.0
H184 H 0.99806 0.53107 0.90792 0.0
H185 H 0.95862 0.49455 0.88827 0.0
H186 H 0.92074 0.44897 0.79697 0.0
H187 H 0.93646 0.45299 0.75468 0.0
H188 H 0.01983 0.50058 0.72565 0.0
H189 H 0.0606 0.53624 0.74537 0.0
H190 H 0.04525 0.44921 0.7941 0.0
H191 H 0.08195 0.4932 0.8627 0.0
H192 H 0.9442 0.54905 0.76657 0.0
H193 H 0.95759 0.57882 0.84276 0.0
C194 C 0.33981 0.98934 0.59941 0.0
C195 C 0.3653 0.98963 0.61193 0.0
C196 C 0.38291 0.00991 0.61345 0.0
C197 C 0.36732 0.02082 0.60178 0.0
N198 N 0.3412 0.00854 0.59278 0.0
Co199 Co 0.31177 0.01854 0.57584 0.0
N200 N 0.34006 0.04216 0.56778 0.0
C201 C 0.36525 0.05198 0.58095 0.0
C202 C 0.37778 0.07129 0.57538 0.0
C203 C 0.35927 0.0736 0.55751 0.0
C204 C 0.33698 0.0549 0.55221 0.0
N205 N 0.28233 0.02881 0.55928 0.0
C206 C 0.28493 0.04283 0.54457 0.0
C207 C 0.26059 0.05042 0.54242 0.0
C208 C 0.24166 0.03941 0.55465 0.0
C209 C 0.25578 0.0265 0.5645 0.0
N210 N 0.28341 0.99512 0.58409 0.0
C211 C 0.25598 0.99474 0.58472 0.0
C212 C 0.24135 0.97654 0.59131 0.0
C213 C 0.26094 0.96496 0.59538 0.0
C214 C 0.28661 0.97692 0.59126 0.0
N215 N 0.30917 0.03901 0.60598 0.0
C216 C 0.30295 0.06789 0.64836 0.0
C217 C 0.30578 0.04662 0.64852 0.0
C218 C 0.30869 0.03238 0.6271 0.0
C219 C 0.30393 0.07456 0.62677 0.0
C220 C 0.30722 0.05999 0.60591 0.0
N221 N 0.31428 0.99816 0.5459 0.0
C222 C 0.2916 0.96921 0.51124 0.0
C223 C 0.31776 0.96594 0.50536 0.0
C224 C 0.34218 0.97973 0.51969 0.0
C225 C 0.33999 0.99588 0.53974 0.0
C226 C 0.29031 0.98534 0.53163 0.0
H227 H 0.35906 0.00619 0.55063 0.0
H228 H 0.26991 0.98707 0.53624 0.0
H229 H 0.31024 0.01594 0.6276 0.0
H230 H 0.30788 0.06576 0.58967 0.0
C231 C 0.37704 0.04152 0.59681 0.0
C232 C 0.31388 0.97197 0.59703 0.0
C233 C 0.3113 0.05092 0.53501 0.0
C234 C 0.24441 0.01048 0.57662 0.0
H235 H 0.37036 0.97684 0.61983 0.0
H236 H 0.40454 0.01585 0.62186 0.0
H237 H 0.3977 0.08255 0.58358 0.0
H238 H 0.36144 0.08809 0.55039 0.0
H239 H 0.25698 0.06301 0.53355 0.0
H240 H 0.22024 0.04073 0.55618 0.0
H241 H 0.21907 0.97201 0.59263 0.0
H242 H 0.25689 0.94977 0.60132 0.0
H243 H 0.30508 0.04086 0.66491 0.0
H244 H 0.30228 0.09101 0.62599 0.0
H245 H 0.27221 0.95882 0.50071 0.0
H246 H 0.36281 0.97793 0.51556 0.0
C247 C 0.52475 0.79978 0.07657 0.0
C248 C 0.52345 0.82062 0.08914 0.0
C249 C 0.54384 0.83541 0.0823 0.0
C250 C 0.55639 0.82283 0.06603 0.0
N251 N 0.54515 0.80087 0.06193 0.0
Co252 Co 0.55711 0.77668 0.03962 0.0
N253 N 0.5887 0.79837 0.03122 0.0
C254 C 0.59653 0.82043 0.04067 0.0
C255 C 0.61867 0.83105 0.0311 0.0
C256 C 0.62524 0.81485 0.01436 0.0
C257 C 0.60663 0.7952 0.0147 0.0
N258 N 0.56835 0.75256 0.01659 0.0
C259 C 0.58758 0.75386 0.0009 0.0
C260 C 0.58784 0.73317 0.98716 0.0
C261 C 0.56761 0.71828 0.99404 0.0
C262 C 0.55626 0.73067 0.01152 0.0
N263 N 0.52619 0.75489 0.0487 0.0
C264 C 0.51964 0.73266 0.04056 0.0
C265 C 0.49801 0.722 0.05063 0.0
C266 C 0.49053 0.73835 0.06645 0.0
C267 C 0.50817 0.75812 0.06512 0.0
N268 N 0.53123 0.7795 0.01272 0.0
C269 C 0.49672 0.78295 0.97289 0.0
C270 C 0.49379 0.76296 0.97956 0.0
C271 C 0.51126 0.76156 0.99926 0.0
C272 C 0.51684 0.80129 0.98667 0.0
C273 C 0.53349 0.79928 0.00653 0.0
N274 N 0.58305 0.77385 0.06651 0.0
C275 C 0.60351 0.75118 0.08798 0.0
C276 C 0.61856 0.76977 0.10552 0.0
C277 C 0.61567 0.79045 0.10306 0.0
C278 C 0.59804 0.7921 0.0836 0.0
C279 C 0.58604 0.75357 0.06884 0.0
H280 H 0.59687 0.80834 0.08283 0.0
H281 H 0.57502 0.73872 0.05627 0.0
H282 H 0.50841 0.74571 0.00303 0.0
H283 H 0.54818 0.81395 0.01649 0.0
C284 C 0.58046 0.83097 0.05619 0.0
C285 C 0.50723 0.77946 0.08011 0.0
C286 C 0.60547 0.77425 0.9979 0.0
C287 C 0.53396 0.72231 0.0232 0.0
H288 H 0.50968 0.82471 0.10236 0.0
H289 H 0.5495 0.85317 0.08903 0.0
H290 H 0.62807 0.8486 0.03503 0.0
H291 H 0.64128 0.81737 0.00265 0.0
H292 H 0.60101 0.72929 0.97334 0.0
H293 H 0.56157 0.70057 0.98686 0.0
H294 H 0.48887 0.70442 0.04699 0.0
H295 H 0.47408 0.73599 0.07782 0.0
H296 H 0.47851 0.74829 0.96928 0.0
H297 H 0.51954 0.81719 0.98229 0.0
H298 H 0.60478 0.73476 0.08918 0.0
H299 H 0.6272 0.8054 0.11597 0.0
C300 C 0.84783 0.98024 0.63939 0.0
C301 C 0.87174 0.97863 0.65273 0.0
C302 C 0.89248 0.99687 0.65274 0.0
C303 C 0.88014 0.00852 0.63941 0.0
N304 N 0.853 0.99868 0.63093 0.0
Co305 Co 0.82735 0.00983 0.61098 0.0
N306 N 0.85945 0.03014 0.60208 0.0
C307 C 0.88599 0.03652 0.6135 0.0
C308 C 0.9036 0.05107 0.6037 0.0
C309 C 0.88705 0.0543 0.58515 0.0
C310 C 0.86014 0.04152 0.58473 0.0
N311 N 0.80159 0.021 0.59114 0.0
C312 C 0.80714 0.03305 0.57463 0.0
C313 C 0.78282 0.03779 0.56541 0.0
C314 C 0.7615 0.02869 0.57687 0.0
C315 C 0.77386 0.01889 0.59235 0.0
N316 N 0.79534 0.98967 0.62008 0.0
C317 C 0.76838 0.99113 0.61852 0.0
C318 C 0.75096 0.97483 0.62623 0.0
C319 C 0.76809 0.96243 0.63322 0.0
C320 C 0.79509 0.97193 0.62933 0.0
N321 N 0.82589 0.03306 0.63907 0.0
C322 C 0.82346 0.06626 0.67916 0.0
C323 C 0.82094 0.04448 0.68104 0.0
C324 C 0.82235 0.02819 0.66085 0.0
C325 C 0.82726 0.07107 0.65681 0.0
C326 C 0.82829 0.05427 0.63704 0.0
N327 N 0.82876 0.98656 0.58298 0.0
C328 C 0.80477 0.95609 0.55013 0.0
C329 C 0.83042 0.9513 0.5446 0.0
C330 C 0.85526 0.96501 0.55849 0.0
C331 C 0.85396 0.98239 0.5776 0.0
C332 C 0.80443 0.97383 0.56917 0.0
H333 H 0.87337 0.99228 0.58822 0.0
H334 H 0.78437 0.97695 0.57302 0.0
H335 H 0.82055 0.01162 0.66291 0.0
H336 H 0.83093 0.05852 0.62008 0.0
C337 C 0.89427 0.02643 0.63121 0.0
C338 C 0.82021 0.96482 0.6364 0.0
C339 C 0.83537 0.0426 0.56948 0.0
C340 C 0.75965 0.00542 0.60597 0.0
H341 H 0.87393 0.96568 0.66158 0.0
H342 H 0.91421 1.00071 0.66072 0.0
H343 H 0.92591 0.05815 0.60907 0.0
H344 H 0.89387 0.06518 0.57359 0.0
H345 H 0.78083 0.04732 0.55222 0.0
H346 H 0.73954 0.02888 0.57394 0.0
H347 H 0.72836 0.97179 0.62596 0.0
H348 H 0.76149 0.94814 0.64047 0.0
H349 H 0.81824 0.0401 0.69805 0.0
H350 H 0.82896 0.08764 0.6545 0.0
H351 H 0.78492 0.94593 0.54026 0.0
H352 H 0.87567 0.96238 0.55472 0.0
C353 C 0.47456 0.29838 0.19082 0.0
C354 C 0.4739 0.31848 0.20568 0.0
C355 C 0.49255 0.33432 0.19863 0.0
C356 C 0.50354 0.32303 0.18001 0.0
N357 N 0.49278 0.30093 0.17448 0.0
Co358 Co 0.50411 0.27815 0.14963 0.0
N359 N 0.5327 0.30138 0.14015 0.0
C360 C 0.538 0.3235 0.14899 0.0
C361 C 0.55859 0.3353 0.13888 0.0
C362 C 0.56686 0.31984 0.12246 0.0
C363 C 0.5507 0.2994 0.12348 0.0
N364 N 0.51604 0.25531 0.12533 0.0
C365 C 0.5361 0.25765 0.11048 0.0
C366 C 0.5377 0.23739 0.09652 0.0
C367 C 0.51807 0.22169 0.10284 0.0
C368 C 0.50562 0.23317 0.12019 0.0
N369 N 0.47501 0.25498 0.15865 0.0
C370 C 0.46804 0.23304 0.14847 0.0
C371 C 0.44727 0.2213 0.15849 0.0
C372 C 0.44069 0.23663 0.17627 0.0
C373 C 0.458 0.25689 0.17611 0.0
N374 N 0.47553 0.28084 0.12469 0.0
C375 C 0.4362 0.28481 0.08841 0.0
C376 C 0.44063 0.26423 0.08965 0.0
C377 C 0.46013 0.26263 0.10778 0.0
C378 C 0.45152 0.30333 0.10587 0.0
C379 C 0.47089 0.30099 0.12365 0.0
N380 N 0.53255 0.27549 0.17453 0.0
C381 C 0.55226 0.25317 0.1969 0.0
C382 C 0.57125 0.27188 0.21133 0.0
C383 C 0.57088 0.29238 0.20678 0.0
C384 C 0.55146 0.29381 0.18849 0.0
C385 C 0.53337 0.25532 0.17864 0.0
H386 H 0.55194 0.30993 0.18617 0.0
H387 H 0.51952 0.24043 0.16818 0.0
H388 H 0.46251 0.24649 0.10753 0.0
H389 H 0.48191 0.31579 0.13624 0.0
C390 C 0.5242 0.33264 0.16756 0.0
C391 C 0.45818 0.2773 0.19344 0.0
C392 C 0.55355 0.27863 0.10845 0.0
C393 C 0.48317 0.22374 0.13109 0.0
H394 H 0.46149 0.32136 0.22032 0.0
H395 H 0.49779 0.35194 0.20638 0.0
H396 H 0.56683 0.35301 0.14313 0.0
H397 H 0.58311 0.32324 0.11115 0.0
H398 H 0.55139 0.23428 0.08293 0.0
H399 H 0.51316 0.20403 0.0954 0.0
H400 H 0.43857 0.20363 0.1539 0.0
H401 H 0.42529 0.23323 0.18834 0.0
H402 H 0.42958 0.24937 0.07638 0.0
H403 H 0.44857 0.31962 0.10594 0.0
H404 H 0.55207 0.2369 0.19956 0.0
H405 H 0.58509 0.30736 0.21764 0.0
H406 H 0.19631 0.27754 0.39054 0.0
H407 H 0.17861 0.3101 0.38818 0.0
H408 H 0.2477 0.35116 0.44092 0.0
H409 H 0.26509 0.31841 0.44348 0.0
H410 H 0.19923 0.35993 0.45231 0.0
H411 H 0.24466 0.35323 0.38133 0.0
H412 H 0.2561 0.33428 0.34243 0.0
H413 H 0.16974 0.32058 0.3117 0.0
H414 H 0.15769 0.33918 0.35053 0.0
H415 H 0.16462 0.45988 0.43982 0.0
H416 H 0.18969 0.43078 0.43989 0.0
H417 H 0.12336 0.38464 0.38828 0.0
H418 H 0.09816 0.41354 0.38819 0.0
H419 H 0.17406 0.38038 0.37643 0.0
H420 H 0.12822 0.38465 0.44803 0.0
H421 H 0.11648 0.40334 0.48693 0.0
H422 H 0.20373 0.42148 0.5164 0.0
H423 H 0.21603 0.40313 0.47754 0.0
C424 C 0.2079 0.29361 0.40127 0.0
C425 C 0.23209 0.29569 0.41701 0.0
C426 C 0.19785 0.3122 0.39991 0.0
C427 C 0.21195 0.33317 0.41421 0.0
C428 C 0.23649 0.3352 0.42968 0.0
C429 C 0.24651 0.31657 0.43104 0.0
C430 C 0.20019 0.35268 0.41397 0.0
C431 C 0.19423 0.36465 0.43576 0.0
C432 C 0.19304 0.35858 0.39233 0.0
C433 C 0.20023 0.34745 0.36891 0.0
C434 C 0.22806 0.34604 0.36633 0.0
C435 C 0.23467 0.33538 0.34429 0.0
C436 C 0.21365 0.32619 0.32463 0.0
C437 C 0.186 0.32769 0.32696 0.0
C438 C 0.17927 0.33831 0.34897 0.0
C439 C 0.15528 0.44351 0.4286 0.0
C440 C 0.12934 0.43907 0.41402 0.0
C441 C 0.16967 0.42689 0.42861 0.0
C442 C 0.15831 0.40545 0.41423 0.0
C443 C 0.13262 0.40106 0.39945 0.0
C444 C 0.11826 0.41765 0.39938 0.0
C445 C 0.1729 0.38746 0.41473 0.0
C446 C 0.17933 0.37577 0.39299 0.0
C447 C 0.18046 0.38179 0.43641 0.0
C448 C 0.17308 0.39272 0.45981 0.0
C449 C 0.14493 0.39277 0.46275 0.0
C450 C 0.13816 0.40327 0.4848 0.0
C451 C 0.15935 0.41364 0.5041 0.0
C452 C 0.18734 0.41347 0.50142 0.0
C453 C 0.19422 0.403 0.4794 0.0
H454 H 0.15408 0.42177 0.52116 0.0
H455 H 0.21881 0.31795 0.30757 0.0
H456 H 0.27058 0.69403 0.76084 0.0
H457 H 0.23476 0.66234 0.76503 0.0
H458 H 0.16964 0.69013 0.73874 0.0
H459 H 0.20543 0.72212 0.73491 0.0
H460 H 0.15847 0.67675 0.77953 0.0
H461 H 0.185 0.64595 0.7036 0.0
H462 H 0.21758 0.63622 0.67479 0.0
H463 H 0.24575 0.59632 0.71814 0.0
H464 H 0.21361 0.60607 0.74743 0.0
H465 H 0.04812 0.58254 0.77266 0.0
H466 H 0.08141 0.61132 0.76003 0.0
H467 H 0.15066 0.58791 0.78682 0.0
H468 H 0.11724 0.55902 0.79925 0.0
H469 H 0.15801 0.59875 0.74339 0.0
H470 H 0.13354 0.63109 0.82022 0.0
H471 H 0.10073 0.64038 0.84899 0.0
H472 H 0.06901 0.6775 0.804 0.0
H473 H 0.10129 0.66808 0.7747 0.0
C474 C 0.24863 0.69336 0.7559 0.0
C475 C 0.2408 0.71059 0.74761 0.0
C476 C 0.2282 0.67517 0.75812 0.0
C477 C 0.19953 0.6738 0.75204 0.0
C478 C 0.19165 0.69083 0.74347 0.0
C479 C 0.21211 0.70901 0.74113 0.0
C480 C 0.17781 0.65508 0.75572 0.0
C481 C 0.15805 0.65971 0.77127 0.0
C482 C 0.17771 0.63283 0.74541 0.0
C483 C 0.19706 0.62691 0.72783 0.0
C484 C 0.19831 0.63525 0.70711 0.0
C485 C 0.21667 0.6297 0.69066 0.0
C486 C 0.23378 0.61571 0.69466 0.0
C487 C 0.23251 0.60718 0.71508 0.0
C488 C 0.2142 0.6127 0.7316 0.0
C489 C 0.07046 0.58351 0.77557 0.0
C490 C 0.08036 0.56884 0.78695 0.0
C491 C 0.08941 0.5999 0.76844 0.0
C492 C 0.11852 0.60188 0.77272 0.0
C493 C 0.1283 0.58666 0.78336 0.0
C494 C 0.10933 0.57028 0.79051 0.0
C495 C 0.1388 0.62047 0.76722 0.0
C496 C 0.15832 0.61581 0.75144 0.0
C497 C 0.13875 0.64271 0.77736 0.0
C498 C 0.11963 0.64869 0.79514 0.0
C499 C 0.11943 0.6411 0.81636 0.0
C500 C 0.10094 0.6464 0.83278 0.0
C501 C 0.08275 0.65948 0.8283 0.0
C502 C 0.08308 0.66734 0.80742 0.0
C503 C 0.10147 0.66203 0.7909 0.0
H504 H 0.06845 0.66357 0.84103 0.0
H505 H 0.24797 0.61142 0.6819 0.0
H506 H 0.83141 0.6729 0.35623 0.0
H507 H 0.85724 0.64805 0.36922 0.0
H508 H 0.92468 0.70379 0.4059 0.0
H509 H 0.89933 0.72876 0.39219 0.0
H510 H 0.94512 0.67227 0.38024 0.0
H511 H 0.87979 0.67499 0.43739 0.0
H512 H 0.83334 0.67301 0.45149 0.0
H513 H 0.8054 0.60514 0.41241 0.0
H514 H 0.85157 0.60679 0.39777 0.0
H515 H 0.01604 0.6053 0.43363 0.0
H516 H 0.99052 0.63344 0.42972 0.0
H517 H 0.91992 0.58283 0.38847 0.0
H518 H 0.94496 0.55457 0.39287 0.0
H519 H 0.90272 0.61395 0.42025 0.0
H520 H 0.96716 0.61267 0.36074 0.0
H521 H 0.01383 0.61484 0.34698 0.0
H522 H 0.04363 0.68067 0.39148 0.0
H523 H 0.99722 0.67877 0.40576 0.0
C524 C 0.85176 0.6799 0.36702 0.0
C525 C 0.86332 0.70284 0.37308 0.0
C526 C 0.86639 0.66567 0.37467 0.0
C527 C 0.89281 0.67404 0.38877 0.0
C528 C 0.9043 0.69695 0.39511 0.0
C529 C 0.88967 0.71122 0.38742 0.0
C530 C 0.90888 0.65874 0.39594 0.0
C531 C 0.93603 0.6598 0.38941 0.0
C532 C 0.89688 0.64217 0.40751 0.0
C533 C 0.86909 0.64107 0.41633 0.0
C534 C 0.86368 0.65968 0.43165 0.0
C535 C 0.8374 0.65861 0.43976 0.0
C536 C 0.81641 0.63898 0.43281 0.0
C537 C 0.82167 0.62035 0.41776 0.0
C538 C 0.8479 0.62133 0.40958 0.0
C539 C 0.9949 0.60012 0.42406 0.0
C540 C 0.98262 0.57767 0.41343 0.0
C541 C 0.98044 0.61625 0.42167 0.0
C542 C 0.95344 0.61028 0.40852 0.0
C543 C 0.94076 0.58784 0.39861 0.0
C544 C 0.95521 0.57172 0.40097 0.0
C545 C 0.93875 0.62737 0.4043 0.0
C546 C 0.91187 0.6266 0.41133 0.0
C547 C 0.95101 0.64426 0.39326 0.0
C548 C 0.97883 0.64549 0.38451 0.0
C549 C 0.98373 0.62755 0.36772 0.0
C550 C 0.01012 0.62873 0.35981 0.0
C551 C 0.0317 0.64785 0.3684 0.0
C552 C 0.02691 0.66586 0.38487 0.0
C553 C 1.00057 0.66474 0.39287 0.0
H554 H 0.05212 0.64874 0.36226 0.0
H555 H 0.79609 0.63818 0.43911 0.0
H556 H 0.86153 0.29679 0.87968 0.0
H557 H 0.88344 0.33342 0.87504 0.0
H558 H 0.81132 0.35665 0.89761 0.0
H559 H 0.78894 0.31956 0.9021 0.0
H560 H 0.82885 0.36901 0.85613 0.0
H561 H 0.87002 0.37329 0.93533 0.0
H562 H 0.89371 0.3608 0.96726 0.0
H563 H 0.96582 0.36103 0.92942 0.0
H564 H 0.94241 0.37321 0.89706 0.0
H565 H 0.90576 0.47796 0.85462 0.0
H566 H 0.87839 0.44701 0.86855 0.0
H567 H 0.94235 0.41123 0.85246 0.0
H568 H 0.96966 0.44222 0.83878 0.0
H569 H 0.92523 0.40871 0.89587 0.0
H570 H 0.88213 0.39972 0.81477 0.0
H571 H 0.85886 0.4116 0.78211 0.0
H572 H 0.79064 0.41965 0.82302 0.0
H573 H 0.81377 0.40817 0.85613 0.0
C574 C 0.85026 0.30966 0.88364 0.0
C575 C 0.82342 0.30529 0.89109 0.0
C576 C 0.86292 0.33064 0.88116 0.0
C577 C 0.84912 0.3478 0.88616 0.0
C578 C 0.82234 0.34361 0.89373 0.0
C579 C 0.80967 0.32252 0.89641 0.0
C580 C 0.86274 0.36981 0.88266 0.0
C581 C 0.84964 0.37799 0.86522 0.0
C582 C 0.8901 0.38127 0.8942 0.0
C583 C 0.90436 0.37405 0.91369 0.0
C584 C 0.89085 0.37053 0.93372 0.0
C585 C 0.90424 0.36353 0.95192 0.0
C586 C 0.93123 0.36009 0.95035 0.0
C587 C 0.94491 0.3637 0.9306 0.0
C588 C 0.9316 0.37068 0.91235 0.0
C589 C 0.91384 0.46345 0.85421 0.0
C590 C 0.93963 0.46226 0.84576 0.0
C591 C 0.89826 0.44582 0.86206 0.0
C592 C 0.90827 0.42677 0.86143 0.0
C593 C 0.93427 0.42578 0.85318 0.0
C594 C 0.94978 0.44337 0.84531 0.0
C595 C 0.89162 0.40761 0.86894 0.0
C596 C 0.90421 0.39996 0.88711 0.0
C597 C 0.86386 0.39662 0.85801 0.0
C598 C 0.84984 0.40335 0.83805 0.0
C599 C 0.86228 0.40421 0.81689 0.0
C600 C 0.84911 0.41084 0.79829 0.0
C601 C 0.82333 0.41644 0.80052 0.0
C602 C 0.81064 0.41536 0.82134 0.0
C603 C 0.82377 0.40879 0.84003 0.0
H604 H 0.81315 0.42156 0.78609 0.0
H605 H 0.94157 0.35467 0.96445 0.0
H606 H 0.33479 0.20166 0.42238 0.0
H607 H 0.33946 0.16904 0.43647 0.0
H608 H 0.24915 0.14817 0.43213 0.0
H609 H 0.24443 0.18091 0.41836 0.0
H610 H 0.27238 0.14496 0.47301 0.0
H611 H 0.28775 0.12205 0.39093 0.0
H612 H 0.30989 0.12521 0.35432 0.0
H613 H 0.39014 0.12755 0.39146 0.0
H614 H 0.36855 0.12472 0.42841 0.0
H615 H 0.26704 0.04299 0.49782 0.0
H616 H 0.26318 0.06641 0.47029 0.0
H617 H 0.35247 0.09444 0.48524 0.0
H618 H 0.35638 0.0707 0.51242 0.0
H619 H 0.32891 0.09325 0.43809 0.0
H620 H 0.31389 0.11925 0.52059 0.0
H621 H 0.29173 0.11507 0.55697 0.0
H622 H 0.21028 0.10663 0.51815 0.0
H623 H 0.23195 0.11034 0.48139 0.0
C624 C 0.31593 0.18998 0.42416 0.0
C625 C 0.28924 0.19389 0.41929 0.0
C626 C 0.31861 0.17128 0.43216 0.0
C627 C 0.29464 0.15594 0.43511 0.0
C628 C 0.26797 0.15974 0.43002 0.0
C629 C 0.26529 0.1785 0.42222 0.0
C630 C 0.29736 0.13655 0.44468 0.0
C631 C 0.28433 0.13347 0.46502 0.0
C632 C 0.31353 0.12178 0.43473 0.0
C633 C 0.32656 0.12337 0.41251 0.0
C634 C 0.31015 0.1234 0.39135 0.0
C635 C 0.3226 0.12511 0.37052 0.0
C636 C 0.35142 0.12663 0.37058 0.0
C637 C 0.36783 0.12639 0.39145 0.0
C638 C 0.35549 0.12472 0.41233 0.0
C639 C 0.28576 0.0549 0.49639 0.0
C640 C 0.31109 0.05858 0.51173 0.0
C641 C 0.2836 0.06774 0.47985 0.0
C642 C 0.30719 0.08348 0.47723 0.0
C643 C 0.33362 0.08343 0.4882 0.0
C644 C 0.33561 0.07052 0.50477 0.0
C645 C 0.30367 0.10172 0.46606 0.0
C646 C 0.31671 0.10467 0.44572 0.0
C647 C 0.2875 0.11644 0.47594 0.0
C648 C 0.2745 0.11487 0.4982 0.0
C649 C 0.29124 0.1164 0.51979 0.0
C650 C 0.27878 0.11412 0.54047 0.0
C651 C 0.24961 0.11057 0.53986 0.0
C652 C 0.23287 0.10936 0.51858 0.0
C653 C 0.24523 0.11155 0.49782 0.0
H654 H 0.23999 0.10876 0.55588 0.0
H655 H 0.36102 0.12795 0.35444 0.0
H656 H 0.29746 0.766 0.81375 0.0
H657 H 0.33406 0.77581 0.84789 0.0
H658 H 0.39752 0.78692 0.80096 0.0
H659 H 0.36066 0.77579 0.76624 0.0
H660 H 0.41191 0.76314 0.82834 0.0
H661 H 0.38351 0.83023 0.84471 0.0
H662 H 0.35113 0.85489 0.8499 0.0
H663 H 0.32151 0.82936 0.909 0.0
H664 H 0.35341 0.8043 0.90396 0.0
H665 H 0.51397 0.80029 0.93551 0.0
H666 H 0.48465 0.80192 0.89963 0.0
H667 H 0.41042 0.77125 0.92658 0.0
H668 H 0.43965 0.76924 0.96224 0.0
H669 H 0.40732 0.8104 0.90822 0.0
H670 H 0.43314 0.74003 0.8866 0.0
H671 H 0.46728 0.71684 0.8811 0.0
H672 H 0.50462 0.75196 0.83118 0.0
H673 H 0.47093 0.77558 0.83668 0.0
C674 C 0.31919 0.77066 0.81065 0.0
C675 C 0.32614 0.76985 0.78721 0.0
C676 C 0.34017 0.77658 0.8303 0.0
C677 C 0.36868 0.78237 0.82716 0.0
C678 C 0.37569 0.78256 0.80389 0.0
C679 C 0.35461 0.7764 0.78408 0.0
C680 C 0.39084 0.78631 0.84793 0.0
C681 C 0.41126 0.77392 0.84563 0.0
C682 C 0.39 0.80018 0.87067 0.0
C683 C 0.37078 0.81528 0.87386 0.0
C684 C 0.36996 0.82976 0.85872 0.0
C685 C 0.3517 0.84383 0.86165 0.0
C686 C 0.33425 0.84367 0.87975 0.0
C687 C 0.33505 0.82947 0.89499 0.0
C688 C 0.35325 0.81535 0.89213 0.0
C689 C 0.49137 0.79403 0.9338 0.0
C690 C 0.47902 0.7846 0.95158 0.0
C691 C 0.47471 0.79492 0.91332 0.0
C692 C 0.44542 0.78671 0.91051 0.0
C693 C 0.433 0.77772 0.92848 0.0
C694 C 0.44968 0.77646 0.94873 0.0
C695 C 0.42763 0.78688 0.88855 0.0
C696 C 0.40813 0.80001 0.89073 0.0
C697 C 0.42961 0.77401 0.86565 0.0
C698 C 0.44976 0.75975 0.86229 0.0
C699 C 0.44881 0.74295 0.87464 0.0
C700 C 0.46804 0.72969 0.87148 0.0
C701 C 0.48817 0.73297 0.85587 0.0
C702 C 0.48906 0.74947 0.84332 0.0
C703 C 0.4699 0.76279 0.84644 0.0
H704 H 0.50304 0.72269 0.85344 0.0
H705 H 0.32013 0.85458 0.88198 0.0
H706 H 0.87625 0.78071 0.40322 0.0
H707 H 0.87447 0.81483 0.43139 0.0
H708 H 0.79048 0.80936 0.39874 0.0
H709 H 0.79146 0.77457 0.37102 0.0
H710 H 0.8292 0.85356 0.40903 0.0
H711 H 0.79399 0.79488 0.44744 0.0
H712 H 0.79596 0.76154 0.46173 0.0
H713 H 0.8731 0.79638 0.50741 0.0
H714 H 0.87181 0.82986 0.49309 0.0
H715 H 0.79563 0.93402 0.50149 0.0
H716 H 0.7955 0.90107 0.47068 0.0
H717 H 0.86772 0.89211 0.51146 0.0
H718 H 0.86669 0.92401 0.5432 0.0
H719 H 0.83332 0.85459 0.49591 0.0
H720 H 0.87084 0.9126 0.45841 0.0
H721 H 0.87223 0.94621 0.44372 0.0
H722 H 0.79556 0.91382 0.39633 0.0
H723 H 0.79352 0.88009 0.41098 0.0
C724 C 0.85723 0.78656 0.40208 0.0
C725 C 0.83383 0.77461 0.38498 0.0
C726 C 0.85638 0.8062 0.4181 0.0
C727 C 0.83228 0.8145 0.41724 0.0
C728 C 0.8093 0.80321 0.39964 0.0
C729 C 0.80997 0.78336 0.38375 0.0
C730 C 0.83083 0.83449 0.43543 0.0
C731 C 0.82969 0.85379 0.42801 0.0
C732 C 0.83228 0.83485 0.4602 0.0
C733 C 0.83294 0.81481 0.46902 0.0
C734 C 0.81149 0.79538 0.46038 0.0
C735 C 0.81247 0.77647 0.46851 0.0
C736 C 0.83468 0.77683 0.48542 0.0
C737 C 0.85593 0.79612 0.49429 0.0
C738 C 0.85507 0.81508 0.48619 0.0
C739 C 0.81134 0.92495 0.50411 0.0
C740 C 0.83118 0.93184 0.52499 0.0
C741 C 0.8115 0.90623 0.48621 0.0
C742 C 0.83188 0.89419 0.48847 0.0
C743 C 0.85181 0.9011 0.50919 0.0
C744 C 0.85141 0.9196 0.52725 0.0
C745 C 0.83196 0.87401 0.4697 0.0
C746 C 0.8328 0.85455 0.47698 0.0
C747 C 0.83069 0.87365 0.44484 0.0
C748 C 0.83187 0.89389 0.43598 0.0
C749 C 0.85416 0.9127 0.44499 0.0
C750 C 0.85508 0.93176 0.43665 0.0
C751 C 0.83396 0.93217 0.41915 0.0
C752 C 0.81189 0.91349 0.40991 0.0
C753 C 0.81085 0.89439 0.41821 0.0
H754 H 0.83471 0.94695 0.41271 0.0
H755 H 0.8354 0.76217 0.49169 0.0
H756 H 0.71871 0.23063 0.95849 0.0
H757 H 0.68202 0.23739 0.98361 0.0
H758 H 0.71549 0.30766 0.99536 0.0
H759 H 0.75279 0.30074 0.97043 0.0
H760 H 0.70456 0.29753 0.03649 0.0
H761 H 0.65297 0.28132 0.95862 0.0
H762 H 0.63559 0.26054 0.9167 0.0
H763 H 0.59507 0.20435 0.94143 0.0
H764 H 0.61253 0.22469 0.9835 0.0
H765 H 0.5499 0.29108 0.06616 0.0
H766 H 0.58431 0.29191 0.03724 0.0
H767 H 0.63743 0.26704 0.08232 0.0
H768 H 0.60323 0.26662 0.11134 0.0
H769 H 0.60362 0.26026 0.01068 0.0
H770 H 0.7059 0.28888 0.07906 0.0
H771 H 0.72231 0.31203 0.12022 0.0
H772 H 0.65994 0.34859 0.11264 0.0
H773 H 0.64347 0.32592 0.07131 0.0
C774 C 0.71797 0.2475 0.96626 0.0
C775 C 0.73821 0.2652 0.96255 0.0
C776 C 0.69698 0.25137 0.98051 0.0
C777 C 0.69569 0.27304 0.99112 0.0
C778 C 0.71598 0.29081 0.98727 0.0
C779 C 0.73714 0.2869 0.97301 0.0
C780 C 0.67386 0.27689 0.00703 0.0
C781 C 0.68247 0.2895 0.03079 0.0
C782 C 0.64492 0.26678 0.99951 0.0
C783 C 0.63421 0.2545 0.97422 0.0
C784 C 0.6405 0.26449 0.95512 0.0
C785 C 0.63061 0.25279 0.93132 0.0
C786 C 0.61427 0.23113 0.9264 0.0
C787 C 0.60773 0.22113 0.94527 0.0
C788 C 0.61758 0.23275 0.9691 0.0
C789 C 0.56902 0.28588 0.06979 0.0
C790 C 0.57418 0.27887 0.09085 0.0
C791 C 0.58857 0.28629 0.05331 0.0
C792 C 0.61361 0.27979 0.05773 0.0
C793 C 0.61852 0.2725 0.07872 0.0
C794 C 0.599 0.27215 0.0952 0.0
C795 C 0.63448 0.28029 0.0403 0.0
C796 C 0.62567 0.26848 0.01629 0.0
C797 C 0.66313 0.29151 0.04746 0.0
C798 C 0.67331 0.30556 0.07214 0.0
C799 C 0.6958 0.30194 0.08612 0.0
C800 C 0.7051 0.31497 0.10949 0.0
C801 C 0.69213 0.33173 0.11906 0.0
C802 C 0.66991 0.33556 0.10524 0.0
C803 C 0.66058 0.32262 0.08184 0.0
H804 H 0.69933 0.34177 0.13717 0.0
H805 H 0.60664 0.2221 0.90797 0.0
H806 H 0.28863 0.82837 0.72621 0.0
H807 H 0.29713 0.86172 0.71055 0.0
H808 H 0.32617 0.82648 0.64809 0.0
H809 H 0.31816 0.79337 0.66402 0.0
H810 H 0.3565 0.86865 0.66166 0.0
H811 H 0.25839 0.83105 0.6464 0.0
H812 H 0.21241 0.81421 0.65715 0.0
H813 H 0.2104 0.87641 0.70313 0.0
H814 H 0.25658 0.89355 0.69289 0.0
H815 H 0.32845 0.93331 0.57925 0.0
H816 H 0.32936 0.90318 0.59941 0.0
H817 H 0.30264 0.94019 0.66208 0.0
H818 H 0.30171 0.97012 0.6419 0.0
H819 H 0.27233 0.89786 0.64928 0.0
H820 H 0.36981 0.93596 0.6621 0.0
H821 H 0.41502 0.95243 0.64984 0.0
H822 H 0.41775 0.88902 0.60709 0.0
H823 H 0.37227 0.87222 0.61877 0.0
C824 C 0.29753 0.82804 0.70947 0.0
C825 C 0.30295 0.80855 0.6963 0.0
C826 C 0.30217 0.84697 0.70043 0.0
C827 C 0.31186 0.84651 0.67792 0.0
C828 C 0.3187 0.82727 0.66545 0.0
C829 C 0.31415 0.80839 0.67455 0.0
C830 C 0.31284 0.86537 0.6665 0.0
C831 C 0.33805 0.87493 0.65878 0.0
C832 C 0.28886 0.87377 0.66295 0.0
C833 C 0.26107 0.86351 0.66909 0.0
C834 C 0.24824 0.84109 0.65894 0.0
C835 C 0.22213 0.8315 0.66492 0.0
C836 C 0.20853 0.84422 0.68087 0.0
C837 C 0.22099 0.86657 0.69082 0.0
C838 C 0.24712 0.87624 0.68493 0.0
C839 C 0.32281 0.93486 0.59731 0.0
C840 C 0.31466 0.95372 0.609 0.0
C841 C 0.32345 0.91779 0.60886 0.0
C842 C 0.31615 0.91947 0.63231 0.0
C843 C 0.30825 0.93848 0.64399 0.0
C844 C 0.3077 0.95552 0.6325 0.0
C845 C 0.316 0.90124 0.64455 0.0
C846 C 0.29087 0.89171 0.65231 0.0
C847 C 0.34 0.89285 0.64799 0.0
C848 C 0.36749 0.90287 0.64114 0.0
C849 C 0.37994 0.92555 0.64993 0.0
C850 C 0.40563 0.93495 0.64311 0.0
C851 C 0.41922 0.92179 0.62765 0.0
C852 C 0.40718 0.8992 0.61904 0.0
C853 C 0.38145 0.88973 0.62577 0.0
H854 H 0.43912 0.92909 0.62239 0.0
H855 H 0.18831 0.83676 0.68547 0.0
H856 H 0.76388 0.7605 0.30254 0.0
H857 H 0.73487 0.77119 0.27231 0.0
H858 H 0.75906 0.72486 0.21581 0.0
H859 H 0.78826 0.71467 0.24585 0.0
H860 H 0.76009 0.76178 0.20261 0.0
H861 H 0.69461 0.7133 0.2376 0.0
H862 H 0.67138 0.70128 0.27067 0.0
H863 H 0.64367 0.76135 0.28785 0.0
H864 H 0.66707 0.77385 0.25505 0.0
H865 H 0.65415 0.7422 0.10494 0.0
H866 H 0.68456 0.7386 0.1388 0.0
H867 H 0.65611 0.78908 0.18658 0.0
H868 H 0.62499 0.79236 0.15286 0.0
H869 H 0.65797 0.75443 0.20635 0.0
H870 H 0.72026 0.80105 0.16829 0.0
H871 H 0.74267 0.81194 0.13434 0.0
H872 H 0.77593 0.75433 0.12225 0.0
H873 H 0.75337 0.74292 0.15592 0.0
C874 C 0.76307 0.75286 0.28361 0.0
C875 C 0.77816 0.73687 0.2763 0.0
C876 C 0.74643 0.75882 0.26639 0.0
C877 C 0.74454 0.74866 0.24175 0.0
C878 C 0.76019 0.73298 0.23464 0.0
C879 C 0.77681 0.72713 0.25177 0.0
C880 C 0.72602 0.75387 0.22318 0.0
C881 C 0.73772 0.76002 0.20338 0.0
C882 C 0.69693 0.75212 0.22438 0.0
C883 C 0.68287 0.74462 0.24408 0.0
C884 C 0.68376 0.72402 0.24856 0.0
C885 C 0.67053 0.71711 0.26723 0.0
C886 C 0.65614 0.73058 0.28141 0.0
C887 C 0.65488 0.75096 0.27689 0.0
C888 C 0.66811 0.75796 0.25826 0.0
C889 C 0.65416 0.75242 0.12267 0.0
C890 C 0.63717 0.76762 0.12615 0.0
C891 C 0.67177 0.75049 0.14199 0.0
C892 C 0.67291 0.76378 0.16519 0.0
C893 C 0.6557 0.77875 0.16882 0.0
C894 C 0.6381 0.78072 0.14948 0.0
C895 C 0.69198 0.7619 0.18562 0.0
C896 C 0.68039 0.75642 0.20574 0.0
C897 C 0.72115 0.76414 0.18467 0.0
C898 C 0.73494 0.77105 0.16452 0.0
C899 C 0.73219 0.79063 0.15829 0.0
C900 C 0.74494 0.7969 0.13911 0.0
C901 C 0.76067 0.78381 0.12612 0.0
C902 C 0.76373 0.76445 0.13232 0.0
C903 C 0.75099 0.75808 0.15147 0.0
H904 H 0.77051 0.7887 0.11127 0.0
H905 H 0.6459 0.72519 0.29585 0.0
H906 H 0.84491 0.24062 0.84793 0.0
H907 H 0.84803 0.2102 0.81495 0.0
H908 H 0.76899 0.17164 0.82692 0.0
H909 H 0.7652 0.20226 0.85954 0.0
H910 H 0.81111 0.14799 0.82074 0.0
H911 H 0.76917 0.19464 0.78149 0.0
H912 H 0.76602 0.22984 0.77194 0.0
H913 H 0.84505 0.23467 0.74376 0.0
H914 H 0.84887 0.19963 0.75348 0.0
H915 H 0.78587 0.06444 0.71183 0.0
H916 H 0.78257 0.09389 0.74595 0.0
H917 H 0.85443 0.1372 0.72842 0.0
H918 H 0.85747 0.1079 0.69403 0.0
H919 H 0.81543 0.15845 0.73785 0.0
H920 H 0.85857 0.11277 0.77688 0.0
H921 H 0.86361 0.07824 0.78715 0.0
H922 H 0.7852 0.07216 0.81645 0.0
H923 H 0.77949 0.10652 0.80604 0.0
C924 C 0.82797 0.2258 0.8434 0.0
C925 C 0.80465 0.224 0.85629 0.0
C926 C 0.8299 0.20838 0.82463 0.0
C927 C 0.80863 0.18876 0.81841 0.0
C928 C 0.78564 0.18666 0.83151 0.0
C929 C 0.78357 0.20415 0.85019 0.0
C930 C 0.81029 0.17056 0.79801 0.0
C931 C 0.81168 0.15013 0.80253 0.0
C932 C 0.81178 0.17362 0.77444 0.0
C933 C 0.80943 0.19462 0.76843 0.0
C934 C 0.78599 0.20329 0.77344 0.0
C935 C 0.78406 0.2232 0.76796 0.0
C936 C 0.80536 0.23451 0.7573 0.0
C937 C 0.82859 0.2259 0.75204 0.0
C938 C 0.83063 0.20601 0.75751 0.0
C939 C 0.80112 0.08018 0.71542 0.0
C940 C 0.82195 0.08387 0.7003 0.0
C941 C 0.79924 0.097 0.73493 0.0
C942 C 0.81846 0.11771 0.73995 0.0
C943 C 0.83934 0.12138 0.72489 0.0
C944 C 0.84104 0.10465 0.70525 0.0
C945 C 0.8164 0.13575 0.76049 0.0
C946 C 0.8149 0.15621 0.75602 0.0
C947 C 0.81509 0.13276 0.78415 0.0
C948 C 0.81847 0.1121 0.79046 0.0
C949 C 0.84229 0.10398 0.78534 0.0
C950 C 0.84529 0.08445 0.79122 0.0
C951 C 0.8247 0.07298 0.80239 0.0
C952 C 0.80111 0.08105 0.80776 0.0
C953 C 0.79799 0.10056 0.8019 0.0
H954 H 0.82706 0.05787 0.80693 0.0
H955 H 0.80383 0.24992 0.75308 0.0
H956 H 0.35466 0.24122 0.38234 0.0
H957 H 0.38107 0.25049 0.35013 0.0
H958 H 0.30819 0.26474 0.31612 0.0
H959 H 0.28133 0.25484 0.34801 0.0
H960 H 0.33186 0.23933 0.28398 0.0
H961 H 0.36408 0.30631 0.34524 0.0
H962 H 0.38371 0.32945 0.38584 0.0
H963 H 0.45994 0.30732 0.38044 0.0
H964 H 0.44061 0.28378 0.33993 0.0
H965 H 0.40633 0.28501 0.19802 0.0
H966 H 0.37899 0.28177 0.23175 0.0
H967 H 0.44703 0.26402 0.26882 0.0
H968 H 0.47432 0.2674 0.2351 0.0
H969 H 0.42457 0.29333 0.29923 0.0
H970 H 0.39142 0.22506 0.23902 0.0
H971 H 0.37214 0.20211 0.19827 0.0
H972 H 0.29762 0.22676 0.20185 0.0
H973 H 0.3167 0.2502 0.24248 0.0
C974 C 0.34422 0.24629 0.36799 0.0
C975 C 0.31586 0.24724 0.36771 0.0
C976 C 0.35943 0.25179 0.3497 0.0
C977 C 0.34669 0.25852 0.33082 0.0
C978 C 0.31846 0.25966 0.33056 0.0
C979 C 0.30321 0.25417 0.34889 0.0
C980 C 0.36261 0.26352 0.31091 0.0
C981 C 0.35188 0.25143 0.28728 0.0
C982 C 0.38905 0.27896 0.31526 0.0
C983 C 0.40078 0.29313 0.33962 0.0
C984 C 0.38494 0.30623 0.35278 0.0
C985 C 0.39604 0.31945 0.37577 0.0
C986 C 0.42303 0.31982 0.38573 0.0
C987 C 0.43902 0.307 0.37271 0.0
C988 C 0.42802 0.29374 0.34972 0.0
C989 C 0.41536 0.28058 0.21351 0.0
C990 C 0.44222 0.27642 0.21421 0.0
C991 C 0.39981 0.27868 0.23267 0.0
C992 C 0.41091 0.27249 0.2527 0.0
C993 C 0.4381 0.26885 0.25357 0.0
C994 C 0.4536 0.2707 0.23438 0.0
C995 C 0.39386 0.26906 0.2724 0.0
C996 C 0.40442 0.28139 0.29597 0.0
C997 C 0.36727 0.25384 0.268 0.0
C998 C 0.35562 0.23956 0.24369 0.0
C999 C 0.37101 0.22572 0.23105 0.0
C1000 C 0.36012 0.21261 0.20798 0.0
C1001 C 0.3337 0.21301 0.19746 0.0
C1002 C 0.3181 0.22649 0.21001 0.0
C1003 C 0.32894 0.2397 0.23306 0.0
H1004 H 0.32529 0.20284 0.1796 0.0
H1005 H 0.43158 0.33006 0.40353 0.0
H1006 H 0.828 0.72564 0.80994 0.0
H1007 H 0.85574 0.69862 0.81286 0.0
H1008 H 0.80782 0.65508 0.74748 0.0
H1009 H 0.77995 0.68209 0.74446 0.0
H1010 H 0.81439 0.63422 0.78559 0.0
H1011 H 0.87096 0.68168 0.74416 0.0
H1012 H 0.89653 0.71738 0.73807 0.0
H1013 H 0.95013 0.72944 0.80466 0.0
H1014 H 0.92459 0.69394 0.81134 0.0
H1015 H 0.90119 0.5586 0.7716 0.0
H1016 H 0.87393 0.58476 0.76477 0.0
H1017 H 0.92867 0.63554 0.82153 0.0
H1018 H 0.95722 0.60993 0.82737 0.0
H1019 H 0.91793 0.65234 0.78582 0.0
H1020 H 0.86123 0.60679 0.82898 0.0
H1021 H 0.83552 0.57189 0.83688 0.0
H1022 H 0.78212 0.55715 0.76969 0.0
H1023 H 0.80777 0.59183 0.76124 0.0
C1024 C 0.82336 0.71028 0.79623 0.0
C1025 C 0.80188 0.70594 0.77696 0.0
C1026 C 0.83929 0.69494 0.79784 0.0
C1027 C 0.83391 0.67495 0.78029 0.0
C1028 C 0.8123 0.67046 0.76115 0.0
C1029 C 0.79655 0.68591 0.75937 0.0
C1030 C 0.85069 0.65866 0.78216 0.0
C1031 C 0.83698 0.638 0.78527 0.0
C1032 C 0.88021 0.66391 0.78238 0.0
C1033 C 0.89568 0.68524 0.77836 0.0
C1034 C 0.88804 0.69203 0.75761 0.0
C1035 C 0.90256 0.71221 0.75403 0.0
C1036 C 0.92489 0.7257 0.771 0.0
C1037 C 0.9328 0.71899 0.79155 0.0
C1038 C 0.91832 0.69883 0.79523 0.0
C1039 C 0.90772 0.5754 0.78244 0.0
C1040 C 0.93142 0.58206 0.80013 0.0
C1041 C 0.89184 0.59028 0.77871 0.0
C1042 C 0.89892 0.61204 0.79292 0.0
C1043 C 0.92268 0.61881 0.81042 0.0
C1044 C 0.9388 0.60403 0.81394 0.0
C1045 C 0.88173 0.62783 0.7895 0.0
C1046 C 0.89534 0.64844 0.78607 0.0
C1047 C 0.85213 0.62262 0.78928 0.0
C1048 C 0.83661 0.6018 0.79437 0.0
C1049 C 0.84414 0.59602 0.81581 0.0
C1050 C 0.82955 0.5763 0.8204 0.0
C1051 C 0.80725 0.56228 0.80377 0.0
C1052 C 0.79943 0.568 0.78254 0.0
C1053 C 0.81397 0.5877 0.77785 0.0
H1054 H 0.79598 0.54702 0.80736 0.0
H1055 H 0.93611 0.74132 0.76819 0.0
H1056 H 0.8081 0.31042 0.45538 0.0
H1057 H 0.84516 0.34443 0.46263 0.0
H1058 H 0.90356 0.30678 0.43505 0.0
H1059 H 0.8664 0.27256 0.42789 0.0
H1060 H 0.92886 0.34653 0.473 0.0
H1061 H 0.86949 0.32285 0.39652 0.0
H1062 H 0.82342 0.30963 0.37119 0.0
H1063 H 0.80032 0.3692 0.40391 0.0
H1064 H 0.84612 0.3826 0.42979 0.0
H1065 H 0.01661 0.4268 0.42444 0.0
H1066 H 0.98596 0.3934 0.43128 0.0
H1067 H 0.92287 0.42946 0.44994 0.0
H1068 H 0.95354 0.46277 0.44285 0.0
H1069 H 0.9005 0.39054 0.41829 0.0
H1070 H 0.96163 0.41555 0.49296 0.0
H1071 H 0.00729 0.42821 0.5189 0.0
H1072 H 0.02744 0.36651 0.48986 0.0
H1073 H 0.98204 0.35358 0.46344 0.0
C1074 C 0.82912 0.30936 0.45169 0.0
C1075 C 0.83441 0.28897 0.44086 0.0
C1076 C 0.85024 0.32876 0.45581 0.0
C1077 C 0.87691 0.32811 0.44896 0.0
C1078 C 0.88309 0.30759 0.44044 0.0
C1079 C 0.8619 0.28808 0.43639 0.0
C1080 C 0.89637 0.34872 0.44696 0.0
C1081 C 0.92287 0.3561 0.46091 0.0
C1082 C 0.88828 0.36128 0.43138 0.0
C1083 C 0.86112 0.35363 0.41525 0.0
C1084 C 0.85453 0.33307 0.39841 0.0
C1085 C 0.82846 0.32554 0.38396 0.0
C1086 C 0.8089 0.33853 0.38599 0.0
C1087 C 0.81546 0.35914 0.40239 0.0
C1088 C 0.84148 0.36672 0.41695 0.0
C1089 C 0.99626 0.4275 0.4302 0.0
C1090 C 0.98727 0.44715 0.43328 0.0
C1091 C 0.97886 0.40853 0.4342 0.0
C1092 C 0.95223 0.409 0.44137 0.0
C1093 C 0.94335 0.42876 0.4445 0.0
C1094 C 0.96079 0.44772 0.44054 0.0
C1095 C 0.93312 0.38863 0.44448 0.0
C1096 C 0.90659 0.38116 0.43055 0.0
C1097 C 0.9413 0.37604 0.46003 0.0
C1098 C 0.96852 0.38367 0.47605 0.0
C1099 C 0.97588 0.40474 0.49196 0.0
C1100 C 0.00171 0.41195 0.50678 0.0
C1101 C 0.02029 0.39819 0.50599 0.0
C1102 C 0.01303 0.37716 0.49043 0.0
C1103 C 0.98724 0.36987 0.47554 0.0
H1104 H 0.04028 0.40381 0.51747 0.0
H1105 H 0.7887 0.33264 0.37482 0.0
H1106 H 0.25492 0.36021 0.84854 0.0
H1107 H 0.22523 0.38681 0.85317 0.0
H1108 H 0.15103 0.33301 0.83104 0.0
H1109 H 0.18074 0.30654 0.82633 0.0
H1110 H 0.15226 0.36348 0.80481 0.0
H1111 H 0.16552 0.36354 0.88855 0.0
H1112 H 0.19291 0.36714 0.92764 0.0
H1113 H 0.23348 0.43419 0.9293 0.0
H1114 H 0.2066 0.43091 0.89004 0.0
H1115 H 0.04931 0.42423 0.82106 0.0
H1116 H 0.07849 0.39864 0.82568 0.0
H1117 H 0.15115 0.45339 0.85067 0.0
H1118 H 0.12192 0.47914 0.8463 0.0
H1119 H 0.15121 0.42289 0.87636 0.0
H1120 H 0.14007 0.42301 0.79279 0.0
H1121 H 0.11389 0.42003 0.75335 0.0
H1122 H 0.07121 0.35323 0.75076 0.0
H1123 H 0.09686 0.35592 0.79038 0.0
C1124 C 0.23223 0.35418 0.84526 0.0
C1125 C 0.21988 0.33152 0.83727 0.0
C1126 C 0.21532 0.36931 0.8479 0.0
C1127 C 0.1859 0.36187 0.84251 0.0
C1128 C 0.17365 0.33909 0.83531 0.0
C1129 C 0.19055 0.32401 0.83274 0.0
C1130 C 0.16804 0.37777 0.84228 0.0
C1131 C 0.15167 0.37624 0.82058 0.0
C1132 C 0.16807 0.39488 0.86262 0.0
C1133 C 0.18425 0.3969 0.88623 0.0
C1134 C 0.18046 0.379 0.89714 0.0
C1135 C 0.19586 0.38099 0.91935 0.0
C1136 C 0.21498 0.40086 0.93091 0.0
C1137 C 0.21869 0.4188 0.92031 0.0
C1138 C 0.20336 0.41689 0.89809 0.0
C1139 C 0.07151 0.43081 0.82751 0.0
C1140 C 0.0834 0.45367 0.83307 0.0
C1141 C 0.08816 0.41618 0.83019 0.0
C1142 C 0.11711 0.42408 0.83814 0.0
C1143 C 0.12887 0.44693 0.84448 0.0
C1144 C 0.11216 0.46162 0.84197 0.0
C1145 C 0.13519 0.4084 0.83896 0.0
C1146 C 0.15171 0.41005 0.86066 0.0
C1147 C 0.13554 0.39145 0.81856 0.0
C1148 C 0.12019 0.38974 0.79466 0.0
C1149 C 0.12495 0.40774 0.7839 0.0
C1150 C 0.11023 0.4061 0.7615 0.0
C1151 C 0.09085 0.38648 0.74959 0.0
C1152 C 0.0862 0.36843 0.76003 0.0
C1153 C 0.10084 0.37 0.78244 0.0
H1154 H 0.07947 0.38524 0.73224 0.0
H1155 H 0.22687 0.40237 0.94811 0.0
H1156 H 0.2309 0.73073 0.34876 0.0
H1157 H 0.20396 0.7011 0.36442 0.0
H1158 H 0.25286 0.65721 0.33109 0.0
H1159 H 0.27963 0.68672 0.31515 0.0
H1160 H 0.19892 0.63697 0.32318 0.0
H1161 H 0.26346 0.6809 0.39263 0.0
H1162 H 0.28711 0.71525 0.42272 0.0
H1163 H 0.20766 0.72194 0.44573 0.0
H1164 H 0.18346 0.68776 0.41553 0.0
H1165 H 0.15722 0.55146 0.38196 0.0
H1166 H 0.1867 0.58295 0.37052 0.0
H1167 H 0.13168 0.62372 0.39861 0.0
H1168 H 0.10226 0.59217 0.41008 0.0
H1169 H 0.18827 0.6458 0.40982 0.0
H1170 H 0.1239 0.60207 0.34049 0.0
H1171 H 0.10016 0.56751 0.31077 0.0
H1172 H 0.17948 0.56064 0.28758 0.0
H1173 H 0.20379 0.59497 0.3175 0.0
C1174 C 0.23607 0.71481 0.34497 0.0
C1175 C 0.25742 0.71105 0.33077 0.0
C1176 C 0.22067 0.6979 0.35393 0.0
C1177 C 0.2266 0.67698 0.34918 0.0
C1178 C 0.24788 0.67319 0.33498 0.0
C1179 C 0.26313 0.69005 0.32585 0.0
C1180 C 0.21027 0.65889 0.35857 0.0
C1181 C 0.19697 0.63883 0.34217 0.0
C1182 C 0.20707 0.66147 0.38329 0.0
C1183 C 0.22162 0.68187 0.40168 0.0
C1184 C 0.251 0.68977 0.40401 0.0
C1185 C 0.26451 0.7092 0.42109 0.0
C1186 C 0.24889 0.72079 0.43609 0.0
C1187 C 0.21973 0.71294 0.43408 0.0
C1188 C 0.20611 0.69353 0.417 0.0
C1189 C 0.15169 0.56724 0.38581 0.0
C1190 C 0.12752 0.56954 0.39662 0.0
C1191 C 0.16842 0.58515 0.3793 0.0
C1192 C 0.16117 0.60559 0.38348 0.0
C1193 C 0.13761 0.6081 0.39521 0.0
C1194 C 0.12083 0.59015 0.40167 0.0
C1195 C 0.17729 0.62393 0.37444 0.0
C1196 C 0.19039 0.64401 0.39085 0.0
C1197 C 0.18033 0.62141 0.34974 0.0
C1198 C 0.1657 0.60099 0.33139 0.0
C1199 C 0.13631 0.59312 0.32916 0.0
C1200 C 0.12275 0.57358 0.31228 0.0
C1201 C 0.13831 0.56187 0.29733 0.0
C1202 C 0.16746 0.56972 0.29919 0.0
C1203 C 0.18115 0.58922 0.31611 0.0
H1204 H 0.12777 0.54673 0.28428 0.0
H1205 H 0.25939 0.73582 0.44932 0.0
H1206 H 0.81211 0.79143 0.71484 0.0
H1207 H 0.82165 0.8263 0.70239 0.0
H1208 H 0.73868 0.83386 0.71602 0.0
H1209 H 0.72902 0.79859 0.72806 0.0
H1210 H 0.74906 0.84204 0.67406 0.0
H1211 H 0.79767 0.86624 0.75367 0.0
H1212 H 0.83015 0.8658 0.78837 0.0
H1213 H 0.89967 0.8756 0.74767 0.0
H1214 H 0.86754 0.87579 0.71259 0.0
H1215 H 0.81966 0.96568 0.68376 0.0
H1216 H 0.80999 0.93404 0.70213 0.0
H1217 H 0.80327 0.88977 0.63226 0.0
H1218 H 0.81237 0.92151 0.61391 0.0
H1219 H 0.83511 0.90217 0.70579 0.0
H1220 H 0.75221 0.84336 0.6284 0.0
H1221 H 0.71775 0.84601 0.59627 0.0
H1222 H 0.71227 0.90913 0.63785 0.0
H1223 H 0.74627 0.90667 0.6704 0.0
C1224 C 0.79611 0.80075 0.71543 0.0
C1225 C 0.76998 0.79265 0.72249 0.0
C1226 C 0.80156 0.82066 0.7084 0.0
C1227 C 0.781 0.83285 0.7085 0.0
C1228 C 0.75487 0.82476 0.71584 0.0
C1229 C 0.7494 0.80476 0.72282 0.0
C1230 C 0.78647 0.85351 0.69996 0.0
C1231 C 0.76782 0.85521 0.68107 0.0
C1232 C 0.8107 0.87091 0.70935 0.0
C1233 C 0.83014 0.87085 0.73043 0.0
C1234 C 0.81985 0.86814 0.75205 0.0
C1235 C 0.83821 0.86796 0.7718 0.0
C1236 C 0.86695 0.87062 0.77021 0.0
C1237 C 0.8774 0.87352 0.74887 0.0
C1238 C 0.85913 0.87369 0.72905 0.0
C1239 C 0.81637 0.94914 0.67249 0.0
C1240 C 0.81682 0.9458 0.64757 0.0
C1241 C 0.81089 0.93113 0.68293 0.0
C1242 C 0.80562 0.90952 0.66855 0.0
C1243 C 0.80686 0.90628 0.64365 0.0
C1244 C 0.81221 0.92432 0.6332 0.0
C1245 C 0.79806 0.8904 0.67952 0.0
C1246 C 0.81631 0.88901 0.69885 0.0
C1247 C 0.77311 0.87355 0.67093 0.0
C1248 C 0.75199 0.87489 0.65174 0.0
C1249 C 0.74351 0.85773 0.63076 0.0
C1250 C 0.72407 0.85921 0.61246 0.0
C1251 C 0.71288 0.87775 0.61499 0.0
C1252 C 0.72099 0.8948 0.63588 0.0
C1253 C 0.74035 0.89337 0.65426 0.0
H1254 H 0.69789 0.87889 0.60078 0.0
H1255 H 0.88113 0.87048 0.78552 0.0
H1256 H 0.71007 0.23805 0.39467 0.0
H1257 H 0.67599 0.24138 0.36316 0.0
H1258 H 0.74258 0.28185 0.33623 0.0
H1259 H 0.77679 0.27841 0.36746 0.0
H1260 H 0.696 0.2983 0.33783 0.0
H1261 H 0.7173 0.22787 0.30857 0.0
H1262 H 0.72183 0.19073 0.31087 0.0
H1263 H 0.63377 0.1716 0.31701 0.0
H1264 H 0.6288 0.20876 0.31508 0.0
H1265 H 0.62725 0.29205 0.22284 0.0
H1266 H 0.65966 0.28954 0.25605 0.0
H1267 H 0.5923 0.24542 0.27808 0.0
H1268 H 0.55992 0.24761 0.24464 0.0
H1269 H 0.63828 0.2309 0.27994 0.0
H1270 H 0.61614 0.30056 0.30835 0.0
H1271 H 0.61107 0.33771 0.30663 0.0
H1272 H 0.69957 0.35839 0.30299 0.0
H1273 H 0.70511 0.32126 0.30434 0.0
C1274 C 0.71747 0.24757 0.38197 0.0
C1275 C 0.74617 0.25787 0.38351 0.0
C1276 C 0.69797 0.2495 0.36402 0.0
C1277 C 0.70682 0.26165 0.34719 0.0
C1278 C 0.73531 0.27241 0.34905 0.0
C1279 C 0.75482 0.27049 0.36698 0.0
C1280 C 0.68651 0.2628 0.32733 0.0
C1281 C 0.68358 0.28359 0.325 0.0
C1282 C 0.66983 0.24356 0.31098 0.0
C1283 C 0.67274 0.22116 0.31192 0.0
C1284 C 0.69895 0.21579 0.31058 0.0
C1285 C 0.70159 0.19473 0.3118 0.0
C1286 C 0.67812 0.17883 0.31415 0.0
C1287 C 0.65194 0.18394 0.31522 0.0
C1288 C 0.64919 0.20499 0.31405 0.0
C1289 C 0.61935 0.28191 0.23485 0.0
C1290 C 0.59104 0.27009 0.23121 0.0
C1291 C 0.63786 0.28051 0.25384 0.0
C1292 C 0.62831 0.26757 0.2698 0.0
C1293 C 0.60013 0.25553 0.26601 0.0
C1294 C 0.58167 0.25675 0.24688 0.0
C1295 C 0.64777 0.26644 0.29033 0.0
C1296 C 0.65057 0.24563 0.2928 0.0
C1297 C 0.66422 0.28567 0.30689 0.0
C1298 C 0.66099 0.30806 0.30623 0.0
C1299 C 0.63449 0.31299 0.30701 0.0
C1300 C 0.63154 0.33404 0.30613 0.0
C1301 C 0.65497 0.35038 0.30464 0.0
C1302 C 0.68143 0.34571 0.30411 0.0
C1303 C 0.6845 0.32466 0.30496 0.0
H1304 H 0.65264 0.36667 0.30395 0.0
H1305 H 0.6802 0.16254 0.31509 0.0
H1306 H 0.31134 0.22713 0.83491 0.0
H1307 H 0.3167 0.19297 0.80887 0.0
H1308 H 0.24253 0.19026 0.76184 0.0
H1309 H 0.2361 0.22367 0.78849 0.0
H1310 H 0.24278 0.15048 0.76668 0.0
H1311 H 0.31058 0.21051 0.74972 0.0
H1312 H 0.3505 0.24334 0.7598 0.0
H1313 H 0.40369 0.20582 0.78528 0.0
H1314 H 0.36396 0.17282 0.77562 0.0
H1315 H 0.26354 0.09189 0.65291 0.0
H1316 H 0.25831 0.11923 0.68827 0.0
H1317 H 0.32744 0.10595 0.72884 0.0
H1318 H 0.33281 0.07846 0.69329 0.0
H1319 H 0.33215 0.15092 0.7317 0.0
H1320 H 0.2641 0.0892 0.74252 0.0
H1321 H 0.22367 0.05682 0.73035 0.0
H1322 H 0.17024 0.09804 0.71424 0.0
H1323 H 0.21044 0.13063 0.72597 0.0
C1324 C 0.29586 0.21906 0.81927 0.0
C1325 C 0.27335 0.22824 0.81372 0.0
C1326 C 0.29914 0.19965 0.80424 0.0
C1327 C 0.28028 0.18923 0.78318 0.0
C1328 C 0.25742 0.19804 0.77794 0.0
C1329 C 0.25396 0.2173 0.79306 0.0
C1330 C 0.28463 0.16954 0.76613 0.0
C1331 C 0.26227 0.15063 0.75894 0.0
C1332 C 0.31032 0.16949 0.75648 0.0
C1333 C 0.33423 0.18929 0.76222 0.0
C1334 C 0.33074 0.20932 0.75764 0.0
C1335 C 0.35333 0.22794 0.76325 0.0
C1336 C 0.37959 0.22669 0.77324 0.0
C1337 C 0.38332 0.20678 0.77758 0.0
C1338 C 0.36078 0.18811 0.77203 0.0
C1339 C 0.27751 0.09471 0.66941 0.0
C1340 C 0.29864 0.08316 0.67039 0.0
C1341 C 0.27439 0.1102 0.68962 0.0
C1342 C 0.29237 0.11448 0.71118 0.0
C1343 C 0.3133 0.10278 0.71236 0.0
C1344 C 0.31625 0.08705 0.69215 0.0
C1345 C 0.2901 0.13212 0.73192 0.0
C1346 C 0.31284 0.15065 0.73977 0.0
C1347 C 0.26467 0.1319 0.74195 0.0
C1348 C 0.24036 0.11235 0.73499 0.0
C1349 C 0.24378 0.09134 0.73622 0.0
C1350 C 0.22089 0.07295 0.72942 0.0
C1351 C 0.19441 0.07537 0.72149 0.0
C1352 C 0.19076 0.09619 0.72038 0.0
C1353 C 0.21359 0.11464 0.72714 0.0
H1354 H 0.17672 0.06111 0.71623 0.0
H1355 H 0.39705 0.24113 0.77757 0.0
H1356 H 0.37308 0.7479 0.25636 0.0
H1357 H 0.40654 0.75828 0.22883 0.0
H1358 H 0.34274 0.77827 0.18898 0.0
H1359 H 0.3092 0.76754 0.2164 0.0
H1360 H 0.36641 0.75128 0.15966 0.0
H1361 H 0.40045 0.81642 0.22344 0.0
H1362 H 0.41783 0.83775 0.26516 0.0
H1363 H 0.48882 0.80876 0.26491 0.0
H1364 H 0.47166 0.78701 0.22328 0.0
H1365 H 0.45743 0.7915 0.08076 0.0
H1366 H 0.42609 0.79077 0.11212 0.0
H1367 H 0.48489 0.76792 0.15414 0.0
H1368 H 0.5163 0.76896 0.12287 0.0
H1369 H 0.46337 0.79882 0.18242 0.0
H1370 H 0.42833 0.73221 0.12032 0.0
H1371 H 0.41151 0.71035 0.07872 0.0
H1372 H 0.34251 0.74134 0.07626 0.0
H1373 H 0.35923 0.7637 0.11774 0.0
C1374 C 0.36653 0.75501 0.24203 0.0
C1375 C 0.33888 0.75721 0.23847 0.0
C1376 C 0.3856 0.76095 0.22634 0.0
C1377 C 0.37723 0.76922 0.20691 0.0
C1378 C 0.34968 0.77198 0.20386 0.0
C1379 C 0.33063 0.76601 0.21955 0.0
C1380 C 0.39649 0.77332 0.18877 0.0
C1381 C 0.38741 0.76204 0.1646 0.0
C1382 C 0.42419 0.78683 0.19527 0.0
C1383 C 0.43463 0.79995 0.22029 0.0
C1384 C 0.41965 0.81446 0.23234 0.0
C1385 C 0.42949 0.82665 0.25596 0.0
C1386 C 0.45438 0.82457 0.2677 0.0
C1387 C 0.46953 0.81034 0.2558 0.0
C1388 C 0.45977 0.7981 0.23218 0.0
C1389 C 0.46363 0.78656 0.09685 0.0
C1390 C 0.48906 0.78028 0.0996 0.0
C1391 C 0.44579 0.78607 0.11467 0.0
C1392 C 0.45306 0.7791 0.13537 0.0
C1393 C 0.4789 0.77339 0.13835 0.0
C1394 C 0.49673 0.7739 0.12053 0.0
C1395 C 0.43321 0.77681 0.15342 0.0
C1396 C 0.44223 0.7883 0.17752 0.0
C1397 C 0.40547 0.76339 0.14691 0.0
C1398 C 0.39521 0.7498 0.12205 0.0
C1399 C 0.4097 0.73449 0.11085 0.0
C1400 C 0.40017 0.722 0.08729 0.0
C1401 C 0.37599 0.72449 0.07483 0.0
C1402 C 0.36126 0.73945 0.08592 0.0
C1403 C 0.37075 0.75204 0.10946 0.0
H1404 H 0.36863 0.71479 0.0566 0.0
H1405 H 0.46196 0.83402 0.28599 0.0
H1406 H 0.82019 0.16752 0.42353 0.0
H1407 H 0.83365 0.1418 0.44558 0.0
H1408 H 0.82424 0.18428 0.51249 0.0
H1409 H 0.81061 0.21004 0.49029 0.0
H1410 H 0.87089 0.1632 0.51519 0.0
H1411 H 0.77116 0.14528 0.48841 0.0
H1412 H 0.72937 0.13758 0.45836 0.0
H1413 H 0.75454 0.08221 0.41686 0.0
H1414 H 0.79675 0.0898 0.44651 0.0
H1415 H 0.84132 0.08628 0.58772 0.0
H1416 H 0.84251 0.11509 0.56561 0.0
H1417 H 0.83686 0.06676 0.49874 0.0
H1418 H 0.83504 0.03782 0.52104 0.0
H1419 H 0.80072 0.09099 0.49496 0.0
H1420 H 0.89849 0.10668 0.52363 0.0
H1421 H 0.94018 0.11424 0.55372 0.0
H1422 H 0.91964 0.17331 0.59152 0.0
H1423 H 0.87754 0.16592 0.56186 0.0
C1424 C 0.82187 0.17164 0.44301 0.0
C1425 C 0.81464 0.19067 0.45536 0.0
C1426 C 0.82941 0.15694 0.45555 0.0
C1427 C 0.82969 0.16106 0.48062 0.0
C1428 C 0.82424 0.18087 0.49316 0.0
C1429 C 0.81651 0.19555 0.48053 0.0
C1430 C 0.83252 0.1436 0.49322 0.0
C1431 C 0.85549 0.14746 0.51098 0.0
C1432 C 0.81269 0.12293 0.48729 0.0
C1433 C 0.78726 0.11826 0.46952 0.0
C1434 C 0.76791 0.13158 0.47276 0.0
C1435 C 0.74413 0.12722 0.45583 0.0
C1436 C 0.73935 0.10946 0.43567 0.0
C1437 C 0.7583 0.09599 0.43245 0.0
C1438 C 0.78215 0.10031 0.44932 0.0
C1439 C 0.84072 0.08199 0.56832 0.0
C1440 C 0.83835 0.06005 0.55594 0.0
C1441 C 0.84153 0.0984 0.55571 0.0
C1442 C 0.84021 0.09318 0.53051 0.0
C1443 C 0.83807 0.07119 0.51818 0.0
C1444 C 0.83712 0.05472 0.53083 0.0
C1445 C 0.83923 0.11042 0.51702 0.0
C1446 C 0.81642 0.10658 0.4991 0.0
C1447 C 0.85928 0.13104 0.52281 0.0
C1448 C 0.88471 0.13564 0.54061 0.0
C1449 C 0.90274 0.1212 0.53845 0.0
C1450 C 0.92646 0.12546 0.55542 0.0
C1451 C 0.93253 0.14422 0.57455 0.0
C1452 C 0.9149 0.15878 0.57671 0.0
C1453 C 0.89112 0.15457 0.55981 0.0
H1454 H 0.95091 0.14749 0.58766 0.0
H1455 H 0.72091 0.1061 0.42259 0.0
H1456 H 0.30976 0.3123 0.8959 0.0
H1457 H 0.33301 0.31846 0.93691 0.0
H1458 H 0.28544 0.25457 0.94134 0.0
H1459 H 0.26178 0.24844 0.90046 0.0
H1460 H 0.29422 0.28652 0.9852 0.0
H1461 H 0.34718 0.25802 0.9235 0.0
H1462 H 0.37025 0.25807 0.88684 0.0
H1463 H 0.42486 0.32146 0.92092 0.0
H1464 H 0.40175 0.32194 0.95768 0.0
H1465 H 0.38481 0.25724 0.06837 0.0
H1466 H 0.35395 0.25951 0.03409 0.0
H1467 H 0.41122 0.31982 0.02993 0.0
H1468 H 0.44282 0.31713 0.06348 0.0
H1469 H 0.39689 0.2927 0.9871 0.0
H1470 H 0.34662 0.31945 0.05073 0.0
H1471 H 0.32327 0.31891 0.08719 0.0
H1472 H 0.2638 0.25875 0.05005 0.0
H1473 H 0.28703 0.25875 0.01345 0.0
C1474 C 0.30362 0.29986 0.90589 0.0
C1475 C 0.28418 0.27979 0.89492 0.0
C1476 C 0.31703 0.30335 0.92924 0.0
C1477 C 0.31122 0.28682 0.94197 0.0
C1478 C 0.29027 0.26749 0.93177 0.0
C1479 C 0.27692 0.26395 0.90839 0.0
C1480 C 0.32911 0.28855 0.9646 0.0
C1481 C 0.31665 0.28777 0.98568 0.0
C1482 C 0.35842 0.2905 0.9652 0.0
C1483 C 0.37253 0.29013 0.94322 0.0
C1484 C 0.36396 0.27205 0.9231 0.0
C1485 C 0.37705 0.27197 0.90232 0.0
C1486 C 0.39896 0.28979 0.90153 0.0
C1487 C 0.40785 0.30769 0.92155 0.0
C1488 C 0.39477 0.30788 0.94236 0.0
C1489 C 0.39089 0.27096 0.06013 0.0
C1490 C 0.41636 0.28697 0.06866 0.0
C1491 C 0.37303 0.2724 0.04072 0.0
C1492 C 0.38008 0.28999 0.0296 0.0
C1493 C 0.40527 0.30616 0.0383 0.0
C1494 C 0.42321 0.30469 0.05763 0.0
C1495 C 0.36213 0.29076 0.00795 0.0
C1496 C 0.37456 0.29182 0.98689 0.0
C1497 C 0.33283 0.28903 0.00744 0.0
C1498 C 0.31872 0.28902 0.0294 0.0
C1499 C 0.32869 0.30602 0.05039 0.0
C1500 C 0.31545 0.30582 0.07107 0.0
C1501 C 0.2921 0.28878 0.07095 0.0
C1502 C 0.2819 0.27193 0.05012 0.0
C1503 C 0.29508 0.27203 0.02939 0.0
H1504 H 0.28188 0.28866 0.08699 0.0
H1505 H 0.40908 0.2897 0.88542 0.0
H1506 H 0.3308 0.78128 0.36931 0.0
H1507 H 0.33888 0.81721 0.39789 0.0
H1508 H 0.29121 0.84013 0.34666 0.0
H1509 H 0.28411 0.80437 0.31765 0.0
H1510 H 0.33268 0.8731 0.37125 0.0
H1511 H 0.26074 0.81907 0.39141 0.0
H1512 H 0.23994 0.78336 0.40021 0.0
H1513 H 0.30186 0.79848 0.46225 0.0
H1514 H 0.32336 0.83414 0.45358 0.0
H1515 H 0.28967 0.95412 0.45961 0.0
H1516 H 0.29053 0.92216 0.42725 0.0
H1517 H 0.34995 0.90396 0.4735 0.0
H1518 H 0.34926 0.93587 0.50584 0.0
H1519 H 0.30261 0.86925 0.45111 0.0
H1520 H 0.37303 0.92496 0.43001 0.0
H1521 H 0.39114 0.96065 0.42016 0.0
H1522 H 0.32738 0.94253 0.35901 0.0
H1523 H 0.30862 0.90683 0.3687 0.0
C1524 C 0.32258 0.79418 0.36403 0.0
C1525 C 0.30672 0.79012 0.34142 0.0
C1526 C 0.32704 0.81464 0.38038 0.0
C1527 C 0.315 0.83119 0.37468 0.0
C1528 C 0.30056 0.82759 0.35152 0.0
C1529 C 0.29653 0.8072 0.33496 0.0
C1530 C 0.31582 0.85152 0.39343 0.0
C1531 C 0.32583 0.87225 0.38861 0.0
C1532 C 0.30698 0.85046 0.41618 0.0
C1533 C 0.29382 0.82919 0.42171 0.0
C1534 C 0.27002 0.81472 0.40685 0.0
C1535 C 0.25811 0.79449 0.41181 0.0
C1536 C 0.26961 0.78863 0.43175 0.0
C1537 C 0.293 0.80303 0.4468 0.0
C1538 C 0.30506 0.82326 0.44188 0.0
C1539 C 0.30303 0.94335 0.46278 0.0
C1540 C 0.31945 0.94749 0.4852 0.0
C1541 C 0.3036 0.9252 0.44428 0.0
C1542 C 0.32039 0.91077 0.44799 0.0
C1543 C 0.33693 0.91495 0.47029 0.0
C1544 C 0.33665 0.93323 0.48867 0.0
C1545 C 0.31977 0.89075 0.42901 0.0
C1546 C 0.30957 0.87007 0.43377 0.0
C1547 C 0.32792 0.89189 0.40612 0.0
C1548 C 0.33924 0.91331 0.40023 0.0
C1549 C 0.36271 0.92866 0.41459 0.0
C1550 C 0.37313 0.94888 0.40901 0.0
C1551 C 0.36037 0.95388 0.38901 0.0
C1552 C 0.33722 0.93864 0.37452 0.0
C1553 C 0.3267 0.91841 0.38003 0.0
H1554 H 0.36848 0.96954 0.38472 0.0
H1555 H 0.26035 0.77296 0.43555 0.0
H1556 H 0.7033 0.75131 0.79419 0.0
H1557 H 0.67818 0.75921 0.82903 0.0
H1558 H 0.75446 0.76859 0.87663 0.0
H1559 H 0.77969 0.76077 0.84188 0.0
H1560 H 0.71158 0.7404 0.88802 0.0
H1561 H 0.72642 0.81208 0.87114 0.0
H1562 H 0.72454 0.83844 0.84585 0.0
H1563 H 0.63444 0.8165 0.83297 0.0
H1564 H 0.6358 0.78978 0.85792 0.0
H1565 H 0.6618 0.77832 0.99812 0.0
H1566 H 0.68828 0.77659 0.96342 0.0
H1567 H 0.61142 0.76674 0.91628 0.0
H1568 H 0.5851 0.76881 0.95112 0.0
H1569 H 0.65429 0.79563 0.90456 0.0
H1570 H 0.63879 0.72387 0.92028 0.0
H1571 H 0.6396 0.69696 0.94502 0.0
H1572 H 0.72973 0.71801 0.95897 0.0
H1573 H 0.72944 0.74535 0.93464 0.0
C1574 C 0.71488 0.7556 0.81208 0.0
C1575 C 0.74346 0.75533 0.81528 0.0
C1576 C 0.70048 0.76005 0.83199 0.0
C1577 C 0.71444 0.7645 0.85546 0.0
C1578 C 0.74322 0.76508 0.85869 0.0
C1579 C 0.7576 0.76061 0.83882 0.0
C1580 C 0.69872 0.76708 0.8766 0.0
C1581 C 0.69944 0.75274 0.89185 0.0
C1582 C 0.68211 0.78267 0.88115 0.0
C1583 C 0.68124 0.79878 0.86622 0.0
C1584 C 0.70622 0.81275 0.86276 0.0
C1585 C 0.70524 0.82778 0.84852 0.0
C1586 C 0.67939 0.8291 0.83776 0.0
C1587 C 0.65445 0.81544 0.84128 0.0
C1588 C 0.65531 0.80037 0.8555 0.0
C1589 C 0.65075 0.7759 0.98031 0.0
C1590 C 0.6216 0.77371 0.97707 0.0
C1591 C 0.66576 0.77485 0.96054 0.0
C1592 C 0.65177 0.77135 0.93722 0.0
C1593 C 0.62263 0.76948 0.93409 0.0
C1594 C 0.60763 0.77057 0.95388 0.0
C1595 C 0.66745 0.76911 0.91606 0.0
C1596 C 0.66658 0.7834 0.90076 0.0
C1597 C 0.6838 0.75337 0.91133 0.0
C1598 C 0.68407 0.73682 0.92583 0.0
C1599 C 0.65878 0.72289 0.92878 0.0
C1600 C 0.65914 0.70754 0.94271 0.0
C1601 C 0.6847 0.70581 0.9536 0.0
C1602 C 0.70995 0.71939 0.95054 0.0
C1603 C 0.7097 0.73482 0.93668 0.0
H1604 H 0.68494 0.69391 0.96437 0.0
H1605 H 0.67868 0.84075 0.82674 0.0
loop_
_geom_bond_atom_site_label_1
_geom_bond_atom_site_label_2
_geom_bond_distance
_geom_bond_site_symmetry_2
_ccdc_geom_bond_type
H0 C3 0.929 . S
H1 C6 0.929 . S
H2 C8 0.930 . S
C3 H0 0.929 . S
C3 C4 1.398 . S
C3 C5 1.396 . S
C4 C3 1.398 . S
C4 C8 1.407 . S
C5 C3 1.396 . S
C5 C6 1.394 . S
C6 H1 0.929 . S
C6 C5 1.394 . S
C6 C7 1.382 . S
C7 C6 1.382 . S
C7 C8 1.392 . S
C7 N9 1.420 . S
C8 H2 0.930 . S
C8 C4 1.407 . S
C8 C7 1.392 . S
N9 C7 1.420 . S
N9 C10 1.244 . S
C10 N9 1.244 . S
H11 C14 0.929 . S
H12 C17 0.929 . S
H13 C19 0.930 . S
C14 H11 0.929 . S
C14 C15 1.398 . S
C14 C16 1.396 . S
C15 C14 1.398 . S
C15 C19 1.407 . S
C16 C14 1.396 . S
C16 C17 1.394 . S
C17 H12 0.929 . S
C17 C16 1.394 . S
C17 C18 1.382 . S
C18 C17 1.382 . S
C18 C19 1.392 . S
C18 N20 1.420 . S
C19 H13 0.930 . S
C19 C15 1.407 . S
C19 C18 1.392 . S
N20 C18 1.420 . S
N20 C21 1.244 . S
C21 N20 1.244 . S
H22 C25 0.929 . S
H23 C28 0.929 . S
H24 C30 0.930 . S
C25 H22 0.929 . S
C25 C26 1.398 . S
C25 C27 1.396 . S
C26 C25 1.398 . S
C26 C30 1.407 . S
C27 C25 1.396 . S
C27 C28 1.394 . S
C28 H23 0.929 . S
C28 C27 1.394 . S
C28 C29 1.382 . S
C29 C28 1.382 . S
C29 C30 1.392 . S
C29 N31 1.420 . S
C30 H24 0.930 . S
C30 C26 1.407 . S
C30 C29 1.392 . S
N31 C29 1.420 . S
N31 C32 1.244 . S
C32 N31 1.244 . S
H33 C36 0.929 . S
H34 C39 0.929 . S
H35 C41 0.930 . S
C36 H33 0.929 . S
C36 C37 1.398 . S
C36 C38 1.396 . S
C37 C36 1.398 . S
C37 C41 1.407 . S
C38 C36 1.396 . S
C38 C39 1.394 . S
C39 H34 0.929 . S
C39 C38 1.394 . S
C39 C40 1.382 . S
C40 C39 1.382 . S
C40 C41 1.392 . S
C40 N42 1.420 . S
C41 H35 0.930 . S
C41 C37 1.407 . S
C41 C40 1.392 . S
N42 C40 1.420 . S
N42 C43 1.244 . S
C43 N42 1.244 . S
H44 C47 0.929 . S
H45 C50 0.929 . S
H46 C52 0.930 . S
C47 H44 0.929 . S
C47 C48 1.398 . S
C47 C49 1.396 . S
C48 C47 1.398 . S
C48 C52 1.407 . S
C49 C47 1.396 . S
C49 C50 1.394 . S
C50 H45 0.929 . S
C50 C49 1.394 . S
C50 C51 1.382 . S
C51 C50 1.382 . S
C51 C52 1.392 . S
C51 N53 1.420 . S
C52 H46 0.930 . S
C52 C48 1.407 . S
C52 C51 1.392 . S
N53 C51 1.420 . S
N53 C54 1.244 . S
C54 N53 1.244 . S
H55 C58 0.929 . S
H56 C61 0.929 . S
H57 C63 0.930 . S
C58 H55 0.929 . S
C58 C59 1.398 . S
C58 C60 1.396 . S
C59 C58 1.398 . S
C59 C63 1.407 . S
C60 C58 1.396 . S
C60 C61 1.394 . S
C61 H56 0.929 . S
C61 C60 1.394 . S
C61 C62 1.382 . S
C62 C61 1.382 . S
C62 C63 1.392 . S
C62 N64 1.420 . S
C63 H57 0.930 . S
C63 C59 1.407 . S
C63 C62 1.392 . S
N64 C62 1.420 . S
N64 C65 1.244 . S
C65 N64 1.244 . S
H66 C69 0.929 . S
H67 C72 0.929 . S
H68 C74 0.930 . S
C69 H66 0.929 . S
C69 C70 1.398 . S
C69 C71 1.396 . S
C70 C69 1.398 . S
C70 C74 1.407 . S
C71 C69 1.396 . S
C71 C72 1.394 . S
C72 H67 0.929 . S
C72 C71 1.394 . S
C72 C73 1.382 . S
C73 C72 1.382 . S
C73 C74 1.392 . S
C73 N75 1.420 . S
C74 H68 0.930 . S
C74 C70 1.407 . S
C74 C73 1.392 . S
N75 C73 1.420 . S
N75 C76 1.244 . S
C76 N75 1.244 . S
H77 C80 0.929 . S
H78 C83 0.929 . S
H79 C85 0.930 . S
C80 H77 0.929 . S
C80 C81 1.398 . S
C80 C82 1.396 . S
C81 C80 1.398 . S
C81 C85 1.407 . S
C82 C80 1.396 . S
C82 C83 1.394 . S
C83 H78 0.929 . S
C83 C82 1.394 . S
C83 C84 1.382 . S
C84 C83 1.382 . S
C84 C85 1.392 . S
C84 N86 1.420 . S
C85 H79 0.930 . S
C85 C81 1.407 . S
C85 C84 1.392 . S
N86 C84 1.420 . S
N86 C87 1.244 . S
C87 N86 1.244 . S
C88 C89 1.443 . S
C88 N92 1.376 . S
C88 C126 1.389 . S
C89 C88 1.443 . S
C89 C90 1.340 . S
C89 H129 0.951 . S
C90 C89 1.340 . S
C90 C91 1.439 . S
C90 H130 0.950 . S
C91 C90 1.439 . S
C91 N92 1.374 . S
C91 C125 1.395 . S
N92 C88 1.376 . S
N92 C91 1.374 . S
N92 Co93 2.008 . S
Co93 N92 2.008 . S
Co93 N94 1.995 . S
Co93 N99 2.008 . S
Co93 N104 1.995 . S
Co93 N109 2.282 . S
Co93 N115 2.282 . S
N94 Co93 1.995 . S
N94 C95 1.376 . S
N94 C98 1.383 . S
C95 N94 1.376 . S
C95 C96 1.446 . S
C95 C125 1.391 . S
C96 C95 1.446 . S
C96 C97 1.339 . S
C96 H131 0.949 . S
C97 C96 1.339 . S
C97 C98 1.439 . S
C97 H132 0.950 . S
C98 N94 1.383 . S
C98 C97 1.439 . S
C98 C127 1.392 . S
N99 Co93 2.008 . S
N99 C100 1.376 . S
N99 C103 1.374 . S
C100 N99 1.376 . S
C100 C101 1.447 . S
C100 C127 1.389 . S
C101 C100 1.447 . S
C101 C102 1.346 . S
C101 H133 0.944 1_455 S
C102 C101 1.346 . S
C102 C103 1.439 . S
C102 H134 0.950 . S
C103 N99 1.374 . S
C103 C102 1.439 . S
C103 C128 1.395 . S
N104 Co93 1.995 . S
N104 C105 1.376 . S
N104 C108 1.383 . S
C105 N104 1.376 . S
C105 C106 1.446 . S
C105 C128 1.391 . S
C106 C105 1.446 . S
C106 C107 1.339 . S
C106 H135 0.949 . S
C107 C106 1.339 . S
C107 C108 1.439 . S
C107 H136 0.950 . S
C108 N104 1.383 . S
C108 C107 1.439 . S
C108 C126 1.392 . S
N109 Co93 2.282 . S
N109 C112 1.332 . S
N109 C114 1.332 . S
C110 C111 1.386 . S
C110 C113 1.388 . S
C111 C110 1.386 . S
C111 C112 1.382 . S
C111 H137 0.950 . S
C112 N109 1.332 . S
C112 C111 1.382 . S
C112 H123 0.952 . S
C113 C110 1.388 . S
C113 C114 1.382 . S
C113 H138 0.950 . S
C114 N109 1.332 . S
C114 C113 1.382 . S
C114 H124 0.948 . S
N115 Co93 2.282 . S
N115 C119 1.332 . S
N115 C120 1.332 . S
C116 C117 1.388 1_455 S
C116 C120 1.382 . S
C116 H139 0.950 1_455 S
C117 C116 1.388 1_655 S
C117 C118 1.386 1_655 S
C118 C117 1.386 1_455 S
C118 C119 1.382 . S
C118 H140 0.950 . S
C119 N115 1.332 . S
C119 C118 1.382 . S
C119 H121 0.952 . S
C120 N115 1.332 . S
C120 C116 1.382 . S
C120 H122 0.948 . S
H121 C119 0.952 . S
H122 C120 0.948 . S
H123 C112 0.952 . S
H124 C114 0.948 . S
C125 C91 1.395 . S
C125 C95 1.391 . S
C126 C88 1.389 . S
C126 C108 1.392 . S
C127 C98 1.392 . S
C127 C100 1.389 . S
C128 C103 1.395 . S
C128 C105 1.391 . S
H129 C89 0.951 . S
H130 C90 0.950 . S
H131 C96 0.949 . S
H132 C97 0.950 . S
H133 C101 0.944 1_655 S
H134 C102 0.950 . S
H135 C106 0.949 . S
H136 C107 0.950 . S
H137 C111 0.950 . S
H138 C113 0.950 . S
H139 C116 0.950 1_655 S
H140 C118 0.950 . S
C141 C142 1.443 . S
C141 N145 1.376 . S
C141 C179 1.389 . S
C142 C141 1.443 . S
C142 C143 1.340 . S
C142 H182 0.951 . S
C143 C142 1.340 . S
C143 C144 1.439 . S
C143 H183 0.950 . S
C144 C143 1.439 . S
C144 N145 1.374 . S
C144 C178 1.395 . S
N145 C141 1.376 . S
N145 C144 1.374 . S
N145 Co146 2.008 . S
Co146 N145 2.008 . S
Co146 N147 1.995 1_455 S
Co146 N152 2.008 1_455 S
Co146 N157 1.995 . S
Co146 N162 2.282 . S
Co146 N168 2.282 1_455 S
N147 Co146 1.995 1_655 S
N147 C148 1.376 . S
N147 C151 1.383 . S
C148 N147 1.376 . S
C148 C149 1.445 . S
C148 C178 1.392 1_655 S
C149 C148 1.445 . S
C149 C150 1.339 . S
C149 H184 0.949 . S
C150 C149 1.339 . S
C150 C151 1.439 . S
C150 H185 0.950 . S
C151 N147 1.383 . S
C151 C150 1.439 . S
C151 C180 1.392 . S
N152 Co146 2.008 1_655 S
N152 C153 1.376 . S
N152 C156 1.374 . S
C153 N152 1.376 . S
C153 C154 1.443 . S
C153 C180 1.389 . S
C154 C153 1.443 . S
C154 C155 1.340 . S
C154 H186 0.951 . S
C155 C154 1.340 . S
C155 C156 1.439 . S
C155 H187 0.950 . S
C156 N152 1.374 . S
C156 C155 1.439 . S
C156 C181 1.395 . S
N157 Co146 1.995 . S
N157 C158 1.376 . S
N157 C161 1.383 . S
C158 N157 1.376 . S
C158 C159 1.446 . S
C158 C181 1.391 1_455 S
C159 C158 1.446 . S
C159 C160 1.339 . S
C159 H188 0.949 . S
C160 C159 1.339 . S
C160 C161 1.439 . S
C160 H189 0.950 . S
C161 N157 1.383 . S
C161 C160 1.439 . S
C161 C179 1.392 . S
N162 Co146 2.282 . S
N162 C165 1.332 . S
N162 C167 1.332 . S
C163 C164 1.386 . S
C163 C166 1.388 . S
C164 C163 1.386 . S
C164 C165 1.382 . S
C164 H190 0.950 . S
C165 N162 1.332 . S
C165 C164 1.382 . S
C165 H176 0.952 . S
C166 C163 1.388 . S
C166 C167 1.382 . S
C166 H191 0.950 . S
C167 N162 1.332 . S
C167 C166 1.382 . S
C167 H177 0.948 . S
N168 Co146 2.282 1_655 S
N168 C172 1.332 . S
N168 C173 1.332 . S
C169 C170 1.388 . S
C169 C173 1.382 . S
C169 H192 0.950 . S
C170 C169 1.388 . S
C170 C171 1.386 . S
C171 C170 1.386 . S
C171 C172 1.382 . S
C171 H193 0.950 . S
C172 N168 1.332 . S
C172 C171 1.382 . S
C172 H174 0.952 . S
C173 N168 1.332 . S
C173 C169 1.382 . S
C173 H175 0.948 . S
H174 C172 0.952 . S
H175 C173 0.948 . S
H176 C165 0.952 . S
H177 C167 0.948 . S
C178 C144 1.395 . S
C178 C148 1.392 1_455 S
C179 C141 1.389 . S
C179 C161 1.392 . S
C180 C151 1.392 . S
C180 C153 1.389 . S
C181 C156 1.395 . S
C181 C158 1.391 1_655 S
H182 C142 0.951 . S
H183 C143 0.950 . S
H184 C149 0.949 . S
H185 C150 0.950 . S
H186 C154 0.951 . S
H187 C155 0.950 . S
H188 C159 0.949 . S
H189 C160 0.950 . S
H190 C164 0.950 . S
H191 C166 0.950 . S
H192 C169 0.950 . S
H193 C171 0.950 . S
C194 C195 1.443 . S
C194 N198 1.376 1_565 S
C194 C232 1.389 . S
C195 C194 1.443 . S
C195 C196 1.340 1_565 S
C195 H235 0.951 . S
C196 C195 1.340 1_545 S
C196 C197 1.439 . S
C196 H236 0.950 . S
C197 C196 1.439 . S
C197 N198 1.374 . S
C197 C231 1.395 . S
N198 C194 1.376 1_545 S
N198 C197 1.374 . S
N198 Co199 2.008 . S
Co199 N198 2.008 . S
Co199 N200 1.995 . S
Co199 N205 2.008 . S
Co199 N210 1.995 . S
Co199 N215 2.282 . S
Co199 N221 2.282 . S
N200 Co199 1.995 . S
N200 C201 1.376 . S
N200 C204 1.383 . S
C201 N200 1.376 . S
C201 C202 1.446 . S
C201 C231 1.391 . S
C202 C201 1.446 . S
C202 C203 1.339 . S
C202 H237 0.949 . S
C203 C202 1.339 . S
C203 C204 1.439 . S
C203 H238 0.950 . S
C204 N200 1.383 . S
C204 C203 1.439 . S
C204 C233 1.392 . S
N205 Co199 2.008 . S
N205 C206 1.376 . S
N205 C209 1.374 . S
C206 N205 1.376 . S
C206 C207 1.443 . S
C206 C233 1.389 . S
C207 C206 1.443 . S
C207 C208 1.340 . S
C207 H239 0.951 . S
C208 C207 1.340 . S
C208 C209 1.439 . S
C208 H240 0.950 . S
C209 N205 1.374 . S
C209 C208 1.439 . S
C209 C234 1.395 . S
N210 Co199 1.995 . S
N210 C211 1.376 . S
N210 C214 1.383 1_545 S
C211 N210 1.376 . S
C211 C212 1.446 1_545 S
C211 C234 1.391 . S
C212 C211 1.446 1_565 S
C212 C213 1.339 . S
C212 H241 0.949 . S
C213 C212 1.339 . S
C213 C214 1.439 . S
C213 H242 0.950 . S
C214 N210 1.383 1_565 S
C214 C213 1.439 . S
C214 C232 1.392 . S
N215 Co199 2.282 . S
N215 C218 1.332 . S
N215 C220 1.332 . S
C216 C217 1.386 . S
C216 C219 1.388 . S
C217 C216 1.386 . S
C217 C218 1.382 . S
C217 H243 0.950 . S
C218 N215 1.332 . S
C218 C217 1.382 . S
C218 H229 0.952 . S
C219 C216 1.388 . S
C219 C220 1.382 . S
C219 H244 0.950 . S
C220 N215 1.332 . S
C220 C219 1.382 . S
C220 H230 0.948 . S
N221 Co199 2.282 . S
N221 C225 1.329 1_545 S
N221 C226 1.332 1_545 S
C222 C223 1.388 . S
C222 C226 1.382 . S
C222 H245 0.950 . S
C223 C222 1.388 . S
C223 C224 1.386 . S
C224 C223 1.386 . S
C224 C225 1.393 . S
C224 H246 0.950 . S
C225 N221 1.329 1_565 S
C225 C224 1.393 . S
C225 H227 0.943 1_565 S
C226 N221 1.332 1_565 S
C226 C222 1.382 . S
C226 H228 0.948 . S
H227 C225 0.943 1_545 S
H228 C226 0.948 . S
H229 C218 0.952 . S
H230 C220 0.948 . S
C231 C197 1.395 . S
C231 C201 1.391 . S
C232 C194 1.389 . S
C232 C214 1.392 . S
C233 C204 1.392 . S
C233 C206 1.389 . S
C234 C209 1.395 . S
C234 C211 1.391 . S
H235 C195 0.951 . S
H236 C196 0.950 . S
H237 C202 0.949 . S
H238 C203 0.950 . S
H239 C207 0.951 . S
H240 C208 0.950 . S
H241 C212 0.949 . S
H242 C213 0.950 . S
H243 C217 0.950 . S
H244 C219 0.950 . S
H245 C222 0.950 . S
H246 C224 0.950 . S
C247 C248 1.443 . S
C247 N251 1.376 . S
C247 C285 1.389 . S
C248 C247 1.443 . S
C248 C249 1.340 . S
C248 H288 0.951 . S
C249 C248 1.340 . S
C249 C250 1.439 . S
C249 H289 0.950 . S
C250 C249 1.439 . S
C250 N251 1.374 . S
C250 C284 1.395 . S
N251 C247 1.376 . S
N251 C250 1.374 . S
N251 Co252 2.034 . S
Co252 N251 2.034 . S
Co252 N253 1.973 1_554 S
Co252 N258 1.983 1_554 S
Co252 N263 2.017 . S
Co252 N268 2.250 1_554 S
Co252 N274 2.316 . S
N253 Co252 1.973 1_556 S
N253 C254 1.376 1_556 S
N253 C257 1.383 . S
C254 N253 1.376 1_554 S
C254 C255 1.446 1_554 S
C254 C284 1.391 . S
C255 C254 1.446 1_556 S
C255 C256 1.339 . S
C255 H290 0.949 . S
C256 C255 1.339 . S
C256 C257 1.439 . S
C256 H291 0.950 . S
C257 N253 1.383 . S
C257 C256 1.439 . S
C257 C286 1.392 . S
N258 Co252 1.983 1_556 S
N258 C259 1.376 . S
N258 C262 1.374 . S
C259 N258 1.376 . S
C259 C260 1.443 . S
C259 C286 1.389 . S
C260 C259 1.443 . S
C260 C261 1.340 . S
C260 H292 0.951 . S
C261 C260 1.340 . S
C261 C262 1.439 . S
C261 H293 0.950 . S
C262 N258 1.374 . S
C262 C261 1.439 . S
C262 C287 1.395 . S
N263 Co252 2.017 . S
N263 C264 1.381 . S
N263 C267 1.383 . S
C264 N263 1.381 . S
C264 C265 1.467 . S
C264 C287 1.370 1_554 S
C265 C264 1.467 . S
C265 C266 1.339 . S
C265 H294 0.949 . S
C266 C265 1.339 . S
C266 C267 1.439 . S
C266 H295 0.950 . S
C267 N263 1.383 . S
C267 C266 1.439 . S
C267 C285 1.392 . S
N268 Co252 2.250 1_556 S
N268 C271 1.332 . S
N268 C273 1.332 . S
C269 C270 1.386 . S
C269 C272 1.388 . S
C270 C269 1.386 . S
C270 C271 1.382 . S
C270 H296 0.950 . S
C271 N268 1.332 . S
C271 C270 1.382 . S
C271 H282 0.952 . S
C272 C269 1.388 . S
C272 C273 1.382 . S
C272 H297 0.950 . S
C273 N268 1.332 . S
C273 C272 1.382 . S
C273 H283 0.948 . S
N274 Co252 2.316 . S
N274 C278 1.332 . S
N274 C279 1.332 . S
C275 C276 1.388 . S
C275 C279 1.382 . S
C275 H298 0.950 . S
C276 C275 1.388 . S
C276 C277 1.386 . S
C277 C276 1.386 . S
C277 C278 1.382 . S
C277 H299 0.950 . S
C278 N274 1.332 . S
C278 C277 1.382 . S
C278 H280 0.952 . S
C279 N274 1.332 . S
C279 C275 1.382 . S
C279 H281 0.948 . S
H280 C278 0.952 . S
H281 C279 0.948 . S
H282 C271 0.952 . S
H283 C273 0.948 . S
C284 C250 1.395 . S
C284 C254 1.391 . S
C285 C247 1.389 . S
C285 C267 1.392 . S
C286 C257 1.392 . S
C286 C259 1.389 . S
C287 C262 1.395 . S
C287 C264 1.370 1_556 S
H288 C248 0.951 . S
H289 C249 0.950 . S
H290 C255 0.949 . S
H291 C256 0.950 . S
H292 C260 0.951 . S
H293 C261 0.950 . S
H294 C265 0.949 . S
H295 C266 0.950 . S
H296 C270 0.950 . S
H297 C272 0.950 . S
H298 C275 0.950 . S
H299 C277 0.950 . S
C300 C301 1.446 1_545 S
C300 N304 1.372 . S
C300 C338 1.390 1_545 S
C301 C300 1.446 1_565 S
C301 C302 1.340 1_565 S
C301 H341 0.951 . S
C302 C301 1.340 1_545 S
C302 C303 1.439 . S
C302 H342 0.950 . S
C303 C302 1.439 . S
C303 N304 1.374 . S
C303 C337 1.395 . S
N304 C300 1.372 . S
N304 C303 1.374 . S
N304 Co305 2.008 . S
Co305 N304 2.008 . S
Co305 N306 1.995 . S
Co305 N311 2.008 . S
Co305 N316 1.995 . S
Co305 N321 2.282 . S
Co305 N327 2.282 . S
N306 Co305 1.995 . S
N306 C307 1.376 . S
N306 C310 1.383 . S
C307 N306 1.376 . S
C307 C308 1.446 . S
C307 C337 1.391 . S
C308 C307 1.446 . S
C308 C309 1.339 . S
C308 H343 0.949 . S
C309 C308 1.339 . S
C309 C310 1.439 . S
C309 H344 0.950 . S
C310 N306 1.383 . S
C310 C309 1.439 . S
C310 C339 1.392 . S
N311 Co305 2.008 . S
N311 C312 1.376 . S
N311 C315 1.374 . S
C312 N311 1.376 . S
C312 C313 1.443 . S
C312 C339 1.389 . S
C313 C312 1.443 . S
C313 C314 1.340 . S
C313 H345 0.951 . S
C314 C313 1.340 . S
C314 C315 1.439 . S
C314 H346 0.950 . S
C315 N311 1.374 . S
C315 C314 1.439 . S
C315 C340 1.395 . S
N316 Co305 1.995 . S
N316 C317 1.376 . S
N316 C320 1.383 1_545 S
C317 N316 1.376 . S
C317 C318 1.446 1_545 S
C317 C340 1.391 . S
C318 C317 1.446 1_565 S
C318 C319 1.339 . S
C318 H347 0.949 . S
C319 C318 1.339 . S
C319 C320 1.439 . S
C319 H348 0.950 . S
C320 N316 1.383 1_565 S
C320 C319 1.439 . S
C320 C338 1.392 . S
N321 Co305 2.282 . S
N321 C324 1.332 . S
N321 C326 1.332 . S
C322 C323 1.386 . S
C322 C325 1.388 . S
C323 C322 1.386 . S
C323 C324 1.382 . S
C323 H349 0.950 . S
C324 N321 1.332 . S
C324 C323 1.382 . S
C324 H335 0.952 . S
C325 C322 1.388 . S
C325 C326 1.382 . S
C325 H350 0.950 . S
C326 N321 1.332 . S
C326 C325 1.382 . S
C326 H336 0.948 . S
N327 Co305 2.282 . S
N327 C331 1.332 . S
N327 C332 1.332 1_545 S
C328 C329 1.388 . S
C328 C332 1.382 . S
C328 H351 0.950 . S
C329 C328 1.388 . S
C329 C330 1.386 . S
C330 C329 1.386 . S
C330 C331 1.382 1_565 S
C330 H352 0.950 . S
C331 N327 1.332 . S
C331 C330 1.382 1_545 S
C331 H333 0.952 . S
C332 N327 1.332 1_565 S
C332 C328 1.382 . S
C332 H334 0.948 . S
H333 C331 0.952 . S
H334 C332 0.948 . S
H335 C324 0.952 . S
H336 C326 0.948 . S
C337 C303 1.395 . S
C337 C307 1.391 . S
C338 C300 1.390 1_565 S
C338 C320 1.392 . S
C339 C310 1.392 . S
C339 C312 1.389 . S
C340 C315 1.395 . S
C340 C317 1.391 . S
H341 C301 0.951 . S
H342 C302 0.950 . S
H343 C308 0.949 . S
H344 C309 0.950 . S
H345 C313 0.951 . S
H346 C314 0.950 . S
H347 C318 0.949 . S
H348 C319 0.950 . S
H349 C323 0.950 . S
H350 C325 0.950 . S
H351 C328 0.950 . S
H352 C330 0.950 . S
C353 C354 1.443 . S
C353 N357 1.376 . S
C353 C391 1.389 . S
C354 C353 1.443 . S
C354 C355 1.340 . S
C354 H394 0.951 . S
C355 C354 1.340 . S
C355 C356 1.439 . S
C355 H395 0.950 . S
C356 C355 1.439 . S
C356 N357 1.374 . S
C356 C390 1.395 . S
N357 C353 1.376 . S
N357 C356 1.374 . S
N357 Co358 2.008 . S
Co358 N357 2.008 . S
Co358 N359 1.995 . S
Co358 N364 2.008 . S
Co358 N369 1.995 . S
Co358 N374 2.282 . S
Co358 N380 2.282 . S
N359 Co358 1.995 . S
N359 C360 1.376 . S
N359 C363 1.383 . S
C360 N359 1.376 . S
C360 C361 1.446 . S
C360 C390 1.391 . S
C361 C360 1.446 . S
C361 C362 1.339 . S
C361 H396 0.949 . S
C362 C361 1.339 . S
C362 C363 1.439 . S
C362 H397 0.950 . S
C363 N359 1.383 . S
C363 C362 1.439 . S
C363 C392 1.392 . S
N364 Co358 2.008 . S
N364 C365 1.376 . S
N364 C368 1.374 . S
C365 N364 1.376 . S
C365 C366 1.443 . S
C365 C392 1.389 . S
C366 C365 1.443 . S
C366 C367 1.340 . S
C366 H398 0.951 . S
C367 C366 1.340 . S
C367 C368 1.439 . S
C367 H399 0.950 . S
C368 N364 1.374 . S
C368 C367 1.439 . S
C368 C393 1.395 . S
N369 Co358 1.995 . S
N369 C370 1.376 . S
N369 C373 1.383 . S
C370 N369 1.376 . S
C370 C371 1.446 . S
C370 C393 1.391 . S
C371 C370 1.446 . S
C371 C372 1.339 . S
C371 H400 0.949 . S
C372 C371 1.339 . S
C372 C373 1.439 . S
C372 H401 0.950 . S
C373 N369 1.383 . S
C373 C372 1.439 . S
C373 C391 1.392 . S
N374 Co358 2.282 . S
N374 C377 1.332 . S
N374 C379 1.332 . S
C375 C376 1.386 . S
C375 C378 1.388 . S
C376 C375 1.386 . S
C376 C377 1.382 . S
C376 H402 0.950 . S
C377 N374 1.332 . S
C377 C376 1.382 . S
C377 H388 0.952 . S
C378 C375 1.388 . S
C378 C379 1.382 . S
C378 H403 0.950 . S
C379 N374 1.332 . S
C379 C378 1.382 . S
C379 H389 0.948 . S
N380 Co358 2.282 . S
N380 C384 1.332 . S
N380 C385 1.332 . S
C381 C382 1.388 . S
C381 C385 1.382 . S
C381 H404 0.950 . S
C382 C381 1.388 . S
C382 C383 1.386 . S
C383 C382 1.386 . S
C383 C384 1.382 . S
C383 H405 0.950 . S
C384 N380 1.332 . S
C384 C383 1.382 . S
C384 H386 0.952 . S
C385 N380 1.332 . S
C385 C381 1.382 . S
C385 H387 0.948 . S
H386 C384 0.952 . S
H387 C385 0.948 . S
H388 C377 0.952 . S
H389 C379 0.948 . S
C390 C356 1.395 . S
C390 C360 1.391 . S
C391 C353 1.389 . S
C391 C373 1.392 . S
C392 C363 1.392 . S
C392 C365 1.389 . S
C393 C368 1.395 . S
C393 C370 1.391 . S
H394 C354 0.951 . S
H395 C355 0.950 . S
H396 C361 0.949 . S
H397 C362 0.950 . S
H398 C366 0.951 . S
H399 C367 0.950 . S
H400 C371 0.949 . S
H401 C372 0.950 . S
H402 C376 0.950 . S
H403 C378 0.950 . S
H404 C381 0.950 . S
H405 C383 0.950 . S
H406 C424 0.951 . S
H407 C426 0.951 . S
H408 C428 0.950 . S
H409 C429 0.950 . S
H410 C431 0.950 . S
H411 C434 0.950 . S
H412 C435 0.950 . S
H413 C437 0.950 . S
H414 C438 0.950 . S
H415 C439 0.951 . S
H416 C441 0.951 . S
H417 C443 0.950 . S
H418 C444 0.950 . S
H419 C446 0.950 . S
H420 C449 0.950 . S
H421 C450 0.950 . S
H422 C452 0.950 . S
H423 C453 0.950 . S
C424 H406 0.951 . S
C424 C425 1.366 . S
C424 C426 1.388 . S
C425 C424 1.366 . S
C425 C429 1.385 . S
C426 H407 0.951 . S
C426 C424 1.388 . S
C426 C427 1.366 . S
C427 C426 1.366 . S
C427 C428 1.414 . S
C427 C430 1.499 . S
C428 H408 0.950 . S
C428 C427 1.414 . S
C428 C429 1.374 . S
C429 H409 0.950 . S
C429 C425 1.385 . S
C429 C428 1.374 . S
C430 C427 1.499 . S
C430 C431 1.373 . S
C430 C432 1.389 . S
C431 H410 0.950 . S
C431 C430 1.373 . S
C431 C447 1.377 . S
C432 C430 1.389 . S
C432 C433 1.524 . S
C432 C446 1.377 . S
C433 C432 1.524 . S
C433 C434 1.397 . S
C433 C438 1.363 . S
C434 H411 0.950 . S
C434 C433 1.397 . S
C434 C435 1.334 . S
C435 H412 0.950 . S
C435 C434 1.334 . S
C435 C436 1.287 . S
C436 C435 1.287 . S
C436 C437 1.524 . S
C436 H455 0.913 . S
C437 H413 0.950 . S
C437 C436 1.524 . S
C437 C438 1.415 . S
C438 H414 0.950 . S
C438 C433 1.363 . S
C438 C437 1.415 . S
C439 H415 0.951 . S
C439 C440 1.366 . S
C439 C441 1.388 . S
C440 C439 1.366 . S
C440 C444 1.385 . S
C441 H416 0.951 . S
C441 C439 1.388 . S
C441 C442 1.366 . S
C442 C441 1.366 . S
C442 C443 1.414 . S
C442 C445 1.499 . S
C443 H417 0.950 . S
C443 C442 1.414 . S
C443 C444 1.374 . S
C444 H418 0.950 . S
C444 C440 1.385 . S
C444 C443 1.374 . S
C445 C442 1.499 . S
C445 C446 1.373 . S
C445 C447 1.389 . S
C446 H419 0.950 . S
C446 C432 1.377 . S
C446 C445 1.373 . S
C447 C431 1.377 . S
C447 C445 1.389 . S
C447 C448 1.524 . S
C448 C447 1.524 . S
C448 C449 1.397 . S
C448 C453 1.363 . S
C449 H420 0.950 . S
C449 C448 1.397 . S
C449 C450 1.334 . S
C450 H421 0.950 . S
C450 C449 1.334 . S
C450 C451 1.287 . S
C451 C450 1.287 . S
C451 C452 1.524 . S
C451 H454 0.999 . S
C452 H422 0.950 . S
C452 C451 1.524 . S
C452 C453 1.415 . S
C453 H423 0.950 . S
C453 C448 1.363 . S
C453 C452 1.415 . S
H454 C451 0.999 . S
H455 C436 0.913 . S
H456 C474 0.951 . S
H457 C476 0.951 . S
H458 C478 0.950 . S
H459 C479 0.950 . S
H460 C481 0.950 . S
H461 C484 0.950 . S
H462 C485 0.950 . S
H463 C487 0.950 . S
H464 C488 0.950 . S
H465 C489 0.951 . S
H466 C491 0.951 . S
H467 C493 0.950 . S
H468 C494 0.950 . S
H469 C496 0.950 . S
H470 C499 0.950 . S
H471 C500 0.950 . S
H472 C502 0.950 . S
H473 C503 0.950 . S
C474 H456 0.951 . S
C474 C475 1.366 . S
C474 C476 1.388 . S
C475 C474 1.366 . S
C475 C479 1.385 . S
C476 H457 0.951 . S
C476 C474 1.388 . S
C476 C477 1.366 . S
C477 C476 1.366 . S
C477 C478 1.414 . S
C477 C480 1.499 . S
C478 H458 0.950 . S
C478 C477 1.414 . S
C478 C479 1.374 . S
C479 H459 0.950 . S
C479 C475 1.385 . S
C479 C478 1.374 . S
C480 C477 1.499 . S
C480 C481 1.373 . S
C480 C482 1.389 . S
C481 H460 0.950 . S
C481 C480 1.373 . S
C481 C497 1.377 . S
C482 C480 1.389 . S
C482 C483 1.524 . S
C482 C496 1.377 . S
C483 C482 1.524 . S
C483 C484 1.397 . S
C483 C488 1.363 . S
C484 H461 0.950 . S
C484 C483 1.397 . S
C484 C485 1.334 . S
C485 H462 0.950 . S
C485 C484 1.334 . S
C485 C486 1.287 . S
C486 C485 1.287 . S
C486 C487 1.524 . S
C486 H505 0.913 . S
C487 H463 0.950 . S
C487 C486 1.524 . S
C487 C488 1.415 . S
C488 H464 0.950 . S
C488 C483 1.363 . S
C488 C487 1.415 . S
C489 H465 0.951 . S
C489 C490 1.366 . S
C489 C491 1.388 . S
C490 C489 1.366 . S
C490 C494 1.385 . S
C491 H466 0.951 . S
C491 C489 1.388 . S
C491 C492 1.366 . S
C492 C491 1.366 . S
C492 C493 1.414 . S
C492 C495 1.499 . S
C493 H467 0.950 . S
C493 C492 1.414 . S
C493 C494 1.374 . S
C494 H468 0.950 . S
C494 C490 1.385 . S
C494 C493 1.374 . S
C495 C492 1.499 . S
C495 C496 1.373 . S
C495 C497 1.389 . S
C496 H469 0.950 . S
C496 C482 1.377 . S
C496 C495 1.373 . S
C497 C481 1.377 . S
C497 C495 1.389 . S
C497 C498 1.524 . S
C498 C497 1.524 . S
C498 C499 1.397 . S
C498 C503 1.363 . S
C499 H470 0.950 . S
C499 C498 1.397 . S
C499 C500 1.334 . S
C500 H471 0.950 . S
C500 C499 1.334 . S
C500 C501 1.287 . S
C501 C500 1.287 . S
C501 C502 1.524 . S
C501 H504 0.999 . S
C502 H472 0.950 . S
C502 C501 1.524 . S
C502 C503 1.415 . S
C503 H473 0.950 . S
C503 C498 1.363 . S
C503 C502 1.415 . S
H504 C501 0.999 . S
H505 C486 0.913 . S
H506 C524 0.951 . S
H507 C526 0.951 . S
H508 C528 0.950 . S
H509 C529 0.950 . S
H510 C531 0.950 . S
H511 C534 0.950 . S
H512 C535 0.950 . S
H513 C537 0.950 . S
H514 C538 0.950 . S
H515 C539 0.951 1_455 S
H516 C541 0.951 . S
H517 C543 0.950 . S
H518 C544 0.950 . S
H519 C546 0.950 . S
H520 C549 0.950 . S
H521 C550 0.950 . S
H522 C552 0.950 . S
H523 C553 0.950 . S
C524 H506 0.951 . S
C524 C525 1.366 . S
C524 C526 1.388 . S
C525 C524 1.366 . S
C525 C529 1.385 . S
C526 H507 0.951 . S
C526 C524 1.388 . S
C526 C527 1.366 . S
C527 C526 1.366 . S
C527 C528 1.414 . S
C527 C530 1.499 . S
C528 H508 0.950 . S
C528 C527 1.414 . S
C528 C529 1.374 . S
C529 H509 0.950 . S
C529 C525 1.385 . S
C529 C528 1.374 . S
C530 C527 1.499 . S
C530 C531 1.373 . S
C530 C532 1.389 . S
C531 H510 0.950 . S
C531 C530 1.373 . S
C531 C547 1.377 . S
C532 C530 1.389 . S
C532 C533 1.524 . S
C532 C546 1.377 . S
C533 C532 1.524 . S
C533 C534 1.397 . S
C533 C538 1.363 . S
C534 H511 0.950 . S
C534 C533 1.397 . S
C534 C535 1.334 . S
C535 H512 0.950 . S
C535 C534 1.334 . S
C535 C536 1.287 . S
C536 C535 1.287 . S
C536 C537 1.524 . S
C536 H555 0.913 . S
C537 H513 0.950 . S
C537 C536 1.524 . S
C537 C538 1.415 . S
C538 H514 0.950 . S
C538 C533 1.363 . S
C538 C537 1.415 . S
C539 H515 0.951 1_655 S
C539 C540 1.366 . S
C539 C541 1.388 . S
C540 C539 1.366 . S
C540 C544 1.385 . S
C541 H516 0.951 . S
C541 C539 1.388 . S
C541 C542 1.366 . S
C542 C541 1.366 . S
C542 C543 1.414 . S
C542 C545 1.499 . S
C543 H517 0.950 . S
C543 C542 1.414 . S
C543 C544 1.374 . S
C544 H518 0.950 . S
C544 C540 1.385 . S
C544 C543 1.374 . S
C545 C542 1.499 . S
C545 C546 1.373 . S
C545 C547 1.389 . S
C546 H519 0.950 . S
C546 C532 1.377 . S
C546 C545 1.373 . S
C547 C531 1.377 . S
C547 C545 1.389 . S
C547 C548 1.524 . S
C548 C547 1.524 . S
C548 C549 1.397 . S
C548 C553 1.363 . S
C549 H520 0.950 . S
C549 C548 1.397 . S
C549 C550 1.334 . S
C550 H521 0.950 . S
C550 C549 1.334 . S
C550 C551 1.283 1_655 S
C551 C550 1.283 1_455 S
C551 C552 1.523 . S
C551 H554 1.006 . S
C552 H522 0.950 . S
C552 C551 1.523 . S
C552 C553 1.415 1_455 S
C553 H523 0.950 . S
C553 C548 1.363 . S
C553 C552 1.415 1_655 S
H554 C551 1.006 . S
H555 C536 0.913 . S
H556 C574 0.951 . S
H557 C576 0.951 . S
H558 C578 0.950 . S
H559 C579 0.950 . S
H560 C581 0.950 . S
H561 C584 0.950 . S
H562 C585 0.950 . S
H563 C587 0.950 . S
H564 C588 0.950 . S
H565 C589 0.951 . S
H566 C591 0.951 . S
H567 C593 0.950 . S
H568 C594 0.950 . S
H569 C596 0.950 . S
H570 C599 0.950 . S
H571 C600 0.950 . S
H572 C602 0.950 . S
H573 C603 0.950 . S
C574 H556 0.951 . S
C574 C575 1.366 . S
C574 C576 1.388 . S
C575 C574 1.366 . S
C575 C579 1.385 . S
C576 H557 0.951 . S
C576 C574 1.388 . S
C576 C577 1.366 . S
C577 C576 1.366 . S
C577 C578 1.414 . S
C577 C580 1.499 . S
C578 H558 0.950 . S
C578 C577 1.414 . S
C578 C579 1.374 . S
C579 H559 0.950 . S
C579 C575 1.385 . S
C579 C578 1.374 . S
C580 C577 1.499 . S
C580 C581 1.373 . S
C580 C582 1.389 . S
C581 H560 0.950 . S
C581 C580 1.373 . S
C581 C597 1.377 . S
C582 C580 1.389 . S
C582 C583 1.524 . S
C582 C596 1.377 . S
C583 C582 1.524 . S
C583 C584 1.397 . S
C583 C588 1.363 . S
C584 H561 0.950 . S
C584 C583 1.397 . S
C584 C585 1.334 . S
C585 H562 0.950 . S
C585 C584 1.334 . S
C585 C586 1.287 . S
C586 C585 1.287 . S
C586 C587 1.524 . S
C586 H605 0.913 . S
C587 H563 0.950 . S
C587 C586 1.524 . S
C587 C588 1.415 . S
C588 H564 0.950 . S
C588 C583 1.363 . S
C588 C587 1.415 . S
C589 H565 0.951 . S
C589 C590 1.366 . S
C589 C591 1.388 . S
C590 C589 1.366 . S
C590 C594 1.385 . S
C591 H566 0.951 . S
C591 C589 1.388 . S
C591 C592 1.366 . S
C592 C591 1.366 . S
C592 C593 1.414 . S
C592 C595 1.499 . S
C593 H567 0.950 . S
C593 C592 1.414 . S
C593 C594 1.374 . S
C594 H568 0.950 . S
C594 C590 1.385 . S
C594 C593 1.374 . S
C595 C592 1.499 . S
C595 C596 1.373 . S
C595 C597 1.389 . S
C596 H569 0.950 . S
C596 C582 1.377 . S
C596 C595 1.373 . S
C597 C581 1.377 . S
C597 C595 1.389 . S
C597 C598 1.524 . S
C598 C597 1.524 . S
C598 C599 1.397 . S
C598 C603 1.363 . S
C599 H570 0.950 . S
C599 C598 1.397 . S
C599 C600 1.334 . S
C600 H571 0.950 . S
C600 C599 1.334 . S
C600 C601 1.287 . S
C601 C600 1.287 . S
C601 C602 1.524 . S
C601 H604 0.999 . S
C602 H572 0.950 . S
C602 C601 1.524 . S
C602 C603 1.415 . S
C603 H573 0.950 . S
C603 C598 1.363 . S
C603 C602 1.415 . S
H604 C601 0.999 . S
H605 C586 0.913 . S
H606 C624 0.951 . S
H607 C626 0.951 . S
H608 C628 0.950 . S
H609 C629 0.950 . S
H610 C631 0.950 . S
H611 C634 0.950 . S
H612 C635 0.950 . S
H613 C637 0.950 . S
H614 C638 0.950 . S
H615 C639 0.951 . S
H616 C641 0.951 . S
H617 C643 0.950 . S
H618 C644 0.950 . S
H619 C646 0.950 . S
H620 C649 0.950 . S
H621 C650 0.950 . S
H622 C652 0.950 . S
H623 C653 0.950 . S
C624 H606 0.951 . S
C624 C625 1.366 . S
C624 C626 1.388 . S
C625 C624 1.366 . S
C625 C629 1.385 . S
C626 H607 0.951 . S
C626 C624 1.388 . S
C626 C627 1.366 . S
C627 C626 1.366 . S
C627 C628 1.414 . S
C627 C630 1.499 . S
C628 H608 0.950 . S
C628 C627 1.414 . S
C628 C629 1.374 . S
C629 H609 0.950 . S
C629 C625 1.385 . S
C629 C628 1.374 . S
C630 C627 1.499 . S
C630 C631 1.373 . S
C630 C632 1.389 . S
C631 H610 0.950 . S
C631 C630 1.373 . S
C631 C647 1.377 . S
C632 C630 1.389 . S
C632 C633 1.524 . S
C632 C646 1.377 . S
C633 C632 1.524 . S
C633 C634 1.397 . S
C633 C638 1.363 . S
C634 H611 0.950 . S
C634 C633 1.397 . S
C634 C635 1.334 . S
C635 H612 0.950 . S
C635 C634 1.334 . S
C635 C636 1.287 . S
C636 C635 1.287 . S
C636 C637 1.524 . S
C636 H655 0.913 . S
C637 H613 0.950 . S
C637 C636 1.524 . S
C637 C638 1.415 . S
C638 H614 0.950 . S
C638 C633 1.363 . S
C638 C637 1.415 . S
C639 H615 0.951 . S
C639 C640 1.366 . S
C639 C641 1.388 . S
C640 C639 1.366 . S
C640 C644 1.385 . S
C641 H616 0.951 . S
C641 C639 1.388 . S
C641 C642 1.366 . S
C642 C641 1.366 . S
C642 C643 1.414 . S
C642 C645 1.499 . S
C643 H617 0.950 . S
C643 C642 1.414 . S
C643 C644 1.374 . S
C644 H618 0.950 . S
C644 C640 1.385 . S
C644 C643 1.374 . S
C645 C642 1.499 . S
C645 C646 1.373 . S
C645 C647 1.389 . S
C646 H619 0.950 . S
C646 C632 1.377 . S
C646 C645 1.373 . S
C647 C631 1.377 . S
C647 C645 1.389 . S
C647 C648 1.524 . S
C648 C647 1.524 . S
C648 C649 1.397 . S
C648 C653 1.363 . S
C649 H620 0.950 . S
C649 C648 1.397 . S
C649 C650 1.334 . S
C650 H621 0.950 . S
C650 C649 1.334 . S
C650 C651 1.287 . S
C651 C650 1.287 . S
C651 C652 1.524 . S
C651 H654 0.999 . S
C652 H622 0.950 . S
C652 C651 1.524 . S
C652 C653 1.415 . S
C653 H623 0.950 . S
C653 C648 1.363 . S
C653 C652 1.415 . S
H654 C651 0.999 . S
H655 C636 0.913 . S
H656 C674 0.951 . S
H657 C676 0.951 . S
H658 C678 0.950 . S
H659 C679 0.950 . S
H660 C681 0.950 . S
H661 C684 0.950 . S
H662 C685 0.950 . S
H663 C687 0.950 . S
H664 C688 0.950 . S
H665 C689 0.951 . S
H666 C691 0.951 . S
H667 C693 0.950 . S
H668 C694 0.950 . S
H669 C696 0.950 . S
H670 C699 0.950 . S
H671 C700 0.950 . S
H672 C702 0.950 . S
H673 C703 0.950 . S
C674 H656 0.951 . S
C674 C675 1.366 . S
C674 C676 1.388 . S
C675 C674 1.366 . S
C675 C679 1.385 . S
C676 H657 0.951 . S
C676 C674 1.388 . S
C676 C677 1.366 . S
C677 C676 1.366 . S
C677 C678 1.414 . S
C677 C680 1.499 . S
C678 H658 0.950 . S
C678 C677 1.414 . S
C678 C679 1.374 . S
C679 H659 0.950 . S
C679 C675 1.385 . S
C679 C678 1.374 . S
C680 C677 1.499 . S
C680 C681 1.373 . S
C680 C682 1.389 . S
C681 H660 0.950 . S
C681 C680 1.373 . S
C681 C697 1.377 . S
C682 C680 1.389 . S
C682 C683 1.524 . S
C682 C696 1.377 . S
C683 C682 1.524 . S
C683 C684 1.397 . S
C683 C688 1.363 . S
C684 H661 0.950 . S
C684 C683 1.397 . S
C684 C685 1.334 . S
C685 H662 0.950 . S
C685 C684 1.334 . S
C685 C686 1.287 . S
C686 C685 1.287 . S
C686 C687 1.524 . S
C686 H705 0.913 . S
C687 H663 0.950 . S
C687 C686 1.524 . S
C687 C688 1.415 . S
C688 H664 0.950 . S
C688 C683 1.363 . S
C688 C687 1.415 . S
C689 H665 0.951 . S
C689 C690 1.366 . S
C689 C691 1.388 . S
C690 C689 1.366 . S
C690 C694 1.385 . S
C691 H666 0.951 . S
C691 C689 1.388 . S
C691 C692 1.366 . S
C692 C691 1.366 . S
C692 C693 1.414 . S
C692 C695 1.499 . S
C693 H667 0.950 . S
C693 C692 1.414 . S
C693 C694 1.374 . S
C694 H668 0.950 . S
C694 C690 1.385 . S
C694 C693 1.374 . S
C695 C692 1.499 . S
C695 C696 1.373 . S
C695 C697 1.389 . S
C696 H669 0.950 . S
C696 C682 1.377 . S
C696 C695 1.373 . S
C697 C681 1.377 . S
C697 C695 1.389 . S
C697 C698 1.524 . S
C698 C697 1.524 . S
C698 C699 1.397 . S
C698 C703 1.363 . S
C699 H670 0.950 . S
C699 C698 1.397 . S
C699 C700 1.334 . S
C700 H671 0.950 . S
C700 C699 1.334 . S
C700 C701 1.287 . S
C701 C700 1.287 . S
C701 C702 1.524 . S
C701 H704 0.999 . S
C702 H672 0.950 . S
C702 C701 1.524 . S
C702 C703 1.415 . S
C703 H673 0.950 . S
C703 C698 1.363 . S
C703 C702 1.415 . S
H704 C701 0.999 . S
H705 C686 0.913 . S
H706 C724 0.951 . S
H707 C726 0.951 . S
H708 C728 0.950 . S
H709 C729 0.950 . S
H710 C731 0.950 . S
H711 C734 0.950 . S
H712 C735 0.950 . S
H713 C737 0.950 . S
H714 C738 0.950 . S
H715 C739 0.951 . S
H716 C741 0.951 . S
H717 C743 0.950 . S
H718 C744 0.950 . S
H719 C746 0.950 . S
H720 C749 0.950 . S
H721 C750 0.950 . S
H722 C752 0.950 . S
H723 C753 0.950 . S
C724 H706 0.951 . S
C724 C725 1.366 . S
C724 C726 1.388 . S
C725 C724 1.366 . S
C725 C729 1.385 . S
C726 H707 0.951 . S
C726 C724 1.388 . S
C726 C727 1.366 . S
C727 C726 1.366 . S
C727 C728 1.414 . S
C727 C730 1.499 . S
C728 H708 0.950 . S
C728 C727 1.414 . S
C728 C729 1.374 . S
C729 H709 0.950 . S
C729 C725 1.385 . S
C729 C728 1.374 . S
C730 C727 1.499 . S
C730 C731 1.373 . S
C730 C732 1.389 . S
C731 H710 0.950 . S
C731 C730 1.373 . S
C731 C747 1.377 . S
C732 C730 1.389 . S
C732 C733 1.524 . S
C732 C746 1.377 . S
C733 C732 1.524 . S
C733 C734 1.397 . S
C733 C738 1.363 . S
C734 H711 0.950 . S
C734 C733 1.397 . S
C734 C735 1.334 . S
C735 H712 0.950 . S
C735 C734 1.334 . S
C735 C736 1.287 . S
C736 C735 1.287 . S
C736 C737 1.524 . S
C736 H755 0.913 . S
C737 H713 0.950 . S
C737 C736 1.524 . S
C737 C738 1.415 . S
C738 H714 0.950 . S
C738 C733 1.363 . S
C738 C737 1.415 . S
C739 H715 0.951 . S
C739 C740 1.366 . S
C739 C741 1.388 . S
C740 C739 1.366 . S
C740 C744 1.385 . S
C741 H716 0.951 . S
C741 C739 1.388 . S
C741 C742 1.366 . S
C742 C741 1.366 . S
C742 C743 1.414 . S
C742 C745 1.499 . S
C743 H717 0.950 . S
C743 C742 1.414 . S
C743 C744 1.374 . S
C744 H718 0.950 . S
C744 C740 1.385 . S
C744 C743 1.374 . S
C745 C742 1.499 . S
C745 C746 1.373 . S
C745 C747 1.389 . S
C746 H719 0.950 . S
C746 C732 1.377 . S
C746 C745 1.373 . S
C747 C731 1.377 . S
C747 C745 1.389 . S
C747 C748 1.524 . S
C748 C747 1.524 . S
C748 C749 1.397 . S
C748 C753 1.363 . S
C749 H720 0.950 . S
C749 C748 1.397 . S
C749 C750 1.334 . S
C750 H721 0.950 . S
C750 C749 1.334 . S
C750 C751 1.287 . S
C751 C750 1.287 . S
C751 C752 1.524 . S
C751 H754 0.999 . S
C752 H722 0.950 . S
C752 C751 1.524 . S
C752 C753 1.415 . S
C753 H723 0.950 . S
C753 C748 1.363 . S
C753 C752 1.415 . S
H754 C751 0.999 . S
H755 C736 0.913 . S
H756 C774 0.951 . S
H757 C776 0.951 . S
H758 C778 0.950 . S
H759 C779 0.950 . S
H760 C781 0.950 . S
H761 C784 0.950 . S
H762 C785 0.950 . S
H763 C787 0.950 . S
H764 C788 0.950 . S
H765 C789 0.951 . S
H766 C791 0.951 . S
H767 C793 0.950 . S
H768 C794 0.950 . S
H769 C796 0.950 . S
H770 C799 0.950 . S
H771 C800 0.950 . S
H772 C802 0.950 . S
H773 C803 0.950 . S
C774 H756 0.951 . S
C774 C775 1.366 . S
C774 C776 1.388 . S
C775 C774 1.366 . S
C775 C779 1.385 . S
C776 H757 0.951 . S
C776 C774 1.388 . S
C776 C777 1.366 . S
C777 C776 1.366 . S
C777 C778 1.414 . S
C777 C780 1.499 . S
C778 H758 0.950 . S
C778 C777 1.414 . S
C778 C779 1.374 . S
C779 H759 0.950 . S
C779 C775 1.385 . S
C779 C778 1.374 . S
C780 C777 1.499 . S
C780 C781 1.373 1_556 S
C780 C782 1.389 . S
C781 H760 0.950 . S
C781 C780 1.373 1_554 S
C781 C797 1.377 . S
C782 C780 1.389 . S
C782 C783 1.524 . S
C782 C796 1.377 1_556 S
C783 C782 1.524 . S
C783 C784 1.397 . S
C783 C788 1.363 . S
C784 H761 0.950 . S
C784 C783 1.397 . S
C784 C785 1.334 . S
C785 H762 0.950 . S
C785 C784 1.334 . S
C785 C786 1.287 . S
C786 C785 1.287 . S
C786 C787 1.524 . S
C786 H805 0.913 . S
C787 H763 0.950 . S
C787 C786 1.524 . S
C787 C788 1.415 . S
C788 H764 0.950 . S
C788 C783 1.363 . S
C788 C787 1.415 . S
C789 H765 0.951 . S
C789 C790 1.366 . S
C789 C791 1.388 . S
C790 C789 1.366 . S
C790 C794 1.385 . S
C791 H766 0.951 . S
C791 C789 1.388 . S
C791 C792 1.366 . S
C792 C791 1.366 . S
C792 C793 1.414 . S
C792 C795 1.499 . S
C793 H767 0.950 . S
C793 C792 1.414 . S
C793 C794 1.374 . S
C794 H768 0.950 . S
C794 C790 1.385 . S
C794 C793 1.374 . S
C795 C792 1.499 . S
C795 C796 1.373 . S
C795 C797 1.389 . S
C796 H769 0.950 . S
C796 C782 1.377 1_554 S
C796 C795 1.373 . S
C797 C781 1.377 . S
C797 C795 1.389 . S
C797 C798 1.524 . S
C798 C797 1.524 . S
C798 C799 1.397 . S
C798 C803 1.363 . S
C799 H770 0.950 . S
C799 C798 1.397 . S
C799 C800 1.334 . S
C800 H771 0.950 . S
C800 C799 1.334 . S
C800 C801 1.287 . S
C801 C800 1.287 . S
C801 C802 1.524 . S
C801 H804 0.999 . S
C802 H772 0.950 . S
C802 C801 1.524 . S
C802 C803 1.415 . S
C803 H773 0.950 . S
C803 C798 1.363 . S
C803 C802 1.415 . S
H804 C801 0.999 . S
H805 C786 0.913 . S
H806 C824 0.951 . S
H807 C826 0.951 . S
H808 C828 0.950 . S
H809 C829 0.950 . S
H810 C831 0.950 . S
H811 C834 0.950 . S
H812 C835 0.950 . S
H813 C837 0.950 . S
H814 C838 0.950 . S
H815 C839 0.951 . S
H816 C841 0.951 . S
H817 C843 0.950 . S
H818 C844 0.950 . S
H819 C846 0.950 . S
H820 C849 0.950 . S
H821 C850 0.950 . S
H822 C852 0.950 . S
H823 C853 0.950 . S
C824 H806 0.951 . S
C824 C825 1.366 . S
C824 C826 1.388 . S
C825 C824 1.366 . S
C825 C829 1.385 . S
C826 H807 0.951 . S
C826 C824 1.388 . S
C826 C827 1.366 . S
C827 C826 1.366 . S
C827 C828 1.414 . S
C827 C830 1.499 . S
C828 H808 0.950 . S
C828 C827 1.414 . S
C828 C829 1.374 . S
C829 H809 0.950 . S
C829 C825 1.385 . S
C829 C828 1.374 . S
C830 C827 1.499 . S
C830 C831 1.373 . S
C830 C832 1.389 . S
C831 H810 0.950 . S
C831 C830 1.373 . S
C831 C847 1.377 . S
C832 C830 1.389 . S
C832 C833 1.524 . S
C832 C846 1.377 . S
C833 C832 1.524 . S
C833 C834 1.397 . S
C833 C838 1.363 . S
C834 H811 0.950 . S
C834 C833 1.397 . S
C834 C835 1.334 . S
C835 H812 0.950 . S
C835 C834 1.334 . S
C835 C836 1.287 . S
C836 C835 1.287 . S
C836 C837 1.524 . S
C836 H855 0.913 . S
C837 H813 0.950 . S
C837 C836 1.524 . S
C837 C838 1.415 . S
C838 H814 0.950 . S
C838 C833 1.363 . S
C838 C837 1.415 . S
C839 H815 0.951 . S
C839 C840 1.366 . S
C839 C841 1.388 . S
C840 C839 1.366 . S
C840 C844 1.385 . S
C841 H816 0.951 . S
C841 C839 1.388 . S
C841 C842 1.366 . S
C842 C841 1.366 . S
C842 C843 1.414 . S
C842 C845 1.499 . S
C843 H817 0.950 . S
C843 C842 1.414 . S
C843 C844 1.374 . S
C844 H818 0.950 . S
C844 C840 1.385 . S
C844 C843 1.374 . S
C845 C842 1.499 . S
C845 C846 1.373 . S
C845 C847 1.389 . S
C846 H819 0.950 . S
C846 C832 1.377 . S
C846 C845 1.373 . S
C847 C831 1.377 . S
C847 C845 1.389 . S
C847 C848 1.524 . S
C848 C847 1.524 . S
C848 C849 1.397 . S
C848 C853 1.363 . S
C849 H820 0.950 . S
C849 C848 1.397 . S
C849 C850 1.334 . S
C850 H821 0.950 . S
C850 C849 1.334 . S
C850 C851 1.287 . S
C851 C850 1.287 . S
C851 C852 1.524 . S
C851 H854 0.999 . S
C852 H822 0.950 . S
C852 C851 1.524 . S
C852 C853 1.415 . S
C853 H823 0.950 . S
C853 C848 1.363 . S
C853 C852 1.415 . S
H854 C851 0.999 . S
H855 C836 0.913 . S
H856 C874 0.951 . S
H857 C876 0.951 . S
H858 C878 0.950 . S
H859 C879 0.950 . S
H860 C881 0.950 . S
H861 C884 0.950 . S
H862 C885 0.950 . S
H863 C887 0.950 . S
H864 C888 0.950 . S
H865 C889 0.951 . S
H866 C891 0.951 . S
H867 C893 0.950 . S
H868 C894 0.950 . S
H869 C896 0.950 . S
H870 C899 0.950 . S
H871 C900 0.950 . S
H872 C902 0.950 . S
H873 C903 0.950 . S
C874 H856 0.951 . S
C874 C875 1.366 . S
C874 C876 1.388 . S
C875 C874 1.366 . S
C875 C879 1.385 . S
C876 H857 0.951 . S
C876 C874 1.388 . S
C876 C877 1.366 . S
C877 C876 1.366 . S
C877 C878 1.414 . S
C877 C880 1.499 . S
C878 H858 0.950 . S
C878 C877 1.414 . S
C878 C879 1.374 . S
C879 H859 0.950 . S
C879 C875 1.385 . S
C879 C878 1.374 . S
C880 C877 1.499 . S
C880 C881 1.373 . S
C880 C882 1.389 . S
C881 H860 0.950 . S
C881 C880 1.373 . S
C881 C897 1.377 . S
C882 C880 1.389 . S
C882 C883 1.524 . S
C882 C896 1.377 . S
C883 C882 1.524 . S
C883 C884 1.397 . S
C883 C888 1.363 . S
C884 H861 0.950 . S
C884 C883 1.397 . S
C884 C885 1.334 . S
C885 H862 0.950 . S
C885 C884 1.334 . S
C885 C886 1.287 . S
C886 C885 1.287 . S
C886 C887 1.524 . S
C886 H905 0.913 . S
C887 H863 0.950 . S
C887 C886 1.524 . S
C887 C888 1.415 . S
C888 H864 0.950 . S
C888 C883 1.363 . S
C888 C887 1.415 . S
C889 H865 0.951 . S
C889 C890 1.366 . S
C889 C891 1.388 . S
C890 C889 1.366 . S
C890 C894 1.385 . S
C891 H866 0.951 . S
C891 C889 1.388 . S
C891 C892 1.366 . S
C892 C891 1.366 . S
C892 C893 1.414 . S
C892 C895 1.499 . S
C893 H867 0.950 . S
C893 C892 1.414 . S
C893 C894 1.374 . S
C894 H868 0.950 . S
C894 C890 1.385 . S
C894 C893 1.374 . S
C895 C892 1.499 . S
C895 C896 1.373 . S
C895 C897 1.389 . S
C896 H869 0.950 . S
C896 C882 1.377 . S
C896 C895 1.373 . S
C897 C881 1.377 . S
C897 C895 1.389 . S
C897 C898 1.524 . S
C898 C897 1.524 . S
C898 C899 1.397 . S
C898 C903 1.363 . S
C899 H870 0.950 . S
C899 C898 1.397 . S
C899 C900 1.334 . S
C900 H871 0.950 . S
C900 C899 1.334 . S
C900 C901 1.287 . S
C901 C900 1.287 . S
C901 C902 1.524 . S
C901 H904 0.999 . S
C902 H872 0.950 . S
C902 C901 1.524 . S
C902 C903 1.415 . S
C903 H873 0.950 . S
C903 C898 1.363 . S
C903 C902 1.415 . S
H904 C901 0.999 . S
H905 C886 0.913 . S
H906 C924 0.951 . S
H907 C926 0.951 . S
H908 C928 0.950 . S
H909 C929 0.950 . S
H910 C931 0.950 . S
H911 C934 0.950 . S
H912 C935 0.950 . S
H913 C937 0.950 . S
H914 C938 0.950 . S
H915 C939 0.951 . S
H916 C941 0.951 . S
H917 C943 0.950 . S
H918 C944 0.950 . S
H919 C946 0.950 . S
H920 C949 0.950 . S
H921 C950 0.950 . S
H922 C952 0.950 . S
H923 C953 0.950 . S
C924 H906 0.951 . S
C924 C925 1.366 . S
C924 C926 1.388 . S
C925 C924 1.366 . S
C925 C929 1.385 . S
C926 H907 0.951 . S
C926 C924 1.388 . S
C926 C927 1.366 . S
C927 C926 1.366 . S
C927 C928 1.414 . S
C927 C930 1.499 . S
C928 H908 0.950 . S
C928 C927 1.414 . S
C928 C929 1.374 . S
C929 H909 0.950 . S
C929 C925 1.385 . S
C929 C928 1.374 . S
C930 C927 1.499 . S
C930 C931 1.373 . S
C930 C932 1.389 . S
C931 H910 0.950 . S
C931 C930 1.373 . S
C931 C947 1.377 . S
C932 C930 1.389 . S
C932 C933 1.524 . S
C932 C946 1.377 . S
C933 C932 1.524 . S
C933 C934 1.397 . S
C933 C938 1.363 . S
C934 H911 0.950 . S
C934 C933 1.397 . S
C934 C935 1.334 . S
C935 H912 0.950 . S
C935 C934 1.334 . S
C935 C936 1.287 . S
C936 C935 1.287 . S
C936 C937 1.524 . S
C936 H955 0.913 . S
C937 H913 0.950 . S
C937 C936 1.524 . S
C937 C938 1.415 . S
C938 H914 0.950 . S
C938 C933 1.363 . S
C938 C937 1.415 . S
C939 H915 0.951 . S
C939 C940 1.366 . S
C939 C941 1.388 . S
C940 C939 1.366 . S
C940 C944 1.385 . S
C941 H916 0.951 . S
C941 C939 1.388 . S
C941 C942 1.366 . S
C942 C941 1.366 . S
C942 C943 1.414 . S
C942 C945 1.499 . S
C943 H917 0.950 . S
C943 C942 1.414 . S
C943 C944 1.374 . S
C944 H918 0.950 . S
C944 C940 1.385 . S
C944 C943 1.374 . S
C945 C942 1.499 . S
C945 C946 1.373 . S
C945 C947 1.389 . S
C946 H919 0.950 . S
C946 C932 1.377 . S
C946 C945 1.373 . S
C947 C931 1.377 . S
C947 C945 1.389 . S
C947 C948 1.524 . S
C948 C947 1.524 . S
C948 C949 1.397 . S
C948 C953 1.363 . S
C949 H920 0.950 . S
C949 C948 1.397 . S
C949 C950 1.334 . S
C950 H921 0.950 . S
C950 C949 1.334 . S
C950 C951 1.287 . S
C951 C950 1.287 . S
C951 C952 1.524 . S
C951 H954 0.999 . S
C952 H922 0.950 . S
C952 C951 1.524 . S
C952 C953 1.415 . S
C953 H923 0.950 . S
C953 C948 1.363 . S
C953 C952 1.415 . S
H954 C951 0.999 . S
H955 C936 0.913 . S
H956 C974 0.951 . S
H957 C976 0.951 . S
H958 C978 0.950 . S
H959 C979 0.950 . S
H960 C981 0.950 . S
H961 C984 0.950 . S
H962 C985 0.950 . S
H963 C987 0.950 . S
H964 C988 0.950 . S
H965 C989 0.951 . S
H966 C991 0.951 . S
H967 C993 0.950 . S
H968 C994 0.950 . S
H969 C996 0.950 . S
H970 C999 0.950 . S
H971 C1000 0.950 . S
H972 C1002 0.950 . S
H973 C1003 0.950 . S
C974 H956 0.951 . S
C974 C975 1.366 . S
C974 C976 1.388 . S
C975 C974 1.366 . S
C975 C979 1.385 . S
C976 H957 0.951 . S
C976 C974 1.388 . S
C976 C977 1.366 . S
C977 C976 1.366 . S
C977 C978 1.414 . S
C977 C980 1.499 . S
C978 H958 0.950 . S
C978 C977 1.414 . S
C978 C979 1.374 . S
C979 H959 0.950 . S
C979 C975 1.385 . S
C979 C978 1.374 . S
C980 C977 1.499 . S
C980 C981 1.373 . S
C980 C982 1.389 . S
C981 H960 0.950 . S
C981 C980 1.373 . S
C981 C997 1.377 . S
C982 C980 1.389 . S
C982 C983 1.524 . S
C982 C996 1.377 . S
C983 C982 1.524 . S
C983 C984 1.397 . S
C983 C988 1.363 . S
C984 H961 0.950 . S
C984 C983 1.397 . S
C984 C985 1.334 . S
C985 H962 0.950 . S
C985 C984 1.334 . S
C985 C986 1.287 . S
C986 C985 1.287 . S
C986 C987 1.524 . S
C986 H1005 0.913 . S
C987 H963 0.950 . S
C987 C986 1.524 . S
C987 C988 1.415 . S
C988 H964 0.950 . S
C988 C983 1.363 . S
C988 C987 1.415 . S
C989 H965 0.951 . S
C989 C990 1.366 . S
C989 C991 1.388 . S
C990 C989 1.366 . S
C990 C994 1.385 . S
C991 H966 0.951 . S
C991 C989 1.388 . S
C991 C992 1.366 . S
C992 C991 1.366 . S
C992 C993 1.414 . S
C992 C995 1.499 . S
C993 H967 0.950 . S
C993 C992 1.414 . S
C993 C994 1.374 . S
C994 H968 0.950 . S
C994 C990 1.385 . S
C994 C993 1.374 . S
C995 C992 1.499 . S
C995 C996 1.373 . S
C995 C997 1.389 . S
C996 H969 0.950 . S
C996 C982 1.377 . S
C996 C995 1.373 . S
C997 C981 1.377 . S
C997 C995 1.389 . S
C997 C998 1.524 . S
C998 C997 1.524 . S
C998 C999 1.397 . S
C998 C1003 1.363 . S
C999 H970 0.950 . S
C999 C998 1.397 . S
C999 C1000 1.334 . S
C1000 H971 0.950 . S
C1000 C999 1.334 . S
C1000 C1001 1.287 . S
C1001 C1000 1.287 . S
C1001 C1002 1.524 . S
C1001 H1004 0.999 . S
C1002 H972 0.950 . S
C1002 C1001 1.524 . S
C1002 C1003 1.415 . S
C1003 H973 0.950 . S
C1003 C998 1.363 . S
C1003 C1002 1.415 . S
H1004 C1001 0.999 . S
H1005 C986 0.913 . S
H1006 C1024 0.951 . S
H1007 C1026 0.951 . S
H1008 C1028 0.950 . S
H1009 C1029 0.950 . S
H1010 C1031 0.950 . S
H1011 C1034 0.950 . S
H1012 C1035 0.950 . S
H1013 C1037 0.950 . S
H1014 C1038 0.950 . S
H1015 C1039 0.951 . S
H1016 C1041 0.951 . S
H1017 C1043 0.950 . S
H1018 C1044 0.950 . S
H1019 C1046 0.950 . S
H1020 C1049 0.950 . S
H1021 C1050 0.950 . S
H1022 C1052 0.950 . S
H1023 C1053 0.950 . S
C1024 H1006 0.951 . S
C1024 C1025 1.366 . S
C1024 C1026 1.388 . S
C1025 C1024 1.366 . S
C1025 C1029 1.385 . S
C1026 H1007 0.951 . S
C1026 C1024 1.388 . S
C1026 C1027 1.366 . S
C1027 C1026 1.366 . S
C1027 C1028 1.414 . S
C1027 C1030 1.499 . S
C1028 H1008 0.950 . S
C1028 C1027 1.414 . S
C1028 C1029 1.374 . S
C1029 H1009 0.950 . S
C1029 C1025 1.385 . S
C1029 C1028 1.374 . S
C1030 C1027 1.499 . S
C1030 C1031 1.373 . S
C1030 C1032 1.389 . S
C1031 H1010 0.950 . S
C1031 C1030 1.373 . S
C1031 C1047 1.377 . S
C1032 C1030 1.389 . S
C1032 C1033 1.524 . S
C1032 C1046 1.377 . S
C1033 C1032 1.524 . S
C1033 C1034 1.397 . S
C1033 C1038 1.363 . S
C1034 H1011 0.950 . S
C1034 C1033 1.397 . S
C1034 C1035 1.334 . S
C1035 H1012 0.950 . S
C1035 C1034 1.334 . S
C1035 C1036 1.287 . S
C1036 C1035 1.287 . S
C1036 C1037 1.524 . S
C1036 H1055 0.913 . S
C1037 H1013 0.950 . S
C1037 C1036 1.524 . S
C1037 C1038 1.415 . S
C1038 H1014 0.950 . S
C1038 C1033 1.363 . S
C1038 C1037 1.415 . S
C1039 H1015 0.951 . S
C1039 C1040 1.366 . S
C1039 C1041 1.388 . S
C1040 C1039 1.366 . S
C1040 C1044 1.385 . S
C1041 H1016 0.951 . S
C1041 C1039 1.388 . S
C1041 C1042 1.366 . S
C1042 C1041 1.366 . S
C1042 C1043 1.414 . S
C1042 C1045 1.499 . S
C1043 H1017 0.950 . S
C1043 C1042 1.414 . S
C1043 C1044 1.374 . S
C1044 H1018 0.950 . S
C1044 C1040 1.385 . S
C1044 C1043 1.374 . S
C1045 C1042 1.499 . S
C1045 C1046 1.373 . S
C1045 C1047 1.389 . S
C1046 H1019 0.950 . S
C1046 C1032 1.377 . S
C1046 C1045 1.373 . S
C1047 C1031 1.377 . S
C1047 C1045 1.389 . S
C1047 C1048 1.524 . S
C1048 C1047 1.524 . S
C1048 C1049 1.397 . S
C1048 C1053 1.363 . S
C1049 H1020 0.950 . S
C1049 C1048 1.397 . S
C1049 C1050 1.334 . S
C1050 H1021 0.950 . S
C1050 C1049 1.334 . S
C1050 C1051 1.287 . S
C1051 C1050 1.287 . S
C1051 C1052 1.524 . S
C1051 H1054 0.999 . S
C1052 H1022 0.950 . S
C1052 C1051 1.524 . S
C1052 C1053 1.415 . S
C1053 H1023 0.950 . S
C1053 C1048 1.363 . S
C1053 C1052 1.415 . S
H1054 C1051 0.999 . S
H1055 C1036 0.913 . S
H1056 C1074 0.951 . S
H1057 C1076 0.951 . S
H1058 C1078 0.950 . S
H1059 C1079 0.950 . S
H1060 C1081 0.950 . S
H1061 C1084 0.950 . S
H1062 C1085 0.950 . S
H1063 C1087 0.950 . S
H1064 C1088 0.950 . S
H1065 C1089 0.951 1_455 S
H1066 C1091 0.951 . S
H1067 C1093 0.950 . S
H1068 C1094 0.950 . S
H1069 C1096 0.950 . S
H1070 C1099 0.950 . S
H1071 C1100 0.950 . S
H1072 C1102 0.950 1_455 S
H1073 C1103 0.950 . S
C1074 H1056 0.951 . S
C1074 C1075 1.366 . S
C1074 C1076 1.388 . S
C1075 C1074 1.366 . S
C1075 C1079 1.385 . S
C1076 H1057 0.951 . S
C1076 C1074 1.388 . S
C1076 C1077 1.366 . S
C1077 C1076 1.366 . S
C1077 C1078 1.414 . S
C1077 C1080 1.499 . S
C1078 H1058 0.950 . S
C1078 C1077 1.414 . S
C1078 C1079 1.374 . S
C1079 H1059 0.950 . S
C1079 C1075 1.385 . S
C1079 C1078 1.374 . S
C1080 C1077 1.499 . S
C1080 C1081 1.373 . S
C1080 C1082 1.389 . S
C1081 H1060 0.950 . S
C1081 C1080 1.373 . S
C1081 C1097 1.377 . S
C1082 C1080 1.389 . S
C1082 C1083 1.524 . S
C1082 C1096 1.377 . S
C1083 C1082 1.524 . S
C1083 C1084 1.397 . S
C1083 C1088 1.363 . S
C1084 H1061 0.950 . S
C1084 C1083 1.397 . S
C1084 C1085 1.334 . S
C1085 H1062 0.950 . S
C1085 C1084 1.334 . S
C1085 C1086 1.287 . S
C1086 C1085 1.287 . S
C1086 C1087 1.524 . S
C1086 H1105 0.913 . S
C1087 H1063 0.950 . S
C1087 C1086 1.524 . S
C1087 C1088 1.415 . S
C1088 H1064 0.950 . S
C1088 C1083 1.363 . S
C1088 C1087 1.415 . S
C1089 H1065 0.951 1_655 S
C1089 C1090 1.366 . S
C1089 C1091 1.388 . S
C1090 C1089 1.366 . S
C1090 C1094 1.385 . S
C1091 H1066 0.951 . S
C1091 C1089 1.388 . S
C1091 C1092 1.366 . S
C1092 C1091 1.366 . S
C1092 C1093 1.414 . S
C1092 C1095 1.499 . S
C1093 H1067 0.950 . S
C1093 C1092 1.414 . S
C1093 C1094 1.374 . S
C1094 H1068 0.950 . S
C1094 C1090 1.385 . S
C1094 C1093 1.374 . S
C1095 C1092 1.499 . S
C1095 C1096 1.373 . S
C1095 C1097 1.389 . S
C1096 H1069 0.950 . S
C1096 C1082 1.377 . S
C1096 C1095 1.373 . S
C1097 C1081 1.377 . S
C1097 C1095 1.389 . S
C1097 C1098 1.524 . S
C1098 C1097 1.524 . S
C1098 C1099 1.397 . S
C1098 C1103 1.363 . S
C1099 H1070 0.950 . S
C1099 C1098 1.397 . S
C1099 C1100 1.334 . S
C1100 H1071 0.950 . S
C1100 C1099 1.334 . S
C1100 C1101 1.287 . S
C1101 C1100 1.287 . S
C1101 C1102 1.524 . S
C1101 H1104 0.999 1_655 S
C1102 H1072 0.950 1_655 S
C1102 C1101 1.524 . S
C1102 C1103 1.415 . S
C1103 H1073 0.950 . S
C1103 C1098 1.363 . S
C1103 C1102 1.415 . S
H1104 C1101 0.999 1_455 S
H1105 C1086 0.913 . S
H1106 C1124 0.951 . S
H1107 C1126 0.951 . S
H1108 C1128 0.950 . S
H1109 C1129 0.950 . S
H1110 C1131 0.950 . S
H1111 C1134 0.950 . S
H1112 C1135 0.950 . S
H1113 C1137 0.950 . S
H1114 C1138 0.950 . S
H1115 C1139 0.951 . S
H1116 C1141 0.951 . S
H1117 C1143 0.950 . S
H1118 C1144 0.950 . S
H1119 C1146 0.950 . S
H1120 C1149 0.950 . S
H1121 C1150 0.950 . S
H1122 C1152 0.950 . S
H1123 C1153 0.950 . S
C1124 H1106 0.951 . S
C1124 C1125 1.366 . S
C1124 C1126 1.388 . S
C1125 C1124 1.366 . S
C1125 C1129 1.385 . S
C1126 H1107 0.951 . S
C1126 C1124 1.388 . S
C1126 C1127 1.366 . S
C1127 C1126 1.366 . S
C1127 C1128 1.414 . S
C1127 C1130 1.499 . S
C1128 H1108 0.950 . S
C1128 C1127 1.414 . S
C1128 C1129 1.374 . S
C1129 H1109 0.950 . S
C1129 C1125 1.385 . S
C1129 C1128 1.374 . S
C1130 C1127 1.499 . S
C1130 C1131 1.373 . S
C1130 C1132 1.389 . S
C1131 H1110 0.950 . S
C1131 C1130 1.373 . S
C1131 C1147 1.377 . S
C1132 C1130 1.389 . S
C1132 C1133 1.524 . S
C1132 C1146 1.377 . S
C1133 C1132 1.524 . S
C1133 C1134 1.397 . S
C1133 C1138 1.363 . S
C1134 H1111 0.950 . S
C1134 C1133 1.397 . S
C1134 C1135 1.334 . S
C1135 H1112 0.950 . S
C1135 C1134 1.334 . S
C1135 C1136 1.287 . S
C1136 C1135 1.287 . S
C1136 C1137 1.524 . S
C1136 H1155 0.913 . S
C1137 H1113 0.950 . S
C1137 C1136 1.524 . S
C1137 C1138 1.415 . S
C1138 H1114 0.950 . S
C1138 C1133 1.363 . S
C1138 C1137 1.415 . S
C1139 H1115 0.951 . S
C1139 C1140 1.366 . S
C1139 C1141 1.388 . S
C1140 C1139 1.366 . S
C1140 C1144 1.385 . S
C1141 H1116 0.951 . S
C1141 C1139 1.388 . S
C1141 C1142 1.366 . S
C1142 C1141 1.366 . S
C1142 C1143 1.414 . S
C1142 C1145 1.499 . S
C1143 H1117 0.950 . S
C1143 C1142 1.414 . S
C1143 C1144 1.374 . S
C1144 H1118 0.950 . S
C1144 C1140 1.385 . S
C1144 C1143 1.374 . S
C1145 C1142 1.499 . S
C1145 C1146 1.373 . S
C1145 C1147 1.389 . S
C1146 H1119 0.950 . S
C1146 C1132 1.377 . S
C1146 C1145 1.373 . S
C1147 C1131 1.377 . S
C1147 C1145 1.389 . S
C1147 C1148 1.524 . S
C1148 C1147 1.524 . S
C1148 C1149 1.397 . S
C1148 C1153 1.363 . S
C1149 H1120 0.950 . S
C1149 C1148 1.397 . S
C1149 C1150 1.334 . S
C1150 H1121 0.950 . S
C1150 C1149 1.334 . S
C1150 C1151 1.287 . S
C1151 C1150 1.287 . S
C1151 C1152 1.524 . S
C1151 H1154 0.999 . S
C1152 H1122 0.950 . S
C1152 C1151 1.524 . S
C1152 C1153 1.415 . S
C1153 H1123 0.950 . S
C1153 C1148 1.363 . S
C1153 C1152 1.415 . S
H1154 C1151 0.999 . S
H1155 C1136 0.913 . S
H1156 C1174 0.951 . S
H1157 C1176 0.951 . S
H1158 C1178 0.950 . S
H1159 C1179 0.950 . S
H1160 C1181 0.950 . S
H1161 C1184 0.950 . S
H1162 C1185 0.950 . S
H1163 C1187 0.950 . S
H1164 C1188 0.950 . S
H1165 C1189 0.951 . S
H1166 C1191 0.951 . S
H1167 C1193 0.950 . S
H1168 C1194 0.950 . S
H1169 C1196 0.950 . S
H1170 C1199 0.950 . S
H1171 C1200 0.950 . S
H1172 C1202 0.950 . S
H1173 C1203 0.950 . S
C1174 H1156 0.951 . S
C1174 C1175 1.366 . S
C1174 C1176 1.388 . S
C1175 C1174 1.366 . S
C1175 C1179 1.385 . S
C1176 H1157 0.951 . S
C1176 C1174 1.388 . S
C1176 C1177 1.366 . S
C1177 C1176 1.366 . S
C1177 C1178 1.414 . S
C1177 C1180 1.499 . S
C1178 H1158 0.950 . S
C1178 C1177 1.414 . S
C1178 C1179 1.374 . S
C1179 H1159 0.950 . S
C1179 C1175 1.385 . S
C1179 C1178 1.374 . S
C1180 C1177 1.499 . S
C1180 C1181 1.373 . S
C1180 C1182 1.389 . S
C1181 H1160 0.950 . S
C1181 C1180 1.373 . S
C1181 C1197 1.377 . S
C1182 C1180 1.389 . S
C1182 C1183 1.524 . S
C1182 C1196 1.377 . S
C1183 C1182 1.524 . S
C1183 C1184 1.397 . S
C1183 C1188 1.363 . S
C1184 H1161 0.950 . S
C1184 C1183 1.397 . S
C1184 C1185 1.334 . S
C1185 H1162 0.950 . S
C1185 C1184 1.334 . S
C1185 C1186 1.287 . S
C1186 C1185 1.287 . S
C1186 C1187 1.524 . S
C1186 H1205 0.913 . S
C1187 H1163 0.950 . S
C1187 C1186 1.524 . S
C1187 C1188 1.415 . S
C1188 H1164 0.950 . S
C1188 C1183 1.363 . S
C1188 C1187 1.415 . S
C1189 H1165 0.951 . S
C1189 C1190 1.366 . S
C1189 C1191 1.388 . S
C1190 C1189 1.366 . S
C1190 C1194 1.385 . S
C1191 H1166 0.951 . S
C1191 C1189 1.388 . S
C1191 C1192 1.366 . S
C1192 C1191 1.366 . S
C1192 C1193 1.414 . S
C1192 C1195 1.499 . S
C1193 H1167 0.950 . S
C1193 C1192 1.414 . S
C1193 C1194 1.374 . S
C1194 H1168 0.950 . S
C1194 C1190 1.385 . S
C1194 C1193 1.374 . S
C1195 C1192 1.499 . S
C1195 C1196 1.373 . S
C1195 C1197 1.389 . S
C1196 H1169 0.950 . S
C1196 C1182 1.377 . S
C1196 C1195 1.373 . S
C1197 C1181 1.377 . S
C1197 C1195 1.389 . S
C1197 C1198 1.524 . S
C1198 C1197 1.524 . S
C1198 C1199 1.397 . S
C1198 C1203 1.363 . S
C1199 H1170 0.950 . S
C1199 C1198 1.397 . S
C1199 C1200 1.334 . S
C1200 H1171 0.950 . S
C1200 C1199 1.334 . S
C1200 C1201 1.287 . S
C1201 C1200 1.287 . S
C1201 C1202 1.524 . S
C1201 H1204 0.999 . S
C1202 H1172 0.950 . S
C1202 C1201 1.524 . S
C1202 C1203 1.415 . S
C1203 H1173 0.950 . S
C1203 C1198 1.363 . S
C1203 C1202 1.415 . S
H1204 C1201 0.999 . S
H1205 C1186 0.913 . S
H1206 C1224 0.951 . S
H1207 C1226 0.951 . S
H1208 C1228 0.950 . S
H1209 C1229 0.950 . S
H1210 C1231 0.950 . S
H1211 C1234 0.950 . S
H1212 C1235 0.950 . S
H1213 C1237 0.950 . S
H1214 C1238 0.950 . S
H1215 C1239 0.951 . S
H1216 C1241 0.951 . S
H1217 C1243 0.950 . S
H1218 C1244 0.950 . S
H1219 C1246 0.950 . S
H1220 C1249 0.950 . S
H1221 C1250 0.950 . S
H1222 C1252 0.950 . S
H1223 C1253 0.950 . S
C1224 H1206 0.951 . S
C1224 C1225 1.366 . S
C1224 C1226 1.388 . S
C1225 C1224 1.366 . S
C1225 C1229 1.385 . S
C1226 H1207 0.951 . S
C1226 C1224 1.388 . S
C1226 C1227 1.366 . S
C1227 C1226 1.366 . S
C1227 C1228 1.414 . S
C1227 C1230 1.499 . S
C1228 H1208 0.950 . S
C1228 C1227 1.414 . S
C1228 C1229 1.374 . S
C1229 H1209 0.950 . S
C1229 C1225 1.385 . S
C1229 C1228 1.374 . S
C1230 C1227 1.499 . S
C1230 C1231 1.373 . S
C1230 C1232 1.389 . S
C1231 H1210 0.950 . S
C1231 C1230 1.373 . S
C1231 C1247 1.377 . S
C1232 C1230 1.389 . S
C1232 C1233 1.524 . S
C1232 C1246 1.377 . S
C1233 C1232 1.524 . S
C1233 C1234 1.397 . S
C1233 C1238 1.363 . S
C1234 H1211 0.950 . S
C1234 C1233 1.397 . S
C1234 C1235 1.334 . S
C1235 H1212 0.950 . S
C1235 C1234 1.334 . S
C1235 C1236 1.287 . S
C1236 C1235 1.287 . S
C1236 C1237 1.524 . S
C1236 H1255 0.913 . S
C1237 H1213 0.950 . S
C1237 C1236 1.524 . S
C1237 C1238 1.415 . S
C1238 H1214 0.950 . S
C1238 C1233 1.363 . S
C1238 C1237 1.415 . S
C1239 H1215 0.951 . S
C1239 C1240 1.366 . S
C1239 C1241 1.388 . S
C1240 C1239 1.366 . S
C1240 C1244 1.385 . S
C1241 H1216 0.951 . S
C1241 C1239 1.388 . S
C1241 C1242 1.366 . S
C1242 C1241 1.366 . S
C1242 C1243 1.414 . S
C1242 C1245 1.499 . S
C1243 H1217 0.950 . S
C1243 C1242 1.414 . S
C1243 C1244 1.374 . S
C1244 H1218 0.950 . S
C1244 C1240 1.385 . S
C1244 C1243 1.374 . S
C1245 C1242 1.499 . S
C1245 C1246 1.373 . S
C1245 C1247 1.389 . S
C1246 H1219 0.950 . S
C1246 C1232 1.377 . S
C1246 C1245 1.373 . S
C1247 C1231 1.377 . S
C1247 C1245 1.389 . S
C1247 C1248 1.524 . S
C1248 C1247 1.524 . S
C1248 C1249 1.397 . S
C1248 C1253 1.363 . S
C1249 H1220 0.950 . S
C1249 C1248 1.397 . S
C1249 C1250 1.334 . S
C1250 H1221 0.950 . S
C1250 C1249 1.334 . S
C1250 C1251 1.287 . S
C1251 C1250 1.287 . S
C1251 C1252 1.524 . S
C1251 H1254 0.999 . S
C1252 H1222 0.950 . S
C1252 C1251 1.524 . S
C1252 C1253 1.415 . S
C1253 H1223 0.950 . S
C1253 C1248 1.363 . S
C1253 C1252 1.415 . S
H1254 C1251 0.999 . S
H1255 C1236 0.913 . S
H1256 C1274 0.951 . S
H1257 C1276 0.951 . S
H1258 C1278 0.950 . S
H1259 C1279 0.950 . S
H1260 C1281 0.950 . S
H1261 C1284 0.950 . S
H1262 C1285 0.950 . S
H1263 C1287 0.950 . S
H1264 C1288 0.950 . S
H1265 C1289 0.951 . S
H1266 C1291 0.951 . S
H1267 C1293 0.950 . S
H1268 C1294 0.950 . S
H1269 C1296 0.950 . S
H1270 C1299 0.950 . S
H1271 C1300 0.950 . S
H1272 C1302 0.950 . S
H1273 C1303 0.950 . S
C1274 H1256 0.951 . S
C1274 C1275 1.366 . S
C1274 C1276 1.388 . S
C1275 C1274 1.366 . S
C1275 C1279 1.385 . S
C1276 H1257 0.951 . S
C1276 C1274 1.388 . S
C1276 C1277 1.366 . S
C1277 C1276 1.366 . S
C1277 C1278 1.414 . S
C1277 C1280 1.499 . S
C1278 H1258 0.950 . S
C1278 C1277 1.414 . S
C1278 C1279 1.374 . S
C1279 H1259 0.950 . S
C1279 C1275 1.385 . S
C1279 C1278 1.374 . S
C1280 C1277 1.499 . S
C1280 C1281 1.373 . S
C1280 C1282 1.389 . S
C1281 H1260 0.950 . S
C1281 C1280 1.373 . S
C1281 C1297 1.377 . S
C1282 C1280 1.389 . S
C1282 C1283 1.524 . S
C1282 C1296 1.377 . S
C1283 C1282 1.524 . S
C1283 C1284 1.397 . S
C1283 C1288 1.363 . S
C1284 H1261 0.950 . S
C1284 C1283 1.397 . S
C1284 C1285 1.334 . S
C1285 H1262 0.950 . S
C1285 C1284 1.334 . S
C1285 C1286 1.287 . S
C1286 C1285 1.287 . S
C1286 C1287 1.524 . S
C1286 H1305 0.913 . S
C1287 H1263 0.950 . S
C1287 C1286 1.524 . S
C1287 C1288 1.415 . S
C1288 H1264 0.950 . S
C1288 C1283 1.363 . S
C1288 C1287 1.415 . S
C1289 H1265 0.951 . S
C1289 C1290 1.366 . S
C1289 C1291 1.388 . S
C1290 C1289 1.366 . S
C1290 C1294 1.385 . S
C1291 H1266 0.951 . S
C1291 C1289 1.388 . S
C1291 C1292 1.366 . S
C1292 C1291 1.366 . S
C1292 C1293 1.414 . S
C1292 C1295 1.499 . S
C1293 H1267 0.950 . S
C1293 C1292 1.414 . S
C1293 C1294 1.374 . S
C1294 H1268 0.950 . S
C1294 C1290 1.385 . S
C1294 C1293 1.374 . S
C1295 C1292 1.499 . S
C1295 C1296 1.373 . S
C1295 C1297 1.389 . S
C1296 H1269 0.950 . S
C1296 C1282 1.377 . S
C1296 C1295 1.373 . S
C1297 C1281 1.377 . S
C1297 C1295 1.389 . S
C1297 C1298 1.524 . S
C1298 C1297 1.524 . S
C1298 C1299 1.397 . S
C1298 C1303 1.363 . S
C1299 H1270 0.950 . S
C1299 C1298 1.397 . S
C1299 C1300 1.334 . S
C1300 H1271 0.950 . S
C1300 C1299 1.334 . S
C1300 C1301 1.287 . S
C1301 C1300 1.287 . S
C1301 C1302 1.524 . S
C1301 H1304 0.999 . S
C1302 H1272 0.950 . S
C1302 C1301 1.524 . S
C1302 C1303 1.415 . S
C1303 H1273 0.950 . S
C1303 C1298 1.363 . S
C1303 C1302 1.415 . S
H1304 C1301 0.999 . S
H1305 C1286 0.913 . S
H1306 C1324 0.951 . S
H1307 C1326 0.951 . S
H1308 C1328 0.950 . S
H1309 C1329 0.950 . S
H1310 C1331 0.950 . S
H1311 C1334 0.950 . S
H1312 C1335 0.950 . S
H1313 C1337 0.950 . S
H1314 C1338 0.950 . S
H1315 C1339 0.951 . S
H1316 C1341 0.951 . S
H1317 C1343 0.950 . S
H1318 C1344 0.950 . S
H1319 C1346 0.950 . S
H1320 C1349 0.950 . S
H1321 C1350 0.950 . S
H1322 C1352 0.950 . S
H1323 C1353 0.950 . S
C1324 H1306 0.951 . S
C1324 C1325 1.366 . S
C1324 C1326 1.388 . S
C1325 C1324 1.366 . S
C1325 C1329 1.385 . S
C1326 H1307 0.951 . S
C1326 C1324 1.388 . S
C1326 C1327 1.366 . S
C1327 C1326 1.366 . S
C1327 C1328 1.414 . S
C1327 C1330 1.499 . S
C1328 H1308 0.950 . S
C1328 C1327 1.414 . S
C1328 C1329 1.374 . S
C1329 H1309 0.950 . S
C1329 C1325 1.385 . S
C1329 C1328 1.374 . S
C1330 C1327 1.499 . S
C1330 C1331 1.373 . S
C1330 C1332 1.389 . S
C1331 H1310 0.950 . S
C1331 C1330 1.373 . S
C1331 C1347 1.377 . S
C1332 C1330 1.389 . S
C1332 C1333 1.524 . S
C1332 C1346 1.377 . S
C1333 C1332 1.524 . S
C1333 C1334 1.397 . S
C1333 C1338 1.363 . S
C1334 H1311 0.950 . S
C1334 C1333 1.397 . S
C1334 C1335 1.334 . S
C1335 H1312 0.950 . S
C1335 C1334 1.334 . S
C1335 C1336 1.287 . S
C1336 C1335 1.287 . S
C1336 C1337 1.524 . S
C1336 H1355 0.913 . S
C1337 H1313 0.950 . S
C1337 C1336 1.524 . S
C1337 C1338 1.415 . S
C1338 H1314 0.950 . S
C1338 C1333 1.363 . S
C1338 C1337 1.415 . S
C1339 H1315 0.951 . S
C1339 C1340 1.366 . S
C1339 C1341 1.388 . S
C1340 C1339 1.366 . S
C1340 C1344 1.385 . S
C1341 H1316 0.951 . S
C1341 C1339 1.388 . S
C1341 C1342 1.366 . S
C1342 C1341 1.366 . S
C1342 C1343 1.414 . S
C1342 C1345 1.499 . S
C1343 H1317 0.950 . S
C1343 C1342 1.414 . S
C1343 C1344 1.374 . S
C1344 H1318 0.950 . S
C1344 C1340 1.385 . S
C1344 C1343 1.374 . S
C1345 C1342 1.499 . S
C1345 C1346 1.373 . S
C1345 C1347 1.389 . S
C1346 H1319 0.950 . S
C1346 C1332 1.377 . S
C1346 C1345 1.373 . S
C1347 C1331 1.377 . S
C1347 C1345 1.389 . S
C1347 C1348 1.524 . S
C1348 C1347 1.524 . S
C1348 C1349 1.397 . S
C1348 C1353 1.363 . S
C1349 H1320 0.950 . S
C1349 C1348 1.397 . S
C1349 C1350 1.334 . S
C1350 H1321 0.950 . S
C1350 C1349 1.334 . S
C1350 C1351 1.287 . S
C1351 C1350 1.287 . S
C1351 C1352 1.524 . S
C1351 H1354 0.999 . S
C1352 H1322 0.950 . S
C1352 C1351 1.524 . S
C1352 C1353 1.415 . S
C1353 H1323 0.950 . S
C1353 C1348 1.363 . S
C1353 C1352 1.415 . S
H1354 C1351 0.999 . S
H1355 C1336 0.913 . S
H1356 C1374 0.951 . S
H1357 C1376 0.951 . S
H1358 C1378 0.950 . S
H1359 C1379 0.950 . S
H1360 C1381 0.950 . S
H1361 C1384 0.950 . S
H1362 C1385 0.950 . S
H1363 C1387 0.950 . S
H1364 C1388 0.950 . S
H1365 C1389 0.951 . S
H1366 C1391 0.951 . S
H1367 C1393 0.950 . S
H1368 C1394 0.950 . S
H1369 C1396 0.950 . S
H1370 C1399 0.950 . S
H1371 C1400 0.950 . S
H1372 C1402 0.950 . S
H1373 C1403 0.950 . S
C1374 H1356 0.951 . S
C1374 C1375 1.366 . S
C1374 C1376 1.388 . S
C1375 C1374 1.366 . S
C1375 C1379 1.385 . S
C1376 H1357 0.951 . S
C1376 C1374 1.388 . S
C1376 C1377 1.366 . S
C1377 C1376 1.366 . S
C1377 C1378 1.414 . S
C1377 C1380 1.499 . S
C1378 H1358 0.950 . S
C1378 C1377 1.414 . S
C1378 C1379 1.374 . S
C1379 H1359 0.950 . S
C1379 C1375 1.385 . S
C1379 C1378 1.374 . S
C1380 C1377 1.499 . S
C1380 C1381 1.373 . S
C1380 C1382 1.389 . S
C1381 H1360 0.950 . S
C1381 C1380 1.373 . S
C1381 C1397 1.377 . S
C1382 C1380 1.389 . S
C1382 C1383 1.524 . S
C1382 C1396 1.377 . S
C1383 C1382 1.524 . S
C1383 C1384 1.397 . S
C1383 C1388 1.363 . S
C1384 H1361 0.950 . S
C1384 C1383 1.397 . S
C1384 C1385 1.334 . S
C1385 H1362 0.950 . S
C1385 C1384 1.334 . S
C1385 C1386 1.287 . S
C1386 C1385 1.287 . S
C1386 C1387 1.524 . S
C1386 H1405 0.913 . S
C1387 H1363 0.950 . S
C1387 C1386 1.524 . S
C1387 C1388 1.415 . S
C1388 H1364 0.950 . S
C1388 C1383 1.363 . S
C1388 C1387 1.415 . S
C1389 H1365 0.951 . S
C1389 C1390 1.366 . S
C1389 C1391 1.388 . S
C1390 C1389 1.366 . S
C1390 C1394 1.385 . S
C1391 H1366 0.951 . S
C1391 C1389 1.388 . S
C1391 C1392 1.366 . S
C1392 C1391 1.366 . S
C1392 C1393 1.414 . S
C1392 C1395 1.499 . S
C1393 H1367 0.950 . S
C1393 C1392 1.414 . S
C1393 C1394 1.374 . S
C1394 H1368 0.950 . S
C1394 C1390 1.385 . S
C1394 C1393 1.374 . S
C1395 C1392 1.499 . S
C1395 C1396 1.373 . S
C1395 C1397 1.389 . S
C1396 H1369 0.950 . S
C1396 C1382 1.377 . S
C1396 C1395 1.373 . S
C1397 C1381 1.377 . S
C1397 C1395 1.389 . S
C1397 C1398 1.524 . S
C1398 C1397 1.524 . S
C1398 C1399 1.397 . S
C1398 C1403 1.363 . S
C1399 H1370 0.950 . S
C1399 C1398 1.397 . S
C1399 C1400 1.334 . S
C1400 H1371 0.950 . S
C1400 C1399 1.334 . S
C1400 C1401 1.287 . S
C1401 C1400 1.287 . S
C1401 C1402 1.524 . S
C1401 H1404 0.999 . S
C1402 H1372 0.950 . S
C1402 C1401 1.524 . S
C1402 C1403 1.415 . S
C1403 H1373 0.950 . S
C1403 C1398 1.363 . S
C1403 C1402 1.415 . S
H1404 C1401 0.999 . S
H1405 C1386 0.913 . S
H1406 C1424 0.951 . S
H1407 C1426 0.951 . S
H1408 C1428 0.950 . S
H1409 C1429 0.950 . S
H1410 C1431 0.950 . S
H1411 C1434 0.950 . S
H1412 C1435 0.950 . S
H1413 C1437 0.950 . S
H1414 C1438 0.950 . S
H1415 C1439 0.951 . S
H1416 C1441 0.951 . S
H1417 C1443 0.950 . S
H1418 C1444 0.950 . S
H1419 C1446 0.950 . S
H1420 C1449 0.950 . S
H1421 C1450 0.950 . S
H1422 C1452 0.950 . S
H1423 C1453 0.950 . S
C1424 H1406 0.951 . S
C1424 C1425 1.366 . S
C1424 C1426 1.388 . S
C1425 C1424 1.366 . S
C1425 C1429 1.385 . S
C1426 H1407 0.951 . S
C1426 C1424 1.388 . S
C1426 C1427 1.366 . S
C1427 C1426 1.366 . S
C1427 C1428 1.414 . S
C1427 C1430 1.499 . S
C1428 H1408 0.950 . S
C1428 C1427 1.414 . S
C1428 C1429 1.374 . S
C1429 H1409 0.950 . S
C1429 C1425 1.385 . S
C1429 C1428 1.374 . S
C1430 C1427 1.499 . S
C1430 C1431 1.373 . S
C1430 C1432 1.389 . S
C1431 H1410 0.950 . S
C1431 C1430 1.373 . S
C1431 C1447 1.377 . S
C1432 C1430 1.389 . S
C1432 C1433 1.524 . S
C1432 C1446 1.377 . S
C1433 C1432 1.524 . S
C1433 C1434 1.397 . S
C1433 C1438 1.363 . S
C1434 H1411 0.950 . S
C1434 C1433 1.397 . S
C1434 C1435 1.334 . S
C1435 H1412 0.950 . S
C1435 C1434 1.334 . S
C1435 C1436 1.287 . S
C1436 C1435 1.287 . S
C1436 C1437 1.524 . S
C1436 H1455 0.913 . S
C1437 H1413 0.950 . S
C1437 C1436 1.524 . S
C1437 C1438 1.415 . S
C1438 H1414 0.950 . S
C1438 C1433 1.363 . S
C1438 C1437 1.415 . S
C1439 H1415 0.951 . S
C1439 C1440 1.366 . S
C1439 C1441 1.388 . S
C1440 C1439 1.366 . S
C1440 C1444 1.385 . S
C1441 H1416 0.951 . S
C1441 C1439 1.388 . S
C1441 C1442 1.366 . S
C1442 C1441 1.366 . S
C1442 C1443 1.414 . S
C1442 C1445 1.499 . S
C1443 H1417 0.950 . S
C1443 C1442 1.414 . S
C1443 C1444 1.374 . S
C1444 H1418 0.950 . S
C1444 C1440 1.385 . S
C1444 C1443 1.374 . S
C1445 C1442 1.499 . S
C1445 C1446 1.373 . S
C1445 C1447 1.389 . S
C1446 H1419 0.950 . S
C1446 C1432 1.377 . S
C1446 C1445 1.373 . S
C1447 C1431 1.377 . S
C1447 C1445 1.389 . S
C1447 C1448 1.524 . S
C1448 C1447 1.524 . S
C1448 C1449 1.397 . S
C1448 C1453 1.363 . S
C1449 H1420 0.950 . S
C1449 C1448 1.397 . S
C1449 C1450 1.334 . S
C1450 H1421 0.950 . S
C1450 C1449 1.334 . S
C1450 C1451 1.287 . S
C1451 C1450 1.287 . S
C1451 C1452 1.524 . S
C1451 H1454 0.999 . S
C1452 H1422 0.950 . S
C1452 C1451 1.524 . S
C1452 C1453 1.415 . S
C1453 H1423 0.950 . S
C1453 C1448 1.363 . S
C1453 C1452 1.415 . S
H1454 C1451 0.999 . S
H1455 C1436 0.913 . S
H1456 C1474 0.951 . S
H1457 C1476 0.951 . S
H1458 C1478 0.950 . S
H1459 C1479 0.950 . S
H1460 C1481 0.950 . S
H1461 C1484 0.950 . S
H1462 C1485 0.950 . S
H1463 C1487 0.950 . S
H1464 C1488 0.950 . S
H1465 C1489 0.951 . S
H1466 C1491 0.951 . S
H1467 C1493 0.950 . S
H1468 C1494 0.950 . S
H1469 C1496 0.950 . S
H1470 C1499 0.950 . S
H1471 C1500 0.950 . S
H1472 C1502 0.950 . S
H1473 C1503 0.950 . S
C1474 H1456 0.951 . S
C1474 C1475 1.366 . S
C1474 C1476 1.388 . S
C1475 C1474 1.366 . S
C1475 C1479 1.385 . S
C1476 H1457 0.951 . S
C1476 C1474 1.388 . S
C1476 C1477 1.366 . S
C1477 C1476 1.366 . S
C1477 C1478 1.414 . S
C1477 C1480 1.499 . S
C1478 H1458 0.950 . S
C1478 C1477 1.414 . S
C1478 C1479 1.374 . S
C1479 H1459 0.950 . S
C1479 C1475 1.385 . S
C1479 C1478 1.374 . S
C1480 C1477 1.499 . S
C1480 C1481 1.373 . S
C1480 C1482 1.389 . S
C1481 H1460 0.950 . S
C1481 C1480 1.373 . S
C1481 C1497 1.377 . S
C1482 C1480 1.389 . S
C1482 C1483 1.524 . S
C1482 C1496 1.377 . S
C1483 C1482 1.524 . S
C1483 C1484 1.397 . S
C1483 C1488 1.363 . S
C1484 H1461 0.950 . S
C1484 C1483 1.397 . S
C1484 C1485 1.334 . S
C1485 H1462 0.950 . S
C1485 C1484 1.334 . S
C1485 C1486 1.287 . S
C1486 C1485 1.287 . S
C1486 C1487 1.524 . S
C1486 H1505 0.913 . S
C1487 H1463 0.950 . S
C1487 C1486 1.524 . S
C1487 C1488 1.415 . S
C1488 H1464 0.950 . S
C1488 C1483 1.363 . S
C1488 C1487 1.415 . S
C1489 H1465 0.951 . S
C1489 C1490 1.366 . S
C1489 C1491 1.388 . S
C1490 C1489 1.366 . S
C1490 C1494 1.385 . S
C1491 H1466 0.951 . S
C1491 C1489 1.388 . S
C1491 C1492 1.366 . S
C1492 C1491 1.366 . S
C1492 C1493 1.414 . S
C1492 C1495 1.499 1_554 S
C1493 H1467 0.950 . S
C1493 C1492 1.414 . S
C1493 C1494 1.374 . S
C1494 H1468 0.950 . S
C1494 C1490 1.385 . S
C1494 C1493 1.374 . S
C1495 C1492 1.499 1_556 S
C1495 C1496 1.373 . S
C1495 C1497 1.389 . S
C1496 H1469 0.950 . S
C1496 C1482 1.377 . S
C1496 C1495 1.373 . S
C1497 C1481 1.377 . S
C1497 C1495 1.389 . S
C1497 C1498 1.524 1_556 S
C1498 C1497 1.524 1_554 S
C1498 C1499 1.397 . S
C1498 C1503 1.363 1_554 S
C1499 H1470 0.950 . S
C1499 C1498 1.397 . S
C1499 C1500 1.334 . S
C1500 H1471 0.950 . S
C1500 C1499 1.334 . S
C1500 C1501 1.287 . S
C1501 C1500 1.287 . S
C1501 C1502 1.524 . S
C1501 H1504 0.999 . S
C1502 H1472 0.950 . S
C1502 C1501 1.524 . S
C1502 C1503 1.415 1_554 S
C1503 H1473 0.950 . S
C1503 C1498 1.363 1_556 S
C1503 C1502 1.415 1_556 S
H1504 C1501 0.999 . S
H1505 C1486 0.913 . S
H1506 C1524 0.951 . S
H1507 C1526 0.951 . S
H1508 C1528 0.950 . S
H1509 C1529 0.950 . S
H1510 C1531 0.950 . S
H1511 C1534 0.950 . S
H1512 C1535 0.950 . S
H1513 C1537 0.950 . S
H1514 C1538 0.950 . S
H1515 C1539 0.951 . S
H1516 C1541 0.951 . S
H1517 C1543 0.950 . S
H1518 C1544 0.950 . S
H1519 C1546 0.950 . S
H1520 C1549 0.950 . S
H1521 C1550 0.950 . S
H1522 C1552 0.950 . S
H1523 C1553 0.950 . S
C1524 H1506 0.951 . S
C1524 C1525 1.366 . S
C1524 C1526 1.388 . S
C1525 C1524 1.366 . S
C1525 C1529 1.385 . S
C1526 H1507 0.951 . S
C1526 C1524 1.388 . S
C1526 C1527 1.366 . S
C1527 C1526 1.366 . S
C1527 C1528 1.414 . S
C1527 C1530 1.499 . S
C1528 H1508 0.950 . S
C1528 C1527 1.414 . S
C1528 C1529 1.374 . S
C1529 H1509 0.950 . S
C1529 C1525 1.385 . S
C1529 C1528 1.374 . S
C1530 C1527 1.499 . S
C1530 C1531 1.373 . S
C1530 C1532 1.389 . S
C1531 H1510 0.950 . S
C1531 C1530 1.373 . S
C1531 C1547 1.377 . S
C1532 C1530 1.389 . S
C1532 C1533 1.524 . S
C1532 C1546 1.377 . S
C1533 C1532 1.524 . S
C1533 C1534 1.397 . S
C1533 C1538 1.363 . S
C1534 H1511 0.950 . S
C1534 C1533 1.397 . S
C1534 C1535 1.334 . S
C1535 H1512 0.950 . S
C1535 C1534 1.334 . S
C1535 C1536 1.287 . S
C1536 C1535 1.287 . S
C1536 C1537 1.524 . S
C1536 H1555 0.913 . S
C1537 H1513 0.950 . S
C1537 C1536 1.524 . S
C1537 C1538 1.415 . S
C1538 H1514 0.950 . S
C1538 C1533 1.363 . S
C1538 C1537 1.415 . S
C1539 H1515 0.951 . S
C1539 C1540 1.366 . S
C1539 C1541 1.388 . S
C1540 C1539 1.366 . S
C1540 C1544 1.385 . S
C1541 H1516 0.951 . S
C1541 C1539 1.388 . S
C1541 C1542 1.366 . S
C1542 C1541 1.366 . S
C1542 C1543 1.414 . S
C1542 C1545 1.499 . S
C1543 H1517 0.950 . S
C1543 C1542 1.414 . S
C1543 C1544 1.374 . S
C1544 H1518 0.950 . S
C1544 C1540 1.385 . S
C1544 C1543 1.374 . S
C1545 C1542 1.499 . S
C1545 C1546 1.373 . S
C1545 C1547 1.389 . S
C1546 H1519 0.950 . S
C1546 C1532 1.377 . S
C1546 C1545 1.373 . S
C1547 C1531 1.377 . S
C1547 C1545 1.389 . S
C1547 C1548 1.524 . S
C1548 C1547 1.524 . S
C1548 C1549 1.397 . S
C1548 C1553 1.363 . S
C1549 H1520 0.950 . S
C1549 C1548 1.397 . S
C1549 C1550 1.334 . S
C1550 H1521 0.950 . S
C1550 C1549 1.334 . S
C1550 C1551 1.287 . S
C1551 C1550 1.287 . S
C1551 C1552 1.524 . S
C1551 H1554 0.999 . S
C1552 H1522 0.950 . S
C1552 C1551 1.524 . S
C1552 C1553 1.415 . S
C1553 H1523 0.950 . S
C1553 C1548 1.363 . S
C1553 C1552 1.415 . S
H1554 C1551 0.999 . S
H1555 C1536 0.913 . S
H1556 C1574 0.951 . S
H1557 C1576 0.951 . S
H1558 C1578 0.950 . S
H1559 C1579 0.950 . S
H1560 C1581 0.950 . S
H1561 C1584 0.950 . S
H1562 C1585 0.950 . S
H1563 C1587 0.950 . S
H1564 C1588 0.950 . S
H1565 C1589 0.951 . S
H1566 C1591 0.951 . S
H1567 C1593 0.950 . S
H1568 C1594 0.950 . S
H1569 C1596 0.950 . S
H1570 C1599 0.950 . S
H1571 C1600 0.950 . S
H1572 C1602 0.950 . S
H1573 C1603 0.950 . S
C1574 H1556 0.951 . S
C1574 C1575 1.366 . S
C1574 C1576 1.388 . S
C1575 C1574 1.366 . S
C1575 C1579 1.385 . S
C1576 H1557 0.951 . S
C1576 C1574 1.388 . S
C1576 C1577 1.366 . S
C1577 C1576 1.366 . S
C1577 C1578 1.414 . S
C1577 C1580 1.499 . S
C1578 H1558 0.950 . S
C1578 C1577 1.414 . S
C1578 C1579 1.374 . S
C1579 H1559 0.950 . S
C1579 C1575 1.385 . S
C1579 C1578 1.374 . S
C1580 C1577 1.499 . S
C1580 C1581 1.373 . S
C1580 C1582 1.389 . S
C1581 H1560 0.950 . S
C1581 C1580 1.373 . S
C1581 C1597 1.377 . S
C1582 C1580 1.389 . S
C1582 C1583 1.524 . S
C1582 C1596 1.377 . S
C1583 C1582 1.524 . S
C1583 C1584 1.397 . S
C1583 C1588 1.363 . S
C1584 H1561 0.950 . S
C1584 C1583 1.397 . S
C1584 C1585 1.334 . S
C1585 H1562 0.950 . S
C1585 C1584 1.334 . S
C1585 C1586 1.287 . S
C1586 C1585 1.287 . S
C1586 C1587 1.524 . S
C1586 H1605 0.913 . S
C1587 H1563 0.950 . S
C1587 C1586 1.524 . S
C1587 C1588 1.415 . S
C1588 H1564 0.950 . S
C1588 C1583 1.363 . S
C1588 C1587 1.415 . S
C1589 H1565 0.951 . S
C1589 C1590 1.366 . S
C1589 C1591 1.388 . S
C1590 C1589 1.366 . S
C1590 C1594 1.385 . S
C1591 H1566 0.951 . S
C1591 C1589 1.388 . S
C1591 C1592 1.366 . S
C1592 C1591 1.366 . S
C1592 C1593 1.414 . S
C1592 C1595 1.499 . S
C1593 H1567 0.950 . S
C1593 C1592 1.414 . S
C1593 C1594 1.374 . S
C1594 H1568 0.950 . S
C1594 C1590 1.385 . S
C1594 C1593 1.374 . S
C1595 C1592 1.499 . S
C1595 C1596 1.373 . S
C1595 C1597 1.389 . S
C1596 H1569 0.950 . S
C1596 C1582 1.377 . S
C1596 C1595 1.373 . S
C1597 C1581 1.377 . S
C1597 C1595 1.389 . S
C1597 C1598 1.524 . S
C1598 C1597 1.524 . S
C1598 C1599 1.397 . S
C1598 C1603 1.363 . S
C1599 H1570 0.950 . S
C1599 C1598 1.397 . S
C1599 C1600 1.334 . S
C1600 H1571 0.950 . S
C1600 C1599 1.334 . S
C1600 C1601 1.287 . S
C1601 C1600 1.287 . S
C1601 C1602 1.524 . S
C1601 H1604 0.999 . S
C1602 H1572 0.950 . S
C1602 C1601 1.524 . S
C1602 C1603 1.415 . S
C1603 H1573 0.950 . S
C1603 C1598 1.363 . S
C1603 C1602 1.415 . S
H1604 C1601 0.999 . S
H1605 C1586 0.913 . S
C440 C110 1.684 . S
C425 C10 1.690 . S
C490 C179 1.426 . S
C475 C15 1.403 . S
C540 C117 1.664 . S
C525 C26 1.676 . S
C590 C180 1.449 . S
C575 C37 1.444 . S
C640 C233 1.821 . S
C625 C4 1.822 . S
C690 C269 1.452 . S
C675 C16 1.425 . S
C725 C27 1.783 . S
C740 C329 1.776 . S
C790 C392 1.495 . S
C775 C43 1.493 . S
C840 C232 1.599 . S
C825 C21 1.584 . S
C875 C32 1.412 . S
C890 C276 1.410 . S
C940 C322 1.778 . S
C925 C38 1.769 . S
C990 C391 1.731 . S
C975 C5 1.728 . S
C1025 C49 1.475 . S
C1040 C170 1.494 . S
C1090 C127 1.770 1_655 S
C1075 C60 1.781 . S
C1125 C76 1.501 . S
C1140 C163 1.501 . S
C1175 C81 1.745 . S
C1190 C126 1.747 . S
C1240 C338 1.496 . S
C1225 C54 1.498 . S
C1290 C382 1.734 . S
C1275 C59 1.738 . S
C1340 C216 1.589 . S
C1325 C70 1.591 . S
C1375 C87 1.653 . S
C1390 C285 1.646 . S
C1440 C339 1.668 . S
C1425 C65 1.672 . S
C1490 C375 1.784 . S
C1475 C71 1.764 . S
C1540 C223 1.578 . S
C1525 C82 1.572 . S
C1575 C48 1.550 . S
C1590 C286 1.551 . S
