# Generated by pormake.
# Topology zzz, (3,6)-cn, num edge types: 1
# Building blocks:
#     Node 0, Type 0, BuildingBlock: BETDIP_clean_linker_0, # of connection points: 3
#     Node 1, Type 0, BuildingBlock: BETDIP_clean_linker_0, # of connection points: 3
#     Node 2, Type 0, BuildingBlock: BETDIP_clean_linker_0, # of connection points: 3
#     Node 3, Type 0, BuildingBlock: BETDIP_clean_linker_0, # of connection points: 3
#     Node 4, Type 0, BuildingBlock: BETDIP_clean_linker_0, # of connection points: 3
#     Node 5, Type 0, BuildingBlock: BETDIP_clean_linker_0, # of connection points: 3
#     Node 6, Type 0, BuildingBlock: BETDIP_clean_linker_0, # of connection points: 3
#     Node 7, Type 0, BuildingBlock: BETDIP_clean_linker_0, # of connection points: 3
#     Node 8, Type 1, BuildingBlock: BETDIP_clean_sbu_0, # of connection points: 6
#     Node 9, Type 1, BuildingBlock: BETDIP_clean_sbu_0, # of connection points: 6
#     Node 10, Type 1, BuildingBlock: BETDIP_clean_sbu_0, # of connection points: 6
#     Node 11, Type 1, BuildingBlock: BETDIP_clean_sbu_0, # of connection points: 6
#     Edge 12, Type (0, 1), BuildingBlock: XUDNAN_clean_linker_2, # of connection points: 2
#     Edge 13, Type (0, 1), BuildingBlock: XUDNAN_clean_linker_2, # of connection points: 2
#     Edge 14, Type (0, 1), BuildingBlock: XUDNAN_clean_linker_2, # of connection points: 2
#     Edge 15, Type (0, 1), BuildingBlock: XUDNAN_clean_linker_2, # of connection points: 2
#     Edge 16, Type (0, 1), BuildingBlock: XUDNAN_clean_linker_2, # of connection points: 2
#     Edge 17, Type (0, 1), BuildingBlock: XUDNAN_clean_linker_2, # of connection points: 2
#     Edge 18, Type (0, 1), BuildingBlock: XUDNAN_clean_linker_2, # of connection points: 2
#     Edge 19, Type (0, 1), BuildingBlock: XUDNAN_clean_linker_2, # of connection points: 2
#     Edge 20, Type (0, 1), BuildingBlock: XUDNAN_clean_linker_2, # of connection points: 2
#     Edge 21, Type (0, 1), BuildingBlock: XUDNAN_clean_linker_2, # of connection points: 2
#     Edge 22, Type (0, 1), BuildingBlock: XUDNAN_clean_linker_2, # of connection points: 2
#     Edge 23, Type (0, 1), BuildingBlock: XUDNAN_clean_linker_2, # of connection points: 2
#     Edge 24, Type (0, 1), BuildingBlock: XUDNAN_clean_linker_2, # of connection points: 2
#     Edge 25, Type (0, 1), BuildingBlock: XUDNAN_clean_linker_2, # of connection points: 2
#     Edge 26, Type (0, 1), BuildingBlock: XUDNAN_clean_linker_2, # of connection points: 2
#     Edge 27, Type (0, 1), BuildingBlock: XUDNAN_clean_linker_2, # of connection points: 2
#     Edge 28, Type (0, 1), BuildingBlock: XUDNAN_clean_linker_2, # of connection points: 2
#     Edge 29, Type (0, 1), BuildingBlock: XUDNAN_clean_linker_2, # of connection points: 2
#     Edge 30, Type (0, 1), BuildingBlock: XUDNAN_clean_linker_2, # of connection points: 2
#     Edge 31, Type (0, 1), BuildingBlock: XUDNAN_clean_linker_2, # of connection points: 2
#     Edge 32, Type (0, 1), BuildingBlock: XUDNAN_clean_linker_2, # of connection points: 2
#     Edge 33, Type (0, 1), BuildingBlock: XUDNAN_clean_linker_2, # of connection points: 2
#     Edge 34, Type (0, 1), BuildingBlock: XUDNAN_clean_linker_2, # of connection points: 2
#     Edge 35, Type (0, 1), BuildingBlock: XUDNAN_clean_linker_2, # of connection points: 2
# Relax obj value: 0.268
# Max RMSD: 0.167
# Mean RMSD: 0.147
data_MOF--net-zzz--node1-BETDIP_clean_sbu_0--node2-BETDIP_clean_linker_0--edge1-XUDNAN_clean_linker_2
_symmetry_space_group_name_H-M    P1
_symmetry_Int_Tables_number       1
_symmetry_cell_setting            triclinic
loop_
_symmetry_equiv_pos_as_xyz
'x, y, z'
_cell_length_a     52.589934
_cell_length_b     52.580873
_cell_length_c     13.523811
_cell_angle_alpha  89.81179
_cell_angle_beta   89.839573
_cell_angle_gamma 90.0771
loop_
_atom_site_label
_atom_site_type_symbol
_atom_site_fract_x
_atom_site_fract_y
_atom_site_fract_z
_atom_type_partial_charge
H0 H 0.75292 0.5314 0.44126 0.0
H1 H 0.73505 0.47986 0.20219 0.0
H2 H 0.80731 0.47526 0.34515 0.0
H3 H 0.7206 0.52376 0.14759 0.0
C4 C 0.70669 0.52265 0.20716 0.0
C5 C 0.75805 0.51562 0.39393 0.0
C6 C 0.78265 0.50442 0.40196 0.0
C7 C 0.74066 0.50703 0.32023 0.0
C8 C 0.74789 0.48673 0.25874 0.0
C9 C 0.77156 0.47516 0.26931 0.0
C10 C 0.78868 0.48401 0.34007 0.0
N11 N 0.71626 0.5187 0.30532 0.0
H12 H 0.99316 0.75934 0.44749 0.0
H13 H 0.0476 0.73839 0.22245 0.0
H14 H 0.05056 0.81258 0.35311 0.0
H15 H 0.99904 0.72646 0.16236 0.0
C16 C 1.0018 0.71242 0.22056 0.0
C17 C 1.00959 0.76394 0.40235 0.0
C18 C 0.02091 0.7885 0.40892 0.0
C19 C 0.01888 0.74588 0.33256 0.0
C20 C 0.04021 0.75215 0.2746 0.0
C21 C 0.05206 0.77587 0.28319 0.0
C22 C 0.04208 0.7938 0.34935 0.0
N23 N 1.00695 0.72161 0.31826 0.0
H24 H 0.76835 1.00983 0.52577 0.0
H25 H 0.78889 0.99719 0.22045 0.0
H26 H 0.71094 0.99394 0.30652 0.0
H27 H 0.82041 0.97083 0.32015 0.0
C28 C 0.82705 0.98938 0.34445 0.0
C29 C 0.76284 1.00537 0.45074 0.0
C30 C 0.73645 1.0027 0.42631 0.0
C31 C 0.78213 1.00234 0.3765 0.0
C32 C 0.77472 0.99784 0.27875 0.0
C33 C 0.74928 0.99515 0.25384 0.0
C34 C 0.73057 0.99662 0.32774 0.0
N35 N 0.80887 1.00488 0.39629 0.0
H36 H 0.50933 0.76298 0.46383 0.0
H37 H 0.56249 0.78203 0.23089 0.0
H38 H 0.5634 0.70779 0.35891 0.0
H39 H 0.56134 0.82101 0.30855 0.0
C40 C 0.54076 0.82279 0.30598 0.0
C41 C 0.52543 0.75804 0.41778 0.0
C42 C 0.53523 0.73272 0.42001 0.0
C43 C 0.53616 0.77671 0.3527 0.0
C44 C 0.55595 0.76929 0.28869 0.0
C45 C 0.56562 0.7446 0.29039 0.0
C46 C 0.55607 0.72707 0.35933 0.0
N47 N 0.52578 0.80197 0.34374 0.0
H48 H 0.25477 0.49647 0.08673 0.0
H49 H 0.27725 0.55814 0.27821 0.0
H50 H 0.20335 0.558 0.14485 0.0
H51 H 0.31791 0.54651 0.20713 0.0
C52 C 0.31573 0.52692 0.23164 0.0
C53 C 0.25079 0.51461 0.12111 0.0
C54 C 0.22678 0.52637 0.10645 0.0
C55 C 0.26945 0.5262 0.18251 0.0
C56 C 0.26369 0.54954 0.22836 0.0
C57 C 0.23997 0.56121 0.21494 0.0
C58 C 0.22199 0.54952 0.15349 0.0
N59 N 0.29296 0.51353 0.20478 0.0
H60 H 0.02404 0.2612 0.09775 0.0
H61 H 0.96348 0.28104 0.30036 0.0
H62 H 0.96645 0.20638 0.1747 0.0
H63 H 0.97007 0.31973 0.17863 0.0
C64 C 0.98842 0.32141 0.21497 0.0
C65 C 1.00685 0.25616 0.13762 0.0
C66 C 0.99647 0.23125 0.1282 0.0
C67 C 0.99473 0.27454 0.1993 0.0
C68 C 0.97248 0.26757 0.25096 0.0
C69 C 0.96212 0.24319 0.24139 0.0
C70 C 0.97422 0.22544 0.18031 0.0
N71 N 1.00488 0.2997 0.21227 0.0
H72 H 0.25428 1.00777 0.03562 0.0
H73 H 0.23322 0.05072 0.29513 0.0
H74 H 0.30928 0.05481 0.18259 0.0
H75 H 0.21948 1.00542 0.32475 0.0
C76 C 0.20572 1.00882 0.26623 0.0
C77 C 0.259 0.02143 0.09243 0.0
C78 C 0.28429 0.03131 0.09847 0.0
C79 C 0.24039 0.02815 0.16522 0.0
C80 C 0.24708 0.04557 0.23919 0.0
C81 C 0.27188 0.05467 0.24784 0.0
C82 C 0.2899 0.04812 0.1755 0.0
N83 N 0.21575 0.01629 0.17132 0.0
H84 H 0.49203 0.26064 0.11359 0.0
H85 H 0.5575 0.24028 0.28882 0.0
H86 H 0.55682 0.31068 0.12943 0.0
H87 H 0.54537 0.1999 0.18911 0.0
C88 C 0.52773 0.20003 0.23134 0.0
C89 C 0.51114 0.26467 0.13882 0.0
C90 C 0.52339 0.28774 0.10961 0.0
C91 C 0.52401 0.24661 0.19966 0.0
C92 C 0.54825 0.25282 0.23634 0.0
C93 C 0.56006 0.27572 0.2103 0.0
C94 C 0.54794 0.29246 0.14507 0.0
N95 N 0.51266 0.22273 0.22741 0.0
Tb96 Tb 0.02775 1.00572 0.84884 0.0
Tb97 Tb 0.99159 0.01586 0.68134 0.0
C98 C 0.05222 0.98793 0.99233 0.0
C99 C 0.06418 0.96284 1.0052 0.0
C100 C 0.05046 0.94065 0.98398 0.0
C101 C 0.06265 0.91722 0.98094 0.0
C102 C 0.08879 0.91539 1.00053 0.0
C103 C 0.10242 0.93738 0.02598 0.0
C104 C 0.09022 0.96104 0.02734 0.0
C105 C 0.05008 0.01897 0.67857 0.0
C106 C 1.00802 0.95875 0.71434 0.0
C107 C 0.97282 0.03124 0.52222 0.0
C108 C 0.95378 0.05107 0.50343 0.0
C109 C 0.95433 0.06471 0.41446 0.0
C110 C 0.93983 0.08681 0.40405 0.0
C111 C 0.92459 0.09559 0.4828 0.0
C112 C 0.9227 0.08077 0.56901 0.0
C113 C 0.93724 0.05877 0.57937 0.0
C114 C 0.96446 1.01207 0.85012 0.0
C115 C 1.00929 0.06146 0.82361 0.0
O116 O 0.02732 0.98847 0.98905 0.0
O117 O 0.06248 1.00195 0.92318 0.0
O118 O 0.03094 1.00448 0.68889 0.0
O119 O 0.05674 0.02653 0.7657 0.0
O120 O 0.01957 0.96648 0.79649 0.0
O121 O 0.99748 0.97528 0.65279 0.0
O122 O 0.99446 0.0397 0.55743 0.0
O123 O 0.96462 1.01096 0.56923 0.0
O124 O 0.98815 1.0104 0.8375 0.0
O125 O 0.95502 0.01501 0.76296 0.0
O126 O 1.00211 0.05443 0.73345 0.0
O127 O 0.01674 0.04435 0.88935 0.0
H128 H 0.03033 0.9414 0.96813 0.0
H129 H 0.0515 0.90042 0.96462 0.0
H130 H 0.12249 0.93629 0.04333 0.0
H131 H 0.10117 0.97797 0.04366 0.0
H132 H 0.96708 0.05914 0.3553 0.0
H133 H 0.94205 0.09796 0.33709 0.0
H134 H 0.91101 0.08693 0.63051 0.0
H135 H 0.93653 0.04859 0.64885 0.0
Tb136 Tb 0.5154 0.02931 0.86113 0.0
Tb137 Tb 0.5064 0.99721 0.69691 0.0
C138 C 0.5341 0.05047 0.00932 0.0
C139 C 0.56037 0.05952 0.01588 0.0
C140 C 0.57484 0.05238 0.09798 0.0
C141 C 0.60111 0.04988 0.0885 0.0
C142 C 0.61298 0.05446 0.9968 0.0
C143 C 0.59899 0.06509 0.91925 0.0
C144 C 0.57274 0.0677 0.92884 0.0
C145 C 0.50567 0.05543 0.69571 0.0
C146 C 0.56332 1.0095 0.73014 0.0
C147 C 0.48679 0.98013 0.54289 0.0
C148 C 0.4635 0.99062 0.49901 0.0
C149 C 0.46091 0.01717 0.49109 0.0
C150 C 0.437 0.02817 0.48389 0.0
C151 C 0.41511 1.0129 0.48317 0.0
C152 C 0.41786 0.98626 0.48079 0.0
C153 C 0.44191 0.9752 0.48924 0.0
C154 C 0.51736 0.97098 0.86001 0.0
C155 C 0.45937 0.01785 0.8251 0.0
O156 O 0.53236 0.02577 1.00041 0.0
O157 O 0.51955 0.0624 0.94638 0.0
O158 O 0.51905 0.03565 0.70454 0.0
O159 O 0.49758 0.06155 0.7828 0.0
O160 O 0.55502 0.0189 0.81551 0.0
O161 O 0.5469 1.00116 0.66425 0.0
O162 O 0.50653 0.99523 0.54195 0.0
O163 O 0.48347 0.96951 0.62947 0.0
O164 O 0.50313 0.99034 0.85395 0.0
O165 O 0.52544 0.96558 0.77197 0.0
O166 O 0.46819 1.01329 0.73467 0.0
O167 O 0.47577 0.0212 0.89729 0.0
H168 H 0.56566 0.04593 0.1654 0.0
H169 H 0.6118 0.04204 0.14984 0.0
H170 H 0.60784 0.06876 0.84815 0.0
H171 H 0.56192 0.07315 0.86407 0.0
H172 H 0.47711 0.02968 0.49925 0.0
H173 H 0.43573 0.04871 0.48653 0.0
H174 H 0.40138 0.97394 0.47715 0.0
H175 H 0.44343 0.95471 0.49563 0.0
Tb176 Tb 0.48451 0.51695 0.85324 0.0
Tb177 Tb 0.51507 0.50248 0.67397 0.0
C178 C 0.46828 0.53788 0.00679 0.0
C179 C 0.47577 0.56266 0.04818 0.0
C180 C 0.49224 0.56347 0.12964 0.0
C181 C 0.50676 0.5852 0.14755 0.0
C182 C 0.50514 0.60634 0.08369 0.0
C183 C 0.48587 0.60665 0.01175 0.0
C184 C 0.47132 0.58504 0.99423 0.0
C185 C 0.45718 0.50058 0.70082 0.0
C186 C 0.50512 0.56066 0.70582 0.0
C187 C 0.52911 0.48443 0.51234 0.0
C188 C 0.54815 0.46459 0.49498 0.0
C189 C 0.55518 0.45771 0.3989 0.0
C190 C 0.57201 0.43748 0.38402 0.0
C191 C 0.58195 0.42392 0.46521 0.0
C192 C 0.57573 0.43177 0.56138 0.0
C193 C 0.55897 0.45192 0.57608 0.0
C194 C 0.54743 0.50956 0.82461 0.0
C195 C 0.49871 0.45948 0.83344 0.0
O196 O 0.48635 0.52074 0.00709 0.0
O197 O 0.45612 0.53851 0.9223 0.0
O198 O 0.4765 0.51494 0.69659 0.0
O199 O 0.45257 0.49546 0.79284 0.0
O200 O 0.49803 0.55425 0.79708 0.0
O201 O 0.50976 0.54293 0.63884 0.0
O202 O 0.50857 0.47671 0.55909 0.0
O203 O 0.53821 0.50569 0.54826 0.0
O204 O 0.52352 0.5115 0.82457 0.0
O205 O 0.55381 0.50378 0.73536 0.0
O206 O 0.5068 0.46475 0.74233 0.0
O207 O 0.49123 0.47761 0.89423 0.0
H208 H 0.49551 0.54661 0.17411 0.0
H209 H 0.52025 0.5848 0.20784 0.0
H210 H 0.48342 0.62258 0.96194 0.0
H211 H 0.45836 0.58529 0.9321 0.0
H212 H 0.54707 0.46741 0.33562 0.0
H213 H 0.57612 0.43161 0.30898 0.0
H214 H 0.58312 0.42174 0.62521 0.0
H215 H 0.55386 0.4571 0.65096 0.0
Tb216 Tb 1.00161 0.49476 0.82187 0.0
Tb217 Tb 1.01044 0.52873 0.66645 0.0
C218 C 0.98458 0.46938 0.96511 0.0
C219 C 0.96252 0.45248 0.96973 0.0
C220 C 0.95353 0.44358 0.06088 0.0
C221 C 0.93028 0.43077 0.06612 0.0
C222 C 0.91568 0.42707 0.98023 0.0
C223 C 0.92563 0.43456 0.88824 0.0
C224 C 0.94896 0.4471 0.88299 0.0
C225 C 1.01148 0.47065 0.65166 0.0
C226 C 0.95395 0.5139 0.69366 0.0
C227 C 0.02825 0.55315 0.52139 0.0
C228 C 0.05271 0.56643 0.50754 0.0
C229 C 0.07545 0.55493 0.53775 0.0
C230 C 0.09826 0.56831 0.53396 0.0
C231 C 0.09898 0.59346 0.49876 0.0
C232 C 0.07635 0.60487 0.46595 0.0
C233 C 0.05331 0.59149 0.47118 0.0
C234 C 0.99906 0.55301 0.83373 0.0
C235 C 0.05745 0.5104 0.80026 0.0
O236 O 0.97918 0.49335 0.95021 0.0
O237 O 1.00304 0.46163 0.90823 0.0
O238 O 0.99771 0.49007 0.66325 0.0
O239 O 0.02015 0.4643 0.73729 0.0
O240 O 0.96211 0.50527 0.78014 0.0
O241 O 0.97076 0.52131 0.62677 0.0
O242 O 0.02914 0.52835 0.52908 0.0
O243 O 1.01329 0.56312 0.58765 0.0
O244 O 0.01359 0.5339 0.82561 0.0
O245 O 0.99051 0.55853 0.74695 0.0
O246 O 0.04978 0.51773 0.7113 0.0
O247 O 0.04023 0.50417 0.8668 0.0
H248 H 0.9638 0.44769 0.12832 0.0
H249 H 0.92284 0.42554 0.13818 0.0
H250 H 0.91469 0.43201 0.82122 0.0
H251 H 0.9558 0.45376 0.8118 0.0
H252 H 0.07569 0.53556 0.56456 0.0
H253 H 0.11551 0.55869 0.55663 0.0
H254 H 0.07649 0.62411 0.43706 0.0
H255 H 0.03594 0.60076 0.44771 0.0
H256 H 0.19025 0.02273 0.44847 0.0
H257 H 0.16008 1.00111 0.16345 0.0
H258 H 0.1162 1.00193 0.23427 0.0
H259 H 0.14874 0.98698 0.59884 0.0
H260 H 0.14622 1.0108 0.69385 0.0
H261 H 0.17442 1.00912 0.61855 0.0
H262 H 0.16874 0.0563 0.56746 0.0
H263 H 0.1406 0.05819 0.64324 0.0
H264 H 0.13908 0.0665 0.51398 0.0
H265 H 0.07487 1.0019 0.34861 0.0
H266 H 0.04242 1.00488 0.48275 0.0
H267 H 0.10098 0.02961 0.68556 0.0
C268 C 0.17439 0.01848 0.40031 0.0
C269 C 0.17866 1.01191 0.30017 0.0
C270 C 0.15734 1.00645 0.23997 0.0
C271 C 0.13234 1.00675 0.2801 0.0
C272 C 0.12889 1.013 0.38016 0.0
C273 C 0.14953 0.01921 0.43849 0.0
C274 C 0.14136 0.02551 0.54325 0.0
C275 C 0.1534 1.007 0.61798 0.0
C276 C 0.14783 0.05327 0.56843 0.0
C277 C 0.11286 0.02155 0.53645 0.0
C278 C 0.1058 0.01411 0.44238 0.0
C279 C 0.08037 1.0081 0.42172 0.0
C280 C 0.06199 1.00982 0.49846 0.0
C281 C 0.06892 0.0178 0.59481 0.0
C282 C 0.09478 0.02384 0.61272 0.0
H283 H 0.501 0.19115 0.4096 0.0
H284 H 0.54029 0.15337 0.16937 0.0
H285 H 0.53616 0.11234 0.2562 0.0
H286 H 0.53053 0.15633 0.60134 0.0
H287 H 0.50303 0.15395 0.6807 0.0
H288 H 0.50598 0.18019 0.59552 0.0
H289 H 0.46243 0.16878 0.51865 0.0
H290 H 0.45928 0.14259 0.60423 0.0
H291 H 0.45705 0.13704 0.4731 0.0
H292 H 0.53178 0.0759 0.37391 0.0
H293 H 0.52631 0.04622 0.51419 0.0
H294 H 0.48972 0.10588 0.68331 0.0
C295 C 0.50793 0.17408 0.37414 0.0
C296 C 0.52054 0.17548 0.28114 0.0
C297 C 0.53025 0.15279 0.23942 0.0
C298 C 0.52805 0.12932 0.28844 0.0
C299 C 0.51616 0.12853 0.38056 0.0
C300 C 0.50609 0.15021 0.42319 0.0
C301 C 0.49578 0.14397 0.5262 0.0
C302 C 0.50966 0.15954 0.60562 0.0
C303 C 0.46692 0.14836 0.5308 0.0
C304 C 0.5021 0.11569 0.53497 0.0
C305 C 0.51372 0.10724 0.44953 0.0
C306 C 0.52239 0.08225 0.4407 0.0
C307 C 0.51921 0.06546 0.52102 0.0
C308 C 0.50737 0.07347 0.60977 0.0
C309 C 0.49855 0.09899 0.61616 0.0
H310 H 0.36165 0.54843 0.27581 0.0
H311 H 0.31601 0.48142 0.33606 0.0
H312 H 0.34892 0.46608 0.45284 0.0
H313 H 0.42422 0.51655 0.2897 0.0
H314 H 0.43934 0.54347 0.34726 0.0
H315 H 0.41304 0.54828 0.26411 0.0
H316 H 0.38899 0.57313 0.40024 0.0
H317 H 0.41518 0.56838 0.48363 0.0
H318 H 0.38364 0.55836 0.51901 0.0
H319 H 0.38528 0.46002 0.57466 0.0
H320 H 0.42219 0.46293 0.6869 0.0
H321 H 0.4457 0.53297 0.5436 0.0
C322 C 0.35877 0.53031 0.3125 0.0
C323 C 0.33621 0.51606 0.29617 0.0
C324 C 0.3331 0.4926 0.34643 0.0
C325 C 0.35175 0.48377 0.41311 0.0
C326 C 0.37363 0.49843 0.42826 0.0
C327 C 0.37733 0.52112 0.37853 0.0
C328 C 0.40216 0.53366 0.41014 0.0
C329 C 0.42079 0.5356 0.32259 0.0
C330 C 0.39718 0.55993 0.45598 0.0
C331 C 0.41163 0.51483 0.48733 0.0
C332 C 0.39487 0.49461 0.49635 0.0
C333 C 0.39865 0.47558 0.56689 0.0
C334 C 0.41972 0.47738 0.63042 0.0
C335 C 0.43713 0.49791 0.6233 0.0
C336 C 0.43314 0.5167 0.54945 0.0
H337 H 0.01827 0.33368 0.38091 0.0
H338 H 0.97074 0.36657 0.15269 0.0
H339 H 0.97407 0.40853 0.23221 0.0
H340 H 0.9908 0.36808 0.5784 0.0
H341 H 0.01982 0.37277 0.64665 0.0
H342 H 0.01659 0.34573 0.56627 0.0
H343 H 0.05737 0.35914 0.47196 0.0
H344 H 0.0608 0.38617 0.55254 0.0
H345 H 0.05963 0.39073 0.42048 0.0
H346 H 0.97963 0.44667 0.34188 0.0
H347 H 0.98674 0.47781 0.4758 0.0
H348 H 0.02993 0.42132 0.63824 0.0
C349 C 1.0093 0.34991 0.34619 0.0
C350 C 0.99468 0.34685 0.25883 0.0
C351 C 0.98237 0.36845 0.2183 0.0
C352 C 0.98412 0.39245 0.26312 0.0
C353 C 0.99814 0.39486 0.34983 0.0
C354 C 1.0106 0.37424 0.39118 0.0
C355 C 0.02281 0.38192 0.4889 0.0
C356 C 1.01185 0.36619 0.57514 0.0
C357 C 0.05188 0.37933 0.4831 0.0
C358 C 0.01492 0.40979 0.49638 0.0
C359 C 1.00089 0.41688 0.4147 0.0
C360 C 0.99078 0.44136 0.40581 0.0
C361 C 0.99492 0.45899 0.48239 0.0
C362 C 1.00897 0.45223 0.56769 0.0
C363 C 0.01927 0.42725 0.5738 0.0
H364 H 0.83527 0.98565 0.14706 0.0
H365 H 0.87032 0.01398 0.41394 0.0
H366 H 0.91031 0.02246 0.31991 0.0
H367 H 0.88799 0.95427 0.04708 0.0
H368 H 0.88154 0.96293 0.92055 0.0
H369 H 0.85582 0.96052 0.00817 0.0
H370 H 0.84218 1.00678 0.96917 0.0
H371 H 0.86755 1.00917 0.87987 0.0
H372 H 0.86521 0.03208 0.97832 0.0
H373 H 0.94877 0.02355 0.1918 0.0
H374 H 0.9776 0.02316 0.04501 0.0
H375 H 0.91523 0.99679 0.86385 0.0
C376 C 0.85118 0.99421 0.18533 0.0
C377 C 0.84951 0.99947 0.28774 0.0
C378 C 0.87092 1.01027 0.33526 0.0
C379 C 0.89383 0.01488 0.28232 0.0
C380 C 0.89498 1.00889 0.18133 0.0
C381 C 0.87383 0.99935 0.13331 0.0
C382 C 0.87937 0.99469 0.02471 0.0
C383 C 0.87598 0.96642 0.99866 0.0
C384 C 0.86259 1.0117 0.95916 0.0
C385 C 0.90709 1.00256 0.01842 0.0
C386 C 0.91608 1.01047 0.10931 0.0
C387 C 0.94164 0.01763 0.1205 0.0
C388 C 0.95802 0.01716 0.03686 0.0
C389 C 0.94878 1.00994 0.94266 0.0
C390 C 0.92297 1.00249 0.93456 0.0
H391 H 0.56569 0.84886 0.1625 0.0
H392 H 0.49357 0.84701 0.31754 0.0
H393 H 0.48006 0.8859 0.22597 0.0
H394 H 0.57413 0.9162 0.1514 0.0
H395 H 0.58743 0.91612 0.02844 0.0
H396 H 0.59121 0.88875 0.10744 0.0
H397 H 0.57079 0.86003 0.97411 0.0
H398 H 0.56721 0.88726 0.89428 0.0
H399 H 0.53991 0.86806 0.92569 0.0
H400 H 0.47607 0.92759 0.12 0.0
H401 H 0.47939 0.96284 0.99792 0.0
H402 H 0.55281 0.93446 0.90372 0.0
C403 C 0.54696 0.85657 0.17701 0.0
C404 C 0.53072 0.84491 0.24767 0.0
C405 C 0.50631 0.85549 0.2637 0.0
C406 C 0.49859 0.8777 0.21226 0.0
C407 C 0.5153 0.88889 0.14366 0.0
C408 C 0.53883 0.87825 0.12491 0.0
C409 C 0.55301 0.89296 0.04505 0.0
C410 C 0.57792 0.90417 0.08553 0.0
C411 C 0.55802 0.87607 0.95442 0.0
C412 C 0.53398 0.91378 0.02155 0.0
C413 C 0.51248 0.91147 0.08016 0.0
C414 C 0.49276 0.92924 0.07341 0.0
C415 C 0.49487 0.94936 1.00415 0.0
C416 C 0.51631 0.95143 0.94077 0.0
C417 C 0.53611 0.93337 0.95061 0.0
H418 H 0.68895 0.52478 0.02095 0.0
H419 H 0.66226 0.51897 0.32326 0.0
H420 H 0.61755 0.51698 0.26221 0.0
H421 H 0.63787 0.56342 0.92521 0.0
H422 H 0.63772 0.54732 0.80777 0.0
H423 H 0.66672 0.54951 0.87775 0.0
H424 H 0.67128 0.50043 0.87347 0.0
H425 H 0.64235 0.49811 0.80339 0.0
H426 H 0.64551 0.48081 0.91798 0.0
H427 H 0.57421 0.51518 0.15838 0.0
H428 H 0.54033 0.51147 0.03019 0.0
H429 H 0.59783 0.51713 0.80142 0.0
C430 C 0.67372 0.52331 0.07481 0.0
C431 C 0.67921 0.52222 0.17705 0.0
C432 C 0.65863 0.52 0.2446 0.0
C433 C 0.63314 0.51887 0.21027 0.0
C434 C 0.62848 0.5199 0.10813 0.0
C435 C 0.64849 0.52199 0.04193 0.0
C436 C 0.63928 0.5218 0.93599 0.0
C437 C 0.64578 0.54701 0.88364 0.0
C438 C 0.65025 0.49893 0.87943 0.0
C439 C 0.61091 0.51908 0.95152 0.0
C440 C 0.60467 0.51826 0.05089 0.0
C441 C 0.57917 0.5158 0.0807 0.0
C442 C 0.55994 0.5138 0.00744 0.0
C443 C 0.56633 0.51396 0.9055 0.0
C444 C 0.59218 0.51687 0.87851 0.0
H445 H 0.98246 0.69325 0.05117 0.0
H446 H 0.0209 0.66964 0.31875 0.0
H447 H 0.02347 0.62546 0.25362 0.0
H448 H 0.94501 0.63514 0.01856 0.0
H449 H 0.94754 0.63653 0.88571 0.0
H450 H 0.94805 0.66544 0.95683 0.0
H451 H 0.99104 0.67786 0.87585 0.0
H452 H 0.99073 0.64895 0.805 0.0
H453 H 0.01748 0.65615 0.88316 0.0
H454 H 0.02431 0.58347 0.14705 0.0
H455 H 0.02107 0.54948 0.01989 0.0
H456 H 0.98027 0.60146 0.82854 0.0
C457 C 0.99109 0.6787 0.09693 0.0
C458 C 1.00133 0.68496 0.19047 0.0
C459 C 1.01265 0.66535 0.24747 0.0
C460 C 0.01428 0.64018 0.21057 0.0
C461 C 1.00424 0.63479 0.11694 0.0
C462 C 0.99255 0.65362 0.06184 0.0
C463 C 0.98339 0.64346 0.96327 0.0
C464 C 0.95427 0.64525 0.95569 0.0
C465 C 0.99644 0.65744 0.87675 0.0
C466 C 0.99203 0.61601 0.96984 0.0
C467 C 1.00411 0.61117 0.05862 0.0
C468 C 0.01458 0.58717 0.07809 0.0
C469 C 1.01267 0.56791 0.00539 0.0
C470 C 1.00024 0.57258 0.91419 0.0
C471 C 0.98968 0.59701 0.89756 0.0
H472 H 0.92135 0.21595 0.18115 0.0
H473 H 0.9559 0.24873 0.44075 0.0
H474 H 0.93277 0.21835 0.54589 0.0
H475 H 0.86117 0.18383 0.31338 0.0
H476 H 0.86564 0.1565 0.23518 0.0
H477 H 0.87168 0.18802 0.18738 0.0
H478 H 0.91692 0.17385 0.1359 0.0
H479 H 0.91139 0.14278 0.18479 0.0
H480 H 0.93807 0.16112 0.22847 0.0
H481 H 0.92255 0.17685 0.61189 0.0
H482 H 0.92676 0.1307 0.63055 0.0
H483 H 0.90159 0.12023 0.32884 0.0
C484 C 0.92268 0.21753 0.26078 0.0
C485 C 0.9405 0.23433 0.30301 0.0
C486 C 0.94216 0.23613 0.4069 0.0
C487 C 0.92908 0.21875 0.46723 0.0
C488 C 0.91454 0.19975 0.42233 0.0
C489 C 0.91084 0.19934 0.32083 0.0
C490 C 0.90106 0.17366 0.28702 0.0
C491 C 0.87323 0.17563 0.25383 0.0
C492 C 0.91789 0.16221 0.20444 0.0
C493 C 0.90312 0.15876 0.3825 0.0
C494 C 0.90942 0.17446 0.46082 0.0
C495 C 0.91668 0.16452 0.5522 0.0
C496 C 0.91902 0.13813 0.56222 0.0
C497 C 0.91447 0.12191 0.48081 0.0
C498 C 0.90499 0.13231 0.39212 0.0
H499 H 0.30641 0.09253 0.2795 0.0
H500 H 0.25902 0.03794 0.4327 0.0
H501 H 0.29136 0.03266 0.55885 0.0
H502 H 0.3512 0.06102 0.25452 0.0
H503 H 0.37843 0.08097 0.27743 0.0
H504 H 0.34896 0.09516 0.24317 0.0
H505 H 0.34841 0.1226 0.40103 0.0
H506 H 0.37879 0.10926 0.4347 0.0
H507 H 0.35252 0.10786 0.52041 0.0
H508 H 0.33157 0.01445 0.5997 0.0
H509 H 0.3739 0.99515 0.58748 0.0
H510 H 0.39878 0.05743 0.39978 0.0
C511 C 0.30243 0.08091 0.34394 0.0
C512 C 0.28106 0.06471 0.34381 0.0
C513 C 0.27555 0.05021 0.4295 0.0
C514 C 0.29411 0.04692 0.5019 0.0
C515 C 0.3177 0.0585 0.48765 0.0
C516 C 0.32161 0.07648 0.41346 0.0
C517 C 0.34982 0.08105 0.3967 0.0
C518 C 0.3575 0.07939 0.28653 0.0
C519 C 0.35786 0.10671 0.44091 0.0
C520 C 0.36064 0.05933 0.45657 0.0
C521 C 0.34205 0.04749 0.51277 0.0
C522 C 0.34649 0.02424 0.55956 0.0
C523 C 0.37046 1.01302 0.54987 0.0
C524 C 0.38972 0.02484 0.49273 0.0
C525 C 0.38471 0.04842 0.44673 0.0
H526 H 0.56155 0.28382 0.4052 0.0
H527 H 0.60554 0.29264 0.13751 0.0
H528 H 0.62921 0.32795 0.21234 0.0
H529 H 0.54503 0.33847 0.42507 0.0
H530 H 0.54627 0.34417 0.55636 0.0
H531 H 0.54328 0.31243 0.5122 0.0
H532 H 0.5837 0.29872 0.60586 0.0
H533 H 0.5866 0.33057 0.65383 0.0
H534 H 0.61292 0.3162 0.58923 0.0
H535 H 0.633 0.37063 0.27651 0.0
H536 H 0.61972 0.41331 0.33067 0.0
H537 H 0.57279 0.37934 0.55897 0.0
C538 C 0.57764 0.29195 0.36621 0.0
C539 C 0.58193 0.28564 0.26649 0.0
C540 C 0.60232 0.29708 0.21472 0.0
C541 C 0.61578 0.31728 0.25689 0.0
C542 C 0.6087 0.32561 0.35098 0.0
C543 C 0.59062 0.31268 0.40693 0.0
C544 C 0.58167 0.32866 0.49347 0.0
C545 C 0.55237 0.33109 0.49663 0.0
C546 C 0.59185 0.3179 0.59139 0.0
C547 C 0.59444 0.35369 0.46865 0.0
C548 C 0.61095 0.35127 0.38931 0.0
C549 C 0.621 0.3726 0.34113 0.0
C550 C 0.61317 0.39681 0.37163 0.0
C551 C 0.59537 0.39951 0.44934 0.0
C552 C 0.58704 0.37775 0.5014 0.0
H553 H 0.21049 0.60124 0.15794 0.0
H554 H 0.24953 0.56979 0.41143 0.0
H555 H 0.22159 0.59369 0.52184 0.0
H556 H 0.17914 0.66143 0.29185 0.0
H557 H 0.1503 0.65519 0.22435 0.0
H558 H 0.18081 0.64999 0.16651 0.0
H559 H 0.16745 0.60375 0.12672 0.0
H560 H 0.13739 0.60862 0.1848 0.0
H561 H 0.15756 0.58301 0.22622 0.0
H562 H 0.1819 0.60371 0.60104 0.0
H563 H 0.13656 0.5969 0.63672 0.0
H564 H 0.11786 0.6168 0.33517 0.0
C565 C 0.21378 0.60046 0.23685 0.0
C566 C 0.23175 0.58326 0.27595 0.0
C567 C 0.236 0.58288 0.37909 0.0
C568 C 0.21999 0.59645 0.44278 0.0
C569 C 0.19969 0.61006 0.4024 0.0
C570 C 0.19675 0.61251 0.30093 0.0
C571 C 0.16999 0.62095 0.27491 0.0
C572 C 0.17008 0.64854 0.23722 0.0
C573 C 0.15739 0.60299 0.19897 0.0
C574 C 0.15743 0.61919 0.3756 0.0
C575 C 0.17525 0.6147 0.44901 0.0
C576 C 0.16792 0.608 0.54487 0.0
C577 C 0.1421 0.60399 0.56448 0.0
C578 C 0.12392 0.60626 0.48819 0.0
C579 C 0.13147 0.61558 0.39486 0.0
H580 H 0.09412 0.80334 0.32944 0.0
H581 H 0.05601 0.76727 0.08405 0.0
H582 H 0.08014 0.79381 0.96791 0.0
H583 H 0.08057 0.85784 0.26954 0.0
H584 H 0.10882 0.87521 0.30348 0.0
H585 H 0.1021 0.8455 0.36158 0.0
H586 H 0.14587 0.82806 0.30649 0.0
H587 H 0.15291 0.85818 0.24816 0.0
H588 H 0.15494 0.82918 0.17792 0.0
H589 H 0.09145 0.83299 0.88828 0.0
H590 H 0.08688 0.87886 0.85838 0.0
H591 H 0.11493 0.89452 0.1519 0.0
C592 C 0.09193 0.80034 0.25078 0.0
C593 C 0.07298 0.78369 0.21571 0.0
C594 C 0.07054 0.77981 0.11288 0.0
C595 C 0.08427 0.79495 0.04611 0.0
C596 C 0.10021 0.81392 0.0833 0.0
C597 C 0.10452 0.81634 0.18398 0.0
C598 C 0.11601 0.84205 0.20819 0.0
C599 C 0.10093 0.85593 0.29024 0.0
C600 C 0.1441 0.83919 0.23683 0.0
C601 C 0.11356 0.8551 0.10874 0.0
C602 C 0.10619 0.83803 0.03616 0.0
C603 C 0.09804 0.84632 0.94338 0.0
C604 C 0.09536 0.87244 0.92699 0.0
C605 C 0.10059 0.88994 1.00333 0.0
C606 C 0.11151 0.88132 0.09215 0.0
H607 H 0.71475 0.96446 0.16704 0.0
H608 H 0.76504 0.02774 0.10937 0.0
H609 H 0.73762 0.04197 0.97438 0.0
H610 H 0.68034 0.96435 0.89831 0.0
H611 H 0.65062 0.95818 0.96083 0.0
H612 H 0.6795 0.94334 1.00368 0.0
H613 H 0.67148 0.96108 0.17796 0.0
H614 H 0.64311 0.9764 0.13814 0.0
H615 H 0.668 0.99496 0.1945 0.0
H616 H 0.69874 0.06059 0.91266 0.0
H617 H 0.65524 0.07839 0.92066 0.0
H618 H 0.62703 1.00621 0.02903 0.0
C619 C 0.72057 0.9803 0.12085 0.0
C620 C 0.74139 0.99532 0.14911 0.0
C621 C 0.74904 0.01593 0.08869 0.0
C622 C 0.7334 0.02421 0.01163 0.0
C623 C 0.71035 1.01166 0.99655 0.0
C624 C 0.70429 0.98941 0.04749 0.0
C625 C 0.67614 0.98362 0.04124 0.0
C626 C 0.67137 0.96105 0.97181 0.0
C627 C 0.66402 0.9788 0.14401 0.0
C628 C 0.66693 1.00812 0.99546 0.0
C629 C 0.68687 0.0233 0.96369 0.0
C630 C 0.68296 0.0485 0.9338 0.0
C631 C 0.65834 0.05861 0.93969 0.0
C632 C 0.63826 0.04365 0.97754 0.0
C633 C 0.64243 0.01795 1.00129 0.0
H634 H 0.54751 0.74655 0.10794 0.0
H635 H 0.61011 0.71688 0.27734 0.0
H636 H 0.60785 0.67678 0.18583 0.0
H637 H 0.51303 0.70486 0.17586 0.0
H638 H 0.49277 0.69933 0.07076 0.0
H639 H 0.50819 0.72932 0.08382 0.0
H640 H 0.5304 0.72526 0.91338 0.0
H641 H 0.5133 0.69584 0.89683 0.0
H642 H 0.54741 0.69655 0.88314 0.0
H643 H 0.58743 0.63658 0.14397 0.0
H644 H 0.55566 0.60242 0.137 0.0
H645 H 0.49952 0.65671 0.03305 0.0
C646 C 0.56201 0.73225 0.11935 0.0
C647 C 0.57815 0.73406 0.20173 0.0
C648 C 0.59729 0.71555 0.21502 0.0
C649 C 0.59575 0.69245 0.16406 0.0
C650 C 0.57518 0.68866 0.10051 0.0
C651 C 0.55882 0.70844 0.07592 0.0
C652 C 0.53377 0.69842 0.03648 0.0
C653 C 0.51066 0.70856 0.09539 0.0
C654 C 0.53111 0.70437 0.92581 0.0
C655 C 0.53747 0.67033 0.05326 0.0
C656 C 0.56181 0.66491 0.08497 0.0
C657 C 0.56855 0.64057 0.11644 0.0
C658 C 0.55007 0.62138 0.11474 0.0
C659 C 0.52475 0.62676 0.08532 0.0
C660 C 0.5187 0.6516 0.05344 0.0
H661 H 0.78615 0.48313 0.082 0.0
H662 H 0.77982 0.42514 0.30733 0.0
H663 H 0.80959 0.39793 0.21474 0.0
H664 H 0.80467 0.43825 0.85845 0.0
H665 H 0.82717 0.46187 0.81673 0.0
H666 H 0.79751 0.47158 0.8722 0.0
H667 H 0.82211 0.49857 0.99897 0.0
H668 H 0.85177 0.48903 0.94649 0.0
H669 H 0.84575 0.4836 0.07605 0.0
H670 H 0.84947 0.3852 0.13917 0.0
H671 H 0.89424 0.38767 0.0848 0.0
H672 H 0.8764 0.4535 0.90533 0.0
C673 C 0.78974 0.4639 0.10718 0.0
C674 C 0.78044 0.45575 0.19954 0.0
C675 C 0.78638 0.43122 0.23498 0.0
C676 C 0.80329 0.4157 0.18271 0.0
C677 C 0.81409 0.42511 0.09552 0.0
C678 C 0.80713 0.44855 0.05666 0.0
C679 C 0.82563 0.45722 0.97736 0.0
C680 C 0.81298 0.45721 0.87512 0.0
C681 C 0.83698 0.48361 1.00132 0.0
C682 C 0.84536 0.43639 0.98484 0.0
C683 C 0.83797 0.41756 0.05073 0.0
C684 C 0.85507 0.39917 0.08434 0.0
C685 C 0.8805 0.40074 0.05359 0.0
C686 C 0.88849 0.42051 0.98977 0.0
C687 C 0.87044 0.43764 0.95118 0.0
H688 H 1.00952 0.1829 0.18523 0.0
H689 H 1.00428 0.23127 0.92647 0.0
H690 H 1.00876 0.1933 0.81906 0.0
H691 H 0.05472 0.13516 0.08162 0.0
H692 H 0.03889 0.10928 0.14429 0.0
H693 H 0.03899 0.14057 0.19829 0.0
H694 H 0.98981 0.13941 0.20717 0.0
H695 H 0.98948 0.10838 0.15147 0.0
H696 H 0.97184 0.13405 0.09589 0.0
H697 H 1.00781 0.14852 0.7405 0.0
H698 H 1.00648 0.10279 0.69845 0.0
H699 H 1.01262 0.08356 0.00958 0.0
C700 C 1.01038 0.18565 0.10583 0.0
C701 C 1.0071 0.21034 0.06447 0.0
C702 C 1.00749 0.21285 0.96017 0.0
C703 C 1.00967 0.19123 0.89864 0.0
C704 C 1.0116 0.16708 0.94214 0.0
C705 C 1.01246 0.1643 0.04369 0.0
C706 C 1.01311 0.1363 0.07285 0.0
C707 C 0.03791 0.12996 0.12749 0.0
C708 C 0.98967 0.12913 0.13553 0.0
C709 C 1.01227 0.12359 0.97206 0.0
C710 C 1.01127 0.14164 0.89749 0.0
C711 C 1.00902 0.13436 0.79859 0.0
C712 C 1.00815 0.10821 0.77534 0.0
C713 C 1.00968 0.08927 0.85021 0.0
C714 C 1.01175 0.09734 0.95002 0.0
H715 H 0.33083 1.01196 0.15341 0.0
H716 H 0.28882 0.03649 0.89525 0.0
H717 H 0.32863 0.03481 0.79587 0.0
H718 H 0.3853 0.04786 0.11274 0.0
H719 H 0.40803 0.02445 0.15335 0.0
H720 H 0.37625 0.02401 0.20257 0.0
H721 H 0.3696 0.97776 0.14762 0.0
H722 H 0.40177 0.97722 0.10136 0.0
H723 H 0.37575 0.96901 0.02102 0.0
H724 H 0.37503 0.03559 0.73079 0.0
H725 H 0.42126 0.03191 0.69705 0.0
H726 H 0.43328 1.00797 1.00013 0.0
C727 C 0.3298 0.01623 0.07511 0.0
C728 C 0.30632 0.024 0.03205 0.0
C729 C 0.30618 0.02993 0.92978 0.0
C730 C 0.32889 0.02933 0.87308 0.0
C731 C 0.35181 0.02262 0.91913 0.0
C732 C 0.35227 0.0157 0.01772 0.0
C733 C 0.37937 1.00982 0.05083 0.0
C734 C 0.38771 0.02762 0.1348 0.0
C735 C 0.38176 0.98179 0.08203 0.0
C736 C 0.39431 0.01508 0.9563 0.0
C737 C 0.37809 0.02235 0.88104 0.0
C738 C 0.38765 0.02884 0.78781 0.0
C739 C 0.41408 0.02694 0.76965 0.0
C740 C 0.43116 0.01944 0.84525 0.0
C741 C 0.42091 0.0137 0.94022 0.0
H742 H 0.54311 0.31602 0.95451 0.0
H743 H 0.47648 0.30937 0.14214 0.0
H744 H 0.46142 0.35116 0.08097 0.0
H745 H 0.55458 0.37978 0.99663 0.0
H746 H 0.56489 0.38781 0.87316 0.0
H747 H 0.56853 0.35581 0.91849 0.0
H748 H 0.54301 0.33854 0.76992 0.0
H749 H 0.53962 0.37051 0.72329 0.0
H750 H 0.51183 0.35112 0.74448 0.0
H751 H 0.45731 0.39676 0.02046 0.0
H752 H 0.46168 0.44013 0.95231 0.0
H753 H 0.53038 0.41768 0.79784 0.0
C754 C 0.52487 0.32293 0.98016 0.0
C755 C 0.51083 0.30903 0.0528 0.0
C756 C 0.48732 0.31913 0.08536 0.0
C757 C 0.47878 0.34309 0.0516 0.0
C758 C 0.49372 0.35676 0.98393 0.0
C759 C 0.51604 0.34678 0.94684 0.0
C760 C 0.52939 0.36599 0.87939 0.0
C761 C 0.55591 0.37274 0.91935 0.0
C762 C 0.53105 0.35593 0.77296 0.0
C763 C 0.51144 0.38864 0.88608 0.0
C764 C 0.49102 0.38285 0.94706 0.0
C765 C 0.47294 0.40122 0.97115 0.0
C766 C 0.47568 0.42594 0.9323 0.0
C767 C 0.4962 0.43244 0.86863 0.0
C768 C 0.51418 0.41329 0.84451 0.0
H769 H 0.17777 0.51662 0.16439 0.0
H770 H 0.22706 0.51462 0.90766 0.0
H771 H 0.1893 0.50857 0.80011 0.0
H772 H 0.12954 0.47022 0.07645 0.0
H773 H 0.10381 0.48791 0.13132 0.0
H774 H 0.13493 0.48863 0.18667 0.0
H775 H 0.13471 0.53777 0.17631 0.0
H776 H 0.10389 0.53731 0.1189 0.0
H777 H 0.13012 0.55308 0.05829 0.0
H778 H 0.14462 0.50809 0.71906 0.0
H779 H 0.09896 0.5088 0.6751 0.0
H780 H 0.07911 0.51121 0.98619 0.0
C781 C 0.18072 0.51397 0.08579 0.0
C782 C 0.20558 0.51563 0.04477 0.0
C783 C 0.20843 0.51277 0.94124 0.0
C784 C 0.18697 0.50965 0.87952 0.0
C785 C 0.16266 0.50926 0.92224 0.0
C786 C 0.15956 0.5109 0.02351 0.0
C787 C 0.13153 0.5114 0.05147 0.0
C788 C 0.12454 0.48815 0.11524 0.0
C789 C 0.12467 0.53637 0.10433 0.0
C790 C 0.11915 0.50999 0.95026 0.0
C791 C 0.13737 0.50888 0.8764 0.0
C792 C 0.13034 0.50865 0.77677 0.0
C793 C 0.10424 0.50927 0.75229 0.0
C794 C 0.0852 0.51004 0.82675 0.0
C795 C 0.09302 0.51034 0.9271 0.0
H796 H 1.00776 0.837 0.35421 0.0
H797 H 0.01595 0.78884 0.61239 0.0
H798 H 1.01189 0.82684 0.72012 0.0
H799 H 0.04496 0.88717 0.43874 0.0
H800 H 0.02603 0.91219 0.38513 0.0
H801 H 0.02629 0.88112 0.32976 0.0
H802 H 0.97728 0.8784 0.34451 0.0
H803 H 0.97677 0.90969 0.39843 0.0
H804 H 0.96231 0.88332 0.463 0.0
H805 H 1.01217 0.87179 0.79846 0.0
H806 H 1.01219 0.91756 0.83982 0.0
H807 H 1.00337 0.93637 0.52966 0.0
C808 C 1.00781 0.83431 0.43366 0.0
C809 C 1.01174 0.80969 0.47473 0.0
C810 C 1.01234 0.80723 0.57902 0.0
C811 C 1.01035 0.82885 0.64069 0.0
C812 C 1.00755 0.85294 0.59734 0.0
C813 C 1.00581 0.85564 0.49595 0.0
C814 C 1.00399 0.88358 0.46678 0.0
C815 C 0.02666 0.89147 0.40124 0.0
C816 C 0.97857 0.88907 0.41514 0.0
C817 C 1.00522 0.89638 0.56734 0.0
C818 C 1.00741 0.87842 0.64184 0.0
C819 C 1.01013 0.88585 0.7404 0.0
C820 C 1.01035 0.91204 0.7633 0.0
C821 C 1.00777 0.93087 0.68858 0.0
C822 C 1.00507 0.92265 0.58918 0.0
H823 H 0.68822 0.02244 0.38852 0.0
H824 H 0.73305 0.99084 0.62824 0.0
H825 H 0.69453 0.99122 0.73523 0.0
H826 H 0.64498 0.06103 0.53307 0.0
H827 H 0.61808 0.05374 0.45578 0.0
H828 H 0.64968 0.05391 0.40398 0.0
H829 H 0.643 1.00808 0.34201 0.0
H830 H 0.61155 1.00736 0.39453 0.0
H831 H 0.63439 0.98336 0.42855 0.0
H832 H 0.64875 0.99279 0.81263 0.0
H833 H 0.60274 0.99606 0.85338 0.0
H834 H 0.58771 0.02122 0.55411 0.0
C835 C 0.69026 0.01525 0.46312 0.0
C836 C 0.71421 1.00612 0.49817 0.0
C837 C 0.71539 0.99805 0.59839 0.0
C838 C 0.69338 0.99799 0.6597 0.0
C839 C 0.66999 1.0059 0.62032 0.0
C840 C 0.66846 0.01439 0.52391 0.0
C841 C 0.64108 0.02063 0.49619 0.0
C842 C 0.6383 0.04902 0.47077 0.0
C843 C 0.63198 1.00384 0.41027 0.0
C844 C 0.62713 0.0141 0.59161 0.0
C845 C 0.64412 1.00606 0.6631 0.0
C846 C 0.6355 0.99939 0.7576 0.0
C847 C 0.60924 1.00121 0.77992 0.0
C848 C 0.59139 1.00875 0.70711 0.0
C849 C 0.6007 0.01518 0.61152 0.0
H850 H 0.52341 0.68443 0.3549 0.0
H851 H 0.52349 0.73061 0.6198 0.0
H852 H 0.51436 0.69198 0.71992 0.0
H853 H 0.47354 0.63875 0.43275 0.0
H854 H 0.48939 0.61226 0.37509 0.0
H855 H 0.49298 0.64378 0.32434 0.0
H856 H 0.54174 0.63976 0.33726 0.0
H857 H 0.53835 0.6083 0.3885 0.0
H858 H 0.55597 0.63219 0.45485 0.0
H859 H 0.51053 0.64695 0.79377 0.0
H860 H 0.50782 0.60107 0.83179 0.0
H861 H 0.5097 0.58374 0.51921 0.0
C862 C 0.52098 0.68659 0.43398 0.0
C863 C 0.52412 0.71088 0.4792 0.0
C864 C 0.52085 0.71256 0.58288 0.0
C865 C 0.51594 0.69056 0.64051 0.0
C866 C 0.51418 0.66685 0.59389 0.0
C867 C 0.5162 0.66483 0.49247 0.0
C868 C 0.51457 0.63707 0.46024 0.0
C869 C 0.49122 0.63272 0.39423 0.0
C870 C 0.53912 0.62885 0.40711 0.0
C871 C 0.51164 0.62359 0.55961 0.0
C872 C 0.51147 0.64115 0.63573 0.0
C873 C 0.51005 0.63324 0.73426 0.0
C874 C 0.50831 0.60701 0.75541 0.0
C875 C 0.50776 0.58851 0.67932 0.0
C876 C 0.50973 0.59716 0.57973 0.0
H877 H 0.82915 0.52397 0.35167 0.0
H878 H 0.78411 0.50115 0.60519 0.0
H879 H 0.82269 0.50321 0.71047 0.0
H880 H 0.88197 0.48769 0.40296 0.0
H881 H 0.90542 0.51045 0.36196 0.0
H882 H 0.87393 0.51105 0.31036 0.0
H883 H 0.86866 0.55815 0.36134 0.0
H884 H 0.90038 0.5579 0.41146 0.0
H885 H 0.87391 0.56722 0.4881 0.0
H886 H 0.86808 0.50181 0.78222 0.0
H887 H 0.91416 0.50179 0.81821 0.0
H888 H 0.92972 0.52617 0.51725 0.0
C889 C 0.8272 0.5205 0.43032 0.0
C890 C 0.80332 0.51308 0.47063 0.0
C891 C 0.80187 0.50767 0.57313 0.0
C892 C 0.82385 0.50846 0.63318 0.0
C893 C 0.84727 0.51484 0.59002 0.0
C894 C 0.84892 0.5213 0.49109 0.0
C895 C 0.87644 0.5262 0.46099 0.0
C896 C 0.88493 0.50775 0.37925 0.0
C897 C 0.88006 0.55402 0.42857 0.0
C898 C 0.89023 0.52084 0.55755 0.0
C899 C 0.87309 0.51435 0.63122 0.0
C900 C 0.88151 0.50736 0.72536 0.0
C901 C 0.90786 0.50734 0.74499 0.0
C902 C 0.92588 0.51425 0.67118 0.0
C903 C 0.91667 0.52108 0.57607 0.0
loop_
_geom_bond_atom_site_label_1
_geom_bond_atom_site_label_2
_geom_bond_distance
_geom_bond_site_symmetry_2
_ccdc_geom_bond_type
H0 C5 0.930 . S
H1 C8 0.930 . S
H2 C10 0.930 . S
H3 C4 1.016 . S
C4 H3 1.016 . S
C4 N11 1.286 . S
C5 H0 0.930 . S
C5 C6 1.397 . S
C5 C7 1.361 . S
C6 C5 1.397 . S
C6 C10 1.390 . S
C7 C5 1.361 . S
C7 C8 1.393 . S
C7 N11 1.413 . S
C8 H1 0.930 . S
C8 C7 1.393 . S
C8 C9 1.399 . S
C9 C8 1.399 . S
C9 C10 1.381 . S
C10 H2 0.930 . S
C10 C6 1.390 . S
C10 C9 1.381 . S
N11 C4 1.286 . S
N11 C7 1.413 . S
H12 C17 0.930 . S
H13 C20 0.930 . S
H14 C22 0.930 . S
H15 C16 1.029 . S
C16 H15 1.029 . S
C16 N23 1.268 1_655 S
C17 H12 0.930 . S
C17 C18 1.397 . S
C17 C19 1.361 . S
C18 C17 1.397 . S
C18 C22 1.390 1_455 S
C19 C17 1.361 . S
C19 C20 1.393 . S
C19 N23 1.413 . S
C20 H13 0.930 . S
C20 C19 1.393 . S
C20 C21 1.402 . S
C21 C20 1.402 . S
C21 C22 1.379 1_455 S
C22 H14 0.930 . S
C22 C18 1.390 1_655 S
C22 C21 1.379 1_655 S
N23 C16 1.268 1_455 S
N23 C19 1.413 . S
H24 C29 0.930 . S
H25 C32 0.930 . S
H26 C34 0.930 . S
H27 C28 1.030 . S
C28 H27 1.030 . S
C28 N35 1.268 1_565 S
C29 H24 0.930 . S
C29 C30 1.397 . S
C29 C31 1.361 . S
C30 C29 1.397 . S
C30 C34 1.390 1_545 S
C31 C29 1.361 . S
C31 C32 1.393 . S
C31 N35 1.413 . S
C32 H25 0.930 . S
C32 C31 1.393 . S
C32 C33 1.402 . S
C33 C32 1.402 . S
C33 C34 1.379 1_545 S
C34 H26 0.930 . S
C34 C30 1.390 1_565 S
C34 C33 1.379 1_565 S
N35 C28 1.268 1_545 S
N35 C31 1.413 . S
H36 C41 0.930 . S
H37 C44 0.930 . S
H38 C46 0.930 . S
H39 C40 1.016 . S
C40 H39 1.016 . S
C40 N47 1.286 . S
C41 H36 0.930 . S
C41 C42 1.397 . S
C41 C43 1.361 . S
C42 C41 1.397 . S
C42 C46 1.390 . S
C43 C41 1.361 . S
C43 C44 1.393 . S
C43 N47 1.413 . S
C44 H37 0.930 . S
C44 C43 1.393 . S
C44 C45 1.399 . S
C45 C44 1.399 . S
C45 C46 1.381 . S
C46 H38 0.930 . S
C46 C42 1.390 . S
C46 C45 1.381 . S
N47 C40 1.286 . S
N47 C43 1.413 . S
H48 C53 0.930 . S
H49 C56 0.930 . S
H50 C58 0.930 . S
H51 C52 1.016 . S
C52 H51 1.016 . S
C52 N59 1.286 . S
C53 H48 0.930 . S
C53 C54 1.397 . S
C53 C55 1.361 1_556 S
C54 C53 1.397 . S
C54 C58 1.390 1_556 S
C55 C53 1.361 1_554 S
C55 C56 1.393 . S
C55 N59 1.413 . S
C56 H49 0.930 . S
C56 C55 1.393 . S
C56 C57 1.399 . S
C57 C56 1.399 . S
C57 C58 1.381 . S
C58 H50 0.930 . S
C58 C54 1.390 1_554 S
C58 C57 1.381 . S
N59 C52 1.286 . S
N59 C55 1.413 . S
H60 C65 0.930 . S
H61 C68 0.930 . S
H62 C70 0.930 . S
H63 C64 1.026 . S
C64 H63 1.026 . S
C64 N71 1.273 1_655 S
C65 H60 0.930 . S
C65 C66 1.397 . S
C65 C67 1.361 1_556 S
C66 C65 1.397 . S
C66 C70 1.390 1_456 S
C67 C65 1.361 1_554 S
C67 C68 1.393 . S
C67 N71 1.413 . S
C68 H61 0.930 . S
C68 C67 1.393 . S
C68 C69 1.404 . S
C69 C68 1.404 . S
C69 C70 1.378 1_455 S
C70 H62 0.930 . S
C70 C66 1.390 1_654 S
C70 C69 1.378 1_655 S
N71 C64 1.273 1_455 S
N71 C67 1.413 . S
H72 C77 0.930 . S
H73 C80 0.930 . S
H74 C82 0.930 . S
H75 C76 1.025 . S
C76 H75 1.025 . S
C76 N83 1.273 1_565 S
C77 H72 0.930 . S
C77 C78 1.397 . S
C77 C79 1.361 1_556 S
C78 C77 1.397 . S
C78 C82 1.390 1_546 S
C79 C77 1.361 1_554 S
C79 C80 1.393 . S
C79 N83 1.413 . S
C80 H73 0.930 . S
C80 C79 1.393 . S
C80 C81 1.404 . S
C81 C80 1.404 . S
C81 C82 1.378 1_545 S
C82 H74 0.930 . S
C82 C78 1.390 1_564 S
C82 C81 1.378 1_565 S
N83 C76 1.273 1_545 S
N83 C79 1.413 . S
H84 C89 0.930 . S
H85 C92 0.930 . S
H86 C94 0.930 . S
H87 C88 1.016 . S
C88 H87 1.016 . S
C88 N95 1.286 . S
C89 H84 0.930 . S
C89 C90 1.397 . S
C89 C91 1.361 1_556 S
C90 C89 1.397 . S
C90 C94 1.390 1_556 S
C91 C89 1.361 1_554 S
C91 C92 1.393 . S
C91 N95 1.413 . S
C92 H85 0.930 . S
C92 C91 1.393 . S
C92 C93 1.399 . S
C93 C92 1.399 . S
C93 C94 1.381 . S
C94 H86 0.930 . S
C94 C90 1.390 1_554 S
C94 C93 1.381 . S
N95 C88 1.286 . S
N95 C91 1.413 . S
Tb96 C98 2.809 . S
Tb96 O116 2.484 . S
Tb96 O117 2.440 . S
Tb96 O118 2.658 1_565 S
Tb96 O119 2.409 . S
Tb96 O120 2.378 . S
Tb96 O124 2.325 1_455 S
Tb96 O127 2.341 1_565 S
Tb97 C107 2.809 . S
Tb97 O118 2.325 1_655 S
Tb97 O121 2.341 1_545 S
Tb97 O122 2.484 . S
Tb97 O123 2.440 . S
Tb97 O124 2.658 1_545 S
Tb97 O125 2.409 . S
Tb97 O126 2.378 . S
C98 Tb96 2.809 . S
C98 C99 1.514 . S
C98 O116 1.248 . S
C98 O117 1.266 . S
C99 C98 1.514 . S
C99 C100 1.359 1_556 S
C99 C104 1.348 1_556 S
C100 C99 1.359 1_554 S
C100 C101 1.380 . S
C100 H128 0.929 1_455 S
C101 C100 1.380 . S
C101 C102 1.347 . S
C101 H129 0.931 1_455 S
C102 C101 1.347 . S
C102 C103 1.369 . S
C103 C102 1.369 . S
C103 C104 1.408 . S
C103 H130 0.930 . S
C104 C99 1.348 1_554 S
C104 C103 1.408 . S
C104 H131 0.930 1_554 S
C105 O118 1.281 1_565 S
C105 O119 1.254 . S
C106 O120 1.236 1_655 S
C106 O121 1.266 . S
C107 Tb97 2.809 . S
C107 C108 1.514 . S
C107 O122 1.248 . S
C107 O123 1.266 . S
C108 C107 1.514 . S
C108 C109 1.359 . S
C108 C113 1.348 . S
C109 C108 1.359 . S
C109 C110 1.380 . S
C109 H132 0.929 1_655 S
C110 C109 1.380 . S
C110 C111 1.347 . S
C110 H133 0.931 1_655 S
C111 C110 1.347 . S
C111 C112 1.369 . S
C112 C111 1.369 . S
C112 C113 1.408 . S
C112 H134 0.930 . S
C113 C108 1.348 . S
C113 C112 1.408 . S
C113 H135 0.930 . S
C114 O124 1.281 1_545 S
C114 O125 1.254 . S
C115 O126 1.236 1_455 S
C115 O127 1.266 . S
O116 Tb96 2.484 . S
O116 C98 1.248 . S
O117 Tb96 2.440 . S
O117 C98 1.266 . S
O118 Tb96 2.658 1_545 S
O118 Tb97 2.325 1_455 S
O118 C105 1.281 1_545 S
O119 Tb96 2.409 . S
O119 C105 1.254 . S
O120 Tb96 2.378 . S
O120 C106 1.236 1_455 S
O121 Tb97 2.341 1_565 S
O121 C106 1.266 . S
O122 Tb97 2.484 . S
O122 C107 1.248 . S
O123 Tb97 2.440 . S
O123 C107 1.266 . S
O124 Tb96 2.325 1_655 S
O124 Tb97 2.658 1_565 S
O124 C114 1.281 1_565 S
O125 Tb97 2.409 . S
O125 C114 1.254 . S
O126 Tb97 2.378 . S
O126 C115 1.236 1_655 S
O127 Tb96 2.341 1_545 S
O127 C115 1.266 . S
H128 C100 0.929 1_655 S
H129 C101 0.931 1_655 S
H130 C103 0.930 . S
H131 C104 0.930 1_556 S
H132 C109 0.929 1_455 S
H133 C110 0.931 1_455 S
H134 C112 0.930 . S
H135 C113 0.930 . S
Tb136 C138 2.809 . S
Tb136 O156 2.502 . S
Tb136 O157 2.440 . S
Tb136 O158 2.658 . S
Tb136 O159 2.409 . S
Tb136 O160 2.378 . S
Tb136 O164 2.325 1_545 S
Tb136 O167 2.341 . S
Tb137 C147 2.809 . S
Tb137 O158 2.325 1_565 S
Tb137 O161 2.341 . S
Tb137 O162 2.498 . S
Tb137 O163 2.440 . S
Tb137 O164 2.658 . S
Tb137 O165 2.409 . S
Tb137 O166 2.378 . S
C138 Tb136 2.809 . S
C138 C139 1.514 . S
C138 O156 1.289 . S
C138 O157 1.266 . S
C139 C138 1.514 . S
C139 C140 1.358 1_556 S
C139 C144 1.348 1_556 S
C140 C139 1.358 1_554 S
C140 C141 1.380 . S
C140 H168 0.929 1_545 S
C141 C140 1.380 . S
C141 C142 1.347 . S
C141 H169 0.931 1_545 S
C142 C141 1.347 . S
C142 C143 1.369 . S
C143 C142 1.369 . S
C143 C144 1.408 . S
C143 H170 0.930 . S
C144 C139 1.348 1_554 S
C144 C143 1.408 . S
C144 H171 0.930 1_554 S
C145 O158 1.281 . S
C145 O159 1.254 . S
C146 O160 1.236 1_565 S
C146 O161 1.266 . S
C147 Tb137 2.809 . S
C147 C148 1.514 . S
C147 O162 1.279 . S
C147 O163 1.266 . S
C148 C147 1.514 . S
C148 C149 1.359 . S
C148 C153 1.348 . S
C149 C148 1.359 . S
C149 C150 1.380 . S
C149 H172 0.929 1_565 S
C150 C149 1.380 . S
C150 C151 1.347 . S
C150 H173 0.931 1_565 S
C151 C150 1.347 . S
C151 C152 1.369 . S
C152 C151 1.369 . S
C152 C153 1.408 . S
C152 H174 0.930 . S
C153 C148 1.348 . S
C153 C152 1.408 . S
C153 H175 0.930 . S
C154 O164 1.281 . S
C154 O165 1.254 . S
C155 O166 1.236 1_545 S
C155 O167 1.266 . S
O156 Tb136 2.502 . S
O156 C138 1.289 . S
O157 Tb136 2.440 . S
O157 C138 1.266 . S
O158 Tb136 2.658 . S
O158 Tb137 2.325 1_545 S
O158 C145 1.281 . S
O159 Tb136 2.409 . S
O159 C145 1.254 . S
O160 Tb136 2.378 . S
O160 C146 1.236 1_545 S
O161 Tb137 2.341 . S
O161 C146 1.266 . S
O162 Tb137 2.498 . S
O162 C147 1.279 . S
O163 Tb137 2.440 . S
O163 C147 1.266 . S
O164 Tb136 2.325 1_565 S
O164 Tb137 2.658 . S
O164 C154 1.281 . S
O165 Tb137 2.409 . S
O165 C154 1.254 . S
O166 Tb137 2.378 . S
O166 C155 1.236 1_565 S
O167 Tb136 2.341 . S
O167 C155 1.266 . S
H168 C140 0.929 1_565 S
H169 C141 0.931 1_565 S
H170 C143 0.930 . S
H171 C144 0.930 1_556 S
H172 C149 0.929 1_545 S
H173 C150 0.931 1_545 S
H174 C152 0.930 . S
H175 C153 0.930 . S
Tb176 C178 2.809 . S
Tb176 O196 2.484 . S
Tb176 O197 2.440 . S
Tb176 O198 2.658 . S
Tb176 O199 2.409 . S
Tb176 O200 2.378 . S
Tb176 O204 2.325 . S
Tb176 O207 2.341 . S
Tb177 C187 2.809 . S
Tb177 O198 2.325 . S
Tb177 O201 2.341 . S
Tb177 O202 2.484 . S
Tb177 O203 2.440 . S
Tb177 O204 2.658 . S
Tb177 O205 2.409 . S
Tb177 O206 2.378 . S
C178 Tb176 2.809 . S
C178 C179 1.514 1_556 S
C178 O196 1.248 . S
C178 O197 1.266 . S
C179 C178 1.514 1_554 S
C179 C180 1.359 . S
C179 C184 1.348 . S
C180 C179 1.359 . S
C180 C181 1.380 . S
C180 H208 0.929 . S
C181 C180 1.380 . S
C181 C182 1.347 . S
C181 H209 0.931 . S
C182 C181 1.347 . S
C182 C183 1.369 . S
C183 C182 1.369 . S
C183 C184 1.408 . S
C183 H210 0.930 . S
C184 C179 1.348 . S
C184 C183 1.408 . S
C184 H211 0.930 1_554 S
C185 O198 1.281 . S
C185 O199 1.254 . S
C186 O200 1.236 . S
C186 O201 1.266 . S
C187 Tb177 2.809 . S
C187 C188 1.514 . S
C187 O202 1.248 . S
C187 O203 1.266 . S
C188 C187 1.514 . S
C188 C189 1.359 . S
C188 C193 1.348 . S
C189 C188 1.359 . S
C189 C190 1.380 . S
C189 H212 0.929 . S
C190 C189 1.380 . S
C190 C191 1.347 . S
C190 H213 0.931 . S
C191 C190 1.347 . S
C191 C192 1.369 . S
C192 C191 1.369 . S
C192 C193 1.408 . S
C192 H214 0.930 . S
C193 C188 1.348 . S
C193 C192 1.408 . S
C193 H215 0.930 . S
C194 O204 1.281 . S
C194 O205 1.254 . S
C195 O206 1.236 . S
C195 O207 1.266 . S
O196 Tb176 2.484 . S
O196 C178 1.248 . S
O197 Tb176 2.440 . S
O197 C178 1.266 . S
O198 Tb176 2.658 . S
O198 Tb177 2.325 . S
O198 C185 1.281 . S
O199 Tb176 2.409 . S
O199 C185 1.254 . S
O200 Tb176 2.378 . S
O200 C186 1.236 . S
O201 Tb177 2.341 . S
O201 C186 1.266 . S
O202 Tb177 2.484 . S
O202 C187 1.248 . S
O203 Tb177 2.440 . S
O203 C187 1.266 . S
O204 Tb176 2.325 . S
O204 Tb177 2.658 . S
O204 C194 1.281 . S
O205 Tb177 2.409 . S
O205 C194 1.254 . S
O206 Tb177 2.378 . S
O206 C195 1.236 . S
O207 Tb176 2.341 . S
O207 C195 1.266 . S
H208 C180 0.929 . S
H209 C181 0.931 . S
H210 C183 0.930 . S
H211 C184 0.930 1_556 S
H212 C189 0.929 . S
H213 C190 0.931 . S
H214 C192 0.930 . S
H215 C193 0.930 . S
Tb216 C218 2.809 . S
Tb216 O236 2.484 . S
Tb216 O237 2.440 . S
Tb216 O238 2.658 1_655 S
Tb216 O239 2.409 . S
Tb216 O240 2.378 . S
Tb216 O244 2.325 . S
Tb216 O247 2.341 1_655 S
Tb217 C227 2.809 . S
Tb217 O238 2.325 . S
Tb217 O241 2.341 1_455 S
Tb217 O242 2.484 . S
Tb217 O243 2.440 . S
Tb217 O244 2.658 1_455 S
Tb217 O245 2.409 . S
Tb217 O246 2.378 . S
C218 Tb216 2.809 . S
C218 C219 1.514 1_556 S
C218 O236 1.248 . S
C218 O237 1.266 . S
C219 C218 1.514 1_554 S
C219 C220 1.359 . S
C219 C224 1.348 . S
C220 C219 1.359 . S
C220 C221 1.380 . S
C220 H248 0.929 . S
C221 C220 1.380 . S
C221 C222 1.347 . S
C221 H249 0.931 . S
C222 C221 1.347 . S
C222 C223 1.369 . S
C223 C222 1.369 . S
C223 C224 1.408 . S
C223 H250 0.930 . S
C224 C219 1.348 . S
C224 C223 1.408 . S
C224 H251 0.930 1_554 S
C225 O238 1.273 1_655 S
C225 O239 1.264 . S
C226 O240 1.236 . S
C226 O241 1.266 . S
C227 Tb217 2.809 . S
C227 C228 1.514 . S
C227 O242 1.248 . S
C227 O243 1.266 . S
C228 C227 1.514 . S
C228 C229 1.359 . S
C228 C233 1.348 . S
C229 C228 1.359 . S
C229 C230 1.380 . S
C229 H252 0.929 . S
C230 C229 1.380 . S
C230 C231 1.347 . S
C230 H253 0.931 . S
C231 C230 1.347 . S
C231 C232 1.369 . S
C232 C231 1.369 . S
C232 C233 1.408 . S
C232 H254 0.930 . S
C233 C228 1.348 . S
C233 C232 1.408 . S
C233 H255 0.930 . S
C234 O244 1.270 1_455 S
C234 O245 1.269 . S
C235 O246 1.236 . S
C235 O247 1.266 . S
O236 Tb216 2.484 . S
O236 C218 1.248 . S
O237 Tb216 2.440 . S
O237 C218 1.266 . S
O238 Tb216 2.658 1_455 S
O238 Tb217 2.325 . S
O238 C225 1.273 1_455 S
O239 Tb216 2.409 . S
O239 C225 1.264 . S
O240 Tb216 2.378 . S
O240 C226 1.236 . S
O241 Tb217 2.341 1_655 S
O241 C226 1.266 . S
O242 Tb217 2.484 . S
O242 C227 1.248 . S
O243 Tb217 2.440 . S
O243 C227 1.266 . S
O244 Tb216 2.325 . S
O244 Tb217 2.658 1_655 S
O244 C234 1.270 1_655 S
O245 Tb217 2.409 . S
O245 C234 1.269 . S
O246 Tb217 2.378 . S
O246 C235 1.236 . S
O247 Tb216 2.341 1_455 S
O247 C235 1.266 . S
H248 C220 0.929 . S
H249 C221 0.931 . S
H250 C223 0.930 . S
H251 C224 0.930 1_556 S
H252 C229 0.929 . S
H253 C230 0.931 . S
H254 C232 0.930 . S
H255 C233 0.930 . S
H256 C268 0.930 . S
H257 C270 0.930 . S
H258 C271 0.930 . S
H259 C275 0.959 . S
H260 C275 0.959 . S
H261 C275 0.961 . S
H262 C276 0.960 . S
H263 C276 0.961 . S
H264 C276 0.959 . S
H265 C279 0.929 . S
H266 C280 0.931 . S
H267 C282 0.930 . S
C268 H256 0.930 . S
C268 C269 1.399 1_545 S
C268 C273 1.399 . S
C269 C268 1.399 1_565 S
C269 C270 1.376 . S
C270 H257 0.930 . S
C270 C269 1.376 . S
C270 C271 1.388 . S
C271 H258 0.930 . S
C271 C270 1.388 . S
C271 C272 1.390 . S
C272 C271 1.390 . S
C272 C273 1.394 1_565 S
C272 C278 1.465 . S
C273 C268 1.399 . S
C273 C272 1.394 1_545 S
C273 C274 1.516 . S
C274 C273 1.516 . S
C274 C275 1.502 . S
C274 C276 1.561 . S
C274 C277 1.526 . S
C275 H259 0.959 . S
C275 H260 0.959 . S
C275 H261 0.961 . S
C275 C274 1.502 . S
C276 H262 0.960 . S
C276 H263 0.961 . S
C276 H264 0.959 . S
C276 C274 1.561 . S
C277 C274 1.526 . S
C277 C278 1.396 1_545 S
C277 C282 1.390 . S
C278 C272 1.465 . S
C278 C277 1.396 1_565 S
C278 C279 1.399 . S
C279 H265 0.929 . S
C279 C278 1.399 . S
C279 C280 1.385 . S
C280 H266 0.931 . S
C280 C279 1.385 . S
C280 C281 1.389 . S
C281 C280 1.389 . S
C281 C282 1.387 1_565 S
C282 H267 0.930 . S
C282 C277 1.390 . S
C282 C281 1.387 1_545 S
H283 C295 0.930 . S
H284 C297 0.930 . S
H285 C298 0.930 . S
H286 C302 0.959 . S
H287 C302 0.959 . S
H288 C302 0.961 . S
H289 C303 0.960 . S
H290 C303 0.961 . S
H291 C303 0.959 . S
H292 C306 0.929 . S
H293 C307 0.931 . S
H294 C309 0.930 . S
C295 H283 0.930 . S
C295 C296 1.399 . S
C295 C300 1.399 . S
C296 C295 1.399 . S
C296 C297 1.376 . S
C297 H284 0.930 . S
C297 C296 1.376 . S
C297 C298 1.388 . S
C298 H285 0.930 . S
C298 C297 1.388 . S
C298 C299 1.390 . S
C299 C298 1.390 . S
C299 C300 1.394 . S
C299 C305 1.465 . S
C300 C295 1.399 . S
C300 C299 1.394 . S
C300 C301 1.516 . S
C301 C300 1.516 . S
C301 C302 1.502 . S
C301 C303 1.561 . S
C301 C304 1.526 . S
C302 H286 0.959 . S
C302 H287 0.959 . S
C302 H288 0.961 . S
C302 C301 1.502 . S
C303 H289 0.960 . S
C303 H290 0.961 . S
C303 H291 0.959 . S
C303 C301 1.561 . S
C304 C301 1.526 . S
C304 C305 1.396 . S
C304 C309 1.390 . S
C305 C299 1.465 . S
C305 C304 1.396 . S
C305 C306 1.399 . S
C306 H292 0.929 . S
C306 C305 1.399 . S
C306 C307 1.385 . S
C307 H293 0.931 . S
C307 C306 1.385 . S
C307 C308 1.389 . S
C308 C307 1.389 . S
C308 C309 1.387 . S
C309 H294 0.930 . S
C309 C304 1.390 . S
C309 C308 1.387 . S
H310 C322 0.930 . S
H311 C324 0.930 . S
H312 C325 0.930 . S
H313 C329 0.959 . S
H314 C329 0.959 . S
H315 C329 0.961 . S
H316 C330 0.960 . S
H317 C330 0.961 . S
H318 C330 0.959 . S
H319 C333 0.929 . S
H320 C334 0.931 . S
H321 C336 0.930 . S
C322 H310 0.930 . S
C322 C323 1.399 . S
C322 C327 1.399 . S
C323 C322 1.399 . S
C323 C324 1.376 . S
C324 H311 0.930 . S
C324 C323 1.376 . S
C324 C325 1.388 . S
C325 H312 0.930 . S
C325 C324 1.388 . S
C325 C326 1.390 . S
C326 C325 1.390 . S
C326 C327 1.394 . S
C326 C332 1.465 . S
C327 C322 1.399 . S
C327 C326 1.394 . S
C327 C328 1.516 . S
C328 C327 1.516 . S
C328 C329 1.502 . S
C328 C330 1.561 . S
C328 C331 1.526 . S
C329 H313 0.959 . S
C329 H314 0.959 . S
C329 H315 0.961 . S
C329 C328 1.502 . S
C330 H316 0.960 . S
C330 H317 0.961 . S
C330 H318 0.959 . S
C330 C328 1.561 . S
C331 C328 1.526 . S
C331 C332 1.396 . S
C331 C336 1.390 . S
C332 C326 1.465 . S
C332 C331 1.396 . S
C332 C333 1.399 . S
C333 H319 0.929 . S
C333 C332 1.399 . S
C333 C334 1.385 . S
C334 H320 0.931 . S
C334 C333 1.385 . S
C334 C335 1.389 . S
C335 C334 1.389 . S
C335 C336 1.387 . S
C336 H321 0.930 . S
C336 C331 1.390 . S
C336 C335 1.387 . S
H337 C349 0.930 . S
H338 C351 0.930 . S
H339 C352 0.930 . S
H340 C356 0.959 . S
H341 C356 0.959 . S
H342 C356 0.961 . S
H343 C357 0.960 . S
H344 C357 0.961 . S
H345 C357 0.959 . S
H346 C360 0.929 . S
H347 C361 0.931 . S
H348 C363 0.930 . S
C349 H337 0.930 . S
C349 C350 1.399 1_455 S
C349 C354 1.399 . S
C350 C349 1.399 1_655 S
C350 C351 1.376 . S
C351 H338 0.930 . S
C351 C350 1.376 . S
C351 C352 1.388 . S
C352 H339 0.930 . S
C352 C351 1.388 . S
C352 C353 1.390 . S
C353 C352 1.390 . S
C353 C354 1.394 1_655 S
C353 C359 1.465 . S
C354 C349 1.399 . S
C354 C353 1.394 1_455 S
C354 C355 1.516 . S
C355 C354 1.516 . S
C355 C356 1.502 . S
C355 C357 1.561 . S
C355 C358 1.526 . S
C356 H340 0.959 . S
C356 H341 0.959 . S
C356 H342 0.961 . S
C356 C355 1.502 . S
C357 H343 0.960 . S
C357 H344 0.961 . S
C357 H345 0.959 . S
C357 C355 1.561 . S
C358 C355 1.526 . S
C358 C359 1.396 1_455 S
C358 C363 1.390 . S
C359 C353 1.465 . S
C359 C358 1.396 1_655 S
C359 C360 1.399 . S
C360 H346 0.929 . S
C360 C359 1.399 . S
C360 C361 1.385 . S
C361 H347 0.931 . S
C361 C360 1.385 . S
C361 C362 1.389 . S
C362 C361 1.389 . S
C362 C363 1.387 1_655 S
C363 H348 0.930 . S
C363 C358 1.390 . S
C363 C362 1.387 1_455 S
H364 C376 0.930 . S
H365 C378 0.930 . S
H366 C379 0.930 . S
H367 C383 0.959 1_556 S
H368 C383 0.959 1_556 S
H369 C383 0.961 . S
H370 C384 0.960 . S
H371 C384 0.961 . S
H372 C384 0.959 . S
H373 C387 0.929 . S
H374 C388 0.931 . S
H375 C390 0.930 . S
C376 H364 0.930 . S
C376 C377 1.399 1_545 S
C376 C381 1.399 . S
C377 C376 1.399 1_565 S
C377 C378 1.376 . S
C378 H365 0.930 . S
C378 C377 1.376 . S
C378 C379 1.388 . S
C379 H366 0.930 . S
C379 C378 1.388 . S
C379 C380 1.390 . S
C380 C379 1.390 . S
C380 C381 1.394 1_565 S
C380 C386 1.465 . S
C381 C376 1.399 . S
C381 C380 1.394 1_545 S
C381 C382 1.516 . S
C382 C381 1.516 . S
C382 C383 1.502 . S
C382 C384 1.561 . S
C382 C385 1.526 . S
C383 H367 0.959 1_554 S
C383 H368 0.959 1_554 S
C383 H369 0.961 . S
C383 C382 1.502 . S
C384 H370 0.960 . S
C384 H371 0.961 . S
C384 H372 0.959 . S
C384 C382 1.561 . S
C385 C382 1.526 . S
C385 C386 1.396 1_545 S
C385 C390 1.390 1_554 S
C386 C380 1.465 . S
C386 C385 1.396 1_565 S
C386 C387 1.399 . S
C387 H373 0.929 . S
C387 C386 1.399 . S
C387 C388 1.385 1_554 S
C388 H374 0.931 . S
C388 C387 1.385 1_556 S
C388 C389 1.389 . S
C389 C388 1.389 . S
C389 C390 1.387 1_565 S
C390 H375 0.930 . S
C390 C385 1.390 1_556 S
C390 C389 1.387 1_545 S
H391 C403 0.930 . S
H392 C405 0.930 . S
H393 C406 0.930 . S
H394 C410 0.959 . S
H395 C410 0.959 1_556 S
H396 C410 0.961 . S
H397 C411 0.960 1_554 S
H398 C411 0.961 . S
H399 C411 0.959 . S
H400 C414 0.929 . S
H401 C415 0.931 . S
H402 C417 0.930 . S
C403 H391 0.930 . S
C403 C404 1.399 . S
C403 C408 1.399 . S
C404 C403 1.399 . S
C404 C405 1.376 . S
C405 H392 0.930 . S
C405 C404 1.376 . S
C405 C406 1.388 . S
C406 H393 0.930 . S
C406 C405 1.388 . S
C406 C407 1.390 . S
C407 C406 1.390 . S
C407 C408 1.394 . S
C407 C413 1.465 . S
C408 C403 1.399 . S
C408 C407 1.394 . S
C408 C409 1.516 . S
C409 C408 1.516 . S
C409 C410 1.502 . S
C409 C411 1.561 1_554 S
C409 C412 1.526 . S
C410 H394 0.959 . S
C410 H395 0.959 1_554 S
C410 H396 0.961 . S
C410 C409 1.502 . S
C411 H397 0.960 1_556 S
C411 H398 0.961 . S
C411 H399 0.959 . S
C411 C409 1.561 1_556 S
C412 C409 1.526 . S
C412 C413 1.396 . S
C412 C417 1.390 1_554 S
C413 C407 1.465 . S
C413 C412 1.396 . S
C413 C414 1.399 . S
C414 H400 0.929 . S
C414 C413 1.399 . S
C414 C415 1.385 . S
C415 H401 0.931 . S
C415 C414 1.385 . S
C415 C416 1.389 1_554 S
C416 C415 1.389 1_556 S
C416 C417 1.387 . S
C417 H402 0.930 . S
C417 C412 1.390 1_556 S
C417 C416 1.387 . S
H418 C430 0.930 . S
H419 C432 0.930 . S
H420 C433 0.930 . S
H421 C437 0.959 . S
H422 C437 0.959 1_556 S
H423 C437 0.961 . S
H424 C438 0.960 . S
H425 C438 0.961 . S
H426 C438 0.959 . S
H427 C441 0.929 . S
H428 C442 0.931 . S
H429 C444 0.930 . S
C430 H418 0.930 . S
C430 C431 1.399 . S
C430 C435 1.399 . S
C431 C430 1.399 . S
C431 C432 1.376 . S
C432 H419 0.930 . S
C432 C431 1.376 . S
C432 C433 1.388 . S
C433 H420 0.930 . S
C433 C432 1.388 . S
C433 C434 1.390 . S
C434 C433 1.390 . S
C434 C435 1.394 . S
C434 C440 1.465 . S
C435 C430 1.399 . S
C435 C434 1.394 . S
C435 C436 1.516 . S
C436 C435 1.516 . S
C436 C437 1.502 . S
C436 C438 1.561 . S
C436 C439 1.526 . S
C437 H421 0.959 . S
C437 H422 0.959 1_554 S
C437 H423 0.961 . S
C437 C436 1.502 . S
C438 H424 0.960 . S
C438 H425 0.961 . S
C438 H426 0.959 . S
C438 C436 1.561 . S
C439 C436 1.526 . S
C439 C440 1.396 . S
C439 C444 1.390 1_554 S
C440 C434 1.465 . S
C440 C439 1.396 . S
C440 C441 1.399 . S
C441 H427 0.929 . S
C441 C440 1.399 . S
C441 C442 1.385 1_554 S
C442 H428 0.931 . S
C442 C441 1.385 1_556 S
C442 C443 1.389 . S
C443 C442 1.389 . S
C443 C444 1.387 . S
C444 H429 0.930 . S
C444 C439 1.390 1_556 S
C444 C443 1.387 . S
H445 C457 0.930 . S
H446 C459 0.930 . S
H447 C460 0.930 . S
H448 C464 0.959 . S
H449 C464 0.959 1_556 S
H450 C464 0.961 . S
H451 C465 0.960 1_554 S
H452 C465 0.961 . S
H453 C465 0.959 1_554 S
H454 C468 0.929 . S
H455 C469 0.931 . S
H456 C471 0.930 . S
C457 H445 0.930 . S
C457 C458 1.399 1_655 S
C457 C462 1.399 . S
C458 C457 1.399 1_455 S
C458 C459 1.376 . S
C459 H446 0.930 . S
C459 C458 1.376 . S
C459 C460 1.388 . S
C460 H447 0.930 . S
C460 C459 1.388 . S
C460 C461 1.390 . S
C461 C460 1.390 . S
C461 C462 1.394 1_455 S
C461 C467 1.465 . S
C462 C457 1.399 . S
C462 C461 1.394 1_655 S
C462 C463 1.516 . S
C463 C462 1.516 . S
C463 C464 1.502 . S
C463 C465 1.561 1_654 S
C463 C466 1.526 . S
C464 H448 0.959 . S
C464 H449 0.959 1_554 S
C464 H450 0.961 . S
C464 C463 1.502 . S
C465 H451 0.960 1_556 S
C465 H452 0.961 . S
C465 H453 0.959 1_556 S
C465 C463 1.561 1_456 S
C466 C463 1.526 . S
C466 C467 1.396 1_655 S
C466 C471 1.390 1_554 S
C467 C461 1.465 . S
C467 C466 1.396 1_455 S
C467 C468 1.399 . S
C468 H454 0.929 . S
C468 C467 1.399 . S
C468 C469 1.385 . S
C469 H455 0.931 . S
C469 C468 1.385 . S
C469 C470 1.390 1_554 S
C470 C469 1.390 1_556 S
C470 C471 1.386 1_455 S
C471 H456 0.930 . S
C471 C466 1.390 1_556 S
C471 C470 1.386 1_655 S
H472 C484 0.930 . S
H473 C486 0.930 . S
H474 C487 0.930 . S
H475 C491 0.959 . S
H476 C491 0.959 . S
H477 C491 0.961 . S
H478 C492 0.960 . S
H479 C492 0.961 . S
H480 C492 0.959 1_455 S
H481 C495 0.929 1_455 S
H482 C496 0.931 . S
H483 C498 0.930 . S
C484 H472 0.930 . S
C484 C485 1.399 1_655 S
C484 C489 1.399 . S
C485 C484 1.399 1_455 S
C485 C486 1.376 . S
C486 H473 0.930 . S
C486 C485 1.376 . S
C486 C487 1.388 . S
C487 H474 0.930 . S
C487 C486 1.388 . S
C487 C488 1.390 1_455 S
C488 C487 1.390 1_655 S
C488 C489 1.394 . S
C488 C494 1.465 . S
C489 C484 1.399 . S
C489 C488 1.394 . S
C489 C490 1.516 . S
C490 C489 1.516 . S
C490 C491 1.502 . S
C490 C492 1.561 . S
C490 C493 1.526 . S
C491 H475 0.959 . S
C491 H476 0.959 . S
C491 H477 0.961 . S
C491 C490 1.502 . S
C492 H478 0.960 . S
C492 H479 0.961 . S
C492 H480 0.959 1_655 S
C492 C490 1.561 . S
C493 C490 1.526 . S
C493 C494 1.396 . S
C493 C498 1.390 . S
C494 C488 1.465 . S
C494 C493 1.396 . S
C494 C495 1.399 . S
C495 H481 0.929 1_655 S
C495 C494 1.399 . S
C495 C496 1.385 . S
C496 H482 0.931 . S
C496 C495 1.385 . S
C496 C497 1.389 . S
C497 C496 1.389 . S
C497 C498 1.387 . S
C498 H483 0.930 . S
C498 C493 1.390 . S
C498 C497 1.387 . S
H499 C511 0.930 . S
H500 C513 0.930 . S
H501 C514 0.930 . S
H502 C518 0.959 . S
H503 C518 0.959 . S
H504 C518 0.961 . S
H505 C519 0.960 . S
H506 C519 0.961 . S
H507 C519 0.959 . S
H508 C522 0.929 . S
H509 C523 0.931 . S
H510 C525 0.930 1_545 S
C511 H499 0.930 . S
C511 C512 1.392 1_545 S
C511 C516 1.399 . S
C512 C511 1.392 1_565 S
C512 C513 1.390 . S
C513 H500 0.930 . S
C513 C512 1.390 . S
C513 C514 1.388 . S
C514 H501 0.930 . S
C514 C513 1.388 . S
C514 C515 1.390 . S
C515 C514 1.390 . S
C515 C516 1.394 1_565 S
C515 C521 1.465 . S
C516 C511 1.399 . S
C516 C515 1.394 1_545 S
C516 C517 1.516 . S
C517 C516 1.516 . S
C517 C518 1.502 . S
C517 C519 1.561 . S
C517 C520 1.526 1_545 S
C518 H502 0.959 . S
C518 H503 0.959 . S
C518 H504 0.961 . S
C518 C517 1.502 . S
C519 H505 0.960 . S
C519 H506 0.961 . S
C519 H507 0.959 . S
C519 C517 1.561 . S
C520 C517 1.526 1_565 S
C520 C521 1.396 . S
C520 C525 1.390 . S
C521 C515 1.465 . S
C521 C520 1.396 . S
C521 C522 1.399 . S
C522 H508 0.929 . S
C522 C521 1.399 . S
C522 C523 1.385 . S
C523 H509 0.931 . S
C523 C522 1.385 . S
C523 C524 1.389 . S
C524 C523 1.389 . S
C524 C525 1.387 . S
C525 H510 0.930 1_565 S
C525 C520 1.390 . S
C525 C524 1.387 . S
H526 C538 0.930 . S
H527 C540 0.930 . S
H528 C541 0.930 . S
H529 C545 0.959 . S
H530 C545 0.959 . S
H531 C545 0.961 . S
H532 C546 0.960 . S
H533 C546 0.961 . S
H534 C546 0.959 . S
H535 C549 0.929 . S
H536 C550 0.931 . S
H537 C552 0.930 . S
C538 H526 0.930 . S
C538 C539 1.399 . S
C538 C543 1.399 . S
C539 C538 1.399 . S
C539 C540 1.376 . S
C540 H527 0.930 . S
C540 C539 1.376 . S
C540 C541 1.388 . S
C541 H528 0.930 . S
C541 C540 1.388 . S
C541 C542 1.390 . S
C542 C541 1.390 . S
C542 C543 1.394 . S
C542 C548 1.465 . S
C543 C538 1.399 . S
C543 C542 1.394 . S
C543 C544 1.516 . S
C544 C543 1.516 . S
C544 C545 1.502 . S
C544 C546 1.561 . S
C544 C547 1.526 . S
C545 H529 0.959 . S
C545 H530 0.959 . S
C545 H531 0.961 . S
C545 C544 1.502 . S
C546 H532 0.960 . S
C546 H533 0.961 . S
C546 H534 0.959 . S
C546 C544 1.561 . S
C547 C544 1.526 . S
C547 C548 1.396 . S
C547 C552 1.390 . S
C548 C542 1.465 . S
C548 C547 1.396 . S
C548 C549 1.399 . S
C549 H535 0.929 . S
C549 C548 1.399 . S
C549 C550 1.385 . S
C550 H536 0.931 . S
C550 C549 1.385 . S
C550 C551 1.389 . S
C551 C550 1.389 . S
C551 C552 1.387 . S
C552 H537 0.930 . S
C552 C547 1.390 . S
C552 C551 1.387 . S
H553 C565 0.930 . S
H554 C567 0.930 . S
H555 C568 0.930 . S
H556 C572 0.959 . S
H557 C572 0.959 . S
H558 C572 0.961 . S
H559 C573 0.960 . S
H560 C573 0.961 . S
H561 C573 0.959 . S
H562 C576 0.929 . S
H563 C577 0.931 . S
H564 C579 0.930 . S
C565 H553 0.930 . S
C565 C566 1.399 . S
C565 C570 1.399 . S
C566 C565 1.399 . S
C566 C567 1.376 . S
C567 H554 0.930 . S
C567 C566 1.376 . S
C567 C568 1.388 . S
C568 H555 0.930 . S
C568 C567 1.388 . S
C568 C569 1.390 . S
C569 C568 1.390 . S
C569 C570 1.394 . S
C569 C575 1.465 . S
C570 C565 1.399 . S
C570 C569 1.394 . S
C570 C571 1.516 . S
C571 C570 1.516 . S
C571 C572 1.502 . S
C571 C573 1.561 . S
C571 C574 1.526 . S
C572 H556 0.959 . S
C572 H557 0.959 . S
C572 H558 0.961 . S
C572 C571 1.502 . S
C573 H559 0.960 . S
C573 H560 0.961 . S
C573 H561 0.959 . S
C573 C571 1.561 . S
C574 C571 1.526 . S
C574 C575 1.396 . S
C574 C579 1.390 . S
C575 C569 1.465 . S
C575 C574 1.396 . S
C575 C576 1.399 . S
C576 H562 0.929 . S
C576 C575 1.399 . S
C576 C577 1.385 . S
C577 H563 0.931 . S
C577 C576 1.385 . S
C577 C578 1.389 . S
C578 C577 1.389 . S
C578 C579 1.387 . S
C579 H564 0.930 . S
C579 C574 1.390 . S
C579 C578 1.387 . S
H580 C592 0.930 . S
H581 C594 0.930 . S
H582 C595 0.930 . S
H583 C599 0.959 . S
H584 C599 0.959 . S
H585 C599 0.961 . S
H586 C600 0.960 . S
H587 C600 0.961 . S
H588 C600 0.959 . S
H589 C603 0.929 . S
H590 C604 0.931 1_556 S
H591 C606 0.930 . S
C592 H580 0.930 . S
C592 C593 1.399 1_655 S
C592 C597 1.399 1_655 S
C593 C592 1.399 1_455 S
C593 C594 1.374 . S
C594 H581 0.930 . S
C594 C593 1.374 . S
C594 C595 1.388 . S
C595 H582 0.930 . S
C595 C594 1.388 . S
C595 C596 1.390 . S
C596 C595 1.390 . S
C596 C597 1.394 . S
C596 C602 1.465 . S
C597 C592 1.399 1_455 S
C597 C596 1.394 . S
C597 C598 1.516 . S
C598 C597 1.516 . S
C598 C599 1.502 1_455 S
C598 C600 1.561 . S
C598 C601 1.526 . S
C599 H583 0.959 . S
C599 H584 0.959 . S
C599 H585 0.961 . S
C599 C598 1.502 1_655 S
C600 H586 0.960 . S
C600 H587 0.961 . S
C600 H588 0.959 . S
C600 C598 1.561 . S
C601 C598 1.526 . S
C601 C602 1.396 . S
C601 C606 1.390 . S
C602 C596 1.465 . S
C602 C601 1.396 . S
C602 C603 1.399 . S
C603 H589 0.929 . S
C603 C602 1.399 . S
C603 C604 1.385 . S
C604 H590 0.931 1_554 S
C604 C603 1.385 . S
C604 C605 1.389 . S
C605 C604 1.389 . S
C605 C606 1.387 . S
C606 H591 0.930 . S
C606 C601 1.390 . S
C606 C605 1.387 . S
H607 C619 0.930 . S
H608 C621 0.930 . S
H609 C622 0.930 . S
H610 C626 0.959 1_545 S
H611 C626 0.959 . S
H612 C626 0.961 . S
H613 C627 0.960 . S
H614 C627 0.961 . S
H615 C627 0.959 . S
H616 C630 0.929 . S
H617 C631 0.931 . S
H618 C633 0.930 . S
C619 H607 0.930 . S
C619 C620 1.405 . S
C619 C624 1.405 . S
C620 C619 1.405 . S
C620 C621 1.366 1_565 S
C621 H608 0.930 . S
C621 C620 1.366 1_545 S
C621 C622 1.388 . S
C622 H609 0.930 . S
C622 C621 1.388 . S
C622 C623 1.390 . S
C623 C622 1.390 . S
C623 C624 1.381 1_545 S
C623 C629 1.465 . S
C624 C619 1.405 . S
C624 C623 1.381 1_565 S
C624 C625 1.521 . S
C625 C624 1.521 . S
C625 C626 1.502 . S
C625 C627 1.561 . S
C625 C628 1.526 1_565 S
C626 H610 0.959 1_565 S
C626 H611 0.959 . S
C626 H612 0.961 . S
C626 C625 1.502 . S
C627 H613 0.960 . S
C627 H614 0.961 . S
C627 H615 0.959 . S
C627 C625 1.561 . S
C628 C625 1.526 1_545 S
C628 C629 1.396 . S
C628 C633 1.390 . S
C629 C623 1.465 . S
C629 C628 1.396 . S
C629 C630 1.399 . S
C630 H616 0.929 . S
C630 C629 1.399 . S
C630 C631 1.385 . S
C631 H617 0.931 . S
C631 C630 1.385 . S
C631 C632 1.389 . S
C632 C631 1.389 . S
C632 C633 1.387 . S
C633 H618 0.930 . S
C633 C628 1.390 . S
C633 C632 1.387 . S
H634 C646 0.930 . S
H635 C648 0.930 . S
H636 C649 0.930 . S
H637 C653 0.959 . S
H638 C653 0.959 . S
H639 C653 0.961 . S
H640 C654 0.960 . S
H641 C654 0.961 . S
H642 C654 0.959 . S
H643 C657 0.929 . S
H644 C658 0.931 . S
H645 C660 0.930 . S
C646 H634 0.930 . S
C646 C647 1.399 . S
C646 C651 1.399 . S
C647 C646 1.399 . S
C647 C648 1.376 . S
C648 H635 0.930 . S
C648 C647 1.376 . S
C648 C649 1.388 . S
C649 H636 0.930 . S
C649 C648 1.388 . S
C649 C650 1.390 . S
C650 C649 1.390 . S
C650 C651 1.394 . S
C650 C656 1.465 . S
C651 C646 1.399 . S
C651 C650 1.394 . S
C651 C652 1.516 . S
C652 C651 1.516 . S
C652 C653 1.502 . S
C652 C654 1.561 . S
C652 C655 1.526 . S
C653 H637 0.959 . S
C653 H638 0.959 . S
C653 H639 0.961 . S
C653 C652 1.502 . S
C654 H640 0.960 . S
C654 H641 0.961 . S
C654 H642 0.959 . S
C654 C652 1.561 . S
C655 C652 1.526 . S
C655 C656 1.396 . S
C655 C660 1.390 . S
C656 C650 1.465 . S
C656 C655 1.396 . S
C656 C657 1.399 . S
C657 H643 0.929 . S
C657 C656 1.399 . S
C657 C658 1.385 . S
C658 H644 0.931 . S
C658 C657 1.385 . S
C658 C659 1.389 . S
C659 C658 1.389 . S
C659 C660 1.387 . S
C660 H645 0.930 . S
C660 C655 1.390 . S
C660 C659 1.387 . S
H661 C673 0.930 . S
H662 C675 0.930 . S
H663 C676 0.930 . S
H664 C680 0.959 . S
H665 C680 0.959 . S
H666 C680 0.961 . S
H667 C681 0.960 . S
H668 C681 0.961 . S
H669 C681 0.959 . S
H670 C684 0.929 . S
H671 C685 0.931 . S
H672 C687 0.930 . S
C673 H661 0.930 . S
C673 C674 1.399 . S
C673 C678 1.399 . S
C674 C673 1.399 . S
C674 C675 1.376 . S
C675 H662 0.930 . S
C675 C674 1.376 . S
C675 C676 1.388 . S
C676 H663 0.930 . S
C676 C675 1.388 . S
C676 C677 1.390 . S
C677 C676 1.390 . S
C677 C678 1.394 . S
C677 C683 1.465 . S
C678 C673 1.399 . S
C678 C677 1.394 . S
C678 C679 1.516 . S
C679 C678 1.516 . S
C679 C680 1.502 . S
C679 C681 1.561 . S
C679 C682 1.526 . S
C680 H664 0.959 . S
C680 H665 0.959 . S
C680 H666 0.961 . S
C680 C679 1.502 . S
C681 H667 0.960 . S
C681 H668 0.961 . S
C681 H669 0.959 . S
C681 C679 1.561 . S
C682 C679 1.526 . S
C682 C683 1.396 . S
C682 C687 1.390 . S
C683 C677 1.465 . S
C683 C682 1.396 . S
C683 C684 1.399 . S
C684 H670 0.929 . S
C684 C683 1.399 . S
C684 C685 1.385 . S
C685 H671 0.931 . S
C685 C684 1.385 . S
C685 C686 1.389 . S
C686 C685 1.389 . S
C686 C687 1.387 . S
C687 H672 0.930 . S
C687 C682 1.390 . S
C687 C686 1.387 . S
H688 C700 0.930 . S
H689 C702 0.930 . S
H690 C703 0.930 . S
H691 C707 0.959 . S
H692 C707 0.959 . S
H693 C707 0.961 . S
H694 C708 0.960 . S
H695 C708 0.961 . S
H696 C708 0.921 1_655 S
H697 C711 0.929 . S
H698 C712 0.931 . S
H699 C714 0.930 . S
C700 H688 0.930 . S
C700 C701 1.375 1_455 S
C700 C705 1.399 . S
C701 C700 1.375 1_655 S
C701 C702 1.406 . S
C702 H689 0.930 . S
C702 C701 1.406 . S
C702 C703 1.388 . S
C703 H690 0.930 . S
C703 C702 1.388 . S
C703 C704 1.390 . S
C704 C703 1.390 . S
C704 C705 1.394 1_655 S
C704 C710 1.465 . S
C705 C700 1.399 . S
C705 C704 1.394 1_455 S
C705 C706 1.516 . S
C706 C705 1.516 . S
C706 C707 1.502 . S
C706 C708 1.561 1_556 S
C706 C709 1.526 . S
C707 H691 0.959 . S
C707 H692 0.959 . S
C707 H693 0.961 . S
C707 C706 1.502 . S
C708 H694 0.960 . S
C708 H695 0.961 . S
C708 H696 0.921 1_455 S
C708 C706 1.561 1_554 S
C709 C706 1.526 . S
C709 C710 1.396 1_455 S
C709 C714 1.390 . S
C710 C704 1.465 . S
C710 C709 1.396 1_655 S
C710 C711 1.399 . S
C711 H697 0.929 . S
C711 C710 1.399 . S
C711 C712 1.385 . S
C712 H698 0.931 . S
C712 C711 1.385 . S
C712 C713 1.389 1_655 S
C713 C712 1.389 1_455 S
C713 C714 1.387 . S
C714 H699 0.930 . S
C714 C709 1.390 . S
C714 C713 1.387 . S
H715 C727 0.930 . S
H716 C729 0.930 . S
H717 C730 0.930 . S
H718 C734 0.959 1_545 S
H719 C734 0.959 . S
H720 C734 0.961 . S
H721 C735 0.960 . S
H722 C735 0.961 . S
H723 C735 0.959 . S
H724 C738 0.929 . S
H725 C739 0.931 . S
H726 C741 0.930 . S
C727 H715 0.930 . S
C727 C728 1.399 1_565 S
C727 C732 1.399 . S
C728 C727 1.399 1_545 S
C728 C729 1.376 . S
C729 H716 0.930 . S
C729 C728 1.376 . S
C729 C730 1.388 . S
C730 H717 0.930 . S
C730 C729 1.388 . S
C730 C731 1.390 . S
C731 C730 1.390 . S
C731 C732 1.394 1_545 S
C731 C737 1.465 . S
C732 C727 1.399 . S
C732 C731 1.394 1_565 S
C732 C733 1.516 . S
C733 C732 1.516 . S
C733 C734 1.502 1_556 S
C733 C735 1.561 . S
C733 C736 1.526 . S
C734 H718 0.959 1_565 S
C734 H719 0.959 . S
C734 H720 0.961 . S
C734 C733 1.502 1_554 S
C735 H721 0.960 . S
C735 H722 0.961 . S
C735 H723 0.959 . S
C735 C733 1.561 . S
C736 C733 1.526 . S
C736 C737 1.396 1_565 S
C736 C741 1.390 . S
C737 C731 1.465 . S
C737 C736 1.396 1_545 S
C737 C738 1.399 . S
C738 H724 0.929 . S
C738 C737 1.399 . S
C738 C739 1.385 . S
C739 H725 0.931 . S
C739 C738 1.385 . S
C739 C740 1.389 . S
C740 C739 1.389 . S
C740 C741 1.387 1_545 S
C741 H726 0.930 . S
C741 C736 1.390 . S
C741 C740 1.387 1_565 S
H742 C754 0.930 . S
H743 C756 0.930 . S
H744 C757 0.930 . S
H745 C761 0.959 . S
H746 C761 0.959 . S
H747 C761 0.961 . S
H748 C762 0.960 . S
H749 C762 0.961 . S
H750 C762 0.959 . S
H751 C765 0.929 . S
H752 C766 0.931 . S
H753 C768 0.930 . S
C754 H742 0.930 . S
C754 C755 1.399 . S
C754 C759 1.399 . S
C755 C754 1.399 . S
C755 C756 1.376 . S
C756 H743 0.930 . S
C756 C755 1.376 . S
C756 C757 1.388 . S
C757 H744 0.930 . S
C757 C756 1.388 . S
C757 C758 1.390 . S
C758 C757 1.390 . S
C758 C759 1.394 . S
C758 C764 1.465 . S
C759 C754 1.399 . S
C759 C758 1.394 . S
C759 C760 1.516 . S
C760 C759 1.516 . S
C760 C761 1.502 . S
C760 C762 1.561 . S
C760 C763 1.526 . S
C761 H745 0.959 . S
C761 H746 0.959 . S
C761 H747 0.961 . S
C761 C760 1.502 . S
C762 H748 0.960 . S
C762 H749 0.961 . S
C762 H750 0.959 . S
C762 C760 1.561 . S
C763 C760 1.526 . S
C763 C764 1.396 . S
C763 C768 1.390 . S
C764 C758 1.465 . S
C764 C763 1.396 . S
C764 C765 1.399 . S
C765 H751 0.929 . S
C765 C764 1.399 . S
C765 C766 1.385 . S
C766 H752 0.931 . S
C766 C765 1.385 . S
C766 C767 1.389 . S
C767 C766 1.389 . S
C767 C768 1.387 . S
C768 H753 0.930 . S
C768 C763 1.390 . S
C768 C767 1.387 . S
H769 C781 0.930 . S
H770 C783 0.930 . S
H771 C784 0.930 . S
H772 C788 0.959 . S
H773 C788 0.959 1_554 S
H774 C788 0.961 1_554 S
H775 C789 0.960 . S
H776 C789 0.961 . S
H777 C789 0.959 . S
H778 C792 0.929 . S
H779 C793 0.931 . S
H780 C795 0.930 . S
C781 H769 0.930 . S
C781 C782 1.399 . S
C781 C786 1.399 . S
C782 C781 1.399 . S
C782 C783 1.376 . S
C783 H770 0.930 . S
C783 C782 1.376 . S
C783 C784 1.388 . S
C784 H771 0.930 . S
C784 C783 1.388 . S
C784 C785 1.390 . S
C785 C784 1.390 . S
C785 C786 1.394 . S
C785 C791 1.465 . S
C786 C781 1.399 . S
C786 C785 1.394 . S
C786 C787 1.516 . S
C787 C786 1.516 . S
C787 C788 1.502 . S
C787 C789 1.561 1_556 S
C787 C790 1.526 . S
C788 H772 0.959 . S
C788 H773 0.959 1_556 S
C788 H774 0.961 1_556 S
C788 C787 1.502 . S
C789 H775 0.960 . S
C789 H776 0.961 . S
C789 H777 0.959 . S
C789 C787 1.561 1_554 S
C790 C787 1.526 . S
C790 C791 1.396 . S
C790 C795 1.390 . S
C791 C785 1.465 . S
C791 C790 1.396 . S
C791 C792 1.399 . S
C792 H778 0.929 . S
C792 C791 1.399 . S
C792 C793 1.385 . S
C793 H779 0.931 . S
C793 C792 1.385 . S
C793 C794 1.389 . S
C794 C793 1.389 . S
C794 C795 1.387 . S
C795 H780 0.930 . S
C795 C790 1.390 . S
C795 C794 1.387 . S
H796 C808 0.930 . S
H797 C810 0.930 . S
H798 C811 0.930 . S
H799 C815 0.959 . S
H800 C815 0.959 . S
H801 C815 0.961 . S
H802 C816 0.960 . S
H803 C816 0.961 . S
H804 C816 0.959 . S
H805 C819 0.929 . S
H806 C820 0.931 . S
H807 C822 0.930 . S
C808 H796 0.930 . S
C808 C809 1.397 1_655 S
C808 C813 1.399 . S
C809 C808 1.397 1_455 S
C809 C810 1.379 . S
C810 H797 0.930 . S
C810 C809 1.379 . S
C810 C811 1.388 . S
C811 H798 0.930 . S
C811 C810 1.388 . S
C811 C812 1.390 . S
C812 C811 1.390 . S
C812 C813 1.394 1_455 S
C812 C818 1.468 . S
C813 C808 1.399 . S
C813 C812 1.394 1_655 S
C813 C814 1.516 . S
C814 C813 1.516 . S
C814 C815 1.502 . S
C814 C816 1.561 1_655 S
C814 C817 1.526 . S
C815 H799 0.959 . S
C815 H800 0.959 . S
C815 H801 0.961 . S
C815 C814 1.502 . S
C816 H802 0.960 . S
C816 H803 0.961 . S
C816 H804 0.959 . S
C816 C814 1.561 1_455 S
C817 C814 1.526 . S
C817 C818 1.385 1_655 S
C817 C822 1.390 . S
C818 C812 1.468 . S
C818 C817 1.385 1_455 S
C818 C819 1.406 . S
C819 H805 0.929 . S
C819 C818 1.406 . S
C819 C820 1.385 . S
C820 H806 0.931 . S
C820 C819 1.385 . S
C820 C821 1.389 1_455 S
C821 C820 1.389 1_655 S
C821 C822 1.387 . S
C822 H807 0.930 . S
C822 C817 1.390 . S
C822 C821 1.387 . S
H823 C835 0.930 . S
H824 C837 0.930 . S
H825 C838 0.930 . S
H826 C842 0.959 1_545 S
H827 C842 0.959 . S
H828 C842 0.961 . S
H829 C843 0.960 . S
H830 C843 0.961 . S
H831 C843 0.959 . S
H832 C846 0.920 1_545 S
H833 C847 0.928 1_545 S
H834 C849 0.930 . S
C835 H823 0.930 . S
C835 C836 1.399 . S
C835 C840 1.399 . S
C836 C835 1.399 . S
C836 C837 1.376 1_565 S
C837 H824 0.930 . S
C837 C836 1.376 1_545 S
C837 C838 1.388 . S
C838 H825 0.930 . S
C838 C837 1.388 . S
C838 C839 1.390 1_545 S
C839 C838 1.390 1_565 S
C839 C840 1.394 . S
C839 C845 1.465 . S
C840 C835 1.399 . S
C840 C839 1.394 . S
C840 C841 1.516 . S
C841 C840 1.516 . S
C841 C842 1.502 . S
C841 C843 1.561 . S
C841 C844 1.526 . S
C842 H826 0.959 1_565 S
C842 H827 0.959 . S
C842 H828 0.961 . S
C842 C841 1.502 . S
C843 H829 0.960 . S
C843 H830 0.961 . S
C843 H831 0.959 . S
C843 C841 1.561 . S
C844 C841 1.526 . S
C844 C845 1.396 . S
C844 C849 1.390 . S
C845 C839 1.465 . S
C845 C844 1.396 . S
C845 C846 1.408 . S
C846 H832 0.920 1_565 S
C846 C845 1.408 . S
C846 C847 1.389 . S
C847 H833 0.928 1_565 S
C847 C846 1.389 . S
C847 C848 1.389 . S
C848 C847 1.389 . S
C848 C849 1.387 . S
C849 H834 0.930 . S
C849 C844 1.390 . S
C849 C848 1.387 . S
H850 C862 0.930 . S
H851 C864 0.930 . S
H852 C865 0.930 . S
H853 C869 0.959 . S
H854 C869 0.959 . S
H855 C869 0.961 . S
H856 C870 0.960 . S
H857 C870 0.961 . S
H858 C870 0.959 . S
H859 C873 0.929 . S
H860 C874 0.931 . S
H861 C876 0.930 . S
C862 H850 0.930 . S
C862 C863 1.399 . S
C862 C867 1.399 . S
C863 C862 1.399 . S
C863 C864 1.376 . S
C864 H851 0.930 . S
C864 C863 1.376 . S
C864 C865 1.388 . S
C865 H852 0.930 . S
C865 C864 1.388 . S
C865 C866 1.390 . S
C866 C865 1.390 . S
C866 C867 1.394 . S
C866 C872 1.465 . S
C867 C862 1.399 . S
C867 C866 1.394 . S
C867 C868 1.516 . S
C868 C867 1.516 . S
C868 C869 1.502 . S
C868 C870 1.561 . S
C868 C871 1.526 . S
C869 H853 0.959 . S
C869 H854 0.959 . S
C869 H855 0.961 . S
C869 C868 1.502 . S
C870 H856 0.960 . S
C870 H857 0.961 . S
C870 H858 0.959 . S
C870 C868 1.561 . S
C871 C868 1.526 . S
C871 C872 1.396 . S
C871 C876 1.390 . S
C872 C866 1.465 . S
C872 C871 1.396 . S
C872 C873 1.399 . S
C873 H859 0.929 . S
C873 C872 1.399 . S
C873 C874 1.385 . S
C874 H860 0.931 . S
C874 C873 1.385 . S
C874 C875 1.389 . S
C875 C874 1.389 . S
C875 C876 1.387 . S
C876 H861 0.930 . S
C876 C871 1.390 . S
C876 C875 1.387 . S
H877 C889 0.930 . S
H878 C891 0.930 . S
H879 C892 0.930 . S
H880 C896 0.959 . S
H881 C896 0.959 . S
H882 C896 0.961 . S
H883 C897 0.960 . S
H884 C897 0.961 . S
H885 C897 0.959 . S
H886 C900 0.929 . S
H887 C901 0.931 . S
H888 C903 0.930 . S
C889 H877 0.930 . S
C889 C890 1.399 . S
C889 C894 1.399 . S
C890 C889 1.399 . S
C890 C891 1.376 . S
C891 H878 0.930 . S
C891 C890 1.376 . S
C891 C892 1.388 . S
C892 H879 0.930 . S
C892 C891 1.388 . S
C892 C893 1.390 . S
C893 C892 1.390 . S
C893 C894 1.394 . S
C893 C899 1.465 . S
C894 C889 1.399 . S
C894 C893 1.394 . S
C894 C895 1.516 . S
C895 C894 1.516 . S
C895 C896 1.502 . S
C895 C897 1.561 . S
C895 C898 1.526 . S
C896 H880 0.959 . S
C896 H881 0.959 . S
C896 H882 0.961 . S
C896 C895 1.502 . S
C897 H883 0.960 . S
C897 H884 0.961 . S
C897 H885 0.959 . S
C897 C895 1.561 . S
C898 C895 1.526 . S
C898 C899 1.396 . S
C898 C903 1.390 . S
C899 C893 1.465 . S
C899 C898 1.396 . S
C899 C900 1.399 . S
C900 H886 0.929 . S
C900 C899 1.399 . S
C900 C901 1.385 . S
C901 H887 0.931 . S
C901 C900 1.385 . S
C901 C902 1.389 . S
C902 C901 1.389 . S
C902 C903 1.387 . S
C903 H888 0.930 . S
C903 C898 1.390 . S
C903 C902 1.387 . S
C269 C76 1.826 . S
C281 C105 1.952 . S
C308 C145 1.984 . S
C296 C88 1.848 . S
C335 C185 1.986 . S
C323 C52 1.796 . S
C362 C225 1.961 . S
C350 C64 1.818 . S
C389 C114 1.968 1_565 S
C377 C28 1.843 . S
C404 C40 1.840 . S
C416 C154 1.976 . S
C431 C4 1.853 . S
C443 C194 1.993 . S
C458 C16 1.845 1_455 S
C470 C234 1.972 . S
C497 C111 0.431 . S
C485 C69 0.589 . S
C524 C151 0.571 . S
C512 C81 0.530 1_565 S
C551 C191 0.569 . S
C539 C93 0.455 . S
C566 C57 0.585 . S
C578 C231 0.447 . S
C593 C21 0.526 . S
C605 C102 0.525 . S
C632 C142 0.554 . S
C620 C33 0.403 1_565 S
C659 C182 0.455 . S
C647 C45 0.524 . S
C674 C9 0.403 . S
C686 C222 0.543 . S
C701 C66 2.088 1_655 S
C713 C115 2.287 . S
C728 C78 2.076 . S
C740 C155 2.275 . S
C767 C195 2.263 . S
C755 C90 1.988 . S
C794 C235 2.274 . S
C782 C54 2.073 . S
C809 C18 2.042 . S
C821 C106 2.306 . S
C848 C146 2.263 . S
C836 C30 2.082 1_565 S
C875 C186 2.256 . S
C863 C42 2.053 . S
C890 C6 2.102 . S
C902 C226 2.293 . S
