# Generated by pormake.
# Topology ctn, (3,4)-cn, num edge types: 1
# Building blocks:
#     Node 0, Type 0, BuildingBlock: BELTOD_clean_linker_0, # of connection points: 3
#     Node 1, Type 0, BuildingBlock: BELTOD_clean_linker_0, # of connection points: 3
#     Node 2, Type 0, BuildingBlock: BELTOD_clean_linker_0, # of connection points: 3
#     Node 3, Type 0, BuildingBlock: BELTOD_clean_linker_0, # of connection points: 3
#     Node 4, Type 0, BuildingBlock: BELTOD_clean_linker_0, # of connection points: 3
#     Node 5, Type 0, BuildingBlock: BELTOD_clean_linker_0, # of connection points: 3
#     Node 6, Type 0, BuildingBlock: BELTOD_clean_linker_0, # of connection points: 3
#     Node 7, Type 0, BuildingBlock: BELTOD_clean_linker_0, # of connection points: 3
#     Node 8, Type 0, BuildingBlock: BELTOD_clean_linker_0, # of connection points: 3
#     Node 9, Type 0, BuildingBlock: BELTOD_clean_linker_0, # of connection points: 3
#     Node 10, Type 0, BuildingBlock: BELTOD_clean_linker_0, # of connection points: 3
#     Node 11, Type 0, BuildingBlock: BELTOD_clean_linker_0, # of connection points: 3
#     Node 12, Type 0, BuildingBlock: BELTOD_clean_linker_0, # of connection points: 3
#     Node 13, Type 0, BuildingBlock: BELTOD_clean_linker_0, # of connection points: 3
#     Node 14, Type 0, BuildingBlock: BELTOD_clean_linker_0, # of connection points: 3
#     Node 15, Type 0, BuildingBlock: BELTOD_clean_linker_0, # of connection points: 3
#     Node 16, Type 1, BuildingBlock: QUQFOY_clean_sbu_1, # of connection points: 4
#     Node 17, Type 1, BuildingBlock: QUQFOY_clean_sbu_1, # of connection points: 4
#     Node 18, Type 1, BuildingBlock: QUQFOY_clean_sbu_1, # of connection points: 4
#     Node 19, Type 1, BuildingBlock: QUQFOY_clean_sbu_1, # of connection points: 4
#     Node 20, Type 1, BuildingBlock: QUQFOY_clean_sbu_1, # of connection points: 4
#     Node 21, Type 1, BuildingBlock: QUQFOY_clean_sbu_1, # of connection points: 4
#     Node 22, Type 1, BuildingBlock: QUQFOY_clean_sbu_1, # of connection points: 4
#     Node 23, Type 1, BuildingBlock: QUQFOY_clean_sbu_1, # of connection points: 4
#     Node 24, Type 1, BuildingBlock: QUQFOY_clean_sbu_1, # of connection points: 4
#     Node 25, Type 1, BuildingBlock: QUQFOY_clean_sbu_1, # of connection points: 4
#     Node 26, Type 1, BuildingBlock: QUQFOY_clean_sbu_1, # of connection points: 4
#     Node 27, Type 1, BuildingBlock: QUQFOY_clean_sbu_1, # of connection points: 4
#     Edge 28, Type (0, 1), BuildingBlock: KIFKEQ_clean_linker_1, # of connection points: 2
#     Edge 29, Type (0, 1), BuildingBlock: KIFKEQ_clean_linker_1, # of connection points: 2
#     Edge 30, Type (0, 1), BuildingBlock: KIFKEQ_clean_linker_1, # of connection points: 2
#     Edge 31, Type (0, 1), BuildingBlock: KIFKEQ_clean_linker_1, # of connection points: 2
#     Edge 32, Type (0, 1), BuildingBlock: KIFKEQ_clean_linker_1, # of connection points: 2
#     Edge 33, Type (0, 1), BuildingBlock: KIFKEQ_clean_linker_1, # of connection points: 2
#     Edge 34, Type (0, 1), BuildingBlock: KIFKEQ_clean_linker_1, # of connection points: 2
#     Edge 35, Type (0, 1), BuildingBlock: KIFKEQ_clean_linker_1, # of connection points: 2
#     Edge 36, Type (0, 1), BuildingBlock: KIFKEQ_clean_linker_1, # of connection points: 2
#     Edge 37, Type (0, 1), BuildingBlock: KIFKEQ_clean_linker_1, # of connection points: 2
#     Edge 38, Type (0, 1), BuildingBlock: KIFKEQ_clean_linker_1, # of connection points: 2
#     Edge 39, Type (0, 1), BuildingBlock: KIFKEQ_clean_linker_1, # of connection points: 2
#     Edge 40, Type (0, 1), BuildingBlock: KIFKEQ_clean_linker_1, # of connection points: 2
#     Edge 41, Type (0, 1), BuildingBlock: KIFKEQ_clean_linker_1, # of connection points: 2
#     Edge 42, Type (0, 1), BuildingBlock: KIFKEQ_clean_linker_1, # of connection points: 2
#     Edge 43, Type (0, 1), BuildingBlock: KIFKEQ_clean_linker_1, # of connection points: 2
#     Edge 44, Type (0, 1), BuildingBlock: KIFKEQ_clean_linker_1, # of connection points: 2
#     Edge 45, Type (0, 1), BuildingBlock: KIFKEQ_clean_linker_1, # of connection points: 2
#     Edge 46, Type (0, 1), BuildingBlock: KIFKEQ_clean_linker_1, # of connection points: 2
#     Edge 47, Type (0, 1), BuildingBlock: KIFKEQ_clean_linker_1, # of connection points: 2
#     Edge 48, Type (0, 1), BuildingBlock: KIFKEQ_clean_linker_1, # of connection points: 2
#     Edge 49, Type (0, 1), BuildingBlock: KIFKEQ_clean_linker_1, # of connection points: 2
#     Edge 50, Type (0, 1), BuildingBlock: KIFKEQ_clean_linker_1, # of connection points: 2
#     Edge 51, Type (0, 1), BuildingBlock: KIFKEQ_clean_linker_1, # of connection points: 2
#     Edge 52, Type (0, 1), BuildingBlock: KIFKEQ_clean_linker_1, # of connection points: 2
#     Edge 53, Type (0, 1), BuildingBlock: KIFKEQ_clean_linker_1, # of connection points: 2
#     Edge 54, Type (0, 1), BuildingBlock: KIFKEQ_clean_linker_1, # of connection points: 2
#     Edge 55, Type (0, 1), BuildingBlock: KIFKEQ_clean_linker_1, # of connection points: 2
#     Edge 56, Type (0, 1), BuildingBlock: KIFKEQ_clean_linker_1, # of connection points: 2
#     Edge 57, Type (0, 1), BuildingBlock: KIFKEQ_clean_linker_1, # of connection points: 2
#     Edge 58, Type (0, 1), BuildingBlock: KIFKEQ_clean_linker_1, # of connection points: 2
#     Edge 59, Type (0, 1), BuildingBlock: KIFKEQ_clean_linker_1, # of connection points: 2
#     Edge 60, Type (0, 1), BuildingBlock: KIFKEQ_clean_linker_1, # of connection points: 2
#     Edge 61, Type (0, 1), BuildingBlock: KIFKEQ_clean_linker_1, # of connection points: 2
#     Edge 62, Type (0, 1), BuildingBlock: KIFKEQ_clean_linker_1, # of connection points: 2
#     Edge 63, Type (0, 1), BuildingBlock: KIFKEQ_clean_linker_1, # of connection points: 2
#     Edge 64, Type (0, 1), BuildingBlock: KIFKEQ_clean_linker_1, # of connection points: 2
#     Edge 65, Type (0, 1), BuildingBlock: KIFKEQ_clean_linker_1, # of connection points: 2
#     Edge 66, Type (0, 1), BuildingBlock: KIFKEQ_clean_linker_1, # of connection points: 2
#     Edge 67, Type (0, 1), BuildingBlock: KIFKEQ_clean_linker_1, # of connection points: 2
#     Edge 68, Type (0, 1), BuildingBlock: KIFKEQ_clean_linker_1, # of connection points: 2
#     Edge 69, Type (0, 1), BuildingBlock: KIFKEQ_clean_linker_1, # of connection points: 2
#     Edge 70, Type (0, 1), BuildingBlock: KIFKEQ_clean_linker_1, # of connection points: 2
#     Edge 71, Type (0, 1), BuildingBlock: KIFKEQ_clean_linker_1, # of connection points: 2
#     Edge 72, Type (0, 1), BuildingBlock: KIFKEQ_clean_linker_1, # of connection points: 2
#     Edge 73, Type (0, 1), BuildingBlock: KIFKEQ_clean_linker_1, # of connection points: 2
#     Edge 74, Type (0, 1), BuildingBlock: KIFKEQ_clean_linker_1, # of connection points: 2
#     Edge 75, Type (0, 1), BuildingBlock: KIFKEQ_clean_linker_1, # of connection points: 2
# Relax obj value: 0.037
# Max RMSD: 0.151
# Mean RMSD: 0.067
data_MOF--net-ctn--node1-QUQFOY_clean_sbu_1--node2-BELTOD_clean_linker_0--edge1-KIFKEQ_clean_linker_1
_symmetry_space_group_name_H-M    P1
_symmetry_Int_Tables_number       1
_symmetry_cell_setting            triclinic
loop_
_symmetry_equiv_pos_as_xyz
'x, y, z'
_cell_length_a     63.100633
_cell_length_b     63.541081
_cell_length_c     63.107584
_cell_angle_alpha  92.102994
_cell_angle_beta   90.171671
_cell_angle_gamma 95.389532
loop_
_atom_site_label
_atom_site_type_symbol
_atom_site_fract_x
_atom_site_fract_y
_atom_site_fract_z
_atom_type_partial_charge
P0 P 0.07825 0.10565 0.09497 0.0
H1 H 0.07458 0.09566 0.13956 0.0
H2 H 0.04417 0.08452 0.16183 0.0
H3 H 0.00202 0.08664 0.10801 0.0
H4 H 0.0324 0.09794 0.08595 0.0
H5 H 0.12211 0.09999 0.08371 0.0
H6 H 0.13979 0.0693 0.07123 0.0
H7 H 0.07985 0.03046 0.0733 0.0
H8 H 0.06238 0.0612 0.08617 0.0
H9 H 0.06739 0.14878 0.09164 0.0
H10 H 0.06922 0.09357 0.05009 0.0
O11 O 0.09558 0.1217 0.10943 0.0
H12 H 0.05265 0.16774 0.06287 0.0
H13 H 0.05424 0.11234 0.02129 0.0
C14 C 0.0557 0.098 0.11125 0.0
C15 C 0.05876 0.09389 0.13264 0.0
C16 C 0.04139 0.08742 0.14529 0.0
C17 C 0.02067 0.08482 0.13669 0.0
C18 C 0.01772 0.08888 0.11519 0.0
C19 C 0.03511 0.09528 0.10254 0.0
C20 C 0.09106 0.08277 0.08623 0.0
C21 C 0.11283 0.08482 0.08164 0.0
C22 C 0.12287 0.06729 0.07435 0.0
C23 C 0.11124 0.04739 0.0713 0.0
C24 C 0.08933 0.04546 0.07581 0.0
C25 C 0.07931 0.06304 0.08311 0.0
C26 C 0.06973 0.11994 0.07289 0.0
C27 C 0.06488 0.14085 0.07622 0.0
C28 C 0.05628 0.15158 0.05983 0.0
C29 C 0.05223 0.14151 0.03981 0.0
C30 C 0.05743 0.12061 0.03644 0.0
C31 C 0.06599 0.10986 0.05291 0.0
P32 P 0.31482 0.69816 0.19729 0.0
H33 H 0.33298 0.7218 0.16206 0.0
H34 H 0.32173 0.75164 0.14298 0.0
H35 H 0.26852 0.7551 0.18553 0.0
H36 H 0.27986 0.72509 0.2045 0.0
H37 H 0.33659 0.67239 0.2257 0.0
H38 H 0.36222 0.681 0.25469 0.0
H39 H 0.36344 0.74727 0.24139 0.0
H40 H 0.33745 0.73868 0.21275 0.0
H41 H 0.27853 0.67232 0.1786 0.0
H42 H 0.29997 0.69405 0.24134 0.0
O43 O 0.32467 0.68208 0.17912 0.0
H44 H 0.24776 0.65194 0.19406 0.0
H45 H 0.2698 0.67315 0.25675 0.0
C46 C 0.307 0.72098 0.18435 0.0
C47 C 0.31893 0.72903 0.1673 0.0
C48 C 0.31256 0.74619 0.15653 0.0
C49 C 0.29416 0.75568 0.1627 0.0
C50 C 0.28259 0.74793 0.18023 0.0
C51 C 0.28907 0.73081 0.19108 0.0
C52 C 0.33502 0.70489 0.2172 0.0
C53 C 0.34245 0.68877 0.22898 0.0
C54 C 0.35698 0.69368 0.24554 0.0
C55 C 0.36467 0.71478 0.25027 0.0
C56 C 0.35777 0.73087 0.23797 0.0
C57 C 0.34291 0.72596 0.22164 0.0
C58 C 0.29186 0.68413 0.20883 0.0
C59 C 0.27667 0.67264 0.19566 0.0
C60 C 0.2591 0.66113 0.20446 0.0
C61 C 0.25666 0.66087 0.22656 0.0
C62 C 0.27156 0.67292 0.23968 0.0
C63 C 0.28887 0.68473 0.23085 0.0
P64 P 0.97208 0.49816 0.04559 0.0
H65 H 0.95004 0.47937 0.00782 0.0
H66 H 0.94751 0.44368 0.99147 0.0
H67 H 0.98276 0.42237 0.04412 0.0
H68 H 0.98553 0.45797 0.06013 0.0
H69 H 0.96513 0.54255 0.04339 0.0
H70 H 0.93304 0.56105 0.04097 0.0
H71 H 0.8943 0.50165 0.04603 0.0
H72 H 0.9266 0.48323 0.04832 0.0
H73 H 0.0148 0.50945 0.06276 0.0
H74 H 0.95288 0.48759 0.08641 0.0
O75 O 0.98975 0.51094 0.02985 0.0
H76 H 0.02973 0.50911 0.09838 0.0
H77 H 0.96782 0.48667 0.12221 0.0
C78 C 0.9677 0.4713 0.03531 0.0
C79 C 0.95687 0.4669 0.01601 0.0
C80 C 0.95538 0.44649 0.00673 0.0
C81 C 0.96495 0.43022 0.01651 0.0
C82 C 0.97538 0.43462 0.03611 0.0
C83 C 0.97683 0.455 0.04537 0.0
C84 C 0.94819 0.5115 0.0454 0.0
C85 C 0.94972 0.53353 0.04404 0.0
C86 C 0.93136 0.5441 0.04287 0.0
C87 C 0.91111 0.53279 0.04314 0.0
C88 C 0.90967 0.51075 0.04543 0.0
C89 C 0.9281 0.50021 0.04671 0.0
C90 C 0.98268 0.49893 0.07208 0.0
C91 C 0.00439 0.50466 0.07567 0.0
C92 C 0.01296 0.50419 0.09603 0.0
C93 C -1e-05 0.49777 0.11315 0.0
C94 C 0.97819 0.49193 0.10942 0.0
C95 C 0.96962 0.49246 0.08901 0.0
P96 P 0.67634 0.8089 0.20644 0.0
H97 H 0.68529 0.84841 0.18436 0.0
H98 H 0.71213 0.87849 0.18997 0.0
H99 H 0.74035 0.84594 0.24028 0.0
H100 H 0.71338 0.81593 0.23462 0.0
H101 H 0.65302 0.77777 0.17827 0.0
H102 H 0.66376 0.74891 0.15552 0.0
H103 H 0.7285 0.76186 0.17839 0.0
H104 H 0.71762 0.79112 0.20085 0.0
H105 H 0.66342 0.83381 0.24249 0.0
H106 H 0.66903 0.76786 0.22723 0.0
O107 O 0.65579 0.81797 0.19411 0.0
H108 H 0.64817 0.82467 0.2767 0.0
H109 H 0.65409 0.75853 0.26177 0.0
C110 C 0.69726 0.83008 0.20923 0.0
C111 C 0.6973 0.84771 0.19653 0.0
C112 C 0.71259 0.86491 0.19979 0.0
C113 C 0.72823 0.8646 0.21565 0.0
C114 C 0.72856 0.84656 0.22786 0.0
C115 C 0.71315 0.82945 0.2247 0.0
C116 C 0.6846 0.78691 0.19083 0.0
C117 C 0.66953 0.77441 0.1784 0.0
C118 C 0.67567 0.75773 0.16556 0.0
C119 C 0.69703 0.75308 0.16507 0.0
C120 C 0.71199 0.76522 0.17817 0.0
C121 C 0.70579 0.78195 0.19103 0.0
C122 C 0.66741 0.80156 0.23239 0.0
C123 C 0.66172 0.81737 0.24671 0.0
C124 C 0.65315 0.8121 0.26636 0.0
C125 C 0.65001 0.79085 0.27207 0.0
C126 C 0.65619 0.77503 0.25781 0.0
C127 C 0.6648 0.78035 0.23808 0.0
P128 P 0.05994 0.93978 0.4335 0.0
H129 H 0.10592 0.94497 0.42613 0.0
H130 H 0.13361 0.97304 0.43636 0.0
H131 H 0.08661 0.00729 0.46898 0.0
H132 H 0.05911 0.97901 0.45893 0.0
H133 H 0.0685 0.89782 0.44684 0.0
H134 H 0.05833 0.87782 0.47806 0.0
H135 H 0.0249 0.92988 0.5024 0.0
H136 H 0.03444 0.94937 0.47061 0.0
H137 H 0.05686 0.97911 0.41147 0.0
H138 H 0.01472 0.92512 0.42874 0.0
O139 O 0.06942 0.92372 0.41506 0.0
H140 H 0.0277 0.99346 0.39324 0.0
H141 H 0.98552 0.939 0.40972 0.0
C142 C 0.08046 0.96004 0.44162 0.0
C143 C 0.10159 0.9585 0.43551 0.0
C144 C 0.11739 0.9746 0.44129 0.0
C145 C 0.11228 0.99246 0.45338 0.0
C146 C 0.09111 0.99366 0.45985 0.0
C147 C 0.07535 0.97755 0.45406 0.0
C148 C 0.05198 0.92494 0.45632 0.0
C149 C 0.05884 0.90485 0.45881 0.0
C150 C 0.0532 0.89352 0.47682 0.0
C151 C 0.04081 0.90223 0.49281 0.0
C152 C 0.03418 0.92254 0.49029 0.0
C153 C 0.03972 0.93378 0.47218 0.0
C154 C 0.03784 0.9513 0.42193 0.0
C155 C 0.04123 0.97048 0.41164 0.0
C156 C 0.02456 0.97857 0.40098 0.0
C157 C 0.00424 0.96738 0.39995 0.0
C158 C 0.00085 0.94822 0.4105 0.0
C159 C 0.01756 0.94021 0.42131 0.0
P160 P 0.25183 0.76973 0.77319 0.0
H161 H 0.27128 0.76351 0.81433 0.0
H162 H 0.26373 0.77571 0.85035 0.0
H163 H 0.21232 0.80882 0.82646 0.0
H164 H 0.21916 0.79558 0.79084 0.0
H165 H 0.28418 0.75002 0.74832 0.0
H166 H 0.29853 0.71564 0.74977 0.0
H167 H 0.25327 0.69741 0.79855 0.0
H168 H 0.23899 0.73184 0.79698 0.0
H169 H 0.23603 0.80406 0.75038 0.0
H170 H 0.217 0.73801 0.75935 0.0
O171 O 0.27156 0.78664 0.76472 0.0
H172 H 0.20266 0.80729 0.73137 0.0
H173 H 0.18385 0.74109 0.73986 0.0
C174 C 0.2455 0.77814 0.79986 0.0
C175 C 0.25812 0.77305 0.81691 0.0
C176 C 0.25392 0.78028 0.83751 0.0
C177 C 0.23735 0.79327 0.84143 0.0
C178 C 0.22488 0.79848 0.82421 0.0
C179 C 0.22892 0.79099 0.80367 0.0
C180 C 0.26088 0.74364 0.77289 0.0
C181 C 0.27728 0.73859 0.75925 0.0
C182 C 0.2854 0.71889 0.76002 0.0
C183 C 0.2772 0.70392 0.77447 0.0
C184 C 0.26018 0.70877 0.78755 0.0
C185 C 0.25197 0.72841 0.78663 0.0
C186 C 0.22911 0.77075 0.75606 0.0
C187 C 0.22493 0.79013 0.74779 0.0
C188 C 0.20585 0.79201 0.73706 0.0
C189 C 0.19079 0.77443 0.73415 0.0
C190 C 0.19535 0.75481 0.74172 0.0
C191 C 0.21428 0.75305 0.75284 0.0
P192 P 0.96291 0.5344 0.52196 0.0
H193 H 0.00661 0.54953 0.51177 0.0
H194 H 0.02694 0.54945 0.4787 0.0
H195 H 0.97171 0.51928 0.44543 0.0
H196 H 0.95133 0.51986 0.47818 0.0
H197 H 0.95511 0.54576 0.56601 0.0
H198 H 0.95788 0.57964 0.58619 0.0
H199 H 0.97982 0.61171 0.53008 0.0
H200 H 0.97635 0.578 0.50981 0.0
H201 H 0.93831 0.49376 0.51455 0.0
H202 H 0.92631 0.55953 0.51819 0.0
O203 O 0.97235 0.51609 0.53673 0.0
H204 H 0.90041 0.48366 0.508 0.0
H205 H 0.8883 0.54946 0.51205 0.0
C206 C 0.97736 0.53507 0.49741 0.0
C207 C 0.9988 0.54318 0.49729 0.0
C208 C 0.01038 0.54314 0.47845 0.0
C209 C 0.0008 0.53442 0.4596 0.0
C210 C 0.97942 0.52605 0.45981 0.0
C211 C 0.96776 0.52645 0.47855 0.0
C212 C 0.96618 0.55929 0.53663 0.0
C213 C 0.96067 0.56007 0.55811 0.0
C214 C 0.96211 0.57938 0.56956 0.0
C215 C 0.96925 0.59816 0.55968 0.0
C216 C 0.97459 0.59736 0.53809 0.0
C217 C 0.97275 0.57809 0.52656 0.0
C218 C 0.935 0.52731 0.5173 0.0
C219 C 0.92749 0.506 0.51404 0.0
C220 C 0.90591 0.50028 0.5101 0.0
C221 C 0.8915 0.51582 0.50953 0.0
C222 C 0.8991 0.53721 0.51256 0.0
C223 C 0.92078 0.54293 0.51615 0.0
P224 P 0.82521 0.86466 0.85045 0.0
H225 H 0.83566 0.88293 0.80934 0.0
H226 H 0.85847 0.87224 0.78018 0.0
H227 H 0.87092 0.81664 0.81368 0.0
H228 H 0.84797 0.82698 0.84235 0.0
H229 H 0.80454 0.89823 0.87189 0.0
H230 H 0.77312 0.91608 0.86368 0.0
H231 H 0.7642 0.87841 0.80537 0.0
H232 H 0.79589 0.86057 0.81374 0.0
H233 H 0.84621 0.84254 0.88298 0.0
H234 H 0.78439 0.8383 0.85284 0.0
O235 O 0.84204 0.88129 0.86485 0.0
H236 H 0.83489 0.81138 0.90339 0.0
H237 H 0.77287 0.80766 0.87375 0.0
C238 C 0.83966 0.85555 0.82786 0.0
C239 C 0.84289 0.86819 0.81017 0.0
C240 C 0.85595 0.86213 0.79357 0.0
C241 C 0.86643 0.84365 0.79477 0.0
C242 C 0.86309 0.83102 0.81244 0.0
C243 C 0.84983 0.8369 0.82882 0.0
C244 C 0.80285 0.87851 0.84316 0.0
C245 C 0.79598 0.89396 0.85722 0.0
C246 C 0.77787 0.90399 0.85261 0.0
C247 C 0.76615 0.89861 0.83389 0.0
C248 C 0.77305 0.88304 0.81979 0.0
C249 C 0.79117 0.87291 0.82451 0.0
C250 C 0.81609 0.84288 0.86658 0.0
C251 C 0.83013 0.83511 0.88099 0.0
C252 C 0.82372 0.81731 0.89254 0.0
C253 C 0.80303 0.80728 0.89012 0.0
C254 C 0.78885 0.81529 0.87597 0.0
C255 C 0.79543 0.83281 0.86407 0.0
P256 P 0.32902 0.36524 0.35311 0.0
H257 H 0.33757 0.38453 0.31198 0.0
H258 H 0.36201 0.37682 0.2832 0.0
H259 H 0.38285 0.32527 0.31818 0.0
H260 H 0.35839 0.33289 0.3467 0.0
H261 H 0.30489 0.39621 0.37459 0.0
H262 H 0.2723 0.41179 0.36568 0.0
H263 H 0.26785 0.3751 0.30655 0.0
H264 H 0.30069 0.35949 0.31565 0.0
H265 H 0.33901 0.35085 0.39527 0.0
H266 H 0.30121 0.32744 0.34087 0.0
O267 O 0.34359 0.38218 0.36938 0.0
H268 H 0.32816 0.31842 0.41359 0.0
H269 H 0.29042 0.2948 0.35903 0.0
C270 C 0.34563 0.35883 0.33115 0.0
C271 C 0.34708 0.3713 0.31324 0.0
C272 C 0.36109 0.36695 0.29686 0.0
C273 C 0.37426 0.3504 0.29845 0.0
C274 C 0.37296 0.33816 0.31657 0.0
C275 C 0.35881 0.34239 0.33279 0.0
C276 C 0.30552 0.37717 0.34552 0.0
C277 C 0.29704 0.39164 0.35962 0.0
C278 C 0.27827 0.40036 0.3546 0.0
C279 C 0.2675 0.39465 0.33541 0.0
C280 C 0.27593 0.37996 0.32134 0.0
C281 C 0.2947 0.37109 0.32649 0.0
C282 C 0.3207 0.34161 0.36682 0.0
C283 C 0.32833 0.33875 0.38728 0.0
C284 C 0.32225 0.32012 0.39768 0.0
C285 C 0.30843 0.30404 0.38776 0.0
C286 C 0.30086 0.307 0.36719 0.0
C287 C 0.30702 0.32562 0.3568 0.0
P288 P 0.47913 0.00012 0.55004 0.0
H289 H 0.48381 0.98628 0.50604 0.0
H290 H 0.4797 0.95167 0.48782 0.0
H291 H 0.4599 0.92298 0.54651 0.0
H292 H 0.46468 0.95773 0.56477 0.0
H293 H 0.47232 0.04474 0.55127 0.0
H294 H 0.44047 0.06348 0.54827 0.0
H295 H 0.4015 0.00371 0.54645 0.0
H296 H 0.43356 0.98508 0.54896 0.0
H297 H 0.52175 0.00277 0.56821 0.0
H298 H 0.4572 0.99184 0.59027 0.0
O299 O 0.4978 0.01461 0.53685 0.0
H300 H 0.53496 0.00122 0.60432 0.0
H301 H 0.47029 0.98932 0.62654 0.0
C302 C 0.47503 0.9745 0.53682 0.0
C303 C 0.47864 0.97254 0.515 0.0
C304 C 0.47605 0.95273 0.50455 0.0
C305 C 0.4695 0.93448 0.5157 0.0
C306 C 0.46529 0.93664 0.53752 0.0
C307 C 0.46798 0.95651 0.54798 0.0
C308 C 0.45531 0.01355 0.54977 0.0
C309 C 0.4569 0.03569 0.55028 0.0
C310 C 0.43864 0.04639 0.54878 0.0
C311 C 0.41842 0.0351 0.54694 0.0
C312 C 0.41686 0.01287 0.54744 0.0
C313 C 0.43518 0.00219 0.54891 0.0
C314 C 0.48851 0.99791 0.57669 0.0
C315 C 0.51041 -0.0001 0.58087 0.0
C316 C 0.51795 0.99872 0.60155 0.0
C317 C 0.50371 0.99516 0.61844 0.0
C318 C 0.48171 0.99244 0.61401 0.0
C319 C 0.47418 0.99383 0.59328 0.0
P320 P 0.16784 0.31792 0.71199 0.0
H321 H 0.17082 0.36134 0.69759 0.0
H322 H 0.1974 0.39155 0.70345 0.0
H323 H 0.2354 0.35296 0.74034 0.0
H324 H 0.20871 0.32277 0.73438 0.0
H325 H 0.15517 0.30671 0.66831 0.0
H326 H 0.168 0.28247 0.64165 0.0
H327 H 0.21464 0.26457 0.68624 0.0
H328 H 0.20119 0.28866 0.71322 0.0
H329 H 0.16284 0.33674 0.75398 0.0
H330 H 0.15695 0.27407 0.7247 0.0
O331 O 0.14558 0.32675 0.70287 0.0
H332 H 0.14821 0.32267 0.78665 0.0
H333 H 0.14301 0.25958 0.75777 0.0
C334 C 0.18776 0.3399 0.71571 0.0
C335 C 0.18486 0.35937 0.70694 0.0
C336 C 0.20002 0.37665 0.71036 0.0
C337 C 0.21843 0.37465 0.72244 0.0
C338 C 0.22146 0.35494 0.73083 0.0
C339 C 0.20621 0.3377 0.72749 0.0
C340 C 0.17713 0.29936 0.69278 0.0
C341 C 0.16806 0.29751 0.67245 0.0
C342 C 0.17557 0.28375 0.65713 0.0
C343 C 0.19248 0.2717 0.66174 0.0
C344 C 0.2015 0.27352 0.68223 0.0
C345 C 0.19391 0.28734 0.69761 0.0
C346 C 0.16135 0.30643 0.73703 0.0
C347 C 0.15907 0.31981 0.75483 0.0
C348 C 0.15077 0.31167 0.77361 0.0
C349 C 0.14446 0.28992 0.77497 0.0
C350 C 0.14754 0.27642 0.75726 0.0
C351 C 0.15572 0.28466 0.73838 0.0
P352 P 0.81237 0.20444 0.68553 0.0
H353 H 0.82897 0.2253 0.64801 0.0
H354 H 0.81719 0.25384 0.62746 0.0
H355 H 0.7655 0.2603 0.67137 0.0
H356 H 0.77806 0.23229 0.69236 0.0
H357 H 0.85426 0.19185 0.69671 0.0
H358 H 0.87836 0.20193 0.72644 0.0
H359 H 0.83639 0.24791 0.74861 0.0
H360 H 0.81213 0.23742 0.71895 0.0
H361 H 0.76832 0.19251 0.67194 0.0
H362 H 0.80822 0.18259 0.72562 0.0
O363 O 0.82334 0.18806 0.66843 0.0
H364 H 0.73836 0.17236 0.6886 0.0
H365 H 0.77874 0.16187 0.74195 0.0
C366 C 0.80398 0.22625 0.67128 0.0
C367 C 0.81511 0.23288 0.65321 0.0
C368 C 0.80826 0.24913 0.64141 0.0
C369 C 0.79008 0.25909 0.64747 0.0
C370 C 0.77952 0.25299 0.6662 0.0
C371 C 0.78655 0.23682 0.67811 0.0
C372 C 0.83159 0.21412 0.70548 0.0
C373 C 0.85043 0.20436 0.70774 0.0
C374 C 0.86422 0.21017 0.72475 0.0
C375 C 0.85929 0.22573 0.7399 0.0
C376 C 0.84053 0.23574 0.73732 0.0
C377 C 0.82678 0.22993 0.72027 0.0
C378 C 0.79029 0.18969 0.69785 0.0
C379 C 0.77059 0.18614 0.68738 0.0
C380 C 0.75354 0.17443 0.69684 0.0
C381 C 0.75605 0.16568 0.71676 0.0
C382 C 0.77604 0.16885 0.72689 0.0
C383 C 0.79299 0.18067 0.71749 0.0
P384 P 0.57817 0.60386 0.60321 0.0
H385 H 0.56149 0.62352 0.64161 0.0
H386 H 0.52745 0.61826 0.65979 0.0
H387 H 0.50583 0.56981 0.61257 0.0
H388 H 0.53945 0.57618 0.59391 0.0
H389 H 0.61323 0.59413 0.57593 0.0
H390 H 0.62897 0.56124 0.56659 0.0
H391 H 0.58417 0.52704 0.60735 0.0
H392 H 0.56897 0.55999 0.61724 0.0
H393 H 0.57859 0.64863 0.59463 0.0
H394 H 0.56493 0.58898 0.56028 0.0
O395 O 0.59565 0.61898 0.61839 0.0
H396 H 0.56795 0.66731 0.56377 0.0
H397 H 0.55481 0.60753 0.52909 0.0
C398 C 0.55318 0.59978 0.61678 0.0
C399 C 0.5494 0.61177 0.63521 0.0
C400 C 0.52991 0.60867 0.64564 0.0
C401 C 0.51385 0.59341 0.63786 0.0
C402 C 0.51761 0.58186 0.61898 0.0
C403 C 0.53697 0.58525 0.6084 0.0
C404 C 0.58953 0.57945 0.59677 0.0
C405 C 0.6068 0.57956 0.58287 0.0
C406 C 0.61583 0.56081 0.57763 0.0
C407 C 0.60763 0.54163 0.58614 0.0
C408 C 0.59056 0.5416 0.60036 0.0
C409 C 0.58179 0.56044 0.60589 0.0
C410 C 0.57299 0.61749 0.57956 0.0
C411 C 0.57378 0.63959 0.58025 0.0
C412 C 0.56775 0.65025 0.56255 0.0
C413 C 0.56063 0.63894 0.54388 0.0
C414 C 0.56008 0.61672 0.54324 0.0
C415 C 0.56606 0.6061 0.56099 0.0
P416 P 0.5639 0.43231 0.91652 0.0
H417 H 0.60138 0.43772 0.94386 0.0
H418 H 0.62762 0.46769 0.95196 0.0
H419 H 0.59661 0.50492 0.90729 0.0
H420 H 0.57011 0.47508 0.89975 0.0
H421 H 0.55127 0.38858 0.927 0.0
H422 H 0.5408 0.37195 0.96019 0.0
H423 H 0.54779 0.43321 0.99287 0.0
H424 H 0.55848 0.44967 0.95965 0.0
H425 H 0.54827 0.42729 0.87282 0.0
H426 H 0.52931 0.45652 0.93162 0.0
O427 O 0.57491 0.41461 0.90093 0.0
H428 H 0.51795 0.43999 0.85479 0.0
H429 H 0.49858 0.46893 0.91379 0.0
C430 C 0.5835 0.45434 0.92165 0.0
C431 C 0.6002 0.45238 0.9359 0.0
C432 C 0.61531 0.46947 0.94036 0.0
C433 C 0.61415 0.48877 0.93037 0.0
C434 C 0.59771 0.49043 0.91558 0.0
C435 C 0.58256 0.47333 0.91121 0.0
C436 C 0.55605 0.42026 0.94099 0.0
C437 C 0.55065 0.3984 0.94134 0.0
C438 C 0.54454 0.38894 0.96029 0.0
C439 C 0.5436 0.40126 0.9792 0.0
C440 C 0.54874 0.42325 0.97867 0.0
C441 C 0.55477 0.43268 0.95968 0.0
C442 C 0.54081 0.44064 0.90362 0.0
C443 C 0.53739 0.43618 0.88193 0.0
C444 C 0.51999 0.4434 0.87165 0.0
C445 C 0.50572 0.45534 0.88288 0.0
C446 C 0.50931 0.45988 0.90466 0.0
C447 C 0.52675 0.45263 0.91492 0.0
P448 P 0.75476 0.26512 0.27406 0.0
H449 H 0.78171 0.28568 0.30797 0.0
H450 H 0.77391 0.30048 0.34322 0.0
H451 H 0.70687 0.28325 0.33241 0.0
H452 H 0.71466 0.26787 0.29766 0.0
H453 H 0.75071 0.22784 0.24479 0.0
H454 H 0.76453 0.19316 0.24595 0.0
H455 H 0.79335 0.21072 0.30694 0.0
H456 H 0.77915 0.24507 0.306 0.0
H457 H 0.74252 0.2964 0.24471 0.0
H458 H 0.71588 0.2365 0.26741 0.0
O459 O 0.77494 0.28043 0.26404 0.0
H460 H 0.70982 0.29979 0.22485 0.0
H461 H 0.68287 0.24001 0.24819 0.0
C462 C 0.74881 0.27583 0.30001 0.0
C463 C 0.76535 0.28498 0.31322 0.0
C464 C 0.7609 0.29335 0.33334 0.0
C465 C 0.73979 0.29303 0.34039 0.0
C466 C 0.72326 0.28381 0.32721 0.0
C467 C 0.72775 0.27503 0.3073 0.0
C468 C 0.76323 0.23888 0.27563 0.0
C469 C 0.75954 0.22408 0.25866 0.0
C470 C 0.76754 0.2043 0.25926 0.0
C471 C 0.77994 0.19926 0.27656 0.0
C472 C 0.78387 0.21422 0.29339 0.0
C473 C 0.77558 0.23382 0.29292 0.0
C474 C 0.7318 0.26598 0.25715 0.0
C475 C 0.72974 0.2838 0.24514 0.0
C476 C 0.71092 0.28583 0.23399 0.0
C477 C 0.69364 0.27019 0.2349 0.0
C478 C 0.69595 0.25218 0.24674 0.0
C479 C 0.71483 0.25012 0.25777 0.0
P480 P 0.477 0.04549 0.03236 0.0
H481 H 0.51544 0.06917 0.01711 0.0
H482 H 0.53428 0.06846 0.98323 0.0
H483 H 0.48768 0.01923 0.95907 0.0
H484 H 0.46886 0.02008 0.99277 0.0
H485 H 0.46927 0.06263 0.0746 0.0
H486 H 0.46649 0.09867 0.08881 0.0
H487 H 0.47505 0.12245 0.0259 0.0
H488 H 0.47715 0.08635 0.01164 0.0
H489 H 0.45988 0.00341 0.04458 0.0
H490 H 0.43715 0.05678 0.01425 0.0
O491 O 0.49145 0.03368 0.04978 0.0
H492 H 0.42481 0.98398 0.04036 0.0
H493 H 0.40198 0.03727 0.00961 0.0
C494 C 0.49047 0.0451 0.00728 0.0
C495 C 0.50916 0.05841 0.00442 0.0
C496 C 0.51987 0.05801 0.98509 0.0
C497 C 0.51232 0.0439 0.96851 0.0
C498 C 0.49384 0.03025 0.9716 0.0
C499 C 0.48301 0.03084 0.99084 0.0
C500 C 0.4742 0.07196 0.04224 0.0
C501 C 0.47049 0.0756 0.06387 0.0
C502 C 0.46872 0.09612 0.07193 0.0
C503 C 0.47075 0.11326 0.05843 0.0
C504 C 0.47371 0.10947 0.03663 0.0
C505 C 0.47509 0.08889 0.02853 0.0
C506 C 0.45094 0.03162 0.03005 0.0
C507 C 0.44729 0.01098 0.03712 0.0
C508 C 0.42728 -0.00017 0.0345 0.0
C509 C 0.41062 0.00909 0.02461 0.0
C510 C 0.4144 0.02982 0.01752 0.0
C511 C 0.43446 0.04096 0.02014 0.0
O512 O 0.23563 0.86276 0.99851 0.0
Cd513 Cd 0.24531 0.87828 0.02664 0.0
Cd514 Cd 0.22326 0.91031 0.00605 0.0
O515 O 0.21784 0.8864 0.98309 0.0
O516 O 0.26311 0.85706 0.03804 0.0
O517 O 0.23533 0.86731 0.0552 0.0
C518 C 0.25122 0.85593 0.05451 0.0
C519 C 0.19569 0.92996 0.01732 0.0
C520 C 0.22487 0.86829 0.98295 0.0
C521 C 0.2693 0.92093 0.01697 0.0
O522 O 0.25307 0.92664 0.00759 0.0
O523 O 0.26854 0.90317 0.02564 0.0
O524 O 0.20401 0.93206 0.9988 0.0
O525 O 0.20254 0.91598 0.02934 0.0
O526 O 0.1473 0.54505 0.29709 0.0
Cd527 Cd 0.13118 0.51755 0.3074 0.0
Cd528 Cd 0.0984 0.5334 0.28154 0.0
O529 O 0.12353 0.55498 0.27469 0.0
O530 O 0.15339 0.50574 0.32453 0.0
O531 O 0.13942 0.48939 0.29559 0.0
C532 C 0.15264 0.4898 0.3113 0.0
C533 C 0.07658 0.52189 0.25271 0.0
C534 C 0.14187 0.55752 0.28321 0.0
C535 C 0.08965 0.52731 0.32794 0.0
O536 O 0.08389 0.53486 0.31071 0.0
O537 O 0.10713 0.51902 0.32922 0.0
O538 O 0.07586 0.54034 0.26167 0.0
O539 O 0.08968 0.50963 0.26033 0.0
O540 O 0.74053 0.67518 0.98079 0.0
Cd541 Cd 0.73045 0.65239 0.00189 0.0
Cd542 Cd 0.76322 0.63246 0.98471 0.0
O543 O 0.77019 0.66155 0.97154 0.0
O544 O 0.71152 0.66637 0.02189 0.0
O545 O 0.74216 0.65526 0.03169 0.0
C546 C 0.72532 0.66444 0.03661 0.0
C547 C 0.79125 0.61562 0.99849 0.0
C548 C 0.75808 0.6764 0.97089 0.0
C549 C 0.71871 0.61149 0.97816 0.0
O550 O 0.73815 0.61212 0.97281 0.0
O551 O 0.71245 0.62562 0.99076 0.0
O552 O 0.78833 0.61673 0.97837 0.0
O553 O 0.77841 0.62464 0.01105 0.0
O554 O 0.89429 0.00447 0.28063 0.0
Cd555 Cd 0.87777 0.01164 0.25413 0.0
Cd556 Cd 0.85127 0.02424 0.28483 0.0
O557 O 0.87462 0.01728 0.30591 0.0
O558 O 0.89853 0.00672 0.23129 0.0
O559 O 0.88767 0.03815 0.23884 0.0
C560 C 0.89966 0.02661 0.22777 0.0
C561 C 0.8401 0.05805 0.28395 0.0
C562 C 0.89099 0.00837 0.30016 0.0
C563 C 0.83411 0.98865 0.25516 0.0
O564 O 0.83101 -0.00041 0.27194 0.0
O565 O 0.85145 0.99172 0.24508 0.0
O566 O 0.83317 0.04502 0.29813 0.0
O567 O 0.85388 0.05199 0.27046 0.0
O568 O 0.2478 0.1773 0.4852 0.0
Cd569 Cd 0.2366 0.15719 0.5084 0.0
Cd570 Cd 0.26857 0.13364 0.49044 0.0
O571 O 0.27467 0.16054 0.47327 0.0
O572 O 0.21655 0.1745 0.52375 0.0
O573 O 0.24534 0.16439 0.53887 0.0
C574 C 0.22868 0.17472 0.5402 0.0
C575 C 0.29763 0.1177 0.5033 0.0
C576 C 0.26375 0.17634 0.47309 0.0
C577 C 0.22308 0.11386 0.48928 0.0
O578 O 0.24218 0.11293 0.48328 0.0
O579 O 0.21784 0.12982 0.50006 0.0
O580 O 0.29261 0.11662 0.48347 0.0
O581 O 0.28631 0.12837 0.51603 0.0
O582 O 0.39167 0.50785 0.77541 0.0
Cd583 Cd 0.37295 0.51802 0.7518 0.0
Cd584 Cd 0.35064 0.53 0.78545 0.0
O585 O 0.37604 0.52162 0.80314 0.0
O586 O 0.39061 0.51638 0.72578 0.0
O587 O 0.38162 0.54656 0.74003 0.0
C588 C 0.39181 0.53672 0.72564 0.0
C589 C 0.34059 0.56431 0.7857 0.0
C590 C 0.39086 0.51157 0.7953 0.0
C591 C 0.32911 0.49631 0.75638 0.0
O592 O 0.32854 0.50613 0.77426 0.0
O593 O 0.345 0.49982 0.74426 0.0
O594 O 0.33512 0.5518 0.80084 0.0
O595 O 0.35241 0.55745 0.77076 0.0
O596 O 0.73415 0.37396 0.49234 0.0
Cd597 Cd 0.73698 0.39016 0.52145 0.0
Cd598 Cd 0.70911 0.41193 0.5004 0.0
O599 O 0.70539 0.38617 0.47958 0.0
O600 O 0.75907 0.37435 0.53451 0.0
O601 O 0.72703 0.37521 0.54808 0.0
C602 C 0.74566 0.36844 0.54888 0.0
C603 C 0.68194 0.4252 0.51979 0.0
C604 C 0.71969 0.37341 0.47822 0.0
C605 C 0.75072 0.43466 0.50988 0.0
O606 O 0.73547 0.43316 0.49658 0.0
O607 O 0.7523 0.42027 0.52309 0.0
O608 O 0.68366 0.42798 0.49967 0.0
O609 O 0.695 0.41363 0.52868 0.0
O610 O 0.65023 0.05341 0.79592 0.0
Cd611 Cd 0.63431 0.02697 0.80861 0.0
Cd612 Cd 0.60024 0.04268 0.78527 0.0
O613 O 0.62445 0.06473 0.77694 0.0
O614 O 0.65744 0.01527 0.82449 0.0
O615 O 0.64078 0.998 0.79738 0.0
C616 C 0.65516 0.99871 0.81205 0.0
C617 C 0.57822 0.0287 0.75753 0.0
C618 C 0.6437 0.06644 0.78316 0.0
C619 C 0.59439 0.03777 0.83206 0.0
O620 O 0.58705 0.04437 0.81502 0.0
O621 O 0.61223 0.03004 0.83226 0.0
O622 O 0.57671 0.04741 0.76562 0.0
O623 O 0.59221 0.01759 0.76549 0.0
O624 O 0.9626 0.2793 0.93059 0.0
Cd625 Cd 0.96629 0.25133 0.91405 0.0
Cd626 Cd 0.99425 0.27463 0.89063 0.0
O627 O 0.98957 0.29657 0.91468 0.0
O628 O 0.9616 0.22755 0.93363 0.0
O629 O 0.99294 0.23777 0.91965 0.0
C630 C 0.98173 0.22551 0.93212 0.0
C631 C 0.02889 0.27383 0.87792 0.0
C632 C 0.97517 0.29593 0.92873 0.0
C633 C 0.95419 0.25438 0.86896 0.0
O634 O 0.97068 0.26743 0.868 0.0
O635 O 0.9497 0.24496 0.88603 0.0
O636 O 0.01787 0.28944 0.87458 0.0
O637 O 0.02037 0.25851 0.88885 0.0
O638 O 0.47456 0.78148 0.43515 0.0
Cd639 Cd 0.47959 0.75356 0.41878 0.0
Cd640 Cd 0.50274 0.77902 0.393 0.0
O641 O 0.49668 0.80152 0.41578 0.0
O642 O 0.4755 0.73037 0.4391 0.0
O643 O 0.5066 0.74049 0.42465 0.0
C644 C 0.49561 0.72837 0.43742 0.0
C645 C 0.53705 0.77972 0.37926 0.0
C646 C 0.48399 0.79949 0.4313 0.0
C647 C 0.46395 0.75429 0.37417 0.0
O648 O 0.47869 0.76906 0.3719 0.0
O649 O 0.46194 0.7449 0.3916 0.0
O650 O 0.52476 0.79417 0.37531 0.0
O651 O 0.53002 0.7648 0.39148 0.0
O652 O 0.98246 0.78358 0.6897 0.0
Cd653 Cd 0.0052 0.77038 0.67129 0.0
Cd654 Cd 0.98188 0.78608 0.63964 0.0
O655 O 0.96445 0.79721 0.6644 0.0
O656 O 0.02705 0.76393 0.69225 0.0
O657 O 0.03408 0.7856 0.66598 0.0
C658 C 0.04065 0.77624 0.68225 0.0
C659 C 0.99392 0.80964 0.61399 0.0
C660 C 0.96735 0.794 0.68389 0.0
C661 C 0.9853 0.73921 0.63839 0.0
O662 O 0.9771 0.75456 0.63024 0.0
O663 O 0.99722 0.74224 0.65468 0.0
O664 O 0.97435 0.80176 0.61449 0.0
O665 O 0.00681 0.80423 0.62835 0.0
O666 O 0.48888 0.29703 0.18741 0.0
Cd667 Cd 0.51069 0.28432 0.16736 0.0
Cd668 Cd 0.48577 0.30257 0.13748 0.0
O669 O 0.47094 0.31353 0.16407 0.0
O670 O 0.53055 0.27223 0.18711 0.0
O671 O 0.54096 0.29773 0.16555 0.0
C672 C 0.54573 0.28479 0.17976 0.0
C673 C 0.49751 0.32597 0.11159 0.0
C674 C 0.4743 0.30876 0.18309 0.0
C675 C 0.48779 0.25606 0.13293 0.0
O676 O 0.47847 0.27169 0.12695 0.0
O677 O 0.50138 0.25833 0.14791 0.0
O678 O 0.47759 0.3199 0.11379 0.0
O679 O 0.5109 0.31914 0.12465 0.0
H680 H 0.26711 0.80656 0.87196 0.0
H681 H 0.19918 0.80022 0.86025 0.0
H682 H 0.26128 0.82195 0.90703 0.0
H683 H 0.19356 0.81649 0.89523 0.0
H684 H 0.20234 0.87379 0.94657 0.0
H685 H 0.20341 0.85345 0.913 0.0
H686 H 0.24375 0.81115 0.94181 0.0
H687 H 0.2427 0.83125 0.97531 0.0
C688 C 0.2509 0.80813 0.87691 0.0
C689 C 0.23363 0.80204 0.86318 0.0
C690 C 0.24759 0.81705 0.89702 0.0
C691 C 0.22696 0.82036 0.90384 0.0
C692 C 0.20964 0.81424 0.89028 0.0
C693 C 0.21291 0.80503 0.87022 0.0
C694 C 0.21113 0.85993 0.94586 0.0
C695 C 0.22262 0.85431 0.96359 0.0
C696 C 0.21167 0.84827 0.92665 0.0
C697 C 0.22387 0.8309 0.92479 0.0
C698 C 0.23446 0.82465 0.94276 0.0
C699 C 0.23375 0.83614 0.96198 0.0
H700 H 0.00509 0.50001 0.43364 0.0
H701 H 0.02447 0.56686 0.44123 0.0
H702 H 0.02622 0.4983 0.40124 0.0
H703 H 0.04541 0.56519 0.40862 0.0
H704 H 0.05878 0.5539 0.33603 0.0
H705 H 0.03678 0.55587 0.36782 0.0
H706 H 0.0675 0.50471 0.39407 0.0
H707 H 0.08974 0.50291 0.36255 0.0
C708 C 0.01376 0.51434 0.42825 0.0
C709 C 0.01323 0.53356 0.43984 0.0
C710 C 0.02589 0.51333 0.40984 0.0
C711 C 0.03736 0.53162 0.40253 0.0
C712 C 0.03657 0.55092 0.41393 0.0
C713 C 0.02475 0.55185 0.43257 0.0
C714 C 0.06079 0.54306 0.34857 0.0
C715 C 0.07598 0.52827 0.34683 0.0
C716 C 0.0483 0.54426 0.36675 0.0
C717 C 0.05051 0.53043 0.38328 0.0
C718 C 0.06546 0.51546 0.38144 0.0
C719 C 0.07822 0.51451 0.36347 0.0
H720 H 0.82206 0.77071 0.89024 0.0
H721 H 0.76912 0.80095 0.91639 0.0
H722 H 0.81086 0.73874 0.90899 0.0
H723 H 0.75846 0.76955 0.93632 0.0
H724 H 0.73247 0.70381 0.95397 0.0
H725 H 0.74313 0.73499 0.9339 0.0
H726 H 0.80923 0.72373 0.94179 0.0
H727 H 0.79834 0.69186 0.96066 0.0
C728 C 0.80815 0.77052 0.90028 0.0
C729 C 0.79642 0.78817 0.90194 0.0
C730 C 0.80177 0.75227 0.91116 0.0
C731 C 0.78374 0.75145 0.92432 0.0
C732 C 0.77215 0.76933 0.92605 0.0
C733 C 0.7783 0.78741 0.91479 0.0
C734 C 0.74927 0.70801 0.95131 0.0
C735 C 0.76457 0.69538 0.95881 0.0
C736 C 0.75543 0.726 0.93994 0.0
C737 C 0.7771 0.73206 0.93618 0.0
C738 C 0.79239 0.71942 0.9439 0.0
C739 C 0.78617 0.70118 0.95487 0.0
H740 H 0.96142 0.96666 0.40848 0.0
H741 H 0.00836 0.98496 0.36121 0.0
H742 H 0.93334 0.97691 0.38522 0.0
H743 H 0.98061 0.996 0.3386 0.0
H744 H 0.92557 0.98678 0.2926 0.0
H745 H 0.95204 0.97764 0.31767 0.0
H746 H 0.91898 0.00759 0.36865 0.0
H747 H 0.89193 0.01651 0.34338 0.0
C748 C 0.96577 0.97299 0.39322 0.0
C749 C 0.98715 0.97492 0.3867 0.0
C750 C 0.94971 0.97906 0.38001 0.0
C751 C 0.95473 0.98711 0.36 0.0
C752 C 0.97616 0.98955 0.35378 0.0
C753 C 0.99213 0.98347 0.3669 0.0
C754 C 0.92383 0.99146 0.30914 0.0
C755 C 0.90666 0.00252 0.31594 0.0
C756 C 0.93913 0.98631 0.32351 0.0
C757 C 0.93779 0.99213 0.34511 0.0
C758 C 0.92041 0.00283 0.3521 0.0
C759 C 0.90498 0.00801 0.33763 0.0
H760 H 0.20425 0.23142 0.66566 0.0
H761 H 0.1991 0.27981 0.62005 0.0
H762 H 0.21437 0.20712 0.63718 0.0
H763 H 0.2088 0.25553 0.59179 0.0
H764 H 0.19611 0.19939 0.5456 0.0
H765 H 0.18919 0.22236 0.57587 0.0
H766 H 0.24335 0.20215 0.60883 0.0
H767 H 0.25043 0.17887 0.57825 0.0
C768 C 0.20555 0.23696 0.64965 0.0
C769 C 0.20052 0.25743 0.64505 0.0
C770 C 0.21131 0.22305 0.63338 0.0
C771 C 0.21204 0.22936 0.61227 0.0
C772 C 0.20792 0.2501 0.60786 0.0
C773 C 0.2023 0.26397 0.62405 0.0
C774 C 0.20654 0.19968 0.55929 0.0
C775 C 0.22392 0.18739 0.55945 0.0
C776 C 0.20262 0.21297 0.57659 0.0
C777 C 0.2159 0.21424 0.59457 0.0
C778 C 0.23288 0.20144 0.59514 0.0
C779 C 0.23694 0.18818 0.57765 0.0
H780 H 0.50833 0.59392 0.681 0.0
H781 H 0.47349 0.58246 0.6219 0.0
H782 H 0.47601 0.58382 0.70051 0.0
H783 H 0.4414 0.57137 0.64164 0.0
H784 H 0.40608 0.52171 0.6879 0.0
H785 H 0.43345 0.5388 0.66537 0.0
H786 H 0.43743 0.59452 0.70696 0.0
H787 H 0.40971 0.57754 0.72941 0.0
C788 C 0.49377 0.58965 0.67211 0.0
C789 C 0.49367 0.58891 0.64979 0.0
C790 C 0.47524 0.58381 0.68335 0.0
C791 C 0.45627 0.57679 0.67256 0.0
C792 C 0.4559 0.57659 0.65032 0.0
C793 C 0.47435 0.58277 0.63905 0.0
C794 C 0.41249 0.53776 0.69201 0.0
C795 C 0.40587 0.54826 0.71045 0.0
C796 C 0.42806 0.54757 0.67906 0.0
C797 C 0.43758 0.56792 0.68451 0.0
C798 C 0.43037 0.57878 0.70249 0.0
C799 C 0.41447 0.56911 0.71525 0.0
H800 H 0.78853 0.25886 0.60424 0.0
H801 H 0.77295 0.29589 0.65991 0.0
H802 H 0.77708 0.28596 0.58175 0.0
H803 H 0.76089 0.32286 0.63713 0.0
H804 H 0.72229 0.35362 0.58296 0.0
H805 H 0.73202 0.32737 0.60801 0.0
H806 H 0.79199 0.32382 0.57597 0.0
H807 H 0.7825 0.34979 0.55122 0.0
C808 C 0.78278 0.27283 0.61172 0.0
C809 C 0.78201 0.27532 0.63393 0.0
C810 C 0.7761 0.28829 0.59881 0.0
C811 C 0.76829 0.30657 0.60773 0.0
C812 C 0.76677 0.30884 0.62987 0.0
C813 C 0.77366 0.2934 0.64288 0.0
C814 C 0.73759 0.34731 0.58141 0.0
C815 C 0.75155 0.35368 0.56503 0.0
C816 C 0.74316 0.33238 0.59576 0.0
C817 C 0.76265 0.32344 0.59374 0.0
C818 C 0.77673 0.33022 0.57769 0.0
C819 C 0.7713 0.34519 0.56357 0.0
H820 H 0.48607 0.01196 0.65412 0.0
H821 H 0.53987 0.97945 0.63312 0.0
H822 H 0.5014 0.01637 0.68954 0.0
H823 H 0.5559 0.98518 0.66819 0.0
H824 H 0.57624 0.98969 0.73699 0.0
H825 H 0.55554 0.97802 0.70516 0.0
H826 H 0.53006 0.03883 0.70441 0.0
H827 H 0.55 0.05008 0.73632 0.0
C828 C 0.50103 0.00548 0.65708 0.0
C829 C 0.51185 0.99559 0.64063 0.0
C830 C 0.50998 0.00829 0.67737 0.0
C831 C 0.53009 0.0015 0.68166 0.0
C832 C 0.54037 0.99057 0.66552 0.0
C833 C 0.5313 0.98757 0.64528 0.0
C834 C 0.566 0.00042 0.73012 0.0
C835 C 0.56482 0.02083 0.73912 0.0
C836 C 0.55422 0.99379 0.71183 0.0
C837 C 0.54111 0.00747 0.70218 0.0
C838 C 0.53963 0.02768 0.71157 0.0
C839 C 0.55125 0.03423 0.72983 0.0
H840 H 0.84725 0.23191 0.78107 0.0
H841 H 0.90284 0.23075 0.7414 0.0
H842 H 0.87009 0.23927 0.8122 0.0
H843 H 0.92568 0.23736 0.77263 0.0
H844 H 0.95931 0.27168 0.83008 0.0
H845 H 0.93629 0.26533 0.79906 0.0
H846 H 0.89458 0.22127 0.83377 0.0
H847 H 0.91741 0.22789 0.86501 0.0
C848 C 0.86434 0.23336 0.77898 0.0
C849 C 0.87323 0.23081 0.75875 0.0
C850 C 0.87743 0.2373 0.79685 0.0
C851 C 0.8997 0.23882 0.79491 0.0
C852 C 0.90859 0.23647 0.77465 0.0
C853 C 0.8955 0.23248 0.75678 0.0
C854 C 0.94523 0.26064 0.83114 0.0
C855 C 0.94021 0.2503 0.85007 0.0
C856 C 0.9321 0.25692 0.8133 0.0
C857 C 0.91361 0.24279 0.81393 0.0
C858 C 0.90857 0.23245 0.83285 0.0
C859 C 0.92173 0.23616 0.85072 0.0
H860 H 0.45407 0.92379 0.47577 0.0
H861 H 0.48139 0.89724 0.53051 0.0
H862 H 0.45559 0.89027 0.45603 0.0
H863 H 0.48237 0.86353 0.5108 0.0
H864 H 0.46499 0.80125 0.47037 0.0
H865 H 0.45874 0.83306 0.49179 0.0
H866 H 0.48751 0.8721 0.4431 0.0
H867 H 0.49385 0.84065 0.42187 0.0
C868 C 0.4603 0.91079 0.48364 0.0
C869 C 0.46791 0.91333 0.50463 0.0
C870 C 0.46107 0.89159 0.47235 0.0
C871 C 0.46928 0.87441 0.48185 0.0
C872 C 0.47584 0.8765 0.50316 0.0
C873 C 0.47524 0.8958 0.51443 0.0
C874 C 0.46992 0.81665 0.46426 0.0
C875 C 0.47995 0.81843 0.44445 0.0
C876 C 0.46639 0.8348 0.47653 0.0
C877 C 0.47251 0.855 0.469 0.0
C878 C 0.48237 0.85673 0.44916 0.0
C879 C 0.48614 0.83868 0.43708 0.0
H880 H 0.11025 0.26001 0.77589 0.0
H881 H 0.15119 0.30223 0.81687 0.0
H882 H 0.08635 0.25259 0.80539 0.0
H883 H 0.12667 0.29529 0.8462 0.0
H884 H 0.04887 0.23914 0.86524 0.0
H885 H 0.0812 0.23896 0.84368 0.0
H886 H 0.08871 0.30725 0.84751 0.0
H887 H 0.05642 0.30742 0.86854 0.0
C888 C 0.11457 0.26722 0.7913 0.0
C889 C 0.13251 0.28203 0.79385 0.0
C890 C 0.1008 0.26295 0.80823 0.0
C891 C 0.10457 0.27355 0.82798 0.0
C892 C 0.12331 0.28709 0.83103 0.0
C893 C 0.13723 0.29115 0.81418 0.0
C894 C 0.05776 0.25404 0.86185 0.0
C895 C 0.05012 0.2733 0.86835 0.0
C896 C 0.07617 0.25394 0.8495 0.0
C897 C 0.08742 0.27308 0.84397 0.0
C898 C 0.0805 0.29225 0.85173 0.0
C899 C 0.06193 0.29236 0.86363 0.0
H900 H 0.52588 0.62706 0.51867 0.0
H901 H 0.57728 0.67651 0.52795 0.0
H902 H 0.51134 0.64672 0.49053 0.0
H903 H 0.56217 0.69664 0.50043 0.0
H904 H 0.53781 0.72144 0.43918 0.0
H905 H 0.55462 0.6981 0.46269 0.0
H906 H 0.49319 0.67837 0.48918 0.0
H907 H 0.47642 0.70123 0.4655 0.0
C908 C 0.53423 0.64201 0.51455 0.0
C909 C 0.55271 0.65024 0.52566 0.0
C910 C 0.52574 0.65341 0.49857 0.0
C911 C 0.53547 0.67335 0.49334 0.0
C912 C 0.55435 0.68126 0.50394 0.0
C913 C 0.56287 0.66984 0.51991 0.0
C914 C 0.52789 0.71194 0.44988 0.0
C915 C 0.50579 0.71324 0.45051 0.0
C916 C 0.53754 0.69866 0.46343 0.0
C917 C 0.52526 0.68639 0.47785 0.0
C918 C 0.5031 0.68736 0.47808 0.0
C919 C 0.49348 0.7006 0.46457 0.0
H920 H 0.90707 0.83415 0.80028 0.0
H921 H 0.85978 0.84021 0.75193 0.0
H922 H 0.93185 0.82346 0.77336 0.0
H923 H 0.8842 0.82858 0.72485 0.0
H924 H 0.9397 0.82425 0.67934 0.0
H925 H 0.91584 0.83754 0.70592 0.0
H926 H 0.93762 0.79444 0.75092 0.0
H927 H 0.96207 0.78195 0.7247 0.0
C928 C 0.90197 0.83301 0.78383 0.0
C929 C 0.88152 0.83785 0.77814 0.0
C930 C 0.9161 0.82677 0.76839 0.0
C931 C 0.91 0.82489 0.74689 0.0
C932 C 0.88958 0.83008 0.74119 0.0
C933 C 0.87553 0.83665 0.75667 0.0
C934 C 0.93941 0.81769 0.69495 0.0
C935 C 0.95283 0.80211 0.69995 0.0
C936 C 0.92563 0.82521 0.71017 0.0
C937 C 0.92477 0.81713 0.73064 0.0
C938 C 0.93813 0.80141 0.73551 0.0
C939 C 0.95209 0.79412 0.72041 0.0
H940 H 0.0648 0.87673 0.51521 0.0
H941 H 0.00265 0.90002 0.51357 0.0
H942 H 0.05375 0.85502 0.54495 0.0
H943 H 0.99205 0.87933 0.54407 0.0
H944 H 0.97131 0.8201 0.57978 0.0
H945 H 0.98314 0.84315 0.55147 0.0
H946 H 0.04471 0.85571 0.58192 0.0
H947 H 0.033 0.83195 0.61006 0.0
C948 C 0.04881 0.8773 0.52123 0.0
C949 C 0.03456 0.89001 0.51184 0.0
C950 C 0.04257 0.86507 0.5385 0.0
C951 C 0.02197 0.86533 0.54688 0.0
C952 C 0.00793 0.87847 0.53782 0.0
C953 C 0.01411 0.89058 0.52049 0.0
C954 C 0.98737 0.8278 0.58051 0.0
C955 C 0.00123 0.82419 0.59717 0.0
C956 C 0.99411 0.84117 0.56432 0.0
C957 C 0.01485 0.85141 0.56444 0.0
C958 C 0.02871 0.8479 0.5812 0.0
C959 C 0.02198 0.83437 0.59738 0.0
H960 H 0.17101 0.75163 0.70095 0.0
H961 H 0.16306 0.80257 0.74652 0.0
H962 H 0.13503 0.75457 0.68701 0.0
H963 H 0.127 0.80514 0.73295 0.0
H964 H 0.05603 0.77251 0.72198 0.0
H965 H 0.09327 0.77423 0.73325 0.0
H966 H 0.11335 0.78648 0.66923 0.0
H967 H 0.07592 0.78542 0.65795 0.0
C968 C 0.1616 0.76352 0.70783 0.0
C969 C 0.16972 0.77691 0.72474 0.0
C970 C 0.14116 0.76527 0.69982 0.0
C971 C 0.1284 0.78011 0.70893 0.0
C972 C 0.13662 0.79363 0.72567 0.0
C973 C 0.15719 0.79219 0.73336 0.0
C974 C 0.06838 0.77582 0.71035 0.0
C975 C 0.06314 0.77886 0.68911 0.0
C976 C 0.08963 0.77685 0.71682 0.0
C977 C 0.10604 0.78045 0.70207 0.0
C978 C 0.10089 0.78365 0.68084 0.0
C979 C 0.07956 0.78315 0.67445 0.0
H980 H 0.93886 0.61508 0.58372 0.0
H981 H 0.00385 0.62701 0.56292 0.0
H982 H 0.942 0.64909 0.60372 0.0
H983 H 0.00709 0.66081 0.58316 0.0
H984 H 0.00951 0.70625 0.64266 0.0
H985 H 0.00517 0.6717 0.62403 0.0
H986 H 0.94894 0.68926 0.59265 0.0
H987 H 0.95339 0.72403 0.61098 0.0
C988 C 0.95381 0.62496 0.58356 0.0
C989 C 0.97112 0.61855 0.57184 0.0
C990 C 0.95557 0.64437 0.59487 0.0
C991 C 0.97479 0.65743 0.59497 0.0
C992 C 0.99216 0.65091 0.58341 0.0
C993 C 0.99027 0.6317 0.57178 0.0
C994 C 0.99613 0.7027 0.63191 0.0
C995 C 0.98181 0.71786 0.62823 0.0
C996 C 0.99374 0.683 0.6212 0.0
C997 C 0.97678 0.67794 0.60692 0.0
C998 C 0.96209 0.69281 0.60367 0.0
C999 C 0.9647 0.71268 0.61408 0.0
H1000 H 0.77116 0.86536 0.22186 0.0
H1001 H 0.72013 0.906 0.21935 0.0
H1002 H 0.79639 0.89611 0.23039 0.0
H1003 H 0.74541 0.93679 0.22762 0.0
H1004 H 0.79356 0.98004 0.26989 0.0
H1005 H 0.76778 0.95046 0.25916 0.0
H1006 H 0.81227 0.92893 0.21321 0.0
H1007 H 0.83809 0.9584 0.22389 0.0
C1008 C 0.76538 0.88088 0.22308 0.0
C1009 C 0.74371 0.88331 0.21994 0.0
C1010 C 0.77982 0.89848 0.22778 0.0
C1011 C 0.77284 0.91883 0.22965 0.0
C1012 C 0.75119 0.92127 0.22641 0.0
C1013 C 0.73678 0.90369 0.2215 0.0
C1014 C 0.7978 0.96908 0.25741 0.0
C1015 C 0.81791 0.97155 0.24781 0.0
C1016 C 0.783 0.95221 0.2512 0.0
C1017 C 0.78808 0.93736 0.23542 0.0
C1018 C 0.80803 0.94001 0.22558 0.0
C1019 C 0.82275 0.95697 0.23163 0.0
H1020 H 0.75941 0.15992 0.26915 0.0
H1021 H 0.82105 0.19211 0.2849 0.0
H1022 H 0.77436 0.12579 0.27067 0.0
H1023 H 0.83603 0.15799 0.28626 0.0
H1024 H 0.85669 0.09227 0.2622 0.0
H1025 H 0.84235 0.12666 0.25999 0.0
H1026 H 0.79041 0.10539 0.30065 0.0
H1027 H 0.80478 0.07121 0.30312 0.0
C1028 C 0.77617 0.15967 0.27279 0.0
C1029 C 0.78907 0.17861 0.27697 0.0
C1030 C 0.78468 0.14018 0.27379 0.0
C1031 C 0.80634 0.13929 0.27861 0.0
C1032 C 0.81932 0.15825 0.2824 0.0
C1033 C 0.81073 0.17772 0.28177 0.0
C1034 C 0.84225 0.09498 0.27071 0.0
C1035 C 0.83188 0.07905 0.28286 0.0
C1036 C 0.8341 0.11465 0.26949 0.0
C1037 C 0.81524 0.11861 0.28008 0.0
C1038 C 0.80487 0.10268 0.29217 0.0
C1039 C 0.81319 0.08317 0.29369 0.0
H1040 H 0.40219 0.96768 0.01182 0.0
H1041 H 0.37129 0.02324 0.03062 0.0
H1042 H 0.36767 0.94711 0.00905 0.0
H1043 H 0.33664 0.00259 0.02775 0.0
H1044 H 0.27743 0.96066 0.00131 0.0
H1045 H 0.31141 0.98269 0.00181 0.0
H1046 H 0.34067 0.93441 0.03477 0.0
H1047 H 0.30709 0.9124 0.0341 0.0
C1048 C 0.38802 0.97548 0.01543 0.0
C1049 C 0.38948 0.99702 0.02168 0.0
C1050 C 0.36825 0.96371 0.01382 0.0
C1051 C 0.34948 0.9732 0.0184 0.0
C1052 C 0.35083 0.9949 0.02398 0.0
C1053 C 0.37066 0.0067 0.02563 0.0
C1054 C 0.29113 0.95478 0.00866 0.0
C1055 C 0.28955 0.93473 0.01758 0.0
C1056 C 0.31054 0.96742 0.00902 0.0
C1057 C 0.32872 0.96019 0.01818 0.0
C1058 C 0.32704 0.94026 0.02726 0.0
C1059 C 0.30771 0.92771 0.02699 0.0
H1060 H 0.23391 0.40031 0.36137 0.0
H1061 H 0.25645 0.41095 0.29776 0.0
H1062 H 0.20366 0.42035 0.35461 0.0
H1063 H 0.22615 0.43118 0.291 0.0
H1064 H 0.16095 0.45745 0.28324 0.0
H1065 H 0.18646 0.43108 0.28794 0.0
H1066 H 0.20218 0.4583 0.35039 0.0
H1067 H 0.17686 0.48423 0.34584 0.0
C1068 C 0.23231 0.40684 0.34589 0.0
C1069 C 0.24773 0.40437 0.33021 0.0
C1070 C 0.21499 0.4183 0.34201 0.0
C1071 C 0.21269 0.42761 0.32238 0.0
C1072 C 0.22742 0.42409 0.30624 0.0
C1073 C 0.24478 0.41255 0.31013 0.0
C1074 C 0.16973 0.4576 0.29802 0.0
C1075 C 0.16693 0.47294 0.31415 0.0
C1076 C 0.18438 0.4426 0.30067 0.0
C1077 C 0.19625 0.44255 0.31958 0.0
C1078 C 0.19306 0.45766 0.33578 0.0
C1079 C 0.17863 0.47266 0.33309 0.0
H1080 H 0.11832 0.01476 0.49119 0.0
H1081 H 0.14366 0.00983 0.42786 0.0
H1082 H 0.14513 0.04404 0.49985 0.0
H1083 H 0.17044 0.03908 0.43652 0.0
H1084 H 0.22865 0.0771 0.46693 0.0
H1085 H 0.20212 0.04756 0.4586 0.0
H1086 H 0.15421 0.08086 0.49079 0.0
H1087 H 0.18079 0.11027 0.49948 0.0
C1088 C 0.12954 0.02001 0.47909 0.0
C1089 C 0.12888 0.00996 0.45884 0.0
C1090 C 0.14488 0.03679 0.48404 0.0
C1091 C 0.15989 0.0439 0.46886 0.0
C1092 C 0.1593 0.03378 0.44866 0.0
C1093 C 0.14396 0.017 0.44371 0.0
C1094 C 0.21246 0.07815 0.47223 0.0
C1095 C 0.20686 0.09607 0.48389 0.0
C1096 C 0.19723 0.06125 0.46736 0.0
C1097 C 0.17607 0.06187 0.47404 0.0
C1098 C 0.17045 0.07979 0.48566 0.0
C1099 C 0.18567 0.0967 0.49052 0.0
H1100 H 0.7262 0.13704 0.69752 0.0
H1101 H 0.74531 0.16538 0.75878 0.0
H1102 H 0.69785 0.11493 0.71431 0.0
H1103 H 0.71724 0.14287 0.77554 0.0
H1104 H 0.68441 0.07829 0.79668 0.0
H1105 H 0.71044 0.10382 0.78096 0.0
H1106 H 0.66377 0.11767 0.73456 0.0
H1107 H 0.63765 0.09208 0.75021 0.0
C1108 C 0.7242 0.13878 0.71451 0.0
C1109 C 0.73812 0.15293 0.7268 0.0
C1110 C 0.70797 0.12608 0.72412 0.0
C1111 C 0.70541 0.12715 0.74623 0.0
C1112 C 0.71904 0.14153 0.75849 0.0
C1113 C 0.73516 0.15435 0.74888 0.0
C1114 C 0.67962 0.08689 0.78323 0.0
C1115 C 0.65897 0.08308 0.77465 0.0
C1116 C 0.69451 0.10159 0.77431 0.0
C1117 C 0.68913 0.11266 0.75651 0.0
C1118 C 0.66839 0.10919 0.74816 0.0
C1119 C 0.65341 0.09463 0.75721 0.0
H1120 H 0.40812 0.07268 0.56524 0.0
H1121 H 0.38551 0.02328 0.51955 0.0
H1122 H 0.37866 0.09294 0.55573 0.0
H1123 H 0.35573 0.04306 0.51073 0.0
H1124 H 0.32422 0.0953 0.47959 0.0
H1125 H 0.35245 0.07519 0.49175 0.0
H1126 H 0.33951 0.09371 0.55664 0.0
H1127 H 0.31123 0.1143 0.54436 0.0
C1128 C 0.39677 0.06606 0.55332 0.0
C1129 C 0.39927 0.04642 0.54305 0.0
C1130 C 0.37978 0.07757 0.54803 0.0
C1131 C 0.36499 0.06971 0.53232 0.0
C1132 C 0.36706 0.04972 0.52265 0.0
C1133 C 0.38399 0.03824 0.52792 0.0
C1134 C 0.32737 0.09518 0.49646 0.0
C1135 C 0.31541 0.10635 0.51102 0.0
C1136 C 0.34348 0.08349 0.50345 0.0
C1137 C 0.34805 0.08262 0.52518 0.0
C1138 C 0.3364 0.09413 0.53978 0.0
C1139 C 0.32019 0.10587 0.53276 0.0
H1140 H 0.64931 0.53378 0.58682 0.0
H1141 H 0.58637 0.50473 0.57109 0.0
H1142 H 0.66465 0.50186 0.57373 0.0
H1143 H 0.60177 0.47281 0.55772 0.0
H1144 H 0.64652 0.44214 0.50597 0.0
H1145 H 0.62639 0.46767 0.52517 0.0
H1146 H 0.66447 0.4617 0.58117 0.0
H1147 H 0.68446 0.43585 0.56208 0.0
C1148 C 0.63878 0.52046 0.58073 0.0
C1149 C 0.6167 0.52169 0.57985 0.0
C1150 C 0.64752 0.50216 0.57342 0.0
C1151 C 0.63436 0.48488 0.56478 0.0
C1152 C 0.61223 0.48593 0.56433 0.0
C1153 C 0.60345 0.50411 0.572 0.0
C1154 C 0.65023 0.44586 0.52254 0.0
C1155 C 0.66713 0.4371 0.5325 0.0
C1156 C 0.63867 0.46042 0.53353 0.0
C1157 C 0.64402 0.46675 0.55457 0.0
C1158 C 0.66014 0.45714 0.5649 0.0
C1159 C 0.67146 0.44227 0.55402 0.0
H1160 H 0.71277 0.32314 0.34883 0.0
H1161 H 0.75605 0.28464 0.37883 0.0
H1162 H 0.70656 0.34086 0.38285 0.0
H1163 H 0.74902 0.30134 0.41319 0.0
H1164 H 0.75372 0.35344 0.46474 0.0
H1165 H 0.75723 0.33284 0.43214 0.0
H1166 H 0.69144 0.33947 0.41648 0.0
H1167 H 0.68838 0.36126 0.44879 0.0
C1168 C 0.72065 0.31825 0.36286 0.0
C1169 C 0.735 0.3027 0.36128 0.0
C1170 C 0.71699 0.32827 0.38242 0.0
C1171 C 0.72734 0.32268 0.40091 0.0
C1172 C 0.74114 0.3065 0.3993 0.0
C1173 C 0.74511 0.29681 0.37966 0.0
C1174 C 0.73992 0.35036 0.45445 0.0
C1175 C 0.72078 0.35907 0.45932 0.0
C1176 C 0.74188 0.33837 0.43573 0.0
C1177 C 0.72464 0.33439 0.42151 0.0
C1178 C 0.70522 0.34252 0.42678 0.0
C1179 C 0.70338 0.35488 0.44539 0.0
H1180 H 0.52354 0.00897 0.94655 0.0
H1181 H 0.52716 0.07709 0.94471 0.0
H1182 H 0.54299 0.00763 0.91316 0.0
H1183 H 0.54674 0.07575 0.91131 0.0
H1184 H 0.56002 0.06006 0.84016 0.0
H1185 H 0.53977 0.06169 0.87307 0.0
H1186 H 0.5806 0.01962 0.90156 0.0
H1187 H 0.60089 0.01798 0.86883 0.0
C1188 C 0.5284 0.02363 0.93892 0.0
C1189 C 0.52388 0.04313 0.94817 0.0
C1190 C 0.53965 0.02288 0.91993 0.0
C1191 C 0.54637 0.04159 0.90971 0.0
C1192 C 0.54161 0.06109 0.91881 0.0
C1193 C 0.53059 0.06186 0.93796 0.0
C1194 C 0.56466 0.05115 0.85344 0.0
C1195 C 0.58206 0.03889 0.85189 0.0
C1196 C 0.55314 0.05218 0.87228 0.0
C1197 C 0.55862 0.04074 0.8898 0.0
C1198 C 0.57593 0.02843 0.88822 0.0
C1199 C 0.5876 0.0276 0.86951 0.0
H1200 H 0.26868 0.28298 0.38947 0.0
H1201 H 0.33335 0.28059 0.41124 0.0
H1202 H 0.25772 0.25107 0.40853 0.0
H1203 H 0.32227 0.24906 0.43081 0.0
H1204 H 0.29853 0.18149 0.44721 0.0
H1205 H 0.30913 0.2115 0.42527 0.0
H1206 H 0.25366 0.24151 0.44572 0.0
H1207 H 0.24288 0.21151 0.46739 0.0
C1208 C 0.28057 0.27557 0.39822 0.0
C1209 C 0.30187 0.28434 0.3989 0.0
C1210 C 0.27426 0.25741 0.4093 0.0
C1211 C 0.28912 0.24759 0.42123 0.0
C1212 C 0.31048 0.25615 0.42161 0.0
C1213 C 0.31678 0.27435 0.4106 0.0
C1214 C 0.28852 0.19443 0.44694 0.0
C1215 C 0.26987 0.1941 0.45911 0.0
C1216 C 0.29467 0.21167 0.43445 0.0
C1217 C 0.28225 0.22888 0.43379 0.0
C1218 C 0.26344 0.22838 0.44569 0.0
C1219 C 0.25734 0.21122 0.45822 0.0
H1220 H 0.47946 0.43428 0.85303 0.0
H1221 H 0.49057 0.49433 0.88752 0.0
H1222 H 0.45101 0.4479 0.83298 0.0
H1223 H 0.46193 0.50792 0.86749 0.0
H1224 H 0.39587 0.51743 0.83852 0.0
H1225 H 0.42263 0.50355 0.86099 0.0
H1226 H 0.44953 0.47432 0.80572 0.0
H1227 H 0.42291 0.48785 0.78342 0.0
C1228 C 0.47586 0.45041 0.8563 0.0
C1229 C 0.48744 0.46327 0.87173 0.0
C1230 C 0.45954 0.4582 0.84484 0.0
C1231 C 0.45435 0.47905 0.84852 0.0
C1232 C 0.46544 0.49174 0.86442 0.0
C1233 C 0.48184 0.48394 0.87589 0.0
C1234 C 0.4075 0.50804 0.8312 0.0
C1235 C 0.40718 0.50371 0.80917 0.0
C1236 C 0.42286 0.50017 0.84405 0.0
C1237 C 0.43808 0.48771 0.83514 0.0
C1238 C 0.4378 0.48355 0.81313 0.0
C1239 C 0.42259 0.49146 0.80032 0.0
H1240 H 0.67607 0.71422 0.15516 0.0
H1241 H 0.73291 0.75434 0.14066 0.0
H1242 H 0.68413 0.68944 0.12652 0.0
H1243 H 0.7411 0.72936 0.11226 0.0
H1244 H 0.75499 0.67368 0.06827 0.0
H1245 H 0.74983 0.69211 0.10244 0.0
H1246 H 0.68323 0.69393 0.08738 0.0
H1247 H 0.68833 0.6757 0.05349 0.0
C1248 C 0.69039 0.71765 0.14601 0.0
C1249 C 0.70367 0.73643 0.14999 0.0
C1250 C 0.69504 0.70342 0.12967 0.0
C1251 C 0.71313 0.70758 0.11704 0.0
C1252 C 0.72714 0.72565 0.12186 0.0
C1253 C 0.72243 0.73996 0.13815 0.0
C1254 C 0.73921 0.67775 0.07245 0.0
C1255 C 0.72209 0.67338 0.05818 0.0
C1256 C 0.73629 0.68836 0.09193 0.0
C1257 C 0.71614 0.69444 0.09756 0.0
C1258 C 0.6989 0.68924 0.08361 0.0
C1259 C 0.70186 0.67893 0.06412 0.0
H1260 H 0.98104 0.09918 0.13826 0.0
H1261 H 0.01875 0.05323 0.16492 0.0
H1262 H 0.95047 0.08558 0.15915 0.0
H1263 H 0.98851 0.04008 0.18612 0.0
H1264 H 0.92533 0.00545 0.20175 0.0
H1265 H 0.95372 0.02021 0.17926 0.0
H1266 H 0.93843 0.08332 0.19685 0.0
H1267 H 0.90964 0.06849 0.21936 0.0
C1268 C 0.98279 0.0862 0.14859 0.0
C1269 C 0.00229 0.07723 0.14992 0.0
C1270 C 0.96536 0.07856 0.16067 0.0
C1271 C 0.96705 0.06168 0.17416 0.0
C1272 C 0.98662 0.05291 0.17564 0.0
C1273 C 0.00403 0.0606 0.16368 0.0
C1274 C 0.92784 0.02248 0.20072 0.0
C1275 C 0.91532 0.03581 0.21248 0.0
C1276 C 0.94422 0.03093 0.18792 0.0
C1277 C 0.94851 0.05292 0.18653 0.0
C1278 C 0.93546 0.0663 0.19758 0.0
C1279 C 0.91901 0.05781 0.21049 0.0
H1280 H 0.31813 0.78962 0.14714 0.0
H1281 H 0.25347 0.76079 0.15 0.0
H1282 H 0.30682 0.8155 0.12296 0.0
H1283 H 0.24214 0.78676 0.12574 0.0
H1284 H 0.22873 0.84766 0.09113 0.0
H1285 H 0.23839 0.82533 0.11993 0.0
H1286 H 0.2949 0.81134 0.08577 0.0
H1287 H 0.2855 0.83346 0.05741 0.0
C1288 C 0.30148 0.78889 0.14269 0.0
C1289 C 0.28676 0.77299 0.15024 0.0
C1290 C 0.29499 0.80371 0.12887 0.0
C1291 C 0.27364 0.80296 0.12223 0.0
C1292 C 0.25867 0.7878 0.13067 0.0
C1293 C 0.26517 0.77293 0.14455 0.0
C1294 C 0.2432 0.8398 0.08986 0.0
C1295 C 0.25635 0.84234 0.072 0.0
C1296 C 0.2487 0.82701 0.10629 0.0
C1297 C 0.26752 0.81678 0.10521 0.0
C1298 C 0.28052 0.81933 0.0873 0.0
C1299 C 0.27501 0.8319 0.07093 0.0
H1300 H 0.03838 0.48479 0.1248 0.0
H1301 H 0.98249 0.5105 0.15057 0.0
H1302 H 0.05516 0.48828 0.15971 0.0
H1303 H 0.99888 0.51304 0.18569 0.0
H1304 H 0.04753 0.54456 0.23429 0.0
H1305 H 0.02748 0.53593 0.20178 0.0
H1306 H 0.05488 0.47618 0.19581 0.0
H1307 H 0.07548 0.4851 0.22835 0.0
C1308 C 0.0296 0.49101 0.13796 0.0
C1309 C 0.00922 0.49766 0.13483 0.0
C1310 C 0.03911 0.49272 0.15804 0.0
C1311 C 0.02843 0.50108 0.17547 0.0
C1312 C 0.00766 0.50683 0.17252 0.0
C1313 C 0.99817 0.50517 0.15243 0.0
C1314 C 0.04919 0.52948 0.22618 0.0
C1315 C 0.06322 0.51556 0.23383 0.0
C1316 C 0.03753 0.52446 0.20759 0.0
C1317 C 0.03954 0.50535 0.19619 0.0
C1318 C 0.05315 0.49113 0.20413 0.0
C1319 C 0.06487 0.49618 0.2228 0.0
H1320 H 0.35969 0.70257 0.29095 0.0
H1321 H 0.40276 0.7388 0.25019 0.0
H1322 H 0.38334 0.71206 0.32111 0.0
H1323 H 0.42708 0.74751 0.27999 0.0
H1324 H 0.45542 0.77794 0.34066 0.0
H1325 H 0.43131 0.76827 0.31111 0.0
H1326 H 0.41577 0.70671 0.33711 0.0
H1327 H 0.43913 0.71695 0.36733 0.0
C1328 C 0.37442 0.71236 0.28845 0.0
C1329 C 0.37943 0.72003 0.26833 0.0
C1330 C 0.38806 0.71771 0.30569 0.0
C1331 C 0.4072 0.73061 0.3031 0.0
C1332 C 0.4123 0.73796 0.28277 0.0
C1333 C 0.39846 0.73289 0.26563 0.0
C1334 C 0.44682 0.76234 0.34008 0.0
C1335 C 0.44917 0.7482 0.35632 0.0
C1336 C 0.43308 0.75671 0.32301 0.0
C1337 C 0.42162 0.73662 0.32152 0.0
C1338 C 0.42403 0.72244 0.33782 0.0
C1339 C 0.43752 0.72824 0.35512 0.0
H1340 H 0.99872 0.40661 0.01285 0.0
H1341 H 0.93248 0.40646 0.99526 0.0
H1342 H 0.00052 0.37315 0.99316 0.0
H1343 H 0.93446 0.37308 0.97506 0.0
H1344 H 0.94323 0.30296 0.95684 0.0
H1345 H 0.94006 0.33459 0.97952 0.0
H1346 H 0.9993 0.36308 0.95482 0.0
H1347 H 0.00258 0.33167 0.93235 0.0
C1348 C 0.98446 0.39929 0.00499 0.0
C1349 C 0.96545 0.40918 0.0056 0.0
C1350 C 0.98556 0.38024 0.99354 0.0
C1351 C 0.96768 0.37059 0.98246 0.0
C1352 C 0.94846 0.38011 0.98354 0.0
C1353 C 0.94739 0.39929 0.99494 0.0
C1354 C 0.9556 0.31596 0.95633 0.0
C1355 C 0.97316 0.31479 0.9428 0.0
C1356 C 0.95372 0.33408 0.96922 0.0
C1357 C 0.96948 0.35124 0.96899 0.0
C1358 C 0.98705 0.34999 0.95555 0.0
C1359 C 0.98885 0.33202 0.94258 0.0
H1360 H 0.61936 0.75822 0.27817 0.0
H1361 H 0.65466 0.81128 0.31105 0.0
H1362 H 0.59609 0.75342 0.30869 0.0
H1363 H 0.63103 0.80667 0.34142 0.0
H1364 H 0.56027 0.74615 0.37049 0.0
H1365 H 0.59206 0.74614 0.34816 0.0
H1366 H 0.59236 0.81367 0.34229 0.0
H1367 H 0.56075 0.81365 0.36425 0.0
C1368 C 0.62258 0.76847 0.29213 0.0
C1369 C 0.63865 0.78537 0.29202 0.0
C1370 C 0.60922 0.7657 0.30963 0.0
C1371 C 0.61161 0.77983 0.32731 0.0
C1372 C 0.62866 0.79573 0.32786 0.0
C1373 C 0.6421 0.79842 0.31043 0.0
C1374 C 0.56746 0.76102 0.36478 0.0
C1375 C 0.55799 0.77988 0.36892 0.0
C1376 C 0.58555 0.76099 0.35196 0.0
C1377 C 0.59465 0.7799 0.34349 0.0
C1378 C 0.58587 0.7989 0.34877 0.0
C1379 C 0.56766 0.79886 0.36122 0.0
H1380 H 0.01865 0.16538 0.04374 0.0
H1381 H 0.06218 0.14242 0.99754 0.0
H1382 H 0.0017 0.18396 0.01626 0.0
H1383 H 0.04475 0.16063 0.96979 0.0
H1384 H 0.02397 0.21907 0.93454 0.0
H1385 H 0.04091 0.19734 0.95953 0.0
H1386 H 0.97928 0.17631 0.98474 0.0
H1387 H 0.96238 0.19821 0.96005 0.0
C1388 C 0.02463 0.16433 0.0277 0.0
C1389 C 0.04184 0.15254 0.02284 0.0
C1390 C 0.01473 0.17476 0.01189 0.0
C1391 C 0.02181 0.17367 0.99082 0.0
C1392 C 0.03901 0.16185 0.9859 0.0
C1393 C 0.04887 0.15131 0.00175 0.0
C1394 C 0.01402 0.20961 0.94525 0.0
C1395 C 0.99184 0.21051 0.94544 0.0
C1396 C 0.02373 0.1971 0.95951 0.0
C1397 C 0.01145 0.18529 0.97426 0.0
C1398 C 0.9892 0.18554 0.97382 0.0
C1399 C 0.97951 0.198 0.95958 0.0
H1400 H 0.36689 0.34699 0.25574 0.0
H1401 H 0.41608 0.34389 0.30288 0.0
H1402 H 0.39162 0.3379 0.22796 0.0
H1403 H 0.44104 0.3354 0.27517 0.0
H1404 H 0.47168 0.29596 0.22394 0.0
H1405 H 0.44785 0.30696 0.25157 0.0
H1406 H 0.42257 0.35022 0.20891 0.0
H1407 H 0.4459 0.33863 0.181 0.0
C1408 C 0.38309 0.34465 0.26009 0.0
C1409 C 0.38954 0.34599 0.28145 0.0
C1410 C 0.39731 0.3395 0.24419 0.0
C1411 C 0.41834 0.33581 0.2493 0.0
C1412 C 0.42487 0.33769 0.27067 0.0
C1413 C 0.4106 0.34261 0.28656 0.0
C1414 C 0.46111 0.3079 0.22047 0.0
C1415 C 0.46065 0.31636 0.20024 0.0
C1416 C 0.44751 0.3143 0.23637 0.0
C1417 C 0.43324 0.32949 0.2325 0.0
C1418 C 0.43308 0.33824 0.21235 0.0
C1419 C 0.44656 0.33168 0.19638 0.0
H1420 H 0.51117 0.37052 0.98514 0.0
H1421 H 0.56126 0.40929 0.01872 0.0
H1422 H 0.50061 0.35362 0.01798 0.0
H1423 H 0.55025 0.39277 0.05181 0.0
H1424 H 0.53843 0.33885 0.10003 0.0
H1425 H 0.54982 0.35807 0.06853 0.0
H1426 H 0.48405 0.36261 0.05164 0.0
H1427 H 0.47269 0.34323 0.08278 0.0
C1428 C 0.51994 0.37541 -0.00046 0.0
C1429 C 0.53706 0.39121 -0.00068 0.0
C1430 C 0.51374 0.3659 0.01841 0.0
C1431 C 0.52453 0.37194 0.03752 0.0
C1432 C 0.54171 0.3877 0.03732 0.0
C1433 C 0.54787 0.39729 0.01842 0.0
C1434 C 0.52643 0.34415 0.08969 0.0
C1435 C 0.50467 0.33937 0.09382 0.0
C1436 C 0.53295 0.3552 0.07169 0.0
C1437 C 0.51782 0.36165 0.05748 0.0
C1438 C 0.49609 0.3575 0.06206 0.0
C1439 C 0.48959 0.3465 0.07999 0.0
H1440 H 0.66629 0.24017 0.21414 0.0
H1441 H 0.674 0.30676 0.23215 0.0
H1442 H 0.63109 0.24435 0.19977 0.0
H1443 H 0.63898 0.31094 0.2173 0.0
H1444 H 0.5813 0.31137 0.17099 0.0
H1445 H 0.61796 0.30834 0.18267 0.0
H1446 H 0.59665 0.25243 0.21642 0.0
H1447 H 0.5603 0.25538 0.2049 0.0
C1448 C 0.66053 0.2557 0.21502 0.0
C1449 C 0.67296 0.27308 0.22447 0.0
C1450 C 0.64039 0.2581 0.20672 0.0
C1451 C 0.63225 0.27795 0.20753 0.0
C1452 C 0.64492 0.29549 0.21627 0.0
C1453 C 0.66503 0.29307 0.22473 0.0
C1454 C 0.58448 0.29848 0.18093 0.0
C1455 C 0.5679 0.28363 0.18702 0.0
C1456 C 0.60543 0.29678 0.18764 0.0
C1457 C 0.61017 0.28005 0.20031 0.0
C1458 C 0.59355 0.26529 0.2064 0.0
C1459 C 0.57268 0.26711 0.19992 0.0
H1460 H 0.44187 0.12971 0.08497 0.0
H1461 H 0.50087 0.14577 0.05229 0.0
H1462 H 0.44461 0.16517 0.10221 0.0
H1463 H 0.50376 0.18096 0.06977 0.0
H1464 H 0.51367 0.2242 0.13154 0.0
H1465 H 0.50809 0.19033 0.11193 0.0
H1466 H 0.44728 0.20667 0.08957 0.0
H1467 H 0.453 0.24102 0.10888 0.0
C1468 C 0.45528 0.14091 0.08137 0.0
C1469 C 0.47117 0.13511 0.06736 0.0
C1470 C 0.45678 0.16112 0.09111 0.0
C1471 C 0.47442 0.17561 0.0873 0.0
C1472 C 0.49005 0.16996 0.07295 0.0
C1473 C 0.48835 0.14995 0.06291 0.0
C1474 C 0.49906 0.22059 0.12252 0.0
C1475 C 0.48376 0.23526 0.12173 0.0
C1476 C 0.49596 0.20128 0.11122 0.0
C1477 C 0.47733 0.19607 0.09924 0.0
C1478 C 0.46177 0.21044 0.09875 0.0
C1479 C 0.46507 0.23003 0.10972 0.0
H1480 H 0.26177 0.37585 0.72027 0.0
H1481 H 0.21085 0.41515 0.73384 0.0
H1482 H 0.28786 0.4061 0.72773 0.0
H1483 H 0.23695 0.44552 0.74088 0.0
H1484 H 0.29177 0.48585 0.77715 0.0
H1485 H 0.26463 0.45695 0.76814 0.0
H1486 H 0.30018 0.44058 0.71253 0.0
H1487 H 0.32741 0.46932 0.72154 0.0
C1488 C 0.25617 0.39096 0.72484 0.0
C1489 C 0.23428 0.39313 0.72649 0.0
C1490 C 0.27109 0.40831 0.7289 0.0
C1491 C 0.26444 0.42818 0.73484 0.0
C1492 C 0.24254 0.43037 0.73647 0.0
C1493 C 0.22762 0.41304 0.73225 0.0
C1494 C 0.29373 0.47619 0.76291 0.0
C1495 C 0.31182 0.47985 0.75012 0.0
C1496 C 0.27813 0.4597 0.75772 0.0
C1497 C 0.28035 0.44644 0.7397 0.0
C1498 C 0.29819 0.45037 0.72667 0.0
C1499 C 0.31371 0.46693 0.73178 0.0
H1500 H 0.28881 0.67717 0.74247 0.0
H1501 H 0.28746 0.68485 0.81069 0.0
H1502 H 0.30482 0.64393 0.74562 0.0
H1503 H 0.30387 0.65189 0.81392 0.0
H1504 H 0.35147 0.59541 0.75778 0.0
H1505 H 0.33689 0.62947 0.75547 0.0
H1506 H 0.29642 0.61464 0.80907 0.0
H1507 H 0.3115 0.58097 0.81178 0.0
C1508 C 0.2921 0.67182 0.75814 0.0
C1509 C 0.28678 0.68357 0.77632 0.0
C1510 C 0.30137 0.65281 0.75997 0.0
C1511 C 0.3057 0.64518 0.78004 0.0
C1512 C 0.30045 0.65705 0.79822 0.0
C1513 C 0.29105 0.67596 0.79638 0.0
C1514 C 0.33958 0.59952 0.76917 0.0
C1515 C 0.33265 0.58548 0.78497 0.0
C1516 C 0.33109 0.61898 0.76775 0.0
C1517 C 0.31536 0.62482 0.782 0.0
C1518 C 0.30869 0.61085 0.79799 0.0
C1519 C 0.31728 0.59147 0.79949 0.0
H1520 H 0.85905 0.52828 0.53387 0.0
H1521 H 0.87227 0.48874 0.47932 0.0
H1522 H 0.82175 0.51359 0.53271 0.0
H1523 H 0.83504 0.47409 0.47813 0.0
H1524 H 0.76381 0.45792 0.4759 0.0
H1525 H 0.79593 0.48268 0.47391 0.0
H1526 H 0.80796 0.47537 0.54051 0.0
H1527 H 0.77622 0.45057 0.54245 0.0
C1528 C 0.85383 0.51685 0.52133 0.0
C1529 C 0.86849 0.50945 0.5068 0.0
C1530 C 0.83257 0.50842 0.52072 0.0
C1531 C 0.82559 0.4927 0.50537 0.0
C1532 C 0.83997 0.48634 0.49 0.0
C1533 C 0.86127 0.49455 0.49079 0.0
C1534 C 0.77308 0.46201 0.49019 0.0
C1535 C 0.7677 0.4522 0.50928 0.0
C1536 C 0.79144 0.47608 0.48902 0.0
C1537 C 0.80438 0.48086 0.50704 0.0
C1538 C 0.79816 0.47212 0.52642 0.0
C1539 C 0.78009 0.45781 0.5275 0.0
H1540 H 0.73438 0.9071 0.86115 0.0
H1541 H 0.75441 0.9145 0.79624 0.0
H1542 H 0.70511 0.92863 0.85508 0.0
H1543 H 0.72502 0.93614 0.79016 0.0
H1544 H 0.66049 0.96484 0.78477 0.0
H1545 H 0.68509 0.93754 0.78908 0.0
H1546 H 0.70565 0.96681 0.84946 0.0
H1547 H 0.68129 0.99371 0.84529 0.0
C1548 C 0.73245 0.91326 0.84554 0.0
C1549 C 0.7469 0.90943 0.82928 0.0
C1550 C 0.71567 0.92554 0.84206 0.0
C1551 C 0.71295 0.93431 0.82223 0.0
C1552 C 0.72665 0.92949 0.80557 0.0
C1553 C 0.74349 0.91714 0.80907 0.0
C1554 C 0.67016 0.96526 0.79902 0.0
C1555 C 0.66898 0.98143 0.81467 0.0
C1556 C 0.68427 0.94972 0.80143 0.0
C1557 C 0.6972 0.94997 0.81966 0.0
C1558 C 0.69567 0.96596 0.83539 0.0
C1559 C 0.6818 0.98149 0.83291 0.0
H1560 H 0.60653 0.53031 0.93576 0.0
H1561 H 0.65707 0.48895 0.93725 0.0
H1562 H 0.63185 0.5604 0.94562 0.0
H1563 H 0.68218 0.51887 0.94816 0.0
H1564 H 0.72572 0.58013 0.94881 0.0
H1565 H 0.70051 0.55108 0.93581 0.0
H1566 H 0.65195 0.57397 0.9764 0.0
H1567 H 0.67692 0.6033 0.98896 0.0
C1568 C 0.62306 0.52765 0.93806 0.0
C1569 C 0.62975 0.5072 0.93574 0.0
C1570 C 0.63754 0.54486 0.94399 0.0
C1571 C 0.65903 0.54204 0.94781 0.0
C1572 C 0.66579 0.52165 0.94515 0.0
C1573 C 0.65133 0.50444 0.93916 0.0
C1574 C 0.70964 0.57901 0.9549 0.0
C1575 C 0.70335 0.59404 0.96994 0.0
C1576 C 0.69522 0.56229 0.94753 0.0
C1577 C 0.67421 0.56017 0.95508 0.0
C1578 C 0.6679 0.5753 0.97 0.0
C1579 C 0.68228 0.59206 0.97731 0.0
H1580 H 0.21413 0.66028 0.21858 0.0
H1581 H 0.26002 0.63091 0.25551 0.0
H1582 H 0.18535 0.6373 0.23379 0.0
H1583 H 0.23166 0.60706 0.26985 0.0
H1584 H 0.17628 0.57657 0.30504 0.0
H1585 H 0.20296 0.60345 0.29265 0.0
H1586 H 0.16994 0.60264 0.23238 0.0
H1587 H 0.1427 0.57678 0.24535 0.0
C1588 C 0.21798 0.64877 0.22989 0.0
C1589 C 0.23917 0.64732 0.23597 0.0
C1590 C 0.20157 0.6355 0.23852 0.0
C1591 C 0.20608 0.6202 0.25307 0.0
C1592 C 0.22741 0.6189 0.2591 0.0
C1593 C 0.24373 0.63245 0.25079 0.0
C1594 C 0.17468 0.58233 0.28922 0.0
C1595 C 0.15746 0.57457 0.27614 0.0
C1596 C 0.19005 0.59763 0.28202 0.0
C1597 C 0.18881 0.60517 0.26139 0.0
C1598 C 0.17133 0.59757 0.24847 0.0
C1599 C 0.15573 0.5826 0.25585 0.0
H1600 H 0.87717 0.51968 0.01756 0.0
H1601 H 0.90147 0.57099 0.06035 0.0
H1602 H 0.84719 0.53928 0.00861 0.0
H1603 H 0.87162 0.59086 0.05097 0.0
H1604 H 0.81751 0.59228 0.97541 0.0
H1605 H 0.8451 0.57167 0.98821 0.0
H1606 H 0.83156 0.59092 0.05272 0.0
H1607 H 0.80374 0.61182 0.03984 0.0
C1608 C 0.87593 0.535 0.02532 0.0
C1609 C 0.89175 0.54383 0.03958 0.0
C1610 C 0.85888 0.54632 0.02002 0.0
C1611 C 0.8572 0.5667 0.02892 0.0
C1612 C 0.87247 0.57517 0.04391 0.0
C1613 C 0.88964 0.56387 0.04913 0.0
C1614 C 0.82037 0.5922 0.99234 0.0
C1615 C 0.80841 0.60369 0.00662 0.0
C1616 C 0.83609 0.58022 -0.00032 0.0
C1617 C 0.84034 0.5795 0.02147 0.0
C1618 C 0.82863 0.59123 0.03582 0.0
C1619 C 0.81271 0.60314 0.02845 0.0
H1620 H 0.14084 0.04649 0.03989 0.0
H1621 H 0.10578 0.00641 0.0841 0.0
H1622 H 0.15921 0.01664 0.02703 0.0
H1623 H 0.12364 0.97618 0.07057 0.0
H1624 H 0.18095 0.93575 0.05776 0.0
H1625 H 0.15889 0.96311 0.07065 0.0
H1626 H 0.15275 0.98387 0.00667 0.0
H1627 H 0.17511 0.95699 0.99394 0.0
C1628 C 0.13703 0.03128 0.04687 0.0
C1629 C 0.12191 0.02888 0.0631 0.0
C1630 C 0.14736 0.01407 0.03928 0.0
C1631 C 0.14281 0.99396 0.04767 0.0
C1632 C 0.12761 0.99149 0.06386 0.0
C1633 C 0.11723 0.00875 0.07146 0.0
C1634 C 0.17463 0.94598 0.04644 0.0
C1635 C 0.17996 0.94436 0.02487 0.0
C1636 C 0.16194 0.96162 0.05381 0.0
C1637 C 0.15431 0.97588 0.03973 0.0
C1638 C 0.15878 0.97348 0.01801 0.0
C1639 C 0.17149 0.95796 0.01069 0.0
loop_
_geom_bond_atom_site_label_1
_geom_bond_atom_site_label_2
_geom_bond_distance
_geom_bond_site_symmetry_2
_ccdc_geom_bond_type
P0 O11 1.490 . S
P0 C14 1.812 . S
P0 C20 1.803 . S
P0 C26 1.819 . S
H1 C15 0.941 . S
H2 C16 0.939 . S
H3 C18 0.940 . S
H4 C19 0.940 . S
H5 C21 0.939 . S
H6 C22 0.942 . S
H7 C24 0.940 . S
H8 C25 0.939 . S
H9 C27 0.941 . S
H10 C31 0.939 . S
O11 P0 1.490 . S
H12 C28 0.939 . S
H13 C30 0.940 . S
C14 P0 1.812 . S
C14 C15 1.389 . S
C14 C19 1.391 . S
C15 H1 0.941 . S
C15 C14 1.389 . S
C15 C16 1.397 . S
C16 H2 0.939 . S
C16 C15 1.397 . S
C16 C17 1.378 . S
C17 C16 1.378 . S
C17 C18 1.378 . S
C18 H3 0.940 . S
C18 C17 1.378 . S
C18 C19 1.396 . S
C19 H4 0.940 . S
C19 C14 1.391 . S
C19 C18 1.396 . S
C20 P0 1.803 . S
C20 C21 1.378 . S
C20 C25 1.400 . S
C21 H5 0.939 . S
C21 C20 1.378 . S
C21 C22 1.361 . S
C22 H6 0.942 . S
C22 C21 1.361 . S
C22 C23 1.369 . S
C23 C22 1.369 . S
C23 C24 1.404 . S
C24 H7 0.940 . S
C24 C23 1.404 . S
C24 C25 1.389 . S
C25 H8 0.939 . S
C25 C20 1.400 . S
C25 C24 1.389 . S
C26 P0 1.819 . S
C26 C27 1.391 . S
C26 C31 1.391 . S
C27 H9 0.941 . S
C27 C26 1.391 . S
C27 C28 1.396 . S
C28 H12 0.939 . S
C28 C27 1.396 . S
C28 C29 1.397 . S
C29 C28 1.397 . S
C29 C30 1.385 . S
C30 H13 0.940 . S
C30 C29 1.385 . S
C30 C31 1.388 . S
C31 H10 0.939 . S
C31 C26 1.391 . S
C31 C30 1.388 . S
P32 O43 1.490 . S
P32 C46 1.812 . S
P32 C52 1.803 . S
P32 C58 1.819 . S
H33 C47 0.941 . S
H34 C48 0.939 . S
H35 C50 0.940 . S
H36 C51 0.940 . S
H37 C53 0.939 . S
H38 C54 0.942 . S
H39 C56 0.940 . S
H40 C57 0.939 . S
H41 C59 0.941 . S
H42 C63 0.939 . S
O43 P32 1.490 . S
H44 C60 0.939 . S
H45 C62 0.940 . S
C46 P32 1.812 . S
C46 C47 1.389 . S
C46 C51 1.391 . S
C47 H33 0.941 . S
C47 C46 1.389 . S
C47 C48 1.397 . S
C48 H34 0.939 . S
C48 C47 1.397 . S
C48 C49 1.378 . S
C49 C48 1.378 . S
C49 C50 1.378 . S
C50 H35 0.940 . S
C50 C49 1.378 . S
C50 C51 1.396 . S
C51 H36 0.940 . S
C51 C46 1.391 . S
C51 C50 1.396 . S
C52 P32 1.803 . S
C52 C53 1.378 . S
C52 C57 1.400 . S
C53 H37 0.939 . S
C53 C52 1.378 . S
C53 C54 1.361 . S
C54 H38 0.942 . S
C54 C53 1.361 . S
C54 C55 1.369 . S
C55 C54 1.369 . S
C55 C56 1.404 . S
C56 H39 0.940 . S
C56 C55 1.404 . S
C56 C57 1.389 . S
C57 H40 0.939 . S
C57 C52 1.400 . S
C57 C56 1.389 . S
C58 P32 1.819 . S
C58 C59 1.391 . S
C58 C63 1.391 . S
C59 H41 0.941 . S
C59 C58 1.391 . S
C59 C60 1.396 . S
C60 H44 0.939 . S
C60 C59 1.396 . S
C60 C61 1.397 . S
C61 C60 1.397 . S
C61 C62 1.385 . S
C62 H45 0.940 . S
C62 C61 1.385 . S
C62 C63 1.388 . S
C63 H42 0.939 . S
C63 C58 1.391 . S
C63 C62 1.388 . S
P64 O75 1.490 . S
P64 C78 1.812 . S
P64 C84 1.803 . S
P64 C90 1.819 . S
H65 C79 0.941 . S
H66 C80 0.939 . S
H67 C82 0.940 . S
H68 C83 0.940 . S
H69 C85 0.939 . S
H70 C86 0.942 . S
H71 C88 0.940 . S
H72 C89 0.939 . S
H73 C91 0.941 . S
H74 C95 0.939 . S
O75 P64 1.490 . S
H76 C92 0.939 . S
H77 C94 0.940 . S
C78 P64 1.812 . S
C78 C79 1.389 . S
C78 C83 1.391 . S
C79 H65 0.941 . S
C79 C78 1.389 . S
C79 C80 1.397 . S
C80 H66 0.939 . S
C80 C79 1.397 . S
C80 C81 1.378 . S
C81 C80 1.378 . S
C81 C82 1.378 . S
C82 H67 0.940 . S
C82 C81 1.378 . S
C82 C83 1.396 . S
C83 H68 0.940 . S
C83 C78 1.391 . S
C83 C82 1.396 . S
C84 P64 1.803 . S
C84 C85 1.378 . S
C84 C89 1.400 . S
C85 H69 0.939 . S
C85 C84 1.378 . S
C85 C86 1.361 . S
C86 H70 0.942 . S
C86 C85 1.361 . S
C86 C87 1.369 . S
C87 C86 1.369 . S
C87 C88 1.404 . S
C88 H71 0.940 . S
C88 C87 1.404 . S
C88 C89 1.389 . S
C89 H72 0.939 . S
C89 C84 1.400 . S
C89 C88 1.389 . S
C90 P64 1.819 . S
C90 C91 1.391 . S
C90 C95 1.391 . S
C91 H73 0.941 . S
C91 C90 1.391 . S
C91 C92 1.396 . S
C92 H76 0.939 . S
C92 C91 1.396 . S
C92 C93 1.397 . S
C93 C92 1.397 . S
C93 C94 1.385 . S
C94 H77 0.940 . S
C94 C93 1.385 . S
C94 C95 1.388 . S
C95 H74 0.939 . S
C95 C90 1.391 . S
C95 C94 1.388 . S
P96 O107 1.490 . S
P96 C110 1.812 . S
P96 C116 1.803 . S
P96 C122 1.819 . S
H97 C111 0.941 . S
H98 C112 0.939 . S
H99 C114 0.940 . S
H100 C115 0.940 . S
H101 C117 0.939 . S
H102 C118 0.942 . S
H103 C120 0.940 . S
H104 C121 0.939 . S
H105 C123 0.941 . S
H106 C127 0.939 . S
O107 P96 1.490 . S
H108 C124 0.939 . S
H109 C126 0.940 . S
C110 P96 1.812 . S
C110 C111 1.389 . S
C110 C115 1.391 . S
C111 H97 0.941 . S
C111 C110 1.389 . S
C111 C112 1.397 . S
C112 H98 0.939 . S
C112 C111 1.397 . S
C112 C113 1.378 . S
C113 C112 1.378 . S
C113 C114 1.378 . S
C114 H99 0.940 . S
C114 C113 1.378 . S
C114 C115 1.396 . S
C115 H100 0.940 . S
C115 C110 1.391 . S
C115 C114 1.396 . S
C116 P96 1.803 . S
C116 C117 1.378 . S
C116 C121 1.400 . S
C117 H101 0.939 . S
C117 C116 1.378 . S
C117 C118 1.361 . S
C118 H102 0.942 . S
C118 C117 1.361 . S
C118 C119 1.369 . S
C119 C118 1.369 . S
C119 C120 1.404 . S
C120 H103 0.940 . S
C120 C119 1.404 . S
C120 C121 1.389 . S
C121 H104 0.939 . S
C121 C116 1.400 . S
C121 C120 1.389 . S
C122 P96 1.819 . S
C122 C123 1.391 . S
C122 C127 1.391 . S
C123 H105 0.941 . S
C123 C122 1.391 . S
C123 C124 1.396 . S
C124 H108 0.939 . S
C124 C123 1.396 . S
C124 C125 1.397 . S
C125 C124 1.397 . S
C125 C126 1.385 . S
C126 H109 0.940 . S
C126 C125 1.385 . S
C126 C127 1.388 . S
C127 H106 0.939 . S
C127 C122 1.391 . S
C127 C126 1.388 . S
P128 O139 1.490 . S
P128 C142 1.812 . S
P128 C148 1.803 . S
P128 C154 1.819 . S
H129 C143 0.941 . S
H130 C144 0.939 . S
H131 C146 0.940 1_545 S
H132 C147 0.940 . S
H133 C149 0.939 . S
H134 C150 0.942 . S
H135 C152 0.940 . S
H136 C153 0.939 . S
H137 C155 0.941 . S
H138 C159 0.939 . S
O139 P128 1.490 . S
H140 C156 0.939 . S
H141 C158 0.940 . S
C142 P128 1.812 . S
C142 C143 1.389 . S
C142 C147 1.391 . S
C143 H129 0.941 . S
C143 C142 1.389 . S
C143 C144 1.397 . S
C144 H130 0.939 . S
C144 C143 1.397 . S
C144 C145 1.378 . S
C145 C144 1.378 . S
C145 C146 1.378 . S
C146 H131 0.940 1_565 S
C146 C145 1.378 . S
C146 C147 1.396 . S
C147 H132 0.940 . S
C147 C142 1.391 . S
C147 C146 1.396 . S
C148 P128 1.803 . S
C148 C149 1.378 . S
C148 C153 1.400 . S
C149 H133 0.939 . S
C149 C148 1.378 . S
C149 C150 1.361 . S
C150 H134 0.942 . S
C150 C149 1.361 . S
C150 C151 1.369 . S
C151 C150 1.369 . S
C151 C152 1.404 . S
C152 H135 0.940 . S
C152 C151 1.404 . S
C152 C153 1.389 . S
C153 H136 0.939 . S
C153 C148 1.400 . S
C153 C152 1.389 . S
C154 P128 1.819 . S
C154 C155 1.391 . S
C154 C159 1.391 . S
C155 H137 0.941 . S
C155 C154 1.391 . S
C155 C156 1.396 . S
C156 H140 0.939 . S
C156 C155 1.396 . S
C156 C157 1.397 . S
C157 C156 1.397 . S
C157 C158 1.385 . S
C158 H141 0.940 . S
C158 C157 1.385 . S
C158 C159 1.388 . S
C159 H138 0.939 . S
C159 C154 1.391 . S
C159 C158 1.388 . S
P160 O171 1.490 . S
P160 C174 1.812 . S
P160 C180 1.803 . S
P160 C186 1.819 . S
H161 C175 0.941 . S
H162 C176 0.939 . S
H163 C178 0.940 . S
H164 C179 0.940 . S
H165 C181 0.939 . S
H166 C182 0.942 . S
H167 C184 0.940 . S
H168 C185 0.939 . S
H169 C187 0.941 . S
H170 C191 0.939 . S
O171 P160 1.490 . S
H172 C188 0.939 . S
H173 C190 0.940 . S
C174 P160 1.812 . S
C174 C175 1.389 . S
C174 C179 1.391 . S
C175 H161 0.941 . S
C175 C174 1.389 . S
C175 C176 1.397 . S
C176 H162 0.939 . S
C176 C175 1.397 . S
C176 C177 1.378 . S
C177 C176 1.378 . S
C177 C178 1.378 . S
C178 H163 0.940 . S
C178 C177 1.378 . S
C178 C179 1.396 . S
C179 H164 0.940 . S
C179 C174 1.391 . S
C179 C178 1.396 . S
C180 P160 1.803 . S
C180 C181 1.378 . S
C180 C185 1.400 . S
C181 H165 0.939 . S
C181 C180 1.378 . S
C181 C182 1.361 . S
C182 H166 0.942 . S
C182 C181 1.361 . S
C182 C183 1.369 . S
C183 C182 1.369 . S
C183 C184 1.404 . S
C184 H167 0.940 . S
C184 C183 1.404 . S
C184 C185 1.389 . S
C185 H168 0.939 . S
C185 C180 1.400 . S
C185 C184 1.389 . S
C186 P160 1.819 . S
C186 C187 1.391 . S
C186 C191 1.391 . S
C187 H169 0.941 . S
C187 C186 1.391 . S
C187 C188 1.396 . S
C188 H172 0.939 . S
C188 C187 1.396 . S
C188 C189 1.397 . S
C189 C188 1.397 . S
C189 C190 1.385 . S
C190 H173 0.940 . S
C190 C189 1.385 . S
C190 C191 1.388 . S
C191 H170 0.939 . S
C191 C186 1.391 . S
C191 C190 1.388 . S
P192 O203 1.490 . S
P192 C206 1.812 . S
P192 C212 1.803 . S
P192 C218 1.819 . S
H193 C207 0.941 . S
H194 C208 0.939 . S
H195 C210 0.940 . S
H196 C211 0.940 . S
H197 C213 0.939 . S
H198 C214 0.942 . S
H199 C216 0.940 . S
H200 C217 0.939 . S
H201 C219 0.941 . S
H202 C223 0.939 . S
O203 P192 1.490 . S
H204 C220 0.939 . S
H205 C222 0.940 . S
C206 P192 1.812 . S
C206 C207 1.389 . S
C206 C211 1.391 . S
C207 H193 0.941 . S
C207 C206 1.389 . S
C207 C208 1.397 . S
C208 H194 0.939 . S
C208 C207 1.397 . S
C208 C209 1.378 . S
C209 C208 1.378 . S
C209 C210 1.378 . S
C210 H195 0.940 . S
C210 C209 1.378 . S
C210 C211 1.396 . S
C211 H196 0.940 . S
C211 C206 1.391 . S
C211 C210 1.396 . S
C212 P192 1.803 . S
C212 C213 1.378 . S
C212 C217 1.400 . S
C213 H197 0.939 . S
C213 C212 1.378 . S
C213 C214 1.361 . S
C214 H198 0.942 . S
C214 C213 1.361 . S
C214 C215 1.369 . S
C215 C214 1.369 . S
C215 C216 1.404 . S
C216 H199 0.940 . S
C216 C215 1.404 . S
C216 C217 1.389 . S
C217 H200 0.939 . S
C217 C212 1.400 . S
C217 C216 1.389 . S
C218 P192 1.819 . S
C218 C219 1.391 . S
C218 C223 1.391 . S
C219 H201 0.941 . S
C219 C218 1.391 . S
C219 C220 1.396 . S
C220 H204 0.939 . S
C220 C219 1.396 . S
C220 C221 1.397 . S
C221 C220 1.397 . S
C221 C222 1.385 . S
C222 H205 0.940 . S
C222 C221 1.385 . S
C222 C223 1.388 . S
C223 H202 0.939 . S
C223 C218 1.391 . S
C223 C222 1.388 . S
P224 O235 1.490 . S
P224 C238 1.812 . S
P224 C244 1.803 . S
P224 C250 1.819 . S
H225 C239 0.941 . S
H226 C240 0.939 . S
H227 C242 0.940 . S
H228 C243 0.940 . S
H229 C245 0.939 . S
H230 C246 0.942 . S
H231 C248 0.940 . S
H232 C249 0.939 . S
H233 C251 0.941 . S
H234 C255 0.939 . S
O235 P224 1.490 . S
H236 C252 0.939 . S
H237 C254 0.940 . S
C238 P224 1.812 . S
C238 C239 1.389 . S
C238 C243 1.391 . S
C239 H225 0.941 . S
C239 C238 1.389 . S
C239 C240 1.397 . S
C240 H226 0.939 . S
C240 C239 1.397 . S
C240 C241 1.378 . S
C241 C240 1.378 . S
C241 C242 1.378 . S
C242 H227 0.940 . S
C242 C241 1.378 . S
C242 C243 1.396 . S
C243 H228 0.940 . S
C243 C238 1.391 . S
C243 C242 1.396 . S
C244 P224 1.803 . S
C244 C245 1.378 . S
C244 C249 1.400 . S
C245 H229 0.939 . S
C245 C244 1.378 . S
C245 C246 1.361 . S
C246 H230 0.942 . S
C246 C245 1.361 . S
C246 C247 1.369 . S
C247 C246 1.369 . S
C247 C248 1.404 . S
C248 H231 0.940 . S
C248 C247 1.404 . S
C248 C249 1.389 . S
C249 H232 0.939 . S
C249 C244 1.400 . S
C249 C248 1.389 . S
C250 P224 1.819 . S
C250 C251 1.391 . S
C250 C255 1.391 . S
C251 H233 0.941 . S
C251 C250 1.391 . S
C251 C252 1.396 . S
C252 H236 0.939 . S
C252 C251 1.396 . S
C252 C253 1.397 . S
C253 C252 1.397 . S
C253 C254 1.385 . S
C254 H237 0.940 . S
C254 C253 1.385 . S
C254 C255 1.388 . S
C255 H234 0.939 . S
C255 C250 1.391 . S
C255 C254 1.388 . S
P256 O267 1.490 . S
P256 C270 1.812 . S
P256 C276 1.803 . S
P256 C282 1.819 . S
H257 C271 0.941 . S
H258 C272 0.939 . S
H259 C274 0.940 . S
H260 C275 0.940 . S
H261 C277 0.939 . S
H262 C278 0.942 . S
H263 C280 0.940 . S
H264 C281 0.939 . S
H265 C283 0.941 . S
H266 C287 0.939 . S
O267 P256 1.490 . S
H268 C284 0.939 . S
H269 C286 0.940 . S
C270 P256 1.812 . S
C270 C271 1.389 . S
C270 C275 1.391 . S
C271 H257 0.941 . S
C271 C270 1.389 . S
C271 C272 1.397 . S
C272 H258 0.939 . S
C272 C271 1.397 . S
C272 C273 1.378 . S
C273 C272 1.378 . S
C273 C274 1.378 . S
C274 H259 0.940 . S
C274 C273 1.378 . S
C274 C275 1.396 . S
C275 H260 0.940 . S
C275 C270 1.391 . S
C275 C274 1.396 . S
C276 P256 1.803 . S
C276 C277 1.378 . S
C276 C281 1.400 . S
C277 H261 0.939 . S
C277 C276 1.378 . S
C277 C278 1.361 . S
C278 H262 0.942 . S
C278 C277 1.361 . S
C278 C279 1.369 . S
C279 C278 1.369 . S
C279 C280 1.404 . S
C280 H263 0.940 . S
C280 C279 1.404 . S
C280 C281 1.389 . S
C281 H264 0.939 . S
C281 C276 1.400 . S
C281 C280 1.389 . S
C282 P256 1.819 . S
C282 C283 1.391 . S
C282 C287 1.391 . S
C283 H265 0.941 . S
C283 C282 1.391 . S
C283 C284 1.396 . S
C284 H268 0.939 . S
C284 C283 1.396 . S
C284 C285 1.397 . S
C285 C284 1.397 . S
C285 C286 1.385 . S
C286 H269 0.940 . S
C286 C285 1.385 . S
C286 C287 1.388 . S
C287 H266 0.939 . S
C287 C282 1.391 . S
C287 C286 1.388 . S
P288 O299 1.490 . S
P288 C302 1.812 . S
P288 C308 1.803 . S
P288 C314 1.819 . S
H289 C303 0.941 . S
H290 C304 0.939 . S
H291 C306 0.940 . S
H292 C307 0.940 . S
H293 C309 0.939 . S
H294 C310 0.942 . S
H295 C312 0.940 . S
H296 C313 0.939 . S
H297 C315 0.941 . S
H298 C319 0.939 . S
O299 P288 1.490 . S
H300 C316 0.939 . S
H301 C318 0.940 . S
C302 P288 1.812 . S
C302 C303 1.389 . S
C302 C307 1.391 . S
C303 H289 0.941 . S
C303 C302 1.389 . S
C303 C304 1.397 . S
C304 H290 0.939 . S
C304 C303 1.397 . S
C304 C305 1.378 . S
C305 C304 1.378 . S
C305 C306 1.378 . S
C306 H291 0.940 . S
C306 C305 1.378 . S
C306 C307 1.396 . S
C307 H292 0.940 . S
C307 C302 1.391 . S
C307 C306 1.396 . S
C308 P288 1.803 . S
C308 C309 1.378 . S
C308 C313 1.400 . S
C309 H293 0.939 . S
C309 C308 1.378 . S
C309 C310 1.361 . S
C310 H294 0.942 . S
C310 C309 1.361 . S
C310 C311 1.369 . S
C311 C310 1.369 . S
C311 C312 1.404 . S
C312 H295 0.940 . S
C312 C311 1.404 . S
C312 C313 1.389 . S
C313 H296 0.939 . S
C313 C308 1.400 . S
C313 C312 1.389 . S
C314 P288 1.819 . S
C314 C315 1.391 . S
C314 C319 1.391 . S
C315 H297 0.941 . S
C315 C314 1.391 . S
C315 C316 1.396 . S
C316 H300 0.939 . S
C316 C315 1.396 . S
C316 C317 1.397 . S
C317 C316 1.397 . S
C317 C318 1.385 . S
C318 H301 0.940 . S
C318 C317 1.385 . S
C318 C319 1.388 . S
C319 H298 0.939 . S
C319 C314 1.391 . S
C319 C318 1.388 . S
P320 O331 1.490 . S
P320 C334 1.812 . S
P320 C340 1.803 . S
P320 C346 1.819 . S
H321 C335 0.941 . S
H322 C336 0.939 . S
H323 C338 0.940 . S
H324 C339 0.940 . S
H325 C341 0.939 . S
H326 C342 0.942 . S
H327 C344 0.940 . S
H328 C345 0.939 . S
H329 C347 0.941 . S
H330 C351 0.939 . S
O331 P320 1.490 . S
H332 C348 0.939 . S
H333 C350 0.940 . S
C334 P320 1.812 . S
C334 C335 1.389 . S
C334 C339 1.391 . S
C335 H321 0.941 . S
C335 C334 1.389 . S
C335 C336 1.397 . S
C336 H322 0.939 . S
C336 C335 1.397 . S
C336 C337 1.378 . S
C337 C336 1.378 . S
C337 C338 1.378 . S
C338 H323 0.940 . S
C338 C337 1.378 . S
C338 C339 1.396 . S
C339 H324 0.940 . S
C339 C334 1.391 . S
C339 C338 1.396 . S
C340 P320 1.803 . S
C340 C341 1.378 . S
C340 C345 1.400 . S
C341 H325 0.939 . S
C341 C340 1.378 . S
C341 C342 1.361 . S
C342 H326 0.942 . S
C342 C341 1.361 . S
C342 C343 1.369 . S
C343 C342 1.369 . S
C343 C344 1.404 . S
C344 H327 0.940 . S
C344 C343 1.404 . S
C344 C345 1.389 . S
C345 H328 0.939 . S
C345 C340 1.400 . S
C345 C344 1.389 . S
C346 P320 1.819 . S
C346 C347 1.391 . S
C346 C351 1.391 . S
C347 H329 0.941 . S
C347 C346 1.391 . S
C347 C348 1.396 . S
C348 H332 0.939 . S
C348 C347 1.396 . S
C348 C349 1.397 . S
C349 C348 1.397 . S
C349 C350 1.385 . S
C350 H333 0.940 . S
C350 C349 1.385 . S
C350 C351 1.388 . S
C351 H330 0.939 . S
C351 C346 1.391 . S
C351 C350 1.388 . S
P352 O363 1.490 . S
P352 C366 1.812 . S
P352 C372 1.803 . S
P352 C378 1.819 . S
H353 C367 0.941 . S
H354 C368 0.939 . S
H355 C370 0.940 . S
H356 C371 0.940 . S
H357 C373 0.939 . S
H358 C374 0.942 . S
H359 C376 0.940 . S
H360 C377 0.939 . S
H361 C379 0.941 . S
H362 C383 0.939 . S
O363 P352 1.490 . S
H364 C380 0.939 . S
H365 C382 0.940 . S
C366 P352 1.812 . S
C366 C367 1.389 . S
C366 C371 1.391 . S
C367 H353 0.941 . S
C367 C366 1.389 . S
C367 C368 1.397 . S
C368 H354 0.939 . S
C368 C367 1.397 . S
C368 C369 1.378 . S
C369 C368 1.378 . S
C369 C370 1.378 . S
C370 H355 0.940 . S
C370 C369 1.378 . S
C370 C371 1.396 . S
C371 H356 0.940 . S
C371 C366 1.391 . S
C371 C370 1.396 . S
C372 P352 1.803 . S
C372 C373 1.378 . S
C372 C377 1.400 . S
C373 H357 0.939 . S
C373 C372 1.378 . S
C373 C374 1.361 . S
C374 H358 0.942 . S
C374 C373 1.361 . S
C374 C375 1.369 . S
C375 C374 1.369 . S
C375 C376 1.404 . S
C376 H359 0.940 . S
C376 C375 1.404 . S
C376 C377 1.389 . S
C377 H360 0.939 . S
C377 C372 1.400 . S
C377 C376 1.389 . S
C378 P352 1.819 . S
C378 C379 1.391 . S
C378 C383 1.391 . S
C379 H361 0.941 . S
C379 C378 1.391 . S
C379 C380 1.396 . S
C380 H364 0.939 . S
C380 C379 1.396 . S
C380 C381 1.397 . S
C381 C380 1.397 . S
C381 C382 1.385 . S
C382 H365 0.940 . S
C382 C381 1.385 . S
C382 C383 1.388 . S
C383 H362 0.939 . S
C383 C378 1.391 . S
C383 C382 1.388 . S
P384 O395 1.490 . S
P384 C398 1.812 . S
P384 C404 1.803 . S
P384 C410 1.819 . S
H385 C399 0.941 . S
H386 C400 0.939 . S
H387 C402 0.940 . S
H388 C403 0.940 . S
H389 C405 0.939 . S
H390 C406 0.942 . S
H391 C408 0.940 . S
H392 C409 0.939 . S
H393 C411 0.941 . S
H394 C415 0.939 . S
O395 P384 1.490 . S
H396 C412 0.939 . S
H397 C414 0.940 . S
C398 P384 1.812 . S
C398 C399 1.389 . S
C398 C403 1.391 . S
C399 H385 0.941 . S
C399 C398 1.389 . S
C399 C400 1.397 . S
C400 H386 0.939 . S
C400 C399 1.397 . S
C400 C401 1.378 . S
C401 C400 1.378 . S
C401 C402 1.378 . S
C402 H387 0.940 . S
C402 C401 1.378 . S
C402 C403 1.396 . S
C403 H388 0.940 . S
C403 C398 1.391 . S
C403 C402 1.396 . S
C404 P384 1.803 . S
C404 C405 1.378 . S
C404 C409 1.400 . S
C405 H389 0.939 . S
C405 C404 1.378 . S
C405 C406 1.361 . S
C406 H390 0.942 . S
C406 C405 1.361 . S
C406 C407 1.369 . S
C407 C406 1.369 . S
C407 C408 1.404 . S
C408 H391 0.940 . S
C408 C407 1.404 . S
C408 C409 1.389 . S
C409 H392 0.939 . S
C409 C404 1.400 . S
C409 C408 1.389 . S
C410 P384 1.819 . S
C410 C411 1.391 . S
C410 C415 1.391 . S
C411 H393 0.941 . S
C411 C410 1.391 . S
C411 C412 1.396 . S
C412 H396 0.939 . S
C412 C411 1.396 . S
C412 C413 1.397 . S
C413 C412 1.397 . S
C413 C414 1.385 . S
C414 H397 0.940 . S
C414 C413 1.385 . S
C414 C415 1.388 . S
C415 H394 0.939 . S
C415 C410 1.391 . S
C415 C414 1.388 . S
P416 O427 1.490 . S
P416 C430 1.812 . S
P416 C436 1.803 . S
P416 C442 1.819 . S
H417 C431 0.941 . S
H418 C432 0.939 . S
H419 C434 0.940 . S
H420 C435 0.940 . S
H421 C437 0.939 . S
H422 C438 0.942 . S
H423 C440 0.940 . S
H424 C441 0.939 . S
H425 C443 0.941 . S
H426 C447 0.939 . S
O427 P416 1.490 . S
H428 C444 0.939 . S
H429 C446 0.940 . S
C430 P416 1.812 . S
C430 C431 1.389 . S
C430 C435 1.391 . S
C431 H417 0.941 . S
C431 C430 1.389 . S
C431 C432 1.397 . S
C432 H418 0.939 . S
C432 C431 1.397 . S
C432 C433 1.378 . S
C433 C432 1.378 . S
C433 C434 1.378 . S
C434 H419 0.940 . S
C434 C433 1.378 . S
C434 C435 1.396 . S
C435 H420 0.940 . S
C435 C430 1.391 . S
C435 C434 1.396 . S
C436 P416 1.803 . S
C436 C437 1.378 . S
C436 C441 1.400 . S
C437 H421 0.939 . S
C437 C436 1.378 . S
C437 C438 1.361 . S
C438 H422 0.942 . S
C438 C437 1.361 . S
C438 C439 1.369 . S
C439 C438 1.369 . S
C439 C440 1.404 . S
C440 H423 0.940 . S
C440 C439 1.404 . S
C440 C441 1.389 . S
C441 H424 0.939 . S
C441 C436 1.400 . S
C441 C440 1.389 . S
C442 P416 1.819 . S
C442 C443 1.391 . S
C442 C447 1.391 . S
C443 H425 0.941 . S
C443 C442 1.391 . S
C443 C444 1.396 . S
C444 H428 0.939 . S
C444 C443 1.396 . S
C444 C445 1.397 . S
C445 C444 1.397 . S
C445 C446 1.385 . S
C446 H429 0.940 . S
C446 C445 1.385 . S
C446 C447 1.388 . S
C447 H426 0.939 . S
C447 C442 1.391 . S
C447 C446 1.388 . S
P448 O459 1.490 . S
P448 C462 1.812 . S
P448 C468 1.803 . S
P448 C474 1.819 . S
H449 C463 0.941 . S
H450 C464 0.939 . S
H451 C466 0.940 . S
H452 C467 0.940 . S
H453 C469 0.939 . S
H454 C470 0.942 . S
H455 C472 0.940 . S
H456 C473 0.939 . S
H457 C475 0.941 . S
H458 C479 0.939 . S
O459 P448 1.490 . S
H460 C476 0.939 . S
H461 C478 0.940 . S
C462 P448 1.812 . S
C462 C463 1.389 . S
C462 C467 1.391 . S
C463 H449 0.941 . S
C463 C462 1.389 . S
C463 C464 1.397 . S
C464 H450 0.939 . S
C464 C463 1.397 . S
C464 C465 1.378 . S
C465 C464 1.378 . S
C465 C466 1.378 . S
C466 H451 0.940 . S
C466 C465 1.378 . S
C466 C467 1.396 . S
C467 H452 0.940 . S
C467 C462 1.391 . S
C467 C466 1.396 . S
C468 P448 1.803 . S
C468 C469 1.378 . S
C468 C473 1.400 . S
C469 H453 0.939 . S
C469 C468 1.378 . S
C469 C470 1.361 . S
C470 H454 0.942 . S
C470 C469 1.361 . S
C470 C471 1.369 . S
C471 C470 1.369 . S
C471 C472 1.404 . S
C472 H455 0.940 . S
C472 C471 1.404 . S
C472 C473 1.389 . S
C473 H456 0.939 . S
C473 C468 1.400 . S
C473 C472 1.389 . S
C474 P448 1.819 . S
C474 C475 1.391 . S
C474 C479 1.391 . S
C475 H457 0.941 . S
C475 C474 1.391 . S
C475 C476 1.396 . S
C476 H460 0.939 . S
C476 C475 1.396 . S
C476 C477 1.397 . S
C477 C476 1.397 . S
C477 C478 1.385 . S
C478 H461 0.940 . S
C478 C477 1.385 . S
C478 C479 1.388 . S
C479 H458 0.939 . S
C479 C474 1.391 . S
C479 C478 1.388 . S
P480 O491 1.490 . S
P480 C494 1.812 . S
P480 C500 1.803 . S
P480 C506 1.819 . S
H481 C495 0.941 . S
H482 C496 0.939 . S
H483 C498 0.940 . S
H484 C499 0.940 . S
H485 C501 0.942 . S
H486 C502 0.942 1_554 S
H487 C504 0.940 . S
H488 C505 0.939 . S
H489 C507 0.941 . S
H490 C511 0.939 . S
O491 P480 1.490 . S
H492 C508 0.939 . S
H493 C510 0.940 . S
C494 P480 1.812 . S
C494 C495 1.389 . S
C494 C499 1.391 . S
C495 H481 0.941 . S
C495 C494 1.389 . S
C495 C496 1.397 . S
C496 H482 0.939 . S
C496 C495 1.397 . S
C496 C497 1.378 . S
C497 C496 1.378 . S
C497 C498 1.378 . S
C498 H483 0.940 . S
C498 C497 1.378 . S
C498 C499 1.396 . S
C499 H484 0.940 . S
C499 C494 1.391 . S
C499 C498 1.396 . S
C500 P480 1.803 . S
C500 C501 1.378 . S
C500 C505 1.400 . S
C501 H485 0.942 . S
C501 C500 1.378 . S
C501 C502 1.361 . S
C502 H486 0.942 1_556 S
C502 C501 1.361 . S
C502 C503 1.369 . S
C503 C502 1.369 . S
C503 C504 1.404 . S
C504 H487 0.940 . S
C504 C503 1.404 . S
C504 C505 1.389 . S
C505 H488 0.939 . S
C505 C500 1.400 . S
C505 C504 1.389 . S
C506 P480 1.819 . S
C506 C507 1.391 . S
C506 C511 1.391 . S
C507 H489 0.941 . S
C507 C506 1.391 . S
C507 C508 1.396 . S
C508 H492 0.939 . S
C508 C507 1.396 . S
C508 C509 1.397 . S
C509 C508 1.397 . S
C509 C510 1.385 . S
C510 H493 0.940 . S
C510 C509 1.385 . S
C510 C511 1.388 . S
C511 H490 0.939 . S
C511 C506 1.391 . S
C511 C510 1.388 . S
O512 Cd513 2.223 . S
O512 C520 1.315 . S
Cd513 O512 2.223 . S
Cd513 O516 2.297 . S
Cd513 O517 2.439 . S
Cd513 O523 2.240 . S
Cd514 O515 2.240 . S
Cd514 O522 2.223 . S
Cd514 O524 2.297 . S
Cd514 O525 2.439 . S
O515 Cd514 2.240 . S
O515 C520 1.279 . S
O516 Cd513 2.297 . S
O516 C518 1.247 . S
O517 Cd513 2.439 . S
O517 C518 1.208 . S
C518 O516 1.247 . S
C518 O517 1.208 . S
C519 O524 1.247 . S
C519 O525 1.208 . S
C520 O512 1.315 . S
C520 O515 1.279 . S
C521 O522 1.315 . S
C521 O523 1.279 . S
O522 Cd514 2.223 . S
O522 C521 1.315 . S
O523 Cd513 2.240 . S
O523 C521 1.279 . S
O524 Cd514 2.297 . S
O524 C519 1.247 . S
O525 Cd514 2.439 . S
O525 C519 1.208 . S
O526 Cd527 2.223 . S
O526 C534 1.315 . S
Cd527 O526 2.223 . S
Cd527 O530 2.297 . S
Cd527 O531 2.439 . S
Cd527 O537 2.240 . S
Cd528 O529 2.240 . S
Cd528 O536 2.223 . S
Cd528 O538 2.297 . S
Cd528 O539 2.439 . S
O529 Cd528 2.240 . S
O529 C534 1.279 . S
O530 Cd527 2.297 . S
O530 C532 1.247 . S
O531 Cd527 2.439 . S
O531 C532 1.208 . S
C532 O530 1.247 . S
C532 O531 1.208 . S
C533 O538 1.247 . S
C533 O539 1.208 . S
C534 O526 1.315 . S
C534 O529 1.279 . S
C535 O536 1.315 . S
C535 O537 1.279 . S
O536 Cd528 2.223 . S
O536 C535 1.315 . S
O537 Cd527 2.240 . S
O537 C535 1.279 . S
O538 Cd528 2.297 . S
O538 C533 1.247 . S
O539 Cd528 2.439 . S
O539 C533 1.208 . S
O540 Cd541 2.223 1_556 S
O540 C548 1.315 . S
Cd541 O540 2.223 1_554 S
Cd541 O544 2.297 . S
Cd541 O545 2.439 . S
Cd541 O551 2.240 . S
Cd542 O543 2.240 . S
Cd542 O550 2.223 . S
Cd542 O552 2.297 1_556 S
Cd542 O553 2.439 1_556 S
O543 Cd542 2.240 . S
O543 C548 1.279 . S
O544 Cd541 2.297 . S
O544 C546 1.247 . S
O545 Cd541 2.439 . S
O545 C546 1.208 . S
C546 O544 1.247 . S
C546 O545 1.208 . S
C547 O552 1.247 . S
C547 O553 1.208 . S
C548 O540 1.315 . S
C548 O543 1.279 . S
C549 O550 1.315 . S
C549 O551 1.279 1_556 S
O550 Cd542 2.223 . S
O550 C549 1.315 . S
O551 Cd541 2.240 . S
O551 C549 1.279 1_554 S
O552 Cd542 2.297 1_554 S
O552 C547 1.247 . S
O553 Cd542 2.439 1_554 S
O553 C547 1.208 . S
O554 Cd555 2.223 . S
O554 C562 1.315 . S
Cd555 O554 2.223 . S
Cd555 O558 2.297 . S
Cd555 O559 2.439 . S
Cd555 O565 2.240 . S
Cd556 O557 2.240 . S
Cd556 O564 2.223 . S
Cd556 O566 2.297 . S
Cd556 O567 2.439 . S
O557 Cd556 2.240 . S
O557 C562 1.279 . S
O558 Cd555 2.297 . S
O558 C560 1.247 . S
O559 Cd555 2.439 . S
O559 C560 1.208 . S
C560 O558 1.247 . S
C560 O559 1.208 . S
C561 O566 1.247 . S
C561 O567 1.208 . S
C562 O554 1.315 . S
C562 O557 1.279 . S
C563 O564 1.315 . S
C563 O565 1.279 . S
O564 Cd556 2.223 . S
O564 C563 1.315 . S
O565 Cd555 2.240 . S
O565 C563 1.279 . S
O566 Cd556 2.297 . S
O566 C561 1.247 . S
O567 Cd556 2.439 . S
O567 C561 1.208 . S
O568 Cd569 2.223 . S
O568 C576 1.315 . S
Cd569 O568 2.223 . S
Cd569 O572 2.297 . S
Cd569 O573 2.439 . S
Cd569 O579 2.240 . S
Cd570 O571 2.240 . S
Cd570 O578 2.223 . S
Cd570 O580 2.297 . S
Cd570 O581 2.439 . S
O571 Cd570 2.240 . S
O571 C576 1.279 . S
O572 Cd569 2.297 . S
O572 C574 1.247 . S
O573 Cd569 2.439 . S
O573 C574 1.208 . S
C574 O572 1.247 . S
C574 O573 1.208 . S
C575 O580 1.247 . S
C575 O581 1.208 . S
C576 O568 1.315 . S
C576 O571 1.279 . S
C577 O578 1.315 . S
C577 O579 1.279 . S
O578 Cd570 2.223 . S
O578 C577 1.315 . S
O579 Cd569 2.240 . S
O579 C577 1.279 . S
O580 Cd570 2.297 . S
O580 C575 1.247 . S
O581 Cd570 2.439 . S
O581 C575 1.208 . S
O582 Cd583 2.223 . S
O582 C590 1.315 . S
Cd583 O582 2.223 . S
Cd583 O586 2.297 . S
Cd583 O587 2.439 . S
Cd583 O593 2.240 . S
Cd584 O585 2.240 . S
Cd584 O592 2.223 . S
Cd584 O594 2.297 . S
Cd584 O595 2.439 . S
O585 Cd584 2.240 . S
O585 C590 1.279 . S
O586 Cd583 2.297 . S
O586 C588 1.247 . S
O587 Cd583 2.439 . S
O587 C588 1.208 . S
C588 O586 1.247 . S
C588 O587 1.208 . S
C589 O594 1.247 . S
C589 O595 1.208 . S
C590 O582 1.315 . S
C590 O585 1.279 . S
C591 O592 1.315 . S
C591 O593 1.279 . S
O592 Cd584 2.223 . S
O592 C591 1.315 . S
O593 Cd583 2.240 . S
O593 C591 1.279 . S
O594 Cd584 2.297 . S
O594 C589 1.247 . S
O595 Cd584 2.439 . S
O595 C589 1.208 . S
O596 Cd597 2.223 . S
O596 C604 1.315 . S
Cd597 O596 2.223 . S
Cd597 O600 2.297 . S
Cd597 O601 2.439 . S
Cd597 O607 2.240 . S
Cd598 O599 2.240 . S
Cd598 O606 2.223 . S
Cd598 O608 2.297 . S
Cd598 O609 2.439 . S
O599 Cd598 2.240 . S
O599 C604 1.279 . S
O600 Cd597 2.297 . S
O600 C602 1.247 . S
O601 Cd597 2.439 . S
O601 C602 1.208 . S
C602 O600 1.247 . S
C602 O601 1.208 . S
C603 O608 1.247 . S
C603 O609 1.208 . S
C604 O596 1.315 . S
C604 O599 1.279 . S
C605 O606 1.315 . S
C605 O607 1.279 . S
O606 Cd598 2.223 . S
O606 C605 1.315 . S
O607 Cd597 2.240 . S
O607 C605 1.279 . S
O608 Cd598 2.297 . S
O608 C603 1.247 . S
O609 Cd598 2.439 . S
O609 C603 1.208 . S
O610 Cd611 2.223 1_545 S
O610 C618 1.315 . S
Cd611 O610 2.223 1_565 S
Cd611 O614 2.297 . S
Cd611 O615 2.439 . S
Cd611 O621 2.240 1_565 S
Cd612 O613 2.240 . S
Cd612 O620 2.223 . S
Cd612 O622 2.297 . S
Cd612 O623 2.439 1_545 S
O613 Cd612 2.240 . S
O613 C618 1.279 . S
O614 Cd611 2.297 . S
O614 C616 1.247 . S
O615 Cd611 2.439 . S
O615 C616 1.208 . S
C616 O614 1.247 . S
C616 O615 1.208 . S
C617 O622 1.247 1_565 S
C617 O623 1.208 . S
C618 O610 1.315 . S
C618 O613 1.279 . S
C619 O620 1.315 . S
C619 O621 1.279 . S
O620 Cd612 2.223 . S
O620 C619 1.315 . S
O621 Cd611 2.240 1_545 S
O621 C619 1.279 . S
O622 Cd612 2.297 . S
O622 C617 1.247 1_545 S
O623 Cd612 2.439 1_565 S
O623 C617 1.208 . S
O624 Cd625 2.223 . S
O624 C632 1.315 . S
Cd625 O624 2.223 . S
Cd625 O628 2.297 1_655 S
Cd625 O629 2.439 1_655 S
Cd625 O635 2.240 . S
Cd626 O627 2.240 . S
Cd626 O634 2.223 1_455 S
Cd626 O636 2.297 . S
Cd626 O637 2.439 . S
O627 Cd626 2.240 . S
O627 C632 1.279 1_455 S
O628 Cd625 2.297 1_455 S
O628 C630 1.247 . S
O629 Cd625 2.439 1_455 S
O629 C630 1.208 . S
C630 O628 1.247 . S
C630 O629 1.208 . S
C631 O636 1.247 . S
C631 O637 1.208 . S
C632 O624 1.315 . S
C632 O627 1.279 1_655 S
C633 O634 1.315 . S
C633 O635 1.279 . S
O634 Cd626 2.223 1_655 S
O634 C633 1.315 . S
O635 Cd625 2.240 . S
O635 C633 1.279 . S
O636 Cd626 2.297 . S
O636 C631 1.247 . S
O637 Cd626 2.439 . S
O637 C631 1.208 . S
O638 Cd639 2.223 . S
O638 C646 1.315 . S
Cd639 O638 2.223 . S
Cd639 O642 2.297 . S
Cd639 O643 2.439 . S
Cd639 O649 2.240 . S
Cd640 O641 2.240 . S
Cd640 O648 2.223 . S
Cd640 O650 2.297 . S
Cd640 O651 2.439 . S
O641 Cd640 2.240 . S
O641 C646 1.279 . S
O642 Cd639 2.297 . S
O642 C644 1.247 . S
O643 Cd639 2.439 . S
O643 C644 1.208 . S
C644 O642 1.247 . S
C644 O643 1.208 . S
C645 O650 1.247 . S
C645 O651 1.208 . S
C646 O638 1.315 . S
C646 O641 1.279 . S
C647 O648 1.315 . S
C647 O649 1.279 . S
O648 Cd640 2.223 . S
O648 C647 1.315 . S
O649 Cd639 2.240 . S
O649 C647 1.279 . S
O650 Cd640 2.297 . S
O650 C645 1.247 . S
O651 Cd640 2.439 . S
O651 C645 1.208 . S
O652 Cd653 2.223 1_655 S
O652 C660 1.315 . S
Cd653 O652 2.223 1_455 S
Cd653 O656 2.297 . S
Cd653 O657 2.439 . S
Cd653 O663 2.240 . S
Cd654 O655 2.240 . S
Cd654 O662 2.223 . S
Cd654 O664 2.297 1_655 S
Cd654 O665 2.439 1_655 S
O655 Cd654 2.240 . S
O655 C660 1.279 . S
O656 Cd653 2.297 . S
O656 C658 1.247 . S
O657 Cd653 2.439 . S
O657 C658 1.208 . S
C658 O656 1.247 . S
C658 O657 1.208 . S
C659 O664 1.247 . S
C659 O665 1.208 . S
C660 O652 1.315 . S
C660 O655 1.279 . S
C661 O662 1.315 . S
C661 O663 1.279 1_655 S
O662 Cd654 2.223 . S
O662 C661 1.315 . S
O663 Cd653 2.240 . S
O663 C661 1.279 1_455 S
O664 Cd654 2.297 1_455 S
O664 C659 1.247 . S
O665 Cd654 2.439 1_455 S
O665 C659 1.208 . S
O666 Cd667 2.223 . S
O666 C674 1.315 . S
Cd667 O666 2.223 . S
Cd667 O670 2.297 . S
Cd667 O671 2.439 . S
Cd667 O677 2.240 . S
Cd668 O669 2.240 . S
Cd668 O676 2.223 . S
Cd668 O678 2.297 . S
Cd668 O679 2.439 . S
O669 Cd668 2.240 . S
O669 C674 1.279 . S
O670 Cd667 2.297 . S
O670 C672 1.247 . S
O671 Cd667 2.439 . S
O671 C672 1.208 . S
C672 O670 1.247 . S
C672 O671 1.208 . S
C673 O678 1.247 . S
C673 O679 1.208 . S
C674 O666 1.315 . S
C674 O669 1.279 . S
C675 O676 1.315 . S
C675 O677 1.279 . S
O676 Cd668 2.223 . S
O676 C675 1.315 . S
O677 Cd667 2.240 . S
O677 C675 1.279 . S
O678 Cd668 2.297 . S
O678 C673 1.247 . S
O679 Cd668 2.439 . S
O679 C673 1.208 . S
H680 C688 0.950 . S
H681 C693 0.950 . S
H682 C690 0.950 . S
H683 C692 0.950 . S
H684 C694 0.950 1_554 S
H685 C696 0.950 . S
H686 C698 0.950 . S
H687 C699 0.950 . S
C688 H680 0.950 . S
C688 C689 1.386 . S
C688 C690 1.391 . S
C689 C688 1.386 . S
C689 C693 1.393 . S
C690 H682 0.950 . S
C690 C688 1.391 . S
C690 C691 1.400 . S
C691 C690 1.400 . S
C691 C692 1.398 . S
C691 C697 1.491 . S
C692 H683 0.950 . S
C692 C691 1.398 . S
C692 C693 1.391 . S
C693 H681 0.950 . S
C693 C689 1.393 . S
C693 C692 1.391 . S
C694 H684 0.950 1_556 S
C694 C695 1.386 . S
C694 C696 1.391 . S
C695 C694 1.386 . S
C695 C699 1.393 . S
C696 H685 0.950 . S
C696 C694 1.391 . S
C696 C697 1.400 . S
C697 C691 1.491 . S
C697 C696 1.400 . S
C697 C698 1.398 . S
C698 H686 0.950 . S
C698 C697 1.398 . S
C698 C699 1.391 . S
C699 H687 0.950 . S
C699 C695 1.393 . S
C699 C698 1.391 . S
H700 C708 0.950 . S
H701 C713 0.950 . S
H702 C710 0.950 . S
H703 C712 0.950 . S
H704 C714 0.950 . S
H705 C716 0.950 . S
H706 C718 0.950 . S
H707 C719 0.950 . S
C708 H700 0.950 . S
C708 C709 1.386 . S
C708 C710 1.391 . S
C709 C708 1.386 . S
C709 C713 1.393 . S
C710 H702 0.950 . S
C710 C708 1.391 . S
C710 C711 1.400 1_655 S
C711 C710 1.400 1_455 S
C711 C712 1.398 . S
C711 C717 1.491 . S
C712 H703 0.950 . S
C712 C711 1.398 . S
C712 C713 1.391 1_455 S
C713 H701 0.950 . S
C713 C709 1.393 . S
C713 C712 1.391 1_655 S
C714 H704 0.950 . S
C714 C715 1.386 . S
C714 C716 1.391 . S
C715 C714 1.386 . S
C715 C719 1.393 . S
C716 H705 0.950 . S
C716 C714 1.391 . S
C716 C717 1.400 . S
C717 C711 1.491 . S
C717 C716 1.400 . S
C717 C718 1.398 . S
C718 H706 0.950 . S
C718 C717 1.398 . S
C718 C719 1.391 . S
C719 H707 0.950 . S
C719 C715 1.393 . S
C719 C718 1.391 . S
H720 C728 0.950 . S
H721 C733 0.950 . S
H722 C730 0.950 . S
H723 C732 0.950 . S
H724 C734 0.950 . S
H725 C736 0.950 . S
H726 C738 0.950 . S
H727 C739 0.950 . S
C728 H720 0.950 . S
C728 C729 1.386 . S
C728 C730 1.391 . S
C729 C728 1.386 . S
C729 C733 1.393 . S
C730 H722 0.950 . S
C730 C728 1.391 . S
C730 C731 1.400 . S
C731 C730 1.400 . S
C731 C732 1.398 . S
C731 C737 1.491 . S
C732 H723 0.950 . S
C732 C731 1.398 . S
C732 C733 1.391 . S
C733 H721 0.950 . S
C733 C729 1.393 . S
C733 C732 1.391 . S
C734 H724 0.950 . S
C734 C735 1.386 . S
C734 C736 1.391 . S
C735 C734 1.386 . S
C735 C739 1.393 . S
C736 H725 0.950 . S
C736 C734 1.391 . S
C736 C737 1.400 . S
C737 C731 1.491 . S
C737 C736 1.400 . S
C737 C738 1.398 . S
C738 H726 0.950 . S
C738 C737 1.398 . S
C738 C739 1.391 . S
C739 H727 0.950 . S
C739 C735 1.393 . S
C739 C738 1.391 . S
H740 C748 0.950 . S
H741 C753 0.950 . S
H742 C750 0.950 1_545 S
H743 C752 0.950 . S
H744 C754 0.950 . S
H745 C756 0.950 . S
H746 C758 0.950 . S
H747 C759 0.950 . S
C748 H740 0.950 . S
C748 C749 1.386 . S
C748 C750 1.391 1_455 S
C749 C748 1.386 . S
C749 C753 1.393 . S
C750 H742 0.950 1_565 S
C750 C748 1.391 1_655 S
C750 C751 1.400 . S
C751 C750 1.400 . S
C751 C752 1.398 . S
C751 C757 1.472 1_565 S
C752 H743 0.950 . S
C752 C751 1.398 . S
C752 C753 1.391 1_655 S
C753 H741 0.950 . S
C753 C749 1.393 . S
C753 C752 1.391 1_455 S
C754 H744 0.950 . S
C754 C755 1.386 . S
C754 C756 1.391 1_545 S
C755 C754 1.386 . S
C755 C759 1.393 . S
C756 H745 0.950 . S
C756 C754 1.391 1_565 S
C756 C757 1.396 1_565 S
C757 C751 1.472 1_545 S
C757 C756 1.396 1_545 S
C757 C758 1.423 . S
C758 H746 0.950 . S
C758 C757 1.423 . S
C758 C759 1.391 . S
C759 H747 0.950 . S
C759 C755 1.393 . S
C759 C758 1.391 . S
H760 C768 0.950 . S
H761 C773 0.950 . S
H762 C770 0.950 . S
H763 C772 0.950 . S
H764 C774 0.950 . S
H765 C776 0.950 . S
H766 C778 0.950 . S
H767 C779 0.950 . S
C768 H760 0.950 . S
C768 C769 1.386 . S
C768 C770 1.391 . S
C769 C768 1.386 . S
C769 C773 1.393 . S
C770 H762 0.950 . S
C770 C768 1.391 . S
C770 C771 1.400 . S
C771 C770 1.400 . S
C771 C772 1.398 . S
C771 C777 1.491 . S
C772 H763 0.950 . S
C772 C771 1.398 . S
C772 C773 1.391 . S
C773 H761 0.950 . S
C773 C769 1.393 . S
C773 C772 1.391 . S
C774 H764 0.950 . S
C774 C775 1.386 . S
C774 C776 1.391 . S
C775 C774 1.386 . S
C775 C779 1.393 . S
C776 H765 0.950 . S
C776 C774 1.391 . S
C776 C777 1.400 . S
C777 C771 1.491 . S
C777 C776 1.400 . S
C777 C778 1.398 . S
C778 H766 0.950 . S
C778 C777 1.398 . S
C778 C779 1.391 . S
C779 H767 0.950 . S
C779 C775 1.393 . S
C779 C778 1.391 . S
H780 C788 0.950 . S
H781 C793 0.950 . S
H782 C790 0.950 . S
H783 C792 0.950 . S
H784 C794 0.950 . S
H785 C796 0.950 . S
H786 C798 0.950 . S
H787 C799 0.950 . S
C788 H780 0.950 . S
C788 C789 1.386 . S
C788 C790 1.391 . S
C789 C788 1.386 . S
C789 C793 1.393 . S
C790 H782 0.950 . S
C790 C788 1.391 . S
C790 C791 1.400 . S
C791 C790 1.400 . S
C791 C792 1.398 . S
C791 C797 1.491 . S
C792 H783 0.950 . S
C792 C791 1.398 . S
C792 C793 1.391 . S
C793 H781 0.950 . S
C793 C789 1.393 . S
C793 C792 1.391 . S
C794 H784 0.950 . S
C794 C795 1.386 . S
C794 C796 1.391 . S
C795 C794 1.386 . S
C795 C799 1.393 . S
C796 H785 0.950 . S
C796 C794 1.391 . S
C796 C797 1.400 . S
C797 C791 1.491 . S
C797 C796 1.400 . S
C797 C798 1.398 . S
C798 H786 0.950 . S
C798 C797 1.398 . S
C798 C799 1.391 . S
C799 H787 0.950 . S
C799 C795 1.393 . S
C799 C798 1.391 . S
H800 C808 0.950 . S
H801 C813 0.950 . S
H802 C810 0.950 . S
H803 C812 0.950 . S
H804 C814 0.950 . S
H805 C816 0.950 . S
H806 C818 0.950 . S
H807 C819 0.950 . S
C808 H800 0.950 . S
C808 C809 1.386 . S
C808 C810 1.391 . S
C809 C808 1.386 . S
C809 C813 1.393 . S
C810 H802 0.950 . S
C810 C808 1.391 . S
C810 C811 1.400 . S
C811 C810 1.400 . S
C811 C812 1.398 . S
C811 C817 1.491 . S
C812 H803 0.950 . S
C812 C811 1.398 . S
C812 C813 1.391 . S
C813 H801 0.950 . S
C813 C809 1.393 . S
C813 C812 1.391 . S
C814 H804 0.950 . S
C814 C815 1.386 . S
C814 C816 1.391 . S
C815 C814 1.386 . S
C815 C819 1.393 . S
C816 H805 0.950 . S
C816 C814 1.391 . S
C816 C817 1.400 . S
C817 C811 1.491 . S
C817 C816 1.400 . S
C817 C818 1.398 . S
C818 H806 0.950 . S
C818 C817 1.398 . S
C818 C819 1.391 . S
C819 H807 0.950 . S
C819 C815 1.393 . S
C819 C818 1.391 . S
H820 C828 0.950 . S
H821 C833 0.950 . S
H822 C830 0.950 . S
H823 C832 0.950 . S
H824 C834 0.950 . S
H825 C836 0.950 . S
H826 C838 0.950 . S
H827 C839 0.950 1_545 S
C828 H820 0.950 . S
C828 C829 1.386 . S
C828 C830 1.391 . S
C829 C828 1.386 . S
C829 C833 1.393 . S
C830 H822 0.950 . S
C830 C828 1.391 . S
C830 C831 1.400 . S
C831 C830 1.400 . S
C831 C832 1.398 . S
C831 C837 1.491 . S
C832 H823 0.950 . S
C832 C831 1.398 . S
C832 C833 1.391 . S
C833 H821 0.950 . S
C833 C829 1.393 . S
C833 C832 1.391 . S
C834 H824 0.950 . S
C834 C835 1.386 . S
C834 C836 1.391 . S
C835 C834 1.386 . S
C835 C839 1.393 . S
C836 H825 0.950 . S
C836 C834 1.391 . S
C836 C837 1.400 . S
C837 C831 1.491 . S
C837 C836 1.400 . S
C837 C838 1.398 . S
C838 H826 0.950 . S
C838 C837 1.398 . S
C838 C839 1.391 . S
C839 H827 0.950 1_565 S
C839 C835 1.393 . S
C839 C838 1.391 . S
H840 C848 0.950 . S
H841 C853 0.950 . S
H842 C850 0.950 . S
H843 C852 0.950 . S
H844 C854 0.950 . S
H845 C856 0.950 . S
H846 C858 0.950 . S
H847 C859 0.950 . S
C848 H840 0.950 . S
C848 C849 1.386 . S
C848 C850 1.391 . S
C849 C848 1.386 . S
C849 C853 1.393 . S
C850 H842 0.950 . S
C850 C848 1.391 . S
C850 C851 1.400 . S
C851 C850 1.400 . S
C851 C852 1.398 . S
C851 C857 1.491 . S
C852 H843 0.950 . S
C852 C851 1.398 . S
C852 C853 1.391 . S
C853 H841 0.950 . S
C853 C849 1.393 . S
C853 C852 1.391 . S
C854 H844 0.950 . S
C854 C855 1.386 . S
C854 C856 1.391 . S
C855 C854 1.386 . S
C855 C859 1.393 . S
C856 H845 0.950 . S
C856 C854 1.391 . S
C856 C857 1.400 . S
C857 C851 1.491 . S
C857 C856 1.400 . S
C857 C858 1.398 . S
C858 H846 0.950 . S
C858 C857 1.398 . S
C858 C859 1.391 . S
C859 H847 0.950 . S
C859 C855 1.393 . S
C859 C858 1.391 . S
H860 C868 0.950 . S
H861 C873 0.950 . S
H862 C870 0.950 . S
H863 C872 0.950 . S
H864 C874 0.950 . S
H865 C876 0.950 . S
H866 C878 0.950 . S
H867 C879 0.950 . S
C868 H860 0.950 . S
C868 C869 1.386 . S
C868 C870 1.391 . S
C869 C868 1.386 . S
C869 C873 1.393 . S
C870 H862 0.950 . S
C870 C868 1.391 . S
C870 C871 1.400 . S
C871 C870 1.400 . S
C871 C872 1.398 . S
C871 C877 1.491 . S
C872 H863 0.950 . S
C872 C871 1.398 . S
C872 C873 1.391 . S
C873 H861 0.950 . S
C873 C869 1.393 . S
C873 C872 1.391 . S
C874 H864 0.950 . S
C874 C875 1.386 . S
C874 C876 1.391 . S
C875 C874 1.386 . S
C875 C879 1.393 . S
C876 H865 0.950 . S
C876 C874 1.391 . S
C876 C877 1.400 . S
C877 C871 1.491 . S
C877 C876 1.400 . S
C877 C878 1.398 . S
C878 H866 0.950 . S
C878 C877 1.398 . S
C878 C879 1.391 . S
C879 H867 0.950 . S
C879 C875 1.393 . S
C879 C878 1.391 . S
H880 C888 0.950 . S
H881 C893 0.950 . S
H882 C890 0.950 . S
H883 C892 0.950 . S
H884 C894 0.950 . S
H885 C896 0.950 . S
H886 C898 0.950 . S
H887 C899 0.950 . S
C888 H880 0.950 . S
C888 C889 1.386 . S
C888 C890 1.391 . S
C889 C888 1.386 . S
C889 C893 1.393 . S
C890 H882 0.950 . S
C890 C888 1.391 . S
C890 C891 1.400 . S
C891 C890 1.400 . S
C891 C892 1.398 . S
C891 C897 1.491 . S
C892 H883 0.950 . S
C892 C891 1.398 . S
C892 C893 1.391 . S
C893 H881 0.950 . S
C893 C889 1.393 . S
C893 C892 1.391 . S
C894 H884 0.950 . S
C894 C895 1.386 . S
C894 C896 1.391 . S
C895 C894 1.386 . S
C895 C899 1.393 . S
C896 H885 0.950 . S
C896 C894 1.391 . S
C896 C897 1.400 . S
C897 C891 1.491 . S
C897 C896 1.400 . S
C897 C898 1.398 . S
C898 H886 0.950 . S
C898 C897 1.398 . S
C898 C899 1.391 . S
C899 H887 0.950 . S
C899 C895 1.393 . S
C899 C898 1.391 . S
H900 C908 0.950 . S
H901 C913 0.950 . S
H902 C910 0.950 . S
H903 C912 0.950 . S
H904 C914 0.950 . S
H905 C916 0.950 . S
H906 C918 0.950 . S
H907 C919 0.950 . S
C908 H900 0.950 . S
C908 C909 1.386 . S
C908 C910 1.391 . S
C909 C908 1.386 . S
C909 C913 1.393 . S
C910 H902 0.950 . S
C910 C908 1.391 . S
C910 C911 1.400 . S
C911 C910 1.400 . S
C911 C912 1.398 . S
C911 C917 1.491 . S
C912 H903 0.950 . S
C912 C911 1.398 . S
C912 C913 1.391 . S
C913 H901 0.950 . S
C913 C909 1.393 . S
C913 C912 1.391 . S
C914 H904 0.950 . S
C914 C915 1.386 . S
C914 C916 1.391 . S
C915 C914 1.386 . S
C915 C919 1.393 . S
C916 H905 0.950 . S
C916 C914 1.391 . S
C916 C917 1.400 . S
C917 C911 1.491 . S
C917 C916 1.400 . S
C917 C918 1.398 . S
C918 H906 0.950 . S
C918 C917 1.398 . S
C918 C919 1.391 . S
C919 H907 0.950 . S
C919 C915 1.393 . S
C919 C918 1.391 . S
H920 C928 0.950 . S
H921 C933 0.950 . S
H922 C930 0.950 . S
H923 C932 0.950 . S
H924 C934 0.950 . S
H925 C936 0.950 . S
H926 C938 0.950 . S
H927 C939 0.950 . S
C928 H920 0.950 . S
C928 C929 1.386 . S
C928 C930 1.391 . S
C929 C928 1.386 . S
C929 C933 1.393 . S
C930 H922 0.950 . S
C930 C928 1.391 . S
C930 C931 1.400 . S
C931 C930 1.400 . S
C931 C932 1.398 . S
C931 C937 1.491 . S
C932 H923 0.950 . S
C932 C931 1.398 . S
C932 C933 1.391 . S
C933 H921 0.950 . S
C933 C929 1.393 . S
C933 C932 1.391 . S
C934 H924 0.950 . S
C934 C935 1.386 . S
C934 C936 1.391 . S
C935 C934 1.386 . S
C935 C939 1.393 . S
C936 H925 0.950 . S
C936 C934 1.391 . S
C936 C937 1.400 . S
C937 C931 1.491 . S
C937 C936 1.400 . S
C937 C938 1.398 . S
C938 H926 0.950 . S
C938 C937 1.398 . S
C938 C939 1.391 . S
C939 H927 0.950 . S
C939 C935 1.393 . S
C939 C938 1.391 . S
H940 C948 0.950 . S
H941 C953 0.950 . S
H942 C950 0.950 . S
H943 C952 0.950 . S
H944 C954 0.950 . S
H945 C956 0.950 . S
H946 C958 0.950 . S
H947 C959 0.950 . S
C948 H940 0.950 . S
C948 C949 1.386 . S
C948 C950 1.391 . S
C949 C948 1.386 . S
C949 C953 1.393 . S
C950 H942 0.950 . S
C950 C948 1.391 . S
C950 C951 1.400 . S
C951 C950 1.400 . S
C951 C952 1.398 . S
C951 C957 1.491 . S
C952 H943 0.950 . S
C952 C951 1.398 . S
C952 C953 1.391 . S
C953 H941 0.950 . S
C953 C949 1.393 . S
C953 C952 1.391 . S
C954 H944 0.950 . S
C954 C955 1.386 . S
C954 C956 1.391 . S
C955 C954 1.386 . S
C955 C959 1.393 . S
C956 H945 0.950 . S
C956 C954 1.391 . S
C956 C957 1.400 . S
C957 C951 1.491 . S
C957 C956 1.400 . S
C957 C958 1.398 . S
C958 H946 0.950 . S
C958 C957 1.398 . S
C958 C959 1.391 . S
C959 H947 0.950 . S
C959 C955 1.393 . S
C959 C958 1.391 . S
H960 C968 0.950 . S
H961 C973 0.950 . S
H962 C970 0.950 . S
H963 C972 0.950 . S
H964 C974 0.950 . S
H965 C976 0.950 . S
H966 C978 0.950 . S
H967 C979 0.950 . S
C968 H960 0.950 . S
C968 C969 1.386 . S
C968 C970 1.391 . S
C969 C968 1.386 . S
C969 C973 1.393 . S
C970 H962 0.950 . S
C970 C968 1.391 . S
C970 C971 1.400 . S
C971 C970 1.400 . S
C971 C972 1.398 . S
C971 C977 1.491 . S
C972 H963 0.950 . S
C972 C971 1.398 . S
C972 C973 1.391 . S
C973 H961 0.950 . S
C973 C969 1.393 . S
C973 C972 1.391 . S
C974 H964 0.950 . S
C974 C975 1.386 . S
C974 C976 1.391 . S
C975 C974 1.386 . S
C975 C979 1.393 . S
C976 H965 0.950 . S
C976 C974 1.391 . S
C976 C977 1.400 . S
C977 C971 1.491 . S
C977 C976 1.400 . S
C977 C978 1.398 . S
C978 H966 0.950 . S
C978 C977 1.398 . S
C978 C979 1.391 . S
C979 H967 0.950 . S
C979 C975 1.393 . S
C979 C978 1.391 . S
H980 C988 0.950 . S
H981 C993 0.950 . S
H982 C990 0.950 . S
H983 C992 0.950 . S
H984 C994 0.950 . S
H985 C996 0.950 . S
H986 C998 0.950 . S
H987 C999 0.950 . S
C988 H980 0.950 . S
C988 C989 1.386 . S
C988 C990 1.391 . S
C989 C988 1.386 . S
C989 C993 1.393 . S
C990 H982 0.950 . S
C990 C988 1.391 . S
C990 C991 1.400 . S
C991 C990 1.400 . S
C991 C992 1.398 . S
C991 C997 1.491 . S
C992 H983 0.950 . S
C992 C991 1.398 . S
C992 C993 1.391 . S
C993 H981 0.950 . S
C993 C989 1.393 . S
C993 C992 1.391 . S
C994 H984 0.950 . S
C994 C995 1.386 . S
C994 C996 1.391 . S
C995 C994 1.386 . S
C995 C999 1.393 . S
C996 H985 0.950 . S
C996 C994 1.391 . S
C996 C997 1.400 . S
C997 C991 1.491 . S
C997 C996 1.400 . S
C997 C998 1.398 . S
C998 H986 0.950 . S
C998 C997 1.398 . S
C998 C999 1.391 . S
C999 H987 0.950 . S
C999 C995 1.393 . S
C999 C998 1.391 . S
H1000 C1008 0.950 . S
H1001 C1013 0.950 . S
H1002 C1010 0.950 . S
H1003 C1012 0.950 . S
H1004 C1014 0.950 1_545 S
H1005 C1016 0.950 . S
H1006 C1018 0.950 . S
H1007 C1019 0.950 . S
C1008 H1000 0.950 . S
C1008 C1009 1.386 . S
C1008 C1010 1.391 . S
C1009 C1008 1.386 . S
C1009 C1013 1.393 . S
C1010 H1002 0.950 . S
C1010 C1008 1.391 . S
C1010 C1011 1.400 . S
C1011 C1010 1.400 . S
C1011 C1012 1.398 . S
C1011 C1017 1.491 . S
C1012 H1003 0.950 . S
C1012 C1011 1.398 . S
C1012 C1013 1.391 . S
C1013 H1001 0.950 . S
C1013 C1009 1.393 . S
C1013 C1012 1.391 . S
C1014 H1004 0.950 1_565 S
C1014 C1015 1.386 . S
C1014 C1016 1.391 . S
C1015 C1014 1.386 . S
C1015 C1019 1.393 . S
C1016 H1005 0.950 . S
C1016 C1014 1.391 . S
C1016 C1017 1.400 . S
C1017 C1011 1.491 . S
C1017 C1016 1.400 . S
C1017 C1018 1.398 . S
C1018 H1006 0.950 . S
C1018 C1017 1.398 . S
C1018 C1019 1.391 . S
C1019 H1007 0.950 . S
C1019 C1015 1.393 . S
C1019 C1018 1.391 . S
H1020 C1028 0.950 . S
H1021 C1033 0.950 . S
H1022 C1030 0.950 . S
H1023 C1032 0.950 . S
H1024 C1034 0.950 . S
H1025 C1036 0.950 . S
H1026 C1038 0.950 . S
H1027 C1039 0.950 . S
C1028 H1020 0.950 . S
C1028 C1029 1.386 . S
C1028 C1030 1.391 . S
C1029 C1028 1.386 . S
C1029 C1033 1.393 . S
C1030 H1022 0.950 . S
C1030 C1028 1.391 . S
C1030 C1031 1.400 . S
C1031 C1030 1.400 . S
C1031 C1032 1.398 . S
C1031 C1037 1.491 . S
C1032 H1023 0.950 . S
C1032 C1031 1.398 . S
C1032 C1033 1.391 . S
C1033 H1021 0.950 . S
C1033 C1029 1.393 . S
C1033 C1032 1.391 . S
C1034 H1024 0.950 . S
C1034 C1035 1.386 . S
C1034 C1036 1.391 . S
C1035 C1034 1.386 . S
C1035 C1039 1.393 . S
C1036 H1025 0.950 . S
C1036 C1034 1.391 . S
C1036 C1037 1.400 . S
C1037 C1031 1.491 . S
C1037 C1036 1.400 . S
C1037 C1038 1.398 . S
C1038 H1026 0.950 . S
C1038 C1037 1.398 . S
C1038 C1039 1.391 . S
C1039 H1027 0.950 . S
C1039 C1035 1.393 . S
C1039 C1038 1.391 . S
H1040 C1048 0.950 . S
H1041 C1053 0.950 . S
H1042 C1050 0.990 . S
H1043 C1052 0.950 . S
H1044 C1054 0.950 . S
H1045 C1056 0.950 1_545 S
H1046 C1058 0.950 . S
H1047 C1059 0.950 . S
C1048 H1040 0.950 . S
C1048 C1049 1.386 . S
C1048 C1050 1.363 1_545 S
C1049 C1048 1.386 . S
C1049 C1053 1.393 . S
C1050 H1042 0.990 . S
C1050 C1048 1.363 1_565 S
C1050 C1051 1.391 1_565 S
C1051 C1050 1.391 1_545 S
C1051 C1052 1.398 . S
C1051 C1057 1.491 1_545 S
C1052 H1043 0.950 . S
C1052 C1051 1.398 . S
C1052 C1053 1.391 . S
C1053 H1041 0.950 . S
C1053 C1049 1.393 . S
C1053 C1052 1.391 . S
C1054 H1044 0.950 . S
C1054 C1055 1.386 . S
C1054 C1056 1.391 . S
C1055 C1054 1.386 . S
C1055 C1059 1.393 . S
C1056 H1045 0.950 1_565 S
C1056 C1054 1.391 . S
C1056 C1057 1.400 1_554 S
C1057 C1051 1.491 1_565 S
C1057 C1056 1.400 1_556 S
C1057 C1058 1.398 . S
C1058 H1046 0.950 . S
C1058 C1057 1.398 . S
C1058 C1059 1.391 1_556 S
C1059 H1047 0.950 . S
C1059 C1055 1.393 . S
C1059 C1058 1.391 1_554 S
H1060 C1068 0.950 . S
H1061 C1073 0.950 . S
H1062 C1070 0.950 . S
H1063 C1072 0.950 . S
H1064 C1074 0.950 . S
H1065 C1076 0.950 . S
H1066 C1078 0.950 . S
H1067 C1079 0.950 . S
C1068 H1060 0.950 . S
C1068 C1069 1.386 . S
C1068 C1070 1.391 . S
C1069 C1068 1.386 . S
C1069 C1073 1.393 . S
C1070 H1062 0.950 . S
C1070 C1068 1.391 . S
C1070 C1071 1.400 . S
C1071 C1070 1.400 . S
C1071 C1072 1.398 . S
C1071 C1077 1.491 . S
C1072 H1063 0.950 . S
C1072 C1071 1.398 . S
C1072 C1073 1.391 . S
C1073 H1061 0.950 . S
C1073 C1069 1.393 . S
C1073 C1072 1.391 . S
C1074 H1064 0.950 . S
C1074 C1075 1.386 . S
C1074 C1076 1.391 . S
C1075 C1074 1.386 . S
C1075 C1079 1.393 . S
C1076 H1065 0.950 . S
C1076 C1074 1.391 . S
C1076 C1077 1.400 . S
C1077 C1071 1.491 . S
C1077 C1076 1.400 . S
C1077 C1078 1.398 . S
C1078 H1066 0.950 . S
C1078 C1077 1.398 . S
C1078 C1079 1.391 . S
C1079 H1067 0.950 . S
C1079 C1075 1.393 . S
C1079 C1078 1.391 . S
H1080 C1088 0.950 . S
H1081 C1093 0.950 1_565 S
H1082 C1090 0.950 . S
H1083 C1092 0.950 . S
H1084 C1094 0.950 . S
H1085 C1096 0.950 . S
H1086 C1098 0.950 . S
H1087 C1099 0.950 . S
C1088 H1080 0.950 . S
C1088 C1089 1.386 . S
C1088 C1090 1.391 . S
C1089 C1088 1.386 . S
C1089 C1093 1.393 . S
C1090 H1082 0.950 . S
C1090 C1088 1.391 . S
C1090 C1091 1.400 . S
C1091 C1090 1.400 . S
C1091 C1092 1.398 . S
C1091 C1097 1.491 . S
C1092 H1083 0.950 . S
C1092 C1091 1.398 . S
C1092 C1093 1.391 . S
C1093 H1081 0.950 1_545 S
C1093 C1089 1.393 . S
C1093 C1092 1.391 . S
C1094 H1084 0.950 . S
C1094 C1095 1.386 . S
C1094 C1096 1.391 . S
C1095 C1094 1.386 . S
C1095 C1099 1.393 . S
C1096 H1085 0.950 . S
C1096 C1094 1.391 . S
C1096 C1097 1.400 . S
C1097 C1091 1.491 . S
C1097 C1096 1.400 . S
C1097 C1098 1.398 . S
C1098 H1086 0.950 . S
C1098 C1097 1.398 . S
C1098 C1099 1.391 . S
C1099 H1087 0.950 . S
C1099 C1095 1.393 . S
C1099 C1098 1.391 . S
H1100 C1108 0.950 . S
H1101 C1113 0.950 . S
H1102 C1110 0.950 . S
H1103 C1112 0.950 . S
H1104 C1114 0.950 . S
H1105 C1116 0.950 . S
H1106 C1118 0.950 . S
H1107 C1119 0.950 . S
C1108 H1100 0.950 . S
C1108 C1109 1.386 . S
C1108 C1110 1.391 . S
C1109 C1108 1.386 . S
C1109 C1113 1.393 . S
C1110 H1102 0.950 . S
C1110 C1108 1.391 . S
C1110 C1111 1.400 . S
C1111 C1110 1.400 . S
C1111 C1112 1.398 . S
C1111 C1117 1.491 . S
C1112 H1103 0.950 . S
C1112 C1111 1.398 . S
C1112 C1113 1.391 . S
C1113 H1101 0.950 . S
C1113 C1109 1.393 . S
C1113 C1112 1.391 . S
C1114 H1104 0.950 . S
C1114 C1115 1.386 . S
C1114 C1116 1.391 . S
C1115 C1114 1.386 . S
C1115 C1119 1.393 . S
C1116 H1105 0.950 . S
C1116 C1114 1.391 . S
C1116 C1117 1.400 . S
C1117 C1111 1.491 . S
C1117 C1116 1.400 . S
C1117 C1118 1.398 . S
C1118 H1106 0.950 . S
C1118 C1117 1.398 . S
C1118 C1119 1.391 . S
C1119 H1107 0.950 . S
C1119 C1115 1.393 . S
C1119 C1118 1.391 . S
H1120 C1128 0.950 . S
H1121 C1133 0.950 . S
H1122 C1130 0.950 . S
H1123 C1132 0.950 . S
H1124 C1134 0.950 . S
H1125 C1136 0.950 . S
H1126 C1138 0.950 . S
H1127 C1139 0.950 . S
C1128 H1120 0.950 . S
C1128 C1129 1.386 1_545 S
C1128 C1130 1.391 . S
C1129 C1128 1.386 1_565 S
C1129 C1133 1.393 . S
C1130 H1122 0.950 . S
C1130 C1128 1.391 . S
C1130 C1131 1.400 . S
C1131 C1130 1.400 . S
C1131 C1132 1.398 . S
C1131 C1137 1.491 . S
C1132 H1123 0.950 . S
C1132 C1131 1.398 . S
C1132 C1133 1.391 1_545 S
C1133 H1121 0.950 . S
C1133 C1129 1.393 . S
C1133 C1132 1.391 1_565 S
C1134 H1124 0.950 . S
C1134 C1135 1.386 . S
C1134 C1136 1.391 . S
C1135 C1134 1.386 . S
C1135 C1139 1.393 . S
C1136 H1125 0.950 . S
C1136 C1134 1.391 . S
C1136 C1137 1.400 . S
C1137 C1131 1.491 . S
C1137 C1136 1.400 . S
C1137 C1138 1.398 . S
C1138 H1126 0.950 . S
C1138 C1137 1.398 . S
C1138 C1139 1.391 . S
C1139 H1127 0.950 . S
C1139 C1135 1.393 . S
C1139 C1138 1.391 . S
H1140 C1148 0.950 . S
H1141 C1153 0.950 . S
H1142 C1150 0.950 . S
H1143 C1152 0.950 . S
H1144 C1154 0.950 . S
H1145 C1156 0.950 . S
H1146 C1158 0.950 . S
H1147 C1159 0.950 . S
C1148 H1140 0.950 . S
C1148 C1149 1.386 . S
C1148 C1150 1.391 . S
C1149 C1148 1.386 . S
C1149 C1153 1.393 . S
C1150 H1142 0.950 . S
C1150 C1148 1.391 . S
C1150 C1151 1.400 . S
C1151 C1150 1.400 . S
C1151 C1152 1.398 . S
C1151 C1157 1.491 . S
C1152 H1143 0.950 . S
C1152 C1151 1.398 . S
C1152 C1153 1.391 . S
C1153 H1141 0.950 . S
C1153 C1149 1.393 . S
C1153 C1152 1.391 . S
C1154 H1144 0.950 . S
C1154 C1155 1.386 . S
C1154 C1156 1.391 . S
C1155 C1154 1.386 . S
C1155 C1159 1.393 . S
C1156 H1145 0.950 . S
C1156 C1154 1.391 . S
C1156 C1157 1.400 . S
C1157 C1151 1.491 . S
C1157 C1156 1.400 . S
C1157 C1158 1.398 . S
C1158 H1146 0.950 . S
C1158 C1157 1.398 . S
C1158 C1159 1.391 . S
C1159 H1147 0.950 . S
C1159 C1155 1.393 . S
C1159 C1158 1.391 . S
H1160 C1168 0.950 . S
H1161 C1173 0.950 . S
H1162 C1170 0.950 . S
H1163 C1172 0.950 . S
H1164 C1174 0.950 . S
H1165 C1176 0.950 . S
H1166 C1178 0.950 . S
H1167 C1179 0.950 . S
C1168 H1160 0.950 . S
C1168 C1169 1.386 . S
C1168 C1170 1.391 . S
C1169 C1168 1.386 . S
C1169 C1173 1.393 . S
C1170 H1162 0.950 . S
C1170 C1168 1.391 . S
C1170 C1171 1.400 . S
C1171 C1170 1.400 . S
C1171 C1172 1.398 . S
C1171 C1177 1.491 . S
C1172 H1163 0.950 . S
C1172 C1171 1.398 . S
C1172 C1173 1.391 . S
C1173 H1161 0.950 . S
C1173 C1169 1.393 . S
C1173 C1172 1.391 . S
C1174 H1164 0.950 . S
C1174 C1175 1.386 . S
C1174 C1176 1.391 . S
C1175 C1174 1.386 . S
C1175 C1179 1.393 . S
C1176 H1165 0.950 . S
C1176 C1174 1.391 . S
C1176 C1177 1.400 . S
C1177 C1171 1.491 . S
C1177 C1176 1.400 . S
C1177 C1178 1.398 . S
C1178 H1166 0.950 . S
C1178 C1177 1.398 . S
C1178 C1179 1.391 . S
C1179 H1167 0.950 . S
C1179 C1175 1.393 . S
C1179 C1178 1.391 . S
H1180 C1188 0.950 . S
H1181 C1193 0.950 . S
H1182 C1190 0.950 . S
H1183 C1192 0.950 . S
H1184 C1194 0.950 . S
H1185 C1196 0.950 . S
H1186 C1198 0.950 . S
H1187 C1199 0.950 . S
C1188 H1180 0.950 . S
C1188 C1189 1.386 . S
C1188 C1190 1.391 . S
C1189 C1188 1.386 . S
C1189 C1193 1.393 . S
C1190 H1182 0.950 . S
C1190 C1188 1.391 . S
C1190 C1191 1.400 . S
C1191 C1190 1.400 . S
C1191 C1192 1.398 . S
C1191 C1197 1.491 . S
C1192 H1183 0.950 . S
C1192 C1191 1.398 . S
C1192 C1193 1.391 . S
C1193 H1181 0.950 . S
C1193 C1189 1.393 . S
C1193 C1192 1.391 . S
C1194 H1184 0.950 . S
C1194 C1195 1.386 . S
C1194 C1196 1.391 . S
C1195 C1194 1.386 . S
C1195 C1199 1.393 . S
C1196 H1185 0.950 . S
C1196 C1194 1.391 . S
C1196 C1197 1.400 . S
C1197 C1191 1.491 . S
C1197 C1196 1.400 . S
C1197 C1198 1.398 . S
C1198 H1186 0.950 . S
C1198 C1197 1.398 . S
C1198 C1199 1.391 . S
C1199 H1187 0.950 . S
C1199 C1195 1.393 . S
C1199 C1198 1.391 . S
H1200 C1208 0.950 . S
H1201 C1213 0.950 . S
H1202 C1210 0.950 . S
H1203 C1212 0.950 . S
H1204 C1214 0.950 . S
H1205 C1216 0.950 . S
H1206 C1218 0.950 . S
H1207 C1219 0.950 . S
C1208 H1200 0.950 . S
C1208 C1209 1.386 . S
C1208 C1210 1.391 . S
C1209 C1208 1.386 . S
C1209 C1213 1.393 . S
C1210 H1202 0.950 . S
C1210 C1208 1.391 . S
C1210 C1211 1.400 . S
C1211 C1210 1.400 . S
C1211 C1212 1.398 . S
C1211 C1217 1.491 . S
C1212 H1203 0.950 . S
C1212 C1211 1.398 . S
C1212 C1213 1.391 . S
C1213 H1201 0.950 . S
C1213 C1209 1.393 . S
C1213 C1212 1.391 . S
C1214 H1204 0.950 . S
C1214 C1215 1.386 . S
C1214 C1216 1.391 . S
C1215 C1214 1.386 . S
C1215 C1219 1.393 . S
C1216 H1205 0.950 . S
C1216 C1214 1.391 . S
C1216 C1217 1.400 . S
C1217 C1211 1.491 . S
C1217 C1216 1.400 . S
C1217 C1218 1.398 . S
C1218 H1206 0.950 . S
C1218 C1217 1.398 . S
C1218 C1219 1.391 . S
C1219 H1207 0.950 . S
C1219 C1215 1.393 . S
C1219 C1218 1.391 . S
H1220 C1228 0.950 . S
H1221 C1233 0.950 . S
H1222 C1230 0.950 . S
H1223 C1232 0.950 . S
H1224 C1234 0.950 . S
H1225 C1236 0.950 . S
H1226 C1238 0.950 . S
H1227 C1239 0.950 . S
C1228 H1220 0.950 . S
C1228 C1229 1.386 . S
C1228 C1230 1.391 . S
C1229 C1228 1.386 . S
C1229 C1233 1.393 . S
C1230 H1222 0.950 . S
C1230 C1228 1.391 . S
C1230 C1231 1.400 . S
C1231 C1230 1.400 . S
C1231 C1232 1.398 . S
C1231 C1237 1.491 . S
C1232 H1223 0.950 . S
C1232 C1231 1.398 . S
C1232 C1233 1.391 . S
C1233 H1221 0.950 . S
C1233 C1229 1.393 . S
C1233 C1232 1.391 . S
C1234 H1224 0.950 . S
C1234 C1235 1.386 . S
C1234 C1236 1.391 . S
C1235 C1234 1.386 . S
C1235 C1239 1.393 . S
C1236 H1225 0.950 . S
C1236 C1234 1.391 . S
C1236 C1237 1.400 . S
C1237 C1231 1.491 . S
C1237 C1236 1.400 . S
C1237 C1238 1.398 . S
C1238 H1226 0.950 . S
C1238 C1237 1.398 . S
C1238 C1239 1.391 . S
C1239 H1227 0.950 . S
C1239 C1235 1.393 . S
C1239 C1238 1.391 . S
H1240 C1248 0.950 . S
H1241 C1253 0.950 . S
H1242 C1250 0.950 . S
H1243 C1252 0.950 . S
H1244 C1254 0.950 . S
H1245 C1256 0.950 . S
H1246 C1258 0.950 . S
H1247 C1259 0.950 . S
C1248 H1240 0.950 . S
C1248 C1249 1.386 . S
C1248 C1250 1.391 . S
C1249 C1248 1.386 . S
C1249 C1253 1.393 . S
C1250 H1242 0.950 . S
C1250 C1248 1.391 . S
C1250 C1251 1.400 . S
C1251 C1250 1.400 . S
C1251 C1252 1.398 . S
C1251 C1257 1.491 . S
C1252 H1243 0.950 . S
C1252 C1251 1.398 . S
C1252 C1253 1.391 . S
C1253 H1241 0.950 . S
C1253 C1249 1.393 . S
C1253 C1252 1.391 . S
C1254 H1244 0.950 . S
C1254 C1255 1.386 . S
C1254 C1256 1.391 . S
C1255 C1254 1.386 . S
C1255 C1259 1.393 . S
C1256 H1245 0.950 . S
C1256 C1254 1.391 . S
C1256 C1257 1.400 . S
C1257 C1251 1.491 . S
C1257 C1256 1.400 . S
C1257 C1258 1.398 . S
C1258 H1246 0.950 . S
C1258 C1257 1.398 . S
C1258 C1259 1.391 . S
C1259 H1247 0.950 . S
C1259 C1255 1.393 . S
C1259 C1258 1.391 . S
H1260 C1268 0.950 . S
H1261 C1273 0.950 . S
H1262 C1270 0.951 1_655 S
H1263 C1272 0.950 . S
H1264 C1274 0.950 . S
H1265 C1276 0.950 . S
H1266 C1278 0.950 . S
H1267 C1279 0.950 . S
C1268 H1260 0.950 . S
C1268 C1269 1.386 . S
C1268 C1270 1.391 . S
C1269 C1268 1.386 . S
C1269 C1273 1.393 . S
C1270 H1262 0.951 1_455 S
C1270 C1268 1.391 . S
C1270 C1271 1.400 . S
C1271 C1270 1.400 . S
C1271 C1272 1.398 . S
C1271 C1277 1.491 1_455 S
C1272 H1263 0.950 . S
C1272 C1271 1.398 . S
C1272 C1273 1.391 . S
C1273 H1261 0.950 . S
C1273 C1269 1.393 . S
C1273 C1272 1.391 . S
C1274 H1264 0.950 . S
C1274 C1275 1.386 . S
C1274 C1276 1.391 . S
C1275 C1274 1.386 . S
C1275 C1279 1.393 . S
C1276 H1265 0.950 . S
C1276 C1274 1.391 . S
C1276 C1277 1.400 . S
C1277 C1271 1.491 1_655 S
C1277 C1276 1.400 . S
C1277 C1278 1.398 . S
C1278 H1266 0.950 . S
C1278 C1277 1.398 . S
C1278 C1279 1.391 . S
C1279 H1267 0.950 . S
C1279 C1275 1.393 . S
C1279 C1278 1.391 . S
H1280 C1288 0.950 . S
H1281 C1293 0.950 . S
H1282 C1290 0.950 . S
H1283 C1292 0.950 . S
H1284 C1294 0.950 . S
H1285 C1296 0.950 . S
H1286 C1298 0.950 . S
H1287 C1299 0.950 . S
C1288 H1280 0.950 . S
C1288 C1289 1.386 . S
C1288 C1290 1.391 . S
C1289 C1288 1.386 . S
C1289 C1293 1.393 . S
C1290 H1282 0.950 . S
C1290 C1288 1.391 . S
C1290 C1291 1.400 . S
C1291 C1290 1.400 . S
C1291 C1292 1.398 . S
C1291 C1297 1.491 . S
C1292 H1283 0.950 . S
C1292 C1291 1.398 . S
C1292 C1293 1.391 . S
C1293 H1281 0.950 . S
C1293 C1289 1.393 . S
C1293 C1292 1.391 . S
C1294 H1284 0.950 . S
C1294 C1295 1.386 . S
C1294 C1296 1.391 . S
C1295 C1294 1.386 . S
C1295 C1299 1.393 . S
C1296 H1285 0.950 . S
C1296 C1294 1.391 . S
C1296 C1297 1.400 . S
C1297 C1291 1.491 . S
C1297 C1296 1.400 . S
C1297 C1298 1.398 . S
C1298 H1286 0.950 . S
C1298 C1297 1.398 . S
C1298 C1299 1.391 . S
C1299 H1287 0.950 . S
C1299 C1295 1.393 . S
C1299 C1298 1.391 . S
H1300 C1308 0.950 . S
H1301 C1313 0.950 . S
H1302 C1310 0.950 . S
H1303 C1312 0.950 . S
H1304 C1314 0.950 . S
H1305 C1316 0.950 . S
H1306 C1318 0.950 . S
H1307 C1319 0.950 . S
C1308 H1300 0.950 . S
C1308 C1309 1.386 . S
C1308 C1310 1.391 . S
C1309 C1308 1.386 . S
C1309 C1313 1.393 . S
C1310 H1302 0.950 . S
C1310 C1308 1.391 . S
C1310 C1311 1.400 . S
C1311 C1310 1.400 . S
C1311 C1312 1.398 . S
C1311 C1317 1.491 1_655 S
C1312 H1303 0.950 . S
C1312 C1311 1.398 . S
C1312 C1313 1.391 . S
C1313 H1301 0.950 . S
C1313 C1309 1.393 . S
C1313 C1312 1.391 . S
C1314 H1304 0.950 . S
C1314 C1315 1.386 . S
C1314 C1316 1.391 . S
C1315 C1314 1.386 . S
C1315 C1319 1.393 . S
C1316 H1305 0.950 . S
C1316 C1314 1.391 . S
C1316 C1317 1.400 . S
C1317 C1311 1.491 1_455 S
C1317 C1316 1.400 . S
C1317 C1318 1.398 . S
C1318 H1306 0.950 . S
C1318 C1317 1.398 . S
C1318 C1319 1.391 . S
C1319 H1307 0.950 . S
C1319 C1315 1.393 . S
C1319 C1318 1.391 . S
H1320 C1328 0.950 . S
H1321 C1333 0.950 . S
H1322 C1330 0.950 . S
H1323 C1332 0.950 . S
H1324 C1334 0.950 . S
H1325 C1336 0.950 . S
H1326 C1338 0.950 . S
H1327 C1339 0.950 . S
C1328 H1320 0.950 . S
C1328 C1329 1.386 . S
C1328 C1330 1.391 . S
C1329 C1328 1.386 . S
C1329 C1333 1.393 . S
C1330 H1322 0.950 . S
C1330 C1328 1.391 . S
C1330 C1331 1.400 . S
C1331 C1330 1.400 . S
C1331 C1332 1.398 . S
C1331 C1337 1.491 . S
C1332 H1323 0.950 . S
C1332 C1331 1.398 . S
C1332 C1333 1.391 . S
C1333 H1321 0.950 . S
C1333 C1329 1.393 . S
C1333 C1332 1.391 . S
C1334 H1324 0.950 . S
C1334 C1335 1.386 . S
C1334 C1336 1.391 . S
C1335 C1334 1.386 . S
C1335 C1339 1.393 . S
C1336 H1325 0.950 . S
C1336 C1334 1.391 . S
C1336 C1337 1.400 . S
C1337 C1331 1.491 . S
C1337 C1336 1.400 . S
C1337 C1338 1.398 . S
C1338 H1326 0.950 . S
C1338 C1337 1.398 . S
C1338 C1339 1.391 . S
C1339 H1327 0.950 . S
C1339 C1335 1.393 . S
C1339 C1338 1.391 . S
H1340 C1348 0.950 . S
H1341 C1353 0.950 . S
H1342 C1350 0.950 . S
H1343 C1352 0.950 1_556 S
H1344 C1354 0.950 . S
H1345 C1356 0.950 . S
H1346 C1358 0.950 . S
H1347 C1359 0.950 1_455 S
C1348 H1340 0.950 . S
C1348 C1349 1.386 . S
C1348 C1350 1.391 . S
C1349 C1348 1.386 . S
C1349 C1353 1.393 . S
C1350 H1342 0.950 . S
C1350 C1348 1.391 . S
C1350 C1351 1.400 1_554 S
C1351 C1350 1.400 1_556 S
C1351 C1352 1.398 1_556 S
C1351 C1357 1.491 . S
C1352 H1343 0.950 1_554 S
C1352 C1351 1.398 1_554 S
C1352 C1353 1.391 . S
C1353 H1341 0.950 . S
C1353 C1349 1.393 . S
C1353 C1352 1.391 . S
C1354 H1344 0.950 . S
C1354 C1355 1.386 . S
C1354 C1356 1.391 . S
C1355 C1354 1.386 . S
C1355 C1359 1.393 . S
C1356 H1345 0.950 . S
C1356 C1354 1.391 . S
C1356 C1357 1.400 . S
C1357 C1351 1.491 . S
C1357 C1356 1.400 . S
C1357 C1358 1.398 . S
C1358 H1346 0.950 . S
C1358 C1357 1.398 . S
C1358 C1359 1.391 . S
C1359 H1347 0.950 1_655 S
C1359 C1355 1.393 . S
C1359 C1358 1.391 . S
H1360 C1368 0.950 . S
H1361 C1373 0.950 . S
H1362 C1370 0.950 . S
H1363 C1372 0.950 . S
H1364 C1374 0.950 . S
H1365 C1376 0.950 . S
H1366 C1378 0.950 . S
H1367 C1379 0.950 . S
C1368 H1360 0.950 . S
C1368 C1369 1.386 . S
C1368 C1370 1.391 . S
C1369 C1368 1.386 . S
C1369 C1373 1.393 . S
C1370 H1362 0.950 . S
C1370 C1368 1.391 . S
C1370 C1371 1.400 . S
C1371 C1370 1.400 . S
C1371 C1372 1.398 . S
C1371 C1377 1.491 . S
C1372 H1363 0.950 . S
C1372 C1371 1.398 . S
C1372 C1373 1.391 . S
C1373 H1361 0.950 . S
C1373 C1369 1.393 . S
C1373 C1372 1.391 . S
C1374 H1364 0.950 . S
C1374 C1375 1.386 . S
C1374 C1376 1.391 . S
C1375 C1374 1.386 . S
C1375 C1379 1.393 . S
C1376 H1365 0.950 . S
C1376 C1374 1.391 . S
C1376 C1377 1.400 . S
C1377 C1371 1.491 . S
C1377 C1376 1.400 . S
C1377 C1378 1.398 . S
C1378 H1366 0.950 . S
C1378 C1377 1.398 . S
C1378 C1379 1.391 . S
C1379 H1367 0.950 . S
C1379 C1375 1.393 . S
C1379 C1378 1.391 . S
H1380 C1388 0.950 . S
H1381 C1393 0.950 . S
H1382 C1390 0.950 . S
H1383 C1392 0.950 . S
H1384 C1394 0.950 . S
H1385 C1396 0.950 . S
H1386 C1398 0.950 . S
H1387 C1399 0.950 . S
C1388 H1380 0.950 . S
C1388 C1389 1.386 . S
C1388 C1390 1.391 . S
C1389 C1388 1.386 . S
C1389 C1393 1.393 . S
C1390 H1382 0.950 . S
C1390 C1388 1.391 . S
C1390 C1391 1.400 . S
C1391 C1390 1.400 . S
C1391 C1392 1.398 . S
C1391 C1397 1.491 . S
C1392 H1383 0.950 . S
C1392 C1391 1.398 . S
C1392 C1393 1.391 . S
C1393 H1381 0.950 . S
C1393 C1389 1.393 . S
C1393 C1392 1.391 . S
C1394 H1384 0.950 . S
C1394 C1395 1.386 . S
C1394 C1396 1.391 . S
C1395 C1394 1.386 . S
C1395 C1399 1.393 . S
C1396 H1385 0.950 . S
C1396 C1394 1.391 . S
C1396 C1397 1.400 1_556 S
C1397 C1391 1.491 . S
C1397 C1396 1.400 1_554 S
C1397 C1398 1.398 . S
C1398 H1386 0.950 . S
C1398 C1397 1.398 . S
C1398 C1399 1.391 1_554 S
C1399 H1387 0.950 . S
C1399 C1395 1.393 . S
C1399 C1398 1.391 1_556 S
H1400 C1408 0.950 . S
H1401 C1413 0.950 . S
H1402 C1410 0.950 . S
H1403 C1412 0.950 . S
H1404 C1414 0.950 . S
H1405 C1416 0.950 . S
H1406 C1418 0.950 . S
H1407 C1419 0.950 . S
C1408 H1400 0.950 . S
C1408 C1409 1.386 . S
C1408 C1410 1.391 . S
C1409 C1408 1.386 . S
C1409 C1413 1.393 . S
C1410 H1402 0.950 . S
C1410 C1408 1.391 . S
C1410 C1411 1.400 . S
C1411 C1410 1.400 . S
C1411 C1412 1.398 . S
C1411 C1417 1.491 . S
C1412 H1403 0.950 . S
C1412 C1411 1.398 . S
C1412 C1413 1.391 . S
C1413 H1401 0.950 . S
C1413 C1409 1.393 . S
C1413 C1412 1.391 . S
C1414 H1404 0.950 . S
C1414 C1415 1.386 . S
C1414 C1416 1.391 . S
C1415 C1414 1.386 . S
C1415 C1419 1.393 . S
C1416 H1405 0.950 . S
C1416 C1414 1.391 . S
C1416 C1417 1.400 . S
C1417 C1411 1.491 . S
C1417 C1416 1.400 . S
C1417 C1418 1.398 . S
C1418 H1406 0.950 . S
C1418 C1417 1.398 . S
C1418 C1419 1.391 . S
C1419 H1407 0.950 . S
C1419 C1415 1.393 . S
C1419 C1418 1.391 . S
H1420 C1428 0.950 . S
H1421 C1433 0.950 . S
H1422 C1430 0.950 . S
H1423 C1432 0.950 . S
H1424 C1434 0.950 . S
H1425 C1436 0.950 . S
H1426 C1438 0.950 . S
H1427 C1439 0.950 . S
C1428 H1420 0.950 . S
C1428 C1429 1.386 . S
C1428 C1430 1.391 1_556 S
C1429 C1428 1.386 . S
C1429 C1433 1.393 . S
C1430 H1422 0.950 . S
C1430 C1428 1.391 1_554 S
C1430 C1431 1.400 . S
C1431 C1430 1.400 . S
C1431 C1432 1.398 1_554 S
C1431 C1437 1.491 . S
C1432 H1423 0.950 . S
C1432 C1431 1.398 1_556 S
C1432 C1433 1.391 . S
C1433 H1421 0.950 . S
C1433 C1429 1.393 . S
C1433 C1432 1.391 . S
C1434 H1424 0.950 . S
C1434 C1435 1.386 . S
C1434 C1436 1.391 . S
C1435 C1434 1.386 . S
C1435 C1439 1.393 . S
C1436 H1425 0.950 . S
C1436 C1434 1.391 . S
C1436 C1437 1.400 . S
C1437 C1431 1.491 . S
C1437 C1436 1.400 . S
C1437 C1438 1.398 . S
C1438 H1426 0.950 . S
C1438 C1437 1.398 . S
C1438 C1439 1.391 . S
C1439 H1427 0.950 . S
C1439 C1435 1.393 . S
C1439 C1438 1.391 . S
H1440 C1448 0.950 . S
H1441 C1453 0.950 . S
H1442 C1450 0.950 . S
H1443 C1452 0.950 . S
H1444 C1454 0.950 . S
H1445 C1456 0.950 . S
H1446 C1458 0.950 . S
H1447 C1459 0.950 . S
C1448 H1440 0.950 . S
C1448 C1449 1.386 . S
C1448 C1450 1.391 . S
C1449 C1448 1.386 . S
C1449 C1453 1.393 . S
C1450 H1442 0.950 . S
C1450 C1448 1.391 . S
C1450 C1451 1.400 . S
C1451 C1450 1.400 . S
C1451 C1452 1.398 . S
C1451 C1457 1.491 . S
C1452 H1443 0.950 . S
C1452 C1451 1.398 . S
C1452 C1453 1.391 . S
C1453 H1441 0.950 . S
C1453 C1449 1.393 . S
C1453 C1452 1.391 . S
C1454 H1444 0.950 . S
C1454 C1455 1.386 . S
C1454 C1456 1.391 . S
C1455 C1454 1.386 . S
C1455 C1459 1.393 . S
C1456 H1445 0.950 . S
C1456 C1454 1.391 . S
C1456 C1457 1.400 . S
C1457 C1451 1.491 . S
C1457 C1456 1.400 . S
C1457 C1458 1.398 . S
C1458 H1446 0.950 . S
C1458 C1457 1.398 . S
C1458 C1459 1.391 . S
C1459 H1447 0.950 . S
C1459 C1455 1.393 . S
C1459 C1458 1.391 . S
H1460 C1468 0.950 . S
H1461 C1473 0.950 1_556 S
H1462 C1470 0.950 . S
H1463 C1472 0.950 . S
H1464 C1474 0.950 . S
H1465 C1476 0.950 . S
H1466 C1478 0.950 . S
H1467 C1479 0.950 . S
C1468 H1460 0.950 . S
C1468 C1469 1.374 1_554 S
C1468 C1470 1.391 . S
C1469 C1468 1.374 1_556 S
C1469 C1473 1.388 1_556 S
C1470 H1462 0.950 . S
C1470 C1468 1.391 . S
C1470 C1471 1.400 . S
C1471 C1470 1.400 . S
C1471 C1472 1.398 . S
C1471 C1477 1.491 . S
C1472 H1463 0.950 . S
C1472 C1471 1.398 . S
C1472 C1473 1.391 . S
C1473 H1461 0.950 1_554 S
C1473 C1469 1.388 1_554 S
C1473 C1472 1.391 . S
C1474 H1464 0.950 . S
C1474 C1475 1.386 . S
C1474 C1476 1.391 . S
C1475 C1474 1.386 . S
C1475 C1479 1.393 . S
C1476 H1465 0.950 . S
C1476 C1474 1.391 . S
C1476 C1477 1.400 . S
C1477 C1471 1.491 . S
C1477 C1476 1.400 . S
C1477 C1478 1.398 . S
C1478 H1466 0.950 . S
C1478 C1477 1.398 . S
C1478 C1479 1.391 . S
C1479 H1467 0.950 . S
C1479 C1475 1.393 . S
C1479 C1478 1.391 . S
H1480 C1488 0.950 . S
H1481 C1493 0.950 . S
H1482 C1490 0.950 . S
H1483 C1492 0.950 . S
H1484 C1494 0.950 . S
H1485 C1496 0.950 . S
H1486 C1498 0.950 . S
H1487 C1499 0.950 . S
C1488 H1480 0.950 . S
C1488 C1489 1.386 . S
C1488 C1490 1.391 . S
C1489 C1488 1.386 . S
C1489 C1493 1.393 . S
C1490 H1482 0.950 . S
C1490 C1488 1.391 . S
C1490 C1491 1.400 . S
C1491 C1490 1.400 . S
C1491 C1492 1.398 . S
C1491 C1497 1.491 . S
C1492 H1483 0.950 . S
C1492 C1491 1.398 . S
C1492 C1493 1.391 . S
C1493 H1481 0.950 . S
C1493 C1489 1.393 . S
C1493 C1492 1.391 . S
C1494 H1484 0.950 . S
C1494 C1495 1.386 . S
C1494 C1496 1.391 . S
C1495 C1494 1.386 . S
C1495 C1499 1.393 . S
C1496 H1485 0.950 . S
C1496 C1494 1.391 . S
C1496 C1497 1.400 . S
C1497 C1491 1.491 . S
C1497 C1496 1.400 . S
C1497 C1498 1.398 . S
C1498 H1486 0.950 . S
C1498 C1497 1.398 . S
C1498 C1499 1.391 . S
C1499 H1487 0.950 . S
C1499 C1495 1.393 . S
C1499 C1498 1.391 . S
H1500 C1508 0.950 . S
H1501 C1513 0.950 . S
H1502 C1510 0.950 . S
H1503 C1512 0.950 . S
H1504 C1514 0.950 . S
H1505 C1516 0.950 . S
H1506 C1518 0.950 . S
H1507 C1519 0.950 . S
C1508 H1500 0.950 . S
C1508 C1509 1.386 . S
C1508 C1510 1.391 . S
C1509 C1508 1.386 . S
C1509 C1513 1.393 . S
C1510 H1502 0.950 . S
C1510 C1508 1.391 . S
C1510 C1511 1.400 . S
C1511 C1510 1.400 . S
C1511 C1512 1.398 . S
C1511 C1517 1.491 . S
C1512 H1503 0.950 . S
C1512 C1511 1.398 . S
C1512 C1513 1.391 . S
C1513 H1501 0.950 . S
C1513 C1509 1.393 . S
C1513 C1512 1.391 . S
C1514 H1504 0.950 . S
C1514 C1515 1.386 . S
C1514 C1516 1.391 . S
C1515 C1514 1.386 . S
C1515 C1519 1.393 . S
C1516 H1505 0.950 . S
C1516 C1514 1.391 . S
C1516 C1517 1.400 . S
C1517 C1511 1.491 . S
C1517 C1516 1.400 . S
C1517 C1518 1.398 . S
C1518 H1506 0.950 . S
C1518 C1517 1.398 . S
C1518 C1519 1.391 . S
C1519 H1507 0.950 . S
C1519 C1515 1.393 . S
C1519 C1518 1.391 . S
H1520 C1528 0.950 . S
H1521 C1533 0.950 . S
H1522 C1530 0.950 . S
H1523 C1532 0.950 . S
H1524 C1534 0.950 . S
H1525 C1536 0.950 . S
H1526 C1538 0.950 . S
H1527 C1539 0.950 . S
C1528 H1520 0.950 . S
C1528 C1529 1.386 . S
C1528 C1530 1.391 . S
C1529 C1528 1.386 . S
C1529 C1533 1.393 . S
C1530 H1522 0.950 . S
C1530 C1528 1.391 . S
C1530 C1531 1.400 . S
C1531 C1530 1.400 . S
C1531 C1532 1.398 . S
C1531 C1537 1.491 . S
C1532 H1523 0.950 . S
C1532 C1531 1.398 . S
C1532 C1533 1.391 . S
C1533 H1521 0.950 . S
C1533 C1529 1.393 . S
C1533 C1532 1.391 . S
C1534 H1524 0.950 . S
C1534 C1535 1.386 . S
C1534 C1536 1.391 . S
C1535 C1534 1.386 . S
C1535 C1539 1.393 . S
C1536 H1525 0.950 . S
C1536 C1534 1.391 . S
C1536 C1537 1.400 . S
C1537 C1531 1.491 . S
C1537 C1536 1.400 . S
C1537 C1538 1.398 . S
C1538 H1526 0.950 . S
C1538 C1537 1.398 . S
C1538 C1539 1.391 . S
C1539 H1527 0.950 . S
C1539 C1535 1.393 . S
C1539 C1538 1.391 . S
H1540 C1548 0.950 . S
H1541 C1553 0.950 . S
H1542 C1550 0.950 . S
H1543 C1552 0.950 . S
H1544 C1554 0.950 . S
H1545 C1556 0.950 . S
H1546 C1558 0.950 . S
H1547 C1559 0.950 . S
C1548 H1540 0.950 . S
C1548 C1549 1.386 . S
C1548 C1550 1.391 . S
C1549 C1548 1.386 . S
C1549 C1553 1.393 . S
C1550 H1542 0.950 . S
C1550 C1548 1.391 . S
C1550 C1551 1.400 . S
C1551 C1550 1.400 . S
C1551 C1552 1.398 . S
C1551 C1557 1.491 . S
C1552 H1543 0.950 . S
C1552 C1551 1.398 . S
C1552 C1553 1.391 . S
C1553 H1541 0.950 . S
C1553 C1549 1.393 . S
C1553 C1552 1.391 . S
C1554 H1544 0.950 . S
C1554 C1555 1.386 . S
C1554 C1556 1.391 . S
C1555 C1554 1.386 . S
C1555 C1559 1.393 . S
C1556 H1545 0.950 . S
C1556 C1554 1.391 . S
C1556 C1557 1.400 . S
C1557 C1551 1.491 . S
C1557 C1556 1.400 . S
C1557 C1558 1.398 . S
C1558 H1546 0.950 . S
C1558 C1557 1.398 . S
C1558 C1559 1.391 . S
C1559 H1547 0.950 . S
C1559 C1555 1.393 . S
C1559 C1558 1.391 . S
H1560 C1568 0.950 . S
H1561 C1573 0.950 . S
H1562 C1570 0.950 . S
H1563 C1572 0.950 . S
H1564 C1574 0.950 . S
H1565 C1576 0.950 . S
H1566 C1578 0.950 . S
H1567 C1579 0.990 . S
C1568 H1560 0.950 . S
C1568 C1569 1.386 . S
C1568 C1570 1.391 . S
C1569 C1568 1.386 . S
C1569 C1573 1.393 . S
C1570 H1562 0.950 . S
C1570 C1568 1.391 . S
C1570 C1571 1.400 . S
C1571 C1570 1.400 . S
C1571 C1572 1.398 . S
C1571 C1577 1.491 . S
C1572 H1563 0.950 . S
C1572 C1571 1.398 . S
C1572 C1573 1.391 . S
C1573 H1561 0.950 . S
C1573 C1569 1.393 . S
C1573 C1572 1.391 . S
C1574 H1564 0.950 . S
C1574 C1575 1.386 . S
C1574 C1576 1.391 . S
C1575 C1574 1.386 . S
C1575 C1579 1.393 . S
C1576 H1565 0.950 . S
C1576 C1574 1.391 . S
C1576 C1577 1.400 . S
C1577 C1571 1.491 . S
C1577 C1576 1.400 . S
C1577 C1578 1.398 . S
C1578 H1566 0.950 . S
C1578 C1577 1.398 . S
C1578 C1579 1.391 . S
C1579 H1567 0.990 . S
C1579 C1575 1.393 . S
C1579 C1578 1.391 . S
H1580 C1588 0.950 . S
H1581 C1593 0.950 . S
H1582 C1590 0.950 . S
H1583 C1592 0.950 . S
H1584 C1594 0.950 . S
H1585 C1596 0.950 . S
H1586 C1598 0.950 . S
H1587 C1599 0.950 . S
C1588 H1580 0.950 . S
C1588 C1589 1.386 . S
C1588 C1590 1.391 . S
C1589 C1588 1.386 . S
C1589 C1593 1.393 . S
C1590 H1582 0.950 . S
C1590 C1588 1.391 . S
C1590 C1591 1.400 . S
C1591 C1590 1.400 . S
C1591 C1592 1.398 . S
C1591 C1597 1.491 . S
C1592 H1583 0.950 . S
C1592 C1591 1.398 . S
C1592 C1593 1.391 . S
C1593 H1581 0.950 . S
C1593 C1589 1.393 . S
C1593 C1592 1.391 . S
C1594 H1584 0.950 . S
C1594 C1595 1.386 . S
C1594 C1596 1.391 . S
C1595 C1594 1.386 . S
C1595 C1599 1.393 . S
C1596 H1585 0.950 . S
C1596 C1594 1.391 . S
C1596 C1597 1.400 . S
C1597 C1591 1.491 . S
C1597 C1596 1.400 . S
C1597 C1598 1.398 . S
C1598 H1586 0.950 . S
C1598 C1597 1.398 . S
C1598 C1599 1.391 . S
C1599 H1587 0.950 . S
C1599 C1595 1.393 . S
C1599 C1598 1.391 . S
H1600 C1608 0.950 . S
H1601 C1613 0.950 . S
H1602 C1610 0.950 . S
H1603 C1612 0.950 . S
H1604 C1614 0.950 . S
H1605 C1616 0.950 . S
H1606 C1618 0.950 . S
H1607 C1619 0.950 . S
C1608 H1600 0.950 . S
C1608 C1609 1.386 . S
C1608 C1610 1.391 . S
C1609 C1608 1.386 . S
C1609 C1613 1.393 . S
C1610 H1602 0.950 . S
C1610 C1608 1.391 . S
C1610 C1611 1.400 . S
C1611 C1610 1.400 . S
C1611 C1612 1.398 . S
C1611 C1617 1.491 . S
C1612 H1603 0.950 . S
C1612 C1611 1.398 . S
C1612 C1613 1.391 . S
C1613 H1601 0.950 . S
C1613 C1609 1.393 . S
C1613 C1612 1.391 . S
C1614 H1604 0.950 . S
C1614 C1615 1.386 . S
C1614 C1616 1.391 . S
C1615 C1614 1.386 . S
C1615 C1619 1.393 . S
C1616 H1605 0.950 . S
C1616 C1614 1.391 . S
C1616 C1617 1.400 . S
C1617 C1611 1.491 . S
C1617 C1616 1.400 . S
C1617 C1618 1.398 . S
C1618 H1606 0.950 . S
C1618 C1617 1.398 . S
C1618 C1619 1.391 . S
C1619 H1607 0.950 . S
C1619 C1615 1.393 . S
C1619 C1618 1.391 . S
H1620 C1628 0.950 . S
H1621 C1633 0.950 . S
H1622 C1630 0.950 . S
H1623 C1632 0.950 . S
H1624 C1634 0.950 . S
H1625 C1636 0.950 . S
H1626 C1638 0.950 . S
H1627 C1639 0.950 . S
C1628 H1620 0.950 . S
C1628 C1629 1.386 . S
C1628 C1630 1.391 . S
C1629 C1628 1.386 . S
C1629 C1633 1.393 . S
C1630 H1622 0.950 . S
C1630 C1628 1.391 . S
C1630 C1631 1.400 . S
C1631 C1630 1.400 . S
C1631 C1632 1.398 . S
C1631 C1637 1.491 . S
C1632 H1623 0.950 . S
C1632 C1631 1.398 . S
C1632 C1633 1.391 . S
C1633 H1621 0.950 . S
C1633 C1629 1.393 . S
C1633 C1632 1.391 . S
C1634 H1624 0.950 . S
C1634 C1635 1.386 . S
C1634 C1636 1.391 . S
C1635 C1634 1.386 . S
C1635 C1639 1.393 . S
C1636 H1625 0.950 . S
C1636 C1634 1.391 . S
C1636 C1637 1.400 1_565 S
C1637 C1631 1.491 . S
C1637 C1636 1.400 1_545 S
C1637 C1638 1.398 . S
C1638 H1626 0.950 . S
C1638 C1637 1.398 . S
C1638 C1639 1.391 1_545 S
C1639 H1627 0.950 . S
C1639 C1635 1.393 . S
C1639 C1638 1.391 1_565 S
C695 C520 1.570 1_556 S
C689 C177 1.546 . S
C715 C535 1.735 . S
C709 C209 1.690 . S
C729 C253 1.590 . S
C735 C548 1.655 . S
C755 C562 1.557 . S
C749 C157 1.620 . S
C775 C574 1.649 . S
C769 C343 1.684 . S
C795 C588 1.318 . S
C789 C401 1.355 . S
C809 C369 1.739 . S
C815 C602 1.725 . S
C835 C617 1.462 . S
C829 C317 1.392 . S
C849 C375 1.621 . S
C855 C633 1.657 . S
C875 C646 1.550 . S
C869 C305 1.474 . S
C889 C349 1.593 . S
C895 C631 1.559 . S
C915 C644 1.515 . S
C909 C413 1.541 . S
C929 C241 1.783 . S
C935 C660 1.809 . S
C949 C151 1.575 . S
C955 C659 1.538 . S
C969 C189 1.711 . S
C975 C658 1.696 . S
C989 C215 1.546 . S
C995 C661 1.593 . S
C1009 C113 1.673 . S
C1015 C563 1.680 1_565 S
C1029 C471 1.457 . S
C1035 C561 1.458 . S
C1055 C521 1.541 . S
C1049 C509 1.466 . S
C1075 C532 1.720 . S
C1069 C279 1.683 . S
C1089 C145 1.594 1_545 S
C1095 C577 1.564 . S
C1115 C618 1.903 . S
C1109 C381 1.849 . S
C1135 C575 1.520 . S
C1129 C311 1.412 . S
C1155 C603 1.509 . S
C1149 C407 1.539 . S
C1175 C604 1.577 . S
C1169 C465 1.554 . S
C1189 C497 1.681 . S
C1195 C619 1.731 . S
C1209 C285 1.614 . S
C1215 C576 1.651 . S
C1235 C590 1.549 . S
C1229 C445 1.617 . S
C1249 C119 1.677 . S
C1255 C546 1.634 . S
C1275 C560 1.331 . S
C1269 C17 1.350 . S
C1295 C518 1.735 . S
C1289 C49 1.724 . S
C1315 C533 1.457 . S
C1309 C93 1.369 . S
C1329 C55 1.615 . S
C1335 C647 1.663 . S
C1349 C81 1.496 . S
C1355 C632 1.562 . S
C1369 C125 1.593 . S
C1375 C645 1.559 . S
C1389 C29 1.543 . S
C1395 C630 1.519 . S
C1415 C674 1.813 . S
C1409 C273 1.767 . S
C1435 C673 1.551 . S
C1429 C439 1.583 . S
C1455 C672 1.686 . S
C1449 C477 1.712 . S
C1469 C503 1.550 . S
C1475 C675 1.591 . S
C1489 C337 1.673 . S
C1495 C591 1.680 . S
C1515 C589 1.458 . S
C1509 C183 1.458 . S
C1535 C605 1.555 . S
C1529 C221 1.492 . S
C1555 C616 1.729 . S
C1549 C247 1.680 . S
C1569 C433 1.595 . S
C1575 C549 1.569 . S
C1595 C534 1.902 . S
C1589 C61 1.847 . S
C1609 C87 1.435 . S
C1615 C547 1.508 . S
C1635 C519 1.507 . S
C1629 C23 1.543 . S
