# Generated by pormake.
# Topology ssa, (4,4)-cn, num edge types: 1
# Building blocks:
#     Node 0, Type 0, BuildingBlock: KUFVIS_clean_linker_0, # of connection points: 4
#     Node 1, Type 0, BuildingBlock: KUFVIS_clean_linker_0, # of connection points: 4
#     Node 2, Type 0, BuildingBlock: KUFVIS_clean_linker_0, # of connection points: 4
#     Node 3, Type 0, BuildingBlock: KUFVIS_clean_linker_0, # of connection points: 4
#     Node 4, Type 0, BuildingBlock: KUFVIS_clean_linker_0, # of connection points: 4
#     Node 5, Type 0, BuildingBlock: KUFVIS_clean_linker_0, # of connection points: 4
#     Node 6, Type 1, BuildingBlock: MUDLON_clean_sbu_0, # of connection points: 4
#     Node 7, Type 1, BuildingBlock: MUDLON_clean_sbu_0, # of connection points: 4
#     Node 8, Type 1, BuildingBlock: MUDLON_clean_sbu_0, # of connection points: 4
#     Node 9, Type 1, BuildingBlock: MUDLON_clean_sbu_0, # of connection points: 4
#     Node 10, Type 1, BuildingBlock: MUDLON_clean_sbu_0, # of connection points: 4
#     Node 11, Type 1, BuildingBlock: MUDLON_clean_sbu_0, # of connection points: 4
#     Edge 12, Type (0, 1), BuildingBlock: TEMPAE_clean_linker_10, # of connection points: 2
#     Edge 13, Type (0, 1), BuildingBlock: TEMPAE_clean_linker_10, # of connection points: 2
#     Edge 14, Type (0, 1), BuildingBlock: TEMPAE_clean_linker_10, # of connection points: 2
#     Edge 15, Type (0, 1), BuildingBlock: TEMPAE_clean_linker_10, # of connection points: 2
#     Edge 16, Type (0, 1), BuildingBlock: TEMPAE_clean_linker_10, # of connection points: 2
#     Edge 17, Type (0, 1), BuildingBlock: TEMPAE_clean_linker_10, # of connection points: 2
#     Edge 18, Type (0, 1), BuildingBlock: TEMPAE_clean_linker_10, # of connection points: 2
#     Edge 19, Type (0, 1), BuildingBlock: TEMPAE_clean_linker_10, # of connection points: 2
#     Edge 20, Type (0, 1), BuildingBlock: TEMPAE_clean_linker_10, # of connection points: 2
#     Edge 21, Type (0, 1), BuildingBlock: TEMPAE_clean_linker_10, # of connection points: 2
#     Edge 22, Type (0, 1), BuildingBlock: TEMPAE_clean_linker_10, # of connection points: 2
#     Edge 23, Type (0, 1), BuildingBlock: TEMPAE_clean_linker_10, # of connection points: 2
#     Edge 24, Type (0, 1), BuildingBlock: TEMPAE_clean_linker_10, # of connection points: 2
#     Edge 25, Type (0, 1), BuildingBlock: TEMPAE_clean_linker_10, # of connection points: 2
#     Edge 26, Type (0, 1), BuildingBlock: TEMPAE_clean_linker_10, # of connection points: 2
#     Edge 27, Type (0, 1), BuildingBlock: TEMPAE_clean_linker_10, # of connection points: 2
#     Edge 28, Type (0, 1), BuildingBlock: TEMPAE_clean_linker_10, # of connection points: 2
#     Edge 29, Type (0, 1), BuildingBlock: TEMPAE_clean_linker_10, # of connection points: 2
#     Edge 30, Type (0, 1), BuildingBlock: TEMPAE_clean_linker_10, # of connection points: 2
#     Edge 31, Type (0, 1), BuildingBlock: TEMPAE_clean_linker_10, # of connection points: 2
#     Edge 32, Type (0, 1), BuildingBlock: TEMPAE_clean_linker_10, # of connection points: 2
#     Edge 33, Type (0, 1), BuildingBlock: TEMPAE_clean_linker_10, # of connection points: 2
#     Edge 34, Type (0, 1), BuildingBlock: TEMPAE_clean_linker_10, # of connection points: 2
#     Edge 35, Type (0, 1), BuildingBlock: TEMPAE_clean_linker_10, # of connection points: 2
# Relax obj value: 0.001
# Max RMSD: 0.051
# Mean RMSD: 0.029
data_MOF--net-ssa--node1-MUDLON_clean_sbu_0--node2-KUFVIS_clean_linker_0--edge1-TEMPAE_clean_linker_10
_symmetry_space_group_name_H-M    P1
_symmetry_Int_Tables_number       1
_symmetry_cell_setting            triclinic
loop_
_symmetry_equiv_pos_as_xyz
'x, y, z'
_cell_length_a     44.766338
_cell_length_b     44.863329
_cell_length_c     42.295951
_cell_angle_alpha  90.069419
_cell_angle_beta   90.501534
_cell_angle_gamma 120.06465
loop_
_atom_site_label
_atom_site_type_symbol
_atom_site_fract_x
_atom_site_fract_y
_atom_site_fract_z
_atom_type_partial_charge
H0 H 0.93609 0.46834 0.93682 0.0
H1 H 0.97104 0.53528 1.01733 0.0
H2 H 0.00776 0.46347 1.00151 0.0
H3 H 0.0066 0.46047 0.0535 0.0
H4 H 0.06036 0.53458 0.12678 0.0
H5 H 0.01964 0.56292 0.0477 0.0
C6 C 0.9523 0.47752 0.95787 0.0
C7 C 0.97196 0.46258 0.96703 0.0
C8 C 0.95281 0.50422 0.97519 0.0
C9 C 0.97199 0.51539 1.00364 0.0
C10 C 0.99149 0.50025 1.01441 0.0
C11 C 0.99178 0.47434 0.99512 0.0
C12 C 0.01071 0.5104 0.04584 0.0
C13 C 0.01654 0.48633 0.06255 0.0
C14 C 0.03457 0.49489 0.09156 0.0
C15 C 0.04581 0.52749 0.10472 0.0
C16 C 0.0399 0.55179 0.08956 0.0
C17 C 0.02302 0.54354 0.05974 0.0
H18 H 0.56241 0.08897 0.62518 0.0
H19 H 0.49503 0.05836 0.54448 0.0
H20 H 0.57281 0.0278 0.55323 0.0
H21 H 0.5692 0.02526 0.50152 0.0
H22 H 0.48836 0.96851 0.43386 0.0
H23 H 0.46643 0.00971 0.51588 0.0
C24 C 0.55374 0.07495 0.60293 0.0
C25 C 0.57094 0.05882 0.59069 0.0
C26 C 0.52638 0.07454 0.58655 0.0
C27 C 0.51567 0.0575 0.55716 0.0
C28 C 0.53179 0.03986 0.54435 0.0
C29 C 0.5598 0.04104 0.56166 0.0
C30 C 0.51968 0.02055 0.51318 0.0
C31 C 0.54252 0.01487 0.49443 0.0
C32 C 0.53143 0.99598 0.46597 0.0
C33 C 0.49744 0.98365 0.45547 0.0
C34 C 0.47426 0.98905 0.47302 0.0
C35 C 0.48515 0.00703 0.50203 0.0
H36 H 0.51477 0.57143 0.13081 0.0
H37 H 0.48025 0.50922 0.04693 0.0
H38 H 0.58837 0.58599 0.05955 0.0
H39 H 0.58533 0.58757 1.00607 0.0
H40 H 0.5644 0.5104 0.93585 0.0
H41 H 0.5053 0.48146 0.0208 0.0
C42 C 0.52079 0.56394 0.10839 0.0
C43 C 0.55464 0.58167 0.09717 0.0
C44 C 0.49407 0.5379 0.09059 0.0
C45 C 0.50131 0.52896 0.06084 0.0
C46 C 0.53553 0.54583 0.04909 0.0
C47 C 0.56197 0.5725 0.06765 0.0
C48 C 0.54364 0.53601 1.01755 0.0
C49 C 0.57043 0.56097 0.99844 0.0
C50 C 0.57781 0.5518 0.96891 0.0
C51 C 0.55831 0.51775 0.95831 0.0
C52 C 0.53228 0.49249 0.97673 0.0
C53 C 0.52506 0.50147 1.00643 0.0
H54 H 0.94629 0.49596 0.61138 0.0
H55 H 0.02043 0.56988 0.54822 0.0
H56 H 0.01495 0.47143 0.56302 0.0
H57 H 0.03258 0.4789 0.51194 0.0
H58 H 0.12315 0.55633 0.46654 0.0
H59 H 0.07497 0.58697 0.53632 0.0
C60 C 0.967 0.50302 0.59462 0.0
C61 C 0.97825 0.47979 0.58805 0.0
C62 C 0.98256 0.53559 0.58092 0.0
C63 C 0.00956 0.54495 0.55935 0.0
C64 C 0.02159 0.52185 0.55188 0.0
C65 C 0.00591 0.48938 0.56718 0.0
C66 C 0.05023 0.53144 0.52836 0.0
C67 C 0.05215 0.50578 0.51006 0.0
C68 C 0.07893 0.51502 0.48823 0.0
C69 C 0.10351 0.54953 0.4844 0.0
C70 C 0.10191 0.57549 0.50114 0.0
C71 C 0.07548 0.56649 0.52326 0.0
H72 H 0.47874 0.93991 0.11364 0.0
H73 H 0.45632 0.99717 0.04663 0.0
H74 H 0.54681 0.98597 0.03566 0.0
H75 H 0.5674 0.03512 1.00896 0.0
H76 H 0.53493 0.07179 0.93008 0.0
H77 H 0.45931 0.0046 0.99593 0.0
C78 C 0.48572 0.95549 0.09239 0.0
C79 C 0.5155 0.96245 0.07635 0.0
C80 C 0.46427 0.96736 0.08128 0.0
C81 C 0.47299 0.98738 0.05385 0.0
C82 C 0.50307 0.99499 0.03661 0.0
C83 C 0.52412 0.98179 0.04825 0.0
C84 C 0.51199 0.01626 1.00675 0.0
C85 C 0.54651 0.03501 0.99583 0.0
C86 C 0.55441 0.05423 0.96778 0.0
C87 C 0.52831 0.05584 0.95104 0.0
C88 C 0.49427 0.0387 0.96156 0.0
C89 C 0.48607 0.01857 0.98902 0.0
H90 H 0.50642 0.44103 0.60897 0.0
H91 H 0.53786 0.51205 0.5315 0.0
H92 H 0.42943 0.43886 0.54735 0.0
H93 H 0.42761 0.43986 0.4944 0.0
H94 H 0.44138 0.52219 0.43416 0.0
H95 H 0.51313 0.5435 0.5105 0.0
C96 C 0.49999 0.45124 0.58838 0.0
C97 C 0.46545 0.43693 0.57951 0.0
C98 C 0.5263 0.47818 0.5714 0.0
C99 C 0.51745 0.49151 0.5449 0.0
C100 C 0.48232 0.47722 0.5352 0.0
C101 C 0.45653 0.44997 0.55328 0.0
C102 C 0.47208 0.48991 0.50629 0.0
C103 C 0.44224 0.46688 0.48841 0.0
C104 C 0.43044 0.47865 0.46308 0.0
C105 C 0.4497 0.51321 0.45439 0.0
C106 C 0.47927 0.53668 0.4712 0.0
C107 C 0.4907 0.52504 0.49708 0.0
Mg108 Mg 0.22691 0.4428 0.26694 0.0
C109 C 0.15882 0.40542 0.22184 0.0
O110 O 0.14591 0.3764 0.23756 0.0
C111 C 0.23305 0.39607 0.31671 0.0
O112 O 0.20856 0.39865 0.33105 0.0
C113 C 0.17866 0.44326 0.31393 0.0
O114 O 0.16093 0.4141 0.29832 0.0
O115 O 0.20983 0.46362 0.30578 0.0
O116 O 0.18821 0.43059 0.22966 0.0
O117 O 0.2749 0.47506 0.24077 0.0
C118 C 0.27669 0.4582 0.21719 0.0
O119 O 0.2507 0.42691 0.21217 0.0
O120 O 0.24025 0.40638 0.28827 0.0
Mg121 Mg 0.81003 0.23252 0.78549 0.0
C122 C 0.76148 0.19195 0.73786 0.0
O123 O 0.75791 0.21843 0.7454 0.0
C124 C 0.8826 0.2682 0.81619 0.0
O125 O 0.89326 0.28135 0.78804 0.0
C126 C 0.76551 0.19737 0.83823 0.0
O127 O 0.78814 0.18695 0.83645 0.0
O128 O 0.76762 0.21974 0.81837 0.0
O129 O 0.78505 0.18892 0.75214 0.0
O130 O 0.83049 0.27819 0.7552 0.0
C131 C 0.84578 0.27575 0.73085 0.0
O132 O 0.84632 0.24702 0.72641 0.0
O133 O 0.85176 0.24347 0.81928 0.0
Mg134 Mg 0.58287 0.80107 0.2888 0.0
C135 C 0.58101 0.83957 0.23416 0.0
O136 O 0.6132 0.84708 0.23815 0.0
C137 C 0.54708 0.72747 0.3183 0.0
O138 O 0.5532 0.71819 0.29079 0.0
C139 C 0.57982 0.84473 0.33459 0.0
O140 O 0.54883 0.81928 0.32728 0.0
O141 O 0.60555 0.84571 0.3208 0.0
O142 O 0.55853 0.81873 0.25354 0.0
O143 O 0.61047 0.78298 0.25861 0.0
C144 C 0.58924 0.76396 0.2371 0.0
O145 O 0.5583 0.7605 0.23687 0.0
O146 O 0.55374 0.7584 0.32235 0.0
Mg147 Mg 0.78516 0.5701 0.76429 0.0
C148 C 0.71571 0.54326 0.72911 0.0
O149 O 0.7109 0.55998 0.75213 0.0
C150 C 0.81993 0.56479 0.8217 0.0
O151 O 0.82639 0.59676 0.82093 0.0
C152 C 0.74512 0.57404 0.81471 0.0
O153 O 0.73863 0.54218 0.81154 0.0
O154 O 0.76667 0.59654 0.79578 0.0
O155 O 0.74303 0.54096 0.72927 0.0
O156 O 0.83095 0.59531 0.73405 0.0
C157 C 0.83772 0.5721 0.72529 0.0
O158 O 0.81778 0.5406 0.73558 0.0
O159 O 0.80142 0.54431 0.79949 0.0
Mg160 Mg 0.23711 0.79084 0.28369 0.0
C161 C 0.19298 0.74111 0.23649 0.0
O162 O 0.22088 0.73876 0.24053 0.0
C163 C 0.28742 0.84266 0.32383 0.0
O164 O 0.29869 0.82311 0.31186 0.0
C165 C 0.20641 0.72685 0.32403 0.0
O166 O 0.17994 0.71833 0.30507 0.0
O167 O 0.23499 0.75394 0.31844 0.0
O168 O 0.19029 0.76351 0.25309 0.0
O169 O 0.27709 0.81134 0.24801 0.0
C170 C 0.27439 0.8337 0.23163 0.0
O171 O 0.24912 0.8396 0.23801 0.0
O172 O 0.2571 0.83613 0.31568 0.0
Mg173 Mg 0.44795 0.23717 0.78867 0.0
C174 C 0.45655 0.2062 0.73125 0.0
O175 O 0.42413 0.19857 0.73135 0.0
C176 C 0.45658 0.27972 0.84468 0.0
O177 O 0.4248 0.25371 0.84601 0.0
C178 C 0.45 0.19175 0.83372 0.0
O179 O 0.48119 0.21787 0.82902 0.0
O180 O 0.42502 0.19125 0.81853 0.0
O181 O 0.47624 0.22473 0.75383 0.0
O182 O 0.41986 0.25484 0.75863 0.0
C183 C 0.44297 0.28246 0.74581 0.0
O184 O 0.47534 0.2936 0.75378 0.0
O185 O 0.47557 0.28029 0.8221 0.0
C186 C 0.04205 0.46839 0.14104 0.0
C187 C 0.04358 0.47092 0.10795 0.0
C188 C 0.05704 0.45197 0.15757 0.0
C189 C 0.07356 0.43713 0.14062 0.0
C190 C 0.07244 0.43683 0.10711 0.0
C191 C 0.05762 0.45389 0.09114 0.0
C192 C 0.05755 0.45297 0.19327 0.0
C193 C 0.08905 0.42065 0.0881 0.0
C194 C 0.15141 0.44376 0.1836 0.0
C195 C 0.13775 0.41132 0.19788 0.0
C196 C 0.13108 0.45187 0.16403 0.0
C197 C 0.09615 0.42683 0.15802 0.0
C198 C 0.08263 0.39338 0.17085 0.0
C199 C 0.10353 0.38607 0.19081 0.0
C200 C 0.14665 0.48794 0.15102 0.0
C201 C 0.04574 0.36576 0.1645 0.0
H202 H 0.03051 0.48076 0.15419 0.0
H203 H 0.05892 0.45565 0.06558 0.0
H204 H 0.04925 0.42706 0.20298 0.0
H205 H 0.0843 0.47049 0.20184 0.0
H206 H 0.04057 0.46221 0.20284 0.0
H207 H 0.08049 0.41681 0.06295 0.0
H208 H 0.1175 0.43761 0.08893 0.0
H209 H 0.08299 0.39544 0.09821 0.0
H210 H 0.17786 0.46348 0.18859 0.0
H211 H 0.09273 0.36087 0.20153 0.0
H212 H 0.13313 0.50082 0.16099 0.0
H213 H 0.14324 0.48704 0.12497 0.0
H214 H 0.17461 0.50393 0.15671 0.0
H215 H 0.02809 0.372 0.1774 0.0
H216 H 0.04067 0.33997 0.17217 0.0
H217 H 0.03941 0.36458 0.13894 0.0
C218 C 0.59923 0.05551 0.64053 0.0
C219 C 0.6019 0.06343 0.60825 0.0
C220 C 0.62843 0.07037 0.66049 0.0
C221 C 0.66112 0.09389 0.64787 0.0
C222 C 0.66448 0.09852 0.61465 0.0
C223 C 0.63474 0.08324 0.59517 0.0
C224 C 0.62344 0.06425 0.69562 0.0
C225 C 0.69883 0.12282 0.60003 0.0
C226 C 0.71291 0.1731 0.69929 0.0
C227 C 0.73757 0.16684 0.71377 0.0
C228 C 0.68865 0.1499 0.67751 0.0
C229 C 0.68885 0.11934 0.66952 0.0
C230 C 0.71417 0.11305 0.68335 0.0
C231 C 0.73822 0.13685 0.70546 0.0
C232 C 0.66222 0.15789 0.66356 0.0
C233 C 0.71538 0.08092 0.67532 0.0
H234 H 0.57382 0.0401 0.65067 0.0
H235 H 0.63691 0.08954 0.57024 0.0
H236 H 0.64478 0.06178 0.70634 0.0
H237 H 0.62352 0.0866 0.707 0.0
H238 H 0.59854 0.04072 0.70098 0.0
H239 H 0.69882 0.1178 0.5743 0.0
H240 H 0.70442 0.1497 0.60322 0.0
H241 H 0.71995 0.12067 0.61172 0.0
H242 H 0.71212 0.19619 0.70526 0.0
H243 H 0.75718 0.13178 0.71644 0.0
H244 H 0.63585 0.13754 0.67017 0.0
H245 H 0.66354 0.15825 0.63738 0.0
H246 H 0.66605 0.18311 0.67178 0.0
H247 H 0.69274 0.05821 0.68566 0.0
H248 H 0.7392 0.08199 0.68457 0.0
H249 H 0.71392 0.07689 0.64934 0.0
C250 C 0.59677 0.64469 0.10245 0.0
C251 C 0.58069 0.61176 0.11581 0.0
C252 C 0.61034 0.67424 0.12184 0.0
C253 C 0.60714 0.67047 0.15512 0.0
C254 C 0.59584 0.63763 0.1685 0.0
C255 C 0.58287 0.60866 0.14862 0.0
C256 C 0.62356 0.70891 0.10658 0.0
C257 C 0.59227 0.6322 0.20378 0.0
C258 C 0.62836 0.7443 0.21316 0.0
C259 C 0.59621 0.74255 0.21485 0.0
C260 C 0.63308 0.72189 0.19297 0.0
C261 C 0.6049 0.69709 0.17449 0.0
C262 C 0.57272 0.69587 0.17579 0.0
C263 C 0.56896 0.71868 0.19559 0.0
C264 C 0.66806 0.72472 0.19139 0.0
C265 C 0.54161 0.66966 0.15697 0.0
H266 H 0.59549 0.64728 0.07706 0.0
H267 H 0.57102 0.58318 0.15896 0.0
H268 H 0.60237 0.71491 0.10509 0.0
H269 H 0.64487 0.72952 0.12078 0.0
H270 H 0.63281 0.70915 0.08224 0.0
H271 H 0.59041 0.60741 0.21057 0.0
H272 H 0.61437 0.65346 0.21665 0.0
H273 H 0.56841 0.63171 0.21155 0.0
H274 H 0.64963 0.76289 0.22772 0.0
H275 H 0.544 0.71704 0.19648 0.0
H276 H 0.6791 0.7339 0.16762 0.0
H277 H 0.6658 0.69916 0.19474 0.0
H278 H 0.68632 0.74291 0.20941 0.0
H279 H 0.54735 0.67275 0.13134 0.0
H280 H 0.51841 0.67207 0.16091 0.0
H281 H 0.53524 0.6432 0.16356 0.0
C282 C 0.98787 0.5829 0.61556 0.0
C283 C 0.97018 0.5591 0.59122 0.0
C284 C 0.97066 0.59488 0.63502 0.0
C285 C 0.93494 0.58243 0.6301 0.0
C286 C 0.91832 0.56186 0.60304 0.0
C287 C 0.93612 0.55031 0.58402 0.0
C288 C 0.98968 0.6174 0.66311 0.0
C289 C 0.88047 0.54825 0.59649 0.0
C290 C 0.87677 0.55403 0.70157 0.0
C291 C 0.86603 0.57849 0.70324 0.0
C292 C 0.90009 0.55599 0.67868 0.0
C293 C 0.91339 0.58326 0.6566 0.0
C294 C 0.90407 0.60912 0.65901 0.0
C295 C 0.88041 0.60643 0.68235 0.0
C296 C 0.90933 0.52786 0.67741 0.0
C297 C 0.91785 0.63876 0.63618 0.0
H298 H 0.0141 0.5894 0.62141 0.0
H299 H 0.92232 0.5316 0.5654 0.0
H300 H 0.98146 0.63661 0.66752 0.0
H301 H 0.98364 0.60114 0.68449 0.0
H302 H 0.01807 0.63112 0.65972 0.0
H303 H 0.8731 0.53824 0.57192 0.0
H304 H 0.86494 0.52692 0.61303 0.0
H305 H 0.8737 0.56861 0.60035 0.0
H306 H 0.86623 0.53258 0.71786 0.0
H307 H 0.87224 0.62543 0.68344 0.0
H308 H 0.93775 0.53921 0.67851 0.0
H309 H 0.90011 0.51349 0.65473 0.0
H310 H 0.8978 0.50923 0.69708 0.0
H311 H 0.94575 0.64909 0.63194 0.0
H312 H 0.91399 0.65996 0.64486 0.0
H313 H 0.90418 0.62957 0.61313 0.0
C314 C 0.40124 0.92845 0.08647 0.0
C315 C 0.43185 0.9562 0.09838 0.0
C316 C 0.373 0.90944 0.10635 0.0
C317 C 0.37564 0.91865 0.13874 0.0
C318 C 0.40555 0.94845 0.15013 0.0
C319 C 0.43344 0.96676 0.1298 0.0
C320 C 0.34154 0.87791 0.0933 0.0
C321 C 0.40923 0.95944 0.18436 0.0
C322 C 0.29634 0.87969 0.19063 0.0
C323 C 0.29957 0.85411 0.20684 0.0
C324 C 0.32054 0.90051 0.16803 0.0
C325 C 0.34865 0.8956 0.16133 0.0
C326 C 0.35175 0.86939 0.17713 0.0
C327 C 0.32719 0.84897 0.19976 0.0
C328 C 0.31644 0.92825 0.15182 0.0
C329 C 0.38136 0.86329 0.17047 0.0
H330 H 0.40043 0.91993 0.06231 0.0
H331 H 0.45744 0.9879 0.13901 0.0
H332 H 0.34076 0.85446 0.10273 0.0
H333 H 0.31759 0.87732 0.10087 0.0
H334 H 0.34166 0.8768 0.06706 0.0
H335 H 0.4322 0.98529 0.18852 0.0
H336 H 0.3859 0.95996 0.19219 0.0
H337 H 0.4118 0.94055 0.19935 0.0
H338 H 0.27506 0.88387 0.19588 0.0
H339 H 0.32983 0.82925 0.21211 0.0
H340 H 0.31626 0.92519 0.12577 0.0
H341 H 0.33872 0.95392 0.15788 0.0
H342 H 0.29233 0.92781 0.15872 0.0
H343 H 0.38222 0.8585 0.14484 0.0
H344 H 0.37935 0.84105 0.18383 0.0
H345 H 0.40617 0.88658 0.17692 0.0
C346 C 0.43525 0.37459 0.59067 0.0
C347 C 0.43998 0.40714 0.59789 0.0
C348 C 0.42505 0.3492 0.61405 0.0
C349 C 0.41957 0.35677 0.64529 0.0
C350 C 0.41945 0.3878 0.65131 0.0
C351 C 0.43009 0.41288 0.62756 0.0
C352 C 0.42517 0.31642 0.60636 0.0
C353 C 0.4128 0.39657 0.68397 0.0
C354 C 0.40169 0.2903 0.71001 0.0
C355 C 0.43528 0.30148 0.7213 0.0
C356 C 0.39569 0.30832 0.68571 0.0
C357 C 0.42398 0.33779 0.67223 0.0
C358 C 0.45778 0.34931 0.68397 0.0
C359 C 0.46289 0.33121 0.7083 0.0
C360 C 0.35927 0.29541 0.67408 0.0
C361 C 0.48892 0.38058 0.67048 0.0
H362 H 0.44332 0.37035 0.5678 0.0
H363 H 0.4341 0.43822 0.63322 0.0
H364 H 0.44984 0.3188 0.61478 0.0
H365 H 0.40384 0.29409 0.61847 0.0
H366 H 0.42278 0.31121 0.5805 0.0
H367 H 0.40556 0.4169 0.68321 0.0
H368 H 0.392 0.37346 0.69572 0.0
H369 H 0.4366 0.40623 0.69862 0.0
H370 H 0.38021 0.26738 0.7199 0.0
H371 H 0.48897 0.3403 0.71682 0.0
H372 H 0.35549 0.28231 0.65091 0.0
H373 H 0.35438 0.3171 0.67052 0.0
H374 H 0.3399 0.27677 0.69076 0.0
H375 H 0.49098 0.37671 0.64484 0.0
H376 H 0.51344 0.38602 0.68225 0.0
H377 H 0.4861 0.40365 0.67309 0.0
C378 C 0.57085 0.97127 0.46348 0.0
C379 C 0.55377 0.9862 0.44796 0.0
C380 C 0.58435 0.95383 0.44633 0.0
C381 C 0.58037 0.95105 0.41298 0.0
C382 C 0.56658 0.96934 0.39712 0.0
C383 C 0.55358 0.98678 0.41478 0.0
C384 C 0.59967 0.9355 0.46416 0.0
C385 C 0.56202 0.96743 0.36163 0.0
C386 C 0.61279 0.90387 0.36025 0.0
C387 C 0.58281 0.8715 0.35724 0.0
C388 C 0.61319 0.9299 0.37943 0.0
C389 C 0.58287 0.92334 0.39564 0.0
C390 C 0.55315 0.89022 0.39361 0.0
C391 C 0.5536 0.86486 0.37468 0.0
C392 C 0.64555 0.96469 0.38133 0.0
C393 C 0.52017 0.8818 0.41042 0.0
H394 H 0.57128 0.97082 0.4891 0.0
H395 H 0.54113 0.99897 0.40262 0.0
H396 H 0.58007 0.90777 0.46604 0.0
H397 H 0.62217 0.93743 0.45149 0.0
H398 H 0.60792 0.9461 0.48846 0.0
H399 H 0.55624 0.98727 0.3526 0.0
H400 H 0.58551 0.97073 0.34986 0.0
H401 H 0.54029 0.94167 0.35485 0.0
H402 H 0.6355 0.90922 0.34692 0.0
H403 H 0.5304 0.83983 0.37295 0.0
H404 H 0.65051 0.97481 0.40593 0.0
H405 H 0.64228 0.98319 0.3664 0.0
H406 H 0.66846 0.96368 0.3729 0.0
H407 H 0.52522 0.88709 0.43611 0.0
H408 H 0.49971 0.85446 0.40718 0.0
H409 H 0.51018 0.89837 0.40131 0.0
C410 C 0.64124 0.58804 0.96043 0.0
C411 C 0.6075 0.57591 0.9493 0.0
C412 C 0.6687 0.59856 0.93914 0.0
C413 C 0.66199 0.5965 0.90613 0.0
C414 C 0.62891 0.589 0.89526 0.0
C415 C 0.60205 0.57879 0.91701 0.0
C416 C 0.70382 0.60752 0.95184 0.0
C417 C 0.62052 0.58694 0.86042 0.0
C418 C 0.73078 0.61479 0.8438 0.0
C419 C 0.72571 0.58161 0.83878 0.0
C420 C 0.71108 0.62062 0.86634 0.0
C421 C 0.68548 0.59254 0.88378 0.0
C422 C 0.68075 0.5592 0.87897 0.0
C423 C 0.70092 0.55428 0.85682 0.0
C424 C 0.71716 0.65659 0.87088 0.0
C425 C 0.65374 0.52827 0.89677 0.0
H426 H 0.64558 0.58589 0.98538 0.0
H427 H 0.57596 0.56961 0.9084 0.0
H428 H 0.70688 0.5845 0.95028 0.0
H429 H 0.72458 0.62826 0.93771 0.0
H430 H 0.70713 0.61587 0.97699 0.0
H431 H 0.59632 0.58752 0.85599 0.0
H432 H 0.64184 0.60843 0.84748 0.0
H433 H 0.61717 0.56247 0.85061 0.0
H434 H 0.7499 0.63609 0.83005 0.0
H435 H 0.69672 0.52851 0.85335 0.0
H436 H 0.71616 0.66223 0.89628 0.0
H437 H 0.69656 0.65894 0.85839 0.0
H438 H 0.74245 0.67629 0.86126 0.0
H439 H 0.65842 0.53254 0.92261 0.0
H440 H 0.65356 0.50416 0.8904 0.0
H441 H 0.62771 0.52453 0.89168 0.0
C442 C 0.11152 0.63006 0.47702 0.0
C443 C 0.12551 0.61139 0.49093 0.0
C444 C 0.13035 0.65563 0.45455 0.0
C445 C 0.16351 0.66203 0.44563 0.0
C446 C 0.17943 0.64669 0.46294 0.0
C447 C 0.16038 0.62196 0.48585 0.0
C448 C 0.11307 0.67266 0.43769 0.0
C449 C 0.21467 0.65266 0.4544 0.0
C450 C 0.17754 0.67431 0.35718 0.0
C451 C 0.20027 0.70977 0.35502 0.0
C452 C 0.16679 0.65837 0.38668 0.0
C453 C 0.17805 0.67866 0.4147 0.0
C454 C 0.20181 0.71442 0.41268 0.0
C455 C 0.21301 0.72951 0.3828 0.0
C456 C 0.14243 0.61991 0.38776 0.0
C457 C 0.21381 0.7371 0.44178 0.0
H458 H 0.08465 0.62213 0.48095 0.0
H459 H 0.17135 0.60774 0.4969 0.0
H460 H 0.13174 0.70027 0.43344 0.0
H461 H 0.10316 0.66 0.41436 0.0
H462 H 0.09101 0.67056 0.45135 0.0
H463 H 0.22612 0.64476 0.47376 0.0
H464 H 0.21228 0.63721 0.43302 0.0
H465 H 0.2326 0.68009 0.4488 0.0
H466 H 0.16762 0.65913 0.33568 0.0
H467 H 0.2301 0.75711 0.38111 0.0
H468 H 0.11697 0.6145 0.39669 0.0
H469 H 0.15253 0.60774 0.40426 0.0
H470 H 0.1385 0.60755 0.36414 0.0
H471 H 0.19239 0.74052 0.45047 0.0
H472 H 0.23626 0.76294 0.43685 0.0
H473 H 0.22092 0.72505 0.46109 0.0
C474 C 0.46665 0.0428 0.91155 0.0
C475 C 0.46889 0.04525 0.94464 0.0
C476 C 0.45351 0.06029 0.89399 0.0
C477 C 0.44233 0.08068 0.90995 0.0
C478 C 0.44004 0.07919 0.94339 0.0
C479 C 0.45352 0.06154 0.96043 0.0
C480 C 0.45596 0.06056 0.85842 0.0
C481 C 0.4273 0.09963 0.96135 0.0
C482 C 0.47481 0.16777 0.87196 0.0
C483 C 0.4458 0.16365 0.85515 0.0
C484 C 0.47345 0.14129 0.89044 0.0
C485 C 0.44209 0.10959 0.89266 0.0
C486 C 0.41216 0.10555 0.87688 0.0
C487 C 0.4144 0.13263 0.8581 0.0
C488 C 0.50616 0.14702 0.90674 0.0
C489 C 0.37814 0.07238 0.87891 0.0
H490 H 0.47818 0.02985 0.89931 0.0
H491 H 0.45509 0.06341 0.98601 0.0
H492 H 0.43275 0.05902 0.8472 0.0
H493 H 0.47873 0.08509 0.85093 0.0
H494 H 0.45895 0.0389 0.84951 0.0
H495 H 0.41954 0.08975 0.98574 0.0
H496 H 0.44826 0.12692 0.96298 0.0
H497 H 0.40504 0.09899 0.94893 0.0
H498 H 0.49917 0.19168 0.87021 0.0
H499 H 0.39182 0.12921 0.84527 0.0
H500 H 0.51344 0.12836 0.89759 0.0
H501 H 0.50191 0.14265 0.93252 0.0
H502 H 0.52821 0.17345 0.90314 0.0
H503 H 0.37844 0.05298 0.86285 0.0
H504 H 0.35618 0.07595 0.8718 0.0
H505 H 0.37372 0.06183 0.90322 0.0
C506 C 0.37523 0.46925 0.43922 0.0
C507 C 0.39726 0.45621 0.44594 0.0
C508 C 0.34688 0.452 0.41869 0.0
C509 C 0.33946 0.42015 0.40504 0.0
C510 C 0.35996 0.40539 0.41361 0.0
C511 C 0.38888 0.42377 0.43381 0.0
C512 C 0.32593 0.46892 0.41038 0.0
C513 C 0.35234 0.37101 0.40043 0.0
C514 C 0.25067 0.3795 0.36714 0.0
C515 C 0.25886 0.39261 0.33635 0.0
C516 C 0.27671 0.38472 0.38906 0.0
C517 C 0.31179 0.40431 0.38022 0.0
C518 C 0.31995 0.41459 0.34831 0.0
C519 C 0.29336 0.40825 0.32668 0.0
C520 C 0.26676 0.37198 0.42244 0.0
C521 C 0.35693 0.43563 0.33776 0.0
H522 H 0.38101 0.49388 0.44918 0.0
H523 H 0.40568 0.41344 0.43899 0.0
H524 H 0.32758 0.47418 0.38463 0.0
H525 H 0.29836 0.45145 0.41593 0.0
H526 H 0.33494 0.49359 0.42332 0.0
H527 H 0.36514 0.35965 0.4146 0.0
H528 H 0.32414 0.35261 0.39966 0.0
H529 H 0.36196 0.37439 0.37588 0.0
H530 H 0.22404 0.36693 0.37473 0.0
H531 H 0.30005 0.41838 0.30293 0.0
H532 H 0.27023 0.39356 0.43783 0.0
H533 H 0.28349 0.36233 0.43199 0.0
H534 H 0.23937 0.35111 0.42377 0.0
H535 H 0.36852 0.46199 0.34793 0.0
H536 H 0.35898 0.43773 0.31161 0.0
H537 H 0.37237 0.42419 0.34647 0.0
C538 C 0.96655 0.43484 0.91408 0.0
C539 C 0.97011 0.43404 0.94708 0.0
C540 C 0.95644 0.4055 0.89527 0.0
C541 C 0.95172 0.37484 0.90936 0.0
C542 C 0.95927 0.37499 0.94202 0.0
C543 C 0.96773 0.40436 0.96066 0.0
C544 C 0.94831 0.40673 0.86069 0.0
C545 C 0.95673 0.34363 0.95769 0.0
C546 C 0.88214 0.29469 0.86781 0.0
C547 C 0.90105 0.28954 0.84431 0.0
C548 C 0.89857 0.32116 0.89038 0.0
C549 C 0.93502 0.34216 0.89039 0.0
C550 C 0.95445 0.33469 0.86875 0.0
C551 C 0.9372 0.30911 0.84537 0.0
C552 C 0.87658 0.32861 0.91226 0.0
C553 C 0.99337 0.35492 0.86906 0.0
H554 H 0.96983 0.45806 0.90303 0.0
H555 H 0.97077 0.40336 0.98601 0.0
H556 H 0.96423 0.39991 0.84574 0.0
H557 H 0.92083 0.38756 0.85572 0.0
H558 H 0.95303 0.43253 0.85349 0.0
H559 H 0.97213 0.35055 0.97998 0.0
H560 H 0.92943 0.32534 0.96356 0.0
H561 H 0.96574 0.33018 0.94169 0.0
H562 H 0.85417 0.27991 0.86695 0.0
H563 H 0.95196 0.30515 0.82735 0.0
H564 H 0.8798 0.35423 0.90663 0.0
H565 H 0.88493 0.32956 0.93716 0.0
H566 H 0.84873 0.30901 0.91021 0.0
H567 H 1.0024 0.37911 0.85565 0.0
H568 H 1.00432 0.34015 0.8578 0.0
H569 H 1.0037 0.36189 0.89358 0.0
C570 C 0.94898 0.54466 0.93772 0.0
C571 C 0.93345 0.52003 0.9615 0.0
C572 C 0.92907 0.55221 0.91683 0.0
C573 C 0.89265 0.53468 0.91979 0.0
C574 C 0.87706 0.51119 0.94498 0.0
C575 C 0.89763 0.50389 0.96535 0.0
C576 C 0.94687 0.57739 0.89039 0.0
C577 C 0.83846 0.4923 0.94935 0.0
C578 C 0.8464 0.57411 0.87567 0.0
C579 C 0.83525 0.5543 0.84776 0.0
C580 C 0.8639 0.56722 0.89973 0.0
C581 C 0.87103 0.54009 0.89577 0.0
C582 C 0.859 0.51932 0.86803 0.0
C583 C 0.84102 0.5265 0.84445 0.0
C584 C 0.87563 0.58965 0.92904 0.0
C585 C 0.86622 0.49025 0.86275 0.0
H586 H 0.97655 0.55632 0.93413 0.0
H587 H 0.88551 0.48406 0.98312 0.0
H588 H 0.93873 0.56366 0.86732 0.0
H589 H 0.93925 0.59741 0.89026 0.0
H590 H 0.97544 0.59028 0.89239 0.0
H591 H 0.83075 0.47785 0.97193 0.0
H592 H 0.82864 0.51062 0.9489 0.0
H593 H 0.82575 0.4738 0.92955 0.0
H594 H 0.84178 0.59547 0.87863 0.0
H595 H 0.83264 0.51117 0.82294 0.0
H596 H 0.90425 0.60459 0.93008 0.0
H597 H 0.86678 0.57346 0.95054 0.0
H598 H 0.86581 0.608 0.92962 0.0
H599 H 0.8945 0.50071 0.86145 0.0
H600 H 0.854 0.47563 0.84064 0.0
H601 H 0.85665 0.47219 0.88295 0.0
C602 C 0.41448 0.93934 0.46648 0.0
C603 C 0.43844 0.97392 0.46039 0.0
C604 C 0.38501 0.92076 0.4471 0.0
C605 C 0.37946 0.9371 0.4208 0.0
C606 C 0.40196 0.97292 0.41647 0.0
C607 C 0.43135 0.99081 0.43613 0.0
C608 C 0.36191 0.88273 0.4528 0.0
C609 C 0.39705 0.99164 0.38912 0.0
C610 C 0.34567 0.88068 0.34724 0.0
C611 C 0.31036 0.87018 0.34679 0.0
C612 C 0.36818 0.90294 0.37064 0.0
C613 C 0.35542 0.91558 0.39455 0.0
C614 C 0.32007 0.90641 0.39361 0.0
C615 C 0.29787 0.88374 0.36972 0.0
C616 C 0.40558 0.91196 0.37028 0.0
C617 C 0.30549 0.91958 0.4184 0.0
H618 H 0.42027 0.92607 0.48483 0.0
H619 H 0.45016 0.0174 0.43102 0.0
H620 H 0.33436 0.87523 0.44993 0.0
H621 H 0.36754 0.86797 0.4351 0.0
H622 H 0.36593 0.87521 0.47678 0.0
H623 H 0.41189 0.02001 0.39265 0.0
H624 H 0.40611 0.98537 0.3671 0.0
H625 H 0.36937 0.98339 0.38571 0.0
H626 H 0.35582 0.87079 0.32947 0.0
H627 H 0.27066 0.87573 0.36969 0.0
H628 H 0.41185 0.90249 0.39216 0.0
H629 H 0.42274 0.94031 0.36974 0.0
H630 H 0.41157 0.90062 0.34962 0.0
H631 H 0.30462 0.9073 0.44139 0.0
H632 H 0.27898 0.91392 0.4122 0.0
H633 H 0.32232 0.94779 0.42168 0.0
C634 C 0.49411 0.44927 0.93666 0.0
C635 C 0.51434 0.45679 0.96416 0.0
C636 C 0.48393 0.41887 0.91935 0.0
C637 C 0.49466 0.39558 0.92954 0.0
C638 C 0.51388 0.40239 0.95812 0.0
C639 C 0.5235 0.43297 0.97512 0.0
C640 C 0.46309 0.41254 0.88929 0.0
C641 C 0.52588 0.37833 0.96982 0.0
C642 C 0.44669 0.30581 0.89298 0.0
C643 C 0.46831 0.30854 0.8679 0.0
C644 C 0.45545 0.33349 0.91379 0.0
C645 C 0.48667 0.36486 0.90958 0.0
C646 C 0.50923 0.36748 0.88499 0.0
C647 C 0.49979 0.3393 0.86445 0.0
C648 C 0.43068 0.3295 0.93965 0.0
C649 C 0.54286 0.40045 0.87977 0.0
H650 H 0.48765 0.46808 0.92789 0.0
H651 H 0.5399 0.43925 0.99596 0.0
H652 H 0.47867 0.41334 0.8687 0.0
H653 H 0.43975 0.38655 0.88965 0.0
H654 H 0.45491 0.43195 0.88574 0.0
H655 H 0.53798 0.38569 0.99371 0.0
H656 H 0.50392 0.35151 0.97061 0.0
H657 H 0.54503 0.37859 0.95317 0.0
H658 H 0.42238 0.28213 0.89607 0.0
H659 H 0.51669 0.34169 0.84522 0.0
H660 H 0.42042 0.3471 0.93524 0.0
H661 H 0.44427 0.3368 0.96287 0.0
H662 H 0.40859 0.30275 0.94115 0.0
H663 H 0.53757 0.42126 0.87294 0.0
H664 H 0.55852 0.39771 0.86098 0.0
H665 H 0.55831 0.40872 0.902 0.0
C666 C 0.07103 0.48894 0.43507 0.0
C667 C 0.08166 0.49053 0.4666 0.0
C668 C 0.08505 0.47845 0.41076 0.0
C669 C 0.11023 0.46915 0.41817 0.0
C670 C 0.11899 0.46812 0.4503 0.0
C671 C 0.10482 0.47913 0.47411 0.0
C672 C 0.07493 0.48004 0.37693 0.0
C673 C 0.14523 0.45783 0.45938 0.0
C674 C 0.13185 0.42342 0.35406 0.0
C675 C 0.16236 0.45038 0.34131 0.0
C676 C 0.11508 0.42899 0.37938 0.0
C677 C 0.12876 0.4625 0.39222 0.0
C678 C 0.1597 0.48986 0.37966 0.0
C679 C 0.17629 0.48343 0.35453 0.0
C680 C 0.08251 0.39902 0.39223 0.0
C681 C 0.17497 0.52609 0.39245 0.0
H682 H 0.05401 0.49883 0.42912 0.0
H683 H 0.1139 0.48138 0.49833 0.0
H684 H 0.09719 0.50125 0.36457 0.0
H685 H 0.06806 0.45577 0.36421 0.0
H686 H 0.05276 0.4846 0.3753 0.0
H687 H 0.14601 0.45422 0.4853 0.0
H688 H 0.13947 0.43359 0.44717 0.0
H689 H 0.17124 0.47811 0.45184 0.0
H690 H 0.12095 0.39766 0.34428 0.0
H691 H 0.19976 0.50439 0.34484 0.0
H692 H 0.06056 0.40365 0.38889 0.0
H693 H 0.08542 0.39653 0.41801 0.0
H694 H 0.07594 0.37427 0.3805 0.0
H695 H 0.15614 0.53514 0.38948 0.0
H696 H 0.19926 0.54444 0.3804 0.0
H697 H 0.18038 0.52655 0.41814 0.0
C698 C 0.61333 0.10631 0.96744 0.0
C699 C 0.58979 0.07379 0.95505 0.0
C700 C 0.64359 0.12874 0.95097 0.0
C701 C 0.65027 0.11831 0.92145 0.0
C702 C 0.62709 0.08486 0.90959 0.0
C703 C 0.59707 0.06313 0.92645 0.0
C704 C 0.66759 0.16412 0.96444 0.0
C705 C 0.6333 0.07248 0.87844 0.0
C706 C 0.70703 0.1828 0.85895 0.0
C707 C 0.73728 0.18093 0.86166 0.0
C708 C 0.6789 0.16359 0.87913 0.0
C709 C 0.68118 0.1422 0.9026 0.0
C710 C 0.71228 0.14159 0.90634 0.0
C711 C 0.73982 0.16085 0.88588 0.0
C712 C 0.6462 0.16507 0.87446 0.0
C713 C 0.71599 0.11937 0.93108 0.0
H714 H 0.60717 0.11483 0.98916 0.0
H715 H 0.57841 0.03824 0.91661 0.0
H716 H 0.69446 0.16904 0.96531 0.0
H717 H 0.66741 0.1839 0.94886 0.0
H718 H 0.66008 0.1674 0.9886 0.0
H719 H 0.61354 0.0453 0.87317 0.0
H720 H 0.63297 0.08891 0.85901 0.0
H721 H 0.65913 0.07471 0.87862 0.0
H722 H 0.70483 0.19821 0.84035 0.0
H723 H 0.76322 0.15948 0.88845 0.0
H724 H 0.63784 0.17061 0.89726 0.0
H725 H 0.6252 0.13966 0.86596 0.0
H726 H 0.64943 0.18497 0.85705 0.0
H727 H 0.70848 0.12425 0.95461 0.0
H728 H 0.74276 0.12398 0.93275 0.0
H729 H 0.69838 0.0918 0.92524 0.0
C730 C 0.52866 0.58847 0.4463 0.0
C731 C 0.49633 0.57318 0.46077 0.0
C732 C 0.53971 0.61771 0.42699 0.0
C733 C 0.51765 0.63152 0.42172 0.0
C734 C 0.48637 0.61788 0.43859 0.0
C735 C 0.47629 0.58913 0.45806 0.0
C736 C 0.5737 0.63201 0.41018 0.0
C737 C 0.46179 0.63134 0.43368 0.0
C738 C 0.54777 0.71546 0.37634 0.0
C739 C 0.53718 0.70325 0.34532 0.0
C740 C 0.54211 0.69259 0.40144 0.0
C741 C 0.52469 0.65662 0.39554 0.0
C742 C 0.51306 0.64421 0.3644 0.0
C743 C 0.51984 0.66763 0.33969 0.0
C744 C 0.55554 0.70695 0.43407 0.0
C745 C 0.49353 0.60608 0.35707 0.0
H746 H 0.54406 0.57605 0.44805 0.0
H747 H 0.45116 0.57721 0.46911 0.0
H748 H 0.56888 0.62392 0.38498 0.0
H749 H 0.58786 0.66059 0.41086 0.0
H750 H 0.59032 0.6227 0.42076 0.0
H751 H 0.44099 0.62122 0.45155 0.0
H752 H 0.47572 0.65987 0.4347 0.0
H753 H 0.44966 0.62346 0.40986 0.0
H754 H 0.56167 0.74298 0.3808 0.0
H755 H 0.51161 0.65802 0.31581 0.0
H756 H 0.57459 0.69943 0.44181 0.0
H757 H 0.53418 0.69594 0.45132 0.0
H758 H 0.56808 0.73548 0.43492 0.0
H759 H 0.50998 0.5947 0.36255 0.0
H760 H 0.48523 0.60059 0.33189 0.0
H761 H 0.47031 0.59296 0.37212 0.0
C762 C 0.49003 0.07877 0.62828 0.0
C763 C 0.51007 0.09273 0.60126 0.0
C764 C 0.48113 0.09862 0.64751 0.0
C765 C 0.49292 0.13347 0.63971 0.0
C766 C 0.51211 0.14729 0.6117 0.0
C767 C 0.52053 0.12672 0.5928 0.0
C768 C 0.46038 0.0827 0.67694 0.0
C769 C 0.52513 0.18424 0.60251 0.0
C770 C 0.44648 0.17417 0.68025 0.0
C771 C 0.46822 0.19098 0.70633 0.0
C772 C 0.45482 0.1565 0.6578 0.0
C773 C 0.48569 0.15541 0.6614 0.0
C774 C 0.50845 0.1734 0.68698 0.0
C775 C 0.49948 0.19105 0.70912 0.0
C776 C 0.42991 0.13789 0.63086 0.0
C777 C 0.5417 0.17297 0.69161 0.0
H778 H 0.48266 0.05271 0.63514 0.0
H779 H 0.53681 0.13772 0.57234 0.0
H780 H 0.47618 0.09611 0.69819 0.0
H781 H 0.43733 0.08585 0.67718 0.0
H782 H 0.45172 0.05484 0.67879 0.0
H783 H 0.53732 0.19027 0.57885 0.0
H784 H 0.50367 0.18988 0.60237 0.0
H785 H 0.54447 0.20166 0.62023 0.0
H786 H 0.42237 0.17418 0.67764 0.0
H787 H 0.51643 0.20394 0.72914 0.0
H788 H 0.41894 0.1097 0.63343 0.0
H789 H 0.44356 0.14535 0.60795 0.0
H790 H 0.40831 0.14337 0.63003 0.0
H791 H 0.53585 0.14634 0.69676 0.0
H792 H 0.55768 0.19009 0.71132 0.0
H793 H 0.55706 0.18114 0.66962 0.0
C794 C 0.43586 0.53262 0.09434 0.0
C795 C 0.45879 0.52159 0.10387 0.0
C796 C 0.40558 0.52335 0.11148 0.0
C797 C 0.39806 0.5025 0.13876 0.0
C798 C 0.42073 0.49045 0.14779 0.0
C799 C 0.45091 0.50038 0.13041 0.0
C800 C 0.3823 0.53689 0.10107 0.0
C801 C 0.41362 0.46784 0.17638 0.0
C802 C 0.3382 0.50235 0.20307 0.0
C803 C 0.30743 0.47163 0.19628 0.0
C804 C 0.36769 0.51321 0.18413 0.0
C805 C 0.36642 0.4929 0.15779 0.0
C806 C 0.33516 0.4624 0.15044 0.0
C807 C 0.30622 0.45222 0.16964 0.0
C808 C 0.40047 0.54601 0.19271 0.0
C809 C 0.33249 0.43992 0.1227 0.0
H810 H 0.44247 0.54982 0.07434 0.0
H811 H 0.46908 0.49253 0.13818 0.0
H812 H 0.35552 0.51529 0.09758 0.0
H813 H 0.38157 0.55387 0.11978 0.0
H814 H 0.39104 0.55173 0.07875 0.0
H815 H 0.43314 0.45967 0.17962 0.0
H816 H 0.41352 0.48188 0.19795 0.0
H817 H 0.38773 0.44449 0.17416 0.0
H818 H 0.33947 0.51753 0.22352 0.0
H819 H 0.28262 0.42853 0.16392 0.0
H820 H 0.40988 0.5634 0.17202 0.0
H821 H 0.4209 0.54 0.19933 0.0
H822 H 0.39683 0.55988 0.21274 0.0
H823 H 0.34036 0.45526 0.10067 0.0
H824 H 0.30594 0.41777 0.11929 0.0
H825 H 0.35036 0.4298 0.12636 0.0
C826 C 0.97822 0.43728 0.62647 0.0
C827 C 0.96059 0.44596 0.60417 0.0
C828 C 0.96012 0.40895 0.64668 0.0
C829 C 0.92361 0.38881 0.64429 0.0
C830 C 0.90599 0.39663 0.62071 0.0
C831 C 0.92466 0.42518 0.60109 0.0
C832 C 0.97987 0.4015 0.6715 0.0
C833 C 0.86722 0.37564 0.61697 0.0
C834 C 0.87738 0.29926 0.68028 0.0
C835 C 0.86464 0.30482 0.7086 0.0
C836 C 0.89665 0.3263 0.65929 0.0
C837 C 0.90366 0.35996 0.66674 0.0
C838 C 0.89081 0.36581 0.69522 0.0
C839 C 0.87133 0.33815 0.71576 0.0
C840 C 0.90945 0.3188 0.62905 0.0
C841 C 0.89778 0.40137 0.70406 0.0
H842 H 0.00592 0.45371 0.62921 0.0
H843 H 0.91102 0.4321 0.58398 0.0
H844 H 0.97218 0.40529 0.69537 0.0
H845 H 0.9735 0.37425 0.66979 0.0
H846 H 0.00824 0.4184 0.66926 0.0
H847 H 0.85769 0.38382 0.59628 0.0
H848 H 0.85886 0.34794 0.61418 0.0
H849 H 0.85479 0.37826 0.63855 0.0
H850 H 0.87231 0.2736 0.6744 0.0
H851 H 0.86179 0.34274 0.73763 0.0
H852 H 0.93799 0.33465 0.62807 0.0
H853 H 0.89893 0.32589 0.60837 0.0
H854 H 0.90192 0.29123 0.62678 0.0
H855 H 0.92602 0.41955 0.7051 0.0
H856 H 0.88654 0.40181 0.72725 0.0
H857 H 0.88685 0.41093 0.6857 0.0
C858 C 0.52679 0.91408 0.08396 0.0
C859 C 0.53612 0.94832 0.09045 0.0
C860 C 0.53571 0.89538 0.10496 0.0
C861 C 0.554 0.91124 0.1333 0.0
C862 C 0.56543 0.94654 0.13882 0.0
C863 C 0.55632 0.96461 0.11733 0.0
C864 C 0.52342 0.858 0.09788 0.0
C865 C 0.58506 0.96457 0.1686 0.0
C866 C 0.5414 0.85632 0.20646 0.0
C867 C 0.57233 0.85558 0.20745 0.0
C868 C 0.53482 0.87383 0.18214 0.0
C869 C 0.55956 0.89063 0.15805 0.0
C870 C 0.59025 0.88894 0.15843 0.0
C871 C 0.59632 0.87166 0.18312 0.0
C872 C 0.50177 0.87512 0.18267 0.0
C873 C 0.61708 0.90601 0.13308 0.0
H874 H 0.51025 0.90115 0.0637 0.0
H875 H 0.56261 0.99075 0.12284 0.0
H876 H 0.54464 0.85233 0.1016 0.0
H877 H 0.50242 0.84152 0.11434 0.0
H878 H 0.51347 0.85077 0.07326 0.0
H879 H 0.5945 0.99267 0.16814 0.0
H880 H 0.56802 0.95333 0.18933 0.0
H881 H 0.60746 0.9607 0.1721 0.0
H882 H 0.52277 0.84403 0.22513 0.0
H883 H 0.62018 0.87099 0.18341 0.0
H884 H 0.48742 0.86506 0.16004 0.0
H885 H 0.50785 0.90223 0.18511 0.0
H886 H 0.48473 0.85995 0.2024 0.0
H887 H 0.60507 0.89707 0.10934 0.0
H888 H 0.63862 0.90059 0.13569 0.0
H889 H 0.6279 0.9343 0.13405 0.0
C890 C 0.57307 0.4674 0.59008 0.0
C891 C 0.56239 0.49125 0.58294 0.0
C892 C 0.60139 0.47603 0.61024 0.0
C893 C 0.62022 0.5097 0.62314 0.0
C894 C 0.61181 0.53492 0.6133 0.0
C895 C 0.58281 0.52534 0.59347 0.0
C896 C 0.60887 0.44807 0.62014 0.0
C897 C 0.63174 0.57136 0.62574 0.0
C898 C 0.65623 0.51992 0.70696 0.0
C899 C 0.69118 0.53115 0.70184 0.0
C900 C 0.63296 0.51225 0.68158 0.0
C901 C 0.64502 0.51694 0.65007 0.0
C902 C 0.6803 0.52796 0.6447 0.0
C903 C 0.70288 0.53451 0.67065 0.0
C904 C 0.59543 0.49946 0.68857 0.0
C905 C 0.69439 0.53392 0.61161 0.0
H906 H 0.55743 0.441 0.5819 0.0
H907 H 0.57464 0.54385 0.58823 0.0
H908 H 0.63697 0.4575 0.61975 0.0
H909 H 0.60007 0.44032 0.64477 0.0
H910 H 0.59543 0.4249 0.60469 0.0
H911 H 0.62605 0.58904 0.61197 0.0
H912 H 0.62477 0.57194 0.65075 0.0
H913 H 0.65991 0.58105 0.6251 0.0
H914 H 0.64707 0.51734 0.73101 0.0
H915 H 0.73 0.54377 0.66656 0.0
H916 H 0.57884 0.47457 0.67623 0.0
H917 H 0.588 0.5181 0.67959 0.0
H918 H 0.58992 0.49579 0.71427 0.0
H919 H 0.67953 0.51036 0.59697 0.0
H920 H 0.72209 0.5414 0.61129 0.0
H921 H 0.69145 0.55464 0.60033 0.0
C922 C 0.08055 0.61578 0.09374 0.0
C923 C 0.05283 0.58565 0.10593 0.0
C924 C 0.0999 0.64504 0.11323 0.0
C925 C 0.09147 0.64402 0.14568 0.0
C926 C 0.06148 0.61474 0.15711 0.0
C927 C 0.04262 0.58604 0.13715 0.0
C928 C 0.13128 0.67578 0.09978 0.0
C929 C 0.05129 0.61212 0.19136 0.0
C930 C 0.16657 0.68712 0.20421 0.0
C931 C 0.16575 0.71667 0.21392 0.0
C932 C 0.14274 0.66373 0.18214 0.0
C933 C 0.11721 0.66986 0.16877 0.0
C934 C 0.11602 0.69961 0.17839 0.0
C935 C 0.14016 0.72258 0.20103 0.0
C936 C 0.1449 0.63221 0.17325 0.0
C937 C 0.08946 0.70729 0.16456 0.0
H938 H 0.0888 0.61555 0.06977 0.0
H939 H 0.02127 0.56274 0.14673 0.0
H940 H 0.1334 0.70012 0.10845 0.0
H941 H 0.15482 0.67547 0.1077 0.0
H942 H 0.13064 0.67559 0.07352 0.0
H943 H 0.02456 0.59069 0.19527 0.0
H944 H 0.06917 0.60744 0.20607 0.0
H945 H 0.05327 0.63648 0.19973 0.0
H946 H 0.18596 0.68199 0.21408 0.0
H947 H 0.1394 0.74539 0.20817 0.0
H948 H 0.14896 0.63194 0.14744 0.0
H949 H 0.12027 0.60854 0.17885 0.0
H950 H 0.16621 0.63113 0.18586 0.0
H951 H 0.09229 0.70972 0.1385 0.0
H952 H 0.09185 0.73139 0.17434 0.0
H953 H 0.06311 0.68568 0.16929 0.0
loop_
_geom_bond_atom_site_label_1
_geom_bond_atom_site_label_2
_geom_bond_distance
_geom_bond_site_symmetry_2
_ccdc_geom_bond_type
H0 C6 0.930 . S
H1 C9 0.931 . S
H2 C11 0.931 1_455 S
H3 C13 0.930 . S
H4 C15 0.930 . S
H5 C17 0.931 . S
C6 H0 0.930 . S
C6 C7 1.380 . S
C6 C8 1.394 . S
C7 C6 1.380 . S
C7 C11 1.382 . S
C8 C6 1.394 . S
C8 C9 1.400 . S
C9 H1 0.931 . S
C9 C8 1.400 . S
C9 C10 1.345 1_655 S
C10 C9 1.345 1_455 S
C10 C11 1.425 1_455 S
C10 C12 1.521 1_556 S
C11 H2 0.931 1_655 S
C11 C7 1.382 . S
C11 C10 1.425 1_655 S
C12 C10 1.521 1_554 S
C12 C13 1.384 . S
C12 C17 1.408 . S
C13 H3 0.930 . S
C13 C12 1.384 . S
C13 C14 1.389 . S
C14 C13 1.389 . S
C14 C15 1.405 . S
C15 H4 0.930 . S
C15 C14 1.405 . S
C15 C16 1.364 . S
C16 C15 1.364 . S
C16 C17 1.400 . S
C17 H5 0.931 . S
C17 C12 1.408 . S
C17 C16 1.400 . S
H18 C24 0.930 . S
H19 C27 0.931 . S
H20 C29 0.931 . S
H21 C31 0.930 1_545 S
H22 C33 0.930 . S
H23 C35 0.931 . S
C24 H18 0.930 . S
C24 C25 1.380 . S
C24 C26 1.394 . S
C25 C24 1.380 . S
C25 C29 1.382 . S
C26 C24 1.394 . S
C26 C27 1.400 . S
C27 H19 0.931 . S
C27 C26 1.400 . S
C27 C28 1.375 . S
C28 C27 1.375 . S
C28 C29 1.415 . S
C28 C30 1.501 . S
C29 H20 0.931 . S
C29 C25 1.382 . S
C29 C28 1.415 . S
C30 C28 1.501 . S
C30 C31 1.384 1_545 S
C30 C35 1.408 1_545 S
C31 H21 0.930 1_565 S
C31 C30 1.384 1_565 S
C31 C32 1.389 . S
C32 C31 1.389 . S
C32 C33 1.405 . S
C33 H22 0.930 . S
C33 C32 1.405 . S
C33 C34 1.364 . S
C34 C33 1.364 . S
C34 C35 1.400 . S
C35 H23 0.931 . S
C35 C30 1.408 1_565 S
C35 C34 1.400 . S
H36 C42 0.930 . S
H37 C45 0.931 . S
H38 C47 0.931 . S
H39 C49 0.930 . S
H40 C51 0.930 . S
H41 C53 0.931 . S
C42 H36 0.930 . S
C42 C43 1.380 . S
C42 C44 1.394 . S
C43 C42 1.380 . S
C43 C47 1.382 . S
C44 C42 1.394 . S
C44 C45 1.400 . S
C45 H37 0.931 . S
C45 C44 1.400 . S
C45 C46 1.375 . S
C46 C45 1.375 . S
C46 C47 1.415 . S
C46 C48 1.501 1_554 S
C47 H38 0.931 . S
C47 C43 1.382 . S
C47 C46 1.415 . S
C48 C46 1.501 1_556 S
C48 C49 1.384 . S
C48 C53 1.408 . S
C49 H39 0.930 . S
C49 C48 1.384 . S
C49 C50 1.389 . S
C50 C49 1.389 . S
C50 C51 1.405 . S
C51 H40 0.930 . S
C51 C50 1.405 . S
C51 C52 1.364 . S
C52 C51 1.364 . S
C52 C53 1.400 . S
C53 H41 0.931 . S
C53 C48 1.408 . S
C53 C52 1.400 . S
H54 C60 0.930 . S
H55 C63 0.931 . S
H56 C65 0.931 . S
H57 C67 0.930 . S
H58 C69 0.930 . S
H59 C71 0.931 . S
C60 H54 0.930 . S
C60 C61 1.380 . S
C60 C62 1.394 . S
C61 C60 1.380 . S
C61 C65 1.382 . S
C62 C60 1.394 . S
C62 C63 1.400 . S
C63 H55 0.931 . S
C63 C62 1.400 . S
C63 C64 1.375 . S
C64 C63 1.375 . S
C64 C65 1.415 . S
C64 C66 1.501 1_655 S
C65 H56 0.931 . S
C65 C61 1.382 . S
C65 C64 1.415 . S
C66 C64 1.501 1_455 S
C66 C67 1.384 . S
C66 C71 1.408 . S
C67 H57 0.930 . S
C67 C66 1.384 . S
C67 C68 1.389 . S
C68 C67 1.389 . S
C68 C69 1.405 . S
C69 H58 0.930 . S
C69 C68 1.405 . S
C69 C70 1.364 . S
C70 C69 1.364 . S
C70 C71 1.400 . S
C71 H59 0.931 . S
C71 C66 1.408 . S
C71 C70 1.400 . S
H72 C78 0.930 . S
H73 C81 0.931 . S
H74 C83 0.931 . S
H75 C85 0.930 . S
H76 C87 0.930 . S
H77 C89 0.931 . S
C78 H72 0.930 . S
C78 C79 1.380 . S
C78 C80 1.394 . S
C79 C78 1.380 . S
C79 C83 1.382 . S
C80 C78 1.394 . S
C80 C81 1.400 . S
C81 H73 0.931 . S
C81 C80 1.400 . S
C81 C82 1.375 . S
C82 C81 1.375 . S
C82 C83 1.415 . S
C82 C84 1.501 1_564 S
C83 H74 0.931 . S
C83 C79 1.382 . S
C83 C82 1.415 . S
C84 C82 1.501 1_546 S
C84 C85 1.384 . S
C84 C89 1.408 . S
C85 H75 0.930 . S
C85 C84 1.384 . S
C85 C86 1.389 . S
C86 C85 1.389 . S
C86 C87 1.405 . S
C87 H76 0.930 . S
C87 C86 1.405 . S
C87 C88 1.364 . S
C88 C87 1.364 . S
C88 C89 1.400 . S
C89 H77 0.931 . S
C89 C84 1.408 . S
C89 C88 1.400 . S
H90 C96 0.930 . S
H91 C99 0.931 . S
H92 C101 0.931 . S
H93 C103 0.930 . S
H94 C105 0.930 . S
H95 C107 0.931 . S
C96 H90 0.930 . S
C96 C97 1.380 . S
C96 C98 1.394 . S
C97 C96 1.380 . S
C97 C101 1.382 . S
C98 C96 1.394 . S
C98 C99 1.400 . S
C99 H91 0.931 . S
C99 C98 1.400 . S
C99 C100 1.375 . S
C100 C99 1.375 . S
C100 C101 1.415 . S
C100 C102 1.501 . S
C101 H92 0.931 . S
C101 C97 1.382 . S
C101 C100 1.415 . S
C102 C100 1.501 . S
C102 C103 1.384 . S
C102 C107 1.408 . S
C103 H93 0.930 . S
C103 C102 1.384 . S
C103 C104 1.389 . S
C104 C103 1.389 . S
C104 C105 1.405 . S
C105 H94 0.930 . S
C105 C104 1.405 . S
C105 C106 1.364 . S
C106 C105 1.364 . S
C106 C107 1.400 . S
C107 H95 0.931 . S
C107 C102 1.408 . S
C107 C106 1.400 . S
Mg108 O115 2.141 . S
Mg108 O116 2.048 . S
Mg108 O117 2.048 . S
Mg108 O120 2.141 . S
C109 O110 1.313 . S
C109 O116 1.195 . S
O110 C109 1.313 . S
C111 O112 1.245 . S
C111 O120 1.289 . S
O112 C111 1.245 . S
C113 O114 1.245 . S
C113 O115 1.289 . S
O114 C113 1.245 . S
O115 Mg108 2.141 . S
O115 C113 1.289 . S
O116 Mg108 2.048 . S
O116 C109 1.195 . S
O117 Mg108 2.048 . S
O117 C118 1.195 . S
C118 O117 1.195 . S
C118 O119 1.313 . S
O119 C118 1.313 . S
O120 Mg108 2.141 . S
O120 C111 1.289 . S
Mg121 O128 2.141 . S
Mg121 O129 2.048 . S
Mg121 O130 2.048 . S
Mg121 O133 2.141 . S
C122 O123 1.313 . S
C122 O129 1.195 . S
O123 C122 1.313 . S
C124 O125 1.245 . S
C124 O133 1.289 . S
O125 C124 1.245 . S
C126 O127 1.245 . S
C126 O128 1.289 . S
O127 C126 1.245 . S
O128 Mg121 2.141 . S
O128 C126 1.289 . S
O129 Mg121 2.048 . S
O129 C122 1.195 . S
O130 Mg121 2.048 . S
O130 C131 1.195 . S
C131 O130 1.195 . S
C131 O132 1.313 . S
O132 C131 1.313 . S
O133 Mg121 2.141 . S
O133 C124 1.289 . S
Mg134 O141 2.141 . S
Mg134 O142 2.048 . S
Mg134 O143 2.048 . S
Mg134 O146 2.141 . S
C135 O136 1.313 . S
C135 O142 1.195 . S
O136 C135 1.313 . S
C137 O138 1.245 . S
C137 O146 1.289 . S
O138 C137 1.245 . S
C139 O140 1.245 . S
C139 O141 1.289 . S
O140 C139 1.245 . S
O141 Mg134 2.141 . S
O141 C139 1.289 . S
O142 Mg134 2.048 . S
O142 C135 1.195 . S
O143 Mg134 2.048 . S
O143 C144 1.195 . S
C144 O143 1.195 . S
C144 O145 1.313 . S
O145 C144 1.313 . S
O146 Mg134 2.141 . S
O146 C137 1.289 . S
Mg147 O154 2.141 . S
Mg147 O155 2.048 . S
Mg147 O156 2.048 . S
Mg147 O159 2.141 . S
C148 O149 1.313 . S
C148 O155 1.195 . S
O149 C148 1.313 . S
C150 O151 1.245 . S
C150 O159 1.289 . S
O151 C150 1.245 . S
C152 O153 1.245 . S
C152 O154 1.289 . S
O153 C152 1.245 . S
O154 Mg147 2.141 . S
O154 C152 1.289 . S
O155 Mg147 2.048 . S
O155 C148 1.195 . S
O156 Mg147 2.048 . S
O156 C157 1.195 . S
C157 O156 1.195 . S
C157 O158 1.313 . S
O158 C157 1.313 . S
O159 Mg147 2.141 . S
O159 C150 1.289 . S
Mg160 O167 2.141 . S
Mg160 O168 2.048 . S
Mg160 O169 2.048 . S
Mg160 O172 2.141 . S
C161 O162 1.313 . S
C161 O168 1.195 . S
O162 C161 1.313 . S
C163 O164 1.245 . S
C163 O172 1.289 . S
O164 C163 1.245 . S
C165 O166 1.245 . S
C165 O167 1.289 . S
O166 C165 1.245 . S
O167 Mg160 2.141 . S
O167 C165 1.289 . S
O168 Mg160 2.048 . S
O168 C161 1.195 . S
O169 Mg160 2.048 . S
O169 C170 1.195 . S
C170 O169 1.195 . S
C170 O171 1.313 . S
O171 C170 1.313 . S
O172 Mg160 2.141 . S
O172 C163 1.289 . S
Mg173 O180 2.141 . S
Mg173 O181 2.048 . S
Mg173 O182 2.048 . S
Mg173 O185 2.141 . S
C174 O175 1.313 . S
C174 O181 1.195 . S
O175 C174 1.313 . S
C176 O177 1.245 . S
C176 O185 1.289 . S
O177 C176 1.245 . S
C178 O179 1.245 . S
C178 O180 1.289 . S
O179 C178 1.245 . S
O180 Mg173 2.141 . S
O180 C178 1.289 . S
O181 Mg173 2.048 . S
O181 C174 1.195 . S
O182 Mg173 2.048 . S
O182 C183 1.195 . S
C183 O182 1.195 . S
C183 O184 1.313 . S
O184 C183 1.313 . S
O185 Mg173 2.141 . S
O185 C176 1.289 . S
C186 C187 1.391 . S
C186 C188 1.394 . S
C186 H202 0.931 . S
C187 C186 1.391 . S
C187 C191 1.376 . S
C188 C186 1.394 . S
C188 C189 1.369 . S
C188 C192 1.531 . S
C189 C188 1.369 . S
C189 C190 1.410 . S
C189 C197 1.503 . S
C190 C189 1.410 . S
C190 C191 1.392 . S
C190 C193 1.511 . S
C191 C187 1.376 . S
C191 C190 1.392 . S
C191 H203 0.929 . S
C192 C188 1.531 . S
C192 H204 0.960 . S
C192 H205 0.962 . S
C192 H206 0.960 . S
C193 C190 1.511 . S
C193 H207 0.961 . S
C193 H208 0.961 . S
C193 H209 0.961 . S
C194 C195 1.370 . S
C194 C196 1.363 . S
C194 H210 0.931 . S
C195 C194 1.370 . S
C195 C199 1.408 . S
C196 C194 1.363 . S
C196 C197 1.370 . S
C196 C200 1.524 . S
C197 C189 1.503 . S
C197 C196 1.370 . S
C197 C198 1.403 . S
C198 C197 1.403 . S
C198 C199 1.404 . S
C198 C201 1.539 . S
C199 C195 1.408 . S
C199 C198 1.404 . S
C199 H211 0.930 . S
C200 C196 1.524 . S
C200 H212 0.956 . S
C200 H213 0.961 . S
C200 H214 0.961 . S
C201 C198 1.539 . S
C201 H215 0.958 . S
C201 H216 0.961 . S
C201 H217 0.960 . S
H202 C186 0.931 . S
H203 C191 0.929 . S
H204 C192 0.960 . S
H205 C192 0.962 . S
H206 C192 0.960 . S
H207 C193 0.961 . S
H208 C193 0.961 . S
H209 C193 0.961 . S
H210 C194 0.931 . S
H211 C199 0.930 . S
H212 C200 0.956 . S
H213 C200 0.961 . S
H214 C200 0.961 . S
H215 C201 0.958 . S
H216 C201 0.961 . S
H217 C201 0.960 . S
C218 C219 1.391 . S
C218 C220 1.394 . S
C218 H234 0.931 . S
C219 C218 1.391 . S
C219 C223 1.376 . S
C220 C218 1.394 . S
C220 C221 1.369 . S
C220 C224 1.531 . S
C221 C220 1.369 . S
C221 C222 1.410 . S
C221 C229 1.503 . S
C222 C221 1.410 . S
C222 C223 1.392 . S
C222 C225 1.511 . S
C223 C219 1.376 . S
C223 C222 1.392 . S
C223 H235 0.929 . S
C224 C220 1.531 . S
C224 H236 0.960 . S
C224 H237 0.962 . S
C224 H238 0.960 . S
C225 C222 1.511 . S
C225 H239 0.961 . S
C225 H240 0.961 . S
C225 H241 0.961 . S
C226 C227 1.370 . S
C226 C228 1.363 . S
C226 H242 0.931 . S
C227 C226 1.370 . S
C227 C231 1.408 . S
C228 C226 1.363 . S
C228 C229 1.370 . S
C228 C232 1.524 . S
C229 C221 1.503 . S
C229 C228 1.370 . S
C229 C230 1.403 . S
C230 C229 1.403 . S
C230 C231 1.404 . S
C230 C233 1.539 . S
C231 C227 1.408 . S
C231 C230 1.404 . S
C231 H243 0.930 . S
C232 C228 1.524 . S
C232 H244 0.956 . S
C232 H245 0.961 . S
C232 H246 0.961 . S
C233 C230 1.539 . S
C233 H247 0.958 . S
C233 H248 0.961 . S
C233 H249 0.960 . S
H234 C218 0.931 . S
H235 C223 0.929 . S
H236 C224 0.960 . S
H237 C224 0.962 . S
H238 C224 0.960 . S
H239 C225 0.961 . S
H240 C225 0.961 . S
H241 C225 0.961 . S
H242 C226 0.931 . S
H243 C231 0.930 . S
H244 C232 0.956 . S
H245 C232 0.961 . S
H246 C232 0.961 . S
H247 C233 0.958 . S
H248 C233 0.961 . S
H249 C233 0.960 . S
C250 C251 1.391 . S
C250 C252 1.394 . S
C250 H266 0.931 . S
C251 C250 1.391 . S
C251 C255 1.376 . S
C252 C250 1.394 . S
C252 C253 1.369 . S
C252 C256 1.531 . S
C253 C252 1.369 . S
C253 C254 1.410 . S
C253 C261 1.503 . S
C254 C253 1.410 . S
C254 C255 1.392 . S
C254 C257 1.511 . S
C255 C251 1.376 . S
C255 C254 1.392 . S
C255 H267 0.929 . S
C256 C252 1.531 . S
C256 H268 0.960 . S
C256 H269 0.962 . S
C256 H270 0.960 . S
C257 C254 1.511 . S
C257 H271 0.961 . S
C257 H272 0.961 . S
C257 H273 0.961 . S
C258 C259 1.370 . S
C258 C260 1.363 . S
C258 H274 0.931 . S
C259 C258 1.370 . S
C259 C263 1.408 . S
C260 C258 1.363 . S
C260 C261 1.370 . S
C260 C264 1.524 . S
C261 C253 1.503 . S
C261 C260 1.370 . S
C261 C262 1.403 . S
C262 C261 1.403 . S
C262 C263 1.404 . S
C262 C265 1.539 . S
C263 C259 1.408 . S
C263 C262 1.404 . S
C263 H275 0.930 . S
C264 C260 1.524 . S
C264 H276 0.956 . S
C264 H277 0.961 . S
C264 H278 0.961 . S
C265 C262 1.539 . S
C265 H279 0.958 . S
C265 H280 0.961 . S
C265 H281 0.960 . S
H266 C250 0.931 . S
H267 C255 0.929 . S
H268 C256 0.960 . S
H269 C256 0.962 . S
H270 C256 0.960 . S
H271 C257 0.961 . S
H272 C257 0.961 . S
H273 C257 0.961 . S
H274 C258 0.931 . S
H275 C263 0.930 . S
H276 C264 0.956 . S
H277 C264 0.961 . S
H278 C264 0.961 . S
H279 C265 0.958 . S
H280 C265 0.961 . S
H281 C265 0.960 . S
C282 C283 1.391 . S
C282 C284 1.394 . S
C282 H298 0.931 . S
C283 C282 1.391 . S
C283 C287 1.376 . S
C284 C282 1.394 . S
C284 C285 1.369 . S
C284 C288 1.531 . S
C285 C284 1.369 . S
C285 C286 1.410 . S
C285 C293 1.503 . S
C286 C285 1.410 . S
C286 C287 1.392 . S
C286 C289 1.511 . S
C287 C283 1.376 . S
C287 C286 1.392 . S
C287 H299 0.929 . S
C288 C284 1.531 . S
C288 H300 0.960 . S
C288 H301 0.962 . S
C288 H302 0.960 . S
C289 C286 1.511 . S
C289 H303 0.961 . S
C289 H304 0.961 . S
C289 H305 0.961 . S
C290 C291 1.370 . S
C290 C292 1.363 . S
C290 H306 0.931 . S
C291 C290 1.370 . S
C291 C295 1.408 . S
C292 C290 1.363 . S
C292 C293 1.370 . S
C292 C296 1.524 . S
C293 C285 1.503 . S
C293 C292 1.370 . S
C293 C294 1.403 . S
C294 C293 1.403 . S
C294 C295 1.404 . S
C294 C297 1.539 . S
C295 C291 1.408 . S
C295 C294 1.404 . S
C295 H307 0.930 . S
C296 C292 1.524 . S
C296 H308 0.956 . S
C296 H309 0.961 . S
C296 H310 0.961 . S
C297 C294 1.539 . S
C297 H311 0.958 . S
C297 H312 0.961 . S
C297 H313 0.960 . S
H298 C282 0.931 . S
H299 C287 0.929 . S
H300 C288 0.960 . S
H301 C288 0.962 . S
H302 C288 0.960 . S
H303 C289 0.961 . S
H304 C289 0.961 . S
H305 C289 0.961 . S
H306 C290 0.931 . S
H307 C295 0.930 . S
H308 C296 0.956 . S
H309 C296 0.961 . S
H310 C296 0.961 . S
H311 C297 0.958 . S
H312 C297 0.961 . S
H313 C297 0.960 . S
C314 C315 1.391 . S
C314 C316 1.394 . S
C314 H330 0.931 . S
C315 C314 1.391 . S
C315 C319 1.376 . S
C316 C314 1.394 . S
C316 C317 1.369 . S
C316 C320 1.531 . S
C317 C316 1.369 . S
C317 C318 1.410 . S
C317 C325 1.503 . S
C318 C317 1.410 . S
C318 C319 1.392 . S
C318 C321 1.511 . S
C319 C315 1.376 . S
C319 C318 1.392 . S
C319 H331 0.929 . S
C320 C316 1.531 . S
C320 H332 0.960 . S
C320 H333 0.962 . S
C320 H334 0.960 . S
C321 C318 1.511 . S
C321 H335 0.961 . S
C321 H336 0.961 . S
C321 H337 0.961 . S
C322 C323 1.370 . S
C322 C324 1.363 . S
C322 H338 0.931 . S
C323 C322 1.370 . S
C323 C327 1.408 . S
C324 C322 1.363 . S
C324 C325 1.370 . S
C324 C328 1.524 . S
C325 C317 1.503 . S
C325 C324 1.370 . S
C325 C326 1.403 . S
C326 C325 1.403 . S
C326 C327 1.404 . S
C326 C329 1.539 . S
C327 C323 1.408 . S
C327 C326 1.404 . S
C327 H339 0.930 . S
C328 C324 1.524 . S
C328 H340 0.956 . S
C328 H341 0.961 . S
C328 H342 0.961 . S
C329 C326 1.539 . S
C329 H343 0.958 . S
C329 H344 0.961 . S
C329 H345 0.960 . S
H330 C314 0.931 . S
H331 C319 0.929 . S
H332 C320 0.960 . S
H333 C320 0.962 . S
H334 C320 0.960 . S
H335 C321 0.961 . S
H336 C321 0.961 . S
H337 C321 0.961 . S
H338 C322 0.931 . S
H339 C327 0.930 . S
H340 C328 0.956 . S
H341 C328 0.961 . S
H342 C328 0.961 . S
H343 C329 0.958 . S
H344 C329 0.961 . S
H345 C329 0.960 . S
C346 C347 1.391 . S
C346 C348 1.394 . S
C346 H362 0.931 . S
C347 C346 1.391 . S
C347 C351 1.376 . S
C348 C346 1.394 . S
C348 C349 1.369 . S
C348 C352 1.531 . S
C349 C348 1.369 . S
C349 C350 1.410 . S
C349 C357 1.503 . S
C350 C349 1.410 . S
C350 C351 1.392 . S
C350 C353 1.511 . S
C351 C347 1.376 . S
C351 C350 1.392 . S
C351 H363 0.929 . S
C352 C348 1.531 . S
C352 H364 0.960 . S
C352 H365 0.962 . S
C352 H366 0.960 . S
C353 C350 1.511 . S
C353 H367 0.961 . S
C353 H368 0.961 . S
C353 H369 0.961 . S
C354 C355 1.370 . S
C354 C356 1.363 . S
C354 H370 0.931 . S
C355 C354 1.370 . S
C355 C359 1.408 . S
C356 C354 1.363 . S
C356 C357 1.370 . S
C356 C360 1.524 . S
C357 C349 1.503 . S
C357 C356 1.370 . S
C357 C358 1.403 . S
C358 C357 1.403 . S
C358 C359 1.404 . S
C358 C361 1.539 . S
C359 C355 1.408 . S
C359 C358 1.404 . S
C359 H371 0.930 . S
C360 C356 1.524 . S
C360 H372 0.956 . S
C360 H373 0.961 . S
C360 H374 0.961 . S
C361 C358 1.539 . S
C361 H375 0.958 . S
C361 H376 0.961 . S
C361 H377 0.960 . S
H362 C346 0.931 . S
H363 C351 0.929 . S
H364 C352 0.960 . S
H365 C352 0.962 . S
H366 C352 0.960 . S
H367 C353 0.961 . S
H368 C353 0.961 . S
H369 C353 0.961 . S
H370 C354 0.931 . S
H371 C359 0.930 . S
H372 C360 0.956 . S
H373 C360 0.961 . S
H374 C360 0.961 . S
H375 C361 0.958 . S
H376 C361 0.961 . S
H377 C361 0.960 . S
C378 C379 1.391 . S
C378 C380 1.394 . S
C378 H394 0.931 . S
C379 C378 1.391 . S
C379 C383 1.376 . S
C380 C378 1.394 . S
C380 C381 1.369 . S
C380 C384 1.531 . S
C381 C380 1.369 . S
C381 C382 1.410 . S
C381 C389 1.503 . S
C382 C381 1.410 . S
C382 C383 1.392 . S
C382 C385 1.511 . S
C383 C379 1.376 . S
C383 C382 1.392 . S
C383 H395 0.929 . S
C384 C380 1.531 . S
C384 H396 0.960 . S
C384 H397 0.962 . S
C384 H398 0.960 . S
C385 C382 1.511 . S
C385 H399 0.961 . S
C385 H400 0.961 . S
C385 H401 0.961 . S
C386 C387 1.370 . S
C386 C388 1.363 . S
C386 H402 0.931 . S
C387 C386 1.370 . S
C387 C391 1.408 . S
C388 C386 1.363 . S
C388 C389 1.370 . S
C388 C392 1.524 . S
C389 C381 1.503 . S
C389 C388 1.370 . S
C389 C390 1.403 . S
C390 C389 1.403 . S
C390 C391 1.404 . S
C390 C393 1.539 . S
C391 C387 1.408 . S
C391 C390 1.404 . S
C391 H403 0.930 . S
C392 C388 1.524 . S
C392 H404 0.956 . S
C392 H405 0.961 . S
C392 H406 0.961 . S
C393 C390 1.539 . S
C393 H407 0.958 . S
C393 H408 0.961 . S
C393 H409 0.960 . S
H394 C378 0.931 . S
H395 C383 0.929 . S
H396 C384 0.960 . S
H397 C384 0.962 . S
H398 C384 0.960 . S
H399 C385 0.961 . S
H400 C385 0.961 . S
H401 C385 0.961 . S
H402 C386 0.931 . S
H403 C391 0.930 . S
H404 C392 0.956 . S
H405 C392 0.961 . S
H406 C392 0.961 . S
H407 C393 0.958 . S
H408 C393 0.961 . S
H409 C393 0.960 . S
C410 C411 1.391 . S
C410 C412 1.394 . S
C410 H426 0.931 . S
C411 C410 1.391 . S
C411 C415 1.376 . S
C412 C410 1.394 . S
C412 C413 1.369 . S
C412 C416 1.531 . S
C413 C412 1.369 . S
C413 C414 1.410 . S
C413 C421 1.503 . S
C414 C413 1.410 . S
C414 C415 1.392 . S
C414 C417 1.511 . S
C415 C411 1.376 . S
C415 C414 1.392 . S
C415 H427 0.929 . S
C416 C412 1.531 . S
C416 H428 0.960 . S
C416 H429 0.962 . S
C416 H430 0.960 . S
C417 C414 1.511 . S
C417 H431 0.961 . S
C417 H432 0.961 . S
C417 H433 0.961 . S
C418 C419 1.370 . S
C418 C420 1.363 . S
C418 H434 0.931 . S
C419 C418 1.370 . S
C419 C423 1.408 . S
C420 C418 1.363 . S
C420 C421 1.370 . S
C420 C424 1.524 . S
C421 C413 1.503 . S
C421 C420 1.370 . S
C421 C422 1.403 . S
C422 C421 1.403 . S
C422 C423 1.404 . S
C422 C425 1.539 . S
C423 C419 1.408 . S
C423 C422 1.404 . S
C423 H435 0.930 . S
C424 C420 1.524 . S
C424 H436 0.956 . S
C424 H437 0.961 . S
C424 H438 0.961 . S
C425 C422 1.539 . S
C425 H439 0.958 . S
C425 H440 0.961 . S
C425 H441 0.960 . S
H426 C410 0.931 . S
H427 C415 0.929 . S
H428 C416 0.960 . S
H429 C416 0.962 . S
H430 C416 0.960 . S
H431 C417 0.961 . S
H432 C417 0.961 . S
H433 C417 0.961 . S
H434 C418 0.931 . S
H435 C423 0.930 . S
H436 C424 0.956 . S
H437 C424 0.961 . S
H438 C424 0.961 . S
H439 C425 0.958 . S
H440 C425 0.961 . S
H441 C425 0.960 . S
C442 C443 1.391 . S
C442 C444 1.394 . S
C442 H458 0.931 . S
C443 C442 1.391 . S
C443 C447 1.376 . S
C444 C442 1.394 . S
C444 C445 1.369 . S
C444 C448 1.531 . S
C445 C444 1.369 . S
C445 C446 1.410 . S
C445 C453 1.503 . S
C446 C445 1.410 . S
C446 C447 1.392 . S
C446 C449 1.511 . S
C447 C443 1.376 . S
C447 C446 1.392 . S
C447 H459 0.929 . S
C448 C444 1.531 . S
C448 H460 0.960 . S
C448 H461 0.962 . S
C448 H462 0.960 . S
C449 C446 1.511 . S
C449 H463 0.961 . S
C449 H464 0.961 . S
C449 H465 0.961 . S
C450 C451 1.370 . S
C450 C452 1.363 . S
C450 H466 0.931 . S
C451 C450 1.370 . S
C451 C455 1.408 . S
C452 C450 1.363 . S
C452 C453 1.370 . S
C452 C456 1.524 . S
C453 C445 1.503 . S
C453 C452 1.370 . S
C453 C454 1.403 . S
C454 C453 1.403 . S
C454 C455 1.404 . S
C454 C457 1.539 . S
C455 C451 1.408 . S
C455 C454 1.404 . S
C455 H467 0.930 . S
C456 C452 1.524 . S
C456 H468 0.956 . S
C456 H469 0.961 . S
C456 H470 0.961 . S
C457 C454 1.539 . S
C457 H471 0.958 . S
C457 H472 0.961 . S
C457 H473 0.960 . S
H458 C442 0.931 . S
H459 C447 0.929 . S
H460 C448 0.960 . S
H461 C448 0.962 . S
H462 C448 0.960 . S
H463 C449 0.961 . S
H464 C449 0.961 . S
H465 C449 0.961 . S
H466 C450 0.931 . S
H467 C455 0.930 . S
H468 C456 0.956 . S
H469 C456 0.961 . S
H470 C456 0.961 . S
H471 C457 0.958 . S
H472 C457 0.961 . S
H473 C457 0.960 . S
C474 C475 1.391 . S
C474 C476 1.394 . S
C474 H490 0.931 . S
C475 C474 1.391 . S
C475 C479 1.376 . S
C476 C474 1.394 . S
C476 C477 1.369 . S
C476 C480 1.531 . S
C477 C476 1.369 . S
C477 C478 1.410 . S
C477 C485 1.503 . S
C478 C477 1.410 . S
C478 C479 1.392 . S
C478 C481 1.511 . S
C479 C475 1.376 . S
C479 C478 1.392 . S
C479 H491 0.929 . S
C480 C476 1.531 . S
C480 H492 0.960 . S
C480 H493 0.962 . S
C480 H494 0.960 . S
C481 C478 1.511 . S
C481 H495 0.961 . S
C481 H496 0.961 . S
C481 H497 0.961 . S
C482 C483 1.370 . S
C482 C484 1.363 . S
C482 H498 0.931 . S
C483 C482 1.370 . S
C483 C487 1.408 . S
C484 C482 1.363 . S
C484 C485 1.370 . S
C484 C488 1.524 . S
C485 C477 1.503 . S
C485 C484 1.370 . S
C485 C486 1.403 . S
C486 C485 1.403 . S
C486 C487 1.404 . S
C486 C489 1.539 . S
C487 C483 1.408 . S
C487 C486 1.404 . S
C487 H499 0.930 . S
C488 C484 1.524 . S
C488 H500 0.956 . S
C488 H501 0.961 . S
C488 H502 0.961 . S
C489 C486 1.539 . S
C489 H503 0.958 . S
C489 H504 0.961 . S
C489 H505 0.960 . S
H490 C474 0.931 . S
H491 C479 0.929 . S
H492 C480 0.960 . S
H493 C480 0.962 . S
H494 C480 0.960 . S
H495 C481 0.961 . S
H496 C481 0.961 . S
H497 C481 0.961 . S
H498 C482 0.931 . S
H499 C487 0.930 . S
H500 C488 0.956 . S
H501 C488 0.961 . S
H502 C488 0.961 . S
H503 C489 0.958 . S
H504 C489 0.961 . S
H505 C489 0.960 . S
C506 C507 1.391 . S
C506 C508 1.394 . S
C506 H522 0.931 . S
C507 C506 1.391 . S
C507 C511 1.376 . S
C508 C506 1.394 . S
C508 C509 1.369 . S
C508 C512 1.531 . S
C509 C508 1.369 . S
C509 C510 1.410 . S
C509 C517 1.503 . S
C510 C509 1.410 . S
C510 C511 1.392 . S
C510 C513 1.511 . S
C511 C507 1.376 . S
C511 C510 1.392 . S
C511 H523 0.929 . S
C512 C508 1.531 . S
C512 H524 0.960 . S
C512 H525 0.962 . S
C512 H526 0.960 . S
C513 C510 1.511 . S
C513 H527 0.961 . S
C513 H528 0.961 . S
C513 H529 0.961 . S
C514 C515 1.370 . S
C514 C516 1.363 . S
C514 H530 0.931 . S
C515 C514 1.370 . S
C515 C519 1.408 . S
C516 C514 1.363 . S
C516 C517 1.370 . S
C516 C520 1.524 . S
C517 C509 1.503 . S
C517 C516 1.370 . S
C517 C518 1.403 . S
C518 C517 1.403 . S
C518 C519 1.404 . S
C518 C521 1.539 . S
C519 C515 1.408 . S
C519 C518 1.404 . S
C519 H531 0.930 . S
C520 C516 1.524 . S
C520 H532 0.956 . S
C520 H533 0.961 . S
C520 H534 0.961 . S
C521 C518 1.539 . S
C521 H535 0.958 . S
C521 H536 0.961 . S
C521 H537 0.960 . S
H522 C506 0.931 . S
H523 C511 0.929 . S
H524 C512 0.960 . S
H525 C512 0.962 . S
H526 C512 0.960 . S
H527 C513 0.961 . S
H528 C513 0.961 . S
H529 C513 0.961 . S
H530 C514 0.931 . S
H531 C519 0.930 . S
H532 C520 0.956 . S
H533 C520 0.961 . S
H534 C520 0.961 . S
H535 C521 0.958 . S
H536 C521 0.961 . S
H537 C521 0.960 . S
C538 C539 1.391 . S
C538 C540 1.394 . S
C538 H554 0.931 . S
C539 C538 1.391 . S
C539 C543 1.376 . S
C540 C538 1.394 . S
C540 C541 1.369 . S
C540 C544 1.531 . S
C541 C540 1.369 . S
C541 C542 1.410 . S
C541 C549 1.503 . S
C542 C541 1.410 . S
C542 C543 1.392 . S
C542 C545 1.511 . S
C543 C539 1.376 . S
C543 C542 1.392 . S
C543 H555 0.929 . S
C544 C540 1.531 . S
C544 H556 0.960 . S
C544 H557 0.962 . S
C544 H558 0.960 . S
C545 C542 1.511 . S
C545 H559 0.961 . S
C545 H560 0.961 . S
C545 H561 0.961 . S
C546 C547 1.370 . S
C546 C548 1.363 . S
C546 H562 0.931 . S
C547 C546 1.370 . S
C547 C551 1.408 . S
C548 C546 1.363 . S
C548 C549 1.370 . S
C548 C552 1.524 . S
C549 C541 1.503 . S
C549 C548 1.370 . S
C549 C550 1.403 . S
C550 C549 1.403 . S
C550 C551 1.404 . S
C550 C553 1.539 . S
C551 C547 1.408 . S
C551 C550 1.404 . S
C551 H563 0.930 . S
C552 C548 1.524 . S
C552 H564 0.956 . S
C552 H565 0.961 . S
C552 H566 0.961 . S
C553 C550 1.539 . S
C553 H567 0.958 . S
C553 H568 0.961 . S
C553 H569 0.960 . S
H554 C538 0.931 . S
H555 C543 0.929 . S
H556 C544 0.960 . S
H557 C544 0.962 . S
H558 C544 0.960 . S
H559 C545 0.961 . S
H560 C545 0.961 . S
H561 C545 0.961 . S
H562 C546 0.931 . S
H563 C551 0.930 . S
H564 C552 0.956 . S
H565 C552 0.961 . S
H566 C552 0.961 . S
H567 C553 0.958 . S
H568 C553 0.961 . S
H569 C553 0.960 . S
C570 C571 1.391 . S
C570 C572 1.394 . S
C570 H586 0.931 . S
C571 C570 1.391 . S
C571 C575 1.376 . S
C572 C570 1.394 . S
C572 C573 1.369 . S
C572 C576 1.531 . S
C573 C572 1.369 . S
C573 C574 1.410 . S
C573 C581 1.503 . S
C574 C573 1.410 . S
C574 C575 1.392 . S
C574 C577 1.511 . S
C575 C571 1.376 . S
C575 C574 1.392 . S
C575 H587 0.929 . S
C576 C572 1.531 . S
C576 H588 0.960 . S
C576 H589 0.962 . S
C576 H590 0.960 . S
C577 C574 1.511 . S
C577 H591 0.961 . S
C577 H592 0.961 . S
C577 H593 0.961 . S
C578 C579 1.370 . S
C578 C580 1.363 . S
C578 H594 0.931 . S
C579 C578 1.370 . S
C579 C583 1.408 . S
C580 C578 1.363 . S
C580 C581 1.370 . S
C580 C584 1.524 . S
C581 C573 1.503 . S
C581 C580 1.370 . S
C581 C582 1.403 . S
C582 C581 1.403 . S
C582 C583 1.404 . S
C582 C585 1.539 . S
C583 C579 1.408 . S
C583 C582 1.404 . S
C583 H595 0.930 . S
C584 C580 1.524 . S
C584 H596 0.956 . S
C584 H597 0.961 . S
C584 H598 0.961 . S
C585 C582 1.539 . S
C585 H599 0.958 . S
C585 H600 0.961 . S
C585 H601 0.960 . S
H586 C570 0.931 . S
H587 C575 0.929 . S
H588 C576 0.960 . S
H589 C576 0.962 . S
H590 C576 0.960 . S
H591 C577 0.961 . S
H592 C577 0.961 . S
H593 C577 0.961 . S
H594 C578 0.931 . S
H595 C583 0.930 . S
H596 C584 0.956 . S
H597 C584 0.961 . S
H598 C584 0.961 . S
H599 C585 0.958 . S
H600 C585 0.961 . S
H601 C585 0.960 . S
C602 C603 1.391 . S
C602 C604 1.394 . S
C602 H618 0.931 . S
C603 C602 1.391 . S
C603 C607 1.376 . S
C604 C602 1.394 . S
C604 C605 1.369 . S
C604 C608 1.531 . S
C605 C604 1.369 . S
C605 C606 1.410 . S
C605 C613 1.503 . S
C606 C605 1.410 . S
C606 C607 1.392 . S
C606 C609 1.511 . S
C607 C603 1.376 . S
C607 C606 1.392 . S
C607 H619 0.929 . S
C608 C604 1.531 . S
C608 H620 0.960 . S
C608 H621 0.962 . S
C608 H622 0.960 . S
C609 C606 1.511 . S
C609 H623 0.961 . S
C609 H624 0.961 . S
C609 H625 0.961 . S
C610 C611 1.370 . S
C610 C612 1.363 . S
C610 H626 0.931 . S
C611 C610 1.370 . S
C611 C615 1.408 . S
C612 C610 1.363 . S
C612 C613 1.370 . S
C612 C616 1.524 . S
C613 C605 1.503 . S
C613 C612 1.370 . S
C613 C614 1.403 . S
C614 C613 1.403 . S
C614 C615 1.404 . S
C614 C617 1.539 . S
C615 C611 1.408 . S
C615 C614 1.404 . S
C615 H627 0.930 . S
C616 C612 1.524 . S
C616 H628 0.956 . S
C616 H629 0.961 . S
C616 H630 0.961 . S
C617 C614 1.539 . S
C617 H631 0.958 . S
C617 H632 0.961 . S
C617 H633 0.960 . S
H618 C602 0.931 . S
H619 C607 0.929 . S
H620 C608 0.960 . S
H621 C608 0.962 . S
H622 C608 0.960 . S
H623 C609 0.961 . S
H624 C609 0.961 . S
H625 C609 0.961 . S
H626 C610 0.931 . S
H627 C615 0.930 . S
H628 C616 0.956 . S
H629 C616 0.961 . S
H630 C616 0.961 . S
H631 C617 0.958 . S
H632 C617 0.961 . S
H633 C617 0.960 . S
C634 C635 1.391 . S
C634 C636 1.394 . S
C634 H650 0.931 . S
C635 C634 1.391 . S
C635 C639 1.376 . S
C636 C634 1.394 . S
C636 C637 1.369 . S
C636 C640 1.531 . S
C637 C636 1.369 . S
C637 C638 1.410 . S
C637 C645 1.503 . S
C638 C637 1.410 . S
C638 C639 1.392 . S
C638 C641 1.511 . S
C639 C635 1.376 . S
C639 C638 1.392 . S
C639 H651 0.929 . S
C640 C636 1.531 . S
C640 H652 0.960 . S
C640 H653 0.962 . S
C640 H654 0.960 . S
C641 C638 1.511 . S
C641 H655 0.961 . S
C641 H656 0.961 . S
C641 H657 0.961 . S
C642 C643 1.370 . S
C642 C644 1.363 . S
C642 H658 0.931 . S
C643 C642 1.370 . S
C643 C647 1.408 . S
C644 C642 1.363 . S
C644 C645 1.370 . S
C644 C648 1.524 . S
C645 C637 1.503 . S
C645 C644 1.370 . S
C645 C646 1.403 . S
C646 C645 1.403 . S
C646 C647 1.404 . S
C646 C649 1.539 . S
C647 C643 1.408 . S
C647 C646 1.404 . S
C647 H659 0.930 . S
C648 C644 1.524 . S
C648 H660 0.956 . S
C648 H661 0.961 . S
C648 H662 0.961 . S
C649 C646 1.539 . S
C649 H663 0.958 . S
C649 H664 0.961 . S
C649 H665 0.960 . S
H650 C634 0.931 . S
H651 C639 0.929 . S
H652 C640 0.960 . S
H653 C640 0.962 . S
H654 C640 0.960 . S
H655 C641 0.961 . S
H656 C641 0.961 . S
H657 C641 0.961 . S
H658 C642 0.931 . S
H659 C647 0.930 . S
H660 C648 0.956 . S
H661 C648 0.961 . S
H662 C648 0.961 . S
H663 C649 0.958 . S
H664 C649 0.961 . S
H665 C649 0.960 . S
C666 C667 1.391 . S
C666 C668 1.394 . S
C666 H682 0.931 . S
C667 C666 1.391 . S
C667 C671 1.376 . S
C668 C666 1.394 . S
C668 C669 1.369 . S
C668 C672 1.531 . S
C669 C668 1.369 . S
C669 C670 1.410 . S
C669 C677 1.503 . S
C670 C669 1.410 . S
C670 C671 1.392 . S
C670 C673 1.511 . S
C671 C667 1.376 . S
C671 C670 1.392 . S
C671 H683 0.929 . S
C672 C668 1.531 . S
C672 H684 0.960 . S
C672 H685 0.962 . S
C672 H686 0.960 . S
C673 C670 1.511 . S
C673 H687 0.961 . S
C673 H688 0.961 . S
C673 H689 0.961 . S
C674 C675 1.370 . S
C674 C676 1.363 . S
C674 H690 0.931 . S
C675 C674 1.370 . S
C675 C679 1.408 . S
C676 C674 1.363 . S
C676 C677 1.370 . S
C676 C680 1.524 . S
C677 C669 1.503 . S
C677 C676 1.370 . S
C677 C678 1.403 . S
C678 C677 1.403 . S
C678 C679 1.404 . S
C678 C681 1.539 . S
C679 C675 1.408 . S
C679 C678 1.404 . S
C679 H691 0.930 . S
C680 C676 1.524 . S
C680 H692 0.956 . S
C680 H693 0.961 . S
C680 H694 0.961 . S
C681 C678 1.539 . S
C681 H695 0.958 . S
C681 H696 0.961 . S
C681 H697 0.960 . S
H682 C666 0.931 . S
H683 C671 0.929 . S
H684 C672 0.960 . S
H685 C672 0.962 . S
H686 C672 0.960 . S
H687 C673 0.961 . S
H688 C673 0.961 . S
H689 C673 0.961 . S
H690 C674 0.931 . S
H691 C679 0.930 . S
H692 C680 0.956 . S
H693 C680 0.961 . S
H694 C680 0.961 . S
H695 C681 0.958 . S
H696 C681 0.961 . S
H697 C681 0.960 . S
C698 C699 1.391 . S
C698 C700 1.394 . S
C698 H714 0.931 . S
C699 C698 1.391 . S
C699 C703 1.376 . S
C700 C698 1.394 . S
C700 C701 1.369 . S
C700 C704 1.531 . S
C701 C700 1.369 . S
C701 C702 1.410 . S
C701 C709 1.503 . S
C702 C701 1.410 . S
C702 C703 1.392 . S
C702 C705 1.511 . S
C703 C699 1.376 . S
C703 C702 1.392 . S
C703 H715 0.929 . S
C704 C700 1.531 . S
C704 H716 0.960 . S
C704 H717 0.962 . S
C704 H718 0.960 . S
C705 C702 1.511 . S
C705 H719 0.961 . S
C705 H720 0.961 . S
C705 H721 0.961 . S
C706 C707 1.370 . S
C706 C708 1.363 . S
C706 H722 0.931 . S
C707 C706 1.370 . S
C707 C711 1.408 . S
C708 C706 1.363 . S
C708 C709 1.370 . S
C708 C712 1.524 . S
C709 C701 1.503 . S
C709 C708 1.370 . S
C709 C710 1.403 . S
C710 C709 1.403 . S
C710 C711 1.404 . S
C710 C713 1.539 . S
C711 C707 1.408 . S
C711 C710 1.404 . S
C711 H723 0.930 . S
C712 C708 1.524 . S
C712 H724 0.956 . S
C712 H725 0.961 . S
C712 H726 0.961 . S
C713 C710 1.539 . S
C713 H727 0.958 . S
C713 H728 0.961 . S
C713 H729 0.960 . S
H714 C698 0.931 . S
H715 C703 0.929 . S
H716 C704 0.960 . S
H717 C704 0.962 . S
H718 C704 0.960 . S
H719 C705 0.961 . S
H720 C705 0.961 . S
H721 C705 0.961 . S
H722 C706 0.931 . S
H723 C711 0.930 . S
H724 C712 0.956 . S
H725 C712 0.961 . S
H726 C712 0.961 . S
H727 C713 0.958 . S
H728 C713 0.961 . S
H729 C713 0.960 . S
C730 C731 1.391 . S
C730 C732 1.394 . S
C730 H746 0.931 . S
C731 C730 1.391 . S
C731 C735 1.376 . S
C732 C730 1.394 . S
C732 C733 1.369 . S
C732 C736 1.531 . S
C733 C732 1.369 . S
C733 C734 1.410 . S
C733 C741 1.503 . S
C734 C733 1.410 . S
C734 C735 1.392 . S
C734 C737 1.511 . S
C735 C731 1.376 . S
C735 C734 1.392 . S
C735 H747 0.929 . S
C736 C732 1.531 . S
C736 H748 0.960 . S
C736 H749 0.962 . S
C736 H750 0.960 . S
C737 C734 1.511 . S
C737 H751 0.961 . S
C737 H752 0.961 . S
C737 H753 0.961 . S
C738 C739 1.370 . S
C738 C740 1.363 . S
C738 H754 0.931 . S
C739 C738 1.370 . S
C739 C743 1.408 . S
C740 C738 1.363 . S
C740 C741 1.370 . S
C740 C744 1.524 . S
C741 C733 1.503 . S
C741 C740 1.370 . S
C741 C742 1.403 . S
C742 C741 1.403 . S
C742 C743 1.404 . S
C742 C745 1.539 . S
C743 C739 1.408 . S
C743 C742 1.404 . S
C743 H755 0.930 . S
C744 C740 1.524 . S
C744 H756 0.956 . S
C744 H757 0.961 . S
C744 H758 0.961 . S
C745 C742 1.539 . S
C745 H759 0.958 . S
C745 H760 0.961 . S
C745 H761 0.960 . S
H746 C730 0.931 . S
H747 C735 0.929 . S
H748 C736 0.960 . S
H749 C736 0.962 . S
H750 C736 0.960 . S
H751 C737 0.961 . S
H752 C737 0.961 . S
H753 C737 0.961 . S
H754 C738 0.931 . S
H755 C743 0.930 . S
H756 C744 0.956 . S
H757 C744 0.961 . S
H758 C744 0.961 . S
H759 C745 0.958 . S
H760 C745 0.961 . S
H761 C745 0.960 . S
C762 C763 1.391 . S
C762 C764 1.394 . S
C762 H778 0.931 . S
C763 C762 1.391 . S
C763 C767 1.376 . S
C764 C762 1.394 . S
C764 C765 1.369 . S
C764 C768 1.531 . S
C765 C764 1.369 . S
C765 C766 1.410 . S
C765 C773 1.503 . S
C766 C765 1.410 . S
C766 C767 1.392 . S
C766 C769 1.511 . S
C767 C763 1.376 . S
C767 C766 1.392 . S
C767 H779 0.929 . S
C768 C764 1.531 . S
C768 H780 0.960 . S
C768 H781 0.962 . S
C768 H782 0.960 . S
C769 C766 1.511 . S
C769 H783 0.961 . S
C769 H784 0.961 . S
C769 H785 0.961 . S
C770 C771 1.370 . S
C770 C772 1.363 . S
C770 H786 0.931 . S
C771 C770 1.370 . S
C771 C775 1.408 . S
C772 C770 1.363 . S
C772 C773 1.370 . S
C772 C776 1.524 . S
C773 C765 1.503 . S
C773 C772 1.370 . S
C773 C774 1.403 . S
C774 C773 1.403 . S
C774 C775 1.404 . S
C774 C777 1.539 . S
C775 C771 1.408 . S
C775 C774 1.404 . S
C775 H787 0.930 . S
C776 C772 1.524 . S
C776 H788 0.956 . S
C776 H789 0.961 . S
C776 H790 0.961 . S
C777 C774 1.539 . S
C777 H791 0.958 . S
C777 H792 0.961 . S
C777 H793 0.960 . S
H778 C762 0.931 . S
H779 C767 0.929 . S
H780 C768 0.960 . S
H781 C768 0.962 . S
H782 C768 0.960 . S
H783 C769 0.961 . S
H784 C769 0.961 . S
H785 C769 0.961 . S
H786 C770 0.931 . S
H787 C775 0.930 . S
H788 C776 0.956 . S
H789 C776 0.961 . S
H790 C776 0.961 . S
H791 C777 0.958 . S
H792 C777 0.961 . S
H793 C777 0.960 . S
C794 C795 1.391 . S
C794 C796 1.394 . S
C794 H810 0.931 . S
C795 C794 1.391 . S
C795 C799 1.376 . S
C796 C794 1.394 . S
C796 C797 1.369 . S
C796 C800 1.531 . S
C797 C796 1.369 . S
C797 C798 1.410 . S
C797 C805 1.503 . S
C798 C797 1.410 . S
C798 C799 1.392 . S
C798 C801 1.511 . S
C799 C795 1.376 . S
C799 C798 1.392 . S
C799 H811 0.929 . S
C800 C796 1.531 . S
C800 H812 0.960 . S
C800 H813 0.962 . S
C800 H814 0.960 . S
C801 C798 1.511 . S
C801 H815 0.961 . S
C801 H816 0.961 . S
C801 H817 0.961 . S
C802 C803 1.370 . S
C802 C804 1.363 . S
C802 H818 0.931 . S
C803 C802 1.370 . S
C803 C807 1.408 . S
C804 C802 1.363 . S
C804 C805 1.370 . S
C804 C808 1.524 . S
C805 C797 1.503 . S
C805 C804 1.370 . S
C805 C806 1.403 . S
C806 C805 1.403 . S
C806 C807 1.404 . S
C806 C809 1.539 . S
C807 C803 1.408 . S
C807 C806 1.404 . S
C807 H819 0.930 . S
C808 C804 1.524 . S
C808 H820 0.956 . S
C808 H821 0.961 . S
C808 H822 0.961 . S
C809 C806 1.539 . S
C809 H823 0.958 . S
C809 H824 0.961 . S
C809 H825 0.960 . S
H810 C794 0.931 . S
H811 C799 0.929 . S
H812 C800 0.960 . S
H813 C800 0.962 . S
H814 C800 0.960 . S
H815 C801 0.961 . S
H816 C801 0.961 . S
H817 C801 0.961 . S
H818 C802 0.931 . S
H819 C807 0.930 . S
H820 C808 0.956 . S
H821 C808 0.961 . S
H822 C808 0.961 . S
H823 C809 0.958 . S
H824 C809 0.961 . S
H825 C809 0.960 . S
C826 C827 1.391 . S
C826 C828 1.394 . S
C826 H842 0.931 . S
C827 C826 1.391 . S
C827 C831 1.376 . S
C828 C826 1.394 . S
C828 C829 1.369 . S
C828 C832 1.531 . S
C829 C828 1.369 . S
C829 C830 1.410 . S
C829 C837 1.503 . S
C830 C829 1.410 . S
C830 C831 1.392 . S
C830 C833 1.511 . S
C831 C827 1.376 . S
C831 C830 1.392 . S
C831 H843 0.929 . S
C832 C828 1.531 . S
C832 H844 0.960 . S
C832 H845 0.962 . S
C832 H846 0.960 . S
C833 C830 1.511 . S
C833 H847 0.961 . S
C833 H848 0.961 . S
C833 H849 0.961 . S
C834 C835 1.370 . S
C834 C836 1.363 . S
C834 H850 0.931 . S
C835 C834 1.370 . S
C835 C839 1.408 . S
C836 C834 1.363 . S
C836 C837 1.370 . S
C836 C840 1.524 . S
C837 C829 1.503 . S
C837 C836 1.370 . S
C837 C838 1.403 . S
C838 C837 1.403 . S
C838 C839 1.404 . S
C838 C841 1.539 . S
C839 C835 1.408 . S
C839 C838 1.404 . S
C839 H851 0.930 . S
C840 C836 1.524 . S
C840 H852 0.956 . S
C840 H853 0.961 . S
C840 H854 0.961 . S
C841 C838 1.539 . S
C841 H855 0.958 . S
C841 H856 0.961 . S
C841 H857 0.960 . S
H842 C826 0.931 . S
H843 C831 0.929 . S
H844 C832 0.960 . S
H845 C832 0.962 . S
H846 C832 0.960 . S
H847 C833 0.961 . S
H848 C833 0.961 . S
H849 C833 0.961 . S
H850 C834 0.931 . S
H851 C839 0.930 . S
H852 C840 0.956 . S
H853 C840 0.961 . S
H854 C840 0.961 . S
H855 C841 0.958 . S
H856 C841 0.961 . S
H857 C841 0.960 . S
C858 C859 1.391 . S
C858 C860 1.394 . S
C858 H874 0.931 . S
C859 C858 1.391 . S
C859 C863 1.376 . S
C860 C858 1.394 . S
C860 C861 1.369 . S
C860 C864 1.531 . S
C861 C860 1.369 . S
C861 C862 1.410 . S
C861 C869 1.503 . S
C862 C861 1.410 . S
C862 C863 1.392 . S
C862 C865 1.511 . S
C863 C859 1.376 . S
C863 C862 1.392 . S
C863 H875 0.929 . S
C864 C860 1.531 . S
C864 H876 0.960 . S
C864 H877 0.962 . S
C864 H878 0.960 . S
C865 C862 1.511 . S
C865 H879 0.961 . S
C865 H880 0.961 . S
C865 H881 0.961 . S
C866 C867 1.370 . S
C866 C868 1.363 . S
C866 H882 0.931 . S
C867 C866 1.370 . S
C867 C871 1.408 . S
C868 C866 1.363 . S
C868 C869 1.370 . S
C868 C872 1.524 . S
C869 C861 1.503 . S
C869 C868 1.370 . S
C869 C870 1.403 . S
C870 C869 1.403 . S
C870 C871 1.404 . S
C870 C873 1.539 . S
C871 C867 1.408 . S
C871 C870 1.404 . S
C871 H883 0.930 . S
C872 C868 1.524 . S
C872 H884 0.956 . S
C872 H885 0.961 . S
C872 H886 0.961 . S
C873 C870 1.539 . S
C873 H887 0.958 . S
C873 H888 0.961 . S
C873 H889 0.960 . S
H874 C858 0.931 . S
H875 C863 0.929 . S
H876 C864 0.960 . S
H877 C864 0.962 . S
H878 C864 0.960 . S
H879 C865 0.961 . S
H880 C865 0.961 . S
H881 C865 0.961 . S
H882 C866 0.931 . S
H883 C871 0.930 . S
H884 C872 0.956 . S
H885 C872 0.961 . S
H886 C872 0.961 . S
H887 C873 0.958 . S
H888 C873 0.961 . S
H889 C873 0.960 . S
C890 C891 1.391 . S
C890 C892 1.394 . S
C890 H906 0.931 . S
C891 C890 1.391 . S
C891 C895 1.376 . S
C892 C890 1.394 . S
C892 C893 1.369 . S
C892 C896 1.531 . S
C893 C892 1.369 . S
C893 C894 1.410 . S
C893 C901 1.503 . S
C894 C893 1.410 . S
C894 C895 1.392 . S
C894 C897 1.511 . S
C895 C891 1.376 . S
C895 C894 1.392 . S
C895 H907 0.929 . S
C896 C892 1.531 . S
C896 H908 0.960 . S
C896 H909 0.962 . S
C896 H910 0.960 . S
C897 C894 1.511 . S
C897 H911 0.961 . S
C897 H912 0.961 . S
C897 H913 0.961 . S
C898 C899 1.370 . S
C898 C900 1.363 . S
C898 H914 0.931 . S
C899 C898 1.370 . S
C899 C903 1.408 . S
C900 C898 1.363 . S
C900 C901 1.370 . S
C900 C904 1.524 . S
C901 C893 1.503 . S
C901 C900 1.370 . S
C901 C902 1.403 . S
C902 C901 1.403 . S
C902 C903 1.404 . S
C902 C905 1.539 . S
C903 C899 1.408 . S
C903 C902 1.404 . S
C903 H915 0.930 . S
C904 C900 1.524 . S
C904 H916 0.956 . S
C904 H917 0.961 . S
C904 H918 0.961 . S
C905 C902 1.539 . S
C905 H919 0.958 . S
C905 H920 0.961 . S
C905 H921 0.960 . S
H906 C890 0.931 . S
H907 C895 0.929 . S
H908 C896 0.960 . S
H909 C896 0.962 . S
H910 C896 0.960 . S
H911 C897 0.961 . S
H912 C897 0.961 . S
H913 C897 0.961 . S
H914 C898 0.931 . S
H915 C903 0.930 . S
H916 C904 0.956 . S
H917 C904 0.961 . S
H918 C904 0.961 . S
H919 C905 0.958 . S
H920 C905 0.961 . S
H921 C905 0.960 . S
C922 C923 1.391 . S
C922 C924 1.394 . S
C922 H938 0.931 . S
C923 C922 1.391 . S
C923 C927 1.376 . S
C924 C922 1.394 . S
C924 C925 1.369 . S
C924 C928 1.531 . S
C925 C924 1.369 . S
C925 C926 1.410 . S
C925 C933 1.503 . S
C926 C925 1.410 . S
C926 C927 1.392 . S
C926 C929 1.511 . S
C927 C923 1.376 . S
C927 C926 1.392 . S
C927 H939 0.929 . S
C928 C924 1.531 . S
C928 H940 0.960 . S
C928 H941 0.962 . S
C928 H942 0.960 . S
C929 C926 1.511 . S
C929 H943 0.961 . S
C929 H944 0.961 . S
C929 H945 0.961 . S
C930 C931 1.370 . S
C930 C932 1.363 . S
C930 H946 0.931 . S
C931 C930 1.370 . S
C931 C935 1.408 . S
C932 C930 1.363 . S
C932 C933 1.370 . S
C932 C936 1.524 . S
C933 C925 1.503 . S
C933 C932 1.370 . S
C933 C934 1.403 . S
C934 C933 1.403 . S
C934 C935 1.404 . S
C934 C937 1.539 . S
C935 C931 1.408 . S
C935 C934 1.404 . S
C935 H947 0.930 . S
C936 C932 1.524 . S
C936 H948 0.956 . S
C936 H949 0.961 . S
C936 H950 0.961 . S
C937 C934 1.539 . S
C937 H951 0.958 . S
C937 H952 0.961 . S
C937 H953 0.960 . S
H938 C922 0.931 . S
H939 C927 0.929 . S
H940 C928 0.960 . S
H941 C928 0.962 . S
H942 C928 0.960 . S
H943 C929 0.961 . S
H944 C929 0.961 . S
H945 C929 0.961 . S
H946 C930 0.931 . S
H947 C935 0.930 . S
H948 C936 0.956 . S
H949 C936 0.961 . S
H950 C936 0.961 . S
H951 C937 0.958 . S
H952 C937 0.961 . S
H953 C937 0.960 . S
C187 C14 1.529 . S
C195 C109 1.552 . S
C219 C25 1.526 . S
C227 C122 1.555 . S
C259 C144 1.518 . S
C251 C43 1.479 . S
C291 C157 1.528 . S
C283 C62 1.531 . S
C323 C170 1.506 . S
C315 C80 1.478 . S
C355 C183 1.522 . S
C347 C97 1.487 . S
C379 C32 1.490 . S
C387 C139 1.504 . S
C411 C50 1.475 . S
C419 C152 1.506 . S
C451 C165 1.516 . S
C443 C70 1.516 . S
C483 C178 1.524 . S
C475 C88 1.525 . S
C507 C104 1.475 . S
C515 C111 1.552 . S
C547 C124 1.554 . S
C539 C7 1.509 . S
C579 C150 1.495 . S
C571 C8 1.471 . S
C603 C34 1.512 . S
C611 C163 1.517 . S
C643 C176 1.502 . S
C635 C52 1.467 . S
C667 C68 1.474 . S
C675 C113 1.552 . S
C699 C86 1.529 . S
C707 C126 1.551 . S
C731 C106 1.470 . S
C739 C137 1.501 . S
C763 C26 1.502 . S
C771 C174 1.526 . S
C803 C118 1.559 . S
C795 C44 1.539 . S
C827 C61 1.477 . S
C835 C131 1.560 . S
C859 C79 1.521 . S
C867 C135 1.525 . S
C891 C98 1.533 . S
C899 C148 1.531 . S
C923 C16 1.529 . S
C931 C161 1.530 . S
