# Generated by pormake.
# Topology pyr, (3,6)-cn, num edge types: 1
# Building blocks:
#     Node 0, Type 0, BuildingBlock: PAMTOO_clean_linker_0, # of connection points: 3
#     Node 1, Type 0, BuildingBlock: PAMTOO_clean_linker_0, # of connection points: 3
#     Node 2, Type 0, BuildingBlock: PAMTOO_clean_linker_0, # of connection points: 3
#     Node 3, Type 0, BuildingBlock: PAMTOO_clean_linker_0, # of connection points: 3
#     Node 4, Type 0, BuildingBlock: PAMTOO_clean_linker_0, # of connection points: 3
#     Node 5, Type 0, BuildingBlock: PAMTOO_clean_linker_0, # of connection points: 3
#     Node 6, Type 0, BuildingBlock: PAMTOO_clean_linker_0, # of connection points: 3
#     Node 7, Type 0, BuildingBlock: PAMTOO_clean_linker_0, # of connection points: 3
#     Node 8, Type 1, BuildingBlock: GEDQOX_clean_sbu_0, # of connection points: 6
#     Node 9, Type 1, BuildingBlock: GEDQOX_clean_sbu_0, # of connection points: 6
#     Node 10, Type 1, BuildingBlock: GEDQOX_clean_sbu_0, # of connection points: 6
#     Node 11, Type 1, BuildingBlock: GEDQOX_clean_sbu_0, # of connection points: 6
#     Edge 12, Type (0, 1), None
#     Edge 13, Type (0, 1), None
#     Edge 14, Type (0, 1), None
#     Edge 15, Type (0, 1), None
#     Edge 16, Type (0, 1), None
#     Edge 17, Type (0, 1), None
#     Edge 18, Type (0, 1), None
#     Edge 19, Type (0, 1), None
#     Edge 20, Type (0, 1), None
#     Edge 21, Type (0, 1), None
#     Edge 22, Type (0, 1), None
#     Edge 23, Type (0, 1), None
#     Edge 24, Type (0, 1), None
#     Edge 25, Type (0, 1), None
#     Edge 26, Type (0, 1), None
#     Edge 27, Type (0, 1), None
#     Edge 28, Type (0, 1), None
#     Edge 29, Type (0, 1), None
#     Edge 30, Type (0, 1), None
#     Edge 31, Type (0, 1), None
#     Edge 32, Type (0, 1), None
#     Edge 33, Type (0, 1), None
#     Edge 34, Type (0, 1), None
#     Edge 35, Type (0, 1), None
# Relax obj value: 0.421
# Max RMSD: 0.245
# Mean RMSD: 0.174
data_MOF--net-pyr--node1-GEDQOX_clean_sbu_0--node2-PAMTOO_clean_linker_0--edge1-none
_symmetry_space_group_name_H-M    P1
_symmetry_Int_Tables_number       1
_symmetry_cell_setting            triclinic
loop_
_symmetry_equiv_pos_as_xyz
'x, y, z'
_cell_length_a     17.439452
_cell_length_b     18.060208
_cell_length_c     14.444717
_cell_angle_alpha  86.311382
_cell_angle_beta   87.99568
_cell_angle_gamma 84.9352
loop_
_atom_site_label
_atom_site_type_symbol
_atom_site_fract_x
_atom_site_fract_y
_atom_site_fract_z
_atom_type_partial_charge
H0 H 0.09416 0.29832 0.36642 0.0
H1 H 0.2771 0.12085 0.38601 0.0
H2 H 0.28757 0.29462 0.17045 0.0
H3 H 0.37222 0.15937 0.11143 0.0
C4 C 0.38438 0.12972 0.17988 0.0
O5 O 0.36296 0.17715 0.25025 0.0
H6 H 0.35131 0.0797 0.18833 0.0
C7 C 0.14756 0.27138 0.33956 0.0
C8 C 0.18469 0.30426 0.25919 0.0
C9 C 0.17992 0.20431 0.3863 0.0
C10 C 0.25011 0.17058 0.35046 0.0
C11 C 0.28919 0.20331 0.27328 0.0
C12 C 0.2561 0.26945 0.22852 0.0
H13 H 0.4763 0.95415 0.82666 0.0
H14 H 0.49051 0.72101 0.7795 0.0
H15 H 0.6315 0.79767 0.98352 0.0
H16 H 0.5084 0.6227 0.91765 0.0
C17 C 0.57074 0.6163 0.89774 0.0
O18 O 0.60377 0.68314 0.89795 0.0
H19 H 0.59914 0.57526 0.94898 0.0
C20 C 0.50232 0.89807 0.84145 0.0
C21 C 0.55761 0.88395 0.91063 0.0
C22 C 0.47754 0.83851 0.79506 0.0
C23 C 0.51021 0.76608 0.81561 0.0
C24 C 0.56575 0.75153 0.8837 0.0
C25 C 0.58823 0.81016 0.93141 0.0
H26 H 0.93578 0.39365 1.01915 0.0
H27 H 0.82549 0.41862 0.75596 0.0
H28 H 0.9969 0.56357 0.81079 0.0
H29 H 0.84644 0.62042 0.60702 0.0
C30 C 0.83269 0.58887 0.67315 0.0
O31 O 0.89239 0.53372 0.69098 0.0
H32 H 0.82844 0.62898 0.72875 0.0
C33 C 0.92947 0.42185 0.95099 0.0
C34 C 0.97727 0.47837 0.92132 0.0
C35 C 0.87248 0.40288 0.89206 0.0
C36 C 0.86562 0.4374 0.8031 0.0
C37 C 0.90621 0.49803 0.77561 0.0
C38 C 0.96309 0.51805 0.83412 0.0
H39 H 0.82534 1.03804 0.54798 0.0
H40 H 0.90463 0.84751 0.40129 0.0
H41 H 1.04087 1.03226 0.39212 0.0
H42 H 1.06794 0.87075 0.20321 0.0
C43 C 1.01391 0.8744 0.24632 0.0
O44 O 1.02957 0.90219 0.32969 0.0
H45 H 0.97014 0.91202 0.20792 0.0
C46 C 0.86552 1.01115 0.49925 0.0
C47 C 0.93579 1.04141 0.47604 0.0
C48 C 0.85067 0.94329 0.46433 0.0
C49 C 0.90985 0.90473 0.41443 0.0
C50 C 0.97492 0.93918 0.3816 0.0
C51 C 0.98684 1.00892 0.4105 0.0
H52 H 0.86484 0.059 0.88834 0.0
H53 H 0.85684 0.86167 1.07042 0.0
H54 H 1.06395 0.90046 0.91104 0.0
H55 H 1.07453 0.76326 0.93952 0.0
C56 C 1.03041 0.74802 0.99309 0.0
O57 O 1.00499 0.81114 1.04059 0.0
H58 H 0.98054 0.72928 0.95774 0.0
C59 C 0.89379 1.00952 0.92212 0.0
C60 C 0.96928 0.98471 0.8903 0.0
C61 C 0.85292 0.96739 0.99124 0.0
C62 C 0.88942 0.89794 1.02536 0.0
C63 C 0.96682 0.8744 0.99956 0.0
C64 C 1.00557 0.91879 0.93254 0.0
H65 H 0.76189 0.15212 0.37359 0.0
H66 H 0.5786 0.29032 0.23514 0.0
H67 H 0.70198 0.37635 0.44722 0.0
H68 H 0.57667 0.51621 0.29178 0.0
C69 C 0.61645 0.47645 0.33267 0.0
O70 O 0.58946 0.40596 0.33593 0.0
H71 H 0.67386 0.47707 0.29662 0.0
C72 C 0.72654 0.20428 0.3637 0.0
C73 C 0.74037 0.26561 0.41482 0.0
C74 C 0.66813 0.21234 0.29741 0.0
C75 C 0.62408 0.2823 0.28492 0.0
C76 C 0.63608 0.34145 0.33955 0.0
C77 C 0.69327 0.33154 0.40411 0.0
H78 H 0.28792 0.68731 0.21552 0.0
H79 H 0.23474 0.52941 0.44194 0.0
H80 H 0.38684 0.69585 0.48388 0.0
H81 H 0.38678 0.47748 0.52732 0.0
C82 C 0.38692 0.5211 0.57825 0.0
O83 O 0.32934 0.57745 0.55774 0.0
H84 H 0.37462 0.49473 0.64814 0.0
C85 C 0.29389 0.66595 0.28695 0.0
C86 C 0.34445 0.69784 0.34515 0.0
C87 C 0.25078 0.60668 0.32238 0.0
C88 C 0.26415 0.57666 0.4139 0.0
C89 C 0.31508 0.60739 0.47064 0.0
C90 C 0.35047 0.67049 0.43783 0.0
H91 H 0.23593 0.22142 0.84445 0.0
H92 H 0.45731 0.23186 0.70696 0.0
H93 H 0.32804 1.04409 0.67929 0.0
H94 H 0.52359 1.03557 0.67935 0.0
C95 C 0.51732 0.07547 0.61747 0.0
O96 O 0.44358 0.10983 0.61483 0.0
H97 H 0.52887 1.04363 0.55449 0.0
C98 C 0.28418 0.19457 0.80623 0.0
C99 C 0.27617 0.12682 0.76818 0.0
C100 C 0.35104 0.23144 0.7874 0.0
C101 C 0.40911 0.20032 0.72799 0.0
C102 C 0.40073 0.13165 0.68979 0.0
C103 C 0.33652 0.09363 0.7146 0.0
Nd104 Nd 0.12387 1.02833 0.62936 0.0
Nd105 Nd 1.04118 0.1651 0.66261 0.0
C106 C 0.20966 0.90943 0.57815 0.0
C107 C 0.28345 0.87851 0.61884 0.0
C108 C 0.28297 0.82536 0.69423 0.0
C109 C 0.34712 0.81114 0.74969 0.0
C110 C 0.41303 0.84953 0.7307 0.0
C111 C 0.41653 0.89729 0.65067 0.0
C112 C 0.35241 0.91132 0.59462 0.0
C113 C 0.19953 0.10465 0.75372 0.0
C114 C 1.00858 1.02247 0.80762 0.0
C115 C 0.95182 0.27938 0.70224 0.0
C116 C 0.88493 0.2859 0.64209 0.0
C117 C 0.88381 0.33814 0.5661 0.0
C118 C 0.84301 0.32689 0.48785 0.0
C119 C 0.7998 0.26467 0.48503 0.0
C120 C 0.80007 0.21287 0.56077 0.0
C121 C 0.84096 0.22396 0.6393 0.0
C122 C 0.96771 0.08748 0.54062 0.0
C123 C 0.14399 0.17033 0.47464 0.0
O124 O 0.14835 0.90537 0.63219 0.0
O125 O 0.21046 0.97434 0.53314 0.0
O126 O 0.18939 1.03473 0.76283 0.0
O127 O 0.16666 0.13292 0.68221 0.0
O128 O 1.03961 0.98188 0.74087 0.0
O129 O 1.0131 0.09543 0.80056 0.0
O130 O 1.01716 0.2885 0.65761 0.0
O131 O 0.9567 0.22103 0.76066 0.0
O132 O 0.977 0.15708 0.52651 0.0
O133 O 0.99816 0.0605 0.61361 0.0
O134 O 0.11658 0.2125 0.5415 0.0
O135 O 0.14271 0.09703 0.48751 0.0
H136 H 0.23137 0.79817 0.71394 0.0
H137 H 0.34396 0.77258 0.81009 0.0
H138 H 0.46815 0.92474 0.63271 0.0
H139 H 0.3554 0.95149 0.53587 0.0
H140 H 0.91872 0.385 0.56471 0.0
H141 H 0.84324 0.36821 0.43002 0.0
H142 H 0.76645 0.1653 0.5605 0.0
H143 H 0.84183 0.18112 0.69538 0.0
Nd144 Nd 0.62209 1.00219 0.15588 0.0
Nd145 Nd 0.61747 0.08871 1.0474 0.0
C146 C 0.5949 0.88553 0.26825 0.0
C147 C 0.52609 0.84166 0.28201 0.0
C148 C 0.51965 0.77864 0.23075 0.0
C149 C 0.45654 0.73561 0.24506 0.0
C150 C 0.39844 0.75408 0.31143 0.0
C151 C 0.40348 0.81837 0.36051 0.0
C152 C 0.46636 0.86163 0.34601 0.0
C153 C 0.46976 0.10518 0.18399 0.0
C154 C 0.58118 0.94305 0.9672 0.0
C155 C 0.63153 0.20816 0.93684 0.0
C156 C 0.6948 0.25675 0.9281 0.0
C157 C 0.67718 0.33388 0.92575 0.0
C158 C 0.73603 0.3813 0.92224 0.0
C159 C 0.81352 0.3523 0.92164 0.0
C160 C 0.83139 0.27506 0.92906 0.0
C161 C 0.77216 0.22739 0.9328 0.0
C162 C 0.76689 0.98593 1.00711 0.0
C163 C 0.6535 0.15154 0.23666 0.0
O164 O 0.63225 0.88035 0.18893 0.0
O165 O 0.59042 0.95319 0.29662 0.0
O166 O 0.50344 0.0616 0.1233 0.0
O167 O 0.5044 0.06195 0.12492 0.0
O168 O 0.62484 0.92441 1.03775 0.0
O169 O 0.55688 1.01344 0.9551 0.0
O170 O 0.5952 0.20984 1.01682 0.0
O171 O 0.64442 0.14071 0.90852 0.0
O172 O 0.73723 1.02698 1.07319 0.0
O173 O 0.73603 1.02686 1.07179 0.0
O174 O 0.61311 0.16863 0.16341 0.0
O175 O 0.67868 0.0811 0.25024 0.0
H176 H 0.56453 0.76124 0.18103 0.0
H177 H 0.45561 0.6853 0.20824 0.0
H178 H 0.36024 0.83322 0.41334 0.0
H179 H 0.46908 0.90958 0.38675 0.0
H180 H 0.61782 0.35744 0.92543 0.0
H181 H 0.7212 0.44093 0.91579 0.0
H182 H 0.89078 0.25182 0.92805 0.0
H183 H 0.78669 0.16782 0.93838 0.0
Nd184 Nd 0.6278 0.47836 0.6519 0.0
Nd185 Nd 0.59958 0.62026 0.57697 0.0
C186 C 0.65783 0.33376 0.68999 0.0
C187 C 0.63644 0.26444 0.65649 0.0
C188 C 0.58837 0.26518 0.5809 0.0
C189 C 0.55842 0.19976 0.55922 0.0
C190 C 0.5719 0.13479 0.61754 0.0
C191 C 0.62645 0.1324 0.68667 0.0
C192 C 0.65949 0.19715 0.70491 0.0
C193 C 0.75568 0.55717 0.6657 0.0
C194 C 0.58141 0.5883 0.80249 0.0
C195 C 0.59514 0.76685 0.54341 0.0
C196 C 0.65285 0.82021 0.51919 0.0
C197 C 0.6725 0.86965 0.58425 0.0
C198 C 0.73487 0.91286 0.5661 0.0
C199 C 0.77701 0.90838 0.48157 0.0
C200 C 0.75208 0.86393 0.41386 0.0
C201 C 0.69284 0.81847 0.43365 0.0
C202 C 0.46539 0.55006 0.57578 0.0
C203 C 0.62056 0.50327 0.42945 0.0
O204 O 0.70015 0.37321 0.6334 0.0
O205 O 0.60227 0.37401 0.73067 0.0
O206 O 0.72398 0.5203 0.73361 0.0
O207 O 0.71705 0.55735 0.59283 0.0
O208 O 0.5754 0.51844 0.78782 0.0
O209 O 0.60268 0.63422 0.73387 0.0
O210 O 0.60009 0.73396 0.62598 0.0
O211 O 0.58147 0.72086 0.48108 0.0
O212 O 0.48955 0.5936 0.50923 0.0
O213 O 0.51083 0.54441 0.64259 0.0
O214 O 0.64567 0.56797 0.4435 0.0
O215 O 0.59506 0.463 0.50123 0.0
H216 H 0.57067 0.31679 0.54218 0.0
H217 H 0.51763 0.20207 0.504 0.0
H218 H 0.63969 0.08206 0.73013 0.0
H219 H 0.70122 0.19537 0.75854 0.0
H220 H 0.64201 0.87216 0.65082 0.0
H221 H 0.75196 0.94667 0.61976 0.0
H222 H 0.78065 0.86161 0.34623 0.0
H223 H 0.67967 0.78082 0.38218 0.0
Nd224 Nd 1.05837 0.53051 0.19094 0.0
Nd225 Nd 0.1726 0.52995 1.06603 0.0
C226 C 0.93919 0.57573 0.28992 0.0
C227 C 0.94171 0.65397 0.31185 0.0
C228 C 0.89109 0.70867 0.26744 0.0
C229 C 0.9142 0.78008 0.24565 0.0
C230 C 0.98848 0.79739 0.26643 0.0
C231 C 1.03591 0.74498 0.31834 0.0
C232 C 1.01188 0.67493 0.34326 0.0
C233 C 0.1919 0.57407 0.26752 0.0
C234 C 1.06509 0.68182 1.05492 0.0
C235 C 0.30316 0.50297 0.96917 0.0
C236 C 0.32759 0.44171 0.90842 0.0
C237 C 0.3897 0.38971 0.93262 0.0
C238 C 0.40207 0.32284 0.88785 0.0
C239 C 0.35235 0.30751 0.81859 0.0
C240 C 0.29458 0.36207 0.78922 0.0
C241 C 0.28228 0.42851 0.83353 0.0
C242 C 1.04153 0.49802 0.97878 0.0
C243 C 0.15375 0.37752 0.21068 0.0
O244 O 0.93327 0.56743 0.20143 0.0
O245 O 0.99273 0.5289 0.3266 0.0
O246 O 0.15002 0.52348 0.30291 0.0
O247 O 0.16564 0.59915 0.19018 0.0
O248 O 1.01899 0.6367 0.09854 0.0
O249 O 0.13849 0.65747 1.04577 0.0
O250 O 0.29513 0.48357 1.05723 0.0
O251 O 0.24684 0.5502 0.94056 0.0
O252 O 1.0911 0.54201 0.94526 0.0
O253 O 1.06193 0.46875 1.05787 0.0
O254 O 0.20047 0.41831 0.15862 0.0
O255 O 1.08228 0.40494 0.22372 0.0
H256 H 0.83659 0.6945 0.2428 0.0
H257 H 0.87392 0.82185 0.21373 0.0
H258 H 0.09206 0.75815 0.33897 0.0
H259 H 1.05222 0.63498 0.37914 0.0
H260 H 0.42555 0.39867 0.98994 0.0
H261 H 0.44684 0.28121 0.91156 0.0
H262 H 0.25578 0.35125 0.73562 0.0
H263 H 0.23409 0.46724 0.81265 0.0
loop_
_geom_bond_atom_site_label_1
_geom_bond_atom_site_label_2
_geom_bond_distance
_geom_bond_site_symmetry_2
_ccdc_geom_bond_type
H0 C7 0.929 . S
H1 C10 0.930 . S
H2 C12 0.929 . S
H3 C4 0.969 . S
C4 H3 0.969 . S
C4 O5 1.550 . S
C4 H6 0.973 . S
O5 C4 1.550 . S
O5 C11 1.412 . S
H6 C4 0.973 . S
C7 H0 0.929 . S
C7 C8 1.400 . S
C7 C9 1.364 . S
C8 C7 1.400 . S
C8 C12 1.377 . S
C9 C7 1.364 . S
C9 C10 1.374 . S
C10 H1 0.930 . S
C10 C9 1.374 . S
C10 C11 1.383 . S
C11 O5 1.412 . S
C11 C10 1.383 . S
C11 C12 1.394 . S
C12 H2 0.929 . S
C12 C8 1.377 . S
C12 C11 1.394 . S
H13 C20 0.929 . S
H14 C23 0.930 . S
H15 C25 0.929 . S
H16 C17 0.969 . S
C17 H16 0.969 . S
C17 O18 1.550 . S
C17 H19 0.973 . S
O18 C17 1.550 . S
O18 C24 1.412 . S
H19 C17 0.973 . S
C20 H13 0.929 . S
C20 C21 1.400 . S
C20 C22 1.364 . S
C21 C20 1.400 . S
C21 C25 1.377 . S
C22 C20 1.364 . S
C22 C23 1.374 . S
C23 H14 0.930 . S
C23 C22 1.374 . S
C23 C24 1.383 . S
C24 O18 1.412 . S
C24 C23 1.383 . S
C24 C25 1.394 . S
C25 H15 0.929 . S
C25 C21 1.377 . S
C25 C24 1.394 . S
H26 C33 0.929 . S
H27 C36 0.930 . S
H28 C38 0.929 . S
H29 C30 0.969 . S
C30 H29 0.969 . S
C30 O31 1.550 . S
C30 H32 0.973 . S
O31 C30 1.550 . S
O31 C37 1.412 . S
H32 C30 0.973 . S
C33 H26 0.929 . S
C33 C34 1.400 . S
C33 C35 1.364 . S
C34 C33 1.400 . S
C34 C38 1.377 . S
C35 C33 1.364 . S
C35 C36 1.374 . S
C36 H27 0.930 . S
C36 C35 1.374 . S
C36 C37 1.383 . S
C37 O31 1.412 . S
C37 C36 1.383 . S
C37 C38 1.394 . S
C38 H28 0.929 . S
C38 C34 1.377 . S
C38 C37 1.394 . S
H39 C46 0.929 . S
H40 C49 0.930 . S
H41 C51 0.929 1_455 S
H42 C43 0.969 . S
C43 H42 0.969 . S
C43 O44 1.550 1_655 S
C43 H45 0.973 . S
O44 C43 1.550 1_455 S
O44 C50 1.412 1_455 S
H45 C43 0.973 . S
C46 H39 0.929 . S
C46 C47 1.400 . S
C46 C48 1.364 . S
C47 C46 1.400 . S
C47 C51 1.377 . S
C48 C46 1.364 . S
C48 C49 1.374 . S
C49 H40 0.930 . S
C49 C48 1.374 . S
C49 C50 1.383 . S
C50 O44 1.412 1_655 S
C50 C49 1.383 . S
C50 C51 1.394 . S
C51 H41 0.929 1_655 S
C51 C47 1.377 . S
C51 C50 1.394 . S
H52 C59 0.929 . S
H53 C62 0.930 . S
H54 C64 0.929 . S
H55 C56 0.969 . S
C56 H55 0.969 . S
C56 O57 1.550 . S
C56 H58 0.973 . S
O57 C56 1.550 . S
O57 C63 1.412 . S
H58 C56 0.973 . S
C59 H52 0.929 . S
C59 C60 1.400 . S
C59 C61 1.364 . S
C60 C59 1.400 . S
C60 C64 1.377 . S
C61 C59 1.364 . S
C61 C62 1.374 . S
C62 H53 0.930 . S
C62 C61 1.374 . S
C62 C63 1.383 . S
C63 O57 1.412 . S
C63 C62 1.383 . S
C63 C64 1.394 . S
C64 H54 0.929 . S
C64 C60 1.377 . S
C64 C63 1.394 . S
H65 C72 0.929 . S
H66 C75 0.930 . S
H67 C77 0.929 . S
H68 C69 0.969 . S
C69 H68 0.969 . S
C69 O70 1.550 . S
C69 H71 0.973 . S
O70 C69 1.550 . S
O70 C76 1.412 . S
H71 C69 0.973 . S
C72 H65 0.929 . S
C72 C73 1.400 . S
C72 C74 1.364 . S
C73 C72 1.400 . S
C73 C77 1.377 . S
C74 C72 1.364 . S
C74 C75 1.374 . S
C75 H66 0.930 . S
C75 C74 1.374 . S
C75 C76 1.383 . S
C76 O70 1.412 . S
C76 C75 1.383 . S
C76 C77 1.394 . S
C77 H67 0.929 . S
C77 C73 1.377 . S
C77 C76 1.394 . S
H78 C85 0.929 . S
H79 C88 0.930 . S
H80 C90 0.929 . S
H81 C82 0.969 . S
C82 H81 0.969 . S
C82 O83 1.550 . S
C82 H84 0.973 . S
O83 C82 1.550 . S
O83 C89 1.412 . S
H84 C82 0.973 . S
C85 H78 0.929 . S
C85 C86 1.400 . S
C85 C87 1.364 . S
C86 C85 1.400 . S
C86 C90 1.377 . S
C87 C85 1.364 . S
C87 C88 1.374 . S
C88 H79 0.930 . S
C88 C87 1.374 . S
C88 C89 1.383 . S
C89 O83 1.412 . S
C89 C88 1.383 . S
C89 C90 1.394 . S
C90 H80 0.929 . S
C90 C86 1.377 . S
C90 C89 1.394 . S
H91 C98 0.929 . S
H92 C101 0.930 . S
H93 C103 0.929 . S
H94 C95 0.969 . S
C95 H94 0.969 . S
C95 O96 1.550 . S
C95 H97 0.973 . S
O96 C95 1.550 . S
O96 C102 1.412 . S
H97 C95 0.973 . S
C98 H91 0.929 . S
C98 C99 1.400 . S
C98 C100 1.364 . S
C99 C98 1.400 . S
C99 C103 1.377 . S
C100 C98 1.364 . S
C100 C101 1.374 . S
C101 H92 0.930 . S
C101 C100 1.374 . S
C101 C102 1.383 . S
C102 O96 1.412 . S
C102 C101 1.383 . S
C102 C103 1.394 . S
C103 H93 0.929 . S
C103 C99 1.377 . S
C103 C102 1.394 . S
Nd104 C106 2.836 . S
Nd104 O124 2.500 . S
Nd104 O125 2.492 . S
Nd104 O126 2.487 1_565 S
Nd104 O127 2.682 1_565 S
Nd104 O128 2.410 . S
Nd104 O133 2.414 1_455 S
Nd104 O135 2.424 1_565 S
Nd105 C115 2.836 . S
Nd105 O127 2.414 1_655 S
Nd105 O129 2.424 . S
Nd105 O130 2.500 . S
Nd105 O131 2.492 . S
Nd105 O132 2.487 1_545 S
Nd105 O133 2.682 1_545 S
Nd105 O134 2.410 . S
C106 Nd104 2.836 . S
C106 C107 1.498 . S
C106 O124 1.258 . S
C106 O125 1.239 . S
C107 C106 1.498 . S
C107 C108 1.366 . S
C107 C112 1.407 . S
C108 C107 1.366 . S
C108 C109 1.392 . S
C108 H136 0.930 . S
C109 C108 1.392 . S
C109 C110 1.398 . S
C109 H137 0.929 . S
C110 C109 1.398 . S
C110 C111 1.352 . S
C111 C110 1.352 . S
C111 C112 1.384 . S
C111 H138 0.930 . S
C112 C107 1.407 . S
C112 C111 1.384 . S
C112 H139 0.929 . S
C113 O126 1.241 . S
C113 O127 1.273 . S
C114 O128 1.251 1_655 S
C114 O129 1.268 1_565 S
C115 Nd105 2.836 . S
C115 C116 1.498 . S
C115 O130 1.258 . S
C115 O131 1.239 . S
C116 C115 1.498 . S
C116 C117 1.366 . S
C116 C121 1.407 . S
C117 C116 1.366 . S
C117 C118 1.392 . S
C117 H140 0.930 . S
C118 C117 1.392 . S
C118 C119 1.398 . S
C118 H141 0.929 . S
C119 C118 1.398 . S
C119 C120 1.352 . S
C120 C119 1.352 . S
C120 C121 1.384 . S
C120 H142 0.930 . S
C121 C116 1.407 . S
C121 C120 1.384 . S
C121 H143 0.929 . S
C122 O132 1.241 . S
C122 O133 1.273 . S
C123 O134 1.251 1_455 S
C123 O135 1.268 . S
O124 Nd104 2.500 . S
O124 C106 1.258 . S
O125 Nd104 2.492 . S
O125 C106 1.239 . S
O126 Nd104 2.487 1_545 S
O126 C113 1.241 . S
O127 Nd104 2.682 1_545 S
O127 Nd105 2.414 1_455 S
O127 C113 1.273 . S
O128 Nd104 2.410 . S
O128 C114 1.251 1_455 S
O129 Nd105 2.424 . S
O129 C114 1.268 1_545 S
O130 Nd105 2.500 . S
O130 C115 1.258 . S
O131 Nd105 2.492 . S
O131 C115 1.239 . S
O132 Nd105 2.487 1_565 S
O132 C122 1.241 . S
O133 Nd104 2.414 1_655 S
O133 Nd105 2.682 1_565 S
O133 C122 1.273 . S
O134 Nd105 2.410 . S
O134 C123 1.251 1_655 S
O135 Nd104 2.424 1_545 S
O135 C123 1.268 . S
H136 C108 0.930 . S
H137 C109 0.929 . S
H138 C111 0.930 . S
H139 C112 0.929 . S
H140 C117 0.930 . S
H141 C118 0.929 . S
H142 C120 0.930 . S
H143 C121 0.929 . S
Nd144 C146 2.836 . S
Nd144 O164 2.500 . S
Nd144 O165 2.492 . S
Nd144 O166 2.487 1_565 S
Nd144 O167 2.682 1_565 S
Nd144 O168 2.410 1_554 S
Nd144 O173 2.420 . S
Nd144 O175 2.424 1_565 S
Nd145 C155 2.836 . S
Nd145 O167 2.414 1_556 S
Nd145 O169 2.424 1_545 S
Nd145 O170 2.500 . S
Nd145 O171 2.492 . S
Nd145 O172 2.487 . S
Nd145 O173 2.678 1_546 S
Nd145 O174 2.410 1_556 S
C146 Nd144 2.836 . S
C146 C147 1.498 . S
C146 O164 1.258 . S
C146 O165 1.239 . S
C147 C146 1.498 . S
C147 C148 1.366 . S
C147 C152 1.407 . S
C148 C147 1.366 . S
C148 C149 1.392 . S
C148 H176 0.930 . S
C149 C148 1.392 . S
C149 C150 1.398 . S
C149 H177 0.929 . S
C150 C149 1.398 . S
C150 C151 1.352 . S
C151 C150 1.352 . S
C151 C152 1.384 . S
C151 H178 0.930 . S
C152 C147 1.407 . S
C152 C151 1.384 . S
C152 H179 0.929 . S
C153 O166 1.241 . S
C153 O167 1.273 . S
C154 O168 1.251 . S
C154 O169 1.268 . S
C155 Nd145 2.836 . S
C155 C156 1.498 . S
C155 O170 1.258 . S
C155 O171 1.239 . S
C156 C155 1.498 . S
C156 C157 1.366 . S
C156 C161 1.407 . S
C157 C156 1.366 . S
C157 C158 1.392 . S
C157 H180 0.930 . S
C158 C157 1.392 . S
C158 C159 1.398 . S
C158 H181 0.929 . S
C159 C158 1.398 . S
C159 C160 1.352 . S
C160 C159 1.352 . S
C160 C161 1.384 . S
C160 H182 0.930 . S
C161 C156 1.407 . S
C161 C160 1.384 . S
C161 H183 0.929 . S
C162 O172 1.241 1_565 S
C162 O173 1.268 1_556 S
C163 O174 1.251 . S
C163 O175 1.268 . S
O164 Nd144 2.500 . S
O164 C146 1.258 . S
O165 Nd144 2.492 . S
O165 C146 1.239 . S
O166 Nd144 2.487 1_545 S
O166 C153 1.241 . S
O167 Nd144 2.682 1_545 S
O167 Nd145 2.414 1_554 S
O167 C153 1.273 . S
O168 Nd144 2.410 1_556 S
O168 C154 1.251 . S
O169 Nd145 2.424 1_565 S
O169 C154 1.268 . S
O170 Nd145 2.500 . S
O170 C155 1.258 . S
O171 Nd145 2.492 . S
O171 C155 1.239 . S
O172 Nd145 2.487 . S
O172 C162 1.241 1_545 S
O173 Nd144 2.420 . S
O173 Nd145 2.678 1_564 S
O173 C162 1.268 1_554 S
O174 Nd145 2.410 1_554 S
O174 C163 1.251 . S
O175 Nd144 2.424 1_545 S
O175 C163 1.268 . S
H176 C148 0.930 . S
H177 C149 0.929 . S
H178 C151 0.930 . S
H179 C152 0.929 . S
H180 C157 0.930 . S
H181 C158 0.929 . S
H182 C160 0.930 . S
H183 C161 0.929 . S
Nd184 C186 2.836 . S
Nd184 O204 2.500 . S
Nd184 O205 2.492 . S
Nd184 O206 2.487 . S
Nd184 O207 2.682 . S
Nd184 O208 2.410 . S
Nd184 O213 2.414 . S
Nd184 O215 2.424 . S
Nd185 C195 2.836 . S
Nd185 O207 2.414 . S
Nd185 O209 2.424 . S
Nd185 O210 2.500 . S
Nd185 O211 2.492 . S
Nd185 O212 2.487 . S
Nd185 O213 2.682 . S
Nd185 O214 2.410 . S
C186 Nd184 2.836 . S
C186 C187 1.498 . S
C186 O204 1.258 . S
C186 O205 1.239 . S
C187 C186 1.498 . S
C187 C188 1.366 . S
C187 C192 1.407 . S
C188 C187 1.366 . S
C188 C189 1.392 . S
C188 H216 0.930 . S
C189 C188 1.392 . S
C189 C190 1.398 . S
C189 H217 0.929 . S
C190 C189 1.398 . S
C190 C191 1.352 . S
C191 C190 1.352 . S
C191 C192 1.384 . S
C191 H218 0.930 . S
C192 C187 1.407 . S
C192 C191 1.384 . S
C192 H219 0.929 . S
C193 O206 1.241 . S
C193 O207 1.273 . S
C194 O208 1.251 . S
C194 O209 1.268 . S
C195 Nd185 2.836 . S
C195 C196 1.498 . S
C195 O210 1.258 . S
C195 O211 1.239 . S
C196 C195 1.498 . S
C196 C197 1.366 . S
C196 C201 1.407 . S
C197 C196 1.366 . S
C197 C198 1.392 . S
C197 H220 0.930 . S
C198 C197 1.392 . S
C198 C199 1.398 . S
C198 H221 0.929 . S
C199 C198 1.398 . S
C199 C200 1.352 . S
C200 C199 1.352 . S
C200 C201 1.384 . S
C200 H222 0.930 . S
C201 C196 1.407 . S
C201 C200 1.384 . S
C201 H223 0.929 . S
C202 O212 1.241 . S
C202 O213 1.273 . S
C203 O214 1.251 . S
C203 O215 1.268 . S
O204 Nd184 2.500 . S
O204 C186 1.258 . S
O205 Nd184 2.492 . S
O205 C186 1.239 . S
O206 Nd184 2.487 . S
O206 C193 1.241 . S
O207 Nd184 2.682 . S
O207 Nd185 2.414 . S
O207 C193 1.273 . S
O208 Nd184 2.410 . S
O208 C194 1.251 . S
O209 Nd185 2.424 . S
O209 C194 1.268 . S
O210 Nd185 2.500 . S
O210 C195 1.258 . S
O211 Nd185 2.492 . S
O211 C195 1.239 . S
O212 Nd185 2.487 . S
O212 C202 1.241 . S
O213 Nd184 2.414 . S
O213 Nd185 2.682 . S
O213 C202 1.273 . S
O214 Nd185 2.410 . S
O214 C203 1.251 . S
O215 Nd184 2.424 . S
O215 C203 1.268 . S
H216 C188 0.930 . S
H217 C189 0.929 . S
H218 C191 0.930 . S
H219 C192 0.929 . S
H220 C197 0.930 . S
H221 C198 0.929 . S
H222 C200 0.930 . S
H223 C201 0.929 . S
Nd224 C226 2.836 1_455 S
Nd224 O244 2.500 1_455 S
Nd224 O245 2.492 . S
Nd224 O246 2.487 . S
Nd224 O247 2.682 . S
Nd224 O248 2.410 . S
Nd224 O253 2.414 1_454 S
Nd224 O255 2.424 . S
Nd225 C235 2.836 . S
Nd225 O247 2.414 1_556 S
Nd225 O249 2.424 . S
Nd225 O250 2.500 . S
Nd225 O251 2.492 . S
Nd225 O252 2.487 1_455 S
Nd225 O253 2.682 1_455 S
Nd225 O254 2.410 . S
C226 Nd224 2.836 1_655 S
C226 C227 1.498 . S
C226 O244 1.258 . S
C226 O245 1.239 1_655 S
C227 C226 1.498 . S
C227 C228 1.366 . S
C227 C232 1.407 . S
C228 C227 1.366 . S
C228 C229 1.392 . S
C228 H256 0.930 . S
C229 C228 1.392 . S
C229 C230 1.398 . S
C229 H257 0.929 . S
C230 C229 1.398 . S
C230 C231 1.352 . S
C231 C230 1.352 . S
C231 C232 1.384 . S
C231 H258 0.930 . S
C232 C227 1.407 . S
C232 C231 1.384 . S
C232 H259 0.929 1_655 S
C233 O246 1.241 . S
C233 O247 1.273 . S
C234 O248 1.251 1_556 S
C234 O249 1.268 . S
C235 Nd225 2.836 . S
C235 C236 1.498 . S
C235 O250 1.258 . S
C235 O251 1.239 . S
C236 C235 1.498 . S
C236 C237 1.366 . S
C236 C241 1.407 . S
C237 C236 1.366 . S
C237 C238 1.392 . S
C237 H260 0.930 . S
C238 C237 1.392 . S
C238 C239 1.398 . S
C238 H261 0.929 . S
C239 C238 1.398 . S
C239 C240 1.352 . S
C240 C239 1.352 . S
C240 C241 1.384 . S
C240 H262 0.930 . S
C241 C236 1.407 . S
C241 C240 1.384 . S
C241 H263 0.929 . S
C242 O252 1.241 . S
C242 O253 1.273 . S
C243 O254 1.251 1_554 S
C243 O255 1.268 . S
O244 Nd224 2.500 1_655 S
O244 C226 1.258 . S
O245 Nd224 2.492 . S
O245 C226 1.239 1_455 S
O246 Nd224 2.487 . S
O246 C233 1.241 . S
O247 Nd224 2.682 . S
O247 Nd225 2.414 1_554 S
O247 C233 1.273 . S
O248 Nd224 2.410 . S
O248 C234 1.251 1_554 S
O249 Nd225 2.424 . S
O249 C234 1.268 . S
O250 Nd225 2.500 . S
O250 C235 1.258 . S
O251 Nd225 2.492 . S
O251 C235 1.239 . S
O252 Nd225 2.487 1_655 S
O252 C242 1.241 . S
O253 Nd224 2.414 1_656 S
O253 Nd225 2.682 1_655 S
O253 C242 1.273 . S
O254 Nd225 2.410 . S
O254 C243 1.251 1_556 S
O255 Nd224 2.424 . S
O255 C243 1.268 . S
H256 C228 0.930 . S
H257 C229 0.929 . S
H258 C231 0.930 . S
H259 C232 0.929 1_455 S
H260 C237 0.930 . S
H261 C238 0.929 . S
H262 C240 0.930 . S
H263 C241 0.929 . S
C9 C123 4.905 . S
C21 C154 2.717 . S
C193 C30 1.206 . S
C43 C230 1.207 . S
C153 C4 3.803 . S
C110 C22 1.734 . S
C242 C34 1.668 . S
C199 C48 2.157 . S
C8 C243 3.534 . S
C159 C35 2.330 . S
C47 C122 1.845 . S
C17 C194 2.415 . S
C114 C60 4.300 . S
C74 C163 3.089 . S
C82 C202 2.435 . S
C100 C239 1.392 . S
C61 C162 4.561 . S
C119 C73 1.047 . S
C233 C87 1.969 . S
C190 C95 1.808 . S
C56 C234 3.535 1_655 S
C150 C86 2.232 . S
C113 C99 2.169 . S
C69 C203 2.788 . S
