# Generated by pormake.
# Topology ssb, (4,4)-cn, num edge types: 1
# Building blocks:
#     Node 0, Type 0, BuildingBlock: NAHDIM_clean_linker_0, # of connection points: 4
#     Node 1, Type 0, BuildingBlock: NAHDIM_clean_linker_0, # of connection points: 4
#     Node 2, Type 0, BuildingBlock: NAHDIM_clean_linker_0, # of connection points: 4
#     Node 3, Type 0, BuildingBlock: NAHDIM_clean_linker_0, # of connection points: 4
#     Node 4, Type 0, BuildingBlock: NAHDIM_clean_linker_0, # of connection points: 4
#     Node 5, Type 0, BuildingBlock: NAHDIM_clean_linker_0, # of connection points: 4
#     Node 6, Type 0, BuildingBlock: NAHDIM_clean_linker_0, # of connection points: 4
#     Node 7, Type 0, BuildingBlock: NAHDIM_clean_linker_0, # of connection points: 4
#     Node 8, Type 1, BuildingBlock: KOZSID_clean_sbu_0, # of connection points: 4
#     Node 9, Type 1, BuildingBlock: KOZSID_clean_sbu_0, # of connection points: 4
#     Node 10, Type 1, BuildingBlock: KOZSID_clean_sbu_0, # of connection points: 4
#     Node 11, Type 1, BuildingBlock: KOZSID_clean_sbu_0, # of connection points: 4
#     Node 12, Type 1, BuildingBlock: KOZSID_clean_sbu_0, # of connection points: 4
#     Node 13, Type 1, BuildingBlock: KOZSID_clean_sbu_0, # of connection points: 4
#     Node 14, Type 1, BuildingBlock: KOZSID_clean_sbu_0, # of connection points: 4
#     Node 15, Type 1, BuildingBlock: KOZSID_clean_sbu_0, # of connection points: 4
#     Edge 16, Type (0, 1), BuildingBlock: KIFKEQ_clean_linker_1, # of connection points: 2
#     Edge 17, Type (0, 1), BuildingBlock: KIFKEQ_clean_linker_1, # of connection points: 2
#     Edge 18, Type (0, 1), BuildingBlock: KIFKEQ_clean_linker_1, # of connection points: 2
#     Edge 19, Type (0, 1), BuildingBlock: KIFKEQ_clean_linker_1, # of connection points: 2
#     Edge 20, Type (0, 1), BuildingBlock: KIFKEQ_clean_linker_1, # of connection points: 2
#     Edge 21, Type (0, 1), BuildingBlock: KIFKEQ_clean_linker_1, # of connection points: 2
#     Edge 22, Type (0, 1), BuildingBlock: KIFKEQ_clean_linker_1, # of connection points: 2
#     Edge 23, Type (0, 1), BuildingBlock: KIFKEQ_clean_linker_1, # of connection points: 2
#     Edge 24, Type (0, 1), BuildingBlock: KIFKEQ_clean_linker_1, # of connection points: 2
#     Edge 25, Type (0, 1), BuildingBlock: KIFKEQ_clean_linker_1, # of connection points: 2
#     Edge 26, Type (0, 1), BuildingBlock: KIFKEQ_clean_linker_1, # of connection points: 2
#     Edge 27, Type (0, 1), BuildingBlock: KIFKEQ_clean_linker_1, # of connection points: 2
#     Edge 28, Type (0, 1), BuildingBlock: KIFKEQ_clean_linker_1, # of connection points: 2
#     Edge 29, Type (0, 1), BuildingBlock: KIFKEQ_clean_linker_1, # of connection points: 2
#     Edge 30, Type (0, 1), BuildingBlock: KIFKEQ_clean_linker_1, # of connection points: 2
#     Edge 31, Type (0, 1), BuildingBlock: KIFKEQ_clean_linker_1, # of connection points: 2
#     Edge 32, Type (0, 1), BuildingBlock: KIFKEQ_clean_linker_1, # of connection points: 2
#     Edge 33, Type (0, 1), BuildingBlock: KIFKEQ_clean_linker_1, # of connection points: 2
#     Edge 34, Type (0, 1), BuildingBlock: KIFKEQ_clean_linker_1, # of connection points: 2
#     Edge 35, Type (0, 1), BuildingBlock: KIFKEQ_clean_linker_1, # of connection points: 2
#     Edge 36, Type (0, 1), BuildingBlock: KIFKEQ_clean_linker_1, # of connection points: 2
#     Edge 37, Type (0, 1), BuildingBlock: KIFKEQ_clean_linker_1, # of connection points: 2
#     Edge 38, Type (0, 1), BuildingBlock: KIFKEQ_clean_linker_1, # of connection points: 2
#     Edge 39, Type (0, 1), BuildingBlock: KIFKEQ_clean_linker_1, # of connection points: 2
#     Edge 40, Type (0, 1), BuildingBlock: KIFKEQ_clean_linker_1, # of connection points: 2
#     Edge 41, Type (0, 1), BuildingBlock: KIFKEQ_clean_linker_1, # of connection points: 2
#     Edge 42, Type (0, 1), BuildingBlock: KIFKEQ_clean_linker_1, # of connection points: 2
#     Edge 43, Type (0, 1), BuildingBlock: KIFKEQ_clean_linker_1, # of connection points: 2
#     Edge 44, Type (0, 1), BuildingBlock: KIFKEQ_clean_linker_1, # of connection points: 2
#     Edge 45, Type (0, 1), BuildingBlock: KIFKEQ_clean_linker_1, # of connection points: 2
#     Edge 46, Type (0, 1), BuildingBlock: KIFKEQ_clean_linker_1, # of connection points: 2
#     Edge 47, Type (0, 1), BuildingBlock: KIFKEQ_clean_linker_1, # of connection points: 2
# Relax obj value: 0.004
# Max RMSD: 0.052
# Mean RMSD: 0.032
data_MOF--net-ssb--node1-KOZSID_clean_sbu_0--node2-NAHDIM_clean_linker_0--edge1-KIFKEQ_clean_linker_1
_symmetry_space_group_name_H-M    P1
_symmetry_Int_Tables_number       1
_symmetry_cell_setting            triclinic
loop_
_symmetry_equiv_pos_as_xyz
'x, y, z'
_cell_length_a     73.011729
_cell_length_b     72.938559
_cell_length_c     53.292094
_cell_angle_alpha  91.977171
_cell_angle_beta   93.991067
_cell_angle_gamma 90.013779
loop_
_atom_site_label
_atom_site_type_symbol
_atom_site_fract_x
_atom_site_fract_y
_atom_site_fract_z
_atom_type_partial_charge
C0 C 0.32455 0.14334 0.35176 0.0
C1 C 0.31064 0.14923 0.37071 0.0
C2 C 0.29297 0.1716 0.34607 0.0
C3 C 0.30132 0.18788 0.35597 0.0
C4 C 0.30011 0.20406 0.34246 0.0
C5 C 0.29047 0.20392 0.31849 0.0
C6 C 0.28147 0.18771 0.30887 0.0
C7 C 0.28263 0.1718 0.32302 0.0
C8 C 0.30942 0.22124 0.35362 0.0
C9 C 0.27108 0.18706 0.28338 0.0
C10 C 0.37645 0.27775 0.20196 0.0
C11 C 0.37114 0.25748 0.19864 0.0
C12 C 0.35606 0.24625 0.23445 0.0
C13 C 0.34055 0.23761 0.22229 0.0
C14 C 0.32483 0.23454 0.23529 0.0
C15 C 0.32468 0.24028 0.26092 0.0
C16 C 0.34057 0.24837 0.27343 0.0
C17 C 0.35617 0.25104 0.26004 0.0
C18 C 0.30832 0.22535 0.22163 0.0
C19 C 0.34096 0.25446 0.3008 0.0
C20 C 0.25 0.33484 0.21741 0.0
C21 C 0.24553 0.31697 0.20823 0.0
C22 C 0.24521 0.30233 0.2246 0.0
C23 C 0.24982 0.30553 0.25062 0.0
C24 C 0.25411 0.32352 0.25997 0.0
C25 C 0.25389 0.33798 0.24324 0.0
C26 C 0.23987 0.28345 0.21407 0.0
C27 C 0.25909 0.32742 0.28759 0.0
C28 C 0.17224 0.23801 0.37829 0.0
C29 C 0.17179 0.259 0.37846 0.0
C30 C 0.18633 0.26738 0.34066 0.0
C31 C 0.18569 0.26098 0.31562 0.0
C32 C 0.20095 0.26268 0.30126 0.0
C33 C 0.21705 0.27135 0.31219 0.0
C34 C 0.21749 0.27858 0.3372 0.0
C35 C 0.20209 0.27654 0.3512 0.0
C36 C 0.19998 0.25501 0.27454 0.0
C37 C 0.23427 0.28842 0.34911 0.0
C38 C 0.29082 0.22039 0.30291 0.0
C39 C 0.3062 0.22293 0.2892 0.0
C40 C 0.30778 0.23826 0.27449 0.0
C41 C 0.29356 0.25141 0.27309 0.0
C42 C 0.29474 0.26701 0.25848 0.0
C43 C 0.28054 0.27973 0.25688 0.0
C44 C 0.26467 0.27738 0.26992 0.0
C45 C 0.24998 0.29001 0.26797 0.0
C46 C 0.23469 0.28763 0.28189 0.0
C47 C 0.23351 0.27277 0.29757 0.0
C48 C 0.24778 0.25968 0.2992 0.0
C49 C 0.24681 0.24431 0.31432 0.0
C50 C 0.26091 0.23145 0.31566 0.0
C51 C 0.27648 0.23344 0.30189 0.0
C52 C 0.27782 0.24894 0.28675 0.0
C53 C 0.26343 0.26202 0.28531 0.0
C54 C 0.27553 0.3469 0.17575 0.0
C55 C 0.25475 0.34901 0.17721 0.0
O56 O 0.2947 0.15548 0.3581 0.0
O57 O 0.17139 0.26485 0.35395 0.0
O58 O 0.25044 0.34941 0.20218 0.0
O59 O 0.3712 0.24987 0.22213 0.0
H60 H 0.31691 0.16028 0.38335 0.0
H61 H 0.3284 0.15528 0.34083 0.0
H62 H 0.31861 0.13251 0.33842 0.0
H63 H 0.33722 0.13801 0.36171 0.0
H64 H 0.3087 0.18814 0.37428 0.0
H65 H 0.27602 0.15923 0.3157 0.0
H66 H 0.32139 0.22442 0.34279 0.0
H67 H 0.31431 0.21977 0.37366 0.0
H68 H 0.29986 0.23306 0.35225 0.0
H69 H 0.26521 0.17326 0.27832 0.0
H70 H 0.28034 0.19093 0.26875 0.0
H71 H 0.25972 0.19719 0.28319 0.0
H72 H 0.35719 0.25686 0.18878 0.0
H73 H 0.37644 0.28418 0.18336 0.0
H74 H 0.3903 0.27933 0.21184 0.0
H75 H 0.36636 0.2851 0.21328 0.0
H76 H 0.34076 0.23314 0.20272 0.0
H77 H 0.36837 0.25738 0.26931 0.0
H78 H 0.30386 0.21357 0.2324 0.0
H79 H 0.31113 0.22037 0.20234 0.0
H80 H 0.29674 0.23522 0.22023 0.0
H81 H 0.35402 0.26147 0.30738 0.0
H82 H 0.33921 0.24235 0.31245 0.0
H83 H 0.32936 0.26394 0.3039 0.0
H84 H 0.2478 0.33731 0.16663 0.0
H85 H 0.24189 0.31427 0.18847 0.0
H86 H 0.25714 0.35182 0.25021 0.0
H87 H 0.25202 0.2743 0.21544 0.0
H88 H 0.23455 0.28364 0.19404 0.0
H89 H 0.2292 0.27743 0.22521 0.0
H90 H 0.26365 0.34183 0.29154 0.0
H91 H 0.27023 0.31807 0.29439 0.0
H92 H 0.247 0.32479 0.29848 0.0
H93 H 0.18429 0.26412 0.3896 0.0
H94 H 0.1724 0.2331 0.39782 0.0
H95 H 0.18485 0.23296 0.36981 0.0
H96 H 0.16009 0.23213 0.3671 0.0
H97 H 0.17331 0.25423 0.30756 0.0
H98 H 0.20235 0.28237 0.37016 0.0
H99 H 0.21114 0.24486 0.27232 0.0
H100 H 0.20212 0.26622 0.26146 0.0
H101 H 0.18659 0.24827 0.26899 0.0
H102 H 0.23213 0.29402 0.36834 0.0
H103 H 0.23799 0.29987 0.33722 0.0
H104 H 0.24606 0.27881 0.35026 0.0
H105 H 0.31719 0.2129 0.29014 0.0
H106 H 0.3066 0.26954 0.24799 0.0
H107 H 0.28218 0.29143 0.24527 0.0
H108 H 0.2235 0.29741 0.28041 0.0
H109 H 0.23511 0.24202 0.32523 0.0
H110 H 0.25942 0.21989 0.32757 0.0
H111 H 0.27915 0.34675 0.15583 0.0
H112 H 0.28016 0.33377 0.184 0.0
H113 H 0.28295 0.35837 0.18632 0.0
C114 C 0.66868 0.16662 0.15006 0.0
C115 C 0.66418 0.18635 0.15805 0.0
C116 C 0.68993 0.20551 0.17295 0.0
C117 C 0.68265 0.2173 0.19097 0.0
C118 C 0.69394 0.22488 0.21109 0.0
C119 C 0.7128 0.22018 0.21344 0.0
C120 C 0.72017 0.20842 0.19497 0.0
C121 C 0.70866 0.20157 0.1746 0.0
C122 C 0.6856 0.2376 0.23007 0.0
C123 C 0.74006 0.20263 0.19707 0.0
C124 C 0.73699 0.19304 0.41299 0.0
C125 C 0.73609 0.18172 0.38823 0.0
C126 C 0.72471 0.19599 0.34942 0.0
C127 C 0.73762 0.18903 0.33324 0.0
C128 C 0.7403 0.19745 0.31048 0.0
C129 C 0.72981 0.21308 0.3038 0.0
C130 C 0.71631 0.21966 0.31963 0.0
C131 C 0.71382 0.21088 0.34216 0.0
C132 C 0.75444 0.18979 0.29366 0.0
C133 C 0.70475 0.23616 0.31294 0.0
C134 C 0.82502 0.28989 0.34196 0.0
C135 C 0.8279 0.2742 0.32683 0.0
C136 C 0.81624 0.2701 0.3053 0.0
C137 C 0.80125 0.28182 0.29908 0.0
C138 C 0.79864 0.2979 0.31403 0.0
C139 C 0.81077 0.30186 0.33512 0.0
C140 C 0.8199 0.25321 0.28926 0.0
C141 C 0.78288 0.31075 0.30795 0.0
C142 C 0.77318 0.31256 0.09962 0.0
C143 C 0.77351 0.32277 0.12519 0.0
C144 C 0.78576 0.30852 0.16368 0.0
C145 C 0.79699 0.29383 0.17076 0.0
C146 C 0.79507 0.28516 0.19353 0.0
C147 C 0.78185 0.2917 0.20981 0.0
C148 C 0.77112 0.30723 0.20337 0.0
C149 C 0.77316 0.31548 0.1803 0.0
C150 C 0.80687 0.26876 0.19993 0.0
C151 C 0.75734 0.31492 0.22072 0.0
C152 C 0.72449 0.22658 0.236 0.0
C153 C 0.72238 0.21781 0.25855 0.0
C154 C 0.73312 0.22272 0.28046 0.0
C155 C 0.74664 0.23656 0.27995 0.0
C156 C 0.75785 0.24167 0.3016 0.0
C157 C 0.77137 0.25504 0.30078 0.0
C158 C 0.77418 0.26386 0.27831 0.0
C159 C 0.78821 0.27714 0.27712 0.0
C160 C 0.79028 0.28601 0.25464 0.0
C161 C 0.77879 0.28189 0.23311 0.0
C162 C 0.76494 0.26837 0.23377 0.0
C163 C 0.75333 0.26365 0.21232 0.0
C164 C 0.73991 0.25016 0.21308 0.0
C165 C 0.7377 0.24072 0.23522 0.0
C166 C 0.74898 0.24553 0.25721 0.0
C167 C 0.76268 0.2593 0.25644 0.0
C168 C 0.8273 0.28596 0.40326 0.0
C169 C 0.84011 0.28201 0.38221 0.0
O170 O 0.67899 0.19753 0.1541 0.0
O171 O 0.78756 0.31569 0.14082 0.0
O172 O 0.83605 0.29397 0.36293 0.0
O173 O 0.72232 0.18864 0.37202 0.0
H174 H 0.66165 0.18639 0.17846 0.0
H175 H 0.68107 0.16192 0.16131 0.0
H176 H 0.67145 0.16569 0.1298 0.0
H177 H 0.65708 0.15733 0.15332 0.0
H178 H 0.66813 0.22048 0.18926 0.0
H179 H 0.71408 0.19248 0.16041 0.0
H180 H 0.68416 0.23022 0.2477 0.0
H181 H 0.6718 0.2425 0.22318 0.0
H182 H 0.69465 0.24967 0.23468 0.0
H183 H 0.74294 0.19146 0.1832 0.0
H184 H 0.74396 0.1979 0.21629 0.0
H185 H 0.74892 0.21453 0.1937 0.0
H186 H 0.74979 0.18319 0.38052 0.0
H187 H 0.72363 0.19268 0.42176 0.0
H188 H 0.74029 0.20754 0.40939 0.0
H189 H 0.74789 0.18768 0.42637 0.0
H190 H 0.74552 0.17698 0.33828 0.0
H191 H 0.70369 0.21594 0.3546 0.0
H192 H 0.74799 0.18681 0.27446 0.0
H193 H 0.76085 0.17703 0.30092 0.0
H194 H 0.76539 0.20015 0.292 0.0
H195 H 0.69507 0.23978 0.3275 0.0
H196 H 0.69676 0.23339 0.29472 0.0
H197 H 0.71378 0.24815 0.31056 0.0
H198 H 0.83778 0.26753 0.37543 0.0
H199 H 0.83938 0.2653 0.3317 0.0
H200 H 0.80889 0.31409 0.34679 0.0
H201 H 0.80893 0.24292 0.29112 0.0
H202 H 0.83334 0.24686 0.29479 0.0
H203 H 0.81966 0.25671 0.26912 0.0
H204 H 0.78192 0.3219 0.32253 0.0
H205 H 0.76973 0.30299 0.30615 0.0
H206 H 0.78465 0.31703 0.28959 0.0
H207 H 0.75991 0.32035 0.13277 0.0
H208 H 0.76186 0.31776 0.08675 0.0
H209 H 0.77086 0.29769 0.10203 0.0
H210 H 0.78643 0.31431 0.09089 0.0
H211 H 0.8069 0.28879 0.15797 0.0
H212 H 0.76497 0.32737 0.17533 0.0
H213 H 0.79801 0.25674 0.2028 0.0
H214 H 0.81524 0.27166 0.21782 0.0
H215 H 0.81624 0.26512 0.18497 0.0
H216 H 0.75116 0.32793 0.21398 0.0
H217 H 0.76401 0.31744 0.2399 0.0
H218 H 0.74617 0.30476 0.22222 0.0
H219 H 0.71223 0.20699 0.25906 0.0
H220 H 0.75639 0.2353 0.3194 0.0
H221 H 0.77962 0.25834 0.31801 0.0
H222 H 0.80105 0.29619 0.25386 0.0
H223 H 0.75452 0.2703 0.19465 0.0
H224 H 0.73136 0.24715 0.19602 0.0
H225 H 0.82919 0.30027 0.41086 0.0
H226 H 0.83005 0.27632 0.41878 0.0
H227 H 0.81279 0.28414 0.39583 0.0
C228 C 0.69157 0.87227 0.31822 0.0
C229 C 0.70176 0.86422 0.3414 0.0
C230 C 0.71968 0.83955 0.32391 0.0
C231 C 0.71265 0.82404 0.33478 0.0
C232 C 0.71338 0.80669 0.32265 0.0
C233 C 0.72117 0.8049 0.2991 0.0
C234 C 0.72888 0.82046 0.28858 0.0
C235 C 0.72827 0.83758 0.30138 0.0
C236 C 0.70546 0.79035 0.33477 0.0
C237 C 0.73725 0.81909 0.26348 0.0
C238 C 0.62087 0.72273 0.1824 0.0
C239 C 0.63032 0.74136 0.18124 0.0
C240 C 0.6494 0.75367 0.2174 0.0
C241 C 0.66353 0.76152 0.20474 0.0
C242 C 0.68051 0.7659 0.21755 0.0
C243 C 0.68338 0.76225 0.24344 0.0
C244 C 0.66896 0.7548 0.25633 0.0
C245 C 0.65205 0.75083 0.24315 0.0
C246 C 0.69542 0.77437 0.20343 0.0
C247 C 0.67147 0.75086 0.28397 0.0
C248 C 0.75948 0.66691 0.20856 0.0
C249 C 0.76302 0.68383 0.19805 0.0
C250 C 0.76355 0.70011 0.21292 0.0
C251 C 0.76041 0.69945 0.23878 0.0
C252 C 0.75716 0.68237 0.2495 0.0
C253 C 0.75696 0.66627 0.23425 0.0
C254 C 0.76768 0.71802 0.20106 0.0
C255 C 0.75387 0.68115 0.27703 0.0
C256 C 0.85481 0.77945 0.35843 0.0
C257 C 0.85161 0.75879 0.35977 0.0
C258 C 0.83168 0.74788 0.32361 0.0
C259 C 0.82887 0.75219 0.29831 0.0
C260 C 0.81187 0.74894 0.28499 0.0
C261 C 0.7975 0.74079 0.29723 0.0
C262 C 0.80045 0.73585 0.32263 0.0
C263 C 0.81755 0.73944 0.33559 0.0
C264 C 0.80924 0.75424 0.25786 0.0
C265 C 0.78557 0.72663 0.33597 0.0
C266 C 0.72013 0.78706 0.28476 0.0
C267 C 0.70365 0.78268 0.27093 0.0
C268 C 0.70147 0.76613 0.25708 0.0
C269 C 0.71618 0.75354 0.25668 0.0
C270 C 0.71447 0.73675 0.24292 0.0
C271 C 0.72912 0.72458 0.24232 0.0
C272 C 0.74602 0.72869 0.25559 0.0
C273 C 0.76111 0.71657 0.25474 0.0
C274 C 0.77757 0.72087 0.26865 0.0
C275 C 0.77952 0.73711 0.28328 0.0
C276 C 0.76472 0.74959 0.28401 0.0
C277 C 0.76631 0.76619 0.29823 0.0
C278 C 0.7517 0.77844 0.29866 0.0
C279 C 0.73499 0.7746 0.28476 0.0
C280 C 0.73302 0.75784 0.2705 0.0
C281 C 0.74792 0.74534 0.27008 0.0
C282 C 0.72992 0.64427 0.17314 0.0
C283 C 0.75031 0.64823 0.17085 0.0
O284 O 0.71819 0.85655 0.33471 0.0
O285 O 0.84838 0.75141 0.33554 0.0
O286 O 0.759 0.65092 0.19469 0.0
O287 O 0.63299 0.74888 0.20546 0.0
H288 H 0.6928 0.85355 0.34862 0.0
H289 H 0.68838 0.86124 0.30368 0.0
H290 H 0.70012 0.88284 0.31004 0.0
H291 H 0.67843 0.87858 0.32334 0.0
H292 H 0.70661 0.82548 0.35272 0.0
H293 H 0.73386 0.84965 0.29336 0.0
H294 H 0.69255 0.78603 0.32396 0.0
H295 H 0.70236 0.79348 0.35457 0.0
H296 H 0.71514 0.77862 0.33435 0.0
H297 H 0.74199 0.83261 0.25741 0.0
H298 H 0.72705 0.81332 0.24888 0.0
H299 H 0.74914 0.80961 0.26464 0.0
H300 H 0.6437 0.73874 0.17293 0.0
H301 H 0.61878 0.7162 0.16325 0.0
H302 H 0.60734 0.72428 0.19059 0.0
H303 H 0.62957 0.71351 0.19434 0.0
H304 H 0.66125 0.7644 0.18497 0.0
H305 H 0.64092 0.74503 0.25278 0.0
H306 H 0.7005 0.78718 0.21343 0.0
H307 H 0.6906 0.77757 0.18384 0.0
H308 H 0.70719 0.76477 0.20279 0.0
H309 H 0.65937 0.7438 0.29078 0.0
H310 H 0.67373 0.76393 0.29501 0.0
H311 H 0.6838 0.74218 0.28763 0.0
H312 H 0.75138 0.66069 0.15964 0.0
H313 H 0.76585 0.68437 0.17843 0.0
H314 H 0.75452 0.65311 0.24226 0.0
H315 H 0.75566 0.72727 0.20192 0.0
H316 H 0.77092 0.71608 0.18108 0.0
H317 H 0.77948 0.72495 0.21173 0.0
H318 H 0.75018 0.66702 0.28206 0.0
H319 H 0.74266 0.69063 0.28192 0.0
H320 H 0.76645 0.68549 0.28861 0.0
H321 H 0.83958 0.7568 0.37108 0.0
H322 H 0.85721 0.78578 0.37765 0.0
H323 H 0.84252 0.78598 0.34908 0.0
H324 H 0.86686 0.78224 0.34747 0.0
H325 H 0.84 0.7584 0.28915 0.0
H326 H 0.81994 0.73528 0.35484 0.0
H327 H 0.79715 0.7634 0.2553 0.0
H328 H 0.80644 0.74176 0.24567 0.0
H329 H 0.82146 0.76133 0.25146 0.0
H330 H 0.79022 0.7231 0.3555 0.0
H331 H 0.781 0.71389 0.32533 0.0
H332 H 0.7735 0.73583 0.33664 0.0
H333 H 0.69229 0.79227 0.27107 0.0
H334 H 0.70179 0.73285 0.23232 0.0
H335 H 0.72704 0.71191 0.23131 0.0
H336 H 0.78909 0.71152 0.2679 0.0
H337 H 0.7789 0.76993 0.30917 0.0
H338 H 0.7537 0.791 0.30995 0.0
H339 H 0.72275 0.64206 0.15419 0.0
H340 H 0.72342 0.65613 0.18267 0.0
H341 H 0.72814 0.63189 0.18433 0.0
C342 C 0.34202 0.83345 0.16128 0.0
C343 C 0.34706 0.81322 0.16392 0.0
C344 C 0.32043 0.79532 0.17227 0.0
C345 C 0.32705 0.78444 0.19206 0.0
C346 C 0.31518 0.7781 0.2095 0.0
C347 C 0.29638 0.78292 0.20712 0.0
C348 C 0.28959 0.79345 0.18665 0.0
C349 C 0.30172 0.79923 0.16918 0.0
C350 C 0.32282 0.76662 0.23078 0.0
C351 C 0.26971 0.79914 0.18368 0.0
C352 C 0.2704 0.87655 0.3559 0.0
C353 C 0.26404 0.86135 0.33808 0.0
C354 C 0.27265 0.83066 0.32386 0.0
C355 C 0.25973 0.83005 0.30297 0.0
C356 C 0.25955 0.81552 0.28508 0.0
C357 C 0.2725 0.80121 0.28809 0.0
C358 C 0.28525 0.8015 0.30933 0.0
C359 C 0.28511 0.81624 0.32703 0.0
C360 C 0.24575 0.81571 0.26261 0.0
C361 C 0.29916 0.78639 0.31306 0.0
C362 C 0.18586 0.71956 0.31661 0.0
C363 C 0.18151 0.73322 0.29931 0.0
C364 C 0.19263 0.73612 0.27936 0.0
C365 C 0.20843 0.72514 0.27679 0.0
C366 C 0.2124 0.71088 0.29364 0.0
C367 C 0.20089 0.70814 0.31322 0.0
C368 C 0.18765 0.75107 0.26123 0.0
C369 C 0.22901 0.69881 0.29128 0.0
C370 C 0.23324 0.69179 0.07667 0.0
C371 C 0.23281 0.68354 0.10263 0.0
C372 C 0.2211 0.69803 0.14027 0.0
C373 C 0.21073 0.71308 0.14766 0.0
C374 C 0.21307 0.72074 0.17216 0.0
C375 C 0.22587 0.71284 0.18979 0.0
C376 C 0.23551 0.69682 0.18292 0.0
C377 C 0.23307 0.68958 0.15816 0.0
C378 C 0.20234 0.73767 0.17896 0.0
C379 C 0.2488 0.68776 0.20153 0.0
C380 C 0.28417 0.7782 0.22712 0.0
C381 C 0.28487 0.78955 0.24883 0.0
C382 C 0.27323 0.78667 0.26804 0.0
C383 C 0.26095 0.77164 0.2661 0.0
C384 C 0.24956 0.76793 0.28552 0.0
C385 C 0.23684 0.75366 0.28289 0.0
C386 C 0.23475 0.74283 0.2605 0.0
C387 C 0.22112 0.72899 0.25702 0.0
C388 C 0.21893 0.719 0.23414 0.0
C389 C 0.23019 0.72229 0.21459 0.0
C390 C 0.24436 0.73556 0.21807 0.0
C391 C 0.25632 0.7388 0.19908 0.0
C392 C 0.26977 0.75235 0.20231 0.0
C393 C 0.27141 0.76357 0.22432 0.0
C394 C 0.25974 0.7603 0.2439 0.0
C395 C 0.2464 0.74609 0.24092 0.0
C396 C 0.18424 0.73228 0.37574 0.0
C397 C 0.17029 0.73073 0.35298 0.0
O398 O 0.33193 0.80243 0.15623 0.0
O399 O 0.21937 0.69225 0.11572 0.0
O400 O 0.17567 0.71694 0.33652 0.0
O401 O 0.27369 0.84507 0.34086 0.0
H402 H 0.35122 0.81123 0.18416 0.0
H403 H 0.33068 0.83701 0.17341 0.0
H404 H 0.33742 0.8363 0.14147 0.0
H405 H 0.35401 0.84233 0.16728 0.0
H406 H 0.34151 0.78105 0.19392 0.0
H407 H 0.29679 0.80752 0.15362 0.0
H408 H 0.3227 0.77475 0.24877 0.0
H409 H 0.33712 0.76213 0.2282 0.0
H410 H 0.31407 0.75432 0.23239 0.0
H411 H 0.26698 0.80855 0.1679 0.0
H412 H 0.26563 0.80607 0.20131 0.0
H413 H 0.26088 0.78682 0.18009 0.0
H414 H 0.24886 0.85921 0.33639 0.0
H415 H 0.28051 0.8961 0.33241 0.0
H416 H 0.27918 0.87009 0.37143 0.0
H417 H 0.25852 0.8794 0.36782 0.0
H418 H 0.24986 0.84097 0.30026 0.0
H419 H 0.29499 0.81675 0.34319 0.0
H420 H 0.25298 0.8152 0.24496 0.0
H421 H 0.2369 0.8281 0.26271 0.0
H422 H 0.23682 0.80338 0.26239 0.0
H423 H 0.30729 0.78792 0.33142 0.0
H424 H 0.30871 0.78647 0.29773 0.0
H425 H 0.29212 0.77286 0.31196 0.0
H426 H 0.16997 0.74424 0.34387 0.0
H427 H 0.16938 0.74154 0.30126 0.0
H428 H 0.20391 0.69741 0.32646 0.0
H429 H 0.19827 0.76201 0.26328 0.0
H430 H 0.17411 0.75732 0.26449 0.0
H431 H 0.18734 0.74547 0.24157 0.0
H432 H 0.23037 0.68851 0.30617 0.0
H433 H 0.24162 0.7074 0.29244 0.0
H434 H 0.22808 0.69151 0.27261 0.0
H435 H 0.24664 0.68623 0.11226 0.0
H436 H 0.24381 0.68486 0.06572 0.0
H437 H 0.23675 0.70661 0.07884 0.0
H438 H 0.21967 0.69042 0.06598 0.0
H439 H 0.20129 0.71927 0.13382 0.0
H440 H 0.24062 0.67746 0.15281 0.0
H441 H 0.21194 0.74911 0.18467 0.0
H442 H 0.19418 0.73494 0.19526 0.0
H443 H 0.19287 0.74209 0.1631 0.0
H444 H 0.25384 0.67441 0.19408 0.0
H445 H 0.24216 0.68548 0.21929 0.0
H446 H 0.26078 0.69694 0.20617 0.0
H447 H 0.29411 0.80126 0.25035 0.0
H448 H 0.25035 0.77607 0.30295 0.0
H449 H 0.22843 0.75147 0.29846 0.0
H450 H 0.20807 0.70883 0.23129 0.0
H451 H 0.25542 0.73091 0.18145 0.0
H452 H 0.27861 0.7542 0.1871 0.0
H453 H 0.18533 0.71908 0.38555 0.0
H454 H 0.18012 0.74326 0.38919 0.0
H455 H 0.19796 0.73582 0.36949 0.0
C456 C 0.16846 0.67382 0.64326 0.0
C457 C 0.1633 0.69378 0.64895 0.0
C458 C 0.18965 0.71276 0.6619 0.0
C459 C 0.18338 0.72383 0.68149 0.0
C460 C 0.19566 0.73075 0.70095 0.0
C461 C 0.21453 0.72624 0.70089 0.0
C462 C 0.22093 0.71553 0.68062 0.0
C463 C 0.20838 0.70922 0.66107 0.0
C464 C 0.18839 0.74245 0.72194 0.0
C465 C 0.24085 0.71012 0.68009 0.0
C466 C 0.19067 0.66342 0.82696 0.0
C467 C 0.21093 0.65829 0.83164 0.0
C468 C 0.22691 0.68615 0.82326 0.0
C469 C 0.23838 0.68087 0.80432 0.0
C470 C 0.24305 0.69333 0.78632 0.0
C471 C 0.23588 0.71137 0.7872 0.0
C472 C 0.22494 0.71693 0.80702 0.0
C473 C 0.22084 0.70427 0.8251 0.0
C474 C 0.25509 0.68703 0.76582 0.0
C475 C 0.21685 0.73594 0.80841 0.0
C476 C 0.32663 0.79317 0.83308 0.0
C477 C 0.3306 0.77869 0.81639 0.0
C478 C 0.31907 0.77486 0.79464 0.0
C479 C 0.30306 0.78552 0.78992 0.0
C480 C 0.29927 0.80037 0.80658 0.0
C481 C 0.31132 0.80418 0.82778 0.0
C482 C 0.32398 0.75942 0.77677 0.0
C483 C 0.28243 0.81213 0.80213 0.0
C484 C 0.26176 0.83056 0.6052 0.0
C485 C 0.2673 0.84242 0.62875 0.0
C486 C 0.2815 0.82412 0.66238 0.0
C487 C 0.29268 0.80863 0.66426 0.0
C488 C 0.29211 0.7971 0.68475 0.0
C489 C 0.28025 0.80144 0.70399 0.0
C490 C 0.26946 0.81753 0.70271 0.0
C491 C 0.27026 0.82877 0.68195 0.0
C492 C 0.30395 0.78017 0.68571 0.0
C493 C 0.25702 0.82278 0.72323 0.0
C494 C 0.22715 0.73111 0.72318 0.0
C495 C 0.22634 0.72033 0.74421 0.0
C496 C 0.23798 0.72356 0.76582 0.0
C497 C 0.25104 0.73792 0.76653 0.0
C498 C 0.26316 0.74142 0.7878 0.0
C499 C 0.27589 0.75567 0.78833 0.0
C500 C 0.27718 0.76678 0.76745 0.0
C501 C 0.29023 0.78116 0.76766 0.0
C502 C 0.291 0.79202 0.74664 0.0
C503 C 0.27897 0.78904 0.72533 0.0
C504 C 0.26588 0.7747 0.72469 0.0
C505 C 0.25357 0.77134 0.70353 0.0
C506 C 0.24077 0.75717 0.70305 0.0
C507 C 0.23987 0.74575 0.72364 0.0
C508 C 0.25197 0.74905 0.74533 0.0
C509 C 0.26504 0.7635 0.74581 0.0
C510 C 0.32844 0.78699 0.89346 0.0
C511 C 0.3418 0.78447 0.87273 0.0
O512 O 0.17778 0.70507 0.64389 0.0
O513 O 0.28221 0.83447 0.64176 0.0
O514 O 0.33756 0.79696 0.8542 0.0
O515 O 0.22107 0.67381 0.83941 0.0
H516 H 0.16057 0.69498 0.66927 0.0
H517 H 0.18088 0.67011 0.65524 0.0
H518 H 0.17144 0.67178 0.62319 0.0
H519 H 0.15709 0.66449 0.64739 0.0
H520 H 0.16886 0.72686 0.68163 0.0
H521 H 0.21302 0.70077 0.64563 0.0
H522 H 0.18847 0.73437 0.73922 0.0
H523 H 0.17413 0.74714 0.71721 0.0
H524 H 0.19734 0.75463 0.72621 0.0
H525 H 0.24333 0.70063 0.66394 0.0
H526 H 0.24546 0.7034 0.69781 0.0
H527 H 0.24943 0.72256 0.67876 0.0
H528 H 0.21579 0.6525 0.81367 0.0
H529 H 0.18237 0.65107 0.82087 0.0
H530 H 0.18907 0.67351 0.81183 0.0
H531 H 0.18529 0.66959 0.84432 0.0
H532 H 0.24345 0.66692 0.80343 0.0
H533 H 0.21211 0.70819 0.84001 0.0
H534 H 0.26579 0.6975 0.76321 0.0
H535 H 0.2466 0.68533 0.74779 0.0
H536 H 0.26188 0.67375 0.77 0.0
H537 H 0.20822 0.73795 0.82465 0.0
H538 H 0.20832 0.73852 0.79081 0.0
H539 H 0.22803 0.74631 0.81011 0.0
H540 H 0.34026 0.77015 0.86487 0.0
H541 H 0.34283 0.77057 0.82025 0.0
H542 H 0.30859 0.81549 0.84071 0.0
H543 H 0.31404 0.74798 0.77768 0.0
H544 H 0.33801 0.75407 0.78138 0.0
H545 H 0.32308 0.76412 0.75713 0.0
H546 H 0.28039 0.82178 0.81828 0.0
H547 H 0.27001 0.80336 0.79866 0.0
H548 H 0.28381 0.82023 0.78512 0.0
H549 H 0.25515 0.84302 0.64023 0.0
H550 H 0.24993 0.83681 0.59437 0.0
H551 H 0.25761 0.8167 0.61074 0.0
H552 H 0.2734 0.82904 0.59292 0.0
H553 H 0.30156 0.80535 0.64927 0.0
H554 H 0.26228 0.84127 0.68127 0.0
H555 H 0.29513 0.76779 0.68609 0.0
H556 H 0.31309 0.78062 0.70327 0.0
H557 H 0.31254 0.77878 0.66933 0.0
H558 H 0.24969 0.83587 0.71964 0.0
H559 H 0.26519 0.82417 0.74156 0.0
H560 H 0.24671 0.81177 0.72487 0.0
H561 H 0.21648 0.70915 0.74372 0.0
H562 H 0.2629 0.73319 0.80431 0.0
H563 H 0.28476 0.7578 0.80531 0.0
H564 H 0.30099 0.80306 0.74697 0.0
H565 H 0.2537 0.77962 0.68707 0.0
H566 H 0.23161 0.75523 0.6863 0.0
H567 H 0.32956 0.80109 0.90203 0.0
H568 H 0.33135 0.7769 0.90837 0.0
H569 H 0.31413 0.78476 0.88541 0.0
C570 C 0.26233 0.37588 0.83966 0.0
C571 C 0.2416 0.37527 0.84275 0.0
C572 C 0.23369 0.34242 0.83738 0.0
C573 C 0.22801 0.32711 0.84985 0.0
C574 C 0.22497 0.31013 0.83706 0.0
C575 C 0.22797 0.30842 0.81115 0.0
C576 C 0.23364 0.32386 0.79831 0.0
C577 C 0.23632 0.34075 0.8115 0.0
C578 C 0.21861 0.29402 0.85123 0.0
C579 C 0.237 0.32246 0.77068 0.0
C580 C 0.1157 0.24431 0.72004 0.0
C581 C 0.12063 0.26425 0.71515 0.0
C582 C 0.15419 0.26655 0.72426 0.0
C583 C 0.17069 0.26985 0.71344 0.0
C584 C 0.18733 0.27132 0.72819 0.0
C585 C 0.18749 0.26891 0.75444 0.0
C586 C 0.17086 0.2654 0.76557 0.0
C587 C 0.15433 0.26444 0.75042 0.0
C588 C 0.20469 0.27562 0.71568 0.0
C589 C 0.17056 0.26267 0.79348 0.0
C590 C 0.24883 0.16401 0.73217 0.0
C591 C 0.25693 0.1786 0.72041 0.0
C592 C 0.26077 0.1953 0.73358 0.0
C593 C 0.25661 0.19733 0.75906 0.0
C594 C 0.24931 0.18234 0.77129 0.0
C595 C 0.24562 0.1658 0.75766 0.0
C596 C 0.26901 0.21088 0.7202 0.0
C597 C 0.24504 0.18397 0.79856 0.0
C598 C 0.35873 0.27941 0.86465 0.0
C599 C 0.3543 0.25926 0.86858 0.0
C600 C 0.33371 0.2463 0.83447 0.0
C601 C 0.33031 0.24907 0.80878 0.0
C602 C 0.31293 0.24553 0.79668 0.0
C603 C 0.29878 0.23867 0.81062 0.0
C604 C 0.30238 0.23507 0.83641 0.0
C605 C 0.31985 0.23891 0.8481 0.0
C606 C 0.30961 0.24935 0.76909 0.0
C607 C 0.28772 0.22727 0.8516 0.0
C608 C 0.22523 0.29045 0.7975 0.0
C609 C 0.20854 0.2873 0.78358 0.0
C610 C 0.205 0.27068 0.77029 0.0
C611 C 0.2183 0.25657 0.77132 0.0
C612 C 0.21495 0.23943 0.75896 0.0
C613 C 0.22833 0.22583 0.75952 0.0
C614 C 0.24559 0.22886 0.77245 0.0
C615 C 0.25943 0.21528 0.77269 0.0
C616 C 0.27647 0.21878 0.78556 0.0
C617 C 0.28015 0.23559 0.79827 0.0
C618 C 0.26647 0.24931 0.79841 0.0
C619 C 0.26973 0.26636 0.81106 0.0
C620 C 0.25623 0.27982 0.81092 0.0
C621 C 0.23899 0.2768 0.79797 0.0
C622 C 0.23544 0.25975 0.78496 0.0
C623 C 0.24915 0.24593 0.78536 0.0
C624 C 0.21872 0.13721 0.69242 0.0
C625 C 0.23765 0.14637 0.69442 0.0
O626 O 0.23657 0.35834 0.85116 0.0
O627 O 0.35062 0.25043 0.84531 0.0
O628 O 0.24389 0.14809 0.71955 0.0
O629 O 0.13864 0.26542 0.70867 0.0
H630 H 0.23406 0.37785 0.82435 0.0
H631 H 0.26621 0.3655 0.82529 0.0
H632 H 0.27019 0.37301 0.8577 0.0
H633 H 0.26635 0.38961 0.83344 0.0
H634 H 0.22595 0.32852 0.86977 0.0
H635 H 0.24061 0.35244 0.80142 0.0
H636 H 0.20606 0.2879 0.84133 0.0
H637 H 0.21562 0.29794 0.87085 0.0
H638 H 0.22939 0.28328 0.85179 0.0
H639 H 0.24247 0.33543 0.76376 0.0
H640 H 0.22395 0.31898 0.75959 0.0
H641 H 0.24689 0.31125 0.76717 0.0
H642 H 0.11878 0.27292 0.73239 0.0
H643 H 0.10118 0.24338 0.7249 0.0
H644 H 0.12453 0.23904 0.73596 0.0
H645 H 0.1176 0.23533 0.70315 0.0
H646 H 0.17045 0.27149 0.69328 0.0
H647 H 0.1417 0.26193 0.75917 0.0
H648 H 0.21386 0.26349 0.71625 0.0
H649 H 0.21217 0.28716 0.72597 0.0
H650 H 0.20187 0.27928 0.69572 0.0
H651 H 0.15691 0.25801 0.79881 0.0
H652 H 0.17405 0.2758 0.80387 0.0
H653 H 0.18105 0.25242 0.79957 0.0
H654 H 0.23556 0.16006 0.68607 0.0
H655 H 0.26026 0.177 0.70098 0.0
H656 H 0.23967 0.15433 0.76667 0.0
H657 H 0.25958 0.22282 0.72017 0.0
H658 H 0.27168 0.20703 0.70043 0.0
H659 H 0.28213 0.21529 0.73041 0.0
H660 H 0.23989 0.17088 0.80553 0.0
H661 H 0.2345 0.19475 0.80096 0.0
H662 H 0.25755 0.18826 0.81035 0.0
H663 H 0.34214 0.25896 0.88004 0.0
H664 H 0.36162 0.28682 0.88307 0.0
H665 H 0.34681 0.28605 0.85457 0.0
H666 H 0.37085 0.28061 0.85328 0.0
H667 H 0.34123 0.25445 0.79837 0.0
H668 H 0.32271 0.23591 0.86774 0.0
H669 H 0.2981 0.25919 0.76636 0.0
H670 H 0.30555 0.23646 0.75845 0.0
H671 H 0.32194 0.25508 0.76106 0.0
H672 H 0.29291 0.2245 0.87119 0.0
H673 H 0.28229 0.2143 0.8424 0.0
H674 H 0.2761 0.23705 0.85223 0.0
H675 H 0.19824 0.29803 0.78282 0.0
H676 H 0.20194 0.23636 0.74867 0.0
H677 H 0.225 0.21295 0.74955 0.0
H678 H 0.28707 0.20836 0.78544 0.0
H679 H 0.28276 0.26951 0.82124 0.0
H680 H 0.25953 0.29268 0.82095 0.0
H681 H 0.21355 0.13546 0.67237 0.0
H682 H 0.20887 0.14596 0.70234 0.0
H683 H 0.21928 0.12358 0.70114 0.0
C684 C 0.83906 0.33995 0.66875 0.0
C685 C 0.84378 0.31966 0.67163 0.0
C686 C 0.81732 0.30203 0.68134 0.0
C687 C 0.82443 0.29093 0.7006 0.0
C688 C 0.81317 0.28477 0.71887 0.0
C689 C 0.79448 0.29006 0.71794 0.0
C690 C 0.78713 0.30068 0.69788 0.0
C691 C 0.79865 0.30628 0.67954 0.0
C692 C 0.82137 0.27306 0.73953 0.0
C693 C 0.76731 0.30665 0.69632 0.0
C694 C 0.77887 0.33013 0.90616 0.0
C695 C 0.77687 0.3445 0.88589 0.0
C696 C 0.78528 0.32954 0.847 0.0
C697 C 0.77023 0.33288 0.83002 0.0
C698 C 0.76664 0.32148 0.80844 0.0
C699 C 0.77821 0.30628 0.80411 0.0
C700 C 0.79349 0.30301 0.82122 0.0
C701 C 0.79699 0.3149 0.84226 0.0
C702 C 0.75062 0.32578 0.79017 0.0
C703 C 0.80616 0.28699 0.81727 0.0
C704 C 0.68496 0.23067 0.83369 0.0
C705 C 0.68098 0.24343 0.81497 0.0
C706 C 0.6927 0.24552 0.79548 0.0
C707 C 0.70869 0.2346 0.79475 0.0
C708 C 0.71241 0.22133 0.81315 0.0
C709 C 0.70034 0.21941 0.83227 0.0
C710 C 0.68803 0.2594 0.77569 0.0
C711 C 0.72925 0.20937 0.81279 0.0
C712 C 0.74188 0.18404 0.61328 0.0
C713 C 0.73823 0.1721 0.63545 0.0
C714 C 0.72546 0.19054 0.66903 0.0
C715 C 0.71404 0.20584 0.67052 0.0
C716 C 0.71564 0.21811 0.69145 0.0
C717 C 0.72879 0.21471 0.71151 0.0
C718 C 0.73984 0.1988 0.71059 0.0
C719 C 0.73802 0.18684 0.68936 0.0
C720 C 0.70348 0.23481 0.69202 0.0
C721 C 0.75359 0.19449 0.73203 0.0
C722 C 0.78305 0.28577 0.73897 0.0
C723 C 0.7851 0.297 0.76078 0.0
C724 C 0.77473 0.29409 0.78135 0.0
C725 C 0.76164 0.27973 0.78008 0.0
C726 C 0.75081 0.27651 0.80029 0.0
C727 C 0.73767 0.26261 0.79862 0.0
C728 C 0.73507 0.25121 0.77684 0.0
C729 C 0.72158 0.23721 0.77482 0.0
C730 C 0.71983 0.22566 0.75332 0.0
C731 C 0.73107 0.22782 0.73345 0.0
C732 C 0.74424 0.24212 0.73474 0.0
C733 C 0.75544 0.24501 0.7148 0.0
C734 C 0.76823 0.25924 0.71616 0.0
C735 C 0.77031 0.27111 0.73753 0.0
C736 C 0.7594 0.26824 0.75805 0.0
C737 C 0.74624 0.25383 0.75655 0.0
C738 C 0.67985 0.24742 0.88997 0.0
C739 C 0.66663 0.24264 0.86713 0.0
O740 O 0.82834 0.3091 0.66466 0.0
O741 O 0.72377 0.17946 0.64799 0.0
O742 O 0.674 0.22853 0.85293 0.0
O743 O 0.7891 0.34056 0.8677 0.0
H744 H 0.84823 0.31784 0.69183 0.0
H745 H 0.82802 0.34386 0.68121 0.0
H746 H 0.8342 0.34267 0.64901 0.0
H747 H 0.8513 0.34864 0.67421 0.0
H748 H 0.83884 0.28727 0.70143 0.0
H749 H 0.79332 0.3147 0.66436 0.0
H750 H 0.82306 0.28146 0.7573 0.0
H751 H 0.83502 0.26754 0.7352 0.0
H752 H 0.81209 0.26143 0.7427 0.0
H753 H 0.76398 0.31563 0.68022 0.0
H754 H 0.76419 0.31416 0.71399 0.0
H755 H 0.75823 0.29441 0.69421 0.0
H756 H 0.76248 0.34393 0.87745 0.0
H757 H 0.76901 0.33288 0.92081 0.0
H758 H 0.79306 0.33025 0.91519 0.0
H759 H 0.77591 0.31626 0.89758 0.0
H760 H 0.76152 0.34462 0.83337 0.0
H761 H 0.80871 0.31263 0.8554 0.0
H762 H 0.74023 0.31466 0.79004 0.0
H763 H 0.75526 0.32641 0.77081 0.0
H764 H 0.74394 0.33898 0.79509 0.0
H765 H 0.81592 0.28497 0.83388 0.0
H766 H 0.81418 0.28943 0.80076 0.0
H767 H 0.79811 0.27418 0.81321 0.0
H768 H 0.66475 0.25522 0.85605 0.0
H769 H 0.66859 0.25156 0.81525 0.0
H770 H 0.70308 0.20937 0.84658 0.0
H771 H 0.69867 0.27033 0.77689 0.0
H772 H 0.67444 0.26588 0.77788 0.0
H773 H 0.688 0.25272 0.75663 0.0
H774 H 0.73061 0.20026 0.8291 0.0
H775 H 0.74174 0.21809 0.81296 0.0
H776 H 0.72861 0.20075 0.79518 0.0
H777 H 0.7511 0.17209 0.64791 0.0
H778 H 0.75332 0.17825 0.60283 0.0
H779 H 0.74582 0.1981 0.62033 0.0
H780 H 0.72942 0.185 0.60018 0.0
H781 H 0.70414 0.20838 0.65492 0.0
H782 H 0.74625 0.1745 0.68885 0.0
H783 H 0.71207 0.24741 0.69409 0.0
H784 H 0.69507 0.2345 0.70858 0.0
H785 H 0.69414 0.23566 0.67472 0.0
H786 H 0.76067 0.18121 0.72885 0.0
H787 H 0.74658 0.19397 0.74983 0.0
H788 H 0.76406 0.20556 0.73447 0.0
H789 H 0.79498 0.30817 0.76179 0.0
H790 H 0.75224 0.28481 0.81755 0.0
H791 H 0.72961 0.26089 0.81469 0.0
H792 H 0.70956 0.21484 0.75202 0.0
H793 H 0.75439 0.23635 0.69784 0.0
H794 H 0.77645 0.26084 0.70024 0.0
H795 H 0.67417 0.25872 0.90159 0.0
H796 H 0.69321 0.25203 0.88359 0.0
H797 H 0.68228 0.23526 0.90176 0.0
C798 C 0.8039 0.63238 0.79815 0.0
C799 C 0.80079 0.64452 0.82145 0.0
C800 C 0.78477 0.6721 0.80888 0.0
C801 C 0.795 0.68602 0.82209 0.0
C802 C 0.79556 0.70374 0.81275 0.0
C803 C 0.78583 0.70748 0.78957 0.0
C804 C 0.77498 0.69357 0.77668 0.0
C805 C 0.77435 0.67608 0.78678 0.0
C806 C 0.80691 0.71833 0.82733 0.0
C807 C 0.76454 0.697 0.75184 0.0
C808 C 0.88017 0.78559 0.68852 0.0
C809 C 0.8735 0.76583 0.68362 0.0
C810 C 0.85702 0.75338 0.7175 0.0
C811 C 0.84146 0.7461 0.70368 0.0
C812 C 0.82525 0.74278 0.71548 0.0
C813 C 0.82468 0.74675 0.74159 0.0
C814 C 0.8406 0.75334 0.75571 0.0
C815 C 0.85666 0.75639 0.74346 0.0
C816 C 0.80863 0.73529 0.70005 0.0
C817 C 0.84052 0.75753 0.78363 0.0
C818 C 0.76668 0.85282 0.72463 0.0
C819 C 0.75672 0.83895 0.71074 0.0
C820 C 0.75241 0.82251 0.72195 0.0
C821 C 0.7581 0.81999 0.74752 0.0
C822 C 0.76734 0.83431 0.76183 0.0
C823 C 0.77137 0.85064 0.75018 0.0
C824 C 0.74211 0.80767 0.70639 0.0
C825 C 0.77339 0.83216 0.78922 0.0
C826 C 0.67686 0.75007 0.86549 0.0
C827 C 0.6742 0.7709 0.86552 0.0
C828 C 0.68963 0.77903 0.82799 0.0
C829 C 0.68768 0.77634 0.80186 0.0
C830 C 0.70284 0.77761 0.78719 0.0
C831 C 0.72027 0.78212 0.79901 0.0
C832 C 0.72222 0.7856 0.82533 0.0
C833 C 0.70692 0.7839 0.83959 0.0
C834 C 0.70029 0.77393 0.75913 0.0
C835 C 0.7405 0.79114 0.8384 0.0
C836 C 0.78813 0.72547 0.77797 0.0
C837 C 0.804 0.72812 0.76529 0.0
C838 C 0.80727 0.74467 0.75399 0.0
C839 C 0.79431 0.75901 0.75497 0.0
C840 C 0.79715 0.77579 0.7436 0.0
C841 C 0.78436 0.78986 0.74476 0.0
C842 C 0.76827 0.78773 0.75744 0.0
C843 C 0.7553 0.80205 0.75896 0.0
C844 C 0.73965 0.79965 0.77214 0.0
C845 C 0.73653 0.78324 0.78395 0.0
C846 C 0.7492 0.76863 0.78233 0.0
C847 C 0.7464 0.75186 0.79379 0.0
C848 C 0.75913 0.73771 0.79247 0.0
C849 C 0.77508 0.73974 0.77948 0.0
C850 C 0.77816 0.75653 0.76778 0.0
C851 C 0.76516 0.77095 0.7691 0.0
C852 C 0.79507 0.87925 0.6891 0.0
C853 C 0.77612 0.87035 0.68934 0.0
O854 O 0.78493 0.65471 0.817 0.0
O855 O 0.67452 0.77702 0.84119 0.0
O856 O 0.772 0.86847 0.71412 0.0
O857 O 0.87263 0.75742 0.70645 0.0
H858 H 0.81296 0.65372 0.82491 0.0
H859 H 0.80545 0.64108 0.78172 0.0
H860 H 0.79208 0.62295 0.79371 0.0
H861 H 0.81662 0.62417 0.80128 0.0
H862 H 0.80261 0.68296 0.83962 0.0
H863 H 0.76633 0.66521 0.77694 0.0
H864 H 0.8194 0.7211 0.81732 0.0
H865 H 0.81126 0.71411 0.84667 0.0
H866 H 0.79905 0.73133 0.82856 0.0
H867 H 0.75752 0.68445 0.74357 0.0
H868 H 0.77406 0.70208 0.73825 0.0
H869 H 0.75406 0.70778 0.75451 0.0
H870 H 0.8597 0.76658 0.67346 0.0
H871 H 0.881 0.79262 0.67046 0.0
H872 H 0.89391 0.78593 0.69891 0.0
H873 H 0.87037 0.79324 0.69999 0.0
H874 H 0.84198 0.74292 0.68375 0.0
H875 H 0.86888 0.76168 0.75399 0.0
H876 H 0.79737 0.74551 0.70019 0.0
H877 H 0.80368 0.72267 0.70852 0.0
H878 H 0.81157 0.73203 0.68021 0.0
H879 H 0.85403 0.76264 0.79189 0.0
H880 H 0.83687 0.74496 0.79336 0.0
H881 H 0.82991 0.76802 0.78726 0.0
H882 H 0.77706 0.85671 0.67947 0.0
H883 H 0.75231 0.84091 0.6912 0.0
H884 H 0.77876 0.86158 0.76081 0.0
H885 H 0.75104 0.79544 0.70459 0.0
H886 H 0.73762 0.81217 0.68724 0.0
H887 H 0.72985 0.80341 0.71599 0.0
H888 H 0.7803 0.84467 0.79778 0.0
H889 H 0.783 0.82041 0.79115 0.0
H890 H 0.76132 0.82906 0.79993 0.0
H891 H 0.68536 0.77741 0.87792 0.0
H892 H 0.67634 0.745 0.88485 0.0
H893 H 0.69046 0.74645 0.85862 0.0
H894 H 0.66602 0.74305 0.85298 0.0
H895 H 0.67426 0.77282 0.79304 0.0
H896 H 0.70862 0.78675 0.85963 0.0
H897 H 0.70985 0.76298 0.75337 0.0
H898 H 0.70369 0.78649 0.7492 0.0
H899 H 0.68602 0.7697 0.75297 0.0
H900 H 0.73944 0.79483 0.85864 0.0
H901 H 0.74623 0.80304 0.82908 0.0
H902 H 0.75037 0.77965 0.83689 0.0
H903 H 0.81402 0.71716 0.76435 0.0
H904 H 0.80929 0.77826 0.73366 0.0
H905 H 0.78731 0.80246 0.73565 0.0
H906 H 0.72992 0.81083 0.77358 0.0
H907 H 0.73434 0.7495 0.80397 0.0
H908 H 0.75633 0.72515 0.80178 0.0
H909 H 0.79887 0.88075 0.66944 0.0
H910 H 0.80553 0.87049 0.69895 0.0
H911 H 0.79526 0.89299 0.6988 0.0
C912 C 0.02773 0.31067 0.55668 0.0
C913 C 0.03504 0.32744 0.5655 0.0
C914 C 0.02849 0.34022 0.54907 0.0
C915 C 0.0176 0.33058 0.53124 0.0
N916 N 0.01667 0.31242 0.53538 0.0
Co917 Co 0.00293 0.29331 0.51361 0.0
N918 N 0.99193 0.31234 0.49075 0.0
C919 C 0.99493 0.33065 0.49257 0.0
C920 C 0.98402 0.34038 0.47584 0.0
C921 C 0.97307 0.32757 0.46294 0.0
C922 C 0.97808 0.31067 0.47246 0.0
N923 N 0.98974 0.27418 0.4914 0.0
C924 C 0.977 0.27616 0.47202 0.0
C925 C 0.97128 0.25934 0.46128 0.0
C926 C 0.98034 0.24623 0.47493 0.0
C927 C 0.99112 0.25577 0.49301 0.0
N928 N 0.0131 0.2743 0.53705 0.0
C929 C 0.01015 0.25596 0.53495 0.0
C930 C 0.01866 0.24641 0.5541 0.0
C931 C 0.02753 0.2594 0.56945 0.0
C932 C 0.02388 0.27623 0.55873 0.0
N933 N 0.98144 0.29586 0.53405 0.0
C934 C 0.95098 0.29949 0.56341 0.0
C935 C 0.95632 0.28229 0.55417 0.0
C936 C 0.97148 0.28079 0.53965 0.0
C937 C 0.96106 0.31485 0.55746 0.0
C938 C 0.97611 0.31275 0.54286 0.0
N939 N 0.02467 0.29075 0.49309 0.0
C940 C 0.04917 0.27214 0.47756 0.0
C941 C 0.05693 0.28731 0.46708 0.0
C942 C 0.04801 0.30415 0.46911 0.0
C943 C 0.03205 0.30556 0.48214 0.0
C944 C 0.03318 0.27412 0.4902 0.0
H945 H 0.02616 0.31884 0.48328 0.0
H946 H 0.02814 0.26195 0.49759 0.0
H947 H 0.97497 0.26731 0.5332 0.0
H948 H 0.98324 0.32496 0.53887 0.0
C949 C 0.00713 0.33835 0.5114 0.0
C950 C 0.03157 0.29353 0.56932 0.0
C951 C 0.9687 0.29351 0.46478 0.0
C952 C 0.00028 0.24802 0.51392 0.0
H953 H 0.04407 0.33017 0.58219 0.0
H954 H 0.03114 0.35484 0.5502 0.0
H955 H 0.98355 0.3551 0.47396 0.0
H956 H 0.96228 0.33047 0.44872 0.0
H957 H 0.96098 0.25686 0.44592 0.0
H958 H 0.97847 0.23152 0.47285 0.0
H959 H 0.01871 0.23172 0.55638 0.0
H960 H 0.03598 0.2567 0.5864 0.0
H961 H 0.94905 0.26997 0.55846 0.0
H962 H 0.95728 0.32851 0.56384 0.0
H963 H 0.05539 0.2587 0.47597 0.0
H964 H 0.05353 0.3163 0.46123 0.0
C965 C 0.70227 0.03693 0.54762 0.0
C966 C 0.68589 0.04302 0.55669 0.0
C967 C 0.67233 0.03216 0.54525 0.0
C968 C 0.68119 0.02003 0.53007 0.0
N969 N 0.69959 0.02242 0.5312 0.0
Co970 Co 0.7177 0.00742 0.51276 0.0
N971 N 0.69759 0.99308 0.49348 0.0
C972 C 0.67932 0.99572 0.49448 0.0
C973 C 0.66882 0.98423 0.47848 0.0
C974 C 0.68111 0.97361 0.46648 0.0
C975 C 0.69847 0.97918 0.47606 0.0
N976 N 0.73589 0.99169 0.49542 0.0
C977 C 0.73317 0.97729 0.4788 0.0
C978 C 0.74965 0.96944 0.47261 0.0
C979 C 0.76329 0.97927 0.4857 0.0
C980 C 0.75439 0.99242 0.49921 0.0
N981 N 0.73781 0.02255 0.53088 0.0
C982 C 0.75604 0.02097 0.52821 0.0
C983 C 0.76644 0.03413 0.54148 0.0
C984 C 0.75411 0.04498 0.55302 0.0
C985 C 0.73682 0.03766 0.54627 0.0
N986 N 0.7185 0.98965 0.54026 0.0
C987 C 0.72048 0.96411 0.5788 0.0
C988 C 0.73597 0.97384 0.57299 0.0
C989 C 0.73471 0.98632 0.55382 0.0
C990 C 0.70388 0.96733 0.56504 0.0
C991 C 0.70315 0.98024 0.54612 0.0
N992 N 0.71707 0.02529 0.48551 0.0
C993 C 0.73371 0.04374 0.45797 0.0
C994 C 0.71871 0.05543 0.45419 0.0
C995 C 0.7023 0.05078 0.4645 0.0
C996 C 0.70173 0.0356 0.47981 0.0
C997 C 0.7326 0.02888 0.47352 0.0
H998 H 0.68895 0.03286 0.48759 0.0
H999 H 0.74476 0.02092 0.47622 0.0
H1000 H 0.74718 0.99292 0.55024 0.0
H1001 H 0.69006 0.9823 0.53647 0.0
C1002 C 0.6725 0.00792 0.51225 0.0
C1003 C 0.71987 0.04584 0.55436 0.0
C1004 C 0.71532 0.97056 0.46843 0.0
C1005 C 0.76301 0.00653 0.51393 0.0
H1006 H 0.68392 0.05443 0.56975 0.0
H1007 H 0.65771 0.03341 0.54705 0.0
H1008 H 0.65399 0.98339 0.47623 0.0
H1009 H 0.67768 0.96279 0.45252 0.0
H1010 H 0.75163 0.95785 0.45986 0.0
H1011 H 0.77794 0.97725 0.48514 0.0
H1012 H 0.78122 0.0357 0.54255 0.0
H1013 H 0.75749 0.05702 0.56486 0.0
H1014 H 0.74921 0.97152 0.58283 0.0
H1015 H 0.69153 0.96005 0.56898 0.0
H1016 H 0.74652 0.04635 0.44961 0.0
H1017 H 0.6902 0.05926 0.46182 0.0
C1018 C 0.0403 0.73191 0.53263 0.0
C1019 C 0.04988 0.74789 0.53997 0.0
C1020 C 0.04073 0.76193 0.52848 0.0
C1021 C 0.02625 0.75377 0.51468 0.0
N1022 N 0.02544 0.73536 0.51681 0.0
Co1023 Co 0.00755 0.71799 0.49811 0.0
N1024 N 0.99397 0.73875 0.4815 0.0
C1025 C 0.9974 0.7569 0.48548 0.0
C1026 C 0.98496 0.76798 0.47302 0.0
C1027 C 0.97271 0.75626 0.46047 0.0
C1028 C 0.97854 0.73858 0.46577 0.0
N1029 N 0.99023 0.7006 0.47851 0.0
C1030 C 0.97579 0.70397 0.46193 0.0
C1031 C 0.96783 0.68783 0.45177 0.0
C1032 C 0.97737 0.67376 0.46266 0.0
C1033 C 0.99065 0.68206 0.47859 0.0
N1034 N 0.02055 0.69733 0.51567 0.0
C1035 C 0.01606 0.67932 0.51352 0.0
C1036 C 0.02708 0.66841 0.52853 0.0
C1037 C 0.03942 0.68012 0.54099 0.0
C1038 C 0.03528 0.69756 0.53263 0.0
N1039 N 0.99074 0.71992 0.52576 0.0
C1040 C 0.9663 0.72329 0.56428 0.0
C1041 C 0.96826 0.7066 0.55111 0.0
C1042 C 0.98056 0.70519 0.53214 0.0
C1043 C 0.97684 0.73819 0.55795 0.0
C1044 C 0.98883 0.73623 0.53883 0.0
N1045 N 0.02448 0.71612 0.47054 0.0
C1046 C 0.04563 0.69842 0.44649 0.0
C1047 C 0.05191 0.7143 0.4359 0.0
C1048 C 0.04357 0.73094 0.44195 0.0
C1049 C 0.03001 0.73153 0.45912 0.0
C1050 C 0.03186 0.69961 0.46343 0.0
H1051 H 0.0246 0.74473 0.46332 0.0
H1052 H 0.02768 0.68702 0.47092 0.0
H1053 H 0.98154 0.69209 0.52284 0.0
H1054 H 0.99626 0.74819 0.53484 0.0
C1055 C 0.01274 0.76309 0.50042 0.0
C1056 C 0.04606 0.71379 0.54081 0.0
C1057 C 0.96884 0.72212 0.45571 0.0
C1058 C 0.0025 0.67294 0.4956 0.0
H1059 H 0.06228 0.74928 0.55223 0.0
H1060 H 0.04421 0.77637 0.53002 0.0
H1061 H 0.98477 0.78283 0.47314 0.0
H1062 H 0.96076 0.76036 0.44888 0.0
H1063 H 0.95613 0.68638 0.43821 0.0
H1064 H 0.97464 0.65922 0.4598 0.0
H1065 H 0.02651 0.65364 0.5298 0.0
H1066 H 0.05042 0.67622 0.55441 0.0
H1067 H 0.96046 0.69464 0.55551 0.0
H1068 H 0.97557 0.7515 0.56733 0.0
H1069 H 0.05146 0.68516 0.44196 0.0
H1070 H 0.04801 0.74364 0.43429 0.0
C1071 C 0.30548 0.97527 0.55581 0.0
C1072 C 0.32183 0.96879 0.56703 0.0
C1073 C 0.33558 0.97873 0.55793 0.0
C1074 C 0.32686 0.99068 0.54181 0.0
N1075 N 0.30835 0.98917 0.5403 0.0
Co1076 Co 0.29034 0.00345 0.51859 0.0
N1077 N 0.31063 0.01686 0.50343 0.0
C1078 C 0.3289 0.01484 0.50872 0.0
C1079 C 0.33947 0.02608 0.49553 0.0
C1080 C 0.32724 0.03601 0.48106 0.0
C1081 C 0.30985 0.03023 0.48635 0.0
N1082 N 0.27227 0.01768 0.49678 0.0
C1083 C 0.27517 0.03094 0.48028 0.0
C1084 C 0.25879 0.03748 0.46919 0.0
C1085 C 0.24502 0.0281 0.47914 0.0
C1086 C 0.25372 0.01643 0.49567 0.0
N1087 N 0.27001 0.99004 0.53379 0.0
C1088 C 0.25171 0.99229 0.52886 0.0
C1089 C 0.24117 0.98071 0.54155 0.0
C1090 C 0.25342 0.97023 0.55517 0.0
C1091 C 0.27082 0.97611 0.55005 0.0
N1092 N 0.28973 0.02307 0.54535 0.0
C1093 C 0.28827 0.0534 0.57929 0.0
C1094 C 0.27228 0.0456 0.56775 0.0
C1095 C 0.2733 0.03056 0.55121 0.0
C1096 C 0.30505 0.04528 0.57456 0.0
C1097 C 0.30547 0.03022 0.55751 0.0
N1098 N 0.29091 0.98402 0.49168 0.0
C1099 C 0.27469 0.96522 0.45926 0.0
C1100 C 0.29114 0.95836 0.45106 0.0
C1101 C 0.30754 0.96392 0.4642 0.0
C1102 C 0.30711 0.97676 0.48435 0.0
C1103 C 0.27488 0.97781 0.47944 0.0
H1104 H 0.32002 0.98079 0.49349 0.0
H1105 H 0.26185 0.98245 0.48458 0.0
H1106 H 0.26057 0.02546 0.54313 0.0
H1107 H 0.31867 0.0248 0.55417 0.0
C1108 C 0.33569 0.00265 0.52669 0.0
C1109 C 0.28766 0.96734 0.55986 0.0
C1110 C 0.29305 0.0382 0.47512 0.0
C1111 C 0.24485 0.00457 0.51096 0.0
H1112 H 0.32362 0.95779 0.58009 0.0
H1113 H 0.35021 0.97712 0.56206 0.0
H1114 H 0.3543 0.02711 0.49656 0.0
H1115 H 0.33071 0.04648 0.46828 0.0
H1116 H 0.25699 0.0481 0.45555 0.0
H1117 H 0.23039 0.02978 0.4751 0.0
H1118 H 0.22635 0.97961 0.54042 0.0
H1119 H 0.24989 0.95919 0.567 0.0
H1120 H 0.25892 0.05113 0.57143 0.0
H1121 H 0.31778 0.05081 0.58339 0.0
H1122 H 0.26162 0.96092 0.45002 0.0
H1123 H 0.32061 0.95882 0.45854 0.0
C1124 C 0.53259 0.80901 0.04585 0.0
C1125 C 0.53991 0.82538 0.05618 0.0
C1126 C 0.53215 0.83908 0.04229 0.0
C1127 C 0.52055 0.83036 0.02439 0.0
N1128 N 0.52033 0.81189 0.02607 0.0
Co1129 Co 0.50562 0.79388 0.00355 0.0
N1130 N 0.49347 0.81413 0.98395 0.0
C1131 C 0.49654 0.83237 0.98742 0.0
C1132 C 0.48509 0.84293 0.97248 0.0
C1133 C 0.47376 0.83076 0.95899 0.0
C1134 C 0.47908 0.81339 0.9664 0.0
N1135 N 0.49119 0.77588 0.98081 0.0
C1136 C 0.47766 0.77885 0.96278 0.0
C1137 C 0.47119 0.76256 0.95113 0.0
C1138 C 0.48061 0.74874 0.9628 0.0
C1139 C 0.49231 0.75736 0.98068 0.0
N1140 N 0.51732 0.7736 0.02347 0.0
C1141 C 0.51451 0.75534 0.01948 0.0
C1142 C 0.52455 0.74474 0.03605 0.0
C1143 C 0.53435 0.75691 0.05164 0.0
C1144 C 0.52963 0.77435 0.04372 0.0
N1145 N 0.48544 0.79493 0.02651 0.0
C1146 C 0.45583 0.79667 0.05767 0.0
C1147 C 0.46158 0.77989 0.0475 0.0
C1148 C 0.47632 0.77933 0.03213 0.0
C1149 C 0.46529 0.81252 0.05212 0.0
C1150 C 0.47993 0.81135 0.03667 0.0
N1151 N 0.52592 0.79283 0.98042 0.0
C1152 C 0.5478 0.77526 0.95747 0.0
C1153 C 0.55581 0.79124 0.94956 0.0
C1154 C 0.54839 0.80805 0.95695 0.0
C1155 C 0.53356 0.80852 0.97218 0.0
C1156 C 0.53302 0.77636 0.97267 0.0
H1157 H 0.52868 0.82177 0.97716 0.0
H1158 H 0.52782 0.76364 0.97813 0.0
H1159 H 0.48006 0.76615 0.02488 0.0
H1160 H 0.48648 0.82393 0.03299 0.0
C1161 C 0.50923 0.83916 0.00632 0.0
C1162 C 0.53762 0.79113 0.05562 0.0
C1163 C 0.46945 0.79662 0.95752 0.0
C1164 C 0.50299 0.7485 0.99929 0.0
H1165 H 0.54979 0.82722 0.07217 0.0
H1166 H 0.53456 0.85368 0.04504 0.0
H1167 H 0.48453 0.85775 0.97219 0.0
H1168 H 0.46252 0.83435 0.94578 0.0
H1169 H 0.4603 0.76085 0.93638 0.0
H1170 H 0.4786 0.73413 0.95942 0.0
H1171 H 0.52494 0.72992 0.03649 0.0
H1172 H 0.54408 0.75326 0.06688 0.0
H1173 H 0.45485 0.7672 0.05153 0.0
H1174 H 0.46122 0.82588 0.05927 0.0
H1175 H 0.5532 0.76188 0.95255 0.0
H1176 H 0.55396 0.82084 0.95102 0.0
C1177 C 0.20356 0.53845 0.0548 0.0
C1178 C 0.18669 0.54371 0.06309 0.0
C1179 C 0.17393 0.53216 0.05116 0.0
C1180 C 0.18373 0.52056 0.0364 0.0
N1181 N 0.20203 0.52376 0.03856 0.0
Co1182 Co 0.22136 0.51093 0.01962 0.0
N1183 N 0.20239 0.49587 0.99907 0.0
C1184 C 0.18399 0.49621 0.00094 0.0
C1185 C 0.17447 0.48447 0.98417 0.0
C1186 C 0.18754 0.47605 0.97081 0.0
C1187 C 0.20437 0.48312 0.98034 0.0
N1188 N 0.24073 0.49821 0.00056 0.0
C1189 C 0.23909 0.48518 0.98177 0.0
C1190 C 0.25613 0.47973 0.97413 0.0
C1191 C 0.26897 0.48978 0.98841 0.0
C1192 C 0.25913 0.50067 0.00399 0.0
N1193 N 0.24031 0.52604 0.04015 0.0
C1194 C 0.25877 0.52506 0.03934 0.0
C1195 C 0.26813 0.53784 0.05469 0.0
C1196 C 0.25487 0.54784 0.06563 0.0
C1197 C 0.2381 0.54048 0.05634 0.0
N1198 N 0.2233 0.49155 0.04512 0.0
C1199 C 0.22636 0.46305 0.07975 0.0
C1200 C 0.24193 0.47153 0.07166 0.0
C1201 C 0.2401 0.4856 0.05461 0.0
C1202 C 0.20919 0.46928 0.0705 0.0
C1203 C 0.20798 0.48343 0.05341 0.0
N1204 N 0.21947 0.53023 0.99429 0.0
C1205 C 0.23401 0.55237 0.96939 0.0
C1206 C 0.21697 0.5586 0.95968 0.0
C1207 C 0.20117 0.55024 0.96739 0.0
C1208 C 0.20272 0.53621 0.98464 0.0
C1209 C 0.23494 0.53826 0.98644 0.0
H1210 H 0.19021 0.5305 0.99007 0.0
H1211 H 0.24834 0.5341 0.99309 0.0
H1212 H 0.25256 0.4912 0.0492 0.0
H1213 H 0.1945 0.48741 0.04707 0.0
C1214 C 0.17604 0.5078 0.01855 0.0
C1215 C 0.22046 0.54853 0.06169 0.0
C1216 C 0.22181 0.47727 0.97097 0.0
C1217 C 0.2668 0.51322 0.02214 0.0
H1218 H 0.18389 0.55509 0.07583 0.0
H1219 H 0.15919 0.53265 0.0523 0.0
H1220 H 0.15977 0.48231 0.98189 0.0
H1221 H 0.18497 0.46585 0.95574 0.0
H1222 H 0.25904 0.46944 0.95985 0.0
H1223 H 0.28373 0.48912 0.98765 0.0
H1224 H 0.28281 0.54015 0.05679 0.0
H1225 H 0.25736 0.55962 0.07828 0.0
H1226 H 0.25559 0.46705 0.07792 0.0
H1227 H 0.19668 0.46329 0.07641 0.0
H1228 H 0.24664 0.55822 0.96365 0.0
H1229 H 0.18765 0.55469 0.96049 0.0
C1230 C 0.47713 0.23773 0.983 0.0
C1231 C 0.47081 0.25544 0.97903 0.0
C1232 C 0.48274 0.26702 0.99249 0.0
C1233 C 0.49549 0.2558 0.0041 0.0
N1234 N 0.49253 0.23772 0.99876 0.0
Co1235 Co 0.50679 0.21669 0.01357 0.0
N1236 N 0.52457 0.23382 0.03294 0.0
C1237 C 0.5249 0.25233 0.03208 0.0
C1238 C 0.53944 0.26035 0.04593 0.0
C1239 C 0.54915 0.24611 0.05605 0.0
C1240 C 0.53982 0.23016 0.04792 0.0
N1241 N 0.52046 0.19571 0.0294 0.0
C1242 C 0.5355 0.19569 0.04581 0.0
C1243 C 0.5401 0.17805 0.05295 0.0
C1244 C 0.52774 0.16649 0.04022 0.0
C1245 C 0.51625 0.17768 0.0263 0.0
N1246 N 0.48962 0.19957 0.9932 0.0
C1247 C 0.49038 0.18104 0.99215 0.0
C1248 C 0.4772 0.17298 0.97582 0.0
C1249 C 0.46741 0.18721 0.96578 0.0
C1250 C 0.47513 0.20319 0.97681 0.0
N1251 N 0.52331 0.21629 0.98553 0.0
C1252 C 0.55022 0.2166 0.95023 0.0
C1253 C 0.54476 0.20016 0.96016 0.0
C1254 C 0.53118 0.20028 0.97741 0.0
C1255 C 0.54132 0.23271 0.95723 0.0
C1256 C 0.52805 0.23226 0.97477 0.0
N1257 N 0.49035 0.21717 0.04172 0.0
C1258 C 0.46816 0.20252 0.06623 0.0
C1259 C 0.46602 0.21869 0.08053 0.0
C1260 C 0.47642 0.23397 0.07527 0.0
C1261 C 0.48838 0.23291 0.05602 0.0
C1262 C 0.48039 0.20203 0.04713 0.0
H1263 H 0.49569 0.24514 0.05293 0.0
H1264 H 0.48146 0.18929 0.03692 0.0
H1265 H 0.52757 0.1873 0.98432 0.0
H1266 H 0.52223 0.24512 0.97982 0.0
C1267 C 0.51092 0.26183 0.01898 0.0
C1268 C 0.46802 0.22142 0.97141 0.0
C1269 C 0.54617 0.21188 0.05454 0.0
C1270 C 0.5026 0.17161 0.00831 0.0
H1271 H 0.45881 0.25963 0.9676 0.0
H1272 H 0.48223 0.28186 0.99359 0.0
H1273 H 0.54261 0.27483 0.04837 0.0
H1274 H 0.56175 0.24736 0.06793 0.0
H1275 H 0.55144 0.17392 0.06568 0.0
H1276 H 0.52748 0.15166 0.04055 0.0
H1277 H 0.47477 0.15847 0.97205 0.0
H1278 H 0.45575 0.18595 0.95213 0.0
H1279 H 0.5511 0.1873 0.95488 0.0
H1280 H 0.54514 0.24579 0.95008 0.0
H1281 H 0.4605 0.19027 0.06978 0.0
H1282 H 0.47504 0.24692 0.08553 0.0
C1283 C 0.76994 0.53069 0.05315 0.0
C1284 C 0.7524 0.53676 0.05777 0.0
C1285 C 0.7405 0.52744 0.04113 0.0
C1286 C 0.75134 0.51635 0.02722 0.0
N1287 N 0.76951 0.51789 0.03405 0.0
Co1288 Co 0.79014 0.50494 0.01787 0.0
N1289 N 0.77252 0.49149 0.99319 0.0
C1290 C 0.75404 0.49322 0.99079 0.0
C1291 C 0.74565 0.48184 0.97247 0.0
C1292 C 0.75956 0.47193 0.96296 0.0
C1293 C 0.77566 0.47781 0.97622 0.0
N1294 N 0.81072 0.49196 0.00154 0.0
C1295 C 0.81013 0.47795 0.98407 0.0
C1296 C 0.82759 0.47207 0.97894 0.0
C1297 C 0.83967 0.48261 0.9939 0.0
C1298 C 0.82894 0.49421 0.00734 0.0
N1299 N 0.80776 0.51828 0.04272 0.0
C1300 C 0.82629 0.51685 0.04452 0.0
C1301 C 0.83471 0.52774 0.06337 0.0
C1302 C 0.82075 0.53679 0.07418 0.0
C1303 C 0.80457 0.53093 0.06114 0.0
N1304 N 0.78865 0.48449 0.04122 0.0
C1305 C 0.78686 0.45237 0.06877 0.0
C1306 C 0.8037 0.46068 0.06537 0.0
C1307 C 0.80427 0.47668 0.05182 0.0
C1308 C 0.77087 0.46099 0.05934 0.0
C1309 C 0.77206 0.47693 0.04574 0.0
N1310 N 0.79167 0.52535 0.99423 0.0
C1311 C 0.80963 0.54725 0.97314 0.0
C1312 C 0.79394 0.55373 0.95981 0.0
C1313 C 0.77706 0.54595 0.96434 0.0
C1314 C 0.77624 0.53199 0.98151 0.0
C1315 C 0.8082 0.53319 0.99005 0.0
H1316 H 0.76295 0.52677 0.98399 0.0
H1317 H 0.8207 0.52894 0.99946 0.0
H1318 H 0.81753 0.48221 0.04962 0.0
H1319 H 0.75943 0.48259 0.03841 0.0
C1320 C 0.74488 0.50478 0.00712 0.0
C1321 C 0.78657 0.53808 0.06667 0.0
C1322 C 0.79335 0.46906 0.9733 0.0
C1323 C 0.83542 0.5057 0.02756 0.0
H1324 H 0.74854 0.54712 0.07141 0.0
H1325 H 0.72572 0.52885 0.03909 0.0
H1326 H 0.73111 0.48048 0.96726 0.0
H1327 H 0.75801 0.46115 0.94849 0.0
H1328 H 0.83126 0.46091 0.96639 0.0
H1329 H 0.85446 0.48132 0.9957 0.0
H1330 H 0.84927 0.52914 0.06842 0.0
H1331 H 0.82231 0.54675 0.08973 0.0
H1332 H 0.81645 0.4547 0.07281 0.0
H1333 H 0.75749 0.45505 0.06151 0.0
H1334 H 0.82303 0.55304 0.97069 0.0
H1335 H 0.76448 0.55032 0.95433 0.0
H1336 H 0.16979 0.27178 0.42708 0.0
H1337 H 0.13606 0.26109 0.35834 0.0
H1338 H 0.14256 0.28086 0.44855 0.0
H1339 H 0.10876 0.27001 0.37985 0.0
H1340 H 0.06529 0.30121 0.42214 0.0
H1341 H 0.09355 0.2966 0.40054 0.0
H1342 H 0.11575 0.26424 0.46183 0.0
H1343 H 0.08779 0.26914 0.48352 0.0
C1344 C 0.15657 0.27161 0.41651 0.0
C1345 C 0.15507 0.26599 0.39097 0.0
C1346 C 0.14098 0.27669 0.42881 0.0
C1347 C 0.12353 0.27616 0.41587 0.0
C1348 C 0.12205 0.27083 0.39021 0.0
C1349 C 0.13765 0.26568 0.37792 0.0
C1350 C 0.07633 0.29332 0.43108 0.0
C1351 C 0.07431 0.28542 0.45441 0.0
C1352 C 0.09241 0.29056 0.41865 0.0
C1353 C 0.10684 0.28003 0.42947 0.0
C1354 C 0.10496 0.27256 0.4531 0.0
C1355 C 0.08887 0.2752 0.46541 0.0
H1356 H 0.70387 0.16573 0.40047 0.0
H1357 H 0.7602 0.15297 0.3874 0.0
H1358 H 0.69917 0.13436 0.41351 0.0
H1359 H 0.75545 0.12152 0.39975 0.0
H1360 H 0.74787 0.07881 0.45917 0.0
H1361 H 0.75138 0.10803 0.43973 0.0
H1362 H 0.69765 0.10163 0.40102 0.0
H1363 H 0.69411 0.07207 0.42063 0.0
C1364 C 0.71511 0.15608 0.3999 0.0
C1365 C 0.7324 0.16177 0.39297 0.0
C1366 C 0.71242 0.1381 0.40724 0.0
C1367 C 0.72698 0.12548 0.40787 0.0
C1368 C 0.74403 0.131 0.39988 0.0
C1369 C 0.74674 0.14896 0.39264 0.0
C1370 C 0.73691 0.0834 0.44614 0.0
C1371 C 0.72077 0.07298 0.44127 0.0
C1372 C 0.73894 0.10021 0.43497 0.0
C1373 C 0.72487 0.10712 0.41863 0.0
C1374 C 0.7087 0.09673 0.41365 0.0
C1375 C 0.70666 0.07982 0.42488 0.0
H1376 H 0.85912 0.75534 0.41021 0.0
H1377 H 0.88196 0.74316 0.33897 0.0
H1378 H 0.88701 0.74413 0.43228 0.0
H1379 H 0.90946 0.731 0.36086 0.0
H1380 H 0.9644 0.73545 0.40866 0.0
H1381 H 0.93561 0.74208 0.38469 0.0
H1382 H 0.90544 0.71864 0.44295 0.0
H1383 H 0.9344 0.71302 0.46736 0.0
C1384 C 0.86995 0.74983 0.3993 0.0
C1385 C 0.8682 0.74988 0.3729 0.0
C1386 C 0.88591 0.74328 0.4119 0.0
C1387 C 0.90054 0.73657 0.3984 0.0
C1388 C 0.8986 0.73627 0.37192 0.0
C1389 C 0.88273 0.74304 0.35933 0.0
C1390 C 0.95155 0.73164 0.41611 0.0
C1391 C 0.95145 0.72397 0.43985 0.0
C1392 C 0.93505 0.73527 0.40235 0.0
C1393 C 0.91811 0.73103 0.41193 0.0
C1394 C 0.91817 0.72246 0.43522 0.0
C1395 C 0.9347 0.71906 0.44911 0.0
H1396 H 0.2409 0.89086 0.31453 0.0
H1397 H 0.30582 0.86399 0.32827 0.0
H1398 H 0.25021 0.91777 0.35402 0.0
H1399 H 0.3137 0.89182 0.36772 0.0
H1400 H 0.30909 0.92556 0.44509 0.0
H1401 H 0.30523 0.90368 0.40907 0.0
H1402 H 0.2689 0.94176 0.37026 0.0
H1403 H 0.27241 0.96318 0.40613 0.0
C1404 C 0.25468 0.89165 0.32341 0.0
C1405 C 0.2713 0.8726 0.32035 0.0
C1406 C 0.26041 0.90784 0.34888 0.0
C1407 C 0.2826 0.90723 0.36624 0.0
C1408 C 0.3003 0.89127 0.35771 0.0
C1409 C 0.29587 0.87445 0.3324 0.0
C1410 C 0.30047 0.92924 0.42868 0.0
C1411 C 0.2908 0.9459 0.42851 0.0
C1412 C 0.29826 0.91676 0.40808 0.0
C1413 C 0.28643 0.92083 0.38708 0.0
C1414 C 0.27757 0.93788 0.38649 0.0
C1415 C 0.2797 0.95025 0.40698 0.0
H1416 H 0.15991 0.70495 0.59987 0.0
H1417 H 0.12788 0.69278 0.66234 0.0
H1418 H 0.13177 0.71095 0.57402 0.0
H1419 H 0.09969 0.69816 0.63636 0.0
H1420 H 0.05294 0.72483 0.58986 0.0
H1421 H 0.08155 0.72158 0.61613 0.0
H1422 H 0.10628 0.69422 0.55365 0.0
H1423 H 0.07781 0.69814 0.52738 0.0
C1424 C 0.14684 0.70376 0.60813 0.0
C1425 C 0.14608 0.69879 0.63328 0.0
C1426 C 0.13071 0.70699 0.59326 0.0
C1427 C 0.11345 0.70505 0.60311 0.0
C1428 C 0.11274 0.70011 0.6283 0.0
C1429 C 0.12886 0.69698 0.64317 0.0
C1430 C 0.0646 0.71822 0.58189 0.0
C1431 C 0.06336 0.71175 0.55676 0.0
C1432 C 0.08091 0.71625 0.59687 0.0
C1433 C 0.09624 0.70764 0.58701 0.0
C1434 C 0.09487 0.70118 0.56175 0.0
C1435 C 0.07859 0.70325 0.54676 0.0
H1436 H 0.25217 0.11249 0.705 0.0
H1437 H 0.25309 0.15506 0.65085 0.0
H1438 H 0.26941 0.09237 0.67778 0.0
H1439 H 0.27097 0.13527 0.62399 0.0
H1440 H 0.26933 0.08445 0.56895 0.0
H1441 H 0.26187 0.10907 0.59823 0.0
H1442 H 0.29683 0.08459 0.65671 0.0
H1443 H 0.30388 0.05945 0.62718 0.0
C1444 C 0.25647 0.11767 0.68753 0.0
C1445 C 0.25104 0.13519 0.67981 0.0
C1446 C 0.2665 0.10622 0.67201 0.0
C1447 C 0.2714 0.11212 0.64853 0.0
C1448 C 0.2671 0.13017 0.64173 0.0
C1449 C 0.25693 0.14154 0.65713 0.0
C1450 C 0.27564 0.08449 0.58797 0.0
C1451 C 0.28692 0.06993 0.59596 0.0
C1452 C 0.27153 0.09872 0.60473 0.0
C1453 C 0.27863 0.09877 0.62995 0.0
C1454 C 0.29094 0.08481 0.63751 0.0
C1455 C 0.29511 0.07052 0.6206 0.0
H1456 H 0.87996 0.31472 0.68691 0.0
H1457 H 0.84277 0.3134 0.62027 0.0
H1458 H 0.9057 0.3086 0.66105 0.0
H1459 H 0.86858 0.30764 0.59421 0.0
H1460 H 0.91775 0.2818 0.55743 0.0
H1461 H 0.89186 0.28498 0.58389 0.0
H1462 H 0.92237 0.32524 0.6313 0.0
H1463 H 0.94843 0.32154 0.6055 0.0
C1464 C 0.87729 0.31294 0.66672 0.0
C1465 C 0.85936 0.31433 0.65561 0.0
C1466 C 0.89204 0.30959 0.65188 0.0
C1467 C 0.8892 0.30771 0.62555 0.0
C1468 C 0.8712 0.30879 0.61446 0.0
C1469 C 0.85643 0.31212 0.62933 0.0
C1470 C 0.91899 0.29117 0.57367 0.0
C1471 C 0.93515 0.30143 0.57935 0.0
C1472 C 0.90409 0.29313 0.58867 0.0
C1473 C 0.90506 0.30534 0.60972 0.0
C1474 C 0.92125 0.31554 0.61542 0.0
C1475 C 0.93611 0.31359 0.60043 0.0
H1476 H 0.75711 0.9001 0.70756 0.0
H1477 H 0.76402 0.86758 0.63969 0.0
H1478 H 0.73803 0.92167 0.68352 0.0
H1479 H 0.7455 0.88944 0.61542 0.0
H1480 H 0.70802 0.92865 0.57594 0.0
H1481 H 0.71635 0.90442 0.60529 0.0
H1482 H 0.7461 0.94416 0.65455 0.0
H1483 H 0.73733 0.96822 0.62573 0.0
C1484 C 0.7542 0.89735 0.68758 0.0
C1485 C 0.76191 0.88207 0.6755 0.0
C1486 C 0.74339 0.90978 0.67376 0.0
C1487 C 0.74032 0.90737 0.6475 0.0
C1488 C 0.74732 0.8916 0.63565 0.0
C1489 C 0.75803 0.87911 0.6495 0.0
C1490 C 0.71586 0.93222 0.59343 0.0
C1491 C 0.72225 0.95023 0.59845 0.0
C1492 C 0.72078 0.91834 0.61011 0.0
C1493 C 0.73208 0.92229 0.63213 0.0
C1494 C 0.73727 0.9406 0.63792 0.0
C1495 C 0.7324 0.95439 0.62128 0.0
H1496 H 0.90705 0.75067 0.69764 0.0
H1497 H 0.86941 0.75847 0.63282 0.0
H1498 H 0.92924 0.73679 0.67049 0.0
H1499 H 0.89168 0.74502 0.60555 0.0
H1500 H 0.93096 0.71052 0.56304 0.0
H1501 H 0.90813 0.71729 0.59347 0.0
H1502 H 0.94867 0.74866 0.63978 0.0
H1503 H 0.97154 0.74137 0.60989 0.0
C1504 C 0.90344 0.74914 0.67762 0.0
C1505 C 0.88644 0.75546 0.66734 0.0
C1506 C 0.91617 0.74133 0.66205 0.0
C1507 C 0.91224 0.73982 0.63585 0.0
C1508 C 0.89503 0.74569 0.62568 0.0
C1509 C 0.8823 0.75348 0.64126 0.0
C1510 C 0.93507 0.71851 0.58 0.0
C1511 C 0.95299 0.72557 0.58397 0.0
C1512 C 0.92196 0.72254 0.5973 0.0
C1513 C 0.92654 0.73364 0.61894 0.0
C1514 C 0.9447 0.73995 0.62343 0.0
C1515 C 0.95776 0.73596 0.60615 0.0
H1516 H 0.24696 0.87381 0.63323 0.0
H1517 H 0.29831 0.85406 0.60729 0.0
H1518 H 0.25346 0.90427 0.61843 0.0
H1519 H 0.30497 0.88463 0.59269 0.0
H1520 H 0.296 0.93392 0.54009 0.0
H1521 H 0.29267 0.90402 0.55879 0.0
H1522 H 0.27401 0.93089 0.62591 0.0
H1523 H 0.27724 0.96076 0.60685 0.0
C1524 C 0.25978 0.87609 0.62471 0.0
C1525 C 0.27219 0.86161 0.62156 0.0
C1526 C 0.26354 0.89354 0.61632 0.0
C1527 C 0.27974 0.89688 0.60439 0.0
C1528 C 0.2923 0.88246 0.6016 0.0
C1529 C 0.28856 0.86501 0.61009 0.0
C1530 C 0.29135 0.93332 0.55891 0.0
C1531 C 0.2867 0.94943 0.57206 0.0
C1532 C 0.28952 0.91628 0.56968 0.0
C1533 C 0.283 0.91508 0.59381 0.0
C1534 C 0.27883 0.93135 0.60717 0.0
C1535 C 0.28072 0.9484 0.5964 0.0
H1536 H 0.12194 0.25667 0.66449 0.0
H1537 H 0.09064 0.28691 0.71779 0.0
H1538 H 0.1008 0.2664 0.63013 0.0
H1539 H 0.06958 0.29702 0.6833 0.0
H1540 H 0.02403 0.28853 0.61786 0.0
H1541 H 0.04605 0.28356 0.65376 0.0
H1542 H 0.09078 0.29281 0.60659 0.0
H1543 H 0.06861 0.29727 0.57069 0.0
C1544 C 0.11068 0.26566 0.66877 0.0
C1545 C 0.10807 0.27123 0.69378 0.0
C1546 C 0.09861 0.27132 0.6491 0.0
C1547 C 0.08356 0.28261 0.65393 0.0
C1548 C 0.08098 0.28825 0.67895 0.0
C1549 C 0.09308 0.28256 0.69867 0.0
C1550 C 0.03859 0.28977 0.61545 0.0
C1551 C 0.04477 0.2932 0.59174 0.0
C1552 C 0.05119 0.28701 0.63593 0.0
C1553 C 0.07019 0.28764 0.63299 0.0
C1554 C 0.07626 0.29193 0.60938 0.0
C1555 C 0.06364 0.29464 0.58892 0.0
H1556 H 0.76014 0.14166 0.63919 0.0
H1557 H 0.70645 0.15892 0.61023 0.0
H1558 H 0.75411 0.11085 0.62128 0.0
H1559 H 0.70027 0.12797 0.59246 0.0
H1560 H 0.70876 0.07866 0.53643 0.0
H1561 H 0.71162 0.10885 0.55794 0.0
H1562 H 0.73506 0.08342 0.62485 0.0
H1563 H 0.73229 0.05329 0.60301 0.0
C1564 C 0.74693 0.13876 0.62932 0.0
C1565 C 0.73372 0.15265 0.62624 0.0
C1566 C 0.74344 0.1211 0.61914 0.0
C1567 C 0.7267 0.11696 0.60546 0.0
C1568 C 0.71336 0.13078 0.60271 0.0
C1569 C 0.71683 0.14844 0.613 0.0
C1570 C 0.71435 0.07963 0.55581 0.0
C1571 C 0.72046 0.06387 0.56813 0.0
C1572 C 0.71591 0.09683 0.56818 0.0
C1573 C 0.72365 0.09853 0.59308 0.0
C1574 C 0.72927 0.08259 0.60557 0.0
C1575 C 0.72764 0.06539 0.5932 0.0
H1576 H 0.86163 0.25641 0.40577 0.0
H1577 H 0.86287 0.3126 0.38291 0.0
H1578 H 0.89278 0.25985 0.42539 0.0
H1579 H 0.89417 0.3159 0.40217 0.0
H1580 H 0.95771 0.3041 0.41725 0.0
H1581 H 0.92669 0.3019 0.39629 0.0
H1582 H 0.90682 0.27923 0.46312 0.0
H1583 H 0.93766 0.28188 0.48413 0.0
C1584 C 0.86868 0.26939 0.40463 0.0
C1585 C 0.85994 0.28409 0.39236 0.0
C1586 C 0.88642 0.2714 0.41598 0.0
C1587 C 0.89585 0.28813 0.41524 0.0
C1588 C 0.88725 0.3028 0.40275 0.0
C1589 C 0.86937 0.30088 0.39169 0.0
C1590 C 0.94657 0.29901 0.4275 0.0
C1591 C 0.94987 0.29341 0.45234 0.0
C1592 C 0.92891 0.29768 0.41555 0.0
C1593 C 0.91441 0.29034 0.42809 0.0
C1594 C 0.91778 0.28479 0.45296 0.0
C1595 C 0.93534 0.28638 0.465 0.0
H1596 H 0.68108 0.87263 0.38102 0.0
H1597 H 0.72967 0.88995 0.34652 0.0
H1598 H 0.68495 0.89799 0.41196 0.0
H1599 H 0.73392 0.91507 0.37793 0.0
H1600 H 0.72223 0.97002 0.41897 0.0
H1601 H 0.71981 0.94387 0.38884 0.0
H1602 H 0.70408 0.90909 0.44789 0.0
H1603 H 0.70611 0.93549 0.47764 0.0
C1604 C 0.6928 0.88168 0.3804 0.0
C1605 C 0.70528 0.87908 0.3617 0.0
C1606 C 0.69506 0.89618 0.39816 0.0
C1607 C 0.7098 0.90853 0.39754 0.0
C1608 C 0.72233 0.90591 0.37884 0.0
C1609 C 0.72003 0.89141 0.36101 0.0
C1610 C 0.71829 0.95673 0.42533 0.0
C1611 C 0.71428 0.9546 0.45039 0.0
C1612 C 0.71703 0.94174 0.40822 0.0
C1613 C 0.71176 0.92435 0.41593 0.0
C1614 C 0.70793 0.92232 0.44122 0.0
C1615 C 0.70916 0.93733 0.45828 0.0
H1616 H 0.15617 0.69757 0.36604 0.0
H1617 H 0.14232 0.75486 0.36022 0.0
H1618 H 0.12646 0.69163 0.38272 0.0
H1619 H 0.11289 0.74911 0.37745 0.0
H1620 H 0.08414 0.6958 0.44399 0.0
H1621 H 0.11178 0.6983 0.42121 0.0
H1622 H 0.08334 0.73451 0.36919 0.0
H1623 H 0.05575 0.73216 0.39225 0.0
C1624 C 0.14665 0.70883 0.36803 0.0
C1625 C 0.1514 0.72662 0.36142 0.0
C1626 C 0.12972 0.70548 0.37778 0.0
C1627 C 0.11725 0.71988 0.38134 0.0
C1628 C 0.12198 0.73763 0.37448 0.0
C1629 C 0.13887 0.74096 0.36471 0.0
C1630 C 0.08368 0.70398 0.42738 0.0
C1631 C 0.06782 0.71389 0.42001 0.0
C1632 C 0.09953 0.70542 0.41429 0.0
C1633 C 0.09984 0.71674 0.39349 0.0
C1634 C 0.08368 0.72596 0.38544 0.0
C1635 C 0.06787 0.72458 0.39859 0.0
H1636 H 0.32649 0.14108 0.4169 0.0
H1637 H 0.28604 0.12075 0.35976 0.0
H1638 H 0.32145 0.11442 0.44188 0.0
H1639 H 0.28054 0.09423 0.38509 0.0
H1640 H 0.29253 0.03937 0.42413 0.0
H1641 H 0.2958 0.06645 0.3988 0.0
H1642 H 0.29906 0.10084 0.46673 0.0
H1643 H 0.29624 0.07361 0.4918 0.0
C1644 C 0.31626 0.13104 0.40993 0.0
C1645 C 0.30636 0.13321 0.38668 0.0
C1646 C 0.31332 0.11579 0.42426 0.0
C1647 C 0.30047 0.10225 0.41561 0.0
C1648 C 0.29061 0.10435 0.39225 0.0
C1649 C 0.2936 0.11962 0.37786 0.0
C1650 C 0.29388 0.05279 0.43344 0.0
C1651 C 0.29419 0.05461 0.45971 0.0
C1652 C 0.29564 0.06828 0.41904 0.0
C1653 C 0.29773 0.08583 0.43074 0.0
C1654 C 0.29774 0.08753 0.45714 0.0
C1655 C 0.29602 0.07203 0.47149 0.0
H1656 H 0.63936 0.77008 0.84168 0.0
H1657 H 0.66836 0.78209 0.91374 0.0
H1658 H 0.61022 0.77694 0.85994 0.0
H1659 H 0.63933 0.78846 0.93218 0.0
H1660 H 0.56247 0.76707 0.91081 0.0
H1661 H 0.59068 0.76349 0.88929 0.0
H1662 H 0.61426 0.8101 0.93226 0.0
H1663 H 0.58636 0.81315 0.95458 0.0
C1664 C 0.63949 0.77437 0.86135 0.0
C1665 C 0.65615 0.77593 0.87619 0.0
C1666 C 0.62282 0.77815 0.87186 0.0
C1667 C 0.62246 0.78337 0.89748 0.0
C1668 C 0.63913 0.78488 0.91227 0.0
C1669 C 0.65576 0.78115 0.90176 0.0
C1670 C 0.57369 0.77653 0.91568 0.0
C1671 C 0.57223 0.79028 0.93459 0.0
C1672 C 0.58978 0.77462 0.90313 0.0
C1673 C 0.60477 0.78644 0.90917 0.0
C1674 C 0.60306 0.8006 0.92742 0.0
C1675 C 0.58698 0.80249 0.94001 0.0
H1676 H 0.21189 0.6211 0.8239 0.0
H1677 H 0.21331 0.6628 0.88349 0.0
H1678 H 0.21317 0.59728 0.85508 0.0
H1679 H 0.21452 0.63897 0.91476 0.0
H1680 H 0.23669 0.59054 0.96185 0.0
H1681 H 0.23562 0.61472 0.93122 0.0
H1682 H 0.19321 0.58498 0.88618 0.0
H1683 H 0.19458 0.5606 0.91653 0.0
C1684 C 0.21269 0.62515 0.8437 0.0
C1685 C 0.21295 0.64379 0.85128 0.0
C1686 C 0.21323 0.61153 0.86153 0.0
C1687 C 0.21397 0.61625 0.88737 0.0
C1688 C 0.21422 0.63491 0.89499 0.0
C1689 C 0.21356 0.64854 0.87712 0.0
C1690 C 0.2272 0.58914 0.94534 0.0
C1691 C 0.21577 0.57363 0.94154 0.0
C1692 C 0.22647 0.60306 0.92793 0.0
C1693 C 0.21438 0.60173 0.90625 0.0
C1694 C 0.20282 0.5863 0.90257 0.0
C1695 C 0.20347 0.57243 0.92007 0.0
H1696 H 0.38502 0.24316 0.84985 0.0
H1697 H 0.36014 0.25607 0.91942 0.0
H1698 H 0.41184 0.23089 0.87341 0.0
H1699 H 0.38723 0.24455 0.94312 0.0
H1700 H 0.43307 0.21208 0.98038 0.0
H1701 H 0.40493 0.21819 0.95432 0.0
H1702 H 0.43732 0.24258 0.89919 0.0
H1703 H 0.46531 0.23569 0.9249 0.0
C1704 C 0.3852 0.24314 0.87019 0.0
C1705 C 0.37033 0.25024 0.88281 0.0
C1706 C 0.40065 0.2363 0.88372 0.0
C1707 C 0.40173 0.23671 0.91019 0.0
C1708 C 0.38675 0.24365 0.92276 0.0
C1709 C 0.37125 0.25035 0.90922 0.0
C1710 C 0.43404 0.21845 0.96245 0.0
C1711 C 0.45118 0.22352 0.95454 0.0
C1712 C 0.41799 0.22211 0.94764 0.0
C1713 C 0.41881 0.23104 0.92473 0.0
C1714 C 0.43613 0.23549 0.91652 0.0
C1715 C 0.45216 0.23169 0.93125 0.0
H1716 H 0.80947 0.36444 0.89144 0.0
H1717 H 0.75247 0.36688 0.9082 0.0
H1718 H 0.81484 0.39442 0.91277 0.0
H1719 H 0.75794 0.39667 0.92985 0.0
H1720 H 0.77993 0.43792 0.99121 0.0
H1721 H 0.77679 0.40773 0.96977 0.0
H1722 H 0.80397 0.42819 0.90692 0.0
H1723 H 0.80679 0.45854 0.92835 0.0
C1724 C 0.79804 0.37147 0.89937 0.0
C1725 C 0.78041 0.36349 0.89766 0.0
C1726 C 0.80114 0.38859 0.91162 0.0
C1727 C 0.78681 0.39781 0.92296 0.0
C1728 C 0.76926 0.38979 0.92142 0.0
C1729 C 0.7661 0.37284 0.90888 0.0
C1730 C 0.78541 0.43582 0.97295 0.0
C1731 C 0.79372 0.45037 0.96142 0.0
C1732 C 0.78353 0.41865 0.96064 0.0
C1733 C 0.79005 0.41568 0.93664 0.0
C1734 C 0.79895 0.4301 0.92548 0.0
C1735 C 0.80061 0.44738 0.9377 0.0
H1736 H 0.66073 0.20043 0.11048 0.0
H1737 H 0.6289 0.18544 0.17192 0.0
H1738 H 0.63254 0.2082 0.08576 0.0
H1739 H 0.60069 0.19261 0.14705 0.0
H1740 H 0.55376 0.22122 0.10405 0.0
H1741 H 0.58268 0.2171 0.12932 0.0
H1742 H 0.60669 0.19262 0.06424 0.0
H1743 H 0.5779 0.19741 0.03903 0.0
C1744 C 0.6477 0.19903 0.11879 0.0
C1745 C 0.64701 0.1927 0.14332 0.0
C1746 C 0.63154 0.20327 0.10455 0.0
C1747 C 0.61432 0.20105 0.11441 0.0
C1748 C 0.61369 0.19483 0.13902 0.0
C1749 C 0.62984 0.19066 0.15326 0.0
C1750 C 0.56534 0.2151 0.09528 0.0
C1751 C 0.56379 0.20964 0.06974 0.0
C1752 C 0.58183 0.21262 0.10969 0.0
C1753 C 0.59703 0.20451 0.09883 0.0
C1754 C 0.59539 0.19917 0.07313 0.0
C1755 C 0.57892 0.20175 0.05873 0.0
H1756 H 0.76522 0.61623 0.18987 0.0
H1757 H 0.75396 0.64408 0.12035 0.0
H1758 H 0.77726 0.59001 0.16658 0.0
H1759 H 0.76523 0.61767 0.09691 0.0
H1760 H 0.79709 0.57323 0.0603 0.0
H1761 H 0.79142 0.60023 0.08716 0.0
H1762 H 0.76604 0.56554 0.13919 0.0
H1763 H 0.77255 0.53863 0.11272 0.0
C1764 C 0.76554 0.61683 0.16963 0.0
C1765 C 0.75903 0.63238 0.15696 0.0
C1766 C 0.77226 0.60172 0.15623 0.0
C1767 C 0.77231 0.6017 0.12983 0.0
C1768 C 0.76583 0.61732 0.11724 0.0
C1769 C 0.75926 0.63244 0.13064 0.0
C1770 C 0.79064 0.57148 0.07777 0.0
C1771 C 0.78511 0.55402 0.0845 0.0
C1772 C 0.78721 0.58689 0.09303 0.0
C1773 C 0.77803 0.58514 0.11522 0.0
C1774 C 0.77328 0.56745 0.12242 0.0
C1775 C 0.77689 0.55204 0.10725 0.0
H1776 H 0.38318 0.8091 0.18014 0.0
H1777 H 0.34695 0.80731 0.11257 0.0
H1778 H 0.40945 0.80365 0.15501 0.0
H1779 H 0.37326 0.80223 0.08725 0.0
H1780 H 0.42321 0.77792 0.05126 0.0
H1781 H 0.39707 0.78016 0.07736 0.0
H1782 H 0.42632 0.82063 0.12592 0.0
H1783 H 0.45266 0.81785 0.10048 0.0
C1784 C 0.38084 0.80735 0.15991 0.0
C1785 C 0.36302 0.80839 0.14832 0.0
C1786 C 0.39589 0.8044 0.14549 0.0
C1787 C 0.39346 0.80256 0.11911 0.0
C1788 C 0.37558 0.80333 0.10754 0.0
C1789 C 0.36052 0.80628 0.12199 0.0
C1790 C 0.42415 0.7871 0.06771 0.0
C1791 C 0.44003 0.79772 0.07378 0.0
C1792 C 0.40909 0.78853 0.0825 0.0
C1793 C 0.4096 0.80058 0.10372 0.0
C1794 C 0.42555 0.81105 0.10989 0.0
C1795 C 0.44058 0.80963 0.09512 0.0
H1796 H 0.25428 0.38447 0.19746 0.0
H1797 H 0.24175 0.35286 0.12843 0.0
H1798 H 0.24522 0.41252 0.17612 0.0
H1799 H 0.23329 0.38082 0.10687 0.0
H1800 H 0.20593 0.43147 0.0778 0.0
H1801 H 0.21072 0.40466 0.10345 0.0
H1802 H 0.25645 0.43191 0.14506 0.0
H1803 H 0.25106 0.45904 0.12028 0.0
C1804 C 0.24939 0.38351 0.1778 0.0
C1805 C 0.2483 0.36642 0.16474 0.0
C1806 C 0.24436 0.39958 0.1655 0.0
C1807 C 0.23839 0.39893 0.1398 0.0
C1808 C 0.23739 0.38181 0.12679 0.0
C1809 C 0.24232 0.36578 0.1391 0.0
C1810 C 0.21674 0.4319 0.09279 0.0
C1811 C 0.22821 0.44736 0.09683 0.0
C1812 C 0.21964 0.41643 0.1073 0.0
C1813 C 0.23411 0.41603 0.12614 0.0
C1814 C 0.24511 0.43176 0.13083 0.0
C1815 C 0.24217 0.44724 0.11639 0.0
H1816 H 0.36767 0.25006 0.14791 0.0
H1817 H 0.40512 0.24334 0.21323 0.0
H1818 H 0.39054 0.23737 0.12101 0.0
H1819 H 0.42785 0.23006 0.18647 0.0
H1820 H 0.47063 0.23571 0.12698 0.0
H1821 H 0.44737 0.24201 0.15657 0.0
H1822 H 0.40778 0.21067 0.10859 0.0
H1823 H 0.43096 0.20504 0.07836 0.0
C1824 C 0.38065 0.24543 0.15654 0.0
C1825 C 0.38453 0.24747 0.18266 0.0
C1826 C 0.39372 0.23806 0.14117 0.0
C1827 C 0.41104 0.23266 0.15158 0.0
C1828 C 0.41472 0.23424 0.17782 0.0
C1829 C 0.40166 0.24169 0.19318 0.0
C1830 C 0.45698 0.23009 0.12279 0.0
C1831 C 0.45257 0.2201 0.10016 0.0
C1832 C 0.44368 0.23351 0.13992 0.0
C1833 C 0.42565 0.22696 0.13488 0.0
C1834 C 0.42148 0.21614 0.11285 0.0
C1835 C 0.43481 0.21274 0.09566 0.0
H1836 H 0.806 0.34193 0.12329 0.0
H1837 H 0.74721 0.34906 0.11813 0.0
H1838 H 0.81003 0.37402 0.11342 0.0
H1839 H 0.7511 0.38096 0.10727 0.0
H1840 H 0.76361 0.44145 0.10366 0.0
H1841 H 0.76124 0.41105 0.12108 0.0
H1842 H 0.80556 0.39205 0.0772 0.0
H1843 H 0.80812 0.42242 0.06034 0.0
C1844 C 0.79395 0.35046 0.12043 0.0
C1845 C 0.77629 0.34309 0.12192 0.0
C1846 C 0.79623 0.3688 0.11448 0.0
C1847 C 0.78089 0.38011 0.10944 0.0
C1848 C 0.76324 0.37279 0.11144 0.0
C1849 C 0.76098 0.35449 0.11757 0.0
C1850 C 0.77289 0.43076 0.09789 0.0
C1851 C 0.78606 0.43432 0.08067 0.0
C1852 C 0.77152 0.41334 0.10781 0.0
C1853 C 0.78319 0.39905 0.10055 0.0
C1854 C 0.79657 0.40277 0.08364 0.0
C1855 C 0.79802 0.42019 0.07389 0.0
H1856 H 0.60188 0.76417 0.19389 0.0
H1857 H 0.63184 0.74566 0.13081 0.0
H1858 H 0.58079 0.78099 0.16559 0.0
H1859 H 0.6104 0.76175 0.10234 0.0
H1860 H 0.5743 0.79727 0.0548 0.0
H1861 H 0.5983 0.7898 0.08722 0.0
H1862 H 0.55656 0.77282 0.13539 0.0
H1863 H 0.5328 0.78109 0.10331 0.0
C1864 C 0.60415 0.76399 0.17401 0.0
C1865 C 0.61868 0.75383 0.16456 0.0
C1866 C 0.59195 0.77347 0.15774 0.0
C1867 C 0.59381 0.77271 0.13162 0.0
C1868 C 0.60869 0.76297 0.12234 0.0
C1869 C 0.62096 0.75365 0.13862 0.0
C1870 C 0.57039 0.7924 0.07265 0.0
C1871 C 0.55186 0.78963 0.07671 0.0
C1872 C 0.58407 0.78795 0.09111 0.0
C1873 C 0.57941 0.78044 0.11383 0.0
C1874 C 0.56072 0.77873 0.11831 0.0
C1875 C 0.54707 0.78336 0.09995 0.0
H1876 H 0.25625 0.65531 0.11461 0.0
H1877 H 0.20093 0.66598 0.0848 0.0
H1878 H 0.2511 0.6224 0.10735 0.0
H1879 H 0.19579 0.633 0.07733 0.0
H1880 H 0.20806 0.57718 0.03453 0.0
H1881 H 0.20902 0.60978 0.0472 0.0
H1882 H 0.23194 0.59601 0.12108 0.0
H1883 H 0.23073 0.56333 0.1083 0.0
C1884 C 0.24293 0.65057 0.10678 0.0
C1885 C 0.22902 0.66316 0.10014 0.0
C1886 C 0.23995 0.63176 0.10274 0.0
C1887 C 0.22306 0.62518 0.09173 0.0
C1888 C 0.20898 0.63773 0.08566 0.0
C1889 C 0.2119 0.65654 0.08996 0.0
C1890 C 0.21302 0.58121 0.05356 0.0
C1891 C 0.21955 0.56798 0.07041 0.0
C1892 C 0.21352 0.59978 0.06085 0.0
C1893 C 0.22066 0.6054 0.08507 0.0
C1894 C 0.22657 0.59204 0.10222 0.0
C1895 C 0.22586 0.57344 0.09499 0.0
H1896 H 0.36336 0.816 0.87573 0.0
H1897 H 0.36389 0.75911 0.89575 0.0
H1898 H 0.39431 0.81998 0.89595 0.0
H1899 H 0.39466 0.76323 0.91637 0.0
H1900 H 0.43841 0.78467 0.9765 0.0
H1901 H 0.40761 0.78227 0.95529 0.0
H1902 H 0.42739 0.80705 0.88985 0.0
H1903 H 0.45837 0.80905 0.91103 0.0
C1904 C 0.37017 0.80429 0.88413 0.0
C1905 C 0.36136 0.7871 0.8837 0.0
C1906 C 0.38784 0.8066 0.89574 0.0
C1907 C 0.39681 0.79192 0.9077 0.0
C1908 C 0.38799 0.7748 0.90739 0.0
C1909 C 0.37047 0.77241 0.89547 0.0
C1910 C 0.43605 0.78975 0.95768 0.0
C1911 C 0.45056 0.7972 0.9454 0.0
C1912 C 0.41854 0.7883 0.94552 0.0
C1913 C 0.41519 0.79442 0.92093 0.0
C1914 C 0.42962 0.80237 0.90889 0.0
C1915 C 0.44724 0.80357 0.92096 0.0
H1916 H 0.24808 0.37591 0.89416 0.0
H1917 H 0.22433 0.40814 0.8338 0.0
H1918 H 0.24166 0.40045 0.92449 0.0
H1919 H 0.21737 0.43256 0.86418 0.0
H1920 H 0.23015 0.48019 0.92236 0.0
H1921 H 0.23351 0.45533 0.89101 0.0
H1922 H 0.21728 0.41613 0.94441 0.0
H1923 H 0.21457 0.44109 0.97585 0.0
C1924 C 0.24123 0.38816 0.88747 0.0
C1925 C 0.23655 0.39006 0.86166 0.0
C1926 C 0.23745 0.40219 0.90483 0.0
C1927 C 0.22892 0.41846 0.8968 0.0
C1928 C 0.22411 0.42028 0.87098 0.0
C1929 C 0.22796 0.40626 0.85359 0.0
C1930 C 0.22719 0.46623 0.92715 0.0
C1931 C 0.22219 0.46239 0.95133 0.0
C1932 C 0.22899 0.45202 0.90925 0.0
C1933 C 0.22574 0.4337 0.91523 0.0
C1934 C 0.22017 0.43003 0.93932 0.0
C1935 C 0.21847 0.44425 0.95723 0.0
H1936 H 0.63658 0.26419 0.87345 0.0
H1937 H 0.65561 0.20854 0.88149 0.0
H1938 H 0.60777 0.25608 0.89074 0.0
H1939 H 0.62649 0.20015 0.89792 0.0
H1940 H 0.58364 0.20041 0.95807 0.0
H1941 H 0.61097 0.20523 0.93541 0.0
H1942 H 0.57969 0.23939 0.88343 0.0
H1943 H 0.55246 0.23489 0.90663 0.0
C1944 C 0.6344 0.25011 0.87841 0.0
C1945 C 0.6482 0.23694 0.87569 0.0
C1946 C 0.61785 0.24541 0.88819 0.0
C1947 C 0.61471 0.22741 0.89558 0.0
C1948 C 0.62848 0.21417 0.8926 0.0
C1949 C 0.64509 0.21892 0.88296 0.0
C1950 C 0.58253 0.20863 0.9415 0.0
C1951 C 0.56597 0.21736 0.93419 0.0
C1952 C 0.5982 0.2114 0.92846 0.0
C1953 C 0.5976 0.22285 0.9077 0.0
C1954 C 0.58075 0.23082 0.89966 0.0
C1955 C 0.56513 0.22818 0.91284 0.0
H1956 H 0.82808 0.63537 0.85647 0.0
H1957 H 0.77038 0.62643 0.83643 0.0
H1958 H 0.82659 0.61449 0.89118 0.0
H1959 H 0.76887 0.60551 0.87109 0.0
H1960 H 0.77021 0.58225 0.95029 0.0
H1961 H 0.77168 0.60513 0.91813 0.0
H1962 H 0.82201 0.581 0.89477 0.0
H1963 H 0.82043 0.55793 0.92651 0.0
C1964 C 0.81503 0.62912 0.85975 0.0
C1965 C 0.79928 0.6328 0.84408 0.0
C1966 C 0.81421 0.61708 0.87945 0.0
C1967 C 0.79761 0.6084 0.88388 0.0
C1968 C 0.78179 0.61222 0.86838 0.0
C1969 C 0.78265 0.62418 0.84855 0.0
C1970 C 0.78153 0.58173 0.93818 0.0
C1971 C 0.79518 0.5682 0.94098 0.0
C1972 C 0.78238 0.59488 0.91981 0.0
C1973 C 0.79696 0.59486 0.90395 0.0
C1974 C 0.81074 0.58153 0.90697 0.0
C1975 C 0.80985 0.56832 0.92521 0.0
loop_
_geom_bond_atom_site_label_1
_geom_bond_atom_site_label_2
_geom_bond_distance
_geom_bond_site_symmetry_2
_ccdc_geom_bond_type
C0 C1 1.560 . S
C0 H61 0.959 . S
C0 H62 0.959 . S
C0 H63 0.960 . S
C1 C0 1.560 . S
C1 O56 1.426 . S
C1 H60 0.980 . S
C2 C3 1.407 . S
C2 C7 1.418 . S
C2 O56 1.334 . S
C3 C2 1.407 . S
C3 C4 1.360 . S
C3 H64 0.929 . S
C4 C3 1.360 . S
C4 C5 1.401 . S
C4 C8 1.527 . S
C5 C4 1.401 . S
C5 C6 1.405 . S
C5 C38 1.587 . S
C6 C5 1.405 . S
C6 C7 1.332 . S
C6 C9 1.496 . S
C7 C2 1.418 . S
C7 C6 1.332 . S
C7 H65 0.929 . S
C8 C4 1.527 . S
C8 H66 0.959 . S
C8 H67 0.961 . S
C8 H68 0.961 . S
C9 C6 1.496 . S
C9 H69 0.960 . S
C9 H70 0.960 . S
C9 H71 0.961 . S
C10 C11 1.517 . S
C10 H73 0.961 . S
C10 H74 0.960 . S
C10 H75 0.959 . S
C11 C10 1.517 . S
C11 O59 1.468 . S
C11 H72 0.980 . S
C12 C13 1.349 . S
C12 C17 1.367 . S
C12 O59 1.408 . S
C13 C12 1.349 . S
C13 C14 1.407 . S
C13 H76 0.930 . S
C14 C13 1.407 . S
C14 C15 1.449 . S
C14 C18 1.535 . S
C15 C14 1.449 . S
C15 C16 1.384 . S
C15 C40 1.553 . S
C16 C15 1.384 . S
C16 C17 1.364 . S
C16 C19 1.450 . S
C17 C12 1.367 . S
C17 C16 1.364 . S
C17 H77 0.931 . S
C18 C14 1.535 . S
C18 H78 0.959 . S
C18 H79 0.961 . S
C18 H80 0.959 . S
C19 C16 1.450 . S
C19 H81 0.960 . S
C19 H82 0.960 . S
C19 H83 0.960 . S
C20 C21 1.309 . S
C20 C25 1.304 . S
C20 O58 1.435 . S
C21 C20 1.309 . S
C21 C22 1.476 . S
C21 H85 0.930 . S
C22 C21 1.476 . S
C22 C23 1.400 . S
C22 C26 1.567 . S
C23 C22 1.400 . S
C23 C24 1.373 . S
C23 C45 1.432 . S
C24 C23 1.373 . S
C24 C25 1.339 . S
C24 C27 1.530 . S
C25 C20 1.304 . S
C25 C24 1.339 . S
C25 H86 0.930 . S
C26 C22 1.567 . S
C26 H87 0.961 . S
C26 H88 0.960 . S
C26 H89 0.958 . S
C27 C24 1.530 . S
C27 H90 0.961 . S
C27 H91 0.960 . S
C27 H92 0.960 . S
C28 C29 1.530 . S
C28 H94 0.961 . S
C28 H95 0.961 . S
C28 H96 0.959 . S
C29 C28 1.530 . S
C29 O57 1.412 . S
C29 H93 0.980 . S
C30 C31 1.288 . S
C30 C35 1.377 . S
C30 O57 1.393 . S
C31 C30 1.288 . S
C31 C32 1.369 . S
C31 H97 0.932 . S
C32 C31 1.369 . S
C32 C33 1.398 . S
C32 C36 1.527 . S
C33 C32 1.398 . S
C33 C34 1.380 . S
C33 C47 1.497 . S
C34 C33 1.380 . S
C34 C35 1.383 . S
C34 C37 1.603 . S
C35 C30 1.377 . S
C35 C34 1.383 . S
C35 H98 0.929 . S
C36 C32 1.527 . S
C36 H99 0.961 . S
C36 H100 0.959 . S
C36 H101 0.959 . S
C37 C34 1.603 . S
C37 H102 0.960 . S
C37 H103 0.962 . S
C37 H104 0.961 . S
C38 C5 1.587 . S
C38 C39 1.360 . S
C38 C51 1.412 . S
C39 C38 1.360 . S
C39 C40 1.365 . S
C39 H105 0.929 . S
C40 C15 1.553 . S
C40 C39 1.365 . S
C40 C41 1.404 . S
C41 C40 1.404 . S
C41 C42 1.395 . S
C41 C52 1.451 . S
C42 C41 1.395 . S
C42 C43 1.322 . S
C42 H106 0.930 . S
C43 C42 1.322 . S
C43 C44 1.459 . S
C43 H107 0.929 . S
C44 C43 1.459 . S
C44 C45 1.445 . S
C44 C53 1.395 . S
C45 C23 1.432 . S
C45 C44 1.445 . S
C45 C46 1.370 . S
C46 C45 1.370 . S
C46 C47 1.438 . S
C46 H108 0.930 . S
C47 C33 1.497 . S
C47 C46 1.438 . S
C47 C48 1.360 . S
C48 C47 1.360 . S
C48 C49 1.401 . S
C48 C53 1.446 . S
C49 C48 1.401 . S
C49 C50 1.347 . S
C49 H109 0.929 . S
C50 C49 1.347 . S
C50 C51 1.455 . S
C50 H110 0.930 . S
C51 C38 1.412 . S
C51 C50 1.455 . S
C51 C52 1.331 . S
C52 C41 1.451 . S
C52 C51 1.331 . S
C52 C53 1.497 . S
C53 C44 1.395 . S
C53 C48 1.446 . S
C53 C52 1.497 . S
C54 C55 1.582 . S
C54 H111 0.962 . S
C54 H112 0.959 . S
C54 H113 0.958 . S
C55 C54 1.582 . S
C55 O58 1.458 . S
C55 H84 0.980 . S
O56 C1 1.426 . S
O56 C2 1.334 . S
O57 C29 1.412 . S
O57 C30 1.393 . S
O58 C20 1.435 . S
O58 C55 1.458 . S
O59 C11 1.468 . S
O59 C12 1.408 . S
H60 C1 0.980 . S
H61 C0 0.959 . S
H62 C0 0.959 . S
H63 C0 0.960 . S
H64 C3 0.929 . S
H65 C7 0.929 . S
H66 C8 0.959 . S
H67 C8 0.961 . S
H68 C8 0.961 . S
H69 C9 0.960 . S
H70 C9 0.960 . S
H71 C9 0.961 . S
H72 C11 0.980 . S
H73 C10 0.961 . S
H74 C10 0.960 . S
H75 C10 0.959 . S
H76 C13 0.930 . S
H77 C17 0.931 . S
H78 C18 0.959 . S
H79 C18 0.961 . S
H80 C18 0.959 . S
H81 C19 0.960 . S
H82 C19 0.960 . S
H83 C19 0.960 . S
H84 C55 0.980 . S
H85 C21 0.930 . S
H86 C25 0.930 . S
H87 C26 0.961 . S
H88 C26 0.960 . S
H89 C26 0.958 . S
H90 C27 0.961 . S
H91 C27 0.960 . S
H92 C27 0.960 . S
H93 C29 0.980 . S
H94 C28 0.961 . S
H95 C28 0.961 . S
H96 C28 0.959 . S
H97 C31 0.932 . S
H98 C35 0.929 . S
H99 C36 0.961 . S
H100 C36 0.959 . S
H101 C36 0.959 . S
H102 C37 0.960 . S
H103 C37 0.962 . S
H104 C37 0.961 . S
H105 C39 0.929 . S
H106 C42 0.930 . S
H107 C43 0.929 . S
H108 C46 0.930 . S
H109 C49 0.929 . S
H110 C50 0.930 . S
H111 C54 0.962 . S
H112 C54 0.959 . S
H113 C54 0.958 . S
C114 C115 1.560 . S
C114 H175 0.959 . S
C114 H176 0.959 . S
C114 H177 0.960 . S
C115 C114 1.560 . S
C115 O170 1.426 . S
C115 H174 0.980 . S
C116 C117 1.407 . S
C116 C121 1.418 . S
C116 O170 1.334 . S
C117 C116 1.407 . S
C117 C118 1.360 . S
C117 H178 0.929 . S
C118 C117 1.360 . S
C118 C119 1.401 . S
C118 C122 1.527 . S
C119 C118 1.401 . S
C119 C120 1.405 . S
C119 C152 1.587 . S
C120 C119 1.405 . S
C120 C121 1.332 . S
C120 C123 1.496 . S
C121 C116 1.418 . S
C121 C120 1.332 . S
C121 H179 0.929 . S
C122 C118 1.527 . S
C122 H180 0.959 . S
C122 H181 0.961 . S
C122 H182 0.961 . S
C123 C120 1.496 . S
C123 H183 0.960 . S
C123 H184 0.960 . S
C123 H185 0.961 . S
C124 C125 1.517 . S
C124 H187 0.961 . S
C124 H188 0.960 . S
C124 H189 0.959 . S
C125 C124 1.517 . S
C125 O173 1.468 . S
C125 H186 0.980 . S
C126 C127 1.349 . S
C126 C131 1.367 . S
C126 O173 1.408 . S
C127 C126 1.349 . S
C127 C128 1.407 . S
C127 H190 0.930 . S
C128 C127 1.407 . S
C128 C129 1.449 . S
C128 C132 1.535 . S
C129 C128 1.449 . S
C129 C130 1.384 . S
C129 C154 1.553 . S
C130 C129 1.384 . S
C130 C131 1.364 . S
C130 C133 1.450 . S
C131 C126 1.367 . S
C131 C130 1.364 . S
C131 H191 0.931 . S
C132 C128 1.535 . S
C132 H192 0.959 . S
C132 H193 0.961 . S
C132 H194 0.959 . S
C133 C130 1.450 . S
C133 H195 0.960 . S
C133 H196 0.960 . S
C133 H197 0.960 . S
C134 C135 1.309 . S
C134 C139 1.304 . S
C134 O172 1.435 . S
C135 C134 1.309 . S
C135 C136 1.476 . S
C135 H199 0.930 . S
C136 C135 1.476 . S
C136 C137 1.400 . S
C136 C140 1.567 . S
C137 C136 1.400 . S
C137 C138 1.373 . S
C137 C159 1.432 . S
C138 C137 1.373 . S
C138 C139 1.339 . S
C138 C141 1.530 . S
C139 C134 1.304 . S
C139 C138 1.339 . S
C139 H200 0.930 . S
C140 C136 1.567 . S
C140 H201 0.961 . S
C140 H202 0.960 . S
C140 H203 0.958 . S
C141 C138 1.530 . S
C141 H204 0.961 . S
C141 H205 0.960 . S
C141 H206 0.960 . S
C142 C143 1.530 . S
C142 H208 0.961 . S
C142 H209 0.961 . S
C142 H210 0.959 . S
C143 C142 1.530 . S
C143 O171 1.412 . S
C143 H207 0.980 . S
C144 C145 1.288 . S
C144 C149 1.377 . S
C144 O171 1.393 . S
C145 C144 1.288 . S
C145 C146 1.369 . S
C145 H211 0.932 . S
C146 C145 1.369 . S
C146 C147 1.398 . S
C146 C150 1.527 . S
C147 C146 1.398 . S
C147 C148 1.380 . S
C147 C161 1.497 . S
C148 C147 1.380 . S
C148 C149 1.383 . S
C148 C151 1.603 . S
C149 C144 1.377 . S
C149 C148 1.383 . S
C149 H212 0.929 . S
C150 C146 1.527 . S
C150 H213 0.961 . S
C150 H214 0.959 . S
C150 H215 0.959 . S
C151 C148 1.603 . S
C151 H216 0.960 . S
C151 H217 0.962 . S
C151 H218 0.961 . S
C152 C119 1.587 . S
C152 C153 1.360 . S
C152 C165 1.412 . S
C153 C152 1.360 . S
C153 C154 1.365 . S
C153 H219 0.929 . S
C154 C129 1.553 . S
C154 C153 1.365 . S
C154 C155 1.404 . S
C155 C154 1.404 . S
C155 C156 1.395 . S
C155 C166 1.451 . S
C156 C155 1.395 . S
C156 C157 1.322 . S
C156 H220 0.930 . S
C157 C156 1.322 . S
C157 C158 1.459 . S
C157 H221 0.929 . S
C158 C157 1.459 . S
C158 C159 1.445 . S
C158 C167 1.395 . S
C159 C137 1.432 . S
C159 C158 1.445 . S
C159 C160 1.370 . S
C160 C159 1.370 . S
C160 C161 1.438 . S
C160 H222 0.930 . S
C161 C147 1.497 . S
C161 C160 1.438 . S
C161 C162 1.360 . S
C162 C161 1.360 . S
C162 C163 1.401 . S
C162 C167 1.446 . S
C163 C162 1.401 . S
C163 C164 1.347 . S
C163 H223 0.929 . S
C164 C163 1.347 . S
C164 C165 1.455 . S
C164 H224 0.930 . S
C165 C152 1.412 . S
C165 C164 1.455 . S
C165 C166 1.331 . S
C166 C155 1.451 . S
C166 C165 1.331 . S
C166 C167 1.497 . S
C167 C158 1.395 . S
C167 C162 1.446 . S
C167 C166 1.497 . S
C168 C169 1.582 . S
C168 H225 0.962 . S
C168 H226 0.959 . S
C168 H227 0.958 . S
C169 C168 1.582 . S
C169 O172 1.458 . S
C169 H198 0.980 . S
O170 C115 1.426 . S
O170 C116 1.334 . S
O171 C143 1.412 . S
O171 C144 1.393 . S
O172 C134 1.435 . S
O172 C169 1.458 . S
O173 C125 1.468 . S
O173 C126 1.408 . S
H174 C115 0.980 . S
H175 C114 0.959 . S
H176 C114 0.959 . S
H177 C114 0.960 . S
H178 C117 0.929 . S
H179 C121 0.929 . S
H180 C122 0.959 . S
H181 C122 0.961 . S
H182 C122 0.961 . S
H183 C123 0.960 . S
H184 C123 0.960 . S
H185 C123 0.961 . S
H186 C125 0.980 . S
H187 C124 0.961 . S
H188 C124 0.960 . S
H189 C124 0.959 . S
H190 C127 0.930 . S
H191 C131 0.931 . S
H192 C132 0.959 . S
H193 C132 0.961 . S
H194 C132 0.959 . S
H195 C133 0.960 . S
H196 C133 0.960 . S
H197 C133 0.960 . S
H198 C169 0.980 . S
H199 C135 0.930 . S
H200 C139 0.930 . S
H201 C140 0.961 . S
H202 C140 0.960 . S
H203 C140 0.958 . S
H204 C141 0.961 . S
H205 C141 0.960 . S
H206 C141 0.960 . S
H207 C143 0.980 . S
H208 C142 0.961 . S
H209 C142 0.961 . S
H210 C142 0.959 . S
H211 C145 0.932 . S
H212 C149 0.929 . S
H213 C150 0.961 . S
H214 C150 0.959 . S
H215 C150 0.959 . S
H216 C151 0.960 . S
H217 C151 0.962 . S
H218 C151 0.961 . S
H219 C153 0.929 . S
H220 C156 0.930 . S
H221 C157 0.929 . S
H222 C160 0.930 . S
H223 C163 0.929 . S
H224 C164 0.930 . S
H225 C168 0.962 . S
H226 C168 0.959 . S
H227 C168 0.958 . S
C228 C229 1.560 . S
C228 H289 0.959 . S
C228 H290 0.959 . S
C228 H291 0.960 . S
C229 C228 1.560 . S
C229 O284 1.426 . S
C229 H288 0.980 . S
C230 C231 1.407 . S
C230 C235 1.418 . S
C230 O284 1.334 . S
C231 C230 1.407 . S
C231 C232 1.360 . S
C231 H292 0.929 . S
C232 C231 1.360 . S
C232 C233 1.401 . S
C232 C236 1.527 . S
C233 C232 1.401 . S
C233 C234 1.405 . S
C233 C266 1.587 . S
C234 C233 1.405 . S
C234 C235 1.332 . S
C234 C237 1.496 . S
C235 C230 1.418 . S
C235 C234 1.332 . S
C235 H293 0.929 . S
C236 C232 1.527 . S
C236 H294 0.959 . S
C236 H295 0.961 . S
C236 H296 0.961 . S
C237 C234 1.496 . S
C237 H297 0.960 . S
C237 H298 0.960 . S
C237 H299 0.961 . S
C238 C239 1.517 . S
C238 H301 0.961 . S
C238 H302 0.960 . S
C238 H303 0.959 . S
C239 C238 1.517 . S
C239 O287 1.468 . S
C239 H300 0.980 . S
C240 C241 1.349 . S
C240 C245 1.367 . S
C240 O287 1.408 . S
C241 C240 1.349 . S
C241 C242 1.407 . S
C241 H304 0.930 . S
C242 C241 1.407 . S
C242 C243 1.449 . S
C242 C246 1.535 . S
C243 C242 1.449 . S
C243 C244 1.384 . S
C243 C268 1.553 . S
C244 C243 1.384 . S
C244 C245 1.364 . S
C244 C247 1.450 . S
C245 C240 1.367 . S
C245 C244 1.364 . S
C245 H305 0.931 . S
C246 C242 1.535 . S
C246 H306 0.959 . S
C246 H307 0.961 . S
C246 H308 0.959 . S
C247 C244 1.450 . S
C247 H309 0.960 . S
C247 H310 0.960 . S
C247 H311 0.960 . S
C248 C249 1.309 . S
C248 C253 1.304 . S
C248 O286 1.435 . S
C249 C248 1.309 . S
C249 C250 1.476 . S
C249 H313 0.930 . S
C250 C249 1.476 . S
C250 C251 1.400 . S
C250 C254 1.567 . S
C251 C250 1.400 . S
C251 C252 1.373 . S
C251 C273 1.432 . S
C252 C251 1.373 . S
C252 C253 1.339 . S
C252 C255 1.530 . S
C253 C248 1.304 . S
C253 C252 1.339 . S
C253 H314 0.930 . S
C254 C250 1.567 . S
C254 H315 0.961 . S
C254 H316 0.960 . S
C254 H317 0.958 . S
C255 C252 1.530 . S
C255 H318 0.961 . S
C255 H319 0.960 . S
C255 H320 0.960 . S
C256 C257 1.530 . S
C256 H322 0.961 . S
C256 H323 0.961 . S
C256 H324 0.959 . S
C257 C256 1.530 . S
C257 O285 1.412 . S
C257 H321 0.980 . S
C258 C259 1.288 . S
C258 C263 1.377 . S
C258 O285 1.393 . S
C259 C258 1.288 . S
C259 C260 1.369 . S
C259 H325 0.932 . S
C260 C259 1.369 . S
C260 C261 1.398 . S
C260 C264 1.527 . S
C261 C260 1.398 . S
C261 C262 1.380 . S
C261 C275 1.497 . S
C262 C261 1.380 . S
C262 C263 1.383 . S
C262 C265 1.603 . S
C263 C258 1.377 . S
C263 C262 1.383 . S
C263 H326 0.929 . S
C264 C260 1.527 . S
C264 H327 0.961 . S
C264 H328 0.959 . S
C264 H329 0.959 . S
C265 C262 1.603 . S
C265 H330 0.960 . S
C265 H331 0.962 . S
C265 H332 0.961 . S
C266 C233 1.587 . S
C266 C267 1.360 . S
C266 C279 1.412 . S
C267 C266 1.360 . S
C267 C268 1.365 . S
C267 H333 0.929 . S
C268 C243 1.553 . S
C268 C267 1.365 . S
C268 C269 1.404 . S
C269 C268 1.404 . S
C269 C270 1.395 . S
C269 C280 1.451 . S
C270 C269 1.395 . S
C270 C271 1.322 . S
C270 H334 0.930 . S
C271 C270 1.322 . S
C271 C272 1.459 . S
C271 H335 0.929 . S
C272 C271 1.459 . S
C272 C273 1.445 . S
C272 C281 1.395 . S
C273 C251 1.432 . S
C273 C272 1.445 . S
C273 C274 1.370 . S
C274 C273 1.370 . S
C274 C275 1.438 . S
C274 H336 0.930 . S
C275 C261 1.497 . S
C275 C274 1.438 . S
C275 C276 1.360 . S
C276 C275 1.360 . S
C276 C277 1.401 . S
C276 C281 1.446 . S
C277 C276 1.401 . S
C277 C278 1.347 . S
C277 H337 0.929 . S
C278 C277 1.347 . S
C278 C279 1.455 . S
C278 H338 0.930 . S
C279 C266 1.412 . S
C279 C278 1.455 . S
C279 C280 1.331 . S
C280 C269 1.451 . S
C280 C279 1.331 . S
C280 C281 1.497 . S
C281 C272 1.395 . S
C281 C276 1.446 . S
C281 C280 1.497 . S
C282 C283 1.582 . S
C282 H339 0.962 . S
C282 H340 0.959 . S
C282 H341 0.958 . S
C283 C282 1.582 . S
C283 O286 1.458 . S
C283 H312 0.980 . S
O284 C229 1.426 . S
O284 C230 1.334 . S
O285 C257 1.412 . S
O285 C258 1.393 . S
O286 C248 1.435 . S
O286 C283 1.458 . S
O287 C239 1.468 . S
O287 C240 1.408 . S
H288 C229 0.980 . S
H289 C228 0.959 . S
H290 C228 0.959 . S
H291 C228 0.960 . S
H292 C231 0.929 . S
H293 C235 0.929 . S
H294 C236 0.959 . S
H295 C236 0.961 . S
H296 C236 0.961 . S
H297 C237 0.960 . S
H298 C237 0.960 . S
H299 C237 0.961 . S
H300 C239 0.980 . S
H301 C238 0.961 . S
H302 C238 0.960 . S
H303 C238 0.959 . S
H304 C241 0.930 . S
H305 C245 0.931 . S
H306 C246 0.959 . S
H307 C246 0.961 . S
H308 C246 0.959 . S
H309 C247 0.960 . S
H310 C247 0.960 . S
H311 C247 0.960 . S
H312 C283 0.980 . S
H313 C249 0.930 . S
H314 C253 0.930 . S
H315 C254 0.961 . S
H316 C254 0.960 . S
H317 C254 0.958 . S
H318 C255 0.961 . S
H319 C255 0.960 . S
H320 C255 0.960 . S
H321 C257 0.980 . S
H322 C256 0.961 . S
H323 C256 0.961 . S
H324 C256 0.959 . S
H325 C259 0.932 . S
H326 C263 0.929 . S
H327 C264 0.961 . S
H328 C264 0.959 . S
H329 C264 0.959 . S
H330 C265 0.960 . S
H331 C265 0.962 . S
H332 C265 0.961 . S
H333 C267 0.929 . S
H334 C270 0.930 . S
H335 C271 0.929 . S
H336 C274 0.930 . S
H337 C277 0.929 . S
H338 C278 0.930 . S
H339 C282 0.962 . S
H340 C282 0.959 . S
H341 C282 0.958 . S
C342 C343 1.560 . S
C342 H403 0.959 . S
C342 H404 0.959 . S
C342 H405 0.960 . S
C343 C342 1.560 . S
C343 O398 1.426 . S
C343 H402 0.980 . S
C344 C345 1.407 . S
C344 C349 1.418 . S
C344 O398 1.334 . S
C345 C344 1.407 . S
C345 C346 1.360 . S
C345 H406 0.929 . S
C346 C345 1.360 . S
C346 C347 1.401 . S
C346 C350 1.527 . S
C347 C346 1.401 . S
C347 C348 1.405 . S
C347 C380 1.587 . S
C348 C347 1.405 . S
C348 C349 1.332 . S
C348 C351 1.496 . S
C349 C344 1.418 . S
C349 C348 1.332 . S
C349 H407 0.929 . S
C350 C346 1.527 . S
C350 H408 0.959 . S
C350 H409 0.961 . S
C350 H410 0.961 . S
C351 C348 1.496 . S
C351 H411 0.960 . S
C351 H412 0.960 . S
C351 H413 0.961 . S
C352 C353 1.517 . S
C352 H415 0.961 . S
C352 H416 0.960 . S
C352 H417 0.959 . S
C353 C352 1.517 . S
C353 O401 1.468 . S
C353 H414 0.980 . S
C354 C355 1.349 . S
C354 C359 1.367 . S
C354 O401 1.408 . S
C355 C354 1.349 . S
C355 C356 1.407 . S
C355 H418 0.930 . S
C356 C355 1.407 . S
C356 C357 1.449 . S
C356 C360 1.535 . S
C357 C356 1.449 . S
C357 C358 1.384 . S
C357 C382 1.553 . S
C358 C357 1.384 . S
C358 C359 1.364 . S
C358 C361 1.450 . S
C359 C354 1.367 . S
C359 C358 1.364 . S
C359 H419 0.931 . S
C360 C356 1.535 . S
C360 H420 0.959 . S
C360 H421 0.961 . S
C360 H422 0.959 . S
C361 C358 1.450 . S
C361 H423 0.960 . S
C361 H424 0.960 . S
C361 H425 0.960 . S
C362 C363 1.309 . S
C362 C367 1.304 . S
C362 O400 1.435 . S
C363 C362 1.309 . S
C363 C364 1.476 . S
C363 H427 0.930 . S
C364 C363 1.476 . S
C364 C365 1.400 . S
C364 C368 1.567 . S
C365 C364 1.400 . S
C365 C366 1.373 . S
C365 C387 1.432 . S
C366 C365 1.373 . S
C366 C367 1.339 . S
C366 C369 1.530 . S
C367 C362 1.304 . S
C367 C366 1.339 . S
C367 H428 0.930 . S
C368 C364 1.567 . S
C368 H429 0.961 . S
C368 H430 0.960 . S
C368 H431 0.958 . S
C369 C366 1.530 . S
C369 H432 0.961 . S
C369 H433 0.960 . S
C369 H434 0.960 . S
C370 C371 1.530 . S
C370 H436 0.961 . S
C370 H437 0.961 . S
C370 H438 0.959 . S
C371 C370 1.530 . S
C371 O399 1.412 . S
C371 H435 0.980 . S
C372 C373 1.288 . S
C372 C377 1.377 . S
C372 O399 1.393 . S
C373 C372 1.288 . S
C373 C374 1.369 . S
C373 H439 0.932 . S
C374 C373 1.369 . S
C374 C375 1.398 . S
C374 C378 1.527 . S
C375 C374 1.398 . S
C375 C376 1.380 . S
C375 C389 1.497 . S
C376 C375 1.380 . S
C376 C377 1.383 . S
C376 C379 1.603 . S
C377 C372 1.377 . S
C377 C376 1.383 . S
C377 H440 0.929 . S
C378 C374 1.527 . S
C378 H441 0.961 . S
C378 H442 0.959 . S
C378 H443 0.959 . S
C379 C376 1.603 . S
C379 H444 0.960 . S
C379 H445 0.962 . S
C379 H446 0.961 . S
C380 C347 1.587 . S
C380 C381 1.360 . S
C380 C393 1.412 . S
C381 C380 1.360 . S
C381 C382 1.365 . S
C381 H447 0.929 . S
C382 C357 1.553 . S
C382 C381 1.365 . S
C382 C383 1.404 . S
C383 C382 1.404 . S
C383 C384 1.395 . S
C383 C394 1.451 . S
C384 C383 1.395 . S
C384 C385 1.322 . S
C384 H448 0.930 . S
C385 C384 1.322 . S
C385 C386 1.459 . S
C385 H449 0.929 . S
C386 C385 1.459 . S
C386 C387 1.445 . S
C386 C395 1.395 . S
C387 C365 1.432 . S
C387 C386 1.445 . S
C387 C388 1.370 . S
C388 C387 1.370 . S
C388 C389 1.438 . S
C388 H450 0.930 . S
C389 C375 1.497 . S
C389 C388 1.438 . S
C389 C390 1.360 . S
C390 C389 1.360 . S
C390 C391 1.401 . S
C390 C395 1.446 . S
C391 C390 1.401 . S
C391 C392 1.347 . S
C391 H451 0.929 . S
C392 C391 1.347 . S
C392 C393 1.455 . S
C392 H452 0.930 . S
C393 C380 1.412 . S
C393 C392 1.455 . S
C393 C394 1.331 . S
C394 C383 1.451 . S
C394 C393 1.331 . S
C394 C395 1.497 . S
C395 C386 1.395 . S
C395 C390 1.446 . S
C395 C394 1.497 . S
C396 C397 1.582 . S
C396 H453 0.962 . S
C396 H454 0.959 . S
C396 H455 0.958 . S
C397 C396 1.582 . S
C397 O400 1.458 . S
C397 H426 0.980 . S
O398 C343 1.426 . S
O398 C344 1.334 . S
O399 C371 1.412 . S
O399 C372 1.393 . S
O400 C362 1.435 . S
O400 C397 1.458 . S
O401 C353 1.468 . S
O401 C354 1.408 . S
H402 C343 0.980 . S
H403 C342 0.959 . S
H404 C342 0.959 . S
H405 C342 0.960 . S
H406 C345 0.929 . S
H407 C349 0.929 . S
H408 C350 0.959 . S
H409 C350 0.961 . S
H410 C350 0.961 . S
H411 C351 0.960 . S
H412 C351 0.960 . S
H413 C351 0.961 . S
H414 C353 0.980 . S
H415 C352 0.961 . S
H416 C352 0.960 . S
H417 C352 0.959 . S
H418 C355 0.930 . S
H419 C359 0.931 . S
H420 C360 0.959 . S
H421 C360 0.961 . S
H422 C360 0.959 . S
H423 C361 0.960 . S
H424 C361 0.960 . S
H425 C361 0.960 . S
H426 C397 0.980 . S
H427 C363 0.930 . S
H428 C367 0.930 . S
H429 C368 0.961 . S
H430 C368 0.960 . S
H431 C368 0.958 . S
H432 C369 0.961 . S
H433 C369 0.960 . S
H434 C369 0.960 . S
H435 C371 0.980 . S
H436 C370 0.961 . S
H437 C370 0.961 . S
H438 C370 0.959 . S
H439 C373 0.932 . S
H440 C377 0.929 . S
H441 C378 0.961 . S
H442 C378 0.959 . S
H443 C378 0.959 . S
H444 C379 0.960 . S
H445 C379 0.962 . S
H446 C379 0.961 . S
H447 C381 0.929 . S
H448 C384 0.930 . S
H449 C385 0.929 . S
H450 C388 0.930 . S
H451 C391 0.929 . S
H452 C392 0.930 . S
H453 C396 0.962 . S
H454 C396 0.959 . S
H455 C396 0.958 . S
C456 C457 1.560 . S
C456 H517 0.959 . S
C456 H518 0.959 . S
C456 H519 0.960 . S
C457 C456 1.560 . S
C457 O512 1.426 . S
C457 H516 0.980 . S
C458 C459 1.407 . S
C458 C463 1.418 . S
C458 O512 1.334 . S
C459 C458 1.407 . S
C459 C460 1.360 . S
C459 H520 0.929 . S
C460 C459 1.360 . S
C460 C461 1.401 . S
C460 C464 1.527 . S
C461 C460 1.401 . S
C461 C462 1.405 . S
C461 C494 1.587 . S
C462 C461 1.405 . S
C462 C463 1.332 . S
C462 C465 1.496 . S
C463 C458 1.418 . S
C463 C462 1.332 . S
C463 H521 0.929 . S
C464 C460 1.527 . S
C464 H522 0.959 . S
C464 H523 0.961 . S
C464 H524 0.961 . S
C465 C462 1.496 . S
C465 H525 0.960 . S
C465 H526 0.960 . S
C465 H527 0.961 . S
C466 C467 1.517 . S
C466 H529 0.961 . S
C466 H530 0.960 . S
C466 H531 0.959 . S
C467 C466 1.517 . S
C467 O515 1.468 . S
C467 H528 0.980 . S
C468 C469 1.349 . S
C468 C473 1.367 . S
C468 O515 1.408 . S
C469 C468 1.349 . S
C469 C470 1.407 . S
C469 H532 0.930 . S
C470 C469 1.407 . S
C470 C471 1.449 . S
C470 C474 1.535 . S
C471 C470 1.449 . S
C471 C472 1.384 . S
C471 C496 1.553 . S
C472 C471 1.384 . S
C472 C473 1.364 . S
C472 C475 1.450 . S
C473 C468 1.367 . S
C473 C472 1.364 . S
C473 H533 0.931 . S
C474 C470 1.535 . S
C474 H534 0.959 . S
C474 H535 0.961 . S
C474 H536 0.959 . S
C475 C472 1.450 . S
C475 H537 0.960 . S
C475 H538 0.960 . S
C475 H539 0.960 . S
C476 C477 1.309 . S
C476 C481 1.304 . S
C476 O514 1.435 . S
C477 C476 1.309 . S
C477 C478 1.476 . S
C477 H541 0.930 . S
C478 C477 1.476 . S
C478 C479 1.400 . S
C478 C482 1.567 . S
C479 C478 1.400 . S
C479 C480 1.373 . S
C479 C501 1.432 . S
C480 C479 1.373 . S
C480 C481 1.339 . S
C480 C483 1.530 . S
C481 C476 1.304 . S
C481 C480 1.339 . S
C481 H542 0.930 . S
C482 C478 1.567 . S
C482 H543 0.961 . S
C482 H544 0.960 . S
C482 H545 0.958 . S
C483 C480 1.530 . S
C483 H546 0.961 . S
C483 H547 0.960 . S
C483 H548 0.960 . S
C484 C485 1.530 . S
C484 H550 0.961 . S
C484 H551 0.961 . S
C484 H552 0.959 . S
C485 C484 1.530 . S
C485 O513 1.412 . S
C485 H549 0.980 . S
C486 C487 1.288 . S
C486 C491 1.377 . S
C486 O513 1.393 . S
C487 C486 1.288 . S
C487 C488 1.369 . S
C487 H553 0.932 . S
C488 C487 1.369 . S
C488 C489 1.398 . S
C488 C492 1.527 . S
C489 C488 1.398 . S
C489 C490 1.380 . S
C489 C503 1.497 . S
C490 C489 1.380 . S
C490 C491 1.383 . S
C490 C493 1.603 . S
C491 C486 1.377 . S
C491 C490 1.383 . S
C491 H554 0.929 . S
C492 C488 1.527 . S
C492 H555 0.961 . S
C492 H556 0.959 . S
C492 H557 0.959 . S
C493 C490 1.603 . S
C493 H558 0.960 . S
C493 H559 0.962 . S
C493 H560 0.961 . S
C494 C461 1.587 . S
C494 C495 1.360 . S
C494 C507 1.412 . S
C495 C494 1.360 . S
C495 C496 1.365 . S
C495 H561 0.929 . S
C496 C471 1.553 . S
C496 C495 1.365 . S
C496 C497 1.404 . S
C497 C496 1.404 . S
C497 C498 1.395 . S
C497 C508 1.451 . S
C498 C497 1.395 . S
C498 C499 1.322 . S
C498 H562 0.930 . S
C499 C498 1.322 . S
C499 C500 1.459 . S
C499 H563 0.929 . S
C500 C499 1.459 . S
C500 C501 1.445 . S
C500 C509 1.395 . S
C501 C479 1.432 . S
C501 C500 1.445 . S
C501 C502 1.370 . S
C502 C501 1.370 . S
C502 C503 1.438 . S
C502 H564 0.930 . S
C503 C489 1.497 . S
C503 C502 1.438 . S
C503 C504 1.360 . S
C504 C503 1.360 . S
C504 C505 1.401 . S
C504 C509 1.446 . S
C505 C504 1.401 . S
C505 C506 1.347 . S
C505 H565 0.929 . S
C506 C505 1.347 . S
C506 C507 1.455 . S
C506 H566 0.930 . S
C507 C494 1.412 . S
C507 C506 1.455 . S
C507 C508 1.331 . S
C508 C497 1.451 . S
C508 C507 1.331 . S
C508 C509 1.497 . S
C509 C500 1.395 . S
C509 C504 1.446 . S
C509 C508 1.497 . S
C510 C511 1.582 . S
C510 H567 0.962 . S
C510 H568 0.959 . S
C510 H569 0.958 . S
C511 C510 1.582 . S
C511 O514 1.458 . S
C511 H540 0.980 . S
O512 C457 1.426 . S
O512 C458 1.334 . S
O513 C485 1.412 . S
O513 C486 1.393 . S
O514 C476 1.435 . S
O514 C511 1.458 . S
O515 C467 1.468 . S
O515 C468 1.408 . S
H516 C457 0.980 . S
H517 C456 0.959 . S
H518 C456 0.959 . S
H519 C456 0.960 . S
H520 C459 0.929 . S
H521 C463 0.929 . S
H522 C464 0.959 . S
H523 C464 0.961 . S
H524 C464 0.961 . S
H525 C465 0.960 . S
H526 C465 0.960 . S
H527 C465 0.961 . S
H528 C467 0.980 . S
H529 C466 0.961 . S
H530 C466 0.960 . S
H531 C466 0.959 . S
H532 C469 0.930 . S
H533 C473 0.931 . S
H534 C474 0.959 . S
H535 C474 0.961 . S
H536 C474 0.959 . S
H537 C475 0.960 . S
H538 C475 0.960 . S
H539 C475 0.960 . S
H540 C511 0.980 . S
H541 C477 0.930 . S
H542 C481 0.930 . S
H543 C482 0.961 . S
H544 C482 0.960 . S
H545 C482 0.958 . S
H546 C483 0.961 . S
H547 C483 0.960 . S
H548 C483 0.960 . S
H549 C485 0.980 . S
H550 C484 0.961 . S
H551 C484 0.961 . S
H552 C484 0.959 . S
H553 C487 0.932 . S
H554 C491 0.929 . S
H555 C492 0.961 . S
H556 C492 0.959 . S
H557 C492 0.959 . S
H558 C493 0.960 . S
H559 C493 0.962 . S
H560 C493 0.961 . S
H561 C495 0.929 . S
H562 C498 0.930 . S
H563 C499 0.929 . S
H564 C502 0.930 . S
H565 C505 0.929 . S
H566 C506 0.930 . S
H567 C510 0.962 . S
H568 C510 0.959 . S
H569 C510 0.958 . S
C570 C571 1.560 . S
C570 H631 0.959 . S
C570 H632 0.959 . S
C570 H633 0.960 . S
C571 C570 1.560 . S
C571 O626 1.426 . S
C571 H630 0.980 . S
C572 C573 1.407 . S
C572 C577 1.418 . S
C572 O626 1.334 . S
C573 C572 1.407 . S
C573 C574 1.360 . S
C573 H634 0.929 . S
C574 C573 1.360 . S
C574 C575 1.401 . S
C574 C578 1.527 . S
C575 C574 1.401 . S
C575 C576 1.405 . S
C575 C608 1.587 . S
C576 C575 1.405 . S
C576 C577 1.332 . S
C576 C579 1.496 . S
C577 C572 1.418 . S
C577 C576 1.332 . S
C577 H635 0.929 . S
C578 C574 1.527 . S
C578 H636 0.959 . S
C578 H637 0.961 . S
C578 H638 0.961 . S
C579 C576 1.496 . S
C579 H639 0.960 . S
C579 H640 0.960 . S
C579 H641 0.961 . S
C580 C581 1.517 . S
C580 H643 0.961 . S
C580 H644 0.960 . S
C580 H645 0.959 . S
C581 C580 1.517 . S
C581 O629 1.468 . S
C581 H642 0.980 . S
C582 C583 1.349 . S
C582 C587 1.367 . S
C582 O629 1.408 . S
C583 C582 1.349 . S
C583 C584 1.407 . S
C583 H646 0.930 . S
C584 C583 1.407 . S
C584 C585 1.449 . S
C584 C588 1.535 . S
C585 C584 1.449 . S
C585 C586 1.384 . S
C585 C610 1.553 . S
C586 C585 1.384 . S
C586 C587 1.364 . S
C586 C589 1.450 . S
C587 C582 1.367 . S
C587 C586 1.364 . S
C587 H647 0.931 . S
C588 C584 1.535 . S
C588 H648 0.959 . S
C588 H649 0.961 . S
C588 H650 0.959 . S
C589 C586 1.450 . S
C589 H651 0.960 . S
C589 H652 0.960 . S
C589 H653 0.960 . S
C590 C591 1.309 . S
C590 C595 1.304 . S
C590 O628 1.435 . S
C591 C590 1.309 . S
C591 C592 1.476 . S
C591 H655 0.930 . S
C592 C591 1.476 . S
C592 C593 1.400 . S
C592 C596 1.567 . S
C593 C592 1.400 . S
C593 C594 1.373 . S
C593 C615 1.432 . S
C594 C593 1.373 . S
C594 C595 1.339 . S
C594 C597 1.530 . S
C595 C590 1.304 . S
C595 C594 1.339 . S
C595 H656 0.930 . S
C596 C592 1.567 . S
C596 H657 0.961 . S
C596 H658 0.960 . S
C596 H659 0.958 . S
C597 C594 1.530 . S
C597 H660 0.961 . S
C597 H661 0.960 . S
C597 H662 0.960 . S
C598 C599 1.530 . S
C598 H664 0.961 . S
C598 H665 0.961 . S
C598 H666 0.959 . S
C599 C598 1.530 . S
C599 O627 1.412 . S
C599 H663 0.980 . S
C600 C601 1.288 . S
C600 C605 1.377 . S
C600 O627 1.393 . S
C601 C600 1.288 . S
C601 C602 1.369 . S
C601 H667 0.932 . S
C602 C601 1.369 . S
C602 C603 1.398 . S
C602 C606 1.527 . S
C603 C602 1.398 . S
C603 C604 1.380 . S
C603 C617 1.497 . S
C604 C603 1.380 . S
C604 C605 1.383 . S
C604 C607 1.603 . S
C605 C600 1.377 . S
C605 C604 1.383 . S
C605 H668 0.929 . S
C606 C602 1.527 . S
C606 H669 0.961 . S
C606 H670 0.959 . S
C606 H671 0.959 . S
C607 C604 1.603 . S
C607 H672 0.960 . S
C607 H673 0.962 . S
C607 H674 0.961 . S
C608 C575 1.587 . S
C608 C609 1.360 . S
C608 C621 1.412 . S
C609 C608 1.360 . S
C609 C610 1.365 . S
C609 H675 0.929 . S
C610 C585 1.553 . S
C610 C609 1.365 . S
C610 C611 1.404 . S
C611 C610 1.404 . S
C611 C612 1.395 . S
C611 C622 1.451 . S
C612 C611 1.395 . S
C612 C613 1.322 . S
C612 H676 0.930 . S
C613 C612 1.322 . S
C613 C614 1.459 . S
C613 H677 0.929 . S
C614 C613 1.459 . S
C614 C615 1.445 . S
C614 C623 1.395 . S
C615 C593 1.432 . S
C615 C614 1.445 . S
C615 C616 1.370 . S
C616 C615 1.370 . S
C616 C617 1.438 . S
C616 H678 0.930 . S
C617 C603 1.497 . S
C617 C616 1.438 . S
C617 C618 1.360 . S
C618 C617 1.360 . S
C618 C619 1.401 . S
C618 C623 1.446 . S
C619 C618 1.401 . S
C619 C620 1.347 . S
C619 H679 0.929 . S
C620 C619 1.347 . S
C620 C621 1.455 . S
C620 H680 0.930 . S
C621 C608 1.412 . S
C621 C620 1.455 . S
C621 C622 1.331 . S
C622 C611 1.451 . S
C622 C621 1.331 . S
C622 C623 1.497 . S
C623 C614 1.395 . S
C623 C618 1.446 . S
C623 C622 1.497 . S
C624 C625 1.582 . S
C624 H681 0.962 . S
C624 H682 0.959 . S
C624 H683 0.958 . S
C625 C624 1.582 . S
C625 O628 1.458 . S
C625 H654 0.980 . S
O626 C571 1.426 . S
O626 C572 1.334 . S
O627 C599 1.412 . S
O627 C600 1.393 . S
O628 C590 1.435 . S
O628 C625 1.458 . S
O629 C581 1.468 . S
O629 C582 1.408 . S
H630 C571 0.980 . S
H631 C570 0.959 . S
H632 C570 0.959 . S
H633 C570 0.960 . S
H634 C573 0.929 . S
H635 C577 0.929 . S
H636 C578 0.959 . S
H637 C578 0.961 . S
H638 C578 0.961 . S
H639 C579 0.960 . S
H640 C579 0.960 . S
H641 C579 0.961 . S
H642 C581 0.980 . S
H643 C580 0.961 . S
H644 C580 0.960 . S
H645 C580 0.959 . S
H646 C583 0.930 . S
H647 C587 0.931 . S
H648 C588 0.959 . S
H649 C588 0.961 . S
H650 C588 0.959 . S
H651 C589 0.960 . S
H652 C589 0.960 . S
H653 C589 0.960 . S
H654 C625 0.980 . S
H655 C591 0.930 . S
H656 C595 0.930 . S
H657 C596 0.961 . S
H658 C596 0.960 . S
H659 C596 0.958 . S
H660 C597 0.961 . S
H661 C597 0.960 . S
H662 C597 0.960 . S
H663 C599 0.980 . S
H664 C598 0.961 . S
H665 C598 0.961 . S
H666 C598 0.959 . S
H667 C601 0.932 . S
H668 C605 0.929 . S
H669 C606 0.961 . S
H670 C606 0.959 . S
H671 C606 0.959 . S
H672 C607 0.960 . S
H673 C607 0.962 . S
H674 C607 0.961 . S
H675 C609 0.929 . S
H676 C612 0.930 . S
H677 C613 0.929 . S
H678 C616 0.930 . S
H679 C619 0.929 . S
H680 C620 0.930 . S
H681 C624 0.962 . S
H682 C624 0.959 . S
H683 C624 0.958 . S
C684 C685 1.560 . S
C684 H745 0.959 . S
C684 H746 0.959 . S
C684 H747 0.960 . S
C685 C684 1.560 . S
C685 O740 1.426 . S
C685 H744 0.980 . S
C686 C687 1.407 . S
C686 C691 1.418 . S
C686 O740 1.334 . S
C687 C686 1.407 . S
C687 C688 1.360 . S
C687 H748 0.929 . S
C688 C687 1.360 . S
C688 C689 1.401 . S
C688 C692 1.527 . S
C689 C688 1.401 . S
C689 C690 1.405 . S
C689 C722 1.587 . S
C690 C689 1.405 . S
C690 C691 1.332 . S
C690 C693 1.496 . S
C691 C686 1.418 . S
C691 C690 1.332 . S
C691 H749 0.929 . S
C692 C688 1.527 . S
C692 H750 0.959 . S
C692 H751 0.961 . S
C692 H752 0.961 . S
C693 C690 1.496 . S
C693 H753 0.960 . S
C693 H754 0.960 . S
C693 H755 0.961 . S
C694 C695 1.517 . S
C694 H757 0.961 . S
C694 H758 0.960 . S
C694 H759 0.959 . S
C695 C694 1.517 . S
C695 O743 1.468 . S
C695 H756 0.980 . S
C696 C697 1.349 . S
C696 C701 1.367 . S
C696 O743 1.408 . S
C697 C696 1.349 . S
C697 C698 1.407 . S
C697 H760 0.930 . S
C698 C697 1.407 . S
C698 C699 1.449 . S
C698 C702 1.535 . S
C699 C698 1.449 . S
C699 C700 1.384 . S
C699 C724 1.553 . S
C700 C699 1.384 . S
C700 C701 1.364 . S
C700 C703 1.450 . S
C701 C696 1.367 . S
C701 C700 1.364 . S
C701 H761 0.931 . S
C702 C698 1.535 . S
C702 H762 0.959 . S
C702 H763 0.961 . S
C702 H764 0.959 . S
C703 C700 1.450 . S
C703 H765 0.960 . S
C703 H766 0.960 . S
C703 H767 0.960 . S
C704 C705 1.309 . S
C704 C709 1.304 . S
C704 O742 1.435 . S
C705 C704 1.309 . S
C705 C706 1.476 . S
C705 H769 0.930 . S
C706 C705 1.476 . S
C706 C707 1.400 . S
C706 C710 1.567 . S
C707 C706 1.400 . S
C707 C708 1.373 . S
C707 C729 1.432 . S
C708 C707 1.373 . S
C708 C709 1.339 . S
C708 C711 1.530 . S
C709 C704 1.304 . S
C709 C708 1.339 . S
C709 H770 0.930 . S
C710 C706 1.567 . S
C710 H771 0.961 . S
C710 H772 0.960 . S
C710 H773 0.958 . S
C711 C708 1.530 . S
C711 H774 0.961 . S
C711 H775 0.960 . S
C711 H776 0.960 . S
C712 C713 1.530 . S
C712 H778 0.961 . S
C712 H779 0.961 . S
C712 H780 0.959 . S
C713 C712 1.530 . S
C713 O741 1.412 . S
C713 H777 0.980 . S
C714 C715 1.288 . S
C714 C719 1.377 . S
C714 O741 1.393 . S
C715 C714 1.288 . S
C715 C716 1.369 . S
C715 H781 0.932 . S
C716 C715 1.369 . S
C716 C717 1.398 . S
C716 C720 1.527 . S
C717 C716 1.398 . S
C717 C718 1.380 . S
C717 C731 1.497 . S
C718 C717 1.380 . S
C718 C719 1.383 . S
C718 C721 1.603 . S
C719 C714 1.377 . S
C719 C718 1.383 . S
C719 H782 0.929 . S
C720 C716 1.527 . S
C720 H783 0.961 . S
C720 H784 0.959 . S
C720 H785 0.959 . S
C721 C718 1.603 . S
C721 H786 0.960 . S
C721 H787 0.962 . S
C721 H788 0.961 . S
C722 C689 1.587 . S
C722 C723 1.360 . S
C722 C735 1.412 . S
C723 C722 1.360 . S
C723 C724 1.365 . S
C723 H789 0.929 . S
C724 C699 1.553 . S
C724 C723 1.365 . S
C724 C725 1.404 . S
C725 C724 1.404 . S
C725 C726 1.395 . S
C725 C736 1.451 . S
C726 C725 1.395 . S
C726 C727 1.322 . S
C726 H790 0.930 . S
C727 C726 1.322 . S
C727 C728 1.459 . S
C727 H791 0.929 . S
C728 C727 1.459 . S
C728 C729 1.445 . S
C728 C737 1.395 . S
C729 C707 1.432 . S
C729 C728 1.445 . S
C729 C730 1.370 . S
C730 C729 1.370 . S
C730 C731 1.438 . S
C730 H792 0.930 . S
C731 C717 1.497 . S
C731 C730 1.438 . S
C731 C732 1.360 . S
C732 C731 1.360 . S
C732 C733 1.401 . S
C732 C737 1.446 . S
C733 C732 1.401 . S
C733 C734 1.347 . S
C733 H793 0.929 . S
C734 C733 1.347 . S
C734 C735 1.455 . S
C734 H794 0.930 . S
C735 C722 1.412 . S
C735 C734 1.455 . S
C735 C736 1.331 . S
C736 C725 1.451 . S
C736 C735 1.331 . S
C736 C737 1.497 . S
C737 C728 1.395 . S
C737 C732 1.446 . S
C737 C736 1.497 . S
C738 C739 1.582 . S
C738 H795 0.962 . S
C738 H796 0.959 . S
C738 H797 0.958 . S
C739 C738 1.582 . S
C739 O742 1.458 . S
C739 H768 0.980 . S
O740 C685 1.426 . S
O740 C686 1.334 . S
O741 C713 1.412 . S
O741 C714 1.393 . S
O742 C704 1.435 . S
O742 C739 1.458 . S
O743 C695 1.468 . S
O743 C696 1.408 . S
H744 C685 0.980 . S
H745 C684 0.959 . S
H746 C684 0.959 . S
H747 C684 0.960 . S
H748 C687 0.929 . S
H749 C691 0.929 . S
H750 C692 0.959 . S
H751 C692 0.961 . S
H752 C692 0.961 . S
H753 C693 0.960 . S
H754 C693 0.960 . S
H755 C693 0.961 . S
H756 C695 0.980 . S
H757 C694 0.961 . S
H758 C694 0.960 . S
H759 C694 0.959 . S
H760 C697 0.930 . S
H761 C701 0.931 . S
H762 C702 0.959 . S
H763 C702 0.961 . S
H764 C702 0.959 . S
H765 C703 0.960 . S
H766 C703 0.960 . S
H767 C703 0.960 . S
H768 C739 0.980 . S
H769 C705 0.930 . S
H770 C709 0.930 . S
H771 C710 0.961 . S
H772 C710 0.960 . S
H773 C710 0.958 . S
H774 C711 0.961 . S
H775 C711 0.960 . S
H776 C711 0.960 . S
H777 C713 0.980 . S
H778 C712 0.961 . S
H779 C712 0.961 . S
H780 C712 0.959 . S
H781 C715 0.932 . S
H782 C719 0.929 . S
H783 C720 0.961 . S
H784 C720 0.959 . S
H785 C720 0.959 . S
H786 C721 0.960 . S
H787 C721 0.962 . S
H788 C721 0.961 . S
H789 C723 0.929 . S
H790 C726 0.930 . S
H791 C727 0.929 . S
H792 C730 0.930 . S
H793 C733 0.929 . S
H794 C734 0.930 . S
H795 C738 0.962 . S
H796 C738 0.959 . S
H797 C738 0.958 . S
C798 C799 1.560 . S
C798 H859 0.959 . S
C798 H860 0.959 . S
C798 H861 0.960 . S
C799 C798 1.560 . S
C799 O854 1.426 . S
C799 H858 0.980 . S
C800 C801 1.407 . S
C800 C805 1.418 . S
C800 O854 1.334 . S
C801 C800 1.407 . S
C801 C802 1.360 . S
C801 H862 0.929 . S
C802 C801 1.360 . S
C802 C803 1.401 . S
C802 C806 1.527 . S
C803 C802 1.401 . S
C803 C804 1.405 . S
C803 C836 1.587 . S
C804 C803 1.405 . S
C804 C805 1.332 . S
C804 C807 1.496 . S
C805 C800 1.418 . S
C805 C804 1.332 . S
C805 H863 0.929 . S
C806 C802 1.527 . S
C806 H864 0.959 . S
C806 H865 0.961 . S
C806 H866 0.961 . S
C807 C804 1.496 . S
C807 H867 0.960 . S
C807 H868 0.960 . S
C807 H869 0.961 . S
C808 C809 1.517 . S
C808 H871 0.961 . S
C808 H872 0.960 . S
C808 H873 0.959 . S
C809 C808 1.517 . S
C809 O857 1.468 . S
C809 H870 0.980 . S
C810 C811 1.349 . S
C810 C815 1.367 . S
C810 O857 1.408 . S
C811 C810 1.349 . S
C811 C812 1.407 . S
C811 H874 0.930 . S
C812 C811 1.407 . S
C812 C813 1.449 . S
C812 C816 1.535 . S
C813 C812 1.449 . S
C813 C814 1.384 . S
C813 C838 1.553 . S
C814 C813 1.384 . S
C814 C815 1.364 . S
C814 C817 1.450 . S
C815 C810 1.367 . S
C815 C814 1.364 . S
C815 H875 0.931 . S
C816 C812 1.535 . S
C816 H876 0.959 . S
C816 H877 0.961 . S
C816 H878 0.959 . S
C817 C814 1.450 . S
C817 H879 0.960 . S
C817 H880 0.960 . S
C817 H881 0.960 . S
C818 C819 1.309 . S
C818 C823 1.304 . S
C818 O856 1.435 . S
C819 C818 1.309 . S
C819 C820 1.476 . S
C819 H883 0.930 . S
C820 C819 1.476 . S
C820 C821 1.400 . S
C820 C824 1.567 . S
C821 C820 1.400 . S
C821 C822 1.373 . S
C821 C843 1.432 . S
C822 C821 1.373 . S
C822 C823 1.339 . S
C822 C825 1.530 . S
C823 C818 1.304 . S
C823 C822 1.339 . S
C823 H884 0.930 . S
C824 C820 1.567 . S
C824 H885 0.961 . S
C824 H886 0.960 . S
C824 H887 0.958 . S
C825 C822 1.530 . S
C825 H888 0.961 . S
C825 H889 0.960 . S
C825 H890 0.960 . S
C826 C827 1.530 . S
C826 H892 0.961 . S
C826 H893 0.961 . S
C826 H894 0.959 . S
C827 C826 1.530 . S
C827 O855 1.412 . S
C827 H891 0.980 . S
C828 C829 1.288 . S
C828 C833 1.377 . S
C828 O855 1.393 . S
C829 C828 1.288 . S
C829 C830 1.369 . S
C829 H895 0.932 . S
C830 C829 1.369 . S
C830 C831 1.398 . S
C830 C834 1.527 . S
C831 C830 1.398 . S
C831 C832 1.380 . S
C831 C845 1.497 . S
C832 C831 1.380 . S
C832 C833 1.383 . S
C832 C835 1.603 . S
C833 C828 1.377 . S
C833 C832 1.383 . S
C833 H896 0.929 . S
C834 C830 1.527 . S
C834 H897 0.961 . S
C834 H898 0.959 . S
C834 H899 0.959 . S
C835 C832 1.603 . S
C835 H900 0.960 . S
C835 H901 0.962 . S
C835 H902 0.961 . S
C836 C803 1.587 . S
C836 C837 1.360 . S
C836 C849 1.412 . S
C837 C836 1.360 . S
C837 C838 1.365 . S
C837 H903 0.929 . S
C838 C813 1.553 . S
C838 C837 1.365 . S
C838 C839 1.404 . S
C839 C838 1.404 . S
C839 C840 1.395 . S
C839 C850 1.451 . S
C840 C839 1.395 . S
C840 C841 1.322 . S
C840 H904 0.930 . S
C841 C840 1.322 . S
C841 C842 1.459 . S
C841 H905 0.929 . S
C842 C841 1.459 . S
C842 C843 1.445 . S
C842 C851 1.395 . S
C843 C821 1.432 . S
C843 C842 1.445 . S
C843 C844 1.370 . S
C844 C843 1.370 . S
C844 C845 1.438 . S
C844 H906 0.930 . S
C845 C831 1.497 . S
C845 C844 1.438 . S
C845 C846 1.360 . S
C846 C845 1.360 . S
C846 C847 1.401 . S
C846 C851 1.446 . S
C847 C846 1.401 . S
C847 C848 1.347 . S
C847 H907 0.929 . S
C848 C847 1.347 . S
C848 C849 1.455 . S
C848 H908 0.930 . S
C849 C836 1.412 . S
C849 C848 1.455 . S
C849 C850 1.331 . S
C850 C839 1.451 . S
C850 C849 1.331 . S
C850 C851 1.497 . S
C851 C842 1.395 . S
C851 C846 1.446 . S
C851 C850 1.497 . S
C852 C853 1.582 . S
C852 H909 0.962 . S
C852 H910 0.959 . S
C852 H911 0.958 . S
C853 C852 1.582 . S
C853 O856 1.458 . S
C853 H882 0.980 . S
O854 C799 1.426 . S
O854 C800 1.334 . S
O855 C827 1.412 . S
O855 C828 1.393 . S
O856 C818 1.435 . S
O856 C853 1.458 . S
O857 C809 1.468 . S
O857 C810 1.408 . S
H858 C799 0.980 . S
H859 C798 0.959 . S
H860 C798 0.959 . S
H861 C798 0.960 . S
H862 C801 0.929 . S
H863 C805 0.929 . S
H864 C806 0.959 . S
H865 C806 0.961 . S
H866 C806 0.961 . S
H867 C807 0.960 . S
H868 C807 0.960 . S
H869 C807 0.961 . S
H870 C809 0.980 . S
H871 C808 0.961 . S
H872 C808 0.960 . S
H873 C808 0.959 . S
H874 C811 0.930 . S
H875 C815 0.931 . S
H876 C816 0.959 . S
H877 C816 0.961 . S
H878 C816 0.959 . S
H879 C817 0.960 . S
H880 C817 0.960 . S
H881 C817 0.960 . S
H882 C853 0.980 . S
H883 C819 0.930 . S
H884 C823 0.930 . S
H885 C824 0.961 . S
H886 C824 0.960 . S
H887 C824 0.958 . S
H888 C825 0.961 . S
H889 C825 0.960 . S
H890 C825 0.960 . S
H891 C827 0.980 . S
H892 C826 0.961 . S
H893 C826 0.961 . S
H894 C826 0.959 . S
H895 C829 0.932 . S
H896 C833 0.929 . S
H897 C834 0.961 . S
H898 C834 0.959 . S
H899 C834 0.959 . S
H900 C835 0.960 . S
H901 C835 0.962 . S
H902 C835 0.961 . S
H903 C837 0.929 . S
H904 C840 0.930 . S
H905 C841 0.929 . S
H906 C844 0.930 . S
H907 C847 0.929 . S
H908 C848 0.930 . S
H909 C852 0.962 . S
H910 C852 0.959 . S
H911 C852 0.958 . S
C912 C913 1.443 . S
C912 N916 1.376 . S
C912 C950 1.389 . S
C913 C912 1.443 . S
C913 C914 1.340 . S
C913 H953 0.951 . S
C914 C913 1.340 . S
C914 C915 1.439 . S
C914 H954 0.950 . S
C915 C914 1.439 . S
C915 N916 1.374 . S
C915 C949 1.395 . S
N916 C912 1.376 . S
N916 C915 1.374 . S
N916 Co917 2.008 . S
Co917 N916 2.008 . S
Co917 N918 1.995 1_455 S
Co917 N923 2.008 1_455 S
Co917 N928 1.995 . S
Co917 N933 2.282 1_455 S
Co917 N939 2.282 . S
N918 Co917 1.995 1_655 S
N918 C919 1.376 . S
N918 C922 1.383 . S
C919 N918 1.376 . S
C919 C920 1.446 . S
C919 C949 1.391 1_655 S
C920 C919 1.446 . S
C920 C921 1.339 . S
C920 H955 0.949 . S
C921 C920 1.339 . S
C921 C922 1.439 . S
C921 H956 0.950 . S
C922 N918 1.383 . S
C922 C921 1.439 . S
C922 C951 1.392 . S
N923 Co917 2.008 1_655 S
N923 C924 1.376 . S
N923 C927 1.374 . S
C924 N923 1.376 . S
C924 C925 1.443 . S
C924 C951 1.389 . S
C925 C924 1.443 . S
C925 C926 1.340 . S
C925 H957 0.951 . S
C926 C925 1.340 . S
C926 C927 1.439 . S
C926 H958 0.950 . S
C927 N923 1.374 . S
C927 C926 1.439 . S
C927 C952 1.395 1_655 S
N928 Co917 1.995 . S
N928 C929 1.376 . S
N928 C932 1.383 . S
C929 N928 1.376 . S
C929 C930 1.446 . S
C929 C952 1.391 . S
C930 C929 1.446 . S
C930 C931 1.339 . S
C930 H959 0.949 . S
C931 C930 1.339 . S
C931 C932 1.439 . S
C931 H960 0.950 . S
C932 N928 1.383 . S
C932 C931 1.439 . S
C932 C950 1.392 . S
N933 Co917 2.282 1_655 S
N933 C936 1.332 . S
N933 C938 1.332 . S
C934 C935 1.386 . S
C934 C937 1.388 . S
C935 C934 1.386 . S
C935 C936 1.382 . S
C935 H961 0.950 . S
C936 N933 1.332 . S
C936 C935 1.382 . S
C936 H947 0.952 . S
C937 C934 1.388 . S
C937 C938 1.382 . S
C937 H962 0.950 . S
C938 N933 1.332 . S
C938 C937 1.382 . S
C938 H948 0.948 . S
N939 Co917 2.282 . S
N939 C943 1.332 . S
N939 C944 1.332 . S
C940 C941 1.388 . S
C940 C944 1.382 . S
C940 H963 0.950 . S
C941 C940 1.388 . S
C941 C942 1.386 . S
C942 C941 1.386 . S
C942 C943 1.382 . S
C942 H964 0.950 . S
C943 N939 1.332 . S
C943 C942 1.382 . S
C943 H945 0.952 . S
C944 N939 1.332 . S
C944 C940 1.382 . S
C944 H946 0.948 . S
H945 C943 0.952 . S
H946 C944 0.948 . S
H947 C936 0.952 . S
H948 C938 0.948 . S
C949 C915 1.395 . S
C949 C919 1.391 1_455 S
C950 C912 1.389 . S
C950 C932 1.392 . S
C951 C922 1.392 . S
C951 C924 1.389 . S
C952 C927 1.395 1_455 S
C952 C929 1.391 . S
H953 C913 0.951 . S
H954 C914 0.950 . S
H955 C920 0.949 . S
H956 C921 0.950 . S
H957 C925 0.951 . S
H958 C926 0.950 . S
H959 C930 0.949 . S
H960 C931 0.950 . S
H961 C935 0.950 . S
H962 C937 0.950 . S
H963 C940 0.950 . S
H964 C942 0.950 . S
C965 C966 1.443 . S
C965 N969 1.376 . S
C965 C1003 1.389 . S
C966 C965 1.443 . S
C966 C967 1.340 . S
C966 H1006 0.951 . S
C967 C966 1.340 . S
C967 C968 1.439 . S
C967 H1007 0.950 . S
C968 C967 1.439 . S
C968 N969 1.374 . S
C968 C1002 1.395 . S
N969 C965 1.376 . S
N969 C968 1.374 . S
N969 Co970 2.008 . S
Co970 N969 2.008 . S
Co970 N971 1.995 1_545 S
Co970 N976 2.008 1_545 S
Co970 N981 1.995 . S
Co970 N986 2.282 1_545 S
Co970 N992 2.282 . S
N971 Co970 1.995 1_565 S
N971 C972 1.376 . S
N971 C975 1.383 . S
C972 N971 1.376 . S
C972 C973 1.446 . S
C972 C1002 1.391 1_565 S
C973 C972 1.446 . S
C973 C974 1.339 . S
C973 H1008 0.949 . S
C974 C973 1.339 . S
C974 C975 1.439 . S
C974 H1009 0.950 . S
C975 N971 1.383 . S
C975 C974 1.439 . S
C975 C1004 1.392 . S
N976 Co970 2.008 1_565 S
N976 C977 1.376 . S
N976 C980 1.374 . S
C977 N976 1.376 . S
C977 C978 1.443 . S
C977 C1004 1.389 . S
C978 C977 1.443 . S
C978 C979 1.340 . S
C978 H1010 0.951 . S
C979 C978 1.340 . S
C979 C980 1.439 . S
C979 H1011 0.950 . S
C980 N976 1.374 . S
C980 C979 1.439 . S
C980 C1005 1.395 1_565 S
N981 Co970 1.995 . S
N981 C982 1.376 . S
N981 C985 1.383 . S
C982 N981 1.376 . S
C982 C983 1.446 . S
C982 C1005 1.391 . S
C983 C982 1.446 . S
C983 C984 1.339 . S
C983 H1012 0.949 . S
C984 C983 1.339 . S
C984 C985 1.439 . S
C984 H1013 0.950 . S
C985 N981 1.383 . S
C985 C984 1.439 . S
C985 C1003 1.392 . S
N986 Co970 2.282 1_565 S
N986 C989 1.332 . S
N986 C991 1.332 . S
C987 C988 1.386 . S
C987 C990 1.388 . S
C988 C987 1.386 . S
C988 C989 1.382 . S
C988 H1014 0.950 . S
C989 N986 1.332 . S
C989 C988 1.382 . S
C989 H1000 0.952 . S
C990 C987 1.388 . S
C990 C991 1.382 . S
C990 H1015 0.950 . S
C991 N986 1.332 . S
C991 C990 1.382 . S
C991 H1001 0.948 . S
N992 Co970 2.282 . S
N992 C996 1.332 . S
N992 C997 1.332 . S
C993 C994 1.388 . S
C993 C997 1.382 . S
C993 H1016 0.950 . S
C994 C993 1.388 . S
C994 C995 1.386 . S
C995 C994 1.386 . S
C995 C996 1.382 . S
C995 H1017 0.950 . S
C996 N992 1.332 . S
C996 C995 1.382 . S
C996 H998 0.952 . S
C997 N992 1.332 . S
C997 C993 1.382 . S
C997 H999 0.948 . S
H998 C996 0.952 . S
H999 C997 0.948 . S
H1000 C989 0.952 . S
H1001 C991 0.948 . S
C1002 C968 1.395 . S
C1002 C972 1.391 1_545 S
C1003 C965 1.389 . S
C1003 C985 1.392 . S
C1004 C975 1.392 . S
C1004 C977 1.389 . S
C1005 C980 1.395 1_545 S
C1005 C982 1.391 . S
H1006 C966 0.951 . S
H1007 C967 0.950 . S
H1008 C973 0.949 . S
H1009 C974 0.950 . S
H1010 C978 0.951 . S
H1011 C979 0.950 . S
H1012 C983 0.949 . S
H1013 C984 0.950 . S
H1014 C988 0.950 . S
H1015 C990 0.950 . S
H1016 C993 0.950 . S
H1017 C995 0.950 . S
C1018 C1019 1.443 . S
C1018 N1022 1.376 . S
C1018 C1056 1.389 . S
C1019 C1018 1.443 . S
C1019 C1020 1.340 . S
C1019 H1059 0.951 . S
C1020 C1019 1.340 . S
C1020 C1021 1.439 . S
C1020 H1060 0.950 . S
C1021 C1020 1.439 . S
C1021 N1022 1.374 . S
C1021 C1055 1.395 . S
N1022 C1018 1.376 . S
N1022 C1021 1.374 . S
N1022 Co1023 2.008 . S
Co1023 N1022 2.008 . S
Co1023 N1024 1.995 1_455 S
Co1023 N1029 2.008 1_455 S
Co1023 N1034 1.995 . S
Co1023 N1039 2.282 1_455 S
Co1023 N1045 2.282 . S
N1024 Co1023 1.995 1_655 S
N1024 C1025 1.376 . S
N1024 C1028 1.383 . S
C1025 N1024 1.376 . S
C1025 C1026 1.446 . S
C1025 C1055 1.391 1_655 S
C1026 C1025 1.446 . S
C1026 C1027 1.339 . S
C1026 H1061 0.949 . S
C1027 C1026 1.339 . S
C1027 C1028 1.439 . S
C1027 H1062 0.950 . S
C1028 N1024 1.383 . S
C1028 C1027 1.439 . S
C1028 C1057 1.392 . S
N1029 Co1023 2.008 1_655 S
N1029 C1030 1.376 . S
N1029 C1033 1.374 . S
C1030 N1029 1.376 . S
C1030 C1031 1.443 . S
C1030 C1057 1.389 . S
C1031 C1030 1.443 . S
C1031 C1032 1.340 . S
C1031 H1063 0.951 . S
C1032 C1031 1.340 . S
C1032 C1033 1.439 . S
C1032 H1064 0.950 . S
C1033 N1029 1.374 . S
C1033 C1032 1.439 . S
C1033 C1058 1.358 1_655 S
N1034 Co1023 1.995 . S
N1034 C1035 1.376 . S
N1034 C1038 1.383 . S
C1035 N1034 1.376 . S
C1035 C1036 1.446 . S
C1035 C1058 1.432 . S
C1036 C1035 1.446 . S
C1036 C1037 1.339 . S
C1036 H1065 0.949 . S
C1037 C1036 1.339 . S
C1037 C1038 1.439 . S
C1037 H1066 0.950 . S
C1038 N1034 1.383 . S
C1038 C1037 1.439 . S
C1038 C1056 1.392 . S
N1039 Co1023 2.282 1_655 S
N1039 C1042 1.332 . S
N1039 C1044 1.332 . S
C1040 C1041 1.386 . S
C1040 C1043 1.388 . S
C1041 C1040 1.386 . S
C1041 C1042 1.382 . S
C1041 H1067 0.950 . S
C1042 N1039 1.332 . S
C1042 C1041 1.382 . S
C1042 H1053 0.952 . S
C1043 C1040 1.388 . S
C1043 C1044 1.382 . S
C1043 H1068 0.950 . S
C1044 N1039 1.332 . S
C1044 C1043 1.382 . S
C1044 H1054 0.948 . S
N1045 Co1023 2.282 . S
N1045 C1049 1.332 . S
N1045 C1050 1.332 . S
C1046 C1047 1.388 . S
C1046 C1050 1.382 . S
C1046 H1069 0.950 . S
C1047 C1046 1.388 . S
C1047 C1048 1.386 . S
C1048 C1047 1.386 . S
C1048 C1049 1.382 . S
C1048 H1070 0.950 . S
C1049 N1045 1.332 . S
C1049 C1048 1.382 . S
C1049 H1051 0.952 . S
C1050 N1045 1.332 . S
C1050 C1046 1.382 . S
C1050 H1052 0.948 . S
H1051 C1049 0.952 . S
H1052 C1050 0.948 . S
H1053 C1042 0.952 . S
H1054 C1044 0.948 . S
C1055 C1021 1.395 . S
C1055 C1025 1.391 1_455 S
C1056 C1018 1.389 . S
C1056 C1038 1.392 . S
C1057 C1028 1.392 . S
C1057 C1030 1.389 . S
C1058 C1033 1.358 1_455 S
C1058 C1035 1.432 . S
H1059 C1019 0.951 . S
H1060 C1020 0.950 . S
H1061 C1026 0.949 . S
H1062 C1027 0.950 . S
H1063 C1031 0.951 . S
H1064 C1032 0.950 . S
H1065 C1036 0.949 . S
H1066 C1037 0.950 . S
H1067 C1041 0.950 . S
H1068 C1043 0.950 . S
H1069 C1046 0.950 . S
H1070 C1048 0.950 . S
C1071 C1072 1.443 . S
C1071 N1075 1.376 . S
C1071 C1109 1.389 . S
C1072 C1071 1.443 . S
C1072 C1073 1.340 . S
C1072 H1112 0.951 . S
C1073 C1072 1.340 . S
C1073 C1074 1.439 . S
C1073 H1113 0.950 . S
C1074 C1073 1.439 . S
C1074 N1075 1.374 . S
C1074 C1108 1.395 1_565 S
N1075 C1071 1.376 . S
N1075 C1074 1.374 . S
N1075 Co1076 2.008 1_565 S
Co1076 N1075 2.008 1_545 S
Co1076 N1077 1.995 . S
Co1076 N1082 2.008 . S
Co1076 N1087 1.995 1_545 S
Co1076 N1092 2.282 . S
Co1076 N1098 2.282 1_545 S
N1077 Co1076 1.995 . S
N1077 C1078 1.376 . S
N1077 C1081 1.383 . S
C1078 N1077 1.376 . S
C1078 C1079 1.446 . S
C1078 C1108 1.391 . S
C1079 C1078 1.446 . S
C1079 C1080 1.339 . S
C1079 H1114 0.949 . S
C1080 C1079 1.339 . S
C1080 C1081 1.439 . S
C1080 H1115 0.950 . S
C1081 N1077 1.383 . S
C1081 C1080 1.439 . S
C1081 C1110 1.392 . S
N1082 Co1076 2.008 . S
N1082 C1083 1.376 . S
N1082 C1086 1.374 . S
C1083 N1082 1.376 . S
C1083 C1084 1.443 . S
C1083 C1110 1.389 . S
C1084 C1083 1.443 . S
C1084 C1085 1.340 . S
C1084 H1116 0.951 . S
C1085 C1084 1.340 . S
C1085 C1086 1.439 . S
C1085 H1117 0.950 . S
C1086 N1082 1.374 . S
C1086 C1085 1.439 . S
C1086 C1111 1.395 . S
N1087 Co1076 1.995 1_565 S
N1087 C1088 1.376 . S
N1087 C1091 1.383 . S
C1088 N1087 1.376 . S
C1088 C1089 1.446 . S
C1088 C1111 1.391 1_565 S
C1089 C1088 1.446 . S
C1089 C1090 1.339 . S
C1089 H1118 0.949 . S
C1090 C1089 1.339 . S
C1090 C1091 1.439 . S
C1090 H1119 0.950 . S
C1091 N1087 1.383 . S
C1091 C1090 1.439 . S
C1091 C1109 1.392 . S
N1092 Co1076 2.282 . S
N1092 C1095 1.332 . S
N1092 C1097 1.332 . S
C1093 C1094 1.386 . S
C1093 C1096 1.388 . S
C1094 C1093 1.386 . S
C1094 C1095 1.382 . S
C1094 H1120 0.950 . S
C1095 N1092 1.332 . S
C1095 C1094 1.382 . S
C1095 H1106 0.952 . S
C1096 C1093 1.388 . S
C1096 C1097 1.382 . S
C1096 H1121 0.950 . S
C1097 N1092 1.332 . S
C1097 C1096 1.382 . S
C1097 H1107 0.948 . S
N1098 Co1076 2.282 1_565 S
N1098 C1102 1.332 . S
N1098 C1103 1.332 . S
C1099 C1100 1.388 . S
C1099 C1103 1.382 . S
C1099 H1122 0.950 . S
C1100 C1099 1.388 . S
C1100 C1101 1.386 . S
C1101 C1100 1.386 . S
C1101 C1102 1.382 . S
C1101 H1123 0.950 . S
C1102 N1098 1.332 . S
C1102 C1101 1.382 . S
C1102 H1104 0.952 . S
C1103 N1098 1.332 . S
C1103 C1099 1.382 . S
C1103 H1105 0.948 . S
H1104 C1102 0.952 . S
H1105 C1103 0.948 . S
H1106 C1095 0.952 . S
H1107 C1097 0.948 . S
C1108 C1074 1.395 1_545 S
C1108 C1078 1.391 . S
C1109 C1071 1.389 . S
C1109 C1091 1.392 . S
C1110 C1081 1.392 . S
C1110 C1083 1.389 . S
C1111 C1086 1.395 . S
C1111 C1088 1.391 1_545 S
H1112 C1072 0.951 . S
H1113 C1073 0.950 . S
H1114 C1079 0.949 . S
H1115 C1080 0.950 . S
H1116 C1084 0.951 . S
H1117 C1085 0.950 . S
H1118 C1089 0.949 . S
H1119 C1090 0.950 . S
H1120 C1094 0.950 . S
H1121 C1096 0.950 . S
H1122 C1099 0.950 . S
H1123 C1101 0.950 . S
C1124 C1125 1.443 . S
C1124 N1128 1.376 . S
C1124 C1162 1.389 . S
C1125 C1124 1.443 . S
C1125 C1126 1.340 . S
C1125 H1165 0.951 . S
C1126 C1125 1.340 . S
C1126 C1127 1.439 . S
C1126 H1166 0.950 . S
C1127 C1126 1.439 . S
C1127 N1128 1.374 . S
C1127 C1161 1.368 1_554 S
N1128 C1124 1.376 . S
N1128 C1127 1.374 . S
N1128 Co1129 2.020 . S
Co1129 N1128 2.020 . S
Co1129 N1130 1.980 1_554 S
Co1129 N1135 1.996 1_554 S
Co1129 N1140 2.009 . S
Co1129 N1145 2.302 . S
Co1129 N1151 2.263 1_554 S
N1130 Co1129 1.980 1_556 S
N1130 C1131 1.376 . S
N1130 C1134 1.383 . S
C1131 N1130 1.376 . S
C1131 C1132 1.446 . S
C1131 C1161 1.416 . S
C1132 C1131 1.446 . S
C1132 C1133 1.339 . S
C1132 H1167 0.949 . S
C1133 C1132 1.339 . S
C1133 C1134 1.439 . S
C1133 H1168 0.950 . S
C1134 N1130 1.383 . S
C1134 C1133 1.439 . S
C1134 C1163 1.392 . S
N1135 Co1129 1.996 1_556 S
N1135 C1136 1.376 . S
N1135 C1139 1.374 . S
C1136 N1135 1.376 . S
C1136 C1137 1.443 . S
C1136 C1163 1.389 . S
C1137 C1136 1.443 . S
C1137 C1138 1.340 . S
C1137 H1169 0.951 . S
C1138 C1137 1.340 . S
C1138 C1139 1.439 . S
C1138 H1170 0.950 . S
C1139 N1135 1.374 . S
C1139 C1138 1.439 . S
C1139 C1164 1.395 1_556 S
N1140 Co1129 2.009 . S
N1140 C1141 1.376 . S
N1140 C1144 1.383 . S
C1141 N1140 1.376 . S
C1141 C1142 1.446 . S
C1141 C1164 1.391 . S
C1142 C1141 1.446 . S
C1142 C1143 1.339 . S
C1142 H1171 0.949 . S
C1143 C1142 1.339 . S
C1143 C1144 1.439 . S
C1143 H1172 0.950 . S
C1144 N1140 1.383 . S
C1144 C1143 1.439 . S
C1144 C1162 1.392 . S
N1145 Co1129 2.302 . S
N1145 C1148 1.332 . S
N1145 C1150 1.332 . S
C1146 C1147 1.386 . S
C1146 C1149 1.388 . S
C1147 C1146 1.386 . S
C1147 C1148 1.382 . S
C1147 H1173 0.950 . S
C1148 N1145 1.332 . S
C1148 C1147 1.382 . S
C1148 H1159 0.952 . S
C1149 C1146 1.388 . S
C1149 C1150 1.382 . S
C1149 H1174 0.950 . S
C1150 N1145 1.332 . S
C1150 C1149 1.382 . S
C1150 H1160 0.948 . S
N1151 Co1129 2.263 1_556 S
N1151 C1155 1.332 . S
N1151 C1156 1.332 . S
C1152 C1153 1.388 . S
C1152 C1156 1.382 . S
C1152 H1175 0.950 . S
C1153 C1152 1.388 . S
C1153 C1154 1.386 . S
C1154 C1153 1.386 . S
C1154 C1155 1.382 . S
C1154 H1176 0.950 . S
C1155 N1151 1.332 . S
C1155 C1154 1.382 . S
C1155 H1157 0.952 . S
C1156 N1151 1.332 . S
C1156 C1152 1.382 . S
C1156 H1158 0.948 . S
H1157 C1155 0.952 . S
H1158 C1156 0.948 . S
H1159 C1148 0.952 . S
H1160 C1150 0.948 . S
C1161 C1127 1.368 1_556 S
C1161 C1131 1.416 . S
C1162 C1124 1.389 . S
C1162 C1144 1.392 . S
C1163 C1134 1.392 . S
C1163 C1136 1.389 . S
C1164 C1139 1.395 1_554 S
C1164 C1141 1.391 . S
H1165 C1125 0.951 . S
H1166 C1126 0.950 . S
H1167 C1132 0.949 . S
H1168 C1133 0.950 . S
H1169 C1137 0.951 . S
H1170 C1138 0.950 . S
H1171 C1142 0.949 . S
H1172 C1143 0.950 . S
H1173 C1147 0.950 . S
H1174 C1149 0.950 . S
H1175 C1152 0.950 . S
H1176 C1154 0.950 . S
C1177 C1178 1.443 . S
C1177 N1181 1.376 . S
C1177 C1215 1.389 . S
C1178 C1177 1.443 . S
C1178 C1179 1.340 . S
C1178 H1218 0.951 . S
C1179 C1178 1.340 . S
C1179 C1180 1.439 . S
C1179 H1219 0.950 . S
C1180 C1179 1.439 . S
C1180 N1181 1.374 . S
C1180 C1214 1.395 . S
N1181 C1177 1.376 . S
N1181 C1180 1.374 . S
N1181 Co1182 2.008 . S
Co1182 N1181 2.008 . S
Co1182 N1183 1.995 1_554 S
Co1182 N1188 2.023 . S
Co1182 N1193 1.995 . S
Co1182 N1198 2.282 . S
Co1182 N1204 2.282 1_554 S
N1183 Co1182 1.995 1_556 S
N1183 C1184 1.376 . S
N1183 C1187 1.383 . S
C1184 N1183 1.376 . S
C1184 C1185 1.446 . S
C1184 C1214 1.391 1_556 S
C1185 C1184 1.446 . S
C1185 C1186 1.339 . S
C1185 H1220 0.949 . S
C1186 C1185 1.339 . S
C1186 C1187 1.439 . S
C1186 H1221 0.950 . S
C1187 N1183 1.383 . S
C1187 C1186 1.439 . S
C1187 C1216 1.392 . S
N1188 Co1182 2.023 . S
N1188 C1189 1.357 1_554 S
N1188 C1192 1.381 . S
C1189 N1188 1.357 1_556 S
C1189 C1190 1.443 . S
C1189 C1216 1.389 . S
C1190 C1189 1.443 . S
C1190 C1191 1.340 . S
C1190 H1222 0.951 . S
C1191 C1190 1.340 . S
C1191 C1192 1.439 1_556 S
C1191 H1223 0.950 . S
C1192 N1188 1.381 . S
C1192 C1191 1.439 1_554 S
C1192 C1217 1.395 . S
N1193 Co1182 1.995 . S
N1193 C1194 1.376 . S
N1193 C1197 1.383 . S
C1194 N1193 1.376 . S
C1194 C1195 1.446 . S
C1194 C1217 1.391 . S
C1195 C1194 1.446 . S
C1195 C1196 1.339 . S
C1195 H1224 0.949 . S
C1196 C1195 1.339 . S
C1196 C1197 1.439 . S
C1196 H1225 0.950 . S
C1197 N1193 1.383 . S
C1197 C1196 1.439 . S
C1197 C1215 1.392 . S
N1198 Co1182 2.282 . S
N1198 C1201 1.332 . S
N1198 C1203 1.332 . S
C1199 C1200 1.386 . S
C1199 C1202 1.388 . S
C1200 C1199 1.386 . S
C1200 C1201 1.382 . S
C1200 H1226 0.950 . S
C1201 N1198 1.332 . S
C1201 C1200 1.382 . S
C1201 H1212 0.952 . S
C1202 C1199 1.388 . S
C1202 C1203 1.382 . S
C1202 H1227 0.950 . S
C1203 N1198 1.332 . S
C1203 C1202 1.382 . S
C1203 H1213 0.948 . S
N1204 Co1182 2.282 1_556 S
N1204 C1208 1.332 . S
N1204 C1209 1.332 . S
C1205 C1206 1.388 . S
C1205 C1209 1.382 . S
C1205 H1228 0.950 . S
C1206 C1205 1.388 . S
C1206 C1207 1.386 . S
C1207 C1206 1.386 . S
C1207 C1208 1.382 . S
C1207 H1229 0.950 . S
C1208 N1204 1.332 . S
C1208 C1207 1.382 . S
C1208 H1210 0.952 . S
C1209 N1204 1.332 . S
C1209 C1205 1.382 . S
C1209 H1211 0.948 . S
H1210 C1208 0.952 . S
H1211 C1209 0.948 . S
H1212 C1201 0.952 . S
H1213 C1203 0.948 . S
C1214 C1180 1.395 . S
C1214 C1184 1.391 1_554 S
C1215 C1177 1.389 . S
C1215 C1197 1.392 . S
C1216 C1187 1.392 . S
C1216 C1189 1.389 . S
C1217 C1192 1.395 . S
C1217 C1194 1.391 . S
H1218 C1178 0.951 . S
H1219 C1179 0.950 . S
H1220 C1185 0.949 . S
H1221 C1186 0.950 . S
H1222 C1190 0.951 . S
H1223 C1191 0.950 . S
H1224 C1195 0.949 . S
H1225 C1196 0.950 . S
H1226 C1200 0.950 . S
H1227 C1202 0.950 . S
H1228 C1205 0.950 . S
H1229 C1207 0.950 . S
C1230 C1231 1.443 . S
C1230 N1234 1.367 1_556 S
C1230 C1268 1.389 . S
C1231 C1230 1.443 . S
C1231 C1232 1.340 . S
C1231 H1271 0.951 . S
C1232 C1231 1.340 . S
C1232 C1233 1.439 1_556 S
C1232 H1272 0.950 . S
C1233 C1232 1.439 1_554 S
C1233 N1234 1.378 . S
C1233 C1267 1.395 . S
N1234 C1230 1.367 1_554 S
N1234 C1233 1.378 . S
N1234 Co1235 2.015 . S
Co1235 N1234 2.015 . S
Co1235 N1236 1.995 . S
Co1235 N1241 2.008 . S
Co1235 N1246 1.995 1_554 S
Co1235 N1251 2.282 1_554 S
Co1235 N1257 2.282 . S
N1236 Co1235 1.995 . S
N1236 C1237 1.376 . S
N1236 C1240 1.383 . S
C1237 N1236 1.376 . S
C1237 C1238 1.446 . S
C1237 C1267 1.391 . S
C1238 C1237 1.446 . S
C1238 C1239 1.339 . S
C1238 H1273 0.949 . S
C1239 C1238 1.339 . S
C1239 C1240 1.439 . S
C1239 H1274 0.950 . S
C1240 N1236 1.383 . S
C1240 C1239 1.439 . S
C1240 C1269 1.392 . S
N1241 Co1235 2.008 . S
N1241 C1242 1.376 . S
N1241 C1245 1.374 . S
C1242 N1241 1.376 . S
C1242 C1243 1.443 . S
C1242 C1269 1.389 . S
C1243 C1242 1.443 . S
C1243 C1244 1.340 . S
C1243 H1275 0.951 . S
C1244 C1243 1.340 . S
C1244 C1245 1.439 . S
C1244 H1276 0.950 . S
C1245 N1241 1.374 . S
C1245 C1244 1.439 . S
C1245 C1270 1.395 . S
N1246 Co1235 1.995 1_556 S
N1246 C1247 1.376 . S
N1246 C1250 1.383 . S
C1247 N1246 1.376 . S
C1247 C1248 1.446 . S
C1247 C1270 1.391 1_556 S
C1248 C1247 1.446 . S
C1248 C1249 1.339 . S
C1248 H1277 0.949 . S
C1249 C1248 1.339 . S
C1249 C1250 1.439 . S
C1249 H1278 0.950 . S
C1250 N1246 1.383 . S
C1250 C1249 1.439 . S
C1250 C1268 1.392 . S
N1251 Co1235 2.282 1_556 S
N1251 C1254 1.332 . S
N1251 C1256 1.332 . S
C1252 C1253 1.386 . S
C1252 C1255 1.388 . S
C1253 C1252 1.386 . S
C1253 C1254 1.382 . S
C1253 H1279 0.950 . S
C1254 N1251 1.332 . S
C1254 C1253 1.382 . S
C1254 H1265 0.952 . S
C1255 C1252 1.388 . S
C1255 C1256 1.382 . S
C1255 H1280 0.950 . S
C1256 N1251 1.332 . S
C1256 C1255 1.382 . S
C1256 H1266 0.948 . S
N1257 Co1235 2.282 . S
N1257 C1261 1.332 . S
N1257 C1262 1.332 . S
C1258 C1259 1.388 . S
C1258 C1262 1.382 . S
C1258 H1281 0.950 . S
C1259 C1258 1.388 . S
C1259 C1260 1.386 . S
C1260 C1259 1.386 . S
C1260 C1261 1.382 . S
C1260 H1282 0.950 . S
C1261 N1257 1.332 . S
C1261 C1260 1.382 . S
C1261 H1263 0.952 . S
C1262 N1257 1.332 . S
C1262 C1258 1.382 . S
C1262 H1264 0.948 . S
H1263 C1261 0.952 . S
H1264 C1262 0.948 . S
H1265 C1254 0.952 . S
H1266 C1256 0.948 . S
C1267 C1233 1.395 . S
C1267 C1237 1.391 . S
C1268 C1230 1.389 . S
C1268 C1250 1.392 . S
C1269 C1240 1.392 . S
C1269 C1242 1.389 . S
C1270 C1245 1.395 . S
C1270 C1247 1.391 1_554 S
H1271 C1231 0.951 . S
H1272 C1232 0.950 . S
H1273 C1238 0.949 . S
H1274 C1239 0.950 . S
H1275 C1243 0.951 . S
H1276 C1244 0.950 . S
H1277 C1248 0.949 . S
H1278 C1249 0.950 . S
H1279 C1253 0.950 . S
H1280 C1255 0.950 . S
H1281 C1258 0.950 . S
H1282 C1260 0.950 . S
C1283 C1284 1.443 . S
C1283 N1287 1.376 . S
C1283 C1321 1.389 . S
C1284 C1283 1.443 . S
C1284 C1285 1.340 . S
C1284 H1324 0.951 . S
C1285 C1284 1.340 . S
C1285 C1286 1.439 . S
C1285 H1325 0.950 . S
C1286 C1285 1.439 . S
C1286 N1287 1.374 . S
C1286 C1320 1.395 . S
N1287 C1283 1.376 . S
N1287 C1286 1.374 . S
N1287 Co1288 2.008 . S
Co1288 N1287 2.008 . S
Co1288 N1289 1.995 1_554 S
Co1288 N1294 2.008 . S
Co1288 N1299 1.995 . S
Co1288 N1304 2.282 . S
Co1288 N1310 2.282 1_554 S
N1289 Co1288 1.995 1_556 S
N1289 C1290 1.376 . S
N1289 C1293 1.383 . S
C1290 N1289 1.376 . S
C1290 C1291 1.446 . S
C1290 C1320 1.391 1_556 S
C1291 C1290 1.446 . S
C1291 C1292 1.339 . S
C1291 H1326 0.949 . S
C1292 C1291 1.339 . S
C1292 C1293 1.439 . S
C1292 H1327 0.950 . S
C1293 N1289 1.383 . S
C1293 C1292 1.439 . S
C1293 C1322 1.392 . S
N1294 Co1288 2.008 . S
N1294 C1295 1.376 1_554 S
N1294 C1298 1.374 . S
C1295 N1294 1.376 1_556 S
C1295 C1296 1.443 . S
C1295 C1322 1.389 . S
C1296 C1295 1.443 . S
C1296 C1297 1.340 . S
C1296 H1328 0.951 . S
C1297 C1296 1.340 . S
C1297 C1298 1.439 1_556 S
C1297 H1329 0.950 . S
C1298 N1294 1.374 . S
C1298 C1297 1.439 1_554 S
C1298 C1323 1.395 . S
N1299 Co1288 1.995 . S
N1299 C1300 1.376 . S
N1299 C1303 1.383 . S
C1300 N1299 1.376 . S
C1300 C1301 1.446 . S
C1300 C1323 1.391 . S
C1301 C1300 1.446 . S
C1301 C1302 1.339 . S
C1301 H1330 0.949 . S
C1302 C1301 1.339 . S
C1302 C1303 1.439 . S
C1302 H1331 0.950 . S
C1303 N1299 1.383 . S
C1303 C1302 1.439 . S
C1303 C1321 1.392 . S
N1304 Co1288 2.282 . S
N1304 C1307 1.332 . S
N1304 C1309 1.332 . S
C1305 C1306 1.386 . S
C1305 C1308 1.388 . S
C1306 C1305 1.386 . S
C1306 C1307 1.382 . S
C1306 H1332 0.950 . S
C1307 N1304 1.332 . S
C1307 C1306 1.382 . S
C1307 H1318 0.952 . S
C1308 C1305 1.388 . S
C1308 C1309 1.382 . S
C1308 H1333 0.950 . S
C1309 N1304 1.332 . S
C1309 C1308 1.382 . S
C1309 H1319 0.948 . S
N1310 Co1288 2.282 1_556 S
N1310 C1314 1.332 . S
N1310 C1315 1.332 . S
C1311 C1312 1.388 . S
C1311 C1315 1.382 . S
C1311 H1334 0.950 . S
C1312 C1311 1.388 . S
C1312 C1313 1.386 . S
C1313 C1312 1.386 . S
C1313 C1314 1.382 . S
C1313 H1335 0.950 . S
C1314 N1310 1.332 . S
C1314 C1313 1.382 . S
C1314 H1316 0.952 . S
C1315 N1310 1.332 . S
C1315 C1311 1.382 . S
C1315 H1317 0.948 . S
H1316 C1314 0.952 . S
H1317 C1315 0.948 . S
H1318 C1307 0.952 . S
H1319 C1309 0.948 . S
C1320 C1286 1.395 . S
C1320 C1290 1.391 1_554 S
C1321 C1283 1.389 . S
C1321 C1303 1.392 . S
C1322 C1293 1.392 . S
C1322 C1295 1.389 . S
C1323 C1298 1.395 . S
C1323 C1300 1.391 . S
H1324 C1284 0.951 . S
H1325 C1285 0.950 . S
H1326 C1291 0.949 . S
H1327 C1292 0.950 . S
H1328 C1296 0.951 . S
H1329 C1297 0.950 . S
H1330 C1301 0.949 . S
H1331 C1302 0.950 . S
H1332 C1306 0.950 . S
H1333 C1308 0.950 . S
H1334 C1311 0.950 . S
H1335 C1313 0.950 . S
H1336 C1344 0.950 . S
H1337 C1349 0.950 . S
H1338 C1346 0.950 . S
H1339 C1348 0.950 . S
H1340 C1350 0.950 . S
H1341 C1352 0.950 . S
H1342 C1354 0.950 . S
H1343 C1355 0.950 . S
C1344 H1336 0.950 . S
C1344 C1345 1.386 . S
C1344 C1346 1.391 . S
C1345 C1344 1.386 . S
C1345 C1349 1.393 . S
C1346 H1338 0.950 . S
C1346 C1344 1.391 . S
C1346 C1347 1.400 . S
C1347 C1346 1.400 . S
C1347 C1348 1.398 . S
C1347 C1353 1.491 . S
C1348 H1339 0.950 . S
C1348 C1347 1.398 . S
C1348 C1349 1.391 . S
C1349 H1337 0.950 . S
C1349 C1345 1.393 . S
C1349 C1348 1.391 . S
C1350 H1340 0.950 . S
C1350 C1351 1.386 . S
C1350 C1352 1.391 . S
C1351 C1350 1.386 . S
C1351 C1355 1.393 . S
C1352 H1341 0.950 . S
C1352 C1350 1.391 . S
C1352 C1353 1.400 . S
C1353 C1347 1.491 . S
C1353 C1352 1.400 . S
C1353 C1354 1.398 . S
C1354 H1342 0.950 . S
C1354 C1353 1.398 . S
C1354 C1355 1.391 . S
C1355 H1343 0.950 . S
C1355 C1351 1.393 . S
C1355 C1354 1.391 . S
H1356 C1364 0.950 . S
H1357 C1369 0.950 . S
H1358 C1366 0.950 . S
H1359 C1368 0.950 . S
H1360 C1370 0.950 . S
H1361 C1372 0.950 . S
H1362 C1374 0.950 . S
H1363 C1375 0.950 . S
C1364 H1356 0.950 . S
C1364 C1365 1.386 . S
C1364 C1366 1.391 . S
C1365 C1364 1.386 . S
C1365 C1369 1.393 . S
C1366 H1358 0.950 . S
C1366 C1364 1.391 . S
C1366 C1367 1.400 . S
C1367 C1366 1.400 . S
C1367 C1368 1.398 . S
C1367 C1373 1.491 . S
C1368 H1359 0.950 . S
C1368 C1367 1.398 . S
C1368 C1369 1.391 . S
C1369 H1357 0.950 . S
C1369 C1365 1.393 . S
C1369 C1368 1.391 . S
C1370 H1360 0.950 . S
C1370 C1371 1.386 . S
C1370 C1372 1.391 . S
C1371 C1370 1.386 . S
C1371 C1375 1.393 . S
C1372 H1361 0.950 . S
C1372 C1370 1.391 . S
C1372 C1373 1.400 . S
C1373 C1367 1.491 . S
C1373 C1372 1.400 . S
C1373 C1374 1.398 . S
C1374 H1362 0.950 . S
C1374 C1373 1.398 . S
C1374 C1375 1.391 . S
C1375 H1363 0.950 . S
C1375 C1371 1.393 . S
C1375 C1374 1.391 . S
H1376 C1384 0.950 . S
H1377 C1389 0.950 . S
H1378 C1386 0.950 . S
H1379 C1388 0.950 . S
H1380 C1390 0.950 . S
H1381 C1392 0.950 . S
H1382 C1394 0.950 . S
H1383 C1395 0.950 . S
C1384 H1376 0.950 . S
C1384 C1385 1.386 . S
C1384 C1386 1.391 . S
C1385 C1384 1.386 . S
C1385 C1389 1.393 . S
C1386 H1378 0.950 . S
C1386 C1384 1.391 . S
C1386 C1387 1.400 . S
C1387 C1386 1.400 . S
C1387 C1388 1.398 . S
C1387 C1393 1.491 . S
C1388 H1379 0.950 . S
C1388 C1387 1.398 . S
C1388 C1389 1.391 . S
C1389 H1377 0.950 . S
C1389 C1385 1.393 . S
C1389 C1388 1.391 . S
C1390 H1380 0.950 . S
C1390 C1391 1.386 . S
C1390 C1392 1.391 . S
C1391 C1390 1.386 . S
C1391 C1395 1.393 . S
C1392 H1381 0.950 . S
C1392 C1390 1.391 . S
C1392 C1393 1.400 . S
C1393 C1387 1.491 . S
C1393 C1392 1.400 . S
C1393 C1394 1.398 . S
C1394 H1382 0.950 . S
C1394 C1393 1.398 . S
C1394 C1395 1.391 . S
C1395 H1383 0.950 . S
C1395 C1391 1.393 . S
C1395 C1394 1.391 . S
H1396 C1404 0.950 . S
H1397 C1409 0.950 . S
H1398 C1406 0.950 . S
H1399 C1408 0.950 . S
H1400 C1410 0.950 . S
H1401 C1412 0.950 . S
H1402 C1414 0.950 . S
H1403 C1415 0.950 . S
C1404 H1396 0.950 . S
C1404 C1405 1.386 . S
C1404 C1406 1.391 . S
C1405 C1404 1.386 . S
C1405 C1409 1.393 . S
C1406 H1398 0.950 . S
C1406 C1404 1.391 . S
C1406 C1407 1.400 . S
C1407 C1406 1.400 . S
C1407 C1408 1.398 . S
C1407 C1413 1.491 . S
C1408 H1399 0.950 . S
C1408 C1407 1.398 . S
C1408 C1409 1.391 . S
C1409 H1397 0.950 . S
C1409 C1405 1.393 . S
C1409 C1408 1.391 . S
C1410 H1400 0.950 . S
C1410 C1411 1.386 . S
C1410 C1412 1.391 . S
C1411 C1410 1.386 . S
C1411 C1415 1.393 . S
C1412 H1401 0.950 . S
C1412 C1410 1.391 . S
C1412 C1413 1.400 . S
C1413 C1407 1.491 . S
C1413 C1412 1.400 . S
C1413 C1414 1.398 . S
C1414 H1402 0.950 . S
C1414 C1413 1.398 . S
C1414 C1415 1.391 . S
C1415 H1403 0.950 . S
C1415 C1411 1.393 . S
C1415 C1414 1.391 . S
H1416 C1424 0.950 . S
H1417 C1429 0.950 . S
H1418 C1426 0.950 . S
H1419 C1428 0.950 . S
H1420 C1430 0.950 . S
H1421 C1432 0.950 . S
H1422 C1434 0.950 . S
H1423 C1435 0.950 . S
C1424 H1416 0.950 . S
C1424 C1425 1.386 . S
C1424 C1426 1.391 . S
C1425 C1424 1.386 . S
C1425 C1429 1.393 . S
C1426 H1418 0.950 . S
C1426 C1424 1.391 . S
C1426 C1427 1.400 . S
C1427 C1426 1.400 . S
C1427 C1428 1.398 . S
C1427 C1433 1.491 . S
C1428 H1419 0.950 . S
C1428 C1427 1.398 . S
C1428 C1429 1.391 . S
C1429 H1417 0.950 . S
C1429 C1425 1.393 . S
C1429 C1428 1.391 . S
C1430 H1420 0.950 . S
C1430 C1431 1.386 . S
C1430 C1432 1.391 . S
C1431 C1430 1.386 . S
C1431 C1435 1.393 . S
C1432 H1421 0.950 . S
C1432 C1430 1.391 . S
C1432 C1433 1.400 . S
C1433 C1427 1.491 . S
C1433 C1432 1.400 . S
C1433 C1434 1.398 . S
C1434 H1422 0.950 . S
C1434 C1433 1.398 . S
C1434 C1435 1.391 . S
C1435 H1423 0.950 . S
C1435 C1431 1.393 . S
C1435 C1434 1.391 . S
H1436 C1444 0.950 . S
H1437 C1449 0.950 . S
H1438 C1446 0.950 . S
H1439 C1448 0.950 . S
H1440 C1450 0.950 . S
H1441 C1452 0.950 . S
H1442 C1454 0.950 . S
H1443 C1455 0.950 . S
C1444 H1436 0.950 . S
C1444 C1445 1.386 . S
C1444 C1446 1.391 . S
C1445 C1444 1.386 . S
C1445 C1449 1.393 . S
C1446 H1438 0.950 . S
C1446 C1444 1.391 . S
C1446 C1447 1.400 . S
C1447 C1446 1.400 . S
C1447 C1448 1.398 . S
C1447 C1453 1.491 . S
C1448 H1439 0.950 . S
C1448 C1447 1.398 . S
C1448 C1449 1.391 . S
C1449 H1437 0.950 . S
C1449 C1445 1.393 . S
C1449 C1448 1.391 . S
C1450 H1440 0.950 . S
C1450 C1451 1.386 . S
C1450 C1452 1.391 . S
C1451 C1450 1.386 . S
C1451 C1455 1.393 . S
C1452 H1441 0.950 . S
C1452 C1450 1.391 . S
C1452 C1453 1.400 . S
C1453 C1447 1.491 . S
C1453 C1452 1.400 . S
C1453 C1454 1.398 . S
C1454 H1442 0.950 . S
C1454 C1453 1.398 . S
C1454 C1455 1.391 . S
C1455 H1443 0.950 . S
C1455 C1451 1.393 . S
C1455 C1454 1.391 . S
H1456 C1464 0.950 . S
H1457 C1469 0.950 . S
H1458 C1466 0.950 . S
H1459 C1468 0.950 . S
H1460 C1470 0.950 . S
H1461 C1472 0.950 . S
H1462 C1474 0.950 . S
H1463 C1475 0.950 . S
C1464 H1456 0.950 . S
C1464 C1465 1.386 . S
C1464 C1466 1.391 . S
C1465 C1464 1.386 . S
C1465 C1469 1.393 . S
C1466 H1458 0.950 . S
C1466 C1464 1.391 . S
C1466 C1467 1.400 . S
C1467 C1466 1.400 . S
C1467 C1468 1.398 . S
C1467 C1473 1.491 . S
C1468 H1459 0.950 . S
C1468 C1467 1.398 . S
C1468 C1469 1.391 . S
C1469 H1457 0.950 . S
C1469 C1465 1.393 . S
C1469 C1468 1.391 . S
C1470 H1460 0.950 . S
C1470 C1471 1.386 . S
C1470 C1472 1.391 . S
C1471 C1470 1.386 . S
C1471 C1475 1.393 . S
C1472 H1461 0.950 . S
C1472 C1470 1.391 . S
C1472 C1473 1.400 . S
C1473 C1467 1.491 . S
C1473 C1472 1.400 . S
C1473 C1474 1.398 . S
C1474 H1462 0.950 . S
C1474 C1473 1.398 . S
C1474 C1475 1.391 . S
C1475 H1463 0.950 . S
C1475 C1471 1.393 . S
C1475 C1474 1.391 . S
H1476 C1484 0.950 . S
H1477 C1489 0.950 . S
H1478 C1486 0.950 . S
H1479 C1488 0.950 . S
H1480 C1490 0.950 . S
H1481 C1492 0.950 . S
H1482 C1494 0.950 . S
H1483 C1495 0.950 . S
C1484 H1476 0.950 . S
C1484 C1485 1.386 . S
C1484 C1486 1.391 . S
C1485 C1484 1.386 . S
C1485 C1489 1.393 . S
C1486 H1478 0.950 . S
C1486 C1484 1.391 . S
C1486 C1487 1.400 . S
C1487 C1486 1.400 . S
C1487 C1488 1.398 . S
C1487 C1493 1.491 . S
C1488 H1479 0.950 . S
C1488 C1487 1.398 . S
C1488 C1489 1.391 . S
C1489 H1477 0.950 . S
C1489 C1485 1.393 . S
C1489 C1488 1.391 . S
C1490 H1480 0.950 . S
C1490 C1491 1.386 . S
C1490 C1492 1.391 . S
C1491 C1490 1.386 . S
C1491 C1495 1.393 . S
C1492 H1481 0.950 . S
C1492 C1490 1.391 . S
C1492 C1493 1.400 . S
C1493 C1487 1.491 . S
C1493 C1492 1.400 . S
C1493 C1494 1.398 . S
C1494 H1482 0.950 . S
C1494 C1493 1.398 . S
C1494 C1495 1.391 . S
C1495 H1483 0.950 . S
C1495 C1491 1.393 . S
C1495 C1494 1.391 . S
H1496 C1504 0.950 . S
H1497 C1509 0.950 . S
H1498 C1506 0.950 . S
H1499 C1508 0.950 . S
H1500 C1510 0.950 . S
H1501 C1512 0.950 . S
H1502 C1514 0.950 . S
H1503 C1515 0.950 . S
C1504 H1496 0.950 . S
C1504 C1505 1.386 . S
C1504 C1506 1.391 . S
C1505 C1504 1.386 . S
C1505 C1509 1.393 . S
C1506 H1498 0.950 . S
C1506 C1504 1.391 . S
C1506 C1507 1.400 . S
C1507 C1506 1.400 . S
C1507 C1508 1.398 . S
C1507 C1513 1.491 . S
C1508 H1499 0.950 . S
C1508 C1507 1.398 . S
C1508 C1509 1.391 . S
C1509 H1497 0.950 . S
C1509 C1505 1.393 . S
C1509 C1508 1.391 . S
C1510 H1500 0.950 . S
C1510 C1511 1.386 . S
C1510 C1512 1.391 . S
C1511 C1510 1.386 . S
C1511 C1515 1.393 . S
C1512 H1501 0.950 . S
C1512 C1510 1.391 . S
C1512 C1513 1.400 . S
C1513 C1507 1.491 . S
C1513 C1512 1.400 . S
C1513 C1514 1.398 . S
C1514 H1502 0.950 . S
C1514 C1513 1.398 . S
C1514 C1515 1.391 . S
C1515 H1503 0.950 . S
C1515 C1511 1.393 . S
C1515 C1514 1.391 . S
H1516 C1524 0.950 . S
H1517 C1529 0.950 . S
H1518 C1526 0.950 . S
H1519 C1528 0.950 . S
H1520 C1530 0.950 . S
H1521 C1532 0.950 . S
H1522 C1534 0.950 . S
H1523 C1535 0.950 . S
C1524 H1516 0.950 . S
C1524 C1525 1.386 . S
C1524 C1526 1.391 . S
C1525 C1524 1.386 . S
C1525 C1529 1.393 . S
C1526 H1518 0.950 . S
C1526 C1524 1.391 . S
C1526 C1527 1.400 . S
C1527 C1526 1.400 . S
C1527 C1528 1.398 . S
C1527 C1533 1.491 . S
C1528 H1519 0.950 . S
C1528 C1527 1.398 . S
C1528 C1529 1.391 . S
C1529 H1517 0.950 . S
C1529 C1525 1.393 . S
C1529 C1528 1.391 . S
C1530 H1520 0.950 . S
C1530 C1531 1.386 . S
C1530 C1532 1.391 . S
C1531 C1530 1.386 . S
C1531 C1535 1.393 . S
C1532 H1521 0.950 . S
C1532 C1530 1.391 . S
C1532 C1533 1.400 . S
C1533 C1527 1.491 . S
C1533 C1532 1.400 . S
C1533 C1534 1.398 . S
C1534 H1522 0.950 . S
C1534 C1533 1.398 . S
C1534 C1535 1.391 . S
C1535 H1523 0.950 . S
C1535 C1531 1.393 . S
C1535 C1534 1.391 . S
H1536 C1544 0.950 . S
H1537 C1549 0.950 . S
H1538 C1546 0.950 . S
H1539 C1548 0.950 . S
H1540 C1550 0.950 . S
H1541 C1552 0.950 . S
H1542 C1554 0.950 . S
H1543 C1555 0.950 . S
C1544 H1536 0.950 . S
C1544 C1545 1.386 . S
C1544 C1546 1.391 . S
C1545 C1544 1.386 . S
C1545 C1549 1.393 . S
C1546 H1538 0.950 . S
C1546 C1544 1.391 . S
C1546 C1547 1.400 . S
C1547 C1546 1.400 . S
C1547 C1548 1.398 . S
C1547 C1553 1.491 . S
C1548 H1539 0.950 . S
C1548 C1547 1.398 . S
C1548 C1549 1.391 . S
C1549 H1537 0.950 . S
C1549 C1545 1.393 . S
C1549 C1548 1.391 . S
C1550 H1540 0.950 . S
C1550 C1551 1.386 . S
C1550 C1552 1.391 . S
C1551 C1550 1.386 . S
C1551 C1555 1.393 . S
C1552 H1541 0.950 . S
C1552 C1550 1.391 . S
C1552 C1553 1.400 . S
C1553 C1547 1.491 . S
C1553 C1552 1.400 . S
C1553 C1554 1.398 . S
C1554 H1542 0.950 . S
C1554 C1553 1.398 . S
C1554 C1555 1.391 . S
C1555 H1543 0.950 . S
C1555 C1551 1.393 . S
C1555 C1554 1.391 . S
H1556 C1564 0.950 . S
H1557 C1569 0.950 . S
H1558 C1566 0.950 . S
H1559 C1568 0.950 . S
H1560 C1570 0.950 . S
H1561 C1572 0.950 . S
H1562 C1574 0.950 . S
H1563 C1575 0.950 . S
C1564 H1556 0.950 . S
C1564 C1565 1.386 . S
C1564 C1566 1.391 . S
C1565 C1564 1.386 . S
C1565 C1569 1.393 . S
C1566 H1558 0.950 . S
C1566 C1564 1.391 . S
C1566 C1567 1.400 . S
C1567 C1566 1.400 . S
C1567 C1568 1.398 . S
C1567 C1573 1.491 . S
C1568 H1559 0.950 . S
C1568 C1567 1.398 . S
C1568 C1569 1.391 . S
C1569 H1557 0.950 . S
C1569 C1565 1.393 . S
C1569 C1568 1.391 . S
C1570 H1560 0.950 . S
C1570 C1571 1.386 . S
C1570 C1572 1.391 . S
C1571 C1570 1.386 . S
C1571 C1575 1.393 . S
C1572 H1561 0.950 . S
C1572 C1570 1.391 . S
C1572 C1573 1.400 . S
C1573 C1567 1.491 . S
C1573 C1572 1.400 . S
C1573 C1574 1.398 . S
C1574 H1562 0.950 . S
C1574 C1573 1.398 . S
C1574 C1575 1.391 . S
C1575 H1563 0.950 . S
C1575 C1571 1.393 . S
C1575 C1574 1.391 . S
H1576 C1584 0.950 . S
H1577 C1589 0.950 . S
H1578 C1586 0.950 . S
H1579 C1588 0.950 . S
H1580 C1590 0.950 . S
H1581 C1592 0.950 . S
H1582 C1594 0.950 . S
H1583 C1595 0.950 . S
C1584 H1576 0.950 . S
C1584 C1585 1.386 . S
C1584 C1586 1.391 . S
C1585 C1584 1.386 . S
C1585 C1589 1.393 . S
C1586 H1578 0.950 . S
C1586 C1584 1.391 . S
C1586 C1587 1.400 . S
C1587 C1586 1.400 . S
C1587 C1588 1.398 . S
C1587 C1593 1.491 . S
C1588 H1579 0.950 . S
C1588 C1587 1.398 . S
C1588 C1589 1.391 . S
C1589 H1577 0.950 . S
C1589 C1585 1.393 . S
C1589 C1588 1.391 . S
C1590 H1580 0.950 . S
C1590 C1591 1.386 . S
C1590 C1592 1.391 . S
C1591 C1590 1.386 . S
C1591 C1595 1.393 . S
C1592 H1581 0.950 . S
C1592 C1590 1.391 . S
C1592 C1593 1.400 . S
C1593 C1587 1.491 . S
C1593 C1592 1.400 . S
C1593 C1594 1.398 . S
C1594 H1582 0.950 . S
C1594 C1593 1.398 . S
C1594 C1595 1.391 . S
C1595 H1583 0.950 . S
C1595 C1591 1.393 . S
C1595 C1594 1.391 . S
H1596 C1604 0.950 . S
H1597 C1609 0.950 . S
H1598 C1606 0.950 . S
H1599 C1608 0.950 . S
H1600 C1610 0.950 . S
H1601 C1612 0.950 . S
H1602 C1614 0.950 . S
H1603 C1615 0.950 . S
C1604 H1596 0.950 . S
C1604 C1605 1.386 . S
C1604 C1606 1.391 . S
C1605 C1604 1.386 . S
C1605 C1609 1.393 . S
C1606 H1598 0.950 . S
C1606 C1604 1.391 . S
C1606 C1607 1.400 . S
C1607 C1606 1.400 . S
C1607 C1608 1.398 . S
C1607 C1613 1.491 . S
C1608 H1599 0.950 . S
C1608 C1607 1.398 . S
C1608 C1609 1.391 . S
C1609 H1597 0.950 . S
C1609 C1605 1.393 . S
C1609 C1608 1.391 . S
C1610 H1600 0.950 . S
C1610 C1611 1.386 . S
C1610 C1612 1.391 . S
C1611 C1610 1.386 . S
C1611 C1615 1.393 . S
C1612 H1601 0.950 . S
C1612 C1610 1.391 . S
C1612 C1613 1.400 . S
C1613 C1607 1.491 . S
C1613 C1612 1.400 . S
C1613 C1614 1.398 . S
C1614 H1602 0.950 . S
C1614 C1613 1.398 . S
C1614 C1615 1.391 . S
C1615 H1603 0.950 . S
C1615 C1611 1.393 . S
C1615 C1614 1.391 . S
H1616 C1624 0.950 . S
H1617 C1629 0.950 . S
H1618 C1626 0.950 . S
H1619 C1628 0.950 . S
H1620 C1630 0.950 . S
H1621 C1632 0.950 . S
H1622 C1634 0.950 . S
H1623 C1635 0.950 . S
C1624 H1616 0.950 . S
C1624 C1625 1.386 . S
C1624 C1626 1.391 . S
C1625 C1624 1.386 . S
C1625 C1629 1.393 . S
C1626 H1618 0.950 . S
C1626 C1624 1.391 . S
C1626 C1627 1.400 . S
C1627 C1626 1.400 . S
C1627 C1628 1.398 . S
C1627 C1633 1.491 . S
C1628 H1619 0.950 . S
C1628 C1627 1.398 . S
C1628 C1629 1.391 . S
C1629 H1617 0.950 . S
C1629 C1625 1.393 . S
C1629 C1628 1.391 . S
C1630 H1620 0.950 . S
C1630 C1631 1.386 . S
C1630 C1632 1.391 . S
C1631 C1630 1.386 . S
C1631 C1635 1.393 . S
C1632 H1621 0.950 . S
C1632 C1630 1.391 . S
C1632 C1633 1.400 . S
C1633 C1627 1.491 . S
C1633 C1632 1.400 . S
C1633 C1634 1.398 . S
C1634 H1622 0.950 . S
C1634 C1633 1.398 . S
C1634 C1635 1.391 . S
C1635 H1623 0.950 . S
C1635 C1631 1.393 . S
C1635 C1634 1.391 . S
H1636 C1644 0.950 . S
H1637 C1649 0.950 . S
H1638 C1646 0.950 . S
H1639 C1648 0.950 . S
H1640 C1650 0.950 . S
H1641 C1652 0.950 . S
H1642 C1654 0.950 . S
H1643 C1655 0.950 . S
C1644 H1636 0.950 . S
C1644 C1645 1.386 . S
C1644 C1646 1.391 . S
C1645 C1644 1.386 . S
C1645 C1649 1.393 . S
C1646 H1638 0.950 . S
C1646 C1644 1.391 . S
C1646 C1647 1.400 . S
C1647 C1646 1.400 . S
C1647 C1648 1.398 . S
C1647 C1653 1.491 . S
C1648 H1639 0.950 . S
C1648 C1647 1.398 . S
C1648 C1649 1.391 . S
C1649 H1637 0.950 . S
C1649 C1645 1.393 . S
C1649 C1648 1.391 . S
C1650 H1640 0.950 . S
C1650 C1651 1.386 . S
C1650 C1652 1.391 . S
C1651 C1650 1.386 . S
C1651 C1655 1.393 . S
C1652 H1641 0.950 . S
C1652 C1650 1.391 . S
C1652 C1653 1.400 . S
C1653 C1647 1.491 . S
C1653 C1652 1.400 . S
C1653 C1654 1.398 . S
C1654 H1642 0.950 . S
C1654 C1653 1.398 . S
C1654 C1655 1.391 . S
C1655 H1643 0.950 . S
C1655 C1651 1.393 . S
C1655 C1654 1.391 . S
H1656 C1664 0.950 . S
H1657 C1669 0.950 . S
H1658 C1666 0.950 . S
H1659 C1668 0.950 . S
H1660 C1670 0.950 . S
H1661 C1672 0.950 . S
H1662 C1674 0.950 . S
H1663 C1675 0.950 . S
C1664 H1656 0.950 . S
C1664 C1665 1.386 . S
C1664 C1666 1.391 . S
C1665 C1664 1.386 . S
C1665 C1669 1.393 . S
C1666 H1658 0.950 . S
C1666 C1664 1.391 . S
C1666 C1667 1.400 . S
C1667 C1666 1.400 . S
C1667 C1668 1.398 . S
C1667 C1673 1.491 . S
C1668 H1659 0.950 . S
C1668 C1667 1.398 . S
C1668 C1669 1.391 . S
C1669 H1657 0.950 . S
C1669 C1665 1.393 . S
C1669 C1668 1.391 . S
C1670 H1660 0.950 . S
C1670 C1671 1.386 . S
C1670 C1672 1.391 . S
C1671 C1670 1.386 . S
C1671 C1675 1.393 . S
C1672 H1661 0.950 . S
C1672 C1670 1.391 . S
C1672 C1673 1.400 . S
C1673 C1667 1.491 . S
C1673 C1672 1.400 . S
C1673 C1674 1.398 . S
C1674 H1662 0.950 . S
C1674 C1673 1.398 . S
C1674 C1675 1.391 . S
C1675 H1663 0.950 . S
C1675 C1671 1.393 . S
C1675 C1674 1.391 . S
H1676 C1684 0.950 . S
H1677 C1689 0.950 . S
H1678 C1686 0.950 . S
H1679 C1688 0.950 . S
H1680 C1690 0.950 . S
H1681 C1692 0.950 . S
H1682 C1694 0.950 . S
H1683 C1695 0.950 . S
C1684 H1676 0.950 . S
C1684 C1685 1.386 . S
C1684 C1686 1.391 . S
C1685 C1684 1.386 . S
C1685 C1689 1.393 . S
C1686 H1678 0.950 . S
C1686 C1684 1.391 . S
C1686 C1687 1.400 . S
C1687 C1686 1.400 . S
C1687 C1688 1.398 . S
C1687 C1693 1.491 . S
C1688 H1679 0.950 . S
C1688 C1687 1.398 . S
C1688 C1689 1.391 . S
C1689 H1677 0.950 . S
C1689 C1685 1.393 . S
C1689 C1688 1.391 . S
C1690 H1680 0.950 . S
C1690 C1691 1.386 . S
C1690 C1692 1.391 . S
C1691 C1690 1.386 . S
C1691 C1695 1.393 . S
C1692 H1681 0.950 . S
C1692 C1690 1.391 . S
C1692 C1693 1.400 . S
C1693 C1687 1.491 . S
C1693 C1692 1.400 . S
C1693 C1694 1.398 . S
C1694 H1682 0.950 . S
C1694 C1693 1.398 . S
C1694 C1695 1.391 . S
C1695 H1683 0.950 . S
C1695 C1691 1.393 . S
C1695 C1694 1.391 . S
H1696 C1704 0.950 . S
H1697 C1709 0.950 . S
H1698 C1706 0.950 . S
H1699 C1708 0.950 . S
H1700 C1710 0.950 . S
H1701 C1712 0.950 . S
H1702 C1714 0.950 . S
H1703 C1715 0.950 . S
C1704 H1696 0.950 . S
C1704 C1705 1.386 . S
C1704 C1706 1.391 . S
C1705 C1704 1.386 . S
C1705 C1709 1.393 . S
C1706 H1698 0.950 . S
C1706 C1704 1.391 . S
C1706 C1707 1.400 . S
C1707 C1706 1.400 . S
C1707 C1708 1.398 . S
C1707 C1713 1.491 . S
C1708 H1699 0.950 . S
C1708 C1707 1.398 . S
C1708 C1709 1.391 . S
C1709 H1697 0.950 . S
C1709 C1705 1.393 . S
C1709 C1708 1.391 . S
C1710 H1700 0.950 . S
C1710 C1711 1.386 . S
C1710 C1712 1.391 . S
C1711 C1710 1.386 . S
C1711 C1715 1.393 . S
C1712 H1701 0.950 . S
C1712 C1710 1.391 . S
C1712 C1713 1.400 . S
C1713 C1707 1.491 . S
C1713 C1712 1.400 . S
C1713 C1714 1.398 . S
C1714 H1702 0.950 . S
C1714 C1713 1.398 . S
C1714 C1715 1.391 . S
C1715 H1703 0.950 . S
C1715 C1711 1.393 . S
C1715 C1714 1.391 . S
H1716 C1724 0.950 . S
H1717 C1729 0.950 . S
H1718 C1726 0.950 . S
H1719 C1728 0.950 . S
H1720 C1730 0.950 . S
H1721 C1732 0.950 . S
H1722 C1734 0.950 . S
H1723 C1735 0.950 . S
C1724 H1716 0.950 . S
C1724 C1725 1.386 . S
C1724 C1726 1.391 . S
C1725 C1724 1.386 . S
C1725 C1729 1.393 . S
C1726 H1718 0.950 . S
C1726 C1724 1.391 . S
C1726 C1727 1.400 . S
C1727 C1726 1.400 . S
C1727 C1728 1.398 . S
C1727 C1733 1.491 . S
C1728 H1719 0.950 . S
C1728 C1727 1.398 . S
C1728 C1729 1.391 . S
C1729 H1717 0.950 . S
C1729 C1725 1.393 . S
C1729 C1728 1.391 . S
C1730 H1720 0.950 . S
C1730 C1731 1.386 . S
C1730 C1732 1.391 . S
C1731 C1730 1.386 . S
C1731 C1735 1.393 . S
C1732 H1721 0.950 . S
C1732 C1730 1.391 . S
C1732 C1733 1.400 . S
C1733 C1727 1.491 . S
C1733 C1732 1.400 . S
C1733 C1734 1.398 . S
C1734 H1722 0.950 . S
C1734 C1733 1.398 . S
C1734 C1735 1.391 . S
C1735 H1723 0.950 . S
C1735 C1731 1.393 . S
C1735 C1734 1.391 . S
H1736 C1744 0.950 . S
H1737 C1749 0.950 . S
H1738 C1746 0.950 . S
H1739 C1748 0.950 . S
H1740 C1750 0.950 . S
H1741 C1752 0.950 . S
H1742 C1754 0.950 . S
H1743 C1755 0.950 . S
C1744 H1736 0.950 . S
C1744 C1745 1.386 . S
C1744 C1746 1.391 . S
C1745 C1744 1.386 . S
C1745 C1749 1.393 . S
C1746 H1738 0.950 . S
C1746 C1744 1.391 . S
C1746 C1747 1.400 . S
C1747 C1746 1.400 . S
C1747 C1748 1.398 . S
C1747 C1753 1.491 . S
C1748 H1739 0.950 . S
C1748 C1747 1.398 . S
C1748 C1749 1.391 . S
C1749 H1737 0.950 . S
C1749 C1745 1.393 . S
C1749 C1748 1.391 . S
C1750 H1740 0.950 . S
C1750 C1751 1.386 . S
C1750 C1752 1.391 . S
C1751 C1750 1.386 . S
C1751 C1755 1.393 . S
C1752 H1741 0.950 . S
C1752 C1750 1.391 . S
C1752 C1753 1.400 . S
C1753 C1747 1.491 . S
C1753 C1752 1.400 . S
C1753 C1754 1.398 . S
C1754 H1742 0.950 . S
C1754 C1753 1.398 . S
C1754 C1755 1.391 . S
C1755 H1743 0.950 . S
C1755 C1751 1.393 . S
C1755 C1754 1.391 . S
H1756 C1764 0.950 . S
H1757 C1769 0.950 . S
H1758 C1766 0.950 . S
H1759 C1768 0.950 . S
H1760 C1770 0.950 . S
H1761 C1772 0.950 . S
H1762 C1774 0.950 . S
H1763 C1775 0.950 . S
C1764 H1756 0.950 . S
C1764 C1765 1.386 . S
C1764 C1766 1.391 . S
C1765 C1764 1.386 . S
C1765 C1769 1.393 . S
C1766 H1758 0.950 . S
C1766 C1764 1.391 . S
C1766 C1767 1.400 . S
C1767 C1766 1.400 . S
C1767 C1768 1.398 . S
C1767 C1773 1.491 . S
C1768 H1759 0.950 . S
C1768 C1767 1.398 . S
C1768 C1769 1.391 . S
C1769 H1757 0.950 . S
C1769 C1765 1.393 . S
C1769 C1768 1.391 . S
C1770 H1760 0.950 . S
C1770 C1771 1.386 . S
C1770 C1772 1.391 . S
C1771 C1770 1.386 . S
C1771 C1775 1.393 . S
C1772 H1761 0.950 . S
C1772 C1770 1.391 . S
C1772 C1773 1.400 . S
C1773 C1767 1.491 . S
C1773 C1772 1.400 . S
C1773 C1774 1.398 . S
C1774 H1762 0.950 . S
C1774 C1773 1.398 . S
C1774 C1775 1.391 . S
C1775 H1763 0.950 . S
C1775 C1771 1.393 . S
C1775 C1774 1.391 . S
H1776 C1784 0.950 . S
H1777 C1789 0.950 . S
H1778 C1786 0.950 . S
H1779 C1788 0.950 . S
H1780 C1790 0.950 . S
H1781 C1792 0.950 . S
H1782 C1794 0.950 . S
H1783 C1795 0.950 . S
C1784 H1776 0.950 . S
C1784 C1785 1.386 . S
C1784 C1786 1.391 . S
C1785 C1784 1.386 . S
C1785 C1789 1.393 . S
C1786 H1778 0.950 . S
C1786 C1784 1.391 . S
C1786 C1787 1.400 . S
C1787 C1786 1.400 . S
C1787 C1788 1.398 . S
C1787 C1793 1.491 . S
C1788 H1779 0.950 . S
C1788 C1787 1.398 . S
C1788 C1789 1.391 . S
C1789 H1777 0.950 . S
C1789 C1785 1.393 . S
C1789 C1788 1.391 . S
C1790 H1780 0.950 . S
C1790 C1791 1.386 . S
C1790 C1792 1.391 . S
C1791 C1790 1.386 . S
C1791 C1795 1.393 . S
C1792 H1781 0.950 . S
C1792 C1790 1.391 . S
C1792 C1793 1.400 . S
C1793 C1787 1.491 . S
C1793 C1792 1.400 . S
C1793 C1794 1.398 . S
C1794 H1782 0.950 . S
C1794 C1793 1.398 . S
C1794 C1795 1.391 . S
C1795 H1783 0.950 . S
C1795 C1791 1.393 . S
C1795 C1794 1.391 . S
H1796 C1804 0.950 . S
H1797 C1809 0.950 . S
H1798 C1806 0.950 . S
H1799 C1808 0.950 . S
H1800 C1810 0.950 . S
H1801 C1812 0.950 . S
H1802 C1814 0.950 . S
H1803 C1815 0.950 . S
C1804 H1796 0.950 . S
C1804 C1805 1.386 . S
C1804 C1806 1.391 . S
C1805 C1804 1.386 . S
C1805 C1809 1.393 . S
C1806 H1798 0.950 . S
C1806 C1804 1.391 . S
C1806 C1807 1.400 . S
C1807 C1806 1.400 . S
C1807 C1808 1.398 . S
C1807 C1813 1.491 . S
C1808 H1799 0.950 . S
C1808 C1807 1.398 . S
C1808 C1809 1.391 . S
C1809 H1797 0.950 . S
C1809 C1805 1.393 . S
C1809 C1808 1.391 . S
C1810 H1800 0.950 . S
C1810 C1811 1.386 . S
C1810 C1812 1.391 . S
C1811 C1810 1.386 . S
C1811 C1815 1.393 . S
C1812 H1801 0.950 . S
C1812 C1810 1.391 . S
C1812 C1813 1.400 . S
C1813 C1807 1.491 . S
C1813 C1812 1.400 . S
C1813 C1814 1.398 . S
C1814 H1802 0.950 . S
C1814 C1813 1.398 . S
C1814 C1815 1.391 . S
C1815 H1803 0.950 . S
C1815 C1811 1.393 . S
C1815 C1814 1.391 . S
H1816 C1824 0.950 . S
H1817 C1829 0.950 . S
H1818 C1826 0.950 . S
H1819 C1828 0.950 . S
H1820 C1830 0.950 . S
H1821 C1832 0.950 . S
H1822 C1834 0.950 . S
H1823 C1835 0.950 . S
C1824 H1816 0.950 . S
C1824 C1825 1.386 . S
C1824 C1826 1.391 . S
C1825 C1824 1.386 . S
C1825 C1829 1.393 . S
C1826 H1818 0.950 . S
C1826 C1824 1.391 . S
C1826 C1827 1.400 . S
C1827 C1826 1.400 . S
C1827 C1828 1.398 . S
C1827 C1833 1.491 . S
C1828 H1819 0.950 . S
C1828 C1827 1.398 . S
C1828 C1829 1.391 . S
C1829 H1817 0.950 . S
C1829 C1825 1.393 . S
C1829 C1828 1.391 . S
C1830 H1820 0.950 . S
C1830 C1831 1.386 . S
C1830 C1832 1.391 . S
C1831 C1830 1.386 . S
C1831 C1835 1.393 . S
C1832 H1821 0.950 . S
C1832 C1830 1.391 . S
C1832 C1833 1.400 . S
C1833 C1827 1.491 . S
C1833 C1832 1.400 . S
C1833 C1834 1.398 . S
C1834 H1822 0.950 . S
C1834 C1833 1.398 . S
C1834 C1835 1.391 . S
C1835 H1823 0.950 . S
C1835 C1831 1.393 . S
C1835 C1834 1.391 . S
H1836 C1844 0.950 . S
H1837 C1849 0.950 . S
H1838 C1846 0.950 . S
H1839 C1848 0.950 . S
H1840 C1850 0.950 . S
H1841 C1852 0.950 . S
H1842 C1854 0.950 . S
H1843 C1855 0.950 . S
C1844 H1836 0.950 . S
C1844 C1845 1.386 . S
C1844 C1846 1.391 . S
C1845 C1844 1.386 . S
C1845 C1849 1.393 . S
C1846 H1838 0.950 . S
C1846 C1844 1.391 . S
C1846 C1847 1.400 . S
C1847 C1846 1.400 . S
C1847 C1848 1.398 . S
C1847 C1853 1.491 . S
C1848 H1839 0.950 . S
C1848 C1847 1.398 . S
C1848 C1849 1.391 . S
C1849 H1837 0.950 . S
C1849 C1845 1.393 . S
C1849 C1848 1.391 . S
C1850 H1840 0.950 . S
C1850 C1851 1.386 . S
C1850 C1852 1.391 . S
C1851 C1850 1.386 . S
C1851 C1855 1.393 . S
C1852 H1841 0.950 . S
C1852 C1850 1.391 . S
C1852 C1853 1.400 . S
C1853 C1847 1.491 . S
C1853 C1852 1.400 . S
C1853 C1854 1.398 . S
C1854 H1842 0.950 . S
C1854 C1853 1.398 . S
C1854 C1855 1.391 . S
C1855 H1843 0.950 . S
C1855 C1851 1.393 . S
C1855 C1854 1.391 . S
H1856 C1864 0.950 . S
H1857 C1869 0.950 . S
H1858 C1866 0.950 . S
H1859 C1868 0.950 . S
H1860 C1870 0.950 . S
H1861 C1872 0.950 . S
H1862 C1874 0.950 . S
H1863 C1875 0.950 . S
C1864 H1856 0.950 . S
C1864 C1865 1.386 . S
C1864 C1866 1.391 . S
C1865 C1864 1.386 . S
C1865 C1869 1.393 . S
C1866 H1858 0.950 . S
C1866 C1864 1.391 . S
C1866 C1867 1.400 . S
C1867 C1866 1.400 . S
C1867 C1868 1.398 . S
C1867 C1873 1.491 . S
C1868 H1859 0.950 . S
C1868 C1867 1.398 . S
C1868 C1869 1.391 . S
C1869 H1857 0.950 . S
C1869 C1865 1.393 . S
C1869 C1868 1.391 . S
C1870 H1860 0.950 . S
C1870 C1871 1.386 . S
C1870 C1872 1.391 . S
C1871 C1870 1.386 . S
C1871 C1875 1.393 . S
C1872 H1861 0.950 . S
C1872 C1870 1.391 . S
C1872 C1873 1.400 . S
C1873 C1867 1.491 . S
C1873 C1872 1.400 . S
C1873 C1874 1.398 . S
C1874 H1862 0.950 . S
C1874 C1873 1.398 . S
C1874 C1875 1.391 . S
C1875 H1863 0.950 . S
C1875 C1871 1.393 . S
C1875 C1874 1.391 . S
H1876 C1884 0.950 . S
H1877 C1889 0.950 . S
H1878 C1886 0.950 . S
H1879 C1888 0.950 . S
H1880 C1890 0.950 . S
H1881 C1892 0.950 . S
H1882 C1894 0.950 . S
H1883 C1895 0.950 . S
C1884 H1876 0.950 . S
C1884 C1885 1.386 . S
C1884 C1886 1.391 . S
C1885 C1884 1.386 . S
C1885 C1889 1.393 . S
C1886 H1878 0.950 . S
C1886 C1884 1.391 . S
C1886 C1887 1.400 . S
C1887 C1886 1.400 . S
C1887 C1888 1.398 . S
C1887 C1893 1.491 . S
C1888 H1879 0.950 . S
C1888 C1887 1.398 . S
C1888 C1889 1.391 . S
C1889 H1877 0.950 . S
C1889 C1885 1.393 . S
C1889 C1888 1.391 . S
C1890 H1880 0.950 . S
C1890 C1891 1.386 . S
C1890 C1892 1.391 . S
C1891 C1890 1.386 . S
C1891 C1895 1.393 . S
C1892 H1881 0.950 . S
C1892 C1890 1.391 . S
C1892 C1893 1.400 . S
C1893 C1887 1.491 . S
C1893 C1892 1.400 . S
C1893 C1894 1.398 . S
C1894 H1882 0.950 . S
C1894 C1893 1.398 . S
C1894 C1895 1.391 . S
C1895 H1883 0.950 . S
C1895 C1891 1.393 . S
C1895 C1894 1.391 . S
H1896 C1904 0.950 . S
H1897 C1909 0.950 . S
H1898 C1906 0.950 . S
H1899 C1908 0.950 . S
H1900 C1910 0.950 . S
H1901 C1912 0.950 . S
H1902 C1914 0.950 . S
H1903 C1915 0.950 . S
C1904 H1896 0.950 . S
C1904 C1905 1.386 . S
C1904 C1906 1.391 . S
C1905 C1904 1.386 . S
C1905 C1909 1.393 . S
C1906 H1898 0.950 . S
C1906 C1904 1.391 . S
C1906 C1907 1.400 . S
C1907 C1906 1.400 . S
C1907 C1908 1.398 . S
C1907 C1913 1.491 . S
C1908 H1899 0.950 . S
C1908 C1907 1.398 . S
C1908 C1909 1.391 . S
C1909 H1897 0.950 . S
C1909 C1905 1.393 . S
C1909 C1908 1.391 . S
C1910 H1900 0.950 . S
C1910 C1911 1.386 . S
C1910 C1912 1.391 . S
C1911 C1910 1.386 . S
C1911 C1915 1.393 . S
C1912 H1901 0.950 . S
C1912 C1910 1.391 . S
C1912 C1913 1.400 . S
C1913 C1907 1.491 . S
C1913 C1912 1.400 . S
C1913 C1914 1.398 . S
C1914 H1902 0.950 . S
C1914 C1913 1.398 . S
C1914 C1915 1.391 . S
C1915 H1903 0.950 . S
C1915 C1911 1.393 . S
C1915 C1914 1.391 . S
H1916 C1924 0.950 . S
H1917 C1929 0.950 . S
H1918 C1926 0.950 . S
H1919 C1928 0.950 . S
H1920 C1930 0.950 . S
H1921 C1932 0.950 . S
H1922 C1934 0.950 . S
H1923 C1935 0.950 . S
C1924 H1916 0.950 . S
C1924 C1925 1.386 . S
C1924 C1926 1.391 . S
C1925 C1924 1.386 . S
C1925 C1929 1.393 . S
C1926 H1918 0.950 . S
C1926 C1924 1.391 . S
C1926 C1927 1.400 . S
C1927 C1926 1.400 . S
C1927 C1928 1.398 . S
C1927 C1933 1.491 . S
C1928 H1919 0.950 . S
C1928 C1927 1.398 . S
C1928 C1929 1.391 . S
C1929 H1917 0.950 . S
C1929 C1925 1.393 . S
C1929 C1928 1.391 . S
C1930 H1920 0.950 . S
C1930 C1931 1.386 . S
C1930 C1932 1.391 . S
C1931 C1930 1.386 . S
C1931 C1935 1.393 . S
C1932 H1921 0.950 . S
C1932 C1930 1.391 . S
C1932 C1933 1.400 . S
C1933 C1927 1.491 . S
C1933 C1932 1.400 . S
C1933 C1934 1.398 . S
C1934 H1922 0.950 . S
C1934 C1933 1.398 . S
C1934 C1935 1.391 . S
C1935 H1923 0.950 . S
C1935 C1931 1.393 . S
C1935 C1934 1.391 . S
H1936 C1944 0.950 . S
H1937 C1949 0.950 . S
H1938 C1946 0.950 . S
H1939 C1948 0.950 . S
H1940 C1950 0.950 . S
H1941 C1952 0.950 . S
H1942 C1954 0.950 . S
H1943 C1955 0.950 . S
C1944 H1936 0.950 . S
C1944 C1945 1.386 . S
C1944 C1946 1.391 . S
C1945 C1944 1.386 . S
C1945 C1949 1.393 . S
C1946 H1938 0.950 . S
C1946 C1944 1.391 . S
C1946 C1947 1.400 . S
C1947 C1946 1.400 . S
C1947 C1948 1.398 . S
C1947 C1953 1.491 . S
C1948 H1939 0.950 . S
C1948 C1947 1.398 . S
C1948 C1949 1.391 . S
C1949 H1937 0.950 . S
C1949 C1945 1.393 . S
C1949 C1948 1.391 . S
C1950 H1940 0.950 . S
C1950 C1951 1.386 . S
C1950 C1952 1.391 . S
C1951 C1950 1.386 . S
C1951 C1955 1.393 . S
C1952 H1941 0.950 . S
C1952 C1950 1.391 . S
C1952 C1953 1.400 . S
C1953 C1947 1.491 . S
C1953 C1952 1.400 . S
C1953 C1954 1.398 . S
C1954 H1942 0.950 . S
C1954 C1953 1.398 . S
C1954 C1955 1.391 . S
C1955 H1943 0.950 . S
C1955 C1951 1.393 . S
C1955 C1954 1.391 . S
H1956 C1964 0.950 . S
H1957 C1969 0.950 . S
H1958 C1966 0.950 . S
H1959 C1968 0.950 . S
H1960 C1970 0.950 . S
H1961 C1972 0.950 . S
H1962 C1974 0.950 . S
H1963 C1975 0.950 . S
C1964 H1956 0.950 . S
C1964 C1965 1.386 . S
C1964 C1966 1.391 . S
C1965 C1964 1.386 . S
C1965 C1969 1.393 . S
C1966 H1958 0.950 . S
C1966 C1964 1.391 . S
C1966 C1967 1.400 . S
C1967 C1966 1.400 . S
C1967 C1968 1.398 . S
C1967 C1973 1.491 . S
C1968 H1959 0.950 . S
C1968 C1967 1.398 . S
C1968 C1969 1.391 . S
C1969 H1957 0.950 . S
C1969 C1965 1.393 . S
C1969 C1968 1.391 . S
C1970 H1960 0.950 . S
C1970 C1971 1.386 . S
C1970 C1972 1.391 . S
C1971 C1970 1.386 . S
C1971 C1975 1.393 . S
C1972 H1961 0.950 . S
C1972 C1970 1.391 . S
C1972 C1973 1.400 . S
C1973 C1967 1.491 . S
C1973 C1972 1.400 . S
C1973 C1974 1.398 . S
C1974 H1962 0.950 . S
C1974 C1973 1.398 . S
C1974 C1975 1.391 . S
C1975 H1963 0.950 . S
C1975 C1971 1.393 . S
C1975 C1974 1.391 . S
C1351 C941 1.453 . S
C1345 C29 1.211 . S
C1371 C994 1.499 . S
C1365 C125 0.826 . S
C1391 C1057 1.554 . S
C1385 C257 1.285 . S
C1411 C1100 1.422 . S
C1405 C353 0.770 . S
C1425 C457 1.133 . S
C1431 C1056 1.506 . S
C1451 C1093 1.514 . S
C1445 C625 1.187 . S
C1471 C934 1.440 . S
C1465 C685 1.150 . S
C1491 C987 1.385 . S
C1485 C853 1.068 . S
C1511 C1040 1.646 . S
C1505 C809 1.083 . S
C1531 C1109 1.766 . S
C1525 C485 1.494 . S
C1551 C950 1.752 . S
C1545 C581 1.096 . S
C1571 C1003 1.685 . S
C1565 C713 1.408 . S
C1591 C951 1.723 . S
C1585 C169 1.269 . S
C1611 C1004 1.740 . S
C1605 C229 1.373 . S
C1631 C1047 1.630 . S
C1625 C397 1.175 . S
C1651 C1110 1.648 . S
C1645 C1 1.302 . S
C1671 C1153 1.424 . S
C1665 C827 1.133 . S
C1685 C467 1.098 . S
C1691 C1206 1.860 . S
C1705 C599 1.284 . S
C1711 C1268 1.586 . S
C1725 C695 1.084 . S
C1731 C1322 1.835 . S
C1745 C115 1.118 . S
C1751 C1269 1.474 . S
C1765 C283 1.537 . S
C1771 C1321 1.920 . S
C1785 C343 1.152 . S
C1791 C1146 1.467 . S
C1811 C1199 1.753 . S
C1805 C55 1.359 . S
C1831 C1259 1.614 . S
C1825 C11 1.040 . S
C1845 C143 1.086 . S
C1851 C1305 1.317 . S
C1865 C239 1.161 . S
C1871 C1162 1.791 . S
C1885 C371 1.094 . S
C1891 C1215 1.290 . S
C1911 C1163 1.652 . S
C1905 C511 1.201 . S
C1931 C1216 1.365 . S
C1925 C571 1.022 . S
C1945 C739 1.231 . S
C1951 C1252 1.664 . S
C1971 C1312 1.208 . S
C1965 C799 1.002 . S
