# Generated by pormake.
# Topology tsx, (6,3)-cn, num edge types: 1
# Building blocks:
#     Node 0, Type 0, BuildingBlock: VOLQOD_clean_sbu_1, # of connection points: 6
#     Node 1, Type 0, BuildingBlock: VOLQOD_clean_sbu_1, # of connection points: 6
#     Node 2, Type 1, BuildingBlock: MIDCAF_clean_linker_0, # of connection points: 3
#     Node 3, Type 1, BuildingBlock: MIDCAF_clean_linker_0, # of connection points: 3
#     Node 4, Type 1, BuildingBlock: MIDCAF_clean_linker_0, # of connection points: 3
#     Node 5, Type 1, BuildingBlock: MIDCAF_clean_linker_0, # of connection points: 3
#     Edge 6, Type (0, 1), BuildingBlock: XUDNAN_clean_linker_2, # of connection points: 2
#     Edge 7, Type (0, 1), BuildingBlock: XUDNAN_clean_linker_2, # of connection points: 2
#     Edge 8, Type (0, 1), BuildingBlock: XUDNAN_clean_linker_2, # of connection points: 2
#     Edge 9, Type (0, 1), BuildingBlock: XUDNAN_clean_linker_2, # of connection points: 2
#     Edge 10, Type (0, 1), BuildingBlock: XUDNAN_clean_linker_2, # of connection points: 2
#     Edge 11, Type (0, 1), BuildingBlock: XUDNAN_clean_linker_2, # of connection points: 2
#     Edge 12, Type (0, 1), BuildingBlock: XUDNAN_clean_linker_2, # of connection points: 2
#     Edge 13, Type (0, 1), BuildingBlock: XUDNAN_clean_linker_2, # of connection points: 2
#     Edge 14, Type (0, 1), BuildingBlock: XUDNAN_clean_linker_2, # of connection points: 2
#     Edge 15, Type (0, 1), BuildingBlock: XUDNAN_clean_linker_2, # of connection points: 2
#     Edge 16, Type (0, 1), BuildingBlock: XUDNAN_clean_linker_2, # of connection points: 2
#     Edge 17, Type (0, 1), BuildingBlock: XUDNAN_clean_linker_2, # of connection points: 2
# Relax obj value: 0.076
# Max RMSD: 0.108
# Mean RMSD: 0.083
data_MOF--net-tsx--node1-VOLQOD_clean_sbu_1--node2-MIDCAF_clean_linker_0--edge1-XUDNAN_clean_linker_2
_symmetry_space_group_name_H-M    P1
_symmetry_Int_Tables_number       1
_symmetry_cell_setting            triclinic
loop_
_symmetry_equiv_pos_as_xyz
'x, y, z'
_cell_length_a     24.677957
_cell_length_b     25.538984
_cell_length_c     49.078825
_cell_angle_alpha  90.306347
_cell_angle_beta   89.72589
_cell_angle_gamma 89.961753
loop_
_atom_site_label
_atom_site_type_symbol
_atom_site_fract_x
_atom_site_fract_y
_atom_site_fract_z
_atom_type_partial_charge
O0 O 0.04244 0.01482 0.0794 0.0
Zn1 Zn 0.07378 0.0071 0.04111 0.0
O2 O 0.01745 0.01904 0.01329 0.0
Zn3 Zn 0.01038 0.95909 0.98871 0.0
Zn4 Zn 0.94765 0.03232 0.0309 0.0
Zn5 Zn 0.03709 0.07879 0.9913 0.0
O6 O 0.02052 0.97719 0.94883 0.0
O7 O 0.04651 0.06004 0.952 0.0
O8 O 0.10636 0.93445 0.03629 0.0
O9 O 0.06715 0.90659 0.99812 0.0
O10 O 0.93859 0.92335 0.99361 0.0
O11 O 0.89542 0.97315 0.02391 0.0
O12 O 0.91451 0.10047 0.01832 0.0
O13 O 0.13542 0.05994 0.03733 0.0
O14 O 0.98087 0.13493 0.99355 0.0
O15 O 0.10734 0.10852 0.00279 0.0
C16 C 0.99536 0.02775 0.08796 0.0
C17 C 0.03737 0.01922 0.93785 0.0
C18 C 0.89738 0.93285 0.00854 0.0
C19 C 0.1008 0.90034 0.01742 0.0
C20 C 0.93387 0.13786 0.00421 0.0
C21 C 0.1424 0.09767 0.02075 0.0
O22 O 0.95678 0.03648 0.07144 0.0
O23 O 0.51705 0.48697 0.58314 0.0
Zn24 Zn 0.55235 0.47952 0.54597 0.0
O25 O 0.49964 0.49339 0.51723 0.0
Zn26 Zn 0.48841 0.42828 0.49704 0.0
Zn27 Zn 0.43026 0.51653 0.53276 0.0
Zn28 Zn 0.52744 0.54836 0.49315 0.0
O29 O 0.50475 0.43943 0.45744 0.0
O30 O 0.53671 0.52068 0.45476 0.0
O31 O 0.58741 0.40822 0.54185 0.0
O32 O 0.53892 0.37111 0.50904 0.0
O33 O 0.41224 0.40156 0.50131 0.0
O34 O 0.37046 0.46474 0.52454 0.0
O35 O 0.40693 0.58715 0.51835 0.0
O36 O 0.61391 0.53061 0.54382 0.0
O37 O 0.47549 0.60892 0.4913 0.0
O38 O 0.59881 0.57747 0.50659 0.0
C39 C 0.47166 0.50617 0.59077 0.0
C40 C 0.52483 0.47694 0.44369 0.0
C41 C 0.36973 0.42058 0.51235 0.0
C42 C 0.5768 0.3693 0.52648 0.0
C43 C 0.42962 0.61913 0.50206 0.0
C44 C 0.62772 0.56636 0.5272 0.0
O45 O 0.4363 0.52107 0.57361 0.0
C46 C 0.87574 0.14906 0.44675 0.0
C47 C 0.85831 0.12672 0.47134 0.0
C48 C 0.88147 0.07929 0.47984 0.0
C49 C 0.92111 0.05442 0.46383 0.0
H50 H 0.06374 0.95587 0.46663 0.0
H51 H 0.13833 0.90233 0.48403 0.0
H52 H 0.20863 0.89564 0.40339 0.0
H53 H 0.13508 0.94862 0.386 0.0
H54 H 0.0575 0.97095 0.33615 0.0
H55 H 0.0456 0.97648 0.28712 0.0
H56 H 0.93301 0.10449 0.29852 0.0
H57 H 0.94356 0.09794 0.34767 0.0
H58 H 0.92603 0.14138 0.41133 0.0
H59 H 0.85815 0.18537 0.43965 0.0
H60 H 0.86858 0.06135 0.49875 0.0
H61 H 0.93786 0.01757 0.47066 0.0
N62 N 0.01418 0.01567 0.43091 0.0
N63 N 0.04497 0.99682 0.38662 0.0
N64 N 0.97213 0.05427 0.39311 0.0
C65 C 0.04941 0.99029 0.41398 0.0
C66 C 0.00644 0.0285 0.37597 0.0
C67 C 0.9756 0.04797 0.42054 0.0
C68 C 0.09337 0.95681 0.42491 0.0
C69 C 0.0951 0.94294 0.45262 0.0
C70 C 0.13763 0.91213 0.46258 0.0
C71 C 0.1795 0.89529 0.4451 0.0
C72 C 0.1774 0.90875 0.41744 0.0
C73 C 0.13488 0.93892 0.40746 0.0
C74 C 0.00123 0.03379 0.34597 0.0
C75 C 0.03034 0.00048 0.32826 0.0
C76 C 0.02378 0.00385 0.30004 0.0
C77 C 0.9882 0.04081 0.28878 0.0
C78 C 0.96 0.07488 0.30647 0.0
C79 C 0.96628 0.0713 0.33471 0.0
C80 C 0.9371 0.0759 0.43872 0.0
C81 C 0.9143 0.12368 0.43048 0.0
C82 C 0.91144 0.82799 0.60653 0.0
C83 C 0.89798 0.82561 0.57879 0.0
C84 C 0.91055 0.86843 0.56204 0.0
C85 C 0.93707 0.91237 0.57281 0.0
H86 H 0.99354 0.07839 0.55849 0.0
H87 H 0.03623 0.14848 0.53156 0.0
H88 H 0.16635 0.15728 0.5898 0.0
H89 H 0.12361 0.08907 0.61689 0.0
H90 H 0.04568 0.08866 0.68101 0.0
H91 H 0.06002 0.09413 0.7298 0.0
H92 H 0.01997 0.93008 0.73754 0.0
H93 H 0.00342 0.92517 0.68865 0.0
H94 H 0.94724 0.87181 0.63878 0.0
H95 H 0.90137 0.79604 0.62007 0.0
H96 H 0.90062 0.86758 0.54057 0.0
H97 H 0.9467 0.94458 0.55936 0.0
N98 N 0.00075 0.99821 0.59607 0.0
N99 N 0.03638 0.04076 0.63455 0.0
N100 N 0.98755 0.96305 0.63975 0.0
C101 C 0.02934 0.03851 0.60715 0.0
C102 C 0.01535 0.00342 0.65102 0.0
C103 C 0.9799 0.9601 0.61236 0.0
C104 C 0.05518 0.07855 0.58982 0.0
C105 C 0.03138 0.09525 0.56537 0.0
C106 C 0.05557 0.13524 0.55006 0.0
C107 C 0.10457 0.15775 0.55864 0.0
C108 C 0.12878 0.14014 0.58269 0.0
C109 C 0.10412 0.10136 0.59824 0.0
C110 C 0.02358 0.00644 0.68086 0.0
C111 C 0.03991 0.05369 0.69307 0.0
C112 C 0.0485 0.05673 0.72111 0.0
C113 C 0.04176 0.0124 0.73769 0.0
C114 C 0.02501 0.96516 0.7255 0.0
C115 C 0.01576 0.96228 0.69742 0.0
C116 C 0.9509 0.91447 0.60059 0.0
C117 C 0.93742 0.8718 0.61729 0.0
C118 C 0.30024 0.5663 0.94671 0.0
C119 C 0.31887 0.59142 0.97049 0.0
C120 C 0.37148 0.58018 0.97971 0.0
C121 C 0.40553 0.54701 0.9647 0.0
H122 H 0.52716 0.42227 0.96878 0.0
H123 H 0.60916 0.38293 0.98757 0.0
H124 H 0.68572 0.39025 0.9084 0.0
H125 H 0.60423 0.42933 0.88953 0.0
H126 H 0.53725 0.46699 0.83907 0.0
H127 H 0.52924 0.47875 0.7902 0.0
H128 H 0.35669 0.50321 0.79945 0.0
H129 H 0.36529 0.49387 0.84858 0.0
H130 H 0.31975 0.51695 0.91266 0.0
H131 H 0.25945 0.5727 0.9394 0.0
H132 H 0.38755 0.59905 0.99774 0.0
H133 H 0.44656 0.54094 0.97177 0.0
N134 N 0.47171 0.47454 0.93263 0.0
N135 N 0.50267 0.45393 0.88863 0.0
N136 N 0.41976 0.49737 0.89457 0.0
C137 C 0.5097 0.45256 0.91605 0.0
C138 C 0.45773 0.47602 0.87773 0.0
C139 C 0.42662 0.49692 0.92203 0.0
C140 C 0.55914 0.42891 0.92764 0.0
C141 C 0.56154 0.41565 0.95539 0.0
C142 C 0.60831 0.39298 0.96615 0.0
C143 C 0.65373 0.38393 0.94945 0.0
C144 C 0.65146 0.39747 0.9218 0.0
C145 C 0.6046 0.41946 0.91096 0.0
C146 C 0.45193 0.4797 0.84777 0.0
C147 C 0.49751 0.47459 0.83068 0.0
C148 C 0.49284 0.48107 0.80255 0.0
C149 C 0.44231 0.49208 0.79071 0.0
C150 C 0.39648 0.49589 0.80781 0.0
C151 C 0.4013 0.49016 0.83601 0.0
C152 C 0.38803 0.5251 0.93994 0.0
C153 C 0.33464 0.53402 0.93143 0.0
C154 C 0.40506 0.36277 0.10071 0.0
C155 C 0.41781 0.35018 0.07349 0.0
C156 C 0.45927 0.37832 0.0603 0.0
C157 C 0.4869 0.41832 0.07394 0.0
H158 H 0.55068 0.56975 0.06203 0.0
H159 H 0.59962 0.6358 0.03643 0.0
H160 H 0.68079 0.68548 0.10996 0.0
H161 H 0.63075 0.62011 0.13587 0.0
H162 H 0.59679 0.56416 0.19367 0.0
H163 H 0.60461 0.55112 0.24298 0.0
H164 H 0.48318 0.42975 0.23899 0.0
H165 H 0.4754 0.44211 0.19034 0.0
H166 H 0.42213 0.41079 0.13536 0.0
H167 H 0.3725 0.34304 0.11136 0.0
H168 H 0.47071 0.36929 0.03947 0.0
H169 H 0.51871 0.43916 0.06327 0.0
N170 N 0.53053 0.51007 0.1025 0.0
N171 N 0.56014 0.54594 0.14405 0.0
N172 N 0.50564 0.47084 0.1436 0.0
C173 C 0.55839 0.5476 0.11631 0.0
C174 C 0.53357 0.50755 0.15782 0.0
C175 C 0.50403 0.47164 0.11605 0.0
C176 C 0.58702 0.58926 0.10104 0.0
C177 C 0.57882 0.59478 0.07285 0.0
C178 C 0.60704 0.63259 0.05809 0.0
C179 C 0.64437 0.66572 0.07108 0.0
C180 C 0.65183 0.661 0.09937 0.0
C181 C 0.62337 0.62326 0.1142 0.0
C182 C 0.53603 0.50372 0.18792 0.0
C183 C 0.57153 0.53498 0.20338 0.0
C184 C 0.57598 0.52762 0.23158 0.0
C185 C 0.54522 0.48877 0.24467 0.0
C186 C 0.5084 0.45909 0.22935 0.0
C187 C 0.50385 0.46643 0.20139 0.0
C188 C 0.47422 0.43042 0.10118 0.0
C189 C 0.43321 0.40207 0.11444 0.0
H190 H 0.21301 0.1107 0.06366 0.0
H191 H 0.18199 0.16011 0.98065 0.0
H192 H 0.25741 0.22261 0.98344 0.0
H193 H 0.23788 0.23379 0.08976 0.0
H194 H 0.2915 0.21519 0.11257 0.0
H195 H 0.24082 0.16811 0.10299 0.0
H196 H 0.31561 0.10485 0.08556 0.0
H197 H 0.3667 0.15171 0.09528 0.0
H198 H 0.36429 0.12741 0.06076 0.0
H199 H 0.32643 0.28765 0.9968 0.0
H200 H 0.38597 0.35071 0.01998 0.0
H201 H 0.37637 0.25803 0.09386 0.0
C202 C 0.22309 0.1337 0.04588 0.0
C203 C 0.19159 0.13053 0.02198 0.0
C204 C 0.20535 0.16201 0.99926 0.0
C205 C 0.24838 0.19745 0.00054 0.0
C206 C 0.27764 0.2008 0.02461 0.0
C207 C 0.26602 0.16957 0.04683 0.0
C208 C 0.30081 0.18446 0.07101 0.0
C209 C 0.26564 0.2014 0.09551 0.0
C210 C 0.33914 0.13942 0.07859 0.0
C211 C 0.33188 0.23028 0.0592 0.0
C212 C 0.31844 0.23849 0.0323 0.0
C213 C 0.33838 0.28097 0.01768 0.0
C214 C 0.37245 0.31652 0.03103 0.0
C215 C 0.38628 0.3094 0.05876 0.0
C216 C 0.36646 0.26492 0.07272 0.0
H217 H 0.12566 0.84006 0.97338 0.0
H218 H 0.15352 0.85368 0.06036 0.0
H219 H 0.20939 0.77287 0.05868 0.0
H220 H 0.11685 0.70018 0.96924 0.0
H221 H 0.15234 0.6966 0.9371 0.0
H222 H 0.11315 0.75394 0.94566 0.0
H223 H 0.19764 0.81253 0.93803 0.0
H224 H 0.23693 0.75547 0.92923 0.0
H225 H 0.25923 0.79841 0.95619 0.0
H226 H 0.26181 0.68918 0.04677 0.0
H227 H 0.31121 0.61513 0.0255 0.0
H228 H 0.25191 0.66253 0.94616 0.0
C229 C 0.14307 0.82593 0.99218 0.0
C230 C 0.13485 0.85276 0.01706 0.0
C231 C 0.15929 0.83356 0.04108 0.0
C232 C 0.19083 0.78765 0.04033 0.0
C233 C 0.19782 0.76201 0.01536 0.0
C234 C 0.17501 0.78095 0.99172 0.0
C235 C 0.19049 0.74815 0.96721 0.0
C236 C 0.14021 0.72324 0.95404 0.0
C237 C 0.22301 0.78057 0.94645 0.0
C238 C 0.22552 0.70743 0.98068 0.0
C239 C 0.22903 0.71559 0.00847 0.0
C240 C 0.2595 0.68266 0.025 0.0
C241 C 0.28765 0.64084 0.01269 0.0
C242 C 0.28553 0.63266 0.98409 0.0
C243 C 0.25364 0.66654 0.96811 0.0
H244 H 0.81863 0.9238 0.04777 0.0
H245 H 0.87831 0.85188 0.97308 0.0
H246 H 0.81298 0.77965 0.97879 0.0
H247 H 0.80774 0.80961 0.08439 0.0
H248 H 0.74689 0.82719 0.10274 0.0
H249 H 0.79188 0.87752 0.09077 0.0
H250 H 0.71312 0.92103 0.06448 0.0
H251 H 0.66758 0.87109 0.07664 0.0
H252 H 0.67434 0.88268 0.04058 0.0
H253 H 0.74937 0.71062 0.99523 0.0
H254 H 0.69118 0.6499 0.021 0.0
H255 H 0.67254 0.76658 0.08505 0.0
C256 C 0.81692 0.89368 0.03218 0.0
C257 C 0.85336 0.89367 0.00988 0.0
C258 C 0.85068 0.85281 0.99029 0.0
C259 C 0.81361 0.81168 0.99332 0.0
C260 C 0.77943 0.81205 0.01599 0.0
C261 C 0.78045 0.85215 0.035 0.0
C262 C 0.74285 0.84091 0.05874 0.0
C263 C 0.77423 0.83867 0.08574 0.0
C264 C 0.69673 0.88133 0.06018 0.0
C265 C 0.7219 0.78745 0.05053 0.0
C266 C 0.74291 0.77186 0.02563 0.0
C267 C 0.73184 0.72278 0.01451 0.0
C268 C 0.69857 0.68862 0.02928 0.0
C269 C 0.67693 0.70356 0.05499 0.0
C270 C 0.68852 0.75391 0.06552 0.0
H271 H 0.82444 0.15083 0.01258 0.0
H272 H 0.96843 0.23108 0.98343 0.0
H273 H 0.9127 0.30709 0.97081 0.0
H274 H 0.74016 0.18965 0.96003 0.0
H275 H 0.68012 0.19785 0.98068 0.0
H276 H 0.73184 0.15246 0.9909 0.0
H277 H 0.73945 0.19964 0.0376 0.0
H278 H 0.68753 0.24522 0.02754 0.0
H279 H 0.75252 0.26907 0.0387 0.0
H280 H 0.84142 0.36991 0.9568 0.0
H281 H 0.7583 0.41584 0.94239 0.0
H282 H 0.66031 0.29549 0.98047 0.0
C283 C 0.8444 0.18486 0.00413 0.0
C284 C 0.90082 0.18504 0.99907 0.0
C285 C 0.92527 0.22998 0.98749 0.0
C286 C 0.89402 0.2735 0.98036 0.0
C287 C 0.83841 0.27162 0.98506 0.0
C288 C 0.81374 0.22864 0.99678 0.0
C289 C 0.75272 0.23501 0.99758 0.0
C290 C 0.72458 0.19115 0.98132 0.0
C291 C 0.73184 0.23739 0.02712 0.0
C292 C 0.74695 0.2875 0.98369 0.0
C293 C 0.79694 0.30819 0.97693 0.0
C294 C 0.80204 0.35456 0.96233 0.0
C295 C 0.75472 0.38017 0.95411 0.0
C296 C 0.70312 0.35925 0.96047 0.0
C297 C 0.6993 0.31282 0.97584 0.0
H298 H 0.65042 0.66864 0.51461 0.0
H299 H 0.71824 0.53009 0.55224 0.0
H300 H 0.80055 0.57976 0.56417 0.0
H301 H 0.78017 0.72521 0.48911 0.0
H302 H 0.75966 0.79119 0.49736 0.0
H303 H 0.70954 0.74311 0.488 0.0
H304 H 0.65755 0.76125 0.53307 0.0
H305 H 0.70737 0.8093 0.54252 0.0
H306 H 0.69269 0.75556 0.56504 0.0
H307 H 0.87112 0.64509 0.57565 0.0
H308 H 0.92363 0.72349 0.58842 0.0
H309 H 0.80917 0.8214 0.54522 0.0
C310 C 0.68325 0.64856 0.52475 0.0
C311 C 0.67833 0.59547 0.53231 0.0
C312 C 0.72134 0.57075 0.54625 0.0
C313 C 0.76835 0.59853 0.55295 0.0
C314 C 0.77162 0.65107 0.54569 0.0
C315 C 0.73022 0.67601 0.53199 0.0
C316 C 0.7416 0.7341 0.52923 0.0
C317 C 0.74814 0.74928 0.49913 0.0
C318 C 0.69717 0.76696 0.54331 0.0
C319 C 0.79504 0.73807 0.5442 0.0
C320 C 0.81203 0.68949 0.55305 0.0
C321 C 0.85854 0.68329 0.56864 0.0
C322 C 0.88788 0.72806 0.57593 0.0
C323 C 0.87035 0.77846 0.56787 0.0
C324 C 0.82398 0.78329 0.55128 0.0
H325 H 0.68669 0.36965 0.52455 0.0
H326 H 0.54768 0.26629 0.52557 0.0
H327 H 0.60824 0.18997 0.51842 0.0
H328 H 0.74783 0.3096 0.46964 0.0
H329 H 0.81667 0.31878 0.48079 0.0
H330 H 0.76468 0.36339 0.49198 0.0
H331 H 0.78859 0.34457 0.54235 0.0
H332 H 0.84103 0.29998 0.53129 0.0
H333 H 0.78887 0.27799 0.55437 0.0
H334 H 0.68276 0.12633 0.50679 0.0
H335 H 0.76313 0.0818 0.48708 0.0
H336 H 0.85198 0.22802 0.48948 0.0
C337 C 0.66943 0.33066 0.52433 0.0
C338 C 0.6129 0.32335 0.52637 0.0
C339 C 0.59111 0.27227 0.52459 0.0
C340 C 0.62519 0.22882 0.5206 0.0
C341 C 0.68081 0.23737 0.51799 0.0
C342 C 0.70274 0.28714 0.51957 0.0
C343 C 0.76236 0.28681 0.51205 0.0
C344 C 0.77349 0.32169 0.48714 0.0
C345 C 0.79727 0.30331 0.53647 0.0
C346 C 0.77024 0.22941 0.50524 0.0
C347 C 0.72315 0.20127 0.50953 0.0
C348 C 0.72 0.14787 0.50364 0.0
C349 C 0.76579 0.12287 0.49254 0.0
C350 C 0.81355 0.15154 0.48692 0.0
C351 C 0.81595 0.20525 0.49377 0.0
H352 H 0.36194 0.31429 0.51006 0.0
H353 H 0.26487 0.45535 0.51706 0.0
H354 H 0.18228 0.40127 0.52219 0.0
H355 H 0.25977 0.22986 0.47544 0.0
H356 H 0.27935 0.17342 0.49497 0.0
H357 H 0.32882 0.22284 0.48669 0.0
H358 H 0.35124 0.23388 0.53796 0.0
H359 H 0.30209 0.1846 0.54635 0.0
H360 H 0.29738 0.2487 0.56174 0.0
H361 H 0.11177 0.3317 0.5311 0.0
H362 H 0.06177 0.25382 0.54765 0.0
H363 H 0.20642 0.15955 0.53746 0.0
C364 C 0.32309 0.33382 0.51183 0.0
C365 C 0.3196 0.38895 0.51276 0.0
C366 C 0.2683 0.4131 0.5161 0.0
C367 C 0.22119 0.3827 0.51885 0.0
C368 C 0.22619 0.32829 0.51839 0.0
C369 C 0.27599 0.30412 0.51512 0.0
C370 C 0.2718 0.24553 0.51898 0.0
C371 C 0.28576 0.21619 0.49243 0.0
C372 C 0.30773 0.22714 0.54267 0.0
C373 C 0.21224 0.24058 0.52584 0.0
C374 C 0.18618 0.28847 0.52467 0.0
C375 C 0.13159 0.29392 0.53172 0.0
C376 C 0.10345 0.24959 0.54096 0.0
C377 C 0.13037 0.20099 0.54354 0.0
C378 C 0.18495 0.19629 0.53528 0.0
H379 H 0.32288 0.64629 0.51107 0.0
H380 H 0.47346 0.70361 0.47611 0.0
H381 H 0.42689 0.78391 0.46142 0.0
H382 H 0.23849 0.68996 0.45843 0.0
H383 H 0.18247 0.70806 0.48023 0.0
H384 H 0.22852 0.65732 0.49055 0.0
H385 H 0.24754 0.70757 0.53549 0.0
H386 H 0.20147 0.75857 0.52529 0.0
H387 H 0.27033 0.77457 0.53414 0.0
H388 H 0.36366 0.85463 0.44758 0.0
H389 H 0.28681 0.91097 0.43466 0.0
H390 H 0.17641 0.80835 0.47797 0.0
C391 C 0.34627 0.67613 0.50075 0.0
C392 C 0.40194 0.66865 0.49484 0.0
C393 C 0.43083 0.70833 0.48087 0.0
C394 C 0.40479 0.75424 0.47253 0.0
C395 C 0.34983 0.76005 0.47833 0.0
C396 C 0.32081 0.72219 0.49212 0.0
C397 C 0.26133 0.73681 0.49417 0.0
C398 C 0.22562 0.69559 0.47999 0.0
C399 C 0.24417 0.74486 0.52405 0.0
C400 C 0.26132 0.78817 0.47882 0.0
C401 C 0.31297 0.80102 0.47013 0.0
C402 C 0.3231 0.84525 0.45445 0.0
C403 C 0.2792 0.87683 0.4471 0.0
C404 C 0.22574 0.86399 0.45531 0.0
C405 C 0.21694 0.81952 0.47177 0.0
H406 H 0.06759 0.01811 0.13054 0.0
H407 H 0.8981 0.04822 0.11273 0.0
H408 H 0.87864 0.05595 0.16179 0.0
H409 H 0.04464 0.94046 0.19032 0.0
H410 H 0.1019 0.96648 0.20858 0.0
H411 H 0.10316 0.96376 0.1719 0.0
H412 H 0.12253 0.0634 0.17016 0.0
H413 H 0.12139 0.06642 0.20684 0.0
H414 H 0.07732 0.10821 0.18742 0.0
H415 H 0.87656 0.05886 0.21259 0.0
H416 H 0.89231 0.0571 0.2621 0.0
H417 H 0.06345 0.02778 0.24741 0.0
C418 C 0.0264 0.02636 0.13693 0.0
C419 C 0.98444 0.03254 0.11765 0.0
C420 C 0.93108 0.04338 0.12698 0.0
C421 C 0.91951 0.04785 0.15486 0.0
C422 C 0.96168 0.04156 0.17326 0.0
C423 C 0.01407 0.03114 0.16476 0.0
C424 C 0.0518 0.02601 0.1889 0.0
C425 C 0.07684 0.9709 0.18998 0.0
C426 C 0.09586 0.06855 0.18828 0.0
C427 C 0.01229 0.03491 0.21224 0.0
C428 C 0.96056 0.04382 0.20272 0.0
C429 C 0.91699 0.05234 0.22032 0.0
C430 C 0.92646 0.05165 0.24844 0.0
C431 C 0.97919 0.04268 0.2588 0.0
C432 C 0.02258 0.03433 0.24028 0.0
H433 H 0.98577 0.96534 0.89675 0.0
H434 H 0.11387 0.07774 0.9124 0.0
H435 H 0.13242 0.08358 0.8631 0.0
H436 H 0.04929 0.89921 0.83845 0.0
H437 H 0.9866 0.8927 0.82004 0.0
H438 H 0.98607 0.89364 0.85676 0.0
H439 H 0.91826 0.97115 0.85649 0.0
H440 H 0.91852 0.97038 0.81981 0.0
H441 H 0.93515 0.02973 0.83796 0.0
H442 H 0.1365 0.07866 0.81258 0.0
H443 H 0.12184 0.06813 0.76331 0.0
H444 H 0.9864 0.96407 0.7797 0.0
C445 C 0.01815 0.99058 0.88974 0.0
C446 C 0.04866 0.02085 0.90832 0.0
C447 C 0.09 0.0543 0.89845 0.0
C448 C 0.10103 0.05768 0.87053 0.0
C449 C 0.06997 0.0278 0.8527 0.0
C450 C 0.02907 0.99522 0.86179 0.0
C451 C -0.00064 0.97028 0.83807 0.0
C452 C 0.00573 0.9104 0.83835 0.0
C453 C 0.93927 0.98637 0.83809 0.0
C454 C 0.02978 0.99428 0.8143 0.0
C455 C 0.07078 0.02674 0.82327 0.0
C456 C 0.10431 0.05359 0.80527 0.0
C457 C 0.09529 0.04769 0.77728 0.0
C458 C 0.05251 0.01578 0.76747 0.0
C459 C 0.01977 0.98836 0.78639 0.0
H460 H 0.51907 0.45388 0.63325 0.0
H461 H 0.39628 0.57009 0.6148 0.0
H462 H 0.37534 0.57904 0.66382 0.0
H463 H 0.44367 0.391 0.68694 0.0
H464 H 0.50263 0.37833 0.70742 0.0
H465 H 0.50891 0.38191 0.6709 0.0
H466 H 0.5822 0.45393 0.67592 0.0
H467 H 0.57612 0.45058 0.71245 0.0
H468 H 0.56703 0.51225 0.69537 0.0
H469 H 0.36939 0.57707 0.71486 0.0
H470 H 0.37634 0.56201 0.76424 0.0
H471 H 0.49864 0.44263 0.74919 0.0
C472 C 0.48796 0.48139 0.63953 0.0
C473 C 0.45947 0.51146 0.6202 0.0
C474 C 0.41856 0.54655 0.62923 0.0
C475 C 0.40644 0.55201 0.65703 0.0
C476 C 0.43517 0.5217 0.67553 0.0
C477 C 0.4748 0.4868 0.66717 0.0
C478 C 0.49869 0.45796 0.69119 0.0
C479 C 0.4878 0.3988 0.68897 0.0
C480 C 0.55962 0.46939 0.69389 0.0
C481 C 0.46665 0.48248 0.71435 0.0
C482 C 0.4304 0.51929 0.70489 0.0
C483 C 0.39721 0.54792 0.7225 0.0
C484 C 0.40117 0.53871 0.75056 0.0
C485 C 0.43774 0.50078 0.7608 0.0
C486 C 0.47064 0.47229 0.74224 0.0
H487 H 0.5368 0.55196 0.40411 0.0
H488 H 0.53426 0.38378 0.41672 0.0
H489 H 0.54757 0.36946 0.36747 0.0
H490 H 0.46087 0.55004 0.34344 0.0
H491 H 0.49778 0.60226 0.3272 0.0
H492 H 0.49349 0.59973 0.36378 0.0
H493 H 0.59828 0.60125 0.36676 0.0
H494 H 0.6029 0.60366 0.33012 0.0
H495 H 0.63731 0.55266 0.34849 0.0
H496 H 0.5562 0.37264 0.31727 0.0
H497 H 0.55498 0.39307 0.26827 0.0
H498 H 0.54927 0.55914 0.28735 0.0
C499 C 0.5399 0.51216 0.39653 0.0
C500 C 0.53476 0.46897 0.41425 0.0
C501 C 0.538 0.41746 0.40352 0.0
C502 C 0.54588 0.4089 0.3756 0.0
C503 C 0.55028 0.45223 0.35867 0.0
C504 C 0.5472 0.50286 0.36861 0.0
C505 C 0.54929 0.54233 0.34566 0.0
C506 C 0.49726 0.57553 0.34498 0.0
C507 C 0.59998 0.57702 0.34789 0.0
C508 C 0.55299 0.50585 0.32126 0.0
C509 C 0.55421 0.4541 0.32934 0.0
C510 C 0.55549 0.41299 0.31065 0.0
C511 C 0.55448 0.42498 0.2829 0.0
C512 C 0.55173 0.47764 0.27406 0.0
C513 C 0.55202 0.51859 0.29354 0.0
loop_
_geom_bond_atom_site_label_1
_geom_bond_atom_site_label_2
_geom_bond_distance
_geom_bond_site_symmetry_2
_ccdc_geom_bond_type
O0 Zn1 1.953 . S
O0 C16 1.225 1_565 S
Zn1 O0 1.953 . S
Zn1 O2 1.949 1_565 S
Zn1 O8 1.919 . S
Zn1 O13 1.924 1_565 S
O2 Zn1 1.949 1_545 S
O2 Zn3 1.923 1_444 S
O2 Zn4 1.950 1_455 S
O2 Zn5 1.945 1_554 S
Zn3 O2 1.923 1_666 S
Zn3 O6 1.933 . S
Zn3 O9 1.941 1_655 S
Zn3 O10 1.959 1_556 S
Zn4 O2 1.950 1_655 S
Zn4 O11 1.938 1_545 S
Zn4 O12 1.906 . S
Zn4 O22 1.953 . S
Zn5 O2 1.945 1_556 S
Zn5 O7 1.932 . S
Zn5 O14 1.977 1_455 S
Zn5 O15 1.910 1_556 S
O6 Zn3 1.933 . S
O6 C17 1.226 1_665 S
O7 Zn5 1.932 . S
O7 C17 1.307 . S
O8 Zn1 1.919 . S
O8 C19 1.253 . S
O9 Zn3 1.941 1_455 S
O9 C19 1.283 1_556 S
O10 Zn3 1.959 1_554 S
O10 C18 1.325 . S
O11 Zn4 1.938 1_565 S
O11 C18 1.247 . S
O12 Zn4 1.906 . S
O12 C20 1.304 . S
O13 Zn1 1.924 1_545 S
O13 C21 1.311 . S
O14 Zn5 1.977 1_655 S
O14 C20 1.272 1_556 S
O15 Zn5 1.910 1_554 S
O15 C21 1.231 . S
C16 O0 1.225 1_545 S
C16 O22 1.298 1_455 S
C17 O6 1.226 1_445 S
C17 O7 1.307 . S
C18 O10 1.325 . S
C18 O11 1.247 . S
C19 O8 1.253 . S
C19 O9 1.283 1_554 S
C20 O12 1.304 . S
C20 O14 1.272 1_554 S
C21 O13 1.311 . S
C21 O15 1.231 . S
O22 Zn4 1.953 . S
O22 C16 1.298 1_655 S
O23 Zn24 1.953 . S
O23 C39 1.225 . S
Zn24 O23 1.953 . S
Zn24 O25 1.949 . S
Zn24 O31 1.919 . S
Zn24 O36 1.924 . S
O25 Zn24 1.949 . S
O25 Zn26 1.923 . S
O25 Zn27 1.950 . S
O25 Zn28 1.945 . S
Zn26 O25 1.923 . S
Zn26 O29 1.933 . S
Zn26 O32 1.941 . S
Zn26 O33 1.965 . S
Zn27 O25 1.950 . S
Zn27 O34 1.938 . S
Zn27 O35 1.906 . S
Zn27 O45 1.953 . S
Zn28 O25 1.945 . S
Zn28 O30 1.932 . S
Zn28 O37 1.977 . S
Zn28 O38 1.910 . S
O29 Zn26 1.933 . S
O29 C40 1.226 . S
O30 Zn28 1.932 . S
O30 C40 1.307 . S
O31 Zn24 1.919 . S
O31 C42 1.253 . S
O32 Zn26 1.941 . S
O32 C42 1.283 . S
O33 Zn26 1.965 . S
O33 C41 1.303 . S
O34 Zn27 1.938 . S
O34 C41 1.247 . S
O35 Zn27 1.906 . S
O35 C43 1.304 . S
O36 Zn24 1.924 . S
O36 C44 1.311 . S
O37 Zn28 1.977 . S
O37 C43 1.272 . S
O38 Zn28 1.910 . S
O38 C44 1.231 . S
C39 O23 1.225 . S
C39 O45 1.298 . S
C40 O29 1.226 . S
C40 O30 1.307 . S
C41 O33 1.303 . S
C41 O34 1.247 . S
C42 O31 1.253 . S
C42 O32 1.283 . S
C43 O35 1.304 . S
C43 O37 1.272 . S
C44 O36 1.311 . S
C44 O38 1.231 . S
O45 Zn27 1.953 . S
O45 C39 1.298 . S
C46 C47 1.384 . S
C46 H59 0.947 . S
C46 C81 1.382 . S
C47 C46 1.384 . S
C47 C48 1.378 . S
C48 C47 1.378 . S
C48 C49 1.378 . S
C48 H60 0.952 . S
C49 C48 1.378 . S
C49 H61 0.950 . S
C49 C80 1.383 . S
H50 C69 0.947 . S
H51 C70 0.946 . S
H52 C72 0.953 . S
H53 C73 0.945 . S
H54 C75 0.952 . S
H55 C76 0.949 . S
H56 C78 0.950 . S
H57 C79 0.948 . S
H58 C81 0.951 . S
H59 C46 0.947 . S
H60 C48 0.952 . S
H61 C49 0.950 . S
N62 C65 1.382 1_545 S
N62 C67 1.363 1_455 S
N63 C65 1.371 . S
N63 C66 1.372 1_565 S
N64 C66 1.361 1_655 S
N64 C67 1.377 . S
C65 N62 1.382 1_565 S
C65 N63 1.371 . S
C65 C68 1.480 . S
C66 N63 1.372 1_545 S
C66 N64 1.361 1_455 S
C66 C74 1.457 . S
C67 N62 1.363 1_655 S
C67 N64 1.377 . S
C67 C80 1.479 . S
C68 C65 1.480 . S
C68 C69 1.383 . S
C68 C73 1.385 . S
C69 H50 0.947 . S
C69 C68 1.383 . S
C69 C70 1.388 . S
C70 H51 0.946 . S
C70 C69 1.388 . S
C70 C71 1.384 . S
C71 C70 1.384 . S
C71 C72 1.377 . S
C72 H52 0.953 . S
C72 C71 1.377 . S
C72 C73 1.369 . S
C73 H53 0.945 . S
C73 C68 1.385 . S
C73 C72 1.369 . S
C74 C66 1.457 . S
C74 C75 1.372 1_545 S
C74 C79 1.364 1_455 S
C75 H54 0.952 . S
C75 C74 1.372 1_565 S
C75 C76 1.389 . S
C76 H55 0.949 . S
C76 C75 1.389 . S
C76 C77 1.387 1_565 S
C77 C76 1.387 1_545 S
C77 C78 1.372 1_455 S
C78 H56 0.950 . S
C78 C77 1.372 1_655 S
C78 C79 1.379 . S
C79 H57 0.948 . S
C79 C74 1.364 1_655 S
C79 C78 1.379 . S
C80 C49 1.383 . S
C80 C67 1.479 . S
C80 C81 1.398 . S
C81 C46 1.382 . S
C81 H58 0.951 . S
C81 C80 1.398 . S
C82 C83 1.384 . S
C82 H95 0.947 . S
C82 C117 1.382 . S
C83 C82 1.384 . S
C83 C84 1.378 . S
C84 C83 1.378 . S
C84 C85 1.378 . S
C84 H96 0.952 . S
C85 C84 1.378 . S
C85 H97 0.950 . S
C85 C116 1.383 . S
H86 C105 0.947 . S
H87 C106 0.946 . S
H88 C108 0.953 . S
H89 C109 0.945 . S
H90 C111 0.952 . S
H91 C112 0.949 . S
H92 C114 0.950 . S
H93 C115 0.948 . S
H94 C117 0.951 . S
H95 C82 0.947 . S
H96 C84 0.952 . S
H97 C85 0.950 . S
N98 C101 1.382 1_565 S
N98 C103 1.363 1_455 S
N99 C101 1.371 . S
N99 C102 1.372 1_545 S
N100 C102 1.361 1_655 S
N100 C103 1.377 . S
C101 N98 1.382 1_545 S
C101 N99 1.371 . S
C101 C104 1.480 . S
C102 N99 1.372 1_565 S
C102 N100 1.361 1_455 S
C102 C110 1.457 . S
C103 N98 1.363 1_655 S
C103 N100 1.377 . S
C103 C116 1.479 . S
C104 C101 1.480 . S
C104 C105 1.383 . S
C104 C109 1.385 . S
C105 H86 0.947 . S
C105 C104 1.383 . S
C105 C106 1.388 . S
C106 H87 0.946 . S
C106 C105 1.388 . S
C106 C107 1.384 . S
C107 C106 1.384 . S
C107 C108 1.377 . S
C108 H88 0.953 . S
C108 C107 1.377 . S
C108 C109 1.369 . S
C109 H89 0.945 . S
C109 C104 1.385 . S
C109 C108 1.369 . S
C110 C102 1.457 . S
C110 C111 1.372 1_565 S
C110 C115 1.364 1_455 S
C111 H90 0.952 . S
C111 C110 1.372 1_545 S
C111 C112 1.389 . S
C112 H91 0.949 . S
C112 C111 1.389 . S
C112 C113 1.382 1_545 S
C113 C112 1.382 1_565 S
C113 C114 1.377 1_455 S
C114 H92 0.950 . S
C114 C113 1.377 1_655 S
C114 C115 1.379 . S
C115 H93 0.948 . S
C115 C110 1.364 1_655 S
C115 C114 1.379 . S
C116 C85 1.383 . S
C116 C103 1.479 . S
C116 C117 1.398 . S
C117 C82 1.382 . S
C117 H94 0.951 . S
C117 C116 1.398 . S
C118 C119 1.384 . S
C118 H131 0.947 . S
C118 C153 1.382 . S
C119 C118 1.384 . S
C119 C120 1.378 . S
C120 C119 1.378 . S
C120 C121 1.378 . S
C120 H132 0.952 . S
C121 C120 1.378 . S
C121 H133 0.950 . S
C121 C152 1.383 . S
H122 C141 0.947 . S
H123 C142 0.946 . S
H124 C144 0.953 . S
H125 C145 0.945 . S
H126 C147 0.952 . S
H127 C148 0.949 . S
H128 C150 0.950 . S
H129 C151 0.948 . S
H130 C153 0.951 . S
H131 C118 0.947 . S
H132 C120 0.952 . S
H133 C121 0.950 . S
N134 C137 1.382 . S
N134 C139 1.363 . S
N135 C137 1.371 . S
N135 C138 1.372 . S
N136 C138 1.361 . S
N136 C139 1.377 . S
C137 N134 1.382 . S
C137 N135 1.371 . S
C137 C140 1.480 . S
C138 N135 1.372 . S
C138 N136 1.361 . S
C138 C146 1.457 . S
C139 N134 1.363 . S
C139 N136 1.377 . S
C139 C152 1.479 . S
C140 C137 1.480 . S
C140 C141 1.383 . S
C140 C145 1.385 . S
C141 H122 0.947 . S
C141 C140 1.383 . S
C141 C142 1.388 . S
C142 H123 0.946 . S
C142 C141 1.388 . S
C142 C143 1.384 . S
C143 C142 1.384 . S
C143 C144 1.377 . S
C144 H124 0.953 . S
C144 C143 1.377 . S
C144 C145 1.369 . S
C145 H125 0.945 . S
C145 C140 1.385 . S
C145 C144 1.369 . S
C146 C138 1.457 . S
C146 C147 1.372 . S
C146 C151 1.364 . S
C147 H126 0.952 . S
C147 C146 1.372 . S
C147 C148 1.389 . S
C148 H127 0.949 . S
C148 C147 1.389 . S
C148 C149 1.387 . S
C149 C148 1.387 . S
C149 C150 1.372 . S
C150 H128 0.950 . S
C150 C149 1.372 . S
C150 C151 1.379 . S
C151 H129 0.948 . S
C151 C146 1.364 . S
C151 C150 1.379 . S
C152 C121 1.383 . S
C152 C139 1.479 . S
C152 C153 1.398 . S
C153 C118 1.382 . S
C153 H130 0.951 . S
C153 C152 1.398 . S
C154 C155 1.384 . S
C154 H167 0.947 . S
C154 C189 1.382 . S
C155 C154 1.384 . S
C155 C156 1.378 . S
C156 C155 1.378 . S
C156 C157 1.378 . S
C156 H168 0.952 . S
C157 C156 1.378 . S
C157 H169 0.950 . S
C157 C188 1.383 . S
H158 C177 0.947 . S
H159 C178 0.946 . S
H160 C180 0.953 . S
H161 C181 0.945 . S
H162 C183 0.952 . S
H163 C184 0.949 . S
H164 C186 0.950 . S
H165 C187 0.948 . S
H166 C189 0.951 . S
H167 C154 0.947 . S
H168 C156 0.952 . S
H169 C157 0.950 . S
N170 C173 1.382 . S
N170 C175 1.363 . S
N171 C173 1.371 . S
N171 C174 1.372 . S
N172 C174 1.361 . S
N172 C175 1.377 . S
C173 N170 1.382 . S
C173 N171 1.371 . S
C173 C176 1.480 . S
C174 N171 1.372 . S
C174 N172 1.361 . S
C174 C182 1.457 . S
C175 N170 1.363 . S
C175 N172 1.377 . S
C175 C188 1.479 . S
C176 C173 1.480 . S
C176 C177 1.383 . S
C176 C181 1.385 . S
C177 H158 0.947 . S
C177 C176 1.383 . S
C177 C178 1.388 . S
C178 H159 0.946 . S
C178 C177 1.388 . S
C178 C179 1.384 . S
C179 C178 1.384 . S
C179 C180 1.377 . S
C180 H160 0.953 . S
C180 C179 1.377 . S
C180 C181 1.369 . S
C181 H161 0.945 . S
C181 C176 1.385 . S
C181 C180 1.369 . S
C182 C174 1.457 . S
C182 C183 1.372 . S
C182 C187 1.364 . S
C183 H162 0.952 . S
C183 C182 1.372 . S
C183 C184 1.389 . S
C184 H163 0.949 . S
C184 C183 1.389 . S
C184 C185 1.387 . S
C185 C184 1.387 . S
C185 C186 1.372 . S
C186 H164 0.950 . S
C186 C185 1.372 . S
C186 C187 1.379 . S
C187 H165 0.948 . S
C187 C182 1.364 . S
C187 C186 1.379 . S
C188 C157 1.383 . S
C188 C175 1.479 . S
C188 C189 1.398 . S
C189 C154 1.382 . S
C189 H166 0.951 . S
C189 C188 1.398 . S
H190 C202 0.930 . S
H191 C204 0.930 1_556 S
H192 C205 0.930 1_556 S
H193 C209 0.959 . S
H194 C209 0.959 . S
H195 C209 0.961 . S
H196 C210 0.960 . S
H197 C210 0.961 . S
H198 C210 0.959 . S
H199 C213 0.929 . S
H200 C214 0.931 . S
H201 C216 0.930 . S
C202 H190 0.930 . S
C202 C203 1.399 . S
C202 C207 1.399 . S
C203 C202 1.399 . S
C203 C204 1.376 . S
C204 H191 0.930 1_554 S
C204 C203 1.376 . S
C204 C205 1.388 . S
C205 H192 0.930 1_554 S
C205 C204 1.388 . S
C205 C206 1.390 . S
C206 C205 1.390 . S
C206 C207 1.394 . S
C206 C212 1.465 . S
C207 C202 1.399 . S
C207 C206 1.394 . S
C207 C208 1.516 . S
C208 C207 1.516 . S
C208 C209 1.502 . S
C208 C210 1.561 . S
C208 C211 1.526 . S
C209 H193 0.959 . S
C209 H194 0.959 . S
C209 H195 0.961 . S
C209 C208 1.502 . S
C210 H196 0.960 . S
C210 H197 0.961 . S
C210 H198 0.959 . S
C210 C208 1.561 . S
C211 C208 1.526 . S
C211 C212 1.396 . S
C211 C216 1.390 . S
C212 C206 1.465 . S
C212 C211 1.396 . S
C212 C213 1.399 . S
C213 H199 0.929 . S
C213 C212 1.399 . S
C213 C214 1.385 . S
C214 H200 0.931 . S
C214 C213 1.385 . S
C214 C215 1.389 . S
C215 C214 1.389 . S
C215 C216 1.387 . S
C216 H201 0.930 . S
C216 C211 1.390 . S
C216 C215 1.387 . S
H217 C229 0.930 . S
H218 C231 0.930 . S
H219 C232 0.930 . S
H220 C236 0.959 . S
H221 C236 0.959 . S
H222 C236 0.961 . S
H223 C237 0.960 . S
H224 C237 0.961 . S
H225 C237 0.959 . S
H226 C240 0.929 . S
H227 C241 0.931 1_554 S
H228 C243 0.930 . S
C229 H217 0.930 . S
C229 C230 1.407 . S
C229 C234 1.399 . S
C230 C229 1.407 . S
C230 C231 1.368 1_556 S
C231 H218 0.930 . S
C231 C230 1.368 1_554 S
C231 C232 1.388 . S
C232 H219 0.930 . S
C232 C231 1.388 . S
C232 C233 1.390 1_554 S
C233 C232 1.390 1_556 S
C233 C234 1.394 . S
C233 C239 1.465 . S
C234 C229 1.399 . S
C234 C233 1.394 . S
C234 C235 1.516 . S
C235 C234 1.516 . S
C235 C236 1.502 . S
C235 C237 1.561 . S
C235 C238 1.526 . S
C236 H220 0.959 . S
C236 H221 0.959 . S
C236 H222 0.961 . S
C236 C235 1.502 . S
C237 H223 0.960 . S
C237 H224 0.961 . S
C237 H225 0.959 . S
C237 C235 1.561 . S
C238 C235 1.526 . S
C238 C239 1.396 . S
C238 C243 1.390 . S
C239 C233 1.465 . S
C239 C238 1.396 . S
C239 C240 1.399 1_556 S
C240 H226 0.929 . S
C240 C239 1.399 1_554 S
C240 C241 1.385 1_554 S
C241 H227 0.931 1_556 S
C241 C240 1.385 1_556 S
C241 C242 1.389 . S
C242 C241 1.389 . S
C242 C243 1.387 . S
C243 H228 0.930 . S
C243 C238 1.390 . S
C243 C242 1.387 . S
H244 C256 0.930 . S
H245 C258 0.930 1_556 S
H246 C259 0.930 1_556 S
H247 C263 0.959 . S
H248 C263 0.959 . S
H249 C263 0.961 . S
H250 C264 0.960 . S
H251 C264 0.961 . S
H252 C264 0.959 . S
H253 C267 0.929 . S
H254 C268 0.931 . S
H255 C270 0.930 . S
C256 H244 0.930 . S
C256 C257 1.399 . S
C256 C261 1.399 . S
C257 C256 1.399 . S
C257 C258 1.376 . S
C258 H245 0.930 1_554 S
C258 C257 1.376 . S
C258 C259 1.388 . S
C259 H246 0.930 1_554 S
C259 C258 1.388 . S
C259 C260 1.390 . S
C260 C259 1.390 . S
C260 C261 1.394 . S
C260 C266 1.465 . S
C261 C256 1.399 . S
C261 C260 1.394 . S
C261 C262 1.516 . S
C262 C261 1.516 . S
C262 C263 1.502 . S
C262 C264 1.561 . S
C262 C265 1.526 . S
C263 H247 0.959 . S
C263 H248 0.959 . S
C263 H249 0.961 . S
C263 C262 1.502 . S
C264 H250 0.960 . S
C264 H251 0.961 . S
C264 H252 0.959 . S
C264 C262 1.561 . S
C265 C262 1.526 . S
C265 C266 1.396 . S
C265 C270 1.390 . S
C266 C260 1.465 . S
C266 C265 1.396 . S
C266 C267 1.399 . S
C267 H253 0.929 . S
C267 C266 1.399 . S
C267 C268 1.385 . S
C268 H254 0.931 . S
C268 C267 1.385 . S
C268 C269 1.389 . S
C269 C268 1.389 . S
C269 C270 1.387 . S
C270 H255 0.930 . S
C270 C265 1.390 . S
C270 C269 1.387 . S
H271 C283 0.930 . S
H272 C285 0.930 . S
H273 C286 0.930 . S
H274 C290 0.959 . S
H275 C290 0.959 . S
H276 C290 0.961 . S
H277 C291 0.960 . S
H278 C291 0.961 . S
H279 C291 0.959 . S
H280 C294 0.929 . S
H281 C295 0.931 . S
H282 C297 0.930 1_554 S
C283 H271 0.930 . S
C283 C284 1.399 1_554 S
C283 C288 1.397 1_554 S
C284 C283 1.399 1_556 S
C284 C285 1.376 . S
C285 H272 0.930 . S
C285 C284 1.376 . S
C285 C286 1.388 . S
C286 H273 0.930 . S
C286 C285 1.388 . S
C286 C287 1.390 . S
C287 C286 1.390 . S
C287 C288 1.399 . S
C287 C293 1.465 . S
C288 C283 1.397 1_556 S
C288 C287 1.399 . S
C288 C289 1.514 1_556 S
C289 C288 1.514 1_554 S
C289 C290 1.502 . S
C289 C291 1.561 . S
C289 C292 1.526 1_554 S
C290 H274 0.959 . S
C290 H275 0.959 . S
C290 H276 0.961 . S
C290 C289 1.502 . S
C291 H277 0.960 . S
C291 H278 0.961 . S
C291 H279 0.959 . S
C291 C289 1.561 . S
C292 C289 1.526 1_556 S
C292 C293 1.396 . S
C292 C297 1.390 . S
C293 C287 1.465 . S
C293 C292 1.396 . S
C293 C294 1.399 . S
C294 H280 0.929 . S
C294 C293 1.399 . S
C294 C295 1.385 . S
C295 H281 0.931 . S
C295 C294 1.385 . S
C295 C296 1.389 . S
C296 C295 1.389 . S
C296 C297 1.387 . S
C297 H282 0.930 1_556 S
C297 C292 1.390 . S
C297 C296 1.387 . S
H298 C310 0.930 . S
H299 C312 0.930 . S
H300 C313 0.930 . S
H301 C317 0.959 . S
H302 C317 0.959 . S
H303 C317 0.961 . S
H304 C318 0.960 . S
H305 C318 0.961 . S
H306 C318 0.959 . S
H307 C321 0.929 . S
H308 C322 0.931 . S
H309 C324 0.930 . S
C310 H298 0.930 . S
C310 C311 1.399 . S
C310 C315 1.399 . S
C311 C310 1.399 . S
C311 C312 1.376 . S
C312 H299 0.930 . S
C312 C311 1.376 . S
C312 C313 1.388 . S
C313 H300 0.930 . S
C313 C312 1.388 . S
C313 C314 1.390 . S
C314 C313 1.390 . S
C314 C315 1.394 . S
C314 C320 1.465 . S
C315 C310 1.399 . S
C315 C314 1.394 . S
C315 C316 1.516 . S
C316 C315 1.516 . S
C316 C317 1.502 . S
C316 C318 1.561 . S
C316 C319 1.526 . S
C317 H301 0.959 . S
C317 H302 0.959 . S
C317 H303 0.961 . S
C317 C316 1.502 . S
C318 H304 0.960 . S
C318 H305 0.961 . S
C318 H306 0.959 . S
C318 C316 1.561 . S
C319 C316 1.526 . S
C319 C320 1.396 . S
C319 C324 1.390 . S
C320 C314 1.465 . S
C320 C319 1.396 . S
C320 C321 1.399 . S
C321 H307 0.929 . S
C321 C320 1.399 . S
C321 C322 1.385 . S
C322 H308 0.931 . S
C322 C321 1.385 . S
C322 C323 1.389 . S
C323 C322 1.389 . S
C323 C324 1.387 . S
C324 H309 0.930 . S
C324 C319 1.390 . S
C324 C323 1.387 . S
H325 C337 0.930 . S
H326 C339 0.930 . S
H327 C340 0.930 . S
H328 C344 0.959 . S
H329 C344 0.959 . S
H330 C344 0.961 . S
H331 C345 0.960 . S
H332 C345 0.961 . S
H333 C345 0.959 . S
H334 C348 0.929 . S
H335 C349 0.931 . S
H336 C351 0.930 . S
C337 H325 0.930 . S
C337 C338 1.399 . S
C337 C342 1.399 . S
C338 C337 1.399 . S
C338 C339 1.376 . S
C339 H326 0.930 . S
C339 C338 1.376 . S
C339 C340 1.388 . S
C340 H327 0.930 . S
C340 C339 1.388 . S
C340 C341 1.390 . S
C341 C340 1.390 . S
C341 C342 1.394 . S
C341 C347 1.465 . S
C342 C337 1.399 . S
C342 C341 1.394 . S
C342 C343 1.516 . S
C343 C342 1.516 . S
C343 C344 1.502 . S
C343 C345 1.561 . S
C343 C346 1.526 . S
C344 H328 0.959 . S
C344 H329 0.959 . S
C344 H330 0.961 . S
C344 C343 1.502 . S
C345 H331 0.960 . S
C345 H332 0.961 . S
C345 H333 0.959 . S
C345 C343 1.561 . S
C346 C343 1.526 . S
C346 C347 1.396 . S
C346 C351 1.390 . S
C347 C341 1.465 . S
C347 C346 1.396 . S
C347 C348 1.399 . S
C348 H334 0.929 . S
C348 C347 1.399 . S
C348 C349 1.385 . S
C349 H335 0.931 . S
C349 C348 1.385 . S
C349 C350 1.389 . S
C350 C349 1.389 . S
C350 C351 1.387 . S
C351 H336 0.930 . S
C351 C346 1.390 . S
C351 C350 1.387 . S
H352 C364 0.930 . S
H353 C366 0.930 . S
H354 C367 0.930 . S
H355 C371 0.959 . S
H356 C371 0.959 . S
H357 C371 0.961 . S
H358 C372 0.960 . S
H359 C372 0.961 . S
H360 C372 0.959 . S
H361 C375 0.929 . S
H362 C376 0.931 . S
H363 C378 0.930 . S
C364 H352 0.930 . S
C364 C365 1.399 . S
C364 C369 1.399 . S
C365 C364 1.399 . S
C365 C366 1.376 . S
C366 H353 0.930 . S
C366 C365 1.376 . S
C366 C367 1.388 . S
C367 H354 0.930 . S
C367 C366 1.388 . S
C367 C368 1.390 . S
C368 C367 1.390 . S
C368 C369 1.394 . S
C368 C374 1.465 . S
C369 C364 1.399 . S
C369 C368 1.394 . S
C369 C370 1.516 . S
C370 C369 1.516 . S
C370 C371 1.502 . S
C370 C372 1.561 . S
C370 C373 1.526 . S
C371 H355 0.959 . S
C371 H356 0.959 . S
C371 H357 0.961 . S
C371 C370 1.502 . S
C372 H358 0.960 . S
C372 H359 0.961 . S
C372 H360 0.959 . S
C372 C370 1.561 . S
C373 C370 1.526 . S
C373 C374 1.396 . S
C373 C378 1.390 . S
C374 C368 1.465 . S
C374 C373 1.396 . S
C374 C375 1.399 . S
C375 H361 0.929 . S
C375 C374 1.399 . S
C375 C376 1.385 . S
C376 H362 0.931 . S
C376 C375 1.385 . S
C376 C377 1.389 . S
C377 C376 1.389 . S
C377 C378 1.387 . S
C378 H363 0.930 . S
C378 C373 1.390 . S
C378 C377 1.387 . S
H379 C391 0.930 . S
H380 C393 0.930 . S
H381 C394 0.930 . S
H382 C398 0.959 . S
H383 C398 0.959 . S
H384 C398 0.961 . S
H385 C399 0.960 . S
H386 C399 0.961 . S
H387 C399 0.959 . S
H388 C402 0.929 . S
H389 C403 0.931 . S
H390 C405 0.930 . S
C391 H379 0.930 . S
C391 C392 1.399 . S
C391 C396 1.399 . S
C392 C391 1.399 . S
C392 C393 1.376 . S
C393 H380 0.930 . S
C393 C392 1.376 . S
C393 C394 1.388 . S
C394 H381 0.930 . S
C394 C393 1.388 . S
C394 C395 1.390 . S
C395 C394 1.390 . S
C395 C396 1.394 . S
C395 C401 1.465 . S
C396 C391 1.399 . S
C396 C395 1.394 . S
C396 C397 1.516 . S
C397 C396 1.516 . S
C397 C398 1.502 . S
C397 C399 1.561 . S
C397 C400 1.526 . S
C398 H382 0.959 . S
C398 H383 0.959 . S
C398 H384 0.961 . S
C398 C397 1.502 . S
C399 H385 0.960 . S
C399 H386 0.961 . S
C399 H387 0.959 . S
C399 C397 1.561 . S
C400 C397 1.526 . S
C400 C401 1.396 . S
C400 C405 1.390 . S
C401 C395 1.465 . S
C401 C400 1.396 . S
C401 C402 1.399 . S
C402 H388 0.929 . S
C402 C401 1.399 . S
C402 C403 1.385 . S
C403 H389 0.931 . S
C403 C402 1.385 . S
C403 C404 1.389 . S
C404 C403 1.389 . S
C404 C405 1.387 . S
C405 H390 0.930 . S
C405 C400 1.390 . S
C405 C404 1.387 . S
H406 C418 0.930 . S
H407 C420 0.930 . S
H408 C421 0.930 . S
H409 C425 0.959 . S
H410 C425 0.959 . S
H411 C425 0.961 . S
H412 C426 0.960 . S
H413 C426 0.961 . S
H414 C426 0.959 1_545 S
H415 C429 0.929 . S
H416 C430 0.931 . S
H417 C432 0.930 . S
C418 H406 0.930 . S
C418 C419 1.399 1_565 S
C418 C423 1.399 . S
C419 C418 1.399 1_545 S
C419 C420 1.376 1_455 S
C420 H407 0.930 . S
C420 C419 1.376 1_655 S
C420 C421 1.388 . S
C421 H408 0.930 . S
C421 C420 1.388 . S
C421 C422 1.390 . S
C422 C421 1.390 . S
C422 C423 1.394 1_645 S
C422 C428 1.465 . S
C423 C418 1.399 . S
C423 C422 1.394 1_465 S
C423 C424 1.516 . S
C424 C423 1.516 . S
C424 C425 1.502 . S
C424 C426 1.561 . S
C424 C427 1.526 . S
C425 H409 0.959 . S
C425 H410 0.959 . S
C425 H411 0.961 . S
C425 C424 1.502 . S
C426 H412 0.960 . S
C426 H413 0.961 . S
C426 H414 0.959 1_565 S
C426 C424 1.561 . S
C427 C424 1.526 . S
C427 C428 1.396 1_465 S
C427 C432 1.390 . S
C428 C422 1.465 . S
C428 C427 1.396 1_645 S
C428 C429 1.399 . S
C429 H415 0.929 . S
C429 C428 1.399 . S
C429 C430 1.385 . S
C430 H416 0.931 . S
C430 C429 1.385 . S
C430 C431 1.389 . S
C431 C430 1.389 . S
C431 C432 1.387 1_645 S
C432 H417 0.930 . S
C432 C427 1.390 . S
C432 C431 1.387 1_465 S
H433 C445 0.930 . S
H434 C447 0.930 . S
H435 C448 0.930 . S
H436 C452 0.959 . S
H437 C452 0.959 . S
H438 C452 0.961 . S
H439 C453 0.960 . S
H440 C453 0.961 . S
H441 C453 0.959 . S
H442 C456 0.929 . S
H443 C457 0.931 . S
H444 C459 0.930 . S
C445 H433 0.930 . S
C445 C446 1.399 1_655 S
C445 C450 1.399 . S
C446 C445 1.399 1_455 S
C446 C447 1.376 . S
C447 H434 0.930 . S
C447 C446 1.376 . S
C447 C448 1.388 . S
C448 H435 0.930 . S
C448 C447 1.388 . S
C448 C449 1.390 . S
C449 C448 1.390 . S
C449 C450 1.394 1_455 S
C449 C455 1.465 . S
C450 C445 1.399 . S
C450 C449 1.394 1_655 S
C450 C451 1.516 . S
C451 C450 1.516 . S
C451 C452 1.502 1_545 S
C451 C453 1.561 . S
C451 C454 1.526 . S
C452 H436 0.959 . S
C452 H437 0.959 . S
C452 H438 0.961 . S
C452 C451 1.502 1_565 S
C453 H439 0.960 . S
C453 H440 0.961 . S
C453 H441 0.959 . S
C453 C451 1.561 . S
C454 C451 1.526 . S
C454 C455 1.396 1_655 S
C454 C459 1.390 . S
C455 C449 1.465 . S
C455 C454 1.396 1_455 S
C455 C456 1.399 . S
C456 H442 0.929 . S
C456 C455 1.399 . S
C456 C457 1.385 . S
C457 H443 0.931 . S
C457 C456 1.385 . S
C457 C458 1.389 . S
C458 C457 1.389 . S
C458 C459 1.387 1_455 S
C459 H444 0.930 . S
C459 C454 1.390 . S
C459 C458 1.387 1_655 S
H460 C472 0.930 . S
H461 C474 0.930 . S
H462 C475 0.930 . S
H463 C479 0.959 . S
H464 C479 0.959 . S
H465 C479 0.961 . S
H466 C480 0.960 . S
H467 C480 0.961 . S
H468 C480 0.959 . S
H469 C483 0.929 . S
H470 C484 0.931 . S
H471 C486 0.930 . S
C472 H460 0.930 . S
C472 C473 1.399 . S
C472 C477 1.399 . S
C473 C472 1.399 . S
C473 C474 1.376 . S
C474 H461 0.930 . S
C474 C473 1.376 . S
C474 C475 1.388 . S
C475 H462 0.930 . S
C475 C474 1.388 . S
C475 C476 1.390 . S
C476 C475 1.390 . S
C476 C477 1.394 . S
C476 C482 1.465 . S
C477 C472 1.399 . S
C477 C476 1.394 . S
C477 C478 1.516 . S
C478 C477 1.516 . S
C478 C479 1.502 . S
C478 C480 1.561 . S
C478 C481 1.526 . S
C479 H463 0.959 . S
C479 H464 0.959 . S
C479 H465 0.961 . S
C479 C478 1.502 . S
C480 H466 0.960 . S
C480 H467 0.961 . S
C480 H468 0.959 . S
C480 C478 1.561 . S
C481 C478 1.526 . S
C481 C482 1.396 . S
C481 C486 1.390 . S
C482 C476 1.465 . S
C482 C481 1.396 . S
C482 C483 1.399 . S
C483 H469 0.929 . S
C483 C482 1.399 . S
C483 C484 1.385 . S
C484 H470 0.931 . S
C484 C483 1.385 . S
C484 C485 1.389 . S
C485 C484 1.389 . S
C485 C486 1.387 . S
C486 H471 0.930 . S
C486 C481 1.390 . S
C486 C485 1.387 . S
H487 C499 0.930 . S
H488 C501 0.930 . S
H489 C502 0.930 . S
H490 C506 0.959 . S
H491 C506 0.959 . S
H492 C506 0.961 . S
H493 C507 0.960 . S
H494 C507 0.961 . S
H495 C507 0.959 . S
H496 C510 0.929 . S
H497 C511 0.931 . S
H498 C513 0.930 . S
C499 H487 0.930 . S
C499 C500 1.399 . S
C499 C504 1.399 . S
C500 C499 1.399 . S
C500 C501 1.376 . S
C501 H488 0.930 . S
C501 C500 1.376 . S
C501 C502 1.388 . S
C502 H489 0.930 . S
C502 C501 1.388 . S
C502 C503 1.390 . S
C503 C502 1.390 . S
C503 C504 1.394 . S
C503 C509 1.465 . S
C504 C499 1.399 . S
C504 C503 1.394 . S
C504 C505 1.516 . S
C505 C504 1.516 . S
C505 C506 1.502 . S
C505 C507 1.561 . S
C505 C508 1.526 . S
C506 H490 0.959 . S
C506 H491 0.959 . S
C506 H492 0.961 . S
C506 C505 1.502 . S
C507 H493 0.960 . S
C507 H494 0.961 . S
C507 H495 0.959 . S
C507 C505 1.561 . S
C508 C505 1.526 . S
C508 C509 1.396 . S
C508 C513 1.390 . S
C509 C503 1.465 . S
C509 C508 1.396 . S
C509 C510 1.399 . S
C510 H496 0.929 . S
C510 C509 1.399 . S
C510 C511 1.385 . S
C511 H497 0.931 . S
C511 C510 1.385 . S
C511 C512 1.389 . S
C512 C511 1.389 . S
C512 C513 1.387 . S
C513 H498 0.930 . S
C513 C508 1.390 . S
C513 C512 1.387 . S
C215 C155 1.463 . S
C203 C21 1.427 . S
C230 C19 1.415 1_556 S
C242 C119 1.455 . S
C257 C18 1.383 . S
C269 C179 1.427 . S
C284 C20 1.430 1_556 S
C296 C143 1.379 . S
C311 C44 1.458 . S
C323 C83 1.425 . S
C338 C42 1.442 . S
C350 C47 1.423 . S
C377 C107 1.380 . S
C365 C41 1.412 . S
C404 C71 1.378 . S
C392 C43 1.429 . S
C419 C16 1.488 . S
C431 C77 1.476 1_655 S
C446 C17 1.456 . S
C458 C113 1.445 1_545 S
C485 C149 1.469 . S
C473 C39 1.485 . S
C500 C40 1.452 . S
C512 C185 1.438 . S
