# Generated by pormake.
# Topology pyr, (3,6)-cn, num edge types: 1
# Building blocks:
#     Node 0, Type 0, BuildingBlock: VETTIZ_charged_linker_0, # of connection points: 3
#     Node 1, Type 0, BuildingBlock: VETTIZ_charged_linker_0, # of connection points: 3
#     Node 2, Type 0, BuildingBlock: VETTIZ_charged_linker_0, # of connection points: 3
#     Node 3, Type 0, BuildingBlock: VETTIZ_charged_linker_0, # of connection points: 3
#     Node 4, Type 0, BuildingBlock: VETTIZ_charged_linker_0, # of connection points: 3
#     Node 5, Type 0, BuildingBlock: VETTIZ_charged_linker_0, # of connection points: 3
#     Node 6, Type 0, BuildingBlock: VETTIZ_charged_linker_0, # of connection points: 3
#     Node 7, Type 0, BuildingBlock: VETTIZ_charged_linker_0, # of connection points: 3
#     Node 8, Type 1, BuildingBlock: MIFKUJ_clean_sbu_0, # of connection points: 6
#     Node 9, Type 1, BuildingBlock: MIFKUJ_clean_sbu_0, # of connection points: 6
#     Node 10, Type 1, BuildingBlock: MIFKUJ_clean_sbu_0, # of connection points: 6
#     Node 11, Type 1, BuildingBlock: MIFKUJ_clean_sbu_0, # of connection points: 6
#     Edge 12, Type (0, 1), BuildingBlock: OJICUG_clean_linker_0, # of connection points: 2
#     Edge 13, Type (0, 1), BuildingBlock: OJICUG_clean_linker_0, # of connection points: 2
#     Edge 14, Type (0, 1), BuildingBlock: OJICUG_clean_linker_0, # of connection points: 2
#     Edge 15, Type (0, 1), BuildingBlock: OJICUG_clean_linker_0, # of connection points: 2
#     Edge 16, Type (0, 1), BuildingBlock: OJICUG_clean_linker_0, # of connection points: 2
#     Edge 17, Type (0, 1), BuildingBlock: OJICUG_clean_linker_0, # of connection points: 2
#     Edge 18, Type (0, 1), BuildingBlock: OJICUG_clean_linker_0, # of connection points: 2
#     Edge 19, Type (0, 1), BuildingBlock: OJICUG_clean_linker_0, # of connection points: 2
#     Edge 20, Type (0, 1), BuildingBlock: OJICUG_clean_linker_0, # of connection points: 2
#     Edge 21, Type (0, 1), BuildingBlock: OJICUG_clean_linker_0, # of connection points: 2
#     Edge 22, Type (0, 1), BuildingBlock: OJICUG_clean_linker_0, # of connection points: 2
#     Edge 23, Type (0, 1), BuildingBlock: OJICUG_clean_linker_0, # of connection points: 2
#     Edge 24, Type (0, 1), BuildingBlock: OJICUG_clean_linker_0, # of connection points: 2
#     Edge 25, Type (0, 1), BuildingBlock: OJICUG_clean_linker_0, # of connection points: 2
#     Edge 26, Type (0, 1), BuildingBlock: OJICUG_clean_linker_0, # of connection points: 2
#     Edge 27, Type (0, 1), BuildingBlock: OJICUG_clean_linker_0, # of connection points: 2
#     Edge 28, Type (0, 1), BuildingBlock: OJICUG_clean_linker_0, # of connection points: 2
#     Edge 29, Type (0, 1), BuildingBlock: OJICUG_clean_linker_0, # of connection points: 2
#     Edge 30, Type (0, 1), BuildingBlock: OJICUG_clean_linker_0, # of connection points: 2
#     Edge 31, Type (0, 1), BuildingBlock: OJICUG_clean_linker_0, # of connection points: 2
#     Edge 32, Type (0, 1), BuildingBlock: OJICUG_clean_linker_0, # of connection points: 2
#     Edge 33, Type (0, 1), BuildingBlock: OJICUG_clean_linker_0, # of connection points: 2
#     Edge 34, Type (0, 1), BuildingBlock: OJICUG_clean_linker_0, # of connection points: 2
#     Edge 35, Type (0, 1), BuildingBlock: OJICUG_clean_linker_0, # of connection points: 2
# Relax obj value: 0.030
# Max RMSD: 0.083
# Mean RMSD: 0.049
data_MOF--net-pyr--node1-MIFKUJ_clean_sbu_0--node2-VETTIZ_charged_linker_0--edge1-OJICUG_clean_linker_0
_symmetry_space_group_name_H-M    P1
_symmetry_Int_Tables_number       1
_symmetry_cell_setting            triclinic
loop_
_symmetry_equiv_pos_as_xyz
'x, y, z'
_cell_length_a     37.798898
_cell_length_b     33.87213
_cell_length_c     36.259641
_cell_angle_alpha  85.700259
_cell_angle_beta   87.942136
_cell_angle_gamma 96.044111
loop_
_atom_site_label
_atom_site_type_symbol
_atom_site_fract_x
_atom_site_fract_y
_atom_site_fract_z
_atom_type_partial_charge
C0 C 0.15012 0.09395 0.31733 0.0
C1 C 0.11627 0.10204 0.3302 0.0
C2 C 0.10015 0.13334 0.31217 0.0
C3 C 0.15069 0.14721 0.26857 0.0
C4 C 0.16673 0.11678 0.28644 0.0
C5 C 0.20192 0.11114 0.26784 0.0
H6 H 0.3207 0.16067 0.12345 0.0
C7 C 0.17432 0.16448 0.23693 0.0
C8 C 0.20447 0.14366 0.23631 0.0
H9 H 0.32019 0.06432 0.20892 0.0
H10 H 0.26959 0.08707 0.24005 0.0
H11 H 0.30124 0.22837 0.17656 0.0
H12 H 0.23811 0.14782 0.11244 0.0
H13 H 0.22313 0.19501 0.10511 0.0
H14 H 0.26836 0.18868 0.09202 0.0
H15 H 0.29892 0.23711 0.12734 0.0
H16 H 0.26699 0.2545 0.15892 0.0
C17 C 0.23146 0.11899 0.29568 0.0
C18 C 0.19905 0.06884 0.25374 0.0
C19 C 0.13392 0.27327 0.14981 0.0
C20 C 0.14987 0.29555 0.11814 0.0
C21 C 0.18488 0.28961 0.10673 0.0
C22 C 0.20322 0.26127 0.12594 0.0
C23 C 0.18645 0.23855 0.15691 0.0
C24 C 0.15273 0.24543 0.16884 0.0
C25 C 0.13962 0.21977 0.20318 0.0
C26 C 0.1707 0.19554 0.20933 0.0
C27 C 0.19782 0.20632 0.18192 0.0
C28 C 0.13452 0.24734 0.23482 0.0
C29 C 0.10545 0.19349 0.19401 0.0
C30 C 0.3097 0.14439 0.14885 0.0
C31 C 0.32427 0.11036 0.16342 0.0
C32 C 0.30964 0.09073 0.1971 0.0
C33 C 0.27997 0.1037 0.21495 0.0
C34 C 0.26447 0.13633 0.19876 0.0
C35 C 0.27974 0.15649 0.1666 0.0
C36 C 0.25896 0.18944 0.15242 0.0
C37 C 0.22822 0.18517 0.18096 0.0
C38 C 0.23159 0.15408 0.20808 0.0
C39 C 0.28262 0.22956 0.15351 0.0
C40 C 0.24653 0.1802 0.11338 0.0
H41 H 0.10348 0.17938 0.26911 0.0
H42 H 0.16303 0.0699 0.33054 0.0
H43 H 0.17123 0.05874 0.24697 0.0
H44 H 0.21475 0.06754 0.22766 0.0
H45 H 0.20737 0.04668 0.27494 0.0
H46 H 0.22693 0.14532 0.31111 0.0
H47 H 0.2318 0.09305 0.31627 0.0
H48 H 0.25824 0.12601 0.28213 0.0
H49 H 0.10706 0.27682 0.1594 0.0
H50 H 0.19828 0.30707 0.08305 0.0
H51 H 0.22965 0.25795 0.11574 0.0
H52 H 0.15372 0.27475 0.23119 0.0
H53 H 0.10728 0.25683 0.23556 0.0
H54 H 0.13985 0.23339 0.26232 0.0
H55 H 0.10758 0.18411 0.16531 0.0
H56 H 0.10062 0.16537 0.21175 0.0
H57 H 0.08164 0.20995 0.1961 0.0
H58 H 0.07438 0.14053 0.32202 0.0
C59 C 0.11722 0.15604 0.28159 0.0
C60 C 0.22046 0.86912 0.62337 0.0
C61 C 0.1993 0.89421 0.64151 0.0
C62 C 0.21016 0.90744 0.67582 0.0
C63 C 0.26239 0.87155 0.67271 0.0
C64 C 0.25155 0.85816 0.6394 0.0
C65 C 0.27661 0.83147 0.62362 0.0
H66 H 0.42948 0.74467 0.63476 0.0
C67 C 0.2962 0.85502 0.68142 0.0
C68 C 0.30454 0.83143 0.65266 0.0
H69 H 0.34954 0.73165 0.5526 0.0
H70 H 0.31502 0.77627 0.58307 0.0
H71 H 0.4271 0.83949 0.64374 0.0
H72 H 0.37598 0.73185 0.70084 0.0
H73 H 0.38101 0.76597 0.73478 0.0
H74 H 0.42004 0.75171 0.71116 0.0
H75 H 0.44983 0.80566 0.6724 0.0
H76 H 0.42867 0.8453 0.69148 0.0
C77 C 0.29217 0.85137 0.58581 0.0
C78 C 0.25604 0.78963 0.62166 0.0
C79 C 0.36076 0.88798 0.7987 0.0
C80 C 0.39187 0.87525 0.81379 0.0
C81 C 0.41145 0.84982 0.79419 0.0
C82 C 0.40036 0.83699 0.76033 0.0
C83 C 0.3691 0.84939 0.74572 0.0
C84 C 0.34969 0.87434 0.76479 0.0
C85 C 0.31651 0.88312 0.74514 0.0
C86 C 0.31943 0.85939 0.71129 0.0
C87 C 0.3505 0.84002 0.71183 0.0
C88 C 0.31924 0.92845 0.73443 0.0
C89 C 0.28375 0.86688 0.77079 0.0
C90 C 0.40449 0.75112 0.62326 0.0
C91 C 0.39271 0.73457 0.59078 0.0
C92 C 0.36 0.74448 0.57695 0.0
C93 C 0.33962 0.77014 0.59499 0.0
C94 C 0.35165 0.78593 0.62759 0.0
C95 C 0.38348 0.77612 0.64128 0.0
C96 C 0.39123 0.79391 0.67726 0.0
C97 C 0.35898 0.81642 0.68268 0.0
C98 C 0.33604 0.81195 0.65338 0.0
C99 C 0.42613 0.82246 0.67129 0.0
C100 C 0.39242 0.75933 0.7077 0.0
H101 H 0.24829 0.90756 0.71743 0.0
H102 H 0.21343 0.85868 0.59682 0.0
H103 H 0.23486 0.78332 0.64409 0.0
H104 H 0.27315 0.76531 0.62597 0.0
H105 H 0.24301 0.78712 0.59484 0.0
H106 H 0.29839 0.88406 0.58722 0.0
H107 H 0.27289 0.84663 0.56373 0.0
H108 H 0.31753 0.8407 0.57714 0.0
H109 H 0.34511 0.90738 0.81329 0.0
H110 H 0.43573 0.84009 0.80499 0.0
H111 H 0.41663 0.8178 0.74691 0.0
H112 H 0.34678 0.93992 0.72419 0.0
H113 H 0.31255 0.94491 0.75866 0.0
H114 H 0.30204 0.9363 0.71167 0.0
H115 H 0.28853 0.83865 0.78664 0.0
H116 H 0.25965 0.85914 0.7554 0.0
H117 H 0.27788 0.88855 0.7911 0.0
H118 H 0.19427 0.92621 0.69088 0.0
C119 C 0.24152 0.89637 0.6914 0.0
C120 C 0.59626 0.22705 0.88847 0.0
C121 C 0.56569 0.20574 0.87598 0.0
C122 C 0.54896 0.22181 0.84504 0.0
C123 C 0.5943 0.27851 0.83854 0.0
C124 C 0.61003 0.26312 0.86947 0.0
C125 C 0.64265 0.28897 0.87904 0.0
H126 H 0.76597 0.44479 0.83203 0.0
C127 C 0.61628 0.31564 0.82441 0.0
C128 C 0.64458 0.32188 0.84805 0.0
H129 H 0.75726 0.36506 0.93196 0.0
H130 H 0.70362 0.33099 0.91124 0.0
H131 H 0.68506 0.46056 0.83764 0.0
H132 H 0.73907 0.38084 0.77401 0.0
H133 H 0.71005 0.40458 0.74496 0.0
H134 H 0.74563 0.43405 0.76524 0.0
H135 H 0.7113 0.47786 0.79626 0.0
H136 H 0.66479 0.45948 0.79492 0.0
C137 C 0.63558 0.30457 0.91751 0.0
C138 C 0.67479 0.26425 0.87691 0.0
C139 C 0.5837 0.39227 0.70701 0.0
C140 C 0.59997 0.4264 0.686 0.0
C141 C 0.63188 0.44584 0.69793 0.0
C142 C 0.6474 0.43138 0.73008 0.0
C143 C 0.63087 0.39709 0.7506 0.0
C144 C 0.59957 0.37815 0.73892 0.0
C145 C 0.586 0.34177 0.76377 0.0
C146 C 0.61395 0.34239 0.79274 0.0
C147 C 0.6402 0.37479 0.78484 0.0
C148 C 0.54891 0.34806 0.78048 0.0
C149 C 0.58624 0.30496 0.74084 0.0
C150 C 0.7525 0.42026 0.84979 0.0
C151 C 0.76658 0.40747 0.88359 0.0
C152 C 0.74789 0.37507 0.90535 0.0
C153 C 0.71639 0.35546 0.89347 0.0
C154 C 0.70298 0.36848 0.8596 0.0
C155 C 0.72058 0.40085 0.83873 0.0
C156 C 0.70093 0.4123 0.80486 0.0
C157 C 0.669 0.38087 0.80857 0.0
C158 C 0.67075 0.35494 0.84033 0.0
C159 C 0.69004 0.45482 0.80818 0.0
C160 C 0.72506 0.40806 0.77027 0.0
H161 H 0.54946 0.26859 0.80261 0.0
H162 H 0.60926 0.21588 0.91266 0.0
H163 H 0.67385 0.24709 0.8519 0.0
H164 H 0.70073 0.28266 0.87451 0.0
H165 H 0.67459 0.24263 0.90154 0.0
H166 H 0.60661 0.30501 0.92387 0.0
H167 H 0.64608 0.28557 0.93997 0.0
H168 H 0.64711 0.33582 0.91897 0.0
H169 H 0.55895 0.37685 0.69896 0.0
H170 H 0.64522 0.47187 0.68204 0.0
H171 H 0.67182 0.44729 0.73754 0.0
H172 H 0.54806 0.37958 0.78688 0.0
H173 H 0.5277 0.34091 0.76085 0.0
H174 H 0.54212 0.33034 0.80707 0.0
H175 H 0.60905 0.30882 0.72014 0.0
H176 H 0.58983 0.27736 0.75783 0.0
H177 H 0.56142 0.3002 0.72552 0.0
H178 H 0.52536 0.20588 0.83491 0.0
C179 C 0.56313 0.25807 0.82623 0.0
C180 C 0.9136 0.74444 0.35202 0.0
C181 C 0.90083 0.75943 0.38456 0.0
C182 C 0.86883 0.74119 0.40223 0.0
C183 C 0.86198 0.69482 0.35469 0.0
C184 C 0.89394 0.71183 0.33783 0.0
C185 C 0.90395 0.69075 0.30438 0.0
H186 H 0.86112 0.54673 0.18781 0.0
C187 C 0.84728 0.66274 0.33241 0.0
C188 C 0.87174 0.65994 0.30292 0.0
H189 H 0.95955 0.62413 0.18899 0.0
H190 H 0.93623 0.65593 0.24069 0.0
H191 H 0.85053 0.52835 0.27772 0.0
H192 H 0.80986 0.61294 0.19995 0.0
H193 H 0.7764 0.59994 0.23488 0.0
H194 H 0.79026 0.5622 0.2065 0.0
H195 H 0.82094 0.51469 0.24198 0.0
H196 H 0.80415 0.52733 0.28601 0.0
C197 C 0.93844 0.67115 0.31237 0.0
C198 C 0.90735 0.72122 0.27013 0.0
C199 C 0.72571 0.58868 0.36934 0.0
C200 C 0.70289 0.56058 0.35228 0.0
C201 C 0.71409 0.54861 0.31755 0.0
C202 C 0.7475 0.5631 0.30101 0.0
C203 C 0.7701 0.59042 0.31889 0.0
C204 C 0.75865 0.60351 0.35198 0.0
C205 C 0.78489 0.6351 0.3655 0.0
C206 C 0.81439 0.63802 0.33556 0.0
C207 C 0.80591 0.61126 0.30869 0.0
C208 C 0.79749 0.61935 0.40352 0.0
C209 C 0.7667 0.67407 0.36612 0.0
C210 C 0.87757 0.57068 0.19906 0.0
C211 C 0.91232 0.58271 0.18438 0.0
C212 C 0.93292 0.61383 0.20012 0.0
C213 C 0.9193 0.63237 0.23008 0.0
C214 C 0.88474 0.61959 0.24477 0.0
C215 C 0.86447 0.58925 0.22922 0.0
C216 C 0.82852 0.57911 0.2488 0.0
C217 C 0.83097 0.6075 0.27933 0.0
C218 C 0.86383 0.63146 0.27663 0.0
C219 C 0.82553 0.53502 0.2644 0.0
C220 C 0.79957 0.58869 0.22125 0.0
H221 H 0.82506 0.69691 0.40213 0.0
H222 H 0.93842 0.75755 0.33823 0.0
H223 H 0.88469 0.73969 0.27009 0.0
H224 H 0.90665 0.70701 0.24372 0.0
H225 H 0.93238 0.7416 0.27017 0.0
H226 H 0.9406 0.6635 0.34253 0.0
H227 H 0.96253 0.69142 0.30266 0.0
H228 H 0.93911 0.6425 0.29977 0.0
H229 H 0.71852 0.5988 0.39592 0.0
H230 H 0.69695 0.52819 0.30279 0.0
H231 H 0.75443 0.55252 0.27484 0.0
H232 H 0.80003 0.58688 0.40411 0.0
H233 H 0.77826 0.62394 0.42628 0.0
H234 H 0.82419 0.63312 0.40974 0.0
H235 H 0.74688 0.67585 0.34426 0.0
H236 H 0.78554 0.70118 0.36001 0.0
H237 H 0.75243 0.67585 0.39316 0.0
H238 H 0.85843 0.75236 0.4272 0.0
C239 C 0.84935 0.70914 0.38747 0.0
C240 C 0.84513 0.72347 0.88415 0.0
C241 C 0.88046 0.71528 0.87753 0.0
C242 C 0.90086 0.7365 0.8477 0.0
C243 C 0.85085 0.77222 0.83122 0.0
C244 C 0.83103 0.75212 0.86087 0.0
C245 C 0.79447 0.76555 0.86475 0.0
H246 H 0.68028 0.89688 0.81094 0.0
C247 C 0.82849 0.79992 0.81247 0.0
C248 C 0.79547 0.79639 0.83197 0.0
H249 H 0.66786 0.80767 0.90363 0.0
H250 H 0.72219 0.78236 0.8841 0.0
H251 H 0.70721 0.83576 0.75129 0.0
H252 H 0.76142 0.92266 0.81644 0.0
H253 H 0.78077 0.92904 0.77121 0.0
H254 H 0.73457 0.93571 0.77844 0.0
H255 H 0.70943 0.88819 0.73848 0.0
H256 H 0.74409 0.85898 0.72418 0.0
C257 C 0.76658 0.72943 0.86052 0.0
C258 C 0.79152 0.7843 0.90233 0.0
C259 C 0.87864 0.88505 0.69802 0.0
C260 C 0.86451 0.91304 0.67385 0.0
C261 C 0.82929 0.9218 0.68051 0.0
C262 C 0.8086 0.90309 0.71106 0.0
C263 C 0.82327 0.87528 0.73512 0.0
C264 C 0.85763 0.86649 0.72813 0.0
C265 C 0.86862 0.83543 0.75581 0.0
C266 C 0.83519 0.82696 0.78065 0.0
C267 C 0.80881 0.85052 0.76864 0.0
C268 C 0.8763 0.79872 0.73494 0.0
C269 C 0.90063 0.8544 0.77644 0.0
C270 C 0.68886 0.87138 0.82662 0.0
C271 C 0.67009 0.85471 0.85924 0.0
C272 C 0.6823 0.82164 0.87889 0.0
C273 C 0.71386 0.80701 0.86753 0.0
C274 C 0.73354 0.82572 0.83628 0.0
C275 C 0.72041 0.85651 0.81571 0.0
C276 C 0.74488 0.87263 0.7832 0.0
C277 C 0.77569 0.84784 0.78885 0.0
C278 C 0.76891 0.82051 0.82004 0.0
C279 C 0.72555 0.86383 0.74726 0.0
C280 C 0.756 0.91742 0.78714 0.0
H281 H 0.90312 0.7796 0.8022 0.0
H282 H 0.82854 0.7076 0.90662 0.0
H283 H 0.81767 0.79943 0.90949 0.0
H284 H 0.77345 0.80786 0.9021 0.0
H285 H 0.78271 0.76125 0.92515 0.0
H286 H 0.77588 0.71056 0.83909 0.0
H287 H 0.76182 0.71043 0.88693 0.0
H288 H 0.74089 0.73823 0.85103 0.0
H289 H 0.90534 0.87706 0.69319 0.0
H290 H 0.81786 0.94333 0.66221 0.0
H291 H 0.78206 0.91109 0.71484 0.0
H292 H 0.85692 0.79358 0.71295 0.0
H293 H 0.90342 0.80306 0.72143 0.0
H294 H 0.87343 0.77069 0.75291 0.0
H295 H 0.89998 0.88709 0.77734 0.0
H296 H 0.90041 0.84302 0.80585 0.0
H297 H 0.92638 0.8497 0.7626 0.0
H298 H 0.92833 0.73148 0.84235 0.0
C299 C 0.88622 0.7647 0.82447 0.0
C300 C 0.77858 0.12316 0.36323 0.0
C301 C 0.7966 0.09521 0.34513 0.0
C302 C 0.78218 0.08022 0.31292 0.0
C303 C 0.73309 0.12057 0.31745 0.0
C304 C 0.74698 0.13518 0.34909 0.0
C305 C 0.72422 0.16399 0.3654 0.0
H306 H 0.5742 0.25736 0.3604 0.0
C307 C 0.69985 0.13881 0.31021 0.0
C308 C 0.69442 0.16418 0.33837 0.0
H309 H 0.65839 0.26927 0.43801 0.0
H310 H 0.68992 0.22264 0.40658 0.0
H311 H 0.57253 0.16205 0.35292 0.0
H312 H 0.62529 0.26631 0.29143 0.0
H313 H 0.61668 0.23134 0.25874 0.0
H314 H 0.57994 0.24856 0.28396 0.0
H315 H 0.5499 0.19663 0.32502 0.0
H316 H 0.56825 0.15543 0.30554 0.0
C317 C 0.71053 0.14635 0.40458 0.0
C318 C 0.74657 0.20514 0.36456 0.0
C319 C 0.62968 0.10673 0.19656 0.0
C320 C 0.59871 0.12064 0.18231 0.0
C321 C 0.58083 0.14736 0.20219 0.0
C322 C 0.59361 0.16037 0.23541 0.0
C323 C 0.62482 0.1468 0.24908 0.0
C324 C 0.64238 0.12046 0.22977 0.0
C325 C 0.67558 0.11004 0.24839 0.0
C326 C 0.6751 0.13479 0.28171 0.0
C327 C 0.64513 0.15597 0.282 0.0
C328 C 0.67095 0.06478 0.26002 0.0
C329 C 0.70794 0.12399 0.22141 0.0
C330 C 0.59949 0.25026 0.37068 0.0
C331 C 0.61335 0.26706 0.40223 0.0
C332 C 0.64637 0.25629 0.41446 0.0
C333 C 0.66496 0.22939 0.39589 0.0
C334 C 0.65074 0.21313 0.36439 0.0
C335 C 0.61867 0.22394 0.35214 0.0
C336 C 0.60843 0.20544 0.31711 0.0
C337 C 0.63929 0.18109 0.31076 0.0
C338 C 0.66389 0.18541 0.33866 0.0
C339 C 0.5728 0.1786 0.3252 0.0
C340 C 0.60721 0.23942 0.2861 0.0
H341 H 0.7412 0.08006 0.27452 0.0
H342 H 0.78887 0.13566 0.38781 0.0
H343 H 0.76525 0.21011 0.33983 0.0
H344 H 0.73012 0.23023 0.36222 0.0
H345 H 0.76267 0.20747 0.38949 0.0
H346 H 0.70314 0.11365 0.40483 0.0
H347 H 0.73133 0.15145 0.4251 0.0
H348 H 0.68616 0.15839 0.4143 0.0
H349 H 0.64406 0.08631 0.18183 0.0
H350 H 0.55662 0.15798 0.19214 0.0
H351 H 0.57864 0.1806 0.24912 0.0
H352 H 0.64273 0.05431 0.26846 0.0
H353 H 0.67876 0.04741 0.23682 0.0
H354 H 0.68616 0.05684 0.28443 0.0
H355 H 0.70443 0.15301 0.20623 0.0
H356 H 0.73313 0.12936 0.23559 0.0
H357 H 0.71117 0.10209 0.20055 0.0
H358 H 0.79485 0.05809 0.29872 0.0
C359 C 0.75071 0.09276 0.29901 0.0
C360 C 0.41862 0.6062 0.29349 0.0
C361 C 0.40283 0.57212 0.31495 0.0
C362 C 0.37057 0.55262 0.30388 0.0
C363 C 0.37038 0.60113 0.25118 0.0
C364 C 0.40198 0.62018 0.26204 0.0
C365 C 0.41491 0.65661 0.23696 0.0
H366 H 0.38817 0.78104 0.08813 0.0
C367 C 0.3603 0.62321 0.21714 0.0
C368 C 0.38637 0.6557 0.20863 0.0
H369 H 0.47284 0.79361 0.16474 0.0
H370 H 0.45004 0.73066 0.19766 0.0
H371 H 0.32483 0.74988 0.14969 0.0
H372 H 0.39195 0.69276 0.07711 0.0
H373 H 0.35232 0.66052 0.08327 0.0
H374 H 0.35144 0.7103 0.06176 0.0
H375 H 0.32346 0.75373 0.10009 0.0
H376 H 0.29792 0.71379 0.12777 0.0
C377 C 0.41497 0.69346 0.25987 0.0
C378 C 0.45174 0.65061 0.21944 0.0
C379 C 0.24638 0.57777 0.15461 0.0
C380 C 0.23196 0.59037 0.1209 0.0
C381 C 0.25096 0.62192 0.09834 0.0
C382 C 0.28286 0.64119 0.10949 0.0
C383 C 0.29643 0.62867 0.14339 0.0
C384 C 0.27879 0.59682 0.16491 0.0
C385 C 0.29899 0.58556 0.19848 0.0
C386 C 0.33111 0.61679 0.19395 0.0
C387 C 0.32896 0.64231 0.16202 0.0
C388 C 0.27557 0.59032 0.23344 0.0
C389 C 0.30949 0.54286 0.1953 0.0
C390 C 0.40161 0.77043 0.11223 0.0
C391 C 0.43195 0.79251 0.12425 0.0
C392 C 0.44934 0.7771 0.15503 0.0
C393 C 0.43594 0.74071 0.17419 0.0
C394 C 0.40489 0.71953 0.16234 0.0
C395 C 0.38859 0.73436 0.13157 0.0
C396 C 0.35612 0.70804 0.12255 0.0
C397 C 0.35486 0.67547 0.15374 0.0
C398 C 0.38343 0.68221 0.17693 0.0
C399 C 0.32373 0.73242 0.12488 0.0
C400 C 0.36299 0.69216 0.08414 0.0
H401 H 0.32964 0.55099 0.26534 0.0
H402 H 0.4436 0.6217 0.30085 0.0
H403 H 0.45231 0.61932 0.21222 0.0
H404 H 0.4583 0.66908 0.19322 0.0
H405 H 0.47322 0.65706 0.23894 0.0
H406 H 0.39292 0.68926 0.28146 0.0
H407 H 0.44034 0.69884 0.27414 0.0
H408 H 0.41032 0.72083 0.24306 0.0
H409 H 0.23281 0.55375 0.17288 0.0
H410 H 0.24151 0.63158 0.07168 0.0
H411 H 0.29573 0.6651 0.09116 0.0
H412 H 0.26209 0.61794 0.22995 0.0
H413 H 0.25461 0.56476 0.23873 0.0
H414 H 0.29104 0.59333 0.2585 0.0
H415 H 0.31374 0.5367 0.16584 0.0
H416 H 0.33502 0.53822 0.20798 0.0
H417 H 0.28835 0.52009 0.20792 0.0
H418 H 0.35754 0.52667 0.32014 0.0
C419 C 0.35429 0.56693 0.27214 0.0
C420 C 0.10093 0.25199 0.65272 0.0
C421 C 0.116 0.23643 0.62152 0.0
C422 C 0.14534 0.25856 0.6019 0.0
C423 C 0.14725 0.30788 0.64677 0.0
C424 C 0.11704 0.28783 0.66483 0.0
C425 C 0.1057 0.30857 0.69804 0.0
H426 H 0.14098 0.45546 0.81354 0.0
C427 C 0.15977 0.34164 0.66806 0.0
C428 C 0.13554 0.34257 0.69808 0.0
H429 H 0.04667 0.37126 0.81351 0.0
H430 H 0.07129 0.34202 0.76097 0.0
H431 H 0.14962 0.47505 0.72332 0.0
H432 H 0.19672 0.39279 0.79847 0.0
H433 H 0.22922 0.41085 0.76377 0.0
H434 H 0.21198 0.44498 0.79406 0.0
H435 H 0.17907 0.49052 0.75859 0.0
H436 H 0.19611 0.47928 0.71415 0.0
C437 C 0.06919 0.32389 0.6906 0.0
C438 C 0.10545 0.27922 0.73289 0.0
C439 C 0.27831 0.42102 0.62965 0.0
C440 C 0.30066 0.44971 0.64644 0.0
C441 C 0.28874 0.46261 0.68054 0.0
C442 C 0.25538 0.44758 0.69713 0.0
C443 C 0.23364 0.41883 0.6799 0.0
C444 C 0.24559 0.40567 0.64703 0.0
C445 C 0.22064 0.37263 0.63408 0.0
C446 C 0.19133 0.36854 0.66423 0.0
C447 C 0.19865 0.39609 0.69072 0.0
C448 C 0.20701 0.38713 0.59611 0.0
C449 C 0.24072 0.3349 0.63358 0.0
C450 C 0.12574 0.43058 0.80233 0.0
C451 C 0.09172 0.41583 0.81763 0.0
C452 C 0.07266 0.38361 0.80194 0.0
C453 C 0.08704 0.36655 0.7715 0.0
C454 C 0.12085 0.38187 0.75632 0.0
C455 C 0.13962 0.41342 0.77166 0.0
C456 C 0.17492 0.42621 0.75136 0.0
C457 C 0.17364 0.39806 0.7206 0.0
C458 C 0.14208 0.37174 0.72399 0.0
C459 C 0.17528 0.47015 0.73609 0.0
C460 C 0.20496 0.41869 0.77816 0.0
H461 H 0.18368 0.30883 0.59846 0.0
H462 H 0.07811 0.23592 0.66811 0.0
H463 H 0.12999 0.26373 0.73288 0.0
H464 H 0.10501 0.29408 0.75893 0.0
H465 H 0.08217 0.25619 0.73374 0.0
H466 H 0.06539 0.32931 0.66042 0.0
H467 H 0.04684 0.30202 0.70215 0.0
H468 H 0.06669 0.35299 0.70184 0.0
H469 H 0.2859 0.41041 0.6034 0.0
H470 H 0.30538 0.48389 0.6949 0.0
H471 H 0.24794 0.45862 0.72296 0.0
H472 H 0.20303 0.41926 0.5953 0.0
H473 H 0.22637 0.38337 0.5732 0.0
H474 H 0.18073 0.37185 0.59033 0.0
H475 H 0.26207 0.33537 0.65396 0.0
H476 H 0.22342 0.30706 0.64188 0.0
H477 H 0.2535 0.33252 0.6059 0.0
H478 H 0.15676 0.24792 0.57717 0.0
C479 C 0.16096 0.29404 0.61429 0.0
Zn480 Zn 0.03476 0.01555 0.54405 0.0
Zn481 Zn 0.95752 0.98593 0.4606 0.0
C482 C 0.07121 0.08313 0.56793 0.0
O483 O 0.09612 0.06327 0.55445 0.0
C484 C 0.95567 0.90182 0.45054 0.0
O485 O 0.96291 0.9003 0.48576 0.0
O486 O 0.06774 0.98282 0.57344 0.0
O487 O 0.98342 0.99036 0.54674 0.0
O488 O 0.93816 0.97162 0.51255 0.0
C489 C 0.0772 0.94881 0.56769 0.0
O490 O 0.06284 0.92911 0.54111 0.0
O491 O 0.03887 0.0686 0.56675 0.0
C492 C 0.92041 0.02771 0.40269 0.0
O493 O 0.9405 0.00993 0.38026 0.0
O494 O 0.92457 0.02336 0.43736 0.0
O495 O 0.00849 0.0097 0.46078 0.0
O496 O 0.05558 0.02752 0.49203 0.0
O497 O 0.95336 0.93555 0.43338 0.0
C498 C 0.95144 0.97509 0.54404 0.0
C499 C 0.0407 0.02466 0.46135 0.0
Zn500 Zn 0.51933 0.97337 0.97499 0.0
Zn501 Zn 0.47329 0.02118 0.01985 0.0
C502 C 0.46502 0.92414 0.94206 0.0
O503 O 0.47986 0.89692 0.96202 0.0
C504 C 0.52527 0.07047 0.05428 0.0
O505 O 0.50887 0.09706 0.03524 0.0
O506 O 0.55727 0.94444 0.95284 0.0
O507 O 0.53649 0.03159 0.96645 0.0
O508 O 0.48219 0.0489 0.96867 0.0
C509 C 0.55982 0.94078 0.91826 0.0
O510 O 0.53798 0.95774 0.89627 0.0
O511 O 0.476 0.96061 0.94457 0.0
C512 C 0.43226 0.0415 0.08031 0.0
O513 O 0.45388 0.01919 0.09759 0.0
O514 O 0.43496 0.04694 0.0452 0.0
O515 O 0.45645 0.96277 0.02676 0.0
O516 O 0.51141 0.94832 0.02711 0.0
O517 O 0.51635 0.03377 0.05051 0.0
C518 C 0.51448 0.05592 0.95696 0.0
C519 C 0.47912 0.9402 0.03821 0.0
Zn520 Zn 0.51603 0.46228 0.47871 0.0
Zn521 Zn 0.4907 0.53863 0.52018 0.0
C522 C 0.56811 0.49188 0.42356 0.0
O523 O 0.54815 0.46563 0.40633 0.0
C524 C 0.43701 0.51385 0.57566 0.0
O525 O 0.4571 0.54066 0.59209 0.0
O526 O 0.52422 0.4084 0.46085 0.0
O527 O 0.51707 0.45635 0.53433 0.0
O528 O 0.53352 0.51896 0.54413 0.0
C529 C 0.54803 0.38924 0.47554 0.0
O530 O 0.56412 0.40288 0.50424 0.0
O531 O 0.55907 0.49831 0.45657 0.0
C532 C 0.46109 0.61279 0.52088 0.0
O533 O 0.44457 0.59814 0.49286 0.0
O534 O 0.48459 0.5937 0.53624 0.0
O535 O 0.48934 0.54316 0.46444 0.0
O536 O 0.47236 0.4805 0.4555 0.0
O537 O 0.44654 0.50525 0.54342 0.0
C538 C 0.5333 0.48197 0.55338 0.0
C539 C 0.47248 0.51739 0.44601 0.0
Zn540 Zn 0.95704 0.50952 0.97313 0.0
Zn541 Zn 0.04482 0.485 0.03032 0.0
C542 C 0.89849 0.48726 0.92979 0.0
O543 O 0.91455 0.51699 0.90803 0.0
C544 C 0.0991 0.51306 0.07484 0.0
O545 O 0.08111 0.4855 0.09758 0.0
O546 O 0.95345 0.56459 0.95081 0.0
O547 O 0.95596 0.51469 0.02812 0.0
O548 O 0.00396 0.50358 0.05886 0.0
C549 C 0.93125 0.58541 0.96496 0.0
O550 O 0.9134 0.57167 0.99582 0.0
O551 O 0.91203 0.47716 0.96023 0.0
C552 C 0.07874 0.41529 0.0379 0.0
O553 O 0.09474 0.4324 0.00716 0.0
O554 O 0.0535 0.43131 0.05285 0.0
O555 O 0.04536 0.47908 0.97546 0.0
O556 O 0.99701 0.48888 0.94485 0.0
O557 O 0.08815 0.52032 0.04253 0.0
C558 C 0.97251 0.51345 0.05795 0.0
C559 C 0.02854 0.4793 0.9458 0.0
C560 C 0.06138 0.06497 0.36189 0.0
C561 C 0.09775 0.07861 0.36266 0.0
H562 H 0.01484 0.03666 0.39237 0.0
C563 C 0.11579 0.07167 0.39527 0.0
H564 H 0.04697 0.06956 0.33691 0.0
C565 C 0.09742 0.053 0.42704 0.0
C566 C 0.06072 0.04057 0.4267 0.0
H567 H 0.14378 0.08205 0.39664 0.0
H568 H 0.11185 0.04915 0.4521 0.0
C569 C 0.04306 0.04595 0.39356 0.0
C570 C 0.4107 0.92858 0.85592 0.0
C571 C 0.40476 0.88804 0.84966 0.0
H572 H 0.43453 0.97206 0.89026 0.0
C573 C 0.41489 0.85962 0.87632 0.0
H574 H 0.40323 0.95108 0.83572 0.0
C575 C 0.43255 0.87145 0.90747 0.0
C576 C 0.4408 0.91206 0.91259 0.0
H577 H 0.41025 0.82813 0.87236 0.0
H578 H 0.44114 0.84868 0.92666 0.0
C579 C 0.42871 0.94053 0.88708 0.0
C580 C 0.56868 0.41397 0.62758 0.0
C581 C 0.58384 0.44112 0.65154 0.0
H582 H 0.54079 0.40546 0.5782 0.0
C583 C 0.58295 0.48212 0.64256 0.0
H584 H 0.56949 0.38224 0.63327 0.0
C585 C 0.5668 0.49558 0.61054 0.0
C586 C 0.55116 0.46829 0.58693 0.0
H587 H 0.5941 0.5038 0.66063 0.0
H588 H 0.56622 0.52731 0.60454 0.0
C589 C 0.55243 0.42736 0.59579 0.0
C590 C 0.96234 0.55315 0.15255 0.0
C591 C 0.92711 0.56296 0.15282 0.0
H592 H 0.0041 0.5293 0.12288 0.0
C593 C 0.90627 0.55416 0.12253 0.0
H594 H 0.97892 0.55897 0.1757 0.0
C595 C 0.92064 0.53701 0.09223 0.0
C596 C 0.95616 0.52802 0.09156 0.0
H597 H 0.87909 0.56152 0.12178 0.0
H598 H 0.90403 0.53142 0.06906 0.0
C599 C 0.97665 0.53577 0.12237 0.0
C600 C 0.35201 0.09407 0.10344 0.0
C601 C 0.35286 0.09391 0.14222 0.0
H602 H 0.37644 0.07781 0.05352 0.0
C603 C 0.3804 0.07678 0.16038 0.0
H604 H 0.33076 0.10625 0.08858 0.0
C605 C 0.40628 0.05982 0.14024 0.0
C606 C 0.40526 0.05991 0.10152 0.0
H607 H 0.38207 0.07659 0.19015 0.0
H608 H 0.42715 0.04675 0.15502 0.0
C609 C 0.37804 0.07748 0.08331 0.0
C610 C 0.14501 0.88159 0.6035 0.0
C611 C 0.16667 0.90729 0.62426 0.0
H612 H 0.09984 0.87434 0.56951 0.0
C613 C 0.15749 0.94612 0.62743 0.0
H614 H 0.15075 0.85125 0.60094 0.0
C615 C 0.12791 0.95907 0.60995 0.0
C616 C 0.10686 0.93372 0.58845 0.0
H617 H 0.17372 0.96706 0.64257 0.0
H618 H 0.12217 0.98944 0.6125 0.0
C619 C 0.1156 0.89471 0.58567 0.0
C620 C 0.82379 0.4068 0.9173 0.0
C621 C 0.80028 0.42799 0.89625 0.0
H622 H 0.87309 0.40915 0.945 0.0
C623 C 0.80938 0.46904 0.88724 0.0
H624 H 0.81821 0.37506 0.92423 0.0
C625 C 0.8414 0.48808 0.89809 0.0
C626 C 0.8646 0.46684 0.91909 0.0
H627 H 0.79171 0.48676 0.87205 0.0
H628 H 0.84778 0.51965 0.89048 0.0
C629 C 0.8554 0.42618 0.92904 0.0
C630 C 0.65366 0.50439 0.36497 0.0
C631 C 0.66794 0.54345 0.37064 0.0
H632 H 0.61095 0.45802 0.37681 0.0
C633 C 0.64868 0.5655 0.39441 0.0
H634 H 0.66783 0.48579 0.34793 0.0
C635 C 0.61646 0.54873 0.41219 0.0
C636 C 0.60227 0.51006 0.40575 0.0
H637 H 0.65816 0.5959 0.39907 0.0
H638 H 0.60228 0.56628 0.43034 0.0
C639 C 0.62107 0.48818 0.38185 0.0
C640 C 0.13404 0.33056 0.05843 0.0
C641 C 0.13013 0.32492 0.09725 0.0
H642 H 0.12054 0.3635 0.00915 0.0
C643 C 0.10727 0.34768 0.116 0.0
H644 H 0.15078 0.31297 0.04301 0.0
C645 C 0.08919 0.37576 0.09647 0.0
C646 C 0.09407 0.38218 0.05786 0.0
H647 H 0.10405 0.34468 0.1459 0.0
H648 H 0.07253 0.39355 0.1118 0.0
C649 C 0.11641 0.35915 0.03897 0.0
C650 C 0.51545 0.15708 0.9041 0.0
C651 C 0.55194 0.16659 0.89498 0.0
H652 H 0.4749 0.11467 0.93109 0.0
C653 C 0.57566 0.13878 0.90501 0.0
H654 H 0.49662 0.17807 0.89685 0.0
C655 C 0.56333 0.10259 0.92449 0.0
C656 C 0.52698 0.09342 0.93454 0.0
H657 H 0.60387 0.14505 0.89784 0.0
H658 H 0.58244 0.08205 0.93209 0.0
C659 C 0.50309 0.12088 0.92383 0.0
C660 C 0.92798 0.83058 0.3781 0.0
C661 C 0.91975 0.79461 0.40007 0.0
H662 H 0.94562 0.89298 0.37686 0.0
C663 C 0.92645 0.79348 0.43796 0.0
H664 H 0.92284 0.83224 0.34885 0.0
C665 C 0.93972 0.82798 0.45393 0.0
C666 C 0.9461 0.86454 0.43246 0.0
H667 H 0.92051 0.76604 0.45544 0.0
H668 H 0.94359 0.82623 0.48343 0.0
C669 C 0.94081 0.86532 0.39419 0.0
C670 C 0.43265 0.67925 0.59318 0.0
C671 C 0.41349 0.70588 0.57225 0.0
H672 H 0.46336 0.62958 0.59323 0.0
C673 C 0.41317 0.70361 0.53364 0.0
H674 H 0.43316 0.67941 0.62299 0.0
C675 C 0.42983 0.67426 0.51676 0.0
C676 C 0.44794 0.64707 0.53791 0.0
H677 H 0.39962 0.72415 0.51636 0.0
H678 H 0.42802 0.67244 0.48717 0.0
C679 C 0.44996 0.65047 0.57614 0.0
C680 C 0.92227 0.9455 0.64423 0.0
C681 C 0.88619 0.93166 0.6411 0.0
H682 H 0.97125 0.97029 0.61607 0.0
C683 C 0.87148 0.9336 0.60613 0.0
H684 H 0.93417 0.94466 0.67098 0.0
C685 C 0.89266 0.9481 0.57474 0.0
C686 C 0.92897 0.9612 0.57768 0.0
H687 H 0.84386 0.92276 0.60287 0.0
H688 H 0.88058 0.94857 0.54809 0.0
C689 C 0.94345 0.96026 0.61283 0.0
C690 C 0.57314 0.13586 0.12085 0.0
C691 C 0.5845 0.1077 0.14699 0.0
H692 H 0.54626 0.14627 0.07083 0.0
C693 C 0.57975 0.06719 0.14026 0.0
H694 H 0.577 0.16734 0.125 0.0
C695 C 0.56197 0.05496 0.10909 0.0
C696 C 0.54889 0.08309 0.084 0.0
H697 H 0.58821 0.04484 0.15999 0.0
H698 H 0.55724 0.02342 0.10548 0.0
C699 C 0.55565 0.12374 0.0897 0.0
C700 C 0.436 0.58492 0.37219 0.0
C701 C 0.41979 0.55759 0.34899 0.0
H702 H 0.46553 0.59379 0.42043 0.0
C703 C 0.42046 0.51661 0.35833 0.0
H704 H 0.43542 0.61666 0.36627 0.0
C705 C 0.43734 0.50335 0.38997 0.0
C706 C 0.45398 0.53083 0.41279 0.0
H707 H 0.40854 0.49477 0.34085 0.0
H708 H 0.43765 0.47163 0.39628 0.0
C709 C 0.45304 0.57174 0.40352 0.0
C710 C 0.09671 0.44359 0.87991 0.0
C711 C 0.07601 0.43383 0.84978 0.0
H712 H 0.09813 0.4657 0.93368 0.0
C713 C 0.03998 0.44081 0.85083 0.0
H714 H 0.12449 0.43838 0.88006 0.0
C715 C 0.02484 0.45652 0.88153 0.0
C716 C 0.04529 0.46536 0.91211 0.0
H717 H 0.02344 0.43414 0.82783 0.0
H718 H 0.99688 0.461 0.88154 0.0
C719 C 0.08151 0.45905 0.91075 0.0
C720 C 0.61521 0.88978 0.85105 0.0
C721 C 0.63998 0.87405 0.87447 0.0
H722 H 0.57039 0.92328 0.8465 0.0
C723 C 0.63742 0.87944 0.91248 0.0
H724 H 0.61631 0.88578 0.82169 0.0
C725 C 0.61115 0.90075 0.92668 0.0
C726 C 0.58691 0.91729 0.90317 0.0
H727 H 0.65646 0.86832 0.93117 0.0
H728 H 0.61028 0.90481 0.95603 0.0
C729 C 0.58892 0.91122 0.86527 0.0
C730 C 0.8334 0.07433 0.39846 0.0
C731 C 0.82971 0.08085 0.36006 0.0
H732 H 0.86491 0.05288 0.44203 0.0
C733 C 0.85742 0.07216 0.336 0.0
H734 H 0.81253 0.08018 0.4179 0.0
C735 C 0.88731 0.056 0.34987 0.0
C736 C 0.89047 0.04844 0.38818 0.0
H737 H 0.85596 0.07757 0.30631 0.0
H738 H 0.90773 0.0489 0.33048 0.0
C739 C 0.86346 0.05848 0.41234 0.0
C740 C 0.18745 0.52989 0.11892 0.0
C741 C 0.19764 0.57058 0.10897 0.0
H742 H 0.14796 0.48016 0.11625 0.0
C743 C 0.17478 0.5921 0.08731 0.0
H744 H 0.20452 0.5119 0.13466 0.0
C745 C 0.14298 0.57329 0.07551 0.0
C746 C 0.13285 0.53299 0.08615 0.0
H747 H 0.18109 0.62363 0.07976 0.0
H748 H 0.12591 0.59045 0.05884 0.0
C749 C 0.15516 0.5115 0.1081 0.0
C750 C 0.35072 0.50504 0.63307 0.0
C751 C 0.33608 0.46583 0.6285 0.0
H752 H 0.39409 0.55051 0.62029 0.0
C753 C 0.35547 0.44243 0.60617 0.0
H754 H 0.33656 0.5245 0.64916 0.0
C755 C 0.388 0.45806 0.58843 0.0
C756 C 0.40247 0.49697 0.59354 0.0
H757 H 0.34584 0.4118 0.60256 0.0
H758 H 0.40219 0.43945 0.57137 0.0
C759 C 0.38367 0.52017 0.61622 0.0
C760 C 0.88711 0.67794 0.93904 0.0
C761 C 0.89571 0.68395 0.90083 0.0
H762 H 0.89189 0.6421 0.98947 0.0
C763 C 0.91818 0.6589 0.88465 0.0
H764 H 0.87044 0.69717 0.95253 0.0
C765 C 0.93107 0.62803 0.90594 0.0
C766 C 0.92135 0.62111 0.94379 0.0
H767 H 0.9249 0.66219 0.85522 0.0
H768 H 0.94749 0.60861 0.89234 0.0
C769 C 0.89965 0.64665 0.96028 0.0
C770 C 0.42033 0.85848 0.09434 0.0
C771 C 0.44479 0.8316 0.10465 0.0
H772 H 0.41199 0.91384 0.06552 0.0
C773 C 0.48102 0.8416 0.09461 0.0
H774 H 0.3923 0.85181 0.10223 0.0
C775 C 0.49237 0.87725 0.0735 0.0
C776 C 0.46768 0.90356 0.06224 0.0
H777 H 0.5004 0.82133 0.10206 0.0
H778 H 0.52037 0.8838 0.06545 0.0
C779 C 0.43164 0.89407 0.0734 0.0
C780 C 0.06689 0.18358 0.60774 0.0
C781 C 0.10332 0.1963 0.61021 0.0
H782 H 0.02788 0.13766 0.5921 0.0
C783 C 0.12845 0.17067 0.60059 0.0
H784 H 0.04694 0.20272 0.61502 0.0
C785 C 0.1177 0.13396 0.58743 0.0
C786 C 0.08146 0.12158 0.5837 0.0
H787 H 0.15667 0.17913 0.60303 0.0
H788 H 0.13805 0.1154 0.57991 0.0
C789 C 0.05603 0.14648 0.59451 0.0
C790 C 0.59613 0.29893 0.46008 0.0
C791 C 0.59414 0.29653 0.42158 0.0
H792 H 0.5831 0.33002 0.50724 0.0
C793 C 0.57444 0.32337 0.40161 0.0
H794 H 0.6102 0.2783 0.47667 0.0
C795 C 0.55795 0.35224 0.41946 0.0
C796 C 0.5613 0.35551 0.45758 0.0
H797 H 0.57268 0.32312 0.3719 0.0
H798 H 0.54391 0.37311 0.40307 0.0
C799 C 0.58024 0.32833 0.47776 0.0
loop_
_geom_bond_atom_site_label_1
_geom_bond_atom_site_label_2
_geom_bond_distance
_geom_bond_site_symmetry_2
_ccdc_geom_bond_type
C0 C1 1.391 . S
C0 C4 1.391 . S
C0 H42 0.948 . S
C1 C0 1.391 . S
C1 C2 1.391 . S
C2 C1 1.391 . S
C2 H58 0.947 . S
C2 C59 1.392 . S
C3 C4 1.391 . S
C3 C7 1.397 . S
C3 C59 1.419 . S
C4 C0 1.391 . S
C4 C3 1.391 . S
C4 C5 1.399 . S
C5 C4 1.399 . S
C5 C8 1.396 . S
C5 C17 1.453 . S
C5 C18 1.684 . S
H6 C30 0.948 . S
C7 C3 1.397 . S
C7 C8 1.394 . S
C7 C26 1.723 . S
C8 C5 1.396 . S
C8 C7 1.394 . S
C8 C38 1.723 . S
H9 C32 0.947 . S
H10 C33 0.948 . S
H11 C39 0.982 . S
H12 C40 0.979 . S
H13 C40 0.980 . S
H14 C40 0.983 . S
H15 C39 0.979 . S
H16 C39 0.977 . S
C17 C5 1.453 . S
C17 H46 0.982 . S
C17 H47 0.979 . S
C17 H48 0.977 . S
C18 C5 1.684 . S
C18 H43 0.979 . S
C18 H44 0.980 . S
C18 H45 0.983 . S
C19 C20 1.391 . S
C19 C24 1.391 . S
C19 H49 0.948 . S
C20 C19 1.391 . S
C20 C21 1.391 . S
C21 C20 1.391 . S
C21 C22 1.392 . S
C21 H50 0.947 . S
C22 C21 1.392 . S
C22 C23 1.419 . S
C22 H51 0.948 . S
C23 C22 1.419 . S
C23 C24 1.391 . S
C23 C27 1.397 . S
C24 C19 1.391 . S
C24 C23 1.391 . S
C24 C25 1.399 . S
C25 C24 1.399 . S
C25 C26 1.396 . S
C25 C28 1.453 . S
C25 C29 1.684 . S
C26 C7 1.723 . S
C26 C25 1.396 . S
C26 C27 1.394 . S
C27 C23 1.397 . S
C27 C26 1.394 . S
C27 C37 1.723 . S
C28 C25 1.453 . S
C28 H52 0.982 . S
C28 H53 0.979 . S
C28 H54 0.977 . S
C29 C25 1.684 . S
C29 H55 0.979 . S
C29 H56 0.980 . S
C29 H57 0.983 . S
C30 H6 0.948 . S
C30 C31 1.391 . S
C30 C35 1.391 . S
C31 C30 1.391 . S
C31 C32 1.391 . S
C32 H9 0.947 . S
C32 C31 1.391 . S
C32 C33 1.392 . S
C33 H10 0.948 . S
C33 C32 1.392 . S
C33 C34 1.419 . S
C34 C33 1.419 . S
C34 C35 1.391 . S
C34 C38 1.397 . S
C35 C30 1.391 . S
C35 C34 1.391 . S
C35 C36 1.399 . S
C36 C35 1.399 . S
C36 C37 1.396 . S
C36 C39 1.453 . S
C36 C40 1.684 . S
C37 C27 1.723 . S
C37 C36 1.396 . S
C37 C38 1.394 . S
C38 C8 1.723 . S
C38 C34 1.397 . S
C38 C37 1.394 . S
C39 H11 0.982 . S
C39 H15 0.979 . S
C39 H16 0.977 . S
C39 C36 1.453 . S
C40 H12 0.979 . S
C40 H13 0.980 . S
C40 H14 0.983 . S
C40 C36 1.684 . S
H41 C59 0.948 . S
H42 C0 0.948 . S
H43 C18 0.979 . S
H44 C18 0.980 . S
H45 C18 0.983 . S
H46 C17 0.982 . S
H47 C17 0.979 . S
H48 C17 0.977 . S
H49 C19 0.948 . S
H50 C21 0.947 . S
H51 C22 0.948 . S
H52 C28 0.982 . S
H53 C28 0.979 . S
H54 C28 0.977 . S
H55 C29 0.979 . S
H56 C29 0.980 . S
H57 C29 0.983 . S
H58 C2 0.947 . S
C59 C2 1.392 . S
C59 C3 1.419 . S
C59 H41 0.948 . S
C60 C61 1.391 . S
C60 C64 1.391 . S
C60 H102 0.948 . S
C61 C60 1.391 . S
C61 C62 1.391 . S
C62 C61 1.391 . S
C62 H118 0.947 . S
C62 C119 1.392 . S
C63 C64 1.391 . S
C63 C67 1.397 . S
C63 C119 1.419 . S
C64 C60 1.391 . S
C64 C63 1.391 . S
C64 C65 1.399 . S
C65 C64 1.399 . S
C65 C68 1.396 . S
C65 C77 1.453 . S
C65 C78 1.684 . S
H66 C90 0.948 . S
C67 C63 1.397 . S
C67 C68 1.394 . S
C67 C86 1.723 . S
C68 C65 1.396 . S
C68 C67 1.394 . S
C68 C98 1.723 . S
H69 C92 0.947 . S
H70 C93 0.948 . S
H71 C99 0.982 . S
H72 C100 0.979 . S
H73 C100 0.980 . S
H74 C100 0.983 . S
H75 C99 0.979 . S
H76 C99 0.977 . S
C77 C65 1.453 . S
C77 H106 0.982 . S
C77 H107 0.979 . S
C77 H108 0.977 . S
C78 C65 1.684 . S
C78 H103 0.979 . S
C78 H104 0.980 . S
C78 H105 0.983 . S
C79 C80 1.391 . S
C79 C84 1.391 . S
C79 H109 0.948 . S
C80 C79 1.391 . S
C80 C81 1.391 . S
C81 C80 1.391 . S
C81 C82 1.392 . S
C81 H110 0.947 . S
C82 C81 1.392 . S
C82 C83 1.419 . S
C82 H111 0.948 . S
C83 C82 1.419 . S
C83 C84 1.391 . S
C83 C87 1.397 . S
C84 C79 1.391 . S
C84 C83 1.391 . S
C84 C85 1.399 . S
C85 C84 1.399 . S
C85 C86 1.396 . S
C85 C88 1.453 . S
C85 C89 1.684 . S
C86 C67 1.723 . S
C86 C85 1.396 . S
C86 C87 1.394 . S
C87 C83 1.397 . S
C87 C86 1.394 . S
C87 C97 1.723 . S
C88 C85 1.453 . S
C88 H112 0.982 . S
C88 H113 0.979 . S
C88 H114 0.977 . S
C89 C85 1.684 . S
C89 H115 0.979 . S
C89 H116 0.980 . S
C89 H117 0.983 . S
C90 H66 0.948 . S
C90 C91 1.391 . S
C90 C95 1.391 . S
C91 C90 1.391 . S
C91 C92 1.391 . S
C92 H69 0.947 . S
C92 C91 1.391 . S
C92 C93 1.392 . S
C93 H70 0.948 . S
C93 C92 1.392 . S
C93 C94 1.419 . S
C94 C93 1.419 . S
C94 C95 1.391 . S
C94 C98 1.397 . S
C95 C90 1.391 . S
C95 C94 1.391 . S
C95 C96 1.399 . S
C96 C95 1.399 . S
C96 C97 1.396 . S
C96 C99 1.453 . S
C96 C100 1.684 . S
C97 C87 1.723 . S
C97 C96 1.396 . S
C97 C98 1.394 . S
C98 C68 1.723 . S
C98 C94 1.397 . S
C98 C97 1.394 . S
C99 H71 0.982 . S
C99 H75 0.979 . S
C99 H76 0.977 . S
C99 C96 1.453 . S
C100 H72 0.979 . S
C100 H73 0.980 . S
C100 H74 0.983 . S
C100 C96 1.684 . S
H101 C119 0.948 . S
H102 C60 0.948 . S
H103 C78 0.979 . S
H104 C78 0.980 . S
H105 C78 0.983 . S
H106 C77 0.982 . S
H107 C77 0.979 . S
H108 C77 0.977 . S
H109 C79 0.948 . S
H110 C81 0.947 . S
H111 C82 0.948 . S
H112 C88 0.982 . S
H113 C88 0.979 . S
H114 C88 0.977 . S
H115 C89 0.979 . S
H116 C89 0.980 . S
H117 C89 0.983 . S
H118 C62 0.947 . S
C119 C62 1.392 . S
C119 C63 1.419 . S
C119 H101 0.948 . S
C120 C121 1.391 . S
C120 C124 1.391 . S
C120 H162 0.948 . S
C121 C120 1.391 . S
C121 C122 1.391 . S
C122 C121 1.391 . S
C122 H178 0.947 . S
C122 C179 1.392 . S
C123 C124 1.391 . S
C123 C127 1.397 . S
C123 C179 1.419 . S
C124 C120 1.391 . S
C124 C123 1.391 . S
C124 C125 1.399 . S
C125 C124 1.399 . S
C125 C128 1.396 . S
C125 C137 1.453 . S
C125 C138 1.684 . S
H126 C150 0.948 . S
C127 C123 1.397 . S
C127 C128 1.394 . S
C127 C146 1.723 . S
C128 C125 1.396 . S
C128 C127 1.394 . S
C128 C158 1.723 . S
H129 C152 0.947 . S
H130 C153 0.948 . S
H131 C159 0.982 . S
H132 C160 0.979 . S
H133 C160 0.980 . S
H134 C160 0.983 . S
H135 C159 0.979 . S
H136 C159 0.977 . S
C137 C125 1.453 . S
C137 H166 0.982 . S
C137 H167 0.979 . S
C137 H168 0.977 . S
C138 C125 1.684 . S
C138 H163 0.979 . S
C138 H164 0.980 . S
C138 H165 0.983 . S
C139 C140 1.391 . S
C139 C144 1.391 . S
C139 H169 0.948 . S
C140 C139 1.391 . S
C140 C141 1.391 . S
C141 C140 1.391 . S
C141 C142 1.392 . S
C141 H170 0.947 . S
C142 C141 1.392 . S
C142 C143 1.419 . S
C142 H171 0.948 . S
C143 C142 1.419 . S
C143 C144 1.391 . S
C143 C147 1.397 . S
C144 C139 1.391 . S
C144 C143 1.391 . S
C144 C145 1.399 . S
C145 C144 1.399 . S
C145 C146 1.396 . S
C145 C148 1.453 . S
C145 C149 1.684 . S
C146 C127 1.723 . S
C146 C145 1.396 . S
C146 C147 1.394 . S
C147 C143 1.397 . S
C147 C146 1.394 . S
C147 C157 1.723 . S
C148 C145 1.453 . S
C148 H172 0.982 . S
C148 H173 0.979 . S
C148 H174 0.977 . S
C149 C145 1.684 . S
C149 H175 0.979 . S
C149 H176 0.980 . S
C149 H177 0.983 . S
C150 H126 0.948 . S
C150 C151 1.391 . S
C150 C155 1.391 . S
C151 C150 1.391 . S
C151 C152 1.391 . S
C152 H129 0.947 . S
C152 C151 1.391 . S
C152 C153 1.392 . S
C153 H130 0.948 . S
C153 C152 1.392 . S
C153 C154 1.419 . S
C154 C153 1.419 . S
C154 C155 1.391 . S
C154 C158 1.397 . S
C155 C150 1.391 . S
C155 C154 1.391 . S
C155 C156 1.399 . S
C156 C155 1.399 . S
C156 C157 1.396 . S
C156 C159 1.453 . S
C156 C160 1.684 . S
C157 C147 1.723 . S
C157 C156 1.396 . S
C157 C158 1.394 . S
C158 C128 1.723 . S
C158 C154 1.397 . S
C158 C157 1.394 . S
C159 H131 0.982 . S
C159 H135 0.979 . S
C159 H136 0.977 . S
C159 C156 1.453 . S
C160 H132 0.979 . S
C160 H133 0.980 . S
C160 H134 0.983 . S
C160 C156 1.684 . S
H161 C179 0.948 . S
H162 C120 0.948 . S
H163 C138 0.979 . S
H164 C138 0.980 . S
H165 C138 0.983 . S
H166 C137 0.982 . S
H167 C137 0.979 . S
H168 C137 0.977 . S
H169 C139 0.948 . S
H170 C141 0.947 . S
H171 C142 0.948 . S
H172 C148 0.982 . S
H173 C148 0.979 . S
H174 C148 0.977 . S
H175 C149 0.979 . S
H176 C149 0.980 . S
H177 C149 0.983 . S
H178 C122 0.947 . S
C179 C122 1.392 . S
C179 C123 1.419 . S
C179 H161 0.948 . S
C180 C181 1.391 . S
C180 C184 1.391 . S
C180 H222 0.948 . S
C181 C180 1.391 . S
C181 C182 1.391 . S
C182 C181 1.391 . S
C182 H238 0.947 . S
C182 C239 1.392 . S
C183 C184 1.391 . S
C183 C187 1.397 . S
C183 C239 1.419 . S
C184 C180 1.391 . S
C184 C183 1.391 . S
C184 C185 1.399 . S
C185 C184 1.399 . S
C185 C188 1.396 . S
C185 C197 1.453 . S
C185 C198 1.684 . S
H186 C210 0.948 . S
C187 C183 1.397 . S
C187 C188 1.394 . S
C187 C206 1.723 . S
C188 C185 1.396 . S
C188 C187 1.394 . S
C188 C218 1.723 . S
H189 C212 0.947 . S
H190 C213 0.948 . S
H191 C219 0.982 . S
H192 C220 0.979 . S
H193 C220 0.980 . S
H194 C220 0.983 . S
H195 C219 0.979 . S
H196 C219 0.977 . S
C197 C185 1.453 . S
C197 H226 0.982 . S
C197 H227 0.979 . S
C197 H228 0.977 . S
C198 C185 1.684 . S
C198 H223 0.979 . S
C198 H224 0.980 . S
C198 H225 0.983 . S
C199 C200 1.391 . S
C199 C204 1.391 . S
C199 H229 0.948 . S
C200 C199 1.391 . S
C200 C201 1.391 . S
C201 C200 1.391 . S
C201 C202 1.392 . S
C201 H230 0.947 . S
C202 C201 1.392 . S
C202 C203 1.419 . S
C202 H231 0.948 . S
C203 C202 1.419 . S
C203 C204 1.391 . S
C203 C207 1.397 . S
C204 C199 1.391 . S
C204 C203 1.391 . S
C204 C205 1.399 . S
C205 C204 1.399 . S
C205 C206 1.396 . S
C205 C208 1.453 . S
C205 C209 1.684 . S
C206 C187 1.723 . S
C206 C205 1.396 . S
C206 C207 1.394 . S
C207 C203 1.397 . S
C207 C206 1.394 . S
C207 C217 1.723 . S
C208 C205 1.453 . S
C208 H232 0.982 . S
C208 H233 0.979 . S
C208 H234 0.977 . S
C209 C205 1.684 . S
C209 H235 0.979 . S
C209 H236 0.980 . S
C209 H237 0.983 . S
C210 H186 0.948 . S
C210 C211 1.391 . S
C210 C215 1.391 . S
C211 C210 1.391 . S
C211 C212 1.391 . S
C212 H189 0.947 . S
C212 C211 1.391 . S
C212 C213 1.392 . S
C213 H190 0.948 . S
C213 C212 1.392 . S
C213 C214 1.419 . S
C214 C213 1.419 . S
C214 C215 1.391 . S
C214 C218 1.397 . S
C215 C210 1.391 . S
C215 C214 1.391 . S
C215 C216 1.399 . S
C216 C215 1.399 . S
C216 C217 1.396 . S
C216 C219 1.453 . S
C216 C220 1.684 . S
C217 C207 1.723 . S
C217 C216 1.396 . S
C217 C218 1.394 . S
C218 C188 1.723 . S
C218 C214 1.397 . S
C218 C217 1.394 . S
C219 H191 0.982 . S
C219 H195 0.979 . S
C219 H196 0.977 . S
C219 C216 1.453 . S
C220 H192 0.979 . S
C220 H193 0.980 . S
C220 H194 0.983 . S
C220 C216 1.684 . S
H221 C239 0.948 . S
H222 C180 0.948 . S
H223 C198 0.979 . S
H224 C198 0.980 . S
H225 C198 0.983 . S
H226 C197 0.982 . S
H227 C197 0.979 . S
H228 C197 0.977 . S
H229 C199 0.948 . S
H230 C201 0.947 . S
H231 C202 0.948 . S
H232 C208 0.982 . S
H233 C208 0.979 . S
H234 C208 0.977 . S
H235 C209 0.979 . S
H236 C209 0.980 . S
H237 C209 0.983 . S
H238 C182 0.947 . S
C239 C182 1.392 . S
C239 C183 1.419 . S
C239 H221 0.948 . S
C240 C241 1.391 . S
C240 C244 1.391 . S
C240 H282 0.948 . S
C241 C240 1.391 . S
C241 C242 1.391 . S
C242 C241 1.391 . S
C242 H298 0.947 . S
C242 C299 1.392 . S
C243 C244 1.391 . S
C243 C247 1.397 . S
C243 C299 1.419 . S
C244 C240 1.391 . S
C244 C243 1.391 . S
C244 C245 1.399 . S
C245 C244 1.399 . S
C245 C248 1.396 . S
C245 C257 1.453 . S
C245 C258 1.684 . S
H246 C270 0.948 . S
C247 C243 1.397 . S
C247 C248 1.394 . S
C247 C266 1.723 . S
C248 C245 1.396 . S
C248 C247 1.394 . S
C248 C278 1.723 . S
H249 C272 0.947 . S
H250 C273 0.948 . S
H251 C279 0.982 . S
H252 C280 0.979 . S
H253 C280 0.980 . S
H254 C280 0.983 . S
H255 C279 0.979 . S
H256 C279 0.977 . S
C257 C245 1.453 . S
C257 H286 0.982 . S
C257 H287 0.979 . S
C257 H288 0.977 . S
C258 C245 1.684 . S
C258 H283 0.979 . S
C258 H284 0.980 . S
C258 H285 0.983 . S
C259 C260 1.391 . S
C259 C264 1.391 . S
C259 H289 0.948 . S
C260 C259 1.391 . S
C260 C261 1.391 . S
C261 C260 1.391 . S
C261 C262 1.392 . S
C261 H290 0.947 . S
C262 C261 1.392 . S
C262 C263 1.419 . S
C262 H291 0.948 . S
C263 C262 1.419 . S
C263 C264 1.391 . S
C263 C267 1.397 . S
C264 C259 1.391 . S
C264 C263 1.391 . S
C264 C265 1.399 . S
C265 C264 1.399 . S
C265 C266 1.396 . S
C265 C268 1.453 . S
C265 C269 1.684 . S
C266 C247 1.723 . S
C266 C265 1.396 . S
C266 C267 1.394 . S
C267 C263 1.397 . S
C267 C266 1.394 . S
C267 C277 1.723 . S
C268 C265 1.453 . S
C268 H292 0.982 . S
C268 H293 0.979 . S
C268 H294 0.977 . S
C269 C265 1.684 . S
C269 H295 0.979 . S
C269 H296 0.980 . S
C269 H297 0.983 . S
C270 H246 0.948 . S
C270 C271 1.391 . S
C270 C275 1.391 . S
C271 C270 1.391 . S
C271 C272 1.391 . S
C272 H249 0.947 . S
C272 C271 1.391 . S
C272 C273 1.392 . S
C273 H250 0.948 . S
C273 C272 1.392 . S
C273 C274 1.419 . S
C274 C273 1.419 . S
C274 C275 1.391 . S
C274 C278 1.397 . S
C275 C270 1.391 . S
C275 C274 1.391 . S
C275 C276 1.399 . S
C276 C275 1.399 . S
C276 C277 1.396 . S
C276 C279 1.453 . S
C276 C280 1.684 . S
C277 C267 1.723 . S
C277 C276 1.396 . S
C277 C278 1.394 . S
C278 C248 1.723 . S
C278 C274 1.397 . S
C278 C277 1.394 . S
C279 H251 0.982 . S
C279 H255 0.979 . S
C279 H256 0.977 . S
C279 C276 1.453 . S
C280 H252 0.979 . S
C280 H253 0.980 . S
C280 H254 0.983 . S
C280 C276 1.684 . S
H281 C299 0.948 . S
H282 C240 0.948 . S
H283 C258 0.979 . S
H284 C258 0.980 . S
H285 C258 0.983 . S
H286 C257 0.982 . S
H287 C257 0.979 . S
H288 C257 0.977 . S
H289 C259 0.948 . S
H290 C261 0.947 . S
H291 C262 0.948 . S
H292 C268 0.982 . S
H293 C268 0.979 . S
H294 C268 0.977 . S
H295 C269 0.979 . S
H296 C269 0.980 . S
H297 C269 0.983 . S
H298 C242 0.947 . S
C299 C242 1.392 . S
C299 C243 1.419 . S
C299 H281 0.948 . S
C300 C301 1.391 . S
C300 C304 1.391 . S
C300 H342 0.948 . S
C301 C300 1.391 . S
C301 C302 1.391 . S
C302 C301 1.391 . S
C302 H358 0.947 . S
C302 C359 1.392 . S
C303 C304 1.391 . S
C303 C307 1.397 . S
C303 C359 1.419 . S
C304 C300 1.391 . S
C304 C303 1.391 . S
C304 C305 1.399 . S
C305 C304 1.399 . S
C305 C308 1.396 . S
C305 C317 1.453 . S
C305 C318 1.684 . S
H306 C330 0.948 . S
C307 C303 1.397 . S
C307 C308 1.394 . S
C307 C326 1.723 . S
C308 C305 1.396 . S
C308 C307 1.394 . S
C308 C338 1.723 . S
H309 C332 0.947 . S
H310 C333 0.948 . S
H311 C339 0.982 . S
H312 C340 0.979 . S
H313 C340 0.980 . S
H314 C340 0.983 . S
H315 C339 0.979 . S
H316 C339 0.977 . S
C317 C305 1.453 . S
C317 H346 0.982 . S
C317 H347 0.979 . S
C317 H348 0.977 . S
C318 C305 1.684 . S
C318 H343 0.979 . S
C318 H344 0.980 . S
C318 H345 0.983 . S
C319 C320 1.391 . S
C319 C324 1.391 . S
C319 H349 0.948 . S
C320 C319 1.391 . S
C320 C321 1.391 . S
C321 C320 1.391 . S
C321 C322 1.392 . S
C321 H350 0.947 . S
C322 C321 1.392 . S
C322 C323 1.419 . S
C322 H351 0.948 . S
C323 C322 1.419 . S
C323 C324 1.391 . S
C323 C327 1.397 . S
C324 C319 1.391 . S
C324 C323 1.391 . S
C324 C325 1.399 . S
C325 C324 1.399 . S
C325 C326 1.396 . S
C325 C328 1.453 . S
C325 C329 1.684 . S
C326 C307 1.723 . S
C326 C325 1.396 . S
C326 C327 1.394 . S
C327 C323 1.397 . S
C327 C326 1.394 . S
C327 C337 1.723 . S
C328 C325 1.453 . S
C328 H352 0.982 . S
C328 H353 0.979 . S
C328 H354 0.977 . S
C329 C325 1.684 . S
C329 H355 0.979 . S
C329 H356 0.980 . S
C329 H357 0.983 . S
C330 H306 0.948 . S
C330 C331 1.391 . S
C330 C335 1.391 . S
C331 C330 1.391 . S
C331 C332 1.391 . S
C332 H309 0.947 . S
C332 C331 1.391 . S
C332 C333 1.392 . S
C333 H310 0.948 . S
C333 C332 1.392 . S
C333 C334 1.419 . S
C334 C333 1.419 . S
C334 C335 1.391 . S
C334 C338 1.397 . S
C335 C330 1.391 . S
C335 C334 1.391 . S
C335 C336 1.399 . S
C336 C335 1.399 . S
C336 C337 1.396 . S
C336 C339 1.453 . S
C336 C340 1.684 . S
C337 C327 1.723 . S
C337 C336 1.396 . S
C337 C338 1.394 . S
C338 C308 1.723 . S
C338 C334 1.397 . S
C338 C337 1.394 . S
C339 H311 0.982 . S
C339 H315 0.979 . S
C339 H316 0.977 . S
C339 C336 1.453 . S
C340 H312 0.979 . S
C340 H313 0.980 . S
C340 H314 0.983 . S
C340 C336 1.684 . S
H341 C359 0.948 . S
H342 C300 0.948 . S
H343 C318 0.979 . S
H344 C318 0.980 . S
H345 C318 0.983 . S
H346 C317 0.982 . S
H347 C317 0.979 . S
H348 C317 0.977 . S
H349 C319 0.948 . S
H350 C321 0.947 . S
H351 C322 0.948 . S
H352 C328 0.982 . S
H353 C328 0.979 . S
H354 C328 0.977 . S
H355 C329 0.979 . S
H356 C329 0.980 . S
H357 C329 0.983 . S
H358 C302 0.947 . S
C359 C302 1.392 . S
C359 C303 1.419 . S
C359 H341 0.948 . S
C360 C361 1.391 . S
C360 C364 1.391 . S
C360 H402 0.948 . S
C361 C360 1.391 . S
C361 C362 1.391 . S
C362 C361 1.391 . S
C362 H418 0.947 . S
C362 C419 1.392 . S
C363 C364 1.391 . S
C363 C367 1.397 . S
C363 C419 1.419 . S
C364 C360 1.391 . S
C364 C363 1.391 . S
C364 C365 1.399 . S
C365 C364 1.399 . S
C365 C368 1.396 . S
C365 C377 1.453 . S
C365 C378 1.684 . S
H366 C390 0.948 . S
C367 C363 1.397 . S
C367 C368 1.394 . S
C367 C386 1.723 . S
C368 C365 1.396 . S
C368 C367 1.394 . S
C368 C398 1.723 . S
H369 C392 0.947 . S
H370 C393 0.948 . S
H371 C399 0.982 . S
H372 C400 0.979 . S
H373 C400 0.980 . S
H374 C400 0.983 . S
H375 C399 0.979 . S
H376 C399 0.977 . S
C377 C365 1.453 . S
C377 H406 0.982 . S
C377 H407 0.979 . S
C377 H408 0.977 . S
C378 C365 1.684 . S
C378 H403 0.979 . S
C378 H404 0.980 . S
C378 H405 0.983 . S
C379 C380 1.391 . S
C379 C384 1.391 . S
C379 H409 0.948 . S
C380 C379 1.391 . S
C380 C381 1.391 . S
C381 C380 1.391 . S
C381 C382 1.392 . S
C381 H410 0.947 . S
C382 C381 1.392 . S
C382 C383 1.419 . S
C382 H411 0.948 . S
C383 C382 1.419 . S
C383 C384 1.391 . S
C383 C387 1.397 . S
C384 C379 1.391 . S
C384 C383 1.391 . S
C384 C385 1.399 . S
C385 C384 1.399 . S
C385 C386 1.396 . S
C385 C388 1.453 . S
C385 C389 1.684 . S
C386 C367 1.723 . S
C386 C385 1.396 . S
C386 C387 1.394 . S
C387 C383 1.397 . S
C387 C386 1.394 . S
C387 C397 1.723 . S
C388 C385 1.453 . S
C388 H412 0.982 . S
C388 H413 0.979 . S
C388 H414 0.977 . S
C389 C385 1.684 . S
C389 H415 0.979 . S
C389 H416 0.980 . S
C389 H417 0.983 . S
C390 H366 0.948 . S
C390 C391 1.391 . S
C390 C395 1.391 . S
C391 C390 1.391 . S
C391 C392 1.391 . S
C392 H369 0.947 . S
C392 C391 1.391 . S
C392 C393 1.392 . S
C393 H370 0.948 . S
C393 C392 1.392 . S
C393 C394 1.419 . S
C394 C393 1.419 . S
C394 C395 1.391 . S
C394 C398 1.397 . S
C395 C390 1.391 . S
C395 C394 1.391 . S
C395 C396 1.399 . S
C396 C395 1.399 . S
C396 C397 1.396 . S
C396 C399 1.453 . S
C396 C400 1.684 . S
C397 C387 1.723 . S
C397 C396 1.396 . S
C397 C398 1.394 . S
C398 C368 1.723 . S
C398 C394 1.397 . S
C398 C397 1.394 . S
C399 H371 0.982 . S
C399 H375 0.979 . S
C399 H376 0.977 . S
C399 C396 1.453 . S
C400 H372 0.979 . S
C400 H373 0.980 . S
C400 H374 0.983 . S
C400 C396 1.684 . S
H401 C419 0.948 . S
H402 C360 0.948 . S
H403 C378 0.979 . S
H404 C378 0.980 . S
H405 C378 0.983 . S
H406 C377 0.982 . S
H407 C377 0.979 . S
H408 C377 0.977 . S
H409 C379 0.948 . S
H410 C381 0.947 . S
H411 C382 0.948 . S
H412 C388 0.982 . S
H413 C388 0.979 . S
H414 C388 0.977 . S
H415 C389 0.979 . S
H416 C389 0.980 . S
H417 C389 0.983 . S
H418 C362 0.947 . S
C419 C362 1.392 . S
C419 C363 1.419 . S
C419 H401 0.948 . S
C420 C421 1.391 . S
C420 C424 1.391 . S
C420 H462 0.948 . S
C421 C420 1.391 . S
C421 C422 1.391 . S
C422 C421 1.391 . S
C422 H478 0.947 . S
C422 C479 1.392 . S
C423 C424 1.391 . S
C423 C427 1.397 . S
C423 C479 1.419 . S
C424 C420 1.391 . S
C424 C423 1.391 . S
C424 C425 1.399 . S
C425 C424 1.399 . S
C425 C428 1.396 . S
C425 C437 1.453 . S
C425 C438 1.684 . S
H426 C450 0.948 . S
C427 C423 1.397 . S
C427 C428 1.394 . S
C427 C446 1.723 . S
C428 C425 1.396 . S
C428 C427 1.394 . S
C428 C458 1.723 . S
H429 C452 0.947 . S
H430 C453 0.948 . S
H431 C459 0.982 . S
H432 C460 0.979 . S
H433 C460 0.980 . S
H434 C460 0.983 . S
H435 C459 0.979 . S
H436 C459 0.977 . S
C437 C425 1.453 . S
C437 H466 0.982 . S
C437 H467 0.979 . S
C437 H468 0.977 . S
C438 C425 1.684 . S
C438 H463 0.979 . S
C438 H464 0.980 . S
C438 H465 0.983 . S
C439 C440 1.391 . S
C439 C444 1.391 . S
C439 H469 0.948 . S
C440 C439 1.391 . S
C440 C441 1.391 . S
C441 C440 1.391 . S
C441 C442 1.392 . S
C441 H470 0.947 . S
C442 C441 1.392 . S
C442 C443 1.419 . S
C442 H471 0.948 . S
C443 C442 1.419 . S
C443 C444 1.391 . S
C443 C447 1.397 . S
C444 C439 1.391 . S
C444 C443 1.391 . S
C444 C445 1.399 . S
C445 C444 1.399 . S
C445 C446 1.396 . S
C445 C448 1.453 . S
C445 C449 1.684 . S
C446 C427 1.723 . S
C446 C445 1.396 . S
C446 C447 1.394 . S
C447 C443 1.397 . S
C447 C446 1.394 . S
C447 C457 1.723 . S
C448 C445 1.453 . S
C448 H472 0.982 . S
C448 H473 0.979 . S
C448 H474 0.977 . S
C449 C445 1.684 . S
C449 H475 0.979 . S
C449 H476 0.980 . S
C449 H477 0.983 . S
C450 H426 0.948 . S
C450 C451 1.391 . S
C450 C455 1.391 . S
C451 C450 1.391 . S
C451 C452 1.391 . S
C452 H429 0.947 . S
C452 C451 1.391 . S
C452 C453 1.392 . S
C453 H430 0.948 . S
C453 C452 1.392 . S
C453 C454 1.419 . S
C454 C453 1.419 . S
C454 C455 1.391 . S
C454 C458 1.397 . S
C455 C450 1.391 . S
C455 C454 1.391 . S
C455 C456 1.399 . S
C456 C455 1.399 . S
C456 C457 1.396 . S
C456 C459 1.453 . S
C456 C460 1.684 . S
C457 C447 1.723 . S
C457 C456 1.396 . S
C457 C458 1.394 . S
C458 C428 1.723 . S
C458 C454 1.397 . S
C458 C457 1.394 . S
C459 H431 0.982 . S
C459 H435 0.979 . S
C459 H436 0.977 . S
C459 C456 1.453 . S
C460 H432 0.979 . S
C460 H433 0.980 . S
C460 H434 0.983 . S
C460 C456 1.684 . S
H461 C479 0.948 . S
H462 C420 0.948 . S
H463 C438 0.979 . S
H464 C438 0.980 . S
H465 C438 0.983 . S
H466 C437 0.982 . S
H467 C437 0.979 . S
H468 C437 0.977 . S
H469 C439 0.948 . S
H470 C441 0.947 . S
H471 C442 0.948 . S
H472 C448 0.982 . S
H473 C448 0.979 . S
H474 C448 0.977 . S
H475 C449 0.979 . S
H476 C449 0.980 . S
H477 C449 0.983 . S
H478 C422 0.947 . S
C479 C422 1.392 . S
C479 C423 1.419 . S
C479 H461 0.948 . S
Zn480 O486 1.969 1_545 S
Zn480 O487 1.965 1_545 S
Zn480 O491 2.024 . S
Zn480 O496 1.969 . S
Zn481 O488 1.969 . S
Zn481 O494 1.969 1_565 S
Zn481 O495 1.965 1_565 S
Zn481 O497 2.024 . S
C482 O483 1.229 . S
C482 O491 1.058 . S
O483 C482 1.229 . S
C484 O485 1.229 . S
C484 O497 1.058 . S
O485 C484 1.229 . S
O486 Zn480 1.969 1_565 S
O486 C489 1.267 . S
O487 Zn480 1.965 1_565 S
O487 C498 1.260 1_455 S
O488 Zn481 1.969 . S
O488 C498 1.258 . S
C489 O486 1.267 . S
C489 O490 1.228 . S
O490 C489 1.228 . S
O491 Zn480 2.024 . S
O491 C482 1.058 . S
C492 O493 1.228 . S
C492 O494 1.267 . S
O493 C492 1.228 . S
O494 Zn481 1.969 1_545 S
O494 C492 1.267 . S
O495 Zn481 1.965 1_545 S
O495 C499 1.260 1_655 S
O496 Zn480 1.969 . S
O496 C499 1.258 . S
O497 Zn481 2.024 . S
O497 C484 1.058 . S
C498 O487 1.260 1_655 S
C498 O488 1.258 . S
C499 O495 1.260 1_455 S
C499 O496 1.258 . S
Zn500 O506 1.969 . S
Zn500 O507 1.965 1_565 S
Zn500 O511 2.024 . S
Zn500 O516 1.969 . S
Zn501 O508 1.969 . S
Zn501 O514 1.969 . S
Zn501 O515 1.965 1_545 S
Zn501 O517 2.024 . S
C502 O503 1.229 . S
C502 O511 1.058 . S
O503 C502 1.229 . S
C504 O505 1.229 . S
C504 O517 1.058 . S
O505 C504 1.229 . S
O506 Zn500 1.969 . S
O506 C509 1.267 . S
O507 Zn500 1.965 1_545 S
O507 C518 1.260 . S
O508 Zn501 1.969 . S
O508 C518 1.258 1_554 S
C509 O506 1.267 . S
C509 O510 1.228 . S
O510 C509 1.228 . S
O511 Zn500 2.024 . S
O511 C502 1.058 . S
C512 O513 1.228 . S
C512 O514 1.267 . S
O513 C512 1.228 . S
O514 Zn501 1.969 . S
O514 C512 1.267 . S
O515 Zn501 1.965 1_565 S
O515 C519 1.260 . S
O516 Zn500 1.969 . S
O516 C519 1.258 1_556 S
O517 Zn501 2.024 . S
O517 C504 1.058 . S
C518 O507 1.260 . S
C518 O508 1.258 1_556 S
C519 O515 1.260 . S
C519 O516 1.258 1_554 S
Zn520 O526 1.969 . S
Zn520 O527 1.965 . S
Zn520 O531 2.024 . S
Zn520 O536 1.969 . S
Zn521 O528 1.969 . S
Zn521 O534 1.969 . S
Zn521 O535 1.965 . S
Zn521 O537 2.024 . S
C522 O523 1.229 . S
C522 O531 1.058 . S
O523 C522 1.229 . S
C524 O525 1.229 . S
C524 O537 1.058 . S
O525 C524 1.229 . S
O526 Zn520 1.969 . S
O526 C529 1.267 . S
O527 Zn520 1.965 . S
O527 C538 1.260 . S
O528 Zn521 1.969 . S
O528 C538 1.258 . S
C529 O526 1.267 . S
C529 O530 1.228 . S
O530 C529 1.228 . S
O531 Zn520 2.024 . S
O531 C522 1.058 . S
C532 O533 1.228 . S
C532 O534 1.267 . S
O533 C532 1.228 . S
O534 Zn521 1.969 . S
O534 C532 1.267 . S
O535 Zn521 1.965 . S
O535 C539 1.260 . S
O536 Zn520 1.969 . S
O536 C539 1.258 . S
O537 Zn521 2.024 . S
O537 C524 1.058 . S
C538 O527 1.260 . S
C538 O528 1.258 . S
C539 O535 1.260 . S
C539 O536 1.258 . S
Zn540 O546 1.969 . S
Zn540 O547 1.965 1_556 S
Zn540 O551 2.024 . S
Zn540 O556 1.978 . S
Zn541 O548 1.995 . S
Zn541 O554 1.969 . S
Zn541 O555 1.965 1_554 S
Zn541 O557 2.024 . S
C542 O543 1.229 . S
C542 O551 1.058 . S
O543 C542 1.229 . S
C544 O545 1.229 . S
C544 O557 1.058 . S
O545 C544 1.229 . S
O546 Zn540 1.969 . S
O546 C549 1.267 . S
O547 Zn540 1.965 1_554 S
O547 C558 1.260 . S
O548 Zn541 1.995 . S
O548 C558 1.232 1_455 S
C549 O546 1.267 . S
C549 O550 1.228 . S
O550 C549 1.228 . S
O551 Zn540 2.024 . S
O551 C542 1.058 . S
C552 O553 1.228 . S
C552 O554 1.267 . S
O553 C552 1.228 . S
O554 Zn541 1.969 . S
O554 C552 1.267 . S
O555 Zn541 1.965 1_556 S
O555 C559 1.260 . S
O556 Zn540 1.978 . S
O556 C559 1.250 1_655 S
O557 Zn541 2.024 . S
O557 C544 1.058 . S
C558 O547 1.260 . S
C558 O548 1.232 1_655 S
C559 O555 1.260 . S
C559 O556 1.250 1_455 S
C560 C561 1.387 . S
C560 H564 0.950 . S
C560 C569 1.390 . S
C561 C560 1.387 . S
C561 C563 1.387 . S
H562 C569 0.950 . S
C563 C561 1.387 . S
C563 C565 1.390 . S
C563 H567 0.950 . S
H564 C560 0.950 . S
C565 C563 1.390 . S
C565 C566 1.387 . S
C565 H568 0.950 . S
C566 C565 1.387 . S
C566 C569 1.387 . S
H567 C563 0.950 . S
H568 C565 0.950 . S
C569 C560 1.390 . S
C569 H562 0.950 . S
C569 C566 1.387 . S
C570 C571 1.387 . S
C570 H574 0.950 . S
C570 C579 1.390 . S
C571 C570 1.387 . S
C571 C573 1.387 . S
H572 C579 0.950 . S
C573 C571 1.387 . S
C573 C575 1.390 . S
C573 H577 0.950 . S
H574 C570 0.950 . S
C575 C573 1.390 . S
C575 C576 1.387 . S
C575 H578 0.950 . S
C576 C575 1.387 . S
C576 C579 1.387 . S
H577 C573 0.950 . S
H578 C575 0.950 . S
C579 C570 1.390 . S
C579 H572 0.950 . S
C579 C576 1.387 . S
C580 C581 1.387 . S
C580 H584 0.950 . S
C580 C589 1.390 . S
C581 C580 1.387 . S
C581 C583 1.387 . S
H582 C589 0.950 . S
C583 C581 1.387 . S
C583 C585 1.390 . S
C583 H587 0.950 . S
H584 C580 0.950 . S
C585 C583 1.390 . S
C585 C586 1.387 . S
C585 H588 0.950 . S
C586 C585 1.387 . S
C586 C589 1.387 . S
H587 C583 0.950 . S
H588 C585 0.950 . S
C589 C580 1.390 . S
C589 H582 0.950 . S
C589 C586 1.387 . S
C590 C591 1.387 . S
C590 H594 0.950 . S
C590 C599 1.390 . S
C591 C590 1.387 . S
C591 C593 1.387 . S
H592 C599 0.950 . S
C593 C591 1.387 . S
C593 C595 1.390 . S
C593 H597 0.950 . S
H594 C590 0.950 . S
C595 C593 1.390 . S
C595 C596 1.387 . S
C595 H598 0.950 . S
C596 C595 1.387 . S
C596 C599 1.387 . S
H597 C593 0.950 . S
H598 C595 0.950 . S
C599 C590 1.390 . S
C599 H592 0.950 . S
C599 C596 1.387 . S
C600 C601 1.387 . S
C600 H604 0.950 . S
C600 C609 1.390 . S
C601 C600 1.387 . S
C601 C603 1.387 . S
H602 C609 0.950 . S
C603 C601 1.387 . S
C603 C605 1.390 . S
C603 H607 0.950 . S
H604 C600 0.950 . S
C605 C603 1.390 . S
C605 C606 1.387 . S
C605 H608 0.950 . S
C606 C605 1.387 . S
C606 C609 1.387 . S
H607 C603 0.950 . S
H608 C605 0.950 . S
C609 C600 1.390 . S
C609 H602 0.950 . S
C609 C606 1.387 . S
C610 C611 1.387 . S
C610 H614 0.950 . S
C610 C619 1.390 . S
C611 C610 1.387 . S
C611 C613 1.387 . S
H612 C619 0.950 . S
C613 C611 1.387 . S
C613 C615 1.390 . S
C613 H617 0.950 . S
H614 C610 0.950 . S
C615 C613 1.390 . S
C615 C616 1.387 . S
C615 H618 0.950 . S
C616 C615 1.387 . S
C616 C619 1.387 . S
H617 C613 0.950 . S
H618 C615 0.950 . S
C619 C610 1.390 . S
C619 H612 0.950 . S
C619 C616 1.387 . S
C620 C621 1.387 . S
C620 H624 0.950 . S
C620 C629 1.390 . S
C621 C620 1.387 . S
C621 C623 1.387 . S
H622 C629 0.950 . S
C623 C621 1.387 . S
C623 C625 1.390 . S
C623 H627 0.950 . S
H624 C620 0.950 . S
C625 C623 1.390 . S
C625 C626 1.387 . S
C625 H628 0.950 . S
C626 C625 1.387 . S
C626 C629 1.387 . S
H627 C623 0.950 . S
H628 C625 0.950 . S
C629 C620 1.390 . S
C629 H622 0.950 . S
C629 C626 1.387 . S
C630 C631 1.387 . S
C630 H634 0.950 . S
C630 C639 1.390 . S
C631 C630 1.387 . S
C631 C633 1.387 . S
H632 C639 0.950 . S
C633 C631 1.387 . S
C633 C635 1.390 . S
C633 H637 0.950 . S
H634 C630 0.950 . S
C635 C633 1.390 . S
C635 C636 1.387 . S
C635 H638 0.950 . S
C636 C635 1.387 . S
C636 C639 1.387 . S
H637 C633 0.950 . S
H638 C635 0.950 . S
C639 C630 1.390 . S
C639 H632 0.950 . S
C639 C636 1.387 . S
C640 C641 1.387 . S
C640 H644 0.950 . S
C640 C649 1.390 . S
C641 C640 1.387 . S
C641 C643 1.387 . S
H642 C649 0.950 . S
C643 C641 1.387 . S
C643 C645 1.390 . S
C643 H647 0.950 . S
H644 C640 0.950 . S
C645 C643 1.390 . S
C645 C646 1.387 . S
C645 H648 0.950 . S
C646 C645 1.387 . S
C646 C649 1.387 . S
H647 C643 0.950 . S
H648 C645 0.950 . S
C649 C640 1.390 . S
C649 H642 0.950 . S
C649 C646 1.387 . S
C650 C651 1.387 . S
C650 H654 0.950 . S
C650 C659 1.390 . S
C651 C650 1.387 . S
C651 C653 1.387 . S
H652 C659 0.950 . S
C653 C651 1.387 . S
C653 C655 1.390 . S
C653 H657 0.950 . S
H654 C650 0.950 . S
C655 C653 1.390 . S
C655 C656 1.387 . S
C655 H658 0.950 . S
C656 C655 1.387 . S
C656 C659 1.387 . S
H657 C653 0.950 . S
H658 C655 0.950 . S
C659 C650 1.390 . S
C659 H652 0.950 . S
C659 C656 1.387 . S
C660 C661 1.387 . S
C660 H664 0.950 . S
C660 C669 1.390 . S
C661 C660 1.387 . S
C661 C663 1.387 . S
H662 C669 0.950 . S
C663 C661 1.387 . S
C663 C665 1.390 . S
C663 H667 0.950 . S
H664 C660 0.950 . S
C665 C663 1.390 . S
C665 C666 1.387 . S
C665 H668 0.950 . S
C666 C665 1.387 . S
C666 C669 1.387 . S
H667 C663 0.950 . S
H668 C665 0.950 . S
C669 C660 1.390 . S
C669 H662 0.950 . S
C669 C666 1.387 . S
C670 C671 1.387 . S
C670 H674 0.950 . S
C670 C679 1.390 . S
C671 C670 1.387 . S
C671 C673 1.387 . S
H672 C679 0.950 . S
C673 C671 1.387 . S
C673 C675 1.390 . S
C673 H677 0.950 . S
H674 C670 0.950 . S
C675 C673 1.390 . S
C675 C676 1.387 . S
C675 H678 0.950 . S
C676 C675 1.387 . S
C676 C679 1.387 . S
H677 C673 0.950 . S
H678 C675 0.950 . S
C679 C670 1.390 . S
C679 H672 0.950 . S
C679 C676 1.387 . S
C680 C681 1.387 . S
C680 H684 0.950 . S
C680 C689 1.390 . S
C681 C680 1.387 . S
C681 C683 1.387 . S
H682 C689 0.950 . S
C683 C681 1.387 . S
C683 C685 1.390 . S
C683 H687 0.950 . S
H684 C680 0.950 . S
C685 C683 1.390 . S
C685 C686 1.387 . S
C685 H688 0.950 . S
C686 C685 1.387 . S
C686 C689 1.387 . S
H687 C683 0.950 . S
H688 C685 0.950 . S
C689 C680 1.390 . S
C689 H682 0.950 . S
C689 C686 1.387 . S
C690 C691 1.387 . S
C690 H694 0.950 . S
C690 C699 1.390 . S
C691 C690 1.387 . S
C691 C693 1.387 . S
H692 C699 0.950 . S
C693 C691 1.387 . S
C693 C695 1.390 . S
C693 H697 0.950 . S
H694 C690 0.950 . S
C695 C693 1.390 . S
C695 C696 1.387 . S
C695 H698 0.950 . S
C696 C695 1.387 . S
C696 C699 1.387 . S
H697 C693 0.950 . S
H698 C695 0.950 . S
C699 C690 1.390 . S
C699 H692 0.950 . S
C699 C696 1.387 . S
C700 C701 1.387 . S
C700 H704 0.950 . S
C700 C709 1.390 . S
C701 C700 1.387 . S
C701 C703 1.387 . S
H702 C709 0.950 . S
C703 C701 1.387 . S
C703 C705 1.390 . S
C703 H707 0.950 . S
H704 C700 0.950 . S
C705 C703 1.390 . S
C705 C706 1.387 . S
C705 H708 0.950 . S
C706 C705 1.387 . S
C706 C709 1.387 . S
H707 C703 0.950 . S
H708 C705 0.950 . S
C709 C700 1.390 . S
C709 H702 0.950 . S
C709 C706 1.387 . S
C710 C711 1.387 . S
C710 H714 0.950 . S
C710 C719 1.390 . S
C711 C710 1.387 . S
C711 C713 1.387 . S
H712 C719 0.950 . S
C713 C711 1.387 . S
C713 C715 1.390 . S
C713 H717 0.950 . S
H714 C710 0.950 . S
C715 C713 1.390 . S
C715 C716 1.387 . S
C715 H718 0.950 . S
C716 C715 1.387 . S
C716 C719 1.387 . S
H717 C713 0.950 . S
H718 C715 0.950 . S
C719 C710 1.390 . S
C719 H712 0.950 . S
C719 C716 1.387 . S
C720 C721 1.387 . S
C720 H724 0.950 . S
C720 C729 1.390 . S
C721 C720 1.387 . S
C721 C723 1.387 . S
H722 C729 0.950 . S
C723 C721 1.387 . S
C723 C725 1.390 . S
C723 H727 0.950 . S
H724 C720 0.950 . S
C725 C723 1.390 . S
C725 C726 1.387 . S
C725 H728 0.950 . S
C726 C725 1.387 . S
C726 C729 1.387 . S
H727 C723 0.950 . S
H728 C725 0.950 . S
C729 C720 1.390 . S
C729 H722 0.950 . S
C729 C726 1.387 . S
C730 C731 1.387 . S
C730 H734 0.950 . S
C730 C739 1.390 . S
C731 C730 1.387 . S
C731 C733 1.387 . S
H732 C739 0.950 . S
C733 C731 1.387 . S
C733 C735 1.390 . S
C733 H737 0.950 . S
H734 C730 0.950 . S
C735 C733 1.390 . S
C735 C736 1.387 . S
C735 H738 0.950 . S
C736 C735 1.387 . S
C736 C739 1.387 . S
H737 C733 0.950 . S
H738 C735 0.950 . S
C739 C730 1.390 . S
C739 H732 0.950 . S
C739 C736 1.387 . S
C740 C741 1.387 . S
C740 H744 0.950 . S
C740 C749 1.390 . S
C741 C740 1.387 . S
C741 C743 1.387 . S
H742 C749 0.950 . S
C743 C741 1.387 . S
C743 C745 1.390 . S
C743 H747 0.950 . S
H744 C740 0.950 . S
C745 C743 1.390 . S
C745 C746 1.387 . S
C745 H748 0.950 . S
C746 C745 1.387 . S
C746 C749 1.387 . S
H747 C743 0.950 . S
H748 C745 0.950 . S
C749 C740 1.390 . S
C749 H742 0.950 . S
C749 C746 1.387 . S
C750 C751 1.387 . S
C750 H754 0.950 . S
C750 C759 1.390 . S
C751 C750 1.387 . S
C751 C753 1.387 . S
H752 C759 0.950 . S
C753 C751 1.387 . S
C753 C755 1.390 . S
C753 H757 0.950 . S
H754 C750 0.950 . S
C755 C753 1.390 . S
C755 C756 1.387 . S
C755 H758 0.950 . S
C756 C755 1.387 . S
C756 C759 1.387 . S
H757 C753 0.950 . S
H758 C755 0.950 . S
C759 C750 1.390 . S
C759 H752 0.950 . S
C759 C756 1.387 . S
C760 C761 1.387 . S
C760 H764 0.950 . S
C760 C769 1.390 . S
C761 C760 1.387 . S
C761 C763 1.387 . S
H762 C769 0.950 . S
C763 C761 1.387 . S
C763 C765 1.390 . S
C763 H767 0.950 . S
H764 C760 0.950 . S
C765 C763 1.390 . S
C765 C766 1.387 . S
C765 H768 0.950 . S
C766 C765 1.387 . S
C766 C769 1.387 . S
H767 C763 0.950 . S
H768 C765 0.950 . S
C769 C760 1.390 . S
C769 H762 0.950 . S
C769 C766 1.387 . S
C770 C771 1.387 . S
C770 H774 0.950 . S
C770 C779 1.390 . S
C771 C770 1.387 . S
C771 C773 1.387 . S
H772 C779 0.950 . S
C773 C771 1.387 . S
C773 C775 1.390 . S
C773 H777 0.950 . S
H774 C770 0.950 . S
C775 C773 1.390 . S
C775 C776 1.387 . S
C775 H778 0.950 . S
C776 C775 1.387 . S
C776 C779 1.387 . S
H777 C773 0.950 . S
H778 C775 0.950 . S
C779 C770 1.390 . S
C779 H772 0.950 . S
C779 C776 1.387 . S
C780 C781 1.387 . S
C780 H784 0.950 . S
C780 C789 1.390 . S
C781 C780 1.387 . S
C781 C783 1.387 . S
H782 C789 0.950 . S
C783 C781 1.387 . S
C783 C785 1.390 . S
C783 H787 0.950 . S
H784 C780 0.950 . S
C785 C783 1.390 . S
C785 C786 1.387 . S
C785 H788 0.950 . S
C786 C785 1.387 . S
C786 C789 1.387 . S
H787 C783 0.950 . S
H788 C785 0.950 . S
C789 C780 1.390 . S
C789 H782 0.950 . S
C789 C786 1.387 . S
C790 C791 1.387 . S
C790 H794 0.950 . S
C790 C799 1.390 . S
C791 C790 1.387 . S
C791 C793 1.387 . S
H792 C799 0.950 . S
C793 C791 1.387 . S
C793 C795 1.390 . S
C793 H797 0.950 . S
H794 C790 0.950 . S
C795 C793 1.390 . S
C795 C796 1.387 . S
C795 H798 0.950 . S
C796 C795 1.387 . S
C796 C799 1.387 . S
H797 C793 0.950 . S
H798 C795 0.950 . S
C799 C790 1.390 . S
C799 H792 0.950 . S
C799 C796 1.387 . S
C561 C1 1.452 . S
C566 C499 1.493 . S
C571 C80 1.266 . S
C576 C502 1.261 . S
C586 C538 1.792 . S
C581 C140 1.807 . S
C591 C211 1.703 . S
C596 C558 1.694 . S
C606 C512 1.638 . S
C601 C31 1.637 . S
C616 C489 1.473 . S
C611 C61 1.467 . S
C626 C542 1.567 . S
C621 C151 1.662 . S
C636 C522 1.425 . S
C631 C200 1.562 . S
C641 C20 1.362 . S
C646 C552 1.330 . S
C656 C518 1.658 . S
C651 C121 1.667 . S
C661 C181 1.614 . S
C666 C484 1.618 . S
C671 C91 1.316 . S
C676 C532 1.300 . S
C686 C498 1.495 . S
C681 C260 1.504 . S
C691 C320 1.266 . S
C696 C504 1.260 . S
C701 C361 1.794 . S
C706 C539 1.794 . S
C711 C451 1.703 . S
C716 C559 1.694 . S
C721 C271 1.622 . S
C726 C509 1.638 . S
C736 C492 1.473 . S
C731 C301 1.466 . S
C746 C544 1.567 . S
C741 C380 1.636 . S
C756 C524 1.422 . S
C751 C440 1.561 . S
C761 C241 1.338 . S
C766 C549 1.326 . S
C776 C519 1.659 . S
C771 C391 1.652 . S
C786 C482 1.619 . S
C781 C421 1.616 . S
C791 C331 1.316 . S
C796 C529 1.300 . S
