# Generated by pormake.
# Topology sit, (3,6)-cn, num edge types: 1
# Building blocks:
#     Node 0, Type 0, BuildingBlock: VETTIZ_charged_linker_0, # of connection points: 3
#     Node 1, Type 0, BuildingBlock: VETTIZ_charged_linker_0, # of connection points: 3
#     Node 2, Type 0, BuildingBlock: VETTIZ_charged_linker_0, # of connection points: 3
#     Node 3, Type 0, BuildingBlock: VETTIZ_charged_linker_0, # of connection points: 3
#     Node 4, Type 1, BuildingBlock: MIDCAF_clean_sbu_0, # of connection points: 6
#     Node 5, Type 1, BuildingBlock: MIDCAF_clean_sbu_0, # of connection points: 6
#     Edge 6, Type (0, 1), BuildingBlock: EYOCIG_clean_linker_4, # of connection points: 2
#     Edge 7, Type (0, 1), BuildingBlock: EYOCIG_clean_linker_4, # of connection points: 2
#     Edge 8, Type (0, 1), BuildingBlock: EYOCIG_clean_linker_4, # of connection points: 2
#     Edge 9, Type (0, 1), BuildingBlock: EYOCIG_clean_linker_4, # of connection points: 2
#     Edge 10, Type (0, 1), BuildingBlock: EYOCIG_clean_linker_4, # of connection points: 2
#     Edge 11, Type (0, 1), BuildingBlock: EYOCIG_clean_linker_4, # of connection points: 2
#     Edge 12, Type (0, 1), BuildingBlock: EYOCIG_clean_linker_4, # of connection points: 2
#     Edge 13, Type (0, 1), BuildingBlock: EYOCIG_clean_linker_4, # of connection points: 2
#     Edge 14, Type (0, 1), BuildingBlock: EYOCIG_clean_linker_4, # of connection points: 2
#     Edge 15, Type (0, 1), BuildingBlock: EYOCIG_clean_linker_4, # of connection points: 2
#     Edge 16, Type (0, 1), BuildingBlock: EYOCIG_clean_linker_4, # of connection points: 2
#     Edge 17, Type (0, 1), BuildingBlock: EYOCIG_clean_linker_4, # of connection points: 2
# Relax obj value: 0.113
# Max RMSD: 0.194
# Mean RMSD: 0.109
data_MOF--net-sit--node1-MIDCAF_clean_sbu_0--node2-VETTIZ_charged_linker_0--edge1-EYOCIG_clean_linker_4
_symmetry_space_group_name_H-M    P1
_symmetry_Int_Tables_number       1
_symmetry_cell_setting            triclinic
loop_
_symmetry_equiv_pos_as_xyz
'x, y, z'
_cell_length_a     23.844902
_cell_length_b     31.472252
_cell_length_c     36.025606
_cell_angle_alpha  90.016712
_cell_angle_beta   89.504377
_cell_angle_gamma 82.875033
loop_
_atom_site_label
_atom_site_type_symbol
_atom_site_fract_x
_atom_site_fract_y
_atom_site_fract_z
_atom_type_partial_charge
C0 C 0.06416 0.16792 0.09634 0.0
C1 C 0.11175 0.14769 0.11458 0.0
C2 C 0.16597 0.15657 0.10402 0.0
C3 C 0.12434 0.20854 0.05932 0.0
C4 C 0.07137 0.19809 0.06875 0.0
C5 C 0.02489 0.22454 0.04815 0.0
H6 H 0.94654 0.38735 0.92947 0.0
C7 C 0.11689 0.24305 0.03138 0.0
C8 C 0.0587 0.25193 0.0242 0.0
H9 H 0.83802 0.31689 -0.00445 0.0
H10 H 0.91972 0.27034 0.01795 0.0
H11 H 0.02262 0.40349 0.9816 0.0
H12 H 0.03786 0.30084 0.90433 0.0
H13 H 0.10509 0.31822 0.90682 0.0
H14 H 0.04475 0.35578 0.89415 0.0
H15 H 0.06228 0.40677 0.93964 0.0
H16 H 0.09549 0.38757 0.98227 0.0
C17 C -0.01321 0.25161 0.07683 0.0
C18 C -0.00647 0.19411 0.02445 0.0
C19 C 0.27937 0.32633 -0.00505 0.0
C20 C 0.28145 0.36037 0.96991 0.0
C21 C 0.23585 0.3726 0.94637 0.0
C22 C 0.18695 0.35277 0.94886 0.0
C23 C 0.18341 0.32079 0.97554 0.0
C24 C 0.22964 0.30662 -0.00293 0.0
C25 C 0.21791 0.27011 0.02205 0.0
C26 C 0.15572 0.26763 0.01387 0.0
C27 C 0.13609 0.29803 0.98707 0.0
C28 C 0.227 0.28321 0.06272 0.0
C29 C 0.25614 0.22907 0.00955 0.0
C30 C 0.9406 0.3616 0.94854 0.0
C31 C 0.88673 0.35561 0.96125 0.0
C32 C 0.87982 0.32198 0.98589 0.0
C33 C 0.92716 0.29519 -0.0012 0.0
C34 C 0.98155 0.30271 0.9871 0.0
C35 C -0.0127 0.33519 0.96204 0.0
C36 C 0.04778 0.34032 0.95394 0.0
C37 C 0.07767 0.30661 0.9794 0.0
C38 C 0.03898 0.28409 -0.00181 0.0
C39 C 0.05786 0.38678 0.96464 0.0
C40 C 0.05983 0.32854 0.9126 0.0
H41 H 0.21472 0.19322 0.06973 0.0
H42 H 0.02204 0.1617 0.1044 0.0
H43 H 0.02419 0.16943 0.01063 0.0
H44 H 0.96886 0.21078 0.00181 0.0
H45 H 0.9648 0.17721 0.04198 0.0
H46 H 0.01099 0.25853 0.10193 0.0
H47 H 0.95102 0.23462 0.08612 0.0
H48 H 0.96998 0.28353 0.06615 0.0
H49 H 0.31503 0.31576 0.01251 0.0
H50 H 0.23771 0.39812 0.92635 0.0
H51 H 0.1533 0.36392 0.9305 0.0
H52 H 0.20442 0.31567 0.06844 0.0
H53 H 0.27261 0.28401 0.0683 0.0
H54 H 0.21075 0.26156 0.08309 0.0
H55 H 0.26845 0.2307 0.97977 0.0
H56 H 0.23428 0.20011 0.01166 0.0
H57 H 0.29567 0.22418 0.02593 0.0
H58 H 0.20301 0.14117 0.11811 0.0
C59 C 0.17258 0.18687 0.07624 0.0
C60 C 0.19141 0.694 0.97329 0.0
C61 C 0.19555 0.65863 0.94924 0.0
C62 C 0.14664 0.64516 0.93431 0.0
C63 C 0.08926 0.69953 0.97005 0.0
C64 C 0.13759 0.71417 0.98325 0.0
C65 C 0.12413 0.75174 0.0092 0.0
H66 H 0.93357 0.86938 0.11962 0.0
C67 C 0.04025 0.72412 -0.01158 0.0
C68 C 0.05986 0.75518 0.01102 0.0
H69 H 0.11014 0.88256 0.10291 0.0
H70 H 0.1168 0.82913 0.05436 0.0
H71 H 0.9041 0.85891 0.02701 0.0
H72 H 0.94648 0.76873 0.11598 0.0
H73 H 0.89318 0.75061 0.08898 0.0
H74 H 0.87867 0.80058 0.11378 0.0
H75 H 0.85902 0.85509 0.06679 0.0
H76 H 0.85694 0.81983 0.02762 0.0
C77 C 0.14495 0.79174 -0.00894 0.0
C78 C 0.15125 0.73942 0.04721 0.0
C79 C 0.85136 0.67041 0.97445 0.0
C80 C 0.79941 0.67958 -0.00748 0.0
C81 C 0.79141 0.71292 0.01882 0.0
C82 C 0.83606 0.73667 0.02727 0.0
C83 C 0.88881 0.72641 0.00933 0.0
C84 C 0.89529 0.69374 0.98338 0.0
C85 C 0.9541 0.68504 0.96824 0.0
C86 C 0.98261 0.71771 -0.01059 0.0
C87 C 0.94441 0.74247 0.01308 0.0
C88 C 0.95221 0.6951 0.9261 0.0
C89 C 0.97776 0.63807 0.97815 0.0
C90 C 0.97322 0.86109 0.10488 0.0
C91 C 0.02155 0.87974 0.11472 0.0
C92 C 0.07262 0.86837 0.09546 0.0
C93 C 0.07645 0.83722 0.06756 0.0
C94 C 0.02882 0.81699 0.05921 0.0
C95 C 0.97774 0.82983 0.07683 0.0
C96 C 0.93172 0.8047 0.06373 0.0
C97 C 0.96376 0.7749 0.03541 0.0
C98 C 0.02091 0.78182 0.03356 0.0
C99 C 0.88507 0.8361 0.04544 0.0
C100 C 0.91085 0.77995 0.09723 0.0
H101 H 0.05761 0.65357 0.93241 0.0
H102 H 0.22901 0.70525 0.9844 0.0
H103 H 0.14173 0.70711 0.05582 0.0
H104 H 0.13531 0.76138 0.06981 0.0
H105 H 0.19792 0.73862 0.04569 0.0
H106 H 0.1507 0.78788 0.9605 0.0
H107 H 0.18615 0.79806 0.00262 0.0
H108 H 0.11392 0.82078 -0.00554 0.0
H109 H 0.8582 0.6448 0.95412 0.0
H110 H 0.75095 0.72047 0.03274 0.0
H111 H 0.8281 0.76167 0.04761 0.0
H112 H 0.92147 0.72387 0.92027 0.0
H113 H 0.93901 0.66797 0.91001 0.0
H114 H -0.00697 0.70296 0.91498 0.0
H115 H 0.95352 0.62508 0.00115 0.0
H116 H 0.02159 0.63512 -0.01147 0.0
H117 H 0.97609 0.61637 0.95398 0.0
H118 H 0.14959 0.61835 0.91519 0.0
C119 C 0.09342 0.66562 0.9444 0.0
C120 C 0.56407 0.66779 0.59632 0.0
C121 C 0.61171 0.64757 0.61451 0.0
C122 C 0.6659 0.65648 0.60391 0.0
C123 C 0.62414 0.70846 0.55926 0.0
C124 C 0.5712 0.69798 0.56874 0.0
C125 C 0.52465 0.72443 0.54819 0.0
H126 H 0.44589 0.88734 0.42971 0.0
C127 C 0.6166 0.74301 0.53136 0.0
C128 C 0.55838 0.75187 0.52424 0.0
H129 H 0.33758 0.81671 0.4958 0.0
H130 H 0.41938 0.77019 0.51811 0.0
H131 H 0.52206 0.90344 0.48186 0.0
H132 H 0.53724 0.80095 0.40442 0.0
H133 H 0.60446 0.81834 0.40688 0.0
H134 H 0.54408 0.85591 0.3943 0.0
H135 H 0.56152 0.90687 0.43983 0.0
H136 H 0.59495 0.88761 0.48237 0.0
C137 C 0.48659 0.75144 0.57692 0.0
C138 C 0.49328 0.694 0.52449 0.0
C139 C 0.77893 0.82638 0.4948 0.0
C140 C 0.78092 0.86046 0.46978 0.0
C141 C 0.73523 0.87273 0.44633 0.0
C142 C 0.68635 0.8529 0.44886 0.0
C143 C 0.68291 0.82086 0.47551 0.0
C144 C 0.72921 0.80666 0.49697 0.0
C145 C 0.71757 0.77012 0.52193 0.0
C146 C 0.65536 0.76764 0.51383 0.0
C147 C 0.63564 0.79807 0.48708 0.0
C148 C 0.72678 0.78317 0.56261 0.0
C149 C 0.75578 0.72911 0.50935 0.0
C150 C 0.44002 0.86156 0.44876 0.0
C151 C 0.38618 0.85552 0.4615 0.0
C152 C 0.37936 0.82185 0.48611 0.0
C153 C 0.42674 0.79508 0.49897 0.0
C154 C 0.48111 0.80265 0.48725 0.0
C155 C 0.48677 0.83517 0.4622 0.0
C156 C 0.54721 0.84036 0.45407 0.0
C157 C 0.5772 0.80663 0.47948 0.0
C158 C 0.53857 0.78406 0.49827 0.0
C159 C 0.55725 0.88681 0.46481 0.0
C160 C 0.5592 0.82865 0.41271 0.0
H161 H 0.71455 0.69318 0.56959 0.0
H162 H 0.52198 0.66154 0.60441 0.0
H163 H 0.52394 0.66936 0.51063 0.0
H164 H 0.46855 0.71069 0.50189 0.0
H165 H 0.46461 0.67706 0.54204 0.0
H166 H 0.51083 0.75835 0.60201 0.0
H167 H 0.45086 0.73441 0.58623 0.0
H168 H 0.46972 0.78336 0.56628 0.0
H169 H 0.81465 0.8158 0.5123 0.0
H170 H 0.73702 0.89828 0.42632 0.0
H171 H 0.65263 0.86407 0.43057 0.0
H172 H 0.70423 0.81563 0.56837 0.0
H173 H 0.7724 0.78396 0.56813 0.0
H174 H 0.71057 0.7615 0.58298 0.0
H175 H 0.76792 0.73076 0.47955 0.0
H176 H 0.73397 0.70013 0.51152 0.0
H177 H 0.7954 0.72423 0.52564 0.0
H178 H 0.70298 0.64109 0.61797 0.0
C179 C 0.67243 0.68681 0.57613 0.0
C180 C 0.69112 0.19412 0.47322 0.0
C181 C 0.69525 0.15875 0.44916 0.0
C182 C 0.64634 0.14527 0.43424 0.0
C183 C 0.58896 0.19962 0.47 0.0
C184 C 0.63729 0.21427 0.48319 0.0
C185 C 0.62383 0.25183 0.50915 0.0
H186 H 0.4333 0.36936 0.61967 0.0
C187 C 0.53995 0.2242 0.48839 0.0
C188 C 0.55956 0.25526 0.51099 0.0
H189 H 0.60985 0.38261 0.6029 0.0
H190 H 0.61648 0.32921 0.55433 0.0
H191 H 0.40376 0.35893 0.52705 0.0
H192 H 0.44625 0.26874 0.616 0.0
H193 H 0.39297 0.25059 0.589 0.0
H194 H 0.37842 0.30055 0.61381 0.0
H195 H 0.35872 0.35509 0.56685 0.0
H196 H 0.35662 0.31983 0.52768 0.0
C197 C 0.64462 0.29184 0.49102 0.0
C198 C 0.65097 0.23951 0.54715 0.0
C199 C 0.3511 0.1704 0.47448 0.0
C200 C 0.29917 0.17955 0.49258 0.0
C201 C 0.29117 0.21288 0.51888 0.0
C202 C 0.3358 0.23665 0.52731 0.0
C203 C 0.38854 0.22642 0.50935 0.0
C204 C 0.39501 0.19375 0.48339 0.0
C205 C 0.45381 0.18508 0.46824 0.0
C206 C 0.48232 0.21777 0.4894 0.0
C207 C 0.44412 0.2425 0.51308 0.0
C208 C 0.45188 0.19515 0.42609 0.0
C209 C 0.47752 0.13812 0.47812 0.0
C210 C 0.47294 0.3611 0.60491 0.0
C211 C 0.52127 0.37975 0.61474 0.0
C212 C 0.57232 0.36841 0.59546 0.0
C213 C 0.57615 0.33728 0.56754 0.0
C214 C 0.52852 0.31703 0.5592 0.0
C215 C 0.47746 0.32986 0.57685 0.0
C216 C 0.43144 0.30472 0.56375 0.0
C217 C 0.46348 0.27493 0.53541 0.0
C218 C 0.52061 0.28187 0.53354 0.0
C219 C 0.38476 0.33611 0.54548 0.0
C220 C 0.41061 0.27994 0.59725 0.0
H221 H 0.55731 0.15367 0.43235 0.0
H222 H 0.72871 0.20537 0.48433 0.0
H223 H 0.64147 0.20719 0.55576 0.0
H224 H 0.63504 0.26146 0.56976 0.0
H225 H 0.69764 0.23871 0.54563 0.0
H226 H 0.65037 0.288 0.46046 0.0
H227 H 0.68582 0.29818 0.50258 0.0
H228 H 0.61357 0.32087 0.49443 0.0
H229 H 0.35794 0.1448 0.45415 0.0
H230 H 0.25072 0.22041 0.53282 0.0
H231 H 0.32784 0.26165 0.54766 0.0
H232 H 0.42112 0.22391 0.42028 0.0
H233 H 0.43868 0.16802 0.41 0.0
H234 H 0.49268 0.20304 0.41496 0.0
H235 H 0.45331 0.1251 0.50112 0.0
H236 H 0.52135 0.13518 0.4885 0.0
H237 H 0.47585 0.11642 0.45395 0.0
H238 H 0.6493 0.11847 0.41511 0.0
C239 C 0.59312 0.16572 0.44434 0.0
Zn240 Zn 0.03671 0.10233 0.3498 0.0
Zn241 Zn 0.07049 0.93275 0.35034 0.0
Zn242 Zn 0.05394 0.01721 0.35472 0.0
C243 C 0.0515 0.95919 0.27917 0.0
C244 C 0.97723 0.95621 0.39688 0.0
O245 O 0.12078 0.04063 0.38799 0.0
O246 O 0.0946 0.11078 0.38713 0.0
C247 C 0.06101 0.07421 0.27904 0.0
O248 O 0.05295 0.99523 0.29595 0.0
O249 O 0.05672 0.92454 0.29701 0.0
O250 O 0.00999 0.92395 0.38618 0.0
O251 O -0.01573 0.99413 0.38601 0.0
O252 O 0.0542 0.10919 0.2965 0.0
O253 O 0.05913 0.03839 0.29607 0.0
O254 O 0.97225 0.03878 0.38161 0.0
O255 O 0.95757 0.10796 0.36778 0.0
C256 C 0.94123 0.07526 0.38254 0.0
O257 O 0.13329 0.99578 0.3838 0.0
O258 O 0.14801 0.9266 0.36987 0.0
C259 C 0.12646 0.07877 0.39895 0.0
C260 C 0.16367 0.95907 0.38526 0.0
Zn261 Zn 0.53688 0.60227 0.84976 0.0
Zn262 Zn 0.57082 0.4327 0.85036 0.0
Zn263 Zn 0.55421 0.51716 0.85472 0.0
C264 C 0.55159 0.45912 0.7792 0.0
C265 C 0.47767 0.45614 0.89698 0.0
O266 O 0.62106 0.54063 0.88793 0.0
O267 O 0.59478 0.61077 0.88707 0.0
C268 C 0.56116 0.57413 0.77901 0.0
O269 O 0.55309 0.49516 0.79595 0.0
O270 O 0.55687 0.42448 0.79705 0.0
O271 O 0.51045 0.42389 0.88629 0.0
O272 O 0.48462 0.49406 0.88608 0.0
O273 O 0.55435 0.60911 0.79646 0.0
O274 O 0.5593 0.53832 0.79605 0.0
O275 O 0.47255 0.5387 0.88166 0.0
O276 O 0.45775 0.60786 0.86776 0.0
C277 C 0.44149 0.57516 0.88256 0.0
O278 O 0.63364 0.49579 0.88371 0.0
O279 O 0.64841 0.42661 0.86977 0.0
C280 C 0.62669 0.57879 0.89888 0.0
C281 C 0.66407 0.4591 0.88513 0.0
C282 C 0.09523 0.10049 0.17337 0.0
C283 C 0.10417 0.1218 0.1467 0.0
C284 C 0.08315 0.08299 0.20813 0.0
C285 C 0.07328 0.07504 0.24004 0.0
C286 C 0.02481 0.92928 0.17368 0.0
C287 C 0.02125 0.90666 0.14703 0.0
C288 C 0.03323 0.94848 0.20824 0.0
C289 C 0.04137 0.95765 0.24004 0.0
C290 C 0.59532 0.60036 0.67332 0.0
C291 C 0.60421 0.62166 0.64663 0.0
C292 C 0.58325 0.58287 0.70808 0.0
C293 C 0.57341 0.57493 0.74001 0.0
C294 C 0.5246 0.42924 0.67373 0.0
C295 C 0.521 0.40664 0.64707 0.0
C296 C 0.53312 0.4484 0.70829 0.0
C297 C 0.54135 0.45756 0.74008 0.0
C298 C 0.36344 0.40707 0.95858 0.0
C299 C 0.32955 0.38337 0.96693 0.0
C300 C 0.39996 0.43292 0.94125 0.0
C301 C 0.43268 0.44879 0.92165 0.0
C302 C 0.72655 0.62962 0.96947 0.0
C303 C 0.75549 0.65441 0.98267 0.0
C304 C 0.69606 0.6031 0.94797 0.0
C305 C 0.6674 0.58663 0.92618 0.0
C306 C 0.80158 0.41033 0.93804 0.0
C307 C 0.83929 0.38476 0.94925 0.0
C308 C 0.75627 0.43692 0.92223 0.0
C309 C 0.71438 0.45267 0.90668 0.0
C310 C 0.29292 0.61491 0.93004 0.0
C311 C 0.24943 0.63571 0.93951 0.0
C312 C 0.3438 0.59323 0.91604 0.0
C313 C 0.38853 0.58045 0.90188 0.0
C314 C 0.8629 0.90716 0.45839 0.0
C315 C 0.82901 0.88346 0.46675 0.0
C316 C 0.89943 0.93301 0.44107 0.0
C317 C 0.93219 0.94888 0.4215 0.0
C318 C 0.22632 0.12956 0.46956 0.0
C319 C 0.25525 0.15436 0.48275 0.0
C320 C 0.19582 0.10303 0.44806 0.0
C321 C 0.16716 0.08658 0.42627 0.0
C322 C 0.30099 0.91022 0.43833 0.0
C323 C 0.3387 0.88464 0.44953 0.0
C324 C 0.25574 0.93684 0.42248 0.0
C325 C 0.21391 0.95261 0.40687 0.0
C326 C 0.79262 0.11505 0.42995 0.0
C327 C 0.74914 0.13583 0.43942 0.0
C328 C 0.84351 0.09335 0.41596 0.0
C329 C 0.88825 0.08056 0.40182 0.0
loop_
_geom_bond_atom_site_label_1
_geom_bond_atom_site_label_2
_geom_bond_distance
_geom_bond_site_symmetry_2
_ccdc_geom_bond_type
C0 C1 1.391 . S
C0 C4 1.391 . S
C0 H42 0.948 . S
C1 C0 1.391 . S
C1 C2 1.391 . S
C2 C1 1.391 . S
C2 H58 0.947 . S
C2 C59 1.392 . S
C3 C4 1.391 . S
C3 C7 1.397 . S
C3 C59 1.419 . S
C4 C0 1.391 . S
C4 C3 1.391 . S
C4 C5 1.399 . S
C5 C4 1.399 . S
C5 C8 1.396 . S
C5 C17 1.453 . S
C5 C18 1.684 1_455 S
H6 C30 0.948 . S
C7 C3 1.397 . S
C7 C8 1.394 . S
C7 C26 1.723 . S
C8 C5 1.396 . S
C8 C7 1.394 . S
C8 C38 1.723 . S
H9 C32 0.947 . S
H10 C33 0.948 . S
H11 C39 0.982 . S
H12 C40 0.979 . S
H13 C40 0.980 . S
H14 C40 0.983 . S
H15 C39 0.979 . S
H16 C39 0.977 . S
C17 C5 1.453 . S
C17 H46 0.982 . S
C17 H47 0.979 1_455 S
C17 H48 0.977 1_455 S
C18 C5 1.684 1_655 S
C18 H43 0.979 1_655 S
C18 H44 0.980 . S
C18 H45 0.983 . S
C19 C20 1.391 . S
C19 C24 1.399 . S
C19 H49 0.949 1_556 S
C20 C19 1.391 . S
C20 C21 1.391 . S
C21 C20 1.391 . S
C21 C22 1.392 . S
C21 H50 0.947 . S
C22 C21 1.392 . S
C22 C23 1.419 . S
C22 H51 0.948 . S
C23 C22 1.419 . S
C23 C24 1.401 . S
C23 C27 1.397 1_556 S
C24 C19 1.399 . S
C24 C23 1.401 . S
C24 C25 1.381 1_556 S
C25 C24 1.381 1_554 S
C25 C26 1.396 . S
C25 C28 1.453 . S
C25 C29 1.684 . S
C26 C7 1.723 . S
C26 C25 1.396 . S
C26 C27 1.394 . S
C27 C23 1.397 1_554 S
C27 C26 1.394 . S
C27 C37 1.723 1_554 S
C28 C25 1.453 . S
C28 H52 0.982 . S
C28 H53 0.979 . S
C28 H54 0.977 . S
C29 C25 1.684 . S
C29 H55 0.979 . S
C29 H56 0.980 . S
C29 H57 0.983 . S
C30 H6 0.948 . S
C30 C31 1.391 . S
C30 C35 1.391 1_655 S
C31 C30 1.391 . S
C31 C32 1.391 . S
C32 H9 0.947 . S
C32 C31 1.391 . S
C32 C33 1.392 1_556 S
C33 H10 0.948 . S
C33 C32 1.392 1_554 S
C33 C34 1.419 1_654 S
C34 C33 1.419 1_456 S
C34 C35 1.391 . S
C34 C38 1.397 1_556 S
C35 C30 1.391 1_455 S
C35 C34 1.391 . S
C35 C36 1.399 . S
C36 C35 1.399 . S
C36 C37 1.396 . S
C36 C39 1.453 . S
C36 C40 1.684 . S
C37 C27 1.723 1_556 S
C37 C36 1.396 . S
C37 C38 1.394 1_556 S
C38 C8 1.723 . S
C38 C34 1.397 1_554 S
C38 C37 1.394 1_554 S
C39 H11 0.982 . S
C39 H15 0.979 . S
C39 H16 0.977 . S
C39 C36 1.453 . S
C40 H12 0.979 . S
C40 H13 0.980 . S
C40 H14 0.983 . S
C40 C36 1.684 . S
H41 C59 0.948 . S
H42 C0 0.948 . S
H43 C18 0.979 1_455 S
H44 C18 0.980 . S
H45 C18 0.983 . S
H46 C17 0.982 . S
H47 C17 0.979 1_655 S
H48 C17 0.977 1_655 S
H49 C19 0.949 1_554 S
H50 C21 0.947 . S
H51 C22 0.948 . S
H52 C28 0.982 . S
H53 C28 0.979 . S
H54 C28 0.977 . S
H55 C29 0.979 . S
H56 C29 0.980 . S
H57 C29 0.983 . S
H58 C2 0.947 . S
C59 C2 1.392 . S
C59 C3 1.419 . S
C59 H41 0.948 . S
C60 C61 1.391 . S
C60 C64 1.391 1_556 S
C60 H102 0.940 1_556 S
C61 C60 1.391 . S
C61 C62 1.391 . S
C62 C61 1.391 . S
C62 H118 0.947 . S
C62 C119 1.392 . S
C63 C64 1.391 1_556 S
C63 C67 1.397 1_556 S
C63 C119 1.419 . S
C64 C60 1.391 1_554 S
C64 C63 1.391 1_554 S
C64 C65 1.399 . S
C65 C64 1.399 . S
C65 C68 1.396 . S
C65 C77 1.453 . S
C65 C78 1.684 . S
H66 C90 0.948 . S
C67 C63 1.397 1_554 S
C67 C68 1.394 . S
C67 C86 1.723 1_454 S
C68 C65 1.396 . S
C68 C67 1.394 . S
C68 C98 1.723 . S
H69 C92 0.947 . S
H70 C93 0.948 . S
H71 C99 0.982 . S
H72 C100 0.979 . S
H73 C100 0.980 . S
H74 C100 0.983 . S
H75 C99 0.979 . S
H76 C99 0.977 . S
C77 C65 1.453 . S
C77 H106 0.982 . S
C77 H107 0.979 . S
C77 H108 0.977 . S
C78 C65 1.684 . S
C78 H103 0.979 . S
C78 H104 0.980 . S
C78 H105 0.983 . S
C79 C80 1.391 . S
C79 C84 1.391 . S
C79 H109 0.948 . S
C80 C79 1.391 . S
C80 C81 1.391 1_556 S
C81 C80 1.391 1_554 S
C81 C82 1.392 . S
C81 H110 0.947 . S
C82 C81 1.392 . S
C82 C83 1.419 . S
C82 H111 0.948 . S
C83 C82 1.419 . S
C83 C84 1.391 1_554 S
C83 C87 1.397 . S
C84 C79 1.391 . S
C84 C83 1.391 1_556 S
C84 C85 1.399 . S
C85 C84 1.399 . S
C85 C86 1.396 . S
C85 C88 1.453 . S
C85 C89 1.684 . S
C86 C67 1.723 1_656 S
C86 C85 1.396 . S
C86 C87 1.394 1_556 S
C87 C83 1.397 . S
C87 C86 1.394 1_554 S
C87 C97 1.723 . S
C88 C85 1.453 . S
C88 H112 0.982 . S
C88 H113 0.979 . S
C88 H114 0.977 1_655 S
C89 C85 1.684 . S
C89 H115 0.979 . S
C89 H116 0.980 1_655 S
C89 H117 0.983 . S
C90 H66 0.948 . S
C90 C91 1.391 1_655 S
C90 C95 1.391 . S
C91 C90 1.391 1_455 S
C91 C92 1.391 . S
C92 H69 0.947 . S
C92 C91 1.391 . S
C92 C93 1.392 . S
C93 H70 0.948 . S
C93 C92 1.392 . S
C93 C94 1.419 . S
C94 C93 1.419 . S
C94 C95 1.391 1_455 S
C94 C98 1.397 . S
C95 C90 1.391 . S
C95 C94 1.391 1_655 S
C95 C96 1.399 . S
C96 C95 1.399 . S
C96 C97 1.396 . S
C96 C99 1.453 . S
C96 C100 1.684 . S
C97 C87 1.723 . S
C97 C96 1.396 . S
C97 C98 1.394 1_655 S
C98 C68 1.723 . S
C98 C94 1.397 . S
C98 C97 1.394 1_455 S
C99 H71 0.982 . S
C99 H75 0.979 . S
C99 H76 0.977 . S
C99 C96 1.453 . S
C100 H72 0.979 . S
C100 H73 0.980 . S
C100 H74 0.983 . S
C100 C96 1.684 . S
H101 C119 0.948 . S
H102 C60 0.940 1_554 S
H103 C78 0.979 . S
H104 C78 0.980 . S
H105 C78 0.983 . S
H106 C77 0.982 . S
H107 C77 0.979 . S
H108 C77 0.977 . S
H109 C79 0.948 . S
H110 C81 0.947 . S
H111 C82 0.948 . S
H112 C88 0.982 . S
H113 C88 0.979 . S
H114 C88 0.977 1_455 S
H115 C89 0.979 . S
H116 C89 0.980 1_455 S
H117 C89 0.983 . S
H118 C62 0.947 . S
C119 C62 1.392 . S
C119 C63 1.419 . S
C119 H101 0.948 . S
C120 C121 1.391 . S
C120 C124 1.391 . S
C120 H162 0.948 . S
C121 C120 1.391 . S
C121 C122 1.391 . S
C122 C121 1.391 . S
C122 H178 0.947 . S
C122 C179 1.392 . S
C123 C124 1.391 . S
C123 C127 1.397 . S
C123 C179 1.419 . S
C124 C120 1.391 . S
C124 C123 1.391 . S
C124 C125 1.399 . S
C125 C124 1.399 . S
C125 C128 1.396 . S
C125 C137 1.453 . S
C125 C138 1.684 . S
H126 C150 0.948 . S
C127 C123 1.397 . S
C127 C128 1.394 . S
C127 C146 1.723 . S
C128 C125 1.396 . S
C128 C127 1.394 . S
C128 C158 1.723 . S
H129 C152 0.947 . S
H130 C153 0.948 . S
H131 C159 0.982 . S
H132 C160 0.979 . S
H133 C160 0.980 . S
H134 C160 0.983 . S
H135 C159 0.979 . S
H136 C159 0.977 . S
C137 C125 1.453 . S
C137 H166 0.982 . S
C137 H167 0.979 . S
C137 H168 0.977 . S
C138 C125 1.684 . S
C138 H163 0.979 . S
C138 H164 0.980 . S
C138 H165 0.983 . S
C139 C140 1.391 . S
C139 C144 1.391 . S
C139 H169 0.948 . S
C140 C139 1.391 . S
C140 C141 1.391 . S
C141 C140 1.391 . S
C141 C142 1.392 . S
C141 H170 0.947 . S
C142 C141 1.392 . S
C142 C143 1.419 . S
C142 H171 0.948 . S
C143 C142 1.419 . S
C143 C144 1.391 . S
C143 C147 1.397 . S
C144 C139 1.391 . S
C144 C143 1.391 . S
C144 C145 1.399 . S
C145 C144 1.399 . S
C145 C146 1.396 . S
C145 C148 1.453 . S
C145 C149 1.684 . S
C146 C127 1.723 . S
C146 C145 1.396 . S
C146 C147 1.394 . S
C147 C143 1.397 . S
C147 C146 1.394 . S
C147 C157 1.723 . S
C148 C145 1.453 . S
C148 H172 0.982 . S
C148 H173 0.979 . S
C148 H174 0.977 . S
C149 C145 1.684 . S
C149 H175 0.979 . S
C149 H176 0.980 . S
C149 H177 0.983 . S
C150 H126 0.948 . S
C150 C151 1.391 . S
C150 C155 1.391 . S
C151 C150 1.391 . S
C151 C152 1.391 . S
C152 H129 0.947 . S
C152 C151 1.391 . S
C152 C153 1.392 . S
C153 H130 0.948 . S
C153 C152 1.392 . S
C153 C154 1.419 . S
C154 C153 1.419 . S
C154 C155 1.391 . S
C154 C158 1.397 . S
C155 C150 1.391 . S
C155 C154 1.391 . S
C155 C156 1.399 . S
C156 C155 1.399 . S
C156 C157 1.396 . S
C156 C159 1.453 . S
C156 C160 1.684 . S
C157 C147 1.723 . S
C157 C156 1.396 . S
C157 C158 1.394 . S
C158 C128 1.723 . S
C158 C154 1.397 . S
C158 C157 1.394 . S
C159 H131 0.982 . S
C159 H135 0.979 . S
C159 H136 0.977 . S
C159 C156 1.453 . S
C160 H132 0.979 . S
C160 H133 0.980 . S
C160 H134 0.983 . S
C160 C156 1.684 . S
H161 C179 0.948 . S
H162 C120 0.948 . S
H163 C138 0.979 . S
H164 C138 0.980 . S
H165 C138 0.983 . S
H166 C137 0.982 . S
H167 C137 0.979 . S
H168 C137 0.977 . S
H169 C139 0.948 . S
H170 C141 0.947 . S
H171 C142 0.948 . S
H172 C148 0.982 . S
H173 C148 0.979 . S
H174 C148 0.977 . S
H175 C149 0.979 . S
H176 C149 0.980 . S
H177 C149 0.983 . S
H178 C122 0.947 . S
C179 C122 1.392 . S
C179 C123 1.419 . S
C179 H161 0.948 . S
C180 C181 1.391 . S
C180 C184 1.391 . S
C180 H222 0.948 . S
C181 C180 1.391 . S
C181 C182 1.391 . S
C182 C181 1.391 . S
C182 H238 0.947 . S
C182 C239 1.392 . S
C183 C184 1.391 . S
C183 C187 1.397 . S
C183 C239 1.419 . S
C184 C180 1.391 . S
C184 C183 1.391 . S
C184 C185 1.399 . S
C185 C184 1.399 . S
C185 C188 1.396 . S
C185 C197 1.453 . S
C185 C198 1.684 . S
H186 C210 0.948 . S
C187 C183 1.397 . S
C187 C188 1.394 . S
C187 C206 1.723 . S
C188 C185 1.396 . S
C188 C187 1.394 . S
C188 C218 1.723 . S
H189 C212 0.947 . S
H190 C213 0.948 . S
H191 C219 0.982 . S
H192 C220 0.979 . S
H193 C220 0.980 . S
H194 C220 0.983 . S
H195 C219 0.979 . S
H196 C219 0.977 . S
C197 C185 1.453 . S
C197 H226 0.982 . S
C197 H227 0.979 . S
C197 H228 0.977 . S
C198 C185 1.684 . S
C198 H223 0.979 . S
C198 H224 0.980 . S
C198 H225 0.983 . S
C199 C200 1.391 . S
C199 C204 1.391 . S
C199 H229 0.948 . S
C200 C199 1.391 . S
C200 C201 1.391 . S
C201 C200 1.391 . S
C201 C202 1.392 . S
C201 H230 0.947 . S
C202 C201 1.392 . S
C202 C203 1.419 . S
C202 H231 0.948 . S
C203 C202 1.419 . S
C203 C204 1.391 . S
C203 C207 1.397 . S
C204 C199 1.391 . S
C204 C203 1.391 . S
C204 C205 1.399 . S
C205 C204 1.399 . S
C205 C206 1.396 . S
C205 C208 1.453 . S
C205 C209 1.684 . S
C206 C187 1.723 . S
C206 C205 1.396 . S
C206 C207 1.394 . S
C207 C203 1.397 . S
C207 C206 1.394 . S
C207 C217 1.723 . S
C208 C205 1.453 . S
C208 H232 0.982 . S
C208 H233 0.979 . S
C208 H234 0.977 . S
C209 C205 1.684 . S
C209 H235 0.979 . S
C209 H236 0.980 . S
C209 H237 0.983 . S
C210 H186 0.948 . S
C210 C211 1.391 . S
C210 C215 1.391 . S
C211 C210 1.391 . S
C211 C212 1.391 . S
C212 H189 0.947 . S
C212 C211 1.391 . S
C212 C213 1.392 . S
C213 H190 0.948 . S
C213 C212 1.392 . S
C213 C214 1.419 . S
C214 C213 1.419 . S
C214 C215 1.391 . S
C214 C218 1.397 . S
C215 C210 1.391 . S
C215 C214 1.391 . S
C215 C216 1.399 . S
C216 C215 1.399 . S
C216 C217 1.396 . S
C216 C219 1.453 . S
C216 C220 1.684 . S
C217 C207 1.723 . S
C217 C216 1.396 . S
C217 C218 1.394 . S
C218 C188 1.723 . S
C218 C214 1.397 . S
C218 C217 1.394 . S
C219 H191 0.982 . S
C219 H195 0.979 . S
C219 H196 0.977 . S
C219 C216 1.453 . S
C220 H192 0.979 . S
C220 H193 0.980 . S
C220 H194 0.983 . S
C220 C216 1.684 . S
H221 C239 0.948 . S
H222 C180 0.948 . S
H223 C198 0.979 . S
H224 C198 0.980 . S
H225 C198 0.983 . S
H226 C197 0.982 . S
H227 C197 0.979 . S
H228 C197 0.977 . S
H229 C199 0.948 . S
H230 C201 0.947 . S
H231 C202 0.948 . S
H232 C208 0.982 . S
H233 C208 0.979 . S
H234 C208 0.977 . S
H235 C209 0.979 . S
H236 C209 0.980 . S
H237 C209 0.983 . S
H238 C182 0.947 . S
C239 C182 1.392 . S
C239 C183 1.419 . S
C239 H221 0.948 . S
Zn240 O246 1.920 . S
Zn240 O252 1.898 . S
Zn240 O255 1.905 1_455 S
Zn241 O249 1.905 . S
Zn241 O250 1.898 . S
Zn241 O258 1.920 . S
Zn242 O245 2.080 . S
Zn242 O248 2.114 1_545 S
Zn242 O251 2.120 1_545 S
Zn242 O253 2.120 . S
Zn242 O254 2.114 1_455 S
Zn242 O257 2.080 1_545 S
C243 O248 1.166 . S
C243 O249 1.182 . S
C244 O250 1.167 . S
C244 O251 1.299 . S
O245 Zn242 2.080 . S
O245 C259 1.305 . S
O246 Zn240 1.920 . S
O246 C259 1.234 . S
C247 O252 1.167 . S
C247 O253 1.299 . S
O248 Zn242 2.114 1_565 S
O248 C243 1.166 . S
O249 Zn241 1.905 . S
O249 C243 1.182 . S
O250 Zn241 1.898 . S
O250 C244 1.167 . S
O251 Zn242 2.120 1_565 S
O251 C244 1.299 . S
O252 Zn240 1.898 . S
O252 C247 1.167 . S
O253 Zn242 2.120 . S
O253 C247 1.299 . S
O254 Zn242 2.114 1_655 S
O254 C256 1.166 . S
O255 Zn240 1.905 1_655 S
O255 C256 1.182 . S
C256 O254 1.166 . S
C256 O255 1.182 . S
O257 Zn242 2.080 1_565 S
O257 C260 1.305 . S
O258 Zn241 1.920 . S
O258 C260 1.234 . S
C259 O245 1.305 . S
C259 O246 1.234 . S
C260 O257 1.305 . S
C260 O258 1.234 . S
Zn261 O267 1.920 . S
Zn261 O273 1.898 . S
Zn261 O276 1.905 . S
Zn262 O270 1.905 . S
Zn262 O271 1.898 . S
Zn262 O279 1.920 . S
Zn263 O266 2.080 . S
Zn263 O269 2.114 . S
Zn263 O272 2.120 . S
Zn263 O274 2.120 . S
Zn263 O275 2.114 . S
Zn263 O278 2.080 . S
C264 O269 1.166 . S
C264 O270 1.182 . S
C265 O271 1.167 . S
C265 O272 1.299 . S
O266 Zn263 2.080 . S
O266 C280 1.305 . S
O267 Zn261 1.920 . S
O267 C280 1.234 . S
C268 O273 1.167 . S
C268 O274 1.299 . S
O269 Zn263 2.114 . S
O269 C264 1.166 . S
O270 Zn262 1.905 . S
O270 C264 1.182 . S
O271 Zn262 1.898 . S
O271 C265 1.167 . S
O272 Zn263 2.120 . S
O272 C265 1.299 . S
O273 Zn261 1.898 . S
O273 C268 1.167 . S
O274 Zn263 2.120 . S
O274 C268 1.299 . S
O275 Zn263 2.114 . S
O275 C277 1.166 . S
O276 Zn261 1.905 . S
O276 C277 1.182 . S
C277 O275 1.166 . S
C277 O276 1.182 . S
O278 Zn263 2.080 . S
O278 C281 1.305 . S
O279 Zn262 1.920 . S
O279 C281 1.234 . S
C280 O266 1.305 . S
C280 O267 1.234 . S
C281 O278 1.305 . S
C281 O279 1.234 . S
C282 C283 1.170 . S
C282 C284 1.380 . S
C283 C282 1.170 . S
C284 C282 1.380 . S
C284 C285 1.170 . S
C285 C284 1.170 . S
C286 C287 1.170 . S
C286 C288 1.380 . S
C287 C286 1.170 . S
C288 C286 1.380 . S
C288 C289 1.170 . S
C289 C288 1.170 . S
C290 C291 1.170 . S
C290 C292 1.380 . S
C291 C290 1.170 . S
C292 C290 1.380 . S
C292 C293 1.170 . S
C293 C292 1.170 . S
C294 C295 1.170 . S
C294 C296 1.380 . S
C295 C294 1.170 . S
C296 C294 1.380 . S
C296 C297 1.170 . S
C297 C296 1.170 . S
C298 C299 1.170 . S
C298 C300 1.380 . S
C299 C298 1.170 . S
C300 C298 1.380 . S
C300 C301 1.170 . S
C301 C300 1.170 . S
C302 C303 1.170 . S
C302 C304 1.380 . S
C303 C302 1.170 . S
C304 C302 1.380 . S
C304 C305 1.170 . S
C305 C304 1.170 . S
C306 C307 1.170 . S
C306 C308 1.380 . S
C307 C306 1.170 . S
C308 C306 1.380 . S
C308 C309 1.170 . S
C309 C308 1.170 . S
C310 C311 1.170 . S
C310 C312 1.380 . S
C311 C310 1.170 . S
C312 C310 1.380 . S
C312 C313 1.170 . S
C313 C312 1.170 . S
C314 C315 1.170 . S
C314 C316 1.380 . S
C315 C314 1.170 . S
C316 C314 1.380 . S
C316 C317 1.170 . S
C317 C316 1.170 . S
C318 C319 1.170 . S
C318 C320 1.380 . S
C319 C318 1.170 . S
C320 C318 1.380 . S
C320 C321 1.170 . S
C321 C320 1.170 . S
C322 C323 1.170 . S
C322 C324 1.380 . S
C323 C322 1.170 . S
C324 C322 1.380 . S
C324 C325 1.170 . S
C325 C324 1.170 . S
C326 C327 1.170 . S
C326 C328 1.380 . S
C327 C326 1.170 . S
C328 C326 1.380 . S
C328 C329 1.170 . S
C329 C328 1.170 . S
C285 C247 1.471 . S
C283 C1 1.551 . S
C289 C243 1.459 . S
C287 C91 1.446 . S
C293 C268 1.474 . S
C291 C121 1.564 . S
C295 C211 1.462 . S
C297 C264 1.472 . S
C299 C20 1.332 . S
C301 C265 1.150 . S
C305 C280 1.203 . S
C303 C80 1.304 . S
C307 C31 1.694 . S
C309 C281 1.505 . S
C313 C277 1.548 . S
C311 C61 1.632 . S
C317 C244 1.183 1_655 S
C315 C140 1.303 . S
C319 C200 1.301 . S
C321 C259 1.204 . S
C325 C260 1.502 . S
C323 C151 1.693 . S
C329 C256 1.562 . S
C327 C181 1.620 . S
