# Generated by pormake.
# Topology bwt, (3,3)-cn, num edge types: 1
# Building blocks:
#     Node 0, Type 0, BuildingBlock: OLANEW_clean_sbu_2, # of connection points: 3
#     Node 1, Type 0, BuildingBlock: OLANEW_clean_sbu_2, # of connection points: 3
#     Node 2, Type 0, BuildingBlock: OLANEW_clean_sbu_2, # of connection points: 3
#     Node 3, Type 0, BuildingBlock: OLANEW_clean_sbu_2, # of connection points: 3
#     Node 4, Type 0, BuildingBlock: OLANEW_clean_sbu_2, # of connection points: 3
#     Node 5, Type 0, BuildingBlock: OLANEW_clean_sbu_2, # of connection points: 3
#     Node 6, Type 0, BuildingBlock: OLANEW_clean_sbu_2, # of connection points: 3
#     Node 7, Type 0, BuildingBlock: OLANEW_clean_sbu_2, # of connection points: 3
#     Node 8, Type 0, BuildingBlock: OLANEW_clean_sbu_2, # of connection points: 3
#     Node 9, Type 0, BuildingBlock: OLANEW_clean_sbu_2, # of connection points: 3
#     Node 10, Type 0, BuildingBlock: OLANEW_clean_sbu_2, # of connection points: 3
#     Node 11, Type 0, BuildingBlock: OLANEW_clean_sbu_2, # of connection points: 3
#     Node 12, Type 0, BuildingBlock: OLANEW_clean_sbu_2, # of connection points: 3
#     Node 13, Type 0, BuildingBlock: OLANEW_clean_sbu_2, # of connection points: 3
#     Node 14, Type 0, BuildingBlock: OLANEW_clean_sbu_2, # of connection points: 3
#     Node 15, Type 0, BuildingBlock: OLANEW_clean_sbu_2, # of connection points: 3
#     Node 16, Type 0, BuildingBlock: OLANEW_clean_sbu_2, # of connection points: 3
#     Node 17, Type 0, BuildingBlock: OLANEW_clean_sbu_2, # of connection points: 3
#     Node 18, Type 0, BuildingBlock: OLANEW_clean_sbu_2, # of connection points: 3
#     Node 19, Type 0, BuildingBlock: OLANEW_clean_sbu_2, # of connection points: 3
#     Node 20, Type 0, BuildingBlock: OLANEW_clean_sbu_2, # of connection points: 3
#     Node 21, Type 0, BuildingBlock: OLANEW_clean_sbu_2, # of connection points: 3
#     Node 22, Type 0, BuildingBlock: OLANEW_clean_sbu_2, # of connection points: 3
#     Node 23, Type 0, BuildingBlock: OLANEW_clean_sbu_2, # of connection points: 3
#     Node 24, Type 1, BuildingBlock: PAMTOO_clean_linker_0, # of connection points: 3
#     Node 25, Type 1, BuildingBlock: PAMTOO_clean_linker_0, # of connection points: 3
#     Node 26, Type 1, BuildingBlock: PAMTOO_clean_linker_0, # of connection points: 3
#     Node 27, Type 1, BuildingBlock: PAMTOO_clean_linker_0, # of connection points: 3
#     Node 28, Type 1, BuildingBlock: PAMTOO_clean_linker_0, # of connection points: 3
#     Node 29, Type 1, BuildingBlock: PAMTOO_clean_linker_0, # of connection points: 3
#     Node 30, Type 1, BuildingBlock: PAMTOO_clean_linker_0, # of connection points: 3
#     Node 31, Type 1, BuildingBlock: PAMTOO_clean_linker_0, # of connection points: 3
#     Node 32, Type 1, BuildingBlock: PAMTOO_clean_linker_0, # of connection points: 3
#     Node 33, Type 1, BuildingBlock: PAMTOO_clean_linker_0, # of connection points: 3
#     Node 34, Type 1, BuildingBlock: PAMTOO_clean_linker_0, # of connection points: 3
#     Node 35, Type 1, BuildingBlock: PAMTOO_clean_linker_0, # of connection points: 3
#     Node 36, Type 1, BuildingBlock: PAMTOO_clean_linker_0, # of connection points: 3
#     Node 37, Type 1, BuildingBlock: PAMTOO_clean_linker_0, # of connection points: 3
#     Node 38, Type 1, BuildingBlock: PAMTOO_clean_linker_0, # of connection points: 3
#     Node 39, Type 1, BuildingBlock: PAMTOO_clean_linker_0, # of connection points: 3
#     Node 40, Type 1, BuildingBlock: PAMTOO_clean_linker_0, # of connection points: 3
#     Node 41, Type 1, BuildingBlock: PAMTOO_clean_linker_0, # of connection points: 3
#     Node 42, Type 1, BuildingBlock: PAMTOO_clean_linker_0, # of connection points: 3
#     Node 43, Type 1, BuildingBlock: PAMTOO_clean_linker_0, # of connection points: 3
#     Node 44, Type 1, BuildingBlock: PAMTOO_clean_linker_0, # of connection points: 3
#     Node 45, Type 1, BuildingBlock: PAMTOO_clean_linker_0, # of connection points: 3
#     Node 46, Type 1, BuildingBlock: PAMTOO_clean_linker_0, # of connection points: 3
#     Node 47, Type 1, BuildingBlock: PAMTOO_clean_linker_0, # of connection points: 3
#     Edge 48, Type (0, 1), BuildingBlock: EZIPEK_clean_linker_0, # of connection points: 2
#     Edge 49, Type (0, 1), BuildingBlock: EZIPEK_clean_linker_0, # of connection points: 2
#     Edge 50, Type (0, 1), BuildingBlock: EZIPEK_clean_linker_0, # of connection points: 2
#     Edge 51, Type (0, 1), BuildingBlock: EZIPEK_clean_linker_0, # of connection points: 2
#     Edge 52, Type (0, 1), BuildingBlock: EZIPEK_clean_linker_0, # of connection points: 2
#     Edge 53, Type (0, 1), BuildingBlock: EZIPEK_clean_linker_0, # of connection points: 2
#     Edge 54, Type (0, 1), BuildingBlock: EZIPEK_clean_linker_0, # of connection points: 2
#     Edge 55, Type (0, 1), BuildingBlock: EZIPEK_clean_linker_0, # of connection points: 2
#     Edge 56, Type (0, 1), BuildingBlock: EZIPEK_clean_linker_0, # of connection points: 2
#     Edge 57, Type (0, 1), BuildingBlock: EZIPEK_clean_linker_0, # of connection points: 2
#     Edge 58, Type (0, 1), BuildingBlock: EZIPEK_clean_linker_0, # of connection points: 2
#     Edge 59, Type (0, 1), BuildingBlock: EZIPEK_clean_linker_0, # of connection points: 2
#     Edge 60, Type (0, 1), BuildingBlock: EZIPEK_clean_linker_0, # of connection points: 2
#     Edge 61, Type (0, 1), BuildingBlock: EZIPEK_clean_linker_0, # of connection points: 2
#     Edge 62, Type (0, 1), BuildingBlock: EZIPEK_clean_linker_0, # of connection points: 2
#     Edge 63, Type (0, 1), BuildingBlock: EZIPEK_clean_linker_0, # of connection points: 2
#     Edge 64, Type (0, 1), BuildingBlock: EZIPEK_clean_linker_0, # of connection points: 2
#     Edge 65, Type (0, 1), BuildingBlock: EZIPEK_clean_linker_0, # of connection points: 2
#     Edge 66, Type (0, 1), BuildingBlock: EZIPEK_clean_linker_0, # of connection points: 2
#     Edge 67, Type (0, 1), BuildingBlock: EZIPEK_clean_linker_0, # of connection points: 2
#     Edge 68, Type (0, 1), BuildingBlock: EZIPEK_clean_linker_0, # of connection points: 2
#     Edge 69, Type (0, 1), BuildingBlock: EZIPEK_clean_linker_0, # of connection points: 2
#     Edge 70, Type (0, 1), BuildingBlock: EZIPEK_clean_linker_0, # of connection points: 2
#     Edge 71, Type (0, 1), BuildingBlock: EZIPEK_clean_linker_0, # of connection points: 2
#     Edge 72, Type (0, 1), BuildingBlock: EZIPEK_clean_linker_0, # of connection points: 2
#     Edge 73, Type (0, 1), BuildingBlock: EZIPEK_clean_linker_0, # of connection points: 2
#     Edge 74, Type (0, 1), BuildingBlock: EZIPEK_clean_linker_0, # of connection points: 2
#     Edge 75, Type (0, 1), BuildingBlock: EZIPEK_clean_linker_0, # of connection points: 2
#     Edge 76, Type (0, 1), BuildingBlock: EZIPEK_clean_linker_0, # of connection points: 2
#     Edge 77, Type (0, 1), BuildingBlock: EZIPEK_clean_linker_0, # of connection points: 2
#     Edge 78, Type (0, 1), BuildingBlock: EZIPEK_clean_linker_0, # of connection points: 2
#     Edge 79, Type (0, 1), BuildingBlock: EZIPEK_clean_linker_0, # of connection points: 2
#     Edge 80, Type (0, 1), BuildingBlock: EZIPEK_clean_linker_0, # of connection points: 2
#     Edge 81, Type (0, 1), BuildingBlock: EZIPEK_clean_linker_0, # of connection points: 2
#     Edge 82, Type (0, 1), BuildingBlock: EZIPEK_clean_linker_0, # of connection points: 2
#     Edge 83, Type (0, 1), BuildingBlock: EZIPEK_clean_linker_0, # of connection points: 2
#     Edge 84, Type (0, 1), BuildingBlock: EZIPEK_clean_linker_0, # of connection points: 2
#     Edge 85, Type (0, 1), BuildingBlock: EZIPEK_clean_linker_0, # of connection points: 2
#     Edge 86, Type (0, 1), BuildingBlock: EZIPEK_clean_linker_0, # of connection points: 2
#     Edge 87, Type (0, 1), BuildingBlock: EZIPEK_clean_linker_0, # of connection points: 2
#     Edge 88, Type (0, 1), BuildingBlock: EZIPEK_clean_linker_0, # of connection points: 2
#     Edge 89, Type (0, 1), BuildingBlock: EZIPEK_clean_linker_0, # of connection points: 2
#     Edge 90, Type (0, 1), BuildingBlock: EZIPEK_clean_linker_0, # of connection points: 2
#     Edge 91, Type (0, 1), BuildingBlock: EZIPEK_clean_linker_0, # of connection points: 2
#     Edge 92, Type (0, 1), BuildingBlock: EZIPEK_clean_linker_0, # of connection points: 2
#     Edge 93, Type (0, 1), BuildingBlock: EZIPEK_clean_linker_0, # of connection points: 2
#     Edge 94, Type (0, 1), BuildingBlock: EZIPEK_clean_linker_0, # of connection points: 2
#     Edge 95, Type (0, 1), BuildingBlock: EZIPEK_clean_linker_0, # of connection points: 2
#     Edge 96, Type (0, 1), BuildingBlock: EZIPEK_clean_linker_0, # of connection points: 2
#     Edge 97, Type (0, 1), BuildingBlock: EZIPEK_clean_linker_0, # of connection points: 2
#     Edge 98, Type (0, 1), BuildingBlock: EZIPEK_clean_linker_0, # of connection points: 2
#     Edge 99, Type (0, 1), BuildingBlock: EZIPEK_clean_linker_0, # of connection points: 2
#     Edge 100, Type (0, 1), BuildingBlock: EZIPEK_clean_linker_0, # of connection points: 2
#     Edge 101, Type (0, 1), BuildingBlock: EZIPEK_clean_linker_0, # of connection points: 2
#     Edge 102, Type (0, 1), BuildingBlock: EZIPEK_clean_linker_0, # of connection points: 2
#     Edge 103, Type (0, 1), BuildingBlock: EZIPEK_clean_linker_0, # of connection points: 2
#     Edge 104, Type (0, 1), BuildingBlock: EZIPEK_clean_linker_0, # of connection points: 2
#     Edge 105, Type (0, 1), BuildingBlock: EZIPEK_clean_linker_0, # of connection points: 2
#     Edge 106, Type (0, 1), BuildingBlock: EZIPEK_clean_linker_0, # of connection points: 2
#     Edge 107, Type (0, 1), BuildingBlock: EZIPEK_clean_linker_0, # of connection points: 2
#     Edge 108, Type (0, 1), BuildingBlock: EZIPEK_clean_linker_0, # of connection points: 2
#     Edge 109, Type (0, 1), BuildingBlock: EZIPEK_clean_linker_0, # of connection points: 2
#     Edge 110, Type (0, 1), BuildingBlock: EZIPEK_clean_linker_0, # of connection points: 2
#     Edge 111, Type (0, 1), BuildingBlock: EZIPEK_clean_linker_0, # of connection points: 2
#     Edge 112, Type (0, 1), BuildingBlock: EZIPEK_clean_linker_0, # of connection points: 2
#     Edge 113, Type (0, 1), BuildingBlock: EZIPEK_clean_linker_0, # of connection points: 2
#     Edge 114, Type (0, 1), BuildingBlock: EZIPEK_clean_linker_0, # of connection points: 2
#     Edge 115, Type (0, 1), BuildingBlock: EZIPEK_clean_linker_0, # of connection points: 2
#     Edge 116, Type (0, 1), BuildingBlock: EZIPEK_clean_linker_0, # of connection points: 2
#     Edge 117, Type (0, 1), BuildingBlock: EZIPEK_clean_linker_0, # of connection points: 2
#     Edge 118, Type (0, 1), BuildingBlock: EZIPEK_clean_linker_0, # of connection points: 2
#     Edge 119, Type (0, 1), BuildingBlock: EZIPEK_clean_linker_0, # of connection points: 2
# Relax obj value: 0.054
# Max RMSD: 0.117
# Mean RMSD: 0.060
data_MOF--net-bwt--node1-OLANEW_clean_sbu_2--node2-PAMTOO_clean_linker_0--edge1-EZIPEK_clean_linker_0
_symmetry_space_group_name_H-M    P1
_symmetry_Int_Tables_number       1
_symmetry_cell_setting            triclinic
loop_
_symmetry_equiv_pos_as_xyz
'x, y, z'
_cell_length_a     44.69562
_cell_length_b     44.643663
_cell_length_c     44.577679
_cell_angle_alpha  94.085098
_cell_angle_beta   94.13062
_cell_angle_gamma 94.115008
loop_
_atom_site_label
_atom_site_type_symbol
_atom_site_fract_x
_atom_site_fract_y
_atom_site_fract_z
_atom_type_partial_charge
O0 O 0.31054 0.56391 0.44101 0.0
Cd1 Cd 0.31015 0.57772 0.38913 0.0
O2 O 0.3409 0.52684 0.44091 0.0
Cd3 Cd 0.36247 0.53562 0.39975 0.0
O4 O 0.40796 0.53648 0.38454 0.0
C5 C 0.42631 0.55926 0.39232 0.0
O6 O 0.41666 0.58296 0.40668 0.0
C7 C 0.32258 0.54284 0.454 0.0
C8 C 0.25053 0.58774 0.37235 0.0
O9 O 0.26901 0.60942 0.384 0.0
O10 O 0.26027 0.56165 0.36769 0.0
O11 O 0.2836 0.37879 0.758 0.0
Cd12 Cd 0.28288 0.3478 0.71075 0.0
O13 O 0.27919 0.41925 0.73288 0.0
Cd14 Cd 0.25502 0.39374 0.69404 0.0
O15 O 0.20903 0.38457 0.67398 0.0
C16 C 0.18965 0.37803 0.69244 0.0
O17 O 0.19868 0.37578 0.72085 0.0
C18 C 0.28545 0.40729 0.75734 0.0
C19 C 0.33969 0.36415 0.69353 0.0
O20 O 0.31681 0.37759 0.68423 0.0
O21 O 0.33547 0.34112 0.70874 0.0
O22 O 0.71526 0.99333 0.58154 0.0
Cd23 Cd 0.73451 0.99502 0.63443 0.0
O24 O 0.74661 0.02989 0.56901 0.0
Cd25 Cd 0.77569 0.02794 0.61049 0.0
O26 O 0.81174 0.01547 0.64219 0.0
C27 C 0.81695 0.02733 0.66901 0.0
O28 O 0.80039 0.0485 0.67894 0.0
C29 C 0.72393 0.01111 0.56229 0.0
C30 C 0.68914 0.01396 0.66928 0.0
O31 O 0.70871 0.03302 0.66033 0.0
O32 O 0.69141 0.98585 0.66268 0.0
O33 O 0.75374 0.00695 0.20614 0.0
Cd34 Cd 0.77033 0.02436 0.25808 0.0
O35 O 0.71798 0.03832 0.20179 0.0
Cd36 Cd 0.71571 0.04963 0.2501 0.0
O37 O 0.67852 0.04619 0.2794 0.0
C38 C 0.65552 0.03198 0.2652 0.0
O39 O 0.65752 0.02108 0.23733 0.0
C40 C 0.7338 0.01871 0.19006 0.0
C41 C 0.83238 0.02124 0.26441 0.0
O42 O 0.8211 0.04494 0.25547 0.0
O43 O 0.81455 -0.00056 0.27124 0.0
O44 O 0.34152 0.26787 0.46883 0.0
Cd45 Cd 0.29513 0.28009 0.49097 0.0
O46 O 0.36963 0.30217 0.49838 0.0
Cd47 Cd 0.33241 0.32389 0.51751 0.0
O48 O 0.31352 0.35803 0.54636 0.0
C49 C 0.33319 0.37536 0.56236 0.0
O50 O 0.36177 0.37163 0.55958 0.0
C51 C 0.36724 0.28014 0.47848 0.0
C52 C 0.28025 0.23094 0.52322 0.0
O53 O 0.27163 0.23123 0.49522 0.0
O54 O 0.29422 0.25476 0.53673 0.0
O55 O 0.23966 0.7815 0.98687 0.0
Cd56 Cd 0.29437 0.79286 0.99384 0.0
O57 O 0.24224 0.74347 0.01565 0.0
Cd58 Cd 0.28789 0.73507 0.00526 0.0
O59 O 0.30042 0.69808 0.97517 0.0
C60 C 0.28182 0.67497 0.9734 0.0
O61 O 0.25886 0.67488 0.9902 0.0
C62 C 0.22681 0.76191 0.00201 0.0
C63 C 0.31224 0.85056 0.9767 0.0
O64 O 0.2955 0.84681 0.99845 0.0
O65 O 0.32081 0.82686 0.963 0.0
O66 O 0.74008 0.23086 0.41873 0.0
Cd67 Cd 0.68686 0.21512 0.40735 0.0
O68 O 0.75657 0.20882 0.37801 0.0
Cd69 Cd 0.71485 0.17989 0.37017 0.0
O70 O 0.68226 0.14161 0.37335 0.0
C71 C 0.67944 0.11983 0.35315 0.0
O72 O 0.69541 0.12099 0.32958 0.0
C73 C 0.76119 0.22665 0.40168 0.0
C74 C 0.66161 0.27017 0.41118 0.0
O75 O 0.66589 0.25529 0.43443 0.0
O76 O 0.66666 0.25777 0.38542 0.0
O77 O 0.57446 0.66665 0.03616 0.0
Cd78 Cd 0.6293 0.67309 0.04082 0.0
O79 O 0.56958 0.70073 0.00297 0.0
Cd80 Cd 0.61579 0.7209 0.00757 0.0
O81 O 0.63699 0.76676 0.00926 0.0
C82 C 0.62007 0.78491 0.99707 0.0
O83 O 0.59339 0.77466 0.98473 0.0
C84 C 0.55804 0.68032 0.01801 0.0
C85 C 0.65294 0.62216 0.06291 0.0
O86 O 0.64833 0.64484 0.0808 0.0
O87 O 0.64654 0.62346 0.03457 0.0
O88 O 0.64392 0.37649 0.26582 0.0
Cd89 Cd 0.65855 0.32665 0.24918 0.0
O90 O 0.67652 0.38093 0.30571 0.0
Cd91 Cd 0.68057 0.33261 0.30486 0.0
O92 O 0.65548 0.29747 0.32639 0.0
C93 C 0.62721 0.29946 0.32449 0.0
O94 O 0.616 0.32056 0.309 0.0
C95 C 0.65729 0.39228 0.28835 0.0
C96 C 0.64287 0.31378 0.18782 0.0
O97 O 0.66818 0.32798 0.19694 0.0
O98 O 0.6252 0.30535 0.20752 0.0
O99 O 0.93948 0.21067 0.76135 0.0
Cd100 Cd 0.93625 0.26523 0.76255 0.0
O101 O 0.95764 0.20126 0.71695 0.0
Cd102 Cd 0.95563 0.24411 0.69668 0.0
O103 O 0.95067 0.25791 0.6506 0.0
C104 C 0.95945 0.2835 0.64232 0.0
O105 O 0.97214 0.30429 0.66248 0.0
C106 C 0.94934 0.19252 0.74179 0.0
C107 C 0.92275 0.28496 0.82059 0.0
O108 O 0.95012 0.28351 0.81418 0.0
O109 O 0.90182 0.2781 0.79952 0.0
O110 O 0.43427 0.79679 0.24024 0.0
Cd111 Cd 0.41744 0.74422 0.22459 0.0
O112 O 0.38843 0.80944 0.24771 0.0
Cd113 Cd 0.36884 0.76714 0.22464 0.0
O114 O 0.36123 0.73549 0.18478 0.0
C115 C 0.36102 0.7475 0.15977 0.0
O116 O 0.36471 0.77697 0.15983 0.0
C117 C 0.41666 0.81611 0.24921 0.0
C118 C 0.41987 0.71227 0.27584 0.0
O119 O 0.44217 0.71416 0.25939 0.0
O120 O 0.39582 0.72444 0.26755 0.0
O121 O -0.00052 0.57568 0.72392 0.0
Cd122 Cd 0.99701 0.62894 0.73858 0.0
O123 O 0.98775 0.55587 0.76592 0.0
Cd124 Cd 0.99035 0.59823 0.79433 0.0
O125 O -0.00117 0.62543 0.83745 0.0
C126 C 0.99474 0.65327 0.84145 0.0
O127 O 0.98528 0.66797 0.81854 0.0
C128 C 0.99376 0.55278 0.73847 0.0
C129 C 0.0017 0.65786 0.68566 0.0
O130 O 0.02506 0.65427 0.70304 0.0
O131 O 0.97584 0.64867 0.69359 0.0
O132 O 0.75901 0.32709 0.60732 0.0
Cd133 Cd 0.78874 0.30046 0.64322 0.0
O134 O 0.73626 0.34917 0.64396 0.0
Cd135 Cd 0.70306 0.37972 0.65783 0.0
O136 O 0.66486 0.40659 0.66379 0.0
C137 C 0.63845 0.3937 0.65994 0.0
O138 O 0.63469 0.36455 0.65283 0.0
C139 C 0.74012 0.34512 0.61606 0.0
C140 C 0.84815 0.32418 0.6467 0.0
O141 O 0.83881 0.30223 0.62744 0.0
O142 O 0.82965 0.33452 0.66474 0.0
O143 O 0.80055 0.58599 0.27306 0.0
Cd144 Cd 0.8159 0.61555 0.32054 0.0
O145 O 0.83453 0.55242 0.27441 0.0
Cd146 Cd 0.86617 0.57902 0.30761 0.0
O147 O 0.91115 0.60092 0.32122 0.0
C148 C 0.92302 0.60409 0.34815 0.0
O149 O 0.90775 0.59461 0.3702 0.0
C150 C 0.81059 0.56183 0.2625 0.0
C151 C 0.76383 0.61442 0.35233 0.0
O152 O 0.76967 0.63502 0.33456 0.0
O153 O 0.78322 0.59484 0.35546 0.0
O154 O 0.25915 0.05224 0.38127 0.0
Cd155 Cd 0.26551 0.05323 0.32747 0.0
O156 O 0.24617 0.00349 0.37892 0.0
Cd157 Cd 0.23362 0.00342 0.33068 0.0
O158 O 0.19524 0.01234 0.30028 0.0
C159 C 0.17341 0.02149 0.31428 0.0
O160 O 0.17635 0.02513 0.34388 0.0
C161 C 0.2533 0.02834 0.39435 0.0
C162 C 0.32383 0.03874 0.31824 0.0
O163 O 0.31815 0.06626 0.32349 0.0
O164 O 0.30205 0.01827 0.31653 0.0
O165 O 0.21967 0.02275 0.78982 0.0
Cd166 Cd 0.1913 0.02233 0.74069 0.0
O167 O 0.2611 0.01538 0.76773 0.0
Cd168 Cd 0.30971 0.01115 0.76683 0.0
O169 O 0.35744 0.02137 0.76042 0.0
C170 C 0.37885 0.01295 0.77738 0.0
O171 O 0.37283 0.99705 0.8002 0.0
C172 C 0.24764 0.01888 0.7918 0.0
C173 C 0.12931 0.01927 0.74519 0.0
O174 O 0.14282 0.99515 0.74097 0.0
O175 O 0.14487 0.04467 0.74738 0.0
O176 O 0.62716 0.72562 0.38547 0.0
Cd177 Cd 0.67159 0.75574 0.37317 0.0
O178 O 0.65206 0.70333 0.42078 0.0
Cd179 Cd 0.65291 0.6698 0.45393 0.0
O180 O 0.65956 0.62594 0.47062 0.0
C181 C 0.65377 0.60392 0.45094 0.0
O182 O 0.64314 0.609 0.42369 0.0
C183 C 0.62752 0.70723 0.40591 0.0
C184 C 0.66191 0.81621 0.38349 0.0
O185 O 0.65389 0.80209 0.35781 0.0
O186 O 0.67491 0.80199 0.40408 0.0
O187 O 0.73017 0.19651 0.93225 0.0
Cd188 Cd 0.68767 0.16034 0.91576 0.0
O189 O 0.70525 0.21857 0.96723 0.0
Cd190 Cd 0.70133 0.2533 0.00357 0.0
O191 O 0.69364 0.28866 0.03805 0.0
C192 C 0.70168 0.31589 0.03417 0.0
O193 O 0.71431 0.3223 0.00945 0.0
C194 C 0.72907 0.21684 0.9535 0.0
C195 C 0.69203 0.10747 0.9445 0.0
O196 O 0.7039 0.11065 0.91948 0.0
O197 O 0.67793 0.12906 0.95577 0.0
O198 O 0.20312 0.75066 0.63776 0.0
Cd199 Cd 0.24849 0.74675 0.67056 0.0
O200 O 0.21013 0.79938 0.63394 0.0
Cd201 Cd 0.19783 0.84234 0.61809 0.0
O202 O 0.19561 0.89029 0.61215 0.0
C203 C 0.21983 0.90699 0.61826 0.0
O204 O 0.2445 0.89479 0.62724 0.0
C205 C 0.19454 0.77457 0.62721 0.0
C206 C 0.26254 0.68726 0.66252 0.0
O207 O 0.24669 0.69559 0.68402 0.0
O208 O 0.27285 0.70722 0.64588 0.0
O209 O 0.42508 0.3448 0.04395 0.0
Cd210 Cd 0.37753 0.36618 0.05375 0.0
O211 O 0.40248 0.30064 0.02802 0.0
Cd212 Cd 0.40146 0.2529 0.01225 0.0
O213 O 0.38863 0.20472 0.00235 0.0
C214 C 0.39908 0.18551 0.01919 0.0
O215 O 0.41871 0.19456 0.04195 0.0
C216 C 0.42657 0.31758 0.03401 0.0
C217 C 0.36394 0.40994 0.01459 0.0
O218 O 0.38013 0.41705 0.03932 0.0
O219 O 0.35403 0.38238 0.00846 0.0
O220 O 0.37224 0.59572 0.74647 0.0
Cd221 Cd 0.34006 0.63137 0.76948 0.0
O222 O 0.37733 0.62066 0.70605 0.0
Cd223 Cd 0.39535 0.62492 0.66193 0.0
O224 O 0.40911 0.63173 0.6165 0.0
C225 C 0.40274 0.61173 0.59478 0.0
O226 O 0.38865 0.58594 0.59968 0.0
C227 C 0.38302 0.59834 0.72109 0.0
C228 C 0.35114 0.6357 0.83195 0.0
O229 O 0.3655 0.65343 0.81566 0.0
O230 O 0.33114 0.61612 0.81891 0.0
O231 O 0.01056 0.819 0.2463 0.0
Cd232 Cd 0.02048 0.76624 0.23696 0.0
O233 O 0.03025 0.82644 0.29342 0.0
Cd234 Cd 0.03766 0.77996 0.30226 0.0
O235 O 0.04021 0.75062 0.33951 0.0
C236 C 0.02487 0.75827 0.36135 0.0
O237 O 0.00828 0.78126 0.35921 0.0
C238 C 0.018 0.83639 0.26989 0.0
C239 C 0.03245 0.75688 0.17661 0.0
O240 O 0.00553 0.75309 0.18453 0.0
O241 O 0.05379 0.7644 0.19709 0.0
O242 O 0.60417 0.23984 0.68126 0.0
Cd243 Cd 0.6194 0.28357 0.65413 0.0
O244 O 0.60661 0.26337 0.72656 0.0
Cd245 Cd 0.60333 0.26429 0.77542 0.0
O246 O 0.60694 0.2698 0.82478 0.0
C247 C 0.60257 0.24752 0.84057 0.0
O248 O 0.59505 0.22061 0.82713 0.0
C249 C 0.60145 0.23926 0.70942 0.0
C250 C 0.59803 0.2728 0.59372 0.0
O251 O 0.6239 0.2648 0.60284 0.0
O252 O 0.58265 0.28653 0.61279 0.0
O253 O 0.01462 0.44075 0.27592 0.0
Cd254 Cd 0.98902 0.39123 0.26184 0.0
O255 O -0.00076 0.46427 0.23631 0.0
Cd256 Cd 0.9771 0.42463 0.2096 0.0
O257 O 0.9584 0.3948 0.17041 0.0
C258 C 0.95719 0.40573 0.1448 0.0
O259 O 0.96675 0.43401 0.14294 0.0
C260 C 0.0136 0.4646 0.26206 0.0
C261 C 0.97016 0.3675 0.31419 0.0
O262 O 0.99611 0.36269 0.30522 0.0
O263 O 0.95298 0.38306 0.2983 0.0
H264 H 0.28997 0.58258 0.5784 0.0
H265 H 0.28954 0.48654 0.58052 0.0
H266 H 0.27787 0.54131 0.66159 0.0
H267 H 0.29502 0.45969 0.67004 0.0
C268 C 0.30234 0.47018 0.64968 0.0
O269 O 0.27926 0.48583 0.63782 0.0
H270 H 0.32164 0.48562 0.65942 0.0
C271 C 0.28827 0.56263 0.59092 0.0
C272 C 0.28317 0.56536 0.6216 0.0
C273 C 0.2916 0.53442 0.57638 0.0
C274 C 0.28823 0.50849 0.59213 0.0
C275 C 0.28369 0.51097 0.62297 0.0
C276 C 0.28181 0.53947 0.63786 0.0
H277 H 0.33078 0.44513 0.89217 0.0
H278 H 0.31361 0.52463 0.84673 0.0
H279 H 0.33389 0.53123 0.94287 0.0
H280 H 0.27326 0.55501 0.88624 0.0
C281 C 0.29244 0.57248 0.88719 0.0
O282 O 0.31955 0.56126 0.89583 0.0
H283 H 0.29436 0.57797 0.86369 0.0
C284 C 0.32928 0.46931 0.89287 0.0
C285 C 0.33416 0.48669 0.92045 0.0
C286 C 0.32149 0.48286 0.86635 0.0
C287 C 0.31965 0.51408 0.86723 0.0
C288 C 0.32336 0.53144 0.8949 0.0
C289 C 0.33067 0.51774 0.92153 0.0
H290 H 0.67387 0.94151 0.45154 0.0
H291 H 0.63351 0.02481 0.43807 0.0
H292 H 0.60644 0.94592 0.37856 0.0
H293 H 0.57758 0.0173 0.35349 0.0
C294 C 0.60009 0.01217 0.36303 0.0
O295 O 0.59716 0.00253 0.39151 0.0
H296 H 0.60534 0.99343 0.3471 0.0
C297 C 0.65843 0.95441 0.43882 0.0
C298 C 0.64113 0.94053 0.41356 0.0
C299 C 0.65561 0.98469 0.44804 0.0
C300 C 0.63587 0.00139 0.43117 0.0
C301 C 0.61796 0.98729 0.40625 0.0
C302 C 0.6204 0.95679 0.39771 0.0
H303 H 0.71527 0.03138 0.05226 0.0
H304 H 0.69779 0.93745 0.06593 0.0
H305 H 0.68414 0.96815 0.97717 0.0
H306 H 0.63752 0.92611 0.98749 0.0
C307 C 0.64765 0.91499 0.00689 0.0
O308 O 0.67847 0.92168 0.00977 0.0
H309 H 0.63874 0.92434 0.02795 0.0
C310 C 0.70902 0.00841 0.04319 0.0
C311 C 0.70038 0.00245 0.01238 0.0
C312 C 0.70843 0.98503 0.06257 0.0
C313 C 0.69922 0.9555 0.05096 0.0
C314 C 0.69041 0.94946 0.02021 0.0
C315 C 0.69157 0.97282 0.00083 0.0
H316 H 0.49602 0.25773 0.49972 0.0
H317 H 0.47748 0.22362 0.40717 0.0
H318 H 0.56831 0.23061 0.44759 0.0
H319 H 0.51218 0.24026 0.36872 0.0
C320 C 0.53231 0.22717 0.37138 0.0
O321 O 0.53359 0.2136 0.39834 0.0
H322 H 0.52786 0.20917 0.35273 0.0
C323 C 0.50387 0.24866 0.47871 0.0
C324 C 0.53448 0.24454 0.47687 0.0
C325 C 0.48344 0.2419 0.45347 0.0
C326 C 0.49339 0.22953 0.42655 0.0
C327 C 0.5241 0.22594 0.42422 0.0
C328 C 0.5447 0.23391 0.44925 0.0
H329 H 0.10769 0.75532 0.06438 0.0
H330 H 0.08333 0.73852 0.96912 0.0
H331 H 0.01488 0.7347 0.03196 0.0
H332 H 0.9924 0.6943 0.97651 0.0
C333 C 0.01462 0.69809 0.96719 0.0
O334 O 0.02569 0.72757 0.97482 0.0
H335 H 0.02833 0.68174 0.97855 0.0
C336 C 0.09066 0.74998 0.04581 0.0
C337 C 0.06032 0.74554 0.05167 0.0
C338 C 0.0991 0.74752 0.01608 0.0
C339 C 0.07699 0.74043 0.99215 0.0
C340 C 0.04674 0.73538 0.9979 0.0
C341 C 0.03835 0.73837 0.02762 0.0
H342 H 0.88301 0.3032 0.38849 0.0
H343 H 0.87498 0.28759 0.48153 0.0
H344 H 0.95472 0.33554 0.4553 0.0
H345 H 0.96822 0.29478 0.50411 0.0
C346 C 0.94545 0.29241 0.51252 0.0
O347 O 0.92806 0.31392 0.50099 0.0
H348 H 0.93659 0.26935 0.50354 0.0
C349 C 0.8923 0.30573 0.41177 0.0
C350 C 0.92058 0.32116 0.41923 0.0
C351 C 0.87603 0.29337 0.43416 0.0
C352 C 0.88791 0.29672 0.46425 0.0
C353 C 0.91642 0.31159 0.47194 0.0
C354 C 0.93273 0.32394 0.44939 0.0
H355 H 0.43321 0.65092 0.94944 0.0
H356 H 0.41746 0.66496 0.04347 0.0
H357 H 0.34298 0.64903 0.97674 0.0
H358 H 0.3197 0.68134 0.03513 0.0
C359 C 0.34433 0.6863 0.03985 0.0
O360 O 0.35846 0.66013 0.03426 0.0
H361 H 0.34942 0.7033 0.02352 0.0
C362 C 0.41779 0.65214 0.96712 0.0
C363 C 0.38669 0.64879 0.95961 0.0
C364 C 0.42902 0.65789 0.99733 0.0
C365 C 0.40898 0.66014 0.0201 0.0
C366 C 0.37789 0.65693 0.0126 0.0
C367 C 0.36688 0.6509 0.98246 0.0
H368 H 0.67431 0.52767 0.32895 0.0
H369 H 0.57926 0.50372 0.3246 0.0
H370 H 0.61545 0.58789 0.37046 0.0
H371 H 0.5649 0.54127 0.39762 0.0
C372 C 0.5511 0.53876 0.3758 0.0
O373 O 0.56596 0.55331 0.35421 0.0
H374 H 0.54883 0.51405 0.36972 0.0
C375 C 0.65185 0.5334 0.33365 0.0
C376 C 0.64787 0.56078 0.34984 0.0
C377 C 0.62738 0.51248 0.32533 0.0
C378 C 0.5983 0.51984 0.33116 0.0
C379 C 0.59399 0.54699 0.34754 0.0
C380 C 0.61884 0.56718 0.35743 0.0
H381 H 0.01264 0.07678 0.74889 0.0
H382 H 0.91989 0.04996 0.75995 0.0
H383 H 0.98523 0.98381 0.75879 0.0
H384 H 0.90064 0.95564 0.74861 0.0
C385 C 0.91224 0.97546 0.73947 0.0
O386 O 0.92809 0.99276 0.76316 0.0
H387 H 0.92774 0.96474 0.7244 0.0
C388 C 0.99515 0.05935 0.75188 0.0
C389 C 0.00245 0.02951 0.75362 0.0
C390 C 0.96547 0.06689 0.75423 0.0
C391 C 0.9429 0.04431 0.75807 0.0
C392 C 0.94995 0.01434 0.75934 0.0
C393 C 0.97978 0.00696 0.75744 0.0
H394 H 0.40821 0.94681 0.2941 0.0
H395 H 0.50302 0.93757 0.29244 0.0
H396 H 0.47108 0.02457 0.31428 0.0
H397 H 0.52068 0.02619 0.27411 0.0
C398 C 0.5316 0.00577 0.28062 0.0
O399 O 0.51916 0.99516 0.30568 0.0
H400 H 0.52648 0.98923 0.2607 0.0
C401 C 0.4312 0.95674 0.29726 0.0
C402 C 0.43682 0.98764 0.30531 0.0
C403 C 0.45499 0.9387 0.29252 0.0
C404 C 0.48468 0.95155 0.29627 0.0
C405 C 0.49056 0.98255 0.30396 0.0
C406 C 0.46659 0.00058 0.30862 0.0
H407 H 0.94631 0.42492 0.67869 0.0
H408 H 0.04227 0.43555 0.67313 0.0
H409 H 0.99269 0.35294 0.63889 0.0
H410 H 0.05516 0.33774 0.65575 0.0
C411 C 0.06017 0.36101 0.66629 0.0
O412 O 0.04628 0.38086 0.64844 0.0
H413 H 0.05029 0.35972 0.68841 0.0
C414 C 0.96695 0.41614 0.67175 0.0
C415 C 0.96623 0.38695 0.65777 0.0
C416 C 0.99429 0.43383 0.67735 0.0
C417 C 0.02103 0.4221 0.66883 0.0
C418 C 0.02044 0.39277 0.65527 0.0
C419 C 0.99302 0.37548 0.64938 0.0
H420 H 0.67074 0.35261 0.4997 0.0
H421 H 0.67792 0.44573 0.53311 0.0
H422 H 0.64112 0.41986 0.44227 0.0
H423 H 0.68845 0.46904 0.45056 0.0
C424 C 0.68188 0.48103 0.47155 0.0
O425 O 0.65743 0.46553 0.48222 0.0
H426 H 0.70046 0.48113 0.48943 0.0
C427 C 0.66643 0.37584 0.49655 0.0
C428 C 0.65421 0.38347 0.46857 0.0
C429 C 0.67498 0.39809 0.51986 0.0
C430 C 0.6705 0.42827 0.51547 0.0
C431 C 0.65828 0.43615 0.48749 0.0
C432 C 0.64968 0.41368 0.46416 0.0
H433 H 0.72492 0.55285 0.15254 0.0
H434 H 0.74572 0.46061 0.15775 0.0
H435 H 0.68619 0.48495 0.08479 0.0
H436 H 0.66912 0.42747 0.1207 0.0
C437 C 0.69181 0.41891 0.11952 0.0
O438 O 0.71171 0.44012 0.10899 0.0
H439 H 0.70005 0.41579 0.14295 0.0
C440 C 0.72196 0.52947 0.14369 0.0
C441 C 0.70371 0.52142 0.11707 0.0
C442 C 0.73721 0.50769 0.15841 0.0
C443 C 0.73381 0.47753 0.14661 0.0
C444 C 0.71488 0.46917 0.1204 0.0
C445 C 0.7001 0.4912 0.1055 0.0
H446 H 0.26156 0.10589 0.50289 0.0
H447 H 0.25293 0.02201 0.54443 0.0
H448 H 0.25798 0.10592 0.5991 0.0
H449 H 0.20576 0.04514 0.59704 0.0
C450 C 0.22535 0.03722 0.61008 0.0
O451 O 0.25241 0.04698 0.59954 0.0
H452 H 0.22345 0.04859 0.63275 0.0
C453 C 0.2595 0.09368 0.52293 0.0
C454 C 0.26012 0.10957 0.55121 0.0
C455 C 0.25674 0.06219 0.52033 0.0
C456 C 0.25463 0.04641 0.54626 0.0
C457 C 0.25444 0.0622 0.57458 0.0
C458 C 0.2574 0.09379 0.57711 0.0
H459 H 0.30337 0.96064 0.90148 0.0
H460 H 0.32888 0.05537 0.91906 0.0
H461 H 0.36429 0.99248 0.97823 0.0
H462 H 0.35282 0.04615 0.01254 0.0
C463 C 0.34967 0.06124 0.99397 0.0
O464 O 0.36233 0.04963 0.96864 0.0
H465 H 0.32516 0.06195 0.98793 0.0
C466 C 0.31629 0.97894 0.91499 0.0
C467 C 0.33338 0.97285 0.94126 0.0
C468 C 0.31518 0.00849 0.90626 0.0
C469 C 0.33053 0.03232 0.92477 0.0
C470 C 0.34834 0.02647 0.95052 0.0
C471 C 0.35059 0.99673 0.95814 0.0
H472 H 0.4994 0.67986 0.37045 0.0
H473 H 0.50462 0.64207 0.45657 0.0
H474 H 0.41856 0.64682 0.40799 0.0
H475 H 0.41574 0.66258 0.47074 0.0
C476 C 0.43575 0.65209 0.48033 0.0
O477 O 0.44609 0.63266 0.45859 0.0
H478 H 0.45248 0.67157 0.48681 0.0
C479 C 0.48845 0.66911 0.38827 0.0
C480 C 0.45714 0.66365 0.38597 0.0
C481 C 0.50576 0.66126 0.41352 0.0
C482 C 0.49144 0.64781 0.43676 0.0
C483 C 0.45997 0.64308 0.43501 0.0
C484 C 0.44286 0.65043 0.40931 0.0
H485 H 0.84195 0.27875 0.92114 0.0
H486 H 0.84235 0.31091 0.01447 0.0
H487 H 0.91668 0.33675 0.96319 0.0
H488 H 0.93323 0.32085 0.0261 0.0
C489 C 0.91341 0.32889 0.03705 0.0
O490 O 0.89474 0.34178 0.01642 0.0
H491 H 0.90213 0.308 0.04451 0.0
C492 C 0.85272 0.29219 0.94072 0.0
C493 C 0.88079 0.30775 0.93885 0.0
C494 C 0.83873 0.29333 0.96786 0.0
C495 C 0.85291 0.31022 0.99334 0.0
C496 C 0.88103 0.32583 0.99168 0.0
C497 C 0.89488 0.32478 0.96437 0.0
H498 H 0.07472 0.72547 0.60985 0.0
H499 H 0.07836 0.75419 0.52001 0.0
H500 H 0.00011 0.70192 0.54395 0.0
H501 H 0.00968 0.68782 0.47784 0.0
C502 C 0.02827 0.70567 0.47765 0.0
O503 O 0.0254 0.72808 0.50008 0.0
H504 H 0.04842 0.69311 0.48232 0.0
C505 C 0.06436 0.72633 0.58718 0.0
C506 C 0.03562 0.71218 0.57953 0.0
C507 C 0.07991 0.74146 0.56592 0.0
C508 C 0.06652 0.74242 0.53658 0.0
C509 C 0.03797 0.72768 0.52852 0.0
C510 C 0.0223 0.71298 0.55013 0.0
H511 H 0.55325 0.30105 0.0791 0.0
H512 H 0.55152 0.26741 0.98601 0.0
H513 H 0.63353 0.27044 0.04319 0.0
H514 H 0.64956 0.26892 0.97534 0.0
C515 C 0.62548 0.27278 0.97039 0.0
O516 O 0.60834 0.25588 0.98859 0.0
H517 H 0.62512 0.29738 0.97612 0.0
C518 C 0.56471 0.29184 0.0603 0.0
C519 C 0.59521 0.28661 0.06447 0.0
C520 C 0.54885 0.28507 0.03207 0.0
C521 C 0.56369 0.273 0.00783 0.0
C522 C 0.59428 0.26804 0.01179 0.0
C523 C 0.60999 0.2747 0.04013 0.0
H524 H 0.40648 0.4726 0.6897 0.0
H525 H 0.49063 0.51698 0.66999 0.0
H526 H 0.47835 0.42014 0.66259 0.0
H527 H 0.53333 0.46709 0.70269 0.0
C528 C 0.54058 0.4698 0.67961 0.0
O529 O 0.51649 0.46701 0.65811 0.0
H530 H 0.55092 0.49329 0.68141 0.0
C531 C 0.42913 0.47143 0.68262 0.0
C532 C 0.44014 0.44336 0.67605 0.0
C533 C 0.4472 0.498 0.68061 0.0
C534 C 0.47646 0.4965 0.67152 0.0
C535 C 0.48781 0.46841 0.66541 0.0
C536 C 0.46959 0.44182 0.66745 0.0
H537 H 0.94628 0.95319 0.26488 0.0
H538 H 0.04083 0.97864 0.28335 0.0
H539 H 0.97821 0.04694 0.27687 0.0
H540 H 0.0524 0.07021 0.26153 0.0
C541 C 0.05422 0.0459 0.26432 0.0
O542 O 0.03519 0.03674 0.28558 0.0
H543 H 0.0466 0.03599 0.24134 0.0
C544 C 0.96471 0.97051 0.26877 0.0
C545 C 0.95874 0.00097 0.27056 0.0
C546 C 0.99434 0.96234 0.27313 0.0
C547 C 0.01799 0.98481 0.27914 0.0
C548 C 0.01228 0.01525 0.27957 0.0
C549 C 0.98265 0.02336 0.27544 0.0
H550 H 0.61637 0.11034 0.71851 0.0
H551 H 0.53188 0.11714 0.75807 0.0
H552 H 0.56516 0.03022 0.73944 0.0
H553 H 0.50196 0.03001 0.72355 0.0
C554 C 0.49601 0.0493 0.73855 0.0
O555 O 0.52006 0.05873 0.75909 0.0
H556 H 0.49138 0.06699 0.72286 0.0
C557 C 0.59695 0.09974 0.72797 0.0
C558 C 0.59374 0.06834 0.72834 0.0
C559 C 0.57475 0.11747 0.7386 0.0
C560 C 0.54932 0.10361 0.75019 0.0
C561 C 0.54572 0.07214 0.75026 0.0
C562 C 0.56815 0.05454 0.73972 0.0
H563 H 0.11924 0.5528 0.32495 0.0
H564 H 0.03875 0.60008 0.31834 0.0
H565 H 0.1207 0.64502 0.36117 0.0
H566 H 0.04653 0.6815 0.37388 0.0
C567 C 0.04713 0.65675 0.36987 0.0
O568 O 0.06367 0.65079 0.34539 0.0
H569 H 0.05909 0.65111 0.3911 0.0
C570 C 0.10774 0.57304 0.3294 0.0
C571 C 0.12364 0.59887 0.34398 0.0
C572 C 0.07709 0.57333 0.3203 0.0
C573 C 0.06233 0.59961 0.32577 0.0
C574 C 0.0779 0.6253 0.34091 0.0
C575 C 0.10857 0.62495 0.34995 0.0
C576 C 0.20886 0.60781 0.34064 0.0
C577 C 0.21823 0.59228 0.36595 0.0
C578 C 0.16594 0.58545 0.37935 0.0
C579 C 0.15635 0.59837 0.35248 0.0
N580 N 0.16766 0.61935 0.30588 0.0
N581 N 0.20626 0.56465 0.40869 0.0
C582 C 0.17756 0.60908 0.33275 0.0
C583 C 0.1969 0.58063 0.38513 0.0
N584 N 0.22993 0.62141 0.32423 0.0
N585 N 0.14545 0.57848 0.39963 0.0
H586 H 0.22887 0.56214 0.41477 0.0
H587 H 0.19169 0.55246 0.42131 0.0
H588 H 0.12257 0.58147 0.39593 0.0
H589 H 0.15121 0.57191 0.42109 0.0
H590 H 0.22482 0.63593 0.30767 0.0
H591 H 0.25298 0.61979 0.3285 0.0
H592 H 0.1816 0.62417 0.28885 0.0
H593 H 0.14497 0.62124 0.29962 0.0
C594 C 0.38898 0.3907 0.71445 0.0
C595 C 0.3703 0.37714 0.68925 0.0
C596 C 0.40268 0.40136 0.65463 0.0
C597 C 0.42047 0.41596 0.67976 0.0
N598 N 0.43658 0.41799 0.73253 0.0
N599 N 0.36473 0.36137 0.63642 0.0
C600 C 0.41569 0.40819 0.70936 0.0
C601 C 0.37894 0.37983 0.65961 0.0
N602 N 0.38026 0.38867 0.74306 0.0
N603 N 0.40739 0.40927 0.62621 0.0
H604 H 0.34729 0.34535 0.63964 0.0
H605 H 0.37247 0.35962 0.61497 0.0
H606 H 0.42501 0.42449 0.62171 0.0
H607 H 0.39296 0.4019 0.60737 0.0
H608 H 0.39107 0.40112 0.7619 0.0
H609 H 0.36091 0.37613 0.74797 0.0
H610 H 0.43588 0.41096 0.75426 0.0
H611 H 0.45628 0.43096 0.72922 0.0
C612 C 0.66881 0.03645 0.71611 0.0
C613 C 0.6637 0.02442 0.68568 0.0
C614 C 0.61161 0.03859 0.6841 0.0
C615 C 0.61658 0.05024 0.71467 0.0
N616 N 0.64737 0.05569 0.76157 0.0
N617 N 0.62947 0.00929 0.642 0.0
C618 C 0.64446 0.04771 0.73125 0.0
C619 C 0.63476 0.02381 0.67017 0.0
N620 N 0.6971 0.03763 0.73027 0.0
N621 N 0.5853 0.04309 0.66796 0.0
H622 H 0.64619 -0.00042 0.63033 0.0
H623 H 0.60814 0.00501 0.63089 0.0
H624 H 0.56753 0.05318 0.6775 0.0
H625 H 0.58164 0.03861 0.6447 0.0
H626 H 0.70328 0.04922 0.75113 0.0
H627 H 0.71506 0.02818 0.72041 0.0
H628 H 0.66604 0.05186 0.77571 0.0
H629 H 0.62992 0.06408 0.77318 0.0
C630 C 0.88051 0.01679 0.23928 0.0
C631 C 0.86529 0.01867 0.26618 0.0
C632 C 0.91163 0.00989 0.29603 0.0
C633 C 0.92709 0.00908 0.26929 0.0
N634 N 0.92822 0.01663 0.21642 0.0
N635 N 0.86699 0.02282 0.32046 0.0
C636 C 0.91212 0.01416 0.24119 0.0
C637 C 0.88104 0.01686 0.29467 0.0
N638 N 0.86451 0.01593 0.21185 0.0
N639 N 0.92602 0.00325 0.32259 0.0
H640 H 0.84463 0.02816 0.32027 0.0
H641 H 0.87803 0.02502 0.34196 0.0
H642 H 0.9488 -0.00056 0.32484 0.0
H643 H 0.91508 -0.00028 0.34202 0.0
H644 H 0.87366 0.01114 0.19139 0.0
H645 H 0.84135 0.01778 0.20945 0.0
H646 H 0.91937 0.02355 0.19603 0.0
H647 H 0.95124 0.01396 0.21687 0.0
C648 C 0.30019 0.18674 0.54763 0.0
C649 C 0.27519 0.20295 0.53874 0.0
C650 C 0.24043 0.16044 0.54901 0.0
C651 C 0.26533 0.14283 0.55299 0.0
N652 N 0.31875 0.13826 0.55745 0.0
N653 N 0.22172 0.20715 0.53327 0.0
C654 C 0.29521 0.15592 0.55336 0.0
C655 C 0.24531 0.19044 0.54051 0.0
N656 N 0.32867 0.20057 0.54996 0.0
N657 N 0.21224 0.14821 0.55317 0.0
H658 H 0.22468 0.22983 0.52907 0.0
H659 H 0.19932 0.19866 0.5307 0.0
H660 H 0.20824 0.12621 0.55923 0.0
H661 H 0.19311 0.16017 0.55279 0.0
H662 H 0.34746 0.19109 0.55925 0.0
H663 H 0.33359 0.22259 0.54457 0.0
H664 H 0.34093 0.14495 0.55401 0.0
H665 H 0.31591 0.11603 0.56317 0.0
C666 C 0.32544 0.88731 0.93742 0.0
C667 C 0.32113 0.88154 0.96792 0.0
C668 C 0.32372 0.93595 0.98093 0.0
C669 C 0.33172 0.94157 0.95145 0.0
N670 N 0.34973 0.92116 0.90504 0.0
N671 N 0.32809 0.90173 0.02013 0.0
C672 C 0.33582 0.91676 0.93082 0.0
C673 C 0.32401 0.90625 0.99018 0.0
N674 N 0.31774 0.86576 0.91431 0.0
N675 N 0.31415 0.95825 0.99966 0.0
H676 H 0.33146 0.88066 0.02791 0.0
H677 H 0.33226 0.9195 0.03675 0.0
H678 H 0.31103 0.97984 0.99319 0.0
H679 H 0.30586 0.95409 0.02038 0.0
H680 H 0.31847 0.87025 0.89173 0.0
H681 H 0.30694 0.84484 0.91713 0.0
H682 H 0.35522 0.90336 0.89053 0.0
H683 H 0.35877 0.94229 0.90012 0.0
C684 C 0.67396 0.32568 0.40877 0.0
C685 C 0.65325 0.3017 0.41515 0.0
C686 C 0.62521 0.33767 0.44377 0.0
C687 C 0.64971 0.35942 0.44361 0.0
N688 N 0.69684 0.37573 0.42474 0.0
N689 N 0.60716 0.28499 0.43573 0.0
C690 C 0.67351 0.35422 0.42501 0.0
C691 C 0.62793 0.30789 0.43135 0.0
N692 N 0.6946 0.32109 0.38808 0.0
N693 N 0.59956 0.34568 0.45602 0.0
H694 H 0.60754 0.26343 0.4251 0.0
H695 H 0.59012 0.28717 0.45027 0.0
H696 H 0.59752 0.36746 0.46545 0.0
H697 H 0.5796 0.33196 0.45386 0.0
H698 H 0.70814 0.33844 0.38039 0.0
H699 H 0.69644 0.30045 0.37629 0.0
H700 H 0.71692 0.37193 0.41517 0.0
H701 H 0.69672 0.39724 0.43548 0.0
C702 C 0.64765 0.57735 0.09362 0.0
C703 C 0.66508 0.59494 0.07487 0.0
C704 C 0.70704 0.56287 0.08207 0.0
C705 C 0.68957 0.54529 0.10074 0.0
N706 N 0.64245 0.53256 0.12145 0.0
N707 N 0.70965 0.60296 0.04807 0.0
C708 C 0.65957 0.55157 0.10563 0.0
C709 C 0.69422 0.58712 0.068 0.0
N710 N 0.61977 0.58556 0.10013 0.0
N711 N 0.73626 0.55687 0.07866 0.0
H712 H 0.70209 0.62217 0.03896 0.0
H713 H 0.72929 0.59641 0.03922 0.0
H714 H 0.7459 0.53835 0.08724 0.0
H715 H 0.75159 0.57082 0.0686 0.0
H716 H 0.60724 0.5762 0.11638 0.0
H717 H 0.60932 0.60282 0.08998 0.0
H718 H 0.61953 0.5338 0.12345 0.0
H719 H 0.65078 0.51404 0.13131 0.0
C720 C 0.6305 0.27668 0.14317 0.0
C721 C 0.63407 0.30709 0.15525 0.0
C722 C 0.61853 0.32391 0.10569 0.0
C723 C 0.61126 0.29344 0.09479 0.0
N724 N 0.60711 0.24066 0.10367 0.0
N725 N 0.62915 0.35985 0.14929 0.0
C726 C 0.61661 0.26972 0.11357 0.0
C727 C 0.62773 0.33085 0.13679 0.0
N728 N 0.64105 0.25453 0.15978 0.0
N729 N 0.61674 0.34611 0.08617 0.0
H730 H 0.6359 0.36582 0.17193 0.0
H731 H 0.62179 0.37782 0.13788 0.0
H732 H 0.61046 0.34165 0.0632 0.0
H733 H 0.62366 0.36863 0.09207 0.0
H734 H 0.64198 0.23237 0.15111 0.0
H735 H 0.65148 0.25886 0.18151 0.0
H736 H 0.60708 0.22288 0.11756 0.0
H737 H 0.59709 0.23454 0.08204 0.0
C738 C 0.89989 0.31919 0.85824 0.0
C739 C 0.91525 0.29301 0.85189 0.0
C740 C 0.91411 0.28104 0.90474 0.0
C741 C 0.89547 0.30497 0.91002 0.0
N742 N 0.86901 0.34611 0.89201 0.0
N743 N 0.93443 0.24704 0.86797 0.0
C744 C 0.88807 0.324 0.88686 0.0
C745 C 0.92206 0.27358 0.87494 0.0
N746 N 0.89737 0.33983 0.83714 0.0
N747 N 0.92414 0.26541 0.92828 0.0
H748 H 0.94039 0.24051 0.84642 0.0
H749 H 0.93663 0.23028 0.88288 0.0
H750 H 0.91808 0.26972 0.95025 0.0
H751 H 0.94039 0.24992 0.92665 0.0
H752 H 0.8891 0.36082 0.84133 0.0
H753 H 0.90599 0.33707 0.81607 0.0
H754 H 0.85973 0.35836 0.87514 0.0
H755 H 0.86105 0.35115 0.91309 0.0
C756 C 0.42764 0.66689 0.30445 0.0
C757 C 0.42281 0.69796 0.30473 0.0
C758 C 0.43022 0.70273 0.35994 0.0
C759 C 0.43991 0.67318 0.35911 0.0
N760 N 0.44773 0.62645 0.33146 0.0
N761 N 0.42079 0.74629 0.33226 0.0
C762 C 0.43818 0.65488 0.33162 0.0
C763 C 0.42381 0.71602 0.3324 0.0
N764 N 0.42172 0.64894 0.27825 0.0
N765 N 0.42762 0.71818 0.38712 0.0
H766 H 0.4161 0.75703 0.31266 0.0
H767 H 0.42499 0.76129 0.35132 0.0
H768 H 0.4329 0.70933 0.4077 0.0
H769 H 0.41779 0.73858 0.38938 0.0
H770 H 0.4222 0.62561 0.27693 0.0
H771 H 0.41373 0.65719 0.2581 0.0
H772 H 0.45059 0.61316 0.31189 0.0
H773 H 0.45411 0.61656 0.35121 0.0
C774 C 0.9969 0.69965 0.65121 0.0
C775 C 0.00502 0.67013 0.65599 0.0
C776 C 0.02447 0.66555 0.60587 0.0
C777 C 0.02027 0.69641 0.603 0.0
N778 N 0.00225 0.74319 0.62167 0.0
N779 N 0.02503 0.62396 0.63816 0.0
C780 C 0.00594 0.71344 0.62512 0.0
C781 C 0.01809 0.65266 0.63321 0.0
N782 N 0.9808 0.71449 0.67173 0.0
N783 N 0.03461 0.64873 0.58237 0.0
H784 H 0.01882 0.61307 0.65697 0.0
H785 H 0.03781 0.61111 0.62435 0.0
H786 H 0.03995 0.65772 0.5623 0.0
H787 H 0.03576 0.62551 0.58163 0.0
H788 H 0.9716 0.73485 0.66834 0.0
H789 H 0.97482 0.70545 0.69158 0.0
H790 H 0.99541 0.75807 0.63839 0.0
H791 H 0.00723 0.75346 0.60212 0.0
C792 C 0.89083 0.35104 0.62309 0.0
C793 C 0.87963 0.33736 0.64828 0.0
C794 C 0.92622 0.35434 0.67903 0.0
C795 C 0.9375 0.36778 0.65378 0.0
N796 N 0.93393 0.37321 0.60024 0.0
N797 N 0.88921 0.31916 0.6974 0.0
C798 C 0.92093 0.36414 0.62525 0.0
C799 C 0.89808 0.33704 0.67548 0.0
N800 N 0.87219 0.35311 0.59772 0.0
N801 N 0.9423 0.35836 0.70648 0.0
H802 H 0.86901 0.30567 0.69524 0.0
H803 H 0.90298 0.3154 0.71639 0.0
H804 H 0.96395 0.36907 0.7096 0.0
H805 H 0.93366 0.35247 0.72651 0.0
H806 H 0.87802 0.36573 0.57997 0.0
H807 H 0.84987 0.34421 0.59528 0.0
H808 H 0.92445 0.36775 0.57833 0.0
H809 H 0.95543 0.38413 0.60112 0.0
C810 C 0.70906 0.62495 0.35222 0.0
C811 C 0.73341 0.60981 0.36426 0.0
C812 C 0.69792 0.57043 0.37944 0.0
C813 C 0.67502 0.58125 0.36011 0.0
N814 N 0.65844 0.61967 0.32846 0.0
N815 N 0.74927 0.5779 0.40246 0.0
C816 C 0.68015 0.60924 0.34729 0.0
C817 C 0.72726 0.58551 0.38218 0.0
N818 N 0.7134 0.65453 0.34665 0.0
N819 N 0.69181 0.5449 0.39379 0.0
H820 H 0.76966 0.59096 0.4067 0.0
H821 H 0.74652 0.56093 0.41707 0.0
H822 H 0.67004 0.53479 0.39399 0.0
H823 H 0.70811 0.53329 0.40485 0.0
H824 H 0.69594 0.66743 0.33993 0.0
H825 H 0.73374 0.66709 0.353 0.0
H826 H 0.66239 0.63807 0.31578 0.0
H827 H 0.63702 0.60882 0.32383 0.0
C828 C 0.37445 0.0281 0.34092 0.0
C829 C 0.35492 0.03048 0.3148 0.0
C830 C 0.39326 0.01268 0.28268 0.0
C831 C 0.41084 0.00615 0.30885 0.0
N832 N 0.41812 0.00594 0.36293 0.0
N833 N 0.34468 0.02474 0.26081 0.0
C834 C 0.40165 0.01379 0.33804 0.0
C835 C 0.36413 0.0229 0.28562 0.0
N836 N 0.36691 0.03944 0.36843 0.0
N837 N 0.40471 0.00937 0.25511 0.0
H838 H 0.32375 0.03353 0.26205 0.0
H839 H 0.3485 0.01619 0.2392 0.0
H840 H 0.42605 0.00199 0.25233 0.0
H841 H 0.39436 0.01629 0.23539 0.0
H842 H 0.38144 0.04116 0.3879 0.0
H843 H 0.34684 0.04945 0.37141 0.0
H844 H 0.41084 0.00749 0.3846 0.0
H845 H 0.43849 0.99606 0.36173 0.0
C846 C 0.07698 0.01761 0.72053 0.0
C847 C 0.09637 0.01803 0.74722 0.0
C848 C 0.05365 0.02313 0.77826 0.0
C849 C 0.0342 0.02239 0.75157 0.0
N850 N 0.0257 0.01342 0.69762 0.0
N851 N 0.10321 0.0152 0.80099 0.0
C852 C 0.04539 0.01782 0.72276 0.0
C853 C 0.08467 0.01888 0.77597 0.0
N854 N 0.08894 0.01811 0.69315 0.0
N855 N 0.04263 0.02908 0.80572 0.0
H856 H 0.12612 0.01243 0.80008 0.0
H857 H 0.09562 0.01248 0.82223 0.0
H858 H 0.01987 0.03134 0.80833 0.0
H859 H 0.05613 0.03353 0.82578 0.0
H860 H 0.07655 0.02138 0.67314 0.0
H861 H 0.11186 0.017 0.69062 0.0
H862 H 0.03197 0.00704 0.6762 0.0
H863 H 0.00247 0.01383 0.69851 0.0
C864 C 0.63368 0.85501 0.41039 0.0
C865 C 0.65534 0.84797 0.38968 0.0
C866 C 0.66691 0.90169 0.38379 0.0
C867 C 0.64482 0.90864 0.40398 0.0
N868 N 0.60414 0.89285 0.43327 0.0
N869 N 0.68986 0.86353 0.35356 0.0
C870 C 0.62728 0.88552 0.41634 0.0
C871 C 0.67103 0.87102 0.3753 0.0
N872 N 0.61944 0.83247 0.42456 0.0
N873 N 0.68464 0.92452 0.37361 0.0
H874 H 0.69487 0.84146 0.34799 0.0
H875 H 0.69928 0.87885 0.33971 0.0
H876 H 0.68163 0.94724 0.37858 0.0
H877 H 0.70347 0.92122 0.36171 0.0
H878 H 0.60627 0.83617 0.44258 0.0
H879 H 0.62182 0.80967 0.41925 0.0
H880 H 0.58836 0.87715 0.44038 0.0
H881 H 0.5993 0.91502 0.43865 0.0
C882 C 0.723 0.07037 0.96996 0.0
C883 C 0.69433 0.07942 0.96006 0.0
C884 C 0.66961 0.03813 0.98476 0.0
C885 C 0.69821 0.02789 0.99287 0.0
N886 N 0.75176 0.03061 0.98872 0.0
N887 N 0.64058 0.06835 0.95224 0.0
C888 C 0.72482 0.04289 0.98404 0.0
C889 C 0.66768 0.06226 0.96578 0.0
N890 N 0.74835 0.08875 0.96738 0.0
N891 N 0.64441 0.02563 0.99614 0.0
H892 H 0.6383 0.08553 0.93775 0.0
H893 H 0.62085 0.05461 0.953 0.0
H894 H 0.64476 0.00784 0.01007 0.0
H895 H 0.62351 0.03451 0.99384 0.0
H896 H 0.76946 0.08495 0.97718 0.0
H897 H 0.74799 0.10931 0.95768 0.0
H898 H 0.77147 0.03877 0.97998 0.0
H899 H 0.75388 0.01059 0.99916 0.0
C900 C 0.24314 0.63329 0.64914 0.0
C901 C 0.26786 0.65515 0.65597 0.0
C902 C 0.30264 0.61804 0.64071 0.0
C903 C 0.27829 0.59555 0.63593 0.0
N904 N 0.22566 0.58064 0.63934 0.0
N905 N 0.32141 0.66659 0.66507 0.0
C906 C 0.24869 0.60276 0.64173 0.0
C907 C 0.2977 0.64698 0.65379 0.0
N908 N 0.21437 0.64198 0.64739 0.0
N909 N 0.33033 0.61222 0.6317 0.0
H910 H 0.31861 0.68776 0.67553 0.0
H911 H 0.34357 0.6607 0.6668 0.0
H912 H 0.33548 0.59102 0.62325 0.0
H913 H 0.34742 0.62909 0.63038 0.0
H914 H 0.19572 0.62774 0.639 0.0
H915 H 0.20912 0.66417 0.65166 0.0
H916 H 0.20457 0.58385 0.64701 0.0
H917 H 0.22801 0.55844 0.63154 0.0
C918 C 0.32643 0.43957 0.98764 0.0
C919 C 0.35678 0.43294 0.99341 0.0
C920 C 0.37261 0.46825 0.95683 0.0
C921 C 0.34196 0.47151 0.94815 0.0
N922 N 0.2893 0.46001 0.95399 0.0
N923 N 0.40883 0.43885 0.98225 0.0
C924 C 0.31872 0.45729 0.96338 0.0
C925 C 0.38001 0.44704 0.97799 0.0
N926 N 0.30515 0.42957 0.00592 0.0
N927 N 0.39459 0.48543 0.94475 0.0
H928 H 0.41519 0.42336 0.99747 0.0
H929 H 0.42608 0.44564 0.96915 0.0
H930 H 0.38988 0.50074 0.92876 0.0
H931 H 0.41724 0.48645 0.95235 0.0
H932 H 0.28322 0.43606 0.00487 0.0
H933 H 0.31013 0.41675 0.02406 0.0
H934 H 0.27132 0.44725 0.96152 0.0
H935 H 0.28284 0.47402 0.93731 0.0
C936 C 0.36935 0.61344 0.87957 0.0
C937 C 0.35767 0.63796 0.86513 0.0
C938 C 0.3643 0.66939 0.91288 0.0
C939 C 0.37493 0.64456 0.9275 0.0
N940 N 0.38243 0.59165 0.92674 0.0
N941 N 0.33807 0.68692 0.86877 0.0
C942 C 0.37578 0.61611 0.91142 0.0
C943 C 0.3534 0.66527 0.88202 0.0
N944 N 0.37564 0.58817 0.8627 0.0
N945 N 0.36574 0.6972 0.92816 0.0
H946 H 0.32953 0.68461 0.84626 0.0
H947 H 0.33122 0.70581 0.88069 0.0
H948 H 0.37324 0.70115 0.95089 0.0
H949 H 0.36165 0.71686 0.91785 0.0
H950 H 0.38706 0.57083 0.87145 0.0
H951 H 0.37144 0.58535 0.83933 0.0
H952 H 0.38102 0.56971 0.91688 0.0
H953 H 0.38714 0.5929 0.95009 0.0
C954 C 0.03722 0.72488 0.1288 0.0
C955 C 0.03864 0.75387 0.14437 0.0
C956 C 0.05065 0.77737 0.09811 0.0
C957 C 0.05176 0.74833 0.08328 0.0
N958 N 0.04977 0.69437 0.08484 0.0
N959 N 0.04893 0.80775 0.14522 0.0
C960 C 0.04588 0.72202 0.09867 0.0
C961 C 0.04605 0.78014 0.12941 0.0
N962 N 0.02751 0.7001 0.1428 0.0
N963 N 0.05305 0.80225 0.08194 0.0
H964 H 0.044 0.81099 0.16769 0.0
H965 H 0.05785 0.8273 0.13673 0.0
H966 H 0.05659 0.80106 0.05902 0.0
H967 H 0.04923 0.82383 0.09045 0.0
H968 H 0.02259 0.67882 0.1317 0.0
H969 H 0.02245 0.7011 0.16531 0.0
H970 H 0.04923 0.67457 0.09585 0.0
H971 H 0.05574 0.69136 0.0627 0.0
C972 C 0.57793 0.23482 0.5515 0.0
C973 C 0.58551 0.26537 0.56214 0.0
C974 C 0.56247 0.2822 0.51527 0.0
C975 C 0.55533 0.25166 0.50438 0.0
N976 N 0.56046 0.19879 0.50948 0.0
N977 N 0.59073 0.31774 0.55233 0.0
C978 C 0.56468 0.22794 0.52157 0.0
C979 C 0.57949 0.28895 0.54343 0.0
N980 N 0.58154 0.2125 0.57066 0.0
N981 N 0.55206 0.30474 0.49912 0.0
H982 H 0.60297 0.32341 0.57299 0.0
H983 H 0.59014 0.33548 0.53841 0.0
H984 H 0.54101 0.30081 0.47762 0.0
H985 H 0.55303 0.32718 0.50751 0.0
H986 H 0.57312 0.19024 0.56557 0.0
H987 H 0.59099 0.2165 0.59278 0.0
H988 H 0.56992 0.18087 0.51934 0.0
H989 H 0.54926 0.19259 0.4884 0.0
C990 C 0.95177 0.37636 0.3657 0.0
C991 C 0.96034 0.3559 0.34257 0.0
C992 C 0.94986 0.3139 0.37383 0.0
C993 C 0.93723 0.33381 0.39478 0.0
N994 N 0.92315 0.38359 0.40945 0.0
N995 N 0.96411 0.30462 0.3228 0.0
C996 C 0.93753 0.365 0.39052 0.0
C997 C 0.95878 0.32449 0.34624 0.0
N998 N 0.95815 0.40665 0.36446 0.0
N999 N 0.95351 0.2849 0.38048 0.0
H1000 H 0.97007 0.31132 0.30197 0.0
H1001 H 0.96003 0.28138 0.32303 0.0
H1002 H 0.94716 0.27646 0.40052 0.0
H1003 H 0.96531 0.27012 0.36756 0.0
H1004 H 0.95521 0.42246 0.38213 0.0
H1005 H 0.96917 0.41581 0.34699 0.0
H1006 H 0.91949 0.40577 0.40536 0.0
H1007 H 0.91288 0.37626 0.42818 0.0
C1008 C 0.33811 0.53931 0.50888 0.0
C1009 C 0.31504 0.53704 0.48496 0.0
C1010 C 0.27649 0.53091 0.52095 0.0
C1011 C 0.29952 0.53256 0.54469 0.0
N1012 N 0.35201 0.53299 0.56152 0.0
N1013 N 0.26323 0.52371 0.46709 0.0
C1014 C 0.33029 0.53485 0.53865 0.0
C1015 C 0.28446 0.5308 0.49067 0.0
N1016 N 0.3672 0.54755 0.50349 0.0
N1017 N 0.24702 0.53026 0.52744 0.0
H1018 H 0.26839 0.52265 0.4446 0.0
H1019 H 0.24107 0.51612 0.46972 0.0
H1020 H 0.2403 0.529 0.54928 0.0
H1021 H 0.22935 0.53281 0.51153 0.0
H1022 H 0.38448 0.55261 0.52041 0.0
H1023 H 0.37396 0.55177 0.48221 0.0
H1024 H 0.37457 0.53074 0.55814 0.0
H1025 H 0.34719 0.53157 0.58393 0.0
C1026 C 0.27502 0.42851 0.80866 0.0
C1027 C 0.29473 0.42674 0.78514 0.0
C1028 C 0.33275 0.46073 0.81544 0.0
C1029 C 0.31234 0.46384 0.83816 0.0
N1030 N 0.26259 0.45498 0.85499 0.0
N1031 N 0.34059 0.44375 0.76389 0.0
C1032 C 0.28307 0.44885 0.83442 0.0
C1033 C 0.32307 0.44372 0.78782 0.0
N1034 N 0.24859 0.41073 0.80637 0.0
N1035 N 0.36166 0.47323 0.82074 0.0
H1036 H 0.33504 0.43047 0.7438 0.0
H1037 H 0.35979 0.45824 0.76313 0.0
H1038 H 0.36933 0.4862 0.84056 0.0
H1039 H 0.37868 0.46906 0.8066 0.0
H1040 H 0.23508 0.4081 0.82421 0.0
H1041 H 0.24081 0.39708 0.78702 0.0
H1042 H 0.23992 0.44749 0.85193 0.0
H1043 H 0.26764 0.46965 0.87426 0.0
C1044 C 0.67532 0.01139 0.53069 0.0
C1045 C 0.70701 0.00986 0.53222 0.0
C1046 C 0.70458 0.00188 0.47703 0.0
C1047 C 0.67279 0.99787 0.47627 0.0
N1048 N 0.62756 0.99599 0.50287 0.0
N1049 N 0.75183 0.00047 0.50679 0.0
C1050 C 0.65798 0.00221 0.50318 0.0
C1051 C 0.72179 0.00473 0.50533 0.0
N1052 N 0.66186 0.02218 0.5554 0.0
N1053 N 0.71823 0.00287 0.45062 0.0
H1054 H 0.76527 0.00147 0.52698 0.0
H1055 H 0.76295 0.99332 0.48814 0.0
H1056 H 0.70609 0.00092 0.42958 0.0
H1057 H 0.74115 0.00856 0.4497 0.0
H1058 H 0.63923 0.02647 0.55481 0.0
H1059 H 0.67398 0.02987 0.57571 0.0
H1060 H 0.61616 0.99527 0.52242 0.0
H1061 H 0.6139 0.98927 0.48326 0.0
C1062 C 0.75122 0.01165 0.13774 0.0
C1063 C 0.72794 0.00866 0.15764 0.0
C1064 C 0.69169 0.99139 0.115 0.0
C1065 C 0.71537 0.99209 0.09547 0.0
N1066 N 0.76846 0.99753 0.0887 0.0
N1067 N 0.67786 0.98883 0.16627 0.0
C1068 C 0.74542 0.00059 0.107 0.0
C1069 C 0.69867 0.99656 0.14658 0.0
N1070 N 0.7784 0.02627 0.14782 0.0
N1071 N 0.66241 0.9869 0.10338 0.0
H1072 H 0.68244 0.99126 0.18962 0.0
H1073 H 0.6572 0.97712 0.15951 0.0
H1074 H 0.65623 0.98322 0.08033 0.0
H1075 H 0.64418 0.98951 0.11637 0.0
H1076 H 0.79506 0.03199 0.13362 0.0
H1077 H 0.78342 0.03511 0.17005 0.0
H1078 H 0.79107 0.00035 0.09657 0.0
H1079 H 0.76499 0.98955 0.06605 0.0
C1080 C 0.40275 0.23914 0.47469 0.0
C1081 C 0.39487 0.26824 0.46758 0.0
C1082 C 0.44423 0.27892 0.44848 0.0
C1083 C 0.45193 0.24971 0.45517 0.0
N1084 N 0.43714 0.1998 0.46856 0.0
N1085 N 0.40478 0.31295 0.44159 0.0
C1086 C 0.43063 0.22904 0.4662 0.0
C1087 C 0.41463 0.28725 0.45254 0.0
N1088 N 0.3845 0.2219 0.49113 0.0
N1089 N 0.46557 0.29908 0.43933 0.0
H1090 H 0.38306 0.31948 0.44395 0.0
H1091 H 0.41701 0.32631 0.42784 0.0
H1092 H 0.48724 0.29354 0.43515 0.0
H1093 H 0.46249 0.32182 0.43768 0.0
H1094 H 0.39067 0.20214 0.50011 0.0
H1095 H 0.36389 0.22836 0.49779 0.0
H1096 H 0.42146 0.18282 0.4735 0.0
H1097 H 0.45762 0.19193 0.46304 0.0
C1098 C 0.17858 0.784 0.01488 0.0
C1099 C 0.19365 0.75939 0.00298 0.0
C1100 C 0.14684 0.72682 0.00017 0.0
C1101 C 0.13136 0.75186 0.01021 0.0
N1102 N 0.13089 0.80554 0.02089 0.0
N1103 N 0.19067 0.70974 0.97721 0.0
C1104 C 0.14676 0.78088 0.01563 0.0
C1105 C 0.17732 0.73147 0.99349 0.0
N1106 N 0.19472 0.80978 0.02688 0.0
N1107 N 0.13287 0.6984 0.99821 0.0
H1108 H 0.2127 0.7127 0.97102 0.0
H1109 H 0.17899 0.69012 0.96715 0.0
H1110 H 0.11065 0.69389 0.00325 0.0
H1111 H 0.14411 0.67903 0.99421 0.0
H1112 H 0.18523 0.82709 0.0389 0.0
H1113 H 0.21808 0.81289 0.02715 0.0
H1114 H 0.1405 0.82758 0.02192 0.0
H1115 H 0.10754 0.80411 0.02142 0.0
C1116 C 0.79261 0.27558 0.41176 0.0
C1117 C 0.79082 0.24357 0.40912 0.0
C1118 C 0.84539 0.24443 0.42045 0.0
C1119 C 0.84664 0.27621 0.42583 0.0
N1120 N 0.82137 0.322 0.43088 0.0
N1121 N 0.81441 0.19726 0.41563 0.0
C1122 C 0.8202 0.29179 0.42275 0.0
C1123 C 0.81695 0.22787 0.41459 0.0
N1124 N 0.76831 0.29049 0.40249 0.0
N1125 N 0.87145 0.23014 0.42038 0.0
H1126 H 0.79395 0.18431 0.41183 0.0
H1127 H 0.83213 0.18491 0.42281 0.0
H1128 H 0.89269 0.24141 0.42532 0.0
H1129 H 0.87221 0.20752 0.4132 0.0
H1130 H 0.76911 0.31369 0.40098 0.0
H1131 H 0.74792 0.27944 0.39355 0.0
H1132 H 0.80233 0.33399 0.43244 0.0
H1133 H 0.84133 0.33475 0.4384 0.0
C1134 C 0.50621 0.69754 0.02057 0.0
C1135 C 0.52496 0.67368 0.01515 0.0
C1136 C 0.48029 0.6385 0.0032 0.0
C1137 C 0.46193 0.66311 0.00476 0.0
N1138 N 0.45765 0.71679 0.00995 0.0
N1139 N 0.53018 0.6221 0.99729 0.0
C1140 C 0.47493 0.69286 0.01217 0.0
C1141 C 0.51212 0.64422 0.00559 0.0
N1142 N 0.51815 0.7244 0.03466 0.0
N1143 N 0.46727 0.60968 0.99984 0.0
H1144 H 0.55356 0.62544 0.99825 0.0
H1145 H 0.52192 0.60117 0.98701 0.0
H1146 H 0.44401 0.60472 0.99781 0.0
H1147 H 0.47942 0.59076 0.00168 0.0
H1148 H 0.50506 0.7415 0.0419 0.0
H1149 H 0.54088 0.72848 0.04196 0.0
H1150 H 0.46657 0.73911 0.01196 0.0
H1151 H 0.4347 0.71436 0.00329 0.0
C1152 C 0.65056 0.44586 0.27637 0.0
C1153 C 0.64806 0.42278 0.29661 0.0
C1154 C 0.63256 0.45868 0.33547 0.0
C1155 C 0.63303 0.48131 0.31468 0.0
N1156 N 0.63814 0.49598 0.26426 0.0
N1157 N 0.62936 0.4054 0.34239 0.0
C1158 C 0.64067 0.47473 0.28471 0.0
C1159 C 0.63694 0.42866 0.3253 0.0
N1160 N 0.66351 0.44056 0.24983 0.0
N1161 N 0.62913 0.46604 0.36527 0.0
H1162 H 0.63126 0.38288 0.33541 0.0
H1163 H 0.61823 0.40813 0.36204 0.0
H1164 H 0.62581 0.48778 0.37385 0.0
H1165 H 0.63228 0.45111 0.38194 0.0
H1166 H 0.66847 0.45714 0.2353 0.0
H1167 H 0.67142 0.41987 0.24323 0.0
H1168 H 0.64057 0.49179 0.24133 0.0
H1169 H 0.63124 0.51738 0.26987 0.0
C1170 C 0.96805 0.15143 0.77246 0.0
C1171 C 0.9505 0.16027 0.74723 0.0
C1172 C 0.94216 0.1077 0.72677 0.0
C1173 C 0.95835 0.09871 0.75272 0.0
N1174 N 0.9806 0.11092 0.8034 0.0
N1175 N 0.91435 0.14634 0.70478 0.0
C1176 C 0.96933 0.12027 0.77661 0.0
C1177 C 0.93553 0.13822 0.72572 0.0
N1178 N 0.98483 0.1726 0.79151 0.0
N1179 N 0.93433 0.08746 0.70252 0.0
H1180 H 0.90829 0.16842 0.70384 0.0
H1181 H 0.90061 0.13079 0.69047 0.0
H1182 H 0.93917 0.06496 0.70219 0.0
H1183 H 0.92545 0.09357 0.68179 0.0
H1184 H 0.00062 0.16719 0.80822 0.0
H1185 H 0.985 0.19565 0.78907 0.0
H1186 H 0.98614 0.12544 0.82264 0.0
H1187 H 0.98174 0.08823 0.80724 0.0
C1188 C 0.43858 0.86749 0.23993 0.0
C1189 C 0.4289 0.84679 0.26063 0.0
C1190 C 0.44154 0.88511 0.30275 0.0
C1191 C 0.44827 0.90656 0.28175 0.0
N1192 N 0.45082 0.91962 0.23038 0.0
N1193 N 0.41936 0.83549 0.31132 0.0
C1194 C 0.44641 0.89809 0.25033 0.0
C1195 C 0.42993 0.85547 0.29198 0.0
N1196 N 0.44025 0.85788 0.2103 0.0
N1197 N 0.44686 0.89305 0.33297 0.0
H1198 H 0.4121 0.81317 0.30446 0.0
H1199 H 0.41619 0.84128 0.33384 0.0
H1200 H 0.45513 0.91466 0.34152 0.0
H1201 H 0.44533 0.87787 0.34955 0.0
H1202 H 0.45043 0.87085 0.19482 0.0
H1203 H 0.43321 0.83607 0.20143 0.0
H1204 H 0.44622 0.91573 0.20716 0.0
H1205 H 0.45727 0.94215 0.23711 0.0
C1206 C 0.97687 0.51504 0.69494 0.0
C1207 C 0.99388 0.52222 0.72303 0.0
C1208 C 0.00888 0.47045 0.72245 0.0
C1209 C 0.9948 0.46445 0.69286 0.0
N1210 N 0.97054 0.48294 0.64848 0.0
N1211 N 0.03145 0.50848 0.76029 0.0
C1212 C 0.98032 0.48733 0.67835 0.0
C1213 C 0.01139 0.5004 0.73595 0.0
N1214 N 0.95633 0.53396 0.68473 0.0
N1215 N 0.01894 0.44743 0.73811 0.0
H1216 H 0.03485 0.53042 0.77027 0.0
H1217 H 0.04692 0.49414 0.76861 0.0
H1218 H 0.01695 0.42504 0.72929 0.0
H1219 H 0.02658 0.45013 0.76085 0.0
H1220 H 0.94125 0.52832 0.6659 0.0
H1221 H 0.95206 0.55389 0.69677 0.0
H1222 H 0.96264 0.50002 0.63602 0.0
H1223 H 0.97305 0.46307 0.63541 0.0
C1224 C 0.69125 0.35812 0.59037 0.0
C1225 C 0.72317 0.36173 0.59369 0.0
C1226 C 0.7235 0.39199 0.54994 0.0
C1227 C 0.69157 0.38937 0.54748 0.0
N1228 N 0.64518 0.37662 0.56941 0.0
N1229 N 0.76926 0.38811 0.58155 0.0
C1230 C 0.6755 0.37463 0.56911 0.0
C1231 C 0.73919 0.38054 0.57496 0.0
N1232 N 0.67603 0.33752 0.60606 0.0
N1233 N 0.73884 0.40426 0.52775 0.0
H1234 H 0.78143 0.38058 0.60002 0.0
H1235 H 0.78147 0.40413 0.5705 0.0
H1236 H 0.72825 0.41352 0.50936 0.0
H1237 H 0.76194 0.40338 0.52646 0.0
H1238 H 0.65308 0.33152 0.60187 0.0
H1239 H 0.68667 0.32451 0.6215 0.0
H1240 H 0.63289 0.36948 0.58693 0.0
H1241 H 0.63297 0.38832 0.55386 0.0
C1242 C 0.76397 0.53137 0.24008 0.0
C1243 C 0.79345 0.54419 0.23655 0.0
C1244 C 0.78728 0.52957 0.18218 0.0
C1245 C 0.75767 0.51725 0.18566 0.0
N1246 N 0.71907 0.5018 0.21754 0.0
N1247 N 0.83517 0.55185 0.20574 0.0
C1248 C 0.74644 0.51666 0.21458 0.0
C1249 C 0.8058 0.54193 0.20806 0.0
N1250 N 0.75267 0.53372 0.26782 0.0
N1251 N 0.79714 0.53049 0.15387 0.0
H1252 H 0.84893 0.56278 0.22368 0.0
H1253 H 0.84666 0.54785 0.18656 0.0
H1254 H 0.78479 0.52034 0.1346 0.0
H1255 H 0.81684 0.5424 0.14902 0.0
H1256 H 0.73029 0.52834 0.27157 0.0
H1257 H 0.7656 0.54216 0.28742 0.0
H1258 H 0.71047 0.49805 0.23812 0.0
H1259 H 0.70546 0.49134 0.19923 0.0
C1260 C 0.22733 0.02845 0.44228 0.0
C1261 C 0.25453 0.03002 0.42767 0.0
C1262 C 0.28339 0.04327 0.47627 0.0
C1263 C 0.25599 0.0463 0.48992 0.0
N1264 N 0.20182 0.04208 0.48699 0.0
N1265 N 0.30859 0.03722 0.42995 0.0
C1266 C 0.22791 0.0384 0.47336 0.0
C1267 C 0.28268 0.03662 0.44453 0.0
N1268 N 0.20094 0.0179 0.42632 0.0
N1269 N 0.30997 0.04669 0.49384 0.0
H1270 H 0.30891 0.03043 0.4071 0.0
H1271 H 0.32962 0.04529 0.44002 0.0
H1272 H 0.31099 0.05161 0.51715 0.0
H1273 H 0.33072 0.04246 0.48598 0.0
H1274 H 0.18088 0.01326 0.43617 0.0
H1275 H 0.19942 0.01156 0.40328 0.0
H1276 H 0.1806 0.04042 0.47549 0.0
H1277 H 0.20142 0.04841 0.50993 0.0
C1278 C 0.29262 0.03457 0.82847 0.0
C1279 C 0.26416 0.01826 0.82193 0.0
C1280 C 0.26647 0.00305 0.87369 0.0
C1281 C 0.29716 0.01409 0.87799 0.0
N1282 N 0.34113 0.03571 0.85624 0.0
N1283 N 0.2268 0.98156 0.83736 0.0
C1284 C 0.31077 0.02871 0.85453 0.0
C1285 C 0.2517 0.00109 0.84431 0.0
N1286 N 0.30195 0.0564 0.81051 0.0
N1287 N 0.2512 0.99498 0.8977 0.0
H1288 H 0.21625 0.97764 0.81568 0.0
H1289 H 0.21875 0.96667 0.85243 0.0
H1290 H 0.26094 0.99737 0.91981 0.0
H1291 H 0.22809 0.98922 0.89599 0.0
H1292 H 0.32143 0.0706 0.81592 0.0
H1293 H 0.28867 0.06237 0.792 0.0
H1294 H 0.35217 0.04403 0.8384 0.0
H1295 H 0.35567 0.03032 0.87405 0.0
C1296 C 0.58289 0.70186 0.4361 0.0
C1297 C 0.59911 0.69065 0.41214 0.0
C1298 C 0.55656 0.65445 0.39454 0.0
C1299 C 0.53882 0.66886 0.41566 0.0
N1300 N 0.53404 0.70836 0.45465 0.0
N1301 N 0.60303 0.65569 0.36926 0.0
C1302 C 0.55181 0.69277 0.43636 0.0
C1303 C 0.58651 0.66647 0.39175 0.0
N1304 N 0.59717 0.72151 0.4584 0.0
N1305 N 0.54458 0.62938 0.37717 0.0
H1306 H 0.6256 0.66286 0.36786 0.0
H1307 H 0.59438 0.64048 0.35145 0.0
H1308 H 0.52248 0.62051 0.37818 0.0
H1309 H 0.55688 0.61605 0.36332 0.0
H1310 H 0.58747 0.72805 0.47815 0.0
H1311 H 0.61978 0.72917 0.45849 0.0
H1312 H 0.54151 0.72824 0.46748 0.0
H1313 H 0.51103 0.70301 0.45529 0.0
C1314 C 0.75533 0.26888 0.95732 0.0
C1315 C 0.7559 0.23784 0.96229 0.0
C1316 C 0.81037 0.24421 0.97486 0.0
C1317 C 0.8099 0.27513 0.96958 0.0
N1318 N 0.78201 0.31857 0.9623 0.0
N1319 N 0.7818 0.19758 0.98296 0.0
C1320 C 0.7823 0.28803 0.96307 0.0
C1321 C 0.78282 0.22601 0.9733 0.0
N1322 N 0.72948 0.27963 0.94547 0.0
N1323 N 0.83727 0.23206 0.98038 0.0
H1324 H 0.76185 0.18383 0.9825 0.0
H1325 H 0.80004 0.18859 0.99395 0.0
H1326 H 0.85783 0.24495 0.98315 0.0
H1327 H 0.83949 0.20902 0.98061 0.0
H1328 H 0.7284 0.30115 0.9381 0.0
H1329 H 0.70923 0.2664 0.94117 0.0
H1330 H 0.7624 0.32978 0.96074 0.0
H1331 H 0.80152 0.33308 0.9657 0.0
C1332 C 0.14123 0.78738 0.61477 0.0
C1333 C 0.16682 0.77253 0.60661 0.0
C1334 C 0.13619 0.74142 0.56664 0.0
C1335 C 0.11049 0.75575 0.57524 0.0
N1336 N 0.08969 0.79779 0.60082 0.0
N1337 N 0.19064 0.74283 0.56932 0.0
C1338 C 0.11352 0.78074 0.59701 0.0
C1339 C 0.1649 0.75202 0.58062 0.0
N1340 N 0.14275 0.8061 0.64055 0.0
N1341 N 0.13304 0.71656 0.54659 0.0
H1342 H 0.21203 0.75066 0.57889 0.0
H1343 H 0.19089 0.73003 0.54888 0.0
H1344 H 0.11247 0.70822 0.53554 0.0
H1345 H 0.15051 0.70299 0.54237 0.0
H1346 H 0.12396 0.81469 0.64949 0.0
H1347 H 0.16254 0.81149 0.65428 0.0
H1348 H 0.09115 0.81788 0.61442 0.0
H1349 H 0.06917 0.79327 0.588 0.0
C1350 C 0.46601 0.28155 0.04568 0.0
C1351 C 0.45645 0.30613 0.02983 0.0
C1352 C 0.50726 0.31575 0.01348 0.0
C1353 C 0.51648 0.29057 0.02843 0.0
N1354 N 0.50324 0.24515 0.05216 0.0
N1355 N 0.46562 0.34142 0.99239 0.0
C1356 C 0.49532 0.27201 0.04234 0.0
C1357 C 0.47639 0.32162 0.01175 0.0
N1358 N 0.44795 0.26854 0.06539 0.0
N1359 N 0.52815 0.33486 0.00215 0.0
H1360 H 0.44296 0.34574 0.99004 0.0
H1361 H 0.47843 0.3512 0.97653 0.0
H1362 H 0.55098 0.3313 0.0028 0.0
H1363 H 0.52322 0.35545 0.99417 0.0
H1364 H 0.45514 0.25287 0.08002 0.0
H1365 H 0.42655 0.27514 0.0691 0.0
H1366 H 0.48792 0.22921 0.05968 0.0
H1367 H 0.52459 0.23754 0.05004 0.0
C1368 C 0.39263 0.55831 0.68128 0.0
C1369 C 0.40183 0.57502 0.70907 0.0
C1370 C 0.44321 0.54267 0.71735 0.0
C1371 C 0.43488 0.52715 0.68876 0.0
N1372 N 0.40722 0.52536 0.64026 0.0
N1373 N 0.43981 0.58779 0.75014 0.0
C1374 C 0.41144 0.5368 0.66961 0.0
C1375 C 0.4284 0.56867 0.72607 0.0
N1376 N 0.36501 0.56133 0.6671 0.0
N1377 N 0.4642 0.53184 0.73673 0.0
H1378 H 0.42978 0.60729 0.7569 0.0
H1379 H 0.46067 0.58587 0.76157 0.0
H1380 H 0.47584 0.51308 0.73106 0.0
H1381 H 0.46853 0.54017 0.75917 0.0
H1382 H 0.35601 0.54744 0.64838 0.0
H1383 H 0.34984 0.57573 0.67575 0.0
H1384 H 0.39231 0.53374 0.6245 0.0
H1385 H 0.42077 0.50954 0.63105 0.0
C1386 C 0.99414 0.88083 0.2928 0.0
C1387 C 0.01174 0.86856 0.27036 0.0
C1388 C 0.01534 0.91715 0.24793 0.0
C1389 C 0.00051 0.93008 0.27222 0.0
N1390 N 0.98089 0.92575 0.32089 0.0
N1391 N 0.04387 0.87636 0.22984 0.0
C1392 C 0.99137 0.91236 0.29558 0.0
C1393 C 0.02364 0.88706 0.24874 0.0
N1394 N 0.97895 0.86225 0.31061 0.0
N1395 N 0.0207 0.93329 0.22368 0.0
H1396 H 0.05105 0.85466 0.2301 0.0
H1397 H 0.05569 0.88987 0.21589 0.0
H1398 H 0.01477 0.95534 0.22217 0.0
H1399 H 0.02856 0.92397 0.20393 0.0
H1400 H 0.96332 0.86968 0.32514 0.0
H1401 H 0.97959 0.83889 0.30873 0.0
H1402 H 0.97696 0.9144 0.34001 0.0
H1403 H 0.97879 0.94887 0.32394 0.0
C1404 C 0.56499 0.19406 0.7082 0.0
C1405 C 0.59166 0.21032 0.72151 0.0
C1406 C 0.60111 0.1685 0.75281 0.0
C1407 C 0.57778 0.15044 0.73544 0.0
N1408 N 0.53915 0.14508 0.69418 0.0
N1409 N 0.63699 0.21199 0.75483 0.0
C1410 C 0.55987 0.16302 0.71269 0.0
C1411 C 0.61006 0.19751 0.74377 0.0
N1412 N 0.5443 0.20846 0.69163 0.0
N1413 N 0.61466 0.15783 0.77793 0.0
H1414 H 0.64478 0.23296 0.74841 0.0
H1415 H 0.65276 0.20216 0.76856 0.0
H1416 H 0.6085 0.13664 0.78506 0.0
H1417 H 0.62979 0.17101 0.79319 0.0
H1418 H 0.52315 0.19847 0.68377 0.0
H1419 H 0.54703 0.23141 0.6885 0.0
H1420 H 0.52808 0.15244 0.67501 0.0
H1421 H 0.53471 0.12214 0.69642 0.0
C1422 C 0.02235 0.50368 0.30572 0.0
C1423 C 0.02911 0.4931 0.27636 0.0
C1424 C 0.06466 0.5373 0.27449 0.0
C1425 C 0.06037 0.54587 0.30502 0.0
N1426 N 0.03946 0.53428 0.35159 0.0
N1427 N 0.06067 0.49697 0.23479 0.0
C1428 C 0.0404 0.52825 0.3212 0.0
C1429 C 0.05126 0.5092 0.26116 0.0
N1430 N 0.99797 0.49107 0.3184 0.0
N1431 N 0.08108 0.55627 0.25805 0.0
H1432 H 0.05206 0.47608 0.22461 0.0
H1433 H 0.07899 0.50618 0.22445 0.0
H1434 H 0.09143 0.57695 0.26714 0.0
H1435 H 0.08227 0.55272 0.23483 0.0
H1436 H 0.99022 0.49996 0.33839 0.0
H1437 H 0.98361 0.47358 0.30747 0.0
H1438 H 0.02773 0.5202 0.3651 0.0
H1439 H 0.05273 0.55182 0.36381 0.0
C1440 C 0.46694 0.54893 0.35772 0.0
C1441 C 0.45866 0.55815 0.38688 0.0
C1442 C 0.51198 0.56496 0.40485 0.0
C1443 C 0.51965 0.54948 0.37789 0.0
N1444 N 0.50364 0.52589 0.32816 0.0
N1445 N 0.4737 0.57026 0.43991 0.0
C1446 C 0.49693 0.54143 0.35404 0.0
C1447 C 0.48127 0.56517 0.41092 0.0
N1448 N 0.44642 0.54824 0.33337 0.0
N1449 N 0.53381 0.58026 0.42424 0.0
H1450 H 0.45157 0.56899 0.44591 0.0
H1451 H 0.48955 0.57266 0.45841 0.0
H1452 H 0.55609 0.58346 0.41894 0.0
H1453 H 0.52905 0.59348 0.44327 0.0
H1454 H 0.452 0.54465 0.31118 0.0
H1455 H 0.42455 0.55455 0.33511 0.0
H1456 H 0.48726 0.51618 0.31185 0.0
H1457 H 0.52538 0.52101 0.32364 0.0
C1458 C 0.13834 0.39531 0.69914 0.0
C1459 C 0.15701 0.37645 0.68316 0.0
C1460 C 0.11311 0.35549 0.65035 0.0
C1461 C 0.09391 0.36924 0.67039 0.0
N1462 N 0.08842 0.40387 0.71369 0.0
N1463 N 0.1619 0.33643 0.64485 0.0
C1464 C 0.10655 0.38982 0.69463 0.0
C1465 C 0.14441 0.35614 0.65888 0.0
N1466 N 0.151 0.4194 0.71758 0.0
N1467 N 0.10166 0.34247 0.62285 0.0
H1468 H 0.18484 0.33577 0.65066 0.0
H1469 H 0.15308 0.31894 0.62927 0.0
H1470 H 0.07916 0.343 0.61503 0.0
H1471 H 0.11512 0.33444 0.6064 0.0
H1472 H 0.13858 0.43582 0.72739 0.0
H1473 H 0.17416 0.42487 0.72051 0.0
H1474 H 0.09646 0.41553 0.73407 0.0
H1475 H 0.06511 0.40291 0.71003 0.0
C1476 C 0.83616 0.00475 0.71612 0.0
C1477 C 0.84204 0.01748 0.6887 0.0
C1478 C 0.89503 0.0063 0.69565 0.0
C1479 C 0.88902 0.99328 0.72309 0.0
N1480 N 0.85667 0.99008 0.76412 0.0
N1481 N 0.87817 0.03774 0.65648 0.0
C1482 C 0.86048 0.99578 0.73485 0.0
C1483 C 0.87183 0.02038 0.67964 0.0
N1484 N 0.80719 -0.00033 0.72359 0.0
N1485 N 0.9227 0.00507 0.6846 0.0
H1486 H 0.86189 0.04893 0.64473 0.0
H1487 H 0.89988 0.04344 0.65068 0.0
H1488 H 0.94159 0.99882 0.69694 0.0
H1489 H 0.9269 0.00976 0.66268 0.0
H1490 H 0.80138 0.98724 0.7415 0.0
H1491 H 0.7886 0.00548 0.71037 0.0
H1492 H 0.83723 0.99446 0.77469 0.0
H1493 H 0.874 0.98413 0.77891 0.0
C1494 C 0.60849 0.04949 0.2865 0.0
C1495 C 0.62701 0.0259 0.27941 0.0
C1496 C 0.58489 0.98834 0.28235 0.0
C1497 C 0.56558 0.01203 0.28631 0.0
N1498 N 0.56142 0.06326 0.30557 0.0
N1499 N 0.63622 0.97377 0.28158 0.0
C1500 C 0.57821 0.04209 0.29284 0.0
C1501 C 0.61623 0.99554 0.28098 0.0
N1502 N 0.61925 0.0788 0.28567 0.0
N1503 N 0.5732 0.95909 0.2789 0.0
H1504 H 0.65936 0.97884 0.28121 0.0
H1505 H 0.63044 0.95146 0.28548 0.0
H1506 H 0.55089 0.9528 0.28218 0.0
H1507 H 0.58532 0.94113 0.27195 0.0
H1508 H 0.60575 0.09684 0.28718 0.0
H1509 H 0.64154 0.08505 0.28205 0.0
H1510 H 0.57003 0.08507 0.31282 0.0
H1511 H 0.53989 0.05789 0.31219 0.0
C1512 C 0.30259 0.39362 0.60442 0.0
C1513 C 0.32439 0.39974 0.58365 0.0
C1514 C 0.33387 0.45127 0.60707 0.0
C1515 C 0.31019 0.44591 0.62627 0.0
N1516 N 0.2658 0.41431 0.63525 0.0
N1517 N 0.35434 0.43699 0.55982 0.0
C1518 C 0.2926 0.41783 0.62249 0.0
C1519 C 0.3383 0.42928 0.58349 0.0
N1520 N 0.29229 0.36464 0.60806 0.0
N1521 N 0.35218 0.47728 0.61085 0.0
H1522 H 0.35687 0.42204 0.54127 0.0
H1523 H 0.36213 0.45906 0.55685 0.0
H1524 H 0.34843 0.49576 0.6252 0.0
H1525 H 0.3722 0.47996 0.60037 0.0
H1526 H 0.27875 0.359 0.62522 0.0
H1527 H 0.29988 0.34601 0.5963 0.0
H1528 H 0.25099 0.39517 0.63047 0.0
H1529 H 0.25669 0.43152 0.6478 0.0
C1530 C 0.28712 0.62014 0.96128 0.0
C1531 C 0.28422 0.6492 0.95107 0.0
C1532 C 0.28251 0.62826 0.89839 0.0
C1533 C 0.28638 0.59913 0.90876 0.0
N1534 N 0.28144 0.56633 0.94931 0.0
N1535 N 0.27354 0.68069 0.91054 0.0
C1536 C 0.28545 0.59478 0.94 0.0
C1537 C 0.28067 0.65329 0.91976 0.0
N1538 N 0.29277 0.61687 0.9914 0.0
N1539 N 0.27946 0.632 0.86817 0.0
H1540 H 0.27144 0.69938 0.92543 0.0
H1541 H 0.26763 0.68484 0.88832 0.0
H1542 H 0.2731 0.61453 0.85175 0.0
H1543 H 0.28215 0.65273 0.85907 0.0
H1544 H 0.299 0.5969 -9e-05 0.0
H1545 H 0.29418 0.63486 0.00782 0.0
H1546 H 0.2775 0.56189 0.97136 0.0
H1547 H 0.27849 0.54705 0.93453 0.0
C1548 C 0.62914 0.09479 0.36231 0.0
C1549 C 0.65984 0.09242 0.35725 0.0
C1550 C 0.65274 0.03741 0.35766 0.0
C1551 C 0.62212 0.03995 0.36379 0.0
N1552 N 0.58469 0.07187 0.38184 0.0
N1553 N 0.7027 0.06248 0.35828 0.0
C1554 C 0.61146 0.06892 0.36935 0.0
C1555 C 0.67218 0.064 0.35716 0.0
N1556 N 0.61639 0.1214 0.35899 0.0
N1557 N 0.66344 0.00982 0.35197 0.0
H1558 H 0.71783 0.08145 0.35894 0.0
H1559 H 0.71322 0.04281 0.36173 0.0
H1560 H 0.65163 0.9895 0.35508 0.0
H1561 H 0.6839 0.00699 0.34273 0.0
H1562 H 0.59334 0.1235 0.35923 0.0
H1563 H 0.62833 0.14069 0.35294 0.0
H1564 H 0.57728 0.09267 0.38882 0.0
H1565 H 0.57143 0.05367 0.3884 0.0
C1566 C 0.61061 0.8366 0.01727 0.0
C1567 C 0.62814 0.8178 0.99989 0.0
C1568 C 0.65565 0.86237 0.98298 0.0
C1569 C 0.63944 0.88112 0.00213 0.0
N1570 N 0.59266 0.886 0.02549 0.0
N1571 N 0.66884 0.81188 0.96791 0.0
C1572 C 0.61436 0.86826 0.01591 0.0
C1573 C 0.65114 0.83043 0.98323 0.0
N1574 N 0.59114 0.82424 0.03613 0.0
N1575 N 0.67324 0.87506 0.96267 0.0
H1576 H 0.66531 0.78846 0.96652 0.0
H1577 H 0.68825 0.81946 0.9583 0.0
H1578 H 0.67455 0.89804 0.95964 0.0
H1579 H 0.68371 0.86275 0.94631 0.0
H1580 H 0.5804 0.83702 0.05197 0.0
H1581 H 0.58798 0.80111 0.03816 0.0
H1582 H 0.57252 0.87741 0.03308 0.0
H1583 H 0.5926 0.90883 0.02195 0.0
C1584 C 0.60602 0.24869 0.33815 0.0
C1585 C 0.60712 0.28059 0.3419 0.0
C1586 C 0.5635 0.27768 0.37235 0.0
C1587 C 0.56133 0.24579 0.36691 0.0
N1588 N 0.58707 0.20124 0.3555 0.0
N1589 N 0.59346 0.32496 0.37012 0.0
C1590 C 0.58492 0.23141 0.35353 0.0
C1591 C 0.5878 0.29496 0.36135 0.0
N1592 N 0.6236 0.23481 0.3184 0.0
N1593 N 0.54222 0.29148 0.38764 0.0
H1594 H 0.6121 0.33779 0.36385 0.0
H1595 H 0.58183 0.33648 0.38611 0.0
H1596 H 0.52613 0.27975 0.39897 0.0
H1597 H 0.54 0.31456 0.38866 0.0
H1598 H 0.62116 0.21177 0.3122 0.0
H1599 H 0.639 0.24648 0.30619 0.0
H1600 H 0.60537 0.19007 0.34863 0.0
H1601 H 0.57222 0.18805 0.36703 0.0
C1602 C 0.92601 0.28184 0.59437 0.0
C1603 C 0.95462 0.28961 0.61001 0.0
C1604 C 0.97283 0.30861 0.56392 0.0
C1605 C 0.94677 0.29479 0.54693 0.0
N1606 N 0.89782 0.2677 0.54655 0.0
N1607 N 0.00729 0.30524 0.60753 0.0
C1608 C 0.92301 0.28143 0.56234 0.0
C1609 C 0.97859 0.30186 0.59432 0.0
N1610 N 0.90147 0.2757 0.61013 0.0
N1611 N 0.99185 0.32861 0.55137 0.0
H1612 H 0.01296 0.29919 0.62924 0.0
H1613 H 0.02583 0.31141 0.59578 0.0
H1614 H 0.98733 0.33575 0.52985 0.0
H1615 H 0.00989 0.34093 0.5638 0.0
H1616 H 0.87961 0.27244 0.6001 0.0
H1617 H 0.90244 0.27704 0.63363 0.0
H1618 H 0.88185 0.25405 0.55619 0.0
H1619 H 0.89359 0.26836 0.5234 0.0
C1620 C 0.33413 0.70735 0.12287 0.0
C1621 C 0.35893 0.72875 0.13078 0.0
C1622 C 0.37672 0.72027 0.08032 0.0
C1623 C 0.35173 0.69887 0.07235 0.0
N1624 N 0.31406 0.6641 0.08992 0.0
N1625 N 0.40852 0.74841 0.12061 0.0
C1626 C 0.33283 0.68979 0.0949 0.0
C1627 C 0.38166 0.73309 0.11054 0.0
N1628 N 0.31099 0.70479 0.14119 0.0
N1629 N 0.39552 0.72887 0.0591 0.0
H1630 H 0.41332 0.7572 0.14289 0.0
H1631 H 0.42715 0.74965 0.10788 0.0
H1632 H 0.39462 0.71859 0.03736 0.0
H1633 H 0.41133 0.74732 0.06266 0.0
H1634 H 0.29087 0.69193 0.13477 0.0
H1635 H 0.31067 0.71758 0.16164 0.0
H1636 H 0.30179 0.65514 0.10664 0.0
H1637 H 0.31343 0.64978 0.07031 0.0
C1638 C 0.03057 0.66947 0.88652 0.0
C1639 C 0.00121 0.66893 0.87198 0.0
C1640 C 0.98454 0.6966 0.91642 0.0
C1641 C 0.01178 0.69149 0.93304 0.0
N1642 N 0.06241 0.67553 0.93322 0.0
N1643 N 0.94923 0.67996 0.8738 0.0
C1644 C 0.03544 0.67891 0.91781 0.0
C1645 C 0.97798 0.6823 0.88695 0.0
N1646 N 0.05399 0.66202 0.87005 0.0
N1647 N 0.96517 0.7156 0.92854 0.0
H1648 H 0.94326 0.66939 0.85238 0.0
H1649 H 0.93082 0.6862 0.88519 0.0
H1650 H 0.96974 0.72747 0.94957 0.0
H1651 H 0.94634 0.72227 0.91636 0.0
H1652 H 0.07645 0.66485 0.87839 0.0
H1653 H 0.05127 0.65563 0.84699 0.0
H1654 H 0.07877 0.66259 0.92467 0.0
H1655 H 0.0683 0.6849 0.95507 0.0
C1656 C 0.60748 0.43529 0.64396 0.0
C1657 C 0.61204 0.41155 0.66293 0.0
C1658 C 0.56501 0.42056 0.68579 0.0
C1659 C 0.56352 0.44774 0.67119 0.0
N1660 N 0.58199 0.48011 0.63421 0.0
N1661 N 0.59701 0.38346 0.7044 0.0
C1662 C 0.58427 0.45475 0.64945 0.0
C1663 C 0.59118 0.4045 0.68435 0.0
N1664 N 0.62453 0.43842 0.61992 0.0
N1665 N 0.54112 0.40948 0.70024 0.0
H1666 H 0.61619 0.37147 0.70458 0.0
H1667 H 0.58424 0.37994 0.72267 0.0
H1668 H 0.52088 0.41963 0.70061 0.0
H1669 H 0.54004 0.38831 0.70872 0.0
H1670 H 0.62023 0.45306 0.60324 0.0
H1671 H 0.64157 0.42448 0.61505 0.0
H1672 H 0.59879 0.48882 0.62155 0.0
H1673 H 0.56364 0.49322 0.63489 0.0
C1674 C 0.97672 0.60046 0.36801 0.0
C1675 C 0.95453 0.61735 0.35424 0.0
C1676 C 0.99357 0.65671 0.34606 0.0
C1677 C 0.01507 0.64213 0.36383 0.0
N1678 N 0.02663 0.59959 0.39248 0.0
N1679 N 0.94091 0.66383 0.33454 0.0
C1680 C 0.0065 0.61391 0.37514 0.0
C1681 C 0.96271 0.64612 0.34447 0.0
N1682 N 0.96991 0.57081 0.37247 0.0
N1683 N 0.00263 0.68007 0.32973 0.0
H1684 H 0.91798 0.65729 0.33386 0.0
H1685 H 0.94533 0.68614 0.32976 0.0
H1686 H 0.02502 0.68814 0.32922 0.0
H1687 H 0.98831 0.68941 0.3141 0.0
H1688 H 0.9859 0.55628 0.37912 0.0
H1689 H 0.94871 0.55975 0.36675 0.0
H1690 H 0.02023 0.58189 0.40525 0.0
H1691 H 0.04965 0.60551 0.39499 0.0
C1692 C 0.12705 0.00567 0.27954 0.0
C1693 C 0.14487 0.02836 0.29805 0.0
C1694 C 0.10325 0.06102 0.29614 0.0
C1695 C 0.08633 0.03988 0.27481 0.0
N1696 N 0.08445 0.99277 0.24336 0.0
N1697 N 0.15273 0.08026 0.31753 0.0
C1698 C 0.09896 0.01251 0.26547 0.0
C1699 C 0.13383 0.05686 0.30425 0.0
N1700 N 0.13591 0.97696 0.27694 0.0
N1701 N 0.08992 0.08434 0.31004 0.0
H1702 H 0.17552 0.07822 0.32322 0.0
H1703 H 0.14658 0.10234 0.31982 0.0
H1704 H 0.06723 0.08793 0.30638 0.0
H1705 H 0.1007 0.09829 0.32792 0.0
H1706 H 0.12204 0.95861 0.26709 0.0
H1707 H 0.1561 0.97081 0.28699 0.0
H1708 H 0.09478 0.97499 0.23304 0.0
H1709 H 0.06286 0.99459 0.23376 0.0
C1710 C 0.43102 0.00059 0.7655 0.0
C1711 C 0.41043 0.02245 0.77212 0.0
C1712 C 0.44809 0.06289 0.76279 0.0
C1713 C 0.4681 0.04079 0.75474 0.0
N1714 N 0.48308 0.99059 0.76066 0.0
N1715 N 0.40192 0.07424 0.78541 0.0
C1716 C 0.46101 0.01023 0.76006 0.0
C1717 C 0.41974 0.05362 0.77325 0.0
N1718 N 0.4216 0.97064 0.7628 0.0
N1719 N 0.45604 0.09267 0.76014 0.0
H1720 H 0.38137 0.06813 0.79387 0.0
H1721 H 0.4085 0.09707 0.78967 0.0
H1722 H 0.47771 0.10071 0.75606 0.0
H1723 H 0.44103 0.10942 0.76132 0.0
H1724 H 0.43473 0.95398 0.75461 0.0
H1725 H 0.39977 0.96254 0.76632 0.0
H1726 H 0.47975 0.96866 0.76701 0.0
H1727 H 0.50559 0.99728 0.75836 0.0
C1728 C 0.63836 0.54926 0.45263 0.0
C1729 C 0.66116 0.57313 0.45746 0.0
C1730 C 0.69838 0.53712 0.46999 0.0
C1731 C 0.6753 0.51308 0.46471 0.0
N1732 N 0.62707 0.49636 0.43846 0.0
N1733 N 0.71388 0.58976 0.46514 0.0
C1734 C 0.64634 0.51912 0.45234 0.0
C1735 C 0.69146 0.56715 0.46497 0.0
N1736 N 0.60885 0.55535 0.44912 0.0
N1737 N 0.72721 0.53122 0.4786 0.0
H1738 H 0.70997 0.61172 0.46038 0.0
H1739 H 0.73672 0.58662 0.46769 0.0
H1740 H 0.7351 0.50985 0.47625 0.0
H1741 H 0.74361 0.54761 0.48801 0.0
H1742 H 0.59115 0.53877 0.4488 0.0
H1743 H 0.60206 0.57724 0.44982 0.0
H1744 H 0.60672 0.50008 0.4269 0.0
H1745 H 0.63316 0.47438 0.43481 0.0
C1746 C 0.67952 0.36464 0.04764 0.0
C1747 C 0.69599 0.34046 0.05679 0.0
C1748 C 0.69995 0.36285 0.10884 0.0
C1749 C 0.68952 0.39004 0.09861 0.0
N1750 N 0.66817 0.41637 0.0575 0.0
N1751 N 0.72535 0.31828 0.09584 0.0
C1752 C 0.67884 0.39075 0.06776 0.0
C1753 C 0.70702 0.33991 0.08735 0.0
N1754 N 0.66333 0.3621 0.02023 0.0
N1755 N 0.70174 0.358 0.13882 0.0
H1756 H 0.73175 0.30138 0.08081 0.0
H1757 H 0.73659 0.31894 0.11722 0.0
H1758 H 0.6937 0.37236 0.15527 0.0
H1759 H 0.70688 0.33745 0.14679 0.0
H1760 H 0.64827 0.37757 0.0136 0.0
H1761 H 0.66247 0.34289 0.00533 0.0
H1762 H 0.66417 0.41953 0.03467 0.0
H1763 H 0.66445 0.43509 0.07163 0.0
C1764 C 0.21155 0.95165 0.58811 0.0
C1765 C 0.22038 0.93998 0.61589 0.0
C1766 C 0.23696 0.99089 0.63745 0.0
C1767 C 0.2239 0.00316 0.61141 0.0
N1768 N 0.19711 0.99444 0.56176 0.0
N1769 N 0.23571 0.94906 0.66897 0.0
C1770 C 0.21065 0.98335 0.58668 0.0
C1771 C 0.23143 0.95976 0.64112 0.0
N1772 N 0.2057 0.9326 0.5626 0.0
N1773 N 0.25565 0.00858 0.65825 0.0
H1774 H 0.23109 0.9265 0.67289 0.0
H1775 H 0.24072 0.9631 0.68866 0.0
H1776 H 0.26186 0.03121 0.65603 0.0
H1777 H 0.26787 -0.00011 0.676 0.0
H1778 H 0.20274 0.94001 0.54103 0.0
H1779 H 0.20669 0.90933 0.56248 0.0
H1780 H 0.18344 0.981 0.54541 0.0
H1781 H 0.19802 0.01711 0.5577 0.0
C1782 C 0.35669 0.14562 0.02004 0.0
C1783 C 0.38717 0.15349 0.01496 0.0
C1784 C 0.39507 0.10014 0.00365 0.0
C1785 C 0.36369 0.0928 0.0045 0.0
N1786 N 0.31856 0.10594 0.0273 0.0
N1787 N 0.43519 0.13896 5e-05 0.0
C1788 C 0.34549 0.11481 0.01662 0.0
C1789 C 0.40643 0.1309 0.00661 0.0
N1790 N 0.33831 0.16763 0.02792 0.0
N1791 N 0.41425 0.07765 0.00218 0.0
H1792 H 0.44439 0.16122 0.00202 0.0
H1793 H 0.44914 0.12394 0.99032 0.0
H1794 H 0.40699 0.05499 0.00277 0.0
H1795 H 0.43758 0.08149 0.00423 0.0
H1796 H 0.31503 0.16401 0.02769 0.0
H1797 H 0.34608 0.1901 0.03322 0.0
H1798 H 0.30537 0.12047 0.03881 0.0
H1799 H 0.31104 0.08341 0.02824 0.0
C1800 C 0.38933 0.61814 0.53995 0.0
C1801 C 0.41164 0.61742 0.56417 0.0
C1802 C 0.45097 0.63324 0.53165 0.0
C1803 C 0.42838 0.63558 0.50794 0.0
N1804 N 0.37864 0.61872 0.48588 0.0
N1805 N 0.46386 0.6159 0.58107 0.0
C1806 C 0.39833 0.62426 0.51091 0.0
C1807 C 0.44258 0.62247 0.55941 0.0
N1808 N 0.3595 0.61429 0.54491 0.0
N1809 N 0.48036 0.64167 0.52777 0.0
H1810 H 0.4584 0.60746 0.60139 0.0
H1811 H 0.48675 0.6162 0.57805 0.0
H1812 H 0.48792 0.64631 0.50691 0.0
H1813 H 0.49724 0.64474 0.54529 0.0
H1814 H 0.34222 0.61778 0.52889 0.0
H1815 H 0.35186 0.60975 0.56579 0.0
H1816 H 0.35706 0.60837 0.48626 0.0
H1817 H 0.38509 0.62119 0.46411 0.0
C1818 C 0.05429 0.74404 0.4078 0.0
C1819 C 0.02666 0.74292 0.38979 0.0
C1820 C 6e-05 0.72196 0.43061 0.0
C1821 C 0.02803 0.7193 0.44725 0.0
N1822 N 0.08246 0.72787 0.45132 0.0
N1823 N 0.97416 0.72585 0.38166 0.0
C1824 C 0.05537 0.73023 0.43568 0.0
C1825 C -0.00014 0.73033 0.40049 0.0
N1826 N 0.07913 0.76006 0.39929 0.0
N1827 N 0.9736 0.71812 0.44399 0.0
H1828 H 0.97313 0.73164 0.35937 0.0
H1829 H 0.95483 0.71364 0.38717 0.0
H1830 H 0.9724 0.71386 0.46656 0.0
H1831 H 0.95293 0.72273 0.43371 0.0
H1832 H 0.09887 0.76501 0.41316 0.0
H1833 H 0.07936 0.77076 0.37927 0.0
H1834 H 0.10298 0.73075 0.4418 0.0
H1835 H 0.08483 0.72209 0.47351 0.0
C1836 C 0.62672 0.2357 0.89059 0.0
C1837 C 0.60598 0.252 0.874 0.0
C1838 C 0.59479 0.28007 0.92082 0.0
C1839 C 0.61585 0.26379 0.93732 0.0
N1840 N 0.642 0.21837 0.93906 0.0
N1841 N 0.56461 0.28377 0.87386 0.0
C1842 C 0.62868 0.23913 0.92257 0.0
C1843 C 0.58838 0.27255 0.88927 0.0
N1844 N 0.64573 0.21808 0.87595 0.0
N1845 N 0.58093 0.30275 0.9351 0.0
H1846 H 0.55883 0.27819 0.85096 0.0
H1847 H 0.54889 0.2963 0.88416 0.0
H1848 H 0.58183 0.30677 0.95844 0.0
H1849 H 0.56905 0.31827 0.92372 0.0
H1850 H 0.66354 0.20849 0.88711 0.0
H1851 H 0.64565 0.21536 0.85252 0.0
H1852 H 0.64893 0.19837 0.92933 0.0
H1853 H 0.64292 0.21931 0.96254 0.0
C1854 C 0.96345 0.38364 0.09249 0.0
C1855 C 0.94522 0.38694 0.11711 0.0
C1856 C 0.90454 0.35451 0.08859 0.0
C1857 C 0.92292 0.35145 0.0639 0.0
N1858 N 0.9646 0.37276 0.03871 0.0
N1859 N 0.89617 0.38143 0.1362 0.0
C1860 C 0.95077 0.36902 0.06469 0.0
C1861 C 0.91511 0.37394 0.11456 0.0
N1862 N 0.9933 0.39332 0.09595 0.0
N1863 N 0.87691 0.33898 0.08723 0.0
H1864 H 0.90291 0.39595 0.15522 0.0
H1865 H 0.87314 0.37543 0.13421 0.0
H1866 H 0.86654 0.32772 0.06751 0.0
H1867 H 0.86447 0.33658 0.1059 0.0
H1868 H 0.00828 0.38856 0.07971 0.0
H1869 H 0.00379 0.40348 0.11617 0.0
H1870 H 0.98358 0.38753 0.03768 0.0
H1871 H 0.95508 0.36415 0.01752 0.0
loop_
_geom_bond_atom_site_label_1
_geom_bond_atom_site_label_2
_geom_bond_distance
_geom_bond_site_symmetry_2
_ccdc_geom_bond_type
O0 Cd1 2.300 . S
O0 C7 1.275 . S
Cd1 O0 2.300 . S
Cd1 O9 2.381 . S
Cd1 O10 2.378 . S
O2 Cd3 2.385 . S
O2 C7 1.255 . S
Cd3 O2 2.385 . S
Cd3 O4 2.317 . S
O4 Cd3 2.317 . S
O4 C5 1.232 . S
C5 O4 1.232 . S
C5 O6 1.218 . S
O6 C5 1.218 . S
C7 O0 1.275 . S
C7 O2 1.255 . S
C8 O9 1.258 . S
C8 O10 1.256 . S
O9 Cd1 2.381 . S
O9 C8 1.258 . S
O10 Cd1 2.378 . S
O10 C8 1.256 . S
O11 Cd12 2.300 . S
O11 C18 1.275 . S
Cd12 O11 2.300 . S
Cd12 O20 2.381 . S
Cd12 O21 2.378 . S
O13 Cd14 2.385 . S
O13 C18 1.255 . S
Cd14 O13 2.385 . S
Cd14 O15 2.317 . S
O15 Cd14 2.317 . S
O15 C16 1.232 . S
C16 O15 1.232 . S
C16 O17 1.218 . S
O17 C16 1.218 . S
C18 O11 1.275 . S
C18 O13 1.255 . S
C19 O20 1.258 . S
C19 O21 1.256 . S
O20 Cd12 2.381 . S
O20 C19 1.258 . S
O21 Cd12 2.378 . S
O21 C19 1.256 . S
O22 Cd23 2.301 . S
O22 C29 1.276 . S
Cd23 O22 2.301 . S
Cd23 O31 2.381 1_565 S
Cd23 O32 2.378 . S
O24 Cd25 2.385 . S
O24 C29 1.255 . S
Cd25 O24 2.385 . S
Cd25 O26 2.317 . S
O26 Cd25 2.317 . S
O26 C27 1.232 . S
C27 O26 1.232 . S
C27 O28 1.218 . S
O28 C27 1.218 . S
C29 O22 1.276 . S
C29 O24 1.255 . S
C30 O31 1.258 . S
C30 O32 1.256 1_545 S
O31 Cd23 2.381 1_545 S
O31 C30 1.258 . S
O32 Cd23 2.378 . S
O32 C30 1.256 1_565 S
O33 Cd34 2.300 1_565 S
O33 C40 1.275 1_565 S
Cd34 O33 2.300 1_545 S
Cd34 O42 2.381 1_545 S
Cd34 O43 2.378 . S
O35 Cd36 2.385 . S
O35 C40 1.255 . S
Cd36 O35 2.385 . S
Cd36 O37 2.317 . S
O37 Cd36 2.317 . S
O37 C38 1.232 . S
C38 O37 1.232 . S
C38 O39 1.218 . S
O39 C38 1.218 . S
C40 O33 1.275 1_545 S
C40 O35 1.255 . S
C41 O42 1.258 1_545 S
C41 O43 1.256 . S
O42 Cd34 2.381 1_565 S
O42 C41 1.258 1_565 S
O43 Cd34 2.378 . S
O43 C41 1.256 . S
O44 Cd45 2.300 . S
O44 C51 1.275 . S
Cd45 O44 2.300 . S
Cd45 O53 2.381 . S
Cd45 O54 2.378 . S
O46 Cd47 2.385 . S
O46 C51 1.255 . S
Cd47 O46 2.385 . S
Cd47 O48 2.317 . S
O48 Cd47 2.317 . S
O48 C49 1.232 . S
C49 O48 1.232 . S
C49 O50 1.218 . S
O50 C49 1.218 . S
C51 O44 1.275 . S
C51 O46 1.255 . S
C52 O53 1.258 . S
C52 O54 1.256 . S
O53 Cd45 2.381 . S
O53 C52 1.258 . S
O54 Cd45 2.378 . S
O54 C52 1.256 . S
O55 Cd56 2.300 1_556 S
O55 C62 1.275 1_556 S
Cd56 O55 2.300 1_554 S
Cd56 O64 2.381 1_554 S
Cd56 O65 2.378 . S
O57 Cd58 2.385 . S
O57 C62 1.255 . S
Cd58 O57 2.385 . S
Cd58 O59 2.317 . S
O59 Cd58 2.317 . S
O59 C60 1.232 . S
C60 O59 1.232 . S
C60 O61 1.218 . S
O61 C60 1.218 . S
C62 O55 1.275 1_554 S
C62 O57 1.255 . S
C63 O64 1.258 1_554 S
C63 O65 1.256 . S
O64 Cd56 2.381 1_556 S
O64 C63 1.258 1_556 S
O65 Cd56 2.378 . S
O65 C63 1.256 . S
O66 Cd67 2.300 . S
O66 C73 1.275 . S
Cd67 O66 2.300 . S
Cd67 O75 2.381 . S
Cd67 O76 2.378 . S
O68 Cd69 2.385 . S
O68 C73 1.255 . S
Cd69 O68 2.385 . S
Cd69 O70 2.317 . S
O70 Cd69 2.317 . S
O70 C71 1.232 . S
C71 O70 1.232 . S
C71 O72 1.218 . S
O72 C71 1.218 . S
C73 O66 1.275 . S
C73 O68 1.255 . S
C74 O75 1.258 . S
C74 O76 1.256 . S
O75 Cd67 2.381 . S
O75 C74 1.258 . S
O76 Cd67 2.378 . S
O76 C74 1.256 . S
O77 Cd78 2.301 . S
O77 C84 1.276 . S
Cd78 O77 2.301 . S
Cd78 O86 2.381 1_556 S
Cd78 O87 2.378 . S
O79 Cd80 2.385 . S
O79 C84 1.255 . S
Cd80 O79 2.385 . S
Cd80 O81 2.317 . S
O81 Cd80 2.317 . S
O81 C82 1.232 . S
C82 O81 1.232 . S
C82 O83 1.218 . S
O83 C82 1.218 . S
C84 O77 1.276 . S
C84 O79 1.255 . S
C85 O86 1.258 . S
C85 O87 1.256 1_554 S
O86 Cd78 2.381 1_554 S
O86 C85 1.258 . S
O87 Cd78 2.378 . S
O87 C85 1.256 1_556 S
O88 Cd89 2.300 . S
O88 C95 1.275 . S
Cd89 O88 2.300 . S
Cd89 O97 2.381 . S
Cd89 O98 2.378 . S
O90 Cd91 2.385 . S
O90 C95 1.255 . S
Cd91 O90 2.385 . S
Cd91 O92 2.317 . S
O92 Cd91 2.317 . S
O92 C93 1.232 . S
C93 O92 1.232 . S
C93 O94 1.218 . S
O94 C93 1.218 . S
C95 O88 1.275 . S
C95 O90 1.255 . S
C96 O97 1.258 . S
C96 O98 1.256 . S
O97 Cd89 2.381 . S
O97 C96 1.258 . S
O98 Cd89 2.378 . S
O98 C96 1.256 . S
O99 Cd100 2.300 1_655 S
O99 C106 1.275 1_655 S
Cd100 O99 2.300 1_455 S
Cd100 O108 2.381 1_455 S
Cd100 O109 2.378 . S
O101 Cd102 2.385 . S
O101 C106 1.255 . S
Cd102 O101 2.385 . S
Cd102 O103 2.317 . S
O103 Cd102 2.317 . S
O103 C104 1.232 . S
C104 O103 1.232 . S
C104 O105 1.218 . S
O105 C104 1.218 . S
C106 O99 1.275 1_455 S
C106 O101 1.255 . S
C107 O108 1.258 1_455 S
C107 O109 1.256 . S
O108 Cd100 2.381 1_655 S
O108 C107 1.258 1_655 S
O109 Cd100 2.378 . S
O109 C107 1.256 . S
O110 Cd111 2.300 . S
O110 C117 1.275 . S
Cd111 O110 2.300 . S
Cd111 O119 2.381 . S
Cd111 O120 2.378 . S
O112 Cd113 2.385 . S
O112 C117 1.255 . S
Cd113 O112 2.385 . S
Cd113 O114 2.317 . S
O114 Cd113 2.317 . S
O114 C115 1.232 . S
C115 O114 1.232 . S
C115 O116 1.218 . S
O116 C115 1.218 . S
C117 O110 1.275 . S
C117 O112 1.255 . S
C118 O119 1.258 . S
C118 O120 1.256 . S
O119 Cd111 2.381 . S
O119 C118 1.258 . S
O120 Cd111 2.378 . S
O120 C118 1.256 . S
O121 Cd122 2.301 . S
O121 C128 1.276 . S
Cd122 O121 2.301 . S
Cd122 O130 2.381 1_655 S
Cd122 O131 2.378 . S
O123 Cd124 2.385 . S
O123 C128 1.255 . S
Cd124 O123 2.385 . S
Cd124 O125 2.317 . S
O125 Cd124 2.317 . S
O125 C126 1.232 . S
C126 O125 1.232 . S
C126 O127 1.218 . S
O127 C126 1.218 . S
C128 O121 1.276 . S
C128 O123 1.255 . S
C129 O130 1.258 . S
C129 O131 1.256 1_455 S
O130 Cd122 2.381 1_455 S
O130 C129 1.258 . S
O131 Cd122 2.378 . S
O131 C129 1.256 1_655 S
O132 Cd133 2.300 . S
O132 C139 1.275 . S
Cd133 O132 2.300 . S
Cd133 O141 2.381 . S
Cd133 O142 2.378 . S
O134 Cd135 2.385 . S
O134 C139 1.255 . S
Cd135 O134 2.385 . S
Cd135 O136 2.317 . S
O136 Cd135 2.317 . S
O136 C137 1.232 . S
C137 O136 1.232 . S
C137 O138 1.218 . S
O138 C137 1.218 . S
C139 O132 1.275 . S
C139 O134 1.255 . S
C140 O141 1.258 . S
C140 O142 1.256 . S
O141 Cd133 2.381 . S
O141 C140 1.258 . S
O142 Cd133 2.378 . S
O142 C140 1.256 . S
O143 Cd144 2.300 . S
O143 C150 1.275 . S
Cd144 O143 2.300 . S
Cd144 O152 2.381 . S
Cd144 O153 2.378 . S
O145 Cd146 2.385 . S
O145 C150 1.255 . S
Cd146 O145 2.385 . S
Cd146 O147 2.317 . S
O147 Cd146 2.317 . S
O147 C148 1.232 . S
C148 O147 1.232 . S
C148 O149 1.218 . S
O149 C148 1.218 . S
C150 O143 1.275 . S
C150 O145 1.255 . S
C151 O152 1.258 . S
C151 O153 1.256 . S
O152 Cd144 2.381 . S
O152 C151 1.258 . S
O153 Cd144 2.378 . S
O153 C151 1.256 . S
O154 Cd155 2.300 1_545 S
O154 C161 1.275 . S
Cd155 O154 2.300 1_565 S
Cd155 O163 2.381 1_565 S
Cd155 O164 2.378 . S
O156 Cd157 2.385 . S
O156 C161 1.255 1_565 S
Cd157 O156 2.385 . S
Cd157 O158 2.317 . S
O158 Cd157 2.317 . S
O158 C159 1.232 . S
C159 O158 1.232 . S
C159 O160 1.218 . S
O160 C159 1.218 . S
C161 O154 1.275 . S
C161 O156 1.255 1_545 S
C162 O163 1.258 1_565 S
C162 O164 1.256 . S
O163 Cd155 2.381 1_545 S
O163 C162 1.258 1_545 S
O164 Cd155 2.378 . S
O164 C162 1.256 . S
O165 Cd166 2.300 1_565 S
O165 C172 1.275 1_565 S
Cd166 O165 2.300 1_545 S
Cd166 O174 2.381 1_545 S
Cd166 O175 2.378 . S
O167 Cd168 2.385 . S
O167 C172 1.255 . S
Cd168 O167 2.385 . S
Cd168 O169 2.317 . S
O169 Cd168 2.317 . S
O169 C170 1.232 . S
C170 O169 1.232 . S
C170 O171 1.218 . S
O171 C170 1.218 . S
C172 O165 1.275 1_545 S
C172 O167 1.255 . S
C173 O174 1.258 1_545 S
C173 O175 1.256 . S
O174 Cd166 2.381 1_565 S
O174 C173 1.258 1_565 S
O175 Cd166 2.378 . S
O175 C173 1.256 . S
O176 Cd177 2.300 . S
O176 C183 1.275 . S
Cd177 O176 2.300 . S
Cd177 O185 2.381 . S
Cd177 O186 2.378 . S
O178 Cd179 2.385 . S
O178 C183 1.255 . S
Cd179 O178 2.385 . S
Cd179 O180 2.317 . S
O180 Cd179 2.317 . S
O180 C181 1.232 . S
C181 O180 1.232 . S
C181 O182 1.218 . S
O182 C181 1.218 . S
C183 O176 1.275 . S
C183 O178 1.255 . S
C184 O185 1.258 . S
C184 O186 1.256 . S
O185 Cd177 2.381 . S
O185 C184 1.258 . S
O186 Cd177 2.378 . S
O186 C184 1.256 . S
O187 Cd188 2.300 1_556 S
O187 C194 1.275 1_556 S
Cd188 O187 2.300 1_554 S
Cd188 O196 2.381 1_554 S
Cd188 O197 2.378 . S
O189 Cd190 2.385 . S
O189 C194 1.255 . S
Cd190 O189 2.385 . S
Cd190 O191 2.317 . S
O191 Cd190 2.317 . S
O191 C192 1.232 . S
C192 O191 1.232 . S
C192 O193 1.218 . S
O193 C192 1.218 . S
C194 O187 1.275 1_554 S
C194 O189 1.255 . S
C195 O196 1.258 1_554 S
C195 O197 1.256 . S
O196 Cd188 2.381 1_556 S
O196 C195 1.258 1_556 S
O197 Cd188 2.378 . S
O197 C195 1.256 . S
O198 Cd199 2.300 . S
O198 C205 1.275 . S
Cd199 O198 2.300 . S
Cd199 O207 2.381 . S
Cd199 O208 2.378 . S
O200 Cd201 2.385 . S
O200 C205 1.255 . S
Cd201 O200 2.385 . S
Cd201 O202 2.317 . S
O202 Cd201 2.317 . S
O202 C203 1.232 . S
C203 O202 1.232 . S
C203 O204 1.218 . S
O204 C203 1.218 . S
C205 O198 1.275 . S
C205 O200 1.255 . S
C206 O207 1.258 . S
C206 O208 1.256 . S
O207 Cd199 2.381 . S
O207 C206 1.258 . S
O208 Cd199 2.378 . S
O208 C206 1.256 . S
O209 Cd210 2.300 1_554 S
O209 C216 1.275 . S
Cd210 O209 2.300 1_556 S
Cd210 O218 2.381 1_556 S
Cd210 O219 2.378 . S
O211 Cd212 2.385 . S
O211 C216 1.255 1_556 S
Cd212 O211 2.385 . S
Cd212 O213 2.317 . S
O213 Cd212 2.317 . S
O213 C214 1.232 . S
C214 O213 1.232 . S
C214 O215 1.218 . S
O215 C214 1.218 . S
C216 O209 1.275 . S
C216 O211 1.255 1_554 S
C217 O218 1.258 1_556 S
C217 O219 1.256 . S
O218 Cd210 2.381 1_554 S
O218 C217 1.258 1_554 S
O219 Cd210 2.378 . S
O219 C217 1.256 . S
O220 Cd221 2.300 . S
O220 C227 1.275 . S
Cd221 O220 2.300 . S
Cd221 O229 2.381 . S
Cd221 O230 2.378 . S
O222 Cd223 2.385 . S
O222 C227 1.255 . S
Cd223 O222 2.385 . S
Cd223 O224 2.317 . S
O224 Cd223 2.317 . S
O224 C225 1.232 . S
C225 O224 1.232 . S
C225 O226 1.218 . S
O226 C225 1.218 . S
C227 O220 1.275 . S
C227 O222 1.255 . S
C228 O229 1.258 . S
C228 O230 1.256 . S
O229 Cd221 2.381 . S
O229 C228 1.258 . S
O230 Cd221 2.378 . S
O230 C228 1.256 . S
O231 Cd232 2.300 1_655 S
O231 C238 1.275 1_655 S
Cd232 O231 2.300 1_455 S
Cd232 O240 2.381 1_455 S
Cd232 O241 2.378 . S
O233 Cd234 2.385 . S
O233 C238 1.255 . S
Cd234 O233 2.385 . S
Cd234 O235 2.317 . S
O235 Cd234 2.317 . S
O235 C236 1.232 . S
C236 O235 1.232 . S
C236 O237 1.218 . S
O237 C236 1.218 . S
C238 O231 1.275 1_455 S
C238 O233 1.255 . S
C239 O240 1.258 1_455 S
C239 O241 1.256 . S
O240 Cd232 2.381 1_655 S
O240 C239 1.258 1_655 S
O241 Cd232 2.378 . S
O241 C239 1.256 . S
O242 Cd243 2.300 . S
O242 C249 1.275 . S
Cd243 O242 2.300 . S
Cd243 O251 2.381 . S
Cd243 O252 2.378 . S
O244 Cd245 2.385 . S
O244 C249 1.255 . S
Cd245 O244 2.385 . S
Cd245 O246 2.317 . S
O246 Cd245 2.317 . S
O246 C247 1.232 . S
C247 O246 1.232 . S
C247 O248 1.218 . S
O248 C247 1.218 . S
C249 O242 1.275 . S
C249 O244 1.255 . S
C250 O251 1.258 . S
C250 O252 1.256 . S
O251 Cd243 2.381 . S
O251 C250 1.258 . S
O252 Cd243 2.378 . S
O252 C250 1.256 . S
O253 Cd254 2.300 1_455 S
O253 C260 1.275 . S
Cd254 O253 2.300 1_655 S
Cd254 O262 2.381 1_655 S
Cd254 O263 2.378 . S
O255 Cd256 2.385 . S
O255 C260 1.255 1_655 S
Cd256 O255 2.385 . S
Cd256 O257 2.317 . S
O257 Cd256 2.317 . S
O257 C258 1.232 . S
C258 O257 1.232 . S
C258 O259 1.218 . S
O259 C258 1.218 . S
C260 O253 1.275 . S
C260 O255 1.255 1_455 S
C261 O262 1.258 1_655 S
C261 O263 1.256 . S
O262 Cd254 2.381 1_455 S
O262 C261 1.258 1_455 S
O263 Cd254 2.378 . S
O263 C261 1.256 . S
H264 C271 0.929 . S
H265 C274 0.930 . S
H266 C276 0.929 . S
H267 C268 0.969 . S
C268 H267 0.969 . S
C268 O269 1.550 . S
C268 H270 0.973 . S
O269 C268 1.550 . S
O269 C275 1.412 . S
H270 C268 0.973 . S
C271 H264 0.929 . S
C271 C272 1.400 . S
C271 C273 1.364 . S
C272 C271 1.400 . S
C272 C276 1.377 . S
C273 C271 1.364 . S
C273 C274 1.374 . S
C274 H265 0.930 . S
C274 C273 1.374 . S
C274 C275 1.383 . S
C275 O269 1.412 . S
C275 C274 1.383 . S
C275 C276 1.394 . S
C276 H266 0.929 . S
C276 C272 1.377 . S
C276 C275 1.394 . S
H277 C284 0.929 . S
H278 C287 0.930 . S
H279 C289 0.929 . S
H280 C281 0.969 . S
C281 H280 0.969 . S
C281 O282 1.550 . S
C281 H283 0.973 . S
O282 C281 1.550 . S
O282 C288 1.412 . S
H283 C281 0.973 . S
C284 H277 0.929 . S
C284 C285 1.400 . S
C284 C286 1.364 . S
C285 C284 1.400 . S
C285 C289 1.377 . S
C286 C284 1.364 . S
C286 C287 1.374 . S
C287 H278 0.930 . S
C287 C286 1.374 . S
C287 C288 1.383 . S
C288 O282 1.412 . S
C288 C287 1.383 . S
C288 C289 1.394 . S
C289 H279 0.929 . S
C289 C285 1.377 . S
C289 C288 1.394 . S
H290 C297 0.929 . S
H291 C300 0.930 . S
H292 C302 0.929 . S
H293 C294 0.969 . S
C294 H293 0.969 . S
C294 O295 1.550 . S
C294 H296 0.973 . S
O295 C294 1.550 . S
O295 C301 1.412 . S
H296 C294 0.973 . S
C297 H290 0.929 . S
C297 C298 1.400 . S
C297 C299 1.364 . S
C298 C297 1.400 . S
C298 C302 1.377 . S
C299 C297 1.364 . S
C299 C300 1.374 1_565 S
C300 H291 0.930 . S
C300 C299 1.374 1_545 S
C300 C301 1.383 . S
C301 O295 1.412 . S
C301 C300 1.383 . S
C301 C302 1.394 1_545 S
C302 H292 0.929 . S
C302 C298 1.377 . S
C302 C301 1.394 1_565 S
H303 C310 0.929 . S
H304 C313 0.930 . S
H305 C315 0.901 1_556 S
H306 C307 0.969 . S
C307 H306 0.969 . S
C307 O308 1.550 . S
C307 H309 0.973 . S
O308 C307 1.550 . S
O308 C314 1.412 . S
H309 C307 0.973 . S
C310 H303 0.929 . S
C310 C311 1.400 . S
C310 C312 1.364 1_545 S
C311 C310 1.400 . S
C311 C315 1.377 1_545 S
C312 C310 1.364 1_565 S
C312 C313 1.374 . S
C313 H304 0.930 . S
C313 C312 1.374 . S
C313 C314 1.383 . S
C314 O308 1.412 . S
C314 C313 1.383 . S
C314 C315 1.394 . S
C315 H305 0.901 1_554 S
C315 C311 1.377 1_565 S
C315 C314 1.394 . S
H316 C323 0.929 . S
H317 C326 0.930 . S
H318 C328 0.929 . S
H319 C320 0.969 . S
C320 H319 0.969 . S
C320 O321 1.550 . S
C320 H322 0.973 . S
O321 C320 1.550 . S
O321 C327 1.412 . S
H322 C320 0.973 . S
C323 H316 0.929 . S
C323 C324 1.400 . S
C323 C325 1.364 . S
C324 C323 1.400 . S
C324 C328 1.377 . S
C325 C323 1.364 . S
C325 C326 1.374 . S
C326 H317 0.930 . S
C326 C325 1.374 . S
C326 C327 1.383 . S
C327 O321 1.412 . S
C327 C326 1.383 . S
C327 C328 1.394 . S
C328 H318 0.929 . S
C328 C324 1.377 . S
C328 C327 1.394 . S
H329 C336 0.929 . S
H330 C339 0.930 . S
H331 C341 0.901 1_655 S
H332 C333 0.969 . S
C333 H332 0.969 . S
C333 O334 1.550 . S
C333 H335 0.973 . S
O334 C333 1.550 . S
O334 C340 1.412 . S
H335 C333 0.973 . S
C336 H329 0.929 . S
C336 C337 1.400 . S
C336 C338 1.364 1_554 S
C337 C336 1.400 . S
C337 C341 1.377 1_554 S
C338 C336 1.364 1_556 S
C338 C339 1.374 . S
C339 H330 0.930 . S
C339 C338 1.374 . S
C339 C340 1.383 . S
C340 O334 1.412 . S
C340 C339 1.383 . S
C340 C341 1.394 . S
C341 H331 0.901 1_455 S
C341 C337 1.377 1_556 S
C341 C340 1.394 . S
H342 C349 0.929 . S
H343 C352 0.930 . S
H344 C354 0.929 . S
H345 C346 0.969 . S
C346 H345 0.969 . S
C346 O347 1.550 . S
C346 H348 0.973 . S
O347 C346 1.550 . S
O347 C353 1.412 . S
H348 C346 0.973 . S
C349 H342 0.929 . S
C349 C350 1.400 . S
C349 C351 1.364 . S
C350 C349 1.400 . S
C350 C354 1.377 . S
C351 C349 1.364 . S
C351 C352 1.374 . S
C352 H343 0.930 . S
C352 C351 1.374 . S
C352 C353 1.383 . S
C353 O347 1.412 . S
C353 C352 1.383 . S
C353 C354 1.394 . S
C354 H344 0.929 . S
C354 C350 1.377 . S
C354 C353 1.394 . S
H355 C362 0.929 . S
H356 C365 0.930 . S
H357 C367 0.929 . S
H358 C359 0.969 . S
C359 H358 0.969 . S
C359 O360 1.550 . S
C359 H361 0.973 . S
O360 C359 1.550 . S
O360 C366 1.412 . S
H361 C359 0.973 . S
C362 H355 0.929 . S
C362 C363 1.400 . S
C362 C364 1.364 . S
C363 C362 1.400 . S
C363 C367 1.377 . S
C364 C362 1.364 . S
C364 C365 1.374 1_556 S
C365 H356 0.930 . S
C365 C364 1.374 1_554 S
C365 C366 1.383 . S
C366 O360 1.412 . S
C366 C365 1.383 . S
C366 C367 1.394 1_554 S
C367 H357 0.929 . S
C367 C363 1.377 . S
C367 C366 1.394 1_556 S
H368 C375 0.929 . S
H369 C378 0.930 . S
H370 C380 0.929 . S
H371 C372 0.969 . S
C372 H371 0.969 . S
C372 O373 1.550 . S
C372 H374 0.973 . S
O373 C372 1.550 . S
O373 C379 1.412 . S
H374 C372 0.973 . S
C375 H368 0.929 . S
C375 C376 1.400 . S
C375 C377 1.364 . S
C376 C375 1.400 . S
C376 C380 1.377 . S
C377 C375 1.364 . S
C377 C378 1.374 . S
C378 H369 0.930 . S
C378 C377 1.374 . S
C378 C379 1.383 . S
C379 O373 1.412 . S
C379 C378 1.383 . S
C379 C380 1.394 . S
C380 H370 0.929 . S
C380 C376 1.377 . S
C380 C379 1.394 . S
H381 C388 0.929 . S
H382 C391 0.930 . S
H383 C393 0.901 1_565 S
H384 C385 0.969 . S
C385 H384 0.969 . S
C385 O386 1.550 . S
C385 H387 0.973 . S
O386 C385 1.550 . S
O386 C392 1.412 . S
H387 C385 0.973 . S
C388 H381 0.929 . S
C388 C389 1.400 . S
C388 C390 1.364 1_455 S
C389 C388 1.400 . S
C389 C393 1.377 1_455 S
C390 C388 1.364 1_655 S
C390 C391 1.374 . S
C391 H382 0.930 . S
C391 C390 1.374 . S
C391 C392 1.383 . S
C392 O386 1.412 . S
C392 C391 1.383 . S
C392 C393 1.394 . S
C393 H383 0.901 1_545 S
C393 C389 1.377 1_655 S
C393 C392 1.394 . S
H394 C401 0.929 . S
H395 C404 0.930 . S
H396 C406 0.929 . S
H397 C398 0.969 . S
C398 H397 0.969 . S
C398 O399 1.550 . S
C398 H400 0.973 . S
O399 C398 1.550 . S
O399 C405 1.412 . S
H400 C398 0.973 . S
C401 H394 0.929 . S
C401 C402 1.400 . S
C401 C403 1.364 . S
C402 C401 1.400 . S
C402 C406 1.377 . S
C403 C401 1.364 . S
C403 C404 1.374 . S
C404 H395 0.930 . S
C404 C403 1.374 . S
C404 C405 1.383 . S
C405 O399 1.412 . S
C405 C404 1.383 . S
C405 C406 1.394 . S
C406 H396 0.929 . S
C406 C402 1.377 . S
C406 C405 1.394 . S
H407 C414 0.929 . S
H408 C417 0.930 . S
H409 C419 0.929 . S
H410 C411 0.969 . S
C411 H410 0.969 . S
C411 O412 1.550 . S
C411 H413 0.973 . S
O412 C411 1.550 . S
O412 C418 1.412 . S
H413 C411 0.973 . S
C414 H407 0.929 . S
C414 C415 1.400 . S
C414 C416 1.364 . S
C415 C414 1.400 . S
C415 C419 1.377 . S
C416 C414 1.364 . S
C416 C417 1.374 1_655 S
C417 H408 0.930 . S
C417 C416 1.374 1_455 S
C417 C418 1.383 . S
C418 O412 1.412 . S
C418 C417 1.383 . S
C418 C419 1.394 1_455 S
C419 H409 0.929 . S
C419 C415 1.377 . S
C419 C418 1.394 1_655 S
H420 C427 0.929 . S
H421 C430 0.930 . S
H422 C432 0.929 . S
H423 C424 0.969 . S
C424 H423 0.969 . S
C424 O425 1.550 . S
C424 H426 0.973 . S
O425 C424 1.550 . S
O425 C431 1.412 . S
H426 C424 0.973 . S
C427 H420 0.929 . S
C427 C428 1.400 . S
C427 C429 1.364 . S
C428 C427 1.400 . S
C428 C432 1.377 . S
C429 C427 1.364 . S
C429 C430 1.374 . S
C430 H421 0.930 . S
C430 C429 1.374 . S
C430 C431 1.383 . S
C431 O425 1.412 . S
C431 C430 1.383 . S
C431 C432 1.394 . S
C432 H422 0.929 . S
C432 C428 1.377 . S
C432 C431 1.394 . S
H433 C440 0.929 . S
H434 C443 0.930 . S
H435 C445 0.929 . S
H436 C437 0.969 . S
C437 H436 0.969 . S
C437 O438 1.550 . S
C437 H439 0.973 . S
O438 C437 1.550 . S
O438 C444 1.412 . S
H439 C437 0.973 . S
C440 H433 0.929 . S
C440 C441 1.400 . S
C440 C442 1.364 . S
C441 C440 1.400 . S
C441 C445 1.377 . S
C442 C440 1.364 . S
C442 C443 1.374 . S
C443 H434 0.930 . S
C443 C442 1.374 . S
C443 C444 1.383 . S
C444 O438 1.412 . S
C444 C443 1.383 . S
C444 C445 1.394 . S
C445 H435 0.929 . S
C445 C441 1.377 . S
C445 C444 1.394 . S
H446 C453 0.929 . S
H447 C456 0.930 . S
H448 C458 0.929 . S
H449 C450 0.969 . S
C450 H449 0.969 . S
C450 O451 1.550 . S
C450 H452 0.973 . S
O451 C450 1.550 . S
O451 C457 1.412 . S
H452 C450 0.973 . S
C453 H446 0.929 . S
C453 C454 1.400 . S
C453 C455 1.364 . S
C454 C453 1.400 . S
C454 C458 1.377 . S
C455 C453 1.364 . S
C455 C456 1.374 1_545 S
C456 H447 0.930 . S
C456 C455 1.374 1_565 S
C456 C457 1.383 . S
C457 O451 1.412 . S
C457 C456 1.383 . S
C457 C458 1.394 1_565 S
C458 H448 0.929 . S
C458 C454 1.377 . S
C458 C457 1.394 1_545 S
H459 C466 0.929 . S
H460 C469 0.930 . S
H461 C471 0.909 1_554 S
H462 C463 0.969 . S
C463 H462 0.969 . S
C463 O464 1.550 . S
C463 H465 0.973 . S
O464 C463 1.550 . S
O464 C470 1.412 . S
H465 C463 0.973 . S
C466 H459 0.929 . S
C466 C467 1.400 . S
C466 C468 1.364 1_565 S
C467 C466 1.400 . S
C467 C471 1.377 1_565 S
C468 C466 1.364 1_545 S
C468 C469 1.374 . S
C469 H460 0.930 . S
C469 C468 1.374 . S
C469 C470 1.383 . S
C470 O464 1.412 . S
C470 C469 1.383 . S
C470 C471 1.394 . S
C471 H461 0.909 1_556 S
C471 C467 1.377 1_545 S
C471 C470 1.394 . S
H472 C479 0.929 . S
H473 C482 0.930 . S
H474 C484 0.929 . S
H475 C476 0.969 . S
C476 H475 0.969 . S
C476 O477 1.550 . S
C476 H478 0.973 . S
O477 C476 1.550 . S
O477 C483 1.412 . S
H478 C476 0.973 . S
C479 H472 0.929 . S
C479 C480 1.400 . S
C479 C481 1.364 . S
C480 C479 1.400 . S
C480 C484 1.377 . S
C481 C479 1.364 . S
C481 C482 1.374 . S
C482 H473 0.930 . S
C482 C481 1.374 . S
C482 C483 1.383 . S
C483 O477 1.412 . S
C483 C482 1.383 . S
C483 C484 1.394 . S
C484 H474 0.929 . S
C484 C480 1.377 . S
C484 C483 1.394 . S
H485 C492 0.929 . S
H486 C495 0.930 . S
H487 C497 0.909 1_455 S
H488 C489 0.969 . S
C489 H488 0.969 . S
C489 O490 1.550 . S
C489 H491 0.973 . S
O490 C489 1.550 . S
O490 C496 1.412 . S
H491 C489 0.973 . S
C492 H485 0.929 . S
C492 C493 1.400 . S
C492 C494 1.364 1_556 S
C493 C492 1.400 . S
C493 C497 1.377 1_556 S
C494 C492 1.364 1_554 S
C494 C495 1.374 . S
C495 H486 0.930 . S
C495 C494 1.374 . S
C495 C496 1.383 . S
C496 O490 1.412 . S
C496 C495 1.383 . S
C496 C497 1.394 . S
C497 H487 0.909 1_655 S
C497 C493 1.377 1_554 S
C497 C496 1.394 . S
H498 C505 0.929 . S
H499 C508 0.930 . S
H500 C510 0.929 . S
H501 C502 0.969 . S
C502 H501 0.969 . S
C502 O503 1.550 . S
C502 H504 0.973 . S
O503 C502 1.550 . S
O503 C509 1.412 . S
H504 C502 0.973 . S
C505 H498 0.929 . S
C505 C506 1.400 . S
C505 C507 1.364 . S
C506 C505 1.400 . S
C506 C510 1.377 . S
C507 C505 1.364 . S
C507 C508 1.374 . S
C508 H499 0.930 . S
C508 C507 1.374 . S
C508 C509 1.383 . S
C509 O503 1.412 . S
C509 C508 1.383 . S
C509 C510 1.394 . S
C510 H500 0.929 . S
C510 C506 1.377 . S
C510 C509 1.394 . S
H511 C518 0.929 . S
H512 C521 0.930 . S
H513 C523 0.929 . S
H514 C515 0.969 . S
C515 H514 0.969 . S
C515 O516 1.550 . S
C515 H517 0.973 . S
O516 C515 1.550 . S
O516 C522 1.412 . S
H517 C515 0.973 . S
C518 H511 0.929 . S
C518 C519 1.400 . S
C518 C520 1.364 . S
C519 C518 1.400 . S
C519 C523 1.377 . S
C520 C518 1.364 . S
C520 C521 1.374 1_554 S
C521 H512 0.930 . S
C521 C520 1.374 1_556 S
C521 C522 1.383 . S
C522 O516 1.412 . S
C522 C521 1.383 . S
C522 C523 1.394 1_556 S
C523 H513 0.929 . S
C523 C519 1.377 . S
C523 C522 1.394 1_554 S
H524 C531 0.929 . S
H525 C534 0.930 . S
H526 C536 0.929 . S
H527 C528 0.969 . S
C528 H527 0.969 . S
C528 O529 1.550 . S
C528 H530 0.973 . S
O529 C528 1.550 . S
O529 C535 1.412 . S
H530 C528 0.973 . S
C531 H524 0.929 . S
C531 C532 1.400 . S
C531 C533 1.364 . S
C532 C531 1.400 . S
C532 C536 1.377 . S
C533 C531 1.364 . S
C533 C534 1.374 . S
C534 H525 0.930 . S
C534 C533 1.374 . S
C534 C535 1.383 . S
C535 O529 1.412 . S
C535 C534 1.383 . S
C535 C536 1.394 . S
C536 H526 0.929 . S
C536 C532 1.377 . S
C536 C535 1.394 . S
H537 C544 0.929 . S
H538 C547 0.930 . S
H539 C549 0.909 1_545 S
H540 C541 0.969 . S
C541 H540 0.969 . S
C541 O542 1.550 . S
C541 H543 0.973 . S
O542 C541 1.550 . S
O542 C548 1.412 . S
H543 C541 0.973 . S
C544 H537 0.929 . S
C544 C545 1.400 . S
C544 C546 1.364 1_655 S
C545 C544 1.400 . S
C545 C549 1.377 1_655 S
C546 C544 1.364 1_455 S
C546 C547 1.374 . S
C547 H538 0.930 . S
C547 C546 1.374 . S
C547 C548 1.383 . S
C548 O542 1.412 . S
C548 C547 1.383 . S
C548 C549 1.394 . S
C549 H539 0.909 1_565 S
C549 C545 1.377 1_455 S
C549 C548 1.394 . S
H550 C557 0.929 . S
H551 C560 0.930 . S
H552 C562 0.929 . S
H553 C554 0.969 . S
C554 H553 0.969 . S
C554 O555 1.550 . S
C554 H556 0.973 . S
O555 C554 1.550 . S
O555 C561 1.412 . S
H556 C554 0.973 . S
C557 H550 0.929 . S
C557 C558 1.400 . S
C557 C559 1.364 . S
C558 C557 1.400 . S
C558 C562 1.377 . S
C559 C557 1.364 . S
C559 C560 1.374 . S
C560 H551 0.930 . S
C560 C559 1.374 . S
C560 C561 1.383 . S
C561 O555 1.412 . S
C561 C560 1.383 . S
C561 C562 1.394 . S
C562 H552 0.929 . S
C562 C558 1.377 . S
C562 C561 1.394 . S
H563 C570 0.929 . S
H564 C573 0.930 . S
H565 C575 0.929 . S
H566 C567 0.969 . S
C567 H566 0.969 . S
C567 O568 1.550 . S
C567 H569 0.973 . S
O568 C567 1.550 . S
O568 C574 1.412 . S
H569 C567 0.973 . S
C570 H563 0.929 . S
C570 C571 1.400 . S
C570 C572 1.364 . S
C571 C570 1.400 . S
C571 C575 1.377 . S
C572 C570 1.364 . S
C572 C573 1.374 1_455 S
C573 H564 0.930 . S
C573 C572 1.374 1_655 S
C573 C574 1.383 . S
C574 O568 1.412 . S
C574 C573 1.383 . S
C574 C575 1.394 1_655 S
C575 H565 0.929 . S
C575 C571 1.377 . S
C575 C574 1.394 1_455 S
C576 C577 1.363 . S
C576 C582 1.379 . S
C576 N584 1.356 . S
C577 C576 1.363 . S
C577 C583 1.363 . S
C578 C579 1.363 . S
C578 C583 1.379 . S
C578 N585 1.356 . S
C579 C578 1.363 . S
C579 C582 1.363 . S
N580 C582 1.356 . S
N580 H592 0.984 . S
N580 H593 0.985 . S
N581 C583 1.356 . S
N581 H586 0.984 . S
N581 H587 0.985 . S
C582 C576 1.379 . S
C582 C579 1.363 . S
C582 N580 1.356 . S
C583 C577 1.363 . S
C583 C578 1.379 . S
C583 N581 1.356 . S
N584 C576 1.356 . S
N584 H590 0.984 . S
N584 H591 0.984 . S
N585 C578 1.356 . S
N585 H588 0.984 . S
N585 H589 0.985 . S
H586 N581 0.984 . S
H587 N581 0.985 . S
H588 N585 0.984 . S
H589 N585 0.985 . S
H590 N584 0.984 . S
H591 N584 0.984 . S
H592 N580 0.984 . S
H593 N580 0.985 . S
C594 C595 1.363 . S
C594 C600 1.379 . S
C594 N602 1.356 . S
C595 C594 1.363 . S
C595 C601 1.363 . S
C596 C597 1.363 . S
C596 C601 1.379 . S
C596 N603 1.356 . S
C597 C596 1.363 . S
C597 C600 1.363 . S
N598 C600 1.356 . S
N598 H610 0.984 . S
N598 H611 0.985 . S
N599 C601 1.356 . S
N599 H604 0.984 . S
N599 H605 0.985 . S
C600 C594 1.379 . S
C600 C597 1.363 . S
C600 N598 1.356 . S
C601 C595 1.363 . S
C601 C596 1.379 . S
C601 N599 1.356 . S
N602 C594 1.356 . S
N602 H608 0.984 . S
N602 H609 0.984 . S
N603 C596 1.356 . S
N603 H606 0.984 . S
N603 H607 0.985 . S
H604 N599 0.984 . S
H605 N599 0.985 . S
H606 N603 0.984 . S
H607 N603 0.985 . S
H608 N602 0.984 . S
H609 N602 0.984 . S
H610 N598 0.984 . S
H611 N598 0.985 . S
C612 C613 1.363 . S
C612 C618 1.379 . S
C612 N620 1.356 . S
C613 C612 1.363 . S
C613 C619 1.363 1_545 S
C614 C615 1.363 1_565 S
C614 C619 1.379 . S
C614 N621 1.356 . S
C615 C614 1.363 1_545 S
C615 C618 1.363 . S
N616 C618 1.356 . S
N616 H628 0.984 . S
N616 H629 0.985 . S
N617 C619 1.356 . S
N617 H622 0.984 . S
N617 H623 0.985 . S
C618 C612 1.379 . S
C618 C615 1.363 . S
C618 N616 1.356 . S
C619 C613 1.363 1_565 S
C619 C614 1.379 . S
C619 N617 1.356 . S
N620 C612 1.356 . S
N620 H626 0.984 . S
N620 H627 0.984 . S
N621 C614 1.356 . S
N621 H624 0.984 . S
N621 H625 0.985 . S
H622 N617 0.984 . S
H623 N617 0.985 . S
H624 N621 0.984 . S
H625 N621 0.985 . S
H626 N620 0.984 . S
H627 N620 0.984 . S
H628 N616 0.984 . S
H629 N616 0.985 . S
C630 C631 1.363 . S
C630 C636 1.379 . S
C630 N638 1.356 . S
C631 C630 1.363 . S
C631 C637 1.363 1_565 S
C632 C633 1.363 . S
C632 C637 1.379 1_565 S
C632 N639 1.356 . S
C633 C632 1.363 . S
C633 C636 1.363 . S
N634 C636 1.356 . S
N634 H646 0.984 . S
N634 H647 0.985 . S
N635 C637 1.356 . S
N635 H640 0.984 . S
N635 H641 0.985 . S
C636 C630 1.379 . S
C636 C633 1.363 . S
C636 N634 1.356 . S
C637 C631 1.363 1_545 S
C637 C632 1.379 1_545 S
C637 N635 1.356 . S
N638 C630 1.356 . S
N638 H644 0.984 . S
N638 H645 0.984 . S
N639 C632 1.356 . S
N639 H642 0.984 . S
N639 H643 0.985 1_565 S
H640 N635 0.984 . S
H641 N635 0.985 . S
H642 N639 0.984 . S
H643 N639 0.985 1_545 S
H644 N638 0.984 . S
H645 N638 0.984 . S
H646 N634 0.984 . S
H647 N634 0.985 . S
C648 C649 1.363 . S
C648 C654 1.379 . S
C648 N656 1.356 . S
C649 C648 1.363 . S
C649 C655 1.363 . S
C650 C651 1.363 . S
C650 C655 1.379 . S
C650 N657 1.356 . S
C651 C650 1.363 . S
C651 C654 1.363 . S
N652 C654 1.356 . S
N652 H664 0.984 . S
N652 H665 0.985 . S
N653 C655 1.356 . S
N653 H658 0.984 . S
N653 H659 0.985 . S
C654 C648 1.379 . S
C654 C651 1.363 . S
C654 N652 1.356 . S
C655 C649 1.363 . S
C655 C650 1.379 . S
C655 N653 1.356 . S
N656 C648 1.356 . S
N656 H662 0.984 . S
N656 H663 0.984 . S
N657 C650 1.356 . S
N657 H660 0.984 . S
N657 H661 0.985 . S
H658 N653 0.984 . S
H659 N653 0.985 . S
H660 N657 0.984 . S
H661 N657 0.985 . S
H662 N656 0.984 . S
H663 N656 0.984 . S
H664 N652 0.984 . S
H665 N652 0.985 . S
C666 C667 1.363 . S
C666 C672 1.379 . S
C666 N674 1.356 . S
C667 C666 1.363 . S
C667 C673 1.363 1_556 S
C668 C669 1.363 1_554 S
C668 C673 1.379 . S
C668 N675 1.356 . S
C669 C668 1.363 1_556 S
C669 C672 1.363 . S
N670 C672 1.356 . S
N670 H682 0.984 . S
N670 H683 0.985 . S
N671 C673 1.356 . S
N671 H676 0.984 . S
N671 H677 0.985 . S
C672 C666 1.379 . S
C672 C669 1.363 . S
C672 N670 1.356 . S
C673 C667 1.363 1_554 S
C673 C668 1.379 . S
C673 N671 1.356 . S
N674 C666 1.356 . S
N674 H680 0.984 . S
N674 H681 0.984 . S
N675 C668 1.356 . S
N675 H678 0.984 . S
N675 H679 0.985 . S
H676 N671 0.984 . S
H677 N671 0.985 . S
H678 N675 0.984 . S
H679 N675 0.985 . S
H680 N674 0.984 . S
H681 N674 0.984 . S
H682 N670 0.984 . S
H683 N670 0.985 . S
C684 C685 1.363 . S
C684 C690 1.379 . S
C684 N692 1.356 . S
C685 C684 1.363 . S
C685 C691 1.363 . S
C686 C687 1.363 . S
C686 C691 1.379 . S
C686 N693 1.356 . S
C687 C686 1.363 . S
C687 C690 1.363 . S
N688 C690 1.356 . S
N688 H700 0.984 . S
N688 H701 0.985 . S
N689 C691 1.356 . S
N689 H694 0.984 . S
N689 H695 0.985 . S
C690 C684 1.379 . S
C690 C687 1.363 . S
C690 N688 1.356 . S
C691 C685 1.363 . S
C691 C686 1.379 . S
C691 N689 1.356 . S
N692 C684 1.356 . S
N692 H698 0.984 . S
N692 H699 0.984 . S
N693 C686 1.356 . S
N693 H696 0.984 . S
N693 H697 0.985 . S
H694 N689 0.984 . S
H695 N689 0.985 . S
H696 N693 0.984 . S
H697 N693 0.985 . S
H698 N692 0.984 . S
H699 N692 0.984 . S
H700 N688 0.984 . S
H701 N688 0.985 . S
C702 C703 1.363 . S
C702 C708 1.379 . S
C702 N710 1.356 . S
C703 C702 1.363 . S
C703 C709 1.372 . S
C704 C705 1.363 . S
C704 C709 1.386 . S
C704 N711 1.356 . S
C705 C704 1.363 . S
C705 C708 1.363 . S
N706 C708 1.356 . S
N706 H718 0.984 . S
N706 H719 0.985 . S
N707 C709 1.342 1_556 S
N707 H712 0.984 . S
N707 H713 0.985 . S
C708 C702 1.379 . S
C708 C705 1.363 . S
C708 N706 1.356 . S
C709 C703 1.372 . S
C709 C704 1.386 . S
C709 N707 1.342 1_554 S
N710 C702 1.356 . S
N710 H716 0.984 . S
N710 H717 0.984 . S
N711 C704 1.356 . S
N711 H714 0.984 . S
N711 H715 0.985 1_554 S
H712 N707 0.984 . S
H713 N707 0.985 . S
H714 N711 0.984 . S
H715 N711 0.985 1_556 S
H716 N710 0.984 . S
H717 N710 0.984 . S
H718 N706 0.984 . S
H719 N706 0.985 . S
C720 C721 1.363 . S
C720 C726 1.379 . S
C720 N728 1.356 . S
C721 C720 1.363 . S
C721 C727 1.363 . S
C722 C723 1.363 . S
C722 C727 1.379 . S
C722 N729 1.356 . S
C723 C722 1.363 . S
C723 C726 1.363 . S
N724 C726 1.356 . S
N724 H736 0.984 . S
N724 H737 0.985 . S
N725 C727 1.356 . S
N725 H730 0.984 . S
N725 H731 0.985 . S
C726 C720 1.379 . S
C726 C723 1.363 . S
C726 N724 1.356 . S
C727 C721 1.363 . S
C727 C722 1.379 . S
C727 N725 1.356 . S
N728 C720 1.356 . S
N728 H734 0.984 . S
N728 H735 0.984 . S
N729 C722 1.356 . S
N729 H732 0.984 . S
N729 H733 0.985 . S
H730 N725 0.984 . S
H731 N725 0.985 . S
H732 N729 0.984 . S
H733 N729 0.985 . S
H734 N728 0.984 . S
H735 N728 0.984 . S
H736 N724 0.984 . S
H737 N724 0.985 . S
C738 C739 1.363 1_455 S
C738 C744 1.379 1_455 S
C738 N746 1.356 . S
C739 C738 1.363 1_655 S
C739 C745 1.363 . S
C740 C741 1.363 . S
C740 C745 1.379 . S
C740 N747 1.356 . S
C741 C740 1.363 . S
C741 C744 1.363 . S
N742 C744 1.356 . S
N742 H754 0.984 1_655 S
N742 H755 0.985 . S
N743 C745 1.356 . S
N743 H748 0.984 . S
N743 H749 0.985 . S
C744 C738 1.379 1_655 S
C744 C741 1.363 . S
C744 N742 1.356 . S
C745 C739 1.363 . S
C745 C740 1.379 . S
C745 N743 1.356 . S
N746 C738 1.356 . S
N746 H752 0.984 . S
N746 H753 0.984 . S
N747 C740 1.356 . S
N747 H750 0.984 . S
N747 H751 0.985 . S
H748 N743 0.984 . S
H749 N743 0.985 . S
H750 N747 0.984 . S
H751 N747 0.985 . S
H752 N746 0.984 . S
H753 N746 0.984 . S
H754 N742 0.984 1_455 S
H755 N742 0.985 . S
C756 C757 1.363 . S
C756 C762 1.379 . S
C756 N764 1.356 . S
C757 C756 1.363 . S
C757 C763 1.363 . S
C758 C759 1.363 . S
C758 C763 1.379 . S
C758 N765 1.356 . S
C759 C758 1.363 . S
C759 C762 1.363 . S
N760 C762 1.356 . S
N760 H772 0.984 . S
N760 H773 0.985 . S
N761 C763 1.356 . S
N761 H766 0.984 . S
N761 H767 0.985 . S
C762 C756 1.379 . S
C762 C759 1.363 . S
C762 N760 1.356 . S
C763 C757 1.363 . S
C763 C758 1.379 . S
C763 N761 1.356 . S
N764 C756 1.356 . S
N764 H770 0.984 . S
N764 H771 0.984 . S
N765 C758 1.356 . S
N765 H768 0.984 . S
N765 H769 0.985 . S
H766 N761 0.984 . S
H767 N761 0.985 . S
H768 N765 0.984 . S
H769 N765 0.985 . S
H770 N764 0.984 . S
H771 N764 0.984 . S
H772 N760 0.984 . S
H773 N760 0.985 . S
C774 C775 1.363 . S
C774 C780 1.379 . S
C774 N782 1.356 1_455 S
C775 C774 1.363 . S
C775 C781 1.363 . S
C776 C777 1.363 . S
C776 C781 1.379 . S
C776 N783 1.356 . S
C777 C776 1.363 . S
C777 C780 1.363 . S
N778 C780 1.356 . S
N778 H790 0.984 . S
N778 H791 0.985 . S
N779 C781 1.356 . S
N779 H784 0.984 . S
N779 H785 0.985 . S
C780 C774 1.379 . S
C780 C777 1.363 . S
C780 N778 1.356 . S
C781 C775 1.363 . S
C781 C776 1.379 . S
C781 N779 1.356 . S
N782 C774 1.356 1_655 S
N782 H788 0.984 . S
N782 H789 0.984 . S
N783 C776 1.356 . S
N783 H786 0.984 . S
N783 H787 0.985 . S
H784 N779 0.984 . S
H785 N779 0.985 . S
H786 N783 0.984 . S
H787 N783 0.985 . S
H788 N782 0.984 . S
H789 N782 0.984 . S
H790 N778 0.984 . S
H791 N778 0.985 . S
C792 C793 1.363 . S
C792 C798 1.379 . S
C792 N800 1.356 . S
C793 C792 1.363 . S
C793 C799 1.363 . S
C794 C795 1.363 . S
C794 C799 1.379 . S
C794 N801 1.356 . S
C795 C794 1.363 . S
C795 C798 1.363 . S
N796 C798 1.356 . S
N796 H808 0.984 . S
N796 H809 0.985 . S
N797 C799 1.356 . S
N797 H802 0.984 . S
N797 H803 0.985 . S
C798 C792 1.379 . S
C798 C795 1.363 . S
C798 N796 1.356 . S
C799 C793 1.363 . S
C799 C794 1.379 . S
C799 N797 1.356 . S
N800 C792 1.356 . S
N800 H806 0.984 . S
N800 H807 0.984 . S
N801 C794 1.356 . S
N801 H804 0.984 . S
N801 H805 0.985 . S
H802 N797 0.984 . S
H803 N797 0.985 . S
H804 N801 0.984 . S
H805 N801 0.985 . S
H806 N800 0.984 . S
H807 N800 0.984 . S
H808 N796 0.984 . S
H809 N796 0.985 . S
C810 C811 1.363 . S
C810 C816 1.379 . S
C810 N818 1.356 . S
C811 C810 1.363 . S
C811 C817 1.363 . S
C812 C813 1.363 . S
C812 C817 1.379 . S
C812 N819 1.356 . S
C813 C812 1.363 . S
C813 C816 1.363 . S
N814 C816 1.356 . S
N814 H826 0.984 . S
N814 H827 0.985 . S
N815 C817 1.356 . S
N815 H820 0.984 . S
N815 H821 0.985 . S
C816 C810 1.379 . S
C816 C813 1.363 . S
C816 N814 1.356 . S
C817 C811 1.363 . S
C817 C812 1.379 . S
C817 N815 1.356 . S
N818 C810 1.356 . S
N818 H824 0.984 . S
N818 H825 0.984 . S
N819 C812 1.356 . S
N819 H822 0.984 . S
N819 H823 0.985 . S
H820 N815 0.984 . S
H821 N815 0.985 . S
H822 N819 0.984 . S
H823 N819 0.985 . S
H824 N818 0.984 . S
H825 N818 0.984 . S
H826 N814 0.984 . S
H827 N814 0.985 . S
C828 C829 1.363 . S
C828 C834 1.379 . S
C828 N836 1.356 . S
C829 C828 1.363 . S
C829 C835 1.363 . S
C830 C831 1.363 . S
C830 C835 1.379 . S
C830 N837 1.356 . S
C831 C830 1.363 . S
C831 C834 1.363 . S
N832 C834 1.356 . S
N832 H844 0.984 . S
N832 H845 0.985 . S
N833 C835 1.356 . S
N833 H838 0.982 1_565 S
N833 H839 0.985 . S
C834 C828 1.379 . S
C834 C831 1.363 . S
C834 N832 1.356 . S
C835 C829 1.363 . S
C835 C830 1.379 . S
C835 N833 1.356 . S
N836 C828 1.356 . S
N836 H842 0.984 . S
N836 H843 0.984 . S
N837 C830 1.356 . S
N837 H840 0.984 . S
N837 H841 0.985 . S
H838 N833 0.982 1_545 S
H839 N833 0.985 . S
H840 N837 0.984 . S
H841 N837 0.985 . S
H842 N836 0.984 . S
H843 N836 0.984 . S
H844 N832 0.984 . S
H845 N832 0.985 . S
C846 C847 1.363 . S
C846 C852 1.379 . S
C846 N854 1.356 . S
C847 C846 1.363 . S
C847 C853 1.363 1_545 S
C848 C849 1.343 1_565 S
C848 C853 1.387 . S
C848 N855 1.363 . S
C849 C848 1.343 1_545 S
C849 C852 1.363 . S
N850 C852 1.356 . S
N850 H862 0.984 . S
N850 H863 0.985 . S
N851 C853 1.356 . S
N851 H856 0.984 . S
N851 H857 0.985 . S
C852 C846 1.379 . S
C852 C849 1.363 . S
C852 N850 1.356 . S
C853 C847 1.363 1_565 S
C853 C848 1.387 . S
C853 N851 1.356 . S
N854 C846 1.356 . S
N854 H860 0.984 . S
N854 H861 0.984 . S
N855 C848 1.363 . S
N855 H858 0.969 1_565 S
N855 H859 0.985 . S
H856 N851 0.984 . S
H857 N851 0.985 . S
H858 N855 0.969 1_545 S
H859 N855 0.985 . S
H860 N854 0.984 . S
H861 N854 0.984 . S
H862 N850 0.984 . S
H863 N850 0.985 . S
C864 C865 1.363 . S
C864 C870 1.379 . S
C864 N872 1.356 . S
C865 C864 1.363 . S
C865 C871 1.363 . S
C866 C867 1.363 . S
C866 C871 1.379 . S
C866 N873 1.356 . S
C867 C866 1.363 . S
C867 C870 1.363 . S
N868 C870 1.356 . S
N868 H880 0.984 . S
N868 H881 0.985 . S
N869 C871 1.356 . S
N869 H874 0.984 . S
N869 H875 0.985 . S
C870 C864 1.379 . S
C870 C867 1.363 . S
C870 N868 1.356 . S
C871 C865 1.363 . S
C871 C866 1.379 . S
C871 N869 1.356 . S
N872 C864 1.356 . S
N872 H878 0.984 . S
N872 H879 0.984 . S
N873 C866 1.356 . S
N873 H876 0.984 . S
N873 H877 0.985 . S
H874 N869 0.984 . S
H875 N869 0.985 . S
H876 N873 0.984 . S
H877 N873 0.985 . S
H878 N872 0.984 . S
H879 N872 0.984 . S
H880 N868 0.984 . S
H881 N868 0.985 . S
C882 C883 1.363 . S
C882 C888 1.379 . S
C882 N890 1.356 . S
C883 C882 1.363 . S
C883 C889 1.363 1_554 S
C884 C885 1.363 . S
C884 C889 1.379 1_554 S
C884 N891 1.356 1_554 S
C885 C884 1.363 . S
C885 C888 1.363 . S
N886 C888 1.356 . S
N886 H898 0.984 . S
N886 H899 0.985 . S
N887 C889 1.356 . S
N887 H892 0.984 . S
N887 H893 0.985 . S
C888 C882 1.379 . S
C888 C885 1.363 . S
C888 N886 1.356 . S
C889 C883 1.363 1_556 S
C889 C884 1.379 1_556 S
C889 N887 1.356 . S
N890 C882 1.356 . S
N890 H896 0.984 . S
N890 H897 0.984 . S
N891 C884 1.356 1_556 S
N891 H894 0.984 1_556 S
N891 H895 0.985 . S
H892 N887 0.984 . S
H893 N887 0.985 . S
H894 N891 0.984 1_554 S
H895 N891 0.985 . S
H896 N890 0.984 . S
H897 N890 0.984 . S
H898 N886 0.984 . S
H899 N886 0.985 . S
C900 C901 1.363 . S
C900 C906 1.379 . S
C900 N908 1.356 . S
C901 C900 1.363 . S
C901 C907 1.363 . S
C902 C903 1.363 . S
C902 C907 1.379 . S
C902 N909 1.356 . S
C903 C902 1.363 . S
C903 C906 1.363 . S
N904 C906 1.356 . S
N904 H916 0.984 . S
N904 H917 0.985 . S
N905 C907 1.356 . S
N905 H910 0.984 . S
N905 H911 0.985 . S
C906 C900 1.379 . S
C906 C903 1.363 . S
C906 N904 1.356 . S
C907 C901 1.363 . S
C907 C902 1.379 . S
C907 N905 1.356 . S
N908 C900 1.356 . S
N908 H914 0.984 . S
N908 H915 0.984 . S
N909 C902 1.356 . S
N909 H912 0.984 . S
N909 H913 0.985 . S
H910 N905 0.984 . S
H911 N905 0.985 . S
H912 N909 0.984 . S
H913 N909 0.985 . S
H914 N908 0.984 . S
H915 N908 0.984 . S
H916 N904 0.984 . S
H917 N904 0.985 . S
C918 C919 1.363 1_554 S
C918 C924 1.379 1_554 S
C918 N926 1.356 . S
C919 C918 1.363 1_556 S
C919 C925 1.363 . S
C920 C921 1.363 . S
C920 C925 1.379 . S
C920 N927 1.356 . S
C921 C920 1.363 . S
C921 C924 1.363 . S
N922 C924 1.356 1_554 S
N922 H934 0.984 . S
N922 H935 0.985 1_554 S
N923 C925 1.356 . S
N923 H928 0.984 . S
N923 H929 0.985 . S
C924 C918 1.379 1_556 S
C924 C921 1.363 . S
C924 N922 1.356 1_556 S
C925 C919 1.363 . S
C925 C920 1.379 . S
C925 N923 1.356 . S
N926 C918 1.356 . S
N926 H932 0.984 . S
N926 H933 0.984 . S
N927 C920 1.356 . S
N927 H930 0.984 . S
N927 H931 0.985 . S
H928 N923 0.984 . S
H929 N923 0.985 . S
H930 N927 0.984 . S
H931 N927 0.985 . S
H932 N926 0.984 . S
H933 N926 0.984 . S
H934 N922 0.984 . S
H935 N922 0.985 1_556 S
C936 C937 1.363 . S
C936 C942 1.379 . S
C936 N944 1.356 . S
C937 C936 1.363 . S
C937 C943 1.363 . S
C938 C939 1.363 . S
C938 C943 1.379 . S
C938 N945 1.356 . S
C939 C938 1.363 . S
C939 C942 1.363 . S
N940 C942 1.356 . S
N940 H952 0.984 . S
N940 H953 0.985 . S
N941 C943 1.356 . S
N941 H946 0.984 . S
N941 H947 0.985 . S
C942 C936 1.379 . S
C942 C939 1.363 . S
C942 N940 1.356 . S
C943 C937 1.363 . S
C943 C938 1.379 . S
C943 N941 1.356 . S
N944 C936 1.356 . S
N944 H950 0.984 . S
N944 H951 0.984 . S
N945 C938 1.356 . S
N945 H948 0.984 . S
N945 H949 0.985 . S
H946 N941 0.984 . S
H947 N941 0.985 . S
H948 N945 0.984 . S
H949 N945 0.985 . S
H950 N944 0.984 . S
H951 N944 0.984 . S
H952 N940 0.984 . S
H953 N940 0.985 . S
C954 C955 1.363 . S
C954 C960 1.379 . S
C954 N962 1.356 . S
C955 C954 1.363 . S
C955 C961 1.363 1_455 S
C956 C957 1.363 . S
C956 C961 1.379 1_455 S
C956 N963 1.351 1_455 S
C957 C956 1.363 . S
C957 C960 1.363 . S
N958 C960 1.356 . S
N958 H970 0.984 . S
N958 H971 0.985 . S
N959 C961 1.356 . S
N959 H964 0.984 . S
N959 H965 0.985 . S
C960 C954 1.379 . S
C960 C957 1.363 . S
C960 N958 1.356 . S
C961 C955 1.363 1_655 S
C961 C956 1.379 1_655 S
C961 N959 1.356 . S
N962 C954 1.356 . S
N962 H968 0.984 . S
N962 H969 0.984 . S
N963 C956 1.351 1_655 S
N963 H966 0.969 1_655 S
N963 H967 1.006 . S
H964 N959 0.984 . S
H965 N959 0.985 . S
H966 N963 0.969 1_455 S
H967 N963 1.006 . S
H968 N962 0.984 . S
H969 N962 0.984 . S
H970 N958 0.984 . S
H971 N958 0.985 . S
C972 C973 1.363 . S
C972 C978 1.379 . S
C972 N980 1.356 . S
C973 C972 1.363 . S
C973 C979 1.363 . S
C974 C975 1.363 . S
C974 C979 1.379 . S
C974 N981 1.356 . S
C975 C974 1.363 . S
C975 C978 1.363 . S
N976 C978 1.356 . S
N976 H988 0.984 . S
N976 H989 0.985 . S
N977 C979 1.356 . S
N977 H982 0.984 . S
N977 H983 0.985 . S
C978 C972 1.379 . S
C978 C975 1.363 . S
C978 N976 1.356 . S
C979 C973 1.363 . S
C979 C974 1.379 . S
C979 N977 1.356 . S
N980 C972 1.356 . S
N980 H986 0.984 . S
N980 H987 0.984 . S
N981 C974 1.356 . S
N981 H984 0.984 . S
N981 H985 0.985 . S
H982 N977 0.984 . S
H983 N977 0.985 . S
H984 N981 0.984 . S
H985 N981 0.985 . S
H986 N980 0.984 . S
H987 N980 0.984 . S
H988 N976 0.984 . S
H989 N976 0.985 . S
C990 C991 1.363 . S
C990 C996 1.379 . S
C990 N998 1.356 1_655 S
C991 C990 1.363 . S
C991 C997 1.363 . S
C992 C993 1.363 . S
C992 C997 1.379 . S
C992 N999 1.356 . S
C993 C992 1.363 . S
C993 C996 1.363 . S
N994 C996 1.356 . S
N994 H1006 0.984 . S
N994 H1007 0.985 . S
N995 C997 1.356 . S
N995 H1000 0.984 . S
N995 H1001 0.985 . S
C996 C990 1.379 . S
C996 C993 1.363 . S
C996 N994 1.356 . S
C997 C991 1.363 . S
C997 C992 1.379 . S
C997 N995 1.356 . S
N998 C990 1.356 1_455 S
N998 H1004 0.984 . S
N998 H1005 0.984 . S
N999 C992 1.356 . S
N999 H1002 0.984 . S
N999 H1003 0.985 . S
H1000 N995 0.984 . S
H1001 N995 0.985 . S
H1002 N999 0.984 . S
H1003 N999 0.985 . S
H1004 N998 0.984 . S
H1005 N998 0.984 . S
H1006 N994 0.984 . S
H1007 N994 0.985 . S
C1008 C1009 1.363 . S
C1008 C1014 1.379 . S
C1008 N1016 1.356 . S
C1009 C1008 1.363 . S
C1009 C1015 1.363 . S
C1010 C1011 1.363 . S
C1010 C1015 1.379 . S
C1010 N1017 1.356 . S
C1011 C1010 1.363 . S
C1011 C1014 1.363 . S
N1012 C1014 1.356 . S
N1012 H1024 0.984 . S
N1012 H1025 0.985 . S
N1013 C1015 1.356 . S
N1013 H1018 0.984 . S
N1013 H1019 0.985 . S
C1014 C1008 1.379 . S
C1014 C1011 1.363 . S
C1014 N1012 1.356 . S
C1015 C1009 1.363 . S
C1015 C1010 1.379 . S
C1015 N1013 1.356 . S
N1016 C1008 1.356 . S
N1016 H1022 0.984 . S
N1016 H1023 0.984 . S
N1017 C1010 1.356 . S
N1017 H1020 0.984 . S
N1017 H1021 0.985 . S
H1018 N1013 0.984 . S
H1019 N1013 0.985 . S
H1020 N1017 0.984 . S
H1021 N1017 0.985 . S
H1022 N1016 0.984 . S
H1023 N1016 0.984 . S
H1024 N1012 0.984 . S
H1025 N1012 0.985 . S
C1026 C1027 1.363 . S
C1026 C1032 1.379 . S
C1026 N1034 1.356 . S
C1027 C1026 1.363 . S
C1027 C1033 1.363 . S
C1028 C1029 1.363 . S
C1028 C1033 1.379 . S
C1028 N1035 1.356 . S
C1029 C1028 1.363 . S
C1029 C1032 1.363 . S
N1030 C1032 1.356 . S
N1030 H1042 0.984 . S
N1030 H1043 0.985 . S
N1031 C1033 1.356 . S
N1031 H1036 0.984 . S
N1031 H1037 0.985 . S
C1032 C1026 1.379 . S
C1032 C1029 1.363 . S
C1032 N1030 1.356 . S
C1033 C1027 1.363 . S
C1033 C1028 1.379 . S
C1033 N1031 1.356 . S
N1034 C1026 1.356 . S
N1034 H1040 0.984 . S
N1034 H1041 0.984 . S
N1035 C1028 1.356 . S
N1035 H1038 0.984 . S
N1035 H1039 0.985 . S
H1036 N1031 0.984 . S
H1037 N1031 0.985 . S
H1038 N1035 0.984 . S
H1039 N1035 0.985 . S
H1040 N1034 0.984 . S
H1041 N1034 0.984 . S
H1042 N1030 0.984 . S
H1043 N1030 0.985 . S
C1044 C1045 1.363 1_545 S
C1044 C1050 1.379 . S
C1044 N1052 1.356 . S
C1045 C1044 1.363 1_565 S
C1045 C1051 1.363 . S
C1046 C1047 1.363 . S
C1046 C1051 1.379 . S
C1046 N1053 1.356 . S
C1047 C1046 1.363 . S
C1047 C1050 1.363 1_565 S
N1048 C1050 1.356 . S
N1048 H1060 0.984 . S
N1048 H1061 0.985 . S
N1049 C1051 1.356 . S
N1049 H1054 0.984 . S
N1049 H1055 0.985 . S
C1050 C1044 1.379 . S
C1050 C1047 1.363 1_545 S
C1050 N1048 1.356 . S
C1051 C1045 1.363 . S
C1051 C1046 1.379 . S
C1051 N1049 1.356 . S
N1052 C1044 1.356 . S
N1052 H1058 0.984 . S
N1052 H1059 0.984 . S
N1053 C1046 1.356 . S
N1053 H1056 0.984 . S
N1053 H1057 0.985 . S
H1054 N1049 0.984 . S
H1055 N1049 0.985 . S
H1056 N1053 0.984 . S
H1057 N1053 0.985 . S
H1058 N1052 0.984 . S
H1059 N1052 0.984 . S
H1060 N1048 0.984 . S
H1061 N1048 0.985 . S
C1062 C1063 1.384 . S
C1062 C1068 1.379 . S
C1062 N1070 1.356 . S
C1063 C1062 1.384 . S
C1063 C1069 1.337 1_545 S
C1064 C1065 1.363 . S
C1064 C1069 1.379 . S
C1064 N1071 1.356 . S
C1065 C1064 1.363 . S
C1065 C1068 1.363 1_565 S
N1066 C1068 1.356 . S
N1066 H1078 0.984 . S
N1066 H1079 0.985 . S
N1067 C1069 1.356 . S
N1067 H1072 0.984 . S
N1067 H1073 0.985 . S
C1068 C1062 1.379 . S
C1068 C1065 1.363 1_545 S
C1068 N1066 1.356 . S
C1069 C1063 1.337 1_565 S
C1069 C1064 1.379 . S
C1069 N1067 1.356 . S
N1070 C1062 1.356 . S
N1070 H1076 0.984 . S
N1070 H1077 0.984 . S
N1071 C1064 1.356 . S
N1071 H1074 0.984 . S
N1071 H1075 0.985 . S
H1072 N1067 0.984 . S
H1073 N1067 0.985 . S
H1074 N1071 0.984 . S
H1075 N1071 0.985 . S
H1076 N1070 0.984 . S
H1077 N1070 0.984 . S
H1078 N1066 0.984 . S
H1079 N1066 0.985 . S
C1080 C1081 1.363 . S
C1080 C1086 1.379 . S
C1080 N1088 1.356 . S
C1081 C1080 1.363 . S
C1081 C1087 1.363 . S
C1082 C1083 1.363 . S
C1082 C1087 1.379 . S
C1082 N1089 1.356 . S
C1083 C1082 1.363 . S
C1083 C1086 1.363 . S
N1084 C1086 1.356 . S
N1084 H1096 0.984 . S
N1084 H1097 0.985 . S
N1085 C1087 1.356 . S
N1085 H1090 0.984 . S
N1085 H1091 0.985 . S
C1086 C1080 1.379 . S
C1086 C1083 1.363 . S
C1086 N1084 1.356 . S
C1087 C1081 1.363 . S
C1087 C1082 1.379 . S
C1087 N1085 1.356 . S
N1088 C1080 1.356 . S
N1088 H1094 0.984 . S
N1088 H1095 0.984 . S
N1089 C1082 1.356 . S
N1089 H1092 0.984 . S
N1089 H1093 0.985 . S
H1090 N1085 0.984 . S
H1091 N1085 0.985 . S
H1092 N1089 0.984 . S
H1093 N1089 0.985 . S
H1094 N1088 0.984 . S
H1095 N1088 0.984 . S
H1096 N1084 0.984 . S
H1097 N1084 0.985 . S
C1098 C1099 1.352 1_556 S
C1098 C1104 1.379 . S
C1098 N1106 1.356 . S
C1099 C1098 1.352 1_554 S
C1099 C1105 1.369 . S
C1100 C1101 1.363 . S
C1100 C1105 1.379 1_556 S
C1100 N1107 1.356 . S
C1101 C1100 1.363 . S
C1101 C1104 1.363 . S
N1102 C1104 1.356 . S
N1102 H1114 0.984 . S
N1102 H1115 0.985 . S
N1103 C1105 1.356 . S
N1103 H1108 0.984 . S
N1103 H1109 0.985 . S
C1104 C1098 1.379 . S
C1104 C1101 1.363 . S
C1104 N1102 1.356 . S
C1105 C1099 1.369 . S
C1105 C1100 1.379 1_554 S
C1105 N1103 1.356 . S
N1106 C1098 1.356 . S
N1106 H1112 0.984 . S
N1106 H1113 0.984 . S
N1107 C1100 1.356 . S
N1107 H1110 0.984 . S
N1107 H1111 0.985 1_556 S
H1108 N1103 0.984 . S
H1109 N1103 0.985 . S
H1110 N1107 0.984 . S
H1111 N1107 0.985 1_554 S
H1112 N1106 0.984 . S
H1113 N1106 0.984 . S
H1114 N1102 0.984 . S
H1115 N1102 0.985 . S
C1116 C1117 1.363 . S
C1116 C1122 1.379 . S
C1116 N1124 1.356 . S
C1117 C1116 1.363 . S
C1117 C1123 1.363 . S
C1118 C1119 1.363 . S
C1118 C1123 1.379 . S
C1118 N1125 1.356 . S
C1119 C1118 1.363 . S
C1119 C1122 1.363 . S
N1120 C1122 1.356 . S
N1120 H1132 0.984 . S
N1120 H1133 0.985 . S
N1121 C1123 1.356 . S
N1121 H1126 0.984 . S
N1121 H1127 0.985 . S
C1122 C1116 1.379 . S
C1122 C1119 1.363 . S
C1122 N1120 1.356 . S
C1123 C1117 1.363 . S
C1123 C1118 1.379 . S
C1123 N1121 1.356 . S
N1124 C1116 1.356 . S
N1124 H1130 0.984 . S
N1124 H1131 0.984 . S
N1125 C1118 1.356 . S
N1125 H1128 0.984 . S
N1125 H1129 0.985 . S
H1126 N1121 0.984 . S
H1127 N1121 0.985 . S
H1128 N1125 0.984 . S
H1129 N1125 0.985 . S
H1130 N1124 0.984 . S
H1131 N1124 0.984 . S
H1132 N1120 0.984 . S
H1133 N1120 0.985 . S
C1134 C1135 1.363 1_554 S
C1134 C1140 1.379 . S
C1134 N1142 1.356 . S
C1135 C1134 1.363 1_556 S
C1135 C1141 1.363 . S
C1136 C1137 1.363 . S
C1136 C1141 1.379 . S
C1136 N1143 1.356 . S
C1137 C1136 1.363 . S
C1137 C1140 1.363 1_556 S
N1138 C1140 1.356 . S
N1138 H1150 0.984 . S
N1138 H1151 0.985 . S
N1139 C1141 1.356 . S
N1139 H1144 0.984 . S
N1139 H1145 0.985 . S
C1140 C1134 1.379 . S
C1140 C1137 1.363 1_554 S
C1140 N1138 1.356 . S
C1141 C1135 1.363 . S
C1141 C1136 1.379 . S
C1141 N1139 1.356 . S
N1142 C1134 1.356 . S
N1142 H1148 0.984 . S
N1142 H1149 0.984 . S
N1143 C1136 1.356 . S
N1143 H1146 0.984 . S
N1143 H1147 0.985 . S
H1144 N1139 0.984 . S
H1145 N1139 0.985 . S
H1146 N1143 0.984 . S
H1147 N1143 0.985 . S
H1148 N1142 0.984 . S
H1149 N1142 0.984 . S
H1150 N1138 0.984 . S
H1151 N1138 0.985 . S
C1152 C1153 1.363 . S
C1152 C1158 1.379 . S
C1152 N1160 1.356 . S
C1153 C1152 1.363 . S
C1153 C1159 1.363 . S
C1154 C1155 1.363 . S
C1154 C1159 1.379 . S
C1154 N1161 1.356 . S
C1155 C1154 1.363 . S
C1155 C1158 1.363 . S
N1156 C1158 1.356 . S
N1156 H1168 0.984 . S
N1156 H1169 0.985 . S
N1157 C1159 1.356 . S
N1157 H1162 0.984 . S
N1157 H1163 0.985 . S
C1158 C1152 1.379 . S
C1158 C1155 1.363 . S
C1158 N1156 1.356 . S
C1159 C1153 1.363 . S
C1159 C1154 1.379 . S
C1159 N1157 1.356 . S
N1160 C1152 1.356 . S
N1160 H1166 0.984 . S
N1160 H1167 0.984 . S
N1161 C1154 1.356 . S
N1161 H1164 0.984 . S
N1161 H1165 0.985 . S
H1162 N1157 0.984 . S
H1163 N1157 0.985 . S
H1164 N1161 0.984 . S
H1165 N1161 0.985 . S
H1166 N1160 0.984 . S
H1167 N1160 0.984 . S
H1168 N1156 0.984 . S
H1169 N1156 0.985 . S
C1170 C1171 1.361 1_655 S
C1170 C1176 1.379 . S
C1170 N1178 1.356 1_655 S
C1171 C1170 1.361 1_455 S
C1171 C1177 1.360 1_455 S
C1172 C1173 1.363 . S
C1172 C1177 1.379 . S
C1172 N1179 1.356 . S
C1173 C1172 1.363 . S
C1173 C1176 1.363 . S
N1174 C1176 1.356 . S
N1174 H1186 0.984 . S
N1174 H1187 0.985 . S
N1175 C1177 1.356 . S
N1175 H1180 0.984 1_655 S
N1175 H1181 0.985 . S
C1176 C1170 1.379 . S
C1176 C1173 1.363 . S
C1176 N1174 1.356 . S
C1177 C1171 1.360 1_655 S
C1177 C1172 1.379 . S
C1177 N1175 1.356 . S
N1178 C1170 1.356 1_455 S
N1178 H1184 0.984 . S
N1178 H1185 0.984 . S
N1179 C1172 1.356 . S
N1179 H1182 0.984 . S
N1179 H1183 0.985 . S
H1180 N1175 0.984 1_455 S
H1181 N1175 0.985 . S
H1182 N1179 0.984 . S
H1183 N1179 0.985 . S
H1184 N1178 0.984 . S
H1185 N1178 0.984 . S
H1186 N1174 0.984 . S
H1187 N1174 0.985 . S
C1188 C1189 1.363 . S
C1188 C1194 1.379 . S
C1188 N1196 1.356 . S
C1189 C1188 1.363 . S
C1189 C1195 1.363 . S
C1190 C1191 1.363 . S
C1190 C1195 1.379 . S
C1190 N1197 1.356 . S
C1191 C1190 1.363 . S
C1191 C1194 1.363 . S
N1192 C1194 1.356 . S
N1192 H1204 0.984 . S
N1192 H1205 0.985 . S
N1193 C1195 1.356 . S
N1193 H1198 0.984 . S
N1193 H1199 0.985 . S
C1194 C1188 1.379 . S
C1194 C1191 1.363 . S
C1194 N1192 1.356 . S
C1195 C1189 1.363 . S
C1195 C1190 1.379 . S
C1195 N1193 1.356 . S
N1196 C1188 1.356 . S
N1196 H1202 0.984 . S
N1196 H1203 0.984 . S
N1197 C1190 1.356 . S
N1197 H1200 0.984 . S
N1197 H1201 0.985 . S
H1198 N1193 0.984 . S
H1199 N1193 0.985 . S
H1200 N1197 0.984 . S
H1201 N1197 0.985 . S
H1202 N1196 0.984 . S
H1203 N1196 0.984 . S
H1204 N1192 0.984 . S
H1205 N1192 0.985 . S
C1206 C1207 1.363 . S
C1206 C1212 1.379 . S
C1206 N1214 1.356 . S
C1207 C1206 1.363 . S
C1207 C1213 1.363 1_655 S
C1208 C1209 1.363 1_455 S
C1208 C1213 1.379 . S
C1208 N1215 1.356 . S
C1209 C1208 1.363 1_655 S
C1209 C1212 1.363 . S
N1210 C1212 1.356 . S
N1210 H1222 0.984 . S
N1210 H1223 0.985 . S
N1211 C1213 1.356 . S
N1211 H1216 0.984 . S
N1211 H1217 0.985 . S
C1212 C1206 1.379 . S
C1212 C1209 1.363 . S
C1212 N1210 1.356 . S
C1213 C1207 1.363 1_455 S
C1213 C1208 1.379 . S
C1213 N1211 1.356 . S
N1214 C1206 1.356 . S
N1214 H1220 0.984 . S
N1214 H1221 0.984 . S
N1215 C1208 1.356 . S
N1215 H1218 0.984 . S
N1215 H1219 0.985 . S
H1216 N1211 0.984 . S
H1217 N1211 0.985 . S
H1218 N1215 0.984 . S
H1219 N1215 0.985 . S
H1220 N1214 0.984 . S
H1221 N1214 0.984 . S
H1222 N1210 0.984 . S
H1223 N1210 0.985 . S
C1224 C1225 1.363 . S
C1224 C1230 1.379 . S
C1224 N1232 1.356 . S
C1225 C1224 1.363 . S
C1225 C1231 1.363 . S
C1226 C1227 1.363 . S
C1226 C1231 1.379 . S
C1226 N1233 1.356 . S
C1227 C1226 1.363 . S
C1227 C1230 1.363 . S
N1228 C1230 1.356 . S
N1228 H1240 0.984 . S
N1228 H1241 0.985 . S
N1229 C1231 1.356 . S
N1229 H1234 0.984 . S
N1229 H1235 0.985 . S
C1230 C1224 1.379 . S
C1230 C1227 1.363 . S
C1230 N1228 1.356 . S
C1231 C1225 1.363 . S
C1231 C1226 1.379 . S
C1231 N1229 1.356 . S
N1232 C1224 1.356 . S
N1232 H1238 0.984 . S
N1232 H1239 0.984 . S
N1233 C1226 1.356 . S
N1233 H1236 0.984 . S
N1233 H1237 0.985 . S
H1234 N1229 0.984 . S
H1235 N1229 0.985 . S
H1236 N1233 0.984 . S
H1237 N1233 0.985 . S
H1238 N1232 0.984 . S
H1239 N1232 0.984 . S
H1240 N1228 0.984 . S
H1241 N1228 0.985 . S
C1242 C1243 1.363 . S
C1242 C1248 1.379 . S
C1242 N1250 1.356 . S
C1243 C1242 1.363 . S
C1243 C1249 1.363 . S
C1244 C1245 1.363 . S
C1244 C1249 1.379 . S
C1244 N1251 1.356 . S
C1245 C1244 1.363 . S
C1245 C1248 1.363 . S
N1246 C1248 1.356 . S
N1246 H1258 0.984 . S
N1246 H1259 0.985 . S
N1247 C1249 1.356 . S
N1247 H1252 0.984 . S
N1247 H1253 0.985 . S
C1248 C1242 1.379 . S
C1248 C1245 1.363 . S
C1248 N1246 1.356 . S
C1249 C1243 1.363 . S
C1249 C1244 1.379 . S
C1249 N1247 1.356 . S
N1250 C1242 1.356 . S
N1250 H1256 0.984 . S
N1250 H1257 0.984 . S
N1251 C1244 1.356 . S
N1251 H1254 0.984 . S
N1251 H1255 0.985 . S
H1252 N1247 0.984 . S
H1253 N1247 0.985 . S
H1254 N1251 0.984 . S
H1255 N1251 0.985 . S
H1256 N1250 0.984 . S
H1257 N1250 0.984 . S
H1258 N1246 0.984 . S
H1259 N1246 0.985 . S
C1260 C1261 1.363 1_565 S
C1260 C1266 1.379 . S
C1260 N1268 1.356 . S
C1261 C1260 1.363 1_545 S
C1261 C1267 1.363 . S
C1262 C1263 1.363 . S
C1262 C1267 1.379 . S
C1262 N1269 1.356 . S
C1263 C1262 1.363 . S
C1263 C1266 1.363 1_545 S
N1264 C1266 1.356 . S
N1264 H1276 0.984 . S
N1264 H1277 0.985 . S
N1265 C1267 1.356 . S
N1265 H1270 0.984 . S
N1265 H1271 0.985 . S
C1266 C1260 1.379 . S
C1266 C1263 1.363 1_565 S
C1266 N1264 1.356 . S
C1267 C1261 1.363 . S
C1267 C1262 1.379 . S
C1267 N1265 1.356 . S
N1268 C1260 1.356 . S
N1268 H1274 0.984 . S
N1268 H1275 0.984 . S
N1269 C1262 1.356 . S
N1269 H1272 0.984 . S
N1269 H1273 0.985 . S
H1270 N1265 0.984 . S
H1271 N1265 0.985 . S
H1272 N1269 0.984 . S
H1273 N1269 0.985 . S
H1274 N1268 0.984 . S
H1275 N1268 0.984 . S
H1276 N1264 0.984 . S
H1277 N1264 0.985 . S
C1278 C1279 1.338 1_545 S
C1278 C1284 1.379 . S
C1278 N1286 1.356 . S
C1279 C1278 1.338 1_565 S
C1279 C1285 1.383 . S
C1280 C1281 1.363 1_565 S
C1280 C1285 1.379 . S
C1280 N1287 1.356 . S
C1281 C1280 1.363 1_545 S
C1281 C1284 1.363 . S
N1282 C1284 1.356 . S
N1282 H1294 0.984 . S
N1282 H1295 0.985 . S
N1283 C1285 1.356 . S
N1283 H1288 0.984 . S
N1283 H1289 0.985 . S
C1284 C1278 1.379 . S
C1284 C1281 1.363 . S
C1284 N1282 1.356 . S
C1285 C1279 1.383 . S
C1285 C1280 1.379 . S
C1285 N1283 1.356 . S
N1286 C1278 1.356 . S
N1286 H1292 0.984 . S
N1286 H1293 0.984 . S
N1287 C1280 1.356 . S
N1287 H1290 0.984 . S
N1287 H1291 0.985 . S
H1288 N1283 0.984 . S
H1289 N1283 0.985 . S
H1290 N1287 0.984 . S
H1291 N1287 0.985 . S
H1292 N1286 0.984 . S
H1293 N1286 0.984 . S
H1294 N1282 0.984 . S
H1295 N1282 0.985 . S
C1296 C1297 1.363 . S
C1296 C1302 1.379 . S
C1296 N1304 1.356 . S
C1297 C1296 1.363 . S
C1297 C1303 1.363 . S
C1298 C1299 1.363 . S
C1298 C1303 1.379 . S
C1298 N1305 1.356 . S
C1299 C1298 1.363 . S
C1299 C1302 1.363 . S
N1300 C1302 1.356 . S
N1300 H1312 0.984 . S
N1300 H1313 0.985 . S
N1301 C1303 1.356 . S
N1301 H1306 0.984 . S
N1301 H1307 0.985 . S
C1302 C1296 1.379 . S
C1302 C1299 1.363 . S
C1302 N1300 1.356 . S
C1303 C1297 1.363 . S
C1303 C1298 1.379 . S
C1303 N1301 1.356 . S
N1304 C1296 1.356 . S
N1304 H1310 0.984 . S
N1304 H1311 0.984 . S
N1305 C1298 1.356 . S
N1305 H1308 0.984 . S
N1305 H1309 0.985 . S
H1306 N1301 0.984 . S
H1307 N1301 0.985 . S
H1308 N1305 0.984 . S
H1309 N1305 0.985 . S
H1310 N1304 0.984 . S
H1311 N1304 0.984 . S
H1312 N1300 0.984 . S
H1313 N1300 0.985 . S
C1314 C1315 1.341 1_554 S
C1314 C1320 1.379 . S
C1314 N1322 1.356 . S
C1315 C1314 1.341 1_556 S
C1315 C1321 1.379 . S
C1316 C1317 1.363 1_556 S
C1316 C1321 1.379 . S
C1316 N1323 1.356 . S
C1317 C1316 1.363 1_554 S
C1317 C1320 1.363 . S
N1318 C1320 1.356 . S
N1318 H1330 0.984 . S
N1318 H1331 0.985 . S
N1319 C1321 1.356 . S
N1319 H1324 0.984 . S
N1319 H1325 0.985 . S
C1320 C1314 1.379 . S
C1320 C1317 1.363 . S
C1320 N1318 1.356 . S
C1321 C1315 1.379 . S
C1321 C1316 1.379 . S
C1321 N1319 1.356 . S
N1322 C1314 1.356 . S
N1322 H1328 0.984 . S
N1322 H1329 0.984 . S
N1323 C1316 1.356 . S
N1323 H1326 0.984 . S
N1323 H1327 0.985 . S
H1324 N1319 0.984 . S
H1325 N1319 0.985 . S
H1326 N1323 0.984 . S
H1327 N1323 0.985 . S
H1328 N1322 0.984 . S
H1329 N1322 0.984 . S
H1330 N1318 0.984 . S
H1331 N1318 0.985 . S
C1332 C1333 1.363 . S
C1332 C1338 1.379 . S
C1332 N1340 1.356 . S
C1333 C1332 1.363 . S
C1333 C1339 1.363 . S
C1334 C1335 1.363 . S
C1334 C1339 1.379 . S
C1334 N1341 1.356 . S
C1335 C1334 1.363 . S
C1335 C1338 1.363 . S
N1336 C1338 1.356 . S
N1336 H1348 0.984 . S
N1336 H1349 0.985 . S
N1337 C1339 1.356 . S
N1337 H1342 0.984 . S
N1337 H1343 0.985 . S
C1338 C1332 1.379 . S
C1338 C1335 1.363 . S
C1338 N1336 1.356 . S
C1339 C1333 1.363 . S
C1339 C1334 1.379 . S
C1339 N1337 1.356 . S
N1340 C1332 1.356 . S
N1340 H1346 0.984 . S
N1340 H1347 0.984 . S
N1341 C1334 1.356 . S
N1341 H1344 0.984 . S
N1341 H1345 0.985 . S
H1342 N1337 0.984 . S
H1343 N1337 0.985 . S
H1344 N1341 0.984 . S
H1345 N1341 0.985 . S
H1346 N1340 0.984 . S
H1347 N1340 0.984 . S
H1348 N1336 0.984 . S
H1349 N1336 0.985 . S
C1350 C1351 1.363 . S
C1350 C1356 1.379 . S
C1350 N1358 1.356 . S
C1351 C1350 1.363 . S
C1351 C1357 1.363 1_554 S
C1352 C1353 1.363 1_556 S
C1352 C1357 1.379 . S
C1352 N1359 1.356 . S
C1353 C1352 1.363 1_554 S
C1353 C1356 1.363 . S
N1354 C1356 1.356 . S
N1354 H1366 0.984 . S
N1354 H1367 0.985 . S
N1355 C1357 1.356 . S
N1355 H1360 0.984 . S
N1355 H1361 0.985 . S
C1356 C1350 1.379 . S
C1356 C1353 1.363 . S
C1356 N1354 1.356 . S
C1357 C1351 1.363 1_556 S
C1357 C1352 1.379 . S
C1357 N1355 1.356 . S
N1358 C1350 1.356 . S
N1358 H1364 0.984 . S
N1358 H1365 0.984 . S
N1359 C1352 1.356 . S
N1359 H1362 0.984 . S
N1359 H1363 0.985 . S
H1360 N1355 0.984 . S
H1361 N1355 0.985 . S
H1362 N1359 0.984 . S
H1363 N1359 0.985 . S
H1364 N1358 0.984 . S
H1365 N1358 0.984 . S
H1366 N1354 0.984 . S
H1367 N1354 0.985 . S
C1368 C1369 1.363 . S
C1368 C1374 1.379 . S
C1368 N1376 1.356 . S
C1369 C1368 1.363 . S
C1369 C1375 1.363 . S
C1370 C1371 1.363 . S
C1370 C1375 1.379 . S
C1370 N1377 1.356 . S
C1371 C1370 1.363 . S
C1371 C1374 1.363 . S
N1372 C1374 1.356 . S
N1372 H1384 0.984 . S
N1372 H1385 0.985 . S
N1373 C1375 1.356 . S
N1373 H1378 0.984 . S
N1373 H1379 0.985 . S
C1374 C1368 1.379 . S
C1374 C1371 1.363 . S
C1374 N1372 1.356 . S
C1375 C1369 1.363 . S
C1375 C1370 1.379 . S
C1375 N1373 1.356 . S
N1376 C1368 1.356 . S
N1376 H1382 0.984 . S
N1376 H1383 0.984 . S
N1377 C1370 1.356 . S
N1377 H1380 0.984 . S
N1377 H1381 0.985 . S
H1378 N1373 0.984 . S
H1379 N1373 0.985 . S
H1380 N1377 0.984 . S
H1381 N1377 0.985 . S
H1382 N1376 0.984 . S
H1383 N1376 0.984 . S
H1384 N1372 0.984 . S
H1385 N1372 0.985 . S
C1386 C1387 1.348 1_455 S
C1386 C1392 1.379 . S
C1386 N1394 1.356 . S
C1387 C1386 1.348 1_655 S
C1387 C1393 1.374 . S
C1388 C1389 1.363 1_655 S
C1388 C1393 1.379 . S
C1388 N1395 1.356 . S
C1389 C1388 1.363 1_455 S
C1389 C1392 1.363 . S
N1390 C1392 1.356 . S
N1390 H1402 0.984 . S
N1390 H1403 0.985 . S
N1391 C1393 1.356 . S
N1391 H1396 0.984 . S
N1391 H1397 0.985 . S
C1392 C1386 1.379 . S
C1392 C1389 1.363 . S
C1392 N1390 1.356 . S
C1393 C1387 1.374 . S
C1393 C1388 1.379 . S
C1393 N1391 1.356 . S
N1394 C1386 1.356 . S
N1394 H1400 0.984 . S
N1394 H1401 0.984 . S
N1395 C1388 1.356 . S
N1395 H1398 0.984 1_655 S
N1395 H1399 0.985 . S
H1396 N1391 0.984 . S
H1397 N1391 0.985 . S
H1398 N1395 0.984 1_455 S
H1399 N1395 0.985 . S
H1400 N1394 0.984 . S
H1401 N1394 0.984 . S
H1402 N1390 0.984 . S
H1403 N1390 0.985 . S
C1404 C1405 1.363 . S
C1404 C1410 1.379 . S
C1404 N1412 1.356 . S
C1405 C1404 1.363 . S
C1405 C1411 1.363 . S
C1406 C1407 1.363 . S
C1406 C1411 1.379 . S
C1406 N1413 1.356 . S
C1407 C1406 1.363 . S
C1407 C1410 1.363 . S
N1408 C1410 1.356 . S
N1408 H1420 0.984 . S
N1408 H1421 0.985 . S
N1409 C1411 1.356 . S
N1409 H1414 0.984 . S
N1409 H1415 0.985 . S
C1410 C1404 1.379 . S
C1410 C1407 1.363 . S
C1410 N1408 1.356 . S
C1411 C1405 1.363 . S
C1411 C1406 1.379 . S
C1411 N1409 1.356 . S
N1412 C1404 1.356 . S
N1412 H1418 0.984 . S
N1412 H1419 0.984 . S
N1413 C1406 1.356 . S
N1413 H1416 0.984 . S
N1413 H1417 0.985 . S
H1414 N1409 0.984 . S
H1415 N1409 0.985 . S
H1416 N1413 0.984 . S
H1417 N1413 0.985 . S
H1418 N1412 0.984 . S
H1419 N1412 0.984 . S
H1420 N1408 0.984 . S
H1421 N1408 0.985 . S
C1422 C1423 1.363 1_655 S
C1422 C1428 1.379 . S
C1422 N1430 1.356 . S
C1423 C1422 1.363 1_455 S
C1423 C1429 1.363 . S
C1424 C1425 1.363 . S
C1424 C1429 1.379 . S
C1424 N1431 1.356 . S
C1425 C1424 1.363 . S
C1425 C1428 1.363 1_455 S
N1426 C1428 1.356 . S
N1426 H1438 0.984 . S
N1426 H1439 0.985 . S
N1427 C1429 1.356 . S
N1427 H1432 0.984 . S
N1427 H1433 0.985 . S
C1428 C1422 1.379 . S
C1428 C1425 1.363 1_655 S
C1428 N1426 1.356 . S
C1429 C1423 1.363 . S
C1429 C1424 1.379 . S
C1429 N1427 1.356 . S
N1430 C1422 1.356 . S
N1430 H1436 0.984 . S
N1430 H1437 0.984 . S
N1431 C1424 1.356 . S
N1431 H1434 0.984 . S
N1431 H1435 0.985 . S
H1432 N1427 0.984 . S
H1433 N1427 0.985 . S
H1434 N1431 0.984 . S
H1435 N1431 0.985 . S
H1436 N1430 0.984 . S
H1437 N1430 0.984 . S
H1438 N1426 0.984 . S
H1439 N1426 0.985 . S
C1440 C1441 1.363 . S
C1440 C1446 1.379 . S
C1440 N1448 1.356 . S
C1441 C1440 1.363 . S
C1441 C1447 1.363 . S
C1442 C1443 1.363 . S
C1442 C1447 1.379 . S
C1442 N1449 1.356 . S
C1443 C1442 1.363 . S
C1443 C1446 1.363 . S
N1444 C1446 1.356 . S
N1444 H1456 0.984 . S
N1444 H1457 0.985 . S
N1445 C1447 1.356 . S
N1445 H1450 0.984 . S
N1445 H1451 0.985 . S
C1446 C1440 1.379 . S
C1446 C1443 1.363 . S
C1446 N1444 1.356 . S
C1447 C1441 1.363 . S
C1447 C1442 1.379 . S
C1447 N1445 1.356 . S
N1448 C1440 1.356 . S
N1448 H1454 0.984 . S
N1448 H1455 0.984 . S
N1449 C1442 1.356 . S
N1449 H1452 0.984 . S
N1449 H1453 0.985 . S
H1450 N1445 0.984 . S
H1451 N1445 0.985 . S
H1452 N1449 0.984 . S
H1453 N1449 0.985 . S
H1454 N1448 0.984 . S
H1455 N1448 0.984 . S
H1456 N1444 0.984 . S
H1457 N1444 0.985 . S
C1458 C1459 1.363 . S
C1458 C1464 1.379 . S
C1458 N1466 1.356 . S
C1459 C1458 1.363 . S
C1459 C1465 1.363 . S
C1460 C1461 1.363 . S
C1460 C1465 1.379 . S
C1460 N1467 1.356 . S
C1461 C1460 1.363 . S
C1461 C1464 1.363 . S
N1462 C1464 1.356 . S
N1462 H1474 0.984 . S
N1462 H1475 0.985 . S
N1463 C1465 1.356 . S
N1463 H1468 0.984 . S
N1463 H1469 0.985 . S
C1464 C1458 1.379 . S
C1464 C1461 1.363 . S
C1464 N1462 1.356 . S
C1465 C1459 1.363 . S
C1465 C1460 1.379 . S
C1465 N1463 1.356 . S
N1466 C1458 1.356 . S
N1466 H1472 0.984 . S
N1466 H1473 0.984 . S
N1467 C1460 1.356 . S
N1467 H1470 0.984 . S
N1467 H1471 0.985 . S
H1468 N1463 0.984 . S
H1469 N1463 0.985 . S
H1470 N1467 0.984 . S
H1471 N1467 0.985 . S
H1472 N1466 0.984 . S
H1473 N1466 0.984 . S
H1474 N1462 0.984 . S
H1475 N1462 0.985 . S
C1476 C1477 1.363 1_565 S
C1476 C1482 1.379 . S
C1476 N1484 1.356 . S
C1477 C1476 1.363 1_545 S
C1477 C1483 1.363 . S
C1478 C1479 1.363 . S
C1478 C1483 1.379 . S
C1478 N1485 1.356 . S
C1479 C1478 1.363 . S
C1479 C1482 1.363 1_545 S
N1480 C1482 1.356 . S
N1480 H1492 0.984 . S
N1480 H1493 0.985 . S
N1481 C1483 1.356 . S
N1481 H1486 0.984 . S
N1481 H1487 0.985 . S
C1482 C1476 1.379 . S
C1482 C1479 1.363 1_565 S
C1482 N1480 1.356 . S
C1483 C1477 1.363 . S
C1483 C1478 1.379 . S
C1483 N1481 1.356 . S
N1484 C1476 1.356 . S
N1484 H1490 0.984 . S
N1484 H1491 0.984 . S
N1485 C1478 1.356 . S
N1485 H1488 0.984 . S
N1485 H1489 0.985 . S
H1486 N1481 0.984 . S
H1487 N1481 0.985 . S
H1488 N1485 0.984 . S
H1489 N1485 0.985 . S
H1490 N1484 0.984 . S
H1491 N1484 0.984 . S
H1492 N1480 0.984 . S
H1493 N1480 0.985 . S
C1494 C1495 1.363 1_545 S
C1494 C1500 1.379 . S
C1494 N1502 1.356 . S
C1495 C1494 1.363 1_565 S
C1495 C1501 1.363 . S
C1496 C1497 1.363 . S
C1496 C1501 1.379 . S
C1496 N1503 1.356 . S
C1497 C1496 1.363 . S
C1497 C1500 1.363 1_565 S
N1498 C1500 1.356 . S
N1498 H1510 0.984 . S
N1498 H1511 0.985 . S
N1499 C1501 1.356 . S
N1499 H1504 0.984 . S
N1499 H1505 0.985 . S
C1500 C1494 1.379 . S
C1500 C1497 1.363 1_545 S
C1500 N1498 1.356 . S
C1501 C1495 1.363 . S
C1501 C1496 1.379 . S
C1501 N1499 1.356 . S
N1502 C1494 1.356 . S
N1502 H1508 0.984 . S
N1502 H1509 0.984 . S
N1503 C1496 1.356 . S
N1503 H1506 0.984 . S
N1503 H1507 0.985 . S
H1504 N1499 0.984 . S
H1505 N1499 0.985 . S
H1506 N1503 0.984 . S
H1507 N1503 0.985 . S
H1508 N1502 0.984 . S
H1509 N1502 0.984 . S
H1510 N1498 0.984 . S
H1511 N1498 0.985 . S
C1512 C1513 1.363 . S
C1512 C1518 1.379 . S
C1512 N1520 1.356 . S
C1513 C1512 1.363 . S
C1513 C1519 1.363 . S
C1514 C1515 1.363 . S
C1514 C1519 1.379 . S
C1514 N1521 1.356 . S
C1515 C1514 1.363 . S
C1515 C1518 1.363 . S
N1516 C1518 1.356 . S
N1516 H1528 0.984 . S
N1516 H1529 0.985 . S
N1517 C1519 1.356 . S
N1517 H1522 0.984 . S
N1517 H1523 0.985 . S
C1518 C1512 1.379 . S
C1518 C1515 1.363 . S
C1518 N1516 1.356 . S
C1519 C1513 1.363 . S
C1519 C1514 1.379 . S
C1519 N1517 1.356 . S
N1520 C1512 1.356 . S
N1520 H1526 0.984 . S
N1520 H1527 0.984 . S
N1521 C1514 1.356 . S
N1521 H1524 0.984 . S
N1521 H1525 0.985 . S
H1522 N1517 0.984 . S
H1523 N1517 0.985 . S
H1524 N1521 0.984 . S
H1525 N1521 0.985 . S
H1526 N1520 0.984 . S
H1527 N1520 0.984 . S
H1528 N1516 0.984 . S
H1529 N1516 0.985 . S
C1530 C1531 1.363 1_554 S
C1530 C1536 1.379 1_554 S
C1530 N1538 1.356 . S
C1531 C1530 1.363 1_556 S
C1531 C1537 1.363 . S
C1532 C1533 1.363 . S
C1532 C1537 1.379 . S
C1532 N1539 1.356 . S
C1533 C1532 1.363 . S
C1533 C1536 1.363 . S
N1534 C1536 1.356 1_554 S
N1534 H1546 0.984 . S
N1534 H1547 0.985 1_554 S
N1535 C1537 1.356 . S
N1535 H1540 0.984 . S
N1535 H1541 0.985 . S
C1536 C1530 1.379 1_556 S
C1536 C1533 1.363 . S
C1536 N1534 1.356 1_556 S
C1537 C1531 1.363 . S
C1537 C1532 1.379 . S
C1537 N1535 1.356 . S
N1538 C1530 1.356 . S
N1538 H1544 0.984 . S
N1538 H1545 0.984 . S
N1539 C1532 1.356 . S
N1539 H1542 0.984 . S
N1539 H1543 0.985 . S
H1540 N1535 0.984 . S
H1541 N1535 0.985 . S
H1542 N1539 0.984 . S
H1543 N1539 0.985 . S
H1544 N1538 0.984 . S
H1545 N1538 0.984 . S
H1546 N1534 0.984 . S
H1547 N1534 0.985 1_556 S
C1548 C1549 1.363 . S
C1548 C1554 1.379 . S
C1548 N1556 1.356 . S
C1549 C1548 1.363 . S
C1549 C1555 1.363 . S
C1550 C1551 1.363 . S
C1550 C1555 1.379 . S
C1550 N1557 1.356 . S
C1551 C1550 1.363 . S
C1551 C1554 1.363 . S
N1552 C1554 1.356 . S
N1552 H1564 0.984 . S
N1552 H1565 0.985 . S
N1553 C1555 1.356 . S
N1553 H1558 0.984 . S
N1553 H1559 0.985 . S
C1554 C1548 1.379 . S
C1554 C1551 1.363 . S
C1554 N1552 1.356 . S
C1555 C1549 1.363 . S
C1555 C1550 1.379 . S
C1555 N1553 1.356 . S
N1556 C1548 1.356 . S
N1556 H1562 0.984 . S
N1556 H1563 0.984 . S
N1557 C1550 1.356 . S
N1557 H1560 0.984 . S
N1557 H1561 0.985 . S
H1558 N1553 0.984 . S
H1559 N1553 0.985 . S
H1560 N1557 0.984 . S
H1561 N1557 0.985 . S
H1562 N1556 0.984 . S
H1563 N1556 0.984 . S
H1564 N1552 0.984 . S
H1565 N1552 0.985 . S
C1566 C1567 1.363 . S
C1566 C1572 1.379 . S
C1566 N1574 1.356 . S
C1567 C1566 1.363 . S
C1567 C1573 1.363 1_554 S
C1568 C1569 1.363 1_556 S
C1568 C1573 1.379 . S
C1568 N1575 1.356 . S
C1569 C1568 1.363 1_554 S
C1569 C1572 1.363 . S
N1570 C1572 1.356 . S
N1570 H1582 0.984 . S
N1570 H1583 0.985 . S
N1571 C1573 1.356 . S
N1571 H1576 0.984 . S
N1571 H1577 0.985 . S
C1572 C1566 1.379 . S
C1572 C1569 1.363 . S
C1572 N1570 1.356 . S
C1573 C1567 1.363 1_556 S
C1573 C1568 1.379 . S
C1573 N1571 1.356 . S
N1574 C1566 1.356 . S
N1574 H1580 0.984 . S
N1574 H1581 0.984 . S
N1575 C1568 1.356 . S
N1575 H1578 0.984 . S
N1575 H1579 0.985 . S
H1576 N1571 0.984 . S
H1577 N1571 0.985 . S
H1578 N1575 0.984 . S
H1579 N1575 0.985 . S
H1580 N1574 0.984 . S
H1581 N1574 0.984 . S
H1582 N1570 0.984 . S
H1583 N1570 0.985 . S
C1584 C1585 1.363 . S
C1584 C1590 1.379 . S
C1584 N1592 1.356 . S
C1585 C1584 1.363 . S
C1585 C1591 1.363 . S
C1586 C1587 1.363 . S
C1586 C1591 1.379 . S
C1586 N1593 1.356 . S
C1587 C1586 1.363 . S
C1587 C1590 1.363 . S
N1588 C1590 1.356 . S
N1588 H1600 0.984 . S
N1588 H1601 0.985 . S
N1589 C1591 1.356 . S
N1589 H1594 0.984 . S
N1589 H1595 0.985 . S
C1590 C1584 1.379 . S
C1590 C1587 1.363 . S
C1590 N1588 1.356 . S
C1591 C1585 1.363 . S
C1591 C1586 1.379 . S
C1591 N1589 1.356 . S
N1592 C1584 1.356 . S
N1592 H1598 0.984 . S
N1592 H1599 0.984 . S
N1593 C1586 1.356 . S
N1593 H1596 0.984 . S
N1593 H1597 0.985 . S
H1594 N1589 0.984 . S
H1595 N1589 0.985 . S
H1596 N1593 0.984 . S
H1597 N1593 0.985 . S
H1598 N1592 0.984 . S
H1599 N1592 0.984 . S
H1600 N1588 0.984 . S
H1601 N1588 0.985 . S
C1602 C1603 1.363 . S
C1602 C1608 1.379 . S
C1602 N1610 1.356 . S
C1603 C1602 1.363 . S
C1603 C1609 1.363 1_655 S
C1604 C1605 1.363 . S
C1604 C1609 1.379 1_655 S
C1604 N1611 1.356 . S
C1605 C1604 1.363 . S
C1605 C1608 1.363 . S
N1606 C1608 1.356 . S
N1606 H1618 0.984 . S
N1606 H1619 0.985 . S
N1607 C1609 1.356 . S
N1607 H1612 0.984 . S
N1607 H1613 0.985 . S
C1608 C1602 1.379 . S
C1608 C1605 1.363 . S
C1608 N1606 1.356 . S
C1609 C1603 1.363 1_455 S
C1609 C1604 1.379 1_455 S
C1609 N1607 1.356 . S
N1610 C1602 1.356 . S
N1610 H1616 0.984 . S
N1610 H1617 0.984 . S
N1611 C1604 1.356 . S
N1611 H1614 0.984 . S
N1611 H1615 0.985 1_655 S
H1612 N1607 0.984 . S
H1613 N1607 0.985 . S
H1614 N1611 0.984 . S
H1615 N1611 0.985 1_455 S
H1616 N1610 0.984 . S
H1617 N1610 0.984 . S
H1618 N1606 0.984 . S
H1619 N1606 0.985 . S
C1620 C1621 1.363 . S
C1620 C1626 1.379 . S
C1620 N1628 1.356 . S
C1621 C1620 1.363 . S
C1621 C1627 1.363 . S
C1622 C1623 1.363 . S
C1622 C1627 1.379 . S
C1622 N1629 1.356 . S
C1623 C1622 1.363 . S
C1623 C1626 1.363 . S
N1624 C1626 1.356 . S
N1624 H1636 0.984 . S
N1624 H1637 0.985 . S
N1625 C1627 1.356 . S
N1625 H1630 0.984 . S
N1625 H1631 0.985 . S
C1626 C1620 1.379 . S
C1626 C1623 1.363 . S
C1626 N1624 1.356 . S
C1627 C1621 1.363 . S
C1627 C1622 1.379 . S
C1627 N1625 1.356 . S
N1628 C1620 1.356 . S
N1628 H1634 0.984 . S
N1628 H1635 0.984 . S
N1629 C1622 1.356 . S
N1629 H1632 0.984 . S
N1629 H1633 0.985 . S
H1630 N1625 0.984 . S
H1631 N1625 0.985 . S
H1632 N1629 0.984 . S
H1633 N1629 0.985 . S
H1634 N1628 0.984 . S
H1635 N1628 0.984 . S
H1636 N1624 0.984 . S
H1637 N1624 0.985 . S
C1638 C1639 1.363 . S
C1638 C1644 1.379 . S
C1638 N1646 1.356 . S
C1639 C1638 1.363 . S
C1639 C1645 1.363 1_455 S
C1640 C1641 1.363 1_655 S
C1640 C1645 1.379 . S
C1640 N1647 1.356 . S
C1641 C1640 1.363 1_455 S
C1641 C1644 1.363 . S
N1642 C1644 1.356 . S
N1642 H1654 0.984 . S
N1642 H1655 0.985 . S
N1643 C1645 1.356 . S
N1643 H1648 0.984 . S
N1643 H1649 0.985 . S
C1644 C1638 1.379 . S
C1644 C1641 1.363 . S
C1644 N1642 1.356 . S
C1645 C1639 1.363 1_655 S
C1645 C1640 1.379 . S
C1645 N1643 1.356 . S
N1646 C1638 1.356 . S
N1646 H1652 0.984 . S
N1646 H1653 0.984 . S
N1647 C1640 1.356 . S
N1647 H1650 0.984 . S
N1647 H1651 0.985 . S
H1648 N1643 0.984 . S
H1649 N1643 0.985 . S
H1650 N1647 0.984 . S
H1651 N1647 0.985 . S
H1652 N1646 0.984 . S
H1653 N1646 0.984 . S
H1654 N1642 0.984 . S
H1655 N1642 0.985 . S
C1656 C1657 1.363 . S
C1656 C1662 1.379 . S
C1656 N1664 1.356 . S
C1657 C1656 1.363 . S
C1657 C1663 1.363 . S
C1658 C1659 1.363 . S
C1658 C1663 1.379 . S
C1658 N1665 1.356 . S
C1659 C1658 1.363 . S
C1659 C1662 1.363 . S
N1660 C1662 1.356 . S
N1660 H1672 0.984 . S
N1660 H1673 0.985 . S
N1661 C1663 1.356 . S
N1661 H1666 0.984 . S
N1661 H1667 0.985 . S
C1662 C1656 1.379 . S
C1662 C1659 1.363 . S
C1662 N1660 1.356 . S
C1663 C1657 1.363 . S
C1663 C1658 1.379 . S
C1663 N1661 1.356 . S
N1664 C1656 1.356 . S
N1664 H1670 0.984 . S
N1664 H1671 0.984 . S
N1665 C1658 1.356 . S
N1665 H1668 0.984 . S
N1665 H1669 0.985 . S
H1666 N1661 0.984 . S
H1667 N1661 0.985 . S
H1668 N1665 0.984 . S
H1669 N1665 0.985 . S
H1670 N1664 0.984 . S
H1671 N1664 0.984 . S
H1672 N1660 0.984 . S
H1673 N1660 0.985 . S
C1674 C1675 1.363 . S
C1674 C1680 1.379 . S
C1674 N1682 1.356 . S
C1675 C1674 1.363 . S
C1675 C1681 1.363 . S
C1676 C1677 1.363 . S
C1676 C1681 1.379 . S
C1676 N1683 1.356 . S
C1677 C1676 1.363 . S
C1677 C1680 1.363 . S
N1678 C1680 1.356 . S
N1678 H1690 0.984 . S
N1678 H1691 0.985 . S
N1679 C1681 1.356 . S
N1679 H1684 0.984 . S
N1679 H1685 0.985 . S
C1680 C1674 1.379 . S
C1680 C1677 1.363 . S
C1680 N1678 1.356 . S
C1681 C1675 1.363 . S
C1681 C1676 1.379 . S
C1681 N1679 1.356 . S
N1682 C1674 1.356 . S
N1682 H1688 0.984 . S
N1682 H1689 0.984 . S
N1683 C1676 1.356 . S
N1683 H1686 0.984 . S
N1683 H1687 0.985 . S
H1684 N1679 0.984 . S
H1685 N1679 0.985 . S
H1686 N1683 0.984 . S
H1687 N1683 0.985 . S
H1688 N1682 0.984 . S
H1689 N1682 0.984 . S
H1690 N1678 0.984 . S
H1691 N1678 0.985 . S
C1692 C1693 1.363 . S
C1692 C1698 1.379 . S
C1692 N1700 1.356 . S
C1693 C1692 1.363 . S
C1693 C1699 1.363 1_565 S
C1694 C1695 1.363 1_545 S
C1694 C1699 1.379 . S
C1694 N1701 1.356 . S
C1695 C1694 1.363 1_565 S
C1695 C1698 1.363 . S
N1696 C1698 1.356 . S
N1696 H1708 0.984 . S
N1696 H1709 0.985 . S
N1697 C1699 1.356 . S
N1697 H1702 0.984 . S
N1697 H1703 0.985 . S
C1698 C1692 1.379 . S
C1698 C1695 1.363 . S
C1698 N1696 1.356 . S
C1699 C1693 1.363 1_545 S
C1699 C1694 1.379 . S
C1699 N1697 1.356 . S
N1700 C1692 1.356 . S
N1700 H1706 0.984 . S
N1700 H1707 0.984 . S
N1701 C1694 1.356 . S
N1701 H1704 0.984 . S
N1701 H1705 0.985 . S
H1702 N1697 0.984 . S
H1703 N1697 0.985 . S
H1704 N1701 0.984 . S
H1705 N1701 0.985 . S
H1706 N1700 0.984 . S
H1707 N1700 0.984 . S
H1708 N1696 0.984 . S
H1709 N1696 0.985 . S
C1710 C1711 1.363 1_565 S
C1710 C1716 1.379 1_565 S
C1710 N1718 1.356 . S
C1711 C1710 1.363 1_545 S
C1711 C1717 1.363 . S
C1712 C1713 1.363 . S
C1712 C1717 1.379 . S
C1712 N1719 1.356 . S
C1713 C1712 1.363 . S
C1713 C1716 1.363 . S
N1714 C1716 1.356 . S
N1714 H1726 0.984 1_545 S
N1714 H1727 0.985 . S
N1715 C1717 1.356 . S
N1715 H1720 0.984 . S
N1715 H1721 0.985 . S
C1716 C1710 1.379 1_545 S
C1716 C1713 1.363 . S
C1716 N1714 1.356 . S
C1717 C1711 1.363 . S
C1717 C1712 1.379 . S
C1717 N1715 1.356 . S
N1718 C1710 1.356 . S
N1718 H1724 0.984 . S
N1718 H1725 0.984 . S
N1719 C1712 1.356 . S
N1719 H1722 0.984 . S
N1719 H1723 0.985 . S
H1720 N1715 0.984 . S
H1721 N1715 0.985 . S
H1722 N1719 0.984 . S
H1723 N1719 0.985 . S
H1724 N1718 0.984 . S
H1725 N1718 0.984 . S
H1726 N1714 0.984 1_565 S
H1727 N1714 0.985 . S
C1728 C1729 1.363 . S
C1728 C1734 1.379 . S
C1728 N1736 1.356 . S
C1729 C1728 1.363 . S
C1729 C1735 1.363 . S
C1730 C1731 1.363 . S
C1730 C1735 1.379 . S
C1730 N1737 1.356 . S
C1731 C1730 1.363 . S
C1731 C1734 1.363 . S
N1732 C1734 1.356 . S
N1732 H1744 0.984 . S
N1732 H1745 0.985 . S
N1733 C1735 1.356 . S
N1733 H1738 0.984 . S
N1733 H1739 0.985 . S
C1734 C1728 1.379 . S
C1734 C1731 1.363 . S
C1734 N1732 1.356 . S
C1735 C1729 1.363 . S
C1735 C1730 1.379 . S
C1735 N1733 1.356 . S
N1736 C1728 1.356 . S
N1736 H1742 0.984 . S
N1736 H1743 0.984 . S
N1737 C1730 1.356 . S
N1737 H1740 0.984 . S
N1737 H1741 0.985 . S
H1738 N1733 0.984 . S
H1739 N1733 0.985 . S
H1740 N1737 0.984 . S
H1741 N1737 0.985 . S
H1742 N1736 0.984 . S
H1743 N1736 0.984 . S
H1744 N1732 0.984 . S
H1745 N1732 0.985 . S
C1746 C1747 1.363 1_556 S
C1746 C1752 1.379 1_556 S
C1746 N1754 1.356 . S
C1747 C1746 1.363 1_554 S
C1747 C1753 1.363 . S
C1748 C1749 1.363 . S
C1748 C1753 1.379 . S
C1748 N1755 1.356 . S
C1749 C1748 1.363 . S
C1749 C1752 1.363 . S
N1750 C1752 1.356 1_556 S
N1750 H1762 0.984 . S
N1750 H1763 0.985 1_556 S
N1751 C1753 1.356 . S
N1751 H1756 0.984 . S
N1751 H1757 0.985 . S
C1752 C1746 1.379 1_554 S
C1752 C1749 1.363 . S
C1752 N1750 1.356 1_554 S
C1753 C1747 1.363 . S
C1753 C1748 1.379 . S
C1753 N1751 1.356 . S
N1754 C1746 1.356 . S
N1754 H1760 0.984 . S
N1754 H1761 0.984 . S
N1755 C1748 1.356 . S
N1755 H1758 0.984 . S
N1755 H1759 0.985 . S
H1756 N1751 0.984 . S
H1757 N1751 0.985 . S
H1758 N1755 0.984 . S
H1759 N1755 0.985 . S
H1760 N1754 0.984 . S
H1761 N1754 0.984 . S
H1762 N1750 0.984 . S
H1763 N1750 0.985 1_554 S
C1764 C1765 1.363 . S
C1764 C1770 1.379 . S
C1764 N1772 1.356 . S
C1765 C1764 1.363 . S
C1765 C1771 1.363 . S
C1766 C1767 1.363 . S
C1766 C1771 1.379 . S
C1766 N1773 1.356 . S
C1767 C1766 1.363 . S
C1767 C1770 1.363 . S
N1768 C1770 1.356 . S
N1768 H1780 0.984 . S
N1768 H1781 0.985 . S
N1769 C1771 1.356 . S
N1769 H1774 0.984 . S
N1769 H1775 0.985 . S
C1770 C1764 1.379 . S
C1770 C1767 1.363 . S
C1770 N1768 1.356 . S
C1771 C1765 1.363 . S
C1771 C1766 1.379 . S
C1771 N1769 1.356 . S
N1772 C1764 1.356 . S
N1772 H1778 0.984 . S
N1772 H1779 0.984 . S
N1773 C1766 1.356 . S
N1773 H1776 0.984 . S
N1773 H1777 0.985 . S
H1774 N1769 0.984 . S
H1775 N1769 0.985 . S
H1776 N1773 0.984 . S
H1777 N1773 0.985 . S
H1778 N1772 0.984 . S
H1779 N1772 0.984 . S
H1780 N1768 0.984 . S
H1781 N1768 0.985 . S
C1782 C1783 1.363 . S
C1782 C1788 1.379 . S
C1782 N1790 1.356 . S
C1783 C1782 1.363 . S
C1783 C1789 1.363 1_556 S
C1784 C1785 1.363 1_554 S
C1784 C1789 1.379 . S
C1784 N1791 1.356 . S
C1785 C1784 1.363 1_556 S
C1785 C1788 1.363 . S
N1786 C1788 1.356 . S
N1786 H1798 0.984 . S
N1786 H1799 0.985 . S
N1787 C1789 1.356 . S
N1787 H1792 0.984 . S
N1787 H1793 0.985 . S
C1788 C1782 1.379 . S
C1788 C1785 1.363 . S
C1788 N1786 1.356 . S
C1789 C1783 1.363 1_554 S
C1789 C1784 1.379 . S
C1789 N1787 1.356 . S
N1790 C1782 1.356 . S
N1790 H1796 0.984 . S
N1790 H1797 0.984 . S
N1791 C1784 1.356 . S
N1791 H1794 0.984 . S
N1791 H1795 0.985 . S
H1792 N1787 0.984 . S
H1793 N1787 0.985 . S
H1794 N1791 0.984 . S
H1795 N1791 0.985 . S
H1796 N1790 0.984 . S
H1797 N1790 0.984 . S
H1798 N1786 0.984 . S
H1799 N1786 0.985 . S
C1800 C1801 1.363 . S
C1800 C1806 1.379 . S
C1800 N1808 1.356 . S
C1801 C1800 1.363 . S
C1801 C1807 1.363 . S
C1802 C1803 1.363 . S
C1802 C1807 1.379 . S
C1802 N1809 1.356 . S
C1803 C1802 1.363 . S
C1803 C1806 1.363 . S
N1804 C1806 1.356 . S
N1804 H1816 0.984 . S
N1804 H1817 0.985 . S
N1805 C1807 1.356 . S
N1805 H1810 0.984 . S
N1805 H1811 0.985 . S
C1806 C1800 1.379 . S
C1806 C1803 1.363 . S
C1806 N1804 1.356 . S
C1807 C1801 1.363 . S
C1807 C1802 1.379 . S
C1807 N1805 1.356 . S
N1808 C1800 1.356 . S
N1808 H1814 0.984 . S
N1808 H1815 0.984 . S
N1809 C1802 1.356 . S
N1809 H1812 0.984 . S
N1809 H1813 0.985 . S
H1810 N1805 0.984 . S
H1811 N1805 0.985 . S
H1812 N1809 0.984 . S
H1813 N1809 0.985 . S
H1814 N1808 0.984 . S
H1815 N1808 0.984 . S
H1816 N1804 0.984 . S
H1817 N1804 0.985 . S
C1818 C1819 1.363 . S
C1818 C1824 1.379 . S
C1818 N1826 1.356 . S
C1819 C1818 1.363 . S
C1819 C1825 1.363 1_455 S
C1820 C1821 1.363 . S
C1820 C1825 1.379 1_455 S
C1820 N1827 1.356 . S
C1821 C1820 1.363 . S
C1821 C1824 1.363 . S
N1822 C1824 1.356 . S
N1822 H1834 0.984 . S
N1822 H1835 0.985 . S
N1823 C1825 1.356 . S
N1823 H1828 0.984 . S
N1823 H1829 0.985 . S
C1824 C1818 1.379 . S
C1824 C1821 1.363 . S
C1824 N1822 1.356 . S
C1825 C1819 1.363 1_655 S
C1825 C1820 1.379 1_655 S
C1825 N1823 1.356 . S
N1826 C1818 1.356 . S
N1826 H1832 0.984 . S
N1826 H1833 0.984 . S
N1827 C1820 1.356 . S
N1827 H1830 0.984 . S
N1827 H1831 0.985 1_455 S
H1828 N1823 0.984 . S
H1829 N1823 0.985 . S
H1830 N1827 0.984 . S
H1831 N1827 0.985 1_655 S
H1832 N1826 0.984 . S
H1833 N1826 0.984 . S
H1834 N1822 0.984 . S
H1835 N1822 0.985 . S
C1836 C1837 1.363 . S
C1836 C1842 1.379 . S
C1836 N1844 1.356 . S
C1837 C1836 1.363 . S
C1837 C1843 1.363 . S
C1838 C1839 1.363 . S
C1838 C1843 1.379 . S
C1838 N1845 1.356 . S
C1839 C1838 1.363 . S
C1839 C1842 1.363 . S
N1840 C1842 1.356 . S
N1840 H1852 0.984 . S
N1840 H1853 0.985 . S
N1841 C1843 1.356 . S
N1841 H1846 0.984 . S
N1841 H1847 0.985 . S
C1842 C1836 1.379 . S
C1842 C1839 1.363 . S
C1842 N1840 1.356 . S
C1843 C1837 1.363 . S
C1843 C1838 1.379 . S
C1843 N1841 1.356 . S
N1844 C1836 1.356 . S
N1844 H1850 0.984 . S
N1844 H1851 0.984 . S
N1845 C1838 1.356 . S
N1845 H1848 0.984 . S
N1845 H1849 0.985 . S
H1846 N1841 0.984 . S
H1847 N1841 0.985 . S
H1848 N1845 0.984 . S
H1849 N1845 0.985 . S
H1850 N1844 0.984 . S
H1851 N1844 0.984 . S
H1852 N1840 0.984 . S
H1853 N1840 0.985 . S
C1854 C1855 1.363 1_455 S
C1854 C1860 1.379 . S
C1854 N1862 1.356 . S
C1855 C1854 1.363 1_655 S
C1855 C1861 1.363 . S
C1856 C1857 1.363 . S
C1856 C1861 1.379 . S
C1856 N1863 1.356 . S
C1857 C1856 1.363 . S
C1857 C1860 1.363 1_655 S
N1858 C1860 1.356 . S
N1858 H1870 0.984 . S
N1858 H1871 0.985 . S
N1859 C1861 1.356 . S
N1859 H1864 0.984 . S
N1859 H1865 0.985 . S
C1860 C1854 1.379 . S
C1860 C1857 1.363 1_455 S
C1860 N1858 1.356 . S
C1861 C1855 1.363 . S
C1861 C1856 1.379 . S
C1861 N1859 1.356 . S
N1862 C1854 1.356 . S
N1862 H1868 0.984 . S
N1862 H1869 0.984 . S
N1863 C1856 1.356 . S
N1863 H1866 0.984 . S
N1863 H1867 0.985 . S
H1864 N1859 0.984 . S
H1865 N1859 0.985 . S
H1866 N1863 0.984 . S
H1867 N1863 0.985 . S
H1868 N1862 0.984 . S
H1869 N1862 0.984 . S
H1870 N1858 0.984 . S
H1871 N1858 0.985 . S
C579 C571 1.570 . S
C577 C8 1.570 . S
C597 C532 1.569 . S
C595 C19 1.534 . S
C615 C558 1.353 . S
C613 C30 1.365 . S
C633 C545 1.616 . S
C631 C41 1.582 1_565 S
C651 C454 1.570 . S
C649 C52 1.570 . S
C667 C63 1.583 1_556 S
C669 C467 1.614 . S
C687 C428 1.569 . S
C685 C74 1.534 . S
C703 C85 1.367 . S
C705 C441 1.350 . S
C723 C519 1.570 . S
C721 C96 1.570 . S
C739 C107 1.583 1_655 S
C741 C493 1.614 . S
C757 C118 1.534 . S
C759 C480 1.569 . S
C777 C506 1.353 . S
C775 C129 1.365 . S
C795 C415 1.570 . S
C793 C140 1.532 . S
C811 C151 1.464 . S
C813 C376 1.567 . S
C831 C402 1.352 . S
C829 C162 1.339 . S
C847 C173 1.532 . S
C849 C389 1.610 . S
C867 C298 1.570 . S
C865 C184 1.532 . S
C885 C311 1.612 . S
C883 C195 1.531 . S
C901 C206 1.464 . S
C903 C272 1.567 . S
C919 C217 1.339 . S
C921 C285 1.350 . S
C937 C228 1.532 . S
C939 C363 1.570 . S
C955 C239 1.532 . S
C957 C337 1.610 . S
C975 C324 1.567 . S
C973 C250 1.464 . S
C991 C261 1.339 . S
C993 C350 1.350 . S
C1011 C273 1.448 . S
C1009 C7 1.487 . S
C1029 C286 1.431 . S
C1027 C18 1.501 . S
C1045 C29 1.385 . S
C1047 C299 1.380 . S
C1063 C40 1.307 . S
C1065 C312 1.298 . S
C1083 C325 1.448 . S
C1081 C51 1.487 . S
C1099 C62 1.307 . S
C1101 C338 1.298 . S
C1119 C351 1.431 . S
C1117 C73 1.501 . S
C1137 C364 1.380 . S
C1135 C84 1.384 . S
C1155 C377 1.448 . S
C1153 C95 1.487 . S
C1171 C106 1.307 . S
C1173 C390 1.298 . S
C1189 C117 1.501 . S
C1191 C403 1.431 . S
C1207 C128 1.385 . S
C1209 C416 1.380 . S
C1225 C139 1.403 . S
C1227 C429 1.447 . S
C1243 C150 1.346 . S
C1245 C442 1.431 . S
C1261 C161 1.323 . S
C1263 C455 1.379 . S
C1279 C172 1.225 1_565 S
C1281 C468 1.298 . S
C1297 C183 1.403 . S
C1299 C481 1.447 . S
C1317 C494 1.298 . S
C1315 C194 1.225 1_556 S
C1335 C507 1.431 . S
C1333 C205 1.346 . S
C1353 C520 1.379 . S
C1351 C216 1.323 . S
C1371 C533 1.447 . S
C1369 C227 1.403 . S
C1387 C238 1.225 1_655 S
C1389 C546 1.298 . S
C1405 C249 1.346 . S
C1407 C559 1.431 . S
C1423 C260 1.323 . S
C1425 C572 1.379 . S
C1441 C5 1.353 . S
C1443 C372 1.473 . S
C1461 C411 1.516 . S
C1459 C16 1.434 . S
C1477 C27 1.297 1_545 S
C1479 C385 1.364 . S
C1497 C398 1.605 . S
C1495 C38 1.424 1_565 S
C1513 C49 1.353 . S
C1515 C268 1.473 . S
C1531 C60 1.426 1_556 S
C1533 C281 1.604 . S
C1549 C71 1.434 . S
C1551 C294 1.516 . S
C1567 C82 1.297 1_554 S
C1569 C307 1.364 . S
C1587 C320 1.473 . S
C1585 C93 1.353 . S
C1605 C346 1.605 . S
C1603 C104 1.424 1_655 S
C1621 C115 1.434 . S
C1623 C359 1.516 . S
C1639 C126 1.297 1_455 S
C1641 C333 1.364 . S
C1659 C528 1.437 . S
C1657 C137 1.238 . S
C1677 C567 1.470 . S
C1675 C148 1.211 . S
C1693 C159 1.220 . S
C1695 C541 1.337 . S
C1713 C554 1.537 . S
C1711 C170 1.212 . S
C1729 C181 1.238 . S
C1731 C424 1.437 . S
C1747 C192 1.211 . S
C1749 C437 1.535 . S
C1765 C203 1.211 . S
C1767 C450 1.470 . S
C1785 C463 1.339 . S
C1783 C214 1.222 . S
C1803 C476 1.437 . S
C1801 C225 1.238 . S
C1821 C502 1.537 . S
C1819 C236 1.212 . S
C1837 C247 1.211 . S
C1839 C515 1.470 . S
C1857 C489 1.339 . S
C1855 C258 1.222 . S
