# Generated by pormake.
# Topology cml, (3,6)-cn, num edge types: 1
# Building blocks:
#     Node 0, Type 0, BuildingBlock: BELTOD_clean_linker_0, # of connection points: 3
#     Node 1, Type 0, BuildingBlock: BELTOD_clean_linker_0, # of connection points: 3
#     Node 2, Type 0, BuildingBlock: BELTOD_clean_linker_0, # of connection points: 3
#     Node 3, Type 0, BuildingBlock: BELTOD_clean_linker_0, # of connection points: 3
#     Node 4, Type 0, BuildingBlock: BELTOD_clean_linker_0, # of connection points: 3
#     Node 5, Type 0, BuildingBlock: BELTOD_clean_linker_0, # of connection points: 3
#     Node 6, Type 0, BuildingBlock: BELTOD_clean_linker_0, # of connection points: 3
#     Node 7, Type 0, BuildingBlock: BELTOD_clean_linker_0, # of connection points: 3
#     Node 8, Type 1, BuildingBlock: OJICUG_clean_sbu_0, # of connection points: 6
#     Node 9, Type 1, BuildingBlock: OJICUG_clean_sbu_0, # of connection points: 6
#     Node 10, Type 1, BuildingBlock: OJICUG_clean_sbu_0, # of connection points: 6
#     Node 11, Type 1, BuildingBlock: OJICUG_clean_sbu_0, # of connection points: 6
#     Edge 12, Type (0, 1), BuildingBlock: AJUNOK_clean_linker_0, # of connection points: 2
#     Edge 13, Type (0, 1), BuildingBlock: AJUNOK_clean_linker_0, # of connection points: 2
#     Edge 14, Type (0, 1), BuildingBlock: AJUNOK_clean_linker_0, # of connection points: 2
#     Edge 15, Type (0, 1), BuildingBlock: AJUNOK_clean_linker_0, # of connection points: 2
#     Edge 16, Type (0, 1), BuildingBlock: AJUNOK_clean_linker_0, # of connection points: 2
#     Edge 17, Type (0, 1), BuildingBlock: AJUNOK_clean_linker_0, # of connection points: 2
#     Edge 18, Type (0, 1), BuildingBlock: AJUNOK_clean_linker_0, # of connection points: 2
#     Edge 19, Type (0, 1), BuildingBlock: AJUNOK_clean_linker_0, # of connection points: 2
#     Edge 20, Type (0, 1), BuildingBlock: AJUNOK_clean_linker_0, # of connection points: 2
#     Edge 21, Type (0, 1), BuildingBlock: AJUNOK_clean_linker_0, # of connection points: 2
#     Edge 22, Type (0, 1), BuildingBlock: AJUNOK_clean_linker_0, # of connection points: 2
#     Edge 23, Type (0, 1), BuildingBlock: AJUNOK_clean_linker_0, # of connection points: 2
#     Edge 24, Type (0, 1), BuildingBlock: AJUNOK_clean_linker_0, # of connection points: 2
#     Edge 25, Type (0, 1), BuildingBlock: AJUNOK_clean_linker_0, # of connection points: 2
#     Edge 26, Type (0, 1), BuildingBlock: AJUNOK_clean_linker_0, # of connection points: 2
#     Edge 27, Type (0, 1), BuildingBlock: AJUNOK_clean_linker_0, # of connection points: 2
#     Edge 28, Type (0, 1), BuildingBlock: AJUNOK_clean_linker_0, # of connection points: 2
#     Edge 29, Type (0, 1), BuildingBlock: AJUNOK_clean_linker_0, # of connection points: 2
#     Edge 30, Type (0, 1), BuildingBlock: AJUNOK_clean_linker_0, # of connection points: 2
#     Edge 31, Type (0, 1), BuildingBlock: AJUNOK_clean_linker_0, # of connection points: 2
#     Edge 32, Type (0, 1), BuildingBlock: AJUNOK_clean_linker_0, # of connection points: 2
#     Edge 33, Type (0, 1), BuildingBlock: AJUNOK_clean_linker_0, # of connection points: 2
#     Edge 34, Type (0, 1), BuildingBlock: AJUNOK_clean_linker_0, # of connection points: 2
#     Edge 35, Type (0, 1), BuildingBlock: AJUNOK_clean_linker_0, # of connection points: 2
# Relax obj value: 0.065
# Max RMSD: 0.078
# Mean RMSD: 0.074
data_MOF--net-cml--node1-OJICUG_clean_sbu_0--node2-BELTOD_clean_linker_0--edge1-AJUNOK_clean_linker_0
_symmetry_space_group_name_H-M    P1
_symmetry_Int_Tables_number       1
_symmetry_cell_setting            triclinic
loop_
_symmetry_equiv_pos_as_xyz
'x, y, z'
_cell_length_a     34.339344
_cell_length_b     34.463276
_cell_length_c     32.209512
_cell_angle_alpha  89.598656
_cell_angle_beta   89.408677
_cell_angle_gamma 89.962537
loop_
_atom_site_label
_atom_site_type_symbol
_atom_site_fract_x
_atom_site_fract_y
_atom_site_fract_z
_atom_type_partial_charge
P0 P 0.31171 0.35964 0.96812 0.0
H1 H 0.35571 0.29734 0.00784 0.0
H2 H 0.37645 0.28743 0.07949 0.0
H3 H 0.3082 0.38658 0.11757 0.0
H4 H 0.28809 0.3968 0.04565 0.0
H5 H 0.2864 0.30758 0.90268 0.0
H6 H 0.22247 0.28273 0.88372 0.0
H7 H 0.16946 0.34881 0.98277 0.0
H8 H 0.23373 0.37334 0.00201 0.0
H9 H 0.36834 0.41495 0.99691 0.0
H10 H 0.26463 0.41728 0.92243 0.0
O11 O 0.34592 0.33904 0.93838 0.0
H12 H 0.3788 0.48355 0.98271 0.0
H13 H 0.27461 0.4866 0.90867 0.0
C14 C 0.32099 0.34816 0.02149 0.0
C15 C 0.34467 0.31652 0.03171 0.0
C16 C 0.35618 0.31066 0.07271 0.0
C17 C 0.34381 0.33624 0.104 0.0
C18 C 0.31819 0.36656 0.09395 0.0
C19 C 0.30668 0.37235 0.05296 0.0
C20 C 0.26472 0.34186 0.95406 0.0
C21 C 0.2611 0.31666 0.92042 0.0
C22 C 0.22459 0.30266 0.90946 0.0
C23 C 0.19124 0.31367 0.93204 0.0
C24 C 0.19488 0.33942 0.96537 0.0
C25 C 0.23147 0.35343 0.97631 0.0
C26 C 0.31549 0.41119 0.96122 0.0
C27 C 0.34718 0.43055 0.97847 0.0
C28 C 0.35284 0.46993 0.97075 0.0
C29 C 0.32696 0.49069 0.94539 0.0
C30 C 0.29465 0.47139 0.92881 0.0
C31 C 0.289 0.4318 0.9366 0.0
P32 P 0.7518 0.55362 0.55012 0.0
H33 H 0.75676 0.47704 0.51187 0.0
H34 H 0.71055 0.43917 0.47115 0.0
H35 H 0.62761 0.53317 0.47849 0.0
H36 H 0.67392 0.57098 0.5188 0.0
H37 H 0.83593 0.56424 0.54113 0.0
H38 H 0.8758 0.60557 0.49564 0.0
H39 H 0.77182 0.65306 0.44095 0.0
H40 H 0.73177 0.61078 0.48579 0.0
H41 H 0.71509 0.52729 0.62618 0.0
H42 H 0.72564 0.63554 0.55893 0.0
O43 O 0.781 0.52236 0.57453 0.0
H44 H 0.66918 0.55744 0.67449 0.0
H45 H 0.67888 0.6656 0.60679 0.0
C46 C 0.7185 0.52653 0.51885 0.0
C47 C 0.72867 0.48951 0.50462 0.0
C48 C 0.70232 0.46794 0.48139 0.0
C49 C 0.66563 0.48335 0.47155 0.0
C50 C 0.65591 0.52083 0.4851 0.0
C51 C 0.68222 0.5423 0.50842 0.0
C52 C 0.78086 0.5846 0.51701 0.0
C53 C 0.82159 0.58329 0.51924 0.0
C54 C 0.84437 0.6067 0.4931 0.0
C55 C 0.82673 0.63208 0.4647 0.0
C56 C 0.78595 0.63351 0.46255 0.0
C57 C 0.76316 0.60955 0.48822 0.0
C58 C 0.72403 0.57911 0.58909 0.0
C59 C 0.70817 0.55776 0.62229 0.0
C60 C 0.68179 0.57495 0.64973 0.0
C61 C 0.67046 0.61383 0.64431 0.0
C62 C 0.6875 0.63574 0.61198 0.0
C63 C 0.71408 0.61843 0.58444 0.0
P64 P 0.73497 0.42318 0.02751 0.0
H65 H 0.75506 0.39298 0.10926 0.0
H66 H 0.71646 0.36093 0.16387 0.0
H67 H 0.61824 0.35605 0.08143 0.0
H68 H 0.65704 0.38746 0.02684 0.0
H69 H 0.81353 0.43577 0.9956 0.0
H70 H 0.85817 0.39534 0.95502 0.0
H71 H 0.76896 0.30805 0.94413 0.0
H72 H 0.72429 0.34832 0.9858 0.0
H73 H 0.70389 0.50057 0.04064 0.0
H74 H 0.6912 0.40935 0.9508 0.0
O75 O 0.76325 0.45309 0.05443 0.0
H76 H 0.65597 0.53965 0.00379 0.0
H77 H 0.642 0.44786 0.91449 0.0
C78 C 0.70861 0.39346 0.06439 0.0
C79 C 0.72543 0.38438 0.1027 0.0
C80 C 0.70342 0.36603 0.13384 0.0
C81 C 0.66435 0.35608 0.12693 0.0
C82 C 0.64842 0.36289 0.0875 0.0
C83 C 0.67048 0.38129 0.05639 0.0
C84 C 0.76592 0.39462 0.99437 0.0
C85 C 0.8034 0.40804 0.9844 0.0
C86 C 0.8288 0.38513 0.96103 0.0
C87 C 0.81677 0.34885 0.94652 0.0
C88 C 0.7786 0.33616 0.95477 0.0
C89 C 0.75329 0.35894 0.97873 0.0
C90 C 0.70169 0.45242 -0.00201 0.0
C91 C 0.69109 0.48909 0.01271 0.0
C92 C 0.66344 0.51128 0.99181 0.0
C93 C 0.64541 0.49694 0.95607 0.0
C94 C 0.65603 0.46005 0.94138 0.0
C95 C 0.68403 0.43796 0.9622 0.0
P96 P 0.32931 0.66721 0.45152 0.0
H97 H 0.36597 0.6272 0.38194 0.0
H98 H 0.38183 0.55912 0.36983 0.0
H99 H 0.32952 0.52816 0.48806 0.0
H100 H 0.31461 0.5966 0.50049 0.0
H101 H 0.28795 0.74017 0.44624 0.0
H102 H 0.21998 0.75655 0.43171 0.0
H103 H 0.19321 0.63474 0.41962 0.0
H104 H 0.26107 0.61852 0.43342 0.0
H105 H 0.39944 0.69167 0.49351 0.0
H106 H 0.28045 0.66443 0.52667 0.0
O107 O 0.35786 0.69486 0.42129 0.0
H108 H 0.41475 0.70002 0.56684 0.0
H109 H 0.29563 0.67304 0.60024 0.0
C110 C 0.34008 0.61698 0.44253 0.0
C111 C 0.3581 0.60582 0.40535 0.0
C112 C 0.36677 0.56688 0.39831 0.0
C113 C 0.35717 0.53842 0.4282 0.0
C114 C 0.33792 0.54958 0.4649 0.0
C115 C 0.32944 0.58864 0.472 0.0
C116 C 0.27959 0.6783 0.44019 0.0
C117 C 0.26744 0.71706 0.4402 0.0
C118 C 0.2287 0.72633 0.43227 0.0
C119 C 0.20165 0.69685 0.42427 0.0
C120 C 0.21376 0.65795 0.42505 0.0
C121 C 0.25253 0.64872 0.433 0.0
C122 C 0.33878 0.67802 0.50477 0.0
C123 C 0.37646 0.68826 0.51653 0.0
C124 C 0.38512 0.69309 0.55834 0.0
C125 C 0.3563 0.68719 0.589 0.0
C126 C 0.31832 0.67758 0.57711 0.0
C127 C 0.30964 0.67293 0.53517 0.0
P128 P 0.82688 0.83639 0.9543 0.0
H129 H 0.80744 0.77263 0.01073 0.0
H130 H 0.81903 0.7619 0.0849 0.0
H131 H 0.87448 0.87417 0.09158 0.0
H132 H 0.86151 0.88539 0.01866 0.0
H133 H 0.79533 0.79732 0.88201 0.0
H134 H 0.72959 0.7752 0.86536 0.0
H135 H 0.68624 0.82394 0.98008 0.0
H136 H 0.7521 0.84541 0.99691 0.0
H137 H 0.89795 0.87828 0.93551 0.0
H138 H 0.7751 0.90416 0.94383 0.0
O139 O 0.85881 0.80814 0.92941 0.0
H140 H 0.9118 0.94704 0.92313 0.0
H141 H 0.78903 0.97302 0.93039 0.0
C142 C 0.83351 0.82978 0.00913 0.0
C143 C 0.82162 0.79509 0.0284 0.0
C144 C 0.82839 0.78892 0.07064 0.0
C145 C 0.84783 0.81714 0.09391 0.0
C146 C 0.85897 0.85212 0.07456 0.0
C147 C 0.85188 0.85839 0.03258 0.0
C148 C 0.77851 0.82207 0.94109 0.0
C149 C 0.77168 0.80311 0.90359 0.0
C150 C 0.7342 0.79071 0.89403 0.0
C151 C 0.70316 0.79736 0.92184 0.0
C152 C 0.70992 0.81768 0.95868 0.0
C153 C 0.7474 0.82999 0.96821 0.0
C154 C 0.83553 0.88604 0.93984 0.0
C155 C 0.87395 0.89862 0.93395 0.0
C156 C 0.88185 0.93781 0.92735 0.0
C157 C 0.85139 0.9649 0.92619 0.0
C158 C 0.81282 0.95239 0.93133 0.0
C159 C 0.80495 0.91311 0.93867 0.0
P160 P 0.23443 0.06476 0.52458 0.0
H161 H 0.24139 0.98679 0.49017 0.0
H162 H 0.19655 0.94655 0.45059 0.0
H163 H 0.11461 0.04159 0.44599 0.0
H164 H 0.15994 0.08196 0.48501 0.0
H165 H 0.31742 0.0651 0.5043 0.0
H166 H 0.35881 0.11049 0.46564 0.0
H167 H 0.25823 0.18077 0.43744 0.0
H168 H 0.21666 0.13508 0.47657 0.0
H169 H 0.16872 0.03882 0.57422 0.0
H170 H 0.23661 0.14359 0.56105 0.0
O171 O 0.26326 0.03422 0.55047 0.0
H172 H 0.13035 0.06878 0.62955 0.0
H173 H 0.19776 0.1739 0.61652 0.0
C174 C 0.20362 0.03707 0.49107 0.0
C175 C 0.214 -0.00087 0.48022 0.0
C176 C 0.18837 0.97617 0.45766 0.0
C177 C 0.15209 0.99092 0.44529 0.0
C178 C 0.14258 0.02961 0.45461 0.0
C179 C 0.1683 0.05258 0.47715 0.0
C180 C 0.26413 0.09724 0.49399 0.0
C181 C 0.30415 0.09019 0.4898 0.0
C182 C 0.32777 0.11599 0.46747 0.0
C183 C 0.31174 0.14928 0.44898 0.0
C184 C 0.27135 0.1556 0.45198 0.0
C185 C 0.24765 0.12956 0.47417 0.0
C186 C 0.20486 0.08923 0.56278 0.0
C187 C 0.17498 0.06849 0.58277 0.0
C188 C 0.15323 0.08554 0.61452 0.0
C189 C 0.16106 0.12367 0.62707 0.0
C190 C 0.19088 0.14465 0.60695 0.0
C191 C 0.21297 0.12735 0.57523 0.0
P192 P 0.24275 0.92404 0.04051 0.0
H193 H 0.25022 0.8931 0.12496 0.0
H194 H 0.20402 0.85966 0.17128 0.0
H195 H 0.12221 0.85165 0.07088 0.0
H196 H 0.16828 0.88507 0.02476 0.0
H197 H 0.3176 0.94456 0.00417 0.0
H198 H 0.36383 0.90938 0.95993 0.0
H199 H 0.28479 0.81218 0.95615 0.0
H200 H 0.23848 0.84752 0.00054 0.0
H201 H 0.21366 0.00222 0.05578 0.0
H202 H 0.20409 0.91574 0.96032 0.0
O203 O 0.26969 0.95076 0.07232 0.0
H204 H 0.16932 0.04455 0.01763 0.0
H205 H 0.1582 0.9571 0.92298 0.0
C206 C 0.21228 0.89253 0.07172 0.0
C207 C 0.22265 0.88349 0.11268 0.0
C208 C 0.19641 0.86405 0.13904 0.0
C209 C 0.15951 0.85324 0.12465 0.0
C210 C 0.15039 0.8599 0.08276 0.0
C211 C 0.17667 0.87918 0.05645 0.0
C212 C 0.27525 0.89812 0.0066 0.0
C213 C 0.31021 0.91567 0.99387 0.0
C214 C 0.33647 0.8957 0.96849 0.0
C215 C 0.3279 0.85803 0.9551 0.0
C216 C 0.29195 0.84124 0.96614 0.0
C217 C 0.26573 0.8612 0.99179 0.0
C218 C 0.21264 0.95616 0.01052 0.0
C219 C 0.20232 0.9925 0.02639 0.0
C220 C 0.17673 0.01653 0.00471 0.0
C221 C 0.1605 0.00435 0.96707 0.0
C222 C 0.17099 0.96782 0.95126 0.0
C223 C 0.19702 0.94403 0.97273 0.0
P224 P 0.81173 0.13726 0.4637 0.0
H225 H 0.77071 0.08104 0.41201 0.0
H226 H 0.7828 0.01245 0.39787 0.0
H227 H 0.87601 0.01253 0.48697 0.0
H228 H 0.86278 0.08026 0.50216 0.0
H229 H 0.78424 0.20385 0.41645 0.0
H230 H 0.71909 0.22724 0.39947 0.0
H231 H 0.66829 0.13285 0.4702 0.0
H232 H 0.73377 0.10901 0.48671 0.0
H233 H 0.87965 0.17732 0.49618 0.0
H234 H 0.77395 0.1259 0.54477 0.0
O235 O 0.84305 0.15679 0.42955 0.0
H236 H 0.90205 0.18837 0.56672 0.0
H237 H 0.79577 0.13799 0.61556 0.0
C238 C 0.81524 0.08552 0.45885 0.0
C239 C 0.79271 0.06587 0.42968 0.0
C240 C 0.79973 0.02672 0.42149 0.0
C241 C 0.82996 0.00689 0.44174 0.0
C242 C 0.85164 0.02648 0.47187 0.0
C243 C 0.84434 0.06544 0.4803 0.0
C244 C 0.76372 0.15453 0.45245 0.0
C245 C 0.75917 0.18808 0.42824 0.0
C246 C 0.72204 0.20141 0.41856 0.0
C247 C 0.68897 0.1817 0.43354 0.0
C248 C 0.6935 0.14857 0.45859 0.0
C249 C 0.73076 0.13501 0.46795 0.0
C250 C 0.82501 0.15106 0.51525 0.0
C251 C 0.86083 0.16922 0.52197 0.0
C252 C 0.87357 0.17563 0.5623 0.0
C253 C 0.85073 0.16377 0.59654 0.0
C254 C 0.81415 0.14692 0.58969 0.0
C255 C 0.80151 0.14036 0.54927 0.0
Sc256 Sc 0.9884 0.76218 0.30483 0.0
Sc257 Sc 0.97749 0.86388 0.30414 0.0
Sc258 Sc 0.98224 0.8136 0.39918 0.0
O259 O 0.9826 0.81318 0.33601 0.0
C260 C 0.93156 0.73855 0.3803 0.0
C261 C 0.92547 0.80674 0.25032 0.0
C262 C 0.91849 0.87825 0.37957 0.0
C263 C 0.04005 0.81916 0.24832 0.0
C264 C 0.04796 0.75062 0.37865 0.0
C265 C 0.0345 0.88779 0.37758 0.0
O266 O 0.94639 0.73264 0.3445 0.0
O267 O 0.93449 0.84035 0.26323 0.0
O268 O 0.93381 0.85336 0.40366 0.0
O269 O 0.03151 0.78532 0.26157 0.0
O270 O 0.03118 0.7746 0.40275 0.0
O271 O 0.02062 0.8928 0.34145 0.0
O272 O 0.03568 0.74342 0.34256 0.0
O273 O 0.02291 0.84955 0.26097 0.0
O274 O 0.02333 0.86049 0.40162 0.0
O275 O 0.94217 0.77598 0.26285 0.0
O276 O 0.94117 0.76687 0.40304 0.0
O277 O 0.93117 0.88451 0.34299 0.0
Sc278 Sc 0.99262 0.22162 0.80503 0.0
Sc279 Sc 0.99022 0.11961 0.80987 0.0
Sc280 Sc 0.98599 0.17289 0.9022 0.0
O281 O 0.98949 0.17147 0.83904 0.0
C282 C 0.04798 0.23947 0.88157 0.0
C283 C 0.05269 0.16675 0.75631 0.0
C284 C 0.043 0.10112 0.88854 0.0
C285 C 0.93659 0.17048 0.74973 0.0
C286 C 0.93196 0.24427 0.87699 0.0
C287 C 0.92693 0.10484 0.88106 0.0
O288 O 0.0367 0.24519 0.84454 0.0
O289 O 0.03821 0.13571 0.77108 0.0
O290 O 0.02877 0.12818 0.9105 0.0
O291 O 0.94918 0.20312 0.76185 0.0
O292 O 0.94334 0.21811 0.90198 0.0
O293 O 0.94226 0.09802 0.84586 0.0
O294 O 0.94648 0.2491 0.8408 0.0
O295 O 0.94907 0.13842 0.76408 0.0
O296 O 0.93954 0.13066 0.90554 0.0
O297 O 0.03914 0.20026 0.76466 0.0
O298 O 0.03235 0.2145 0.9057 0.0
O299 O 0.03204 0.09448 0.85173 0.0
Sc300 Sc 0.48936 0.27461 0.3085 0.0
Sc301 Sc 0.49206 0.37635 0.31246 0.0
Sc302 Sc 0.48602 0.32246 0.40502 0.0
O303 O 0.48906 0.32445 0.342 0.0
C304 C 0.42716 0.25572 0.38103 0.0
C305 C 0.43503 0.32787 0.25381 0.0
C306 C 0.43204 0.39568 0.3844 0.0
C307 C 0.55091 0.32713 0.25784 0.0
C308 C 0.54403 0.25245 0.38346 0.0
C309 C 0.54706 0.39036 0.39093 0.0
O310 O 0.44466 0.24783 0.34707 0.0
O311 O 0.45112 0.35912 0.26565 0.0
O312 O 0.44532 0.37026 0.40935 0.0
O313 O 0.53406 0.29486 0.26521 0.0
O314 O 0.52726 0.27529 0.40883 0.0
O315 O 0.5335 0.3999 0.35569 0.0
O316 O 0.53476 0.25029 0.34549 0.0
O317 O 0.54036 0.35862 0.27474 0.0
O318 O 0.53424 0.36151 0.4117 0.0
O319 O 0.44428 0.29478 0.26822 0.0
O320 O 0.4375 0.28332 0.40441 0.0
O321 O 0.44425 0.39949 0.34729 0.0
Sc322 Sc 0.49327 0.72489 0.80335 0.0
Sc323 Sc 0.47567 0.62442 0.80699 0.0
Sc324 Sc 0.48302 0.67643 0.89979 0.0
O325 O 0.48382 0.67533 0.8367 0.0
C326 C 0.55262 0.73389 0.8784 0.0
C327 C 0.54301 0.66354 0.75169 0.0
C328 C 0.52874 0.59745 0.8821 0.0
C329 C 0.42888 0.68232 0.74896 0.0
C330 C 0.43876 0.75511 0.87655 0.0
C331 C 0.41434 0.61767 0.88216 0.0
O332 O 0.53909 0.74378 0.84333 0.0
O333 O 0.52171 0.63535 0.76336 0.0
O334 O 0.51708 0.62446 0.90578 0.0
O335 O 0.44908 0.71165 0.75888 0.0
O336 O 0.44955 0.72878 0.90168 0.0
O337 O 0.42866 0.60756 0.84737 0.0
O338 O 0.44984 0.75677 0.83874 0.0
O339 O 0.43364 0.64907 0.76543 0.0
O340 O 0.42963 0.64371 0.90451 0.0
O341 O 0.53788 0.69802 0.76466 0.0
O342 O 0.5364 0.70862 0.90165 0.0
O343 O 0.51766 0.59424 0.84476 0.0
C344 C 0.1407 0.29912 0.87945 0.0
C345 C 0.15293 0.29759 0.92088 0.0
C346 C 0.10603 0.28141 0.86737 0.0
C347 C 0.08241 0.26117 0.89625 0.0
H348 H 0.15836 0.31371 0.85604 0.0
H349 H 0.09838 0.28273 0.83486 0.0
S350 S 0.10125 0.25027 0.0092 0.0
N351 N 0.13869 0.27545 0.99114 0.0
N352 N 0.0732 0.24233 0.96883 0.0
C353 C 0.0939 0.26046 0.93816 0.0
C354 C 0.12921 0.27865 0.9504 0.0
C355 C 0.84725 0.69884 0.4442 0.0
C356 C 0.85102 0.65858 0.43918 0.0
C357 C 0.87283 0.72455 0.424 0.0
C358 C 0.90258 0.71092 0.39744 0.0
H359 H 0.82533 0.71044 0.46514 0.0
H360 H 0.86966 0.75534 0.42974 0.0
S361 S 0.92278 0.608 0.37201 0.0
N362 N 0.88544 0.60612 0.40472 0.0
N363 N 0.93315 0.65451 0.36587 0.0
C364 C 0.90554 0.67074 0.3908 0.0
C365 C 0.87989 0.64453 0.41198 0.0
C366 C 0.87725 0.30985 0.95068 0.0
C367 C 0.84557 0.32269 0.92708 0.0
C368 C 0.90494 0.28453 0.93392 0.0
C369 C 0.90241 0.27174 0.89266 0.0
H370 H 0.88034 0.31906 0.98258 0.0
H371 H 0.92874 0.2751 0.95339 0.0
S372 S 0.82513 0.29752 0.81785 0.0
N373 N 0.81288 0.321 0.86062 0.0
N374 N 0.86584 0.27398 0.82845 0.0
C375 C 0.87117 0.28485 0.86845 0.0
C376 C 0.84242 0.31012 0.88589 0.0
C377 C 0.13995 0.73223 0.43984 0.0
C378 C 0.16113 0.70704 0.41403 0.0
C379 C 0.10264 0.74479 0.42905 0.0
C380 C 0.08525 0.73286 0.39182 0.0
H381 H 0.15258 0.74277 0.46831 0.0
H382 H 0.08793 0.76497 0.44954 0.0
S383 S 0.12888 0.66574 0.31418 0.0
N384 N 0.16228 0.66974 0.35037 0.0
N385 N 0.092 0.69282 0.3299 0.0
C386 C 0.10587 0.70654 0.36636 0.0
C387 C 0.14384 0.69378 0.37751 0.0
C388 C 0.64741 0.79017 0.87367 0.0
C389 C 0.66396 0.7825 0.91251 0.0
C390 C 0.61105 0.77506 0.86339 0.0
C391 C 0.5899 0.75142 0.89153 0.0
H392 H 0.66279 0.80793 0.85095 0.0
H393 H 0.59986 0.78149 0.8328 0.0
S394 S 0.62112 0.72287 0.99762 0.0
N395 N 0.65708 0.74997 0.97932 0.0
N396 N 0.5884 0.72166 0.96046 0.0
C397 C 0.60608 0.74398 0.93083 0.0
C398 C 0.64315 0.75951 0.94124 0.0
C399 C 0.36528 0.16575 0.39862 0.0
C400 C 0.33779 0.17797 0.42845 0.0
C401 C 0.39304 0.19152 0.3821 0.0
C402 C 0.39474 0.23034 0.39531 0.0
H403 H 0.36577 0.13581 0.38858 0.0
H404 H 0.41425 0.18048 0.36002 0.0
S405 S 0.3277 0.27715 0.47112 0.0
N406 N 0.31275 0.23168 0.46923 0.0
N407 N 0.36483 0.28024 0.43829 0.0
C408 C 0.3665 0.24321 0.42413 0.0
C409 C 0.33804 0.21702 0.44063 0.0
C410 C 0.3496 0.81783 0.89436 0.0
C411 C 0.35778 0.83501 0.93283 0.0
C412 C 0.37695 0.7936 0.87464 0.0
C413 C 0.41281 0.78527 0.89339 0.0
H414 H 0.3217 0.82272 0.87981 0.0
H415 H 0.36933 0.77994 0.84565 0.0
S416 S 0.44856 0.82393 0.9931 0.0
N417 N 0.40474 0.84303 0.98803 0.0
N418 N 0.45569 0.7971 0.95144 0.0
C419 C 0.42159 0.80302 0.93125 0.0
C420 C 0.39417 0.82802 0.95089 0.0
C421 C 0.64102 0.20054 0.3799 0.0
C422 C 0.64999 0.19571 0.42201 0.0
C423 C 0.60579 0.21722 0.36784 0.0
C424 C 0.57841 0.23021 0.39752 0.0
H425 H 0.66179 0.19203 0.35608 0.0
H426 H 0.60081 0.22133 0.33495 0.0
S427 S 0.58748 0.22163 0.51202 0.0
N428 N 0.62842 0.20306 0.49353 0.0
N429 N 0.56193 0.2348 0.4711 0.0
C430 C 0.58654 0.22419 0.43986 0.0
C431 C 0.62239 0.2068 0.45206 0.0
C432 C 0.34057 0.53727 0.88791 0.0
C433 C 0.33795 0.53005 0.93081 0.0
C434 C 0.36214 0.56862 0.87239 0.0
C435 C 0.38204 0.59374 0.8992 0.0
H436 H 0.32898 0.51668 0.866 0.0
H437 H 0.36575 0.57125 0.83902 0.0
S438 S 0.37545 0.59284 0.01434 0.0
N439 N 0.34998 0.55467 -1e-05 0.0
N440 N 0.39119 0.61355 0.97093 0.0
C441 C 0.3754 0.58968 0.94222 0.0
C442 C 0.35327 0.55771 0.95801 0.0
C443 C 0.62778 0.42208 0.46312 0.0
C444 C 0.63686 0.45966 0.4489 0.0
C445 C 0.59913 0.39983 0.44384 0.0
C446 C 0.57857 0.41414 0.40929 0.0
H447 H 0.64229 0.41009 0.49003 0.0
H448 H 0.59294 0.37124 0.45642 0.0
S449 S 0.59338 0.51034 0.35865 0.0
N450 N 0.62457 0.50977 0.39731 0.0
N451 N 0.57059 0.4682 0.3609 0.0
C452 C 0.58815 0.45147 0.39414 0.0
C453 C 0.61723 0.47417 0.41403 0.0
C454 C 0.58539 0.53774 0.95993 0.0
C455 C 0.6146 0.5202 0.93553 0.0
C456 C 0.55731 0.5619 0.94213 0.0
C457 C 0.55702 0.56925 0.89913 0.0
H458 H 0.58437 0.533 0.99321 0.0
H459 H 0.53576 0.57512 0.96238 0.0
S460 S 0.62723 0.53056 0.82144 0.0
N461 N 0.64172 0.51198 0.8661 0.0
N462 N 0.58832 0.5569 0.83241 0.0
C463 C 0.58545 0.55117 0.87412 0.0
C464 C 0.61436 0.52675 0.89237 0.0
C465 C 0.36311 0.48058 0.38242 0.0
C466 C 0.36921 0.49766 0.42131 0.0
C467 C 0.38095 0.44546 0.37194 0.0
C468 C 0.40537 0.42601 0.40005 0.0
H469 H 0.34599 0.49547 0.35914 0.0
H470 H 0.3773 0.43456 0.34074 0.0
S471 S 0.42746 0.45659 0.50748 0.0
N472 N 0.39882 0.49109 0.48926 0.0
N473 N 0.43187 0.42459 0.46981 0.0
C474 C 0.40909 0.44111 0.44028 0.0
C475 C 0.39114 0.47712 0.45085 0.0
C476 C 0.88361 0.026 0.94733 0.0
C477 C 0.86078 0.00597 0.91858 0.0
C478 C 0.90154 0.06116 0.93649 0.0
C479 C 0.8978 0.07671 0.89627 0.0
H480 H 0.88971 0.01309 0.97734 0.0
H481 H 0.92133 0.07416 0.95838 0.0
S482 S 0.83634 0.03806 0.81211 0.0
N483 N 0.83127 0.0063 0.85045 0.0
N484 N 0.86561 0.07216 0.82957 0.0
C485 C 0.87222 0.05863 0.86861 0.0
C486 C 0.85355 0.02318 0.8799 0.0
C487 C 0.11467 0.92893 0.44468 0.0
C488 C 0.12311 0.96493 0.42593 0.0
C489 C 0.08628 0.90432 0.42858 0.0
C490 C 0.06514 0.91452 0.39284 0.0
H491 H 0.12961 0.91998 0.47263 0.0
H492 H 0.08087 0.87705 0.44454 0.0
S493 S 0.07758 0.00523 0.33106 0.0
N494 N 0.10922 0.00927 0.36904 0.0
N495 N 0.05557 0.96313 0.33858 0.0
C496 C 0.07379 0.95029 0.37332 0.0
C497 C 0.10272 0.97547 0.38996 0.0
C498 C 0.10108 0.04627 0.96925 0.0
C499 C 0.13111 0.02891 0.94582 0.0
C500 C 0.07284 0.06955 0.9504 0.0
C501 C 0.07318 0.07607 0.90725 0.0
H502 H 0.09907 0.0415 0.00249 0.0
H503 H 0.05025 0.08214 0.96979 0.0
S504 S 0.14674 0.03929 0.83206 0.0
N505 N 0.16057 0.02146 0.8773 0.0
N506 N 0.10674 0.06445 0.84166 0.0
C507 C 0.103 0.05897 0.88334 0.0
C508 C 0.13211 0.03558 0.90265 0.0
C509 C 0.84985 0.96373 0.3837 0.0
C510 C 0.8436 0.96866 0.42652 0.0
C511 C 0.87139 0.93238 0.36862 0.0
C512 C 0.8879 0.9048 0.39574 0.0
H513 H 0.84056 0.98572 0.36175 0.0
H514 H 0.87714 0.9313 0.3355 0.0
S515 S 0.87232 0.9001 0.50999 0.0
N516 N 0.84954 0.94004 0.49532 0.0
N517 N 0.8908 0.88115 0.46716 0.0
C518 C 0.87847 0.90725 0.43834 0.0
C519 C 0.85627 0.93925 0.45367 0.0
C520 C 0.37935 0.36743 0.1618 0.0
C521 C 0.36157 0.3342 0.14558 0.0
C522 C 0.40147 0.3654 0.19793 0.0
C523 C 0.40678 0.33 0.21927 0.0
H524 H 0.37776 0.39491 0.14534 0.0
H525 H 0.41581 0.39161 0.20809 0.0
S526 S 0.36107 0.23575 0.1925 0.0
N527 N 0.34688 0.26588 0.15555 0.0
N528 N 0.38851 0.26167 0.22366 0.0
C529 C 0.38704 0.29697 0.20466 0.0
C530 C 0.36451 0.29915 0.16773 0.0
C531 C 0.60336 0.60801 0.67315 0.0
C532 C 0.63795 0.62953 0.6698 0.0
C533 C 0.57265 0.62017 0.69861 0.0
C534 C 0.57506 0.65447 0.722 0.0
H535 H 0.60007 0.58122 0.65612 0.0
H536 H 0.5469 0.60206 0.70029 0.0
S537 S 0.65917 0.72202 0.72317 0.0
N538 N 0.6728 0.68737 0.6909 0.0
N539 N 0.61475 0.71049 0.73915 0.0
C540 C 0.60907 0.67706 0.71797 0.0
C541 C 0.64057 0.66454 0.69179 0.0
C542 C 0.63801 0.36646 0.19832 0.0
C543 C 0.63887 0.34385 0.16217 0.0
C544 C 0.61058 0.35951 0.22988 0.0
C545 C 0.58305 0.32945 0.22683 0.0
H546 H 0.65746 0.39098 0.20141 0.0
H547 H 0.61024 0.37869 0.25641 0.0
S548 S 0.57565 0.25939 0.14029 0.0
N549 N 0.6119 0.28832 0.12636 0.0
N550 N 0.56018 0.27507 0.18594 0.0
C551 C 0.58495 0.3052 0.19188 0.0
C552 C 0.61279 0.31254 0.15944 0.0
C553 C 0.38816 0.72038 0.64802 0.0
C554 C 0.36722 0.68848 0.63319 0.0
C555 C 0.4054 0.71929 0.68712 0.0
C556 C 0.4028 0.68598 0.71268 0.0
H557 H 0.39269 0.74571 0.62844 0.0
H558 H 0.42286 0.74394 0.69613 0.0
S559 S 0.34646 0.59674 0.68995 0.0
N560 N 0.34129 0.62428 0.64823 0.0
N561 N 0.37344 0.62209 0.72207 0.0
C562 C 0.37928 0.65503 0.6994 0.0
C563 C 0.36158 0.6563 0.65955 0.0
C564 C 0.85553 0.83874 0.16716 0.0
C565 C 0.85987 0.80953 0.13721 0.0
C566 C 0.87444 0.83618 0.20533 0.0
C567 C 0.89829 0.80423 0.21503 0.0
H568 H 0.83906 0.86475 0.16014 0.0
H569 H 0.87198 0.86043 0.22643 0.0
S570 S 0.91517 0.71768 0.14903 0.0
N571 N 0.88683 0.7461 0.12106 0.0
N572 N 0.92168 0.74068 0.19317 0.0
C573 C 0.90004 0.7732 0.18677 0.0
C574 C 0.88101 0.77601 0.14773 0.0
C575 C 0.13617 0.11895 0.69965 0.0
C576 C 0.13866 0.14015 0.66233 0.0
C577 C 0.11017 0.12971 0.73115 0.0
C578 C 0.08552 0.16211 0.72662 0.0
H579 H 0.15335 0.09285 0.70382 0.0
H580 H 0.10813 0.11141 0.75859 0.0
S581 S 0.08338 0.22929 0.63625 0.0
N582 N 0.11663 0.19664 0.6236 0.0
N583 N 0.06744 0.21706 0.68313 0.0
C584 C 0.08961 0.18517 0.69064 0.0
C585 C 0.11625 0.1741 0.65837 0.0
C586 C 0.09364 0.86193 0.15577 0.0
C587 C 0.12861 0.84078 0.15435 0.0
C588 C 0.06507 0.854 0.18582 0.0
C589 C 0.07001 0.82424 0.21541 0.0
H590 H 0.08883 0.88578 0.13433 0.0
H591 H 0.03896 0.87168 0.18609 0.0
S592 S 0.15548 0.75896 0.2238 0.0
N593 N 0.16626 0.78793 0.18421 0.0
N594 N 0.11194 0.7725 0.2406 0.0
C595 C 0.10425 0.8019 0.21359 0.0
C596 C 0.13377 0.8104 0.18319 0.0
C597 C 0.88441 0.20111 0.65177 0.0
C598 C 0.86683 0.16649 0.63887 0.0
C599 C 0.905 0.20274 0.68898 0.0
C600 C 0.90912 0.16967 0.71452 0.0
H601 H 0.88328 0.22682 0.63227 0.0
H602 H 0.91933 0.22971 0.69666 0.0
S603 S 0.86516 0.07285 0.69638 0.0
N604 N 0.8525 0.09907 0.65562 0.0
N605 N 0.89064 0.10214 0.72595 0.0
C606 C 0.88969 0.13543 0.70307 0.0
C607 C 0.86867 0.13384 0.66516 0.0
loop_
_geom_bond_atom_site_label_1
_geom_bond_atom_site_label_2
_geom_bond_distance
_geom_bond_site_symmetry_2
_ccdc_geom_bond_type
P0 O11 1.490 . S
P0 C14 1.812 1_556 S
P0 C20 1.803 . S
P0 C26 1.819 . S
H1 C15 0.941 . S
H2 C16 0.939 . S
H3 C18 0.940 . S
H4 C19 0.940 . S
H5 C21 0.939 . S
H6 C22 0.942 . S
H7 C24 0.940 1_554 S
H8 C25 0.941 1_554 S
H9 C27 0.941 . S
H10 C31 0.939 . S
O11 P0 1.490 . S
H12 C28 0.939 . S
H13 C30 0.940 . S
C14 P0 1.812 1_554 S
C14 C15 1.389 . S
C14 C19 1.391 . S
C15 H1 0.941 . S
C15 C14 1.389 . S
C15 C16 1.397 . S
C16 H2 0.939 . S
C16 C15 1.397 . S
C16 C17 1.378 . S
C17 C16 1.378 . S
C17 C18 1.378 . S
C18 H3 0.940 . S
C18 C17 1.378 . S
C18 C19 1.396 . S
C19 H4 0.940 . S
C19 C14 1.391 . S
C19 C18 1.396 . S
C20 P0 1.803 . S
C20 C21 1.378 . S
C20 C25 1.398 . S
C21 H5 0.939 . S
C21 C20 1.378 . S
C21 C22 1.361 . S
C22 H6 0.942 . S
C22 C21 1.361 . S
C22 C23 1.369 . S
C23 C22 1.369 . S
C23 C24 1.404 . S
C24 H7 0.940 1_556 S
C24 C23 1.404 . S
C24 C25 1.389 . S
C25 H8 0.941 1_556 S
C25 C20 1.398 . S
C25 C24 1.389 . S
C26 P0 1.819 . S
C26 C27 1.391 . S
C26 C31 1.391 . S
C27 H9 0.941 . S
C27 C26 1.391 . S
C27 C28 1.396 . S
C28 H12 0.939 . S
C28 C27 1.396 . S
C28 C29 1.397 . S
C29 C28 1.397 . S
C29 C30 1.385 . S
C30 H13 0.940 . S
C30 C29 1.385 . S
C30 C31 1.388 . S
C31 H10 0.939 . S
C31 C26 1.391 . S
C31 C30 1.388 . S
P32 O43 1.490 . S
P32 C46 1.812 . S
P32 C52 1.803 . S
P32 C58 1.819 . S
H33 C47 0.941 . S
H34 C48 0.939 . S
H35 C50 0.940 . S
H36 C51 0.940 . S
H37 C53 0.939 . S
H38 C54 0.942 . S
H39 C56 0.940 . S
H40 C57 0.939 . S
H41 C59 0.941 . S
H42 C63 0.939 . S
O43 P32 1.490 . S
H44 C60 0.939 . S
H45 C62 0.940 . S
C46 P32 1.812 . S
C46 C47 1.389 . S
C46 C51 1.391 . S
C47 H33 0.941 . S
C47 C46 1.389 . S
C47 C48 1.397 . S
C48 H34 0.939 . S
C48 C47 1.397 . S
C48 C49 1.378 . S
C49 C48 1.378 . S
C49 C50 1.378 . S
C50 H35 0.940 . S
C50 C49 1.378 . S
C50 C51 1.396 . S
C51 H36 0.940 . S
C51 C46 1.391 . S
C51 C50 1.396 . S
C52 P32 1.803 . S
C52 C53 1.378 . S
C52 C57 1.400 . S
C53 H37 0.939 . S
C53 C52 1.378 . S
C53 C54 1.361 . S
C54 H38 0.942 . S
C54 C53 1.361 . S
C54 C55 1.369 . S
C55 C54 1.369 . S
C55 C56 1.404 . S
C56 H39 0.940 . S
C56 C55 1.404 . S
C56 C57 1.389 . S
C57 H40 0.939 . S
C57 C52 1.400 . S
C57 C56 1.389 . S
C58 P32 1.819 . S
C58 C59 1.391 . S
C58 C63 1.391 . S
C59 H41 0.941 . S
C59 C58 1.391 . S
C59 C60 1.396 . S
C60 H44 0.939 . S
C60 C59 1.396 . S
C60 C61 1.397 . S
C61 C60 1.397 . S
C61 C62 1.385 . S
C62 H45 0.940 . S
C62 C61 1.385 . S
C62 C63 1.388 . S
C63 H42 0.939 . S
C63 C58 1.391 . S
C63 C62 1.388 . S
P64 O75 1.490 . S
P64 C78 1.812 . S
P64 C84 1.803 . S
P64 C90 1.819 1_554 S
H65 C79 0.941 . S
H66 C80 0.939 . S
H67 C82 0.940 . S
H68 C83 0.940 . S
H69 C85 0.939 . S
H70 C86 0.942 . S
H71 C88 0.940 . S
H72 C89 0.930 1_554 S
H73 C91 0.941 . S
H74 C95 0.939 . S
O75 P64 1.490 . S
H76 C92 0.939 . S
H77 C94 0.940 . S
C78 P64 1.812 . S
C78 C79 1.389 . S
C78 C83 1.391 . S
C79 H65 0.941 . S
C79 C78 1.389 . S
C79 C80 1.397 . S
C80 H66 0.939 . S
C80 C79 1.397 . S
C80 C81 1.378 . S
C81 C80 1.378 . S
C81 C82 1.378 . S
C82 H67 0.940 . S
C82 C81 1.378 . S
C82 C83 1.396 . S
C83 H68 0.940 . S
C83 C78 1.391 . S
C83 C82 1.396 . S
C84 P64 1.803 . S
C84 C85 1.378 1_554 S
C84 C89 1.394 1_554 S
C85 H69 0.939 . S
C85 C84 1.378 1_556 S
C85 C86 1.361 . S
C86 H70 0.942 . S
C86 C85 1.361 . S
C86 C87 1.369 . S
C87 C86 1.369 . S
C87 C88 1.404 . S
C88 H71 0.940 . S
C88 C87 1.404 . S
C88 C89 1.404 . S
C89 H72 0.930 1_556 S
C89 C84 1.394 1_556 S
C89 C88 1.404 . S
C90 P64 1.819 1_556 S
C90 C91 1.391 1_556 S
C90 C95 1.391 . S
C91 H73 0.941 . S
C91 C90 1.391 1_554 S
C91 C92 1.396 1_554 S
C92 H76 0.939 . S
C92 C91 1.396 1_556 S
C92 C93 1.397 . S
C93 C92 1.397 . S
C93 C94 1.385 . S
C94 H77 0.940 . S
C94 C93 1.385 . S
C94 C95 1.388 . S
C95 H74 0.939 . S
C95 C90 1.391 . S
C95 C94 1.388 . S
P96 O107 1.490 . S
P96 C110 1.812 . S
P96 C116 1.803 . S
P96 C122 1.819 . S
H97 C111 0.941 . S
H98 C112 0.939 . S
H99 C114 0.940 . S
H100 C115 0.940 . S
H101 C117 0.939 . S
H102 C118 0.942 . S
H103 C120 0.940 . S
H104 C121 0.939 . S
H105 C123 0.941 . S
H106 C127 0.939 . S
O107 P96 1.490 . S
H108 C124 0.939 . S
H109 C126 0.940 . S
C110 P96 1.812 . S
C110 C111 1.389 . S
C110 C115 1.391 . S
C111 H97 0.941 . S
C111 C110 1.389 . S
C111 C112 1.397 . S
C112 H98 0.939 . S
C112 C111 1.397 . S
C112 C113 1.378 . S
C113 C112 1.378 . S
C113 C114 1.378 . S
C114 H99 0.940 . S
C114 C113 1.378 . S
C114 C115 1.396 . S
C115 H100 0.940 . S
C115 C110 1.391 . S
C115 C114 1.396 . S
C116 P96 1.803 . S
C116 C117 1.378 . S
C116 C121 1.400 . S
C117 H101 0.939 . S
C117 C116 1.378 . S
C117 C118 1.361 . S
C118 H102 0.942 . S
C118 C117 1.361 . S
C118 C119 1.369 . S
C119 C118 1.369 . S
C119 C120 1.404 . S
C120 H103 0.940 . S
C120 C119 1.404 . S
C120 C121 1.389 . S
C121 H104 0.939 . S
C121 C116 1.400 . S
C121 C120 1.389 . S
C122 P96 1.819 . S
C122 C123 1.391 . S
C122 C127 1.391 . S
C123 H105 0.941 . S
C123 C122 1.391 . S
C123 C124 1.396 . S
C124 H108 0.939 . S
C124 C123 1.396 . S
C124 C125 1.397 . S
C125 C124 1.397 . S
C125 C126 1.385 . S
C126 H109 0.940 . S
C126 C125 1.385 . S
C126 C127 1.388 . S
C127 H106 0.939 . S
C127 C122 1.391 . S
C127 C126 1.388 . S
P128 O139 1.490 . S
P128 C142 1.812 1_556 S
P128 C148 1.803 . S
P128 C154 1.819 . S
H129 C143 0.941 . S
H130 C144 0.939 . S
H131 C146 0.940 . S
H132 C147 0.940 . S
H133 C149 0.939 . S
H134 C150 0.942 . S
H135 C152 0.940 1_554 S
H136 C153 0.941 1_554 S
H137 C155 0.941 . S
H138 C159 0.939 . S
O139 P128 1.490 . S
H140 C156 0.939 . S
H141 C158 0.940 . S
C142 P128 1.812 1_554 S
C142 C143 1.389 . S
C142 C147 1.391 . S
C143 H129 0.941 . S
C143 C142 1.389 . S
C143 C144 1.397 . S
C144 H130 0.939 . S
C144 C143 1.397 . S
C144 C145 1.378 . S
C145 C144 1.378 . S
C145 C146 1.378 . S
C146 H131 0.940 . S
C146 C145 1.378 . S
C146 C147 1.396 . S
C147 H132 0.940 . S
C147 C142 1.391 . S
C147 C146 1.396 . S
C148 P128 1.803 . S
C148 C149 1.378 . S
C148 C153 1.398 . S
C149 H133 0.939 . S
C149 C148 1.378 . S
C149 C150 1.361 . S
C150 H134 0.942 . S
C150 C149 1.361 . S
C150 C151 1.369 . S
C151 C150 1.369 . S
C151 C152 1.404 . S
C152 H135 0.940 1_556 S
C152 C151 1.404 . S
C152 C153 1.389 . S
C153 H136 0.941 1_556 S
C153 C148 1.398 . S
C153 C152 1.389 . S
C154 P128 1.819 . S
C154 C155 1.391 . S
C154 C159 1.391 . S
C155 H137 0.941 . S
C155 C154 1.391 . S
C155 C156 1.396 . S
C156 H140 0.939 . S
C156 C155 1.396 . S
C156 C157 1.397 . S
C157 C156 1.397 . S
C157 C158 1.385 . S
C158 H141 0.940 . S
C158 C157 1.385 . S
C158 C159 1.388 . S
C159 H138 0.939 . S
C159 C154 1.391 . S
C159 C158 1.388 . S
P160 O171 1.490 . S
P160 C174 1.812 . S
P160 C180 1.803 . S
P160 C186 1.819 . S
H161 C175 0.947 . S
H162 C176 0.939 . S
H163 C178 0.940 . S
H164 C179 0.940 . S
H165 C181 0.939 . S
H166 C182 0.942 . S
H167 C184 0.940 . S
H168 C185 0.939 . S
H169 C187 0.941 . S
H170 C191 0.939 . S
O171 P160 1.490 . S
H172 C188 0.939 . S
H173 C190 0.940 . S
C174 P160 1.812 . S
C174 C175 1.375 1_545 S
C174 C179 1.391 . S
C175 H161 0.947 . S
C175 C174 1.375 1_565 S
C175 C176 1.405 . S
C176 H162 0.939 . S
C176 C175 1.405 . S
C176 C177 1.378 . S
C177 C176 1.378 . S
C177 C178 1.378 1_565 S
C178 H163 0.940 . S
C178 C177 1.378 1_545 S
C178 C179 1.396 . S
C179 H164 0.940 . S
C179 C174 1.391 . S
C179 C178 1.396 . S
C180 P160 1.803 . S
C180 C181 1.378 . S
C180 C185 1.400 . S
C181 H165 0.939 . S
C181 C180 1.378 . S
C181 C182 1.361 . S
C182 H166 0.942 . S
C182 C181 1.361 . S
C182 C183 1.369 . S
C183 C182 1.369 . S
C183 C184 1.404 . S
C184 H167 0.940 . S
C184 C183 1.404 . S
C184 C185 1.389 . S
C185 H168 0.939 . S
C185 C180 1.400 . S
C185 C184 1.389 . S
C186 P160 1.819 . S
C186 C187 1.391 . S
C186 C191 1.391 . S
C187 H169 0.941 . S
C187 C186 1.391 . S
C187 C188 1.396 . S
C188 H172 0.939 . S
C188 C187 1.396 . S
C188 C189 1.397 . S
C189 C188 1.397 . S
C189 C190 1.385 . S
C190 H173 0.940 . S
C190 C189 1.385 . S
C190 C191 1.388 . S
C191 H170 0.939 . S
C191 C186 1.391 . S
C191 C190 1.388 . S
P192 O203 1.490 . S
P192 C206 1.812 . S
P192 C212 1.803 . S
P192 C218 1.819 1_554 S
H193 C207 0.941 . S
H194 C208 0.939 . S
H195 C210 0.940 . S
H196 C211 0.940 . S
H197 C213 0.939 . S
H198 C214 0.942 . S
H199 C216 0.940 . S
H200 C217 0.930 1_554 S
H201 C219 0.941 1_545 S
H202 C223 0.939 . S
O203 P192 1.490 . S
H204 C220 0.939 . S
H205 C222 0.940 . S
C206 P192 1.812 . S
C206 C207 1.389 . S
C206 C211 1.391 . S
C207 H193 0.941 . S
C207 C206 1.389 . S
C207 C208 1.397 . S
C208 H194 0.939 . S
C208 C207 1.397 . S
C208 C209 1.378 . S
C209 C208 1.378 . S
C209 C210 1.378 . S
C210 H195 0.940 . S
C210 C209 1.378 . S
C210 C211 1.396 . S
C211 H196 0.940 . S
C211 C206 1.391 . S
C211 C210 1.396 . S
C212 P192 1.803 . S
C212 C213 1.378 1_554 S
C212 C217 1.394 1_554 S
C213 H197 0.939 . S
C213 C212 1.378 1_556 S
C213 C214 1.361 . S
C214 H198 0.942 . S
C214 C213 1.361 . S
C214 C215 1.369 . S
C215 C214 1.369 . S
C215 C216 1.404 . S
C216 H199 0.940 . S
C216 C215 1.404 . S
C216 C217 1.404 . S
C217 H200 0.930 1_556 S
C217 C212 1.394 1_556 S
C217 C216 1.404 . S
C218 P192 1.819 1_556 S
C218 C219 1.391 1_556 S
C218 C223 1.391 . S
C219 H201 0.941 1_565 S
C219 C218 1.391 1_554 S
C219 C220 1.396 1_564 S
C220 H204 0.939 . S
C220 C219 1.396 1_546 S
C220 C221 1.397 . S
C221 C220 1.397 . S
C221 C222 1.385 1_545 S
C222 H205 0.940 . S
C222 C221 1.385 1_565 S
C222 C223 1.388 . S
C223 H202 0.939 . S
C223 C218 1.391 . S
C223 C222 1.388 . S
P224 O235 1.490 . S
P224 C238 1.812 . S
P224 C244 1.803 . S
P224 C250 1.819 . S
H225 C239 0.941 . S
H226 C240 0.939 . S
H227 C242 0.940 1_565 S
H228 C243 0.940 . S
H229 C245 0.939 . S
H230 C246 0.942 . S
H231 C248 0.940 . S
H232 C249 0.939 . S
H233 C251 0.941 . S
H234 C255 0.939 . S
O235 P224 1.490 . S
H236 C252 0.939 . S
H237 C254 0.940 . S
C238 P224 1.812 . S
C238 C239 1.389 . S
C238 C243 1.391 . S
C239 H225 0.941 . S
C239 C238 1.389 . S
C239 C240 1.397 . S
C240 H226 0.939 . S
C240 C239 1.397 . S
C240 C241 1.378 . S
C241 C240 1.378 . S
C241 C242 1.378 . S
C242 H227 0.940 1_545 S
C242 C241 1.378 . S
C242 C243 1.396 . S
C243 H228 0.940 . S
C243 C238 1.391 . S
C243 C242 1.396 . S
C244 P224 1.803 . S
C244 C245 1.378 . S
C244 C249 1.400 . S
C245 H229 0.939 . S
C245 C244 1.378 . S
C245 C246 1.361 . S
C246 H230 0.942 . S
C246 C245 1.361 . S
C246 C247 1.369 . S
C247 C246 1.369 . S
C247 C248 1.404 . S
C248 H231 0.940 . S
C248 C247 1.404 . S
C248 C249 1.389 . S
C249 H232 0.939 . S
C249 C244 1.400 . S
C249 C248 1.389 . S
C250 P224 1.819 . S
C250 C251 1.391 . S
C250 C255 1.391 . S
C251 H233 0.941 . S
C251 C250 1.391 . S
C251 C252 1.396 . S
C252 H236 0.939 . S
C252 C251 1.396 . S
C252 C253 1.397 . S
C253 C252 1.397 . S
C253 C254 1.385 . S
C254 H237 0.940 . S
C254 C253 1.385 . S
C254 C255 1.388 . S
C255 H234 0.939 . S
C255 C250 1.391 . S
C255 C254 1.388 . S
Sc256 O259 2.025 . S
Sc256 O266 2.105 1_455 S
Sc256 O269 2.105 . S
Sc256 O272 2.105 . S
Sc256 O275 2.105 1_455 S
Sc257 O259 2.025 . S
Sc257 O267 2.105 1_455 S
Sc257 O271 2.105 . S
Sc257 O273 2.105 . S
Sc257 O277 2.105 1_455 S
Sc258 O259 2.025 . S
Sc258 O268 2.105 1_455 S
Sc258 O270 2.105 . S
Sc258 O274 2.105 . S
Sc258 O276 2.105 1_455 S
O259 Sc256 2.025 . S
O259 Sc257 2.025 . S
O259 Sc258 2.025 . S
C260 O266 1.268 . S
C260 O276 1.268 . S
C261 O267 1.268 . S
C261 O275 1.268 . S
C262 O268 1.268 . S
C262 O277 1.268 . S
C263 O269 1.268 . S
C263 O273 1.268 . S
C264 O270 1.268 . S
C264 O272 1.268 . S
C265 O271 1.268 . S
C265 O274 1.268 . S
O266 Sc256 2.105 1_655 S
O266 C260 1.268 . S
O267 Sc257 2.105 1_655 S
O267 C261 1.268 . S
O268 Sc258 2.105 1_655 S
O268 C262 1.268 . S
O269 Sc256 2.105 . S
O269 C263 1.268 . S
O270 Sc258 2.105 . S
O270 C264 1.268 . S
O271 Sc257 2.105 . S
O271 C265 1.268 . S
O272 Sc256 2.105 . S
O272 C264 1.268 . S
O273 Sc257 2.105 . S
O273 C263 1.268 . S
O274 Sc258 2.105 . S
O274 C265 1.268 . S
O275 Sc256 2.105 1_655 S
O275 C261 1.268 . S
O276 Sc258 2.105 1_655 S
O276 C260 1.268 . S
O277 Sc257 2.105 1_655 S
O277 C262 1.268 . S
Sc278 O281 2.025 . S
Sc278 O288 2.105 . S
Sc278 O291 2.105 1_455 S
Sc278 O294 2.105 1_455 S
Sc278 O297 2.105 . S
Sc279 O281 2.025 . S
Sc279 O289 2.105 . S
Sc279 O293 2.105 1_455 S
Sc279 O295 2.105 1_455 S
Sc279 O299 2.105 . S
Sc280 O281 2.025 . S
Sc280 O290 2.105 . S
Sc280 O292 2.105 1_455 S
Sc280 O296 2.105 1_455 S
Sc280 O298 2.105 . S
O281 Sc278 2.025 . S
O281 Sc279 2.025 . S
O281 Sc280 2.025 . S
C282 O288 1.268 . S
C282 O298 1.268 . S
C283 O289 1.268 . S
C283 O297 1.268 . S
C284 O290 1.268 . S
C284 O299 1.268 . S
C285 O291 1.268 . S
C285 O295 1.268 . S
C286 O292 1.268 . S
C286 O294 1.268 . S
C287 O293 1.268 . S
C287 O296 1.268 . S
O288 Sc278 2.105 . S
O288 C282 1.268 . S
O289 Sc279 2.105 . S
O289 C283 1.268 . S
O290 Sc280 2.105 . S
O290 C284 1.268 . S
O291 Sc278 2.105 1_655 S
O291 C285 1.268 . S
O292 Sc280 2.105 1_655 S
O292 C286 1.268 . S
O293 Sc279 2.105 1_655 S
O293 C287 1.268 . S
O294 Sc278 2.105 1_655 S
O294 C286 1.268 . S
O295 Sc279 2.105 1_655 S
O295 C285 1.268 . S
O296 Sc280 2.105 1_655 S
O296 C287 1.268 . S
O297 Sc278 2.105 . S
O297 C283 1.268 . S
O298 Sc280 2.105 . S
O298 C282 1.268 . S
O299 Sc279 2.105 . S
O299 C284 1.268 . S
Sc300 O303 2.025 . S
Sc300 O310 2.105 . S
Sc300 O313 2.105 . S
Sc300 O316 2.105 . S
Sc300 O319 2.105 . S
Sc301 O303 2.025 . S
Sc301 O311 2.105 . S
Sc301 O315 2.105 . S
Sc301 O317 2.105 . S
Sc301 O321 2.105 . S
Sc302 O303 2.025 . S
Sc302 O312 2.105 . S
Sc302 O314 2.105 . S
Sc302 O318 2.105 . S
Sc302 O320 2.105 . S
O303 Sc300 2.025 . S
O303 Sc301 2.025 . S
O303 Sc302 2.025 . S
C304 O310 1.268 . S
C304 O320 1.268 . S
C305 O311 1.268 . S
C305 O319 1.268 . S
C306 O312 1.268 . S
C306 O321 1.268 . S
C307 O313 1.268 . S
C307 O317 1.268 . S
C308 O314 1.268 . S
C308 O316 1.268 . S
C309 O315 1.268 . S
C309 O318 1.268 . S
O310 Sc300 2.105 . S
O310 C304 1.268 . S
O311 Sc301 2.105 . S
O311 C305 1.268 . S
O312 Sc302 2.105 . S
O312 C306 1.268 . S
O313 Sc300 2.105 . S
O313 C307 1.268 . S
O314 Sc302 2.105 . S
O314 C308 1.268 . S
O315 Sc301 2.105 . S
O315 C309 1.268 . S
O316 Sc300 2.105 . S
O316 C308 1.268 . S
O317 Sc301 2.105 . S
O317 C307 1.268 . S
O318 Sc302 2.105 . S
O318 C309 1.268 . S
O319 Sc300 2.105 . S
O319 C305 1.268 . S
O320 Sc302 2.105 . S
O320 C304 1.268 . S
O321 Sc301 2.105 . S
O321 C306 1.268 . S
Sc322 O325 2.025 . S
Sc322 O332 2.105 . S
Sc322 O335 2.105 . S
Sc322 O338 2.105 . S
Sc322 O341 2.105 . S
Sc323 O325 2.025 . S
Sc323 O333 2.105 . S
Sc323 O337 2.105 . S
Sc323 O339 2.105 . S
Sc323 O343 2.105 . S
Sc324 O325 2.025 . S
Sc324 O334 2.105 . S
Sc324 O336 2.105 . S
Sc324 O340 2.105 . S
Sc324 O342 2.105 . S
O325 Sc322 2.025 . S
O325 Sc323 2.025 . S
O325 Sc324 2.025 . S
C326 O332 1.268 . S
C326 O342 1.268 . S
C327 O333 1.268 . S
C327 O341 1.268 . S
C328 O334 1.268 . S
C328 O343 1.268 . S
C329 O335 1.268 . S
C329 O339 1.268 . S
C330 O336 1.268 . S
C330 O338 1.268 . S
C331 O337 1.268 . S
C331 O340 1.268 . S
O332 Sc322 2.105 . S
O332 C326 1.268 . S
O333 Sc323 2.105 . S
O333 C327 1.268 . S
O334 Sc324 2.105 . S
O334 C328 1.268 . S
O335 Sc322 2.105 . S
O335 C329 1.268 . S
O336 Sc324 2.105 . S
O336 C330 1.268 . S
O337 Sc323 2.105 . S
O337 C331 1.268 . S
O338 Sc322 2.105 . S
O338 C330 1.268 . S
O339 Sc323 2.105 . S
O339 C329 1.268 . S
O340 Sc324 2.105 . S
O340 C331 1.268 . S
O341 Sc322 2.105 . S
O341 C327 1.268 . S
O342 Sc324 2.105 . S
O342 C326 1.268 . S
O343 Sc323 2.105 . S
O343 C328 1.268 . S
C344 C345 1.369 . S
C344 C346 1.419 . S
C344 H348 0.930 . S
C345 C344 1.369 . S
C345 C354 1.429 . S
C346 C344 1.419 . S
C346 C347 1.363 . S
C346 H349 0.929 . S
C347 C346 1.363 . S
C347 C353 1.428 . S
H348 C344 0.930 . S
H349 C346 0.929 . S
S350 N351 1.613 . S
S350 N352 1.610 . S
N351 S350 1.613 . S
N351 C354 1.350 . S
N352 S350 1.610 . S
N352 C353 1.351 . S
C353 C347 1.428 . S
C353 N352 1.351 . S
C353 C354 1.434 . S
C354 C345 1.429 . S
C354 N351 1.350 . S
C354 C353 1.434 . S
C355 C356 1.369 . S
C355 C357 1.419 . S
C355 H359 0.930 . S
C356 C355 1.369 . S
C356 C365 1.429 . S
C357 C355 1.419 . S
C357 C358 1.363 . S
C357 H360 0.929 . S
C358 C357 1.363 . S
C358 C364 1.428 . S
H359 C355 0.930 . S
H360 C357 0.929 . S
S361 N362 1.613 . S
S361 N363 1.610 . S
N362 S361 1.613 . S
N362 C365 1.350 . S
N363 S361 1.610 . S
N363 C364 1.351 . S
C364 C358 1.428 . S
C364 N363 1.351 . S
C364 C365 1.434 . S
C365 C356 1.429 . S
C365 N362 1.350 . S
C365 C364 1.434 . S
C366 C367 1.369 . S
C366 C368 1.419 . S
C366 H370 0.930 . S
C367 C366 1.369 . S
C367 C376 1.429 . S
C368 C366 1.419 . S
C368 C369 1.363 . S
C368 H371 0.929 . S
C369 C368 1.363 . S
C369 C375 1.428 . S
H370 C366 0.930 . S
H371 C368 0.929 . S
S372 N373 1.613 . S
S372 N374 1.610 . S
N373 S372 1.613 . S
N373 C376 1.350 . S
N374 S372 1.610 . S
N374 C375 1.351 . S
C375 C369 1.428 . S
C375 N374 1.351 . S
C375 C376 1.434 . S
C376 C367 1.429 . S
C376 N373 1.350 . S
C376 C375 1.434 . S
C377 C378 1.369 . S
C377 C379 1.419 . S
C377 H381 0.930 . S
C378 C377 1.369 . S
C378 C387 1.429 . S
C379 C377 1.419 . S
C379 C380 1.363 . S
C379 H382 0.929 . S
C380 C379 1.363 . S
C380 C386 1.428 . S
H381 C377 0.930 . S
H382 C379 0.929 . S
S383 N384 1.613 . S
S383 N385 1.610 . S
N384 S383 1.613 . S
N384 C387 1.350 . S
N385 S383 1.610 . S
N385 C386 1.351 . S
C386 C380 1.428 . S
C386 N385 1.351 . S
C386 C387 1.434 . S
C387 C378 1.429 . S
C387 N384 1.350 . S
C387 C386 1.434 . S
C388 C389 1.369 . S
C388 C390 1.419 . S
C388 H392 0.930 . S
C389 C388 1.369 . S
C389 C398 1.429 . S
C390 C388 1.419 . S
C390 C391 1.363 . S
C390 H393 0.929 . S
C391 C390 1.363 . S
C391 C397 1.428 . S
H392 C388 0.930 . S
H393 C390 0.929 . S
S394 N395 1.613 . S
S394 N396 1.610 . S
N395 S394 1.613 . S
N395 C398 1.350 . S
N396 S394 1.610 . S
N396 C397 1.351 . S
C397 C391 1.428 . S
C397 N396 1.351 . S
C397 C398 1.434 . S
C398 C389 1.429 . S
C398 N395 1.350 . S
C398 C397 1.434 . S
C399 C400 1.369 . S
C399 C401 1.419 . S
C399 H403 0.930 . S
C400 C399 1.369 . S
C400 C409 1.429 . S
C401 C399 1.419 . S
C401 C402 1.363 . S
C401 H404 0.929 . S
C402 C401 1.363 . S
C402 C408 1.428 . S
H403 C399 0.930 . S
H404 C401 0.929 . S
S405 N406 1.613 . S
S405 N407 1.610 . S
N406 S405 1.613 . S
N406 C409 1.350 . S
N407 S405 1.610 . S
N407 C408 1.351 . S
C408 C402 1.428 . S
C408 N407 1.351 . S
C408 C409 1.434 . S
C409 C400 1.429 . S
C409 N406 1.350 . S
C409 C408 1.434 . S
C410 C411 1.369 . S
C410 C412 1.419 . S
C410 H414 0.930 . S
C411 C410 1.369 . S
C411 C420 1.429 . S
C412 C410 1.419 . S
C412 C413 1.363 . S
C412 H415 0.929 . S
C413 C412 1.363 . S
C413 C419 1.428 . S
H414 C410 0.930 . S
H415 C412 0.929 . S
S416 N417 1.613 . S
S416 N418 1.610 . S
N417 S416 1.613 . S
N417 C420 1.350 . S
N418 S416 1.610 . S
N418 C419 1.351 . S
C419 C413 1.428 . S
C419 N418 1.351 . S
C419 C420 1.434 . S
C420 C411 1.429 . S
C420 N417 1.350 . S
C420 C419 1.434 . S
C421 C422 1.369 . S
C421 C423 1.419 . S
C421 H425 0.930 . S
C422 C421 1.369 . S
C422 C431 1.429 . S
C423 C421 1.419 . S
C423 C424 1.363 . S
C423 H426 0.929 . S
C424 C423 1.363 . S
C424 C430 1.428 . S
H425 C421 0.930 . S
H426 C423 0.929 . S
S427 N428 1.613 . S
S427 N429 1.610 . S
N428 S427 1.613 . S
N428 C431 1.350 . S
N429 S427 1.610 . S
N429 C430 1.351 . S
C430 C424 1.428 . S
C430 N429 1.351 . S
C430 C431 1.434 . S
C431 C422 1.429 . S
C431 N428 1.350 . S
C431 C430 1.434 . S
C432 C433 1.369 . S
C432 C434 1.419 . S
C432 H436 0.930 . S
C433 C432 1.369 . S
C433 C442 1.429 . S
C434 C432 1.419 . S
C434 C435 1.363 . S
C434 H437 0.929 . S
C435 C434 1.363 . S
C435 C441 1.428 . S
H436 C432 0.930 . S
H437 C434 0.929 . S
S438 N439 1.613 . S
S438 N440 1.610 . S
N439 S438 1.613 . S
N439 C442 1.350 . S
N440 S438 1.610 . S
N440 C441 1.351 . S
C441 C435 1.428 . S
C441 N440 1.351 . S
C441 C442 1.434 . S
C442 C433 1.429 . S
C442 N439 1.350 . S
C442 C441 1.434 . S
C443 C444 1.369 . S
C443 C445 1.419 . S
C443 H447 0.930 . S
C444 C443 1.369 . S
C444 C453 1.429 . S
C445 C443 1.419 . S
C445 C446 1.363 . S
C445 H448 0.929 . S
C446 C445 1.363 . S
C446 C452 1.428 . S
H447 C443 0.930 . S
H448 C445 0.929 . S
S449 N450 1.613 . S
S449 N451 1.610 . S
N450 S449 1.613 . S
N450 C453 1.350 . S
N451 S449 1.610 . S
N451 C452 1.351 . S
C452 C446 1.428 . S
C452 N451 1.351 . S
C452 C453 1.434 . S
C453 C444 1.429 . S
C453 N450 1.350 . S
C453 C452 1.434 . S
C454 C455 1.369 . S
C454 C456 1.419 . S
C454 H458 0.930 . S
C455 C454 1.369 . S
C455 C464 1.429 . S
C456 C454 1.419 . S
C456 C457 1.363 . S
C456 H459 0.929 . S
C457 C456 1.363 . S
C457 C463 1.428 . S
H458 C454 0.930 . S
H459 C456 0.929 . S
S460 N461 1.613 . S
S460 N462 1.610 . S
N461 S460 1.613 . S
N461 C464 1.350 . S
N462 S460 1.610 . S
N462 C463 1.351 . S
C463 C457 1.428 . S
C463 N462 1.351 . S
C463 C464 1.434 . S
C464 C455 1.429 . S
C464 N461 1.350 . S
C464 C463 1.434 . S
C465 C466 1.369 . S
C465 C467 1.419 . S
C465 H469 0.930 . S
C466 C465 1.369 . S
C466 C475 1.429 . S
C467 C465 1.419 . S
C467 C468 1.363 . S
C467 H470 0.929 . S
C468 C467 1.363 . S
C468 C474 1.428 . S
H469 C465 0.930 . S
H470 C467 0.929 . S
S471 N472 1.613 . S
S471 N473 1.610 . S
N472 S471 1.613 . S
N472 C475 1.350 . S
N473 S471 1.610 . S
N473 C474 1.351 . S
C474 C468 1.428 . S
C474 N473 1.351 . S
C474 C475 1.434 . S
C475 C466 1.429 . S
C475 N472 1.350 . S
C475 C474 1.434 . S
C476 C477 1.369 . S
C476 C478 1.419 . S
C476 H480 0.930 . S
C477 C476 1.369 . S
C477 C486 1.429 . S
C478 C476 1.419 . S
C478 C479 1.363 . S
C478 H481 0.929 . S
C479 C478 1.363 . S
C479 C485 1.428 . S
H480 C476 0.930 . S
H481 C478 0.929 . S
S482 N483 1.613 . S
S482 N484 1.610 . S
N483 S482 1.613 . S
N483 C486 1.350 . S
N484 S482 1.610 . S
N484 C485 1.351 . S
C485 C479 1.428 . S
C485 N484 1.351 . S
C485 C486 1.434 . S
C486 C477 1.429 . S
C486 N483 1.350 . S
C486 C485 1.434 . S
C487 C488 1.369 . S
C487 C489 1.419 . S
C487 H491 0.930 . S
C488 C487 1.369 . S
C488 C497 1.429 . S
C489 C487 1.419 . S
C489 C490 1.363 . S
C489 H492 0.929 . S
C490 C489 1.363 . S
C490 C496 1.428 . S
H491 C487 0.930 . S
H492 C489 0.929 . S
S493 N494 1.613 . S
S493 N495 1.610 1_545 S
N494 S493 1.613 . S
N494 C497 1.350 1_545 S
N495 S493 1.610 1_565 S
N495 C496 1.351 . S
C496 C490 1.428 . S
C496 N495 1.351 . S
C496 C497 1.434 . S
C497 C488 1.429 . S
C497 N494 1.350 1_565 S
C497 C496 1.434 . S
C498 C499 1.369 . S
C498 C500 1.419 . S
C498 H502 0.930 . S
C499 C498 1.369 . S
C499 C508 1.429 . S
C500 C498 1.419 . S
C500 C501 1.363 . S
C500 H503 0.929 . S
C501 C500 1.363 . S
C501 C507 1.428 . S
H502 C498 0.930 . S
H503 C500 0.929 . S
S504 N505 1.613 1_545 S
S504 N506 1.612 . S
N505 S504 1.613 1_565 S
N505 C508 1.350 1_565 S
N506 S504 1.612 . S
N506 C507 1.351 . S
C507 C501 1.428 . S
C507 N506 1.351 . S
C507 C508 1.434 . S
C508 C499 1.429 . S
C508 N505 1.350 1_545 S
C508 C507 1.434 . S
C509 C510 1.369 . S
C509 C511 1.419 . S
C509 H513 0.930 1_565 S
C510 C509 1.369 . S
C510 C519 1.429 . S
C511 C509 1.419 . S
C511 C512 1.363 . S
C511 H514 0.929 . S
C512 C511 1.363 . S
C512 C518 1.428 . S
H513 C509 0.930 1_545 S
H514 C511 0.929 . S
S515 N516 1.613 . S
S515 N517 1.610 . S
N516 S515 1.613 . S
N516 C519 1.350 . S
N517 S515 1.610 . S
N517 C518 1.351 . S
C518 C512 1.428 . S
C518 N517 1.351 . S
C518 C519 1.434 . S
C519 C510 1.429 . S
C519 N516 1.350 . S
C519 C518 1.434 . S
C520 C521 1.369 . S
C520 C522 1.419 . S
C520 H524 0.930 . S
C521 C520 1.369 . S
C521 C530 1.429 . S
C522 C520 1.419 . S
C522 C523 1.363 . S
C522 H525 0.929 . S
C523 C522 1.363 . S
C523 C529 1.428 . S
H524 C520 0.930 . S
H525 C522 0.929 . S
S526 N527 1.613 . S
S526 N528 1.610 . S
N527 S526 1.613 . S
N527 C530 1.350 . S
N528 S526 1.610 . S
N528 C529 1.351 . S
C529 C523 1.428 . S
C529 N528 1.351 . S
C529 C530 1.434 . S
C530 C521 1.429 . S
C530 N527 1.350 . S
C530 C529 1.434 . S
C531 C532 1.369 . S
C531 C533 1.419 . S
C531 H535 0.930 . S
C532 C531 1.369 . S
C532 C541 1.429 . S
C533 C531 1.419 . S
C533 C534 1.363 . S
C533 H536 0.929 . S
C534 C533 1.363 . S
C534 C540 1.428 . S
H535 C531 0.930 . S
H536 C533 0.929 . S
S537 N538 1.613 . S
S537 N539 1.610 . S
N538 S537 1.613 . S
N538 C541 1.350 . S
N539 S537 1.610 . S
N539 C540 1.351 . S
C540 C534 1.428 . S
C540 N539 1.351 . S
C540 C541 1.434 . S
C541 C532 1.429 . S
C541 N538 1.350 . S
C541 C540 1.434 . S
C542 C543 1.369 . S
C542 C544 1.419 . S
C542 H546 0.930 . S
C543 C542 1.369 . S
C543 C552 1.429 . S
C544 C542 1.419 . S
C544 C545 1.363 . S
C544 H547 0.929 . S
C545 C544 1.363 . S
C545 C551 1.428 . S
H546 C542 0.930 . S
H547 C544 0.929 . S
S548 N549 1.613 . S
S548 N550 1.610 . S
N549 S548 1.613 . S
N549 C552 1.350 . S
N550 S548 1.610 . S
N550 C551 1.351 . S
C551 C545 1.428 . S
C551 N550 1.351 . S
C551 C552 1.434 . S
C552 C543 1.429 . S
C552 N549 1.350 . S
C552 C551 1.434 . S
C553 C554 1.369 . S
C553 C555 1.419 . S
C553 H557 0.930 . S
C554 C553 1.369 . S
C554 C563 1.429 . S
C555 C553 1.419 . S
C555 C556 1.363 . S
C555 H558 0.929 . S
C556 C555 1.363 . S
C556 C562 1.428 . S
H557 C553 0.930 . S
H558 C555 0.929 . S
S559 N560 1.613 . S
S559 N561 1.610 . S
N560 S559 1.613 . S
N560 C563 1.350 . S
N561 S559 1.610 . S
N561 C562 1.351 . S
C562 C556 1.428 . S
C562 N561 1.351 . S
C562 C563 1.434 . S
C563 C554 1.429 . S
C563 N560 1.350 . S
C563 C562 1.434 . S
C564 C565 1.369 . S
C564 C566 1.419 . S
C564 H568 0.930 . S
C565 C564 1.369 . S
C565 C574 1.429 . S
C566 C564 1.419 . S
C566 C567 1.363 . S
C566 H569 0.929 . S
C567 C566 1.363 . S
C567 C573 1.428 . S
H568 C564 0.930 . S
H569 C566 0.929 . S
S570 N571 1.613 . S
S570 N572 1.610 . S
N571 S570 1.613 . S
N571 C574 1.350 . S
N572 S570 1.610 . S
N572 C573 1.351 . S
C573 C567 1.428 . S
C573 N572 1.351 . S
C573 C574 1.434 . S
C574 C565 1.429 . S
C574 N571 1.350 . S
C574 C573 1.434 . S
C575 C576 1.369 . S
C575 C577 1.419 . S
C575 H579 0.930 . S
C576 C575 1.369 . S
C576 C585 1.429 . S
C577 C575 1.419 . S
C577 C578 1.363 . S
C577 H580 0.929 . S
C578 C577 1.363 . S
C578 C584 1.428 . S
H579 C575 0.930 . S
H580 C577 0.929 . S
S581 N582 1.613 . S
S581 N583 1.610 . S
N582 S581 1.613 . S
N582 C585 1.350 . S
N583 S581 1.610 . S
N583 C584 1.351 . S
C584 C578 1.428 . S
C584 N583 1.351 . S
C584 C585 1.434 . S
C585 C576 1.429 . S
C585 N582 1.350 . S
C585 C584 1.434 . S
C586 C587 1.369 . S
C586 C588 1.419 . S
C586 H590 0.930 . S
C587 C586 1.369 . S
C587 C596 1.429 . S
C588 C586 1.419 . S
C588 C589 1.363 . S
C588 H591 0.929 . S
C589 C588 1.363 . S
C589 C595 1.428 . S
H590 C586 0.930 . S
H591 C588 0.929 . S
S592 N593 1.613 . S
S592 N594 1.610 . S
N593 S592 1.613 . S
N593 C596 1.350 . S
N594 S592 1.610 . S
N594 C595 1.351 . S
C595 C589 1.428 . S
C595 N594 1.351 . S
C595 C596 1.434 . S
C596 C587 1.429 . S
C596 N593 1.350 . S
C596 C595 1.434 . S
C597 C598 1.369 . S
C597 C599 1.419 . S
C597 H601 0.930 . S
C598 C597 1.369 . S
C598 C607 1.429 . S
C599 C597 1.419 . S
C599 C600 1.363 . S
C599 H602 0.929 . S
C600 C599 1.363 . S
C600 C606 1.428 . S
H601 C597 0.930 . S
H602 C599 0.929 . S
S603 N604 1.613 . S
S603 N605 1.610 . S
N604 S603 1.613 . S
N604 C607 1.350 . S
N605 S603 1.610 . S
N605 C606 1.351 . S
C606 C600 1.428 . S
C606 N605 1.351 . S
C606 C607 1.434 . S
C607 C598 1.429 . S
C607 N604 1.350 . S
C607 C606 1.434 . S
C345 C23 1.495 . S
C347 C282 1.537 . S
C358 C260 1.497 . S
C356 C55 1.552 . S
C369 C286 1.541 . S
C367 C87 1.597 . S
C380 C264 1.504 . S
C378 C119 1.446 . S
C391 C326 1.535 . S
C389 C151 1.502 . S
C402 C304 1.504 . S
C400 C183 1.551 . S
C411 C215 1.595 . S
C413 C330 1.535 . S
C424 C308 1.497 . S
C422 C247 1.461 . S
C433 C29 1.507 . S
C435 C331 1.595 . S
C446 C309 1.526 . S
C444 C49 1.527 . S
C455 C93 1.590 . S
C457 C328 1.594 . S
C466 C113 1.448 . S
C468 C306 1.526 . S
C479 C287 1.594 . S
C477 C157 1.504 1_545 S
C488 C177 1.526 . S
C490 C265 1.523 . S
C501 C284 1.594 . S
C499 C221 1.588 . S
C512 C262 1.527 . S
C510 C241 1.458 1_565 S
C523 C305 1.545 . S
C521 C17 1.459 . S
C534 C327 1.555 . S
C532 C61 1.564 . S
C543 C81 1.556 . S
C545 C307 1.543 . S
C556 C329 1.552 . S
C554 C125 1.451 . S
C567 C261 1.544 . S
C565 C145 1.458 . S
C576 C189 1.563 . S
C578 C283 1.550 . S
C587 C209 1.557 . S
C589 C263 1.543 . S
C598 C253 1.453 . S
C600 C285 1.555 . S
