# Generated by pormake.
# Topology pth, (4,4)-cn, num edge types: 1
# Building blocks:
#     Node 0, Type 0, BuildingBlock: CEKHIL_clean_sbu_0, # of connection points: 4
#     Node 1, Type 0, BuildingBlock: CEKHIL_clean_sbu_0, # of connection points: 4
#     Node 2, Type 0, BuildingBlock: CEKHIL_clean_sbu_0, # of connection points: 4
#     Node 3, Type 1, BuildingBlock: NAWXER_clean_linker_0, # of connection points: 4
#     Node 4, Type 1, BuildingBlock: NAWXER_clean_linker_0, # of connection points: 4
#     Node 5, Type 1, BuildingBlock: NAWXER_clean_linker_0, # of connection points: 4
#     Edge 6, Type (0, 1), BuildingBlock: KIFKEQ_clean_linker_1, # of connection points: 2
#     Edge 7, Type (0, 1), BuildingBlock: KIFKEQ_clean_linker_1, # of connection points: 2
#     Edge 8, Type (0, 1), BuildingBlock: KIFKEQ_clean_linker_1, # of connection points: 2
#     Edge 9, Type (0, 1), BuildingBlock: KIFKEQ_clean_linker_1, # of connection points: 2
#     Edge 10, Type (0, 1), BuildingBlock: KIFKEQ_clean_linker_1, # of connection points: 2
#     Edge 11, Type (0, 1), BuildingBlock: KIFKEQ_clean_linker_1, # of connection points: 2
#     Edge 12, Type (0, 1), BuildingBlock: KIFKEQ_clean_linker_1, # of connection points: 2
#     Edge 13, Type (0, 1), BuildingBlock: KIFKEQ_clean_linker_1, # of connection points: 2
#     Edge 14, Type (0, 1), BuildingBlock: KIFKEQ_clean_linker_1, # of connection points: 2
#     Edge 15, Type (0, 1), BuildingBlock: KIFKEQ_clean_linker_1, # of connection points: 2
#     Edge 16, Type (0, 1), BuildingBlock: KIFKEQ_clean_linker_1, # of connection points: 2
#     Edge 17, Type (0, 1), BuildingBlock: KIFKEQ_clean_linker_1, # of connection points: 2
# Relax obj value: 0.006
# Max RMSD: 0.048
# Mean RMSD: 0.037
data_MOF--net-pth--node1-CEKHIL_clean_sbu_0--node2-NAWXER_clean_linker_0--edge1-KIFKEQ_clean_linker_1
_symmetry_space_group_name_H-M    P1
_symmetry_Int_Tables_number       1
_symmetry_cell_setting            triclinic
loop_
_symmetry_equiv_pos_as_xyz
'x, y, z'
_cell_length_a     28.983195
_cell_length_b     29.058681
_cell_length_c     66.858381
_cell_angle_alpha  90.892184
_cell_angle_beta   89.931946
_cell_angle_gamma 120.3753
loop_
_atom_site_label
_atom_site_type_symbol
_atom_site_fract_x
_atom_site_fract_y
_atom_site_fract_z
_atom_type_partial_charge
Co0 Co 0.02145 0.03262 0.0654 0.0
O1 O 0.98621 0.97776 0.08482 0.0
O2 O 0.05406 0.98841 0.06629 0.0
C3 C 0.02928 0.09944 0.08552 0.0
O4 O 0.06917 0.08637 0.04448 0.0
Co5 Co 0.96723 0.09396 0.05009 0.0
O6 O 0.03965 0.14363 0.03964 0.0
C7 C 0.92855 0.98388 0.03566 0.0
C8 C 0.01995 0.96244 0.08035 0.0
C9 C 0.07447 0.12961 0.03719 0.0
O10 O 0.96897 0.9848 0.04406 0.0
O11 O 0.91816 0.02162 0.03774 0.0
O12 O 0.06386 0.08366 0.08655 0.0
O13 O 0.98912 0.07175 0.07362 0.0
Co14 Co 0.01775 0.04175 0.38306 0.0
O15 O 0.98747 0.06403 0.36246 0.0
O16 O 0.05287 0.1191 0.3829 0.0
C17 C 0.02661 0.98239 0.36366 0.0
O18 O 0.06071 0.0333 0.40544 0.0
Co19 Co 0.95725 0.925 0.39725 0.0
O20 O 0.02294 0.94659 0.41319 0.0
C21 C 0.91977 0.99798 0.40982 0.0
C22 C 0.02145 0.11274 0.3679 0.0
C23 C 0.06011 0.99511 0.41521 0.0
O24 O 0.96257 0.03753 0.40271 0.0
O25 O 0.90781 0.94937 0.40744 0.0
O26 O 0.06268 0.03271 0.36351 0.0
O27 O 0.98458 0.97022 0.37413 0.0
Co28 Co 0.00958 0.02923 0.7164 0.0
O29 O 0.06424 0.06634 0.69686 0.0
O30 O 0.05338 0.99647 0.71356 0.0
C31 C 0.94278 0.02469 0.69746 0.0
O32 O 0.95614 0.97904 0.737 0.0
Co33 Co 0.94791 0.08007 0.73502 0.0
O34 O 0.89767 0.00638 0.74362 0.0
C35 C 0.05691 0.11416 0.74967 0.0
C36 C 0.07931 0.03196 0.7 0.0
C37 C 0.91245 0.97203 0.74487 0.0
O38 O 0.05824 0.07876 0.73825 0.0
O39 O 0.0177 0.12276 0.74983 0.0
O40 O 0.95797 0.98989 0.69509 0.0
O41 O 0.97063 0.063 0.71013 0.0
C42 C 0.01446 0.38608 0.26183 0.0
C43 C 0.05292 0.40185 0.2772 0.0
C44 C 0.01682 0.42311 0.24816 0.0
C45 C 0.05806 0.47669 0.24939 0.0
C46 C 0.09435 0.45545 0.27834 0.0
C47 C 0.09664 0.49252 0.26466 0.0
C48 C 0.05827 0.5172 0.23609 0.0
C49 C 0.0827 0.40809 0.19392 0.0
C50 C 0.04253 0.38221 0.17923 0.0
C51 C 0.08441 0.44865 0.20605 0.0
C52 C 0.04583 0.46389 0.20375 0.0
C53 C 0.00379 0.39735 0.17711 0.0
C54 C 0.00563 0.43792 0.18916 0.0
C55 C 0.04931 0.50963 0.2152 0.0
C56 C 0.07694 0.71954 0.1881 0.0
C57 C 0.0384 0.69963 0.17263 0.0
C58 C 0.08001 0.68493 0.20167 0.0
C59 C 0.04409 0.62966 0.20025 0.0
C60 C 0.00273 0.64427 0.17122 0.0
C61 C 0.00563 0.6098 0.18483 0.0
C62 C 0.04889 0.59157 0.21343 0.0
C63 C 0.01066 0.68622 0.25841 0.0
C64 C 0.05473 0.7208 0.27065 0.0
C65 C 0.0126 0.64812 0.24597 0.0
C66 C 0.05829 0.64321 0.24567 0.0
C67 C 0.101 0.71646 0.2698 0.0
C68 C 0.10239 0.67754 0.25769 0.0
C69 C 0.05832 0.59933 0.23427 0.0
H70 H 0.98227 0.34505 0.2604 0.0
H71 H 0.98555 0.41002 0.23694 0.0
H72 H 0.12422 0.46908 0.29014 0.0
H73 H 0.12835 0.53378 0.26612 0.0
H74 H 0.11297 0.39717 0.19599 0.0
H75 H 0.11663 0.46891 0.21685 0.0
H76 H 0.97282 0.37883 0.16574 0.0
H77 H 0.97579 0.44938 0.18695 0.0
H78 H 0.10486 0.76194 0.18975 0.0
H79 H 0.11138 0.70141 0.21291 0.0
H80 H 0.97317 0.62729 0.15932 0.0
H81 H 0.97792 0.56733 0.18317 0.0
H82 H 0.97387 0.68725 0.25885 0.0
H83 H 0.97771 0.62123 0.23708 0.0
H84 H 0.13625 0.74293 0.27856 0.0
H85 H 0.13796 0.67419 0.2577 0.0
N86 N 0.06276 0.56198 0.24474 0.0
N87 N 0.04476 0.54698 0.20479 0.0
C88 C 0.68704 0.0766 0.51995 0.0
C89 C 0.67057 0.03649 0.50502 0.0
C90 C 0.65004 0.07672 0.53343 0.0
C91 C 0.59588 0.03676 0.53223 0.0
C92 C 0.61637 0.99606 0.5042 0.0
C93 C 0.57947 0.99656 0.5175 0.0
C94 C 0.55518 0.03847 0.54511 0.0
C95 C 0.6539 0.00253 0.58772 0.0
C96 C 0.6775 0.03942 0.60369 0.0
C97 C 0.61659 0.00459 0.57505 0.0
C98 C 0.60252 0.04391 0.57798 0.0
C99 C 0.66381 0.07914 0.60637 0.0
C100 C 0.62652 0.08112 0.59374 0.0
C101 C 0.55908 0.04343 0.56615 0.0
C102 C 0.33997 0.99781 0.59041 0.0
C103 C 0.35445 0.03178 0.60733 0.0
C104 C 0.37904 1.00116 0.57721 0.0
C105 C 0.43324 0.03949 0.58039 0.0
C106 C 0.40871 0.06944 0.61067 0.0
C107 C 0.44763 0.07321 0.59736 0.0
C108 C 0.47575 0.04193 0.56727 0.0
C109 C 0.37135 0.07382 0.52627 0.0
C110 C 0.35224 0.04099 0.50906 0.0
C111 C 0.41022 0.07312 0.53849 0.0
C112 C 0.42939 0.03826 0.53406 0.0
C113 C 0.37204 0.00689 0.50446 0.0
C114 C 0.41005 0.00547 0.51684 0.0
C115 C 0.47251 0.03832 0.54611 0.0
H116 H 0.72821 0.10877 0.52091 0.0
H117 H 0.66345 0.10883 0.54441 0.0
H118 H 0.60226 0.96381 0.49326 0.0
H119 H 0.53787 0.96538 0.51627 0.0
H120 H 0.66284 0.97089 0.58541 0.0
H121 H 0.59742 0.97429 0.56343 0.0
H122 H 0.68175 0.10866 0.61832 0.0
H123 H 0.61601 0.11156 0.5964 0.0
H124 H 0.29853 0.96786 0.58762 0.0
H125 H 0.36688 0.97315 0.56473 0.0
H126 H 0.42104 0.09643 0.62349 0.0
H127 H 0.48918 0.10263 0.60032 0.0
H128 H 0.35718 0.10095 0.53 0.0
H129 H 0.42587 0.10053 0.55115 0.0
H130 H 0.35771 0.98091 0.49135 0.0
H131 H 0.42445 0.97863 0.5129 0.0
N132 N 0.51216 0.03619 0.53599 0.0
N133 N 0.51923 0.04495 0.57633 0.0
C134 C 0.38099 0.33922 0.85859 0.0
C135 C 0.36182 0.35453 0.84218 0.0
C136 C 0.42162 0.37786 0.87092 0.0
C137 C 0.44253 0.43249 0.86743 0.0
C138 C 0.3835 0.40902 0.83848 0.0
C139 C 0.42327 0.4475 0.85098 0.0
C140 C 0.48654 0.47476 0.87982 0.0
C141 C 0.35266 0.38246 0.92331 0.0
C142 C 0.36606 0.36296 0.94016 0.0
C143 C 0.3923 0.41825 0.91046 0.0
C144 C 0.44627 0.43414 0.91373 0.0
C145 C 0.42026 0.37947 0.9435 0.0
C146 C 0.45978 0.41458 0.93045 0.0
C147 C 0.48933 0.47453 0.90097 0.0
C148 C 0.66817 0.69689 0.9214 0.0
C149 C 0.68793 0.68552 0.93874 0.0
C150 C 0.63129 0.65581 0.90882 0.0
C151 C 0.61464 0.60227 0.91279 0.0
C152 C 0.67077 0.63181 0.94275 0.0
C153 C 0.63475 0.59083 0.92992 0.0
C154 C 0.57242 0.55768 0.90052 0.0
C155 C 0.7004 0.65721 0.85501 0.0
C156 C 0.68273 0.68126 0.84126 0.0
C157 C 0.66393 0.6175 0.86774 0.0
C158 C 0.60927 0.60102 0.86675 0.0
C159 C 0.62799 0.66436 0.84029 0.0
C160 C 0.59165 0.62437 0.85276 0.0
C161 C 0.5693 0.5579 0.87942 0.0
H162 H 0.36531 0.29739 0.86161 0.0
H163 H 0.43699 0.36496 0.88302 0.0
H164 H 0.36917 0.42192 0.82603 0.0
H165 H 0.43889 0.48925 0.8478 0.0
H166 H 0.31146 0.37042 0.92004 0.0
H167 H 0.38067 0.43411 0.89816 0.0
H168 H 0.43253 0.36645 0.9565 0.0
H169 H 0.50118 0.42697 0.93357 0.0
H170 H 0.68065 0.73758 0.91757 0.0
H171 H 0.61484 0.66617 0.89633 0.0
H172 H 0.68387 0.62103 0.95612 0.0
H173 H 0.62185 0.5499 0.93361 0.0
H174 H 0.74239 0.66953 0.85606 0.0
H175 H 0.67827 0.59936 0.8782 0.0
H176 H 0.61311 0.68164 0.82966 0.0
H177 H 0.54962 0.61192 0.8516 0.0
N178 N 0.52652 0.51662 0.87004 0.0
N179 N 0.53241 0.51578 0.91035 0.0
H180 H 0.10607 0.15863 0.11346 0.0
H181 H 0.96215 0.13973 0.08636 0.0
H182 H 0.1099 0.22707 0.13611 0.0
H183 H 0.96659 0.20909 0.10871 0.0
H184 H 0.95594 0.28752 0.16703 0.0
H185 H 0.95415 0.22109 0.14383 0.0
H186 H 0.12556 0.3171 0.13731 0.0
H187 H 0.12733 0.3834 0.16063 0.0
C188 C 0.07556 0.16953 0.1122 0.0
C189 C 0.03367 0.14365 0.09819 0.0
C190 C 0.07788 0.20894 0.12513 0.0
C191 C 0.03839 0.22342 0.12432 0.0
C192 C 0.99714 0.19827 0.10998 0.0
C193 C 0.99479 0.1588 0.09706 0.0
C194 C 0.99321 0.29454 0.16057 0.0
C195 C 0.04177 0.34076 0.16568 0.0
C196 C 0.99218 0.25655 0.14722 0.0
C197 C 0.03968 0.26386 0.1386 0.0
C198 C 0.08832 0.30987 0.14385 0.0
C199 C 0.08935 0.34785 0.15725 0.0
H200 H 0.81419 0.92991 0.4172 0.0
H201 H 0.94341 0.08966 0.43059 0.0
H202 H 0.75568 0.94418 0.4394 0.0
H203 H 0.88452 0.10364 0.45308 0.0
H204 H 0.77608 0.06573 0.5109 0.0
H205 H 0.8374 0.06206 0.48667 0.0
H206 H 0.71369 0.00311 0.44138 0.0
H207 H 0.65294 0.00849 0.46521 0.0
C208 C 0.83004 0.96821 0.42479 0.0
C209 C 0.8835 0.00863 0.42214 0.0
C210 C 0.79641 0.97643 0.43744 0.0
C211 C 0.8156 0.02497 0.44798 0.0
C212 C 0.86884 0.06573 0.44521 0.0
C213 C 0.90236 0.05783 0.43224 0.0
C214 C 0.76215 0.05293 0.49569 0.0
C215 C 0.70917 0.03681 0.49014 0.0
C216 C 0.79733 0.05079 0.48183 0.0
C217 C 0.78015 0.03196 0.4622 0.0
C218 C 0.72776 0.01708 0.4565 0.0
C219 C 0.69285 0.01983 0.47024 0.0
H220 H 0.94325 0.90946 0.76462 0.0
H221 H 0.8066 0.92724 0.75299 0.0
H222 H 0.89028 0.83862 0.78828 0.0
H223 H 0.75344 0.85575 0.77587 0.0
H224 H 0.69021 0.77678 0.83456 0.0
H225 H 0.74709 0.84446 0.81085 0.0
H226 H 0.81689 0.7492 0.79329 0.0
H227 H 0.76057 0.68193 0.81765 0.0
C228 C 0.90168 0.89757 0.76683 0.0
C229 C 0.87931 0.9244 0.75713 0.0
C230 C 0.87127 0.85694 0.78038 0.0
C231 C 0.81779 0.84208 0.78433 0.0
C232 C 0.79492 0.86718 0.77374 0.0
C233 C 0.82532 0.90797 0.76046 0.0
C234 C 0.71781 0.77039 0.82566 0.0
C235 C 0.72063 0.72391 0.82782 0.0
C236 C 0.75024 0.80901 0.81195 0.0
C237 C 0.78598 0.80195 0.79981 0.0
C238 C 0.79003 0.75612 0.80242 0.0
C239 C 0.75779 0.71756 0.81635 0.0
H240 H 0.95295 0.90461 0.1102 0.0
H241 H 0.08953 0.92447 0.07693 0.0
H242 H 0.95778 0.84027 0.1314 0.0
H243 H 0.09354 0.8583 0.09798 0.0
H244 H 0.12139 0.78832 0.15547 0.0
H245 H 0.11617 0.84897 0.132 0.0
H246 H 0.94374 0.75238 0.13202 0.0
H247 H 0.94883 0.6936 0.15625 0.0
C248 C 0.98366 0.89467 0.10721 0.0
C249 C 0.02092 0.91978 0.09186 0.0
C250 C 0.98622 0.8574 0.11934 0.0
C251 C 0.026 0.8439 0.11643 0.0
C252 C 0.06276 0.86823 0.1008 0.0
C253 C 0.06023 0.9058 0.08863 0.0
C254 C 0.08234 0.78034 0.15064 0.0
C255 C 0.03553 0.73615 0.1579 0.0
C256 C 0.07938 0.8147 0.13692 0.0
C257 C 0.02954 0.8057 0.13009 0.0
C258 C 0.98282 0.76102 0.13712 0.0
C259 C 0.98576 0.72687 0.15088 0.0
H260 H 0.05602 0.93745 0.44757 0.0
H261 H 0.16278 0.08044 0.41559 0.0
H262 H 0.12801 0.95501 0.47084 0.0
H263 H 0.23534 0.09752 0.43889 0.0
H264 H 0.35585 0.05152 0.46853 0.0
H265 H 0.28614 0.0464 0.44636 0.0
H266 H 0.18715 0.02646 0.49754 0.0
H267 H 0.25717 0.03211 0.51975 0.0
C268 C 0.09486 0.97271 0.44552 0.0
C269 C 0.10376 0.00746 0.42967 0.0
C270 C 0.13595 0.98293 0.45896 0.0
C271 C 0.18716 0.02764 0.45668 0.0
C272 C 0.19619 0.06268 0.44093 0.0
C273 C 0.15468 0.05301 0.42767 0.0
C274 C 0.31935 0.0465 0.47502 0.0
C275 C 0.3117 0.04193 0.49582 0.0
C276 C 0.27971 0.04397 0.46237 0.0
C277 C 0.23128 0.03593 0.47025 0.0
C278 C 0.22407 0.03246 0.49109 0.0
C279 C 0.26412 0.03593 0.50378 0.0
H280 H 0.15919 0.13205 0.74738 0.0
H281 H 0.05745 0.16836 0.78348 0.0
H282 H 0.23423 0.1863 0.77015 0.0
H283 H 0.13218 0.2219 0.80621 0.0
H284 H 0.26564 0.2699 0.85297 0.0
H285 H 0.19219 0.20798 0.83083 0.0
H286 H 0.28842 0.2868 0.77935 0.0
H287 H 0.36159 0.34879 0.80145 0.0
C288 C 0.15274 0.15131 0.7602 0.0
C289 C 0.10239 0.14608 0.76355 0.0
C290 C 0.1957 0.18244 0.77318 0.0
C291 C 0.1889 0.20811 0.78996 0.0
C292 C 0.13841 0.20212 0.7935 0.0
C293 C 0.09575 0.1718 0.78037 0.0
C294 C 0.27121 0.27345 0.83693 0.0
C295 C 0.3191 0.31419 0.8289 0.0
C296 C 0.22917 0.23833 0.82428 0.0
C297 C 0.23463 0.24275 0.80339 0.0
C298 C 0.28326 0.28229 0.79538 0.0
C299 C 0.32492 0.31791 0.80801 0.0
H300 H 0.88457 0.95332 0.66769 0.0
H301 H 0.90479 0.09366 0.69893 0.0
H302 H 0.81872 0.95505 0.64549 0.0
H303 H 0.8395 0.09587 0.67655 0.0
H304 H 0.68295 0.05301 0.64442 0.0
H305 H 0.74439 0.04724 0.6677 0.0
H306 H 0.81789 0.0107 0.61848 0.0
H307 H 0.75661 0.01677 0.59514 0.0
C308 C 0.87473 0.98437 0.66989 0.0
C309 C 0.89996 0.02344 0.68503 0.0
C310 C 0.8373 0.9856 0.65707 0.0
C311 C 0.82411 0.02581 0.65915 0.0
C312 C 0.8484 0.06409 0.67464 0.0
C313 C 0.88597 0.06295 0.68742 0.0
C314 C 0.71256 0.04428 0.63851 0.0
C315 C 0.71497 0.03561 0.61787 0.0
C316 C 0.74771 0.04086 0.65188 0.0
C317 C 0.78606 0.02851 0.64496 0.0
C318 C 0.78829 0.0195 0.62434 0.0
C319 C 0.75319 0.02303 0.61095 0.0
H320 H 0.95347 0.91795 0.01459 0.0
H321 H 0.82355 0.94631 0.02676 0.0
H322 H 0.89679 0.84665 0.99102 0.0
H323 H 0.76577 0.87317 1.00421 0.0
H324 H 0.68925 0.77873 0.94806 0.0
H325 H 0.74835 0.84966 0.97086 0.0
H326 H 0.82546 0.76057 0.98627 0.0
H327 H 0.76965 0.69181 0.96194 0.0
C328 C 0.91247 0.90832 0.01246 0.0
C329 C 0.8931 0.93799 0.02243 0.0
C330 C 0.87974 0.86717 0.999 0.0
C331 C 0.82647 0.85399 0.99546 0.0
C332 C 0.80684 0.88283 0.006 0.0
C333 C 0.83987 0.92461 0.01911 0.0
C334 C 0.71953 0.77456 0.95592 0.0
C335 C 0.72447 0.72919 0.95294 0.0
C336 C 0.75294 0.81504 0.96941 0.0
C337 C 0.79168 0.81104 0.98071 0.0
C338 C 0.79667 0.76567 0.97775 0.0
C339 C 0.76386 0.72558 0.96396 0.0
H340 H 0.1178 0.98953 0.349 0.0
H341 H 0.94633 0.88565 0.3503 0.0
H342 H 0.12523 0.92541 0.32692 0.0
H343 H 0.95382 0.82247 0.32775 0.0
H344 H 1.00051 0.77513 0.26549 0.0
H345 H 0.99287 0.83583 0.28905 0.0
H346 H 0.09693 0.81917 0.33056 0.0
H347 H 0.1021 0.75563 0.30779 0.0
C348 C 0.0818 0.95296 0.34461 0.0
C349 C 0.0315 0.94247 0.35134 0.0
C350 C 0.08609 0.91638 0.33204 0.0
C351 C 0.04005 0.86936 0.32563 0.0
C352 C 0.98981 0.85867 0.33245 0.0
C353 C 0.98561 0.89462 0.3454 0.0
C354 C 0.02111 0.78342 0.27975 0.0
C355 C 0.05185 0.75996 0.28462 0.0
C356 C 0.01692 0.81852 0.29316 0.0
C357 C 0.04431 0.83196 0.31154 0.0
C358 C 0.07576 0.80959 0.31637 0.0
C359 C 0.07902 0.77353 0.30318 0.0
H360 H 0.12785 0.09295 0.66769 0.0
H361 H 0.12616 0.97054 0.70409 0.0
H362 H 0.19351 0.09024 0.64579 0.0
H363 H 0.19265 0.96812 0.682 0.0
H364 H 0.3564 0.03092 0.64825 0.0
H365 H 0.29015 0.02946 0.67141 0.0
H366 H 0.19317 0.02315 0.6213 0.0
H367 H 0.25943 0.02497 0.59819 0.0
C368 C 0.14172 0.06562 0.6711 0.0
C369 C 0.12168 0.03185 0.68763 0.0
C370 C 0.17909 0.06385 0.65844 0.0
C371 C 0.19782 0.02864 0.66207 0.0
C372 C 0.17893 0.99573 0.67888 0.0
C373 C 0.14087 0.99705 0.69148 0.0
C374 C 0.32088 0.0292 0.64222 0.0
C375 C 0.31318 0.02833 0.62141 0.0
C376 C 0.28282 0.02791 0.65546 0.0
C377 C 0.23667 0.02644 0.64816 0.0
C378 C 0.22863 0.02478 0.62736 0.0
C379 C 0.26633 0.02542 0.61413 0.0
H380 H 0.13501 0.10041 0.0146 0.0
H381 H 0.11956 0.2361 0.03123 0.0
H382 H 0.20583 0.15561 0.99121 0.0
H383 H 0.19172 0.29182 0.00879 0.0
H384 H 0.27595 0.3648 0.95158 0.0
H385 H 0.20769 0.30739 0.97484 0.0
H386 H 0.29428 0.22534 0.98634 0.0
H387 H 0.36061 0.28015 0.96171 0.0
C388 C 0.14744 0.14226 0.01352 0.0
C389 C 0.12133 0.16376 0.0246 0.0
C390 C 0.1882 0.17405 1.00015 0.0
C391 C 0.20427 0.22826 0.9978 0.0
C392 C 0.17953 0.25001 0.00963 0.0
C393 C 0.13835 0.21812 0.02269 0.0
C394 C 0.28013 0.3339 0.95871 0.0
C395 C 0.32406 0.32731 0.95458 0.0
C396 C 0.24127 0.30143 0.97244 0.0
C397 C 0.24547 0.26186 0.98278 0.0
C398 C 0.28926 0.25501 0.97862 0.0
C399 C 0.32787 0.2871 0.96464 0.0
H400 H 0.0963 0.21952 0.37186 0.0
H401 H 0.95519 0.10812 0.33825 0.0
H402 H 0.10424 0.29249 0.35141 0.0
H403 H 0.96354 0.18018 0.31781 0.0
H404 H 0.96299 0.32533 0.29564 0.0
H405 H 0.95535 0.25891 0.31925 0.0
H406 H 0.12607 0.32338 0.31666 0.0
H407 H 0.13375 0.39011 0.29299 0.0
C408 C 0.06683 0.21068 0.36023 0.0
C409 C 0.02513 0.15805 0.35668 0.0
C410 C 0.07158 0.25236 0.34843 0.0
C411 C 0.0345 0.24221 0.33297 0.0
C412 C 0.99235 0.18966 0.32975 0.0
C413 C 0.98776 0.14819 0.34143 0.0
C414 C 0.9989 0.32521 0.30001 0.0
C415 C 0.0489 0.36269 0.29223 0.0
C416 C 0.99454 0.28719 0.31359 0.0
C417 C 0.04004 0.28553 0.31976 0.0
C418 C 0.09029 0.32388 0.3124 0.0
C419 C 0.09467 0.36204 0.29879 0.0
loop_
_geom_bond_atom_site_label_1
_geom_bond_atom_site_label_2
_geom_bond_distance
_geom_bond_site_symmetry_2
_ccdc_geom_bond_type
Co0 O1 2.216 1_445 S
Co0 O2 2.091 1_545 S
Co0 O4 2.004 . S
Co0 O10 2.021 1_445 S
Co0 O12 2.137 . S
Co0 O13 2.244 1_455 S
O1 Co0 2.216 1_665 S
O1 C8 1.247 1_655 S
O2 Co0 2.091 1_565 S
O2 C8 1.261 . S
C3 O12 1.247 . S
C3 O13 1.272 1_455 S
O4 Co0 2.004 . S
O4 C9 1.259 . S
Co5 O6 2.061 1_655 S
Co5 O11 2.052 . S
Co5 O13 2.135 . S
O6 Co5 2.061 1_455 S
O6 C9 1.235 . S
C7 O10 1.238 . S
C7 O11 1.241 1_565 S
C8 O1 1.247 1_455 S
C8 O2 1.261 . S
C9 O4 1.259 . S
C9 O6 1.235 . S
O10 Co0 2.021 1_665 S
O10 C7 1.238 . S
O11 Co5 2.052 . S
O11 C7 1.241 1_545 S
O12 Co0 2.137 . S
O12 C3 1.247 . S
O13 Co0 2.244 1_655 S
O13 C3 1.272 1_655 S
O13 Co5 2.135 . S
Co14 O15 2.216 1_455 S
Co14 O16 2.091 . S
Co14 O18 2.004 . S
Co14 O24 2.021 1_455 S
Co14 O26 2.137 . S
Co14 O27 2.244 1_445 S
O15 Co14 2.216 1_655 S
O15 C22 1.247 1_655 S
O16 Co14 2.091 . S
O16 C22 1.261 . S
C17 O26 1.247 1_565 S
C17 O27 1.262 1_455 S
O18 Co14 2.004 . S
O18 C23 1.259 . S
Co19 O20 2.061 1_655 S
Co19 O25 2.052 . S
Co19 O27 2.135 . S
O20 Co19 2.061 1_455 S
O20 C23 1.235 1_565 S
C21 O24 1.238 . S
C21 O25 1.241 1_545 S
C22 O15 1.247 1_455 S
C22 O16 1.261 . S
C23 O18 1.259 . S
C23 O20 1.235 1_545 S
O24 Co14 2.021 1_655 S
O24 C21 1.238 . S
O25 Co19 2.052 . S
O25 C21 1.241 1_565 S
O26 Co14 2.137 . S
O26 C17 1.247 1_545 S
O27 Co14 2.244 1_665 S
O27 C17 1.262 1_655 S
O27 Co19 2.135 . S
Co28 O29 2.216 . S
Co28 O30 2.091 1_545 S
Co28 O32 2.004 1_445 S
Co28 O38 2.021 . S
Co28 O40 2.137 1_445 S
Co28 O41 2.244 1_455 S
O29 Co28 2.216 . S
O29 C36 1.247 . S
O30 Co28 2.091 1_565 S
O30 C36 1.261 1_565 S
C31 O40 1.247 1_545 S
C31 O41 1.272 . S
O32 Co28 2.004 1_665 S
O32 C37 1.259 . S
Co33 O34 2.067 . S
Co33 O39 2.052 1_655 S
Co33 O41 2.135 . S
O34 Co33 2.067 . S
O34 C37 1.228 1_545 S
C35 O38 1.238 . S
C35 O39 1.241 . S
C36 O29 1.247 . S
C36 O30 1.261 1_545 S
C37 O32 1.259 . S
C37 O34 1.228 1_565 S
O38 Co28 2.021 . S
O38 C35 1.238 . S
O39 Co33 2.052 1_455 S
O39 C35 1.241 . S
O40 Co28 2.137 1_665 S
O40 C31 1.247 1_565 S
O41 Co28 2.244 1_655 S
O41 C31 1.272 . S
O41 Co33 2.135 . S
C42 C43 1.384 1_655 S
C42 C44 1.384 . S
C42 H70 0.931 . S
C43 C42 1.384 1_455 S
C43 C46 1.382 . S
C44 C42 1.384 . S
C44 C45 1.381 1_655 S
C44 H71 0.930 . S
C45 C44 1.381 1_455 S
C45 C47 1.381 . S
C45 C48 1.487 . S
C46 C43 1.382 . S
C46 C47 1.387 . S
C46 H72 0.930 . S
C47 C45 1.381 . S
C47 C46 1.387 . S
C47 H73 0.931 . S
C48 C45 1.487 . S
C48 C55 1.399 . S
C48 N86 1.343 . S
C49 C50 1.384 . S
C49 C51 1.384 . S
C49 H74 0.931 . S
C50 C49 1.384 . S
C50 C53 1.382 1_455 S
C51 C49 1.384 . S
C51 C52 1.381 . S
C51 H75 0.930 . S
C52 C51 1.381 . S
C52 C54 1.381 1_455 S
C52 C55 1.487 . S
C53 C50 1.382 1_655 S
C53 C54 1.387 . S
C53 H76 0.930 . S
C54 C52 1.381 1_655 S
C54 C53 1.387 . S
C54 H77 0.931 . S
C55 C48 1.399 . S
C55 C52 1.487 . S
C55 N87 1.343 . S
C56 C57 1.384 . S
C56 C58 1.384 . S
C56 H78 0.931 . S
C57 C56 1.384 . S
C57 C60 1.382 1_455 S
C58 C56 1.384 . S
C58 C59 1.381 . S
C58 H79 0.930 . S
C59 C58 1.381 . S
C59 C61 1.381 1_455 S
C59 C62 1.487 . S
C60 C57 1.382 1_655 S
C60 C61 1.387 . S
C60 H80 0.930 . S
C61 C59 1.381 1_655 S
C61 C60 1.387 . S
C61 H81 0.931 . S
C62 C59 1.487 . S
C62 C69 1.399 . S
C62 N87 1.343 . S
C63 C64 1.384 1_655 S
C63 C65 1.384 . S
C63 H82 0.931 . S
C64 C63 1.384 1_455 S
C64 C67 1.382 . S
C65 C63 1.384 . S
C65 C66 1.381 1_655 S
C65 H83 0.930 . S
C66 C65 1.381 1_455 S
C66 C68 1.381 . S
C66 C69 1.487 . S
C67 C64 1.382 . S
C67 C68 1.387 . S
C67 H84 0.930 . S
C68 C66 1.381 . S
C68 C67 1.387 . S
C68 H85 0.931 . S
C69 C62 1.399 . S
C69 C66 1.487 . S
C69 N86 1.343 . S
H70 C42 0.931 . S
H71 C44 0.930 . S
H72 C46 0.930 . S
H73 C47 0.931 . S
H74 C49 0.931 . S
H75 C51 0.930 . S
H76 C53 0.930 . S
H77 C54 0.931 . S
H78 C56 0.931 . S
H79 C58 0.930 . S
H80 C60 0.930 . S
H81 C61 0.931 . S
H82 C63 0.931 . S
H83 C65 0.930 . S
H84 C67 0.930 . S
H85 C68 0.931 . S
N86 C48 1.343 . S
N86 C69 1.343 . S
N87 C55 1.343 . S
N87 C62 1.343 . S
C88 C89 1.384 . S
C88 C90 1.384 . S
C88 H116 0.931 . S
C89 C88 1.384 . S
C89 C92 1.382 1_545 S
C90 C88 1.384 . S
C90 C91 1.381 . S
C90 H117 0.930 . S
C91 C90 1.381 . S
C91 C93 1.381 1_545 S
C91 C94 1.487 . S
C92 C89 1.382 1_565 S
C92 C93 1.387 . S
C92 H118 0.930 . S
C93 C91 1.381 1_565 S
C93 C92 1.387 . S
C93 H119 0.931 . S
C94 C91 1.487 . S
C94 C101 1.399 . S
C94 N132 1.343 . S
C95 C96 1.384 1_565 S
C95 C97 1.384 . S
C95 H120 0.931 . S
C96 C95 1.384 1_545 S
C96 C99 1.382 . S
C97 C95 1.384 . S
C97 C98 1.381 1_565 S
C97 H121 0.930 . S
C98 C97 1.381 1_545 S
C98 C100 1.381 . S
C98 C101 1.487 . S
C99 C96 1.382 . S
C99 C100 1.387 . S
C99 H122 0.930 . S
C100 C98 1.381 . S
C100 C99 1.387 . S
C100 H123 0.931 . S
C101 C94 1.399 . S
C101 C98 1.487 . S
C101 N133 1.343 . S
C102 C103 1.384 1_565 S
C102 C104 1.384 . S
C102 H124 0.931 . S
C103 C102 1.384 1_545 S
C103 C106 1.382 . S
C104 C102 1.384 . S
C104 C105 1.381 1_565 S
C104 H125 0.930 . S
C105 C104 1.381 1_545 S
C105 C107 1.381 . S
C105 C108 1.487 . S
C106 C103 1.382 . S
C106 C107 1.387 . S
C106 H126 0.930 . S
C107 C105 1.381 . S
C107 C106 1.387 . S
C107 H127 0.931 . S
C108 C105 1.487 . S
C108 C115 1.399 . S
C108 N133 1.343 . S
C109 C110 1.384 . S
C109 C111 1.384 . S
C109 H128 0.931 . S
C110 C109 1.384 . S
C110 C113 1.382 1_545 S
C111 C109 1.384 . S
C111 C112 1.381 . S
C111 H129 0.930 . S
C112 C111 1.381 . S
C112 C114 1.381 1_545 S
C112 C115 1.487 . S
C113 C110 1.382 1_565 S
C113 C114 1.387 . S
C113 H130 0.930 . S
C114 C112 1.381 1_565 S
C114 C113 1.387 . S
C114 H131 0.931 . S
C115 C108 1.399 . S
C115 C112 1.487 . S
C115 N132 1.343 . S
H116 C88 0.931 . S
H117 C90 0.930 . S
H118 C92 0.930 . S
H119 C93 0.931 . S
H120 C95 0.931 . S
H121 C97 0.930 . S
H122 C99 0.930 . S
H123 C100 0.931 . S
H124 C102 0.931 . S
H125 C104 0.930 . S
H126 C106 0.930 . S
H127 C107 0.931 . S
H128 C109 0.931 . S
H129 C111 0.930 . S
H130 C113 0.930 . S
H131 C114 0.931 . S
N132 C94 1.343 . S
N132 C115 1.343 . S
N133 C101 1.343 . S
N133 C108 1.343 . S
C134 C135 1.384 . S
C134 C136 1.384 . S
C134 H162 0.931 . S
C135 C134 1.384 . S
C135 C138 1.382 . S
C136 C134 1.384 . S
C136 C137 1.381 . S
C136 H163 0.930 . S
C137 C136 1.381 . S
C137 C139 1.381 . S
C137 C140 1.487 . S
C138 C135 1.382 . S
C138 C139 1.387 . S
C138 H164 0.930 . S
C139 C137 1.381 . S
C139 C138 1.387 . S
C139 H165 0.931 . S
C140 C137 1.487 . S
C140 C147 1.399 . S
C140 N178 1.343 . S
C141 C142 1.384 . S
C141 C143 1.384 . S
C141 H166 0.931 . S
C142 C141 1.384 . S
C142 C145 1.382 . S
C143 C141 1.384 . S
C143 C144 1.381 . S
C143 H167 0.930 . S
C144 C143 1.381 . S
C144 C146 1.381 . S
C144 C147 1.487 . S
C145 C142 1.382 . S
C145 C146 1.387 . S
C145 H168 0.930 . S
C146 C144 1.381 . S
C146 C145 1.387 . S
C146 H169 0.931 . S
C147 C140 1.399 . S
C147 C144 1.487 . S
C147 N179 1.343 . S
C148 C149 1.384 . S
C148 C150 1.384 . S
C148 H170 0.931 . S
C149 C148 1.384 . S
C149 C152 1.382 . S
C150 C148 1.384 . S
C150 C151 1.381 . S
C150 H171 0.930 . S
C151 C150 1.381 . S
C151 C153 1.381 . S
C151 C154 1.487 . S
C152 C149 1.382 . S
C152 C153 1.387 . S
C152 H172 0.930 . S
C153 C151 1.381 . S
C153 C152 1.387 . S
C153 H173 0.931 . S
C154 C151 1.487 . S
C154 C161 1.399 . S
C154 N179 1.343 . S
C155 C156 1.384 . S
C155 C157 1.384 . S
C155 H174 0.931 . S
C156 C155 1.384 . S
C156 C159 1.382 . S
C157 C155 1.384 . S
C157 C158 1.381 . S
C157 H175 0.930 . S
C158 C157 1.381 . S
C158 C160 1.381 . S
C158 C161 1.487 . S
C159 C156 1.382 . S
C159 C160 1.387 . S
C159 H176 0.930 . S
C160 C158 1.381 . S
C160 C159 1.387 . S
C160 H177 0.931 . S
C161 C154 1.399 . S
C161 C158 1.487 . S
C161 N178 1.343 . S
H162 C134 0.931 . S
H163 C136 0.930 . S
H164 C138 0.930 . S
H165 C139 0.931 . S
H166 C141 0.931 . S
H167 C143 0.930 . S
H168 C145 0.930 . S
H169 C146 0.931 . S
H170 C148 0.931 . S
H171 C150 0.930 . S
H172 C152 0.930 . S
H173 C153 0.931 . S
H174 C155 0.931 . S
H175 C157 0.930 . S
H176 C159 0.930 . S
H177 C160 0.931 . S
N178 C140 1.343 . S
N178 C161 1.343 . S
N179 C147 1.343 . S
N179 C154 1.343 . S
H180 C188 0.950 . S
H181 C193 0.950 . S
H182 C190 0.950 . S
H183 C192 0.950 . S
H184 C194 0.950 . S
H185 C196 0.950 . S
H186 C198 0.950 . S
H187 C199 0.950 . S
C188 H180 0.950 . S
C188 C189 1.386 . S
C188 C190 1.391 . S
C189 C188 1.386 . S
C189 C193 1.393 1_455 S
C190 H182 0.950 . S
C190 C188 1.391 . S
C190 C191 1.400 . S
C191 C190 1.400 . S
C191 C192 1.398 1_455 S
C191 C197 1.491 . S
C192 H183 0.950 . S
C192 C191 1.398 1_655 S
C192 C193 1.391 . S
C193 H181 0.950 . S
C193 C189 1.393 1_655 S
C193 C192 1.391 . S
C194 H184 0.950 . S
C194 C195 1.386 1_655 S
C194 C196 1.391 . S
C195 C194 1.386 1_455 S
C195 C199 1.393 . S
C196 H185 0.950 . S
C196 C194 1.391 . S
C196 C197 1.400 1_655 S
C197 C191 1.491 . S
C197 C196 1.400 1_455 S
C197 C198 1.398 . S
C198 H186 0.950 . S
C198 C197 1.398 . S
C198 C199 1.391 . S
C199 H187 0.950 . S
C199 C195 1.393 . S
C199 C198 1.391 . S
H200 C208 0.954 . S
H201 C213 0.950 . S
H202 C210 0.948 . S
H203 C212 0.950 . S
H204 C214 0.950 . S
H205 C216 0.950 . S
H206 C218 0.950 . S
H207 C219 0.950 . S
C208 H200 0.954 . S
C208 C209 1.386 . S
C208 C210 1.391 . S
C209 C208 1.386 . S
C209 C213 1.393 . S
C210 H202 0.948 . S
C210 C208 1.391 . S
C210 C211 1.400 . S
C211 C210 1.400 . S
C211 C212 1.398 . S
C211 C217 1.491 . S
C212 H203 0.950 . S
C212 C211 1.398 . S
C212 C213 1.391 . S
C213 H201 0.950 . S
C213 C209 1.393 . S
C213 C212 1.391 . S
C214 H204 0.950 . S
C214 C215 1.386 . S
C214 C216 1.391 . S
C215 C214 1.386 . S
C215 C219 1.393 . S
C216 H205 0.950 . S
C216 C214 1.391 . S
C216 C217 1.400 . S
C217 C211 1.491 . S
C217 C216 1.400 . S
C217 C218 1.398 . S
C218 H206 0.950 . S
C218 C217 1.398 . S
C218 C219 1.391 . S
C219 H207 0.950 . S
C219 C215 1.393 . S
C219 C218 1.391 . S
H220 C228 0.950 . S
H221 C233 0.950 . S
H222 C230 0.950 . S
H223 C232 0.950 . S
H224 C234 0.950 . S
H225 C236 0.950 . S
H226 C238 0.950 . S
H227 C239 0.950 . S
C228 H220 0.950 . S
C228 C229 1.386 . S
C228 C230 1.391 . S
C229 C228 1.386 . S
C229 C233 1.393 . S
C230 H222 0.950 . S
C230 C228 1.391 . S
C230 C231 1.400 . S
C231 C230 1.400 . S
C231 C232 1.398 . S
C231 C237 1.491 . S
C232 H223 0.950 . S
C232 C231 1.398 . S
C232 C233 1.391 . S
C233 H221 0.950 . S
C233 C229 1.393 . S
C233 C232 1.391 . S
C234 H224 0.950 . S
C234 C235 1.386 . S
C234 C236 1.391 . S
C235 C234 1.386 . S
C235 C239 1.393 . S
C236 H225 0.950 . S
C236 C234 1.391 . S
C236 C237 1.400 . S
C237 C231 1.491 . S
C237 C236 1.400 . S
C237 C238 1.398 . S
C238 H226 0.950 . S
C238 C237 1.398 . S
C238 C239 1.391 . S
C239 H227 0.950 . S
C239 C235 1.393 . S
C239 C238 1.391 . S
H240 C248 0.950 . S
H241 C253 0.950 . S
H242 C250 0.950 . S
H243 C252 0.950 . S
H244 C254 0.950 . S
H245 C256 0.950 . S
H246 C258 0.950 . S
H247 C259 0.950 . S
C248 H240 0.950 . S
C248 C249 1.386 1_655 S
C248 C250 1.391 . S
C249 C248 1.386 1_455 S
C249 C253 1.393 . S
C250 H242 0.950 . S
C250 C248 1.391 . S
C250 C251 1.400 1_655 S
C251 C250 1.400 1_455 S
C251 C252 1.398 . S
C251 C257 1.491 . S
C252 H243 0.950 . S
C252 C251 1.398 . S
C252 C253 1.391 . S
C253 H241 0.950 . S
C253 C249 1.393 . S
C253 C252 1.391 . S
C254 H244 0.950 . S
C254 C255 1.386 . S
C254 C256 1.391 . S
C255 C254 1.386 . S
C255 C259 1.393 1_455 S
C256 H245 0.950 . S
C256 C254 1.391 . S
C256 C257 1.400 . S
C257 C251 1.491 . S
C257 C256 1.400 . S
C257 C258 1.398 1_455 S
C258 H246 0.950 . S
C258 C257 1.398 1_655 S
C258 C259 1.391 . S
C259 H247 0.950 . S
C259 C255 1.393 1_655 S
C259 C258 1.391 . S
H260 C268 0.950 . S
H261 C273 0.950 . S
H262 C270 0.950 . S
H263 C272 0.950 . S
H264 C274 0.950 . S
H265 C276 0.950 . S
H266 C278 0.950 . S
H267 C279 0.950 . S
C268 H260 0.950 . S
C268 C269 1.386 . S
C268 C270 1.391 . S
C269 C268 1.386 . S
C269 C273 1.393 . S
C270 H262 0.950 . S
C270 C268 1.391 . S
C270 C271 1.400 . S
C271 C270 1.400 . S
C271 C272 1.398 . S
C271 C277 1.491 . S
C272 H263 0.950 . S
C272 C271 1.398 . S
C272 C273 1.391 . S
C273 H261 0.950 . S
C273 C269 1.393 . S
C273 C272 1.391 . S
C274 H264 0.950 . S
C274 C275 1.386 . S
C274 C276 1.391 . S
C275 C274 1.386 . S
C275 C279 1.393 . S
C276 H265 0.950 . S
C276 C274 1.391 . S
C276 C277 1.400 . S
C277 C271 1.491 . S
C277 C276 1.400 . S
C277 C278 1.398 . S
C278 H266 0.950 . S
C278 C277 1.398 . S
C278 C279 1.391 . S
C279 H267 0.950 . S
C279 C275 1.393 . S
C279 C278 1.391 . S
H280 C288 0.950 . S
H281 C293 0.950 . S
H282 C290 0.950 . S
H283 C292 0.950 . S
H284 C294 0.950 . S
H285 C296 0.950 . S
H286 C298 0.950 . S
H287 C299 0.950 . S
C288 H280 0.950 . S
C288 C289 1.386 . S
C288 C290 1.391 . S
C289 C288 1.386 . S
C289 C293 1.393 . S
C290 H282 0.950 . S
C290 C288 1.391 . S
C290 C291 1.400 . S
C291 C290 1.400 . S
C291 C292 1.398 . S
C291 C297 1.491 . S
C292 H283 0.950 . S
C292 C291 1.398 . S
C292 C293 1.391 . S
C293 H281 0.950 . S
C293 C289 1.393 . S
C293 C292 1.391 . S
C294 H284 0.950 . S
C294 C295 1.386 . S
C294 C296 1.391 . S
C295 C294 1.386 . S
C295 C299 1.393 . S
C296 H285 0.950 . S
C296 C294 1.391 . S
C296 C297 1.400 . S
C297 C291 1.491 . S
C297 C296 1.400 . S
C297 C298 1.398 . S
C298 H286 0.950 . S
C298 C297 1.398 . S
C298 C299 1.391 . S
C299 H287 0.950 . S
C299 C295 1.393 . S
C299 C298 1.391 . S
H300 C308 0.950 . S
H301 C313 0.950 . S
H302 C310 0.950 . S
H303 C312 0.950 . S
H304 C314 0.950 . S
H305 C316 0.950 . S
H306 C318 0.950 . S
H307 C319 0.950 . S
C308 H300 0.950 . S
C308 C309 1.386 1_565 S
C308 C310 1.391 . S
C309 C308 1.386 1_545 S
C309 C313 1.393 . S
C310 H302 0.950 . S
C310 C308 1.391 . S
C310 C311 1.400 1_565 S
C311 C310 1.400 1_545 S
C311 C312 1.398 . S
C311 C317 1.491 . S
C312 H303 0.950 . S
C312 C311 1.398 . S
C312 C313 1.391 . S
C313 H301 0.950 . S
C313 C309 1.393 . S
C313 C312 1.391 . S
C314 H304 0.950 . S
C314 C315 1.386 . S
C314 C316 1.391 . S
C315 C314 1.386 . S
C315 C319 1.393 1_545 S
C316 H305 0.950 . S
C316 C314 1.391 . S
C316 C317 1.400 . S
C317 C311 1.491 . S
C317 C316 1.400 . S
C317 C318 1.398 1_545 S
C318 H306 0.950 . S
C318 C317 1.398 1_565 S
C318 C319 1.391 . S
C319 H307 0.950 . S
C319 C315 1.393 1_565 S
C319 C318 1.391 . S
H320 C328 0.950 . S
H321 C333 0.950 . S
H322 C330 0.950 . S
H323 C332 0.950 . S
H324 C334 0.950 . S
H325 C336 0.950 . S
H326 C338 0.950 . S
H327 C339 0.950 . S
C328 H320 0.950 . S
C328 C329 1.386 . S
C328 C330 1.391 1_554 S
C329 C328 1.386 . S
C329 C333 1.393 . S
C330 H322 0.950 . S
C330 C328 1.391 1_556 S
C330 C331 1.400 . S
C331 C330 1.400 . S
C331 C332 1.398 1_556 S
C331 C337 1.491 . S
C332 H323 0.950 . S
C332 C331 1.398 1_554 S
C332 C333 1.391 . S
C333 H321 0.950 . S
C333 C329 1.393 . S
C333 C332 1.391 . S
C334 H324 0.950 . S
C334 C335 1.386 . S
C334 C336 1.391 . S
C335 C334 1.386 . S
C335 C339 1.393 . S
C336 H325 0.950 . S
C336 C334 1.391 . S
C336 C337 1.400 . S
C337 C331 1.491 . S
C337 C336 1.400 . S
C337 C338 1.398 . S
C338 H326 0.950 . S
C338 C337 1.398 . S
C338 C339 1.391 . S
C339 H327 0.950 . S
C339 C335 1.393 . S
C339 C338 1.391 . S
H340 C348 0.950 . S
H341 C353 0.950 . S
H342 C350 0.950 . S
H343 C352 0.950 . S
H344 C354 0.950 . S
H345 C356 0.950 . S
H346 C358 0.950 . S
H347 C359 0.950 . S
C348 H340 0.950 . S
C348 C349 1.386 . S
C348 C350 1.391 . S
C349 C348 1.386 . S
C349 C353 1.393 1_455 S
C350 H342 0.950 . S
C350 C348 1.391 . S
C350 C351 1.400 . S
C351 C350 1.400 . S
C351 C352 1.398 1_455 S
C351 C357 1.491 . S
C352 H343 0.950 . S
C352 C351 1.398 1_655 S
C352 C353 1.391 . S
C353 H341 0.950 . S
C353 C349 1.393 1_655 S
C353 C352 1.391 . S
C354 H344 0.950 . S
C354 C355 1.386 1_655 S
C354 C356 1.391 . S
C355 C354 1.386 1_455 S
C355 C359 1.393 . S
C356 H345 0.950 . S
C356 C354 1.391 . S
C356 C357 1.400 1_655 S
C357 C351 1.491 . S
C357 C356 1.400 1_455 S
C357 C358 1.398 . S
C358 H346 0.950 . S
C358 C357 1.398 . S
C358 C359 1.391 . S
C359 H347 0.950 . S
C359 C355 1.393 . S
C359 C358 1.391 . S
H360 C368 0.949 . S
H361 C373 0.950 . S
H362 C370 0.950 1_565 S
H363 C372 0.950 . S
H364 C374 0.950 . S
H365 C376 0.950 . S
H366 C378 0.950 1_565 S
H367 C379 0.950 1_565 S
C368 H360 0.949 . S
C368 C369 1.386 . S
C368 C370 1.391 . S
C369 C368 1.386 . S
C369 C373 1.393 . S
C370 H362 0.950 1_545 S
C370 C368 1.391 . S
C370 C371 1.400 . S
C371 C370 1.400 . S
C371 C372 1.398 . S
C371 C377 1.491 . S
C372 H363 0.950 . S
C372 C371 1.398 . S
C372 C373 1.391 . S
C373 H361 0.950 . S
C373 C369 1.393 . S
C373 C372 1.391 . S
C374 H364 0.950 . S
C374 C375 1.386 . S
C374 C376 1.391 . S
C375 C374 1.386 . S
C375 C379 1.393 . S
C376 H365 0.950 . S
C376 C374 1.391 . S
C376 C377 1.400 . S
C377 C371 1.491 . S
C377 C376 1.400 . S
C377 C378 1.398 . S
C378 H366 0.950 1_545 S
C378 C377 1.398 . S
C378 C379 1.391 . S
C379 H367 0.950 1_545 S
C379 C375 1.393 . S
C379 C378 1.391 . S
H380 C388 0.950 . S
H381 C393 0.950 . S
H382 C390 0.950 . S
H383 C392 0.950 . S
H384 C394 0.950 . S
H385 C396 0.950 . S
H386 C398 0.950 . S
H387 C399 0.950 . S
C388 H380 0.950 . S
C388 C389 1.386 . S
C388 C390 1.391 1_554 S
C389 C388 1.386 . S
C389 C393 1.393 . S
C390 H382 0.950 . S
C390 C388 1.391 1_556 S
C390 C391 1.400 . S
C391 C390 1.400 . S
C391 C392 1.398 . S
C391 C397 1.491 . S
C392 H383 0.950 . S
C392 C391 1.398 . S
C392 C393 1.391 1_556 S
C393 H381 0.950 . S
C393 C389 1.393 . S
C393 C392 1.391 1_554 S
C394 H384 0.950 . S
C394 C395 1.386 . S
C394 C396 1.391 . S
C395 C394 1.386 . S
C395 C399 1.393 . S
C396 H385 0.950 . S
C396 C394 1.391 . S
C396 C397 1.400 . S
C397 C391 1.491 . S
C397 C396 1.400 . S
C397 C398 1.398 . S
C398 H386 0.950 . S
C398 C397 1.398 . S
C398 C399 1.391 . S
C399 H387 0.950 . S
C399 C395 1.393 . S
C399 C398 1.391 . S
H400 C408 0.950 . S
H401 C413 0.950 . S
H402 C410 0.950 . S
H403 C412 0.950 . S
H404 C414 0.950 . S
H405 C416 0.950 . S
H406 C418 0.950 . S
H407 C419 0.950 . S
C408 H400 0.950 . S
C408 C409 1.386 . S
C408 C410 1.391 . S
C409 C408 1.386 . S
C409 C413 1.393 1_455 S
C410 H402 0.950 . S
C410 C408 1.391 . S
C410 C411 1.400 . S
C411 C410 1.400 . S
C411 C412 1.398 1_455 S
C411 C417 1.491 . S
C412 H403 0.950 . S
C412 C411 1.398 1_655 S
C412 C413 1.391 . S
C413 H401 0.950 . S
C413 C409 1.393 1_655 S
C413 C412 1.391 . S
C414 H404 0.950 . S
C414 C415 1.386 1_655 S
C414 C416 1.391 . S
C415 C414 1.386 1_455 S
C415 C419 1.393 . S
C416 H405 0.950 . S
C416 C414 1.391 . S
C416 C417 1.400 1_655 S
C417 C411 1.491 . S
C417 C416 1.400 1_455 S
C417 C418 1.398 . S
C418 H406 0.950 . S
C418 C417 1.398 . S
C418 C419 1.391 . S
C419 H407 0.950 . S
C419 C415 1.393 . S
C419 C418 1.391 . S
C195 C50 1.494 . S
C189 C3 1.494 . S
C209 C21 1.500 . S
C215 C89 1.530 . S
C229 C37 1.482 . S
C235 C156 1.511 . S
C249 C8 1.500 . S
C255 C57 1.499 . S
C275 C110 1.514 . S
C269 C23 1.484 . S
C289 C35 1.478 . S
C295 C135 1.510 . S
C315 C96 1.485 . S
C309 C31 1.483 . S
C329 C7 1.493 . S
C335 C149 1.509 . S
C355 C64 1.494 . S
C349 C17 1.496 . S
C375 C103 1.475 . S
C369 C36 1.475 . S
C395 C142 1.508 . S
C389 C9 1.485 . S
C409 C22 1.499 . S
C415 C43 1.500 . S
