# Generated by pormake.
# Topology tsx, (6,3)-cn, num edge types: 1
# Building blocks:
#     Node 0, Type 0, BuildingBlock: VOLQOD_clean_sbu_1, # of connection points: 6
#     Node 1, Type 0, BuildingBlock: VOLQOD_clean_sbu_1, # of connection points: 6
#     Node 2, Type 1, BuildingBlock: BETDAH_clean_linker_0, # of connection points: 3
#     Node 3, Type 1, BuildingBlock: BETDAH_clean_linker_0, # of connection points: 3
#     Node 4, Type 1, BuildingBlock: BETDAH_clean_linker_0, # of connection points: 3
#     Node 5, Type 1, BuildingBlock: BETDAH_clean_linker_0, # of connection points: 3
#     Edge 6, Type (0, 1), BuildingBlock: ZUJKAS_clean_linker_0, # of connection points: 2
#     Edge 7, Type (0, 1), BuildingBlock: ZUJKAS_clean_linker_0, # of connection points: 2
#     Edge 8, Type (0, 1), BuildingBlock: ZUJKAS_clean_linker_0, # of connection points: 2
#     Edge 9, Type (0, 1), BuildingBlock: ZUJKAS_clean_linker_0, # of connection points: 2
#     Edge 10, Type (0, 1), BuildingBlock: ZUJKAS_clean_linker_0, # of connection points: 2
#     Edge 11, Type (0, 1), BuildingBlock: ZUJKAS_clean_linker_0, # of connection points: 2
#     Edge 12, Type (0, 1), BuildingBlock: ZUJKAS_clean_linker_0, # of connection points: 2
#     Edge 13, Type (0, 1), BuildingBlock: ZUJKAS_clean_linker_0, # of connection points: 2
#     Edge 14, Type (0, 1), BuildingBlock: ZUJKAS_clean_linker_0, # of connection points: 2
#     Edge 15, Type (0, 1), BuildingBlock: ZUJKAS_clean_linker_0, # of connection points: 2
#     Edge 16, Type (0, 1), BuildingBlock: ZUJKAS_clean_linker_0, # of connection points: 2
#     Edge 17, Type (0, 1), BuildingBlock: ZUJKAS_clean_linker_0, # of connection points: 2
# Relax obj value: 0.053
# Max RMSD: 0.114
# Mean RMSD: 0.101
data_MOF--net-tsx--node1-VOLQOD_clean_sbu_1--node2-BETDAH_clean_linker_0--edge1-ZUJKAS_clean_linker_0
_symmetry_space_group_name_H-M    P1
_symmetry_Int_Tables_number       1
_symmetry_cell_setting            triclinic
loop_
_symmetry_equiv_pos_as_xyz
'x, y, z'
_cell_length_a     27.271951
_cell_length_b     28.227297
_cell_length_c     48.499807
_cell_angle_alpha  90.291727
_cell_angle_beta   97.856427
_cell_angle_gamma 90.298436
loop_
_atom_site_label
_atom_site_type_symbol
_atom_site_fract_x
_atom_site_fract_y
_atom_site_fract_z
_atom_type_partial_charge
O0 O 0.04273 0.00991 0.07497 0.0
Zn1 Zn 0.06011 0.01076 0.03542 0.0
O2 O 0.00133 0.022 0.00806 0.0
Zn3 Zn 0.98929 0.96859 0.98245 0.0
Zn4 Zn 0.94402 0.02966 0.02741 0.0
Zn5 Zn 0.01037 0.07889 0.98667 0.0
O6 O 0.98454 0.98891 0.94225 0.0
O7 O 0.01016 0.06372 0.94601 0.0
O8 O 0.09522 0.95053 0.02625 0.0
O9 O 0.04681 0.92485 0.98852 0.0
O10 O 0.92939 0.93037 0.98935 0.0
O11 O 0.8987 0.9732 0.02136 0.0
O12 O 0.9059 0.08821 0.01513 0.0
O13 O 0.10898 0.06429 0.03433 0.0
O14 O 0.95487 0.12461 0.98886 0.0
O15 O 0.0743 0.1118 0.00094 0.0
C16 C 0.00373 0.0231 0.08466 0.0
C17 C 0.99698 0.02727 0.9312 0.0
C18 C 0.89742 0.93657 0.00586 0.0
C19 C 0.08545 0.92091 0.00627 0.0
C20 C 0.91558 0.12324 1.00031 0.0
C21 C 0.10979 0.10175 0.01985 0.0
O22 O 0.96467 0.03414 0.06856 0.0
O23 O 0.54266 0.51046 0.57136 0.0
Zn24 Zn 0.55793 0.50906 0.53142 0.0
O25 O 0.49807 0.51907 0.50456 0.0
Zn26 Zn 0.48517 0.46415 0.47994 0.0
Zn27 Zn 0.4419 0.52817 0.5247 0.0
Zn28 Zn 0.50578 0.57506 0.48203 0.0
O29 O 0.48214 0.4819 0.43936 0.0
O30 O 0.50354 0.55796 0.44159 0.0
O31 O 0.59178 0.44746 0.52341 0.0
O32 O 0.54122 0.41882 0.48733 0.0
O33 O 0.42378 0.42829 0.48711 0.0
O34 O 0.39477 0.47334 0.51874 0.0
O35 O 0.40513 0.5878 0.51338 0.0
O36 O 0.60671 0.56186 0.52837 0.0
O37 O 0.451 0.62166 0.48449 0.0
O38 O 0.57065 0.60778 0.49453 0.0
C39 C 0.5035 0.52177 0.58147 0.0
C40 C 0.49246 0.52025 0.42755 0.0
C41 C 0.39207 0.43629 0.50356 0.0
C42 C 0.58043 0.41579 0.50473 0.0
C43 C 0.41349 0.62179 0.4975 0.0
C44 C 0.60698 0.59837 0.51306 0.0
O45 O 0.46353 0.53114 0.56573 0.0
H46 H 0.06015 0.97558 0.37691 0.0
H47 H 0.91539 0.02984 0.38489 0.0
H48 H 0.99262 0.94519 0.44997 0.0
C49 C 0.02982 0.98001 0.38898 0.0
C50 C 0.03218 0.95823 0.41506 0.0
C51 C 0.98772 0.00546 0.3777 0.0
C52 C 0.94834 0.01077 0.39343 0.0
C53 C 0.95077 0.98952 0.41975 0.0
C54 C 0.99216 0.96289 0.43015 0.0
N55 N 0.91075 0.9914 0.43544 0.0
C56 C 0.88497 0.03258 0.43925 0.0
H57 H 0.96423 0.93288 0.63898 0.0
H58 H 0.09502 0.01754 0.63495 0.0
H59 H 0.03362 0.93287 0.56466 0.0
C60 C 0.99354 0.94505 0.6277 0.0
C61 C 0.9943 0.92938 0.60029 0.0
C62 C 0.02997 0.97638 0.64065 0.0
C63 C 0.06635 0.99379 0.62524 0.0
C64 C 0.06737 0.97797 0.59773 0.0
C65 C 0.03179 0.94558 0.58563 0.0
N66 N 0.10523 0.99162 0.5821 0.0
C67 C 0.12692 0.03624 0.58342 0.0
H68 H 0.56307 0.46752 0.87512 0.0
H69 H 0.42515 0.53726 0.88234 0.0
H70 H 0.49559 0.45297 0.94965 0.0
C71 C 0.534 0.47689 0.88728 0.0
C72 C 0.53497 0.45802 0.91404 0.0
C73 C 0.49451 0.50532 0.87545 0.0
C74 C 0.45599 0.51558 0.89113 0.0
C75 C 0.45658 0.49637 0.91789 0.0
C76 C 0.4956 0.46738 0.92898 0.0
N77 N 0.41748 0.50376 0.93379 0.0
C78 C 0.39363 0.54678 0.93513 0.0
H79 H 0.47206 0.44629 0.13711 0.0
H80 H 0.61184 0.51549 0.13304 0.0
H81 H 0.54798 0.4248 0.066 0.0
C82 C 0.50274 0.45428 0.1258 0.0
C83 C 0.50474 0.43273 0.09986 0.0
C84 C 0.54138 0.4837 0.1381 0.0
C85 C 0.58175 0.49292 0.1237 0.0
C86 C 0.58377 0.47183 0.09753 0.0
C87 C 0.54588 0.44112 0.08608 0.0
N88 N 0.62404 0.47985 0.08254 0.0
C89 C 0.64574 0.52412 0.0809 0.0
H90 H 0.19381 0.09108 0.05718 0.0
H91 H 0.26199 0.14755 0.06802 0.0
H92 H 0.19015 0.24398 0.00687 0.0
H93 H 0.12204 0.18754 0.99552 0.0
H94 H 0.2922 0.23485 0.00524 0.0
H95 H 0.25067 0.27026 0.11236 0.0
H96 H 0.25935 0.20875 0.10483 0.0
H97 H 0.20775 0.24 0.08643 0.0
C98 C 0.19248 0.12422 0.04595 0.0
C99 C 0.15221 0.13493 0.02563 0.0
C100 C 0.23141 0.1565 0.05227 0.0
C101 C 0.23061 0.20018 0.03856 0.0
C102 C 0.19126 0.21049 0.01776 0.0
H103 H 0.40528 0.44677 0.09669 0.0
H104 H 0.33865 0.39134 0.07958 0.0
C105 C 0.15234 0.17821 0.01135 0.0
C106 C 0.27039 0.23551 0.04627 0.0
H107 H 0.32504 0.3032 0.10047 0.0
C108 C 0.29941 0.24994 0.02603 0.0
C109 C 0.27906 0.25556 0.07328 0.0
C110 C 0.24731 0.24327 0.09544 0.0
C111 C 0.33756 0.28347 0.03224 0.0
C112 C 0.34723 0.30236 0.05952 0.0
C113 C 0.31772 0.28838 0.07962 0.0
C114 C 0.38756 0.33694 0.06781 0.0
C115 C 0.36658 0.29894 0.00948 0.0
C116 C 0.43708 0.32472 0.06674 0.0
C117 C 0.4752 0.35635 0.07648 0.0
C118 C 0.46437 0.40046 0.08773 0.0
C119 C 0.4147 0.41282 0.08839 0.0
C120 C 0.37665 0.38131 0.07854 0.0
H121 H 0.34627 0.29114 0.98848 0.0
H122 H 0.37502 0.33747 0.01102 0.0
H123 H 0.40215 0.27951 0.01155 0.0
H124 H 0.44633 0.29023 0.05912 0.0
H125 H 0.51318 0.34564 0.07607 0.0
H126 H 0.17888 0.90652 0.03439 0.0
H127 H 0.2392 0.84721 0.02367 0.0
H128 H 0.13214 0.79011 0.95813 0.0
H129 H 0.07207 0.84875 0.96844 0.0
H130 H 0.23121 0.74489 0.02137 0.0
H131 H 0.25376 0.82261 0.91905 0.0
H132 H 0.22675 0.85483 0.94546 0.0
H133 H 0.19039 0.81221 0.92369 0.0
C134 C 0.1681 0.88109 0.01785 0.0
C135 C 0.12079 0.88272 0.00211 0.0
C136 C 0.20261 0.84738 0.01172 0.0
C137 C 0.19034 0.81512 0.98971 0.0
C138 C 0.14264 0.81548 0.97477 0.0
H139 H 0.30364 0.57545 0.91137 0.0
H140 H 0.25806 0.64458 0.9253 0.0
C141 C 0.10826 0.84894 0.98083 0.0
C142 C 0.22694 0.78071 0.98208 0.0
H143 H 0.28402 0.74394 0.92739 0.0
C144 C 0.24346 0.74497 0.00101 0.0
C145 C 0.24271 0.78112 0.95548 0.0
C146 C 0.2279 0.82 0.93481 0.0
C147 C 0.27356 0.70819 0.99353 0.0
C148 C 0.28796 0.70777 0.96658 0.0
C149 C 0.27269 0.74434 0.94797 0.0
C150 C 0.31699 0.66845 0.95689 0.0
C151 C 0.28798 0.66899 0.01405 0.0
C152 C 0.36553 0.65999 0.96954 0.0
C153 C 0.39142 0.6208 0.96153 0.0
C154 C 0.36914 0.59 0.94072 0.0
C155 C 0.32137 0.59922 0.92736 0.0
C156 C 0.29546 0.63844 0.93534 0.0
H157 H 0.26589 0.66968 0.03167 0.0
H158 H 0.28311 0.63383 0.00363 0.0
H159 H 0.32761 0.67308 0.02268 0.0
H160 H 0.38298 0.68317 0.98591 0.0
H161 H 0.42831 0.61388 0.9721 0.0
H162 H 0.89301 0.84704 0.9835 0.0
H163 H 0.84167 0.78093 0.99518 0.0
H164 H 0.76932 0.87291 0.04813 0.0
H165 H 0.821 0.93911 0.03697 0.0
H166 H 0.8053 0.79288 0.07473 0.0
H167 H 0.69682 0.74594 0.9731 0.0
H168 H 0.76225 0.74889 0.97188 0.0
H169 H 0.72947 0.80165 0.97917 0.0
C170 C 0.86549 0.85352 0.99718 0.0
C171 C 0.86131 0.89839 0.00938 0.0
C172 C 0.836 0.81567 0.00375 0.0
C173 C 0.80141 0.82209 0.02236 0.0
C174 C 0.79576 0.86723 0.03369 0.0
H175 H 0.59608 0.6009 0.06041 0.0
H176 H 0.63206 0.67639 0.04767 0.0
C177 C 0.82532 0.90504 0.02723 0.0
C178 C 0.77438 0.78097 0.03193 0.0
H179 H 0.69825 0.68834 0.00923 0.0
C180 C 0.78149 0.77027 0.06044 0.0
C181 C 0.74301 0.75179 0.01331 0.0
C182 C 0.73198 0.76284 0.9827 0.0
C183 C 0.75918 0.73042 0.07074 0.0
C184 C 0.72965 0.70006 0.05196 0.0
C185 C 0.72132 0.71148 0.02356 0.0
C186 C 0.70783 0.65575 0.06124 0.0
C187 C 0.76728 0.72126 0.10165 0.0
C188 C 0.73854 0.61931 0.07313 0.0
C189 C 0.71802 0.57646 0.08046 0.0
C190 C 0.66667 0.56961 0.0759 0.0
C191 C 0.63585 0.60598 0.06431 0.0
C192 C 0.65632 0.64883 0.05696 0.0
H193 H 0.77888 0.75396 0.1137 0.0
H194 H 0.73317 0.70707 0.10883 0.0
H195 H 0.79703 0.69466 0.10635 0.0
H196 H 0.7784 0.62359 0.07609 0.0
H197 H 0.74228 0.54836 0.08906 0.0
H198 H 0.92736 0.20739 0.97428 0.0
H199 H 0.8662 0.26993 0.96385 0.0
H200 H 0.7613 0.18988 0.0041 0.0
H201 H 0.82245 0.12756 0.01515 0.0
H202 H 0.77708 0.25915 0.93145 0.0
H203 H 0.74927 0.32126 0.03682 0.0
H204 H 0.80124 0.28518 0.03071 0.0
H205 H 0.74165 0.25841 0.03218 0.0
C206 C 0.89149 0.2033 0.98123 0.0
C207 C 0.87975 0.16243 0.99552 0.0
C208 C 0.85665 0.23911 0.97528 0.0
C209 C 0.80952 0.23479 0.98353 0.0
C210 C 0.79787 0.19442 0.99813 0.0
H211 H 0.53005 0.37544 0.94288 0.0
H212 H 0.5986 0.32371 0.96095 0.0
C213 C 0.83278 0.15867 0.00425 0.0
C214 C 0.77127 0.27062 0.97483 0.0
H215 H 0.68944 0.34619 0.99906 0.0
C216 C 0.75829 0.27858 0.94624 0.0
C217 C 0.74676 0.29569 0.99421 0.0
C218 C 0.76072 0.2901 0.0252 0.0
C219 C 0.72055 0.31015 0.93642 0.0
C220 C 0.69562 0.33469 0.95576 0.0
C221 C 0.70877 0.32714 0.98436 0.0
C222 C 0.655 0.36763 0.94649 0.0
C223 C 0.70668 0.31609 0.90542 0.0
C224 C 0.66443 0.40973 0.93291 0.0
C225 C 0.62549 0.43944 0.9227 0.0
C226 C 0.5765 0.4275 0.92597 0.0
C227 C 0.56741 0.38581 0.94025 0.0
C228 C 0.60643 0.35618 0.9505 0.0
H229 H 0.72259 0.28778 0.89341 0.0
H230 H 0.66582 0.31586 0.89975 0.0
H231 H 0.72089 0.35071 0.89909 0.0
H232 H 0.70189 0.41937 0.93002 0.0
H233 H 0.6337 0.47174 0.91223 0.0
H234 H 0.62447 0.67606 0.48212 0.0
H235 H 0.69397 0.73174 0.49058 0.0
H236 H 0.75494 0.65154 0.56254 0.0
H237 H 0.6864 0.59526 0.554 0.0
H238 H 0.71858 0.78737 0.53624 0.0
H239 H 0.87493 0.66916 0.52295 0.0
H240 H 0.8113 0.65284 0.51141 0.0
H241 H 0.83727 0.64592 0.54733 0.0
C242 C 0.65295 0.66996 0.49958 0.0
C243 C 0.64991 0.63112 0.51736 0.0
C244 C 0.69263 0.7018 0.50435 0.0
C245 C 0.73001 0.69529 0.52688 0.0
C246 C 0.72718 0.65652 0.54459 0.0
H247 H 0.96135 0.8493 0.6232 0.0
H248 H 0.89741 0.79396 0.60217 0.0
C249 C 0.68772 0.62456 0.53978 0.0
C250 C 0.77021 0.73071 0.53317 0.0
H251 H 0.89573 0.74209 0.54789 0.0
C252 C 0.75735 0.77771 0.53832 0.0
C253 C 0.82073 0.71798 0.53575 0.0
C254 C 0.83691 0.66882 0.52878 0.0
C255 C 0.79366 0.8118 0.54737 0.0
C256 C 0.84394 0.79844 0.55116 0.0
C257 C 0.85698 0.75195 0.54508 0.0
C258 C 0.88329 0.83149 0.56315 0.0
C259 C 0.77805 0.86133 0.55397 0.0
C260 C 0.89659 0.8705 0.54795 0.0
C261 C 0.93303 0.90221 0.55991 0.0
C262 C 0.95648 0.89534 0.58726 0.0
C263 C 0.94339 0.85581 0.60224 0.0
C264 C 0.90721 0.82406 0.59022 0.0
H265 H 0.7373 0.86425 0.55335 0.0
H266 H 0.79622 0.8725 0.5749 0.0
H267 H 0.78995 0.88632 0.53856 0.0
H268 H 0.87863 0.87649 0.52693 0.0
H269 H 0.94227 0.93251 0.54796 0.0
H270 H 0.67408 0.40127 0.53251 0.0
H271 H 0.73073 0.33665 0.52494 0.0
H272 H 0.61971 0.27546 0.46295 0.0
H273 H 0.56298 0.33899 0.47048 0.0
H274 H 0.66671 0.20952 0.50079 0.0
H275 H 0.80122 0.3236 0.45482 0.0
H276 H 0.78714 0.34113 0.48855 0.0
H277 H 0.73979 0.34335 0.45899 0.0
C278 C 0.66165 0.37386 0.51742 0.0
C279 C 0.61408 0.37551 0.50199 0.0
C280 C 0.69416 0.3372 0.51299 0.0
C281 C 0.67957 0.30176 0.49309 0.0
C282 C 0.63173 0.30262 0.47831 0.0
H283 H 0.83793 0.09892 0.40541 0.0
H284 H 0.78955 0.16591 0.41986 0.0
C285 C 0.59937 0.33909 0.48265 0.0
C286 C 0.71377 0.26363 0.48722 0.0
H287 H 0.81923 0.24203 0.45864 0.0
C288 C 0.70028 0.21658 0.49177 0.0
C289 C 0.75708 0.27308 0.47509 0.0
C290 C 0.77221 0.32295 0.46882 0.0
C291 C 0.72878 0.17859 0.48433 0.0
C292 C 0.77225 0.18803 0.47236 0.0
C293 C 0.78596 0.23506 0.46794 0.0
C294 C 0.80332 0.14931 0.46378 0.0
C295 C 0.71137 0.12863 0.48857 0.0
C296 C 0.8276 0.11857 0.48374 0.0
C297 C 0.85492 0.08061 0.47551 0.0
C298 C 0.85848 0.07314 0.44728 0.0
C299 C 0.83534 0.10432 0.4273 0.0
C300 C 0.80795 0.14241 0.43553 0.0
H301 H 0.67196 0.12745 0.49205 0.0
H302 H 0.71583 0.10594 0.47031 0.0
H303 H 0.73403 0.11334 0.5071 0.0
H304 H 0.82505 0.12374 0.50565 0.0
H305 H 0.87284 0.0568 0.49118 0.0
H306 H 0.3159 0.4432 0.5346 0.0
H307 H 0.26367 0.37902 0.54786 0.0
H308 H 0.33235 0.28167 0.49627 0.0
H309 H 0.38456 0.34575 0.48256 0.0
H310 H 0.22822 0.26917 0.49407 0.0
H311 H 0.32531 0.27704 0.60253 0.0
H312 H 0.29869 0.33194 0.58943 0.0
H313 H 0.34871 0.30635 0.57398 0.0
C314 C 0.31949 0.40832 0.5257 0.0
C315 C 0.35492 0.3995 0.50777 0.0
C316 C 0.28974 0.37166 0.53345 0.0
C317 C 0.29503 0.3255 0.52354 0.0
C318 C 0.32805 0.31707 0.5043 0.0
H319 H 0.22445 0.05494 0.58922 0.0
H320 H 0.26355 0.12823 0.57566 0.0
C321 C 0.35779 0.35377 0.49646 0.0
C322 C 0.26818 0.28553 0.53439 0.0
H323 H 0.25846 0.2231 0.59356 0.0
C324 C 0.23458 0.25915 0.51582 0.0
C325 C 0.27723 0.27228 0.56273 0.0
C326 C 0.31474 0.29804 0.58334 0.0
C327 C 0.20958 0.2198 0.52488 0.0
C328 C 0.21802 0.20705 0.55332 0.0
C329 C 0.2517 0.23339 0.57186 0.0
C330 C 0.19432 0.16483 0.56388 0.0
C331 C 0.17547 0.19136 0.5038 0.0
C332 C 0.14265 0.16186 0.56261 0.0
C333 C 0.12045 0.12018 0.57043 0.0
C334 C 0.14977 0.08136 0.57983 0.0
C335 C 0.2014 0.0849 0.58227 0.0
C336 C 0.22361 0.12653 0.57445 0.0
H337 H 0.18142 0.19954 0.48212 0.0
H338 H 0.18085 0.15279 0.50733 0.0
H339 H 0.1365 0.19984 0.50599 0.0
H340 H 0.1195 0.19134 0.55494 0.0
H341 H 0.08044 0.11772 0.56824 0.0
H342 H 0.33195 0.63659 0.52356 0.0
H343 H 0.26974 0.69845 0.51381 0.0
H344 H 0.35139 0.75764 0.45193 0.0
H345 H 0.41426 0.69641 0.46175 0.0
H346 H 0.31315 0.82618 0.48626 0.0
H347 H 0.17094 0.69491 0.4416 0.0
H348 H 0.19926 0.68292 0.4765 0.0
H349 H 0.23591 0.68085 0.44842 0.0
C350 C 0.33693 0.66292 0.508 0.0
C351 C 0.3778 0.66121 0.49319 0.0
C352 C 0.30128 0.69815 0.50244 0.0
C353 C 0.30569 0.732 0.48186 0.0
C354 C 0.34735 0.73163 0.46784 0.0
H355 H 0.07964 0.89409 0.38593 0.0
H356 H 0.14805 0.84237 0.40363 0.0
C357 C 0.38313 0.69652 0.47343 0.0
C358 C 0.26572 0.76641 0.47388 0.0
H359 H 0.14522 0.7742 0.44431 0.0
C360 C 0.27633 0.81497 0.47718 0.0
C361 C 0.21803 0.75142 0.46176 0.0
C362 C 0.20525 0.69973 0.45659 0.0
C363 C 0.24033 0.84912 0.46855 0.0
C364 C 0.19253 0.83405 0.45667 0.0
C365 C 0.18191 0.7855 0.45356 0.0
C366 C 0.15336 0.86787 0.44608 0.0
C367 C 0.25407 0.90092 0.47146 0.0
C368 C 0.13386 0.89941 0.46414 0.0
C369 C 0.09502 0.92944 0.45402 0.0
C370 C 0.07494 0.92815 0.42572 0.0
C371 C 0.09486 0.89661 0.40772 0.0
C372 C 0.13367 0.86677 0.41783 0.0
H373 H 0.29482 0.90636 0.4752 0.0
H374 H 0.23878 0.92072 0.45252 0.0
H375 H 0.23818 0.9162 0.4894 0.0
H376 H 0.14805 0.90019 0.48612 0.0
H377 H 0.08058 0.95353 0.46835 0.0
H378 H 0.92987 0.05713 0.11191 0.0
H379 H 0.92779 0.06136 0.16195 0.0
H380 H 0.07347 0.00026 0.17695 0.0
H381 H 0.07602 0.99564 0.12665 0.0
H382 H 0.00109 0.95721 0.20655 0.0
H383 H 0.00605 0.15292 0.21905 0.0
H384 H 0.95995 0.131 0.19188 0.0
H385 H 0.02441 0.12331 0.189 0.0
C386 C 0.96169 0.04471 0.12576 0.0
C387 C 0.0032 0.02605 0.11518 0.0
C388 C 0.96049 0.0475 0.1544 0.0
C389 C 0.00073 0.03179 0.17313 0.0
C390 C 0.04217 0.01291 0.16278 0.0
H391 H 0.05639 0.05417 0.35279 0.0
H392 H 0.0573 0.0643 0.3027 0.0
C393 C 0.04355 0.0103 0.13405 0.0
C394 C -0.00162 0.0332 0.20346 0.0
H395 H 0.98735 0.10819 0.2578 0.0
C396 C -0.00172 0.99019 0.21779 0.0
C397 C 0.99498 0.07635 0.21805 0.0
C398 C 0.99676 0.1236 0.20382 0.0
C399 C 0.99396 0.98911 0.24628 0.0
C400 C 0.98918 0.03217 0.2607 0.0
C401 C 0.99028 0.07526 0.24653 0.0
C402 C 0.98503 0.03275 0.29082 0.0
C403 C 0.9951 0.94194 0.26086 0.0
C404 C 0.94314 0.01359 0.30065 0.0
C405 C 0.94242 0.00798 0.32924 0.0
C406 C 0.98371 0.02127 0.34836 0.0
C407 C 0.02422 0.04335 0.33847 0.0
C408 C 0.02478 0.04918 0.30992 0.0
H409 H 0.00833 0.91307 0.24813 0.0
H410 H 0.01944 0.94378 0.28117 0.0
H411 H 0.9572 0.93268 0.265 0.0
H412 H 0.91191 0.00113 0.28616 0.0
H413 H 0.91092 0.99051 0.33623 0.0
H414 H 0.97523 0.95578 0.893 0.0
H415 H 0.98151 0.95759 0.84325 0.0
H416 H 0.02706 0.10414 0.85034 0.0
H417 H 0.02152 0.10265 0.90023 0.0
H418 H 0.93276 0.01581 0.80145 0.0
H419 H 0.13699 0.04182 0.81297 0.0
H420 H 0.10533 0.02367 0.84155 0.0
H421 H 0.10335 0.08438 0.83058 0.0
C422 C 0.9865 0.98848 0.88404 0.0
C423 C -0.00184 0.02898 0.90072 0.0
C424 C 0.99006 0.98943 0.85557 0.0
C425 C 0.00551 0.03076 0.8432 0.0
C426 C 0.01604 0.0716 0.85958 0.0
H427 H 0.04657 0.06333 0.66652 0.0
H428 H 0.04107 0.08264 0.71557 0.0
C429 C 0.01254 0.07071 0.88809 0.0
C430 C 0.01033 0.03075 0.81312 0.0
H431 H 0.09474 0.0376 0.76722 0.0
C432 C 0.9681 0.02092 0.79396 0.0
C433 C 0.05648 0.03774 0.80339 0.0
C434 C 0.10329 0.04715 0.82313 0.0
C435 C 0.97095 0.01681 0.7654 0.0
C436 C 0.01732 0.02209 0.75579 0.0
C437 C 0.05927 0.0337 0.77474 0.0
C438 C 0.02348 0.01098 0.72662 0.0
C439 C 0.92443 0.00605 0.74569 0.0
C440 C 0.01693 0.96421 0.717 0.0
C441 C 0.02042 0.9531 0.68933 0.0
C442 C 0.03038 0.98858 0.67055 0.0
C443 C 0.03883 0.03526 0.68047 0.0
C444 C 0.03548 0.04636 0.70838 0.0
H445 H 0.89063 0.01513 0.755 0.0
H446 H 0.92405 0.02579 0.72591 0.0
H447 H 0.92302 0.96761 0.7407 0.0
H448 H 0.00867 0.93626 0.73093 0.0
H449 H 0.01501 0.91658 0.68257 0.0
H450 H 0.58303 0.51619 0.62286 0.0
H451 H 0.58155 0.51983 0.67337 0.0
H452 H 0.42304 0.53571 0.6596 0.0
H453 H 0.4239 0.53243 0.6094 0.0
H454 H 0.52733 0.60074 0.7046 0.0
H455 H 0.46274 0.41449 0.71311 0.0
H456 H 0.49735 0.43324 0.68581 0.0
H457 H 0.43362 0.44947 0.68455 0.0
C458 C 0.54788 0.52047 0.63058 0.0
C459 C 0.5036 0.52392 0.61204 0.0
C460 C 0.54715 0.5227 0.65939 0.0
C461 C 0.50216 0.52792 0.67004 0.0
C462 C 0.45807 0.53156 0.65168 0.0
H463 H 0.41465 0.50355 0.83456 0.0
H464 H 0.41488 0.51573 0.78466 0.0
C465 C 0.45874 0.52968 0.62299 0.0
C466 C 0.50069 0.52885 0.70037 0.0
H467 H 0.46801 0.46207 0.75341 0.0
C468 C 0.51461 0.57046 0.7154 0.0
C469 C 0.48349 0.48943 0.71414 0.0
C470 C 0.4686 0.44389 0.69875 0.0
C471 C 0.51123 0.57383 0.74401 0.0
C472 C 0.49447 0.53414 0.75792 0.0
C473 C 0.48057 0.49256 0.74273 0.0
C474 C 0.49271 0.53395 0.78837 0.0
C475 C 0.52455 0.62016 0.75888 0.0
C476 C 0.53606 0.5413 0.8071 0.0
C477 C 0.53585 0.53499 0.83563 0.0
C478 C 0.49245 0.52049 0.846 0.0
C479 C 0.44854 0.51523 0.82733 0.0
C480 C 0.44873 0.52178 0.79877 0.0
H481 H 0.52133 0.65039 0.74416 0.0
H482 H 0.50053 0.62701 0.77518 0.0
H483 H 0.56353 0.61874 0.76902 0.0
H484 H 0.57064 0.54983 0.7996 0.0
H485 H 0.5702 0.53973 0.8495 0.0
H486 H 0.49458 0.44407 0.3926 0.0
H487 H 0.50421 0.44493 0.34323 0.0
H488 H 0.50288 0.59774 0.34413 0.0
H489 H 0.49487 0.59723 0.3937 0.0
H490 H 0.44754 0.47815 0.29871 0.0
H491 H 0.62755 0.57335 0.31087 0.0
H492 H 0.6008 0.55047 0.34014 0.0
H493 H 0.57982 0.6058 0.32458 0.0
C494 C 0.49621 0.47788 0.38229 0.0
C495 C 0.49436 0.52058 0.39716 0.0
C496 C 0.50181 0.47832 0.35407 0.0
C497 C 0.50542 0.52141 0.3401 0.0
C498 C 0.50173 0.56408 0.35464 0.0
H499 H 0.46724 0.53115 0.15856 0.0
H500 H 0.45945 0.546 0.20758 0.0
C501 C 0.49672 0.5637 0.38294 0.0
C502 C 0.51237 0.52145 0.31024 0.0
H503 H 0.58805 0.56127 0.26455 0.0
C504 C 0.47828 0.4963 0.29125 0.0
C505 C 0.55293 0.54459 0.30058 0.0
C506 C 0.59265 0.56967 0.32013 0.0
C507 C 0.48349 0.49366 0.2629 0.0
C508 C 0.52307 0.51817 0.25306 0.0
C509 C 0.55732 0.54315 0.27205 0.0
C510 C 0.53072 0.51619 0.22335 0.0
C511 C 0.44738 0.46332 0.24399 0.0
C512 C 0.57479 0.49766 0.21586 0.0
C513 C 0.57973 0.49017 0.18784 0.0
C514 C 0.54055 0.50087 0.16692 0.0
C515 C 0.49778 0.52224 0.17436 0.0
C516 C 0.49314 0.53031 0.20233 0.0
H517 H 0.42835 0.43707 0.25591 0.0
H518 H 0.41864 0.48628 0.23258 0.0
H519 H 0.46631 0.44394 0.22853 0.0
H520 H 0.60442 0.48684 0.23173 0.0
H521 H 0.61292 0.47336 0.18264 0.0
loop_
_geom_bond_atom_site_label_1
_geom_bond_atom_site_label_2
_geom_bond_distance
_geom_bond_site_symmetry_2
_ccdc_geom_bond_type
O0 Zn1 1.953 1_565 S
O0 C16 1.225 1_565 S
Zn1 O0 1.953 1_545 S
Zn1 O2 1.949 . S
Zn1 O8 1.919 1_545 S
Zn1 O13 1.924 . S
O2 Zn1 1.949 . S
O2 Zn3 1.923 1_444 S
O2 Zn4 1.950 1_455 S
O2 Zn5 1.945 1_554 S
Zn3 O2 1.923 1_666 S
Zn3 O6 1.933 . S
Zn3 O9 1.941 1_655 S
Zn3 O10 1.965 . S
Zn4 O2 1.950 1_655 S
Zn4 O11 1.938 1_545 S
Zn4 O12 1.906 . S
Zn4 O22 1.953 . S
Zn5 O2 1.945 1_556 S
Zn5 O7 1.932 . S
Zn5 O14 1.977 1_455 S
Zn5 O15 1.910 . S
O6 Zn3 1.933 . S
O6 C17 1.226 1_665 S
O7 Zn5 1.932 . S
O7 C17 1.307 . S
O8 Zn1 1.919 1_565 S
O8 C19 1.253 . S
O9 Zn3 1.941 1_455 S
O9 C19 1.283 1_556 S
O10 Zn3 1.965 . S
O10 C18 1.303 1_556 S
O11 Zn4 1.938 1_565 S
O11 C18 1.247 . S
O12 Zn4 1.906 . S
O12 C20 1.304 1_554 S
O13 Zn1 1.924 . S
O13 C21 1.311 . S
O14 Zn5 1.977 1_655 S
O14 C20 1.272 . S
O15 Zn5 1.910 . S
O15 C21 1.231 1_556 S
C16 O0 1.225 1_545 S
C16 O22 1.298 1_455 S
C17 O6 1.226 1_445 S
C17 O7 1.307 . S
C18 O10 1.303 1_554 S
C18 O11 1.247 . S
C19 O8 1.253 . S
C19 O9 1.283 1_554 S
C20 O12 1.304 1_556 S
C20 O14 1.272 . S
C21 O13 1.311 . S
C21 O15 1.231 1_554 S
O22 Zn4 1.953 . S
O22 C16 1.298 1_655 S
O23 Zn24 1.953 . S
O23 C39 1.225 . S
Zn24 O23 1.953 . S
Zn24 O25 1.949 . S
Zn24 O31 1.919 . S
Zn24 O36 1.924 . S
O25 Zn24 1.949 . S
O25 Zn26 1.923 . S
O25 Zn27 1.950 . S
O25 Zn28 1.945 . S
Zn26 O25 1.923 . S
Zn26 O29 1.933 . S
Zn26 O32 1.941 . S
Zn26 O33 1.965 . S
Zn27 O25 1.950 . S
Zn27 O34 1.938 . S
Zn27 O35 1.906 . S
Zn27 O45 1.953 . S
Zn28 O25 1.945 . S
Zn28 O30 1.932 . S
Zn28 O37 1.977 . S
Zn28 O38 1.910 . S
O29 Zn26 1.933 . S
O29 C40 1.226 . S
O30 Zn28 1.932 . S
O30 C40 1.307 . S
O31 Zn24 1.919 . S
O31 C42 1.253 . S
O32 Zn26 1.941 . S
O32 C42 1.283 . S
O33 Zn26 1.965 . S
O33 C41 1.303 . S
O34 Zn27 1.938 . S
O34 C41 1.247 . S
O35 Zn27 1.906 . S
O35 C43 1.304 . S
O36 Zn24 1.924 . S
O36 C44 1.311 . S
O37 Zn28 1.977 . S
O37 C43 1.272 . S
O38 Zn28 1.910 . S
O38 C44 1.231 . S
C39 O23 1.225 . S
C39 O45 1.298 . S
C40 O29 1.226 . S
C40 O30 1.307 . S
C41 O33 1.303 . S
C41 O34 1.247 . S
C42 O31 1.253 . S
C42 O32 1.283 . S
C43 O35 1.304 . S
C43 O37 1.272 . S
C44 O36 1.311 . S
C44 O38 1.231 . S
O45 Zn27 1.953 . S
O45 C39 1.298 . S
H46 C49 0.929 . S
H47 C52 0.929 . S
H48 C54 0.930 . S
C49 H46 0.929 . S
C49 C50 1.398 . S
C49 C51 1.396 1_565 S
C50 C49 1.398 . S
C50 C54 1.407 . S
C51 C49 1.396 1_545 S
C51 C52 1.394 1_455 S
C52 H47 0.929 . S
C52 C51 1.394 1_655 S
C52 C53 1.382 . S
C53 C52 1.382 . S
C53 C54 1.392 1_645 S
C53 N55 1.420 . S
C54 H48 0.930 . S
C54 C50 1.407 . S
C54 C53 1.392 1_465 S
N55 C53 1.420 . S
N55 C56 1.244 . S
C56 N55 1.244 . S
H57 C60 0.929 . S
H58 C63 0.929 . S
H59 C65 0.930 . S
C60 H57 0.929 . S
C60 C61 1.398 . S
C60 C62 1.396 1_665 S
C61 C60 1.398 . S
C61 C65 1.408 1_655 S
C62 C60 1.396 1_445 S
C62 C63 1.394 . S
C63 H58 0.929 . S
C63 C62 1.394 . S
C63 C64 1.382 . S
C64 C63 1.382 . S
C64 C65 1.391 1_545 S
C64 N66 1.420 . S
C65 H59 0.930 . S
C65 C61 1.408 1_455 S
C65 C64 1.391 1_565 S
N66 C64 1.420 . S
N66 C67 1.244 . S
C67 N66 1.244 . S
H68 C71 0.929 . S
H69 C74 0.929 . S
H70 C76 0.930 . S
C71 H68 0.929 . S
C71 C72 1.398 . S
C71 C73 1.396 . S
C72 C71 1.398 . S
C72 C76 1.407 . S
C73 C71 1.396 . S
C73 C74 1.394 . S
C74 H69 0.929 . S
C74 C73 1.394 . S
C74 C75 1.382 . S
C75 C74 1.382 . S
C75 C76 1.392 . S
C75 N77 1.420 . S
C76 H70 0.930 . S
C76 C72 1.407 . S
C76 C75 1.392 . S
N77 C75 1.420 . S
N77 C78 1.244 . S
C78 N77 1.244 . S
H79 C82 0.929 . S
H80 C85 0.929 . S
H81 C87 0.930 . S
C82 H79 0.929 . S
C82 C83 1.398 . S
C82 C84 1.396 . S
C83 C82 1.398 . S
C83 C87 1.407 . S
C84 C82 1.396 . S
C84 C85 1.394 . S
C85 H80 0.929 . S
C85 C84 1.394 . S
C85 C86 1.382 . S
C86 C85 1.382 . S
C86 C87 1.392 . S
C86 N88 1.420 . S
C87 H81 0.930 . S
C87 C83 1.407 . S
C87 C86 1.392 . S
N88 C86 1.420 . S
N88 C89 1.244 . S
C89 N88 1.244 . S
H90 C98 0.929 . S
H91 C100 0.930 . S
H92 C102 0.930 . S
H93 C105 0.929 . S
H94 C108 0.930 . S
H95 C110 0.960 . S
H96 C110 0.960 . S
H97 C110 0.960 . S
C98 H90 0.929 . S
C98 C99 1.377 . S
C98 C100 1.384 . S
C99 C98 1.377 . S
C99 C105 1.390 . S
C100 H91 0.930 . S
C100 C98 1.384 . S
C100 C101 1.372 . S
C101 C100 1.372 . S
C101 C102 1.400 . S
C101 C106 1.490 . S
C102 H92 0.930 . S
C102 C101 1.400 . S
C102 C105 1.386 . S
H103 C119 0.930 . S
H104 C120 0.931 . S
C105 H93 0.929 . S
C105 C99 1.390 . S
C105 C102 1.386 . S
C106 C101 1.490 . S
C106 C108 1.395 . S
C106 C109 1.403 . S
H107 C113 0.930 . S
C108 H94 0.930 . S
C108 C106 1.395 . S
C108 C111 1.403 . S
C109 C106 1.403 . S
C109 C110 1.524 . S
C109 C113 1.400 . S
C110 H95 0.960 . S
C110 H96 0.960 . S
C110 H97 0.960 . S
C110 C109 1.524 . S
C111 C108 1.403 . S
C111 C112 1.392 . S
C111 C115 1.495 . S
C112 C111 1.392 . S
C112 C113 1.385 . S
C112 C114 1.478 . S
C113 H107 0.930 . S
C113 C109 1.400 . S
C113 C112 1.385 . S
C114 C112 1.478 . S
C114 C116 1.381 . S
C114 C120 1.383 . S
C115 C111 1.495 . S
C115 H121 0.959 . S
C115 H122 0.961 . S
C115 H123 0.960 . S
C116 C114 1.381 . S
C116 C117 1.394 . S
C116 H124 0.930 . S
C117 C116 1.394 . S
C117 C118 1.383 . S
C117 H125 0.929 . S
C118 C117 1.383 . S
C118 C119 1.377 . S
C119 H103 0.930 . S
C119 C118 1.377 . S
C119 C120 1.379 . S
C120 H104 0.931 . S
C120 C114 1.383 . S
C120 C119 1.379 . S
H121 C115 0.959 . S
H122 C115 0.961 . S
H123 C115 0.960 . S
H124 C116 0.930 . S
H125 C117 0.929 . S
H126 C134 0.929 . S
H127 C136 0.930 . S
H128 C138 0.930 . S
H129 C141 0.929 . S
H130 C144 0.930 1_554 S
H131 C146 0.960 . S
H132 C146 0.960 . S
H133 C146 0.960 . S
C134 H126 0.929 . S
C134 C135 1.377 1_554 S
C134 C136 1.384 . S
C135 C134 1.377 1_556 S
C135 C141 1.390 . S
C136 H127 0.930 . S
C136 C134 1.384 . S
C136 C137 1.372 1_554 S
C137 C136 1.372 1_556 S
C137 C138 1.400 . S
C137 C142 1.490 . S
C138 H128 0.930 . S
C138 C137 1.400 . S
C138 C141 1.386 . S
H139 C155 0.930 . S
H140 C156 0.931 . S
C141 H129 0.929 . S
C141 C135 1.390 . S
C141 C138 1.386 . S
C142 C137 1.490 . S
C142 C144 1.395 . S
C142 C145 1.403 . S
H143 C149 0.930 . S
C144 H130 0.930 1_556 S
C144 C142 1.395 . S
C144 C147 1.403 . S
C145 C142 1.403 . S
C145 C146 1.524 . S
C145 C149 1.400 . S
C146 H131 0.960 . S
C146 H132 0.960 . S
C146 H133 0.960 . S
C146 C145 1.524 . S
C147 C144 1.403 . S
C147 C148 1.392 . S
C147 C151 1.495 1_556 S
C148 C147 1.392 . S
C148 C149 1.385 . S
C148 C150 1.478 . S
C149 H143 0.930 . S
C149 C145 1.400 . S
C149 C148 1.385 . S
C150 C148 1.478 . S
C150 C152 1.381 . S
C150 C156 1.383 . S
C151 C147 1.495 1_554 S
C151 H157 0.959 . S
C151 H158 0.976 . S
C151 H159 0.960 . S
C152 C150 1.381 . S
C152 C153 1.394 . S
C152 H160 0.930 . S
C153 C152 1.394 . S
C153 C154 1.383 . S
C153 H161 0.929 . S
C154 C153 1.383 . S
C154 C155 1.377 . S
C155 H139 0.930 . S
C155 C154 1.377 . S
C155 C156 1.379 . S
C156 H140 0.931 . S
C156 C150 1.383 . S
C156 C155 1.379 . S
H157 C151 0.959 . S
H158 C151 0.976 . S
H159 C151 0.960 . S
H160 C152 0.930 . S
H161 C153 0.929 . S
H162 C170 0.929 . S
H163 C172 0.930 . S
H164 C174 0.930 . S
H165 C177 0.929 1_556 S
H166 C180 0.930 . S
H167 C182 0.960 . S
H168 C182 0.960 . S
H169 C182 0.960 . S
C170 H162 0.929 . S
C170 C171 1.377 . S
C170 C172 1.384 . S
C171 C170 1.377 . S
C171 C177 1.390 . S
C172 H163 0.930 . S
C172 C170 1.384 . S
C172 C173 1.372 . S
C173 C172 1.372 . S
C173 C174 1.400 . S
C173 C178 1.490 . S
C174 H164 0.930 . S
C174 C173 1.400 . S
C174 C177 1.386 . S
H175 C191 0.930 . S
H176 C192 0.931 . S
C177 H165 0.929 1_554 S
C177 C171 1.390 . S
C177 C174 1.386 . S
C178 C173 1.490 . S
C178 C180 1.395 . S
C178 C181 1.403 . S
H179 C185 0.930 . S
C180 H166 0.930 . S
C180 C178 1.395 . S
C180 C183 1.403 . S
C181 C178 1.403 . S
C181 C182 1.524 1_554 S
C181 C185 1.400 . S
C182 H167 0.960 . S
C182 H168 0.960 . S
C182 H169 0.960 . S
C182 C181 1.524 1_556 S
C183 C180 1.403 . S
C183 C184 1.392 . S
C183 C187 1.495 . S
C184 C183 1.392 . S
C184 C185 1.385 . S
C184 C186 1.478 . S
C185 H179 0.930 . S
C185 C181 1.400 . S
C185 C184 1.385 . S
C186 C184 1.478 . S
C186 C188 1.381 . S
C186 C192 1.383 . S
C187 C183 1.495 . S
C187 H193 0.959 . S
C187 H194 0.961 . S
C187 H195 0.960 . S
C188 C186 1.381 . S
C188 C189 1.394 . S
C188 H196 0.930 . S
C189 C188 1.394 . S
C189 C190 1.383 . S
C189 H197 0.929 . S
C190 C189 1.383 . S
C190 C191 1.377 . S
C191 H175 0.930 . S
C191 C190 1.377 . S
C191 C192 1.379 . S
C192 H176 0.931 . S
C192 C186 1.383 . S
C192 C191 1.379 . S
H193 C187 0.959 . S
H194 C187 0.961 . S
H195 C187 0.960 . S
H196 C188 0.930 . S
H197 C189 0.929 . S
H198 C206 0.929 . S
H199 C208 0.930 . S
H200 C210 0.930 . S
H201 C213 0.929 . S
H202 C216 0.930 . S
H203 C218 0.946 1_554 S
H204 C218 0.937 1_554 S
H205 C218 0.971 . S
C206 H198 0.929 . S
C206 C207 1.377 . S
C206 C208 1.384 . S
C207 C206 1.377 . S
C207 C213 1.390 . S
C208 H199 0.930 . S
C208 C206 1.384 . S
C208 C209 1.372 . S
C209 C208 1.372 . S
C209 C210 1.400 . S
C209 C214 1.490 . S
C210 H200 0.930 . S
C210 C209 1.400 . S
C210 C213 1.386 . S
H211 C227 0.930 . S
H212 C228 0.931 . S
C213 H201 0.929 . S
C213 C207 1.390 . S
C213 C210 1.386 . S
C214 C209 1.490 . S
C214 C216 1.395 . S
C214 C217 1.403 . S
H215 C221 0.930 . S
C216 H202 0.930 . S
C216 C214 1.395 . S
C216 C219 1.403 . S
C217 C214 1.403 . S
C217 C218 1.551 . S
C217 C221 1.400 . S
C218 H203 0.946 1_556 S
C218 H204 0.937 1_556 S
C218 H205 0.971 . S
C218 C217 1.551 . S
C219 C216 1.403 . S
C219 C220 1.392 . S
C219 C223 1.495 . S
C220 C219 1.392 . S
C220 C221 1.385 . S
C220 C222 1.478 . S
C221 H215 0.930 . S
C221 C217 1.400 . S
C221 C220 1.385 . S
C222 C220 1.478 . S
C222 C224 1.381 . S
C222 C228 1.383 . S
C223 C219 1.495 . S
C223 H229 0.959 . S
C223 H230 0.961 . S
C223 H231 0.960 . S
C224 C222 1.381 . S
C224 C225 1.394 . S
C224 H232 0.930 . S
C225 C224 1.394 . S
C225 C226 1.383 . S
C225 H233 0.929 . S
C226 C225 1.383 . S
C226 C227 1.377 . S
C227 H211 0.930 . S
C227 C226 1.377 . S
C227 C228 1.379 . S
C228 H212 0.931 . S
C228 C222 1.383 . S
C228 C227 1.379 . S
H229 C223 0.959 . S
H230 C223 0.961 . S
H231 C223 0.960 . S
H232 C224 0.930 . S
H233 C225 0.929 . S
H234 C242 0.929 . S
H235 C244 0.930 . S
H236 C246 0.930 . S
H237 C249 0.929 . S
H238 C252 0.930 . S
H239 C254 0.960 . S
H240 C254 0.960 . S
H241 C254 0.960 . S
C242 H234 0.929 . S
C242 C243 1.377 . S
C242 C244 1.384 . S
C243 C242 1.377 . S
C243 C249 1.390 . S
C244 H235 0.930 . S
C244 C242 1.384 . S
C244 C245 1.372 . S
C245 C244 1.372 . S
C245 C246 1.400 . S
C245 C250 1.490 . S
C246 H236 0.930 . S
C246 C245 1.400 . S
C246 C249 1.386 . S
H247 C263 0.930 . S
H248 C264 0.931 . S
C249 H237 0.929 . S
C249 C243 1.390 . S
C249 C246 1.386 . S
C250 C245 1.490 . S
C250 C252 1.395 . S
C250 C253 1.403 . S
H251 C257 0.930 . S
C252 H238 0.930 . S
C252 C250 1.395 . S
C252 C255 1.403 . S
C253 C250 1.403 . S
C253 C254 1.524 . S
C253 C257 1.400 . S
C254 H239 0.960 . S
C254 H240 0.960 . S
C254 H241 0.960 . S
C254 C253 1.524 . S
C255 C252 1.403 . S
C255 C256 1.392 . S
C255 C259 1.495 . S
C256 C255 1.392 . S
C256 C257 1.385 . S
C256 C258 1.478 . S
C257 H251 0.930 . S
C257 C253 1.400 . S
C257 C256 1.385 . S
C258 C256 1.478 . S
C258 C260 1.381 . S
C258 C264 1.383 . S
C259 C255 1.495 . S
C259 H265 0.959 . S
C259 H266 0.961 . S
C259 H267 0.960 . S
C260 C258 1.381 . S
C260 C261 1.394 . S
C260 H268 0.930 . S
C261 C260 1.394 . S
C261 C262 1.383 . S
C261 H269 0.929 . S
C262 C261 1.383 . S
C262 C263 1.377 . S
C263 H247 0.930 . S
C263 C262 1.377 . S
C263 C264 1.379 . S
C264 H248 0.931 . S
C264 C258 1.383 . S
C264 C263 1.379 . S
H265 C259 0.959 . S
H266 C259 0.961 . S
H267 C259 0.960 . S
H268 C260 0.930 . S
H269 C261 0.929 . S
H270 C278 0.929 . S
H271 C280 0.930 . S
H272 C282 0.930 . S
H273 C285 0.929 . S
H274 C288 0.930 . S
H275 C290 0.960 . S
H276 C290 0.960 . S
H277 C290 0.960 . S
C278 H270 0.929 . S
C278 C279 1.377 . S
C278 C280 1.384 . S
C279 C278 1.377 . S
C279 C285 1.390 . S
C280 H271 0.930 . S
C280 C278 1.384 . S
C280 C281 1.372 . S
C281 C280 1.372 . S
C281 C282 1.400 . S
C281 C286 1.490 . S
C282 H272 0.930 . S
C282 C281 1.400 . S
C282 C285 1.386 . S
H283 C299 0.930 . S
H284 C300 0.931 . S
C285 H273 0.929 . S
C285 C279 1.390 . S
C285 C282 1.386 . S
C286 C281 1.490 . S
C286 C288 1.395 . S
C286 C289 1.403 . S
H287 C293 0.930 . S
C288 H274 0.930 . S
C288 C286 1.395 . S
C288 C291 1.403 . S
C289 C286 1.403 . S
C289 C290 1.524 . S
C289 C293 1.400 . S
C290 H275 0.960 . S
C290 H276 0.960 . S
C290 H277 0.960 . S
C290 C289 1.524 . S
C291 C288 1.403 . S
C291 C292 1.392 . S
C291 C295 1.495 . S
C292 C291 1.392 . S
C292 C293 1.385 . S
C292 C294 1.478 . S
C293 H287 0.930 . S
C293 C289 1.400 . S
C293 C292 1.385 . S
C294 C292 1.478 . S
C294 C296 1.381 . S
C294 C300 1.383 . S
C295 C291 1.495 . S
C295 H301 0.959 . S
C295 H302 0.961 . S
C295 H303 0.960 . S
C296 C294 1.381 . S
C296 C297 1.394 . S
C296 H304 0.930 . S
C297 C296 1.394 . S
C297 C298 1.383 . S
C297 H305 0.929 . S
C298 C297 1.383 . S
C298 C299 1.377 . S
C299 H283 0.930 . S
C299 C298 1.377 . S
C299 C300 1.379 . S
C300 H284 0.931 . S
C300 C294 1.383 . S
C300 C299 1.379 . S
H301 C295 0.959 . S
H302 C295 0.961 . S
H303 C295 0.960 . S
H304 C296 0.930 . S
H305 C297 0.929 . S
H306 C314 0.929 . S
H307 C316 0.930 . S
H308 C318 0.930 . S
H309 C321 0.929 . S
H310 C324 0.930 . S
H311 C326 0.960 . S
H312 C326 0.960 . S
H313 C326 0.960 . S
C314 H306 0.929 . S
C314 C315 1.377 . S
C314 C316 1.384 . S
C315 C314 1.377 . S
C315 C321 1.390 . S
C316 H307 0.930 . S
C316 C314 1.384 . S
C316 C317 1.372 . S
C317 C316 1.372 . S
C317 C318 1.400 . S
C317 C322 1.490 . S
C318 H308 0.930 . S
C318 C317 1.400 . S
C318 C321 1.386 . S
H319 C335 0.930 . S
H320 C336 0.931 . S
C321 H309 0.929 . S
C321 C315 1.390 . S
C321 C318 1.386 . S
C322 C317 1.490 . S
C322 C324 1.395 . S
C322 C325 1.403 . S
H323 C329 0.930 . S
C324 H310 0.930 . S
C324 C322 1.395 . S
C324 C327 1.403 . S
C325 C322 1.403 . S
C325 C326 1.524 . S
C325 C329 1.400 . S
C326 H311 0.960 . S
C326 H312 0.960 . S
C326 H313 0.960 . S
C326 C325 1.524 . S
C327 C324 1.403 . S
C327 C328 1.392 . S
C327 C331 1.495 . S
C328 C327 1.392 . S
C328 C329 1.385 . S
C328 C330 1.478 . S
C329 H323 0.930 . S
C329 C325 1.400 . S
C329 C328 1.385 . S
C330 C328 1.478 . S
C330 C332 1.381 . S
C330 C336 1.383 . S
C331 C327 1.495 . S
C331 H337 0.959 . S
C331 H338 0.961 . S
C331 H339 0.960 . S
C332 C330 1.381 . S
C332 C333 1.394 . S
C332 H340 0.930 . S
C333 C332 1.394 . S
C333 C334 1.383 . S
C333 H341 0.929 . S
C334 C333 1.383 . S
C334 C335 1.377 . S
C335 H319 0.930 . S
C335 C334 1.377 . S
C335 C336 1.379 . S
C336 H320 0.931 . S
C336 C330 1.383 . S
C336 C335 1.379 . S
H337 C331 0.959 . S
H338 C331 0.961 . S
H339 C331 0.960 . S
H340 C332 0.930 . S
H341 C333 0.929 . S
H342 C350 0.929 . S
H343 C352 0.930 . S
H344 C354 0.930 . S
H345 C357 0.929 . S
H346 C360 0.930 . S
H347 C362 0.960 . S
H348 C362 0.960 . S
H349 C362 0.960 . S
C350 H342 0.929 . S
C350 C351 1.377 . S
C350 C352 1.384 . S
C351 C350 1.377 . S
C351 C357 1.390 . S
C352 H343 0.930 . S
C352 C350 1.384 . S
C352 C353 1.372 . S
C353 C352 1.372 . S
C353 C354 1.400 . S
C353 C358 1.490 . S
C354 H344 0.930 . S
C354 C353 1.400 . S
C354 C357 1.386 . S
H355 C371 0.930 . S
H356 C372 0.931 . S
C357 H345 0.929 . S
C357 C351 1.390 . S
C357 C354 1.386 . S
C358 C353 1.490 . S
C358 C360 1.395 . S
C358 C361 1.403 . S
H359 C365 0.930 . S
C360 H346 0.930 . S
C360 C358 1.395 . S
C360 C363 1.403 . S
C361 C358 1.403 . S
C361 C362 1.524 . S
C361 C365 1.400 . S
C362 H347 0.960 . S
C362 H348 0.960 . S
C362 H349 0.960 . S
C362 C361 1.524 . S
C363 C360 1.403 . S
C363 C364 1.392 . S
C363 C367 1.495 . S
C364 C363 1.392 . S
C364 C365 1.385 . S
C364 C366 1.478 . S
C365 H359 0.930 . S
C365 C361 1.400 . S
C365 C364 1.385 . S
C366 C364 1.478 . S
C366 C368 1.381 . S
C366 C372 1.383 . S
C367 C363 1.495 . S
C367 H373 0.959 . S
C367 H374 0.961 . S
C367 H375 0.960 . S
C368 C366 1.381 . S
C368 C369 1.394 . S
C368 H376 0.930 . S
C369 C368 1.394 . S
C369 C370 1.383 . S
C369 H377 0.929 . S
C370 C369 1.383 . S
C370 C371 1.377 . S
C371 H355 0.930 . S
C371 C370 1.377 . S
C371 C372 1.379 . S
C372 H356 0.931 . S
C372 C366 1.383 . S
C372 C371 1.379 . S
H373 C367 0.959 . S
H374 C367 0.961 . S
H375 C367 0.960 . S
H376 C368 0.930 . S
H377 C369 0.929 . S
H378 C386 0.929 . S
H379 C388 0.930 . S
H380 C390 0.930 . S
H381 C393 0.929 . S
H382 C396 0.930 . S
H383 C398 0.960 . S
H384 C398 0.960 1_655 S
H385 C398 0.960 . S
C386 H378 0.929 . S
C386 C387 1.377 1_665 S
C386 C388 1.384 . S
C387 C386 1.377 1_445 S
C387 C393 1.390 . S
C388 H379 0.930 . S
C388 C386 1.384 . S
C388 C389 1.372 1_665 S
C389 C388 1.372 1_445 S
C389 C390 1.400 . S
C389 C394 1.490 . S
C390 H380 0.930 . S
C390 C389 1.400 . S
C390 C393 1.386 . S
H391 C407 0.930 . S
H392 C408 0.931 . S
C393 H381 0.929 . S
C393 C387 1.390 . S
C393 C390 1.386 . S
C394 C389 1.490 . S
C394 C396 1.395 1_545 S
C394 C397 1.403 . S
H395 C401 0.930 . S
C396 H382 0.930 . S
C396 C394 1.395 1_565 S
C396 C399 1.403 . S
C397 C394 1.403 . S
C397 C398 1.524 . S
C397 C401 1.400 . S
C398 H383 0.960 . S
C398 H384 0.960 1_455 S
C398 H385 0.960 . S
C398 C397 1.524 . S
C399 C396 1.403 . S
C399 C400 1.392 1_565 S
C399 C403 1.495 . S
C400 C399 1.392 1_545 S
C400 C401 1.385 . S
C400 C402 1.478 . S
C401 H395 0.930 . S
C401 C397 1.400 . S
C401 C400 1.385 . S
C402 C400 1.478 . S
C402 C404 1.381 1_445 S
C402 C408 1.383 . S
C403 C399 1.495 . S
C403 H409 0.959 1_455 S
C403 H410 0.961 . S
C403 H411 0.960 1_455 S
C404 C402 1.381 1_665 S
C404 C405 1.394 . S
C404 H412 0.930 . S
C405 C404 1.394 . S
C405 C406 1.383 1_665 S
C405 H413 0.929 . S
C406 C405 1.383 1_445 S
C406 C407 1.377 . S
C407 H391 0.930 . S
C407 C406 1.377 . S
C407 C408 1.379 . S
C408 H392 0.931 . S
C408 C402 1.383 . S
C408 C407 1.379 . S
H409 C403 0.959 1_655 S
H410 C403 0.961 . S
H411 C403 0.960 1_655 S
H412 C404 0.930 . S
H413 C405 0.929 . S
H414 C422 0.929 . S
H415 C424 0.930 . S
H416 C426 0.930 . S
H417 C429 0.929 . S
H418 C432 0.930 . S
H419 C434 0.960 . S
H420 C434 0.960 . S
H421 C434 0.960 1_545 S
C422 H414 0.929 . S
C422 C423 1.377 1_665 S
C422 C424 1.384 . S
C423 C422 1.377 1_445 S
C423 C429 1.390 . S
C424 H415 0.930 . S
C424 C422 1.384 . S
C424 C425 1.372 1_665 S
C425 C424 1.372 1_445 S
C425 C426 1.400 . S
C425 C430 1.490 . S
C426 H416 0.930 . S
C426 C425 1.400 . S
C426 C429 1.386 . S
H427 C443 0.930 . S
H428 C444 0.931 . S
C429 H417 0.929 . S
C429 C423 1.390 . S
C429 C426 1.386 . S
C430 C425 1.490 . S
C430 C432 1.395 1_455 S
C430 C433 1.403 . S
H431 C437 0.931 . S
C432 H418 0.930 . S
C432 C430 1.395 1_655 S
C432 C435 1.403 . S
C433 C430 1.403 . S
C433 C434 1.524 1_545 S
C433 C437 1.400 . S
C434 H419 0.960 . S
C434 H420 0.960 . S
C434 H421 0.960 1_565 S
C434 C433 1.524 1_565 S
C435 C432 1.403 . S
C435 C436 1.392 . S
C435 C439 1.495 . S
C436 C435 1.392 . S
C436 C437 1.385 1_655 S
C436 C438 1.478 . S
C437 H431 0.931 . S
C437 C433 1.400 . S
C437 C436 1.385 1_455 S
C438 C436 1.478 . S
C438 C440 1.381 1_545 S
C438 C444 1.383 1_655 S
C439 C435 1.495 . S
C439 H445 0.959 . S
C439 H446 0.961 . S
C439 H447 0.960 . S
C440 C438 1.381 1_565 S
C440 C441 1.394 . S
C440 H448 0.930 . S
C441 C440 1.394 . S
C441 C442 1.383 1_665 S
C441 H449 0.929 . S
C442 C441 1.383 1_445 S
C442 C443 1.377 . S
C443 H427 0.930 . S
C443 C442 1.377 . S
C443 C444 1.379 . S
C444 H428 0.931 . S
C444 C438 1.383 1_455 S
C444 C443 1.379 . S
H445 C439 0.959 . S
H446 C439 0.961 . S
H447 C439 0.960 . S
H448 C440 0.930 . S
H449 C441 0.929 . S
H450 C458 0.929 . S
H451 C460 0.930 . S
H452 C462 0.930 . S
H453 C465 0.929 . S
H454 C468 0.930 . S
H455 C470 0.960 . S
H456 C470 0.960 . S
H457 C470 0.960 . S
C458 H450 0.929 . S
C458 C459 1.377 . S
C458 C460 1.384 . S
C459 C458 1.377 . S
C459 C465 1.390 . S
C460 H451 0.930 . S
C460 C458 1.384 . S
C460 C461 1.372 . S
C461 C460 1.372 . S
C461 C462 1.400 . S
C461 C466 1.490 . S
C462 H452 0.930 . S
C462 C461 1.400 . S
C462 C465 1.386 . S
H463 C479 0.930 . S
H464 C480 0.931 . S
C465 H453 0.929 . S
C465 C459 1.390 . S
C465 C462 1.386 . S
C466 C461 1.490 . S
C466 C468 1.395 . S
C466 C469 1.403 . S
H467 C473 0.930 . S
C468 H454 0.930 . S
C468 C466 1.395 . S
C468 C471 1.403 . S
C469 C466 1.403 . S
C469 C470 1.524 . S
C469 C473 1.400 . S
C470 H455 0.960 . S
C470 H456 0.960 . S
C470 H457 0.960 . S
C470 C469 1.524 . S
C471 C468 1.403 . S
C471 C472 1.392 . S
C471 C475 1.495 . S
C472 C471 1.392 . S
C472 C473 1.385 . S
C472 C474 1.478 . S
C473 H467 0.930 . S
C473 C469 1.400 . S
C473 C472 1.385 . S
C474 C472 1.478 . S
C474 C476 1.381 . S
C474 C480 1.383 . S
C475 C471 1.495 . S
C475 H481 0.959 . S
C475 H482 0.961 . S
C475 H483 0.960 . S
C476 C474 1.381 . S
C476 C477 1.394 . S
C476 H484 0.930 . S
C477 C476 1.394 . S
C477 C478 1.383 . S
C477 H485 0.929 . S
C478 C477 1.383 . S
C478 C479 1.377 . S
C479 H463 0.930 . S
C479 C478 1.377 . S
C479 C480 1.379 . S
C480 H464 0.931 . S
C480 C474 1.383 . S
C480 C479 1.379 . S
H481 C475 0.959 . S
H482 C475 0.961 . S
H483 C475 0.960 . S
H484 C476 0.930 . S
H485 C477 0.929 . S
H486 C494 0.929 . S
H487 C496 0.930 . S
H488 C498 0.930 . S
H489 C501 0.929 . S
H490 C504 0.930 . S
H491 C506 0.960 . S
H492 C506 0.960 . S
H493 C506 0.960 . S
C494 H486 0.929 . S
C494 C495 1.377 . S
C494 C496 1.384 . S
C495 C494 1.377 . S
C495 C501 1.390 . S
C496 H487 0.930 . S
C496 C494 1.384 . S
C496 C497 1.372 . S
C497 C496 1.372 . S
C497 C498 1.400 . S
C497 C502 1.490 . S
C498 H488 0.930 . S
C498 C497 1.400 . S
C498 C501 1.386 . S
H499 C515 0.930 . S
H500 C516 0.931 . S
C501 H489 0.929 . S
C501 C495 1.390 . S
C501 C498 1.386 . S
C502 C497 1.490 . S
C502 C504 1.395 . S
C502 C505 1.403 . S
H503 C509 0.930 . S
C504 H490 0.930 . S
C504 C502 1.395 . S
C504 C507 1.403 . S
C505 C502 1.403 . S
C505 C506 1.524 . S
C505 C509 1.400 . S
C506 H491 0.960 . S
C506 H492 0.960 . S
C506 H493 0.960 . S
C506 C505 1.524 . S
C507 C504 1.403 . S
C507 C508 1.392 . S
C507 C511 1.495 . S
C508 C507 1.392 . S
C508 C509 1.385 . S
C508 C510 1.478 . S
C509 H503 0.930 . S
C509 C505 1.400 . S
C509 C508 1.385 . S
C510 C508 1.478 . S
C510 C512 1.381 . S
C510 C516 1.383 . S
C511 C507 1.495 . S
C511 H517 0.959 . S
C511 H518 0.961 . S
C511 H519 0.960 . S
C512 C510 1.381 . S
C512 C513 1.394 . S
C512 H520 0.930 . S
C513 C512 1.394 . S
C513 C514 1.383 . S
C513 H521 0.929 . S
C514 C513 1.383 . S
C514 C515 1.377 . S
C515 H499 0.930 . S
C515 C514 1.377 . S
C515 C516 1.379 . S
C516 H500 0.931 . S
C516 C510 1.383 . S
C516 C515 1.379 . S
H517 C511 0.959 . S
H518 C511 0.961 . S
H519 C511 0.960 . S
H520 C512 0.930 . S
H521 C513 0.929 . S
C118 C83 1.528 . S
C99 C21 1.524 . S
C135 C19 1.377 1_556 S
C154 C78 1.376 . S
C171 C18 1.344 . S
C190 C89 1.316 . S
C207 C20 1.501 . S
C226 C72 1.495 . S
C243 C44 1.520 . S
C262 C61 1.528 . S
C279 C42 1.374 . S
C298 C56 1.356 . S
C334 C67 1.354 . S
C315 C41 1.339 . S
C370 C50 1.508 . S
C351 C43 1.503 . S
C387 C16 1.529 . S
C406 C51 1.513 . S
C423 C17 1.487 . S
C442 C62 1.476 . S
C478 C73 1.522 . S
C459 C39 1.529 . S
C495 C40 1.487 . S
C514 C84 1.469 . S
