# Generated by pormake.
# Topology bpr, (3,3)-cn, num edge types: 1
# Building blocks:
#     Node 0, Type 0, BuildingBlock: OLANEW_clean_sbu_2, # of connection points: 3
#     Node 1, Type 0, BuildingBlock: OLANEW_clean_sbu_2, # of connection points: 3
#     Node 2, Type 0, BuildingBlock: OLANEW_clean_sbu_2, # of connection points: 3
#     Node 3, Type 0, BuildingBlock: OLANEW_clean_sbu_2, # of connection points: 3
#     Node 4, Type 0, BuildingBlock: OLANEW_clean_sbu_2, # of connection points: 3
#     Node 5, Type 0, BuildingBlock: OLANEW_clean_sbu_2, # of connection points: 3
#     Node 6, Type 0, BuildingBlock: OLANEW_clean_sbu_2, # of connection points: 3
#     Node 7, Type 0, BuildingBlock: OLANEW_clean_sbu_2, # of connection points: 3
#     Node 8, Type 0, BuildingBlock: OLANEW_clean_sbu_2, # of connection points: 3
#     Node 9, Type 0, BuildingBlock: OLANEW_clean_sbu_2, # of connection points: 3
#     Node 10, Type 0, BuildingBlock: OLANEW_clean_sbu_2, # of connection points: 3
#     Node 11, Type 0, BuildingBlock: OLANEW_clean_sbu_2, # of connection points: 3
#     Node 12, Type 0, BuildingBlock: OLANEW_clean_sbu_2, # of connection points: 3
#     Node 13, Type 0, BuildingBlock: OLANEW_clean_sbu_2, # of connection points: 3
#     Node 14, Type 0, BuildingBlock: OLANEW_clean_sbu_2, # of connection points: 3
#     Node 15, Type 0, BuildingBlock: OLANEW_clean_sbu_2, # of connection points: 3
#     Node 16, Type 0, BuildingBlock: OLANEW_clean_sbu_2, # of connection points: 3
#     Node 17, Type 0, BuildingBlock: OLANEW_clean_sbu_2, # of connection points: 3
#     Node 18, Type 0, BuildingBlock: OLANEW_clean_sbu_2, # of connection points: 3
#     Node 19, Type 0, BuildingBlock: OLANEW_clean_sbu_2, # of connection points: 3
#     Node 20, Type 0, BuildingBlock: OLANEW_clean_sbu_2, # of connection points: 3
#     Node 21, Type 0, BuildingBlock: OLANEW_clean_sbu_2, # of connection points: 3
#     Node 22, Type 0, BuildingBlock: OLANEW_clean_sbu_2, # of connection points: 3
#     Node 23, Type 0, BuildingBlock: OLANEW_clean_sbu_2, # of connection points: 3
#     Node 24, Type 0, BuildingBlock: OLANEW_clean_sbu_2, # of connection points: 3
#     Node 25, Type 0, BuildingBlock: OLANEW_clean_sbu_2, # of connection points: 3
#     Node 26, Type 0, BuildingBlock: OLANEW_clean_sbu_2, # of connection points: 3
#     Node 27, Type 0, BuildingBlock: OLANEW_clean_sbu_2, # of connection points: 3
#     Node 28, Type 0, BuildingBlock: OLANEW_clean_sbu_2, # of connection points: 3
#     Node 29, Type 0, BuildingBlock: OLANEW_clean_sbu_2, # of connection points: 3
#     Node 30, Type 0, BuildingBlock: OLANEW_clean_sbu_2, # of connection points: 3
#     Node 31, Type 0, BuildingBlock: OLANEW_clean_sbu_2, # of connection points: 3
#     Node 32, Type 0, BuildingBlock: OLANEW_clean_sbu_2, # of connection points: 3
#     Node 33, Type 0, BuildingBlock: OLANEW_clean_sbu_2, # of connection points: 3
#     Node 34, Type 0, BuildingBlock: OLANEW_clean_sbu_2, # of connection points: 3
#     Node 35, Type 0, BuildingBlock: OLANEW_clean_sbu_2, # of connection points: 3
#     Node 36, Type 0, BuildingBlock: OLANEW_clean_sbu_2, # of connection points: 3
#     Node 37, Type 0, BuildingBlock: OLANEW_clean_sbu_2, # of connection points: 3
#     Node 38, Type 0, BuildingBlock: OLANEW_clean_sbu_2, # of connection points: 3
#     Node 39, Type 0, BuildingBlock: OLANEW_clean_sbu_2, # of connection points: 3
#     Node 40, Type 0, BuildingBlock: OLANEW_clean_sbu_2, # of connection points: 3
#     Node 41, Type 0, BuildingBlock: OLANEW_clean_sbu_2, # of connection points: 3
#     Node 42, Type 0, BuildingBlock: OLANEW_clean_sbu_2, # of connection points: 3
#     Node 43, Type 0, BuildingBlock: OLANEW_clean_sbu_2, # of connection points: 3
#     Node 44, Type 0, BuildingBlock: OLANEW_clean_sbu_2, # of connection points: 3
#     Node 45, Type 0, BuildingBlock: OLANEW_clean_sbu_2, # of connection points: 3
#     Node 46, Type 0, BuildingBlock: OLANEW_clean_sbu_2, # of connection points: 3
#     Node 47, Type 0, BuildingBlock: OLANEW_clean_sbu_2, # of connection points: 3
#     Node 48, Type 1, BuildingBlock: PAMTOO_clean_linker_0, # of connection points: 3
#     Node 49, Type 1, BuildingBlock: PAMTOO_clean_linker_0, # of connection points: 3
#     Node 50, Type 1, BuildingBlock: PAMTOO_clean_linker_0, # of connection points: 3
#     Node 51, Type 1, BuildingBlock: PAMTOO_clean_linker_0, # of connection points: 3
#     Node 52, Type 1, BuildingBlock: PAMTOO_clean_linker_0, # of connection points: 3
#     Node 53, Type 1, BuildingBlock: PAMTOO_clean_linker_0, # of connection points: 3
#     Node 54, Type 1, BuildingBlock: PAMTOO_clean_linker_0, # of connection points: 3
#     Node 55, Type 1, BuildingBlock: PAMTOO_clean_linker_0, # of connection points: 3
#     Node 56, Type 1, BuildingBlock: PAMTOO_clean_linker_0, # of connection points: 3
#     Node 57, Type 1, BuildingBlock: PAMTOO_clean_linker_0, # of connection points: 3
#     Node 58, Type 1, BuildingBlock: PAMTOO_clean_linker_0, # of connection points: 3
#     Node 59, Type 1, BuildingBlock: PAMTOO_clean_linker_0, # of connection points: 3
#     Node 60, Type 1, BuildingBlock: PAMTOO_clean_linker_0, # of connection points: 3
#     Node 61, Type 1, BuildingBlock: PAMTOO_clean_linker_0, # of connection points: 3
#     Node 62, Type 1, BuildingBlock: PAMTOO_clean_linker_0, # of connection points: 3
#     Node 63, Type 1, BuildingBlock: PAMTOO_clean_linker_0, # of connection points: 3
#     Node 64, Type 1, BuildingBlock: PAMTOO_clean_linker_0, # of connection points: 3
#     Node 65, Type 1, BuildingBlock: PAMTOO_clean_linker_0, # of connection points: 3
#     Node 66, Type 1, BuildingBlock: PAMTOO_clean_linker_0, # of connection points: 3
#     Node 67, Type 1, BuildingBlock: PAMTOO_clean_linker_0, # of connection points: 3
#     Node 68, Type 1, BuildingBlock: PAMTOO_clean_linker_0, # of connection points: 3
#     Node 69, Type 1, BuildingBlock: PAMTOO_clean_linker_0, # of connection points: 3
#     Node 70, Type 1, BuildingBlock: PAMTOO_clean_linker_0, # of connection points: 3
#     Node 71, Type 1, BuildingBlock: PAMTOO_clean_linker_0, # of connection points: 3
#     Node 72, Type 1, BuildingBlock: PAMTOO_clean_linker_0, # of connection points: 3
#     Node 73, Type 1, BuildingBlock: PAMTOO_clean_linker_0, # of connection points: 3
#     Node 74, Type 1, BuildingBlock: PAMTOO_clean_linker_0, # of connection points: 3
#     Node 75, Type 1, BuildingBlock: PAMTOO_clean_linker_0, # of connection points: 3
#     Node 76, Type 1, BuildingBlock: PAMTOO_clean_linker_0, # of connection points: 3
#     Node 77, Type 1, BuildingBlock: PAMTOO_clean_linker_0, # of connection points: 3
#     Node 78, Type 1, BuildingBlock: PAMTOO_clean_linker_0, # of connection points: 3
#     Node 79, Type 1, BuildingBlock: PAMTOO_clean_linker_0, # of connection points: 3
#     Node 80, Type 1, BuildingBlock: PAMTOO_clean_linker_0, # of connection points: 3
#     Node 81, Type 1, BuildingBlock: PAMTOO_clean_linker_0, # of connection points: 3
#     Node 82, Type 1, BuildingBlock: PAMTOO_clean_linker_0, # of connection points: 3
#     Node 83, Type 1, BuildingBlock: PAMTOO_clean_linker_0, # of connection points: 3
#     Node 84, Type 1, BuildingBlock: PAMTOO_clean_linker_0, # of connection points: 3
#     Node 85, Type 1, BuildingBlock: PAMTOO_clean_linker_0, # of connection points: 3
#     Node 86, Type 1, BuildingBlock: PAMTOO_clean_linker_0, # of connection points: 3
#     Node 87, Type 1, BuildingBlock: PAMTOO_clean_linker_0, # of connection points: 3
#     Node 88, Type 1, BuildingBlock: PAMTOO_clean_linker_0, # of connection points: 3
#     Node 89, Type 1, BuildingBlock: PAMTOO_clean_linker_0, # of connection points: 3
#     Node 90, Type 1, BuildingBlock: PAMTOO_clean_linker_0, # of connection points: 3
#     Node 91, Type 1, BuildingBlock: PAMTOO_clean_linker_0, # of connection points: 3
#     Node 92, Type 1, BuildingBlock: PAMTOO_clean_linker_0, # of connection points: 3
#     Node 93, Type 1, BuildingBlock: PAMTOO_clean_linker_0, # of connection points: 3
#     Node 94, Type 1, BuildingBlock: PAMTOO_clean_linker_0, # of connection points: 3
#     Node 95, Type 1, BuildingBlock: PAMTOO_clean_linker_0, # of connection points: 3
#     Edge 96, Type (0, 1), BuildingBlock: KIFKEQ_clean_linker_1, # of connection points: 2
#     Edge 97, Type (0, 1), BuildingBlock: KIFKEQ_clean_linker_1, # of connection points: 2
#     Edge 98, Type (0, 1), BuildingBlock: KIFKEQ_clean_linker_1, # of connection points: 2
#     Edge 99, Type (0, 1), BuildingBlock: KIFKEQ_clean_linker_1, # of connection points: 2
#     Edge 100, Type (0, 1), BuildingBlock: KIFKEQ_clean_linker_1, # of connection points: 2
#     Edge 101, Type (0, 1), BuildingBlock: KIFKEQ_clean_linker_1, # of connection points: 2
#     Edge 102, Type (0, 1), BuildingBlock: KIFKEQ_clean_linker_1, # of connection points: 2
#     Edge 103, Type (0, 1), BuildingBlock: KIFKEQ_clean_linker_1, # of connection points: 2
#     Edge 104, Type (0, 1), BuildingBlock: KIFKEQ_clean_linker_1, # of connection points: 2
#     Edge 105, Type (0, 1), BuildingBlock: KIFKEQ_clean_linker_1, # of connection points: 2
#     Edge 106, Type (0, 1), BuildingBlock: KIFKEQ_clean_linker_1, # of connection points: 2
#     Edge 107, Type (0, 1), BuildingBlock: KIFKEQ_clean_linker_1, # of connection points: 2
#     Edge 108, Type (0, 1), BuildingBlock: KIFKEQ_clean_linker_1, # of connection points: 2
#     Edge 109, Type (0, 1), BuildingBlock: KIFKEQ_clean_linker_1, # of connection points: 2
#     Edge 110, Type (0, 1), BuildingBlock: KIFKEQ_clean_linker_1, # of connection points: 2
#     Edge 111, Type (0, 1), BuildingBlock: KIFKEQ_clean_linker_1, # of connection points: 2
#     Edge 112, Type (0, 1), BuildingBlock: KIFKEQ_clean_linker_1, # of connection points: 2
#     Edge 113, Type (0, 1), BuildingBlock: KIFKEQ_clean_linker_1, # of connection points: 2
#     Edge 114, Type (0, 1), BuildingBlock: KIFKEQ_clean_linker_1, # of connection points: 2
#     Edge 115, Type (0, 1), BuildingBlock: KIFKEQ_clean_linker_1, # of connection points: 2
#     Edge 116, Type (0, 1), BuildingBlock: KIFKEQ_clean_linker_1, # of connection points: 2
#     Edge 117, Type (0, 1), BuildingBlock: KIFKEQ_clean_linker_1, # of connection points: 2
#     Edge 118, Type (0, 1), BuildingBlock: KIFKEQ_clean_linker_1, # of connection points: 2
#     Edge 119, Type (0, 1), BuildingBlock: KIFKEQ_clean_linker_1, # of connection points: 2
#     Edge 120, Type (0, 1), BuildingBlock: KIFKEQ_clean_linker_1, # of connection points: 2
#     Edge 121, Type (0, 1), BuildingBlock: KIFKEQ_clean_linker_1, # of connection points: 2
#     Edge 122, Type (0, 1), BuildingBlock: KIFKEQ_clean_linker_1, # of connection points: 2
#     Edge 123, Type (0, 1), BuildingBlock: KIFKEQ_clean_linker_1, # of connection points: 2
#     Edge 124, Type (0, 1), BuildingBlock: KIFKEQ_clean_linker_1, # of connection points: 2
#     Edge 125, Type (0, 1), BuildingBlock: KIFKEQ_clean_linker_1, # of connection points: 2
#     Edge 126, Type (0, 1), BuildingBlock: KIFKEQ_clean_linker_1, # of connection points: 2
#     Edge 127, Type (0, 1), BuildingBlock: KIFKEQ_clean_linker_1, # of connection points: 2
#     Edge 128, Type (0, 1), BuildingBlock: KIFKEQ_clean_linker_1, # of connection points: 2
#     Edge 129, Type (0, 1), BuildingBlock: KIFKEQ_clean_linker_1, # of connection points: 2
#     Edge 130, Type (0, 1), BuildingBlock: KIFKEQ_clean_linker_1, # of connection points: 2
#     Edge 131, Type (0, 1), BuildingBlock: KIFKEQ_clean_linker_1, # of connection points: 2
#     Edge 132, Type (0, 1), BuildingBlock: KIFKEQ_clean_linker_1, # of connection points: 2
#     Edge 133, Type (0, 1), BuildingBlock: KIFKEQ_clean_linker_1, # of connection points: 2
#     Edge 134, Type (0, 1), BuildingBlock: KIFKEQ_clean_linker_1, # of connection points: 2
#     Edge 135, Type (0, 1), BuildingBlock: KIFKEQ_clean_linker_1, # of connection points: 2
#     Edge 136, Type (0, 1), BuildingBlock: KIFKEQ_clean_linker_1, # of connection points: 2
#     Edge 137, Type (0, 1), BuildingBlock: KIFKEQ_clean_linker_1, # of connection points: 2
#     Edge 138, Type (0, 1), BuildingBlock: KIFKEQ_clean_linker_1, # of connection points: 2
#     Edge 139, Type (0, 1), BuildingBlock: KIFKEQ_clean_linker_1, # of connection points: 2
#     Edge 140, Type (0, 1), BuildingBlock: KIFKEQ_clean_linker_1, # of connection points: 2
#     Edge 141, Type (0, 1), BuildingBlock: KIFKEQ_clean_linker_1, # of connection points: 2
#     Edge 142, Type (0, 1), BuildingBlock: KIFKEQ_clean_linker_1, # of connection points: 2
#     Edge 143, Type (0, 1), BuildingBlock: KIFKEQ_clean_linker_1, # of connection points: 2
#     Edge 144, Type (0, 1), BuildingBlock: KIFKEQ_clean_linker_1, # of connection points: 2
#     Edge 145, Type (0, 1), BuildingBlock: KIFKEQ_clean_linker_1, # of connection points: 2
#     Edge 146, Type (0, 1), BuildingBlock: KIFKEQ_clean_linker_1, # of connection points: 2
#     Edge 147, Type (0, 1), BuildingBlock: KIFKEQ_clean_linker_1, # of connection points: 2
#     Edge 148, Type (0, 1), BuildingBlock: KIFKEQ_clean_linker_1, # of connection points: 2
#     Edge 149, Type (0, 1), BuildingBlock: KIFKEQ_clean_linker_1, # of connection points: 2
#     Edge 150, Type (0, 1), BuildingBlock: KIFKEQ_clean_linker_1, # of connection points: 2
#     Edge 151, Type (0, 1), BuildingBlock: KIFKEQ_clean_linker_1, # of connection points: 2
#     Edge 152, Type (0, 1), BuildingBlock: KIFKEQ_clean_linker_1, # of connection points: 2
#     Edge 153, Type (0, 1), BuildingBlock: KIFKEQ_clean_linker_1, # of connection points: 2
#     Edge 154, Type (0, 1), BuildingBlock: KIFKEQ_clean_linker_1, # of connection points: 2
#     Edge 155, Type (0, 1), BuildingBlock: KIFKEQ_clean_linker_1, # of connection points: 2
#     Edge 156, Type (0, 1), BuildingBlock: KIFKEQ_clean_linker_1, # of connection points: 2
#     Edge 157, Type (0, 1), BuildingBlock: KIFKEQ_clean_linker_1, # of connection points: 2
#     Edge 158, Type (0, 1), BuildingBlock: KIFKEQ_clean_linker_1, # of connection points: 2
#     Edge 159, Type (0, 1), BuildingBlock: KIFKEQ_clean_linker_1, # of connection points: 2
#     Edge 160, Type (0, 1), BuildingBlock: KIFKEQ_clean_linker_1, # of connection points: 2
#     Edge 161, Type (0, 1), BuildingBlock: KIFKEQ_clean_linker_1, # of connection points: 2
#     Edge 162, Type (0, 1), BuildingBlock: KIFKEQ_clean_linker_1, # of connection points: 2
#     Edge 163, Type (0, 1), BuildingBlock: KIFKEQ_clean_linker_1, # of connection points: 2
#     Edge 164, Type (0, 1), BuildingBlock: KIFKEQ_clean_linker_1, # of connection points: 2
#     Edge 165, Type (0, 1), BuildingBlock: KIFKEQ_clean_linker_1, # of connection points: 2
#     Edge 166, Type (0, 1), BuildingBlock: KIFKEQ_clean_linker_1, # of connection points: 2
#     Edge 167, Type (0, 1), BuildingBlock: KIFKEQ_clean_linker_1, # of connection points: 2
#     Edge 168, Type (0, 1), BuildingBlock: KIFKEQ_clean_linker_1, # of connection points: 2
#     Edge 169, Type (0, 1), BuildingBlock: KIFKEQ_clean_linker_1, # of connection points: 2
#     Edge 170, Type (0, 1), BuildingBlock: KIFKEQ_clean_linker_1, # of connection points: 2
#     Edge 171, Type (0, 1), BuildingBlock: KIFKEQ_clean_linker_1, # of connection points: 2
#     Edge 172, Type (0, 1), BuildingBlock: KIFKEQ_clean_linker_1, # of connection points: 2
#     Edge 173, Type (0, 1), BuildingBlock: KIFKEQ_clean_linker_1, # of connection points: 2
#     Edge 174, Type (0, 1), BuildingBlock: KIFKEQ_clean_linker_1, # of connection points: 2
#     Edge 175, Type (0, 1), BuildingBlock: KIFKEQ_clean_linker_1, # of connection points: 2
#     Edge 176, Type (0, 1), BuildingBlock: KIFKEQ_clean_linker_1, # of connection points: 2
#     Edge 177, Type (0, 1), BuildingBlock: KIFKEQ_clean_linker_1, # of connection points: 2
#     Edge 178, Type (0, 1), BuildingBlock: KIFKEQ_clean_linker_1, # of connection points: 2
#     Edge 179, Type (0, 1), BuildingBlock: KIFKEQ_clean_linker_1, # of connection points: 2
#     Edge 180, Type (0, 1), BuildingBlock: KIFKEQ_clean_linker_1, # of connection points: 2
#     Edge 181, Type (0, 1), BuildingBlock: KIFKEQ_clean_linker_1, # of connection points: 2
#     Edge 182, Type (0, 1), BuildingBlock: KIFKEQ_clean_linker_1, # of connection points: 2
#     Edge 183, Type (0, 1), BuildingBlock: KIFKEQ_clean_linker_1, # of connection points: 2
#     Edge 184, Type (0, 1), BuildingBlock: KIFKEQ_clean_linker_1, # of connection points: 2
#     Edge 185, Type (0, 1), BuildingBlock: KIFKEQ_clean_linker_1, # of connection points: 2
#     Edge 186, Type (0, 1), BuildingBlock: KIFKEQ_clean_linker_1, # of connection points: 2
#     Edge 187, Type (0, 1), BuildingBlock: KIFKEQ_clean_linker_1, # of connection points: 2
#     Edge 188, Type (0, 1), BuildingBlock: KIFKEQ_clean_linker_1, # of connection points: 2
#     Edge 189, Type (0, 1), BuildingBlock: KIFKEQ_clean_linker_1, # of connection points: 2
#     Edge 190, Type (0, 1), BuildingBlock: KIFKEQ_clean_linker_1, # of connection points: 2
#     Edge 191, Type (0, 1), BuildingBlock: KIFKEQ_clean_linker_1, # of connection points: 2
#     Edge 192, Type (0, 1), BuildingBlock: KIFKEQ_clean_linker_1, # of connection points: 2
#     Edge 193, Type (0, 1), BuildingBlock: KIFKEQ_clean_linker_1, # of connection points: 2
#     Edge 194, Type (0, 1), BuildingBlock: KIFKEQ_clean_linker_1, # of connection points: 2
#     Edge 195, Type (0, 1), BuildingBlock: KIFKEQ_clean_linker_1, # of connection points: 2
#     Edge 196, Type (0, 1), BuildingBlock: KIFKEQ_clean_linker_1, # of connection points: 2
#     Edge 197, Type (0, 1), BuildingBlock: KIFKEQ_clean_linker_1, # of connection points: 2
#     Edge 198, Type (0, 1), BuildingBlock: KIFKEQ_clean_linker_1, # of connection points: 2
#     Edge 199, Type (0, 1), BuildingBlock: KIFKEQ_clean_linker_1, # of connection points: 2
#     Edge 200, Type (0, 1), BuildingBlock: KIFKEQ_clean_linker_1, # of connection points: 2
#     Edge 201, Type (0, 1), BuildingBlock: KIFKEQ_clean_linker_1, # of connection points: 2
#     Edge 202, Type (0, 1), BuildingBlock: KIFKEQ_clean_linker_1, # of connection points: 2
#     Edge 203, Type (0, 1), BuildingBlock: KIFKEQ_clean_linker_1, # of connection points: 2
#     Edge 204, Type (0, 1), BuildingBlock: KIFKEQ_clean_linker_1, # of connection points: 2
#     Edge 205, Type (0, 1), BuildingBlock: KIFKEQ_clean_linker_1, # of connection points: 2
#     Edge 206, Type (0, 1), BuildingBlock: KIFKEQ_clean_linker_1, # of connection points: 2
#     Edge 207, Type (0, 1), BuildingBlock: KIFKEQ_clean_linker_1, # of connection points: 2
#     Edge 208, Type (0, 1), BuildingBlock: KIFKEQ_clean_linker_1, # of connection points: 2
#     Edge 209, Type (0, 1), BuildingBlock: KIFKEQ_clean_linker_1, # of connection points: 2
#     Edge 210, Type (0, 1), BuildingBlock: KIFKEQ_clean_linker_1, # of connection points: 2
#     Edge 211, Type (0, 1), BuildingBlock: KIFKEQ_clean_linker_1, # of connection points: 2
#     Edge 212, Type (0, 1), BuildingBlock: KIFKEQ_clean_linker_1, # of connection points: 2
#     Edge 213, Type (0, 1), BuildingBlock: KIFKEQ_clean_linker_1, # of connection points: 2
#     Edge 214, Type (0, 1), BuildingBlock: KIFKEQ_clean_linker_1, # of connection points: 2
#     Edge 215, Type (0, 1), BuildingBlock: KIFKEQ_clean_linker_1, # of connection points: 2
#     Edge 216, Type (0, 1), BuildingBlock: KIFKEQ_clean_linker_1, # of connection points: 2
#     Edge 217, Type (0, 1), BuildingBlock: KIFKEQ_clean_linker_1, # of connection points: 2
#     Edge 218, Type (0, 1), BuildingBlock: KIFKEQ_clean_linker_1, # of connection points: 2
#     Edge 219, Type (0, 1), BuildingBlock: KIFKEQ_clean_linker_1, # of connection points: 2
#     Edge 220, Type (0, 1), BuildingBlock: KIFKEQ_clean_linker_1, # of connection points: 2
#     Edge 221, Type (0, 1), BuildingBlock: KIFKEQ_clean_linker_1, # of connection points: 2
#     Edge 222, Type (0, 1), BuildingBlock: KIFKEQ_clean_linker_1, # of connection points: 2
#     Edge 223, Type (0, 1), BuildingBlock: KIFKEQ_clean_linker_1, # of connection points: 2
#     Edge 224, Type (0, 1), BuildingBlock: KIFKEQ_clean_linker_1, # of connection points: 2
#     Edge 225, Type (0, 1), BuildingBlock: KIFKEQ_clean_linker_1, # of connection points: 2
#     Edge 226, Type (0, 1), BuildingBlock: KIFKEQ_clean_linker_1, # of connection points: 2
#     Edge 227, Type (0, 1), BuildingBlock: KIFKEQ_clean_linker_1, # of connection points: 2
#     Edge 228, Type (0, 1), BuildingBlock: KIFKEQ_clean_linker_1, # of connection points: 2
#     Edge 229, Type (0, 1), BuildingBlock: KIFKEQ_clean_linker_1, # of connection points: 2
#     Edge 230, Type (0, 1), BuildingBlock: KIFKEQ_clean_linker_1, # of connection points: 2
#     Edge 231, Type (0, 1), BuildingBlock: KIFKEQ_clean_linker_1, # of connection points: 2
#     Edge 232, Type (0, 1), BuildingBlock: KIFKEQ_clean_linker_1, # of connection points: 2
#     Edge 233, Type (0, 1), BuildingBlock: KIFKEQ_clean_linker_1, # of connection points: 2
#     Edge 234, Type (0, 1), BuildingBlock: KIFKEQ_clean_linker_1, # of connection points: 2
#     Edge 235, Type (0, 1), BuildingBlock: KIFKEQ_clean_linker_1, # of connection points: 2
#     Edge 236, Type (0, 1), BuildingBlock: KIFKEQ_clean_linker_1, # of connection points: 2
#     Edge 237, Type (0, 1), BuildingBlock: KIFKEQ_clean_linker_1, # of connection points: 2
#     Edge 238, Type (0, 1), BuildingBlock: KIFKEQ_clean_linker_1, # of connection points: 2
#     Edge 239, Type (0, 1), BuildingBlock: KIFKEQ_clean_linker_1, # of connection points: 2
# Relax obj value: 0.012
# Max RMSD: 0.093
# Mean RMSD: 0.060
data_MOF--net-bpr--node1-OLANEW_clean_sbu_2--node2-PAMTOO_clean_linker_0--edge1-KIFKEQ_clean_linker_1
_symmetry_space_group_name_H-M    P1
_symmetry_Int_Tables_number       1
_symmetry_cell_setting            triclinic
loop_
_symmetry_equiv_pos_as_xyz
'x, y, z'
_cell_length_a     83.395812
_cell_length_b     93.841556
_cell_length_c     90.059576
_cell_angle_alpha  92.554198
_cell_angle_beta   97.869497
_cell_angle_gamma 100.92768
loop_
_atom_site_label
_atom_site_type_symbol
_atom_site_fract_x
_atom_site_fract_y
_atom_site_fract_z
_atom_type_partial_charge
O0 O 0.05957 0.37963 0.26783 0.0
Cd1 Cd 0.03635 0.38303 0.2496 0.0
O2 O 0.04634 0.35951 0.27574 0.0
Cd3 Cd 0.0222 0.36307 0.26566 0.0
O4 O 0.99811 0.36836 0.26762 0.0
C5 C 0.99033 0.36188 0.27737 0.0
O6 O 0.99678 0.35214 0.2849 0.0
C7 C 0.05964 0.36873 0.27571 0.0
C8 C 0.04703 0.38539 0.2216 0.0
O9 O 0.0478 0.39672 0.23037 0.0
O10 O 0.04083 0.37298 0.22592 0.0
O11 O 0.9131 0.83566 0.54879 0.0
Cd12 Cd 0.92883 0.82879 0.52958 0.0
O13 O 0.91763 0.81604 0.55944 0.0
Cd14 Cd 0.91623 0.79944 0.57576 0.0
O15 O 0.91754 0.7798 0.58758 0.0
C16 C 0.90452 0.77114 0.58974 0.0
O17 O 0.89008 0.77441 0.58523 0.0
C18 C 0.9116 0.82751 0.55961 0.0
C19 C 0.91834 0.83712 0.50117 0.0
O20 O 0.91279 0.82436 0.50506 0.0
O21 O 0.92872 0.84596 0.51077 0.0
O22 O 0.44289 0.61814 0.76349 0.0
Cd23 Cd 0.46293 0.62122 0.74586 0.0
O24 O 0.43941 0.59429 0.76241 0.0
Cd25 Cd 0.45024 0.59451 0.74171 0.0
O26 O 0.44627 0.59749 0.71768 0.0
C27 C 0.4372 0.60657 0.71384 0.0
O28 O 0.43182 0.6137 0.7244 0.0
C29 C 0.4368 0.60605 0.7683 0.0
C30 C 0.4939 0.62072 0.76181 0.0
O31 O 0.48839 0.63256 0.76097 0.0
O32 O 0.48494 0.60915 0.75476 0.0
O33 O 0.6404 0.24164 0.08705 0.0
Cd34 Cd 0.63436 0.26324 0.07502 0.0
O35 O 0.64607 0.23303 0.06579 0.0
Cd36 Cd 0.65107 0.21639 0.05021 0.0
O37 O 0.65596 0.20126 0.03302 0.0
C38 C 0.64488 0.19645 0.02186 0.0
O39 O 0.63058 0.20054 0.02105 0.0
C40 C 0.64467 0.23155 0.07955 0.0
C41 C 0.62145 0.28094 0.09405 0.0
O42 O 0.61209 0.27018 0.08593 0.0
O43 O 0.63693 0.28335 0.09315 0.0
O44 O 0.08983 0.63665 0.22873 0.0
Cd45 Cd 0.06685 0.6334 0.24331 0.0
O46 O 0.09383 0.66051 0.23175 0.0
Cd47 Cd 0.0706 0.65978 0.24045 0.0
O48 O 0.04398 0.6567 0.23374 0.0
C49 C 0.03918 0.6517 0.22018 0.0
O50 O 0.05022 0.64866 0.21208 0.0
C51 C 0.09815 0.64911 0.22683 0.0
C52 C 0.07791 0.63171 0.27371 0.0
O53 O 0.07222 0.62016 0.26499 0.0
O54 O 0.07828 0.64405 0.26807 0.0
O55 O 0.59418 0.77613 0.44851 0.0
Cd56 Cd 0.60435 0.76536 0.47131 0.0
O57 O 0.61869 0.78968 0.44808 0.0
Cd58 Cd 0.62858 0.78607 0.47098 0.0
O59 O 0.63709 0.79474 0.49417 0.0
C60 C 0.65111 0.80322 0.4971 0.0
O61 O 0.66036 0.80533 0.48639 0.0
C62 C 0.60383 0.78505 0.44193 0.0
C63 C 0.62062 0.74341 0.46339 0.0
O64 O 0.60528 0.7405 0.46481 0.0
O65 O 0.62834 0.75664 0.46604 0.0
O66 O 0.42796 0.41232 0.75111 0.0
Cd67 Cd 0.44516 0.41863 0.7756 0.0
O68 O 0.44915 0.40799 0.74097 0.0
Cd69 Cd 0.46171 0.39999 0.72345 0.0
O70 O 0.47697 0.3911 0.70897 0.0
C71 C 0.48686 0.39949 0.70213 0.0
O72 O 0.48751 0.41359 0.7036 0.0
C73 C 0.43388 0.40851 0.73963 0.0
C74 C 0.42724 0.40973 0.79867 0.0
O75 O 0.4272 0.42218 0.7934 0.0
O76 O 0.43588 0.40148 0.79311 0.0
O77 O 0.91491 0.25722 0.92786 0.0
Cd78 Cd 0.91891 0.28046 0.94261 0.0
O79 O 0.90458 0.24723 0.94684 0.0
Cd80 Cd 0.89495 0.22917 0.95971 0.0
O81 O 0.88712 0.21226 0.97449 0.0
C82 C 0.89801 0.20706 0.98261 0.0
O83 O 0.91367 0.2119 0.98168 0.0
C84 C 0.90821 0.24591 0.93365 0.0
C85 C 0.90214 0.29931 0.92671 0.0
O86 O 0.91751 0.29972 0.92624 0.0
O87 O 0.89478 0.29015 0.93491 0.0
O88 O 0.29444 0.01969 0.36715 0.0
Cd89 Cd 0.26858 0.00176 0.36308 0.0
O90 O 0.28324 0.03819 0.36001 0.0
Cd91 Cd 0.2574 0.02707 0.35647 0.0
O92 O 0.23176 0.02969 0.35507 0.0
C93 C 0.22999 0.04187 0.3607 0.0
O94 O 0.24323 0.05124 0.36695 0.0
C95 C 0.29594 0.03306 0.36463 0.0
C96 C 0.27525 0.97382 0.35963 0.0
O97 O 0.27233 0.9811 0.34821 0.0
O98 O 0.27479 0.97967 0.37267 0.0
O99 O 0.2179 0.03395 0.64351 0.0
Cd100 Cd 0.24115 0.02145 0.64799 0.0
O101 O 0.2184 0.03546 0.61928 0.0
Cd102 Cd 0.24211 0.02861 0.62132 0.0
O103 O 0.26885 0.03462 0.62749 0.0
C104 C 0.27376 0.04435 0.63828 0.0
O105 O 0.26266 0.04923 0.64504 0.0
C106 C 0.21166 0.03747 0.63084 0.0
C107 C 0.22931 0.99336 0.65559 0.0
O108 O 0.23368 0.00402 0.66563 0.0
O109 O 0.23095 0.99591 0.64196 0.0
O110 O 0.28843 0.98302 0.95191 0.0
Cd111 Cd 0.31716 0.9955 0.95314 0.0
O112 O 0.28058 0.0032 0.94576 0.0
Cd113 Cd 0.26334 0.01785 0.941 0.0
O114 O 0.25241 0.03722 0.93977 0.0
C115 C 0.23859 0.03744 0.93194 0.0
O116 O 0.23025 0.0255 0.92421 0.0
C117 C 0.27686 0.98982 0.9482 0.0
C118 C 0.33332 0.97924 0.93568 0.0
O119 O 0.33386 0.97779 0.94981 0.0
O120 O 0.32542 0.98859 0.92988 0.0
O121 O 0.27434 0.98899 0.11964 0.0
Cd122 Cd 0.25979 0.00494 0.1325 0.0
O123 O 0.26516 0.99408 0.09681 0.0
Cd124 Cd 0.24594 0.00298 0.10602 0.0
O125 O 0.2262 0.99351 0.11837 0.0
C126 C 0.22538 0.97989 0.11906 0.0
O127 O 0.23572 0.97377 0.11244 0.0
C128 C 0.27456 0.98785 0.10553 0.0
C129 C 0.2798 0.03256 0.13743 0.0
O130 O 0.28072 0.02302 0.1471 0.0
O131 O 0.26909 0.02915 0.12557 0.0
O132 O 0.36596 0.30183 0.05217 0.0
Cd133 Cd 0.36496 0.28184 0.03352 0.0
O134 O 0.35782 0.28787 0.06983 0.0
Cd135 Cd 0.35816 0.26688 0.05853 0.0
O136 O 0.36137 0.24451 0.06127 0.0
C137 C 0.3759 0.24211 0.06451 0.0
O138 O 0.38852 0.25297 0.06494 0.0
C139 C 0.36197 0.30047 0.06523 0.0
C140 C 0.36056 0.29182 0.00475 0.0
O141 O 0.34815 0.28627 0.01103 0.0
O142 O 0.37505 0.29241 0.01198 0.0
O143 O 0.93514 0.96494 0.23768 0.0
Cd144 Cd 0.9485 0.97648 0.2622 0.0
O145 O 0.95635 0.95453 0.23684 0.0
Cd146 Cd 0.97243 0.94194 0.22719 0.0
O147 O 0.99293 0.93276 0.22094 0.0
C148 C 0.00696 0.93694 0.22897 0.0
O149 O 0.00835 0.94637 0.24054 0.0
C150 C 0.94223 0.95637 0.23084 0.0
C151 C 0.93664 0.95967 0.28453 0.0
O152 O 0.92927 0.9695 0.2791 0.0
O153 O 0.94989 0.95792 0.27957 0.0
O154 O 0.09289 0.71165 0.59449 0.0
Cd155 Cd 0.08276 0.73109 0.58122 0.0
O156 O 0.10056 0.7043 0.57369 0.0
Cd157 Cd 0.10939 0.69056 0.5576 0.0
O158 O 0.11614 0.6828 0.53653 0.0
C159 C 0.11089 0.66988 0.53073 0.0
O160 O 0.10146 0.66054 0.53786 0.0
C161 C 0.09935 0.70269 0.58747 0.0
C162 C 0.09462 0.75852 0.59616 0.0
O163 O 0.08143 0.75036 0.59908 0.0
O164 O 0.10227 0.75365 0.58625 0.0
O165 O 0.00805 0.61006 0.74661 0.0
Cd166 Cd 0.02887 0.60288 0.76506 0.0
O167 O 0.01846 0.63343 0.75112 0.0
Cd168 Cd 0.03031 0.62924 0.77318 0.0
O169 O 0.0234 0.62458 0.79525 0.0
C170 C 0.0092 0.6166 0.79488 0.0
O171 O 0.00076 0.61129 0.78175 0.0
C172 C 0.00849 0.6231 0.74313 0.0
C173 C 0.05672 0.60297 0.75103 0.0
O174 O 0.04525 0.5916 0.75006 0.0
O175 O 0.0553 0.61414 0.75909 0.0
O176 O 0.11588 0.18249 0.46392 0.0
Cd177 Cd 0.11634 0.199 0.4858 0.0
O178 O 0.12556 0.20121 0.45196 0.0
Cd179 Cd 0.13369 0.21476 0.43415 0.0
O180 O 0.14453 0.23237 0.42131 0.0
C181 C 0.13582 0.2411 0.41569 0.0
O182 O 0.12013 0.23902 0.41728 0.0
C183 C 0.12053 0.18752 0.452 0.0
C184 C 0.11219 0.18386 0.51138 0.0
O185 O 0.09971 0.18586 0.50229 0.0
O186 O 0.12665 0.18907 0.50839 0.0
O187 O 0.5364 0.39395 0.30993 0.0
Cd188 Cd 0.5301 0.40303 0.33388 0.0
O189 O 0.52093 0.40791 0.2987 0.0
Cd190 Cd 0.50812 0.41535 0.27857 0.0
O191 O 0.49136 0.41765 0.25839 0.0
C192 C 0.4907 0.40928 0.24674 0.0
O193 O 0.50057 0.39988 0.24707 0.0
C194 C 0.53034 0.3988 0.29793 0.0
C195 C 0.55762 0.40748 0.35618 0.0
O196 O 0.5471 0.39543 0.35446 0.0
O197 O 0.5551 0.41744 0.34737 0.0
O198 O 0.27956 0.77173 0.86876 0.0
Cd199 Cd 0.26138 0.74936 0.87364 0.0
O200 O 0.28272 0.77788 0.8929 0.0
Cd201 Cd 0.29405 0.79196 0.91309 0.0
O202 O 0.30513 0.80666 0.93282 0.0
C203 C 0.30056 0.81872 0.93463 0.0
O204 O 0.28926 0.82208 0.92447 0.0
C205 C 0.2859 0.78083 0.87983 0.0
C206 C 0.27307 0.72482 0.86506 0.0
O207 O 0.26275 0.72997 0.85598 0.0
O208 O 0.27782 0.73128 0.87821 0.0
O209 O 0.85838 0.30642 0.71261 0.0
Cd210 Cd 0.86339 0.29625 0.68865 0.0
O211 O 0.88487 0.31054 0.72101 0.0
Cd212 Cd 0.90722 0.31677 0.73763 0.0
O213 O 0.93083 0.32236 0.75255 0.0
C214 C 0.93142 0.32389 0.76672 0.0
O215 O 0.91754 0.32215 0.77241 0.0
C216 C 0.87025 0.31132 0.72308 0.0
C217 C 0.85368 0.31299 0.66554 0.0
O218 O 0.84347 0.30236 0.66953 0.0
O219 O 0.86858 0.31558 0.67237 0.0
O220 O 0.3926 0.21555 0.57604 0.0
Cd221 Cd 0.38716 0.23442 0.55934 0.0
O222 O 0.40274 0.20587 0.55786 0.0
Cd223 Cd 0.41426 0.19141 0.54487 0.0
O224 O 0.42049 0.1794 0.52586 0.0
C225 C 0.41092 0.16759 0.52043 0.0
O226 O 0.39799 0.16259 0.52689 0.0
C227 C 0.39916 0.20546 0.57115 0.0
C228 C 0.3738 0.25556 0.5733 0.0
O229 O 0.36443 0.24431 0.56597 0.0
O230 O 0.38946 0.25676 0.57401 0.0
O231 O 0.57121 0.65031 0.28743 0.0
Cd232 Cd 0.54926 0.64908 0.26615 0.0
O233 O 0.57026 0.62671 0.28617 0.0
Cd234 Cd 0.54524 0.62285 0.27386 0.0
O235 O 0.51941 0.61985 0.27723 0.0
C236 C 0.51482 0.63043 0.28362 0.0
O237 O 0.52536 0.64286 0.2867 0.0
C238 C 0.57731 0.63945 0.2916 0.0
C239 C 0.56206 0.6442 0.23977 0.0
O240 O 0.56369 0.65709 0.24586 0.0
O241 O 0.55403 0.63362 0.24594 0.0
O242 O 0.15025 0.80179 0.089 0.0
Cd243 Cd 0.1586 0.78949 0.06768 0.0
O244 O 0.126 0.80342 0.07686 0.0
Cd245 Cd 0.13165 0.7966 0.05503 0.0
O246 O 0.13547 0.80541 0.03351 0.0
C247 C 0.12323 0.8095 0.02616 0.0
O248 O 0.10898 0.80695 0.03121 0.0
C249 C 0.13629 0.80538 0.08891 0.0
C250 C 0.16549 0.76272 0.07572 0.0
O251 O 0.17678 0.77427 0.07787 0.0
O252 O 0.15104 0.76381 0.06952 0.0
O253 O 0.73815 0.01178 0.5652 0.0
Cd254 Cd 0.75579 0.03491 0.56161 0.0
O255 O 0.75911 0.00608 0.57946 0.0
Cd256 Cd 0.77225 0.99184 0.59294 0.0
O257 O 0.78306 0.97697 0.60733 0.0
C258 C 0.78892 0.96682 0.60159 0.0
O259 O 0.78844 0.96551 0.58694 0.0
C260 C 0.74398 0.00288 0.57358 0.0
C261 C 0.74578 0.0575 0.57668 0.0
O262 O 0.74013 0.05373 0.56281 0.0
O263 O 0.75637 0.05073 0.58333 0.0
O264 O 0.75405 0.94934 0.37643 0.0
Cd265 Cd 0.73266 0.96345 0.37004 0.0
O266 O 0.74183 0.93117 0.36 0.0
Cd267 Cd 0.71868 0.9388 0.35489 0.0
O268 O 0.69176 0.93467 0.35048 0.0
C269 C 0.6847 0.92617 0.33911 0.0
O270 O 0.6939 0.92127 0.33011 0.0
C271 C 0.75409 0.93716 0.36969 0.0
C272 C 0.74811 0.99171 0.36575 0.0
O273 O 0.7433 0.98855 0.37833 0.0
O274 O 0.74527 0.98161 0.35512 0.0
O275 O 0.77094 0.99036 0.03661 0.0
Cd276 Cd 0.75453 0.96574 0.03458 0.0
O277 O 0.75856 0.99415 0.05595 0.0
Cd278 Cd 0.75328 0.0082 0.07395 0.0
O279 O 0.74524 0.02432 0.08792 0.0
C280 C 0.74195 0.03561 0.08187 0.0
O281 O 0.74382 0.03714 0.06774 0.0
C282 C 0.76931 0.99866 0.0476 0.0
C283 C 0.77319 0.94896 0.05165 0.0
O284 O 0.77293 0.94895 0.03739 0.0
O285 O 0.76423 0.95653 0.05775 0.0
O286 O 0.7149 0.99687 0.92231 0.0
Cd287 Cd 0.72836 0.97587 0.92244 0.0
O288 O 0.7328 0.00661 0.90815 0.0
Cd289 Cd 0.74533 0.02473 0.89684 0.0
O290 O 0.76281 0.0426 0.8897 0.0
C291 C 0.77749 0.045 0.89664 0.0
O292 O 0.7812 0.03675 0.9075 0.0
C293 C 0.72048 0.00738 0.91483 0.0
C294 C 0.7074 0.95123 0.90745 0.0
O295 O 0.70905 0.95328 0.92179 0.0
O296 O 0.71568 0.96078 0.90024 0.0
O297 O 0.6296 0.68199 0.96678 0.0
Cd298 Cd 0.63274 0.69691 0.99033 0.0
O299 O 0.63 0.70178 0.95482 0.0
Cd300 Cd 0.62781 0.71551 0.93591 0.0
O301 O 0.62617 0.73362 0.9217 0.0
C302 C 0.61905 0.73176 0.90815 0.0
O303 O 0.6126 0.71848 0.90233 0.0
C304 C 0.62899 0.68807 0.95445 0.0
C305 C 0.62884 0.68001 0.01476 0.0
O306 O 0.61644 0.68391 0.00718 0.0
O307 O 0.64308 0.6841 0.01077 0.0
O308 O 0.07405 0.12535 0.79521 0.0
Cd309 Cd 0.05265 0.12331 0.77335 0.0
O310 O 0.05943 0.10714 0.80507 0.0
Cd311 Cd 0.03665 0.10633 0.78966 0.0
O312 O 0.01131 0.10899 0.79029 0.0
C313 C 0.00194 0.099 0.79587 0.0
O314 O 0.00744 0.08718 0.79945 0.0
C315 C 0.07269 0.11653 0.8055 0.0
C316 C 0.06548 0.12121 0.74652 0.0
O317 O 0.0635 0.1335 0.75199 0.0
O318 O 0.06136 0.10994 0.75372 0.0
O319 O 0.78676 0.28146 0.3729 0.0
Cd320 Cd 0.76763 0.26112 0.38072 0.0
O321 O 0.79265 0.28993 0.39644 0.0
Cd322 Cd 0.80312 0.30602 0.41531 0.0
O323 O 0.80998 0.32046 0.43582 0.0
C324 C 0.79923 0.32696 0.44021 0.0
O325 O 0.78453 0.32496 0.43211 0.0
C326 C 0.79479 0.29121 0.38281 0.0
C327 C 0.77576 0.23441 0.37376 0.0
O328 O 0.7664 0.24012 0.36428 0.0
O329 O 0.78133 0.24137 0.38657 0.0
O330 O 0.54641 0.89553 0.72798 0.0
Cd331 Cd 0.53261 0.90292 0.70473 0.0
O332 O 0.52254 0.88904 0.73584 0.0
Cd333 Cd 0.50651 0.88239 0.75263 0.0
O334 O 0.48769 0.88033 0.76746 0.0
C335 C 0.49039 0.88797 0.77989 0.0
O336 O 0.50485 0.89664 0.78386 0.0
C337 C 0.53815 0.89035 0.73803 0.0
C338 C 0.55084 0.90091 0.68125 0.0
O339 O 0.55337 0.91255 0.68995 0.0
O340 O 0.53961 0.89024 0.68362 0.0
O341 O 0.92971 0.10553 0.27082 0.0
Cd342 Cd 0.9492 0.10219 0.25362 0.0
O343 O 0.91008 0.10811 0.25275 0.0
Cd344 Cd 0.92334 0.10571 0.23382 0.0
O345 O 0.92232 0.10261 0.20953 0.0
C346 C 0.92638 0.1133 0.20173 0.0
O347 O 0.93251 0.12623 0.2086 0.0
C348 C 0.91517 0.10756 0.26664 0.0
C349 C 0.98048 0.10278 0.2696 0.0
O350 O 0.97674 0.11426 0.26403 0.0
O351 O 0.9695 0.09102 0.26747 0.0
O352 O 0.61509 0.15103 0.74519 0.0
Cd353 Cd 0.593 0.14232 0.75978 0.0
O354 O 0.60538 0.17041 0.73859 0.0
Cd355 Cd 0.5823 0.16364 0.74747 0.0
O356 O 0.55556 0.15616 0.74318 0.0
C357 C 0.54997 0.14432 0.73513 0.0
O358 O 0.56046 0.1368 0.73071 0.0
C359 C 0.61644 0.16277 0.73851 0.0
C360 C 0.60573 0.13566 0.78833 0.0
O361 O 0.6029 0.1262 0.7771 0.0
O362 O 0.60247 0.14827 0.78607 0.0
O363 O 0.08572 0.26859 0.95846 0.0
Cd364 Cd 0.09092 0.25637 0.98155 0.0
O365 O 0.11111 0.2813 0.96266 0.0
Cd366 Cd 0.11482 0.27734 0.98645 0.0
O367 O 0.11497 0.2875 0.00875 0.0
C368 C 0.10366 0.29474 0.0096 0.0
O369 O 0.09259 0.29461 0.99768 0.0
C370 C 0.0974 0.27737 0.95404 0.0
C371 C 0.10757 0.23415 0.9754 0.0
O372 O 0.09185 0.23152 0.97499 0.0
O373 O 0.11545 0.2472 0.97911 0.0
O374 O 0.41702 0.74411 0.42519 0.0
Cd375 Cd 0.41827 0.76736 0.43916 0.0
O376 O 0.40889 0.73376 0.44488 0.0
Cd377 Cd 0.40189 0.71597 0.45908 0.0
O378 O 0.39489 0.70105 0.47607 0.0
C379 C 0.40594 0.69664 0.4848 0.0
O380 O 0.42151 0.7009 0.48316 0.0
C381 C 0.41227 0.73258 0.43158 0.0
C382 C 0.40169 0.78576 0.42223 0.0
O383 O 0.41729 0.78669 0.42274 0.0
O384 O 0.39394 0.77615 0.42975 0.0
O385 O 0.78911 0.51796 0.84332 0.0
Cd386 Cd 0.76317 0.50156 0.83314 0.0
O387 O 0.77856 0.52872 0.86081 0.0
Cd388 Cd 0.75251 0.52004 0.85249 0.0
O389 O 0.72781 0.52522 0.84958 0.0
C390 C 0.72734 0.53785 0.85503 0.0
O391 O 0.74118 0.54617 0.86169 0.0
C392 C 0.791 0.52688 0.85476 0.0
C393 C 0.7689 0.47318 0.83229 0.0
O394 O 0.77072 0.48102 0.82111 0.0
O395 O 0.76396 0.47864 0.84374 0.0
O396 O 0.7005 0.51947 0.17986 0.0
Cd397 Cd 0.71293 0.49863 0.1865 0.0
O398 O 0.72147 0.52817 0.16851 0.0
Cd399 Cd 0.73724 0.54458 0.15765 0.0
O400 O 0.75825 0.5591 0.15087 0.0
C401 C 0.7723 0.55927 0.15848 0.0
O402 O 0.77326 0.55091 0.16976 0.0
C403 C 0.7077 0.52935 0.17249 0.0
C404 C 0.68863 0.47384 0.18679 0.0
O405 O 0.69335 0.48286 0.19838 0.0
O406 O 0.69552 0.47648 0.17506 0.0
O407 O 0.80342 0.49722 0.43642 0.0
Cd408 Cd 0.82912 0.51035 0.42926 0.0
O409 O 0.79118 0.51459 0.42811 0.0
Cd410 Cd 0.77094 0.52638 0.42419 0.0
O411 O 0.75535 0.54259 0.42132 0.0
C412 C 0.75992 0.55446 0.42947 0.0
O413 O 0.77344 0.55623 0.43931 0.0
C414 C 0.79037 0.50238 0.43385 0.0
C415 C 0.84166 0.49198 0.41069 0.0
O416 O 0.84636 0.49334 0.42493 0.0
O417 O 0.83125 0.49951 0.40521 0.0
O418 O 0.77828 0.50144 0.62403 0.0
Cd419 Cd 0.77057 0.52371 0.63323 0.0
O420 O 0.75209 0.49153 0.61768 0.0
Cd421 Cd 0.73163 0.47317 0.61061 0.0
O422 O 0.7098 0.45573 0.6081 0.0
C423 C 0.70862 0.4465 0.61799 0.0
O424 O 0.72077 0.44754 0.62919 0.0
C425 C 0.76719 0.49059 0.6185 0.0
C426 C 0.79679 0.54739 0.63534 0.0
O427 O 0.79531 0.53891 0.64605 0.0
O428 O 0.78579 0.54473 0.62362 0.0
O429 O 0.50677 0.09466 0.2144 0.0
Cd430 Cd 0.53081 0.08802 0.22907 0.0
O431 O 0.49942 0.10154 0.2355 0.0
Cd432 Cd 0.48513 0.1093 0.2517 0.0
O433 O 0.47712 0.11582 0.27261 0.0
C434 C 0.46278 0.11828 0.27335 0.0
O435 O 0.45208 0.11703 0.26099 0.0
C436 C 0.49677 0.10019 0.2212 0.0
C437 C 0.55785 0.0941 0.21374 0.0
O438 O 0.54902 0.08124 0.21279 0.0
O439 O 0.55405 0.10396 0.22214 0.0
O440 O 0.05494 0.88846 0.77186 0.0
Cd441 Cd 0.03752 0.8922 0.79078 0.0
O442 O 0.04324 0.90194 0.75603 0.0
Cd443 Cd 0.02212 0.90282 0.76768 0.0
O444 O 0.9953 0.89887 0.7618 0.0
C445 C 0.98881 0.88642 0.75529 0.0
O446 O 0.99827 0.87682 0.75411 0.0
C447 C 0.05437 0.89462 0.75957 0.0
C448 C 0.05742 0.89729 0.81874 0.0
O449 O 0.04941 0.88448 0.81402 0.0
O450 O 0.05569 0.90776 0.81039 0.0
O451 O 0.3393 0.81114 0.21029 0.0
Cd452 Cd 0.34321 0.79933 0.18667 0.0
O453 O 0.36611 0.81544 0.21708 0.0
Cd454 Cd 0.38889 0.82211 0.23307 0.0
O455 O 0.4107 0.82962 0.2499 0.0
C456 C 0.41801 0.82045 0.25655 0.0
O457 O 0.41227 0.80649 0.2531 0.0
C458 C 0.35182 0.81642 0.21997 0.0
C459 C 0.34089 0.81721 0.16288 0.0
O460 O 0.32806 0.80882 0.16621 0.0
O461 O 0.35485 0.81715 0.17084 0.0
O462 O 0.87509 0.72566 0.04791 0.0
Cd463 Cd 0.86922 0.74365 0.03029 0.0
O464 O 0.88866 0.71567 0.03254 0.0
Cd465 Cd 0.90328 0.70071 0.02451 0.0
O466 O 0.91154 0.68489 0.01037 0.0
C467 C 0.90181 0.67269 0.00686 0.0
O468 O 0.88789 0.67005 0.01246 0.0
C469 C 0.88316 0.71593 0.04503 0.0
C470 C 0.86725 0.76908 0.04647 0.0
O471 O 0.8546 0.75876 0.04305 0.0
O472 O 0.88077 0.76749 0.04196 0.0
O473 O 0.58244 0.2432 0.54382 0.0
Cd474 Cd 0.58861 0.22328 0.52859 0.0
O475 O 0.5903 0.25772 0.52667 0.0
Cd476 Cd 0.59783 0.27927 0.51864 0.0
O477 O 0.606 0.30159 0.513 0.0
C478 C 0.62134 0.30711 0.51514 0.0
O479 O 0.63184 0.29917 0.52061 0.0
C480 C 0.58507 0.2559 0.53921 0.0
C481 C 0.61103 0.20983 0.54579 0.0
O482 O 0.61604 0.22094 0.53866 0.0
O483 O 0.59544 0.20495 0.54456 0.0
O484 O 0.20904 0.49417 0.0585 0.0
Cd485 Cd 0.22558 0.5167 0.05188 0.0
O486 O 0.22802 0.49414 0.07787 0.0
Cd487 Cd 0.24 0.48417 0.09668 0.0
O488 O 0.25721 0.474 0.111 0.0
C489 C 0.25498 0.46023 0.11105 0.0
O490 O 0.24181 0.45227 0.10285 0.0
C491 C 0.21423 0.48828 0.07016 0.0
C492 C 0.21488 0.54065 0.06356 0.0
O493 O 0.20895 0.5349 0.05029 0.0
O494 O 0.22601 0.53516 0.07124 0.0
O495 O 0.26957 0.46657 0.9147 0.0
Cd496 Cd 0.25565 0.48711 0.9163 0.0
O497 O 0.24967 0.45569 0.89726 0.0
Cd498 Cd 0.23405 0.4401 0.87986 0.0
O499 O 0.21265 0.42528 0.8672 0.0
C500 C 0.19855 0.42824 0.86816 0.0
O501 O 0.19776 0.44007 0.87618 0.0
C502 C 0.26339 0.45565 0.90546 0.0
C503 C 0.2714 0.51027 0.90189 0.0
O504 O 0.27589 0.50883 0.91585 0.0
O505 O 0.25933 0.50082 0.89479 0.0
O506 O 0.2703 0.49831 0.5558 0.0
Cd507 Cd 0.25479 0.47336 0.55116 0.0
O508 O 0.25679 0.50243 0.5743 0.0
Cd509 Cd 0.25029 0.51649 0.59162 0.0
O510 O 0.23997 0.53047 0.60621 0.0
C511 C 0.24417 0.54424 0.60646 0.0
O512 O 0.25513 0.54994 0.59811 0.0
C513 C 0.26795 0.50681 0.56631 0.0
C514 C 0.27182 0.45478 0.56734 0.0
O515 O 0.27502 0.45832 0.55432 0.0
O516 O 0.2604 0.45988 0.57266 0.0
O517 O 0.22793 0.53558 0.38927 0.0
Cd518 Cd 0.2484 0.52018 0.38847 0.0
O519 O 0.22653 0.53322 0.41327 0.0
Cd520 Cd 0.23828 0.51433 0.4129 0.0
O521 O 0.23767 0.49147 0.40652 0.0
C522 C 0.22874 0.48651 0.3941 0.0
O523 O 0.22135 0.49541 0.38608 0.0
C524 C 0.22274 0.53922 0.40125 0.0
C525 C 0.27797 0.53773 0.38389 0.0
O526 O 0.26804 0.53045 0.37283 0.0
O527 O 0.2741 0.53641 0.39712 0.0
H528 H 0.13856 0.38776 0.07741 0.0
H529 H 0.13287 0.40988 0.11867 0.0
H530 H 0.10506 0.36668 0.10581 0.0
H531 H 0.08675 0.38882 0.11508 0.0
C532 C 0.09588 0.39446 0.12473 0.0
O533 O 0.11015 0.38892 0.12562 0.0
H534 H 0.09869 0.40624 0.12274 0.0
C535 C 0.13287 0.38787 0.08753 0.0
C536 C 0.12148 0.37561 0.09042 0.0
C537 C 0.13719 0.4002 0.09772 0.0
C538 C 0.12992 0.4003 0.11087 0.0
C539 C 0.11818 0.38829 0.11363 0.0
C540 C 0.11421 0.37588 0.10358 0.0
H541 H 0.86295 0.91136 0.3554 0.0
H542 H 0.86111 0.88902 0.39599 0.0
H543 H 0.90371 0.89214 0.37359 0.0
H544 H 0.89472 0.86336 0.38871 0.0
C545 C 0.88729 0.86761 0.3966 0.0
O546 O 0.89032 0.8826 0.39679 0.0
H547 H 0.87398 0.863 0.39271 0.0
C548 C 0.86843 0.90499 0.36369 0.0
C549 C 0.88427 0.90221 0.36283 0.0
C550 C 0.85989 0.90024 0.37552 0.0
C551 C 0.86744 0.89274 0.38673 0.0
C552 C 0.88313 0.88974 0.3859 0.0
C553 C 0.89154 0.89447 0.37402 0.0
H554 H 0.36321 0.58921 0.61172 0.0
H555 H 0.3549 0.6059 0.5682 0.0
H556 H 0.39674 0.62655 0.60008 0.0
H557 H 0.37975 0.6471 0.58359 0.0
C558 C 0.37457 0.6402 0.57302 0.0
O559 O 0.38041 0.6274 0.57335 0.0
H560 H 0.36086 0.63786 0.57225 0.0
C561 C 0.36693 0.59706 0.60376 0.0
C562 C 0.38128 0.60788 0.60772 0.0
C563 C 0.35739 0.5962 0.58952 0.0
C564 C 0.36217 0.60637 0.57921 0.0
C565 C 0.37616 0.61742 0.58318 0.0
C566 C 0.38575 0.61811 0.59732 0.0
H567 H 0.66087 0.09205 0.88287 0.0
H568 H 0.67002 0.10089 0.93102 0.0
H569 H 0.64758 0.12968 0.90334 0.0
H570 H 0.67437 0.14343 0.92709 0.0
C571 C 0.67156 0.13606 0.93614 0.0
O572 O 0.65858 0.12481 0.93073 0.0
H573 H 0.6828 0.13162 0.93988 0.0
C574 C 0.66023 0.09871 0.89281 0.0
C575 C 0.65313 0.11114 0.89125 0.0
C576 C 0.66651 0.09484 0.90708 0.0
C577 C 0.66557 0.10366 0.91986 0.0
C578 C 0.65888 0.11619 0.91841 0.0
C579 C 0.6526 0.11986 0.9042 0.0
H580 H 0.14136 0.60778 0.37229 0.0
H581 H 0.14571 0.61423 0.42047 0.0
H582 H 0.11203 0.63433 0.39223 0.0
H583 H 0.13023 0.65338 0.4184 0.0
C584 C 0.13323 0.64496 0.42605 0.0
O585 O 0.12453 0.63148 0.42 0.0
H586 H 0.14676 0.64527 0.42712 0.0
C587 C 0.13789 0.61268 0.3822 0.0
C588 C 0.12588 0.62137 0.38051 0.0
C589 C 0.145 0.60984 0.39656 0.0
C590 C 0.14016 0.61604 0.40929 0.0
C591 C 0.12845 0.62498 0.40769 0.0
C592 C 0.12112 0.62744 0.39334 0.0
H593 H 0.68313 0.89613 0.57229 0.0
H594 H 0.65556 0.91537 0.60197 0.0
H595 H 0.64052 0.87023 0.58708 0.0
H596 H 0.61281 0.88343 0.58957 0.0
C597 C 0.61877 0.89305 0.59742 0.0
O598 O 0.63429 0.89139 0.60368 0.0
H599 H 0.61967 0.90289 0.59087 0.0
C600 C 0.67307 0.89505 0.57887 0.0
C601 C 0.66217 0.88156 0.57856 0.0
C602 C 0.67072 0.90733 0.58716 0.0
C603 C 0.65759 0.90599 0.59554 0.0
C604 C 0.64695 0.89256 0.59565 0.0
C605 C 0.64925 0.8804 0.58725 0.0
H606 H 0.34361 0.39494 0.87476 0.0
H607 H 0.33094 0.36879 0.91112 0.0
H608 H 0.37001 0.36102 0.88737 0.0
H609 H 0.35068 0.33358 0.89712 0.0
C610 C 0.3453 0.33872 0.90612 0.0
O611 O 0.35334 0.35301 0.90919 0.0
H612 H 0.33194 0.33809 0.90204 0.0
C613 C 0.34548 0.38611 0.88175 0.0
C614 C 0.35799 0.37842 0.87961 0.0
C615 C 0.33561 0.38274 0.89305 0.0
C616 C 0.33832 0.37148 0.90226 0.0
C617 C 0.35055 0.36357 0.90003 0.0
C618 C 0.36033 0.367 0.88873 0.0
H619 H 0.86183 0.08383 0.09593 0.0
H620 H 0.85074 0.10096 0.05298 0.0
H621 H 0.88921 0.12523 0.0861 0.0
H622 H 0.86696 0.14229 0.07069 0.0
C623 C 0.86423 0.13632 0.05938 0.0
O624 O 0.87272 0.12507 0.05924 0.0
H625 H 0.85069 0.13194 0.05701 0.0
C626 C 0.86434 0.09227 0.08824 0.0
C627 C 0.87686 0.10459 0.09277 0.0
C628 C 0.85488 0.09084 0.0739 0.0
C629 C 0.85806 0.10182 0.06402 0.0
C630 C 0.87026 0.11425 0.06854 0.0
C631 C 0.87971 0.11559 0.08281 0.0
H632 H 0.08408 0.12424 0.35171 0.0
H633 H 0.12723 0.10718 0.36744 0.0
H634 H 0.09727 0.08948 0.3259 0.0
H635 H 0.11053 0.06658 0.34204 0.0
C636 C 0.12008 0.07391 0.35023 0.0
O637 O 0.12309 0.08762 0.345 0.0
H638 H 0.11524 0.07425 0.36116 0.0
C639 C 0.09238 0.11693 0.34999 0.0
C640 C 0.08881 0.1069 0.3373 0.0
C641 C 0.10623 0.1172 0.3609 0.0
C642 C 0.11651 0.10719 0.35914 0.0
C643 C 0.11313 0.0972 0.34658 0.0
C644 C 0.09948 0.09717 0.33564 0.0
H645 H 0.15037 0.90817 0.69446 0.0
H646 H 0.12387 0.8652 0.67801 0.0
H647 H 0.16356 0.88614 0.65626 0.0
H648 H 0.13881 0.86792 0.63488 0.0
C649 C 0.13166 0.86166 0.64284 0.0
O650 O 0.14146 0.86251 0.65663 0.0
H651 H 0.12065 0.86657 0.64388 0.0
C652 C 0.14842 0.8988 0.68647 0.0
C653 C 0.15846 0.89888 0.67512 0.0
C654 C 0.13575 0.88684 0.68757 0.0
C655 C 0.1337 0.87449 0.67757 0.0
C656 C 0.1439 0.87425 0.66649 0.0
C657 C 0.15623 0.88637 0.66528 0.0
H658 H 0.34811 0.88747 0.88154 0.0
H659 H 0.37636 0.86788 0.85265 0.0
H660 H 0.38975 0.91355 0.86582 0.0
H661 H 0.39217 0.90643 0.8345 0.0
C662 C 0.39447 0.89516 0.83524 0.0
O663 O 0.39687 0.89204 0.8501 0.0
H664 H 0.38343 0.88759 0.82903 0.0
C665 C 0.35811 0.88836 0.87491 0.0
C666 C 0.36842 0.90197 0.87448 0.0
C667 C 0.36083 0.87589 0.86718 0.0
C668 C 0.37416 0.87723 0.85897 0.0
C669 C 0.38449 0.89079 0.85848 0.0
C670 C 0.38176 0.90309 0.86637 0.0
H671 H 0.38463 0.10974 0.16328 0.0
H672 H 0.41356 0.14709 0.14679 0.0
H673 H 0.36264 0.13256 0.12799 0.0
H674 H 0.38668 0.14019 0.10678 0.0
C675 C 0.3941 0.15034 0.11305 0.0
O676 O 0.38942 0.1519 0.12705 0.0
H677 H 0.40733 0.14949 0.11432 0.0
C678 C 0.38552 0.11871 0.15605 0.0
C679 C 0.3717 0.12004 0.14576 0.0
C680 C 0.40073 0.12831 0.15648 0.0
C681 C 0.40196 0.13952 0.1466 0.0
C682 C 0.38821 0.14102 0.1364 0.0
C683 C 0.37316 0.1313 0.13597 0.0
H684 H 0.1513 0.89491 0.1527 0.0
H685 H 0.10835 0.87876 0.17331 0.0
H686 H 0.12992 0.92432 0.17816 0.0
H687 H 0.11911 0.91087 0.20549 0.0
C688 C 0.10749 0.90358 0.19996 0.0
O689 O 0.10602 0.90425 0.1846 0.0
H690 H 0.10801 0.89228 0.20293 0.0
C691 C 0.14224 0.89668 0.15978 0.0
C692 C 0.14238 0.9109 0.16541 0.0
C693 C 0.13002 0.88492 0.16244 0.0
C694 C 0.1179 0.8876 0.17103 0.0
C695 C 0.11798 0.90176 0.17672 0.0
C696 C 0.1301 0.9134 0.17382 0.0
H697 H 0.35223 0.8344 0.33307 0.0
H698 H 0.3276 0.86924 0.31976 0.0
H699 H 0.33688 0.86116 0.36638 0.0
H700 H 0.30405 0.86862 0.35667 0.0
C701 C 0.30728 0.87553 0.34737 0.0
O702 O 0.32404 0.87744 0.34704 0.0
H703 H 0.30031 0.86994 0.3366 0.0
C704 C 0.3464 0.84334 0.33595 0.0
C705 C 0.34532 0.84675 0.35107 0.0
C706 C 0.34013 0.85139 0.32453 0.0
C707 C 0.33247 0.86285 0.32838 0.0
C708 C 0.33128 0.8663 0.34344 0.0
C709 C 0.33783 0.85837 0.35476 0.0
H710 H 0.38022 0.11585 0.63176 0.0
H711 H 0.43076 0.13102 0.65244 0.0
H712 H 0.40079 0.09468 0.66907 0.0
H713 H 0.42277 0.11127 0.69387 0.0
C714 C 0.43037 0.1188 0.68719 0.0
O715 O 0.42959 0.11225 0.673 0.0
H716 H 0.4252 0.12892 0.68658 0.0
C717 C 0.39067 0.11488 0.63997 0.0
C718 C 0.38872 0.10399 0.65015 0.0
C719 C 0.4058 0.12467 0.6405 0.0
C720 C 0.419 0.12356 0.65164 0.0
C721 C 0.41712 0.11278 0.66189 0.0
C722 C 0.40214 0.10285 0.66095 0.0
H723 H 0.13586 0.15799 0.90794 0.0
H724 H 0.16229 0.12321 0.90328 0.0
H725 H 0.17164 0.15034 0.94441 0.0
H726 H 0.20264 0.13945 0.93777 0.0
C727 C 0.19581 0.13138 0.92856 0.0
O728 O 0.17934 0.12819 0.93019 0.0
H729 H 0.1975 0.1363 0.9177 0.0
C730 C 0.14506 0.15195 0.91248 0.0
C731 C 0.1535 0.15573 0.92713 0.0
C732 C 0.14805 0.1402 0.90379 0.0
C733 C 0.15993 0.13241 0.90976 0.0
C734 C 0.16842 0.13611 0.92436 0.0
C735 C 0.16512 0.14766 0.93307 0.0
H736 H 0.85623 0.33795 0.83294 0.0
H737 H 0.83059 0.36885 0.81102 0.0
H738 H 0.83472 0.36692 0.85889 0.0
H739 H 0.80241 0.37094 0.84516 0.0
C740 C 0.80574 0.37649 0.83503 0.0
O741 O 0.82268 0.37954 0.83569 0.0
H742 H 0.79998 0.36903 0.82495 0.0
C743 C 0.8494 0.34667 0.83346 0.0
C744 C 0.84614 0.35167 0.84744 0.0
C745 C 0.84404 0.35285 0.82022 0.0
C746 C 0.83489 0.36392 0.82108 0.0
C747 C 0.83148 0.3689 0.83499 0.0
C748 C 0.83733 0.36295 0.84817 0.0
H749 H 0.86571 0.63404 0.11811 0.0
H750 H 0.91718 0.65165 0.13402 0.0
H751 H 0.89056 0.61857 0.15747 0.0
H752 H 0.91247 0.64122 0.17749 0.0
C753 C 0.92168 0.64518 0.17001 0.0
O754 O 0.91879 0.63598 0.15713 0.0
H755 H 0.92032 0.65636 0.16713 0.0
C756 C 0.87683 0.63426 0.12599 0.0
C757 C 0.87635 0.6249 0.13776 0.0
C758 C 0.89148 0.64403 0.12446 0.0
C759 C 0.90571 0.64431 0.13494 0.0
C760 C 0.90525 0.63519 0.1468 0.0
C761 C 0.89072 0.62543 0.1481 0.0
H762 H 0.64864 0.67115 0.39072 0.0
H763 H 0.67146 0.63427 0.38446 0.0
H764 H 0.68004 0.6581 0.42754 0.0
H765 H 0.70973 0.64895 0.42034 0.0
C766 C 0.70396 0.64 0.41162 0.0
O767 O 0.68719 0.63656 0.41193 0.0
H768 H 0.70647 0.64389 0.4005 0.0
C769 C 0.65681 0.6641 0.39509 0.0
C770 C 0.6641 0.66613 0.41023 0.0
C771 C 0.65923 0.65256 0.38573 0.0
C772 C 0.66937 0.64318 0.39155 0.0
C773 C 0.67703 0.64534 0.40654 0.0
C774 C 0.67419 0.65664 0.41592 0.0
H775 H 0.85221 0.39528 0.36462 0.0
H776 H 0.87933 0.3719 0.338 0.0
H777 H 0.88913 0.41856 0.34082 0.0
H778 H 0.89201 0.40607 0.31039 0.0
C779 C 0.89308 0.39496 0.31365 0.0
O780 O 0.89679 0.39517 0.32907 0.0
H781 H 0.88103 0.38753 0.30956 0.0
C782 C 0.86147 0.39522 0.35728 0.0
C783 C 0.87024 0.40851 0.35343 0.0
C784 C 0.86464 0.3819 0.35189 0.0
C785 C 0.87656 0.38201 0.34224 0.0
C786 C 0.88525 0.39521 0.33822 0.0
C787 C 0.88224 0.40842 0.34393 0.0
H788 H 0.59236 0.63268 0.84912 0.0
H789 H 0.63247 0.61164 0.86483 0.0
H790 H 0.60138 0.59598 0.82326 0.0
H791 H 0.61261 0.57207 0.83864 0.0
C792 C 0.62277 0.57872 0.84682 0.0
O793 O 0.62688 0.59248 0.84192 0.0
H794 H 0.61829 0.57924 0.85789 0.0
C795 C 0.59949 0.62435 0.84759 0.0
C796 C 0.59513 0.61455 0.83472 0.0
C797 C 0.61282 0.62338 0.85865 0.0
C798 C 0.62202 0.61254 0.85658 0.0
C799 C 0.61789 0.6028 0.8438 0.0
C800 C 0.60454 0.60381 0.83292 0.0
H801 H 0.88952 0.5971 0.91644 0.0
H802 H 0.91443 0.58855 0.87921 0.0
H803 H 0.93925 0.61981 0.91517 0.0
H804 H 0.94785 0.62894 0.88732 0.0
C805 C 0.94351 0.61857 0.88018 0.0
O806 O 0.9417 0.60718 0.88939 0.0
H807 H 0.93146 0.61907 0.87336 0.0
C808 C 0.90038 0.59919 0.91089 0.0
C809 C 0.9143 0.60948 0.91757 0.0
C810 C 0.90019 0.59164 0.89703 0.0
C811 C 0.91441 0.59405 0.89004 0.0
C812 C 0.92847 0.60413 0.89668 0.0
C813 C 0.92846 0.61172 0.91045 0.0
H814 H 0.12285 0.09452 0.65527 0.0
H815 H 0.12791 0.10872 0.61101 0.0
H816 H 0.10129 0.13029 0.6392 0.0
H817 H 0.08681 0.13005 0.60791 0.0
C818 C 0.09698 0.12666 0.60272 0.0
O819 O 0.11121 0.12932 0.61308 0.0
H820 H 0.09335 0.11481 0.59924 0.0
C821 C 0.12038 0.10171 0.64653 0.0
C822 C 0.11101 0.11238 0.64898 0.0
C823 C 0.12679 0.10037 0.63298 0.0
C824 C 0.12336 0.10964 0.62164 0.0
C825 C 0.11406 0.12025 0.62393 0.0
C826 C 0.10809 0.12173 0.63756 0.0
H827 H 0.67166 0.44019 0.42746 0.0
H828 H 0.69503 0.42654 0.46868 0.0
H829 H 0.64639 0.40456 0.44938 0.0
H830 H 0.65365 0.41421 0.48209 0.0
C831 C 0.66378 0.40802 0.48433 0.0
O832 O 0.67038 0.40558 0.47144 0.0
H833 H 0.67357 0.41462 0.49288 0.0
C834 C 0.67126 0.43327 0.43678 0.0
C835 C 0.65724 0.42232 0.43708 0.0
C836 C 0.68511 0.4348 0.44802 0.0
C837 C 0.68458 0.4255 0.45983 0.0
C838 C 0.67062 0.41471 0.46027 0.0
C839 C 0.65708 0.41303 0.44889 0.0
H840 H 0.32715 0.90135 0.09267 0.0
H841 H 0.32229 0.90804 0.04539 0.0
H842 H 0.3327 0.86771 0.06073 0.0
H843 H 0.35128 0.87998 0.03737 0.0
C844 C 0.34113 0.88369 0.03017 0.0
O845 O 0.32733 0.88237 0.03724 0.0
H846 H 0.34549 0.8953 0.02816 0.0
C847 C 0.32753 0.89753 0.08121 0.0
C848 C 0.33048 0.88349 0.07825 0.0
C849 C 0.32452 0.90649 0.06947 0.0
C850 C 0.32475 0.90137 0.05463 0.0
C851 C 0.32794 0.8875 0.05159 0.0
C852 C 0.33077 0.87859 0.06334 0.0
H853 H 0.81082 0.39426 0.60494 0.0
H854 H 0.79849 0.40351 0.55888 0.0
H855 H 0.81899 0.36585 0.56892 0.0
H856 H 0.83335 0.38503 0.54656 0.0
C857 C 0.82145 0.38634 0.53999 0.0
O858 O 0.80845 0.38111 0.5475 0.0
H859 H 0.82211 0.39815 0.53862 0.0
C860 C 0.81022 0.3914 0.59305 0.0
C861 C 0.81557 0.37884 0.58831 0.0
C862 C 0.80399 0.40029 0.58251 0.0
C863 C 0.80324 0.3967 0.56712 0.0
C864 C 0.80895 0.38443 0.56231 0.0
C865 C 0.81499 0.37549 0.57285 0.0
H866 H 0.39432 0.10726 0.41886 0.0
H867 H 0.41154 0.10845 0.37587 0.0
H868 H 0.437 0.13887 0.41219 0.0
H869 H 0.44006 0.1523 0.38089 0.0
C870 C 0.43253 0.14189 0.37535 0.0
O871 O 0.4357 0.13061 0.38391 0.0
H872 H 0.41932 0.14288 0.37447 0.0
C873 C 0.40327 0.11175 0.41178 0.0
C874 C 0.41603 0.12355 0.41754 0.0
C875 C 0.40143 0.10619 0.39675 0.0
C876 C 0.41263 0.11256 0.38747 0.0
C877 C 0.42528 0.12437 0.39305 0.0
C878 C 0.42704 0.12979 0.40804 0.0
H879 H 0.63563 0.60766 0.1697 0.0
H880 H 0.64786 0.61049 0.12474 0.0
H881 H 0.61203 0.63347 0.13856 0.0
H882 H 0.60341 0.61951 0.10795 0.0
C883 C 0.61601 0.62044 0.10483 0.0
O884 O 0.62761 0.62764 0.11645 0.0
H885 H 0.61813 0.60924 0.10256 0.0
C886 C 0.63426 0.61197 0.15872 0.0
C887 C 0.62296 0.62118 0.15555 0.0
C888 C 0.64325 0.60784 0.14768 0.0
C889 C 0.64091 0.61326 0.13339 0.0
C890 C 0.62962 0.62239 0.13015 0.0
C891 C 0.62064 0.6263 0.14118 0.0
H892 H 0.15598 0.92991 0.90829 0.0
H893 H 0.17258 0.9118 0.94955 0.0
H894 H 0.12846 0.89004 0.92146 0.0
H895 H 0.12626 0.89293 0.95332 0.0
C896 C 0.13874 0.89117 0.95803 0.0
O897 O 0.1479 0.88978 0.94662 0.0
H898 H 0.14489 0.90081 0.96579 0.0
C899 C 0.15445 0.92158 0.91621 0.0
C900 C 0.14093 0.90981 0.91316 0.0
C901 C 0.16607 0.92249 0.92933 0.0
C902 C 0.16376 0.91155 0.93948 0.0
C903 C 0.15018 0.90002 0.93664 0.0
C904 C 0.13893 0.89907 0.92348 0.0
H905 H 0.89679 0.86299 0.66322 0.0
H906 H 0.86023 0.88454 0.6407 0.0
H907 H 0.88111 0.89797 0.68641 0.0
H908 H 0.8448 0.90292 0.67937 0.0
C909 C 0.84432 0.90009 0.66718 0.0
O910 O 0.86017 0.90239 0.6637 0.0
H911 H 0.83812 0.88844 0.66482 0.0
C912 C 0.88902 0.87101 0.66347 0.0
C913 C 0.89035 0.88018 0.67658 0.0
C914 C 0.87841 0.87259 0.65038 0.0
C915 C 0.86844 0.88306 0.65068 0.0
C916 C 0.8692 0.89188 0.66379 0.0
C917 C 0.88015 0.89052 0.67665 0.0
H918 H 0.82707 0.08335 0.33702 0.0
H919 H 0.83262 0.13 0.34076 0.0
H920 H 0.79659 0.10387 0.36277 0.0
H921 H 0.78345 0.12662 0.34888 0.0
C922 C 0.79509 0.13402 0.34726 0.0
O923 O 0.80826 0.13008 0.35599 0.0
H924 H 0.79639 0.13289 0.33513 0.0
C925 C 0.82379 0.09304 0.34172 0.0
C926 C 0.81094 0.09172 0.35054 0.0
C927 C 0.83188 0.10679 0.33821 0.0
C928 C 0.82677 0.11929 0.34343 0.0
C929 C 0.81392 0.1181 0.35204 0.0
C930 C 0.80633 0.10445 0.35588 0.0
H931 H 0.63561 0.14097 0.14165 0.0
H932 H 0.67359 0.13214 0.11679 0.0
H933 H 0.65384 0.10113 0.14633 0.0
H934 H 0.6896 0.10526 0.14811 0.0
C935 C 0.69092 0.10813 0.13642 0.0
O936 O 0.67554 0.10731 0.12816 0.0
H937 H 0.6982 0.11944 0.13697 0.0
C938 C 0.64355 0.13378 0.13859 0.0
C939 C 0.64308 0.12043 0.14522 0.0
C940 C 0.65427 0.13807 0.12814 0.0
C941 C 0.66525 0.12913 0.12486 0.0
C942 C 0.66521 0.11599 0.13165 0.0
C943 C 0.65405 0.11158 0.14162 0.0
H944 H 0.61821 0.8813 0.83483 0.0
H945 H 0.58945 0.83765 0.82896 0.0
H946 H 0.62913 0.84952 0.86574 0.0
H947 H 0.62649 0.82268 0.84331 0.0
C948 C 0.61368 0.81784 0.8451 0.0
O949 O 0.60654 0.82815 0.85168 0.0
H950 H 0.60644 0.81391 0.83388 0.0
C951 C 0.61568 0.87032 0.83841 0.0
C952 C 0.62512 0.86674 0.85133 0.0
C953 C 0.60264 0.85997 0.83037 0.0
C954 C 0.59927 0.84584 0.83521 0.0
C955 C 0.60903 0.84204 0.84776 0.0
C956 C 0.62173 0.85253 0.85597 0.0
H957 H 0.86251 0.14 0.88489 0.0
H958 H 0.90537 0.15251 0.86296 0.0
H959 H 0.8763 0.10947 0.85422 0.0
H960 H 0.91112 0.1106 0.86013 0.0
C961 C 0.91587 0.12103 0.85532 0.0
O962 O 0.90284 0.12701 0.84912 0.0
H963 H 0.92353 0.12852 0.86466 0.0
C964 C 0.87043 0.13754 0.87694 0.0
C965 C 0.86749 0.12349 0.86969 0.0
C966 C 0.88409 0.14816 0.87466 0.0
C967 C 0.89474 0.14458 0.86488 0.0
C968 C 0.89192 0.13064 0.85767 0.0
C969 C 0.87826 0.12022 0.85991 0.0
H970 H 0.6689 0.18173 0.64097 0.0
H971 H 0.69431 0.15031 0.66218 0.0
H972 H 0.69282 0.15481 0.61496 0.0
H973 H 0.6823 0.12525 0.63205 0.0
C974 C 0.69566 0.12653 0.6366 0.0
O975 O 0.70345 0.14099 0.63767 0.0
H976 H 0.69647 0.12245 0.64801 0.0
C977 C 0.67638 0.17351 0.64042 0.0
C978 C 0.6804 0.16927 0.62645 0.0
C979 C 0.68103 0.16663 0.65344 0.0
C980 C 0.69079 0.15604 0.65246 0.0
C981 C 0.69505 0.15188 0.63863 0.0
C982 C 0.68978 0.15839 0.62566 0.0
H983 H 0.59145 0.85234 0.35926 0.0
H984 H 0.54107 0.82947 0.34781 0.0
H985 H 0.55774 0.86867 0.32685 0.0
H986 H 0.52433 0.8659 0.33422 0.0
C987 C 0.52047 0.85383 0.33333 0.0
O988 O 0.53264 0.8476 0.32835 0.0
H989 H 0.51842 0.85032 0.34469 0.0
C990 C 0.57923 0.85143 0.35289 0.0
C991 C 0.57618 0.86206 0.34296 0.0
C992 C 0.56671 0.83962 0.35475 0.0
C993 C 0.5509 0.83851 0.34656 0.0
C994 C 0.54776 0.84896 0.33648 0.0
C995 C 0.56038 0.86064 0.33462 0.0
H996 H 0.86341 0.91937 0.13056 0.0
H997 H 0.88969 0.8842 0.13612 0.0
H998 H 0.85325 0.88282 0.09752 0.0
H999 H 0.85097 0.85716 0.11443 0.0
C1000 C 0.86415 0.85612 0.11539 0.0
O1001 O 0.87378 0.86882 0.11188 0.0
H1002 H 0.86847 0.854 0.12718 0.0
C1003 C 0.86588 0.90912 0.12637 0.0
C1004 C 0.8567 0.902 0.11289 0.0
C1005 C 0.87795 0.90291 0.1348 0.0
C1006 C 0.88049 0.88922 0.12983 0.0
C1007 C 0.87139 0.88203 0.11653 0.0
C1008 C 0.8598 0.88848 0.10798 0.0
H1009 H 0.16758 0.67905 0.14152 0.0
H1010 H 0.16884 0.63339 0.14266 0.0
H1011 H 0.18469 0.6568 0.10582 0.0
H1012 H 0.16274 0.6281 0.09872 0.0
C1013 C 0.16835 0.62212 0.10783 0.0
O1014 O 0.18046 0.63158 0.11736 0.0
H1015 H 0.15838 0.61719 0.11416 0.0
C1016 C 0.17046 0.66924 0.13667 0.0
C1017 C 0.1765 0.66958 0.12284 0.0
C1018 C 0.16749 0.65625 0.14397 0.0
C1019 C 0.17128 0.64362 0.13748 0.0
C1020 C 0.17747 0.6439 0.12379 0.0
C1021 C 0.18007 0.65681 0.1165 0.0
H1022 H 0.10774 0.34367 0.86664 0.0
H1023 H 0.05612 0.32501 0.85406 0.0
H1024 H 0.0796 0.35843 0.82874 0.0
H1025 H 0.04686 0.36167 0.83401 0.0
C1026 C 0.04119 0.35012 0.83514 0.0
O1027 O 0.05175 0.34124 0.8316 0.0
H1028 H 0.03904 0.34909 0.84702 0.0
C1029 C 0.09624 0.34295 0.85915 0.0
C1030 C 0.09557 0.35218 0.84731 0.0
C1031 C 0.08214 0.33311 0.86176 0.0
C1032 C 0.06722 0.33234 0.85213 0.0
C1033 C 0.06635 0.34154 0.84033 0.0
C1034 C 0.08049 0.35137 0.83788 0.0
H1035 H 0.34857 0.4021 0.64102 0.0
H1036 H 0.36049 0.35933 0.63983 0.0
H1037 H 0.32447 0.36963 0.60557 0.0
H1038 H 0.3168 0.33822 0.61331 0.0
C1039 C 0.32954 0.33773 0.61857 0.0
O1040 O 0.34045 0.34968 0.61516 0.0
H1041 H 0.32968 0.33759 0.63095 0.0
C1042 C 0.34693 0.39123 0.63568 0.0
C1043 C 0.33542 0.38712 0.62253 0.0
C1044 C 0.35587 0.38122 0.64221 0.0
C1045 C 0.35346 0.36713 0.63522 0.0
C1046 C 0.34212 0.36302 0.62211 0.0
C1047 C 0.33306 0.37293 0.61585 0.0
H1048 H 0.11909 0.62946 0.66495 0.0
H1049 H 0.15571 0.61982 0.63879 0.0
H1050 H 0.15091 0.60029 0.68051 0.0
H1051 H 0.18559 0.60713 0.67473 0.0
C1052 C 0.18311 0.60752 0.66231 0.0
O1053 O 0.16664 0.60197 0.65727 0.0
H1054 H 0.1864 0.6191 0.65966 0.0
C1055 C 0.12907 0.62387 0.66348 0.0
C1056 C 0.13402 0.61472 0.67444 0.0
C1057 C 0.1368 0.62587 0.6506 0.0
C1058 C 0.14968 0.61857 0.64871 0.0
C1059 C 0.15464 0.60934 0.65947 0.0
C1060 C 0.14684 0.60741 0.67226 0.0
H1061 H 0.40203 0.38284 0.15024 0.0
H1062 H 0.35616 0.39477 0.13247 0.0
H1063 H 0.38605 0.41873 0.17138 0.0
H1064 H 0.35026 0.41711 0.17253 0.0
C1065 C 0.34595 0.41307 0.16059 0.0
O1066 O 0.35888 0.41639 0.15246 0.0
H1067 H 0.3415 0.40107 0.16028 0.0
C1068 C 0.39302 0.38971 0.1508 0.0
C1069 C 0.39586 0.401 0.16223 0.0
C1070 C 0.37873 0.38728 0.14 0.0
C1071 C 0.36739 0.39654 0.14052 0.0
C1072 C 0.37012 0.40784 0.1518 0.0
C1073 C 0.38433 0.41011 0.16256 0.0
H1074 H 0.59 0.39708 0.20956 0.0
H1075 H 0.56646 0.35229 0.19865 0.0
H1076 H 0.60483 0.37186 0.17447 0.0
H1077 H 0.57395 0.35525 0.15756 0.0
C1078 C 0.57448 0.34507 0.16335 0.0
O1079 O 0.58399 0.34807 0.17736 0.0
H1080 H 0.56172 0.33985 0.1648 0.0
C1081 C 0.58858 0.38708 0.20258 0.0
C1082 C 0.59892 0.38617 0.19161 0.0
C1083 C 0.5769 0.37494 0.20518 0.0
C1084 C 0.57538 0.36175 0.19668 0.0
C1085 C 0.58542 0.36077 0.18557 0.0
C1086 C 0.5972 0.37287 0.18313 0.0
H1087 H 0.90761 0.62035 0.6636 0.0
H1088 H 0.93124 0.66411 0.65742 0.0
H1089 H 0.88338 0.64623 0.63279 0.0
H1090 H 0.9067 0.66335 0.61566 0.0
C1091 C 0.9134 0.67172 0.62467 0.0
O1092 O 0.9071 0.66915 0.63789 0.0
H1093 H 0.92668 0.67095 0.6262 0.0
C1094 C 0.90757 0.63031 0.65797 0.0
C1095 C 0.89375 0.63168 0.64768 0.0
C1096 C 0.92119 0.64188 0.66153 0.0
C1097 C 0.92084 0.65506 0.65483 0.0
C1098 C 0.90723 0.65652 0.64447 0.0
C1099 C 0.89374 0.64491 0.64093 0.0
H1100 H 0.61178 0.3554 0.59891 0.0
H1101 H 0.56486 0.34037 0.61367 0.0
H1102 H 0.59414 0.38179 0.63101 0.0
H1103 H 0.57991 0.36185 0.6529 0.0
C1104 C 0.56729 0.35837 0.64639 0.0
O1105 O 0.56693 0.36313 0.6321 0.0
H1106 H 0.56417 0.34627 0.6457 0.0
C1107 C 0.60229 0.35716 0.60548 0.0
C1108 C 0.60472 0.37003 0.61483 0.0
C1109 C 0.58797 0.34633 0.60492 0.0
C1110 C 0.57606 0.34847 0.61398 0.0
C1111 C 0.57844 0.36117 0.62343 0.0
C1112 C 0.59266 0.37192 0.6238 0.0
H1113 H 0.34798 0.58351 0.84315 0.0
H1114 H 0.35197 0.62847 0.8333 0.0
H1115 H 0.31358 0.60855 0.85708 0.0
H1116 H 0.30518 0.62622 0.83075 0.0
C1117 C 0.31557 0.63568 0.83405 0.0
O1118 O 0.32649 0.63232 0.84568 0.0
H1119 H 0.32199 0.63812 0.82415 0.0
C1120 C 0.34363 0.59366 0.84383 0.0
C1121 C 0.32981 0.59447 0.85099 0.0
C1122 C 0.35179 0.60588 0.83744 0.0
C1123 C 0.34603 0.61898 0.83834 0.0
C1124 C 0.33218 0.6198 0.84523 0.0
C1125 C 0.32414 0.60763 0.85158 0.0
H1126 H 0.1698 0.38826 0.34663 0.0
H1127 H 0.15544 0.34317 0.35506 0.0
H1128 H 0.19775 0.36985 0.38205 0.0
H1129 H 0.20115 0.33729 0.37817 0.0
C1130 C 0.18795 0.33365 0.37324 0.0
O1131 O 0.17912 0.34382 0.37739 0.0
H1132 H 0.18731 0.33248 0.36079 0.0
C1133 C 0.1721 0.37895 0.3527 0.0
C1134 C 0.18526 0.38074 0.36461 0.0
C1135 C 0.1612 0.36548 0.34917 0.0
C1136 C 0.16373 0.35365 0.35757 0.0
C1137 C 0.17701 0.35522 0.36924 0.0
C1138 C 0.18769 0.36873 0.37281 0.0
H1139 H 0.37369 0.62699 0.38291 0.0
H1140 H 0.41387 0.6413 0.35814 0.0
H1141 H 0.38194 0.59976 0.34611 0.0
H1142 H 0.41443 0.59787 0.34045 0.0
C1143 C 0.42009 0.60964 0.34255 0.0
O1144 O 0.40788 0.61771 0.34013 0.0
H1145 H 0.42628 0.61139 0.35446 0.0
C1146 C 0.38089 0.6251 0.37412 0.0
C1147 C 0.37631 0.61205 0.36495 0.0
C1148 C 0.39425 0.63591 0.37165 0.0
C1149 C 0.40328 0.63331 0.36005 0.0
C1150 C 0.39883 0.62029 0.35094 0.0
C1151 C 0.38521 0.60982 0.35321 0.0
H1152 H 0.20957 0.4809 0.0984 0.0
H1153 H 0.19612 0.46559 0.05166 0.0
H1154 H 0.19122 0.45965 0.10541 0.0
H1155 H 0.17844 0.44391 0.05856 0.0
H1156 H 0.13429 0.4153 0.07288 0.0
H1157 H 0.15332 0.43642 0.06659 0.0
H1158 H 0.18584 0.43473 0.10801 0.0
H1159 H 0.16609 0.41409 0.11459 0.0
C1160 C 0.20299 0.47276 0.08966 0.0
C1161 C 0.2043 0.47481 0.07451 0.0
C1162 C 0.19245 0.46054 0.09366 0.0
C1163 C 0.18317 0.45 0.08257 0.0
C1164 C 0.18498 0.45192 0.06742 0.0
C1165 C 0.19525 0.46428 0.06343 0.0
C1166 C 0.14551 0.41953 0.08062 0.0
C1167 C 0.14879 0.41314 0.09419 0.0
C1168 C 0.15653 0.43156 0.07698 0.0
C1169 C 0.17132 0.43729 0.08668 0.0
C1170 C 0.17453 0.43082 0.10033 0.0
C1171 C 0.16329 0.41895 0.1041 0.0
H1172 H 0.75733 0.91044 0.35862 0.0
H1173 H 0.78378 0.94812 0.38724 0.0
H1174 H 0.78189 0.89977 0.36167 0.0
H1175 H 0.80848 0.93756 0.39001 0.0
H1176 H 0.84787 0.91053 0.39984 0.0
H1177 H 0.82127 0.91789 0.40007 0.0
H1178 H 0.80821 0.90512 0.3526 0.0
H1179 H 0.83442 0.89738 0.3525 0.0
C1180 C 0.76836 0.91643 0.36562 0.0
C1181 C 0.76863 0.93021 0.37257 0.0
C1182 C 0.78246 0.91032 0.36733 0.0
C1183 C 0.79718 0.91787 0.37597 0.0
C1184 C 0.79729 0.9314 0.38339 0.0
C1185 C 0.78315 0.9375 0.38172 0.0
C1186 C 0.83915 0.90906 0.38954 0.0
C1187 C 0.84325 0.90349 0.37612 0.0
C1188 C 0.82401 0.91339 0.38964 0.0
C1189 C 0.81266 0.91215 0.37634 0.0
C1190 C 0.81657 0.90609 0.36307 0.0
C1191 C 0.83168 0.9018 0.36297 0.0
H1192 H 0.2809 0.52098 0.59359 0.0
H1193 H 0.27953 0.52512 0.54595 0.0
H1194 H 0.30119 0.54357 0.59873 0.0
H1195 H 0.29931 0.54813 0.55095 0.0
H1196 H 0.35039 0.57699 0.56492 0.0
H1197 H 0.32735 0.5564 0.55904 0.0
H1198 H 0.30775 0.56882 0.59869 0.0
H1199 H 0.33139 0.58895 0.60488 0.0
C1200 C 0.28455 0.52701 0.58422 0.0
C1201 C 0.27857 0.5214 0.56938 0.0
C1202 C 0.29623 0.53999 0.58714 0.0
C1203 C 0.30204 0.54774 0.57527 0.0
C1204 C 0.29546 0.54234 0.5604 0.0
C1205 C 0.28401 0.52923 0.5575 0.0
C1206 C 0.34105 0.57533 0.57227 0.0
C1207 C 0.34266 0.58446 0.58537 0.0
C1208 C 0.32775 0.56359 0.56888 0.0
C1209 C 0.3156 0.56085 0.57839 0.0
C1210 C 0.317 0.57035 0.59126 0.0
C1211 C 0.33047 0.58194 0.59478 0.0
H1212 H 0.70854 0.02074 0.9372 0.0
H1213 H 0.71464 0.02275 0.89046 0.0
H1214 H 0.6954 0.04204 0.93563 0.0
H1215 H 0.70133 0.04386 0.88885 0.0
H1216 H 0.65751 0.06858 0.89029 0.0
H1217 H 0.6709 0.04764 0.89219 0.0
H1218 H 0.70571 0.06996 0.92968 0.0
H1219 H 0.69305 0.09131 0.92735 0.0
C1220 C 0.70709 0.02577 0.92663 0.0
C1221 C 0.71279 0.02028 0.914 0.0
C1222 C 0.69965 0.03793 0.92575 0.0
C1223 C 0.69741 0.04454 0.91213 0.0
C1224 C 0.70292 0.03893 0.89947 0.0
C1225 C 0.71066 0.02697 0.90043 0.0
C1226 C 0.66818 0.06919 0.8988 0.0
C1227 C 0.6742 0.08176 0.90861 0.0
C1228 C 0.67575 0.05713 0.89993 0.0
C1229 C 0.68929 0.05724 0.91108 0.0
C1230 C 0.69517 0.0696 0.92107 0.0
C1231 C 0.68782 0.08178 0.91977 0.0
H1232 H 0.20959 0.55181 0.37693 0.0
H1233 H 0.21178 0.55147 0.42514 0.0
H1234 H 0.19142 0.56926 0.37642 0.0
H1235 H 0.19395 0.56931 0.42468 0.0
H1236 H 0.14645 0.58779 0.41519 0.0
H1237 H 0.1658 0.57121 0.41677 0.0
H1238 H 0.19094 0.59404 0.38327 0.0
H1239 H 0.17137 0.61039 0.38152 0.0
C1240 C 0.20632 0.55556 0.38745 0.0
C1241 C 0.21212 0.55021 0.40107 0.0
C1242 C 0.19597 0.56566 0.38717 0.0
C1243 C 0.19123 0.57073 0.40052 0.0
C1244 C 0.19717 0.56549 0.41417 0.0
C1245 C 0.20746 0.55532 0.41444 0.0
C1246 C 0.15622 0.58933 0.40829 0.0
C1247 C 0.15735 0.60032 0.39816 0.0
C1248 C 0.16734 0.57986 0.40921 0.0
C1249 C 0.17989 0.58123 0.40009 0.0
C1250 C 0.18123 0.59247 0.39024 0.0
C1251 C 0.17005 0.60187 0.38925 0.0
H1252 H 0.71724 0.98776 0.55478 0.0
H1253 H 0.74561 0.98713 0.59853 0.0
H1254 H 0.69929 0.96489 0.55881 0.0
H1255 H 0.72827 0.96389 0.60216 0.0
H1256 H 0.70439 0.91406 0.59175 0.0
H1257 H 0.72213 0.93751 0.58898 0.0
H1258 H 0.67893 0.95616 0.57755 0.0
H1259 H 0.66121 0.93277 0.58046 0.0
C1260 C 0.71977 0.98267 0.56518 0.0
C1261 C 0.73326 0.98898 0.57609 0.0
C1262 C 0.70949 0.96961 0.56748 0.0
C1263 C 0.71255 0.96257 0.58071 0.0
C1264 C 0.72588 0.96896 0.59172 0.0
C1265 C 0.73599 0.98214 0.58952 0.0
C1266 C 0.69874 0.92322 0.58873 0.0
C1267 C 0.68148 0.92166 0.58634 0.0
C1268 C 0.70885 0.93661 0.58721 0.0
C1269 C 0.70186 0.94859 0.583 0.0
C1270 C 0.6846 0.94705 0.58071 0.0
C1271 C 0.6745 0.93374 0.58248 0.0
H1272 H 0.25247 0.42778 0.89166 0.0
H1273 H 0.29526 0.45602 0.91723 0.0
H1274 H 0.26864 0.409 0.88903 0.0
H1275 H 0.31116 0.43704 0.91503 0.0
H1276 H 0.33078 0.39524 0.91959 0.0
H1277 H 0.31191 0.41167 0.92332 0.0
H1278 H 0.29347 0.40659 0.8758 0.0
H1279 H 0.31229 0.39011 0.87208 0.0
C1280 C 0.2653 0.43013 0.89654 0.0
C1281 C 0.27259 0.44364 0.90429 0.0
C1282 C 0.27453 0.41926 0.89518 0.0
C1283 C 0.29116 0.42158 0.9018 0.0
C1284 C 0.29832 0.43489 0.90992 0.0
C1285 C 0.28918 0.44579 0.91111 0.0
C1286 C 0.32249 0.39745 0.91 0.0
C1287 C 0.32304 0.39148 0.89554 0.0
C1288 C 0.31179 0.40692 0.91211 0.0
C1289 C 0.3013 0.41045 0.89983 0.0
C1290 C 0.30135 0.40399 0.88547 0.0
C1291 C 0.31219 0.39466 0.88333 0.0
H1292 H 0.78072 0.01791 0.02781 0.0
H1293 H 0.78343 0.01133 0.07511 0.0
H1294 H 0.80026 0.04108 0.03364 0.0
H1295 H 0.80329 0.03404 0.08102 0.0
H1296 H 0.82958 0.08059 0.08909 0.0
H1297 H 0.80753 0.05933 0.08213 0.0
H1298 H 0.82828 0.05068 0.04196 0.0
H1299 H 0.84981 0.07243 0.04868 0.0
C1300 C 0.78545 0.0215 0.03946 0.0
C1301 C 0.78032 0.01303 0.05103 0.0
C1302 C 0.79674 0.0347 0.04282 0.0
C1303 C 0.80339 0.03953 0.05783 0.0
C1304 C 0.79817 0.03095 0.06936 0.0
C1305 C 0.78673 0.0179 0.06599 0.0
C1306 C 0.82934 0.07412 0.07876 0.0
C1307 C 0.8414 0.07805 0.06946 0.0
C1308 C 0.81676 0.0619 0.07478 0.0
C1309 C 0.81613 0.05314 0.06152 0.0
C1310 C 0.82816 0.05724 0.05212 0.0
C1311 C 0.84058 0.06964 0.056 0.0
H1312 H 0.13683 0.19163 0.42731 0.0
H1313 H 0.10222 0.16011 0.44655 0.0
H1314 H 0.13396 0.17491 0.40516 0.0
H1315 H 0.09988 0.14324 0.42466 0.0
H1316 H 0.11361 0.11177 0.39032 0.0
H1317 H 0.11811 0.12896 0.41242 0.0
H1318 H 0.11096 0.16354 0.38369 0.0
H1319 H 0.10652 0.14635 0.36158 0.0
C1320 C 0.12838 0.18131 0.42674 0.0
C1321 C 0.1194 0.17744 0.43857 0.0
C1322 C 0.1269 0.17165 0.41411 0.0
C1323 C 0.11666 0.1578 0.41318 0.0
C1324 C 0.10796 0.1538 0.42512 0.0
C1325 C 0.10929 0.16351 0.43764 0.0
C1326 C 0.11317 0.12307 0.38874 0.0
C1327 C 0.10967 0.12773 0.37426 0.0
C1328 C 0.11562 0.13287 0.40137 0.0
C1329 C 0.11484 0.14756 0.39976 0.0
C1330 C 0.11174 0.1523 0.38525 0.0
C1331 C 0.10907 0.14246 0.37263 0.0
H1332 H 0.05516 0.9049 0.73177 0.0
H1333 H 0.08081 0.88098 0.76389 0.0
H1334 H 0.07471 0.90249 0.7146 0.0
H1335 H 0.10069 0.87887 0.74675 0.0
H1336 H 0.1228 0.8656 0.70509 0.0
H1337 H 0.10304 0.86712 0.72254 0.0
H1338 H 0.10319 0.91176 0.71257 0.0
H1339 H 0.12222 0.91004 0.69475 0.0
C1340 C 0.06503 0.8992 0.73522 0.0
C1341 C 0.06644 0.89319 0.74924 0.0
C1342 C 0.07631 0.89788 0.72538 0.0
C1343 C 0.08933 0.89056 0.72933 0.0
C1344 C 0.0907 0.88445 0.74331 0.0
C1345 C 0.07937 0.88574 0.75317 0.0
C1346 C 0.11851 0.87569 0.70657 0.0
C1347 C 0.12413 0.88771 0.69856 0.0
C1348 C 0.10733 0.87661 0.71668 0.0
C1349 C 0.10151 0.88955 0.71892 0.0
C1350 C 0.10724 0.90157 0.71097 0.0
C1351 C 0.11835 0.90064 0.7009 0.0
H1352 H 0.3086 0.785 0.86061 0.0
H1353 H 0.28745 0.80769 0.89336 0.0
H1354 H 0.32683 0.80786 0.85672 0.0
H1355 H 0.30581 0.83041 0.88972 0.0
H1356 H 0.32727 0.8703 0.86621 0.0
H1357 H 0.30923 0.84721 0.86892 0.0
H1358 H 0.35093 0.82582 0.87174 0.0
H1359 H 0.36916 0.84904 0.86942 0.0
C1360 C 0.30793 0.79487 0.86702 0.0
C1361 C 0.29689 0.79457 0.87751 0.0
C1362 C 0.3184 0.8079 0.86486 0.0
C1363 C 0.31776 0.82088 0.87296 0.0
C1364 C 0.30653 0.82057 0.88329 0.0
C1365 C 0.29621 0.80754 0.88554 0.0
C1366 C 0.33265 0.86072 0.86754 0.0
C1367 C 0.34971 0.86158 0.86777 0.0
C1368 C 0.3223 0.84749 0.86904 0.0
C1369 C 0.32871 0.83476 0.87065 0.0
C1370 C 0.34565 0.83547 0.87042 0.0
C1371 C 0.35607 0.84875 0.86904 0.0
H1372 H 0.47868 0.12015 0.2296 0.0
H1373 H 0.48311 0.09122 0.19236 0.0
H1374 H 0.45565 0.12778 0.21449 0.0
H1375 H 0.46044 0.0992 0.17714 0.0
H1376 H 0.43159 0.12815 0.14966 0.0
H1377 H 0.45505 0.12211 0.16578 0.0
H1378 H 0.42635 0.11682 0.2023 0.0
H1379 H 0.40292 0.12301 0.18622 0.0
C1380 C 0.47454 0.11515 0.21836 0.0
C1381 C 0.4825 0.10477 0.21236 0.0
C1382 C 0.46146 0.11967 0.20963 0.0
C1383 C 0.45627 0.1141 0.19464 0.0
C1384 C 0.46429 0.10382 0.18861 0.0
C1385 C 0.47723 0.0992 0.19737 0.0
C1386 C 0.43039 0.12593 0.1612 0.0
C1387 C 0.41542 0.12601 0.16668 0.0
C1388 C 0.44375 0.12233 0.17037 0.0
C1389 C 0.44247 0.11888 0.18526 0.0
C1390 C 0.42771 0.11948 0.1909 0.0
C1391 C 0.41428 0.12293 0.18168 0.0
H1392 H 0.15311 0.80849 0.11759 0.0
H1393 H 0.11155 0.82044 0.09039 0.0
H1394 H 0.14976 0.82468 0.13839 0.0
H1395 H 0.10868 0.83707 0.11077 0.0
H1396 H 0.10283 0.86471 0.14956 0.0
H1397 H 0.10239 0.84225 0.13475 0.0
H1398 H 0.15573 0.84995 0.14355 0.0
H1399 H 0.15604 0.87173 0.15919 0.0
C1400 C 0.14316 0.81446 0.1161 0.0
C1401 C 0.13274 0.81332 0.10227 0.0
C1402 C 0.14129 0.82382 0.12799 0.0
C1403 C 0.12912 0.83241 0.12624 0.0
C1404 C 0.11809 0.83056 0.11268 0.0
C1405 C 0.11981 0.82106 0.10089 0.0
C1406 C 0.11442 0.86137 0.14872 0.0
C1407 C 0.1295 0.87018 0.15535 0.0
C1408 C 0.11419 0.84857 0.14005 0.0
C1409 C 0.12903 0.84437 0.13767 0.0
C1410 C 0.14402 0.85271 0.14514 0.0
C1411 C 0.14423 0.86538 0.15394 0.0
H1412 H 0.37226 0.83911 0.23743 0.0
H1413 H 0.32585 0.80891 0.23525 0.0
H1414 H 0.36935 0.84854 0.26241 0.0
H1415 H 0.32269 0.81861 0.26009 0.0
H1416 H 0.31638 0.84834 0.2998 0.0
H1417 H 0.31881 0.84112 0.27386 0.0
H1418 H 0.36988 0.83884 0.28774 0.0
H1419 H 0.3675 0.84623 0.31353 0.0
C1420 C 0.36159 0.83431 0.2424 0.0
C1421 C 0.3496 0.8229 0.23464 0.0
C1422 C 0.35982 0.83983 0.25662 0.0
C1423 C 0.34588 0.83421 0.26327 0.0
C1424 C 0.33354 0.82322 0.25522 0.0
C1425 C 0.33537 0.81763 0.24104 0.0
C1426 C 0.32815 0.84645 0.29723 0.0
C1427 C 0.34173 0.84777 0.30867 0.0
C1428 C 0.32951 0.84222 0.28244 0.0
C1429 C 0.34452 0.83938 0.27878 0.0
C1430 C 0.35819 0.84106 0.29018 0.0
C1431 C 0.35679 0.84516 0.30496 0.0
H1432 H 0.40312 0.17779 0.56301 0.0
H1433 H 0.40151 0.20625 0.60156 0.0
H1434 H 0.40769 0.15863 0.5794 0.0
H1435 H 0.40483 0.18678 0.61787 0.0
H1436 H 0.42221 0.1531 0.64601 0.0
H1437 H 0.42301 0.17247 0.62888 0.0
H1438 H 0.39278 0.14217 0.59386 0.0
H1439 H 0.39298 0.12265 0.61063 0.0
C1440 C 0.40408 0.1801 0.57497 0.0
C1441 C 0.40235 0.19371 0.58095 0.0
C1442 C 0.40635 0.16897 0.5844 0.0
C1443 C 0.40667 0.17111 0.60002 0.0
C1444 C 0.405 0.18477 0.60597 0.0
C1445 C 0.40291 0.19592 0.59657 0.0
C1446 C 0.41606 0.15049 0.63456 0.0
C1447 C 0.4074 0.13631 0.62977 0.0
C1448 C 0.41632 0.16166 0.62477 0.0
C1449 C 0.4078 0.15898 0.61 0.0
C1450 C 0.39961 0.14469 0.60508 0.0
C1451 C 0.3995 0.1335 0.61481 0.0
H1452 H 0.07192 0.10126 0.83055 0.0
H1453 H 0.10286 0.13521 0.81059 0.0
H1454 H 0.09133 0.10588 0.8538 0.0
H1455 H 0.12236 0.13975 0.83402 0.0
H1456 H 0.1589 0.13475 0.87712 0.0
H1457 H 0.14197 0.12762 0.8524 0.0
H1458 H 0.09791 0.12824 0.87242 0.0
H1459 H 0.1147 0.13536 0.89692 0.0
C1460 C 0.08297 0.10957 0.83102 0.0
C1461 C 0.08573 0.11799 0.81874 0.0
C1462 C 0.09405 0.11223 0.84438 0.0
C1463 C 0.10821 0.12328 0.84574 0.0
C1464 C 0.11153 0.13115 0.83323 0.0
C1465 C 0.10034 0.12857 0.81985 0.0
C1466 C 0.14558 0.13328 0.87617 0.0
C1467 C 0.13807 0.13565 0.88886 0.0
C1468 C 0.13595 0.12928 0.86207 0.0
C1469 C 0.11866 0.12732 0.86055 0.0
C1470 C 0.1112 0.12953 0.87331 0.0
C1471 C 0.1208 0.13372 0.88729 0.0
H1472 H 0.84234 0.30421 0.73577 0.0
H1473 H 0.88992 0.33325 0.7422 0.0
H1474 H 0.83607 0.31482 0.759 0.0
H1475 H 0.88377 0.34376 0.76551 0.0
H1476 H 0.87352 0.34706 0.81437 0.0
H1477 H 0.87991 0.33718 0.7909 0.0
H1478 H 0.83037 0.33749 0.76944 0.0
H1479 H 0.82381 0.34695 0.79312 0.0
C1480 C 0.8515 0.31281 0.7422 0.0
C1481 C 0.86681 0.31762 0.73737 0.0
C1482 C 0.84787 0.31895 0.75545 0.0
C1483 C 0.85945 0.3301 0.76413 0.0
C1484 C 0.87472 0.33498 0.75923 0.0
C1485 C 0.87833 0.32885 0.74595 0.0
C1486 C 0.86397 0.34495 0.80466 0.0
C1487 C 0.84812 0.34768 0.80563 0.0
C1488 C 0.86768 0.33943 0.79117 0.0
C1489 C 0.85563 0.3365 0.77831 0.0
C1490 C 0.83986 0.33947 0.7792 0.0
C1491 C 0.83615 0.34503 0.79271 0.0
H1492 H 0.88493 0.72003 0.07522 0.0
H1493 H 0.88666 0.68758 0.04029 0.0
H1494 H 0.88781 0.70249 0.09397 0.0
H1495 H 0.89059 0.67021 0.05914 0.0
H1496 H 0.8763 0.6387 0.09516 0.0
H1497 H 0.87521 0.65597 0.07582 0.0
H1498 H 0.90693 0.68957 0.1066 0.0
H1499 H 0.9072 0.67258 0.12617 0.0
C1500 C 0.88623 0.70921 0.07157 0.0
C1501 C 0.88596 0.70531 0.05628 0.0
C1502 C 0.88804 0.69917 0.08234 0.0
C1503 C 0.88962 0.68496 0.07812 0.0
C1504 C 0.88939 0.68106 0.0628 0.0
C1505 C 0.88749 0.69112 0.05199 0.0
C1506 C 0.88294 0.64981 0.09784 0.0
C1507 C 0.89173 0.65426 0.11228 0.0
C1508 C 0.88251 0.65966 0.08667 0.0
C1509 C 0.89093 0.6742 0.08965 0.0
C1510 C 0.90009 0.67853 0.10397 0.0
C1511 C 0.90043 0.66871 0.11515 0.0
H1512 H 0.59109 0.66397 0.30973 0.0
H1513 H 0.59628 0.61963 0.30052 0.0
H1514 H 0.61289 0.66676 0.33105 0.0
H1515 H 0.61871 0.62259 0.32155 0.0
H1516 H 0.63991 0.62741 0.37225 0.0
H1517 H 0.62204 0.62418 0.34806 0.0
H1518 H 0.64109 0.66884 0.3398 0.0
H1519 H 0.65838 0.67212 0.36433 0.0
C1520 C 0.59712 0.65489 0.31208 0.0
C1521 C 0.59184 0.64154 0.3035 0.0
C1522 C 0.60976 0.65652 0.32428 0.0
C1523 C 0.6176 0.64489 0.32811 0.0
C1524 C 0.61276 0.6317 0.31912 0.0
C1525 C 0.59996 0.63002 0.307 0.0
C1526 C 0.64044 0.63643 0.36511 0.0
C1527 C 0.65037 0.65004 0.37016 0.0
C1528 C 0.63025 0.63459 0.35121 0.0
C1529 C 0.62994 0.6463 0.34199 0.0
C1530 C 0.64066 0.65968 0.34674 0.0
C1531 C 0.65066 0.66156 0.36073 0.0
H1532 H 0.79136 0.30391 0.35634 0.0
H1533 H 0.82344 0.30702 0.39873 0.0
H1534 H 0.80901 0.32535 0.34883 0.0
H1535 H 0.84119 0.32844 0.39125 0.0
H1536 H 0.85709 0.37573 0.3798 0.0
H1537 H 0.84071 0.35355 0.38708 0.0
H1538 H 0.83588 0.33408 0.34189 0.0
H1539 H 0.85167 0.35658 0.33442 0.0
C1540 C 0.80222 0.30918 0.36404 0.0
C1541 C 0.80579 0.30403 0.37829 0.0
C1542 C 0.8124 0.32141 0.35971 0.0
C1543 C 0.82648 0.32868 0.36947 0.0
C1544 C 0.83024 0.3233 0.3836 0.0
C1545 C 0.82001 0.31109 0.38795 0.0
C1546 C 0.85243 0.36676 0.37138 0.0
C1547 C 0.85555 0.36798 0.35648 0.0
C1548 C 0.84322 0.35396 0.37561 0.0
C1549 C 0.83694 0.34203 0.36507 0.0
C1550 C 0.84035 0.34314 0.35024 0.0
C1551 C 0.84956 0.35597 0.346 0.0
H1552 H 0.64006 0.69585 0.92804 0.0
H1553 H 0.61362 0.65979 0.94871 0.0
H1554 H 0.637 0.68057 0.90479 0.0
H1555 H 0.61044 0.64452 0.92551 0.0
H1556 H 0.62147 0.61673 0.88756 0.0
H1557 H 0.62628 0.6327 0.91044 0.0
H1558 H 0.61671 0.66842 0.88418 0.0
H1559 H 0.61274 0.65262 0.86122 0.0
C1560 C 0.63327 0.68477 0.92752 0.0
C1561 C 0.62682 0.67911 0.94012 0.0
C1562 C 0.63161 0.67596 0.91422 0.0
C1563 C 0.62349 0.66129 0.91326 0.0
C1564 C 0.61701 0.65569 0.9259 0.0
C1565 C 0.61874 0.66446 0.93918 0.0
C1566 C 0.62069 0.62805 0.88663 0.0
C1567 C 0.61665 0.63336 0.87254 0.0
C1568 C 0.62322 0.63717 0.89978 0.0
C1569 C 0.62171 0.65182 0.89919 0.0
C1570 C 0.61807 0.65723 0.88507 0.0
C1571 C 0.61559 0.64811 0.8719 0.0
H1572 H 0.79958 0.54482 0.88042 0.0
H1573 H 0.81996 0.5284 0.84305 0.0
H1574 H 0.82635 0.55986 0.89006 0.0
H1575 H 0.8468 0.54382 0.85258 0.0
H1576 H 0.89616 0.56404 0.8837 0.0
H1577 H 0.87009 0.54769 0.87323 0.0
H1578 H 0.84347 0.58141 0.88305 0.0
H1579 H 0.86931 0.59751 0.8936 0.0
C1580 C 0.80977 0.54443 0.87423 0.0
C1581 C 0.80758 0.53548 0.86089 0.0
C1582 C 0.82512 0.55313 0.87972 0.0
C1583 C 0.83867 0.55319 0.87199 0.0
C1584 C 0.83663 0.54397 0.85885 0.0
C1585 C 0.82123 0.53518 0.85336 0.0
C1586 C 0.88471 0.56793 0.88348 0.0
C1587 C 0.88471 0.58195 0.88967 0.0
C1588 C 0.8698 0.5586 0.87749 0.0
C1589 C 0.85467 0.56318 0.87753 0.0
C1590 C 0.85484 0.5774 0.88322 0.0
C1591 C 0.86965 0.58664 0.88923 0.0
H1592 H 0.19801 0.05014 0.6067 0.0
H1593 H 0.19281 0.04129 0.65268 0.0
H1594 H 0.17597 0.06402 0.60586 0.0
H1595 H 0.17091 0.05525 0.65184 0.0
H1596 H 0.12333 0.07234 0.64154 0.0
H1597 H 0.14236 0.05571 0.63986 0.0
H1598 H 0.1737 0.08767 0.61805 0.0
H1599 H 0.15492 0.10438 0.61994 0.0
C1600 C 0.19207 0.05102 0.61657 0.0
C1601 C 0.19726 0.04468 0.62979 0.0
C1602 C 0.1795 0.05903 0.61611 0.0
C1603 C 0.17178 0.06079 0.62881 0.0
C1604 C 0.17653 0.05399 0.64183 0.0
C1605 C 0.18915 0.04606 0.64233 0.0
C1606 C 0.1343 0.07584 0.63642 0.0
C1607 C 0.13762 0.08974 0.63095 0.0
C1608 C 0.14516 0.06629 0.63542 0.0
C1609 C 0.15953 0.07039 0.62884 0.0
C1610 C 0.16261 0.08411 0.62299 0.0
C1611 C 0.15182 0.09368 0.62406 0.0
H1612 H 0.78586 0.48465 0.4566 0.0
H1613 H 0.75944 0.50071 0.41838 0.0
H1614 H 0.7602 0.46933 0.46123 0.0
H1615 H 0.73381 0.48527 0.42279 0.0
H1616 H 0.68788 0.46326 0.44121 0.0
H1617 H 0.71308 0.48069 0.43899 0.0
H1618 H 0.74189 0.44782 0.44995 0.0
H1619 H 0.71681 0.4306 0.45241 0.0
C1620 C 0.77451 0.48499 0.44927 0.0
C1621 C 0.77459 0.49405 0.43729 0.0
C1622 C 0.75983 0.47615 0.45186 0.0
C1623 C 0.74491 0.47601 0.44236 0.0
C1624 C 0.74498 0.4853 0.43051 0.0
C1625 C 0.75967 0.49422 0.42801 0.0
C1626 C 0.69963 0.45981 0.44315 0.0
C1627 C 0.70038 0.44558 0.44704 0.0
C1628 C 0.71406 0.46977 0.44186 0.0
C1629 C 0.72955 0.46569 0.44433 0.0
C1630 C 0.73025 0.45146 0.44828 0.0
C1631 C 0.71585 0.44156 0.44966 0.0
H1632 H 0.27783 0.9823 0.07602 0.0
H1633 H 0.29423 0.97177 0.1211 0.0
H1634 H 0.29245 0.96471 0.06595 0.0
H1635 H 0.30831 0.954 0.11109 0.0
H1636 H 0.34004 0.92779 0.09112 0.0
H1637 H 0.3305 0.94967 0.09869 0.0
H1638 H 0.28877 0.9387 0.06319 0.0
H1639 H 0.29861 0.91708 0.05544 0.0
C1640 C 0.28466 0.97633 0.08378 0.0
C1641 C 0.28476 0.97838 0.09936 0.0
C1642 C 0.29296 0.96619 0.07801 0.0
C1643 C 0.3015 0.95786 0.08769 0.0
C1644 C 0.30209 0.96034 0.10328 0.0
C1645 C 0.29387 0.97049 0.10904 0.0
C1646 C 0.32895 0.9302 0.08484 0.0
C1647 C 0.31999 0.9207 0.07278 0.0
C1648 C 0.32344 0.94269 0.08919 0.0
C1649 C 0.30874 0.94587 0.08167 0.0
C1650 C 0.30023 0.93671 0.06913 0.0
C1651 C 0.30584 0.92429 0.0647 0.0
H1652 H 0.75342 0.47246 0.59367 0.0
H1653 H 0.79192 0.47838 0.63189 0.0
H1654 H 0.76225 0.45072 0.58474 0.0
H1655 H 0.80027 0.45622 0.62359 0.0
H1656 H 0.82275 0.42465 0.59776 0.0
H1657 H 0.81372 0.44649 0.60618 0.0
H1658 H 0.76323 0.4266 0.58801 0.0
H1659 H 0.77269 0.40524 0.57876 0.0
C1660 C 0.76356 0.46889 0.60032 0.0
C1661 C 0.77193 0.477 0.6135 0.0
C1662 C 0.76864 0.4564 0.59525 0.0
C1663 C 0.78204 0.4516 0.6034 0.0
C1664 C 0.79017 0.45967 0.61677 0.0
C1665 C 0.78531 0.47232 0.62164 0.0
C1666 C 0.80976 0.42508 0.59556 0.0
C1667 C 0.79839 0.41341 0.58763 0.0
C1668 C 0.8045 0.43752 0.60049 0.0
C1669 C 0.78767 0.43839 0.5979 0.0
C1670 C 0.77631 0.42653 0.59 0.0
C1671 C 0.78166 0.41423 0.58478 0.0
H1672 H 0.30333 0.062 0.36011 0.0
H1673 H 0.32568 0.02651 0.3761 0.0
H1674 H 0.32972 0.07867 0.36672 0.0
H1675 H 0.35228 0.04324 0.38248 0.0
H1676 H 0.38924 0.08168 0.41022 0.0
H1677 H 0.36453 0.06333 0.40122 0.0
H1678 H 0.35734 0.08506 0.36024 0.0
H1679 H 0.38167 0.10373 0.3695 0.0
C1680 C 0.31391 0.0577 0.36488 0.0
C1681 C 0.31234 0.04291 0.36765 0.0
C1682 C 0.3291 0.06727 0.36858 0.0
C1683 C 0.34311 0.0623 0.37514 0.0
C1684 C 0.34166 0.04744 0.37759 0.0
C1685 C 0.32644 0.03784 0.37387 0.0
C1686 C 0.38238 0.08253 0.39929 0.0
C1687 C 0.38735 0.09424 0.39064 0.0
C1688 C 0.36833 0.07192 0.39405 0.0
C1689 C 0.35891 0.07277 0.38004 0.0
C1690 C 0.36421 0.0842 0.37117 0.0
C1691 C 0.37826 0.09481 0.37641 0.0
H1692 H 0.70868 0.54488 0.14748 0.0
H1693 H 0.68904 0.54205 0.18942 0.0
H1694 H 0.69486 0.56513 0.14142 0.0
H1695 H 0.67501 0.56207 0.18327 0.0
H1696 H 0.66425 0.6068 0.17369 0.0
H1697 H 0.68125 0.58876 0.1797 0.0
H1698 H 0.6653 0.56771 0.1351 0.0
H1699 H 0.64801 0.58552 0.12915 0.0
C1700 C 0.70171 0.54878 0.15554 0.0
C1701 C 0.70014 0.54206 0.16903 0.0
C1702 C 0.69361 0.56023 0.15198 0.0
C1703 C 0.68391 0.56521 0.16191 0.0
C1704 C 0.68258 0.55861 0.1755 0.0
C1705 C 0.69051 0.54709 0.17897 0.0
C1706 C 0.6643 0.5983 0.16517 0.0
C1707 C 0.65464 0.59756 0.15097 0.0
C1708 C 0.67409 0.588 0.16861 0.0
C1709 C 0.67456 0.5768 0.15789 0.0
C1710 C 0.66534 0.57632 0.14353 0.0
C1711 C 0.65545 0.58655 0.14012 0.0
H1712 H 0.25069 0.99398 0.92812 0.0
H1713 H 0.2641 0.9676 0.96408 0.0
H1714 H 0.22263 0.9794 0.92397 0.0
H1715 H 0.23614 0.95297 0.95986 0.0
H1716 H 0.18068 0.93709 0.95632 0.0
H1717 H 0.20656 0.95488 0.9615 0.0
H1718 H 0.21079 0.95313 0.91425 0.0
H1719 H 0.18518 0.93502 0.90905 0.0
C1720 C 0.24753 0.98532 0.93539 0.0
C1721 C 0.2595 0.98204 0.94657 0.0
C1722 C 0.23154 0.97686 0.93288 0.0
C1723 C 0.2272 0.96508 0.94161 0.0
C1724 C 0.23907 0.96209 0.95308 0.0
C1725 C 0.25508 0.97041 0.95544 0.0
C1726 C 0.18713 0.94045 0.94702 0.0
C1727 C 0.1809 0.93447 0.93228 0.0
C1728 C 0.20191 0.9507 0.95 0.0
C1729 C 0.21071 0.95534 0.93829 0.0
C1730 C 0.20417 0.94986 0.92348 0.0
C1731 C 0.18947 0.9395 0.92051 0.0
H1732 H 0.91874 0.82249 0.58919 0.0
H1733 H 0.88695 0.8429 0.55873 0.0
H1734 H 0.9075 0.83169 0.61035 0.0
H1735 H 0.87552 0.8521 0.57994 0.0
H1736 H 0.88003 0.88298 0.62272 0.0
H1737 H 0.88536 0.87045 0.60024 0.0
H1738 H 0.88394 0.83091 0.62329 0.0
H1739 H 0.87881 0.84359 0.64592 0.0
C1740 C 0.90892 0.8285 0.58696 0.0
C1741 C 0.90353 0.83176 0.57227 0.0
C1742 C 0.9025 0.83386 0.59912 0.0
C1743 C 0.89057 0.84264 0.59687 0.0
C1744 C 0.88484 0.84553 0.5821 0.0
C1745 C 0.89132 0.84021 0.56995 0.0
C1746 C 0.88046 0.87152 0.62289 0.0
C1747 C 0.8791 0.8643 0.63612 0.0
C1748 C 0.88351 0.86432 0.60997 0.0
C1749 C 0.88522 0.84969 0.60997 0.0
C1750 C 0.88301 0.84226 0.623 0.0
C1751 C 0.88003 0.84949 0.63594 0.0
H1752 H 0.88322 0.11108 0.26113 0.0
H1753 H 0.92136 0.10659 0.29728 0.0
H1754 H 0.86398 0.11164 0.27899 0.0
H1755 H 0.9021 0.10751 0.31528 0.0
H1756 H 0.85679 0.09141 0.33895 0.0
H1757 H 0.87751 0.09246 0.32215 0.0
H1758 H 0.85803 0.1264 0.29923 0.0
H1759 H 0.83687 0.12487 0.31552 0.0
C1760 C 0.88758 0.11037 0.27293 0.0
C1761 C 0.90385 0.10875 0.27776 0.0
C1762 C 0.87654 0.11078 0.28319 0.0
C1763 C 0.88149 0.10964 0.29857 0.0
C1764 C 0.89784 0.10824 0.30347 0.0
C1765 C 0.90891 0.10781 0.29317 0.0
C1766 C 0.85688 0.09904 0.33027 0.0
C1767 C 0.84511 0.108 0.32854 0.0
C1768 C 0.8689 0.09978 0.32076 0.0
C1769 C 0.86942 0.10949 0.30931 0.0
C1770 C 0.85786 0.11867 0.30781 0.0
C1771 C 0.84583 0.11791 0.31728 0.0
H1772 H 0.66617 0.21375 0.07418 0.0
H1773 H 0.62877 0.2192 0.10151 0.0
H1774 H 0.66877 0.19089 0.08542 0.0
H1775 H 0.63177 0.19669 0.11311 0.0
H1776 H 0.62671 0.14795 0.11687 0.0
H1777 H 0.62506 0.17058 0.10515 0.0
H1778 H 0.67829 0.18151 0.10985 0.0
H1779 H 0.67997 0.15879 0.12176 0.0
C1780 C 0.65836 0.20997 0.08243 0.0
C1781 C 0.64693 0.21804 0.08666 0.0
C1782 C 0.66006 0.19702 0.08905 0.0
C1783 C 0.65034 0.19191 0.10003 0.0
C1784 C 0.63921 0.20019 0.10449 0.0
C1785 C 0.63758 0.21314 0.09793 0.0
C1786 C 0.63809 0.15523 0.11554 0.0
C1787 C 0.65348 0.15165 0.12043 0.0
C1788 C 0.63713 0.16819 0.1088 0.0
C1789 C 0.65154 0.1779 0.10671 0.0
C1790 C 0.66696 0.1742 0.11123 0.0
C1791 C 0.66792 0.16119 0.11805 0.0
H1792 H 0.56784 0.90394 0.75324 0.0
H1793 H 0.52818 0.86721 0.75421 0.0
H1794 H 0.58287 0.89678 0.77588 0.0
H1795 H 0.54346 0.85956 0.77651 0.0
H1796 H 0.56912 0.85651 0.82411 0.0
H1797 H 0.55301 0.86426 0.8023 0.0
H1798 H 0.59806 0.87954 0.78406 0.0
H1799 H 0.61402 0.87245 0.80622 0.0
C1800 C 0.56237 0.89429 0.75833 0.0
C1801 C 0.54679 0.88621 0.7521 0.0
C1802 C 0.57104 0.89009 0.77124 0.0
C1803 C 0.5645 0.87749 0.77804 0.0
C1804 C 0.5488 0.86946 0.77179 0.0
C1805 C 0.54001 0.87383 0.759 0.0
C1806 C 0.57548 0.86151 0.81537 0.0
C1807 C 0.59278 0.86397 0.81683 0.0
C1808 C 0.56628 0.8659 0.80284 0.0
C1809 C 0.57419 0.87264 0.79138 0.0
C1810 C 0.59152 0.87476 0.79278 0.0
C1811 C 0.6007 0.8706 0.80542 0.0
H1812 H 0.92581 0.23658 0.91315 0.0
H1813 H 0.88245 0.2232 0.93423 0.0
H1814 H 0.91991 0.21312 0.89853 0.0
H1815 H 0.87691 0.19957 0.92015 0.0
H1816 H 0.86218 0.1654 0.88024 0.0
H1817 H 0.86803 0.18905 0.8944 0.0
H1818 H 0.91991 0.18743 0.9022 0.0
H1819 H 0.91407 0.1638 0.88811 0.0
C1820 C 0.91513 0.22855 0.91478 0.0
C1821 C 0.90484 0.23157 0.92513 0.0
C1822 C 0.9118 0.2151 0.90649 0.0
C1823 C 0.898 0.20443 0.90825 0.0
C1824 C 0.88761 0.20755 0.91849 0.0
C1825 C 0.89097 0.22099 0.92679 0.0
C1826 C 0.87482 0.17006 0.88505 0.0
C1827 C 0.88765 0.16271 0.88301 0.0
C1828 C 0.87817 0.1836 0.89317 0.0
C1829 C 0.89444 0.19012 0.89944 0.0
C1830 C 0.90728 0.18281 0.89733 0.0
C1831 C 0.90393 0.16927 0.88923 0.0
H1832 H 0.64148 0.14842 0.73464 0.0
H1833 H 0.6213 0.18579 0.72099 0.0
H1834 H 0.65978 0.15217 0.71561 0.0
H1835 H 0.63966 0.18952 0.70207 0.0
H1836 H 0.65015 0.17141 0.65595 0.0
H1837 H 0.63779 0.17356 0.67852 0.0
H1838 H 0.68313 0.16895 0.70561 0.0
H1839 H 0.69595 0.16733 0.68287 0.0
C1840 C 0.64121 0.15763 0.72784 0.0
C1841 C 0.62971 0.16665 0.72917 0.0
C1842 C 0.65176 0.15981 0.71699 0.0
C1843 C 0.65097 0.17102 0.70724 0.0
C1844 C 0.64035 0.18067 0.7093 0.0
C1845 C 0.62987 0.17854 0.72018 0.0
C1846 C 0.65777 0.17134 0.66668 0.0
C1847 C 0.67415 0.16928 0.66751 0.0
C1848 C 0.65061 0.17252 0.67966 0.0
C1849 C 0.65951 0.17148 0.69383 0.0
C1850 C 0.67597 0.16972 0.6948 0.0
C1851 C 0.68326 0.16874 0.68177 0.0
H1852 H 0.62146 0.80394 0.42522 0.0
H1853 H 0.57237 0.77918 0.42624 0.0
H1854 H 0.61131 0.81497 0.40291 0.0
H1855 H 0.56222 0.79006 0.40353 0.0
H1856 H 0.54901 0.82907 0.37666 0.0
H1857 H 0.5572 0.81381 0.39651 0.0
H1858 H 0.60075 0.81026 0.37665 0.0
H1859 H 0.5927 0.82574 0.35708 0.0
C1860 C 0.60852 0.80069 0.42057 0.0
C1861 C 0.59772 0.79072 0.42758 0.0
C1862 C 0.60271 0.80695 0.40767 0.0
C1863 C 0.58594 0.80338 0.40139 0.0
C1864 C 0.57517 0.79314 0.40817 0.0
C1865 C 0.58101 0.78685 0.42113 0.0
C1866 C 0.56016 0.82479 0.37643 0.0
C1867 C 0.57034 0.82873 0.36548 0.0
C1868 C 0.56485 0.81602 0.38776 0.0
C1869 C 0.57976 0.81098 0.38829 0.0
C1870 C 0.5894 0.81425 0.37678 0.0
C1871 C 0.58478 0.82307 0.36555 0.0
H1872 H 0.94487 0.9297 0.21881 0.0
H1873 H 0.92015 0.96563 0.21033 0.0
H1874 H 0.93034 0.91705 0.19515 0.0
H1875 H 0.90499 0.9527 0.18703 0.0
H1876 H 0.89223 0.93176 0.13923 0.0
H1877 H 0.90861 0.94477 0.16201 0.0
H1878 H 0.9026 0.90484 0.1846 0.0
H1879 H 0.88632 0.89183 0.16176 0.0
C1880 C 0.93663 0.93504 0.21175 0.0
C1881 C 0.934 0.94883 0.21625 0.0
C1882 C 0.92802 0.92766 0.19832 0.0
C1883 C 0.91652 0.93387 0.18916 0.0
C1884 C 0.91395 0.9477 0.19368 0.0
C1885 C 0.92255 0.95506 0.20708 0.0
C1886 C 0.89432 0.92579 0.1491 0.0
C1887 C 0.88794 0.91078 0.14871 0.0
C1888 C 0.90371 0.93324 0.16215 0.0
C1889 C 0.90692 0.92585 0.17514 0.0
C1890 C 0.9006 0.91082 0.17472 0.0
C1891 C 0.89123 0.90336 0.16165 0.0
H1892 H 0.11617 0.67402 0.21831 0.0
H1893 H 0.11052 0.62719 0.21412 0.0
H1894 H 0.1351 0.67612 0.19984 0.0
H1895 H 0.1295 0.62937 0.19556 0.0
H1896 H 0.17343 0.64097 0.16891 0.0
H1897 H 0.15898 0.63943 0.19087 0.0
H1898 H 0.12891 0.66883 0.1721 0.0
H1899 H 0.14279 0.67002 0.15008 0.0
C1900 C 0.11916 0.66418 0.21365 0.0
C1901 C 0.11165 0.65042 0.21756 0.0
C1902 C 0.12996 0.6654 0.20302 0.0
C1903 C 0.13359 0.6529 0.19614 0.0
C1904 C 0.12695 0.63919 0.20073 0.0
C1905 C 0.11603 0.63795 0.21131 0.0
C1906 C 0.16369 0.64706 0.16945 0.0
C1907 C 0.15938 0.65571 0.15774 0.0
C1908 C 0.15549 0.64622 0.18204 0.0
C1909 C 0.14296 0.65413 0.18325 0.0
C1910 C 0.13877 0.66286 0.17164 0.0
C1911 C 0.1468 0.66357 0.15902 0.0
H1912 H 0.06896 0.27377 0.93367 0.0
H1913 H 0.12019 0.29567 0.94125 0.0
H1914 H 0.06448 0.28655 0.91082 0.0
H1915 H 0.11573 0.3082 0.91846 0.0
H1916 H 0.09724 0.34213 0.89026 0.0
H1917 H 0.10054 0.32757 0.9117 0.0
H1918 H 0.07221 0.28947 0.88492 0.0
H1919 H 0.06896 0.30414 0.86324 0.0
C1920 C 0.0793 0.28115 0.93038 0.0
C1921 C 0.09489 0.28382 0.93938 0.0
C1922 C 0.07673 0.28843 0.91727 0.0
C1923 C 0.0897 0.29853 0.91298 0.0
C1924 C 0.10541 0.30071 0.92165 0.0
C1925 C 0.10798 0.29346 0.93468 0.0
C1926 C 0.09181 0.33062 0.88887 0.0
C1927 C 0.08307 0.32423 0.87498 0.0
C1928 C 0.0937 0.32228 0.90117 0.0
C1929 C 0.08686 0.30732 0.89993 0.0
C1930 C 0.0776 0.30098 0.8862 0.0
C1931 C 0.07573 0.30936 0.87382 0.0
H1932 H 0.44128 0.41233 0.71114 0.0
H1933 H 0.40136 0.39593 0.73555 0.0
H1934 H 0.42267 0.40553 0.6874 0.0
H1935 H 0.38268 0.3895 0.71189 0.0
H1936 H 0.35926 0.36528 0.66663 0.0
H1937 H 0.37857 0.37175 0.6899 0.0
H1938 H 0.39803 0.41301 0.67331 0.0
H1939 H 0.37889 0.40638 0.64983 0.0
C1940 C 0.42862 0.40705 0.71143 0.0
C1941 C 0.42286 0.40434 0.72517 0.0
C1942 C 0.4179 0.40338 0.69785 0.0
C1943 C 0.40124 0.39691 0.69778 0.0
C1944 C 0.3955 0.39429 0.71156 0.0
C1945 C 0.40617 0.39804 0.72511 0.0
C1946 C 0.36775 0.37568 0.6679 0.0
C1947 C 0.36757 0.38532 0.6564 0.0
C1948 C 0.3787 0.37944 0.68128 0.0
C1949 C 0.3898 0.3929 0.68344 0.0
C1950 C 0.38971 0.40251 0.67191 0.0
C1951 C 0.37865 0.39879 0.65854 0.0
H1952 H 0.12377 0.68802 0.58182 0.0
H1953 H 0.08751 0.69021 0.61135 0.0
H1954 H 0.1325 0.66812 0.59535 0.0
H1955 H 0.0966 0.6708 0.62517 0.0
H1956 H 0.10523 0.62727 0.63892 0.0
H1957 H 0.0961 0.64487 0.6223 0.0
H1958 H 0.14693 0.66437 0.62016 0.0
H1959 H 0.15606 0.64662 0.63676 0.0
C1960 C 0.11746 0.68409 0.591 0.0
C1961 C 0.10471 0.69048 0.59531 0.0
C1962 C 0.12264 0.67285 0.59891 0.0
C1963 C 0.11515 0.66778 0.61127 0.0
C1964 C 0.10242 0.67423 0.61554 0.0
C1965 C 0.0973 0.68545 0.60769 0.0
C1966 C 0.11445 0.63529 0.63487 0.0
C1967 C 0.13136 0.63569 0.6393 0.0
C1968 C 0.10923 0.64538 0.62536 0.0
C1969 C 0.12079 0.65615 0.62006 0.0
C1970 C 0.13771 0.65616 0.62396 0.0
C1971 C 0.14295 0.64601 0.63348 0.0
H1972 H 0.35278 0.30135 0.09316 0.0
H1973 H 0.37303 0.32911 0.06046 0.0
H1974 H 0.35571 0.32249 0.11067 0.0
H1975 H 0.37627 0.35028 0.07818 0.0
H1976 H 0.36666 0.38651 0.10997 0.0
H1977 H 0.36121 0.36569 0.09141 0.0
H1978 H 0.37846 0.3391 0.12572 0.0
H1979 H 0.38329 0.35965 0.14428 0.0
C1980 C 0.35783 0.31197 0.08968 0.0
C1981 C 0.36278 0.31351 0.07543 0.0
C1982 C 0.35959 0.32408 0.09976 0.0
C1983 C 0.36639 0.33805 0.09588 0.0
C1984 C 0.37088 0.33968 0.08147 0.0
C1985 C 0.3691 0.32753 0.07135 0.0
C1986 C 0.36913 0.37617 0.11355 0.0
C1987 C 0.37546 0.37475 0.12859 0.0
C1988 C 0.36616 0.36429 0.1029 0.0
C1989 C 0.36936 0.35073 0.10709 0.0
C1990 C 0.37564 0.34934 0.12214 0.0
C1991 C 0.37862 0.36118 0.13275 0.0
H1992 H 0.53723 0.41548 0.27487 0.0
H1993 H 0.5334 0.37161 0.28842 0.0
H1994 H 0.54626 0.40832 0.25163 0.0
H1995 H 0.54169 0.3641 0.26477 0.0
H1996 H 0.57795 0.36113 0.23101 0.0
H1997 H 0.56486 0.36593 0.25282 0.0
H1998 H 0.5399 0.39597 0.22813 0.0
H1999 H 0.55397 0.39175 0.20677 0.0
C2000 C 0.53787 0.40418 0.27263 0.0
C2001 C 0.53447 0.39406 0.28333 0.0
C2002 C 0.54302 0.40002 0.25927 0.0
C2003 C 0.5447 0.38557 0.25618 0.0
C2004 C 0.54085 0.37537 0.26681 0.0
C2005 C 0.53599 0.37962 0.28032 0.0
C2006 C 0.56946 0.36858 0.23027 0.0
C2007 C 0.56694 0.37612 0.21734 0.0
C2008 C 0.56187 0.37131 0.24272 0.0
C2009 C 0.55137 0.38147 0.24238 0.0
C2010 C 0.54821 0.38838 0.22902 0.0
C2011 C 0.55609 0.38587 0.21671 0.0
H2012 H 0.98318 0.60402 0.72615 0.0
H2013 H 0.00765 0.64925 0.73092 0.0
H2014 H 0.96326 0.6092 0.70586 0.0
H2015 H 0.98795 0.65438 0.71019 0.0
H2016 H 0.93728 0.66027 0.68561 0.0
H2017 H 0.95945 0.65613 0.70463 0.0
H2018 H 0.95996 0.61538 0.68051 0.0
H2019 H 0.93753 0.61938 0.6618 0.0
C2020 C 0.98445 0.61505 0.72274 0.0
C2021 C 0.99699 0.62622 0.73019 0.0
C2022 C 0.97306 0.61802 0.71101 0.0
C2023 C 0.97399 0.63222 0.70633 0.0
C2024 C 0.98672 0.64336 0.71362 0.0
C2025 C 0.99808 0.6404 0.72545 0.0
C2026 C 0.9423 0.65052 0.68433 0.0
C2027 C 0.93561 0.64008 0.67234 0.0
C2028 C 0.95503 0.64816 0.69519 0.0
C2029 C 0.9614 0.63534 0.69419 0.0
C2030 C 0.9551 0.6252 0.68183 0.0
C2031 C 0.94229 0.6275 0.67108 0.0
H2032 H 0.5737 0.28012 0.53043 0.0
H2033 H 0.59171 0.25981 0.56968 0.0
H2034 H 0.57288 0.30175 0.54616 0.0
H2035 H 0.59095 0.28142 0.58549 0.0
H2036 H 0.57606 0.31832 0.61123 0.0
H2037 H 0.57323 0.29606 0.59519 0.0
H2038 H 0.59257 0.32147 0.56043 0.0
H2039 H 0.59471 0.3437 0.57617 0.0
C2040 C 0.57767 0.28037 0.54241 0.0
C2041 C 0.58322 0.26849 0.5488 0.0
C2042 C 0.57713 0.29272 0.55144 0.0
C2043 C 0.58205 0.29341 0.56708 0.0
C2044 C 0.58696 0.28123 0.57351 0.0
C2045 C 0.58745 0.26887 0.56447 0.0
C2046 C 0.57946 0.31916 0.60007 0.0
C2047 C 0.58567 0.33278 0.59501 0.0
C2048 C 0.57801 0.30639 0.59094 0.0
C2049 C 0.58272 0.30696 0.57654 0.0
C2050 C 0.58865 0.32062 0.57139 0.0
C2051 C 0.59008 0.33336 0.5805 0.0
H2052 H 0.42291 0.58241 0.78225 0.0
H2053 H 0.42634 0.62888 0.78113 0.0
H2054 H 0.40392 0.58175 0.80066 0.0
H2055 H 0.40705 0.62815 0.79911 0.0
H2056 H 0.38119 0.62506 0.83967 0.0
H2057 H 0.40328 0.62458 0.82459 0.0
H2058 H 0.37586 0.5842 0.80128 0.0
H2059 H 0.35398 0.58458 0.8166 0.0
C2060 C 0.41966 0.59249 0.78596 0.0
C2061 C 0.4261 0.60569 0.78017 0.0
C2062 C 0.4087 0.59209 0.79645 0.0
C2063 C 0.4039 0.60488 0.80134 0.0
C2064 C 0.41066 0.61812 0.79579 0.0
C2065 C 0.42165 0.61852 0.78537 0.0
C2066 C 0.37997 0.61605 0.83138 0.0
C2067 C 0.36584 0.6049 0.82924 0.0
C2068 C 0.39259 0.61578 0.82271 0.0
C2069 C 0.3913 0.60442 0.81162 0.0
C2070 C 0.37738 0.59302 0.80984 0.0
C2071 C 0.36482 0.59324 0.8186 0.0
H2072 H 0.06525 0.34541 0.29143 0.0
H2073 H 0.08885 0.38833 0.28159 0.0
H2074 H 0.09022 0.3432 0.30798 0.0
H2075 H 0.11354 0.38635 0.29849 0.0
H2076 H 0.16058 0.37505 0.32095 0.0
H2077 H 0.13648 0.37455 0.30208 0.0
H2078 H 0.105 0.35284 0.33199 0.0
H2079 H 0.12917 0.35304 0.35063 0.0
C2080 C 0.07576 0.35437 0.2928 0.0
C2081 C 0.07503 0.36706 0.28522 0.0
C2082 C 0.09005 0.35314 0.30235 0.0
C2083 C 0.1039 0.36461 0.30463 0.0
C2084 C 0.10324 0.3772 0.29684 0.0
C2085 C 0.08901 0.37838 0.2872 0.0
C2086 C 0.1485 0.3701 0.32341 0.0
C2087 C 0.14673 0.36412 0.33726 0.0
C2088 C 0.13468 0.36986 0.31264 0.0
C2089 C 0.11875 0.36376 0.31554 0.0
C2090 C 0.11707 0.35744 0.32927 0.0
C2091 C 0.13092 0.35757 0.33998 0.0
H2092 H 0.43034 0.72534 0.41045 0.0
H2093 H 0.39018 0.70751 0.43395 0.0
H2094 H 0.42731 0.70183 0.39648 0.0
H2095 H 0.38716 0.68405 0.42011 0.0
H2096 H 0.39535 0.64039 0.40207 0.0
H2097 H 0.40071 0.66356 0.41703 0.0
H2098 H 0.40784 0.68643 0.37712 0.0
H2099 H 0.40254 0.66327 0.36219 0.0
C2100 C 0.42094 0.71636 0.41271 0.0
C2101 C 0.41076 0.71817 0.42356 0.0
C2102 C 0.41916 0.70291 0.40467 0.0
C2103 C 0.40705 0.69102 0.40723 0.0
C2104 C 0.39688 0.69287 0.41811 0.0
C2105 C 0.39868 0.70631 0.42614 0.0
C2106 C 0.39803 0.65037 0.39649 0.0
C2107 C 0.39845 0.64998 0.38093 0.0
C2108 C 0.4011 0.66365 0.40506 0.0
C2109 C 0.40464 0.67687 0.39827 0.0
C2110 C 0.40538 0.67646 0.38275 0.0
C2111 C 0.40234 0.66318 0.37419 0.0
H2112 H 0.08296 0.31342 0.01349 0.0
H2113 H 0.12542 0.29864 0.03591 0.0
H2114 H 0.08562 0.33193 0.03399 0.0
H2115 H 0.12807 0.31728 0.05643 0.0
H2116 H 0.11995 0.34696 0.09591 0.0
H2117 H 0.1139 0.32596 0.07739 0.0
H2118 H 0.10701 0.35449 0.04173 0.0
H2119 H 0.1129 0.37533 0.06016 0.0
C2120 C 0.09275 0.31399 0.02287 0.0
C2121 C 0.10409 0.30465 0.02298 0.0
C2122 C 0.09429 0.32465 0.03458 0.0
C2123 C 0.10715 0.32615 0.04672 0.0
C2124 C 0.11799 0.31633 0.04725 0.0
C2125 C 0.11651 0.3057 0.03546 0.0
C2126 C 0.11695 0.34866 0.08412 0.0
C2127 C 0.11696 0.36275 0.07943 0.0
C2128 C 0.11361 0.33669 0.07354 0.0
C2129 C 0.10996 0.33859 0.05814 0.0
C2130 C 0.1096 0.35266 0.05354 0.0
C2131 C 0.11312 0.3646 0.06406 0.0
H2132 H 0.95123 0.94056 0.3012 0.0
H2133 H 0.90649 0.95776 0.29352 0.0
H2134 H 0.93941 0.92496 0.31968 0.0
H2135 H 0.89478 0.94222 0.31185 0.0
H2136 H 0.87202 0.9023 0.33314 0.0
H2137 H 0.88543 0.91527 0.31388 0.0
H2138 H 0.93031 0.92836 0.34546 0.0
H2139 H 0.9168 0.91558 0.36489 0.0
C2140 C 0.9389 0.94101 0.30345 0.0
C2141 C 0.92979 0.95039 0.29591 0.0
C2142 C 0.93218 0.93212 0.31403 0.0
C2143 C 0.91615 0.9323 0.31709 0.0
C2144 C 0.90708 0.94169 0.30955 0.0
C2145 C 0.91384 0.95067 0.29913 0.0
C2146 C 0.88477 0.90789 0.33597 0.0
C2147 C 0.89327 0.90811 0.35061 0.0
C2148 C 0.89244 0.91529 0.32494 0.0
C2149 C 0.90881 0.92299 0.32826 0.0
C2150 C 0.91768 0.92248 0.3426 0.0
C2151 C 0.90996 0.91513 0.3537 0.0
H2152 H 0.37509 0.68682 0.49189 0.0
H2153 H 0.42654 0.68568 0.5056 0.0
H2154 H 0.36779 0.67273 0.5129 0.0
H2155 H 0.41918 0.67132 0.52644 0.0
H2156 H 0.40155 0.66168 0.57192 0.0
H2157 H 0.40925 0.67468 0.55023 0.0
H2158 H 0.36658 0.64866 0.52221 0.0
H2159 H 0.35879 0.63592 0.54407 0.0
C2160 C 0.38484 0.68345 0.49931 0.0
C2161 C 0.40141 0.68743 0.4971 0.0
C2162 C 0.38063 0.6753 0.51131 0.0
C2163 C 0.3929 0.67092 0.52138 0.0
C2164 C 0.40945 0.6747 0.51902 0.0
C2165 C 0.41366 0.68286 0.50701 0.0
C2166 C 0.39383 0.65883 0.56111 0.0
C2167 C 0.37941 0.64806 0.55966 0.0
C2168 C 0.39829 0.66616 0.54867 0.0
C2169 C 0.38847 0.66276 0.53449 0.0
C2170 C 0.37424 0.65172 0.53302 0.0
C2171 C 0.3698 0.6444 0.54548 0.0
H2172 H 0.6094 0.15198 0.81494 0.0
H2173 H 0.61774 0.1114 0.7959 0.0
H2174 H 0.62097 0.14621 0.83984 0.0
H2175 H 0.62927 0.10565 0.82079 0.0
H2176 H 0.66582 0.10925 0.86482 0.0
H2177 H 0.65426 0.1151 0.84 0.0
H2178 H 0.61369 0.12796 0.85861 0.0
H2179 H 0.62498 0.1218 0.88339 0.0
C2180 C 0.61369 0.14183 0.81607 0.0
C2181 C 0.61265 0.13215 0.80345 0.0
C2182 C 0.62024 0.1385 0.83033 0.0
C2183 C 0.62604 0.12549 0.83225 0.0
C2184 C 0.62505 0.11583 0.81963 0.0
C2185 C 0.61836 0.11909 0.80539 0.0
C2186 C 0.65433 0.11316 0.86362 0.0
C2187 C 0.64631 0.115 0.87614 0.0
C2188 C 0.64774 0.11654 0.8494 0.0
C2189 C 0.63307 0.12197 0.84737 0.0
C2190 C 0.62512 0.12396 0.85987 0.0
C2191 C 0.63163 0.12046 0.87407 0.0
H2192 H 0.12774 0.68729 0.51215 0.0
H2193 H 0.10233 0.64311 0.51519 0.0
H2194 H 0.13285 0.68083 0.48698 0.0
H2195 H 0.10733 0.6367 0.48987 0.0
H2196 H 0.13572 0.62853 0.45026 0.0
H2197 H 0.13045 0.63413 0.47578 0.0
H2198 H 0.11647 0.67409 0.46188 0.0
H2199 H 0.12185 0.6685 0.4365 0.0
C2200 C 0.12327 0.67619 0.50748 0.0
C2201 C 0.11458 0.66573 0.51568 0.0
C2202 C 0.1261 0.67252 0.493 0.0
C2203 C 0.12038 0.65829 0.4864 0.0
C2204 C 0.11197 0.64774 0.49469 0.0
C2205 C 0.10906 0.65143 0.50917 0.0
C2206 C 0.13137 0.63842 0.45271 0.0
C2207 C 0.12905 0.64803 0.44145 0.0
C2208 C 0.12832 0.64162 0.46726 0.0
C2209 C 0.12309 0.65457 0.47085 0.0
C2210 C 0.12068 0.66412 0.45951 0.0
C2211 C 0.12364 0.66088 0.44497 0.0
H2212 H 0.57712 0.9207 0.67494 0.0
H2213 H 0.54679 0.87861 0.65964 0.0
H2214 H 0.59355 0.91873 0.65485 0.0
H2215 H 0.56292 0.87682 0.63927 0.0
H2216 H 0.60611 0.87165 0.6145 0.0
H2217 H 0.58983 0.87351 0.63488 0.0
H2218 H 0.592 0.91912 0.62808 0.0
H2219 H 0.60869 0.91725 0.60807 0.0
C2220 C 0.57389 0.91106 0.66723 0.0
C2221 C 0.56065 0.8998 0.6689 0.0
C2222 C 0.58326 0.90997 0.65564 0.0
C2223 C 0.57956 0.89762 0.64542 0.0
C2224 C 0.56627 0.88638 0.64707 0.0
C2225 C 0.55695 0.88745 0.6587 0.0
C2226 C 0.60302 0.88203 0.61741 0.0
C2227 C 0.60846 0.89426 0.60968 0.0
C2228 C 0.59365 0.8831 0.62899 0.0
C2229 C 0.58954 0.89646 0.63309 0.0
C2230 C 0.59509 0.90871 0.62535 0.0
C2231 C 0.60452 0.90764 0.61381 0.0
H2232 H 0.38436 0.30509 0.98905 0.0
H2233 H 0.33146 0.29203 0.98666 0.0
H2234 H 0.38047 0.31591 0.96504 0.0
H2235 H 0.32759 0.30259 0.96249 0.0
H2236 H 0.32713 0.33832 0.92915 0.0
H2237 H 0.33073 0.32649 0.9527 0.0
H2238 H 0.37149 0.30984 0.9384 0.0
H2239 H 0.36802 0.32199 0.91502 0.0
C2240 C 0.3719 0.30441 0.98334 0.0
C2241 C 0.35822 0.29773 0.9898 0.0
C2242 C 0.36967 0.31055 0.96953 0.0
C2243 C 0.35372 0.31015 0.96184 0.0
C2244 C 0.34005 0.30327 0.96821 0.0
C2245 C 0.34227 0.29714 0.98203 0.0
C2246 C 0.33674 0.33201 0.93105 0.0
C2247 C 0.34711 0.33081 0.92023 0.0
C2248 C 0.33878 0.32519 0.94448 0.0
C2249 C 0.35134 0.31713 0.9474 0.0
C2250 C 0.36178 0.31604 0.93656 0.0
C2251 C 0.35973 0.32288 0.92313 0.0
H2252 H 0.93375 0.13361 0.1815 0.0
H2253 H 0.90922 0.08914 0.18443 0.0
H2254 H 0.92412 0.13152 0.15453 0.0
H2255 H 0.89916 0.08721 0.15766 0.0
H2256 H 0.8912 0.08415 0.10719 0.0
H2257 H 0.90577 0.08617 0.13284 0.0
H2258 H 0.89849 0.13037 0.13856 0.0
H2259 H 0.8843 0.12841 0.11282 0.0
C2260 C 0.9264 0.12336 0.17638 0.0
C2261 C 0.92217 0.11158 0.18514 0.0
C2262 C 0.92078 0.12219 0.16093 0.0
C2263 C 0.91071 0.10924 0.15391 0.0
C2264 C 0.90703 0.09729 0.16261 0.0
C2265 C 0.91274 0.09843 0.17802 0.0
C2266 C 0.89279 0.09431 0.11394 0.0
C2267 C 0.88655 0.1061 0.10804 0.0
C2268 C 0.90111 0.09546 0.12864 0.0
C2269 C 0.90325 0.10841 0.13783 0.0
C2270 C 0.89733 0.12032 0.13176 0.0
C2271 C 0.88913 0.11919 0.11702 0.0
H2272 H 0.00849 0.12366 0.27097 0.0
H2273 H 0.98941 0.08275 0.28843 0.0
H2274 H 0.03528 0.12442 0.28604 0.0
H2275 H 0.01585 0.08382 0.30407 0.0
H2276 H 0.06841 0.0828 0.32192 0.0
H2277 H 0.04333 0.08173 0.30437 0.0
H2278 H 0.04893 0.12845 0.31079 0.0
H2279 H 0.07475 0.12963 0.32736 0.0
C2280 C 0.01001 0.11486 0.2781 0.0
C2281 C 0.99685 0.10314 0.27851 0.0
C2282 C 0.02535 0.11534 0.28683 0.0
C2283 C 0.02781 0.10421 0.29636 0.0
C2284 C 0.01459 0.09246 0.29668 0.0
C2285 C 0.99935 0.09188 0.28778 0.0
C2286 C 0.06453 0.0929 0.31935 0.0
C2287 C 0.07368 0.10631 0.32615 0.0
C2288 C 0.04993 0.09226 0.30944 0.0
C2289 C 0.04391 0.10498 0.30621 0.0
C2290 C 0.05319 0.11841 0.31283 0.0
C2291 C 0.06792 0.11907 0.32257 0.0
H2292 H 0.12021 0.77938 0.59037 0.0
H2293 H 0.08259 0.771 0.61917 0.0
H2294 H 0.12931 0.804 0.60214 0.0
H2295 H 0.09199 0.79548 0.63126 0.0
H2296 H 0.10026 0.84525 0.63661 0.0
H2297 H 0.09173 0.82019 0.62581 0.0
H2298 H 0.14287 0.81777 0.625 0.0
H2299 H 0.15125 0.84306 0.63538 0.0
C2300 C 0.11399 0.78275 0.59932 0.0
C2301 C 0.10063 0.77325 0.60379 0.0
C2302 C 0.11927 0.79684 0.60614 0.0
C2303 C 0.11137 0.80176 0.61764 0.0
C2304 C 0.09818 0.79215 0.62227 0.0
C2305 C 0.09285 0.77808 0.6154 0.0
C2306 C 0.10964 0.83932 0.63413 0.0
C2307 C 0.1264 0.84604 0.63676 0.0
C2308 C 0.10479 0.82493 0.62804 0.0
C2309 C 0.11661 0.81693 0.62452 0.0
C2310 C 0.13342 0.82366 0.62736 0.0
C2311 C 0.13825 0.83808 0.63339 0.0
H2312 H 0.4587 0.8724 0.77415 0.0
H2313 H 0.49184 0.90349 0.80665 0.0
H2314 H 0.43622 0.87369 0.78847 0.0
H2315 H 0.46939 0.90453 0.82115 0.0
H2316 H 0.42043 0.91654 0.831 0.0
H2317 H 0.44416 0.91409 0.81858 0.0
H2318 H 0.42614 0.86759 0.8119 0.0
H2319 H 0.40222 0.87021 0.82406 0.0
C2320 C 0.46125 0.87939 0.78444 0.0
C2321 C 0.47705 0.88791 0.7892 0.0
C2322 C 0.44836 0.88006 0.7927 0.0
C2323 C 0.45098 0.88926 0.80593 0.0
C2324 C 0.4669 0.8975 0.81089 0.0
C2325 C 0.47979 0.89683 0.80262 0.0
C2326 C 0.4216 0.90583 0.82685 0.0
C2327 C 0.4094 0.89359 0.82816 0.0
C2328 C 0.43523 0.90438 0.81986 0.0
C2329 C 0.437 0.89065 0.81416 0.0
C2330 C 0.425 0.87835 0.81592 0.0
C2331 C 0.41136 0.87982 0.82291 0.0
H2332 H 0.40522 0.23314 0.07109 0.0
H2333 H 0.35257 0.2187 0.06934 0.0
H2334 H 0.4098 0.21048 0.08151 0.0
H2335 H 0.35717 0.19623 0.08016 0.0
H2336 H 0.37008 0.15219 0.08947 0.0
H2337 H 0.36594 0.17365 0.07615 0.0
H2338 H 0.40817 0.19947 0.10494 0.0
H2339 H 0.41248 0.17785 0.11786 0.0
C2340 C 0.39461 0.2251 0.07286 0.0
C2341 C 0.37853 0.22777 0.06945 0.0
C2342 C 0.39724 0.21215 0.07895 0.0
C2343 C 0.38387 0.20157 0.08184 0.0
C2344 C 0.36776 0.20405 0.07796 0.0
C2345 C 0.36512 0.21698 0.0718 0.0
C2346 C 0.37853 0.16245 0.0928 0.0
C2347 C 0.39172 0.1634 0.10454 0.0
C2348 C 0.37612 0.17477 0.08526 0.0
C2349 C 0.38675 0.18831 0.08942 0.0
C2350 C 0.39993 0.18919 0.10122 0.0
C2351 C 0.40237 0.17686 0.1087 0.0
H2352 H 0.00842 0.9174 0.20593 0.0
H2353 H 0.03865 0.94435 0.24351 0.0
H2354 H 0.03276 0.90914 0.19941 0.0
H2355 H 0.0629 0.9359 0.23711 0.0
H2356 H 0.10467 0.93083 0.20991 0.0
H2357 H 0.08029 0.93861 0.21719 0.0
H2358 H 0.05282 0.8944 0.20868 0.0
H2359 H 0.07722 0.88675 0.2012 0.0
C2360 C 0.02023 0.9215 0.21285 0.0
C2361 C 0.0216 0.93157 0.22521 0.0
C2362 C 0.03416 0.9167 0.20916 0.0
C2363 C 0.04976 0.92188 0.21774 0.0
C2364 C 0.05109 0.93185 0.23017 0.0
C2365 C 0.03717 0.93663 0.23388 0.0
C2366 C 0.09345 0.92279 0.20979 0.0
C2367 C 0.09284 0.90816 0.20532 0.0
C2368 C 0.07952 0.92721 0.21397 0.0
C2369 C 0.06465 0.9171 0.21359 0.0
C2370 C 0.06405 0.90246 0.209 0.0
C2371 C 0.07801 0.89805 0.20486 0.0
H2372 H 0.36838 0.78284 0.41412 0.0
H2373 H 0.41501 0.81032 0.40953 0.0
H2374 H 0.35385 0.79808 0.39803 0.0
H2375 H 0.40042 0.82559 0.39354 0.0
H2376 H 0.36669 0.85695 0.37672 0.0
H2377 H 0.37984 0.84264 0.39513 0.0
H2378 H 0.35274 0.80301 0.37025 0.0
H2379 H 0.33968 0.81729 0.35188 0.0
C2380 C 0.37552 0.79218 0.40977 0.0
C2381 C 0.39284 0.79534 0.41303 0.0
C2382 C 0.3672 0.80087 0.40054 0.0
C2383 C 0.37602 0.813 0.39456 0.0
C2384 C 0.39331 0.81637 0.39812 0.0
C2385 C 0.40165 0.80757 0.40718 0.0
C2386 C 0.36342 0.84519 0.37533 0.0
C2387 C 0.35224 0.8382 0.36289 0.0
C2388 C 0.37101 0.83702 0.38577 0.0
C2389 C 0.36732 0.82173 0.38407 0.0
C2390 C 0.35572 0.81477 0.37189 0.0
C2391 C 0.34834 0.82293 0.36134 0.0
H2392 H 0.53412 0.11948 0.71823 0.0
H2393 H 0.52539 0.15911 0.73912 0.0
H2394 H 0.50513 0.11309 0.70708 0.0
H2395 H 0.49635 0.15262 0.72808 0.0
H2396 H 0.45195 0.14502 0.69004 0.0
H2397 H 0.48061 0.15077 0.70248 0.0
H2398 H 0.47706 0.10606 0.7136 0.0
H2399 H 0.4484 0.10037 0.701 0.0
C2400 C 0.52599 0.12676 0.72058 0.0
C2401 C 0.53209 0.13984 0.72951 0.0
C2402 C 0.50936 0.12306 0.71423 0.0
C2403 C 0.49848 0.1324 0.71661 0.0
C2404 C 0.50449 0.1453 0.72585 0.0
C2405 C 0.5211 0.14897 0.73227 0.0
C2406 C 0.45732 0.13648 0.69523 0.0
C2407 C 0.44798 0.12232 0.69482 0.0
C2408 C 0.47367 0.13976 0.7024 0.0
C2409 C 0.48105 0.12889 0.70915 0.0
C2410 C 0.47174 0.11465 0.70847 0.0
C2411 C 0.45536 0.1114 0.70135 0.0
H2412 H 0.13872 0.23755 0.96811 0.0
H2413 H 0.09589 0.20477 0.97232 0.0
H2414 H 0.15192 0.21878 0.95819 0.0
H2415 H 0.10922 0.18602 0.96255 0.0
H2416 H 0.14436 0.15498 0.95507 0.0
H2417 H 0.13486 0.17417 0.96885 0.0
H2418 H 0.14414 0.20261 0.93328 0.0
H2419 H 0.15345 0.18342 0.91949 0.0
C2420 C 0.13223 0.22633 0.96714 0.0
C2421 C 0.11622 0.22264 0.97091 0.0
C2422 C 0.13977 0.21561 0.96141 0.0
C2423 C 0.13157 0.20099 0.95959 0.0
C2424 C 0.11586 0.19721 0.96396 0.0
C2425 C 0.10821 0.20795 0.96947 0.0
C2426 C 0.1446 0.16543 0.95036 0.0
C2427 C 0.14958 0.16776 0.93624 0.0
C2428 C 0.13909 0.17634 0.95817 0.0
C2429 C 0.13876 0.18984 0.9521 0.0
C2430 C 0.1444 0.19235 0.93827 0.0
C2431 C 0.14963 0.18137 0.93036 0.0
H2432 H 0.30579 0.04168 0.15982 0.0
H2433 H 0.28009 0.05558 0.11976 0.0
H2434 H 0.32641 0.06406 0.16206 0.0
H2435 H 0.30049 0.07825 0.12227 0.0
H2436 H 0.35255 0.10575 0.1205 0.0
H2437 H 0.32883 0.0858 0.11903 0.0
H2438 H 0.33192 0.0898 0.1674 0.0
H2439 H 0.3559 0.10956 0.16882 0.0
C2440 C 0.30439 0.04962 0.15162 0.0
C2441 C 0.29136 0.0468 0.13956 0.0
C2442 C 0.31617 0.06253 0.15296 0.0
C2443 C 0.31516 0.07297 0.14232 0.0
C2444 C 0.3018 0.07035 0.13053 0.0
C2445 C 0.29005 0.05739 0.12914 0.0
C2446 C 0.34797 0.10252 0.13078 0.0
C2447 C 0.35614 0.10912 0.14478 0.0
C2448 C 0.33434 0.0911 0.12995 0.0
C2449 C 0.32852 0.0861 0.14311 0.0
C2450 C 0.33628 0.09317 0.15706 0.0
C2451 C 0.34997 0.10451 0.15789 0.0
H2452 H 0.78189 0.45959 0.81069 0.0
H2453 H 0.76534 0.45361 0.85381 0.0
H2454 H 0.79031 0.43612 0.81129 0.0
H2455 H 0.77336 0.42995 0.85423 0.0
H2456 H 0.80773 0.39698 0.858 0.0
H2457 H 0.79818 0.42006 0.85715 0.0
H2458 H 0.77994 0.41032 0.80979 0.0
H2459 H 0.78996 0.38747 0.81068 0.0
C2460 C 0.77987 0.45319 0.82022 0.0
C2461 C 0.77299 0.4585 0.83222 0.0
C2462 C 0.78463 0.43969 0.82054 0.0
C2463 C 0.78256 0.43115 0.83283 0.0
C2464 C 0.77538 0.43634 0.8447 0.0
C2465 C 0.77067 0.44987 0.84441 0.0
C2466 C 0.8016 0.39981 0.84747 0.0
C2467 C 0.79938 0.39044 0.83446 0.0
C2468 C 0.79605 0.41296 0.84697 0.0
C2469 C 0.7882 0.41702 0.83341 0.0
C2470 C 0.78606 0.40761 0.82038 0.0
C2471 C 0.79167 0.39448 0.82089 0.0
H2472 H 0.80379 0.56242 0.17307 0.0
H2473 H 0.77492 0.57744 0.13556 0.0
H2474 H 0.82861 0.57803 0.1673 0.0
H2475 H 0.79991 0.59288 0.12959 0.0
H2476 H 0.84524 0.63079 0.13537 0.0
H2477 H 0.81994 0.61471 0.13969 0.0
H2478 H 0.84704 0.58031 0.1486 0.0
H2479 H 0.87234 0.59643 0.14437 0.0
C2480 C 0.80274 0.56899 0.16353 0.0
C2481 C 0.78736 0.56869 0.15478 0.0
C2482 C 0.81701 0.57788 0.16016 0.0
C2483 C 0.81626 0.58666 0.14795 0.0
C2484 C 0.80088 0.58635 0.13917 0.0
C2485 C 0.78658 0.57746 0.14255 0.0
C2486 C 0.84574 0.61973 0.13806 0.0
C2487 C 0.86079 0.61489 0.13959 0.0
C2488 C 0.83124 0.61051 0.14053 0.0
C2489 C 0.83148 0.59625 0.14457 0.0
C2490 C 0.84649 0.59132 0.14578 0.0
C2491 C 0.86097 0.60054 0.14334 0.0
H2492 H 0.73169 0.55459 0.40997 0.0
H2493 H 0.76721 0.58137 0.44442 0.0
H2494 H 0.71712 0.57465 0.40611 0.0
H2495 H 0.75286 0.60147 0.44033 0.0
H2496 H 0.71507 0.63067 0.43875 0.0
H2497 H 0.72741 0.60934 0.44358 0.0
H2498 H 0.72139 0.59829 0.39575 0.0
H2499 H 0.70874 0.61945 0.39107 0.0
C2500 C 0.73638 0.56474 0.41673 0.0
C2501 C 0.75064 0.56639 0.42747 0.0
C2502 C 0.72808 0.57626 0.41446 0.0
C2503 C 0.73385 0.58968 0.42288 0.0
C2504 C 0.74796 0.59123 0.43379 0.0
C2505 C 0.75625 0.57972 0.43606 0.0
C2506 C 0.71644 0.62364 0.42933 0.0
C2507 C 0.71134 0.6268 0.41455 0.0
C2508 C 0.72352 0.61148 0.43206 0.0
C2509 C 0.72552 0.60218 0.42004 0.0
C2510 C 0.71993 0.60516 0.40526 0.0
C2511 C 0.71284 0.61732 0.40256 0.0
H2512 H 0.22062 0.95068 0.12122 0.0
H2513 H 0.20282 0.98875 0.13523 0.0
H2514 H 0.20103 0.93557 0.13428 0.0
H2515 H 0.18324 0.97349 0.14872 0.0
H2516 H 0.13768 0.9364 0.15358 0.0
H2517 H 0.15815 0.95436 0.14375 0.0
H2518 H 0.19607 0.93061 0.15936 0.0
H2519 H 0.17556 0.91257 0.16879 0.0
C2520 C 0.21259 0.95586 0.12719 0.0
C2521 C 0.21331 0.97094 0.12718 0.0
C2522 C 0.20142 0.94719 0.13481 0.0
C2523 C 0.19069 0.95333 0.14272 0.0
C2524 C 0.19131 0.96842 0.14269 0.0
C2525 C 0.20254 0.97716 0.135 0.0
C2526 C 0.15047 0.93523 0.15515 0.0
C2527 C 0.15504 0.92303 0.16176 0.0
C2528 C 0.16219 0.9455 0.14954 0.0
C2529 C 0.17869 0.94377 0.15053 0.0
C2530 C 0.18339 0.93206 0.15807 0.0
C2531 C 0.17169 0.92177 0.16353 0.0
H2532 H 0.21865 0.98592 0.68201 0.0
H2533 H 0.22234 0.96781 0.63792 0.0
H2534 H 0.20306 0.9625 0.68749 0.0
H2535 H 0.20682 0.94431 0.64353 0.0
H2536 H 0.18922 0.90129 0.66628 0.0
H2537 H 0.20815 0.92361 0.66212 0.0
H2538 H 0.1739 0.94916 0.67539 0.0
H2539 H 0.15472 0.92709 0.67889 0.0
C2540 C 0.21636 0.97689 0.67357 0.0
C2541 C 0.2216 0.97874 0.65948 0.0
C2542 C 0.20739 0.96351 0.6767 0.0
C2543 C 0.20367 0.95166 0.66589 0.0
C2544 C 0.20961 0.95327 0.65208 0.0
C2545 C 0.21841 0.96673 0.64886 0.0
C2546 C 0.18566 0.91165 0.6682 0.0
C2547 C 0.17045 0.91233 0.67305 0.0
C2548 C 0.19654 0.9244 0.66589 0.0
C2549 C 0.19253 0.93807 0.66859 0.0
C2550 C 0.17744 0.93877 0.67351 0.0
C2551 C 0.16648 0.92608 0.67559 0.0
H2552 H 0.86591 0.47658 0.41837 0.0
H2553 H 0.83054 0.48365 0.38103 0.0
H2554 H 0.87385 0.4578 0.40293 0.0
H2555 H 0.83854 0.46487 0.36559 0.0
H2556 H 0.8404 0.41617 0.35387 0.0
H2557 H 0.83471 0.43781 0.36652 0.0
H2558 H 0.88704 0.45373 0.37993 0.0
H2559 H 0.89272 0.43194 0.36732 0.0
C2560 C 0.85996 0.47424 0.40682 0.0
C2561 C 0.84751 0.48153 0.40096 0.0
C2562 C 0.86459 0.46355 0.39795 0.0
C2563 C 0.85678 0.45985 0.38307 0.0
C2564 C 0.84467 0.46742 0.37707 0.0
C2565 C 0.84014 0.47821 0.3859 0.0
C2566 C 0.85068 0.42436 0.35941 0.0
C2567 C 0.86699 0.42236 0.3597 0.0
C2568 C 0.84744 0.4368 0.36655 0.0
C2569 C 0.86043 0.44744 0.37425 0.0
C2570 C 0.87678 0.44564 0.37417 0.0
C2571 C 0.88004 0.43326 0.36688 0.0
H2572 H 0.72295 0.5643 0.86555 0.0
H2573 H 0.69633 0.52381 0.84195 0.0
H2574 H 0.69755 0.57364 0.86357 0.0
H2575 H 0.67071 0.53311 0.84022 0.0
H2576 H 0.6326 0.56179 0.82558 0.0
H2577 H 0.6576 0.55146 0.8276 0.0
H2578 H 0.67162 0.57018 0.87335 0.0
H2579 H 0.6468 0.58069 0.8711 0.0
C2580 C 0.71165 0.55734 0.86 0.0
C2581 C 0.71169 0.54329 0.85391 0.0
C2582 C 0.69705 0.56268 0.85896 0.0
C2583 C 0.68207 0.55411 0.8518 0.0
C2584 C 0.68207 0.54004 0.84568 0.0
C2585 C 0.69673 0.53468 0.84674 0.0
C2586 C 0.64101 0.56355 0.83607 0.0
C2587 C 0.63772 0.5718 0.84827 0.0
C2588 C 0.65526 0.55761 0.83727 0.0
C2589 C 0.66659 0.55995 0.85065 0.0
C2590 C 0.66325 0.56827 0.86284 0.0
C2591 C 0.649 0.5742 0.86162 0.0
H2592 H 0.88198 0.64708 0.99498 0.0
H2593 H 0.92923 0.67475 0.99276 0.0
H2594 H 0.88604 0.63121 0.97427 0.0
H2595 H 0.93321 0.6588 0.97192 0.0
H2596 H 0.93848 0.6184 0.94202 0.0
H2597 H 0.93661 0.63302 0.96473 0.0
H2598 H 0.88643 0.63527 0.94701 0.0
H2599 H 0.88836 0.62112 0.92433 0.0
C2600 C 0.89331 0.64971 0.99018 0.0
C2601 C 0.9052 0.66227 0.99542 0.0
C2602 C 0.89559 0.64064 0.97828 0.0
C2603 C 0.90985 0.64387 0.97138 0.0
C2604 C 0.92213 0.65603 0.97706 0.0
C2605 C 0.9198 0.66518 0.98894 0.0
C2606 C 0.9271 0.62211 0.94294 0.0
C2607 C 0.9135 0.61841 0.93142 0.0
C2608 C 0.92603 0.63043 0.95595 0.0
C2609 C 0.9113 0.6351 0.9577 0.0
C2610 C 0.89781 0.63153 0.94613 0.0
C2611 C 0.89892 0.62338 0.93313 0.0
H2612 H 0.06812 0.14101 0.72521 0.0
H2613 H 0.07821 0.0988 0.73571 0.0
H2614 H 0.07918 0.13894 0.70158 0.0
H2615 H 0.08946 0.09687 0.71217 0.0
H2616 H 0.12577 0.10897 0.67748 0.0
H2617 H 0.11465 0.11091 0.701 0.0
H2618 H 0.07065 0.12176 0.67701 0.0
H2619 H 0.0813 0.11917 0.65334 0.0
C2620 C 0.07274 0.13132 0.7225 0.0
C2621 C 0.07229 0.12005 0.7323 0.0
C2622 C 0.07899 0.13013 0.70896 0.0
C2623 C 0.08516 0.11776 0.7051 0.0
C2624 C 0.08487 0.10656 0.71495 0.0
C2625 C 0.07836 0.10764 0.72837 0.0
C2626 C 0.1136 0.11153 0.67713 0.0
C2627 C 0.10443 0.11385 0.66343 0.0
C2628 C 0.1073 0.11272 0.69063 0.0
C2629 C 0.09183 0.1165 0.69079 0.0
C2630 C 0.08271 0.11898 0.67719 0.0
C2631 C 0.08887 0.11756 0.66365 0.0
H2632 H 0.6533 0.32127 0.51609 0.0
H2633 H 0.60291 0.32709 0.50564 0.0
H2634 H 0.66317 0.34584 0.50921 0.0
H2635 H 0.6128 0.35183 0.49914 0.0
H2636 H 0.63622 0.38849 0.47195 0.0
H2637 H 0.62576 0.3643 0.4798 0.0
H2638 H 0.66562 0.37105 0.51712 0.0
H2639 H 0.67625 0.39505 0.5089 0.0
C2640 C 0.64432 0.32783 0.51243 0.0
C2641 C 0.62731 0.3222 0.51135 0.0
C2642 C 0.64999 0.34197 0.50858 0.0
C2643 C 0.63878 0.35083 0.50362 0.0
C2644 C 0.62177 0.34524 0.50271 0.0
C2645 C 0.6161 0.33107 0.5065 0.0
C2646 C 0.6426 0.38477 0.48189 0.0
C2647 C 0.65691 0.3936 0.48991 0.0
C2648 C 0.63661 0.37098 0.48644 0.0
C2649 C 0.64483 0.36573 0.49911 0.0
C2650 C 0.6591 0.37468 0.50721 0.0
C2651 C 0.66512 0.38846 0.5026 0.0
H2652 H 0.36594 0.83496 0.15198 0.0
H2653 H 0.31287 0.82092 0.14521 0.0
H2654 H 0.36364 0.85089 0.1314 0.0
H2655 H 0.31062 0.83671 0.12458 0.0
H2656 H 0.35305 0.86585 0.08341 0.0
H2657 H 0.35568 0.84952 0.10366 0.0
H2658 H 0.31486 0.863 0.12135 0.0
H2659 H 0.31199 0.87898 0.10098 0.0
C2660 C 0.3538 0.83523 0.14608 0.0
C2661 C 0.33958 0.82671 0.15027 0.0
C2662 C 0.35249 0.84429 0.13424 0.0
C2663 C 0.33695 0.84507 0.1264 0.0
C2664 C 0.32275 0.83648 0.13053 0.0
C2665 C 0.32406 0.82738 0.14231 0.0
C2666 C 0.34461 0.86525 0.0916 0.0
C2667 C 0.33235 0.87373 0.09063 0.0
C2668 C 0.34619 0.85601 0.10325 0.0
C2669 C 0.33546 0.85497 0.11409 0.0
C2670 C 0.32321 0.86345 0.11309 0.0
C2671 C 0.32169 0.87273 0.10152 0.0
H2672 H 0.77886 0.34205 0.45274 0.0
H2673 H 0.82805 0.3328 0.46002 0.0
H2674 H 0.78459 0.3566 0.47663 0.0
H2675 H 0.83388 0.34758 0.48383 0.0
H2676 H 0.83063 0.36068 0.53315 0.0
H2677 H 0.82558 0.34663 0.50884 0.0
H2678 H 0.80114 0.37933 0.4888 0.0
H2679 H 0.80599 0.39316 0.51322 0.0
C2680 C 0.79094 0.3432 0.45938 0.0
C2681 C 0.80298 0.33623 0.45448 0.0
C2682 C 0.79426 0.35161 0.47305 0.0
C2683 C 0.80969 0.35325 0.48215 0.0
C2684 C 0.82179 0.34639 0.47718 0.0
C2685 C 0.81848 0.33798 0.46349 0.0
C2686 C 0.82432 0.36486 0.52347 0.0
C2687 C 0.81895 0.37809 0.52491 0.0
C2688 C 0.82147 0.35688 0.50956 0.0
C2689 C 0.81304 0.3619 0.49686 0.0
C2690 C 0.80756 0.37511 0.49838 0.0
C2691 C 0.81043 0.38309 0.51229 0.0
H2692 H 0.48199 0.12139 0.30085 0.0
H2693 H 0.43321 0.12417 0.27923 0.0
H2694 H 0.47444 0.12742 0.32516 0.0
H2695 H 0.42576 0.13051 0.30362 0.0
H2696 H 0.41338 0.12471 0.35176 0.0
H2697 H 0.4205 0.11932 0.32692 0.0
H2698 H 0.46829 0.14756 0.33961 0.0
H2699 H 0.46119 0.15262 0.36451 0.0
C2700 C 0.46967 0.12338 0.30126 0.0
C2701 C 0.4582 0.12228 0.28808 0.0
C2702 C 0.46538 0.12693 0.31521 0.0
C2703 C 0.44951 0.12948 0.31634 0.0
C2704 C 0.43803 0.12844 0.30315 0.0
C2705 C 0.44233 0.12489 0.28917 0.0
C2706 C 0.42533 0.12982 0.34912 0.0
C2707 C 0.43666 0.13923 0.35988 0.0
C2708 C 0.4294 0.1268 0.33491 0.0
C2709 C 0.44494 0.13305 0.33126 0.0
C2710 C 0.45627 0.14246 0.3421 0.0
C2711 C 0.45219 0.14546 0.3563 0.0
H2712 H 0.60027 0.66941 0.02574 0.0
H2713 H 0.65279 0.67042 0.03323 0.0
H2714 H 0.59693 0.6547 0.04717 0.0
H2715 H 0.64949 0.65597 0.05483 0.0
H2716 H 0.63505 0.61743 0.08291 0.0
H2717 H 0.63794 0.63155 0.0609 0.0
H2718 H 0.60359 0.65698 0.07449 0.0
H2719 H 0.60054 0.6426 0.0963 0.0
C2720 C 0.61111 0.66653 0.03198 0.0
C2721 C 0.6268 0.67108 0.02777 0.0
C2722 C 0.60921 0.65817 0.04432 0.0
C2723 C 0.62294 0.65416 0.05272 0.0
C2724 C 0.63862 0.6587 0.04848 0.0
C2725 C 0.64053 0.66706 0.03615 0.0
C2726 C 0.62802 0.62595 0.08104 0.0
C2727 C 0.61731 0.62877 0.09105 0.0
C2728 C 0.62977 0.63411 0.06855 0.0
C2729 C 0.62094 0.64536 0.0659 0.0
C2730 C 0.61033 0.64823 0.07604 0.0
C2731 C 0.6086 0.64006 0.08853 0.0
H2732 H 0.06044 0.87838 0.84064 0.0
H2733 H 0.08033 0.92177 0.82926 0.0
H2734 H 0.08025 0.88192 0.86364 0.0
H2735 H 0.10059 0.92515 0.852 0.0
H2736 H 0.12548 0.93083 0.90116 0.0
H2737 H 0.10465 0.92823 0.87878 0.0
H2738 H 0.1089 0.88336 0.87117 0.0
H2739 H 0.12929 0.88592 0.8937 0.0
C2740 C 0.06907 0.88868 0.84305 0.0
C2741 C 0.06885 0.89977 0.83311 0.0
C2742 C 0.08053 0.89068 0.85618 0.0
C2743 C 0.09218 0.90377 0.85963 0.0
C2744 C 0.09172 0.91499 0.84981 0.0
C2745 C 0.08014 0.91303 0.83673 0.0
C2746 C 0.12199 0.92046 0.89461 0.0
C2747 C 0.12891 0.90855 0.89919 0.0
C2748 C 0.11008 0.91895 0.88179 0.0
C2749 C 0.10496 0.90554 0.87321 0.0
C2750 C 0.1122 0.89374 0.87768 0.0
C2751 C 0.12397 0.89522 0.89055 0.0
H2752 H 0.96616 0.90427 0.75397 0.0
H2753 H 0.97326 0.86239 0.73712 0.0
H2754 H 0.94047 0.90136 0.73635 0.0
H2755 H 0.94774 0.85963 0.71955 0.0
H2756 H 0.92162 0.8754 0.67592 0.0
H2757 H 0.94308 0.87509 0.69688 0.0
H2758 H 0.91088 0.88476 0.72794 0.0
H2759 H 0.8888 0.88438 0.70687 0.0
C2760 C 0.96209 0.89433 0.74675 0.0
C2761 C 0.97189 0.88366 0.74679 0.0
C2762 C 0.94736 0.89266 0.73672 0.0
C2763 C 0.94229 0.88036 0.72649 0.0
C2764 C 0.95151 0.86929 0.72721 0.0
C2765 C 0.96611 0.87088 0.7373 0.0
C2766 C 0.91881 0.87705 0.68718 0.0
C2767 C 0.9033 0.87972 0.68963 0.0
C2768 C 0.93121 0.87695 0.69921 0.0
C2769 C 0.92857 0.87977 0.71402 0.0
C2770 C 0.91319 0.88256 0.7166 0.0
C2771 C 0.90061 0.88241 0.70452 0.0
H2772 H 0.76782 0.21819 0.34692 0.0
H2773 H 0.79288 0.21829 0.39224 0.0
H2774 H 0.77383 0.19435 0.34096 0.0
H2775 H 0.79901 0.19444 0.38619 0.0
H2776 H 0.78694 0.14438 0.37343 0.0
H2777 H 0.78339 0.16906 0.38018 0.0
H2778 H 0.79758 0.18279 0.33787 0.0
H2779 H 0.80098 0.15812 0.33116 0.0
C2780 C 0.77468 0.21316 0.35559 0.0
C2781 C 0.77984 0.22012 0.37006 0.0
C2782 C 0.77822 0.19954 0.35214 0.0
C2783 C 0.78691 0.19253 0.3631 0.0
C2784 C 0.79216 0.19952 0.37756 0.0
C2785 C 0.78871 0.2132 0.38099 0.0
C2786 C 0.7894 0.15275 0.36568 0.0
C2787 C 0.79405 0.14939 0.35175 0.0
C2788 C 0.78745 0.16686 0.36954 0.0
C2789 C 0.7901 0.17783 0.3595 0.0
C2790 C 0.79521 0.17451 0.34573 0.0
C2791 C 0.79723 0.16043 0.34192 0.0
H2792 H 0.57244 0.12093 0.20673 0.0
H2793 H 0.57406 0.0753 0.20063 0.0
H2794 H 0.59361 0.12676 0.19049 0.0
H2795 H 0.59557 0.08128 0.18461 0.0
H2796 H 0.64698 0.10517 0.17051 0.0
H2797 H 0.62694 0.09815 0.18766 0.0
H2798 H 0.59193 0.11862 0.16101 0.0
H2799 H 0.61136 0.12493 0.1434 0.0
C2800 C 0.57747 0.11217 0.20209 0.0
C2801 C 0.57155 0.09765 0.20489 0.0
C2802 C 0.58952 0.11552 0.19277 0.0
C2803 C 0.59612 0.10445 0.18632 0.0
C2804 C 0.59068 0.08998 0.18952 0.0
C2805 C 0.57835 0.08659 0.19862 0.0
C2806 C 0.63492 0.10797 0.16813 0.0
C2807 C 0.63091 0.11578 0.15561 0.0
C2808 C 0.62352 0.10401 0.17801 0.0
C2809 C 0.60804 0.10802 0.17569 0.0
C2810 C 0.60392 0.11563 0.16314 0.0
C2811 C 0.61514 0.11933 0.15313 0.0
H2812 H 0.60574 0.7317 0.87862 0.0
H2813 H 0.6298 0.76058 0.91728 0.0
H2814 H 0.60416 0.75263 0.86377 0.0
H2815 H 0.62788 0.78149 0.90254 0.0
H2816 H 0.6385 0.81412 0.86688 0.0
H2817 H 0.63961 0.79339 0.88222 0.0
H2818 H 0.59032 0.7731 0.86117 0.0
H2819 H 0.58951 0.79375 0.84561 0.0
C2820 C 0.61062 0.74251 0.88398 0.0
C2821 C 0.61794 0.74446 0.89913 0.0
C2822 C 0.60962 0.75452 0.87549 0.0
C2823 C 0.61589 0.76875 0.88196 0.0
C2824 C 0.62313 0.77068 0.89714 0.0
C2825 C 0.62416 0.75868 0.90561 0.0
C2826 C 0.62796 0.80518 0.86556 0.0
C2827 C 0.61406 0.80533 0.8549 0.0
C2828 C 0.62852 0.79337 0.8744 0.0
C2829 C 0.61509 0.78151 0.87286 0.0
C2830 C 0.60099 0.7819 0.86244 0.0
C2831 C 0.60047 0.79372 0.85359 0.0
H2832 H 0.98884 0.12363 0.79359 0.0
H2833 H 0.97998 0.08037 0.80926 0.0
H2834 H 0.9657 0.12915 0.80513 0.0
H2835 H 0.95715 0.08598 0.82102 0.0
H2836 H 0.91148 0.0971 0.8356 0.0
H2837 H 0.92977 0.09167 0.81794 0.0
H2838 H 0.96184 0.13348 0.83107 0.0
H2839 H 0.94333 0.13892 0.8484 0.0
C2840 C 0.98182 0.11523 0.79929 0.0
C2841 C 0.98638 0.10161 0.80066 0.0
C2842 C 0.96862 0.11843 0.80599 0.0
C2843 C 0.95969 0.10808 0.81416 0.0
C2844 C 0.96366 0.09418 0.81473 0.0
C2845 C 0.97684 0.09099 0.80805 0.0
C2846 C 0.92238 0.10514 0.83453 0.0
C2847 C 0.92628 0.11826 0.84354 0.0
C2848 C 0.93285 0.10204 0.82449 0.0
C2849 C 0.94736 0.11207 0.82321 0.0
C2850 C 0.95072 0.12555 0.83167 0.0
C2851 C 0.94023 0.12864 0.84169 0.0
H2852 H 0.64401 0.22039 0.5547 0.0
H2853 H 0.60469 0.18429 0.55926 0.0
H2854 H 0.66292 0.21031 0.57256 0.0
H2855 H 0.62359 0.17427 0.57707 0.0
H2856 H 0.6643 0.15417 0.6004 0.0
H2857 H 0.64913 0.16357 0.57908 0.0
H2858 H 0.66476 0.20712 0.6003 0.0
H2859 H 0.68008 0.19773 0.62153 0.0
C2860 C 0.63945 0.21023 0.55938 0.0
C2861 C 0.62283 0.20317 0.55563 0.0
C2862 C 0.65027 0.2045 0.56964 0.0
C2863 C 0.64473 0.19152 0.5762 0.0
C2864 C 0.62826 0.18421 0.57206 0.0
C2865 C 0.61741 0.19001 0.56194 0.0
C2866 C 0.66481 0.16579 0.60033 0.0
C2867 C 0.67331 0.17523 0.61263 0.0
C2868 C 0.65601 0.17114 0.5882 0.0
C2869 C 0.65567 0.18605 0.58808 0.0
C2870 C 0.66488 0.19559 0.60003 0.0
C2871 C 0.67355 0.19022 0.61222 0.0
H2872 H 0.43715 0.80376 0.272 0.0
H2873 H 0.43237 0.84842 0.267 0.0
H2874 H 0.46171 0.81195 0.29059 0.0
H2875 H 0.45673 0.85658 0.28583 0.0
H2876 H 0.51122 0.86621 0.30747 0.0
H2877 H 0.48641 0.85817 0.28894 0.0
H2878 H 0.47005 0.82287 0.316 0.0
H2879 H 0.49508 0.83081 0.33429 0.0
C2880 C 0.44128 0.81532 0.27492 0.0
C2881 C 0.43281 0.82543 0.26799 0.0
C2882 C 0.45531 0.82001 0.28565 0.0
C2883 C 0.46119 0.83492 0.28971 0.0
C2884 C 0.45267 0.84503 0.28281 0.0
C2885 C 0.43865 0.84034 0.27207 0.0
C2886 C 0.5022 0.85682 0.30945 0.0
C2887 C 0.50482 0.84927 0.32238 0.0
C2888 C 0.48799 0.85223 0.2989 0.0
C2889 C 0.47619 0.83992 0.30103 0.0
C2890 C 0.47895 0.83232 0.31396 0.0
C2891 C 0.49317 0.83691 0.32449 0.0
H2892 H 0.84283 0.77312 0.06257 0.0
H2893 H 0.88982 0.79466 0.05151 0.0
H2894 H 0.84208 0.79435 0.07898 0.0
H2895 H 0.88897 0.81592 0.06786 0.0
H2896 H 0.87062 0.8563 0.08602 0.0
H2897 H 0.87118 0.83542 0.06902 0.0
H2898 H 0.85909 0.80652 0.10359 0.0
H2899 H 0.85877 0.82744 0.12071 0.0
C2900 C 0.85294 0.78242 0.06356 0.0
C2901 C 0.86641 0.78221 0.05578 0.0
C2902 C 0.85255 0.79452 0.07302 0.0
C2903 C 0.8655 0.80673 0.07471 0.0
C2904 C 0.87879 0.80667 0.06668 0.0
C2905 C 0.87929 0.79449 0.05738 0.0
C2906 C 0.86836 0.84551 0.09008 0.0
C2907 C 0.86516 0.84349 0.10487 0.0
C2908 C 0.86863 0.83358 0.08033 0.0
C2909 C 0.86527 0.81939 0.08504 0.0
C2910 C 0.86169 0.81735 0.09968 0.0
C2911 C 0.86163 0.82929 0.10949 0.0
H2912 H 0.6943 0.94763 0.8778 0.0
H2913 H 0.69499 0.92567 0.91893 0.0
H2914 H 0.67502 0.92678 0.86462 0.0
H2915 H 0.6764 0.90438 0.90561 0.0
H2916 H 0.62888 0.87534 0.88107 0.0
H2917 H 0.64915 0.89544 0.89478 0.0
H2918 H 0.67186 0.90305 0.85467 0.0
H2919 H 0.65095 0.88348 0.84091 0.0
C2920 C 0.69049 0.93823 0.88398 0.0
C2921 C 0.69611 0.9383 0.8994 0.0
C2922 C 0.67951 0.92619 0.87639 0.0
C2923 C 0.67412 0.91376 0.88398 0.0
C2924 C 0.67999 0.9138 0.89941 0.0
C2925 C 0.69075 0.92597 0.90705 0.0
C2926 C 0.63832 0.88129 0.87529 0.0
C2927 C 0.63836 0.87797 0.85996 0.0
C2928 C 0.65001 0.89278 0.88314 0.0
C2929 C 0.66217 0.90102 0.87586 0.0
C2930 C 0.66248 0.89725 0.8606 0.0
C2931 C 0.6506 0.88596 0.85271 0.0
H2932 H 0.19225 0.55522 0.04971 0.0
H2933 H 0.22374 0.5542 0.09181 0.0
H2934 H 0.18156 0.57516 0.06047 0.0
H2935 H 0.21318 0.57428 0.10249 0.0
H2936 H 0.17537 0.5979 0.12087 0.0
H2937 H 0.1872 0.57852 0.11018 0.0
H2938 H 0.19043 0.60098 0.0695 0.0
H2939 H 0.17841 0.62023 0.08021 0.0
C2940 C 0.19697 0.5593 0.06123 0.0
C2941 C 0.20882 0.5531 0.06992 0.0
C2942 C 0.1909 0.57079 0.06736 0.0
C2943 C 0.19651 0.57628 0.08233 0.0
C2944 C 0.20847 0.57016 0.09098 0.0
C2945 C 0.21459 0.55871 0.08483 0.0
C2946 C 0.17859 0.5986 0.10963 0.0
C2947 C 0.17572 0.61033 0.10122 0.0
C2948 C 0.18546 0.58761 0.10355 0.0
C2949 C 0.18967 0.58819 0.08896 0.0
C2950 C 0.18706 0.60011 0.08067 0.0
C2951 C 0.18024 0.61112 0.08679 0.0
H2952 H 0.19547 0.4034 0.8499 0.0
H2953 H 0.16691 0.4298 0.87149 0.0
H2954 H 0.17033 0.38547 0.84095 0.0
H2955 H 0.14198 0.41173 0.86305 0.0
H2956 H 0.09717 0.38079 0.84146 0.0
H2957 H 0.12189 0.39973 0.84285 0.0
H2958 H 0.15229 0.36768 0.85198 0.0
H2959 H 0.12764 0.34871 0.84975 0.0
C2960 C 0.18383 0.40542 0.85266 0.0
C2961 C 0.18322 0.41796 0.86153 0.0
C2962 C 0.16942 0.39511 0.84759 0.0
C2963 C 0.1541 0.39707 0.85135 0.0
C2964 C 0.15347 0.40991 0.85972 0.0
C2965 C 0.16783 0.42025 0.8647 0.0
C2966 C 0.10913 0.37773 0.84332 0.0
C2967 C 0.11043 0.36327 0.84571 0.0
C2968 C 0.12332 0.38862 0.84431 0.0
C2969 C 0.13912 0.3853 0.84779 0.0
C2970 C 0.14038 0.37068 0.84922 0.0
C2971 C 0.12622 0.3598 0.84813 0.0
H2972 H 0.26405 0.44067 0.59209 0.0
H2973 H 0.30072 0.44726 0.56218 0.0
H2974 H 0.27951 0.42472 0.60628 0.0
H2975 H 0.31619 0.43143 0.57647 0.0
H2976 H 0.34742 0.41487 0.61598 0.0
H2977 H 0.33201 0.43171 0.60317 0.0
H2978 H 0.28684 0.39978 0.60057 0.0
H2979 H 0.30224 0.38295 0.61333 0.0
C2980 C 0.27542 0.43875 0.58858 0.0
C2981 C 0.28115 0.44518 0.576 0.0
C2982 C 0.28422 0.42959 0.59667 0.0
C2983 C 0.29904 0.42689 0.59248 0.0
C2984 C 0.30487 0.43345 0.58002 0.0
C2985 C 0.29596 0.44242 0.57179 0.0
C2986 C 0.33418 0.41154 0.61279 0.0
C2987 C 0.326 0.39762 0.61559 0.0
C2988 C 0.3254 0.4211 0.60538 0.0
C2989 C 0.30826 0.41701 0.60086 0.0
C2990 C 0.30003 0.40323 0.60402 0.0
C2991 C 0.30884 0.39359 0.61121 0.0
H2992 H 0.77401 0.06462 0.87531 0.0
H2993 H 0.81004 0.052 0.90874 0.0
H2994 H 0.79547 0.08366 0.86841 0.0
H2995 H 0.83133 0.07109 0.90199 0.0
H2996 H 0.86851 0.09522 0.87486 0.0
H2997 H 0.84642 0.07639 0.88083 0.0
H2998 H 0.81363 0.10702 0.87871 0.0
H2999 H 0.83567 0.12582 0.87225 0.0
C3000 C 0.78648 0.06593 0.88122 0.0
C3001 C 0.79032 0.05675 0.89254 0.0
C3002 C 0.79875 0.07689 0.87731 0.0
C3003 C 0.81511 0.07884 0.88461 0.0
C3004 C 0.81889 0.06973 0.896 0.0
C3005 C 0.80665 0.05883 0.89992 0.0
C3006 C 0.85653 0.0979 0.87546 0.0
C3007 C 0.85383 0.11201 0.87303 0.0
C3008 C 0.84392 0.08715 0.87906 0.0
C3009 C 0.8283 0.09023 0.88033 0.0
C3010 C 0.8255 0.10429 0.87772 0.0
C3011 C 0.83816 0.11508 0.87416 0.0
H3012 H 0.74868 0.01701 0.38222 0.0
H3013 H 0.76795 0.99969 0.34464 0.0
H3014 H 0.76401 0.04137 0.37894 0.0
H3015 H 0.78351 0.02398 0.34162 0.0
H3016 H 0.82319 0.06679 0.35535 0.0
H3017 H 0.80786 0.04261 0.35889 0.0
H3018 H 0.76292 0.0593 0.35675 0.0
H3019 H 0.77787 0.08329 0.35234 0.0
C3020 C 0.75619 0.0184 0.37329 0.0
C3021 C 0.75709 0.00647 0.36366 0.0
C3022 C 0.76491 0.03232 0.37141 0.0
C3023 C 0.77495 0.03447 0.36007 0.0
C3024 C 0.77594 0.02255 0.35051 0.0
C3025 C 0.76696 0.0087 0.35219 0.0
C3026 C 0.81001 0.06533 0.35543 0.0
C3027 C 0.80183 0.07709 0.35352 0.0
C3028 C 0.80128 0.05149 0.35755 0.0
C3029 C 0.78426 0.04916 0.3581 0.0
C3030 C 0.77609 0.06088 0.35651 0.0
C3031 C 0.78473 0.07466 0.3541 0.0
H3032 H 0.22044 0.53591 0.62425 0.0
H3033 H 0.24983 0.57399 0.60907 0.0
H3034 H 0.2064 0.55143 0.6381 0.0
H3035 H 0.23598 0.58953 0.62318 0.0
H3036 H 0.19339 0.61087 0.63495 0.0
H3037 H 0.20878 0.59574 0.62194 0.0
H3038 H 0.21075 0.5689 0.65967 0.0
H3039 H 0.19507 0.58393 0.67246 0.0
C3040 C 0.22401 0.5476 0.62396 0.0
C3041 C 0.23622 0.5537 0.6155 0.0
C3042 C 0.21602 0.5565 0.63198 0.0
C3043 C 0.22004 0.57172 0.63173 0.0
C3044 C 0.23243 0.57783 0.62344 0.0
C3045 C 0.24043 0.56893 0.61542 0.0
C3046 C 0.1973 0.60181 0.64046 0.0
C3047 C 0.19337 0.59868 0.65478 0.0
C3048 C 0.20614 0.59318 0.63308 0.0
C3049 C 0.21108 0.58115 0.6398 0.0
C3050 C 0.20704 0.57801 0.65413 0.0
C3051 C 0.1982 0.58666 0.66151 0.0
H3052 H 0.28466 0.47351 0.12721 0.0
H3053 H 0.254 0.43116 0.11367 0.0
H3054 H 0.30623 0.46201 0.13952 0.0
H3055 H 0.27545 0.41966 0.12631 0.0
H3056 H 0.32507 0.40459 0.13439 0.0
H3057 H 0.30269 0.41588 0.12298 0.0
H3058 H 0.31311 0.44818 0.16059 0.0
H3059 H 0.33573 0.43702 0.17171 0.0
C3060 C 0.28244 0.46175 0.127 0.0
C3061 C 0.26762 0.45325 0.1194 0.0
C3062 C 0.29479 0.45515 0.13413 0.0
C3063 C 0.29261 0.43991 0.13387 0.0
C3064 C 0.27764 0.43142 0.12653 0.0
C3065 C 0.2653 0.43802 0.11936 0.0
C3066 C 0.32245 0.41406 0.14019 0.0
C3067 C 0.33193 0.41987 0.15395 0.0
C3068 C 0.30961 0.42048 0.13374 0.0
C3069 C 0.30604 0.4329 0.14091 0.0
C3070 C 0.31562 0.43871 0.1547 0.0
C3071 C 0.32848 0.43229 0.16112 0.0
H3072 H 0.63368 0.80321 0.52076 0.0
H3073 H 0.67875 0.82426 0.50571 0.0
H3074 H 0.63884 0.82122 0.5421 0.0
H3075 H 0.68397 0.84214 0.52716 0.0
H3076 H 0.66962 0.88241 0.54997 0.0
H3077 H 0.66966 0.86212 0.53232 0.0
H3078 H 0.65699 0.83202 0.56574 0.0
H3079 H 0.65726 0.85246 0.58367 0.0
C3080 C 0.64486 0.81149 0.52217 0.0
C3081 C 0.65567 0.81244 0.51139 0.0
C3082 C 0.64786 0.82176 0.53445 0.0
C3083 C 0.6617 0.8332 0.53619 0.0
C3084 C 0.67305 0.83359 0.52596 0.0
C3085 C 0.67009 0.8233 0.51371 0.0
C3086 C 0.66727 0.87152 0.55375 0.0
C3087 C 0.66347 0.8691 0.56828 0.0
C3088 C 0.66727 0.85986 0.5436 0.0
C3089 C 0.66336 0.84547 0.54765 0.0
C3090 C 0.65992 0.843 0.56227 0.0
C3091 C 0.66002 0.8547 0.5725 0.0
H3092 H 0.4047 0.42308 0.80996 0.0
H3093 H 0.42763 0.3856 0.81463 0.0
H3094 H 0.38827 0.41519 0.82949 0.0
H3095 H 0.41158 0.37793 0.8346 0.0
H3096 H 0.36719 0.36081 0.85861 0.0
H3097 H 0.38414 0.36819 0.83912 0.0
H3098 H 0.39068 0.41315 0.85582 0.0
H3099 H 0.37343 0.40576 0.87495 0.0
C3100 C 0.40634 0.41321 0.81525 0.0
C3101 C 0.41748 0.40498 0.81075 0.0
C3102 C 0.39698 0.40872 0.82653 0.0
C3103 C 0.39863 0.39595 0.8337 0.0
C3104 C 0.40982 0.38772 0.8292 0.0
C3105 C 0.4191 0.39216 0.81781 0.0
C3106 C 0.37235 0.37225 0.85812 0.0
C3107 C 0.36887 0.38272 0.86819 0.0
C3108 C 0.3821 0.37649 0.847 0.0
C3109 C 0.38869 0.39129 0.84581 0.0
C3110 C 0.3855 0.4017 0.85615 0.0
C3111 C 0.37566 0.39747 0.86716 0.0
H3112 H 0.86681 0.19495 0.98739 0.0
H3113 H 0.91823 0.19438 0.00207 0.0
H3114 H 0.85888 0.17757 0.00568 0.0
H3115 H 0.91026 0.1768 0.02019 0.0
H3116 H 0.89018 0.15942 0.06248 0.0
H3117 H 0.8985 0.17614 0.04358 0.0
H3118 H 0.85852 0.15217 0.01098 0.0
H3119 H 0.85012 0.13565 0.03003 0.0
C3120 C 0.87642 0.19105 0.99445 0.0
C3121 C 0.89316 0.19609 0.99331 0.0
C3122 C 0.87187 0.18102 0.00487 0.0
C3123 C 0.88395 0.17582 0.0144 0.0
C3124 C 0.90067 0.18074 0.01314 0.0
C3125 C 0.90523 0.19076 0.0027 0.0
C3126 C 0.88318 0.15783 0.05127 0.0
C3127 C 0.86933 0.14652 0.04773 0.0
C3128 C 0.88799 0.16729 0.04043 0.0
C3129 C 0.87911 0.16552 0.0258 0.0
C3130 C 0.86544 0.15397 0.02221 0.0
C3131 C 0.86065 0.14451 0.03306 0.0
H3132 H 0.09837 0.6529 0.29287 0.0
H3133 H 0.07155 0.60851 0.29075 0.0
H3134 H 0.10956 0.65112 0.31914 0.0
H3135 H 0.08253 0.60688 0.31711 0.0
H3136 H 0.09313 0.61682 0.36921 0.0
H3137 H 0.08079 0.61983 0.34348 0.0
H3138 H 0.12942 0.6349 0.33194 0.0
H3139 H 0.14173 0.63166 0.35756 0.0
C3140 C 0.09476 0.64282 0.29804 0.0
C3141 C 0.08413 0.63083 0.28975 0.0
C3142 C 0.1012 0.6418 0.31304 0.0
C3143 C 0.09687 0.62887 0.3201 0.0
C3144 C 0.08595 0.61699 0.31193 0.0
C3145 C 0.07976 0.61791 0.29685 0.0
C3146 C 0.10112 0.62088 0.36118 0.0
C3147 C 0.11834 0.624 0.36529 0.0
C3148 C 0.09409 0.62252 0.34649 0.0
C3149 C 0.10418 0.62759 0.33579 0.0
C3150 C 0.12138 0.63106 0.34003 0.0
C3151 C 0.12841 0.62915 0.35461 0.0
H3152 H 0.62421 0.18496 0.99614 0.0
H3153 H 0.67314 0.18612 0.01997 0.0
H3154 H 0.63003 0.1697 0.97571 0.0
H3155 H 0.67903 0.17107 0.99942 0.0
H3156 H 0.67843 0.13261 0.96623 0.0
H3157 H 0.67131 0.14644 0.98723 0.0
H3158 H 0.64726 0.17204 0.9558 0.0
H3159 H 0.65419 0.15799 0.93489 0.0
C3160 C 0.63621 0.18196 0.99704 0.0
C3161 C 0.64823 0.18679 0.00968 0.0
C3162 C 0.63957 0.17327 0.98528 0.0
C3163 C 0.65501 0.16921 0.98591 0.0
C3164 C 0.66695 0.17387 0.99866 0.0
C3165 C 0.6636 0.18257 0.0104 0.0
C3166 C 0.67166 0.14123 0.96389 0.0
C3167 C 0.66712 0.14448 0.94903 0.0
C3168 C 0.66762 0.14917 0.97587 0.0
C3169 C 0.65882 0.16041 0.97319 0.0
C3170 C 0.65394 0.16339 0.95825 0.0
C3171 C 0.658 0.15545 0.94629 0.0
H3172 H 0.05992 0.41016 0.20896 0.0
H3173 H 0.04918 0.36329 0.20158 0.0
H3174 H 0.07161 0.41208 0.1856 0.0
H3175 H 0.06124 0.3652 0.17841 0.0
H3176 H 0.06866 0.37497 0.13005 0.0
H3177 H 0.05651 0.37277 0.15324 0.0
H3178 H 0.09546 0.40741 0.17519 0.0
H3179 H 0.10728 0.40978 0.15179 0.0
C3180 C 0.06006 0.40026 0.20236 0.0
C3181 C 0.0536 0.38657 0.20714 0.0
C3182 C 0.06688 0.40136 0.18902 0.0
C3183 C 0.06745 0.38879 0.18015 0.0
C3184 C 0.06084 0.3751 0.18487 0.0
C3185 C 0.05398 0.37401 0.1982 0.0
C3186 C 0.07457 0.38209 0.13986 0.0
C3187 C 0.08876 0.39267 0.13915 0.0
C3188 C 0.06769 0.38079 0.15316 0.0
C3189 C 0.07494 0.38997 0.16607 0.0
C3190 C 0.08938 0.40035 0.16539 0.0
C3191 C 0.09622 0.40166 0.15206 0.0
H3192 H 0.90167 0.81962 0.47667 0.0
H3193 H 0.92335 0.86446 0.49127 0.0
H3194 H 0.89376 0.8268 0.45137 0.0
H3195 H 0.91536 0.8716 0.466 0.0
H3196 H 0.88158 0.87954 0.42329 0.0
H3197 H 0.88864 0.87202 0.44862 0.0
H3198 H 0.90884 0.83717 0.43023 0.0
H3199 H 0.90194 0.84483 0.40488 0.0
C3200 C 0.90469 0.831 0.4745 0.0
C3201 C 0.91315 0.84148 0.48596 0.0
C3202 C 0.90024 0.83509 0.46 0.0
C3203 C 0.90396 0.84974 0.45675 0.0
C3204 C 0.91222 0.86024 0.46825 0.0
C3205 C 0.91686 0.85614 0.48268 0.0
C3206 C 0.8877 0.87038 0.4247 0.0
C3207 C 0.89169 0.86302 0.4122 0.0
C3208 C 0.89171 0.86608 0.43917 0.0
C3209 C 0.89941 0.8541 0.44137 0.0
C3210 C 0.90289 0.84644 0.42883 0.0
C3211 C 0.89906 0.85086 0.41437 0.0
H3212 H 0.4439 0.59201 0.68906 0.0
H3213 H 0.41735 0.62463 0.70237 0.0
H3214 H 0.43232 0.59322 0.66283 0.0
H3215 H 0.40556 0.6256 0.67629 0.0
H3216 H 0.39566 0.63188 0.62672 0.0
H3217 H 0.41149 0.63258 0.65172 0.0
H3218 H 0.40527 0.58573 0.64773 0.0
H3219 H 0.39004 0.5851 0.62255 0.0
C3220 C 0.4357 0.59951 0.68639 0.0
C3221 C 0.43146 0.60815 0.69782 0.0
C3222 C 0.42899 0.60014 0.67137 0.0
C3223 C 0.41793 0.60944 0.66748 0.0
C3224 C 0.41417 0.61843 0.67887 0.0
C3225 C 0.42086 0.6178 0.69385 0.0
C3226 C 0.3979 0.62176 0.63109 0.0
C3227 C 0.39149 0.60843 0.62269 0.0
C3228 C 0.40684 0.62215 0.64547 0.0
C3229 C 0.40959 0.60921 0.65176 0.0
C3230 C 0.40353 0.59591 0.64319 0.0
C3231 C 0.3946 0.59553 0.62883 0.0
H3232 H 0.51164 0.59897 0.76224 0.0
H3233 H 0.51184 0.64147 0.78293 0.0
H3234 H 0.53677 0.59766 0.77929 0.0
H3235 H 0.53677 0.64003 0.80001 0.0
H3236 H 0.56553 0.62102 0.8398 0.0
H3237 H 0.54204 0.62313 0.82137 0.0
H3238 H 0.5676 0.6114 0.78556 0.0
H3239 H 0.59156 0.60989 0.80394 0.0
C3240 C 0.5171 0.60806 0.77034 0.0
C3241 C 0.50974 0.6203 0.77128 0.0
C3242 C 0.5315 0.60733 0.78004 0.0
C3243 C 0.53861 0.61871 0.791 0.0
C3244 C 0.53143 0.63105 0.79174 0.0
C3245 C 0.51721 0.63189 0.78191 0.0
C3246 C 0.56635 0.61914 0.82801 0.0
C3247 C 0.58059 0.61542 0.8234 0.0
C3248 C 0.55283 0.62028 0.81746 0.0
C3249 C 0.55307 0.61751 0.80206 0.0
C3250 C 0.5671 0.61353 0.79739 0.0
C3251 C 0.58077 0.61259 0.80794 0.0
H3252 H 0.591 0.27549 0.10297 0.0
H3253 H 0.63641 0.30747 0.10803 0.0
H3254 H 0.57986 0.29065 0.11997 0.0
H3255 H 0.62505 0.32297 0.12449 0.0
H3256 H 0.60679 0.3411 0.16503 0.0
H3257 H 0.61787 0.32537 0.14863 0.0
H3258 H 0.5696 0.31227 0.12193 0.0
H3259 H 0.55839 0.32748 0.13893 0.0
C3260 C 0.59855 0.28583 0.10762 0.0
C3261 C 0.6146 0.29027 0.10419 0.0
C3262 C 0.59212 0.29458 0.1173 0.0
C3263 C 0.60152 0.30808 0.12365 0.0
C3264 C 0.61754 0.31254 0.12008 0.0
C3265 C 0.62404 0.3037 0.11055 0.0
C3266 C 0.59848 0.33466 0.15583 0.0
C3267 C 0.58158 0.33515 0.15353 0.0
C3268 C 0.60488 0.32577 0.14626 0.0
C3269 C 0.59464 0.31745 0.13394 0.0
C3270 C 0.5778 0.31823 0.13149 0.0
C3271 C 0.57137 0.32698 0.14117 0.0
H3272 H 0.97103 0.34989 0.2975 0.0
H3273 H 0.97491 0.38318 0.2658 0.0
H3274 H 0.94698 0.35765 0.30515 0.0
H3275 H 0.95057 0.39079 0.2733 0.0
H3276 H 0.92079 0.41142 0.30539 0.0
H3277 H 0.94349 0.40298 0.29543 0.0
H3278 H 0.9183 0.35841 0.29659 0.0
H3279 H 0.8958 0.36696 0.30682 0.0
C3280 C 0.96665 0.35877 0.29204 0.0
C3281 C 0.97495 0.36595 0.28108 0.0
C3282 C 0.95278 0.36317 0.29637 0.0
C3283 C 0.94687 0.37487 0.28986 0.0
C3284 C 0.95495 0.38186 0.27867 0.0
C3285 C 0.96883 0.37744 0.2743 0.0
C3286 C 0.92009 0.39984 0.30332 0.0
C3287 C 0.90649 0.38981 0.3066 0.0
C3288 C 0.93302 0.395 0.29757 0.0
C3289 C 0.93268 0.38002 0.29515 0.0
C3290 C 0.919 0.37001 0.29843 0.0
C3291 C 0.90608 0.37487 0.30416 0.0
H3292 H 0.93234 0.76045 0.59857 0.0
H3293 H 0.8792 0.75001 0.59567 0.0
H3294 H 0.93408 0.73671 0.60772 0.0
H3295 H 0.88099 0.72634 0.60517 0.0
H3296 H 0.88983 0.67928 0.60389 0.0
H3297 H 0.88745 0.70362 0.59646 0.0
H3298 H 0.93033 0.72214 0.62893 0.0
H3299 H 0.93285 0.6977 0.63602 0.0
C3300 C 0.92103 0.75316 0.60004 0.0
C3301 C 0.90562 0.75711 0.59631 0.0
C3302 C 0.92204 0.73956 0.60538 0.0
C3303 C 0.90767 0.72959 0.60714 0.0
C3304 C 0.89228 0.73368 0.60373 0.0
C3305 C 0.89126 0.74728 0.59837 0.0
C3306 C 0.89874 0.68859 0.60936 0.0
C3307 C 0.91172 0.68668 0.62028 0.0
C3308 C 0.89731 0.70253 0.60523 0.0
C3309 C 0.90875 0.71484 0.61205 0.0
C3310 C 0.92149 0.71289 0.62327 0.0
C3311 C 0.92292 0.69894 0.62737 0.0
H3312 H 0.50953 0.41438 0.68626 0.0
H3313 H 0.48945 0.37103 0.69771 0.0
H3314 H 0.52844 0.40459 0.67214 0.0
H3315 H 0.50859 0.3613 0.68386 0.0
H3316 H 0.53449 0.34701 0.64592 0.0
H3317 H 0.5145 0.35709 0.65855 0.0
H3318 H 0.55276 0.39388 0.67683 0.0
H3319 H 0.57255 0.38386 0.6639 0.0
C3320 C 0.50914 0.40276 0.68577 0.0
C3321 C 0.49799 0.39349 0.69314 0.0
C3322 C 0.52006 0.39716 0.67774 0.0
C3323 C 0.52008 0.38216 0.6769 0.0
C3324 C 0.50877 0.37288 0.68412 0.0
C3325 C 0.49785 0.37848 0.69214 0.0
C3326 C 0.53855 0.35722 0.65269 0.0
C3327 C 0.55507 0.36454 0.65423 0.0
C3328 C 0.52717 0.36297 0.65996 0.0
C3329 C 0.53205 0.37624 0.6688 0.0
C3330 C 0.54854 0.3837 0.67003 0.0
C3331 C 0.55991 0.37793 0.66275 0.0
H3332 H 0.86872 0.29659 0.92 0.0
H3333 H 0.91487 0.32296 0.91237 0.0
H3334 H 0.85365 0.31042 0.90261 0.0
H3335 H 0.89975 0.33683 0.8951 0.0
H3336 H 0.86581 0.36533 0.87272 0.0
H3337 H 0.87852 0.35383 0.89403 0.0
H3338 H 0.85277 0.31159 0.87403 0.0
H3339 H 0.84029 0.32306 0.85276 0.0
C3340 C 0.87563 0.30547 0.9148 0.0
C3341 C 0.89299 0.30862 0.91745 0.0
C3342 C 0.867 0.31334 0.90483 0.0
C3343 C 0.87555 0.32465 0.89752 0.0
C3344 C 0.89286 0.32824 0.9007 0.0
C3345 C 0.9015 0.32024 0.91049 0.0
C3346 C 0.8627 0.35362 0.87307 0.0
C3347 C 0.85216 0.34504 0.86115 0.0
C3348 C 0.87 0.34706 0.88517 0.0
C3349 C 0.86662 0.33184 0.88564 0.0
C3350 C 0.85548 0.32335 0.87402 0.0
C3351 C 0.84841 0.32988 0.86183 0.0
H3352 H 0.01294 0.65676 0.23354 0.0
H3353 H 0.02589 0.6428 0.19114 0.0
H3354 H 0.9844 0.65493 0.2216 0.0
H3355 H 0.99744 0.64085 0.17933 0.0
H3356 H 0.95044 0.65638 0.15994 0.0
H3357 H 0.97873 0.65764 0.17234 0.0
H3358 H 0.95991 0.63652 0.20986 0.0
H3359 H 0.93164 0.6354 0.19743 0.0
C3360 C 0.00969 0.65322 0.22172 0.0
C3361 C 0.0217 0.64999 0.21328 0.0
C3362 C 0.99334 0.65212 0.2149 0.0
C3363 C 0.98871 0.64783 0.19951 0.0
C3364 C 0.00068 0.64439 0.19116 0.0
C3365 C 0.01697 0.64544 0.19797 0.0
C3366 C 0.95243 0.65203 0.17083 0.0
C3367 C 0.93896 0.64584 0.17777 0.0
C3368 C 0.96857 0.65266 0.1779 0.0
C3369 C 0.97154 0.64716 0.19207 0.0
C3370 C 0.95801 0.64099 0.19902 0.0
C3371 C 0.94186 0.64029 0.1919 0.0
H3372 H 0.65131 0.74694 0.45499 0.0
H3373 H 0.60871 0.71406 0.45963 0.0
H3374 H 0.66397 0.72838 0.44398 0.0
H3375 H 0.62141 0.69554 0.44862 0.0
H3376 H 0.66555 0.69457 0.40453 0.0
H3377 H 0.65676 0.71331 0.41935 0.0
H3378 H 0.64566 0.68289 0.45288 0.0
H3379 H 0.65438 0.66407 0.43794 0.0
C3380 C 0.64473 0.73574 0.45383 0.0
C3381 C 0.62895 0.73198 0.45808 0.0
C3382 C 0.65197 0.72513 0.44748 0.0
C3383 C 0.64365 0.71054 0.4454 0.0
C3384 C 0.62817 0.70669 0.45021 0.0
C3385 C 0.62086 0.71731 0.45643 0.0
C3386 C 0.66138 0.69195 0.41514 0.0
C3387 C 0.66056 0.67787 0.42007 0.0
C3388 C 0.65647 0.70269 0.42368 0.0
C3389 C 0.65048 0.69954 0.43725 0.0
C3390 C 0.65012 0.68558 0.44241 0.0
C3391 C 0.65522 0.67486 0.43393 0.0
H3392 H 0.82508 0.55241 0.65556 0.0
H3393 H 0.80028 0.57046 0.61771 0.0
H3394 H 0.84842 0.57283 0.65744 0.0
H3395 H 0.82366 0.59099 0.61972 0.0
H3396 H 0.86077 0.63283 0.6432 0.0
H3397 H 0.83722 0.61245 0.63923 0.0
H3398 H 0.87045 0.58227 0.64106 0.0
H3399 H 0.894 0.60254 0.64448 0.0
C3400 C 0.8246 0.56075 0.64766 0.0
C3401 C 0.81085 0.55983 0.63648 0.0
C3402 C 0.838 0.57238 0.64868 0.0
C3403 C 0.83784 0.58344 0.63869 0.0
C3404 C 0.82404 0.58263 0.6276 0.0
C3405 C 0.81072 0.57086 0.62643 0.0
C3406 C 0.86308 0.62187 0.64246 0.0
C3407 C 0.87932 0.61936 0.6443 0.0
C3408 C 0.84958 0.61021 0.64024 0.0
C3409 C 0.85205 0.59582 0.63998 0.0
C3410 C 0.86822 0.59328 0.64146 0.0
C3411 C 0.8817 0.6049 0.64349 0.0
H3412 H 0.28522 0.95702 0.38176 0.0
H3413 H 0.27465 0.95761 0.3335 0.0
H3414 H 0.29298 0.93341 0.37885 0.0
H3415 H 0.28192 0.93379 0.33058 0.0
H3416 H 0.31325 0.89879 0.33036 0.0
H3417 H 0.30544 0.92246 0.33337 0.0
H3418 H 0.28184 0.90826 0.37149 0.0
H3419 H 0.2902 0.88482 0.36869 0.0
C3420 C 0.28441 0.95205 0.37053 0.0
C3421 C 0.27935 0.95921 0.35786 0.0
C3422 C 0.28878 0.93846 0.36885 0.0
C3423 C 0.28811 0.93167 0.35447 0.0
C3424 C 0.28286 0.93879 0.34181 0.0
C3425 C 0.27857 0.95241 0.34349 0.0
C3426 C 0.3065 0.90084 0.33942 0.0
C3427 C 0.30251 0.89011 0.34941 0.0
C3428 C 0.30188 0.91432 0.34108 0.0
C3429 C 0.29301 0.9173 0.35269 0.0
C3430 C 0.2889 0.90645 0.36259 0.0
C3431 C 0.2936 0.893 0.36096 0.0
H3432 H 0.29997 0.03799 0.6257 0.0
H3433 H 0.2875 0.06654 0.65944 0.0
H3434 H 0.32848 0.05157 0.63006 0.0
H3435 H 0.31591 0.07997 0.66379 0.0
H3436 H 0.35899 0.11204 0.64907 0.0
H3437 H 0.33187 0.09641 0.64768 0.0
H3438 H 0.35435 0.05855 0.64944 0.0
H3439 H 0.38166 0.07431 0.65069 0.0
C3440 C 0.30335 0.04701 0.63418 0.0
C3441 C 0.29142 0.05129 0.64208 0.0
C3442 C 0.31968 0.05473 0.63672 0.0
C3443 C 0.32434 0.06691 0.64714 0.0
C3444 C 0.31259 0.07076 0.65552 0.0
C3445 C 0.29633 0.06302 0.65305 0.0
C3446 C 0.35814 0.10038 0.64914 0.0
C3447 C 0.37239 0.09437 0.64989 0.0
C3448 C 0.34264 0.09144 0.6485 0.0
C3449 C 0.34101 0.07627 0.6485 0.0
C3450 C 0.35526 0.07021 0.64935 0.0
C3451 C 0.37085 0.07921 0.65016 0.0
H3452 H 0.25309 0.06392 0.94634 0.0
H3453 H 0.20953 0.04192 0.91646 0.0
H3454 H 0.24278 0.08649 0.94538 0.0
H3455 H 0.19906 0.0645 0.91575 0.0
H3456 H 0.19465 0.1113 0.90534 0.0
H3457 H 0.20484 0.0885 0.90607 0.0
H3458 H 0.22105 0.09732 0.95384 0.0
H3459 H 0.21112 0.12022 0.95293 0.0
C3460 C 0.24127 0.06387 0.93962 0.0
C3461 C 0.23214 0.0511 0.93147 0.0
C3462 C 0.23532 0.07681 0.93914 0.0
C3463 C 0.22008 0.0773 0.93051 0.0
C3464 C 0.21093 0.06453 0.92236 0.0
C3465 C 0.21689 0.05157 0.92284 0.0
C3466 C 0.20055 0.10836 0.91593 0.0
C3467 C 0.20249 0.1176 0.92901 0.0
C3468 C 0.20623 0.09527 0.9164 0.0
C3469 C 0.21384 0.09112 0.93001 0.0
C3470 C 0.21553 0.10032 0.94314 0.0
C3471 C 0.20983 0.1134 0.94265 0.0
H3472 H 0.70239 0.42507 0.63721 0.0
H3473 H 0.6807 0.44212 0.59714 0.0
H3474 H 0.67737 0.40659 0.63633 0.0
H3475 H 0.65555 0.42382 0.59644 0.0
H3476 H 0.62001 0.37975 0.59114 0.0
H3477 H 0.64531 0.39784 0.59181 0.0
H3478 H 0.64873 0.40452 0.64001 0.0
H3479 H 0.62378 0.38598 0.63941 0.0
C3480 C 0.69228 0.4249 0.62823 0.0
C3481 C 0.69355 0.43508 0.61725 0.0
C3482 C 0.67789 0.41436 0.62778 0.0
C3483 C 0.66443 0.41375 0.61635 0.0
C3484 C 0.66576 0.42387 0.6053 0.0
C3485 C 0.68015 0.43441 0.60574 0.0
C3486 C 0.62624 0.38498 0.6019 0.0
C3487 C 0.6199 0.38138 0.61523 0.0
C3488 C 0.64065 0.39547 0.60226 0.0
C3489 C 0.64906 0.40263 0.61596 0.0
C3490 C 0.64267 0.39909 0.62929 0.0
C3491 C 0.62825 0.38859 0.62893 0.0
H3492 H 0.67993 0.45012 0.16649 0.0
H3493 H 0.66755 0.46827 0.20739 0.0
H3494 H 0.65796 0.42879 0.16674 0.0
H3495 H 0.64559 0.44702 0.20753 0.0
H3496 H 0.59651 0.41493 0.19256 0.0
H3497 H 0.61819 0.43601 0.19101 0.0
H3498 H 0.65192 0.40764 0.18372 0.0
H3499 H 0.63046 0.38648 0.18578 0.0
C3500 C 0.67252 0.44957 0.17551 0.0
C3501 C 0.67546 0.46087 0.18692 0.0
C3502 C 0.66001 0.43734 0.17567 0.0
C3503 C 0.65006 0.43631 0.18712 0.0
C3504 C 0.65297 0.44762 0.19849 0.0
C3505 C 0.66561 0.45974 0.19845 0.0
C3506 C 0.60857 0.41314 0.19075 0.0
C3507 C 0.61175 0.39897 0.18944 0.0
C3508 C 0.62095 0.42523 0.18981 0.0
C3509 C 0.63673 0.42344 0.18733 0.0
C3510 C 0.63981 0.40931 0.18553 0.0
C3511 C 0.62748 0.3972 0.18665 0.0
H3512 H 0.32937 0.97614 0.90503 0.0
H3513 H 0.35413 0.96102 0.94486 0.0
H3514 H 0.33952 0.95889 0.8894 0.0
H3515 H 0.36431 0.94381 0.92917 0.0
H3516 H 0.33917 0.91096 0.87227 0.0
H3517 H 0.33248 0.93125 0.88649 0.0
H3518 H 0.38291 0.94247 0.9088 0.0
H3519 H 0.38962 0.92208 0.89444 0.0
C3520 C 0.33715 0.96928 0.91045 0.0
C3521 C 0.34084 0.96986 0.92619 0.0
C3522 C 0.3429 0.95938 0.90149 0.0
C3523 C 0.35263 0.94999 0.90809 0.0
C3524 C 0.35693 0.951 0.92379 0.0
C3525 C 0.35102 0.96079 0.93276 0.0
C3526 C 0.34884 0.91784 0.88013 0.0
C3527 C 0.36488 0.91496 0.88234 0.0
C3528 C 0.34505 0.9295 0.88818 0.0
C3529 C 0.35718 0.93842 0.89873 0.0
C3530 C 0.37332 0.93571 0.90076 0.0
C3531 C 0.37718 0.92414 0.89252 0.0
H3532 H 0.20001 0.02563 0.34773 0.0
H3533 H 0.22273 0.06711 0.37151 0.0
H3534 H 0.17309 0.03269 0.34569 0.0
H3535 H 0.19601 0.07423 0.36921 0.0
H3536 H 0.14358 0.07746 0.37512 0.0
H3537 H 0.1697 0.06891 0.37824 0.0
H3538 H 0.15847 0.04978 0.33254 0.0
H3539 H 0.1322 0.05812 0.32964 0.0
C3540 C 0.19926 0.03623 0.35254 0.0
C3541 C 0.21352 0.0458 0.35978 0.0
C3542 C 0.18386 0.04031 0.35129 0.0
C3543 C 0.18239 0.05403 0.35728 0.0
C3544 C 0.19664 0.06351 0.36465 0.0
C3545 C 0.212 0.05945 0.36589 0.0
C3546 C 0.14669 0.07129 0.36584 0.0
C3547 C 0.13583 0.06819 0.35225 0.0
C3548 C 0.16166 0.06649 0.36756 0.0
C3549 C 0.16616 0.05862 0.35565 0.0
C3550 C 0.15525 0.05558 0.34202 0.0
C3551 C 0.14027 0.06039 0.34032 0.0
H3552 H 0.39244 0.14252 0.50564 0.0
H3553 H 0.43512 0.1761 0.50313 0.0
H3554 H 0.39518 0.13158 0.48132 0.0
H3555 H 0.43801 0.16499 0.47889 0.0
H3556 H 0.42244 0.15222 0.42788 0.0
H3557 H 0.42277 0.16226 0.45337 0.0
H3558 H 0.41271 0.11877 0.46828 0.0
H3559 H 0.41241 0.10871 0.44276 0.0
C3560 C 0.40253 0.14748 0.49999 0.0
C3561 C 0.41349 0.16024 0.50629 0.0
C3562 C 0.40416 0.14115 0.48608 0.0
C3563 C 0.41678 0.14745 0.47813 0.0
C3564 C 0.42802 0.15999 0.48463 0.0
C3565 C 0.42641 0.16631 0.49857 0.0
C3566 C 0.42058 0.1448 0.43664 0.0
C3567 C 0.41733 0.12967 0.43327 0.0
C3568 C 0.42077 0.15055 0.45126 0.0
C3569 C 0.41771 0.14131 0.46285 0.0
C3570 C 0.41486 0.12618 0.45956 0.0
C3571 C 0.41468 0.12042 0.44494 0.0
H3572 H 0.55549 0.61973 0.22058 0.0
H3573 H 0.58642 0.66261 0.22887 0.0
H3574 H 0.5697 0.61483 0.19943 0.0
H3575 H 0.60074 0.65758 0.20787 0.0
H3576 H 0.63515 0.63256 0.18407 0.0
H3577 H 0.61962 0.63885 0.20376 0.0
H3578 H 0.57404 0.62516 0.17322 0.0
H3579 H 0.58962 0.61904 0.15343 0.0
C3580 C 0.56524 0.62812 0.21783 0.0
C3581 C 0.56986 0.64154 0.22639 0.0
C3582 C 0.5733 0.62534 0.2057 0.0
C3583 C 0.58632 0.63582 0.20209 0.0
C3584 C 0.5908 0.6493 0.21051 0.0
C3585 C 0.58255 0.65218 0.22246 0.0
C3586 C 0.62182 0.63095 0.18159 0.0
C3587 C 0.61355 0.62532 0.16728 0.0
C3588 C 0.61296 0.63462 0.19279 0.0
C3589 C 0.59566 0.63248 0.18997 0.0
C3590 C 0.58738 0.62685 0.17567 0.0
C3591 C 0.59627 0.62343 0.16436 0.0
H3592 H 0.1519 0.81986 0.0151 0.0
H3593 H 0.09978 0.82072 0.00888 0.0
H3594 H 0.15617 0.83811 0.9968 0.0
H3595 H 0.10411 0.8391 0.99086 0.0
H3596 H 0.11504 0.86633 0.952 0.0
H3597 H 0.1117 0.84463 0.9663 0.0
H3598 H 0.15567 0.86401 0.9971 0.0
H3599 H 0.15907 0.8855 0.98259 0.0
C3600 C 0.14132 0.82379 0.00969 0.0
C3601 C 0.12553 0.81894 0.01356 0.0
C3602 C 0.14379 0.83433 0.99929 0.0
C3603 C 0.13051 0.84018 0.9925 0.0
C3604 C 0.11459 0.83475 0.99579 0.0
C3605 C 0.11213 0.82425 0.0062 0.0
C3606 C 0.12397 0.86585 0.96181 0.0
C3607 C 0.13707 0.87764 0.96647 0.0
C3608 C 0.12207 0.85348 0.97 0.0
C3609 C 0.13335 0.85263 0.98291 0.0
C3610 C 0.14684 0.86424 0.98715 0.0
C3611 C 0.14872 0.8766 0.97896 0.0
H3612 H 0.82246 0.31175 0.65094 0.0
H3613 H 0.87278 0.33509 0.65332 0.0
H3614 H 0.81345 0.32746 0.63198 0.0
H3615 H 0.8637 0.35088 0.63441 0.0
H3616 H 0.84267 0.36621 0.58909 0.0
H3617 H 0.85196 0.34985 0.60732 0.0
H3618 H 0.81109 0.35335 0.63108 0.0
H3619 H 0.80163 0.36941 0.6127 0.0
C3620 C 0.83161 0.32021 0.64739 0.0
C3621 C 0.84833 0.32219 0.65366 0.0
C3622 C 0.82642 0.32926 0.63659 0.0
C3623 C 0.83786 0.34044 0.63176 0.0
C3624 C 0.85462 0.34227 0.63783 0.0
C3625 C 0.8598 0.33328 0.64871 0.0
C3626 C 0.83564 0.3634 0.59816 0.0
C3627 C 0.82143 0.3691 0.59948 0.0
C3628 C 0.84103 0.35414 0.60866 0.0
C3629 C 0.83224 0.3503 0.62061 0.0
C3630 C 0.81803 0.35599 0.6219 0.0
C3631 C 0.81271 0.36531 0.61148 0.0
H3632 H 0.32526 0.81578 0.95694 0.0
H3633 H 0.29159 0.84409 0.94301 0.0
H3634 H 0.33623 0.83182 0.97954 0.0
H3635 H 0.30224 0.85991 0.96578 0.0
H3636 H 0.33478 0.89232 0.0016 0.0
H3637 H 0.32608 0.87696 0.97814 0.0
H3638 H 0.32779 0.83872 0.00291 0.0
H3639 H 0.33694 0.85421 0.02624 0.0
C3640 C 0.32017 0.82541 0.95871 0.0
C3641 C 0.30751 0.82863 0.94819 0.0
C3642 C 0.3264 0.83457 0.97171 0.0
C3643 C 0.32009 0.84714 0.97451 0.0
C3644 C 0.30756 0.85043 0.96389 0.0
C3645 C 0.30137 0.8413 0.95087 0.0
C3646 C 0.33349 0.88064 0.00193 0.0
C3647 C 0.33676 0.87441 0.01562 0.0
C3648 C 0.32837 0.87183 0.98855 0.0
C3649 C 0.32624 0.85659 0.98863 0.0
C3650 C 0.32958 0.85041 0.00239 0.0
C3651 C 0.33476 0.85923 0.01574 0.0
H3652 H 0.02223 0.6273 0.82376 0.0
H3653 H 0.97834 0.60168 0.79714 0.0
H3654 H 0.00805 0.62617 0.8458 0.0
H3655 H 0.96409 0.6009 0.81894 0.0
H3656 H 0.94417 0.59429 0.86241 0.0
H3657 H 0.96179 0.59201 0.84319 0.0
H3658 H 0.98638 0.63688 0.85396 0.0
H3659 H 0.96912 0.6389 0.87342 0.0
C3660 C 0.00962 0.62133 0.82263 0.0
C3661 C 0.00138 0.61468 0.80866 0.0
C3662 C 0.00145 0.62075 0.83524 0.0
C3663 C 0.98487 0.61354 0.83414 0.0
C3664 C 0.9769 0.60641 0.82028 0.0
C3665 C 0.98506 0.60694 0.80772 0.0
C3666 C 0.95361 0.60352 0.86084 0.0
C3667 C 0.95549 0.61669 0.86952 0.0
C3668 C 0.9636 0.60228 0.84976 0.0
C3669 C 0.97552 0.61426 0.847 0.0
C3670 C 0.97757 0.62735 0.85594 0.0
C3671 C 0.96763 0.62855 0.86705 0.0
H3672 H 0.13578 0.18109 0.53474 0.0
H3673 H 0.08354 0.16813 0.5185 0.0
H3674 H 0.13208 0.16737 0.55685 0.0
H3675 H 0.0799 0.15443 0.54062 0.0
H3676 H 0.08479 0.11821 0.57324 0.0
H3677 H 0.08837 0.13216 0.5512 0.0
H3678 H 0.1179 0.16853 0.57982 0.0
H3679 H 0.11422 0.1546 0.60185 0.0
C3680 C 0.12351 0.17533 0.53589 0.0
C3681 C 0.10995 0.17568 0.52486 0.0
C3682 C 0.1214 0.16754 0.54859 0.0
C3683 C 0.10571 0.15982 0.55044 0.0
C3684 C 0.09216 0.16016 0.53941 0.0
C3685 C 0.09424 0.16807 0.52679 0.0
C3686 C 0.09213 0.12915 0.57477 0.0
C3687 C 0.0996 0.13519 0.58918 0.0
C3688 C 0.09408 0.13716 0.5622 0.0
C3689 C 0.10351 0.15138 0.5638 0.0
C3690 C 0.11079 0.1575 0.57824 0.0
C3691 C 0.1087 0.14954 0.59082 0.0
H3692 H 0.58427 0.43002 0.36006 0.0
H3693 H 0.56405 0.39022 0.37899 0.0
H3694 H 0.60858 0.43362 0.37925 0.0
H3695 H 0.58803 0.39407 0.39849 0.0
H3696 H 0.6404 0.39694 0.42189 0.0
H3697 H 0.61661 0.39348 0.40218 0.0
H3698 H 0.61766 0.43977 0.4054 0.0
H3699 H 0.64178 0.4432 0.42487 0.0
C3700 C 0.58496 0.42209 0.36839 0.0
C3701 C 0.57225 0.40981 0.36798 0.0
C3702 C 0.59886 0.4242 0.37946 0.0
C3703 C 0.60031 0.41414 0.39045 0.0
C3704 C 0.5875 0.40191 0.39007 0.0
C3705 C 0.57368 0.39974 0.37893 0.0
C3706 C 0.63549 0.40635 0.4184 0.0
C3707 C 0.6429 0.42033 0.42494 0.0
C3708 C 0.62182 0.40438 0.40714 0.0
C3709 C 0.61511 0.41633 0.40223 0.0
C3710 C 0.62262 0.43034 0.40873 0.0
C3711 C 0.63641 0.43232 0.41992 0.0
H3712 H 0.48486 0.39169 0.22078 0.0
H3713 H 0.46795 0.42684 0.24265 0.0
H3714 H 0.4628 0.39044 0.19972 0.0
H3715 H 0.44575 0.42542 0.22165 0.0
H3716 H 0.41602 0.42644 0.17493 0.0
H3717 H 0.43988 0.42928 0.19466 0.0
H3718 H 0.43266 0.38257 0.19599 0.0
H3719 H 0.40883 0.37973 0.17646 0.0
C3720 C 0.4765 0.39921 0.22107 0.0
C3721 C 0.4781 0.40929 0.23345 0.0
C3722 C 0.4638 0.39843 0.20903 0.0
C3723 C 0.45244 0.40775 0.20907 0.0
C3724 C 0.45437 0.41816 0.22122 0.0
C3725 C 0.46705 0.41892 0.23329 0.0
C3726 C 0.41949 0.41679 0.1795 0.0
C3727 C 0.41055 0.40286 0.17407 0.0
C3728 C 0.43316 0.41842 0.19078 0.0
C3729 C 0.43821 0.40615 0.19682 0.0
C3730 C 0.4293 0.39224 0.19136 0.0
C3731 C 0.41563 0.39061 0.18015 0.0
H3732 H 0.29738 0.71312 0.88054 0.0
H3733 H 0.26288 0.70708 0.83927 0.0
H3734 H 0.30761 0.69159 0.87304 0.0
H3735 H 0.2732 0.68559 0.83177 0.0
H3736 H 0.28336 0.63893 0.83245 0.0
H3737 H 0.27311 0.66052 0.83993 0.0
H3738 H 0.3233 0.6838 0.8534 0.0
H3739 H 0.3335 0.66215 0.84591 0.0
C3740 C 0.29199 0.70721 0.86987 0.0
C3741 C 0.27931 0.71179 0.8605 0.0
C3742 C 0.29792 0.69493 0.86555 0.0
C3743 C 0.2912 0.68692 0.85183 0.0
C3744 C 0.2785 0.69148 0.84248 0.0
C3745 C 0.27265 0.70382 0.84674 0.0
C3746 C 0.29217 0.64866 0.83706 0.0
C3747 C 0.3092 0.64887 0.83881 0.0
C3748 C 0.28632 0.66103 0.84125 0.0
C3749 C 0.29741 0.67382 0.84729 0.0
C3750 C 0.31446 0.67403 0.84897 0.0
C3751 C 0.3203 0.66169 0.84466 0.0
H3752 H 0.08455 0.62414 0.75292 0.0
H3753 H 0.06004 0.58316 0.72909 0.0
H3754 H 0.10571 0.62637 0.73652 0.0
H3755 H 0.08077 0.58563 0.71233 0.0
H3756 H 0.12461 0.58946 0.688 0.0
H3757 H 0.10853 0.58596 0.70869 0.0
H3758 H 0.10719 0.63182 0.7113 0.0
H3759 H 0.12402 0.63542 0.69132 0.0
C3760 C 0.08374 0.61556 0.74424 0.0
C3761 C 0.07055 0.60353 0.74224 0.0
C3762 C 0.09582 0.61688 0.73476 0.0
C3763 C 0.09488 0.60627 0.72295 0.0
C3764 C 0.08204 0.59394 0.72139 0.0
C3765 C 0.07007 0.59256 0.73096 0.0
C3766 C 0.1212 0.59884 0.69323 0.0
C3767 C 0.12546 0.6127 0.68787 0.0
C3768 C 0.1118 0.59681 0.70498 0.0
C3769 C 0.1064 0.60857 0.71162 0.0
C3770 C 0.11123 0.62251 0.70662 0.0
C3771 C 0.12069 0.62455 0.69496 0.0
H3772 H 0.12068 0.2617 0.40244 0.0
H3773 H 0.16829 0.24959 0.41231 0.0
H3774 H 0.13351 0.28357 0.39161 0.0
H3775 H 0.18106 0.27138 0.40127 0.0
H3776 H 0.19963 0.32065 0.39803 0.0
H3777 H 0.18707 0.2978 0.40752 0.0
H3778 H 0.14728 0.29166 0.37022 0.0
H3779 H 0.15984 0.31464 0.36091 0.0
C3780 C 0.13386 0.26363 0.40219 0.0
C3781 C 0.14346 0.25392 0.4083 0.0
C3782 C 0.1412 0.27614 0.3959 0.0
C3783 C 0.15832 0.27924 0.39562 0.0
C3784 C 0.16788 0.2694 0.4015 0.0
C3785 C 0.16053 0.25687 0.40774 0.0
C3786 C 0.1883 0.3143 0.39182 0.0
C3787 C 0.18079 0.31922 0.37864 0.0
C3788 C 0.18113 0.30122 0.3972 0.0
C3789 C 0.16621 0.29288 0.38958 0.0
C3790 C 0.15871 0.29787 0.37639 0.0
C3791 C 0.16592 0.31093 0.371 0.0
H3792 H 0.49245 0.60497 0.28361 0.0
H3793 H 0.50113 0.6509 0.29705 0.0
H3794 H 0.46828 0.60088 0.29644 0.0
H3795 H 0.4767 0.64686 0.30955 0.0
H3796 H 0.44858 0.63016 0.34814 0.0
H3797 H 0.46993 0.63595 0.33209 0.0
H3798 H 0.44062 0.60478 0.29735 0.0
H3799 H 0.41949 0.59879 0.3137 0.0
C3800 C 0.48902 0.61424 0.28904 0.0
C3801 C 0.49883 0.62824 0.28945 0.0
C3802 C 0.4751 0.61191 0.29635 0.0
C3803 C 0.47064 0.62352 0.30418 0.0
C3804 C 0.47998 0.63763 0.3039 0.0
C3805 C 0.49393 0.63995 0.29664 0.0
C3806 C 0.44675 0.62461 0.33705 0.0
C3807 C 0.43266 0.61381 0.33224 0.0
C3808 C 0.45888 0.62799 0.32779 0.0
C3809 C 0.45705 0.62076 0.31344 0.0
C3810 C 0.44255 0.61037 0.30842 0.0
C3811 C 0.43045 0.60697 0.31773 0.0
H3812 H 0.14453 0.73624 0.07175 0.0
H3813 H 0.19402 0.75741 0.09135 0.0
H3814 H 0.14924 0.71353 0.08194 0.0
H3815 H 0.19878 0.73459 0.10141 0.0
H3816 H 0.16611 0.67192 0.09311 0.0
H3817 H 0.16531 0.69419 0.08022 0.0
H3818 H 0.18834 0.71981 0.12129 0.0
H3819 H 0.18953 0.69756 0.13405 0.0
C3820 C 0.15649 0.73601 0.07808 0.0
C3821 C 0.16886 0.74866 0.08082 0.0
C3822 C 0.15923 0.72296 0.08384 0.0
C3823 C 0.17438 0.72228 0.09251 0.0
C3824 C 0.18692 0.73482 0.0949 0.0
C3825 C 0.1842 0.74787 0.08908 0.0
C3826 C 0.17134 0.68231 0.09928 0.0
C3827 C 0.17781 0.68301 0.11461 0.0
C3828 C 0.17072 0.69505 0.09195 0.0
C3829 C 0.17664 0.70875 0.09977 0.0
C3830 C 0.18378 0.70943 0.11492 0.0
C3831 C 0.18433 0.69669 0.12227 0.0
H3832 H 0.93709 0.32771 0.79742 0.0
H3833 H 0.96228 0.32824 0.75852 0.0
H3834 H 0.96364 0.33381 0.81374 0.0
H3835 H 0.98881 0.33408 0.77487 0.0
H3836 H 0.03232 0.36055 0.80797 0.0
H3837 H 0.00584 0.3541 0.79138 0.0
H3838 H 0.98759 0.32322 0.82231 0.0
H3839 H 0.01403 0.32993 0.83896 0.0
C3840 C 0.94828 0.32908 0.79235 0.0
C3841 C 0.94755 0.32751 0.77666 0.0
C3842 C 0.96351 0.33248 0.80171 0.0
C3843 C 0.97836 0.33442 0.79561 0.0
C3844 C 0.97761 0.33283 0.77992 0.0
C3845 C 0.96239 0.32941 0.77056 0.0
C3846 C 0.02258 0.35242 0.81118 0.0
C3847 C 0.02501 0.34593 0.82483 0.0
C3848 C 0.00748 0.34865 0.80167 0.0
C3849 C 0.99455 0.33821 0.80557 0.0
C3850 C 0.99717 0.33149 0.81911 0.0
C3851 C 0.01229 0.33527 0.82861 0.0
H3852 H 0.34119 0.25666 0.57295 0.0
H3853 H 0.3905 0.28015 0.59012 0.0
H3854 H 0.3297 0.27565 0.58464 0.0
H3855 H 0.37902 0.29919 0.60159 0.0
H3856 H 0.35313 0.32408 0.63205 0.0
H3857 H 0.36328 0.30346 0.62179 0.0
H3858 H 0.32821 0.3013 0.5813 0.0
H3859 H 0.31798 0.32178 0.59175 0.0
C3860 C 0.34958 0.26586 0.57922 0.0
C3861 C 0.36676 0.2669 0.58059 0.0
C3862 C 0.34299 0.27677 0.58586 0.0
C3863 C 0.35344 0.28891 0.59405 0.0
C3864 C 0.37062 0.28987 0.59553 0.0
C3865 C 0.37721 0.279 0.58886 0.0
C3866 C 0.34746 0.31898 0.62107 0.0
C3867 C 0.3346 0.32426 0.61278 0.0
C3868 C 0.35333 0.3073 0.61514 0.0
C3869 C 0.34654 0.30074 0.60073 0.0
C3870 C 0.33352 0.30596 0.59252 0.0
C3871 C 0.32768 0.31767 0.59845 0.0
H3872 H 0.21023 0.47298 0.36828 0.0
H3873 H 0.23984 0.46451 0.40896 0.0
H3874 H 0.20265 0.44707 0.36118 0.0
H3875 H 0.2325 0.43843 0.40164 0.0
H3876 H 0.19457 0.39413 0.39287 0.0
H3877 H 0.20785 0.41947 0.39973 0.0
H3878 H 0.21244 0.42588 0.35316 0.0
H3879 H 0.19892 0.40057 0.34631 0.0
C3880 C 0.21533 0.46559 0.37562 0.0
C3881 C 0.22555 0.47082 0.38925 0.0
C3882 C 0.21108 0.4507 0.37148 0.0
C3883 C 0.21696 0.44064 0.38084 0.0
C3884 C 0.22761 0.44588 0.39426 0.0
C3885 C 0.23188 0.46083 0.39841 0.0
C3886 C 0.19875 0.40087 0.38415 0.0
C3887 C 0.19556 0.39542 0.36903 0.0
C3888 C 0.20639 0.4154 0.38808 0.0
C3889 C 0.21104 0.42476 0.37697 0.0
C3890 C 0.20869 0.41904 0.36195 0.0
C3891 C 0.20099 0.40455 0.35803 0.0
H3892 H 0.75267 0.06565 0.60672 0.0
H3893 H 0.72527 0.07518 0.5653 0.0
H3894 H 0.74127 0.08324 0.62059 0.0
H3895 H 0.71424 0.09311 0.57912 0.0
H3896 H 0.68177 0.10901 0.61113 0.0
H3897 H 0.69477 0.09332 0.59633 0.0
H3898 H 0.7413 0.10859 0.62527 0.0
H3899 H 0.72801 0.12393 0.64035 0.0
C3900 C 0.74438 0.07164 0.60055 0.0
C3901 C 0.7398 0.06895 0.58492 0.0
C3902 C 0.73791 0.0818 0.60849 0.0
C3903 C 0.72678 0.08957 0.60099 0.0
C3904 C 0.72256 0.08715 0.58529 0.0
C3905 C 0.72896 0.07692 0.57735 0.0
C3906 C 0.6948 0.10906 0.61423 0.0
C3907 C 0.70394 0.11767 0.62683 0.0
C3908 C 0.70229 0.10015 0.60571 0.0
C3909 C 0.7191 0.09969 0.60959 0.0
C3910 C 0.72829 0.10854 0.62207 0.0
C3911 C 0.72076 0.11739 0.63064 0.0
H3912 H 0.66217 0.93317 0.3562 0.0
H3913 H 0.66667 0.90521 0.31818 0.0
H3914 H 0.63375 0.92038 0.35573 0.0
H3915 H 0.63851 0.8922 0.31798 0.0
H3916 H 0.5849 0.87339 0.31701 0.0
H3917 H 0.60916 0.89186 0.31445 0.0
H3918 H 0.62247 0.89656 0.36277 0.0
H3919 H 0.59802 0.87862 0.36528 0.0
C3920 C 0.65704 0.92442 0.34762 0.0
C3921 C 0.66677 0.92006 0.33738 0.0
C3922 C 0.64078 0.91705 0.3474 0.0
C3923 C 0.63392 0.90512 0.33696 0.0
C3924 C 0.64332 0.90139 0.32611 0.0
C3925 C 0.65955 0.9088 0.32629 0.0
C3926 C 0.59283 0.87864 0.32706 0.0
C3927 C 0.58969 0.87443 0.34133 0.0
C3928 C 0.60679 0.88912 0.3256 0.0
C3929 C 0.61784 0.89562 0.33839 0.0
C3930 C 0.61418 0.89192 0.35267 0.0
C3931 C 0.60027 0.88147 0.35412 0.0
H3932 H 0.78428 0.95378 0.08169 0.0
H3933 H 0.78714 0.92662 0.04249 0.0
H3934 H 0.80419 0.94212 0.09668 0.0
H3935 H 0.8068 0.91477 0.05764 0.0
H3936 H 0.82705 0.88804 0.0967 0.0
H3937 H 0.80638 0.89886 0.08181 0.0
H3938 H 0.83591 0.94166 0.09471 0.0
H3939 H 0.85712 0.93096 0.10892 0.0
C3940 C 0.78899 0.9452 0.07633 0.0
C3941 C 0.78419 0.94111 0.06092 0.0
C3942 C 0.80043 0.93861 0.08489 0.0
C3943 C 0.807 0.92761 0.07827 0.0
C3944 C 0.80183 0.9232 0.06298 0.0
C3945 C 0.79065 0.93 0.05434 0.0
C3946 C 0.82935 0.89975 0.09619 0.0
C3947 C 0.84387 0.90859 0.10404 0.0
C3948 C 0.81742 0.90591 0.08774 0.0
C3949 C 0.81958 0.92105 0.0872 0.0
C3950 C 0.83391 0.92994 0.09512 0.0
C3951 C 0.846 0.92378 0.10332 0.0
H3952 H 0.29658 0.55982 0.4031 0.0
H3953 H 0.29343 0.53856 0.35899 0.0
H3954 H 0.32035 0.57753 0.39847 0.0
H3955 H 0.31779 0.5558 0.35457 0.0
H3956 H 0.34998 0.59825 0.34473 0.0
H3957 H 0.32658 0.57999 0.34942 0.0
H3958 H 0.34828 0.58157 0.3961 0.0
H3959 H 0.37119 0.60034 0.39142 0.0
C3960 C 0.30115 0.55879 0.39249 0.0
C3961 C 0.29311 0.54782 0.38139 0.0
C3962 C 0.31487 0.56891 0.38984 0.0
C3963 C 0.32107 0.56817 0.37611 0.0
C3964 C 0.31321 0.55694 0.36515 0.0
C3965 C 0.29931 0.54696 0.36772 0.0
C3966 C 0.34969 0.59463 0.35597 0.0
C3967 C 0.3623 0.60072 0.36773 0.0
C3968 C 0.33634 0.58409 0.35867 0.0
C3969 C 0.33546 0.57923 0.37316 0.0
C3970 C 0.3483 0.58522 0.38487 0.0
C3971 C 0.36149 0.59593 0.3822 0.0
H3972 H 0.26374 0.51708 0.87291 0.0
H3973 H 0.2985 0.53093 0.91346 0.0
H3974 H 0.27804 0.53702 0.8602 0.0
H3975 H 0.31266 0.55095 0.90078 0.0
H3976 H 0.3438 0.57572 0.86854 0.0
H3977 H 0.32975 0.55501 0.88044 0.0
H3978 H 0.28255 0.56382 0.86126 0.0
H3979 H 0.2966 0.58428 0.84906 0.0
C3980 C 0.27441 0.52439 0.87912 0.0
C3981 C 0.27997 0.52243 0.8942 0.0
C3982 C 0.28255 0.53585 0.87185 0.0
C3983 C 0.29648 0.54555 0.87949 0.0
C3984 C 0.30208 0.54355 0.89455 0.0
C3985 C 0.2939 0.53214 0.90183 0.0
C3986 C 0.33043 0.57312 0.86674 0.0
C3987 C 0.3213 0.58164 0.85789 0.0
C3988 C 0.32239 0.56136 0.87367 0.0
C3989 C 0.30505 0.55782 0.87183 0.0
C3990 C 0.29592 0.56621 0.8628 0.0
C3991 C 0.30396 0.57801 0.85593 0.0
H3992 H 0.73718 0.03612 0.11138 0.0
H3993 H 0.73204 0.05996 0.0716 0.0
H3994 H 0.72583 0.05393 0.12509 0.0
H3995 H 0.72034 0.07752 0.08518 0.0
H3996 H 0.71403 0.11397 0.11748 0.0
H3997 H 0.72735 0.09677 0.10492 0.0
H3998 H 0.69971 0.06145 0.12582 0.0
H3999 H 0.68677 0.0788 0.13864 0.0
C4000 C 0.73362 0.04515 0.10555 0.0
C4001 C 0.7355 0.0466 0.09039 0.0
C4002 C 0.72703 0.05531 0.11339 0.0
C4003 C 0.72214 0.06715 0.10623 0.0
C4004 C 0.72419 0.06866 0.09111 0.0
C4005 C 0.73081 0.05853 0.08329 0.0
C4006 C 0.71099 0.10254 0.11948 0.0
C4007 C 0.69963 0.09768 0.12919 0.0
C4008 C 0.71849 0.09267 0.11221 0.0
C4009 C 0.71463 0.07772 0.11438 0.0
C4010 C 0.70319 0.07291 0.12411 0.0
C4011 C 0.69574 0.08279 0.13139 0.0
H4012 H 0.80448 0.94529 0.59316 0.0
H4013 H 0.7901 0.96548 0.63199 0.0
H4014 H 0.81719 0.92901 0.60919 0.0
H4015 H 0.80245 0.94895 0.64797 0.0
H4016 H 0.84313 0.92856 0.67351 0.0
H4017 H 0.82936 0.94452 0.65772 0.0
H4018 H 0.81064 0.90867 0.62416 0.0
H4019 H 0.82486 0.89292 0.63987 0.0
C4020 C 0.80393 0.94619 0.6051 0.0
C4021 C 0.79632 0.95672 0.61129 0.0
C4022 C 0.81113 0.93679 0.61429 0.0
C4023 C 0.81084 0.93766 0.62988 0.0
C4024 C 0.8031 0.94812 0.63604 0.0
C4025 C 0.79595 0.95755 0.62686 0.0
C4026 C 0.83589 0.92412 0.66283 0.0
C4027 C 0.83473 0.9095 0.65799 0.0
C4028 C 0.82797 0.93321 0.6538 0.0
C4029 C 0.81882 0.92786 0.63969 0.0
C4030 C 0.81769 0.91318 0.63489 0.0
C4031 C 0.82566 0.90412 0.64392 0.0
loop_
_geom_bond_atom_site_label_1
_geom_bond_atom_site_label_2
_geom_bond_distance
_geom_bond_site_symmetry_2
_ccdc_geom_bond_type
O0 Cd1 2.300 . S
O0 C7 1.275 . S
Cd1 O0 2.300 . S
Cd1 O9 2.381 . S
Cd1 O10 2.378 . S
O2 Cd3 2.385 . S
O2 C7 1.255 . S
Cd3 O2 2.385 . S
Cd3 O4 2.317 1_455 S
O4 Cd3 2.317 1_655 S
O4 C5 1.232 . S
C5 O4 1.232 . S
C5 O6 1.218 . S
O6 C5 1.218 . S
C7 O0 1.275 . S
C7 O2 1.255 . S
C8 O9 1.258 . S
C8 O10 1.256 . S
O9 Cd1 2.381 . S
O9 C8 1.258 . S
O10 Cd1 2.378 . S
O10 C8 1.256 . S
O11 Cd12 2.300 . S
O11 C18 1.275 . S
Cd12 O11 2.300 . S
Cd12 O20 2.381 . S
Cd12 O21 2.378 . S
O13 Cd14 2.385 . S
O13 C18 1.255 . S
Cd14 O13 2.385 . S
Cd14 O15 2.317 . S
O15 Cd14 2.317 . S
O15 C16 1.232 . S
C16 O15 1.232 . S
C16 O17 1.218 . S
O17 C16 1.218 . S
C18 O11 1.275 . S
C18 O13 1.255 . S
C19 O20 1.258 . S
C19 O21 1.256 . S
O20 Cd12 2.381 . S
O20 C19 1.258 . S
O21 Cd12 2.378 . S
O21 C19 1.256 . S
O22 Cd23 2.300 . S
O22 C29 1.275 . S
Cd23 O22 2.300 . S
Cd23 O31 2.381 . S
Cd23 O32 2.378 . S
O24 Cd25 2.385 . S
O24 C29 1.255 . S
Cd25 O24 2.385 . S
Cd25 O26 2.317 . S
O26 Cd25 2.317 . S
O26 C27 1.232 . S
C27 O26 1.232 . S
C27 O28 1.218 . S
O28 C27 1.218 . S
C29 O22 1.275 . S
C29 O24 1.255 . S
C30 O31 1.258 . S
C30 O32 1.256 . S
O31 Cd23 2.381 . S
O31 C30 1.258 . S
O32 Cd23 2.378 . S
O32 C30 1.256 . S
O33 Cd34 2.300 . S
O33 C40 1.275 . S
Cd34 O33 2.300 . S
Cd34 O42 2.381 . S
Cd34 O43 2.378 . S
O35 Cd36 2.385 . S
O35 C40 1.255 . S
Cd36 O35 2.385 . S
Cd36 O37 2.317 . S
O37 Cd36 2.317 . S
O37 C38 1.232 . S
C38 O37 1.232 . S
C38 O39 1.218 . S
O39 C38 1.218 . S
C40 O33 1.275 . S
C40 O35 1.255 . S
C41 O42 1.258 . S
C41 O43 1.256 . S
O42 Cd34 2.381 . S
O42 C41 1.258 . S
O43 Cd34 2.378 . S
O43 C41 1.256 . S
O44 Cd45 2.300 . S
O44 C51 1.275 . S
Cd45 O44 2.300 . S
Cd45 O53 2.381 . S
Cd45 O54 2.378 . S
O46 Cd47 2.385 . S
O46 C51 1.255 . S
Cd47 O46 2.385 . S
Cd47 O48 2.317 . S
O48 Cd47 2.317 . S
O48 C49 1.232 . S
C49 O48 1.232 . S
C49 O50 1.218 . S
O50 C49 1.218 . S
C51 O44 1.275 . S
C51 O46 1.255 . S
C52 O53 1.258 . S
C52 O54 1.256 . S
O53 Cd45 2.381 . S
O53 C52 1.258 . S
O54 Cd45 2.378 . S
O54 C52 1.256 . S
O55 Cd56 2.300 . S
O55 C62 1.275 . S
Cd56 O55 2.300 . S
Cd56 O64 2.381 . S
Cd56 O65 2.378 . S
O57 Cd58 2.385 . S
O57 C62 1.255 . S
Cd58 O57 2.385 . S
Cd58 O59 2.317 . S
O59 Cd58 2.317 . S
O59 C60 1.232 . S
C60 O59 1.232 . S
C60 O61 1.218 . S
O61 C60 1.218 . S
C62 O55 1.275 . S
C62 O57 1.255 . S
C63 O64 1.258 . S
C63 O65 1.256 . S
O64 Cd56 2.381 . S
O64 C63 1.258 . S
O65 Cd56 2.378 . S
O65 C63 1.256 . S
O66 Cd67 2.300 . S
O66 C73 1.275 . S
Cd67 O66 2.300 . S
Cd67 O75 2.381 . S
Cd67 O76 2.378 . S
O68 Cd69 2.385 . S
O68 C73 1.255 . S
Cd69 O68 2.385 . S
Cd69 O70 2.317 . S
O70 Cd69 2.317 . S
O70 C71 1.232 . S
C71 O70 1.232 . S
C71 O72 1.218 . S
O72 C71 1.218 . S
C73 O66 1.275 . S
C73 O68 1.255 . S
C74 O75 1.258 . S
C74 O76 1.256 . S
O75 Cd67 2.381 . S
O75 C74 1.258 . S
O76 Cd67 2.378 . S
O76 C74 1.256 . S
O77 Cd78 2.300 . S
O77 C84 1.275 . S
Cd78 O77 2.300 . S
Cd78 O86 2.381 . S
Cd78 O87 2.378 . S
O79 Cd80 2.385 . S
O79 C84 1.255 . S
Cd80 O79 2.385 . S
Cd80 O81 2.317 . S
O81 Cd80 2.317 . S
O81 C82 1.232 . S
C82 O81 1.232 . S
C82 O83 1.218 . S
O83 C82 1.218 . S
C84 O77 1.275 . S
C84 O79 1.255 . S
C85 O86 1.258 . S
C85 O87 1.256 . S
O86 Cd78 2.381 . S
O86 C85 1.258 . S
O87 Cd78 2.378 . S
O87 C85 1.256 . S
O88 Cd89 2.300 . S
O88 C95 1.275 . S
Cd89 O88 2.300 . S
Cd89 O97 2.381 1_545 S
Cd89 O98 2.378 1_545 S
O90 Cd91 2.385 . S
O90 C95 1.255 . S
Cd91 O90 2.385 . S
Cd91 O92 2.317 . S
O92 Cd91 2.317 . S
O92 C93 1.232 . S
C93 O92 1.232 . S
C93 O94 1.218 . S
O94 C93 1.218 . S
C95 O88 1.275 . S
C95 O90 1.255 . S
C96 O97 1.258 . S
C96 O98 1.256 . S
O97 Cd89 2.381 1_565 S
O97 C96 1.258 . S
O98 Cd89 2.378 1_565 S
O98 C96 1.256 . S
O99 Cd100 2.300 . S
O99 C106 1.275 . S
Cd100 O99 2.300 . S
Cd100 O108 2.381 . S
Cd100 O109 2.378 1_545 S
O101 Cd102 2.385 . S
O101 C106 1.255 . S
Cd102 O101 2.385 . S
Cd102 O103 2.317 . S
O103 Cd102 2.317 . S
O103 C104 1.232 . S
C104 O103 1.232 . S
C104 O105 1.218 . S
O105 C104 1.218 . S
C106 O99 1.275 . S
C106 O101 1.255 . S
C107 O108 1.258 1_565 S
C107 O109 1.256 . S
O108 Cd100 2.381 . S
O108 C107 1.258 1_545 S
O109 Cd100 2.378 1_565 S
O109 C107 1.256 . S
O110 Cd111 2.300 . S
O110 C117 1.275 . S
Cd111 O110 2.300 . S
Cd111 O119 2.381 . S
Cd111 O120 2.378 . S
O112 Cd113 2.404 . S
O112 C117 1.255 . S
Cd113 O112 2.404 . S
Cd113 O114 2.303 1_565 S
O114 Cd113 2.303 1_545 S
O114 C115 1.232 . S
C115 O114 1.232 . S
C115 O116 1.218 . S
O116 C115 1.218 . S
C117 O110 1.275 . S
C117 O112 1.255 . S
C118 O119 1.258 . S
C118 O120 1.256 . S
O119 Cd111 2.381 . S
O119 C118 1.258 . S
O120 Cd111 2.378 . S
O120 C118 1.256 . S
O121 Cd122 2.300 1_565 S
O121 C128 1.275 . S
Cd122 O121 2.300 1_545 S
Cd122 O130 2.381 . S
Cd122 O131 2.378 . S
O123 Cd124 2.385 . S
O123 C128 1.255 . S
Cd124 O123 2.385 . S
Cd124 O125 2.317 . S
O125 Cd124 2.317 . S
O125 C126 1.232 . S
C126 O125 1.232 . S
C126 O127 1.218 . S
O127 C126 1.218 . S
C128 O121 1.275 . S
C128 O123 1.255 . S
C129 O130 1.258 . S
C129 O131 1.256 . S
O130 Cd122 2.381 . S
O130 C129 1.258 . S
O131 Cd122 2.378 . S
O131 C129 1.256 . S
O132 Cd133 2.300 . S
O132 C139 1.275 . S
Cd133 O132 2.300 . S
Cd133 O141 2.381 . S
Cd133 O142 2.378 . S
O134 Cd135 2.385 . S
O134 C139 1.255 . S
Cd135 O134 2.385 . S
Cd135 O136 2.317 . S
O136 Cd135 2.317 . S
O136 C137 1.232 . S
C137 O136 1.232 . S
C137 O138 1.218 . S
O138 C137 1.218 . S
C139 O132 1.275 . S
C139 O134 1.255 . S
C140 O141 1.258 . S
C140 O142 1.256 . S
O141 Cd133 2.381 . S
O141 C140 1.258 . S
O142 Cd133 2.378 . S
O142 C140 1.256 . S
O143 Cd144 2.300 . S
O143 C150 1.275 . S
Cd144 O143 2.300 . S
Cd144 O152 2.381 . S
Cd144 O153 2.378 . S
O145 Cd146 2.385 . S
O145 C150 1.255 . S
Cd146 O145 2.385 . S
Cd146 O147 2.317 . S
O147 Cd146 2.317 . S
O147 C148 1.232 . S
C148 O147 1.232 . S
C148 O149 1.218 . S
O149 C148 1.218 . S
C150 O143 1.275 . S
C150 O145 1.255 . S
C151 O152 1.258 . S
C151 O153 1.256 . S
O152 Cd144 2.381 . S
O152 C151 1.258 . S
O153 Cd144 2.378 . S
O153 C151 1.256 . S
O154 Cd155 2.300 . S
O154 C161 1.275 . S
Cd155 O154 2.300 . S
Cd155 O163 2.381 . S
Cd155 O164 2.378 . S
O156 Cd157 2.385 . S
O156 C161 1.255 . S
Cd157 O156 2.385 . S
Cd157 O158 2.317 . S
O158 Cd157 2.317 . S
O158 C159 1.232 . S
C159 O158 1.232 . S
C159 O160 1.218 . S
O160 C159 1.218 . S
C161 O154 1.275 . S
C161 O156 1.255 . S
C162 O163 1.258 . S
C162 O164 1.256 . S
O163 Cd155 2.381 . S
O163 C162 1.258 . S
O164 Cd155 2.378 . S
O164 C162 1.256 . S
O165 Cd166 2.300 1_655 S
O165 C172 1.275 . S
Cd166 O165 2.300 1_455 S
Cd166 O174 2.381 . S
Cd166 O175 2.378 . S
O167 Cd168 2.385 . S
O167 C172 1.255 . S
Cd168 O167 2.385 . S
Cd168 O169 2.317 . S
O169 Cd168 2.317 . S
O169 C170 1.232 . S
C170 O169 1.232 . S
C170 O171 1.218 . S
O171 C170 1.218 . S
C172 O165 1.275 . S
C172 O167 1.255 . S
C173 O174 1.258 . S
C173 O175 1.256 . S
O174 Cd166 2.381 . S
O174 C173 1.258 . S
O175 Cd166 2.378 . S
O175 C173 1.256 . S
O176 Cd177 2.300 . S
O176 C183 1.275 . S
Cd177 O176 2.300 . S
Cd177 O185 2.381 . S
Cd177 O186 2.378 . S
O178 Cd179 2.385 . S
O178 C183 1.255 . S
Cd179 O178 2.385 . S
Cd179 O180 2.317 . S
O180 Cd179 2.317 . S
O180 C181 1.232 . S
C181 O180 1.232 . S
C181 O182 1.218 . S
O182 C181 1.218 . S
C183 O176 1.275 . S
C183 O178 1.255 . S
C184 O185 1.258 . S
C184 O186 1.256 . S
O185 Cd177 2.381 . S
O185 C184 1.258 . S
O186 Cd177 2.378 . S
O186 C184 1.256 . S
O187 Cd188 2.300 . S
O187 C194 1.275 . S
Cd188 O187 2.300 . S
Cd188 O196 2.381 . S
Cd188 O197 2.378 . S
O189 Cd190 2.385 . S
O189 C194 1.255 . S
Cd190 O189 2.385 . S
Cd190 O191 2.317 . S
O191 Cd190 2.317 . S
O191 C192 1.232 . S
C192 O191 1.232 . S
C192 O193 1.218 . S
O193 C192 1.218 . S
C194 O187 1.275 . S
C194 O189 1.255 . S
C195 O196 1.258 . S
C195 O197 1.256 . S
O196 Cd188 2.381 . S
O196 C195 1.258 . S
O197 Cd188 2.378 . S
O197 C195 1.256 . S
O198 Cd199 2.300 . S
O198 C205 1.275 . S
Cd199 O198 2.300 . S
Cd199 O207 2.381 . S
Cd199 O208 2.378 . S
O200 Cd201 2.385 . S
O200 C205 1.255 . S
Cd201 O200 2.385 . S
Cd201 O202 2.317 . S
O202 Cd201 2.317 . S
O202 C203 1.232 . S
C203 O202 1.232 . S
C203 O204 1.218 . S
O204 C203 1.218 . S
C205 O198 1.275 . S
C205 O200 1.255 . S
C206 O207 1.258 . S
C206 O208 1.256 . S
O207 Cd199 2.381 . S
O207 C206 1.258 . S
O208 Cd199 2.378 . S
O208 C206 1.256 . S
O209 Cd210 2.300 . S
O209 C216 1.275 . S
Cd210 O209 2.300 . S
Cd210 O218 2.381 . S
Cd210 O219 2.378 . S
O211 Cd212 2.385 . S
O211 C216 1.255 . S
Cd212 O211 2.385 . S
Cd212 O213 2.317 . S
O213 Cd212 2.317 . S
O213 C214 1.232 . S
C214 O213 1.232 . S
C214 O215 1.218 . S
O215 C214 1.218 . S
C216 O209 1.275 . S
C216 O211 1.255 . S
C217 O218 1.258 . S
C217 O219 1.256 . S
O218 Cd210 2.381 . S
O218 C217 1.258 . S
O219 Cd210 2.378 . S
O219 C217 1.256 . S
O220 Cd221 2.300 . S
O220 C227 1.275 . S
Cd221 O220 2.300 . S
Cd221 O229 2.381 . S
Cd221 O230 2.378 . S
O222 Cd223 2.385 . S
O222 C227 1.255 . S
Cd223 O222 2.385 . S
Cd223 O224 2.317 . S
O224 Cd223 2.317 . S
O224 C225 1.232 . S
C225 O224 1.232 . S
C225 O226 1.218 . S
O226 C225 1.218 . S
C227 O220 1.275 . S
C227 O222 1.255 . S
C228 O229 1.258 . S
C228 O230 1.256 . S
O229 Cd221 2.381 . S
O229 C228 1.258 . S
O230 Cd221 2.378 . S
O230 C228 1.256 . S
O231 Cd232 2.300 . S
O231 C238 1.275 . S
Cd232 O231 2.300 . S
Cd232 O240 2.381 . S
Cd232 O241 2.378 . S
O233 Cd234 2.385 . S
O233 C238 1.255 . S
Cd234 O233 2.385 . S
Cd234 O235 2.317 . S
O235 Cd234 2.317 . S
O235 C236 1.232 . S
C236 O235 1.232 . S
C236 O237 1.218 . S
O237 C236 1.218 . S
C238 O231 1.275 . S
C238 O233 1.255 . S
C239 O240 1.258 . S
C239 O241 1.256 . S
O240 Cd232 2.381 . S
O240 C239 1.258 . S
O241 Cd232 2.378 . S
O241 C239 1.256 . S
O242 Cd243 2.300 . S
O242 C249 1.275 . S
Cd243 O242 2.300 . S
Cd243 O251 2.381 . S
Cd243 O252 2.378 . S
O244 Cd245 2.385 . S
O244 C249 1.255 . S
Cd245 O244 2.385 . S
Cd245 O246 2.317 . S
O246 Cd245 2.317 . S
O246 C247 1.232 . S
C247 O246 1.232 . S
C247 O248 1.218 . S
O248 C247 1.218 . S
C249 O242 1.275 . S
C249 O244 1.255 . S
C250 O251 1.258 . S
C250 O252 1.256 . S
O251 Cd243 2.381 . S
O251 C250 1.258 . S
O252 Cd243 2.378 . S
O252 C250 1.256 . S
O253 Cd254 2.300 1_565 S
O253 C260 1.275 . S
Cd254 O253 2.300 1_545 S
Cd254 O262 2.381 . S
Cd254 O263 2.378 . S
O255 Cd256 2.385 . S
O255 C260 1.255 . S
Cd256 O255 2.385 . S
Cd256 O257 2.317 . S
O257 Cd256 2.317 . S
O257 C258 1.232 . S
C258 O257 1.232 . S
C258 O259 1.218 . S
O259 C258 1.218 . S
C260 O253 1.275 . S
C260 O255 1.255 . S
C261 O262 1.258 . S
C261 O263 1.256 . S
O262 Cd254 2.381 . S
O262 C261 1.258 . S
O263 Cd254 2.378 . S
O263 C261 1.256 . S
O264 Cd265 2.300 . S
O264 C271 1.275 . S
Cd265 O264 2.300 . S
Cd265 O273 2.381 . S
Cd265 O274 2.378 . S
O266 Cd267 2.385 . S
O266 C271 1.255 . S
Cd267 O266 2.385 . S
Cd267 O268 2.317 . S
O268 Cd267 2.317 . S
O268 C269 1.232 . S
C269 O268 1.232 . S
C269 O270 1.218 . S
O270 C269 1.218 . S
C271 O264 1.275 . S
C271 O266 1.255 . S
C272 O273 1.258 . S
C272 O274 1.256 . S
O273 Cd265 2.381 . S
O273 C272 1.258 . S
O274 Cd265 2.378 . S
O274 C272 1.256 . S
O275 Cd276 2.300 1_545 S
O275 C282 1.275 . S
Cd276 O275 2.300 1_565 S
Cd276 O284 2.381 . S
Cd276 O285 2.378 . S
O277 Cd278 2.385 . S
O277 C282 1.255 . S
Cd278 O277 2.385 . S
Cd278 O279 2.317 . S
O279 Cd278 2.317 . S
O279 C280 1.232 . S
C280 O279 1.232 . S
C280 O281 1.218 . S
O281 C280 1.218 . S
C282 O275 1.275 . S
C282 O277 1.255 . S
C283 O284 1.258 . S
C283 O285 1.256 . S
O284 Cd276 2.381 . S
O284 C283 1.258 . S
O285 Cd276 2.378 . S
O285 C283 1.256 . S
O286 Cd287 2.300 . S
O286 C293 1.275 . S
Cd287 O286 2.300 . S
Cd287 O295 2.381 1_545 S
Cd287 O296 2.378 1_545 S
O288 Cd289 2.385 . S
O288 C293 1.255 . S
Cd289 O288 2.385 . S
Cd289 O290 2.317 . S
O290 Cd289 2.317 . S
O290 C291 1.232 . S
C291 O290 1.232 . S
C291 O292 1.218 . S
O292 C291 1.218 . S
C293 O286 1.275 . S
C293 O288 1.255 . S
C294 O295 1.258 . S
C294 O296 1.256 . S
O295 Cd287 2.381 1_565 S
O295 C294 1.258 . S
O296 Cd287 2.378 1_565 S
O296 C294 1.256 . S
O297 Cd298 2.300 . S
O297 C304 1.275 . S
Cd298 O297 2.300 . S
Cd298 O306 2.381 . S
Cd298 O307 2.378 . S
O299 Cd300 2.385 . S
O299 C304 1.255 . S
Cd300 O299 2.385 . S
Cd300 O301 2.317 . S
O301 Cd300 2.317 . S
O301 C302 1.232 . S
C302 O301 1.232 . S
C302 O303 1.218 . S
O303 C302 1.218 . S
C304 O297 1.275 . S
C304 O299 1.255 . S
C305 O306 1.258 . S
C305 O307 1.256 . S
O306 Cd298 2.381 . S
O306 C305 1.258 . S
O307 Cd298 2.378 . S
O307 C305 1.256 . S
O308 Cd309 2.300 . S
O308 C315 1.275 . S
Cd309 O308 2.300 . S
Cd309 O317 2.381 . S
Cd309 O318 2.378 . S
O310 Cd311 2.385 . S
O310 C315 1.255 . S
Cd311 O310 2.385 . S
Cd311 O312 2.317 . S
O312 Cd311 2.317 . S
O312 C313 1.232 . S
C313 O312 1.232 . S
C313 O314 1.218 . S
O314 C313 1.218 . S
C315 O308 1.275 . S
C315 O310 1.255 . S
C316 O317 1.258 . S
C316 O318 1.256 . S
O317 Cd309 2.381 . S
O317 C316 1.258 . S
O318 Cd309 2.378 . S
O318 C316 1.256 . S
O319 Cd320 2.300 . S
O319 C326 1.275 . S
Cd320 O319 2.300 . S
Cd320 O328 2.381 . S
Cd320 O329 2.378 . S
O321 Cd322 2.385 . S
O321 C326 1.255 . S
Cd322 O321 2.385 . S
Cd322 O323 2.317 . S
O323 Cd322 2.317 . S
O323 C324 1.232 . S
C324 O323 1.232 . S
C324 O325 1.218 . S
O325 C324 1.218 . S
C326 O319 1.275 . S
C326 O321 1.255 . S
C327 O328 1.258 . S
C327 O329 1.256 . S
O328 Cd320 2.381 . S
O328 C327 1.258 . S
O329 Cd320 2.378 . S
O329 C327 1.256 . S
O330 Cd331 2.300 . S
O330 C337 1.275 . S
Cd331 O330 2.300 . S
Cd331 O339 2.381 . S
Cd331 O340 2.378 . S
O332 Cd333 2.385 . S
O332 C337 1.255 . S
Cd333 O332 2.385 . S
Cd333 O334 2.317 . S
O334 Cd333 2.317 . S
O334 C335 1.232 . S
C335 O334 1.232 . S
C335 O336 1.218 . S
O336 C335 1.218 . S
C337 O330 1.275 . S
C337 O332 1.255 . S
C338 O339 1.258 . S
C338 O340 1.256 . S
O339 Cd331 2.381 . S
O339 C338 1.258 . S
O340 Cd331 2.378 . S
O340 C338 1.256 . S
O341 Cd342 2.300 . S
O341 C348 1.275 . S
Cd342 O341 2.300 . S
Cd342 O350 2.381 . S
Cd342 O351 2.321 1_655 S
O343 Cd344 2.385 . S
O343 C348 1.255 . S
Cd344 O343 2.385 . S
Cd344 O345 2.317 . S
O345 Cd344 2.317 . S
O345 C346 1.232 . S
C346 O345 1.232 . S
C346 O347 1.218 . S
O347 C346 1.218 . S
C348 O341 1.275 . S
C348 O343 1.255 . S
C349 O350 1.258 1_455 S
C349 O351 1.261 . S
O350 Cd342 2.381 . S
O350 C349 1.258 1_655 S
O351 Cd342 2.321 1_455 S
O351 C349 1.261 . S
O352 Cd353 2.300 . S
O352 C359 1.275 . S
Cd353 O352 2.300 . S
Cd353 O361 2.381 . S
Cd353 O362 2.378 . S
O354 Cd355 2.385 . S
O354 C359 1.255 . S
Cd355 O354 2.385 . S
Cd355 O356 2.317 . S
O356 Cd355 2.317 . S
O356 C357 1.232 . S
C357 O356 1.232 . S
C357 O358 1.218 . S
O358 C357 1.218 . S
C359 O352 1.275 . S
C359 O354 1.255 . S
C360 O361 1.258 . S
C360 O362 1.256 . S
O361 Cd353 2.381 . S
O361 C360 1.258 . S
O362 Cd353 2.378 . S
O362 C360 1.256 . S
O363 Cd364 2.300 . S
O363 C370 1.275 . S
Cd364 O363 2.300 . S
Cd364 O372 2.381 . S
Cd364 O373 2.378 . S
O365 Cd366 2.385 . S
O365 C370 1.255 . S
Cd366 O365 2.385 . S
Cd366 O367 2.317 . S
O367 Cd366 2.317 . S
O367 C368 1.232 . S
C368 O367 1.232 . S
C368 O369 1.218 . S
O369 C368 1.218 . S
C370 O363 1.275 . S
C370 O365 1.255 . S
C371 O372 1.258 . S
C371 O373 1.256 . S
O372 Cd364 2.381 . S
O372 C371 1.258 . S
O373 Cd364 2.378 . S
O373 C371 1.256 . S
O374 Cd375 2.300 . S
O374 C381 1.275 . S
Cd375 O374 2.300 . S
Cd375 O383 2.381 . S
Cd375 O384 2.378 . S
O376 Cd377 2.385 . S
O376 C381 1.255 . S
Cd377 O376 2.385 . S
Cd377 O378 2.317 . S
O378 Cd377 2.317 . S
O378 C379 1.232 . S
C379 O378 1.232 . S
C379 O380 1.218 . S
O380 C379 1.218 . S
C381 O374 1.275 . S
C381 O376 1.255 . S
C382 O383 1.258 . S
C382 O384 1.256 . S
O383 Cd375 2.381 . S
O383 C382 1.258 . S
O384 Cd375 2.378 . S
O384 C382 1.256 . S
O385 Cd386 2.300 . S
O385 C392 1.275 . S
Cd386 O385 2.300 . S
Cd386 O394 2.381 . S
Cd386 O395 2.378 . S
O387 Cd388 2.385 . S
O387 C392 1.255 . S
Cd388 O387 2.385 . S
Cd388 O389 2.317 . S
O389 Cd388 2.317 . S
O389 C390 1.232 . S
C390 O389 1.232 . S
C390 O391 1.218 . S
O391 C390 1.218 . S
C392 O385 1.275 . S
C392 O387 1.255 . S
C393 O394 1.258 . S
C393 O395 1.256 . S
O394 Cd386 2.381 . S
O394 C393 1.258 . S
O395 Cd386 2.378 . S
O395 C393 1.256 . S
O396 Cd397 2.300 . S
O396 C403 1.275 . S
Cd397 O396 2.300 . S
Cd397 O405 2.381 . S
Cd397 O406 2.378 . S
O398 Cd399 2.385 . S
O398 C403 1.255 . S
Cd399 O398 2.385 . S
Cd399 O400 2.317 . S
O400 Cd399 2.317 . S
O400 C401 1.232 . S
C401 O400 1.232 . S
C401 O402 1.218 . S
O402 C401 1.218 . S
C403 O396 1.275 . S
C403 O398 1.255 . S
C404 O405 1.258 . S
C404 O406 1.256 . S
O405 Cd397 2.381 . S
O405 C404 1.258 . S
O406 Cd397 2.378 . S
O406 C404 1.256 . S
O407 Cd408 2.300 . S
O407 C414 1.275 . S
Cd408 O407 2.300 . S
Cd408 O416 2.381 . S
Cd408 O417 2.378 . S
O409 Cd410 2.385 . S
O409 C414 1.255 . S
Cd410 O409 2.385 . S
Cd410 O411 2.317 . S
O411 Cd410 2.317 . S
O411 C412 1.232 . S
C412 O411 1.232 . S
C412 O413 1.218 . S
O413 C412 1.218 . S
C414 O407 1.275 . S
C414 O409 1.255 . S
C415 O416 1.258 . S
C415 O417 1.256 . S
O416 Cd408 2.381 . S
O416 C415 1.258 . S
O417 Cd408 2.378 . S
O417 C415 1.256 . S
O418 Cd419 2.300 . S
O418 C425 1.275 . S
Cd419 O418 2.300 . S
Cd419 O427 2.381 . S
Cd419 O428 2.378 . S
O420 Cd421 2.385 . S
O420 C425 1.255 . S
Cd421 O420 2.385 . S
Cd421 O422 2.317 . S
O422 Cd421 2.317 . S
O422 C423 1.232 . S
C423 O422 1.232 . S
C423 O424 1.218 . S
O424 C423 1.218 . S
C425 O418 1.275 . S
C425 O420 1.255 . S
C426 O427 1.258 . S
C426 O428 1.256 . S
O427 Cd419 2.381 . S
O427 C426 1.258 . S
O428 Cd419 2.378 . S
O428 C426 1.256 . S
O429 Cd430 2.300 . S
O429 C436 1.275 . S
Cd430 O429 2.300 . S
Cd430 O438 2.381 . S
Cd430 O439 2.378 . S
O431 Cd432 2.385 . S
O431 C436 1.255 . S
Cd432 O431 2.385 . S
Cd432 O433 2.317 . S
O433 Cd432 2.317 . S
O433 C434 1.232 . S
C434 O433 1.232 . S
C434 O435 1.218 . S
O435 C434 1.218 . S
C436 O429 1.275 . S
C436 O431 1.255 . S
C437 O438 1.258 . S
C437 O439 1.256 . S
O438 Cd430 2.381 . S
O438 C437 1.258 . S
O439 Cd430 2.378 . S
O439 C437 1.256 . S
O440 Cd441 2.300 . S
O440 C447 1.275 . S
Cd441 O440 2.300 . S
Cd441 O449 2.381 . S
Cd441 O450 2.378 . S
O442 Cd443 2.385 . S
O442 C447 1.255 . S
Cd443 O442 2.385 . S
Cd443 O444 2.317 . S
O444 Cd443 2.317 . S
O444 C445 1.232 . S
C445 O444 1.232 . S
C445 O446 1.218 . S
O446 C445 1.218 . S
C447 O440 1.275 . S
C447 O442 1.255 . S
C448 O449 1.258 . S
C448 O450 1.256 . S
O449 Cd441 2.381 . S
O449 C448 1.258 . S
O450 Cd441 2.378 . S
O450 C448 1.256 . S
O451 Cd452 2.300 . S
O451 C458 1.275 . S
Cd452 O451 2.300 . S
Cd452 O460 2.381 . S
Cd452 O461 2.378 . S
O453 Cd454 2.385 . S
O453 C458 1.255 . S
Cd454 O453 2.385 . S
Cd454 O455 2.317 . S
O455 Cd454 2.317 . S
O455 C456 1.232 . S
C456 O455 1.232 . S
C456 O457 1.218 . S
O457 C456 1.218 . S
C458 O451 1.275 . S
C458 O453 1.255 . S
C459 O460 1.258 . S
C459 O461 1.256 . S
O460 Cd452 2.381 . S
O460 C459 1.258 . S
O461 Cd452 2.378 . S
O461 C459 1.256 . S
O462 Cd463 2.300 . S
O462 C469 1.275 . S
Cd463 O462 2.300 . S
Cd463 O471 2.381 . S
Cd463 O472 2.378 . S
O464 Cd465 2.385 . S
O464 C469 1.255 . S
Cd465 O464 2.385 . S
Cd465 O466 2.317 1_554 S
O466 Cd465 2.317 1_556 S
O466 C467 1.232 . S
C467 O466 1.232 . S
C467 O468 1.218 . S
O468 C467 1.218 . S
C469 O462 1.275 . S
C469 O464 1.255 . S
C470 O471 1.258 . S
C470 O472 1.256 . S
O471 Cd463 2.381 . S
O471 C470 1.258 . S
O472 Cd463 2.378 . S
O472 C470 1.256 . S
O473 Cd474 2.300 . S
O473 C480 1.275 . S
Cd474 O473 2.300 . S
Cd474 O482 2.381 . S
Cd474 O483 2.378 . S
O475 Cd476 2.385 . S
O475 C480 1.255 . S
Cd476 O475 2.385 . S
Cd476 O477 2.317 . S
O477 Cd476 2.317 . S
O477 C478 1.232 . S
C478 O477 1.232 . S
C478 O479 1.218 . S
O479 C478 1.218 . S
C480 O473 1.275 . S
C480 O475 1.255 . S
C481 O482 1.258 . S
C481 O483 1.256 . S
O482 Cd474 2.381 . S
O482 C481 1.258 . S
O483 Cd474 2.378 . S
O483 C481 1.256 . S
O484 Cd485 2.300 . S
O484 C491 1.275 . S
Cd485 O484 2.300 . S
Cd485 O493 2.381 . S
Cd485 O494 2.378 . S
O486 Cd487 2.385 . S
O486 C491 1.255 . S
Cd487 O486 2.385 . S
Cd487 O488 2.317 . S
O488 Cd487 2.317 . S
O488 C489 1.232 . S
C489 O488 1.232 . S
C489 O490 1.218 . S
O490 C489 1.218 . S
C491 O484 1.275 . S
C491 O486 1.255 . S
C492 O493 1.258 . S
C492 O494 1.256 . S
O493 Cd485 2.381 . S
O493 C492 1.258 . S
O494 Cd485 2.378 . S
O494 C492 1.256 . S
O495 Cd496 2.300 . S
O495 C502 1.275 . S
Cd496 O495 2.300 . S
Cd496 O504 2.381 . S
Cd496 O505 2.378 . S
O497 Cd498 2.385 . S
O497 C502 1.255 . S
Cd498 O497 2.385 . S
Cd498 O499 2.317 . S
O499 Cd498 2.317 . S
O499 C500 1.232 . S
C500 O499 1.232 . S
C500 O501 1.218 . S
O501 C500 1.218 . S
C502 O495 1.275 . S
C502 O497 1.255 . S
C503 O504 1.258 . S
C503 O505 1.256 . S
O504 Cd496 2.381 . S
O504 C503 1.258 . S
O505 Cd496 2.378 . S
O505 C503 1.256 . S
O506 Cd507 2.300 . S
O506 C513 1.275 . S
Cd507 O506 2.300 . S
Cd507 O515 2.381 . S
Cd507 O516 2.378 . S
O508 Cd509 2.385 . S
O508 C513 1.255 . S
Cd509 O508 2.385 . S
Cd509 O510 2.317 . S
O510 Cd509 2.317 . S
O510 C511 1.232 . S
C511 O510 1.232 . S
C511 O512 1.218 . S
O512 C511 1.218 . S
C513 O506 1.275 . S
C513 O508 1.255 . S
C514 O515 1.258 . S
C514 O516 1.256 . S
O515 Cd507 2.381 . S
O515 C514 1.258 . S
O516 Cd507 2.378 . S
O516 C514 1.256 . S
O517 Cd518 2.300 . S
O517 C524 1.275 . S
Cd518 O517 2.300 . S
Cd518 O526 2.381 . S
Cd518 O527 2.378 . S
O519 Cd520 2.385 . S
O519 C524 1.255 . S
Cd520 O519 2.385 . S
Cd520 O521 2.317 . S
O521 Cd520 2.317 . S
O521 C522 1.232 . S
C522 O521 1.232 . S
C522 O523 1.218 . S
O523 C522 1.218 . S
C524 O517 1.275 . S
C524 O519 1.255 . S
C525 O526 1.258 . S
C525 O527 1.256 . S
O526 Cd518 2.381 . S
O526 C525 1.258 . S
O527 Cd518 2.378 . S
O527 C525 1.256 . S
H528 C535 0.929 . S
H529 C538 0.930 . S
H530 C540 0.929 . S
H531 C532 0.969 . S
C532 H531 0.969 . S
C532 O533 1.550 . S
C532 H534 0.973 . S
O533 C532 1.550 . S
O533 C539 1.412 . S
H534 C532 0.973 . S
C535 H528 0.929 . S
C535 C536 1.400 . S
C535 C537 1.364 . S
C536 C535 1.400 . S
C536 C540 1.377 . S
C537 C535 1.364 . S
C537 C538 1.374 . S
C538 H529 0.930 . S
C538 C537 1.374 . S
C538 C539 1.383 . S
C539 O533 1.412 . S
C539 C538 1.383 . S
C539 C540 1.394 . S
C540 H530 0.929 . S
C540 C536 1.377 . S
C540 C539 1.394 . S
H541 C548 0.929 . S
H542 C551 0.930 . S
H543 C553 0.929 . S
H544 C545 0.969 . S
C545 H544 0.969 . S
C545 O546 1.550 . S
C545 H547 0.973 . S
O546 C545 1.550 . S
O546 C552 1.412 . S
H547 C545 0.973 . S
C548 H541 0.929 . S
C548 C549 1.400 . S
C548 C550 1.364 . S
C549 C548 1.400 . S
C549 C553 1.377 . S
C550 C548 1.364 . S
C550 C551 1.374 . S
C551 H542 0.930 . S
C551 C550 1.374 . S
C551 C552 1.383 . S
C552 O546 1.412 . S
C552 C551 1.383 . S
C552 C553 1.394 . S
C553 H543 0.929 . S
C553 C549 1.377 . S
C553 C552 1.394 . S
H554 C561 0.929 . S
H555 C564 0.930 . S
H556 C566 0.929 . S
H557 C558 0.969 . S
C558 H557 0.969 . S
C558 O559 1.550 . S
C558 H560 0.973 . S
O559 C558 1.550 . S
O559 C565 1.412 . S
H560 C558 0.973 . S
C561 H554 0.929 . S
C561 C562 1.400 . S
C561 C563 1.364 . S
C562 C561 1.400 . S
C562 C566 1.377 . S
C563 C561 1.364 . S
C563 C564 1.374 . S
C564 H555 0.930 . S
C564 C563 1.374 . S
C564 C565 1.383 . S
C565 O559 1.412 . S
C565 C564 1.383 . S
C565 C566 1.394 . S
C566 H556 0.929 . S
C566 C562 1.377 . S
C566 C565 1.394 . S
H567 C574 0.929 . S
H568 C577 0.930 . S
H569 C579 0.929 . S
H570 C571 0.969 . S
C571 H570 0.969 . S
C571 O572 1.550 . S
C571 H573 0.973 . S
O572 C571 1.550 . S
O572 C578 1.412 . S
H573 C571 0.973 . S
C574 H567 0.929 . S
C574 C575 1.400 . S
C574 C576 1.364 . S
C575 C574 1.400 . S
C575 C579 1.377 . S
C576 C574 1.364 . S
C576 C577 1.374 . S
C577 H568 0.930 . S
C577 C576 1.374 . S
C577 C578 1.383 . S
C578 O572 1.412 . S
C578 C577 1.383 . S
C578 C579 1.394 . S
C579 H569 0.929 . S
C579 C575 1.377 . S
C579 C578 1.394 . S
H580 C587 0.929 . S
H581 C590 0.930 . S
H582 C592 0.929 . S
H583 C584 0.969 . S
C584 H583 0.969 . S
C584 O585 1.550 . S
C584 H586 0.973 . S
O585 C584 1.550 . S
O585 C591 1.412 . S
H586 C584 0.973 . S
C587 H580 0.929 . S
C587 C588 1.400 . S
C587 C589 1.364 . S
C588 C587 1.400 . S
C588 C592 1.377 . S
C589 C587 1.364 . S
C589 C590 1.374 . S
C590 H581 0.930 . S
C590 C589 1.374 . S
C590 C591 1.383 . S
C591 O585 1.412 . S
C591 C590 1.383 . S
C591 C592 1.394 . S
C592 H582 0.929 . S
C592 C588 1.377 . S
C592 C591 1.394 . S
H593 C600 0.929 . S
H594 C603 0.930 . S
H595 C605 0.929 . S
H596 C597 0.969 . S
C597 H596 0.969 . S
C597 O598 1.550 . S
C597 H599 0.973 . S
O598 C597 1.550 . S
O598 C604 1.412 . S
H599 C597 0.973 . S
C600 H593 0.929 . S
C600 C601 1.400 . S
C600 C602 1.364 . S
C601 C600 1.400 . S
C601 C605 1.377 . S
C602 C600 1.364 . S
C602 C603 1.374 . S
C603 H594 0.930 . S
C603 C602 1.374 . S
C603 C604 1.383 . S
C604 O598 1.412 . S
C604 C603 1.383 . S
C604 C605 1.394 . S
C605 H595 0.929 . S
C605 C601 1.377 . S
C605 C604 1.394 . S
H606 C613 0.929 . S
H607 C616 0.930 . S
H608 C618 0.929 . S
H609 C610 0.969 . S
C610 H609 0.969 . S
C610 O611 1.550 . S
C610 H612 0.973 . S
O611 C610 1.550 . S
O611 C617 1.412 . S
H612 C610 0.973 . S
C613 H606 0.929 . S
C613 C614 1.400 . S
C613 C615 1.364 . S
C614 C613 1.400 . S
C614 C618 1.377 . S
C615 C613 1.364 . S
C615 C616 1.374 . S
C616 H607 0.930 . S
C616 C615 1.374 . S
C616 C617 1.383 . S
C617 O611 1.412 . S
C617 C616 1.383 . S
C617 C618 1.394 . S
C618 H608 0.929 . S
C618 C614 1.377 . S
C618 C617 1.394 . S
H619 C626 0.929 . S
H620 C629 0.930 . S
H621 C631 0.929 . S
H622 C623 0.969 . S
C623 H622 0.969 . S
C623 O624 1.550 . S
C623 H625 0.973 . S
O624 C623 1.550 . S
O624 C630 1.412 . S
H625 C623 0.973 . S
C626 H619 0.929 . S
C626 C627 1.400 . S
C626 C628 1.364 . S
C627 C626 1.400 . S
C627 C631 1.377 . S
C628 C626 1.364 . S
C628 C629 1.374 . S
C629 H620 0.930 . S
C629 C628 1.374 . S
C629 C630 1.383 . S
C630 O624 1.412 . S
C630 C629 1.383 . S
C630 C631 1.394 . S
C631 H621 0.929 . S
C631 C627 1.377 . S
C631 C630 1.394 . S
H632 C639 0.929 . S
H633 C642 0.930 . S
H634 C644 0.929 . S
H635 C636 0.969 . S
C636 H635 0.969 . S
C636 O637 1.550 . S
C636 H638 0.973 . S
O637 C636 1.550 . S
O637 C643 1.412 . S
H638 C636 0.973 . S
C639 H632 0.929 . S
C639 C640 1.400 . S
C639 C641 1.364 . S
C640 C639 1.400 . S
C640 C644 1.377 . S
C641 C639 1.364 . S
C641 C642 1.374 . S
C642 H633 0.930 . S
C642 C641 1.374 . S
C642 C643 1.383 . S
C643 O637 1.412 . S
C643 C642 1.383 . S
C643 C644 1.394 . S
C644 H634 0.929 . S
C644 C640 1.377 . S
C644 C643 1.394 . S
H645 C652 0.929 . S
H646 C655 0.930 . S
H647 C657 0.929 . S
H648 C649 0.969 . S
C649 H648 0.969 . S
C649 O650 1.550 . S
C649 H651 0.973 . S
O650 C649 1.550 . S
O650 C656 1.412 . S
H651 C649 0.973 . S
C652 H645 0.929 . S
C652 C653 1.400 . S
C652 C654 1.364 . S
C653 C652 1.400 . S
C653 C657 1.377 . S
C654 C652 1.364 . S
C654 C655 1.374 . S
C655 H646 0.930 . S
C655 C654 1.374 . S
C655 C656 1.383 . S
C656 O650 1.412 . S
C656 C655 1.383 . S
C656 C657 1.394 . S
C657 H647 0.929 . S
C657 C653 1.377 . S
C657 C656 1.394 . S
H658 C665 0.929 . S
H659 C668 0.930 . S
H660 C670 0.929 . S
H661 C662 0.969 . S
C662 H661 0.969 . S
C662 O663 1.550 . S
C662 H664 0.973 . S
O663 C662 1.550 . S
O663 C669 1.412 . S
H664 C662 0.973 . S
C665 H658 0.929 . S
C665 C666 1.400 . S
C665 C667 1.364 . S
C666 C665 1.400 . S
C666 C670 1.377 . S
C667 C665 1.364 . S
C667 C668 1.374 . S
C668 H659 0.930 . S
C668 C667 1.374 . S
C668 C669 1.383 . S
C669 O663 1.412 . S
C669 C668 1.383 . S
C669 C670 1.394 . S
C670 H660 0.929 . S
C670 C666 1.377 . S
C670 C669 1.394 . S
H671 C678 0.929 . S
H672 C681 0.930 . S
H673 C683 0.929 . S
H674 C675 0.969 . S
C675 H674 0.969 . S
C675 O676 1.550 . S
C675 H677 0.973 . S
O676 C675 1.550 . S
O676 C682 1.412 . S
H677 C675 0.973 . S
C678 H671 0.929 . S
C678 C679 1.400 . S
C678 C680 1.364 . S
C679 C678 1.400 . S
C679 C683 1.377 . S
C680 C678 1.364 . S
C680 C681 1.374 . S
C681 H672 0.930 . S
C681 C680 1.374 . S
C681 C682 1.383 . S
C682 O676 1.412 . S
C682 C681 1.383 . S
C682 C683 1.394 . S
C683 H673 0.929 . S
C683 C679 1.377 . S
C683 C682 1.394 . S
H684 C691 0.929 . S
H685 C694 0.930 . S
H686 C696 0.929 . S
H687 C688 0.969 . S
C688 H687 0.969 . S
C688 O689 1.550 . S
C688 H690 0.973 . S
O689 C688 1.550 . S
O689 C695 1.412 . S
H690 C688 0.973 . S
C691 H684 0.929 . S
C691 C692 1.400 . S
C691 C693 1.364 . S
C692 C691 1.400 . S
C692 C696 1.377 . S
C693 C691 1.364 . S
C693 C694 1.374 . S
C694 H685 0.930 . S
C694 C693 1.374 . S
C694 C695 1.383 . S
C695 O689 1.412 . S
C695 C694 1.383 . S
C695 C696 1.394 . S
C696 H686 0.929 . S
C696 C692 1.377 . S
C696 C695 1.394 . S
H697 C704 0.929 . S
H698 C707 0.930 . S
H699 C709 0.929 . S
H700 C701 0.969 . S
C701 H700 0.969 . S
C701 O702 1.550 . S
C701 H703 0.973 . S
O702 C701 1.550 . S
O702 C708 1.412 . S
H703 C701 0.973 . S
C704 H697 0.929 . S
C704 C705 1.400 . S
C704 C706 1.364 . S
C705 C704 1.400 . S
C705 C709 1.377 . S
C706 C704 1.364 . S
C706 C707 1.374 . S
C707 H698 0.930 . S
C707 C706 1.374 . S
C707 C708 1.383 . S
C708 O702 1.412 . S
C708 C707 1.383 . S
C708 C709 1.394 . S
C709 H699 0.929 . S
C709 C705 1.377 . S
C709 C708 1.394 . S
H710 C717 0.929 . S
H711 C720 0.930 . S
H712 C722 0.929 . S
H713 C714 0.969 . S
C714 H713 0.969 . S
C714 O715 1.550 . S
C714 H716 0.973 . S
O715 C714 1.550 . S
O715 C721 1.412 . S
H716 C714 0.973 . S
C717 H710 0.929 . S
C717 C718 1.400 . S
C717 C719 1.364 . S
C718 C717 1.400 . S
C718 C722 1.377 . S
C719 C717 1.364 . S
C719 C720 1.374 . S
C720 H711 0.930 . S
C720 C719 1.374 . S
C720 C721 1.383 . S
C721 O715 1.412 . S
C721 C720 1.383 . S
C721 C722 1.394 . S
C722 H712 0.929 . S
C722 C718 1.377 . S
C722 C721 1.394 . S
H723 C730 0.929 . S
H724 C733 0.930 . S
H725 C735 0.929 . S
H726 C727 0.969 . S
C727 H726 0.969 . S
C727 O728 1.550 . S
C727 H729 0.973 . S
O728 C727 1.550 . S
O728 C734 1.412 . S
H729 C727 0.973 . S
C730 H723 0.929 . S
C730 C731 1.400 . S
C730 C732 1.364 . S
C731 C730 1.400 . S
C731 C735 1.377 . S
C732 C730 1.364 . S
C732 C733 1.374 . S
C733 H724 0.930 . S
C733 C732 1.374 . S
C733 C734 1.383 . S
C734 O728 1.412 . S
C734 C733 1.383 . S
C734 C735 1.394 . S
C735 H725 0.929 . S
C735 C731 1.377 . S
C735 C734 1.394 . S
H736 C743 0.929 . S
H737 C746 0.930 . S
H738 C748 0.929 . S
H739 C740 0.969 . S
C740 H739 0.969 . S
C740 O741 1.550 . S
C740 H742 0.973 . S
O741 C740 1.550 . S
O741 C747 1.412 . S
H742 C740 0.973 . S
C743 H736 0.929 . S
C743 C744 1.400 . S
C743 C745 1.364 . S
C744 C743 1.400 . S
C744 C748 1.377 . S
C745 C743 1.364 . S
C745 C746 1.374 . S
C746 H737 0.930 . S
C746 C745 1.374 . S
C746 C747 1.383 . S
C747 O741 1.412 . S
C747 C746 1.383 . S
C747 C748 1.394 . S
C748 H738 0.929 . S
C748 C744 1.377 . S
C748 C747 1.394 . S
H749 C756 0.929 . S
H750 C759 0.930 . S
H751 C761 0.929 . S
H752 C753 0.969 . S
C753 H752 0.969 . S
C753 O754 1.550 . S
C753 H755 0.973 . S
O754 C753 1.550 . S
O754 C760 1.412 . S
H755 C753 0.973 . S
C756 H749 0.929 . S
C756 C757 1.400 . S
C756 C758 1.364 . S
C757 C756 1.400 . S
C757 C761 1.377 . S
C758 C756 1.364 . S
C758 C759 1.374 . S
C759 H750 0.930 . S
C759 C758 1.374 . S
C759 C760 1.383 . S
C760 O754 1.412 . S
C760 C759 1.383 . S
C760 C761 1.394 . S
C761 H751 0.929 . S
C761 C757 1.377 . S
C761 C760 1.394 . S
H762 C769 0.929 . S
H763 C772 0.930 . S
H764 C774 0.929 . S
H765 C766 0.969 . S
C766 H765 0.969 . S
C766 O767 1.550 . S
C766 H768 0.973 . S
O767 C766 1.550 . S
O767 C773 1.412 . S
H768 C766 0.973 . S
C769 H762 0.929 . S
C769 C770 1.400 . S
C769 C771 1.364 . S
C770 C769 1.400 . S
C770 C774 1.377 . S
C771 C769 1.364 . S
C771 C772 1.374 . S
C772 H763 0.930 . S
C772 C771 1.374 . S
C772 C773 1.383 . S
C773 O767 1.412 . S
C773 C772 1.383 . S
C773 C774 1.394 . S
C774 H764 0.929 . S
C774 C770 1.377 . S
C774 C773 1.394 . S
H775 C782 0.929 . S
H776 C785 0.930 . S
H777 C787 0.929 . S
H778 C779 0.969 . S
C779 H778 0.969 . S
C779 O780 1.550 . S
C779 H781 0.973 . S
O780 C779 1.550 . S
O780 C786 1.412 . S
H781 C779 0.973 . S
C782 H775 0.929 . S
C782 C783 1.400 . S
C782 C784 1.364 . S
C783 C782 1.400 . S
C783 C787 1.377 . S
C784 C782 1.364 . S
C784 C785 1.374 . S
C785 H776 0.930 . S
C785 C784 1.374 . S
C785 C786 1.383 . S
C786 O780 1.412 . S
C786 C785 1.383 . S
C786 C787 1.394 . S
C787 H777 0.929 . S
C787 C783 1.377 . S
C787 C786 1.394 . S
H788 C795 0.929 . S
H789 C798 0.930 . S
H790 C800 0.929 . S
H791 C792 0.969 . S
C792 H791 0.969 . S
C792 O793 1.550 . S
C792 H794 0.973 . S
O793 C792 1.550 . S
O793 C799 1.412 . S
H794 C792 0.973 . S
C795 H788 0.929 . S
C795 C796 1.400 . S
C795 C797 1.364 . S
C796 C795 1.400 . S
C796 C800 1.377 . S
C797 C795 1.364 . S
C797 C798 1.374 . S
C798 H789 0.930 . S
C798 C797 1.374 . S
C798 C799 1.383 . S
C799 O793 1.412 . S
C799 C798 1.383 . S
C799 C800 1.394 . S
C800 H790 0.929 . S
C800 C796 1.377 . S
C800 C799 1.394 . S
H801 C808 0.929 . S
H802 C811 0.930 . S
H803 C813 0.929 . S
H804 C805 0.969 . S
C805 H804 0.969 . S
C805 O806 1.550 . S
C805 H807 0.973 . S
O806 C805 1.550 . S
O806 C812 1.412 . S
H807 C805 0.973 . S
C808 H801 0.929 . S
C808 C809 1.400 . S
C808 C810 1.364 . S
C809 C808 1.400 . S
C809 C813 1.377 . S
C810 C808 1.364 . S
C810 C811 1.374 . S
C811 H802 0.930 . S
C811 C810 1.374 . S
C811 C812 1.383 . S
C812 O806 1.412 . S
C812 C811 1.383 . S
C812 C813 1.394 . S
C813 H803 0.929 . S
C813 C809 1.377 . S
C813 C812 1.394 . S
H814 C821 0.929 . S
H815 C824 0.930 . S
H816 C826 0.929 . S
H817 C818 0.969 . S
C818 H817 0.969 . S
C818 O819 1.550 . S
C818 H820 0.973 . S
O819 C818 1.550 . S
O819 C825 1.412 . S
H820 C818 0.973 . S
C821 H814 0.929 . S
C821 C822 1.400 . S
C821 C823 1.364 . S
C822 C821 1.400 . S
C822 C826 1.377 . S
C823 C821 1.364 . S
C823 C824 1.374 . S
C824 H815 0.930 . S
C824 C823 1.374 . S
C824 C825 1.383 . S
C825 O819 1.412 . S
C825 C824 1.383 . S
C825 C826 1.394 . S
C826 H816 0.929 . S
C826 C822 1.377 . S
C826 C825 1.394 . S
H827 C834 0.929 . S
H828 C837 0.930 . S
H829 C839 0.929 . S
H830 C831 0.969 . S
C831 H830 0.969 . S
C831 O832 1.550 . S
C831 H833 0.973 . S
O832 C831 1.550 . S
O832 C838 1.412 . S
H833 C831 0.973 . S
C834 H827 0.929 . S
C834 C835 1.400 . S
C834 C836 1.364 . S
C835 C834 1.400 . S
C835 C839 1.377 . S
C836 C834 1.364 . S
C836 C837 1.374 . S
C837 H828 0.930 . S
C837 C836 1.374 . S
C837 C838 1.383 . S
C838 O832 1.412 . S
C838 C837 1.383 . S
C838 C839 1.394 . S
C839 H829 0.929 . S
C839 C835 1.377 . S
C839 C838 1.394 . S
H840 C847 0.929 . S
H841 C850 0.930 . S
H842 C852 0.929 . S
H843 C844 0.969 . S
C844 H843 0.969 . S
C844 O845 1.550 . S
C844 H846 0.973 . S
O845 C844 1.550 . S
O845 C851 1.412 . S
H846 C844 0.973 . S
C847 H840 0.929 . S
C847 C848 1.400 . S
C847 C849 1.364 . S
C848 C847 1.400 . S
C848 C852 1.377 . S
C849 C847 1.364 . S
C849 C850 1.374 . S
C850 H841 0.930 . S
C850 C849 1.374 . S
C850 C851 1.383 . S
C851 O845 1.412 . S
C851 C850 1.383 . S
C851 C852 1.394 . S
C852 H842 0.929 . S
C852 C848 1.377 . S
C852 C851 1.394 . S
H853 C860 0.929 . S
H854 C863 0.930 . S
H855 C865 0.929 . S
H856 C857 0.969 . S
C857 H856 0.969 . S
C857 O858 1.550 . S
C857 H859 0.973 . S
O858 C857 1.550 . S
O858 C864 1.412 . S
H859 C857 0.973 . S
C860 H853 0.929 . S
C860 C861 1.400 . S
C860 C862 1.364 . S
C861 C860 1.400 . S
C861 C865 1.377 . S
C862 C860 1.364 . S
C862 C863 1.374 . S
C863 H854 0.930 . S
C863 C862 1.374 . S
C863 C864 1.383 . S
C864 O858 1.412 . S
C864 C863 1.383 . S
C864 C865 1.394 . S
C865 H855 0.929 . S
C865 C861 1.377 . S
C865 C864 1.394 . S
H866 C873 0.929 . S
H867 C876 0.930 . S
H868 C878 0.929 . S
H869 C870 0.969 . S
C870 H869 0.969 . S
C870 O871 1.550 . S
C870 H872 0.973 . S
O871 C870 1.550 . S
O871 C877 1.412 . S
H872 C870 0.973 . S
C873 H866 0.929 . S
C873 C874 1.400 . S
C873 C875 1.364 . S
C874 C873 1.400 . S
C874 C878 1.377 . S
C875 C873 1.364 . S
C875 C876 1.374 . S
C876 H867 0.930 . S
C876 C875 1.374 . S
C876 C877 1.383 . S
C877 O871 1.412 . S
C877 C876 1.383 . S
C877 C878 1.394 . S
C878 H868 0.929 . S
C878 C874 1.377 . S
C878 C877 1.394 . S
H879 C886 0.929 . S
H880 C889 0.930 . S
H881 C891 0.929 . S
H882 C883 0.969 . S
C883 H882 0.969 . S
C883 O884 1.550 . S
C883 H885 0.973 . S
O884 C883 1.550 . S
O884 C890 1.412 . S
H885 C883 0.973 . S
C886 H879 0.929 . S
C886 C887 1.400 . S
C886 C888 1.364 . S
C887 C886 1.400 . S
C887 C891 1.377 . S
C888 C886 1.364 . S
C888 C889 1.374 . S
C889 H880 0.930 . S
C889 C888 1.374 . S
C889 C890 1.383 . S
C890 O884 1.412 . S
C890 C889 1.383 . S
C890 C891 1.394 . S
C891 H881 0.929 . S
C891 C887 1.377 . S
C891 C890 1.394 . S
H892 C899 0.929 . S
H893 C902 0.930 . S
H894 C904 0.929 . S
H895 C896 0.969 . S
C896 H895 0.969 . S
C896 O897 1.550 . S
C896 H898 0.973 . S
O897 C896 1.550 . S
O897 C903 1.412 . S
H898 C896 0.973 . S
C899 H892 0.929 . S
C899 C900 1.400 . S
C899 C901 1.364 . S
C900 C899 1.400 . S
C900 C904 1.377 . S
C901 C899 1.364 . S
C901 C902 1.374 . S
C902 H893 0.930 . S
C902 C901 1.374 . S
C902 C903 1.383 . S
C903 O897 1.412 . S
C903 C902 1.383 . S
C903 C904 1.394 . S
C904 H894 0.929 . S
C904 C900 1.377 . S
C904 C903 1.394 . S
H905 C912 0.929 . S
H906 C915 0.930 . S
H907 C917 0.929 . S
H908 C909 0.969 . S
C909 H908 0.969 . S
C909 O910 1.550 . S
C909 H911 0.973 . S
O910 C909 1.550 . S
O910 C916 1.412 . S
H911 C909 0.973 . S
C912 H905 0.929 . S
C912 C913 1.400 . S
C912 C914 1.364 . S
C913 C912 1.400 . S
C913 C917 1.377 . S
C914 C912 1.364 . S
C914 C915 1.374 . S
C915 H906 0.930 . S
C915 C914 1.374 . S
C915 C916 1.383 . S
C916 O910 1.412 . S
C916 C915 1.383 . S
C916 C917 1.394 . S
C917 H907 0.929 . S
C917 C913 1.377 . S
C917 C916 1.394 . S
H918 C925 0.929 . S
H919 C928 0.930 . S
H920 C930 0.929 . S
H921 C922 0.969 . S
C922 H921 0.969 . S
C922 O923 1.550 . S
C922 H924 0.973 . S
O923 C922 1.550 . S
O923 C929 1.412 . S
H924 C922 0.973 . S
C925 H918 0.929 . S
C925 C926 1.400 . S
C925 C927 1.364 . S
C926 C925 1.400 . S
C926 C930 1.377 . S
C927 C925 1.364 . S
C927 C928 1.374 . S
C928 H919 0.930 . S
C928 C927 1.374 . S
C928 C929 1.383 . S
C929 O923 1.412 . S
C929 C928 1.383 . S
C929 C930 1.394 . S
C930 H920 0.929 . S
C930 C926 1.377 . S
C930 C929 1.394 . S
H931 C938 0.929 . S
H932 C941 0.930 . S
H933 C943 0.929 . S
H934 C935 0.969 . S
C935 H934 0.969 . S
C935 O936 1.550 . S
C935 H937 0.973 . S
O936 C935 1.550 . S
O936 C942 1.412 . S
H937 C935 0.973 . S
C938 H931 0.929 . S
C938 C939 1.400 . S
C938 C940 1.364 . S
C939 C938 1.400 . S
C939 C943 1.377 . S
C940 C938 1.364 . S
C940 C941 1.374 . S
C941 H932 0.930 . S
C941 C940 1.374 . S
C941 C942 1.383 . S
C942 O936 1.412 . S
C942 C941 1.383 . S
C942 C943 1.394 . S
C943 H933 0.929 . S
C943 C939 1.377 . S
C943 C942 1.394 . S
H944 C951 0.929 . S
H945 C954 0.930 . S
H946 C956 0.929 . S
H947 C948 0.969 . S
C948 H947 0.969 . S
C948 O949 1.550 . S
C948 H950 0.973 . S
O949 C948 1.550 . S
O949 C955 1.412 . S
H950 C948 0.973 . S
C951 H944 0.929 . S
C951 C952 1.400 . S
C951 C953 1.364 . S
C952 C951 1.400 . S
C952 C956 1.377 . S
C953 C951 1.364 . S
C953 C954 1.374 . S
C954 H945 0.930 . S
C954 C953 1.374 . S
C954 C955 1.383 . S
C955 O949 1.412 . S
C955 C954 1.383 . S
C955 C956 1.394 . S
C956 H946 0.929 . S
C956 C952 1.377 . S
C956 C955 1.394 . S
H957 C964 0.929 . S
H958 C967 0.930 . S
H959 C969 0.929 . S
H960 C961 0.969 . S
C961 H960 0.969 . S
C961 O962 1.550 . S
C961 H963 0.973 . S
O962 C961 1.550 . S
O962 C968 1.412 . S
H963 C961 0.973 . S
C964 H957 0.929 . S
C964 C965 1.400 . S
C964 C966 1.364 . S
C965 C964 1.400 . S
C965 C969 1.377 . S
C966 C964 1.364 . S
C966 C967 1.374 . S
C967 H958 0.930 . S
C967 C966 1.374 . S
C967 C968 1.383 . S
C968 O962 1.412 . S
C968 C967 1.383 . S
C968 C969 1.394 . S
C969 H959 0.929 . S
C969 C965 1.377 . S
C969 C968 1.394 . S
H970 C977 0.929 . S
H971 C980 0.930 . S
H972 C982 0.929 . S
H973 C974 0.969 . S
C974 H973 0.969 . S
C974 O975 1.550 . S
C974 H976 0.973 . S
O975 C974 1.550 . S
O975 C981 1.412 . S
H976 C974 0.973 . S
C977 H970 0.929 . S
C977 C978 1.400 . S
C977 C979 1.364 . S
C978 C977 1.400 . S
C978 C982 1.377 . S
C979 C977 1.364 . S
C979 C980 1.374 . S
C980 H971 0.930 . S
C980 C979 1.374 . S
C980 C981 1.383 . S
C981 O975 1.412 . S
C981 C980 1.383 . S
C981 C982 1.394 . S
C982 H972 0.929 . S
C982 C978 1.377 . S
C982 C981 1.394 . S
H983 C990 0.929 . S
H984 C993 0.930 . S
H985 C995 0.929 . S
H986 C987 0.969 . S
C987 H986 0.969 . S
C987 O988 1.550 . S
C987 H989 0.973 . S
O988 C987 1.550 . S
O988 C994 1.412 . S
H989 C987 0.973 . S
C990 H983 0.929 . S
C990 C991 1.400 . S
C990 C992 1.364 . S
C991 C990 1.400 . S
C991 C995 1.377 . S
C992 C990 1.364 . S
C992 C993 1.374 . S
C993 H984 0.930 . S
C993 C992 1.374 . S
C993 C994 1.383 . S
C994 O988 1.412 . S
C994 C993 1.383 . S
C994 C995 1.394 . S
C995 H985 0.929 . S
C995 C991 1.377 . S
C995 C994 1.394 . S
H996 C1003 0.929 . S
H997 C1006 0.930 . S
H998 C1008 0.929 . S
H999 C1000 0.969 . S
C1000 H999 0.969 . S
C1000 O1001 1.550 . S
C1000 H1002 0.973 . S
O1001 C1000 1.550 . S
O1001 C1007 1.412 . S
H1002 C1000 0.973 . S
C1003 H996 0.929 . S
C1003 C1004 1.400 . S
C1003 C1005 1.364 . S
C1004 C1003 1.400 . S
C1004 C1008 1.377 . S
C1005 C1003 1.364 . S
C1005 C1006 1.374 . S
C1006 H997 0.930 . S
C1006 C1005 1.374 . S
C1006 C1007 1.383 . S
C1007 O1001 1.412 . S
C1007 C1006 1.383 . S
C1007 C1008 1.394 . S
C1008 H998 0.929 . S
C1008 C1004 1.377 . S
C1008 C1007 1.394 . S
H1009 C1016 0.929 . S
H1010 C1019 0.930 . S
H1011 C1021 0.929 . S
H1012 C1013 0.969 . S
C1013 H1012 0.969 . S
C1013 O1014 1.550 . S
C1013 H1015 0.973 . S
O1014 C1013 1.550 . S
O1014 C1020 1.412 . S
H1015 C1013 0.973 . S
C1016 H1009 0.929 . S
C1016 C1017 1.400 . S
C1016 C1018 1.364 . S
C1017 C1016 1.400 . S
C1017 C1021 1.377 . S
C1018 C1016 1.364 . S
C1018 C1019 1.374 . S
C1019 H1010 0.930 . S
C1019 C1018 1.374 . S
C1019 C1020 1.383 . S
C1020 O1014 1.412 . S
C1020 C1019 1.383 . S
C1020 C1021 1.394 . S
C1021 H1011 0.929 . S
C1021 C1017 1.377 . S
C1021 C1020 1.394 . S
H1022 C1029 0.929 . S
H1023 C1032 0.930 . S
H1024 C1034 0.929 . S
H1025 C1026 0.969 . S
C1026 H1025 0.969 . S
C1026 O1027 1.550 . S
C1026 H1028 0.973 . S
O1027 C1026 1.550 . S
O1027 C1033 1.412 . S
H1028 C1026 0.973 . S
C1029 H1022 0.929 . S
C1029 C1030 1.400 . S
C1029 C1031 1.364 . S
C1030 C1029 1.400 . S
C1030 C1034 1.377 . S
C1031 C1029 1.364 . S
C1031 C1032 1.374 . S
C1032 H1023 0.930 . S
C1032 C1031 1.374 . S
C1032 C1033 1.383 . S
C1033 O1027 1.412 . S
C1033 C1032 1.383 . S
C1033 C1034 1.394 . S
C1034 H1024 0.929 . S
C1034 C1030 1.377 . S
C1034 C1033 1.394 . S
H1035 C1042 0.929 . S
H1036 C1045 0.930 . S
H1037 C1047 0.929 . S
H1038 C1039 0.969 . S
C1039 H1038 0.969 . S
C1039 O1040 1.550 . S
C1039 H1041 0.973 . S
O1040 C1039 1.550 . S
O1040 C1046 1.412 . S
H1041 C1039 0.973 . S
C1042 H1035 0.929 . S
C1042 C1043 1.400 . S
C1042 C1044 1.364 . S
C1043 C1042 1.400 . S
C1043 C1047 1.377 . S
C1044 C1042 1.364 . S
C1044 C1045 1.374 . S
C1045 H1036 0.930 . S
C1045 C1044 1.374 . S
C1045 C1046 1.383 . S
C1046 O1040 1.412 . S
C1046 C1045 1.383 . S
C1046 C1047 1.394 . S
C1047 H1037 0.929 . S
C1047 C1043 1.377 . S
C1047 C1046 1.394 . S
H1048 C1055 0.929 . S
H1049 C1058 0.930 . S
H1050 C1060 0.929 . S
H1051 C1052 0.969 . S
C1052 H1051 0.969 . S
C1052 O1053 1.550 . S
C1052 H1054 0.973 . S
O1053 C1052 1.550 . S
O1053 C1059 1.412 . S
H1054 C1052 0.973 . S
C1055 H1048 0.929 . S
C1055 C1056 1.400 . S
C1055 C1057 1.364 . S
C1056 C1055 1.400 . S
C1056 C1060 1.377 . S
C1057 C1055 1.364 . S
C1057 C1058 1.374 . S
C1058 H1049 0.930 . S
C1058 C1057 1.374 . S
C1058 C1059 1.383 . S
C1059 O1053 1.412 . S
C1059 C1058 1.383 . S
C1059 C1060 1.394 . S
C1060 H1050 0.929 . S
C1060 C1056 1.377 . S
C1060 C1059 1.394 . S
H1061 C1068 0.929 . S
H1062 C1071 0.930 . S
H1063 C1073 0.929 . S
H1064 C1065 0.969 . S
C1065 H1064 0.969 . S
C1065 O1066 1.550 . S
C1065 H1067 0.973 . S
O1066 C1065 1.550 . S
O1066 C1072 1.412 . S
H1067 C1065 0.973 . S
C1068 H1061 0.929 . S
C1068 C1069 1.400 . S
C1068 C1070 1.364 . S
C1069 C1068 1.400 . S
C1069 C1073 1.377 . S
C1070 C1068 1.364 . S
C1070 C1071 1.374 . S
C1071 H1062 0.930 . S
C1071 C1070 1.374 . S
C1071 C1072 1.383 . S
C1072 O1066 1.412 . S
C1072 C1071 1.383 . S
C1072 C1073 1.394 . S
C1073 H1063 0.929 . S
C1073 C1069 1.377 . S
C1073 C1072 1.394 . S
H1074 C1081 0.929 . S
H1075 C1084 0.930 . S
H1076 C1086 0.929 . S
H1077 C1078 0.969 . S
C1078 H1077 0.969 . S
C1078 O1079 1.550 . S
C1078 H1080 0.973 . S
O1079 C1078 1.550 . S
O1079 C1085 1.412 . S
H1080 C1078 0.973 . S
C1081 H1074 0.929 . S
C1081 C1082 1.400 . S
C1081 C1083 1.364 . S
C1082 C1081 1.400 . S
C1082 C1086 1.377 . S
C1083 C1081 1.364 . S
C1083 C1084 1.374 . S
C1084 H1075 0.930 . S
C1084 C1083 1.374 . S
C1084 C1085 1.383 . S
C1085 O1079 1.412 . S
C1085 C1084 1.383 . S
C1085 C1086 1.394 . S
C1086 H1076 0.929 . S
C1086 C1082 1.377 . S
C1086 C1085 1.394 . S
H1087 C1094 0.929 . S
H1088 C1097 0.930 . S
H1089 C1099 0.929 . S
H1090 C1091 0.969 . S
C1091 H1090 0.969 . S
C1091 O1092 1.550 . S
C1091 H1093 0.973 . S
O1092 C1091 1.550 . S
O1092 C1098 1.412 . S
H1093 C1091 0.973 . S
C1094 H1087 0.929 . S
C1094 C1095 1.400 . S
C1094 C1096 1.364 . S
C1095 C1094 1.400 . S
C1095 C1099 1.377 . S
C1096 C1094 1.364 . S
C1096 C1097 1.374 . S
C1097 H1088 0.930 . S
C1097 C1096 1.374 . S
C1097 C1098 1.383 . S
C1098 O1092 1.412 . S
C1098 C1097 1.383 . S
C1098 C1099 1.394 . S
C1099 H1089 0.929 . S
C1099 C1095 1.377 . S
C1099 C1098 1.394 . S
H1100 C1107 0.929 . S
H1101 C1110 0.930 . S
H1102 C1112 0.929 . S
H1103 C1104 0.969 . S
C1104 H1103 0.969 . S
C1104 O1105 1.550 . S
C1104 H1106 0.973 . S
O1105 C1104 1.550 . S
O1105 C1111 1.412 . S
H1106 C1104 0.973 . S
C1107 H1100 0.929 . S
C1107 C1108 1.400 . S
C1107 C1109 1.364 . S
C1108 C1107 1.400 . S
C1108 C1112 1.377 . S
C1109 C1107 1.364 . S
C1109 C1110 1.374 . S
C1110 H1101 0.930 . S
C1110 C1109 1.374 . S
C1110 C1111 1.383 . S
C1111 O1105 1.412 . S
C1111 C1110 1.383 . S
C1111 C1112 1.394 . S
C1112 H1102 0.929 . S
C1112 C1108 1.377 . S
C1112 C1111 1.394 . S
H1113 C1120 0.929 . S
H1114 C1123 0.930 . S
H1115 C1125 0.929 . S
H1116 C1117 0.969 . S
C1117 H1116 0.969 . S
C1117 O1118 1.550 . S
C1117 H1119 0.973 . S
O1118 C1117 1.550 . S
O1118 C1124 1.412 . S
H1119 C1117 0.973 . S
C1120 H1113 0.929 . S
C1120 C1121 1.400 . S
C1120 C1122 1.364 . S
C1121 C1120 1.400 . S
C1121 C1125 1.377 . S
C1122 C1120 1.364 . S
C1122 C1123 1.374 . S
C1123 H1114 0.930 . S
C1123 C1122 1.374 . S
C1123 C1124 1.383 . S
C1124 O1118 1.412 . S
C1124 C1123 1.383 . S
C1124 C1125 1.394 . S
C1125 H1115 0.929 . S
C1125 C1121 1.377 . S
C1125 C1124 1.394 . S
H1126 C1133 0.929 . S
H1127 C1136 0.930 . S
H1128 C1138 0.929 . S
H1129 C1130 0.969 . S
C1130 H1129 0.969 . S
C1130 O1131 1.550 . S
C1130 H1132 0.973 . S
O1131 C1130 1.550 . S
O1131 C1137 1.412 . S
H1132 C1130 0.973 . S
C1133 H1126 0.929 . S
C1133 C1134 1.400 . S
C1133 C1135 1.364 . S
C1134 C1133 1.400 . S
C1134 C1138 1.377 . S
C1135 C1133 1.364 . S
C1135 C1136 1.374 . S
C1136 H1127 0.930 . S
C1136 C1135 1.374 . S
C1136 C1137 1.383 . S
C1137 O1131 1.412 . S
C1137 C1136 1.383 . S
C1137 C1138 1.394 . S
C1138 H1128 0.929 . S
C1138 C1134 1.377 . S
C1138 C1137 1.394 . S
H1139 C1146 0.929 . S
H1140 C1149 0.930 . S
H1141 C1151 0.929 . S
H1142 C1143 0.969 . S
C1143 H1142 0.969 . S
C1143 O1144 1.550 . S
C1143 H1145 0.973 . S
O1144 C1143 1.550 . S
O1144 C1150 1.412 . S
H1145 C1143 0.973 . S
C1146 H1139 0.929 . S
C1146 C1147 1.400 . S
C1146 C1148 1.364 . S
C1147 C1146 1.400 . S
C1147 C1151 1.377 . S
C1148 C1146 1.364 . S
C1148 C1149 1.374 . S
C1149 H1140 0.930 . S
C1149 C1148 1.374 . S
C1149 C1150 1.383 . S
C1150 O1144 1.412 . S
C1150 C1149 1.383 . S
C1150 C1151 1.394 . S
C1151 H1141 0.929 . S
C1151 C1147 1.377 . S
C1151 C1150 1.394 . S
H1152 C1160 0.950 . S
H1153 C1165 0.950 . S
H1154 C1162 0.950 . S
H1155 C1164 0.950 . S
H1156 C1166 0.950 . S
H1157 C1168 0.950 . S
H1158 C1170 0.950 . S
H1159 C1171 0.950 . S
C1160 H1152 0.950 . S
C1160 C1161 1.386 . S
C1160 C1162 1.391 . S
C1161 C1160 1.386 . S
C1161 C1165 1.393 . S
C1162 H1154 0.950 . S
C1162 C1160 1.391 . S
C1162 C1163 1.400 . S
C1163 C1162 1.400 . S
C1163 C1164 1.398 . S
C1163 C1169 1.491 . S
C1164 H1155 0.950 . S
C1164 C1163 1.398 . S
C1164 C1165 1.391 . S
C1165 H1153 0.950 . S
C1165 C1161 1.393 . S
C1165 C1164 1.391 . S
C1166 H1156 0.950 . S
C1166 C1167 1.386 . S
C1166 C1168 1.391 . S
C1167 C1166 1.386 . S
C1167 C1171 1.393 . S
C1168 H1157 0.950 . S
C1168 C1166 1.391 . S
C1168 C1169 1.400 . S
C1169 C1163 1.491 . S
C1169 C1168 1.400 . S
C1169 C1170 1.398 . S
C1170 H1158 0.950 . S
C1170 C1169 1.398 . S
C1170 C1171 1.391 . S
C1171 H1159 0.950 . S
C1171 C1167 1.393 . S
C1171 C1170 1.391 . S
H1172 C1180 0.950 . S
H1173 C1185 0.950 . S
H1174 C1182 0.950 . S
H1175 C1184 0.950 . S
H1176 C1186 0.950 . S
H1177 C1188 0.950 . S
H1178 C1190 0.950 . S
H1179 C1191 0.950 . S
C1180 H1172 0.950 . S
C1180 C1181 1.386 . S
C1180 C1182 1.391 . S
C1181 C1180 1.386 . S
C1181 C1185 1.393 . S
C1182 H1174 0.950 . S
C1182 C1180 1.391 . S
C1182 C1183 1.400 . S
C1183 C1182 1.400 . S
C1183 C1184 1.398 . S
C1183 C1189 1.491 . S
C1184 H1175 0.950 . S
C1184 C1183 1.398 . S
C1184 C1185 1.391 . S
C1185 H1173 0.950 . S
C1185 C1181 1.393 . S
C1185 C1184 1.391 . S
C1186 H1176 0.950 . S
C1186 C1187 1.386 . S
C1186 C1188 1.391 . S
C1187 C1186 1.386 . S
C1187 C1191 1.393 . S
C1188 H1177 0.950 . S
C1188 C1186 1.391 . S
C1188 C1189 1.400 . S
C1189 C1183 1.491 . S
C1189 C1188 1.400 . S
C1189 C1190 1.398 . S
C1190 H1178 0.950 . S
C1190 C1189 1.398 . S
C1190 C1191 1.391 . S
C1191 H1179 0.950 . S
C1191 C1187 1.393 . S
C1191 C1190 1.391 . S
H1192 C1200 0.950 . S
H1193 C1205 0.950 . S
H1194 C1202 0.950 . S
H1195 C1204 0.950 . S
H1196 C1206 0.950 . S
H1197 C1208 0.950 . S
H1198 C1210 0.950 . S
H1199 C1211 0.950 . S
C1200 H1192 0.950 . S
C1200 C1201 1.386 . S
C1200 C1202 1.391 . S
C1201 C1200 1.386 . S
C1201 C1205 1.393 . S
C1202 H1194 0.950 . S
C1202 C1200 1.391 . S
C1202 C1203 1.400 . S
C1203 C1202 1.400 . S
C1203 C1204 1.398 . S
C1203 C1209 1.491 . S
C1204 H1195 0.950 . S
C1204 C1203 1.398 . S
C1204 C1205 1.391 . S
C1205 H1193 0.950 . S
C1205 C1201 1.393 . S
C1205 C1204 1.391 . S
C1206 H1196 0.950 . S
C1206 C1207 1.386 . S
C1206 C1208 1.391 . S
C1207 C1206 1.386 . S
C1207 C1211 1.393 . S
C1208 H1197 0.950 . S
C1208 C1206 1.391 . S
C1208 C1209 1.400 . S
C1209 C1203 1.491 . S
C1209 C1208 1.400 . S
C1209 C1210 1.398 . S
C1210 H1198 0.950 . S
C1210 C1209 1.398 . S
C1210 C1211 1.391 . S
C1211 H1199 0.950 . S
C1211 C1207 1.393 . S
C1211 C1210 1.391 . S
H1212 C1220 0.950 . S
H1213 C1225 0.950 . S
H1214 C1222 0.950 . S
H1215 C1224 0.950 . S
H1216 C1226 0.950 . S
H1217 C1228 0.950 . S
H1218 C1230 0.950 . S
H1219 C1231 0.950 . S
C1220 H1212 0.950 . S
C1220 C1221 1.386 . S
C1220 C1222 1.391 . S
C1221 C1220 1.386 . S
C1221 C1225 1.393 . S
C1222 H1214 0.950 . S
C1222 C1220 1.391 . S
C1222 C1223 1.400 . S
C1223 C1222 1.400 . S
C1223 C1224 1.398 . S
C1223 C1229 1.491 . S
C1224 H1215 0.950 . S
C1224 C1223 1.398 . S
C1224 C1225 1.391 . S
C1225 H1213 0.950 . S
C1225 C1221 1.393 . S
C1225 C1224 1.391 . S
C1226 H1216 0.950 . S
C1226 C1227 1.386 . S
C1226 C1228 1.391 . S
C1227 C1226 1.386 . S
C1227 C1231 1.393 . S
C1228 H1217 0.950 . S
C1228 C1226 1.391 . S
C1228 C1229 1.400 . S
C1229 C1223 1.491 . S
C1229 C1228 1.400 . S
C1229 C1230 1.398 . S
C1230 H1218 0.950 . S
C1230 C1229 1.398 . S
C1230 C1231 1.391 . S
C1231 H1219 0.950 . S
C1231 C1227 1.393 . S
C1231 C1230 1.391 . S
H1232 C1240 0.950 . S
H1233 C1245 0.950 . S
H1234 C1242 0.950 . S
H1235 C1244 0.950 . S
H1236 C1246 0.950 . S
H1237 C1248 0.950 . S
H1238 C1250 0.950 . S
H1239 C1251 0.950 . S
C1240 H1232 0.950 . S
C1240 C1241 1.386 . S
C1240 C1242 1.391 . S
C1241 C1240 1.386 . S
C1241 C1245 1.393 . S
C1242 H1234 0.950 . S
C1242 C1240 1.391 . S
C1242 C1243 1.400 . S
C1243 C1242 1.400 . S
C1243 C1244 1.398 . S
C1243 C1249 1.491 . S
C1244 H1235 0.950 . S
C1244 C1243 1.398 . S
C1244 C1245 1.391 . S
C1245 H1233 0.950 . S
C1245 C1241 1.393 . S
C1245 C1244 1.391 . S
C1246 H1236 0.950 . S
C1246 C1247 1.386 . S
C1246 C1248 1.391 . S
C1247 C1246 1.386 . S
C1247 C1251 1.393 . S
C1248 H1237 0.950 . S
C1248 C1246 1.391 . S
C1248 C1249 1.400 . S
C1249 C1243 1.491 . S
C1249 C1248 1.400 . S
C1249 C1250 1.398 . S
C1250 H1238 0.950 . S
C1250 C1249 1.398 . S
C1250 C1251 1.391 . S
C1251 H1239 0.950 . S
C1251 C1247 1.393 . S
C1251 C1250 1.391 . S
H1252 C1260 0.950 . S
H1253 C1265 0.950 . S
H1254 C1262 0.950 . S
H1255 C1264 0.950 . S
H1256 C1266 0.950 . S
H1257 C1268 0.950 . S
H1258 C1270 0.950 . S
H1259 C1271 0.950 . S
C1260 H1252 0.950 . S
C1260 C1261 1.386 . S
C1260 C1262 1.391 . S
C1261 C1260 1.386 . S
C1261 C1265 1.393 . S
C1262 H1254 0.950 . S
C1262 C1260 1.391 . S
C1262 C1263 1.400 . S
C1263 C1262 1.400 . S
C1263 C1264 1.398 . S
C1263 C1269 1.491 . S
C1264 H1255 0.950 . S
C1264 C1263 1.398 . S
C1264 C1265 1.391 . S
C1265 H1253 0.950 . S
C1265 C1261 1.393 . S
C1265 C1264 1.391 . S
C1266 H1256 0.950 . S
C1266 C1267 1.386 . S
C1266 C1268 1.391 . S
C1267 C1266 1.386 . S
C1267 C1271 1.393 . S
C1268 H1257 0.950 . S
C1268 C1266 1.391 . S
C1268 C1269 1.400 . S
C1269 C1263 1.491 . S
C1269 C1268 1.400 . S
C1269 C1270 1.398 . S
C1270 H1258 0.950 . S
C1270 C1269 1.398 . S
C1270 C1271 1.391 . S
C1271 H1259 0.950 . S
C1271 C1267 1.393 . S
C1271 C1270 1.391 . S
H1272 C1280 0.950 . S
H1273 C1285 0.950 . S
H1274 C1282 0.950 . S
H1275 C1284 0.950 . S
H1276 C1286 0.950 . S
H1277 C1288 0.950 . S
H1278 C1290 0.950 . S
H1279 C1291 0.950 . S
C1280 H1272 0.950 . S
C1280 C1281 1.386 . S
C1280 C1282 1.391 . S
C1281 C1280 1.386 . S
C1281 C1285 1.393 . S
C1282 H1274 0.950 . S
C1282 C1280 1.391 . S
C1282 C1283 1.400 . S
C1283 C1282 1.400 . S
C1283 C1284 1.398 . S
C1283 C1289 1.491 . S
C1284 H1275 0.950 . S
C1284 C1283 1.398 . S
C1284 C1285 1.391 . S
C1285 H1273 0.950 . S
C1285 C1281 1.393 . S
C1285 C1284 1.391 . S
C1286 H1276 0.950 . S
C1286 C1287 1.386 . S
C1286 C1288 1.391 . S
C1287 C1286 1.386 . S
C1287 C1291 1.393 . S
C1288 H1277 0.950 . S
C1288 C1286 1.391 . S
C1288 C1289 1.400 . S
C1289 C1283 1.491 . S
C1289 C1288 1.400 . S
C1289 C1290 1.398 . S
C1290 H1278 0.950 . S
C1290 C1289 1.398 . S
C1290 C1291 1.391 . S
C1291 H1279 0.950 . S
C1291 C1287 1.393 . S
C1291 C1290 1.391 . S
H1292 C1300 0.950 . S
H1293 C1305 0.950 . S
H1294 C1302 0.950 . S
H1295 C1304 0.950 . S
H1296 C1306 0.950 . S
H1297 C1308 0.950 . S
H1298 C1310 0.950 . S
H1299 C1311 0.950 . S
C1300 H1292 0.950 . S
C1300 C1301 1.386 . S
C1300 C1302 1.391 . S
C1301 C1300 1.386 . S
C1301 C1305 1.393 . S
C1302 H1294 0.950 . S
C1302 C1300 1.391 . S
C1302 C1303 1.400 . S
C1303 C1302 1.400 . S
C1303 C1304 1.398 . S
C1303 C1309 1.491 . S
C1304 H1295 0.950 . S
C1304 C1303 1.398 . S
C1304 C1305 1.391 . S
C1305 H1293 0.950 . S
C1305 C1301 1.393 . S
C1305 C1304 1.391 . S
C1306 H1296 0.950 . S
C1306 C1307 1.386 . S
C1306 C1308 1.391 . S
C1307 C1306 1.386 . S
C1307 C1311 1.393 . S
C1308 H1297 0.950 . S
C1308 C1306 1.391 . S
C1308 C1309 1.400 . S
C1309 C1303 1.491 . S
C1309 C1308 1.400 . S
C1309 C1310 1.398 . S
C1310 H1298 0.950 . S
C1310 C1309 1.398 . S
C1310 C1311 1.391 . S
C1311 H1299 0.950 . S
C1311 C1307 1.393 . S
C1311 C1310 1.391 . S
H1312 C1320 0.950 . S
H1313 C1325 0.950 . S
H1314 C1322 0.950 . S
H1315 C1324 0.950 . S
H1316 C1326 0.950 . S
H1317 C1328 0.950 . S
H1318 C1330 0.950 . S
H1319 C1331 0.950 . S
C1320 H1312 0.950 . S
C1320 C1321 1.386 . S
C1320 C1322 1.391 . S
C1321 C1320 1.386 . S
C1321 C1325 1.393 . S
C1322 H1314 0.950 . S
C1322 C1320 1.391 . S
C1322 C1323 1.400 . S
C1323 C1322 1.400 . S
C1323 C1324 1.398 . S
C1323 C1329 1.491 . S
C1324 H1315 0.950 . S
C1324 C1323 1.398 . S
C1324 C1325 1.391 . S
C1325 H1313 0.950 . S
C1325 C1321 1.393 . S
C1325 C1324 1.391 . S
C1326 H1316 0.950 . S
C1326 C1327 1.386 . S
C1326 C1328 1.391 . S
C1327 C1326 1.386 . S
C1327 C1331 1.393 . S
C1328 H1317 0.950 . S
C1328 C1326 1.391 . S
C1328 C1329 1.400 . S
C1329 C1323 1.491 . S
C1329 C1328 1.400 . S
C1329 C1330 1.398 . S
C1330 H1318 0.950 . S
C1330 C1329 1.398 . S
C1330 C1331 1.391 . S
C1331 H1319 0.950 . S
C1331 C1327 1.393 . S
C1331 C1330 1.391 . S
H1332 C1340 0.950 . S
H1333 C1345 0.950 . S
H1334 C1342 0.950 . S
H1335 C1344 0.950 . S
H1336 C1346 0.950 . S
H1337 C1348 0.950 . S
H1338 C1350 0.950 . S
H1339 C1351 0.950 . S
C1340 H1332 0.950 . S
C1340 C1341 1.386 . S
C1340 C1342 1.391 . S
C1341 C1340 1.386 . S
C1341 C1345 1.393 . S
C1342 H1334 0.950 . S
C1342 C1340 1.391 . S
C1342 C1343 1.400 . S
C1343 C1342 1.400 . S
C1343 C1344 1.398 . S
C1343 C1349 1.491 . S
C1344 H1335 0.950 . S
C1344 C1343 1.398 . S
C1344 C1345 1.391 . S
C1345 H1333 0.950 . S
C1345 C1341 1.393 . S
C1345 C1344 1.391 . S
C1346 H1336 0.950 . S
C1346 C1347 1.386 . S
C1346 C1348 1.391 . S
C1347 C1346 1.386 . S
C1347 C1351 1.393 . S
C1348 H1337 0.950 . S
C1348 C1346 1.391 . S
C1348 C1349 1.400 . S
C1349 C1343 1.491 . S
C1349 C1348 1.400 . S
C1349 C1350 1.398 . S
C1350 H1338 0.950 . S
C1350 C1349 1.398 . S
C1350 C1351 1.391 . S
C1351 H1339 0.950 . S
C1351 C1347 1.393 . S
C1351 C1350 1.391 . S
H1352 C1360 0.950 . S
H1353 C1365 0.950 . S
H1354 C1362 0.950 . S
H1355 C1364 0.950 . S
H1356 C1366 0.950 . S
H1357 C1368 0.950 . S
H1358 C1370 0.950 . S
H1359 C1371 0.950 . S
C1360 H1352 0.950 . S
C1360 C1361 1.386 . S
C1360 C1362 1.391 . S
C1361 C1360 1.386 . S
C1361 C1365 1.393 . S
C1362 H1354 0.950 . S
C1362 C1360 1.391 . S
C1362 C1363 1.400 . S
C1363 C1362 1.400 . S
C1363 C1364 1.398 . S
C1363 C1369 1.491 . S
C1364 H1355 0.950 . S
C1364 C1363 1.398 . S
C1364 C1365 1.391 . S
C1365 H1353 0.950 . S
C1365 C1361 1.393 . S
C1365 C1364 1.391 . S
C1366 H1356 0.950 . S
C1366 C1367 1.386 . S
C1366 C1368 1.391 . S
C1367 C1366 1.386 . S
C1367 C1371 1.393 . S
C1368 H1357 0.950 . S
C1368 C1366 1.391 . S
C1368 C1369 1.400 . S
C1369 C1363 1.491 . S
C1369 C1368 1.400 . S
C1369 C1370 1.398 . S
C1370 H1358 0.950 . S
C1370 C1369 1.398 . S
C1370 C1371 1.391 . S
C1371 H1359 0.950 . S
C1371 C1367 1.393 . S
C1371 C1370 1.391 . S
H1372 C1380 0.950 . S
H1373 C1385 0.950 . S
H1374 C1382 0.950 . S
H1375 C1384 0.950 . S
H1376 C1386 0.950 . S
H1377 C1388 0.950 . S
H1378 C1390 0.950 . S
H1379 C1391 0.950 . S
C1380 H1372 0.950 . S
C1380 C1381 1.386 . S
C1380 C1382 1.391 . S
C1381 C1380 1.386 . S
C1381 C1385 1.393 . S
C1382 H1374 0.950 . S
C1382 C1380 1.391 . S
C1382 C1383 1.400 . S
C1383 C1382 1.400 . S
C1383 C1384 1.398 . S
C1383 C1389 1.491 . S
C1384 H1375 0.950 . S
C1384 C1383 1.398 . S
C1384 C1385 1.391 . S
C1385 H1373 0.950 . S
C1385 C1381 1.393 . S
C1385 C1384 1.391 . S
C1386 H1376 0.950 . S
C1386 C1387 1.386 . S
C1386 C1388 1.391 . S
C1387 C1386 1.386 . S
C1387 C1391 1.393 . S
C1388 H1377 0.950 . S
C1388 C1386 1.391 . S
C1388 C1389 1.400 . S
C1389 C1383 1.491 . S
C1389 C1388 1.400 . S
C1389 C1390 1.398 . S
C1390 H1378 0.950 . S
C1390 C1389 1.398 . S
C1390 C1391 1.391 . S
C1391 H1379 0.950 . S
C1391 C1387 1.393 . S
C1391 C1390 1.391 . S
H1392 C1400 0.950 . S
H1393 C1405 0.950 . S
H1394 C1402 0.950 . S
H1395 C1404 0.950 . S
H1396 C1406 0.950 . S
H1397 C1408 0.950 . S
H1398 C1410 0.950 . S
H1399 C1411 0.950 . S
C1400 H1392 0.950 . S
C1400 C1401 1.386 . S
C1400 C1402 1.391 . S
C1401 C1400 1.386 . S
C1401 C1405 1.393 . S
C1402 H1394 0.950 . S
C1402 C1400 1.391 . S
C1402 C1403 1.400 . S
C1403 C1402 1.400 . S
C1403 C1404 1.398 . S
C1403 C1409 1.491 . S
C1404 H1395 0.950 . S
C1404 C1403 1.398 . S
C1404 C1405 1.391 . S
C1405 H1393 0.950 . S
C1405 C1401 1.393 . S
C1405 C1404 1.391 . S
C1406 H1396 0.950 . S
C1406 C1407 1.386 . S
C1406 C1408 1.391 . S
C1407 C1406 1.386 . S
C1407 C1411 1.393 . S
C1408 H1397 0.950 . S
C1408 C1406 1.391 . S
C1408 C1409 1.400 . S
C1409 C1403 1.491 . S
C1409 C1408 1.400 . S
C1409 C1410 1.398 . S
C1410 H1398 0.950 . S
C1410 C1409 1.398 . S
C1410 C1411 1.391 . S
C1411 H1399 0.950 . S
C1411 C1407 1.393 . S
C1411 C1410 1.391 . S
H1412 C1420 0.950 . S
H1413 C1425 0.950 . S
H1414 C1422 0.950 . S
H1415 C1424 0.950 . S
H1416 C1426 0.950 . S
H1417 C1428 0.950 . S
H1418 C1430 0.950 . S
H1419 C1431 0.950 . S
C1420 H1412 0.950 . S
C1420 C1421 1.386 . S
C1420 C1422 1.391 . S
C1421 C1420 1.386 . S
C1421 C1425 1.393 . S
C1422 H1414 0.950 . S
C1422 C1420 1.391 . S
C1422 C1423 1.400 . S
C1423 C1422 1.400 . S
C1423 C1424 1.398 . S
C1423 C1429 1.491 . S
C1424 H1415 0.950 . S
C1424 C1423 1.398 . S
C1424 C1425 1.391 . S
C1425 H1413 0.950 . S
C1425 C1421 1.393 . S
C1425 C1424 1.391 . S
C1426 H1416 0.950 . S
C1426 C1427 1.386 . S
C1426 C1428 1.391 . S
C1427 C1426 1.386 . S
C1427 C1431 1.393 . S
C1428 H1417 0.950 . S
C1428 C1426 1.391 . S
C1428 C1429 1.400 . S
C1429 C1423 1.491 . S
C1429 C1428 1.400 . S
C1429 C1430 1.398 . S
C1430 H1418 0.950 . S
C1430 C1429 1.398 . S
C1430 C1431 1.391 . S
C1431 H1419 0.950 . S
C1431 C1427 1.393 . S
C1431 C1430 1.391 . S
H1432 C1440 0.950 . S
H1433 C1445 0.950 . S
H1434 C1442 0.950 . S
H1435 C1444 0.950 . S
H1436 C1446 0.950 . S
H1437 C1448 0.950 . S
H1438 C1450 0.950 . S
H1439 C1451 0.950 . S
C1440 H1432 0.950 . S
C1440 C1441 1.386 . S
C1440 C1442 1.391 . S
C1441 C1440 1.386 . S
C1441 C1445 1.393 . S
C1442 H1434 0.950 . S
C1442 C1440 1.391 . S
C1442 C1443 1.400 . S
C1443 C1442 1.400 . S
C1443 C1444 1.398 . S
C1443 C1449 1.491 . S
C1444 H1435 0.950 . S
C1444 C1443 1.398 . S
C1444 C1445 1.391 . S
C1445 H1433 0.950 . S
C1445 C1441 1.393 . S
C1445 C1444 1.391 . S
C1446 H1436 0.950 . S
C1446 C1447 1.386 . S
C1446 C1448 1.391 . S
C1447 C1446 1.386 . S
C1447 C1451 1.393 . S
C1448 H1437 0.950 . S
C1448 C1446 1.391 . S
C1448 C1449 1.400 . S
C1449 C1443 1.491 . S
C1449 C1448 1.400 . S
C1449 C1450 1.398 . S
C1450 H1438 0.950 . S
C1450 C1449 1.398 . S
C1450 C1451 1.391 . S
C1451 H1439 0.950 . S
C1451 C1447 1.393 . S
C1451 C1450 1.391 . S
H1452 C1460 0.950 . S
H1453 C1465 0.950 . S
H1454 C1462 0.950 . S
H1455 C1464 0.950 . S
H1456 C1466 0.950 . S
H1457 C1468 0.950 . S
H1458 C1470 0.950 . S
H1459 C1471 0.950 . S
C1460 H1452 0.950 . S
C1460 C1461 1.386 . S
C1460 C1462 1.391 . S
C1461 C1460 1.386 . S
C1461 C1465 1.393 . S
C1462 H1454 0.950 . S
C1462 C1460 1.391 . S
C1462 C1463 1.400 . S
C1463 C1462 1.400 . S
C1463 C1464 1.398 . S
C1463 C1469 1.491 . S
C1464 H1455 0.950 . S
C1464 C1463 1.398 . S
C1464 C1465 1.391 . S
C1465 H1453 0.950 . S
C1465 C1461 1.393 . S
C1465 C1464 1.391 . S
C1466 H1456 0.950 . S
C1466 C1467 1.386 . S
C1466 C1468 1.391 . S
C1467 C1466 1.386 . S
C1467 C1471 1.393 . S
C1468 H1457 0.950 . S
C1468 C1466 1.391 . S
C1468 C1469 1.400 . S
C1469 C1463 1.491 . S
C1469 C1468 1.400 . S
C1469 C1470 1.398 . S
C1470 H1458 0.950 . S
C1470 C1469 1.398 . S
C1470 C1471 1.391 . S
C1471 H1459 0.950 . S
C1471 C1467 1.393 . S
C1471 C1470 1.391 . S
H1472 C1480 0.950 . S
H1473 C1485 0.950 . S
H1474 C1482 0.950 . S
H1475 C1484 0.950 . S
H1476 C1486 0.950 . S
H1477 C1488 0.950 . S
H1478 C1490 0.950 . S
H1479 C1491 0.950 . S
C1480 H1472 0.950 . S
C1480 C1481 1.386 . S
C1480 C1482 1.391 . S
C1481 C1480 1.386 . S
C1481 C1485 1.393 . S
C1482 H1474 0.950 . S
C1482 C1480 1.391 . S
C1482 C1483 1.400 . S
C1483 C1482 1.400 . S
C1483 C1484 1.398 . S
C1483 C1489 1.491 . S
C1484 H1475 0.950 . S
C1484 C1483 1.398 . S
C1484 C1485 1.391 . S
C1485 H1473 0.950 . S
C1485 C1481 1.393 . S
C1485 C1484 1.391 . S
C1486 H1476 0.950 . S
C1486 C1487 1.386 . S
C1486 C1488 1.391 . S
C1487 C1486 1.386 . S
C1487 C1491 1.393 . S
C1488 H1477 0.950 . S
C1488 C1486 1.391 . S
C1488 C1489 1.400 . S
C1489 C1483 1.491 . S
C1489 C1488 1.400 . S
C1489 C1490 1.398 . S
C1490 H1478 0.950 . S
C1490 C1489 1.398 . S
C1490 C1491 1.391 . S
C1491 H1479 0.950 . S
C1491 C1487 1.393 . S
C1491 C1490 1.391 . S
H1492 C1500 0.950 . S
H1493 C1505 0.950 . S
H1494 C1502 0.950 . S
H1495 C1504 0.950 . S
H1496 C1506 0.950 . S
H1497 C1508 0.950 . S
H1498 C1510 0.950 . S
H1499 C1511 0.950 . S
C1500 H1492 0.950 . S
C1500 C1501 1.386 . S
C1500 C1502 1.391 . S
C1501 C1500 1.386 . S
C1501 C1505 1.393 . S
C1502 H1494 0.950 . S
C1502 C1500 1.391 . S
C1502 C1503 1.400 . S
C1503 C1502 1.400 . S
C1503 C1504 1.398 . S
C1503 C1509 1.491 . S
C1504 H1495 0.950 . S
C1504 C1503 1.398 . S
C1504 C1505 1.391 . S
C1505 H1493 0.950 . S
C1505 C1501 1.393 . S
C1505 C1504 1.391 . S
C1506 H1496 0.950 . S
C1506 C1507 1.386 . S
C1506 C1508 1.391 . S
C1507 C1506 1.386 . S
C1507 C1511 1.393 . S
C1508 H1497 0.950 . S
C1508 C1506 1.391 . S
C1508 C1509 1.400 . S
C1509 C1503 1.491 . S
C1509 C1508 1.400 . S
C1509 C1510 1.398 . S
C1510 H1498 0.950 . S
C1510 C1509 1.398 . S
C1510 C1511 1.391 . S
C1511 H1499 0.950 . S
C1511 C1507 1.393 . S
C1511 C1510 1.391 . S
H1512 C1520 0.950 . S
H1513 C1525 0.950 . S
H1514 C1522 0.950 . S
H1515 C1524 0.950 . S
H1516 C1526 0.950 . S
H1517 C1528 0.950 . S
H1518 C1530 0.950 . S
H1519 C1531 0.950 . S
C1520 H1512 0.950 . S
C1520 C1521 1.386 . S
C1520 C1522 1.391 . S
C1521 C1520 1.386 . S
C1521 C1525 1.393 . S
C1522 H1514 0.950 . S
C1522 C1520 1.391 . S
C1522 C1523 1.400 . S
C1523 C1522 1.400 . S
C1523 C1524 1.398 . S
C1523 C1529 1.491 . S
C1524 H1515 0.950 . S
C1524 C1523 1.398 . S
C1524 C1525 1.391 . S
C1525 H1513 0.950 . S
C1525 C1521 1.393 . S
C1525 C1524 1.391 . S
C1526 H1516 0.950 . S
C1526 C1527 1.386 . S
C1526 C1528 1.391 . S
C1527 C1526 1.386 . S
C1527 C1531 1.393 . S
C1528 H1517 0.950 . S
C1528 C1526 1.391 . S
C1528 C1529 1.400 . S
C1529 C1523 1.491 . S
C1529 C1528 1.400 . S
C1529 C1530 1.398 . S
C1530 H1518 0.950 . S
C1530 C1529 1.398 . S
C1530 C1531 1.391 . S
C1531 H1519 0.950 . S
C1531 C1527 1.393 . S
C1531 C1530 1.391 . S
H1532 C1540 0.950 . S
H1533 C1545 0.950 . S
H1534 C1542 0.950 . S
H1535 C1544 0.950 . S
H1536 C1546 0.950 . S
H1537 C1548 0.950 . S
H1538 C1550 0.950 . S
H1539 C1551 0.950 . S
C1540 H1532 0.950 . S
C1540 C1541 1.386 . S
C1540 C1542 1.391 . S
C1541 C1540 1.386 . S
C1541 C1545 1.393 . S
C1542 H1534 0.950 . S
C1542 C1540 1.391 . S
C1542 C1543 1.400 . S
C1543 C1542 1.400 . S
C1543 C1544 1.398 . S
C1543 C1549 1.491 . S
C1544 H1535 0.950 . S
C1544 C1543 1.398 . S
C1544 C1545 1.391 . S
C1545 H1533 0.950 . S
C1545 C1541 1.393 . S
C1545 C1544 1.391 . S
C1546 H1536 0.950 . S
C1546 C1547 1.386 . S
C1546 C1548 1.391 . S
C1547 C1546 1.386 . S
C1547 C1551 1.393 . S
C1548 H1537 0.950 . S
C1548 C1546 1.391 . S
C1548 C1549 1.400 . S
C1549 C1543 1.491 . S
C1549 C1548 1.400 . S
C1549 C1550 1.398 . S
C1550 H1538 0.950 . S
C1550 C1549 1.398 . S
C1550 C1551 1.391 . S
C1551 H1539 0.950 . S
C1551 C1547 1.393 . S
C1551 C1550 1.391 . S
H1552 C1560 0.950 . S
H1553 C1565 0.950 . S
H1554 C1562 0.950 . S
H1555 C1564 0.950 . S
H1556 C1566 0.950 . S
H1557 C1568 0.950 . S
H1558 C1570 0.950 . S
H1559 C1571 0.950 . S
C1560 H1552 0.950 . S
C1560 C1561 1.386 . S
C1560 C1562 1.391 . S
C1561 C1560 1.386 . S
C1561 C1565 1.393 . S
C1562 H1554 0.950 . S
C1562 C1560 1.391 . S
C1562 C1563 1.400 . S
C1563 C1562 1.400 . S
C1563 C1564 1.398 . S
C1563 C1569 1.491 . S
C1564 H1555 0.950 . S
C1564 C1563 1.398 . S
C1564 C1565 1.391 . S
C1565 H1553 0.950 . S
C1565 C1561 1.393 . S
C1565 C1564 1.391 . S
C1566 H1556 0.950 . S
C1566 C1567 1.386 . S
C1566 C1568 1.391 . S
C1567 C1566 1.386 . S
C1567 C1571 1.393 . S
C1568 H1557 0.950 . S
C1568 C1566 1.391 . S
C1568 C1569 1.400 . S
C1569 C1563 1.491 . S
C1569 C1568 1.400 . S
C1569 C1570 1.398 . S
C1570 H1558 0.950 . S
C1570 C1569 1.398 . S
C1570 C1571 1.391 . S
C1571 H1559 0.950 . S
C1571 C1567 1.393 . S
C1571 C1570 1.391 . S
H1572 C1580 0.950 . S
H1573 C1585 0.950 . S
H1574 C1582 0.950 . S
H1575 C1584 0.950 . S
H1576 C1586 0.950 . S
H1577 C1588 0.950 . S
H1578 C1590 0.950 . S
H1579 C1591 0.950 . S
C1580 H1572 0.950 . S
C1580 C1581 1.386 . S
C1580 C1582 1.391 . S
C1581 C1580 1.386 . S
C1581 C1585 1.393 . S
C1582 H1574 0.950 . S
C1582 C1580 1.391 . S
C1582 C1583 1.400 . S
C1583 C1582 1.400 . S
C1583 C1584 1.398 . S
C1583 C1589 1.491 . S
C1584 H1575 0.950 . S
C1584 C1583 1.398 . S
C1584 C1585 1.391 . S
C1585 H1573 0.950 . S
C1585 C1581 1.393 . S
C1585 C1584 1.391 . S
C1586 H1576 0.950 . S
C1586 C1587 1.386 . S
C1586 C1588 1.391 . S
C1587 C1586 1.386 . S
C1587 C1591 1.393 . S
C1588 H1577 0.950 . S
C1588 C1586 1.391 . S
C1588 C1589 1.400 . S
C1589 C1583 1.491 . S
C1589 C1588 1.400 . S
C1589 C1590 1.398 . S
C1590 H1578 0.950 . S
C1590 C1589 1.398 . S
C1590 C1591 1.391 . S
C1591 H1579 0.950 . S
C1591 C1587 1.393 . S
C1591 C1590 1.391 . S
H1592 C1600 0.950 . S
H1593 C1605 0.950 . S
H1594 C1602 0.950 . S
H1595 C1604 0.950 . S
H1596 C1606 0.950 . S
H1597 C1608 0.950 . S
H1598 C1610 0.950 . S
H1599 C1611 0.950 . S
C1600 H1592 0.950 . S
C1600 C1601 1.386 . S
C1600 C1602 1.391 . S
C1601 C1600 1.386 . S
C1601 C1605 1.393 . S
C1602 H1594 0.950 . S
C1602 C1600 1.391 . S
C1602 C1603 1.400 . S
C1603 C1602 1.400 . S
C1603 C1604 1.398 . S
C1603 C1609 1.491 . S
C1604 H1595 0.950 . S
C1604 C1603 1.398 . S
C1604 C1605 1.391 . S
C1605 H1593 0.950 . S
C1605 C1601 1.393 . S
C1605 C1604 1.391 . S
C1606 H1596 0.950 . S
C1606 C1607 1.386 . S
C1606 C1608 1.391 . S
C1607 C1606 1.386 . S
C1607 C1611 1.393 . S
C1608 H1597 0.950 . S
C1608 C1606 1.391 . S
C1608 C1609 1.400 . S
C1609 C1603 1.491 . S
C1609 C1608 1.400 . S
C1609 C1610 1.398 . S
C1610 H1598 0.950 . S
C1610 C1609 1.398 . S
C1610 C1611 1.391 . S
C1611 H1599 0.950 . S
C1611 C1607 1.393 . S
C1611 C1610 1.391 . S
H1612 C1620 0.950 . S
H1613 C1625 0.950 . S
H1614 C1622 0.950 . S
H1615 C1624 0.950 . S
H1616 C1626 0.950 . S
H1617 C1628 0.950 . S
H1618 C1630 0.950 . S
H1619 C1631 0.950 . S
C1620 H1612 0.950 . S
C1620 C1621 1.386 . S
C1620 C1622 1.391 . S
C1621 C1620 1.386 . S
C1621 C1625 1.393 . S
C1622 H1614 0.950 . S
C1622 C1620 1.391 . S
C1622 C1623 1.400 . S
C1623 C1622 1.400 . S
C1623 C1624 1.398 . S
C1623 C1629 1.491 . S
C1624 H1615 0.950 . S
C1624 C1623 1.398 . S
C1624 C1625 1.391 . S
C1625 H1613 0.950 . S
C1625 C1621 1.393 . S
C1625 C1624 1.391 . S
C1626 H1616 0.950 . S
C1626 C1627 1.386 . S
C1626 C1628 1.391 . S
C1627 C1626 1.386 . S
C1627 C1631 1.393 . S
C1628 H1617 0.950 . S
C1628 C1626 1.391 . S
C1628 C1629 1.400 . S
C1629 C1623 1.491 . S
C1629 C1628 1.400 . S
C1629 C1630 1.398 . S
C1630 H1618 0.950 . S
C1630 C1629 1.398 . S
C1630 C1631 1.391 . S
C1631 H1619 0.950 . S
C1631 C1627 1.393 . S
C1631 C1630 1.391 . S
H1632 C1640 0.950 . S
H1633 C1645 0.950 . S
H1634 C1642 0.950 . S
H1635 C1644 0.950 . S
H1636 C1646 0.950 . S
H1637 C1648 0.950 . S
H1638 C1650 0.950 . S
H1639 C1651 0.950 . S
C1640 H1632 0.950 . S
C1640 C1641 1.386 . S
C1640 C1642 1.391 . S
C1641 C1640 1.386 . S
C1641 C1645 1.393 . S
C1642 H1634 0.950 . S
C1642 C1640 1.391 . S
C1642 C1643 1.400 . S
C1643 C1642 1.400 . S
C1643 C1644 1.398 . S
C1643 C1649 1.491 . S
C1644 H1635 0.950 . S
C1644 C1643 1.398 . S
C1644 C1645 1.391 . S
C1645 H1633 0.950 . S
C1645 C1641 1.393 . S
C1645 C1644 1.391 . S
C1646 H1636 0.950 . S
C1646 C1647 1.386 . S
C1646 C1648 1.391 . S
C1647 C1646 1.386 . S
C1647 C1651 1.393 . S
C1648 H1637 0.950 . S
C1648 C1646 1.391 . S
C1648 C1649 1.400 . S
C1649 C1643 1.491 . S
C1649 C1648 1.400 . S
C1649 C1650 1.398 . S
C1650 H1638 0.950 . S
C1650 C1649 1.398 . S
C1650 C1651 1.391 . S
C1651 H1639 0.950 . S
C1651 C1647 1.393 . S
C1651 C1650 1.391 . S
H1652 C1660 0.950 . S
H1653 C1665 0.950 . S
H1654 C1662 0.950 . S
H1655 C1664 0.950 . S
H1656 C1666 0.950 . S
H1657 C1668 0.950 . S
H1658 C1670 0.950 . S
H1659 C1671 0.950 . S
C1660 H1652 0.950 . S
C1660 C1661 1.386 . S
C1660 C1662 1.391 . S
C1661 C1660 1.386 . S
C1661 C1665 1.393 . S
C1662 H1654 0.950 . S
C1662 C1660 1.391 . S
C1662 C1663 1.400 . S
C1663 C1662 1.400 . S
C1663 C1664 1.398 . S
C1663 C1669 1.491 . S
C1664 H1655 0.950 . S
C1664 C1663 1.398 . S
C1664 C1665 1.391 . S
C1665 H1653 0.950 . S
C1665 C1661 1.393 . S
C1665 C1664 1.391 . S
C1666 H1656 0.950 . S
C1666 C1667 1.386 . S
C1666 C1668 1.391 . S
C1667 C1666 1.386 . S
C1667 C1671 1.393 . S
C1668 H1657 0.950 . S
C1668 C1666 1.391 . S
C1668 C1669 1.400 . S
C1669 C1663 1.491 . S
C1669 C1668 1.400 . S
C1669 C1670 1.398 . S
C1670 H1658 0.950 . S
C1670 C1669 1.398 . S
C1670 C1671 1.391 . S
C1671 H1659 0.950 . S
C1671 C1667 1.393 . S
C1671 C1670 1.391 . S
H1672 C1680 0.950 . S
H1673 C1685 0.950 . S
H1674 C1682 0.950 . S
H1675 C1684 0.950 . S
H1676 C1686 0.950 . S
H1677 C1688 0.950 . S
H1678 C1690 0.950 . S
H1679 C1691 0.950 . S
C1680 H1672 0.950 . S
C1680 C1681 1.386 . S
C1680 C1682 1.391 . S
C1681 C1680 1.386 . S
C1681 C1685 1.393 . S
C1682 H1674 0.950 . S
C1682 C1680 1.391 . S
C1682 C1683 1.400 . S
C1683 C1682 1.400 . S
C1683 C1684 1.398 . S
C1683 C1689 1.491 . S
C1684 H1675 0.950 . S
C1684 C1683 1.398 . S
C1684 C1685 1.391 . S
C1685 H1673 0.950 . S
C1685 C1681 1.393 . S
C1685 C1684 1.391 . S
C1686 H1676 0.950 . S
C1686 C1687 1.386 . S
C1686 C1688 1.391 . S
C1687 C1686 1.386 . S
C1687 C1691 1.393 . S
C1688 H1677 0.950 . S
C1688 C1686 1.391 . S
C1688 C1689 1.400 . S
C1689 C1683 1.491 . S
C1689 C1688 1.400 . S
C1689 C1690 1.398 . S
C1690 H1678 0.950 . S
C1690 C1689 1.398 . S
C1690 C1691 1.391 . S
C1691 H1679 0.950 . S
C1691 C1687 1.393 . S
C1691 C1690 1.391 . S
H1692 C1700 0.950 . S
H1693 C1705 0.950 . S
H1694 C1702 0.950 . S
H1695 C1704 0.950 . S
H1696 C1706 0.950 . S
H1697 C1708 0.950 . S
H1698 C1710 0.950 . S
H1699 C1711 0.950 . S
C1700 H1692 0.950 . S
C1700 C1701 1.386 . S
C1700 C1702 1.391 . S
C1701 C1700 1.386 . S
C1701 C1705 1.393 . S
C1702 H1694 0.950 . S
C1702 C1700 1.391 . S
C1702 C1703 1.400 . S
C1703 C1702 1.400 . S
C1703 C1704 1.398 . S
C1703 C1709 1.491 . S
C1704 H1695 0.950 . S
C1704 C1703 1.398 . S
C1704 C1705 1.391 . S
C1705 H1693 0.950 . S
C1705 C1701 1.393 . S
C1705 C1704 1.391 . S
C1706 H1696 0.950 . S
C1706 C1707 1.386 . S
C1706 C1708 1.391 . S
C1707 C1706 1.386 . S
C1707 C1711 1.393 . S
C1708 H1697 0.950 . S
C1708 C1706 1.391 . S
C1708 C1709 1.400 . S
C1709 C1703 1.491 . S
C1709 C1708 1.400 . S
C1709 C1710 1.398 . S
C1710 H1698 0.950 . S
C1710 C1709 1.398 . S
C1710 C1711 1.391 . S
C1711 H1699 0.950 . S
C1711 C1707 1.393 . S
C1711 C1710 1.391 . S
H1712 C1720 0.950 . S
H1713 C1725 0.950 . S
H1714 C1722 0.950 . S
H1715 C1724 0.950 . S
H1716 C1726 0.950 . S
H1717 C1728 0.950 . S
H1718 C1730 0.950 . S
H1719 C1731 0.950 . S
C1720 H1712 0.950 . S
C1720 C1721 1.386 . S
C1720 C1722 1.391 . S
C1721 C1720 1.386 . S
C1721 C1725 1.393 . S
C1722 H1714 0.950 . S
C1722 C1720 1.391 . S
C1722 C1723 1.400 . S
C1723 C1722 1.400 . S
C1723 C1724 1.398 . S
C1723 C1729 1.491 . S
C1724 H1715 0.950 . S
C1724 C1723 1.398 . S
C1724 C1725 1.391 . S
C1725 H1713 0.950 . S
C1725 C1721 1.393 . S
C1725 C1724 1.391 . S
C1726 H1716 0.950 . S
C1726 C1727 1.386 . S
C1726 C1728 1.391 . S
C1727 C1726 1.386 . S
C1727 C1731 1.393 . S
C1728 H1717 0.950 . S
C1728 C1726 1.391 . S
C1728 C1729 1.400 . S
C1729 C1723 1.491 . S
C1729 C1728 1.400 . S
C1729 C1730 1.398 . S
C1730 H1718 0.950 . S
C1730 C1729 1.398 . S
C1730 C1731 1.391 . S
C1731 H1719 0.950 . S
C1731 C1727 1.393 . S
C1731 C1730 1.391 . S
H1732 C1740 0.950 . S
H1733 C1745 0.950 . S
H1734 C1742 0.950 . S
H1735 C1744 0.950 . S
H1736 C1746 0.950 . S
H1737 C1748 0.950 . S
H1738 C1750 0.950 . S
H1739 C1751 0.950 . S
C1740 H1732 0.950 . S
C1740 C1741 1.386 . S
C1740 C1742 1.391 . S
C1741 C1740 1.386 . S
C1741 C1745 1.393 . S
C1742 H1734 0.950 . S
C1742 C1740 1.391 . S
C1742 C1743 1.400 . S
C1743 C1742 1.400 . S
C1743 C1744 1.398 . S
C1743 C1749 1.491 . S
C1744 H1735 0.950 . S
C1744 C1743 1.398 . S
C1744 C1745 1.391 . S
C1745 H1733 0.950 . S
C1745 C1741 1.393 . S
C1745 C1744 1.391 . S
C1746 H1736 0.950 . S
C1746 C1747 1.386 . S
C1746 C1748 1.391 . S
C1747 C1746 1.386 . S
C1747 C1751 1.393 . S
C1748 H1737 0.950 . S
C1748 C1746 1.391 . S
C1748 C1749 1.400 . S
C1749 C1743 1.491 . S
C1749 C1748 1.400 . S
C1749 C1750 1.398 . S
C1750 H1738 0.950 . S
C1750 C1749 1.398 . S
C1750 C1751 1.391 . S
C1751 H1739 0.950 . S
C1751 C1747 1.393 . S
C1751 C1750 1.391 . S
H1752 C1760 0.950 . S
H1753 C1765 0.950 . S
H1754 C1762 0.950 . S
H1755 C1764 0.950 . S
H1756 C1766 0.950 . S
H1757 C1768 0.950 . S
H1758 C1770 0.950 . S
H1759 C1771 0.950 . S
C1760 H1752 0.950 . S
C1760 C1761 1.386 . S
C1760 C1762 1.391 . S
C1761 C1760 1.386 . S
C1761 C1765 1.393 . S
C1762 H1754 0.950 . S
C1762 C1760 1.391 . S
C1762 C1763 1.400 . S
C1763 C1762 1.400 . S
C1763 C1764 1.398 . S
C1763 C1769 1.491 . S
C1764 H1755 0.950 . S
C1764 C1763 1.398 . S
C1764 C1765 1.391 . S
C1765 H1753 0.950 . S
C1765 C1761 1.393 . S
C1765 C1764 1.391 . S
C1766 H1756 0.950 . S
C1766 C1767 1.386 . S
C1766 C1768 1.391 . S
C1767 C1766 1.386 . S
C1767 C1771 1.393 . S
C1768 H1757 0.950 . S
C1768 C1766 1.391 . S
C1768 C1769 1.400 . S
C1769 C1763 1.491 . S
C1769 C1768 1.400 . S
C1769 C1770 1.398 . S
C1770 H1758 0.950 . S
C1770 C1769 1.398 . S
C1770 C1771 1.391 . S
C1771 H1759 0.950 . S
C1771 C1767 1.393 . S
C1771 C1770 1.391 . S
H1772 C1780 0.950 . S
H1773 C1785 0.950 . S
H1774 C1782 0.950 . S
H1775 C1784 0.950 . S
H1776 C1786 0.950 . S
H1777 C1788 0.950 . S
H1778 C1790 0.950 . S
H1779 C1791 0.950 . S
C1780 H1772 0.950 . S
C1780 C1781 1.386 . S
C1780 C1782 1.391 . S
C1781 C1780 1.386 . S
C1781 C1785 1.393 . S
C1782 H1774 0.950 . S
C1782 C1780 1.391 . S
C1782 C1783 1.400 . S
C1783 C1782 1.400 . S
C1783 C1784 1.398 . S
C1783 C1789 1.491 . S
C1784 H1775 0.950 . S
C1784 C1783 1.398 . S
C1784 C1785 1.391 . S
C1785 H1773 0.950 . S
C1785 C1781 1.393 . S
C1785 C1784 1.391 . S
C1786 H1776 0.950 . S
C1786 C1787 1.386 . S
C1786 C1788 1.391 . S
C1787 C1786 1.386 . S
C1787 C1791 1.393 . S
C1788 H1777 0.950 . S
C1788 C1786 1.391 . S
C1788 C1789 1.400 . S
C1789 C1783 1.491 . S
C1789 C1788 1.400 . S
C1789 C1790 1.398 . S
C1790 H1778 0.950 . S
C1790 C1789 1.398 . S
C1790 C1791 1.391 . S
C1791 H1779 0.950 . S
C1791 C1787 1.393 . S
C1791 C1790 1.391 . S
H1792 C1800 0.950 . S
H1793 C1805 0.950 . S
H1794 C1802 0.950 . S
H1795 C1804 0.950 . S
H1796 C1806 0.950 . S
H1797 C1808 0.950 . S
H1798 C1810 0.950 . S
H1799 C1811 0.950 . S
C1800 H1792 0.950 . S
C1800 C1801 1.386 . S
C1800 C1802 1.391 . S
C1801 C1800 1.386 . S
C1801 C1805 1.393 . S
C1802 H1794 0.950 . S
C1802 C1800 1.391 . S
C1802 C1803 1.400 . S
C1803 C1802 1.400 . S
C1803 C1804 1.398 . S
C1803 C1809 1.491 . S
C1804 H1795 0.950 . S
C1804 C1803 1.398 . S
C1804 C1805 1.391 . S
C1805 H1793 0.950 . S
C1805 C1801 1.393 . S
C1805 C1804 1.391 . S
C1806 H1796 0.950 . S
C1806 C1807 1.386 . S
C1806 C1808 1.391 . S
C1807 C1806 1.386 . S
C1807 C1811 1.393 . S
C1808 H1797 0.950 . S
C1808 C1806 1.391 . S
C1808 C1809 1.400 . S
C1809 C1803 1.491 . S
C1809 C1808 1.400 . S
C1809 C1810 1.398 . S
C1810 H1798 0.950 . S
C1810 C1809 1.398 . S
C1810 C1811 1.391 . S
C1811 H1799 0.950 . S
C1811 C1807 1.393 . S
C1811 C1810 1.391 . S
H1812 C1820 0.950 . S
H1813 C1825 0.950 . S
H1814 C1822 0.950 . S
H1815 C1824 0.950 . S
H1816 C1826 0.950 . S
H1817 C1828 0.950 . S
H1818 C1830 0.950 . S
H1819 C1831 0.950 . S
C1820 H1812 0.950 . S
C1820 C1821 1.386 . S
C1820 C1822 1.391 . S
C1821 C1820 1.386 . S
C1821 C1825 1.393 . S
C1822 H1814 0.950 . S
C1822 C1820 1.391 . S
C1822 C1823 1.400 . S
C1823 C1822 1.400 . S
C1823 C1824 1.398 . S
C1823 C1829 1.491 . S
C1824 H1815 0.950 . S
C1824 C1823 1.398 . S
C1824 C1825 1.391 . S
C1825 H1813 0.950 . S
C1825 C1821 1.393 . S
C1825 C1824 1.391 . S
C1826 H1816 0.950 . S
C1826 C1827 1.386 . S
C1826 C1828 1.391 . S
C1827 C1826 1.386 . S
C1827 C1831 1.393 . S
C1828 H1817 0.950 . S
C1828 C1826 1.391 . S
C1828 C1829 1.400 . S
C1829 C1823 1.491 . S
C1829 C1828 1.400 . S
C1829 C1830 1.398 . S
C1830 H1818 0.950 . S
C1830 C1829 1.398 . S
C1830 C1831 1.391 . S
C1831 H1819 0.950 . S
C1831 C1827 1.393 . S
C1831 C1830 1.391 . S
H1832 C1840 0.950 . S
H1833 C1845 0.950 . S
H1834 C1842 0.950 . S
H1835 C1844 0.950 . S
H1836 C1846 0.950 . S
H1837 C1848 0.950 . S
H1838 C1850 0.950 . S
H1839 C1851 0.950 . S
C1840 H1832 0.950 . S
C1840 C1841 1.386 . S
C1840 C1842 1.391 . S
C1841 C1840 1.386 . S
C1841 C1845 1.393 . S
C1842 H1834 0.950 . S
C1842 C1840 1.391 . S
C1842 C1843 1.400 . S
C1843 C1842 1.400 . S
C1843 C1844 1.398 . S
C1843 C1849 1.491 . S
C1844 H1835 0.950 . S
C1844 C1843 1.398 . S
C1844 C1845 1.391 . S
C1845 H1833 0.950 . S
C1845 C1841 1.393 . S
C1845 C1844 1.391 . S
C1846 H1836 0.950 . S
C1846 C1847 1.386 . S
C1846 C1848 1.391 . S
C1847 C1846 1.386 . S
C1847 C1851 1.393 . S
C1848 H1837 0.950 . S
C1848 C1846 1.391 . S
C1848 C1849 1.400 . S
C1849 C1843 1.491 . S
C1849 C1848 1.400 . S
C1849 C1850 1.398 . S
C1850 H1838 0.950 . S
C1850 C1849 1.398 . S
C1850 C1851 1.391 . S
C1851 H1839 0.950 . S
C1851 C1847 1.393 . S
C1851 C1850 1.391 . S
H1852 C1860 0.950 . S
H1853 C1865 0.950 . S
H1854 C1862 0.950 . S
H1855 C1864 0.950 . S
H1856 C1866 0.950 . S
H1857 C1868 0.950 . S
H1858 C1870 0.950 . S
H1859 C1871 0.950 . S
C1860 H1852 0.950 . S
C1860 C1861 1.386 . S
C1860 C1862 1.391 . S
C1861 C1860 1.386 . S
C1861 C1865 1.393 . S
C1862 H1854 0.950 . S
C1862 C1860 1.391 . S
C1862 C1863 1.400 . S
C1863 C1862 1.400 . S
C1863 C1864 1.398 . S
C1863 C1869 1.491 . S
C1864 H1855 0.950 . S
C1864 C1863 1.398 . S
C1864 C1865 1.391 . S
C1865 H1853 0.950 . S
C1865 C1861 1.393 . S
C1865 C1864 1.391 . S
C1866 H1856 0.950 . S
C1866 C1867 1.386 . S
C1866 C1868 1.391 . S
C1867 C1866 1.386 . S
C1867 C1871 1.393 . S
C1868 H1857 0.950 . S
C1868 C1866 1.391 . S
C1868 C1869 1.400 . S
C1869 C1863 1.491 . S
C1869 C1868 1.400 . S
C1869 C1870 1.398 . S
C1870 H1858 0.950 . S
C1870 C1869 1.398 . S
C1870 C1871 1.391 . S
C1871 H1859 0.950 . S
C1871 C1867 1.393 . S
C1871 C1870 1.391 . S
H1872 C1880 0.950 . S
H1873 C1885 0.950 . S
H1874 C1882 0.950 . S
H1875 C1884 0.950 . S
H1876 C1886 0.950 . S
H1877 C1888 0.950 . S
H1878 C1890 0.950 . S
H1879 C1891 0.950 . S
C1880 H1872 0.950 . S
C1880 C1881 1.386 . S
C1880 C1882 1.391 . S
C1881 C1880 1.386 . S
C1881 C1885 1.393 . S
C1882 H1874 0.950 . S
C1882 C1880 1.391 . S
C1882 C1883 1.400 . S
C1883 C1882 1.400 . S
C1883 C1884 1.398 . S
C1883 C1889 1.491 . S
C1884 H1875 0.950 . S
C1884 C1883 1.398 . S
C1884 C1885 1.391 . S
C1885 H1873 0.950 . S
C1885 C1881 1.393 . S
C1885 C1884 1.391 . S
C1886 H1876 0.950 . S
C1886 C1887 1.386 . S
C1886 C1888 1.391 . S
C1887 C1886 1.386 . S
C1887 C1891 1.393 . S
C1888 H1877 0.950 . S
C1888 C1886 1.391 . S
C1888 C1889 1.400 . S
C1889 C1883 1.491 . S
C1889 C1888 1.400 . S
C1889 C1890 1.398 . S
C1890 H1878 0.950 . S
C1890 C1889 1.398 . S
C1890 C1891 1.391 . S
C1891 H1879 0.950 . S
C1891 C1887 1.393 . S
C1891 C1890 1.391 . S
H1892 C1900 0.950 . S
H1893 C1905 0.950 . S
H1894 C1902 0.950 . S
H1895 C1904 0.950 . S
H1896 C1906 0.950 . S
H1897 C1908 0.950 . S
H1898 C1910 0.950 . S
H1899 C1911 0.950 . S
C1900 H1892 0.950 . S
C1900 C1901 1.386 . S
C1900 C1902 1.391 . S
C1901 C1900 1.386 . S
C1901 C1905 1.393 . S
C1902 H1894 0.950 . S
C1902 C1900 1.391 . S
C1902 C1903 1.400 . S
C1903 C1902 1.400 . S
C1903 C1904 1.398 . S
C1903 C1909 1.491 . S
C1904 H1895 0.950 . S
C1904 C1903 1.398 . S
C1904 C1905 1.391 . S
C1905 H1893 0.950 . S
C1905 C1901 1.393 . S
C1905 C1904 1.391 . S
C1906 H1896 0.950 . S
C1906 C1907 1.386 . S
C1906 C1908 1.391 . S
C1907 C1906 1.386 . S
C1907 C1911 1.393 . S
C1908 H1897 0.950 . S
C1908 C1906 1.391 . S
C1908 C1909 1.400 . S
C1909 C1903 1.491 . S
C1909 C1908 1.400 . S
C1909 C1910 1.398 . S
C1910 H1898 0.950 . S
C1910 C1909 1.398 . S
C1910 C1911 1.391 . S
C1911 H1899 0.950 . S
C1911 C1907 1.393 . S
C1911 C1910 1.391 . S
H1912 C1920 0.950 . S
H1913 C1925 0.950 . S
H1914 C1922 0.950 . S
H1915 C1924 0.950 . S
H1916 C1926 0.950 . S
H1917 C1928 0.950 . S
H1918 C1930 0.950 . S
H1919 C1931 0.950 . S
C1920 H1912 0.950 . S
C1920 C1921 1.386 . S
C1920 C1922 1.391 . S
C1921 C1920 1.386 . S
C1921 C1925 1.393 . S
C1922 H1914 0.950 . S
C1922 C1920 1.391 . S
C1922 C1923 1.400 . S
C1923 C1922 1.400 . S
C1923 C1924 1.398 . S
C1923 C1929 1.491 . S
C1924 H1915 0.950 . S
C1924 C1923 1.398 . S
C1924 C1925 1.391 . S
C1925 H1913 0.950 . S
C1925 C1921 1.393 . S
C1925 C1924 1.391 . S
C1926 H1916 0.950 . S
C1926 C1927 1.386 . S
C1926 C1928 1.391 . S
C1927 C1926 1.386 . S
C1927 C1931 1.393 . S
C1928 H1917 0.950 . S
C1928 C1926 1.391 . S
C1928 C1929 1.400 . S
C1929 C1923 1.491 . S
C1929 C1928 1.400 . S
C1929 C1930 1.398 . S
C1930 H1918 0.950 . S
C1930 C1929 1.398 . S
C1930 C1931 1.391 . S
C1931 H1919 0.950 . S
C1931 C1927 1.393 . S
C1931 C1930 1.391 . S
H1932 C1940 0.950 . S
H1933 C1945 0.950 . S
H1934 C1942 0.950 . S
H1935 C1944 0.950 . S
H1936 C1946 0.950 . S
H1937 C1948 0.950 . S
H1938 C1950 0.950 . S
H1939 C1951 0.950 . S
C1940 H1932 0.950 . S
C1940 C1941 1.386 . S
C1940 C1942 1.391 . S
C1941 C1940 1.386 . S
C1941 C1945 1.393 . S
C1942 H1934 0.950 . S
C1942 C1940 1.391 . S
C1942 C1943 1.400 . S
C1943 C1942 1.400 . S
C1943 C1944 1.398 . S
C1943 C1949 1.491 . S
C1944 H1935 0.950 . S
C1944 C1943 1.398 . S
C1944 C1945 1.391 . S
C1945 H1933 0.950 . S
C1945 C1941 1.393 . S
C1945 C1944 1.391 . S
C1946 H1936 0.950 . S
C1946 C1947 1.386 . S
C1946 C1948 1.391 . S
C1947 C1946 1.386 . S
C1947 C1951 1.393 . S
C1948 H1937 0.950 . S
C1948 C1946 1.391 . S
C1948 C1949 1.400 . S
C1949 C1943 1.491 . S
C1949 C1948 1.400 . S
C1949 C1950 1.398 . S
C1950 H1938 0.950 . S
C1950 C1949 1.398 . S
C1950 C1951 1.391 . S
C1951 H1939 0.950 . S
C1951 C1947 1.393 . S
C1951 C1950 1.391 . S
H1952 C1960 0.950 . S
H1953 C1965 0.950 . S
H1954 C1962 0.950 . S
H1955 C1964 0.950 . S
H1956 C1966 0.950 . S
H1957 C1968 0.950 . S
H1958 C1970 0.950 . S
H1959 C1971 0.950 . S
C1960 H1952 0.950 . S
C1960 C1961 1.386 . S
C1960 C1962 1.391 . S
C1961 C1960 1.386 . S
C1961 C1965 1.393 . S
C1962 H1954 0.950 . S
C1962 C1960 1.391 . S
C1962 C1963 1.400 . S
C1963 C1962 1.400 . S
C1963 C1964 1.398 . S
C1963 C1969 1.491 . S
C1964 H1955 0.950 . S
C1964 C1963 1.398 . S
C1964 C1965 1.391 . S
C1965 H1953 0.950 . S
C1965 C1961 1.393 . S
C1965 C1964 1.391 . S
C1966 H1956 0.950 . S
C1966 C1967 1.386 . S
C1966 C1968 1.391 . S
C1967 C1966 1.386 . S
C1967 C1971 1.393 . S
C1968 H1957 0.950 . S
C1968 C1966 1.391 . S
C1968 C1969 1.400 . S
C1969 C1963 1.491 . S
C1969 C1968 1.400 . S
C1969 C1970 1.398 . S
C1970 H1958 0.950 . S
C1970 C1969 1.398 . S
C1970 C1971 1.391 . S
C1971 H1959 0.950 . S
C1971 C1967 1.393 . S
C1971 C1970 1.391 . S
H1972 C1980 0.950 . S
H1973 C1985 0.950 . S
H1974 C1982 0.950 . S
H1975 C1984 0.950 . S
H1976 C1986 0.950 . S
H1977 C1988 0.950 . S
H1978 C1990 0.950 . S
H1979 C1991 0.950 . S
C1980 H1972 0.950 . S
C1980 C1981 1.386 . S
C1980 C1982 1.391 . S
C1981 C1980 1.386 . S
C1981 C1985 1.393 . S
C1982 H1974 0.950 . S
C1982 C1980 1.391 . S
C1982 C1983 1.400 . S
C1983 C1982 1.400 . S
C1983 C1984 1.398 . S
C1983 C1989 1.491 . S
C1984 H1975 0.950 . S
C1984 C1983 1.398 . S
C1984 C1985 1.391 . S
C1985 H1973 0.950 . S
C1985 C1981 1.393 . S
C1985 C1984 1.391 . S
C1986 H1976 0.950 . S
C1986 C1987 1.386 . S
C1986 C1988 1.391 . S
C1987 C1986 1.386 . S
C1987 C1991 1.393 . S
C1988 H1977 0.950 . S
C1988 C1986 1.391 . S
C1988 C1989 1.400 . S
C1989 C1983 1.491 . S
C1989 C1988 1.400 . S
C1989 C1990 1.398 . S
C1990 H1978 0.950 . S
C1990 C1989 1.398 . S
C1990 C1991 1.391 . S
C1991 H1979 0.950 . S
C1991 C1987 1.393 . S
C1991 C1990 1.391 . S
H1992 C2000 0.950 . S
H1993 C2005 0.950 . S
H1994 C2002 0.950 . S
H1995 C2004 0.950 . S
H1996 C2006 0.950 . S
H1997 C2008 0.950 . S
H1998 C2010 0.950 . S
H1999 C2011 0.950 . S
C2000 H1992 0.950 . S
C2000 C2001 1.386 . S
C2000 C2002 1.391 . S
C2001 C2000 1.386 . S
C2001 C2005 1.393 . S
C2002 H1994 0.950 . S
C2002 C2000 1.391 . S
C2002 C2003 1.400 . S
C2003 C2002 1.400 . S
C2003 C2004 1.398 . S
C2003 C2009 1.491 . S
C2004 H1995 0.950 . S
C2004 C2003 1.398 . S
C2004 C2005 1.391 . S
C2005 H1993 0.950 . S
C2005 C2001 1.393 . S
C2005 C2004 1.391 . S
C2006 H1996 0.950 . S
C2006 C2007 1.386 . S
C2006 C2008 1.391 . S
C2007 C2006 1.386 . S
C2007 C2011 1.393 . S
C2008 H1997 0.950 . S
C2008 C2006 1.391 . S
C2008 C2009 1.400 . S
C2009 C2003 1.491 . S
C2009 C2008 1.400 . S
C2009 C2010 1.398 . S
C2010 H1998 0.950 . S
C2010 C2009 1.398 . S
C2010 C2011 1.391 . S
C2011 H1999 0.950 . S
C2011 C2007 1.393 . S
C2011 C2010 1.391 . S
H2012 C2020 0.950 . S
H2013 C2025 0.950 . S
H2014 C2022 0.950 . S
H2015 C2024 0.950 . S
H2016 C2026 0.950 . S
H2017 C2028 0.950 . S
H2018 C2030 0.950 . S
H2019 C2031 0.950 . S
C2020 H2012 0.950 . S
C2020 C2021 1.386 . S
C2020 C2022 1.391 . S
C2021 C2020 1.386 . S
C2021 C2025 1.393 . S
C2022 H2014 0.950 . S
C2022 C2020 1.391 . S
C2022 C2023 1.400 . S
C2023 C2022 1.400 . S
C2023 C2024 1.398 . S
C2023 C2029 1.491 . S
C2024 H2015 0.950 . S
C2024 C2023 1.398 . S
C2024 C2025 1.391 . S
C2025 H2013 0.950 . S
C2025 C2021 1.393 . S
C2025 C2024 1.391 . S
C2026 H2016 0.950 . S
C2026 C2027 1.386 . S
C2026 C2028 1.391 . S
C2027 C2026 1.386 . S
C2027 C2031 1.393 . S
C2028 H2017 0.950 . S
C2028 C2026 1.391 . S
C2028 C2029 1.400 . S
C2029 C2023 1.491 . S
C2029 C2028 1.400 . S
C2029 C2030 1.398 . S
C2030 H2018 0.950 . S
C2030 C2029 1.398 . S
C2030 C2031 1.391 . S
C2031 H2019 0.950 . S
C2031 C2027 1.393 . S
C2031 C2030 1.391 . S
H2032 C2040 0.950 . S
H2033 C2045 0.950 . S
H2034 C2042 0.950 . S
H2035 C2044 0.950 . S
H2036 C2046 0.950 . S
H2037 C2048 0.950 . S
H2038 C2050 0.950 . S
H2039 C2051 0.950 . S
C2040 H2032 0.950 . S
C2040 C2041 1.386 . S
C2040 C2042 1.391 . S
C2041 C2040 1.386 . S
C2041 C2045 1.393 . S
C2042 H2034 0.950 . S
C2042 C2040 1.391 . S
C2042 C2043 1.400 . S
C2043 C2042 1.400 . S
C2043 C2044 1.398 . S
C2043 C2049 1.491 . S
C2044 H2035 0.950 . S
C2044 C2043 1.398 . S
C2044 C2045 1.391 . S
C2045 H2033 0.950 . S
C2045 C2041 1.393 . S
C2045 C2044 1.391 . S
C2046 H2036 0.950 . S
C2046 C2047 1.386 . S
C2046 C2048 1.391 . S
C2047 C2046 1.386 . S
C2047 C2051 1.393 . S
C2048 H2037 0.950 . S
C2048 C2046 1.391 . S
C2048 C2049 1.400 . S
C2049 C2043 1.491 . S
C2049 C2048 1.400 . S
C2049 C2050 1.398 . S
C2050 H2038 0.950 . S
C2050 C2049 1.398 . S
C2050 C2051 1.391 . S
C2051 H2039 0.950 . S
C2051 C2047 1.393 . S
C2051 C2050 1.391 . S
H2052 C2060 0.950 . S
H2053 C2065 0.950 . S
H2054 C2062 0.950 . S
H2055 C2064 0.950 . S
H2056 C2066 0.950 . S
H2057 C2068 0.950 . S
H2058 C2070 0.950 . S
H2059 C2071 0.950 . S
C2060 H2052 0.950 . S
C2060 C2061 1.386 . S
C2060 C2062 1.391 . S
C2061 C2060 1.386 . S
C2061 C2065 1.393 . S
C2062 H2054 0.950 . S
C2062 C2060 1.391 . S
C2062 C2063 1.400 . S
C2063 C2062 1.400 . S
C2063 C2064 1.398 . S
C2063 C2069 1.491 . S
C2064 H2055 0.950 . S
C2064 C2063 1.398 . S
C2064 C2065 1.391 . S
C2065 H2053 0.950 . S
C2065 C2061 1.393 . S
C2065 C2064 1.391 . S
C2066 H2056 0.950 . S
C2066 C2067 1.386 . S
C2066 C2068 1.391 . S
C2067 C2066 1.386 . S
C2067 C2071 1.393 . S
C2068 H2057 0.950 . S
C2068 C2066 1.391 . S
C2068 C2069 1.400 . S
C2069 C2063 1.491 . S
C2069 C2068 1.400 . S
C2069 C2070 1.398 . S
C2070 H2058 0.950 . S
C2070 C2069 1.398 . S
C2070 C2071 1.391 . S
C2071 H2059 0.950 . S
C2071 C2067 1.393 . S
C2071 C2070 1.391 . S
H2072 C2080 0.950 . S
H2073 C2085 0.950 . S
H2074 C2082 0.950 . S
H2075 C2084 0.950 . S
H2076 C2086 0.950 . S
H2077 C2088 0.950 . S
H2078 C2090 0.950 . S
H2079 C2091 0.950 . S
C2080 H2072 0.950 . S
C2080 C2081 1.386 . S
C2080 C2082 1.391 . S
C2081 C2080 1.386 . S
C2081 C2085 1.393 . S
C2082 H2074 0.950 . S
C2082 C2080 1.391 . S
C2082 C2083 1.400 . S
C2083 C2082 1.400 . S
C2083 C2084 1.398 . S
C2083 C2089 1.491 . S
C2084 H2075 0.950 . S
C2084 C2083 1.398 . S
C2084 C2085 1.391 . S
C2085 H2073 0.950 . S
C2085 C2081 1.393 . S
C2085 C2084 1.391 . S
C2086 H2076 0.950 . S
C2086 C2087 1.386 . S
C2086 C2088 1.391 . S
C2087 C2086 1.386 . S
C2087 C2091 1.393 . S
C2088 H2077 0.950 . S
C2088 C2086 1.391 . S
C2088 C2089 1.400 . S
C2089 C2083 1.491 . S
C2089 C2088 1.400 . S
C2089 C2090 1.398 . S
C2090 H2078 0.950 . S
C2090 C2089 1.398 . S
C2090 C2091 1.391 . S
C2091 H2079 0.950 . S
C2091 C2087 1.393 . S
C2091 C2090 1.391 . S
H2092 C2100 0.950 . S
H2093 C2105 0.950 . S
H2094 C2102 0.950 . S
H2095 C2104 0.950 . S
H2096 C2106 0.950 . S
H2097 C2108 0.950 . S
H2098 C2110 0.950 . S
H2099 C2111 0.950 . S
C2100 H2092 0.950 . S
C2100 C2101 1.386 . S
C2100 C2102 1.391 . S
C2101 C2100 1.386 . S
C2101 C2105 1.393 . S
C2102 H2094 0.950 . S
C2102 C2100 1.391 . S
C2102 C2103 1.400 . S
C2103 C2102 1.400 . S
C2103 C2104 1.398 . S
C2103 C2109 1.491 . S
C2104 H2095 0.950 . S
C2104 C2103 1.398 . S
C2104 C2105 1.391 . S
C2105 H2093 0.950 . S
C2105 C2101 1.393 . S
C2105 C2104 1.391 . S
C2106 H2096 0.950 . S
C2106 C2107 1.386 . S
C2106 C2108 1.391 . S
C2107 C2106 1.386 . S
C2107 C2111 1.393 . S
C2108 H2097 0.950 . S
C2108 C2106 1.391 . S
C2108 C2109 1.400 . S
C2109 C2103 1.491 . S
C2109 C2108 1.400 . S
C2109 C2110 1.398 . S
C2110 H2098 0.950 . S
C2110 C2109 1.398 . S
C2110 C2111 1.391 . S
C2111 H2099 0.950 . S
C2111 C2107 1.393 . S
C2111 C2110 1.391 . S
H2112 C2120 0.950 1_556 S
H2113 C2125 0.950 . S
H2114 C2122 0.950 . S
H2115 C2124 0.950 . S
H2116 C2126 0.950 . S
H2117 C2128 0.950 . S
H2118 C2130 0.950 . S
H2119 C2131 0.950 . S
C2120 H2112 0.950 1_554 S
C2120 C2121 1.386 . S
C2120 C2122 1.391 . S
C2121 C2120 1.386 . S
C2121 C2125 1.393 . S
C2122 H2114 0.950 . S
C2122 C2120 1.391 . S
C2122 C2123 1.400 . S
C2123 C2122 1.400 . S
C2123 C2124 1.398 . S
C2123 C2129 1.491 . S
C2124 H2115 0.950 . S
C2124 C2123 1.398 . S
C2124 C2125 1.391 . S
C2125 H2113 0.950 . S
C2125 C2121 1.393 . S
C2125 C2124 1.391 . S
C2126 H2116 0.950 . S
C2126 C2127 1.386 . S
C2126 C2128 1.391 . S
C2127 C2126 1.386 . S
C2127 C2131 1.393 . S
C2128 H2117 0.950 . S
C2128 C2126 1.391 . S
C2128 C2129 1.400 . S
C2129 C2123 1.491 . S
C2129 C2128 1.400 . S
C2129 C2130 1.398 . S
C2130 H2118 0.950 . S
C2130 C2129 1.398 . S
C2130 C2131 1.391 . S
C2131 H2119 0.950 . S
C2131 C2127 1.393 . S
C2131 C2130 1.391 . S
H2132 C2140 0.950 . S
H2133 C2145 0.950 . S
H2134 C2142 0.950 . S
H2135 C2144 0.950 . S
H2136 C2146 0.950 . S
H2137 C2148 0.950 . S
H2138 C2150 0.950 . S
H2139 C2151 0.950 . S
C2140 H2132 0.950 . S
C2140 C2141 1.386 . S
C2140 C2142 1.391 . S
C2141 C2140 1.386 . S
C2141 C2145 1.393 . S
C2142 H2134 0.950 . S
C2142 C2140 1.391 . S
C2142 C2143 1.400 . S
C2143 C2142 1.400 . S
C2143 C2144 1.398 . S
C2143 C2149 1.491 . S
C2144 H2135 0.950 . S
C2144 C2143 1.398 . S
C2144 C2145 1.391 . S
C2145 H2133 0.950 . S
C2145 C2141 1.393 . S
C2145 C2144 1.391 . S
C2146 H2136 0.950 . S
C2146 C2147 1.386 . S
C2146 C2148 1.391 . S
C2147 C2146 1.386 . S
C2147 C2151 1.393 . S
C2148 H2137 0.950 . S
C2148 C2146 1.391 . S
C2148 C2149 1.400 . S
C2149 C2143 1.491 . S
C2149 C2148 1.400 . S
C2149 C2150 1.398 . S
C2150 H2138 0.950 . S
C2150 C2149 1.398 . S
C2150 C2151 1.391 . S
C2151 H2139 0.950 . S
C2151 C2147 1.393 . S
C2151 C2150 1.391 . S
H2152 C2160 0.950 . S
H2153 C2165 0.950 . S
H2154 C2162 0.950 . S
H2155 C2164 0.950 . S
H2156 C2166 0.950 . S
H2157 C2168 0.950 . S
H2158 C2170 0.950 . S
H2159 C2171 0.950 . S
C2160 H2152 0.950 . S
C2160 C2161 1.386 . S
C2160 C2162 1.391 . S
C2161 C2160 1.386 . S
C2161 C2165 1.393 . S
C2162 H2154 0.950 . S
C2162 C2160 1.391 . S
C2162 C2163 1.400 . S
C2163 C2162 1.400 . S
C2163 C2164 1.398 . S
C2163 C2169 1.491 . S
C2164 H2155 0.950 . S
C2164 C2163 1.398 . S
C2164 C2165 1.391 . S
C2165 H2153 0.950 . S
C2165 C2161 1.393 . S
C2165 C2164 1.391 . S
C2166 H2156 0.950 . S
C2166 C2167 1.386 . S
C2166 C2168 1.391 . S
C2167 C2166 1.386 . S
C2167 C2171 1.393 . S
C2168 H2157 0.950 . S
C2168 C2166 1.391 . S
C2168 C2169 1.400 . S
C2169 C2163 1.491 . S
C2169 C2168 1.400 . S
C2169 C2170 1.398 . S
C2170 H2158 0.950 . S
C2170 C2169 1.398 . S
C2170 C2171 1.391 . S
C2171 H2159 0.950 . S
C2171 C2167 1.393 . S
C2171 C2170 1.391 . S
H2172 C2180 0.950 . S
H2173 C2185 0.950 . S
H2174 C2182 0.950 . S
H2175 C2184 0.950 . S
H2176 C2186 0.950 . S
H2177 C2188 0.950 . S
H2178 C2190 0.950 . S
H2179 C2191 0.950 . S
C2180 H2172 0.950 . S
C2180 C2181 1.386 . S
C2180 C2182 1.391 . S
C2181 C2180 1.386 . S
C2181 C2185 1.393 . S
C2182 H2174 0.950 . S
C2182 C2180 1.391 . S
C2182 C2183 1.400 . S
C2183 C2182 1.400 . S
C2183 C2184 1.398 . S
C2183 C2189 1.491 . S
C2184 H2175 0.950 . S
C2184 C2183 1.398 . S
C2184 C2185 1.391 . S
C2185 H2173 0.950 . S
C2185 C2181 1.393 . S
C2185 C2184 1.391 . S
C2186 H2176 0.950 . S
C2186 C2187 1.386 . S
C2186 C2188 1.391 . S
C2187 C2186 1.386 . S
C2187 C2191 1.393 . S
C2188 H2177 0.950 . S
C2188 C2186 1.391 . S
C2188 C2189 1.400 . S
C2189 C2183 1.491 . S
C2189 C2188 1.400 . S
C2189 C2190 1.398 . S
C2190 H2178 0.950 . S
C2190 C2189 1.398 . S
C2190 C2191 1.391 . S
C2191 H2179 0.950 . S
C2191 C2187 1.393 . S
C2191 C2190 1.391 . S
H2192 C2200 0.950 . S
H2193 C2205 0.950 . S
H2194 C2202 0.950 . S
H2195 C2204 0.950 . S
H2196 C2206 0.950 . S
H2197 C2208 0.950 . S
H2198 C2210 0.950 . S
H2199 C2211 0.950 . S
C2200 H2192 0.950 . S
C2200 C2201 1.386 . S
C2200 C2202 1.391 . S
C2201 C2200 1.386 . S
C2201 C2205 1.393 . S
C2202 H2194 0.950 . S
C2202 C2200 1.391 . S
C2202 C2203 1.400 . S
C2203 C2202 1.400 . S
C2203 C2204 1.398 . S
C2203 C2209 1.491 . S
C2204 H2195 0.950 . S
C2204 C2203 1.398 . S
C2204 C2205 1.391 . S
C2205 H2193 0.950 . S
C2205 C2201 1.393 . S
C2205 C2204 1.391 . S
C2206 H2196 0.950 . S
C2206 C2207 1.386 . S
C2206 C2208 1.391 . S
C2207 C2206 1.386 . S
C2207 C2211 1.393 . S
C2208 H2197 0.950 . S
C2208 C2206 1.391 . S
C2208 C2209 1.400 . S
C2209 C2203 1.491 . S
C2209 C2208 1.400 . S
C2209 C2210 1.398 . S
C2210 H2198 0.950 . S
C2210 C2209 1.398 . S
C2210 C2211 1.391 . S
C2211 H2199 0.950 . S
C2211 C2207 1.393 . S
C2211 C2210 1.391 . S
H2212 C2220 0.950 . S
H2213 C2225 0.950 . S
H2214 C2222 0.950 . S
H2215 C2224 0.950 . S
H2216 C2226 0.950 . S
H2217 C2228 0.950 . S
H2218 C2230 0.950 . S
H2219 C2231 0.950 . S
C2220 H2212 0.950 . S
C2220 C2221 1.386 . S
C2220 C2222 1.391 . S
C2221 C2220 1.386 . S
C2221 C2225 1.393 . S
C2222 H2214 0.950 . S
C2222 C2220 1.391 . S
C2222 C2223 1.400 . S
C2223 C2222 1.400 . S
C2223 C2224 1.398 . S
C2223 C2229 1.491 . S
C2224 H2215 0.950 . S
C2224 C2223 1.398 . S
C2224 C2225 1.391 . S
C2225 H2213 0.950 . S
C2225 C2221 1.393 . S
C2225 C2224 1.391 . S
C2226 H2216 0.950 . S
C2226 C2227 1.386 . S
C2226 C2228 1.391 . S
C2227 C2226 1.386 . S
C2227 C2231 1.393 . S
C2228 H2217 0.950 . S
C2228 C2226 1.391 . S
C2228 C2229 1.400 . S
C2229 C2223 1.491 . S
C2229 C2228 1.400 . S
C2229 C2230 1.398 . S
C2230 H2218 0.950 . S
C2230 C2229 1.398 . S
C2230 C2231 1.391 . S
C2231 H2219 0.950 . S
C2231 C2227 1.393 . S
C2231 C2230 1.391 . S
H2232 C2240 0.931 1_554 S
H2233 C2245 0.950 . S
H2234 C2242 0.950 . S
H2235 C2244 0.950 . S
H2236 C2246 0.950 . S
H2237 C2248 0.950 . S
H2238 C2250 0.950 . S
H2239 C2251 0.950 . S
C2240 H2232 0.931 1_556 S
C2240 C2241 1.386 . S
C2240 C2242 1.391 . S
C2241 C2240 1.386 . S
C2241 C2245 1.393 . S
C2242 H2234 0.950 . S
C2242 C2240 1.391 . S
C2242 C2243 1.400 . S
C2243 C2242 1.400 . S
C2243 C2244 1.398 . S
C2243 C2249 1.491 . S
C2244 H2235 0.950 . S
C2244 C2243 1.398 . S
C2244 C2245 1.391 . S
C2245 H2233 0.950 . S
C2245 C2241 1.393 . S
C2245 C2244 1.391 . S
C2246 H2236 0.950 . S
C2246 C2247 1.386 . S
C2246 C2248 1.391 . S
C2247 C2246 1.386 . S
C2247 C2251 1.393 . S
C2248 H2237 0.950 . S
C2248 C2246 1.391 . S
C2248 C2249 1.400 . S
C2249 C2243 1.491 . S
C2249 C2248 1.400 . S
C2249 C2250 1.398 . S
C2250 H2238 0.950 . S
C2250 C2249 1.398 . S
C2250 C2251 1.391 . S
C2251 H2239 0.950 . S
C2251 C2247 1.393 . S
C2251 C2250 1.391 . S
H2252 C2260 0.950 . S
H2253 C2265 0.950 . S
H2254 C2262 0.950 . S
H2255 C2264 0.950 . S
H2256 C2266 0.950 . S
H2257 C2268 0.950 . S
H2258 C2270 0.950 . S
H2259 C2271 0.950 . S
C2260 H2252 0.950 . S
C2260 C2261 1.386 . S
C2260 C2262 1.391 . S
C2261 C2260 1.386 . S
C2261 C2265 1.393 . S
C2262 H2254 0.950 . S
C2262 C2260 1.391 . S
C2262 C2263 1.400 . S
C2263 C2262 1.400 . S
C2263 C2264 1.398 . S
C2263 C2269 1.491 . S
C2264 H2255 0.950 . S
C2264 C2263 1.398 . S
C2264 C2265 1.391 . S
C2265 H2253 0.950 . S
C2265 C2261 1.393 . S
C2265 C2264 1.391 . S
C2266 H2256 0.950 . S
C2266 C2267 1.386 . S
C2266 C2268 1.391 . S
C2267 C2266 1.386 . S
C2267 C2271 1.393 . S
C2268 H2257 0.950 . S
C2268 C2266 1.391 . S
C2268 C2269 1.400 . S
C2269 C2263 1.491 . S
C2269 C2268 1.400 . S
C2269 C2270 1.398 . S
C2270 H2258 0.950 . S
C2270 C2269 1.398 . S
C2270 C2271 1.391 . S
C2271 H2259 0.950 . S
C2271 C2267 1.393 . S
C2271 C2270 1.391 . S
H2272 C2280 0.950 . S
H2273 C2285 0.950 . S
H2274 C2282 0.950 . S
H2275 C2284 0.950 . S
H2276 C2286 0.950 . S
H2277 C2288 0.950 . S
H2278 C2290 0.950 . S
H2279 C2291 0.950 . S
C2280 H2272 0.950 . S
C2280 C2281 1.386 . S
C2280 C2282 1.391 . S
C2281 C2280 1.386 . S
C2281 C2285 1.393 . S
C2282 H2274 0.950 . S
C2282 C2280 1.391 . S
C2282 C2283 1.400 . S
C2283 C2282 1.400 . S
C2283 C2284 1.398 . S
C2283 C2289 1.491 . S
C2284 H2275 0.950 . S
C2284 C2283 1.398 . S
C2284 C2285 1.391 . S
C2285 H2273 0.950 . S
C2285 C2281 1.393 . S
C2285 C2284 1.391 . S
C2286 H2276 0.950 . S
C2286 C2287 1.386 . S
C2286 C2288 1.391 . S
C2287 C2286 1.386 . S
C2287 C2291 1.393 . S
C2288 H2277 0.950 . S
C2288 C2286 1.391 . S
C2288 C2289 1.400 . S
C2289 C2283 1.491 . S
C2289 C2288 1.400 . S
C2289 C2290 1.398 . S
C2290 H2278 0.950 . S
C2290 C2289 1.398 . S
C2290 C2291 1.391 . S
C2291 H2279 0.950 . S
C2291 C2287 1.393 . S
C2291 C2290 1.391 . S
H2292 C2300 0.950 . S
H2293 C2305 0.950 . S
H2294 C2302 0.950 . S
H2295 C2304 0.950 . S
H2296 C2306 0.950 . S
H2297 C2308 0.950 . S
H2298 C2310 0.950 . S
H2299 C2311 0.950 . S
C2300 H2292 0.950 . S
C2300 C2301 1.386 . S
C2300 C2302 1.391 . S
C2301 C2300 1.386 . S
C2301 C2305 1.393 . S
C2302 H2294 0.950 . S
C2302 C2300 1.391 . S
C2302 C2303 1.400 . S
C2303 C2302 1.400 . S
C2303 C2304 1.398 . S
C2303 C2309 1.491 . S
C2304 H2295 0.950 . S
C2304 C2303 1.398 . S
C2304 C2305 1.391 . S
C2305 H2293 0.950 . S
C2305 C2301 1.393 . S
C2305 C2304 1.391 . S
C2306 H2296 0.950 . S
C2306 C2307 1.386 . S
C2306 C2308 1.391 . S
C2307 C2306 1.386 . S
C2307 C2311 1.393 . S
C2308 H2297 0.950 . S
C2308 C2306 1.391 . S
C2308 C2309 1.400 . S
C2309 C2303 1.491 . S
C2309 C2308 1.400 . S
C2309 C2310 1.398 . S
C2310 H2298 0.950 . S
C2310 C2309 1.398 . S
C2310 C2311 1.391 . S
C2311 H2299 0.950 . S
C2311 C2307 1.393 . S
C2311 C2310 1.391 . S
H2312 C2320 0.950 . S
H2313 C2325 0.950 . S
H2314 C2322 0.950 . S
H2315 C2324 0.950 . S
H2316 C2326 0.950 . S
H2317 C2328 0.950 . S
H2318 C2330 0.950 . S
H2319 C2331 0.950 . S
C2320 H2312 0.950 . S
C2320 C2321 1.386 . S
C2320 C2322 1.391 . S
C2321 C2320 1.386 . S
C2321 C2325 1.393 . S
C2322 H2314 0.950 . S
C2322 C2320 1.391 . S
C2322 C2323 1.400 . S
C2323 C2322 1.400 . S
C2323 C2324 1.398 . S
C2323 C2329 1.491 . S
C2324 H2315 0.950 . S
C2324 C2323 1.398 . S
C2324 C2325 1.391 . S
C2325 H2313 0.950 . S
C2325 C2321 1.393 . S
C2325 C2324 1.391 . S
C2326 H2316 0.950 . S
C2326 C2327 1.386 . S
C2326 C2328 1.391 . S
C2327 C2326 1.386 . S
C2327 C2331 1.393 . S
C2328 H2317 0.950 . S
C2328 C2326 1.391 . S
C2328 C2329 1.400 . S
C2329 C2323 1.491 . S
C2329 C2328 1.400 . S
C2329 C2330 1.398 . S
C2330 H2318 0.950 . S
C2330 C2329 1.398 . S
C2330 C2331 1.391 . S
C2331 H2319 0.950 . S
C2331 C2327 1.393 . S
C2331 C2330 1.391 . S
H2332 C2340 0.950 . S
H2333 C2345 0.950 . S
H2334 C2342 0.950 . S
H2335 C2344 0.950 . S
H2336 C2346 0.950 . S
H2337 C2348 0.950 . S
H2338 C2350 0.950 . S
H2339 C2351 0.950 . S
C2340 H2332 0.950 . S
C2340 C2341 1.386 . S
C2340 C2342 1.391 . S
C2341 C2340 1.386 . S
C2341 C2345 1.393 . S
C2342 H2334 0.950 . S
C2342 C2340 1.391 . S
C2342 C2343 1.400 . S
C2343 C2342 1.400 . S
C2343 C2344 1.398 . S
C2343 C2349 1.491 . S
C2344 H2335 0.950 . S
C2344 C2343 1.398 . S
C2344 C2345 1.391 . S
C2345 H2333 0.950 . S
C2345 C2341 1.393 . S
C2345 C2344 1.391 . S
C2346 H2336 0.950 . S
C2346 C2347 1.386 . S
C2346 C2348 1.391 . S
C2347 C2346 1.386 . S
C2347 C2351 1.393 . S
C2348 H2337 0.950 . S
C2348 C2346 1.391 . S
C2348 C2349 1.400 . S
C2349 C2343 1.491 . S
C2349 C2348 1.400 . S
C2349 C2350 1.398 . S
C2350 H2338 0.950 . S
C2350 C2349 1.398 . S
C2350 C2351 1.391 . S
C2351 H2339 0.950 . S
C2351 C2347 1.393 . S
C2351 C2350 1.391 . S
H2352 C2360 0.950 . S
H2353 C2365 0.950 1_655 S
H2354 C2362 0.950 . S
H2355 C2364 0.950 . S
H2356 C2366 0.950 . S
H2357 C2368 0.950 . S
H2358 C2370 0.950 . S
H2359 C2371 0.950 . S
C2360 H2352 0.950 . S
C2360 C2361 1.392 . S
C2360 C2362 1.391 . S
C2361 C2360 1.392 . S
C2361 C2365 1.396 . S
C2362 H2354 0.950 . S
C2362 C2360 1.391 . S
C2362 C2363 1.400 . S
C2363 C2362 1.400 . S
C2363 C2364 1.398 . S
C2363 C2369 1.491 . S
C2364 H2355 0.950 . S
C2364 C2363 1.398 . S
C2364 C2365 1.391 . S
C2365 H2353 0.950 1_455 S
C2365 C2361 1.396 . S
C2365 C2364 1.391 . S
C2366 H2356 0.950 . S
C2366 C2367 1.386 . S
C2366 C2368 1.391 . S
C2367 C2366 1.386 . S
C2367 C2371 1.393 . S
C2368 H2357 0.950 . S
C2368 C2366 1.391 . S
C2368 C2369 1.400 . S
C2369 C2363 1.491 . S
C2369 C2368 1.400 . S
C2369 C2370 1.398 . S
C2370 H2358 0.950 . S
C2370 C2369 1.398 . S
C2370 C2371 1.391 . S
C2371 H2359 0.950 . S
C2371 C2367 1.393 . S
C2371 C2370 1.391 . S
H2372 C2380 0.950 . S
H2373 C2385 0.950 . S
H2374 C2382 0.950 . S
H2375 C2384 0.950 . S
H2376 C2386 0.950 . S
H2377 C2388 0.950 . S
H2378 C2390 0.950 . S
H2379 C2391 0.950 . S
C2380 H2372 0.950 . S
C2380 C2381 1.386 . S
C2380 C2382 1.391 . S
C2381 C2380 1.386 . S
C2381 C2385 1.393 . S
C2382 H2374 0.950 . S
C2382 C2380 1.391 . S
C2382 C2383 1.400 . S
C2383 C2382 1.400 . S
C2383 C2384 1.398 . S
C2383 C2389 1.491 . S
C2384 H2375 0.950 . S
C2384 C2383 1.398 . S
C2384 C2385 1.391 . S
C2385 H2373 0.950 . S
C2385 C2381 1.393 . S
C2385 C2384 1.391 . S
C2386 H2376 0.950 . S
C2386 C2387 1.386 . S
C2386 C2388 1.391 . S
C2387 C2386 1.386 . S
C2387 C2391 1.393 . S
C2388 H2377 0.950 . S
C2388 C2386 1.391 . S
C2388 C2389 1.400 . S
C2389 C2383 1.491 . S
C2389 C2388 1.400 . S
C2389 C2390 1.398 . S
C2390 H2378 0.950 . S
C2390 C2389 1.398 . S
C2390 C2391 1.391 . S
C2391 H2379 0.950 . S
C2391 C2387 1.393 . S
C2391 C2390 1.391 . S
H2392 C2400 0.950 . S
H2393 C2405 0.950 . S
H2394 C2402 0.950 . S
H2395 C2404 0.950 . S
H2396 C2406 0.950 . S
H2397 C2408 0.950 . S
H2398 C2410 0.950 . S
H2399 C2411 0.950 . S
C2400 H2392 0.950 . S
C2400 C2401 1.386 . S
C2400 C2402 1.391 . S
C2401 C2400 1.386 . S
C2401 C2405 1.393 . S
C2402 H2394 0.950 . S
C2402 C2400 1.391 . S
C2402 C2403 1.400 . S
C2403 C2402 1.400 . S
C2403 C2404 1.398 . S
C2403 C2409 1.491 . S
C2404 H2395 0.950 . S
C2404 C2403 1.398 . S
C2404 C2405 1.391 . S
C2405 H2393 0.950 . S
C2405 C2401 1.393 . S
C2405 C2404 1.391 . S
C2406 H2396 0.950 . S
C2406 C2407 1.386 . S
C2406 C2408 1.391 . S
C2407 C2406 1.386 . S
C2407 C2411 1.393 . S
C2408 H2397 0.950 . S
C2408 C2406 1.391 . S
C2408 C2409 1.400 . S
C2409 C2403 1.491 . S
C2409 C2408 1.400 . S
C2409 C2410 1.398 . S
C2410 H2398 0.950 . S
C2410 C2409 1.398 . S
C2410 C2411 1.391 . S
C2411 H2399 0.950 . S
C2411 C2407 1.393 . S
C2411 C2410 1.391 . S
H2412 C2420 0.950 . S
H2413 C2425 0.950 . S
H2414 C2422 0.950 . S
H2415 C2424 0.950 . S
H2416 C2426 0.950 . S
H2417 C2428 0.950 . S
H2418 C2430 0.950 . S
H2419 C2431 0.950 . S
C2420 H2412 0.950 . S
C2420 C2421 1.386 . S
C2420 C2422 1.391 . S
C2421 C2420 1.386 . S
C2421 C2425 1.393 . S
C2422 H2414 0.950 . S
C2422 C2420 1.391 . S
C2422 C2423 1.400 . S
C2423 C2422 1.400 . S
C2423 C2424 1.398 . S
C2423 C2429 1.491 . S
C2424 H2415 0.950 . S
C2424 C2423 1.398 . S
C2424 C2425 1.391 . S
C2425 H2413 0.950 . S
C2425 C2421 1.393 . S
C2425 C2424 1.391 . S
C2426 H2416 0.950 . S
C2426 C2427 1.386 . S
C2426 C2428 1.391 . S
C2427 C2426 1.386 . S
C2427 C2431 1.393 . S
C2428 H2417 0.950 . S
C2428 C2426 1.391 . S
C2428 C2429 1.400 . S
C2429 C2423 1.491 . S
C2429 C2428 1.400 . S
C2429 C2430 1.398 . S
C2430 H2418 0.950 . S
C2430 C2429 1.398 . S
C2430 C2431 1.391 . S
C2431 H2419 0.950 . S
C2431 C2427 1.393 . S
C2431 C2430 1.391 . S
H2432 C2440 0.950 . S
H2433 C2445 0.950 . S
H2434 C2442 0.950 . S
H2435 C2444 0.950 . S
H2436 C2446 0.950 . S
H2437 C2448 0.950 . S
H2438 C2450 0.950 . S
H2439 C2451 0.950 . S
C2440 H2432 0.950 . S
C2440 C2441 1.386 . S
C2440 C2442 1.391 . S
C2441 C2440 1.386 . S
C2441 C2445 1.393 . S
C2442 H2434 0.950 . S
C2442 C2440 1.391 . S
C2442 C2443 1.400 . S
C2443 C2442 1.400 . S
C2443 C2444 1.398 . S
C2443 C2449 1.491 . S
C2444 H2435 0.950 . S
C2444 C2443 1.398 . S
C2444 C2445 1.391 . S
C2445 H2433 0.950 . S
C2445 C2441 1.393 . S
C2445 C2444 1.391 . S
C2446 H2436 0.950 . S
C2446 C2447 1.386 . S
C2446 C2448 1.391 . S
C2447 C2446 1.386 . S
C2447 C2451 1.393 . S
C2448 H2437 0.950 . S
C2448 C2446 1.391 . S
C2448 C2449 1.400 . S
C2449 C2443 1.491 . S
C2449 C2448 1.400 . S
C2449 C2450 1.398 . S
C2450 H2438 0.950 . S
C2450 C2449 1.398 . S
C2450 C2451 1.391 . S
C2451 H2439 0.950 . S
C2451 C2447 1.393 . S
C2451 C2450 1.391 . S
H2452 C2460 0.950 . S
H2453 C2465 0.950 . S
H2454 C2462 0.950 . S
H2455 C2464 0.950 . S
H2456 C2466 0.950 . S
H2457 C2468 0.950 . S
H2458 C2470 0.950 . S
H2459 C2471 0.950 . S
C2460 H2452 0.950 . S
C2460 C2461 1.386 . S
C2460 C2462 1.391 . S
C2461 C2460 1.386 . S
C2461 C2465 1.393 . S
C2462 H2454 0.950 . S
C2462 C2460 1.391 . S
C2462 C2463 1.400 . S
C2463 C2462 1.400 . S
C2463 C2464 1.398 . S
C2463 C2469 1.491 . S
C2464 H2455 0.950 . S
C2464 C2463 1.398 . S
C2464 C2465 1.391 . S
C2465 H2453 0.950 . S
C2465 C2461 1.393 . S
C2465 C2464 1.391 . S
C2466 H2456 0.950 . S
C2466 C2467 1.386 . S
C2466 C2468 1.391 . S
C2467 C2466 1.386 . S
C2467 C2471 1.393 . S
C2468 H2457 0.950 . S
C2468 C2466 1.391 . S
C2468 C2469 1.400 . S
C2469 C2463 1.491 . S
C2469 C2468 1.400 . S
C2469 C2470 1.398 . S
C2470 H2458 0.950 . S
C2470 C2469 1.398 . S
C2470 C2471 1.391 . S
C2471 H2459 0.950 . S
C2471 C2467 1.393 . S
C2471 C2470 1.391 . S
H2472 C2480 0.950 . S
H2473 C2485 0.950 . S
H2474 C2482 0.950 . S
H2475 C2484 0.950 . S
H2476 C2486 0.950 . S
H2477 C2488 0.950 . S
H2478 C2490 0.950 . S
H2479 C2491 0.950 . S
C2480 H2472 0.950 . S
C2480 C2481 1.386 . S
C2480 C2482 1.391 . S
C2481 C2480 1.386 . S
C2481 C2485 1.393 . S
C2482 H2474 0.950 . S
C2482 C2480 1.391 . S
C2482 C2483 1.400 . S
C2483 C2482 1.400 . S
C2483 C2484 1.398 . S
C2483 C2489 1.491 . S
C2484 H2475 0.950 . S
C2484 C2483 1.398 . S
C2484 C2485 1.391 . S
C2485 H2473 0.950 . S
C2485 C2481 1.393 . S
C2485 C2484 1.391 . S
C2486 H2476 0.950 . S
C2486 C2487 1.386 . S
C2486 C2488 1.391 . S
C2487 C2486 1.386 . S
C2487 C2491 1.393 . S
C2488 H2477 0.950 . S
C2488 C2486 1.391 . S
C2488 C2489 1.400 . S
C2489 C2483 1.491 . S
C2489 C2488 1.400 . S
C2489 C2490 1.398 . S
C2490 H2478 0.950 . S
C2490 C2489 1.398 . S
C2490 C2491 1.391 . S
C2491 H2479 0.950 . S
C2491 C2487 1.393 . S
C2491 C2490 1.391 . S
H2492 C2500 0.950 . S
H2493 C2505 0.950 . S
H2494 C2502 0.950 . S
H2495 C2504 0.950 . S
H2496 C2506 0.950 . S
H2497 C2508 0.950 . S
H2498 C2510 0.950 . S
H2499 C2511 0.950 . S
C2500 H2492 0.950 . S
C2500 C2501 1.386 . S
C2500 C2502 1.391 . S
C2501 C2500 1.386 . S
C2501 C2505 1.393 . S
C2502 H2494 0.950 . S
C2502 C2500 1.391 . S
C2502 C2503 1.400 . S
C2503 C2502 1.400 . S
C2503 C2504 1.398 . S
C2503 C2509 1.491 . S
C2504 H2495 0.950 . S
C2504 C2503 1.398 . S
C2504 C2505 1.391 . S
C2505 H2493 0.950 . S
C2505 C2501 1.393 . S
C2505 C2504 1.391 . S
C2506 H2496 0.950 . S
C2506 C2507 1.386 . S
C2506 C2508 1.391 . S
C2507 C2506 1.386 . S
C2507 C2511 1.393 . S
C2508 H2497 0.950 . S
C2508 C2506 1.391 . S
C2508 C2509 1.400 . S
C2509 C2503 1.491 . S
C2509 C2508 1.400 . S
C2509 C2510 1.398 . S
C2510 H2498 0.950 . S
C2510 C2509 1.398 . S
C2510 C2511 1.391 . S
C2511 H2499 0.950 . S
C2511 C2507 1.393 . S
C2511 C2510 1.391 . S
H2512 C2520 0.950 . S
H2513 C2525 0.950 . S
H2514 C2522 0.950 . S
H2515 C2524 0.950 . S
H2516 C2526 0.950 . S
H2517 C2528 0.950 . S
H2518 C2530 0.950 . S
H2519 C2531 0.950 . S
C2520 H2512 0.950 . S
C2520 C2521 1.386 . S
C2520 C2522 1.391 . S
C2521 C2520 1.386 . S
C2521 C2525 1.393 . S
C2522 H2514 0.950 . S
C2522 C2520 1.391 . S
C2522 C2523 1.400 . S
C2523 C2522 1.400 . S
C2523 C2524 1.398 . S
C2523 C2529 1.491 . S
C2524 H2515 0.950 . S
C2524 C2523 1.398 . S
C2524 C2525 1.391 . S
C2525 H2513 0.950 . S
C2525 C2521 1.393 . S
C2525 C2524 1.391 . S
C2526 H2516 0.950 . S
C2526 C2527 1.386 . S
C2526 C2528 1.391 . S
C2527 C2526 1.386 . S
C2527 C2531 1.393 . S
C2528 H2517 0.950 . S
C2528 C2526 1.391 . S
C2528 C2529 1.400 . S
C2529 C2523 1.491 . S
C2529 C2528 1.400 . S
C2529 C2530 1.398 . S
C2530 H2518 0.950 . S
C2530 C2529 1.398 . S
C2530 C2531 1.391 . S
C2531 H2519 0.950 . S
C2531 C2527 1.393 . S
C2531 C2530 1.391 . S
H2532 C2540 0.950 . S
H2533 C2545 0.950 . S
H2534 C2542 0.950 . S
H2535 C2544 0.950 . S
H2536 C2546 0.950 . S
H2537 C2548 0.950 . S
H2538 C2550 0.950 . S
H2539 C2551 0.950 . S
C2540 H2532 0.950 . S
C2540 C2541 1.386 . S
C2540 C2542 1.391 . S
C2541 C2540 1.386 . S
C2541 C2545 1.393 . S
C2542 H2534 0.950 . S
C2542 C2540 1.391 . S
C2542 C2543 1.400 . S
C2543 C2542 1.400 . S
C2543 C2544 1.398 . S
C2543 C2549 1.491 . S
C2544 H2535 0.950 . S
C2544 C2543 1.398 . S
C2544 C2545 1.391 . S
C2545 H2533 0.950 . S
C2545 C2541 1.393 . S
C2545 C2544 1.391 . S
C2546 H2536 0.950 . S
C2546 C2547 1.386 . S
C2546 C2548 1.391 . S
C2547 C2546 1.386 . S
C2547 C2551 1.393 . S
C2548 H2537 0.950 . S
C2548 C2546 1.391 . S
C2548 C2549 1.400 . S
C2549 C2543 1.491 . S
C2549 C2548 1.400 . S
C2549 C2550 1.398 . S
C2550 H2538 0.950 . S
C2550 C2549 1.398 . S
C2550 C2551 1.391 . S
C2551 H2539 0.950 . S
C2551 C2547 1.393 . S
C2551 C2550 1.391 . S
H2552 C2560 0.950 . S
H2553 C2565 0.950 . S
H2554 C2562 0.950 . S
H2555 C2564 0.950 . S
H2556 C2566 0.950 . S
H2557 C2568 0.950 . S
H2558 C2570 0.950 . S
H2559 C2571 0.950 . S
C2560 H2552 0.950 . S
C2560 C2561 1.386 . S
C2560 C2562 1.391 . S
C2561 C2560 1.386 . S
C2561 C2565 1.393 . S
C2562 H2554 0.950 . S
C2562 C2560 1.391 . S
C2562 C2563 1.400 . S
C2563 C2562 1.400 . S
C2563 C2564 1.398 . S
C2563 C2569 1.491 . S
C2564 H2555 0.950 . S
C2564 C2563 1.398 . S
C2564 C2565 1.391 . S
C2565 H2553 0.950 . S
C2565 C2561 1.393 . S
C2565 C2564 1.391 . S
C2566 H2556 0.950 . S
C2566 C2567 1.386 . S
C2566 C2568 1.391 . S
C2567 C2566 1.386 . S
C2567 C2571 1.393 . S
C2568 H2557 0.950 . S
C2568 C2566 1.391 . S
C2568 C2569 1.400 . S
C2569 C2563 1.491 . S
C2569 C2568 1.400 . S
C2569 C2570 1.398 . S
C2570 H2558 0.950 . S
C2570 C2569 1.398 . S
C2570 C2571 1.391 . S
C2571 H2559 0.950 . S
C2571 C2567 1.393 . S
C2571 C2570 1.391 . S
H2572 C2580 0.950 . S
H2573 C2585 0.950 . S
H2574 C2582 0.950 . S
H2575 C2584 0.950 . S
H2576 C2586 0.950 . S
H2577 C2588 0.950 . S
H2578 C2590 0.950 . S
H2579 C2591 0.950 . S
C2580 H2572 0.950 . S
C2580 C2581 1.386 . S
C2580 C2582 1.391 . S
C2581 C2580 1.386 . S
C2581 C2585 1.393 . S
C2582 H2574 0.950 . S
C2582 C2580 1.391 . S
C2582 C2583 1.400 . S
C2583 C2582 1.400 . S
C2583 C2584 1.398 . S
C2583 C2589 1.491 . S
C2584 H2575 0.950 . S
C2584 C2583 1.398 . S
C2584 C2585 1.391 . S
C2585 H2573 0.950 . S
C2585 C2581 1.393 . S
C2585 C2584 1.391 . S
C2586 H2576 0.950 . S
C2586 C2587 1.386 . S
C2586 C2588 1.391 . S
C2587 C2586 1.386 . S
C2587 C2591 1.393 . S
C2588 H2577 0.950 . S
C2588 C2586 1.391 . S
C2588 C2589 1.400 . S
C2589 C2583 1.491 . S
C2589 C2588 1.400 . S
C2589 C2590 1.398 . S
C2590 H2578 0.950 . S
C2590 C2589 1.398 . S
C2590 C2591 1.391 . S
C2591 H2579 0.950 . S
C2591 C2587 1.393 . S
C2591 C2590 1.391 . S
H2592 C2600 0.950 . S
H2593 C2605 0.950 . S
H2594 C2602 0.950 . S
H2595 C2604 0.950 . S
H2596 C2606 0.950 . S
H2597 C2608 0.950 . S
H2598 C2610 0.950 . S
H2599 C2611 0.950 . S
C2600 H2592 0.950 . S
C2600 C2601 1.386 . S
C2600 C2602 1.391 . S
C2601 C2600 1.386 . S
C2601 C2605 1.393 . S
C2602 H2594 0.950 . S
C2602 C2600 1.391 . S
C2602 C2603 1.400 . S
C2603 C2602 1.400 . S
C2603 C2604 1.398 . S
C2603 C2609 1.491 . S
C2604 H2595 0.950 . S
C2604 C2603 1.398 . S
C2604 C2605 1.391 . S
C2605 H2593 0.950 . S
C2605 C2601 1.393 . S
C2605 C2604 1.391 . S
C2606 H2596 0.950 . S
C2606 C2607 1.386 . S
C2606 C2608 1.391 . S
C2607 C2606 1.386 . S
C2607 C2611 1.393 . S
C2608 H2597 0.950 . S
C2608 C2606 1.391 . S
C2608 C2609 1.400 . S
C2609 C2603 1.491 . S
C2609 C2608 1.400 . S
C2609 C2610 1.398 . S
C2610 H2598 0.950 . S
C2610 C2609 1.398 . S
C2610 C2611 1.391 . S
C2611 H2599 0.950 . S
C2611 C2607 1.393 . S
C2611 C2610 1.391 . S
H2612 C2620 0.950 . S
H2613 C2625 0.950 . S
H2614 C2622 0.950 . S
H2615 C2624 0.950 . S
H2616 C2626 0.950 . S
H2617 C2628 0.950 . S
H2618 C2630 0.950 . S
H2619 C2631 0.950 . S
C2620 H2612 0.950 . S
C2620 C2621 1.386 . S
C2620 C2622 1.391 . S
C2621 C2620 1.386 . S
C2621 C2625 1.393 . S
C2622 H2614 0.950 . S
C2622 C2620 1.391 . S
C2622 C2623 1.400 . S
C2623 C2622 1.400 . S
C2623 C2624 1.398 . S
C2623 C2629 1.491 . S
C2624 H2615 0.950 . S
C2624 C2623 1.398 . S
C2624 C2625 1.391 . S
C2625 H2613 0.950 . S
C2625 C2621 1.393 . S
C2625 C2624 1.391 . S
C2626 H2616 0.950 . S
C2626 C2627 1.386 . S
C2626 C2628 1.391 . S
C2627 C2626 1.386 . S
C2627 C2631 1.393 . S
C2628 H2617 0.950 . S
C2628 C2626 1.391 . S
C2628 C2629 1.400 . S
C2629 C2623 1.491 . S
C2629 C2628 1.400 . S
C2629 C2630 1.398 . S
C2630 H2618 0.950 . S
C2630 C2629 1.398 . S
C2630 C2631 1.391 . S
C2631 H2619 0.950 . S
C2631 C2627 1.393 . S
C2631 C2630 1.391 . S
H2632 C2640 0.950 . S
H2633 C2645 0.950 . S
H2634 C2642 0.950 . S
H2635 C2644 0.950 . S
H2636 C2646 0.950 . S
H2637 C2648 0.950 . S
H2638 C2650 0.950 . S
H2639 C2651 0.950 . S
C2640 H2632 0.950 . S
C2640 C2641 1.386 . S
C2640 C2642 1.391 . S
C2641 C2640 1.386 . S
C2641 C2645 1.393 . S
C2642 H2634 0.950 . S
C2642 C2640 1.391 . S
C2642 C2643 1.400 . S
C2643 C2642 1.400 . S
C2643 C2644 1.398 . S
C2643 C2649 1.491 . S
C2644 H2635 0.950 . S
C2644 C2643 1.398 . S
C2644 C2645 1.391 . S
C2645 H2633 0.950 . S
C2645 C2641 1.393 . S
C2645 C2644 1.391 . S
C2646 H2636 0.950 . S
C2646 C2647 1.386 . S
C2646 C2648 1.391 . S
C2647 C2646 1.386 . S
C2647 C2651 1.393 . S
C2648 H2637 0.950 . S
C2648 C2646 1.391 . S
C2648 C2649 1.400 . S
C2649 C2643 1.491 . S
C2649 C2648 1.400 . S
C2649 C2650 1.398 . S
C2650 H2638 0.950 . S
C2650 C2649 1.398 . S
C2650 C2651 1.391 . S
C2651 H2639 0.950 . S
C2651 C2647 1.393 . S
C2651 C2650 1.391 . S
H2652 C2660 0.950 . S
H2653 C2665 0.950 . S
H2654 C2662 0.950 . S
H2655 C2664 0.950 . S
H2656 C2666 0.950 . S
H2657 C2668 0.950 . S
H2658 C2670 0.950 . S
H2659 C2671 0.950 . S
C2660 H2652 0.950 . S
C2660 C2661 1.386 . S
C2660 C2662 1.391 . S
C2661 C2660 1.386 . S
C2661 C2665 1.393 . S
C2662 H2654 0.950 . S
C2662 C2660 1.391 . S
C2662 C2663 1.400 . S
C2663 C2662 1.400 . S
C2663 C2664 1.398 . S
C2663 C2669 1.491 . S
C2664 H2655 0.950 . S
C2664 C2663 1.398 . S
C2664 C2665 1.391 . S
C2665 H2653 0.950 . S
C2665 C2661 1.393 . S
C2665 C2664 1.391 . S
C2666 H2656 0.950 . S
C2666 C2667 1.386 . S
C2666 C2668 1.391 . S
C2667 C2666 1.386 . S
C2667 C2671 1.393 . S
C2668 H2657 0.950 . S
C2668 C2666 1.391 . S
C2668 C2669 1.400 . S
C2669 C2663 1.491 . S
C2669 C2668 1.400 . S
C2669 C2670 1.398 . S
C2670 H2658 0.950 . S
C2670 C2669 1.398 . S
C2670 C2671 1.391 . S
C2671 H2659 0.950 . S
C2671 C2667 1.393 . S
C2671 C2670 1.391 . S
H2672 C2680 0.950 . S
H2673 C2685 0.950 . S
H2674 C2682 0.950 . S
H2675 C2684 0.950 . S
H2676 C2686 0.950 . S
H2677 C2688 0.950 . S
H2678 C2690 0.950 . S
H2679 C2691 0.950 . S
C2680 H2672 0.950 . S
C2680 C2681 1.386 . S
C2680 C2682 1.391 . S
C2681 C2680 1.386 . S
C2681 C2685 1.393 . S
C2682 H2674 0.950 . S
C2682 C2680 1.391 . S
C2682 C2683 1.400 . S
C2683 C2682 1.400 . S
C2683 C2684 1.398 . S
C2683 C2689 1.491 . S
C2684 H2675 0.950 . S
C2684 C2683 1.398 . S
C2684 C2685 1.391 . S
C2685 H2673 0.950 . S
C2685 C2681 1.393 . S
C2685 C2684 1.391 . S
C2686 H2676 0.950 . S
C2686 C2687 1.386 . S
C2686 C2688 1.391 . S
C2687 C2686 1.386 . S
C2687 C2691 1.393 . S
C2688 H2677 0.950 . S
C2688 C2686 1.391 . S
C2688 C2689 1.400 . S
C2689 C2683 1.491 . S
C2689 C2688 1.400 . S
C2689 C2690 1.398 . S
C2690 H2678 0.950 . S
C2690 C2689 1.398 . S
C2690 C2691 1.391 . S
C2691 H2679 0.950 . S
C2691 C2687 1.393 . S
C2691 C2690 1.391 . S
H2692 C2700 0.950 . S
H2693 C2705 0.950 . S
H2694 C2702 0.950 . S
H2695 C2704 0.950 . S
H2696 C2706 0.950 . S
H2697 C2708 0.950 . S
H2698 C2710 0.950 . S
H2699 C2711 0.950 . S
C2700 H2692 0.950 . S
C2700 C2701 1.386 . S
C2700 C2702 1.391 . S
C2701 C2700 1.386 . S
C2701 C2705 1.393 . S
C2702 H2694 0.950 . S
C2702 C2700 1.391 . S
C2702 C2703 1.400 . S
C2703 C2702 1.400 . S
C2703 C2704 1.398 . S
C2703 C2709 1.491 . S
C2704 H2695 0.950 . S
C2704 C2703 1.398 . S
C2704 C2705 1.391 . S
C2705 H2693 0.950 . S
C2705 C2701 1.393 . S
C2705 C2704 1.391 . S
C2706 H2696 0.950 . S
C2706 C2707 1.386 . S
C2706 C2708 1.391 . S
C2707 C2706 1.386 . S
C2707 C2711 1.393 . S
C2708 H2697 0.950 . S
C2708 C2706 1.391 . S
C2708 C2709 1.400 . S
C2709 C2703 1.491 . S
C2709 C2708 1.400 . S
C2709 C2710 1.398 . S
C2710 H2698 0.950 . S
C2710 C2709 1.398 . S
C2710 C2711 1.391 . S
C2711 H2699 0.950 . S
C2711 C2707 1.393 . S
C2711 C2710 1.391 . S
H2712 C2720 0.950 . S
H2713 C2725 0.950 . S
H2714 C2722 0.950 . S
H2715 C2724 0.950 . S
H2716 C2726 0.950 . S
H2717 C2728 0.950 . S
H2718 C2730 0.950 . S
H2719 C2731 0.950 . S
C2720 H2712 0.950 . S
C2720 C2721 1.386 . S
C2720 C2722 1.391 . S
C2721 C2720 1.386 . S
C2721 C2725 1.393 . S
C2722 H2714 0.950 . S
C2722 C2720 1.391 . S
C2722 C2723 1.400 . S
C2723 C2722 1.400 . S
C2723 C2724 1.398 . S
C2723 C2729 1.491 . S
C2724 H2715 0.950 . S
C2724 C2723 1.398 . S
C2724 C2725 1.391 . S
C2725 H2713 0.950 . S
C2725 C2721 1.393 . S
C2725 C2724 1.391 . S
C2726 H2716 0.950 . S
C2726 C2727 1.386 . S
C2726 C2728 1.391 . S
C2727 C2726 1.386 . S
C2727 C2731 1.393 . S
C2728 H2717 0.950 . S
C2728 C2726 1.391 . S
C2728 C2729 1.400 . S
C2729 C2723 1.491 . S
C2729 C2728 1.400 . S
C2729 C2730 1.398 . S
C2730 H2718 0.950 . S
C2730 C2729 1.398 . S
C2730 C2731 1.391 . S
C2731 H2719 0.950 . S
C2731 C2727 1.393 . S
C2731 C2730 1.391 . S
H2732 C2740 0.950 . S
H2733 C2745 0.950 . S
H2734 C2742 0.950 . S
H2735 C2744 0.950 . S
H2736 C2746 0.950 . S
H2737 C2748 0.950 . S
H2738 C2750 0.950 . S
H2739 C2751 0.950 . S
C2740 H2732 0.950 . S
C2740 C2741 1.386 . S
C2740 C2742 1.391 . S
C2741 C2740 1.386 . S
C2741 C2745 1.393 . S
C2742 H2734 0.950 . S
C2742 C2740 1.391 . S
C2742 C2743 1.400 . S
C2743 C2742 1.400 . S
C2743 C2744 1.398 . S
C2743 C2749 1.491 . S
C2744 H2735 0.950 . S
C2744 C2743 1.398 . S
C2744 C2745 1.391 . S
C2745 H2733 0.950 . S
C2745 C2741 1.393 . S
C2745 C2744 1.391 . S
C2746 H2736 0.950 . S
C2746 C2747 1.386 . S
C2746 C2748 1.391 . S
C2747 C2746 1.386 . S
C2747 C2751 1.393 . S
C2748 H2737 0.950 . S
C2748 C2746 1.391 . S
C2748 C2749 1.400 . S
C2749 C2743 1.491 . S
C2749 C2748 1.400 . S
C2749 C2750 1.398 . S
C2750 H2738 0.950 . S
C2750 C2749 1.398 . S
C2750 C2751 1.391 . S
C2751 H2739 0.950 . S
C2751 C2747 1.393 . S
C2751 C2750 1.391 . S
H2752 C2760 0.950 . S
H2753 C2765 0.950 . S
H2754 C2762 0.950 . S
H2755 C2764 0.950 . S
H2756 C2766 0.950 . S
H2757 C2768 0.950 . S
H2758 C2770 0.950 . S
H2759 C2771 0.950 . S
C2760 H2752 0.950 . S
C2760 C2761 1.386 . S
C2760 C2762 1.391 . S
C2761 C2760 1.386 . S
C2761 C2765 1.393 . S
C2762 H2754 0.950 . S
C2762 C2760 1.391 . S
C2762 C2763 1.400 . S
C2763 C2762 1.400 . S
C2763 C2764 1.398 . S
C2763 C2769 1.491 . S
C2764 H2755 0.950 . S
C2764 C2763 1.398 . S
C2764 C2765 1.391 . S
C2765 H2753 0.950 . S
C2765 C2761 1.393 . S
C2765 C2764 1.391 . S
C2766 H2756 0.950 . S
C2766 C2767 1.386 . S
C2766 C2768 1.391 . S
C2767 C2766 1.386 . S
C2767 C2771 1.393 . S
C2768 H2757 0.950 . S
C2768 C2766 1.391 . S
C2768 C2769 1.400 . S
C2769 C2763 1.491 . S
C2769 C2768 1.400 . S
C2769 C2770 1.398 . S
C2770 H2758 0.950 . S
C2770 C2769 1.398 . S
C2770 C2771 1.391 . S
C2771 H2759 0.950 . S
C2771 C2767 1.393 . S
C2771 C2770 1.391 . S
H2772 C2780 0.950 . S
H2773 C2785 0.950 . S
H2774 C2782 0.950 . S
H2775 C2784 0.950 . S
H2776 C2786 0.950 . S
H2777 C2788 0.950 . S
H2778 C2790 0.950 . S
H2779 C2791 0.950 . S
C2780 H2772 0.950 . S
C2780 C2781 1.386 . S
C2780 C2782 1.391 . S
C2781 C2780 1.386 . S
C2781 C2785 1.393 . S
C2782 H2774 0.950 . S
C2782 C2780 1.391 . S
C2782 C2783 1.400 . S
C2783 C2782 1.400 . S
C2783 C2784 1.398 . S
C2783 C2789 1.491 . S
C2784 H2775 0.950 . S
C2784 C2783 1.398 . S
C2784 C2785 1.391 . S
C2785 H2773 0.950 . S
C2785 C2781 1.393 . S
C2785 C2784 1.391 . S
C2786 H2776 0.950 . S
C2786 C2787 1.386 . S
C2786 C2788 1.391 . S
C2787 C2786 1.386 . S
C2787 C2791 1.393 . S
C2788 H2777 0.950 . S
C2788 C2786 1.391 . S
C2788 C2789 1.400 . S
C2789 C2783 1.491 . S
C2789 C2788 1.400 . S
C2789 C2790 1.398 . S
C2790 H2778 0.950 . S
C2790 C2789 1.398 . S
C2790 C2791 1.391 . S
C2791 H2779 0.950 . S
C2791 C2787 1.393 . S
C2791 C2790 1.391 . S
H2792 C2800 0.950 . S
H2793 C2805 0.950 . S
H2794 C2802 0.950 . S
H2795 C2804 0.950 . S
H2796 C2806 0.950 . S
H2797 C2808 0.950 . S
H2798 C2810 0.950 . S
H2799 C2811 0.950 . S
C2800 H2792 0.950 . S
C2800 C2801 1.386 . S
C2800 C2802 1.391 . S
C2801 C2800 1.386 . S
C2801 C2805 1.393 . S
C2802 H2794 0.950 . S
C2802 C2800 1.391 . S
C2802 C2803 1.400 . S
C2803 C2802 1.400 . S
C2803 C2804 1.398 . S
C2803 C2809 1.491 . S
C2804 H2795 0.950 . S
C2804 C2803 1.398 . S
C2804 C2805 1.391 . S
C2805 H2793 0.950 . S
C2805 C2801 1.393 . S
C2805 C2804 1.391 . S
C2806 H2796 0.950 . S
C2806 C2807 1.386 . S
C2806 C2808 1.391 . S
C2807 C2806 1.386 . S
C2807 C2811 1.393 . S
C2808 H2797 0.950 . S
C2808 C2806 1.391 . S
C2808 C2809 1.400 . S
C2809 C2803 1.491 . S
C2809 C2808 1.400 . S
C2809 C2810 1.398 . S
C2810 H2798 0.950 . S
C2810 C2809 1.398 . S
C2810 C2811 1.391 . S
C2811 H2799 0.950 . S
C2811 C2807 1.393 . S
C2811 C2810 1.391 . S
H2812 C2820 0.950 . S
H2813 C2825 0.950 . S
H2814 C2822 0.950 . S
H2815 C2824 0.950 . S
H2816 C2826 0.950 . S
H2817 C2828 0.950 . S
H2818 C2830 0.950 . S
H2819 C2831 0.950 . S
C2820 H2812 0.950 . S
C2820 C2821 1.386 . S
C2820 C2822 1.391 . S
C2821 C2820 1.386 . S
C2821 C2825 1.393 . S
C2822 H2814 0.950 . S
C2822 C2820 1.391 . S
C2822 C2823 1.400 . S
C2823 C2822 1.400 . S
C2823 C2824 1.398 . S
C2823 C2829 1.491 . S
C2824 H2815 0.950 . S
C2824 C2823 1.398 . S
C2824 C2825 1.391 . S
C2825 H2813 0.950 . S
C2825 C2821 1.393 . S
C2825 C2824 1.391 . S
C2826 H2816 0.950 . S
C2826 C2827 1.386 . S
C2826 C2828 1.391 . S
C2827 C2826 1.386 . S
C2827 C2831 1.393 . S
C2828 H2817 0.950 . S
C2828 C2826 1.391 . S
C2828 C2829 1.400 . S
C2829 C2823 1.491 . S
C2829 C2828 1.400 . S
C2829 C2830 1.398 . S
C2830 H2818 0.950 . S
C2830 C2829 1.398 . S
C2830 C2831 1.391 . S
C2831 H2819 0.950 . S
C2831 C2827 1.393 . S
C2831 C2830 1.391 . S
H2832 C2840 0.950 . S
H2833 C2845 0.950 . S
H2834 C2842 0.950 . S
H2835 C2844 0.950 . S
H2836 C2846 0.950 . S
H2837 C2848 0.950 . S
H2838 C2850 0.950 . S
H2839 C2851 0.950 . S
C2840 H2832 0.950 . S
C2840 C2841 1.386 . S
C2840 C2842 1.391 1_455 S
C2841 C2840 1.386 . S
C2841 C2845 1.393 . S
C2842 H2834 0.950 . S
C2842 C2840 1.391 1_655 S
C2842 C2843 1.400 . S
C2843 C2842 1.400 . S
C2843 C2844 1.398 . S
C2843 C2849 1.491 . S
C2844 H2835 0.950 . S
C2844 C2843 1.398 . S
C2844 C2845 1.391 1_655 S
C2845 H2833 0.950 . S
C2845 C2841 1.393 . S
C2845 C2844 1.391 1_455 S
C2846 H2836 0.950 . S
C2846 C2847 1.386 . S
C2846 C2848 1.391 . S
C2847 C2846 1.386 . S
C2847 C2851 1.393 . S
C2848 H2837 0.950 . S
C2848 C2846 1.391 . S
C2848 C2849 1.400 . S
C2849 C2843 1.491 . S
C2849 C2848 1.400 . S
C2849 C2850 1.398 . S
C2850 H2838 0.950 . S
C2850 C2849 1.398 . S
C2850 C2851 1.391 . S
C2851 H2839 0.950 . S
C2851 C2847 1.393 . S
C2851 C2850 1.391 . S
H2852 C2860 0.950 . S
H2853 C2865 0.950 . S
H2854 C2862 0.950 . S
H2855 C2864 0.950 . S
H2856 C2866 0.950 . S
H2857 C2868 0.950 . S
H2858 C2870 0.950 . S
H2859 C2871 0.950 . S
C2860 H2852 0.950 . S
C2860 C2861 1.386 . S
C2860 C2862 1.391 . S
C2861 C2860 1.386 . S
C2861 C2865 1.393 . S
C2862 H2854 0.950 . S
C2862 C2860 1.391 . S
C2862 C2863 1.400 . S
C2863 C2862 1.400 . S
C2863 C2864 1.398 . S
C2863 C2869 1.491 . S
C2864 H2855 0.950 . S
C2864 C2863 1.398 . S
C2864 C2865 1.391 . S
C2865 H2853 0.950 . S
C2865 C2861 1.393 . S
C2865 C2864 1.391 . S
C2866 H2856 0.950 . S
C2866 C2867 1.386 . S
C2866 C2868 1.391 . S
C2867 C2866 1.386 . S
C2867 C2871 1.393 . S
C2868 H2857 0.950 . S
C2868 C2866 1.391 . S
C2868 C2869 1.400 . S
C2869 C2863 1.491 . S
C2869 C2868 1.400 . S
C2869 C2870 1.398 . S
C2870 H2858 0.950 . S
C2870 C2869 1.398 . S
C2870 C2871 1.391 . S
C2871 H2859 0.950 . S
C2871 C2867 1.393 . S
C2871 C2870 1.391 . S
H2872 C2880 0.950 . S
H2873 C2885 0.950 . S
H2874 C2882 0.950 . S
H2875 C2884 0.950 . S
H2876 C2886 0.950 . S
H2877 C2888 0.950 . S
H2878 C2890 0.950 . S
H2879 C2891 0.950 . S
C2880 H2872 0.950 . S
C2880 C2881 1.386 . S
C2880 C2882 1.391 . S
C2881 C2880 1.386 . S
C2881 C2885 1.393 . S
C2882 H2874 0.950 . S
C2882 C2880 1.391 . S
C2882 C2883 1.400 . S
C2883 C2882 1.400 . S
C2883 C2884 1.398 . S
C2883 C2889 1.491 . S
C2884 H2875 0.950 . S
C2884 C2883 1.398 . S
C2884 C2885 1.391 . S
C2885 H2873 0.950 . S
C2885 C2881 1.393 . S
C2885 C2884 1.391 . S
C2886 H2876 0.950 . S
C2886 C2887 1.386 . S
C2886 C2888 1.391 . S
C2887 C2886 1.386 . S
C2887 C2891 1.393 . S
C2888 H2877 0.950 . S
C2888 C2886 1.391 . S
C2888 C2889 1.400 . S
C2889 C2883 1.491 . S
C2889 C2888 1.400 . S
C2889 C2890 1.398 . S
C2890 H2878 0.950 . S
C2890 C2889 1.398 . S
C2890 C2891 1.391 . S
C2891 H2879 0.950 . S
C2891 C2887 1.393 . S
C2891 C2890 1.391 . S
H2892 C2900 0.950 . S
H2893 C2905 0.950 . S
H2894 C2902 0.950 . S
H2895 C2904 0.950 . S
H2896 C2906 0.950 . S
H2897 C2908 0.950 . S
H2898 C2910 0.950 . S
H2899 C2911 0.950 . S
C2900 H2892 0.950 . S
C2900 C2901 1.386 . S
C2900 C2902 1.391 . S
C2901 C2900 1.386 . S
C2901 C2905 1.393 . S
C2902 H2894 0.950 . S
C2902 C2900 1.391 . S
C2902 C2903 1.400 . S
C2903 C2902 1.400 . S
C2903 C2904 1.398 . S
C2903 C2909 1.491 . S
C2904 H2895 0.950 . S
C2904 C2903 1.398 . S
C2904 C2905 1.391 . S
C2905 H2893 0.950 . S
C2905 C2901 1.393 . S
C2905 C2904 1.391 . S
C2906 H2896 0.950 . S
C2906 C2907 1.386 . S
C2906 C2908 1.391 . S
C2907 C2906 1.386 . S
C2907 C2911 1.393 . S
C2908 H2897 0.950 . S
C2908 C2906 1.391 . S
C2908 C2909 1.400 . S
C2909 C2903 1.491 . S
C2909 C2908 1.400 . S
C2909 C2910 1.398 . S
C2910 H2898 0.950 . S
C2910 C2909 1.398 . S
C2910 C2911 1.391 . S
C2911 H2899 0.950 . S
C2911 C2907 1.393 . S
C2911 C2910 1.391 . S
H2912 C2920 0.950 . S
H2913 C2925 0.950 . S
H2914 C2922 0.950 . S
H2915 C2924 0.950 . S
H2916 C2926 0.950 . S
H2917 C2928 0.950 . S
H2918 C2930 0.950 . S
H2919 C2931 0.950 . S
C2920 H2912 0.950 . S
C2920 C2921 1.386 . S
C2920 C2922 1.391 . S
C2921 C2920 1.386 . S
C2921 C2925 1.393 . S
C2922 H2914 0.950 . S
C2922 C2920 1.391 . S
C2922 C2923 1.400 . S
C2923 C2922 1.400 . S
C2923 C2924 1.398 . S
C2923 C2929 1.491 . S
C2924 H2915 0.950 . S
C2924 C2923 1.398 . S
C2924 C2925 1.391 . S
C2925 H2913 0.950 . S
C2925 C2921 1.393 . S
C2925 C2924 1.391 . S
C2926 H2916 0.950 . S
C2926 C2927 1.386 . S
C2926 C2928 1.391 . S
C2927 C2926 1.386 . S
C2927 C2931 1.393 . S
C2928 H2917 0.950 . S
C2928 C2926 1.391 . S
C2928 C2929 1.400 . S
C2929 C2923 1.491 . S
C2929 C2928 1.400 . S
C2929 C2930 1.398 . S
C2930 H2918 0.950 . S
C2930 C2929 1.398 . S
C2930 C2931 1.391 . S
C2931 H2919 0.950 . S
C2931 C2927 1.393 . S
C2931 C2930 1.391 . S
H2932 C2940 0.950 . S
H2933 C2945 0.950 . S
H2934 C2942 0.950 . S
H2935 C2944 0.950 . S
H2936 C2946 0.950 . S
H2937 C2948 0.950 . S
H2938 C2950 0.950 . S
H2939 C2951 0.950 . S
C2940 H2932 0.950 . S
C2940 C2941 1.386 . S
C2940 C2942 1.391 . S
C2941 C2940 1.386 . S
C2941 C2945 1.393 . S
C2942 H2934 0.950 . S
C2942 C2940 1.391 . S
C2942 C2943 1.400 . S
C2943 C2942 1.400 . S
C2943 C2944 1.398 . S
C2943 C2949 1.491 . S
C2944 H2935 0.950 . S
C2944 C2943 1.398 . S
C2944 C2945 1.391 . S
C2945 H2933 0.950 . S
C2945 C2941 1.393 . S
C2945 C2944 1.391 . S
C2946 H2936 0.950 . S
C2946 C2947 1.386 . S
C2946 C2948 1.391 . S
C2947 C2946 1.386 . S
C2947 C2951 1.393 . S
C2948 H2937 0.950 . S
C2948 C2946 1.391 . S
C2948 C2949 1.400 . S
C2949 C2943 1.491 . S
C2949 C2948 1.400 . S
C2949 C2950 1.398 . S
C2950 H2938 0.950 . S
C2950 C2949 1.398 . S
C2950 C2951 1.391 . S
C2951 H2939 0.950 . S
C2951 C2947 1.393 . S
C2951 C2950 1.391 . S
H2952 C2960 0.950 . S
H2953 C2965 0.950 . S
H2954 C2962 0.950 . S
H2955 C2964 0.950 . S
H2956 C2966 0.950 . S
H2957 C2968 0.950 . S
H2958 C2970 0.950 . S
H2959 C2971 0.950 . S
C2960 H2952 0.950 . S
C2960 C2961 1.386 . S
C2960 C2962 1.391 . S
C2961 C2960 1.386 . S
C2961 C2965 1.393 . S
C2962 H2954 0.950 . S
C2962 C2960 1.391 . S
C2962 C2963 1.400 . S
C2963 C2962 1.400 . S
C2963 C2964 1.398 . S
C2963 C2969 1.491 . S
C2964 H2955 0.950 . S
C2964 C2963 1.398 . S
C2964 C2965 1.391 . S
C2965 H2953 0.950 . S
C2965 C2961 1.393 . S
C2965 C2964 1.391 . S
C2966 H2956 0.950 . S
C2966 C2967 1.386 . S
C2966 C2968 1.391 . S
C2967 C2966 1.386 . S
C2967 C2971 1.393 . S
C2968 H2957 0.950 . S
C2968 C2966 1.391 . S
C2968 C2969 1.400 . S
C2969 C2963 1.491 . S
C2969 C2968 1.400 . S
C2969 C2970 1.398 . S
C2970 H2958 0.950 . S
C2970 C2969 1.398 . S
C2970 C2971 1.391 . S
C2971 H2959 0.950 . S
C2971 C2967 1.393 . S
C2971 C2970 1.391 . S
H2972 C2980 0.950 . S
H2973 C2985 0.950 . S
H2974 C2982 0.950 . S
H2975 C2984 0.950 . S
H2976 C2986 0.950 . S
H2977 C2988 0.950 . S
H2978 C2990 0.950 . S
H2979 C2991 0.950 . S
C2980 H2972 0.950 . S
C2980 C2981 1.386 . S
C2980 C2982 1.391 . S
C2981 C2980 1.386 . S
C2981 C2985 1.393 . S
C2982 H2974 0.950 . S
C2982 C2980 1.391 . S
C2982 C2983 1.400 . S
C2983 C2982 1.400 . S
C2983 C2984 1.398 . S
C2983 C2989 1.491 . S
C2984 H2975 0.950 . S
C2984 C2983 1.398 . S
C2984 C2985 1.391 . S
C2985 H2973 0.950 . S
C2985 C2981 1.393 . S
C2985 C2984 1.391 . S
C2986 H2976 0.950 . S
C2986 C2987 1.386 . S
C2986 C2988 1.391 . S
C2987 C2986 1.386 . S
C2987 C2991 1.393 . S
C2988 H2977 0.950 . S
C2988 C2986 1.391 . S
C2988 C2989 1.400 . S
C2989 C2983 1.491 . S
C2989 C2988 1.400 . S
C2989 C2990 1.398 . S
C2990 H2978 0.950 . S
C2990 C2989 1.398 . S
C2990 C2991 1.391 . S
C2991 H2979 0.950 . S
C2991 C2987 1.393 . S
C2991 C2990 1.391 . S
H2992 C3000 0.950 . S
H2993 C3005 0.950 . S
H2994 C3002 0.950 . S
H2995 C3004 0.950 . S
H2996 C3006 0.950 . S
H2997 C3008 0.950 . S
H2998 C3010 0.950 . S
H2999 C3011 0.950 . S
C3000 H2992 0.950 . S
C3000 C3001 1.386 . S
C3000 C3002 1.391 . S
C3001 C3000 1.386 . S
C3001 C3005 1.393 . S
C3002 H2994 0.950 . S
C3002 C3000 1.391 . S
C3002 C3003 1.400 . S
C3003 C3002 1.400 . S
C3003 C3004 1.398 . S
C3003 C3009 1.491 . S
C3004 H2995 0.950 . S
C3004 C3003 1.398 . S
C3004 C3005 1.391 . S
C3005 H2993 0.950 . S
C3005 C3001 1.393 . S
C3005 C3004 1.391 . S
C3006 H2996 0.950 . S
C3006 C3007 1.386 . S
C3006 C3008 1.391 . S
C3007 C3006 1.386 . S
C3007 C3011 1.393 . S
C3008 H2997 0.950 . S
C3008 C3006 1.391 . S
C3008 C3009 1.400 . S
C3009 C3003 1.491 . S
C3009 C3008 1.400 . S
C3009 C3010 1.398 . S
C3010 H2998 0.950 . S
C3010 C3009 1.398 . S
C3010 C3011 1.391 . S
C3011 H2999 0.950 . S
C3011 C3007 1.393 . S
C3011 C3010 1.391 . S
H3012 C3020 0.950 . S
H3013 C3025 0.950 . S
H3014 C3022 0.950 . S
H3015 C3024 0.950 . S
H3016 C3026 0.950 . S
H3017 C3028 0.950 . S
H3018 C3030 0.950 . S
H3019 C3031 0.950 . S
C3020 H3012 0.950 . S
C3020 C3021 1.386 . S
C3020 C3022 1.391 . S
C3021 C3020 1.386 . S
C3021 C3025 1.393 . S
C3022 H3014 0.950 . S
C3022 C3020 1.391 . S
C3022 C3023 1.400 . S
C3023 C3022 1.400 . S
C3023 C3024 1.398 . S
C3023 C3029 1.491 . S
C3024 H3015 0.950 . S
C3024 C3023 1.398 . S
C3024 C3025 1.391 . S
C3025 H3013 0.950 . S
C3025 C3021 1.393 . S
C3025 C3024 1.391 . S
C3026 H3016 0.950 . S
C3026 C3027 1.386 . S
C3026 C3028 1.391 . S
C3027 C3026 1.386 . S
C3027 C3031 1.393 . S
C3028 H3017 0.950 . S
C3028 C3026 1.391 . S
C3028 C3029 1.400 . S
C3029 C3023 1.491 . S
C3029 C3028 1.400 . S
C3029 C3030 1.398 . S
C3030 H3018 0.950 . S
C3030 C3029 1.398 . S
C3030 C3031 1.391 . S
C3031 H3019 0.950 . S
C3031 C3027 1.393 . S
C3031 C3030 1.391 . S
H3032 C3040 0.950 . S
H3033 C3045 0.950 . S
H3034 C3042 0.950 . S
H3035 C3044 0.950 . S
H3036 C3046 0.950 . S
H3037 C3048 0.950 . S
H3038 C3050 0.950 . S
H3039 C3051 0.950 . S
C3040 H3032 0.950 . S
C3040 C3041 1.386 . S
C3040 C3042 1.391 . S
C3041 C3040 1.386 . S
C3041 C3045 1.393 . S
C3042 H3034 0.950 . S
C3042 C3040 1.391 . S
C3042 C3043 1.400 . S
C3043 C3042 1.400 . S
C3043 C3044 1.398 . S
C3043 C3049 1.491 . S
C3044 H3035 0.950 . S
C3044 C3043 1.398 . S
C3044 C3045 1.391 . S
C3045 H3033 0.950 . S
C3045 C3041 1.393 . S
C3045 C3044 1.391 . S
C3046 H3036 0.950 . S
C3046 C3047 1.386 . S
C3046 C3048 1.391 . S
C3047 C3046 1.386 . S
C3047 C3051 1.393 . S
C3048 H3037 0.950 . S
C3048 C3046 1.391 . S
C3048 C3049 1.400 . S
C3049 C3043 1.491 . S
C3049 C3048 1.400 . S
C3049 C3050 1.398 . S
C3050 H3038 0.950 . S
C3050 C3049 1.398 . S
C3050 C3051 1.391 . S
C3051 H3039 0.950 . S
C3051 C3047 1.393 . S
C3051 C3050 1.391 . S
H3052 C3060 0.950 . S
H3053 C3065 0.950 . S
H3054 C3062 0.950 . S
H3055 C3064 0.950 . S
H3056 C3066 0.950 . S
H3057 C3068 0.950 . S
H3058 C3070 0.950 . S
H3059 C3071 0.950 . S
C3060 H3052 0.950 . S
C3060 C3061 1.386 . S
C3060 C3062 1.391 . S
C3061 C3060 1.386 . S
C3061 C3065 1.393 . S
C3062 H3054 0.950 . S
C3062 C3060 1.391 . S
C3062 C3063 1.400 . S
C3063 C3062 1.400 . S
C3063 C3064 1.398 . S
C3063 C3069 1.491 . S
C3064 H3055 0.950 . S
C3064 C3063 1.398 . S
C3064 C3065 1.391 . S
C3065 H3053 0.950 . S
C3065 C3061 1.393 . S
C3065 C3064 1.391 . S
C3066 H3056 0.950 . S
C3066 C3067 1.386 . S
C3066 C3068 1.391 . S
C3067 C3066 1.386 . S
C3067 C3071 1.393 . S
C3068 H3057 0.950 . S
C3068 C3066 1.391 . S
C3068 C3069 1.400 . S
C3069 C3063 1.491 . S
C3069 C3068 1.400 . S
C3069 C3070 1.398 . S
C3070 H3058 0.950 . S
C3070 C3069 1.398 . S
C3070 C3071 1.391 . S
C3071 H3059 0.950 . S
C3071 C3067 1.393 . S
C3071 C3070 1.391 . S
H3072 C3080 0.950 . S
H3073 C3085 0.950 . S
H3074 C3082 0.950 . S
H3075 C3084 0.950 . S
H3076 C3086 0.950 . S
H3077 C3088 0.950 . S
H3078 C3090 0.950 . S
H3079 C3091 0.950 . S
C3080 H3072 0.950 . S
C3080 C3081 1.386 . S
C3080 C3082 1.391 . S
C3081 C3080 1.386 . S
C3081 C3085 1.393 . S
C3082 H3074 0.950 . S
C3082 C3080 1.391 . S
C3082 C3083 1.400 . S
C3083 C3082 1.400 . S
C3083 C3084 1.398 . S
C3083 C3089 1.491 . S
C3084 H3075 0.950 . S
C3084 C3083 1.398 . S
C3084 C3085 1.391 . S
C3085 H3073 0.950 . S
C3085 C3081 1.393 . S
C3085 C3084 1.391 . S
C3086 H3076 0.950 . S
C3086 C3087 1.386 . S
C3086 C3088 1.391 . S
C3087 C3086 1.386 . S
C3087 C3091 1.393 . S
C3088 H3077 0.950 . S
C3088 C3086 1.391 . S
C3088 C3089 1.400 . S
C3089 C3083 1.491 . S
C3089 C3088 1.400 . S
C3089 C3090 1.398 . S
C3090 H3078 0.950 . S
C3090 C3089 1.398 . S
C3090 C3091 1.391 . S
C3091 H3079 0.950 . S
C3091 C3087 1.393 . S
C3091 C3090 1.391 . S
H3092 C3100 0.950 . S
H3093 C3105 0.950 . S
H3094 C3102 0.950 . S
H3095 C3104 0.950 . S
H3096 C3106 0.950 . S
H3097 C3108 0.950 . S
H3098 C3110 0.950 . S
H3099 C3111 0.950 . S
C3100 H3092 0.950 . S
C3100 C3101 1.386 . S
C3100 C3102 1.391 . S
C3101 C3100 1.386 . S
C3101 C3105 1.393 . S
C3102 H3094 0.950 . S
C3102 C3100 1.391 . S
C3102 C3103 1.400 . S
C3103 C3102 1.400 . S
C3103 C3104 1.398 . S
C3103 C3109 1.491 . S
C3104 H3095 0.950 . S
C3104 C3103 1.398 . S
C3104 C3105 1.391 . S
C3105 H3093 0.950 . S
C3105 C3101 1.393 . S
C3105 C3104 1.391 . S
C3106 H3096 0.950 . S
C3106 C3107 1.386 . S
C3106 C3108 1.391 . S
C3107 C3106 1.386 . S
C3107 C3111 1.393 . S
C3108 H3097 0.950 . S
C3108 C3106 1.391 . S
C3108 C3109 1.400 . S
C3109 C3103 1.491 . S
C3109 C3108 1.400 . S
C3109 C3110 1.398 . S
C3110 H3098 0.950 . S
C3110 C3109 1.398 . S
C3110 C3111 1.391 . S
C3111 H3099 0.950 . S
C3111 C3107 1.393 . S
C3111 C3110 1.391 . S
H3112 C3120 0.957 . S
H3113 C3125 0.950 . S
H3114 C3122 0.950 . S
H3115 C3124 0.950 . S
H3116 C3126 0.950 . S
H3117 C3128 0.950 . S
H3118 C3130 0.950 . S
H3119 C3131 0.950 . S
C3120 H3112 0.957 . S
C3120 C3121 1.390 . S
C3120 C3122 1.380 1_556 S
C3121 C3120 1.390 . S
C3121 C3125 1.393 1_556 S
C3122 H3114 0.950 . S
C3122 C3120 1.380 1_554 S
C3122 C3123 1.400 . S
C3123 C3122 1.400 . S
C3123 C3124 1.398 . S
C3123 C3129 1.491 . S
C3124 H3115 0.950 . S
C3124 C3123 1.398 . S
C3124 C3125 1.391 . S
C3125 H3113 0.950 . S
C3125 C3121 1.393 1_554 S
C3125 C3124 1.391 . S
C3126 H3116 0.950 . S
C3126 C3127 1.386 . S
C3126 C3128 1.391 . S
C3127 C3126 1.386 . S
C3127 C3131 1.393 . S
C3128 H3117 0.950 . S
C3128 C3126 1.391 . S
C3128 C3129 1.400 . S
C3129 C3123 1.491 . S
C3129 C3128 1.400 . S
C3129 C3130 1.398 . S
C3130 H3118 0.950 . S
C3130 C3129 1.398 . S
C3130 C3131 1.391 . S
C3131 H3119 0.950 . S
C3131 C3127 1.393 . S
C3131 C3130 1.391 . S
H3132 C3140 0.950 . S
H3133 C3145 0.950 . S
H3134 C3142 0.950 . S
H3135 C3144 0.950 . S
H3136 C3146 0.950 . S
H3137 C3148 0.950 . S
H3138 C3150 0.950 . S
H3139 C3151 0.950 . S
C3140 H3132 0.950 . S
C3140 C3141 1.386 . S
C3140 C3142 1.391 . S
C3141 C3140 1.386 . S
C3141 C3145 1.393 . S
C3142 H3134 0.950 . S
C3142 C3140 1.391 . S
C3142 C3143 1.400 . S
C3143 C3142 1.400 . S
C3143 C3144 1.398 . S
C3143 C3149 1.491 . S
C3144 H3135 0.950 . S
C3144 C3143 1.398 . S
C3144 C3145 1.391 . S
C3145 H3133 0.950 . S
C3145 C3141 1.393 . S
C3145 C3144 1.391 . S
C3146 H3136 0.950 . S
C3146 C3147 1.386 . S
C3146 C3148 1.391 . S
C3147 C3146 1.386 . S
C3147 C3151 1.393 . S
C3148 H3137 0.950 . S
C3148 C3146 1.391 . S
C3148 C3149 1.400 . S
C3149 C3143 1.491 . S
C3149 C3148 1.400 . S
C3149 C3150 1.398 . S
C3150 H3138 0.950 . S
C3150 C3149 1.398 . S
C3150 C3151 1.391 . S
C3151 H3139 0.950 . S
C3151 C3147 1.393 . S
C3151 C3150 1.391 . S
H3152 C3160 0.950 . S
H3153 C3165 0.950 . S
H3154 C3162 0.950 1_556 S
H3155 C3164 0.950 . S
H3156 C3166 0.950 . S
H3157 C3168 0.950 . S
H3158 C3170 0.950 . S
H3159 C3171 0.950 . S
C3160 H3152 0.950 . S
C3160 C3161 1.386 . S
C3160 C3162 1.391 . S
C3161 C3160 1.386 . S
C3161 C3165 1.393 . S
C3162 H3154 0.950 1_554 S
C3162 C3160 1.391 . S
C3162 C3163 1.400 1_554 S
C3163 C3162 1.400 1_556 S
C3163 C3164 1.398 1_556 S
C3163 C3169 1.491 . S
C3164 H3155 0.950 . S
C3164 C3163 1.398 1_554 S
C3164 C3165 1.391 . S
C3165 H3153 0.950 . S
C3165 C3161 1.393 . S
C3165 C3164 1.391 . S
C3166 H3156 0.950 . S
C3166 C3167 1.386 . S
C3166 C3168 1.391 . S
C3167 C3166 1.386 . S
C3167 C3171 1.393 . S
C3168 H3157 0.950 . S
C3168 C3166 1.391 . S
C3168 C3169 1.400 . S
C3169 C3163 1.491 . S
C3169 C3168 1.400 . S
C3169 C3170 1.398 . S
C3170 H3158 0.950 . S
C3170 C3169 1.398 . S
C3170 C3171 1.391 . S
C3171 H3159 0.950 . S
C3171 C3167 1.393 . S
C3171 C3170 1.391 . S
H3172 C3180 0.950 . S
H3173 C3185 0.950 . S
H3174 C3182 0.950 . S
H3175 C3184 0.950 . S
H3176 C3186 0.950 . S
H3177 C3188 0.950 . S
H3178 C3190 0.950 . S
H3179 C3191 0.950 . S
C3180 H3172 0.950 . S
C3180 C3181 1.386 . S
C3180 C3182 1.391 . S
C3181 C3180 1.386 . S
C3181 C3185 1.393 . S
C3182 H3174 0.950 . S
C3182 C3180 1.391 . S
C3182 C3183 1.400 . S
C3183 C3182 1.400 . S
C3183 C3184 1.398 . S
C3183 C3189 1.491 . S
C3184 H3175 0.950 . S
C3184 C3183 1.398 . S
C3184 C3185 1.391 . S
C3185 H3173 0.950 . S
C3185 C3181 1.393 . S
C3185 C3184 1.391 . S
C3186 H3176 0.950 . S
C3186 C3187 1.386 . S
C3186 C3188 1.391 . S
C3187 C3186 1.386 . S
C3187 C3191 1.393 . S
C3188 H3177 0.950 . S
C3188 C3186 1.391 . S
C3188 C3189 1.400 . S
C3189 C3183 1.491 . S
C3189 C3188 1.400 . S
C3189 C3190 1.398 . S
C3190 H3178 0.950 . S
C3190 C3189 1.398 . S
C3190 C3191 1.391 . S
C3191 H3179 0.950 . S
C3191 C3187 1.393 . S
C3191 C3190 1.391 . S
H3192 C3200 0.950 . S
H3193 C3205 0.950 . S
H3194 C3202 0.950 . S
H3195 C3204 0.950 . S
H3196 C3206 0.950 . S
H3197 C3208 0.950 . S
H3198 C3210 0.950 . S
H3199 C3211 0.950 . S
C3200 H3192 0.950 . S
C3200 C3201 1.386 . S
C3200 C3202 1.391 . S
C3201 C3200 1.386 . S
C3201 C3205 1.393 . S
C3202 H3194 0.950 . S
C3202 C3200 1.391 . S
C3202 C3203 1.400 . S
C3203 C3202 1.400 . S
C3203 C3204 1.398 . S
C3203 C3209 1.491 . S
C3204 H3195 0.950 . S
C3204 C3203 1.398 . S
C3204 C3205 1.391 . S
C3205 H3193 0.950 . S
C3205 C3201 1.393 . S
C3205 C3204 1.391 . S
C3206 H3196 0.950 . S
C3206 C3207 1.386 . S
C3206 C3208 1.391 . S
C3207 C3206 1.386 . S
C3207 C3211 1.393 . S
C3208 H3197 0.950 . S
C3208 C3206 1.391 . S
C3208 C3209 1.400 . S
C3209 C3203 1.491 . S
C3209 C3208 1.400 . S
C3209 C3210 1.398 . S
C3210 H3198 0.950 . S
C3210 C3209 1.398 . S
C3210 C3211 1.391 . S
C3211 H3199 0.950 . S
C3211 C3207 1.393 . S
C3211 C3210 1.391 . S
H3212 C3220 0.950 . S
H3213 C3225 0.950 . S
H3214 C3222 0.950 . S
H3215 C3224 0.950 . S
H3216 C3226 0.950 . S
H3217 C3228 0.950 . S
H3218 C3230 0.950 . S
H3219 C3231 0.950 . S
C3220 H3212 0.950 . S
C3220 C3221 1.386 . S
C3220 C3222 1.391 . S
C3221 C3220 1.386 . S
C3221 C3225 1.393 . S
C3222 H3214 0.950 . S
C3222 C3220 1.391 . S
C3222 C3223 1.400 . S
C3223 C3222 1.400 . S
C3223 C3224 1.398 . S
C3223 C3229 1.491 . S
C3224 H3215 0.950 . S
C3224 C3223 1.398 . S
C3224 C3225 1.391 . S
C3225 H3213 0.950 . S
C3225 C3221 1.393 . S
C3225 C3224 1.391 . S
C3226 H3216 0.950 . S
C3226 C3227 1.386 . S
C3226 C3228 1.391 . S
C3227 C3226 1.386 . S
C3227 C3231 1.393 . S
C3228 H3217 0.950 . S
C3228 C3226 1.391 . S
C3228 C3229 1.400 . S
C3229 C3223 1.491 . S
C3229 C3228 1.400 . S
C3229 C3230 1.398 . S
C3230 H3218 0.950 . S
C3230 C3229 1.398 . S
C3230 C3231 1.391 . S
C3231 H3219 0.950 . S
C3231 C3227 1.393 . S
C3231 C3230 1.391 . S
H3232 C3240 0.950 . S
H3233 C3245 0.950 . S
H3234 C3242 0.950 . S
H3235 C3244 0.950 . S
H3236 C3246 0.950 . S
H3237 C3248 0.950 . S
H3238 C3250 0.950 . S
H3239 C3251 0.950 . S
C3240 H3232 0.950 . S
C3240 C3241 1.386 . S
C3240 C3242 1.391 . S
C3241 C3240 1.386 . S
C3241 C3245 1.393 . S
C3242 H3234 0.950 . S
C3242 C3240 1.391 . S
C3242 C3243 1.400 . S
C3243 C3242 1.400 . S
C3243 C3244 1.398 . S
C3243 C3249 1.491 . S
C3244 H3235 0.950 . S
C3244 C3243 1.398 . S
C3244 C3245 1.391 . S
C3245 H3233 0.950 . S
C3245 C3241 1.393 . S
C3245 C3244 1.391 . S
C3246 H3236 0.950 . S
C3246 C3247 1.386 . S
C3246 C3248 1.391 . S
C3247 C3246 1.386 . S
C3247 C3251 1.393 . S
C3248 H3237 0.950 . S
C3248 C3246 1.391 . S
C3248 C3249 1.400 . S
C3249 C3243 1.491 . S
C3249 C3248 1.400 . S
C3249 C3250 1.398 . S
C3250 H3238 0.950 . S
C3250 C3249 1.398 . S
C3250 C3251 1.391 . S
C3251 H3239 0.950 . S
C3251 C3247 1.393 . S
C3251 C3250 1.391 . S
H3252 C3260 0.950 . S
H3253 C3265 0.950 . S
H3254 C3262 0.950 . S
H3255 C3264 0.950 . S
H3256 C3266 0.950 . S
H3257 C3268 0.950 . S
H3258 C3270 0.950 . S
H3259 C3271 0.950 . S
C3260 H3252 0.950 . S
C3260 C3261 1.386 . S
C3260 C3262 1.391 . S
C3261 C3260 1.386 . S
C3261 C3265 1.393 . S
C3262 H3254 0.950 . S
C3262 C3260 1.391 . S
C3262 C3263 1.400 . S
C3263 C3262 1.400 . S
C3263 C3264 1.398 . S
C3263 C3269 1.491 . S
C3264 H3255 0.950 . S
C3264 C3263 1.398 . S
C3264 C3265 1.391 . S
C3265 H3253 0.950 . S
C3265 C3261 1.393 . S
C3265 C3264 1.391 . S
C3266 H3256 0.950 . S
C3266 C3267 1.386 . S
C3266 C3268 1.391 . S
C3267 C3266 1.386 . S
C3267 C3271 1.393 . S
C3268 H3257 0.950 . S
C3268 C3266 1.391 . S
C3268 C3269 1.400 . S
C3269 C3263 1.491 . S
C3269 C3268 1.400 . S
C3269 C3270 1.398 . S
C3270 H3258 0.950 . S
C3270 C3269 1.398 . S
C3270 C3271 1.391 . S
C3271 H3259 0.950 . S
C3271 C3267 1.393 . S
C3271 C3270 1.391 . S
H3272 C3280 0.950 . S
H3273 C3285 0.950 . S
H3274 C3282 0.950 . S
H3275 C3284 0.950 . S
H3276 C3286 0.950 . S
H3277 C3288 0.950 . S
H3278 C3290 0.950 . S
H3279 C3291 0.950 . S
C3280 H3272 0.950 . S
C3280 C3281 1.386 . S
C3280 C3282 1.391 . S
C3281 C3280 1.386 . S
C3281 C3285 1.393 . S
C3282 H3274 0.950 . S
C3282 C3280 1.391 . S
C3282 C3283 1.400 . S
C3283 C3282 1.400 . S
C3283 C3284 1.398 . S
C3283 C3289 1.491 . S
C3284 H3275 0.950 . S
C3284 C3283 1.398 . S
C3284 C3285 1.391 . S
C3285 H3273 0.950 . S
C3285 C3281 1.393 . S
C3285 C3284 1.391 . S
C3286 H3276 0.950 . S
C3286 C3287 1.386 . S
C3286 C3288 1.391 . S
C3287 C3286 1.386 . S
C3287 C3291 1.393 . S
C3288 H3277 0.950 . S
C3288 C3286 1.391 . S
C3288 C3289 1.400 . S
C3289 C3283 1.491 . S
C3289 C3288 1.400 . S
C3289 C3290 1.398 . S
C3290 H3278 0.950 . S
C3290 C3289 1.398 . S
C3290 C3291 1.391 . S
C3291 H3279 0.950 . S
C3291 C3287 1.393 . S
C3291 C3290 1.391 . S
H3292 C3300 0.950 . S
H3293 C3305 0.950 . S
H3294 C3302 0.950 . S
H3295 C3304 0.950 . S
H3296 C3306 0.950 . S
H3297 C3308 0.950 . S
H3298 C3310 0.950 . S
H3299 C3311 0.950 . S
C3300 H3292 0.950 . S
C3300 C3301 1.386 . S
C3300 C3302 1.391 . S
C3301 C3300 1.386 . S
C3301 C3305 1.393 . S
C3302 H3294 0.950 . S
C3302 C3300 1.391 . S
C3302 C3303 1.400 . S
C3303 C3302 1.400 . S
C3303 C3304 1.398 . S
C3303 C3309 1.491 . S
C3304 H3295 0.950 . S
C3304 C3303 1.398 . S
C3304 C3305 1.391 . S
C3305 H3293 0.950 . S
C3305 C3301 1.393 . S
C3305 C3304 1.391 . S
C3306 H3296 0.950 . S
C3306 C3307 1.386 . S
C3306 C3308 1.391 . S
C3307 C3306 1.386 . S
C3307 C3311 1.393 . S
C3308 H3297 0.950 . S
C3308 C3306 1.391 . S
C3308 C3309 1.400 . S
C3309 C3303 1.491 . S
C3309 C3308 1.400 . S
C3309 C3310 1.398 . S
C3310 H3298 0.950 . S
C3310 C3309 1.398 . S
C3310 C3311 1.391 . S
C3311 H3299 0.950 . S
C3311 C3307 1.393 . S
C3311 C3310 1.391 . S
H3312 C3320 0.950 . S
H3313 C3325 0.950 . S
H3314 C3322 0.950 . S
H3315 C3324 0.950 . S
H3316 C3326 0.950 . S
H3317 C3328 0.950 . S
H3318 C3330 0.950 . S
H3319 C3331 0.950 . S
C3320 H3312 0.950 . S
C3320 C3321 1.386 . S
C3320 C3322 1.391 . S
C3321 C3320 1.386 . S
C3321 C3325 1.393 . S
C3322 H3314 0.950 . S
C3322 C3320 1.391 . S
C3322 C3323 1.400 . S
C3323 C3322 1.400 . S
C3323 C3324 1.398 . S
C3323 C3329 1.491 . S
C3324 H3315 0.950 . S
C3324 C3323 1.398 . S
C3324 C3325 1.391 . S
C3325 H3313 0.950 . S
C3325 C3321 1.393 . S
C3325 C3324 1.391 . S
C3326 H3316 0.950 . S
C3326 C3327 1.386 . S
C3326 C3328 1.391 . S
C3327 C3326 1.386 . S
C3327 C3331 1.393 . S
C3328 H3317 0.950 . S
C3328 C3326 1.391 . S
C3328 C3329 1.400 . S
C3329 C3323 1.491 . S
C3329 C3328 1.400 . S
C3329 C3330 1.398 . S
C3330 H3318 0.950 . S
C3330 C3329 1.398 . S
C3330 C3331 1.391 . S
C3331 H3319 0.950 . S
C3331 C3327 1.393 . S
C3331 C3330 1.391 . S
H3332 C3340 0.950 . S
H3333 C3345 0.950 . S
H3334 C3342 0.950 . S
H3335 C3344 0.950 . S
H3336 C3346 0.950 . S
H3337 C3348 0.950 . S
H3338 C3350 0.950 . S
H3339 C3351 0.950 . S
C3340 H3332 0.950 . S
C3340 C3341 1.386 . S
C3340 C3342 1.391 . S
C3341 C3340 1.386 . S
C3341 C3345 1.393 . S
C3342 H3334 0.950 . S
C3342 C3340 1.391 . S
C3342 C3343 1.400 . S
C3343 C3342 1.400 . S
C3343 C3344 1.398 . S
C3343 C3349 1.491 . S
C3344 H3335 0.950 . S
C3344 C3343 1.398 . S
C3344 C3345 1.391 . S
C3345 H3333 0.950 . S
C3345 C3341 1.393 . S
C3345 C3344 1.391 . S
C3346 H3336 0.950 . S
C3346 C3347 1.386 . S
C3346 C3348 1.391 . S
C3347 C3346 1.386 . S
C3347 C3351 1.393 . S
C3348 H3337 0.950 . S
C3348 C3346 1.391 . S
C3348 C3349 1.400 . S
C3349 C3343 1.491 . S
C3349 C3348 1.400 . S
C3349 C3350 1.398 . S
C3350 H3338 0.950 . S
C3350 C3349 1.398 . S
C3350 C3351 1.391 . S
C3351 H3339 0.950 . S
C3351 C3347 1.393 . S
C3351 C3350 1.391 . S
H3352 C3360 0.950 . S
H3353 C3365 0.950 . S
H3354 C3362 0.950 . S
H3355 C3364 0.950 . S
H3356 C3366 0.950 . S
H3357 C3368 0.950 . S
H3358 C3370 0.950 . S
H3359 C3371 0.950 . S
C3360 H3352 0.950 . S
C3360 C3361 1.386 . S
C3360 C3362 1.391 1_455 S
C3361 C3360 1.386 . S
C3361 C3365 1.393 . S
C3362 H3354 0.950 . S
C3362 C3360 1.391 1_655 S
C3362 C3363 1.400 . S
C3363 C3362 1.400 . S
C3363 C3364 1.398 1_655 S
C3363 C3369 1.491 . S
C3364 H3355 0.950 . S
C3364 C3363 1.398 1_455 S
C3364 C3365 1.391 . S
C3365 H3353 0.950 . S
C3365 C3361 1.393 . S
C3365 C3364 1.391 . S
C3366 H3356 0.950 . S
C3366 C3367 1.386 . S
C3366 C3368 1.391 . S
C3367 C3366 1.386 . S
C3367 C3371 1.393 . S
C3368 H3357 0.950 . S
C3368 C3366 1.391 . S
C3368 C3369 1.400 . S
C3369 C3363 1.491 . S
C3369 C3368 1.400 . S
C3369 C3370 1.398 . S
C3370 H3358 0.950 . S
C3370 C3369 1.398 . S
C3370 C3371 1.391 . S
C3371 H3359 0.950 . S
C3371 C3367 1.393 . S
C3371 C3370 1.391 . S
H3372 C3380 0.950 . S
H3373 C3385 0.950 . S
H3374 C3382 0.950 . S
H3375 C3384 0.950 . S
H3376 C3386 0.950 . S
H3377 C3388 0.950 . S
H3378 C3390 0.950 . S
H3379 C3391 0.950 . S
C3380 H3372 0.950 . S
C3380 C3381 1.386 . S
C3380 C3382 1.391 . S
C3381 C3380 1.386 . S
C3381 C3385 1.393 . S
C3382 H3374 0.950 . S
C3382 C3380 1.391 . S
C3382 C3383 1.400 . S
C3383 C3382 1.400 . S
C3383 C3384 1.398 . S
C3383 C3389 1.491 . S
C3384 H3375 0.950 . S
C3384 C3383 1.398 . S
C3384 C3385 1.391 . S
C3385 H3373 0.950 . S
C3385 C3381 1.393 . S
C3385 C3384 1.391 . S
C3386 H3376 0.950 . S
C3386 C3387 1.386 . S
C3386 C3388 1.391 . S
C3387 C3386 1.386 . S
C3387 C3391 1.393 . S
C3388 H3377 0.950 . S
C3388 C3386 1.391 . S
C3388 C3389 1.400 . S
C3389 C3383 1.491 . S
C3389 C3388 1.400 . S
C3389 C3390 1.398 . S
C3390 H3378 0.950 . S
C3390 C3389 1.398 . S
C3390 C3391 1.391 . S
C3391 H3379 0.950 . S
C3391 C3387 1.393 . S
C3391 C3390 1.391 . S
H3392 C3400 0.950 . S
H3393 C3405 0.950 . S
H3394 C3402 0.950 . S
H3395 C3404 0.950 . S
H3396 C3406 0.950 . S
H3397 C3408 0.950 . S
H3398 C3410 0.950 . S
H3399 C3411 0.950 . S
C3400 H3392 0.950 . S
C3400 C3401 1.386 . S
C3400 C3402 1.391 . S
C3401 C3400 1.386 . S
C3401 C3405 1.393 . S
C3402 H3394 0.950 . S
C3402 C3400 1.391 . S
C3402 C3403 1.400 . S
C3403 C3402 1.400 . S
C3403 C3404 1.398 . S
C3403 C3409 1.491 . S
C3404 H3395 0.950 . S
C3404 C3403 1.398 . S
C3404 C3405 1.391 . S
C3405 H3393 0.950 . S
C3405 C3401 1.393 . S
C3405 C3404 1.391 . S
C3406 H3396 0.950 . S
C3406 C3407 1.386 . S
C3406 C3408 1.391 . S
C3407 C3406 1.386 . S
C3407 C3411 1.393 . S
C3408 H3397 0.950 . S
C3408 C3406 1.391 . S
C3408 C3409 1.400 . S
C3409 C3403 1.491 . S
C3409 C3408 1.400 . S
C3409 C3410 1.398 . S
C3410 H3398 0.950 . S
C3410 C3409 1.398 . S
C3410 C3411 1.391 . S
C3411 H3399 0.950 . S
C3411 C3407 1.393 . S
C3411 C3410 1.391 . S
H3412 C3420 0.950 . S
H3413 C3425 0.950 . S
H3414 C3422 0.950 . S
H3415 C3424 0.950 . S
H3416 C3426 0.950 . S
H3417 C3428 0.950 . S
H3418 C3430 0.950 . S
H3419 C3431 0.950 . S
C3420 H3412 0.950 . S
C3420 C3421 1.386 . S
C3420 C3422 1.391 . S
C3421 C3420 1.386 . S
C3421 C3425 1.393 . S
C3422 H3414 0.950 . S
C3422 C3420 1.391 . S
C3422 C3423 1.400 . S
C3423 C3422 1.400 . S
C3423 C3424 1.398 . S
C3423 C3429 1.491 . S
C3424 H3415 0.950 . S
C3424 C3423 1.398 . S
C3424 C3425 1.391 . S
C3425 H3413 0.950 . S
C3425 C3421 1.393 . S
C3425 C3424 1.391 . S
C3426 H3416 0.950 . S
C3426 C3427 1.386 . S
C3426 C3428 1.391 . S
C3427 C3426 1.386 . S
C3427 C3431 1.393 . S
C3428 H3417 0.950 . S
C3428 C3426 1.391 . S
C3428 C3429 1.400 . S
C3429 C3423 1.491 . S
C3429 C3428 1.400 . S
C3429 C3430 1.398 . S
C3430 H3418 0.950 . S
C3430 C3429 1.398 . S
C3430 C3431 1.391 . S
C3431 H3419 0.950 . S
C3431 C3427 1.393 . S
C3431 C3430 1.391 . S
H3432 C3440 0.950 . S
H3433 C3445 0.950 . S
H3434 C3442 0.950 . S
H3435 C3444 0.950 . S
H3436 C3446 0.950 . S
H3437 C3448 0.950 . S
H3438 C3450 0.950 . S
H3439 C3451 0.950 . S
C3440 H3432 0.950 . S
C3440 C3441 1.386 . S
C3440 C3442 1.391 . S
C3441 C3440 1.386 . S
C3441 C3445 1.393 . S
C3442 H3434 0.950 . S
C3442 C3440 1.391 . S
C3442 C3443 1.400 . S
C3443 C3442 1.400 . S
C3443 C3444 1.398 . S
C3443 C3449 1.491 . S
C3444 H3435 0.950 . S
C3444 C3443 1.398 . S
C3444 C3445 1.391 . S
C3445 H3433 0.950 . S
C3445 C3441 1.393 . S
C3445 C3444 1.391 . S
C3446 H3436 0.950 . S
C3446 C3447 1.386 . S
C3446 C3448 1.391 . S
C3447 C3446 1.386 . S
C3447 C3451 1.393 . S
C3448 H3437 0.950 . S
C3448 C3446 1.391 . S
C3448 C3449 1.400 . S
C3449 C3443 1.491 . S
C3449 C3448 1.400 . S
C3449 C3450 1.398 . S
C3450 H3438 0.950 . S
C3450 C3449 1.398 . S
C3450 C3451 1.391 . S
C3451 H3439 0.950 . S
C3451 C3447 1.393 . S
C3451 C3450 1.391 . S
H3452 C3460 0.950 . S
H3453 C3465 0.950 . S
H3454 C3462 0.950 . S
H3455 C3464 0.950 . S
H3456 C3466 0.950 . S
H3457 C3468 0.950 . S
H3458 C3470 0.950 . S
H3459 C3471 0.950 . S
C3460 H3452 0.950 . S
C3460 C3461 1.386 . S
C3460 C3462 1.391 . S
C3461 C3460 1.386 . S
C3461 C3465 1.393 . S
C3462 H3454 0.950 . S
C3462 C3460 1.391 . S
C3462 C3463 1.400 . S
C3463 C3462 1.400 . S
C3463 C3464 1.398 . S
C3463 C3469 1.491 . S
C3464 H3455 0.950 . S
C3464 C3463 1.398 . S
C3464 C3465 1.391 . S
C3465 H3453 0.950 . S
C3465 C3461 1.393 . S
C3465 C3464 1.391 . S
C3466 H3456 0.950 . S
C3466 C3467 1.386 . S
C3466 C3468 1.391 . S
C3467 C3466 1.386 . S
C3467 C3471 1.393 . S
C3468 H3457 0.950 . S
C3468 C3466 1.391 . S
C3468 C3469 1.400 . S
C3469 C3463 1.491 . S
C3469 C3468 1.400 . S
C3469 C3470 1.398 . S
C3470 H3458 0.950 . S
C3470 C3469 1.398 . S
C3470 C3471 1.391 . S
C3471 H3459 0.950 . S
C3471 C3467 1.393 . S
C3471 C3470 1.391 . S
H3472 C3480 0.950 . S
H3473 C3485 0.950 . S
H3474 C3482 0.950 . S
H3475 C3484 0.950 . S
H3476 C3486 0.950 . S
H3477 C3488 0.950 . S
H3478 C3490 0.950 . S
H3479 C3491 0.950 . S
C3480 H3472 0.950 . S
C3480 C3481 1.386 . S
C3480 C3482 1.391 . S
C3481 C3480 1.386 . S
C3481 C3485 1.393 . S
C3482 H3474 0.950 . S
C3482 C3480 1.391 . S
C3482 C3483 1.400 . S
C3483 C3482 1.400 . S
C3483 C3484 1.398 . S
C3483 C3489 1.491 . S
C3484 H3475 0.950 . S
C3484 C3483 1.398 . S
C3484 C3485 1.391 . S
C3485 H3473 0.950 . S
C3485 C3481 1.393 . S
C3485 C3484 1.391 . S
C3486 H3476 0.950 . S
C3486 C3487 1.386 . S
C3486 C3488 1.391 . S
C3487 C3486 1.386 . S
C3487 C3491 1.393 . S
C3488 H3477 0.950 . S
C3488 C3486 1.391 . S
C3488 C3489 1.400 . S
C3489 C3483 1.491 . S
C3489 C3488 1.400 . S
C3489 C3490 1.398 . S
C3490 H3478 0.950 . S
C3490 C3489 1.398 . S
C3490 C3491 1.391 . S
C3491 H3479 0.950 . S
C3491 C3487 1.393 . S
C3491 C3490 1.391 . S
H3492 C3500 0.950 . S
H3493 C3505 0.950 . S
H3494 C3502 0.950 . S
H3495 C3504 0.950 . S
H3496 C3506 0.950 . S
H3497 C3508 0.950 . S
H3498 C3510 0.950 . S
H3499 C3511 0.950 . S
C3500 H3492 0.950 . S
C3500 C3501 1.386 . S
C3500 C3502 1.391 . S
C3501 C3500 1.386 . S
C3501 C3505 1.393 . S
C3502 H3494 0.950 . S
C3502 C3500 1.391 . S
C3502 C3503 1.400 . S
C3503 C3502 1.400 . S
C3503 C3504 1.398 . S
C3503 C3509 1.491 . S
C3504 H3495 0.950 . S
C3504 C3503 1.398 . S
C3504 C3505 1.391 . S
C3505 H3493 0.950 . S
C3505 C3501 1.393 . S
C3505 C3504 1.391 . S
C3506 H3496 0.950 . S
C3506 C3507 1.386 . S
C3506 C3508 1.391 . S
C3507 C3506 1.386 . S
C3507 C3511 1.393 . S
C3508 H3497 0.950 . S
C3508 C3506 1.391 . S
C3508 C3509 1.400 . S
C3509 C3503 1.491 . S
C3509 C3508 1.400 . S
C3509 C3510 1.398 . S
C3510 H3498 0.950 . S
C3510 C3509 1.398 . S
C3510 C3511 1.391 . S
C3511 H3499 0.950 . S
C3511 C3507 1.393 . S
C3511 C3510 1.391 . S
H3512 C3520 0.950 . S
H3513 C3525 0.950 . S
H3514 C3522 0.950 . S
H3515 C3524 0.950 . S
H3516 C3526 0.950 . S
H3517 C3528 0.950 . S
H3518 C3530 0.950 . S
H3519 C3531 0.950 . S
C3520 H3512 0.950 . S
C3520 C3521 1.386 . S
C3520 C3522 1.391 . S
C3521 C3520 1.386 . S
C3521 C3525 1.393 . S
C3522 H3514 0.950 . S
C3522 C3520 1.391 . S
C3522 C3523 1.400 . S
C3523 C3522 1.400 . S
C3523 C3524 1.398 . S
C3523 C3529 1.491 . S
C3524 H3515 0.950 . S
C3524 C3523 1.398 . S
C3524 C3525 1.391 . S
C3525 H3513 0.950 . S
C3525 C3521 1.393 . S
C3525 C3524 1.391 . S
C3526 H3516 0.950 . S
C3526 C3527 1.386 . S
C3526 C3528 1.391 . S
C3527 C3526 1.386 . S
C3527 C3531 1.393 . S
C3528 H3517 0.950 . S
C3528 C3526 1.391 . S
C3528 C3529 1.400 . S
C3529 C3523 1.491 . S
C3529 C3528 1.400 . S
C3529 C3530 1.398 . S
C3530 H3518 0.950 . S
C3530 C3529 1.398 . S
C3530 C3531 1.391 . S
C3531 H3519 0.950 . S
C3531 C3527 1.393 . S
C3531 C3530 1.391 . S
H3532 C3540 0.950 . S
H3533 C3545 0.950 . S
H3534 C3542 0.950 . S
H3535 C3544 0.950 . S
H3536 C3546 0.950 . S
H3537 C3548 0.950 . S
H3538 C3550 0.950 . S
H3539 C3551 0.950 . S
C3540 H3532 0.950 . S
C3540 C3541 1.386 . S
C3540 C3542 1.391 . S
C3541 C3540 1.386 . S
C3541 C3545 1.393 . S
C3542 H3534 0.950 . S
C3542 C3540 1.391 . S
C3542 C3543 1.400 . S
C3543 C3542 1.400 . S
C3543 C3544 1.398 . S
C3543 C3549 1.491 . S
C3544 H3535 0.950 . S
C3544 C3543 1.398 . S
C3544 C3545 1.391 . S
C3545 H3533 0.950 . S
C3545 C3541 1.393 . S
C3545 C3544 1.391 . S
C3546 H3536 0.950 . S
C3546 C3547 1.386 . S
C3546 C3548 1.391 . S
C3547 C3546 1.386 . S
C3547 C3551 1.393 . S
C3548 H3537 0.950 . S
C3548 C3546 1.391 . S
C3548 C3549 1.400 . S
C3549 C3543 1.491 . S
C3549 C3548 1.400 . S
C3549 C3550 1.398 . S
C3550 H3538 0.950 . S
C3550 C3549 1.398 . S
C3550 C3551 1.391 . S
C3551 H3539 0.950 . S
C3551 C3547 1.393 . S
C3551 C3550 1.391 . S
H3552 C3560 0.950 . S
H3553 C3565 0.950 . S
H3554 C3562 0.950 . S
H3555 C3564 0.950 . S
H3556 C3566 0.950 . S
H3557 C3568 0.950 . S
H3558 C3570 0.950 . S
H3559 C3571 0.950 . S
C3560 H3552 0.950 . S
C3560 C3561 1.386 . S
C3560 C3562 1.391 . S
C3561 C3560 1.386 . S
C3561 C3565 1.393 . S
C3562 H3554 0.950 . S
C3562 C3560 1.391 . S
C3562 C3563 1.400 . S
C3563 C3562 1.400 . S
C3563 C3564 1.398 . S
C3563 C3569 1.491 . S
C3564 H3555 0.950 . S
C3564 C3563 1.398 . S
C3564 C3565 1.391 . S
C3565 H3553 0.950 . S
C3565 C3561 1.393 . S
C3565 C3564 1.391 . S
C3566 H3556 0.950 . S
C3566 C3567 1.386 . S
C3566 C3568 1.391 . S
C3567 C3566 1.386 . S
C3567 C3571 1.393 . S
C3568 H3557 0.950 . S
C3568 C3566 1.391 . S
C3568 C3569 1.400 . S
C3569 C3563 1.491 . S
C3569 C3568 1.400 . S
C3569 C3570 1.398 . S
C3570 H3558 0.950 . S
C3570 C3569 1.398 . S
C3570 C3571 1.391 . S
C3571 H3559 0.950 . S
C3571 C3567 1.393 . S
C3571 C3570 1.391 . S
H3572 C3580 0.950 . S
H3573 C3585 0.950 . S
H3574 C3582 0.950 . S
H3575 C3584 0.950 . S
H3576 C3586 0.950 . S
H3577 C3588 0.950 . S
H3578 C3590 0.950 . S
H3579 C3591 0.950 . S
C3580 H3572 0.950 . S
C3580 C3581 1.386 . S
C3580 C3582 1.391 . S
C3581 C3580 1.386 . S
C3581 C3585 1.393 . S
C3582 H3574 0.950 . S
C3582 C3580 1.391 . S
C3582 C3583 1.400 . S
C3583 C3582 1.400 . S
C3583 C3584 1.398 . S
C3583 C3589 1.491 . S
C3584 H3575 0.950 . S
C3584 C3583 1.398 . S
C3584 C3585 1.391 . S
C3585 H3573 0.950 . S
C3585 C3581 1.393 . S
C3585 C3584 1.391 . S
C3586 H3576 0.950 . S
C3586 C3587 1.386 . S
C3586 C3588 1.391 . S
C3587 C3586 1.386 . S
C3587 C3591 1.393 . S
C3588 H3577 0.950 . S
C3588 C3586 1.391 . S
C3588 C3589 1.400 . S
C3589 C3583 1.491 . S
C3589 C3588 1.400 . S
C3589 C3590 1.398 . S
C3590 H3578 0.950 . S
C3590 C3589 1.398 . S
C3590 C3591 1.391 . S
C3591 H3579 0.950 . S
C3591 C3587 1.393 . S
C3591 C3590 1.391 . S
H3592 C3600 0.950 . S
H3593 C3605 0.950 . S
H3594 C3602 0.950 1_556 S
H3595 C3604 0.950 . S
H3596 C3606 0.950 . S
H3597 C3608 0.899 1_554 S
H3598 C3610 0.950 . S
H3599 C3611 0.950 . S
C3600 H3592 0.950 . S
C3600 C3601 1.386 . S
C3600 C3602 1.391 . S
C3601 C3600 1.386 . S
C3601 C3605 1.393 . S
C3602 H3594 0.950 1_554 S
C3602 C3600 1.391 . S
C3602 C3603 1.400 . S
C3603 C3602 1.400 . S
C3603 C3604 1.398 . S
C3603 C3609 1.491 1_554 S
C3604 H3595 0.950 . S
C3604 C3603 1.398 . S
C3604 C3605 1.391 . S
C3605 H3593 0.950 . S
C3605 C3601 1.393 . S
C3605 C3604 1.391 . S
C3606 H3596 0.950 . S
C3606 C3607 1.386 . S
C3606 C3608 1.391 . S
C3607 C3606 1.386 . S
C3607 C3611 1.393 . S
C3608 H3597 0.899 1_556 S
C3608 C3606 1.391 . S
C3608 C3609 1.400 . S
C3609 C3603 1.491 1_556 S
C3609 C3608 1.400 . S
C3609 C3610 1.398 . S
C3610 H3598 0.950 . S
C3610 C3609 1.398 . S
C3610 C3611 1.391 . S
C3611 H3599 0.950 . S
C3611 C3607 1.393 . S
C3611 C3610 1.391 . S
H3612 C3620 0.950 . S
H3613 C3625 0.950 . S
H3614 C3622 0.950 . S
H3615 C3624 0.950 . S
H3616 C3626 0.950 . S
H3617 C3628 0.950 . S
H3618 C3630 0.950 . S
H3619 C3631 0.950 . S
C3620 H3612 0.950 . S
C3620 C3621 1.386 . S
C3620 C3622 1.391 . S
C3621 C3620 1.386 . S
C3621 C3625 1.393 . S
C3622 H3614 0.950 . S
C3622 C3620 1.391 . S
C3622 C3623 1.400 . S
C3623 C3622 1.400 . S
C3623 C3624 1.398 . S
C3623 C3629 1.491 . S
C3624 H3615 0.950 . S
C3624 C3623 1.398 . S
C3624 C3625 1.391 . S
C3625 H3613 0.950 . S
C3625 C3621 1.393 . S
C3625 C3624 1.391 . S
C3626 H3616 0.950 . S
C3626 C3627 1.386 . S
C3626 C3628 1.391 . S
C3627 C3626 1.386 . S
C3627 C3631 1.393 . S
C3628 H3617 0.950 . S
C3628 C3626 1.391 . S
C3628 C3629 1.400 . S
C3629 C3623 1.491 . S
C3629 C3628 1.400 . S
C3629 C3630 1.398 . S
C3630 H3618 0.950 . S
C3630 C3629 1.398 . S
C3630 C3631 1.391 . S
C3631 H3619 0.950 . S
C3631 C3627 1.393 . S
C3631 C3630 1.391 . S
H3632 C3640 0.950 . S
H3633 C3645 0.950 . S
H3634 C3642 0.950 . S
H3635 C3644 0.950 . S
H3636 C3646 0.950 . S
H3637 C3648 0.950 . S
H3638 C3650 0.950 1_556 S
H3639 C3651 0.950 . S
C3640 H3632 0.950 . S
C3640 C3641 1.386 . S
C3640 C3642 1.391 . S
C3641 C3640 1.386 . S
C3641 C3645 1.393 . S
C3642 H3634 0.950 . S
C3642 C3640 1.391 . S
C3642 C3643 1.400 . S
C3643 C3642 1.400 . S
C3643 C3644 1.398 . S
C3643 C3649 1.491 1_556 S
C3644 H3635 0.950 . S
C3644 C3643 1.398 . S
C3644 C3645 1.391 . S
C3645 H3633 0.950 . S
C3645 C3641 1.393 . S
C3645 C3644 1.391 . S
C3646 H3636 0.950 . S
C3646 C3647 1.386 . S
C3646 C3648 1.391 . S
C3647 C3646 1.386 . S
C3647 C3651 1.393 . S
C3648 H3637 0.950 . S
C3648 C3646 1.391 . S
C3648 C3649 1.400 . S
C3649 C3643 1.491 1_554 S
C3649 C3648 1.400 . S
C3649 C3650 1.398 . S
C3650 H3638 0.950 1_554 S
C3650 C3649 1.398 . S
C3650 C3651 1.391 . S
C3651 H3639 0.950 . S
C3651 C3647 1.393 . S
C3651 C3650 1.391 . S
H3652 C3660 0.950 . S
H3653 C3665 0.950 . S
H3654 C3662 0.950 . S
H3655 C3664 0.950 . S
H3656 C3666 0.950 . S
H3657 C3668 0.950 . S
H3658 C3670 0.950 . S
H3659 C3671 0.950 . S
C3660 H3652 0.950 . S
C3660 C3661 1.386 . S
C3660 C3662 1.391 . S
C3661 C3660 1.386 . S
C3661 C3665 1.393 . S
C3662 H3654 0.950 . S
C3662 C3660 1.391 . S
C3662 C3663 1.400 . S
C3663 C3662 1.400 . S
C3663 C3664 1.398 . S
C3663 C3669 1.491 . S
C3664 H3655 0.950 . S
C3664 C3663 1.398 . S
C3664 C3665 1.391 . S
C3665 H3653 0.950 . S
C3665 C3661 1.393 . S
C3665 C3664 1.391 . S
C3666 H3656 0.950 . S
C3666 C3667 1.386 . S
C3666 C3668 1.391 . S
C3667 C3666 1.386 . S
C3667 C3671 1.393 . S
C3668 H3657 0.950 . S
C3668 C3666 1.391 . S
C3668 C3669 1.400 . S
C3669 C3663 1.491 . S
C3669 C3668 1.400 . S
C3669 C3670 1.398 . S
C3670 H3658 0.950 . S
C3670 C3669 1.398 . S
C3670 C3671 1.391 . S
C3671 H3659 0.950 . S
C3671 C3667 1.393 . S
C3671 C3670 1.391 . S
H3672 C3680 0.950 . S
H3673 C3685 0.950 . S
H3674 C3682 0.950 . S
H3675 C3684 0.950 . S
H3676 C3686 0.950 . S
H3677 C3688 0.950 . S
H3678 C3690 0.950 . S
H3679 C3691 0.950 . S
C3680 H3672 0.950 . S
C3680 C3681 1.386 . S
C3680 C3682 1.391 . S
C3681 C3680 1.386 . S
C3681 C3685 1.393 . S
C3682 H3674 0.950 . S
C3682 C3680 1.391 . S
C3682 C3683 1.400 . S
C3683 C3682 1.400 . S
C3683 C3684 1.398 . S
C3683 C3689 1.491 . S
C3684 H3675 0.950 . S
C3684 C3683 1.398 . S
C3684 C3685 1.391 . S
C3685 H3673 0.950 . S
C3685 C3681 1.393 . S
C3685 C3684 1.391 . S
C3686 H3676 0.950 . S
C3686 C3687 1.386 . S
C3686 C3688 1.391 . S
C3687 C3686 1.386 . S
C3687 C3691 1.393 . S
C3688 H3677 0.950 . S
C3688 C3686 1.391 . S
C3688 C3689 1.400 . S
C3689 C3683 1.491 . S
C3689 C3688 1.400 . S
C3689 C3690 1.398 . S
C3690 H3678 0.950 . S
C3690 C3689 1.398 . S
C3690 C3691 1.391 . S
C3691 H3679 0.950 . S
C3691 C3687 1.393 . S
C3691 C3690 1.391 . S
H3692 C3700 0.950 . S
H3693 C3705 0.950 . S
H3694 C3702 0.950 . S
H3695 C3704 0.950 . S
H3696 C3706 0.950 . S
H3697 C3708 0.950 . S
H3698 C3710 0.950 . S
H3699 C3711 0.950 . S
C3700 H3692 0.950 . S
C3700 C3701 1.386 . S
C3700 C3702 1.391 . S
C3701 C3700 1.386 . S
C3701 C3705 1.393 . S
C3702 H3694 0.950 . S
C3702 C3700 1.391 . S
C3702 C3703 1.400 . S
C3703 C3702 1.400 . S
C3703 C3704 1.398 . S
C3703 C3709 1.491 . S
C3704 H3695 0.950 . S
C3704 C3703 1.398 . S
C3704 C3705 1.391 . S
C3705 H3693 0.950 . S
C3705 C3701 1.393 . S
C3705 C3704 1.391 . S
C3706 H3696 0.950 . S
C3706 C3707 1.386 . S
C3706 C3708 1.391 . S
C3707 C3706 1.386 . S
C3707 C3711 1.393 . S
C3708 H3697 0.950 . S
C3708 C3706 1.391 . S
C3708 C3709 1.400 . S
C3709 C3703 1.491 . S
C3709 C3708 1.400 . S
C3709 C3710 1.398 . S
C3710 H3698 0.950 . S
C3710 C3709 1.398 . S
C3710 C3711 1.391 . S
C3711 H3699 0.950 . S
C3711 C3707 1.393 . S
C3711 C3710 1.391 . S
H3712 C3720 0.950 . S
H3713 C3725 0.950 . S
H3714 C3722 0.950 . S
H3715 C3724 0.950 . S
H3716 C3726 0.950 . S
H3717 C3728 0.950 . S
H3718 C3730 0.950 . S
H3719 C3731 0.950 . S
C3720 H3712 0.950 . S
C3720 C3721 1.386 . S
C3720 C3722 1.391 . S
C3721 C3720 1.386 . S
C3721 C3725 1.393 . S
C3722 H3714 0.950 . S
C3722 C3720 1.391 . S
C3722 C3723 1.400 . S
C3723 C3722 1.400 . S
C3723 C3724 1.398 . S
C3723 C3729 1.491 . S
C3724 H3715 0.950 . S
C3724 C3723 1.398 . S
C3724 C3725 1.391 . S
C3725 H3713 0.950 . S
C3725 C3721 1.393 . S
C3725 C3724 1.391 . S
C3726 H3716 0.950 . S
C3726 C3727 1.386 . S
C3726 C3728 1.391 . S
C3727 C3726 1.386 . S
C3727 C3731 1.393 . S
C3728 H3717 0.950 . S
C3728 C3726 1.391 . S
C3728 C3729 1.400 . S
C3729 C3723 1.491 . S
C3729 C3728 1.400 . S
C3729 C3730 1.398 . S
C3730 H3718 0.950 . S
C3730 C3729 1.398 . S
C3730 C3731 1.391 . S
C3731 H3719 0.950 . S
C3731 C3727 1.393 . S
C3731 C3730 1.391 . S
H3732 C3740 0.950 . S
H3733 C3745 0.950 . S
H3734 C3742 0.950 . S
H3735 C3744 0.950 . S
H3736 C3746 0.950 . S
H3737 C3748 0.950 . S
H3738 C3750 0.950 . S
H3739 C3751 0.950 . S
C3740 H3732 0.950 . S
C3740 C3741 1.386 . S
C3740 C3742 1.391 . S
C3741 C3740 1.386 . S
C3741 C3745 1.393 . S
C3742 H3734 0.950 . S
C3742 C3740 1.391 . S
C3742 C3743 1.400 . S
C3743 C3742 1.400 . S
C3743 C3744 1.398 . S
C3743 C3749 1.491 . S
C3744 H3735 0.950 . S
C3744 C3743 1.398 . S
C3744 C3745 1.391 . S
C3745 H3733 0.950 . S
C3745 C3741 1.393 . S
C3745 C3744 1.391 . S
C3746 H3736 0.950 . S
C3746 C3747 1.386 . S
C3746 C3748 1.391 . S
C3747 C3746 1.386 . S
C3747 C3751 1.393 . S
C3748 H3737 0.950 . S
C3748 C3746 1.391 . S
C3748 C3749 1.400 . S
C3749 C3743 1.491 . S
C3749 C3748 1.400 . S
C3749 C3750 1.398 . S
C3750 H3738 0.950 . S
C3750 C3749 1.398 . S
C3750 C3751 1.391 . S
C3751 H3739 0.950 . S
C3751 C3747 1.393 . S
C3751 C3750 1.391 . S
H3752 C3760 0.950 . S
H3753 C3765 0.950 . S
H3754 C3762 0.950 . S
H3755 C3764 0.950 . S
H3756 C3766 0.950 . S
H3757 C3768 0.950 . S
H3758 C3770 0.950 . S
H3759 C3771 0.950 . S
C3760 H3752 0.950 . S
C3760 C3761 1.386 . S
C3760 C3762 1.391 . S
C3761 C3760 1.386 . S
C3761 C3765 1.393 . S
C3762 H3754 0.950 . S
C3762 C3760 1.391 . S
C3762 C3763 1.400 . S
C3763 C3762 1.400 . S
C3763 C3764 1.398 . S
C3763 C3769 1.491 . S
C3764 H3755 0.950 . S
C3764 C3763 1.398 . S
C3764 C3765 1.391 . S
C3765 H3753 0.950 . S
C3765 C3761 1.393 . S
C3765 C3764 1.391 . S
C3766 H3756 0.950 . S
C3766 C3767 1.386 . S
C3766 C3768 1.391 . S
C3767 C3766 1.386 . S
C3767 C3771 1.393 . S
C3768 H3757 0.950 . S
C3768 C3766 1.391 . S
C3768 C3769 1.400 . S
C3769 C3763 1.491 . S
C3769 C3768 1.400 . S
C3769 C3770 1.398 . S
C3770 H3758 0.950 . S
C3770 C3769 1.398 . S
C3770 C3771 1.391 . S
C3771 H3759 0.950 . S
C3771 C3767 1.393 . S
C3771 C3770 1.391 . S
H3772 C3780 0.950 . S
H3773 C3785 0.950 . S
H3774 C3782 0.950 . S
H3775 C3784 0.950 . S
H3776 C3786 0.950 . S
H3777 C3788 0.950 . S
H3778 C3790 0.950 . S
H3779 C3791 0.950 . S
C3780 H3772 0.950 . S
C3780 C3781 1.386 . S
C3780 C3782 1.391 . S
C3781 C3780 1.386 . S
C3781 C3785 1.393 . S
C3782 H3774 0.950 . S
C3782 C3780 1.391 . S
C3782 C3783 1.400 . S
C3783 C3782 1.400 . S
C3783 C3784 1.398 . S
C3783 C3789 1.491 . S
C3784 H3775 0.950 . S
C3784 C3783 1.398 . S
C3784 C3785 1.391 . S
C3785 H3773 0.950 . S
C3785 C3781 1.393 . S
C3785 C3784 1.391 . S
C3786 H3776 0.950 . S
C3786 C3787 1.386 . S
C3786 C3788 1.391 . S
C3787 C3786 1.386 . S
C3787 C3791 1.393 . S
C3788 H3777 0.950 . S
C3788 C3786 1.391 . S
C3788 C3789 1.400 . S
C3789 C3783 1.491 . S
C3789 C3788 1.400 . S
C3789 C3790 1.398 . S
C3790 H3778 0.950 . S
C3790 C3789 1.398 . S
C3790 C3791 1.391 . S
C3791 H3779 0.950 . S
C3791 C3787 1.393 . S
C3791 C3790 1.391 . S
H3792 C3800 0.950 . S
H3793 C3805 0.950 . S
H3794 C3802 0.950 . S
H3795 C3804 0.950 . S
H3796 C3806 0.950 . S
H3797 C3808 0.950 . S
H3798 C3810 0.950 . S
H3799 C3811 0.950 . S
C3800 H3792 0.950 . S
C3800 C3801 1.386 . S
C3800 C3802 1.391 . S
C3801 C3800 1.386 . S
C3801 C3805 1.393 . S
C3802 H3794 0.950 . S
C3802 C3800 1.391 . S
C3802 C3803 1.400 . S
C3803 C3802 1.400 . S
C3803 C3804 1.398 . S
C3803 C3809 1.491 . S
C3804 H3795 0.950 . S
C3804 C3803 1.398 . S
C3804 C3805 1.391 . S
C3805 H3793 0.950 . S
C3805 C3801 1.393 . S
C3805 C3804 1.391 . S
C3806 H3796 0.950 . S
C3806 C3807 1.386 . S
C3806 C3808 1.391 . S
C3807 C3806 1.386 . S
C3807 C3811 1.393 . S
C3808 H3797 0.950 . S
C3808 C3806 1.391 . S
C3808 C3809 1.400 . S
C3809 C3803 1.491 . S
C3809 C3808 1.400 . S
C3809 C3810 1.398 . S
C3810 H3798 0.950 . S
C3810 C3809 1.398 . S
C3810 C3811 1.391 . S
C3811 H3799 0.950 . S
C3811 C3807 1.393 . S
C3811 C3810 1.391 . S
H3812 C3820 0.950 . S
H3813 C3825 0.950 . S
H3814 C3822 0.950 . S
H3815 C3824 0.950 . S
H3816 C3826 0.950 . S
H3817 C3828 0.950 . S
H3818 C3830 0.950 . S
H3819 C3831 0.950 . S
C3820 H3812 0.950 . S
C3820 C3821 1.386 . S
C3820 C3822 1.391 . S
C3821 C3820 1.386 . S
C3821 C3825 1.393 . S
C3822 H3814 0.950 . S
C3822 C3820 1.391 . S
C3822 C3823 1.400 . S
C3823 C3822 1.400 . S
C3823 C3824 1.398 . S
C3823 C3829 1.491 . S
C3824 H3815 0.950 . S
C3824 C3823 1.398 . S
C3824 C3825 1.391 . S
C3825 H3813 0.950 . S
C3825 C3821 1.393 . S
C3825 C3824 1.391 . S
C3826 H3816 0.950 . S
C3826 C3827 1.386 . S
C3826 C3828 1.391 . S
C3827 C3826 1.386 . S
C3827 C3831 1.393 . S
C3828 H3817 0.950 . S
C3828 C3826 1.391 . S
C3828 C3829 1.400 . S
C3829 C3823 1.491 . S
C3829 C3828 1.400 . S
C3829 C3830 1.398 . S
C3830 H3818 0.950 . S
C3830 C3829 1.398 . S
C3830 C3831 1.391 . S
C3831 H3819 0.950 . S
C3831 C3827 1.393 . S
C3831 C3830 1.391 . S
H3832 C3840 0.950 . S
H3833 C3845 0.950 . S
H3834 C3842 0.950 . S
H3835 C3844 0.950 . S
H3836 C3846 0.950 . S
H3837 C3848 0.950 . S
H3838 C3850 0.950 . S
H3839 C3851 0.950 . S
C3840 H3832 0.950 . S
C3840 C3841 1.386 . S
C3840 C3842 1.391 . S
C3841 C3840 1.386 . S
C3841 C3845 1.393 . S
C3842 H3834 0.950 . S
C3842 C3840 1.391 . S
C3842 C3843 1.400 . S
C3843 C3842 1.400 . S
C3843 C3844 1.398 . S
C3843 C3849 1.491 1_655 S
C3844 H3835 0.950 . S
C3844 C3843 1.398 . S
C3844 C3845 1.391 . S
C3845 H3833 0.950 . S
C3845 C3841 1.393 . S
C3845 C3844 1.391 . S
C3846 H3836 0.950 . S
C3846 C3847 1.386 . S
C3846 C3848 1.391 . S
C3847 C3846 1.386 . S
C3847 C3851 1.393 . S
C3848 H3837 0.950 . S
C3848 C3846 1.391 . S
C3848 C3849 1.400 . S
C3849 C3843 1.491 1_455 S
C3849 C3848 1.400 . S
C3849 C3850 1.398 . S
C3850 H3838 0.950 . S
C3850 C3849 1.398 . S
C3850 C3851 1.391 . S
C3851 H3839 0.950 . S
C3851 C3847 1.393 . S
C3851 C3850 1.391 . S
H3852 C3860 0.950 . S
H3853 C3865 0.950 . S
H3854 C3862 0.950 . S
H3855 C3864 0.950 . S
H3856 C3866 0.950 . S
H3857 C3868 0.950 . S
H3858 C3870 0.950 . S
H3859 C3871 0.950 . S
C3860 H3852 0.950 . S
C3860 C3861 1.386 . S
C3860 C3862 1.391 . S
C3861 C3860 1.386 . S
C3861 C3865 1.393 . S
C3862 H3854 0.950 . S
C3862 C3860 1.391 . S
C3862 C3863 1.400 . S
C3863 C3862 1.400 . S
C3863 C3864 1.398 . S
C3863 C3869 1.491 . S
C3864 H3855 0.950 . S
C3864 C3863 1.398 . S
C3864 C3865 1.391 . S
C3865 H3853 0.950 . S
C3865 C3861 1.393 . S
C3865 C3864 1.391 . S
C3866 H3856 0.950 . S
C3866 C3867 1.386 . S
C3866 C3868 1.391 . S
C3867 C3866 1.386 . S
C3867 C3871 1.393 . S
C3868 H3857 0.950 . S
C3868 C3866 1.391 . S
C3868 C3869 1.400 . S
C3869 C3863 1.491 . S
C3869 C3868 1.400 . S
C3869 C3870 1.398 . S
C3870 H3858 0.950 . S
C3870 C3869 1.398 . S
C3870 C3871 1.391 . S
C3871 H3859 0.950 . S
C3871 C3867 1.393 . S
C3871 C3870 1.391 . S
H3872 C3880 0.950 . S
H3873 C3885 0.950 . S
H3874 C3882 0.950 . S
H3875 C3884 0.950 . S
H3876 C3886 0.950 . S
H3877 C3888 0.950 . S
H3878 C3890 0.950 . S
H3879 C3891 0.950 . S
C3880 H3872 0.950 . S
C3880 C3881 1.386 . S
C3880 C3882 1.391 . S
C3881 C3880 1.386 . S
C3881 C3885 1.393 . S
C3882 H3874 0.950 . S
C3882 C3880 1.391 . S
C3882 C3883 1.400 . S
C3883 C3882 1.400 . S
C3883 C3884 1.398 . S
C3883 C3889 1.491 . S
C3884 H3875 0.950 . S
C3884 C3883 1.398 . S
C3884 C3885 1.391 . S
C3885 H3873 0.950 . S
C3885 C3881 1.393 . S
C3885 C3884 1.391 . S
C3886 H3876 0.950 . S
C3886 C3887 1.386 . S
C3886 C3888 1.391 . S
C3887 C3886 1.386 . S
C3887 C3891 1.393 . S
C3888 H3877 0.950 . S
C3888 C3886 1.391 . S
C3888 C3889 1.400 . S
C3889 C3883 1.491 . S
C3889 C3888 1.400 . S
C3889 C3890 1.398 . S
C3890 H3878 0.950 . S
C3890 C3889 1.398 . S
C3890 C3891 1.391 . S
C3891 H3879 0.950 . S
C3891 C3887 1.393 . S
C3891 C3890 1.391 . S
H3892 C3900 0.950 . S
H3893 C3905 0.950 . S
H3894 C3902 0.950 . S
H3895 C3904 0.950 . S
H3896 C3906 0.950 . S
H3897 C3908 0.950 . S
H3898 C3910 0.950 . S
H3899 C3911 0.950 . S
C3900 H3892 0.950 . S
C3900 C3901 1.386 . S
C3900 C3902 1.391 . S
C3901 C3900 1.386 . S
C3901 C3905 1.393 . S
C3902 H3894 0.950 . S
C3902 C3900 1.391 . S
C3902 C3903 1.400 . S
C3903 C3902 1.400 . S
C3903 C3904 1.398 . S
C3903 C3909 1.491 . S
C3904 H3895 0.950 . S
C3904 C3903 1.398 . S
C3904 C3905 1.391 . S
C3905 H3893 0.950 . S
C3905 C3901 1.393 . S
C3905 C3904 1.391 . S
C3906 H3896 0.950 . S
C3906 C3907 1.386 . S
C3906 C3908 1.391 . S
C3907 C3906 1.386 . S
C3907 C3911 1.393 . S
C3908 H3897 0.950 . S
C3908 C3906 1.391 . S
C3908 C3909 1.400 . S
C3909 C3903 1.491 . S
C3909 C3908 1.400 . S
C3909 C3910 1.398 . S
C3910 H3898 0.950 . S
C3910 C3909 1.398 . S
C3910 C3911 1.391 . S
C3911 H3899 0.950 . S
C3911 C3907 1.393 . S
C3911 C3910 1.391 . S
H3912 C3920 0.950 . S
H3913 C3925 0.950 . S
H3914 C3922 0.950 . S
H3915 C3924 0.950 . S
H3916 C3926 0.950 . S
H3917 C3928 0.950 . S
H3918 C3930 0.950 . S
H3919 C3931 0.950 . S
C3920 H3912 0.950 . S
C3920 C3921 1.386 . S
C3920 C3922 1.391 . S
C3921 C3920 1.386 . S
C3921 C3925 1.393 . S
C3922 H3914 0.950 . S
C3922 C3920 1.391 . S
C3922 C3923 1.400 . S
C3923 C3922 1.400 . S
C3923 C3924 1.398 . S
C3923 C3929 1.491 . S
C3924 H3915 0.950 . S
C3924 C3923 1.398 . S
C3924 C3925 1.391 . S
C3925 H3913 0.950 . S
C3925 C3921 1.393 . S
C3925 C3924 1.391 . S
C3926 H3916 0.950 . S
C3926 C3927 1.386 . S
C3926 C3928 1.391 . S
C3927 C3926 1.386 . S
C3927 C3931 1.393 . S
C3928 H3917 0.950 . S
C3928 C3926 1.391 . S
C3928 C3929 1.400 . S
C3929 C3923 1.491 . S
C3929 C3928 1.400 . S
C3929 C3930 1.398 . S
C3930 H3918 0.950 . S
C3930 C3929 1.398 . S
C3930 C3931 1.391 . S
C3931 H3919 0.950 . S
C3931 C3927 1.393 . S
C3931 C3930 1.391 . S
H3932 C3940 0.950 . S
H3933 C3945 0.950 . S
H3934 C3942 0.950 . S
H3935 C3944 0.950 . S
H3936 C3946 0.950 . S
H3937 C3948 0.950 . S
H3938 C3950 0.950 . S
H3939 C3951 0.950 . S
C3940 H3932 0.950 . S
C3940 C3941 1.386 . S
C3940 C3942 1.391 . S
C3941 C3940 1.386 . S
C3941 C3945 1.393 . S
C3942 H3934 0.950 . S
C3942 C3940 1.391 . S
C3942 C3943 1.400 . S
C3943 C3942 1.400 . S
C3943 C3944 1.398 . S
C3943 C3949 1.491 . S
C3944 H3935 0.950 . S
C3944 C3943 1.398 . S
C3944 C3945 1.391 . S
C3945 H3933 0.950 . S
C3945 C3941 1.393 . S
C3945 C3944 1.391 . S
C3946 H3936 0.950 . S
C3946 C3947 1.386 . S
C3946 C3948 1.391 . S
C3947 C3946 1.386 . S
C3947 C3951 1.393 . S
C3948 H3937 0.950 . S
C3948 C3946 1.391 . S
C3948 C3949 1.400 . S
C3949 C3943 1.491 . S
C3949 C3948 1.400 . S
C3949 C3950 1.398 . S
C3950 H3938 0.950 . S
C3950 C3949 1.398 . S
C3950 C3951 1.391 . S
C3951 H3939 0.950 . S
C3951 C3947 1.393 . S
C3951 C3950 1.391 . S
H3952 C3960 0.950 . S
H3953 C3965 0.950 . S
H3954 C3962 0.950 . S
H3955 C3964 0.950 . S
H3956 C3966 0.950 . S
H3957 C3968 0.950 . S
H3958 C3970 0.950 . S
H3959 C3971 0.950 . S
C3960 H3952 0.950 . S
C3960 C3961 1.386 . S
C3960 C3962 1.391 . S
C3961 C3960 1.386 . S
C3961 C3965 1.393 . S
C3962 H3954 0.950 . S
C3962 C3960 1.391 . S
C3962 C3963 1.400 . S
C3963 C3962 1.400 . S
C3963 C3964 1.398 . S
C3963 C3969 1.491 . S
C3964 H3955 0.950 . S
C3964 C3963 1.398 . S
C3964 C3965 1.391 . S
C3965 H3953 0.950 . S
C3965 C3961 1.393 . S
C3965 C3964 1.391 . S
C3966 H3956 0.950 . S
C3966 C3967 1.386 . S
C3966 C3968 1.391 . S
C3967 C3966 1.386 . S
C3967 C3971 1.393 . S
C3968 H3957 0.950 . S
C3968 C3966 1.391 . S
C3968 C3969 1.400 . S
C3969 C3963 1.491 . S
C3969 C3968 1.400 . S
C3969 C3970 1.398 . S
C3970 H3958 0.950 . S
C3970 C3969 1.398 . S
C3970 C3971 1.391 . S
C3971 H3959 0.950 . S
C3971 C3967 1.393 . S
C3971 C3970 1.391 . S
H3972 C3980 0.950 . S
H3973 C3985 0.950 . S
H3974 C3982 0.950 . S
H3975 C3984 0.950 . S
H3976 C3986 0.950 . S
H3977 C3988 0.950 . S
H3978 C3990 0.950 . S
H3979 C3991 0.950 . S
C3980 H3972 0.950 . S
C3980 C3981 1.386 . S
C3980 C3982 1.391 . S
C3981 C3980 1.386 . S
C3981 C3985 1.393 . S
C3982 H3974 0.950 . S
C3982 C3980 1.391 . S
C3982 C3983 1.400 . S
C3983 C3982 1.400 . S
C3983 C3984 1.398 . S
C3983 C3989 1.491 . S
C3984 H3975 0.950 . S
C3984 C3983 1.398 . S
C3984 C3985 1.391 . S
C3985 H3973 0.950 . S
C3985 C3981 1.393 . S
C3985 C3984 1.391 . S
C3986 H3976 0.950 . S
C3986 C3987 1.386 . S
C3986 C3988 1.391 . S
C3987 C3986 1.386 . S
C3987 C3991 1.393 . S
C3988 H3977 0.950 . S
C3988 C3986 1.391 . S
C3988 C3989 1.400 . S
C3989 C3983 1.491 . S
C3989 C3988 1.400 . S
C3989 C3990 1.398 . S
C3990 H3978 0.950 . S
C3990 C3989 1.398 . S
C3990 C3991 1.391 . S
C3991 H3979 0.950 . S
C3991 C3987 1.393 . S
C3991 C3990 1.391 . S
H3992 C4000 0.950 . S
H3993 C4005 0.950 . S
H3994 C4002 0.950 . S
H3995 C4004 0.950 . S
H3996 C4006 0.950 . S
H3997 C4008 0.950 . S
H3998 C4010 0.950 . S
H3999 C4011 0.950 . S
C4000 H3992 0.950 . S
C4000 C4001 1.386 . S
C4000 C4002 1.391 . S
C4001 C4000 1.386 . S
C4001 C4005 1.393 . S
C4002 H3994 0.950 . S
C4002 C4000 1.391 . S
C4002 C4003 1.400 . S
C4003 C4002 1.400 . S
C4003 C4004 1.398 . S
C4003 C4009 1.491 . S
C4004 H3995 0.950 . S
C4004 C4003 1.398 . S
C4004 C4005 1.391 . S
C4005 H3993 0.950 . S
C4005 C4001 1.393 . S
C4005 C4004 1.391 . S
C4006 H3996 0.950 . S
C4006 C4007 1.386 . S
C4006 C4008 1.391 . S
C4007 C4006 1.386 . S
C4007 C4011 1.393 . S
C4008 H3997 0.950 . S
C4008 C4006 1.391 . S
C4008 C4009 1.400 . S
C4009 C4003 1.491 . S
C4009 C4008 1.400 . S
C4009 C4010 1.398 . S
C4010 H3998 0.950 . S
C4010 C4009 1.398 . S
C4010 C4011 1.391 . S
C4011 H3999 0.950 . S
C4011 C4007 1.393 . S
C4011 C4010 1.391 . S
H4012 C4020 0.950 . S
H4013 C4025 0.950 . S
H4014 C4022 0.950 . S
H4015 C4024 0.950 . S
H4016 C4026 0.950 . S
H4017 C4028 0.950 . S
H4018 C4030 0.950 . S
H4019 C4031 0.950 . S
C4020 H4012 0.950 . S
C4020 C4021 1.386 . S
C4020 C4022 1.391 . S
C4021 C4020 1.386 . S
C4021 C4025 1.393 . S
C4022 H4014 0.950 . S
C4022 C4020 1.391 . S
C4022 C4023 1.400 . S
C4023 C4022 1.400 . S
C4023 C4024 1.398 . S
C4023 C4029 1.491 . S
C4024 H4015 0.950 . S
C4024 C4023 1.398 . S
C4024 C4025 1.391 . S
C4025 H4013 0.950 . S
C4025 C4021 1.393 . S
C4025 C4024 1.391 . S
C4026 H4016 0.950 . S
C4026 C4027 1.386 . S
C4026 C4028 1.391 . S
C4027 C4026 1.386 . S
C4027 C4031 1.393 . S
C4028 H4017 0.950 . S
C4028 C4026 1.391 . S
C4028 C4029 1.400 . S
C4029 C4023 1.491 . S
C4029 C4028 1.400 . S
C4029 C4030 1.398 . S
C4030 H4018 0.950 . S
C4030 C4029 1.398 . S
C4030 C4031 1.391 . S
C4031 H4019 0.950 . S
C4031 C4027 1.393 . S
C4031 C4030 1.391 . S
C1161 C491 1.509 . S
C1167 C537 1.630 . S
C1181 C271 1.549 . S
C1187 C550 1.562 . S
C1207 C563 1.446 . S
C1201 C513 1.385 . S
C1221 C293 1.552 . S
C1227 C576 1.590 . S
C1241 C524 1.614 . S
C1247 C589 1.630 . S
C1261 C260 1.538 . S
C1267 C602 1.651 . S
C1281 C502 1.545 . S
C1287 C615 1.565 . S
C1301 C282 1.406 . S
C1307 C628 1.428 . S
C1321 C183 1.580 . S
C1327 C641 1.645 . S
C1341 C447 1.491 . S
C1347 C654 1.511 . S
C1361 C205 1.458 . S
C1367 C667 1.535 . S
C1381 C436 1.481 . S
C1387 C680 1.506 . S
C1401 C249 1.517 . S
C1407 C693 1.529 . S
C1427 C706 1.674 . S
C1421 C458 1.598 . S
C1447 C719 1.628 . S
C1441 C227 1.569 . S
C1461 C315 1.434 . S
C1467 C732 1.460 . S
C1487 C745 1.678 . S
C1481 C216 1.619 . S
C1507 C758 1.612 . S
C1501 C469 1.565 . S
C1521 C238 1.414 . S
C1527 C771 1.434 . S
C1541 C326 1.463 . S
C1547 C784 1.547 . S
C1567 C797 1.585 . S
C1561 C304 1.519 . S
C1581 C392 1.457 . S
C1587 C810 1.468 . S
C1607 C823 1.644 . S
C1601 C106 1.595 . S
C1627 C836 1.634 . S
C1621 C414 1.564 . S
C1647 C849 1.608 . S
C1641 C128 1.588 . S
C1667 C862 1.605 . S
C1661 C425 1.583 . S
C1681 C95 1.458 . S
C1687 C875 1.466 . S
C1707 C888 1.563 . S
C1701 C403 1.516 . S
C1721 C117 1.537 . S
C1727 C901 1.635 . S
C1747 C914 1.604 . S
C1741 C18 1.593 . S
C1767 C927 1.608 . S
C1761 C348 1.580 . S
C1781 C40 1.463 . S
C1787 C940 1.531 . S
C1807 C953 1.449 . S
C1801 C337 1.427 . S
C1827 C966 1.467 . S
C1821 C84 1.394 . S
C1841 C359 1.550 . S
C1847 C979 1.552 . S
C1867 C992 1.478 . S
C1861 C62 1.482 . S
C1887 C1005 1.564 . S
C1881 C150 1.479 . S
C1901 C51 1.600 . S
C1907 C1018 1.609 . S
C1927 C1031 1.510 . S
C1921 C370 1.523 . S
C1941 C73 1.472 . S
C1947 C1044 1.557 . S
C1967 C1057 1.493 . S
C1961 C161 1.441 . S
C1981 C139 1.590 . S
C1987 C1070 1.597 . S
C2001 C194 1.440 . S
C2007 C1083 1.449 . S
C2027 C1096 1.509 . S
C2021 C172 1.493 . S
C2041 C480 1.522 . S
C2047 C1109 1.533 . S
C2061 C29 1.583 . S
C2067 C1122 1.608 . S
C2087 C1135 1.454 . S
C2081 C7 1.425 . S
C2107 C1148 1.462 . S
C2101 C381 1.420 . S
C2121 C368 1.462 1_554 S
C2127 C536 1.588 . S
C2141 C151 1.551 . S
C2147 C549 1.593 . S
C2161 C379 1.251 . S
C2167 C558 1.471 . S
C2187 C575 1.541 . S
C2181 C360 1.539 . S
C2201 C159 1.326 . S
C2207 C584 1.524 . S
C2221 C338 1.448 . S
C2227 C597 1.392 . S
C2247 C610 1.621 . S
C2241 C140 1.658 1_556 S
C2261 C346 1.384 . S
C2267 C627 1.515 . S
C2281 C349 1.604 . S
C2287 C640 1.584 . S
C2307 C649 1.440 . S
C2301 C162 1.490 . S
C2321 C335 1.238 . S
C2327 C662 1.325 . S
C2347 C675 1.499 . S
C2341 C137 1.546 . S
C2361 C148 1.188 1_455 S
C2367 C688 1.524 . S
C2381 C382 1.593 . S
C2387 C705 1.620 . S
C2407 C714 1.535 . S
C2401 C357 1.521 . S
C2427 C731 1.556 . S
C2421 C371 1.569 . S
C2441 C129 1.615 . S
C2447 C679 1.606 . S
C2461 C393 1.530 . S
C2467 C740 1.503 . S
C2481 C401 1.390 . S
C2487 C757 1.655 . S
C2507 C766 1.385 . S
C2501 C412 1.139 . S
C2527 C692 1.521 . S
C2521 C126 1.396 . S
C2541 C107 1.541 . S
C2547 C653 1.562 . S
C2561 C415 1.419 . S
C2567 C783 1.474 . S
C2587 C792 1.493 . S
C2581 C390 1.555 . S
C2607 C809 1.505 . S
C2601 C467 1.213 . S
C2621 C316 1.485 . S
C2627 C822 1.478 . S
C2647 C831 1.511 . S
C2641 C478 1.390 . S
C2667 C848 1.696 . S
C2661 C459 1.637 . S
C2681 C324 1.286 . S
C2687 C857 1.593 . S
C2701 C434 1.270 . S
C2707 C870 1.405 . S
C2721 C305 1.451 1_554 S
C2727 C883 1.436 . S
C2747 C900 1.631 . S
C2741 C448 1.630 . S
C2767 C913 1.619 . S
C2761 C445 1.450 1_655 S
C2781 C327 1.518 . S
C2787 C922 1.520 . S
C2807 C939 1.406 . S
C2801 C437 1.402 . S
C2821 C302 1.204 . S
C2827 C948 1.418 . S
C2847 C961 1.359 . S
C2841 C313 1.224 . S
C2861 C481 1.531 . S
C2867 C978 1.517 . S
C2887 C987 1.576 . S
C2881 C456 1.295 . S
C2901 C470 1.474 . S
C2907 C1000 1.434 . S
C2921 C294 1.512 . S
C2927 C952 1.511 . S
C2941 C492 1.577 . S
C2947 C1013 1.585 . S
C2961 C500 1.383 . S
C2967 C1030 1.567 . S
C2987 C1043 1.416 . S
C2981 C514 1.404 . S
C3001 C291 1.296 . S
C3007 C965 1.522 . S
C3021 C272 1.539 1_545 S
C3027 C926 1.535 . S
C3047 C1052 1.364 . S
C3041 C511 1.125 . S
C3061 C489 1.291 . S
C3067 C1065 1.668 . S
C3087 C601 1.576 . S
C3081 C60 1.407 . S
C3107 C614 1.596 . S
C3101 C74 1.543 . S
C3127 C623 1.466 . S
C3121 C82 1.240 . S
C3147 C588 1.612 . S
C3141 C52 1.630 . S
C3167 C571 1.531 . S
C3161 C38 1.305 . S
C3181 C8 1.444 . S
C3187 C532 1.365 . S
C3201 C19 1.653 . S
C3207 C545 1.632 . S
C3221 C27 1.357 . S
C3227 C562 1.508 . S
C3241 C30 1.566 . S
C3247 C796 1.536 . S
C3261 C41 1.479 . S
C3267 C1078 1.446 . S
C3281 C5 1.249 . S
C3287 C779 1.297 . S
C3301 C16 1.531 . S
C3307 C1091 1.497 . S
C3321 C71 1.266 . S
C3327 C1104 1.537 . S
C3347 C744 1.576 . S
C3341 C85 1.553 . S
C3361 C49 1.508 . S
C3367 C753 1.552 . S
C3381 C63 1.520 . S
C3387 C770 1.517 . S
C3407 C1095 1.577 . S
C3401 C426 1.590 . S
C3421 C96 1.563 . S
C3427 C701 1.535 . S
C3441 C104 1.401 . S
C3447 C718 1.692 . S
C3461 C115 1.161 . S
C3467 C727 1.412 . S
C3487 C1108 1.529 . S
C3481 C423 1.378 . S
C3507 C1082 1.528 . S
C3501 C404 1.517 . S
C3527 C666 1.476 . S
C3521 C118 1.443 . S
C3541 C93 1.557 . S
C3547 C636 1.563 . S
C3561 C225 1.238 . S
C3567 C874 1.525 . S
C3581 C239 1.428 . S
C3587 C887 1.417 . S
C3601 C247 1.352 . S
C3607 C896 1.482 . S
C3621 C217 1.641 . S
C3627 C861 1.702 . S
C3647 C844 1.605 . S
C3641 C203 1.315 . S
C3667 C805 1.402 . S
C3661 C170 1.266 . S
C3687 C818 1.426 . S
C3681 C184 1.480 . S
C3701 C195 1.626 . S
C3707 C835 1.610 . S
C3727 C1069 1.590 . S
C3721 C192 1.463 . S
C3741 C206 1.545 . S
C3747 C1117 1.525 . S
C3761 C173 1.407 . S
C3767 C1056 1.388 . S
C3787 C1130 1.446 . S
C3781 C181 1.252 . S
C3801 C236 1.152 . S
C3807 C1143 1.312 . S
C3827 C1017 1.548 . S
C3821 C250 1.559 . S
C3841 C214 1.329 . S
C3847 C1026 1.584 . S
C3861 C228 1.471 . S
C3867 C1039 1.451 . S
C3881 C522 1.349 . S
C3887 C1134 1.570 . S
C3907 C974 1.539 . S
C3901 C261 1.580 . S
C3921 C269 1.385 . S
C3927 C991 1.556 . S
C3941 C283 1.367 . S
C3947 C1004 1.395 . S
C3961 C525 1.462 . S
C3967 C1147 1.457 . S
C3981 C503 1.541 . S
C3987 C1121 1.536 . S
C4007 C935 1.302 . S
C4001 C280 1.091 . S
C4027 C909 1.684 . S
C4021 C258 1.339 . S
