# Generated by pormake.
# Topology ptr, (4,4)-cn, num edge types: 1
# Building blocks:
#     Node 0, Type 0, BuildingBlock: GALJAG_clean_sbu_0, # of connection points: 4
#     Node 1, Type 0, BuildingBlock: GALJAG_clean_sbu_0, # of connection points: 4
#     Node 2, Type 0, BuildingBlock: GALJAG_clean_sbu_0, # of connection points: 4
#     Node 3, Type 0, BuildingBlock: GALJAG_clean_sbu_0, # of connection points: 4
#     Node 4, Type 0, BuildingBlock: GALJAG_clean_sbu_0, # of connection points: 4
#     Node 5, Type 0, BuildingBlock: GALJAG_clean_sbu_0, # of connection points: 4
#     Node 6, Type 0, BuildingBlock: GALJAG_clean_sbu_0, # of connection points: 4
#     Node 7, Type 0, BuildingBlock: GALJAG_clean_sbu_0, # of connection points: 4
#     Node 8, Type 0, BuildingBlock: GALJAG_clean_sbu_0, # of connection points: 4
#     Node 9, Type 0, BuildingBlock: GALJAG_clean_sbu_0, # of connection points: 4
#     Node 10, Type 0, BuildingBlock: GALJAG_clean_sbu_0, # of connection points: 4
#     Node 11, Type 0, BuildingBlock: GALJAG_clean_sbu_0, # of connection points: 4
#     Node 12, Type 0, BuildingBlock: GALJAG_clean_sbu_0, # of connection points: 4
#     Node 13, Type 0, BuildingBlock: GALJAG_clean_sbu_0, # of connection points: 4
#     Node 14, Type 0, BuildingBlock: GALJAG_clean_sbu_0, # of connection points: 4
#     Node 15, Type 0, BuildingBlock: GALJAG_clean_sbu_0, # of connection points: 4
#     Node 16, Type 0, BuildingBlock: GALJAG_clean_sbu_0, # of connection points: 4
#     Node 17, Type 0, BuildingBlock: GALJAG_clean_sbu_0, # of connection points: 4
#     Node 18, Type 1, BuildingBlock: MUDLON_clean_linker_0, # of connection points: 4
#     Node 19, Type 1, BuildingBlock: MUDLON_clean_linker_0, # of connection points: 4
#     Node 20, Type 1, BuildingBlock: MUDLON_clean_linker_0, # of connection points: 4
#     Node 21, Type 1, BuildingBlock: MUDLON_clean_linker_0, # of connection points: 4
#     Node 22, Type 1, BuildingBlock: MUDLON_clean_linker_0, # of connection points: 4
#     Node 23, Type 1, BuildingBlock: MUDLON_clean_linker_0, # of connection points: 4
#     Node 24, Type 1, BuildingBlock: MUDLON_clean_linker_0, # of connection points: 4
#     Node 25, Type 1, BuildingBlock: MUDLON_clean_linker_0, # of connection points: 4
#     Node 26, Type 1, BuildingBlock: MUDLON_clean_linker_0, # of connection points: 4
#     Node 27, Type 1, BuildingBlock: MUDLON_clean_linker_0, # of connection points: 4
#     Node 28, Type 1, BuildingBlock: MUDLON_clean_linker_0, # of connection points: 4
#     Node 29, Type 1, BuildingBlock: MUDLON_clean_linker_0, # of connection points: 4
#     Node 30, Type 1, BuildingBlock: MUDLON_clean_linker_0, # of connection points: 4
#     Node 31, Type 1, BuildingBlock: MUDLON_clean_linker_0, # of connection points: 4
#     Node 32, Type 1, BuildingBlock: MUDLON_clean_linker_0, # of connection points: 4
#     Node 33, Type 1, BuildingBlock: MUDLON_clean_linker_0, # of connection points: 4
#     Node 34, Type 1, BuildingBlock: MUDLON_clean_linker_0, # of connection points: 4
#     Node 35, Type 1, BuildingBlock: MUDLON_clean_linker_0, # of connection points: 4
#     Edge 36, Type (0, 1), BuildingBlock: TEMPAE_clean_linker_10, # of connection points: 2
#     Edge 37, Type (0, 1), BuildingBlock: TEMPAE_clean_linker_10, # of connection points: 2
#     Edge 38, Type (0, 1), BuildingBlock: TEMPAE_clean_linker_10, # of connection points: 2
#     Edge 39, Type (0, 1), BuildingBlock: TEMPAE_clean_linker_10, # of connection points: 2
#     Edge 40, Type (0, 1), BuildingBlock: TEMPAE_clean_linker_10, # of connection points: 2
#     Edge 41, Type (0, 1), BuildingBlock: TEMPAE_clean_linker_10, # of connection points: 2
#     Edge 42, Type (0, 1), BuildingBlock: TEMPAE_clean_linker_10, # of connection points: 2
#     Edge 43, Type (0, 1), BuildingBlock: TEMPAE_clean_linker_10, # of connection points: 2
#     Edge 44, Type (0, 1), BuildingBlock: TEMPAE_clean_linker_10, # of connection points: 2
#     Edge 45, Type (0, 1), BuildingBlock: TEMPAE_clean_linker_10, # of connection points: 2
#     Edge 46, Type (0, 1), BuildingBlock: TEMPAE_clean_linker_10, # of connection points: 2
#     Edge 47, Type (0, 1), BuildingBlock: TEMPAE_clean_linker_10, # of connection points: 2
#     Edge 48, Type (0, 1), BuildingBlock: TEMPAE_clean_linker_10, # of connection points: 2
#     Edge 49, Type (0, 1), BuildingBlock: TEMPAE_clean_linker_10, # of connection points: 2
#     Edge 50, Type (0, 1), BuildingBlock: TEMPAE_clean_linker_10, # of connection points: 2
#     Edge 51, Type (0, 1), BuildingBlock: TEMPAE_clean_linker_10, # of connection points: 2
#     Edge 52, Type (0, 1), BuildingBlock: TEMPAE_clean_linker_10, # of connection points: 2
#     Edge 53, Type (0, 1), BuildingBlock: TEMPAE_clean_linker_10, # of connection points: 2
#     Edge 54, Type (0, 1), BuildingBlock: TEMPAE_clean_linker_10, # of connection points: 2
#     Edge 55, Type (0, 1), BuildingBlock: TEMPAE_clean_linker_10, # of connection points: 2
#     Edge 56, Type (0, 1), BuildingBlock: TEMPAE_clean_linker_10, # of connection points: 2
#     Edge 57, Type (0, 1), BuildingBlock: TEMPAE_clean_linker_10, # of connection points: 2
#     Edge 58, Type (0, 1), BuildingBlock: TEMPAE_clean_linker_10, # of connection points: 2
#     Edge 59, Type (0, 1), BuildingBlock: TEMPAE_clean_linker_10, # of connection points: 2
#     Edge 60, Type (0, 1), BuildingBlock: TEMPAE_clean_linker_10, # of connection points: 2
#     Edge 61, Type (0, 1), BuildingBlock: TEMPAE_clean_linker_10, # of connection points: 2
#     Edge 62, Type (0, 1), BuildingBlock: TEMPAE_clean_linker_10, # of connection points: 2
#     Edge 63, Type (0, 1), BuildingBlock: TEMPAE_clean_linker_10, # of connection points: 2
#     Edge 64, Type (0, 1), BuildingBlock: TEMPAE_clean_linker_10, # of connection points: 2
#     Edge 65, Type (0, 1), BuildingBlock: TEMPAE_clean_linker_10, # of connection points: 2
#     Edge 66, Type (0, 1), BuildingBlock: TEMPAE_clean_linker_10, # of connection points: 2
#     Edge 67, Type (0, 1), BuildingBlock: TEMPAE_clean_linker_10, # of connection points: 2
#     Edge 68, Type (0, 1), BuildingBlock: TEMPAE_clean_linker_10, # of connection points: 2
#     Edge 69, Type (0, 1), BuildingBlock: TEMPAE_clean_linker_10, # of connection points: 2
#     Edge 70, Type (0, 1), BuildingBlock: TEMPAE_clean_linker_10, # of connection points: 2
#     Edge 71, Type (0, 1), BuildingBlock: TEMPAE_clean_linker_10, # of connection points: 2
#     Edge 72, Type (0, 1), BuildingBlock: TEMPAE_clean_linker_10, # of connection points: 2
#     Edge 73, Type (0, 1), BuildingBlock: TEMPAE_clean_linker_10, # of connection points: 2
#     Edge 74, Type (0, 1), BuildingBlock: TEMPAE_clean_linker_10, # of connection points: 2
#     Edge 75, Type (0, 1), BuildingBlock: TEMPAE_clean_linker_10, # of connection points: 2
#     Edge 76, Type (0, 1), BuildingBlock: TEMPAE_clean_linker_10, # of connection points: 2
#     Edge 77, Type (0, 1), BuildingBlock: TEMPAE_clean_linker_10, # of connection points: 2
#     Edge 78, Type (0, 1), BuildingBlock: TEMPAE_clean_linker_10, # of connection points: 2
#     Edge 79, Type (0, 1), BuildingBlock: TEMPAE_clean_linker_10, # of connection points: 2
#     Edge 80, Type (0, 1), BuildingBlock: TEMPAE_clean_linker_10, # of connection points: 2
#     Edge 81, Type (0, 1), BuildingBlock: TEMPAE_clean_linker_10, # of connection points: 2
#     Edge 82, Type (0, 1), BuildingBlock: TEMPAE_clean_linker_10, # of connection points: 2
#     Edge 83, Type (0, 1), BuildingBlock: TEMPAE_clean_linker_10, # of connection points: 2
#     Edge 84, Type (0, 1), BuildingBlock: TEMPAE_clean_linker_10, # of connection points: 2
#     Edge 85, Type (0, 1), BuildingBlock: TEMPAE_clean_linker_10, # of connection points: 2
#     Edge 86, Type (0, 1), BuildingBlock: TEMPAE_clean_linker_10, # of connection points: 2
#     Edge 87, Type (0, 1), BuildingBlock: TEMPAE_clean_linker_10, # of connection points: 2
#     Edge 88, Type (0, 1), BuildingBlock: TEMPAE_clean_linker_10, # of connection points: 2
#     Edge 89, Type (0, 1), BuildingBlock: TEMPAE_clean_linker_10, # of connection points: 2
#     Edge 90, Type (0, 1), BuildingBlock: TEMPAE_clean_linker_10, # of connection points: 2
#     Edge 91, Type (0, 1), BuildingBlock: TEMPAE_clean_linker_10, # of connection points: 2
#     Edge 92, Type (0, 1), BuildingBlock: TEMPAE_clean_linker_10, # of connection points: 2
#     Edge 93, Type (0, 1), BuildingBlock: TEMPAE_clean_linker_10, # of connection points: 2
#     Edge 94, Type (0, 1), BuildingBlock: TEMPAE_clean_linker_10, # of connection points: 2
#     Edge 95, Type (0, 1), BuildingBlock: TEMPAE_clean_linker_10, # of connection points: 2
#     Edge 96, Type (0, 1), BuildingBlock: TEMPAE_clean_linker_10, # of connection points: 2
#     Edge 97, Type (0, 1), BuildingBlock: TEMPAE_clean_linker_10, # of connection points: 2
#     Edge 98, Type (0, 1), BuildingBlock: TEMPAE_clean_linker_10, # of connection points: 2
#     Edge 99, Type (0, 1), BuildingBlock: TEMPAE_clean_linker_10, # of connection points: 2
#     Edge 100, Type (0, 1), BuildingBlock: TEMPAE_clean_linker_10, # of connection points: 2
#     Edge 101, Type (0, 1), BuildingBlock: TEMPAE_clean_linker_10, # of connection points: 2
#     Edge 102, Type (0, 1), BuildingBlock: TEMPAE_clean_linker_10, # of connection points: 2
#     Edge 103, Type (0, 1), BuildingBlock: TEMPAE_clean_linker_10, # of connection points: 2
#     Edge 104, Type (0, 1), BuildingBlock: TEMPAE_clean_linker_10, # of connection points: 2
#     Edge 105, Type (0, 1), BuildingBlock: TEMPAE_clean_linker_10, # of connection points: 2
#     Edge 106, Type (0, 1), BuildingBlock: TEMPAE_clean_linker_10, # of connection points: 2
#     Edge 107, Type (0, 1), BuildingBlock: TEMPAE_clean_linker_10, # of connection points: 2
# Relax obj value: 0.051
# Max RMSD: 0.091
# Mean RMSD: 0.081
data_MOF--net-ptr--node1-GALJAG_clean_sbu_0--node2-MUDLON_clean_linker_0--edge1-TEMPAE_clean_linker_10
_symmetry_space_group_name_H-M    P1
_symmetry_Int_Tables_number       1
_symmetry_cell_setting            triclinic
loop_
_symmetry_equiv_pos_as_xyz
'x, y, z'
_cell_length_a     104.94823
_cell_length_b     105.08518
_cell_length_c     67.070019
_cell_angle_alpha  89.962727
_cell_angle_beta   90.064775
_cell_angle_gamma 120.11534
loop_
_atom_site_label
_atom_site_type_symbol
_atom_site_fract_x
_atom_site_fract_y
_atom_site_fract_z
_atom_type_partial_charge
In0 In 0.01237 0.38028 0.0152 0.0
O1 O 0.00239 0.38104 0.04522 0.0
O2 O 0.01873 0.40126 0.03274 0.0
C3 C 0.98997 0.35366 0.00365 0.0
C4 C 0.03526 0.37778 0.02874 0.0
C5 C 0.01498 0.39581 0.98175 0.0
O6 O 0.98795 0.36376 0.01015 0.0
O7 O 0.00325 0.35688 0.00316 0.0
O8 O 0.02343 0.39077 0.98541 0.0
O9 O 0.00538 0.39304 0.99493 0.0
C10 C 0.01004 0.39483 0.04702 0.0
O11 O 0.03657 0.38627 0.01455 0.0
O12 O 0.02242 0.37049 0.03581 0.0
In13 In 0.64778 0.64677 0.01991 0.0
O14 O 0.64632 0.63292 0.04715 0.0
O15 O 0.62835 0.63631 0.04135 0.0
C16 C 0.67352 0.65122 0.00459 0.0
C17 C 0.65352 0.67402 0.03065 0.0
C18 C 0.63004 0.6298 0.99022 0.0
O19 O 0.6697 0.64696 0.02232 0.0
O20 O 0.66452 0.65342 0.99485 0.0
O21 O 0.63369 0.64317 0.99216 0.0
O22 O 0.63518 0.62503 0.00341 0.0
C23 C 0.63375 0.63051 0.05242 0.0
O24 O 0.64272 0.66567 0.01974 0.0
O25 O 0.66142 0.66869 0.03585 0.0
In26 In 0.37208 0.00667 0.00937 0.0
O27 O 0.37703 0.0305 0.01189 0.0
O28 O 0.35949 0.01589 0.99296 0.0
C29 C 0.38857 0.01178 0.04267 0.0
C30 C 0.38466 0.00303 0.97617 0.0
C31 C 0.34686 0.98204 0.0199 0.0
O32 O 0.39307 0.01101 0.02554 0.0
O33 O 0.37603 0.01066 0.04291 0.0
O34 O 0.35934 0.98304 0.02079 0.0
O35 O 0.34703 0.99334 0.01316 0.0
C36 C 0.36701 0.02875 0.99984 0.0
O37 O 0.37429 0.99237 0.98526 0.0
O38 O 0.38859 0.01542 0.98374 0.0
In39 In 0.00969 0.64574 0.01346 0.0
O40 O 0.01656 0.64275 0.98228 0.0
O41 O 0.00192 0.62354 0.99862 0.0
C42 C 0.03221 0.67255 0.02404 0.0
C43 C 0.98748 0.6499 0.00133 0.0
C44 C 0.00969 0.63034 0.04562 0.0
O45 O 0.03401 0.66395 0.0128 0.0
O46 O 0.01908 0.66779 0.0294 0.0
O47 O 0.99893 0.63218 0.04161 0.0
O48 O 0.02019 0.63613 0.03334 0.0
C49 C 0.00892 0.62888 0.98264 0.0
O50 O 0.98729 0.64435 0.01813 0.0
O51 O 0.99882 0.65341 0.99104 0.0
In52 In 0.37687 0.3738 0.01909 0.0
O53 O 0.37693 0.3853 0.99003 0.0
O54 O 0.39685 0.38637 0.99904 0.0
C55 C 0.35059 0.37016 0.03053 0.0
C56 C 0.37353 0.34758 0.00742 0.0
C57 C 0.39294 0.38891 0.05128 0.0
O58 O 0.35756 0.37791 0.01566 0.0
O59 O 0.35683 0.36418 0.03947 0.0
O60 O 0.38703 0.37512 0.04982 0.0
O61 O 0.3908 0.39503 0.03653 0.0
C62 C 0.39033 0.38987 0.98625 0.0
O63 O 0.38545 0.35783 0.01431 0.0
O64 O 0.3632 0.35039 0.00679 0.0
In65 In 0.64492 0.01133 0.01827 0.0
O66 O 0.64259 0.01812 0.04978 0.0
O67 O 0.62299 0.00497 0.03321 0.0
C68 C 0.67094 0.035 0.00719 0.0
C69 C 0.64882 0.98906 0.03124 0.0
C70 C 0.62851 0.00843 0.98574 0.0
O71 O 0.66212 0.03598 0.01896 0.0
O72 O 0.66677 0.02211 0.00134 0.0
O73 O 0.63407 1.00036 0.98878 0.0
O74 O 0.63117 0.01788 0.99915 0.0
C75 C 0.6287 0.01153 0.04934 0.0
O76 O 0.64198 0.98816 0.01534 0.0
O77 O 0.65378 0.00113 0.04027 0.0
In78 In 0.67742 0.7107 0.35008 0.0
O79 O 0.66554 0.7134 0.37706 0.0
O80 O 0.68658 0.73124 0.36908 0.0
C81 C 0.65311 0.68428 0.3417 0.0
C82 C 0.70008 0.70684 0.36127 0.0
C83 C 0.68281 0.72792 0.31756 0.0
O84 O 0.66362 0.68551 0.35216 0.0
O85 O 0.65462 0.69635 0.33593 0.0
O86 O 0.68725 0.71877 0.31889 0.0
O87 O 0.67589 0.72842 0.3326 0.0
C88 C 0.67577 0.72633 0.38087 0.0
O89 O 0.69765 0.70833 0.3432 0.0
O90 O 0.69119 0.70736 0.37337 0.0
In91 In 0.31002 0.97855 0.35039 0.0
O92 O 0.30963 0.96494 0.37736 0.0
O93 O 0.29101 0.96739 0.3724 0.0
C94 C 0.33491 0.97881 0.33934 0.0
C95 C 0.31519 0.00551 0.36152 0.0
C96 C 0.29385 0.9671 0.31687 0.0
O97 O 0.3226 0.96711 0.34046 0.0
O98 O 0.33472 0.9903 0.34421 0.0
O99 O 0.3062 0.9788 0.31677 0.0
O100 O 0.28944 0.96158 0.33391 0.0
C101 C 0.29699 0.962 0.38312 0.0
O102 O 0.30575 0.99798 0.3484 0.0
O103 O 0.32191 0.99946 0.36876 0.0
In104 In 0.03826 0.34425 0.34873 0.0
O105 O 0.04618 0.36904 0.34944 0.0
O106 O 0.02593 0.35467 0.33503 0.0
C107 C 0.05474 0.34893 0.38204 0.0
C108 C 0.05033 0.33957 0.31578 0.0
C109 C 0.01166 0.3207 0.35731 0.0
O110 O 0.06043 0.35415 0.36529 0.0
O111 O 0.04088 0.34191 0.38204 0.0
O112 O 0.02139 0.31944 0.34786 0.0
O113 O 0.01535 0.33371 0.36203 0.0
C114 C 0.03523 0.3677 0.33976 0.0
O115 O 0.0433 0.34638 0.31547 0.0
O116 O 0.05086 0.33457 0.33267 0.0
In117 In 0.67634 0.97868 0.34626 0.0
O118 O 0.69078 0.97749 0.32172 0.0
O119 O 0.6692 0.95913 0.32545 0.0
C120 C 0.6962 0.00665 0.35656 0.0
C121 C 0.65325 0.98148 0.33412 0.0
C122 C 0.67624 0.9621 0.37731 0.0
O123 O 0.69779 0.00048 0.34138 0.0
O124 O 0.68441 0.99888 0.36604 0.0
O125 O 0.6645 0.95989 0.36902 0.0
O126 O 0.68781 0.97245 0.36983 0.0
C127 C 0.68115 0.96483 0.31583 0.0
O128 O 0.65538 0.97987 0.35223 0.0
O129 O 0.66276 0.98185 0.32234 0.0
In130 In 0.04141 0.70922 0.35469 0.0
O131 O 0.04726 0.72826 0.33271 0.0
O132 O 0.05316 0.71233 0.32512 0.0
C133 C 0.01492 0.70548 0.36588 0.0
C134 C 0.03774 0.68225 0.3476 0.0
C135 C 0.06045 0.7243 0.38454 0.0
O136 O 0.01857 0.70626 0.34779 0.0
O137 O 0.02462 0.70669 0.37807 0.0
O138 O 0.0526 0.71046 0.38447 0.0
O139 O 0.05888 0.73051 0.36942 0.0
C140 C 0.05336 0.72399 0.3203 0.0
O141 O 0.05009 0.6933 0.3517 0.0
O142 O 0.02712 0.68468 0.34769 0.0
In143 In 0.31098 0.34373 0.34979 0.0
O144 O 0.30164 0.31865 0.35112 0.0
O145 O 0.32204 0.33264 0.36532 0.0
C146 C 0.29567 0.34219 0.31663 0.0
C147 C 0.29787 0.3468 0.38256 0.0
C148 C 0.33722 0.36685 0.33848 0.0
O149 O 0.30412 0.33688 0.3173 0.0
O150 O 0.29482 0.34799 0.33263 0.0
O151 O 0.32831 0.36845 0.34935 0.0
O152 O 0.33292 0.35373 0.33365 0.0
C153 C 0.31225 0.31966 0.36126 0.0
O154 O 0.31152 0.35133 0.38197 0.0
O155 O 0.29097 0.3409 0.36671 0.0
In156 In 0.34745 0.04584 0.68065 0.0
O157 O 0.3715 0.05146 0.68284 0.0
O158 O 0.35528 0.03214 0.69743 0.0
C159 C 0.35085 0.06367 0.64944 0.0
C160 C 0.34478 0.05974 0.71286 0.0
C161 C 0.32551 0.01932 0.66808 0.0
O162 O 0.34245 0.0618 0.66392 0.0
O163 O 0.35772 0.05672 0.65079 0.0
O164 O 0.32468 0.02516 0.68411 0.0
O165 O 0.33733 0.02685 0.65856 0.0
C166 C 0.36874 0.04044 0.69344 0.0
O167 O 0.35707 0.06249 0.70594 0.0
O168 O 0.33375 0.04997 0.7035 0.0
In169 In 0.97695 0.3128 0.67996 0.0
O170 O 0.97156 0.33147 0.67903 0.0
O171 O 0.98965 0.33447 0.69668 0.0
C172 C 0.96038 0.29815 0.64815 0.0
C173 C 0.96165 0.29789 0.71262 0.0
C174 C 0.00228 0.31445 0.6675 0.0
O175 O 0.96608 0.31191 0.65007 0.0
O176 O 0.96299 0.29185 0.6623 0.0
O177 O 0.99429 0.30556 0.68087 0.0
O178 O 0.99761 0.32257 0.66083 0.0
C179 C 0.9818 0.3397 0.69081 0.0
O180 O 0.97556 0.30491 0.71219 0.0
O181 O 0.95555 0.29821 0.69658 0.0
In182 In 0.70686 0.67246 0.67639 0.0
O183 O 0.71134 0.69596 0.68085 0.0
O184 O 0.69643 0.68307 0.65795 0.0
C185 C 0.72504 0.67808 0.70792 0.0
C186 C 0.71842 0.66808 0.64275 0.0
C187 C 0.6814 0.64875 0.68879 0.0
O188 O 0.72765 0.67488 0.69086 0.0
O189 O 0.71346 0.67889 0.70897 0.0
O190 O 0.6937 0.6494 0.68972 0.0
O191 O 0.68182 0.65992 0.68115 0.0
C192 C 0.70297 0.69529 0.66685 0.0
O193 O 0.70753 0.65775 0.6516 0.0
O194 O 0.72342 0.6805 0.65086 0.0
In195 In 0.34508 0.31499 0.67858 0.0
O196 O 0.35802 0.31256 0.65292 0.0
O197 O 0.33536 0.29644 0.65571 0.0
C198 C 0.36518 0.34194 0.69228 0.0
C199 C 0.32316 0.3197 0.66682 0.0
C200 C 0.34507 0.29765 0.70847 0.0
O201 O 0.36713 0.3366 0.6765 0.0
O202 O 0.35312 0.33375 0.70096 0.0
O203 O 0.33462 0.30017 0.70592 0.0
O204 O 0.3553 0.30369 0.69587 0.0
C205 C 0.3472 0.30095 0.64612 0.0
O206 O 0.32141 0.3106 0.68038 0.0
O207 O 0.33592 0.32639 0.65938 0.0
In208 In 0.70961 0.04127 0.68797 0.0
O209 O 0.71252 0.05584 0.66089 0.0
O210 O 0.7291 0.05037 0.66689 0.0
C211 C 0.68326 0.03763 0.69931 0.0
C212 C 0.70511 0.01426 0.67831 0.0
C213 C 0.72623 0.0577 0.71884 0.0
O214 O 0.6879 0.04099 0.68163 0.0
O215 O 0.69184 0.03617 0.71099 0.0
O216 O 0.71887 0.04382 0.7195 0.0
O217 O 0.72537 0.06327 0.70258 0.0
C218 C 0.72465 0.05701 0.65573 0.0
O219 O 0.71586 0.02324 0.6888 0.0
O220 O 0.69647 0.01874 0.67325 0.0
In221 In 0.97755 0.68 0.68202 0.0
O222 O 0.96712 0.65651 0.69441 0.0
O223 O 0.99003 0.66776 0.68847 0.0
C224 C 0.96082 0.67572 0.64912 0.0
C225 C 0.96698 0.68727 0.71428 0.0
C226 C 0.00434 0.70114 0.66934 0.0
O227 O 0.96109 0.66529 0.65805 0.0
O228 O 0.96894 0.6882 0.65676 0.0
O229 O 0.99721 0.70355 0.68252 0.0
O230 O 0.99798 0.68814 0.66274 0.0
C231 C 0.97898 0.65619 0.69475 0.0
O232 O 0.97947 0.68826 0.71418 0.0
O233 O 0.96003 0.68293 0.69807 0.0
H234 H 0.26588 0.39085 0.15945 0.0
N235 N 0.24008 0.37565 0.14121 0.0
H236 H 0.27458 0.38377 0.18879 0.0
H237 H 0.22387 0.35096 0.16398 0.0
H238 H 0.23196 0.34429 0.19421 0.0
H239 H 0.23701 0.34998 0.12715 0.0
H240 H 0.25286 0.34794 0.10203 0.0
H241 H 0.25748 0.39645 0.11574 0.0
H242 H 0.27304 0.39453 0.09017 0.0
H243 H 0.23622 0.39847 0.14584 0.0
H244 H 0.2129 0.35204 0.13343 0.0
H245 H 0.21307 0.39861 0.14613 0.0
H246 H 0.18939 0.35167 0.13521 0.0
H247 H 0.13923 0.39183 0.17585 0.0
H248 H 0.12354 0.38219 0.20529 0.0
H249 H 0.11689 0.33891 0.19276 0.0
H250 H 0.13251 0.34876 0.16298 0.0
H251 H 0.1237 0.3532 0.13036 0.0
H252 H 0.10734 0.3537 0.10475 0.0
H253 H 0.13294 0.4012 0.10395 0.0
H254 H 0.149 0.40053 0.12998 0.0
H255 H 0.17051 0.3927 0.16937 0.0
H256 H 0.1931 0.39168 0.16671 0.0
H257 H 0.17282 0.35807 0.12132 0.0
N258 N 0.14559 0.37708 0.14957 0.0
H259 H 0.14988 0.35852 0.12522 0.0
C260 C 0.2442 0.37162 0.15965 0.0
C261 C 0.25842 0.38073 0.1671 0.0
C262 C 0.26332 0.37667 0.18399 0.0
C263 C 0.25397 0.36346 0.19412 0.0
C264 C 0.23959 0.35442 0.18673 0.0
C265 C 0.23482 0.35835 0.16952 0.0
C266 C 0.24625 0.37342 0.12336 0.0
C267 C 0.24456 0.35963 0.1187 0.0
C268 C 0.25362 0.3585 0.10433 0.0
C269 C 0.26442 0.37115 0.09439 0.0
C270 C 0.26506 0.38465 0.09787 0.0
C271 C 0.25609 0.38576 0.11228 0.0
C272 C 0.22622 0.37525 0.14004 0.0
C273 C 0.22601 0.38828 0.14332 0.0
C274 C 0.21271 0.38825 0.14371 0.0
C275 C 0.1992 0.37507 0.14122 0.0
C276 C 0.1995 0.36205 0.13719 0.0
C277 C 0.21292 0.36218 0.13638 0.0
C278 C 0.13702 0.37104 0.16738 0.0
C279 C 0.13447 0.3803 0.17961 0.0
C280 C 0.12558 0.37477 0.19646 0.0
C281 C 0.11903 0.35978 0.20148 0.0
C282 C 0.12169 0.35048 0.18923 0.0
C283 C 0.13065 0.35607 0.1723 0.0
C284 C 0.1375 0.37688 0.13212 0.0
C285 C 0.12594 0.36369 0.12439 0.0
C286 C 0.11663 0.364 0.10968 0.0
C287 C 0.11873 0.3775 0.10247 0.0
C288 C 0.13087 0.39063 0.10943 0.0
C289 C 0.14013 0.39029 0.12414 0.0
C290 C 0.15861 0.3759 0.14736 0.0
C291 C 0.17096 0.38509 0.15891 0.0
C292 C 0.18393 0.38458 0.15717 0.0
C293 C 0.185 0.375 0.14346 0.0
C294 C 0.17245 0.36555 0.13209 0.0
C295 C 0.15932 0.36589 0.13415 0.0
H296 H 0.71343 0.80056 0.15271 0.0
N297 N 0.69281 0.80475 0.13629 0.0
H298 H 0.71233 0.78879 0.18471 0.0
H299 H 0.67072 0.79554 0.16374 0.0
H300 H 0.66943 0.78361 0.19578 0.0
H301 H 0.66394 0.78326 0.1319 0.0
H302 H 0.65452 0.76245 0.10896 0.0
H303 H 0.70725 0.80112 0.10642 0.0
H304 H 0.69805 0.78013 0.08371 0.0
H305 H 0.71273 0.83116 0.14913 0.0
H306 H 0.66983 0.80786 0.12163 0.0
H307 H 0.71173 0.85378 0.14845 0.0
H308 H 0.66915 0.83062 0.11956 0.0
H309 H 0.70982 0.92694 0.1457 0.0
H310 H 0.71004 0.9383 0.17778 0.0
H311 H 0.67463 0.89663 0.19866 0.0
H312 H 0.67418 0.88545 0.16663 0.0
H313 H 0.66463 0.89773 0.13761 0.0
H314 H 0.65487 0.90907 0.11533 0.0
H315 H 0.69028 0.91931 0.07381 0.0
H316 H 0.7006 0.90901 0.09715 0.0
H317 H 0.71403 0.8953 0.12844 0.0
H318 H 0.71386 0.87203 0.12748 0.0
H319 H 0.66665 0.84866 0.13649 0.0
N320 N 0.69147 0.89952 0.134 0.0
H321 H 0.66696 0.87212 0.13582 0.0
C322 C 0.69218 0.79884 0.15588 0.0
C323 C 0.70389 0.79703 0.1622 0.0
C324 C 0.70324 0.79035 0.18046 0.0
C325 C 0.69077 0.78524 0.19272 0.0
C326 C 0.67911 0.7873 0.18653 0.0
C327 C 0.67983 0.79412 0.16829 0.0
C328 C 0.68635 0.7938 0.1208 0.0
C329 C 0.67138 0.78286 0.12111 0.0
C330 C 0.66603 0.77088 0.10807 0.0
C331 C 0.67555 0.76952 0.0946 0.0
C332 C 0.69035 0.78088 0.09369 0.0
C333 C 0.69566 0.79288 0.10667 0.0
C334 C 0.69151 0.81779 0.13533 0.0
C335 C 0.70315 0.83097 0.14273 0.0
C336 C 0.7026 0.84396 0.1421 0.0
C337 C 0.69045 0.84421 0.13361 0.0
C338 C 0.67865 0.83091 0.12636 0.0
C339 C 0.67909 0.8178 0.12737 0.0
C340 C 0.69217 0.90534 0.15373 0.0
C341 C 0.70225 0.92024 0.15731 0.0
C342 C 0.70231 0.9267 0.17554 0.0
C343 C 0.69238 0.9183 0.19066 0.0
C344 C 0.68252 0.90329 0.18731 0.0
C345 C 0.6823 0.89688 0.16895 0.0
C346 C 0.68361 0.90291 0.11925 0.0
C347 C 0.67021 0.9023 0.12363 0.0
C348 C 0.66455 0.90871 0.1107 0.0
C349 C 0.67194 0.9155 0.09285 0.0
C350 C 0.68455 0.91472 0.0877 0.0
C351 C 0.69038 0.90864 0.10087 0.0
C352 C 0.69061 0.88543 0.13255 0.0
C353 C 0.70366 0.88511 0.13002 0.0
C354 C 0.70351 0.87176 0.12972 0.0
C355 C 0.69027 0.85834 0.13239 0.0
C356 C 0.67707 0.85869 0.13432 0.0
C357 C 0.67721 0.87211 0.13417 0.0
H358 H 0.13899 0.78267 0.17005 0.0
N359 N 0.1305 0.79519 0.14099 0.0
H360 H 0.1261 0.77209 0.20143 0.0
H361 H 0.1074 0.79597 0.15541 0.0
H362 H 0.09462 0.78578 0.187 0.0
H363 H 0.11529 0.79522 0.10942 0.0
H364 H 0.10197 0.77531 0.0855 0.0
H365 H 0.13213 0.77 0.13818 0.0
H366 H 0.11957 0.7504 0.11381 0.0
H367 H 0.15467 0.79157 0.13813 0.0
H368 H 0.1411 0.82393 0.14316 0.0
H369 H 0.18037 0.81102 0.13757 0.0
H370 H 0.16687 0.84354 0.14357 0.0
H371 H 0.26069 0.88358 0.16578 0.0
H372 H 0.26914 0.89955 0.19503 0.0
H373 H 0.22915 0.90186 0.19387 0.0
H374 H 0.22121 0.88654 0.164 0.0
H375 H 0.23645 0.90016 0.13182 0.0
H376 H 0.25195 0.91689 0.10558 0.0
H377 H 0.26818 0.88744 0.09172 0.0
H378 H 0.25262 0.87071 0.11814 0.0
H379 H 0.22494 0.8484 0.15924 0.0
H380 H 0.19925 0.82861 0.15818 0.0
H381 H 0.18815 0.85654 0.12381 0.0
N382 N 0.23648 0.87537 0.14449 0.0
H383 H 0.21362 0.87639 0.12583 0.0
C384 C 0.12408 0.79007 0.16039 0.0
C385 C 0.12938 0.78347 0.1737 0.0
C386 C 0.12204 0.7775 0.1917 0.0
C387 C 0.10927 0.77801 0.19668 0.0
C388 C 0.10427 0.78499 0.1835 0.0
C389 C 0.1116 0.79092 0.16554 0.0
C390 C 0.12479 0.78422 0.12548 0.0
C391 C 0.11646 0.78556 0.11018 0.0
C392 C 0.10891 0.77417 0.09647 0.0
C393 C 0.10962 0.76116 0.09771 0.0
C394 C 0.11856 0.76014 0.11256 0.0
C395 C 0.12596 0.77148 0.1264 0.0
C396 C 0.14588 0.80631 0.14044 0.0
C397 C 0.15717 0.80285 0.13909 0.0
C398 C 0.17195 0.81405 0.13898 0.0
C399 C 0.17579 0.82893 0.14047 0.0
C400 C 0.16441 0.83228 0.14197 0.0
C401 C 0.14966 0.82109 0.14188 0.0
C402 C 0.24029 0.88368 0.16283 0.0
C403 C 0.25371 0.88743 0.172 0.0
C404 C 0.25847 0.89652 0.18878 0.0
C405 C 0.24981 0.90199 0.19695 0.0
C406 C 0.23621 0.89803 0.18788 0.0
C407 C 0.23154 0.88908 0.17091 0.0
C408 C 0.24348 0.88419 0.12704 0.0
C409 C 0.24311 0.89714 0.12293 0.0
C410 C 0.25203 0.90674 0.10797 0.0
C411 C 0.26137 0.90354 0.09674 0.0
C412 C 0.26102 0.89015 0.10004 0.0
C413 C 0.25218 0.8806 0.11512 0.0
C414 C 0.2213 0.86383 0.14252 0.0
C415 C 0.21693 0.85018 0.15142 0.0
C416 C 0.20224 0.83886 0.15067 0.0
C417 C 0.19155 0.8409 0.14084 0.0
C418 C 0.19599 0.85459 0.13175 0.0
C419 C 0.21067 0.86597 0.1327 0.0
H420 H 0.38738 0.25762 0.86272 0.0
N421 N 0.36832 0.23527 0.885 0.0
H422 H 0.38253 0.2666 0.83155 0.0
H423 H 0.34231 0.22218 0.86409 0.0
H424 H 0.3373 0.23117 0.83311 0.0
H425 H 0.34438 0.23828 0.89354 0.0
H426 H 0.34353 0.25486 0.91836 0.0
H427 H 0.3878 0.24951 0.91382 0.0
H428 H 0.38673 0.26578 0.93928 0.0
H429 H 0.38375 0.22258 0.87519 0.0
H430 H 0.34234 0.21338 0.90072 0.0
H431 H 0.3766 0.19668 0.87837 0.0
H432 H 0.33527 0.18755 0.90477 0.0
H433 H 0.35967 0.1408 0.86463 0.0
H434 H 0.3594 0.12956 0.83259 0.0
H435 H 0.31685 0.0923 0.84681 0.0
H436 H 0.31713 0.10369 0.87884 0.0
H437 H 0.32378 0.1128 0.9253 0.0
H438 H 0.33064 0.09879 0.94758 0.0
H439 H 0.37294 0.11736 0.91827 0.0
H440 H 0.36562 0.13055 0.89545 0.0
H441 H 0.36606 0.15253 0.90224 0.0
H442 H 0.37278 0.17823 0.90176 0.0
H443 H 0.32804 0.16573 0.88601 0.0
N444 N 0.3386 0.12867 0.89385 0.0
H445 H 0.32123 0.13982 0.88735 0.0
C446 C 0.3653 0.23924 0.86569 0.0
C447 C 0.37649 0.2517 0.85615 0.0
C448 C 0.37365 0.25686 0.83847 0.0
C449 C 0.35949 0.24966 0.82996 0.0
C450 C 0.34835 0.23689 0.83921 0.0
C451 C 0.3512 0.23174 0.85695 0.0
C452 C 0.36633 0.24287 0.90158 0.0
C453 C 0.35363 0.24409 0.90352 0.0
C454 C 0.35312 0.25354 0.91773 0.0
C455 C 0.36511 0.26163 0.93056 0.0
C456 C 0.37734 0.25961 0.92957 0.0
C457 C 0.37797 0.25037 0.91509 0.0
C458 C 0.3637 0.21995 0.88783 0.0
C459 C 0.37318 0.21495 0.88171 0.0
C460 C 0.36909 0.20016 0.8837 0.0
C461 C 0.35538 0.18997 0.89199 0.0
C462 C 0.34585 0.19502 0.89816 0.0
C463 C 0.34993 0.20985 0.89601 0.0
C464 C 0.3383 0.1231 0.87409 0.0
C465 C 0.35017 0.13035 0.86075 0.0
C466 C 0.35001 0.12392 0.84242 0.0
C467 C 0.33812 0.11005 0.83726 0.0
C468 C 0.32619 0.10295 0.85048 0.0
C469 C 0.32629 0.10945 0.86867 0.0
C470 C 0.34416 0.12283 0.90884 0.0
C471 C 0.33464 0.11405 0.92402 0.0
C472 C 0.33862 0.10608 0.93677 0.0
C473 C 0.35233 0.10682 0.93468 0.0
C474 C 0.36219 0.11628 0.92011 0.0
C475 C 0.3581 0.12406 0.9072 0.0
C476 C 0.343 0.14408 0.89497 0.0
C477 C 0.35758 0.15517 0.89896 0.0
C478 C 0.36148 0.17 0.89848 0.0
C479 C 0.35099 0.17414 0.89374 0.0
C480 C 0.33639 0.16301 0.89001 0.0
C481 C 0.33248 0.14818 0.89067 0.0
H482 H 0.75276 0.13816 0.87153 0.0
N483 N 0.77831 0.15077 0.89063 0.0
H484 H 0.74569 0.12234 0.84233 0.0
H485 H 0.79617 0.14342 0.86984 0.0
H486 H 0.78969 0.12862 0.83944 0.0
H487 H 0.78194 0.12897 0.90678 0.0
H488 H 0.76624 0.1115 0.93248 0.0
H489 H 0.75917 0.15322 0.91376 0.0
H490 H 0.74347 0.13589 0.93952 0.0
H491 H 0.78663 0.17568 0.87137 0.0
H492 H 0.80245 0.15518 0.91243 0.0
H493 H 0.81055 0.19812 0.872 0.0
H494 H 0.82619 0.17794 0.91434 0.0
H495 H 0.88836 0.27104 0.87499 0.0
H496 H 0.90283 0.27926 0.84444 0.0
H497 H 0.89302 0.23469 0.83321 0.0
H498 H 0.8796 0.2269 0.86444 0.0
H499 H 0.89981 0.24149 0.89755 0.0
H500 H 0.91947 0.25561 0.9218 0.0
H501 H 0.89331 0.27257 0.94753 0.0
H502 H 0.87396 0.25891 0.92276 0.0
H503 H 0.84901 0.24113 0.88967 0.0
H504 H 0.8254 0.2183 0.89134 0.0
H505 H 0.84829 0.19388 0.89805 0.0
N506 N 0.8757 0.24448 0.89134 0.0
H507 H 0.87185 0.21707 0.89784 0.0
C508 C 0.77499 0.14213 0.87267 0.0
C509 C 0.76085 0.13611 0.86452 0.0
C510 C 0.7569 0.12717 0.84766 0.0
C511 C 0.76716 0.1243 0.83814 0.0
C512 C 0.78141 0.1304 0.84637 0.0
C513 C 0.78523 0.13906 0.86364 0.0
C514 C 0.77166 0.14238 0.90844 0.0
C515 C 0.77387 0.13079 0.91434 0.0
C516 C 0.7649 0.12082 0.92899 0.0
C517 C 0.75352 0.12225 0.93782 0.0
C518 C 0.75203 0.13442 0.93279 0.0
C519 C 0.76104 0.14439 0.91824 0.0
C520 C 0.79263 0.16384 0.89201 0.0
C521 C 0.79525 0.17614 0.88077 0.0
C522 C 0.80893 0.18902 0.88134 0.0
C523 C 0.82036 0.19005 0.89352 0.0
C524 C 0.81775 0.1776 0.90468 0.0
C525 C 0.80407 0.16456 0.90379 0.0
C526 C 0.8827 0.24837 0.872 0.0
C527 C 0.88925 0.26305 0.86579 0.0
C528 C 0.89747 0.26769 0.84822 0.0
C529 C 0.89913 0.25766 0.83616 0.0
C530 C 0.89224 0.24282 0.8422 0.0
C531 C 0.8843 0.23827 0.86004 0.0
C532 C 0.88554 0.2494 0.9082 0.0
C533 C 0.89816 0.24796 0.9087 0.0
C534 C 0.90937 0.25602 0.92252 0.0
C535 C 0.90789 0.26522 0.93638 0.0
C536 C 0.89466 0.26549 0.93706 0.0
C537 C 0.88362 0.25771 0.92297 0.0
C538 C 0.86209 0.23075 0.89327 0.0
C539 C 0.84886 0.23082 0.89167 0.0
C540 C 0.83538 0.21771 0.89241 0.0
C541 C 0.83482 0.20409 0.89438 0.0
C542 C 0.8482 0.20409 0.8966 0.0
C543 C 0.86171 0.21733 0.89628 0.0
H544 H 0.78657 0.68228 0.87712 0.0
N545 N 0.78822 0.65761 0.88515 0.0
H546 H 0.77792 0.68769 0.84615 0.0
H547 H 0.78162 0.64254 0.85121 0.0
H548 H 0.77333 0.64804 0.81989 0.0
H549 H 0.76139 0.63584 0.8933 0.0
H550 H 0.74427 0.63541 0.91812 0.0
H551 H 0.79463 0.6787 0.91364 0.0
H552 H 0.77788 0.67808 0.93949 0.0
H553 H 0.81218 0.68462 0.87592 0.0
H554 H 0.79917 0.64286 0.90374 0.0
H555 H 0.83787 0.69175 0.87968 0.0
H556 H 0.825 0.65038 0.90918 0.0
H557 H 0.92047 0.7104 0.88264 0.0
H558 H 0.93325 0.71224 0.85127 0.0
H559 H 0.89662 0.67053 0.83254 0.0
H560 H 0.88421 0.66857 0.86383 0.0
H561 H 0.896 0.66246 0.89313 0.0
H562 H 0.90824 0.6544 0.91644 0.0
H563 H 0.91734 0.69086 0.95527 0.0
H564 H 0.90574 0.69933 0.93107 0.0
H565 H 0.88405 0.70581 0.89893 0.0
H566 H 0.85817 0.69918 0.89946 0.0
H567 H 0.84547 0.65333 0.89289 0.0
N568 N 0.89506 0.68806 0.89534 0.0
H569 H 0.87124 0.66006 0.89409 0.0
C570 C 0.78461 0.66189 0.86648 0.0
C571 C 0.78379 0.67481 0.86466 0.0
C572 C 0.77893 0.67793 0.84688 0.0
C573 C 0.77482 0.66823 0.83058 0.0
C574 C 0.77616 0.65561 0.83227 0.0
C575 C 0.781 0.65249 0.85005 0.0
C576 C 0.77926 0.65718 0.90171 0.0
C577 C 0.76509 0.64499 0.90355 0.0
C578 C 0.75535 0.64476 0.91788 0.0
C579 C 0.75964 0.65669 0.93101 0.0
C580 C 0.77409 0.66877 0.92952 0.0
C581 C 0.78377 0.66908 0.9149 0.0
C582 C 0.80363 0.66297 0.88913 0.0
C583 C 0.81481 0.67701 0.88309 0.0
C584 C 0.82964 0.68118 0.88552 0.0
C585 C 0.83371 0.67162 0.89457 0.0
C586 C 0.82243 0.65792 0.90159 0.0
C587 C 0.80762 0.65363 0.89872 0.0
C588 C 0.90135 0.68945 0.87572 0.0
C589 C 0.91514 0.70177 0.87161 0.0
C590 C 0.9224 0.70281 0.85367 0.0
C591 C 0.916 0.69148 0.83944 0.0
C592 C 0.90197 0.67934 0.84331 0.0
C593 C 0.89475 0.6783 0.86124 0.0
C594 C 0.90021 0.68172 0.91019 0.0
C595 C 0.90052 0.66868 0.90669 0.0
C596 C 0.90744 0.66398 0.92023 0.0
C597 C 0.91398 0.67205 0.93774 0.0
C598 C 0.91277 0.68455 0.94175 0.0
C599 C 0.90603 0.68936 0.92805 0.0
C600 C 0.87962 0.68352 0.89616 0.0
C601 C 0.87561 0.69433 0.8978 0.0
C602 C 0.86078 0.69049 0.8979 0.0
C603 C 0.84955 0.67569 0.89596 0.0
C604 C 0.85366 0.66483 0.8947 0.0
C605 C 0.86849 0.66868 0.89508 0.0
H606 H 0.75879 0.63867 0.47399 0.0
N607 N 0.7857 0.65844 0.462 0.0
H608 H 0.74673 0.6383 0.5055 0.0
H609 H 0.79839 0.67745 0.49352 0.0
H610 H 0.78653 0.67699 0.52495 0.0
H611 H 0.79086 0.68666 0.46208 0.0
H612 H 0.77992 0.69663 0.43922 0.0
H613 H 0.7723 0.64667 0.42775 0.0
H614 H 0.76185 0.65677 0.40419 0.0
H615 H 0.79035 0.63615 0.4569 0.0
H616 H 0.81304 0.68312 0.46484 0.0
H617 H 0.81379 0.63659 0.45702 0.0
H618 H 0.83657 0.68366 0.46668 0.0
H619 H 0.88988 0.64045 0.48257 0.0
H620 H 0.90239 0.64286 0.51441 0.0
H621 H 0.89917 0.68125 0.52844 0.0
H622 H 0.88676 0.67882 0.49641 0.0
H623 H 0.90405 0.68654 0.4653 0.0
H624 H 0.92472 0.69571 0.44217 0.0
H625 H 0.90318 0.65406 0.41106 0.0
H626 H 0.88283 0.64478 0.43497 0.0
H627 H 0.85459 0.63797 0.47969 0.0
H628 H 0.8318 0.6387 0.47839 0.0
H629 H 0.85515 0.68166 0.45074 0.0
N630 N 0.88116 0.65821 0.46761 0.0
H631 H 0.87808 0.68123 0.45355 0.0
C632 C 0.77952 0.65792 0.4814 0.0
C633 C 0.76494 0.64695 0.48518 0.0
C634 C 0.75806 0.6468 0.50308 0.0
C635 C 0.76572 0.6576 0.51766 0.0
C636 C 0.78044 0.66842 0.51407 0.0
C637 C 0.78724 0.66868 0.49605 0.0
C638 C 0.78218 0.66581 0.44671 0.0
C639 C 0.78478 0.68019 0.44928 0.0
C640 C 0.77855 0.68591 0.4361 0.0
C641 C 0.76976 0.67741 0.42 0.0
C642 C 0.76823 0.66348 0.41667 0.0
C643 C 0.77432 0.65775 0.42996 0.0
C644 C 0.79991 0.65949 0.46123 0.0
C645 C 0.80045 0.64655 0.45886 0.0
C646 C 0.81389 0.64685 0.45919 0.0
C647 C 0.8272 0.66013 0.46234 0.0
C648 C 0.82665 0.67322 0.46416 0.0
C649 C 0.81315 0.67292 0.46337 0.0
C650 C 0.88731 0.65934 0.48721 0.0
C651 C 0.89175 0.64927 0.49264 0.0
C652 C 0.89895 0.65073 0.51073 0.0
C653 C 0.90178 0.66227 0.52385 0.0
C654 C 0.89701 0.67219 0.51866 0.0
C655 C 0.88993 0.67081 0.5004 0.0
C656 C 0.89198 0.66486 0.45199 0.0
C657 C 0.90368 0.67946 0.45334 0.0
C658 C 0.91547 0.68473 0.43996 0.0
C659 C 0.91575 0.67556 0.42487 0.0
C660 C 0.9035 0.66131 0.42276 0.0
C661 C 0.89179 0.65603 0.43625 0.0
C662 C 0.86802 0.65937 0.4665 0.0
C663 C 0.85477 0.64756 0.47343 0.0
C664 C 0.84169 0.64796 0.47244 0.0
C665 C 0.84143 0.66013 0.46407 0.0
C666 C 0.85483 0.67213 0.4574 0.0
C667 C 0.86802 0.67183 0.4588 0.0
H668 H 0.3762 0.13355 0.48443 0.0
N669 N 0.355 0.13639 0.46719 0.0
H670 H 0.37563 0.12296 0.51724 0.0
H671 H 0.33272 0.12688 0.49442 0.0
H672 H 0.33192 0.11598 0.52714 0.0
H673 H 0.32611 0.11472 0.4631 0.0
H674 H 0.31657 0.09406 0.44002 0.0
H675 H 0.3694 0.13243 0.4376 0.0
H676 H 0.36012 0.11142 0.41495 0.0
H677 H 0.37544 0.16331 0.47742 0.0
H678 H 0.33113 0.13871 0.45452 0.0
H679 H 0.37392 0.18567 0.47706 0.0
H680 H 0.32984 0.16113 0.45274 0.0
H681 H 0.37034 0.25655 0.47741 0.0
H682 H 0.37109 0.26873 0.50896 0.0
H683 H 0.33314 0.22878 0.52962 0.0
H684 H 0.33227 0.2168 0.49808 0.0
H685 H 0.32146 0.22147 0.46621 0.0
H686 H 0.30954 0.23062 0.44355 0.0
H687 H 0.35016 0.25434 0.41037 0.0
H688 H 0.3618 0.2449 0.43288 0.0
H689 H 0.37348 0.22626 0.4582 0.0
H690 H 0.37423 0.20345 0.45677 0.0
H691 H 0.3277 0.17886 0.47068 0.0
N692 N 0.3506 0.22955 0.46596 0.0
H693 H 0.32696 0.2017 0.47042 0.0
C694 C 0.3545 0.13086 0.48699 0.0
C695 C 0.36658 0.12986 0.49381 0.0
C696 C 0.36625 0.12387 0.51252 0.0
C697 C 0.35371 0.11863 0.52468 0.0
C698 C 0.34166 0.11982 0.51796 0.0
C699 C 0.34209 0.12601 0.49931 0.0
C700 C 0.34852 0.12523 0.45196 0.0
C701 C 0.33354 0.11432 0.45231 0.0
C702 C 0.32811 0.10238 0.43919 0.0
C703 C 0.33758 0.10095 0.4257 0.0
C704 C 0.35243 0.11222 0.42489 0.0
C705 C 0.3578 0.12422 0.43787 0.0
C706 C 0.35355 0.14932 0.46586 0.0
C707 C 0.36546 0.16279 0.47201 0.0
C708 C 0.36458 0.17561 0.4716 0.0
C709 C 0.3518 0.17536 0.46462 0.0
C710 C 0.33982 0.1618 0.45844 0.0
C711 C 0.34061 0.14888 0.45925 0.0
C712 C 0.35142 0.23575 0.4854 0.0
C713 C 0.36231 0.2504 0.48887 0.0
C714 C 0.36267 0.25733 0.50679 0.0
C715 C 0.35217 0.24967 0.5217 0.0
C716 C 0.34145 0.23488 0.51844 0.0
C717 C 0.34097 0.22801 0.50038 0.0
C718 C 0.34255 0.23257 0.45116 0.0
C719 C 0.32764 0.22831 0.45374 0.0
C720 C 0.32089 0.23364 0.44086 0.0
C721 C 0.32891 0.2433 0.42521 0.0
C722 C 0.34357 0.24679 0.42207 0.0
C723 C 0.35028 0.24146 0.43493 0.0
C724 C 0.3503 0.21572 0.46479 0.0
C725 C 0.36346 0.2159 0.4608 0.0
C726 C 0.36385 0.20282 0.4602 0.0
C727 C 0.35107 0.1892 0.46399 0.0
C728 C 0.33776 0.18905 0.46757 0.0
C729 C 0.33734 0.20217 0.46772 0.0
H730 H 0.80215 0.09435 0.49863 0.0
N731 N 0.80679 0.11707 0.47628 0.0
H732 H 0.7876 0.08555 0.52927 0.0
H733 H 0.79356 0.13033 0.49577 0.0
H734 H 0.77896 0.12161 0.52642 0.0
H735 H 0.78169 0.11658 0.46372 0.0
H736 H 0.76495 0.10081 0.43769 0.0
H737 H 0.81143 0.10065 0.45053 0.0
H738 H 0.7948 0.08494 0.42415 0.0
H739 H 0.83446 0.12883 0.48839 0.0
H740 H 0.80443 0.13974 0.45965 0.0
H741 H 0.85407 0.15452 0.48621 0.0
H742 H 0.82406 0.16526 0.45652 0.0
H743 H 0.89856 0.2127 0.49726 0.0
H744 H 0.90983 0.22471 0.52889 0.0
H745 H 0.89853 0.25821 0.51683 0.0
H746 H 0.8875 0.24627 0.48495 0.0
H747 H 0.88722 0.23774 0.43695 0.0
H748 H 0.90742 0.25056 0.41315 0.0
H749 H 0.93167 0.23284 0.44292 0.0
H750 H 0.9118 0.22058 0.46687 0.0
H751 H 0.88981 0.19842 0.46341 0.0
H752 H 0.87018 0.17289 0.46382 0.0
H753 H 0.83849 0.18679 0.47553 0.0
N754 N 0.88681 0.22279 0.46912 0.0
H755 H 0.85825 0.21246 0.47415 0.0
C756 C 0.79903 0.11299 0.49502 0.0
C757 C 0.79722 0.1004 0.50475 0.0
C758 C 0.78882 0.09535 0.52212 0.0
C759 C 0.78207 0.10285 0.53015 0.0
C760 C 0.78412 0.11567 0.52062 0.0
C761 C 0.79246 0.12066 0.50311 0.0
C762 C 0.79782 0.10973 0.45911 0.0
C763 C 0.7848 0.10995 0.4549 0.0
C764 C 0.77524 0.10095 0.43994 0.0
C765 C 0.77849 0.09153 0.42896 0.0
C766 C 0.79189 0.09192 0.43253 0.0
C767 C 0.80144 0.10094 0.44746 0.0
C768 C 0.81804 0.13229 0.47407 0.0
C769 C 0.83217 0.13677 0.48139 0.0
C770 C 0.84338 0.15144 0.47998 0.0
C771 C 0.84073 0.16201 0.47104 0.0
C772 C 0.8265 0.15748 0.46368 0.0
C773 C 0.81524 0.1428 0.46529 0.0
C774 C 0.89228 0.22871 0.48867 0.0
C775 C 0.89847 0.2226 0.5014 0.0
C776 C 0.90492 0.22947 0.51946 0.0
C777 C 0.9051 0.24241 0.52523 0.0
C778 C 0.89845 0.24819 0.5128 0.0
C779 C 0.89219 0.24143 0.49464 0.0
C780 C 0.89789 0.22819 0.4537 0.0
C781 C 0.89679 0.23642 0.43805 0.0
C782 C 0.90833 0.24368 0.42443 0.0
C783 C 0.92123 0.24282 0.42621 0.0
C784 C 0.92199 0.23393 0.4413 0.0
C785 C 0.91051 0.22676 0.45497 0.0
C786 C 0.8755 0.20747 0.46853 0.0
C787 C 0.87868 0.19608 0.4658 0.0
C788 C 0.86738 0.18138 0.46625 0.0
C789 C 0.85269 0.1777 0.46975 0.0
C790 C 0.84959 0.18915 0.47244 0.0
C791 C 0.86087 0.20384 0.47178 0.0
H792 H 0.05194 0.59492 0.20354 0.0
N793 N 0.03386 0.57168 0.22525 0.0
H794 H 0.04635 0.60357 0.17263 0.0
H795 H 0.00779 0.55774 0.20455 0.0
H796 H 0.00204 0.56638 0.17382 0.0
H797 H 0.00898 0.57273 0.23484 0.0
H798 H 0.00713 0.58817 0.26058 0.0
H799 H 0.05317 0.58615 0.25413 0.0
H800 H 0.05115 0.60131 0.28044 0.0
H801 H 0.05026 0.5605 0.21336 0.0
H802 H 0.00876 0.5486 0.24116 0.0
H803 H 0.04437 0.53489 0.21474 0.0
H804 H 0.00301 0.52308 0.2435 0.0
H805 H 0.0313 0.4774 0.20082 0.0
H806 H 0.03125 0.46642 0.16862 0.0
H807 H 0.98626 0.43216 0.17856 0.0
H808 H 0.98648 0.44308 0.21097 0.0
H809 H 0.99384 0.45052 0.25961 0.0
H810 H 0.00096 0.43739 0.28321 0.0
H811 H 0.04347 0.45595 0.25461 0.0
H812 H 0.03613 0.46857 0.23087 0.0
H813 H 0.03613 0.49061 0.23535 0.0
H814 H 0.04187 0.51605 0.23631 0.0
H815 H 0.9963 0.50205 0.22355 0.0
N816 N 0.0089 0.46626 0.22819 0.0
H817 H 0.99054 0.47644 0.22355 0.0
C818 C 0.03038 0.5757 0.20629 0.0
C819 C 0.04109 0.58858 0.19697 0.0
C820 C 0.03782 0.59355 0.17945 0.0
C821 C 0.02371 0.58571 0.17087 0.0
C822 C 0.01304 0.5726 0.17998 0.0
C823 C 0.01632 0.56765 0.19757 0.0
C824 C 0.03138 0.57851 0.24232 0.0
C825 C 0.01819 0.57877 0.24481 0.0
C826 C 0.01711 0.58757 0.25955 0.0
C827 C 0.02903 0.59597 0.27235 0.0
C828 C 0.04179 0.59487 0.2708 0.0
C829 C 0.04296 0.58627 0.25581 0.0
C830 C 0.03008 0.55652 0.22727 0.0
C831 C 0.03996 0.55235 0.22002 0.0
C832 C 0.0366 0.53772 0.22097 0.0
C833 C 0.02323 0.52686 0.22936 0.0
C834 C 0.01333 0.53108 0.23674 0.0
C835 C 0.01667 0.54574 0.2356 0.0
C836 C 0.00887 0.46095 0.20837 0.0
C837 C 0.02142 0.46756 0.19608 0.0
C838 C 0.02139 0.46127 0.1777 0.0
C839 C 0.00877 0.44841 0.17115 0.0
C840 C 0.9961 0.44213 0.18317 0.0
C841 C 0.99621 0.44831 0.20164 0.0
C842 C 0.01435 0.46053 0.24346 0.0
C843 C 0.00478 0.45194 0.25871 0.0
C844 C 0.0089 0.4445 0.27222 0.0
C845 C 0.02277 0.44553 0.27072 0.0
C846 C 0.03263 0.45473 0.256 0.0
C847 C 0.02847 0.46209 0.24246 0.0
C848 C 0.01278 0.4815 0.22957 0.0
C849 C 0.0273 0.4929 0.23302 0.0
C850 C 0.03061 0.50756 0.23336 0.0
C851 C 0.01957 0.51119 0.22996 0.0
C852 C 0.00506 0.49972 0.22658 0.0
C853 C 0.00174 0.48507 0.22645 0.0
H854 H 0.57807 0.54606 0.2063 0.0
N855 N 0.56399 0.55364 0.2324 0.0
H856 H 0.58875 0.55784 0.17424 0.0
H857 H 0.56049 0.57501 0.21412 0.0
H858 H 0.57108 0.5868 0.18226 0.0
H859 H 0.55247 0.56944 0.24915 0.0
H860 H 0.56545 0.59037 0.27198 0.0
H861 H 0.58922 0.56197 0.25097 0.0
H862 H 0.60212 0.58257 0.27409 0.0
H863 H 0.55637 0.52913 0.25241 0.0
H864 H 0.53814 0.55081 0.21791 0.0
H865 H 0.53204 0.50717 0.25472 0.0
H866 H 0.51393 0.52863 0.21905 0.0
H867 H 0.46488 0.43798 0.21436 0.0
H868 H 0.45399 0.42736 0.18188 0.0
H869 H 0.44387 0.46203 0.17274 0.0
H870 H 0.45508 0.47273 0.20508 0.0
H871 H 0.44509 0.46902 0.23747 0.0
H872 H 0.42446 0.45763 0.26073 0.0
H873 H 0.44133 0.43059 0.28396 0.0
H874 H 0.4621 0.44229 0.26083 0.0
H875 H 0.4929 0.46487 0.23221 0.0
H876 H 0.51632 0.48792 0.23366 0.0
H877 H 0.49287 0.51192 0.23759 0.0
N878 N 0.46607 0.46115 0.23193 0.0
H879 H 0.4695 0.48872 0.23512 0.0
C880 C 0.56857 0.55966 0.21265 0.0
C881 C 0.57633 0.55479 0.20094 0.0
C882 C 0.58239 0.56152 0.18266 0.0
C883 C 0.58086 0.57333 0.17584 0.0
C884 C 0.57263 0.57786 0.18728 0.0
C885 C 0.5665 0.57107 0.20547 0.0
C886 C 0.57 0.56425 0.24831 0.0
C887 C 0.56319 0.57212 0.25482 0.0
C888 C 0.5706 0.58403 0.2679 0.0
C889 C 0.5849 0.58825 0.2746 0.0
C890 C 0.59124 0.57978 0.2689 0.0
C891 C 0.58386 0.56794 0.25587 0.0
C892 C 0.54918 0.54149 0.23473 0.0
C893 C 0.54708 0.52912 0.24534 0.0
C894 C 0.53317 0.51653 0.24645 0.0
C895 C 0.521 0.51593 0.23669 0.0
C896 C 0.52299 0.52864 0.2268 0.0
C897 C 0.53692 0.54135 0.22596 0.0
C898 C 0.46067 0.45601 0.21215 0.0
C899 C 0.46048 0.44336 0.20519 0.0
C900 C 0.4543 0.43735 0.18667 0.0
C901 C 0.44803 0.44384 0.17485 0.0
C902 C 0.44849 0.45673 0.18166 0.0
C903 C 0.45488 0.46284 0.20011 0.0
C904 C 0.45517 0.45648 0.24745 0.0
C905 C 0.44458 0.46092 0.24786 0.0
C906 C 0.43269 0.4543 0.26109 0.0
C907 C 0.43117 0.44311 0.27412 0.0
C908 C 0.44223 0.43928 0.27433 0.0
C909 C 0.45409 0.4459 0.2611 0.0
C910 C 0.4795 0.47504 0.23377 0.0
C911 C 0.49287 0.47513 0.23349 0.0
C912 C 0.50624 0.48834 0.23449 0.0
C913 C 0.50657 0.50187 0.236 0.0
C914 C 0.49308 0.50176 0.2363 0.0
C915 C 0.47966 0.48847 0.23508 0.0
H916 H 0.55048 0.96259 0.20488 0.0
N917 N 0.53789 0.97593 0.2228 0.0
H918 H 0.56604 0.97053 0.17541 0.0
H919 H 0.5454 0.00071 0.20095 0.0
H920 H 0.55996 0.00822 0.17025 0.0
H921 H 0.5573 0.00193 0.24044 0.0
H922 H 0.5745 0.00522 0.26725 0.0
H923 H 0.53797 0.95497 0.24457 0.0
H924 H 0.55575 0.95796 0.27003 0.0
H925 H 0.51419 0.95969 0.20084 0.0
H926 H 0.53136 0.99393 0.2453 0.0
H927 H 0.49141 0.96042 0.19956 0.0
H928 H 0.50822 0.99403 0.24524 0.0
H929 H 0.41865 0.96081 0.19543 0.0
H930 H 0.41122 0.9685 0.16533 0.0
H931 H 0.45209 0.0101 0.16679 0.0
H932 H 0.45904 0.00255 0.19734 0.0
H933 H 0.44576 0.00254 0.23006 0.0
H934 H 0.43101 0.00546 0.25607 0.0
H935 H 0.41062 0.95918 0.26985 0.0
H936 H 0.42514 0.95629 0.24349 0.0
H937 H 0.44688 0.95381 0.21345 0.0
H938 H 0.46994 0.95365 0.21641 0.0
H939 H 0.4929 0.00046 0.22827 0.0
N940 N 0.44261 0.97642 0.21729 0.0
H941 H 0.46943 1.00009 0.22689 0.0
C942 C 0.54664 0.98091 0.20492 0.0
C943 C 0.55256 0.97258 0.19736 0.0
C944 C 0.56133 0.97709 0.18034 0.0
C945 C 0.56412 0.98992 0.17004 0.0
C946 C 0.55821 0.99836 0.17776 0.0
C947 C 0.54972 0.994 0.19521 0.0
C948 C 0.5462 0.97816 0.24083 0.0
C949 C 0.55655 0.99232 0.24751 0.0
C950 C 0.56657 0.99415 0.2626 0.0
C951 C 0.56676 0.98188 0.27083 0.0
C952 C 0.5559 0.96772 0.26455 0.0
C953 C 0.5457 0.96593 0.24987 0.0
C954 C 0.52447 0.97659 0.22322 0.0
C955 C 0.51293 0.96722 0.21055 0.0
C956 C 0.49983 0.96758 0.21001 0.0
C957 C 0.49775 0.97715 0.22252 0.0
C958 C 0.50939 0.98662 0.23523 0.0
C959 C 0.52267 0.98646 0.23544 0.0
C960 C 0.43943 0.98095 0.19853 0.0
C961 C 0.42604 0.97151 0.18908 0.0
C962 C 0.42187 0.97594 0.17182 0.0
C963 C 0.43108 0.98993 0.16351 0.0
C964 C 0.44464 0.99932 0.17287 0.0
C965 C 0.44873 0.99492 0.19028 0.0
C966 C 0.43634 0.97911 0.23472 0.0
C967 C 0.43831 0.99309 0.2389 0.0
C968 C 0.42988 0.99474 0.25372 0.0
C969 C 0.41962 0.98252 0.26484 0.0
C970 C 0.4185 0.96879 0.26159 0.0
C971 C 0.42675 0.96711 0.24657 0.0
C972 C 0.4565 0.97696 0.2195 0.0
C973 C 0.45692 0.96399 0.21677 0.0
C974 C 0.47018 0.964 0.21828 0.0
C975 C 0.48348 0.97712 0.22217 0.0
C976 C 0.48296 0.99012 0.22534 0.0
C977 C 0.46956 0.99 0.22425 0.0
H978 H 0.4314 0.97598 0.81128 0.0
N979 N 0.4573 0.99752 0.79883 0.0
H980 H 0.41873 0.97482 0.84255 0.0
H981 H 0.46863 0.01719 0.82978 0.0
H982 H 0.45619 0.016 0.86101 0.0
H983 H 0.46541 0.0266 0.79695 0.0
H984 H 0.45497 0.0374 0.77455 0.0
H985 H 0.44015 0.98477 0.76757 0.0
H986 H 0.42935 0.9953 0.74541 0.0
H987 H 0.46154 0.97539 0.7902 0.0
H988 H 0.48484 0.02159 0.80429 0.0
H989 H 0.48474 0.97533 0.78962 0.0
H990 H 0.50802 0.02149 0.8054 0.0
H991 H 0.55565 0.97529 0.82235 0.0
H992 H 0.5672 0.97761 0.85502 0.0
H993 H 0.57275 0.02097 0.8618 0.0
H994 H 0.56078 0.01837 0.82937 0.0
H995 H 0.57505 0.02324 0.79976 0.0
H996 H 0.59512 0.03125 0.7761 0.0
H997 H 0.57202 0.98886 0.74693 0.0
H998 H 0.55234 0.98063 0.77172 0.0
H999 H 0.5245 0.97447 0.81278 0.0
H1000 H 0.50194 0.97564 0.81125 0.0
H1001 H 0.52672 0.02011 0.7885 0.0
N1002 N 0.55156 0.99521 0.80362 0.0
H1003 H 0.54938 0.01907 0.79146 0.0
C1004 C 0.451 0.99652 0.81823 0.0
C1005 C 0.43693 0.98462 0.82223 0.0
C1006 C 0.4297 0.98403 0.83999 0.0
C1007 C 0.4365 0.99532 0.85418 0.0
C1008 C 0.45077 0.00706 0.85042 0.0
C1009 C 0.45792 0.00774 0.83253 0.0
C1010 C 0.45355 0.00486 0.78382 0.0
C1011 C 0.45789 0.01983 0.78537 0.0
C1012 C 0.45178 0.02595 0.77267 0.0
C1013 C 0.44122 0.01719 0.75827 0.0
C1014 C 0.43757 0.00243 0.75611 0.0
C1015 C 0.4437 0.99636 0.76878 0.0
C1016 C 0.47139 0.99834 0.79769 0.0
C1017 C 0.4717 0.9855 0.79334 0.0
C1018 C 0.485 0.98548 0.79325 0.0
C1019 C 0.49835 0.99833 0.79792 0.0
C1020 C 0.49804 0.01138 0.80168 0.0
C1021 C 0.48471 0.01142 0.80135 0.0
C1022 C 0.5575 0.99666 0.8234 0.0
C1023 C 0.55921 0.9852 0.83103 0.0
C1024 C 0.56576 0.98654 0.84964 0.0
C1025 C 0.57091 0.9995 0.86084 0.0
C1026 C 0.56898 0.01092 0.85335 0.0
C1027 C 0.56217 0.00946 0.83487 0.0
C1028 C 0.56229 0.00116 0.78778 0.0
C1029 C 0.57422 0.01566 0.78826 0.0
C1030 C 0.58568 0.02031 0.77447 0.0
C1031 C 0.58537 0.01066 0.75966 0.0
C1032 C 0.57287 0.99649 0.7584 0.0
C1033 C 0.56152 0.99179 0.77241 0.0
C1034 C 0.53857 0.99653 0.80199 0.0
C1035 C 0.52502 0.98445 0.80748 0.0
C1036 C 0.5121 0.98513 0.80638 0.0
C1037 C 0.51235 0.9979 0.7994 0.0
C1038 C 0.52603 0.01011 0.79407 0.0
C1039 C 0.53904 0.0095 0.79555 0.0
H1040 H 0.96439 0.55255 0.82252 0.0
N1041 N 0.98001 0.54192 0.80568 0.0
H1042 H 0.96953 0.56645 0.85335 0.0
H1043 H 0.0016 0.54658 0.8335 0.0
H1044 H 0.006 0.55925 0.86496 0.0
H1045 H 0.00494 0.56842 0.79926 0.0
H1046 H 0.00733 0.58744 0.77595 0.0
H1047 H 0.96148 0.5388 0.77654 0.0
H1048 H 0.96375 0.55777 0.75317 0.0
H1049 H 0.96246 0.51296 0.8072 0.0
H1050 H 0.00744 0.5465 0.79649 0.0
H1051 H 0.9692 0.49396 0.80356 0.0
H1052 H 0.01458 0.52779 0.79413 0.0
H1053 H 0.98947 0.44291 0.81952 0.0
H1054 H 0.99138 0.43213 0.85064 0.0
H1055 H 0.03743 0.46528 0.85485 0.0
H1056 H 0.03529 0.47632 0.82369 0.0
H1057 H 0.02948 0.46115 0.77783 0.0
H1058 H 0.02238 0.44117 0.75383 0.0
H1059 H 0.97659 0.42801 0.76235 0.0
H1060 H 0.98383 0.44809 0.78632 0.0
H1061 H 0.98835 0.46519 0.82051 0.0
H1062 H 0.98081 0.48349 0.82037 0.0
H1063 H 0.01434 0.50874 0.77651 0.0
N1064 N 0.01183 0.46655 0.80002 0.0
H1065 H 0.02254 0.49071 0.7779 0.0
C1066 C 0.9825 0.54845 0.82538 0.0
C1067 C 0.97345 0.55392 0.83179 0.0
C1068 C 0.97637 0.5618 0.84959 0.0
C1069 C 0.98825 0.5641 0.86183 0.0
C1070 C 0.99698 0.55809 0.85579 0.0
C1071 C 0.99431 0.55057 0.83768 0.0
C1072 C 0.98296 0.55219 0.78964 0.0
C1073 C 0.99608 0.56588 0.78887 0.0
C1074 C 0.99737 0.57678 0.77567 0.0
C1075 C 0.98566 0.57415 0.76289 0.0
C1076 C 0.97299 0.5601 0.76274 0.0
C1077 C 0.97167 0.54926 0.77605 0.0
C1078 C 0.98441 0.5311 0.80229 0.0
C1079 C 0.97382 0.51619 0.80409 0.0
C1080 C 0.97776 0.50537 0.80222 0.0
C1081 C 0.99252 0.50924 0.79882 0.0
C1082 C 0.00308 0.52426 0.79647 0.0
C1083 C 0.99904 0.53506 0.79795 0.0
C1084 C 0.01229 0.46053 0.81922 0.0
C1085 C 0.99997 0.448 0.82714 0.0
C1086 C 0.0011 0.44173 0.84493 0.0
C1087 C 0.0146 0.44774 0.85517 0.0
C1088 C 0.02684 0.46044 0.84745 0.0
C1089 C 0.02566 0.46675 0.82964 0.0
C1090 C 0.00724 0.45607 0.7839 0.0
C1091 C 0.01794 0.45414 0.77416 0.0
C1092 C 0.01386 0.44275 0.76043 0.0
C1093 C 0.99891 0.43297 0.75626 0.0
C1094 C 0.98818 0.43529 0.76541 0.0
C1095 C 0.99231 0.44679 0.77905 0.0
C1096 C 0.00631 0.47669 0.79947 0.0
C1097 C 0.99422 0.47466 0.81096 0.0
C1098 C 0.98974 0.48515 0.81065 0.0
C1099 C 0.99696 0.49775 0.79848 0.0
C1100 C 0.0087 0.49943 0.78645 0.0
C1101 C 0.01334 0.48906 0.78707 0.0
H1102 H 0.46126 0.44339 0.82248 0.0
N1103 N 0.46119 0.46739 0.80659 0.0
H1104 H 0.45004 0.43119 0.85382 0.0
H1105 H 0.44788 0.47542 0.83328 0.0
H1106 H 0.43615 0.46296 0.86452 0.0
H1107 H 0.43657 0.46188 0.78828 0.0
H1108 H 0.42252 0.44264 0.76374 0.0
H1109 H 0.47083 0.45063 0.78701 0.0
H1110 H 0.45713 0.43177 0.76226 0.0
H1111 H 0.48451 0.46302 0.81403 0.0
H1112 H 0.47301 0.4959 0.79919 0.0
H1113 H 0.51038 0.48153 0.81383 0.0
H1114 H 0.49897 0.51493 0.80072 0.0
H1115 H 0.59074 0.54769 0.83669 0.0
H1116 H 0.59957 0.56212 0.8674 0.0
H1117 H 0.56493 0.57284 0.86296 0.0
H1118 H 0.55603 0.55812 0.83241 0.0
H1119 H 0.56989 0.56945 0.80116 0.0
H1120 H 0.58625 0.58617 0.77551 0.0
H1121 H 0.60113 0.55557 0.762 0.0
H1122 H 0.58478 0.53891 0.78793 0.0
H1123 H 0.55425 0.51892 0.83364 0.0
H1124 H 0.52824 0.50044 0.83197 0.0
H1125 H 0.52198 0.52592 0.7863 0.0
N1126 N 0.56857 0.54397 0.81365 0.0
H1127 H 0.54769 0.54484 0.7893 0.0
C1128 C 0.45547 0.46042 0.82558 0.0
C1129 C 0.45603 0.4479 0.83167 0.0
C1130 C 0.44944 0.44081 0.84953 0.0
C1131 C 0.4421 0.44603 0.86164 0.0
C1132 C 0.44184 0.45874 0.85568 0.0
C1133 C 0.44847 0.46584 0.83783 0.0
C1134 C 0.45475 0.45781 0.7896 0.0
C1135 C 0.44125 0.45555 0.7823 0.0
C1136 C 0.43326 0.44456 0.76824 0.0
C1137 C 0.43865 0.43557 0.76114 0.0
C1138 C 0.45256 0.43835 0.76767 0.0
C1139 C 0.46051 0.4493 0.7818 0.0
C1140 C 0.47674 0.47801 0.80613 0.0
C1141 C 0.48751 0.47422 0.81056 0.0
C1142 C 0.50243 0.48498 0.81084 0.0
C1143 C 0.50696 0.49989 0.80739 0.0
C1144 C 0.49608 0.50361 0.80306 0.0
C1145 C 0.48119 0.49276 0.8023 0.0
C1146 C 0.57278 0.55183 0.83233 0.0
C1147 C 0.58501 0.55306 0.84249 0.0
C1148 C 0.59008 0.5614 0.8599 0.0
C1149 C 0.58303 0.56873 0.86752 0.0
C1150 C 0.57054 0.56724 0.85754 0.0
C1151 C 0.56547 0.55889 0.84006 0.0
C1152 C 0.57624 0.55295 0.7966 0.0
C1153 C 0.57652 0.56623 0.79256 0.0
C1154 C 0.58589 0.5758 0.77791 0.0
C1155 C 0.59506 0.57223 0.76689 0.0
C1156 C 0.59413 0.55857 0.77017 0.0
C1157 C 0.58483 0.54906 0.78495 0.0
C1158 C 0.55308 0.53325 0.81159 0.0
C1159 C 0.54722 0.52051 0.82333 0.0
C1160 C 0.53232 0.50986 0.82215 0.0
C1161 C 0.52287 0.51147 0.80879 0.0
C1162 C 0.52877 0.52429 0.79698 0.0
C1163 C 0.54365 0.53514 0.79853 0.0
H1164 H 0.71877 0.91348 0.51803 0.0
N1165 N 0.7047 0.9053 0.55268 0.0
H1166 H 0.71006 0.91882 0.48691 0.0
H1167 H 0.67698 0.90061 0.54568 0.0
H1168 H 0.66828 0.90616 0.51477 0.0
H1169 H 0.68308 0.89855 0.58018 0.0
H1170 H 0.68272 0.91537 0.60529 0.0
H1171 H 0.72652 0.93185 0.56197 0.0
H1172 H 0.72662 0.94853 0.58744 0.0
H1173 H 0.72669 0.90154 0.56429 0.0
H1174 H 0.68027 0.87782 0.55106 0.0
H1175 H 0.72645 0.87836 0.56871 0.0
H1176 H 0.68 0.85446 0.55436 0.0
H1177 H 0.72204 0.80542 0.5336 0.0
H1178 H 0.714 0.79014 0.50356 0.0
H1179 H 0.66995 0.78276 0.51175 0.0
H1180 H 0.67822 0.79824 0.54177 0.0
H1181 H 0.6809 0.78906 0.57529 0.0
H1182 H 0.68014 0.77155 0.59997 0.0
H1183 H 0.72757 0.79686 0.60503 0.0
H1184 H 0.72818 0.81402 0.57983 0.0
H1185 H 0.72605 0.83752 0.54605 0.0
H1186 H 0.72509 0.8602 0.5468 0.0
H1187 H 0.68236 0.837 0.57517 0.0
N1188 N 0.70576 0.81111 0.55809 0.0
H1189 H 0.68331 0.81413 0.57359 0.0
C1190 C 0.69864 0.90684 0.53417 0.0
C1191 C 0.70766 0.91164 0.51726 0.0
C1192 C 0.70265 0.91462 0.49954 0.0
C1193 C 0.68852 0.91297 0.49848 0.0
C1194 C 0.67927 0.90766 0.51525 0.0
C1195 C 0.68424 0.90449 0.53291 0.0
C1196 C 0.70479 0.91411 0.56912 0.0
C1197 C 0.69261 0.90942 0.58182 0.0
C1198 C 0.69248 0.91901 0.59623 0.0
C1199 C 0.70457 0.93339 0.5982 0.0
C1200 C 0.71699 0.93768 0.58604 0.0
C1201 C 0.71704 0.92816 0.57161 0.0
C1202 C 0.70362 0.89139 0.55703 0.0
C1203 C 0.71643 0.89127 0.56241 0.0
C1204 C 0.71627 0.878 0.56474 0.0
C1205 C 0.70327 0.86449 0.56144 0.0
C1206 C 0.6902 0.86462 0.55704 0.0
C1207 C 0.69035 0.87798 0.55498 0.0
C1208 C 0.70077 0.80295 0.53979 0.0
C1209 C 0.7107 0.80059 0.52877 0.0
C1210 C 0.70604 0.79178 0.51176 0.0
C1211 C 0.6913 0.78512 0.50543 0.0
C1212 C 0.68139 0.78778 0.51624 0.0
C1213 C 0.68607 0.79659 0.53338 0.0
C1214 C 0.70465 0.80276 0.57564 0.0
C1215 C 0.69108 0.79103 0.58208 0.0
C1216 C 0.69067 0.78104 0.59625 0.0
C1217 C 0.70383 0.78267 0.60422 0.0
C1218 C 0.71727 0.79512 0.59887 0.0
C1219 C 0.71765 0.80502 0.58466 0.0
C1220 C 0.70487 0.82426 0.55989 0.0
C1221 C 0.71654 0.83739 0.55254 0.0
C1222 C 0.71598 0.85036 0.55314 0.0
C1223 C 0.70371 0.85053 0.5613 0.0
C1224 C 0.69194 0.83727 0.56871 0.0
C1225 C 0.6925 0.82421 0.56796 0.0
H1226 H 0.24716 0.87948 0.53989 0.0
N1227 N 0.23321 0.88688 0.56645 0.0
H1228 H 0.25697 0.89096 0.50738 0.0
H1229 H 0.22913 0.90799 0.54846 0.0
H1230 H 0.23885 0.91947 0.51616 0.0
H1231 H 0.22053 0.90154 0.58347 0.0
H1232 H 0.23252 0.92224 0.60678 0.0
H1233 H 0.25888 0.89665 0.58449 0.0
H1234 H 0.27105 0.91737 0.60748 0.0
H1235 H 0.22623 0.86228 0.58587 0.0
H1236 H 0.20705 0.88357 0.55253 0.0
H1237 H 0.20214 0.83996 0.5881 0.0
H1238 H 0.18311 0.86109 0.55362 0.0
H1239 H 0.1347 0.77045 0.54565 0.0
H1240 H 0.12406 0.7609 0.51272 0.0
H1241 H 0.11535 0.79669 0.50541 0.0
H1242 H 0.12616 0.80622 0.5383 0.0
H1243 H 0.11535 0.80127 0.57052 0.0
H1244 H 0.09445 0.78941 0.59318 0.0
H1245 H 0.11025 0.76089 0.61414 0.0
H1246 H 0.13147 0.77328 0.5919 0.0
H1247 H 0.16328 0.79754 0.56472 0.0
H1248 H 0.18649 0.82077 0.56678 0.0
H1249 H 0.16237 0.84401 0.5723 0.0
N1250 N 0.13628 0.79337 0.56448 0.0
H1251 H 0.13926 0.82071 0.56925 0.0
C1252 C 0.23752 0.8929 0.54665 0.0
C1253 C 0.24517 0.88807 0.53462 0.0
C1254 C 0.25072 0.89462 0.51609 0.0
C1255 C 0.24878 0.9062 0.50933 0.0
C1256 C 0.24071 0.91072 0.52113 0.0
C1257 C 0.23508 0.90411 0.53958 0.0
C1258 C 0.23888 0.89757 0.58229 0.0
C1259 C 0.23143 0.90476 0.58898 0.0
C1260 C 0.23834 0.91665 0.6022 0.0
C1261 C 0.25277 0.92151 0.60896 0.0
C1262 C 0.25986 0.91382 0.60285 0.0
C1263 C 0.25297 0.902 0.58967 0.0
C1264 C 0.21854 0.87448 0.56878 0.0
C1265 C 0.21679 0.86211 0.57905 0.0
C1266 C 0.20302 0.84932 0.58012 0.0
C1267 C 0.19066 0.84855 0.57068 0.0
C1268 C 0.19231 0.86124 0.56113 0.0
C1269 C 0.20609 0.87412 0.56032 0.0
C1270 C 0.13112 0.78892 0.54442 0.0
C1271 C 0.13067 0.77631 0.53678 0.0
C1272 C 0.12464 0.77092 0.51799 0.0
C1273 C 0.11883 0.77803 0.50653 0.0
C1274 C 0.11961 0.79091 0.51402 0.0
C1275 C 0.12579 0.79637 0.53278 0.0
C1276 C 0.12509 0.78823 0.57965 0.0
C1277 C 0.11459 0.79279 0.58038 0.0
C1278 C 0.1025 0.78584 0.59321 0.0
C1279 C 0.10056 0.77408 0.6054 0.0
C1280 C 0.11145 0.77001 0.60521 0.0
C1281 C 0.12357 0.77704 0.59248 0.0
C1282 C 0.14956 0.80732 0.56703 0.0
C1283 C 0.16305 0.80766 0.56652 0.0
C1284 C 0.1763 0.82098 0.56786 0.0
C1285 C 0.17639 0.83435 0.56992 0.0
C1286 C 0.16278 0.83398 0.57056 0.0
C1287 C 0.14949 0.8206 0.56901 0.0
H1288 H 0.22684 0.32472 0.54677 0.0
N1289 N 0.22275 0.34684 0.56131 0.0
H1290 H 0.23918 0.32517 0.51604 0.0
H1291 H 0.2314 0.36678 0.53237 0.0
H1292 H 0.24269 0.3668 0.50051 0.0
H1293 H 0.24731 0.36583 0.57994 0.0
H1294 H 0.26152 0.36032 0.60381 0.0
H1295 H 0.21311 0.32023 0.58028 0.0
H1296 H 0.22714 0.31469 0.60415 0.0
H1297 H 0.20003 0.31941 0.55169 0.0
H1298 H 0.2104 0.36266 0.57088 0.0
H1299 H 0.17391 0.3116 0.55121 0.0
H1300 H 0.1844 0.35541 0.56895 0.0
H1301 H 0.09488 0.30025 0.5245 0.0
H1302 H 0.08766 0.30855 0.49477 0.0
H1303 H 0.12247 0.35312 0.50618 0.0
H1304 H 0.12937 0.34466 0.53623 0.0
H1305 H 0.11524 0.33985 0.56779 0.0
H1306 H 0.09769 0.33851 0.59277 0.0
H1307 H 0.07881 0.29138 0.59597 0.0
H1308 H 0.09644 0.29283 0.57079 0.0
H1309 H 0.13061 0.30669 0.52992 0.0
H1310 H 0.15644 0.31369 0.53304 0.0
H1311 H 0.16109 0.34224 0.58236 0.0
N1312 N 0.11576 0.31648 0.55062 0.0
H1313 H 0.13567 0.336 0.57818 0.0
C1314 C 0.22851 0.34595 0.54215 0.0
C1315 C 0.23034 0.33401 0.53688 0.0
C1316 C 0.23727 0.3342 0.51903 0.0
C1317 C 0.24214 0.3461 0.50568 0.0
C1318 C 0.23954 0.35764 0.51058 0.0
C1319 C 0.23292 0.3576 0.52868 0.0
C1320 C 0.22917 0.34354 0.57819 0.0
C1321 C 0.24267 0.35473 0.5856 0.0
C1322 C 0.25076 0.35155 0.59925 0.0
C1323 C 0.2455 0.33703 0.60574 0.0
C1324 C 0.23156 0.32595 0.59923 0.0
C1325 C 0.22345 0.32916 0.58563 0.0
C1326 C 0.20715 0.34158 0.56176 0.0
C1327 C 0.19666 0.3272 0.55601 0.0
C1328 C 0.18168 0.32284 0.55539 0.0
C1329 C 0.17688 0.33286 0.55995 0.0
C1330 C 0.1875 0.34723 0.56573 0.0
C1331 C 0.20241 0.35147 0.56674 0.0
C1332 C 0.11264 0.32177 0.53247 0.0
C1333 C 0.10102 0.31177 0.52043 0.0
C1334 C 0.09698 0.31655 0.50341 0.0
C1335 C 0.10454 0.33151 0.498 0.0
C1336 C 0.11634 0.34155 0.51 0.0
C1337 C 0.12036 0.33673 0.52711 0.0
C1338 C 0.10717 0.31639 0.56747 0.0
C1339 C 0.10755 0.32927 0.57414 0.0
C1340 C 0.09753 0.32849 0.58849 0.0
C1341 C 0.08683 0.31483 0.59628 0.0
C1342 C 0.08685 0.30204 0.59012 0.0
C1343 C 0.09695 0.30285 0.57589 0.0
C1344 C 0.13103 0.32069 0.55373 0.0
C1345 C 0.13725 0.31449 0.54138 0.0
C1346 C 0.15203 0.31841 0.54335 0.0
C1347 C 0.16099 0.32851 0.55807 0.0
C1348 C 0.15469 0.33463 0.57062 0.0
C1349 C 0.13996 0.33092 0.56834 0.0
C1350 C 0.00188 0.39514 0.08193 0.0
C1351 C 0.00922 0.40283 0.06466 0.0
C1352 C 0.0016 0.40266 0.09908 0.0
C1353 C 0.00865 0.41821 0.09883 0.0
C1354 C 0.01581 0.426 0.08128 0.0
C1355 C 0.0161 0.41822 0.06445 0.0
C1356 C 0.994 0.39397 0.11759 0.0
C1357 C 0.02327 0.44257 0.08034 0.0
C1358 C 0.99739 0.43651 0.13851 0.0
C1359 C 0.00897 0.4412 0.15224 0.0
C1360 C 0.99725 0.42921 0.12089 0.0
C1361 C 0.00885 0.42635 0.11711 0.0
C1362 C 0.02059 0.43111 0.13091 0.0
C1363 C 0.02056 0.43856 0.14825 0.0
C1364 C 0.98466 0.42452 0.10638 0.0
C1365 C 0.03306 0.4281 0.12754 0.0
H1366 H 0.99658 0.38324 0.08219 0.0
H1367 H 0.02174 0.4242 0.05109 0.0
H1368 H 0.00205 0.3973 0.13001 0.0
H1369 H 0.9853 0.39637 0.12231 0.0
H1370 H 0.98891 0.38192 0.11528 0.0
H1371 H 0.0278 0.44692 0.0653 0.0
H1372 H 0.01535 0.44622 0.08438 0.0
H1373 H 0.03241 0.44752 0.09131 0.0
H1374 H 0.98848 0.43864 0.14151 0.0
H1375 H 0.02943 0.44202 0.15897 0.0
H1376 H 0.97865 0.41238 0.10471 0.0
H1377 H 0.98898 0.42929 0.09146 0.0
H1378 H 0.97674 0.42798 0.11124 0.0
H1379 H 0.02866 0.41606 0.12648 0.0
H1380 H 0.04138 0.43257 0.1397 0.0
H1381 H 0.03865 0.43303 0.11322 0.0
C1382 C 0.61126 0.61782 0.07373 0.0
C1383 C 0.62591 0.62161 0.07012 0.0
C1384 C 0.60368 0.60953 0.09055 0.0
C1385 C 0.61097 0.60506 0.1042 0.0
C1386 C 0.62574 0.60879 0.10058 0.0
C1387 C 0.63302 0.61696 0.08351 0.0
C1388 C 0.5879 0.60568 0.0938 0.0
C1389 C 0.63392 0.60432 0.11489 0.0
C1390 C 0.59637 0.5968 0.15724 0.0
C1391 C 0.5884 0.58137 0.15736 0.0
C1392 C 0.60385 0.60462 0.14009 0.0
C1393 C 0.60325 0.59684 0.12256 0.0
C1394 C 0.59518 0.58126 0.12255 0.0
C1395 C 0.5879 0.5737 0.14 0.0
C1396 C 0.61245 0.62123 0.14076 0.0
C1397 C 0.59417 0.57258 0.10409 0.0
H1398 H 0.60569 0.62132 0.06337 0.0
H1399 H 0.64434 0.61988 0.0808 0.0
H1400 H 0.58073 0.59359 0.09529 0.0
H1401 H 0.587 0.6107 0.10789 0.0
H1402 H 0.58365 0.60953 0.0814 0.0
H1403 H 0.64528 0.60788 0.10976 0.0
H1404 H 0.63455 0.60921 0.12978 0.0
H1405 H 0.62788 0.5922 0.11677 0.0
H1406 H 0.59698 0.60276 0.17071 0.0
H1407 H 0.58167 0.56178 0.13999 0.0
H1408 H 0.60808 0.62578 0.12947 0.0
H1409 H 0.62416 0.62527 0.137 0.0
H1410 H 0.61195 0.62561 0.15563 0.0
H1411 H 0.5892 0.57564 0.09171 0.0
H1412 H 0.58745 0.56052 0.10655 0.0
H1413 H 0.60535 0.57529 0.09924 0.0
C1414 C 0.38904 0.00814 0.07938 0.0
C1415 C 0.39644 0.01192 0.06105 0.0
C1416 C 0.39549 0.00589 0.09637 0.0
C1417 C 0.40977 0.00769 0.09504 0.0
C1418 C 0.41764 0.01237 0.07685 0.0
C1419 C 0.41082 0.01431 0.06001 0.0
C1420 C 0.38668 0.00078 0.11543 0.0
C1421 C 0.43299 0.01468 0.07494 0.0
C1422 C 0.42917 0.0093 0.14375 0.0
C1423 C 0.42632 0.99478 0.14548 0.0
C1424 C 0.42417 0.01379 0.1272 0.0
C1425 C 0.41592 0.00346 0.11216 0.0
C1426 C 0.41316 0.98884 0.11367 0.0
C1427 C 0.41849 0.98473 0.13019 0.0
C1428 C 0.42749 0.02951 0.12599 0.0
C1429 C 0.40434 0.97746 0.09799 0.0
H1430 H 0.3779 0.00623 0.08025 0.0
H1431 H 0.41661 0.01729 0.04588 0.0
H1432 H 0.38404 0.98937 0.11881 0.0
H1433 H 0.39322 0.0078 0.12811 0.0
H1434 H 0.37621 0.00097 0.11444 0.0
H1435 H 0.43821 0.01989 0.06052 0.0
H1436 H 0.44008 0.02168 0.08729 0.0
H1437 H 0.43256 0.00393 0.07602 0.0
H1438 H 0.43504 0.01712 0.15556 0.0
H1439 H 0.41647 0.97357 0.13113 0.0
H1440 H 0.41708 0.0298 0.12672 0.0
H1441 H 0.43278 0.03444 0.11151 0.0
H1442 H 0.43484 0.03642 0.13824 0.0
H1443 H 0.39318 0.9761 0.09679 0.0
H1444 H 0.40317 0.96657 0.10137 0.0
H1445 H 0.4097 0.98117 0.08322 0.0
C1446 C 0.40126 0.01355 0.94675 0.0
C1447 C 0.39183 0.00125 0.95828 0.0
C1448 C 0.4083 0.01215 0.92982 0.0
C1449 C 0.40604 0.99813 0.92448 0.0
C1450 C 0.39658 0.98566 0.93612 0.0
C1451 C 0.38948 0.98736 0.95281 0.0
C1452 C 0.41812 0.02567 0.91763 0.0
C1453 C 0.39405 0.97058 0.93102 0.0
C1454 C 0.4141 0.99289 0.87086 0.0
C1455 C 0.42845 0.99526 0.87237 0.0
C1456 C 0.40659 0.9936 0.88774 0.0
C1457 C 0.41355 0.99657 0.90662 0.0
C1458 C 0.42792 0.99862 0.90831 0.0
C1459 C 0.43526 0.99806 0.89111 0.0
C1460 C 0.39138 0.99158 0.88528 0.0
C1461 C 0.43562 0.00159 0.92822 0.0
H1462 H 0.40306 0.0243 0.95088 0.0
H1463 H 0.38226 0.97783 0.96175 0.0
H1464 H 0.4295 0.02751 0.91735 0.0
H1465 H 0.41416 0.02404 0.90198 0.0
H1466 H 0.4185 0.03571 0.92359 0.0
H1467 H 0.38652 0.96205 0.94174 0.0
H1468 H 0.38929 0.96738 0.91584 0.0
H1469 H 0.40471 0.97075 0.93094 0.0
H1470 H 0.40889 0.99089 0.85634 0.0
H1471 H 0.44632 0.99979 0.89231 0.0
H1472 H 0.39149 0.00178 0.88983 0.0
H1473 H 0.38345 0.98261 0.89512 0.0
H1474 H 0.38735 0.98895 0.86967 0.0
H1475 H 0.43742 0.01218 0.93433 0.0
H1476 H 0.44645 0.00213 0.92714 0.0
H1477 H 0.42862 0.99286 0.93903 0.0
C1478 C 0.0055 0.40838 0.95972 0.0
C1479 C 0.01597 0.40409 0.96339 0.0
C1480 C 0.00595 0.41589 0.94221 0.0
C1481 C 0.01719 0.41928 0.92803 0.0
C1482 C 0.02794 0.41519 0.93177 0.0
C1483 C 0.02718 0.40759 0.94941 0.0
C1484 C 0.99423 0.41998 0.93873 0.0
C1485 C 0.04014 0.41869 0.91705 0.0
C1486 C 0.00881 0.42515 0.87482 0.0
C1487 C 0.01587 0.44054 0.87361 0.0
C1488 C 0.0094 0.41811 0.8923 0.0
C1489 C 0.01733 0.42667 0.909 0.0
C1490 C 0.02478 0.44222 0.90776 0.0
C1491 C 0.02395 0.44897 0.89009 0.0
C1492 C 0.00129 0.40151 0.89301 0.0
C1493 C 0.03338 0.45171 0.92523 0.0
H1494 H 0.99681 0.4057 0.97047 0.0
H1495 H 0.03532 0.40434 0.9522 0.0
H1496 H 0.99941 0.43201 0.93626 0.0
H1497 H 0.98786 0.41444 0.92509 0.0
H1498 H 0.98645 0.41685 0.95145 0.0
H1499 H 0.04796 0.41525 0.92252 0.0
H1500 H 0.03538 0.41305 0.9027 0.0
H1501 H 0.04636 0.43068 0.91397 0.0
H1502 H 0.00281 0.41855 0.86204 0.0
H1503 H 0.02934 0.46086 0.88936 0.0
H1504 H 0.99264 0.39752 0.90468 0.0
H1505 H 0.00899 0.39759 0.89709 0.0
H1506 H 0.99601 0.39647 0.87855 0.0
H1507 H 0.02581 0.44981 0.93786 0.0
H1508 H 0.03927 0.46362 0.92149 0.0
H1509 H 0.04155 0.44868 0.93042 0.0
C1510 C 0.61687 0.62669 0.95785 0.0
C1511 C 0.62127 0.62064 0.97318 0.0
C1512 C 0.60962 0.6184 0.94083 0.0
C1513 C 0.60672 0.60375 0.93915 0.0
C1514 C 0.6107 0.59745 0.9549 0.0
C1515 C 0.61793 0.60598 0.97172 0.0
C1516 C 0.60551 0.62548 0.92436 0.0
C1517 C 0.60778 0.58186 0.9537 0.0
C1518 C 0.57945 0.57762 0.9007 0.0
C1519 C 0.58893 0.57812 0.88558 0.0
C1520 C 0.58505 0.5861 0.9181 0.0
C1521 C 0.60046 0.5953 0.9204 0.0
C1522 C 0.61004 0.59607 0.90501 0.0
C1523 C 0.60416 0.58749 0.88781 0.0
C1524 C 0.5745 0.58499 0.9342 0.0
C1525 C 0.62654 0.60579 0.90683 0.0
H1526 H 0.61941 0.63801 0.95892 0.0
H1527 H 0.62126 0.60122 0.98355 0.0
H1528 H 0.61205 0.62658 0.91082 0.0
H1529 H 0.59372 0.61845 0.92036 0.0
H1530 H 0.60752 0.63656 0.92859 0.0
H1531 H 0.61068 0.57829 0.96775 0.0
H1532 H 0.596 0.57417 0.95033 0.0
H1533 H 0.61432 0.58095 0.94137 0.0
H1534 H 0.56768 0.57033 0.89914 0.0
H1535 H 0.61152 0.58814 0.87602 0.0
H1536 H 0.57638 0.59609 0.93795 0.0
H1537 H 0.5765 0.58039 0.94797 0.0
H1538 H 0.5628 0.57789 0.92972 0.0
H1539 H 0.62942 0.61734 0.90953 0.0
H1540 H 0.63244 0.60545 0.89327 0.0
H1541 H 0.6306 0.60227 0.9198 0.0
C1542 C 0.00404 0.60505 0.96799 0.0
C1543 C 0.00739 0.61962 0.96528 0.0
C1544 C 0.00169 0.59584 0.95158 0.0
C1545 C 0.00218 0.6012 0.93205 0.0
C1546 C 0.00563 0.61596 0.92927 0.0
C1547 C 0.00844 0.62508 0.94593 0.0
C1548 C 0.99854 0.58033 0.95513 0.0
C1549 C 0.00584 0.62198 0.90874 0.0
C1550 C 0.00647 0.58201 0.8867 0.0
C1551 C 0.99179 0.57313 0.88041 0.0
C1552 C 0.00997 0.59085 0.9038 0.0
C1553 C 0.9986 0.59126 0.91456 0.0
C1554 C 0.98379 0.58238 0.90837 0.0
C1555 C 0.98055 0.57325 0.89164 0.0
C1556 C 0.02587 0.59988 0.91023 0.0
C1557 C 0.97136 0.58273 0.91923 0.0
H1558 H 0.0033 0.60086 0.98299 0.0
H1559 H 0.01087 0.63631 0.94386 0.0
H1560 H 0.98718 0.57235 0.9502 0.0
H1561 H 0.00617 0.5782 0.9462 0.0
H1562 H 0.99966 0.57823 0.97109 0.0
H1563 H 0.00876 0.6337 0.90913 0.0
H1564 H 0.01386 0.62098 0.89909 0.0
H1565 H 0.99484 0.61544 0.90168 0.0
H1566 H 0.01533 0.58232 0.87807 0.0
H1567 H 0.96914 0.56622 0.88735 0.0
H1568 H 0.027 0.59772 0.92615 0.0
H1569 H 0.02963 0.61176 0.90883 0.0
H1570 H 0.03326 0.59745 0.9012 0.0
H1571 H 0.97092 0.57923 0.93493 0.0
H1572 H 0.96048 0.57546 0.91219 0.0
H1573 H 0.97331 0.59413 0.9195 0.0
C1574 C 0.41252 0.40252 0.96444 0.0
C1575 C 0.39783 0.3985 0.96823 0.0
C1576 C 0.41978 0.41049 0.94727 0.0
C1577 C 0.41219 0.41457 0.93358 0.0
C1578 C 0.39739 0.41066 0.93741 0.0
C1579 C 0.39037 0.40264 0.95469 0.0
C1580 C 0.43554 0.4144 0.94367 0.0
C1581 C 0.38896 0.41488 0.9232 0.0
C1582 C 0.43512 0.44574 0.89753 0.0
C1583 C 0.43442 0.43802 0.88011 0.0
C1584 C 0.42782 0.43826 0.915 0.0
C1585 C 0.41967 0.42269 0.91507 0.0
C1586 C 0.41888 0.41483 0.89754 0.0
C1587 C 0.42623 0.42259 0.88028 0.0
C1588 C 0.42892 0.44702 0.93341 0.0
C1589 C 0.41031 0.39823 0.89702 0.0
H1590 H 0.41834 0.39935 0.97484 0.0
H1591 H 0.37903 0.39958 0.95757 0.0
H1592 H 0.43631 0.40937 0.92951 0.0
H1593 H 0.44266 0.42649 0.94212 0.0
H1594 H 0.43995 0.41059 0.95592 0.0
H1595 H 0.37763 0.41127 0.92855 0.0
H1596 H 0.39489 0.42698 0.92111 0.0
H1597 H 0.38821 0.40987 0.90837 0.0
H1598 H 0.44155 0.45765 0.8976 0.0
H1599 H 0.42541 0.41654 0.86679 0.0
H1600 H 0.43421 0.44423 0.94566 0.0
H1601 H 0.41775 0.44412 0.93858 0.0
H1602 H 0.43539 0.45907 0.93076 0.0
H1603 H 0.41476 0.39376 0.90832 0.0
H1604 H 0.41074 0.39377 0.88218 0.0
H1605 H 0.39861 0.39417 0.90089 0.0
C1606 C 0.62012 0.99932 0.95109 0.0
C1607 C 0.61966 0.00703 0.96785 0.0
C1608 C 0.61206 0.99824 0.93382 0.0
C1609 C 0.6031 0.00478 0.93346 0.0
C1610 C 0.60242 0.01239 0.95048 0.0
C1611 C 0.61083 0.01355 0.9674 0.0
C1612 C 0.61328 0.99025 0.91586 0.0
C1613 C 0.59278 0.01927 0.95081 0.0
C1614 C 0.59272 0.01355 0.88307 0.0
C1615 C 0.57876 0.00123 0.87991 0.0
C1616 C 0.60074 0.01488 0.90047 0.0
C1617 C 0.59453 0.00375 0.91522 0.0
C1618 C 0.58026 0.99146 0.91231 0.0
C1619 C 0.5726 0.99028 0.89459 0.0
C1620 C 0.61602 0.02802 0.90286 0.0
C1621 C 0.57313 0.97952 0.92785 0.0
H1622 H 0.627 0.99433 0.95135 0.0
H1623 H 0.61038 0.01946 0.98038 0.0
H1624 H 0.60227 0.98091 0.9119 0.0
H1625 H 0.61728 0.99778 0.90283 0.0
H1626 H 0.62089 0.98595 0.91846 0.0
H1627 H 0.59315 0.02443 0.96542 0.0
H1628 H 0.59633 0.0278 0.93904 0.0
H1629 H 0.5812 0.01081 0.94755 0.0
H1630 H 0.59754 0.02194 0.87161 0.0
H1631 H 0.56176 0.9808 0.89219 0.0
H1632 H 0.62417 0.02428 0.90418 0.0
H1633 H 0.61668 0.03404 0.91676 0.0
H1634 H 0.6192 0.03577 0.8901 0.0
H1635 H 0.57971 0.97401 0.92988 0.0
H1636 H 0.5617 0.97107 0.92374 0.0
H1637 H 0.57289 0.98437 0.94243 0.0
C1638 C 0.60569 0.00886 0.06414 0.0
C1639 C 0.61976 0.01071 0.06676 0.0
C1640 C 0.59667 0.00703 0.08061 0.0
C1641 C 0.60166 0.00647 0.10004 0.0
C1642 C 0.616 0.0086 0.10274 0.0
C1643 C 0.62498 0.01095 0.08606 0.0
C1644 C 0.58167 0.00532 0.07717 0.0
C1645 C 0.62157 0.00764 0.12314 0.0
C1646 C 0.5826 0.00925 0.1467 0.0
C1647 C 0.57318 0.99435 0.15145 0.0
C1648 C 0.59157 0.0134 0.12963 0.0
C1649 C 0.59149 0.00241 0.11735 0.0
C1650 C 0.58194 0.98739 0.1219 0.0
C1651 C 0.57272 0.98357 0.1386 0.0
C1652 C 0.60128 0.02953 0.12489 0.0
C1653 C 0.58169 0.97531 0.10939 0.0
H1654 H 0.60172 0.00881 0.04919 0.0
H1655 H 0.63583 0.01227 0.08805 0.0
H1656 H 0.57299 0.99388 0.08059 0.0
H1657 H 0.57998 0.01269 0.08729 0.0
H1658 H 0.58019 0.00783 0.06153 0.0
H1659 H 0.63318 0.01011 0.12278 0.0
H1660 H 0.62078 0.01539 0.13356 0.0
H1661 H 0.61459 0.99639 0.12924 0.0
H1662 H 0.58322 0.01773 0.15651 0.0
H1663 H 0.5652 0.97204 0.14161 0.0
H1664 H 0.59962 0.03171 0.10919 0.0
H1665 H 0.61302 0.0327 0.12655 0.0
H1666 H 0.59903 0.03664 0.13481 0.0
H1667 H 0.57848 0.97602 0.09385 0.0
H1668 H 0.57392 0.96417 0.11528 0.0
H1669 H 0.59288 0.97667 0.10884 0.0
C1670 C 0.99909 0.61719 0.07789 0.0
C1671 C 0.0103 0.62244 0.06353 0.0
C1672 C 1.0001 0.61039 0.09542 0.0
C1673 C 0.01259 0.60881 0.09858 0.0
C1674 C 0.02375 0.61379 0.08388 0.0
C1675 C 0.02247 0.62055 0.06657 0.0
C1676 C 0.98799 0.60521 0.11075 0.0
C1677 C 0.03722 0.61229 0.08666 0.0
C1678 C 0.02482 0.60643 0.15102 0.0
C1679 C 0.02013 0.59141 0.15269 0.0
C1680 C 0.02207 0.61215 0.1337 0.0
C1681 C 0.01444 0.60262 0.11761 0.0
C1682 C 0.00935 0.58738 0.11936 0.0
C1683 C 0.01225 0.58195 0.1369 0.0
C1684 C 0.02762 0.62846 0.13247 0.0
C1685 C 0.00121 0.57689 0.10249 0.0
H1686 H 0.98966 0.61861 0.0756 0.0
H1687 H 0.03115 0.62454 0.0555 0.0
H1688 H 0.98375 0.59345 0.11437 0.0
H1689 H 0.99242 0.61154 0.12476 0.0
H1690 H 0.97865 0.60653 0.10559 0.0
H1691 H 0.04456 0.61611 0.07341 0.0
H1692 H 0.04359 0.61881 0.09978 0.0
H1693 H 0.0339 0.60065 0.08963 0.0
H1694 H 0.03068 0.61375 0.16332 0.0
H1695 H 0.00868 0.57034 0.13804 0.0
H1696 H 0.01843 0.63039 0.1287 0.0
H1697 H 0.03591 0.63342 0.12039 0.0
H1698 H 0.03274 0.63425 0.14664 0.0
H1699 H 0.99167 0.57799 0.09779 0.0
H1700 H 0.99719 0.56525 0.10667 0.0
H1701 H 0.0086 0.57967 0.08941 0.0
C1702 C 0.40984 0.41265 0.06839 0.0
C1703 C 0.40149 0.39725 0.06896 0.0
C1704 C 0.41785 0.42076 0.08512 0.0
C1705 C 0.41733 0.41327 0.10293 0.0
C1706 C 0.4089 0.39771 0.10359 0.0
C1707 C 0.40116 0.38988 0.08654 0.0
C1708 C 0.42687 0.43732 0.08374 0.0
C1709 C 0.40792 0.38934 0.12239 0.0
C1710 C 0.44731 0.43205 0.1421 0.0
C1711 C 0.44053 0.43679 0.15588 0.0
C1712 C 0.44 0.42464 0.1246 0.0
C1713 C 0.42548 0.42171 0.12096 0.0
C1714 C 0.41864 0.42661 0.13473 0.0
C1715 C 0.42629 0.43418 0.15197 0.0
C1716 C 0.44776 0.41982 0.11012 0.0
C1717 C 0.40311 0.42355 0.1315 0.0
H1718 H 0.41017 0.4184 0.0548 0.0
H1719 H 0.39468 0.37797 0.08708 0.0
H1720 H 0.42281 0.44235 0.09471 0.0
H1721 H 0.43854 0.44112 0.0875 0.0
H1722 H 0.42643 0.44143 0.06864 0.0
H1723 H 0.40083 0.37726 0.12048 0.0
H1724 H 0.41907 0.39177 0.12699 0.0
H1725 H 0.40341 0.39295 0.13471 0.0
H1726 H 0.45837 0.43416 0.14503 0.0
H1727 H 0.42096 0.43768 0.16272 0.0
H1728 H 0.44796 0.4243 0.09506 0.0
H1729 H 0.44165 0.40765 0.10886 0.0
H1730 H 0.45926 0.42347 0.11475 0.0
H1731 H 0.40229 0.42816 0.11699 0.0
H1732 H 0.39945 0.42828 0.14349 0.0
H1733 H 0.39541 0.4115 0.13092 0.0
C1734 C 0.68737 0.74925 0.40119 0.0
C1735 C 0.6757 0.73486 0.39835 0.0
C1736 C 0.68833 0.75717 0.41847 0.0
C1737 C 0.67734 0.75054 0.43332 0.0
C1738 C 0.6652 0.73622 0.4302 0.0
C1739 C 0.66451 0.72853 0.41271 0.0
C1740 C 0.70144 0.77243 0.42118 0.0
C1741 C 0.65324 0.72882 0.44568 0.0
C1742 C 0.691 0.76496 0.48534 0.0
C1743 C 0.6864 0.77531 0.48774 0.0
C1744 C 0.68757 0.75639 0.46804 0.0
C1745 C 0.67933 0.75819 0.4527 0.0
C1746 C 0.67411 0.76817 0.45536 0.0
C1747 C 0.67771 0.77662 0.47289 0.0
C1748 C 0.69327 0.74582 0.46585 0.0
C1749 C 0.66528 0.77037 0.43936 0.0
H1750 H 0.69601 0.75425 0.39009 0.0
H1751 H 0.65544 0.71742 0.41056 0.0
H1752 H 0.69773 0.78034 0.4249 0.0
H1753 H 0.70827 0.77242 0.43382 0.0
H1754 H 0.70847 0.77639 0.40765 0.0
H1755 H 0.64385 0.71831 0.44018 0.0
H1756 H 0.65784 0.72648 0.45918 0.0
H1757 H 0.64906 0.73621 0.45024 0.0
H1758 H 0.69748 0.7637 0.49696 0.0
H1759 H 0.67417 0.78463 0.47466 0.0
H1760 H 0.70142 0.74951 0.45354 0.0
H1761 H 0.68413 0.73469 0.46192 0.0
H1762 H 0.69864 0.74499 0.47969 0.0
H1763 H 0.67239 0.77569 0.42619 0.0
H1764 H 0.66078 0.77737 0.44453 0.0
H1765 H 0.65603 0.75962 0.43438 0.0
C1766 C 0.29751 0.94889 0.41401 0.0
C1767 C 0.28979 0.95312 0.40109 0.0
C1768 C 0.29088 0.94086 0.43143 0.0
C1769 C 0.27615 0.93687 0.43592 0.0
C1770 C 0.26823 0.94089 0.42272 0.0
C1771 C 0.27516 0.94903 0.40551 0.0
C1772 C 0.29971 0.93686 0.44522 0.0
C1773 C 0.25247 0.93676 0.42691 0.0
C1774 C 0.25475 0.90604 0.47313 0.0
C1775 C 0.25566 0.91396 0.49042 0.0
C1776 C 0.26136 0.91335 0.45526 0.0
C1777 C 0.26917 0.92892 0.45474 0.0
C1778 C 0.27019 0.93696 0.47218 0.0
C1779 C 0.26338 0.92938 0.48978 0.0
C1780 C 0.25991 0.9044 0.4369 0.0
C1781 C 0.27852 0.95357 0.47229 0.0
H1782 H 0.30882 0.95204 0.41066 0.0
H1783 H 0.26912 0.95222 0.39553 0.0
H1784 H 0.30079 0.94201 0.46003 0.0
H1785 H 0.29392 0.92478 0.44753 0.0
H1786 H 0.31092 0.94048 0.43936 0.0
H1787 H 0.24766 0.94021 0.41474 0.0
H1788 H 0.24558 0.92468 0.42891 0.0
H1789 H 0.25191 0.94198 0.44099 0.0
H1790 H 0.2487 0.89412 0.47353 0.0
H1791 H 0.26431 0.93555 0.50319 0.0
H1792 H 0.27098 0.90726 0.43134 0.0
H1793 H 0.25438 0.90707 0.42484 0.0
H1794 H 0.25351 0.89238 0.4398 0.0
H1795 H 0.29013 0.95776 0.46779 0.0
H1796 H 0.27843 0.95817 0.48716 0.0
H1797 H 0.27362 0.95777 0.46127 0.0
C1798 C 0.07886 0.35644 0.39888 0.0
C1799 C 0.06345 0.34952 0.39976 0.0
C1800 C 0.08699 0.35543 0.41487 0.0
C1801 C 0.07951 0.34721 0.43202 0.0
C1802 C 0.06401 0.34075 0.4333 0.0
C1803 C 0.05619 0.34203 0.4172 0.0
C1804 C 0.10351 0.36264 0.41306 0.0
C1805 C 0.05559 0.33186 0.45129 0.0
C1806 C 0.09513 0.32795 0.46287 0.0
C1807 C 0.09968 0.33652 0.48027 0.0
C1808 C 0.08905 0.33163 0.44679 0.0
C1809 C 0.08759 0.34429 0.44798 0.0
C1810 C 0.09281 0.35341 0.46507 0.0
C1811 C 0.09875 0.34939 0.48105 0.0
C1812 C 0.08362 0.32161 0.42883 0.0
C1813 C 0.09158 0.36707 0.46683 0.0
H1814 H 0.08453 0.36228 0.38546 0.0
H1815 H 0.04428 0.33667 0.41801 0.0
H1816 H 0.10895 0.36918 0.42662 0.0
H1817 H 0.10667 0.35405 0.41177 0.0
H1818 H 0.1078 0.36996 0.39982 0.0
H1819 H 0.04369 0.32833 0.45049 0.0
H1820 H 0.05666 0.3219 0.45247 0.0
H1821 H 0.06025 0.33835 0.46512 0.0
H1822 H 0.0961 0.31817 0.46196 0.0
H1823 H 0.10213 0.35603 0.49447 0.0
H1824 H 0.08855 0.328 0.415 0.0
H1825 H 0.0715 0.31657 0.42752 0.0
H1826 H 0.08631 0.31266 0.42974 0.0
H1827 H 0.09592 0.37391 0.45321 0.0
H1828 H 0.09763 0.37383 0.47999 0.0
H1829 H 0.07982 0.3639 0.46822 0.0
C1830 C 0.0673 0.33239 0.29948 0.0
C1831 C 0.05858 0.33902 0.29824 0.0
C1832 C 0.07666 0.33357 0.28371 0.0
C1833 C 0.07738 0.34166 0.26644 0.0
C1834 C 0.06806 0.34775 0.26477 0.0
C1835 C 0.05875 0.3463 0.28064 0.0
C1836 C 0.08626 0.32674 0.28593 0.0
C1837 C 0.0685 0.3565 0.24664 0.0
C1838 C 0.11267 0.36229 0.23668 0.0
C1839 C 0.1091 0.354 0.21908 0.0
C1840 C 0.10267 0.35803 0.25255 0.0
C1841 C 0.08877 0.34505 0.2509 0.0
C1842 C 0.08541 0.33615 0.23366 0.0
C1843 C 0.0956 0.34076 0.2179 0.0
C1844 C 0.10672 0.36784 0.27068 0.0
C1845 C 0.07078 0.32214 0.23145 0.0
H1846 H 0.06718 0.3267 0.31303 0.0
H1847 H 0.052 0.35141 0.27955 0.0
H1848 H 0.08566 0.32047 0.27231 0.0
H1849 H 0.09791 0.33554 0.2878 0.0
H1850 H 0.08306 0.31926 0.299 0.0
H1851 H 0.05984 0.35963 0.24705 0.0
H1852 H 0.07941 0.36669 0.2457 0.0
H1853 H 0.06706 0.35009 0.23285 0.0
H1854 H 0.12321 0.37237 0.23788 0.0
H1855 H 0.09271 0.33431 0.20432 0.0
H1856 H 0.10515 0.36136 0.28445 0.0
H1857 H 0.09935 0.37254 0.27173 0.0
H1858 H 0.1183 0.37704 0.2702 0.0
H1859 H 0.06816 0.31532 0.24511 0.0
H1860 H 0.07063 0.31552 0.21845 0.0
H1861 H 0.06193 0.32487 0.22944 0.0
C1862 C 0.68069 0.74767 0.29986 0.0
C1863 C 0.68495 0.73698 0.29961 0.0
C1864 C 0.68197 0.75595 0.28279 0.0
C1865 C 0.68756 0.75342 0.26497 0.0
C1866 C 0.69207 0.74277 0.26468 0.0
C1867 C 0.69076 0.73471 0.28205 0.0
C1868 C 0.67715 0.76728 0.28375 0.0
C1869 C 0.69803 0.73972 0.24593 0.0
C1870 C 0.67698 0.76409 0.21614 0.0
C1871 C 0.6898 0.77736 0.21156 0.0
C1872 C 0.67613 0.75616 0.23342 0.0
C1873 C 0.68836 0.76169 0.24652 0.0
C1874 C 0.70127 0.77516 0.24209 0.0
C1875 C 0.70186 0.78281 0.22462 0.0
C1876 C 0.66221 0.74178 0.23757 0.0
C1877 C 0.71447 0.78151 0.25581 0.0
H1878 H 0.67623 0.74952 0.31341 0.0
H1879 H 0.69405 0.72644 0.28178 0.0
H1880 H 0.68631 0.7782 0.27909 0.0
H1881 H 0.66789 0.76427 0.27325 0.0
H1882 H 0.67355 0.7683 0.29895 0.0
H1883 H 0.70134 0.73131 0.24828 0.0
H1884 H 0.68956 0.73581 0.23401 0.0
H1885 H 0.70772 0.74998 0.2405 0.0
H1886 H 0.6677 0.75974 0.20596 0.0
H1887 H 0.71174 0.79313 0.22121 0.0
H1888 H 0.65751 0.74235 0.25212 0.0
H1889 H 0.66474 0.73275 0.23858 0.0
H1890 H 0.65372 0.73897 0.22583 0.0
H1891 H 0.71126 0.78325 0.27088 0.0
H1892 H 0.72363 0.79215 0.25028 0.0
H1893 H 0.71854 0.77365 0.25744 0.0
C1894 C 0.29343 0.96302 0.28014 0.0
C1895 C 0.28601 0.95943 0.29845 0.0
C1896 C 0.28692 0.95435 0.26314 0.0
C1897 C 0.27256 0.94193 0.26445 0.0
C1898 C 0.26469 0.9388 0.28262 0.0
C1899 C 0.27156 0.94751 0.29946 0.0
C1900 C 0.29574 0.95797 0.2441 0.0
C1901 C 0.24926 0.92585 0.28452 0.0
C1902 C 0.25268 0.92391 0.21608 0.0
C1903 C 0.25514 0.91198 0.2146 0.0
C1904 C 0.25806 0.93363 0.23236 0.0
C1905 C 0.26631 0.93153 0.24737 0.0
C1906 C 0.26878 0.91949 0.24604 0.0
C1907 C 0.26305 0.9098 0.22982 0.0
C1908 C 0.25504 0.94623 0.23341 0.0
C1909 C 0.2776 0.9169 0.26168 0.0
H1910 H 0.30462 0.97219 0.27931 0.0
H1911 H 0.26576 0.94474 0.31357 0.0
H1912 H 0.29832 0.94916 0.24082 0.0
H1913 H 0.28924 0.95845 0.23137 0.0
H1914 H 0.30625 0.96862 0.24506 0.0
H1915 H 0.24407 0.92589 0.29893 0.0
H1916 H 0.24223 0.92586 0.27216 0.0
H1917 H 0.24955 0.91546 0.28345 0.0
H1918 H 0.24678 0.92585 0.20431 0.0
H1919 H 0.26477 0.90047 0.22909 0.0
H1920 H 0.26556 0.95685 0.23278 0.0
H1921 H 0.24969 0.94594 0.2478 0.0
H1922 H 0.24784 0.94593 0.22105 0.0
H1923 H 0.28879 0.9267 0.26286 0.0
H1924 H 0.27872 0.90716 0.25829 0.0
H1925 H 0.27227 0.91525 0.27647 0.0
C1926 C 0.69754 0.96265 0.2907 0.0
C1927 C 0.68339 0.95756 0.29843 0.0
C1928 C 0.6997 0.95616 0.2737 0.0
C1929 C 0.68737 0.9445 0.264 0.0
C1930 C 0.67307 0.93925 0.27185 0.0
C1931 C 0.67127 0.94575 0.28909 0.0
C1932 C 0.71514 0.96187 0.26599 0.0
C1933 C 0.65962 0.92702 0.26176 0.0
C1934 C 0.69055 0.938 0.20898 0.0
C1935 C 0.69178 0.92533 0.20951 0.0
C1936 C 0.68919 0.9444 0.22662 0.0
C1937 C 0.68934 0.93811 0.24525 0.0
C1938 C 0.69092 0.9255 0.24587 0.0
C1939 C 0.69197 0.91916 0.22796 0.0
C1940 C 0.68726 0.95768 0.2253 0.0
C1941 C 0.69139 0.91864 0.26545 0.0
H1942 H 0.70694 0.97173 0.29795 0.0
H1943 H 0.6603 0.94183 0.29496 0.0
H1944 H 0.71744 0.95269 0.26454 0.0
H1945 H 0.71624 0.96667 0.25093 0.0
H1946 H 0.7236 0.9704 0.2759 0.0
H1947 H 0.64929 0.9241 0.2699 0.0
H1948 H 0.65872 0.93037 0.24637 0.0
H1949 H 0.66065 0.91705 0.26057 0.0
H1950 H 0.69024 0.94268 0.1947 0.0
H1951 H 0.69301 0.90941 0.22836 0.0
H1952 H 0.69608 0.96697 0.23382 0.0
H1953 H 0.67659 0.9551 0.2321 0.0
H1954 H 0.6875 0.96129 0.20967 0.0
H1955 H 0.7002 0.92702 0.27511 0.0
H1956 H 0.69342 0.90932 0.2634 0.0
H1957 H 0.68081 0.91458 0.27347 0.0
C1958 C 0.06325 0.74641 0.29857 0.0
C1959 C 0.06078 0.73218 0.30194 0.0
C1960 C 0.07104 0.75447 0.28165 0.0
C1961 C 0.07636 0.74808 0.26777 0.0
C1962 C 0.07367 0.73362 0.27097 0.0
C1963 C 0.06597 0.72588 0.28804 0.0
C1964 C 0.07375 0.76988 0.27876 0.0
C1965 C 0.07903 0.72635 0.25646 0.0
C1966 C 0.08542 0.76252 0.21469 0.0
C1967 C 0.10087 0.77085 0.21516 0.0
C1968 C 0.0773 0.75532 0.2318 0.0
C1969 C 0.08478 0.75644 0.24986 0.0
C1970 C 0.10036 0.76499 0.25053 0.0
C1971 C 0.10821 0.77207 0.23317 0.0
C1972 C 0.06072 0.74623 0.23043 0.0
C1973 C 0.10873 0.76647 0.26952 0.0
H1974 H 0.05932 0.75135 0.30932 0.0
H1975 H 0.06407 0.71487 0.29054 0.0
H1976 H 0.08577 0.77779 0.27838 0.0
H1977 H 0.06915 0.77071 0.26424 0.0
H1978 H 0.06876 0.7732 0.2908 0.0
H1979 H 0.07578 0.71494 0.26094 0.0
H1980 H 0.07454 0.72604 0.24137 0.0
H1981 H 0.09122 0.73285 0.25533 0.0
H1982 H 0.07967 0.76132 0.20077 0.0
H1983 H 0.12013 0.77863 0.23371 0.0
H1984 H 0.05559 0.74985 0.24189 0.0
H1985 H 0.05707 0.73451 0.23345 0.0
H1986 H 0.05653 0.74703 0.21553 0.0
H1987 H 0.10469 0.77066 0.2817 0.0
H1988 H 0.12078 0.77399 0.26778 0.0
H1989 H 0.1068 0.75551 0.27421 0.0
C1990 C 0.29437 0.34331 0.27957 0.0
C1991 C 0.28816 0.34264 0.29828 0.0
C1992 C 0.28836 0.34571 0.26222 0.0
C1993 C 0.2756 0.34703 0.26365 0.0
C1994 C 0.26882 0.34551 0.28243 0.0
C1995 C 0.27533 0.34357 0.29957 0.0
C1996 C 0.29611 0.34762 0.24256 0.0
C1997 C 0.25497 0.34641 0.2845 0.0
C1998 C 0.26929 0.36989 0.22534 0.0
C1999 C 0.2593 0.35913 0.21212 0.0
C2000 C 0.27486 0.3661 0.2419 0.0
C2001 C 0.26998 0.35111 0.24582 0.0
C2002 C 0.25968 0.34013 0.23287 0.0
C2003 C 0.25463 0.34428 0.21604 0.0
C2004 C 0.28601 0.37817 0.25519 0.0
C2005 C 0.25396 0.32401 0.23683 0.0
H2006 H 0.30437 0.34271 0.27861 0.0
H2007 H 0.27047 0.34295 0.31405 0.0
H2008 H 0.28826 0.34016 0.23116 0.0
H2009 H 0.30049 0.35905 0.23713 0.0
H2010 H 0.30539 0.34542 0.24378 0.0
H2011 H 0.25022 0.34342 0.29973 0.0
H2012 H 0.25744 0.35777 0.28122 0.0
H2013 H 0.24656 0.339 0.27359 0.0
H2014 H 0.27276 0.38136 0.22284 0.0
H2015 H 0.24713 0.33584 0.20584 0.0
H2016 H 0.29606 0.37724 0.2565 0.0
H2017 H 0.28143 0.37702 0.27041 0.0
H2018 H 0.28924 0.38931 0.2495 0.0
H2019 H 0.26318 0.32172 0.2365 0.0
H2020 H 0.24556 0.31681 0.22573 0.0
H2021 H 0.249 0.32106 0.25193 0.0
C2022 C 0.27718 0.34812 0.3986 0.0
C2023 C 0.29034 0.34787 0.4005 0.0
C2024 C 0.2695 0.34852 0.41548 0.0
C2025 C 0.27489 0.34816 0.43472 0.0
C2026 C 0.28822 0.34793 0.4367 0.0
C2027 C 0.29592 0.34801 0.41953 0.0
C2028 C 0.25558 0.34922 0.41274 0.0
C2029 C 0.29412 0.34716 0.45694 0.0
C2030 C 0.26164 0.36016 0.47981 0.0
C2031 C 0.25027 0.34667 0.4871 0.0
C2032 C 0.26956 0.36084 0.4626 0.0
C2033 C 0.26639 0.34768 0.45273 0.0
C2034 C 0.25504 0.33402 0.46001 0.0
C2035 C 0.24697 0.3337 0.47688 0.0
C2036 C 0.28136 0.37565 0.45501 0.0
C2037 C 0.25148 0.31971 0.45008 0.0
H2038 H 0.27292 0.34811 0.38386 0.0
H2039 H 0.30604 0.34768 0.42099 0.0
H2040 H 0.24603 0.3391 0.41878 0.0
H2041 H 0.25637 0.35867 0.42116 0.0
H2042 H 0.25338 0.35034 0.39682 0.0
H2043 H 0.30464 0.34707 0.45592 0.0
H2044 H 0.29594 0.35667 0.46619 0.0
H2045 H 0.2859 0.33705 0.46482 0.0
H2046 H 0.26456 0.37026 0.48769 0.0
H2047 H 0.23804 0.32322 0.482 0.0
H2048 H 0.2792 0.37704 0.43919 0.0
H2049 H 0.29225 0.37634 0.4556 0.0
H2050 H 0.28199 0.3849 0.46381 0.0
H2051 H 0.24777 0.31952 0.43455 0.0
H2052 H 0.24275 0.30998 0.4581 0.0
H2053 H 0.26152 0.31872 0.44935 0.0
C2054 C 0.664 0.94065 0.40077 0.0
C2055 C 0.67662 0.95362 0.39469 0.0
C2056 C 0.66445 0.93266 0.41733 0.0
C2057 C 0.67775 0.93791 0.42817 0.0
C2058 C 0.69047 0.95104 0.4221 0.0
C2059 C 0.68977 0.95866 0.40537 0.0
C2060 C 0.65072 0.9186 0.42321 0.0
C2061 C 0.70483 0.95713 0.43339 0.0
C2062 C 0.67831 0.92734 0.48216 0.0
C2063 C 0.68395 0.9178 0.48039 0.0
C2064 C 0.67563 0.9335 0.46521 0.0
C2065 C 0.6785 0.92989 0.44603 0.0
C2066 C 0.68347 0.91966 0.44414 0.0
C2067 C 0.68625 0.91383 0.46136 0.0
C2068 C 0.67051 0.9445 0.46789 0.0
C2069 C 0.68644 0.91534 0.42395 0.0
H2070 H 0.65383 0.9367 0.3925 0.0
H2071 H 0.69954 0.96872 0.4008 0.0
H2072 H 0.65297 0.90934 0.42325 0.0
H2073 H 0.64741 0.9196 0.43857 0.0
H2074 H 0.64135 0.91583 0.41297 0.0
H2075 H 0.71365 0.96758 0.42687 0.0
H2076 H 0.70319 0.95917 0.44916 0.0
H2077 H 0.70863 0.94901 0.43343 0.0
H2078 H 0.67666 0.93056 0.49686 0.0
H2079 H 0.69048 0.90634 0.45996 0.0
H2080 H 0.6608 0.94158 0.45833 0.0
H2081 H 0.67939 0.95556 0.46319 0.0
H2082 H 0.66759 0.94517 0.48362 0.0
H2083 H 0.67692 0.91214 0.41385 0.0
H2084 H 0.68866 0.90608 0.42492 0.0
H2085 H 0.69614 0.9249 0.41708 0.0
C2086 C 0.07949 0.74788 0.40014 0.0
C2087 C 0.07015 0.7326 0.40143 0.0
C2088 C 0.0882 0.75598 0.41643 0.0
C2089 C 0.08742 0.74864 0.43448 0.0
C2090 C 0.07815 0.73319 0.43577 0.0
C2091 C 0.06968 0.72534 0.4192 0.0
C2092 C 0.09807 0.77242 0.41442 0.0
C2093 C 0.07694 0.72497 0.45481 0.0
C2094 C 0.11766 0.76631 0.47351 0.0
C2095 C 0.11134 0.77155 0.48732 0.0
C2096 C 0.11018 0.75919 0.45596 0.0
C2097 C 0.09598 0.75712 0.45225 0.0
C2098 C 0.08968 0.76265 0.46594 0.0
C2099 C 0.09747 0.76986 0.48327 0.0
C2100 C 0.11733 0.75361 0.4416 0.0
C2101 C 0.07451 0.76056 0.4626 0.0
H2102 H 0.07992 0.75354 0.38641 0.0
H2103 H 0.06244 0.71354 0.42029 0.0
H2104 H 0.09452 0.77814 0.425 0.0
H2105 H 0.10958 0.77562 0.41832 0.0
H2106 H 0.09792 0.77637 0.3991 0.0
H2107 H 0.06942 0.71292 0.45326 0.0
H2108 H 0.08796 0.72697 0.45938 0.0
H2109 H 0.0728 0.72907 0.467 0.0
H2110 H 0.12845 0.76773 0.47651 0.0
H2111 H 0.09247 0.77373 0.49401 0.0
H2112 H 0.11761 0.75793 0.42641 0.0
H2113 H 0.11075 0.74144 0.44073 0.0
H2114 H 0.12875 0.75684 0.4461 0.0
H2115 H 0.07397 0.76506 0.44786 0.0
H2116 H 0.07141 0.76599 0.47429 0.0
H2117 H 0.06623 0.74865 0.46249 0.0
C2118 C 0.35585 0.07587 0.74262 0.0
C2119 C 0.34348 0.06733 0.73064 0.0
C2120 C 0.35481 0.08294 0.75975 0.0
C2121 C 0.34112 0.08162 0.76487 0.0
C2122 C 0.32863 0.07319 0.75266 0.0
C2123 C 0.32994 0.06604 0.73575 0.0
C2124 C 0.36833 0.09166 0.77254 0.0
C2125 C 0.31389 0.07169 0.7575 0.0
C2126 C 0.33522 0.08804 0.81895 0.0
C2127 C 0.33843 0.1027 0.81854 0.0
C2128 C 0.33596 0.08102 0.80156 0.0
C2129 C 0.33982 0.0888 0.78327 0.0
C2130 C 0.34285 0.10353 0.78271 0.0
C2131 C 0.34223 0.11035 0.8004 0.0
C2132 C 0.33287 0.06538 0.80284 0.0
C2133 C 0.34682 0.11212 0.76344 0.0
H2134 H 0.36634 0.07685 0.73875 0.0
H2135 H 0.32037 0.05951 0.72647 0.0
H2136 H 0.37086 0.10322 0.77377 0.0
H2137 H 0.36624 0.08703 0.78784 0.0
H2138 H 0.37816 0.09163 0.76646 0.0
H2139 H 0.30539 0.06517 0.74611 0.0
H2140 H 0.30999 0.06626 0.7722 0.0
H2141 H 0.31499 0.08273 0.75859 0.0
H2142 H 0.33247 0.08216 0.83301 0.0
H2143 H 0.3446 0.12165 0.80004 0.0
H2144 H 0.34275 0.0649 0.79811 0.0
H2145 H 0.32378 0.05823 0.79256 0.0
H2146 H 0.32983 0.06081 0.81816 0.0
H2147 H 0.35719 0.11328 0.75742 0.0
H2148 H 0.34827 0.12327 0.76539 0.0
H2149 H 0.33809 0.10609 0.75213 0.0
C2150 C 0.9384 0.27932 0.72909 0.0
C2151 C 0.95309 0.29064 0.73072 0.0
C2152 C 0.92972 0.27304 0.74614 0.0
C2153 C 0.93577 0.27853 0.76521 0.0
C2154 C 0.95069 0.28981 0.76694 0.0
C2155 C 0.95924 0.2956 0.74965 0.0
C2156 C 0.91399 0.26074 0.7437 0.0
C2157 C 0.95745 0.29619 0.78698 0.0
C2158 C 0.90882 0.27414 0.80606 0.0
C2159 C 0.90828 0.26274 0.81767 0.0
C2160 C 0.91786 0.27948 0.78915 0.0
C2161 C 0.92627 0.273 0.78325 0.0
C2162 C 0.92556 0.26129 0.79455 0.0
C2163 C 0.91675 0.25644 0.81175 0.0
C2164 C 0.91848 0.29215 0.77766 0.0
C2165 C 0.93413 0.2539 0.78849 0.0
H2166 H 0.93366 0.27541 0.71444 0.0
H2167 H 0.97057 0.30444 0.75091 0.0
H2168 H 0.91189 0.25128 0.7533 0.0
H2169 H 0.90635 0.26454 0.74853 0.0
H2170 H 0.91137 0.25689 0.72801 0.0
H2171 H 0.96932 0.30458 0.78582 0.0
H2172 H 0.95156 0.30139 0.79384 0.0
H2173 H 0.95623 0.28736 0.7972 0.0
H2174 H 0.90213 0.27891 0.81013 0.0
H2175 H 0.9167 0.24784 0.8207 0.0
H2176 H 0.91448 0.28864 0.76221 0.0
H2177 H 0.93004 0.30132 0.77665 0.0
H2178 H 0.91171 0.29635 0.78466 0.0
H2179 H 0.93135 0.24985 0.77292 0.0
H2180 H 0.93185 0.24449 0.79834 0.0
H2181 H 0.94611 0.26194 0.78893 0.0
C2182 C 0.74616 0.67721 0.72373 0.0
C2183 C 0.73405 0.67934 0.7256 0.0
C2184 C 0.75378 0.67665 0.7406 0.0
C2185 C 0.74918 0.67825 0.75981 0.0
C2186 C 0.73737 0.68105 0.76174 0.0
C2187 C 0.72994 0.68156 0.7446 0.0
C2188 C 0.76634 0.67367 0.73792 0.0
C2189 C 0.73218 0.68289 0.78195 0.0
C2190 C 0.75623 0.6592 0.80296 0.0
C2191 C 0.76851 0.6709 0.81223 0.0
C2192 C 0.74989 0.66147 0.7859 0.0
C2193 C 0.75593 0.67582 0.77789 0.0
C2194 C 0.76832 0.6877 0.78713 0.0
C2195 C 0.77447 0.6851 0.8042 0.0
C2196 C 0.73666 0.6485 0.77652 0.0
C2197 C 0.77507 0.70314 0.77899 0.0
H2198 H 0.74942 0.67553 0.70908 0.0
H2199 H 0.7206 0.68323 0.74614 0.0
H2200 H 0.7762 0.6819 0.74623 0.0
H2201 H 0.76319 0.66269 0.74411 0.0
H2202 H 0.76936 0.67393 0.72199 0.0
H2203 H 0.72371 0.68624 0.78083 0.0
H2204 H 0.7274 0.67235 0.79026 0.0
H2205 H 0.74159 0.69124 0.79083 0.0
H2206 H 0.75138 0.64825 0.80927 0.0
H2207 H 0.78404 0.69417 0.81117 0.0
H2208 H 0.73907 0.64727 0.76076 0.0
H2209 H 0.72717 0.6504 0.77647 0.0
H2210 H 0.73337 0.63803 0.78449 0.0
H2211 H 0.77872 0.70344 0.7634 0.0
H2212 H 0.78466 0.71118 0.78796 0.0
H2213 H 0.76672 0.70666 0.77872 0.0
C2214 C 0.73503 0.67809 0.61325 0.0
C2215 C 0.72492 0.6659 0.62442 0.0
C2216 C 0.74138 0.67631 0.59585 0.0
C2217 C 0.73769 0.66199 0.58963 0.0
C2218 C 0.72754 0.64963 0.60091 0.0
C2219 C 0.72117 0.65173 0.61811 0.0
C2220 C 0.75199 0.68975 0.58408 0.0
C2221 C 0.72349 0.63421 0.59488 0.0
C2222 C 0.74443 0.65702 0.53526 0.0
C2223 C 0.75822 0.65795 0.53622 0.0
C2224 C 0.73753 0.65813 0.55256 0.0
C2225 C 0.74451 0.66001 0.57129 0.0
C2226 C 0.75827 0.6606 0.57238 0.0
C2227 C 0.76502 0.65968 0.5548 0.0
C2228 C 0.72297 0.65769 0.55073 0.0
C2229 C 0.76595 0.66238 0.5921 0.0
H2230 H 0.73791 0.68907 0.61803 0.0
H2231 H 0.7134 0.64228 0.62675 0.0
H2232 H 0.7629 0.69049 0.58333 0.0
H2233 H 0.74798 0.68886 0.56855 0.0
H2234 H 0.75346 0.70009 0.59072 0.0
H2235 H 0.71555 0.62579 0.60539 0.0
H2236 H 0.71856 0.63176 0.57974 0.0
H2237 H 0.73354 0.63325 0.59423 0.0
H2238 H 0.73923 0.65585 0.52088 0.0
H2239 H 0.77563 0.66027 0.55558 0.0
H2240 H 0.72419 0.66825 0.55598 0.0
H2241 H 0.71459 0.64887 0.56034 0.0
H2242 H 0.71881 0.65576 0.53515 0.0
H2243 H 0.7688 0.67312 0.59885 0.0
H2244 H 0.7762 0.66183 0.59051 0.0
H2245 H 0.75848 0.65367 0.60264 0.0
C2246 C 0.34596 0.08198 0.63249 0.0
C2247 C 0.35199 0.07273 0.63192 0.0
C2248 C 0.3464 0.09017 0.61567 0.0
C2249 C 0.35282 0.08887 0.5978 0.0
C2250 C 0.35904 0.07963 0.5972 0.0
C2251 C 0.35865 0.07176 0.61433 0.0
C2252 C 0.33986 0.10007 0.61698 0.0
C2253 C 0.36584 0.07783 0.57835 0.0
C2254 C 0.34095 0.0977 0.54862 0.0
C2255 C 0.35311 0.11145 0.54399 0.0
C2256 C 0.34066 0.09028 0.56618 0.0
C2257 C 0.35273 0.09689 0.57954 0.0
C2258 C 0.36487 0.11096 0.57518 0.0
C2259 C 0.36496 0.11803 0.55737 0.0
C2260 C 0.3276 0.07521 0.57018 0.0
C2261 C 0.37783 0.11847 0.58921 0.0
H2262 H 0.34085 0.08281 0.64609 0.0
H2263 H 0.36327 0.06456 0.6138 0.0
H2264 H 0.34818 0.11144 0.61253 0.0
H2265 H 0.33048 0.09623 0.60646 0.0
H2266 H 0.3359 0.10037 0.63222 0.0
H2267 H 0.37033 0.07033 0.58042 0.0
H2268 H 0.35746 0.07337 0.56631 0.0
H2269 H 0.37487 0.08867 0.57326 0.0
H2270 H 0.33185 0.09252 0.53818 0.0
H2271 H 0.37431 0.12873 0.55388 0.0
H2272 H 0.32261 0.07509 0.5848 0.0
H2273 H 0.33127 0.06699 0.57095 0.0
H2274 H 0.31899 0.07173 0.55847 0.0
H2275 H 0.374 0.11925 0.60433 0.0
H2276 H 0.38607 0.1297 0.5841 0.0
H2277 H 0.38335 0.11185 0.59054 0.0
C2278 C 0.95174 0.29751 0.61321 0.0
C2279 C 0.95157 0.28999 0.63056 0.0
C2280 C 0.94392 0.2898 0.59613 0.0
C2281 C 0.93557 0.27423 0.59656 0.0
C2282 C 0.93511 0.26662 0.6142 0.0
C2283 C 0.94322 0.27458 0.63094 0.0
C2284 C 0.94483 0.2983 0.57751 0.0
C2285 C 0.92617 0.25004 0.61535 0.0
C2286 C 0.90576 0.25496 0.55728 0.0
C2287 C 0.91269 0.25021 0.54378 0.0
C2288 C 0.91301 0.26267 0.57465 0.0
C2289 C 0.92762 0.26589 0.5784 0.0
C2290 C 0.93467 0.26113 0.56477 0.0
C2291 C 0.92707 0.25325 0.5477 0.0
C2292 C 0.90505 0.26734 0.589 0.0
C2293 C 0.9503 0.26452 0.56809 0.0
H2294 H 0.95823 0.30942 0.61283 0.0
H2295 H 0.943 0.26873 0.64437 0.0
H2296 H 0.94962 0.29503 0.56516 0.0
H2297 H 0.93364 0.29566 0.57276 0.0
H2298 H 0.95167 0.31038 0.57969 0.0
H2299 H 0.92644 0.24583 0.63045 0.0
H2300 H 0.91453 0.24618 0.6113 0.0
H2301 H 0.93044 0.24514 0.60447 0.0
H2302 H 0.8946 0.25252 0.55433 0.0
H2303 H 0.93251 0.24974 0.53713 0.0
H2304 H 0.91113 0.27949 0.59052 0.0
H2305 H 0.90464 0.26269 0.604 0.0
H2306 H 0.89362 0.26372 0.5841 0.0
H2307 H 0.95778 0.2766 0.56908 0.0
H2308 H 0.95424 0.26016 0.55596 0.0
H2309 H 0.95111 0.25972 0.58244 0.0
C2310 C 0.362 0.29673 0.62054 0.0
C2311 C 0.34823 0.2933 0.62825 0.0
C2312 C 0.36309 0.28954 0.60353 0.0
C2313 C 0.35009 0.27886 0.59383 0.0
C2314 C 0.33616 0.27539 0.60155 0.0
C2315 C 0.3354 0.28256 0.61877 0.0
C2316 C 0.37814 0.29337 0.59592 0.0
C2317 C 0.32205 0.26424 0.59146 0.0
C2318 C 0.35251 0.27082 0.53919 0.0
C2319 C 0.35204 0.25727 0.54024 0.0
C2320 C 0.3519 0.27797 0.55652 0.0
C2321 C 0.35104 0.27152 0.57537 0.0
C2322 C 0.3508 0.25794 0.57654 0.0
C2323 C 0.35116 0.2509 0.55892 0.0
C2324 C 0.35193 0.29231 0.55462 0.0
C2325 C 0.35012 0.25083 0.59638 0.0
H2326 H 0.37195 0.30497 0.62789 0.0
H2327 H 0.32473 0.27992 0.62464 0.0
H2328 H 0.37904 0.28331 0.59505 0.0
H2329 H 0.37974 0.29795 0.58063 0.0
H2330 H 0.38715 0.30153 0.60558 0.0
H2331 H 0.31211 0.26281 0.59933 0.0
H2332 H 0.32184 0.26772 0.5759 0.0
H2333 H 0.32148 0.25342 0.59074 0.0
H2334 H 0.35301 0.27567 0.52472 0.0
H2335 H 0.3509 0.24047 0.55974 0.0
H2336 H 0.36135 0.30109 0.56301 0.0
H2337 H 0.34171 0.29115 0.56124 0.0
H2338 H 0.35267 0.29587 0.53886 0.0
H2339 H 0.35944 0.25858 0.60595 0.0
H2340 H 0.35054 0.24053 0.59475 0.0
H2341 H 0.33981 0.24824 0.60427 0.0
C2342 C 0.72679 0.07058 0.624 0.0
C2343 C 0.73295 0.06517 0.63782 0.0
C2344 C 0.73435 0.07758 0.60641 0.0
C2345 C 0.7484 0.07927 0.60267 0.0
C2346 C 0.75481 0.07418 0.61687 0.0
C2347 C 0.74699 0.06715 0.63421 0.0
C2348 C 0.72713 0.0828 0.59157 0.0
C2349 C 0.76981 0.07585 0.61352 0.0
C2350 C 0.76245 0.08203 0.54986 0.0
C2351 C 0.77275 0.09708 0.54826 0.0
C2352 C 0.75409 0.07619 0.56724 0.0
C2353 C 0.75614 0.08562 0.5835 0.0
C2354 C 0.76624 0.1009 0.5818 0.0
C2355 C 0.7744 0.10647 0.56414 0.0
C2356 C 0.74334 0.05986 0.56838 0.0
C2357 C 0.76879 0.11128 0.59886 0.0
H2358 H 0.71594 0.06907 0.62673 0.0
H2359 H 0.75184 0.06306 0.64489 0.0
H2360 H 0.7346 0.09458 0.588 0.0
H2361 H 0.72499 0.07655 0.57745 0.0
H2362 H 0.71654 0.08139 0.59717 0.0
H2363 H 0.77358 0.07203 0.6265 0.0
H2364 H 0.76948 0.06941 0.60023 0.0
H2365 H 0.77806 0.08754 0.61053 0.0
H2366 H 0.76097 0.07478 0.53748 0.0
H2367 H 0.7824 0.1181 0.563 0.0
H2368 H 0.73227 0.05783 0.5727 0.0
H2369 H 0.74695 0.05484 0.58003 0.0
H2370 H 0.74239 0.0542 0.554 0.0
H2371 H 0.75818 0.11 0.60402 0.0
H2372 H 0.77627 0.12296 0.5947 0.0
H2373 H 0.77371 0.10854 0.61165 0.0
C2374 C 0.95393 0.6858 0.61993 0.0
C2375 C 0.95179 0.6736 0.63112 0.0
C2376 C 0.94563 0.68403 0.60267 0.0
C2377 C 0.93477 0.66973 0.59658 0.0
C2378 C 0.93242 0.65738 0.60798 0.0
C2379 C 0.94104 0.65946 0.62504 0.0
C2380 C 0.94861 0.69747 0.59078 0.0
C2381 C 0.92084 0.64197 0.6021 0.0
C2382 C 0.90511 0.66651 0.56078 0.0
C2383 C 0.91015 0.66419 0.54255 0.0
C2384 C 0.91291 0.66815 0.57855 0.0
C2385 C 0.92617 0.66769 0.57799 0.0
C2386 C 0.93136 0.66548 0.55957 0.0
C2387 C 0.92324 0.66367 0.54211 0.0
C2388 C 0.90693 0.67031 0.59793 0.0
C2389 C 0.94556 0.66516 0.55827 0.0
H2390 H 0.96225 0.69676 0.62454 0.0
H2391 H 0.9393 0.65 0.6337 0.0
H2392 H 0.95201 0.69661 0.57541 0.0
H2393 H 0.93842 0.69813 0.58956 0.0
H2394 H 0.95738 0.70782 0.59759 0.0
H2395 H 0.92001 0.6336 0.61294 0.0
H2396 H 0.90993 0.64121 0.60094 0.0
H2397 H 0.92344 0.63928 0.5872 0.0
H2398 H 0.89493 0.6668 0.56117 0.0
H2399 H 0.92726 0.66206 0.52799 0.0
H2400 H 0.91502 0.68099 0.60472 0.0
H2401 H 0.90523 0.66155 0.60866 0.0
H2402 H 0.89633 0.67011 0.59589 0.0
H2403 H 0.95483 0.67568 0.56389 0.0
H2404 H 0.9481 0.6634 0.54279 0.0
H2405 H 0.94491 0.65625 0.56785 0.0
C2406 C 0.96825 0.69393 0.75038 0.0
C2407 C 0.96052 0.68999 0.73227 0.0
C2408 C 0.9617 0.69531 0.76789 0.0
C2409 C 0.94708 0.69266 0.76726 0.0
C2410 C 0.93941 0.68916 0.74887 0.0
C2411 C 0.94623 0.68787 0.73161 0.0
C2412 C 0.97026 0.69914 0.78719 0.0
C2413 C 0.9238 0.68624 0.74756 0.0
C2414 C 0.92391 0.67921 0.81427 0.0
C2415 C 0.92412 0.69195 0.821 0.0
C2416 C 0.93141 0.67934 0.79691 0.0
C2417 C 0.93942 0.69258 0.78599 0.0
C2418 C 0.93983 0.70554 0.79277 0.0
C2419 C 0.93217 0.70507 0.8102 0.0
C2420 C 0.93072 0.66529 0.79021 0.0
C2421 C 0.94825 0.71985 0.78152 0.0
H2422 H 0.97931 0.6956 0.75098 0.0
H2423 H 0.9402 0.68486 0.71765 0.0
H2424 H 0.97023 0.70861 0.79445 0.0
H2425 H 0.96491 0.68969 0.79763 0.0
H2426 H 0.98186 0.70191 0.78492 0.0
H2427 H 0.91971 0.68457 0.73195 0.0
H2428 H 0.91639 0.67627 0.75632 0.0
H2429 H 0.92307 0.69555 0.7541 0.0
H2430 H 0.91797 0.66909 0.82273 0.0
H2431 H 0.9323 0.71494 0.81521 0.0
H2432 H 0.942 0.66692 0.78925 0.0
H2433 H 0.9258 0.66226 0.77509 0.0
H2434 H 0.9241 0.65595 0.80047 0.0
H2435 H 0.95994 0.72283 0.7799 0.0
H2436 H 0.94782 0.72904 0.78906 0.0
H2437 H 0.94365 0.71858 0.76628 0.0
C2438 C 0.35761 0.28637 0.72695 0.0
C2439 C 0.34577 0.28897 0.72539 0.0
C2440 C 0.35908 0.27908 0.74354 0.0
C2441 C 0.34849 0.27429 0.75899 0.0
C2442 C 0.33629 0.2765 0.75724 0.0
C2443 C 0.33506 0.28381 0.74043 0.0
C2444 C 0.37223 0.27689 0.74479 0.0
C2445 C 0.32477 0.27155 0.77342 0.0
C2446 C 0.34784 0.2466 0.79621 0.0
C2447 C 0.35629 0.2558 0.8119 0.0
C2448 C 0.34501 0.25241 0.77898 0.0
C2449 C 0.35072 0.26778 0.77747 0.0
C2450 C 0.35906 0.27708 0.7934 0.0
C2451 C 0.36174 0.27099 0.81039 0.0
C2452 C 0.33612 0.24215 0.76227 0.0
C2453 C 0.36529 0.29352 0.79242 0.0
H2454 H 0.3659 0.29029 0.71533 0.0
H2455 H 0.32588 0.28577 0.73928 0.0
H2456 H 0.37932 0.28327 0.75753 0.0
H2457 H 0.36857 0.26514 0.74754 0.0
H2458 H 0.37898 0.28046 0.73099 0.0
H2459 H 0.31549 0.27325 0.76924 0.0
H2460 H 0.32033 0.25972 0.77677 0.0
H2461 H 0.32986 0.27776 0.78732 0.0
H2462 H 0.34368 0.23487 0.79723 0.0
H2463 H 0.36804 0.27814 0.82262 0.0
H2464 H 0.343 0.24489 0.74865 0.0
H2465 H 0.32659 0.24356 0.75861 0.0
H2466 H 0.33197 0.23043 0.76608 0.0
H2467 H 0.37307 0.29819 0.77973 0.0
H2468 H 0.3712 0.29917 0.80631 0.0
H2469 H 0.35631 0.29599 0.78978 0.0
C2470 C 0.74641 0.08089 0.73357 0.0
C2471 C 0.73418 0.06681 0.73624 0.0
C2472 C 0.75329 0.09017 0.74995 0.0
C2473 C 0.74742 0.08545 0.76931 0.0
C2474 C 0.73525 0.07109 0.77209 0.0
C2475 C 0.72893 0.06185 0.75552 0.0
C2476 C 0.76656 0.10519 0.74645 0.0
C2477 C 0.72838 0.06579 0.79238 0.0
C2478 C 0.7685 0.10551 0.81608 0.0
C2479 C 0.76281 0.11487 0.81988 0.0
C2480 C 0.76398 0.09622 0.79932 0.0
C2481 C 0.75316 0.0959 0.78638 0.0
C2482 C 0.74747 0.10537 0.78999 0.0
C2483 C 0.75257 0.11491 0.80639 0.0
C2484 C 0.77064 0.08661 0.7956 0.0
C2485 C 0.73573 0.1052 0.77674 0.0
H2486 H 0.75053 0.08468 0.71864 0.0
H2487 H 0.71939 0.051 0.75755 0.0
H2488 H 0.76358 0.11379 0.7491 0.0
H2489 H 0.77549 0.10719 0.75708 0.0
H2490 H 0.77085 0.10645 0.73101 0.0
H2491 H 0.71937 0.05412 0.79215 0.0
H2492 H 0.73682 0.06694 0.80332 0.0
H2493 H 0.72382 0.07269 0.79774 0.0
H2494 H 0.77627 0.10518 0.82639 0.0
H2495 H 0.7484 0.12237 0.80867 0.0
H2496 H 0.77477 0.08806 0.78006 0.0
H2497 H 0.7621 0.07487 0.79739 0.0
H2498 H 0.77986 0.08912 0.80598 0.0
H2499 H 0.73989 0.10822 0.76128 0.0
H2500 H 0.73212 0.11293 0.78196 0.0
H2501 H 0.72597 0.09395 0.77625 0.0
C2502 C 0.06206 0.38549 0.02935 0.0
C2503 C 0.04784 0.3769 0.03716 0.0
C2504 C 0.07419 0.38544 0.03819 0.0
C2505 C 0.07203 0.37664 0.05526 0.0
C2506 C 0.05762 0.36762 0.06282 0.0
C2507 C 0.04571 0.36785 0.05367 0.0
C2508 C 0.08938 0.39514 0.02964 0.0
C2509 C 0.05483 0.3581 0.08102 0.0
C2510 C 0.10118 0.36791 0.07342 0.0
C2511 C 0.10761 0.37795 0.08916 0.0
C2512 C 0.08988 0.36764 0.0618 0.0
C2513 C 0.08485 0.37758 0.06612 0.0
C2514 C 0.09155 0.38795 0.08169 0.0
C2515 C 0.10282 0.38801 0.093 0.0
C2516 C 0.08307 0.35649 0.04523 0.0
C2517 C 0.08646 0.39868 0.08687 0.0
H2518 H 0.06377 0.39247 0.01655 0.0
H2519 H 0.03474 0.36115 0.05975 0.0
H2520 H 0.09623 0.40391 0.04049 0.0
H2521 H 0.0949 0.38865 0.02697 0.0
H2522 H 0.08907 0.40041 0.01542 0.0
H2523 H 0.0429 0.35113 0.08436 0.0
H2524 H 0.05959 0.35086 0.0789 0.0
H2525 H 0.06035 0.36516 0.09417 0.0
H2526 H 0.10492 0.3602 0.07026 0.0
H2527 H 0.10754 0.39563 0.10535 0.0
H2528 H 0.08324 0.36203 0.03107 0.0
H2529 H 0.07137 0.3486 0.04878 0.0
H2530 H 0.08888 0.35021 0.04289 0.0
H2531 H 0.08678 0.40502 0.07346 0.0
H2532 H 0.09332 0.40654 0.09871 0.0
H2533 H 0.07487 0.39257 0.09209 0.0
C2534 C 0.669 0.69746 0.04909 0.0
C2535 C 0.65645 0.68861 0.03759 0.0
C2536 C 0.67159 0.71095 0.05686 0.0
C2537 C 0.66135 0.7157 0.0531 0.0
C2538 C 0.64882 0.70698 0.0411 0.0
C2539 C 0.64652 0.69353 0.03345 0.0
C2540 C 0.68513 0.71994 0.06952 0.0
C2541 C 0.63766 0.71167 0.0368 0.0
C2542 C 0.66156 0.74201 0.09197 0.0
C2543 C 0.67049 0.75574 0.08293 0.0
C2544 C 0.65797 0.72888 0.08206 0.0
C2545 C 0.6635 0.72944 0.06264 0.0
C2546 C 0.67203 0.74321 0.0531 0.0
C2547 C 0.67542 0.75619 0.06335 0.0
C2548 C 0.64882 0.71442 0.09276 0.0
C2549 C 0.67808 0.74425 0.03237 0.0
H2550 H 0.67674 0.69376 0.05228 0.0
H2551 H 0.6368 0.68673 0.02456 0.0
H2552 H 0.69162 0.73126 0.06347 0.0
H2553 H 0.68179 0.72086 0.0849 0.0
H2554 H 0.69234 0.71502 0.07028 0.0
H2555 H 0.629 0.70412 0.02622 0.0
H2556 H 0.63228 0.71197 0.05089 0.0
H2557 H 0.64319 0.72295 0.03049 0.0
H2558 H 0.65788 0.74152 0.10719 0.0
H2559 H 0.68215 0.76674 0.05614 0.0
H2560 H 0.65567 0.70935 0.09592 0.0
H2561 H 0.63951 0.70663 0.08321 0.0
H2562 H 0.64432 0.71577 0.10708 0.0
H2563 H 0.68634 0.74061 0.03263 0.0
H2564 H 0.68342 0.75564 0.02638 0.0
H2565 H 0.66916 0.73685 0.02204 0.0
C2566 C 0.31953 0.96785 0.02476 0.0
C2567 C 0.33339 0.96923 0.02785 0.0
C2568 C 0.30687 0.95651 0.03392 0.0
C2569 C 0.30817 0.9465 0.04672 0.0
C2570 C 0.32206 0.94756 0.04935 0.0
C2571 C 0.33448 0.95885 0.03975 0.0
C2572 C 0.29221 0.95557 0.03047 0.0
C2573 C 0.32396 0.93722 0.06306 0.0
C2574 C 0.28124 0.92926 0.08955 0.0
C2575 C 0.27245 0.91471 0.08304 0.0
C2576 C 0.29268 0.93977 0.07767 0.0
C2577 C 0.29531 0.93567 0.05868 0.0
C2578 C 0.28617 0.92111 0.05172 0.0
C2579 C 0.27491 0.91075 0.06406 0.0
C2580 C 0.30228 0.95512 0.08578 0.0
C2581 C 0.28849 0.91641 0.03142 0.0
H2582 H 0.31862 0.97581 0.01548 0.0
H2583 H 0.34517 0.95988 0.04223 0.0
H2584 H 0.28372 0.94417 0.02644 0.0
H2585 H 0.28853 0.95843 0.04441 0.0
H2586 H 0.29277 0.96314 0.01848 0.0
H2587 H 0.33532 0.939 0.06262 0.0
H2588 H 0.32145 0.93883 0.07861 0.0
H2589 H 0.31613 0.92563 0.05897 0.0
H2590 H 0.27953 0.93231 0.10433 0.0
H2591 H 0.26807 0.89953 0.05894 0.0
H2592 H 0.30243 0.96335 0.07527 0.0
H2593 H 0.31379 0.95745 0.0873 0.0
H2594 H 0.29847 0.95666 0.10055 0.0
H2595 H 0.28874 0.92406 0.01981 0.0
H2596 H 0.27973 0.90506 0.02759 0.0
H2597 H 0.29929 0.91689 0.03101 0.0
C2598 C 0.3521 0.03784 0.98239 0.0
C2599 C 0.36473 0.04092 0.9933 0.0
C2600 C 0.35025 0.0492 0.97461 0.0
C2601 C 0.3614 0.06403 0.97757 0.0
C2602 C 0.37399 0.06722 0.98907 0.0
C2603 C 0.37547 0.05561 0.99691 0.0
C2604 C 0.33656 0.04532 0.96267 0.0
C2605 C 0.38618 0.08287 0.99239 0.0
C2606 C 0.36306 0.09024 0.93738 0.0
C2607 C 0.3558 0.09688 0.94646 0.0
C2608 C 0.36546 0.07999 0.94764 0.0
C2609 C 0.36027 0.07604 0.96741 0.0
C2610 C 0.35324 0.08291 0.97689 0.0
C2611 C 0.35116 0.0933 0.96635 0.0
C2612 C 0.37311 0.07301 0.93702 0.0
C2613 C 0.34749 0.07893 0.99793 0.0
H2614 H 0.34373 0.0265 0.97966 0.0
H2615 H 0.38527 0.05804 0.0053 0.0
H2616 H 0.3312 0.05137 0.96847 0.0
H2617 H 0.33959 0.0487 0.94691 0.0
H2618 H 0.32844 0.03335 0.96303 0.0
H2619 H 0.39469 0.08356 0.0029 0.0
H2620 H 0.39156 0.08779 0.97795 0.0
H2621 H 0.38163 0.08962 0.9983 0.0
H2622 H 0.36646 0.09266 0.92194 0.0
H2623 H 0.34574 0.0985 0.97363 0.0
H2624 H 0.36526 0.06111 0.93477 0.0
H2625 H 0.38233 0.07396 0.94623 0.0
H2626 H 0.37751 0.07812 0.92226 0.0
H2627 H 0.33858 0.06724 0.99848 0.0
H2628 H 0.34307 0.08588 0.00359 0.0
H2629 H 0.35636 0.08009 0.00809 0.0
C2630 C 0.97949 0.32713 0.99481 0.0
C2631 C 0.97782 0.33953 0.99616 0.0
C2632 C 0.96824 0.31385 0.9868 0.0
C2633 C 0.95524 0.31313 0.97943 0.0
C2634 C 0.95347 0.3256 0.98099 0.0
C2635 C 0.9647 0.33858 0.9896 0.0
C2636 C 0.97035 0.30067 0.98593 0.0
C2637 C 0.93994 0.32542 0.97289 0.0
C2638 C 0.93352 0.28632 0.93803 0.0
C2639 C 0.92074 0.27611 0.94806 0.0
C2640 C 0.94503 0.29821 0.94818 0.0
C2641 C 0.94384 0.2997 0.96898 0.0
C2642 C 0.93127 0.28895 0.97938 0.0
C2643 C 0.91973 0.27738 0.96872 0.0
C2644 C 0.95806 0.30959 0.93644 0.0
C2645 C 0.9298 0.28993 0.00162 0.0
H2646 H 0.9896 0.32782 1.00002 0.0
H2647 H 0.96342 0.34818 0.99053 0.0
H2648 H 0.96069 0.29092 0.99252 0.0
H2649 H 0.97119 0.29798 0.97017 0.0
H2650 H 0.98044 0.30261 0.99395 0.0
H2651 H 0.94018 0.33598 0.9755 0.0
H2652 H 0.93905 0.32325 0.95661 0.0
H2653 H 0.92988 0.31643 0.97992 0.0
H2654 H 0.93418 0.28545 0.922 0.0
H2655 H 0.90982 0.26947 0.97644 0.0
H2656 H 0.96848 0.31122 0.94296 0.0
H2657 H 0.95841 0.32032 0.93722 0.0
H2658 H 0.95758 0.30649 0.92051 0.0
H2659 H 0.93998 0.29182 0.0093 0.0
H2660 H 0.92027 0.2798 0.00777 0.0
H2661 H 0.9283 0.29941 0.00511 0.0
C2662 C 0.68819 0.65247 0.97476 0.0
C2663 C 0.68713 0.65294 0.99553 0.0
C2664 C 0.70071 0.65348 0.96574 0.0
C2665 C 0.71265 0.65539 0.97777 0.0
C2666 C 0.71179 0.65622 0.99877 0.0
C2667 C 0.69892 0.65478 0.00744 0.0
C2668 C 0.70104 0.65221 0.94333 0.0
C2669 C 0.72443 0.65864 0.01204 0.0
C2670 C 0.73783 0.64356 0.9539 0.0
C2671 C 0.74873 0.65674 0.94524 0.0
C2672 C 0.72628 0.64304 0.96508 0.0
C2673 C 0.7258 0.65611 0.96822 0.0
C2674 C 0.73726 0.66962 0.96069 0.0
C2675 C 0.74847 0.66975 0.9491 0.0
C2676 C 0.71419 0.62837 0.97263 0.0
C2677 C 0.73732 0.68385 0.9641 0.0
H2678 H 0.67904 0.65095 0.96552 0.0
H2679 H 0.69815 0.65523 0.02351 0.0
H2680 H 0.71049 0.66229 0.93705 0.0
H2681 H 0.70258 0.64282 0.93934 0.0
H2682 H 0.69077 0.65055 0.93615 0.0
H2683 H 0.72231 0.65975 0.02799 0.0
H2684 H 0.72647 0.6493 0.01054 0.0
H2685 H 0.73466 0.66872 0.00736 0.0
H2686 H 0.7381 0.63349 0.95154 0.0
H2687 H 0.75669 0.68 0.94241 0.0
H2688 H 0.70367 0.62554 0.9651 0.0
H2689 H 0.71252 0.62894 0.98885 0.0
H2690 H 0.7166 0.61936 0.96989 0.0
H2691 H 0.72835 0.68383 0.95532 0.0
H2692 H 0.74793 0.6936 0.95963 0.0
H2693 H 0.73525 0.68498 0.98005 0.0
C2694 C 0.96477 0.65171 0.00687 0.0
C2695 C 0.97546 0.65213 0.99392 0.0
C2696 C 0.95372 0.65442 0.99979 0.0
C2697 C 0.95326 0.65736 0.97926 0.0
C2698 C 0.96383 0.65743 0.96609 0.0
C2699 C 0.97485 0.65493 0.97361 0.0
C2700 C 0.94277 0.65447 0.0143 0.0
C2701 C 0.96361 0.66031 0.94405 0.0
C2702 C 0.91909 0.65333 0.95372 0.0
C2703 C 0.92301 0.6681 0.9508 0.0
C2704 C 0.92852 0.64961 0.96378 0.0
C2705 C 0.94211 0.6609 0.97139 0.0
C2706 C 0.94573 0.67576 0.96958 0.0
C2707 C 0.93622 0.67918 0.95917 0.0
C2708 C 0.92429 0.63363 0.9653 0.0
C2709 C 0.96004 0.68814 0.97768 0.0
H2710 H 0.96524 0.64958 0.02259 0.0
H2711 H 0.98301 0.65515 0.9635 0.0
H2712 H 0.94396 0.66557 0.01472 0.0
H2713 H 0.93137 0.64667 0.00934 0.0
H2714 H 0.94428 0.65144 0.02964 0.0
H2715 H 0.9722 0.65929 0.9357 0.0
H2716 H 0.95268 0.65246 0.93764 0.0
H2717 H 0.96543 0.67155 0.94171 0.0
H2718 H 0.90878 0.64465 0.94771 0.0
H2719 H 0.93953 0.69064 0.95685 0.0
H2720 H 0.92554 0.63083 0.98086 0.0
H2721 H 0.93178 0.63161 0.95587 0.0
H2722 H 0.91278 0.62612 0.96038 0.0
H2723 H 0.96174 0.68581 0.99329 0.0
H2724 H 0.96038 0.69888 0.97726 0.0
H2725 H 0.96936 0.68911 0.96872 0.0
C2726 C 0.35816 0.32139 0.99663 0.0
C2727 C 0.37209 0.33387 0.99922 0.0
C2728 C 0.35658 0.30872 0.98729 0.0
C2729 C 0.3692 0.30872 0.97985 0.0
C2730 C 0.38333 0.32119 0.98287 0.0
C2731 C 0.38462 0.33355 0.99276 0.0
C2732 C 0.34136 0.29551 0.98482 0.0
C2733 C 0.39704 0.32176 0.97478 0.0
C2734 C 0.36786 0.27324 0.96411 0.0
C2735 C 0.36545 0.27317 0.94356 0.0
C2736 C 0.36871 0.28454 0.97628 0.0
C2737 C 0.36756 0.2962 0.96751 0.0
C2738 C 0.36517 0.29614 0.94671 0.0
C2739 C 0.36397 0.28452 0.93504 0.0
C2740 C 0.37089 0.28405 0.99845 0.0
C2741 C 0.36422 0.30851 0.93669 0.0
H2742 H 0.34846 0.32159 0.00175 0.0
H2743 H 0.3954 0.34322 0.99464 0.0
H2744 H 0.33823 0.29403 0.96884 0.0
H2745 H 0.34125 0.28538 0.98984 0.0
H2746 H 0.33292 0.29665 0.99335 0.0
H2747 H 0.40725 0.33197 0.97924 0.0
H2748 H 0.39777 0.31215 0.98006 0.0
H2749 H 0.39649 0.32122 0.95825 0.0
H2750 H 0.36898 0.26442 0.97065 0.0
H2751 H 0.36229 0.28452 0.91908 0.0
H2752 H 0.36211 0.28478 0.00666 0.0
H2753 H 0.38157 0.29363 0.003 0.0
H2754 H 0.37076 0.27383 0.00306 0.0
H2755 H 0.35501 0.30948 0.94311 0.0
H2756 H 0.36251 0.30687 0.92034 0.0
H2757 H 0.3745 0.31911 0.93943 0.0
C2758 C 0.69218 0.04646 0.98361 0.0
C2759 C 0.68452 0.04795 0.99972 0.0
C2760 C 0.70424 0.0588 0.97502 0.0
C2761 C 0.70889 0.07296 0.9829 0.0
C2762 C 0.70163 0.07447 0.99975 0.0
C2763 C 0.68945 0.06194 0.00787 0.0
C2764 C 0.71156 0.05672 0.95692 0.0
C2765 C 0.70639 0.08936 0.00875 0.0
C2766 C 0.74633 0.10387 0.9657 0.0
C2767 C 0.74227 0.11029 0.95048 0.0
C2768 C 0.73558 0.09197 0.97685 0.0
C2769 C 0.72047 0.08624 0.97239 0.0
C2770 C 0.71634 0.09281 0.95717 0.0
C2771 C 0.72728 0.10478 0.94649 0.0
C2772 C 0.74039 0.0854 0.99317 0.0
C2773 C 0.70037 0.08691 0.95173 0.0
H2774 H 0.68842 0.03567 0.97723 0.0
H2775 H 0.68362 0.06314 0.02041 0.0
H2776 H 0.70975 0.06207 0.94381 0.0
H2777 H 0.72363 0.06207 0.95928 0.0
H2778 H 0.70723 0.04493 0.95339 0.0
H2779 H 0.70064 0.08851 0.02301 0.0
H2780 H 0.71845 0.09538 0.01151 0.0
H2781 H 0.70404 0.09603 0.99816 0.0
H2782 H 0.75791 0.10815 0.96887 0.0
H2783 H 0.72408 0.10953 0.9345 0.0
H2784 H 0.73715 0.0739 0.98929 0.0
H2785 H 0.73477 0.08503 0.00735 0.0
H2786 H 0.75249 0.09171 0.99564 0.0
H2787 H 0.69543 0.07537 0.94652 0.0
H2788 H 0.699 0.09348 0.93982 0.0
H2789 H 0.69407 0.08686 0.96503 0.0
C2790 C 0.64928 0.96562 0.02642 0.0
C2791 C 0.65082 0.97698 0.03896 0.0
C2792 C 0.65185 0.95452 0.03361 0.0
C2793 C 0.65574 0.95466 0.05388 0.0
C2794 C 0.65684 0.96587 0.0667 0.0
C2795 C 0.65452 0.97697 0.05903 0.0
C2796 C 0.65085 0.94292 0.01939 0.0
C2797 C 0.66069 0.96629 0.08849 0.0
C2798 C 0.65257 0.92083 0.07942 0.0
C2799 C 0.66742 0.92455 0.08075 0.0
C2800 C 0.64851 0.93028 0.07014 0.0
C2801 C 0.6595 0.94364 0.06161 0.0
C2802 C 0.67437 0.94709 0.06194 0.0
C2803 C 0.67816 0.93764 0.07168 0.0
C2804 C 0.63254 0.92628 0.07029 0.0
C2805 C 0.68643 0.96113 0.05276 0.0
H2806 H 0.64644 0.96563 0.01088 0.0
H2807 H 0.65558 0.98566 0.06883 0.0
H2808 H 0.66183 0.94389 0.01791 0.0
H2809 H 0.64322 0.93178 0.02532 0.0
H2810 H 0.647 0.94392 0.00435 0.0
H2811 H 0.66012 0.97515 0.09673 0.0
H2812 H 0.6531 0.95559 0.09566 0.0
H2813 H 0.67201 0.9681 0.08996 0.0
H2814 H 0.64411 0.91065 0.08597 0.0
H2815 H 0.6897 0.94089 0.07286 0.0
H2816 H 0.62887 0.927 0.05502 0.0
H2817 H 0.63124 0.93424 0.0797 0.0
H2818 H 0.6252 0.91503 0.07618 0.0
H2819 H 0.68338 0.96244 0.03736 0.0
H2820 H 0.69714 0.9614 0.05228 0.0
H2821 H 0.68788 0.9707 0.06156 0.0
C2822 C 0.04162 0.69591 0.04322 0.0
C2823 C 0.04455 0.68653 0.03173 0.0
C2824 C 0.05306 0.70849 0.05231 0.0
C2825 C 0.0678 0.71174 0.04998 0.0
C2826 C 0.07088 0.70257 0.03785 0.0
C2827 C 0.0592 0.69008 0.02881 0.0
C2828 C 0.04931 0.71804 0.06498 0.0
C2829 C 0.08644 0.70563 0.03508 0.0
C2830 C 0.09738 0.7504 0.06475 0.0
C2831 C 0.10015 0.74834 0.08464 0.0
C2832 C 0.08725 0.73853 0.05301 0.0
C2833 C 0.07979 0.7242 0.06129 0.0
C2834 C 0.08302 0.72193 0.08103 0.0
C2835 C 0.09305 0.73401 0.09248 0.0
C2836 C 0.0841 0.74139 0.03203 0.0
C2837 C 0.0754 0.70681 0.09037 0.0
H2838 H 0.03032 0.69325 0.04547 0.0
H2839 H 0.06152 0.68285 0.01997 0.0
H2840 H 0.05222 0.71755 0.08076 0.0
H2841 H 0.05583 0.72968 0.06013 0.0
H2842 H 0.03742 0.71455 0.06422 0.0
H2843 H 0.08711 0.69818 0.02393 0.0
H2844 H 0.09374 0.71717 0.03027 0.0
H2845 H 0.09076 0.70421 0.04951 0.0
H2846 H 0.10298 0.76137 0.05841 0.0
H2847 H 0.09488 0.73225 0.10789 0.0
H2848 H 0.07259 0.73912 0.03106 0.0
H2849 H 0.08516 0.73389 0.0214 0.0
H2850 H 0.09161 0.75293 0.02728 0.0
H2851 H 0.0635 0.70295 0.09221 0.0
H2852 H 0.08006 0.7067 0.1052 0.0
H2853 H 0.07631 0.69883 0.08052 0.0
C2854 C 0.33005 0.36109 0.05521 0.0
C2855 C 0.33656 0.36873 0.03754 0.0
C2856 C 0.3174 0.3606 0.06297 0.0
C2857 C 0.31105 0.36786 0.05275 0.0
C2858 C 0.31722 0.37508 0.03446 0.0
C2859 C 0.32994 0.37547 0.02711 0.0
C2860 C 0.3112 0.35283 0.08254 0.0
C2861 C 0.31071 0.38288 0.02308 0.0
C2862 C 0.27273 0.35903 0.0692 0.0
C2863 C 0.27608 0.37066 0.08238 0.0
C2864 C 0.28396 0.35814 0.05898 0.0
C2865 C 0.29886 0.36906 0.06218 0.0
C2866 C 0.30226 0.38094 0.07521 0.0
C2867 C 0.29086 0.38159 0.08512 0.0
C2868 C 0.27991 0.34538 0.04508 0.0
C2869 C 0.318 0.39276 0.07918 0.0
H2870 H 0.33508 0.35581 0.06332 0.0
H2871 H 0.33487 0.38132 0.01338 0.0
H2872 H 0.31254 0.36099 0.09407 0.0
H2873 H 0.29924 0.34491 0.08108 0.0
H2874 H 0.31675 0.34681 0.08786 0.0
H2875 H 0.31589 0.38669 0.00819 0.0
H2876 H 0.29869 0.3755 0.02106 0.0
H2877 H 0.31229 0.39257 0.0317 0.0
H2878 H 0.26133 0.3506 0.06696 0.0
H2879 H 0.29358 0.39045 0.09559 0.0
H2880 H 0.28441 0.33854 0.05089 0.0
H2881 H 0.2849 0.34947 0.03019 0.0
H2882 H 0.2678 0.33829 0.0433 0.0
H2883 H 0.32409 0.38782 0.08619 0.0
H2884 H 0.31875 0.40155 0.08915 0.0
H2885 H 0.32364 0.39787 0.06495 0.0
C2886 C 0.71469 0.704 0.38843 0.0
C2887 C 0.71199 0.70417 0.36798 0.0
C2888 C 0.72521 0.70056 0.39538 0.0
C2889 C 0.73321 0.69711 0.38156 0.0
C2890 C 0.73085 0.69766 0.36084 0.0
C2891 C 0.72027 0.70123 0.35428 0.0
C2892 C 0.72743 0.70018 0.41759 0.0
C2893 C 0.73913 0.69401 0.34566 0.0
C2894 C 0.7669 0.69724 0.4029 0.0
C2895 C 0.76106 0.68237 0.40803 0.0
C2896 C 0.75817 0.70214 0.39346 0.0
C2897 C 0.74324 0.69195 0.38902 0.0
C2898 C 0.73746 0.67686 0.3934 0.0
C2899 C 0.74639 0.67228 0.40291 0.0
C2900 C 0.76474 0.71831 0.38898 0.0
C2901 C 0.7216 0.66561 0.38893 0.0
H2902 H 0.7084 0.70636 0.39911 0.0
H2903 H 0.71823 0.70135 0.33845 0.0
H2904 H 0.72402 0.68879 0.42228 0.0
H2905 H 0.73925 0.70719 0.42142 0.0
H2906 H 0.72098 0.70401 0.4263 0.0
H2907 H 0.73691 0.69609 0.33015 0.0
H2908 H 0.75116 0.70059 0.34849 0.0
H2909 H 0.7359 0.68225 0.34701 0.0
H2910 H 0.77826 0.70509 0.40655 0.0
H2911 H 0.74164 0.66082 0.40708 0.0
H2912 H 0.75951 0.72299 0.39861 0.0
H2913 H 0.76252 0.71992 0.37328 0.0
H2914 H 0.77682 0.72459 0.39158 0.0
H2915 H 0.71422 0.66769 0.39851 0.0
H2916 H 0.71918 0.65417 0.3916 0.0
H2917 H 0.71891 0.66656 0.3732 0.0
C2918 C 0.33018 0.02861 0.38076 0.0
C2919 C 0.31805 0.02009 0.3684 0.0
C2920 C 0.33279 0.04213 0.38839 0.0
C2921 C 0.32294 0.0472 0.38373 0.0
C2922 C 0.31081 0.03879 0.37094 0.0
C2923 C 0.30854 0.02533 0.36332 0.0
C2924 C 0.34594 0.05082 0.40182 0.0
C2925 C 0.30001 0.04379 0.36577 0.0
C2926 C 0.3229 0.07347 0.42241 0.0
C2927 C 0.33237 0.08723 0.41378 0.0
C2928 C 0.3191 0.06035 0.41231 0.0
C2929 C 0.32505 0.06096 0.39317 0.0
C2930 C 0.33413 0.07477 0.38401 0.0
C2931 C 0.33762 0.08774 0.39438 0.0
C2932 C 0.30932 0.04585 0.42257 0.0
C2933 C 0.3407 0.07587 0.36363 0.0
H2934 H 0.33763 0.02466 0.38463 0.0
H2935 H 0.29914 0.01876 0.35379 0.0
H2936 H 0.35278 0.06218 0.39604 0.0
H2937 H 0.34216 0.05166 0.41695 0.0
H2938 H 0.35296 0.04571 0.40313 0.0
H2939 H 0.29167 0.03645 0.35471 0.0
H2940 H 0.29422 0.04405 0.37946 0.0
H2941 H 0.30592 0.05514 0.35969 0.0
H2942 H 0.31893 0.07289 0.43748 0.0
H2943 H 0.34474 0.0983 0.38744 0.0
H2944 H 0.31585 0.04054 0.42643 0.0
H2945 H 0.30032 0.03827 0.41246 0.0
H2946 H 0.30437 0.0472 0.43647 0.0
H2947 H 0.34879 0.07203 0.36442 0.0
H2948 H 0.34637 0.08731 0.35779 0.0
H2949 H 0.33202 0.06865 0.35288 0.0
C2950 C 0.99461 0.29356 0.36157 0.0
C2951 C 0.99747 0.30803 0.36373 0.0
C2952 C 0.98178 0.28167 0.36963 0.0
C2953 C 0.97163 0.28436 0.38003 0.0
C2954 C 0.97418 0.2989 0.38145 0.0
C2955 C 0.98706 0.31054 0.37331 0.0
C2956 C 0.97942 0.26632 0.36777 0.0
C2957 C 0.96361 0.30226 0.39234 0.0
C2958 C 0.93276 0.25441 0.3933 0.0
C2959 C 0.93432 0.25218 0.41359 0.0
C2960 C 0.94494 0.26437 0.38186 0.0
C2961 C 0.95899 0.27231 0.39095 0.0
C2962 C 0.96072 0.26967 0.4112 0.0
C2963 C 0.94839 0.25969 0.42226 0.0
C2964 C 0.94268 0.26683 0.36028 0.0
C2965 C 0.9755 0.27793 0.42149 0.0
H2966 H 0.00262 0.29157 0.35416 0.0
H2967 H 0.98915 0.32169 0.37492 0.0
H2968 H 0.98054 0.26237 0.38266 0.0
H2969 H 0.96811 0.25862 0.36235 0.0
H2970 H 0.98746 0.26586 0.35748 0.0
H2971 H 0.96666 0.31398 0.39087 0.0
H2972 H 0.95226 0.29527 0.38656 0.0
H2973 H 0.96347 0.29969 0.40842 0.0
H2974 H 0.92196 0.24852 0.38643 0.0
H2975 H 0.94969 0.25824 0.43798 0.0
H2976 H 0.95089 0.26608 0.35072 0.0
H2977 H 0.94435 0.27807 0.35843 0.0
H2978 H 0.93145 0.25876 0.35491 0.0
H2979 H 0.98401 0.27708 0.41274 0.0
H2980 H 0.97523 0.27375 0.43679 0.0
H2981 H 0.97895 0.28977 0.42249 0.0
C2982 C 0.02086 0.37771 0.32317 0.0
C2983 C 0.03371 0.38031 0.33313 0.0
C2984 C 0.01962 0.38929 0.31493 0.0
C2985 C 0.03153 0.40389 0.31665 0.0
C2986 C 0.04431 0.40668 0.32739 0.0
C2987 C 0.04525 0.39483 0.33553 0.0
C2988 C 0.00577 0.38583 0.30367 0.0
C2989 C 0.05721 0.42209 0.32957 0.0
C2990 C 0.0332 0.42884 0.27468 0.0
C2991 C 0.02641 0.4361 0.28329 0.0
C2992 C 0.03553 0.41884 0.28568 0.0
C2993 C 0.03092 0.41594 0.30581 0.0
C2994 C 0.02456 0.42362 0.31485 0.0
C2995 C 0.02236 0.4336 0.30347 0.0
C2996 C 0.04232 0.41086 0.27544 0.0
C2997 C 0.01956 0.42087 0.3363 0.0
H2998 H 0.01186 0.36652 0.32136 0.0
H2999 H 0.0552 0.3969 0.34323 0.0
H3000 H 0.00119 0.39261 0.3094 0.0
H3001 H 0.0084 0.3886 0.28768 0.0
H3002 H 0.99715 0.37404 0.30484 0.0
H3003 H 0.0657 0.42259 0.33997 0.0
H3004 H 0.0624 0.42623 0.31479 0.0
H3005 H 0.05344 0.42961 0.33504 0.0
H3006 H 0.03616 0.43051 0.25903 0.0
H3007 H 0.01729 0.4393 0.31031 0.0
H3008 H 0.03401 0.399 0.27418 0.0
H3009 H 0.05163 0.41176 0.28438 0.0
H3010 H 0.04639 0.41523 0.26025 0.0
H3011 H 0.01007 0.40954 0.33787 0.0
H3012 H 0.01618 0.42873 0.34167 0.0
H3013 H 0.02849 0.42171 0.34606 0.0
C3014 C 0.63949 0.65677 0.34242 0.0
C3015 C 0.64083 0.66988 0.33506 0.0
C3016 C 0.62909 0.64309 0.3344 0.0
C3017 C 0.61993 0.64253 0.31851 0.0
C3018 C 0.62073 0.65568 0.31171 0.0
C3019 C 0.63114 0.6692 0.32014 0.0
C3020 C 0.62847 0.62931 0.34223 0.0
C3021 C 0.61122 0.65558 0.29474 0.0
C3022 C 0.60842 0.61169 0.28096 0.0
C3023 C 0.5937 0.60202 0.2862 0.0
C3024 C 0.61701 0.62485 0.29139 0.0
C3025 C 0.61076 0.62849 0.30753 0.0
C3026 C 0.5959 0.61882 0.31294 0.0
C3027 C 0.58751 0.60571 0.30213 0.0
C3028 C 0.63277 0.6349 0.285 0.0
C3029 C 0.5889 0.62231 0.33014 0.0
H3030 H 0.6469 0.65723 0.35405 0.0
H3031 H 0.63211 0.67929 0.3144 0.0
H3032 H 0.61691 0.6207 0.34524 0.0
H3033 H 0.63285 0.6249 0.3308 0.0
H3034 H 0.63501 0.63139 0.35611 0.0
H3035 H 0.6121 0.66647 0.29258 0.0
H3036 H 0.61462 0.65251 0.28072 0.0
H3037 H 0.59951 0.64723 0.29741 0.0
H3038 H 0.61319 0.60906 0.26841 0.0
H3039 H 0.57616 0.59825 0.3063 0.0
H3040 H 0.64035 0.63661 0.29757 0.0
H3041 H 0.63439 0.64584 0.28084 0.0
H3042 H 0.63594 0.63046 0.27211 0.0
H3043 H 0.5952 0.62361 0.34403 0.0
H3044 H 0.57726 0.61361 0.33253 0.0
H3045 H 0.58928 0.6329 0.32741 0.0
C3046 C 0.36215 0.99175 0.33411 0.0
C3047 C 0.34825 0.97922 0.33144 0.0
C3048 C 0.37475 0.99279 0.3252 0.0
C3049 C 0.37332 0.98116 0.31299 0.0
C3050 C 0.35935 0.96833 0.31066 0.0
C3051 C 0.34701 0.96746 0.32009 0.0
C3052 C 0.3895 0.00649 0.3284 0.0
C3053 C 0.35732 0.95579 0.2975 0.0
C3054 C 0.40062 0.98967 0.27096 0.0
C3055 C 0.40897 0.98362 0.27819 0.0
C3056 C 0.38918 0.9892 0.28232 0.0
C3057 C 0.38619 0.98275 0.30155 0.0
C3058 C 0.395 0.97719 0.30928 0.0
C3059 C 0.4062 0.97754 0.2974 0.0
C3060 C 0.37991 0.99504 0.2734 0.0
C3061 C 0.39235 0.97053 0.32987 0.0
H3062 H 0.36316 0.00083 0.34297 0.0
H3063 H 0.33626 0.95779 0.31791 0.0
H3064 H 0.39781 0.00352 0.33309 0.0
H3065 H 0.39338 0.01267 0.3142 0.0
H3066 H 0.38898 0.01387 0.33984 0.0
H3067 H 0.34585 0.94637 0.29786 0.0
H3068 H 0.36013 0.95968 0.28187 0.0
H3069 H 0.36489 0.95185 0.3022 0.0
H3070 H 0.40261 0.99418 0.256 0.0
H3071 H 0.41269 0.97291 0.30302 0.0
H3072 H 0.37979 0.00338 0.28341 0.0
H3073 H 0.36835 0.98595 0.27182 0.0
H3074 H 0.38396 1.00011 0.25851 0.0
H3075 H 0.39204 0.97818 0.34099 0.0
H3076 H 0.40098 0.96792 0.33435 0.0
H3077 H 0.3815 0.96025 0.33032 0.0
C3078 C 0.63468 0.97703 0.30798 0.0
C3079 C 0.64038 0.98232 0.327 0.0
C3080 C 0.62235 0.97748 0.30084 0.0
C3081 C 0.61588 0.98386 0.31274 0.0
C3082 C 0.62175 0.98944 0.33189 0.0
C3083 C 0.6338 0.98835 0.33895 0.0
C3084 C 0.61621 0.97104 0.28057 0.0
C3085 C 0.61548 0.99678 0.3447 0.0
C3086 C 0.5934 0.99558 0.28151 0.0
C3087 C 0.57901 0.98372 0.28421 0.0
C3088 C 0.60538 0.99633 0.29191 0.0
C3089 C 0.60305 0.98471 0.30485 0.0
C3090 C 0.58854 0.97311 0.30845 0.0
C3091 C 0.57669 0.97291 0.2984 0.0
C3092 C 0.62064 0.00915 0.28814 0.0
C3093 C 0.58559 0.96037 0.32187 0.0
H3094 H 0.6397 0.97225 0.2988 0.0
H3095 H 0.6383 0.99254 0.35362 0.0
H3096 H 0.60434 0.96269 0.28184 0.0
H3097 H 0.61712 0.97978 0.27041 0.0
H3098 H 0.62204 0.96577 0.27369 0.0
H3099 H 0.62135 0.00062 0.35917 0.0
H3100 H 0.61624 0.00637 0.33666 0.0
H3101 H 0.60365 0.98908 0.34769 0.0
H3102 H 0.59552 0.00397 0.27054 0.0
H3103 H 0.56563 0.96394 0.30118 0.0
H3104 H 0.6269 0.00551 0.27873 0.0
H3105 H 0.62675 0.01331 0.30237 0.0
H3106 H 0.62034 0.01835 0.2804 0.0
H3107 H 0.59024 0.95398 0.31498 0.0
H3108 H 0.57363 0.95285 0.32442 0.0
H3109 H 0.59109 0.9644 0.33649 0.0
C3110 C 0.04842 0.66784 0.33312 0.0
C3111 C 0.03616 0.66818 0.34072 0.0
C3112 C 0.04684 0.65519 0.32376 0.0
C3113 C 0.03271 0.64245 0.32243 0.0
C3114 C 0.02045 0.64245 0.33123 0.0
C3115 C 0.02228 0.6554 0.34003 0.0
C3116 C 0.06016 0.65577 0.31422 0.0
C3117 C 0.00529 0.62897 0.33061 0.0
C3118 C 0.0261 0.61777 0.27777 0.0
C3119 C 0.0288 0.60703 0.28576 0.0
C3120 C 0.02713 0.62922 0.28964 0.0
C3121 C 0.03061 0.62975 0.31015 0.0
C3122 C 0.03282 0.6186 0.31847 0.0
C3123 C 0.0321 0.60747 0.30608 0.0
C3124 C 0.02502 0.64105 0.28006 0.0
C3125 C 0.03617 0.61859 0.34036 0.0
H3126 H 0.05916 0.67772 0.33353 0.0
H3127 H 0.01279 0.65561 0.34601 0.0
H3128 H 0.06138 0.64641 0.31934 0.0
H3129 H 0.05867 0.65479 0.2978 0.0
H3130 H 0.07049 0.66618 0.31763 0.0
H3131 H 0.99738 0.63011 0.34039 0.0
H3132 H 0.001 0.62706 0.31512 0.0
H3133 H 0.00578 0.61909 0.33526 0.0
H3134 H 0.02373 0.61752 0.26198 0.0
H3135 H 0.03415 0.59912 0.31224 0.0
H3136 H 0.03525 0.65187 0.2816 0.0
H3137 H 0.0161 0.64187 0.28772 0.0
H3138 H 0.02221 0.63892 0.26397 0.0
H3139 H 0.04708 0.62825 0.34386 0.0
H3140 H 0.03628 0.60846 0.34483 0.0
H3141 H 0.02788 0.61953 0.3495 0.0
C3142 C 0.35559 0.39385 0.33583 0.0
C3143 C 0.35137 0.37923 0.33129 0.0
C3144 C 0.36873 0.40559 0.32818 0.0
C3145 C 0.37781 0.4026 0.31572 0.0
C3146 C 0.37369 0.38784 0.31141 0.0
C3147 C 0.36055 0.37636 0.31924 0.0
C3148 C 0.37278 0.42119 0.33313 0.0
C3149 C 0.38304 0.38414 0.29819 0.0
C3150 C 0.40367 0.42971 0.27727 0.0
C3151 C 0.41749 0.43447 0.28604 0.0
C3152 C 0.39061 0.41994 0.28725 0.0
C3153 C 0.39136 0.41477 0.30646 0.0
C3154 C 0.40522 0.42011 0.31583 0.0
C3155 C 0.41812 0.42989 0.30549 0.0
C3156 C 0.37606 0.4145 0.27671 0.0
C3157 C 0.40648 0.41494 0.33635 0.0
H3158 H 0.34853 0.39613 0.34514 0.0
H3159 H 0.35738 0.36509 0.3157 0.0
H3160 H 0.38404 0.42721 0.33957 0.0
H3161 H 0.3729 0.42705 0.3193 0.0
H3162 H 0.36496 0.42166 0.34384 0.0
H3163 H 0.37848 0.37209 0.29674 0.0
H3164 H 0.38385 0.38881 0.28309 0.0
H3165 H 0.39438 0.38915 0.30426 0.0
H3166 H 0.40306 0.43303 0.26216 0.0
H3167 H 0.42875 0.43368 0.31247 0.0
H3168 H 0.36809 0.4154 0.28662 0.0
H3169 H 0.3713 0.4027 0.27288 0.0
H3170 H 0.37722 0.42071 0.26277 0.0
H3171 H 0.39877 0.4158 0.34682 0.0
H3172 H 0.41783 0.42136 0.34245 0.0
H3173 H 0.40337 0.40319 0.33568 0.0
C3174 C 0.3258 0.30907 0.37861 0.0
C3175 C 0.31315 0.30681 0.36843 0.0
C3176 C 0.3268 0.29724 0.38641 0.0
C3177 C 0.31484 0.28273 0.38405 0.0
C3178 C 0.30212 0.28031 0.37349 0.0
C3179 C 0.30142 0.29241 0.36576 0.0
C3180 C 0.34061 0.30032 0.39749 0.0
C3181 C 0.28916 0.265 0.37071 0.0
C3182 C 0.32585 0.25393 0.39319 0.0
C3183 C 0.32275 0.25106 0.41359 0.0
C3184 C 0.3224 0.26348 0.38294 0.0
C3185 C 0.31568 0.2703 0.39333 0.0
C3186 C 0.31157 0.26661 0.41353 0.0
C3187 C 0.31518 0.25706 0.42342 0.0
C3188 C 0.32687 0.26703 0.36136 0.0
C3189 C 0.30435 0.27358 0.42515 0.0
H3190 H 0.33493 0.32016 0.38066 0.0
H3191 H 0.29162 0.29061 0.35791 0.0
H3192 H 0.33786 0.29656 0.41317 0.0
H3193 H 0.34545 0.2941 0.39063 0.0
H3194 H 0.34907 0.31219 0.39751 0.0
H3195 H 0.28042 0.2649 0.36124 0.0
H3196 H 0.29281 0.25778 0.3638 0.0
H3197 H 0.28434 0.26019 0.38544 0.0
H3198 H 0.33147 0.24914 0.3854 0.0
H3199 H 0.31286 0.25504 0.43922 0.0
H3200 H 0.33641 0.27837 0.36024 0.0
H3201 H 0.31777 0.26664 0.35244 0.0
H3202 H 0.33004 0.25934 0.3547 0.0
H3203 H 0.31248 0.28535 0.42786 0.0
H3204 H 0.30009 0.26813 0.43978 0.0
H3205 H 0.29511 0.27314 0.41652 0.0
C3206 C 0.72138 0.02887 0.35399 0.0
C3207 C 0.70788 0.0211 0.364 0.0
C3208 C 0.73321 0.04156 0.3624 0.0
C3209 C 0.73148 0.0465 0.3813 0.0
C3210 C 0.71763 0.03911 0.39098 0.0
C3211 C 0.70599 0.02653 0.38218 0.0
C3212 C 0.74775 0.04924 0.35153 0.0
C3213 C 0.71532 0.04401 0.41116 0.0
C3214 C 0.76428 0.06579 0.41603 0.0
C3215 C 0.76735 0.0804 0.41523 0.0
C3216 C 0.75293 0.05477 0.40459 0.0
C3217 C 0.74442 0.05843 0.39194 0.0
C3218 C 0.74776 0.07323 0.39054 0.0
C3219 C 0.75915 0.08405 0.40228 0.0
C3220 C 0.74967 0.0391 0.40663 0.0
C3221 C 0.73903 0.07756 0.37707 0.0
H3222 H 0.72289 0.02476 0.33989 0.0
H3223 H 0.69557 0.0206 0.38997 0.0
H3224 H 0.75213 0.06128 0.35113 0.0
H3225 H 0.75591 0.04738 0.3596 0.0
H3226 H 0.7468 0.04517 0.33601 0.0
H3227 H 0.70361 0.03783 0.41591 0.0
H3228 H 0.72206 0.04232 0.42247 0.0
H3229 H 0.71901 0.05591 0.41096 0.0
H3230 H 0.7704 0.06284 0.42622 0.0
H3231 H 0.76156 0.09535 0.40148 0.0
H3232 H 0.74973 0.0345 0.39177 0.0
H3233 H 0.73851 0.03218 0.41305 0.0
H3234 H 0.75777 0.03821 0.41635 0.0
H3235 H 0.73858 0.07338 0.36175 0.0
H3236 H 0.74379 0.08968 0.37641 0.0
H3237 H 0.72753 0.0725 0.38253 0.0
C3238 C 0.99762 0.70328 0.39288 0.0
C3239 C 1.00028 0.70266 0.37252 0.0
C3240 C 0.98359 0.69965 0.3998 0.0
C3241 C 0.97186 0.69519 0.38605 0.0
C3242 C 0.97456 0.69495 0.3654 0.0
C3243 C 0.98877 0.69873 0.35886 0.0
C3244 C 0.98123 0.70016 0.42194 0.0
C3245 C 0.96233 0.69021 0.35029 0.0
C3246 C 0.93423 0.67039 0.40874 0.0
C3247 C 0.9293 0.68033 0.41271 0.0
C3248 C 0.94773 0.67496 0.39919 0.0
C3249 C 0.95666 0.68988 0.39359 0.0
C3250 C 0.95154 0.69987 0.39684 0.0
C3251 C 0.93791 0.69497 0.40632 0.0
C3252 C 0.95276 0.66393 0.39597 0.0
C3253 C 0.96072 0.71586 0.39106 0.0
H3254 H 0.00649 0.70639 0.40352 0.0
H3255 H 0.99076 0.69824 0.3431 0.0
H3256 H 0.97611 0.70698 0.42497 0.0
H3257 H 0.97355 0.68891 0.4275 0.0
H3258 H 0.99167 0.70471 0.43052 0.0
H3259 H 0.96644 0.69171 0.33472 0.0
H3260 H 0.95407 0.67842 0.35257 0.0
H3261 H 0.95657 0.69654 0.35234 0.0
H3262 H 0.92784 0.65912 0.41387 0.0
H3263 H 0.93411 0.70269 0.40904 0.0
H3264 H 0.96242 0.66676 0.4056 0.0
H3265 H 0.95627 0.6643 0.38028 0.0
H3266 H 0.94398 0.65251 0.39948 0.0
H3267 H 0.97076 0.72125 0.4005 0.0
H3268 H 0.95462 0.7219 0.39287 0.0
H3269 H 0.9644 0.71688 0.37534 0.0
C3270 C 0.3953 0.04797 0.69821 0.0
C3271 C 0.38036 0.03768 0.70119 0.0
C3272 C 0.40638 0.0457 0.70629 0.0
C3273 C 0.40239 0.03282 0.71752 0.0
C3274 C 0.3873 0.02229 0.72024 0.0
C3275 C 0.37648 0.02486 0.71209 0.0
C3276 C 0.42233 0.0572 0.70312 0.0
C3277 C 0.38258 0.00837 0.73203 0.0
C3278 C 0.42897 0.01884 0.72689 0.0
C3279 C 0.43293 0.02289 0.74687 0.0
C3280 C 0.41949 0.02251 0.71685 0.0
C3281 C 0.41387 0.03046 0.727 0.0
C3282 C 0.41839 0.03519 0.74683 0.0
C3283 C 0.42782 0.03132 0.75654 0.0
C3284 C 0.41498 0.01732 0.69568 0.0
C3285 C 0.4127 0.04374 0.75816 0.0
H3286 H 0.39836 0.05791 0.68981 0.0
H3287 H 0.36495 0.01685 0.7144 0.0
H3288 H 0.42763 0.06186 0.7177 0.0
H3289 H 0.42835 0.05214 0.69631 0.0
H3290 H 0.42361 0.06633 0.6934 0.0
H3291 H 0.37042 0.00108 0.73225 0.0
H3292 H 0.38759 0.00217 0.72562 0.0
H3293 H 0.38655 0.01118 0.74763 0.0
H3294 H 0.43303 0.01251 0.71922 0.0
H3295 H 0.43063 0.03434 0.77204 0.0
H3296 H 0.41664 0.0266 0.68603 0.0
H3297 H 0.40308 0.00898 0.69523 0.0
H3298 H 0.42126 0.01235 0.68934 0.0
H3299 H 0.41426 0.05333 0.74929 0.0
H3300 H 0.41829 0.04774 0.77279 0.0
H3301 H 0.40071 0.03663 0.76082 0.0
C3302 C 0.99475 0.36177 0.71269 0.0
C3303 C 0.98407 0.35399 0.69806 0.0
C3304 C 0.99657 0.37491 0.72069 0.0
C3305 C 0.98757 0.38049 0.71381 0.0
C3306 C 0.97699 0.37287 0.69871 0.0
C3307 C 0.97532 0.35966 0.69106 0.0
C3308 C 0.00795 0.38265 0.73684 0.0
C3309 C 0.96728 0.37856 0.6909 0.0
C3310 C 0.98367 0.40584 0.75043 0.0
C3311 C 0.99462 0.41974 0.74379 0.0
C3312 C 0.98081 0.39299 0.74029 0.0
C3313 C 0.98903 0.39406 0.72301 0.0
C3314 C 0.99957 0.40809 0.71565 0.0
C3315 C 0.00229 0.42076 0.72618 0.0
C3316 C 0.96954 0.37824 0.7487 0.0
C3317 C 0.00844 0.4097 0.69715 0.0
H3318 H 0.00154 0.35745 0.71819 0.0
H3319 H 0.96706 0.3537 0.67973 0.0
H3320 H 0.01582 0.39412 0.73226 0.0
H3321 H 0.00248 0.38321 0.75069 0.0
H3322 H 0.01424 0.377 0.74026 0.0
H3323 H 0.96013 0.37176 0.67843 0.0
H3324 H 0.96018 0.37865 0.70307 0.0
H3325 H 0.97414 0.39007 0.68565 0.0
H3326 H 0.97783 0.40496 0.76415 0.0
H3327 H 0.01064 0.43149 0.72086 0.0
H3328 H 0.97516 0.37237 0.75422 0.0
H3329 H 0.96169 0.37131 0.73692 0.0
H3330 H 0.96321 0.37932 0.76121 0.0
H3331 H 0.01606 0.40549 0.70015 0.0
H3332 H 0.01503 0.42133 0.69221 0.0
H3333 H 0.00107 0.40306 0.68478 0.0
C3334 C 0.65416 0.63548 0.69458 0.0
C3335 C 0.66784 0.63641 0.69739 0.0
C3336 C 0.64145 0.62449 0.7041 0.0
C3337 C 0.64252 0.61437 0.71694 0.0
C3338 C 0.65624 0.61502 0.71937 0.0
C3339 C 0.66871 0.62597 0.70945 0.0
C3340 C 0.62697 0.62402 0.7009 0.0
C3341 C 0.65789 0.60453 0.73309 0.0
C3342 C 0.61558 0.59768 0.75988 0.0
C3343 C 0.60643 0.5832 0.75331 0.0
C3344 C 0.62717 0.60799 0.74801 0.0
C3345 C 0.6296 0.60377 0.72898 0.0
C3346 C 0.62012 0.58928 0.72199 0.0
C3347 C 0.60871 0.57912 0.73432 0.0
C3348 C 0.63714 0.62326 0.75614 0.0
C3349 C 0.62222 0.58445 0.70167 0.0
H3350 H 0.65342 0.64349 0.68519 0.0
H3351 H 0.67926 0.62665 0.71171 0.0
H3352 H 0.61826 0.61273 0.69679 0.0
H3353 H 0.62348 0.62692 0.71497 0.0
H3354 H 0.62769 0.63175 0.68907 0.0
H3355 H 0.66914 0.60603 0.73258 0.0
H3356 H 0.6555 0.60626 0.74865 0.0
H3357 H 0.64984 0.59299 0.72906 0.0
H3358 H 0.61399 0.60082 0.77466 0.0
H3359 H 0.60158 0.56795 0.72916 0.0
H3360 H 0.63751 0.63163 0.7457 0.0
H3361 H 0.64854 0.62525 0.75756 0.0
H3362 H 0.63349 0.62492 0.77097 0.0
H3363 H 0.62255 0.59215 0.69007 0.0
H3364 H 0.61331 0.57315 0.69789 0.0
H3365 H 0.63292 0.58472 0.70114 0.0
C3366 C 0.69302 0.70689 0.64379 0.0
C3367 C 0.70161 0.70805 0.66047 0.0
C3368 C 0.69268 0.7192 0.63634 0.0
C3369 C 0.7011 0.733 0.64584 0.0
C3370 C 0.7093 0.73411 0.6632 0.0
C3371 C 0.70948 0.72162 0.67029 0.0
C3372 C 0.68382 0.71754 0.61777 0.0
C3373 C 0.71834 0.74862 0.6738 0.0
C3374 C 0.71398 0.76623 0.61218 0.0
C3375 C 0.7037 0.7707 0.61626 0.0
C3376 C 0.71346 0.75424 0.6221 0.0
C3377 C 0.70237 0.74645 0.63649 0.0
C3378 C 0.69216 0.75109 0.64108 0.0
C3379 C 0.69291 0.76315 0.63085 0.0
C3380 C 0.72451 0.7496 0.61666 0.0
C3381 C 0.68024 0.74312 0.65644 0.0
H3382 H 0.68687 0.69642 0.63617 0.0
H3383 H 0.71609 0.72257 0.68324 0.0
H3384 H 0.67646 0.72212 0.62027 0.0
H3385 H 0.69137 0.72386 0.60538 0.0
H3386 H 0.67702 0.70588 0.61305 0.0
H3387 H 0.72287 0.74736 0.68817 0.0
H3388 H 0.72766 0.75625 0.66416 0.0
H3389 H 0.71158 0.75382 0.67674 0.0
H3390 H 0.72217 0.7718 0.60065 0.0
H3391 H 0.685 0.76661 0.63418 0.0
H3392 H 0.71872 0.73841 0.61006 0.0
H3393 H 0.73031 0.7491 0.63021 0.0
H3394 H 0.73285 0.75723 0.60581 0.0
H3395 H 0.6726 0.73173 0.65133 0.0
H3396 H 0.67378 0.74868 0.65923 0.0
H3397 H 0.68514 0.74232 0.67072 0.0
C3398 C 0.30033 0.99706 0.67126 0.0
C3399 C 0.31372 0.00481 0.66095 0.0
C3400 C 0.28914 0.98327 0.66447 0.0
C3401 C 0.29146 0.97709 0.64705 0.0
C3402 C 0.30496 0.98489 0.63663 0.0
C3403 C 0.3159 0.99865 0.64367 0.0
C3404 C 0.27486 0.97531 0.67591 0.0
C3405 C 0.30791 0.97867 0.61803 0.0
C3406 C 0.27053 0.93612 0.63626 0.0
C3407 C 0.26099 0.93522 0.62093 0.0
C3408 C 0.28 0.94957 0.64563 0.0
C3409 C 0.2799 0.96243 0.63961 0.0
C3410 C 0.26969 0.96143 0.625 0.0
C3411 C 0.26039 0.94785 0.6158 0.0
C3412 C 0.29068 0.95014 0.6612 0.0
C3413 C 0.26917 0.97488 0.61824 0.0
H3414 H 0.29859 0.00179 0.68461 0.0
H3415 H 0.32622 0.00457 0.63564 0.0
H3416 H 0.2655 0.97317 0.66602 0.0
H3417 H 0.27301 0.96448 0.68106 0.0
H3418 H 0.27474 0.98166 0.68907 0.0
H3419 H 0.31899 0.98612 0.61169 0.0
H3420 H 0.30704 0.96793 0.62144 0.0
H3421 H 0.29951 0.97666 0.60651 0.0
H3422 H 0.27088 0.92635 0.64055 0.0
H3423 H 0.25317 0.94731 0.60385 0.0
H3424 H 0.29023 0.95599 0.67471 0.0
H3425 H 0.30208 0.95639 0.65528 0.0
H3426 H 0.28841 0.939 0.6656 0.0
H3427 H 0.26878 0.98116 0.63127 0.0
H3428 H 0.25951 0.972 0.60854 0.0
H3429 H 0.27933 0.98225 0.60977 0.0
C3430 C 0.02276 0.32368 0.64279 0.0
C3431 C 0.0156 0.31485 0.65939 0.0
C3432 C 0.0348 0.32356 0.63396 0.0
C3433 C 0.03993 0.31449 0.64203 0.0
C3434 C 0.03302 0.30586 0.65915 0.0
C3435 C 0.02087 0.30609 0.66758 0.0
C3436 C 0.04178 0.33285 0.61563 0.0
C3437 C 0.03828 0.29618 0.66829 0.0
C3438 C 0.06023 0.30338 0.60551 0.0
C3439 C 0.07498 0.31384 0.60945 0.0
C3440 C 0.04874 0.30316 0.61646 0.0
C3441 C 0.05207 0.31359 0.63186 0.0
C3442 C 0.06697 0.3238 0.63645 0.0
C3443 C 0.07825 0.32387 0.6251 0.0
C3444 C 0.033 0.29219 0.61095 0.0
C3445 C 0.07097 0.33496 0.65292 0.0
H3446 H 0.01873 0.33048 0.63636 0.0
H3447 H 0.0154 0.29927 0.68045 0.0
H3448 H 0.05375 0.34029 0.61811 0.0
H3449 H 0.04058 0.32565 0.60282 0.0
H3450 H 0.03675 0.33961 0.61156 0.0
H3451 H 0.03237 0.29091 0.68234 0.0
H3452 H 0.03659 0.28741 0.6576 0.0
H3453 H 0.05026 0.30271 0.67147 0.0
H3454 H 0.05762 0.29573 0.59327 0.0
H3455 H 0.08965 0.33188 0.62832 0.0
H3456 H 0.02749 0.29809 0.60512 0.0
H3457 H 0.02679 0.28595 0.62432 0.0
H3458 H 0.03228 0.28424 0.59945 0.0
H3459 H 0.0673 0.34286 0.64885 0.0
H3460 H 0.08302 0.34123 0.6558 0.0
H3461 H 0.06522 0.32944 0.66691 0.0
C3462 C 0.31358 0.33149 0.64354 0.0
C3463 C 0.31118 0.32214 0.65978 0.0
C3464 C 0.30228 0.33362 0.63615 0.0
C3465 C 0.28823 0.32629 0.64528 0.0
C3466 C 0.28578 0.31702 0.6619 0.0
C3467 C 0.29729 0.31501 0.66892 0.0
C3468 C 0.30533 0.34354 0.61832 0.0
C3469 C 0.27098 0.30909 0.67209 0.0
C3470 C 0.26374 0.34237 0.63333 0.0
C3471 C 0.25517 0.33331 0.6176 0.0
C3472 C 0.27411 0.33983 0.64311 0.0
C3473 C 0.27604 0.32803 0.63689 0.0
C3474 C 0.26704 0.31852 0.62152 0.0
C3475 C 0.25671 0.32126 0.6121 0.0
C3476 C 0.28338 0.35011 0.65958 0.0
C3477 C 0.2688 0.30587 0.61436 0.0
H3478 H 0.32429 0.33704 0.6364 0.0
H3479 H 0.29538 0.3078 0.68151 0.0
H3480 H 0.29796 0.33716 0.60581 0.0
H3481 H 0.30296 0.35243 0.62205 0.0
H3482 H 0.31692 0.34864 0.61317 0.0
H3483 H 0.27105 0.30279 0.68535 0.0
H3484 H 0.26762 0.31709 0.67684 0.0
H3485 H 0.2625 0.30137 0.66149 0.0
H3486 H 0.2625 0.3516 0.63777 0.0
H3487 H 0.25029 0.31433 0.59977 0.0
H3488 H 0.29503 0.35655 0.65465 0.0
H3489 H 0.2831 0.34375 0.67295 0.0
H3490 H 0.27963 0.35791 0.66388 0.0
H3491 H 0.27978 0.31021 0.60732 0.0
H3492 H 0.26023 0.29887 0.60333 0.0
H3493 H 0.26828 0.2989 0.62712 0.0
C3494 C 0.715 0.99725 0.67307 0.0
C3495 C 0.70357 1.00035 0.67063 0.0
C3496 C 0.71462 0.98524 0.66331 0.0
C3497 C 0.70248 0.9761 0.65092 0.0
C3498 C 0.6905 0.97866 0.64942 0.0
C3499 C 0.69121 0.99079 0.65924 0.0
C3500 C 0.72762 0.98288 0.66528 0.0
C3501 C 0.6773 0.96911 0.63651 0.0
C3502 C 0.70957 0.95879 0.60582 0.0
C3503 C 0.70404 0.9442 0.61202 0.0
C3504 C 0.70923 0.96924 0.61843 0.0
C3505 C 0.70308 0.96501 0.63773 0.0
C3506 C 0.69739 0.95029 0.64411 0.0
C3507 C 0.69795 0.94004 0.63118 0.0
C3508 C 0.71538 0.98482 0.611 0.0
C3509 C 0.69071 0.94538 0.66457 0.0
H3510 H 0.72457 0.00459 0.68189 0.0
H3511 H 0.68229 0.99308 0.65741 0.0
H3512 H 0.72386 0.97117 0.66856 0.0
H3513 H 0.73372 0.98563 0.65095 0.0
H3514 H 0.73535 0.98982 0.6772 0.0
H3515 H 0.6682 0.97147 0.63879 0.0
H3516 H 0.68057 0.97103 0.62058 0.0
H3517 H 0.67312 0.95731 0.63965 0.0
H3518 H 0.71399 0.96204 0.5909 0.0
H3519 H 0.69375 0.92882 0.63613 0.0
H3520 H 0.72414 0.99262 0.62122 0.0
H3521 H 0.70658 0.98774 0.61082 0.0
H3522 H 0.72006 0.98639 0.59575 0.0
H3523 H 0.69894 0.95199 0.67617 0.0
H3524 H 0.68679 0.93356 0.66729 0.0
H3525 H 0.68129 0.94729 0.66634 0.0
C3526 C 0.02476 0.7274 0.66736 0.0
C3527 C 0.01888 0.71263 0.66182 0.0
C3528 C 0.03829 0.7384 0.65957 0.0
C3529 C 0.04612 0.73449 0.64606 0.0
C3530 C 0.04035 0.71955 0.64076 0.0
C3531 C 0.02678 0.70882 0.64864 0.0
C3532 C 0.04405 0.75423 0.66547 0.0
C3533 C 0.0484 0.7149 0.62652 0.0
C3534 C 0.07306 0.76169 0.6085 0.0
C3535 C 0.0867 0.76529 0.61697 0.0
C3536 C 0.05979 0.75219 0.61824 0.0
C3537 C 0.06011 0.74599 0.63685 0.0
C3538 C 0.07383 0.74997 0.64584 0.0
C3539 C 0.08695 0.7596 0.63583 0.0
C3540 C 0.04539 0.74828 0.60818 0.0
C3541 C 0.07464 0.7436 0.66566 0.0
H3542 H 0.01868 0.7304 0.67753 0.0
H3543 H 0.02232 0.69742 0.64436 0.0
H3544 H 0.05534 0.75902 0.67166 0.0
H3545 H 0.04475 0.76078 0.65211 0.0
H3546 H 0.03692 0.75538 0.6767 0.0
H3547 H 0.04269 0.70278 0.6245 0.0
H3548 H 0.04943 0.72009 0.61174 0.0
H3549 H 0.05972 0.71872 0.63205 0.0
H3550 H 0.07269 0.76581 0.59383 0.0
H3551 H 0.09743 0.76249 0.64264 0.0
H3552 H 0.0381 0.74982 0.61865 0.0
H3553 H 0.03959 0.73651 0.6038 0.0
H3554 H 0.04701 0.75502 0.59464 0.0
H3555 H 0.06784 0.74521 0.6769 0.0
H3556 H 0.08611 0.74862 0.67134 0.0
H3557 H 0.07009 0.73157 0.66411 0.0
C3558 C 0.99315 0.64325 0.70092 0.0
C3559 C 0.98 0.64359 0.7027 0.0
C3560 C 0.99456 0.63177 0.70933 0.0
C3561 C 0.98259 0.62045 0.71998 0.0
C3562 C 0.9692 0.6206 0.7215 0.0
C3563 C 0.96804 0.63212 0.71275 0.0
C3564 C 0.00896 0.63193 0.70719 0.0
C3565 C 0.95622 0.60879 0.73287 0.0
C3566 C 0.98105 0.5842 0.73138 0.0
C3567 C 0.98601 0.58634 0.75119 0.0
C3568 C 0.98023 0.59533 0.72083 0.0
C3569 C 0.98428 0.60885 0.73041 0.0
C3570 C 0.98954 0.61116 0.75029 0.0
C3571 C 0.99039 0.59991 0.76039 0.0
C3572 C 0.97477 0.59254 0.69956 0.0
C3573 C 0.99384 0.62535 0.76112 0.0
H3574 H 0.00241 0.65206 0.69309 0.0
H3575 H 0.95787 0.63234 0.7142 0.0
H3576 H 0.01412 0.63327 0.72207 0.0
H3577 H 0.00698 0.6213 0.70101 0.0
H3578 H 0.01685 0.64097 0.69736 0.0
H3579 H 0.94643 0.61021 0.73209 0.0
H3580 H 0.95316 0.59778 0.72691 0.0
H3581 H 0.95927 0.609 0.74877 0.0
H3582 H 0.97773 0.57376 0.72417 0.0
H3583 H 0.994 0.60155 0.7758 0.0
H3584 H 0.98287 0.60138 0.6897 0.0
H3585 H 0.96432 0.59273 0.6985 0.0
H3586 H 0.97282 0.58177 0.69391 0.0
H3587 H 0.00242 0.63483 0.7526 0.0
H3588 H 0.9981 0.62557 0.77636 0.0
H3589 H 0.98415 0.62689 0.76232 0.0
C3590 C 0.37316 0.36184 0.71771 0.0
C3591 C 0.37626 0.35644 0.70039 0.0
C3592 C 0.38371 0.37524 0.72619 0.0
C3593 C 0.39774 0.38342 0.71717 0.0
C3594 C 0.40086 0.37817 0.69946 0.0
C3595 C 0.39006 0.36473 0.69125 0.0
C3596 C 0.37993 0.38048 0.74505 0.0
C3597 C 0.4157 0.38658 0.68945 0.0
C3598 C 0.42044 0.42343 0.73322 0.0
C3599 C 0.42925 0.42259 0.74835 0.0
C3600 C 0.41048 0.41086 0.72244 0.0
C3601 C 0.4093 0.39713 0.72688 0.0
C3602 C 0.41852 0.39632 0.74163 0.0
C3603 C 0.42834 0.40903 0.7522 0.0
C3604 C 0.40086 0.41217 0.70678 0.0
C3605 C 0.41761 0.38189 0.74682 0.0
H3606 H 0.36249 0.35551 0.7248 0.0
H3607 H 0.39251 0.3606 0.67785 0.0
H3608 H 0.3873 0.38106 0.75733 0.0
H3609 H 0.38172 0.39173 0.74288 0.0
H3610 H 0.36833 0.37312 0.74974 0.0
H3611 H 0.41613 0.38139 0.67523 0.0
H3612 H 0.41839 0.39804 0.68635 0.0
H3613 H 0.42437 0.3872 0.69956 0.0
H3614 H 0.42121 0.4339 0.72998 0.0
H3615 H 0.43491 0.4082 0.76406 0.0
H3616 H 0.38917 0.40591 0.71155 0.0
H3617 H 0.40171 0.40732 0.6925 0.0
H3618 H 0.40385 0.42378 0.7041 0.0
H3619 H 0.40668 0.37431 0.75345 0.0
H3620 H 0.42628 0.38331 0.75758 0.0
H3621 H 0.41867 0.37655 0.73316 0.0
C3622 C 0.65753 0.03223 0.69228 0.0
C3623 C 0.66877 0.03517 0.706 0.0
C3624 C 0.6434 0.02872 0.69883 0.0
C3625 C 0.64059 0.02841 0.71954 0.0
C3626 C 0.6521 0.03195 0.73337 0.0
C3627 C 0.666 0.03515 0.72643 0.0
C3628 C 0.63136 0.02482 0.68367 0.0
C3629 C 0.64966 0.03199 0.75556 0.0
C3630 C 0.60754 0.02953 0.74054 0.0
C3631 C 0.59855 0.01492 0.74686 0.0
C3632 C 0.621 0.03401 0.73082 0.0
C3633 C 0.62548 0.02358 0.72704 0.0
C3634 C 0.61607 0.00866 0.73229 0.0
C3635 C 0.60282 0.00455 0.74228 0.0
C3636 C 0.63076 0.05003 0.72555 0.0
C3637 C 0.62035 0.99715 0.72832 0.0
H3638 H 0.65964 0.03219 0.67647 0.0
H3639 H 0.6747 0.03755 0.73708 0.0
H3640 H 0.62275 0.0131 0.68542 0.0
H3641 H 0.62599 0.03148 0.68615 0.0
H3642 H 0.63556 0.02658 0.66813 0.0
H3643 H 0.66001 0.03596 0.76421 0.0
H3644 H 0.64493 0.0391 0.75905 0.0
H3645 H 0.64163 0.0207 0.76062 0.0
H3646 H 0.60425 0.03759 0.7436 0.0
H3647 H 0.59615 0.99328 0.74729 0.0
H3648 H 0.6345 0.0512 0.70985 0.0
H3649 H 0.64075 0.05487 0.7351 0.0
H3650 H 0.6251 0.05647 0.72767 0.0
H3651 H 0.62402 0.99784 0.71265 0.0
H3652 H 0.61112 0.98583 0.73116 0.0
H3653 H 0.62972 0.99916 0.73807 0.0
loop_
_geom_bond_atom_site_label_1
_geom_bond_atom_site_label_2
_geom_bond_distance
_geom_bond_site_symmetry_2
_ccdc_geom_bond_type
In0 O1 2.337 . S
In0 O2 2.326 . S
In0 O6 2.266 1_455 S
In0 O7 2.326 1_554 S
In0 O8 2.266 1_554 S
In0 O9 2.326 1_454 S
In0 O11 2.294 . S
In0 O12 2.326 . S
O1 In0 2.337 . S
O1 C10 1.279 . S
O2 In0 2.326 . S
O2 C10 1.252 . S
C3 O6 1.252 1_556 S
C3 O7 1.260 1_655 S
C4 O11 1.240 . S
C4 O12 1.252 . S
C5 O8 1.252 . S
C5 O9 1.260 1_455 S
O6 In0 2.266 1_655 S
O6 C3 1.252 1_554 S
O7 In0 2.326 1_556 S
O7 C3 1.260 1_455 S
O8 In0 2.266 1_556 S
O8 C5 1.252 . S
O9 In0 2.326 1_656 S
O9 C5 1.260 1_655 S
C10 O1 1.279 . S
C10 O2 1.252 . S
O11 In0 2.294 . S
O11 C4 1.240 . S
O12 In0 2.326 . S
O12 C4 1.252 . S
In13 O14 2.294 . S
In13 O15 2.326 . S
In13 O19 2.266 . S
In13 O20 2.326 1_554 S
In13 O21 2.266 1_554 S
In13 O22 2.326 1_554 S
In13 O24 2.294 . S
In13 O25 2.326 . S
O14 In13 2.294 . S
O14 C23 1.240 . S
O15 In13 2.326 . S
O15 C23 1.252 . S
C16 O19 1.252 1_556 S
C16 O20 1.260 . S
C17 O24 1.240 . S
C17 O25 1.252 . S
C18 O21 1.252 . S
C18 O22 1.260 . S
O19 In13 2.266 . S
O19 C16 1.252 1_554 S
O20 In13 2.326 1_556 S
O20 C16 1.260 . S
O21 In13 2.266 1_556 S
O21 C18 1.252 . S
O22 In13 2.326 1_556 S
O22 C18 1.260 . S
C23 O14 1.240 . S
C23 O15 1.252 . S
O24 In13 2.294 . S
O24 C17 1.240 . S
O25 In13 2.326 . S
O25 C17 1.252 . S
In26 O27 2.294 . S
In26 O28 2.326 1_554 S
In26 O32 2.266 . S
In26 O33 2.326 1_545 S
In26 O34 2.266 1_545 S
In26 O35 2.326 . S
In26 O37 2.294 1_554 S
In26 O38 2.326 1_554 S
O27 In26 2.294 . S
O27 C36 1.240 1_554 S
O28 In26 2.326 1_556 S
O28 C36 1.252 . S
C29 O32 1.252 . S
C29 O33 1.260 1_545 S
C30 O37 1.240 . S
C30 O38 1.252 . S
C31 O34 1.252 . S
C31 O35 1.260 1_565 S
O32 In26 2.266 . S
O32 C29 1.252 . S
O33 In26 2.326 1_565 S
O33 C29 1.260 1_565 S
O34 In26 2.266 1_565 S
O34 C31 1.252 . S
O35 In26 2.326 . S
O35 C31 1.260 1_545 S
C36 O27 1.240 1_556 S
C36 O28 1.252 . S
O37 In26 2.294 1_556 S
O37 C30 1.240 . S
O38 In26 2.326 1_556 S
O38 C30 1.252 . S
In39 O40 2.294 1_554 S
In39 O41 2.326 1_454 S
In39 O45 2.266 . S
In39 O46 2.326 . S
In39 O47 2.277 . S
In39 O48 2.326 . S
In39 O50 2.294 1_455 S
In39 O51 2.326 1_554 S
O40 In39 2.294 1_556 S
O40 C49 1.240 . S
O41 In39 2.326 1_656 S
O41 C49 1.252 1_655 S
C42 O45 1.252 . S
C42 O46 1.260 . S
C43 O50 1.240 1_556 S
C43 O51 1.252 1_655 S
C44 O47 1.333 . S
C44 O48 1.260 . S
O45 In39 2.266 . S
O45 C42 1.252 . S
O46 In39 2.326 . S
O46 C42 1.260 . S
O47 In39 2.277 . S
O47 C44 1.333 . S
O48 In39 2.326 . S
O48 C44 1.260 . S
C49 O40 1.240 . S
C49 O41 1.252 1_455 S
O50 In39 2.294 1_655 S
O50 C43 1.240 1_554 S
O51 In39 2.326 1_556 S
O51 C43 1.252 1_455 S
In52 O53 2.294 1_554 S
In52 O54 2.326 1_554 S
In52 O58 2.266 . S
In52 O59 2.326 . S
In52 O60 2.266 . S
In52 O61 2.326 . S
In52 O63 2.294 . S
In52 O64 2.326 1_554 S
O53 In52 2.294 1_556 S
O53 C62 1.240 . S
O54 In52 2.326 1_556 S
O54 C62 1.252 . S
C55 O58 1.252 . S
C55 O59 1.260 . S
C56 O63 1.240 1_556 S
C56 O64 1.252 . S
C57 O60 1.252 . S
C57 O61 1.260 . S
O58 In52 2.266 . S
O58 C55 1.252 . S
O59 In52 2.326 . S
O59 C55 1.260 . S
O60 In52 2.266 . S
O60 C57 1.252 . S
O61 In52 2.326 . S
O61 C57 1.260 . S
C62 O53 1.240 . S
C62 O54 1.252 . S
O63 In52 2.294 . S
O63 C56 1.240 1_554 S
O64 In52 2.326 1_556 S
O64 C56 1.252 . S
In65 O66 2.294 . S
In65 O67 2.326 1_545 S
In65 O71 2.266 . S
In65 O72 2.326 1_554 S
In65 O73 2.266 1_554 S
In65 O74 2.326 1_554 S
In65 O76 2.294 1_545 S
In65 O77 2.326 . S
O66 In65 2.294 . S
O66 C75 1.240 . S
O67 In65 2.326 1_565 S
O67 C75 1.252 1_565 S
C68 O71 1.252 1_556 S
C68 O72 1.260 . S
C69 O76 1.240 . S
C69 O77 1.252 1_565 S
C70 O73 1.252 . S
C70 O74 1.260 . S
O71 In65 2.266 . S
O71 C68 1.252 1_554 S
O72 In65 2.326 1_556 S
O72 C68 1.260 . S
O73 In65 2.266 1_556 S
O73 C70 1.252 . S
O74 In65 2.326 1_556 S
O74 C70 1.260 . S
C75 O66 1.240 . S
C75 O67 1.252 1_545 S
O76 In65 2.294 1_565 S
O76 C69 1.240 . S
O77 In65 2.326 . S
O77 C69 1.252 1_545 S
In78 O79 2.294 . S
In78 O80 2.326 . S
In78 O84 2.266 . S
In78 O85 2.326 . S
In78 O86 2.266 . S
In78 O87 2.326 . S
In78 O89 2.294 . S
In78 O90 2.326 . S
O79 In78 2.294 . S
O79 C88 1.240 . S
O80 In78 2.326 . S
O80 C88 1.252 . S
C81 O84 1.252 . S
C81 O85 1.260 . S
C82 O89 1.240 . S
C82 O90 1.252 . S
C83 O86 1.252 . S
C83 O87 1.260 . S
O84 In78 2.266 . S
O84 C81 1.252 . S
O85 In78 2.326 . S
O85 C81 1.260 . S
O86 In78 2.266 . S
O86 C83 1.252 . S
O87 In78 2.326 . S
O87 C83 1.260 . S
C88 O79 1.240 . S
C88 O80 1.252 . S
O89 In78 2.294 . S
O89 C82 1.240 . S
O90 In78 2.326 . S
O90 C82 1.252 . S
In91 O92 2.294 . S
In91 O93 2.326 . S
In91 O97 2.266 . S
In91 O98 2.326 . S
In91 O99 2.266 . S
In91 O100 2.326 . S
In91 O102 2.294 1_565 S
In91 O103 2.290 1_565 S
O92 In91 2.294 . S
O92 C101 1.240 . S
O93 In91 2.326 . S
O93 C101 1.252 . S
C94 O97 1.252 . S
C94 O98 1.260 . S
C95 O102 1.240 . S
C95 O103 1.303 . S
C96 O99 1.252 . S
C96 O100 1.260 . S
O97 In91 2.266 . S
O97 C94 1.252 . S
O98 In91 2.326 . S
O98 C94 1.260 . S
O99 In91 2.266 . S
O99 C96 1.252 . S
O100 In91 2.326 . S
O100 C96 1.260 . S
C101 O92 1.240 . S
C101 O93 1.252 . S
O102 In91 2.294 1_545 S
O102 C95 1.240 . S
O103 In91 2.290 1_545 S
O103 C95 1.303 . S
In104 O105 2.294 . S
In104 O106 2.326 . S
In104 O110 2.266 . S
In104 O111 2.326 . S
In104 O112 2.266 . S
In104 O113 2.326 . S
In104 O115 2.294 . S
In104 O116 2.326 . S
O105 In104 2.294 . S
O105 C114 1.240 . S
O106 In104 2.326 . S
O106 C114 1.252 . S
C107 O110 1.252 . S
C107 O111 1.260 . S
C108 O115 1.240 . S
C108 O116 1.252 . S
C109 O112 1.252 . S
C109 O113 1.260 . S
O110 In104 2.266 . S
O110 C107 1.252 . S
O111 In104 2.326 . S
O111 C107 1.260 . S
O112 In104 2.266 . S
O112 C109 1.252 . S
O113 In104 2.326 . S
O113 C109 1.260 . S
C114 O105 1.240 . S
C114 O106 1.252 . S
O115 In104 2.294 . S
O115 C108 1.240 . S
O116 In104 2.326 . S
O116 C108 1.252 . S
In117 O118 2.294 . S
In117 O119 2.326 . S
In117 O123 2.266 1_565 S
In117 O124 2.305 1_565 S
In117 O125 2.266 . S
In117 O126 2.326 . S
In117 O128 2.294 . S
In117 O129 2.326 . S
O118 In117 2.294 . S
O118 C127 1.240 . S
O119 In117 2.326 . S
O119 C127 1.252 . S
C120 O123 1.252 . S
C120 O124 1.261 . S
C121 O128 1.240 . S
C121 O129 1.252 . S
C122 O125 1.252 . S
C122 O126 1.260 . S
O123 In117 2.266 1_545 S
O123 C120 1.252 . S
O124 In117 2.305 1_545 S
O124 C120 1.261 . S
O125 In117 2.266 . S
O125 C122 1.252 . S
O126 In117 2.326 . S
O126 C122 1.260 . S
C127 O118 1.240 . S
C127 O119 1.252 . S
O128 In117 2.294 . S
O128 C121 1.240 . S
O129 In117 2.326 . S
O129 C121 1.252 . S
In130 O131 2.294 . S
In130 O132 2.326 . S
In130 O136 2.266 . S
In130 O137 2.326 . S
In130 O138 2.266 . S
In130 O139 2.326 . S
In130 O141 2.294 . S
In130 O142 2.326 . S
O131 In130 2.294 . S
O131 C140 1.240 . S
O132 In130 2.326 . S
O132 C140 1.252 . S
C133 O136 1.252 . S
C133 O137 1.260 . S
C134 O141 1.240 . S
C134 O142 1.252 . S
C135 O138 1.252 . S
C135 O139 1.260 . S
O136 In130 2.266 . S
O136 C133 1.252 . S
O137 In130 2.326 . S
O137 C133 1.260 . S
O138 In130 2.266 . S
O138 C135 1.252 . S
O139 In130 2.326 . S
O139 C135 1.260 . S
C140 O131 1.240 . S
C140 O132 1.252 . S
O141 In130 2.294 . S
O141 C134 1.240 . S
O142 In130 2.326 . S
O142 C134 1.252 . S
In143 O144 2.294 . S
In143 O145 2.326 . S
In143 O149 2.266 . S
In143 O150 2.326 . S
In143 O151 2.266 . S
In143 O152 2.326 . S
In143 O154 2.294 . S
In143 O155 2.326 . S
O144 In143 2.294 . S
O144 C153 1.240 . S
O145 In143 2.326 . S
O145 C153 1.252 . S
C146 O149 1.252 . S
C146 O150 1.260 . S
C147 O154 1.240 . S
C147 O155 1.252 . S
C148 O151 1.252 . S
C148 O152 1.260 . S
O149 In143 2.266 . S
O149 C146 1.252 . S
O150 In143 2.326 . S
O150 C146 1.260 . S
O151 In143 2.266 . S
O151 C148 1.252 . S
O152 In143 2.326 . S
O152 C148 1.260 . S
C153 O144 1.240 . S
C153 O145 1.252 . S
O154 In143 2.294 . S
O154 C147 1.240 . S
O155 In143 2.326 . S
O155 C147 1.252 . S
In156 O157 2.294 . S
In156 O158 2.326 . S
In156 O162 2.266 . S
In156 O163 2.326 . S
In156 O164 2.266 . S
In156 O165 2.326 . S
In156 O167 2.294 . S
In156 O168 2.326 . S
O157 In156 2.294 . S
O157 C166 1.240 . S
O158 In156 2.326 . S
O158 C166 1.252 . S
C159 O162 1.252 . S
C159 O163 1.260 . S
C160 O167 1.240 . S
C160 O168 1.252 . S
C161 O164 1.252 . S
C161 O165 1.260 . S
O162 In156 2.266 . S
O162 C159 1.252 . S
O163 In156 2.326 . S
O163 C159 1.260 . S
O164 In156 2.266 . S
O164 C161 1.252 . S
O165 In156 2.326 . S
O165 C161 1.260 . S
C166 O157 1.240 . S
C166 O158 1.252 . S
O167 In156 2.294 . S
O167 C160 1.240 . S
O168 In156 2.326 . S
O168 C160 1.252 . S
In169 O170 2.294 . S
In169 O171 2.326 . S
In169 O175 2.266 . S
In169 O176 2.326 . S
In169 O177 2.266 1_655 S
In169 O178 2.317 1_655 S
In169 O180 2.294 . S
In169 O181 2.326 . S
O170 In169 2.294 . S
O170 C179 1.240 . S
O171 In169 2.326 . S
O171 C179 1.252 . S
C172 O175 1.252 . S
C172 O176 1.260 . S
C173 O180 1.240 . S
C173 O181 1.252 . S
C174 O177 1.252 . S
C174 O178 1.271 . S
O175 In169 2.266 . S
O175 C172 1.252 . S
O176 In169 2.326 . S
O176 C172 1.260 . S
O177 In169 2.266 1_455 S
O177 C174 1.252 . S
O178 In169 2.317 1_455 S
O178 C174 1.271 . S
C179 O170 1.240 . S
C179 O171 1.252 . S
O180 In169 2.294 . S
O180 C173 1.240 . S
O181 In169 2.326 . S
O181 C173 1.252 . S
In182 O183 2.294 . S
In182 O184 2.326 . S
In182 O188 2.266 . S
In182 O189 2.326 . S
In182 O190 2.266 . S
In182 O191 2.326 . S
In182 O193 2.294 . S
In182 O194 2.326 . S
O183 In182 2.294 . S
O183 C192 1.240 . S
O184 In182 2.326 . S
O184 C192 1.252 . S
C185 O188 1.252 . S
C185 O189 1.260 . S
C186 O193 1.240 . S
C186 O194 1.252 . S
C187 O190 1.252 . S
C187 O191 1.260 . S
O188 In182 2.266 . S
O188 C185 1.252 . S
O189 In182 2.326 . S
O189 C185 1.260 . S
O190 In182 2.266 . S
O190 C187 1.252 . S
O191 In182 2.326 . S
O191 C187 1.260 . S
C192 O183 1.240 . S
C192 O184 1.252 . S
O193 In182 2.294 . S
O193 C186 1.240 . S
O194 In182 2.326 . S
O194 C186 1.252 . S
In195 O196 2.294 . S
In195 O197 2.326 . S
In195 O201 2.266 . S
In195 O202 2.326 . S
In195 O203 2.266 . S
In195 O204 2.326 . S
In195 O206 2.294 . S
In195 O207 2.326 . S
O196 In195 2.294 . S
O196 C205 1.240 . S
O197 In195 2.326 . S
O197 C205 1.252 . S
C198 O201 1.252 . S
C198 O202 1.260 . S
C199 O206 1.240 . S
C199 O207 1.252 . S
C200 O203 1.252 . S
C200 O204 1.260 . S
O201 In195 2.266 . S
O201 C198 1.252 . S
O202 In195 2.326 . S
O202 C198 1.260 . S
O203 In195 2.266 . S
O203 C200 1.252 . S
O204 In195 2.326 . S
O204 C200 1.260 . S
C205 O196 1.240 . S
C205 O197 1.252 . S
O206 In195 2.294 . S
O206 C199 1.240 . S
O207 In195 2.326 . S
O207 C199 1.252 . S
In208 O209 2.294 . S
In208 O210 2.326 . S
In208 O214 2.266 . S
In208 O215 2.326 . S
In208 O216 2.266 . S
In208 O217 2.326 . S
In208 O219 2.294 . S
In208 O220 2.326 . S
O209 In208 2.294 . S
O209 C218 1.240 . S
O210 In208 2.326 . S
O210 C218 1.252 . S
C211 O214 1.252 . S
C211 O215 1.260 . S
C212 O219 1.240 . S
C212 O220 1.252 . S
C213 O216 1.252 . S
C213 O217 1.260 . S
O214 In208 2.266 . S
O214 C211 1.252 . S
O215 In208 2.326 . S
O215 C211 1.260 . S
O216 In208 2.266 . S
O216 C213 1.252 . S
O217 In208 2.326 . S
O217 C213 1.260 . S
C218 O209 1.240 . S
C218 O210 1.252 . S
O219 In208 2.294 . S
O219 C212 1.240 . S
O220 In208 2.326 . S
O220 C212 1.252 . S
In221 O222 2.294 . S
In221 O223 2.326 . S
In221 O227 2.266 . S
In221 O228 2.326 . S
In221 O229 2.266 1_655 S
In221 O230 2.319 . S
In221 O232 2.294 . S
In221 O233 2.326 . S
O222 In221 2.294 . S
O222 C231 1.240 . S
O223 In221 2.326 . S
O223 C231 1.252 . S
C224 O227 1.252 . S
C224 O228 1.260 . S
C225 O232 1.240 . S
C225 O233 1.252 . S
C226 O229 1.252 . S
C226 O230 1.260 1_455 S
O227 In221 2.266 . S
O227 C224 1.252 . S
O228 In221 2.326 . S
O228 C224 1.260 . S
O229 In221 2.266 1_455 S
O229 C226 1.252 . S
O230 In221 2.319 . S
O230 C226 1.260 1_655 S
C231 O222 1.240 . S
C231 O223 1.252 . S
O232 In221 2.294 . S
O232 C225 1.240 . S
O233 In221 2.326 . S
O233 C225 1.252 . S
H234 C261 0.929 . S
N235 C260 1.433 . S
N235 C266 1.435 . S
N235 C272 1.423 . S
H236 C262 0.930 . S
H237 C265 0.931 . S
H238 C264 0.929 . S
H239 C267 0.930 . S
H240 C268 0.932 . S
H241 C271 0.929 . S
H242 C270 0.931 . S
H243 C273 0.929 . S
H244 C277 0.932 . S
H245 C274 0.931 . S
H246 C276 0.929 . S
H247 C279 0.929 . S
H248 C280 0.930 . S
H249 C282 0.929 . S
H250 C283 0.931 . S
H251 C285 0.930 . S
H252 C286 0.932 . S
H253 C288 0.931 . S
H254 C289 0.929 . S
H255 C291 0.929 . S
H256 C292 0.931 . S
H257 C294 0.929 . S
N258 C278 1.433 . S
N258 C284 1.435 . S
N258 C290 1.423 . S
H259 C295 0.932 . S
C260 N235 1.433 . S
C260 C261 1.363 . S
C260 C265 1.370 . S
C261 H234 0.929 . S
C261 C260 1.363 . S
C261 C262 1.385 . S
C262 H236 0.930 . S
C262 C261 1.385 . S
C262 C263 1.357 . S
C263 C262 1.357 . S
C263 C264 1.406 . S
C264 H238 0.929 . S
C264 C263 1.406 . S
C264 C265 1.391 . S
C265 H237 0.931 . S
C265 C260 1.370 . S
C265 C264 1.391 . S
C266 N235 1.435 . S
C266 C267 1.358 . S
C266 C271 1.371 . S
C267 H239 0.930 . S
C267 C266 1.358 . S
C267 C268 1.405 . S
C268 H240 0.932 . S
C268 C267 1.405 . S
C268 C269 1.383 . S
C269 C268 1.383 . S
C269 C270 1.393 . S
C270 H242 0.931 . S
C270 C269 1.393 . S
C270 C271 1.382 . S
C271 H241 0.929 . S
C271 C266 1.371 . S
C271 C270 1.382 . S
C272 N235 1.423 . S
C272 C273 1.362 . S
C272 C277 1.388 . S
C273 H243 0.929 . S
C273 C272 1.362 . S
C273 C274 1.376 . S
C274 H245 0.931 . S
C274 C273 1.376 . S
C274 C275 1.396 . S
C275 C274 1.396 . S
C275 C276 1.348 . S
C275 C293 1.472 . S
C276 H246 0.929 . S
C276 C275 1.348 . S
C276 C277 1.443 . S
C277 H244 0.932 . S
C277 C272 1.388 . S
C277 C276 1.443 . S
C278 N258 1.433 . S
C278 C279 1.363 . S
C278 C283 1.370 . S
C279 H247 0.929 . S
C279 C278 1.363 . S
C279 C280 1.385 . S
C280 H248 0.930 . S
C280 C279 1.385 . S
C280 C281 1.357 . S
C281 C280 1.357 . S
C281 C282 1.406 . S
C282 H249 0.929 . S
C282 C281 1.406 . S
C282 C283 1.391 . S
C283 H250 0.931 . S
C283 C278 1.370 . S
C283 C282 1.391 . S
C284 N258 1.435 . S
C284 C285 1.358 . S
C284 C289 1.371 . S
C285 H251 0.930 . S
C285 C284 1.358 . S
C285 C286 1.405 . S
C286 H252 0.932 . S
C286 C285 1.405 . S
C286 C287 1.383 . S
C287 C286 1.383 . S
C287 C288 1.393 . S
C288 H253 0.931 . S
C288 C287 1.393 . S
C288 C289 1.382 . S
C289 H254 0.929 . S
C289 C284 1.371 . S
C289 C288 1.382 . S
C290 N258 1.423 . S
C290 C291 1.362 . S
C290 C295 1.388 . S
C291 H255 0.929 . S
C291 C290 1.362 . S
C291 C292 1.376 . S
C292 H256 0.931 . S
C292 C291 1.376 . S
C292 C293 1.396 . S
C293 C275 1.472 . S
C293 C292 1.396 . S
C293 C294 1.348 . S
C294 H257 0.929 . S
C294 C293 1.348 . S
C294 C295 1.443 . S
C295 H259 0.932 . S
C295 C290 1.388 . S
C295 C294 1.443 . S
H296 C323 0.929 . S
N297 C322 1.433 . S
N297 C328 1.435 . S
N297 C334 1.423 . S
H298 C324 0.930 . S
H299 C327 0.931 . S
H300 C326 0.929 . S
H301 C329 0.930 . S
H302 C330 0.932 . S
H303 C333 0.929 . S
H304 C332 0.931 . S
H305 C335 0.929 . S
H306 C339 0.932 . S
H307 C336 0.931 . S
H308 C338 0.929 . S
H309 C341 0.929 . S
H310 C342 0.930 . S
H311 C344 0.929 . S
H312 C345 0.931 . S
H313 C347 0.930 . S
H314 C348 0.932 . S
H315 C350 0.931 . S
H316 C351 0.929 . S
H317 C353 0.929 . S
H318 C354 0.931 . S
H319 C356 0.929 . S
N320 C340 1.433 . S
N320 C346 1.435 . S
N320 C352 1.423 . S
H321 C357 0.932 . S
C322 N297 1.433 . S
C322 C323 1.363 . S
C322 C327 1.370 . S
C323 H296 0.929 . S
C323 C322 1.363 . S
C323 C324 1.385 . S
C324 H298 0.930 . S
C324 C323 1.385 . S
C324 C325 1.357 . S
C325 C324 1.357 . S
C325 C326 1.406 . S
C326 H300 0.929 . S
C326 C325 1.406 . S
C326 C327 1.391 . S
C327 H299 0.931 . S
C327 C322 1.370 . S
C327 C326 1.391 . S
C328 N297 1.435 . S
C328 C329 1.358 . S
C328 C333 1.371 . S
C329 H301 0.930 . S
C329 C328 1.358 . S
C329 C330 1.405 . S
C330 H302 0.932 . S
C330 C329 1.405 . S
C330 C331 1.383 . S
C331 C330 1.383 . S
C331 C332 1.393 . S
C332 H304 0.931 . S
C332 C331 1.393 . S
C332 C333 1.382 . S
C333 H303 0.929 . S
C333 C328 1.371 . S
C333 C332 1.382 . S
C334 N297 1.423 . S
C334 C335 1.362 . S
C334 C339 1.388 . S
C335 H305 0.929 . S
C335 C334 1.362 . S
C335 C336 1.376 . S
C336 H307 0.931 . S
C336 C335 1.376 . S
C336 C337 1.396 . S
C337 C336 1.396 . S
C337 C338 1.348 . S
C337 C355 1.472 . S
C338 H308 0.929 . S
C338 C337 1.348 . S
C338 C339 1.443 . S
C339 H306 0.932 . S
C339 C334 1.388 . S
C339 C338 1.443 . S
C340 N320 1.433 . S
C340 C341 1.363 . S
C340 C345 1.370 . S
C341 H309 0.929 . S
C341 C340 1.363 . S
C341 C342 1.385 . S
C342 H310 0.930 . S
C342 C341 1.385 . S
C342 C343 1.357 . S
C343 C342 1.357 . S
C343 C344 1.406 . S
C344 H311 0.929 . S
C344 C343 1.406 . S
C344 C345 1.391 . S
C345 H312 0.931 . S
C345 C340 1.370 . S
C345 C344 1.391 . S
C346 N320 1.435 . S
C346 C347 1.358 . S
C346 C351 1.371 . S
C347 H313 0.930 . S
C347 C346 1.358 . S
C347 C348 1.405 . S
C348 H314 0.932 . S
C348 C347 1.405 . S
C348 C349 1.383 . S
C349 C348 1.383 . S
C349 C350 1.393 . S
C350 H315 0.931 . S
C350 C349 1.393 . S
C350 C351 1.382 . S
C351 H316 0.929 . S
C351 C346 1.371 . S
C351 C350 1.382 . S
C352 N320 1.423 . S
C352 C353 1.362 . S
C352 C357 1.388 . S
C353 H317 0.929 . S
C353 C352 1.362 . S
C353 C354 1.376 . S
C354 H318 0.931 . S
C354 C353 1.376 . S
C354 C355 1.396 . S
C355 C337 1.472 . S
C355 C354 1.396 . S
C355 C356 1.348 . S
C356 H319 0.929 . S
C356 C355 1.348 . S
C356 C357 1.443 . S
C357 H321 0.932 . S
C357 C352 1.388 . S
C357 C356 1.443 . S
H358 C385 0.929 . S
N359 C384 1.433 . S
N359 C390 1.435 . S
N359 C396 1.423 . S
H360 C386 0.930 . S
H361 C389 0.931 . S
H362 C388 0.929 . S
H363 C391 0.930 . S
H364 C392 0.932 . S
H365 C395 0.929 . S
H366 C394 0.931 . S
H367 C397 0.929 . S
H368 C401 0.932 . S
H369 C398 0.931 . S
H370 C400 0.929 . S
H371 C403 0.929 . S
H372 C404 0.930 . S
H373 C406 0.929 . S
H374 C407 0.931 . S
H375 C409 0.930 . S
H376 C410 0.932 . S
H377 C412 0.931 . S
H378 C413 0.929 . S
H379 C415 0.929 . S
H380 C416 0.931 . S
H381 C418 0.929 . S
N382 C402 1.433 . S
N382 C408 1.435 . S
N382 C414 1.423 . S
H383 C419 0.932 . S
C384 N359 1.433 . S
C384 C385 1.363 . S
C384 C389 1.370 . S
C385 H358 0.929 . S
C385 C384 1.363 . S
C385 C386 1.385 . S
C386 H360 0.930 . S
C386 C385 1.385 . S
C386 C387 1.357 . S
C387 C386 1.357 . S
C387 C388 1.406 . S
C388 H362 0.929 . S
C388 C387 1.406 . S
C388 C389 1.391 . S
C389 H361 0.931 . S
C389 C384 1.370 . S
C389 C388 1.391 . S
C390 N359 1.435 . S
C390 C391 1.358 . S
C390 C395 1.371 . S
C391 H363 0.930 . S
C391 C390 1.358 . S
C391 C392 1.405 . S
C392 H364 0.932 . S
C392 C391 1.405 . S
C392 C393 1.383 . S
C393 C392 1.383 . S
C393 C394 1.393 . S
C394 H366 0.931 . S
C394 C393 1.393 . S
C394 C395 1.382 . S
C395 H365 0.929 . S
C395 C390 1.371 . S
C395 C394 1.382 . S
C396 N359 1.423 . S
C396 C397 1.362 . S
C396 C401 1.388 . S
C397 H367 0.929 . S
C397 C396 1.362 . S
C397 C398 1.376 . S
C398 H369 0.931 . S
C398 C397 1.376 . S
C398 C399 1.396 . S
C399 C398 1.396 . S
C399 C400 1.348 . S
C399 C417 1.472 . S
C400 H370 0.929 . S
C400 C399 1.348 . S
C400 C401 1.443 . S
C401 H368 0.932 . S
C401 C396 1.388 . S
C401 C400 1.443 . S
C402 N382 1.433 . S
C402 C403 1.363 . S
C402 C407 1.370 . S
C403 H371 0.929 . S
C403 C402 1.363 . S
C403 C404 1.385 . S
C404 H372 0.930 . S
C404 C403 1.385 . S
C404 C405 1.357 . S
C405 C404 1.357 . S
C405 C406 1.406 . S
C406 H373 0.929 . S
C406 C405 1.406 . S
C406 C407 1.391 . S
C407 H374 0.931 . S
C407 C402 1.370 . S
C407 C406 1.391 . S
C408 N382 1.435 . S
C408 C409 1.358 . S
C408 C413 1.371 . S
C409 H375 0.930 . S
C409 C408 1.358 . S
C409 C410 1.405 . S
C410 H376 0.932 . S
C410 C409 1.405 . S
C410 C411 1.383 . S
C411 C410 1.383 . S
C411 C412 1.393 . S
C412 H377 0.931 . S
C412 C411 1.393 . S
C412 C413 1.382 . S
C413 H378 0.929 . S
C413 C408 1.371 . S
C413 C412 1.382 . S
C414 N382 1.423 . S
C414 C415 1.362 . S
C414 C419 1.388 . S
C415 H379 0.929 . S
C415 C414 1.362 . S
C415 C416 1.376 . S
C416 H380 0.931 . S
C416 C415 1.376 . S
C416 C417 1.396 . S
C417 C399 1.472 . S
C417 C416 1.396 . S
C417 C418 1.348 . S
C418 H381 0.929 . S
C418 C417 1.348 . S
C418 C419 1.443 . S
C419 H383 0.932 . S
C419 C414 1.388 . S
C419 C418 1.443 . S
H420 C447 0.929 . S
N421 C446 1.433 . S
N421 C452 1.435 . S
N421 C458 1.423 . S
H422 C448 0.930 . S
H423 C451 0.931 . S
H424 C450 0.929 . S
H425 C453 0.930 . S
H426 C454 0.932 . S
H427 C457 0.929 . S
H428 C456 0.931 . S
H429 C459 0.929 . S
H430 C463 0.932 . S
H431 C460 0.931 . S
H432 C462 0.929 . S
H433 C465 0.929 . S
H434 C466 0.930 . S
H435 C468 0.929 . S
H436 C469 0.931 . S
H437 C471 0.930 . S
H438 C472 0.932 . S
H439 C474 0.931 . S
H440 C475 0.929 . S
H441 C477 0.929 . S
H442 C478 0.931 . S
H443 C480 0.929 . S
N444 C464 1.433 . S
N444 C470 1.435 . S
N444 C476 1.423 . S
H445 C481 0.932 . S
C446 N421 1.433 . S
C446 C447 1.363 . S
C446 C451 1.370 . S
C447 H420 0.929 . S
C447 C446 1.363 . S
C447 C448 1.385 . S
C448 H422 0.930 . S
C448 C447 1.385 . S
C448 C449 1.357 . S
C449 C448 1.357 . S
C449 C450 1.406 . S
C450 H424 0.929 . S
C450 C449 1.406 . S
C450 C451 1.391 . S
C451 H423 0.931 . S
C451 C446 1.370 . S
C451 C450 1.391 . S
C452 N421 1.435 . S
C452 C453 1.358 . S
C452 C457 1.371 . S
C453 H425 0.930 . S
C453 C452 1.358 . S
C453 C454 1.405 . S
C454 H426 0.932 . S
C454 C453 1.405 . S
C454 C455 1.383 . S
C455 C454 1.383 . S
C455 C456 1.393 . S
C456 H428 0.931 . S
C456 C455 1.393 . S
C456 C457 1.382 . S
C457 H427 0.929 . S
C457 C452 1.371 . S
C457 C456 1.382 . S
C458 N421 1.423 . S
C458 C459 1.362 . S
C458 C463 1.388 . S
C459 H429 0.929 . S
C459 C458 1.362 . S
C459 C460 1.376 . S
C460 H431 0.931 . S
C460 C459 1.376 . S
C460 C461 1.396 . S
C461 C460 1.396 . S
C461 C462 1.348 . S
C461 C479 1.472 . S
C462 H432 0.929 . S
C462 C461 1.348 . S
C462 C463 1.443 . S
C463 H430 0.932 . S
C463 C458 1.388 . S
C463 C462 1.443 . S
C464 N444 1.433 . S
C464 C465 1.363 . S
C464 C469 1.370 . S
C465 H433 0.929 . S
C465 C464 1.363 . S
C465 C466 1.385 . S
C466 H434 0.930 . S
C466 C465 1.385 . S
C466 C467 1.357 . S
C467 C466 1.357 . S
C467 C468 1.406 . S
C468 H435 0.929 . S
C468 C467 1.406 . S
C468 C469 1.391 . S
C469 H436 0.931 . S
C469 C464 1.370 . S
C469 C468 1.391 . S
C470 N444 1.435 . S
C470 C471 1.358 . S
C470 C475 1.371 . S
C471 H437 0.930 . S
C471 C470 1.358 . S
C471 C472 1.405 . S
C472 H438 0.932 . S
C472 C471 1.405 . S
C472 C473 1.383 . S
C473 C472 1.383 . S
C473 C474 1.393 . S
C474 H439 0.931 . S
C474 C473 1.393 . S
C474 C475 1.382 . S
C475 H440 0.929 . S
C475 C470 1.371 . S
C475 C474 1.382 . S
C476 N444 1.423 . S
C476 C477 1.362 . S
C476 C481 1.388 . S
C477 H441 0.929 . S
C477 C476 1.362 . S
C477 C478 1.376 . S
C478 H442 0.931 . S
C478 C477 1.376 . S
C478 C479 1.396 . S
C479 C461 1.472 . S
C479 C478 1.396 . S
C479 C480 1.348 . S
C480 H443 0.929 . S
C480 C479 1.348 . S
C480 C481 1.443 . S
C481 H445 0.932 . S
C481 C476 1.388 . S
C481 C480 1.443 . S
H482 C509 0.929 . S
N483 C508 1.433 . S
N483 C514 1.435 . S
N483 C520 1.423 . S
H484 C510 0.930 . S
H485 C513 0.931 . S
H486 C512 0.929 . S
H487 C515 0.930 . S
H488 C516 0.932 . S
H489 C519 0.929 . S
H490 C518 0.931 . S
H491 C521 0.929 . S
H492 C525 0.932 . S
H493 C522 0.931 . S
H494 C524 0.929 . S
H495 C527 0.929 . S
H496 C528 0.930 . S
H497 C530 0.929 . S
H498 C531 0.931 . S
H499 C533 0.930 . S
H500 C534 0.932 . S
H501 C536 0.931 . S
H502 C537 0.929 . S
H503 C539 0.929 . S
H504 C540 0.931 . S
H505 C542 0.929 . S
N506 C526 1.433 . S
N506 C532 1.435 . S
N506 C538 1.423 . S
H507 C543 0.932 . S
C508 N483 1.433 . S
C508 C509 1.363 . S
C508 C513 1.370 . S
C509 H482 0.929 . S
C509 C508 1.363 . S
C509 C510 1.385 . S
C510 H484 0.930 . S
C510 C509 1.385 . S
C510 C511 1.357 . S
C511 C510 1.357 . S
C511 C512 1.406 . S
C512 H486 0.929 . S
C512 C511 1.406 . S
C512 C513 1.391 . S
C513 H485 0.931 . S
C513 C508 1.370 . S
C513 C512 1.391 . S
C514 N483 1.435 . S
C514 C515 1.358 . S
C514 C519 1.371 . S
C515 H487 0.930 . S
C515 C514 1.358 . S
C515 C516 1.405 . S
C516 H488 0.932 . S
C516 C515 1.405 . S
C516 C517 1.383 . S
C517 C516 1.383 . S
C517 C518 1.393 . S
C518 H490 0.931 . S
C518 C517 1.393 . S
C518 C519 1.382 . S
C519 H489 0.929 . S
C519 C514 1.371 . S
C519 C518 1.382 . S
C520 N483 1.423 . S
C520 C521 1.362 . S
C520 C525 1.388 . S
C521 H491 0.929 . S
C521 C520 1.362 . S
C521 C522 1.376 . S
C522 H493 0.931 . S
C522 C521 1.376 . S
C522 C523 1.396 . S
C523 C522 1.396 . S
C523 C524 1.348 . S
C523 C541 1.472 . S
C524 H494 0.929 . S
C524 C523 1.348 . S
C524 C525 1.443 . S
C525 H492 0.932 . S
C525 C520 1.388 . S
C525 C524 1.443 . S
C526 N506 1.433 . S
C526 C527 1.363 . S
C526 C531 1.370 . S
C527 H495 0.929 . S
C527 C526 1.363 . S
C527 C528 1.385 . S
C528 H496 0.930 . S
C528 C527 1.385 . S
C528 C529 1.357 . S
C529 C528 1.357 . S
C529 C530 1.406 . S
C530 H497 0.929 . S
C530 C529 1.406 . S
C530 C531 1.391 . S
C531 H498 0.931 . S
C531 C526 1.370 . S
C531 C530 1.391 . S
C532 N506 1.435 . S
C532 C533 1.358 . S
C532 C537 1.371 . S
C533 H499 0.930 . S
C533 C532 1.358 . S
C533 C534 1.405 . S
C534 H500 0.932 . S
C534 C533 1.405 . S
C534 C535 1.383 . S
C535 C534 1.383 . S
C535 C536 1.393 . S
C536 H501 0.931 . S
C536 C535 1.393 . S
C536 C537 1.382 . S
C537 H502 0.929 . S
C537 C532 1.371 . S
C537 C536 1.382 . S
C538 N506 1.423 . S
C538 C539 1.362 . S
C538 C543 1.388 . S
C539 H503 0.929 . S
C539 C538 1.362 . S
C539 C540 1.376 . S
C540 H504 0.931 . S
C540 C539 1.376 . S
C540 C541 1.396 . S
C541 C523 1.472 . S
C541 C540 1.396 . S
C541 C542 1.348 . S
C542 H505 0.929 . S
C542 C541 1.348 . S
C542 C543 1.443 . S
C543 H507 0.932 . S
C543 C538 1.388 . S
C543 C542 1.443 . S
H544 C571 0.929 . S
N545 C570 1.433 . S
N545 C576 1.435 . S
N545 C582 1.423 . S
H546 C572 0.930 . S
H547 C575 0.931 . S
H548 C574 0.929 . S
H549 C577 0.930 . S
H550 C578 0.932 . S
H551 C581 0.929 . S
H552 C580 0.931 . S
H553 C583 0.929 . S
H554 C587 0.932 . S
H555 C584 0.931 . S
H556 C586 0.929 . S
H557 C589 0.929 . S
H558 C590 0.930 . S
H559 C592 0.929 . S
H560 C593 0.931 . S
H561 C595 0.930 . S
H562 C596 0.932 . S
H563 C598 0.931 . S
H564 C599 0.929 . S
H565 C601 0.929 . S
H566 C602 0.931 . S
H567 C604 0.929 . S
N568 C588 1.433 . S
N568 C594 1.435 . S
N568 C600 1.423 . S
H569 C605 0.932 . S
C570 N545 1.433 . S
C570 C571 1.363 . S
C570 C575 1.370 . S
C571 H544 0.929 . S
C571 C570 1.363 . S
C571 C572 1.385 . S
C572 H546 0.930 . S
C572 C571 1.385 . S
C572 C573 1.357 . S
C573 C572 1.357 . S
C573 C574 1.406 . S
C574 H548 0.929 . S
C574 C573 1.406 . S
C574 C575 1.391 . S
C575 H547 0.931 . S
C575 C570 1.370 . S
C575 C574 1.391 . S
C576 N545 1.435 . S
C576 C577 1.358 . S
C576 C581 1.371 . S
C577 H549 0.930 . S
C577 C576 1.358 . S
C577 C578 1.405 . S
C578 H550 0.932 . S
C578 C577 1.405 . S
C578 C579 1.383 . S
C579 C578 1.383 . S
C579 C580 1.393 . S
C580 H552 0.931 . S
C580 C579 1.393 . S
C580 C581 1.382 . S
C581 H551 0.929 . S
C581 C576 1.371 . S
C581 C580 1.382 . S
C582 N545 1.423 . S
C582 C583 1.362 . S
C582 C587 1.388 . S
C583 H553 0.929 . S
C583 C582 1.362 . S
C583 C584 1.376 . S
C584 H555 0.931 . S
C584 C583 1.376 . S
C584 C585 1.396 . S
C585 C584 1.396 . S
C585 C586 1.348 . S
C585 C603 1.472 . S
C586 H556 0.929 . S
C586 C585 1.348 . S
C586 C587 1.443 . S
C587 H554 0.932 . S
C587 C582 1.388 . S
C587 C586 1.443 . S
C588 N568 1.433 . S
C588 C589 1.363 . S
C588 C593 1.370 . S
C589 H557 0.929 . S
C589 C588 1.363 . S
C589 C590 1.385 . S
C590 H558 0.930 . S
C590 C589 1.385 . S
C590 C591 1.357 . S
C591 C590 1.357 . S
C591 C592 1.406 . S
C592 H559 0.929 . S
C592 C591 1.406 . S
C592 C593 1.391 . S
C593 H560 0.931 . S
C593 C588 1.370 . S
C593 C592 1.391 . S
C594 N568 1.435 . S
C594 C595 1.358 . S
C594 C599 1.371 . S
C595 H561 0.930 . S
C595 C594 1.358 . S
C595 C596 1.405 . S
C596 H562 0.932 . S
C596 C595 1.405 . S
C596 C597 1.383 . S
C597 C596 1.383 . S
C597 C598 1.393 . S
C598 H563 0.931 . S
C598 C597 1.393 . S
C598 C599 1.382 . S
C599 H564 0.929 . S
C599 C594 1.371 . S
C599 C598 1.382 . S
C600 N568 1.423 . S
C600 C601 1.362 . S
C600 C605 1.388 . S
C601 H565 0.929 . S
C601 C600 1.362 . S
C601 C602 1.376 . S
C602 H566 0.931 . S
C602 C601 1.376 . S
C602 C603 1.396 . S
C603 C585 1.472 . S
C603 C602 1.396 . S
C603 C604 1.348 . S
C604 H567 0.929 . S
C604 C603 1.348 . S
C604 C605 1.443 . S
C605 H569 0.932 . S
C605 C600 1.388 . S
C605 C604 1.443 . S
H606 C633 0.929 . S
N607 C632 1.433 . S
N607 C638 1.435 . S
N607 C644 1.423 . S
H608 C634 0.930 . S
H609 C637 0.931 . S
H610 C636 0.929 . S
H611 C639 0.930 . S
H612 C640 0.932 . S
H613 C643 0.929 . S
H614 C642 0.931 . S
H615 C645 0.929 . S
H616 C649 0.932 . S
H617 C646 0.931 . S
H618 C648 0.929 . S
H619 C651 0.929 . S
H620 C652 0.930 . S
H621 C654 0.929 . S
H622 C655 0.931 . S
H623 C657 0.930 . S
H624 C658 0.932 . S
H625 C660 0.931 . S
H626 C661 0.929 . S
H627 C663 0.929 . S
H628 C664 0.931 . S
H629 C666 0.929 . S
N630 C650 1.433 . S
N630 C656 1.435 . S
N630 C662 1.423 . S
H631 C667 0.932 . S
C632 N607 1.433 . S
C632 C633 1.363 . S
C632 C637 1.370 . S
C633 H606 0.929 . S
C633 C632 1.363 . S
C633 C634 1.385 . S
C634 H608 0.930 . S
C634 C633 1.385 . S
C634 C635 1.357 . S
C635 C634 1.357 . S
C635 C636 1.406 . S
C636 H610 0.929 . S
C636 C635 1.406 . S
C636 C637 1.391 . S
C637 H609 0.931 . S
C637 C632 1.370 . S
C637 C636 1.391 . S
C638 N607 1.435 . S
C638 C639 1.358 . S
C638 C643 1.371 . S
C639 H611 0.930 . S
C639 C638 1.358 . S
C639 C640 1.405 . S
C640 H612 0.932 . S
C640 C639 1.405 . S
C640 C641 1.383 . S
C641 C640 1.383 . S
C641 C642 1.393 . S
C642 H614 0.931 . S
C642 C641 1.393 . S
C642 C643 1.382 . S
C643 H613 0.929 . S
C643 C638 1.371 . S
C643 C642 1.382 . S
C644 N607 1.423 . S
C644 C645 1.362 . S
C644 C649 1.388 . S
C645 H615 0.929 . S
C645 C644 1.362 . S
C645 C646 1.376 . S
C646 H617 0.931 . S
C646 C645 1.376 . S
C646 C647 1.396 . S
C647 C646 1.396 . S
C647 C648 1.348 . S
C647 C665 1.472 . S
C648 H618 0.929 . S
C648 C647 1.348 . S
C648 C649 1.443 . S
C649 H616 0.932 . S
C649 C644 1.388 . S
C649 C648 1.443 . S
C650 N630 1.433 . S
C650 C651 1.363 . S
C650 C655 1.370 . S
C651 H619 0.929 . S
C651 C650 1.363 . S
C651 C652 1.385 . S
C652 H620 0.930 . S
C652 C651 1.385 . S
C652 C653 1.357 . S
C653 C652 1.357 . S
C653 C654 1.406 . S
C654 H621 0.929 . S
C654 C653 1.406 . S
C654 C655 1.391 . S
C655 H622 0.931 . S
C655 C650 1.370 . S
C655 C654 1.391 . S
C656 N630 1.435 . S
C656 C657 1.358 . S
C656 C661 1.371 . S
C657 H623 0.930 . S
C657 C656 1.358 . S
C657 C658 1.405 . S
C658 H624 0.932 . S
C658 C657 1.405 . S
C658 C659 1.383 . S
C659 C658 1.383 . S
C659 C660 1.393 . S
C660 H625 0.931 . S
C660 C659 1.393 . S
C660 C661 1.382 . S
C661 H626 0.929 . S
C661 C656 1.371 . S
C661 C660 1.382 . S
C662 N630 1.423 . S
C662 C663 1.362 . S
C662 C667 1.388 . S
C663 H627 0.929 . S
C663 C662 1.362 . S
C663 C664 1.376 . S
C664 H628 0.931 . S
C664 C663 1.376 . S
C664 C665 1.396 . S
C665 C647 1.472 . S
C665 C664 1.396 . S
C665 C666 1.348 . S
C666 H629 0.929 . S
C666 C665 1.348 . S
C666 C667 1.443 . S
C667 H631 0.932 . S
C667 C662 1.388 . S
C667 C666 1.443 . S
H668 C695 0.929 . S
N669 C694 1.433 . S
N669 C700 1.435 . S
N669 C706 1.423 . S
H670 C696 0.930 . S
H671 C699 0.931 . S
H672 C698 0.929 . S
H673 C701 0.930 . S
H674 C702 0.932 . S
H675 C705 0.929 . S
H676 C704 0.931 . S
H677 C707 0.929 . S
H678 C711 0.932 . S
H679 C708 0.931 . S
H680 C710 0.929 . S
H681 C713 0.929 . S
H682 C714 0.930 . S
H683 C716 0.929 . S
H684 C717 0.931 . S
H685 C719 0.930 . S
H686 C720 0.932 . S
H687 C722 0.931 . S
H688 C723 0.929 . S
H689 C725 0.929 . S
H690 C726 0.931 . S
H691 C728 0.929 . S
N692 C712 1.433 . S
N692 C718 1.435 . S
N692 C724 1.423 . S
H693 C729 0.932 . S
C694 N669 1.433 . S
C694 C695 1.363 . S
C694 C699 1.370 . S
C695 H668 0.929 . S
C695 C694 1.363 . S
C695 C696 1.385 . S
C696 H670 0.930 . S
C696 C695 1.385 . S
C696 C697 1.357 . S
C697 C696 1.357 . S
C697 C698 1.406 . S
C698 H672 0.929 . S
C698 C697 1.406 . S
C698 C699 1.391 . S
C699 H671 0.931 . S
C699 C694 1.370 . S
C699 C698 1.391 . S
C700 N669 1.435 . S
C700 C701 1.358 . S
C700 C705 1.371 . S
C701 H673 0.930 . S
C701 C700 1.358 . S
C701 C702 1.405 . S
C702 H674 0.932 . S
C702 C701 1.405 . S
C702 C703 1.383 . S
C703 C702 1.383 . S
C703 C704 1.393 . S
C704 H676 0.931 . S
C704 C703 1.393 . S
C704 C705 1.382 . S
C705 H675 0.929 . S
C705 C700 1.371 . S
C705 C704 1.382 . S
C706 N669 1.423 . S
C706 C707 1.362 . S
C706 C711 1.388 . S
C707 H677 0.929 . S
C707 C706 1.362 . S
C707 C708 1.376 . S
C708 H679 0.931 . S
C708 C707 1.376 . S
C708 C709 1.396 . S
C709 C708 1.396 . S
C709 C710 1.348 . S
C709 C727 1.472 . S
C710 H680 0.929 . S
C710 C709 1.348 . S
C710 C711 1.443 . S
C711 H678 0.932 . S
C711 C706 1.388 . S
C711 C710 1.443 . S
C712 N692 1.433 . S
C712 C713 1.363 . S
C712 C717 1.370 . S
C713 H681 0.929 . S
C713 C712 1.363 . S
C713 C714 1.385 . S
C714 H682 0.930 . S
C714 C713 1.385 . S
C714 C715 1.357 . S
C715 C714 1.357 . S
C715 C716 1.406 . S
C716 H683 0.929 . S
C716 C715 1.406 . S
C716 C717 1.391 . S
C717 H684 0.931 . S
C717 C712 1.370 . S
C717 C716 1.391 . S
C718 N692 1.435 . S
C718 C719 1.358 . S
C718 C723 1.371 . S
C719 H685 0.930 . S
C719 C718 1.358 . S
C719 C720 1.405 . S
C720 H686 0.932 . S
C720 C719 1.405 . S
C720 C721 1.383 . S
C721 C720 1.383 . S
C721 C722 1.393 . S
C722 H687 0.931 . S
C722 C721 1.393 . S
C722 C723 1.382 . S
C723 H688 0.929 . S
C723 C718 1.371 . S
C723 C722 1.382 . S
C724 N692 1.423 . S
C724 C725 1.362 . S
C724 C729 1.388 . S
C725 H689 0.929 . S
C725 C724 1.362 . S
C725 C726 1.376 . S
C726 H690 0.931 . S
C726 C725 1.376 . S
C726 C727 1.396 . S
C727 C709 1.472 . S
C727 C726 1.396 . S
C727 C728 1.348 . S
C728 H691 0.929 . S
C728 C727 1.348 . S
C728 C729 1.443 . S
C729 H693 0.932 . S
C729 C724 1.388 . S
C729 C728 1.443 . S
H730 C757 0.929 . S
N731 C756 1.433 . S
N731 C762 1.435 . S
N731 C768 1.423 . S
H732 C758 0.930 . S
H733 C761 0.931 . S
H734 C760 0.929 . S
H735 C763 0.930 . S
H736 C764 0.932 . S
H737 C767 0.929 . S
H738 C766 0.931 . S
H739 C769 0.929 . S
H740 C773 0.932 . S
H741 C770 0.931 . S
H742 C772 0.929 . S
H743 C775 0.929 . S
H744 C776 0.930 . S
H745 C778 0.929 . S
H746 C779 0.931 . S
H747 C781 0.930 . S
H748 C782 0.932 . S
H749 C784 0.931 . S
H750 C785 0.929 . S
H751 C787 0.929 . S
H752 C788 0.931 . S
H753 C790 0.929 . S
N754 C774 1.433 . S
N754 C780 1.435 . S
N754 C786 1.423 . S
H755 C791 0.932 . S
C756 N731 1.433 . S
C756 C757 1.363 . S
C756 C761 1.370 . S
C757 H730 0.929 . S
C757 C756 1.363 . S
C757 C758 1.385 . S
C758 H732 0.930 . S
C758 C757 1.385 . S
C758 C759 1.357 . S
C759 C758 1.357 . S
C759 C760 1.406 . S
C760 H734 0.929 . S
C760 C759 1.406 . S
C760 C761 1.391 . S
C761 H733 0.931 . S
C761 C756 1.370 . S
C761 C760 1.391 . S
C762 N731 1.435 . S
C762 C763 1.358 . S
C762 C767 1.371 . S
C763 H735 0.930 . S
C763 C762 1.358 . S
C763 C764 1.405 . S
C764 H736 0.932 . S
C764 C763 1.405 . S
C764 C765 1.383 . S
C765 C764 1.383 . S
C765 C766 1.393 . S
C766 H738 0.931 . S
C766 C765 1.393 . S
C766 C767 1.382 . S
C767 H737 0.929 . S
C767 C762 1.371 . S
C767 C766 1.382 . S
C768 N731 1.423 . S
C768 C769 1.362 . S
C768 C773 1.388 . S
C769 H739 0.929 . S
C769 C768 1.362 . S
C769 C770 1.376 . S
C770 H741 0.931 . S
C770 C769 1.376 . S
C770 C771 1.396 . S
C771 C770 1.396 . S
C771 C772 1.348 . S
C771 C789 1.472 . S
C772 H742 0.929 . S
C772 C771 1.348 . S
C772 C773 1.443 . S
C773 H740 0.932 . S
C773 C768 1.388 . S
C773 C772 1.443 . S
C774 N754 1.433 . S
C774 C775 1.363 . S
C774 C779 1.370 . S
C775 H743 0.929 . S
C775 C774 1.363 . S
C775 C776 1.385 . S
C776 H744 0.930 . S
C776 C775 1.385 . S
C776 C777 1.357 . S
C777 C776 1.357 . S
C777 C778 1.406 . S
C778 H745 0.929 . S
C778 C777 1.406 . S
C778 C779 1.391 . S
C779 H746 0.931 . S
C779 C774 1.370 . S
C779 C778 1.391 . S
C780 N754 1.435 . S
C780 C781 1.358 . S
C780 C785 1.371 . S
C781 H747 0.930 . S
C781 C780 1.358 . S
C781 C782 1.405 . S
C782 H748 0.932 . S
C782 C781 1.405 . S
C782 C783 1.383 . S
C783 C782 1.383 . S
C783 C784 1.393 . S
C784 H749 0.931 . S
C784 C783 1.393 . S
C784 C785 1.382 . S
C785 H750 0.929 . S
C785 C780 1.371 . S
C785 C784 1.382 . S
C786 N754 1.423 . S
C786 C787 1.362 . S
C786 C791 1.388 . S
C787 H751 0.929 . S
C787 C786 1.362 . S
C787 C788 1.376 . S
C788 H752 0.931 . S
C788 C787 1.376 . S
C788 C789 1.396 . S
C789 C771 1.472 . S
C789 C788 1.396 . S
C789 C790 1.348 . S
C790 H753 0.929 . S
C790 C789 1.348 . S
C790 C791 1.443 . S
C791 H755 0.932 . S
C791 C786 1.388 . S
C791 C790 1.443 . S
H792 C819 0.929 . S
N793 C818 1.433 . S
N793 C824 1.435 . S
N793 C830 1.423 . S
H794 C820 0.930 . S
H795 C823 0.931 . S
H796 C822 0.929 . S
H797 C825 0.930 . S
H798 C826 0.932 . S
H799 C829 0.929 . S
H800 C828 0.931 . S
H801 C831 0.929 . S
H802 C835 0.932 . S
H803 C832 0.931 . S
H804 C834 0.929 . S
H805 C837 0.929 . S
H806 C838 0.930 . S
H807 C840 0.929 . S
H808 C841 0.931 . S
H809 C843 0.930 . S
H810 C844 0.932 . S
H811 C846 0.931 . S
H812 C847 0.929 . S
H813 C849 0.929 . S
H814 C850 0.931 . S
H815 C852 0.929 . S
N816 C836 1.433 . S
N816 C842 1.435 . S
N816 C848 1.423 . S
H817 C853 0.932 . S
C818 N793 1.433 . S
C818 C819 1.363 . S
C818 C823 1.370 . S
C819 H792 0.929 . S
C819 C818 1.363 . S
C819 C820 1.385 . S
C820 H794 0.930 . S
C820 C819 1.385 . S
C820 C821 1.357 . S
C821 C820 1.357 . S
C821 C822 1.406 . S
C822 H796 0.929 . S
C822 C821 1.406 . S
C822 C823 1.391 . S
C823 H795 0.931 . S
C823 C818 1.370 . S
C823 C822 1.391 . S
C824 N793 1.435 . S
C824 C825 1.358 . S
C824 C829 1.371 . S
C825 H797 0.930 . S
C825 C824 1.358 . S
C825 C826 1.405 . S
C826 H798 0.932 . S
C826 C825 1.405 . S
C826 C827 1.383 . S
C827 C826 1.383 . S
C827 C828 1.393 . S
C828 H800 0.931 . S
C828 C827 1.393 . S
C828 C829 1.382 . S
C829 H799 0.929 . S
C829 C824 1.371 . S
C829 C828 1.382 . S
C830 N793 1.423 . S
C830 C831 1.362 . S
C830 C835 1.388 . S
C831 H801 0.929 . S
C831 C830 1.362 . S
C831 C832 1.376 . S
C832 H803 0.931 . S
C832 C831 1.376 . S
C832 C833 1.396 . S
C833 C832 1.396 . S
C833 C834 1.348 . S
C833 C851 1.472 . S
C834 H804 0.929 . S
C834 C833 1.348 . S
C834 C835 1.443 . S
C835 H802 0.932 . S
C835 C830 1.388 . S
C835 C834 1.443 . S
C836 N816 1.433 . S
C836 C837 1.363 . S
C836 C841 1.370 . S
C837 H805 0.929 . S
C837 C836 1.363 . S
C837 C838 1.385 . S
C838 H806 0.930 . S
C838 C837 1.385 . S
C838 C839 1.357 . S
C839 C838 1.357 . S
C839 C840 1.406 . S
C840 H807 0.929 . S
C840 C839 1.406 . S
C840 C841 1.391 . S
C841 H808 0.931 . S
C841 C836 1.370 . S
C841 C840 1.391 . S
C842 N816 1.435 . S
C842 C843 1.358 . S
C842 C847 1.371 . S
C843 H809 0.930 . S
C843 C842 1.358 . S
C843 C844 1.405 . S
C844 H810 0.932 . S
C844 C843 1.405 . S
C844 C845 1.383 . S
C845 C844 1.383 . S
C845 C846 1.393 . S
C846 H811 0.931 . S
C846 C845 1.393 . S
C846 C847 1.382 . S
C847 H812 0.929 . S
C847 C842 1.371 . S
C847 C846 1.382 . S
C848 N816 1.423 . S
C848 C849 1.362 . S
C848 C853 1.388 . S
C849 H813 0.929 . S
C849 C848 1.362 . S
C849 C850 1.376 . S
C850 H814 0.931 . S
C850 C849 1.376 . S
C850 C851 1.396 . S
C851 C833 1.472 . S
C851 C850 1.396 . S
C851 C852 1.348 . S
C852 H815 0.929 . S
C852 C851 1.348 . S
C852 C853 1.443 . S
C853 H817 0.932 . S
C853 C848 1.388 . S
C853 C852 1.443 . S
H854 C881 0.929 . S
N855 C880 1.433 . S
N855 C886 1.435 . S
N855 C892 1.423 . S
H856 C882 0.930 . S
H857 C885 0.931 . S
H858 C884 0.929 . S
H859 C887 0.930 . S
H860 C888 0.932 . S
H861 C891 0.929 . S
H862 C890 0.931 . S
H863 C893 0.929 . S
H864 C897 0.932 . S
H865 C894 0.931 . S
H866 C896 0.929 . S
H867 C899 0.929 . S
H868 C900 0.930 . S
H869 C902 0.929 . S
H870 C903 0.931 . S
H871 C905 0.930 . S
H872 C906 0.932 . S
H873 C908 0.931 . S
H874 C909 0.929 . S
H875 C911 0.929 . S
H876 C912 0.931 . S
H877 C914 0.929 . S
N878 C898 1.433 . S
N878 C904 1.435 . S
N878 C910 1.423 . S
H879 C915 0.932 . S
C880 N855 1.433 . S
C880 C881 1.363 . S
C880 C885 1.370 . S
C881 H854 0.929 . S
C881 C880 1.363 . S
C881 C882 1.385 . S
C882 H856 0.930 . S
C882 C881 1.385 . S
C882 C883 1.357 . S
C883 C882 1.357 . S
C883 C884 1.406 . S
C884 H858 0.929 . S
C884 C883 1.406 . S
C884 C885 1.391 . S
C885 H857 0.931 . S
C885 C880 1.370 . S
C885 C884 1.391 . S
C886 N855 1.435 . S
C886 C887 1.358 . S
C886 C891 1.371 . S
C887 H859 0.930 . S
C887 C886 1.358 . S
C887 C888 1.405 . S
C888 H860 0.932 . S
C888 C887 1.405 . S
C888 C889 1.383 . S
C889 C888 1.383 . S
C889 C890 1.393 . S
C890 H862 0.931 . S
C890 C889 1.393 . S
C890 C891 1.382 . S
C891 H861 0.929 . S
C891 C886 1.371 . S
C891 C890 1.382 . S
C892 N855 1.423 . S
C892 C893 1.362 . S
C892 C897 1.388 . S
C893 H863 0.929 . S
C893 C892 1.362 . S
C893 C894 1.376 . S
C894 H865 0.931 . S
C894 C893 1.376 . S
C894 C895 1.396 . S
C895 C894 1.396 . S
C895 C896 1.348 . S
C895 C913 1.472 . S
C896 H866 0.929 . S
C896 C895 1.348 . S
C896 C897 1.443 . S
C897 H864 0.932 . S
C897 C892 1.388 . S
C897 C896 1.443 . S
C898 N878 1.433 . S
C898 C899 1.363 . S
C898 C903 1.370 . S
C899 H867 0.929 . S
C899 C898 1.363 . S
C899 C900 1.385 . S
C900 H868 0.930 . S
C900 C899 1.385 . S
C900 C901 1.357 . S
C901 C900 1.357 . S
C901 C902 1.406 . S
C902 H869 0.929 . S
C902 C901 1.406 . S
C902 C903 1.391 . S
C903 H870 0.931 . S
C903 C898 1.370 . S
C903 C902 1.391 . S
C904 N878 1.435 . S
C904 C905 1.358 . S
C904 C909 1.371 . S
C905 H871 0.930 . S
C905 C904 1.358 . S
C905 C906 1.405 . S
C906 H872 0.932 . S
C906 C905 1.405 . S
C906 C907 1.383 . S
C907 C906 1.383 . S
C907 C908 1.393 . S
C908 H873 0.931 . S
C908 C907 1.393 . S
C908 C909 1.382 . S
C909 H874 0.929 . S
C909 C904 1.371 . S
C909 C908 1.382 . S
C910 N878 1.423 . S
C910 C911 1.362 . S
C910 C915 1.388 . S
C911 H875 0.929 . S
C911 C910 1.362 . S
C911 C912 1.376 . S
C912 H876 0.931 . S
C912 C911 1.376 . S
C912 C913 1.396 . S
C913 C895 1.472 . S
C913 C912 1.396 . S
C913 C914 1.348 . S
C914 H877 0.929 . S
C914 C913 1.348 . S
C914 C915 1.443 . S
C915 H879 0.932 . S
C915 C910 1.388 . S
C915 C914 1.443 . S
H916 C943 0.929 . S
N917 C942 1.433 . S
N917 C948 1.435 . S
N917 C954 1.423 . S
H918 C944 0.930 . S
H919 C947 0.931 . S
H920 C946 0.929 . S
H921 C949 0.930 . S
H922 C950 0.932 . S
H923 C953 0.929 . S
H924 C952 0.931 . S
H925 C955 0.929 . S
H926 C959 0.932 1_545 S
H927 C956 0.931 . S
H928 C958 0.982 . S
H929 C961 0.929 . S
H930 C962 0.930 . S
H931 C964 0.929 . S
H932 C965 0.931 . S
H933 C967 0.930 . S
H934 C968 0.932 . S
H935 C970 0.931 . S
H936 C971 0.929 . S
H937 C973 0.929 . S
H938 C974 0.931 . S
H939 C976 0.940 . S
N940 C960 1.433 . S
N940 C966 1.435 . S
N940 C972 1.423 . S
H941 C977 0.932 1_545 S
C942 N917 1.433 . S
C942 C943 1.363 . S
C942 C947 1.370 1_565 S
C943 H916 0.929 . S
C943 C942 1.363 . S
C943 C944 1.385 . S
C944 H918 0.930 . S
C944 C943 1.385 . S
C944 C945 1.357 1_565 S
C945 C944 1.357 1_545 S
C945 C946 1.406 . S
C946 H920 0.929 . S
C946 C945 1.406 . S
C946 C947 1.391 . S
C947 H919 0.931 . S
C947 C942 1.370 1_545 S
C947 C946 1.391 . S
C948 N917 1.435 . S
C948 C949 1.358 1_565 S
C948 C953 1.371 . S
C949 H921 0.930 . S
C949 C948 1.358 1_545 S
C949 C950 1.405 . S
C950 H922 0.932 . S
C950 C949 1.405 . S
C950 C951 1.383 1_545 S
C951 C950 1.383 1_565 S
C951 C952 1.393 . S
C952 H924 0.931 . S
C952 C951 1.393 . S
C952 C953 1.382 . S
C953 H923 0.929 . S
C953 C948 1.371 . S
C953 C952 1.382 . S
C954 N917 1.423 . S
C954 C955 1.362 . S
C954 C959 1.388 . S
C955 H925 0.929 . S
C955 C954 1.362 . S
C955 C956 1.376 . S
C956 H927 0.931 . S
C956 C955 1.376 . S
C956 C957 1.396 . S
C957 C956 1.396 . S
C957 C958 1.348 . S
C957 C975 1.472 . S
C958 H928 0.982 . S
C958 C957 1.348 . S
C958 C959 1.443 . S
C959 H926 0.932 1_565 S
C959 C954 1.388 . S
C959 C958 1.443 . S
C960 N940 1.433 . S
C960 C961 1.363 . S
C960 C965 1.370 1_565 S
C961 H929 0.929 . S
C961 C960 1.363 . S
C961 C962 1.385 . S
C962 H930 0.930 . S
C962 C961 1.385 . S
C962 C963 1.357 1_565 S
C963 C962 1.357 1_545 S
C963 C964 1.406 . S
C964 H931 0.929 . S
C964 C963 1.406 . S
C964 C965 1.391 . S
C965 H932 0.931 . S
C965 C960 1.370 1_545 S
C965 C964 1.391 . S
C966 N940 1.435 . S
C966 C967 1.358 1_565 S
C966 C971 1.371 . S
C967 H933 0.930 . S
C967 C966 1.358 1_545 S
C967 C968 1.405 . S
C968 H934 0.932 . S
C968 C967 1.405 . S
C968 C969 1.383 1_545 S
C969 C968 1.383 1_565 S
C969 C970 1.393 . S
C970 H935 0.931 . S
C970 C969 1.393 . S
C970 C971 1.382 . S
C971 H936 0.929 . S
C971 C966 1.371 . S
C971 C970 1.382 . S
C972 N940 1.423 . S
C972 C973 1.362 . S
C972 C977 1.388 . S
C973 H937 0.929 . S
C973 C972 1.362 . S
C973 C974 1.376 . S
C974 H938 0.931 . S
C974 C973 1.376 . S
C974 C975 1.396 . S
C975 C957 1.472 . S
C975 C974 1.396 . S
C975 C976 1.348 . S
C976 H939 0.940 . S
C976 C975 1.348 . S
C976 C977 1.443 . S
C977 H941 0.932 1_565 S
C977 C972 1.388 . S
C977 C976 1.443 . S
H978 C1005 0.929 . S
N979 C1004 1.433 . S
N979 C1010 1.435 . S
N979 C1016 1.423 . S
H980 C1006 0.930 . S
H981 C1009 0.931 . S
H982 C1008 0.929 . S
H983 C1011 0.930 . S
H984 C1012 0.932 . S
H985 C1015 0.929 . S
H986 C1014 0.931 . S
H987 C1017 0.929 1_565 S
H988 C1021 0.932 . S
H989 C1018 0.855 1_565 S
H990 C1020 0.929 . S
H991 C1023 0.929 . S
H992 C1024 0.930 . S
H993 C1026 0.929 . S
H994 C1027 0.931 . S
H995 C1029 0.930 . S
H996 C1030 0.932 . S
H997 C1032 0.931 . S
H998 C1033 0.929 . S
H999 C1035 0.929 1_565 S
H1000 C1036 0.902 1_565 S
H1001 C1038 0.929 . S
N1002 C1022 1.433 . S
N1002 C1028 1.435 . S
N1002 C1034 1.423 . S
H1003 C1039 0.932 . S
C1004 N979 1.433 . S
C1004 C1005 1.363 . S
C1004 C1009 1.370 . S
C1005 H978 0.929 . S
C1005 C1004 1.363 . S
C1005 C1006 1.385 . S
C1006 H980 0.930 . S
C1006 C1005 1.385 . S
C1006 C1007 1.357 . S
C1007 C1006 1.357 . S
C1007 C1008 1.406 . S
C1008 H982 0.929 . S
C1008 C1007 1.406 . S
C1008 C1009 1.391 . S
C1009 H981 0.931 . S
C1009 C1004 1.370 . S
C1009 C1008 1.391 . S
C1010 N979 1.435 . S
C1010 C1011 1.358 . S
C1010 C1015 1.371 . S
C1011 H983 0.930 . S
C1011 C1010 1.358 . S
C1011 C1012 1.405 . S
C1012 H984 0.932 . S
C1012 C1011 1.405 . S
C1012 C1013 1.383 . S
C1013 C1012 1.383 . S
C1013 C1014 1.393 . S
C1014 H986 0.931 . S
C1014 C1013 1.393 . S
C1014 C1015 1.382 . S
C1015 H985 0.929 . S
C1015 C1010 1.371 . S
C1015 C1014 1.382 . S
C1016 N979 1.423 . S
C1016 C1017 1.362 . S
C1016 C1021 1.388 . S
C1017 H987 0.929 1_545 S
C1017 C1016 1.362 . S
C1017 C1018 1.429 . S
C1018 H989 0.855 1_545 S
C1018 C1017 1.429 . S
C1018 C1019 1.422 . S
C1019 C1018 1.422 . S
C1019 C1020 1.348 . S
C1019 C1037 1.472 . S
C1020 H990 0.929 . S
C1020 C1019 1.348 . S
C1020 C1021 1.443 . S
C1021 H988 0.932 . S
C1021 C1016 1.388 . S
C1021 C1020 1.443 . S
C1022 N1002 1.433 . S
C1022 C1023 1.363 . S
C1022 C1027 1.370 . S
C1023 H991 0.929 . S
C1023 C1022 1.363 . S
C1023 C1024 1.385 . S
C1024 H992 0.930 . S
C1024 C1023 1.385 . S
C1024 C1025 1.357 . S
C1025 C1024 1.357 . S
C1025 C1026 1.406 . S
C1026 H993 0.929 . S
C1026 C1025 1.406 . S
C1026 C1027 1.391 . S
C1027 H994 0.931 . S
C1027 C1022 1.370 . S
C1027 C1026 1.391 . S
C1028 N1002 1.435 . S
C1028 C1029 1.358 . S
C1028 C1033 1.371 . S
C1029 H995 0.930 . S
C1029 C1028 1.358 . S
C1029 C1030 1.405 . S
C1030 H996 0.932 . S
C1030 C1029 1.405 . S
C1030 C1031 1.383 . S
C1031 C1030 1.383 . S
C1031 C1032 1.393 . S
C1032 H997 0.931 . S
C1032 C1031 1.393 . S
C1032 C1033 1.382 . S
C1033 H998 0.929 . S
C1033 C1028 1.371 . S
C1033 C1032 1.382 . S
C1034 N1002 1.423 . S
C1034 C1035 1.362 . S
C1034 C1039 1.388 . S
C1035 H999 0.929 1_545 S
C1035 C1034 1.362 . S
C1035 C1036 1.341 . S
C1036 H1000 0.902 1_545 S
C1036 C1035 1.341 . S
C1036 C1037 1.465 . S
C1037 C1019 1.472 . S
C1037 C1036 1.465 . S
C1037 C1038 1.348 . S
C1038 H1001 0.929 . S
C1038 C1037 1.348 . S
C1038 C1039 1.443 . S
C1039 H1003 0.932 . S
C1039 C1034 1.388 . S
C1039 C1038 1.443 . S
H1040 C1067 0.929 . S
N1041 C1066 1.433 . S
N1041 C1072 1.435 . S
N1041 C1078 1.423 . S
H1042 C1068 0.930 . S
H1043 C1071 0.931 . S
H1044 C1070 0.929 . S
H1045 C1073 0.930 . S
H1046 C1074 0.932 . S
H1047 C1077 0.929 . S
H1048 C1076 0.931 . S
H1049 C1079 0.929 . S
H1050 C1083 0.932 1_455 S
H1051 C1080 0.931 . S
H1052 C1082 0.982 . S
H1053 C1085 0.929 . S
H1054 C1086 0.930 . S
H1055 C1088 0.929 . S
H1056 C1089 0.931 . S
H1057 C1091 0.930 . S
H1058 C1092 0.932 . S
H1059 C1094 0.931 . S
H1060 C1095 0.929 . S
H1061 C1097 0.929 . S
H1062 C1098 0.931 . S
H1063 C1100 0.940 . S
N1064 C1084 1.433 . S
N1064 C1090 1.435 . S
N1064 C1096 1.423 . S
H1065 C1101 0.932 1_455 S
C1066 N1041 1.433 . S
C1066 C1067 1.363 . S
C1066 C1071 1.370 1_655 S
C1067 H1040 0.929 . S
C1067 C1066 1.363 . S
C1067 C1068 1.385 . S
C1068 H1042 0.930 . S
C1068 C1067 1.385 . S
C1068 C1069 1.357 1_655 S
C1069 C1068 1.357 1_455 S
C1069 C1070 1.406 . S
C1070 H1044 0.929 . S
C1070 C1069 1.406 . S
C1070 C1071 1.391 . S
C1071 H1043 0.931 . S
C1071 C1066 1.370 1_455 S
C1071 C1070 1.391 . S
C1072 N1041 1.435 . S
C1072 C1073 1.358 1_655 S
C1072 C1077 1.371 . S
C1073 H1045 0.930 . S
C1073 C1072 1.358 1_455 S
C1073 C1074 1.405 . S
C1074 H1046 0.932 . S
C1074 C1073 1.405 . S
C1074 C1075 1.383 1_455 S
C1075 C1074 1.383 1_655 S
C1075 C1076 1.393 . S
C1076 H1048 0.931 . S
C1076 C1075 1.393 . S
C1076 C1077 1.382 . S
C1077 H1047 0.929 . S
C1077 C1072 1.371 . S
C1077 C1076 1.382 . S
C1078 N1041 1.423 . S
C1078 C1079 1.362 . S
C1078 C1083 1.388 . S
C1079 H1049 0.929 . S
C1079 C1078 1.362 . S
C1079 C1080 1.376 . S
C1080 H1051 0.931 . S
C1080 C1079 1.376 . S
C1080 C1081 1.396 . S
C1081 C1080 1.396 . S
C1081 C1082 1.348 . S
C1081 C1099 1.472 . S
C1082 H1052 0.982 . S
C1082 C1081 1.348 . S
C1082 C1083 1.443 . S
C1083 H1050 0.932 1_655 S
C1083 C1078 1.388 . S
C1083 C1082 1.443 . S
C1084 N1064 1.433 . S
C1084 C1085 1.363 . S
C1084 C1089 1.370 1_655 S
C1085 H1053 0.929 . S
C1085 C1084 1.363 . S
C1085 C1086 1.385 . S
C1086 H1054 0.930 . S
C1086 C1085 1.385 . S
C1086 C1087 1.357 1_655 S
C1087 C1086 1.357 1_455 S
C1087 C1088 1.406 . S
C1088 H1055 0.929 . S
C1088 C1087 1.406 . S
C1088 C1089 1.391 . S
C1089 H1056 0.931 . S
C1089 C1084 1.370 1_455 S
C1089 C1088 1.391 . S
C1090 N1064 1.435 . S
C1090 C1091 1.358 1_655 S
C1090 C1095 1.371 . S
C1091 H1057 0.930 . S
C1091 C1090 1.358 1_455 S
C1091 C1092 1.405 . S
C1092 H1058 0.932 . S
C1092 C1091 1.405 . S
C1092 C1093 1.383 1_455 S
C1093 C1092 1.383 1_655 S
C1093 C1094 1.393 . S
C1094 H1059 0.931 . S
C1094 C1093 1.393 . S
C1094 C1095 1.382 . S
C1095 H1060 0.929 . S
C1095 C1090 1.371 . S
C1095 C1094 1.382 . S
C1096 N1064 1.423 . S
C1096 C1097 1.362 . S
C1096 C1101 1.388 . S
C1097 H1061 0.929 . S
C1097 C1096 1.362 . S
C1097 C1098 1.376 . S
C1098 H1062 0.931 . S
C1098 C1097 1.376 . S
C1098 C1099 1.396 . S
C1099 C1081 1.472 . S
C1099 C1098 1.396 . S
C1099 C1100 1.348 . S
C1100 H1063 0.940 . S
C1100 C1099 1.348 . S
C1100 C1101 1.443 . S
C1101 H1065 0.932 1_655 S
C1101 C1096 1.388 . S
C1101 C1100 1.443 . S
H1102 C1129 0.929 . S
N1103 C1128 1.433 . S
N1103 C1134 1.435 . S
N1103 C1140 1.423 . S
H1104 C1130 0.930 . S
H1105 C1133 0.931 . S
H1106 C1132 0.929 . S
H1107 C1135 0.930 . S
H1108 C1136 0.932 . S
H1109 C1139 0.929 . S
H1110 C1138 0.931 . S
H1111 C1141 0.929 . S
H1112 C1145 0.932 . S
H1113 C1142 0.931 . S
H1114 C1144 0.929 . S
H1115 C1147 0.929 . S
H1116 C1148 0.930 . S
H1117 C1150 0.929 . S
H1118 C1151 0.931 . S
H1119 C1153 0.930 . S
H1120 C1154 0.932 . S
H1121 C1156 0.931 . S
H1122 C1157 0.929 . S
H1123 C1159 0.929 . S
H1124 C1160 0.931 . S
H1125 C1162 0.929 . S
N1126 C1146 1.433 . S
N1126 C1152 1.435 . S
N1126 C1158 1.423 . S
H1127 C1163 0.932 . S
C1128 N1103 1.433 . S
C1128 C1129 1.363 . S
C1128 C1133 1.370 . S
C1129 H1102 0.929 . S
C1129 C1128 1.363 . S
C1129 C1130 1.385 . S
C1130 H1104 0.930 . S
C1130 C1129 1.385 . S
C1130 C1131 1.357 . S
C1131 C1130 1.357 . S
C1131 C1132 1.406 . S
C1132 H1106 0.929 . S
C1132 C1131 1.406 . S
C1132 C1133 1.391 . S
C1133 H1105 0.931 . S
C1133 C1128 1.370 . S
C1133 C1132 1.391 . S
C1134 N1103 1.435 . S
C1134 C1135 1.358 . S
C1134 C1139 1.371 . S
C1135 H1107 0.930 . S
C1135 C1134 1.358 . S
C1135 C1136 1.405 . S
C1136 H1108 0.932 . S
C1136 C1135 1.405 . S
C1136 C1137 1.383 . S
C1137 C1136 1.383 . S
C1137 C1138 1.393 . S
C1138 H1110 0.931 . S
C1138 C1137 1.393 . S
C1138 C1139 1.382 . S
C1139 H1109 0.929 . S
C1139 C1134 1.371 . S
C1139 C1138 1.382 . S
C1140 N1103 1.423 . S
C1140 C1141 1.362 . S
C1140 C1145 1.388 . S
C1141 H1111 0.929 . S
C1141 C1140 1.362 . S
C1141 C1142 1.376 . S
C1142 H1113 0.931 . S
C1142 C1141 1.376 . S
C1142 C1143 1.396 . S
C1143 C1142 1.396 . S
C1143 C1144 1.348 . S
C1143 C1161 1.472 . S
C1144 H1114 0.929 . S
C1144 C1143 1.348 . S
C1144 C1145 1.443 . S
C1145 H1112 0.932 . S
C1145 C1140 1.388 . S
C1145 C1144 1.443 . S
C1146 N1126 1.433 . S
C1146 C1147 1.363 . S
C1146 C1151 1.370 . S
C1147 H1115 0.929 . S
C1147 C1146 1.363 . S
C1147 C1148 1.385 . S
C1148 H1116 0.930 . S
C1148 C1147 1.385 . S
C1148 C1149 1.357 . S
C1149 C1148 1.357 . S
C1149 C1150 1.406 . S
C1150 H1117 0.929 . S
C1150 C1149 1.406 . S
C1150 C1151 1.391 . S
C1151 H1118 0.931 . S
C1151 C1146 1.370 . S
C1151 C1150 1.391 . S
C1152 N1126 1.435 . S
C1152 C1153 1.358 . S
C1152 C1157 1.371 . S
C1153 H1119 0.930 . S
C1153 C1152 1.358 . S
C1153 C1154 1.405 . S
C1154 H1120 0.932 . S
C1154 C1153 1.405 . S
C1154 C1155 1.383 . S
C1155 C1154 1.383 . S
C1155 C1156 1.393 . S
C1156 H1121 0.931 . S
C1156 C1155 1.393 . S
C1156 C1157 1.382 . S
C1157 H1122 0.929 . S
C1157 C1152 1.371 . S
C1157 C1156 1.382 . S
C1158 N1126 1.423 . S
C1158 C1159 1.362 . S
C1158 C1163 1.388 . S
C1159 H1123 0.929 . S
C1159 C1158 1.362 . S
C1159 C1160 1.376 . S
C1160 H1124 0.931 . S
C1160 C1159 1.376 . S
C1160 C1161 1.396 . S
C1161 C1143 1.472 . S
C1161 C1160 1.396 . S
C1161 C1162 1.348 . S
C1162 H1125 0.929 . S
C1162 C1161 1.348 . S
C1162 C1163 1.443 . S
C1163 H1127 0.932 . S
C1163 C1158 1.388 . S
C1163 C1162 1.443 . S
H1164 C1191 0.929 . S
N1165 C1190 1.433 . S
N1165 C1196 1.435 . S
N1165 C1202 1.423 . S
H1166 C1192 0.930 . S
H1167 C1195 0.931 . S
H1168 C1194 0.929 . S
H1169 C1197 0.930 . S
H1170 C1198 0.932 . S
H1171 C1201 0.929 . S
H1172 C1200 0.931 . S
H1173 C1203 0.929 . S
H1174 C1207 0.932 . S
H1175 C1204 0.931 . S
H1176 C1206 0.929 . S
H1177 C1209 0.929 . S
H1178 C1210 0.930 . S
H1179 C1212 0.929 . S
H1180 C1213 0.931 . S
H1181 C1215 0.930 . S
H1182 C1216 0.932 . S
H1183 C1218 0.931 . S
H1184 C1219 0.929 . S
H1185 C1221 0.929 . S
H1186 C1222 0.931 . S
H1187 C1224 0.929 . S
N1188 C1208 1.433 . S
N1188 C1214 1.435 . S
N1188 C1220 1.423 . S
H1189 C1225 0.932 . S
C1190 N1165 1.433 . S
C1190 C1191 1.363 . S
C1190 C1195 1.370 . S
C1191 H1164 0.929 . S
C1191 C1190 1.363 . S
C1191 C1192 1.385 . S
C1192 H1166 0.930 . S
C1192 C1191 1.385 . S
C1192 C1193 1.357 . S
C1193 C1192 1.357 . S
C1193 C1194 1.406 . S
C1194 H1168 0.929 . S
C1194 C1193 1.406 . S
C1194 C1195 1.391 . S
C1195 H1167 0.931 . S
C1195 C1190 1.370 . S
C1195 C1194 1.391 . S
C1196 N1165 1.435 . S
C1196 C1197 1.358 . S
C1196 C1201 1.371 . S
C1197 H1169 0.930 . S
C1197 C1196 1.358 . S
C1197 C1198 1.405 . S
C1198 H1170 0.932 . S
C1198 C1197 1.405 . S
C1198 C1199 1.383 . S
C1199 C1198 1.383 . S
C1199 C1200 1.393 . S
C1200 H1172 0.931 . S
C1200 C1199 1.393 . S
C1200 C1201 1.382 . S
C1201 H1171 0.929 . S
C1201 C1196 1.371 . S
C1201 C1200 1.382 . S
C1202 N1165 1.423 . S
C1202 C1203 1.362 . S
C1202 C1207 1.388 . S
C1203 H1173 0.929 . S
C1203 C1202 1.362 . S
C1203 C1204 1.376 . S
C1204 H1175 0.931 . S
C1204 C1203 1.376 . S
C1204 C1205 1.396 . S
C1205 C1204 1.396 . S
C1205 C1206 1.348 . S
C1205 C1223 1.472 . S
C1206 H1176 0.929 . S
C1206 C1205 1.348 . S
C1206 C1207 1.443 . S
C1207 H1174 0.932 . S
C1207 C1202 1.388 . S
C1207 C1206 1.443 . S
C1208 N1188 1.433 . S
C1208 C1209 1.363 . S
C1208 C1213 1.370 . S
C1209 H1177 0.929 . S
C1209 C1208 1.363 . S
C1209 C1210 1.385 . S
C1210 H1178 0.930 . S
C1210 C1209 1.385 . S
C1210 C1211 1.357 . S
C1211 C1210 1.357 . S
C1211 C1212 1.406 . S
C1212 H1179 0.929 . S
C1212 C1211 1.406 . S
C1212 C1213 1.391 . S
C1213 H1180 0.931 . S
C1213 C1208 1.370 . S
C1213 C1212 1.391 . S
C1214 N1188 1.435 . S
C1214 C1215 1.358 . S
C1214 C1219 1.371 . S
C1215 H1181 0.930 . S
C1215 C1214 1.358 . S
C1215 C1216 1.405 . S
C1216 H1182 0.932 . S
C1216 C1215 1.405 . S
C1216 C1217 1.383 . S
C1217 C1216 1.383 . S
C1217 C1218 1.393 . S
C1218 H1183 0.931 . S
C1218 C1217 1.393 . S
C1218 C1219 1.382 . S
C1219 H1184 0.929 . S
C1219 C1214 1.371 . S
C1219 C1218 1.382 . S
C1220 N1188 1.423 . S
C1220 C1221 1.362 . S
C1220 C1225 1.388 . S
C1221 H1185 0.929 . S
C1221 C1220 1.362 . S
C1221 C1222 1.376 . S
C1222 H1186 0.931 . S
C1222 C1221 1.376 . S
C1222 C1223 1.396 . S
C1223 C1205 1.472 . S
C1223 C1222 1.396 . S
C1223 C1224 1.348 . S
C1224 H1187 0.929 . S
C1224 C1223 1.348 . S
C1224 C1225 1.443 . S
C1225 H1189 0.932 . S
C1225 C1220 1.388 . S
C1225 C1224 1.443 . S
H1226 C1253 0.929 . S
N1227 C1252 1.433 . S
N1227 C1258 1.435 . S
N1227 C1264 1.423 . S
H1228 C1254 0.930 . S
H1229 C1257 0.931 . S
H1230 C1256 0.929 . S
H1231 C1259 0.930 . S
H1232 C1260 0.932 . S
H1233 C1263 0.929 . S
H1234 C1262 0.931 . S
H1235 C1265 0.929 . S
H1236 C1269 0.932 . S
H1237 C1266 0.931 . S
H1238 C1268 0.929 . S
H1239 C1271 0.929 . S
H1240 C1272 0.930 . S
H1241 C1274 0.929 . S
H1242 C1275 0.931 . S
H1243 C1277 0.930 . S
H1244 C1278 0.932 . S
H1245 C1280 0.931 . S
H1246 C1281 0.929 . S
H1247 C1283 0.929 . S
H1248 C1284 0.931 . S
H1249 C1286 0.929 . S
N1250 C1270 1.433 . S
N1250 C1276 1.435 . S
N1250 C1282 1.423 . S
H1251 C1287 0.932 . S
C1252 N1227 1.433 . S
C1252 C1253 1.363 . S
C1252 C1257 1.370 . S
C1253 H1226 0.929 . S
C1253 C1252 1.363 . S
C1253 C1254 1.385 . S
C1254 H1228 0.930 . S
C1254 C1253 1.385 . S
C1254 C1255 1.357 . S
C1255 C1254 1.357 . S
C1255 C1256 1.406 . S
C1256 H1230 0.929 . S
C1256 C1255 1.406 . S
C1256 C1257 1.391 . S
C1257 H1229 0.931 . S
C1257 C1252 1.370 . S
C1257 C1256 1.391 . S
C1258 N1227 1.435 . S
C1258 C1259 1.358 . S
C1258 C1263 1.371 . S
C1259 H1231 0.930 . S
C1259 C1258 1.358 . S
C1259 C1260 1.405 . S
C1260 H1232 0.932 . S
C1260 C1259 1.405 . S
C1260 C1261 1.383 . S
C1261 C1260 1.383 . S
C1261 C1262 1.393 . S
C1262 H1234 0.931 . S
C1262 C1261 1.393 . S
C1262 C1263 1.382 . S
C1263 H1233 0.929 . S
C1263 C1258 1.371 . S
C1263 C1262 1.382 . S
C1264 N1227 1.423 . S
C1264 C1265 1.362 . S
C1264 C1269 1.388 . S
C1265 H1235 0.929 . S
C1265 C1264 1.362 . S
C1265 C1266 1.376 . S
C1266 H1237 0.931 . S
C1266 C1265 1.376 . S
C1266 C1267 1.396 . S
C1267 C1266 1.396 . S
C1267 C1268 1.348 . S
C1267 C1285 1.472 . S
C1268 H1238 0.929 . S
C1268 C1267 1.348 . S
C1268 C1269 1.443 . S
C1269 H1236 0.932 . S
C1269 C1264 1.388 . S
C1269 C1268 1.443 . S
C1270 N1250 1.433 . S
C1270 C1271 1.363 . S
C1270 C1275 1.370 . S
C1271 H1239 0.929 . S
C1271 C1270 1.363 . S
C1271 C1272 1.385 . S
C1272 H1240 0.930 . S
C1272 C1271 1.385 . S
C1272 C1273 1.357 . S
C1273 C1272 1.357 . S
C1273 C1274 1.406 . S
C1274 H1241 0.929 . S
C1274 C1273 1.406 . S
C1274 C1275 1.391 . S
C1275 H1242 0.931 . S
C1275 C1270 1.370 . S
C1275 C1274 1.391 . S
C1276 N1250 1.435 . S
C1276 C1277 1.358 . S
C1276 C1281 1.371 . S
C1277 H1243 0.930 . S
C1277 C1276 1.358 . S
C1277 C1278 1.405 . S
C1278 H1244 0.932 . S
C1278 C1277 1.405 . S
C1278 C1279 1.383 . S
C1279 C1278 1.383 . S
C1279 C1280 1.393 . S
C1280 H1245 0.931 . S
C1280 C1279 1.393 . S
C1280 C1281 1.382 . S
C1281 H1246 0.929 . S
C1281 C1276 1.371 . S
C1281 C1280 1.382 . S
C1282 N1250 1.423 . S
C1282 C1283 1.362 . S
C1282 C1287 1.388 . S
C1283 H1247 0.929 . S
C1283 C1282 1.362 . S
C1283 C1284 1.376 . S
C1284 H1248 0.931 . S
C1284 C1283 1.376 . S
C1284 C1285 1.396 . S
C1285 C1267 1.472 . S
C1285 C1284 1.396 . S
C1285 C1286 1.348 . S
C1286 H1249 0.929 . S
C1286 C1285 1.348 . S
C1286 C1287 1.443 . S
C1287 H1251 0.932 . S
C1287 C1282 1.388 . S
C1287 C1286 1.443 . S
H1288 C1315 0.929 . S
N1289 C1314 1.433 . S
N1289 C1320 1.435 . S
N1289 C1326 1.423 . S
H1290 C1316 0.930 . S
H1291 C1319 0.931 . S
H1292 C1318 0.929 . S
H1293 C1321 0.930 . S
H1294 C1322 0.932 . S
H1295 C1325 0.929 . S
H1296 C1324 0.931 . S
H1297 C1327 0.929 . S
H1298 C1331 0.932 . S
H1299 C1328 0.931 . S
H1300 C1330 0.929 . S
H1301 C1333 0.929 . S
H1302 C1334 0.930 . S
H1303 C1336 0.929 . S
H1304 C1337 0.931 . S
H1305 C1339 0.930 . S
H1306 C1340 0.932 . S
H1307 C1342 0.931 . S
H1308 C1343 0.929 . S
H1309 C1345 0.929 . S
H1310 C1346 0.931 . S
H1311 C1348 0.929 . S
N1312 C1332 1.433 . S
N1312 C1338 1.435 . S
N1312 C1344 1.423 . S
H1313 C1349 0.932 . S
C1314 N1289 1.433 . S
C1314 C1315 1.363 . S
C1314 C1319 1.370 . S
C1315 H1288 0.929 . S
C1315 C1314 1.363 . S
C1315 C1316 1.385 . S
C1316 H1290 0.930 . S
C1316 C1315 1.385 . S
C1316 C1317 1.357 . S
C1317 C1316 1.357 . S
C1317 C1318 1.406 . S
C1318 H1292 0.929 . S
C1318 C1317 1.406 . S
C1318 C1319 1.391 . S
C1319 H1291 0.931 . S
C1319 C1314 1.370 . S
C1319 C1318 1.391 . S
C1320 N1289 1.435 . S
C1320 C1321 1.358 . S
C1320 C1325 1.371 . S
C1321 H1293 0.930 . S
C1321 C1320 1.358 . S
C1321 C1322 1.405 . S
C1322 H1294 0.932 . S
C1322 C1321 1.405 . S
C1322 C1323 1.383 . S
C1323 C1322 1.383 . S
C1323 C1324 1.393 . S
C1324 H1296 0.931 . S
C1324 C1323 1.393 . S
C1324 C1325 1.382 . S
C1325 H1295 0.929 . S
C1325 C1320 1.371 . S
C1325 C1324 1.382 . S
C1326 N1289 1.423 . S
C1326 C1327 1.362 . S
C1326 C1331 1.388 . S
C1327 H1297 0.929 . S
C1327 C1326 1.362 . S
C1327 C1328 1.376 . S
C1328 H1299 0.931 . S
C1328 C1327 1.376 . S
C1328 C1329 1.396 . S
C1329 C1328 1.396 . S
C1329 C1330 1.348 . S
C1329 C1347 1.472 . S
C1330 H1300 0.929 . S
C1330 C1329 1.348 . S
C1330 C1331 1.443 . S
C1331 H1298 0.932 . S
C1331 C1326 1.388 . S
C1331 C1330 1.443 . S
C1332 N1312 1.433 . S
C1332 C1333 1.363 . S
C1332 C1337 1.370 . S
C1333 H1301 0.929 . S
C1333 C1332 1.363 . S
C1333 C1334 1.385 . S
C1334 H1302 0.930 . S
C1334 C1333 1.385 . S
C1334 C1335 1.357 . S
C1335 C1334 1.357 . S
C1335 C1336 1.406 . S
C1336 H1303 0.929 . S
C1336 C1335 1.406 . S
C1336 C1337 1.391 . S
C1337 H1304 0.931 . S
C1337 C1332 1.370 . S
C1337 C1336 1.391 . S
C1338 N1312 1.435 . S
C1338 C1339 1.358 . S
C1338 C1343 1.371 . S
C1339 H1305 0.930 . S
C1339 C1338 1.358 . S
C1339 C1340 1.405 . S
C1340 H1306 0.932 . S
C1340 C1339 1.405 . S
C1340 C1341 1.383 . S
C1341 C1340 1.383 . S
C1341 C1342 1.393 . S
C1342 H1307 0.931 . S
C1342 C1341 1.393 . S
C1342 C1343 1.382 . S
C1343 H1308 0.929 . S
C1343 C1338 1.371 . S
C1343 C1342 1.382 . S
C1344 N1312 1.423 . S
C1344 C1345 1.362 . S
C1344 C1349 1.388 . S
C1345 H1309 0.929 . S
C1345 C1344 1.362 . S
C1345 C1346 1.376 . S
C1346 H1310 0.931 . S
C1346 C1345 1.376 . S
C1346 C1347 1.396 . S
C1347 C1329 1.472 . S
C1347 C1346 1.396 . S
C1347 C1348 1.348 . S
C1348 H1311 0.929 . S
C1348 C1347 1.348 . S
C1348 C1349 1.443 . S
C1349 H1313 0.932 . S
C1349 C1344 1.388 . S
C1349 C1348 1.443 . S
C1350 C1351 1.347 1_655 S
C1350 C1352 1.409 . S
C1350 H1366 0.961 . S
C1351 C1350 1.347 1_455 S
C1351 C1355 1.376 . S
C1352 C1350 1.409 . S
C1352 C1353 1.369 1_655 S
C1352 C1356 1.530 . S
C1353 C1352 1.369 1_455 S
C1353 C1354 1.410 . S
C1353 C1361 1.503 . S
C1354 C1353 1.410 . S
C1354 C1355 1.392 . S
C1354 C1357 1.511 . S
C1355 C1351 1.376 . S
C1355 C1354 1.392 . S
C1355 H1367 0.929 . S
C1356 C1352 1.530 . S
C1356 H1368 0.960 . S
C1356 H1369 0.962 . S
C1356 H1370 0.960 . S
C1357 C1354 1.511 . S
C1357 H1371 0.961 . S
C1357 H1372 0.961 . S
C1357 H1373 0.961 . S
C1358 C1359 1.370 . S
C1358 C1360 1.363 . S
C1358 H1374 0.931 . S
C1359 C1358 1.370 . S
C1359 C1363 1.408 . S
C1360 C1358 1.363 . S
C1360 C1361 1.370 . S
C1360 C1364 1.524 . S
C1361 C1353 1.503 . S
C1361 C1360 1.370 . S
C1361 C1362 1.403 . S
C1362 C1361 1.403 . S
C1362 C1363 1.404 . S
C1362 C1365 1.539 . S
C1363 C1359 1.408 . S
C1363 C1362 1.404 . S
C1363 H1375 0.930 . S
C1364 C1360 1.524 . S
C1364 H1376 0.956 . S
C1364 H1377 0.961 . S
C1364 H1378 0.961 . S
C1365 C1362 1.539 . S
C1365 H1379 0.958 . S
C1365 H1380 0.961 . S
C1365 H1381 0.960 . S
H1366 C1350 0.961 . S
H1367 C1355 0.929 . S
H1368 C1356 0.960 . S
H1369 C1356 0.962 . S
H1370 C1356 0.960 . S
H1371 C1357 0.961 . S
H1372 C1357 0.961 . S
H1373 C1357 0.961 . S
H1374 C1358 0.931 . S
H1375 C1363 0.930 . S
H1376 C1364 0.956 . S
H1377 C1364 0.961 . S
H1378 C1364 0.961 . S
H1379 C1365 0.958 . S
H1380 C1365 0.961 . S
H1381 C1365 0.960 . S
C1382 C1383 1.391 . S
C1382 C1384 1.394 . S
C1382 H1398 0.931 . S
C1383 C1382 1.391 . S
C1383 C1387 1.376 . S
C1384 C1382 1.394 . S
C1384 C1385 1.369 . S
C1384 C1388 1.531 . S
C1385 C1384 1.369 . S
C1385 C1386 1.410 . S
C1385 C1393 1.503 . S
C1386 C1385 1.410 . S
C1386 C1387 1.392 . S
C1386 C1389 1.511 . S
C1387 C1383 1.376 . S
C1387 C1386 1.392 . S
C1387 H1399 0.929 . S
C1388 C1384 1.531 . S
C1388 H1400 0.960 . S
C1388 H1401 0.962 . S
C1388 H1402 0.960 . S
C1389 C1386 1.511 . S
C1389 H1403 0.961 . S
C1389 H1404 0.961 . S
C1389 H1405 0.961 . S
C1390 C1391 1.370 . S
C1390 C1392 1.363 . S
C1390 H1406 0.931 . S
C1391 C1390 1.370 . S
C1391 C1395 1.408 . S
C1392 C1390 1.363 . S
C1392 C1393 1.370 . S
C1392 C1396 1.524 . S
C1393 C1385 1.503 . S
C1393 C1392 1.370 . S
C1393 C1394 1.403 . S
C1394 C1393 1.403 . S
C1394 C1395 1.404 . S
C1394 C1397 1.539 . S
C1395 C1391 1.408 . S
C1395 C1394 1.404 . S
C1395 H1407 0.930 . S
C1396 C1392 1.524 . S
C1396 H1408 0.956 . S
C1396 H1409 0.961 . S
C1396 H1410 0.961 . S
C1397 C1394 1.539 . S
C1397 H1411 0.958 . S
C1397 H1412 0.961 . S
C1397 H1413 0.960 . S
H1398 C1382 0.931 . S
H1399 C1387 0.929 . S
H1400 C1388 0.960 . S
H1401 C1388 0.962 . S
H1402 C1388 0.960 . S
H1403 C1389 0.961 . S
H1404 C1389 0.961 . S
H1405 C1389 0.961 . S
H1406 C1390 0.931 . S
H1407 C1395 0.930 . S
H1408 C1396 0.956 . S
H1409 C1396 0.961 . S
H1410 C1396 0.961 . S
H1411 C1397 0.958 . S
H1412 C1397 0.961 . S
H1413 C1397 0.960 . S
C1414 C1415 1.391 1_565 S
C1414 C1416 1.394 . S
C1414 H1430 0.931 . S
C1415 C1414 1.391 1_545 S
C1415 C1419 1.376 . S
C1416 C1414 1.394 . S
C1416 C1417 1.369 1_565 S
C1416 C1420 1.531 . S
C1417 C1416 1.369 1_545 S
C1417 C1418 1.410 . S
C1417 C1425 1.503 . S
C1418 C1417 1.410 . S
C1418 C1419 1.392 . S
C1418 C1421 1.511 . S
C1419 C1415 1.376 . S
C1419 C1418 1.392 . S
C1419 H1431 0.929 . S
C1420 C1416 1.531 . S
C1420 H1432 0.960 . S
C1420 H1433 0.962 . S
C1420 H1434 0.960 . S
C1421 C1418 1.511 . S
C1421 H1435 0.961 . S
C1421 H1436 0.961 . S
C1421 H1437 0.961 . S
C1422 C1423 1.370 . S
C1422 C1424 1.363 . S
C1422 H1438 0.931 . S
C1423 C1422 1.370 . S
C1423 C1427 1.408 1_545 S
C1424 C1422 1.363 . S
C1424 C1425 1.370 . S
C1424 C1428 1.524 . S
C1425 C1417 1.503 . S
C1425 C1424 1.370 . S
C1425 C1426 1.403 1_545 S
C1426 C1425 1.403 1_565 S
C1426 C1427 1.404 . S
C1426 C1429 1.539 . S
C1427 C1423 1.408 1_565 S
C1427 C1426 1.404 . S
C1427 H1439 0.930 . S
C1428 C1424 1.524 . S
C1428 H1440 0.956 . S
C1428 H1441 0.961 . S
C1428 H1442 0.961 . S
C1429 C1426 1.539 . S
C1429 H1443 0.958 . S
C1429 H1444 0.961 . S
C1429 H1445 0.960 . S
H1430 C1414 0.931 . S
H1431 C1419 0.929 . S
H1432 C1420 0.960 . S
H1433 C1420 0.962 . S
H1434 C1420 0.960 . S
H1435 C1421 0.961 . S
H1436 C1421 0.961 . S
H1437 C1421 0.961 . S
H1438 C1422 0.931 . S
H1439 C1427 0.930 . S
H1440 C1428 0.956 . S
H1441 C1428 0.961 . S
H1442 C1428 0.961 . S
H1443 C1429 0.958 . S
H1444 C1429 0.961 . S
H1445 C1429 0.960 . S
C1446 C1447 1.391 . S
C1446 C1448 1.394 . S
C1446 H1462 0.931 . S
C1447 C1446 1.391 . S
C1447 C1451 1.379 . S
C1448 C1446 1.394 . S
C1448 C1449 1.369 . S
C1448 C1452 1.531 . S
C1449 C1448 1.369 . S
C1449 C1450 1.413 . S
C1449 C1457 1.503 . S
C1450 C1449 1.413 . S
C1450 C1451 1.393 . S
C1450 C1453 1.506 1_545 S
C1451 C1447 1.379 . S
C1451 C1450 1.393 . S
C1451 H1463 0.927 1_545 S
C1452 C1448 1.531 . S
C1452 H1464 0.960 . S
C1452 H1465 0.962 . S
C1452 H1466 0.960 . S
C1453 C1450 1.506 1_565 S
C1453 H1467 0.961 . S
C1453 H1468 0.961 . S
C1453 H1469 0.961 . S
C1454 C1455 1.370 . S
C1454 C1456 1.363 . S
C1454 H1470 0.931 . S
C1455 C1454 1.370 . S
C1455 C1459 1.408 . S
C1456 C1454 1.363 . S
C1456 C1457 1.370 . S
C1456 C1460 1.524 . S
C1457 C1449 1.503 . S
C1457 C1456 1.370 . S
C1457 C1458 1.403 . S
C1458 C1457 1.403 . S
C1458 C1459 1.404 . S
C1458 C1461 1.539 . S
C1459 C1455 1.408 . S
C1459 C1458 1.404 . S
C1459 H1471 0.930 . S
C1460 C1456 1.524 . S
C1460 H1472 0.956 . S
C1460 H1473 0.961 . S
C1460 H1474 0.961 . S
C1461 C1458 1.539 . S
C1461 H1475 0.958 . S
C1461 H1476 0.961 . S
C1461 H1477 0.960 . S
H1462 C1446 0.931 . S
H1463 C1451 0.927 1_565 S
H1464 C1452 0.960 . S
H1465 C1452 0.962 . S
H1466 C1452 0.960 . S
H1467 C1453 0.961 . S
H1468 C1453 0.961 . S
H1469 C1453 0.961 . S
H1470 C1454 0.931 . S
H1471 C1459 0.930 . S
H1472 C1460 0.956 . S
H1473 C1460 0.961 . S
H1474 C1460 0.961 . S
H1475 C1461 0.958 . S
H1476 C1461 0.961 . S
H1477 C1461 0.960 . S
C1478 C1479 1.391 1_655 S
C1478 C1480 1.394 . S
C1478 H1494 0.931 . S
C1479 C1478 1.391 1_455 S
C1479 C1483 1.376 . S
C1480 C1478 1.394 . S
C1480 C1481 1.369 1_655 S
C1480 C1484 1.531 . S
C1481 C1480 1.369 1_455 S
C1481 C1482 1.410 . S
C1481 C1489 1.503 . S
C1482 C1481 1.410 . S
C1482 C1483 1.392 . S
C1482 C1485 1.511 . S
C1483 C1479 1.376 . S
C1483 C1482 1.392 . S
C1483 H1495 0.929 . S
C1484 C1480 1.531 . S
C1484 H1496 0.960 . S
C1484 H1497 0.962 . S
C1484 H1498 0.960 . S
C1485 C1482 1.511 . S
C1485 H1499 0.961 . S
C1485 H1500 0.961 . S
C1485 H1501 0.961 . S
C1486 C1487 1.378 1_655 S
C1486 C1488 1.338 1_655 S
C1486 H1502 0.960 . S
C1487 C1486 1.378 1_455 S
C1487 C1491 1.408 . S
C1488 C1486 1.338 1_455 S
C1488 C1489 1.368 . S
C1488 C1492 1.523 1_455 S
C1489 C1481 1.503 . S
C1489 C1488 1.368 . S
C1489 C1490 1.403 . S
C1490 C1489 1.403 . S
C1490 C1491 1.404 . S
C1490 C1493 1.539 . S
C1491 C1487 1.408 . S
C1491 C1490 1.404 . S
C1491 H1503 0.930 . S
C1492 C1488 1.523 1_655 S
C1492 H1504 0.956 . S
C1492 H1505 0.965 . S
C1492 H1506 0.961 . S
C1493 C1490 1.539 . S
C1493 H1507 0.958 . S
C1493 H1508 0.961 . S
C1493 H1509 0.960 . S
H1494 C1478 0.931 . S
H1495 C1483 0.929 . S
H1496 C1484 0.960 . S
H1497 C1484 0.962 . S
H1498 C1484 0.960 . S
H1499 C1485 0.961 . S
H1500 C1485 0.961 . S
H1501 C1485 0.961 . S
H1502 C1486 0.960 . S
H1503 C1491 0.930 . S
H1504 C1492 0.956 . S
H1505 C1492 0.965 . S
H1506 C1492 0.961 . S
H1507 C1493 0.958 . S
H1508 C1493 0.961 . S
H1509 C1493 0.960 . S
C1510 C1511 1.391 . S
C1510 C1512 1.394 . S
C1510 H1526 0.931 . S
C1511 C1510 1.391 . S
C1511 C1515 1.376 . S
C1512 C1510 1.394 . S
C1512 C1513 1.369 . S
C1512 C1516 1.531 . S
C1513 C1512 1.369 . S
C1513 C1514 1.410 . S
C1513 C1521 1.503 . S
C1514 C1513 1.410 . S
C1514 C1515 1.392 . S
C1514 C1517 1.511 . S
C1515 C1511 1.376 . S
C1515 C1514 1.392 . S
C1515 H1527 0.929 . S
C1516 C1512 1.531 . S
C1516 H1528 0.960 . S
C1516 H1529 0.962 . S
C1516 H1530 0.960 . S
C1517 C1514 1.511 . S
C1517 H1531 0.961 . S
C1517 H1532 0.961 . S
C1517 H1533 0.961 . S
C1518 C1519 1.370 . S
C1518 C1520 1.363 . S
C1518 H1534 0.931 . S
C1519 C1518 1.370 . S
C1519 C1523 1.408 . S
C1520 C1518 1.363 . S
C1520 C1521 1.370 . S
C1520 C1524 1.524 . S
C1521 C1513 1.503 . S
C1521 C1520 1.370 . S
C1521 C1522 1.403 . S
C1522 C1521 1.403 . S
C1522 C1523 1.404 . S
C1522 C1525 1.539 . S
C1523 C1519 1.408 . S
C1523 C1522 1.404 . S
C1523 H1535 0.930 . S
C1524 C1520 1.524 . S
C1524 H1536 0.956 . S
C1524 H1537 0.961 . S
C1524 H1538 0.961 . S
C1525 C1522 1.539 . S
C1525 H1539 0.958 . S
C1525 H1540 0.961 . S
C1525 H1541 0.960 . S
H1526 C1510 0.931 . S
H1527 C1515 0.929 . S
H1528 C1516 0.960 . S
H1529 C1516 0.962 . S
H1530 C1516 0.960 . S
H1531 C1517 0.961 . S
H1532 C1517 0.961 . S
H1533 C1517 0.961 . S
H1534 C1518 0.931 . S
H1535 C1523 0.930 . S
H1536 C1524 0.956 . S
H1537 C1524 0.961 . S
H1538 C1524 0.961 . S
H1539 C1525 0.958 . S
H1540 C1525 0.961 . S
H1541 C1525 0.960 . S
C1542 C1543 1.394 1_655 S
C1542 C1544 1.387 . S
C1542 H1558 0.934 . S
C1543 C1542 1.394 1_455 S
C1543 C1547 1.376 . S
C1544 C1542 1.387 . S
C1544 C1545 1.369 1_655 S
C1544 C1548 1.531 . S
C1545 C1544 1.369 1_455 S
C1545 C1546 1.410 . S
C1545 C1553 1.503 . S
C1546 C1545 1.410 . S
C1546 C1547 1.392 . S
C1546 C1549 1.511 . S
C1547 C1543 1.376 . S
C1547 C1546 1.392 . S
C1547 H1559 0.929 . S
C1548 C1544 1.531 . S
C1548 H1560 0.960 . S
C1548 H1561 0.968 1_655 S
C1548 H1562 0.960 . S
C1549 C1546 1.511 . S
C1549 H1563 0.961 . S
C1549 H1564 0.961 . S
C1549 H1565 0.961 . S
C1550 C1551 1.370 . S
C1550 C1552 1.363 . S
C1550 H1566 0.931 . S
C1551 C1550 1.370 . S
C1551 C1555 1.408 1_455 S
C1552 C1550 1.363 . S
C1552 C1553 1.370 . S
C1552 C1556 1.524 . S
C1553 C1545 1.503 . S
C1553 C1552 1.370 . S
C1553 C1554 1.403 1_455 S
C1554 C1553 1.403 1_655 S
C1554 C1555 1.404 . S
C1554 C1557 1.539 . S
C1555 C1551 1.408 1_655 S
C1555 C1554 1.404 . S
C1555 H1567 0.930 . S
C1556 C1552 1.524 . S
C1556 H1568 0.956 . S
C1556 H1569 0.961 . S
C1556 H1570 0.961 . S
C1557 C1554 1.539 . S
C1557 H1571 0.958 . S
C1557 H1572 0.961 . S
C1557 H1573 0.960 . S
H1558 C1542 0.934 . S
H1559 C1547 0.929 . S
H1560 C1548 0.960 . S
H1561 C1548 0.968 1_455 S
H1562 C1548 0.960 . S
H1563 C1549 0.961 . S
H1564 C1549 0.961 . S
H1565 C1549 0.961 . S
H1566 C1550 0.931 . S
H1567 C1555 0.930 . S
H1568 C1556 0.956 . S
H1569 C1556 0.961 . S
H1570 C1556 0.961 . S
H1571 C1557 0.958 . S
H1572 C1557 0.961 . S
H1573 C1557 0.960 . S
C1574 C1575 1.391 . S
C1574 C1576 1.394 . S
C1574 H1590 0.931 . S
C1575 C1574 1.391 . S
C1575 C1579 1.376 . S
C1576 C1574 1.394 . S
C1576 C1577 1.369 . S
C1576 C1580 1.531 . S
C1577 C1576 1.369 . S
C1577 C1578 1.410 . S
C1577 C1585 1.503 . S
C1578 C1577 1.410 . S
C1578 C1579 1.392 . S
C1578 C1581 1.511 . S
C1579 C1575 1.376 . S
C1579 C1578 1.392 . S
C1579 H1591 0.929 . S
C1580 C1576 1.531 . S
C1580 H1592 0.960 . S
C1580 H1593 0.962 . S
C1580 H1594 0.960 . S
C1581 C1578 1.511 . S
C1581 H1595 0.961 . S
C1581 H1596 0.961 . S
C1581 H1597 0.961 . S
C1582 C1583 1.370 . S
C1582 C1584 1.363 . S
C1582 H1598 0.931 . S
C1583 C1582 1.370 . S
C1583 C1587 1.408 . S
C1584 C1582 1.363 . S
C1584 C1585 1.370 . S
C1584 C1588 1.524 . S
C1585 C1577 1.503 . S
C1585 C1584 1.370 . S
C1585 C1586 1.403 . S
C1586 C1585 1.403 . S
C1586 C1587 1.404 . S
C1586 C1589 1.539 . S
C1587 C1583 1.408 . S
C1587 C1586 1.404 . S
C1587 H1599 0.930 . S
C1588 C1584 1.524 . S
C1588 H1600 0.956 . S
C1588 H1601 0.961 . S
C1588 H1602 0.961 . S
C1589 C1586 1.539 . S
C1589 H1603 0.958 . S
C1589 H1604 0.961 . S
C1589 H1605 0.960 . S
H1590 C1574 0.931 . S
H1591 C1579 0.929 . S
H1592 C1580 0.960 . S
H1593 C1580 0.962 . S
H1594 C1580 0.960 . S
H1595 C1581 0.961 . S
H1596 C1581 0.961 . S
H1597 C1581 0.961 . S
H1598 C1582 0.931 . S
H1599 C1587 0.930 . S
H1600 C1588 0.956 . S
H1601 C1588 0.961 . S
H1602 C1588 0.961 . S
H1603 C1589 0.958 . S
H1604 C1589 0.961 . S
H1605 C1589 0.960 . S
C1606 C1607 1.391 . S
C1606 C1608 1.394 . S
C1606 H1622 0.931 . S
C1607 C1606 1.391 . S
C1607 C1611 1.376 . S
C1608 C1606 1.394 . S
C1608 C1609 1.369 . S
C1608 C1612 1.531 . S
C1609 C1608 1.369 . S
C1609 C1610 1.410 . S
C1609 C1617 1.503 . S
C1610 C1609 1.410 . S
C1610 C1611 1.392 . S
C1610 C1613 1.511 . S
C1611 C1607 1.376 . S
C1611 C1610 1.392 . S
C1611 H1623 0.929 . S
C1612 C1608 1.531 . S
C1612 H1624 0.959 1_545 S
C1612 H1625 0.962 . S
C1612 H1626 0.960 1_545 S
C1613 C1610 1.511 . S
C1613 H1627 0.961 . S
C1613 H1628 0.961 . S
C1613 H1629 0.961 . S
C1614 C1615 1.370 . S
C1614 C1616 1.363 . S
C1614 H1630 0.931 . S
C1615 C1614 1.370 . S
C1615 C1619 1.412 . S
C1616 C1614 1.363 . S
C1616 C1617 1.370 . S
C1616 C1620 1.524 . S
C1617 C1609 1.503 . S
C1617 C1616 1.370 . S
C1617 C1618 1.403 1_545 S
C1618 C1617 1.403 1_565 S
C1618 C1619 1.402 1_565 S
C1618 C1621 1.539 . S
C1619 C1615 1.412 . S
C1619 C1618 1.402 1_545 S
C1619 H1631 0.928 1_545 S
C1620 C1616 1.524 . S
C1620 H1632 0.956 . S
C1620 H1633 0.961 . S
C1620 H1634 0.961 . S
C1621 C1618 1.539 . S
C1621 H1635 0.958 . S
C1621 H1636 0.961 . S
C1621 H1637 0.960 . S
H1622 C1606 0.931 . S
H1623 C1611 0.929 . S
H1624 C1612 0.959 1_565 S
H1625 C1612 0.962 . S
H1626 C1612 0.960 1_565 S
H1627 C1613 0.961 . S
H1628 C1613 0.961 . S
H1629 C1613 0.961 . S
H1630 C1614 0.931 . S
H1631 C1619 0.928 1_565 S
H1632 C1620 0.956 . S
H1633 C1620 0.961 . S
H1634 C1620 0.961 . S
H1635 C1621 0.958 . S
H1636 C1621 0.961 . S
H1637 C1621 0.960 . S
C1638 C1639 1.391 1_565 S
C1638 C1640 1.394 . S
C1638 H1654 0.931 . S
C1639 C1638 1.391 1_545 S
C1639 C1643 1.376 . S
C1640 C1638 1.394 . S
C1640 C1641 1.369 1_565 S
C1640 C1644 1.531 . S
C1641 C1640 1.369 1_545 S
C1641 C1642 1.410 . S
C1641 C1649 1.503 . S
C1642 C1641 1.410 . S
C1642 C1643 1.392 . S
C1642 C1645 1.511 . S
C1643 C1639 1.376 . S
C1643 C1642 1.392 . S
C1643 H1655 0.929 . S
C1644 C1640 1.531 . S
C1644 H1656 0.960 . S
C1644 H1657 0.962 . S
C1644 H1658 0.960 . S
C1645 C1642 1.511 . S
C1645 H1659 0.961 . S
C1645 H1660 0.961 . S
C1645 H1661 0.961 . S
C1646 C1647 1.370 . S
C1646 C1648 1.363 . S
C1646 H1662 0.931 . S
C1647 C1646 1.370 . S
C1647 C1651 1.408 1_545 S
C1648 C1646 1.363 . S
C1648 C1649 1.370 . S
C1648 C1652 1.524 . S
C1649 C1641 1.503 . S
C1649 C1648 1.370 . S
C1649 C1650 1.403 1_545 S
C1650 C1649 1.403 1_565 S
C1650 C1651 1.404 . S
C1650 C1653 1.539 . S
C1651 C1647 1.408 1_565 S
C1651 C1650 1.404 . S
C1651 H1663 0.930 . S
C1652 C1648 1.524 . S
C1652 H1664 0.956 . S
C1652 H1665 0.961 . S
C1652 H1666 0.961 . S
C1653 C1650 1.539 . S
C1653 H1667 0.958 . S
C1653 H1668 0.961 . S
C1653 H1669 0.960 . S
H1654 C1638 0.931 . S
H1655 C1643 0.929 . S
H1656 C1644 0.960 . S
H1657 C1644 0.962 . S
H1658 C1644 0.960 . S
H1659 C1645 0.961 . S
H1660 C1645 0.961 . S
H1661 C1645 0.961 . S
H1662 C1646 0.931 . S
H1663 C1651 0.930 . S
H1664 C1652 0.956 . S
H1665 C1652 0.961 . S
H1666 C1652 0.961 . S
H1667 C1653 0.958 . S
H1668 C1653 0.961 . S
H1669 C1653 0.960 . S
C1670 C1671 1.337 1_655 S
C1670 C1672 1.381 . S
C1670 H1686 1.021 . S
C1671 C1670 1.337 1_455 S
C1671 C1675 1.376 . S
C1672 C1670 1.381 . S
C1672 C1673 1.313 1_655 S
C1672 C1676 1.566 . S
C1673 C1672 1.313 1_455 S
C1673 C1674 1.410 . S
C1673 C1681 1.503 . S
C1674 C1673 1.410 . S
C1674 C1675 1.392 . S
C1674 C1677 1.511 . S
C1675 C1671 1.376 . S
C1675 C1674 1.392 . S
C1675 H1687 0.929 . S
C1676 C1672 1.566 . S
C1676 H1688 0.960 . S
C1676 H1689 0.962 . S
C1676 H1690 0.960 . S
C1677 C1674 1.511 . S
C1677 H1691 0.961 . S
C1677 H1692 0.961 . S
C1677 H1693 0.961 . S
C1678 C1679 1.370 . S
C1678 C1680 1.363 . S
C1678 H1694 0.931 . S
C1679 C1678 1.370 . S
C1679 C1683 1.408 . S
C1680 C1678 1.363 . S
C1680 C1681 1.370 . S
C1680 C1684 1.524 . S
C1681 C1673 1.503 . S
C1681 C1680 1.370 . S
C1681 C1682 1.403 . S
C1682 C1681 1.403 . S
C1682 C1683 1.404 . S
C1682 C1685 1.539 . S
C1683 C1679 1.408 . S
C1683 C1682 1.404 . S
C1683 H1695 0.930 . S
C1684 C1680 1.524 . S
C1684 H1696 0.956 . S
C1684 H1697 0.961 . S
C1684 H1698 0.961 . S
C1685 C1682 1.539 . S
C1685 H1699 0.975 . S
C1685 H1700 0.961 . S
C1685 H1701 0.960 . S
H1686 C1670 1.021 . S
H1687 C1675 0.929 . S
H1688 C1676 0.960 . S
H1689 C1676 0.962 . S
H1690 C1676 0.960 . S
H1691 C1677 0.961 . S
H1692 C1677 0.961 . S
H1693 C1677 0.961 . S
H1694 C1678 0.931 . S
H1695 C1683 0.930 . S
H1696 C1684 0.956 . S
H1697 C1684 0.961 . S
H1698 C1684 0.961 . S
H1699 C1685 0.975 . S
H1700 C1685 0.961 . S
H1701 C1685 0.960 . S
C1702 C1703 1.391 . S
C1702 C1704 1.394 . S
C1702 H1718 0.931 . S
C1703 C1702 1.391 . S
C1703 C1707 1.376 . S
C1704 C1702 1.394 . S
C1704 C1705 1.369 . S
C1704 C1708 1.531 . S
C1705 C1704 1.369 . S
C1705 C1706 1.410 . S
C1705 C1713 1.503 . S
C1706 C1705 1.410 . S
C1706 C1707 1.392 . S
C1706 C1709 1.511 . S
C1707 C1703 1.376 . S
C1707 C1706 1.392 . S
C1707 H1719 0.929 . S
C1708 C1704 1.531 . S
C1708 H1720 0.960 . S
C1708 H1721 0.962 . S
C1708 H1722 0.960 . S
C1709 C1706 1.511 . S
C1709 H1723 0.961 . S
C1709 H1724 0.961 . S
C1709 H1725 0.961 . S
C1710 C1711 1.370 . S
C1710 C1712 1.363 . S
C1710 H1726 0.931 . S
C1711 C1710 1.370 . S
C1711 C1715 1.408 . S
C1712 C1710 1.363 . S
C1712 C1713 1.370 . S
C1712 C1716 1.524 . S
C1713 C1705 1.503 . S
C1713 C1712 1.370 . S
C1713 C1714 1.403 . S
C1714 C1713 1.403 . S
C1714 C1715 1.404 . S
C1714 C1717 1.539 . S
C1715 C1711 1.408 . S
C1715 C1714 1.404 . S
C1715 H1727 0.930 . S
C1716 C1712 1.524 . S
C1716 H1728 0.956 . S
C1716 H1729 0.961 . S
C1716 H1730 0.961 . S
C1717 C1714 1.539 . S
C1717 H1731 0.958 . S
C1717 H1732 0.961 . S
C1717 H1733 0.960 . S
H1718 C1702 0.931 . S
H1719 C1707 0.929 . S
H1720 C1708 0.960 . S
H1721 C1708 0.962 . S
H1722 C1708 0.960 . S
H1723 C1709 0.961 . S
H1724 C1709 0.961 . S
H1725 C1709 0.961 . S
H1726 C1710 0.931 . S
H1727 C1715 0.930 . S
H1728 C1716 0.956 . S
H1729 C1716 0.961 . S
H1730 C1716 0.961 . S
H1731 C1717 0.958 . S
H1732 C1717 0.961 . S
H1733 C1717 0.960 . S
C1734 C1735 1.391 . S
C1734 C1736 1.394 . S
C1734 H1750 0.931 . S
C1735 C1734 1.391 . S
C1735 C1739 1.376 . S
C1736 C1734 1.394 . S
C1736 C1737 1.369 . S
C1736 C1740 1.531 . S
C1737 C1736 1.369 . S
C1737 C1738 1.410 . S
C1737 C1745 1.503 . S
C1738 C1737 1.410 . S
C1738 C1739 1.392 . S
C1738 C1741 1.511 . S
C1739 C1735 1.376 . S
C1739 C1738 1.392 . S
C1739 H1751 0.929 . S
C1740 C1736 1.531 . S
C1740 H1752 0.960 . S
C1740 H1753 0.962 . S
C1740 H1754 0.960 . S
C1741 C1738 1.511 . S
C1741 H1755 0.961 . S
C1741 H1756 0.961 . S
C1741 H1757 0.961 . S
C1742 C1743 1.370 . S
C1742 C1744 1.363 . S
C1742 H1758 0.931 . S
C1743 C1742 1.370 . S
C1743 C1747 1.408 . S
C1744 C1742 1.363 . S
C1744 C1745 1.370 . S
C1744 C1748 1.524 . S
C1745 C1737 1.503 . S
C1745 C1744 1.370 . S
C1745 C1746 1.403 . S
C1746 C1745 1.403 . S
C1746 C1747 1.404 . S
C1746 C1749 1.539 . S
C1747 C1743 1.408 . S
C1747 C1746 1.404 . S
C1747 H1759 0.930 . S
C1748 C1744 1.524 . S
C1748 H1760 0.956 . S
C1748 H1761 0.961 . S
C1748 H1762 0.961 . S
C1749 C1746 1.539 . S
C1749 H1763 0.958 . S
C1749 H1764 0.961 . S
C1749 H1765 0.960 . S
H1750 C1734 0.931 . S
H1751 C1739 0.929 . S
H1752 C1740 0.960 . S
H1753 C1740 0.962 . S
H1754 C1740 0.960 . S
H1755 C1741 0.961 . S
H1756 C1741 0.961 . S
H1757 C1741 0.961 . S
H1758 C1742 0.931 . S
H1759 C1747 0.930 . S
H1760 C1748 0.956 . S
H1761 C1748 0.961 . S
H1762 C1748 0.961 . S
H1763 C1749 0.958 . S
H1764 C1749 0.961 . S
H1765 C1749 0.960 . S
C1766 C1767 1.391 . S
C1766 C1768 1.394 . S
C1766 H1782 0.931 . S
C1767 C1766 1.391 . S
C1767 C1771 1.376 . S
C1768 C1766 1.394 . S
C1768 C1769 1.369 . S
C1768 C1772 1.531 . S
C1769 C1768 1.369 . S
C1769 C1770 1.410 . S
C1769 C1777 1.503 . S
C1770 C1769 1.410 . S
C1770 C1771 1.392 . S
C1770 C1773 1.511 . S
C1771 C1767 1.376 . S
C1771 C1770 1.392 . S
C1771 H1783 0.929 . S
C1772 C1768 1.531 . S
C1772 H1784 0.960 . S
C1772 H1785 0.962 . S
C1772 H1786 0.960 . S
C1773 C1770 1.511 . S
C1773 H1787 0.961 . S
C1773 H1788 0.961 . S
C1773 H1789 0.961 . S
C1774 C1775 1.370 . S
C1774 C1776 1.363 . S
C1774 H1790 0.931 . S
C1775 C1774 1.370 . S
C1775 C1779 1.408 . S
C1776 C1774 1.363 . S
C1776 C1777 1.370 . S
C1776 C1780 1.524 . S
C1777 C1769 1.503 . S
C1777 C1776 1.370 . S
C1777 C1778 1.403 . S
C1778 C1777 1.403 . S
C1778 C1779 1.404 . S
C1778 C1781 1.539 . S
C1779 C1775 1.408 . S
C1779 C1778 1.404 . S
C1779 H1791 0.930 . S
C1780 C1776 1.524 . S
C1780 H1792 0.956 . S
C1780 H1793 0.961 . S
C1780 H1794 0.961 . S
C1781 C1778 1.539 . S
C1781 H1795 0.958 . S
C1781 H1796 0.961 . S
C1781 H1797 0.960 . S
H1782 C1766 0.931 . S
H1783 C1771 0.929 . S
H1784 C1772 0.960 . S
H1785 C1772 0.962 . S
H1786 C1772 0.960 . S
H1787 C1773 0.961 . S
H1788 C1773 0.961 . S
H1789 C1773 0.961 . S
H1790 C1774 0.931 . S
H1791 C1779 0.930 . S
H1792 C1780 0.956 . S
H1793 C1780 0.961 . S
H1794 C1780 0.961 . S
H1795 C1781 0.958 . S
H1796 C1781 0.961 . S
H1797 C1781 0.960 . S
C1798 C1799 1.391 . S
C1798 C1800 1.394 . S
C1798 H1814 0.931 . S
C1799 C1798 1.391 . S
C1799 C1803 1.376 . S
C1800 C1798 1.394 . S
C1800 C1801 1.369 . S
C1800 C1804 1.531 . S
C1801 C1800 1.369 . S
C1801 C1802 1.410 . S
C1801 C1809 1.503 . S
C1802 C1801 1.410 . S
C1802 C1803 1.392 . S
C1802 C1805 1.511 . S
C1803 C1799 1.376 . S
C1803 C1802 1.392 . S
C1803 H1815 0.929 . S
C1804 C1800 1.531 . S
C1804 H1816 0.960 . S
C1804 H1817 0.962 . S
C1804 H1818 0.960 . S
C1805 C1802 1.511 . S
C1805 H1819 0.961 . S
C1805 H1820 0.961 . S
C1805 H1821 0.961 . S
C1806 C1807 1.370 . S
C1806 C1808 1.363 . S
C1806 H1822 0.931 . S
C1807 C1806 1.370 . S
C1807 C1811 1.408 . S
C1808 C1806 1.363 . S
C1808 C1809 1.370 . S
C1808 C1812 1.524 . S
C1809 C1801 1.503 . S
C1809 C1808 1.370 . S
C1809 C1810 1.403 . S
C1810 C1809 1.403 . S
C1810 C1811 1.404 . S
C1810 C1813 1.539 . S
C1811 C1807 1.408 . S
C1811 C1810 1.404 . S
C1811 H1823 0.930 . S
C1812 C1808 1.524 . S
C1812 H1824 0.956 . S
C1812 H1825 0.961 . S
C1812 H1826 0.961 . S
C1813 C1810 1.539 . S
C1813 H1827 0.958 . S
C1813 H1828 0.961 . S
C1813 H1829 0.960 . S
H1814 C1798 0.931 . S
H1815 C1803 0.929 . S
H1816 C1804 0.960 . S
H1817 C1804 0.962 . S
H1818 C1804 0.960 . S
H1819 C1805 0.961 . S
H1820 C1805 0.961 . S
H1821 C1805 0.961 . S
H1822 C1806 0.931 . S
H1823 C1811 0.930 . S
H1824 C1812 0.956 . S
H1825 C1812 0.961 . S
H1826 C1812 0.961 . S
H1827 C1813 0.958 . S
H1828 C1813 0.961 . S
H1829 C1813 0.960 . S
C1830 C1831 1.391 . S
C1830 C1832 1.394 . S
C1830 H1846 0.931 . S
C1831 C1830 1.391 . S
C1831 C1835 1.376 . S
C1832 C1830 1.394 . S
C1832 C1833 1.369 . S
C1832 C1836 1.531 . S
C1833 C1832 1.369 . S
C1833 C1834 1.410 . S
C1833 C1841 1.503 . S
C1834 C1833 1.410 . S
C1834 C1835 1.392 . S
C1834 C1837 1.511 . S
C1835 C1831 1.376 . S
C1835 C1834 1.392 . S
C1835 H1847 0.929 . S
C1836 C1832 1.531 . S
C1836 H1848 0.960 . S
C1836 H1849 0.962 . S
C1836 H1850 0.960 . S
C1837 C1834 1.511 . S
C1837 H1851 0.961 . S
C1837 H1852 0.961 . S
C1837 H1853 0.961 . S
C1838 C1839 1.370 . S
C1838 C1840 1.363 . S
C1838 H1854 0.931 . S
C1839 C1838 1.370 . S
C1839 C1843 1.408 . S
C1840 C1838 1.363 . S
C1840 C1841 1.370 . S
C1840 C1844 1.524 . S
C1841 C1833 1.503 . S
C1841 C1840 1.370 . S
C1841 C1842 1.403 . S
C1842 C1841 1.403 . S
C1842 C1843 1.404 . S
C1842 C1845 1.539 . S
C1843 C1839 1.408 . S
C1843 C1842 1.404 . S
C1843 H1855 0.930 . S
C1844 C1840 1.524 . S
C1844 H1856 0.956 . S
C1844 H1857 0.961 . S
C1844 H1858 0.961 . S
C1845 C1842 1.539 . S
C1845 H1859 0.958 . S
C1845 H1860 0.961 . S
C1845 H1861 0.960 . S
H1846 C1830 0.931 . S
H1847 C1835 0.929 . S
H1848 C1836 0.960 . S
H1849 C1836 0.962 . S
H1850 C1836 0.960 . S
H1851 C1837 0.961 . S
H1852 C1837 0.961 . S
H1853 C1837 0.961 . S
H1854 C1838 0.931 . S
H1855 C1843 0.930 . S
H1856 C1844 0.956 . S
H1857 C1844 0.961 . S
H1858 C1844 0.961 . S
H1859 C1845 0.958 . S
H1860 C1845 0.961 . S
H1861 C1845 0.960 . S
C1862 C1863 1.391 . S
C1862 C1864 1.394 . S
C1862 H1878 0.931 . S
C1863 C1862 1.391 . S
C1863 C1867 1.376 . S
C1864 C1862 1.394 . S
C1864 C1865 1.369 . S
C1864 C1868 1.531 . S
C1865 C1864 1.369 . S
C1865 C1866 1.410 . S
C1865 C1873 1.503 . S
C1866 C1865 1.410 . S
C1866 C1867 1.392 . S
C1866 C1869 1.511 . S
C1867 C1863 1.376 . S
C1867 C1866 1.392 . S
C1867 H1879 0.929 . S
C1868 C1864 1.531 . S
C1868 H1880 0.960 . S
C1868 H1881 0.962 . S
C1868 H1882 0.960 . S
C1869 C1866 1.511 . S
C1869 H1883 0.961 . S
C1869 H1884 0.961 . S
C1869 H1885 0.961 . S
C1870 C1871 1.370 . S
C1870 C1872 1.363 . S
C1870 H1886 0.931 . S
C1871 C1870 1.370 . S
C1871 C1875 1.408 . S
C1872 C1870 1.363 . S
C1872 C1873 1.370 . S
C1872 C1876 1.524 . S
C1873 C1865 1.503 . S
C1873 C1872 1.370 . S
C1873 C1874 1.403 . S
C1874 C1873 1.403 . S
C1874 C1875 1.404 . S
C1874 C1877 1.539 . S
C1875 C1871 1.408 . S
C1875 C1874 1.404 . S
C1875 H1887 0.930 . S
C1876 C1872 1.524 . S
C1876 H1888 0.956 . S
C1876 H1889 0.961 . S
C1876 H1890 0.961 . S
C1877 C1874 1.539 . S
C1877 H1891 0.958 . S
C1877 H1892 0.961 . S
C1877 H1893 0.960 . S
H1878 C1862 0.931 . S
H1879 C1867 0.929 . S
H1880 C1868 0.960 . S
H1881 C1868 0.962 . S
H1882 C1868 0.960 . S
H1883 C1869 0.961 . S
H1884 C1869 0.961 . S
H1885 C1869 0.961 . S
H1886 C1870 0.931 . S
H1887 C1875 0.930 . S
H1888 C1876 0.956 . S
H1889 C1876 0.961 . S
H1890 C1876 0.961 . S
H1891 C1877 0.958 . S
H1892 C1877 0.961 . S
H1893 C1877 0.960 . S
C1894 C1895 1.391 . S
C1894 C1896 1.394 . S
C1894 H1910 0.931 . S
C1895 C1894 1.391 . S
C1895 C1899 1.376 . S
C1896 C1894 1.394 . S
C1896 C1897 1.369 . S
C1896 C1900 1.531 . S
C1897 C1896 1.369 . S
C1897 C1898 1.410 . S
C1897 C1905 1.503 . S
C1898 C1897 1.410 . S
C1898 C1899 1.392 . S
C1898 C1901 1.511 . S
C1899 C1895 1.376 . S
C1899 C1898 1.392 . S
C1899 H1911 0.929 . S
C1900 C1896 1.531 . S
C1900 H1912 0.960 . S
C1900 H1913 0.962 . S
C1900 H1914 0.960 . S
C1901 C1898 1.511 . S
C1901 H1915 0.961 . S
C1901 H1916 0.961 . S
C1901 H1917 0.961 . S
C1902 C1903 1.370 . S
C1902 C1904 1.363 . S
C1902 H1918 0.931 . S
C1903 C1902 1.370 . S
C1903 C1907 1.408 . S
C1904 C1902 1.363 . S
C1904 C1905 1.370 . S
C1904 C1908 1.524 . S
C1905 C1897 1.503 . S
C1905 C1904 1.370 . S
C1905 C1906 1.403 . S
C1906 C1905 1.403 . S
C1906 C1907 1.404 . S
C1906 C1909 1.539 . S
C1907 C1903 1.408 . S
C1907 C1906 1.404 . S
C1907 H1919 0.930 . S
C1908 C1904 1.524 . S
C1908 H1920 0.956 . S
C1908 H1921 0.961 . S
C1908 H1922 0.961 . S
C1909 C1906 1.539 . S
C1909 H1923 0.958 . S
C1909 H1924 0.961 . S
C1909 H1925 0.960 . S
H1910 C1894 0.931 . S
H1911 C1899 0.929 . S
H1912 C1900 0.960 . S
H1913 C1900 0.962 . S
H1914 C1900 0.960 . S
H1915 C1901 0.961 . S
H1916 C1901 0.961 . S
H1917 C1901 0.961 . S
H1918 C1902 0.931 . S
H1919 C1907 0.930 . S
H1920 C1908 0.956 . S
H1921 C1908 0.961 . S
H1922 C1908 0.961 . S
H1923 C1909 0.958 . S
H1924 C1909 0.961 . S
H1925 C1909 0.960 . S
C1926 C1927 1.391 . S
C1926 C1928 1.394 . S
C1926 H1942 0.931 . S
C1927 C1926 1.391 . S
C1927 C1931 1.376 . S
C1928 C1926 1.394 . S
C1928 C1929 1.369 . S
C1928 C1932 1.531 . S
C1929 C1928 1.369 . S
C1929 C1930 1.410 . S
C1929 C1937 1.503 . S
C1930 C1929 1.410 . S
C1930 C1931 1.392 . S
C1930 C1933 1.511 . S
C1931 C1927 1.376 . S
C1931 C1930 1.392 . S
C1931 H1943 0.929 . S
C1932 C1928 1.531 . S
C1932 H1944 0.960 . S
C1932 H1945 0.962 . S
C1932 H1946 0.960 . S
C1933 C1930 1.511 . S
C1933 H1947 0.961 . S
C1933 H1948 0.961 . S
C1933 H1949 0.961 . S
C1934 C1935 1.370 . S
C1934 C1936 1.363 . S
C1934 H1950 0.931 . S
C1935 C1934 1.370 . S
C1935 C1939 1.408 . S
C1936 C1934 1.363 . S
C1936 C1937 1.370 . S
C1936 C1940 1.524 . S
C1937 C1929 1.503 . S
C1937 C1936 1.370 . S
C1937 C1938 1.403 . S
C1938 C1937 1.403 . S
C1938 C1939 1.404 . S
C1938 C1941 1.539 . S
C1939 C1935 1.408 . S
C1939 C1938 1.404 . S
C1939 H1951 0.930 . S
C1940 C1936 1.524 . S
C1940 H1952 0.956 . S
C1940 H1953 0.961 . S
C1940 H1954 0.961 . S
C1941 C1938 1.539 . S
C1941 H1955 0.958 . S
C1941 H1956 0.961 . S
C1941 H1957 0.960 . S
H1942 C1926 0.931 . S
H1943 C1931 0.929 . S
H1944 C1932 0.960 . S
H1945 C1932 0.962 . S
H1946 C1932 0.960 . S
H1947 C1933 0.961 . S
H1948 C1933 0.961 . S
H1949 C1933 0.961 . S
H1950 C1934 0.931 . S
H1951 C1939 0.930 . S
H1952 C1940 0.956 . S
H1953 C1940 0.961 . S
H1954 C1940 0.961 . S
H1955 C1941 0.958 . S
H1956 C1941 0.961 . S
H1957 C1941 0.960 . S
C1958 C1959 1.391 . S
C1958 C1960 1.394 . S
C1958 H1974 0.931 . S
C1959 C1958 1.391 . S
C1959 C1963 1.376 . S
C1960 C1958 1.394 . S
C1960 C1961 1.369 . S
C1960 C1964 1.531 . S
C1961 C1960 1.369 . S
C1961 C1962 1.410 . S
C1961 C1969 1.503 . S
C1962 C1961 1.410 . S
C1962 C1963 1.392 . S
C1962 C1965 1.511 . S
C1963 C1959 1.376 . S
C1963 C1962 1.392 . S
C1963 H1975 0.929 . S
C1964 C1960 1.531 . S
C1964 H1976 0.960 . S
C1964 H1977 0.962 . S
C1964 H1978 0.960 . S
C1965 C1962 1.511 . S
C1965 H1979 0.961 . S
C1965 H1980 0.961 . S
C1965 H1981 0.961 . S
C1966 C1967 1.370 . S
C1966 C1968 1.363 . S
C1966 H1982 0.931 . S
C1967 C1966 1.370 . S
C1967 C1971 1.408 . S
C1968 C1966 1.363 . S
C1968 C1969 1.370 . S
C1968 C1972 1.524 . S
C1969 C1961 1.503 . S
C1969 C1968 1.370 . S
C1969 C1970 1.403 . S
C1970 C1969 1.403 . S
C1970 C1971 1.404 . S
C1970 C1973 1.539 . S
C1971 C1967 1.408 . S
C1971 C1970 1.404 . S
C1971 H1983 0.930 . S
C1972 C1968 1.524 . S
C1972 H1984 0.956 . S
C1972 H1985 0.961 . S
C1972 H1986 0.961 . S
C1973 C1970 1.539 . S
C1973 H1987 0.958 . S
C1973 H1988 0.961 . S
C1973 H1989 0.960 . S
H1974 C1958 0.931 . S
H1975 C1963 0.929 . S
H1976 C1964 0.960 . S
H1977 C1964 0.962 . S
H1978 C1964 0.960 . S
H1979 C1965 0.961 . S
H1980 C1965 0.961 . S
H1981 C1965 0.961 . S
H1982 C1966 0.931 . S
H1983 C1971 0.930 . S
H1984 C1972 0.956 . S
H1985 C1972 0.961 . S
H1986 C1972 0.961 . S
H1987 C1973 0.958 . S
H1988 C1973 0.961 . S
H1989 C1973 0.960 . S
C1990 C1991 1.391 . S
C1990 C1992 1.394 . S
C1990 H2006 0.931 . S
C1991 C1990 1.391 . S
C1991 C1995 1.376 . S
C1992 C1990 1.394 . S
C1992 C1993 1.369 . S
C1992 C1996 1.531 . S
C1993 C1992 1.369 . S
C1993 C1994 1.410 . S
C1993 C2001 1.503 . S
C1994 C1993 1.410 . S
C1994 C1995 1.392 . S
C1994 C1997 1.511 . S
C1995 C1991 1.376 . S
C1995 C1994 1.392 . S
C1995 H2007 0.929 . S
C1996 C1992 1.531 . S
C1996 H2008 0.960 . S
C1996 H2009 0.962 . S
C1996 H2010 0.960 . S
C1997 C1994 1.511 . S
C1997 H2011 0.961 . S
C1997 H2012 0.961 . S
C1997 H2013 0.961 . S
C1998 C1999 1.370 . S
C1998 C2000 1.363 . S
C1998 H2014 0.931 . S
C1999 C1998 1.370 . S
C1999 C2003 1.408 . S
C2000 C1998 1.363 . S
C2000 C2001 1.370 . S
C2000 C2004 1.524 . S
C2001 C1993 1.503 . S
C2001 C2000 1.370 . S
C2001 C2002 1.403 . S
C2002 C2001 1.403 . S
C2002 C2003 1.404 . S
C2002 C2005 1.539 . S
C2003 C1999 1.408 . S
C2003 C2002 1.404 . S
C2003 H2015 0.930 . S
C2004 C2000 1.524 . S
C2004 H2016 0.956 . S
C2004 H2017 0.961 . S
C2004 H2018 0.961 . S
C2005 C2002 1.539 . S
C2005 H2019 0.958 . S
C2005 H2020 0.961 . S
C2005 H2021 0.960 . S
H2006 C1990 0.931 . S
H2007 C1995 0.929 . S
H2008 C1996 0.960 . S
H2009 C1996 0.962 . S
H2010 C1996 0.960 . S
H2011 C1997 0.961 . S
H2012 C1997 0.961 . S
H2013 C1997 0.961 . S
H2014 C1998 0.931 . S
H2015 C2003 0.930 . S
H2016 C2004 0.956 . S
H2017 C2004 0.961 . S
H2018 C2004 0.961 . S
H2019 C2005 0.958 . S
H2020 C2005 0.961 . S
H2021 C2005 0.960 . S
C2022 C2023 1.391 . S
C2022 C2024 1.394 . S
C2022 H2038 0.931 . S
C2023 C2022 1.391 . S
C2023 C2027 1.376 . S
C2024 C2022 1.394 . S
C2024 C2025 1.369 . S
C2024 C2028 1.531 . S
C2025 C2024 1.369 . S
C2025 C2026 1.410 . S
C2025 C2033 1.503 . S
C2026 C2025 1.410 . S
C2026 C2027 1.392 . S
C2026 C2029 1.511 . S
C2027 C2023 1.376 . S
C2027 C2026 1.392 . S
C2027 H2039 0.929 . S
C2028 C2024 1.531 . S
C2028 H2040 0.960 . S
C2028 H2041 0.962 . S
C2028 H2042 0.960 . S
C2029 C2026 1.511 . S
C2029 H2043 0.961 . S
C2029 H2044 0.961 . S
C2029 H2045 0.961 . S
C2030 C2031 1.370 . S
C2030 C2032 1.363 . S
C2030 H2046 0.931 . S
C2031 C2030 1.370 . S
C2031 C2035 1.408 . S
C2032 C2030 1.363 . S
C2032 C2033 1.370 . S
C2032 C2036 1.524 . S
C2033 C2025 1.503 . S
C2033 C2032 1.370 . S
C2033 C2034 1.403 . S
C2034 C2033 1.403 . S
C2034 C2035 1.404 . S
C2034 C2037 1.539 . S
C2035 C2031 1.408 . S
C2035 C2034 1.404 . S
C2035 H2047 0.930 . S
C2036 C2032 1.524 . S
C2036 H2048 0.956 . S
C2036 H2049 0.961 . S
C2036 H2050 0.961 . S
C2037 C2034 1.539 . S
C2037 H2051 0.958 . S
C2037 H2052 0.961 . S
C2037 H2053 0.960 . S
H2038 C2022 0.931 . S
H2039 C2027 0.929 . S
H2040 C2028 0.960 . S
H2041 C2028 0.962 . S
H2042 C2028 0.960 . S
H2043 C2029 0.961 . S
H2044 C2029 0.961 . S
H2045 C2029 0.961 . S
H2046 C2030 0.931 . S
H2047 C2035 0.930 . S
H2048 C2036 0.956 . S
H2049 C2036 0.961 . S
H2050 C2036 0.961 . S
H2051 C2037 0.958 . S
H2052 C2037 0.961 . S
H2053 C2037 0.960 . S
C2054 C2055 1.391 . S
C2054 C2056 1.394 . S
C2054 H2070 0.931 . S
C2055 C2054 1.391 . S
C2055 C2059 1.376 . S
C2056 C2054 1.394 . S
C2056 C2057 1.369 . S
C2056 C2060 1.531 . S
C2057 C2056 1.369 . S
C2057 C2058 1.410 . S
C2057 C2065 1.503 . S
C2058 C2057 1.410 . S
C2058 C2059 1.392 . S
C2058 C2061 1.511 . S
C2059 C2055 1.376 . S
C2059 C2058 1.392 . S
C2059 H2071 0.929 . S
C2060 C2056 1.531 . S
C2060 H2072 0.960 . S
C2060 H2073 0.962 . S
C2060 H2074 0.960 . S
C2061 C2058 1.511 . S
C2061 H2075 0.961 . S
C2061 H2076 0.961 . S
C2061 H2077 0.961 . S
C2062 C2063 1.370 . S
C2062 C2064 1.363 . S
C2062 H2078 0.931 . S
C2063 C2062 1.370 . S
C2063 C2067 1.408 . S
C2064 C2062 1.363 . S
C2064 C2065 1.370 . S
C2064 C2068 1.524 . S
C2065 C2057 1.503 . S
C2065 C2064 1.370 . S
C2065 C2066 1.403 . S
C2066 C2065 1.403 . S
C2066 C2067 1.404 . S
C2066 C2069 1.539 . S
C2067 C2063 1.408 . S
C2067 C2066 1.404 . S
C2067 H2079 0.930 . S
C2068 C2064 1.524 . S
C2068 H2080 0.956 . S
C2068 H2081 0.961 . S
C2068 H2082 0.961 . S
C2069 C2066 1.539 . S
C2069 H2083 0.958 . S
C2069 H2084 0.961 . S
C2069 H2085 0.960 . S
H2070 C2054 0.931 . S
H2071 C2059 0.929 . S
H2072 C2060 0.960 . S
H2073 C2060 0.962 . S
H2074 C2060 0.960 . S
H2075 C2061 0.961 . S
H2076 C2061 0.961 . S
H2077 C2061 0.961 . S
H2078 C2062 0.931 . S
H2079 C2067 0.930 . S
H2080 C2068 0.956 . S
H2081 C2068 0.961 . S
H2082 C2068 0.961 . S
H2083 C2069 0.958 . S
H2084 C2069 0.961 . S
H2085 C2069 0.960 . S
C2086 C2087 1.391 . S
C2086 C2088 1.394 . S
C2086 H2102 0.931 . S
C2087 C2086 1.391 . S
C2087 C2091 1.376 . S
C2088 C2086 1.394 . S
C2088 C2089 1.369 . S
C2088 C2092 1.531 . S
C2089 C2088 1.369 . S
C2089 C2090 1.410 . S
C2089 C2097 1.503 . S
C2090 C2089 1.410 . S
C2090 C2091 1.392 . S
C2090 C2093 1.511 . S
C2091 C2087 1.376 . S
C2091 C2090 1.392 . S
C2091 H2103 0.929 . S
C2092 C2088 1.531 . S
C2092 H2104 0.960 . S
C2092 H2105 0.962 . S
C2092 H2106 0.960 . S
C2093 C2090 1.511 . S
C2093 H2107 0.961 . S
C2093 H2108 0.961 . S
C2093 H2109 0.961 . S
C2094 C2095 1.370 . S
C2094 C2096 1.363 . S
C2094 H2110 0.931 . S
C2095 C2094 1.370 . S
C2095 C2099 1.408 . S
C2096 C2094 1.363 . S
C2096 C2097 1.370 . S
C2096 C2100 1.524 . S
C2097 C2089 1.503 . S
C2097 C2096 1.370 . S
C2097 C2098 1.403 . S
C2098 C2097 1.403 . S
C2098 C2099 1.404 . S
C2098 C2101 1.539 . S
C2099 C2095 1.408 . S
C2099 C2098 1.404 . S
C2099 H2111 0.930 . S
C2100 C2096 1.524 . S
C2100 H2112 0.956 . S
C2100 H2113 0.961 . S
C2100 H2114 0.961 . S
C2101 C2098 1.539 . S
C2101 H2115 0.958 . S
C2101 H2116 0.961 . S
C2101 H2117 0.960 . S
H2102 C2086 0.931 . S
H2103 C2091 0.929 . S
H2104 C2092 0.960 . S
H2105 C2092 0.962 . S
H2106 C2092 0.960 . S
H2107 C2093 0.961 . S
H2108 C2093 0.961 . S
H2109 C2093 0.961 . S
H2110 C2094 0.931 . S
H2111 C2099 0.930 . S
H2112 C2100 0.956 . S
H2113 C2100 0.961 . S
H2114 C2100 0.961 . S
H2115 C2101 0.958 . S
H2116 C2101 0.961 . S
H2117 C2101 0.960 . S
C2118 C2119 1.391 . S
C2118 C2120 1.394 . S
C2118 H2134 0.931 . S
C2119 C2118 1.391 . S
C2119 C2123 1.376 . S
C2120 C2118 1.394 . S
C2120 C2121 1.369 . S
C2120 C2124 1.531 . S
C2121 C2120 1.369 . S
C2121 C2122 1.410 . S
C2121 C2129 1.503 . S
C2122 C2121 1.410 . S
C2122 C2123 1.392 . S
C2122 C2125 1.511 . S
C2123 C2119 1.376 . S
C2123 C2122 1.392 . S
C2123 H2135 0.929 . S
C2124 C2120 1.531 . S
C2124 H2136 0.960 . S
C2124 H2137 0.962 . S
C2124 H2138 0.960 . S
C2125 C2122 1.511 . S
C2125 H2139 0.961 . S
C2125 H2140 0.961 . S
C2125 H2141 0.961 . S
C2126 C2127 1.370 . S
C2126 C2128 1.363 . S
C2126 H2142 0.931 . S
C2127 C2126 1.370 . S
C2127 C2131 1.408 . S
C2128 C2126 1.363 . S
C2128 C2129 1.370 . S
C2128 C2132 1.524 . S
C2129 C2121 1.503 . S
C2129 C2128 1.370 . S
C2129 C2130 1.403 . S
C2130 C2129 1.403 . S
C2130 C2131 1.404 . S
C2130 C2133 1.539 . S
C2131 C2127 1.408 . S
C2131 C2130 1.404 . S
C2131 H2143 0.930 . S
C2132 C2128 1.524 . S
C2132 H2144 0.956 . S
C2132 H2145 0.961 . S
C2132 H2146 0.961 . S
C2133 C2130 1.539 . S
C2133 H2147 0.958 . S
C2133 H2148 0.961 . S
C2133 H2149 0.960 . S
H2134 C2118 0.931 . S
H2135 C2123 0.929 . S
H2136 C2124 0.960 . S
H2137 C2124 0.962 . S
H2138 C2124 0.960 . S
H2139 C2125 0.961 . S
H2140 C2125 0.961 . S
H2141 C2125 0.961 . S
H2142 C2126 0.931 . S
H2143 C2131 0.930 . S
H2144 C2132 0.956 . S
H2145 C2132 0.961 . S
H2146 C2132 0.961 . S
H2147 C2133 0.958 . S
H2148 C2133 0.961 . S
H2149 C2133 0.960 . S
C2150 C2151 1.391 . S
C2150 C2152 1.394 . S
C2150 H2166 0.931 . S
C2151 C2150 1.391 . S
C2151 C2155 1.376 . S
C2152 C2150 1.394 . S
C2152 C2153 1.369 . S
C2152 C2156 1.531 . S
C2153 C2152 1.369 . S
C2153 C2154 1.410 . S
C2153 C2161 1.503 . S
C2154 C2153 1.410 . S
C2154 C2155 1.392 . S
C2154 C2157 1.511 . S
C2155 C2151 1.376 . S
C2155 C2154 1.392 . S
C2155 H2167 0.929 . S
C2156 C2152 1.531 . S
C2156 H2168 0.960 . S
C2156 H2169 0.962 . S
C2156 H2170 0.960 . S
C2157 C2154 1.511 . S
C2157 H2171 0.961 . S
C2157 H2172 0.961 . S
C2157 H2173 0.961 . S
C2158 C2159 1.370 . S
C2158 C2160 1.363 . S
C2158 H2174 0.931 . S
C2159 C2158 1.370 . S
C2159 C2163 1.408 . S
C2160 C2158 1.363 . S
C2160 C2161 1.370 . S
C2160 C2164 1.524 . S
C2161 C2153 1.503 . S
C2161 C2160 1.370 . S
C2161 C2162 1.403 . S
C2162 C2161 1.403 . S
C2162 C2163 1.404 . S
C2162 C2165 1.539 . S
C2163 C2159 1.408 . S
C2163 C2162 1.404 . S
C2163 H2175 0.930 . S
C2164 C2160 1.524 . S
C2164 H2176 0.956 . S
C2164 H2177 0.961 . S
C2164 H2178 0.961 . S
C2165 C2162 1.539 . S
C2165 H2179 0.958 . S
C2165 H2180 0.961 . S
C2165 H2181 0.960 . S
H2166 C2150 0.931 . S
H2167 C2155 0.929 . S
H2168 C2156 0.960 . S
H2169 C2156 0.962 . S
H2170 C2156 0.960 . S
H2171 C2157 0.961 . S
H2172 C2157 0.961 . S
H2173 C2157 0.961 . S
H2174 C2158 0.931 . S
H2175 C2163 0.930 . S
H2176 C2164 0.956 . S
H2177 C2164 0.961 . S
H2178 C2164 0.961 . S
H2179 C2165 0.958 . S
H2180 C2165 0.961 . S
H2181 C2165 0.960 . S
C2182 C2183 1.391 . S
C2182 C2184 1.394 . S
C2182 H2198 0.931 . S
C2183 C2182 1.391 . S
C2183 C2187 1.376 . S
C2184 C2182 1.394 . S
C2184 C2185 1.369 . S
C2184 C2188 1.531 . S
C2185 C2184 1.369 . S
C2185 C2186 1.410 . S
C2185 C2193 1.503 . S
C2186 C2185 1.410 . S
C2186 C2187 1.392 . S
C2186 C2189 1.511 . S
C2187 C2183 1.376 . S
C2187 C2186 1.392 . S
C2187 H2199 0.929 . S
C2188 C2184 1.531 . S
C2188 H2200 0.960 . S
C2188 H2201 0.962 . S
C2188 H2202 0.960 . S
C2189 C2186 1.511 . S
C2189 H2203 0.961 . S
C2189 H2204 0.961 . S
C2189 H2205 0.961 . S
C2190 C2191 1.370 . S
C2190 C2192 1.363 . S
C2190 H2206 0.931 . S
C2191 C2190 1.370 . S
C2191 C2195 1.408 . S
C2192 C2190 1.363 . S
C2192 C2193 1.370 . S
C2192 C2196 1.524 . S
C2193 C2185 1.503 . S
C2193 C2192 1.370 . S
C2193 C2194 1.403 . S
C2194 C2193 1.403 . S
C2194 C2195 1.404 . S
C2194 C2197 1.539 . S
C2195 C2191 1.408 . S
C2195 C2194 1.404 . S
C2195 H2207 0.930 . S
C2196 C2192 1.524 . S
C2196 H2208 0.956 . S
C2196 H2209 0.961 . S
C2196 H2210 0.961 . S
C2197 C2194 1.539 . S
C2197 H2211 0.958 . S
C2197 H2212 0.961 . S
C2197 H2213 0.960 . S
H2198 C2182 0.931 . S
H2199 C2187 0.929 . S
H2200 C2188 0.960 . S
H2201 C2188 0.962 . S
H2202 C2188 0.960 . S
H2203 C2189 0.961 . S
H2204 C2189 0.961 . S
H2205 C2189 0.961 . S
H2206 C2190 0.931 . S
H2207 C2195 0.930 . S
H2208 C2196 0.956 . S
H2209 C2196 0.961 . S
H2210 C2196 0.961 . S
H2211 C2197 0.958 . S
H2212 C2197 0.961 . S
H2213 C2197 0.960 . S
C2214 C2215 1.391 . S
C2214 C2216 1.394 . S
C2214 H2230 0.931 . S
C2215 C2214 1.391 . S
C2215 C2219 1.376 . S
C2216 C2214 1.394 . S
C2216 C2217 1.369 . S
C2216 C2220 1.531 . S
C2217 C2216 1.369 . S
C2217 C2218 1.410 . S
C2217 C2225 1.503 . S
C2218 C2217 1.410 . S
C2218 C2219 1.392 . S
C2218 C2221 1.511 . S
C2219 C2215 1.376 . S
C2219 C2218 1.392 . S
C2219 H2231 0.929 . S
C2220 C2216 1.531 . S
C2220 H2232 0.960 . S
C2220 H2233 0.962 . S
C2220 H2234 0.960 . S
C2221 C2218 1.511 . S
C2221 H2235 0.961 . S
C2221 H2236 0.961 . S
C2221 H2237 0.961 . S
C2222 C2223 1.370 . S
C2222 C2224 1.363 . S
C2222 H2238 0.931 . S
C2223 C2222 1.370 . S
C2223 C2227 1.408 . S
C2224 C2222 1.363 . S
C2224 C2225 1.370 . S
C2224 C2228 1.524 . S
C2225 C2217 1.503 . S
C2225 C2224 1.370 . S
C2225 C2226 1.403 . S
C2226 C2225 1.403 . S
C2226 C2227 1.404 . S
C2226 C2229 1.539 . S
C2227 C2223 1.408 . S
C2227 C2226 1.404 . S
C2227 H2239 0.930 . S
C2228 C2224 1.524 . S
C2228 H2240 0.956 . S
C2228 H2241 0.961 . S
C2228 H2242 0.961 . S
C2229 C2226 1.539 . S
C2229 H2243 0.958 . S
C2229 H2244 0.961 . S
C2229 H2245 0.960 . S
H2230 C2214 0.931 . S
H2231 C2219 0.929 . S
H2232 C2220 0.960 . S
H2233 C2220 0.962 . S
H2234 C2220 0.960 . S
H2235 C2221 0.961 . S
H2236 C2221 0.961 . S
H2237 C2221 0.961 . S
H2238 C2222 0.931 . S
H2239 C2227 0.930 . S
H2240 C2228 0.956 . S
H2241 C2228 0.961 . S
H2242 C2228 0.961 . S
H2243 C2229 0.958 . S
H2244 C2229 0.961 . S
H2245 C2229 0.960 . S
C2246 C2247 1.391 . S
C2246 C2248 1.394 . S
C2246 H2262 0.931 . S
C2247 C2246 1.391 . S
C2247 C2251 1.376 . S
C2248 C2246 1.394 . S
C2248 C2249 1.369 . S
C2248 C2252 1.531 . S
C2249 C2248 1.369 . S
C2249 C2250 1.410 . S
C2249 C2257 1.503 . S
C2250 C2249 1.410 . S
C2250 C2251 1.392 . S
C2250 C2253 1.511 . S
C2251 C2247 1.376 . S
C2251 C2250 1.392 . S
C2251 H2263 0.929 . S
C2252 C2248 1.531 . S
C2252 H2264 0.960 . S
C2252 H2265 0.962 . S
C2252 H2266 0.960 . S
C2253 C2250 1.511 . S
C2253 H2267 0.961 . S
C2253 H2268 0.961 . S
C2253 H2269 0.961 . S
C2254 C2255 1.370 . S
C2254 C2256 1.363 . S
C2254 H2270 0.931 . S
C2255 C2254 1.370 . S
C2255 C2259 1.408 . S
C2256 C2254 1.363 . S
C2256 C2257 1.370 . S
C2256 C2260 1.524 . S
C2257 C2249 1.503 . S
C2257 C2256 1.370 . S
C2257 C2258 1.403 . S
C2258 C2257 1.403 . S
C2258 C2259 1.404 . S
C2258 C2261 1.539 . S
C2259 C2255 1.408 . S
C2259 C2258 1.404 . S
C2259 H2271 0.930 . S
C2260 C2256 1.524 . S
C2260 H2272 0.956 . S
C2260 H2273 0.961 . S
C2260 H2274 0.961 . S
C2261 C2258 1.539 . S
C2261 H2275 0.958 . S
C2261 H2276 0.961 . S
C2261 H2277 0.960 . S
H2262 C2246 0.931 . S
H2263 C2251 0.929 . S
H2264 C2252 0.960 . S
H2265 C2252 0.962 . S
H2266 C2252 0.960 . S
H2267 C2253 0.961 . S
H2268 C2253 0.961 . S
H2269 C2253 0.961 . S
H2270 C2254 0.931 . S
H2271 C2259 0.930 . S
H2272 C2260 0.956 . S
H2273 C2260 0.961 . S
H2274 C2260 0.961 . S
H2275 C2261 0.958 . S
H2276 C2261 0.961 . S
H2277 C2261 0.960 . S
C2278 C2279 1.391 . S
C2278 C2280 1.394 . S
C2278 H2294 0.931 . S
C2279 C2278 1.391 . S
C2279 C2283 1.376 . S
C2280 C2278 1.394 . S
C2280 C2281 1.369 . S
C2280 C2284 1.531 . S
C2281 C2280 1.369 . S
C2281 C2282 1.410 . S
C2281 C2289 1.503 . S
C2282 C2281 1.410 . S
C2282 C2283 1.392 . S
C2282 C2285 1.511 . S
C2283 C2279 1.376 . S
C2283 C2282 1.392 . S
C2283 H2295 0.929 . S
C2284 C2280 1.531 . S
C2284 H2296 0.960 . S
C2284 H2297 0.962 . S
C2284 H2298 0.960 . S
C2285 C2282 1.511 . S
C2285 H2299 0.961 . S
C2285 H2300 0.961 . S
C2285 H2301 0.961 . S
C2286 C2287 1.370 . S
C2286 C2288 1.363 . S
C2286 H2302 0.931 . S
C2287 C2286 1.370 . S
C2287 C2291 1.408 . S
C2288 C2286 1.363 . S
C2288 C2289 1.370 . S
C2288 C2292 1.524 . S
C2289 C2281 1.503 . S
C2289 C2288 1.370 . S
C2289 C2290 1.403 . S
C2290 C2289 1.403 . S
C2290 C2291 1.404 . S
C2290 C2293 1.539 . S
C2291 C2287 1.408 . S
C2291 C2290 1.404 . S
C2291 H2303 0.930 . S
C2292 C2288 1.524 . S
C2292 H2304 0.956 . S
C2292 H2305 0.961 . S
C2292 H2306 0.961 . S
C2293 C2290 1.539 . S
C2293 H2307 0.958 . S
C2293 H2308 0.961 . S
C2293 H2309 0.960 . S
H2294 C2278 0.931 . S
H2295 C2283 0.929 . S
H2296 C2284 0.960 . S
H2297 C2284 0.962 . S
H2298 C2284 0.960 . S
H2299 C2285 0.961 . S
H2300 C2285 0.961 . S
H2301 C2285 0.961 . S
H2302 C2286 0.931 . S
H2303 C2291 0.930 . S
H2304 C2292 0.956 . S
H2305 C2292 0.961 . S
H2306 C2292 0.961 . S
H2307 C2293 0.958 . S
H2308 C2293 0.961 . S
H2309 C2293 0.960 . S
C2310 C2311 1.391 . S
C2310 C2312 1.394 . S
C2310 H2326 0.931 . S
C2311 C2310 1.391 . S
C2311 C2315 1.376 . S
C2312 C2310 1.394 . S
C2312 C2313 1.369 . S
C2312 C2316 1.531 . S
C2313 C2312 1.369 . S
C2313 C2314 1.410 . S
C2313 C2321 1.503 . S
C2314 C2313 1.410 . S
C2314 C2315 1.392 . S
C2314 C2317 1.511 . S
C2315 C2311 1.376 . S
C2315 C2314 1.392 . S
C2315 H2327 0.929 . S
C2316 C2312 1.531 . S
C2316 H2328 0.960 . S
C2316 H2329 0.962 . S
C2316 H2330 0.960 . S
C2317 C2314 1.511 . S
C2317 H2331 0.961 . S
C2317 H2332 0.961 . S
C2317 H2333 0.961 . S
C2318 C2319 1.370 . S
C2318 C2320 1.363 . S
C2318 H2334 0.931 . S
C2319 C2318 1.370 . S
C2319 C2323 1.408 . S
C2320 C2318 1.363 . S
C2320 C2321 1.370 . S
C2320 C2324 1.524 . S
C2321 C2313 1.503 . S
C2321 C2320 1.370 . S
C2321 C2322 1.403 . S
C2322 C2321 1.403 . S
C2322 C2323 1.404 . S
C2322 C2325 1.539 . S
C2323 C2319 1.408 . S
C2323 C2322 1.404 . S
C2323 H2335 0.930 . S
C2324 C2320 1.524 . S
C2324 H2336 0.956 . S
C2324 H2337 0.961 . S
C2324 H2338 0.961 . S
C2325 C2322 1.539 . S
C2325 H2339 0.958 . S
C2325 H2340 0.961 . S
C2325 H2341 0.960 . S
H2326 C2310 0.931 . S
H2327 C2315 0.929 . S
H2328 C2316 0.960 . S
H2329 C2316 0.962 . S
H2330 C2316 0.960 . S
H2331 C2317 0.961 . S
H2332 C2317 0.961 . S
H2333 C2317 0.961 . S
H2334 C2318 0.931 . S
H2335 C2323 0.930 . S
H2336 C2324 0.956 . S
H2337 C2324 0.961 . S
H2338 C2324 0.961 . S
H2339 C2325 0.958 . S
H2340 C2325 0.961 . S
H2341 C2325 0.960 . S
C2342 C2343 1.391 . S
C2342 C2344 1.394 . S
C2342 H2358 0.931 . S
C2343 C2342 1.391 . S
C2343 C2347 1.376 . S
C2344 C2342 1.394 . S
C2344 C2345 1.369 . S
C2344 C2348 1.531 . S
C2345 C2344 1.369 . S
C2345 C2346 1.410 . S
C2345 C2353 1.503 . S
C2346 C2345 1.410 . S
C2346 C2347 1.392 . S
C2346 C2349 1.511 . S
C2347 C2343 1.376 . S
C2347 C2346 1.392 . S
C2347 H2359 0.929 . S
C2348 C2344 1.531 . S
C2348 H2360 0.960 . S
C2348 H2361 0.962 . S
C2348 H2362 0.960 . S
C2349 C2346 1.511 . S
C2349 H2363 0.961 . S
C2349 H2364 0.961 . S
C2349 H2365 0.961 . S
C2350 C2351 1.370 . S
C2350 C2352 1.363 . S
C2350 H2366 0.931 . S
C2351 C2350 1.370 . S
C2351 C2355 1.408 . S
C2352 C2350 1.363 . S
C2352 C2353 1.370 . S
C2352 C2356 1.524 . S
C2353 C2345 1.503 . S
C2353 C2352 1.370 . S
C2353 C2354 1.403 . S
C2354 C2353 1.403 . S
C2354 C2355 1.404 . S
C2354 C2357 1.539 . S
C2355 C2351 1.408 . S
C2355 C2354 1.404 . S
C2355 H2367 0.930 . S
C2356 C2352 1.524 . S
C2356 H2368 0.956 . S
C2356 H2369 0.961 . S
C2356 H2370 0.961 . S
C2357 C2354 1.539 . S
C2357 H2371 0.958 . S
C2357 H2372 0.961 . S
C2357 H2373 0.960 . S
H2358 C2342 0.931 . S
H2359 C2347 0.929 . S
H2360 C2348 0.960 . S
H2361 C2348 0.962 . S
H2362 C2348 0.960 . S
H2363 C2349 0.961 . S
H2364 C2349 0.961 . S
H2365 C2349 0.961 . S
H2366 C2350 0.931 . S
H2367 C2355 0.930 . S
H2368 C2356 0.956 . S
H2369 C2356 0.961 . S
H2370 C2356 0.961 . S
H2371 C2357 0.958 . S
H2372 C2357 0.961 . S
H2373 C2357 0.960 . S
C2374 C2375 1.391 . S
C2374 C2376 1.394 . S
C2374 H2390 0.931 . S
C2375 C2374 1.391 . S
C2375 C2379 1.376 . S
C2376 C2374 1.394 . S
C2376 C2377 1.369 . S
C2376 C2380 1.531 . S
C2377 C2376 1.369 . S
C2377 C2378 1.410 . S
C2377 C2385 1.503 . S
C2378 C2377 1.410 . S
C2378 C2379 1.392 . S
C2378 C2381 1.511 . S
C2379 C2375 1.376 . S
C2379 C2378 1.392 . S
C2379 H2391 0.929 . S
C2380 C2376 1.531 . S
C2380 H2392 0.960 . S
C2380 H2393 0.962 . S
C2380 H2394 0.960 . S
C2381 C2378 1.511 . S
C2381 H2395 0.961 . S
C2381 H2396 0.961 . S
C2381 H2397 0.961 . S
C2382 C2383 1.370 . S
C2382 C2384 1.363 . S
C2382 H2398 0.931 . S
C2383 C2382 1.370 . S
C2383 C2387 1.408 . S
C2384 C2382 1.363 . S
C2384 C2385 1.370 . S
C2384 C2388 1.524 . S
C2385 C2377 1.503 . S
C2385 C2384 1.370 . S
C2385 C2386 1.403 . S
C2386 C2385 1.403 . S
C2386 C2387 1.404 . S
C2386 C2389 1.539 . S
C2387 C2383 1.408 . S
C2387 C2386 1.404 . S
C2387 H2399 0.930 . S
C2388 C2384 1.524 . S
C2388 H2400 0.956 . S
C2388 H2401 0.961 . S
C2388 H2402 0.961 . S
C2389 C2386 1.539 . S
C2389 H2403 0.958 . S
C2389 H2404 0.961 . S
C2389 H2405 0.960 . S
H2390 C2374 0.931 . S
H2391 C2379 0.929 . S
H2392 C2380 0.960 . S
H2393 C2380 0.962 . S
H2394 C2380 0.960 . S
H2395 C2381 0.961 . S
H2396 C2381 0.961 . S
H2397 C2381 0.961 . S
H2398 C2382 0.931 . S
H2399 C2387 0.930 . S
H2400 C2388 0.956 . S
H2401 C2388 0.961 . S
H2402 C2388 0.961 . S
H2403 C2389 0.958 . S
H2404 C2389 0.961 . S
H2405 C2389 0.960 . S
C2406 C2407 1.391 . S
C2406 C2408 1.394 . S
C2406 H2422 0.931 . S
C2407 C2406 1.391 . S
C2407 C2411 1.376 . S
C2408 C2406 1.394 . S
C2408 C2409 1.369 . S
C2408 C2412 1.531 . S
C2409 C2408 1.369 . S
C2409 C2410 1.410 . S
C2409 C2417 1.503 . S
C2410 C2409 1.410 . S
C2410 C2411 1.392 . S
C2410 C2413 1.511 . S
C2411 C2407 1.376 . S
C2411 C2410 1.392 . S
C2411 H2423 0.929 . S
C2412 C2408 1.531 . S
C2412 H2424 0.960 . S
C2412 H2425 0.962 . S
C2412 H2426 0.960 . S
C2413 C2410 1.511 . S
C2413 H2427 0.961 . S
C2413 H2428 0.961 . S
C2413 H2429 0.961 . S
C2414 C2415 1.370 . S
C2414 C2416 1.363 . S
C2414 H2430 0.931 . S
C2415 C2414 1.370 . S
C2415 C2419 1.408 . S
C2416 C2414 1.363 . S
C2416 C2417 1.370 . S
C2416 C2420 1.524 . S
C2417 C2409 1.503 . S
C2417 C2416 1.370 . S
C2417 C2418 1.403 . S
C2418 C2417 1.403 . S
C2418 C2419 1.404 . S
C2418 C2421 1.539 . S
C2419 C2415 1.408 . S
C2419 C2418 1.404 . S
C2419 H2431 0.930 . S
C2420 C2416 1.524 . S
C2420 H2432 0.956 . S
C2420 H2433 0.961 . S
C2420 H2434 0.961 . S
C2421 C2418 1.539 . S
C2421 H2435 0.958 . S
C2421 H2436 0.961 . S
C2421 H2437 0.960 . S
H2422 C2406 0.931 . S
H2423 C2411 0.929 . S
H2424 C2412 0.960 . S
H2425 C2412 0.962 . S
H2426 C2412 0.960 . S
H2427 C2413 0.961 . S
H2428 C2413 0.961 . S
H2429 C2413 0.961 . S
H2430 C2414 0.931 . S
H2431 C2419 0.930 . S
H2432 C2420 0.956 . S
H2433 C2420 0.961 . S
H2434 C2420 0.961 . S
H2435 C2421 0.958 . S
H2436 C2421 0.961 . S
H2437 C2421 0.960 . S
C2438 C2439 1.391 . S
C2438 C2440 1.394 . S
C2438 H2454 0.931 . S
C2439 C2438 1.391 . S
C2439 C2443 1.376 . S
C2440 C2438 1.394 . S
C2440 C2441 1.369 . S
C2440 C2444 1.531 . S
C2441 C2440 1.369 . S
C2441 C2442 1.410 . S
C2441 C2449 1.503 . S
C2442 C2441 1.410 . S
C2442 C2443 1.392 . S
C2442 C2445 1.511 . S
C2443 C2439 1.376 . S
C2443 C2442 1.392 . S
C2443 H2455 0.929 . S
C2444 C2440 1.531 . S
C2444 H2456 0.960 . S
C2444 H2457 0.962 . S
C2444 H2458 0.960 . S
C2445 C2442 1.511 . S
C2445 H2459 0.961 . S
C2445 H2460 0.961 . S
C2445 H2461 0.961 . S
C2446 C2447 1.370 . S
C2446 C2448 1.363 . S
C2446 H2462 0.931 . S
C2447 C2446 1.370 . S
C2447 C2451 1.408 . S
C2448 C2446 1.363 . S
C2448 C2449 1.370 . S
C2448 C2452 1.524 . S
C2449 C2441 1.503 . S
C2449 C2448 1.370 . S
C2449 C2450 1.403 . S
C2450 C2449 1.403 . S
C2450 C2451 1.404 . S
C2450 C2453 1.539 . S
C2451 C2447 1.408 . S
C2451 C2450 1.404 . S
C2451 H2463 0.930 . S
C2452 C2448 1.524 . S
C2452 H2464 0.956 . S
C2452 H2465 0.961 . S
C2452 H2466 0.961 . S
C2453 C2450 1.539 . S
C2453 H2467 0.958 . S
C2453 H2468 0.961 . S
C2453 H2469 0.960 . S
H2454 C2438 0.931 . S
H2455 C2443 0.929 . S
H2456 C2444 0.960 . S
H2457 C2444 0.962 . S
H2458 C2444 0.960 . S
H2459 C2445 0.961 . S
H2460 C2445 0.961 . S
H2461 C2445 0.961 . S
H2462 C2446 0.931 . S
H2463 C2451 0.930 . S
H2464 C2452 0.956 . S
H2465 C2452 0.961 . S
H2466 C2452 0.961 . S
H2467 C2453 0.958 . S
H2468 C2453 0.961 . S
H2469 C2453 0.960 . S
C2470 C2471 1.391 . S
C2470 C2472 1.394 . S
C2470 H2486 0.931 . S
C2471 C2470 1.391 . S
C2471 C2475 1.376 . S
C2472 C2470 1.394 . S
C2472 C2473 1.369 . S
C2472 C2476 1.531 . S
C2473 C2472 1.369 . S
C2473 C2474 1.410 . S
C2473 C2481 1.503 . S
C2474 C2473 1.410 . S
C2474 C2475 1.392 . S
C2474 C2477 1.511 . S
C2475 C2471 1.376 . S
C2475 C2474 1.392 . S
C2475 H2487 0.929 . S
C2476 C2472 1.531 . S
C2476 H2488 0.960 . S
C2476 H2489 0.962 . S
C2476 H2490 0.960 . S
C2477 C2474 1.511 . S
C2477 H2491 0.961 . S
C2477 H2492 0.961 . S
C2477 H2493 0.961 . S
C2478 C2479 1.370 . S
C2478 C2480 1.363 . S
C2478 H2494 0.931 . S
C2479 C2478 1.370 . S
C2479 C2483 1.408 . S
C2480 C2478 1.363 . S
C2480 C2481 1.370 . S
C2480 C2484 1.524 . S
C2481 C2473 1.503 . S
C2481 C2480 1.370 . S
C2481 C2482 1.403 . S
C2482 C2481 1.403 . S
C2482 C2483 1.404 . S
C2482 C2485 1.539 . S
C2483 C2479 1.408 . S
C2483 C2482 1.404 . S
C2483 H2495 0.930 . S
C2484 C2480 1.524 . S
C2484 H2496 0.956 . S
C2484 H2497 0.961 . S
C2484 H2498 0.961 . S
C2485 C2482 1.539 . S
C2485 H2499 0.958 . S
C2485 H2500 0.961 . S
C2485 H2501 0.960 . S
H2486 C2470 0.931 . S
H2487 C2475 0.929 . S
H2488 C2476 0.960 . S
H2489 C2476 0.962 . S
H2490 C2476 0.960 . S
H2491 C2477 0.961 . S
H2492 C2477 0.961 . S
H2493 C2477 0.961 . S
H2494 C2478 0.931 . S
H2495 C2483 0.930 . S
H2496 C2484 0.956 . S
H2497 C2484 0.961 . S
H2498 C2484 0.961 . S
H2499 C2485 0.958 . S
H2500 C2485 0.961 . S
H2501 C2485 0.960 . S
C2502 C2503 1.391 . S
C2502 C2504 1.394 . S
C2502 H2518 0.931 . S
C2503 C2502 1.391 . S
C2503 C2507 1.376 . S
C2504 C2502 1.394 . S
C2504 C2505 1.369 . S
C2504 C2508 1.531 . S
C2505 C2504 1.369 . S
C2505 C2506 1.410 . S
C2505 C2513 1.503 . S
C2506 C2505 1.410 . S
C2506 C2507 1.392 . S
C2506 C2509 1.511 . S
C2507 C2503 1.376 . S
C2507 C2506 1.392 . S
C2507 H2519 0.929 . S
C2508 C2504 1.531 . S
C2508 H2520 0.960 . S
C2508 H2521 0.962 . S
C2508 H2522 0.960 . S
C2509 C2506 1.511 . S
C2509 H2523 0.961 . S
C2509 H2524 0.961 . S
C2509 H2525 0.961 . S
C2510 C2511 1.370 . S
C2510 C2512 1.363 . S
C2510 H2526 0.931 . S
C2511 C2510 1.370 . S
C2511 C2515 1.408 . S
C2512 C2510 1.363 . S
C2512 C2513 1.370 . S
C2512 C2516 1.524 . S
C2513 C2505 1.503 . S
C2513 C2512 1.370 . S
C2513 C2514 1.403 . S
C2514 C2513 1.403 . S
C2514 C2515 1.404 . S
C2514 C2517 1.539 . S
C2515 C2511 1.408 . S
C2515 C2514 1.404 . S
C2515 H2527 0.930 . S
C2516 C2512 1.524 . S
C2516 H2528 0.956 . S
C2516 H2529 0.961 . S
C2516 H2530 0.961 . S
C2517 C2514 1.539 . S
C2517 H2531 0.958 . S
C2517 H2532 0.961 . S
C2517 H2533 0.960 . S
H2518 C2502 0.931 . S
H2519 C2507 0.929 . S
H2520 C2508 0.960 . S
H2521 C2508 0.962 . S
H2522 C2508 0.960 . S
H2523 C2509 0.961 . S
H2524 C2509 0.961 . S
H2525 C2509 0.961 . S
H2526 C2510 0.931 . S
H2527 C2515 0.930 . S
H2528 C2516 0.956 . S
H2529 C2516 0.961 . S
H2530 C2516 0.961 . S
H2531 C2517 0.958 . S
H2532 C2517 0.961 . S
H2533 C2517 0.960 . S
C2534 C2535 1.391 . S
C2534 C2536 1.394 . S
C2534 H2550 0.931 . S
C2535 C2534 1.391 . S
C2535 C2539 1.376 . S
C2536 C2534 1.394 . S
C2536 C2537 1.369 . S
C2536 C2540 1.531 . S
C2537 C2536 1.369 . S
C2537 C2538 1.410 . S
C2537 C2545 1.503 . S
C2538 C2537 1.410 . S
C2538 C2539 1.392 . S
C2538 C2541 1.511 . S
C2539 C2535 1.376 . S
C2539 C2538 1.392 . S
C2539 H2551 0.929 . S
C2540 C2536 1.531 . S
C2540 H2552 0.960 . S
C2540 H2553 0.962 . S
C2540 H2554 0.960 . S
C2541 C2538 1.511 . S
C2541 H2555 0.961 . S
C2541 H2556 0.961 . S
C2541 H2557 0.961 . S
C2542 C2543 1.370 . S
C2542 C2544 1.363 . S
C2542 H2558 0.931 . S
C2543 C2542 1.370 . S
C2543 C2547 1.408 . S
C2544 C2542 1.363 . S
C2544 C2545 1.370 . S
C2544 C2548 1.524 . S
C2545 C2537 1.503 . S
C2545 C2544 1.370 . S
C2545 C2546 1.403 . S
C2546 C2545 1.403 . S
C2546 C2547 1.404 . S
C2546 C2549 1.539 . S
C2547 C2543 1.408 . S
C2547 C2546 1.404 . S
C2547 H2559 0.930 . S
C2548 C2544 1.524 . S
C2548 H2560 0.956 . S
C2548 H2561 0.961 . S
C2548 H2562 0.961 . S
C2549 C2546 1.539 . S
C2549 H2563 0.958 . S
C2549 H2564 0.961 . S
C2549 H2565 0.960 . S
H2550 C2534 0.931 . S
H2551 C2539 0.929 . S
H2552 C2540 0.960 . S
H2553 C2540 0.962 . S
H2554 C2540 0.960 . S
H2555 C2541 0.961 . S
H2556 C2541 0.961 . S
H2557 C2541 0.961 . S
H2558 C2542 0.931 . S
H2559 C2547 0.930 . S
H2560 C2548 0.956 . S
H2561 C2548 0.961 . S
H2562 C2548 0.961 . S
H2563 C2549 0.958 . S
H2564 C2549 0.961 . S
H2565 C2549 0.960 . S
C2566 C2567 1.391 . S
C2566 C2568 1.394 . S
C2566 H2582 0.931 . S
C2567 C2566 1.391 . S
C2567 C2571 1.376 . S
C2568 C2566 1.394 . S
C2568 C2569 1.369 . S
C2568 C2572 1.531 . S
C2569 C2568 1.369 . S
C2569 C2570 1.410 . S
C2569 C2577 1.503 . S
C2570 C2569 1.410 . S
C2570 C2571 1.392 . S
C2570 C2573 1.511 . S
C2571 C2567 1.376 . S
C2571 C2570 1.392 . S
C2571 H2583 0.929 . S
C2572 C2568 1.531 . S
C2572 H2584 0.960 . S
C2572 H2585 0.962 . S
C2572 H2586 0.960 . S
C2573 C2570 1.511 . S
C2573 H2587 0.961 . S
C2573 H2588 0.961 . S
C2573 H2589 0.961 . S
C2574 C2575 1.370 . S
C2574 C2576 1.363 . S
C2574 H2590 0.931 . S
C2575 C2574 1.370 . S
C2575 C2579 1.408 . S
C2576 C2574 1.363 . S
C2576 C2577 1.370 . S
C2576 C2580 1.524 . S
C2577 C2569 1.503 . S
C2577 C2576 1.370 . S
C2577 C2578 1.403 . S
C2578 C2577 1.403 . S
C2578 C2579 1.404 . S
C2578 C2581 1.539 . S
C2579 C2575 1.408 . S
C2579 C2578 1.404 . S
C2579 H2591 0.930 . S
C2580 C2576 1.524 . S
C2580 H2592 0.956 . S
C2580 H2593 0.961 . S
C2580 H2594 0.961 . S
C2581 C2578 1.539 . S
C2581 H2595 0.958 . S
C2581 H2596 0.961 . S
C2581 H2597 0.960 . S
H2582 C2566 0.931 . S
H2583 C2571 0.929 . S
H2584 C2572 0.960 . S
H2585 C2572 0.962 . S
H2586 C2572 0.960 . S
H2587 C2573 0.961 . S
H2588 C2573 0.961 . S
H2589 C2573 0.961 . S
H2590 C2574 0.931 . S
H2591 C2579 0.930 . S
H2592 C2580 0.956 . S
H2593 C2580 0.961 . S
H2594 C2580 0.961 . S
H2595 C2581 0.958 . S
H2596 C2581 0.961 . S
H2597 C2581 0.960 . S
C2598 C2599 1.391 . S
C2598 C2600 1.394 . S
C2598 H2614 0.931 . S
C2599 C2598 1.391 . S
C2599 C2603 1.360 1_556 S
C2600 C2598 1.394 . S
C2600 C2601 1.369 . S
C2600 C2604 1.531 . S
C2601 C2600 1.369 . S
C2601 C2602 1.410 . S
C2601 C2609 1.503 . S
C2602 C2601 1.410 . S
C2602 C2603 1.381 1_556 S
C2602 C2605 1.511 1_556 S
C2603 C2599 1.360 1_554 S
C2603 C2602 1.381 1_554 S
C2603 H2615 0.957 . S
C2604 C2600 1.531 . S
C2604 H2616 0.960 . S
C2604 H2617 0.962 . S
C2604 H2618 0.960 . S
C2605 C2602 1.511 1_554 S
C2605 H2619 0.961 . S
C2605 H2620 0.961 . S
C2605 H2621 0.961 . S
C2606 C2607 1.370 . S
C2606 C2608 1.363 . S
C2606 H2622 0.931 . S
C2607 C2606 1.370 . S
C2607 C2611 1.408 . S
C2608 C2606 1.363 . S
C2608 C2609 1.370 . S
C2608 C2612 1.524 . S
C2609 C2601 1.503 . S
C2609 C2608 1.370 . S
C2609 C2610 1.403 . S
C2610 C2609 1.403 . S
C2610 C2611 1.404 . S
C2610 C2613 1.539 . S
C2611 C2607 1.408 . S
C2611 C2610 1.404 . S
C2611 H2623 0.930 . S
C2612 C2608 1.524 . S
C2612 H2624 0.956 . S
C2612 H2625 0.961 . S
C2612 H2626 0.961 . S
C2613 C2610 1.539 . S
C2613 H2627 0.958 . S
C2613 H2628 0.961 . S
C2613 H2629 0.960 . S
H2614 C2598 0.931 . S
H2615 C2603 0.957 . S
H2616 C2604 0.960 . S
H2617 C2604 0.962 . S
H2618 C2604 0.960 . S
H2619 C2605 0.961 . S
H2620 C2605 0.961 . S
H2621 C2605 0.961 . S
H2622 C2606 0.931 . S
H2623 C2611 0.930 . S
H2624 C2612 0.956 . S
H2625 C2612 0.961 . S
H2626 C2612 0.961 . S
H2627 C2613 0.958 . S
H2628 C2613 0.961 . S
H2629 C2613 0.960 . S
C2630 C2631 1.391 . S
C2630 C2632 1.394 . S
C2630 H2646 0.931 . S
C2631 C2630 1.391 . S
C2631 C2635 1.376 . S
C2632 C2630 1.394 . S
C2632 C2633 1.369 . S
C2632 C2636 1.531 . S
C2633 C2632 1.369 . S
C2633 C2634 1.410 . S
C2633 C2641 1.503 . S
C2634 C2633 1.410 . S
C2634 C2635 1.392 . S
C2634 C2637 1.511 . S
C2635 C2631 1.376 . S
C2635 C2634 1.392 . S
C2635 H2647 0.929 . S
C2636 C2632 1.531 . S
C2636 H2648 0.960 . S
C2636 H2649 0.962 . S
C2636 H2650 0.960 . S
C2637 C2634 1.511 . S
C2637 H2651 0.961 . S
C2637 H2652 0.961 . S
C2637 H2653 0.961 . S
C2638 C2639 1.370 . S
C2638 C2640 1.363 . S
C2638 H2654 0.931 . S
C2639 C2638 1.370 . S
C2639 C2643 1.408 . S
C2640 C2638 1.363 . S
C2640 C2641 1.370 . S
C2640 C2644 1.524 . S
C2641 C2633 1.503 . S
C2641 C2640 1.370 . S
C2641 C2642 1.403 . S
C2642 C2641 1.403 . S
C2642 C2643 1.404 . S
C2642 C2645 1.539 1_556 S
C2643 C2639 1.408 . S
C2643 C2642 1.404 . S
C2643 H2655 0.930 . S
C2644 C2640 1.524 . S
C2644 H2656 0.956 . S
C2644 H2657 0.961 . S
C2644 H2658 0.961 . S
C2645 C2642 1.539 1_554 S
C2645 H2659 0.958 . S
C2645 H2660 0.961 . S
C2645 H2661 0.960 . S
H2646 C2630 0.931 . S
H2647 C2635 0.929 . S
H2648 C2636 0.960 . S
H2649 C2636 0.962 . S
H2650 C2636 0.960 . S
H2651 C2637 0.961 . S
H2652 C2637 0.961 . S
H2653 C2637 0.961 . S
H2654 C2638 0.931 . S
H2655 C2643 0.930 . S
H2656 C2644 0.956 . S
H2657 C2644 0.961 . S
H2658 C2644 0.961 . S
H2659 C2645 0.958 . S
H2660 C2645 0.961 . S
H2661 C2645 0.960 . S
C2662 C2663 1.391 . S
C2662 C2664 1.394 . S
C2662 H2678 0.931 . S
C2663 C2662 1.391 . S
C2663 C2667 1.376 1_556 S
C2664 C2662 1.394 . S
C2664 C2665 1.369 . S
C2664 C2668 1.531 . S
C2665 C2664 1.369 . S
C2665 C2666 1.410 . S
C2665 C2673 1.503 . S
C2666 C2665 1.410 . S
C2666 C2667 1.392 1_556 S
C2666 C2669 1.511 1_556 S
C2667 C2663 1.376 1_554 S
C2667 C2666 1.392 1_554 S
C2667 H2679 0.929 . S
C2668 C2664 1.531 . S
C2668 H2680 0.960 . S
C2668 H2681 0.962 . S
C2668 H2682 0.960 . S
C2669 C2666 1.511 1_554 S
C2669 H2683 0.961 . S
C2669 H2684 0.961 . S
C2669 H2685 0.961 . S
C2670 C2671 1.370 . S
C2670 C2672 1.363 . S
C2670 H2686 0.931 . S
C2671 C2670 1.370 . S
C2671 C2675 1.408 . S
C2672 C2670 1.363 . S
C2672 C2673 1.370 . S
C2672 C2676 1.524 . S
C2673 C2665 1.503 . S
C2673 C2672 1.370 . S
C2673 C2674 1.403 . S
C2674 C2673 1.403 . S
C2674 C2675 1.404 . S
C2674 C2677 1.539 . S
C2675 C2671 1.408 . S
C2675 C2674 1.404 . S
C2675 H2687 0.930 . S
C2676 C2672 1.524 . S
C2676 H2688 0.956 . S
C2676 H2689 0.961 . S
C2676 H2690 0.961 . S
C2677 C2674 1.539 . S
C2677 H2691 0.958 . S
C2677 H2692 0.961 . S
C2677 H2693 0.960 . S
H2678 C2662 0.931 . S
H2679 C2667 0.929 . S
H2680 C2668 0.960 . S
H2681 C2668 0.962 . S
H2682 C2668 0.960 . S
H2683 C2669 0.961 . S
H2684 C2669 0.961 . S
H2685 C2669 0.961 . S
H2686 C2670 0.931 . S
H2687 C2675 0.930 . S
H2688 C2676 0.956 . S
H2689 C2676 0.961 . S
H2690 C2676 0.961 . S
H2691 C2677 0.958 . S
H2692 C2677 0.961 . S
H2693 C2677 0.960 . S
C2694 C2695 1.391 1_554 S
C2694 C2696 1.394 1_554 S
C2694 H2710 0.931 . S
C2695 C2694 1.391 1_556 S
C2695 C2699 1.376 . S
C2696 C2694 1.394 1_556 S
C2696 C2697 1.369 . S
C2696 C2700 1.531 1_556 S
C2697 C2696 1.369 . S
C2697 C2698 1.410 . S
C2697 C2705 1.503 . S
C2698 C2697 1.410 . S
C2698 C2699 1.392 . S
C2698 C2701 1.511 . S
C2699 C2695 1.376 . S
C2699 C2698 1.392 . S
C2699 H2711 0.929 . S
C2700 C2696 1.531 1_554 S
C2700 H2712 0.960 . S
C2700 H2713 0.962 . S
C2700 H2714 0.960 . S
C2701 C2698 1.511 . S
C2701 H2715 0.961 . S
C2701 H2716 0.961 . S
C2701 H2717 0.961 . S
C2702 C2703 1.370 . S
C2702 C2704 1.363 . S
C2702 H2718 0.931 . S
C2703 C2702 1.370 . S
C2703 C2707 1.408 . S
C2704 C2702 1.363 . S
C2704 C2705 1.370 . S
C2704 C2708 1.524 . S
C2705 C2697 1.503 . S
C2705 C2704 1.370 . S
C2705 C2706 1.403 . S
C2706 C2705 1.403 . S
C2706 C2707 1.404 . S
C2706 C2709 1.539 . S
C2707 C2703 1.408 . S
C2707 C2706 1.404 . S
C2707 H2719 0.930 . S
C2708 C2704 1.524 . S
C2708 H2720 0.956 . S
C2708 H2721 0.961 . S
C2708 H2722 0.961 . S
C2709 C2706 1.539 . S
C2709 H2723 0.958 . S
C2709 H2724 0.961 . S
C2709 H2725 0.960 . S
H2710 C2694 0.931 . S
H2711 C2699 0.929 . S
H2712 C2700 0.960 . S
H2713 C2700 0.962 . S
H2714 C2700 0.960 . S
H2715 C2701 0.961 . S
H2716 C2701 0.961 . S
H2717 C2701 0.961 . S
H2718 C2702 0.931 . S
H2719 C2707 0.930 . S
H2720 C2708 0.956 . S
H2721 C2708 0.961 . S
H2722 C2708 0.961 . S
H2723 C2709 0.958 . S
H2724 C2709 0.961 . S
H2725 C2709 0.960 . S
C2726 C2727 1.391 . S
C2726 C2728 1.394 . S
C2726 H2742 0.926 1_556 S
C2727 C2726 1.391 . S
C2727 C2731 1.376 . S
C2728 C2726 1.394 . S
C2728 C2729 1.369 . S
C2728 C2732 1.531 . S
C2729 C2728 1.369 . S
C2729 C2730 1.410 . S
C2729 C2737 1.503 . S
C2730 C2729 1.410 . S
C2730 C2731 1.392 . S
C2730 C2733 1.511 . S
C2731 C2727 1.376 . S
C2731 C2730 1.392 . S
C2731 H2743 0.929 . S
C2732 C2728 1.531 . S
C2732 H2744 0.960 . S
C2732 H2745 1.010 . S
C2732 H2746 0.960 . S
C2733 C2730 1.511 . S
C2733 H2747 0.961 . S
C2733 H2748 0.961 . S
C2733 H2749 0.961 . S
C2734 C2735 1.370 . S
C2734 C2736 1.363 . S
C2734 H2750 0.931 . S
C2735 C2734 1.370 . S
C2735 C2739 1.408 . S
C2736 C2734 1.363 . S
C2736 C2737 1.370 . S
C2736 C2740 1.524 . S
C2737 C2729 1.503 . S
C2737 C2736 1.370 . S
C2737 C2738 1.403 . S
C2738 C2737 1.403 . S
C2738 C2739 1.404 . S
C2738 C2741 1.539 . S
C2739 C2735 1.408 . S
C2739 C2738 1.404 . S
C2739 H2751 0.930 . S
C2740 C2736 1.524 . S
C2740 H2752 0.956 1_556 S
C2740 H2753 0.961 . S
C2740 H2754 0.961 1_556 S
C2741 C2738 1.539 . S
C2741 H2755 0.958 . S
C2741 H2756 0.961 . S
C2741 H2757 0.960 . S
H2742 C2726 0.926 1_554 S
H2743 C2731 0.929 . S
H2744 C2732 0.960 . S
H2745 C2732 1.010 . S
H2746 C2732 0.960 . S
H2747 C2733 0.961 . S
H2748 C2733 0.961 . S
H2749 C2733 0.961 . S
H2750 C2734 0.931 . S
H2751 C2739 0.930 . S
H2752 C2740 0.956 1_554 S
H2753 C2740 0.961 . S
H2754 C2740 0.961 1_554 S
H2755 C2741 0.958 . S
H2756 C2741 0.961 . S
H2757 C2741 0.960 . S
C2758 C2759 1.391 . S
C2758 C2760 1.394 . S
C2758 H2774 0.931 . S
C2759 C2758 1.391 . S
C2759 C2763 1.376 . S
C2760 C2758 1.394 . S
C2760 C2761 1.369 . S
C2760 C2764 1.531 . S
C2761 C2760 1.369 . S
C2761 C2762 1.410 . S
C2761 C2769 1.503 . S
C2762 C2761 1.410 . S
C2762 C2763 1.392 . S
C2762 C2765 1.492 1_556 S
C2763 C2759 1.376 . S
C2763 C2762 1.392 . S
C2763 H2775 0.929 1_556 S
C2764 C2760 1.531 . S
C2764 H2776 0.960 . S
C2764 H2777 0.962 . S
C2764 H2778 0.960 . S
C2765 C2762 1.492 1_554 S
C2765 H2779 1.003 . S
C2765 H2780 0.956 1_554 S
C2765 H2781 0.946 1_554 S
C2766 C2767 1.370 . S
C2766 C2768 1.363 . S
C2766 H2782 0.931 . S
C2767 C2766 1.370 . S
C2767 C2771 1.408 . S
C2768 C2766 1.363 . S
C2768 C2769 1.370 . S
C2768 C2772 1.524 . S
C2769 C2761 1.503 . S
C2769 C2768 1.370 . S
C2769 C2770 1.403 . S
C2770 C2769 1.403 . S
C2770 C2771 1.404 . S
C2770 C2773 1.539 . S
C2771 C2767 1.408 . S
C2771 C2770 1.404 . S
C2771 H2783 0.930 . S
C2772 C2768 1.524 . S
C2772 H2784 0.956 . S
C2772 H2785 0.961 . S
C2772 H2786 0.961 . S
C2773 C2770 1.539 . S
C2773 H2787 0.958 . S
C2773 H2788 0.961 . S
C2773 H2789 0.960 . S
H2774 C2758 0.931 . S
H2775 C2763 0.929 1_554 S
H2776 C2764 0.960 . S
H2777 C2764 0.962 . S
H2778 C2764 0.960 . S
H2779 C2765 1.003 . S
H2780 C2765 0.956 1_556 S
H2781 C2765 0.946 1_556 S
H2782 C2766 0.931 . S
H2783 C2771 0.930 . S
H2784 C2772 0.956 . S
H2785 C2772 0.961 . S
H2786 C2772 0.961 . S
H2787 C2773 0.958 . S
H2788 C2773 0.961 . S
H2789 C2773 0.960 . S
C2790 C2791 1.391 . S
C2790 C2792 1.394 . S
C2790 H2806 0.931 . S
C2791 C2790 1.391 . S
C2791 C2795 1.376 . S
C2792 C2790 1.394 . S
C2792 C2793 1.369 . S
C2792 C2796 1.531 . S
C2793 C2792 1.369 . S
C2793 C2794 1.410 . S
C2793 C2801 1.503 . S
C2794 C2793 1.410 . S
C2794 C2795 1.392 . S
C2794 C2797 1.511 . S
C2795 C2791 1.376 . S
C2795 C2794 1.392 . S
C2795 H2807 0.929 . S
C2796 C2792 1.531 . S
C2796 H2808 0.960 . S
C2796 H2809 0.962 . S
C2796 H2810 0.960 . S
C2797 C2794 1.511 . S
C2797 H2811 0.961 . S
C2797 H2812 0.961 . S
C2797 H2813 0.961 . S
C2798 C2799 1.370 . S
C2798 C2800 1.363 . S
C2798 H2814 0.931 . S
C2799 C2798 1.370 . S
C2799 C2803 1.408 . S
C2800 C2798 1.363 . S
C2800 C2801 1.370 . S
C2800 C2804 1.524 . S
C2801 C2793 1.503 . S
C2801 C2800 1.370 . S
C2801 C2802 1.403 . S
C2802 C2801 1.403 . S
C2802 C2803 1.404 . S
C2802 C2805 1.539 . S
C2803 C2799 1.408 . S
C2803 C2802 1.404 . S
C2803 H2815 0.930 . S
C2804 C2800 1.524 . S
C2804 H2816 0.956 . S
C2804 H2817 0.961 . S
C2804 H2818 0.961 . S
C2805 C2802 1.539 . S
C2805 H2819 0.958 . S
C2805 H2820 0.961 . S
C2805 H2821 0.960 . S
H2806 C2790 0.931 . S
H2807 C2795 0.929 . S
H2808 C2796 0.960 . S
H2809 C2796 0.962 . S
H2810 C2796 0.960 . S
H2811 C2797 0.961 . S
H2812 C2797 0.961 . S
H2813 C2797 0.961 . S
H2814 C2798 0.931 . S
H2815 C2803 0.930 . S
H2816 C2804 0.956 . S
H2817 C2804 0.961 . S
H2818 C2804 0.961 . S
H2819 C2805 0.958 . S
H2820 C2805 0.961 . S
H2821 C2805 0.960 . S
C2822 C2823 1.391 . S
C2822 C2824 1.394 . S
C2822 H2838 0.931 . S
C2823 C2822 1.391 . S
C2823 C2827 1.376 . S
C2824 C2822 1.394 . S
C2824 C2825 1.369 . S
C2824 C2828 1.531 . S
C2825 C2824 1.369 . S
C2825 C2826 1.410 . S
C2825 C2833 1.503 . S
C2826 C2825 1.410 . S
C2826 C2827 1.392 . S
C2826 C2829 1.511 . S
C2827 C2823 1.376 . S
C2827 C2826 1.392 . S
C2827 H2839 0.929 . S
C2828 C2824 1.531 . S
C2828 H2840 0.960 . S
C2828 H2841 0.962 . S
C2828 H2842 0.960 . S
C2829 C2826 1.511 . S
C2829 H2843 0.961 . S
C2829 H2844 0.961 . S
C2829 H2845 0.961 . S
C2830 C2831 1.370 . S
C2830 C2832 1.363 . S
C2830 H2846 0.931 . S
C2831 C2830 1.370 . S
C2831 C2835 1.408 . S
C2832 C2830 1.363 . S
C2832 C2833 1.370 . S
C2832 C2836 1.524 . S
C2833 C2825 1.503 . S
C2833 C2832 1.370 . S
C2833 C2834 1.403 . S
C2834 C2833 1.403 . S
C2834 C2835 1.404 . S
C2834 C2837 1.539 . S
C2835 C2831 1.408 . S
C2835 C2834 1.404 . S
C2835 H2847 0.930 . S
C2836 C2832 1.524 . S
C2836 H2848 0.956 . S
C2836 H2849 0.961 . S
C2836 H2850 0.961 . S
C2837 C2834 1.539 . S
C2837 H2851 0.958 . S
C2837 H2852 0.961 . S
C2837 H2853 0.960 . S
H2838 C2822 0.931 . S
H2839 C2827 0.929 . S
H2840 C2828 0.960 . S
H2841 C2828 0.962 . S
H2842 C2828 0.960 . S
H2843 C2829 0.961 . S
H2844 C2829 0.961 . S
H2845 C2829 0.961 . S
H2846 C2830 0.931 . S
H2847 C2835 0.930 . S
H2848 C2836 0.956 . S
H2849 C2836 0.961 . S
H2850 C2836 0.961 . S
H2851 C2837 0.958 . S
H2852 C2837 0.961 . S
H2853 C2837 0.960 . S
C2854 C2855 1.391 . S
C2854 C2856 1.394 . S
C2854 H2870 0.931 . S
C2855 C2854 1.391 . S
C2855 C2859 1.376 . S
C2856 C2854 1.394 . S
C2856 C2857 1.369 . S
C2856 C2860 1.531 . S
C2857 C2856 1.369 . S
C2857 C2858 1.410 . S
C2857 C2865 1.503 . S
C2858 C2857 1.410 . S
C2858 C2859 1.392 . S
C2858 C2861 1.511 . S
C2859 C2855 1.376 . S
C2859 C2858 1.392 . S
C2859 H2871 0.929 . S
C2860 C2856 1.531 . S
C2860 H2872 0.960 . S
C2860 H2873 0.962 . S
C2860 H2874 0.960 . S
C2861 C2858 1.511 . S
C2861 H2875 0.961 . S
C2861 H2876 0.961 . S
C2861 H2877 0.961 . S
C2862 C2863 1.370 . S
C2862 C2864 1.363 . S
C2862 H2878 0.931 . S
C2863 C2862 1.370 . S
C2863 C2867 1.408 . S
C2864 C2862 1.363 . S
C2864 C2865 1.370 . S
C2864 C2868 1.524 . S
C2865 C2857 1.503 . S
C2865 C2864 1.370 . S
C2865 C2866 1.403 . S
C2866 C2865 1.403 . S
C2866 C2867 1.404 . S
C2866 C2869 1.539 . S
C2867 C2863 1.408 . S
C2867 C2866 1.404 . S
C2867 H2879 0.930 . S
C2868 C2864 1.524 . S
C2868 H2880 0.956 . S
C2868 H2881 0.961 . S
C2868 H2882 0.961 . S
C2869 C2866 1.539 . S
C2869 H2883 0.958 . S
C2869 H2884 0.961 . S
C2869 H2885 0.960 . S
H2870 C2854 0.931 . S
H2871 C2859 0.929 . S
H2872 C2860 0.960 . S
H2873 C2860 0.962 . S
H2874 C2860 0.960 . S
H2875 C2861 0.961 . S
H2876 C2861 0.961 . S
H2877 C2861 0.961 . S
H2878 C2862 0.931 . S
H2879 C2867 0.930 . S
H2880 C2868 0.956 . S
H2881 C2868 0.961 . S
H2882 C2868 0.961 . S
H2883 C2869 0.958 . S
H2884 C2869 0.961 . S
H2885 C2869 0.960 . S
C2886 C2887 1.391 . S
C2886 C2888 1.394 . S
C2886 H2902 0.931 . S
C2887 C2886 1.391 . S
C2887 C2891 1.376 . S
C2888 C2886 1.394 . S
C2888 C2889 1.369 . S
C2888 C2892 1.531 . S
C2889 C2888 1.369 . S
C2889 C2890 1.410 . S
C2889 C2897 1.503 . S
C2890 C2889 1.410 . S
C2890 C2891 1.392 . S
C2890 C2893 1.511 . S
C2891 C2887 1.376 . S
C2891 C2890 1.392 . S
C2891 H2903 0.929 . S
C2892 C2888 1.531 . S
C2892 H2904 0.960 . S
C2892 H2905 0.962 . S
C2892 H2906 0.960 . S
C2893 C2890 1.511 . S
C2893 H2907 0.961 . S
C2893 H2908 0.961 . S
C2893 H2909 0.961 . S
C2894 C2895 1.370 . S
C2894 C2896 1.363 . S
C2894 H2910 0.931 . S
C2895 C2894 1.370 . S
C2895 C2899 1.408 . S
C2896 C2894 1.363 . S
C2896 C2897 1.370 . S
C2896 C2900 1.524 . S
C2897 C2889 1.503 . S
C2897 C2896 1.370 . S
C2897 C2898 1.403 . S
C2898 C2897 1.403 . S
C2898 C2899 1.404 . S
C2898 C2901 1.539 . S
C2899 C2895 1.408 . S
C2899 C2898 1.404 . S
C2899 H2911 0.930 . S
C2900 C2896 1.524 . S
C2900 H2912 0.956 . S
C2900 H2913 0.961 . S
C2900 H2914 0.961 . S
C2901 C2898 1.539 . S
C2901 H2915 0.958 . S
C2901 H2916 0.961 . S
C2901 H2917 0.960 . S
H2902 C2886 0.931 . S
H2903 C2891 0.929 . S
H2904 C2892 0.960 . S
H2905 C2892 0.962 . S
H2906 C2892 0.960 . S
H2907 C2893 0.961 . S
H2908 C2893 0.961 . S
H2909 C2893 0.961 . S
H2910 C2894 0.931 . S
H2911 C2899 0.930 . S
H2912 C2900 0.956 . S
H2913 C2900 0.961 . S
H2914 C2900 0.961 . S
H2915 C2901 0.958 . S
H2916 C2901 0.961 . S
H2917 C2901 0.960 . S
C2918 C2919 1.391 . S
C2918 C2920 1.394 . S
C2918 H2934 0.931 . S
C2919 C2918 1.391 . S
C2919 C2923 1.376 . S
C2920 C2918 1.394 . S
C2920 C2921 1.369 . S
C2920 C2924 1.531 . S
C2921 C2920 1.369 . S
C2921 C2922 1.410 . S
C2921 C2929 1.503 . S
C2922 C2921 1.410 . S
C2922 C2923 1.392 . S
C2922 C2925 1.511 . S
C2923 C2919 1.376 . S
C2923 C2922 1.392 . S
C2923 H2935 0.929 . S
C2924 C2920 1.531 . S
C2924 H2936 0.960 . S
C2924 H2937 0.962 . S
C2924 H2938 0.960 . S
C2925 C2922 1.511 . S
C2925 H2939 0.961 . S
C2925 H2940 0.961 . S
C2925 H2941 0.961 . S
C2926 C2927 1.370 . S
C2926 C2928 1.363 . S
C2926 H2942 0.931 . S
C2927 C2926 1.370 . S
C2927 C2931 1.408 . S
C2928 C2926 1.363 . S
C2928 C2929 1.370 . S
C2928 C2932 1.524 . S
C2929 C2921 1.503 . S
C2929 C2928 1.370 . S
C2929 C2930 1.403 . S
C2930 C2929 1.403 . S
C2930 C2931 1.404 . S
C2930 C2933 1.539 . S
C2931 C2927 1.408 . S
C2931 C2930 1.404 . S
C2931 H2943 0.930 . S
C2932 C2928 1.524 . S
C2932 H2944 0.956 . S
C2932 H2945 0.961 . S
C2932 H2946 0.961 . S
C2933 C2930 1.539 . S
C2933 H2947 0.958 . S
C2933 H2948 0.961 . S
C2933 H2949 0.960 . S
H2934 C2918 0.931 . S
H2935 C2923 0.929 . S
H2936 C2924 0.960 . S
H2937 C2924 0.962 . S
H2938 C2924 0.960 . S
H2939 C2925 0.961 . S
H2940 C2925 0.961 . S
H2941 C2925 0.961 . S
H2942 C2926 0.931 . S
H2943 C2931 0.930 . S
H2944 C2932 0.956 . S
H2945 C2932 0.961 . S
H2946 C2932 0.961 . S
H2947 C2933 0.958 . S
H2948 C2933 0.961 . S
H2949 C2933 0.960 . S
C2950 C2951 1.391 . S
C2950 C2952 1.394 . S
C2950 H2966 0.931 . S
C2951 C2950 1.391 . S
C2951 C2955 1.395 . S
C2952 C2950 1.394 . S
C2952 C2953 1.369 . S
C2952 C2956 1.531 . S
C2953 C2952 1.369 . S
C2953 C2954 1.410 . S
C2953 C2961 1.503 . S
C2954 C2953 1.410 . S
C2954 C2955 1.425 . S
C2954 C2957 1.511 . S
C2955 C2951 1.395 . S
C2955 C2954 1.425 . S
C2955 H2967 0.881 1_655 S
C2956 C2952 1.531 . S
C2956 H2968 0.960 . S
C2956 H2969 0.962 . S
C2956 H2970 0.960 . S
C2957 C2954 1.511 . S
C2957 H2971 0.961 . S
C2957 H2972 0.961 . S
C2957 H2973 0.961 . S
C2958 C2959 1.370 . S
C2958 C2960 1.363 . S
C2958 H2974 0.931 . S
C2959 C2958 1.370 . S
C2959 C2963 1.408 . S
C2960 C2958 1.363 . S
C2960 C2961 1.370 . S
C2960 C2964 1.524 . S
C2961 C2953 1.503 . S
C2961 C2960 1.370 . S
C2961 C2962 1.403 . S
C2962 C2961 1.403 . S
C2962 C2963 1.404 . S
C2962 C2965 1.539 . S
C2963 C2959 1.408 . S
C2963 C2962 1.404 . S
C2963 H2975 0.930 . S
C2964 C2960 1.524 . S
C2964 H2976 0.956 . S
C2964 H2977 0.961 . S
C2964 H2978 0.961 . S
C2965 C2962 1.539 . S
C2965 H2979 0.958 . S
C2965 H2980 0.961 . S
C2965 H2981 0.960 . S
H2966 C2950 0.931 . S
H2967 C2955 0.881 1_455 S
H2968 C2956 0.960 . S
H2969 C2956 0.962 . S
H2970 C2956 0.960 . S
H2971 C2957 0.961 . S
H2972 C2957 0.961 . S
H2973 C2957 0.961 . S
H2974 C2958 0.931 . S
H2975 C2963 0.930 . S
H2976 C2964 0.956 . S
H2977 C2964 0.961 . S
H2978 C2964 0.961 . S
H2979 C2965 0.958 . S
H2980 C2965 0.961 . S
H2981 C2965 0.960 . S
C2982 C2983 1.391 . S
C2982 C2984 1.394 . S
C2982 H2998 0.931 . S
C2983 C2982 1.391 . S
C2983 C2987 1.376 . S
C2984 C2982 1.394 . S
C2984 C2985 1.369 . S
C2984 C2988 1.531 . S
C2985 C2984 1.369 . S
C2985 C2986 1.410 . S
C2985 C2993 1.503 . S
C2986 C2985 1.410 . S
C2986 C2987 1.392 . S
C2986 C2989 1.511 . S
C2987 C2983 1.376 . S
C2987 C2986 1.392 . S
C2987 H2999 0.929 . S
C2988 C2984 1.531 . S
C2988 H3000 0.960 . S
C2988 H3001 0.962 . S
C2988 H3002 0.960 . S
C2989 C2986 1.511 . S
C2989 H3003 0.961 . S
C2989 H3004 0.961 . S
C2989 H3005 0.961 . S
C2990 C2991 1.370 . S
C2990 C2992 1.363 . S
C2990 H3006 0.931 . S
C2991 C2990 1.370 . S
C2991 C2995 1.408 . S
C2992 C2990 1.363 . S
C2992 C2993 1.370 . S
C2992 C2996 1.524 . S
C2993 C2985 1.503 . S
C2993 C2992 1.370 . S
C2993 C2994 1.403 . S
C2994 C2993 1.403 . S
C2994 C2995 1.404 . S
C2994 C2997 1.539 1_455 S
C2995 C2991 1.408 . S
C2995 C2994 1.404 . S
C2995 H3007 0.930 . S
C2996 C2992 1.524 . S
C2996 H3008 0.956 . S
C2996 H3009 0.961 . S
C2996 H3010 0.961 . S
C2997 C2994 1.539 1_655 S
C2997 H3011 0.958 . S
C2997 H3012 0.961 . S
C2997 H3013 0.960 . S
H2998 C2982 0.931 . S
H2999 C2987 0.929 . S
H3000 C2988 0.960 . S
H3001 C2988 0.962 . S
H3002 C2988 0.960 . S
H3003 C2989 0.961 . S
H3004 C2989 0.961 . S
H3005 C2989 0.961 . S
H3006 C2990 0.931 . S
H3007 C2995 0.930 . S
H3008 C2996 0.956 . S
H3009 C2996 0.961 . S
H3010 C2996 0.961 . S
H3011 C2997 0.958 . S
H3012 C2997 0.961 . S
H3013 C2997 0.960 . S
C3014 C3015 1.391 . S
C3014 C3016 1.394 . S
C3014 H3030 0.931 . S
C3015 C3014 1.391 . S
C3015 C3019 1.376 . S
C3016 C3014 1.394 . S
C3016 C3017 1.369 . S
C3016 C3020 1.531 . S
C3017 C3016 1.369 . S
C3017 C3018 1.410 . S
C3017 C3025 1.503 . S
C3018 C3017 1.410 . S
C3018 C3019 1.392 . S
C3018 C3021 1.511 . S
C3019 C3015 1.376 . S
C3019 C3018 1.392 . S
C3019 H3031 0.929 . S
C3020 C3016 1.531 . S
C3020 H3032 0.960 . S
C3020 H3033 0.962 . S
C3020 H3034 0.960 . S
C3021 C3018 1.511 . S
C3021 H3035 0.961 . S
C3021 H3036 0.961 . S
C3021 H3037 0.961 . S
C3022 C3023 1.370 . S
C3022 C3024 1.363 . S
C3022 H3038 0.931 . S
C3023 C3022 1.370 . S
C3023 C3027 1.408 . S
C3024 C3022 1.363 . S
C3024 C3025 1.370 . S
C3024 C3028 1.524 . S
C3025 C3017 1.503 . S
C3025 C3024 1.370 . S
C3025 C3026 1.403 . S
C3026 C3025 1.403 . S
C3026 C3027 1.404 . S
C3026 C3029 1.539 . S
C3027 C3023 1.408 . S
C3027 C3026 1.404 . S
C3027 H3039 0.930 . S
C3028 C3024 1.524 . S
C3028 H3040 0.956 . S
C3028 H3041 0.961 . S
C3028 H3042 0.961 . S
C3029 C3026 1.539 . S
C3029 H3043 0.958 . S
C3029 H3044 0.961 . S
C3029 H3045 0.960 . S
H3030 C3014 0.931 . S
H3031 C3019 0.929 . S
H3032 C3020 0.960 . S
H3033 C3020 0.962 . S
H3034 C3020 0.960 . S
H3035 C3021 0.961 . S
H3036 C3021 0.961 . S
H3037 C3021 0.961 . S
H3038 C3022 0.931 . S
H3039 C3027 0.930 . S
H3040 C3028 0.956 . S
H3041 C3028 0.961 . S
H3042 C3028 0.961 . S
H3043 C3029 0.958 . S
H3044 C3029 0.961 . S
H3045 C3029 0.960 . S
C3046 C3047 1.391 1_545 S
C3046 C3048 1.394 . S
C3046 H3062 0.931 . S
C3047 C3046 1.391 1_565 S
C3047 C3051 1.376 . S
C3048 C3046 1.394 . S
C3048 C3049 1.369 1_545 S
C3048 C3052 1.531 . S
C3049 C3048 1.369 1_565 S
C3049 C3050 1.410 . S
C3049 C3057 1.503 . S
C3050 C3049 1.410 . S
C3050 C3051 1.392 . S
C3050 C3053 1.511 . S
C3051 C3047 1.376 . S
C3051 C3050 1.392 . S
C3051 H3063 0.929 . S
C3052 C3048 1.531 . S
C3052 H3064 0.960 . S
C3052 H3065 0.962 . S
C3052 H3066 0.960 . S
C3053 C3050 1.511 . S
C3053 H3067 0.961 . S
C3053 H3068 0.961 . S
C3053 H3069 0.961 . S
C3054 C3055 1.370 . S
C3054 C3056 1.363 . S
C3054 H3070 0.931 1_565 S
C3055 C3054 1.370 . S
C3055 C3059 1.408 . S
C3056 C3054 1.363 . S
C3056 C3057 1.370 . S
C3056 C3060 1.500 1_565 S
C3057 C3049 1.503 . S
C3057 C3056 1.370 . S
C3057 C3058 1.403 . S
C3058 C3057 1.403 . S
C3058 C3059 1.404 . S
C3058 C3061 1.539 . S
C3059 C3055 1.408 . S
C3059 C3058 1.404 . S
C3059 H3071 0.930 . S
C3060 C3056 1.500 1_545 S
C3060 H3072 0.993 . S
C3060 H3073 0.947 1_545 S
C3060 H3074 0.963 . S
C3061 C3058 1.539 . S
C3061 H3075 0.958 . S
C3061 H3076 0.961 . S
C3061 H3077 0.960 . S
H3062 C3046 0.931 . S
H3063 C3051 0.929 . S
H3064 C3052 0.960 . S
H3065 C3052 0.962 . S
H3066 C3052 0.960 . S
H3067 C3053 0.961 . S
H3068 C3053 0.961 . S
H3069 C3053 0.961 . S
H3070 C3054 0.931 1_545 S
H3071 C3059 0.930 . S
H3072 C3060 0.993 . S
H3073 C3060 0.947 1_565 S
H3074 C3060 0.963 . S
H3075 C3061 0.958 . S
H3076 C3061 0.961 . S
H3077 C3061 0.960 . S
C3078 C3079 1.391 . S
C3078 C3080 1.394 . S
C3078 H3094 0.931 . S
C3079 C3078 1.391 . S
C3079 C3083 1.439 . S
C3080 C3078 1.394 . S
C3080 C3081 1.369 . S
C3080 C3084 1.531 . S
C3081 C3080 1.369 . S
C3081 C3082 1.407 . S
C3081 C3089 1.503 . S
C3082 C3081 1.407 . S
C3082 C3083 1.356 . S
C3082 C3085 1.517 1_565 S
C3083 C3079 1.439 . S
C3083 C3082 1.356 . S
C3083 H3095 0.902 1_565 S
C3084 C3080 1.531 . S
C3084 H3096 0.960 . S
C3084 H3097 0.962 . S
C3084 H3098 0.960 . S
C3085 C3082 1.517 1_545 S
C3085 H3099 0.961 . S
C3085 H3100 0.961 . S
C3085 H3101 0.961 . S
C3086 C3087 1.365 . S
C3086 C3088 1.398 . S
C3086 H3102 0.904 1_565 S
C3087 C3086 1.365 . S
C3087 C3091 1.408 . S
C3088 C3086 1.398 . S
C3088 C3089 1.370 . S
C3088 C3092 1.524 1_565 S
C3089 C3081 1.503 . S
C3089 C3088 1.370 . S
C3089 C3090 1.403 . S
C3090 C3089 1.403 . S
C3090 C3091 1.404 . S
C3090 C3093 1.539 . S
C3091 C3087 1.408 . S
C3091 C3090 1.404 . S
C3091 H3103 0.930 . S
C3092 C3088 1.524 1_545 S
C3092 H3104 0.956 1_545 S
C3092 H3105 0.961 . S
C3092 H3106 0.961 . S
C3093 C3090 1.539 . S
C3093 H3107 0.958 . S
C3093 H3108 0.961 . S
C3093 H3109 0.960 . S
H3094 C3078 0.931 . S
H3095 C3083 0.902 1_545 S
H3096 C3084 0.960 . S
H3097 C3084 0.962 . S
H3098 C3084 0.960 . S
H3099 C3085 0.961 . S
H3100 C3085 0.961 . S
H3101 C3085 0.961 . S
H3102 C3086 0.904 1_545 S
H3103 C3091 0.930 . S
H3104 C3092 0.956 1_565 S
H3105 C3092 0.961 . S
H3106 C3092 0.961 . S
H3107 C3093 0.958 . S
H3108 C3093 0.961 . S
H3109 C3093 0.960 . S
C3110 C3111 1.391 . S
C3110 C3112 1.394 . S
C3110 H3126 0.931 . S
C3111 C3110 1.391 . S
C3111 C3115 1.376 . S
C3112 C3110 1.394 . S
C3112 C3113 1.369 . S
C3112 C3116 1.531 . S
C3113 C3112 1.369 . S
C3113 C3114 1.410 . S
C3113 C3121 1.503 . S
C3114 C3113 1.410 . S
C3114 C3115 1.392 . S
C3114 C3117 1.511 . S
C3115 C3111 1.376 . S
C3115 C3114 1.392 . S
C3115 H3127 0.929 . S
C3116 C3112 1.531 . S
C3116 H3128 0.960 . S
C3116 H3129 0.962 . S
C3116 H3130 0.960 . S
C3117 C3114 1.511 . S
C3117 H3131 0.961 1_455 S
C3117 H3132 0.961 . S
C3117 H3133 0.950 . S
C3118 C3119 1.370 . S
C3118 C3120 1.363 . S
C3118 H3134 0.931 . S
C3119 C3118 1.370 . S
C3119 C3123 1.408 . S
C3120 C3118 1.363 . S
C3120 C3121 1.370 . S
C3120 C3124 1.524 . S
C3121 C3113 1.503 . S
C3121 C3120 1.370 . S
C3121 C3122 1.403 . S
C3122 C3121 1.403 . S
C3122 C3123 1.404 . S
C3122 C3125 1.539 . S
C3123 C3119 1.408 . S
C3123 C3122 1.404 . S
C3123 H3135 0.930 . S
C3124 C3120 1.524 . S
C3124 H3136 0.956 . S
C3124 H3137 0.961 . S
C3124 H3138 0.961 . S
C3125 C3122 1.539 . S
C3125 H3139 0.958 . S
C3125 H3140 0.961 . S
C3125 H3141 0.960 . S
H3126 C3110 0.931 . S
H3127 C3115 0.929 . S
H3128 C3116 0.960 . S
H3129 C3116 0.962 . S
H3130 C3116 0.960 . S
H3131 C3117 0.961 1_655 S
H3132 C3117 0.961 . S
H3133 C3117 0.950 . S
H3134 C3118 0.931 . S
H3135 C3123 0.930 . S
H3136 C3124 0.956 . S
H3137 C3124 0.961 . S
H3138 C3124 0.961 . S
H3139 C3125 0.958 . S
H3140 C3125 0.961 . S
H3141 C3125 0.960 . S
C3142 C3143 1.391 . S
C3142 C3144 1.394 . S
C3142 H3158 0.931 . S
C3143 C3142 1.391 . S
C3143 C3147 1.376 . S
C3144 C3142 1.394 . S
C3144 C3145 1.369 . S
C3144 C3148 1.531 . S
C3145 C3144 1.369 . S
C3145 C3146 1.410 . S
C3145 C3153 1.503 . S
C3146 C3145 1.410 . S
C3146 C3147 1.392 . S
C3146 C3149 1.511 . S
C3147 C3143 1.376 . S
C3147 C3146 1.392 . S
C3147 H3159 0.929 . S
C3148 C3144 1.531 . S
C3148 H3160 0.960 . S
C3148 H3161 0.962 . S
C3148 H3162 0.960 . S
C3149 C3146 1.511 . S
C3149 H3163 0.961 . S
C3149 H3164 0.961 . S
C3149 H3165 0.961 . S
C3150 C3151 1.370 . S
C3150 C3152 1.363 . S
C3150 H3166 0.931 . S
C3151 C3150 1.370 . S
C3151 C3155 1.408 . S
C3152 C3150 1.363 . S
C3152 C3153 1.370 . S
C3152 C3156 1.524 . S
C3153 C3145 1.503 . S
C3153 C3152 1.370 . S
C3153 C3154 1.403 . S
C3154 C3153 1.403 . S
C3154 C3155 1.404 . S
C3154 C3157 1.539 . S
C3155 C3151 1.408 . S
C3155 C3154 1.404 . S
C3155 H3167 0.930 . S
C3156 C3152 1.524 . S
C3156 H3168 0.956 . S
C3156 H3169 0.961 . S
C3156 H3170 0.961 . S
C3157 C3154 1.539 . S
C3157 H3171 0.958 . S
C3157 H3172 0.961 . S
C3157 H3173 0.960 . S
H3158 C3142 0.931 . S
H3159 C3147 0.929 . S
H3160 C3148 0.960 . S
H3161 C3148 0.962 . S
H3162 C3148 0.960 . S
H3163 C3149 0.961 . S
H3164 C3149 0.961 . S
H3165 C3149 0.961 . S
H3166 C3150 0.931 . S
H3167 C3155 0.930 . S
H3168 C3156 0.956 . S
H3169 C3156 0.961 . S
H3170 C3156 0.961 . S
H3171 C3157 0.958 . S
H3172 C3157 0.961 . S
H3173 C3157 0.960 . S
C3174 C3175 1.391 . S
C3174 C3176 1.394 . S
C3174 H3190 0.931 . S
C3175 C3174 1.391 . S
C3175 C3179 1.376 . S
C3176 C3174 1.394 . S
C3176 C3177 1.369 . S
C3176 C3180 1.531 . S
C3177 C3176 1.369 . S
C3177 C3178 1.410 . S
C3177 C3185 1.503 . S
C3178 C3177 1.410 . S
C3178 C3179 1.392 . S
C3178 C3181 1.511 . S
C3179 C3175 1.376 . S
C3179 C3178 1.392 . S
C3179 H3191 0.929 . S
C3180 C3176 1.531 . S
C3180 H3192 0.960 . S
C3180 H3193 0.962 . S
C3180 H3194 0.960 . S
C3181 C3178 1.511 . S
C3181 H3195 0.961 . S
C3181 H3196 0.961 . S
C3181 H3197 0.961 . S
C3182 C3183 1.370 . S
C3182 C3184 1.363 . S
C3182 H3198 0.931 . S
C3183 C3182 1.370 . S
C3183 C3187 1.408 . S
C3184 C3182 1.363 . S
C3184 C3185 1.370 . S
C3184 C3188 1.524 . S
C3185 C3177 1.503 . S
C3185 C3184 1.370 . S
C3185 C3186 1.403 . S
C3186 C3185 1.403 . S
C3186 C3187 1.404 . S
C3186 C3189 1.539 . S
C3187 C3183 1.408 . S
C3187 C3186 1.404 . S
C3187 H3199 0.930 . S
C3188 C3184 1.524 . S
C3188 H3200 0.956 . S
C3188 H3201 0.961 . S
C3188 H3202 0.961 . S
C3189 C3186 1.539 . S
C3189 H3203 0.958 . S
C3189 H3204 0.961 . S
C3189 H3205 0.960 . S
H3190 C3174 0.931 . S
H3191 C3179 0.929 . S
H3192 C3180 0.960 . S
H3193 C3180 0.962 . S
H3194 C3180 0.960 . S
H3195 C3181 0.961 . S
H3196 C3181 0.961 . S
H3197 C3181 0.961 . S
H3198 C3182 0.931 . S
H3199 C3187 0.930 . S
H3200 C3188 0.956 . S
H3201 C3188 0.961 . S
H3202 C3188 0.961 . S
H3203 C3189 0.958 . S
H3204 C3189 0.961 . S
H3205 C3189 0.960 . S
C3206 C3207 1.391 . S
C3206 C3208 1.394 . S
C3206 H3222 0.931 . S
C3207 C3206 1.391 . S
C3207 C3211 1.376 . S
C3208 C3206 1.394 . S
C3208 C3209 1.369 . S
C3208 C3212 1.531 . S
C3209 C3208 1.369 . S
C3209 C3210 1.410 . S
C3209 C3217 1.503 . S
C3210 C3209 1.410 . S
C3210 C3211 1.392 . S
C3210 C3213 1.511 . S
C3211 C3207 1.376 . S
C3211 C3210 1.392 . S
C3211 H3223 0.929 . S
C3212 C3208 1.531 . S
C3212 H3224 0.960 . S
C3212 H3225 0.962 . S
C3212 H3226 0.960 . S
C3213 C3210 1.511 . S
C3213 H3227 0.961 . S
C3213 H3228 0.961 . S
C3213 H3229 0.961 . S
C3214 C3215 1.370 . S
C3214 C3216 1.363 . S
C3214 H3230 0.931 . S
C3215 C3214 1.370 . S
C3215 C3219 1.408 . S
C3216 C3214 1.363 . S
C3216 C3217 1.370 . S
C3216 C3220 1.524 . S
C3217 C3209 1.503 . S
C3217 C3216 1.370 . S
C3217 C3218 1.403 . S
C3218 C3217 1.403 . S
C3218 C3219 1.404 . S
C3218 C3221 1.539 . S
C3219 C3215 1.408 . S
C3219 C3218 1.404 . S
C3219 H3231 0.930 . S
C3220 C3216 1.524 . S
C3220 H3232 0.956 . S
C3220 H3233 0.961 . S
C3220 H3234 0.961 . S
C3221 C3218 1.539 . S
C3221 H3235 0.958 . S
C3221 H3236 0.961 . S
C3221 H3237 0.960 . S
H3222 C3206 0.931 . S
H3223 C3211 0.929 . S
H3224 C3212 0.960 . S
H3225 C3212 0.962 . S
H3226 C3212 0.960 . S
H3227 C3213 0.961 . S
H3228 C3213 0.961 . S
H3229 C3213 0.961 . S
H3230 C3214 0.931 . S
H3231 C3219 0.930 . S
H3232 C3220 0.956 . S
H3233 C3220 0.961 . S
H3234 C3220 0.961 . S
H3235 C3221 0.958 . S
H3236 C3221 0.961 . S
H3237 C3221 0.960 . S
C3238 C3239 1.379 . S
C3238 C3240 1.447 . S
C3238 H3254 0.892 1_655 S
C3239 C3238 1.379 . S
C3239 C3243 1.376 . S
C3240 C3238 1.447 . S
C3240 C3241 1.369 . S
C3240 C3244 1.531 . S
C3241 C3240 1.369 . S
C3241 C3242 1.410 . S
C3241 C3249 1.503 . S
C3242 C3241 1.410 . S
C3242 C3243 1.392 . S
C3242 C3245 1.511 . S
C3243 C3239 1.376 . S
C3243 C3242 1.392 . S
C3243 H3255 0.929 . S
C3244 C3240 1.531 . S
C3244 H3256 0.960 . S
C3244 H3257 0.962 . S
C3244 H3258 0.960 . S
C3245 C3242 1.511 . S
C3245 H3259 0.961 . S
C3245 H3260 0.961 . S
C3245 H3261 0.961 . S
C3246 C3247 1.370 . S
C3246 C3248 1.363 . S
C3246 H3262 0.931 . S
C3247 C3246 1.370 . S
C3247 C3251 1.408 . S
C3248 C3246 1.363 . S
C3248 C3249 1.370 . S
C3248 C3252 1.524 . S
C3249 C3241 1.503 . S
C3249 C3248 1.370 . S
C3249 C3250 1.403 . S
C3250 C3249 1.403 . S
C3250 C3251 1.404 . S
C3250 C3253 1.539 . S
C3251 C3247 1.408 . S
C3251 C3250 1.404 . S
C3251 H3263 0.930 . S
C3252 C3248 1.524 . S
C3252 H3264 0.956 . S
C3252 H3265 0.961 . S
C3252 H3266 0.961 . S
C3253 C3250 1.539 . S
C3253 H3267 0.958 . S
C3253 H3268 0.961 . S
C3253 H3269 0.960 . S
H3254 C3238 0.892 1_455 S
H3255 C3243 0.929 . S
H3256 C3244 0.960 . S
H3257 C3244 0.962 . S
H3258 C3244 0.960 . S
H3259 C3245 0.961 . S
H3260 C3245 0.961 . S
H3261 C3245 0.961 . S
H3262 C3246 0.931 . S
H3263 C3251 0.930 . S
H3264 C3252 0.956 . S
H3265 C3252 0.961 . S
H3266 C3252 0.961 . S
H3267 C3253 0.958 . S
H3268 C3253 0.961 . S
H3269 C3253 0.960 . S
C3270 C3271 1.391 . S
C3270 C3272 1.394 . S
C3270 H3286 0.931 . S
C3271 C3270 1.391 . S
C3271 C3275 1.376 . S
C3272 C3270 1.394 . S
C3272 C3273 1.369 . S
C3272 C3276 1.531 . S
C3273 C3272 1.369 . S
C3273 C3274 1.410 . S
C3273 C3281 1.503 . S
C3274 C3273 1.410 . S
C3274 C3275 1.392 . S
C3274 C3277 1.511 . S
C3275 C3271 1.376 . S
C3275 C3274 1.392 . S
C3275 H3287 0.929 . S
C3276 C3272 1.531 . S
C3276 H3288 0.960 . S
C3276 H3289 0.962 . S
C3276 H3290 0.960 . S
C3277 C3274 1.511 . S
C3277 H3291 0.961 1_545 S
C3277 H3292 0.961 . S
C3277 H3293 0.961 1_545 S
C3278 C3279 1.370 . S
C3278 C3280 1.363 . S
C3278 H3294 0.931 . S
C3279 C3278 1.370 . S
C3279 C3283 1.408 . S
C3280 C3278 1.363 . S
C3280 C3281 1.370 . S
C3280 C3284 1.524 . S
C3281 C3273 1.503 . S
C3281 C3280 1.370 . S
C3281 C3282 1.403 . S
C3282 C3281 1.403 . S
C3282 C3283 1.404 . S
C3282 C3285 1.539 . S
C3283 C3279 1.408 . S
C3283 C3282 1.404 . S
C3283 H3295 0.930 . S
C3284 C3280 1.524 . S
C3284 H3296 0.956 . S
C3284 H3297 0.961 . S
C3284 H3298 0.961 . S
C3285 C3282 1.539 . S
C3285 H3299 0.958 . S
C3285 H3300 0.961 . S
C3285 H3301 0.960 . S
H3286 C3270 0.931 . S
H3287 C3275 0.929 . S
H3288 C3276 0.960 . S
H3289 C3276 0.962 . S
H3290 C3276 0.960 . S
H3291 C3277 0.961 1_565 S
H3292 C3277 0.961 . S
H3293 C3277 0.961 1_565 S
H3294 C3278 0.931 . S
H3295 C3283 0.930 . S
H3296 C3284 0.956 . S
H3297 C3284 0.961 . S
H3298 C3284 0.961 . S
H3299 C3285 0.958 . S
H3300 C3285 0.961 . S
H3301 C3285 0.960 . S
C3302 C3303 1.391 1_455 S
C3302 C3304 1.394 . S
C3302 H3318 0.931 . S
C3303 C3302 1.391 1_655 S
C3303 C3307 1.376 . S
C3304 C3302 1.394 . S
C3304 C3305 1.369 1_455 S
C3304 C3308 1.531 . S
C3305 C3304 1.369 1_655 S
C3305 C3306 1.410 . S
C3305 C3313 1.503 . S
C3306 C3305 1.410 . S
C3306 C3307 1.392 . S
C3306 C3309 1.511 . S
C3307 C3303 1.376 . S
C3307 C3306 1.392 . S
C3307 H3319 0.929 . S
C3308 C3304 1.531 . S
C3308 H3320 0.960 . S
C3308 H3321 0.962 . S
C3308 H3322 0.960 . S
C3309 C3306 1.511 . S
C3309 H3323 0.961 . S
C3309 H3324 0.961 . S
C3309 H3325 0.961 . S
C3310 C3311 1.370 . S
C3310 C3312 1.363 . S
C3310 H3326 0.931 . S
C3311 C3310 1.370 . S
C3311 C3315 1.386 1_655 S
C3312 C3310 1.363 . S
C3312 C3313 1.370 . S
C3312 C3316 1.524 . S
C3313 C3305 1.503 . S
C3313 C3312 1.370 . S
C3313 C3314 1.403 1_655 S
C3314 C3313 1.403 1_455 S
C3314 C3315 1.430 . S
C3314 C3317 1.538 . S
C3315 C3311 1.386 1_455 S
C3315 C3314 1.430 . S
C3315 H3327 0.931 . S
C3316 C3312 1.524 . S
C3316 H3328 0.956 . S
C3316 H3329 0.961 . S
C3316 H3330 0.961 . S
C3317 C3314 1.538 . S
C3317 H3331 0.958 . S
C3317 H3332 0.961 . S
C3317 H3333 0.966 . S
H3318 C3302 0.931 . S
H3319 C3307 0.929 . S
H3320 C3308 0.960 . S
H3321 C3308 0.962 . S
H3322 C3308 0.960 . S
H3323 C3309 0.961 . S
H3324 C3309 0.961 . S
H3325 C3309 0.961 . S
H3326 C3310 0.931 . S
H3327 C3315 0.931 . S
H3328 C3316 0.956 . S
H3329 C3316 0.961 . S
H3330 C3316 0.961 . S
H3331 C3317 0.958 . S
H3332 C3317 0.961 . S
H3333 C3317 0.966 . S
C3334 C3335 1.391 . S
C3334 C3336 1.394 . S
C3334 H3350 0.931 . S
C3335 C3334 1.391 . S
C3335 C3339 1.376 . S
C3336 C3334 1.394 . S
C3336 C3337 1.369 . S
C3336 C3340 1.531 . S
C3337 C3336 1.369 . S
C3337 C3338 1.410 . S
C3337 C3345 1.503 . S
C3338 C3337 1.410 . S
C3338 C3339 1.392 . S
C3338 C3341 1.511 . S
C3339 C3335 1.376 . S
C3339 C3338 1.392 . S
C3339 H3351 0.929 . S
C3340 C3336 1.531 . S
C3340 H3352 0.960 . S
C3340 H3353 0.962 . S
C3340 H3354 0.960 . S
C3341 C3338 1.511 . S
C3341 H3355 0.961 . S
C3341 H3356 0.961 . S
C3341 H3357 0.961 . S
C3342 C3343 1.370 . S
C3342 C3344 1.363 . S
C3342 H3358 0.931 . S
C3343 C3342 1.370 . S
C3343 C3347 1.408 . S
C3344 C3342 1.363 . S
C3344 C3345 1.370 . S
C3344 C3348 1.524 . S
C3345 C3337 1.503 . S
C3345 C3344 1.370 . S
C3345 C3346 1.403 . S
C3346 C3345 1.403 . S
C3346 C3347 1.404 . S
C3346 C3349 1.539 . S
C3347 C3343 1.408 . S
C3347 C3346 1.404 . S
C3347 H3359 0.930 . S
C3348 C3344 1.524 . S
C3348 H3360 0.956 . S
C3348 H3361 0.961 . S
C3348 H3362 0.961 . S
C3349 C3346 1.539 . S
C3349 H3363 0.958 . S
C3349 H3364 0.961 . S
C3349 H3365 0.960 . S
H3350 C3334 0.931 . S
H3351 C3339 0.929 . S
H3352 C3340 0.960 . S
H3353 C3340 0.962 . S
H3354 C3340 0.960 . S
H3355 C3341 0.961 . S
H3356 C3341 0.961 . S
H3357 C3341 0.961 . S
H3358 C3342 0.931 . S
H3359 C3347 0.930 . S
H3360 C3348 0.956 . S
H3361 C3348 0.961 . S
H3362 C3348 0.961 . S
H3363 C3349 0.958 . S
H3364 C3349 0.961 . S
H3365 C3349 0.960 . S
C3366 C3367 1.391 . S
C3366 C3368 1.394 . S
C3366 H3382 0.931 . S
C3367 C3366 1.391 . S
C3367 C3371 1.376 . S
C3368 C3366 1.394 . S
C3368 C3369 1.369 . S
C3368 C3372 1.531 . S
C3369 C3368 1.369 . S
C3369 C3370 1.410 . S
C3369 C3377 1.503 . S
C3370 C3369 1.410 . S
C3370 C3371 1.392 . S
C3370 C3373 1.511 . S
C3371 C3367 1.376 . S
C3371 C3370 1.392 . S
C3371 H3383 0.929 . S
C3372 C3368 1.531 . S
C3372 H3384 0.960 . S
C3372 H3385 0.962 . S
C3372 H3386 0.960 . S
C3373 C3370 1.511 . S
C3373 H3387 0.961 . S
C3373 H3388 0.961 . S
C3373 H3389 0.961 . S
C3374 C3375 1.370 . S
C3374 C3376 1.363 . S
C3374 H3390 0.931 . S
C3375 C3374 1.370 . S
C3375 C3379 1.408 . S
C3376 C3374 1.363 . S
C3376 C3377 1.370 . S
C3376 C3380 1.524 . S
C3377 C3369 1.503 . S
C3377 C3376 1.370 . S
C3377 C3378 1.403 . S
C3378 C3377 1.403 . S
C3378 C3379 1.404 . S
C3378 C3381 1.539 . S
C3379 C3375 1.408 . S
C3379 C3378 1.404 . S
C3379 H3391 0.930 . S
C3380 C3376 1.524 . S
C3380 H3392 0.956 . S
C3380 H3393 0.961 . S
C3380 H3394 0.961 . S
C3381 C3378 1.539 . S
C3381 H3395 0.958 . S
C3381 H3396 0.961 . S
C3381 H3397 0.960 . S
H3382 C3366 0.931 . S
H3383 C3371 0.929 . S
H3384 C3372 0.960 . S
H3385 C3372 0.962 . S
H3386 C3372 0.960 . S
H3387 C3373 0.961 . S
H3388 C3373 0.961 . S
H3389 C3373 0.961 . S
H3390 C3374 0.931 . S
H3391 C3379 0.930 . S
H3392 C3380 0.956 . S
H3393 C3380 0.961 . S
H3394 C3380 0.961 . S
H3395 C3381 0.958 . S
H3396 C3381 0.961 . S
H3397 C3381 0.960 . S
C3398 C3399 1.363 1_545 S
C3398 C3400 1.391 1_545 S
C3398 H3414 0.936 . S
C3399 C3398 1.363 1_565 S
C3399 C3403 1.431 . S
C3400 C3398 1.391 1_565 S
C3400 C3401 1.369 . S
C3400 C3404 1.531 . S
C3401 C3400 1.369 . S
C3401 C3402 1.410 . S
C3401 C3409 1.503 . S
C3402 C3401 1.410 . S
C3402 C3403 1.392 . S
C3402 C3405 1.511 . S
C3403 C3399 1.431 . S
C3403 C3402 1.392 . S
C3403 H3415 0.929 . S
C3404 C3400 1.531 . S
C3404 H3416 0.960 . S
C3404 H3417 0.962 . S
C3404 H3418 0.960 . S
C3405 C3402 1.511 . S
C3405 H3419 0.961 . S
C3405 H3420 0.961 . S
C3405 H3421 0.961 . S
C3406 C3407 1.370 . S
C3406 C3408 1.363 . S
C3406 H3422 0.931 . S
C3407 C3406 1.370 . S
C3407 C3411 1.408 . S
C3408 C3406 1.363 . S
C3408 C3409 1.370 . S
C3408 C3412 1.524 . S
C3409 C3401 1.503 . S
C3409 C3408 1.370 . S
C3409 C3410 1.403 . S
C3410 C3409 1.403 . S
C3410 C3411 1.404 . S
C3410 C3413 1.539 . S
C3411 C3407 1.408 . S
C3411 C3410 1.404 . S
C3411 H3423 0.930 . S
C3412 C3408 1.524 . S
C3412 H3424 0.956 . S
C3412 H3425 0.961 . S
C3412 H3426 0.961 . S
C3413 C3410 1.539 . S
C3413 H3427 0.958 . S
C3413 H3428 0.961 . S
C3413 H3429 0.960 . S
H3414 C3398 0.936 . S
H3415 C3403 0.929 . S
H3416 C3404 0.960 . S
H3417 C3404 0.962 . S
H3418 C3404 0.960 . S
H3419 C3405 0.961 . S
H3420 C3405 0.961 . S
H3421 C3405 0.961 . S
H3422 C3406 0.931 . S
H3423 C3411 0.930 . S
H3424 C3412 0.956 . S
H3425 C3412 0.961 . S
H3426 C3412 0.961 . S
H3427 C3413 0.958 . S
H3428 C3413 0.961 . S
H3429 C3413 0.960 . S
C3430 C3431 1.391 . S
C3430 C3432 1.394 . S
C3430 H3446 0.931 . S
C3431 C3430 1.391 . S
C3431 C3435 1.376 . S
C3432 C3430 1.394 . S
C3432 C3433 1.369 . S
C3432 C3436 1.531 . S
C3433 C3432 1.369 . S
C3433 C3434 1.410 . S
C3433 C3441 1.503 . S
C3434 C3433 1.410 . S
C3434 C3435 1.392 . S
C3434 C3437 1.511 . S
C3435 C3431 1.376 . S
C3435 C3434 1.392 . S
C3435 H3447 0.929 . S
C3436 C3432 1.531 . S
C3436 H3448 0.960 . S
C3436 H3449 0.962 . S
C3436 H3450 0.960 . S
C3437 C3434 1.511 . S
C3437 H3451 0.961 . S
C3437 H3452 0.961 . S
C3437 H3453 0.961 . S
C3438 C3439 1.370 . S
C3438 C3440 1.363 . S
C3438 H3454 0.931 . S
C3439 C3438 1.370 . S
C3439 C3443 1.408 . S
C3440 C3438 1.363 . S
C3440 C3441 1.370 . S
C3440 C3444 1.524 . S
C3441 C3433 1.503 . S
C3441 C3440 1.370 . S
C3441 C3442 1.403 . S
C3442 C3441 1.403 . S
C3442 C3443 1.404 . S
C3442 C3445 1.539 . S
C3443 C3439 1.408 . S
C3443 C3442 1.404 . S
C3443 H3455 0.930 . S
C3444 C3440 1.524 . S
C3444 H3456 0.956 . S
C3444 H3457 0.961 . S
C3444 H3458 0.961 . S
C3445 C3442 1.539 . S
C3445 H3459 0.958 . S
C3445 H3460 0.961 . S
C3445 H3461 0.960 . S
H3446 C3430 0.931 . S
H3447 C3435 0.929 . S
H3448 C3436 0.960 . S
H3449 C3436 0.962 . S
H3450 C3436 0.960 . S
H3451 C3437 0.961 . S
H3452 C3437 0.961 . S
H3453 C3437 0.961 . S
H3454 C3438 0.931 . S
H3455 C3443 0.930 . S
H3456 C3444 0.956 . S
H3457 C3444 0.961 . S
H3458 C3444 0.961 . S
H3459 C3445 0.958 . S
H3460 C3445 0.961 . S
H3461 C3445 0.960 . S
C3462 C3463 1.391 . S
C3462 C3464 1.394 . S
C3462 H3478 0.931 . S
C3463 C3462 1.391 . S
C3463 C3467 1.376 . S
C3464 C3462 1.394 . S
C3464 C3465 1.369 . S
C3464 C3468 1.531 . S
C3465 C3464 1.369 . S
C3465 C3466 1.410 . S
C3465 C3473 1.503 . S
C3466 C3465 1.410 . S
C3466 C3467 1.392 . S
C3466 C3469 1.511 . S
C3467 C3463 1.376 . S
C3467 C3466 1.392 . S
C3467 H3479 0.929 . S
C3468 C3464 1.531 . S
C3468 H3480 0.960 . S
C3468 H3481 0.962 . S
C3468 H3482 0.960 . S
C3469 C3466 1.511 . S
C3469 H3483 0.961 . S
C3469 H3484 0.961 . S
C3469 H3485 0.961 . S
C3470 C3471 1.370 . S
C3470 C3472 1.363 . S
C3470 H3486 0.931 . S
C3471 C3470 1.370 . S
C3471 C3475 1.408 . S
C3472 C3470 1.363 . S
C3472 C3473 1.370 . S
C3472 C3476 1.524 . S
C3473 C3465 1.503 . S
C3473 C3472 1.370 . S
C3473 C3474 1.403 . S
C3474 C3473 1.403 . S
C3474 C3475 1.404 . S
C3474 C3477 1.539 . S
C3475 C3471 1.408 . S
C3475 C3474 1.404 . S
C3475 H3487 0.930 . S
C3476 C3472 1.524 . S
C3476 H3488 0.956 . S
C3476 H3489 0.961 . S
C3476 H3490 0.961 . S
C3477 C3474 1.539 . S
C3477 H3491 0.958 . S
C3477 H3492 0.961 . S
C3477 H3493 0.960 . S
H3478 C3462 0.931 . S
H3479 C3467 0.929 . S
H3480 C3468 0.960 . S
H3481 C3468 0.962 . S
H3482 C3468 0.960 . S
H3483 C3469 0.961 . S
H3484 C3469 0.961 . S
H3485 C3469 0.961 . S
H3486 C3470 0.931 . S
H3487 C3475 0.930 . S
H3488 C3476 0.956 . S
H3489 C3476 0.961 . S
H3490 C3476 0.961 . S
H3491 C3477 0.958 . S
H3492 C3477 0.961 . S
H3493 C3477 0.960 . S
C3494 C3495 1.391 . S
C3494 C3496 1.394 . S
C3494 H3510 0.931 1_565 S
C3495 C3494 1.391 . S
C3495 C3499 1.376 . S
C3496 C3494 1.394 . S
C3496 C3497 1.369 . S
C3496 C3500 1.531 . S
C3497 C3496 1.369 . S
C3497 C3498 1.410 . S
C3497 C3505 1.503 . S
C3498 C3497 1.410 . S
C3498 C3499 1.392 . S
C3498 C3501 1.511 . S
C3499 C3495 1.376 . S
C3499 C3498 1.392 . S
C3499 H3511 0.929 . S
C3500 C3496 1.531 . S
C3500 H3512 0.960 . S
C3500 H3513 0.962 . S
C3500 H3514 0.960 . S
C3501 C3498 1.511 . S
C3501 H3515 0.961 . S
C3501 H3516 0.961 . S
C3501 H3517 0.961 . S
C3502 C3503 1.370 . S
C3502 C3504 1.363 . S
C3502 H3518 0.931 . S
C3503 C3502 1.370 . S
C3503 C3507 1.408 . S
C3504 C3502 1.363 . S
C3504 C3505 1.370 . S
C3504 C3508 1.524 . S
C3505 C3497 1.503 . S
C3505 C3504 1.370 . S
C3505 C3506 1.403 . S
C3506 C3505 1.403 . S
C3506 C3507 1.404 . S
C3506 C3509 1.539 . S
C3507 C3503 1.408 . S
C3507 C3506 1.404 . S
C3507 H3519 0.930 . S
C3508 C3504 1.524 . S
C3508 H3520 0.956 . S
C3508 H3521 0.961 . S
C3508 H3522 0.961 . S
C3509 C3506 1.539 . S
C3509 H3523 0.958 . S
C3509 H3524 0.961 . S
C3509 H3525 0.960 . S
H3510 C3494 0.931 1_545 S
H3511 C3499 0.929 . S
H3512 C3500 0.960 . S
H3513 C3500 0.962 . S
H3514 C3500 0.960 . S
H3515 C3501 0.961 . S
H3516 C3501 0.961 . S
H3517 C3501 0.961 . S
H3518 C3502 0.931 . S
H3519 C3507 0.930 . S
H3520 C3508 0.956 . S
H3521 C3508 0.961 . S
H3522 C3508 0.961 . S
H3523 C3509 0.958 . S
H3524 C3509 0.961 . S
H3525 C3509 0.960 . S
C3526 C3527 1.391 . S
C3526 C3528 1.394 . S
C3526 H3542 0.931 . S
C3527 C3526 1.391 . S
C3527 C3531 1.376 . S
C3528 C3526 1.394 . S
C3528 C3529 1.369 . S
C3528 C3532 1.531 . S
C3529 C3528 1.369 . S
C3529 C3530 1.410 . S
C3529 C3537 1.503 . S
C3530 C3529 1.410 . S
C3530 C3531 1.392 . S
C3530 C3533 1.511 . S
C3531 C3527 1.376 . S
C3531 C3530 1.392 . S
C3531 H3543 0.929 . S
C3532 C3528 1.531 . S
C3532 H3544 0.960 . S
C3532 H3545 0.962 . S
C3532 H3546 0.960 . S
C3533 C3530 1.511 . S
C3533 H3547 0.961 . S
C3533 H3548 0.961 . S
C3533 H3549 0.961 . S
C3534 C3535 1.370 . S
C3534 C3536 1.363 . S
C3534 H3550 0.931 . S
C3535 C3534 1.370 . S
C3535 C3539 1.408 . S
C3536 C3534 1.363 . S
C3536 C3537 1.370 . S
C3536 C3540 1.524 . S
C3537 C3529 1.503 . S
C3537 C3536 1.370 . S
C3537 C3538 1.403 . S
C3538 C3537 1.403 . S
C3538 C3539 1.404 . S
C3538 C3541 1.539 . S
C3539 C3535 1.408 . S
C3539 C3538 1.404 . S
C3539 H3551 0.930 . S
C3540 C3536 1.524 . S
C3540 H3552 0.956 . S
C3540 H3553 0.961 . S
C3540 H3554 0.961 . S
C3541 C3538 1.539 . S
C3541 H3555 0.958 . S
C3541 H3556 0.961 . S
C3541 H3557 0.960 . S
H3542 C3526 0.931 . S
H3543 C3531 0.929 . S
H3544 C3532 0.960 . S
H3545 C3532 0.962 . S
H3546 C3532 0.960 . S
H3547 C3533 0.961 . S
H3548 C3533 0.961 . S
H3549 C3533 0.961 . S
H3550 C3534 0.931 . S
H3551 C3539 0.930 . S
H3552 C3540 0.956 . S
H3553 C3540 0.961 . S
H3554 C3540 0.961 . S
H3555 C3541 0.958 . S
H3556 C3541 0.961 . S
H3557 C3541 0.960 . S
C3558 C3559 1.391 1_455 S
C3558 C3560 1.394 . S
C3558 H3574 0.931 . S
C3559 C3558 1.391 1_655 S
C3559 C3563 1.376 . S
C3560 C3558 1.394 . S
C3560 C3561 1.369 1_455 S
C3560 C3564 1.531 . S
C3561 C3560 1.369 1_655 S
C3561 C3562 1.410 . S
C3561 C3569 1.503 . S
C3562 C3561 1.410 . S
C3562 C3563 1.392 . S
C3562 C3565 1.511 . S
C3563 C3559 1.376 . S
C3563 C3562 1.392 . S
C3563 H3575 0.929 . S
C3564 C3560 1.531 . S
C3564 H3576 0.960 . S
C3564 H3577 0.962 . S
C3564 H3578 0.960 . S
C3565 C3562 1.511 . S
C3565 H3579 0.961 . S
C3565 H3580 0.961 . S
C3565 H3581 0.961 . S
C3566 C3567 1.370 . S
C3566 C3568 1.363 . S
C3566 H3582 0.931 . S
C3567 C3566 1.370 . S
C3567 C3571 1.408 . S
C3568 C3566 1.363 . S
C3568 C3569 1.370 . S
C3568 C3572 1.524 . S
C3569 C3561 1.503 . S
C3569 C3568 1.370 . S
C3569 C3570 1.403 . S
C3570 C3569 1.403 . S
C3570 C3571 1.404 . S
C3570 C3573 1.539 . S
C3571 C3567 1.408 . S
C3571 C3570 1.404 . S
C3571 H3583 0.930 . S
C3572 C3568 1.524 . S
C3572 H3584 0.956 1_655 S
C3572 H3585 0.961 . S
C3572 H3586 0.961 . S
C3573 C3570 1.539 . S
C3573 H3587 0.958 . S
C3573 H3588 0.961 . S
C3573 H3589 0.960 . S
H3574 C3558 0.931 . S
H3575 C3563 0.929 . S
H3576 C3564 0.960 . S
H3577 C3564 0.962 . S
H3578 C3564 0.960 . S
H3579 C3565 0.961 . S
H3580 C3565 0.961 . S
H3581 C3565 0.961 . S
H3582 C3566 0.931 . S
H3583 C3571 0.930 . S
H3584 C3572 0.956 1_455 S
H3585 C3572 0.961 . S
H3586 C3572 0.961 . S
H3587 C3573 0.958 . S
H3588 C3573 0.961 . S
H3589 C3573 0.960 . S
C3590 C3591 1.391 . S
C3590 C3592 1.394 . S
C3590 H3606 0.931 . S
C3591 C3590 1.391 . S
C3591 C3595 1.376 . S
C3592 C3590 1.394 . S
C3592 C3593 1.369 . S
C3592 C3596 1.531 . S
C3593 C3592 1.369 . S
C3593 C3594 1.410 . S
C3593 C3601 1.503 . S
C3594 C3593 1.410 . S
C3594 C3595 1.392 . S
C3594 C3597 1.511 . S
C3595 C3591 1.376 . S
C3595 C3594 1.392 . S
C3595 H3607 0.929 . S
C3596 C3592 1.531 . S
C3596 H3608 0.960 . S
C3596 H3609 0.962 . S
C3596 H3610 0.960 . S
C3597 C3594 1.511 . S
C3597 H3611 0.961 . S
C3597 H3612 0.961 . S
C3597 H3613 0.961 . S
C3598 C3599 1.370 . S
C3598 C3600 1.363 . S
C3598 H3614 0.931 . S
C3599 C3598 1.370 . S
C3599 C3603 1.408 . S
C3600 C3598 1.363 . S
C3600 C3601 1.370 . S
C3600 C3604 1.524 . S
C3601 C3593 1.503 . S
C3601 C3600 1.370 . S
C3601 C3602 1.403 . S
C3602 C3601 1.403 . S
C3602 C3603 1.404 . S
C3602 C3605 1.539 . S
C3603 C3599 1.408 . S
C3603 C3602 1.404 . S
C3603 H3615 0.930 . S
C3604 C3600 1.524 . S
C3604 H3616 0.956 . S
C3604 H3617 0.961 . S
C3604 H3618 0.961 . S
C3605 C3602 1.539 . S
C3605 H3619 0.958 . S
C3605 H3620 0.961 . S
C3605 H3621 0.960 . S
H3606 C3590 0.931 . S
H3607 C3595 0.929 . S
H3608 C3596 0.960 . S
H3609 C3596 0.962 . S
H3610 C3596 0.960 . S
H3611 C3597 0.961 . S
H3612 C3597 0.961 . S
H3613 C3597 0.961 . S
H3614 C3598 0.931 . S
H3615 C3603 0.930 . S
H3616 C3604 0.956 . S
H3617 C3604 0.961 . S
H3618 C3604 0.961 . S
H3619 C3605 0.958 . S
H3620 C3605 0.961 . S
H3621 C3605 0.960 . S
C3622 C3623 1.391 . S
C3622 C3624 1.394 . S
C3622 H3638 0.931 . S
C3623 C3622 1.391 . S
C3623 C3627 1.376 . S
C3624 C3622 1.394 . S
C3624 C3625 1.369 . S
C3624 C3628 1.531 . S
C3625 C3624 1.369 . S
C3625 C3626 1.410 . S
C3625 C3633 1.503 . S
C3626 C3625 1.410 . S
C3626 C3627 1.392 . S
C3626 C3629 1.511 . S
C3627 C3623 1.376 . S
C3627 C3626 1.392 . S
C3627 H3639 0.929 . S
C3628 C3624 1.531 . S
C3628 H3640 0.960 . S
C3628 H3641 0.962 . S
C3628 H3642 0.960 . S
C3629 C3626 1.511 . S
C3629 H3643 0.961 . S
C3629 H3644 0.961 . S
C3629 H3645 0.961 . S
C3630 C3631 1.370 . S
C3630 C3632 1.363 . S
C3630 H3646 0.931 . S
C3631 C3630 1.370 . S
C3631 C3635 1.408 . S
C3632 C3630 1.363 . S
C3632 C3633 1.370 . S
C3632 C3636 1.524 . S
C3633 C3625 1.503 . S
C3633 C3632 1.370 . S
C3633 C3634 1.403 . S
C3634 C3633 1.403 . S
C3634 C3635 1.404 . S
C3634 C3637 1.539 . S
C3635 C3631 1.408 . S
C3635 C3634 1.404 . S
C3635 H3647 0.930 . S
C3636 C3632 1.524 . S
C3636 H3648 0.956 . S
C3636 H3649 0.961 . S
C3636 H3650 0.961 . S
C3637 C3634 1.539 . S
C3637 H3651 0.958 1_545 S
C3637 H3652 0.961 . S
C3637 H3653 0.960 . S
H3638 C3622 0.931 . S
H3639 C3627 0.929 . S
H3640 C3628 0.960 . S
H3641 C3628 0.962 . S
H3642 C3628 0.960 . S
H3643 C3629 0.961 . S
H3644 C3629 0.961 . S
H3645 C3629 0.961 . S
H3646 C3630 0.931 . S
H3647 C3635 0.930 . S
H3648 C3636 0.956 . S
H3649 C3636 0.961 . S
H3650 C3636 0.961 . S
H3651 C3637 0.958 1_565 S
H3652 C3637 0.961 . S
H3653 C3637 0.960 . S
C1351 C10 1.690 . S
C1359 C839 1.632 . S
C1383 C23 1.673 . S
C1391 C883 1.644 . S
C1423 C963 1.646 . S
C1415 C29 1.684 . S
C1447 C30 1.681 . S
C1455 C1007 1.657 . S
C1479 C5 1.687 . S
C1487 C1087 1.663 . S
C1511 C18 1.686 . S
C1519 C1149 1.630 . S
C1543 C49 1.688 . S
C1551 C1069 1.631 . S
C1583 C1131 1.625 . S
C1575 C62 1.678 . S
C1615 C1025 1.652 . S
C1607 C70 1.682 . S
C1639 C75 1.686 . S
C1647 C945 1.627 . S
C1679 C821 1.657 . S
C1671 C44 1.686 . S
C1703 C57 1.680 . S
C1711 C901 1.649 . S
C1735 C88 1.684 . S
C1743 C1211 1.653 . S
C1767 C101 1.676 . S
C1775 C1255 1.641 . S
C1807 C1335 1.638 . S
C1799 C107 1.686 . S
C1831 C108 1.683 . S
C1839 C281 1.645 . S
C1863 C83 1.688 . S
C1871 C325 1.661 . S
C1895 C96 1.684 . S
C1903 C405 1.630 . S
C1927 C127 1.684 . S
C1935 C343 1.660 . S
C1959 C140 1.673 . S
C1967 C387 1.635 . S
C1999 C263 1.647 . S
C1991 C146 1.684 . S
C2031 C1317 1.633 . S
C2023 C147 1.684 . S
C2063 C1193 1.651 . S
C2055 C122 1.687 . S
C2095 C1273 1.644 . S
C2087 C135 1.683 . S
C2119 C160 1.689 . S
C2127 C467 1.632 . S
C2151 C173 1.674 . S
C2159 C529 1.640 . S
C2183 C185 1.686 . S
C2191 C573 1.641 . S
C2215 C186 1.681 . S
C2223 C635 1.658 . S
C2255 C697 1.649 . S
C2247 C159 1.695 . S
C2287 C777 1.629 . S
C2279 C172 1.686 . S
C2319 C715 1.661 . S
C2311 C205 1.684 . S
C2351 C759 1.639 . S
C2343 C218 1.672 . S
C2375 C224 1.688 . S
C2383 C653 1.640 . S
C2415 C591 1.653 . S
C2407 C225 1.682 . S
C2439 C200 1.697 . S
C2447 C449 1.644 . S
C2479 C511 1.633 . S
C2471 C213 1.680 . S
C2511 C287 1.437 . S
C2503 C4 1.506 . S
C2535 C17 1.500 . S
C2543 C331 1.461 . S
C2575 C411 1.463 . S
C2567 C31 1.507 . S
C2607 C473 1.448 . S
C2599 C36 1.512 . S
C2639 C535 1.472 . S
C2631 C3 1.515 . S
C2671 C579 1.454 . S
C2663 C16 1.514 . S
C2695 C43 1.514 . S
C2703 C597 1.451 . S
C2727 C56 1.504 . S
C2735 C455 1.433 . S
C2759 C68 1.506 . S
C2767 C517 1.447 . S
C2791 C69 1.511 . S
C2799 C349 1.457 . S
C2831 C393 1.446 . S
C2823 C42 1.515 . S
C2855 C55 1.505 . S
C2863 C269 1.458 . S
C2895 C641 1.456 . S
C2887 C82 1.514 . S
C2919 C95 1.497 . S
C2927 C703 1.460 . S
C2951 C109 1.506 1_655 S
C2959 C783 1.457 . S
C2991 C845 1.451 . S
C2983 C114 1.513 . S
C3015 C81 1.511 . S
C3023 C889 1.466 . S
C3047 C94 1.508 . S
C3055 C969 1.468 . S
C3079 C121 1.503 . S
C3087 C951 1.459 . S
C3111 C134 1.499 . S
C3119 C827 1.459 . S
C3151 C907 1.469 . S
C3143 C148 1.510 . S
C3175 C153 1.504 . S
C3183 C721 1.441 . S
C3207 C120 1.518 . S
C3215 C765 1.469 . S
C3247 C659 1.466 . S
C3239 C133 1.505 1_655 S
C3279 C1013 1.440 . S
C3271 C166 1.508 . S
C3303 C179 1.504 . S
C3311 C1093 1.463 . S
C3335 C187 1.508 . S
C3343 C1155 1.465 . S
C3375 C1217 1.458 . S
C3367 C192 1.512 . S
C3407 C1261 1.448 . S
C3399 C161 1.488 1_565 S
C3431 C174 1.506 . S
C3439 C1341 1.460 . S
C3463 C199 1.500 . S
C3471 C1323 1.456 . S
C3495 C212 1.503 1_565 S
C3503 C1199 1.458 . S
C3535 C1279 1.463 . S
C3527 C226 1.512 . S
C3567 C1075 1.436 . S
C3559 C231 1.499 . S
C3599 C1137 1.450 . S
C3591 C198 1.513 . S
C3623 C211 1.514 . S
C3631 C1031 1.444 . S
