# Generated by pormake.
# Topology eea, (3,6)-cn, num edge types: 1
# Building blocks:
#     Node 0, Type 0, BuildingBlock: CUQRIR_clean_linker_1, # of connection points: 3
#     Node 1, Type 0, BuildingBlock: CUQRIR_clean_linker_1, # of connection points: 3
#     Node 2, Type 0, BuildingBlock: CUQRIR_clean_linker_1, # of connection points: 3
#     Node 3, Type 0, BuildingBlock: CUQRIR_clean_linker_1, # of connection points: 3
#     Node 4, Type 0, BuildingBlock: CUQRIR_clean_linker_1, # of connection points: 3
#     Node 5, Type 0, BuildingBlock: CUQRIR_clean_linker_1, # of connection points: 3
#     Node 6, Type 0, BuildingBlock: CUQRIR_clean_linker_1, # of connection points: 3
#     Node 7, Type 0, BuildingBlock: CUQRIR_clean_linker_1, # of connection points: 3
#     Node 8, Type 0, BuildingBlock: CUQRIR_clean_linker_1, # of connection points: 3
#     Node 9, Type 0, BuildingBlock: CUQRIR_clean_linker_1, # of connection points: 3
#     Node 10, Type 0, BuildingBlock: CUQRIR_clean_linker_1, # of connection points: 3
#     Node 11, Type 0, BuildingBlock: CUQRIR_clean_linker_1, # of connection points: 3
#     Node 12, Type 0, BuildingBlock: CUQRIR_clean_linker_1, # of connection points: 3
#     Node 13, Type 0, BuildingBlock: CUQRIR_clean_linker_1, # of connection points: 3
#     Node 14, Type 0, BuildingBlock: CUQRIR_clean_linker_1, # of connection points: 3
#     Node 15, Type 0, BuildingBlock: CUQRIR_clean_linker_1, # of connection points: 3
#     Node 16, Type 0, BuildingBlock: CUQRIR_clean_linker_1, # of connection points: 3
#     Node 17, Type 0, BuildingBlock: CUQRIR_clean_linker_1, # of connection points: 3
#     Node 18, Type 1, BuildingBlock: CUWYAW_clean_sbu_0, # of connection points: 6
#     Node 19, Type 1, BuildingBlock: CUWYAW_clean_sbu_0, # of connection points: 6
#     Node 20, Type 1, BuildingBlock: CUWYAW_clean_sbu_0, # of connection points: 6
#     Node 21, Type 1, BuildingBlock: CUWYAW_clean_sbu_0, # of connection points: 6
#     Node 22, Type 1, BuildingBlock: CUWYAW_clean_sbu_0, # of connection points: 6
#     Node 23, Type 1, BuildingBlock: CUWYAW_clean_sbu_0, # of connection points: 6
#     Node 24, Type 1, BuildingBlock: CUWYAW_clean_sbu_0, # of connection points: 6
#     Node 25, Type 1, BuildingBlock: CUWYAW_clean_sbu_0, # of connection points: 6
#     Node 26, Type 1, BuildingBlock: CUWYAW_clean_sbu_0, # of connection points: 6
#     Edge 27, Type (0, 1), None
#     Edge 28, Type (0, 1), None
#     Edge 29, Type (0, 1), None
#     Edge 30, Type (0, 1), None
#     Edge 31, Type (0, 1), None
#     Edge 32, Type (0, 1), None
#     Edge 33, Type (0, 1), None
#     Edge 34, Type (0, 1), None
#     Edge 35, Type (0, 1), None
#     Edge 36, Type (0, 1), None
#     Edge 37, Type (0, 1), None
#     Edge 38, Type (0, 1), None
#     Edge 39, Type (0, 1), None
#     Edge 40, Type (0, 1), None
#     Edge 41, Type (0, 1), None
#     Edge 42, Type (0, 1), None
#     Edge 43, Type (0, 1), None
#     Edge 44, Type (0, 1), None
#     Edge 45, Type (0, 1), None
#     Edge 46, Type (0, 1), None
#     Edge 47, Type (0, 1), None
#     Edge 48, Type (0, 1), None
#     Edge 49, Type (0, 1), None
#     Edge 50, Type (0, 1), None
#     Edge 51, Type (0, 1), None
#     Edge 52, Type (0, 1), None
#     Edge 53, Type (0, 1), None
#     Edge 54, Type (0, 1), None
#     Edge 55, Type (0, 1), None
#     Edge 56, Type (0, 1), None
#     Edge 57, Type (0, 1), None
#     Edge 58, Type (0, 1), None
#     Edge 59, Type (0, 1), None
#     Edge 60, Type (0, 1), None
#     Edge 61, Type (0, 1), None
#     Edge 62, Type (0, 1), None
#     Edge 63, Type (0, 1), None
#     Edge 64, Type (0, 1), None
#     Edge 65, Type (0, 1), None
#     Edge 66, Type (0, 1), None
#     Edge 67, Type (0, 1), None
#     Edge 68, Type (0, 1), None
#     Edge 69, Type (0, 1), None
#     Edge 70, Type (0, 1), None
#     Edge 71, Type (0, 1), None
#     Edge 72, Type (0, 1), None
#     Edge 73, Type (0, 1), None
#     Edge 74, Type (0, 1), None
#     Edge 75, Type (0, 1), None
#     Edge 76, Type (0, 1), None
#     Edge 77, Type (0, 1), None
#     Edge 78, Type (0, 1), None
#     Edge 79, Type (0, 1), None
#     Edge 80, Type (0, 1), None
# Relax obj value: 0.107
# Max RMSD: 0.337
# Mean RMSD: 0.248
data_MOF--net-eea--node1-CUWYAW_clean_sbu_0--node2-CUQRIR_clean_linker_1--edge1-none
_symmetry_space_group_name_H-M    P1
_symmetry_Int_Tables_number       1
_symmetry_cell_setting            triclinic
loop_
_symmetry_equiv_pos_as_xyz
'x, y, z'
_cell_length_a     19.305747
_cell_length_b     19.476833
_cell_length_c     33.192152
_cell_angle_alpha  83.588721
_cell_angle_beta   93.129131
_cell_angle_gamma 118.82554
loop_
_atom_site_label
_atom_site_type_symbol
_atom_site_fract_x
_atom_site_fract_y
_atom_site_fract_z
_atom_type_partial_charge
C0 C 0.18345 0.09159 0.38877 0.0
N1 N 0.1949 0.14492 0.41508 0.0
N2 N 0.18165 0.02556 0.40818 0.0
C3 C 0.18264 0.10831 0.34322 0.0
C4 C 0.19613 0.04262 0.44755 0.0
N5 N 0.20347 0.11438 0.45167 0.0
C6 C 0.21089 -0.00528 0.48212 0.0
H7 H 0.12131 0.07523 0.33175 0.0
H8 H 0.22066 0.08999 0.32865 0.0
H9 H 0.20616 0.17205 0.33405 0.0
H10 H 0.20572 0.94013 0.4734 0.0
H11 H 0.16858 0.98077 0.50693 0.0
H12 H 0.27117 0.03005 0.49438 0.0
C13 C 0.88965 0.11222 0.39713 0.0
N14 N 0.92997 0.16314 0.42555 0.0
N15 N 0.82139 0.05082 0.41281 0.0
C16 C 0.91479 0.12516 0.35315 0.0
C17 C 0.81819 0.07025 0.45047 0.0
N18 N 0.88558 0.1357 0.45904 0.0
C19 C 0.7468 0.03253 0.47784 0.0
H20 H 0.86817 0.08679 0.33297 0.0
H21 H 0.96761 0.11718 0.35122 0.0
H22 H 0.92956 0.18549 0.34012 0.0
H23 H 0.76408 0.02063 0.50917 0.0
H24 H 0.69785 0.97827 0.46772 0.0
H25 H 0.72399 0.07473 0.47912 0.0
C26 C 0.83382 0.73096 0.38817 0.0
N27 N 0.88154 0.71634 0.41549 0.0
N28 N 0.76401 0.71136 0.4056 0.0
C29 C 0.85981 0.77684 0.34701 0.0
C30 C 0.76749 0.67529 0.44226 0.0
N31 N 0.83963 0.68189 0.44955 0.0
C32 C 0.70219 0.64217 0.47344 0.0
H33 H 0.90718 0.83773 0.35074 0.0
H34 H 0.81061 0.77939 0.32944 0.0
H35 H 0.88335 0.74827 0.32881 0.0
H36 H 0.64467 0.62882 0.45868 0.0
H37 H 0.71548 0.68543 0.49571 0.0
H38 H 0.6976 0.58758 0.4902 0.0
C39 C 0.0913 0.23916 0.75059 0.0
N40 N 0.14751 0.252 0.7234 0.0
N41 N 0.03772 0.25914 0.73251 0.0
C42 C 0.07952 0.1918 0.7913 0.0
C43 C 0.06785 0.29098 0.69507 0.0
N44 N 0.1316 0.28338 0.68875 0.0
C45 C 0.03099 0.3251 0.66318 0.0
H46 H 0.07375 0.13348 0.78715 0.0
H47 H 0.02707 0.18303 0.80767 0.0
H48 H 0.13199 0.22278 0.81069 0.0
H49 H -0.00742 0.34352 0.67736 0.0
H50 H -0.0052 0.28026 0.64215 0.0
H51 H 0.07769 0.37654 0.64506 0.0
C52 C 0.80731 0.89704 0.74925 0.0
N53 N 0.79589 0.843 0.72344 0.0
N54 N 0.77749 0.94472 0.73373 0.0
C55 C 0.83268 0.89295 0.79321 0.0
C56 C 0.74157 0.91355 0.69885 0.0
N57 N 0.75335 0.85217 0.69213 0.0
C58 C 0.69311 0.94042 0.67088 0.0
H59 H 0.80012 0.90908 0.8134 0.0
H60 H 0.89713 0.93293 0.79593 0.0
H61 H 0.81873 0.83251 0.80521 0.0
H62 H 0.71691 0.9546 0.6396 0.0
H63 H 0.68994 0.99141 0.68006 0.0
H64 H 0.63185 0.89108 0.66974 0.0
C65 C 0.11094 0.89577 0.74791 0.0
N66 N 0.06791 0.84652 0.71932 0.0
N67 N 0.16144 0.96883 0.73007 0.0
C68 C 0.10699 0.87132 0.79297 0.0
C69 C 0.15027 0.96081 0.68986 0.0
N70 N 0.09394 0.88707 0.68359 0.0
C71 C 0.19622 0.02362 0.65646 0.0
H72 H 0.06053 0.87922 0.80678 0.0
H73 H 0.16399 0.90571 0.80828 0.0
H74 H 0.09323 0.80893 0.79908 0.0
H75 H 0.16887 0.00902 0.62637 0.0
H76 H 0.25616 0.03003 0.65504 0.0
H77 H 0.20066 0.08051 0.66209 0.0
C78 C 0.85012 0.42492 0.72211 0.0
N79 N 0.86157 0.47825 0.74841 0.0
N80 N 0.84832 0.3589 0.74151 0.0
C81 C 0.84931 0.44165 0.67655 0.0
C82 C 0.8628 0.37595 0.78088 0.0
N83 N 0.87014 0.44772 0.785 0.0
C84 C 0.87756 0.32806 0.81545 0.0
H85 H 0.78798 0.40856 0.66508 0.0
H86 H 0.88732 0.42333 0.66198 0.0
H87 H 0.87282 0.50539 0.66738 0.0
H88 H 0.87238 0.27346 0.80673 0.0
H89 H 0.83525 0.3141 0.84027 0.0
H90 H 0.93784 0.36338 0.82771 0.0
C91 C 0.55632 0.44555 0.73046 0.0
N92 N 0.59664 0.49648 0.75888 0.0
N93 N 0.48806 0.38415 0.74615 0.0
C94 C 0.58146 0.45849 0.68649 0.0
C95 C 0.48486 0.40358 0.78381 0.0
N96 N 0.55225 0.46904 0.79237 0.0
C97 C 0.41347 0.36586 0.81117 0.0
H98 H 0.53484 0.42012 0.6663 0.0
H99 H 0.63427 0.45051 0.68456 0.0
H100 H 0.59623 0.51883 0.67345 0.0
H101 H 0.43075 0.35396 0.84251 0.0
H102 H 0.36452 0.3116 0.80106 0.0
H103 H 0.39065 0.40806 0.81245 0.0
C104 C 0.50049 0.06429 0.72151 0.0
N105 N 0.5482 0.04968 0.74882 0.0
N106 N 0.43067 0.04469 0.73893 0.0
C107 C 0.52648 0.11018 0.68034 0.0
C108 C 0.43416 0.00863 0.77559 0.0
N109 N 0.50629 0.01522 0.78288 0.0
C110 C 0.36885 0.97551 0.80677 0.0
H111 H 0.57385 0.17106 0.68407 0.0
H112 H 0.47728 0.11273 0.66278 0.0
H113 H 0.55001 0.0816 0.66214 0.0
H114 H 0.31133 0.96215 0.79202 0.0
H115 H 0.38214 0.01876 0.82904 0.0
H116 H 0.36426 0.92091 0.82353 0.0
C117 C 0.75797 0.5725 0.08393 0.0
N118 N 0.81418 0.58533 1.05673 0.0
N119 N 0.70439 0.59247 0.06584 0.0
C120 C 0.74619 0.52513 0.12464 0.0
C121 C 0.73452 0.62431 1.0284 0.0
N122 N 0.79827 0.61672 1.02209 0.0
C123 C 0.69766 0.65843 0.99651 0.0
H124 H 0.74041 0.46681 0.12049 0.0
H125 H 0.69374 0.51636 0.141 0.0
H126 H 0.79866 0.55612 0.14402 0.0
H127 H 0.65924 0.67685 1.01069 0.0
H128 H 0.66147 0.6136 0.97548 0.0
H129 H 0.74436 0.70988 0.97839 0.0
C130 C 0.47397 0.23037 0.08259 0.0
N131 N 0.46256 0.17633 1.05678 0.0
N132 N 0.44416 0.27805 0.06706 0.0
C133 C 0.49934 0.22629 0.12654 0.0
C134 C 0.40823 0.24688 1.03218 0.0
N135 N 0.42002 0.1855 1.02546 0.0
C136 C 0.35977 0.27375 1.00421 0.0
H137 H 0.46679 0.24241 0.14674 0.0
H138 H 0.5638 0.26627 0.12926 0.0
H139 H 0.48539 0.16585 0.13855 0.0
H140 H 0.38358 0.28794 0.97293 0.0
H141 H 0.3566 0.32475 1.01339 0.0
H142 H 0.29852 0.22442 1.00307 0.0
C143 C 0.77761 0.22911 0.08124 0.0
N144 N 0.73457 0.17986 1.05266 0.0
N145 N 0.8281 0.30216 0.0634 0.0
C146 C 0.77366 0.20466 0.12631 0.0
C147 C 0.81694 0.29414 1.0232 0.0
N148 N 0.76061 0.22041 1.01692 0.0
C149 C 0.86289 0.35695 0.9898 0.0
H150 H 0.72719 0.21255 0.14011 0.0
H151 H 0.83066 0.23904 0.14162 0.0
H152 H 0.75989 0.14227 0.13241 0.0
H153 H 0.83554 0.34235 0.9597 0.0
H154 H 0.92282 0.36337 0.98837 0.0
H155 H 0.86733 0.41384 0.99543 0.0
C156 C 0.51679 0.75826 1.05544 0.0
N157 N 0.52824 0.81159 0.08174 0.0
N158 N 0.51499 0.69223 0.07485 0.0
C159 C 0.51597 0.77498 1.00988 0.0
C160 C 0.52947 0.70929 0.11422 0.0
N161 N 0.5368 0.78105 0.11833 0.0
C162 C 0.54423 0.66139 0.14879 0.0
H163 H 0.45464 0.74189 0.99842 0.0
H164 H 0.55399 0.75666 0.99532 0.0
H165 H 0.53949 0.83872 1.00071 0.0
H166 H 0.53905 0.60679 0.14007 0.0
H167 H 0.50191 0.64744 0.1736 0.0
H168 H 0.6045 0.69672 0.16105 0.0
C169 C 0.22299 0.77889 0.06379 0.0
N170 N 0.2633 0.82981 0.09221 0.0
N171 N 0.15472 0.71748 0.07948 0.0
C172 C 0.24813 0.79183 1.01982 0.0
C173 C 0.15153 0.73691 0.11714 0.0
N174 N 0.21892 0.80237 0.1257 0.0
C175 C 0.08014 0.69919 0.14451 0.0
H176 H 0.2015 0.75345 0.99963 0.0
H177 H 0.30094 0.78385 1.01789 0.0
H178 H 0.2629 0.85216 1.00679 0.0
H179 H 0.09742 0.68729 0.17584 0.0
H180 H 0.03118 0.64493 0.13439 0.0
H181 H 0.05732 0.7414 0.14578 0.0
C182 C 0.16715 0.39762 1.05484 0.0
N183 N 0.21487 0.38301 0.08215 0.0
N184 N 0.09734 0.37802 0.07226 0.0
C185 C 0.19314 0.44351 1.01368 0.0
C186 C 0.10083 0.34196 0.10893 0.0
N187 N 0.17296 0.34855 0.11622 0.0
C188 C 0.03552 0.30884 0.14011 0.0
H189 H 0.24052 0.5044 1.0174 0.0
H190 H 0.14395 0.44606 0.99611 0.0
H191 H 0.21668 0.41494 0.99547 0.0
H192 H 0.978 0.29549 0.12535 0.0
H193 H 0.04881 0.3521 0.16238 0.0
H194 H 0.03093 0.25425 0.15687 0.0
C195 C 0.42463 0.90583 0.41726 0.0
N196 N 0.48085 0.91867 0.39007 0.0
N197 N 0.37106 0.9258 0.39918 0.0
C198 C 0.41286 0.85847 0.45797 0.0
C199 C 0.40119 0.95765 0.36173 0.0
N200 N 0.46493 0.95005 0.35542 0.0
C201 C 0.36432 0.99177 0.32984 0.0
H202 H 0.40708 0.80015 0.45382 0.0
H203 H 0.36041 0.8497 0.47434 0.0
H204 H 0.46533 0.88945 0.47736 0.0
H205 H 0.32591 0.01018 0.34402 0.0
H206 H 0.32814 0.94693 0.30882 0.0
H207 H 0.41103 0.04321 0.31173 0.0
C208 C 0.14064 0.5637 0.41592 0.0
N209 N 0.12923 0.50966 0.39011 0.0
N210 N 0.11083 0.61138 0.40039 0.0
C211 C 0.16601 0.55962 0.45988 0.0
C212 C 0.0749 0.58022 0.36552 0.0
N213 N 0.08669 0.51884 0.3588 0.0
C214 C 0.02644 0.60708 0.33754 0.0
H215 H 0.13345 0.57575 0.48007 0.0
H216 H 0.23047 0.5996 0.4626 0.0
H217 H 0.15206 0.49918 0.47188 0.0
H218 H 0.05025 0.62127 0.30627 0.0
H219 H 0.02327 0.65808 0.34672 0.0
H220 H 0.96519 0.55775 0.33641 0.0
C221 C 0.44428 0.56244 0.41458 0.0
N222 N 0.40124 0.51319 0.38599 0.0
N223 N 0.49477 0.63549 0.39674 0.0
C224 C 0.44032 0.53799 0.45964 0.0
C225 C 0.4836 0.62747 0.35653 0.0
N226 N 0.42728 0.55374 0.35025 0.0
C227 C 0.52955 0.69028 0.32313 0.0
H228 H 0.39386 0.54589 0.47345 0.0
H229 H 0.49733 0.57238 0.47495 0.0
H230 H 0.42656 0.4756 0.46575 0.0
H231 H 0.5022 0.67569 0.29303 0.0
H232 H 0.58949 0.6967 0.3217 0.0
H233 H 0.53399 0.74718 0.32876 0.0
C234 C 0.54255 0.02593 0.18905 0.0
Eu235 Eu 0.51366 0.01123 0.11179 0.0
C236 C 0.52833 -0.00137 0.23227 0.0
C237 C 0.57847 0.04897 0.26056 0.0
C238 C 0.562 0.02951 0.30202 0.0
C239 C 0.49575 0.95903 0.31559 0.0
C240 C 0.4484 0.90634 0.28736 0.0
C241 C 0.4643 0.92621 0.24583 0.0
C242 C 0.49185 0.12447 0.0633 0.0
C243 C 0.33835 0.89179 0.08753 0.0
C244 C 0.47434 0.98138 0.9497 0.0
Eu245 Eu 0.48893 0.98402 1.0288 0.0
C246 C 0.51144 -0.00194 0.90905 0.0
C247 C 0.50579 0.93556 0.88892 0.0
C248 C 0.51734 0.94463 0.84684 0.0
C249 C 0.53497 0.0163 0.82411 0.0
C250 C 0.55056 0.0813 0.845 0.0
C251 C 0.53757 0.07201 0.88687 0.0
C252 C 0.50364 0.86673 0.07417 0.0
C253 C 0.66491 0.11085 1.05816 0.0
O254 O 0.57178 -0.0058 0.16733 0.0
O255 O 0.4925 0.04394 0.16894 0.0
O256 O 0.54826 0.13684 0.0891 0.0
O257 O 0.45014 0.05123 1.06208 0.0
O258 O 0.38911 0.90849 0.11777 0.0
O259 O 0.36302 0.92787 1.05088 0.0
O260 O 0.48083 0.03938 0.96876 0.0
O261 O 0.47315 0.92404 0.97443 0.0
O262 O 0.45086 0.85758 1.04662 0.0
O263 O 0.54766 0.93947 0.07781 0.0
O264 O 0.61604 0.0846 1.02732 0.0
O265 O 0.64043 0.08 0.09495 0.0
H266 H 0.62835 0.10514 0.25044 0.0
H267 H 0.59778 0.0714 0.32327 0.0
H268 H 0.39597 0.85242 0.29745 0.0
H269 H 0.42533 0.88667 0.22436 0.0
H270 H 0.48499 0.8775 0.90493 0.0
H271 H 0.50307 0.89325 0.83143 0.0
H272 H 0.56237 0.13668 0.82805 0.0
H273 H 0.54199 0.1213 0.90114 0.0
C274 C 0.02121 0.52189 0.19218 0.0
Eu275 Eu 0.97811 0.50155 0.11614 0.0
C276 C 0.0405 0.49837 0.23423 0.0
C277 C 0.98093 0.44947 0.26272 0.0
C278 C -0.00137 0.44555 0.30445 0.0
C279 C 0.07599 0.49096 0.31893 0.0
C280 C 0.13652 0.53329 0.29008 0.0
C281 C 0.11905 0.53719 0.2484 0.0
C282 C 0.87682 0.36857 0.08164 0.0
C283 C 0.06377 0.42556 0.06802 0.0
C284 C -0.00723 0.55564 0.9397 0.0
Eu285 Eu -0.00066 0.53148 1.01895 0.0
C286 C 0.95693 0.53147 0.89956 0.0
C287 C 0.00545 0.5636 0.86503 0.0
C288 C 0.97478 0.54157 0.82651 0.0
C289 C 0.89495 0.48683 0.82171 0.0
C290 C 0.84541 0.45721 0.85598 0.0
C291 C 0.876 0.47974 0.89458 0.0
C292 C 0.10615 0.64896 1.06261 0.0
C293 C 0.87002 0.56154 1.06168 0.0
O294 O 0.07109 0.53973 0.16247 0.0
O295 O 0.94745 0.49434 0.17984 0.0
O296 O 0.8795 0.37415 0.12043 0.0
O297 O 0.92581 0.4337 0.06387 0.0
O298 O 0.06213 0.45922 0.10029 0.0
O299 O 0.03484 0.4375 1.0327 0.0
O300 O 0.95408 0.57143 0.96495 0.0
O301 O 0.03355 0.52375 0.95811 0.0
O302 O 0.12274 0.62934 1.03 0.0
O303 O 0.03411 0.60616 0.07059 0.0
O304 O 0.89344 0.5455 1.02902 0.0
O305 O 0.89868 0.55544 0.09849 0.0
H306 H 0.91971 0.41911 0.25325 0.0
H307 H 0.95037 0.4142 0.32585 0.0
H308 H 0.1962 0.57074 0.30014 0.0
H309 H 0.16654 0.57614 0.2276 0.0
H310 H 0.06781 0.6046 0.86798 0.0
H311 H 0.01428 0.56365 0.80072 0.0
H312 H 0.7839 0.41375 0.85303 0.0
H313 H 0.8368 0.45569 0.92049 0.0
C314 C 0.46737 0.46329 0.94997 0.0
Eu315 Eu 0.45577 0.48632 1.02502 0.0
C316 C 0.51434 0.49098 0.91141 0.0
C317 C 0.49842 0.53525 0.87939 0.0
C318 C 0.52474 0.5411 0.83977 0.0
C319 C 0.56607 0.50152 0.83102 0.0
C320 C 0.59008 0.46563 0.86379 0.0
C321 C 0.5645 0.46021 0.90343 0.0
C322 C 0.49843 0.62523 1.05733 0.0
C323 C 0.62533 0.55091 0.07165 0.0
C324 C 0.44197 0.47281 0.1949 0.0
Eu325 Eu 0.46601 0.4642 0.12085 0.0
C326 C 0.42589 0.48099 0.23606 0.0
C327 C 0.45574 0.45302 0.26955 0.0
C328 C 0.45093 0.47249 0.30802 0.0
C329 C 0.41596 0.51943 0.31307 0.0
C330 C 0.38007 0.54153 0.28034 0.0
C331 C 0.38623 0.52362 0.24183 0.0
C332 C 0.45522 0.34436 0.08312 0.0
C333 C 0.29375 0.40882 0.0778 0.0
O334 O 0.4952 0.43716 0.98137 0.0
O335 O 0.4281 0.49821 0.96023 0.0
O336 O 0.48597 0.61662 1.01886 0.0
O337 O 0.48531 0.56 0.07517 0.0
O338 O 0.58145 0.51906 1.04004 0.0
O339 O 0.59457 0.54451 0.10715 0.0
O340 O 0.40893 0.49406 0.16413 0.0
O341 O 0.48915 0.44575 0.18579 0.0
O342 O 0.49494 0.36758 0.11634 0.0
O343 O 0.41991 0.38366 0.07198 0.0
O344 O 0.33497 0.4079 0.11058 0.0
O345 O 0.32673 0.43445 1.04126 0.0
H346 H 0.4598 0.5595 0.88411 0.0
H347 H 0.50356 0.56739 0.81508 0.0
H348 H 0.62009 0.43295 0.85799 0.0
H349 H 0.57799 0.42536 0.92707 0.0
H350 H 0.48627 0.41988 0.26575 0.0
H351 H 0.47865 0.4553 0.33348 0.0
H352 H 0.35279 0.57762 0.28426 0.0
H353 H 0.36316 0.54642 0.21642 0.0
C354 C 0.20921 0.35926 0.52238 0.0
Eu355 Eu 0.18032 0.34457 0.44513 0.0
C356 C 0.195 0.33196 0.5656 0.0
C357 C 0.24513 0.3823 0.5939 0.0
C358 C 0.22866 0.36284 0.63535 0.0
C359 C 0.16242 0.29236 0.64892 0.0
C360 C 0.11507 0.23967 0.6207 0.0
C361 C 0.13097 0.25955 0.57916 0.0
C362 C 0.15852 0.4578 0.39664 0.0
C363 C 0.00502 0.22512 0.42087 0.0
C364 C 0.14101 0.31471 0.28303 0.0
Eu365 Eu 0.1556 0.31736 0.36214 0.0
C366 C 0.17811 0.33139 0.24238 0.0
C367 C 0.17246 0.26889 0.22225 0.0
C368 C 0.184 0.27796 0.18018 0.0
C369 C 0.20163 0.34963 0.15744 0.0
C370 C 0.21722 0.41463 0.17833 0.0
C371 C 0.20424 0.40534 0.2202 0.0
C372 C 0.17031 0.20007 0.40751 0.0
C373 C 0.33158 0.44418 0.39149 0.0
O374 O 0.23844 0.32753 0.50066 0.0
O375 O 0.15917 0.37727 0.50228 0.0
O376 O 0.21493 0.47017 0.42243 0.0
O377 O 0.11681 0.38456 0.39541 0.0
O378 O 0.05577 0.24182 0.4511 0.0
O379 O 0.02969 0.2612 0.38421 0.0
O380 O 0.1475 0.37271 0.30209 0.0
O381 O 0.13982 0.25738 0.30776 0.0
O382 O 0.11753 0.19092 0.37996 0.0
O383 O 0.21433 0.2728 0.41114 0.0
O384 O 0.28271 0.41794 0.36065 0.0
O385 O 0.3071 0.41334 0.42828 0.0
H386 H 0.29502 0.43848 0.58378 0.0
H387 H 0.26445 0.40473 0.65661 0.0
H388 H 0.06263 0.18575 0.63078 0.0
H389 H 0.092 0.22 0.55769 0.0
H390 H 0.15166 0.21084 0.23826 0.0
H391 H 0.16974 0.22658 0.16476 0.0
H392 H 0.22904 0.47001 0.16138 0.0
H393 H 0.20866 0.45463 0.23447 0.0
C394 C 0.68787 0.85522 0.52551 0.0
Eu395 Eu 0.64478 0.83488 0.44948 0.0
C396 C 0.70716 0.8317 0.56756 0.0
C397 C 0.6476 0.7828 0.59605 0.0
C398 C 0.66529 0.77888 0.63778 0.0
C399 C 0.74265 0.82429 0.65227 0.0
C400 C 0.80318 0.86663 0.62342 0.0
C401 C 0.78572 0.87052 0.58173 0.0
C402 C 0.54348 0.70191 0.41497 0.0
C403 C 0.73043 0.75889 0.40135 0.0
C404 C 0.65943 0.88898 0.27303 0.0
Eu405 Eu 0.666 0.86481 0.35229 0.0
C406 C 0.6236 0.86481 0.2329 0.0
C407 C 0.67212 0.89693 0.19836 0.0
C408 C 0.64144 0.87491 0.15985 0.0
C409 C 0.56162 0.82016 0.15504 0.0
C410 C 0.51208 0.79054 0.18931 0.0
C411 C 0.54266 0.81307 0.22792 0.0
C412 C 0.77282 0.9823 0.39595 0.0
C413 C 0.53669 0.89487 0.39501 0.0
O414 O 0.73775 0.87306 0.4958 0.0
O415 O 0.61412 0.82767 0.51317 0.0
O416 O 0.54616 0.70748 0.45377 0.0
O417 O 0.59247 0.76703 0.3972 0.0
O418 O 0.72879 0.79255 0.43363 0.0
O419 O 0.7015 0.77084 0.36603 0.0
O420 O 0.62075 0.90476 0.29829 0.0
O421 O 0.70022 0.85708 0.29144 0.0
O422 O 0.78941 0.96268 0.36334 0.0
O423 O 0.70078 0.93949 0.40393 0.0
O424 O 0.56011 0.87884 0.36235 0.0
O425 O 0.56535 0.88877 0.43182 0.0
H426 H 0.58637 0.75244 0.58658 0.0
H427 H 0.61703 0.74753 0.65918 0.0
H428 H 0.86286 0.90408 0.63348 0.0
H429 H 0.83321 0.90947 0.56094 0.0
H430 H 0.73448 0.93793 0.20131 0.0
H431 H 0.68095 0.89698 0.13405 0.0
H432 H 0.45057 0.74709 0.18637 0.0
H433 H 0.50347 0.78902 0.25382 0.0
C434 C 0.13403 0.79662 0.28331 0.0
Eu435 Eu 0.12244 0.81965 0.35835 0.0
C436 C 0.18101 0.82431 0.24475 0.0
C437 C 0.16509 0.86858 0.21272 0.0
C438 C 0.19141 0.87443 0.1731 0.0
C439 C 0.23273 0.83485 0.16436 0.0
C440 C 0.25675 0.79896 0.19713 0.0
C441 C 0.23116 0.79354 0.23676 0.0
C442 C 0.16509 0.95857 0.39066 0.0
C443 C 0.29199 0.88424 0.40499 0.0
C444 C 0.10863 0.80614 0.52823 0.0
Eu445 Eu 0.13267 0.79754 0.45418 0.0
C446 C 0.09256 0.81432 0.56939 0.0
C447 C 0.12241 0.78636 0.60288 0.0
C448 C 0.11759 0.80583 0.64136 0.0
C449 C 0.08263 0.85276 0.6464 0.0
C450 C 0.04674 0.87486 0.61367 0.0
C451 C 0.0529 0.85695 0.57516 0.0
C452 C 0.12189 0.67769 0.41645 0.0
C453 C 0.96042 0.74215 0.41113 0.0
O454 O 0.16186 0.7705 0.3147 0.0
O455 O 0.09476 0.83155 0.29356 0.0
O456 O 0.15264 0.94996 0.35219 0.0
O457 O 0.15198 0.89333 0.40851 0.0
O458 O 0.24812 0.85239 0.37337 0.0
O459 O 0.26124 0.87784 0.44048 0.0
O460 O 0.07559 0.82739 0.49746 0.0
O461 O 0.15581 0.77908 0.51912 0.0
O462 O 0.16161 0.70091 0.44967 0.0
O463 O 0.08657 0.717 0.40531 0.0
O464 O 0.00163 0.74123 0.44391 0.0
O465 O -0.0066 0.76778 0.37459 0.0
H466 H 0.12647 0.89283 0.21745 0.0
H467 H 0.17023 0.90073 0.14841 0.0
H468 H 0.28676 0.76628 0.19132 0.0
H469 H 0.24466 0.7587 0.2604 0.0
H470 H 0.15294 0.75321 0.59908 0.0
H471 H 0.14532 0.78863 0.66681 0.0
H472 H 0.01946 0.91095 0.61759 0.0
H473 H 0.02982 0.87975 0.54975 0.0
C474 C 0.87588 0.6926 0.85572 0.0
Eu475 Eu 0.84699 0.6779 0.77846 0.0
C476 C 0.86167 0.66529 0.89893 0.0
C477 C 0.9118 0.71564 0.92723 0.0
C478 C 0.89533 0.69618 0.96868 0.0
C479 C 0.82908 0.6257 0.98226 0.0
C480 C 0.78173 0.57301 0.95403 0.0
C481 C 0.79764 0.59288 0.9125 0.0
C482 C 0.82518 0.79114 0.72997 0.0
C483 C 0.67169 0.55845 0.7542 0.0
C484 C 0.80768 0.64805 0.61636 0.0
Eu485 Eu 0.82227 0.65069 0.69547 0.0
C486 C 0.84477 0.66473 0.57572 0.0
C487 C 0.83912 0.60223 0.55558 0.0
C488 C 0.85067 0.6113 0.51351 0.0
C489 C 0.8683 0.68297 0.49078 0.0
C490 C 0.88389 0.74797 0.51166 0.0
C491 C 0.8709 0.73868 0.55353 0.0
C492 C 0.83698 0.5334 0.74084 0.0
C493 C -0.00175 0.77752 0.72483 0.0
O494 O 0.90511 0.66087 0.83399 0.0
O495 O 0.82583 0.71061 0.83561 0.0
O496 O 0.88159 0.8035 0.75577 0.0
O497 O 0.78347 0.7179 0.72874 0.0
O498 O 0.72244 0.57516 0.78443 0.0
O499 O 0.69636 0.59453 0.71754 0.0
O500 O 0.81416 0.70605 0.63542 0.0
O501 O 0.80649 0.59071 0.64109 0.0
O502 O 0.7842 0.52425 0.71329 0.0
O503 O 0.881 0.60613 0.74448 0.0
O504 O 0.94937 0.75127 0.69398 0.0
O505 O 0.97377 0.74667 0.76161 0.0
H506 H 0.96168 0.77181 0.91711 0.0
H507 H 0.93111 0.73807 0.98994 0.0
H508 H 0.7293 0.51908 0.96411 0.0
H509 H 0.75867 0.55333 0.89103 0.0
H510 H 0.81833 0.54417 0.57159 0.0
H511 H 0.83641 0.55991 0.4981 0.0
H512 H 0.89571 0.80334 0.49471 0.0
H513 H 0.87533 0.78797 0.5678 0.0
C514 C 0.35454 0.18855 0.85884 0.0
Eu515 Eu 0.31145 0.16822 0.78281 0.0
C516 C 0.37383 0.16503 0.9009 0.0
C517 C 0.31426 0.11613 0.92938 0.0
C518 C 0.33196 0.11222 0.97111 0.0
C519 C 0.40932 0.15763 0.9856 0.0
C520 C 0.46985 0.19996 0.95675 0.0
C521 C 0.45239 0.20386 0.91507 0.0
C522 C 0.21015 0.03524 0.7483 0.0
C523 C 0.3971 0.09222 0.73468 0.0
C524 C 0.3261 0.22231 0.60636 0.0
Eu525 Eu 0.33267 0.19815 0.68562 0.0
C526 C 0.29027 0.19814 0.56623 0.0
C527 C 0.33878 0.23027 0.5317 0.0
C528 C 0.30811 0.20824 0.49318 0.0
C529 C 0.22829 0.15349 0.48837 0.0
C530 C 0.17875 0.12388 0.52265 0.0
C531 C 0.20933 0.14641 0.56125 0.0
C532 C 0.43949 0.31563 0.72928 0.0
C533 C 0.20336 0.2282 0.72834 0.0
O534 O 0.40442 0.20639 0.82914 0.0
O535 O 0.28078 0.16101 0.84651 0.0
O536 O 0.21283 0.04081 0.7871 0.0
O537 O 0.25914 0.10037 0.73053 0.0
O538 O 0.39546 0.12588 0.76696 0.0
O539 O 0.36817 0.10417 0.69937 0.0
O540 O 0.28742 0.23809 0.63162 0.0
O541 O 0.36688 0.19041 0.62478 0.0
O542 O 0.45608 0.29601 0.69667 0.0
O543 O 0.36744 0.27282 0.73726 0.0
O544 O 0.22677 0.21217 0.69568 0.0
O545 O 0.23202 0.2221 0.76516 0.0
H546 H 0.25304 0.08577 0.91992 0.0
H547 H 0.2837 0.08087 0.99252 0.0
H548 H 0.52953 0.23741 0.96681 0.0
H549 H 0.49987 0.24281 0.89427 0.0
H550 H 0.40114 0.27126 0.53465 0.0
H551 H 0.34762 0.23031 0.46738 0.0
H552 H 0.11724 0.08042 0.5197 0.0
H553 H 0.17013 0.12235 0.58716 0.0
C554 C 0.8007 0.12996 0.61664 0.0
Eu555 Eu 0.78911 0.15299 0.69169 0.0
C556 C 0.84768 0.15765 0.57808 0.0
C557 C 0.83176 0.20192 0.54605 0.0
C558 C 0.85808 0.20777 0.50643 0.0
C559 C 0.8994 0.16819 0.49769 0.0
C560 C 0.92342 0.1323 0.53046 0.0
C561 C 0.89783 0.12688 0.5701 0.0
C562 C 0.83176 0.2919 0.72399 0.0
C563 C 0.95866 0.21758 0.73832 0.0
C564 C 0.7753 0.13947 0.86156 0.0
Eu565 Eu 0.79934 0.13087 0.78751 0.0
C566 C 0.75923 0.14765 0.90273 0.0
C567 C 0.78907 0.11969 0.93621 0.0
C568 C 0.78426 0.13916 0.97469 0.0
C569 C 0.74929 0.18609 0.97973 0.0
C570 C 0.71341 0.20819 0.94701 0.0
C571 C 0.71957 0.19028 0.9085 0.0
C572 C 0.78855 0.01103 0.74979 0.0
C573 C 0.62708 0.07548 0.74446 0.0
O574 O 0.82853 0.10383 0.64804 0.0
O575 O 0.76143 0.16488 0.6269 0.0
O576 O 0.8193 0.28329 0.68552 0.0
O577 O 0.81865 0.22666 0.74184 0.0
O578 O 0.91478 0.18572 0.70671 0.0
O579 O 0.92791 0.21117 0.77382 0.0
O580 O 0.74226 0.16073 0.83079 0.0
O581 O 0.82248 0.11241 0.85245 0.0
O582 O 0.82828 0.03424 0.783 0.0
O583 O 0.75324 0.05033 0.73864 0.0
O584 O 0.6683 0.07457 0.77725 0.0
O585 O 0.66006 0.10111 0.70793 0.0
H586 H 0.79313 0.22617 0.55078 0.0
H587 H 0.8369 0.23406 0.48174 0.0
H588 H 0.95343 0.09962 0.52465 0.0
H589 H 0.91132 0.09203 0.59374 0.0
H590 H 0.81961 0.08654 0.93241 0.0
H591 H 0.81198 0.12196 1.00015 0.0
H592 H 0.68613 0.24429 0.95093 0.0
H593 H 0.69649 0.21308 0.88309 0.0
loop_
_geom_bond_atom_site_label_1
_geom_bond_atom_site_label_2
_geom_bond_distance
_geom_bond_site_symmetry_2
_ccdc_geom_bond_type
C0 N1 1.317 . S
C0 N2 1.348 . S
C0 C3 1.485 . S
N1 C0 1.317 . S
N1 N5 1.370 . S
N2 C0 1.348 . S
N2 C4 1.346 . S
C3 C0 1.485 . S
C3 H7 0.960 . S
C3 H8 0.961 . S
C3 H9 0.960 . S
C4 N2 1.346 . S
C4 N5 1.307 . S
C4 C6 1.486 . S
N5 N1 1.370 . S
N5 C4 1.307 . S
C6 C4 1.486 . S
C6 H10 0.960 . S
C6 H11 0.960 1_545 S
C6 H12 0.959 . S
H7 C3 0.960 . S
H8 C3 0.961 . S
H9 C3 0.960 . S
H10 C6 0.960 . S
H11 C6 0.960 1_565 S
H12 C6 0.959 . S
C13 N14 1.317 . S
C13 N15 1.348 . S
C13 C16 1.485 . S
N14 C13 1.317 . S
N14 N18 1.370 . S
N15 C13 1.348 . S
N15 C17 1.346 . S
C16 C13 1.485 . S
C16 H20 0.960 . S
C16 H21 0.961 . S
C16 H22 0.960 . S
C17 N15 1.346 . S
C17 N18 1.307 . S
C17 C19 1.486 . S
N18 N14 1.370 . S
N18 C17 1.307 . S
C19 C17 1.486 . S
C19 H23 0.960 1_545 S
C19 H24 0.960 . S
C19 H25 0.959 . S
H20 C16 0.960 . S
H21 C16 0.961 . S
H22 C16 0.960 . S
H23 C19 0.960 1_565 S
H24 C19 0.960 . S
H25 C19 0.959 . S
C26 N27 1.317 . S
C26 N28 1.348 . S
C26 C29 1.485 . S
N27 C26 1.317 . S
N27 N31 1.370 . S
N28 C26 1.348 . S
N28 C30 1.346 . S
C29 C26 1.485 . S
C29 H33 0.960 . S
C29 H34 0.961 . S
C29 H35 0.960 . S
C30 N28 1.346 . S
C30 N31 1.307 . S
C30 C32 1.486 . S
N31 N27 1.370 . S
N31 C30 1.307 . S
C32 C30 1.486 . S
C32 H36 0.960 . S
C32 H37 0.960 . S
C32 H38 0.959 . S
H33 C29 0.960 . S
H34 C29 0.961 . S
H35 C29 0.960 . S
H36 C32 0.960 . S
H37 C32 0.960 . S
H38 C32 0.959 . S
C39 N40 1.317 . S
C39 N41 1.348 1_455 S
C39 C42 1.485 . S
N40 C39 1.317 . S
N40 N44 1.370 . S
N41 C39 1.348 1_655 S
N41 C43 1.346 1_655 S
C42 C39 1.485 . S
C42 H46 0.960 . S
C42 H47 0.961 . S
C42 H48 0.960 . S
C43 N41 1.346 1_455 S
C43 N44 1.307 . S
C43 C45 1.486 1_455 S
N44 N40 1.370 . S
N44 C43 1.307 . S
C45 C43 1.486 1_655 S
C45 H49 0.960 . S
C45 H50 0.960 . S
C45 H51 0.959 . S
H46 C42 0.960 . S
H47 C42 0.961 . S
H48 C42 0.960 . S
H49 C45 0.960 . S
H50 C45 0.960 . S
H51 C45 0.959 . S
C52 N53 1.317 . S
C52 N54 1.348 . S
C52 C55 1.485 . S
N53 C52 1.317 . S
N53 N57 1.370 . S
N54 C52 1.348 . S
N54 C56 1.346 . S
C55 C52 1.485 . S
C55 H59 0.960 . S
C55 H60 0.961 . S
C55 H61 0.960 . S
C56 N54 1.346 . S
C56 N57 1.307 . S
C56 C58 1.486 . S
N57 N53 1.370 . S
N57 C56 1.307 . S
C58 C56 1.486 . S
C58 H62 0.960 1_565 S
C58 H63 0.960 . S
C58 H64 0.959 . S
H59 C55 0.960 . S
H60 C55 0.961 . S
H61 C55 0.960 . S
H62 C58 0.960 1_545 S
H63 C58 0.960 . S
H64 C58 0.959 . S
C65 N66 1.317 . S
C65 N67 1.348 . S
C65 C68 1.485 . S
N66 C65 1.317 . S
N66 N70 1.370 . S
N67 C65 1.348 . S
N67 C69 1.346 . S
C68 C65 1.485 . S
C68 H72 0.960 . S
C68 H73 0.961 . S
C68 H74 0.960 . S
C69 N67 1.346 . S
C69 N70 1.307 . S
C69 C71 1.486 . S
N70 N66 1.370 . S
N70 C69 1.307 . S
C71 C69 1.486 . S
C71 H75 0.960 . S
C71 H76 0.960 1_565 S
C71 H77 0.959 . S
H72 C68 0.960 . S
H73 C68 0.961 . S
H74 C68 0.960 . S
H75 C71 0.960 . S
H76 C71 0.960 1_545 S
H77 C71 0.959 . S
C78 N79 1.317 . S
C78 N80 1.348 . S
C78 C81 1.485 . S
N79 C78 1.317 . S
N79 N83 1.370 . S
N80 C78 1.348 . S
N80 C82 1.346 . S
C81 C78 1.485 . S
C81 H85 0.960 . S
C81 H86 0.961 . S
C81 H87 0.960 . S
C82 N80 1.346 . S
C82 N83 1.307 . S
C82 C84 1.486 . S
N83 N79 1.370 . S
N83 C82 1.307 . S
C84 C82 1.486 . S
C84 H88 0.946 1_655 S
C84 H89 0.960 . S
C84 H90 0.959 . S
H85 C81 0.960 . S
H86 C81 0.961 . S
H87 C81 0.960 . S
H88 C84 0.946 1_455 S
H89 C84 0.960 . S
H90 C84 0.959 . S
C91 N92 1.317 . S
C91 N93 1.348 . S
C91 C94 1.485 . S
N92 C91 1.317 . S
N92 N96 1.370 . S
N93 C91 1.348 . S
N93 C95 1.346 . S
C94 C91 1.485 . S
C94 H98 0.960 . S
C94 H99 0.961 . S
C94 H100 0.960 . S
C95 N93 1.346 . S
C95 N96 1.307 . S
C95 C97 1.486 . S
N96 N92 1.370 . S
N96 C95 1.307 . S
C97 C95 1.486 . S
C97 H101 0.960 . S
C97 H102 0.960 . S
C97 H103 0.959 . S
H98 C94 0.960 . S
H99 C94 0.961 . S
H100 C94 0.960 . S
H101 C97 0.960 . S
H102 C97 0.960 . S
H103 C97 0.959 . S
C104 N105 1.317 . S
C104 N106 1.348 . S
C104 C107 1.485 . S
N105 C104 1.317 . S
N105 N109 1.370 . S
N106 C104 1.348 . S
N106 C108 1.346 . S
C107 C104 1.485 . S
C107 H111 0.960 . S
C107 H112 0.961 . S
C107 H113 0.960 . S
C108 N106 1.346 . S
C108 N109 1.307 . S
C108 C110 1.486 . S
N109 N105 1.370 . S
N109 C108 1.307 . S
C110 C108 1.486 . S
C110 H114 0.960 . S
C110 H115 0.960 . S
C110 H116 0.959 . S
H111 C107 0.960 . S
H112 C107 0.961 . S
H113 C107 0.960 . S
H114 C110 0.960 . S
H115 C110 0.960 . S
H116 C110 0.959 . S
C117 N118 1.317 . S
C117 N119 1.348 . S
C117 C120 1.485 1_556 S
N118 C117 1.317 . S
N118 N122 1.370 . S
N119 C117 1.348 . S
N119 C121 1.346 . S
C120 C117 1.485 1_554 S
C120 H124 0.960 . S
C120 H125 0.961 . S
C120 H126 0.960 . S
C121 N119 1.346 . S
C121 N122 1.307 . S
C121 C123 1.486 . S
N122 N118 1.370 . S
N122 C121 1.307 . S
C123 C121 1.486 . S
C123 H127 0.960 . S
C123 H128 0.960 . S
C123 H129 0.959 . S
H124 C120 0.960 . S
H125 C120 0.961 . S
H126 C120 0.960 . S
H127 C123 0.960 . S
H128 C123 0.960 . S
H129 C123 0.959 . S
C130 N131 1.317 1_554 S
C130 N132 1.348 1_554 S
C130 C133 1.485 . S
N131 C130 1.317 1_556 S
N131 N135 1.370 . S
N132 C130 1.348 1_556 S
N132 C134 1.346 . S
C133 C130 1.485 . S
C133 H137 0.960 . S
C133 H138 0.961 . S
C133 H139 0.960 . S
C134 N132 1.346 . S
C134 N135 1.307 . S
C134 C136 1.486 . S
N135 N131 1.370 . S
N135 C134 1.307 . S
C136 C134 1.486 . S
C136 H140 0.960 . S
C136 H141 0.960 . S
C136 H142 0.959 . S
H137 C133 0.960 . S
H138 C133 0.961 . S
H139 C133 0.960 . S
H140 C136 0.960 . S
H141 C136 0.960 . S
H142 C136 0.959 . S
C143 N144 1.317 1_554 S
C143 N145 1.348 1_554 S
C143 C146 1.485 . S
N144 C143 1.317 1_556 S
N144 N148 1.370 . S
N145 C143 1.348 1_556 S
N145 C147 1.346 . S
C146 C143 1.485 . S
C146 H150 0.960 . S
C146 H151 0.961 . S
C146 H152 0.960 . S
C147 N145 1.346 . S
C147 N148 1.307 . S
C147 C149 1.486 . S
N148 N144 1.370 . S
N148 C147 1.307 . S
C149 C147 1.486 . S
C149 H153 0.960 . S
C149 H154 0.960 . S
C149 H155 0.959 . S
H150 C146 0.960 . S
H151 C146 0.961 . S
H152 C146 0.960 . S
H153 C149 0.960 . S
H154 C149 0.960 . S
H155 C149 0.959 . S
C156 N157 1.317 . S
C156 N158 1.348 . S
C156 C159 1.485 1_554 S
N157 C156 1.317 . S
N157 N161 1.370 . S
N158 C156 1.348 . S
N158 C160 1.346 . S
C159 C156 1.485 1_556 S
C159 H163 0.960 . S
C159 H164 0.961 . S
C159 H165 0.960 . S
C160 N158 1.346 . S
C160 N161 1.307 . S
C160 C162 1.486 . S
N161 N157 1.370 . S
N161 C160 1.307 . S
C162 C160 1.486 . S
C162 H166 0.960 . S
C162 H167 0.960 . S
C162 H168 0.959 . S
H163 C159 0.960 . S
H164 C159 0.961 . S
H165 C159 0.960 . S
H166 C162 0.960 . S
H167 C162 0.960 . S
H168 C162 0.959 . S
C169 N170 1.317 . S
C169 N171 1.348 . S
C169 C172 1.485 1_554 S
N170 C169 1.317 . S
N170 N174 1.370 . S
N171 C169 1.348 . S
N171 C173 1.346 . S
C172 C169 1.485 1_556 S
C172 H176 0.960 . S
C172 H177 0.961 . S
C172 H178 0.960 . S
C173 N171 1.346 . S
C173 N174 1.307 . S
C173 C175 1.486 . S
N174 N170 1.370 . S
N174 C173 1.307 . S
C175 C173 1.486 . S
C175 H179 0.960 . S
C175 H180 0.960 . S
C175 H181 0.959 . S
H176 C172 0.960 . S
H177 C172 0.961 . S
H178 C172 0.960 . S
H179 C175 0.960 . S
H180 C175 0.960 . S
H181 C175 0.959 . S
C182 N183 1.317 . S
C182 N184 1.348 . S
C182 C185 1.485 1_554 S
N183 C182 1.317 . S
N183 N187 1.370 . S
N184 C182 1.348 . S
N184 C186 1.346 . S
C185 C182 1.485 1_556 S
C185 H189 0.960 . S
C185 H190 0.961 . S
C185 H191 0.960 . S
C186 N184 1.346 . S
C186 N187 1.307 . S
C186 C188 1.486 . S
N187 N183 1.370 . S
N187 C186 1.307 . S
C188 C186 1.486 . S
C188 H192 0.960 . S
C188 H193 0.960 . S
C188 H194 0.959 . S
H189 C185 0.960 . S
H190 C185 0.961 . S
H191 C185 0.960 . S
H192 C188 0.960 . S
H193 C188 0.960 . S
H194 C188 0.959 . S
C195 N196 1.317 . S
C195 N197 1.348 . S
C195 C198 1.485 . S
N196 C195 1.317 . S
N196 N200 1.370 . S
N197 C195 1.348 . S
N197 C199 1.346 . S
C198 C195 1.485 . S
C198 H202 0.960 . S
C198 H203 0.961 . S
C198 H204 0.960 . S
C199 N197 1.346 . S
C199 N200 1.307 . S
C199 C201 1.486 . S
N200 N196 1.370 . S
N200 C199 1.307 . S
C201 C199 1.486 . S
C201 H205 0.960 . S
C201 H206 0.960 . S
C201 H207 0.959 . S
H202 C198 0.960 . S
H203 C198 0.961 . S
H204 C198 0.960 . S
H205 C201 0.960 . S
H206 C201 0.960 . S
H207 C201 0.959 . S
C208 N209 1.317 . S
C208 N210 1.348 . S
C208 C211 1.485 . S
N209 C208 1.317 . S
N209 N213 1.370 . S
N210 C208 1.348 . S
N210 C212 1.346 . S
C211 C208 1.485 . S
C211 H215 0.960 . S
C211 H216 0.961 . S
C211 H217 0.960 . S
C212 N210 1.346 . S
C212 N213 1.307 . S
C212 C214 1.486 . S
N213 N209 1.370 . S
N213 C212 1.307 . S
C214 C212 1.486 . S
C214 H218 0.960 . S
C214 H219 0.960 1_455 S
C214 H220 0.959 . S
H215 C211 0.960 . S
H216 C211 0.961 . S
H217 C211 0.960 . S
H218 C214 0.960 . S
H219 C214 0.960 1_655 S
H220 C214 0.959 . S
C221 N222 1.317 . S
C221 N223 1.348 . S
C221 C224 1.485 . S
N222 C221 1.317 . S
N222 N226 1.370 . S
N223 C221 1.348 . S
N223 C225 1.346 . S
C224 C221 1.485 . S
C224 H228 0.960 . S
C224 H229 0.961 . S
C224 H230 0.960 . S
C225 N223 1.346 . S
C225 N226 1.307 . S
C225 C227 1.486 . S
N226 N222 1.370 . S
N226 C225 1.307 . S
C227 C225 1.486 . S
C227 H231 0.960 . S
C227 H232 0.960 . S
C227 H233 0.959 . S
H228 C224 0.960 . S
H229 C224 0.961 . S
H230 C224 0.960 . S
H231 C227 0.960 . S
H232 C227 0.960 . S
H233 C227 0.959 . S
C234 Eu235 2.835 1_565 S
C234 C236 1.500 . S
C234 O254 1.257 . S
C234 O255 1.260 1_565 S
Eu235 C234 2.835 1_545 S
Eu235 O254 2.473 1_545 S
Eu235 O255 2.480 . S
Eu235 O256 2.430 . S
Eu235 O257 2.670 1_554 S
Eu235 O258 2.394 1_545 S
Eu235 O263 2.355 1_545 S
Eu235 O265 2.374 . S
C236 C234 1.500 . S
C236 C237 1.377 . S
C236 C241 1.377 . S
C237 C236 1.377 . S
C237 C238 1.395 . S
C237 H266 0.931 1_565 S
C238 C237 1.395 . S
C238 C239 1.383 . S
C238 H267 0.931 1_565 S
C239 C238 1.383 . S
C239 C240 1.394 . S
C240 C239 1.394 . S
C240 C241 1.378 . S
C240 H268 0.931 . S
C241 C236 1.377 . S
C241 C240 1.378 . S
C241 H269 0.931 . S
C242 O256 1.259 . S
C242 O257 1.270 1_554 S
C243 O258 1.251 . S
C243 O259 1.251 1_554 S
C244 Eu245 2.835 1_545 S
C244 C246 1.500 . S
C244 O260 1.257 . S
C244 O261 1.260 1_545 S
Eu245 C244 2.835 1_565 S
Eu245 O257 2.355 1_565 S
Eu245 O259 2.374 . S
Eu245 O260 2.473 1_565 S
Eu245 O261 2.480 . S
Eu245 O262 2.430 . S
Eu245 O263 2.670 1_556 S
Eu245 O264 2.394 1_565 S
C246 C244 1.500 . S
C246 C247 1.377 . S
C246 C251 1.377 . S
C247 C246 1.377 . S
C247 C248 1.395 . S
C247 H270 0.931 1_545 S
C248 C247 1.395 . S
C248 C249 1.383 . S
C248 H271 0.929 1_545 S
C249 C248 1.383 . S
C249 C250 1.394 . S
C250 C249 1.394 . S
C250 C251 1.378 . S
C250 H272 0.931 . S
C251 C246 1.377 . S
C251 C250 1.378 . S
C251 H273 0.931 . S
C252 O262 1.259 1_554 S
C252 O263 1.270 . S
C253 O264 1.251 . S
C253 O265 1.251 1_556 S
O254 C234 1.257 . S
O254 Eu235 2.473 1_565 S
O255 C234 1.260 1_545 S
O255 Eu235 2.480 . S
O256 Eu235 2.430 . S
O256 C242 1.259 . S
O257 Eu235 2.670 1_556 S
O257 C242 1.270 1_556 S
O257 Eu245 2.355 1_545 S
O258 Eu235 2.394 1_565 S
O258 C243 1.251 . S
O259 C243 1.251 1_556 S
O259 Eu245 2.374 . S
O260 C244 1.257 . S
O260 Eu245 2.473 1_545 S
O261 C244 1.260 1_565 S
O261 Eu245 2.480 . S
O262 Eu245 2.430 . S
O262 C252 1.259 1_556 S
O263 Eu235 2.355 1_565 S
O263 Eu245 2.670 1_554 S
O263 C252 1.270 . S
O264 Eu245 2.394 1_545 S
O264 C253 1.251 . S
O265 Eu235 2.374 . S
O265 C253 1.251 1_554 S
H266 C237 0.931 1_545 S
H267 C238 0.931 1_545 S
H268 C240 0.931 . S
H269 C241 0.931 . S
H270 C247 0.931 1_565 S
H271 C248 0.929 1_565 S
H272 C250 0.931 . S
H273 C251 0.931 . S
C274 Eu275 2.832 1_455 S
C274 C276 1.503 . S
C274 O294 1.259 . S
C274 O295 1.256 1_455 S
Eu275 C274 2.832 1_655 S
Eu275 O294 2.473 1_655 S
Eu275 O295 2.480 . S
Eu275 O296 2.430 . S
Eu275 O297 2.670 1_554 S
Eu275 O298 2.394 1_655 S
Eu275 O303 2.355 1_655 S
Eu275 O305 2.374 . S
C276 C274 1.503 . S
C276 C277 1.377 1_455 S
C276 C281 1.377 . S
C277 C276 1.377 1_655 S
C277 C278 1.395 1_655 S
C277 H306 0.931 . S
C278 C277 1.395 1_455 S
C278 C279 1.383 . S
C278 H307 0.931 1_455 S
C279 C278 1.383 . S
C279 C280 1.394 . S
C280 C279 1.394 . S
C280 C281 1.378 . S
C280 H308 0.931 . S
C281 C276 1.377 . S
C281 C280 1.378 . S
C281 H309 0.931 . S
C282 O296 1.259 1_556 S
C282 O297 1.270 . S
C283 O298 1.251 . S
C283 O299 1.275 . S
C284 Eu285 2.835 . S
C284 C286 1.500 1_455 S
C284 O300 1.257 1_455 S
C284 O301 1.260 . S
Eu285 C284 2.835 . S
Eu285 O297 2.355 1_455 S
Eu285 O299 2.357 1_556 S
Eu285 O300 2.473 1_455 S
Eu285 O301 2.480 . S
Eu285 O302 2.430 . S
Eu285 O303 2.670 1_556 S
Eu285 O304 2.394 1_455 S
C286 C284 1.500 1_655 S
C286 C287 1.377 1_655 S
C286 C291 1.377 . S
C287 C286 1.377 1_455 S
C287 C288 1.395 . S
C287 H310 0.931 . S
C288 C287 1.395 . S
C288 C289 1.383 1_455 S
C288 H311 0.931 . S
C289 C288 1.383 1_655 S
C289 C290 1.394 . S
C290 C289 1.394 . S
C290 C291 1.378 . S
C290 H312 0.931 . S
C291 C286 1.377 . S
C291 C290 1.378 . S
C291 H313 0.931 . S
C292 O302 1.259 1_554 S
C292 O303 1.270 . S
C293 O304 1.251 . S
C293 O305 1.251 1_556 S
O294 C274 1.259 . S
O294 Eu275 2.473 1_455 S
O295 C274 1.256 1_655 S
O295 Eu275 2.480 . S
O296 Eu275 2.430 . S
O296 C282 1.259 1_554 S
O297 Eu275 2.670 1_556 S
O297 C282 1.270 . S
O297 Eu285 2.355 1_655 S
O298 Eu275 2.394 1_455 S
O298 C283 1.251 . S
O299 C283 1.275 . S
O299 Eu285 2.357 1_554 S
O300 C284 1.257 1_655 S
O300 Eu285 2.473 1_655 S
O301 C284 1.260 . S
O301 Eu285 2.480 . S
O302 Eu285 2.430 . S
O302 C292 1.259 1_556 S
O303 Eu275 2.355 1_455 S
O303 Eu285 2.670 1_554 S
O303 C292 1.270 . S
O304 Eu285 2.394 1_655 S
O304 C293 1.251 . S
O305 Eu275 2.374 . S
O305 C293 1.251 1_554 S
H306 C277 0.931 . S
H307 C278 0.931 1_655 S
H308 C280 0.931 . S
H309 C281 0.931 . S
H310 C287 0.931 . S
H311 C288 0.931 . S
H312 C290 0.931 . S
H313 C291 0.931 . S
C314 Eu315 2.835 . S
C314 C316 1.500 . S
C314 O334 1.257 . S
C314 O335 1.260 . S
Eu315 C314 2.835 . S
Eu315 O334 2.473 . S
Eu315 O335 2.480 . S
Eu315 O336 2.430 . S
Eu315 O337 2.670 1_556 S
Eu315 O338 2.394 . S
Eu315 O343 2.355 . S
Eu315 O345 2.374 1_556 S
C316 C314 1.500 . S
C316 C317 1.377 . S
C316 C321 1.377 . S
C317 C316 1.377 . S
C317 C318 1.395 . S
C317 H346 0.931 . S
C318 C317 1.395 . S
C318 C319 1.383 . S
C318 H347 0.931 . S
C319 C318 1.383 . S
C319 C320 1.394 . S
C320 C319 1.394 . S
C320 C321 1.378 . S
C320 H348 0.931 . S
C321 C316 1.377 . S
C321 C320 1.378 . S
C321 H349 0.931 . S
C322 O336 1.259 1_554 S
C322 O337 1.270 . S
C323 O338 1.251 . S
C323 O339 1.251 1_556 S
C324 Eu325 2.835 . S
C324 C326 1.500 . S
C324 O340 1.257 . S
C324 O341 1.260 . S
Eu325 C324 2.835 . S
Eu325 O337 2.355 . S
Eu325 O339 2.374 . S
Eu325 O340 2.473 . S
Eu325 O341 2.480 . S
Eu325 O342 2.430 . S
Eu325 O343 2.670 1_554 S
Eu325 O344 2.394 . S
C326 C324 1.500 . S
C326 C327 1.377 . S
C326 C331 1.377 . S
C327 C326 1.377 . S
C327 C328 1.395 . S
C327 H350 0.931 . S
C328 C327 1.395 . S
C328 C329 1.383 . S
C328 H351 0.931 . S
C329 C328 1.383 . S
C329 C330 1.394 . S
C330 C329 1.394 . S
C330 C331 1.378 . S
C330 H352 0.931 . S
C331 C326 1.377 . S
C331 C330 1.378 . S
C331 H353 0.931 . S
C332 O342 1.259 . S
C332 O343 1.270 1_554 S
C333 O344 1.251 . S
C333 O345 1.251 . S
O334 C314 1.257 . S
O334 Eu315 2.473 . S
O335 C314 1.260 . S
O335 Eu315 2.480 . S
O336 Eu315 2.430 . S
O336 C322 1.259 1_556 S
O337 Eu315 2.670 1_554 S
O337 C322 1.270 . S
O337 Eu325 2.355 . S
O338 Eu315 2.394 . S
O338 C323 1.251 . S
O339 C323 1.251 1_554 S
O339 Eu325 2.374 . S
O340 C324 1.257 . S
O340 Eu325 2.473 . S
O341 C324 1.260 . S
O341 Eu325 2.480 . S
O342 Eu325 2.430 . S
O342 C332 1.259 . S
O343 Eu315 2.355 . S
O343 Eu325 2.670 1_556 S
O343 C332 1.270 1_556 S
O344 Eu325 2.394 . S
O344 C333 1.251 . S
O345 Eu315 2.374 1_554 S
O345 C333 1.251 . S
H346 C317 0.931 . S
H347 C318 0.931 . S
H348 C320 0.931 . S
H349 C321 0.931 . S
H350 C327 0.931 . S
H351 C328 0.931 . S
H352 C330 0.931 . S
H353 C331 0.931 . S
C354 Eu355 2.835 . S
C354 C356 1.500 . S
C354 O374 1.257 . S
C354 O375 1.260 . S
Eu355 C354 2.835 . S
Eu355 O374 2.473 . S
Eu355 O375 2.480 . S
Eu355 O376 2.430 . S
Eu355 O377 2.670 . S
Eu355 O378 2.394 . S
Eu355 O383 2.355 . S
Eu355 O385 2.374 . S
C356 C354 1.500 . S
C356 C357 1.377 . S
C356 C361 1.377 . S
C357 C356 1.377 . S
C357 C358 1.395 . S
C357 H386 0.931 . S
C358 C357 1.395 . S
C358 C359 1.383 . S
C358 H387 0.931 . S
C359 C358 1.383 . S
C359 C360 1.394 . S
C360 C359 1.394 . S
C360 C361 1.378 . S
C360 H388 0.931 . S
C361 C356 1.377 . S
C361 C360 1.378 . S
C361 H389 0.931 . S
C362 O376 1.259 . S
C362 O377 1.270 . S
C363 O378 1.251 . S
C363 O379 1.251 . S
C364 Eu365 2.835 . S
C364 C366 1.500 . S
C364 O380 1.257 . S
C364 O381 1.260 . S
Eu365 C364 2.835 . S
Eu365 O377 2.355 . S
Eu365 O379 2.374 . S
Eu365 O380 2.473 . S
Eu365 O381 2.480 . S
Eu365 O382 2.430 . S
Eu365 O383 2.670 . S
Eu365 O384 2.394 . S
C366 C364 1.500 . S
C366 C367 1.377 . S
C366 C371 1.377 . S
C367 C366 1.377 . S
C367 C368 1.395 . S
C367 H390 0.931 . S
C368 C367 1.395 . S
C368 C369 1.383 . S
C368 H391 0.931 . S
C369 C368 1.383 . S
C369 C370 1.394 . S
C370 C369 1.394 . S
C370 C371 1.378 . S
C370 H392 0.931 . S
C371 C366 1.377 . S
C371 C370 1.378 . S
C371 H393 0.931 . S
C372 O382 1.259 . S
C372 O383 1.270 . S
C373 O384 1.251 . S
C373 O385 1.251 . S
O374 C354 1.257 . S
O374 Eu355 2.473 . S
O375 C354 1.260 . S
O375 Eu355 2.480 . S
O376 Eu355 2.430 . S
O376 C362 1.259 . S
O377 Eu355 2.670 . S
O377 C362 1.270 . S
O377 Eu365 2.355 . S
O378 Eu355 2.394 . S
O378 C363 1.251 . S
O379 C363 1.251 . S
O379 Eu365 2.374 . S
O380 C364 1.257 . S
O380 Eu365 2.473 . S
O381 C364 1.260 . S
O381 Eu365 2.480 . S
O382 Eu365 2.430 . S
O382 C372 1.259 . S
O383 Eu355 2.355 . S
O383 Eu365 2.670 . S
O383 C372 1.270 . S
O384 Eu365 2.394 . S
O384 C373 1.251 . S
O385 Eu355 2.374 . S
O385 C373 1.251 . S
H386 C357 0.931 . S
H387 C358 0.931 . S
H388 C360 0.931 . S
H389 C361 0.931 . S
H390 C367 0.931 . S
H391 C368 0.931 . S
H392 C370 0.931 . S
H393 C371 0.931 . S
C394 Eu395 2.835 . S
C394 C396 1.500 . S
C394 O414 1.257 . S
C394 O415 1.260 . S
Eu395 C394 2.835 . S
Eu395 O414 2.473 . S
Eu395 O415 2.480 . S
Eu395 O416 2.430 . S
Eu395 O417 2.670 . S
Eu395 O418 2.394 . S
Eu395 O423 2.355 . S
Eu395 O425 2.374 . S
C396 C394 1.500 . S
C396 C397 1.377 . S
C396 C401 1.377 . S
C397 C396 1.377 . S
C397 C398 1.395 . S
C397 H426 0.931 . S
C398 C397 1.395 . S
C398 C399 1.383 . S
C398 H427 0.931 . S
C399 C398 1.383 . S
C399 C400 1.394 . S
C400 C399 1.394 . S
C400 C401 1.378 . S
C400 H428 0.931 . S
C401 C396 1.377 . S
C401 C400 1.378 . S
C401 H429 0.931 . S
C402 O416 1.259 . S
C402 O417 1.270 . S
C403 O418 1.251 . S
C403 O419 1.251 . S
C404 Eu405 2.835 . S
C404 C406 1.500 . S
C404 O420 1.257 . S
C404 O421 1.260 . S
Eu405 C404 2.835 . S
Eu405 O417 2.355 . S
Eu405 O419 2.374 . S
Eu405 O420 2.473 . S
Eu405 O421 2.480 . S
Eu405 O422 2.430 1_565 S
Eu405 O423 2.670 . S
Eu405 O424 2.394 . S
C406 C404 1.500 . S
C406 C407 1.377 . S
C406 C411 1.377 . S
C407 C406 1.377 . S
C407 C408 1.395 . S
C407 H430 0.931 . S
C408 C407 1.395 . S
C408 C409 1.383 . S
C408 H431 0.931 . S
C409 C408 1.383 . S
C409 C410 1.394 . S
C410 C409 1.394 . S
C410 C411 1.378 . S
C410 H432 0.931 . S
C411 C406 1.377 . S
C411 C410 1.378 . S
C411 H433 0.931 . S
C412 O422 1.259 . S
C412 O423 1.270 1_545 S
C413 O424 1.251 . S
C413 O425 1.251 . S
O414 C394 1.257 . S
O414 Eu395 2.473 . S
O415 C394 1.260 . S
O415 Eu395 2.480 . S
O416 Eu395 2.430 . S
O416 C402 1.259 . S
O417 Eu395 2.670 . S
O417 C402 1.270 . S
O417 Eu405 2.355 . S
O418 Eu395 2.394 . S
O418 C403 1.251 . S
O419 C403 1.251 . S
O419 Eu405 2.374 . S
O420 C404 1.257 . S
O420 Eu405 2.473 . S
O421 C404 1.260 . S
O421 Eu405 2.480 . S
O422 Eu405 2.430 1_545 S
O422 C412 1.259 . S
O423 Eu395 2.355 . S
O423 Eu405 2.670 . S
O423 C412 1.270 1_565 S
O424 Eu405 2.394 . S
O424 C413 1.251 . S
O425 Eu395 2.374 . S
O425 C413 1.251 . S
H426 C397 0.931 . S
H427 C398 0.931 . S
H428 C400 0.931 . S
H429 C401 0.931 . S
H430 C407 0.931 . S
H431 C408 0.931 . S
H432 C410 0.931 . S
H433 C411 0.931 . S
C434 Eu435 2.835 . S
C434 C436 1.500 . S
C434 O454 1.257 . S
C434 O455 1.260 . S
Eu435 C434 2.835 . S
Eu435 O454 2.473 . S
Eu435 O455 2.480 . S
Eu435 O456 2.430 . S
Eu435 O457 2.670 . S
Eu435 O458 2.394 . S
Eu435 O463 2.355 . S
Eu435 O465 2.374 . S
C436 C434 1.500 . S
C436 C437 1.377 . S
C436 C441 1.377 . S
C437 C436 1.377 . S
C437 C438 1.395 . S
C437 H466 0.931 . S
C438 C437 1.395 . S
C438 C439 1.383 . S
C438 H467 0.931 . S
C439 C438 1.383 . S
C439 C440 1.394 . S
C440 C439 1.394 . S
C440 C441 1.378 . S
C440 H468 0.931 . S
C441 C436 1.377 . S
C441 C440 1.378 . S
C441 H469 0.931 . S
C442 O456 1.259 . S
C442 O457 1.270 . S
C443 O458 1.251 . S
C443 O459 1.251 . S
C444 Eu445 2.835 . S
C444 C446 1.500 . S
C444 O460 1.257 . S
C444 O461 1.260 . S
Eu445 C444 2.835 . S
Eu445 O457 2.355 . S
Eu445 O459 2.374 . S
Eu445 O460 2.473 . S
Eu445 O461 2.480 . S
Eu445 O462 2.430 . S
Eu445 O463 2.670 . S
Eu445 O464 2.394 . S
C446 C444 1.500 . S
C446 C447 1.377 . S
C446 C451 1.377 . S
C447 C446 1.377 . S
C447 C448 1.395 . S
C447 H470 0.931 . S
C448 C447 1.395 . S
C448 C449 1.383 . S
C448 H471 0.931 . S
C449 C448 1.383 . S
C449 C450 1.394 . S
C450 C449 1.394 . S
C450 C451 1.378 . S
C450 H472 0.931 . S
C451 C446 1.377 . S
C451 C450 1.378 . S
C451 H473 0.931 . S
C452 O462 1.259 . S
C452 O463 1.270 . S
C453 O464 1.251 . S
C453 O465 1.251 . S
O454 C434 1.257 . S
O454 Eu435 2.473 . S
O455 C434 1.260 . S
O455 Eu435 2.480 . S
O456 Eu435 2.430 . S
O456 C442 1.259 . S
O457 Eu435 2.670 . S
O457 C442 1.270 . S
O457 Eu445 2.355 . S
O458 Eu435 2.394 . S
O458 C443 1.251 . S
O459 C443 1.251 . S
O459 Eu445 2.374 . S
O460 C444 1.257 . S
O460 Eu445 2.473 . S
O461 C444 1.260 . S
O461 Eu445 2.480 . S
O462 Eu445 2.430 . S
O462 C452 1.259 . S
O463 Eu435 2.355 . S
O463 Eu445 2.670 . S
O463 C452 1.270 . S
O464 Eu445 2.394 . S
O464 C453 1.251 . S
O465 Eu435 2.374 . S
O465 C453 1.251 . S
H466 C437 0.931 . S
H467 C438 0.931 . S
H468 C440 0.931 . S
H469 C441 0.931 . S
H470 C447 0.931 . S
H471 C448 0.931 . S
H472 C450 0.931 . S
H473 C451 0.931 . S
C474 Eu475 2.835 . S
C474 C476 1.500 . S
C474 O494 1.257 . S
C474 O495 1.260 . S
Eu475 C474 2.835 . S
Eu475 O494 2.473 . S
Eu475 O495 2.480 . S
Eu475 O496 2.430 . S
Eu475 O497 2.670 . S
Eu475 O498 2.394 . S
Eu475 O503 2.355 . S
Eu475 O505 2.374 1_655 S
C476 C474 1.500 . S
C476 C477 1.377 . S
C476 C481 1.377 . S
C477 C476 1.377 . S
C477 C478 1.395 . S
C477 H506 0.931 . S
C478 C477 1.395 . S
C478 C479 1.383 . S
C478 H507 0.931 . S
C479 C478 1.383 . S
C479 C480 1.394 . S
C480 C479 1.394 . S
C480 C481 1.378 . S
C480 H508 0.931 . S
C481 C476 1.377 . S
C481 C480 1.378 . S
C481 H509 0.931 . S
C482 O496 1.259 . S
C482 O497 1.270 . S
C483 O498 1.251 . S
C483 O499 1.251 . S
C484 Eu485 2.835 . S
C484 C486 1.500 . S
C484 O500 1.257 . S
C484 O501 1.260 . S
Eu485 C484 2.835 . S
Eu485 O497 2.355 . S
Eu485 O499 2.374 . S
Eu485 O500 2.473 . S
Eu485 O501 2.480 . S
Eu485 O502 2.430 . S
Eu485 O503 2.670 . S
Eu485 O504 2.394 . S
C486 C484 1.500 . S
C486 C487 1.377 . S
C486 C491 1.377 . S
C487 C486 1.377 . S
C487 C488 1.395 . S
C487 H510 0.931 . S
C488 C487 1.395 . S
C488 C489 1.383 . S
C488 H511 0.931 . S
C489 C488 1.383 . S
C489 C490 1.394 . S
C490 C489 1.394 . S
C490 C491 1.378 . S
C490 H512 0.931 . S
C491 C486 1.377 . S
C491 C490 1.378 . S
C491 H513 0.931 . S
C492 O502 1.259 . S
C492 O503 1.270 . S
C493 O504 1.251 1_455 S
C493 O505 1.251 . S
O494 C474 1.257 . S
O494 Eu475 2.473 . S
O495 C474 1.260 . S
O495 Eu475 2.480 . S
O496 Eu475 2.430 . S
O496 C482 1.259 . S
O497 Eu475 2.670 . S
O497 C482 1.270 . S
O497 Eu485 2.355 . S
O498 Eu475 2.394 . S
O498 C483 1.251 . S
O499 C483 1.251 . S
O499 Eu485 2.374 . S
O500 C484 1.257 . S
O500 Eu485 2.473 . S
O501 C484 1.260 . S
O501 Eu485 2.480 . S
O502 Eu485 2.430 . S
O502 C492 1.259 . S
O503 Eu475 2.355 . S
O503 Eu485 2.670 . S
O503 C492 1.270 . S
O504 Eu485 2.394 . S
O504 C493 1.251 1_655 S
O505 Eu475 2.374 1_455 S
O505 C493 1.251 . S
H506 C477 0.931 . S
H507 C478 0.931 . S
H508 C480 0.931 . S
H509 C481 0.931 . S
H510 C487 0.931 . S
H511 C488 0.931 . S
H512 C490 0.931 . S
H513 C491 0.931 . S
C514 Eu515 2.835 . S
C514 C516 1.500 . S
C514 O534 1.257 . S
C514 O535 1.260 . S
Eu515 C514 2.835 . S
Eu515 O534 2.473 . S
Eu515 O535 2.480 . S
Eu515 O536 2.430 . S
Eu515 O537 2.670 . S
Eu515 O538 2.394 . S
Eu515 O543 2.355 . S
Eu515 O545 2.374 . S
C516 C514 1.500 . S
C516 C517 1.377 . S
C516 C521 1.377 . S
C517 C516 1.377 . S
C517 C518 1.395 . S
C517 H546 0.931 . S
C518 C517 1.395 . S
C518 C519 1.383 . S
C518 H547 0.931 . S
C519 C518 1.383 . S
C519 C520 1.394 . S
C520 C519 1.394 . S
C520 C521 1.378 . S
C520 H548 0.931 . S
C521 C516 1.377 . S
C521 C520 1.378 . S
C521 H549 0.931 . S
C522 O536 1.259 . S
C522 O537 1.270 . S
C523 O538 1.251 . S
C523 O539 1.251 . S
C524 Eu525 2.835 . S
C524 C526 1.500 . S
C524 O540 1.257 . S
C524 O541 1.260 . S
Eu525 C524 2.835 . S
Eu525 O537 2.355 . S
Eu525 O539 2.374 . S
Eu525 O540 2.473 . S
Eu525 O541 2.480 . S
Eu525 O542 2.430 . S
Eu525 O543 2.670 . S
Eu525 O544 2.394 . S
C526 C524 1.500 . S
C526 C527 1.377 . S
C526 C531 1.377 . S
C527 C526 1.377 . S
C527 C528 1.395 . S
C527 H550 0.931 . S
C528 C527 1.395 . S
C528 C529 1.383 . S
C528 H551 0.931 . S
C529 C528 1.383 . S
C529 C530 1.394 . S
C530 C529 1.394 . S
C530 C531 1.378 . S
C530 H552 0.931 . S
C531 C526 1.377 . S
C531 C530 1.378 . S
C531 H553 0.931 . S
C532 O542 1.259 . S
C532 O543 1.270 . S
C533 O544 1.251 . S
C533 O545 1.251 . S
O534 C514 1.257 . S
O534 Eu515 2.473 . S
O535 C514 1.260 . S
O535 Eu515 2.480 . S
O536 Eu515 2.430 . S
O536 C522 1.259 . S
O537 Eu515 2.670 . S
O537 C522 1.270 . S
O537 Eu525 2.355 . S
O538 Eu515 2.394 . S
O538 C523 1.251 . S
O539 C523 1.251 . S
O539 Eu525 2.374 . S
O540 C524 1.257 . S
O540 Eu525 2.473 . S
O541 C524 1.260 . S
O541 Eu525 2.480 . S
O542 Eu525 2.430 . S
O542 C532 1.259 . S
O543 Eu515 2.355 . S
O543 Eu525 2.670 . S
O543 C532 1.270 . S
O544 Eu525 2.394 . S
O544 C533 1.251 . S
O545 Eu515 2.374 . S
O545 C533 1.251 . S
H546 C517 0.931 . S
H547 C518 0.931 . S
H548 C520 0.931 . S
H549 C521 0.931 . S
H550 C527 0.931 . S
H551 C528 0.931 . S
H552 C530 0.931 . S
H553 C531 0.931 . S
C554 Eu555 2.835 . S
C554 C556 1.500 . S
C554 O574 1.257 . S
C554 O575 1.260 . S
Eu555 C554 2.835 . S
Eu555 O574 2.473 . S
Eu555 O575 2.480 . S
Eu555 O576 2.430 . S
Eu555 O577 2.670 . S
Eu555 O578 2.394 . S
Eu555 O583 2.355 . S
Eu555 O585 2.374 . S
C556 C554 1.500 . S
C556 C557 1.377 . S
C556 C561 1.377 . S
C557 C556 1.377 . S
C557 C558 1.395 . S
C557 H586 0.931 . S
C558 C557 1.395 . S
C558 C559 1.383 . S
C558 H587 0.931 . S
C559 C558 1.383 . S
C559 C560 1.394 . S
C560 C559 1.394 . S
C560 C561 1.378 . S
C560 H588 0.931 . S
C561 C556 1.377 . S
C561 C560 1.378 . S
C561 H589 0.931 . S
C562 O576 1.259 . S
C562 O577 1.270 . S
C563 O578 1.251 . S
C563 O579 1.251 . S
C564 Eu565 2.835 . S
C564 C566 1.500 . S
C564 O580 1.257 . S
C564 O581 1.260 . S
Eu565 C564 2.835 . S
Eu565 O577 2.355 . S
Eu565 O579 2.374 . S
Eu565 O580 2.473 . S
Eu565 O581 2.480 . S
Eu565 O582 2.430 1_545 S
Eu565 O583 2.670 . S
Eu565 O584 2.394 . S
C566 C564 1.500 . S
C566 C567 1.377 . S
C566 C571 1.377 . S
C567 C566 1.377 . S
C567 C568 1.395 . S
C567 H590 0.931 . S
C568 C567 1.395 . S
C568 C569 1.383 . S
C568 H591 0.931 . S
C569 C568 1.383 . S
C569 C570 1.394 . S
C570 C569 1.394 . S
C570 C571 1.378 . S
C570 H592 0.931 . S
C571 C566 1.377 . S
C571 C570 1.378 . S
C571 H593 0.931 . S
C572 O582 1.259 1_545 S
C572 O583 1.270 . S
C573 O584 1.251 . S
C573 O585 1.251 . S
O574 C554 1.257 . S
O574 Eu555 2.473 . S
O575 C554 1.260 . S
O575 Eu555 2.480 . S
O576 Eu555 2.430 . S
O576 C562 1.259 . S
O577 Eu555 2.670 . S
O577 C562 1.270 . S
O577 Eu565 2.355 . S
O578 Eu555 2.394 . S
O578 C563 1.251 . S
O579 C563 1.251 . S
O579 Eu565 2.374 . S
O580 C564 1.257 . S
O580 Eu565 2.473 . S
O581 C564 1.260 . S
O581 Eu565 2.480 . S
O582 Eu565 2.430 1_565 S
O582 C572 1.259 1_565 S
O583 Eu555 2.355 . S
O583 Eu565 2.670 . S
O583 C572 1.270 . S
O584 Eu565 2.394 . S
O584 C573 1.251 . S
O585 Eu555 2.374 . S
O585 C573 1.251 . S
H586 C557 0.931 . S
H587 C558 0.931 . S
H588 C560 0.931 . S
H589 C561 0.931 . S
H590 C567 0.931 . S
H591 C568 0.931 . S
H592 C570 0.931 . S
H593 C571 0.931 . S
N170 C243 2.215 . S
N184 C283 1.081 . S
N158 C322 1.736 . S
N145 C282 1.612 . S
C323 N119 0.692 . S
N131 C242 2.074 1_556 S
C253 N144 1.845 . S
C293 N118 1.778 . S
N132 C332 1.581 1_556 S
N171 C292 1.498 . S
N183 C333 1.377 . S
C252 N157 1.498 . S
C363 N14 2.215 1_455 S
N28 C403 1.081 . S
N2 C442 1.736 1_545 S
N223 C402 1.613 . S
N197 C443 0.692 . S
N209 C362 2.074 . S
N222 C373 1.844 . S
N196 C413 1.778 . S
C452 N210 1.581 . S
N15 C412 1.498 . S
C453 N27 1.377 1_455 S
N1 C372 1.497 . S
C483 N92 2.215 . S
N106 C523 1.081 . S
C562 N80 1.736 . S
C522 N67 1.613 1_545 S
C563 N41 0.692 . S
N53 C482 2.074 . S
N66 C493 1.844 . S
N40 C533 1.778 . S
C572 N54 1.581 1_545 S
N93 C532 1.498 . S
N105 C573 1.377 . S
N79 C492 1.497 . S
N200 C239 1.195 . S
C279 N213 2.068 . S
N226 C329 1.895 . S
N83 C289 2.311 . S
N96 C319 1.782 . S
C249 N109 1.883 . S
N44 C359 1.194 . S
N57 C399 2.068 . S
N70 C449 1.895 . S
N161 C409 2.311 . S
C439 N174 1.782 . S
N187 C369 1.883 . S
N122 C479 1.195 . S
N135 C519 2.068 . S
C569 N148 1.895 . S
N5 C529 2.311 . S
N18 C559 1.782 . S
N31 C489 1.883 . S
