# Generated by pormake.
# Topology nom, (4,4)-cn, num edge types: 1
# Building blocks:
#     Node 0, Type 0, BuildingBlock: MIFKUJ_clean_linker_1, # of connection points: 4
#     Node 1, Type 0, BuildingBlock: MIFKUJ_clean_linker_1, # of connection points: 4
#     Node 2, Type 0, BuildingBlock: MIFKUJ_clean_linker_1, # of connection points: 4
#     Node 3, Type 0, BuildingBlock: MIFKUJ_clean_linker_1, # of connection points: 4
#     Node 4, Type 0, BuildingBlock: MIFKUJ_clean_linker_1, # of connection points: 4
#     Node 5, Type 0, BuildingBlock: MIFKUJ_clean_linker_1, # of connection points: 4
#     Node 6, Type 1, BuildingBlock: TATPOV_clean_sbu_0, # of connection points: 4
#     Node 7, Type 1, BuildingBlock: TATPOV_clean_sbu_0, # of connection points: 4
#     Node 8, Type 1, BuildingBlock: TATPOV_clean_sbu_0, # of connection points: 4
#     Node 9, Type 1, BuildingBlock: TATPOV_clean_sbu_0, # of connection points: 4
#     Node 10, Type 1, BuildingBlock: TATPOV_clean_sbu_0, # of connection points: 4
#     Node 11, Type 1, BuildingBlock: TATPOV_clean_sbu_0, # of connection points: 4
#     Edge 12, Type (0, 1), BuildingBlock: XUDNAN_clean_linker_2, # of connection points: 2
#     Edge 13, Type (0, 1), BuildingBlock: XUDNAN_clean_linker_2, # of connection points: 2
#     Edge 14, Type (0, 1), BuildingBlock: XUDNAN_clean_linker_2, # of connection points: 2
#     Edge 15, Type (0, 1), BuildingBlock: XUDNAN_clean_linker_2, # of connection points: 2
#     Edge 16, Type (0, 1), BuildingBlock: XUDNAN_clean_linker_2, # of connection points: 2
#     Edge 17, Type (0, 1), BuildingBlock: XUDNAN_clean_linker_2, # of connection points: 2
#     Edge 18, Type (0, 1), BuildingBlock: XUDNAN_clean_linker_2, # of connection points: 2
#     Edge 19, Type (0, 1), BuildingBlock: XUDNAN_clean_linker_2, # of connection points: 2
#     Edge 20, Type (0, 1), BuildingBlock: XUDNAN_clean_linker_2, # of connection points: 2
#     Edge 21, Type (0, 1), BuildingBlock: XUDNAN_clean_linker_2, # of connection points: 2
#     Edge 22, Type (0, 1), BuildingBlock: XUDNAN_clean_linker_2, # of connection points: 2
#     Edge 23, Type (0, 1), BuildingBlock: XUDNAN_clean_linker_2, # of connection points: 2
#     Edge 24, Type (0, 1), BuildingBlock: XUDNAN_clean_linker_2, # of connection points: 2
#     Edge 25, Type (0, 1), BuildingBlock: XUDNAN_clean_linker_2, # of connection points: 2
#     Edge 26, Type (0, 1), BuildingBlock: XUDNAN_clean_linker_2, # of connection points: 2
#     Edge 27, Type (0, 1), BuildingBlock: XUDNAN_clean_linker_2, # of connection points: 2
#     Edge 28, Type (0, 1), BuildingBlock: XUDNAN_clean_linker_2, # of connection points: 2
#     Edge 29, Type (0, 1), BuildingBlock: XUDNAN_clean_linker_2, # of connection points: 2
#     Edge 30, Type (0, 1), BuildingBlock: XUDNAN_clean_linker_2, # of connection points: 2
#     Edge 31, Type (0, 1), BuildingBlock: XUDNAN_clean_linker_2, # of connection points: 2
#     Edge 32, Type (0, 1), BuildingBlock: XUDNAN_clean_linker_2, # of connection points: 2
#     Edge 33, Type (0, 1), BuildingBlock: XUDNAN_clean_linker_2, # of connection points: 2
#     Edge 34, Type (0, 1), BuildingBlock: XUDNAN_clean_linker_2, # of connection points: 2
#     Edge 35, Type (0, 1), BuildingBlock: XUDNAN_clean_linker_2, # of connection points: 2
# Relax obj value: 0.019
# Max RMSD: 0.115
# Mean RMSD: 0.104
data_MOF--net-nom--node1-TATPOV_clean_sbu_0--node2-MIFKUJ_clean_linker_1--edge1-XUDNAN_clean_linker_2
_symmetry_space_group_name_H-M    P1
_symmetry_Int_Tables_number       1
_symmetry_cell_setting            triclinic
loop_
_symmetry_equiv_pos_as_xyz
'x, y, z'
_cell_length_a     52.772697
_cell_length_b     53.531962
_cell_length_c     55.942469
_cell_angle_alpha  90.659307
_cell_angle_beta   90.607408
_cell_angle_gamma 119.97881
loop_
_atom_site_label
_atom_site_type_symbol
_atom_site_fract_x
_atom_site_fract_y
_atom_site_fract_z
_atom_type_partial_charge
H0 H 0.94793 0.41907 0.30071 0.0
H1 H 0.91265 0.40229 0.26741 0.0
H2 H 0.9668 0.4821 0.23099 0.0
H3 H 0.00107 0.49937 0.26486 0.0
H4 H 0.03584 0.48782 0.28358 0.0
H5 H 0.94925 0.43144 0.36165 0.0
H6 H 0.90463 0.43019 0.37568 0.0
H7 H 0.91731 0.49528 0.3248 0.0
H8 H 0.96179 0.49698 0.31127 0.0
H9 H 0.03701 0.52359 0.38324 0.0
H10 H 0.07043 0.54242 0.41748 0.0
H11 H 0.12375 0.51069 0.38608 0.0
H12 H 0.08902 0.49013 0.35249 0.0
H13 H 0.00167 0.47678 0.36701 0.0
H14 H 0.07662 0.55393 0.3341 0.0
H15 H 0.12138 0.5932 0.3179 0.0
H16 H 0.13327 0.53206 0.27562 0.0
H17 H 0.08806 0.49236 0.29193 0.0
C18 C 0.97721 0.46053 0.2854 0.0
C19 C 0.9521 0.43305 0.28563 0.0
C20 C 0.93207 0.42335 0.26644 0.0
C21 C 0.93685 0.44082 0.24647 0.0
C22 C 0.96216 0.46821 0.24619 0.0
C23 C 0.98205 0.47797 0.26545 0.0
C24 C 0.99818 0.47123 0.30609 0.0
C25 C 0.02834 0.48497 0.30185 0.0
C26 C 0.9886 0.46953 0.32987 0.0
C27 C 0.95879 0.46413 0.33527 0.0
C28 C 0.942 0.44493 0.35317 0.0
C29 C 0.91651 0.44415 0.3611 0.0
C30 C 0.90778 0.46285 0.35145 0.0
C31 C 0.92372 0.48082 0.33267 0.0
C32 C 0.949 0.48154 0.32474 0.0
C33 C 0.06032 0.50529 0.36519 0.0
C34 C 0.05565 0.52029 0.38381 0.0
C35 C 0.07511 0.53148 0.40328 0.0
C36 C 0.09997 0.52828 0.40455 0.0
C37 C 0.10468 0.5133 0.38588 0.0
C38 C 0.08499 0.50182 0.36648 0.0
C39 C 0.03938 0.4933 0.34452 0.0
C40 C 0.00918 0.47881 0.34879 0.0
C41 C 0.04899 0.49767 0.32061 0.0
C42 C 0.07908 0.52013 0.3144 0.0
C43 C 0.08929 0.54874 0.322 0.0
C44 C 0.11473 0.57121 0.31261 0.0
C45 C 0.13054 0.56553 0.2955 0.0
C46 C 0.12146 0.53684 0.28893 0.0
C47 C 0.09569 0.51425 0.29818 0.0
H48 H 0.45475 0.97636 0.51945 0.0
H49 H 0.4261 0.92753 0.53424 0.0
H50 H 0.48417 0.904 0.49946 0.0
H51 H 0.5137 0.95351 0.4857 0.0
H52 H 0.50941 0.01652 0.52832 0.0
H53 H 0.45359 0.96429 0.45656 0.0
H54 H 0.43708 0.92566 0.42626 0.0
H55 H 0.52688 0.9562 0.40723 0.0
H56 H 0.54326 0.99457 0.43781 0.0
H57 H 0.58046 0.08626 0.44883 0.0
H58 H 0.60187 0.13624 0.43604 0.0
H59 H 0.53712 0.14501 0.47627 0.0
H60 H 0.51497 0.09479 0.48774 0.0
H61 H 0.52872 0.03896 0.44236 0.0
H62 H 0.58534 0.09113 0.51246 0.0
H63 H 0.60368 0.12723 0.54494 0.0
H64 H 0.51469 0.09717 0.5666 0.0
H65 H 0.49684 0.06043 0.53484 0.0
C66 C 0.48622 0.9686 0.50123 0.0
C67 C 0.46143 0.96075 0.5151 0.0
C68 C 0.44487 0.93267 0.52335 0.0
C69 C 0.45261 0.91167 0.51787 0.0
C70 C 0.47766 0.91964 0.50417 0.0
C71 C 0.49439 0.94787 0.49603 0.0
C72 C 0.50348 0.99866 0.49264 0.0
C73 C 0.51339 0.02137 0.50949 0.0
C74 C 0.50976 0.00512 0.46819 0.0
C75 C 0.49964 0.98214 0.4495 0.0
C76 C 0.4697 0.96258 0.4459 0.0
C77 C 0.46031 0.94064 0.42852 0.0
C78 C 0.48071 0.93785 0.41443 0.0
C79 C 0.51069 0.95757 0.41803 0.0
C80 C 0.52005 0.97963 0.43531 0.0
C81 C 0.54644 0.08687 0.46962 0.0
C82 C 0.57075 0.09891 0.45468 0.0
C83 C 0.58312 0.1276 0.44757 0.0
C84 C 0.57142 0.14485 0.45526 0.0
C85 C 0.54662 0.13243 0.46977 0.0
C86 C 0.53415 0.10374 0.47667 0.0
C87 C 0.53378 0.05676 0.47802 0.0
C88 C 0.52493 0.03409 0.46119 0.0
C89 C 0.52873 0.05023 0.50253 0.0
C90 C 0.53977 0.07307 0.52138 0.0
C91 C 0.56987 0.09246 0.52423 0.0
C92 C 0.58028 0.11319 0.54272 0.0
C93 C 0.56072 0.11503 0.55858 0.0
C94 C 0.53049 0.09598 0.55517 0.0
C95 C 0.52017 0.07504 0.53692 0.0
H96 H 0.51499 0.56512 0.70251 0.0
H97 H 0.49674 0.58623 0.73187 0.0
H98 H 0.4081 0.52713 0.70791 0.0
H99 H 0.42664 0.5061 0.67837 0.0
H100 H 0.49469 0.50184 0.70105 0.0
H101 H 0.48923 0.57668 0.65399 0.0
H102 H 0.45989 0.59574 0.63612 0.0
H103 H 0.41148 0.51726 0.59405 0.0
H104 H 0.44003 0.49786 0.61247 0.0
H105 H 0.49465 0.46995 0.59778 0.0
H106 H 0.52529 0.45966 0.5717 0.0
H107 H 0.59203 0.49 0.62747 0.0
H108 H 0.56294 0.503 0.65216 0.0
H109 H 0.49676 0.514 0.6132 0.0
H110 H 0.4832 0.43477 0.65609 0.0
H111 H 0.49113 0.39884 0.6763 0.0
H112 H 0.55431 0.46507 0.7241 0.0
H113 H 0.54586 0.5011 0.70413 0.0
C114 C 0.47214 0.53417 0.68831 0.0
C115 C 0.49165 0.55694 0.70343 0.0
C116 C 0.48122 0.56909 0.72005 0.0
C117 C 0.45102 0.55837 0.72208 0.0
C118 C 0.43148 0.53573 0.70672 0.0
C119 C 0.44199 0.52378 0.68985 0.0
C120 C 0.48362 0.5206 0.67183 0.0
C121 C 0.49555 0.5048 0.68185 0.0
C122 C 0.48255 0.52263 0.64668 0.0
C123 C 0.46656 0.53559 0.63489 0.0
C124 C 0.47209 0.56342 0.64113 0.0
C125 C 0.45539 0.57434 0.63088 0.0
C126 C 0.43336 0.55792 0.61378 0.0
C127 C 0.42845 0.53046 0.60706 0.0
C128 C 0.4448 0.5194 0.61756 0.0
C129 C 0.5262 0.48709 0.62716 0.0
C130 C 0.51597 0.47453 0.60433 0.0
C131 C 0.5334 0.46824 0.58952 0.0
C132 C 0.56135 0.47412 0.59732 0.0
C133 C 0.57098 0.4857 0.62051 0.0
C134 C 0.55396 0.49263 0.63498 0.0
C135 C 0.50899 0.49598 0.64249 0.0
C136 C 0.49598 0.51092 0.63236 0.0
C137 C 0.50709 0.49149 0.66745 0.0
C138 C 0.514 0.47057 0.67859 0.0
C139 C 0.49899 0.44165 0.67075 0.0
C140 C 0.50343 0.42117 0.68231 0.0
C141 C 0.52326 0.42935 0.70169 0.0
C142 C 0.539 0.45841 0.70912 0.0
C143 C 0.53412 0.47887 0.69782 0.0
H144 H 0.02967 0.56477 0.77517 0.0
H145 H 0.07056 0.59478 0.74958 0.0
H146 H 0.10617 0.53851 0.76085 0.0
H147 H 0.06438 0.5078 0.78577 0.0
H148 H 0.98687 0.50914 0.77117 0.0
H149 H 0.07 0.56547 0.82941 0.0
H150 H 0.11601 0.57933 0.8512 0.0
H151 H 0.08795 0.48925 0.86083 0.0
H152 H 0.0423 0.47571 0.83944 0.0
H153 H 0.95557 0.43851 0.85613 0.0
H154 H 0.91752 0.41866 0.88636 0.0
H155 H 0.89342 0.48265 0.86938 0.0
H156 H 0.93155 0.50246 0.83921 0.0
H157 H 0.00269 0.49187 0.85552 0.0
H158 H 0.92671 0.43213 0.80335 0.0
H159 H 0.87692 0.40765 0.78708 0.0
H160 H 0.88819 0.48948 0.7644 0.0
H161 H 0.93849 0.51386 0.78046 0.0
C162 C 0.04409 0.53423 0.78269 0.0
C163 C 0.04618 0.55877 0.77205 0.0
C164 C 0.06978 0.5761 0.7576 0.0
C165 C 0.09193 0.56932 0.75341 0.0
C166 C 0.0895 0.54434 0.76367 0.0
C167 C 0.06576 0.52693 0.77812 0.0
C168 C 0.0192 0.5166 0.79856 0.0
C169 C 0.99041 0.5057 0.78969 0.0
C170 C 0.02352 0.51059 0.82236 0.0
C171 C 0.05276 0.51956 0.83289 0.0
C172 C 0.07405 0.54879 0.83595 0.0
C173 C 0.10026 0.55666 0.8484 0.0
C174 C 0.10534 0.53537 0.85809 0.0
C175 C 0.08439 0.50617 0.85411 0.0
C176 C 0.05838 0.49838 0.84174 0.0
C177 C 0.9463 0.47187 0.84537 0.0
C178 C 0.94191 0.44808 0.85879 0.0
C179 C 0.92009 0.43668 0.87594 0.0
C180 C 0.90255 0.44915 0.88021 0.0
C181 C 0.90675 0.47274 0.86655 0.0
C182 C 0.92835 0.48392 0.84921 0.0
C183 C 0.97072 0.48525 0.82834 0.0
C184 C 0.99925 0.49536 0.83697 0.0
C185 C 0.96613 0.48938 0.80413 0.0
C186 C 0.93621 0.47487 0.79337 0.0
C187 C 0.91844 0.44484 0.79494 0.0
C188 C 0.88989 0.43087 0.78571 0.0
C189 C 0.87837 0.4466 0.77465 0.0
C190 C 0.89642 0.47667 0.77265 0.0
C191 C 0.92514 0.49067 0.78186 0.0
H192 H 0.60134 0.04543 0.02078 0.0
H193 H 0.63307 0.09428 0.03639 0.0
H194 H 0.57638 0.12136 0.00351 0.0
H195 H 0.54368 0.07201 0.98955 0.0
H196 H 0.5462 0.0062 0.0281 0.0
H197 H 0.60041 0.05844 0.95674 0.0
H198 H 0.61681 0.09777 0.92828 0.0
H199 H 0.52675 0.07477 0.91491 0.0
H200 H 0.5107 0.03503 0.94253 0.0
H201 H 0.46629 0.94508 0.94834 0.0
H202 H 0.43932 0.89636 0.93088 0.0
H203 H 0.50205 0.87657 0.9628 0.0
H204 H 0.52852 0.92506 0.98048 0.0
H205 H 0.52109 0.9877 0.94156 0.0
H206 H 0.46516 0.93685 0.00817 0.0
H207 H 0.44345 0.89979 0.03856 0.0
H208 H 0.52989 0.92171 0.06384 0.0
H209 H 0.55151 0.95859 0.0332 0.0
C210 C 0.57043 0.05512 0.00356 0.0
C211 C 0.59559 0.06184 0.01717 0.0
C212 C 0.6139 0.08991 0.02587 0.0
C213 C 0.60758 0.11198 0.02097 0.0
C214 C 0.58191 0.10498 0.00783 0.0
C215 C 0.56337 0.07679 0.99947 0.0
C216 C 0.55179 0.02549 0.99356 0.0
C217 C 0.54112 0.00213 0.00912 0.0
C218 C 0.54412 0.02017 0.96896 0.0
C219 C 0.55435 0.04382 0.95162 0.0
C220 C 0.58429 0.0619 0.94753 0.0
C221 C 0.59361 0.08449 0.93141 0.0
C222 C 0.57312 0.08943 0.91916 0.0
C223 C 0.54315 0.07129 0.92354 0.0
C224 C 0.53389 0.04858 0.93942 0.0
C225 C 0.49926 0.93863 0.96588 0.0
C226 C 0.47415 0.93018 0.9516 0.0
C227 C 0.45884 0.90236 0.94155 0.0
C228 C 0.4685 0.8825 0.94543 0.0
C229 C 0.49368 0.89108 0.95978 0.0
C230 C 0.5089 0.91885 0.96986 0.0
C231 C 0.51599 0.96837 0.97605 0.0
C232 C 0.52633 0.99172 0.96052 0.0
C233 C 0.52294 0.97372 0.00074 0.0
C234 C 0.50994 0.95034 0.01836 0.0
C235 C 0.47942 0.93342 0.02006 0.0
C236 C 0.46706 0.91242 0.03752 0.0
C237 C 0.48499 0.9079 0.05355 0.0
C238 C 0.51555 0.92452 0.05155 0.0
C239 C 0.52791 0.9457 0.0342 0.0
H240 H 0.48182 0.44612 0.20874 0.0
H241 H 0.49685 0.42578 0.24144 0.0
H242 H 0.58695 0.49153 0.23159 0.0
H243 H 0.57171 0.51201 0.19951 0.0
H244 H 0.49821 0.51041 0.2084 0.0
H245 H 0.50337 0.43702 0.14623 0.0
H246 H 0.53176 0.41505 0.13232 0.0
H247 H 0.61129 0.4975 0.14142 0.0
H248 H 0.58242 0.51933 0.15375 0.0
H249 H 0.53603 0.56456 0.1178 0.0
H250 H 0.5203 0.58536 0.08599 0.0
H251 H 0.43023 0.52984 0.10529 0.0
H252 H 0.44603 0.5091 0.13684 0.0
H253 H 0.52078 0.50621 0.12297 0.0
H254 H 0.52979 0.58096 0.1778 0.0
H255 H 0.51575 0.61643 0.18897 0.0
H256 H 0.42604 0.54801 0.1959 0.0
H257 H 0.44086 0.51242 0.18578 0.0
C258 C 0.52571 0.48037 0.20164 0.0
C259 C 0.50481 0.45594 0.2136 0.0
C260 C 0.51343 0.44427 0.23212 0.0
C261 C 0.54306 0.45711 0.23911 0.0
C262 C 0.56392 0.48133 0.22678 0.0
C263 C 0.55531 0.4929 0.2083 0.0
C264 C 0.51663 0.49366 0.18289 0.0
C265 C 0.50241 0.50881 0.18966 0.0
C266 C 0.52386 0.49329 0.15871 0.0
C267 C 0.5409 0.47969 0.151 0.0
C268 C 0.52692 0.45023 0.14508 0.0
C269 C 0.54326 0.43772 0.13732 0.0
C270 C 0.57395 0.45444 0.13563 0.0
C271 C 0.58773 0.48398 0.1419 0.0
C272 C 0.57133 0.49651 0.14922 0.0
C273 C 0.49218 0.53538 0.12967 0.0
C274 C 0.51293 0.55701 0.11519 0.0
C275 C 0.50395 0.56898 0.09718 0.0
C276 C 0.47405 0.55916 0.09317 0.0
C277 C 0.45339 0.53766 0.10787 0.0
C278 C 0.46239 0.52594 0.12597 0.0
C279 C 0.50132 0.52197 0.14834 0.0
C280 C 0.51571 0.50701 0.14161 0.0
C281 C 0.49539 0.52357 0.17269 0.0
C282 C 0.48633 0.54421 0.18091 0.0
C283 C 0.50716 0.57363 0.182 0.0
C284 C 0.49899 0.59388 0.18815 0.0
C285 C 0.46963 0.5852 0.19297 0.0
C286 C 0.44886 0.55549 0.19248 0.0
C287 C 0.45722 0.53512 0.18661 0.0
Zn288 Zn 0.68319 0.46627 0.41679 0.0
Zn289 Zn 0.66338 0.41043 0.41951 0.0
O290 O 0.70776 0.42899 0.41231 0.0
O291 O 0.72382 0.47546 0.40976 0.0
O292 O 0.65292 0.3688 0.42271 0.0
O293 O 0.67263 0.46807 0.4506 0.0
O294 O 0.65277 0.42085 0.4526 0.0
C295 C 0.72862 0.45458 0.4089 0.0
C296 C 0.63783 0.43267 0.38166 0.0
O297 O 0.63838 0.4113 0.391 0.0
O298 O 0.6545 0.45796 0.38986 0.0
C299 C 0.62763 0.34658 0.4237 0.0
O300 O 0.60437 0.3495 0.42234 0.0
C301 C 0.65888 0.44504 0.46214 0.0
Zn302 Zn 0.23762 0.68487 0.57669 0.0
Zn303 Zn 0.26763 0.65721 0.58511 0.0
O304 O 0.29919 0.69912 0.5773 0.0
O305 O 0.27472 0.72144 0.56927 0.0
O306 O 0.29233 0.63842 0.59011 0.0
O307 O 0.22338 0.67662 0.61071 0.0
O308 O 0.24517 0.65111 0.61662 0.0
C309 C 0.29882 0.72178 0.57104 0.0
C310 C 0.22129 0.63644 0.54458 0.0
O311 O 0.24068 0.63423 0.55663 0.0
O312 O 0.21555 0.65618 0.54973 0.0
C313 C 0.30406 0.63464 0.5717 0.0
O314 O 0.29914 0.64255 0.55082 0.0
C315 C 0.22896 0.66089 0.62399 0.0
Zn316 Zn 0.56013 0.22519 0.7504 0.0
Zn317 Zn 0.6161 0.2662 0.75111 0.0
O318 O 0.59404 0.28907 0.7517 0.0
O319 O 0.54778 0.25503 0.75284 0.0
O320 O 0.65855 0.29751 0.75281 0.0
O321 O 0.56591 0.20755 0.77965 0.0
O322 O 0.61218 0.24174 0.78097 0.0
C323 C 0.567 0.2815 0.75257 0.0
C324 C 0.59038 0.22381 0.70849 0.0
O325 O 0.61215 0.24538 0.71874 0.0
O326 O 0.56569 0.21152 0.71838 0.0
C327 C 0.66958 0.31659 0.73685 0.0
O328 O 0.65294 0.31573 0.71885 0.0
C329 C 0.59098 0.21899 0.78956 0.0
Zn330 Zn 0.34172 0.56304 0.91287 0.0
Zn331 Zn 0.36465 0.62065 0.9135 0.0
O332 O 0.32014 0.60492 0.91305 0.0
O333 O 0.3014 0.55795 0.91622 0.0
O334 O 0.3813 0.66365 0.91564 0.0
O335 O 0.36519 0.56587 0.94242 0.0
O336 O 0.38267 0.61278 0.94348 0.0
C337 C 0.29806 0.57972 0.91484 0.0
C338 C 0.37472 0.59108 0.87063 0.0
O339 O 0.37949 0.61401 0.88168 0.0
O340 O 0.35896 0.56668 0.87993 0.0
C341 C 0.3775 0.67733 0.89888 0.0
O342 O 0.3627 0.66311 0.87956 0.0
C343 C 0.38115 0.59028 0.95242 0.0
Zn344 Zn 0.78735 0.43804 0.07319 0.0
Zn345 Zn 0.75777 0.37899 0.07123 0.0
O346 O 0.72533 0.38789 0.07949 0.0
O347 O 0.74798 0.43539 0.07919 0.0
O348 O 0.73846 0.33577 0.06796 0.0
O349 O 0.80117 0.43875 0.0391 0.0
O350 O 0.77595 0.39133 0.03833 0.0
C351 C 0.72479 0.41133 0.08175 0.0
C352 C 0.80679 0.41158 0.1086 0.0
O353 O 0.78732 0.38835 0.09842 0.0
O354 O 0.81104 0.43577 0.10148 0.0
C355 C 0.71119 0.31801 0.06586 0.0
O356 O 0.6926 0.32753 0.06658 0.0
C357 C 0.79261 0.41497 0.02806 0.0
Zn358 Zn 0.35298 0.7919 0.23605 0.0
Zn359 Zn 0.37705 0.75777 0.23891 0.0
O360 O 0.33307 0.72822 0.24159 0.0
O361 O 0.31341 0.75581 0.23712 0.0
O362 O 0.39716 0.73435 0.23586 0.0
O363 O 0.37149 0.80786 0.20428 0.0
O364 O 0.39013 0.77937 0.20726 0.0
C365 C 0.31054 0.73111 0.24009 0.0
C366 C 0.39175 0.80406 0.27743 0.0
O367 O 0.39515 0.78377 0.26883 0.0
O368 O 0.37495 0.81115 0.26691 0.0
C369 C 0.3887 0.70846 0.24156 0.0
O370 O 0.36392 0.69353 0.25276 0.0
C371 C 0.38701 0.79809 0.19579 0.0
H372 H 0.18848 0.58041 0.29208 0.0
H373 H 0.1253 0.60538 0.27025 0.0
H374 H 0.16413 0.64789 0.25019 0.0
H375 H 0.2453 0.65073 0.30644 0.0
H376 H 0.27461 0.6457 0.29583 0.0
H377 H 0.24144 0.6153 0.30611 0.0
H378 H 0.23503 0.58872 0.26557 0.0
H379 H 0.26823 0.6191 0.25515 0.0
H380 H 0.23458 0.60595 0.23819 0.0
H381 H 0.20926 0.68901 0.23545 0.0
H382 H 0.25914 0.7281 0.22761 0.0
H383 H 0.2946 0.67796 0.25915 0.0
C384 C 0.18292 0.59464 0.28267 0.0
C385 C 0.15403 0.58977 0.28255 0.0
C386 C 0.1474 0.60894 0.27051 0.0
C387 C 0.16923 0.63299 0.25898 0.0
C388 C 0.19761 0.63756 0.25969 0.0
C389 C 0.20464 0.61905 0.27121 0.0
C390 C 0.23737 0.63043 0.27079 0.0
C391 C 0.25044 0.63587 0.29631 0.0
C392 C 0.2442 0.60982 0.25657 0.0
C393 C 0.24758 0.65849 0.25774 0.0
C394 C 0.22413 0.66186 0.25127 0.0
C395 C 0.22782 0.68654 0.24017 0.0
C396 C 0.25628 0.70867 0.23587 0.0
C397 C 0.28079 0.70609 0.24272 0.0
C398 C 0.27629 0.6804 0.25343 0.0
H399 H 0.54453 0.17637 0.44435 0.0
H400 H 0.6301 0.18391 0.45208 0.0
H401 H 0.65344 0.23562 0.44301 0.0
H402 H 0.5624 0.22728 0.39647 0.0
H403 H 0.54061 0.24178 0.40816 0.0
H404 H 0.53048 0.20489 0.41374 0.0
H405 H 0.53147 0.21452 0.45933 0.0
H406 H 0.5416 0.25142 0.4539 0.0
H407 H 0.56409 0.24348 0.47325 0.0
H408 H 0.66764 0.28683 0.43472 0.0
H409 H 0.67182 0.33415 0.42804 0.0
H410 H 0.57707 0.29388 0.42704 0.0
C411 C 0.56818 0.18883 0.44419 0.0
C412 C 0.58541 0.17585 0.44882 0.0
C413 C 0.61632 0.19307 0.44814 0.0
C414 C 0.62983 0.22256 0.44316 0.0
C415 C 0.61218 0.23462 0.43893 0.0
C416 C 0.58204 0.21834 0.4394 0.0
C417 C 0.56816 0.23681 0.43503 0.0
C418 C 0.5493 0.22711 0.41197 0.0
C419 C 0.55028 0.23654 0.45667 0.0
C420 C 0.59525 0.26611 0.43227 0.0
C421 C 0.62039 0.2643 0.43445 0.0
C422 C 0.64811 0.28851 0.4329 0.0
C423 C 0.65023 0.31532 0.42912 0.0
C424 C 0.62478 0.31782 0.427 0.0
C425 C 0.59694 0.29275 0.42852 0.0
H426 H 0.40546 0.58281 0.63665 0.0
H427 H 0.42047 0.55803 0.56642 0.0
H428 H 0.38913 0.57508 0.54815 0.0
H429 H 0.33 0.56086 0.6262 0.0
H430 H 0.3314 0.59036 0.64318 0.0
H431 H 0.35585 0.5772 0.65074 0.0
H432 H 0.40035 0.62856 0.6463 0.0
H433 H 0.37604 0.64192 0.63883 0.0
H434 H 0.40483 0.64743 0.61878 0.0
H435 H 0.35646 0.59478 0.53751 0.0
H436 H 0.32362 0.61504 0.53509 0.0
H437 H 0.32838 0.62588 0.61236 0.0
C438 C 0.40237 0.5813 0.61741 0.0
C439 C 0.41542 0.5692 0.60289 0.0
C440 C 0.41052 0.5671 0.57783 0.0
C441 C 0.39285 0.57679 0.56731 0.0
C442 C 0.38009 0.58837 0.58211 0.0
C443 C 0.38453 0.59062 0.60662 0.0
C444 C 0.3676 0.60323 0.61847 0.0
C445 C 0.34486 0.58162 0.63566 0.0
C446 C 0.38845 0.632 0.63135 0.0
C447 C 0.35299 0.60776 0.59679 0.0
C448 C 0.36064 0.59917 0.57601 0.0
C449 C 0.35026 0.60154 0.55366 0.0
C450 C 0.33162 0.61311 0.55248 0.0
C451 C 0.32334 0.62198 0.57353 0.0
C452 C 0.33414 0.61912 0.59597 0.0
H453 H 0.83004 0.40215 0.79518 0.0
H454 H 0.85709 0.45664 0.73294 0.0
H455 H 0.80631 0.43033 0.717 0.0
H456 H 0.78111 0.33671 0.76399 0.0
H457 H 0.75484 0.32316 0.78761 0.0
H458 H 0.79294 0.34731 0.79463 0.0
H459 H 0.77968 0.38208 0.8165 0.0
H460 H 0.74152 0.35801 0.80957 0.0
H461 H 0.75873 0.39519 0.80084 0.0
H462 H 0.75264 0.39682 0.7073 0.0
H463 H 0.70052 0.35905 0.70467 0.0
H464 H 0.7093 0.32588 0.77285 0.0
C465 C 0.8254 0.40853 0.77814 0.0
C466 C 0.84765 0.43151 0.76532 0.0
C467 C 0.8404 0.43939 0.74326 0.0
C468 C 0.81164 0.42445 0.73399 0.0
C469 C 0.79036 0.40171 0.747 0.0
C470 C 0.79691 0.39383 0.76861 0.0
C471 C 0.77026 0.36824 0.77886 0.0
C472 C 0.77509 0.34233 0.78141 0.0
C473 C 0.76207 0.37638 0.80286 0.0
C474 C 0.74769 0.36276 0.75953 0.0
C475 C 0.75966 0.38235 0.74135 0.0
C476 C 0.74304 0.38141 0.72147 0.0
C477 C 0.71344 0.35985 0.72013 0.0
C478 C 0.70077 0.33945 0.73853 0.0
C479 C 0.71826 0.34109 0.75847 0.0
H480 H 0.45737 0.83126 0.96521 0.0
H481 H 0.4442 0.86724 0.90023 0.0
H482 H 0.41878 0.81863 0.88145 0.0
H483 H 0.47277 0.78036 0.93619 0.0
H484 H 0.45424 0.75284 0.95805 0.0
H485 H 0.47045 0.79033 0.96664 0.0
H486 H 0.42056 0.78097 0.98256 0.0
H487 H 0.40419 0.74345 0.97403 0.0
H488 H 0.38876 0.76458 0.963 0.0
H489 H 0.39543 0.76607 0.86952 0.0
H490 H 0.37592 0.71356 0.8654 0.0
H491 H 0.40571 0.7124 0.93783 0.0
C492 C 0.44932 0.829 0.94698 0.0
C493 C 0.45274 0.85314 0.93424 0.0
C494 C 0.44146 0.84907 0.91051 0.0
C495 C 0.42715 0.82156 0.89962 0.0
C496 C 0.42433 0.79831 0.91266 0.0
C497 C 0.4351 0.80176 0.93582 0.0
C498 C 0.42952 0.77333 0.94584 0.0
C499 C 0.45847 0.77428 0.95204 0.0
C500 C 0.40957 0.7651 0.96764 0.0
C501 C 0.41403 0.75336 0.92467 0.0
C502 C 0.41117 0.76816 0.90573 0.0
C503 C 0.39754 0.75425 0.88424 0.0
C504 C 0.38654 0.72442 0.88208 0.0
C505 C 0.3893 0.70884 0.90127 0.0
C506 C 0.40328 0.72365 0.9228 0.0
H507 H 0.62398 0.47945 0.10886 0.0
H508 H 0.56439 0.39971 0.14401 0.0
H509 H 0.59433 0.37863 0.13112 0.0
H510 H 0.64233 0.44825 0.05893 0.0
H511 H 0.68021 0.47627 0.05937 0.0
H512 H 0.65254 0.48412 0.06934 0.0
H513 H 0.67999 0.50293 0.11005 0.0
H514 H 0.70779 0.49526 0.10018 0.0
H515 H 0.68865 0.47992 0.12742 0.0
H516 H 0.63198 0.36677 0.11548 0.0
H517 H 0.67577 0.36634 0.10079 0.0
H518 H 0.7122 0.45505 0.07865 0.0
C519 C 0.61715 0.45759 0.11402 0.0
C520 C 0.59158 0.44129 0.12742 0.0
C521 C 0.58345 0.41256 0.13336 0.0
C522 C 0.60044 0.4004 0.12622 0.0
C523 C 0.62561 0.41724 0.11327 0.0
C524 C 0.63403 0.44528 0.10738 0.0
C525 C 0.66296 0.45947 0.09465 0.0
C526 C 0.65927 0.46749 0.06905 0.0
C527 C 0.68622 0.48595 0.10894 0.0
C528 C 0.66977 0.43517 0.09461 0.0
C529 C 0.64776 0.41082 0.10507 0.0
C530 C 0.64932 0.38571 0.10722 0.0
C531 C 0.67425 0.38565 0.09877 0.0
C532 C 0.69746 0.41068 0.08864 0.0
C533 C 0.6949 0.4356 0.08636 0.0
H534 H 0.39277 0.88002 0.52015 0.0
H535 H 0.47114 0.87526 0.53499 0.0
H536 H 0.44059 0.82585 0.54999 0.0
H537 H 0.35456 0.84357 0.57259 0.0
H538 H 0.31929 0.82542 0.55764 0.0
H539 H 0.34739 0.85985 0.5473 0.0
H540 H 0.34278 0.8378 0.50486 0.0
H541 H 0.31462 0.80331 0.51506 0.0
H542 H 0.34671 0.80641 0.50118 0.0
H543 H 0.40076 0.77666 0.56395 0.0
H544 H 0.35547 0.73243 0.57533 0.0
H545 H 0.30421 0.77119 0.55246 0.0
C546 C 0.40364 0.86876 0.52672 0.0
C547 C 0.43443 0.88164 0.5264 0.0
C548 C 0.44759 0.86578 0.53475 0.0
C549 C 0.43042 0.83776 0.54346 0.0
C550 C 0.40013 0.82591 0.54373 0.0
C551 C 0.38692 0.84097 0.53556 0.0
C552 C 0.35405 0.82369 0.53793 0.0
C553 C 0.3432 0.83905 0.55488 0.0
C554 C 0.33864 0.81743 0.51329 0.0
C555 C 0.35076 0.79653 0.54882 0.0
C556 C 0.37751 0.79807 0.55198 0.0
C557 C 0.37971 0.77527 0.56158 0.0
C558 C 0.35388 0.75025 0.56801 0.0
C559 C 0.32626 0.74833 0.56491 0.0
C560 C 0.32492 0.77193 0.55523 0.0
H561 H 0.57246 0.42494 0.70799 0.0
H562 H 0.48016 0.38333 0.72394 0.0
H563 H 0.48325 0.34371 0.74342 0.0
H564 H 0.57233 0.36174 0.69159 0.0
H565 H 0.608 0.3722 0.70401 0.0
H566 H 0.59973 0.39936 0.69448 0.0
H567 H 0.61403 0.42352 0.73662 0.0
H568 H 0.62235 0.39635 0.74629 0.0
H569 H 0.59653 0.40244 0.76252 0.0
H570 H 0.49481 0.30694 0.75751 0.0
H571 H 0.51347 0.27357 0.76393 0.0
H572 H 0.59848 0.33793 0.73828 0.0
C573 C 0.55317 0.40777 0.71613 0.0
C574 C 0.52612 0.40711 0.71479 0.0
C575 C 0.50104 0.38408 0.72497 0.0
C576 C 0.50265 0.36165 0.73615 0.0
C577 C 0.5295 0.36258 0.73688 0.0
C578 C 0.55434 0.38496 0.72712 0.0
C579 C 0.57968 0.37918 0.72829 0.0
C580 C 0.59056 0.37804 0.7031 0.0
C581 C 0.60462 0.40171 0.74439 0.0
C582 C 0.56495 0.34972 0.73961 0.0
C583 C 0.53613 0.34084 0.74475 0.0
C584 C 0.51743 0.31375 0.75386 0.0
C585 C 0.52823 0.29492 0.75738 0.0
C586 C 0.55745 0.30317 0.75169 0.0
C587 C 0.57619 0.3312 0.74317 0.0
H588 H 0.16253 0.57682 0.8498 0.0
H589 H 0.10782 0.51114 0.9 0.0
H590 H 0.15169 0.51989 0.9229 0.0
H591 H 0.21756 0.55979 0.84737 0.0
H592 H 0.24763 0.59628 0.84594 0.0
H593 H 0.21192 0.58767 0.8351 0.0
H594 H 0.21286 0.62676 0.86344 0.0
H595 H 0.2487 0.63555 0.87436 0.0
H596 H 0.21936 0.62578 0.89502 0.0
H597 H 0.20062 0.53014 0.93674 0.0
H598 H 0.25237 0.54315 0.94179 0.0
H599 H 0.27634 0.60458 0.88471 0.0
C600 C 0.1598 0.56487 0.86597 0.0
C601 C 0.13178 0.54314 0.87301 0.0
C602 C 0.1291 0.52757 0.89405 0.0
C603 C 0.15386 0.53257 0.90732 0.0
C604 C 0.1812 0.55353 0.89956 0.0
C605 C 0.18439 0.56972 0.87956 0.0
C606 C 0.21646 0.58945 0.87421 0.0
C607 C 0.22381 0.58288 0.84918 0.0
C608 C 0.22483 0.62127 0.87693 0.0
C609 C 0.23066 0.58094 0.89375 0.0
C610 C 0.20985 0.56032 0.90827 0.0
C611 C 0.21722 0.54681 0.92595 0.0
C612 C 0.24658 0.55425 0.92865 0.0
C613 C 0.2682 0.57521 0.91397 0.0
C614 C 0.26024 0.58916 0.89665 0.0
H615 H 0.59414 0.15301 0.03675 0.0
H616 H 0.66762 0.13998 0.02279 0.0
H617 H 0.7017 0.19025 0.03527 0.0
H618 H 0.62701 0.22367 0.01284 0.0
H619 H 0.61143 0.23707 0.03449 0.0
H620 H 0.59262 0.19933 0.02633 0.0
H621 H 0.59191 0.18628 0.07088 0.0
H622 H 0.61081 0.22402 0.07918 0.0
H623 H 0.62581 0.20164 0.08783 0.0
H624 H 0.72793 0.24216 0.04793 0.0
H625 H 0.74472 0.29297 0.05835 0.0
H626 H 0.65438 0.27319 0.0621 0.0
C627 C 0.61737 0.16065 0.03622 0.0
C628 C 0.62807 0.14226 0.02898 0.0
C629 C 0.65873 0.15328 0.0288 0.0
C630 C 0.67833 0.18191 0.03571 0.0
C631 C 0.66701 0.19939 0.04263 0.0
C632 C 0.63728 0.18927 0.04283 0.0
C633 C 0.63091 0.21296 0.04994 0.0
C634 C 0.61453 0.21859 0.02969 0.0
C635 C 0.61385 0.20579 0.07335 0.0
C636 C 0.66175 0.23805 0.05346 0.0
C637 C 0.68221 0.22964 0.04937 0.0
C638 C 0.71213 0.24901 0.05123 0.0
C639 C 0.72143 0.27784 0.05718 0.0
C640 C 0.70087 0.28712 0.06103 0.0
C641 C 0.67064 0.26681 0.0593 0.0
H642 H 0.42839 0.583 0.2245 0.0
H643 H 0.49052 0.63736 0.17146 0.0
H644 H 0.478 0.67502 0.17974 0.0
H645 H 0.37341 0.60206 0.20939 0.0
H646 H 0.36222 0.60123 0.23984 0.0
H647 H 0.3768 0.57867 0.23052 0.0
H648 H 0.41615 0.60092 0.26438 0.0
H649 H 0.40182 0.6237 0.27369 0.0
H650 H 0.43987 0.63949 0.26626 0.0
H651 H 0.45981 0.70711 0.19378 0.0
H652 H 0.43393 0.7306 0.2105 0.0
H653 H 0.38102 0.65498 0.25296 0.0
C654 C 0.43923 0.60272 0.2145 0.0
C655 C 0.46089 0.6073 0.19761 0.0
C656 C 0.47452 0.63354 0.18499 0.0
C657 C 0.46742 0.65506 0.18943 0.0
C658 C 0.44636 0.65001 0.20637 0.0
C659 C 0.43217 0.62443 0.21853 0.0
C660 C 0.4097 0.62437 0.2353 0.0
C661 C 0.3787 0.60015 0.22833 0.0
C662 C 0.41735 0.62198 0.26146 0.0
C663 C 0.4135 0.65389 0.23053 0.0
C664 C 0.43501 0.66835 0.21396 0.0
C665 C 0.44284 0.69601 0.20672 0.0
C666 C 0.42803 0.7092 0.21642 0.0
C667 C 0.40536 0.69465 0.23305 0.0
C668 C 0.39819 0.66665 0.24028 0.0
H669 H 0.85163 0.42048 0.36224 0.0
H670 H 0.9111 0.51297 0.36555 0.0
H671 H 0.87239 0.52011 0.38278 0.0
H672 H 0.78849 0.42402 0.34467 0.0
H673 H 0.76321 0.39395 0.36218 0.0
H674 H 0.79608 0.39556 0.35158 0.0
H675 H 0.81065 0.3909 0.39497 0.0
H676 H 0.77778 0.38927 0.40571 0.0
H677 H 0.81297 0.41611 0.41773 0.0
H678 H 0.82773 0.51799 0.39763 0.0
H679 H 0.77839 0.50692 0.40893 0.0
H680 H 0.74637 0.41561 0.39629 0.0
C681 C 0.85646 0.44214 0.36688 0.0
C682 C 0.88425 0.46622 0.36246 0.0
C683 C 0.88982 0.4943 0.36852 0.0
C684 C 0.86807 0.49856 0.37846 0.0
C685 C 0.84082 0.47451 0.38229 0.0
C686 C 0.83481 0.44683 0.37672 0.0
C687 C 0.8031 0.42501 0.3817 0.0
C688 C 0.78676 0.40868 0.35866 0.0
C689 C 0.80101 0.40409 0.40119 0.0
C690 C 0.79228 0.44488 0.39059 0.0
C691 C 0.81458 0.47328 0.39092 0.0
C692 C 0.81007 0.49583 0.39762 0.0
C693 C 0.7819 0.48928 0.40394 0.0
C694 C 0.75846 0.46039 0.40351 0.0
C695 C 0.76387 0.43786 0.39699 0.0
H696 H 0.11745 0.57943 0.42882 0.0
H697 H 0.12947 0.50487 0.42757 0.0
H698 H 0.16304 0.52495 0.46256 0.0
H699 H 0.19061 0.63227 0.44718 0.0
H700 H 0.1789 0.6518 0.46627 0.0
H701 H 0.15708 0.63218 0.44041 0.0
H702 H 0.11212 0.60377 0.46726 0.0
H703 H 0.13378 0.62329 0.4932 0.0
H704 H 0.11492 0.58442 0.49238 0.0
H705 H 0.1949 0.55318 0.49837 0.0
H706 H 0.2214 0.58662 0.53229 0.0
H707 H 0.18598 0.64092 0.5108 0.0
C708 C 0.12691 0.56712 0.43593 0.0
C709 C 0.12076 0.54052 0.42532 0.0
C710 C 0.13414 0.5255 0.43507 0.0
C711 C 0.15311 0.53664 0.45506 0.0
C712 C 0.1584 0.56276 0.46517 0.0
C713 C 0.1456 0.57774 0.45594 0.0
C714 C 0.15415 0.60494 0.47041 0.0
C715 C 0.1712 0.63189 0.45516 0.0
C716 C 0.12713 0.60403 0.48147 0.0
C717 C 0.17366 0.60289 0.48934 0.0
C718 C 0.17605 0.57855 0.48597 0.0
C719 C 0.19314 0.57228 0.5012 0.0
C720 C 0.2081 0.5914 0.52041 0.0
C721 C 0.20566 0.61631 0.52429 0.0
C722 C 0.18818 0.62199 0.50846 0.0
H723 H 0.53859 0.1068 0.60372 0.0
H724 H 0.60758 0.17076 0.56009 0.0
H725 H 0.62502 0.2051 0.59447 0.0
H726 H 0.52142 0.15575 0.63268 0.0
H727 H 0.51342 0.13738 0.66077 0.0
H728 H 0.5081 0.1175 0.63323 0.0
H729 H 0.54208 0.09916 0.64924 0.0
H730 H 0.54763 0.11911 0.6768 0.0
H731 H 0.57865 0.12486 0.65949 0.0
H732 H 0.63414 0.23287 0.63418 0.0
H733 H 0.63207 0.25193 0.67434 0.0
H734 H 0.55514 0.17005 0.68984 0.0
C735 C 0.55722 0.12808 0.60118 0.0
C736 C 0.57164 0.13598 0.5791 0.0
C737 C 0.59635 0.16396 0.5769 0.0
C738 C 0.60636 0.18368 0.5963 0.0
C739 C 0.59138 0.17515 0.61774 0.0
C740 C 0.56723 0.14802 0.62016 0.0
C741 C 0.55404 0.14432 0.64458 0.0
C742 C 0.52238 0.1384 0.64269 0.0
C743 C 0.55572 0.12046 0.65833 0.0
C744 C 0.57432 0.17373 0.65554 0.0
C745 C 0.596 0.19119 0.64 0.0
C746 C 0.61722 0.21936 0.64646 0.0
C747 C 0.61594 0.22998 0.66928 0.0
C748 C 0.59334 0.21253 0.68509 0.0
C749 C 0.57254 0.18402 0.67808 0.0
H750 H 0.40789 0.52711 0.75364 0.0
H751 H 0.47047 0.61484 0.73447 0.0
H752 H 0.45567 0.63324 0.76927 0.0
H753 H 0.35108 0.54164 0.77635 0.0
H754 H 0.3418 0.51626 0.80015 0.0
H755 H 0.35527 0.51043 0.77239 0.0
H756 H 0.39652 0.50766 0.79565 0.0
H757 H 0.38337 0.51372 0.82342 0.0
H758 H 0.42084 0.53722 0.81522 0.0
H759 H 0.43613 0.64171 0.80771 0.0
H760 H 0.41374 0.63959 0.84679 0.0
H761 H 0.36481 0.54608 0.84078 0.0
C762 C 0.41791 0.55021 0.75642 0.0
C763 C 0.44011 0.5696 0.7413 0.0
C764 C 0.45338 0.59967 0.74589 0.0
C765 C 0.44505 0.61028 0.76553 0.0
C766 C 0.42348 0.59053 0.78039 0.0
C767 C 0.41003 0.56113 0.77601 0.0
C768 C 0.3889 0.54437 0.79551 0.0
C769 C 0.3574 0.52716 0.7855 0.0
C770 C 0.39797 0.52459 0.8082 0.0
C771 C 0.3929 0.56889 0.81178 0.0
C772 C 0.41269 0.59537 0.80267 0.0
C773 C 0.42044 0.62109 0.81494 0.0
C774 C 0.40765 0.61967 0.83714 0.0
C775 C 0.38756 0.59268 0.8469 0.0
C776 C 0.38008 0.56707 0.83387 0.0
H777 H 0.89438 0.48082 0.91487 0.0
H778 H 0.86234 0.393 0.88958 0.0
H779 H 0.82815 0.37483 0.9233 0.0
H780 H 0.89415 0.46663 0.97613 0.0
H781 H 0.88285 0.49174 0.98583 0.0
H782 H 0.90284 0.49789 0.95862 0.0
H783 H 0.86143 0.50008 0.93513 0.0
H784 H 0.84129 0.49399 0.96232 0.0
H785 H 0.82442 0.47043 0.93669 0.0
H786 H 0.79938 0.36623 0.96077 0.0
H787 H 0.7791 0.36753 0.99997 0.0
H788 H 0.83046 0.46113 0.00114 0.0
C789 C 0.87974 0.4578 0.91617 0.0
C790 C 0.88081 0.43828 0.89955 0.0
C791 C 0.86186 0.40828 0.90218 0.0
C792 C 0.8423 0.39779 0.92117 0.0
C793 C 0.84202 0.41761 0.9374 0.0
C794 C 0.86025 0.44698 0.93511 0.0
C795 C 0.85691 0.46359 0.95578 0.0
C796 C 0.88591 0.48098 0.96992 0.0
C797 C 0.84532 0.48318 0.94695 0.0
C798 C 0.83425 0.43896 0.97024 0.0
C799 C 0.82574 0.41264 0.9592 0.0
C800 C 0.80573 0.38673 0.96951 0.0
C801 C 0.79434 0.38771 0.99181 0.0
C802 C 0.80313 0.41444 0.00368 0.0
C803 C 0.82313 0.44036 0.99252 0.0
H804 H 0.44134 0.90094 0.08337 0.0
H805 H 0.49956 0.86779 0.06784 0.0
H806 H 0.47897 0.8341 0.10142 0.0
H807 H 0.44703 0.89997 0.14622 0.0
H808 H 0.40936 0.88948 0.15133 0.0
H809 H 0.42729 0.90947 0.12515 0.0
H810 H 0.38668 0.86954 0.09817 0.0
H811 H 0.36856 0.84942 0.12429 0.0
H812 H 0.37855 0.83275 0.10087 0.0
H813 H 0.45308 0.80527 0.13753 0.0
H814 H 0.42511 0.78454 0.17418 0.0
H815 H 0.38428 0.83718 0.16611 0.0
C816 C 0.44938 0.88623 0.08677 0.0
C817 C 0.47189 0.88679 0.07295 0.0
C818 C 0.48238 0.86773 0.0783 0.0
C819 C 0.47072 0.84845 0.09723 0.0
C820 C 0.44866 0.8486 0.11062 0.0
C821 C 0.43814 0.86702 0.10564 0.0
C822 C 0.41538 0.86394 0.12343 0.0
C823 C 0.42537 0.89241 0.13736 0.0
C824 C 0.38552 0.85327 0.11094 0.0
C825 C 0.41494 0.84109 0.13936 0.0
C826 C 0.4341 0.83233 0.13157 0.0
C827 C 0.43791 0.81186 0.14374 0.0
C828 C 0.42191 0.80021 0.16454 0.0
C829 C 0.40247 0.80922 0.17305 0.0
C830 C 0.39887 0.82976 0.16008 0.0
H831 H 0.5811 0.48933 0.27502 0.0
H832 H 0.52563 0.40085 0.25043 0.0
H833 H 0.54233 0.38392 0.28507 0.0
H834 H 0.64136 0.48206 0.2944 0.0
H835 H 0.64996 0.50615 0.31981 0.0
H836 H 0.63266 0.5106 0.29359 0.0
H837 H 0.59052 0.50701 0.31949 0.0
H838 H 0.60767 0.50249 0.3458 0.0
H839 H 0.57042 0.476 0.33796 0.0
H840 H 0.56746 0.37739 0.32231 0.0
H841 H 0.5975 0.38204 0.35834 0.0
H842 H 0.6353 0.47503 0.35722 0.0
C843 C 0.57255 0.46638 0.2768 0.0
C844 C 0.55225 0.44641 0.25996 0.0
C845 C 0.54113 0.41652 0.26322 0.0
C846 C 0.55056 0.40673 0.28278 0.0
C847 C 0.57089 0.42714 0.29895 0.0
C848 C 0.58158 0.45633 0.29612 0.0
C849 C 0.60338 0.47408 0.31564 0.0
C850 C 0.63363 0.49441 0.30523 0.0
C851 C 0.59232 0.49087 0.33061 0.0
C852 C 0.60362 0.4504 0.32986 0.0
C853 C 0.5848 0.42341 0.32011 0.0
C854 C 0.58213 0.39845 0.33014 0.0
C855 C 0.59926 0.40127 0.35058 0.0
C856 C 0.61872 0.42886 0.36069 0.0
C857 C 0.62059 0.45356 0.35012 0.0
H858 H 0.43585 0.9215 0.38192 0.0
H859 H 0.50321 0.9025 0.40449 0.0
H860 H 0.48694 0.86481 0.37267 0.0
H861 H 0.37995 0.848 0.36714 0.0
H862 H 0.36642 0.85839 0.34164 0.0
H863 H 0.38286 0.88301 0.3667 0.0
H864 H 0.41975 0.92194 0.33841 0.0
H865 H 0.40345 0.89745 0.31329 0.0
H866 H 0.4421 0.91354 0.31957 0.0
H867 H 0.46327 0.8294 0.33775 0.0
H868 H 0.43547 0.80071 0.30197 0.0
H869 H 0.38428 0.84383 0.30271 0.0
C870 C 0.44693 0.90915 0.38039 0.0
C871 C 0.4707 0.91482 0.39572 0.0
C872 C 0.48505 0.89861 0.39281 0.0
C873 C 0.47587 0.87708 0.3749 0.0
C874 C 0.45237 0.8721 0.36003 0.0
C875 C 0.43817 0.88776 0.36258 0.0
C876 C 0.41418 0.87899 0.34387 0.0
C877 C 0.38407 0.86634 0.35554 0.0
C878 C 0.42025 0.9045 0.32784 0.0
C879 C 0.41716 0.85606 0.33027 0.0
C880 C 0.43914 0.85218 0.3399 0.0
C881 C 0.44597 0.83224 0.33009 0.0
C882 C 0.43005 0.81602 0.3098 0.0
C883 C 0.40773 0.82003 0.29948 0.0
C884 C 0.40123 0.84022 0.31007 0.0
H885 H 0.54729 0.43197 0.56202 0.0
H886 H 0.62086 0.50824 0.59464 0.0
H887 H 0.65416 0.5034 0.56734 0.0
H888 H 0.58665 0.3927 0.54757 0.0
H889 H 0.56803 0.37971 0.51908 0.0
H890 H 0.54985 0.3861 0.54352 0.0
H891 H 0.5405 0.42031 0.51722 0.0
H892 H 0.55842 0.41385 0.49271 0.0
H893 H 0.57095 0.45023 0.50315 0.0
H894 H 0.67901 0.49454 0.53444 0.0
H895 H 0.69371 0.48335 0.49594 0.0
H896 H 0.60509 0.41338 0.48289 0.0
C897 C 0.57042 0.44752 0.5636 0.0
C898 C 0.58133 0.47015 0.58101 0.0
C899 C 0.61183 0.49009 0.58219 0.0
C900 C 0.63104 0.48764 0.56662 0.0
C901 C 0.61959 0.46524 0.54974 0.0
C902 C 0.59001 0.44557 0.54796 0.0
C903 C 0.58327 0.4253 0.52659 0.0
C904 C 0.57124 0.3941 0.53468 0.0
C905 C 0.56204 0.42758 0.50887 0.0
C906 C 0.61358 0.43736 0.51625 0.0
C907 C 0.63419 0.46011 0.53022 0.0
C908 C 0.66325 0.47645 0.52356 0.0
C909 C 0.67139 0.46995 0.50169 0.0
C910 C 0.65062 0.44727 0.48678 0.0
C911 C 0.62151 0.43025 0.49439 0.0
H912 H 0.11925 0.55358 0.71946 0.0
H913 H 0.12199 0.62834 0.75325 0.0
H914 H 0.16111 0.66015 0.72619 0.0
H915 H 0.19939 0.58851 0.70905 0.0
H916 H 0.19401 0.57006 0.68068 0.0
H917 H 0.168 0.55313 0.70414 0.0
H918 H 0.12614 0.54674 0.67556 0.0
H919 H 0.15196 0.56365 0.65207 0.0
H920 H 0.12884 0.57785 0.66103 0.0
H921 H 0.19514 0.68333 0.69272 0.0
H922 H 0.22358 0.6966 0.65561 0.0
H923 H 0.20196 0.60776 0.64471 0.0
C924 C 0.12857 0.57667 0.72156 0.0
C925 C 0.11733 0.5884 0.73842 0.0
C926 C 0.12982 0.61876 0.74024 0.0
C927 C 0.15227 0.63706 0.72509 0.0
C928 C 0.16239 0.62479 0.70838 0.0
C929 C 0.15121 0.59533 0.70665 0.0
C930 C 0.16495 0.58769 0.6862 0.0
C931 C 0.18264 0.57404 0.69558 0.0
C932 C 0.14158 0.56782 0.66762 0.0
C933 C 0.18487 0.61738 0.67626 0.0
C934 C 0.1831 0.63845 0.68945 0.0
C935 C 0.19726 0.66716 0.68257 0.0
C936 C 0.21331 0.67449 0.66148 0.0
C937 C 0.21537 0.65331 0.64767 0.0
C938 C 0.20144 0.62449 0.6554 0.0
H939 H 0.5461 0.08835 0.87679 0.0
H940 H 0.62166 0.14409 0.92173 0.0
H941 H 0.63618 0.18331 0.89274 0.0
H942 H 0.57919 0.11381 0.8199 0.0
H943 H 0.54666 0.11134 0.80678 0.0
H944 H 0.54364 0.08742 0.83034 0.0
H945 H 0.51346 0.10427 0.85513 0.0
H946 H 0.51637 0.12822 0.83165 0.0
H947 H 0.52842 0.14219 0.86163 0.0
H948 H 0.64159 0.21697 0.85837 0.0
H949 H 0.63618 0.24174 0.82306 0.0
H950 H 0.55539 0.16382 0.8032 0.0
C951 C 0.56561 0.10882 0.88075 0.0
C952 C 0.58267 0.11305 0.90163 0.0
C953 C 0.60839 0.14011 0.90572 0.0
C954 C 0.61674 0.16259 0.88941 0.0
C955 C 0.5991 0.15769 0.86917 0.0
C956 C 0.57402 0.13144 0.86491 0.0
C957 C 0.55808 0.1317 0.84244 0.0
C958 C 0.55684 0.10977 0.82377 0.0
C959 C 0.52727 0.12629 0.84806 0.0
C960 C 0.57794 0.1623 0.83472 0.0
C961 C 0.60169 0.17701 0.85012 0.0
C962 C 0.62302 0.20563 0.84625 0.0
C963 C 0.61981 0.21952 0.82618 0.0
C964 C 0.59526 0.20481 0.81052 0.0
C965 C 0.57426 0.17583 0.81495 0.0
H966 H 0.43083 0.52777 0.06024 0.0
H967 H 0.49525 0.61559 0.08078 0.0
H968 H 0.47818 0.63373 0.04727 0.0
H969 H 0.43778 0.53798 0.99704 0.0
H970 H 0.39941 0.514 0.99075 0.0
H971 H 0.4165 0.50839 0.01656 0.0
H972 H 0.3781 0.5104 0.04382 0.0
H973 H 0.3609 0.51604 0.0181 0.0
H974 H 0.37316 0.54136 0.04295 0.0
H975 H 0.45303 0.64189 0.01146 0.0
H976 H 0.42386 0.63927 0.97557 0.0
H977 H 0.37704 0.54579 0.97878 0.0
C978 C 0.44117 0.55084 0.05781 0.0
C979 C 0.46419 0.57033 0.07315 0.0
C980 C 0.47762 0.60033 0.06913 0.0
C981 C 0.46799 0.6108 0.05024 0.0
C982 C 0.4451 0.59093 0.03548 0.0
C983 C 0.43204 0.56158 0.03901 0.0
C984 C 0.40841 0.54461 0.02038 0.0
C985 C 0.41599 0.5251 0.00529 0.0
C986 C 0.37837 0.52707 0.03202 0.0
C987 C 0.41004 0.56896 0.00584 0.0
C988 C 0.4312 0.59556 0.01481 0.0
C989 C 0.43645 0.62116 0.00426 0.0
C990 C 0.41974 0.61946 0.98392 0.0
C991 C 0.39821 0.59234 0.9743 0.0
C992 C 0.39338 0.56688 0.98558 0.0
H993 H 0.91908 0.47229 0.21962 0.0
H994 H 0.90659 0.38615 0.22673 0.0
H995 H 0.87144 0.3692 0.19272 0.0
H996 H 0.8451 0.45119 0.2032 0.0
H997 H 0.85536 0.4796 0.18196 0.0
H998 H 0.87896 0.48479 0.20729 0.0
H999 H 0.92193 0.49698 0.17887 0.0
H1000 H 0.89848 0.49186 0.15345 0.0
H1001 H 0.91743 0.47173 0.15532 0.0
H1002 H 0.83776 0.36165 0.15786 0.0
H1003 H 0.8086 0.36418 0.12419 0.0
H1004 H 0.84466 0.45573 0.13887 0.0
C1005 C 0.9092 0.4499 0.21394 0.0
C1006 C 0.9156 0.43055 0.22597 0.0
C1007 C 0.90173 0.40132 0.21811 0.0
C1008 C 0.88186 0.39151 0.1987 0.0
C1009 C 0.87616 0.4112 0.18724 0.0
C1010 C 0.88948 0.43979 0.19452 0.0
C1011 C 0.87985 0.45663 0.17896 0.0
C1012 C 0.86386 0.46876 0.19374 0.0
C1013 C 0.90598 0.48072 0.16588 0.0
C1014 C 0.85907 0.43303 0.16174 0.0
C1015 C 0.85715 0.40696 0.1669 0.0
C1016 C 0.83913 0.38195 0.15362 0.0
C1017 C 0.82262 0.38363 0.13454 0.0
C1018 C 0.82437 0.41017 0.12881 0.0
C1019 C 0.84292 0.43515 0.14267 0.0
loop_
_geom_bond_atom_site_label_1
_geom_bond_atom_site_label_2
_geom_bond_distance
_geom_bond_site_symmetry_2
_ccdc_geom_bond_type
H0 C19 0.949 . S
H1 C20 0.950 . S
H2 C22 0.950 . S
H3 C23 0.950 . S
H4 C25 0.950 . S
H5 C28 0.950 . S
H6 C29 0.950 . S
H7 C31 0.951 . S
H8 C32 0.949 . S
H9 C34 0.949 . S
H10 C35 0.950 . S
H11 C37 0.950 . S
H12 C38 0.950 . S
H13 C40 0.945 1_655 S
H14 C43 0.950 . S
H15 C44 0.950 . S
H16 C46 0.951 . S
H17 C47 0.949 . S
C18 C19 1.376 . S
C18 C23 1.386 . S
C18 C24 1.483 . S
C19 H0 0.949 . S
C19 C18 1.376 . S
C19 C20 1.397 . S
C20 H1 0.950 . S
C20 C19 1.397 . S
C20 C21 1.391 . S
C21 C20 1.391 . S
C21 C22 1.405 . S
C22 H2 0.950 . S
C22 C21 1.405 . S
C22 C23 1.367 . S
C23 H3 0.950 . S
C23 C18 1.386 . S
C23 C22 1.367 . S
C24 C18 1.483 . S
C24 C25 1.382 1_655 S
C24 C26 1.403 . S
C25 H4 0.950 . S
C25 C24 1.382 1_455 S
C25 C41 1.411 . S
C26 C24 1.403 . S
C26 C27 1.489 . S
C26 C40 1.402 1_655 S
C27 C26 1.489 . S
C27 C28 1.383 . S
C27 C32 1.382 . S
C28 H5 0.950 . S
C28 C27 1.383 . S
C28 C29 1.395 . S
C29 H6 0.950 . S
C29 C28 1.395 . S
C29 C30 1.288 . S
C30 C29 1.288 . S
C30 C31 1.392 . S
C31 H7 0.951 . S
C31 C30 1.392 . S
C31 C32 1.392 . S
C32 H8 0.949 . S
C32 C27 1.382 . S
C32 C31 1.392 . S
C33 C34 1.376 . S
C33 C38 1.386 . S
C33 C39 1.483 . S
C34 H9 0.949 . S
C34 C33 1.376 . S
C34 C35 1.397 . S
C35 H10 0.950 . S
C35 C34 1.397 . S
C35 C36 1.391 . S
C36 C35 1.391 . S
C36 C37 1.405 . S
C37 H11 0.950 . S
C37 C36 1.405 . S
C37 C38 1.367 . S
C38 H12 0.950 . S
C38 C33 1.386 . S
C38 C37 1.367 . S
C39 C33 1.483 . S
C39 C40 1.395 . S
C39 C41 1.403 . S
C40 H13 0.945 1_455 S
C40 C26 1.402 1_455 S
C40 C39 1.395 . S
C41 C25 1.411 . S
C41 C39 1.403 . S
C41 C42 1.489 . S
C42 C41 1.489 . S
C42 C43 1.383 . S
C42 C47 1.382 . S
C43 H14 0.950 . S
C43 C42 1.383 . S
C43 C44 1.395 . S
C44 H15 0.950 . S
C44 C43 1.395 . S
C44 C45 1.288 . S
C45 C44 1.288 . S
C45 C46 1.392 . S
C46 H16 0.951 . S
C46 C45 1.392 . S
C46 C47 1.392 . S
C47 H17 0.949 . S
C47 C42 1.382 . S
C47 C46 1.392 . S
H48 C67 0.949 . S
H49 C68 0.950 . S
H50 C70 0.950 . S
H51 C71 0.950 . S
H52 C73 0.950 . S
H53 C76 0.950 . S
H54 C77 0.950 . S
H55 C79 0.951 . S
H56 C80 0.949 . S
H57 C82 0.949 . S
H58 C83 0.950 . S
H59 C85 0.950 . S
H60 C86 0.950 . S
H61 C88 0.950 . S
H62 C91 0.950 . S
H63 C92 0.950 . S
H64 C94 0.951 . S
H65 C95 0.949 . S
C66 C67 1.376 . S
C66 C71 1.386 . S
C66 C72 1.483 . S
C67 H48 0.949 . S
C67 C66 1.376 . S
C67 C68 1.397 . S
C68 H49 0.950 . S
C68 C67 1.397 . S
C68 C69 1.391 . S
C69 C68 1.391 . S
C69 C70 1.405 . S
C70 H50 0.950 . S
C70 C69 1.405 . S
C70 C71 1.367 . S
C71 H51 0.950 . S
C71 C66 1.386 . S
C71 C70 1.367 . S
C72 C66 1.483 . S
C72 C73 1.382 . S
C72 C74 1.403 . S
C73 H52 0.950 . S
C73 C72 1.382 . S
C73 C89 1.411 1_565 S
C74 C72 1.403 . S
C74 C75 1.489 . S
C74 C88 1.411 1_565 S
C75 C74 1.489 . S
C75 C76 1.383 . S
C75 C80 1.382 . S
C76 H53 0.950 . S
C76 C75 1.383 . S
C76 C77 1.395 . S
C77 H54 0.950 . S
C77 C76 1.395 . S
C77 C78 1.288 . S
C78 C77 1.288 . S
C78 C79 1.392 . S
C79 H55 0.951 . S
C79 C78 1.392 . S
C79 C80 1.392 . S
C80 H56 0.949 . S
C80 C75 1.382 . S
C80 C79 1.392 . S
C81 C82 1.376 . S
C81 C86 1.386 . S
C81 C87 1.483 . S
C82 H57 0.949 . S
C82 C81 1.376 . S
C82 C83 1.397 . S
C83 H58 0.950 . S
C83 C82 1.397 . S
C83 C84 1.391 . S
C84 C83 1.391 . S
C84 C85 1.405 . S
C85 H59 0.950 . S
C85 C84 1.405 . S
C85 C86 1.367 . S
C86 H60 0.950 . S
C86 C81 1.386 . S
C86 C85 1.367 . S
C87 C81 1.483 . S
C87 C88 1.382 . S
C87 C89 1.403 . S
C88 H61 0.950 . S
C88 C74 1.411 1_545 S
C88 C87 1.382 . S
C89 C73 1.411 1_545 S
C89 C87 1.403 . S
C89 C90 1.489 . S
C90 C89 1.489 . S
C90 C91 1.383 . S
C90 C95 1.382 . S
C91 H62 0.950 . S
C91 C90 1.383 . S
C91 C92 1.395 . S
C92 H63 0.950 . S
C92 C91 1.395 . S
C92 C93 1.288 . S
C93 C92 1.288 . S
C93 C94 1.392 . S
C94 H64 0.951 . S
C94 C93 1.392 . S
C94 C95 1.392 . S
C95 H65 0.949 . S
C95 C90 1.382 . S
C95 C94 1.392 . S
H96 C115 0.949 . S
H97 C116 0.950 . S
H98 C118 0.950 . S
H99 C119 0.950 . S
H100 C121 0.950 . S
H101 C124 0.950 . S
H102 C125 0.950 . S
H103 C127 0.951 . S
H104 C128 0.949 . S
H105 C130 0.949 . S
H106 C131 0.950 . S
H107 C133 0.950 . S
H108 C134 0.950 . S
H109 C136 0.950 . S
H110 C139 0.950 . S
H111 C140 0.950 . S
H112 C142 0.951 . S
H113 C143 0.949 . S
C114 C115 1.376 . S
C114 C119 1.386 . S
C114 C120 1.483 . S
C115 H96 0.949 . S
C115 C114 1.376 . S
C115 C116 1.397 . S
C116 H97 0.950 . S
C116 C115 1.397 . S
C116 C117 1.391 . S
C117 C116 1.391 . S
C117 C118 1.405 . S
C118 H98 0.950 . S
C118 C117 1.405 . S
C118 C119 1.367 . S
C119 H99 0.950 . S
C119 C114 1.386 . S
C119 C118 1.367 . S
C120 C114 1.483 . S
C120 C121 1.382 . S
C120 C122 1.403 . S
C121 H100 0.950 . S
C121 C120 1.382 . S
C121 C137 1.411 . S
C122 C120 1.403 . S
C122 C123 1.489 . S
C122 C136 1.411 . S
C123 C122 1.489 . S
C123 C124 1.383 . S
C123 C128 1.382 . S
C124 H101 0.950 . S
C124 C123 1.383 . S
C124 C125 1.395 . S
C125 H102 0.950 . S
C125 C124 1.395 . S
C125 C126 1.288 . S
C126 C125 1.288 . S
C126 C127 1.392 . S
C127 H103 0.951 . S
C127 C126 1.392 . S
C127 C128 1.392 . S
C128 H104 0.949 . S
C128 C123 1.382 . S
C128 C127 1.392 . S
C129 C130 1.376 . S
C129 C134 1.386 . S
C129 C135 1.483 . S
C130 H105 0.949 . S
C130 C129 1.376 . S
C130 C131 1.397 . S
C131 H106 0.950 . S
C131 C130 1.397 . S
C131 C132 1.391 . S
C132 C131 1.391 . S
C132 C133 1.405 . S
C133 H107 0.950 . S
C133 C132 1.405 . S
C133 C134 1.367 . S
C134 H108 0.950 . S
C134 C129 1.386 . S
C134 C133 1.367 . S
C135 C129 1.483 . S
C135 C136 1.382 . S
C135 C137 1.403 . S
C136 H109 0.950 . S
C136 C122 1.411 . S
C136 C135 1.382 . S
C137 C121 1.411 . S
C137 C135 1.403 . S
C137 C138 1.489 . S
C138 C137 1.489 . S
C138 C139 1.383 . S
C138 C143 1.382 . S
C139 H110 0.950 . S
C139 C138 1.383 . S
C139 C140 1.395 . S
C140 H111 0.950 . S
C140 C139 1.395 . S
C140 C141 1.288 . S
C141 C140 1.288 . S
C141 C142 1.392 . S
C142 H112 0.951 . S
C142 C141 1.392 . S
C142 C143 1.392 . S
C143 H113 0.949 . S
C143 C138 1.382 . S
C143 C142 1.392 . S
H144 C163 0.949 . S
H145 C164 0.950 . S
H146 C166 0.950 . S
H147 C167 0.950 . S
H148 C169 0.950 1_655 S
H149 C172 0.950 . S
H150 C173 0.950 . S
H151 C175 0.951 . S
H152 C176 0.949 . S
H153 C178 0.949 . S
H154 C179 0.950 . S
H155 C181 0.950 . S
H156 C182 0.950 . S
H157 C184 0.950 . S
H158 C187 0.950 . S
H159 C188 0.950 . S
H160 C190 0.951 . S
H161 C191 0.949 . S
C162 C163 1.376 . S
C162 C167 1.386 . S
C162 C168 1.483 . S
C163 H144 0.949 . S
C163 C162 1.376 . S
C163 C164 1.397 . S
C164 H145 0.950 . S
C164 C163 1.397 . S
C164 C165 1.391 . S
C165 C164 1.391 . S
C165 C166 1.405 . S
C166 H146 0.950 . S
C166 C165 1.405 . S
C166 C167 1.367 . S
C167 H147 0.950 . S
C167 C162 1.386 . S
C167 C166 1.367 . S
C168 C162 1.483 . S
C168 C169 1.382 . S
C168 C170 1.403 . S
C169 H148 0.950 1_455 S
C169 C168 1.382 . S
C169 C185 1.411 1_455 S
C170 C168 1.403 . S
C170 C171 1.489 . S
C170 C184 1.411 . S
C171 C170 1.489 . S
C171 C172 1.383 . S
C171 C176 1.382 . S
C172 H149 0.950 . S
C172 C171 1.383 . S
C172 C173 1.395 . S
C173 H150 0.950 . S
C173 C172 1.395 . S
C173 C174 1.288 . S
C174 C173 1.288 . S
C174 C175 1.392 . S
C175 H151 0.951 . S
C175 C174 1.392 . S
C175 C176 1.392 . S
C176 H152 0.949 . S
C176 C171 1.382 . S
C176 C175 1.392 . S
C177 C178 1.376 . S
C177 C182 1.386 . S
C177 C183 1.483 . S
C178 H153 0.949 . S
C178 C177 1.376 . S
C178 C179 1.397 . S
C179 H154 0.950 . S
C179 C178 1.397 . S
C179 C180 1.391 . S
C180 C179 1.391 . S
C180 C181 1.405 . S
C181 H155 0.950 . S
C181 C180 1.405 . S
C181 C182 1.367 . S
C182 H156 0.950 . S
C182 C177 1.386 . S
C182 C181 1.367 . S
C183 C177 1.483 . S
C183 C184 1.382 1_655 S
C183 C185 1.403 . S
C184 H157 0.950 . S
C184 C170 1.411 . S
C184 C183 1.382 1_455 S
C185 C169 1.411 1_655 S
C185 C183 1.403 . S
C185 C186 1.489 . S
C186 C185 1.489 . S
C186 C187 1.383 . S
C186 C191 1.382 . S
C187 H158 0.950 . S
C187 C186 1.383 . S
C187 C188 1.395 . S
C188 H159 0.950 . S
C188 C187 1.395 . S
C188 C189 1.288 . S
C189 C188 1.288 . S
C189 C190 1.392 . S
C190 H160 0.951 . S
C190 C189 1.392 . S
C190 C191 1.392 . S
C191 H161 0.949 . S
C191 C186 1.382 . S
C191 C190 1.392 . S
H192 C211 0.949 . S
H193 C212 0.950 . S
H194 C214 0.950 . S
H195 C215 0.950 . S
H196 C217 0.950 . S
H197 C220 0.950 . S
H198 C221 0.950 . S
H199 C223 0.951 . S
H200 C224 0.949 . S
H201 C226 0.949 . S
H202 C227 0.950 . S
H203 C229 0.950 . S
H204 C230 0.950 . S
H205 C232 0.957 . S
H206 C235 0.950 . S
H207 C236 0.950 . S
H208 C238 0.951 . S
H209 C239 0.949 . S
C210 C211 1.376 . S
C210 C215 1.386 1_554 S
C210 C216 1.483 1_554 S
C211 H192 0.949 . S
C211 C210 1.376 . S
C211 C212 1.397 . S
C212 H193 0.950 . S
C212 C211 1.397 . S
C212 C213 1.391 . S
C213 C212 1.391 . S
C213 C214 1.405 . S
C214 H194 0.950 . S
C214 C213 1.405 . S
C214 C215 1.367 1_554 S
C215 H195 0.950 . S
C215 C210 1.386 1_556 S
C215 C214 1.367 1_556 S
C216 C210 1.483 1_556 S
C216 C217 1.382 1_556 S
C216 C218 1.403 . S
C217 H196 0.950 . S
C217 C216 1.382 1_554 S
C217 C233 1.411 1_545 S
C218 C216 1.403 . S
C218 C219 1.489 . S
C218 C232 1.384 1_545 S
C219 C218 1.489 . S
C219 C220 1.383 . S
C219 C224 1.382 . S
C220 H197 0.950 . S
C220 C219 1.383 . S
C220 C221 1.395 . S
C221 H198 0.950 . S
C221 C220 1.395 . S
C221 C222 1.288 . S
C222 C221 1.288 . S
C222 C223 1.392 . S
C223 H199 0.951 . S
C223 C222 1.392 . S
C223 C224 1.392 . S
C224 H200 0.949 . S
C224 C219 1.382 . S
C224 C223 1.392 . S
C225 C226 1.376 . S
C225 C230 1.386 . S
C225 C231 1.483 . S
C226 H201 0.949 . S
C226 C225 1.376 . S
C226 C227 1.397 . S
C227 H202 0.950 . S
C227 C226 1.397 . S
C227 C228 1.391 . S
C228 C227 1.391 . S
C228 C229 1.405 . S
C229 H203 0.950 . S
C229 C228 1.405 . S
C229 C230 1.367 . S
C230 H204 0.950 . S
C230 C225 1.386 . S
C230 C229 1.367 . S
C231 C225 1.483 . S
C231 C232 1.403 . S
C231 C233 1.403 1_556 S
C232 H205 0.957 . S
C232 C218 1.384 1_565 S
C232 C231 1.403 . S
C233 C217 1.411 1_565 S
C233 C231 1.403 1_554 S
C233 C234 1.489 . S
C234 C233 1.489 . S
C234 C235 1.383 . S
C234 C239 1.382 . S
C235 H206 0.950 . S
C235 C234 1.383 . S
C235 C236 1.395 . S
C236 H207 0.950 . S
C236 C235 1.395 . S
C236 C237 1.288 . S
C237 C236 1.288 . S
C237 C238 1.392 . S
C238 H208 0.951 . S
C238 C237 1.392 . S
C238 C239 1.392 . S
C239 H209 0.949 . S
C239 C234 1.382 . S
C239 C238 1.392 . S
H240 C259 0.949 . S
H241 C260 0.950 . S
H242 C262 0.950 . S
H243 C263 0.950 . S
H244 C265 0.950 . S
H245 C268 0.950 . S
H246 C269 0.950 . S
H247 C271 0.951 . S
H248 C272 0.949 . S
H249 C274 0.949 . S
H250 C275 0.950 . S
H251 C277 0.950 . S
H252 C278 0.950 . S
H253 C280 0.950 . S
H254 C283 0.950 . S
H255 C284 0.950 . S
H256 C286 0.951 . S
H257 C287 0.949 . S
C258 C259 1.376 . S
C258 C263 1.386 . S
C258 C264 1.483 . S
C259 H240 0.949 . S
C259 C258 1.376 . S
C259 C260 1.397 . S
C260 H241 0.950 . S
C260 C259 1.397 . S
C260 C261 1.391 . S
C261 C260 1.391 . S
C261 C262 1.405 . S
C262 H242 0.950 . S
C262 C261 1.405 . S
C262 C263 1.367 . S
C263 H243 0.950 . S
C263 C258 1.386 . S
C263 C262 1.367 . S
C264 C258 1.483 . S
C264 C265 1.382 . S
C264 C266 1.403 . S
C265 H244 0.950 . S
C265 C264 1.382 . S
C265 C281 1.411 . S
C266 C264 1.403 . S
C266 C267 1.489 . S
C266 C280 1.411 . S
C267 C266 1.489 . S
C267 C268 1.383 . S
C267 C272 1.382 . S
C268 H245 0.950 . S
C268 C267 1.383 . S
C268 C269 1.395 . S
C269 H246 0.950 . S
C269 C268 1.395 . S
C269 C270 1.288 . S
C270 C269 1.288 . S
C270 C271 1.392 . S
C271 H247 0.951 . S
C271 C270 1.392 . S
C271 C272 1.392 . S
C272 H248 0.949 . S
C272 C267 1.382 . S
C272 C271 1.392 . S
C273 C274 1.376 . S
C273 C278 1.386 . S
C273 C279 1.483 . S
C274 H249 0.949 . S
C274 C273 1.376 . S
C274 C275 1.397 . S
C275 H250 0.950 . S
C275 C274 1.397 . S
C275 C276 1.391 . S
C276 C275 1.391 . S
C276 C277 1.405 . S
C277 H251 0.950 . S
C277 C276 1.405 . S
C277 C278 1.367 . S
C278 H252 0.950 . S
C278 C273 1.386 . S
C278 C277 1.367 . S
C279 C273 1.483 . S
C279 C280 1.382 . S
C279 C281 1.403 . S
C280 H253 0.950 . S
C280 C266 1.411 . S
C280 C279 1.382 . S
C281 C265 1.411 . S
C281 C279 1.403 . S
C281 C282 1.489 . S
C282 C281 1.489 . S
C282 C283 1.383 . S
C282 C287 1.382 . S
C283 H254 0.950 . S
C283 C282 1.383 . S
C283 C284 1.395 . S
C284 H255 0.950 . S
C284 C283 1.395 . S
C284 C285 1.288 . S
C285 C284 1.288 . S
C285 C286 1.392 . S
C286 H256 0.951 . S
C286 C285 1.392 . S
C286 C287 1.392 . S
C287 H257 0.949 . S
C287 C282 1.382 . S
C287 C286 1.392 . S
Zn288 O291 2.031 . S
Zn288 O293 2.049 . S
Zn288 O298 2.067 . S
Zn289 O290 1.962 . S
Zn289 O292 1.986 . S
Zn289 O294 1.996 . S
Zn289 O297 1.943 . S
O290 Zn289 1.962 . S
O290 C295 1.254 . S
O291 Zn288 2.031 . S
O291 C295 1.269 . S
O292 Zn289 1.986 . S
O292 C299 1.262 . S
O293 Zn288 2.049 . S
O293 C301 1.260 . S
O294 Zn289 1.996 . S
O294 C301 1.257 . S
C295 O290 1.254 . S
C295 O291 1.269 . S
C296 O297 1.249 . S
C296 O298 1.270 . S
O297 Zn289 1.943 . S
O297 C296 1.249 . S
O298 Zn288 2.067 . S
O298 C296 1.270 . S
C299 O292 1.262 . S
C299 O300 1.232 . S
O300 C299 1.232 . S
C301 O293 1.260 . S
C301 O294 1.257 . S
Zn302 O305 2.031 . S
Zn302 O307 2.049 . S
Zn302 O312 2.067 . S
Zn303 O304 1.962 . S
Zn303 O306 1.986 . S
Zn303 O308 1.996 . S
Zn303 O311 1.943 . S
O304 Zn303 1.962 . S
O304 C309 1.254 . S
O305 Zn302 2.031 . S
O305 C309 1.269 . S
O306 Zn303 1.986 . S
O306 C313 1.262 . S
O307 Zn302 2.049 . S
O307 C315 1.260 . S
O308 Zn303 1.996 . S
O308 C315 1.257 . S
C309 O304 1.254 . S
C309 O305 1.269 . S
C310 O311 1.249 . S
C310 O312 1.270 . S
O311 Zn303 1.943 . S
O311 C310 1.249 . S
O312 Zn302 2.067 . S
O312 C310 1.270 . S
C313 O306 1.262 . S
C313 O314 1.232 . S
O314 C313 1.232 . S
C315 O307 1.260 . S
C315 O308 1.257 . S
Zn316 O319 2.031 . S
Zn316 O321 2.049 . S
Zn316 O326 2.067 . S
Zn317 O318 1.962 . S
Zn317 O320 1.986 . S
Zn317 O322 1.996 . S
Zn317 O325 1.943 . S
O318 Zn317 1.962 . S
O318 C323 1.254 . S
O319 Zn316 2.031 . S
O319 C323 1.269 . S
O320 Zn317 1.986 . S
O320 C327 1.262 . S
O321 Zn316 2.049 . S
O321 C329 1.260 . S
O322 Zn317 1.996 . S
O322 C329 1.257 . S
C323 O318 1.254 . S
C323 O319 1.269 . S
C324 O325 1.249 . S
C324 O326 1.270 . S
O325 Zn317 1.943 . S
O325 C324 1.249 . S
O326 Zn316 2.067 . S
O326 C324 1.270 . S
C327 O320 1.262 . S
C327 O328 1.232 . S
O328 C327 1.232 . S
C329 O321 1.260 . S
C329 O322 1.257 . S
Zn330 O333 2.031 . S
Zn330 O335 2.049 . S
Zn330 O340 2.067 . S
Zn331 O332 1.962 . S
Zn331 O334 1.986 . S
Zn331 O336 1.996 . S
Zn331 O339 1.943 . S
O332 Zn331 1.962 . S
O332 C337 1.254 . S
O333 Zn330 2.031 . S
O333 C337 1.269 . S
O334 Zn331 1.986 . S
O334 C341 1.262 . S
O335 Zn330 2.049 . S
O335 C343 1.260 . S
O336 Zn331 1.996 . S
O336 C343 1.257 . S
C337 O332 1.254 . S
C337 O333 1.269 . S
C338 O339 1.249 . S
C338 O340 1.270 . S
O339 Zn331 1.943 . S
O339 C338 1.249 . S
O340 Zn330 2.067 . S
O340 C338 1.270 . S
C341 O334 1.262 . S
C341 O342 1.232 . S
O342 C341 1.232 . S
C343 O335 1.260 . S
C343 O336 1.257 . S
Zn344 O347 2.031 . S
Zn344 O349 2.049 . S
Zn344 O354 2.067 . S
Zn345 O346 1.962 . S
Zn345 O348 1.986 . S
Zn345 O350 1.996 . S
Zn345 O353 1.943 . S
O346 Zn345 1.962 . S
O346 C351 1.254 . S
O347 Zn344 2.031 . S
O347 C351 1.269 . S
O348 Zn345 1.986 . S
O348 C355 1.262 . S
O349 Zn344 2.049 . S
O349 C357 1.260 . S
O350 Zn345 1.996 . S
O350 C357 1.257 . S
C351 O346 1.254 . S
C351 O347 1.269 . S
C352 O353 1.249 . S
C352 O354 1.270 . S
O353 Zn345 1.943 . S
O353 C352 1.249 . S
O354 Zn344 2.067 . S
O354 C352 1.270 . S
C355 O348 1.262 . S
C355 O356 1.232 . S
O356 C355 1.232 . S
C357 O349 1.260 . S
C357 O350 1.257 . S
Zn358 O361 2.031 . S
Zn358 O363 2.049 . S
Zn358 O368 2.067 . S
Zn359 O360 1.962 . S
Zn359 O362 1.986 . S
Zn359 O364 1.996 . S
Zn359 O367 1.943 . S
O360 Zn359 1.962 . S
O360 C365 1.254 . S
O361 Zn358 2.031 . S
O361 C365 1.269 . S
O362 Zn359 1.986 . S
O362 C369 1.262 . S
O363 Zn358 2.049 . S
O363 C371 1.260 . S
O364 Zn359 1.996 . S
O364 C371 1.257 . S
C365 O360 1.254 . S
C365 O361 1.269 . S
C366 O367 1.249 . S
C366 O368 1.270 . S
O367 Zn359 1.943 . S
O367 C366 1.249 . S
O368 Zn358 2.067 . S
O368 C366 1.270 . S
C369 O362 1.262 . S
C369 O370 1.232 . S
O370 C369 1.232 . S
C371 O363 1.260 . S
C371 O364 1.257 . S
H372 C384 0.930 . S
H373 C386 0.930 . S
H374 C387 0.930 . S
H375 C391 0.959 . S
H376 C391 0.959 . S
H377 C391 0.961 . S
H378 C392 0.960 . S
H379 C392 0.961 . S
H380 C392 0.959 . S
H381 C395 0.929 . S
H382 C396 0.931 . S
H383 C398 0.930 . S
C384 H372 0.930 . S
C384 C385 1.399 . S
C384 C389 1.399 . S
C385 C384 1.399 . S
C385 C386 1.376 . S
C386 H373 0.930 . S
C386 C385 1.376 . S
C386 C387 1.388 . S
C387 H374 0.930 . S
C387 C386 1.388 . S
C387 C388 1.390 . S
C388 C387 1.390 . S
C388 C389 1.394 . S
C388 C394 1.465 . S
C389 C384 1.399 . S
C389 C388 1.394 . S
C389 C390 1.516 . S
C390 C389 1.516 . S
C390 C391 1.502 . S
C390 C392 1.561 . S
C390 C393 1.526 . S
C391 H375 0.959 . S
C391 H376 0.959 . S
C391 H377 0.961 . S
C391 C390 1.502 . S
C392 H378 0.960 . S
C392 H379 0.961 . S
C392 H380 0.959 . S
C392 C390 1.561 . S
C393 C390 1.526 . S
C393 C394 1.396 . S
C393 C398 1.390 . S
C394 C388 1.465 . S
C394 C393 1.396 . S
C394 C395 1.399 . S
C395 H381 0.929 . S
C395 C394 1.399 . S
C395 C396 1.385 . S
C396 H382 0.931 . S
C396 C395 1.385 . S
C396 C397 1.389 . S
C397 C396 1.389 . S
C397 C398 1.387 . S
C398 H383 0.930 . S
C398 C393 1.390 . S
C398 C397 1.387 . S
H399 C411 0.930 . S
H400 C413 0.930 . S
H401 C414 0.930 . S
H402 C418 0.959 . S
H403 C418 0.959 . S
H404 C418 0.961 . S
H405 C419 0.960 . S
H406 C419 0.961 . S
H407 C419 0.959 . S
H408 C422 0.929 . S
H409 C423 0.931 . S
H410 C425 0.930 . S
C411 H399 0.930 . S
C411 C412 1.399 . S
C411 C416 1.399 . S
C412 C411 1.399 . S
C412 C413 1.376 . S
C413 H400 0.930 . S
C413 C412 1.376 . S
C413 C414 1.388 . S
C414 H401 0.930 . S
C414 C413 1.388 . S
C414 C415 1.390 . S
C415 C414 1.390 . S
C415 C416 1.394 . S
C415 C421 1.465 . S
C416 C411 1.399 . S
C416 C415 1.394 . S
C416 C417 1.516 . S
C417 C416 1.516 . S
C417 C418 1.502 . S
C417 C419 1.561 . S
C417 C420 1.526 . S
C418 H402 0.959 . S
C418 H403 0.959 . S
C418 H404 0.961 . S
C418 C417 1.502 . S
C419 H405 0.960 . S
C419 H406 0.961 . S
C419 H407 0.959 . S
C419 C417 1.561 . S
C420 C417 1.526 . S
C420 C421 1.396 . S
C420 C425 1.390 . S
C421 C415 1.465 . S
C421 C420 1.396 . S
C421 C422 1.399 . S
C422 H408 0.929 . S
C422 C421 1.399 . S
C422 C423 1.385 . S
C423 H409 0.931 . S
C423 C422 1.385 . S
C423 C424 1.389 . S
C424 C423 1.389 . S
C424 C425 1.387 . S
C425 H410 0.930 . S
C425 C420 1.390 . S
C425 C424 1.387 . S
H426 C438 0.930 . S
H427 C440 0.930 . S
H428 C441 0.930 . S
H429 C445 0.959 . S
H430 C445 0.959 . S
H431 C445 0.961 . S
H432 C446 0.960 . S
H433 C446 0.961 . S
H434 C446 0.959 . S
H435 C449 0.929 . S
H436 C450 0.931 . S
H437 C452 0.930 . S
C438 H426 0.930 . S
C438 C439 1.399 . S
C438 C443 1.399 . S
C439 C438 1.399 . S
C439 C440 1.376 . S
C440 H427 0.930 . S
C440 C439 1.376 . S
C440 C441 1.388 . S
C441 H428 0.930 . S
C441 C440 1.388 . S
C441 C442 1.390 . S
C442 C441 1.390 . S
C442 C443 1.394 . S
C442 C448 1.465 . S
C443 C438 1.399 . S
C443 C442 1.394 . S
C443 C444 1.516 . S
C444 C443 1.516 . S
C444 C445 1.502 . S
C444 C446 1.561 . S
C444 C447 1.526 . S
C445 H429 0.959 . S
C445 H430 0.959 . S
C445 H431 0.961 . S
C445 C444 1.502 . S
C446 H432 0.960 . S
C446 H433 0.961 . S
C446 H434 0.959 . S
C446 C444 1.561 . S
C447 C444 1.526 . S
C447 C448 1.396 . S
C447 C452 1.390 . S
C448 C442 1.465 . S
C448 C447 1.396 . S
C448 C449 1.399 . S
C449 H435 0.929 . S
C449 C448 1.399 . S
C449 C450 1.385 . S
C450 H436 0.931 . S
C450 C449 1.385 . S
C450 C451 1.389 . S
C451 C450 1.389 . S
C451 C452 1.387 . S
C452 H437 0.930 . S
C452 C447 1.390 . S
C452 C451 1.387 . S
H453 C465 0.930 . S
H454 C467 0.930 . S
H455 C468 0.930 . S
H456 C472 0.959 . S
H457 C472 0.959 . S
H458 C472 0.961 . S
H459 C473 0.960 . S
H460 C473 0.961 . S
H461 C473 0.959 . S
H462 C476 0.929 . S
H463 C477 0.931 . S
H464 C479 0.930 . S
C465 H453 0.930 . S
C465 C466 1.399 . S
C465 C470 1.399 . S
C466 C465 1.399 . S
C466 C467 1.376 . S
C467 H454 0.930 . S
C467 C466 1.376 . S
C467 C468 1.388 . S
C468 H455 0.930 . S
C468 C467 1.388 . S
C468 C469 1.390 . S
C469 C468 1.390 . S
C469 C470 1.394 . S
C469 C475 1.465 . S
C470 C465 1.399 . S
C470 C469 1.394 . S
C470 C471 1.516 . S
C471 C470 1.516 . S
C471 C472 1.502 . S
C471 C473 1.561 . S
C471 C474 1.526 . S
C472 H456 0.959 . S
C472 H457 0.959 . S
C472 H458 0.961 . S
C472 C471 1.502 . S
C473 H459 0.960 . S
C473 H460 0.961 . S
C473 H461 0.959 . S
C473 C471 1.561 . S
C474 C471 1.526 . S
C474 C475 1.396 . S
C474 C479 1.390 . S
C475 C469 1.465 . S
C475 C474 1.396 . S
C475 C476 1.399 . S
C476 H462 0.929 . S
C476 C475 1.399 . S
C476 C477 1.385 . S
C477 H463 0.931 . S
C477 C476 1.385 . S
C477 C478 1.389 . S
C478 C477 1.389 . S
C478 C479 1.387 . S
C479 H464 0.930 . S
C479 C474 1.390 . S
C479 C478 1.387 . S
H480 C492 0.930 . S
H481 C494 0.930 . S
H482 C495 0.930 . S
H483 C499 0.959 . S
H484 C499 0.959 . S
H485 C499 0.980 . S
H486 C500 0.960 . S
H487 C500 0.961 . S
H488 C500 0.959 . S
H489 C503 0.929 . S
H490 C504 0.931 . S
H491 C506 0.930 . S
C492 H480 0.930 . S
C492 C493 1.399 . S
C492 C497 1.399 . S
C493 C492 1.399 . S
C493 C494 1.376 . S
C494 H481 0.930 . S
C494 C493 1.376 . S
C494 C495 1.388 . S
C495 H482 0.930 . S
C495 C494 1.388 . S
C495 C496 1.390 . S
C496 C495 1.390 . S
C496 C497 1.394 . S
C496 C502 1.465 . S
C497 C492 1.399 . S
C497 C496 1.394 . S
C497 C498 1.516 . S
C498 C497 1.516 . S
C498 C499 1.502 . S
C498 C500 1.561 . S
C498 C501 1.526 . S
C499 H483 0.959 . S
C499 H484 0.959 . S
C499 H485 0.980 . S
C499 C498 1.502 . S
C500 H486 0.960 . S
C500 H487 0.961 . S
C500 H488 0.959 . S
C500 C498 1.561 . S
C501 C498 1.526 . S
C501 C502 1.396 . S
C501 C506 1.390 . S
C502 C496 1.465 . S
C502 C501 1.396 . S
C502 C503 1.399 . S
C503 H489 0.929 . S
C503 C502 1.399 . S
C503 C504 1.385 . S
C504 H490 0.931 . S
C504 C503 1.385 . S
C504 C505 1.389 . S
C505 C504 1.389 . S
C505 C506 1.387 . S
C506 H491 0.930 . S
C506 C501 1.390 . S
C506 C505 1.387 . S
H507 C519 0.930 . S
H508 C521 0.930 . S
H509 C522 0.930 . S
H510 C526 0.959 . S
H511 C526 0.959 . S
H512 C526 0.961 . S
H513 C527 0.960 . S
H514 C527 0.961 . S
H515 C527 0.959 . S
H516 C530 0.929 . S
H517 C531 0.931 . S
H518 C533 0.930 . S
C519 H507 0.930 . S
C519 C520 1.399 . S
C519 C524 1.399 . S
C520 C519 1.399 . S
C520 C521 1.376 . S
C521 H508 0.930 . S
C521 C520 1.376 . S
C521 C522 1.388 . S
C522 H509 0.930 . S
C522 C521 1.388 . S
C522 C523 1.390 . S
C523 C522 1.390 . S
C523 C524 1.394 . S
C523 C529 1.465 . S
C524 C519 1.399 . S
C524 C523 1.394 . S
C524 C525 1.516 . S
C525 C524 1.516 . S
C525 C526 1.502 . S
C525 C527 1.561 . S
C525 C528 1.526 . S
C526 H510 0.959 . S
C526 H511 0.959 . S
C526 H512 0.961 . S
C526 C525 1.502 . S
C527 H513 0.960 . S
C527 H514 0.961 . S
C527 H515 0.959 . S
C527 C525 1.561 . S
C528 C525 1.526 . S
C528 C529 1.396 . S
C528 C533 1.390 . S
C529 C523 1.465 . S
C529 C528 1.396 . S
C529 C530 1.399 . S
C530 H516 0.929 . S
C530 C529 1.399 . S
C530 C531 1.385 . S
C531 H517 0.931 . S
C531 C530 1.385 . S
C531 C532 1.389 . S
C532 C531 1.389 . S
C532 C533 1.387 . S
C533 H518 0.930 . S
C533 C528 1.390 . S
C533 C532 1.387 . S
H534 C546 0.930 . S
H535 C548 0.930 . S
H536 C549 0.930 . S
H537 C553 0.959 . S
H538 C553 0.959 . S
H539 C553 0.961 . S
H540 C554 0.960 . S
H541 C554 0.961 . S
H542 C554 0.959 . S
H543 C557 0.929 . S
H544 C558 0.931 . S
H545 C560 0.930 . S
C546 H534 0.930 . S
C546 C547 1.399 . S
C546 C551 1.399 . S
C547 C546 1.399 . S
C547 C548 1.376 . S
C548 H535 0.930 . S
C548 C547 1.376 . S
C548 C549 1.388 . S
C549 H536 0.930 . S
C549 C548 1.388 . S
C549 C550 1.390 . S
C550 C549 1.390 . S
C550 C551 1.394 . S
C550 C556 1.465 . S
C551 C546 1.399 . S
C551 C550 1.394 . S
C551 C552 1.516 . S
C552 C551 1.516 . S
C552 C553 1.502 . S
C552 C554 1.561 . S
C552 C555 1.526 . S
C553 H537 0.959 . S
C553 H538 0.959 . S
C553 H539 0.961 . S
C553 C552 1.502 . S
C554 H540 0.960 . S
C554 H541 0.961 . S
C554 H542 0.959 . S
C554 C552 1.561 . S
C555 C552 1.526 . S
C555 C556 1.396 . S
C555 C560 1.390 . S
C556 C550 1.465 . S
C556 C555 1.396 . S
C556 C557 1.399 . S
C557 H543 0.929 . S
C557 C556 1.399 . S
C557 C558 1.385 . S
C558 H544 0.931 . S
C558 C557 1.385 . S
C558 C559 1.389 . S
C559 C558 1.389 . S
C559 C560 1.387 . S
C560 H545 0.930 . S
C560 C555 1.390 . S
C560 C559 1.387 . S
H561 C573 0.930 . S
H562 C575 0.930 . S
H563 C576 0.930 . S
H564 C580 0.959 . S
H565 C580 0.959 . S
H566 C580 0.961 . S
H567 C581 0.960 . S
H568 C581 0.961 . S
H569 C581 0.959 . S
H570 C584 0.929 . S
H571 C585 0.931 . S
H572 C587 0.930 . S
C573 H561 0.930 . S
C573 C574 1.399 . S
C573 C578 1.399 . S
C574 C573 1.399 . S
C574 C575 1.376 . S
C575 H562 0.930 . S
C575 C574 1.376 . S
C575 C576 1.388 . S
C576 H563 0.930 . S
C576 C575 1.388 . S
C576 C577 1.390 . S
C577 C576 1.390 . S
C577 C578 1.394 . S
C577 C583 1.465 . S
C578 C573 1.399 . S
C578 C577 1.394 . S
C578 C579 1.516 . S
C579 C578 1.516 . S
C579 C580 1.502 . S
C579 C581 1.561 . S
C579 C582 1.526 . S
C580 H564 0.959 . S
C580 H565 0.959 . S
C580 H566 0.961 . S
C580 C579 1.502 . S
C581 H567 0.960 . S
C581 H568 0.961 . S
C581 H569 0.959 . S
C581 C579 1.561 . S
C582 C579 1.526 . S
C582 C583 1.396 . S
C582 C587 1.390 . S
C583 C577 1.465 . S
C583 C582 1.396 . S
C583 C584 1.399 . S
C584 H570 0.929 . S
C584 C583 1.399 . S
C584 C585 1.385 . S
C585 H571 0.931 . S
C585 C584 1.385 . S
C585 C586 1.389 . S
C586 C585 1.389 . S
C586 C587 1.387 . S
C587 H572 0.930 . S
C587 C582 1.390 . S
C587 C586 1.387 . S
H588 C600 0.930 . S
H589 C602 0.930 . S
H590 C603 0.930 . S
H591 C607 0.959 . S
H592 C607 0.959 . S
H593 C607 0.961 . S
H594 C608 0.960 . S
H595 C608 0.961 . S
H596 C608 0.959 . S
H597 C611 0.929 . S
H598 C612 0.931 . S
H599 C614 0.930 . S
C600 H588 0.930 . S
C600 C601 1.399 . S
C600 C605 1.399 . S
C601 C600 1.399 . S
C601 C602 1.376 . S
C602 H589 0.930 . S
C602 C601 1.376 . S
C602 C603 1.388 . S
C603 H590 0.930 . S
C603 C602 1.388 . S
C603 C604 1.390 . S
C604 C603 1.390 . S
C604 C605 1.394 . S
C604 C610 1.465 . S
C605 C600 1.399 . S
C605 C604 1.394 . S
C605 C606 1.516 . S
C606 C605 1.516 . S
C606 C607 1.502 . S
C606 C608 1.561 . S
C606 C609 1.526 . S
C607 H591 0.959 . S
C607 H592 0.959 . S
C607 H593 0.961 . S
C607 C606 1.502 . S
C608 H594 0.960 . S
C608 H595 0.961 . S
C608 H596 0.959 . S
C608 C606 1.561 . S
C609 C606 1.526 . S
C609 C610 1.396 . S
C609 C614 1.390 . S
C610 C604 1.465 . S
C610 C609 1.396 . S
C610 C611 1.399 . S
C611 H597 0.929 . S
C611 C610 1.399 . S
C611 C612 1.385 . S
C612 H598 0.931 . S
C612 C611 1.385 . S
C612 C613 1.389 . S
C613 C612 1.389 . S
C613 C614 1.387 . S
C614 H599 0.930 . S
C614 C609 1.390 . S
C614 C613 1.387 . S
H615 C627 0.930 . S
H616 C629 0.931 1_556 S
H617 C630 0.930 . S
H618 C634 0.959 . S
H619 C634 0.959 . S
H620 C634 0.961 . S
H621 C635 0.960 . S
H622 C635 0.961 . S
H623 C635 0.959 . S
H624 C638 0.929 . S
H625 C639 0.931 . S
H626 C641 0.930 . S
C627 H615 0.930 . S
C627 C628 1.399 . S
C627 C632 1.399 . S
C628 C627 1.399 . S
C628 C629 1.376 . S
C629 H616 0.931 1_554 S
C629 C628 1.376 . S
C629 C630 1.388 . S
C630 H617 0.930 . S
C630 C629 1.388 . S
C630 C631 1.390 . S
C631 C630 1.390 . S
C631 C632 1.394 . S
C631 C637 1.465 . S
C632 C627 1.399 . S
C632 C631 1.394 . S
C632 C633 1.516 . S
C633 C632 1.516 . S
C633 C634 1.502 . S
C633 C635 1.561 . S
C633 C636 1.526 . S
C634 H618 0.959 . S
C634 H619 0.959 . S
C634 H620 0.961 . S
C634 C633 1.502 . S
C635 H621 0.960 . S
C635 H622 0.961 . S
C635 H623 0.959 . S
C635 C633 1.561 . S
C636 C633 1.526 . S
C636 C637 1.396 . S
C636 C641 1.390 . S
C637 C631 1.465 . S
C637 C636 1.396 . S
C637 C638 1.399 . S
C638 H624 0.929 . S
C638 C637 1.399 . S
C638 C639 1.385 . S
C639 H625 0.931 . S
C639 C638 1.385 . S
C639 C640 1.389 . S
C640 C639 1.389 . S
C640 C641 1.387 . S
C641 H626 0.930 . S
C641 C636 1.390 . S
C641 C640 1.387 . S
H642 C654 0.930 . S
H643 C656 0.930 . S
H644 C657 0.930 . S
H645 C661 0.959 . S
H646 C661 0.959 . S
H647 C661 0.961 . S
H648 C662 0.960 . S
H649 C662 0.961 . S
H650 C662 0.959 . S
H651 C665 0.929 . S
H652 C666 0.931 . S
H653 C668 0.930 . S
C654 H642 0.930 . S
C654 C655 1.399 . S
C654 C659 1.399 . S
C655 C654 1.399 . S
C655 C656 1.376 . S
C656 H643 0.930 . S
C656 C655 1.376 . S
C656 C657 1.388 . S
C657 H644 0.930 . S
C657 C656 1.388 . S
C657 C658 1.390 . S
C658 C657 1.390 . S
C658 C659 1.394 . S
C658 C664 1.465 . S
C659 C654 1.399 . S
C659 C658 1.394 . S
C659 C660 1.516 . S
C660 C659 1.516 . S
C660 C661 1.502 . S
C660 C662 1.561 . S
C660 C663 1.526 . S
C661 H645 0.959 . S
C661 H646 0.959 . S
C661 H647 0.961 . S
C661 C660 1.502 . S
C662 H648 0.960 . S
C662 H649 0.961 . S
C662 H650 0.959 . S
C662 C660 1.561 . S
C663 C660 1.526 . S
C663 C664 1.396 . S
C663 C668 1.390 . S
C664 C658 1.465 . S
C664 C663 1.396 . S
C664 C665 1.399 . S
C665 H651 0.929 . S
C665 C664 1.399 . S
C665 C666 1.385 . S
C666 H652 0.931 . S
C666 C665 1.385 . S
C666 C667 1.389 . S
C667 C666 1.389 . S
C667 C668 1.387 . S
C668 H653 0.930 . S
C668 C663 1.390 . S
C668 C667 1.387 . S
H669 C681 0.930 . S
H670 C683 0.930 . S
H671 C684 0.930 . S
H672 C688 0.959 . S
H673 C688 0.959 . S
H674 C688 0.961 . S
H675 C689 0.960 . S
H676 C689 0.961 . S
H677 C689 0.959 . S
H678 C692 0.929 . S
H679 C693 0.931 . S
H680 C695 0.930 . S
C681 H669 0.930 . S
C681 C682 1.399 . S
C681 C686 1.399 . S
C682 C681 1.399 . S
C682 C683 1.376 . S
C683 H670 0.930 . S
C683 C682 1.376 . S
C683 C684 1.388 . S
C684 H671 0.930 . S
C684 C683 1.388 . S
C684 C685 1.390 . S
C685 C684 1.390 . S
C685 C686 1.394 . S
C685 C691 1.465 . S
C686 C681 1.399 . S
C686 C685 1.394 . S
C686 C687 1.516 . S
C687 C686 1.516 . S
C687 C688 1.502 . S
C687 C689 1.561 . S
C687 C690 1.526 . S
C688 H672 0.959 . S
C688 H673 0.959 . S
C688 H674 0.961 . S
C688 C687 1.502 . S
C689 H675 0.960 . S
C689 H676 0.961 . S
C689 H677 0.959 . S
C689 C687 1.561 . S
C690 C687 1.526 . S
C690 C691 1.396 . S
C690 C695 1.390 . S
C691 C685 1.465 . S
C691 C690 1.396 . S
C691 C692 1.399 . S
C692 H678 0.929 . S
C692 C691 1.399 . S
C692 C693 1.385 . S
C693 H679 0.931 . S
C693 C692 1.385 . S
C693 C694 1.389 . S
C694 C693 1.389 . S
C694 C695 1.387 . S
C695 H680 0.930 . S
C695 C690 1.390 . S
C695 C694 1.387 . S
H696 C708 0.930 . S
H697 C710 0.930 . S
H698 C711 0.930 . S
H699 C715 0.959 . S
H700 C715 0.959 . S
H701 C715 0.961 . S
H702 C716 0.960 . S
H703 C716 0.961 . S
H704 C716 0.959 . S
H705 C719 0.929 . S
H706 C720 0.931 . S
H707 C722 0.930 . S
C708 H696 0.930 . S
C708 C709 1.399 . S
C708 C713 1.399 . S
C709 C708 1.399 . S
C709 C710 1.376 . S
C710 H697 0.930 . S
C710 C709 1.376 . S
C710 C711 1.388 . S
C711 H698 0.930 . S
C711 C710 1.388 . S
C711 C712 1.390 . S
C712 C711 1.390 . S
C712 C713 1.394 . S
C712 C718 1.465 . S
C713 C708 1.399 . S
C713 C712 1.394 . S
C713 C714 1.516 . S
C714 C713 1.516 . S
C714 C715 1.502 . S
C714 C716 1.561 . S
C714 C717 1.526 . S
C715 H699 0.959 . S
C715 H700 0.959 . S
C715 H701 0.961 . S
C715 C714 1.502 . S
C716 H702 0.960 . S
C716 H703 0.961 . S
C716 H704 0.959 . S
C716 C714 1.561 . S
C717 C714 1.526 . S
C717 C718 1.396 . S
C717 C722 1.390 . S
C718 C712 1.465 . S
C718 C717 1.396 . S
C718 C719 1.399 . S
C719 H705 0.929 . S
C719 C718 1.399 . S
C719 C720 1.385 . S
C720 H706 0.931 . S
C720 C719 1.385 . S
C720 C721 1.389 . S
C721 C720 1.389 . S
C721 C722 1.387 . S
C722 H707 0.930 . S
C722 C717 1.390 . S
C722 C721 1.387 . S
H723 C735 0.930 . S
H724 C737 0.930 . S
H725 C738 0.930 . S
H726 C742 0.959 . S
H727 C742 0.959 . S
H728 C742 0.961 . S
H729 C743 0.960 . S
H730 C743 0.961 . S
H731 C743 0.959 . S
H732 C746 0.929 . S
H733 C747 0.931 . S
H734 C749 0.930 . S
C735 H723 0.930 . S
C735 C736 1.399 . S
C735 C740 1.399 . S
C736 C735 1.399 . S
C736 C737 1.376 . S
C737 H724 0.930 . S
C737 C736 1.376 . S
C737 C738 1.388 . S
C738 H725 0.930 . S
C738 C737 1.388 . S
C738 C739 1.390 . S
C739 C738 1.390 . S
C739 C740 1.394 . S
C739 C745 1.465 . S
C740 C735 1.399 . S
C740 C739 1.394 . S
C740 C741 1.516 . S
C741 C740 1.516 . S
C741 C742 1.502 . S
C741 C743 1.561 . S
C741 C744 1.526 . S
C742 H726 0.959 . S
C742 H727 0.959 . S
C742 H728 0.961 . S
C742 C741 1.502 . S
C743 H729 0.960 . S
C743 H730 0.961 . S
C743 H731 0.959 . S
C743 C741 1.561 . S
C744 C741 1.526 . S
C744 C745 1.396 . S
C744 C749 1.390 . S
C745 C739 1.465 . S
C745 C744 1.396 . S
C745 C746 1.399 . S
C746 H732 0.929 . S
C746 C745 1.399 . S
C746 C747 1.385 . S
C747 H733 0.931 . S
C747 C746 1.385 . S
C747 C748 1.389 . S
C748 C747 1.389 . S
C748 C749 1.387 . S
C749 H734 0.930 . S
C749 C744 1.390 . S
C749 C748 1.387 . S
H750 C762 0.930 . S
H751 C764 0.930 . S
H752 C765 0.930 . S
H753 C769 0.959 . S
H754 C769 0.959 . S
H755 C769 0.961 . S
H756 C770 0.960 . S
H757 C770 0.961 . S
H758 C770 0.959 . S
H759 C773 0.929 . S
H760 C774 0.931 . S
H761 C776 0.930 . S
C762 H750 0.930 . S
C762 C763 1.399 . S
C762 C767 1.399 . S
C763 C762 1.399 . S
C763 C764 1.376 . S
C764 H751 0.930 . S
C764 C763 1.376 . S
C764 C765 1.388 . S
C765 H752 0.930 . S
C765 C764 1.388 . S
C765 C766 1.390 . S
C766 C765 1.390 . S
C766 C767 1.394 . S
C766 C772 1.465 . S
C767 C762 1.399 . S
C767 C766 1.394 . S
C767 C768 1.516 . S
C768 C767 1.516 . S
C768 C769 1.502 . S
C768 C770 1.561 . S
C768 C771 1.526 . S
C769 H753 0.959 . S
C769 H754 0.959 . S
C769 H755 0.961 . S
C769 C768 1.502 . S
C770 H756 0.960 . S
C770 H757 0.961 . S
C770 H758 0.959 . S
C770 C768 1.561 . S
C771 C768 1.526 . S
C771 C772 1.396 . S
C771 C776 1.390 . S
C772 C766 1.465 . S
C772 C771 1.396 . S
C772 C773 1.399 . S
C773 H759 0.929 . S
C773 C772 1.399 . S
C773 C774 1.385 . S
C774 H760 0.931 . S
C774 C773 1.385 . S
C774 C775 1.389 . S
C775 C774 1.389 . S
C775 C776 1.387 . S
C776 H761 0.930 . S
C776 C771 1.390 . S
C776 C775 1.387 . S
H777 C789 0.930 . S
H778 C791 0.930 . S
H779 C792 0.930 . S
H780 C796 0.959 . S
H781 C796 0.959 1_554 S
H782 C796 0.961 . S
H783 C797 0.960 1_556 S
H784 C797 0.961 . S
H785 C797 0.959 . S
H786 C800 0.929 . S
H787 C801 0.932 . S
H788 C803 0.930 . S
C789 H777 0.930 . S
C789 C790 1.399 . S
C789 C794 1.399 . S
C790 C789 1.399 . S
C790 C791 1.376 . S
C791 H778 0.930 . S
C791 C790 1.376 . S
C791 C792 1.388 . S
C792 H779 0.930 . S
C792 C791 1.388 . S
C792 C793 1.390 . S
C793 C792 1.390 . S
C793 C794 1.394 . S
C793 C799 1.465 . S
C794 C789 1.399 . S
C794 C793 1.394 . S
C794 C795 1.516 . S
C795 C794 1.516 . S
C795 C796 1.502 . S
C795 C797 1.561 1_556 S
C795 C798 1.526 . S
C796 H780 0.959 . S
C796 H781 0.959 1_556 S
C796 H782 0.961 . S
C796 C795 1.502 . S
C797 H783 0.960 1_554 S
C797 H784 0.961 . S
C797 H785 0.959 . S
C797 C795 1.561 1_554 S
C798 C795 1.526 . S
C798 C799 1.396 . S
C798 C803 1.390 1_556 S
C799 C793 1.465 . S
C799 C798 1.396 . S
C799 C800 1.399 . S
C800 H786 0.929 . S
C800 C799 1.399 . S
C800 C801 1.385 . S
C801 H787 0.932 . S
C801 C800 1.385 . S
C801 C802 1.389 1_556 S
C802 C801 1.389 1_554 S
C802 C803 1.387 . S
C803 H788 0.930 . S
C803 C798 1.390 1_554 S
C803 C802 1.387 . S
H804 C816 0.930 . S
H805 C818 0.930 . S
H806 C819 0.930 . S
H807 C823 0.959 . S
H808 C823 0.959 . S
H809 C823 0.961 . S
H810 C824 0.960 . S
H811 C824 0.961 . S
H812 C824 0.959 . S
H813 C827 0.929 . S
H814 C828 0.931 . S
H815 C830 0.930 . S
C816 H804 0.930 . S
C816 C817 1.399 . S
C816 C821 1.399 . S
C817 C816 1.399 . S
C817 C818 1.376 . S
C818 H805 0.930 . S
C818 C817 1.376 . S
C818 C819 1.388 . S
C819 H806 0.930 . S
C819 C818 1.388 . S
C819 C820 1.390 . S
C820 C819 1.390 . S
C820 C821 1.394 . S
C820 C826 1.465 . S
C821 C816 1.399 . S
C821 C820 1.394 . S
C821 C822 1.516 . S
C822 C821 1.516 . S
C822 C823 1.502 . S
C822 C824 1.561 . S
C822 C825 1.526 . S
C823 H807 0.959 . S
C823 H808 0.959 . S
C823 H809 0.961 . S
C823 C822 1.502 . S
C824 H810 0.960 . S
C824 H811 0.961 . S
C824 H812 0.959 . S
C824 C822 1.561 . S
C825 C822 1.526 . S
C825 C826 1.396 . S
C825 C830 1.390 . S
C826 C820 1.465 . S
C826 C825 1.396 . S
C826 C827 1.399 . S
C827 H813 0.929 . S
C827 C826 1.399 . S
C827 C828 1.385 . S
C828 H814 0.931 . S
C828 C827 1.385 . S
C828 C829 1.389 . S
C829 C828 1.389 . S
C829 C830 1.387 . S
C830 H815 0.930 . S
C830 C825 1.390 . S
C830 C829 1.387 . S
H831 C843 0.930 . S
H832 C845 0.930 . S
H833 C846 0.930 . S
H834 C850 0.959 . S
H835 C850 0.959 . S
H836 C850 0.961 . S
H837 C851 0.960 . S
H838 C851 0.961 . S
H839 C851 0.959 . S
H840 C854 0.929 . S
H841 C855 0.931 . S
H842 C857 0.930 . S
C843 H831 0.930 . S
C843 C844 1.399 . S
C843 C848 1.399 . S
C844 C843 1.399 . S
C844 C845 1.376 . S
C845 H832 0.930 . S
C845 C844 1.376 . S
C845 C846 1.388 . S
C846 H833 0.930 . S
C846 C845 1.388 . S
C846 C847 1.390 . S
C847 C846 1.390 . S
C847 C848 1.394 . S
C847 C853 1.465 . S
C848 C843 1.399 . S
C848 C847 1.394 . S
C848 C849 1.516 . S
C849 C848 1.516 . S
C849 C850 1.502 . S
C849 C851 1.561 . S
C849 C852 1.526 . S
C850 H834 0.959 . S
C850 H835 0.959 . S
C850 H836 0.961 . S
C850 C849 1.502 . S
C851 H837 0.960 . S
C851 H838 0.961 . S
C851 H839 0.959 . S
C851 C849 1.561 . S
C852 C849 1.526 . S
C852 C853 1.396 . S
C852 C857 1.390 . S
C853 C847 1.465 . S
C853 C852 1.396 . S
C853 C854 1.399 . S
C854 H840 0.929 . S
C854 C853 1.399 . S
C854 C855 1.385 . S
C855 H841 0.931 . S
C855 C854 1.385 . S
C855 C856 1.389 . S
C856 C855 1.389 . S
C856 C857 1.387 . S
C857 H842 0.930 . S
C857 C852 1.390 . S
C857 C856 1.387 . S
H858 C870 0.930 . S
H859 C872 0.930 . S
H860 C873 0.930 . S
H861 C877 0.959 . S
H862 C877 0.959 . S
H863 C877 0.961 . S
H864 C878 0.960 . S
H865 C878 0.961 . S
H866 C878 0.959 . S
H867 C881 0.929 . S
H868 C882 0.931 . S
H869 C884 0.930 . S
C870 H858 0.930 . S
C870 C871 1.399 . S
C870 C875 1.399 . S
C871 C870 1.399 . S
C871 C872 1.376 . S
C872 H859 0.930 . S
C872 C871 1.376 . S
C872 C873 1.388 . S
C873 H860 0.930 . S
C873 C872 1.388 . S
C873 C874 1.390 . S
C874 C873 1.390 . S
C874 C875 1.394 . S
C874 C880 1.465 . S
C875 C870 1.399 . S
C875 C874 1.394 . S
C875 C876 1.516 . S
C876 C875 1.516 . S
C876 C877 1.502 . S
C876 C878 1.561 . S
C876 C879 1.526 . S
C877 H861 0.959 . S
C877 H862 0.959 . S
C877 H863 0.961 . S
C877 C876 1.502 . S
C878 H864 0.960 . S
C878 H865 0.961 . S
C878 H866 0.959 . S
C878 C876 1.561 . S
C879 C876 1.526 . S
C879 C880 1.396 . S
C879 C884 1.390 . S
C880 C874 1.465 . S
C880 C879 1.396 . S
C880 C881 1.399 . S
C881 H867 0.929 . S
C881 C880 1.399 . S
C881 C882 1.385 . S
C882 H868 0.931 . S
C882 C881 1.385 . S
C882 C883 1.389 . S
C883 C882 1.389 . S
C883 C884 1.387 . S
C884 H869 0.930 . S
C884 C879 1.390 . S
C884 C883 1.387 . S
H885 C897 0.930 . S
H886 C899 0.930 . S
H887 C900 0.930 . S
H888 C904 0.959 . S
H889 C904 0.959 . S
H890 C904 0.961 . S
H891 C905 0.960 . S
H892 C905 0.961 . S
H893 C905 0.959 . S
H894 C908 0.929 . S
H895 C909 0.931 . S
H896 C911 0.930 . S
C897 H885 0.930 . S
C897 C898 1.399 . S
C897 C902 1.399 . S
C898 C897 1.399 . S
C898 C899 1.376 . S
C899 H886 0.930 . S
C899 C898 1.376 . S
C899 C900 1.388 . S
C900 H887 0.930 . S
C900 C899 1.388 . S
C900 C901 1.390 . S
C901 C900 1.390 . S
C901 C902 1.394 . S
C901 C907 1.465 . S
C902 C897 1.399 . S
C902 C901 1.394 . S
C902 C903 1.516 . S
C903 C902 1.516 . S
C903 C904 1.502 . S
C903 C905 1.561 . S
C903 C906 1.526 . S
C904 H888 0.959 . S
C904 H889 0.959 . S
C904 H890 0.961 . S
C904 C903 1.502 . S
C905 H891 0.960 . S
C905 H892 0.961 . S
C905 H893 0.959 . S
C905 C903 1.561 . S
C906 C903 1.526 . S
C906 C907 1.396 . S
C906 C911 1.390 . S
C907 C901 1.465 . S
C907 C906 1.396 . S
C907 C908 1.399 . S
C908 H894 0.929 . S
C908 C907 1.399 . S
C908 C909 1.385 . S
C909 H895 0.931 . S
C909 C908 1.385 . S
C909 C910 1.389 . S
C910 C909 1.389 . S
C910 C911 1.387 . S
C911 H896 0.930 . S
C911 C906 1.390 . S
C911 C910 1.387 . S
H912 C924 0.930 . S
H913 C926 0.930 . S
H914 C927 0.930 . S
H915 C931 0.959 . S
H916 C931 0.959 . S
H917 C931 0.961 . S
H918 C932 0.960 . S
H919 C932 0.961 . S
H920 C932 0.959 . S
H921 C935 0.929 . S
H922 C936 0.931 . S
H923 C938 0.930 . S
C924 H912 0.930 . S
C924 C925 1.399 . S
C924 C929 1.399 . S
C925 C924 1.399 . S
C925 C926 1.376 . S
C926 H913 0.930 . S
C926 C925 1.376 . S
C926 C927 1.388 . S
C927 H914 0.930 . S
C927 C926 1.388 . S
C927 C928 1.390 . S
C928 C927 1.390 . S
C928 C929 1.394 . S
C928 C934 1.465 . S
C929 C924 1.399 . S
C929 C928 1.394 . S
C929 C930 1.516 . S
C930 C929 1.516 . S
C930 C931 1.502 . S
C930 C932 1.561 . S
C930 C933 1.526 . S
C931 H915 0.959 . S
C931 H916 0.959 . S
C931 H917 0.961 . S
C931 C930 1.502 . S
C932 H918 0.960 . S
C932 H919 0.961 . S
C932 H920 0.959 . S
C932 C930 1.561 . S
C933 C930 1.526 . S
C933 C934 1.396 . S
C933 C938 1.390 . S
C934 C928 1.465 . S
C934 C933 1.396 . S
C934 C935 1.399 . S
C935 H921 0.929 . S
C935 C934 1.399 . S
C935 C936 1.385 . S
C936 H922 0.931 . S
C936 C935 1.385 . S
C936 C937 1.389 . S
C937 C936 1.389 . S
C937 C938 1.387 . S
C938 H923 0.930 . S
C938 C933 1.390 . S
C938 C937 1.387 . S
H939 C951 0.930 . S
H940 C953 0.930 . S
H941 C954 0.930 . S
H942 C958 0.959 . S
H943 C958 0.959 . S
H944 C958 0.961 . S
H945 C959 0.960 . S
H946 C959 0.961 . S
H947 C959 0.959 . S
H948 C962 0.929 . S
H949 C963 0.931 . S
H950 C965 0.930 . S
C951 H939 0.930 . S
C951 C952 1.399 . S
C951 C956 1.399 . S
C952 C951 1.399 . S
C952 C953 1.376 . S
C953 H940 0.930 . S
C953 C952 1.376 . S
C953 C954 1.388 . S
C954 H941 0.930 . S
C954 C953 1.388 . S
C954 C955 1.390 . S
C955 C954 1.390 . S
C955 C956 1.394 . S
C955 C961 1.465 . S
C956 C951 1.399 . S
C956 C955 1.394 . S
C956 C957 1.516 . S
C957 C956 1.516 . S
C957 C958 1.502 . S
C957 C959 1.561 . S
C957 C960 1.526 . S
C958 H942 0.959 . S
C958 H943 0.959 . S
C958 H944 0.961 . S
C958 C957 1.502 . S
C959 H945 0.960 . S
C959 H946 0.961 . S
C959 H947 0.959 . S
C959 C957 1.561 . S
C960 C957 1.526 . S
C960 C961 1.396 . S
C960 C965 1.390 . S
C961 C955 1.465 . S
C961 C960 1.396 . S
C961 C962 1.399 . S
C962 H948 0.929 . S
C962 C961 1.399 . S
C962 C963 1.385 . S
C963 H949 0.931 . S
C963 C962 1.385 . S
C963 C964 1.389 . S
C964 C963 1.389 . S
C964 C965 1.387 . S
C965 H950 0.930 . S
C965 C960 1.390 . S
C965 C964 1.387 . S
H966 C978 0.930 . S
H967 C980 0.930 . S
H968 C981 0.930 . S
H969 C985 0.959 . S
H970 C985 0.959 . S
H971 C985 0.961 . S
H972 C986 0.960 . S
H973 C986 0.961 . S
H974 C986 0.959 . S
H975 C989 0.929 . S
H976 C990 0.931 . S
H977 C992 0.930 . S
C978 H966 0.930 . S
C978 C979 1.399 . S
C978 C983 1.399 . S
C979 C978 1.399 . S
C979 C980 1.376 . S
C980 H967 0.930 . S
C980 C979 1.376 . S
C980 C981 1.388 . S
C981 H968 0.930 . S
C981 C980 1.388 . S
C981 C982 1.390 . S
C982 C981 1.390 . S
C982 C983 1.394 . S
C982 C988 1.465 . S
C983 C978 1.399 . S
C983 C982 1.394 . S
C983 C984 1.516 1_554 S
C984 C983 1.516 1_556 S
C984 C985 1.502 . S
C984 C986 1.561 . S
C984 C987 1.526 . S
C985 H969 0.959 . S
C985 H970 0.959 . S
C985 H971 0.961 . S
C985 C984 1.502 . S
C986 H972 0.960 . S
C986 H973 0.961 . S
C986 H974 0.959 . S
C986 C984 1.561 . S
C987 C984 1.526 . S
C987 C988 1.396 1_556 S
C987 C992 1.390 . S
C988 C982 1.465 . S
C988 C987 1.396 1_554 S
C988 C989 1.399 . S
C989 H975 0.929 . S
C989 C988 1.399 . S
C989 C990 1.385 1_554 S
C990 H976 0.931 . S
C990 C989 1.385 1_556 S
C990 C991 1.389 . S
C991 C990 1.389 . S
C991 C992 1.387 . S
C992 H977 0.930 . S
C992 C987 1.390 . S
C992 C991 1.387 . S
H993 C1005 0.930 . S
H994 C1007 0.930 . S
H995 C1008 0.930 . S
H996 C1012 0.959 . S
H997 C1012 0.959 . S
H998 C1012 0.961 . S
H999 C1013 0.960 . S
H1000 C1013 0.961 . S
H1001 C1013 0.959 . S
H1002 C1016 0.929 . S
H1003 C1017 0.931 . S
H1004 C1019 0.930 . S
C1005 H993 0.930 . S
C1005 C1006 1.399 . S
C1005 C1010 1.399 . S
C1006 C1005 1.399 . S
C1006 C1007 1.376 . S
C1007 H994 0.930 . S
C1007 C1006 1.376 . S
C1007 C1008 1.388 . S
C1008 H995 0.930 . S
C1008 C1007 1.388 . S
C1008 C1009 1.390 . S
C1009 C1008 1.390 . S
C1009 C1010 1.394 . S
C1009 C1015 1.465 . S
C1010 C1005 1.399 . S
C1010 C1009 1.394 . S
C1010 C1011 1.516 . S
C1011 C1010 1.516 . S
C1011 C1012 1.502 . S
C1011 C1013 1.561 . S
C1011 C1014 1.526 . S
C1012 H996 0.959 . S
C1012 H997 0.959 . S
C1012 H998 0.961 . S
C1012 C1011 1.502 . S
C1013 H999 0.960 . S
C1013 H1000 0.961 . S
C1013 H1001 0.959 . S
C1013 C1011 1.561 . S
C1014 C1011 1.526 . S
C1014 C1015 1.396 . S
C1014 C1019 1.390 . S
C1015 C1009 1.465 . S
C1015 C1014 1.396 . S
C1015 C1016 1.399 . S
C1016 H1002 0.929 . S
C1016 C1015 1.399 . S
C1016 C1017 1.385 . S
C1017 H1003 0.931 . S
C1017 C1016 1.385 . S
C1017 C1018 1.389 . S
C1018 C1017 1.389 . S
C1018 C1019 1.387 . S
C1019 H1004 0.930 . S
C1019 C1014 1.390 . S
C1019 C1018 1.387 . S
C397 C365 1.564 . S
C385 C45 1.557 . S
C412 C84 1.476 . S
C424 C299 1.432 . S
C439 C126 1.374 . S
C451 C313 1.414 . S
C466 C189 1.500 . S
C478 C327 1.439 . S
C505 C341 1.521 . S
C493 C228 1.537 . S
C520 C270 1.502 . S
C532 C351 1.532 . S
C547 C69 1.560 . S
C559 C309 1.578 . S
C574 C141 1.641 . S
C586 C323 1.659 . S
C601 C174 1.543 . S
C613 C337 1.591 . S
C640 C355 1.513 . S
C628 C213 1.462 . S
C667 C369 1.524 . S
C655 C285 1.523 . S
C694 C295 1.543 . S
C682 C30 1.494 . S
C709 C36 1.510 . S
C721 C310 1.398 . S
C736 C93 1.578 . S
C748 C324 1.550 . S
C775 C338 1.545 . S
C763 C117 1.564 . S
C790 C180 1.468 . S
C802 C357 1.393 . S
C829 C371 1.413 . S
C817 C237 1.438 . S
C856 C296 1.428 . S
C844 C261 1.463 . S
C883 C366 1.455 . S
C871 C78 1.444 . S
C898 C132 1.374 . S
C910 C301 1.274 . S
C937 C315 1.291 . S
C925 C165 1.360 . S
C952 C222 1.432 . S
C964 C329 1.383 . S
C979 C276 1.466 . S
C991 C343 1.422 . S
C1006 C21 1.513 . S
C1018 C352 1.405 . S
