# Generated by pormake.
# Topology hwx, (6,3)-cn, num edge types: 1
# Building blocks:
#     Node 0, Type 0, BuildingBlock: IZENUY_clean_sbu_0, # of connection points: 6
#     Node 1, Type 0, BuildingBlock: IZENUY_clean_sbu_0, # of connection points: 6
#     Node 2, Type 0, BuildingBlock: IZENUY_clean_sbu_0, # of connection points: 6
#     Node 3, Type 0, BuildingBlock: IZENUY_clean_sbu_0, # of connection points: 6
#     Node 4, Type 1, BuildingBlock: QEWDON_clean_linker_0, # of connection points: 3
#     Node 5, Type 1, BuildingBlock: QEWDON_clean_linker_0, # of connection points: 3
#     Node 6, Type 1, BuildingBlock: QEWDON_clean_linker_0, # of connection points: 3
#     Node 7, Type 1, BuildingBlock: QEWDON_clean_linker_0, # of connection points: 3
#     Node 8, Type 1, BuildingBlock: QEWDON_clean_linker_0, # of connection points: 3
#     Node 9, Type 1, BuildingBlock: QEWDON_clean_linker_0, # of connection points: 3
#     Node 10, Type 1, BuildingBlock: QEWDON_clean_linker_0, # of connection points: 3
#     Node 11, Type 1, BuildingBlock: QEWDON_clean_linker_0, # of connection points: 3
#     Edge 12, Type (0, 1), BuildingBlock: OJICUG_clean_linker_0, # of connection points: 2
#     Edge 13, Type (0, 1), BuildingBlock: OJICUG_clean_linker_0, # of connection points: 2
#     Edge 14, Type (0, 1), BuildingBlock: OJICUG_clean_linker_0, # of connection points: 2
#     Edge 15, Type (0, 1), BuildingBlock: OJICUG_clean_linker_0, # of connection points: 2
#     Edge 16, Type (0, 1), BuildingBlock: OJICUG_clean_linker_0, # of connection points: 2
#     Edge 17, Type (0, 1), BuildingBlock: OJICUG_clean_linker_0, # of connection points: 2
#     Edge 18, Type (0, 1), BuildingBlock: OJICUG_clean_linker_0, # of connection points: 2
#     Edge 19, Type (0, 1), BuildingBlock: OJICUG_clean_linker_0, # of connection points: 2
#     Edge 20, Type (0, 1), BuildingBlock: OJICUG_clean_linker_0, # of connection points: 2
#     Edge 21, Type (0, 1), BuildingBlock: OJICUG_clean_linker_0, # of connection points: 2
#     Edge 22, Type (0, 1), BuildingBlock: OJICUG_clean_linker_0, # of connection points: 2
#     Edge 23, Type (0, 1), BuildingBlock: OJICUG_clean_linker_0, # of connection points: 2
#     Edge 24, Type (0, 1), BuildingBlock: OJICUG_clean_linker_0, # of connection points: 2
#     Edge 25, Type (0, 1), BuildingBlock: OJICUG_clean_linker_0, # of connection points: 2
#     Edge 26, Type (0, 1), BuildingBlock: OJICUG_clean_linker_0, # of connection points: 2
#     Edge 27, Type (0, 1), BuildingBlock: OJICUG_clean_linker_0, # of connection points: 2
#     Edge 28, Type (0, 1), BuildingBlock: OJICUG_clean_linker_0, # of connection points: 2
#     Edge 29, Type (0, 1), BuildingBlock: OJICUG_clean_linker_0, # of connection points: 2
#     Edge 30, Type (0, 1), BuildingBlock: OJICUG_clean_linker_0, # of connection points: 2
#     Edge 31, Type (0, 1), BuildingBlock: OJICUG_clean_linker_0, # of connection points: 2
#     Edge 32, Type (0, 1), BuildingBlock: OJICUG_clean_linker_0, # of connection points: 2
#     Edge 33, Type (0, 1), BuildingBlock: OJICUG_clean_linker_0, # of connection points: 2
#     Edge 34, Type (0, 1), BuildingBlock: OJICUG_clean_linker_0, # of connection points: 2
#     Edge 35, Type (0, 1), BuildingBlock: OJICUG_clean_linker_0, # of connection points: 2
# Relax obj value: 0.005
# Max RMSD: 0.109
# Mean RMSD: 0.087
data_MOF--net-hwx--node1-IZENUY_clean_sbu_0--node2-QEWDON_clean_linker_0--edge1-OJICUG_clean_linker_0
_symmetry_space_group_name_H-M    P1
_symmetry_Int_Tables_number       1
_symmetry_cell_setting            triclinic
loop_
_symmetry_equiv_pos_as_xyz
'x, y, z'
_cell_length_a     39.885576
_cell_length_b     39.864703
_cell_length_c     15.150226
_cell_angle_alpha  92.401859
_cell_angle_beta   92.800993
_cell_angle_gamma 90.034092
loop_
_atom_site_label
_atom_site_type_symbol
_atom_site_fract_x
_atom_site_fract_y
_atom_site_fract_z
_atom_type_partial_charge
Fe0 Fe 0.26534 0.27218 0.08591 0.0
Fe1 Fe 0.25753 0.27182 0.88326 0.0
O2 O 0.24542 0.25658 0.98503 0.0
Fe3 Fe 0.21335 0.22549 0.98419 0.0
O4 O 0.18717 0.25254 0.05006 0.0
O5 O 0.22671 0.27075 0.14781 0.0
O6 O 0.25466 0.31561 0.06409 0.0
C7 C 0.26162 0.33048 -0.0045 0.0
C8 C 0.25865 0.20546 0.1222 0.0
O9 O 0.26912 0.31389 0.92653 0.0
C10 C 0.24895 0.20263 0.84492 0.0
O11 O 0.30739 0.27583 0.04013 0.0
O12 O 0.29969 0.25675 0.90194 0.0
O13 O 0.23006 0.20472 0.08245 0.0
O14 O 0.27784 0.23039 0.11749 0.0
C15 C 0.18989 0.26935 0.85214 0.0
O16 O 0.24888 0.23247 0.81979 0.0
O17 O 0.23766 0.19593 0.91844 0.0
C18 C 0.31885 0.26335 0.96907 0.0
O19 O 0.21572 0.28773 0.85869 0.0
O20 O 0.19021 0.24075 0.88581 0.0
C21 C 0.19595 0.26691 0.12338 0.0
Fe22 Fe 0.27263 0.77974 0.61892 0.0
Fe23 Fe 0.31393 0.7267 0.52023 0.0
O24 O 0.28259 0.75812 0.51898 0.0
Fe25 Fe 0.26139 0.76771 0.41759 0.0
O26 O 0.27541 0.81086 0.42867 0.0
O27 O 0.26351 0.82015 0.56771 0.0
O28 O 0.31558 0.79464 0.63988 0.0
C29 C 0.34065 0.77544 0.64655 0.0
C30 C 0.20965 0.76971 0.53928 0.0
O31 O 0.33894 0.74572 0.61396 0.0
C32 C 0.26525 0.6997 0.39383 0.0
O33 O 0.28002 0.74312 0.6875 0.0
O34 O 0.29017 0.7015 0.59238 0.0
O35 O 0.22092 0.77767 0.4662 0.0
O36 O 0.22926 0.76612 0.60602 0.0
C37 C 0.32923 0.75905 0.37244 0.0
O38 O 0.295 0.7015 0.4268 0.0
O39 O 0.24614 0.72485 0.3988 0.0
C40 C 0.28093 0.71191 0.66716 0.0
O41 O 0.33943 0.75021 0.44814 0.0
O42 O 0.29809 0.75956 0.35077 0.0
C43 C 0.27186 0.83085 0.4942 0.0
Fe44 Fe 0.76651 0.78726 0.89311 0.0
Fe45 Fe 0.7701 0.78014 0.09375 0.0
O46 O 0.78376 0.79977 -0.00074 0.0
Fe47 Fe 0.81483 0.83159 0.0108 0.0
O48 O 0.79786 0.85516 0.91705 0.0
O49 O 0.7507 0.82935 0.87426 0.0
O50 O 0.72475 0.77668 0.93164 0.0
C51 C 0.71015 0.78588 0.00117 0.0
C52 C 0.83522 0.79746 0.86336 0.0
O53 O 0.72714 0.7936 0.07155 0.0
C54 C 0.83754 0.78434 0.13565 0.0
O55 O 0.78181 0.74451 0.90566 0.0
O56 O 0.76207 0.73908 0.03712 0.0
O57 O 0.84294 0.80754 0.94162 0.0
O58 O 0.80485 0.79566 0.83516 0.0
C59 C 0.77765 0.84833 0.1522 0.0
O60 O 0.81221 0.76542 0.12243 0.0
O61 O 0.83735 0.81371 0.10665 0.0
C62 C 0.77465 0.72632 0.96844 0.0
O63 O 0.77578 0.81745 0.16757 0.0
O64 O 0.7889 0.8578 0.08097 0.0
C65 C 0.76907 0.85531 0.87759 0.0
Fe66 Fe 0.71164 0.33487 0.49931 0.0
Fe67 Fe 0.76187 0.28931 0.59984 0.0
O68 O 0.74302 0.3029 0.49886 0.0
Fe69 Fe 0.75579 0.28434 0.39744 0.0
O70 O 0.76917 0.32461 0.3601 0.0
O71 O 0.72481 0.35379 0.39768 0.0
O72 O 0.7393 0.36486 0.56055 0.0
C73 C 0.75515 0.35945 0.63255 0.0
C74 C 0.6857 0.29213 0.36621 0.0
O75 O 0.75927 0.32998 0.65842 0.0
C76 C 0.75429 0.22852 0.49664 0.0
O77 O 0.69307 0.32149 0.60099 0.0
O78 O 0.7216 0.27637 0.63748 0.0
O79 O 0.71493 0.28769 0.3396 0.0
O80 O 0.68089 0.30799 0.43817 0.0
C81 C 0.81702 0.291 0.49935 0.0
O82 O 0.76788 0.24585 0.56048 0.0
O83 O 0.74348 0.24238 0.42743 0.0
C84 C 0.69583 0.29461 0.64267 0.0
O85 O 0.80383 0.30127 0.56957 0.0
O86 O 0.79924 0.27766 0.43601 0.0
C87 C 0.75151 0.35084 0.35587 0.0
H88 H 0.26767 0.55955 0.14399 0.0
C89 C 0.2649 0.57505 0.08697 0.0
C90 C 0.25265 0.60804 0.09688 0.0
C91 C 0.27648 0.56306 0.00548 0.0
H92 H 0.24116 0.65353 0.03014 0.0
C93 C 0.25035 0.62807 0.0227 0.0
C94 C 0.26285 0.617 0.94145 0.0
C95 C 0.27552 0.58417 0.93324 0.0
C96 C 0.2953 0.53112 -0.00017 0.0
H97 H 0.28652 0.57556 0.87234 0.0
C98 C 0.27962 0.49982 0.00917 0.0
C99 C 0.29825 0.46997 -0.00039 0.0
C100 C 0.32965 0.53222 0.98362 0.0
H101 H 0.34217 0.55605 0.97687 0.0
C102 C 0.34818 0.50271 0.97621 0.0
H103 H 0.25304 0.49866 0.02051 0.0
C104 C 0.33257 0.47174 0.98354 0.0
H105 H 0.34722 0.44902 0.97567 0.0
H106 H 0.37463 0.50381 0.96365 0.0
H107 H 0.97625 0.74132 0.38106 0.0
C108 C 0.96305 0.75042 0.43815 0.0
C109 C 0.92996 0.76205 0.42725 0.0
C110 C 0.97826 0.74861 0.52363 0.0
H111 H 0.88654 0.78001 0.49182 0.0
C112 C 0.91245 0.77224 0.50151 0.0
C113 C 0.92736 0.77136 0.58731 0.0
C114 C 0.96045 0.75935 0.59769 0.0
C115 C 1.01007 0.73016 0.53753 0.0
H116 H 0.97221 0.7575 0.6633 0.0
C117 C 0.04167 0.7458 0.53332 0.0
C118 C 0.07132 0.72773 0.55369 0.0
C119 C 1.00837 0.69644 0.55988 0.0
H120 H 0.98428 0.68411 0.56361 0.0
C121 C 0.03759 0.67842 0.57841 0.0
H122 H 0.04311 0.77195 0.51701 0.0
C123 C 0.06883 0.69393 0.57581 0.0
H124 H 0.09119 0.67939 0.59075 0.0
H125 H 0.03603 0.6524 0.59556 0.0
H126 H 0.7946 0.49754 0.88319 0.0
C127 C 0.78863 0.48367 0.94046 0.0
C128 C 0.77783 0.45022 0.92912 0.0
C129 C 0.79484 0.49806 0.02616 0.0
H130 H 0.76381 0.40575 -0.00565 0.0
C131 C 0.7719 0.43172 0.0034 0.0
C132 C 0.77746 0.44573 0.08909 0.0
C133 C 0.78886 0.47906 0.1004 0.0
C134 C 0.8129 0.53051 0.03763 0.0
H135 H 0.79457 0.48965 0.16651 0.0
C136 C 0.79893 0.56041 0.00573 0.0
C137 C 0.8177 0.5905 0.01274 0.0
C138 C 0.84554 0.53102 0.07686 0.0
H139 H 0.85681 0.50824 0.10117 0.0
C140 C 0.86424 0.56064 0.08297 0.0
H141 H 0.77368 0.56027 0.97584 0.0
C142 C 0.85053 0.59017 0.05088 0.0
H143 H 0.86532 0.61303 0.05785 0.0
H144 H 0.88946 0.56073 0.11285 0.0
H145 H 0.04901 0.27422 0.60576 0.0
C146 C 0.06317 0.27886 0.54817 0.0
C147 C 0.09722 0.28792 0.55864 0.0
C148 C 0.04809 0.27306 0.46334 0.0
H149 H 0.14256 0.29624 0.49182 0.0
C150 C 0.11579 0.29175 0.48323 0.0
C151 C 0.10117 0.28611 0.39764 0.0
C152 C 0.06695 0.27731 0.38858 0.0
C153 C 1.01508 0.2562 0.45253 0.0
H154 H 0.05513 0.2722 0.32349 0.0
C155 C 0.9852 0.27251 0.47544 0.0
C156 C 0.95423 0.25569 0.46097 0.0
C157 C 1.01378 0.22295 0.41791 0.0
H158 H 0.03656 0.20998 0.40055 0.0
C159 C 0.9832 0.20611 0.40571 0.0
H160 H 0.98592 0.2983 0.50113 0.0
C161 C 0.95356 0.22241 0.42656 0.0
H162 H 0.92992 0.20915 0.41483 0.0
H163 H 0.98242 0.18049 0.37902 0.0
H164 H 0.77775 0.98581 0.38395 0.0
C165 C 0.76848 0.97623 0.44411 0.0
C166 C 0.75738 0.94282 0.44541 0.0
C167 C 0.77084 0.9965 0.52225 0.0
H168 H 0.73848 0.90482 0.52673 0.0
C169 C 0.74696 0.9306 0.52532 0.0
C170 C 0.75114 0.94965 0.60511 0.0
C171 C 0.76266 0.983 0.60283 0.0
C172 C 0.78874 0.0289 0.52188 0.0
H173 H 0.76708 0.99779 0.66399 0.0
C174 C 0.77145 0.05956 0.51466 0.0
C175 C 0.78964 0.08975 0.51158 0.0
C176 C 0.82396 0.02871 0.52587 0.0
H177 H 0.83758 1.0053 0.53097 0.0
C178 C 0.84189 0.05863 0.52295 0.0
H179 H 0.74425 0.05991 0.51155 0.0
C180 C 0.82487 0.08901 0.51591 0.0
H181 H 0.8392 0.11206 0.51425 0.0
H182 H 0.86906 0.05829 0.52621 0.0
H183 H 0.54834 0.24899 0.11037 0.0
C184 C 0.56246 0.25626 0.05485 0.0
C185 C 0.59513 0.26903 0.06962 0.0
C186 C 0.54935 0.24995 0.96783 0.0
H187 H 0.63972 0.2854 0.00915 0.0
C188 C 0.61419 0.27625 -0.00256 0.0
C189 C 0.60142 0.27026 0.91054 0.0
C190 C 0.56879 0.25739 0.89589 0.0
C191 C 0.51852 0.22966 0.9517 0.0
H192 H 0.55928 0.25126 0.82887 0.0
C193 C 0.48643 0.24309 0.96532 0.0
C194 C 0.45758 0.22324 0.94488 0.0
C195 C 0.52162 0.19622 0.92052 0.0
H196 H 0.54615 0.1855 0.91011 0.0
C197 C 0.4932 0.1763 0.90273 0.0
H198 H 0.48391 0.26905 0.98827 0.0
C199 C 0.4614 0.1897 0.91439 0.0
H200 H 0.43964 0.17382 0.89916 0.0
H201 H 0.49582 0.15049 0.87899 0.0
H202 H 0.29409 0.06431 0.61627 0.0
C203 C 0.28901 0.07714 0.55538 0.0
C204 C 0.27823 0.11073 0.55868 0.0
C205 C 0.29611 0.06122 0.4736 0.0
H206 H 0.26536 0.15365 0.48204 0.0
C207 C 0.27354 0.12768 0.4798 0.0
C208 C 0.28047 0.11219 0.39835 0.0
C209 C 0.29148 0.07881 0.39516 0.0
C210 C 0.31445 0.02904 0.47084 0.0
H211 H 0.29816 0.06714 0.33252 0.0
C212 C 0.29824 0.99802 0.47993 0.0
C213 C 0.31633 0.9678 0.46984 0.0
C214 C 0.34879 0.02964 0.45465 0.0
H215 H 0.3616 0.05329 0.44757 0.0
C216 C 0.36683 0.99986 0.44682 0.0
H217 H 0.27164 0.99736 0.49134 0.0
C218 C 0.35072 0.96913 0.45374 0.0
H219 H 0.36516 0.94625 0.4464 0.0
H220 H 0.3933 1.00057 0.43433 0.0
H221 H 0.48159 0.77522 0.89923 0.0
C222 C 0.46607 0.7777 0.95591 0.0
C223 C 0.43269 0.78889 0.94478 0.0
C224 C 0.47856 0.76704 0.03855 0.0
H225 H 0.38683 0.79903 0.00994 0.0
C226 C 0.41259 0.79073 0.0184 0.0
C227 C 0.42408 0.77895 0.10053 0.0
C228 C 0.45738 0.76768 0.1103 0.0
C229 C 0.51155 0.74996 0.04684 0.0
H230 H 0.46641 0.75756 0.17233 0.0
C231 C 0.54169 0.76597 0.02695 0.0
C232 C 0.57248 0.7488 0.03628 0.0
C233 C 0.51267 0.7168 0.07499 0.0
H234 H 0.48983 0.7039 0.08991 0.0
C235 C 0.5431 0.69978 0.08315 0.0
H236 H 0.54125 0.79159 0.00567 0.0
C237 C 0.57285 0.71565 0.06399 0.0
H238 H 0.59631 0.70213 0.07148 0.0
H239 H 0.54363 0.67423 0.10464 0.0
C240 C 0.17518 0.30006 0.25384 0.0
C241 C 0.16985 0.27495 0.18696 0.0
H242 H 0.15678 0.32478 0.36965 0.0
C243 C 0.14011 0.25596 0.18446 0.0
H244 H 0.19769 0.31538 0.25661 0.0
C245 C 0.11715 0.26054 0.25061 0.0
C246 C 0.12296 0.28478 0.31998 0.0
H247 H 0.13538 0.23627 0.1339 0.0
H248 H 0.09577 0.24376 0.2494 0.0
C249 C 0.15176 0.30527 0.31884 0.0
C250 C 0.26716 0.65381 0.71362 0.0
C251 C 0.27537 0.68752 0.73605 0.0
H252 H 0.25573 0.60527 0.76048 0.0
C253 C 0.27907 0.69779 0.8257 0.0
H254 H 0.26407 0.6452 0.64493 0.0
C255 C 0.27507 0.67492 0.89152 0.0
C256 C 0.26644 0.6412 0.86979 0.0
H257 H 0.28592 0.72344 0.84529 0.0
H258 H 0.27954 0.68371 0.95966 0.0
C259 C 0.26252 0.63093 0.77982 0.0
C260 C 0.89348 0.79553 0.21515 0.0
C261 C 0.86517 0.7746 0.19879 0.0
H262 H 0.93695 0.80733 0.30023 0.0
C263 C 0.86205 0.74615 0.2497 0.0
H264 H 0.89684 0.8175 0.17681 0.0
C265 C 0.8851 0.74042 0.31997 0.0
C266 C 0.91198 0.76266 0.33979 0.0
H267 H 0.84072 0.72941 0.23882 0.0
H268 H 0.88081 0.71974 0.36225 0.0
C269 C 0.91668 0.7896 0.28513 0.0
C270 C 0.74608 0.41684 0.70303 0.0
C271 C 0.76531 0.38737 0.69523 0.0
H272 H 0.73511 0.46053 0.78505 0.0
C273 C 0.79201 0.38228 0.75705 0.0
H274 H 0.72529 0.42128 0.65633 0.0
C275 C 0.79759 0.40453 0.82945 0.0
C276 C 0.77658 0.43234 0.84173 0.0
H277 H 0.80748 0.36 0.75208 0.0
H278 H 0.81709 0.39891 0.87894 0.0
C279 C 0.75165 0.43923 0.77637 0.0
C280 C 0.66125 0.25406 0.24673 0.0
C281 C 0.65734 0.28205 0.30465 0.0
H282 H 0.6437 0.22775 0.12746 0.0
C283 C 0.62888 0.30253 0.29325 0.0
H284 H 0.68282 0.23773 0.25448 0.0
C285 C 0.60643 0.2968 0.21982 0.0
C286 C 0.61217 0.27036 0.15826 0.0
H287 H 0.62544 0.32437 0.33681 0.0
H288 H 0.58612 0.3143 0.20781 0.0
C289 C 0.63885 0.24825 0.17438 0.0
C290 C 0.24475 0.14394 0.77564 0.0
C291 C 0.25996 0.17586 0.78261 0.0
H292 H 0.2387 0.09765 0.69767 0.0
C293 C 0.2846 0.1836 0.72363 0.0
H294 H 0.22577 0.13736 0.82069 0.0
C295 C 0.2922 0.16103 0.65514 0.0
C296 C 0.27509 0.13028 0.64314 0.0
H297 H 0.29721 0.20774 0.72853 0.0
H298 H 0.31035 0.16835 0.60851 0.0
C299 C 0.2522 0.12124 0.70576 0.0
C300 C 0.38707 0.77415 0.32749 0.0
C301 C 0.35373 0.76468 0.30427 0.0
H302 H 0.43526 0.78716 0.28169 0.0
C303 C 0.3438 0.76014 0.21446 0.0
H304 H 0.39539 0.77792 0.39634 0.0
C305 C 0.36665 0.76464 0.14923 0.0
C306 C 0.39996 0.77466 0.17166 0.0
H307 H 0.31845 0.75232 0.19432 0.0
H308 H 0.35816 0.75955 0.08102 0.0
C309 C 0.40992 0.77932 0.26182 0.0
C310 C 0.78249 0.91098 0.81631 0.0
C311 C 0.76006 0.88388 0.82109 0.0
H312 H 0.79701 0.95332 0.74484 0.0
C313 C 0.73092 0.88296 0.76496 0.0
H314 H 0.80498 0.91285 0.8593 0.0
C315 C 0.72605 0.90671 0.70001 0.0
C316 C 0.75029 0.93175 0.68943 0.0
H317 H 0.71281 0.86281 0.76769 0.0
H318 H 0.70439 0.90413 0.65422 0.0
C319 C 0.77769 0.93458 0.75119 0.0
C320 C 0.88698 0.76933 0.81008 0.0
C321 C 0.86158 0.79333 0.79933 0.0
H322 H 0.92738 0.74283 0.75055 0.0
C323 C 0.86007 0.81227 0.7235 0.0
H324 H 0.88843 0.75442 0.86831 0.0
C325 C 0.88289 0.80659 0.6577 0.0
C326 C 0.90706 0.78095 0.66468 0.0
H327 H 0.84089 0.83127 0.71466 0.0
H328 H 0.88094 0.82178 0.60007 0.0
C329 C 0.90938 0.76292 0.74285 0.0
C330 C 0.74347 0.40798 0.29247 0.0
C331 C 0.76036 0.37693 0.29362 0.0
H332 H 0.73618 0.4546 0.22746 0.0
C333 C 0.78503 0.37043 0.23196 0.0
H334 H 0.72452 0.41392 0.33944 0.0
C335 C 0.79144 0.39355 0.16811 0.0
C336 C 0.77374 0.42395 0.16497 0.0
H337 H 0.79868 0.34694 0.23096 0.0
H338 H 0.80973 0.38731 0.11946 0.0
C339 C 0.75027 0.43139 0.22897 0.0
C340 C 0.16344 0.30705 0.7402 0.0
C341 C 0.1619 0.27799 0.78933 0.0
H342 H 0.14339 0.33344 0.62929 0.0
C343 C 0.13504 0.25546 0.77123 0.0
H344 H 0.18348 0.3252 0.7532 0.0
C345 C 0.11207 0.26026 0.70033 0.0
C346 C 0.11548 0.28772 0.64629 0.0
H347 H 0.13285 0.23301 0.80845 0.0
H348 H 0.09324 0.24112 0.68396 0.0
C349 C 0.14046 0.31184 0.66931 0.0
C350 C 0.27837 0.64368 0.32376 0.0
C351 C 0.2562 0.67095 0.33189 0.0
H352 H 0.29442 0.60211 0.24324 0.0
C353 C 0.22823 0.67246 0.27204 0.0
H354 H 0.29987 0.64137 0.36962 0.0
C355 C 0.22479 0.64942 0.19981 0.0
C356 C 0.2493 0.62458 0.18598 0.0
H357 H 0.21036 0.69281 0.27711 0.0
H358 H 0.20432 0.6526 0.15123 0.0
C359 C 0.275 0.6208 0.25156 0.0
C360 C 0.36785 0.81259 0.76813 0.0
C361 C 0.36937 0.78453 0.70911 0.0
H362 H 0.38777 0.83678 0.88845 0.0
C363 C 0.39671 0.76243 0.71841 0.0
H364 H 0.34745 0.8304 0.76226 0.0
C365 C 0.41973 0.76604 0.79072 0.0
C366 C 0.41599 0.7919 0.85533 0.0
H367 H 0.39903 0.74084 0.67327 0.0
H368 H 0.43855 0.74676 0.79996 0.0
C369 C 0.39098 0.81625 0.8405 0.0
C370 C 0.77717 0.86336 0.31247 0.0
C371 C 0.77189 0.87305 0.22503 0.0
H372 H 0.77839 0.87777 0.44897 0.0
C373 C 0.76171 0.9061 0.20928 0.0
H374 H 0.78574 0.83828 0.32679 0.0
C375 C 0.75631 0.92886 0.2804 0.0
C376 C 0.76155 0.919 0.36822 0.0
H377 H 0.75751 0.91417 0.14226 0.0
H378 H 0.74792 0.95401 0.26662 0.0
C379 C 0.77256 0.88607 0.38285 0.0
C380 C 0.67773 0.26352 0.77258 0.0
C381 C 0.67025 0.28642 0.7064 0.0
H382 H 0.66172 0.24067 0.8889 0.0
C383 C 0.63872 0.30238 0.70439 0.0
H384 H 0.70168 0.25073 0.77616 0.0
C385 C 0.61559 0.29617 0.76861 0.0
C386 C 0.62385 0.27438 0.83666 0.0
H387 H 0.6321 0.31999 0.65391 0.0
H388 H 0.59179 0.30926 0.76697 0.0
C389 C 0.6549 0.25778 0.8373 0.0
C390 C 0.24849 0.14911 0.18468 0.0
C391 C 0.26757 0.17889 0.18484 0.0
H392 H 0.23816 0.10406 0.25191 0.0
C393 C 0.29353 0.18418 0.25007 0.0
H394 H 0.22845 0.14416 0.13496 0.0
C395 C 0.29879 0.16138 0.31686 0.0
C396 C 0.27863 0.13257 0.319 0.0
H397 H 0.30875 0.20674 0.25219 0.0
H398 H 0.31783 0.16687 0.36896 0.0
C399 C 0.2541 0.12604 0.25104 0.0
C400 C 0.26696 0.38703 0.07728 0.0
C401 C 0.26549 0.3676 -0.00266 0.0
H402 H 0.27831 0.43538 0.14062 0.0
C403 C 0.27049 0.38364 0.91799 0.0
H404 H 0.26319 0.3755 0.1395 0.0
C405 C 0.27895 0.41761 0.9189 0.0
C406 C 0.28232 0.43648 -0.00107 0.0
H407 H 0.26918 0.36965 0.85506 0.0
H408 H 0.28437 0.42885 0.85725 0.0
C409 C 0.27543 0.42127 0.07803 0.0
C410 C 0.16128 0.74991 0.6232 0.0
C411 C 0.1731 0.7634 0.54619 0.0
H412 H 0.11983 0.72846 0.68582 0.0
C413 C 0.15003 0.76831 0.47443 0.0
H414 H 0.17816 0.74581 0.67989 0.0
C415 C 0.11631 0.75856 0.47838 0.0
C416 C 0.10516 0.74337 0.55369 0.0
H417 H 0.15822 0.77871 0.41417 0.0
H418 H 0.09939 0.76135 0.42103 0.0
C419 C 0.12782 0.7399 0.62668 0.0
C420 C 0.76343 0.66805 0.01495 0.0
C421 C 0.78185 0.68987 0.96491 0.0
H422 H 0.75996 0.61905 0.06726 0.0
C423 C 0.8097 0.67726 0.92104 0.0
H424 H 0.74179 0.67707 0.04933 0.0
C425 C 0.82036 0.64419 0.93255 0.0
C426 C 0.80293 0.62295 0.98645 0.0
H427 H 0.8245 0.69354 0.88257 0.0
H428 H 0.84304 0.63559 0.90225 0.0
C429 C 0.77368 0.63481 0.02487 0.0
C430 C 0.86729 0.28698 0.40904 0.0
C431 C 0.85393 0.2895 0.49324 0.0
H432 H 0.90995 0.27478 0.33368 0.0
C433 C 0.87563 0.28623 0.56845 0.0
H434 H 0.85133 0.28977 0.34986 0.0
C435 C 0.90948 0.27772 0.55882 0.0
C436 C 0.92189 0.27272 0.47406 0.0
H437 H 0.866 0.28797 0.63409 0.0
H438 H 0.92532 0.27293 0.61704 0.0
C439 C 0.90086 0.2786 0.3996 0.0
C440 C 0.76281 0.17664 0.58166 0.0
C441 C 0.75645 0.19141 0.49972 0.0
H442 H 0.77778 0.13243 0.64909 0.0
C443 C 0.75607 0.17079 0.42197 0.0
H444 H 0.76301 0.19171 0.64288 0.0
C445 C 0.76447 0.13667 0.42597 0.0
C446 C 0.77287 0.12269 0.5077 0.0
H447 H 0.75136 0.18139 0.3579 0.0
H448 H 0.76628 0.12169 0.36507 0.0
C449 C 0.77102 0.14267 0.58553 0.0
C450 C 0.37849 0.26252 0.03449 0.0
C451 C 0.35527 0.25637 0.96256 0.0
H452 H 0.42953 0.25714 0.08514 0.0
C453 C 0.36686 0.24176 0.88359 0.0
H454 H 0.37044 0.2738 0.09616 0.0
C455 C 0.40029 0.23226 0.87765 0.0
C456 C 0.42323 0.2372 0.95021 0.0
H457 H 0.34993 0.23678 0.82644 0.0
H458 H 0.40814 0.2204 0.8164 0.0
C459 C 0.41229 0.25314 0.02817 0.0
C460 C 0.27421 0.89093 0.55482 0.0
C461 C 0.27876 0.86717 0.4849 0.0
H462 H 0.28206 0.9419 0.60424 0.0
C463 C 0.29251 0.87802 0.40718 0.0
H464 H 0.26364 0.88347 0.61553 0.0
C465 C 0.30314 0.91117 0.40127 0.0
C466 C 0.29998 0.93448 0.47238 0.0
H467 H 0.29638 0.8606 0.35183 0.0
H468 H 0.31486 0.9184 0.34186 0.0
C469 C 0.28456 0.92438 0.54835 0.0
C470 C 0.65647 0.79097 0.08152 0.0
C471 C 0.67316 0.78166 0.00444 0.0
H472 H 0.61091 0.78828 0.15103 0.0
C473 C 0.65459 0.76561 0.93328 0.0
H474 H 0.66988 0.80348 0.13747 0.0
C475 C 0.62086 0.75702 0.94134 0.0
C476 C 0.6049 0.7648 0.02002 0.0
H477 H 0.66652 0.7581 0.87288 0.0
H478 H 0.60771 0.74283 0.88775 0.0
C479 C 0.62266 0.78256 0.08921 0.0
loop_
_geom_bond_atom_site_label_1
_geom_bond_atom_site_label_2
_geom_bond_distance
_geom_bond_site_symmetry_2
_ccdc_geom_bond_type
Fe0 O2 1.919 . S
Fe0 O5 1.997 . S
Fe0 O6 2.002 . S
Fe0 O11 1.976 . S
Fe0 O14 1.996 . S
Fe1 O2 1.918 1_556 S
Fe1 O9 1.997 . S
Fe1 O12 1.996 . S
Fe1 O16 1.976 . S
Fe1 O19 2.002 . S
O2 Fe0 1.919 . S
O2 Fe1 1.918 1_554 S
O2 Fe3 1.918 1_554 S
Fe3 O2 1.918 1_556 S
Fe3 O4 2.002 1_556 S
Fe3 O13 1.976 1_556 S
Fe3 O17 1.996 . S
Fe3 O20 1.997 . S
O4 Fe3 2.002 1_554 S
O4 C21 1.295 . S
O5 Fe0 1.997 . S
O5 C21 1.235 . S
O6 Fe0 2.002 . S
O6 C7 1.295 . S
C7 O6 1.295 . S
C7 O9 1.235 1_554 S
C8 O13 1.287 . S
C8 O14 1.255 . S
O9 Fe1 1.997 . S
O9 C7 1.235 1_556 S
C10 O16 1.287 . S
C10 O17 1.255 . S
O11 Fe0 1.976 . S
O11 C18 1.287 . S
O12 Fe1 1.996 . S
O12 C18 1.255 1_556 S
O13 Fe3 1.976 1_554 S
O13 C8 1.287 . S
O14 Fe0 1.996 . S
O14 C8 1.255 . S
C15 O19 1.295 . S
C15 O20 1.235 . S
O16 Fe1 1.976 . S
O16 C10 1.287 . S
O17 Fe3 1.996 . S
O17 C10 1.255 . S
C18 O11 1.287 . S
C18 O12 1.255 1_554 S
O19 Fe1 2.002 . S
O19 C15 1.295 . S
O20 Fe3 1.997 . S
O20 C15 1.235 . S
C21 O4 1.295 . S
C21 O5 1.235 . S
Fe22 O24 1.918 . S
Fe22 O27 1.997 . S
Fe22 O28 2.002 . S
Fe22 O33 1.976 . S
Fe22 O36 1.996 . S
Fe23 O24 1.918 . S
Fe23 O31 1.997 . S
Fe23 O34 1.996 . S
Fe23 O38 1.976 . S
Fe23 O41 2.002 . S
O24 Fe22 1.918 . S
O24 Fe23 1.918 . S
O24 Fe25 1.918 . S
Fe25 O24 1.918 . S
Fe25 O26 2.002 . S
Fe25 O35 1.976 . S
Fe25 O39 1.996 . S
Fe25 O42 1.997 . S
O26 Fe25 2.002 . S
O26 C43 1.295 . S
O27 Fe22 1.997 . S
O27 C43 1.235 . S
O28 Fe22 2.002 . S
O28 C29 1.295 . S
C29 O28 1.295 . S
C29 O31 1.235 . S
C30 O35 1.287 . S
C30 O36 1.255 . S
O31 Fe23 1.997 . S
O31 C29 1.235 . S
C32 O38 1.287 . S
C32 O39 1.255 . S
O33 Fe22 1.976 . S
O33 C40 1.287 . S
O34 Fe23 1.996 . S
O34 C40 1.255 . S
O35 Fe25 1.976 . S
O35 C30 1.287 . S
O36 Fe22 1.996 . S
O36 C30 1.255 . S
C37 O41 1.295 . S
C37 O42 1.235 . S
O38 Fe23 1.976 . S
O38 C32 1.287 . S
O39 Fe25 1.996 . S
O39 C32 1.255 . S
C40 O33 1.287 . S
C40 O34 1.255 . S
O41 Fe23 2.002 . S
O41 C37 1.295 . S
O42 Fe25 1.997 . S
O42 C37 1.235 . S
C43 O26 1.295 . S
C43 O27 1.235 . S
Fe44 O46 1.918 1_556 S
Fe44 O49 1.997 . S
Fe44 O50 2.002 . S
Fe44 O55 1.976 . S
Fe44 O58 1.996 . S
Fe45 O46 1.918 . S
Fe45 O53 1.997 . S
Fe45 O56 1.996 . S
Fe45 O60 1.976 . S
Fe45 O63 2.002 . S
O46 Fe44 1.918 1_554 S
O46 Fe45 1.918 . S
O46 Fe47 1.918 . S
Fe47 O46 1.918 . S
Fe47 O48 2.002 1_554 S
Fe47 O57 1.976 1_554 S
Fe47 O61 1.996 . S
Fe47 O64 1.997 . S
O48 Fe47 2.002 1_556 S
O48 C65 1.295 . S
O49 Fe44 1.997 . S
O49 C65 1.235 . S
O50 Fe44 2.002 . S
O50 C51 1.295 1_556 S
C51 O50 1.295 1_554 S
C51 O53 1.235 . S
C52 O57 1.287 . S
C52 O58 1.255 . S
O53 Fe45 1.997 . S
O53 C51 1.235 . S
C54 O60 1.287 . S
C54 O61 1.255 . S
O55 Fe44 1.976 . S
O55 C62 1.287 1_556 S
O56 Fe45 1.996 . S
O56 C62 1.255 . S
O57 Fe47 1.976 1_556 S
O57 C52 1.287 . S
O58 Fe44 1.996 . S
O58 C52 1.255 . S
C59 O63 1.295 . S
C59 O64 1.235 . S
O60 Fe45 1.976 . S
O60 C54 1.287 . S
O61 Fe47 1.996 . S
O61 C54 1.255 . S
C62 O55 1.287 1_554 S
C62 O56 1.255 . S
O63 Fe45 2.002 . S
O63 C59 1.295 . S
O64 Fe47 1.997 . S
O64 C59 1.235 . S
C65 O48 1.295 . S
C65 O49 1.235 . S
Fe66 O68 1.918 . S
Fe66 O71 1.997 . S
Fe66 O72 2.002 . S
Fe66 O77 1.976 . S
Fe66 O80 1.996 . S
Fe67 O68 1.918 . S
Fe67 O75 1.997 . S
Fe67 O78 1.996 . S
Fe67 O82 1.976 . S
Fe67 O85 2.002 . S
O68 Fe66 1.918 . S
O68 Fe67 1.918 . S
O68 Fe69 1.918 . S
Fe69 O68 1.918 . S
Fe69 O70 2.002 . S
Fe69 O79 1.976 . S
Fe69 O83 1.996 . S
Fe69 O86 1.997 . S
O70 Fe69 2.002 . S
O70 C87 1.295 . S
O71 Fe66 1.997 . S
O71 C87 1.235 . S
O72 Fe66 2.002 . S
O72 C73 1.295 . S
C73 O72 1.295 . S
C73 O75 1.235 . S
C74 O79 1.287 . S
C74 O80 1.255 . S
O75 Fe67 1.997 . S
O75 C73 1.235 . S
C76 O82 1.287 . S
C76 O83 1.255 . S
O77 Fe66 1.976 . S
O77 C84 1.287 . S
O78 Fe67 1.996 . S
O78 C84 1.255 . S
O79 Fe69 1.976 . S
O79 C74 1.287 . S
O80 Fe66 1.996 . S
O80 C74 1.255 . S
C81 O85 1.295 . S
C81 O86 1.235 . S
O82 Fe67 1.976 . S
O82 C76 1.287 . S
O83 Fe69 1.996 . S
O83 C76 1.255 . S
C84 O77 1.287 . S
C84 O78 1.255 . S
O85 Fe67 2.002 . S
O85 C81 1.295 . S
O86 Fe69 1.997 . S
O86 C81 1.235 . S
C87 O70 1.295 . S
C87 O71 1.235 . S
H88 C89 0.949 . S
C89 H88 0.949 . S
C89 C90 1.395 . S
C89 C91 1.391 1_554 S
C90 C89 1.395 . S
C90 C93 1.390 . S
C91 C89 1.391 1_556 S
C91 C95 1.387 . S
C91 C96 1.491 . S
H92 C93 0.950 . S
C93 C90 1.390 . S
C93 H92 0.950 . S
C93 C94 1.378 1_554 S
C94 C93 1.378 1_556 S
C94 C95 1.409 . S
C95 C91 1.387 . S
C95 C94 1.409 . S
C95 H97 0.951 . S
C96 C91 1.491 . S
C96 C98 1.382 1_556 S
C96 C100 1.404 . S
H97 C95 0.951 . S
C98 C96 1.382 1_554 S
C98 C99 1.390 1_554 S
C98 H103 0.949 . S
C99 C98 1.390 1_556 S
C99 C104 1.399 . S
C100 C96 1.404 . S
C100 H101 0.950 . S
C100 C102 1.375 . S
H101 C100 0.950 . S
C102 C100 1.375 . S
C102 C104 1.382 . S
C102 H106 0.950 . S
H103 C98 0.949 . S
C104 C99 1.399 . S
C104 C102 1.382 . S
C104 H105 0.952 . S
H105 C104 0.952 . S
H106 C102 0.950 . S
H107 C108 0.949 . S
C108 H107 0.949 . S
C108 C109 1.395 . S
C108 C110 1.391 . S
C109 C108 1.395 . S
C109 C112 1.390 . S
C110 C108 1.391 . S
C110 C114 1.387 . S
C110 C115 1.491 1_655 S
H111 C112 0.950 . S
C112 C109 1.390 . S
C112 H111 0.950 . S
C112 C113 1.378 . S
C113 C112 1.378 . S
C113 C114 1.409 . S
C114 C110 1.387 . S
C114 C113 1.409 . S
C114 H116 0.951 . S
C115 C110 1.491 1_455 S
C115 C117 1.382 . S
C115 C119 1.404 . S
H116 C114 0.951 . S
C117 C115 1.382 . S
C117 C118 1.390 . S
C117 H122 0.949 . S
C118 C117 1.390 . S
C118 C123 1.399 . S
C119 C115 1.404 . S
C119 H120 0.950 . S
C119 C121 1.375 . S
H120 C119 0.950 . S
C121 C119 1.375 . S
C121 C123 1.382 . S
C121 H125 0.950 . S
H122 C117 0.949 . S
C123 C118 1.399 . S
C123 C121 1.382 . S
C123 H124 0.952 . S
H124 C123 0.952 . S
H125 C121 0.950 . S
H126 C127 0.949 . S
C127 H126 0.949 . S
C127 C128 1.395 . S
C127 C129 1.391 1_556 S
C128 C127 1.395 . S
C128 C131 1.390 1_556 S
C129 C127 1.391 1_554 S
C129 C133 1.387 . S
C129 C134 1.491 . S
H130 C131 0.950 . S
C131 C128 1.390 1_554 S
C131 H130 0.950 . S
C131 C132 1.378 . S
C132 C131 1.378 . S
C132 C133 1.409 . S
C133 C129 1.387 . S
C133 C132 1.409 . S
C133 H135 0.951 . S
C134 C129 1.491 . S
C134 C136 1.382 . S
C134 C138 1.404 . S
H135 C133 0.951 . S
C136 C134 1.382 . S
C136 C137 1.390 . S
C136 H141 0.949 1_554 S
C137 C136 1.390 . S
C137 C142 1.399 . S
C138 C134 1.404 . S
C138 H139 0.950 . S
C138 C140 1.375 . S
H139 C138 0.950 . S
C140 C138 1.375 . S
C140 C142 1.382 . S
C140 H144 0.950 . S
H141 C136 0.949 1_556 S
C142 C137 1.399 . S
C142 C140 1.382 . S
C142 H143 0.952 . S
H143 C142 0.952 . S
H144 C140 0.950 . S
H145 C146 0.949 . S
C146 H145 0.949 . S
C146 C147 1.395 . S
C146 C148 1.391 . S
C147 C146 1.395 . S
C147 C150 1.390 . S
C148 C146 1.391 . S
C148 C152 1.387 . S
C148 C153 1.491 1_455 S
H149 C150 0.950 . S
C150 C147 1.390 . S
C150 H149 0.950 . S
C150 C151 1.378 . S
C151 C150 1.378 . S
C151 C152 1.409 . S
C152 C148 1.387 . S
C152 C151 1.409 . S
C152 H154 0.951 . S
C153 C148 1.491 1_655 S
C153 C155 1.382 . S
C153 C157 1.404 . S
H154 C152 0.951 . S
C155 C153 1.382 . S
C155 C156 1.390 . S
C155 H160 0.949 . S
C156 C155 1.390 . S
C156 C161 1.399 . S
C157 C153 1.404 . S
C157 H158 0.950 . S
C157 C159 1.375 . S
H158 C157 0.950 . S
C159 C157 1.375 . S
C159 C161 1.382 . S
C159 H163 0.950 . S
H160 C155 0.949 . S
C161 C156 1.399 . S
C161 C159 1.382 . S
C161 H162 0.952 . S
H162 C161 0.952 . S
H163 C159 0.950 . S
H164 C165 0.949 . S
C165 H164 0.949 . S
C165 C166 1.395 . S
C165 C167 1.391 . S
C166 C165 1.395 . S
C166 C169 1.390 . S
C167 C165 1.391 . S
C167 C171 1.387 . S
C167 C172 1.491 1_565 S
H168 C169 0.950 . S
C169 C166 1.390 . S
C169 H168 0.950 . S
C169 C170 1.378 . S
C170 C169 1.378 . S
C170 C171 1.409 . S
C171 C167 1.387 . S
C171 C170 1.409 . S
C171 H173 0.951 . S
C172 C167 1.491 1_545 S
C172 C174 1.382 . S
C172 C176 1.404 . S
H173 C171 0.951 . S
C174 C172 1.382 . S
C174 C175 1.390 . S
C174 H179 0.949 . S
C175 C174 1.390 . S
C175 C180 1.399 . S
C176 C172 1.404 . S
C176 H177 0.950 . S
C176 C178 1.375 . S
H177 C176 0.950 . S
C178 C176 1.375 . S
C178 C180 1.382 . S
C178 H182 0.950 . S
H179 C174 0.949 . S
C180 C175 1.399 . S
C180 C178 1.382 . S
C180 H181 0.952 . S
H181 C180 0.952 . S
H182 C178 0.950 . S
H183 C184 0.949 . S
C184 H183 0.949 . S
C184 C185 1.395 . S
C184 C186 1.391 1_554 S
C185 C184 1.395 . S
C185 C188 1.390 . S
C186 C184 1.391 1_556 S
C186 C190 1.387 . S
C186 C191 1.491 . S
H187 C188 0.950 . S
C188 C185 1.390 . S
C188 H187 0.950 . S
C188 C189 1.378 1_554 S
C189 C188 1.378 1_556 S
C189 C190 1.409 . S
C190 C186 1.387 . S
C190 C189 1.409 . S
C190 H192 0.951 . S
C191 C186 1.491 . S
C191 C193 1.382 1_556 S
C191 C195 1.404 . S
H192 C190 0.951 . S
C193 C191 1.382 1_554 S
C193 C194 1.390 1_554 S
C193 H198 0.949 . S
C194 C193 1.390 1_556 S
C194 C199 1.399 . S
C195 C191 1.404 . S
C195 H196 0.950 . S
C195 C197 1.375 . S
H196 C195 0.950 . S
C197 C195 1.375 . S
C197 C199 1.382 . S
C197 H201 0.950 . S
H198 C193 0.949 . S
C199 C194 1.399 . S
C199 C197 1.382 . S
C199 H200 0.952 . S
H200 C199 0.952 . S
H201 C197 0.950 . S
H202 C203 0.949 . S
C203 H202 0.949 . S
C203 C204 1.395 . S
C203 C205 1.391 . S
C204 C203 1.395 . S
C204 C207 1.390 . S
C205 C203 1.391 . S
C205 C209 1.387 . S
C205 C210 1.491 1_545 S
H206 C207 0.950 . S
C207 C204 1.390 . S
C207 H206 0.950 . S
C207 C208 1.378 . S
C208 C207 1.378 . S
C208 C209 1.409 . S
C209 C205 1.387 . S
C209 C208 1.409 . S
C209 H211 0.951 . S
C210 C205 1.491 1_565 S
C210 C212 1.382 . S
C210 C214 1.404 . S
H211 C209 0.951 . S
C212 C210 1.382 . S
C212 C213 1.390 . S
C212 H217 0.949 . S
C213 C212 1.390 . S
C213 C218 1.399 . S
C214 C210 1.404 . S
C214 H215 0.950 . S
C214 C216 1.375 . S
H215 C214 0.950 . S
C216 C214 1.375 . S
C216 C218 1.382 . S
C216 H220 0.950 . S
H217 C212 0.949 . S
C218 C213 1.399 . S
C218 C216 1.382 . S
C218 H219 0.952 . S
H219 C218 0.952 . S
H220 C216 0.950 . S
H221 C222 0.949 . S
C222 H221 0.949 . S
C222 C223 1.395 . S
C222 C224 1.391 1_556 S
C223 C222 1.395 . S
C223 C226 1.390 1_556 S
C224 C222 1.391 1_554 S
C224 C228 1.387 . S
C224 C229 1.491 . S
H225 C226 0.950 . S
C226 C223 1.390 1_554 S
C226 H225 0.950 . S
C226 C227 1.378 . S
C227 C226 1.378 . S
C227 C228 1.409 . S
C228 C224 1.387 . S
C228 C227 1.409 . S
C228 H230 0.951 . S
C229 C224 1.491 . S
C229 C231 1.382 . S
C229 C233 1.404 . S
H230 C228 0.951 . S
C231 C229 1.382 . S
C231 C232 1.390 . S
C231 H236 0.949 1_554 S
C232 C231 1.390 . S
C232 C237 1.399 . S
C233 C229 1.404 . S
C233 H234 0.950 . S
C233 C235 1.375 . S
H234 C233 0.950 . S
C235 C233 1.375 . S
C235 C237 1.382 . S
C235 H239 0.950 . S
H236 C231 0.949 1_556 S
C237 C232 1.399 . S
C237 C235 1.382 . S
C237 H238 0.952 . S
H238 C237 0.952 . S
H239 C235 0.950 . S
C240 C241 1.387 . S
C240 H244 0.950 . S
C240 C249 1.390 . S
C241 C240 1.387 . S
C241 C243 1.387 . S
H242 C249 0.950 . S
C243 C241 1.387 . S
C243 C245 1.390 . S
C243 H247 0.950 . S
H244 C240 0.950 . S
C245 C243 1.390 . S
C245 C246 1.387 . S
C245 H248 0.950 . S
C246 C245 1.387 . S
C246 C249 1.387 . S
H247 C243 0.950 . S
H248 C245 0.950 . S
C249 C240 1.390 . S
C249 H242 0.950 . S
C249 C246 1.387 . S
C250 C251 1.387 . S
C250 H254 0.950 . S
C250 C259 1.390 . S
C251 C250 1.387 . S
C251 C253 1.387 . S
H252 C259 0.950 . S
C253 C251 1.387 . S
C253 C255 1.390 . S
C253 H257 0.950 . S
H254 C250 0.950 . S
C255 C253 1.390 . S
C255 C256 1.387 . S
C255 H258 0.950 . S
C256 C255 1.387 . S
C256 C259 1.387 . S
H257 C253 0.950 . S
H258 C255 0.950 . S
C259 C250 1.390 . S
C259 H252 0.950 . S
C259 C256 1.387 . S
C260 C261 1.387 . S
C260 H264 0.950 . S
C260 C269 1.390 . S
C261 C260 1.387 . S
C261 C263 1.387 . S
H262 C269 0.950 . S
C263 C261 1.387 . S
C263 C265 1.390 . S
C263 H267 0.950 . S
H264 C260 0.950 . S
C265 C263 1.390 . S
C265 C266 1.387 . S
C265 H268 0.950 . S
C266 C265 1.387 . S
C266 C269 1.387 . S
H267 C263 0.950 . S
H268 C265 0.950 . S
C269 C260 1.390 . S
C269 H262 0.950 . S
C269 C266 1.387 . S
C270 C271 1.387 . S
C270 H274 0.950 . S
C270 C279 1.390 . S
C271 C270 1.387 . S
C271 C273 1.387 . S
H272 C279 0.950 . S
C273 C271 1.387 . S
C273 C275 1.390 . S
C273 H277 0.950 . S
H274 C270 0.950 . S
C275 C273 1.390 . S
C275 C276 1.387 . S
C275 H278 0.950 . S
C276 C275 1.387 . S
C276 C279 1.387 . S
H277 C273 0.950 . S
H278 C275 0.950 . S
C279 C270 1.390 . S
C279 H272 0.950 . S
C279 C276 1.387 . S
C280 C281 1.387 . S
C280 H284 0.950 . S
C280 C289 1.390 . S
C281 C280 1.387 . S
C281 C283 1.387 . S
H282 C289 0.950 . S
C283 C281 1.387 . S
C283 C285 1.390 . S
C283 H287 0.950 . S
H284 C280 0.950 . S
C285 C283 1.390 . S
C285 C286 1.387 . S
C285 H288 0.950 . S
C286 C285 1.387 . S
C286 C289 1.387 . S
H287 C283 0.950 . S
H288 C285 0.950 . S
C289 C280 1.390 . S
C289 H282 0.950 . S
C289 C286 1.387 . S
C290 C291 1.387 . S
C290 H294 0.950 . S
C290 C299 1.390 . S
C291 C290 1.387 . S
C291 C293 1.387 . S
H292 C299 0.950 . S
C293 C291 1.387 . S
C293 C295 1.390 . S
C293 H297 0.950 . S
H294 C290 0.950 . S
C295 C293 1.390 . S
C295 C296 1.387 . S
C295 H298 0.950 . S
C296 C295 1.387 . S
C296 C299 1.387 . S
H297 C293 0.950 . S
H298 C295 0.950 . S
C299 C290 1.390 . S
C299 H292 0.950 . S
C299 C296 1.387 . S
C300 C301 1.387 . S
C300 H304 0.950 . S
C300 C309 1.390 . S
C301 C300 1.387 . S
C301 C303 1.387 . S
H302 C309 0.950 . S
C303 C301 1.387 . S
C303 C305 1.390 . S
C303 H307 0.950 . S
H304 C300 0.950 . S
C305 C303 1.390 . S
C305 C306 1.387 . S
C305 H308 0.950 . S
C306 C305 1.387 . S
C306 C309 1.387 . S
H307 C303 0.950 . S
H308 C305 0.950 . S
C309 C300 1.390 . S
C309 H302 0.950 . S
C309 C306 1.387 . S
C310 C311 1.387 . S
C310 H314 0.950 . S
C310 C319 1.390 . S
C311 C310 1.387 . S
C311 C313 1.387 . S
H312 C319 0.950 . S
C313 C311 1.387 . S
C313 C315 1.390 . S
C313 H317 0.950 . S
H314 C310 0.950 . S
C315 C313 1.390 . S
C315 C316 1.387 . S
C315 H318 0.950 . S
C316 C315 1.387 . S
C316 C319 1.387 . S
H317 C313 0.950 . S
H318 C315 0.950 . S
C319 C310 1.390 . S
C319 H312 0.950 . S
C319 C316 1.387 . S
C320 C321 1.387 . S
C320 H324 0.950 . S
C320 C329 1.390 . S
C321 C320 1.387 . S
C321 C323 1.387 . S
H322 C329 0.950 . S
C323 C321 1.387 . S
C323 C325 1.390 . S
C323 H327 0.950 . S
H324 C320 0.950 . S
C325 C323 1.390 . S
C325 C326 1.387 . S
C325 H328 0.950 . S
C326 C325 1.387 . S
C326 C329 1.387 . S
H327 C323 0.950 . S
H328 C325 0.950 . S
C329 C320 1.390 . S
C329 H322 0.950 . S
C329 C326 1.387 . S
C330 C331 1.387 . S
C330 H334 0.950 . S
C330 C339 1.390 . S
C331 C330 1.387 . S
C331 C333 1.387 . S
H332 C339 0.950 . S
C333 C331 1.387 . S
C333 C335 1.390 . S
C333 H337 0.950 . S
H334 C330 0.950 . S
C335 C333 1.390 . S
C335 C336 1.387 . S
C335 H338 0.950 . S
C336 C335 1.387 . S
C336 C339 1.387 . S
H337 C333 0.950 . S
H338 C335 0.950 . S
C339 C330 1.390 . S
C339 H332 0.950 . S
C339 C336 1.387 . S
C340 C341 1.387 . S
C340 H344 0.950 . S
C340 C349 1.390 . S
C341 C340 1.387 . S
C341 C343 1.387 . S
H342 C349 0.950 . S
C343 C341 1.387 . S
C343 C345 1.390 . S
C343 H347 0.950 . S
H344 C340 0.950 . S
C345 C343 1.390 . S
C345 C346 1.387 . S
C345 H348 0.950 . S
C346 C345 1.387 . S
C346 C349 1.387 . S
H347 C343 0.950 . S
H348 C345 0.950 . S
C349 C340 1.390 . S
C349 H342 0.950 . S
C349 C346 1.387 . S
C350 C351 1.387 . S
C350 H354 0.950 . S
C350 C359 1.390 . S
C351 C350 1.387 . S
C351 C353 1.387 . S
H352 C359 0.950 . S
C353 C351 1.387 . S
C353 C355 1.390 . S
C353 H357 0.950 . S
H354 C350 0.950 . S
C355 C353 1.390 . S
C355 C356 1.387 . S
C355 H358 0.950 . S
C356 C355 1.387 . S
C356 C359 1.387 . S
H357 C353 0.950 . S
H358 C355 0.950 . S
C359 C350 1.390 . S
C359 H352 0.950 . S
C359 C356 1.387 . S
C360 C361 1.387 . S
C360 H364 0.950 . S
C360 C369 1.390 . S
C361 C360 1.387 . S
C361 C363 1.387 . S
H362 C369 0.950 . S
C363 C361 1.387 . S
C363 C365 1.390 . S
C363 H367 0.950 . S
H364 C360 0.950 . S
C365 C363 1.390 . S
C365 C366 1.387 . S
C365 H368 0.950 . S
C366 C365 1.387 . S
C366 C369 1.387 . S
H367 C363 0.950 . S
H368 C365 0.950 . S
C369 C360 1.390 . S
C369 H362 0.950 . S
C369 C366 1.387 . S
C370 C371 1.387 . S
C370 H374 0.950 . S
C370 C379 1.390 . S
C371 C370 1.387 . S
C371 C373 1.387 . S
H372 C379 0.950 . S
C373 C371 1.387 . S
C373 C375 1.390 . S
C373 H377 0.950 . S
H374 C370 0.950 . S
C375 C373 1.390 . S
C375 C376 1.387 . S
C375 H378 0.950 . S
C376 C375 1.387 . S
C376 C379 1.387 . S
H377 C373 0.950 . S
H378 C375 0.950 . S
C379 C370 1.390 . S
C379 H372 0.950 . S
C379 C376 1.387 . S
C380 C381 1.387 . S
C380 H384 0.950 . S
C380 C389 1.390 . S
C381 C380 1.387 . S
C381 C383 1.387 . S
H382 C389 0.950 . S
C383 C381 1.387 . S
C383 C385 1.390 . S
C383 H387 0.950 . S
H384 C380 0.950 . S
C385 C383 1.390 . S
C385 C386 1.387 . S
C385 H388 0.950 . S
C386 C385 1.387 . S
C386 C389 1.387 . S
H387 C383 0.950 . S
H388 C385 0.950 . S
C389 C380 1.390 . S
C389 H382 0.950 . S
C389 C386 1.387 . S
C390 C391 1.387 . S
C390 H394 0.950 . S
C390 C399 1.390 . S
C391 C390 1.387 . S
C391 C393 1.387 . S
H392 C399 0.950 . S
C393 C391 1.387 . S
C393 C395 1.390 . S
C393 H397 0.950 . S
H394 C390 0.950 . S
C395 C393 1.390 . S
C395 C396 1.387 . S
C395 H398 0.950 . S
C396 C395 1.387 . S
C396 C399 1.387 . S
H397 C393 0.950 . S
H398 C395 0.950 . S
C399 C390 1.390 . S
C399 H392 0.950 . S
C399 C396 1.387 . S
C400 C401 1.387 . S
C400 H404 0.950 . S
C400 C409 1.390 . S
C401 C400 1.387 . S
C401 C403 1.387 1_554 S
H402 C409 0.950 . S
C403 C401 1.387 1_556 S
C403 C405 1.390 . S
C403 H407 0.950 . S
H404 C400 0.950 . S
C405 C403 1.390 . S
C405 C406 1.387 1_556 S
C405 H408 0.950 . S
C406 C405 1.387 1_554 S
C406 C409 1.387 . S
H407 C403 0.950 . S
H408 C405 0.950 . S
C409 C400 1.390 . S
C409 H402 0.950 . S
C409 C406 1.387 . S
C410 C411 1.387 . S
C410 H414 0.950 . S
C410 C419 1.390 . S
C411 C410 1.387 . S
C411 C413 1.387 . S
H412 C419 0.950 . S
C413 C411 1.387 . S
C413 C415 1.390 . S
C413 H417 0.950 . S
H414 C410 0.950 . S
C415 C413 1.390 . S
C415 C416 1.387 . S
C415 H418 0.950 . S
C416 C415 1.387 . S
C416 C419 1.387 . S
H417 C413 0.950 . S
H418 C415 0.950 . S
C419 C410 1.390 . S
C419 H412 0.950 . S
C419 C416 1.387 . S
C420 C421 1.387 . S
C420 H424 0.950 . S
C420 C429 1.390 . S
C421 C420 1.387 . S
C421 C423 1.387 1_554 S
H422 C429 0.950 . S
C423 C421 1.387 1_556 S
C423 C425 1.390 . S
C423 H427 0.950 . S
H424 C420 0.950 . S
C425 C423 1.390 . S
C425 C426 1.387 1_556 S
C425 H428 0.950 . S
C426 C425 1.387 1_554 S
C426 C429 1.387 . S
H427 C423 0.950 . S
H428 C425 0.950 . S
C429 C420 1.390 . S
C429 H422 0.950 . S
C429 C426 1.387 . S
C430 C431 1.387 . S
C430 H434 0.950 . S
C430 C439 1.390 . S
C431 C430 1.387 . S
C431 C433 1.387 . S
H432 C439 0.950 . S
C433 C431 1.387 . S
C433 C435 1.390 . S
C433 H437 0.950 . S
H434 C430 0.950 . S
C435 C433 1.390 . S
C435 C436 1.387 . S
C435 H438 0.950 . S
C436 C435 1.387 . S
C436 C439 1.387 . S
H437 C433 0.950 . S
H438 C435 0.950 . S
C439 C430 1.390 . S
C439 H432 0.950 . S
C439 C436 1.387 . S
C440 C441 1.387 . S
C440 H444 0.950 . S
C440 C449 1.390 . S
C441 C440 1.387 . S
C441 C443 1.387 . S
H442 C449 0.950 . S
C443 C441 1.387 . S
C443 C445 1.390 . S
C443 H447 0.950 . S
H444 C440 0.950 . S
C445 C443 1.390 . S
C445 C446 1.387 . S
C445 H448 0.950 . S
C446 C445 1.387 . S
C446 C449 1.387 . S
H447 C443 0.950 . S
H448 C445 0.950 . S
C449 C440 1.390 . S
C449 H442 0.950 . S
C449 C446 1.387 . S
C450 C451 1.387 . S
C450 H454 0.950 . S
C450 C459 1.390 . S
C451 C450 1.387 . S
C451 C453 1.387 1_554 S
H452 C459 0.950 . S
C453 C451 1.387 1_556 S
C453 C455 1.390 . S
C453 H457 0.950 . S
H454 C450 0.950 . S
C455 C453 1.390 . S
C455 C456 1.387 1_556 S
C455 H458 0.950 . S
C456 C455 1.387 1_554 S
C456 C459 1.387 . S
H457 C453 0.950 . S
H458 C455 0.950 . S
C459 C450 1.390 . S
C459 H452 0.950 . S
C459 C456 1.387 . S
C460 C461 1.387 . S
C460 H464 0.950 . S
C460 C469 1.390 . S
C461 C460 1.387 . S
C461 C463 1.387 . S
H462 C469 0.950 . S
C463 C461 1.387 . S
C463 C465 1.390 . S
C463 H467 0.950 . S
H464 C460 0.950 . S
C465 C463 1.390 . S
C465 C466 1.387 . S
C465 H468 0.950 . S
C466 C465 1.387 . S
C466 C469 1.387 . S
H467 C463 0.950 . S
H468 C465 0.950 . S
C469 C460 1.390 . S
C469 H462 0.950 . S
C469 C466 1.387 . S
C470 C471 1.387 . S
C470 H474 0.950 . S
C470 C479 1.390 . S
C471 C470 1.387 . S
C471 C473 1.387 1_554 S
H472 C479 0.950 . S
C473 C471 1.387 1_556 S
C473 C475 1.390 . S
C473 H477 0.950 . S
H474 C470 0.950 . S
C475 C473 1.390 . S
C475 C476 1.387 1_556 S
C475 H478 0.950 . S
C476 C475 1.387 1_554 S
C476 C479 1.387 . S
H477 C473 0.950 . S
H478 C475 0.950 . S
C479 C470 1.390 . S
C479 H472 0.950 . S
C479 C476 1.387 . S
C241 C21 1.513 . S
C246 C151 1.523 . S
C251 C40 1.504 . S
C256 C94 1.497 . S
C266 C109 1.473 . S
C261 C54 1.521 . S
C271 C73 1.532 . S
C276 C128 1.501 . S
C286 C185 1.462 . S
C281 C74 1.503 . S
C296 C204 1.487 . S
C291 C10 1.537 . S
C306 C227 1.536 . S
C301 C37 1.534 . S
C316 C170 1.511 . S
C311 C65 1.500 . S
C321 C52 1.472 . S
C326 C113 1.470 . S
C331 C87 1.516 . S
C336 C132 1.523 . S
C341 C15 1.566 . S
C346 C147 1.523 . S
C356 C90 1.471 . S
C351 C32 1.518 . S
C361 C29 1.546 . S
C366 C223 1.510 . S
C376 C166 1.512 . S
C371 C59 1.550 . S
C386 C189 1.483 . S
C381 C84 1.487 . S
C391 C8 1.485 . S
C396 C208 1.483 . S
C406 C99 1.382 1_554 S
C401 C7 1.506 . S
C416 C118 1.378 . S
C411 C30 1.489 . S
C421 C62 1.502 . S
C426 C137 1.393 . S
C431 C81 1.516 . S
C436 C156 1.390 . S
C446 C175 1.367 . S
C441 C76 1.500 . S
C451 C18 1.490 . S
C456 C194 1.373 1_554 S
C461 C43 1.504 . S
C466 C213 1.398 . S
C471 C51 1.516 . S
C476 C232 1.387 . S
