# Generated by pormake.
# Topology ctn, (3,4)-cn, num edge types: 1
# Building blocks:
#     Node 0, Type 0, BuildingBlock: KAKCAD_clean_linker_0, # of connection points: 3
#     Node 1, Type 0, BuildingBlock: KAKCAD_clean_linker_0, # of connection points: 3
#     Node 2, Type 0, BuildingBlock: KAKCAD_clean_linker_0, # of connection points: 3
#     Node 3, Type 0, BuildingBlock: KAKCAD_clean_linker_0, # of connection points: 3
#     Node 4, Type 0, BuildingBlock: KAKCAD_clean_linker_0, # of connection points: 3
#     Node 5, Type 0, BuildingBlock: KAKCAD_clean_linker_0, # of connection points: 3
#     Node 6, Type 0, BuildingBlock: KAKCAD_clean_linker_0, # of connection points: 3
#     Node 7, Type 0, BuildingBlock: KAKCAD_clean_linker_0, # of connection points: 3
#     Node 8, Type 0, BuildingBlock: KAKCAD_clean_linker_0, # of connection points: 3
#     Node 9, Type 0, BuildingBlock: KAKCAD_clean_linker_0, # of connection points: 3
#     Node 10, Type 0, BuildingBlock: KAKCAD_clean_linker_0, # of connection points: 3
#     Node 11, Type 0, BuildingBlock: KAKCAD_clean_linker_0, # of connection points: 3
#     Node 12, Type 0, BuildingBlock: KAKCAD_clean_linker_0, # of connection points: 3
#     Node 13, Type 0, BuildingBlock: KAKCAD_clean_linker_0, # of connection points: 3
#     Node 14, Type 0, BuildingBlock: KAKCAD_clean_linker_0, # of connection points: 3
#     Node 15, Type 0, BuildingBlock: KAKCAD_clean_linker_0, # of connection points: 3
#     Node 16, Type 1, BuildingBlock: UXUYUI_clean_sbu_0, # of connection points: 4
#     Node 17, Type 1, BuildingBlock: UXUYUI_clean_sbu_0, # of connection points: 4
#     Node 18, Type 1, BuildingBlock: UXUYUI_clean_sbu_0, # of connection points: 4
#     Node 19, Type 1, BuildingBlock: UXUYUI_clean_sbu_0, # of connection points: 4
#     Node 20, Type 1, BuildingBlock: UXUYUI_clean_sbu_0, # of connection points: 4
#     Node 21, Type 1, BuildingBlock: UXUYUI_clean_sbu_0, # of connection points: 4
#     Node 22, Type 1, BuildingBlock: UXUYUI_clean_sbu_0, # of connection points: 4
#     Node 23, Type 1, BuildingBlock: UXUYUI_clean_sbu_0, # of connection points: 4
#     Node 24, Type 1, BuildingBlock: UXUYUI_clean_sbu_0, # of connection points: 4
#     Node 25, Type 1, BuildingBlock: UXUYUI_clean_sbu_0, # of connection points: 4
#     Node 26, Type 1, BuildingBlock: UXUYUI_clean_sbu_0, # of connection points: 4
#     Node 27, Type 1, BuildingBlock: UXUYUI_clean_sbu_0, # of connection points: 4
#     Edge 28, Type (0, 1), BuildingBlock: AJUNOK_clean_linker_0, # of connection points: 2
#     Edge 29, Type (0, 1), BuildingBlock: AJUNOK_clean_linker_0, # of connection points: 2
#     Edge 30, Type (0, 1), BuildingBlock: AJUNOK_clean_linker_0, # of connection points: 2
#     Edge 31, Type (0, 1), BuildingBlock: AJUNOK_clean_linker_0, # of connection points: 2
#     Edge 32, Type (0, 1), BuildingBlock: AJUNOK_clean_linker_0, # of connection points: 2
#     Edge 33, Type (0, 1), BuildingBlock: AJUNOK_clean_linker_0, # of connection points: 2
#     Edge 34, Type (0, 1), BuildingBlock: AJUNOK_clean_linker_0, # of connection points: 2
#     Edge 35, Type (0, 1), BuildingBlock: AJUNOK_clean_linker_0, # of connection points: 2
#     Edge 36, Type (0, 1), BuildingBlock: AJUNOK_clean_linker_0, # of connection points: 2
#     Edge 37, Type (0, 1), BuildingBlock: AJUNOK_clean_linker_0, # of connection points: 2
#     Edge 38, Type (0, 1), BuildingBlock: AJUNOK_clean_linker_0, # of connection points: 2
#     Edge 39, Type (0, 1), BuildingBlock: AJUNOK_clean_linker_0, # of connection points: 2
#     Edge 40, Type (0, 1), BuildingBlock: AJUNOK_clean_linker_0, # of connection points: 2
#     Edge 41, Type (0, 1), BuildingBlock: AJUNOK_clean_linker_0, # of connection points: 2
#     Edge 42, Type (0, 1), BuildingBlock: AJUNOK_clean_linker_0, # of connection points: 2
#     Edge 43, Type (0, 1), BuildingBlock: AJUNOK_clean_linker_0, # of connection points: 2
#     Edge 44, Type (0, 1), BuildingBlock: AJUNOK_clean_linker_0, # of connection points: 2
#     Edge 45, Type (0, 1), BuildingBlock: AJUNOK_clean_linker_0, # of connection points: 2
#     Edge 46, Type (0, 1), BuildingBlock: AJUNOK_clean_linker_0, # of connection points: 2
#     Edge 47, Type (0, 1), BuildingBlock: AJUNOK_clean_linker_0, # of connection points: 2
#     Edge 48, Type (0, 1), BuildingBlock: AJUNOK_clean_linker_0, # of connection points: 2
#     Edge 49, Type (0, 1), BuildingBlock: AJUNOK_clean_linker_0, # of connection points: 2
#     Edge 50, Type (0, 1), BuildingBlock: AJUNOK_clean_linker_0, # of connection points: 2
#     Edge 51, Type (0, 1), BuildingBlock: AJUNOK_clean_linker_0, # of connection points: 2
#     Edge 52, Type (0, 1), BuildingBlock: AJUNOK_clean_linker_0, # of connection points: 2
#     Edge 53, Type (0, 1), BuildingBlock: AJUNOK_clean_linker_0, # of connection points: 2
#     Edge 54, Type (0, 1), BuildingBlock: AJUNOK_clean_linker_0, # of connection points: 2
#     Edge 55, Type (0, 1), BuildingBlock: AJUNOK_clean_linker_0, # of connection points: 2
#     Edge 56, Type (0, 1), BuildingBlock: AJUNOK_clean_linker_0, # of connection points: 2
#     Edge 57, Type (0, 1), BuildingBlock: AJUNOK_clean_linker_0, # of connection points: 2
#     Edge 58, Type (0, 1), BuildingBlock: AJUNOK_clean_linker_0, # of connection points: 2
#     Edge 59, Type (0, 1), BuildingBlock: AJUNOK_clean_linker_0, # of connection points: 2
#     Edge 60, Type (0, 1), BuildingBlock: AJUNOK_clean_linker_0, # of connection points: 2
#     Edge 61, Type (0, 1), BuildingBlock: AJUNOK_clean_linker_0, # of connection points: 2
#     Edge 62, Type (0, 1), BuildingBlock: AJUNOK_clean_linker_0, # of connection points: 2
#     Edge 63, Type (0, 1), BuildingBlock: AJUNOK_clean_linker_0, # of connection points: 2
#     Edge 64, Type (0, 1), BuildingBlock: AJUNOK_clean_linker_0, # of connection points: 2
#     Edge 65, Type (0, 1), BuildingBlock: AJUNOK_clean_linker_0, # of connection points: 2
#     Edge 66, Type (0, 1), BuildingBlock: AJUNOK_clean_linker_0, # of connection points: 2
#     Edge 67, Type (0, 1), BuildingBlock: AJUNOK_clean_linker_0, # of connection points: 2
#     Edge 68, Type (0, 1), BuildingBlock: AJUNOK_clean_linker_0, # of connection points: 2
#     Edge 69, Type (0, 1), BuildingBlock: AJUNOK_clean_linker_0, # of connection points: 2
#     Edge 70, Type (0, 1), BuildingBlock: AJUNOK_clean_linker_0, # of connection points: 2
#     Edge 71, Type (0, 1), BuildingBlock: AJUNOK_clean_linker_0, # of connection points: 2
#     Edge 72, Type (0, 1), BuildingBlock: AJUNOK_clean_linker_0, # of connection points: 2
#     Edge 73, Type (0, 1), BuildingBlock: AJUNOK_clean_linker_0, # of connection points: 2
#     Edge 74, Type (0, 1), BuildingBlock: AJUNOK_clean_linker_0, # of connection points: 2
#     Edge 75, Type (0, 1), BuildingBlock: AJUNOK_clean_linker_0, # of connection points: 2
# Relax obj value: 0.000
# Max RMSD: 0.005
# Mean RMSD: 0.004
data_MOF--net-ctn--node1-UXUYUI_clean_sbu_0--node2-KAKCAD_clean_linker_0--edge1-AJUNOK_clean_linker_0
_symmetry_space_group_name_H-M    P1
_symmetry_Int_Tables_number       1
_symmetry_cell_setting            triclinic
loop_
_symmetry_equiv_pos_as_xyz
'x, y, z'
_cell_length_a     65.765547
_cell_length_b     65.683589
_cell_length_c     65.630251
_cell_angle_alpha  90.131067
_cell_angle_beta   90.301533
_cell_angle_gamma 90.222347
loop_
_atom_site_label
_atom_site_type_symbol
_atom_site_fract_x
_atom_site_fract_y
_atom_site_fract_z
_atom_type_partial_charge
C0 C 0.0449 0.09991 0.98889 0.0
C1 C 0.03795 0.11862 0.99653 0.0
C2 C 0.04785 0.08333 1.00189 0.0
C3 C 0.044 0.08506 0.0229 0.0
C4 C 0.03704 0.10382 0.03052 0.0
C5 C 0.03393 0.12034 0.01748 0.0
C6 C 0.04698 0.06728 0.03669 0.0
C7 C 0.06331 0.05382 0.0337 0.0
C8 C 0.06591 0.03663 0.04619 0.0
C9 C 0.05196 0.03308 0.06197 0.0
C10 C 0.03583 0.04656 0.06548 0.0
C11 C 0.03341 0.06356 0.05278 0.0
C12 C 0.02155 0.04289 0.08252 0.0
C13 C 0.01255 0.02367 0.08519 0.0
C14 C 0.01704 0.05854 0.09637 0.0
C15 C 1.00407 0.05493 0.11281 0.0
C16 C 0.99517 0.03564 0.11563 0.0
C17 C 0.08323 0.02245 0.04283 0.0
C18 C 0.08938 0.0173 0.02296 0.0
C19 C 0.09376 0.01394 0.05945 0.0
C20 C 0.10988 1.0005 0.0563 0.0
C21 C 0.11589 0.99531 0.03647 0.0
C22 C 0.10559 1.00396 0.01983 0.0
C23 C 0.99933 0.02014 0.10144 0.0
H24 H 0.04814 0.09809 0.97283 0.0
H25 H 0.05288 0.06907 0.99538 0.0
H26 H 0.03408 0.10581 0.04661 0.0
H27 H 0.02812 0.1344 0.02379 0.0
H28 H 0.0743 0.05698 0.02188 0.0
H29 H 0.02057 0.07357 0.05515 0.0
H30 H 0.05366 0.01984 0.07163 0.0
H31 H 0.01553 0.01142 0.07454 0.0
H32 H 0.02388 0.07347 0.09472 0.0
H33 H 1.00123 0.06718 0.12348 0.0
H34 H 0.08147 0.02335 0.0098 0.0
H35 H 0.08973 0.01786 0.07495 0.0
H36 H 0.99221 1.00531 0.10274 0.0
H37 H 0.1099 1.00014 1.00438 0.0
H38 H 0.11784 0.99435 0.0694 0.0
C39 C 0.35616 0.74992 0.26373 0.0
C40 C 0.36719 0.73348 0.27172 0.0
C41 C 0.33951 0.74651 0.25081 0.0
C42 C 0.33355 0.72657 0.24554 0.0
C43 C 0.34463 0.71014 0.25361 0.0
C44 C 0.3612 0.71356 0.26663 0.0
C45 C 0.31584 0.72292 0.23172 0.0
C46 C 0.31243 0.73559 0.21481 0.0
C47 C 0.29574 0.73235 0.20171 0.0
C48 C 0.28254 0.7159 0.20553 0.0
C49 C 0.28573 0.70292 0.22225 0.0
C50 C 0.30232 0.70671 0.23535 0.0
C51 C 0.27183 0.68534 0.22599 0.0
C52 C 0.25076 0.68705 0.22263 0.0
C53 C 0.27958 0.6666 0.23282 0.0
C54 C 0.26663 0.65002 0.23612 0.0
C55 C 0.24563 0.65166 0.23243 0.0
C56 C 0.29207 0.74617 0.1841 0.0
C57 C 0.29528 0.76729 0.18604 0.0
C58 C 0.2852 0.73843 0.16525 0.0
C59 C 0.28147 0.75149 0.14886 0.0
C60 C 0.2846 0.77255 0.15091 0.0
C61 C 0.29169 0.78031 0.1696 0.0
C62 C 0.23783 0.67041 0.22579 0.0
H63 H 0.36023 0.76542 0.26774 0.0
H64 H 0.33112 0.75952 0.24521 0.0
H65 H 0.34068 0.6946 0.24967 0.0
H66 H 0.36951 0.70063 0.27254 0.0
H67 H 0.32309 0.74776 0.21156 0.0
H68 H 0.30447 0.69726 0.24868 0.0
H69 H 0.26974 0.71318 0.19542 0.0
H70 H 0.24418 0.70132 0.21771 0.0
H71 H 0.29573 0.66462 0.23541 0.0
H72 H 0.27307 0.63593 0.2417 0.0
H73 H 0.30028 0.77384 0.20038 0.0
H74 H 0.28294 0.72223 0.16306 0.0
H75 H 0.22171 0.67216 0.22284 0.0
H76 H 0.29413 0.79651 0.17158 0.0
H77 H 0.27637 0.74508 0.13448 0.0
C78 C 1.00074 0.48544 0.11978 0.0
C79 C 0.02162 0.48125 0.11826 0.0
C80 C 0.98772 0.48213 0.10319 0.0
C81 C 0.99529 0.47477 0.08457 0.0
C82 C 0.01624 0.47086 0.08299 0.0
C83 C 0.02924 0.47403 0.09964 0.0
C84 C 0.98136 0.4711 0.06692 0.0
C85 C 0.96522 0.4845 0.06284 0.0
C86 C 0.95168 0.48097 0.04652 0.0
C87 C 0.95481 0.4639 0.03391 0.0
C88 C 0.97113 0.45057 0.03741 0.0
C89 C 0.98414 0.45417 0.0541 0.0
C90 C 0.97483 0.43306 0.02345 0.0
C91 C 0.95855 0.42139 0.01567 0.0
C92 C 0.99474 0.42806 0.01756 0.0
C93 C 0.99827 0.41194 1.00413 0.0
C94 C 0.98198 0.40051 0.99612 0.0
C95 C 0.93439 0.49515 0.04262 0.0
C96 C 0.92402 0.50435 0.05892 0.0
C97 C 0.92803 0.49958 0.02261 0.0
C98 C 0.91174 0.51274 0.01902 0.0
C99 C 0.90166 0.5222 0.03532 0.0
C100 C 0.90796 0.51777 0.05531 0.0
C101 C 0.9621 0.40528 1.00218 0.0
H102 H 0.99447 0.49145 0.13377 0.0
H103 H 0.97166 0.48514 0.10505 0.0
H104 H 0.02269 0.46551 0.06881 0.0
H105 H 0.04526 0.47068 0.09798 0.0
H106 H 0.96349 0.49801 0.07216 0.0
H107 H 0.99624 0.4435 0.05736 0.0
H108 H 0.94459 0.46102 0.02124 0.0
H109 H 0.94305 0.42461 0.02011 0.0
H110 H 0.00762 0.43681 0.02311 0.0
H111 H 0.0138 0.40834 1.0001 0.0
H112 H 0.92816 0.50105 0.07456 0.0
H113 H 0.9357 0.49303 0.00962 0.0
H114 H 0.94925 0.39669 0.99629 0.0
H115 H 0.90052 0.52477 0.06822 0.0
H116 H 0.90694 0.51534 1.00344 0.0
C117 C 0.71322 0.74923 0.15723 0.0
C118 C 0.73317 0.74403 0.15183 0.0
C119 C 0.70962 0.76246 0.17353 0.0
C120 C 0.72591 0.77066 0.1849 0.0
C121 C 0.74587 0.76521 0.17961 0.0
C122 C 0.74946 0.75205 0.16325 0.0
C123 C 0.72213 0.78492 0.20215 0.0
C124 C 0.70584 0.78158 0.21555 0.0
C125 C 0.70202 0.79505 0.23177 0.0
C126 C 0.71506 0.81186 0.2347 0.0
C127 C 0.73157 0.81541 0.22161 0.0
C128 C 0.7348 0.80194 0.20526 0.0
C129 C 0.74553 0.83306 0.22505 0.0
C130 C 0.73804 0.85195 0.23177 0.0
C131 C 0.76656 0.8311 0.22173 0.0
C132 C 0.77973 0.84754 0.22507 0.0
C133 C 0.77227 0.86628 0.23213 0.0
C134 C 0.68438 0.7916 0.24556 0.0
C135 C 0.66573 0.78433 0.23777 0.0
C136 C 0.68594 0.79566 0.26658 0.0
C137 C 0.66924 0.79279 0.27938 0.0
C138 C 0.65058 0.78571 0.27152 0.0
C139 C 0.64911 0.78128 0.2506 0.0
C140 C 0.75126 0.86834 0.23531 0.0
H141 H 0.70039 0.7433 0.14861 0.0
H142 H 0.69407 0.76651 0.17701 0.0
H143 H 0.75876 0.77091 0.18826 0.0
H144 H 0.76497 0.74795 0.15967 0.0
H145 H 0.69638 0.76817 0.21359 0.0
H146 H 0.74698 0.80495 0.19462 0.0
H147 H 0.71235 0.82223 0.24723 0.0
H148 H 0.72193 0.85417 0.23416 0.0
H149 H 0.77295 0.81677 0.21674 0.0
H150 H 0.79576 0.84559 0.22197 0.0
H151 H 0.66386 0.7812 0.22166 0.0
H152 H 0.70012 0.80092 0.27323 0.0
H153 H 0.74504 0.88259 0.24071 0.0
H154 H 0.63512 0.77532 0.24413 0.0
H155 H 0.67088 0.79631 0.29544 0.0
C156 C 0.9879 0.97555 0.41758 0.0
C157 C 0.99535 0.98293 0.39899 0.0
C158 C 1.00115 0.97186 0.43389 0.0
C159 C 0.02219 0.97527 0.43188 0.0
C160 C 0.02961 0.98237 0.4131 0.0
C161 C 0.01634 0.98621 0.39687 0.0
C162 C 0.03635 0.97156 0.44929 0.0
C163 C 0.0334 0.95489 0.46239 0.0
C164 C 0.04673 0.95133 0.47881 0.0
C165 C 0.06329 0.96457 0.48198 0.0
C166 C 0.06651 0.98134 0.46911 0.0
C167 C 0.0529 0.98474 0.45289 0.0
C168 C 0.08398 0.99541 0.47263 0.0
C169 C 0.08947 1.0015 0.49249 0.0
C170 C 0.09528 1.00294 0.45612 0.0
C171 C 0.11154 0.01634 0.45936 0.0
C172 C 0.11686 0.02256 0.47918 0.0
C173 C 0.04328 0.93386 0.49276 0.0
C174 C 0.02366 0.92951 0.50002 0.0
C175 C 0.05958 0.92158 0.49913 0.0
C176 C 0.05634 0.9054 0.51256 0.0
C177 C 0.03679 0.90129 0.52004 0.0
C178 C 0.02046 0.91341 0.51353 0.0
C179 C 0.10577 0.01488 0.49572 0.0
H180 H 0.97175 0.97296 0.4196 0.0
H181 H 0.99484 0.96667 0.44818 0.0
H182 H 0.04574 0.98476 0.41083 0.0
H183 H 0.0225 0.99154 0.38256 0.0
H184 H 0.02098 0.94436 0.45956 0.0
H185 H 0.05492 0.99802 0.44334 0.0
H186 H 0.07366 0.96184 0.49455 0.0
H187 H 0.08095 0.99619 0.50553 0.0
H188 H 0.09171 0.99826 0.44067 0.0
H189 H 0.12013 0.02166 0.44636 0.0
H190 H 0.01081 0.93876 0.49549 0.0
H191 H 0.07482 0.9244 0.49362 0.0
H192 H 0.10953 0.01948 0.51116 0.0
H193 H 1.00517 0.91036 0.51882 0.0
H194 H 0.06918 0.89624 0.51731 0.0
C195 C 0.15604 0.71145 0.74934 0.0
C196 C 0.15084 0.73133 0.74349 0.0
C197 C 0.17226 0.70805 0.76278 0.0
C198 C 0.18359 0.72448 0.77073 0.0
C199 C 0.17824 0.74438 0.76498 0.0
C200 C 0.16203 0.74776 0.75157 0.0
C201 C 0.20093 0.72094 0.78497 0.0
C202 C 0.21458 0.70489 0.78156 0.0
C203 C 0.23116 0.70161 0.79476 0.0
C204 C 0.23407 0.71478 0.81146 0.0
C205 C 0.22059 0.73094 0.81518 0.0
C206 C 0.20399 0.73375 0.8019 0.0
C207 C 0.22382 0.74492 0.83286 0.0
C208 C 0.2309 0.73748 0.85171 0.0
C209 C 0.21982 0.76588 0.83103 0.0
C210 C 0.22257 0.77899 0.84764 0.0
C211 C 0.22954 0.77148 0.86641 0.0
C212 C 0.24549 0.68451 0.79099 0.0
C213 C 0.23819 0.66535 0.78463 0.0
C214 C 0.26656 0.68716 0.79377 0.0
C215 C 0.27998 0.67108 0.79024 0.0
C216 C 0.27266 0.65201 0.78371 0.0
C217 C 0.25161 0.64929 0.78106 0.0
C218 C 0.23385 0.75065 0.86826 0.0
H219 H 0.14765 0.6985 0.74339 0.0
H220 H 0.17579 0.69255 0.7671 0.0
H221 H 0.18673 0.75738 0.77067 0.0
H222 H 0.15812 0.76328 0.74767 0.0
H223 H 0.21262 0.69526 0.76827 0.0
H224 H 0.19314 0.74573 0.80497 0.0
H225 H 0.2469 0.71245 0.82159 0.0
H226 H 0.23386 0.72142 0.85381 0.0
H227 H 0.21478 0.77226 0.81668 0.0
H228 H 0.21947 0.79506 0.84575 0.0
H229 H 0.22204 0.66267 0.78262 0.0
H230 H 0.27275 0.70174 0.79848 0.0
H231 H 0.23917 0.74451 0.88262 0.0
H232 H 0.24553 0.63475 0.77605 0.0
H233 H 0.29609 0.67354 0.7928 0.0
C234 C 0.9867 0.61748 0.50171 0.0
C235 C 0.98496 0.61498 0.52289 0.0
C236 C 0.98289 0.60118 0.48849 0.0
C237 C 0.97715 0.58202 0.49613 0.0
C238 C 0.97533 0.57957 0.51734 0.0
C239 C 0.97915 0.59589 0.53056 0.0
C240 C 0.97292 0.56474 0.482 0.0
C241 C 0.98537 0.56138 0.46497 0.0
C242 C 0.98136 0.54527 0.45137 0.0
C243 C 0.96453 0.5325 0.45489 0.0
C244 C 0.95203 0.53552 0.47191 0.0
C245 C 0.95636 0.55161 0.48541 0.0
C246 C 0.93439 0.52191 0.47563 0.0
C247 C 0.92031 0.51768 0.46001 0.0
C248 C 0.93151 0.5131 0.49488 0.0
C249 C 0.91488 0.50031 0.49845 0.0
C250 C 0.9005 0.49638 0.48297 0.0
C251 C 0.995 0.54159 0.43372 0.0
C252 C 1.00239 0.55796 0.42209 0.0
C253 C 1.00102 0.52171 0.4286 0.0
C254 C 0.01432 0.51831 0.41241 0.0
C255 C 0.02193 0.5347 0.40099 0.0
C256 C 0.01566 0.55454 0.40586 0.0
C257 C 0.90349 0.50513 0.46366 0.0
H258 H 0.99067 0.63215 0.49534 0.0
H259 H 0.98406 0.60369 0.47223 0.0
H260 H 0.97117 0.56497 0.52375 0.0
H261 H 0.97774 0.59354 0.54682 0.0
H262 H 0.99856 0.57101 0.46262 0.0
H263 H 0.94644 0.55422 0.49828 0.0
H264 H 0.96118 0.52012 0.44444 0.0
H265 H 0.92212 0.52438 0.44505 0.0
H266 H 0.94233 0.51587 0.50709 0.0
H267 H 0.91345 0.49328 0.51329 0.0
H268 H 0.99785 0.57343 0.42547 0.0
H269 H 0.99573 0.50878 0.43734 0.0
H270 H 0.89268 0.50247 0.45143 0.0
H271 H 0.02126 0.56745 0.39727 0.0
H272 H 0.01861 0.50282 0.40876 0.0
C273 C 0.808 0.75316 0.86174 0.0
C274 C 0.78833 0.7469 0.86723 0.0
C275 C 0.81094 0.76599 0.84503 0.0
C276 C 0.79426 0.77285 0.83348 0.0
C277 C 0.7746 0.76644 0.83891 0.0
C278 C 0.77168 0.75353 0.85556 0.0
C279 C 0.79735 0.78668 0.81584 0.0
C280 C 0.81312 0.78313 0.80195 0.0
C281 C 0.8163 0.79619 0.7853 0.0
C282 C 0.80307 0.81277 0.78249 0.0
C283 C 0.78704 0.81653 0.79612 0.0
C284 C 0.78451 0.80346 0.81288 0.0
C285 C 0.77288 0.83398 0.79282 0.0
C286 C 0.77984 0.85245 0.78445 0.0
C287 C 0.75218 0.83228 0.79792 0.0
C288 C 0.73887 0.84852 0.7948 0.0
C289 C 0.74574 0.86676 0.78597 0.0
C290 C 0.83347 0.79256 0.77094 0.0
C291 C 0.85223 0.78505 0.77811 0.0
C292 C 0.83139 0.7968 0.74999 0.0
C293 C 0.84769 0.79394 0.73671 0.0
C294 C 0.86626 0.78644 0.744 0.0
C295 C 0.8684 0.78186 0.76473 0.0
C296 C 0.76642 0.86855 0.78095 0.0
H297 H 0.82113 0.748 0.87028 0.0
H298 H 0.82626 0.77075 0.84131 0.0
H299 H 0.76146 0.77125 0.83016 0.0
H300 H 0.75636 0.7489 0.85946 0.0
H301 H 0.82267 0.76987 0.80392 0.0
H302 H 0.77277 0.80655 0.82396 0.0
H303 H 0.80527 0.8228 0.76963 0.0
H304 H 0.79571 0.85461 0.78071 0.0
H305 H 0.7461 0.8183 0.80418 0.0
H306 H 0.72319 0.84679 0.79947 0.0
H307 H 0.85461 0.78195 0.79414 0.0
H308 H 0.81712 0.80217 0.74375 0.0
H309 H 0.77225 0.8824 0.77416 0.0
H310 H 0.8827 0.77617 0.77063 0.0
H311 H 0.84578 0.79744 0.72069 0.0
C312 C 0.30544 0.25223 0.36116 0.0
C313 C 0.28554 0.24725 0.36703 0.0
C314 C 0.30888 0.26523 0.34468 0.0
C315 C 0.29247 0.27339 0.33357 0.0
C316 C 0.27254 0.2682 0.33938 0.0
C317 C 0.26913 0.2553 0.35595 0.0
C318 C 0.29613 0.28726 0.31601 0.0
C319 C 0.31226 0.28365 0.30251 0.0
C320 C 0.31606 0.29682 0.28608 0.0
C321 C 0.30321 0.31363 0.28307 0.0
C322 C 0.28685 0.31742 0.29624 0.0
C323 C 0.28356 0.30423 0.31275 0.0
C324 C 0.27316 0.33511 0.29273 0.0
C325 C 0.28104 0.354 0.28639 0.0
C326 C 0.25204 0.33319 0.29554 0.0
C327 C 0.23914 0.34969 0.29201 0.0
C328 C 0.24703 0.36843 0.28542 0.0
C329 C 0.33352 0.29308 0.27217 0.0
C330 C 0.35224 0.28611 0.2799 0.0
C331 C 0.33171 0.2966 0.25109 0.0
C332 C 0.34824 0.29349 0.23815 0.0
C333 C 0.36697 0.28673 0.24594 0.0
C334 C 0.36871 0.28285 0.26692 0.0
C335 C 0.26811 0.37046 0.28275 0.0
H336 H 0.31835 0.24627 0.36951 0.0
H337 H 0.32441 0.26911 0.34084 0.0
H338 H 0.25955 0.27387 0.33096 0.0
H339 H 0.25363 0.25138 0.35992 0.0
H340 H 0.32162 0.27027 0.30453 0.0
H341 H 0.27144 0.30747 0.32338 0.0
H342 H 0.30595 0.32382 0.27042 0.0
H343 H 0.29725 0.35615 0.28445 0.0
H344 H 0.2454 0.31881 0.30015 0.0
H345 H 0.22292 0.34771 0.29409 0.0
H346 H 0.35428 0.28339 0.29604 0.0
H347 H 0.31746 0.30163 0.24453 0.0
H348 H 0.27463 0.38487 0.27807 0.0
H349 H 0.38279 0.27718 0.27334 0.0
H350 H 0.34642 0.29658 0.22204 0.0
C351 C 0.50115 0.98642 0.61885 0.0
C352 C 0.52218 0.98333 0.61693 0.0
C353 C 0.48814 0.98347 0.60219 0.0
C354 C 0.49587 0.97753 0.58314 0.0
C355 C 0.51697 0.97472 0.58118 0.0
C356 C 0.52997 0.9776 0.59788 0.0
C357 C 0.48197 0.97435 0.56541 0.0
C358 C 0.46546 0.98749 0.56211 0.0
C359 C 0.45217 0.98456 0.54552 0.0
C360 C 0.45562 0.96832 0.53201 0.0
C361 C 0.47198 0.95492 0.53505 0.0
C362 C 0.48506 0.95808 0.55181 0.0
C363 C 0.47528 0.9375 0.5209 0.0
C364 C 0.45871 0.92601 0.51348 0.0
C365 C 0.49502 0.93213 0.51478 0.0
C366 C 0.4981 0.91572 0.50155 0.0
C367 C 0.48152 0.90439 0.49404 0.0
C368 C 0.43461 0.9984 0.54244 0.0
C369 C 0.42228 1.00396 0.55897 0.0
C370 C 0.43002 1.00614 0.523 0.0
C371 C 0.41348 0.01917 0.52018 0.0
C372 C 0.40107 0.02453 0.53667 0.0
C373 C 0.40566 0.01686 0.55611 0.0
C374 C 0.4618 0.90964 0.50021 0.0
H375 H 0.49474 0.99124 0.63324 0.0
H376 H 0.47197 0.98562 0.60433 0.0
H377 H 0.52349 0.97045 0.56667 0.0
H378 H 0.54613 0.97514 0.59595 0.0
H379 H 0.46316 1.00033 0.57222 0.0
H380 H 0.49734 0.94748 0.55461 0.0
H381 H 0.44545 0.96607 0.51915 0.0
H382 H 0.44334 0.92946 0.51818 0.0
H383 H 0.5081 0.94078 0.52001 0.0
H384 H 0.51346 0.91203 0.49697 0.0
H385 H 0.42535 0.99814 0.5741 0.0
H386 H 0.43937 1.00229 0.51002 0.0
H387 H 0.44877 0.90088 0.49502 0.0
H388 H 0.39648 0.02098 0.56913 0.0
H389 H 0.41026 0.02492 0.50505 0.0
C390 C 0.21187 0.25302 0.65516 0.0
C391 C 0.23153 0.24566 0.65145 0.0
C392 C 0.20829 0.2663 0.67144 0.0
C393 C 0.22437 0.27267 0.68419 0.0
C394 C 0.24407 0.26542 0.68033 0.0
C395 C 0.2476 0.25202 0.66416 0.0
C396 C 0.22063 0.28688 0.70142 0.0
C397 C 0.20393 0.28392 0.71436 0.0
C398 C 0.20035 0.29719 0.7308 0.0
C399 C 0.21377 0.31361 0.73414 0.0
C400 C 0.23058 0.31685 0.72135 0.0
C401 C 0.23382 0.30339 0.70501 0.0
C402 C 0.24477 0.33424 0.72507 0.0
C403 C 0.23739 0.35338 0.73116 0.0
C404 C 0.26586 0.33183 0.72253 0.0
C405 C 0.2792 0.3481 0.72603 0.0
C406 C 0.27182 0.36713 0.73236 0.0
C407 C 0.18271 0.29378 0.74458 0.0
C408 C 0.16378 0.28741 0.7367 0.0
C409 C 0.18467 0.29676 0.76574 0.0
C410 C 0.16812 0.29357 0.77865 0.0
C411 C 0.1492 0.2873 0.77075 0.0
C412 C 0.14726 0.28413 0.74964 0.0
C413 C 0.25076 0.36962 0.73477 0.0
H414 H 0.19923 0.24836 0.64556 0.0
H415 H 0.19299 0.27179 0.6739 0.0
H416 H 0.25674 0.26995 0.68995 0.0
H417 H 0.26295 0.24678 0.66145 0.0
H418 H 0.19404 0.2709 0.71195 0.0
H419 H 0.24641 0.306 0.69473 0.0
H420 H 0.21116 0.32389 0.74677 0.0
H421 H 0.22123 0.3559 0.73295 0.0
H422 H 0.27213 0.31729 0.71803 0.0
H423 H 0.29531 0.34581 0.72362 0.0
H424 H 0.16165 0.28511 0.72049 0.0
H425 H 0.19909 0.30133 0.7724 0.0
H426 H 0.24462 0.38412 0.7396 0.0
H427 H 0.13301 0.27889 0.74312 0.0
H428 H 0.17009 0.29612 0.79486 0.0
C429 C 0.85581 0.24681 0.76423 0.0
C430 C 0.8674 0.23017 0.77092 0.0
C431 C 0.83909 0.24386 0.75129 0.0
C432 C 0.83351 0.22417 0.74483 0.0
C433 C 0.84504 0.20751 0.75168 0.0
C434 C 0.86176 0.21047 0.76461 0.0
C435 C 0.81571 0.22101 0.73104 0.0
C436 C 0.81223 0.23423 0.7146 0.0
C437 C 0.79544 0.23144 0.7015 0.0
C438 C 0.78213 0.21499 0.70497 0.0
C439 C 0.78542 0.20149 0.72126 0.0
C440 C 0.8022 0.20472 0.73425 0.0
C441 C 0.77139 0.18398 0.72473 0.0
C442 C 0.75024 0.18617 0.72229 0.0
C443 C 0.77909 0.16488 0.73054 0.0
C444 C 0.76597 0.14847 0.73403 0.0
C445 C 0.74486 0.15076 0.73176 0.0
C446 C 0.79193 0.24562 0.68413 0.0
C447 C 0.79555 0.26665 0.6864 0.0
C448 C 0.78504 0.2383 0.66513 0.0
C449 C 0.78193 0.25164 0.64883 0.0
C450 C 0.78584 0.27255 0.6511 0.0
C451 C 0.79258 0.27994 0.67006 0.0
C452 C 0.73713 0.16971 0.7257 0.0
H453 H 0.8598 0.26215 0.7689 0.0
H454 H 0.83038 0.25699 0.74653 0.0
H455 H 0.84126 0.19216 0.74688 0.0
H456 H 0.87018 0.19732 0.76982 0.0
H457 H 0.82294 0.24645 0.71168 0.0
H458 H 0.80449 0.19478 0.74721 0.0
H459 H 0.76919 0.21266 0.69495 0.0
H460 H 0.74375 0.20071 0.71808 0.0
H461 H 0.7953 0.16252 0.73217 0.0
H462 H 0.77237 0.1339 0.73828 0.0
H463 H 0.80048 0.2729 0.7009 0.0
H464 H 0.78237 0.22219 0.66271 0.0
H465 H 0.7209 0.17189 0.72391 0.0
H466 H 0.79534 0.29606 0.67231 0.0
H467 H 0.77679 0.24556 0.63433 0.0
C468 C 0.54505 0.59975 0.48794 0.0
C469 C 0.53817 0.6185 0.49555 0.0
C470 C 0.54786 0.58315 0.50096 0.0
C471 C 0.54395 0.58491 0.52195 0.0
C472 C 0.53691 0.60367 0.52951 0.0
C473 C 0.53392 0.62019 0.51645 0.0
C474 C 0.54734 0.56735 0.53594 0.0
C475 C 0.5639 0.55417 0.53301 0.0
C476 C 0.56742 0.53785 0.54633 0.0
C477 C 0.5542 0.53467 0.56275 0.0
C478 C 0.53745 0.54749 0.56586 0.0
C479 C 0.53414 0.56378 0.55239 0.0
C480 C 0.52338 0.54378 0.58314 0.0
C481 C 0.51678 0.52393 0.5877 0.0
C482 C 0.51654 0.56002 0.59528 0.0
C483 C 0.50362 0.55643 0.61176 0.0
C484 C 0.49723 0.53655 0.61646 0.0
C485 C 0.58494 0.52409 0.54314 0.0
C486 C 0.58823 0.51505 0.52404 0.0
C487 C 0.59836 0.51975 0.55925 0.0
C488 C 0.61472 0.50655 0.55634 0.0
C489 C 0.61775 0.49702 0.53737 0.0
C490 C 0.60439 0.50157 0.52121 0.0
C491 C 0.50378 0.52037 0.6041 0.0
H492 H 0.54843 0.59794 0.4719 0.0
H493 H 0.55295 0.56888 0.49449 0.0
H494 H 0.53392 0.60571 0.54559 0.0
H495 H 0.52812 0.63426 0.52273 0.0
H496 H 0.57447 0.55688 0.52069 0.0
H497 H 0.52096 0.57338 0.55448 0.0
H498 H 0.55698 0.52214 0.5731 0.0
H499 H 0.52147 0.51115 0.57841 0.0
H500 H 0.52149 0.57546 0.59226 0.0
H501 H 0.49884 0.5692 0.62103 0.0
H502 H 0.57803 0.51809 0.5114 0.0
H503 H 0.59633 0.52678 0.57405 0.0
H504 H 0.49867 0.50495 0.60698 0.0
H505 H 0.60625 0.49447 0.50643 0.0
H506 H 0.6251 0.50397 0.56892 0.0
C507 C 0.48831 0.47394 0.91718 0.0
C508 C 0.49583 0.48042 0.89826 0.0
C509 C 0.50148 0.47089 0.93369 0.0
C510 C 0.52254 0.47417 0.93166 0.0
C511 C 0.53002 0.48071 0.9127 0.0
C512 C 0.51682 0.48395 0.89628 0.0
C513 C 0.53664 0.47087 0.94922 0.0
C514 C 0.5334 0.45474 0.96294 0.0
C515 C 0.5468 0.45143 0.97932 0.0
C516 C 0.56355 0.46447 0.9821 0.0
C517 C 0.56699 0.48072 0.96868 0.0
C518 C 0.55351 0.4838 0.95231 0.0
C519 C 0.58459 0.49459 0.9718 0.0
C520 C 0.58854 0.50319 0.99103 0.0
C521 C 0.59748 0.49941 0.95549 0.0
C522 C 0.61397 0.51263 0.95835 0.0
C523 C 0.61768 0.52165 0.97748 0.0
C524 C 0.54342 0.43421 0.99347 0.0
C525 C 0.52448 0.43146 1.00287 0.0
C526 C 0.55915 0.42043 0.99767 0.0
C527 C 0.55601 0.40419 0.01104 0.0
C528 C 0.53722 0.40167 0.02089 0.0
C529 C 0.52145 0.41544 0.01654 0.0
C530 C 0.60486 0.51665 0.99382 0.0
H531 H 0.47221 0.4711 0.9192 0.0
H532 H 0.49509 0.46619 0.94811 0.0
H533 H 0.54613 0.48319 0.91045 0.0
H534 H 0.52306 0.48942 0.88206 0.0
H535 H 0.52077 0.44434 0.96058 0.0
H536 H 0.55594 0.49664 0.94227 0.0
H537 H 0.57393 0.46196 0.99473 0.0
H538 H 0.57876 0.49982 1.00383 0.0
H539 H 0.59495 0.49273 0.94058 0.0
H540 H 0.62392 0.51562 0.9456 0.0
H541 H 0.51214 0.44195 0.99992 0.0
H542 H 0.57379 0.42205 0.99035 0.0
H543 H 0.60727 0.52339 0.00873 0.0
H544 H 0.50682 0.41398 0.0239 0.0
H545 H 0.56826 0.39348 0.01345 0.0
C546 C 0.65367 0.21188 0.25389 0.0
C547 C 0.64997 0.2313 0.24572 0.0
C548 C 0.67013 0.20865 0.26703 0.0
C549 C 0.68305 0.22484 0.27259 0.0
C550 C 0.67913 0.24434 0.26479 0.0
C551 C 0.66281 0.24752 0.25144 0.0
C552 C 0.70061 0.22135 0.28643 0.0
C553 C 0.71376 0.20491 0.28305 0.0
C554 C 0.73048 0.20141 0.296 0.0
C555 C 0.73387 0.21468 0.31256 0.0
C556 C 0.72084 0.23123 0.31624 0.0
C557 C 0.70426 0.23442 0.30302 0.0
C558 C 0.72443 0.24506 0.33396 0.0
C559 C 0.73118 0.23732 0.35279 0.0
C560 C 0.7211 0.26614 0.33223 0.0
C561 C 0.72425 0.27908 0.3489 0.0
C562 C 0.73088 0.27129 0.36772 0.0
C563 C 0.74442 0.18398 0.29216 0.0
C564 C 0.73671 0.1651 0.28539 0.0
C565 C 0.76554 0.18606 0.29514 0.0
C566 C 0.77858 0.16971 0.29144 0.0
C567 C 0.77084 0.15101 0.28444 0.0
C568 C 0.74978 0.14882 0.28152 0.0
C569 C 0.73449 0.25029 0.36941 0.0
H570 H 0.64371 0.19919 0.25031 0.0
H571 H 0.67261 0.19352 0.27309 0.0
H572 H 0.68893 0.25707 0.26873 0.0
H573 H 0.6604 0.26265 0.24537 0.0
H574 H 0.71123 0.19514 0.26994 0.0
H575 H 0.69379 0.24679 0.30591 0.0
H576 H 0.7467 0.2121 0.32262 0.0
H577 H 0.73371 0.22116 0.3548 0.0
H578 H 0.71622 0.27272 0.31791 0.0
H579 H 0.72134 0.2952 0.34711 0.0
H580 H 0.72052 0.16279 0.2833 0.0
H581 H 0.77208 0.20043 0.30003 0.0
H582 H 0.74004 0.24386 0.38355 0.0
H583 H 0.74341 0.13443 0.27647 0.0
H584 H 0.79479 0.17179 0.29372 0.0
C585 C 0.48118 0.12143 1.00065 0.0
C586 C 0.47873 0.11909 0.02175 0.0
C587 C 0.47816 0.10492 0.98747 0.0
C588 C 0.47276 0.08566 0.99513 0.0
C589 C 0.47054 0.08333 0.01631 0.0
C590 C 0.47349 0.09986 0.02946 0.0
C591 C 0.46945 0.06809 0.9811 0.0
C592 C 0.48217 0.06515 0.9642 0.0
C593 C 0.47917 0.04857 0.95094 0.0
C594 C 0.46311 0.03492 0.95455 0.0
C595 C 0.4502 0.03765 0.9713 0.0
C596 C 0.45352 0.05418 0.98454 0.0
C597 C 0.43306 0.0234 0.97487 0.0
C598 C 0.4194 0.01854 0.95906 0.0
C599 C 0.43014 0.01473 0.99418 0.0
C600 C 0.41384 1.00148 0.99763 0.0
C601 C 0.39984 0.99696 0.98196 0.0
C602 C 0.49301 0.04542 0.93346 0.0
C603 C 0.49757 0.06154 0.92022 0.0
C604 C 0.50192 0.02632 0.93006 0.0
C605 C 0.51542 0.0235 0.91391 0.0
C606 C 0.52014 0.03966 0.9007 0.0
C607 C 0.51082 0.05864 0.90388 0.0
C608 C 0.4029 1.00554 0.9626 0.0
H609 H 0.48514 0.13613 0.99431 0.0
H610 H 0.47974 0.10734 0.97124 0.0
H611 H 0.46678 0.06864 0.02277 0.0
H612 H 0.47191 0.09754 0.04572 0.0
H613 H 0.49481 0.07545 0.96162 0.0
H614 H 0.44329 0.0565 0.99722 0.0
H615 H 0.46067 0.02215 0.94432 0.0
H616 H 0.42125 0.02512 0.94406 0.0
H617 H 0.44064 0.01801 1.00654 0.0
H618 H 0.41235 0.99461 0.01253 0.0
H619 H 0.49067 0.07633 0.92234 0.0
H620 H 0.49876 0.01367 0.94014 0.0
H621 H 0.39237 1.00243 0.95022 0.0
H622 H 0.51359 0.07123 0.89363 0.0
H623 H 0.52238 0.00871 0.91193 0.0
Li624 Li 0.27646 0.89706 1.00492 0.0
Li625 Li 0.26129 0.87172 0.0274 0.0
Li626 Li 0.25478 0.87062 0.99001 0.0
Li627 Li 0.23937 0.89735 0.01149 0.0
C628 C 0.29954 0.86186 0.0131 0.0
N629 N 0.33651 0.85125 0.0301 0.0
C630 C 0.30743 0.87291 0.02958 0.0
C631 C 0.31043 0.8454 1.00528 0.0
C632 C 0.32615 0.86731 0.03796 0.0
C633 C 0.32911 0.84029 0.01408 0.0
C634 C 0.25994 0.9092 0.05006 0.0
C635 C 0.2398 0.91388 0.08028 0.0
N636 N 0.25555 0.92411 0.08916 0.0
C637 C 0.27588 0.91987 0.05941 0.0
C638 C 0.24172 0.90625 0.06051 0.0
C639 C 0.27339 0.92725 0.07922 0.0
C640 C 0.29641 0.93469 1.00438 0.0
N641 N 0.29917 0.91459 1.00041 0.0
C642 C 0.33357 0.92076 0.99051 0.0
C643 C 0.31718 0.90748 0.99327 0.0
C644 C 0.33132 0.94161 0.99481 0.0
C645 C 0.31229 0.94856 1.00151 0.0
H646 H 0.28179 0.93995 0.00969 0.0
H647 H 0.31888 0.89151 0.98974 0.0
C648 C 0.25958 0.83481 0.04842 0.0
N649 N 0.26515 0.85464 0.05063 0.0
C650 C 0.26221 0.82111 0.06446 0.0
C651 C 0.27642 0.84846 0.08476 0.0
C652 C 0.27361 0.8616 0.06829 0.0
C653 C 0.27059 0.82793 0.08301 0.0
H654 H 0.25321 0.82961 0.03409 0.0
H655 H 0.27841 0.87727 0.0696 0.0
C656 C 0.26168 0.9054 0.9663 0.0
N657 N 0.27811 0.91533 0.92896 0.0
C658 C 0.2537 0.92156 0.95504 0.0
C659 C 0.27805 0.89431 0.95861 0.0
C660 C 0.26221 0.92634 0.93618 0.0
C661 C 0.28614 0.89957 0.93969 0.0
C662 C 0.21745 0.85894 0.0179 0.0
C663 C 0.20457 0.85104 1.00282 0.0
C664 C 0.21179 0.85776 0.03836 0.0
C665 C 0.18601 0.84236 0.00845 0.0
C666 C 0.19311 0.84895 0.04337 0.0
N667 N 0.1807 0.84152 0.02844 0.0
C668 C 0.25654 0.83343 0.96868 0.0
C669 C 0.23961 0.85981 0.95086 0.0
C670 C 0.253 0.81989 0.95257 0.0
N671 N 0.24985 0.85295 0.96751 0.0
C672 C 0.23595 0.84686 0.93432 0.0
C673 C 0.24251 0.82653 0.93511 0.0
H674 H 0.26452 0.82838 0.98219 0.0
H675 H 0.23432 0.87536 0.95039 0.0
C676 C 0.21992 0.93397 0.0217 0.0
N677 N 0.21632 0.91456 0.01536 0.0
C678 C 0.20374 0.94724 0.02523 0.0
C679 C 0.18045 0.92039 0.01536 0.0
C680 C 0.19707 0.90769 0.0119 0.0
C681 C 0.1837 0.94038 0.02227 0.0
H682 H 0.23539 0.93911 0.02413 0.0
H683 H 0.19456 0.89241 1.00637 0.0
O684 O 0.28115 0.86689 1.00473 0.0
O685 O 0.26223 0.90185 0.03071 0.0
O686 O 0.2536 0.9007 0.98488 0.0
O687 O 0.2357 0.86739 0.01262 0.0
H688 H 0.29924 0.88571 0.03581 0.0
H689 H 0.30449 0.83668 0.99254 0.0
H690 H 0.33243 0.87574 0.05072 0.0
H691 H 0.33771 0.82759 0.00818 0.0
H692 H 0.22578 0.9117 0.08856 0.0
H693 H 0.29007 0.92234 0.05147 0.0
H694 H 0.22914 0.89829 0.05338 0.0
H695 H 0.28562 0.93546 0.08669 0.0
H696 H 0.34792 0.91473 0.98524 0.0
H697 H 0.3096 0.96457 1.0043 0.0
H698 H 0.25803 0.80529 0.06225 0.0
H699 H 0.28301 0.85432 0.09876 0.0
H700 H 0.24107 0.93032 0.96085 0.0
H701 H 0.28446 0.88179 0.96712 0.0
H702 H 0.25618 0.9388 0.92728 0.0
H703 H 0.2988 0.89112 0.93355 0.0
H704 H 0.20881 0.85172 0.98692 0.0
H705 H 0.22175 0.8634 0.05026 0.0
H706 H 0.17582 0.83628 0.99694 0.0
H707 H 0.18851 0.84796 0.05914 0.0
H708 H 0.25823 0.80432 0.95386 0.0
H709 H 0.22825 0.85279 0.92099 0.0
H710 H 0.20684 0.96259 0.03048 0.0
H711 H 0.16522 0.91471 0.01247 0.0
Li712 Li 0.12088 0.51214 0.27755 0.0
Li713 Li 0.14763 0.49109 0.26157 0.0
Li714 Li 0.1467 0.52801 0.25643 0.0
Li715 Li 0.12137 0.50669 0.24149 0.0
C716 C 0.1572 0.5048 0.3003 0.0
N717 N 0.16997 0.48754 0.33649 0.0
C718 C 0.14679 0.48807 0.30835 0.0
C719 C 0.17412 0.5127 0.3106 0.0
C720 C 0.15348 0.47958 0.32668 0.0
C721 C 0.18032 0.50378 0.3289 0.0
C722 C 0.10782 0.47101 0.25238 0.0
C723 C 0.10735 0.44472 0.22665 0.0
N724 N 0.08692 0.44269 0.22905 0.0
C725 C 0.08683 0.46859 0.25467 0.0
C726 C 0.11819 0.45896 0.23829 0.0
C727 C 0.07653 0.45422 0.2427 0.0
C728 C 0.08347 0.51295 0.29811 0.0
N729 N 0.10375 0.51614 0.30075 0.0
C730 C 0.09854 0.52575 0.33551 0.0
C731 C 0.11139 0.52281 0.31889 0.0
C732 C 0.0776 0.522 0.33337 0.0
C733 C 0.07005 0.51575 0.3143 0.0
H734 H 0.0777 0.50841 0.28334 0.0
H735 H 0.12742 0.52611 0.32047 0.0
C736 C 0.18532 0.4711 0.26072 0.0
N737 N 0.16536 0.4686 0.26535 0.0
C738 C 0.19901 0.45514 0.2636 0.0
C739 C 0.17132 0.43436 0.27602 0.0
C740 C 0.15819 0.45075 0.27299 0.0
C741 C 0.19202 0.4364 0.2712 0.0
H742 H 0.19061 0.48559 0.25493 0.0
H743 H 0.14226 0.44927 0.27676 0.0
C744 C 0.1123 0.55093 0.26487 0.0
N745 N 0.10308 0.58769 0.2831 0.0
C746 C 0.09624 0.56269 0.25745 0.0
C747 C 0.12367 0.55786 0.28158 0.0
C748 C 0.09182 0.58124 0.26687 0.0
C749 C 0.11877 0.57649 0.29058 0.0
C750 C 0.1557 0.51506 0.21759 0.0
C751 C 0.14406 0.53118 0.21008 0.0
C752 C 0.1724 0.50815 0.20651 0.0
C753 C 0.14933 0.54011 0.19154 0.0
C754 C 0.17717 0.51748 0.18802 0.0
N755 N 0.16564 0.53313 0.18098 0.0
C756 C 0.18378 0.54917 0.25828 0.0
C757 C 0.15693 0.56851 0.24394 0.0
C758 C 0.19746 0.56518 0.2552 0.0
N759 N 0.16397 0.5511 0.25264 0.0
C760 C 0.17005 0.58496 0.24074 0.0
C761 C 0.19062 0.58332 0.24625 0.0
H762 H 0.18897 0.53508 0.26502 0.0
H763 H 0.1412 0.56957 0.23925 0.0
C764 C 0.08427 0.50891 0.22012 0.0
N765 N 0.10386 0.50262 0.21848 0.0
C766 C 0.07051 0.50554 0.20418 0.0
C767 C 0.09742 0.4896 0.18501 0.0
C768 C 0.11062 0.49309 0.20139 0.0
C769 C 0.07706 0.49571 0.18639 0.0
H770 H 0.07931 0.51633 0.23396 0.0
H771 H 0.12619 0.48793 0.2006 0.0
O772 O 0.15116 0.51323 0.28223 0.0
O773 O 0.11811 0.48552 0.26338 0.0
O774 O 0.11663 0.5327 0.25578 0.0
O775 O 0.15103 0.50615 0.2358 0.0
H776 H 0.13367 0.48174 0.30059 0.0
H777 H 0.18237 0.5256 0.30451 0.0
H778 H 0.14557 0.46665 0.3331 0.0
H779 H 0.19339 0.50974 0.33706 0.0
H780 H 0.11516 0.4354 0.21559 0.0
H781 H 0.07853 0.47776 0.26545 0.0
H782 H 0.13437 0.46086 0.23604 0.0
H783 H 0.06027 0.45226 0.24424 0.0
H784 H 0.10486 0.5312 0.34979 0.0
H785 H 0.05397 0.51292 0.31199 0.0
H786 H 0.21493 0.45753 0.26019 0.0
H787 H 0.16532 0.42019 0.28192 0.0
H788 H 0.08728 0.55752 0.24454 0.0
H789 H 0.13618 0.54904 0.28754 0.0
H790 H 0.07943 0.5905 0.26128 0.0
H791 H 0.12744 0.58203 0.30351 0.0
H792 H 0.1311 0.53677 0.21844 0.0
H793 H 0.18158 0.49572 0.21216 0.0
H794 H 0.14046 0.55259 0.18555 0.0
H795 H 0.19006 0.51229 0.17928 0.0
H796 H 0.21319 0.56345 0.25984 0.0
H797 H 0.16428 0.59867 0.23368 0.0
H798 H 0.05494 0.51065 0.20569 0.0
H799 H 0.10296 0.48186 0.17155 0.0
Li800 Li 0.74069 0.62191 1.0043 0.0
Li801 Li 0.75537 0.64606 0.0272 0.0
Li802 Li 0.76236 0.64867 0.99038 0.0
Li803 Li 0.77689 0.6196 0.01247 0.0
C804 C 0.71929 0.66132 0.99868 0.0
N805 N 0.68415 0.68081 0.98637 0.0
C806 C 0.70534 0.66819 0.01314 0.0
C807 C 0.71545 0.66458 0.97797 0.0
C808 C 0.68764 0.67794 1.0066 0.0
C809 C 0.69757 0.67441 0.97206 0.0
C810 C 0.74009 0.61049 0.04561 0.0
C811 C 0.73093 0.59002 0.07462 0.0
N812 N 0.71243 0.5992 0.07506 0.0
C813 C 0.72099 0.61968 0.04631 0.0
C814 C 0.74512 0.59551 0.05982 0.0
C815 C 0.70721 0.61378 0.06132 0.0
C816 C 0.7202 0.58439 1.00181 0.0
N817 N 0.71747 0.60471 0.99899 0.0
C818 C 0.68281 0.59906 0.98918 0.0
C819 C 0.69916 0.61219 0.99292 0.0
C820 C 0.68536 0.57795 0.99138 0.0
C821 C 0.70434 0.57067 0.99796 0.0
H822 H 0.73481 0.57883 1.00693 0.0
H823 H 0.69706 0.62831 0.99104 0.0
C824 C 0.74627 0.68264 0.04707 0.0
N825 N 0.75123 0.66288 0.05059 0.0
C826 C 0.74361 0.69609 0.06331 0.0
C827 C 0.75105 0.6686 0.08658 0.0
C828 C 0.7537 0.65568 0.06986 0.0
C829 C 0.74609 0.68912 0.08336 0.0
H830 H 0.74456 0.68796 0.03157 0.0
H831 H 0.75798 0.63999 0.07225 0.0
C832 C 0.75589 0.60524 0.97103 0.0
N833 N 0.73867 0.57767 0.9441 0.0
C834 C 0.76163 0.58478 0.97155 0.0
C835 C 0.74161 0.61172 0.95662 0.0
C836 C 0.7527 0.57106 0.95784 0.0
C837 C 0.733 0.59754 0.9432 0.0
C838 C 0.79164 0.66214 0.02737 0.0
C839 C 0.79243 0.68312 0.02393 0.0
C840 C 0.79955 0.65418 0.04547 0.0
C841 C 0.80098 0.69584 0.03879 0.0
C842 C 0.80799 0.66741 0.05994 0.0
N843 N 0.8085 0.68779 0.05634 0.0
C844 C 0.76344 0.68668 0.97057 0.0
C845 C 0.77481 0.65891 0.95053 0.0
C846 C 0.76695 0.70016 0.95453 0.0
N847 N 0.76747 0.66652 0.96829 0.0
C848 C 0.77845 0.67184 0.93406 0.0
C849 C 0.77465 0.69278 0.93603 0.0
H850 H 0.75735 0.69222 0.98481 0.0
H851 H 0.77782 0.64279 0.94916 0.0
C852 C 0.79642 0.58203 0.0196 0.0
N853 N 0.79958 0.60226 0.01661 0.0
C854 C 0.81291 0.56893 0.0223 0.0
C855 C 0.83554 0.59788 0.01959 0.0
C856 C 0.81863 0.61035 0.01659 0.0
C857 C 0.83284 0.57679 0.02218 0.0
H858 H 0.78107 0.57606 0.01973 0.0
H859 H 0.82069 0.62653 0.01434 0.0
O860 O 0.73677 0.65185 1.00482 0.0
O861 O 0.75386 0.61599 0.03106 0.0
O862 O 0.76404 0.6188 0.98469 0.0
O863 O 0.78263 0.64951 0.01339 0.0
H864 H 0.70813 0.66604 0.02925 0.0
H865 H 0.7261 0.65958 0.96656 0.0
H866 H 0.67669 0.68327 0.01763 0.0
H867 H 0.69439 0.67696 0.95608 0.0
H868 H 0.73462 0.57847 0.08574 0.0
H869 H 0.71683 0.63116 0.03534 0.0
H870 H 0.75986 0.58823 0.05943 0.0
H871 H 0.69237 0.62077 0.06204 0.0
H872 H 0.66827 0.60543 0.98483 0.0
H873 H 0.70697 0.55453 0.99992 0.0
H874 H 0.73951 0.71174 0.06023 0.0
H875 H 0.75317 0.66272 0.10185 0.0
H876 H 0.77275 0.57952 0.9825 0.0
H877 H 0.7371 0.6275 0.95593 0.0
H878 H 0.7569 0.55516 0.95816 0.0
H879 H 0.72181 0.60233 0.93209 0.0
H880 H 0.78632 0.68952 0.01003 0.0
H881 H 0.79886 0.63799 0.04845 0.0
H882 H 0.80158 0.71212 0.03639 0.0
H883 H 0.81403 0.66148 0.07409 0.0
H884 H 0.76344 0.71614 0.95648 0.0
H885 H 0.78439 0.6656 0.92001 0.0
H886 H 0.81011 0.5528 0.02426 0.0
H887 H 0.85052 0.60474 0.02007 0.0
Li888 Li 0.86993 0.0281 0.26013 0.0
Li889 Li 0.89578 1.0072 0.27555 0.0
Li890 Li 0.89566 0.01291 0.23895 0.0
Li891 Li 0.87003 0.99153 0.25438 0.0
C892 C 0.90447 0.0517 0.25245 0.0
N893 N 0.91415 0.08874 0.23507 0.0
C894 C 0.92054 0.06333 0.26027 0.0
C895 C 0.89332 0.05888 0.23577 0.0
C896 C 0.9252 0.08203 0.25129 0.0
C897 C 0.89845 0.07765 0.2272 0.0
C898 C 0.8611 0.01469 0.29885 0.0
C899 C 0.83979 0.0162 0.3286 0.0
N900 N 0.85104 0.03212 0.33578 0.0
C901 C 0.87245 0.03107 0.30651 0.0
C902 C 0.84464 1.00719 0.30995 0.0
C903 C 0.86712 0.03967 0.32521 0.0
C904 C 0.83277 0.0489 0.25824 0.0
N905 N 0.85252 0.05095 0.26412 0.0
C906 C 0.84638 0.0848 0.27599 0.0
C907 C 0.85946 0.06838 0.27301 0.0
C908 C 0.82592 0.08323 0.26991 0.0
C909 C 0.81912 0.06489 0.26109 0.0
H910 H 0.82761 0.03474 0.2515 0.0
H911 H 0.87515 0.06954 0.27789 0.0
C912 C 0.9329 0.00941 0.29679 0.0
N913 N 0.91323 1.00328 0.29855 0.0
C914 C 0.94657 1.00659 0.31291 0.0
C915 C 0.91947 0.9912 0.33234 0.0
C916 C 0.90638 0.99417 0.3158 0.0
C917 C 0.93985 0.99753 0.33107 0.0
H918 H 0.938 0.01633 0.28276 0.0
H919 H 0.89075 0.98911 0.31673 0.0
C920 C 0.86054 1.00483 0.21571 0.0
N921 N 0.84974 0.98723 0.17892 0.0
C922 C 0.87179 0.98858 0.20793 0.0
C923 C 0.84379 0.0121 0.2048 0.0
C924 C 0.86609 0.97989 0.18931 0.0
C925 C 0.83858 1.00301 0.18622 0.0
C926 C 0.90517 0.96863 0.26199 0.0
C927 C 0.9219 0.95794 0.25459 0.0
C928 C 0.89396 0.96066 0.27819 0.0
C929 C 0.92715 0.93937 0.2635 0.0
C930 C 0.89969 0.94206 0.28669 0.0
N931 N 0.91602 0.93189 0.27923 0.0
C932 C 0.93313 0.01272 0.21889 0.0
C933 C 0.90606 0.02439 0.19807 0.0
C934 C 0.94694 0.01554 0.20303 0.0
N935 N 0.91311 0.01702 0.21611 0.0
C936 C 0.91928 0.02711 0.18169 0.0
C937 C 0.94003 0.02253 0.18399 0.0
H938 H 0.93837 1.00727 0.23354 0.0
H939 H 0.89018 0.0282 0.19634 0.0
C940 C 0.83316 0.96983 0.25646 0.0
N941 N 0.85283 0.96835 0.25038 0.0
C942 C 0.8198 0.95342 0.25378 0.0
C943 C 0.8472 0.93429 0.23865 0.0
C944 C 0.85997 0.95111 0.24143 0.0
C945 C 0.82687 0.93532 0.24495 0.0
H946 H 0.82787 0.98379 0.26337 0.0
H947 H 0.87556 0.95042 0.23637 0.0
O948 O 0.89988 0.03333 0.26109 0.0
O949 O 0.86587 1.00604 0.28052 0.0
O950 O 0.86563 0.01351 0.23401 0.0
O951 O 0.89999 0.98688 0.25345 0.0
H952 H 0.92933 0.05796 0.27317 0.0
H953 H 0.88081 0.05013 0.2295 0.0
H954 H 0.9376 0.09121 0.25719 0.0
H955 H 0.88995 0.08339 0.2143 0.0
H956 H 0.82709 0.01055 0.33736 0.0
H957 H 0.88526 0.03707 0.29818 0.0
H958 H 0.8357 0.99453 0.3042 0.0
H959 H 0.87577 0.05235 0.33132 0.0
H960 H 0.85225 0.09864 0.28287 0.0
H961 H 0.80335 0.0628 0.2567 0.0
H962 H 0.96228 0.01118 0.31104 0.0
H963 H 0.91368 0.98413 0.34604 0.0
H964 H 0.88482 0.98276 0.21613 0.0
H965 H 0.8349 0.02464 0.21065 0.0
H966 H 0.87467 0.96732 0.18311 0.0
H967 H 0.82565 0.00849 0.1776 0.0
H968 H 0.93075 0.96394 0.24208 0.0
H969 H 0.88095 0.96871 0.28413 0.0
H970 H 0.94006 0.93092 0.25791 0.0
H971 H 0.89115 0.93571 0.29922 0.0
H972 H 0.9629 0.01251 0.20577 0.0
H973 H 0.91328 0.03261 0.16734 0.0
H974 H 0.80419 0.95475 0.25878 0.0
H975 H 0.85308 0.9207 0.23144 0.0
Li976 Li 0.25647 0.14927 0.52636 0.0
Li977 Li 0.24102 0.12057 0.50416 0.0
Li978 Li 0.27777 0.12265 0.51168 0.0
Li979 Li 0.2626 0.14713 0.48988 0.0
C980 C 0.26393 0.10656 0.54509 0.0
N981 N 0.28401 0.08063 0.57137 0.0
C982 C 0.26085 0.08555 0.54366 0.0
C983 C 0.27708 0.11443 0.55996 0.0
C984 C 0.27119 0.07268 0.55707 0.0
C985 C 0.28712 0.10105 0.57309 0.0
C986 C 0.22711 0.16453 0.49116 0.0
C987 C 0.20934 0.17271 0.46004 0.0
N988 N 0.21121 0.19287 0.46451 0.0
C989 C 0.2287 0.1853 0.49556 0.0
C990 C 0.21723 0.15814 0.47335 0.0
C991 C 0.22061 0.1994 0.48185 0.0
C992 C 0.25852 0.18614 0.54845 0.0
N993 N 0.25204 0.16648 0.54915 0.0
C994 C 0.23928 0.17124 0.58286 0.0
C995 C 0.24254 0.15886 0.56585 0.0
C996 C 0.24578 0.19162 0.58257 0.0
C997 C 0.2554 0.19911 0.56505 0.0
H998 H 0.26611 0.19172 0.53498 0.0
H999 H 0.23751 0.14316 0.56593 0.0
C1000 C 0.22161 0.08295 0.49639 0.0
N1001 N 0.21835 0.103 0.50034 0.0
C1002 C 0.20519 0.06981 0.49298 0.0
C1003 C 0.18239 0.09817 0.49791 0.0
C1004 C 0.19925 0.11076 0.50128 0.0
C1005 C 0.18528 0.07744 0.49354 0.0
H1006 H 0.237 0.07725 0.49565 0.0
H1007 H 0.19714 0.12676 0.50455 0.0
C1008 C 0.30149 0.15762 0.50551 0.0
N1009 N 0.33989 0.16791 0.49205 0.0
C1010 C 0.3091 0.14898 0.48766 0.0
C1011 C 0.31337 0.17154 0.5165 0.0
C1012 C 0.32856 0.15436 0.4811 0.0
C1013 C 0.33276 0.17653 0.50945 0.0
C1014 C 0.26461 0.10871 0.46681 0.0
C1015 C 0.28312 0.10233 0.45863 0.0
C1016 C 0.24664 0.10564 0.45573 0.0
C1017 C 0.28338 0.09334 0.43933 0.0
C1018 C 0.24753 0.09659 0.43648 0.0
N1019 N 0.26573 0.0907 0.42873 0.0
C1020 C 0.29951 0.0861 0.50961 0.0
C1021 C 0.31742 0.11249 0.52678 0.0
C1022 C 0.31549 0.07258 0.51303 0.0
N1023 N 0.30075 0.1056 0.51649 0.0
C1024 C 0.33386 0.09954 0.53035 0.0
C1025 C 0.3329 0.07928 0.52355 0.0
H1026 H 0.28599 0.08101 0.5016 0.0
H1027 H 0.31788 0.12796 0.5324 0.0
C1028 C 0.27276 0.18401 0.47081 0.0
N1029 N 0.26672 0.16459 0.46667 0.0
C1030 C 0.27572 0.19793 0.45504 0.0
C1031 C 0.26642 0.17164 0.43091 0.0
C1032 C 0.26348 0.15827 0.44716 0.0
C1033 C 0.27249 0.19177 0.4348 0.0
H1034 H 0.27512 0.18874 0.48645 0.0
H1035 H 0.25841 0.14299 0.44408 0.0
O1036 O 0.2546 0.11937 0.5316 0.0
O1037 O 0.23561 0.15052 0.504 0.0
O1038 O 0.2825 0.15259 0.51228 0.0
O1039 O 0.26404 0.11719 0.48587 0.0
H1040 H 0.25079 0.07924 0.53217 0.0
H1041 H 0.27976 0.13066 0.56112 0.0
H1042 H 0.26908 0.05637 0.55606 0.0
H1043 H 0.29746 0.1069 0.58458 0.0
H1044 H 0.20178 0.168 0.44611 0.0
H1045 H 0.23633 0.19048 0.50926 0.0
H1046 H 0.21585 0.14213 0.46975 0.0
H1047 H 0.22188 0.21554 0.48496 0.0
H1048 H 0.23155 0.16502 0.596 0.0
H1049 H 0.26064 0.21474 0.56431 0.0
H1050 H 0.20802 0.05392 0.48961 0.0
H1051 H 0.16726 0.10454 0.49886 0.0
H1052 H 0.30003 0.13835 0.47891 0.0
H1053 H 0.30765 0.17837 0.53035 0.0
H1054 H 0.33463 0.14779 0.46729 0.0
H1055 H 0.34215 0.18726 0.51782 0.0
H1056 H 0.29715 0.10417 0.46713 0.0
H1057 H 0.23216 0.11036 0.46181 0.0
H1058 H 0.2976 0.0884 0.43279 0.0
H1059 H 0.23375 0.09425 0.4277 0.0
H1060 H 0.31432 0.05712 0.50737 0.0
H1061 H 0.34703 0.10516 0.53862 0.0
H1062 H 0.28063 0.21329 0.45862 0.0
H1063 H 0.26368 0.16639 0.41548 0.0
Li1064 Li 0.39615 0.50675 0.77546 0.0
Li1065 Li 0.37078 0.52794 0.76028 0.0
Li1066 Li 0.37045 0.49159 0.75507 0.0
Li1067 Li 0.39772 0.51197 0.73911 0.0
C1068 C 0.36215 0.5154 0.7991 0.0
N1069 N 0.35311 0.5338 0.83583 0.0
C1070 C 0.37375 0.53193 0.80606 0.0
C1071 C 0.34595 0.50827 0.8108 0.0
C1072 C 0.36893 0.54101 0.82467 0.0
C1073 C 0.34163 0.51776 0.82934 0.0
C1074 C 0.40629 0.55083 0.75261 0.0
C1075 C 0.4019 0.57642 0.72667 0.0
N1076 N 0.41718 0.58755 0.73528 0.0
C1077 C 0.42197 0.56249 0.76116 0.0
C1078 C 0.39618 0.5578 0.73519 0.0
C1079 C 0.42724 0.58103 0.75219 0.0
C1080 C 0.43307 0.50923 0.79716 0.0
N1081 N 0.41343 0.50289 0.79866 0.0
C1082 C 0.41965 0.48972 0.83203 0.0
C1083 C 0.40653 0.49329 0.81564 0.0
C1084 C 0.44008 0.49577 0.83074 0.0
C1085 C 0.44677 0.50572 0.81308 0.0
H1086 H 0.43814 0.51668 0.7834 0.0
H1087 H 0.39094 0.48808 0.81631 0.0
C1088 C 0.33344 0.54873 0.76102 0.0
N1089 N 0.35373 0.55122 0.76428 0.0
C1090 C 0.3201 0.56499 0.7639 0.0
C1091 C 0.34868 0.58594 0.77407 0.0
C1092 C 0.36144 0.56927 0.77107 0.0
C1093 C 0.32774 0.58396 0.77027 0.0
H1094 H 0.3276 0.53403 0.7564 0.0
H1095 H 0.37746 0.57074 0.77445 0.0
C1096 C 0.41155 0.47216 0.76393 0.0
N1097 N 0.4356 0.44586 0.78622 0.0
C1098 C 0.43256 0.47179 0.76093 0.0
C1099 C 0.40273 0.45903 0.77814 0.0
C1100 C 0.44447 0.45842 0.77239 0.0
C1101 C 0.41516 0.44586 0.78927 0.0
C1102 C 0.35694 0.50299 0.71941 0.0
C1103 C 0.36607 0.48695 0.70887 0.0
C1104 C 0.33654 0.50762 0.71564 0.0
C1105 C 0.35458 0.47571 0.69482 0.0
C1106 C 0.32557 0.49602 0.70146 0.0
N1107 N 0.33473 0.48043 0.69145 0.0
C1108 C 0.33277 0.47083 0.75557 0.0
C1109 C 0.36051 0.4508 0.7444 0.0
C1110 C 0.3194 0.45446 0.75271 0.0
N1111 N 0.35288 0.46868 0.75142 0.0
C1112 C 0.34771 0.43403 0.74144 0.0
C1113 C 0.32689 0.43573 0.74571 0.0
H1114 H 0.32714 0.4853 0.76101 0.0
H1115 H 0.37652 0.44963 0.74092 0.0
C1116 C 0.43571 0.5173 0.72051 0.0
N1117 N 0.41545 0.51599 0.71653 0.0
C1118 C 0.44948 0.52059 0.7047 0.0
C1119 C 0.42123 0.52161 0.68104 0.0
C1120 C 0.408 0.5184 0.69732 0.0
C1121 C 0.4423 0.52253 0.6846 0.0
H1122 H 0.44115 0.51604 0.73603 0.0
H1123 H 0.39179 0.51799 0.69462 0.0
O1124 O 0.36638 0.50625 0.78086 0.0
O1125 O 0.40117 0.53256 0.7612 0.0
O1126 O 0.39969 0.48563 0.75339 0.0
O1127 O 0.36781 0.51372 0.73369 0.0
H1128 H 0.38635 0.5377 0.79726 0.0
H1129 H 0.33681 0.49552 0.80559 0.0
H1130 H 0.37778 0.5538 0.83024 0.0
H1131 H 0.32913 0.51239 0.83856 0.0
H1132 H 0.3942 0.58202 0.71322 0.0
H1133 H 0.42998 0.55725 0.77461 0.0
H1134 H 0.38402 0.54902 0.72831 0.0
H1135 H 0.43934 0.59023 0.75867 0.0
H1136 H 0.41404 0.48189 0.84539 0.0
H1137 H 0.4624 0.51074 0.81165 0.0
H1138 H 0.304 0.56279 0.76102 0.0
H1139 H 0.35507 0.60014 0.77962 0.0
H1140 H 0.43963 0.48183 0.75 0.0
H1141 H 0.38651 0.45929 0.78081 0.0
H1142 H 0.46078 0.45808 0.77034 0.0
H1143 H 0.40856 0.43574 0.80043 0.0
H1144 H 0.38179 0.48301 0.71177 0.0
H1145 H 0.32924 0.52003 0.72353 0.0
H1146 H 0.36142 0.46317 0.68667 0.0
H1147 H 0.30976 0.49941 0.69843 0.0
H1148 H 0.30342 0.45635 0.75614 0.0
H1149 H 0.35398 0.41995 0.73563 0.0
H1150 H 0.46554 0.52188 0.70822 0.0
H1151 H 0.41506 0.5232 0.66579 0.0
Li1152 Li 0.77647 0.3972 0.50634 0.0
Li1153 Li 0.7611 0.37139 0.52759 0.0
Li1154 Li 0.75556 0.37118 0.49086 0.0
Li1155 Li 0.73989 0.3969 0.51183 0.0
C1156 C 0.79975 0.36235 0.51457 0.0
N1157 N 0.83625 0.35193 0.5327 0.0
C1158 C 0.80738 0.37381 0.5309 0.0
C1159 C 0.81065 0.34558 0.50748 0.0
C1160 C 0.82586 0.3683 0.53986 0.0
C1161 C 0.82909 0.34056 0.51684 0.0
C1162 C 0.75327 0.40645 0.55056 0.0
C1163 C 0.72816 0.40089 0.57663 0.0
N1164 N 0.73568 0.41713 0.58717 0.0
C1165 C 0.76074 0.42309 0.56162 0.0
C1166 C 0.73683 0.39525 0.55809 0.0
C1167 C 0.75165 0.42823 0.58012 0.0
C1168 C 0.79675 0.43488 0.50668 0.0
N1169 N 0.7993 0.41482 0.5023 0.0
C1170 C 0.83357 0.42097 0.49191 0.0
C1171 C 0.81716 0.40774 0.49476 0.0
C1172 C 0.83151 0.44176 0.49653 0.0
C1173 C 0.81267 0.44871 0.50375 0.0
H1174 H 0.78224 0.44014 0.51228 0.0
H1175 H 0.8187 0.39184 0.49087 0.0
C1176 C 0.75965 0.33435 0.54895 0.0
N1177 N 0.76522 0.35423 0.55071 0.0
C1178 C 0.76301 0.32087 0.56506 0.0
C1179 C 0.77757 0.34863 0.58455 0.0
C1180 C 0.77406 0.36152 0.56803 0.0
C1181 C 0.77223 0.32794 0.58311 0.0
H1182 H 0.75282 0.32893 0.53491 0.0
H1183 H 0.77856 0.37734 0.56902 0.0
C1184 C 0.76306 0.40592 0.46751 0.0
N1185 N 0.78055 0.41599 0.43069 0.0
C1186 C 0.75541 0.42213 0.4561 0.0
C1187 C 0.77962 0.39484 0.46022 0.0
C1188 C 0.76445 0.42698 0.4375 0.0
C1189 C 0.78824 0.40017 0.44157 0.0
C1190 C 0.71715 0.36118 0.504 0.0
C1191 C 0.70906 0.37223 0.4877 0.0
C1192 C 0.70689 0.34396 0.5111 0.0
C1193 C 0.69077 0.36588 0.47881 0.0
C1194 C 0.68862 0.33809 0.5018 0.0
N1195 N 0.68101 0.34908 0.48598 0.0
C1196 C 0.7574 0.33389 0.46999 0.0
C1197 C 0.74266 0.36044 0.45052 0.0
C1198 C 0.75422 0.32006 0.45407 0.0
N1199 N 0.75161 0.35363 0.46795 0.0
C1200 C 0.73938 0.34718 0.43416 0.0
C1201 C 0.74504 0.32668 0.43591 0.0
H1202 H 0.76435 0.32888 0.48409 0.0
H1203 H 0.73786 0.37611 0.44938 0.0
C1204 C 0.71939 0.43435 0.51223 0.0
N1205 N 0.71693 0.41417 0.51606 0.0
C1206 C 0.70353 0.44796 0.51589 0.0
C1207 C 0.68277 0.4197 0.527 0.0
C1208 C 0.69913 0.40671 0.52346 0.0
C1209 C 0.68492 0.44071 0.5235 0.0
H1210 H 0.73381 0.43989 0.50658 0.0
H1211 H 0.69761 0.39068 0.52679 0.0
O1212 O 0.78154 0.36721 0.50569 0.0
O1213 O 0.76191 0.40144 0.53232 0.0
O1214 O 0.75439 0.40116 0.4858 0.0
O1215 O 0.73522 0.36685 0.51277 0.0
H1216 H 0.79917 0.38684 0.5366 0.0
H1217 H 0.8049 0.33652 0.4949 0.0
H1218 H 0.83194 0.37703 0.5525 0.0
H1219 H 0.8377 0.32762 0.51151 0.0
H1220 H 0.71543 0.39237 0.58264 0.0
H1221 H 0.77342 0.43194 0.55595 0.0
H1222 H 0.73082 0.38233 0.54974 0.0
H1223 H 0.75728 0.44107 0.58886 0.0
H1224 H 0.84778 0.41495 0.48625 0.0
H1225 H 0.81011 0.46469 0.50683 0.0
H1226 H 0.75875 0.30501 0.56329 0.0
H1227 H 0.7843 0.35482 0.59833 0.0
H1228 H 0.74262 0.43088 0.46158 0.0
H1229 H 0.78575 0.38224 0.46882 0.0
H1230 H 0.75869 0.43949 0.4285 0.0
H1231 H 0.80106 0.39173 0.43574 0.0
H1232 H 0.71681 0.38558 0.48197 0.0
H1233 H 0.71302 0.33519 0.52365 0.0
H1234 H 0.68433 0.37428 0.46619 0.0
H1235 H 0.68051 0.32479 0.50714 0.0
H1236 H 0.75897 0.30439 0.45588 0.0
H1237 H 0.73213 0.35277 0.42042 0.0
H1238 H 0.7059 0.46404 0.51308 0.0
H1239 H 0.66858 0.41331 0.53234 0.0
Li1240 Li 0.64576 0.98963 0.76408 0.0
Li1241 Li 0.62005 0.0111 0.77928 0.0
Li1242 Li 0.62076 1.00395 0.74217 0.0
Li1243 Li 0.64672 0.0264 0.75656 0.0
C1244 C 0.61287 0.96512 0.77033 0.0
N1245 N 0.60698 0.92496 0.78138 0.0
C1246 C 0.60377 0.96039 0.78894 0.0
C1247 C 0.61891 0.94941 0.75731 0.0
C1248 C 0.60094 0.93999 0.79426 0.0
C1249 C 0.61583 0.9292 0.76319 0.0
C1250 C 0.66013 1.00416 0.79963 0.0
C1251 C 0.6913 0.99828 0.81821 0.0
N1252 N 0.68109 0.98596 0.8313 0.0
C1253 C 0.64996 0.99144 0.81328 0.0
C1254 C 0.68098 0.00763 0.80212 0.0
C1255 C 0.66081 0.98239 0.82919 0.0
C1256 C 0.68069 0.966 0.75715 0.0
N1257 N 0.66366 0.96692 0.76881 0.0
C1258 C 0.67311 0.9363 0.78608 0.0
C1259 C 0.65992 0.95266 0.78337 0.0
C1260 C 0.69058 0.9349 0.77407 0.0
C1261 C 0.69452 0.95007 0.75963 0.0
H1262 H 0.68353 0.97767 0.74591 0.0
H1263 H 0.64665 0.95386 0.79288 0.0
C1264 C 0.5823 0.0138 0.7989 0.0
N1265 N 0.60259 0.01676 0.80165 0.0
C1266 C 0.56873 0.01805 0.81465 0.0
C1267 C 0.59722 0.02825 0.83577 0.0
C1268 C 0.61019 0.0241 0.81953 0.0
C1269 C 0.57614 0.02539 0.83341 0.0
H1270 H 0.57667 0.0082 0.78441 0.0
H1271 H 0.62636 0.02671 0.8212 0.0
C1272 C 0.65057 1.00103 0.7172 0.0
N1273 N 0.64858 0.99649 0.6754 0.0
C1274 C 0.6501 0.01818 0.70465 0.0
C1275 C 0.65019 0.98158 0.70854 0.0
C1276 C 0.64905 0.01556 0.68354 0.0
C1277 C 0.64914 0.97961 0.68736 0.0
C1278 C 0.61095 0.04912 0.76349 0.0
C1279 C 0.59423 0.05926 0.75516 0.0
C1280 C 0.62155 0.05779 0.77989 0.0
C1281 C 0.58845 0.07802 0.76333 0.0
C1282 C 0.61528 0.07655 0.78764 0.0
N1283 N 0.599 0.0862 0.77926 0.0
C1284 C 0.59729 0.98102 0.71373 0.0
C1285 C 0.59771 0.01659 0.70782 0.0
C1286 C 0.58429 0.97796 0.69713 0.0
N1287 N 0.60364 1.00009 0.7188 0.0
C1288 C 0.58464 0.01423 0.69109 0.0
C1289 C 0.57755 0.99472 0.68576 0.0
H1290 H 0.60221 0.96816 0.72261 0.0
H1291 H 0.60303 0.03159 0.71216 0.0
C1292 C 0.68419 0.04695 0.75483 0.0
N1293 N 0.66394 0.04935 0.75141 0.0
C1294 C 0.69765 0.06315 0.75178 0.0
C1295 C 0.6693 0.08383 0.74096 0.0
C1296 C 0.65639 0.0672 0.74415 0.0
C1297 C 0.69019 0.08201 0.74507 0.0
H1298 H 0.68989 0.03237 0.75976 0.0
H1299 H 0.64036 0.06859 0.7408 0.0
O1300 O 0.61559 0.98502 0.76486 0.0
O1301 O 0.64977 0.01295 0.7838 0.0
O1302 O 0.65091 1.00327 0.7379 0.0
O1303 O 0.61657 0.0306 0.75583 0.0
H1304 H 0.59898 0.97233 0.79921 0.0
H1305 H 0.62636 0.95274 0.74305 0.0
H1306 H 0.59396 0.93612 0.80863 0.0
H1307 H 0.62059 0.9169 0.75334 0.0
H1308 H 0.70744 1.00082 0.82029 0.0
H1309 H 0.63391 0.98829 0.81142 0.0
H1310 H 0.68913 0.01743 0.79177 0.0
H1311 H 0.65312 0.97243 0.83979 0.0
H1312 H 0.66979 0.92491 0.79751 0.0
H1313 H 0.70796 0.94942 0.75018 0.0
H1314 H 0.5526 0.01575 0.81211 0.0
H1315 H 0.60368 0.03343 0.85008 0.0
H1316 H 0.65026 0.03333 0.71117 0.0
H1317 H 0.65054 0.96817 0.71808 0.0
H1318 H 0.64854 0.02868 0.67363 0.0
H1319 H 0.64873 0.96466 0.68042 0.0
H1320 H 0.5858 0.05268 0.74254 0.0
H1321 H 0.63449 0.05014 0.78658 0.0
H1322 H 0.57555 0.08605 0.75702 0.0
H1323 H 0.62334 0.08344 0.80032 0.0
H1324 H 0.57958 0.96261 0.69323 0.0
H1325 H 0.57981 0.02754 0.68266 0.0
H1326 H 0.71374 0.06088 0.75445 0.0
H1327 H 0.66297 0.09805 0.73557 0.0
Li1328 Li 0.02731 0.26075 0.87034 0.0
Li1329 Li 1.00693 0.27679 0.89742 0.0
Li1330 Li 0.01234 0.24055 0.89615 0.0
Li1331 Li 0.99102 0.2552 0.87049 0.0
C1332 C 0.04752 0.25199 0.91061 0.0
N1333 N 0.07507 0.22919 0.93273 0.0
C1334 C 0.04911 0.25451 0.9317 0.0
C1335 C 0.06003 0.23795 0.90074 0.0
C1336 C 0.06309 0.2428 0.94263 0.0
C1337 C 0.07386 0.22657 0.91219 0.0
C1338 C 0.01559 0.29635 0.85694 0.0
C1339 C 0.02314 0.31395 0.82565 0.0
N1340 N 0.03796 0.32471 0.83545 0.0
C1341 C 0.03085 0.30764 0.86672 0.0
C1342 C 0.01163 0.29957 0.83626 0.0
C1343 C 0.042 0.32189 0.85559 0.0
C1344 C 0.0474 0.26019 0.83253 0.0
N1345 N 0.04986 0.26471 0.85262 0.0
C1346 C 0.08382 0.27634 0.84677 0.0
C1347 C 0.0676 0.27263 0.85993 0.0
C1348 C 0.08162 0.27207 0.8259 0.0
C1349 C 0.06317 0.2638 0.81881 0.0
H1350 H 0.03307 0.25399 0.82717 0.0
H1351 H 0.06904 0.27631 0.87594 0.0
C1352 C 1.00437 0.2971 0.9352 0.0
N1353 N 1.00281 0.29976 0.91473 0.0
C1354 C 1.00115 0.31343 0.94847 0.0
C1355 C 0.99413 0.33478 0.91935 0.0
C1356 C 0.99753 0.31805 0.90665 0.0
C1357 C 0.99615 0.33263 0.94056 0.0
H1358 H 0.00793 0.28224 0.94123 0.0
H1359 H 0.9957 0.31961 0.89035 0.0
C1360 C 1.00382 0.21642 0.86214 0.0
N1361 N 0.98561 0.17949 0.85309 0.0
C1362 C 0.98731 0.20954 0.87361 0.0
C1363 C 0.01103 0.20454 0.84606 0.0
C1364 C 0.97832 0.19083 0.86879 0.0
C1365 C 1.00163 0.18591 0.84173 0.0
C1366 C 0.96819 0.26321 0.90586 0.0
C1367 C 0.95684 0.2551 0.92186 0.0
C1368 C 0.96092 0.28018 0.89529 0.0
C1369 C 0.93832 0.26405 0.927 0.0
C1370 C 0.94234 0.2887 0.9009 0.0
N1371 N 0.93152 0.28053 0.9165 0.0
C1372 C 0.00999 0.21944 0.93329 0.0
C1373 C 0.02588 0.20059 0.90699 0.0
C1374 C 0.01338 0.20369 0.94715 0.0
N1375 N 0.01632 0.21766 0.91368 0.0
C1376 C 0.02938 0.18438 0.92028 0.0
C1377 C 0.02326 0.18594 0.94067 0.0
H1378 H 1.00257 0.23326 0.93821 0.0
H1379 H 0.03108 0.19968 0.89142 0.0
C1380 C 0.97079 0.25367 0.83279 0.0
N1381 N 0.96793 0.25081 0.85308 0.0
C1382 C 0.95487 0.2503 0.81899 0.0
C1383 C 0.93342 0.24062 0.84715 0.0
C1384 C 0.94977 0.24414 0.8604 0.0
C1385 C 0.9359 0.24364 0.82615 0.0
H1386 H 0.98554 0.25834 0.8273 0.0
H1387 H 0.94798 0.24122 0.87648 0.0
O1388 O 0.0334 0.26273 0.89971 0.0
O1389 O 1.00507 0.28177 0.86746 0.0
O1390 O 0.01284 0.23479 0.86633 0.0
O1391 O 0.98645 0.25467 0.9009 0.0
H1392 H 0.03955 0.26527 0.9396 0.0
H1393 H 0.05879 0.23559 0.88446 0.0
H1394 H 0.06439 0.2445 0.95898 0.0
H1395 H 0.08352 0.21556 0.90477 0.0
H1396 H 0.0203 0.31653 0.80962 0.0
H1397 H 0.0343 0.30515 0.88266 0.0
H1398 H 0.99987 0.29104 0.82844 0.0
H1399 H 0.05395 0.33062 0.86293 0.0
H1400 H 0.09779 0.28282 0.85276 0.0
H1401 H 0.06101 0.26007 0.80286 0.0
H1402 H 1.00268 0.3111 0.96474 0.0
H1403 H 0.98967 0.34915 0.91267 0.0
H1404 H 0.98147 0.21848 0.8861 0.0
H1405 H 0.02376 0.2097 0.83701 0.0
H1406 H 0.96555 0.18532 0.87754 0.0
H1407 H 1.00706 0.17655 0.82933 0.0
H1408 H 0.9623 0.242 0.93022 0.0
H1409 H 0.96944 0.28669 0.88286 0.0
H1410 H 0.92937 0.25791 0.93934 0.0
H1411 H 0.93652 0.30182 0.89285 0.0
H1412 H 0.00828 0.20533 0.96273 0.0
H1413 H 0.03715 0.17094 0.9148 0.0
H1414 H 0.95736 0.25299 0.80292 0.0
H1415 H 0.91909 0.23524 0.85323 0.0
Li1416 Li 0.52701 0.76253 0.36966 0.0
Li1417 Li 0.5054 0.77845 0.3983 0.0
Li1418 Li 0.51249 0.74159 0.3967 0.0
Li1419 Li 0.49055 0.75654 0.37212 0.0
C1420 C 0.54617 0.75558 0.41243 0.0
N1421 N 0.57241 0.73568 0.43858 0.0
C1422 C 0.54494 0.75883 0.43344 0.0
C1423 C 0.56082 0.74234 0.40469 0.0
C1424 C 0.55832 0.74859 0.44641 0.0
C1425 C 0.57393 0.73239 0.41817 0.0
C1426 C 0.49216 0.79185 0.35408 0.0
C1427 C 0.4612 0.80952 0.34552 0.0
N1428 N 0.46567 0.80759 0.3254 0.0
C1429 C 0.49655 0.79021 0.33333 0.0
C1430 C 0.47444 0.80172 0.36026 0.0
C1431 C 0.48293 0.79822 0.31906 0.0
C1432 C 0.54808 0.75985 0.33252 0.0
N1433 N 0.54946 0.76662 0.35207 0.0
C1434 C 0.58305 0.7793 0.34628 0.0
C1435 C 0.56648 0.77614 0.35916 0.0
C1436 C 0.58191 0.77282 0.32591 0.0
C1437 C 0.56419 0.76289 0.31906 0.0
H1438 H 0.5344 0.75215 0.32739 0.0
H1439 H 0.56715 0.7813 0.37481 0.0
C1440 C 0.49823 0.79853 0.43566 0.0
N1441 N 0.50196 0.80145 0.41552 0.0
C1442 C 0.49496 0.8152 0.44849 0.0
C1443 C 0.49956 0.83752 0.41963 0.0
C1444 C 0.5028 0.82044 0.40736 0.0
C1445 C 0.49541 0.83499 0.44045 0.0
H1446 H 0.49754 0.78323 0.44168 0.0
H1447 H 0.50587 0.82228 0.3913 0.0
C1448 C 0.50547 0.71748 0.36202 0.0
N1449 N 0.4913 0.67904 0.35219 0.0
C1450 C 0.48774 0.70999 0.37097 0.0
C1451 C 0.51597 0.70548 0.34801 0.0
C1452 C 0.48083 0.69051 0.36582 0.0
C1453 C 0.50858 0.68606 0.34326 0.0
C1454 C 0.46798 0.75513 0.41065 0.0
C1455 C 0.45962 0.73677 0.41742 0.0
C1456 C 0.45718 0.77323 0.41332 0.0
C1457 C 0.44041 0.73677 0.4264 0.0
C1458 C 0.43802 0.77259 0.42238 0.0
N1459 N 0.43009 0.75452 0.42866 0.0
C1460 C 0.51082 0.71999 0.43353 0.0
C1461 C 0.52733 0.70198 0.40704 0.0
C1462 C 0.51436 0.70405 0.44711 0.0
N1463 N 0.51732 0.7187 0.41395 0.0
C1464 C 0.53099 0.68557 0.42004 0.0
C1465 C 0.52458 0.68659 0.44038 0.0
H1466 H 0.50303 0.73354 0.43864 0.0
H1467 H 0.53269 0.70148 0.3915 0.0
C1468 C 0.47115 0.74634 0.33529 0.0
N1469 N 0.46717 0.75226 0.35474 0.0
C1470 C 0.45532 0.74337 0.32133 0.0
C1471 C 0.43144 0.75233 0.34767 0.0
C1472 C 0.44775 0.7553 0.36108 0.0
C1473 C 0.43517 0.74644 0.32748 0.0
H1474 H 0.48672 0.74411 0.33057 0.0
H1475 H 0.44479 0.76023 0.37641 0.0
O1476 O 0.53269 0.76481 0.39954 0.0
O1477 O 0.50491 0.78345 0.36824 0.0
O1478 O 0.51258 0.7365 0.36681 0.0
O1479 O 0.48694 0.75546 0.40215 0.0
H1480 H 0.53361 0.76897 0.43966 0.0
H1481 H 0.56182 0.73952 0.38847 0.0
H1482 H 0.55746 0.75084 0.46272 0.0
H1483 H 0.58525 0.72198 0.41242 0.0
H1484 H 0.44735 0.81706 0.35009 0.0
H1485 H 0.51019 0.78262 0.32829 0.0
H1486 H 0.47084 0.80316 0.37625 0.0
H1487 H 0.48604 0.7969 0.30294 0.0
H1488 H 0.59648 0.78701 0.35207 0.0
H1489 H 0.5629 0.75741 0.30353 0.0
H1490 H 0.49176 0.81263 0.46446 0.0
H1491 H 0.50042 0.85256 0.41293 0.0
H1492 H 0.47937 0.71916 0.38167 0.0
H1493 H 0.52972 0.7111 0.34093 0.0
H1494 H 0.46711 0.68453 0.37263 0.0
H1495 H 0.51656 0.67657 0.33246 0.0
H1496 H 0.46791 0.72266 0.41588 0.0
H1497 H 0.46341 0.7876 0.40832 0.0
H1498 H 0.43374 0.72265 0.43164 0.0
H1499 H 0.42945 0.78647 0.42443 0.0
H1500 H 0.50905 0.70527 0.46266 0.0
H1501 H 0.53903 0.67237 0.41439 0.0
H1502 H 0.45878 0.73857 0.30594 0.0
H1503 H 0.41607 0.75493 0.35292 0.0
Li1504 Li 0.01052 0.77864 0.61903 0.0
Li1505 Li 0.98884 0.76374 0.64394 0.0
Li1506 Li 0.02558 0.75705 0.64675 0.0
Li1507 Li 1.00361 0.74187 0.61922 0.0
C1508 C 1.00174 0.79837 0.65979 0.0
N1509 N 0.98058 0.82669 0.68247 0.0
C1510 C 0.99105 0.81397 0.65007 0.0
C1511 C 1.00168 0.7972 0.68105 0.0
C1512 C 0.98049 0.82816 0.6618 0.0
C1513 C 0.99086 0.81164 0.69224 0.0
C1514 C 0.96482 0.76934 0.61083 0.0
C1515 C 0.92915 0.76085 0.61246 0.0
N1516 N 0.9245 0.77951 0.60484 0.0
C1517 C 0.95969 0.78842 0.60297 0.0
C1518 C 0.94944 0.75541 0.61556 0.0
C1519 C 0.93922 0.79327 0.60006 0.0
C1520 C 0.0107 0.79954 0.58151 0.0
N1521 N 0.01614 0.80106 0.60147 0.0
C1522 C 0.02947 0.83452 0.59615 0.0
C1523 C 0.02563 0.81797 0.60891 0.0
C1524 C 0.02365 0.83353 0.57556 0.0
C1525 C 0.0144 0.81566 0.56819 0.0
H1526 H 1.00337 0.78581 0.576 0.0
H1527 H 0.03013 0.8186 0.62477 0.0
C1528 C 0.96405 0.75625 0.67807 0.0
N1529 N 0.96557 0.76809 0.66118 0.0
C1530 C 0.94821 0.7592 0.69189 0.0
C1531 C 0.93552 0.78622 0.67051 0.0
C1532 C 0.95178 0.78301 0.65734 0.0
C1533 C 0.93371 0.77444 0.68824 0.0
H1534 H 0.97536 0.74471 0.68102 0.0
H1535 H 0.95344 0.79265 0.64418 0.0
C1536 C 0.04345 0.76276 0.60274 0.0
N1537 N 0.06868 0.77925 0.57356 0.0
C1538 C 0.04132 0.75696 0.58235 0.0
C1539 C 0.05843 0.77689 0.60833 0.0
C1540 C 0.05424 0.76548 0.56781 0.0
C1541 C 0.07102 0.78508 0.59334 0.0
C1542 C 1.00098 0.71708 0.6503 0.0
C1543 C 0.01838 0.70527 0.6531 0.0
C1544 C 0.98207 0.70761 0.64773 0.0
C1545 C 0.0166 0.68406 0.65306 0.0
C1546 C 0.98094 0.68637 0.64775 0.0
N1547 N 0.99808 0.67513 0.65038 0.0
C1548 C 0.0462 0.75357 0.6846 0.0
C1549 C 0.06652 0.7472 0.65558 0.0
C1550 C 0.0628 0.75017 0.69752 0.0
N1551 N 0.04842 0.75232 0.66405 0.0
C1552 C 0.0835 0.74363 0.66792 0.0
C1553 C 0.08182 0.74534 0.68919 0.0
H1554 H 0.03151 0.75711 0.69095 0.0
H1555 H 0.06775 0.74574 0.63923 0.0
C1556 C 0.98301 0.71537 0.59173 0.0
N1557 N 1.00061 0.71835 0.60228 0.0
C1558 C 0.98065 0.69837 0.57913 0.0
C1559 C 0.01466 0.68787 0.58828 0.0
C1560 C 0.01637 0.7051 0.60073 0.0
C1561 C 0.99664 0.68442 0.5772 0.0
H1562 H 0.97086 0.72628 0.59291 0.0
H1563 H 0.03026 0.70793 0.60918 0.0
O1564 O 0.0118 0.78406 0.64853 0.0
O1565 O 0.9848 0.76428 0.6136 0.0
O1566 O 0.03056 0.75508 0.61709 0.0
O1567 O 1.00246 0.73783 0.64973 0.0
H1568 H 0.99054 0.81489 0.63363 0.0
H1569 H 0.00969 0.78516 0.68884 0.0
H1570 H 0.97206 0.84023 0.65447 0.0
H1571 H 0.99059 0.81084 0.7087 0.0
H1572 H 0.9171 0.75026 0.61616 0.0
H1573 H 0.97136 0.79945 0.59932 0.0
H1574 H 0.95312 0.74064 0.62179 0.0
H1575 H 0.93502 0.80801 0.59407 0.0
H1576 H 0.03701 0.84791 0.60228 0.0
H1577 H 0.00976 0.81434 0.55238 0.0
H1578 H 0.94752 0.74985 0.70544 0.0
H1579 H 0.92446 0.7978 0.66675 0.0
H1580 H 0.02969 0.74613 0.57779 0.0
H1581 H 0.06008 0.78171 0.62404 0.0
H1582 H 0.05273 0.7612 0.55195 0.0
H1583 H 0.08259 0.79613 0.59741 0.0
H1584 H 0.03313 0.71238 0.65505 0.0
H1585 H 0.96846 0.71657 0.64562 0.0
H1586 H 0.02996 0.6747 0.65508 0.0
H1587 H 0.96643 0.67881 0.64566 0.0
H1588 H 0.06084 0.7515 0.71384 0.0
H1589 H 0.09773 0.73933 0.66091 0.0
H1590 H 0.96658 0.69632 0.5707 0.0
H1591 H 0.02724 0.67731 0.58744 0.0
Li1592 Li 0.51061 0.27938 0.12116 0.0
Li1593 Li 0.48963 0.26408 0.14642 0.0
Li1594 Li 0.5266 0.25905 0.14705 0.0
Li1595 Li 0.50514 0.24324 0.12013 0.0
C1596 C 0.5026 0.30269 0.15639 0.0
N1597 N 0.48435 0.33876 0.16774 0.0
C1598 C 0.48634 0.3104 0.14501 0.0
C1599 C 0.50954 0.31328 0.17356 0.0
C1600 C 0.47734 0.32867 0.15099 0.0
C1601 C 0.50013 0.33151 0.17904 0.0
C1602 C 0.46634 0.25602 0.11175 0.0
C1603 C 0.44081 0.23029 0.11776 0.0
N1604 N 0.42964 0.23775 0.10198 0.0
C1605 C 0.45462 0.26342 0.09559 0.0
C1606 C 0.4594 0.23931 0.12294 0.0
C1607 C 0.4361 0.25398 0.09089 0.0
C1608 C 0.51 0.30036 0.08377 0.0
N1609 N 0.51463 0.30252 0.10387 0.0
C1610 C 0.52648 0.33649 0.09829 0.0
C1611 C 0.52279 0.32011 0.11127 0.0
C1612 C 0.5223 0.33458 0.07734 0.0
C1613 C 0.5138 0.31624 0.07016 0.0
H1614 H 0.50374 0.28611 0.07826 0.0
H1615 H 0.5267 0.32138 0.12724 0.0
C1616 C 0.46888 0.26174 0.18358 0.0
N1617 N 0.46676 0.26761 0.16385 0.0
C1618 C 0.45301 0.26459 0.19736 0.0
C1619 C 0.43299 0.27932 0.17018 0.0
C1620 C 0.4493 0.27634 0.15698 0.0
C1621 C 0.43482 0.27357 0.19069 0.0
H1622 H 0.48301 0.25498 0.18864 0.0
H1623 H 0.44809 0.28122 0.1413 0.0
C1624 C 0.54595 0.26829 0.1069 0.0
N1625 N 0.57394 0.29117 0.08549 0.0
C1626 C 0.54896 0.26467 0.08614 0.0
C1627 C 0.55728 0.28345 0.1168 0.0
C1628 C 0.56316 0.27642 0.07558 0.0
C1629 C 0.57133 0.29487 0.1057 0.0
C1630 C 0.51304 0.22033 0.15624 0.0
C1631 C 0.52978 0.21249 0.14583 0.0
C1632 C 0.50528 0.2099 0.17303 0.0
C1633 C 0.53844 0.19423 0.15238 0.0
C1634 C 0.51435 0.19167 0.17909 0.0
N1635 N 0.53061 0.18429 0.16873 0.0
C1636 C 0.54667 0.2562 0.18494 0.0
C1637 C 0.56764 0.24948 0.15646 0.0
C1638 C 0.56279 0.25219 0.1983 0.0
N1639 N 0.54938 0.25476 0.16448 0.0
C1640 C 0.58421 0.24558 0.16923 0.0
C1641 C 0.58185 0.24666 0.19048 0.0
H1642 H 0.53189 0.2602 0.19087 0.0
H1643 H 0.56931 0.24814 0.14015 0.0
C1644 C 0.50344 0.22258 0.08246 0.0
N1645 N 0.50069 0.22011 0.10282 0.0
C1646 C 0.49973 0.20644 0.06901 0.0
C1647 C 0.49007 0.1856 0.09768 0.0
C1648 C 0.4939 0.20214 0.11055 0.0
C1649 C 0.49288 0.18767 0.07659 0.0
H1650 H 0.50816 0.23722 0.07664 0.0
H1651 H 0.49116 0.20064 0.12668 0.0
O1652 O 0.51152 0.28468 0.15107 0.0
O1653 O 0.4846 0.26505 0.11629 0.0
O1654 O 0.53163 0.25745 0.11741 0.0
O1655 O 0.50452 0.23837 0.15039 0.0
H1656 H 0.48073 0.30239 0.1317 0.0
H1657 H 0.52205 0.30745 0.18258 0.0
H1658 H 0.46475 0.33481 0.14232 0.0
H1659 H 0.50534 0.33988 0.1923 0.0
H1660 H 0.43526 0.21735 0.12629 0.0
H1661 H 0.45982 0.27631 0.08675 0.0
H1662 H 0.46822 0.23335 0.13551 0.0
H1663 H 0.42687 0.25955 0.07842 0.0
H1664 H 0.53251 0.3505 0.10463 0.0
H1665 H 0.51043 0.31406 0.05412 0.0
H1666 H 0.45489 0.25977 0.21302 0.0
H1667 H 0.41923 0.28642 0.16454 0.0
H1668 H 0.54039 0.25299 0.07824 0.0
H1669 H 0.55496 0.28662 0.13281 0.0
H1670 H 0.56559 0.27385 0.05949 0.0
H1671 H 0.58007 0.30676 0.11313 0.0
H1672 H 0.53604 0.22038 0.13284 0.0
H1673 H 0.49238 0.21583 0.1813 0.0
H1674 H 0.55139 0.18798 0.14447 0.0
H1675 H 0.50849 0.18342 0.19205 0.0
H1676 H 0.56028 0.2531 0.21457 0.0
H1677 H 0.59873 0.24186 0.16251 0.0
H1678 H 0.50186 0.20873 0.05282 0.0
H1679 H 0.48504 0.17132 0.10418 0.0
C1680 C 0.25125 0.78635 0.8942 0.0
C1681 C 0.2324 0.78539 0.88404 0.0
C1682 C 0.25437 0.79965 0.91069 0.0
C1683 C 0.23869 0.81237 0.91774 0.0
H1684 H 0.26378 0.77697 0.88914 0.0
H1685 H 0.26927 0.80017 0.91777 0.0
S1686 S 0.18591 0.81408 0.89745 0.0
N1687 N 0.19755 0.79739 0.88276 0.0
N1688 N 0.20318 0.82205 0.91403 0.0
C1689 C 0.21962 0.81118 0.90794 0.0
C1690 C 0.21653 0.79778 0.89104 0.0
C1691 C 0.03257 0.53984 0.36474 0.0
C1692 C 0.03632 0.53118 0.38398 0.0
C1693 C 0.04591 0.53668 0.34843 0.0
C1694 C 0.06361 0.52494 0.35082 0.0
H1695 H 0.01911 0.54897 0.36222 0.0
H1696 H 0.04245 0.54367 0.33389 0.0
S1697 S 0.08047 0.49908 0.39814 0.0
N1698 N 0.05913 0.51056 0.40455 0.0
N1699 N 0.08407 0.50445 0.37386 0.0
C1700 C 0.06756 0.51624 0.36999 0.0
C1701 C 0.05394 0.51937 0.38656 0.0
C1702 C 0.77349 0.71542 0.8828 0.0
C1703 C 0.78513 0.73333 0.88499 0.0
C1704 C 0.77033 0.70231 0.89933 0.0
C1705 C 0.77845 0.70676 0.91872 0.0
H1706 H 0.76695 0.71142 0.86814 0.0
H1707 H 0.76124 0.68871 0.89699 0.0
S1708 S 0.80991 0.75177 0.9325 0.0
N1709 N 0.80467 0.7549 0.90807 0.0
N1710 N 0.7988 0.7302 0.93911 0.0
C1711 C 0.79007 0.72463 0.92112 0.0
C1712 C 0.79342 0.7379 0.90426 0.0
C1713 C 0.96765 0.9719 0.37503 0.0
C1714 C 0.98125 0.98707 0.38179 0.0
C1715 C 0.95436 0.97541 0.35864 0.0
C1716 C 0.95407 0.99427 0.34847 0.0
H1717 H 0.9675 0.95711 0.38229 0.0
H1718 H 0.94441 0.96314 0.35373 0.0
S1719 S 0.98547 0.03957 0.36157 0.0
N1720 N 0.99297 0.02194 0.37783 0.0
N1721 N 0.96776 0.02871 0.34726 0.0
C1722 C 0.96736 0.00969 0.35536 0.0
C1723 C 0.98099 1.00605 0.37196 0.0
C1724 C 0.22884 0.23683 0.61439 0.0
C1725 C 0.23527 0.23158 0.63416 0.0
C1726 C 0.23245 0.2239 0.59776 0.0
C1727 C 0.24236 0.20513 0.60036 0.0
H1728 H 0.22115 0.25114 0.61172 0.0
H1729 H 0.22727 0.22852 0.58278 0.0
S1730 S 0.26203 0.18425 0.64904 0.0
N1731 N 0.2519 0.20632 0.65543 0.0
N1732 N 0.25866 0.18201 0.62418 0.0
C1733 C 0.24877 0.19967 0.62006 0.0
C1734 C 0.24527 0.21291 0.63695 0.0
C1735 C 0.46606 0.54469 0.63673 0.0
C1736 C 0.48359 0.53277 0.63407 0.0
C1737 C 0.4528 0.54125 0.65305 0.0
C1738 C 0.45661 0.52585 0.66743 0.0
H1739 H 0.46242 0.55664 0.62597 0.0
H1740 H 0.43953 0.55086 0.65451 0.0
S1741 S 0.50053 0.49054 0.66748 0.0
N1742 N 0.50426 0.5052 0.64744 0.0
N1743 N 0.47911 0.49842 0.67781 0.0
C1744 C 0.47412 0.51386 0.66499 0.0
C1745 C 0.48762 0.51736 0.64837 0.0
C1746 C 0.76418 0.28679 0.62307 0.0
C1747 C 0.78279 0.28664 0.63371 0.0
C1748 C 0.7609 0.30015 0.60673 0.0
C1749 C 0.77616 0.31379 0.60036 0.0
H1750 H 0.75194 0.27671 0.6276 0.0
H1751 H 0.7462 0.29999 0.59922 0.0
S1752 S 0.82828 0.31793 0.62201 0.0
N1753 N 0.81706 0.3004 0.63606 0.0
N1754 N 0.81107 0.32529 0.60519 0.0
C1755 C 0.795 0.31346 0.61064 0.0
C1756 C 0.79827 0.29995 0.62734 0.0
C1757 C 0.55382 0.99792 0.63287 0.0
C1758 C 0.53601 0.98612 0.63473 0.0
C1759 C 0.56706 1.00081 0.64948 0.0
C1760 C 0.56309 0.99184 0.6685 0.0
H1761 H 0.55746 1.00513 0.61851 0.0
H1762 H 0.58065 0.00991 0.64733 0.0
S1763 S 0.51853 0.9596 0.68136 0.0
N1764 N 0.51523 0.96526 0.65707 0.0
N1765 N 0.53986 0.97103 0.68835 0.0
C1766 C 0.54531 0.98007 0.67057 0.0
C1767 C 0.53183 0.97715 0.65369 0.0
C1768 C 0.8831 0.2454 0.80236 0.0
C1769 C 0.88513 0.23338 0.78471 0.0
C1770 C 0.89954 0.24852 0.81572 0.0
C1771 C 0.9187 0.23992 0.81183 0.0
H1772 H 0.86861 0.25228 0.80598 0.0
H1773 H 0.89729 0.25793 0.8291 0.0
S1774 S 0.93203 0.20728 0.7677 0.0
N1775 N 0.90787 0.213 0.76396 0.0
N1776 N 0.93869 0.21864 0.78921 0.0
C1777 C 0.92095 0.22789 0.79424 0.0
C1778 C 0.90419 0.22464 0.78068 0.0
C1779 C 0.49907 0.87178 0.48514 0.0
C1780 C 0.48487 0.88693 0.48003 0.0
C1781 C 0.50231 0.855 0.47232 0.0
C1782 C 0.49165 0.85287 0.45379 0.0
H1783 H 0.50758 0.87278 0.49929 0.0
H1784 H 0.51339 0.8437 0.47685 0.0
S1785 S 0.45291 0.8884 0.43332 0.0
N1786 N 0.46021 0.89883 0.45508 0.0
N1787 N 0.46617 0.86721 0.43107 0.0
C1788 C 0.47746 0.86794 0.44846 0.0
C1789 C 0.47408 0.88496 0.46157 0.0
C1790 C 0.13439 0.27239 0.80258 0.0
C1791 C 0.1317 0.28373 0.78459 0.0
C1792 C 0.11815 0.26874 0.81587 0.0
C1793 C 0.09857 0.27621 0.81163 0.0
H1794 H 0.14913 0.26605 0.80631 0.0
H1795 H 0.12088 0.25977 0.82944 0.0
S1796 S 0.08377 0.30818 0.76753 0.0
N1797 N 0.10813 0.30344 0.76393 0.0
N1798 N 0.07759 0.29636 0.78881 0.0
C1799 C 0.09569 0.28777 0.79387 0.0
C1800 C 0.11224 0.29158 0.78038 0.0
C1801 C 0.5252 0.63332 0.46275 0.0
C1802 C 0.53516 0.63611 0.48161 0.0
C1803 C 0.522 0.64968 0.44942 0.0
C1804 C 0.52849 0.66946 0.45452 0.0
H1805 H 0.51956 0.61842 0.45836 0.0
H1806 H 0.51408 0.64689 0.43515 0.0
S1807 S 0.55682 0.68473 0.5011 0.0
N1808 N 0.55269 0.66009 0.50399 0.0
N1809 N 0.54625 0.69084 0.47908 0.0
C1810 C 0.53869 0.67247 0.47314 0.0
C1811 C 0.54212 0.6558 0.48665 0.0
C1812 C 0.88992 0.76406 0.7246 0.0
C1813 C 0.88355 0.7837 0.73001 0.0
C1814 C 0.90617 0.7612 0.71113 0.0
C1815 C 0.91675 0.77791 0.70279 0.0
H1816 H 0.88211 0.75083 0.73062 0.0
H1817 H 0.91027 0.74579 0.707 0.0
S1818 S 0.90681 0.83244 0.71394 0.0
N1819 N 0.88929 0.82003 0.72694 0.0
N1820 N 0.92035 0.81484 0.70227 0.0
C1821 C 0.91071 0.79765 0.70859 0.0
C1822 C 0.894 0.8005 0.72205 0.0
C1823 C 0.04047 0.86463 0.52985 0.0
C1824 C 0.03345 0.88429 0.53453 0.0
C1825 C 0.0372 0.84827 0.54316 0.0
C1826 C 0.02707 0.85107 0.56178 0.0
H1827 H 0.04831 0.86182 0.51564 0.0
H1828 H 0.04277 0.83336 0.53894 0.0
S1829 S 1.00599 0.89958 0.58132 0.0
N1830 N 0.01614 0.90568 0.55919 0.0
N1831 N 0.00997 0.87494 0.58419 0.0
C1832 C 0.02012 0.87067 0.56672 0.0
C1833 C 0.02329 0.88727 0.55309 0.0
C1834 C 0.11464 0.72555 0.73271 0.0
C1835 C 0.13358 0.73491 0.72924 0.0
C1836 C 0.09799 0.72904 0.71974 0.0
C1837 C 0.09971 0.74188 0.70268 0.0
H1838 H 0.11257 0.71566 0.74573 0.0
H1839 H 0.08371 0.72148 0.72299 0.0
S1840 S 0.14609 0.76982 0.6867 0.0
N1841 N 0.1532 0.75726 0.70728 0.0
N1842 N 0.12186 0.7641 0.68312 0.0
C1843 C 0.1186 0.75124 0.69898 0.0
C1844 C 0.13553 0.74773 0.71221 0.0
C1845 C 0.97417 0.63728 0.55187 0.0
C1846 C 0.98865 0.6324 0.53694 0.0
C1847 C 0.97694 0.65404 0.56488 0.0
C1848 C 0.99439 0.66644 0.56359 0.0
H1849 H 0.96041 0.62828 0.55327 0.0
H1850 H 0.96534 0.6573 0.57608 0.0
S1851 S 0.03704 0.6599 0.52742 0.0
N1852 N 0.02128 0.64101 0.52194 0.0
N1853 N 0.02636 0.67267 0.54622 0.0
C1854 C 0.00909 0.66159 0.5489 0.0
C1855 C 1.00623 0.64457 0.53559 0.0
C1856 C 0.78131 0.90331 0.22875 0.0
C1857 C 0.78631 0.88374 0.23592 0.0
C1858 C 0.79441 0.91994 0.23188 0.0
C1859 C 0.81306 0.91762 0.24217 0.0
H1860 H 0.7673 0.90573 0.22037 0.0
H1861 H 0.79008 0.93467 0.22591 0.0
S1862 S 0.83255 0.87017 0.26555 0.0
N1863 N 0.81066 0.86342 0.25504 0.0
N1864 N 0.83541 0.89463 0.26051 0.0
C1865 C 0.81814 0.89828 0.24968 0.0
C1866 C 0.80474 0.88137 0.24666 0.0
C1867 C 0.79852 0.12732 0.29543 0.0
C1868 C 0.78473 0.13375 0.28035 0.0
C1869 C 0.81172 0.11098 0.29194 0.0
C1870 C 0.81173 0.10052 0.27318 0.0
H1871 H 0.79892 0.13483 0.31015 0.0
H1872 H 0.82184 0.10634 0.30414 0.0
S1873 S 0.77968 0.11266 0.22812 0.0
N1874 N 0.77249 0.12914 0.24566 0.0
N1875 N 0.79753 0.09866 0.23891 0.0
C1876 C 0.79822 0.10706 0.25785 0.0
C1877 C 0.78468 0.12361 0.26147 0.0
C1878 C 0.37728 0.96785 0.97135 0.0
C1879 C 0.38222 0.98313 0.98563 0.0
C1880 C 0.36085 0.95456 0.97444 0.0
C1881 C 0.34867 0.95596 0.99196 0.0
H1882 H 0.38631 0.96599 0.95772 0.0
H1883 H 0.35757 0.9432 0.96288 0.0
S1884 S 0.3551 0.99335 0.03405 0.0
N1885 N 0.37323 0.99921 0.01777 0.0
N1886 N 0.34298 0.97366 0.02403 0.0
C1887 C 0.35347 0.97114 1.00642 0.0
C1888 C 0.37009 0.9848 1.00318 0.0
C1889 C 0.21902 0.39177 0.29623 0.0
C1890 C 0.23323 0.38584 0.28144 0.0
C1891 C 0.20581 0.40813 0.29281 0.0
C1892 C 0.20624 0.41914 0.27443 0.0
H1893 H 0.21827 0.38383 0.31067 0.0
H1894 H 0.19531 0.41234 0.30476 0.0
S1895 S 0.2395 0.40855 0.23017 0.0
N1896 N 0.24631 0.39154 0.24737 0.0
N1897 N 0.22134 0.42215 0.24082 0.0
C1898 C 0.2202 0.41315 0.2594 0.0
C1899 C 0.23371 0.39655 0.26294 0.0
C1900 C 0.14943 0.03205 0.49683 0.0
C1901 C 0.13407 0.03687 0.48266 0.0
C1902 C 0.16598 0.04519 0.50018 0.0
C1903 C 0.16765 0.06376 0.48966 0.0
H1904 H 0.14876 0.01788 0.50523 0.0
H1905 H 0.17746 0.04088 0.51124 0.0
S1906 S 0.1314 0.08356 0.45108 0.0
N1907 N 0.12146 0.0616 0.4582 0.0
N1908 N 0.15265 0.08621 0.46436 0.0
C1909 C 0.15236 0.0688 0.47551 0.0
C1910 C 0.13558 0.05537 0.47202 0.0
C1911 C 0.71621 0.12781 0.72095 0.0
C1912 C 0.73092 0.13335 0.7356 0.0
C1913 C 0.70308 0.11123 0.72414 0.0
C1914 C 0.70415 0.09962 0.74212 0.0
H1915 H 0.71503 0.13616 0.70678 0.0
H1916 H 0.69221 0.1073 0.71229 0.0
S1917 S 0.73874 0.10912 0.78601 0.0
N1918 N 0.74501 0.12672 0.76922 0.0
N1919 N 0.72027 0.0957 0.7753 0.0
C1920 C 0.71855 0.10528 0.75704 0.0
C1921 C 0.73194 0.1221 0.75376 0.0
C1922 C 0.3862 0.05723 0.52403 0.0
C1923 C 0.38347 0.03828 0.53361 0.0
C1924 C 0.36982 0.07053 0.52108 0.0
C1925 C 0.35007 0.0652 0.52731 0.0
H1926 H 0.40116 0.06188 0.51896 0.0
H1927 H 0.37255 0.08497 0.51361 0.0
S1928 S 0.33484 0.01736 0.55304 0.0
N1929 N 0.35952 0.01486 0.54928 0.0
N1930 N 0.32873 0.03986 0.54368 0.0
C1931 C 0.34713 0.04631 0.53688 0.0
C1932 C 0.36383 0.03286 0.54006 0.0
C1933 C 0.64685 0.48374 0.51665 0.0
C1934 C 0.63485 0.48252 0.53432 0.0
C1935 C 0.663 0.47025 0.51335 0.0
C1936 C 0.66785 0.45499 0.52757 0.0
H1937 H 0.64386 0.49532 0.50532 0.0
H1938 H 0.6716 0.47168 0.49939 0.0
S1939 S 0.64126 0.44537 0.57642 0.0
N1940 N 0.62874 0.4645 0.56606 0.0
N1941 N 0.65965 0.43985 0.56033 0.0
C1942 C 0.65608 0.4537 0.54539 0.0
C1943 C 0.6395 0.4673 0.54866 0.0
C1944 C 0.74489 0.30362 0.38278 0.0
C1945 C 0.73427 0.28516 0.3854 0.0
C1946 C 0.74828 0.31697 0.39917 0.0
C1947 C 0.74131 0.31229 0.41883 0.0
H1948 H 0.75084 0.3077 0.36797 0.0
H1949 H 0.75663 0.33095 0.39649 0.0
S1950 S 0.71135 0.26679 0.43359 0.0
N1951 N 0.71576 0.26355 0.40905 0.0
N1952 N 0.72248 0.2885 0.43988 0.0
C1953 C 0.73053 0.29403 0.42167 0.0
C1954 C 0.72693 0.2805 0.40497 0.0
C1955 C 0.53299 0.01899 0.8713 0.0
C1956 C 0.53456 0.03654 0.88356 0.0
C1957 C 0.5464 0.01559 0.85511 0.0
C1958 C 0.56194 0.02962 0.8505 0.0
H1959 H 0.52119 0.0078 0.87413 0.0
H1960 H 0.54471 1.00172 0.84631 0.0
S1961 S 0.57252 0.0781 0.87782 0.0
N1962 N 0.55316 0.06799 0.89015 0.0
N1963 N 0.57776 0.06205 0.85921 0.0
C1964 C 0.5636 0.04732 0.86253 0.0
C1965 C 0.55004 0.0507 0.87913 0.0
C1966 C 0.29163 0.21435 0.38521 0.0
C1967 C 0.28198 0.23342 0.38451 0.0
C1968 C 0.28836 0.20092 0.40146 0.0
C1969 C 0.27557 0.2062 0.41773 0.0
H1970 H 0.30161 0.20969 0.37299 0.0
H1971 H 0.29607 0.18637 0.4014 0.0
S1972 S 0.24686 0.25436 0.42324 0.0
N1973 N 0.25921 0.25695 0.40154 0.0
N1974 N 0.25308 0.23168 0.43209 0.0
C1975 C 0.2659 0.22524 0.41727 0.0
C1976 C 0.26908 0.23884 0.40064 0.0
C1977 C 0.46344 0.49457 0.88376 0.0
C1978 C 0.48172 0.48389 0.88079 0.0
C1979 C 0.44999 0.49825 0.86753 0.0
C1980 C 0.45441 0.49155 0.8477 0.0
H1981 H 0.4596 0.5004 0.8987 0.0
H1982 H 0.43617 0.50667 0.87045 0.0
S1983 S 0.49923 0.46143 0.83199 0.0
N1984 N 0.50276 0.46547 0.8566 0.0
N1985 N 0.47766 0.47282 0.82608 0.0
C1986 C 0.47244 0.48064 0.84451 0.0
C1987 C 0.48606 0.47672 0.86105 0.0
C1988 C 0.72677 0.71131 0.13311 0.0
C1989 C 0.73692 0.73018 0.13435 0.0
C1990 C 0.73005 0.69798 0.11673 0.0
C1991 C 0.74337 0.70318 0.10085 0.0
H1992 H 0.71633 0.70676 0.14499 0.0
H1993 H 0.72185 0.68365 0.11632 0.0
S1994 S 0.77365 0.75074 0.09686 0.0
N1995 N 0.76081 0.75337 0.11827 0.0
N1996 N 0.76702 0.72829 0.08753 0.0
C1997 C 0.75363 0.72196 0.10191 0.0
C1998 C 0.75042 0.73546 0.11866 0.0
C1999 C 0.96639 0.04626 0.13824 0.0
C2000 C 0.98138 0.03189 0.1332 0.0
C2001 C 0.95317 0.04311 0.15463 0.0
C2002 C 0.95433 0.02544 0.16668 0.0
H2003 H 0.96472 0.06001 0.12933 0.0
H2004 H 0.94203 0.05474 0.158 0.0
S2005 S 0.99093 0.98307 0.15995 0.0
N2006 N 0.99694 0.9995 0.14195 0.0
N2007 N 0.97151 0.99314 0.17213 0.0
C2008 C 0.96922 0.01089 0.16178 0.0
C2009 C 0.98282 0.01419 0.14519 0.0
C2010 C 0.29573 0.80032 0.12733 0.0
C2011 C 0.28065 0.78646 0.13355 0.0
C2012 C 0.29236 0.81362 0.11099 0.0
C2013 C 0.27373 0.81366 0.10031 0.0
H2014 H 0.31035 0.80071 0.13501 0.0
H2015 H 0.30454 0.8238 0.10653 0.0
S2016 S 0.22873 0.78145 0.11177 0.0
N2017 N 0.2461 0.7742 0.12848 0.0
N2018 N 0.2396 0.79938 0.09794 0.0
C2019 C 0.25841 0.80006 0.1066 0.0
C2020 C 0.26191 0.78644 0.12317 0.0
C2021 C 0.0542 0.49483 0.13313 0.0
C2022 C 0.03553 0.48465 0.13592 0.0
C2023 C 0.06757 0.49828 0.14951 0.0
C2024 C 0.06272 0.49181 0.1693 0.0
H2025 H 0.05841 0.50041 0.11821 0.0
H2026 H 0.0817 0.50632 0.14671 0.0
S2027 S 0.01668 0.46302 0.18453 0.0
N2028 N 0.01356 0.46702 0.15988 0.0
N2029 N 0.03858 0.47385 0.19067 0.0
C2030 C 0.04427 0.48142 0.1723 0.0
C2031 C 0.03071 0.47777 0.15562 0.0
C2032 C 0.38548 0.72722 0.30465 0.0
C2033 C 0.38472 0.73702 0.28562 0.0
C2034 C 0.40177 0.73047 0.31816 0.0
C2035 C 0.41804 0.74339 0.31299 0.0
H2036 H 0.37325 0.71715 0.30923 0.0
H2037 H 0.40175 0.72265 0.33267 0.0
S2038 S 0.42343 0.77251 0.26497 0.0
N2039 N 0.40171 0.76007 0.26225 0.0
N2040 N 0.43235 0.76617 0.28765 0.0
C2041 C 0.41753 0.75321 0.29399 0.0
C2042 C 0.40085 0.75005 0.28032 0.0
C2043 C 0.97657 0.36438 0.98482 0.0
C2044 C 0.9857 0.38351 0.98162 0.0
C2045 C 0.98008 0.34802 0.97153 0.0
C2046 C 0.99273 0.35021 0.95443 0.0
H2047 H 0.96682 0.36195 0.99785 0.0
H2048 H 0.97268 0.33359 0.97457 0.0
S2049 S 0.02008 0.3972 0.93909 0.0
N2050 N 0.00764 0.4038 0.95986 0.0
N2051 N 0.01457 0.37297 0.93514 0.0
C2052 C 1.0019 0.36927 0.95101 0.0
C2053 C 0.99834 0.38591 0.96455 0.0
C2054 C 0.63533 0.77295 0.30412 0.0
C2055 C 0.63282 0.78274 0.2852 0.0
C2056 C 0.61883 0.76989 0.31724 0.0
C2057 C 0.59916 0.77636 0.31187 0.0
H2058 H 0.65013 0.76737 0.30873 0.0
H2059 H 0.62141 0.76214 0.33157 0.0
S2060 S 0.58465 0.80422 0.26498 0.0
N2061 N 0.60925 0.80005 0.26244 0.0
N2062 N 0.57822 0.79389 0.28694 0.0
C2063 C 0.59644 0.78636 0.29316 0.0
C2064 C 0.61325 0.78964 0.27987 0.0
C2065 C 0.02423 0.13303 0.96386 0.0
C2066 C 0.03449 0.13609 0.98252 0.0
C2067 C 0.02074 0.14919 0.95038 0.0
C2068 C 0.02722 0.16907 0.95512 0.0
H2069 H 0.01864 0.11804 0.95973 0.0
H2070 H 0.01266 0.14617 0.93626 0.0
S2071 S 0.05612 0.18506 1.00113 0.0
N2072 N 0.05216 0.16043 1.00438 0.0
N2073 N 0.04522 0.19084 0.97918 0.0
C2074 C 0.03766 0.17237 0.97358 0.0
C2075 C 0.04137 0.15589 0.98724 0.0
C2076 C 0.38185 0.27312 0.21352 0.0
C2077 C 0.38456 0.28356 0.23211 0.0
C2078 C 0.39816 0.26997 0.20021 0.0
C2079 C 0.41782 0.27703 0.20504 0.0
H2080 H 0.36704 0.26714 0.20931 0.0
H2081 H 0.39542 0.26175 0.18612 0.0
S2082 S 0.43277 0.30662 0.25093 0.0
N2083 N 0.40828 0.302 0.25402 0.0
N2084 N 0.43895 0.29576 0.22912 0.0
C2085 C 0.42074 0.28764 0.22344 0.0
C2086 C 0.40412 0.29098 0.23694 0.0
C2087 C 0.51577 0.37313 0.03457 0.0
C2088 C 0.53388 0.3846 0.03546 0.0
C2089 C 0.51221 0.35701 0.04808 0.0
C2090 C 0.52663 0.35164 0.06304 0.0
H2091 H 0.50426 0.37652 0.02321 0.0
H2092 H 0.49792 0.34883 0.04692 0.0
S2093 S 0.57666 0.37667 0.07172 0.0
N2094 N 0.56629 0.38964 0.05285 0.0
N2095 N 0.56005 0.35873 0.07752 0.0
C2096 C 0.5449 0.36285 0.064 0.0
C2097 C 0.54843 0.37942 0.05038 0.0
C2098 C 0.61982 0.25165 0.23419 0.0
C2099 C 0.63265 0.23477 0.23145 0.0
C2100 C 0.60341 0.25529 0.22097 0.0
C2101 C 0.59918 0.24223 0.20444 0.0
H2102 H 0.62237 0.26208 0.24676 0.0
H2103 H 0.5941 0.26861 0.2236 0.0
S2104 S 0.62805 0.19579 0.19061 0.0
N2105 N 0.64015 0.205 0.21073 0.0
N2106 N 0.60889 0.2114 0.18639 0.0
C2107 C 0.61181 0.22521 0.2016 0.0
C2108 C 0.62859 0.22157 0.21498 0.0
C2109 C 0.49968 0.14849 0.03443 0.0
C2110 C 0.48185 0.13667 0.0357 0.0
C2111 C 0.50307 0.165 0.04762 0.0
C2112 C 0.48875 0.17033 0.06256 0.0
H2113 H 0.51124 0.14476 0.02334 0.0
H2114 H 0.51718 0.17347 0.04633 0.0
S2115 S 0.43874 0.14541 0.07081 0.0
N2116 N 0.44917 0.13215 0.05222 0.0
N2117 N 0.45545 0.16326 0.07691 0.0
C2118 C 0.47067 0.15887 0.0637 0.0
C2119 C 0.46725 0.14203 0.05031 0.0
C2120 C 0.28179 0.40379 0.72801 0.0
C2121 C 0.286 0.38445 0.7362 0.0
C2122 C 0.29502 0.42031 0.73124 0.0
C2123 C 0.31299 0.4181 0.74272 0.0
H2124 H 0.2683 0.40612 0.71878 0.0
H2125 H 0.2913 0.43486 0.72445 0.0
S2126 S 0.33019 0.37121 0.76893 0.0
N2127 N 0.30885 0.36444 0.75736 0.0
N2128 N 0.33378 0.39543 0.76322 0.0
C2129 C 0.31726 0.39896 0.75123 0.0
C2130 C 0.30376 0.38216 0.74802 0.0
C2131 C 0.28284 0.61551 0.78816 0.0
C2132 C 0.28688 0.63487 0.77993 0.0
C2133 C 0.29606 0.59912 0.78491 0.0
C2134 C 0.31386 0.60148 0.77333 0.0
H2135 H 0.26947 0.61306 0.79743 0.0
H2136 H 0.29247 0.58456 0.79175 0.0
S2137 S 0.33054 0.64854 0.74701 0.0
N2138 N 0.30937 0.65511 0.75869 0.0
N2139 N 0.33426 0.62436 0.75269 0.0
C2140 C 0.31794 0.62067 0.76478 0.0
C2141 C 0.30446 0.63734 0.76804 0.0
C2142 C 0.8772 0.46786 0.47236 0.0
C2143 C 0.88265 0.48288 0.48675 0.0
C2144 C 0.86066 0.45476 0.47563 0.0
C2145 C 0.84888 0.45606 0.49344 0.0
H2146 H 0.88593 0.46604 0.45854 0.0
H2147 H 0.85701 0.44357 0.464 0.0
S2148 S 0.85664 0.49288 0.53582 0.0
N2149 N 0.87452 0.49869 0.51924 0.0
N2150 N 0.84405 0.47347 0.52581 0.0
C2151 C 0.85415 0.47102 0.50796 0.0
C2152 C 0.87089 0.4845 0.50454 0.0
C2153 C 0.73752 0.90411 0.78708 0.0
C2154 C 0.7315 0.88401 0.78233 0.0
C2155 C 0.7243 0.92057 0.78411 0.0
C2156 C 0.70453 0.9175 0.77652 0.0
H2157 H 0.75245 0.90714 0.79347 0.0
H2158 H 0.72944 0.93577 0.7881 0.0
S2159 S 0.68166 0.86849 0.76019 0.0
N2160 N 0.70469 0.8624 0.76821 0.0
N2161 N 0.67971 0.89333 0.76348 0.0
C2162 C 0.69833 0.89767 0.7715 0.0
C2163 C 0.71184 0.88093 0.7742 0.0
C2164 C 0.64768 0.53431 0.99773 0.0
C2165 C 0.63495 0.53611 0.98052 0.0
C2166 C 0.66397 0.54778 1.00103 0.0
C2167 C 0.66821 0.56362 0.98726 0.0
H2168 H 0.64512 0.5223 0.00871 0.0
H2169 H 0.67316 0.54591 0.01464 0.0
S2170 S 0.63964 0.57487 0.93969 0.0
N2171 N 0.62757 0.55522 0.94966 0.0
N2172 N 0.65867 0.57996 0.95541 0.0
C2173 C 0.65572 0.56549 0.96989 0.0
C2174 C 0.63903 0.55187 0.9666 0.0
C2175 C 0.21347 0.63654 0.24634 0.0
C2176 C 0.23183 0.63397 0.2357 0.0
C2177 C 0.20022 0.62011 0.24965 0.0
C2178 C 0.20487 0.60046 0.24256 0.0
H2179 H 0.20941 0.65133 0.25237 0.0
H2180 H 0.18633 0.62274 0.25805 0.0
S2181 S 0.25008 0.58586 0.21243 0.0
N2182 N 0.25329 0.6104 0.217 0.0
N2183 N 0.22851 0.5795 0.22355 0.0
C2184 C 0.22302 0.59769 0.23172 0.0
C2185 C 0.23646 0.61443 0.22822 0.0
C2186 C 0.86661 0.53481 0.04337 0.0
C2187 C 0.88439 0.53637 0.0316 0.0
C2188 C 0.85009 0.54788 0.0402 0.0
C2189 C 0.85061 0.56306 0.0251 0.0
H2190 H 0.86535 0.52325 0.05505 0.0
H2191 H 0.83687 0.54619 0.04984 0.0
S2192 S 0.89353 0.57352 0.99005 0.0
N2193 N 0.90165 0.55465 1.00449 0.0
N2194 N 0.87027 0.57854 0.99788 0.0
C2195 C 0.86824 0.56473 0.01312 0.0
C2196 C 0.88516 0.55154 0.01649 0.0
C2197 C 0.14924 0.98667 0.02039 0.0
C2198 C 0.133 0.98104 0.03308 0.0
C2199 C 0.16567 0.97352 0.01711 0.0
C2200 C 0.16629 0.95414 0.02617 0.0
H2201 H 0.14935 1.00146 0.01311 0.0
H2202 H 0.17786 0.97845 1.00723 0.0
S2203 S 0.12748 0.93206 0.06056 0.0
N2204 N 0.11849 0.95475 0.05464 0.0
N2205 N 0.14936 0.93003 0.04849 0.0
C2206 C 0.15011 0.94829 0.03883 0.0
C2207 C 0.13349 0.96175 0.04231 0.0
loop_
_geom_bond_atom_site_label_1
_geom_bond_atom_site_label_2
_geom_bond_distance
_geom_bond_site_symmetry_2
_ccdc_geom_bond_type
C0 C1 1.386 . S
C0 C2 1.397 . S
C0 H24 0.931 . S
C1 C0 1.386 . S
C1 C5 1.397 1_556 S
C2 C0 1.397 . S
C2 C3 1.384 1_556 S
C2 H25 0.930 . S
C3 C2 1.384 1_554 S
C3 C4 1.377 . S
C3 C6 1.481 . S
C4 C3 1.377 . S
C4 C5 1.389 . S
C4 H26 0.929 . S
C5 C1 1.397 1_554 S
C5 C4 1.389 . S
C5 H27 0.931 . S
C6 C3 1.481 . S
C6 C7 1.387 . S
C6 C11 1.390 . S
C7 C6 1.387 . S
C7 C8 1.401 . S
C7 H28 0.930 . S
C8 C7 1.401 . S
C8 C9 1.376 . S
C8 C17 1.511 . S
C9 C8 1.376 . S
C9 C10 1.392 . S
C9 H30 0.931 . S
C10 C9 1.392 . S
C10 C11 1.361 . S
C10 C12 1.500 . S
C11 C6 1.390 . S
C11 C10 1.361 . S
C11 H29 0.931 . S
C12 C10 1.500 . S
C12 C13 1.371 . S
C12 C14 1.365 1_455 S
C13 C12 1.371 . S
C13 C23 1.386 1_455 S
C13 H31 0.931 1_545 S
C14 C12 1.365 1_655 S
C14 C15 1.409 . S
C14 H32 0.917 1_655 S
C15 C14 1.409 . S
C15 C16 1.380 . S
C15 H33 0.930 . S
C16 C15 1.380 . S
C16 C23 1.357 . S
C17 C8 1.511 . S
C17 C18 1.341 . S
C17 C19 1.371 1_545 S
C18 C17 1.341 . S
C18 C22 1.394 1_545 S
C18 H34 0.930 1_554 S
C19 C17 1.371 1_565 S
C19 C20 1.392 . S
C19 H35 0.931 . S
C20 C19 1.392 . S
C20 C21 1.331 . S
C20 H38 0.932 . S
C21 C20 1.331 . S
C21 C22 1.336 . S
C22 C18 1.394 1_565 S
C22 C21 1.336 . S
C22 H37 0.929 1_554 S
C23 C13 1.386 1_655 S
C23 C16 1.357 . S
C23 H36 0.928 1_545 S
H24 C0 0.931 . S
H25 C2 0.930 . S
H26 C4 0.929 . S
H27 C5 0.931 . S
H28 C7 0.930 . S
H29 C11 0.931 . S
H30 C9 0.931 . S
H31 C13 0.931 1_565 S
H32 C14 0.917 1_455 S
H33 C15 0.930 . S
H34 C18 0.930 1_556 S
H35 C19 0.931 . S
H36 C23 0.928 1_565 S
H37 C22 0.929 1_556 S
H38 C20 0.932 . S
C39 C40 1.386 . S
C39 C41 1.397 . S
C39 H63 0.931 . S
C40 C39 1.386 . S
C40 C44 1.397 . S
C41 C39 1.397 . S
C41 C42 1.384 . S
C41 H64 0.930 . S
C42 C41 1.384 . S
C42 C43 1.377 . S
C42 C45 1.481 . S
C43 C42 1.377 . S
C43 C44 1.389 . S
C43 H65 0.929 . S
C44 C40 1.397 . S
C44 C43 1.389 . S
C44 H66 0.931 . S
C45 C42 1.481 . S
C45 C46 1.387 . S
C45 C50 1.390 . S
C46 C45 1.387 . S
C46 C47 1.401 . S
C46 H67 0.930 . S
C47 C46 1.401 . S
C47 C48 1.376 . S
C47 C56 1.511 . S
C48 C47 1.376 . S
C48 C49 1.392 . S
C48 H69 0.931 . S
C49 C48 1.392 . S
C49 C50 1.361 . S
C49 C51 1.500 . S
C50 C45 1.390 . S
C50 C49 1.361 . S
C50 H68 0.931 . S
C51 C49 1.500 . S
C51 C52 1.371 . S
C51 C53 1.365 . S
C52 C51 1.371 . S
C52 C62 1.386 . S
C52 H70 0.931 . S
C53 C51 1.365 . S
C53 C54 1.409 . S
C53 H71 0.929 . S
C54 C53 1.409 . S
C54 C55 1.380 . S
C54 H72 0.930 . S
C55 C54 1.380 . S
C55 C62 1.357 . S
C56 C47 1.511 . S
C56 C57 1.341 . S
C56 C58 1.371 . S
C57 C56 1.341 . S
C57 C61 1.394 . S
C57 H73 0.930 . S
C58 C56 1.371 . S
C58 C59 1.392 . S
C58 H74 0.931 . S
C59 C58 1.392 . S
C59 C60 1.331 . S
C59 H77 0.932 . S
C60 C59 1.331 . S
C60 C61 1.336 . S
C61 C57 1.394 . S
C61 C60 1.336 . S
C61 H76 0.929 . S
C62 C52 1.386 . S
C62 C55 1.357 . S
C62 H75 0.928 . S
H63 C39 0.931 . S
H64 C41 0.930 . S
H65 C43 0.929 . S
H66 C44 0.931 . S
H67 C46 0.930 . S
H68 C50 0.931 . S
H69 C48 0.931 . S
H70 C52 0.931 . S
H71 C53 0.929 . S
H72 C54 0.930 . S
H73 C57 0.930 . S
H74 C58 0.931 . S
H75 C62 0.928 . S
H76 C61 0.929 . S
H77 C59 0.932 . S
C78 C79 1.420 . S
C78 C80 1.376 1_455 S
C78 H102 0.919 1_455 S
C79 C78 1.420 . S
C79 C83 1.397 . S
C80 C78 1.376 1_655 S
C80 C81 1.384 . S
C80 H103 0.930 . S
C81 C80 1.384 . S
C81 C82 1.377 1_655 S
C81 C84 1.481 . S
C82 C81 1.377 1_455 S
C82 C83 1.389 . S
C82 H104 0.929 . S
C83 C79 1.397 . S
C83 C82 1.389 . S
C83 H105 0.931 . S
C84 C81 1.481 . S
C84 C85 1.387 . S
C84 C89 1.390 . S
C85 C84 1.387 . S
C85 C86 1.401 . S
C85 H106 0.930 . S
C86 C85 1.401 . S
C86 C87 1.376 . S
C86 C95 1.511 . S
C87 C86 1.376 . S
C87 C88 1.392 . S
C87 H108 0.931 . S
C88 C87 1.392 . S
C88 C89 1.361 . S
C88 C90 1.500 . S
C89 C84 1.390 . S
C89 C88 1.361 . S
C89 H107 0.931 . S
C90 C88 1.500 . S
C90 C91 1.371 1_554 S
C90 C92 1.365 . S
C91 C90 1.371 1_556 S
C91 C101 1.386 . S
C91 H109 0.941 . S
C92 C90 1.365 . S
C92 C93 1.409 1_554 S
C92 H110 0.929 1_655 S
C93 C92 1.409 1_556 S
C93 C94 1.380 . S
C93 H111 0.930 1_655 S
C94 C93 1.380 . S
C94 C101 1.357 . S
C95 C86 1.511 . S
C95 C96 1.341 . S
C95 C97 1.371 . S
C96 C95 1.341 . S
C96 C100 1.394 . S
C96 H112 0.930 . S
C97 C95 1.371 . S
C97 C98 1.392 . S
C97 H113 0.931 1_554 S
C98 C97 1.392 . S
C98 C99 1.331 . S
C98 H116 0.932 1_554 S
C99 C98 1.331 . S
C99 C100 1.336 . S
C100 C96 1.394 . S
C100 C99 1.336 . S
C100 H115 0.929 . S
C101 C91 1.386 . S
C101 C94 1.357 . S
C101 H114 0.928 . S
H102 C78 0.919 1_655 S
H103 C80 0.930 . S
H104 C82 0.929 . S
H105 C83 0.931 . S
H106 C85 0.930 . S
H107 C89 0.931 . S
H108 C87 0.931 . S
H109 C91 0.941 . S
H110 C92 0.929 1_455 S
H111 C93 0.930 1_455 S
H112 C96 0.930 . S
H113 C97 0.931 1_556 S
H114 C101 0.928 . S
H115 C100 0.929 . S
H116 C98 0.932 1_556 S
C117 C118 1.386 . S
C117 C119 1.397 . S
C117 H141 0.931 . S
C118 C117 1.386 . S
C118 C122 1.397 . S
C119 C117 1.397 . S
C119 C120 1.384 . S
C119 H142 0.930 . S
C120 C119 1.384 . S
C120 C121 1.377 . S
C120 C123 1.481 . S
C121 C120 1.377 . S
C121 C122 1.389 . S
C121 H143 0.929 . S
C122 C118 1.397 . S
C122 C121 1.389 . S
C122 H144 0.931 . S
C123 C120 1.481 . S
C123 C124 1.387 . S
C123 C128 1.390 . S
C124 C123 1.387 . S
C124 C125 1.401 . S
C124 H145 0.930 . S
C125 C124 1.401 . S
C125 C126 1.376 . S
C125 C134 1.511 . S
C126 C125 1.376 . S
C126 C127 1.392 . S
C126 H147 0.931 . S
C127 C126 1.392 . S
C127 C128 1.361 . S
C127 C129 1.500 . S
C128 C123 1.390 . S
C128 C127 1.361 . S
C128 H146 0.931 . S
C129 C127 1.500 . S
C129 C130 1.371 . S
C129 C131 1.365 . S
C130 C129 1.371 . S
C130 C140 1.386 . S
C130 H148 0.931 . S
C131 C129 1.365 . S
C131 C132 1.409 . S
C131 H149 0.929 . S
C132 C131 1.409 . S
C132 C133 1.380 . S
C132 H150 0.930 . S
C133 C132 1.380 . S
C133 C140 1.357 . S
C134 C125 1.511 . S
C134 C135 1.341 . S
C134 C136 1.371 . S
C135 C134 1.341 . S
C135 C139 1.394 . S
C135 H151 0.930 . S
C136 C134 1.371 . S
C136 C137 1.392 . S
C136 H152 0.931 . S
C137 C136 1.392 . S
C137 C138 1.331 . S
C137 H155 0.932 . S
C138 C137 1.331 . S
C138 C139 1.336 . S
C139 C135 1.394 . S
C139 C138 1.336 . S
C139 H154 0.929 . S
C140 C130 1.386 . S
C140 C133 1.357 . S
C140 H153 0.928 . S
H141 C117 0.931 . S
H142 C119 0.930 . S
H143 C121 0.929 . S
H144 C122 0.931 . S
H145 C124 0.930 . S
H146 C128 0.931 . S
H147 C126 0.931 . S
H148 C130 0.931 . S
H149 C131 0.929 . S
H150 C132 0.930 . S
H151 C135 0.930 . S
H152 C136 0.931 . S
H153 C140 0.928 . S
H154 C139 0.929 . S
H155 C137 0.932 . S
C156 C157 1.386 . S
C156 C158 1.397 . S
C156 H180 0.931 . S
C157 C156 1.386 . S
C157 C161 1.339 1_655 S
C158 C156 1.397 . S
C158 C159 1.384 1_655 S
C158 H181 0.930 . S
C159 C158 1.384 1_455 S
C159 C160 1.377 . S
C159 C162 1.481 . S
C160 C159 1.377 . S
C160 C161 1.425 . S
C160 H182 0.929 . S
C161 C157 1.339 1_455 S
C161 C160 1.425 . S
C161 H183 0.956 . S
C162 C159 1.481 . S
C162 C163 1.387 . S
C162 C167 1.390 . S
C163 C162 1.387 . S
C163 C164 1.401 . S
C163 H184 0.930 . S
C164 C163 1.401 . S
C164 C165 1.376 . S
C164 C173 1.511 . S
C165 C164 1.376 . S
C165 C166 1.392 . S
C165 H186 0.931 . S
C166 C165 1.392 . S
C166 C167 1.361 . S
C166 C168 1.500 . S
C167 C162 1.390 . S
C167 C166 1.361 . S
C167 H185 0.931 . S
C168 C166 1.500 . S
C168 C169 1.363 1_565 S
C168 C170 1.365 1_565 S
C169 C168 1.363 1_545 S
C169 C179 1.415 . S
C169 H187 0.912 1_545 S
C170 C168 1.365 1_545 S
C170 C171 1.409 . S
C170 H188 0.929 . S
C171 C170 1.409 . S
C171 C172 1.380 . S
C171 H189 0.930 . S
C172 C171 1.380 . S
C172 C179 1.357 . S
C173 C164 1.511 . S
C173 C174 1.341 . S
C173 C175 1.371 . S
C174 C173 1.341 . S
C174 C178 1.394 . S
C174 H190 0.930 1_455 S
C175 C173 1.371 . S
C175 C176 1.392 . S
C175 H191 0.931 . S
C176 C175 1.392 . S
C176 C177 1.331 . S
C176 H194 0.932 . S
C177 C176 1.331 . S
C177 C178 1.336 . S
C178 C174 1.394 . S
C178 C177 1.336 . S
C178 H193 0.929 1_455 S
C179 C169 1.415 . S
C179 C172 1.357 . S
C179 H192 0.928 . S
H180 C156 0.931 . S
H181 C158 0.930 . S
H182 C160 0.929 . S
H183 C161 0.956 . S
H184 C163 0.930 . S
H185 C167 0.931 . S
H186 C165 0.931 . S
H187 C169 0.912 1_565 S
H188 C170 0.929 . S
H189 C171 0.930 . S
H190 C174 0.930 1_655 S
H191 C175 0.931 . S
H192 C179 0.928 . S
H193 C178 0.929 1_655 S
H194 C176 0.932 . S
C195 C196 1.386 . S
C195 C197 1.397 . S
C195 H219 0.931 . S
C196 C195 1.386 . S
C196 C200 1.397 . S
C197 C195 1.397 . S
C197 C198 1.384 . S
C197 H220 0.930 . S
C198 C197 1.384 . S
C198 C199 1.377 . S
C198 C201 1.481 . S
C199 C198 1.377 . S
C199 C200 1.389 . S
C199 H221 0.929 . S
C200 C196 1.397 . S
C200 C199 1.389 . S
C200 H222 0.931 . S
C201 C198 1.481 . S
C201 C202 1.387 . S
C201 C206 1.390 . S
C202 C201 1.387 . S
C202 C203 1.401 . S
C202 H223 0.930 . S
C203 C202 1.401 . S
C203 C204 1.376 . S
C203 C212 1.511 . S
C204 C203 1.376 . S
C204 C205 1.392 . S
C204 H225 0.931 . S
C205 C204 1.392 . S
C205 C206 1.361 . S
C205 C207 1.500 . S
C206 C201 1.390 . S
C206 C205 1.361 . S
C206 H224 0.931 . S
C207 C205 1.500 . S
C207 C208 1.371 . S
C207 C209 1.365 . S
C208 C207 1.371 . S
C208 C218 1.386 . S
C208 H226 0.931 . S
C209 C207 1.365 . S
C209 C210 1.409 . S
C209 H227 0.929 . S
C210 C209 1.409 . S
C210 C211 1.380 . S
C210 H228 0.930 . S
C211 C210 1.380 . S
C211 C218 1.357 . S
C212 C203 1.511 . S
C212 C213 1.341 . S
C212 C214 1.371 . S
C213 C212 1.341 . S
C213 C217 1.394 . S
C213 H229 0.930 . S
C214 C212 1.371 . S
C214 C215 1.392 . S
C214 H230 0.931 . S
C215 C214 1.392 . S
C215 C216 1.331 . S
C215 H233 0.932 . S
C216 C215 1.331 . S
C216 C217 1.336 . S
C217 C213 1.394 . S
C217 C216 1.336 . S
C217 H232 0.929 . S
C218 C208 1.386 . S
C218 C211 1.357 . S
C218 H231 0.928 . S
H219 C195 0.931 . S
H220 C197 0.930 . S
H221 C199 0.929 . S
H222 C200 0.931 . S
H223 C202 0.930 . S
H224 C206 0.931 . S
H225 C204 0.931 . S
H226 C208 0.931 . S
H227 C209 0.929 . S
H228 C210 0.930 . S
H229 C213 0.930 . S
H230 C214 0.931 . S
H231 C218 0.928 . S
H232 C217 0.929 . S
H233 C215 0.932 . S
C234 C235 1.386 . S
C234 C236 1.397 . S
C234 H258 0.931 . S
C235 C234 1.386 . S
C235 C239 1.397 . S
C236 C234 1.397 . S
C236 C237 1.384 . S
C236 H259 0.930 . S
C237 C236 1.384 . S
C237 C238 1.377 . S
C237 C240 1.481 . S
C238 C237 1.377 . S
C238 C239 1.389 . S
C238 H260 0.929 . S
C239 C235 1.397 . S
C239 C238 1.389 . S
C239 H261 0.931 . S
C240 C237 1.481 . S
C240 C241 1.387 . S
C240 C245 1.390 . S
C241 C240 1.387 . S
C241 C242 1.401 . S
C241 H262 0.930 . S
C242 C241 1.401 . S
C242 C243 1.376 . S
C242 C251 1.511 . S
C243 C242 1.376 . S
C243 C244 1.392 . S
C243 H264 0.931 . S
C244 C243 1.392 . S
C244 C245 1.361 . S
C244 C246 1.500 . S
C245 C240 1.390 . S
C245 C244 1.361 . S
C245 H263 0.931 . S
C246 C244 1.500 . S
C246 C247 1.371 . S
C246 C248 1.365 . S
C247 C246 1.371 . S
C247 C257 1.386 . S
C247 H265 0.931 . S
C248 C246 1.365 . S
C248 C249 1.409 . S
C248 H266 0.929 . S
C249 C248 1.409 . S
C249 C250 1.380 . S
C249 H267 0.930 . S
C250 C249 1.380 . S
C250 C257 1.357 . S
C251 C242 1.511 . S
C251 C252 1.341 1_655 S
C251 C253 1.371 . S
C252 C251 1.341 1_455 S
C252 C256 1.394 . S
C252 H268 0.930 . S
C253 C251 1.371 . S
C253 C254 1.392 1_655 S
C253 H269 0.931 . S
C254 C253 1.392 1_455 S
C254 C255 1.331 . S
C254 H272 0.932 . S
C255 C254 1.331 . S
C255 C256 1.336 . S
C256 C252 1.394 . S
C256 C255 1.336 . S
C256 H271 0.929 . S
C257 C247 1.386 . S
C257 C250 1.357 . S
C257 H270 0.928 . S
H258 C234 0.931 . S
H259 C236 0.930 . S
H260 C238 0.929 . S
H261 C239 0.931 . S
H262 C241 0.930 . S
H263 C245 0.931 . S
H264 C243 0.931 . S
H265 C247 0.931 . S
H266 C248 0.929 . S
H267 C249 0.930 . S
H268 C252 0.930 . S
H269 C253 0.931 . S
H270 C257 0.928 . S
H271 C256 0.929 . S
H272 C254 0.932 . S
C273 C274 1.386 . S
C273 C275 1.397 . S
C273 H297 0.931 . S
C274 C273 1.386 . S
C274 C278 1.397 . S
C275 C273 1.397 . S
C275 C276 1.384 . S
C275 H298 0.930 . S
C276 C275 1.384 . S
C276 C277 1.377 . S
C276 C279 1.481 . S
C277 C276 1.377 . S
C277 C278 1.389 . S
C277 H299 0.929 . S
C278 C274 1.397 . S
C278 C277 1.389 . S
C278 H300 0.931 . S
C279 C276 1.481 . S
C279 C280 1.387 . S
C279 C284 1.390 . S
C280 C279 1.387 . S
C280 C281 1.401 . S
C280 H301 0.930 . S
C281 C280 1.401 . S
C281 C282 1.376 . S
C281 C290 1.511 . S
C282 C281 1.376 . S
C282 C283 1.392 . S
C282 H303 0.931 . S
C283 C282 1.392 . S
C283 C284 1.361 . S
C283 C285 1.500 . S
C284 C279 1.390 . S
C284 C283 1.361 . S
C284 H302 0.931 . S
C285 C283 1.500 . S
C285 C286 1.371 . S
C285 C287 1.365 . S
C286 C285 1.371 . S
C286 C296 1.386 . S
C286 H304 0.931 . S
C287 C285 1.365 . S
C287 C288 1.409 . S
C287 H305 0.929 . S
C288 C287 1.409 . S
C288 C289 1.380 . S
C288 H306 0.930 . S
C289 C288 1.380 . S
C289 C296 1.357 . S
C290 C281 1.511 . S
C290 C291 1.341 . S
C290 C292 1.371 . S
C291 C290 1.341 . S
C291 C295 1.394 . S
C291 H307 0.930 . S
C292 C290 1.371 . S
C292 C293 1.392 . S
C292 H308 0.931 . S
C293 C292 1.392 . S
C293 C294 1.331 . S
C293 H311 0.932 . S
C294 C293 1.331 . S
C294 C295 1.336 . S
C295 C291 1.394 . S
C295 C294 1.336 . S
C295 H310 0.929 . S
C296 C286 1.386 . S
C296 C289 1.357 . S
C296 H309 0.928 . S
H297 C273 0.931 . S
H298 C275 0.930 . S
H299 C277 0.929 . S
H300 C278 0.931 . S
H301 C280 0.930 . S
H302 C284 0.931 . S
H303 C282 0.931 . S
H304 C286 0.931 . S
H305 C287 0.929 . S
H306 C288 0.930 . S
H307 C291 0.930 . S
H308 C292 0.931 . S
H309 C296 0.928 . S
H310 C295 0.929 . S
H311 C293 0.932 . S
C312 C313 1.386 . S
C312 C314 1.397 . S
C312 H336 0.931 . S
C313 C312 1.386 . S
C313 C317 1.397 . S
C314 C312 1.397 . S
C314 C315 1.384 . S
C314 H337 0.930 . S
C315 C314 1.384 . S
C315 C316 1.377 . S
C315 C318 1.481 . S
C316 C315 1.377 . S
C316 C317 1.389 . S
C316 H338 0.929 . S
C317 C313 1.397 . S
C317 C316 1.389 . S
C317 H339 0.931 . S
C318 C315 1.481 . S
C318 C319 1.387 . S
C318 C323 1.390 . S
C319 C318 1.387 . S
C319 C320 1.401 . S
C319 H340 0.930 . S
C320 C319 1.401 . S
C320 C321 1.376 . S
C320 C329 1.511 . S
C321 C320 1.376 . S
C321 C322 1.392 . S
C321 H342 0.931 . S
C322 C321 1.392 . S
C322 C323 1.361 . S
C322 C324 1.500 . S
C323 C318 1.390 . S
C323 C322 1.361 . S
C323 H341 0.931 . S
C324 C322 1.500 . S
C324 C325 1.371 . S
C324 C326 1.365 . S
C325 C324 1.371 . S
C325 C335 1.386 . S
C325 H343 0.931 . S
C326 C324 1.365 . S
C326 C327 1.409 . S
C326 H344 0.929 . S
C327 C326 1.409 . S
C327 C328 1.380 . S
C327 H345 0.930 . S
C328 C327 1.380 . S
C328 C335 1.357 . S
C329 C320 1.511 . S
C329 C330 1.341 . S
C329 C331 1.371 . S
C330 C329 1.341 . S
C330 C334 1.394 . S
C330 H346 0.930 . S
C331 C329 1.371 . S
C331 C332 1.392 . S
C331 H347 0.931 . S
C332 C331 1.392 . S
C332 C333 1.331 . S
C332 H350 0.932 . S
C333 C332 1.331 . S
C333 C334 1.336 . S
C334 C330 1.394 . S
C334 C333 1.336 . S
C334 H349 0.929 . S
C335 C325 1.386 . S
C335 C328 1.357 . S
C335 H348 0.928 . S
H336 C312 0.931 . S
H337 C314 0.930 . S
H338 C316 0.929 . S
H339 C317 0.931 . S
H340 C319 0.930 . S
H341 C323 0.931 . S
H342 C321 0.931 . S
H343 C325 0.931 . S
H344 C326 0.929 . S
H345 C327 0.930 . S
H346 C330 0.930 . S
H347 C331 0.931 . S
H348 C335 0.928 . S
H349 C334 0.929 . S
H350 C332 0.932 . S
C351 C352 1.386 . S
C351 C353 1.397 . S
C351 H375 0.931 . S
C352 C351 1.386 . S
C352 C356 1.397 . S
C353 C351 1.397 . S
C353 C354 1.384 . S
C353 H376 0.930 . S
C354 C353 1.384 . S
C354 C355 1.377 . S
C354 C357 1.481 . S
C355 C354 1.377 . S
C355 C356 1.389 . S
C355 H377 0.929 . S
C356 C352 1.397 . S
C356 C355 1.389 . S
C356 H378 0.931 . S
C357 C354 1.481 . S
C357 C358 1.387 . S
C357 C362 1.390 . S
C358 C357 1.387 . S
C358 C359 1.401 . S
C358 H379 0.930 . S
C359 C358 1.401 . S
C359 C360 1.376 . S
C359 C368 1.511 . S
C360 C359 1.376 . S
C360 C361 1.392 . S
C360 H381 0.931 . S
C361 C360 1.392 . S
C361 C362 1.361 . S
C361 C363 1.500 . S
C362 C357 1.390 . S
C362 C361 1.361 . S
C362 H380 0.931 . S
C363 C361 1.500 . S
C363 C364 1.371 . S
C363 C365 1.365 . S
C364 C363 1.371 . S
C364 C374 1.386 . S
C364 H382 0.931 . S
C365 C363 1.365 . S
C365 C366 1.409 . S
C365 H383 0.929 . S
C366 C365 1.409 . S
C366 C367 1.380 . S
C366 H384 0.930 . S
C367 C366 1.380 . S
C367 C374 1.357 . S
C368 C359 1.511 . S
C368 C369 1.341 1_565 S
C368 C370 1.371 . S
C369 C368 1.341 1_545 S
C369 C373 1.394 . S
C369 H385 0.930 . S
C370 C368 1.371 . S
C370 C371 1.392 1_565 S
C370 H386 0.931 . S
C371 C370 1.392 1_545 S
C371 C372 1.331 . S
C371 H389 0.932 . S
C372 C371 1.331 . S
C372 C373 1.336 . S
C373 C369 1.394 . S
C373 C372 1.336 . S
C373 H388 0.929 . S
C374 C364 1.386 . S
C374 C367 1.357 . S
C374 H387 0.928 . S
H375 C351 0.931 . S
H376 C353 0.930 . S
H377 C355 0.929 . S
H378 C356 0.931 . S
H379 C358 0.930 . S
H380 C362 0.931 . S
H381 C360 0.931 . S
H382 C364 0.931 . S
H383 C365 0.929 . S
H384 C366 0.930 . S
H385 C369 0.930 . S
H386 C370 0.931 . S
H387 C374 0.928 . S
H388 C373 0.929 . S
H389 C371 0.932 . S
C390 C391 1.386 . S
C390 C392 1.397 . S
C390 H414 0.931 . S
C391 C390 1.386 . S
C391 C395 1.397 . S
C392 C390 1.397 . S
C392 C393 1.384 . S
C392 H415 0.930 . S
C393 C392 1.384 . S
C393 C394 1.377 . S
C393 C396 1.481 . S
C394 C393 1.377 . S
C394 C395 1.389 . S
C394 H416 0.929 . S
C395 C391 1.397 . S
C395 C394 1.389 . S
C395 H417 0.931 . S
C396 C393 1.481 . S
C396 C397 1.387 . S
C396 C401 1.390 . S
C397 C396 1.387 . S
C397 C398 1.401 . S
C397 H418 0.930 . S
C398 C397 1.401 . S
C398 C399 1.376 . S
C398 C407 1.511 . S
C399 C398 1.376 . S
C399 C400 1.392 . S
C399 H420 0.931 . S
C400 C399 1.392 . S
C400 C401 1.361 . S
C400 C402 1.500 . S
C401 C396 1.390 . S
C401 C400 1.361 . S
C401 H419 0.931 . S
C402 C400 1.500 . S
C402 C403 1.371 . S
C402 C404 1.365 . S
C403 C402 1.371 . S
C403 C413 1.386 . S
C403 H421 0.931 . S
C404 C402 1.365 . S
C404 C405 1.409 . S
C404 H422 0.929 . S
C405 C404 1.409 . S
C405 C406 1.380 . S
C405 H423 0.930 . S
C406 C405 1.380 . S
C406 C413 1.357 . S
C407 C398 1.511 . S
C407 C408 1.341 . S
C407 C409 1.371 . S
C408 C407 1.341 . S
C408 C412 1.394 . S
C408 H424 0.930 . S
C409 C407 1.371 . S
C409 C410 1.392 . S
C409 H425 0.931 . S
C410 C409 1.392 . S
C410 C411 1.331 . S
C410 H428 0.932 . S
C411 C410 1.331 . S
C411 C412 1.336 . S
C412 C408 1.394 . S
C412 C411 1.336 . S
C412 H427 0.929 . S
C413 C403 1.386 . S
C413 C406 1.357 . S
C413 H426 0.928 . S
H414 C390 0.931 . S
H415 C392 0.930 . S
H416 C394 0.929 . S
H417 C395 0.931 . S
H418 C397 0.930 . S
H419 C401 0.931 . S
H420 C399 0.931 . S
H421 C403 0.931 . S
H422 C404 0.929 . S
H423 C405 0.930 . S
H424 C408 0.930 . S
H425 C409 0.931 . S
H426 C413 0.928 . S
H427 C412 0.929 . S
H428 C410 0.932 . S
C429 C430 1.386 . S
C429 C431 1.397 . S
C429 H453 0.931 . S
C430 C429 1.386 . S
C430 C434 1.397 . S
C431 C429 1.397 . S
C431 C432 1.384 . S
C431 H454 0.930 . S
C432 C431 1.384 . S
C432 C433 1.377 . S
C432 C435 1.481 . S
C433 C432 1.377 . S
C433 C434 1.389 . S
C433 H455 0.929 . S
C434 C430 1.397 . S
C434 C433 1.389 . S
C434 H456 0.931 . S
C435 C432 1.481 . S
C435 C436 1.387 . S
C435 C440 1.390 . S
C436 C435 1.387 . S
C436 C437 1.401 . S
C436 H457 0.930 . S
C437 C436 1.401 . S
C437 C438 1.376 . S
C437 C446 1.511 . S
C438 C437 1.376 . S
C438 C439 1.392 . S
C438 H459 0.931 . S
C439 C438 1.392 . S
C439 C440 1.361 . S
C439 C441 1.500 . S
C440 C435 1.390 . S
C440 C439 1.361 . S
C440 H458 0.931 . S
C441 C439 1.500 . S
C441 C442 1.371 . S
C441 C443 1.365 . S
C442 C441 1.371 . S
C442 C452 1.386 . S
C442 H460 0.931 . S
C443 C441 1.365 . S
C443 C444 1.409 . S
C443 H461 0.929 . S
C444 C443 1.409 . S
C444 C445 1.380 . S
C444 H462 0.930 . S
C445 C444 1.380 . S
C445 C452 1.357 . S
C446 C437 1.511 . S
C446 C447 1.341 . S
C446 C448 1.371 . S
C447 C446 1.341 . S
C447 C451 1.394 . S
C447 H463 0.930 . S
C448 C446 1.371 . S
C448 C449 1.392 . S
C448 H464 0.931 . S
C449 C448 1.392 . S
C449 C450 1.331 . S
C449 H467 0.932 . S
C450 C449 1.331 . S
C450 C451 1.336 . S
C451 C447 1.394 . S
C451 C450 1.336 . S
C451 H466 0.929 . S
C452 C442 1.386 . S
C452 C445 1.357 . S
C452 H465 0.928 . S
H453 C429 0.931 . S
H454 C431 0.930 . S
H455 C433 0.929 . S
H456 C434 0.931 . S
H457 C436 0.930 . S
H458 C440 0.931 . S
H459 C438 0.931 . S
H460 C442 0.931 . S
H461 C443 0.929 . S
H462 C444 0.930 . S
H463 C447 0.930 . S
H464 C448 0.931 . S
H465 C452 0.928 . S
H466 C451 0.929 . S
H467 C449 0.932 . S
C468 C469 1.386 . S
C468 C470 1.397 . S
C468 H492 0.931 . S
C469 C468 1.386 . S
C469 C473 1.397 . S
C470 C468 1.397 . S
C470 C471 1.384 . S
C470 H493 0.930 . S
C471 C470 1.384 . S
C471 C472 1.377 . S
C471 C474 1.481 . S
C472 C471 1.377 . S
C472 C473 1.389 . S
C472 H494 0.929 . S
C473 C469 1.397 . S
C473 C472 1.389 . S
C473 H495 0.931 . S
C474 C471 1.481 . S
C474 C475 1.387 . S
C474 C479 1.390 . S
C475 C474 1.387 . S
C475 C476 1.401 . S
C475 H496 0.930 . S
C476 C475 1.401 . S
C476 C477 1.376 . S
C476 C485 1.511 . S
C477 C476 1.376 . S
C477 C478 1.392 . S
C477 H498 0.931 . S
C478 C477 1.392 . S
C478 C479 1.361 . S
C478 C480 1.500 . S
C479 C474 1.390 . S
C479 C478 1.361 . S
C479 H497 0.931 . S
C480 C478 1.500 . S
C480 C481 1.371 . S
C480 C482 1.365 . S
C481 C480 1.371 . S
C481 C491 1.386 . S
C481 H499 0.931 . S
C482 C480 1.365 . S
C482 C483 1.409 . S
C482 H500 0.929 . S
C483 C482 1.409 . S
C483 C484 1.380 . S
C483 H501 0.930 . S
C484 C483 1.380 . S
C484 C491 1.357 . S
C485 C476 1.511 . S
C485 C486 1.341 . S
C485 C487 1.371 . S
C486 C485 1.341 . S
C486 C490 1.394 . S
C486 H502 0.930 . S
C487 C485 1.371 . S
C487 C488 1.392 . S
C487 H503 0.931 . S
C488 C487 1.392 . S
C488 C489 1.331 . S
C488 H506 0.932 . S
C489 C488 1.331 . S
C489 C490 1.336 . S
C490 C486 1.394 . S
C490 C489 1.336 . S
C490 H505 0.929 . S
C491 C481 1.386 . S
C491 C484 1.357 . S
C491 H504 0.928 . S
H492 C468 0.931 . S
H493 C470 0.930 . S
H494 C472 0.929 . S
H495 C473 0.931 . S
H496 C475 0.930 . S
H497 C479 0.931 . S
H498 C477 0.931 . S
H499 C481 0.931 . S
H500 C482 0.929 . S
H501 C483 0.930 . S
H502 C486 0.930 . S
H503 C487 0.931 . S
H504 C491 0.928 . S
H505 C490 0.929 . S
H506 C488 0.932 . S
C507 C508 1.386 . S
C507 C509 1.397 . S
C507 H531 0.931 . S
C508 C507 1.386 . S
C508 C512 1.397 . S
C509 C507 1.397 . S
C509 C510 1.384 . S
C509 H532 0.930 . S
C510 C509 1.384 . S
C510 C511 1.377 . S
C510 C513 1.481 . S
C511 C510 1.377 . S
C511 C512 1.389 . S
C511 H533 0.929 . S
C512 C508 1.397 . S
C512 C511 1.389 . S
C512 H534 0.931 . S
C513 C510 1.481 . S
C513 C514 1.387 . S
C513 C518 1.390 . S
C514 C513 1.387 . S
C514 C515 1.401 . S
C514 H535 0.930 . S
C515 C514 1.401 . S
C515 C516 1.376 . S
C515 C524 1.511 . S
C516 C515 1.376 . S
C516 C517 1.392 . S
C516 H537 0.931 . S
C517 C516 1.392 . S
C517 C518 1.361 . S
C517 C519 1.500 . S
C518 C513 1.390 . S
C518 C517 1.361 . S
C518 H536 0.931 . S
C519 C517 1.500 . S
C519 C520 1.371 . S
C519 C521 1.365 . S
C520 C519 1.371 . S
C520 C530 1.386 . S
C520 H538 0.931 1_556 S
C521 C519 1.365 . S
C521 C522 1.409 . S
C521 H539 0.929 . S
C522 C521 1.409 . S
C522 C523 1.380 . S
C522 H540 0.930 . S
C523 C522 1.380 . S
C523 C530 1.357 . S
C524 C515 1.511 . S
C524 C525 1.341 . S
C524 C526 1.371 1_556 S
C525 C524 1.341 . S
C525 C529 1.394 1_556 S
C525 H541 0.930 . S
C526 C524 1.371 1_554 S
C526 C527 1.392 . S
C526 H542 0.931 . S
C527 C526 1.392 . S
C527 C528 1.331 . S
C527 H545 0.932 . S
C528 C527 1.331 . S
C528 C529 1.336 . S
C529 C525 1.394 1_554 S
C529 C528 1.336 . S
C529 H544 0.929 . S
C530 C520 1.386 . S
C530 C523 1.357 . S
C530 H543 0.928 1_556 S
H531 C507 0.931 . S
H532 C509 0.930 . S
H533 C511 0.929 . S
H534 C512 0.931 . S
H535 C514 0.930 . S
H536 C518 0.931 . S
H537 C516 0.931 . S
H538 C520 0.931 1_554 S
H539 C521 0.929 . S
H540 C522 0.930 . S
H541 C525 0.930 . S
H542 C526 0.931 . S
H543 C530 0.928 1_554 S
H544 C529 0.929 . S
H545 C527 0.932 . S
C546 C547 1.386 . S
C546 C548 1.397 . S
C546 H570 0.931 . S
C547 C546 1.386 . S
C547 C551 1.397 . S
C548 C546 1.397 . S
C548 C549 1.384 . S
C548 H571 0.930 . S
C549 C548 1.384 . S
C549 C550 1.377 . S
C549 C552 1.481 . S
C550 C549 1.377 . S
C550 C551 1.389 . S
C550 H572 0.929 . S
C551 C547 1.397 . S
C551 C550 1.389 . S
C551 H573 0.931 . S
C552 C549 1.481 . S
C552 C553 1.387 . S
C552 C557 1.390 . S
C553 C552 1.387 . S
C553 C554 1.401 . S
C553 H574 0.930 . S
C554 C553 1.401 . S
C554 C555 1.376 . S
C554 C563 1.511 . S
C555 C554 1.376 . S
C555 C556 1.392 . S
C555 H576 0.931 . S
C556 C555 1.392 . S
C556 C557 1.361 . S
C556 C558 1.500 . S
C557 C552 1.390 . S
C557 C556 1.361 . S
C557 H575 0.931 . S
C558 C556 1.500 . S
C558 C559 1.371 . S
C558 C560 1.365 . S
C559 C558 1.371 . S
C559 C569 1.386 . S
C559 H577 0.931 . S
C560 C558 1.365 . S
C560 C561 1.409 . S
C560 H578 0.929 . S
C561 C560 1.409 . S
C561 C562 1.380 . S
C561 H579 0.930 . S
C562 C561 1.380 . S
C562 C569 1.357 . S
C563 C554 1.511 . S
C563 C564 1.341 . S
C563 C565 1.371 . S
C564 C563 1.341 . S
C564 C568 1.394 . S
C564 H580 0.930 . S
C565 C563 1.371 . S
C565 C566 1.392 . S
C565 H581 0.931 . S
C566 C565 1.392 . S
C566 C567 1.331 . S
C566 H584 0.932 . S
C567 C566 1.331 . S
C567 C568 1.336 . S
C568 C564 1.394 . S
C568 C567 1.336 . S
C568 H583 0.929 . S
C569 C559 1.386 . S
C569 C562 1.357 . S
C569 H582 0.928 . S
H570 C546 0.931 . S
H571 C548 0.930 . S
H572 C550 0.929 . S
H573 C551 0.931 . S
H574 C553 0.930 . S
H575 C557 0.931 . S
H576 C555 0.931 . S
H577 C559 0.931 . S
H578 C560 0.929 . S
H579 C561 0.930 . S
H580 C564 0.930 . S
H581 C565 0.931 . S
H582 C569 0.928 . S
H583 C568 0.929 . S
H584 C566 0.932 . S
C585 C586 1.386 . S
C585 C587 1.397 1_554 S
C585 H609 0.931 1_554 S
C586 C585 1.386 . S
C586 C590 1.397 . S
C587 C585 1.397 1_556 S
C587 C588 1.384 . S
C587 H610 0.930 . S
C588 C587 1.384 . S
C588 C589 1.377 1_556 S
C588 C591 1.481 . S
C589 C588 1.377 1_554 S
C589 C590 1.389 . S
C589 H611 0.929 . S
C590 C586 1.397 . S
C590 C589 1.389 . S
C590 H612 0.931 . S
C591 C588 1.481 . S
C591 C592 1.387 . S
C591 C596 1.390 . S
C592 C591 1.387 . S
C592 C593 1.401 . S
C592 H613 0.930 . S
C593 C592 1.401 . S
C593 C594 1.376 . S
C593 C602 1.511 . S
C594 C593 1.376 . S
C594 C595 1.392 . S
C594 H615 0.931 . S
C595 C594 1.392 . S
C595 C596 1.361 . S
C595 C597 1.500 . S
C596 C591 1.390 . S
C596 C595 1.361 . S
C596 H614 0.931 . S
C597 C595 1.500 . S
C597 C598 1.371 1_545 S
C597 C599 1.365 . S
C598 C597 1.371 1_565 S
C598 C608 1.386 . S
C598 H616 0.931 . S
C599 C597 1.365 . S
C599 C600 1.417 1_545 S
C599 H617 0.929 1_556 S
C600 C599 1.417 1_565 S
C600 C601 1.410 . S
C600 H618 0.895 1_556 S
C601 C600 1.410 . S
C601 C608 1.357 . S
C602 C593 1.511 . S
C602 C603 1.341 . S
C602 C604 1.371 . S
C603 C602 1.341 . S
C603 C607 1.394 . S
C603 H619 0.930 . S
C604 C602 1.371 . S
C604 C605 1.392 . S
C604 H620 0.931 1_545 S
C605 C604 1.392 . S
C605 C606 1.331 . S
C605 H623 0.932 1_545 S
C606 C605 1.331 . S
C606 C607 1.336 . S
C607 C603 1.394 . S
C607 C606 1.336 . S
C607 H622 0.929 . S
C608 C598 1.386 . S
C608 C601 1.357 . S
C608 H621 0.928 . S
H609 C585 0.931 1_556 S
H610 C587 0.930 . S
H611 C589 0.929 . S
H612 C590 0.931 . S
H613 C592 0.930 . S
H614 C596 0.931 . S
H615 C594 0.931 . S
H616 C598 0.931 . S
H617 C599 0.929 1_554 S
H618 C600 0.895 1_554 S
H619 C603 0.930 . S
H620 C604 0.931 1_565 S
H621 C608 0.928 . S
H622 C607 0.929 . S
H623 C605 0.932 1_565 S
Li624 N641 1.990 . S
Li624 O684 1.956 . S
Li624 O685 1.970 1_556 S
Li624 O686 1.961 . S
Li625 N649 1.990 . S
Li625 O684 1.970 1_554 S
Li625 O685 1.956 . S
Li625 O687 1.961 . S
Li626 N671 1.990 . S
Li626 O684 1.961 . S
Li626 O686 1.956 . S
Li626 O687 1.970 1_556 S
Li627 N677 1.990 . S
Li627 O685 1.961 . S
Li627 O686 1.970 1_554 S
Li627 O687 1.956 . S
C628 C630 1.348 1_556 S
C628 C631 1.356 . S
C628 O684 1.325 . S
N629 C632 1.314 1_556 S
N629 C633 1.279 . S
C630 C628 1.348 1_554 S
C630 C632 1.353 . S
C630 H688 0.929 . S
C631 C628 1.356 . S
C631 C633 1.358 . S
C631 H689 0.930 . S
C632 N629 1.314 1_554 S
C632 C630 1.353 . S
C632 H690 0.930 . S
C633 N629 1.279 . S
C633 C631 1.358 . S
C633 H691 0.930 . S
C634 C637 1.348 . S
C634 C638 1.356 . S
C634 O685 1.325 . S
C635 N636 1.279 . S
C635 C638 1.358 . S
C635 H692 0.930 . S
N636 C635 1.279 . S
N636 C639 1.314 . S
C637 C634 1.348 . S
C637 C639 1.353 . S
C637 H693 0.929 . S
C638 C634 1.356 . S
C638 C635 1.358 . S
C638 H694 0.930 . S
C639 N636 1.314 . S
C639 C637 1.353 . S
C639 H695 0.930 . S
C640 N641 1.314 . S
C640 C645 1.353 . S
C640 H646 0.930 . S
N641 Li624 1.990 . S
N641 C640 1.314 . S
N641 C643 1.279 . S
C642 C643 1.358 . S
C642 C644 1.356 . S
C642 H696 0.930 . S
C643 N641 1.279 . S
C643 C642 1.358 . S
C643 H647 0.930 . S
C644 C642 1.356 . S
C644 C645 1.348 . S
C645 C640 1.353 . S
C645 C644 1.348 . S
C645 H697 0.929 . S
H646 C640 0.930 . S
H647 C643 0.930 . S
C648 N649 1.314 . S
C648 C650 1.353 . S
C648 H654 0.930 . S
N649 Li625 1.990 . S
N649 C648 1.314 . S
N649 C652 1.279 . S
C650 C648 1.353 . S
C650 C653 1.348 . S
C650 H698 0.929 . S
C651 C652 1.358 . S
C651 C653 1.356 . S
C651 H699 0.930 . S
C652 N649 1.279 . S
C652 C651 1.358 . S
C652 H655 0.930 . S
C653 C650 1.348 . S
C653 C651 1.356 . S
H654 C648 0.930 . S
H655 C652 0.930 . S
C656 C658 1.348 . S
C656 C659 1.356 . S
C656 O686 1.325 . S
N657 C660 1.314 . S
N657 C661 1.279 . S
C658 C656 1.348 . S
C658 C660 1.353 . S
C658 H700 0.929 . S
C659 C656 1.356 . S
C659 C661 1.358 . S
C659 H701 0.930 . S
C660 N657 1.314 . S
C660 C658 1.353 . S
C660 H702 0.930 . S
C661 N657 1.279 . S
C661 C659 1.358 . S
C661 H703 0.930 . S
C662 C663 1.348 1_554 S
C662 C664 1.356 . S
C662 O687 1.325 . S
C663 C662 1.348 1_556 S
C663 C665 1.353 . S
C663 H704 0.929 . S
C664 C662 1.356 . S
C664 C666 1.358 . S
C664 H705 0.930 . S
C665 C663 1.353 . S
C665 N667 1.314 1_556 S
C665 H706 0.930 . S
C666 C664 1.358 . S
C666 N667 1.279 . S
C666 H707 0.930 . S
N667 C665 1.314 1_554 S
N667 C666 1.279 . S
C668 C670 1.353 . S
C668 N671 1.314 . S
C668 H674 0.930 . S
C669 N671 1.279 . S
C669 C672 1.358 . S
C669 H675 0.930 . S
C670 C668 1.353 . S
C670 C673 1.348 . S
C670 H708 0.929 . S
N671 Li626 1.990 . S
N671 C668 1.314 . S
N671 C669 1.279 . S
C672 C669 1.358 . S
C672 C673 1.356 . S
C672 H709 0.930 . S
C673 C670 1.348 . S
C673 C672 1.356 . S
H674 C668 0.930 . S
H675 C669 0.930 . S
C676 N677 1.314 . S
C676 C678 1.353 . S
C676 H682 0.930 . S
N677 Li627 1.990 . S
N677 C676 1.314 . S
N677 C680 1.279 . S
C678 C676 1.353 . S
C678 C681 1.348 . S
C678 H710 0.929 . S
C679 C680 1.358 . S
C679 C681 1.356 . S
C679 H711 0.930 . S
C680 N677 1.279 . S
C680 C679 1.358 . S
C680 H683 0.930 . S
C681 C678 1.348 . S
C681 C679 1.356 . S
H682 C676 0.930 . S
H683 C680 0.930 . S
O684 Li624 1.956 . S
O684 Li625 1.970 1_556 S
O684 Li626 1.961 . S
O684 C628 1.325 . S
O685 Li624 1.970 1_554 S
O685 Li625 1.956 . S
O685 Li627 1.961 . S
O685 C634 1.325 . S
O686 Li624 1.961 . S
O686 Li626 1.956 . S
O686 Li627 1.970 1_556 S
O686 C656 1.325 . S
O687 Li625 1.961 . S
O687 Li626 1.970 1_554 S
O687 Li627 1.956 . S
O687 C662 1.325 . S
H688 C630 0.929 . S
H689 C631 0.930 . S
H690 C632 0.930 . S
H691 C633 0.930 . S
H692 C635 0.930 . S
H693 C637 0.929 . S
H694 C638 0.930 . S
H695 C639 0.930 . S
H696 C642 0.930 . S
H697 C645 0.929 . S
H698 C650 0.929 . S
H699 C651 0.930 . S
H700 C658 0.929 . S
H701 C659 0.930 . S
H702 C660 0.930 . S
H703 C661 0.930 . S
H704 C663 0.929 . S
H705 C664 0.930 . S
H706 C665 0.930 . S
H707 C666 0.930 . S
H708 C670 0.929 . S
H709 C672 0.930 . S
H710 C678 0.929 . S
H711 C679 0.930 . S
Li712 N729 1.990 . S
Li712 O772 1.956 . S
Li712 O773 1.970 . S
Li712 O774 1.961 . S
Li713 N737 1.990 . S
Li713 O772 1.970 . S
Li713 O773 1.956 . S
Li713 O775 1.961 . S
Li714 N759 1.990 . S
Li714 O772 1.961 . S
Li714 O774 1.956 . S
Li714 O775 1.970 . S
Li715 N765 1.990 . S
Li715 O773 1.961 . S
Li715 O774 1.970 . S
Li715 O775 1.956 . S
C716 C718 1.348 . S
C716 C719 1.356 . S
C716 O772 1.325 . S
N717 C720 1.314 . S
N717 C721 1.279 . S
C718 C716 1.348 . S
C718 C720 1.353 . S
C718 H776 0.929 . S
C719 C716 1.356 . S
C719 C721 1.358 . S
C719 H777 0.930 . S
C720 N717 1.314 . S
C720 C718 1.353 . S
C720 H778 0.930 . S
C721 N717 1.279 . S
C721 C719 1.358 . S
C721 H779 0.930 . S
C722 C725 1.348 . S
C722 C726 1.356 . S
C722 O773 1.325 . S
C723 N724 1.279 . S
C723 C726 1.358 . S
C723 H780 0.930 . S
N724 C723 1.279 . S
N724 C727 1.314 . S
C725 C722 1.348 . S
C725 C727 1.353 . S
C725 H781 0.929 . S
C726 C722 1.356 . S
C726 C723 1.358 . S
C726 H782 0.930 . S
C727 N724 1.314 . S
C727 C725 1.353 . S
C727 H783 0.930 . S
C728 N729 1.314 . S
C728 C733 1.353 . S
C728 H734 0.930 . S
N729 Li712 1.990 . S
N729 C728 1.314 . S
N729 C731 1.279 . S
C730 C731 1.358 . S
C730 C732 1.356 . S
C730 H784 0.930 . S
C731 N729 1.279 . S
C731 C730 1.358 . S
C731 H735 0.930 . S
C732 C730 1.356 . S
C732 C733 1.348 . S
C733 C728 1.353 . S
C733 C732 1.348 . S
C733 H785 0.929 . S
H734 C728 0.930 . S
H735 C731 0.930 . S
C736 N737 1.314 . S
C736 C738 1.353 . S
C736 H742 0.930 . S
N737 Li713 1.990 . S
N737 C736 1.314 . S
N737 C740 1.279 . S
C738 C736 1.353 . S
C738 C741 1.348 . S
C738 H786 0.929 . S
C739 C740 1.358 . S
C739 C741 1.356 . S
C739 H787 0.930 . S
C740 N737 1.279 . S
C740 C739 1.358 . S
C740 H743 0.930 . S
C741 C738 1.348 . S
C741 C739 1.356 . S
H742 C736 0.930 . S
H743 C740 0.930 . S
C744 C746 1.348 . S
C744 C747 1.356 . S
C744 O774 1.325 . S
N745 C748 1.314 . S
N745 C749 1.279 . S
C746 C744 1.348 . S
C746 C748 1.353 . S
C746 H788 0.929 . S
C747 C744 1.356 . S
C747 C749 1.358 . S
C747 H789 0.930 . S
C748 N745 1.314 . S
C748 C746 1.353 . S
C748 H790 0.930 . S
C749 N745 1.279 . S
C749 C747 1.358 . S
C749 H791 0.930 . S
C750 C751 1.348 . S
C750 C752 1.356 . S
C750 O775 1.325 . S
C751 C750 1.348 . S
C751 C753 1.353 . S
C751 H792 0.929 . S
C752 C750 1.356 . S
C752 C754 1.358 . S
C752 H793 0.930 . S
C753 C751 1.353 . S
C753 N755 1.314 . S
C753 H794 0.930 . S
C754 C752 1.358 . S
C754 N755 1.279 . S
C754 H795 0.930 . S
N755 C753 1.314 . S
N755 C754 1.279 . S
C756 C758 1.353 . S
C756 N759 1.314 . S
C756 H762 0.930 . S
C757 N759 1.279 . S
C757 C760 1.358 . S
C757 H763 0.930 . S
C758 C756 1.353 . S
C758 C761 1.348 . S
C758 H796 0.929 . S
N759 Li714 1.990 . S
N759 C756 1.314 . S
N759 C757 1.279 . S
C760 C757 1.358 . S
C760 C761 1.356 . S
C760 H797 0.930 . S
C761 C758 1.348 . S
C761 C760 1.356 . S
H762 C756 0.930 . S
H763 C757 0.930 . S
C764 N765 1.314 . S
C764 C766 1.353 . S
C764 H770 0.930 . S
N765 Li715 1.990 . S
N765 C764 1.314 . S
N765 C768 1.279 . S
C766 C764 1.353 . S
C766 C769 1.348 . S
C766 H798 0.929 . S
C767 C768 1.358 . S
C767 C769 1.356 . S
C767 H799 0.930 . S
C768 N765 1.279 . S
C768 C767 1.358 . S
C768 H771 0.930 . S
C769 C766 1.348 . S
C769 C767 1.356 . S
H770 C764 0.930 . S
H771 C768 0.930 . S
O772 Li712 1.956 . S
O772 Li713 1.970 . S
O772 Li714 1.961 . S
O772 C716 1.325 . S
O773 Li712 1.970 . S
O773 Li713 1.956 . S
O773 Li715 1.961 . S
O773 C722 1.325 . S
O774 Li712 1.961 . S
O774 Li714 1.956 . S
O774 Li715 1.970 . S
O774 C744 1.325 . S
O775 Li713 1.961 . S
O775 Li714 1.970 . S
O775 Li715 1.956 . S
O775 C750 1.325 . S
H776 C718 0.929 . S
H777 C719 0.930 . S
H778 C720 0.930 . S
H779 C721 0.930 . S
H780 C723 0.930 . S
H781 C725 0.929 . S
H782 C726 0.930 . S
H783 C727 0.930 . S
H784 C730 0.930 . S
H785 C733 0.929 . S
H786 C738 0.929 . S
H787 C739 0.930 . S
H788 C746 0.929 . S
H789 C747 0.930 . S
H790 C748 0.930 . S
H791 C749 0.930 . S
H792 C751 0.929 . S
H793 C752 0.930 . S
H794 C753 0.930 . S
H795 C754 0.930 . S
H796 C758 0.929 . S
H797 C760 0.930 . S
H798 C766 0.929 . S
H799 C767 0.930 . S
Li800 N817 1.990 . S
Li800 O860 1.956 . S
Li800 O861 1.970 1_556 S
Li800 O862 1.961 . S
Li801 N825 1.990 . S
Li801 O860 1.970 1_554 S
Li801 O861 1.956 . S
Li801 O863 1.961 . S
Li802 N847 1.990 . S
Li802 O860 1.961 . S
Li802 O862 1.956 . S
Li802 O863 1.970 1_556 S
Li803 N853 1.990 . S
Li803 O861 1.961 . S
Li803 O862 1.970 1_554 S
Li803 O863 1.956 . S
C804 C806 1.348 1_556 S
C804 C807 1.356 . S
C804 O860 1.325 . S
N805 C808 1.314 1_556 S
N805 C809 1.279 . S
C806 C804 1.348 1_554 S
C806 C808 1.353 . S
C806 H864 0.929 . S
C807 C804 1.356 . S
C807 C809 1.358 . S
C807 H865 0.930 . S
C808 N805 1.314 1_554 S
C808 C806 1.353 . S
C808 H866 0.930 . S
C809 N805 1.279 . S
C809 C807 1.358 . S
C809 H867 0.930 . S
C810 C813 1.348 . S
C810 C814 1.356 . S
C810 O861 1.325 . S
C811 N812 1.279 . S
C811 C814 1.358 . S
C811 H868 0.930 . S
N812 C811 1.279 . S
N812 C815 1.314 . S
C813 C810 1.348 . S
C813 C815 1.353 . S
C813 H869 0.929 . S
C814 C810 1.356 . S
C814 C811 1.358 . S
C814 H870 0.930 . S
C815 N812 1.314 . S
C815 C813 1.353 . S
C815 H871 0.930 . S
C816 N817 1.314 . S
C816 C821 1.353 . S
C816 H822 0.930 . S
N817 Li800 1.990 . S
N817 C816 1.314 . S
N817 C819 1.279 . S
C818 C819 1.358 . S
C818 C820 1.356 . S
C818 H872 0.930 . S
C819 N817 1.279 . S
C819 C818 1.358 . S
C819 H823 0.930 . S
C820 C818 1.356 . S
C820 C821 1.348 . S
C821 C816 1.353 . S
C821 C820 1.348 . S
C821 H873 0.929 . S
H822 C816 0.930 . S
H823 C819 0.930 . S
C824 N825 1.314 . S
C824 C826 1.353 . S
C824 H830 0.930 . S
N825 Li801 1.990 . S
N825 C824 1.314 . S
N825 C828 1.279 . S
C826 C824 1.353 . S
C826 C829 1.348 . S
C826 H874 0.929 . S
C827 C828 1.358 . S
C827 C829 1.356 . S
C827 H875 0.930 . S
C828 N825 1.279 . S
C828 C827 1.358 . S
C828 H831 0.930 . S
C829 C826 1.348 . S
C829 C827 1.356 . S
H830 C824 0.930 . S
H831 C828 0.930 . S
C832 C834 1.348 . S
C832 C835 1.356 . S
C832 O862 1.325 . S
N833 C836 1.314 . S
N833 C837 1.279 . S
C834 C832 1.348 . S
C834 C836 1.353 . S
C834 H876 0.929 . S
C835 C832 1.356 . S
C835 C837 1.358 . S
C835 H877 0.930 . S
C836 N833 1.314 . S
C836 C834 1.353 . S
C836 H878 0.930 . S
C837 N833 1.279 . S
C837 C835 1.358 . S
C837 H879 0.930 . S
C838 C839 1.348 1_554 S
C838 C840 1.356 . S
C838 O863 1.325 . S
C839 C838 1.348 1_556 S
C839 C841 1.353 . S
C839 H880 0.929 . S
C840 C838 1.356 . S
C840 C842 1.358 . S
C840 H881 0.930 . S
C841 C839 1.353 . S
C841 N843 1.314 1_556 S
C841 H882 0.930 . S
C842 C840 1.358 . S
C842 N843 1.279 . S
C842 H883 0.930 . S
N843 C841 1.314 1_554 S
N843 C842 1.279 . S
C844 C846 1.353 . S
C844 N847 1.314 . S
C844 H850 0.930 . S
C845 N847 1.279 . S
C845 C848 1.358 . S
C845 H851 0.930 . S
C846 C844 1.353 . S
C846 C849 1.348 . S
C846 H884 0.929 . S
N847 Li802 1.990 . S
N847 C844 1.314 . S
N847 C845 1.279 . S
C848 C845 1.358 . S
C848 C849 1.356 . S
C848 H885 0.930 . S
C849 C846 1.348 . S
C849 C848 1.356 . S
H850 C844 0.930 . S
H851 C845 0.930 . S
C852 N853 1.314 . S
C852 C854 1.353 . S
C852 H858 0.930 . S
N853 Li803 1.990 . S
N853 C852 1.314 . S
N853 C856 1.279 . S
C854 C852 1.353 . S
C854 C857 1.348 . S
C854 H886 0.929 . S
C855 C856 1.358 . S
C855 C857 1.356 . S
C855 H887 0.930 . S
C856 N853 1.279 . S
C856 C855 1.358 . S
C856 H859 0.930 . S
C857 C854 1.348 . S
C857 C855 1.356 . S
H858 C852 0.930 . S
H859 C856 0.930 . S
O860 Li800 1.956 . S
O860 Li801 1.970 1_556 S
O860 Li802 1.961 . S
O860 C804 1.325 . S
O861 Li800 1.970 1_554 S
O861 Li801 1.956 . S
O861 Li803 1.961 . S
O861 C810 1.325 . S
O862 Li800 1.961 . S
O862 Li802 1.956 . S
O862 Li803 1.970 1_556 S
O862 C832 1.325 . S
O863 Li801 1.961 . S
O863 Li802 1.970 1_554 S
O863 Li803 1.956 . S
O863 C838 1.325 . S
H864 C806 0.929 . S
H865 C807 0.930 . S
H866 C808 0.930 . S
H867 C809 0.930 . S
H868 C811 0.930 . S
H869 C813 0.929 . S
H870 C814 0.930 . S
H871 C815 0.930 . S
H872 C818 0.930 . S
H873 C821 0.929 . S
H874 C826 0.929 . S
H875 C827 0.930 . S
H876 C834 0.929 . S
H877 C835 0.930 . S
H878 C836 0.930 . S
H879 C837 0.930 . S
H880 C839 0.929 . S
H881 C840 0.930 . S
H882 C841 0.930 . S
H883 C842 0.930 . S
H884 C846 0.929 . S
H885 C848 0.930 . S
H886 C854 0.929 . S
H887 C855 0.930 . S
Li888 N905 1.990 . S
Li888 O948 1.956 . S
Li888 O949 1.927 1_545 S
Li888 O950 1.961 . S
Li889 N913 1.990 . S
Li889 O948 1.970 1_565 S
Li889 O949 1.958 . S
Li889 O951 1.961 . S
Li890 N935 1.990 . S
Li890 O948 1.961 . S
Li890 O950 1.956 . S
Li890 O951 1.970 1_545 S
Li891 N941 1.990 . S
Li891 O949 1.994 . S
Li891 O950 1.970 1_565 S
Li891 O951 1.956 . S
C892 C894 1.348 . S
C892 C895 1.356 . S
C892 O948 1.325 . S
N893 C896 1.314 . S
N893 C897 1.279 . S
C894 C892 1.348 . S
C894 C896 1.353 . S
C894 H952 0.929 . S
C895 C892 1.356 . S
C895 C897 1.358 . S
C895 H953 0.930 . S
C896 N893 1.314 . S
C896 C894 1.353 . S
C896 H954 0.930 . S
C897 N893 1.279 . S
C897 C895 1.358 . S
C897 H955 0.930 . S
C898 C901 1.348 1_565 S
C898 C902 1.356 . S
C898 O949 1.333 . S
C899 N900 1.279 . S
C899 C902 1.358 . S
C899 H956 0.930 . S
N900 C899 1.279 . S
N900 C903 1.314 1_565 S
C901 C898 1.348 1_545 S
C901 C903 1.353 . S
C901 H957 0.929 . S
C902 C898 1.356 . S
C902 C899 1.358 . S
C902 H958 0.930 . S
C903 N900 1.314 1_545 S
C903 C901 1.353 . S
C903 H959 0.930 . S
C904 N905 1.314 . S
C904 C909 1.353 . S
C904 H910 0.930 . S
N905 Li888 1.990 . S
N905 C904 1.314 . S
N905 C907 1.279 . S
C906 C907 1.358 . S
C906 C908 1.356 . S
C906 H960 0.930 . S
C907 N905 1.279 . S
C907 C906 1.358 . S
C907 H911 0.930 . S
C908 C906 1.356 . S
C908 C909 1.348 . S
C909 C904 1.353 . S
C909 C908 1.348 . S
C909 H961 0.929 . S
H910 C904 0.930 . S
H911 C907 0.930 . S
C912 N913 1.314 . S
C912 C914 1.353 . S
C912 H918 0.930 . S
N913 Li889 1.990 . S
N913 C912 1.314 . S
N913 C916 1.279 . S
C914 C912 1.353 . S
C914 C917 1.348 . S
C914 H962 0.929 . S
C915 C916 1.358 . S
C915 C917 1.356 . S
C915 H963 0.930 . S
C916 N913 1.279 . S
C916 C915 1.358 . S
C916 H919 0.930 . S
C917 C914 1.348 . S
C917 C915 1.356 . S
H918 C912 0.930 . S
H919 C916 0.930 . S
C920 C922 1.348 1_545 S
C920 C923 1.356 . S
C920 O950 1.325 . S
N921 C924 1.314 1_545 S
N921 C925 1.279 . S
C922 C920 1.348 1_565 S
C922 C924 1.353 . S
C922 H964 0.929 . S
C923 C920 1.356 . S
C923 C925 1.358 . S
C923 H965 0.930 . S
C924 N921 1.314 1_565 S
C924 C922 1.353 . S
C924 H966 0.930 . S
C925 N921 1.279 . S
C925 C923 1.358 . S
C925 H967 0.930 . S
C926 C927 1.348 . S
C926 C928 1.356 . S
C926 O951 1.325 . S
C927 C926 1.348 . S
C927 C929 1.353 . S
C927 H968 0.929 . S
C928 C926 1.356 . S
C928 C930 1.358 . S
C928 H969 0.930 . S
C929 C927 1.353 . S
C929 N931 1.314 . S
C929 H970 0.930 . S
C930 C928 1.358 . S
C930 N931 1.279 . S
C930 H971 0.930 . S
N931 C929 1.314 . S
N931 C930 1.279 . S
C932 C934 1.353 . S
C932 N935 1.314 . S
C932 H938 0.930 . S
C933 N935 1.279 . S
C933 C936 1.358 . S
C933 H939 0.930 . S
C934 C932 1.353 . S
C934 C937 1.348 . S
C934 H972 0.929 . S
N935 Li890 1.990 . S
N935 C932 1.314 . S
N935 C933 1.279 . S
C936 C933 1.358 . S
C936 C937 1.356 . S
C936 H973 0.930 . S
C937 C934 1.348 . S
C937 C936 1.356 . S
H938 C932 0.930 . S
H939 C933 0.930 . S
C940 N941 1.314 . S
C940 C942 1.353 . S
C940 H946 0.930 . S
N941 Li891 1.990 . S
N941 C940 1.314 . S
N941 C944 1.279 . S
C942 C940 1.353 . S
C942 C945 1.348 . S
C942 H974 0.929 . S
C943 C944 1.358 . S
C943 C945 1.356 . S
C943 H975 0.930 . S
C944 N941 1.279 . S
C944 C943 1.358 . S
C944 H947 0.930 . S
C945 C942 1.348 . S
C945 C943 1.356 . S
H946 C940 0.930 . S
H947 C944 0.930 . S
O948 Li888 1.956 . S
O948 Li889 1.970 1_545 S
O948 Li890 1.961 . S
O948 C892 1.325 . S
O949 Li888 1.927 1_565 S
O949 Li889 1.958 . S
O949 Li891 1.994 . S
O949 C898 1.333 . S
O950 Li888 1.961 . S
O950 Li890 1.956 . S
O950 Li891 1.970 1_545 S
O950 C920 1.325 . S
O951 Li889 1.961 . S
O951 Li890 1.970 1_565 S
O951 Li891 1.956 . S
O951 C926 1.325 . S
H952 C894 0.929 . S
H953 C895 0.930 . S
H954 C896 0.930 . S
H955 C897 0.930 . S
H956 C899 0.930 . S
H957 C901 0.929 . S
H958 C902 0.930 . S
H959 C903 0.930 . S
H960 C906 0.930 . S
H961 C909 0.929 . S
H962 C914 0.929 . S
H963 C915 0.930 . S
H964 C922 0.929 . S
H965 C923 0.930 . S
H966 C924 0.930 . S
H967 C925 0.930 . S
H968 C927 0.929 . S
H969 C928 0.930 . S
H970 C929 0.930 . S
H971 C930 0.930 . S
H972 C934 0.929 . S
H973 C936 0.930 . S
H974 C942 0.929 . S
H975 C943 0.930 . S
Li976 N993 1.990 . S
Li976 O1036 1.956 . S
Li976 O1037 1.970 . S
Li976 O1038 1.961 . S
Li977 N1001 1.990 . S
Li977 O1036 1.970 . S
Li977 O1037 1.956 . S
Li977 O1039 1.961 . S
Li978 N1023 1.990 . S
Li978 O1036 1.961 . S
Li978 O1038 1.956 . S
Li978 O1039 1.970 . S
Li979 N1029 1.990 . S
Li979 O1037 1.961 . S
Li979 O1038 1.970 . S
Li979 O1039 1.956 . S
C980 C982 1.348 . S
C980 C983 1.356 . S
C980 O1036 1.325 . S
N981 C984 1.314 . S
N981 C985 1.279 . S
C982 C980 1.348 . S
C982 C984 1.353 . S
C982 H1040 0.929 . S
C983 C980 1.356 . S
C983 C985 1.358 . S
C983 H1041 0.930 . S
C984 N981 1.314 . S
C984 C982 1.353 . S
C984 H1042 0.930 . S
C985 N981 1.279 . S
C985 C983 1.358 . S
C985 H1043 0.930 . S
C986 C989 1.348 . S
C986 C990 1.356 . S
C986 O1037 1.325 . S
C987 N988 1.279 . S
C987 C990 1.358 . S
C987 H1044 0.930 . S
N988 C987 1.279 . S
N988 C991 1.314 . S
C989 C986 1.348 . S
C989 C991 1.353 . S
C989 H1045 0.929 . S
C990 C986 1.356 . S
C990 C987 1.358 . S
C990 H1046 0.930 . S
C991 N988 1.314 . S
C991 C989 1.353 . S
C991 H1047 0.930 . S
C992 N993 1.314 . S
C992 C997 1.353 . S
C992 H998 0.930 . S
N993 Li976 1.990 . S
N993 C992 1.314 . S
N993 C995 1.279 . S
C994 C995 1.358 . S
C994 C996 1.356 . S
C994 H1048 0.930 . S
C995 N993 1.279 . S
C995 C994 1.358 . S
C995 H999 0.930 . S
C996 C994 1.356 . S
C996 C997 1.348 . S
C997 C992 1.353 . S
C997 C996 1.348 . S
C997 H1049 0.929 . S
H998 C992 0.930 . S
H999 C995 0.930 . S
C1000 N1001 1.314 . S
C1000 C1002 1.353 . S
C1000 H1006 0.930 . S
N1001 Li977 1.990 . S
N1001 C1000 1.314 . S
N1001 C1004 1.279 . S
C1002 C1000 1.353 . S
C1002 C1005 1.348 . S
C1002 H1050 0.929 . S
C1003 C1004 1.358 . S
C1003 C1005 1.356 . S
C1003 H1051 0.930 . S
C1004 N1001 1.279 . S
C1004 C1003 1.358 . S
C1004 H1007 0.930 . S
C1005 C1002 1.348 . S
C1005 C1003 1.356 . S
H1006 C1000 0.930 . S
H1007 C1004 0.930 . S
C1008 C1010 1.348 . S
C1008 C1011 1.356 . S
C1008 O1038 1.325 . S
N1009 C1012 1.314 . S
N1009 C1013 1.279 . S
C1010 C1008 1.348 . S
C1010 C1012 1.353 . S
C1010 H1052 0.929 . S
C1011 C1008 1.356 . S
C1011 C1013 1.358 . S
C1011 H1053 0.930 . S
C1012 N1009 1.314 . S
C1012 C1010 1.353 . S
C1012 H1054 0.930 . S
C1013 N1009 1.279 . S
C1013 C1011 1.358 . S
C1013 H1055 0.930 . S
C1014 C1015 1.348 . S
C1014 C1016 1.356 . S
C1014 O1039 1.325 . S
C1015 C1014 1.348 . S
C1015 C1017 1.353 . S
C1015 H1056 0.929 . S
C1016 C1014 1.356 . S
C1016 C1018 1.358 . S
C1016 H1057 0.930 . S
C1017 C1015 1.353 . S
C1017 N1019 1.314 . S
C1017 H1058 0.930 . S
C1018 C1016 1.358 . S
C1018 N1019 1.279 . S
C1018 H1059 0.930 . S
N1019 C1017 1.314 . S
N1019 C1018 1.279 . S
C1020 C1022 1.353 . S
C1020 N1023 1.314 . S
C1020 H1026 0.930 . S
C1021 N1023 1.279 . S
C1021 C1024 1.358 . S
C1021 H1027 0.930 . S
C1022 C1020 1.353 . S
C1022 C1025 1.348 . S
C1022 H1060 0.929 . S
N1023 Li978 1.990 . S
N1023 C1020 1.314 . S
N1023 C1021 1.279 . S
C1024 C1021 1.358 . S
C1024 C1025 1.356 . S
C1024 H1061 0.930 . S
C1025 C1022 1.348 . S
C1025 C1024 1.356 . S
H1026 C1020 0.930 . S
H1027 C1021 0.930 . S
C1028 N1029 1.314 . S
C1028 C1030 1.353 . S
C1028 H1034 0.930 . S
N1029 Li979 1.990 . S
N1029 C1028 1.314 . S
N1029 C1032 1.279 . S
C1030 C1028 1.353 . S
C1030 C1033 1.348 . S
C1030 H1062 0.929 . S
C1031 C1032 1.358 . S
C1031 C1033 1.356 . S
C1031 H1063 0.930 . S
C1032 N1029 1.279 . S
C1032 C1031 1.358 . S
C1032 H1035 0.930 . S
C1033 C1030 1.348 . S
C1033 C1031 1.356 . S
H1034 C1028 0.930 . S
H1035 C1032 0.930 . S
O1036 Li976 1.956 . S
O1036 Li977 1.970 . S
O1036 Li978 1.961 . S
O1036 C980 1.325 . S
O1037 Li976 1.970 . S
O1037 Li977 1.956 . S
O1037 Li979 1.961 . S
O1037 C986 1.325 . S
O1038 Li976 1.961 . S
O1038 Li978 1.956 . S
O1038 Li979 1.970 . S
O1038 C1008 1.325 . S
O1039 Li977 1.961 . S
O1039 Li978 1.970 . S
O1039 Li979 1.956 . S
O1039 C1014 1.325 . S
H1040 C982 0.929 . S
H1041 C983 0.930 . S
H1042 C984 0.930 . S
H1043 C985 0.930 . S
H1044 C987 0.930 . S
H1045 C989 0.929 . S
H1046 C990 0.930 . S
H1047 C991 0.930 . S
H1048 C994 0.930 . S
H1049 C997 0.929 . S
H1050 C1002 0.929 . S
H1051 C1003 0.930 . S
H1052 C1010 0.929 . S
H1053 C1011 0.930 . S
H1054 C1012 0.930 . S
H1055 C1013 0.930 . S
H1056 C1015 0.929 . S
H1057 C1016 0.930 . S
H1058 C1017 0.930 . S
H1059 C1018 0.930 . S
H1060 C1022 0.929 . S
H1061 C1024 0.930 . S
H1062 C1030 0.929 . S
H1063 C1031 0.930 . S
Li1064 N1081 1.990 . S
Li1064 O1124 1.956 . S
Li1064 O1125 1.970 . S
Li1064 O1126 1.961 . S
Li1065 N1089 1.990 . S
Li1065 O1124 1.970 . S
Li1065 O1125 1.956 . S
Li1065 O1127 1.961 . S
Li1066 N1111 1.990 . S
Li1066 O1124 1.961 . S
Li1066 O1126 1.956 . S
Li1066 O1127 1.970 . S
Li1067 N1117 1.990 . S
Li1067 O1125 1.961 . S
Li1067 O1126 1.970 . S
Li1067 O1127 1.956 . S
C1068 C1070 1.348 . S
C1068 C1071 1.356 . S
C1068 O1124 1.325 . S
N1069 C1072 1.314 . S
N1069 C1073 1.279 . S
C1070 C1068 1.348 . S
C1070 C1072 1.353 . S
C1070 H1128 0.929 . S
C1071 C1068 1.356 . S
C1071 C1073 1.358 . S
C1071 H1129 0.930 . S
C1072 N1069 1.314 . S
C1072 C1070 1.353 . S
C1072 H1130 0.930 . S
C1073 N1069 1.279 . S
C1073 C1071 1.358 . S
C1073 H1131 0.930 . S
C1074 C1077 1.348 . S
C1074 C1078 1.356 . S
C1074 O1125 1.325 . S
C1075 N1076 1.279 . S
C1075 C1078 1.358 . S
C1075 H1132 0.930 . S
N1076 C1075 1.279 . S
N1076 C1079 1.314 . S
C1077 C1074 1.348 . S
C1077 C1079 1.353 . S
C1077 H1133 0.929 . S
C1078 C1074 1.356 . S
C1078 C1075 1.358 . S
C1078 H1134 0.930 . S
C1079 N1076 1.314 . S
C1079 C1077 1.353 . S
C1079 H1135 0.930 . S
C1080 N1081 1.314 . S
C1080 C1085 1.353 . S
C1080 H1086 0.930 . S
N1081 Li1064 1.990 . S
N1081 C1080 1.314 . S
N1081 C1083 1.279 . S
C1082 C1083 1.358 . S
C1082 C1084 1.356 . S
C1082 H1136 0.930 . S
C1083 N1081 1.279 . S
C1083 C1082 1.358 . S
C1083 H1087 0.930 . S
C1084 C1082 1.356 . S
C1084 C1085 1.348 . S
C1085 C1080 1.353 . S
C1085 C1084 1.348 . S
C1085 H1137 0.929 . S
H1086 C1080 0.930 . S
H1087 C1083 0.930 . S
C1088 N1089 1.314 . S
C1088 C1090 1.353 . S
C1088 H1094 0.930 . S
N1089 Li1065 1.990 . S
N1089 C1088 1.314 . S
N1089 C1092 1.279 . S
C1090 C1088 1.353 . S
C1090 C1093 1.348 . S
C1090 H1138 0.929 . S
C1091 C1092 1.358 . S
C1091 C1093 1.356 . S
C1091 H1139 0.930 . S
C1092 N1089 1.279 . S
C1092 C1091 1.358 . S
C1092 H1095 0.930 . S
C1093 C1090 1.348 . S
C1093 C1091 1.356 . S
H1094 C1088 0.930 . S
H1095 C1092 0.930 . S
C1096 C1098 1.348 . S
C1096 C1099 1.356 . S
C1096 O1126 1.325 . S
N1097 C1100 1.314 . S
N1097 C1101 1.279 . S
C1098 C1096 1.348 . S
C1098 C1100 1.353 . S
C1098 H1140 0.929 . S
C1099 C1096 1.356 . S
C1099 C1101 1.358 . S
C1099 H1141 0.930 . S
C1100 N1097 1.314 . S
C1100 C1098 1.353 . S
C1100 H1142 0.930 . S
C1101 N1097 1.279 . S
C1101 C1099 1.358 . S
C1101 H1143 0.930 . S
C1102 C1103 1.348 . S
C1102 C1104 1.356 . S
C1102 O1127 1.325 . S
C1103 C1102 1.348 . S
C1103 C1105 1.353 . S
C1103 H1144 0.929 . S
C1104 C1102 1.356 . S
C1104 C1106 1.358 . S
C1104 H1145 0.930 . S
C1105 C1103 1.353 . S
C1105 N1107 1.314 . S
C1105 H1146 0.930 . S
C1106 C1104 1.358 . S
C1106 N1107 1.279 . S
C1106 H1147 0.930 . S
N1107 C1105 1.314 . S
N1107 C1106 1.279 . S
C1108 C1110 1.353 . S
C1108 N1111 1.314 . S
C1108 H1114 0.930 . S
C1109 N1111 1.279 . S
C1109 C1112 1.358 . S
C1109 H1115 0.930 . S
C1110 C1108 1.353 . S
C1110 C1113 1.348 . S
C1110 H1148 0.929 . S
N1111 Li1066 1.990 . S
N1111 C1108 1.314 . S
N1111 C1109 1.279 . S
C1112 C1109 1.358 . S
C1112 C1113 1.356 . S
C1112 H1149 0.930 . S
C1113 C1110 1.348 . S
C1113 C1112 1.356 . S
H1114 C1108 0.930 . S
H1115 C1109 0.930 . S
C1116 N1117 1.314 . S
C1116 C1118 1.353 . S
C1116 H1122 0.930 . S
N1117 Li1067 1.990 . S
N1117 C1116 1.314 . S
N1117 C1120 1.279 . S
C1118 C1116 1.353 . S
C1118 C1121 1.348 . S
C1118 H1150 0.929 . S
C1119 C1120 1.358 . S
C1119 C1121 1.356 . S
C1119 H1151 0.930 . S
C1120 N1117 1.279 . S
C1120 C1119 1.358 . S
C1120 H1123 0.930 . S
C1121 C1118 1.348 . S
C1121 C1119 1.356 . S
H1122 C1116 0.930 . S
H1123 C1120 0.930 . S
O1124 Li1064 1.956 . S
O1124 Li1065 1.970 . S
O1124 Li1066 1.961 . S
O1124 C1068 1.325 . S
O1125 Li1064 1.970 . S
O1125 Li1065 1.956 . S
O1125 Li1067 1.961 . S
O1125 C1074 1.325 . S
O1126 Li1064 1.961 . S
O1126 Li1066 1.956 . S
O1126 Li1067 1.970 . S
O1126 C1096 1.325 . S
O1127 Li1065 1.961 . S
O1127 Li1066 1.970 . S
O1127 Li1067 1.956 . S
O1127 C1102 1.325 . S
H1128 C1070 0.929 . S
H1129 C1071 0.930 . S
H1130 C1072 0.930 . S
H1131 C1073 0.930 . S
H1132 C1075 0.930 . S
H1133 C1077 0.929 . S
H1134 C1078 0.930 . S
H1135 C1079 0.930 . S
H1136 C1082 0.930 . S
H1137 C1085 0.929 . S
H1138 C1090 0.929 . S
H1139 C1091 0.930 . S
H1140 C1098 0.929 . S
H1141 C1099 0.930 . S
H1142 C1100 0.930 . S
H1143 C1101 0.930 . S
H1144 C1103 0.929 . S
H1145 C1104 0.930 . S
H1146 C1105 0.930 . S
H1147 C1106 0.930 . S
H1148 C1110 0.929 . S
H1149 C1112 0.930 . S
H1150 C1118 0.929 . S
H1151 C1119 0.930 . S
Li1152 N1169 1.990 . S
Li1152 O1212 1.956 . S
Li1152 O1213 1.970 . S
Li1152 O1214 1.961 . S
Li1153 N1177 1.990 . S
Li1153 O1212 1.970 . S
Li1153 O1213 1.956 . S
Li1153 O1215 1.961 . S
Li1154 N1199 1.990 . S
Li1154 O1212 1.961 . S
Li1154 O1214 1.956 . S
Li1154 O1215 1.970 . S
Li1155 N1205 1.990 . S
Li1155 O1213 1.961 . S
Li1155 O1214 1.970 . S
Li1155 O1215 1.956 . S
C1156 C1158 1.348 . S
C1156 C1159 1.356 . S
C1156 O1212 1.325 . S
N1157 C1160 1.314 . S
N1157 C1161 1.279 . S
C1158 C1156 1.348 . S
C1158 C1160 1.353 . S
C1158 H1216 0.929 . S
C1159 C1156 1.356 . S
C1159 C1161 1.358 . S
C1159 H1217 0.930 . S
C1160 N1157 1.314 . S
C1160 C1158 1.353 . S
C1160 H1218 0.930 . S
C1161 N1157 1.279 . S
C1161 C1159 1.358 . S
C1161 H1219 0.930 . S
C1162 C1165 1.348 . S
C1162 C1166 1.356 . S
C1162 O1213 1.325 . S
C1163 N1164 1.279 . S
C1163 C1166 1.358 . S
C1163 H1220 0.930 . S
N1164 C1163 1.279 . S
N1164 C1167 1.314 . S
C1165 C1162 1.348 . S
C1165 C1167 1.353 . S
C1165 H1221 0.929 . S
C1166 C1162 1.356 . S
C1166 C1163 1.358 . S
C1166 H1222 0.930 . S
C1167 N1164 1.314 . S
C1167 C1165 1.353 . S
C1167 H1223 0.930 . S
C1168 N1169 1.314 . S
C1168 C1173 1.353 . S
C1168 H1174 0.930 . S
N1169 Li1152 1.990 . S
N1169 C1168 1.314 . S
N1169 C1171 1.279 . S
C1170 C1171 1.358 . S
C1170 C1172 1.356 . S
C1170 H1224 0.930 . S
C1171 N1169 1.279 . S
C1171 C1170 1.358 . S
C1171 H1175 0.930 . S
C1172 C1170 1.356 . S
C1172 C1173 1.348 . S
C1173 C1168 1.353 . S
C1173 C1172 1.348 . S
C1173 H1225 0.929 . S
H1174 C1168 0.930 . S
H1175 C1171 0.930 . S
C1176 N1177 1.314 . S
C1176 C1178 1.353 . S
C1176 H1182 0.930 . S
N1177 Li1153 1.990 . S
N1177 C1176 1.314 . S
N1177 C1180 1.279 . S
C1178 C1176 1.353 . S
C1178 C1181 1.348 . S
C1178 H1226 0.929 . S
C1179 C1180 1.358 . S
C1179 C1181 1.356 . S
C1179 H1227 0.930 . S
C1180 N1177 1.279 . S
C1180 C1179 1.358 . S
C1180 H1183 0.930 . S
C1181 C1178 1.348 . S
C1181 C1179 1.356 . S
H1182 C1176 0.930 . S
H1183 C1180 0.930 . S
C1184 C1186 1.348 . S
C1184 C1187 1.356 . S
C1184 O1214 1.325 . S
N1185 C1188 1.314 . S
N1185 C1189 1.279 . S
C1186 C1184 1.348 . S
C1186 C1188 1.353 . S
C1186 H1228 0.929 . S
C1187 C1184 1.356 . S
C1187 C1189 1.358 . S
C1187 H1229 0.930 . S
C1188 N1185 1.314 . S
C1188 C1186 1.353 . S
C1188 H1230 0.930 . S
C1189 N1185 1.279 . S
C1189 C1187 1.358 . S
C1189 H1231 0.930 . S
C1190 C1191 1.348 . S
C1190 C1192 1.356 . S
C1190 O1215 1.325 . S
C1191 C1190 1.348 . S
C1191 C1193 1.353 . S
C1191 H1232 0.929 . S
C1192 C1190 1.356 . S
C1192 C1194 1.358 . S
C1192 H1233 0.930 . S
C1193 C1191 1.353 . S
C1193 N1195 1.314 . S
C1193 H1234 0.930 . S
C1194 C1192 1.358 . S
C1194 N1195 1.279 . S
C1194 H1235 0.930 . S
N1195 C1193 1.314 . S
N1195 C1194 1.279 . S
C1196 C1198 1.353 . S
C1196 N1199 1.314 . S
C1196 H1202 0.930 . S
C1197 N1199 1.279 . S
C1197 C1200 1.358 . S
C1197 H1203 0.930 . S
C1198 C1196 1.353 . S
C1198 C1201 1.348 . S
C1198 H1236 0.929 . S
N1199 Li1154 1.990 . S
N1199 C1196 1.314 . S
N1199 C1197 1.279 . S
C1200 C1197 1.358 . S
C1200 C1201 1.356 . S
C1200 H1237 0.930 . S
C1201 C1198 1.348 . S
C1201 C1200 1.356 . S
H1202 C1196 0.930 . S
H1203 C1197 0.930 . S
C1204 N1205 1.314 . S
C1204 C1206 1.353 . S
C1204 H1210 0.930 . S
N1205 Li1155 1.990 . S
N1205 C1204 1.314 . S
N1205 C1208 1.279 . S
C1206 C1204 1.353 . S
C1206 C1209 1.348 . S
C1206 H1238 0.929 . S
C1207 C1208 1.358 . S
C1207 C1209 1.356 . S
C1207 H1239 0.930 . S
C1208 N1205 1.279 . S
C1208 C1207 1.358 . S
C1208 H1211 0.930 . S
C1209 C1206 1.348 . S
C1209 C1207 1.356 . S
H1210 C1204 0.930 . S
H1211 C1208 0.930 . S
O1212 Li1152 1.956 . S
O1212 Li1153 1.970 . S
O1212 Li1154 1.961 . S
O1212 C1156 1.325 . S
O1213 Li1152 1.970 . S
O1213 Li1153 1.956 . S
O1213 Li1155 1.961 . S
O1213 C1162 1.325 . S
O1214 Li1152 1.961 . S
O1214 Li1154 1.956 . S
O1214 Li1155 1.970 . S
O1214 C1184 1.325 . S
O1215 Li1153 1.961 . S
O1215 Li1154 1.970 . S
O1215 Li1155 1.956 . S
O1215 C1190 1.325 . S
H1216 C1158 0.929 . S
H1217 C1159 0.930 . S
H1218 C1160 0.930 . S
H1219 C1161 0.930 . S
H1220 C1163 0.930 . S
H1221 C1165 0.929 . S
H1222 C1166 0.930 . S
H1223 C1167 0.930 . S
H1224 C1170 0.930 . S
H1225 C1173 0.929 . S
H1226 C1178 0.929 . S
H1227 C1179 0.930 . S
H1228 C1186 0.929 . S
H1229 C1187 0.930 . S
H1230 C1188 0.930 . S
H1231 C1189 0.930 . S
H1232 C1191 0.929 . S
H1233 C1192 0.930 . S
H1234 C1193 0.930 . S
H1235 C1194 0.930 . S
H1236 C1198 0.929 . S
H1237 C1200 0.930 . S
H1238 C1206 0.929 . S
H1239 C1207 0.930 . S
Li1240 N1257 1.990 . S
Li1240 O1300 1.956 . S
Li1240 O1301 1.970 1_565 S
Li1240 O1302 1.961 . S
Li1241 N1265 1.990 . S
Li1241 O1300 1.970 1_545 S
Li1241 O1301 1.956 . S
Li1241 O1303 1.961 . S
Li1242 N1287 1.990 . S
Li1242 O1300 1.961 . S
Li1242 O1302 1.956 . S
Li1242 O1303 1.970 1_565 S
Li1243 N1293 1.990 . S
Li1243 O1301 1.961 . S
Li1243 O1302 1.970 1_545 S
Li1243 O1303 1.956 . S
C1244 C1246 1.348 . S
C1244 C1247 1.356 . S
C1244 O1300 1.325 . S
N1245 C1248 1.314 . S
N1245 C1249 1.279 . S
C1246 C1244 1.348 . S
C1246 C1248 1.353 . S
C1246 H1304 0.929 . S
C1247 C1244 1.356 . S
C1247 C1249 1.358 . S
C1247 H1305 0.930 . S
C1248 N1245 1.314 . S
C1248 C1246 1.353 . S
C1248 H1306 0.930 . S
C1249 N1245 1.279 . S
C1249 C1247 1.358 . S
C1249 H1307 0.930 . S
C1250 C1253 1.348 1_545 S
C1250 C1254 1.356 . S
C1250 O1301 1.325 . S
C1251 N1252 1.279 . S
C1251 C1254 1.358 . S
C1251 H1308 0.930 . S
N1252 C1251 1.279 . S
N1252 C1255 1.314 1_545 S
C1253 C1250 1.348 1_565 S
C1253 C1255 1.353 . S
C1253 H1309 0.929 . S
C1254 C1250 1.356 . S
C1254 C1251 1.358 . S
C1254 H1310 0.930 . S
C1255 N1252 1.314 1_565 S
C1255 C1253 1.353 . S
C1255 H1311 0.930 . S
C1256 N1257 1.314 . S
C1256 C1261 1.353 . S
C1256 H1262 0.930 . S
N1257 Li1240 1.990 . S
N1257 C1256 1.314 . S
N1257 C1259 1.279 . S
C1258 C1259 1.358 . S
C1258 C1260 1.356 . S
C1258 H1312 0.930 . S
C1259 N1257 1.279 . S
C1259 C1258 1.358 . S
C1259 H1263 0.930 . S
C1260 C1258 1.356 . S
C1260 C1261 1.348 . S
C1261 C1256 1.353 . S
C1261 C1260 1.348 . S
C1261 H1313 0.929 . S
H1262 C1256 0.930 . S
H1263 C1259 0.930 . S
C1264 N1265 1.314 . S
C1264 C1266 1.353 . S
C1264 H1270 0.930 . S
N1265 Li1241 1.990 . S
N1265 C1264 1.314 . S
N1265 C1268 1.279 . S
C1266 C1264 1.353 . S
C1266 C1269 1.348 . S
C1266 H1314 0.929 . S
C1267 C1268 1.358 . S
C1267 C1269 1.356 . S
C1267 H1315 0.930 . S
C1268 N1265 1.279 . S
C1268 C1267 1.358 . S
C1268 H1271 0.930 . S
C1269 C1266 1.348 . S
C1269 C1267 1.356 . S
H1270 C1264 0.930 . S
H1271 C1268 0.930 . S
C1272 C1274 1.348 1_565 S
C1272 C1275 1.356 . S
C1272 O1302 1.325 . S
N1273 C1276 1.314 1_565 S
N1273 C1277 1.279 . S
C1274 C1272 1.348 1_545 S
C1274 C1276 1.353 . S
C1274 H1316 0.929 . S
C1275 C1272 1.356 . S
C1275 C1277 1.358 . S
C1275 H1317 0.930 . S
C1276 N1273 1.314 1_545 S
C1276 C1274 1.353 . S
C1276 H1318 0.930 . S
C1277 N1273 1.279 . S
C1277 C1275 1.358 . S
C1277 H1319 0.930 . S
C1278 C1279 1.348 . S
C1278 C1280 1.356 . S
C1278 O1303 1.325 . S
C1279 C1278 1.348 . S
C1279 C1281 1.353 . S
C1279 H1320 0.929 . S
C1280 C1278 1.356 . S
C1280 C1282 1.358 . S
C1280 H1321 0.930 . S
C1281 C1279 1.353 . S
C1281 N1283 1.314 . S
C1281 H1322 0.930 . S
C1282 C1280 1.358 . S
C1282 N1283 1.279 . S
C1282 H1323 0.930 . S
N1283 C1281 1.314 . S
N1283 C1282 1.279 . S
C1284 C1286 1.353 . S
C1284 N1287 1.314 . S
C1284 H1290 0.930 . S
C1285 N1287 1.279 . S
C1285 C1288 1.358 . S
C1285 H1291 0.930 . S
C1286 C1284 1.353 . S
C1286 C1289 1.348 . S
C1286 H1324 0.929 . S
N1287 Li1242 1.990 . S
N1287 C1284 1.314 . S
N1287 C1285 1.279 . S
C1288 C1285 1.358 . S
C1288 C1289 1.356 . S
C1288 H1325 0.930 . S
C1289 C1286 1.348 . S
C1289 C1288 1.356 . S
H1290 C1284 0.930 . S
H1291 C1285 0.930 . S
C1292 N1293 1.314 . S
C1292 C1294 1.353 . S
C1292 H1298 0.930 . S
N1293 Li1243 1.990 . S
N1293 C1292 1.314 . S
N1293 C1296 1.279 . S
C1294 C1292 1.353 . S
C1294 C1297 1.348 . S
C1294 H1326 0.929 . S
C1295 C1296 1.358 . S
C1295 C1297 1.356 . S
C1295 H1327 0.930 . S
C1296 N1293 1.279 . S
C1296 C1295 1.358 . S
C1296 H1299 0.930 . S
C1297 C1294 1.348 . S
C1297 C1295 1.356 . S
H1298 C1292 0.930 . S
H1299 C1296 0.930 . S
O1300 Li1240 1.956 . S
O1300 Li1241 1.970 1_565 S
O1300 Li1242 1.961 . S
O1300 C1244 1.325 . S
O1301 Li1240 1.970 1_545 S
O1301 Li1241 1.956 . S
O1301 Li1243 1.961 . S
O1301 C1250 1.325 . S
O1302 Li1240 1.961 . S
O1302 Li1242 1.956 . S
O1302 Li1243 1.970 1_565 S
O1302 C1272 1.325 . S
O1303 Li1241 1.961 . S
O1303 Li1242 1.970 1_545 S
O1303 Li1243 1.956 . S
O1303 C1278 1.325 . S
H1304 C1246 0.929 . S
H1305 C1247 0.930 . S
H1306 C1248 0.930 . S
H1307 C1249 0.930 . S
H1308 C1251 0.930 . S
H1309 C1253 0.929 . S
H1310 C1254 0.930 . S
H1311 C1255 0.930 . S
H1312 C1258 0.930 . S
H1313 C1261 0.929 . S
H1314 C1266 0.929 . S
H1315 C1267 0.930 . S
H1316 C1274 0.929 . S
H1317 C1275 0.930 . S
H1318 C1276 0.930 . S
H1319 C1277 0.930 . S
H1320 C1279 0.929 . S
H1321 C1280 0.930 . S
H1322 C1281 0.930 . S
H1323 C1282 0.930 . S
H1324 C1286 0.929 . S
H1325 C1288 0.930 . S
H1326 C1294 0.929 . S
H1327 C1295 0.930 . S
Li1328 N1345 1.990 . S
Li1328 O1388 1.956 . S
Li1328 O1389 1.970 1_455 S
Li1328 O1390 1.961 . S
Li1329 N1353 1.990 . S
Li1329 O1388 1.970 1_655 S
Li1329 O1389 1.956 . S
Li1329 O1391 1.961 . S
Li1330 N1375 1.990 . S
Li1330 O1388 1.961 . S
Li1330 O1390 1.956 . S
Li1330 O1391 1.970 1_455 S
Li1331 N1381 1.990 . S
Li1331 O1389 1.961 . S
Li1331 O1390 1.970 1_655 S
Li1331 O1391 1.956 . S
C1332 C1334 1.348 . S
C1332 C1335 1.356 . S
C1332 O1388 1.325 . S
N1333 C1336 1.314 . S
N1333 C1337 1.279 . S
C1334 C1332 1.348 . S
C1334 C1336 1.353 . S
C1334 H1392 0.929 . S
C1335 C1332 1.356 . S
C1335 C1337 1.358 . S
C1335 H1393 0.930 . S
C1336 N1333 1.314 . S
C1336 C1334 1.353 . S
C1336 H1394 0.930 . S
C1337 N1333 1.279 . S
C1337 C1335 1.358 . S
C1337 H1395 0.930 . S
C1338 C1341 1.348 1_655 S
C1338 C1342 1.356 . S
C1338 O1389 1.325 . S
C1339 N1340 1.279 . S
C1339 C1342 1.358 . S
C1339 H1396 0.930 . S
N1340 C1339 1.279 . S
N1340 C1343 1.314 1_655 S
C1341 C1338 1.348 1_455 S
C1341 C1343 1.353 . S
C1341 H1397 0.929 . S
C1342 C1338 1.356 . S
C1342 C1339 1.358 . S
C1342 H1398 0.930 . S
C1343 N1340 1.314 1_455 S
C1343 C1341 1.353 . S
C1343 H1399 0.930 . S
C1344 N1345 1.314 . S
C1344 C1349 1.353 . S
C1344 H1350 0.930 . S
N1345 Li1328 1.990 . S
N1345 C1344 1.314 . S
N1345 C1347 1.279 . S
C1346 C1347 1.358 . S
C1346 C1348 1.356 . S
C1346 H1400 0.930 . S
C1347 N1345 1.279 . S
C1347 C1346 1.358 . S
C1347 H1351 0.930 . S
C1348 C1346 1.356 . S
C1348 C1349 1.348 . S
C1349 C1344 1.353 . S
C1349 C1348 1.348 . S
C1349 H1401 0.929 . S
H1350 C1344 0.930 . S
H1351 C1347 0.930 . S
C1352 N1353 1.314 . S
C1352 C1354 1.353 . S
C1352 H1358 0.930 . S
N1353 Li1329 1.990 . S
N1353 C1352 1.314 . S
N1353 C1356 1.279 . S
C1354 C1352 1.353 . S
C1354 C1357 1.348 . S
C1354 H1402 0.929 . S
C1355 C1356 1.358 . S
C1355 C1357 1.356 . S
C1355 H1403 0.930 . S
C1356 N1353 1.279 . S
C1356 C1355 1.358 . S
C1356 H1359 0.930 . S
C1357 C1354 1.348 . S
C1357 C1355 1.356 . S
H1358 C1352 0.930 . S
H1359 C1356 0.930 . S
C1360 C1362 1.348 1_455 S
C1360 C1363 1.356 . S
C1360 O1390 1.325 . S
N1361 C1364 1.314 1_455 S
N1361 C1365 1.279 . S
C1362 C1360 1.348 1_655 S
C1362 C1364 1.353 . S
C1362 H1404 0.929 . S
C1363 C1360 1.356 . S
C1363 C1365 1.358 . S
C1363 H1405 0.930 . S
C1364 N1361 1.314 1_655 S
C1364 C1362 1.353 . S
C1364 H1406 0.930 . S
C1365 N1361 1.279 . S
C1365 C1363 1.358 . S
C1365 H1407 0.930 . S
C1366 C1367 1.348 . S
C1366 C1368 1.356 . S
C1366 O1391 1.325 . S
C1367 C1366 1.348 . S
C1367 C1369 1.353 . S
C1367 H1408 0.929 . S
C1368 C1366 1.356 . S
C1368 C1370 1.358 . S
C1368 H1409 0.930 . S
C1369 C1367 1.353 . S
C1369 N1371 1.314 . S
C1369 H1410 0.930 . S
C1370 C1368 1.358 . S
C1370 N1371 1.279 . S
C1370 H1411 0.930 . S
N1371 C1369 1.314 . S
N1371 C1370 1.279 . S
C1372 C1374 1.353 . S
C1372 N1375 1.314 . S
C1372 H1378 0.930 . S
C1373 N1375 1.279 . S
C1373 C1376 1.358 . S
C1373 H1379 0.930 . S
C1374 C1372 1.353 . S
C1374 C1377 1.348 . S
C1374 H1412 0.929 . S
N1375 Li1330 1.990 . S
N1375 C1372 1.314 . S
N1375 C1373 1.279 . S
C1376 C1373 1.358 . S
C1376 C1377 1.356 . S
C1376 H1413 0.930 . S
C1377 C1374 1.348 . S
C1377 C1376 1.356 . S
H1378 C1372 0.930 . S
H1379 C1373 0.930 . S
C1380 N1381 1.314 . S
C1380 C1382 1.353 . S
C1380 H1386 0.930 . S
N1381 Li1331 1.990 . S
N1381 C1380 1.314 . S
N1381 C1384 1.279 . S
C1382 C1380 1.353 . S
C1382 C1385 1.348 . S
C1382 H1414 0.929 . S
C1383 C1384 1.358 . S
C1383 C1385 1.356 . S
C1383 H1415 0.930 . S
C1384 N1381 1.279 . S
C1384 C1383 1.358 . S
C1384 H1387 0.930 . S
C1385 C1382 1.348 . S
C1385 C1383 1.356 . S
H1386 C1380 0.930 . S
H1387 C1384 0.930 . S
O1388 Li1328 1.956 . S
O1388 Li1329 1.970 1_455 S
O1388 Li1330 1.961 . S
O1388 C1332 1.325 . S
O1389 Li1328 1.970 1_655 S
O1389 Li1329 1.956 . S
O1389 Li1331 1.961 . S
O1389 C1338 1.325 . S
O1390 Li1328 1.961 . S
O1390 Li1330 1.956 . S
O1390 Li1331 1.970 1_455 S
O1390 C1360 1.325 . S
O1391 Li1329 1.961 . S
O1391 Li1330 1.970 1_655 S
O1391 Li1331 1.956 . S
O1391 C1366 1.325 . S
H1392 C1334 0.929 . S
H1393 C1335 0.930 . S
H1394 C1336 0.930 . S
H1395 C1337 0.930 . S
H1396 C1339 0.930 . S
H1397 C1341 0.929 . S
H1398 C1342 0.930 . S
H1399 C1343 0.930 . S
H1400 C1346 0.930 . S
H1401 C1349 0.929 . S
H1402 C1354 0.929 . S
H1403 C1355 0.930 . S
H1404 C1362 0.929 . S
H1405 C1363 0.930 . S
H1406 C1364 0.930 . S
H1407 C1365 0.930 . S
H1408 C1367 0.929 . S
H1409 C1368 0.930 . S
H1410 C1369 0.930 . S
H1411 C1370 0.930 . S
H1412 C1374 0.929 . S
H1413 C1376 0.930 . S
H1414 C1382 0.929 . S
H1415 C1383 0.930 . S
Li1416 N1433 1.990 . S
Li1416 O1476 1.956 . S
Li1416 O1477 1.970 . S
Li1416 O1478 1.961 . S
Li1417 N1441 1.990 . S
Li1417 O1476 1.970 . S
Li1417 O1477 1.956 . S
Li1417 O1479 1.961 . S
Li1418 N1463 1.990 . S
Li1418 O1476 1.961 . S
Li1418 O1478 1.956 . S
Li1418 O1479 1.970 . S
Li1419 N1469 1.990 . S
Li1419 O1477 1.961 . S
Li1419 O1478 1.970 . S
Li1419 O1479 1.956 . S
C1420 C1422 1.348 . S
C1420 C1423 1.356 . S
C1420 O1476 1.325 . S
N1421 C1424 1.314 . S
N1421 C1425 1.279 . S
C1422 C1420 1.348 . S
C1422 C1424 1.353 . S
C1422 H1480 0.929 . S
C1423 C1420 1.356 . S
C1423 C1425 1.358 . S
C1423 H1481 0.930 . S
C1424 N1421 1.314 . S
C1424 C1422 1.353 . S
C1424 H1482 0.930 . S
C1425 N1421 1.279 . S
C1425 C1423 1.358 . S
C1425 H1483 0.930 . S
C1426 C1429 1.348 . S
C1426 C1430 1.356 . S
C1426 O1477 1.325 . S
C1427 N1428 1.279 . S
C1427 C1430 1.358 . S
C1427 H1484 0.930 . S
N1428 C1427 1.279 . S
N1428 C1431 1.314 . S
C1429 C1426 1.348 . S
C1429 C1431 1.353 . S
C1429 H1485 0.929 . S
C1430 C1426 1.356 . S
C1430 C1427 1.358 . S
C1430 H1486 0.930 . S
C1431 N1428 1.314 . S
C1431 C1429 1.353 . S
C1431 H1487 0.930 . S
C1432 N1433 1.314 . S
C1432 C1437 1.353 . S
C1432 H1438 0.930 . S
N1433 Li1416 1.990 . S
N1433 C1432 1.314 . S
N1433 C1435 1.279 . S
C1434 C1435 1.358 . S
C1434 C1436 1.356 . S
C1434 H1488 0.930 . S
C1435 N1433 1.279 . S
C1435 C1434 1.358 . S
C1435 H1439 0.930 . S
C1436 C1434 1.356 . S
C1436 C1437 1.348 . S
C1437 C1432 1.353 . S
C1437 C1436 1.348 . S
C1437 H1489 0.929 . S
H1438 C1432 0.930 . S
H1439 C1435 0.930 . S
C1440 N1441 1.314 . S
C1440 C1442 1.353 . S
C1440 H1446 0.930 . S
N1441 Li1417 1.990 . S
N1441 C1440 1.314 . S
N1441 C1444 1.279 . S
C1442 C1440 1.353 . S
C1442 C1445 1.348 . S
C1442 H1490 0.929 . S
C1443 C1444 1.358 . S
C1443 C1445 1.356 . S
C1443 H1491 0.930 . S
C1444 N1441 1.279 . S
C1444 C1443 1.358 . S
C1444 H1447 0.930 . S
C1445 C1442 1.348 . S
C1445 C1443 1.356 . S
H1446 C1440 0.930 . S
H1447 C1444 0.930 . S
C1448 C1450 1.348 . S
C1448 C1451 1.356 . S
C1448 O1478 1.325 . S
N1449 C1452 1.314 . S
N1449 C1453 1.279 . S
C1450 C1448 1.348 . S
C1450 C1452 1.353 . S
C1450 H1492 0.929 . S
C1451 C1448 1.356 . S
C1451 C1453 1.358 . S
C1451 H1493 0.930 . S
C1452 N1449 1.314 . S
C1452 C1450 1.353 . S
C1452 H1494 0.930 . S
C1453 N1449 1.279 . S
C1453 C1451 1.358 . S
C1453 H1495 0.930 . S
C1454 C1455 1.348 . S
C1454 C1456 1.356 . S
C1454 O1479 1.325 . S
C1455 C1454 1.348 . S
C1455 C1457 1.353 . S
C1455 H1496 0.929 . S
C1456 C1454 1.356 . S
C1456 C1458 1.358 . S
C1456 H1497 0.930 . S
C1457 C1455 1.353 . S
C1457 N1459 1.314 . S
C1457 H1498 0.930 . S
C1458 C1456 1.358 . S
C1458 N1459 1.279 . S
C1458 H1499 0.930 . S
N1459 C1457 1.314 . S
N1459 C1458 1.279 . S
C1460 C1462 1.353 . S
C1460 N1463 1.314 . S
C1460 H1466 0.930 . S
C1461 N1463 1.279 . S
C1461 C1464 1.358 . S
C1461 H1467 0.930 . S
C1462 C1460 1.353 . S
C1462 C1465 1.348 . S
C1462 H1500 0.929 . S
N1463 Li1418 1.990 . S
N1463 C1460 1.314 . S
N1463 C1461 1.279 . S
C1464 C1461 1.358 . S
C1464 C1465 1.356 . S
C1464 H1501 0.930 . S
C1465 C1462 1.348 . S
C1465 C1464 1.356 . S
H1466 C1460 0.930 . S
H1467 C1461 0.930 . S
C1468 N1469 1.314 . S
C1468 C1470 1.353 . S
C1468 H1474 0.930 . S
N1469 Li1419 1.990 . S
N1469 C1468 1.314 . S
N1469 C1472 1.279 . S
C1470 C1468 1.353 . S
C1470 C1473 1.348 . S
C1470 H1502 0.929 . S
C1471 C1472 1.358 . S
C1471 C1473 1.356 . S
C1471 H1503 0.930 . S
C1472 N1469 1.279 . S
C1472 C1471 1.358 . S
C1472 H1475 0.930 . S
C1473 C1470 1.348 . S
C1473 C1471 1.356 . S
H1474 C1468 0.930 . S
H1475 C1472 0.930 . S
O1476 Li1416 1.956 . S
O1476 Li1417 1.970 . S
O1476 Li1418 1.961 . S
O1476 C1420 1.325 . S
O1477 Li1416 1.970 . S
O1477 Li1417 1.956 . S
O1477 Li1419 1.961 . S
O1477 C1426 1.325 . S
O1478 Li1416 1.961 . S
O1478 Li1418 1.956 . S
O1478 Li1419 1.970 . S
O1478 C1448 1.325 . S
O1479 Li1417 1.961 . S
O1479 Li1418 1.970 . S
O1479 Li1419 1.956 . S
O1479 C1454 1.325 . S
H1480 C1422 0.929 . S
H1481 C1423 0.930 . S
H1482 C1424 0.930 . S
H1483 C1425 0.930 . S
H1484 C1427 0.930 . S
H1485 C1429 0.929 . S
H1486 C1430 0.930 . S
H1487 C1431 0.930 . S
H1488 C1434 0.930 . S
H1489 C1437 0.929 . S
H1490 C1442 0.929 . S
H1491 C1443 0.930 . S
H1492 C1450 0.929 . S
H1493 C1451 0.930 . S
H1494 C1452 0.930 . S
H1495 C1453 0.930 . S
H1496 C1455 0.929 . S
H1497 C1456 0.930 . S
H1498 C1457 0.930 . S
H1499 C1458 0.930 . S
H1500 C1462 0.929 . S
H1501 C1464 0.930 . S
H1502 C1470 0.929 . S
H1503 C1471 0.930 . S
Li1504 N1521 1.990 . S
Li1504 O1564 1.956 . S
Li1504 O1565 1.970 1_455 S
Li1504 O1566 1.961 . S
Li1505 N1529 1.990 . S
Li1505 O1564 1.970 1_655 S
Li1505 O1565 1.956 . S
Li1505 O1567 1.961 . S
Li1506 N1551 1.990 . S
Li1506 O1564 1.961 . S
Li1506 O1566 1.956 . S
Li1506 O1567 1.970 1_455 S
Li1507 N1557 1.990 . S
Li1507 O1565 1.961 . S
Li1507 O1566 1.970 1_655 S
Li1507 O1567 1.956 . S
C1508 C1510 1.348 1_455 S
C1508 C1511 1.356 . S
C1508 O1564 1.325 . S
N1509 C1512 1.314 1_455 S
N1509 C1513 1.279 . S
C1510 C1508 1.348 1_655 S
C1510 C1512 1.353 . S
C1510 H1568 0.929 . S
C1511 C1508 1.356 . S
C1511 C1513 1.358 . S
C1511 H1569 0.930 . S
C1512 N1509 1.314 1_655 S
C1512 C1510 1.353 . S
C1512 H1570 0.930 . S
C1513 N1509 1.279 . S
C1513 C1511 1.358 . S
C1513 H1571 0.930 . S
C1514 C1517 1.348 . S
C1514 C1518 1.356 . S
C1514 O1565 1.325 . S
C1515 N1516 1.279 . S
C1515 C1518 1.358 . S
C1515 H1572 0.930 . S
N1516 C1515 1.279 . S
N1516 C1519 1.314 . S
C1517 C1514 1.348 . S
C1517 C1519 1.353 . S
C1517 H1573 0.929 . S
C1518 C1514 1.356 . S
C1518 C1515 1.358 . S
C1518 H1574 0.930 . S
C1519 N1516 1.314 . S
C1519 C1517 1.353 . S
C1519 H1575 0.930 . S
C1520 N1521 1.314 . S
C1520 C1525 1.353 . S
C1520 H1526 0.930 . S
N1521 Li1504 1.990 . S
N1521 C1520 1.314 . S
N1521 C1523 1.279 . S
C1522 C1523 1.358 . S
C1522 C1524 1.356 . S
C1522 H1576 0.930 . S
C1523 N1521 1.279 . S
C1523 C1522 1.358 . S
C1523 H1527 0.930 . S
C1524 C1522 1.356 . S
C1524 C1525 1.348 . S
C1525 C1520 1.353 . S
C1525 C1524 1.348 . S
C1525 H1577 0.929 . S
H1526 C1520 0.930 . S
H1527 C1523 0.930 . S
C1528 N1529 1.314 . S
C1528 C1530 1.353 . S
C1528 H1534 0.930 . S
N1529 Li1505 1.990 . S
N1529 C1528 1.314 . S
N1529 C1532 1.279 . S
C1530 C1528 1.353 . S
C1530 C1533 1.348 . S
C1530 H1578 0.929 . S
C1531 C1532 1.358 . S
C1531 C1533 1.356 . S
C1531 H1579 0.930 . S
C1532 N1529 1.279 . S
C1532 C1531 1.358 . S
C1532 H1535 0.930 . S
C1533 C1530 1.348 . S
C1533 C1531 1.356 . S
H1534 C1528 0.930 . S
H1535 C1532 0.930 . S
C1536 C1538 1.348 . S
C1536 C1539 1.356 . S
C1536 O1566 1.325 . S
N1537 C1540 1.314 . S
N1537 C1541 1.279 . S
C1538 C1536 1.348 . S
C1538 C1540 1.353 . S
C1538 H1580 0.929 . S
C1539 C1536 1.356 . S
C1539 C1541 1.358 . S
C1539 H1581 0.930 . S
C1540 N1537 1.314 . S
C1540 C1538 1.353 . S
C1540 H1582 0.930 . S
C1541 N1537 1.279 . S
C1541 C1539 1.358 . S
C1541 H1583 0.930 . S
C1542 C1543 1.348 1_655 S
C1542 C1544 1.356 . S
C1542 O1567 1.325 . S
C1543 C1542 1.348 1_455 S
C1543 C1545 1.353 . S
C1543 H1584 0.929 . S
C1544 C1542 1.356 . S
C1544 C1546 1.358 . S
C1544 H1585 0.930 . S
C1545 C1543 1.353 . S
C1545 N1547 1.314 1_455 S
C1545 H1586 0.930 . S
C1546 C1544 1.358 . S
C1546 N1547 1.279 . S
C1546 H1587 0.930 . S
N1547 C1545 1.314 1_655 S
N1547 C1546 1.279 . S
C1548 C1550 1.353 . S
C1548 N1551 1.314 . S
C1548 H1554 0.930 . S
C1549 N1551 1.279 . S
C1549 C1552 1.358 . S
C1549 H1555 0.930 . S
C1550 C1548 1.353 . S
C1550 C1553 1.348 . S
C1550 H1588 0.929 . S
N1551 Li1506 1.990 . S
N1551 C1548 1.314 . S
N1551 C1549 1.279 . S
C1552 C1549 1.358 . S
C1552 C1553 1.356 . S
C1552 H1589 0.930 . S
C1553 C1550 1.348 . S
C1553 C1552 1.356 . S
H1554 C1548 0.930 . S
H1555 C1549 0.930 . S
C1556 N1557 1.314 . S
C1556 C1558 1.353 . S
C1556 H1562 0.930 . S
N1557 Li1507 1.990 . S
N1557 C1556 1.314 . S
N1557 C1560 1.279 . S
C1558 C1556 1.353 . S
C1558 C1561 1.348 . S
C1558 H1590 0.929 . S
C1559 C1560 1.358 . S
C1559 C1561 1.356 . S
C1559 H1591 0.930 . S
C1560 N1557 1.279 . S
C1560 C1559 1.358 . S
C1560 H1563 0.930 . S
C1561 C1558 1.348 . S
C1561 C1559 1.356 . S
H1562 C1556 0.930 . S
H1563 C1560 0.930 . S
O1564 Li1504 1.956 . S
O1564 Li1505 1.970 1_455 S
O1564 Li1506 1.961 . S
O1564 C1508 1.325 . S
O1565 Li1504 1.970 1_655 S
O1565 Li1505 1.956 . S
O1565 Li1507 1.961 . S
O1565 C1514 1.325 . S
O1566 Li1504 1.961 . S
O1566 Li1506 1.956 . S
O1566 Li1507 1.970 1_455 S
O1566 C1536 1.325 . S
O1567 Li1505 1.961 . S
O1567 Li1506 1.970 1_655 S
O1567 Li1507 1.956 . S
O1567 C1542 1.325 . S
H1568 C1510 0.929 . S
H1569 C1511 0.930 . S
H1570 C1512 0.930 . S
H1571 C1513 0.930 . S
H1572 C1515 0.930 . S
H1573 C1517 0.929 . S
H1574 C1518 0.930 . S
H1575 C1519 0.930 . S
H1576 C1522 0.930 . S
H1577 C1525 0.929 . S
H1578 C1530 0.929 . S
H1579 C1531 0.930 . S
H1580 C1538 0.929 . S
H1581 C1539 0.930 . S
H1582 C1540 0.930 . S
H1583 C1541 0.930 . S
H1584 C1543 0.929 . S
H1585 C1544 0.930 . S
H1586 C1545 0.930 . S
H1587 C1546 0.930 . S
H1588 C1550 0.929 . S
H1589 C1552 0.930 . S
H1590 C1558 0.929 . S
H1591 C1559 0.930 . S
Li1592 N1609 1.990 . S
Li1592 O1652 1.956 . S
Li1592 O1653 1.970 . S
Li1592 O1654 1.961 . S
Li1593 N1617 1.990 . S
Li1593 O1652 1.970 . S
Li1593 O1653 1.956 . S
Li1593 O1655 1.961 . S
Li1594 N1639 1.990 . S
Li1594 O1652 1.961 . S
Li1594 O1654 1.956 . S
Li1594 O1655 1.970 . S
Li1595 N1645 1.990 . S
Li1595 O1653 1.961 . S
Li1595 O1654 1.970 . S
Li1595 O1655 1.956 . S
C1596 C1598 1.348 . S
C1596 C1599 1.356 . S
C1596 O1652 1.325 . S
N1597 C1600 1.314 . S
N1597 C1601 1.279 . S
C1598 C1596 1.348 . S
C1598 C1600 1.353 . S
C1598 H1656 0.929 . S
C1599 C1596 1.356 . S
C1599 C1601 1.358 . S
C1599 H1657 0.930 . S
C1600 N1597 1.314 . S
C1600 C1598 1.353 . S
C1600 H1658 0.930 . S
C1601 N1597 1.279 . S
C1601 C1599 1.358 . S
C1601 H1659 0.930 . S
C1602 C1605 1.348 . S
C1602 C1606 1.356 . S
C1602 O1653 1.325 . S
C1603 N1604 1.279 . S
C1603 C1606 1.358 . S
C1603 H1660 0.930 . S
N1604 C1603 1.279 . S
N1604 C1607 1.314 . S
C1605 C1602 1.348 . S
C1605 C1607 1.353 . S
C1605 H1661 0.929 . S
C1606 C1602 1.356 . S
C1606 C1603 1.358 . S
C1606 H1662 0.930 . S
C1607 N1604 1.314 . S
C1607 C1605 1.353 . S
C1607 H1663 0.930 . S
C1608 N1609 1.314 . S
C1608 C1613 1.353 . S
C1608 H1614 0.930 . S
N1609 Li1592 1.990 . S
N1609 C1608 1.314 . S
N1609 C1611 1.279 . S
C1610 C1611 1.358 . S
C1610 C1612 1.356 . S
C1610 H1664 0.930 . S
C1611 N1609 1.279 . S
C1611 C1610 1.358 . S
C1611 H1615 0.930 . S
C1612 C1610 1.356 . S
C1612 C1613 1.348 . S
C1613 C1608 1.353 . S
C1613 C1612 1.348 . S
C1613 H1665 0.929 . S
H1614 C1608 0.930 . S
H1615 C1611 0.930 . S
C1616 N1617 1.314 . S
C1616 C1618 1.353 . S
C1616 H1622 0.930 . S
N1617 Li1593 1.990 . S
N1617 C1616 1.314 . S
N1617 C1620 1.279 . S
C1618 C1616 1.353 . S
C1618 C1621 1.348 . S
C1618 H1666 0.929 . S
C1619 C1620 1.358 . S
C1619 C1621 1.356 . S
C1619 H1667 0.930 . S
C1620 N1617 1.279 . S
C1620 C1619 1.358 . S
C1620 H1623 0.930 . S
C1621 C1618 1.348 . S
C1621 C1619 1.356 . S
H1622 C1616 0.930 . S
H1623 C1620 0.930 . S
C1624 C1626 1.348 . S
C1624 C1627 1.356 . S
C1624 O1654 1.325 . S
N1625 C1628 1.314 . S
N1625 C1629 1.279 . S
C1626 C1624 1.348 . S
C1626 C1628 1.353 . S
C1626 H1668 0.929 . S
C1627 C1624 1.356 . S
C1627 C1629 1.358 . S
C1627 H1669 0.930 . S
C1628 N1625 1.314 . S
C1628 C1626 1.353 . S
C1628 H1670 0.930 . S
C1629 N1625 1.279 . S
C1629 C1627 1.358 . S
C1629 H1671 0.930 . S
C1630 C1631 1.348 . S
C1630 C1632 1.356 . S
C1630 O1655 1.325 . S
C1631 C1630 1.348 . S
C1631 C1633 1.353 . S
C1631 H1672 0.929 . S
C1632 C1630 1.356 . S
C1632 C1634 1.358 . S
C1632 H1673 0.930 . S
C1633 C1631 1.353 . S
C1633 N1635 1.314 . S
C1633 H1674 0.930 . S
C1634 C1632 1.358 . S
C1634 N1635 1.279 . S
C1634 H1675 0.930 . S
N1635 C1633 1.314 . S
N1635 C1634 1.279 . S
C1636 C1638 1.353 . S
C1636 N1639 1.314 . S
C1636 H1642 0.930 . S
C1637 N1639 1.279 . S
C1637 C1640 1.358 . S
C1637 H1643 0.930 . S
C1638 C1636 1.353 . S
C1638 C1641 1.348 . S
C1638 H1676 0.929 . S
N1639 Li1594 1.990 . S
N1639 C1636 1.314 . S
N1639 C1637 1.279 . S
C1640 C1637 1.358 . S
C1640 C1641 1.356 . S
C1640 H1677 0.930 . S
C1641 C1638 1.348 . S
C1641 C1640 1.356 . S
H1642 C1636 0.930 . S
H1643 C1637 0.930 . S
C1644 N1645 1.314 . S
C1644 C1646 1.353 . S
C1644 H1650 0.930 . S
N1645 Li1595 1.990 . S
N1645 C1644 1.314 . S
N1645 C1648 1.279 . S
C1646 C1644 1.353 . S
C1646 C1649 1.348 . S
C1646 H1678 0.929 . S
C1647 C1648 1.358 . S
C1647 C1649 1.356 . S
C1647 H1679 0.930 . S
C1648 N1645 1.279 . S
C1648 C1647 1.358 . S
C1648 H1651 0.930 . S
C1649 C1646 1.348 . S
C1649 C1647 1.356 . S
H1650 C1644 0.930 . S
H1651 C1648 0.930 . S
O1652 Li1592 1.956 . S
O1652 Li1593 1.970 . S
O1652 Li1594 1.961 . S
O1652 C1596 1.325 . S
O1653 Li1592 1.970 . S
O1653 Li1593 1.956 . S
O1653 Li1595 1.961 . S
O1653 C1602 1.325 . S
O1654 Li1592 1.961 . S
O1654 Li1594 1.956 . S
O1654 Li1595 1.970 . S
O1654 C1624 1.325 . S
O1655 Li1593 1.961 . S
O1655 Li1594 1.970 . S
O1655 Li1595 1.956 . S
O1655 C1630 1.325 . S
H1656 C1598 0.929 . S
H1657 C1599 0.930 . S
H1658 C1600 0.930 . S
H1659 C1601 0.930 . S
H1660 C1603 0.930 . S
H1661 C1605 0.929 . S
H1662 C1606 0.930 . S
H1663 C1607 0.930 . S
H1664 C1610 0.930 . S
H1665 C1613 0.929 . S
H1666 C1618 0.929 . S
H1667 C1619 0.930 . S
H1668 C1626 0.929 . S
H1669 C1627 0.930 . S
H1670 C1628 0.930 . S
H1671 C1629 0.930 . S
H1672 C1631 0.929 . S
H1673 C1632 0.930 . S
H1674 C1633 0.930 . S
H1675 C1634 0.930 . S
H1676 C1638 0.929 . S
H1677 C1640 0.930 . S
H1678 C1646 0.929 . S
H1679 C1647 0.930 . S
C1680 C1681 1.369 . S
C1680 C1682 1.419 . S
C1680 H1684 0.930 . S
C1681 C1680 1.369 . S
C1681 C1690 1.429 . S
C1682 C1680 1.419 . S
C1682 C1683 1.363 . S
C1682 H1685 0.929 . S
C1683 C1682 1.363 . S
C1683 C1689 1.428 . S
H1684 C1680 0.930 . S
H1685 C1682 0.929 . S
S1686 N1687 1.613 . S
S1686 N1688 1.610 . S
N1687 S1686 1.613 . S
N1687 C1690 1.350 . S
N1688 S1686 1.610 . S
N1688 C1689 1.351 . S
C1689 C1683 1.428 . S
C1689 N1688 1.351 . S
C1689 C1690 1.434 . S
C1690 C1681 1.429 . S
C1690 N1687 1.350 . S
C1690 C1689 1.434 . S
C1691 C1692 1.369 . S
C1691 C1693 1.419 . S
C1691 H1695 0.930 . S
C1692 C1691 1.369 . S
C1692 C1701 1.429 . S
C1693 C1691 1.419 . S
C1693 C1694 1.363 . S
C1693 H1696 0.929 . S
C1694 C1693 1.363 . S
C1694 C1700 1.428 . S
H1695 C1691 0.930 . S
H1696 C1693 0.929 . S
S1697 N1698 1.613 . S
S1697 N1699 1.610 . S
N1698 S1697 1.613 . S
N1698 C1701 1.350 . S
N1699 S1697 1.610 . S
N1699 C1700 1.351 . S
C1700 C1694 1.428 . S
C1700 N1699 1.351 . S
C1700 C1701 1.434 . S
C1701 C1692 1.429 . S
C1701 N1698 1.350 . S
C1701 C1700 1.434 . S
C1702 C1703 1.369 . S
C1702 C1704 1.419 . S
C1702 H1706 0.930 . S
C1703 C1702 1.369 . S
C1703 C1712 1.429 . S
C1704 C1702 1.419 . S
C1704 C1705 1.363 . S
C1704 H1707 0.929 . S
C1705 C1704 1.363 . S
C1705 C1711 1.428 . S
H1706 C1702 0.930 . S
H1707 C1704 0.929 . S
S1708 N1709 1.613 . S
S1708 N1710 1.610 . S
N1709 S1708 1.613 . S
N1709 C1712 1.350 . S
N1710 S1708 1.610 . S
N1710 C1711 1.351 . S
C1711 C1705 1.428 . S
C1711 N1710 1.351 . S
C1711 C1712 1.434 . S
C1712 C1703 1.429 . S
C1712 N1709 1.350 . S
C1712 C1711 1.434 . S
C1713 C1714 1.369 . S
C1713 C1715 1.419 . S
C1713 H1717 0.930 . S
C1714 C1713 1.369 . S
C1714 C1723 1.429 1_565 S
C1715 C1713 1.419 . S
C1715 C1716 1.363 . S
C1715 H1718 0.929 . S
C1716 C1715 1.363 . S
C1716 C1722 1.428 1_565 S
H1717 C1713 0.930 . S
H1718 C1715 0.929 . S
S1719 N1720 1.613 . S
S1719 N1721 1.610 . S
N1720 S1719 1.613 . S
N1720 C1723 1.350 . S
N1721 S1719 1.610 . S
N1721 C1722 1.351 . S
C1722 C1716 1.428 1_545 S
C1722 N1721 1.351 . S
C1722 C1723 1.434 . S
C1723 C1714 1.429 1_545 S
C1723 N1720 1.350 . S
C1723 C1722 1.434 . S
C1724 C1725 1.369 . S
C1724 C1726 1.419 . S
C1724 H1728 0.930 . S
C1725 C1724 1.369 . S
C1725 C1734 1.429 . S
C1726 C1724 1.419 . S
C1726 C1727 1.363 . S
C1726 H1729 0.929 . S
C1727 C1726 1.363 . S
C1727 C1733 1.428 . S
H1728 C1724 0.930 . S
H1729 C1726 0.929 . S
S1730 N1731 1.613 . S
S1730 N1732 1.610 . S
N1731 S1730 1.613 . S
N1731 C1734 1.350 . S
N1732 S1730 1.610 . S
N1732 C1733 1.351 . S
C1733 C1727 1.428 . S
C1733 N1732 1.351 . S
C1733 C1734 1.434 . S
C1734 C1725 1.429 . S
C1734 N1731 1.350 . S
C1734 C1733 1.434 . S
C1735 C1736 1.369 . S
C1735 C1737 1.419 . S
C1735 H1739 0.930 . S
C1736 C1735 1.369 . S
C1736 C1745 1.429 . S
C1737 C1735 1.419 . S
C1737 C1738 1.363 . S
C1737 H1740 0.929 . S
C1738 C1737 1.363 . S
C1738 C1744 1.428 . S
H1739 C1735 0.930 . S
H1740 C1737 0.929 . S
S1741 N1742 1.613 . S
S1741 N1743 1.610 . S
N1742 S1741 1.613 . S
N1742 C1745 1.350 . S
N1743 S1741 1.610 . S
N1743 C1744 1.351 . S
C1744 C1738 1.428 . S
C1744 N1743 1.351 . S
C1744 C1745 1.434 . S
C1745 C1736 1.429 . S
C1745 N1742 1.350 . S
C1745 C1744 1.434 . S
C1746 C1747 1.369 . S
C1746 C1748 1.419 . S
C1746 H1750 0.930 . S
C1747 C1746 1.369 . S
C1747 C1756 1.429 . S
C1748 C1746 1.419 . S
C1748 C1749 1.363 . S
C1748 H1751 0.929 . S
C1749 C1748 1.363 . S
C1749 C1755 1.428 . S
H1750 C1746 0.930 . S
H1751 C1748 0.929 . S
S1752 N1753 1.613 . S
S1752 N1754 1.610 . S
N1753 S1752 1.613 . S
N1753 C1756 1.350 . S
N1754 S1752 1.610 . S
N1754 C1755 1.351 . S
C1755 C1749 1.428 . S
C1755 N1754 1.351 . S
C1755 C1756 1.434 . S
C1756 C1747 1.429 . S
C1756 N1753 1.350 . S
C1756 C1755 1.434 . S
C1757 C1758 1.369 . S
C1757 C1759 1.419 . S
C1757 H1761 0.930 . S
C1758 C1757 1.369 . S
C1758 C1767 1.429 . S
C1759 C1757 1.419 . S
C1759 C1760 1.363 . S
C1759 H1762 0.929 . S
C1760 C1759 1.363 . S
C1760 C1766 1.428 . S
H1761 C1757 0.930 . S
H1762 C1759 0.929 . S
S1763 N1764 1.613 . S
S1763 N1765 1.610 . S
N1764 S1763 1.613 . S
N1764 C1767 1.350 . S
N1765 S1763 1.610 . S
N1765 C1766 1.351 . S
C1766 C1760 1.428 . S
C1766 N1765 1.351 . S
C1766 C1767 1.434 . S
C1767 C1758 1.429 . S
C1767 N1764 1.350 . S
C1767 C1766 1.434 . S
C1768 C1769 1.369 . S
C1768 C1770 1.419 . S
C1768 H1772 0.930 . S
C1769 C1768 1.369 . S
C1769 C1778 1.429 . S
C1770 C1768 1.419 . S
C1770 C1771 1.363 . S
C1770 H1773 0.929 . S
C1771 C1770 1.363 . S
C1771 C1777 1.428 . S
H1772 C1768 0.930 . S
H1773 C1770 0.929 . S
S1774 N1775 1.613 . S
S1774 N1776 1.610 . S
N1775 S1774 1.613 . S
N1775 C1778 1.350 . S
N1776 S1774 1.610 . S
N1776 C1777 1.351 . S
C1777 C1771 1.428 . S
C1777 N1776 1.351 . S
C1777 C1778 1.434 . S
C1778 C1769 1.429 . S
C1778 N1775 1.350 . S
C1778 C1777 1.434 . S
C1779 C1780 1.369 . S
C1779 C1781 1.419 . S
C1779 H1783 0.930 . S
C1780 C1779 1.369 . S
C1780 C1789 1.429 . S
C1781 C1779 1.419 . S
C1781 C1782 1.363 . S
C1781 H1784 0.929 . S
C1782 C1781 1.363 . S
C1782 C1788 1.428 . S
H1783 C1779 0.930 . S
H1784 C1781 0.929 . S
S1785 N1786 1.613 . S
S1785 N1787 1.610 . S
N1786 S1785 1.613 . S
N1786 C1789 1.350 . S
N1787 S1785 1.610 . S
N1787 C1788 1.351 . S
C1788 C1782 1.428 . S
C1788 N1787 1.351 . S
C1788 C1789 1.434 . S
C1789 C1780 1.429 . S
C1789 N1786 1.350 . S
C1789 C1788 1.434 . S
C1790 C1791 1.369 . S
C1790 C1792 1.419 . S
C1790 H1794 0.930 . S
C1791 C1790 1.369 . S
C1791 C1800 1.429 . S
C1792 C1790 1.419 . S
C1792 C1793 1.363 . S
C1792 H1795 0.929 . S
C1793 C1792 1.363 . S
C1793 C1799 1.428 . S
H1794 C1790 0.930 . S
H1795 C1792 0.929 . S
S1796 N1797 1.613 . S
S1796 N1798 1.610 . S
N1797 S1796 1.613 . S
N1797 C1800 1.350 . S
N1798 S1796 1.610 . S
N1798 C1799 1.351 . S
C1799 C1793 1.428 . S
C1799 N1798 1.351 . S
C1799 C1800 1.434 . S
C1800 C1791 1.429 . S
C1800 N1797 1.350 . S
C1800 C1799 1.434 . S
C1801 C1802 1.369 . S
C1801 C1803 1.419 . S
C1801 H1805 0.930 . S
C1802 C1801 1.369 . S
C1802 C1811 1.429 . S
C1803 C1801 1.419 . S
C1803 C1804 1.363 . S
C1803 H1806 0.929 . S
C1804 C1803 1.363 . S
C1804 C1810 1.428 . S
H1805 C1801 0.930 . S
H1806 C1803 0.929 . S
S1807 N1808 1.613 . S
S1807 N1809 1.610 . S
N1808 S1807 1.613 . S
N1808 C1811 1.350 . S
N1809 S1807 1.610 . S
N1809 C1810 1.351 . S
C1810 C1804 1.428 . S
C1810 N1809 1.351 . S
C1810 C1811 1.434 . S
C1811 C1802 1.429 . S
C1811 N1808 1.350 . S
C1811 C1810 1.434 . S
C1812 C1813 1.369 . S
C1812 C1814 1.419 . S
C1812 H1816 0.930 . S
C1813 C1812 1.369 . S
C1813 C1822 1.429 . S
C1814 C1812 1.419 . S
C1814 C1815 1.363 . S
C1814 H1817 0.929 . S
C1815 C1814 1.363 . S
C1815 C1821 1.428 . S
H1816 C1812 0.930 . S
H1817 C1814 0.929 . S
S1818 N1819 1.613 . S
S1818 N1820 1.610 . S
N1819 S1818 1.613 . S
N1819 C1822 1.350 . S
N1820 S1818 1.610 . S
N1820 C1821 1.351 . S
C1821 C1815 1.428 . S
C1821 N1820 1.351 . S
C1821 C1822 1.434 . S
C1822 C1813 1.429 . S
C1822 N1819 1.350 . S
C1822 C1821 1.434 . S
C1823 C1824 1.369 . S
C1823 C1825 1.419 . S
C1823 H1827 0.930 . S
C1824 C1823 1.369 . S
C1824 C1833 1.429 . S
C1825 C1823 1.419 . S
C1825 C1826 1.363 . S
C1825 H1828 0.929 . S
C1826 C1825 1.363 . S
C1826 C1832 1.428 . S
H1827 C1823 0.930 . S
H1828 C1825 0.929 . S
S1829 N1830 1.603 1_655 S
S1829 N1831 1.610 . S
N1830 S1829 1.603 1_455 S
N1830 C1833 1.363 . S
N1831 S1829 1.610 . S
N1831 C1832 1.351 1_655 S
C1832 C1826 1.428 . S
C1832 N1831 1.351 1_455 S
C1832 C1833 1.434 . S
C1833 C1824 1.429 . S
C1833 N1830 1.363 . S
C1833 C1832 1.434 . S
C1834 C1835 1.369 . S
C1834 C1836 1.419 . S
C1834 H1838 0.930 . S
C1835 C1834 1.369 . S
C1835 C1844 1.429 . S
C1836 C1834 1.419 . S
C1836 C1837 1.363 . S
C1836 H1839 0.929 . S
C1837 C1836 1.363 . S
C1837 C1843 1.428 . S
H1838 C1834 0.930 . S
H1839 C1836 0.929 . S
S1840 N1841 1.613 . S
S1840 N1842 1.610 . S
N1841 S1840 1.613 . S
N1841 C1844 1.350 . S
N1842 S1840 1.610 . S
N1842 C1843 1.351 . S
C1843 C1837 1.428 . S
C1843 N1842 1.351 . S
C1843 C1844 1.434 . S
C1844 C1835 1.429 . S
C1844 N1841 1.350 . S
C1844 C1843 1.434 . S
C1845 C1846 1.369 . S
C1845 C1847 1.419 . S
C1845 H1849 0.930 . S
C1846 C1845 1.369 . S
C1846 C1855 1.429 1_655 S
C1847 C1845 1.419 . S
C1847 C1848 1.363 . S
C1847 H1850 0.929 . S
C1848 C1847 1.363 . S
C1848 C1854 1.428 1_655 S
H1849 C1845 0.930 . S
H1850 C1847 0.929 . S
S1851 N1852 1.613 . S
S1851 N1853 1.610 . S
N1852 S1851 1.613 . S
N1852 C1855 1.350 . S
N1853 S1851 1.610 . S
N1853 C1854 1.351 . S
C1854 C1848 1.428 1_455 S
C1854 N1853 1.351 . S
C1854 C1855 1.434 . S
C1855 C1846 1.429 1_455 S
C1855 N1852 1.350 . S
C1855 C1854 1.434 . S
C1856 C1857 1.369 . S
C1856 C1858 1.419 . S
C1856 H1860 0.930 . S
C1857 C1856 1.369 . S
C1857 C1866 1.429 . S
C1858 C1856 1.419 . S
C1858 C1859 1.363 . S
C1858 H1861 0.929 . S
C1859 C1858 1.363 . S
C1859 C1865 1.428 . S
H1860 C1856 0.930 . S
H1861 C1858 0.929 . S
S1862 N1863 1.613 . S
S1862 N1864 1.610 . S
N1863 S1862 1.613 . S
N1863 C1866 1.350 . S
N1864 S1862 1.610 . S
N1864 C1865 1.351 . S
C1865 C1859 1.428 . S
C1865 N1864 1.351 . S
C1865 C1866 1.434 . S
C1866 C1857 1.429 . S
C1866 N1863 1.350 . S
C1866 C1865 1.434 . S
C1867 C1868 1.369 . S
C1867 C1869 1.419 . S
C1867 H1871 0.930 . S
C1868 C1867 1.369 . S
C1868 C1877 1.429 . S
C1869 C1867 1.419 . S
C1869 C1870 1.363 . S
C1869 H1872 0.929 . S
C1870 C1869 1.363 . S
C1870 C1876 1.428 . S
H1871 C1867 0.930 . S
H1872 C1869 0.929 . S
S1873 N1874 1.613 . S
S1873 N1875 1.610 . S
N1874 S1873 1.613 . S
N1874 C1877 1.350 . S
N1875 S1873 1.610 . S
N1875 C1876 1.351 . S
C1876 C1870 1.428 . S
C1876 N1875 1.351 . S
C1876 C1877 1.434 . S
C1877 C1868 1.429 . S
C1877 N1874 1.350 . S
C1877 C1876 1.434 . S
C1878 C1879 1.369 . S
C1878 C1880 1.419 . S
C1878 H1882 0.930 . S
C1879 C1878 1.369 . S
C1879 C1888 1.429 . S
C1880 C1878 1.419 . S
C1880 C1881 1.363 . S
C1880 H1883 0.929 . S
C1881 C1880 1.363 . S
C1881 C1887 1.428 . S
H1882 C1878 0.930 . S
H1883 C1880 0.929 . S
S1884 N1885 1.613 . S
S1884 N1886 1.610 . S
N1885 S1884 1.613 . S
N1885 C1888 1.350 1_554 S
N1886 S1884 1.610 . S
N1886 C1887 1.351 1_554 S
C1887 C1881 1.428 . S
C1887 N1886 1.351 1_556 S
C1887 C1888 1.434 . S
C1888 C1879 1.429 . S
C1888 N1885 1.350 1_556 S
C1888 C1887 1.434 . S
C1889 C1890 1.369 . S
C1889 C1891 1.419 . S
C1889 H1893 0.930 . S
C1890 C1889 1.369 . S
C1890 C1899 1.429 . S
C1891 C1889 1.419 . S
C1891 C1892 1.363 . S
C1891 H1894 0.929 . S
C1892 C1891 1.363 . S
C1892 C1898 1.428 . S
H1893 C1889 0.930 . S
H1894 C1891 0.929 . S
S1895 N1896 1.613 . S
S1895 N1897 1.610 . S
N1896 S1895 1.613 . S
N1896 C1899 1.350 . S
N1897 S1895 1.610 . S
N1897 C1898 1.351 . S
C1898 C1892 1.428 . S
C1898 N1897 1.351 . S
C1898 C1899 1.434 . S
C1899 C1890 1.429 . S
C1899 N1896 1.350 . S
C1899 C1898 1.434 . S
C1900 C1901 1.369 . S
C1900 C1902 1.419 . S
C1900 H1904 0.930 . S
C1901 C1900 1.369 . S
C1901 C1910 1.429 . S
C1902 C1900 1.419 . S
C1902 C1903 1.363 . S
C1902 H1905 0.929 . S
C1903 C1902 1.363 . S
C1903 C1909 1.428 . S
H1904 C1900 0.930 . S
H1905 C1902 0.929 . S
S1906 N1907 1.613 . S
S1906 N1908 1.610 . S
N1907 S1906 1.613 . S
N1907 C1910 1.350 . S
N1908 S1906 1.610 . S
N1908 C1909 1.351 . S
C1909 C1903 1.428 . S
C1909 N1908 1.351 . S
C1909 C1910 1.434 . S
C1910 C1901 1.429 . S
C1910 N1907 1.350 . S
C1910 C1909 1.434 . S
C1911 C1912 1.369 . S
C1911 C1913 1.419 . S
C1911 H1915 0.930 . S
C1912 C1911 1.369 . S
C1912 C1921 1.429 . S
C1913 C1911 1.419 . S
C1913 C1914 1.363 . S
C1913 H1916 0.929 . S
C1914 C1913 1.363 . S
C1914 C1920 1.428 . S
H1915 C1911 0.930 . S
H1916 C1913 0.929 . S
S1917 N1918 1.613 . S
S1917 N1919 1.610 . S
N1918 S1917 1.613 . S
N1918 C1921 1.350 . S
N1919 S1917 1.610 . S
N1919 C1920 1.351 . S
C1920 C1914 1.428 . S
C1920 N1919 1.351 . S
C1920 C1921 1.434 . S
C1921 C1912 1.429 . S
C1921 N1918 1.350 . S
C1921 C1920 1.434 . S
C1922 C1923 1.369 . S
C1922 C1924 1.419 . S
C1922 H1926 0.930 . S
C1923 C1922 1.369 . S
C1923 C1932 1.429 . S
C1924 C1922 1.419 . S
C1924 C1925 1.363 . S
C1924 H1927 0.929 . S
C1925 C1924 1.363 . S
C1925 C1931 1.428 . S
H1926 C1922 0.930 . S
H1927 C1924 0.929 . S
S1928 N1929 1.613 . S
S1928 N1930 1.610 . S
N1929 S1928 1.613 . S
N1929 C1932 1.350 . S
N1930 S1928 1.610 . S
N1930 C1931 1.351 . S
C1931 C1925 1.428 . S
C1931 N1930 1.351 . S
C1931 C1932 1.434 . S
C1932 C1923 1.429 . S
C1932 N1929 1.350 . S
C1932 C1931 1.434 . S
C1933 C1934 1.369 . S
C1933 C1935 1.419 . S
C1933 H1937 0.930 . S
C1934 C1933 1.369 . S
C1934 C1943 1.429 . S
C1935 C1933 1.419 . S
C1935 C1936 1.363 . S
C1935 H1938 0.929 . S
C1936 C1935 1.363 . S
C1936 C1942 1.428 . S
H1937 C1933 0.930 . S
H1938 C1935 0.929 . S
S1939 N1940 1.613 . S
S1939 N1941 1.610 . S
N1940 S1939 1.613 . S
N1940 C1943 1.350 . S
N1941 S1939 1.610 . S
N1941 C1942 1.351 . S
C1942 C1936 1.428 . S
C1942 N1941 1.351 . S
C1942 C1943 1.434 . S
C1943 C1934 1.429 . S
C1943 N1940 1.350 . S
C1943 C1942 1.434 . S
C1944 C1945 1.369 . S
C1944 C1946 1.419 . S
C1944 H1948 0.930 . S
C1945 C1944 1.369 . S
C1945 C1954 1.429 . S
C1946 C1944 1.419 . S
C1946 C1947 1.363 . S
C1946 H1949 0.929 . S
C1947 C1946 1.363 . S
C1947 C1953 1.428 . S
H1948 C1944 0.930 . S
H1949 C1946 0.929 . S
S1950 N1951 1.613 . S
S1950 N1952 1.610 . S
N1951 S1950 1.613 . S
N1951 C1954 1.350 . S
N1952 S1950 1.610 . S
N1952 C1953 1.351 . S
C1953 C1947 1.428 . S
C1953 N1952 1.351 . S
C1953 C1954 1.434 . S
C1954 C1945 1.429 . S
C1954 N1951 1.350 . S
C1954 C1953 1.434 . S
C1955 C1956 1.369 . S
C1955 C1957 1.419 . S
C1955 H1959 0.930 . S
C1956 C1955 1.369 . S
C1956 C1965 1.429 . S
C1957 C1955 1.419 . S
C1957 C1958 1.363 . S
C1957 H1960 0.929 . S
C1958 C1957 1.363 . S
C1958 C1964 1.428 . S
H1959 C1955 0.930 . S
H1960 C1957 0.929 . S
S1961 N1962 1.613 . S
S1961 N1963 1.610 . S
N1962 S1961 1.613 . S
N1962 C1965 1.350 . S
N1963 S1961 1.610 . S
N1963 C1964 1.351 . S
C1964 C1958 1.428 . S
C1964 N1963 1.351 . S
C1964 C1965 1.434 . S
C1965 C1956 1.429 . S
C1965 N1962 1.350 . S
C1965 C1964 1.434 . S
C1966 C1967 1.369 . S
C1966 C1968 1.419 . S
C1966 H1970 0.930 . S
C1967 C1966 1.369 . S
C1967 C1976 1.429 . S
C1968 C1966 1.419 . S
C1968 C1969 1.363 . S
C1968 H1971 0.929 . S
C1969 C1968 1.363 . S
C1969 C1975 1.428 . S
H1970 C1966 0.930 . S
H1971 C1968 0.929 . S
S1972 N1973 1.613 . S
S1972 N1974 1.610 . S
N1973 S1972 1.613 . S
N1973 C1976 1.350 . S
N1974 S1972 1.610 . S
N1974 C1975 1.351 . S
C1975 C1969 1.428 . S
C1975 N1974 1.351 . S
C1975 C1976 1.434 . S
C1976 C1967 1.429 . S
C1976 N1973 1.350 . S
C1976 C1975 1.434 . S
C1977 C1978 1.369 . S
C1977 C1979 1.419 . S
C1977 H1981 0.930 . S
C1978 C1977 1.369 . S
C1978 C1987 1.429 . S
C1979 C1977 1.419 . S
C1979 C1980 1.363 . S
C1979 H1982 0.929 . S
C1980 C1979 1.363 . S
C1980 C1986 1.428 . S
H1981 C1977 0.930 . S
H1982 C1979 0.929 . S
S1983 N1984 1.613 . S
S1983 N1985 1.610 . S
N1984 S1983 1.613 . S
N1984 C1987 1.350 . S
N1985 S1983 1.610 . S
N1985 C1986 1.351 . S
C1986 C1980 1.428 . S
C1986 N1985 1.351 . S
C1986 C1987 1.434 . S
C1987 C1978 1.429 . S
C1987 N1984 1.350 . S
C1987 C1986 1.434 . S
C1988 C1989 1.369 . S
C1988 C1990 1.419 . S
C1988 H1992 0.930 . S
C1989 C1988 1.369 . S
C1989 C1998 1.429 . S
C1990 C1988 1.419 . S
C1990 C1991 1.363 . S
C1990 H1993 0.929 . S
C1991 C1990 1.363 . S
C1991 C1997 1.428 . S
H1992 C1988 0.930 . S
H1993 C1990 0.929 . S
S1994 N1995 1.613 . S
S1994 N1996 1.610 . S
N1995 S1994 1.613 . S
N1995 C1998 1.350 . S
N1996 S1994 1.610 . S
N1996 C1997 1.351 . S
C1997 C1991 1.428 . S
C1997 N1996 1.351 . S
C1997 C1998 1.434 . S
C1998 C1989 1.429 . S
C1998 N1995 1.350 . S
C1998 C1997 1.434 . S
C1999 C2000 1.369 . S
C1999 C2001 1.419 . S
C1999 H2003 0.930 . S
C2000 C1999 1.369 . S
C2000 C2009 1.456 . S
C2001 C1999 1.419 . S
C2001 C2002 1.363 . S
C2001 H2004 0.929 . S
C2002 C2001 1.363 . S
C2002 C2008 1.395 1_545 S
H2003 C1999 0.930 . S
H2004 C2001 0.929 . S
S2005 N2006 1.613 . S
S2005 N2007 1.610 . S
N2006 S2005 1.613 . S
N2006 C2009 1.322 1_565 S
N2007 S2005 1.610 . S
N2007 C2008 1.391 . S
C2008 C2002 1.395 1_565 S
C2008 N2007 1.391 . S
C2008 C2009 1.431 1_565 S
C2009 C2000 1.456 . S
C2009 N2006 1.322 1_545 S
C2009 C2008 1.431 1_545 S
C2010 C2011 1.369 . S
C2010 C2012 1.419 . S
C2010 H2014 0.930 . S
C2011 C2010 1.369 . S
C2011 C2020 1.429 . S
C2012 C2010 1.419 . S
C2012 C2013 1.363 . S
C2012 H2015 0.929 . S
C2013 C2012 1.363 . S
C2013 C2019 1.428 . S
H2014 C2010 0.930 . S
H2015 C2012 0.929 . S
S2016 N2017 1.613 . S
S2016 N2018 1.610 . S
N2017 S2016 1.613 . S
N2017 C2020 1.350 . S
N2018 S2016 1.610 . S
N2018 C2019 1.351 . S
C2019 C2013 1.428 . S
C2019 N2018 1.351 . S
C2019 C2020 1.434 . S
C2020 C2011 1.429 . S
C2020 N2017 1.350 . S
C2020 C2019 1.434 . S
C2021 C2022 1.369 . S
C2021 C2023 1.419 . S
C2021 H2025 0.930 . S
C2022 C2021 1.369 . S
C2022 C2031 1.429 . S
C2023 C2021 1.419 . S
C2023 C2024 1.363 . S
C2023 H2026 0.929 . S
C2024 C2023 1.363 . S
C2024 C2030 1.428 . S
H2025 C2021 0.930 . S
H2026 C2023 0.929 . S
S2027 N2028 1.613 . S
S2027 N2029 1.610 . S
N2028 S2027 1.613 . S
N2028 C2031 1.350 . S
N2029 S2027 1.610 . S
N2029 C2030 1.351 . S
C2030 C2024 1.428 . S
C2030 N2029 1.351 . S
C2030 C2031 1.434 . S
C2031 C2022 1.429 . S
C2031 N2028 1.350 . S
C2031 C2030 1.434 . S
C2032 C2033 1.369 . S
C2032 C2034 1.419 . S
C2032 H2036 0.930 . S
C2033 C2032 1.369 . S
C2033 C2042 1.429 . S
C2034 C2032 1.419 . S
C2034 C2035 1.363 . S
C2034 H2037 0.929 . S
C2035 C2034 1.363 . S
C2035 C2041 1.428 . S
H2036 C2032 0.930 . S
H2037 C2034 0.929 . S
S2038 N2039 1.613 . S
S2038 N2040 1.610 . S
N2039 S2038 1.613 . S
N2039 C2042 1.350 . S
N2040 S2038 1.610 . S
N2040 C2041 1.351 . S
C2041 C2035 1.428 . S
C2041 N2040 1.351 . S
C2041 C2042 1.434 . S
C2042 C2033 1.429 . S
C2042 N2039 1.350 . S
C2042 C2041 1.434 . S
C2043 C2044 1.369 . S
C2043 C2045 1.419 . S
C2043 H2047 0.930 . S
C2044 C2043 1.369 . S
C2044 C2053 1.429 . S
C2045 C2043 1.419 . S
C2045 C2046 1.363 . S
C2045 H2048 0.929 . S
C2046 C2045 1.363 . S
C2046 C2052 1.428 . S
H2047 C2043 0.930 . S
H2048 C2045 0.929 . S
S2049 N2050 1.613 1_455 S
S2049 N2051 1.606 1_455 S
N2050 S2049 1.613 1_655 S
N2050 C2053 1.350 . S
N2051 S2049 1.606 1_655 S
N2051 C2052 1.361 . S
C2052 C2046 1.428 . S
C2052 N2051 1.361 . S
C2052 C2053 1.434 . S
C2053 C2044 1.429 . S
C2053 N2050 1.350 . S
C2053 C2052 1.434 . S
C2054 C2055 1.369 . S
C2054 C2056 1.419 . S
C2054 H2058 0.930 . S
C2055 C2054 1.369 . S
C2055 C2064 1.429 . S
C2056 C2054 1.419 . S
C2056 C2057 1.363 . S
C2056 H2059 0.929 . S
C2057 C2056 1.363 . S
C2057 C2063 1.428 . S
H2058 C2054 0.930 . S
H2059 C2056 0.929 . S
S2060 N2061 1.613 . S
S2060 N2062 1.610 . S
N2061 S2060 1.613 . S
N2061 C2064 1.350 . S
N2062 S2060 1.610 . S
N2062 C2063 1.351 . S
C2063 C2057 1.428 . S
C2063 N2062 1.351 . S
C2063 C2064 1.434 . S
C2064 C2055 1.429 . S
C2064 N2061 1.350 . S
C2064 C2063 1.434 . S
C2065 C2066 1.369 . S
C2065 C2067 1.419 . S
C2065 H2069 0.930 1_455 S
C2066 C2065 1.369 . S
C2066 C2075 1.429 . S
C2067 C2065 1.419 . S
C2067 C2068 1.363 . S
C2067 H2070 0.929 1_455 S
C2068 C2067 1.363 . S
C2068 C2074 1.428 . S
H2069 C2065 0.930 1_655 S
H2070 C2067 0.929 1_655 S
S2071 N2072 1.613 . S
S2071 N2073 1.610 . S
N2072 S2071 1.613 . S
N2072 C2075 1.350 . S
N2073 S2071 1.610 . S
N2073 C2074 1.351 . S
C2074 C2068 1.428 . S
C2074 N2073 1.351 . S
C2074 C2075 1.434 . S
C2075 C2066 1.429 . S
C2075 N2072 1.350 . S
C2075 C2074 1.434 . S
C2076 C2077 1.369 . S
C2076 C2078 1.419 . S
C2076 H2080 0.930 . S
C2077 C2076 1.369 . S
C2077 C2086 1.429 . S
C2078 C2076 1.419 . S
C2078 C2079 1.363 . S
C2078 H2081 0.929 . S
C2079 C2078 1.363 . S
C2079 C2085 1.428 . S
H2080 C2076 0.930 . S
H2081 C2078 0.929 . S
S2082 N2083 1.613 . S
S2082 N2084 1.610 . S
N2083 S2082 1.613 . S
N2083 C2086 1.350 . S
N2084 S2082 1.610 . S
N2084 C2085 1.351 . S
C2085 C2079 1.428 . S
C2085 N2084 1.351 . S
C2085 C2086 1.434 . S
C2086 C2077 1.429 . S
C2086 N2083 1.350 . S
C2086 C2085 1.434 . S
C2087 C2088 1.369 . S
C2087 C2089 1.419 . S
C2087 H2091 0.930 . S
C2088 C2087 1.369 . S
C2088 C2097 1.429 . S
C2089 C2087 1.419 . S
C2089 C2090 1.363 . S
C2089 H2092 0.929 . S
C2090 C2089 1.363 . S
C2090 C2096 1.428 . S
H2091 C2087 0.930 . S
H2092 C2089 0.929 . S
S2093 N2094 1.613 . S
S2093 N2095 1.610 . S
N2094 S2093 1.613 . S
N2094 C2097 1.350 . S
N2095 S2093 1.610 . S
N2095 C2096 1.351 . S
C2096 C2090 1.428 . S
C2096 N2095 1.351 . S
C2096 C2097 1.434 . S
C2097 C2088 1.429 . S
C2097 N2094 1.350 . S
C2097 C2096 1.434 . S
C2098 C2099 1.369 . S
C2098 C2100 1.419 . S
C2098 H2102 0.930 . S
C2099 C2098 1.369 . S
C2099 C2108 1.429 . S
C2100 C2098 1.419 . S
C2100 C2101 1.363 . S
C2100 H2103 0.929 . S
C2101 C2100 1.363 . S
C2101 C2107 1.428 . S
H2102 C2098 0.930 . S
H2103 C2100 0.929 . S
S2104 N2105 1.613 . S
S2104 N2106 1.610 . S
N2105 S2104 1.613 . S
N2105 C2108 1.350 . S
N2106 S2104 1.610 . S
N2106 C2107 1.351 . S
C2107 C2101 1.428 . S
C2107 N2106 1.351 . S
C2107 C2108 1.434 . S
C2108 C2099 1.429 . S
C2108 N2105 1.350 . S
C2108 C2107 1.434 . S
C2109 C2110 1.369 . S
C2109 C2111 1.419 . S
C2109 H2113 0.930 . S
C2110 C2109 1.369 . S
C2110 C2119 1.429 . S
C2111 C2109 1.419 . S
C2111 C2112 1.363 . S
C2111 H2114 0.929 . S
C2112 C2111 1.363 . S
C2112 C2118 1.428 . S
H2113 C2109 0.930 . S
H2114 C2111 0.929 . S
S2115 N2116 1.613 . S
S2115 N2117 1.610 . S
N2116 S2115 1.613 . S
N2116 C2119 1.350 . S
N2117 S2115 1.610 . S
N2117 C2118 1.351 . S
C2118 C2112 1.428 . S
C2118 N2117 1.351 . S
C2118 C2119 1.434 . S
C2119 C2110 1.429 . S
C2119 N2116 1.350 . S
C2119 C2118 1.434 . S
C2120 C2121 1.369 . S
C2120 C2122 1.419 . S
C2120 H2124 0.930 . S
C2121 C2120 1.369 . S
C2121 C2130 1.429 . S
C2122 C2120 1.419 . S
C2122 C2123 1.363 . S
C2122 H2125 0.929 . S
C2123 C2122 1.363 . S
C2123 C2129 1.428 . S
H2124 C2120 0.930 . S
H2125 C2122 0.929 . S
S2126 N2127 1.613 . S
S2126 N2128 1.610 . S
N2127 S2126 1.613 . S
N2127 C2130 1.350 . S
N2128 S2126 1.610 . S
N2128 C2129 1.351 . S
C2129 C2123 1.428 . S
C2129 N2128 1.351 . S
C2129 C2130 1.434 . S
C2130 C2121 1.429 . S
C2130 N2127 1.350 . S
C2130 C2129 1.434 . S
C2131 C2132 1.369 . S
C2131 C2133 1.419 . S
C2131 H2135 0.930 . S
C2132 C2131 1.369 . S
C2132 C2141 1.429 . S
C2133 C2131 1.419 . S
C2133 C2134 1.363 . S
C2133 H2136 0.929 . S
C2134 C2133 1.363 . S
C2134 C2140 1.428 . S
H2135 C2131 0.930 . S
H2136 C2133 0.929 . S
S2137 N2138 1.613 . S
S2137 N2139 1.610 . S
N2138 S2137 1.613 . S
N2138 C2141 1.350 . S
N2139 S2137 1.610 . S
N2139 C2140 1.351 . S
C2140 C2134 1.428 . S
C2140 N2139 1.351 . S
C2140 C2141 1.434 . S
C2141 C2132 1.429 . S
C2141 N2138 1.350 . S
C2141 C2140 1.434 . S
C2142 C2143 1.369 . S
C2142 C2144 1.419 . S
C2142 H2146 0.930 . S
C2143 C2142 1.369 . S
C2143 C2152 1.429 . S
C2144 C2142 1.419 . S
C2144 C2145 1.363 . S
C2144 H2147 0.929 . S
C2145 C2144 1.363 . S
C2145 C2151 1.428 . S
H2146 C2142 0.930 . S
H2147 C2144 0.929 . S
S2148 N2149 1.613 . S
S2148 N2150 1.610 . S
N2149 S2148 1.613 . S
N2149 C2152 1.350 . S
N2150 S2148 1.610 . S
N2150 C2151 1.351 . S
C2151 C2145 1.428 . S
C2151 N2150 1.351 . S
C2151 C2152 1.434 . S
C2152 C2143 1.429 . S
C2152 N2149 1.350 . S
C2152 C2151 1.434 . S
C2153 C2154 1.369 . S
C2153 C2155 1.419 . S
C2153 H2157 0.930 . S
C2154 C2153 1.369 . S
C2154 C2163 1.429 . S
C2155 C2153 1.419 . S
C2155 C2156 1.363 . S
C2155 H2158 0.929 . S
C2156 C2155 1.363 . S
C2156 C2162 1.428 . S
H2157 C2153 0.930 . S
H2158 C2155 0.929 . S
S2159 N2160 1.613 . S
S2159 N2161 1.610 . S
N2160 S2159 1.613 . S
N2160 C2163 1.350 . S
N2161 S2159 1.610 . S
N2161 C2162 1.351 . S
C2162 C2156 1.428 . S
C2162 N2161 1.351 . S
C2162 C2163 1.434 . S
C2163 C2154 1.429 . S
C2163 N2160 1.350 . S
C2163 C2162 1.434 . S
C2164 C2165 1.369 . S
C2164 C2166 1.419 . S
C2164 H2168 0.930 . S
C2165 C2164 1.369 . S
C2165 C2174 1.429 . S
C2166 C2164 1.419 . S
C2166 C2167 1.363 . S
C2166 H2169 0.929 . S
C2167 C2166 1.363 . S
C2167 C2173 1.428 . S
H2168 C2164 0.930 . S
H2169 C2166 0.929 . S
S2170 N2171 1.613 . S
S2170 N2172 1.610 . S
N2171 S2170 1.613 . S
N2171 C2174 1.350 . S
N2172 S2170 1.610 . S
N2172 C2173 1.351 . S
C2173 C2167 1.428 . S
C2173 N2172 1.351 . S
C2173 C2174 1.434 . S
C2174 C2165 1.429 . S
C2174 N2171 1.350 . S
C2174 C2173 1.434 . S
C2175 C2176 1.369 . S
C2175 C2177 1.419 . S
C2175 H2179 0.930 . S
C2176 C2175 1.369 . S
C2176 C2185 1.429 . S
C2177 C2175 1.419 . S
C2177 C2178 1.363 . S
C2177 H2180 0.929 . S
C2178 C2177 1.363 . S
C2178 C2184 1.428 . S
H2179 C2175 0.930 . S
H2180 C2177 0.929 . S
S2181 N2182 1.613 . S
S2181 N2183 1.610 . S
N2182 S2181 1.613 . S
N2182 C2185 1.350 . S
N2183 S2181 1.610 . S
N2183 C2184 1.351 . S
C2184 C2178 1.428 . S
C2184 N2183 1.351 . S
C2184 C2185 1.434 . S
C2185 C2176 1.429 . S
C2185 N2182 1.350 . S
C2185 C2184 1.434 . S
C2186 C2187 1.369 . S
C2186 C2188 1.419 . S
C2186 H2190 0.930 . S
C2187 C2186 1.369 . S
C2187 C2196 1.429 1_554 S
C2188 C2186 1.419 . S
C2188 C2189 1.363 . S
C2188 H2191 0.929 . S
C2189 C2188 1.363 . S
C2189 C2195 1.428 1_554 S
H2190 C2186 0.930 . S
H2191 C2188 0.929 . S
S2192 N2193 1.613 . S
S2192 N2194 1.610 . S
N2193 S2192 1.613 . S
N2193 C2196 1.350 . S
N2194 S2192 1.610 . S
N2194 C2195 1.351 . S
C2195 C2189 1.428 1_556 S
C2195 N2194 1.351 . S
C2195 C2196 1.434 . S
C2196 C2187 1.429 1_556 S
C2196 N2193 1.350 . S
C2196 C2195 1.434 . S
C2197 C2198 1.369 . S
C2197 C2199 1.419 . S
C2197 H2201 0.930 . S
C2198 C2197 1.369 . S
C2198 C2207 1.429 . S
C2199 C2197 1.419 . S
C2199 C2200 1.363 . S
C2199 H2202 0.929 . S
C2200 C2199 1.363 . S
C2200 C2206 1.428 . S
H2201 C2197 0.930 . S
H2202 C2199 0.929 . S
S2203 N2204 1.613 . S
S2203 N2205 1.610 . S
N2204 S2203 1.613 . S
N2204 C2207 1.350 . S
N2205 S2203 1.610 . S
N2205 C2206 1.351 . S
C2206 C2200 1.428 . S
C2206 N2205 1.351 . S
C2206 C2207 1.434 . S
C2207 C2198 1.429 . S
C2207 N2204 1.350 . S
C2207 C2206 1.434 . S
C1683 C673 1.508 . S
C1681 C211 1.506 . S
C1694 C732 1.517 . S
C1692 C255 1.513 . S
C1703 C274 1.509 . S
C1705 C849 1.514 . S
C1716 C917 1.525 . S
C1714 C157 1.524 . S
C1727 C996 1.518 . S
C1725 C391 1.518 . S
C1738 C1121 1.524 . S
C1736 C484 1.518 . S
C1747 C450 1.508 . S
C1749 C1181 1.508 . S
C1760 C1289 1.526 . S
C1758 C352 1.521 . S
C1769 C430 1.507 . S
C1771 C1385 1.509 . S
C1782 C1445 1.531 . S
C1780 C367 1.529 . S
C1791 C411 1.523 . S
C1793 C1348 1.529 . S
C1804 C1465 1.522 . S
C1802 C469 1.519 . S
C1813 C294 1.504 . S
C1815 C1533 1.509 . S
C1824 C177 1.525 . S
C1826 C1524 1.524 . S
C1835 C196 1.511 . S
C1837 C1553 1.512 . S
C1846 C235 1.517 . S
C1848 C1561 1.520 . S
C1857 C133 1.514 . S
C1859 C945 1.513 . S
C1868 C567 1.504 . S
C1870 C908 1.508 . S
C1881 C644 1.520 . S
C1879 C601 1.518 . S
C1892 C741 1.513 . S
C1890 C328 1.512 . S
C1901 C172 1.519 . S
C1903 C1005 1.520 . S
C1914 C1297 1.511 . S
C1912 C445 1.511 . S
C1925 C1025 1.538 . S
C1923 C372 1.530 . S
C1936 C1209 1.513 . S
C1934 C489 1.512 . S
C1947 C1201 1.508 . S
C1945 C562 1.506 . S
C1956 C606 1.513 . S
C1958 C1269 1.517 . S
C1967 C313 1.510 . S
C1969 C1033 1.513 . S
C1980 C1084 1.525 . S
C1978 C508 1.522 . S
C1989 C118 1.516 . S
C1991 C829 1.519 . S
C2002 C937 1.523 . S
C2000 C16 1.520 . S
C2013 C653 1.507 . S
C2011 C60 1.508 . S
C2024 C769 1.526 . S
C2022 C79 1.520 . S
C2033 C40 1.508 . S
C2035 C1473 1.508 . S
C2044 C94 1.530 . S
C2046 C1357 1.530 . S
C2055 C138 1.523 . S
C2057 C1436 1.529 . S
C2066 C1 1.518 . S
C2068 C1377 1.521 . S
C2079 C1621 1.510 . S
C2077 C333 1.503 . S
C2090 C1612 1.525 . S
C2088 C528 1.523 . S
C2101 C1641 1.512 . S
C2099 C547 1.510 . S
C2110 C586 1.515 . S
C2112 C1649 1.521 . S
C2121 C406 1.513 . S
C2123 C1113 1.513 . S
C2134 C1093 1.507 . S
C2132 C216 1.505 . S
C2145 C1172 1.520 . S
C2143 C250 1.518 . S
C2156 C1260 1.513 . S
C2154 C289 1.514 . S
C2165 C523 1.519 . S
C2167 C820 1.520 . S
C2178 C761 1.513 . S
C2176 C55 1.509 . S
C2187 C99 1.533 . S
C2189 C857 1.537 . S
C2200 C681 1.512 . S
C2198 C21 1.512 . S
