# Generated by pormake.
# Topology apo, (3,6)-cn, num edge types: 1
# Building blocks:
#     Node 0, Type 0, BuildingBlock: BELTOD_clean_linker_0, # of connection points: 3
#     Node 1, Type 0, BuildingBlock: BELTOD_clean_linker_0, # of connection points: 3
#     Node 2, Type 0, BuildingBlock: BELTOD_clean_linker_0, # of connection points: 3
#     Node 3, Type 0, BuildingBlock: BELTOD_clean_linker_0, # of connection points: 3
#     Node 4, Type 0, BuildingBlock: BELTOD_clean_linker_0, # of connection points: 3
#     Node 5, Type 0, BuildingBlock: BELTOD_clean_linker_0, # of connection points: 3
#     Node 6, Type 0, BuildingBlock: BELTOD_clean_linker_0, # of connection points: 3
#     Node 7, Type 0, BuildingBlock: BELTOD_clean_linker_0, # of connection points: 3
#     Node 8, Type 1, BuildingBlock: KUMBOL_clean_sbu_1, # of connection points: 6
#     Node 9, Type 1, BuildingBlock: KUMBOL_clean_sbu_1, # of connection points: 6
#     Node 10, Type 1, BuildingBlock: KUMBOL_clean_sbu_1, # of connection points: 6
#     Node 11, Type 1, BuildingBlock: KUMBOL_clean_sbu_1, # of connection points: 6
#     Edge 12, Type (0, 1), BuildingBlock: AJUNOK_clean_linker_0, # of connection points: 2
#     Edge 13, Type (0, 1), BuildingBlock: AJUNOK_clean_linker_0, # of connection points: 2
#     Edge 14, Type (0, 1), BuildingBlock: AJUNOK_clean_linker_0, # of connection points: 2
#     Edge 15, Type (0, 1), BuildingBlock: AJUNOK_clean_linker_0, # of connection points: 2
#     Edge 16, Type (0, 1), BuildingBlock: AJUNOK_clean_linker_0, # of connection points: 2
#     Edge 17, Type (0, 1), BuildingBlock: AJUNOK_clean_linker_0, # of connection points: 2
#     Edge 18, Type (0, 1), BuildingBlock: AJUNOK_clean_linker_0, # of connection points: 2
#     Edge 19, Type (0, 1), BuildingBlock: AJUNOK_clean_linker_0, # of connection points: 2
#     Edge 20, Type (0, 1), BuildingBlock: AJUNOK_clean_linker_0, # of connection points: 2
#     Edge 21, Type (0, 1), BuildingBlock: AJUNOK_clean_linker_0, # of connection points: 2
#     Edge 22, Type (0, 1), BuildingBlock: AJUNOK_clean_linker_0, # of connection points: 2
#     Edge 23, Type (0, 1), BuildingBlock: AJUNOK_clean_linker_0, # of connection points: 2
#     Edge 24, Type (0, 1), BuildingBlock: AJUNOK_clean_linker_0, # of connection points: 2
#     Edge 25, Type (0, 1), BuildingBlock: AJUNOK_clean_linker_0, # of connection points: 2
#     Edge 26, Type (0, 1), BuildingBlock: AJUNOK_clean_linker_0, # of connection points: 2
#     Edge 27, Type (0, 1), BuildingBlock: AJUNOK_clean_linker_0, # of connection points: 2
#     Edge 28, Type (0, 1), BuildingBlock: AJUNOK_clean_linker_0, # of connection points: 2
#     Edge 29, Type (0, 1), BuildingBlock: AJUNOK_clean_linker_0, # of connection points: 2
#     Edge 30, Type (0, 1), BuildingBlock: AJUNOK_clean_linker_0, # of connection points: 2
#     Edge 31, Type (0, 1), BuildingBlock: AJUNOK_clean_linker_0, # of connection points: 2
#     Edge 32, Type (0, 1), BuildingBlock: AJUNOK_clean_linker_0, # of connection points: 2
#     Edge 33, Type (0, 1), BuildingBlock: AJUNOK_clean_linker_0, # of connection points: 2
#     Edge 34, Type (0, 1), BuildingBlock: AJUNOK_clean_linker_0, # of connection points: 2
#     Edge 35, Type (0, 1), BuildingBlock: AJUNOK_clean_linker_0, # of connection points: 2
# Relax obj value: 0.007
# Max RMSD: 0.128
# Mean RMSD: 0.093
data_MOF--net-apo--node1-KUMBOL_clean_sbu_1--node2-BELTOD_clean_linker_0--edge1-AJUNOK_clean_linker_0
_symmetry_space_group_name_H-M    P1
_symmetry_Int_Tables_number       1
_symmetry_cell_setting            triclinic
loop_
_symmetry_equiv_pos_as_xyz
'x, y, z'
_cell_length_a     21.440423
_cell_length_b     36.814431
_cell_length_c     47.576789
_cell_angle_alpha  89.545261
_cell_angle_beta   90.182548
_cell_angle_gamma 90.324408
loop_
_atom_site_label
_atom_site_type_symbol
_atom_site_fract_x
_atom_site_fract_y
_atom_site_fract_z
_atom_type_partial_charge
P0 P 0.36127 0.35226 0.3983 0.0
H1 H 0.40075 0.31098 0.44789 0.0
H2 H 0.38956 0.32132 0.49825 0.0
H3 H 0.27114 0.41332 0.4806 0.0
H4 H 0.28432 0.40348 0.43006 0.0
H5 H 0.37502 0.3068 0.34925 0.0
H6 H 0.30313 0.26793 0.32304 0.0
H7 H 0.15309 0.29901 0.37795 0.0
H8 H 0.2258 0.33808 0.4044 0.0
H9 H 0.46547 0.40283 0.39663 0.0
H10 H 0.27711 0.39911 0.36465 0.0
O11 O 0.43021 0.33161 0.3961 0.0
H12 H 0.48332 0.46029 0.37174 0.0
H13 H 0.29492 0.45702 0.33962 0.0
C14 C 0.34403 0.35676 0.43522 0.0
C15 C 0.37183 0.33318 0.45482 0.0
C16 C 0.36502 0.33894 0.48369 0.0
C17 C 0.32943 0.36814 0.49352 0.0
C18 C 0.29944 0.39081 0.47372 0.0
C19 C 0.3066 0.38512 0.44483 0.0
C20 C 0.30611 0.32457 0.37922 0.0
C21 C 0.32679 0.30511 0.35585 0.0
C22 C 0.28573 0.28288 0.34088 0.0
C23 C 0.22286 0.27997 0.34879 0.0
C24 C 0.20148 0.3006 0.37157 0.0
C25 C 0.24294 0.32274 0.38674 0.0
C26 C 0.37052 0.3963 0.38195 0.0
C27 C 0.42783 0.41447 0.38435 0.0
C28 C 0.43798 0.44729 0.37017 0.0
C29 C 0.39063 0.46286 0.35362 0.0
C30 C 0.33207 0.44558 0.35232 0.0
C31 C 0.32206 0.41244 0.36644 0.0
P32 P 0.31383 0.09673 0.91269 0.0
H33 H 0.34664 0.03145 0.8816 0.0
H34 H 0.28647 0.99019 0.85193 0.0
H35 H 0.12176 0.05473 0.86515 0.0
H36 H 0.18269 0.09637 0.89481 0.0
H37 H 0.41123 0.11376 0.87281 0.0
H38 H 0.43817 0.168 0.84573 0.0
H39 H 0.2798 0.22371 0.88053 0.0
H40 H 0.25167 0.16834 0.90718 0.0
H41 H 0.23551 0.05002 0.94774 0.0
H42 H 0.31847 0.15668 0.9532 0.0
O43 O 0.38186 0.07678 0.91979 0.0
H44 H 0.20725 0.05257 0.99732 0.0
H45 H 0.28745 0.16021 1.00251 0.0
C46 C 0.26882 0.06666 0.89074 0.0
C47 C 0.29758 0.03678 0.87822 0.0
C48 C 0.2632 0.01319 0.86124 0.0
C49 C 0.19953 0.01927 0.85621 0.0
C50 C 0.17097 0.04964 0.8684 0.0
C51 C 0.2055 0.07324 0.88549 0.0
C52 C 0.33093 0.1375 0.89286 0.0
C53 C 0.38248 0.13768 0.87487 0.0
C54 C 0.39799 0.16878 0.85946 0.0
C55 C 0.36233 0.20053 0.86172 0.0
C56 C 0.30869 0.1998 0.87872 0.0
C57 C 0.29287 0.16835 0.89409 0.0
C58 C 0.27777 0.10352 0.94646 0.0
C59 C 0.24553 0.07461 0.95929 0.0
C60 C 0.22951 0.07606 0.98774 0.0
C61 C 0.24591 0.10636 1.00406 0.0
C62 C 0.27539 0.1361 0.99075 0.0
C63 C 0.2921 0.13442 0.96235 0.0
P64 P 0.87283 0.15838 0.62804 0.0
H65 H 0.83041 0.20937 0.58496 0.0
H66 H 0.82034 0.20555 0.534 0.0
H67 H 0.88895 0.09545 0.53705 0.0
H68 H 0.8949 0.09864 0.58819 0.0
H69 H 0.87067 0.2035 0.67788 0.0
H70 H 0.78887 0.23919 0.70027 0.0
H71 H 0.65847 0.20629 0.63592 0.0
H72 H 0.74024 0.16991 0.61382 0.0
H73 H 0.97277 0.10536 0.63156 0.0
H74 H 0.78618 0.11619 0.66408 0.0
O75 O 0.94012 0.18052 0.63279 0.0
H76 H 0.98362 0.04733 0.65667 0.0
H77 H 0.79777 0.05859 0.68982 0.0
C78 C 0.86194 0.15406 0.59057 0.0
C79 C 0.84228 0.18417 0.57473 0.0
C80 C 0.83773 0.18218 0.54548 0.0
C81 C 0.855 0.1504 0.53132 0.0
C82 C 0.87506 0.12029 0.54728 0.0
C83 C 0.87853 0.12212 0.57662 0.0
C84 C 0.81203 0.185 0.64373 0.0
C85 C 0.82465 0.20416 0.66845 0.0
C86 C 0.77792 0.22436 0.68128 0.0
C87 C 0.71779 0.22578 0.66955 0.0
C88 C 0.70484 0.2061 0.64503 0.0
C89 C 0.7515 0.18544 0.6324 0.0
C90 C 0.87881 0.11515 0.64594 0.0
C91 C 0.93417 0.09527 0.64406 0.0
C92 C 0.94034 0.0622 0.65837 0.0
C93 C 0.89147 0.0487 0.6751 0.0
C94 C 0.83607 0.06863 0.6771 0.0
C95 C 0.82951 0.10147 0.66235 0.0
P96 P 0.79563 0.41093 0.10351 0.0
H97 H 0.83377 0.45634 0.14988 0.0
H98 H 0.77759 0.49799 0.18056 0.0
H99 H 0.60781 0.47717 0.13432 0.0
H100 H 0.66393 0.43484 0.10394 0.0
H101 H 0.89317 0.35642 0.09982 0.0
H102 H 0.92378 0.30574 0.13055 0.0
H103 H 0.77074 0.32961 0.18598 0.0
H104 H 0.7394 0.37982 0.15498 0.0
H105 H 0.73947 0.45377 0.05827 0.0
H106 H 0.76923 0.34038 0.077 0.0
O107 O 0.86261 0.43086 0.0942 0.0
H108 H 0.70046 0.43777 0.01147 0.0
H109 H 0.7333 0.32444 0.03015 0.0
C110 C 0.75332 0.44312 0.12431 0.0
C111 C 0.78455 0.46094 0.1462 0.0
C112 C 0.75245 0.48446 0.16381 0.0
C113 C 0.68853 0.49061 0.15975 0.0
C114 C 0.65724 0.47293 0.1377 0.0
C115 C 0.6893 0.44892 0.12029 0.0
C116 C 0.81468 0.37224 0.12532 0.0
C117 C 0.86604 0.35066 0.11852 0.0
C118 C 0.88342 0.32176 0.13602 0.0
C119 C 0.85004 0.31422 0.16076 0.0
C120 C 0.79776 0.33533 0.16725 0.0
C121 C 0.77984 0.36394 0.14949 0.0
C122 C 0.7564 0.3983 0.07136 0.0
C123 C 0.73641 0.42539 0.05255 0.0
C124 C 0.71458 0.41624 0.02573 0.0
C125 C 0.71304 0.37978 0.0171 0.0
C126 C 0.73197 0.35268 0.0363 0.0
C127 C 0.7532 0.36185 0.06316 0.0
P128 P 0.80597 0.60082 0.61248 0.0
H129 H 0.84784 0.57307 0.55837 0.0
H130 H 0.80452 0.57629 0.51105 0.0
H131 H 0.65806 0.64625 0.54065 0.0
H132 H 0.7013 0.64225 0.58851 0.0
H133 H 0.92051 0.64344 0.61448 0.0
H134 H 0.95267 0.69605 0.64202 0.0
H135 H 0.76633 0.70415 0.67554 0.0
H136 H 0.73384 0.65194 0.64711 0.0
H137 H 0.71112 0.54734 0.59622 0.0
H138 H 0.78507 0.59188 0.67314 0.0
O139 O 0.8714 0.57653 0.61119 0.0
H140 H 0.64639 0.50508 0.6235 0.0
H141 H 0.71924 0.55001 0.70043 0.0
C142 C 0.77799 0.6076 0.57699 0.0
C143 C 0.80687 0.58951 0.55476 0.0
C144 C 0.78209 0.59142 0.5276 0.0
C145 C 0.72757 0.61128 0.52208 0.0
C146 C 0.69954 0.63023 0.5443 0.0
C147 C 0.72449 0.62827 0.57158 0.0
C148 C 0.82523 0.64322 0.62931 0.0
C149 C 0.88627 0.65678 0.62745 0.0
C150 C 0.9047 0.68677 0.6433 0.0
C151 C 0.86229 0.70396 0.66125 0.0
C152 C 0.80003 0.69163 0.66181 0.0
C153 C 0.78151 0.66165 0.64573 0.0
C154 C 0.75134 0.5738 0.63259 0.0
C155 C 0.71226 0.5488 0.61893 0.0
C156 C 0.67558 0.52447 0.6345 0.0
C157 C 0.67733 0.52474 0.66399 0.0
C158 C 0.71614 0.54987 0.6777 0.0
C159 C 0.75348 0.57389 0.6621 0.0
P160 P 0.83145 0.86949 0.1124 0.0
H161 H 0.92629 0.8881 0.15371 0.0
H162 H 0.94441 0.94149 0.18279 0.0
H163 H 0.78222 0.99275 0.14642 0.0
H164 H 0.76403 0.93881 0.11716 0.0
H165 H 0.85312 0.81673 0.15696 0.0
H166 H 0.78458 0.7756 0.18318 0.0
H167 H 0.62533 0.81799 0.13816 0.0
H168 H 0.69447 0.85999 0.11227 0.0
H169 H 0.84611 0.93182 0.07383 0.0
H170 H 0.76747 0.82384 0.07143 0.0
O171 O 0.89933 0.84785 0.10965 0.0
H172 H 0.82704 0.93884 0.02335 0.0
H173 H 0.74823 0.83078 0.02095 0.0
C174 C 0.84474 0.90989 0.13275 0.0
C175 C 0.89478 0.91087 0.15177 0.0
C176 C 0.90479 0.94124 0.1686 0.0
C177 C 0.86452 0.97113 0.16694 0.0
C178 C 0.81408 0.97009 0.14798 0.0
C179 C 0.80378 0.93942 0.13125 0.0
C180 C 0.77911 0.84042 0.13195 0.0
C181 C 0.80352 0.81711 0.15258 0.0
C182 C 0.76434 0.79357 0.16752 0.0
C183 C 0.69985 0.79291 0.16214 0.0
C184 C 0.67496 0.81767 0.14248 0.0
C185 C 0.71439 0.84142 0.12756 0.0
C186 C 0.80593 0.87783 0.07673 0.0
C187 C 0.82269 0.91011 0.06271 0.0
C188 C 0.81198 0.91407 0.03379 0.0
C189 C 0.78541 0.88551 0.01827 0.0
C190 C 0.76838 0.85331 0.0324 0.0
C191 C 0.77876 0.84949 0.06132 0.0
P192 P 0.27281 0.89959 0.41076 0.0
H193 H 0.32828 0.87845 0.46398 0.0
H194 H 0.28513 0.85778 0.5089 0.0
H195 H 0.09952 0.86211 0.47373 0.0
H196 H 0.14319 0.88213 0.4284 0.0
H197 H 0.38429 0.89273 0.3764 0.0
H198 H 0.42438 0.84388 0.3471 0.0
H199 H 0.26906 0.77567 0.37147 0.0
H200 H 0.22854 0.82496 0.40075 0.0
H201 H 0.16979 0.94962 0.42297 0.0
H202 H 0.26824 0.91197 0.34997 0.0
O203 O 0.33208 0.92682 0.41959 0.0
H204 H 0.10954 0.99108 0.39322 0.0
H205 H 0.21194 0.95492 0.32065 0.0
C206 C 0.23883 0.88302 0.44313 0.0
C207 C 0.27826 0.87504 0.46588 0.0
C208 C 0.25365 0.86307 0.4915 0.0
C209 C 0.18897 0.85893 0.4949 0.0
C210 C 0.14949 0.86581 0.4718 0.0
C211 C 0.17436 0.87732 0.44596 0.0
C212 C 0.30394 0.86226 0.39106 0.0
C213 C 0.35907 0.86718 0.37569 0.0
C214 C 0.38166 0.83942 0.35876 0.0
C215 C 0.34949 0.8062 0.35692 0.0
C216 C 0.29468 0.80107 0.37262 0.0
C217 C 0.27166 0.8291 0.38936 0.0
C218 C 0.22176 0.9264 0.38866 0.0
C219 C 0.17743 0.94953 0.4005 0.0
C220 C 0.14365 0.97368 0.38348 0.0
C221 C 0.15494 0.97598 0.35436 0.0
C222 C 0.19999 0.95299 0.3427 0.0
C223 C 0.23273 0.92842 0.35963 0.0
P224 P 0.37512 0.6511 0.90298 0.0
H225 H 0.44097 0.63144 0.85238 0.0
H226 H 0.44786 0.57535 0.82559 0.0
H227 H 0.3264 0.52167 0.88527 0.0
H228 H 0.32047 0.57815 0.91243 0.0
H229 H 0.37185 0.72902 0.89086 0.0
H230 H 0.30022 0.76704 0.86361 0.0
H231 H 0.18221 0.67365 0.84876 0.0
H232 H 0.2548 0.63555 0.87567 0.0
H233 H 0.44514 0.61797 0.94883 0.0
H234 H 0.26819 0.67155 0.93831 0.0
O235 O 0.44462 0.67161 0.90112 0.0
H236 H 0.42849 0.61489 0.99981 0.0
H237 H 0.25165 0.66889 0.98909 0.0
C238 C 0.38116 0.60873 0.88461 0.0
C239 C 0.41613 0.60757 0.85984 0.0
C240 C 0.4194 0.57563 0.84436 0.0
C241 C 0.38688 0.5443 0.85312 0.0
C242 C 0.35186 0.54544 0.87805 0.0
C243 C 0.3486 0.57759 0.89359 0.0
C244 C 0.31928 0.67935 0.88483 0.0
C245 C 0.33064 0.71668 0.88172 0.0
C246 C 0.28957 0.73841 0.86621 0.0
C247 C 0.23618 0.72321 0.85359 0.0
C248 C 0.22382 0.68595 0.85757 0.0
C249 C 0.26502 0.66421 0.87312 0.0
C250 C 0.35795 0.64495 0.9398 0.0
C251 C 0.40236 0.62864 0.95746 0.0
C252 C 0.39298 0.62703 0.98655 0.0
C253 C 0.33864 0.64144 0.99844 0.0
C254 C 0.29347 0.65694 0.98053 0.0
C255 C 0.30302 0.65865 0.95146 0.0
C256 C 0.78776 0.12679 0.26856 0.0
C257 C 0.76597 0.06654 0.28742 0.0
C258 C 0.80636 0.09653 0.28387 0.0
C259 C 0.70727 0.06676 0.27427 0.0
C260 C 0.72772 0.12774 0.25636 0.0
C261 C 0.68825 0.09725 0.25871 0.0
N262 N 0.8266 0.15615 0.26727 0.0
C263 C 0.80524 0.1884 0.25673 0.0
C264 C 0.70817 0.1598 0.24315 0.0
C265 C 0.74668 0.19047 0.24382 0.0
Gd266 Gd 0.05578 0.13617 0.22705 0.0
Gd267 Gd 0.92527 0.14875 0.28878 0.0
N268 N 0.86369 0.09693 0.29605 0.0
C269 C 0.78527 0.03767 0.30467 0.0
C270 C 0.88189 0.06968 0.31381 0.0
C271 C 0.84312 0.03951 0.31826 0.0
H272 H 0.92663 0.07118 0.32428 0.0
H273 H 0.85798 0.01764 0.332 0.0
H274 H 0.02848 0.2118 0.18783 0.0
H275 H 0.83212 0.213 0.25889 0.0
H276 H 0.07675 0.27171 0.17986 0.0
H277 H 0.75546 0.01419 0.30804 0.0
H278 H 0.67571 0.04384 0.27652 0.0
H279 H 0.16442 0.08423 0.25666 0.0
H280 H 0.66242 0.16164 0.23352 0.0
H281 H 0.73072 0.21595 0.23495 0.0
H282 H 0.2756 0.26288 0.22584 0.0
H283 H 0.64218 0.09741 0.24928 0.0
H284 H 0.33069 0.14794 0.26679 0.0
H285 H 0.27407 0.08956 0.27247 0.0
N286 N 0.15928 0.13906 0.24263 0.0
C287 C 0.1902 0.17087 0.23823 0.0
C288 C 0.18877 0.10982 0.25425 0.0
C289 C 0.28273 0.14569 0.25974 0.0
C290 C 0.25089 0.1127 0.26305 0.0
C291 C 0.25247 0.1753 0.24718 0.0
H292 H 0.33025 0.21295 0.25002 0.0
N293 N 0.09988 0.19312 0.21536 0.0
C294 C 0.15914 0.19897 0.22468 0.0
C295 C 0.15893 0.25919 0.20415 0.0
C296 C 0.19 0.23231 0.2196 0.0
C297 C 0.07175 0.21807 0.19825 0.0
C298 C 0.09998 0.25177 0.19298 0.0
O299 O 0.92281 0.09839 0.26154 0.0
O300 O 0.9535 0.12518 0.22119 0.0
O301 O 0.08222 0.13608 0.18306 0.0
O302 O 0.07912 0.08551 0.20643 0.0
O303 O 0.01114 0.11585 0.29983 0.0
O304 O 0.04613 0.08943 0.25831 0.0
O305 O 0.08542 0.15798 0.26953 0.0
O306 O 0.00051 0.19127 0.28238 0.0
O307 O 0.94093 0.14694 0.33415 0.0
O308 O 0.86918 0.18122 0.31665 0.0
O309 O 0.96965 0.16935 0.21692 0.0
O310 O 0.93948 0.19626 0.25846 0.0
C311 C 0.92667 0.098 0.23411 0.0
C312 C 0.03978 0.08978 0.286 0.0
C313 C 0.15135 0.09049 0.16843 0.0
C314 C 0.21311 0.08837 0.12526 0.0
C315 C 0.25266 0.06145 0.16866 0.0
C316 C 0.19882 0.07187 0.18282 0.0
C317 C 0.25975 0.06943 0.14009 0.0
C318 C 0.15874 0.0986 0.13964 0.0
C319 C 0.09348 0.10145 0.18272 0.0
C320 C 0.25137 0.23734 0.22935 0.0
C321 C 0.28258 0.20888 0.24305 0.0
H322 H 0.18099 0.28518 0.19979 0.0
C323 C 0.06055 0.18484 0.28353 0.0
C324 C 0.94404 0.19629 0.2308 0.0
C325 C 0.8482 0.15354 0.36052 0.0
C326 C 0.81993 0.14259 0.40968 0.0
C327 C 0.74618 0.12882 0.37219 0.0
C328 C 0.78913 0.14079 0.3522 0.0
C329 C 0.76118 0.12987 0.40071 0.0
C330 C 0.8637 0.15393 0.38926 0.0
C331 C 0.89307 0.16732 0.33944 0.0
H332 H 0.28887 0.04683 0.17982 0.0
H333 H 0.19423 0.06508 0.20489 0.0
H334 H 0.30134 0.06022 0.1295 0.0
H335 H 0.12223 0.11306 0.12848 0.0
H336 H 0.70071 0.11916 0.36557 0.0
H337 H 0.77574 0.14045 0.33027 0.0
H338 H 0.72625 0.12131 0.4158 0.0
H339 H 0.90972 0.16306 0.39561 0.0
C340 C 0.687 0.41235 0.75813 0.0
C341 C 0.67552 0.4752 0.77193 0.0
C342 C 0.65424 0.43887 0.77238 0.0
C343 C 0.72799 0.48469 0.75579 0.0
C344 C 0.7404 0.42157 0.74236 0.0
C345 C 0.76032 0.45795 0.74103 0.0
N346 N 0.66494 0.37765 0.75882 0.0
C347 C 0.696 0.35047 0.74563 0.0
C348 C 0.77164 0.39396 0.72813 0.0
C349 C 0.74963 0.3582 0.72998 0.0
Gd350 Gd 0.4168 0.36721 0.73271 0.0
Gd351 Gd 0.57128 0.36758 0.78317 0.0
N352 N 0.60239 0.42899 0.7871 0.0
C353 C 0.6441 0.50074 0.78817 0.0
C354 C 0.57615 0.45294 0.80522 0.0
C355 C 0.59512 0.48935 0.80543 0.0
H356 H 0.54218 0.44391 0.82027 0.0
H357 H 0.5727 0.50842 0.81928 0.0
H358 H 0.45105 0.28652 0.70121 0.0
H359 H 0.67919 0.32288 0.74717 0.0
H360 H 0.40566 0.22572 0.69792 0.0
H361 H 0.65886 0.52894 0.78839 0.0
H362 H 0.74441 0.51256 0.75487 0.0
H363 H 0.31437 0.41608 0.76896 0.0
H364 H 0.81286 0.39992 0.71578 0.0
H365 H 0.77378 0.33662 0.71927 0.0
H366 H 0.21035 0.23451 0.74578 0.0
H367 H 0.80088 0.46565 0.72878 0.0
H368 H 0.15555 0.34863 0.78619 0.0
H369 H 0.20991 0.40786 0.78992 0.0
N370 N 0.31943 0.36187 0.75423 0.0
C371 C 0.29018 0.32922 0.75152 0.0
C372 C 0.2914 0.39 0.76765 0.0
C373 C 0.20143 0.35207 0.77703 0.0
C374 C 0.23207 0.38551 0.7793 0.0
C375 C 0.23041 0.32339 0.76309 0.0
H376 H 0.15617 0.2841 0.76966 0.0
N377 N 0.37967 0.30721 0.72775 0.0
C378 C 0.32143 0.30103 0.73829 0.0
C379 C 0.32413 0.23906 0.72188 0.0
C380 C 0.29259 0.26661 0.73594 0.0
C381 C 0.4086 0.28101 0.71241 0.0
C382 C 0.382 0.24645 0.70978 0.0
O383 O 0.57693 0.3888 0.73853 0.0
O384 O 0.48229 0.41567 0.73119 0.0
O385 O 0.40528 0.36556 0.68655 0.0
O386 O 0.3466 0.40005 0.7125 0.0
O387 O 0.4831 0.39408 0.79976 0.0
O388 O 0.43296 0.41599 0.76011 0.0
O389 O 0.4057 0.34071 0.7761 0.0
O390 O 0.50462 0.32021 0.78356 0.0
O391 O 0.58606 0.36861 0.82893 0.0
O392 O 0.6439 0.33478 0.802 0.0
O393 O 0.5042 0.33928 0.71666 0.0
O394 O 0.55305 0.31789 0.75685 0.0
C395 C 0.54284 0.4146 0.72756 0.0
C396 C 0.44406 0.41674 0.78732 0.0
C397 C 0.32536 0.40291 0.66255 0.0
C398 C 0.30541 0.40582 0.61184 0.0
C399 C 0.24716 0.44412 0.64363 0.0
C400 C 0.27944 0.42954 0.66648 0.0
C401 C 0.26011 0.4325 0.61651 0.0
C402 C 0.33797 0.39086 0.63503 0.0
C403 C 0.35997 0.38899 0.68741 0.0
C404 C 0.233 0.2608 0.74736 0.0
C405 C 0.20201 0.28909 0.76087 0.0
H406 H 0.30352 0.21229 0.71962 0.0
C407 C 0.44562 0.32081 0.79049 0.0
C408 C 0.54444 0.31758 0.72941 0.0
C409 C 0.66663 0.33133 0.85187 0.0
C410 C 0.69086 0.33122 0.90208 0.0
C411 C 0.73481 0.28522 0.87186 0.0
C412 C 0.70454 0.30059 0.84871 0.0
C413 C 0.72782 0.3003 0.89843 0.0
C414 C 0.66035 0.34685 0.87872 0.0
C415 C 0.63134 0.34527 0.82735 0.0
H416 H 0.21203 0.46464 0.64696 0.0
H417 H 0.26855 0.43939 0.68728 0.0
H418 H 0.23428 0.44422 0.59908 0.0
H419 H 0.37345 0.37054 0.6316 0.0
H420 H 0.76351 0.26141 0.86922 0.0
H421 H 0.70993 0.28791 0.8284 0.0
H422 H 0.75173 0.28801 0.91617 0.0
H423 H 0.63132 0.37054 0.88156 0.0
C424 C 0.82583 0.81173 0.77607 0.0
C425 C 0.84768 0.75123 0.79382 0.0
C426 C 0.86526 0.78794 0.79015 0.0
C427 C 0.79113 0.73869 0.78233 0.0
C428 C 0.76832 0.79954 0.76515 0.0
C429 C 0.75151 0.76279 0.76807 0.0
N430 N 0.84421 0.84687 0.77279 0.0
C431 C 0.80601 0.87179 0.76035 0.0
C432 C 0.72935 0.82474 0.75173 0.0
C433 C 0.74807 0.86109 0.74955 0.0
Gd434 Gd 0.07777 0.87042 0.73222 0.0
Gd435 Gd 0.94153 0.86268 0.79151 0.0
N436 N 0.9197 0.80095 0.80103 0.0
C437 C 0.88677 0.72841 0.80947 0.0
C438 C 0.95547 0.7794 0.81804 0.0
C439 C 0.94039 0.74272 0.822 0.0
H440 H 0.99487 0.79041 0.82927 0.0
H441 H 0.96962 0.72565 0.83509 0.0
H442 H 0.05999 0.95354 0.70573 0.0
H443 H 0.82031 0.89991 0.75875 0.0
H444 H 0.11234 0.01372 0.70814 0.0
H445 H 0.87496 0.70004 0.81276 0.0
H446 H 0.77712 0.71052 0.78477 0.0
H447 H 0.18791 0.80945 0.75209 0.0
H448 H 0.68468 0.81647 0.74313 0.0
H449 H 0.71802 0.88081 0.73945 0.0
H450 H 0.29304 0.99183 0.76593 0.0
H451 H 0.70771 0.75282 0.75963 0.0
H452 H 0.33847 0.86804 0.79008 0.0
H453 H 0.28774 0.80967 0.77787 0.0
N454 N 0.17795 0.86693 0.75278 0.0
C455 C 0.20754 0.89914 0.7572 0.0
C456 C 0.20787 0.83505 0.75851 0.0
C457 C 0.29373 0.86808 0.77942 0.0
C458 C 0.26522 0.83509 0.77261 0.0
C459 C 0.26585 0.90067 0.77094 0.0
H460 H 0.33982 0.93622 0.78566 0.0
N461 N 0.12613 0.92774 0.73237 0.0
C462 C 0.18148 0.93045 0.74613 0.0
C463 C 0.18667 0.99449 0.73496 0.0
C464 C 0.21254 0.96411 0.74843 0.0
C465 C 0.10247 0.95665 0.71777 0.0
C466 C 0.13201 0.99058 0.7191 0.0
O467 O 0.92575 0.83981 0.74774 0.0
O468 O 0.02235 0.81842 0.73632 0.0
O469 O 0.0563 0.87718 0.68788 0.0
O470 O 0.14328 0.85282 0.70032 0.0
O471 O 0.03722 0.84039 0.80247 0.0
O472 O 0.07876 0.82028 0.7606 0.0
O473 O 0.0607 0.91658 0.76251 0.0
O474 O 0.03577 0.88594 0.80272 0.0
O475 O 0.91079 0.85641 0.83473 0.0
O476 O 0.89484 0.90711 0.81261 0.0
O477 O 0.98175 0.89202 0.72217 0.0
O478 O 0.93813 0.91291 0.76338 0.0
C479 C 0.96134 0.81647 0.73468 0.0
C480 C 0.07429 0.81882 0.78825 0.0
C481 C 0.09896 0.83446 0.65713 0.0
C482 C 0.10597 0.81871 0.60747 0.0
C483 C 0.06848 0.77427 0.64168 0.0
C484 C 0.07625 0.7995 0.66322 0.0
C485 C 0.08359 0.78369 0.61397 0.0
C486 C 0.11349 0.84402 0.62926 0.0
C487 C 0.10691 0.8615 0.67944 0.0
C488 C 0.26887 0.96612 0.76351 0.0
C489 C 0.29543 0.93445 0.7748 0.0
H490 H 0.20917 0.02086 0.73617 0.0
C491 C 0.06138 0.91381 0.78994 0.0
C492 C 0.94836 0.91579 0.73603 0.0
C493 C 0.8274 0.89214 0.85091 0.0
C494 C 0.77247 0.89452 0.89583 0.0
C495 C 0.71554 0.90155 0.85182 0.0
C496 C 0.77084 0.89768 0.83666 0.0
C497 C 0.71622 0.90007 0.88122 0.0
C498 C 0.82783 0.89036 0.88043 0.0
C499 C 0.88703 0.88874 0.83589 0.0
H500 H 0.0509 0.74732 0.64648 0.0
H501 H 0.06481 0.79176 0.68458 0.0
H502 H 0.07744 0.76372 0.59757 0.0
H503 H 0.13155 0.87097 0.62462 0.0
H504 H 0.67196 0.90575 0.84074 0.0
H505 H 0.7694 0.89914 0.81395 0.0
H506 H 0.67274 0.90283 0.89251 0.0
H507 H 0.8716 0.88627 0.89148 0.0
C508 C 0.71054 0.67877 0.2602 0.0
C509 C 0.70334 0.74434 0.2635 0.0
C510 C 0.67815 0.70942 0.26853 0.0
C511 C 0.76054 0.74798 0.24941 0.0
C512 C 0.76827 0.68227 0.24631 0.0
C513 C 0.79292 0.71703 0.24085 0.0
N514 N 0.68431 0.64554 0.26475 0.0
C515 C 0.71402 0.61469 0.25672 0.0
C516 C 0.79892 0.65071 0.23787 0.0
C517 C 0.77174 0.61677 0.24319 0.0
Gd518 Gd 0.43029 0.64046 0.23647 0.0
Gd519 Gd 0.58524 0.64461 0.2854 0.0
N520 N 0.6216 0.70505 0.28116 0.0
C521 C 0.67039 0.77456 0.27292 0.0
C522 C 0.59196 0.73426 0.29228 0.0
C523 C 0.61505 0.76944 0.28783 0.0
H524 H 0.55165 0.73075 0.30532 0.0
H525 H 0.59054 0.79254 0.29624 0.0
H526 H 0.46416 0.55904 0.20662 0.0
H527 H 0.69331 0.58844 0.26092 0.0
H528 H 0.42677 0.49612 0.20933 0.0
H529 H 0.68812 0.80185 0.26946 0.0
H530 H 0.78025 0.7746 0.24511 0.0
H531 H 0.32763 0.68966 0.27248 0.0
H532 H 0.84334 0.65225 0.22712 0.0
H533 H 0.79508 0.59222 0.23676 0.0
H534 H 0.24385 0.50219 0.26663 0.0
H535 H 0.83694 0.72029 0.22997 0.0
H536 H 0.18281 0.61834 0.30156 0.0
H537 H 0.22943 0.67988 0.29856 0.0
N538 N 0.33729 0.6341 0.2617 0.0
C539 C 0.31167 0.6002 0.26238 0.0
C540 C 0.30822 0.66262 0.27413 0.0
C541 C 0.22594 0.62247 0.29013 0.0
C542 C 0.25228 0.65722 0.28863 0.0
C543 C 0.25561 0.59342 0.27696 0.0
H544 H 0.18883 0.55213 0.28971 0.0
N545 N 0.39759 0.57923 0.23563 0.0
C546 C 0.34312 0.57193 0.24936 0.0
C547 C 0.35022 0.50864 0.23669 0.0
C548 C 0.31859 0.53631 0.25059 0.0
C549 C 0.42575 0.5528 0.2203 0.0
C550 C 0.40346 0.51706 0.22113 0.0
O551 O 0.59127 0.6656 0.24088 0.0
O552 O 0.49476 0.68899 0.23014 0.0
O553 O 0.41138 0.63369 0.1912 0.0
O554 O 0.35507 0.67001 0.2168 0.0
O555 O 0.49587 0.67083 0.30063 0.0
O556 O 0.44595 0.69174 0.26072 0.0
O557 O 0.42841 0.61644 0.28091 0.0
O558 O 0.5268 0.59397 0.28717 0.0
O559 O 0.5906 0.65615 0.33008 0.0
O560 O 0.6546 0.61806 0.3118 0.0
O561 O 0.51805 0.61386 0.21985 0.0
O562 O 0.5738 0.5941 0.25901 0.0
C563 C 0.55559 0.68822 0.22695 0.0
C564 C 0.45701 0.69314 0.28783 0.0
C565 C 0.32486 0.66612 0.16783 0.0
C566 C 0.29856 0.66386 0.11773 0.0
C567 C 0.2328 0.6971 0.15001 0.0
C568 C 0.2717 0.68749 0.17232 0.0
C569 C 0.24605 0.68545 0.12292 0.0
C570 C 0.3384 0.65447 0.14031 0.0
C571 C 0.36463 0.65614 0.19219 0.0
C572 C 0.26307 0.52943 0.26535 0.0
C573 C 0.2316 0.5579 0.27842 0.0
H574 H 0.33292 0.48093 0.23718 0.0
C575 C 0.4665 0.59184 0.29115 0.0
C576 C 0.55999 0.59261 0.23193 0.0
C577 C 0.62201 0.60699 0.35852 0.0
C578 C 0.62865 0.59259 0.40875 0.0
C579 C 0.57708 0.55086 0.37658 0.0
C580 C 0.58978 0.57425 0.35409 0.0
C581 C 0.59653 0.55982 0.40371 0.0
C582 C 0.64148 0.61605 0.38588 0.0
C583 C 0.63391 0.63223 0.33491 0.0
H584 H 0.19221 0.71372 0.15372 0.0
H585 H 0.25993 0.69683 0.19317 0.0
H586 H 0.21554 0.69375 0.10587 0.0
H587 H 0.37918 0.63799 0.13649 0.0
H588 H 0.55243 0.52557 0.37295 0.0
H589 H 0.5747 0.56667 0.33323 0.0
H590 H 0.5874 0.54076 0.42068 0.0
H591 H 0.66609 0.64143 0.38938 0.0
C592 C 0.11648 0.03963 0.34679 0.0
C593 C 0.12325 0.00404 0.33663 0.0
C594 C 0.08921 0.067 0.33031 0.0
C595 C 0.06833 0.06013 0.30279 0.0
H596 H 0.1335 0.04668 0.36751 0.0
H597 H 0.08557 0.09399 0.33907 0.0
S598 S 0.07151 0.97132 0.26659 0.0
N599 N 0.10309 0.96305 0.29767 0.0
N600 N 0.05439 0.01498 0.26631 0.0
C601 C 0.07448 0.02476 0.2923 0.0
C602 C 0.10127 0.99663 0.30929 0.0
C603 C 0.40889 0.47764 0.84948 0.0
C604 C 0.39145 0.51046 0.83645 0.0
C605 C 0.42218 0.44674 0.83352 0.0
C606 C 0.4193 0.44763 0.80391 0.0
H607 H 0.41516 0.47629 0.87207 0.0
H608 H 0.43776 0.42249 0.84445 0.0
S609 S 0.36402 0.5253 0.76023 0.0
N610 N 0.36285 0.54059 0.79273 0.0
N611 N 0.3889 0.48305 0.76261 0.0
C612 C 0.39708 0.47957 0.79085 0.0
C613 C 0.38326 0.51089 0.80713 0.0
C614 C 0.65176 0.46013 0.67564 0.0
C615 C 0.64152 0.4973 0.68029 0.0
C616 C 0.61925 0.43351 0.69098 0.0
C617 C 0.57428 0.44317 0.71095 0.0
H618 H 0.68594 0.45161 0.66036 0.0
H619 H 0.62924 0.40514 0.68716 0.0
S620 S 0.53185 0.53653 0.73173 0.0
N621 N 0.58496 0.54238 0.70698 0.0
N622 N 0.52251 0.49216 0.73529 0.0
C623 C 0.56345 0.48014 0.71578 0.0
C624 C 0.59757 0.50728 0.70062 0.0
C625 C 0.88247 0.03803 0.17237 0.0
C626 C 0.87614 0.00343 0.18475 0.0
C627 C 0.8983 0.06844 0.18858 0.0
C628 C 0.90764 0.06548 0.21784 0.0
H629 H 0.8768 0.04146 0.14987 0.0
H630 H 0.90356 0.09445 0.17802 0.0
S631 S 0.89356 0.9809 0.26045 0.0
N632 N 0.87796 0.96802 0.22802 0.0
N633 N 0.908 0.02493 0.25846 0.0
C634 C 0.89999 0.03108 0.23052 0.0
C635 C 0.88425 1.00012 0.21398 0.0
C636 C 0.89734 0.01254 0.71987 0.0
C637 C 0.89889 0.01378 0.69034 0.0
C638 C 0.91068 0.98026 0.73463 0.0
C639 C 0.92558 0.94813 0.7203 0.0
H640 H 0.88816 0.037 0.73164 0.0
H641 H 0.9117 0.98094 0.75738 0.0
S642 S 0.92732 0.93657 0.64272 0.0
N643 N 0.91109 0.97991 0.64723 0.0
N644 N 0.93445 0.91907 0.67461 0.0
C645 C 0.92368 0.94876 0.69065 0.0
C646 C 0.91087 0.98165 0.67576 0.0
C647 C 0.62362 0.54585 0.16721 0.0
C648 C 0.65479 0.51562 0.17851 0.0
C649 C 0.5933 0.57057 0.18468 0.0
C650 C 0.5925 0.56579 0.21411 0.0
H651 H 0.62364 0.55076 0.14472 0.0
H652 H 0.57078 0.5938 0.175 0.0
S653 S 0.66319 0.48892 0.25369 0.0
N654 N 0.68099 0.48111 0.22055 0.0
N655 N 0.62276 0.52695 0.25347 0.0
C656 C 0.62247 0.53509 0.22556 0.0
C657 C 0.6539 0.51016 0.20775 0.0
C658 C 0.45639 0.49519 0.31828 0.0
C659 C 0.40479 0.49565 0.33639 0.0
C660 C 0.4745 0.52623 0.30322 0.0
C661 C 0.44204 0.55913 0.30577 0.0
H662 H 0.48346 0.47064 0.31594 0.0
H663 H 0.51489 0.5245 0.2897 0.0
S664 S 0.30407 0.57482 0.35074 0.0
N665 N 0.32082 0.53151 0.35589 0.0
N666 N 0.35601 0.59043 0.328 0.0
C667 C 0.38959 0.55989 0.3234 0.0
C668 C 0.37069 0.52801 0.33862 0.0
C669 C 0.16618 0.95569 0.8452 0.0
C670 C 0.16307 0.9931 0.83902 0.0
C671 C 0.13243 0.93025 0.82942 0.0
C672 C 0.09511 0.94126 0.80662 0.0
H673 H 0.19453 0.94602 0.86257 0.0
H674 H 0.13636 0.90171 0.83483 0.0
S675 S 0.07036 0.03576 0.7818 0.0
N676 N 0.11936 0.0398 0.80848 0.0
N677 N 0.05565 0.99186 0.77891 0.0
C678 C 0.09146 0.97847 0.80016 0.0
C679 C 0.12541 0.00444 0.81637 0.0
C680 C 0.17994 0.09222 0.04652 0.0
C681 C 0.23639 0.10538 0.03515 0.0
C682 C 0.17208 0.08786 0.07566 0.0
C683 C 0.22048 0.09628 0.09464 0.0
H684 H 0.14174 0.08472 0.03274 0.0
H685 H 0.12841 0.07671 0.08332 0.0
S686 S 0.37635 0.13341 0.07598 0.0
N687 N 0.34106 0.12759 0.04544 0.0
N688 N 0.32545 0.12052 0.10008 0.0
C689 C 0.27639 0.11056 0.08364 0.0
C690 C 0.2845 0.1149 0.05399 0.0
C691 C 0.33502 0.41224 0.53336 0.0
C692 C 0.32623 0.37631 0.52416 0.0
C693 C 0.33072 0.42116 0.56187 0.0
C694 C 0.31781 0.39453 0.58246 0.0
H695 H 0.34515 0.43375 0.51837 0.0
H696 H 0.33666 0.44931 0.56786 0.0
S697 S 0.29024 0.29658 0.56972 0.0
N698 N 0.30356 0.3139 0.53815 0.0
N699 N 0.2963 0.3308 0.59183 0.0
C700 C 0.31029 0.3584 0.57376 0.0
C701 C 0.31428 0.34926 0.54463 0.0
C702 C 0.72524 0.39009 0.96512 0.0
C703 C 0.69787 0.37023 0.98742 0.0
C704 C 0.71932 0.37863 0.93715 0.0
C705 C 0.68599 0.3469 0.93051 0.0
H706 H 0.75423 0.4136 0.96941 0.0
H707 H 0.74372 0.39358 0.9208 0.0
S708 S 0.59835 0.28797 0.98013 0.0
N709 N 0.63004 0.31953 1.00021 0.0
N710 N 0.62075 0.29757 0.94771 0.0
C711 C 0.65563 0.32791 0.95223 0.0
C712 C 0.6611 0.33968 0.98066 0.0
C713 C 0.82411 0.11739 0.48742 0.0
C714 C 0.85062 0.14828 0.50008 0.0
C715 C 0.81616 0.11543 0.45822 0.0
C716 C 0.83407 0.14435 0.44037 0.0
H717 H 0.80786 0.09481 0.50023 0.0
H718 H 0.79511 0.09113 0.44958 0.0
S719 S 0.90919 0.23057 0.46277 0.0
N720 N 0.89882 0.20748 0.49228 0.0
N721 N 0.88095 0.20461 0.43757 0.0
C722 C 0.86202 0.17508 0.45267 0.0
C723 C 0.87078 0.1769 0.48243 0.0
C724 C 0.8048 0.86069 0.9702 0.0
C725 C 0.77971 0.88816 0.98713 0.0
C726 C 0.80223 0.863 0.94076 0.0
C727 C 0.77375 0.89262 0.92709 0.0
H728 H 0.82764 0.8375 0.97979 0.0
H729 H 0.82246 0.84131 0.92859 0.0
S730 S 0.70031 0.97147 0.96171 0.0
N731 N 0.72491 0.94572 0.98805 0.0
N732 N 0.72001 0.95005 0.93271 0.0
C733 C 0.74794 0.92011 0.94374 0.0
C734 C 0.75108 0.91792 0.97374 0.0
C735 C 0.73739 0.61565 0.46952 0.0
C736 C 0.69942 0.61057 0.49337 0.0
C737 C 0.71357 0.61123 0.44222 0.0
C738 C 0.65091 0.60127 0.43766 0.0
H739 H 0.78632 0.62243 0.472 0.0
H740 H 0.74509 0.61429 0.4246 0.0
S741 S 0.53088 0.587 0.49276 0.0
N742 N 0.59525 0.59643 0.51046 0.0
N743 N 0.55028 0.58888 0.45922 0.0
C744 C 0.61186 0.59746 0.46125 0.0
C745 C 0.63609 0.60199 0.48905 0.0
C746 C 0.3783 0.65642 0.04678 0.0
C747 C 0.33055 0.64236 0.0295 0.0
C748 C 0.36901 0.66146 0.07573 0.0
C749 C 0.31167 0.65261 0.08839 0.0
H750 H 0.42219 0.66512 0.03766 0.0
H751 H 0.40583 0.67401 0.08798 0.0
S752 S 0.17548 0.60963 0.05336 0.0
N753 N 0.2266 0.61584 0.02785 0.0
N754 N 0.20913 0.62534 0.08211 0.0
C755 C 0.26501 0.63653 0.07166 0.0
C756 C 0.27442 0.63144 0.04227 0.0
C757 C 0.18611 0.81649 0.53633 0.0
C758 C 0.16354 0.84787 0.52272 0.0
C759 C 0.16604 0.80678 0.56343 0.0
C760 C 0.12346 0.82845 0.57813 0.0
H761 H 0.21993 0.79944 0.52599 0.0
H762 H 0.18524 0.78265 0.57326 0.0
S763 S 0.0494 0.91289 0.55165 0.0
N764 N 0.09532 0.90017 0.52575 0.0
N765 N 0.05793 0.88207 0.57678 0.0
C766 C 0.0999 0.85962 0.56463 0.0
C767 C 0.11975 0.86925 0.53689 0.0
C768 C 0.12437 0.26786 0.32148 0.0
C769 C 0.18038 0.25503 0.33331 0.0
C770 C 0.08548 0.24491 0.30561 0.0
C771 C 0.1012 0.20833 0.30105 0.0
H772 H 0.11123 0.29601 0.32401 0.0
H773 H 0.04341 0.2561 0.2964 0.0
S774 S 0.23839 0.16041 0.33086 0.0
N775 N 0.24685 0.20277 0.34142 0.0
N776 N 0.17359 0.15962 0.31204 0.0
C777 C 0.15601 0.19495 0.3136 0.0
C778 C 0.1956 0.21829 0.32962 0.0
C779 C 0.33968 0.25336 0.8293 0.0
C780 C 0.38204 0.23399 0.84628 0.0
C781 C 0.35975 0.28255 0.81227 0.0
C782 C 0.42298 0.2931 0.81119 0.0
H783 H 0.29112 0.24515 0.82842 0.0
H784 H 0.32561 0.29612 0.79937 0.0
S785 S 0.54998 0.25543 0.85595 0.0
N786 N 0.48805 0.23085 0.86423 0.0
N787 N 0.52605 0.28466 0.83182 0.0
C788 C 0.46485 0.27531 0.82953 0.0
C789 C 0.44435 0.24601 0.84707 0.0
C790 C 0.65515 0.24116 0.71185 0.0
C791 C 0.66887 0.24747 0.68338 0.0
C792 C 0.61278 0.26306 0.72615 0.0
C793 C 0.5831 0.29248 0.71265 0.0
H794 H 0.67802 0.21937 0.72325 0.0
H795 H 0.60451 0.25737 0.7482 0.0
S796 S 0.6031 0.3201 0.63799 0.0
N797 N 0.64893 0.28449 0.6419 0.0
N798 N 0.56981 0.32621 0.66883 0.0
C799 C 0.59526 0.29848 0.68391 0.0
C800 C 0.63812 0.27589 0.66928 0.0
C801 C 0.8772 0.24914 0.16896 0.0
C802 C 0.87026 0.28431 0.17966 0.0
C803 C 0.89946 0.22077 0.18593 0.0
C804 C 0.91657 0.22656 0.21417 0.0
H805 H 0.86552 0.24357 0.14724 0.0
H806 H 0.90408 0.19414 0.17665 0.0
S807 S 0.90801 0.31411 0.25203 0.0
N808 N 0.88177 0.32361 0.22014 0.0
N809 N 0.92506 0.27042 0.25199 0.0
C810 C 0.90918 0.2616 0.22521 0.0
C811 C 0.88575 0.29044 0.20797 0.0
C812 C 0.93975 0.72759 0.69618 0.0
C813 C 0.88469 0.73298 0.68051 0.0
C814 C 0.96342 0.75454 0.71394 0.0
C815 C 0.93302 0.78802 0.71682 0.0
H816 H 0.96482 0.7022 0.69475 0.0
H817 H 0.00607 0.74911 0.72547 0.0
S818 S 0.78895 0.81659 0.67962 0.0
N819 N 0.80113 0.77479 0.66863 0.0
N820 N 0.84593 0.82559 0.70198 0.0
C821 C 0.87772 0.7938 0.7015 0.0
C822 C 0.8535 0.76627 0.68336 0.0
C823 C 0.60513 0.77609 0.19078 0.0
C824 C 0.65956 0.76558 0.17652 0.0
C825 C 0.56941 0.75063 0.20613 0.0
C826 C 0.58712 0.71395 0.20762 0.0
H827 H 0.59132 0.80434 0.19088 0.0
H828 H 0.5294 0.75998 0.21783 0.0
S829 S 0.72049 0.67179 0.17092 0.0
N830 N 0.72557 0.71535 0.1627 0.0
N831 N 0.65893 0.6678 0.19147 0.0
C832 C 0.63969 0.70291 0.1924 0.0
C833 C 0.67581 0.72864 0.17688 0.0
C834 C 0.38697 0.74261 0.34989 0.0
C835 C 0.37346 0.77708 0.33858 0.0
C836 C 0.41364 0.7155 0.33327 0.0
C837 C 0.42661 0.72171 0.30464 0.0
H838 H 0.37833 0.73689 0.37191 0.0
H839 H 0.4242 0.68949 0.34293 0.0
S840 S 0.39758 0.80702 0.26479 0.0
N841 N 0.3734 0.81572 0.29695 0.0
N842 N 0.42282 0.76474 0.26562 0.0
C843 C 0.41185 0.7558 0.29294 0.0
C844 C 0.38554 0.78351 0.30995 0.0
C845 C 0.17368 0.78001 0.84727 0.0
C846 C 0.19358 0.7465 0.8366 0.0
C847 C 0.13473 0.80294 0.83154 0.0
C848 C 0.11457 0.79348 0.80438 0.0
H849 H 0.18809 0.78853 0.86806 0.0
H850 H 0.121 0.82855 0.84065 0.0
S851 S 0.15295 0.70871 0.76675 0.0
N852 N 0.1902 0.70501 0.79707 0.0
N853 N 0.1162 0.74797 0.76768 0.0
C854 C 0.13367 0.75997 0.79348 0.0
C855 C 0.17325 0.73651 0.80955 0.0
loop_
_geom_bond_atom_site_label_1
_geom_bond_atom_site_label_2
_geom_bond_distance
_geom_bond_site_symmetry_2
_ccdc_geom_bond_type
P0 O11 1.490 . S
P0 C14 1.812 . S
P0 C20 1.803 . S
P0 C26 1.819 . S
H1 C15 0.941 . S
H2 C16 0.939 . S
H3 C18 0.940 . S
H4 C19 0.940 . S
H5 C21 0.939 . S
H6 C22 0.942 . S
H7 C24 0.940 . S
H8 C25 0.939 . S
H9 C27 0.941 . S
H10 C31 0.939 . S
O11 P0 1.490 . S
H12 C28 0.939 . S
H13 C30 0.940 . S
C14 P0 1.812 . S
C14 C15 1.389 . S
C14 C19 1.391 . S
C15 H1 0.941 . S
C15 C14 1.389 . S
C15 C16 1.397 . S
C16 H2 0.939 . S
C16 C15 1.397 . S
C16 C17 1.378 . S
C17 C16 1.378 . S
C17 C18 1.378 . S
C18 H3 0.940 . S
C18 C17 1.378 . S
C18 C19 1.396 . S
C19 H4 0.940 . S
C19 C14 1.391 . S
C19 C18 1.396 . S
C20 P0 1.803 . S
C20 C21 1.378 . S
C20 C25 1.400 . S
C21 H5 0.939 . S
C21 C20 1.378 . S
C21 C22 1.361 . S
C22 H6 0.942 . S
C22 C21 1.361 . S
C22 C23 1.369 . S
C23 C22 1.369 . S
C23 C24 1.404 . S
C24 H7 0.940 . S
C24 C23 1.404 . S
C24 C25 1.389 . S
C25 H8 0.939 . S
C25 C20 1.400 . S
C25 C24 1.389 . S
C26 P0 1.819 . S
C26 C27 1.391 . S
C26 C31 1.391 . S
C27 H9 0.941 . S
C27 C26 1.391 . S
C27 C28 1.396 . S
C28 H12 0.939 . S
C28 C27 1.396 . S
C28 C29 1.397 . S
C29 C28 1.397 . S
C29 C30 1.385 . S
C30 H13 0.940 . S
C30 C29 1.385 . S
C30 C31 1.388 . S
C31 H10 0.939 . S
C31 C26 1.391 . S
C31 C30 1.388 . S
P32 O43 1.490 . S
P32 C46 1.812 . S
P32 C52 1.803 . S
P32 C58 1.819 . S
H33 C47 0.941 . S
H34 C48 0.939 1_565 S
H35 C50 0.940 . S
H36 C51 0.940 . S
H37 C53 0.939 . S
H38 C54 0.942 . S
H39 C56 0.940 . S
H40 C57 0.939 . S
H41 C59 0.941 . S
H42 C63 0.939 . S
O43 P32 1.490 . S
H44 C60 0.939 . S
H45 C62 0.940 . S
C46 P32 1.812 . S
C46 C47 1.389 . S
C46 C51 1.391 . S
C47 H33 0.941 . S
C47 C46 1.389 . S
C47 C48 1.397 . S
C48 H34 0.939 1_545 S
C48 C47 1.397 . S
C48 C49 1.378 . S
C49 C48 1.378 . S
C49 C50 1.378 . S
C50 H35 0.940 . S
C50 C49 1.378 . S
C50 C51 1.396 . S
C51 H36 0.940 . S
C51 C46 1.391 . S
C51 C50 1.396 . S
C52 P32 1.803 . S
C52 C53 1.378 . S
C52 C57 1.400 . S
C53 H37 0.939 . S
C53 C52 1.378 . S
C53 C54 1.361 . S
C54 H38 0.942 . S
C54 C53 1.361 . S
C54 C55 1.369 . S
C55 C54 1.369 . S
C55 C56 1.404 . S
C56 H39 0.940 . S
C56 C55 1.404 . S
C56 C57 1.389 . S
C57 H40 0.939 . S
C57 C52 1.400 . S
C57 C56 1.389 . S
C58 P32 1.819 . S
C58 C59 1.391 . S
C58 C63 1.391 . S
C59 H41 0.941 . S
C59 C58 1.391 . S
C59 C60 1.396 . S
C60 H44 0.939 . S
C60 C59 1.396 . S
C60 C61 1.397 . S
C61 C60 1.397 . S
C61 C62 1.385 . S
C62 H45 0.940 . S
C62 C61 1.385 . S
C62 C63 1.388 . S
C63 H42 0.939 . S
C63 C58 1.391 . S
C63 C62 1.388 . S
P64 O75 1.490 . S
P64 C78 1.812 . S
P64 C84 1.803 . S
P64 C90 1.819 . S
H65 C79 0.941 . S
H66 C80 0.939 . S
H67 C82 0.940 . S
H68 C83 0.940 . S
H69 C85 0.939 . S
H70 C86 0.942 . S
H71 C88 0.940 . S
H72 C89 0.939 . S
H73 C91 0.941 . S
H74 C95 0.939 . S
O75 P64 1.490 . S
H76 C92 0.939 . S
H77 C94 0.940 . S
C78 P64 1.812 . S
C78 C79 1.389 . S
C78 C83 1.391 . S
C79 H65 0.941 . S
C79 C78 1.389 . S
C79 C80 1.397 . S
C80 H66 0.939 . S
C80 C79 1.397 . S
C80 C81 1.378 . S
C81 C80 1.378 . S
C81 C82 1.378 . S
C82 H67 0.940 . S
C82 C81 1.378 . S
C82 C83 1.396 . S
C83 H68 0.940 . S
C83 C78 1.391 . S
C83 C82 1.396 . S
C84 P64 1.803 . S
C84 C85 1.378 . S
C84 C89 1.400 . S
C85 H69 0.939 . S
C85 C84 1.378 . S
C85 C86 1.361 . S
C86 H70 0.942 . S
C86 C85 1.361 . S
C86 C87 1.369 . S
C87 C86 1.369 . S
C87 C88 1.404 . S
C88 H71 0.940 . S
C88 C87 1.404 . S
C88 C89 1.389 . S
C89 H72 0.939 . S
C89 C84 1.400 . S
C89 C88 1.389 . S
C90 P64 1.819 . S
C90 C91 1.391 . S
C90 C95 1.391 . S
C91 H73 0.941 . S
C91 C90 1.391 . S
C91 C92 1.396 . S
C92 H76 0.939 . S
C92 C91 1.396 . S
C92 C93 1.397 . S
C93 C92 1.397 . S
C93 C94 1.385 . S
C94 H77 0.940 . S
C94 C93 1.385 . S
C94 C95 1.388 . S
C95 H74 0.939 . S
C95 C90 1.391 . S
C95 C94 1.388 . S
P96 O107 1.490 . S
P96 C110 1.812 . S
P96 C116 1.803 . S
P96 C122 1.819 . S
H97 C111 0.941 . S
H98 C112 0.939 . S
H99 C114 0.940 . S
H100 C115 0.940 . S
H101 C117 0.939 . S
H102 C118 0.942 . S
H103 C120 0.940 . S
H104 C121 0.939 . S
H105 C123 0.941 . S
H106 C127 0.939 . S
O107 P96 1.490 . S
H108 C124 0.939 . S
H109 C126 0.940 . S
C110 P96 1.812 . S
C110 C111 1.389 . S
C110 C115 1.391 . S
C111 H97 0.941 . S
C111 C110 1.389 . S
C111 C112 1.397 . S
C112 H98 0.939 . S
C112 C111 1.397 . S
C112 C113 1.378 . S
C113 C112 1.378 . S
C113 C114 1.378 . S
C114 H99 0.940 . S
C114 C113 1.378 . S
C114 C115 1.396 . S
C115 H100 0.940 . S
C115 C110 1.391 . S
C115 C114 1.396 . S
C116 P96 1.803 . S
C116 C117 1.378 . S
C116 C121 1.400 . S
C117 H101 0.939 . S
C117 C116 1.378 . S
C117 C118 1.361 . S
C118 H102 0.942 . S
C118 C117 1.361 . S
C118 C119 1.369 . S
C119 C118 1.369 . S
C119 C120 1.404 . S
C120 H103 0.940 . S
C120 C119 1.404 . S
C120 C121 1.389 . S
C121 H104 0.939 . S
C121 C116 1.400 . S
C121 C120 1.389 . S
C122 P96 1.819 . S
C122 C123 1.391 . S
C122 C127 1.391 . S
C123 H105 0.941 . S
C123 C122 1.391 . S
C123 C124 1.396 . S
C124 H108 0.939 . S
C124 C123 1.396 . S
C124 C125 1.397 . S
C125 C124 1.397 . S
C125 C126 1.385 . S
C126 H109 0.940 . S
C126 C125 1.385 . S
C126 C127 1.388 . S
C127 H106 0.939 . S
C127 C122 1.391 . S
C127 C126 1.388 . S
P128 O139 1.490 . S
P128 C142 1.812 . S
P128 C148 1.803 . S
P128 C154 1.819 . S
H129 C143 0.941 . S
H130 C144 0.939 . S
H131 C146 0.940 . S
H132 C147 0.940 . S
H133 C149 0.939 . S
H134 C150 0.942 . S
H135 C152 0.940 . S
H136 C153 0.939 . S
H137 C155 0.941 . S
H138 C159 0.939 . S
O139 P128 1.490 . S
H140 C156 0.939 . S
H141 C158 0.940 . S
C142 P128 1.812 . S
C142 C143 1.389 . S
C142 C147 1.391 . S
C143 H129 0.941 . S
C143 C142 1.389 . S
C143 C144 1.397 . S
C144 H130 0.939 . S
C144 C143 1.397 . S
C144 C145 1.378 . S
C145 C144 1.378 . S
C145 C146 1.378 . S
C146 H131 0.940 . S
C146 C145 1.378 . S
C146 C147 1.396 . S
C147 H132 0.940 . S
C147 C142 1.391 . S
C147 C146 1.396 . S
C148 P128 1.803 . S
C148 C149 1.378 . S
C148 C153 1.400 . S
C149 H133 0.939 . S
C149 C148 1.378 . S
C149 C150 1.361 . S
C150 H134 0.942 . S
C150 C149 1.361 . S
C150 C151 1.369 . S
C151 C150 1.369 . S
C151 C152 1.404 . S
C152 H135 0.940 . S
C152 C151 1.404 . S
C152 C153 1.389 . S
C153 H136 0.939 . S
C153 C148 1.400 . S
C153 C152 1.389 . S
C154 P128 1.819 . S
C154 C155 1.391 . S
C154 C159 1.391 . S
C155 H137 0.941 . S
C155 C154 1.391 . S
C155 C156 1.396 . S
C156 H140 0.939 . S
C156 C155 1.396 . S
C156 C157 1.397 . S
C157 C156 1.397 . S
C157 C158 1.385 . S
C158 H141 0.940 . S
C158 C157 1.385 . S
C158 C159 1.388 . S
C159 H138 0.939 . S
C159 C154 1.391 . S
C159 C158 1.388 . S
P160 O171 1.490 . S
P160 C174 1.812 . S
P160 C180 1.803 . S
P160 C186 1.819 . S
H161 C175 0.941 . S
H162 C176 0.939 . S
H163 C178 0.940 . S
H164 C179 0.940 . S
H165 C181 0.939 . S
H166 C182 0.942 . S
H167 C184 0.940 . S
H168 C185 0.939 . S
H169 C187 0.941 . S
H170 C191 0.939 . S
O171 P160 1.490 . S
H172 C188 0.939 . S
H173 C190 0.940 . S
C174 P160 1.812 . S
C174 C175 1.389 . S
C174 C179 1.391 . S
C175 H161 0.941 . S
C175 C174 1.389 . S
C175 C176 1.397 . S
C176 H162 0.939 . S
C176 C175 1.397 . S
C176 C177 1.378 . S
C177 C176 1.378 . S
C177 C178 1.378 . S
C178 H163 0.940 . S
C178 C177 1.378 . S
C178 C179 1.396 . S
C179 H164 0.940 . S
C179 C174 1.391 . S
C179 C178 1.396 . S
C180 P160 1.803 . S
C180 C181 1.378 . S
C180 C185 1.400 . S
C181 H165 0.939 . S
C181 C180 1.378 . S
C181 C182 1.361 . S
C182 H166 0.942 . S
C182 C181 1.361 . S
C182 C183 1.369 . S
C183 C182 1.369 . S
C183 C184 1.404 . S
C184 H167 0.940 . S
C184 C183 1.404 . S
C184 C185 1.389 . S
C185 H168 0.939 . S
C185 C180 1.400 . S
C185 C184 1.389 . S
C186 P160 1.819 . S
C186 C187 1.391 . S
C186 C191 1.391 . S
C187 H169 0.941 . S
C187 C186 1.391 . S
C187 C188 1.396 . S
C188 H172 0.939 . S
C188 C187 1.396 . S
C188 C189 1.397 . S
C189 C188 1.397 . S
C189 C190 1.385 . S
C190 H173 0.940 . S
C190 C189 1.385 . S
C190 C191 1.388 . S
C191 H170 0.939 . S
C191 C186 1.391 . S
C191 C190 1.388 . S
P192 O203 1.490 . S
P192 C206 1.812 . S
P192 C212 1.803 . S
P192 C218 1.819 . S
H193 C207 0.941 . S
H194 C208 0.939 . S
H195 C210 0.940 . S
H196 C211 0.940 . S
H197 C213 0.939 . S
H198 C214 0.942 . S
H199 C216 0.940 . S
H200 C217 0.939 . S
H201 C219 0.941 . S
H202 C223 0.939 . S
O203 P192 1.490 . S
H204 C220 0.939 1_545 S
H205 C222 0.940 . S
C206 P192 1.812 . S
C206 C207 1.389 . S
C206 C211 1.391 . S
C207 H193 0.941 . S
C207 C206 1.389 . S
C207 C208 1.397 . S
C208 H194 0.939 . S
C208 C207 1.397 . S
C208 C209 1.378 . S
C209 C208 1.378 . S
C209 C210 1.378 . S
C210 H195 0.940 . S
C210 C209 1.378 . S
C210 C211 1.396 . S
C211 H196 0.940 . S
C211 C206 1.391 . S
C211 C210 1.396 . S
C212 P192 1.803 . S
C212 C213 1.378 . S
C212 C217 1.400 . S
C213 H197 0.939 . S
C213 C212 1.378 . S
C213 C214 1.361 . S
C214 H198 0.942 . S
C214 C213 1.361 . S
C214 C215 1.369 . S
C215 C214 1.369 . S
C215 C216 1.404 . S
C216 H199 0.940 . S
C216 C215 1.404 . S
C216 C217 1.389 . S
C217 H200 0.939 . S
C217 C212 1.400 . S
C217 C216 1.389 . S
C218 P192 1.819 . S
C218 C219 1.391 . S
C218 C223 1.391 . S
C219 H201 0.941 . S
C219 C218 1.391 . S
C219 C220 1.396 . S
C220 H204 0.939 1_565 S
C220 C219 1.396 . S
C220 C221 1.397 . S
C221 C220 1.397 . S
C221 C222 1.385 . S
C222 H205 0.940 . S
C222 C221 1.385 . S
C222 C223 1.388 . S
C223 H202 0.939 . S
C223 C218 1.391 . S
C223 C222 1.388 . S
P224 O235 1.490 . S
P224 C238 1.812 . S
P224 C244 1.803 . S
P224 C250 1.819 . S
H225 C239 0.941 . S
H226 C240 0.939 . S
H227 C242 0.940 . S
H228 C243 0.940 . S
H229 C245 0.939 . S
H230 C246 0.942 . S
H231 C248 0.940 . S
H232 C249 0.939 . S
H233 C251 0.941 . S
H234 C255 0.939 . S
O235 P224 1.490 . S
H236 C252 0.939 . S
H237 C254 0.940 . S
C238 P224 1.812 . S
C238 C239 1.389 . S
C238 C243 1.391 . S
C239 H225 0.941 . S
C239 C238 1.389 . S
C239 C240 1.397 . S
C240 H226 0.939 . S
C240 C239 1.397 . S
C240 C241 1.378 . S
C241 C240 1.378 . S
C241 C242 1.378 . S
C242 H227 0.940 . S
C242 C241 1.378 . S
C242 C243 1.396 . S
C243 H228 0.940 . S
C243 C238 1.391 . S
C243 C242 1.396 . S
C244 P224 1.803 . S
C244 C245 1.378 . S
C244 C249 1.400 . S
C245 H229 0.939 . S
C245 C244 1.378 . S
C245 C246 1.361 . S
C246 H230 0.942 . S
C246 C245 1.361 . S
C246 C247 1.369 . S
C247 C246 1.369 . S
C247 C248 1.404 . S
C248 H231 0.940 . S
C248 C247 1.404 . S
C248 C249 1.389 . S
C249 H232 0.939 . S
C249 C244 1.400 . S
C249 C248 1.389 . S
C250 P224 1.819 . S
C250 C251 1.391 . S
C250 C255 1.391 . S
C251 H233 0.941 . S
C251 C250 1.391 . S
C251 C252 1.396 . S
C252 H236 0.939 . S
C252 C251 1.396 . S
C252 C253 1.397 . S
C253 C252 1.397 . S
C253 C254 1.385 . S
C254 H237 0.940 . S
C254 C253 1.385 . S
C254 C255 1.388 . S
C255 H234 0.939 . S
C255 C250 1.391 . S
C255 C254 1.388 . S
C256 C258 1.422 . S
C256 C260 1.415 . S
C256 N262 1.369 . S
C257 C258 1.421 . S
C257 C259 1.417 . S
C257 C269 1.422 . S
C258 C256 1.422 . S
C258 C257 1.421 . S
C258 N268 1.359 . S
C259 C257 1.417 . S
C259 C261 1.329 . S
C259 H278 0.930 . S
C260 C256 1.415 . S
C260 C261 1.437 . S
C260 C264 1.413 . S
C261 C259 1.329 . S
C261 C260 1.437 . S
C261 H283 0.929 . S
N262 C256 1.369 . S
N262 C263 1.338 . S
N262 Gd267 2.622 . S
C263 N262 1.338 . S
C263 C265 1.378 . S
C263 H275 0.929 . S
C264 C260 1.413 . S
C264 C265 1.348 . S
C264 H280 0.931 . S
C265 C263 1.378 . S
C265 C264 1.348 . S
C265 H281 0.930 . S
Gd266 N286 2.622 . S
Gd266 N293 2.570 . S
Gd266 O300 2.353 . S
Gd266 O301 2.468 . S
Gd266 O302 2.427 . S
Gd266 O304 2.388 . S
Gd266 O305 2.386 . S
Gd266 O309 2.307 . S
Gd266 C319 2.805 . S
Gd267 N262 2.622 . S
Gd267 N268 2.570 . S
Gd267 O299 2.386 . S
Gd267 O303 2.307 1_655 S
Gd267 O306 2.353 1_655 S
Gd267 O307 2.468 . S
Gd267 O308 2.427 . S
Gd267 O310 2.388 . S
Gd267 C331 2.805 . S
N268 C258 1.359 . S
N268 Gd267 2.570 . S
N268 C270 1.343 . S
C269 C257 1.422 . S
C269 C271 1.321 . S
C269 H277 0.931 1_545 S
C270 N268 1.343 . S
C270 C271 1.390 . S
C270 H272 0.931 . S
C271 C269 1.321 . S
C271 C270 1.390 . S
C271 H273 0.930 1_545 S
H272 C270 0.931 . S
H273 C271 0.930 1_565 S
H274 C297 0.931 . S
H275 C263 0.929 . S
H276 C298 0.930 . S
H277 C269 0.931 1_565 S
H278 C259 0.930 . S
H279 C288 0.929 . S
H280 C264 0.931 . S
H281 C265 0.930 . S
H282 C320 0.930 . S
H283 C261 0.929 . S
H284 C289 0.931 . S
H285 C290 0.930 . S
N286 Gd266 2.622 . S
N286 C287 1.369 . S
N286 C288 1.338 . S
C287 N286 1.369 . S
C287 C291 1.415 . S
C287 C294 1.422 . S
C288 H279 0.929 . S
C288 N286 1.338 . S
C288 C290 1.378 . S
C289 H284 0.931 . S
C289 C290 1.348 . S
C289 C291 1.413 . S
C290 H285 0.930 . S
C290 C288 1.378 . S
C290 C289 1.348 . S
C291 C287 1.415 . S
C291 C289 1.413 . S
C291 C321 1.437 . S
H292 C321 0.929 . S
N293 Gd266 2.570 . S
N293 C294 1.359 . S
N293 C297 1.343 . S
C294 C287 1.422 . S
C294 N293 1.359 . S
C294 C296 1.421 . S
C295 C296 1.422 . S
C295 C298 1.321 . S
C295 H322 0.931 . S
C296 C294 1.421 . S
C296 C295 1.422 . S
C296 C320 1.417 . S
C297 H274 0.931 . S
C297 N293 1.343 . S
C297 C298 1.390 . S
C298 H276 0.930 . S
C298 C295 1.321 . S
C298 C297 1.390 . S
O299 Gd267 2.386 . S
O299 C311 1.265 . S
O300 Gd266 2.353 . S
O300 C311 1.242 1_455 S
O301 Gd266 2.468 . S
O301 C319 1.263 . S
O302 Gd266 2.427 . S
O302 C319 1.252 . S
O303 Gd267 2.307 1_455 S
O303 C312 1.261 . S
O304 Gd266 2.388 . S
O304 C312 1.252 . S
O305 Gd266 2.386 . S
O305 C323 1.265 . S
O306 Gd267 2.353 1_455 S
O306 C323 1.242 . S
O307 Gd267 2.468 . S
O307 C331 1.263 . S
O308 Gd267 2.427 . S
O308 C331 1.252 . S
O309 Gd266 2.307 . S
O309 C324 1.261 1_455 S
O310 Gd267 2.388 . S
O310 C324 1.252 . S
C311 O299 1.265 . S
C311 O300 1.242 1_655 S
C312 O303 1.261 . S
C312 O304 1.252 . S
C313 C316 1.394 . S
C313 C318 1.370 . S
C313 C319 1.500 . S
C314 C317 1.383 . S
C314 C318 1.395 . S
C315 C316 1.396 . S
C315 C317 1.365 . S
C315 H332 0.929 . S
C316 C313 1.394 . S
C316 C315 1.396 . S
C316 H333 0.930 . S
C317 C314 1.383 . S
C317 C315 1.365 . S
C317 H334 0.931 . S
C318 C313 1.370 . S
C318 C314 1.395 . S
C318 H335 0.930 . S
C319 Gd266 2.805 . S
C319 O301 1.263 . S
C319 O302 1.252 . S
C319 C313 1.500 . S
C320 H282 0.930 . S
C320 C296 1.417 . S
C320 C321 1.329 . S
C321 C291 1.437 . S
C321 H292 0.929 . S
C321 C320 1.329 . S
H322 C295 0.931 . S
C323 O305 1.265 . S
C323 O306 1.242 . S
C324 O309 1.261 1_655 S
C324 O310 1.252 . S
C325 C328 1.394 . S
C325 C330 1.370 . S
C325 C331 1.500 . S
C326 C329 1.383 . S
C326 C330 1.395 . S
C327 C328 1.396 . S
C327 C329 1.365 . S
C327 H336 0.929 . S
C328 C325 1.394 . S
C328 C327 1.396 . S
C328 H337 0.930 . S
C329 C326 1.383 . S
C329 C327 1.365 . S
C329 H338 0.931 . S
C330 C325 1.370 . S
C330 C326 1.395 . S
C330 H339 0.930 . S
C331 Gd267 2.805 . S
C331 O307 1.263 . S
C331 O308 1.252 . S
C331 C325 1.500 . S
H332 C315 0.929 . S
H333 C316 0.930 . S
H334 C317 0.931 . S
H335 C318 0.930 . S
H336 C327 0.929 . S
H337 C328 0.930 . S
H338 C329 0.931 . S
H339 C330 0.930 . S
C340 C342 1.422 . S
C340 C344 1.415 . S
C340 N346 1.369 . S
C341 C342 1.421 . S
C341 C343 1.417 . S
C341 C353 1.422 . S
C342 C340 1.422 . S
C342 C341 1.421 . S
C342 N352 1.359 . S
C343 C341 1.417 . S
C343 C345 1.329 . S
C343 H362 0.930 . S
C344 C340 1.415 . S
C344 C345 1.437 . S
C344 C348 1.413 . S
C345 C343 1.329 . S
C345 C344 1.437 . S
C345 H367 0.929 . S
N346 C340 1.369 . S
N346 C347 1.338 . S
N346 Gd351 2.622 . S
C347 N346 1.338 . S
C347 C349 1.378 . S
C347 H359 0.929 . S
C348 C344 1.413 . S
C348 C349 1.348 . S
C348 H364 0.931 . S
C349 C347 1.378 . S
C349 C348 1.348 . S
C349 H365 0.930 . S
Gd350 N370 2.622 . S
Gd350 N377 2.570 . S
Gd350 O384 2.353 . S
Gd350 O385 2.468 . S
Gd350 O386 2.427 . S
Gd350 O388 2.388 . S
Gd350 O389 2.386 . S
Gd350 O393 2.307 . S
Gd350 C403 2.805 . S
Gd351 N346 2.622 . S
Gd351 N352 2.570 . S
Gd351 O383 2.386 . S
Gd351 O387 2.307 . S
Gd351 O390 2.353 . S
Gd351 O391 2.468 . S
Gd351 O392 2.427 . S
Gd351 O394 2.388 . S
Gd351 C415 2.805 . S
N352 C342 1.359 . S
N352 Gd351 2.570 . S
N352 C354 1.343 . S
C353 C341 1.422 . S
C353 C355 1.321 . S
C353 H361 0.931 . S
C354 N352 1.343 . S
C354 C355 1.390 . S
C354 H356 0.931 . S
C355 C353 1.321 . S
C355 C354 1.390 . S
C355 H357 0.930 . S
H356 C354 0.931 . S
H357 C355 0.930 . S
H358 C381 0.931 . S
H359 C347 0.929 . S
H360 C382 0.930 . S
H361 C353 0.931 . S
H362 C343 0.930 . S
H363 C372 0.929 . S
H364 C348 0.931 . S
H365 C349 0.930 . S
H366 C404 0.930 . S
H367 C345 0.929 . S
H368 C373 0.931 . S
H369 C374 0.930 . S
N370 Gd350 2.622 . S
N370 C371 1.369 . S
N370 C372 1.338 . S
C371 N370 1.369 . S
C371 C375 1.415 . S
C371 C378 1.422 . S
C372 H363 0.929 . S
C372 N370 1.338 . S
C372 C374 1.378 . S
C373 H368 0.931 . S
C373 C374 1.348 . S
C373 C375 1.413 . S
C374 H369 0.930 . S
C374 C372 1.378 . S
C374 C373 1.348 . S
C375 C371 1.415 . S
C375 C373 1.413 . S
C375 C405 1.437 . S
H376 C405 0.929 . S
N377 Gd350 2.570 . S
N377 C378 1.359 . S
N377 C381 1.343 . S
C378 C371 1.422 . S
C378 N377 1.359 . S
C378 C380 1.421 . S
C379 C380 1.422 . S
C379 C382 1.321 . S
C379 H406 0.931 . S
C380 C378 1.421 . S
C380 C379 1.422 . S
C380 C404 1.417 . S
C381 H358 0.931 . S
C381 N377 1.343 . S
C381 C382 1.390 . S
C382 H360 0.930 . S
C382 C379 1.321 . S
C382 C381 1.390 . S
O383 Gd351 2.386 . S
O383 C395 1.265 . S
O384 Gd350 2.353 . S
O384 C395 1.242 . S
O385 Gd350 2.468 . S
O385 C403 1.263 . S
O386 Gd350 2.427 . S
O386 C403 1.252 . S
O387 Gd351 2.307 . S
O387 C396 1.261 . S
O388 Gd350 2.388 . S
O388 C396 1.252 . S
O389 Gd350 2.386 . S
O389 C407 1.265 . S
O390 Gd351 2.353 . S
O390 C407 1.242 . S
O391 Gd351 2.468 . S
O391 C415 1.263 . S
O392 Gd351 2.427 . S
O392 C415 1.252 . S
O393 Gd350 2.307 . S
O393 C408 1.261 . S
O394 Gd351 2.388 . S
O394 C408 1.252 . S
C395 O383 1.265 . S
C395 O384 1.242 . S
C396 O387 1.261 . S
C396 O388 1.252 . S
C397 C400 1.394 . S
C397 C402 1.370 . S
C397 C403 1.500 . S
C398 C401 1.383 . S
C398 C402 1.395 . S
C399 C400 1.396 . S
C399 C401 1.365 . S
C399 H416 0.929 . S
C400 C397 1.394 . S
C400 C399 1.396 . S
C400 H417 0.930 . S
C401 C398 1.383 . S
C401 C399 1.365 . S
C401 H418 0.931 . S
C402 C397 1.370 . S
C402 C398 1.395 . S
C402 H419 0.930 . S
C403 Gd350 2.805 . S
C403 O385 1.263 . S
C403 O386 1.252 . S
C403 C397 1.500 . S
C404 H366 0.930 . S
C404 C380 1.417 . S
C404 C405 1.329 . S
C405 C375 1.437 . S
C405 H376 0.929 . S
C405 C404 1.329 . S
H406 C379 0.931 . S
C407 O389 1.265 . S
C407 O390 1.242 . S
C408 O393 1.261 . S
C408 O394 1.252 . S
C409 C412 1.394 . S
C409 C414 1.370 . S
C409 C415 1.500 . S
C410 C413 1.383 . S
C410 C414 1.395 . S
C411 C412 1.396 . S
C411 C413 1.365 . S
C411 H420 0.929 . S
C412 C409 1.394 . S
C412 C411 1.396 . S
C412 H421 0.930 . S
C413 C410 1.383 . S
C413 C411 1.365 . S
C413 H422 0.931 . S
C414 C409 1.370 . S
C414 C410 1.395 . S
C414 H423 0.930 . S
C415 Gd351 2.805 . S
C415 O391 1.263 . S
C415 O392 1.252 . S
C415 C409 1.500 . S
H416 C399 0.929 . S
H417 C400 0.930 . S
H418 C401 0.931 . S
H419 C402 0.930 . S
H420 C411 0.929 . S
H421 C412 0.930 . S
H422 C413 0.931 . S
H423 C414 0.930 . S
C424 C426 1.422 . S
C424 C428 1.415 . S
C424 N430 1.369 . S
C425 C426 1.421 . S
C425 C427 1.417 . S
C425 C437 1.422 . S
C426 C424 1.422 . S
C426 C425 1.421 . S
C426 N436 1.359 . S
C427 C425 1.417 . S
C427 C429 1.329 . S
C427 H446 0.930 . S
C428 C424 1.415 . S
C428 C429 1.437 . S
C428 C432 1.413 . S
C429 C427 1.329 . S
C429 C428 1.437 . S
C429 H451 0.929 . S
N430 C424 1.369 . S
N430 C431 1.338 . S
N430 Gd435 2.622 . S
C431 N430 1.338 . S
C431 C433 1.378 . S
C431 H443 0.929 . S
C432 C428 1.413 . S
C432 C433 1.348 . S
C432 H448 0.931 . S
C433 C431 1.378 . S
C433 C432 1.348 . S
C433 H449 0.930 . S
Gd434 N454 2.622 . S
Gd434 N461 2.570 . S
Gd434 O468 2.353 1_455 S
Gd434 O469 2.468 . S
Gd434 O470 2.427 . S
Gd434 O472 2.388 . S
Gd434 O473 2.386 . S
Gd434 O477 2.313 . S
Gd434 C487 2.805 . S
Gd435 N430 2.622 . S
Gd435 N436 2.570 . S
Gd435 O467 2.386 . S
Gd435 O471 2.307 1_655 S
Gd435 O474 2.353 1_655 S
Gd435 O475 2.468 . S
Gd435 O476 2.427 . S
Gd435 O478 2.388 . S
Gd435 C499 2.805 . S
N436 C426 1.359 . S
N436 Gd435 2.570 . S
N436 C438 1.343 . S
C437 C425 1.422 . S
C437 C439 1.321 . S
C437 H445 0.931 . S
C438 N436 1.343 . S
C438 C439 1.390 . S
C438 H440 0.931 . S
C439 C437 1.321 . S
C439 C438 1.390 . S
C439 H441 0.930 . S
H440 C438 0.931 . S
H441 C439 0.930 . S
H442 C465 0.931 . S
H443 C431 0.929 . S
H444 C466 0.930 1_545 S
H445 C437 0.931 . S
H446 C427 0.930 . S
H447 C456 0.929 . S
H448 C432 0.931 . S
H449 C433 0.930 . S
H450 C488 0.930 . S
H451 C429 0.929 . S
H452 C457 0.931 . S
H453 C458 0.930 . S
N454 Gd434 2.622 . S
N454 C455 1.369 . S
N454 C456 1.338 . S
C455 N454 1.369 . S
C455 C459 1.415 . S
C455 C462 1.422 . S
C456 H447 0.929 . S
C456 N454 1.338 . S
C456 C458 1.378 . S
C457 H452 0.931 . S
C457 C458 1.348 . S
C457 C459 1.413 . S
C458 H453 0.930 . S
C458 C456 1.378 . S
C458 C457 1.348 . S
C459 C455 1.415 . S
C459 C457 1.413 . S
C459 C489 1.437 . S
H460 C489 0.929 . S
N461 Gd434 2.570 . S
N461 C462 1.359 . S
N461 C465 1.343 . S
C462 C455 1.422 . S
C462 N461 1.359 . S
C462 C464 1.421 . S
C463 C464 1.422 . S
C463 C466 1.321 . S
C463 H490 0.931 1_565 S
C464 C462 1.421 . S
C464 C463 1.422 . S
C464 C488 1.417 . S
C465 H442 0.931 . S
C465 N461 1.343 . S
C465 C466 1.390 . S
C466 H444 0.930 1_565 S
C466 C463 1.321 . S
C466 C465 1.390 . S
O467 Gd435 2.386 . S
O467 C479 1.265 . S
O468 Gd434 2.353 1_655 S
O468 C479 1.241 . S
O469 Gd434 2.468 . S
O469 C487 1.263 . S
O470 Gd434 2.427 . S
O470 C487 1.252 . S
O471 Gd435 2.307 1_455 S
O471 C480 1.261 . S
O472 Gd434 2.388 . S
O472 C480 1.252 . S
O473 Gd434 2.386 . S
O473 C491 1.265 . S
O474 Gd435 2.353 1_455 S
O474 C491 1.242 . S
O475 Gd435 2.468 . S
O475 C499 1.263 . S
O476 Gd435 2.427 . S
O476 C499 1.252 . S
O477 Gd434 2.313 . S
O477 C492 1.254 1_455 S
O478 Gd435 2.388 . S
O478 C492 1.252 . S
C479 O467 1.265 . S
C479 O468 1.241 . S
C480 O471 1.261 . S
C480 O472 1.252 . S
C481 C484 1.394 . S
C481 C486 1.370 . S
C481 C487 1.500 . S
C482 C485 1.383 . S
C482 C486 1.395 . S
C483 C484 1.396 . S
C483 C485 1.365 . S
C483 H500 0.929 . S
C484 C481 1.394 . S
C484 C483 1.396 . S
C484 H501 0.930 . S
C485 C482 1.383 . S
C485 C483 1.365 . S
C485 H502 0.931 . S
C486 C481 1.370 . S
C486 C482 1.395 . S
C486 H503 0.930 . S
C487 Gd434 2.805 . S
C487 O469 1.263 . S
C487 O470 1.252 . S
C487 C481 1.500 . S
C488 H450 0.930 . S
C488 C464 1.417 . S
C488 C489 1.329 . S
C489 C459 1.437 . S
C489 H460 0.929 . S
C489 C488 1.329 . S
H490 C463 0.931 1_545 S
C491 O473 1.265 . S
C491 O474 1.242 . S
C492 O477 1.254 1_655 S
C492 O478 1.252 . S
C493 C496 1.394 . S
C493 C498 1.370 . S
C493 C499 1.500 . S
C494 C497 1.383 . S
C494 C498 1.395 . S
C495 C496 1.396 . S
C495 C497 1.365 . S
C495 H504 0.929 . S
C496 C493 1.394 . S
C496 C495 1.396 . S
C496 H505 0.930 . S
C497 C494 1.383 . S
C497 C495 1.365 . S
C497 H506 0.931 . S
C498 C493 1.370 . S
C498 C494 1.395 . S
C498 H507 0.930 . S
C499 Gd435 2.805 . S
C499 O475 1.263 . S
C499 O476 1.252 . S
C499 C493 1.500 . S
H500 C483 0.929 . S
H501 C484 0.930 . S
H502 C485 0.931 . S
H503 C486 0.930 . S
H504 C495 0.929 . S
H505 C496 0.930 . S
H506 C497 0.931 . S
H507 C498 0.930 . S
C508 C510 1.422 . S
C508 C512 1.415 . S
C508 N514 1.369 . S
C509 C510 1.421 . S
C509 C511 1.417 . S
C509 C521 1.422 . S
C510 C508 1.422 . S
C510 C509 1.421 . S
C510 N520 1.359 . S
C511 C509 1.417 . S
C511 C513 1.329 . S
C511 H530 0.930 . S
C512 C508 1.415 . S
C512 C513 1.437 . S
C512 C516 1.413 . S
C513 C511 1.329 . S
C513 C512 1.437 . S
C513 H535 0.929 . S
N514 C508 1.369 . S
N514 C515 1.338 . S
N514 Gd519 2.622 . S
C515 N514 1.338 . S
C515 C517 1.378 . S
C515 H527 0.929 . S
C516 C512 1.413 . S
C516 C517 1.348 . S
C516 H532 0.931 . S
C517 C515 1.378 . S
C517 C516 1.348 . S
C517 H533 0.930 . S
Gd518 N538 2.622 . S
Gd518 N545 2.570 . S
Gd518 O552 2.353 . S
Gd518 O553 2.468 . S
Gd518 O554 2.427 . S
Gd518 O556 2.388 . S
Gd518 O557 2.386 . S
Gd518 O561 2.307 . S
Gd518 C571 2.805 . S
Gd519 N514 2.622 . S
Gd519 N520 2.570 . S
Gd519 O551 2.386 . S
Gd519 O555 2.307 . S
Gd519 O558 2.353 . S
Gd519 O559 2.468 . S
Gd519 O560 2.427 . S
Gd519 O562 2.388 . S
Gd519 C583 2.805 . S
N520 C510 1.359 . S
N520 Gd519 2.570 . S
N520 C522 1.343 . S
C521 C509 1.422 . S
C521 C523 1.321 . S
C521 H529 0.931 . S
C522 N520 1.343 . S
C522 C523 1.390 . S
C522 H524 0.931 . S
C523 C521 1.321 . S
C523 C522 1.390 . S
C523 H525 0.930 . S
H524 C522 0.931 . S
H525 C523 0.930 . S
H526 C549 0.931 . S
H527 C515 0.929 . S
H528 C550 0.930 . S
H529 C521 0.931 . S
H530 C511 0.930 . S
H531 C540 0.929 . S
H532 C516 0.931 . S
H533 C517 0.930 . S
H534 C572 0.930 . S
H535 C513 0.929 . S
H536 C541 0.931 . S
H537 C542 0.930 . S
N538 Gd518 2.622 . S
N538 C539 1.369 . S
N538 C540 1.338 . S
C539 N538 1.369 . S
C539 C543 1.415 . S
C539 C546 1.422 . S
C540 H531 0.929 . S
C540 N538 1.338 . S
C540 C542 1.378 . S
C541 H536 0.931 . S
C541 C542 1.348 . S
C541 C543 1.413 . S
C542 H537 0.930 . S
C542 C540 1.378 . S
C542 C541 1.348 . S
C543 C539 1.415 . S
C543 C541 1.413 . S
C543 C573 1.437 . S
H544 C573 0.929 . S
N545 Gd518 2.570 . S
N545 C546 1.359 . S
N545 C549 1.343 . S
C546 C539 1.422 . S
C546 N545 1.359 . S
C546 C548 1.421 . S
C547 C548 1.422 . S
C547 C550 1.321 . S
C547 H574 0.931 . S
C548 C546 1.421 . S
C548 C547 1.422 . S
C548 C572 1.417 . S
C549 H526 0.931 . S
C549 N545 1.343 . S
C549 C550 1.390 . S
C550 H528 0.930 . S
C550 C547 1.321 . S
C550 C549 1.390 . S
O551 Gd519 2.386 . S
O551 C563 1.265 . S
O552 Gd518 2.353 . S
O552 C563 1.242 . S
O553 Gd518 2.468 . S
O553 C571 1.263 . S
O554 Gd518 2.427 . S
O554 C571 1.252 . S
O555 Gd519 2.307 . S
O555 C564 1.261 . S
O556 Gd518 2.388 . S
O556 C564 1.252 . S
O557 Gd518 2.386 . S
O557 C575 1.265 . S
O558 Gd519 2.353 . S
O558 C575 1.242 . S
O559 Gd519 2.468 . S
O559 C583 1.263 . S
O560 Gd519 2.427 . S
O560 C583 1.252 . S
O561 Gd518 2.307 . S
O561 C576 1.261 . S
O562 Gd519 2.388 . S
O562 C576 1.252 . S
C563 O551 1.265 . S
C563 O552 1.242 . S
C564 O555 1.261 . S
C564 O556 1.252 . S
C565 C568 1.394 . S
C565 C570 1.370 . S
C565 C571 1.500 . S
C566 C569 1.383 . S
C566 C570 1.395 . S
C567 C568 1.396 . S
C567 C569 1.365 . S
C567 H584 0.929 . S
C568 C565 1.394 . S
C568 C567 1.396 . S
C568 H585 0.930 . S
C569 C566 1.383 . S
C569 C567 1.365 . S
C569 H586 0.931 . S
C570 C565 1.370 . S
C570 C566 1.395 . S
C570 H587 0.930 . S
C571 Gd518 2.805 . S
C571 O553 1.263 . S
C571 O554 1.252 . S
C571 C565 1.500 . S
C572 H534 0.930 . S
C572 C548 1.417 . S
C572 C573 1.329 . S
C573 C543 1.437 . S
C573 H544 0.929 . S
C573 C572 1.329 . S
H574 C547 0.931 . S
C575 O557 1.265 . S
C575 O558 1.242 . S
C576 O561 1.261 . S
C576 O562 1.252 . S
C577 C580 1.394 . S
C577 C582 1.370 . S
C577 C583 1.500 . S
C578 C581 1.383 . S
C578 C582 1.395 . S
C579 C580 1.396 . S
C579 C581 1.365 . S
C579 H588 0.929 . S
C580 C577 1.394 . S
C580 C579 1.396 . S
C580 H589 0.930 . S
C581 C578 1.383 . S
C581 C579 1.365 . S
C581 H590 0.931 . S
C582 C577 1.370 . S
C582 C578 1.395 . S
C582 H591 0.930 . S
C583 Gd519 2.805 . S
C583 O559 1.263 . S
C583 O560 1.252 . S
C583 C577 1.500 . S
H584 C567 0.929 . S
H585 C568 0.930 . S
H586 C569 0.931 . S
H587 C570 0.930 . S
H588 C579 0.929 . S
H589 C580 0.930 . S
H590 C581 0.931 . S
H591 C582 0.930 . S
C592 C593 1.341 1_545 S
C592 C594 1.419 . S
C592 H596 0.930 . S
C593 C592 1.341 1_565 S
C593 C602 1.435 . S
C594 C592 1.419 . S
C594 C595 1.363 . S
C594 H597 0.929 . S
C595 C594 1.363 . S
C595 C601 1.428 . S
H596 C592 0.930 . S
H597 C594 0.929 . S
S598 N599 1.613 . S
S598 N600 1.610 1_565 S
N599 S598 1.613 . S
N599 C602 1.350 . S
N600 S598 1.610 1_545 S
N600 C601 1.351 . S
C601 C595 1.428 . S
C601 N600 1.351 . S
C601 C602 1.434 1_545 S
C602 C593 1.435 . S
C602 N599 1.350 . S
C602 C601 1.434 1_565 S
C603 C604 1.369 . S
C603 C605 1.419 . S
C603 H607 0.930 . S
C604 C603 1.369 . S
C604 C613 1.429 . S
C605 C603 1.419 . S
C605 C606 1.363 . S
C605 H608 0.929 . S
C606 C605 1.363 . S
C606 C612 1.428 . S
H607 C603 0.930 . S
H608 C605 0.929 . S
S609 N610 1.613 . S
S609 N611 1.610 . S
N610 S609 1.613 . S
N610 C613 1.350 . S
N611 S609 1.610 . S
N611 C612 1.351 . S
C612 C606 1.428 . S
C612 N611 1.351 . S
C612 C613 1.434 . S
C613 C604 1.429 . S
C613 N610 1.350 . S
C613 C612 1.434 . S
C614 C615 1.369 . S
C614 C616 1.419 . S
C614 H618 0.930 . S
C615 C614 1.369 . S
C615 C624 1.429 . S
C616 C614 1.419 . S
C616 C617 1.363 . S
C616 H619 0.929 . S
C617 C616 1.363 . S
C617 C623 1.428 . S
H618 C614 0.930 . S
H619 C616 0.929 . S
S620 N621 1.613 . S
S620 N622 1.610 . S
N621 S620 1.613 . S
N621 C624 1.350 . S
N622 S620 1.610 . S
N622 C623 1.351 . S
C623 C617 1.428 . S
C623 N622 1.351 . S
C623 C624 1.434 . S
C624 C615 1.429 . S
C624 N621 1.350 . S
C624 C623 1.434 . S
C625 C626 1.369 . S
C625 C627 1.419 . S
C625 H629 0.930 . S
C626 C625 1.369 . S
C626 C635 1.429 . S
C627 C625 1.419 . S
C627 C628 1.363 . S
C627 H630 0.929 . S
C628 C627 1.363 . S
C628 C634 1.428 . S
H629 C625 0.930 . S
H630 C627 0.929 . S
S631 N632 1.613 1_545 S
S631 N633 1.610 . S
N632 S631 1.613 1_565 S
N632 C635 1.350 1_565 S
N633 S631 1.610 . S
N633 C634 1.351 . S
C634 C628 1.428 . S
C634 N633 1.351 . S
C634 C635 1.434 . S
C635 C626 1.429 . S
C635 N632 1.350 1_545 S
C635 C634 1.434 . S
C636 C637 1.370 . S
C636 C638 1.419 1_545 S
C636 H640 0.930 . S
C637 C636 1.370 . S
C637 C646 1.424 1_545 S
C638 C636 1.419 1_565 S
C638 C639 1.363 . S
C638 H641 0.929 . S
C639 C638 1.363 . S
C639 C645 1.428 . S
H640 C636 0.930 . S
H641 C638 0.929 . S
S642 N643 1.613 . S
S642 N644 1.610 . S
N643 S642 1.613 . S
N643 C646 1.350 . S
N644 S642 1.610 . S
N644 C645 1.351 . S
C645 C639 1.428 . S
C645 N644 1.351 . S
C645 C646 1.434 . S
C646 C637 1.424 1_565 S
C646 N643 1.350 . S
C646 C645 1.434 . S
C647 C648 1.369 . S
C647 C649 1.419 . S
C647 H651 0.930 . S
C648 C647 1.369 . S
C648 C657 1.429 . S
C649 C647 1.419 . S
C649 C650 1.363 . S
C649 H652 0.929 . S
C650 C649 1.363 . S
C650 C656 1.428 . S
H651 C647 0.930 . S
H652 C649 0.929 . S
S653 N654 1.613 . S
S653 N655 1.610 . S
N654 S653 1.613 . S
N654 C657 1.350 . S
N655 S653 1.610 . S
N655 C656 1.351 . S
C656 C650 1.428 . S
C656 N655 1.351 . S
C656 C657 1.434 . S
C657 C648 1.429 . S
C657 N654 1.350 . S
C657 C656 1.434 . S
C658 C659 1.369 . S
C658 C660 1.419 . S
C658 H662 0.930 . S
C659 C658 1.369 . S
C659 C668 1.429 . S
C660 C658 1.419 . S
C660 C661 1.363 . S
C660 H663 0.929 . S
C661 C660 1.363 . S
C661 C667 1.428 . S
H662 C658 0.930 . S
H663 C660 0.929 . S
S664 N665 1.613 . S
S664 N666 1.610 . S
N665 S664 1.613 . S
N665 C668 1.350 . S
N666 S664 1.610 . S
N666 C667 1.351 . S
C667 C661 1.428 . S
C667 N666 1.351 . S
C667 C668 1.434 . S
C668 C659 1.429 . S
C668 N665 1.350 . S
C668 C667 1.434 . S
C669 C670 1.369 . S
C669 C671 1.419 . S
C669 H673 0.930 . S
C670 C669 1.369 . S
C670 C679 1.429 1_565 S
C671 C669 1.419 . S
C671 C672 1.363 . S
C671 H674 0.929 . S
C672 C671 1.363 . S
C672 C678 1.428 . S
H673 C669 0.930 . S
H674 C671 0.929 . S
S675 N676 1.613 . S
S675 N677 1.610 1_545 S
N676 S675 1.613 . S
N676 C679 1.350 . S
N677 S675 1.610 1_565 S
N677 C678 1.351 . S
C678 C672 1.428 . S
C678 N677 1.351 . S
C678 C679 1.434 1_565 S
C679 C670 1.429 1_545 S
C679 N676 1.350 . S
C679 C678 1.434 1_545 S
C680 C681 1.369 . S
C680 C682 1.419 . S
C680 H684 0.930 . S
C681 C680 1.369 . S
C681 C690 1.429 . S
C682 C680 1.419 . S
C682 C683 1.363 . S
C682 H685 0.929 . S
C683 C682 1.363 . S
C683 C689 1.428 . S
H684 C680 0.930 . S
H685 C682 0.929 . S
S686 N687 1.613 . S
S686 N688 1.610 . S
N687 S686 1.613 . S
N687 C690 1.350 . S
N688 S686 1.610 . S
N688 C689 1.351 . S
C689 C683 1.428 . S
C689 N688 1.351 . S
C689 C690 1.434 . S
C690 C681 1.429 . S
C690 N687 1.350 . S
C690 C689 1.434 . S
C691 C692 1.369 . S
C691 C693 1.419 . S
C691 H695 0.930 . S
C692 C691 1.369 . S
C692 C701 1.429 . S
C693 C691 1.419 . S
C693 C694 1.363 . S
C693 H696 0.929 . S
C694 C693 1.363 . S
C694 C700 1.428 . S
H695 C691 0.930 . S
H696 C693 0.929 . S
S697 N698 1.613 . S
S697 N699 1.610 . S
N698 S697 1.613 . S
N698 C701 1.350 . S
N699 S697 1.610 . S
N699 C700 1.351 . S
C700 C694 1.428 . S
C700 N699 1.351 . S
C700 C701 1.434 . S
C701 C692 1.429 . S
C701 N698 1.350 . S
C701 C700 1.434 . S
C702 C703 1.369 . S
C702 C704 1.419 . S
C702 H706 0.930 . S
C703 C702 1.369 . S
C703 C712 1.429 . S
C704 C702 1.419 . S
C704 C705 1.363 . S
C704 H707 0.929 . S
C705 C704 1.363 . S
C705 C711 1.428 . S
H706 C702 0.930 . S
H707 C704 0.929 . S
S708 N709 1.613 1_556 S
S708 N710 1.610 . S
N709 S708 1.613 1_554 S
N709 C712 1.350 1_554 S
N710 S708 1.610 . S
N710 C711 1.351 . S
C711 C705 1.428 . S
C711 N710 1.351 . S
C711 C712 1.434 . S
C712 C703 1.429 . S
C712 N709 1.350 1_556 S
C712 C711 1.434 . S
C713 C714 1.369 . S
C713 C715 1.419 . S
C713 H717 0.930 . S
C714 C713 1.369 . S
C714 C723 1.429 . S
C715 C713 1.419 . S
C715 C716 1.363 . S
C715 H718 0.929 . S
C716 C715 1.363 . S
C716 C722 1.428 . S
H717 C713 0.930 . S
H718 C715 0.929 . S
S719 N720 1.613 . S
S719 N721 1.610 . S
N720 S719 1.613 . S
N720 C723 1.350 . S
N721 S719 1.610 . S
N721 C722 1.351 . S
C722 C716 1.428 . S
C722 N721 1.351 . S
C722 C723 1.434 . S
C723 C714 1.429 . S
C723 N720 1.350 . S
C723 C722 1.434 . S
C724 C725 1.369 . S
C724 C726 1.419 . S
C724 H728 0.930 . S
C725 C724 1.369 . S
C725 C734 1.429 . S
C726 C724 1.419 . S
C726 C727 1.363 . S
C726 H729 0.929 . S
C727 C726 1.363 . S
C727 C733 1.428 . S
H728 C724 0.930 . S
H729 C726 0.929 . S
S730 N731 1.613 . S
S730 N732 1.610 . S
N731 S730 1.613 . S
N731 C734 1.350 . S
N732 S730 1.610 . S
N732 C733 1.351 . S
C733 C727 1.428 . S
C733 N732 1.351 . S
C733 C734 1.434 . S
C734 C725 1.429 . S
C734 N731 1.350 . S
C734 C733 1.434 . S
C735 C736 1.369 . S
C735 C737 1.419 . S
C735 H739 0.930 . S
C736 C735 1.369 . S
C736 C745 1.429 . S
C737 C735 1.419 . S
C737 C738 1.363 . S
C737 H740 0.929 . S
C738 C737 1.363 . S
C738 C744 1.428 . S
H739 C735 0.930 . S
H740 C737 0.929 . S
S741 N742 1.613 . S
S741 N743 1.610 . S
N742 S741 1.613 . S
N742 C745 1.350 . S
N743 S741 1.610 . S
N743 C744 1.351 . S
C744 C738 1.428 . S
C744 N743 1.351 . S
C744 C745 1.434 . S
C745 C736 1.429 . S
C745 N742 1.350 . S
C745 C744 1.434 . S
C746 C747 1.369 . S
C746 C748 1.419 . S
C746 H750 0.930 . S
C747 C746 1.369 . S
C747 C756 1.429 . S
C748 C746 1.419 . S
C748 C749 1.363 . S
C748 H751 0.929 . S
C749 C748 1.363 . S
C749 C755 1.428 . S
H750 C746 0.930 . S
H751 C748 0.929 . S
S752 N753 1.613 . S
S752 N754 1.610 . S
N753 S752 1.613 . S
N753 C756 1.350 . S
N754 S752 1.610 . S
N754 C755 1.351 . S
C755 C749 1.428 . S
C755 N754 1.351 . S
C755 C756 1.434 . S
C756 C747 1.429 . S
C756 N753 1.350 . S
C756 C755 1.434 . S
C757 C758 1.369 . S
C757 C759 1.419 . S
C757 H761 0.930 . S
C758 C757 1.369 . S
C758 C767 1.429 . S
C759 C757 1.419 . S
C759 C760 1.363 . S
C759 H762 0.929 . S
C760 C759 1.363 . S
C760 C766 1.428 . S
H761 C757 0.930 . S
H762 C759 0.929 . S
S763 N764 1.613 . S
S763 N765 1.610 . S
N764 S763 1.613 . S
N764 C767 1.350 . S
N765 S763 1.610 . S
N765 C766 1.351 . S
C766 C760 1.428 . S
C766 N765 1.351 . S
C766 C767 1.434 . S
C767 C758 1.429 . S
C767 N764 1.350 . S
C767 C766 1.434 . S
C768 C769 1.369 . S
C768 C770 1.419 . S
C768 H772 0.930 . S
C769 C768 1.369 . S
C769 C778 1.429 . S
C770 C768 1.419 . S
C770 C771 1.363 . S
C770 H773 0.929 . S
C771 C770 1.363 . S
C771 C777 1.428 . S
H772 C768 0.930 . S
H773 C770 0.929 . S
S774 N775 1.613 . S
S774 N776 1.610 . S
N775 S774 1.613 . S
N775 C778 1.350 . S
N776 S774 1.610 . S
N776 C777 1.351 . S
C777 C771 1.428 . S
C777 N776 1.351 . S
C777 C778 1.434 . S
C778 C769 1.429 . S
C778 N775 1.350 . S
C778 C777 1.434 . S
C779 C780 1.369 . S
C779 C781 1.419 . S
C779 H783 0.930 . S
C780 C779 1.369 . S
C780 C789 1.429 . S
C781 C779 1.419 . S
C781 C782 1.363 . S
C781 H784 0.929 . S
C782 C781 1.363 . S
C782 C788 1.428 . S
H783 C779 0.930 . S
H784 C781 0.929 . S
S785 N786 1.613 . S
S785 N787 1.610 . S
N786 S785 1.613 . S
N786 C789 1.350 . S
N787 S785 1.610 . S
N787 C788 1.351 . S
C788 C782 1.428 . S
C788 N787 1.351 . S
C788 C789 1.434 . S
C789 C780 1.429 . S
C789 N786 1.350 . S
C789 C788 1.434 . S
C790 C791 1.369 . S
C790 C792 1.419 . S
C790 H794 0.930 . S
C791 C790 1.369 . S
C791 C800 1.429 . S
C792 C790 1.419 . S
C792 C793 1.363 . S
C792 H795 0.929 . S
C793 C792 1.363 . S
C793 C799 1.428 . S
H794 C790 0.930 . S
H795 C792 0.929 . S
S796 N797 1.613 . S
S796 N798 1.610 . S
N797 S796 1.613 . S
N797 C800 1.350 . S
N798 S796 1.610 . S
N798 C799 1.351 . S
C799 C793 1.428 . S
C799 N798 1.351 . S
C799 C800 1.434 . S
C800 C791 1.429 . S
C800 N797 1.350 . S
C800 C799 1.434 . S
C801 C802 1.369 . S
C801 C803 1.419 . S
C801 H805 0.930 . S
C802 C801 1.369 . S
C802 C811 1.429 . S
C803 C801 1.419 . S
C803 C804 1.363 . S
C803 H806 0.929 1_655 S
C804 C803 1.363 . S
C804 C810 1.428 . S
H805 C801 0.930 . S
H806 C803 0.929 1_455 S
S807 N808 1.613 . S
S807 N809 1.610 . S
N808 S807 1.613 . S
N808 C811 1.350 . S
N809 S807 1.610 . S
N809 C810 1.351 . S
C810 C804 1.428 . S
C810 N809 1.351 . S
C810 C811 1.434 . S
C811 C802 1.429 . S
C811 N808 1.350 . S
C811 C810 1.434 . S
C812 C813 1.369 . S
C812 C814 1.419 . S
C812 H816 0.930 . S
C813 C812 1.369 . S
C813 C822 1.429 . S
C814 C812 1.419 . S
C814 C815 1.363 . S
C814 H817 0.929 . S
C815 C814 1.363 . S
C815 C821 1.428 . S
H816 C812 0.930 . S
H817 C814 0.929 . S
S818 N819 1.613 . S
S818 N820 1.610 . S
N819 S818 1.613 . S
N819 C822 1.350 . S
N820 S818 1.610 . S
N820 C821 1.351 . S
C821 C815 1.428 . S
C821 N820 1.351 . S
C821 C822 1.434 . S
C822 C813 1.429 . S
C822 N819 1.350 . S
C822 C821 1.434 . S
C823 C824 1.369 . S
C823 C825 1.419 . S
C823 H827 0.930 . S
C824 C823 1.369 . S
C824 C833 1.429 . S
C825 C823 1.419 . S
C825 C826 1.363 . S
C825 H828 0.929 . S
C826 C825 1.363 . S
C826 C832 1.428 . S
H827 C823 0.930 . S
H828 C825 0.929 . S
S829 N830 1.613 . S
S829 N831 1.610 . S
N830 S829 1.613 . S
N830 C833 1.350 . S
N831 S829 1.610 . S
N831 C832 1.351 . S
C832 C826 1.428 . S
C832 N831 1.351 . S
C832 C833 1.434 . S
C833 C824 1.429 . S
C833 N830 1.350 . S
C833 C832 1.434 . S
C834 C835 1.369 . S
C834 C836 1.419 . S
C834 H838 0.930 . S
C835 C834 1.369 . S
C835 C844 1.429 . S
C836 C834 1.419 . S
C836 C837 1.363 . S
C836 H839 0.929 . S
C837 C836 1.363 . S
C837 C843 1.428 . S
H838 C834 0.930 . S
H839 C836 0.929 . S
S840 N841 1.613 . S
S840 N842 1.610 . S
N841 S840 1.613 . S
N841 C844 1.350 . S
N842 S840 1.610 . S
N842 C843 1.351 . S
C843 C837 1.428 . S
C843 N842 1.351 . S
C843 C844 1.434 . S
C844 C835 1.429 . S
C844 N841 1.350 . S
C844 C843 1.434 . S
C845 C846 1.369 . S
C845 C847 1.419 . S
C845 H849 0.930 . S
C846 C845 1.369 . S
C846 C855 1.429 . S
C847 C845 1.419 . S
C847 C848 1.363 . S
C847 H850 0.929 . S
C848 C847 1.363 . S
C848 C854 1.428 . S
H849 C845 0.930 . S
H850 C847 0.929 . S
S851 N852 1.613 1_655 S
S851 N853 1.610 1_655 S
N852 S851 1.613 1_455 S
N852 C855 1.350 . S
N853 S851 1.610 1_455 S
N853 C854 1.351 . S
C854 C848 1.428 . S
C854 N853 1.351 . S
C854 C855 1.434 . S
C855 C846 1.429 . S
C855 N852 1.350 . S
C855 C854 1.434 . S
C593 C221 1.499 . S
C595 C312 1.477 . S
C606 C396 1.482 . S
C604 C241 1.447 . S
C617 C395 1.487 . S
C615 C157 1.478 . S
C626 C177 1.440 1_545 S
C628 C311 1.491 . S
C639 C492 1.481 . S
C637 C93 1.453 . S
C650 C576 1.484 . S
C648 C113 1.492 . S
C659 C29 1.432 . S
C661 C575 1.486 . S
C670 C49 1.490 1_565 S
C672 C491 1.492 . S
C683 C314 1.313 . S
C681 C61 1.514 1_554 S
C694 C398 1.325 . S
C692 C17 1.459 . S
C705 C410 1.395 . S
C703 C125 1.528 1_556 S
C716 C326 1.391 . S
C714 C81 1.480 . S
C727 C494 1.310 . S
C725 C189 1.453 1_556 S
C736 C145 1.510 . S
C738 C578 1.320 . S
C749 C566 1.392 . S
C747 C253 1.475 1_554 S
C758 C209 1.522 . S
C760 C482 1.399 . S
C771 C323 1.553 . S
C769 C23 1.490 . S
C782 C407 1.565 . S
C780 C55 1.555 . S
C791 C87 1.493 . S
C793 C408 1.535 . S
C804 C324 1.545 . S
C802 C119 1.538 . S
C815 C479 1.551 . S
C813 C151 1.550 . S
C824 C183 1.491 . S
C826 C563 1.565 . S
C835 C215 1.534 . S
C837 C564 1.532 . S
C846 C247 1.489 . S
C848 C480 1.544 . S
