# Generated by pormake.
# Topology pyr, (3,6)-cn, num edge types: 1
# Building blocks:
#     Node 0, Type 0, BuildingBlock: QEWDON_clean_linker_0, # of connection points: 3
#     Node 1, Type 0, BuildingBlock: QEWDON_clean_linker_0, # of connection points: 3
#     Node 2, Type 0, BuildingBlock: QEWDON_clean_linker_0, # of connection points: 3
#     Node 3, Type 0, BuildingBlock: QEWDON_clean_linker_0, # of connection points: 3
#     Node 4, Type 0, BuildingBlock: QEWDON_clean_linker_0, # of connection points: 3
#     Node 5, Type 0, BuildingBlock: QEWDON_clean_linker_0, # of connection points: 3
#     Node 6, Type 0, BuildingBlock: QEWDON_clean_linker_0, # of connection points: 3
#     Node 7, Type 0, BuildingBlock: QEWDON_clean_linker_0, # of connection points: 3
#     Node 8, Type 1, BuildingBlock: BETDEL_clean_sbu_0, # of connection points: 6
#     Node 9, Type 1, BuildingBlock: BETDEL_clean_sbu_0, # of connection points: 6
#     Node 10, Type 1, BuildingBlock: BETDEL_clean_sbu_0, # of connection points: 6
#     Node 11, Type 1, BuildingBlock: BETDEL_clean_sbu_0, # of connection points: 6
#     Edge 12, Type (0, 1), BuildingBlock: OJICUG_clean_linker_0, # of connection points: 2
#     Edge 13, Type (0, 1), BuildingBlock: OJICUG_clean_linker_0, # of connection points: 2
#     Edge 14, Type (0, 1), BuildingBlock: OJICUG_clean_linker_0, # of connection points: 2
#     Edge 15, Type (0, 1), BuildingBlock: OJICUG_clean_linker_0, # of connection points: 2
#     Edge 16, Type (0, 1), BuildingBlock: OJICUG_clean_linker_0, # of connection points: 2
#     Edge 17, Type (0, 1), BuildingBlock: OJICUG_clean_linker_0, # of connection points: 2
#     Edge 18, Type (0, 1), BuildingBlock: OJICUG_clean_linker_0, # of connection points: 2
#     Edge 19, Type (0, 1), BuildingBlock: OJICUG_clean_linker_0, # of connection points: 2
#     Edge 20, Type (0, 1), BuildingBlock: OJICUG_clean_linker_0, # of connection points: 2
#     Edge 21, Type (0, 1), BuildingBlock: OJICUG_clean_linker_0, # of connection points: 2
#     Edge 22, Type (0, 1), BuildingBlock: OJICUG_clean_linker_0, # of connection points: 2
#     Edge 23, Type (0, 1), BuildingBlock: OJICUG_clean_linker_0, # of connection points: 2
#     Edge 24, Type (0, 1), BuildingBlock: OJICUG_clean_linker_0, # of connection points: 2
#     Edge 25, Type (0, 1), BuildingBlock: OJICUG_clean_linker_0, # of connection points: 2
#     Edge 26, Type (0, 1), BuildingBlock: OJICUG_clean_linker_0, # of connection points: 2
#     Edge 27, Type (0, 1), BuildingBlock: OJICUG_clean_linker_0, # of connection points: 2
#     Edge 28, Type (0, 1), BuildingBlock: OJICUG_clean_linker_0, # of connection points: 2
#     Edge 29, Type (0, 1), BuildingBlock: OJICUG_clean_linker_0, # of connection points: 2
#     Edge 30, Type (0, 1), BuildingBlock: OJICUG_clean_linker_0, # of connection points: 2
#     Edge 31, Type (0, 1), BuildingBlock: OJICUG_clean_linker_0, # of connection points: 2
#     Edge 32, Type (0, 1), BuildingBlock: OJICUG_clean_linker_0, # of connection points: 2
#     Edge 33, Type (0, 1), BuildingBlock: OJICUG_clean_linker_0, # of connection points: 2
#     Edge 34, Type (0, 1), BuildingBlock: OJICUG_clean_linker_0, # of connection points: 2
#     Edge 35, Type (0, 1), BuildingBlock: OJICUG_clean_linker_0, # of connection points: 2
# Relax obj value: 0.128
# Max RMSD: 0.260
# Mean RMSD: 0.187
data_MOF--net-pyr--node1-BETDEL_clean_sbu_0--node2-QEWDON_clean_linker_0--edge1-OJICUG_clean_linker_0
_symmetry_space_group_name_H-M    P1
_symmetry_Int_Tables_number       1
_symmetry_cell_setting            triclinic
loop_
_symmetry_equiv_pos_as_xyz
'x, y, z'
_cell_length_a     26.77525
_cell_length_b     28.352484
_cell_length_c     27.842515
_cell_angle_alpha  91.54672
_cell_angle_beta   89.652279
_cell_angle_gamma 105.46762
loop_
_atom_site_label
_atom_site_type_symbol
_atom_site_fract_x
_atom_site_fract_y
_atom_site_fract_z
_atom_type_partial_charge
H0 H 0.34406 0.25727 0.17052 0.0
C1 C 0.31404 0.24218 0.19644 0.0
C2 C 0.30949 0.19537 0.21397 0.0
C3 C 0.27909 0.26888 0.21068 0.0
H4 H 0.26706 0.13951 0.26074 0.0
C5 C 0.26965 0.17522 0.24633 0.0
C6 C 0.23467 0.2018 0.26157 0.0
C7 C 0.23948 0.24847 0.24321 0.0
C8 C 0.28368 0.31784 0.19105 0.0
H9 H 0.21253 0.26912 0.25445 0.0
C10 C 0.23935 0.33055 0.17528 0.0
C11 C 0.2436 0.37641 0.15543 0.0
C12 C 0.33247 0.35177 0.18719 0.0
H13 H 0.36717 0.34309 0.1996 0.0
C14 C 0.33684 0.3975 0.16773 0.0
H15 H 0.20169 0.30428 0.17717 0.0
C16 C 0.29276 0.40982 0.15183 0.0
H17 H 0.29705 0.44573 0.13726 0.0
H18 H 0.37449 0.42353 0.16506 0.0
H19 H 0.25975 0.89324 0.80078 0.0
C20 C 0.28374 0.87313 0.78241 0.0
C21 C 0.32919 0.86815 0.8044 0.0
C22 C 0.26733 0.85039 0.73777 0.0
H23 H 0.39317 0.83515 0.79677 0.0
C24 C 0.35787 0.83932 0.78074 0.0
C25 C 0.34181 0.8162 0.73593 0.0
C26 C 0.29659 0.82225 0.71444 0.0
C27 C 0.2159 0.85093 0.71926 0.0
H28 H 0.283 0.80343 0.68065 0.0
C29 C 0.20934 0.8893 0.69097 0.0
C30 C 0.15915 0.89135 0.67803 0.0
C31 C 0.1723 0.81438 0.73361 0.0
H32 H 0.1767 0.78484 0.75568 0.0
C33 C 0.12265 0.81627 0.72058 0.0
H34 H 0.24284 0.91786 0.68007 0.0
C35 C 0.11601 0.8547 0.69327 0.0
H36 H 0.07714 0.85564 0.68361 0.0
H37 H 0.08918 0.7881 0.73205 0.0
H38 H 0.68697 0.46261 0.95001 0.0
C39 C 0.67361 0.42373 0.95625 0.0
C40 C 0.70667 0.39901 0.97776 0.0
C41 C 0.62203 0.39928 0.94523 0.0
H42 H 0.71223 0.32865 1.00225 0.0
C43 C 0.68711 0.3488 0.98733 0.0
C44 C 0.63542 0.32388 0.9768 0.0
C45 C 0.60319 0.34959 0.95591 0.0
C46 C 0.58626 0.42643 0.92648 0.0
H47 H 0.56292 0.3311 0.94847 0.0
C48 C 0.5963 0.45196 0.88309 0.0
C49 C 0.5612 0.47704 0.86584 0.0
C50 C 0.54121 0.42644 0.95251 0.0
H51 H 0.53283 0.40723 0.98597 0.0
C52 C 0.50681 0.45153 0.93595 0.0
H53 H 0.6309 0.45186 0.86273 0.0
C54 C 0.51655 0.47653 0.89302 0.0
H55 H 0.48831 0.49457 0.8805 0.0
H56 H 0.47215 0.45125 0.95629 0.0
H57 H 0.87967 0.78407 0.3585 0.0
C58 C 0.85166 0.7659 0.38489 0.0
C59 C 0.85438 0.78469 0.43232 0.0
C60 C 0.81172 0.72473 0.37096 0.0
H61 H 0.82031 0.77497 0.50273 0.0
C62 C 0.81764 0.76073 0.46611 0.0
C63 C 0.77659 0.72007 0.45281 0.0
C64 C 0.77407 0.70252 0.40478 0.0
C65 C 0.80637 0.70739 0.32006 0.0
H66 H 0.74211 0.67226 0.39297 0.0
C67 C 0.84559 0.69074 0.29666 0.0
C68 C 0.83927 0.67345 0.24838 0.0
C69 C 0.76111 0.70714 0.2948 0.0
H70 H 0.73057 0.71989 0.31207 0.0
C71 C 0.755 0.69086 0.24697 0.0
H72 H 0.88051 0.69076 0.31614 0.0
C73 C 0.7936 0.67405 0.22391 0.0
H74 H 0.78705 0.66037 0.18715 0.0
H75 H 0.71994 0.69081 0.22779 0.0
H76 H 0.8249 0.80723 0.94965 0.0
C77 C 0.84499 0.83258 0.92293 0.0
C78 C 0.89607 0.83414 0.91045 0.0
C79 C 0.81878 0.86189 0.89965 0.0
H80 H 0.96036 0.86596 0.86428 0.0
C81 C 0.92101 0.86533 0.87435 0.0
C82 C 0.89512 0.89517 0.85085 0.0
C83 C 0.84407 0.8938 0.86426 0.0
C84 C 0.76357 0.8559 0.90965 0.0
H85 H 0.8229 0.91526 0.84528 0.0
C86 C 0.74635 0.8955 0.92748 0.0
C87 C 0.69361 0.88938 0.93704 0.0
C88 C 0.72797 0.8101 0.90159 0.0
H89 H 0.74083 0.77919 0.88785 0.0
C90 C 0.67543 0.80406 0.9107 0.0
H91 H 0.77387 0.9308 0.93399 0.0
C92 C 0.6582 0.84349 0.92827 0.0
H93 H 0.61731 0.83798 0.9357 0.0
H94 H 0.64804 0.76876 0.90429 0.0
H95 H 0.78354 0.20107 0.50267 0.0
C96 C 0.7752 0.19798 0.46446 0.0
C97 C 0.80196 0.17268 0.4342 0.0
C98 C 0.73562 0.21669 0.44689 0.0
H99 H 0.81126 0.14912 0.3614 0.0
C100 C 0.79081 0.16887 0.38465 0.0
C101 C 0.75113 0.18771 0.36582 0.0
C102 C 0.72425 0.21198 0.3976 0.0
C103 C 0.70103 0.23368 0.48137 0.0
H104 H 0.69155 0.22388 0.38489 0.0
C105 C 0.6868 0.27768 0.47531 0.0
C106 C 0.65258 0.29146 0.50813 0.0
C107 C 0.68065 0.20415 0.52047 0.0
H108 H 0.69024 0.16984 0.52564 0.0
C109 C 0.64682 0.21786 0.55277 0.0
H110 H 0.70209 0.30088 0.44541 0.0
C111 C 0.63272 0.26114 0.54662 0.0
H112 H 0.60638 0.27121 0.57217 0.0
H113 H 0.63127 0.19471 0.58256 0.0
H114 H 0.44431 0.77756 0.22475 0.0
C115 C 0.40354 0.76522 0.21555 0.0
C116 C 0.37864 0.79724 0.19383 0.0
C117 C 0.37697 0.71615 0.22241 0.0
H118 H 0.30642 0.80401 0.16451 0.0
C119 C 0.32623 0.77946 0.18024 0.0
C120 C 0.2993 0.73019 0.18672 0.0
C121 C 0.32533 0.69894 0.20772 0.0
C122 C 0.40444 0.6805 0.23816 0.0
H123 H 0.30622 0.6603 0.2109 0.0
C124 C 0.41697 0.67705 0.28681 0.0
C125 C 0.43984 0.64012 0.30105 0.0
C126 C 0.41493 0.64723 0.20394 0.0
H127 H 0.40506 0.64917 0.16649 0.0
C128 C 0.43749 0.61081 0.21776 0.0
H129 H 0.40867 0.70269 0.31323 0.0
C130 C 0.44962 0.60704 0.26584 0.0
H131 H 0.46603 0.57758 0.27554 0.0
H132 H 0.44507 0.58502 0.19117 0.0
H133 H 0.25343 0.45673 0.75515 0.0
C134 C 0.23156 0.42443 0.73547 0.0
C135 C 0.24418 0.41557 0.68734 0.0
C136 C 0.1926 0.39016 0.75955 0.0
H137 H 0.22654 0.36339 0.62764 0.0
C138 C 0.21545 0.37237 0.66347 0.0
C139 C 0.17503 0.33851 0.68658 0.0
C140 C 0.16388 0.34806 0.73472 0.0
C141 C 0.18756 0.39349 0.81242 0.0
H142 H 0.13369 0.32207 0.75371 0.0
C143 C 0.16632 0.42867 0.83524 0.0
C144 C 0.15906 0.42827 0.88554 0.0
C145 C 0.20296 0.35923 0.84023 0.0
H146 H 0.2195 0.332 0.8233 0.0
C147 C 0.19714 0.35966 0.88999 0.0
H148 H 0.15367 0.45475 0.81389 0.0
C149 C 0.17509 0.39371 0.91253 0.0
H150 H 0.17045 0.39302 0.95122 0.0
H151 H 0.20926 0.33317 0.91111 0.0
Dy152 Dy 0.05484 0.07891 0.49801 0.0
C153 C 0.97318 1.00065 0.68084 0.0
C154 C 0.09498 0.12034 0.4141 0.0
Dy155 Dy 0.99742 0.04409 0.59509 0.0
O156 O 0.08025 0.07375 0.4215 0.0
O157 O 0.08684 0.14446 0.45233 0.0
O158 O 0.10933 0.03151 0.50999 0.0
O159 O 0.07642 0.05899 0.56851 0.0
C160 C 0.10282 0.03016 0.55612 0.0
C161 C 0.93405 0.07725 0.53675 0.0
O162 O 0.0487 0.11686 0.61834 0.0
O163 O 0.07535 0.14886 0.54312 0.0
O164 O 0.97083 0.04473 0.67166 0.0
O165 O 0.98863 0.98039 0.64321 0.0
O166 O 0.92103 0.06032 0.57925 0.0
O167 O 0.97952 0.07466 0.52853 0.0
O168 O 0.99273 0.0116 0.47545 0.0
O169 O 0.98482 0.97577 0.54991 0.0
C170 C 0.07206 0.15367 0.59066 0.0
C171 C 0.97814 0.97262 0.50277 0.0
Dy172 Dy 0.56813 0.07888 0.12457 0.0
C173 C 0.40906 0.96996 0.98261 0.0
C174 C 0.64686 0.12803 0.18415 0.0
Dy175 Dy 0.47707 0.03236 0.0433 0.0
O176 O 0.6418 0.08472 0.16498 0.0
O177 O 0.60973 0.1458 0.16893 0.0
O178 O 0.54149 0.01582 0.17584 0.0
O179 O 0.50431 0.01529 0.11173 0.0
C180 C 0.50397 0.991 0.14868 0.0
C181 C 0.53801 0.12164 0.01973 0.0
O182 O 0.43331 0.05869 0.10216 0.0
O183 O 0.5033 0.11263 0.14322 0.0
O184 O 0.40772 0.01447 0.99408 0.0
O185 O 0.44583 0.95889 1.00643 0.0
O186 O 0.49913 0.09671 0.99396 0.0
O187 O 0.54138 0.09658 0.05557 0.0
O188 O 0.6123 0.05192 0.06556 0.0
O189 O 0.54245 1.00271 0.02126 0.0
C190 C 0.4528 0.09496 0.13385 0.0
C191 C 0.59253 0.0188 0.03113 0.0
Dy192 Dy 0.53236 0.5324 0.56402 0.0
C193 C 0.45221 0.68595 0.64779 0.0
C194 C 0.57703 0.46184 0.52964 0.0
Dy195 Dy 0.50428 0.6225 0.60898 0.0
O196 O 0.52838 0.46055 0.52585 0.0
O197 O 0.60164 0.50207 0.55209 0.0
O198 O 0.44744 0.49484 0.55583 0.0
O199 O 0.47278 0.54358 0.61357 0.0
C200 C 0.43323 0.51727 0.59256 0.0
C201 C 0.60328 0.63933 0.57881 0.0
O202 O 0.53029 0.59281 0.67546 0.0
O203 O 0.56132 0.53109 0.63967 0.0
O204 O 0.44889 0.64216 0.66235 0.0
O205 O 0.484 0.69529 0.61166 0.0
O206 O 0.58869 0.66389 0.61398 0.0
O207 O 0.56371 0.61112 0.55959 0.0
O208 O 0.52118 0.57207 0.49872 0.0
O209 O 0.46749 0.61464 0.53474 0.0
C210 C 0.55341 0.55692 0.6781 0.0
C211 C 0.48726 0.59845 0.49561 0.0
Dy212 Dy 0.02073 0.5207 0.09157 0.0
C213 C 0.97377 0.68606 0.99507 0.0
C214 C 0.07709 0.45533 0.10204 0.0
Dy215 Dy 1.00465 0.61205 0.03407 0.0
O216 O 0.033 0.45237 0.12386 0.0
O217 O 0.0892 0.49319 0.07499 0.0
O218 O 0.98412 0.53572 0.16217 0.0
O219 O 0.99093 0.5823 0.10459 0.0
C220 C 0.97433 0.57561 0.14699 0.0
C221 C 0.06117 0.55796 0.99109 0.0
O222 O 0.07294 0.65066 0.07865 0.0
O223 O 0.09085 0.5816 0.11094 0.0
O224 O 0.98272 0.6494 0.97086 0.0
O225 O 0.98095 0.68202 0.0407 0.0
O226 O 0.06953 0.60469 0.98474 0.0
O227 O 0.02192 0.54308 0.01729 0.0
O228 O 0.94517 0.48493 0.05583 0.0
O229 O 0.92717 0.55614 0.02725 0.0
C230 C 0.10178 0.62947 0.10452 0.0
C231 C 0.91404 0.50818 0.03526 0.0
C232 C 0.18427 0.21206 0.33559 0.0
C233 C 0.19455 0.18172 0.29807 0.0
H234 H 0.14392 0.21635 0.40153 0.0
C235 C 0.16788 0.13176 0.29698 0.0
H236 H 0.20454 0.2506 0.33781 0.0
C237 C 0.13349 0.11217 0.33372 0.0
C238 C 0.12497 0.14222 0.37207 0.0
H239 H 0.17421 0.10762 0.26812 0.0
H240 H 0.11474 0.07325 0.33281 0.0
C241 C 0.14965 0.19249 0.37217 0.0
C242 C 0.36999 0.8701 0.88641 0.0
C243 C 0.34612 0.8926 0.85212 0.0
H244 H 0.40798 0.87667 0.95485 0.0
C245 C 0.33915 0.93915 0.86359 0.0
H246 H 0.37504 0.83389 0.87953 0.0
C247 C 0.35687 0.96304 0.90735 0.0
C248 C 0.38253 0.94129 0.94052 0.0
H249 H 0.32159 0.95806 0.83808 0.0
H250 H 0.35248 0.99951 0.91424 0.0
C251 C 0.38823 0.89429 0.92995 0.0
C252 C 0.58216 0.47826 0.77736 0.0
C253 C 0.56861 0.50171 0.81864 0.0
H254 H 0.58838 0.47732 0.7006 0.0
C255 C 0.55658 0.54671 0.81355 0.0
H256 H 0.59141 0.44348 0.77994 0.0
C257 C 0.55457 0.56605 0.76813 0.0
C258 C 0.56463 0.54096 0.72648 0.0
H259 H 0.54688 0.56622 0.8447 0.0
H260 H 0.54301 0.59972 0.76566 0.0
C261 C 0.58017 0.49765 0.73179 0.0
C262 C 0.90079 0.61997 0.24756 0.0
C263 C 0.87845 0.65247 0.22377 0.0
H264 H 0.94848 0.57012 0.24171 0.0
C265 C 0.89066 0.66167 0.17503 0.0
H266 H 0.89179 0.61156 0.28485 0.0
C267 C 0.92288 0.63769 0.15033 0.0
C268 C 0.94375 0.60411 0.17373 0.0
H269 H 0.8745 0.68679 0.15567 0.0
H270 H 0.9299 0.64414 0.11255 0.0
C271 C 0.93293 0.59592 0.22273 0.0
C272 C 0.32821 0.11983 0.17872 0.0
C273 C 0.34634 0.16768 0.1977 0.0
H274 H 0.34775 0.05919 0.14333 0.0
C275 C 0.39982 0.19017 0.19842 0.0
H276 H 0.28708 0.10185 0.17763 0.0
C277 C 0.43456 0.16578 0.17923 0.0
C278 C 0.4164 0.11866 0.15833 0.0
H279 H 0.41469 0.22696 0.21324 0.0
H280 H 0.47549 0.18457 0.17938 0.0
C281 C 0.36292 0.09562 0.15888 0.0
C282 C 0.16524 0.93385 0.59985 0.0
C283 C 0.15071 0.93107 0.64839 0.0
H284 H 0.1607 0.96713 0.53231 0.0
C285 C 0.12333 0.96329 0.66722 0.0
H286 H 0.186 0.90906 0.58456 0.0
C287 C 0.10978 0.99712 0.63769 0.0
C288 C 0.1218 0.99815 0.58849 0.0
H289 H 0.11168 0.96168 0.70461 0.0
H290 H 0.08878 0.02162 0.6531 0.0
C291 C 0.15055 0.96687 0.57003 0.0
C292 C 0.78913 0.46566 0.96469 0.0
C293 C 0.76086 0.42595 0.99158 0.0
H294 H 0.85925 0.52302 0.95782 0.0
C295 C 0.78448 0.41304 0.03255 0.0
H296 H 0.77316 0.47617 0.93232 0.0
C297 C 0.8347 0.43902 0.04611 0.0
C298 C 0.86197 0.47932 0.01986 0.0
H299 H 0.76391 0.38354 0.05497 0.0
H300 H 0.85159 0.42845 0.07799 0.0
C301 C 0.83875 0.4924 0.97906 0.0
C302 C 0.72034 0.72726 0.52468 0.0
C303 C 0.73498 0.69801 0.48824 0.0
H304 H 0.66858 0.73139 0.58269 0.0
C305 C 0.70807 0.64799 0.48508 0.0
H306 H 0.73876 0.76611 0.528 0.0
C307 C 0.66646 0.62854 0.51577 0.0
C308 C 0.65157 0.65818 0.55127 0.0
H309 H 0.71855 0.62378 0.45848 0.0
H310 H 0.64523 0.59045 0.51109 0.0
C311 C 0.67969 0.70744 0.55615 0.0
C312 C 0.15216 0.3817 0.16739 0.0
C313 C 0.19696 0.38976 0.13868 0.0
H314 H 0.07791 0.39596 0.17792 0.0
C315 C 0.1981 0.4132 0.09481 0.0
H316 H 0.15031 0.36362 0.20139 0.0
C317 C 0.15688 0.43129 0.08144 0.0
C318 C 0.11375 0.42637 0.11171 0.0
H319 H 0.23158 0.41884 0.07146 0.0
H320 H 0.15985 0.45112 0.04834 0.0
C321 C 0.11072 0.39996 0.15396 0.0
C322 C 0.62477 0.25179 0.03142 0.0
C323 C 0.61459 0.27101 0.98742 0.0
H324 H 0.60849 0.18894 0.07664 0.0
C325 C 0.58242 0.23963 0.95376 0.0
H326 H 0.64932 0.27514 0.05818 0.0
C327 C 0.5593 0.19094 0.96436 0.0
C328 C 0.56771 0.17209 1.00885 0.0
H329 H 0.57463 0.25286 0.91921 0.0
H330 H 0.53389 0.16818 0.93776 0.0
C331 C 0.60142 0.2026 0.04209 0.0
C332 C 0.91753 0.83616 0.49132 0.0
C333 C 0.89265 0.83143 0.44653 0.0
H334 H 0.96406 0.8841 0.54387 0.0
C335 C 0.90032 0.87302 0.41799 0.0
H336 H 0.91318 0.80471 0.51379 0.0
C337 C 0.92985 0.91888 0.4352 0.0
C338 C 0.952 0.92393 0.48132 0.0
H339 H 0.88135 0.87061 0.38342 0.0
H340 H 0.93341 0.9506 0.41329 0.0
C341 C 0.94668 0.88179 0.50854 0.0
C342 C 0.3899 0.79099 0.66595 0.0
C343 C 0.3707 0.78345 0.71304 0.0
H344 H 0.43192 0.76658 0.6086 0.0
C345 C 0.37875 0.74389 0.73833 0.0
H346 H 0.38424 0.82127 0.64574 0.0
C347 C 0.40483 0.71211 0.71681 0.0
C348 C 0.42456 0.71987 0.66996 0.0
H349 H 0.3641 0.73711 0.77456 0.0
H350 H 0.40998 0.68165 0.73707 0.0
C351 C 0.41723 0.75984 0.64482 0.0
C352 C 0.91465 0.97199 0.80364 0.0
C353 C 0.91941 0.9243 0.80947 0.0
H354 H 0.92861 0.03394 0.75818 0.0
C355 C 0.94486 0.90329 0.77392 0.0
H356 H 0.89562 0.98918 0.83073 0.0
C357 C 0.96363 0.9288 0.73261 0.0
C358 C 0.95738 0.97578 0.72619 0.0
H359 H 0.94857 0.86638 0.77716 0.0
H360 H 0.98198 0.9113 0.70522 0.0
C361 C 0.93366 0.99761 0.76235 0.0
C362 C 0.73223 0.13138 0.29241 0.0
C363 C 0.73253 0.17654 0.31493 0.0
H364 H 0.70605 0.08143 0.23317 0.0
C365 C 0.70975 0.20842 0.2902 0.0
H366 H 0.7484 0.10525 0.31006 0.0
C367 C 0.68401 0.19394 0.24629 0.0
C368 C 0.68145 0.14772 0.22552 0.0
H369 H 0.71017 0.24402 0.30553 0.0
H370 H 0.66458 0.2182 0.22951 0.0
C371 C 0.70745 0.11741 0.24818 0.0
C372 C 0.41958 0.63861 0.39016 0.0
C373 C 0.45338 0.6348 0.35213 0.0
H374 H 0.40352 0.62998 0.46579 0.0
C375 C 0.49943 0.62237 0.36271 0.0
H376 H 0.38369 0.64797 0.38321 0.0
C377 C 0.51018 0.61136 0.40932 0.0
C378 C 0.47559 0.61308 0.44708 0.0
H379 H 0.52706 0.62036 0.33465 0.0
H380 H 0.54578 0.60119 0.41562 0.0
C381 C 0.43072 0.62802 0.43735 0.0
C382 C 0.09192 0.44314 0.94227 0.0
C383 C 0.13288 0.46199 0.91045 0.0
H384 H 0.03669 0.45855 0.99188 0.0
C385 C 0.1497 0.51285 0.90458 0.0
H386 H 0.07784 0.40404 0.94714 0.0
C387 C 0.12676 0.5443 0.9311 0.0
C388 C 0.08621 0.5253 0.96337 0.0
H389 H 0.18136 0.52828 0.88042 0.0
H390 H 0.14082 0.58342 0.92646 0.0
C391 C 0.06852 0.47437 0.96804 0.0
C392 C 0.63273 0.94155 0.93516 0.0
C393 C 0.67492 0.93023 0.95688 0.0
H394 H 0.57476 0.9802 0.94114 0.0
C395 C 0.69559 0.95485 0.99979 0.0
H396 H 0.61683 0.92366 0.90162 0.0
C397 C 0.67132 0.98731 0.02282 0.0
C398 C 0.62634 0.99531 1.00291 0.0
H399 H 0.72833 0.94661 0.01702 0.0
H400 H 0.6855 1.00328 0.05755 0.0
C401 C 0.60883 0.97396 0.95781 0.0
C402 C 0.88652 0.14807 0.4399 0.0
C403 C 0.83597 0.1452 0.45644 0.0
H404 H 0.95807 0.12884 0.45249 0.0
C405 C 0.81765 0.11682 0.49668 0.0
H406 H 0.90161 0.1695 0.40886 0.0
C407 C 0.84947 0.09399 0.52128 0.0
C408 C 0.90064 0.09846 0.50638 0.0
H409 H 0.77856 0.11281 0.50974 0.0
H410 H 0.83405 0.07341 0.55277 0.0
C411 C 0.91877 0.12493 0.46483 0.0
C412 C 0.2108 0.67208 0.19342 0.0
C413 C 0.24541 0.70975 0.16866 0.0
H414 H 0.13852 0.61695 0.1921 0.0
C415 C 0.22956 0.72433 0.12456 0.0
H416 H 0.22092 0.66081 0.22808 0.0
C417 C 0.18141 0.69993 0.1046 0.0
C418 C 0.1489 0.66004 0.12796 0.0
H419 H 0.25527 0.75288 0.10424 0.0
H420 H 0.17091 0.7105 0.06976 0.0
C421 C 0.16345 0.64708 0.17298 0.0
C422 C 0.33511 0.47179 0.69018 0.0
C423 C 0.29051 0.44812 0.66341 0.0
H424 H 0.41473 0.51318 0.68875 0.0
C425 C 0.29234 0.45251 0.61302 0.0
H426 H 0.3361 0.46892 0.72881 0.0
C427 C 0.33836 0.47646 0.59 0.0
C428 C 0.38309 0.49806 0.61684 0.0
H429 H 0.25861 0.43629 0.59104 0.0
H430 H 0.33927 0.47728 0.55111 0.0
C431 C 0.38061 0.497 0.66718 0.0
C432 C 0.94103 0.76803 0.90324 0.0
C433 C 0.92113 0.79978 0.93247 0.0
H434 H 0.97284 0.70633 0.9005 0.0
C435 C 0.92099 0.79546 0.98258 0.0
H436 H 0.94092 0.77046 0.86447 0.0
C437 C 0.9394 0.75906 1.00314 0.0
C438 C 0.95744 0.72617 0.97377 0.0
H439 H 0.90579 0.8197 1.00568 0.0
H440 H 0.93821 0.75584 0.04185 0.0
C441 C 0.95878 0.73122 0.92377 0.0
C442 C 0.40096 0.86975 0.13942 0.0
C443 C 0.40818 0.84832 0.18309 0.0
H444 H 0.42514 0.93212 0.09443 0.0
C445 C 0.44533 0.87548 0.21573 0.0
H446 H 0.37304 0.84976 0.11317 0.0
C447 C 0.47551 0.9221 0.20449 0.0
C448 C 0.46917 0.9429 0.16048 0.0
H449 H 0.45133 0.86062 0.25 0.0
H450 H 0.50435 0.94168 0.23021 0.0
C451 C 0.43107 0.91672 0.12834 0.0
C452 C 0.13317 0.24772 0.68726 0.0
C453 C 0.14743 0.29144 0.66172 0.0
H454 H 0.09833 0.17061 0.68516 0.0
C455 C 0.13634 0.28936 0.61215 0.0
H456 H 0.14213 0.24732 0.72509 0.0
C457 C 0.11205 0.24475 0.58883 0.0
C458 C 0.09766 0.20129 0.61466 0.0
H459 H 0.14616 0.32227 0.59133 0.0
H460 H 0.10414 0.24441 0.5507 0.0
C461 C 0.10831 0.20343 0.66417 0.0
C462 C 0.5845 0.33447 0.49398 0.0
C463 C 0.63657 0.33717 0.5036 0.0
H464 H 0.52513 0.37223 0.4939 0.0
C465 C 0.67044 0.38248 0.51712 0.0
H466 H 0.55763 0.29972 0.48407 0.0
C467 C 0.65172 0.42396 0.52355 0.0
C468 C 0.59895 0.42063 0.51626 0.0
H469 H 0.71058 0.38512 0.52544 0.0
H470 H 0.67799 0.45803 0.53616 0.0
C471 C 0.56594 0.3759 0.49987 0.0
loop_
_geom_bond_atom_site_label_1
_geom_bond_atom_site_label_2
_geom_bond_distance
_geom_bond_site_symmetry_2
_ccdc_geom_bond_type
H0 C1 0.949 . S
C1 H0 0.949 . S
C1 C2 1.395 . S
C1 C3 1.391 . S
C2 C1 1.395 . S
C2 C5 1.390 . S
C3 C1 1.391 . S
C3 C7 1.387 . S
C3 C8 1.491 . S
H4 C5 0.950 . S
C5 C2 1.390 . S
C5 H4 0.950 . S
C5 C6 1.378 . S
C6 C5 1.378 . S
C6 C7 1.409 . S
C7 C3 1.387 . S
C7 C6 1.409 . S
C7 H9 0.951 . S
C8 C3 1.491 . S
C8 C10 1.382 . S
C8 C12 1.404 . S
H9 C7 0.951 . S
C10 C8 1.382 . S
C10 C11 1.390 . S
C10 H15 0.949 . S
C11 C10 1.390 . S
C11 C16 1.399 . S
C12 C8 1.404 . S
C12 H13 0.950 . S
C12 C14 1.375 . S
H13 C12 0.950 . S
C14 C12 1.375 . S
C14 C16 1.382 . S
C14 H18 0.950 . S
H15 C10 0.949 . S
C16 C11 1.399 . S
C16 C14 1.382 . S
C16 H17 0.952 . S
H17 C16 0.952 . S
H18 C14 0.950 . S
H19 C20 0.949 . S
C20 H19 0.949 . S
C20 C21 1.395 . S
C20 C22 1.391 . S
C21 C20 1.395 . S
C21 C24 1.390 . S
C22 C20 1.391 . S
C22 C26 1.387 . S
C22 C27 1.491 . S
H23 C24 0.950 . S
C24 C21 1.390 . S
C24 H23 0.950 . S
C24 C25 1.378 . S
C25 C24 1.378 . S
C25 C26 1.409 . S
C26 C22 1.387 . S
C26 C25 1.409 . S
C26 H28 0.951 . S
C27 C22 1.491 . S
C27 C29 1.382 . S
C27 C31 1.404 . S
H28 C26 0.951 . S
C29 C27 1.382 . S
C29 C30 1.390 . S
C29 H34 0.949 . S
C30 C29 1.390 . S
C30 C35 1.399 . S
C31 C27 1.404 . S
C31 H32 0.950 . S
C31 C33 1.375 . S
H32 C31 0.950 . S
C33 C31 1.375 . S
C33 C35 1.382 . S
C33 H37 0.950 . S
H34 C29 0.949 . S
C35 C30 1.399 . S
C35 C33 1.382 . S
C35 H36 0.952 . S
H36 C35 0.952 . S
H37 C33 0.950 . S
H38 C39 0.949 . S
C39 H38 0.949 . S
C39 C40 1.395 . S
C39 C41 1.391 . S
C40 C39 1.395 . S
C40 C43 1.390 . S
C41 C39 1.391 . S
C41 C45 1.387 . S
C41 C46 1.491 . S
H42 C43 0.950 . S
C43 C40 1.390 . S
C43 H42 0.950 . S
C43 C44 1.378 . S
C44 C43 1.378 . S
C44 C45 1.409 . S
C45 C41 1.387 . S
C45 C44 1.409 . S
C45 H47 0.951 . S
C46 C41 1.491 . S
C46 C48 1.382 . S
C46 C50 1.404 . S
H47 C45 0.951 . S
C48 C46 1.382 . S
C48 C49 1.390 . S
C48 H53 0.949 . S
C49 C48 1.390 . S
C49 C54 1.399 . S
C50 C46 1.404 . S
C50 H51 0.950 . S
C50 C52 1.375 . S
H51 C50 0.950 . S
C52 C50 1.375 . S
C52 C54 1.382 . S
C52 H56 0.950 . S
H53 C48 0.949 . S
C54 C49 1.399 . S
C54 C52 1.382 . S
C54 H55 0.952 . S
H55 C54 0.952 . S
H56 C52 0.950 . S
H57 C58 0.949 . S
C58 H57 0.949 . S
C58 C59 1.395 . S
C58 C60 1.391 . S
C59 C58 1.395 . S
C59 C62 1.390 . S
C60 C58 1.391 . S
C60 C64 1.387 . S
C60 C65 1.491 . S
H61 C62 0.950 . S
C62 C59 1.390 . S
C62 H61 0.950 . S
C62 C63 1.378 . S
C63 C62 1.378 . S
C63 C64 1.409 . S
C64 C60 1.387 . S
C64 C63 1.409 . S
C64 H66 0.951 . S
C65 C60 1.491 . S
C65 C67 1.382 . S
C65 C69 1.404 . S
H66 C64 0.951 . S
C67 C65 1.382 . S
C67 C68 1.390 . S
C67 H72 0.949 . S
C68 C67 1.390 . S
C68 C73 1.399 . S
C69 C65 1.404 . S
C69 H70 0.950 . S
C69 C71 1.375 . S
H70 C69 0.950 . S
C71 C69 1.375 . S
C71 C73 1.382 . S
C71 H75 0.950 . S
H72 C67 0.949 . S
C73 C68 1.399 . S
C73 C71 1.382 . S
C73 H74 0.952 . S
H74 C73 0.952 . S
H75 C71 0.950 . S
H76 C77 0.949 . S
C77 H76 0.949 . S
C77 C78 1.395 . S
C77 C79 1.391 . S
C78 C77 1.395 . S
C78 C81 1.390 . S
C79 C77 1.391 . S
C79 C83 1.387 . S
C79 C84 1.491 . S
H80 C81 0.950 . S
C81 C78 1.390 . S
C81 H80 0.950 . S
C81 C82 1.378 . S
C82 C81 1.378 . S
C82 C83 1.409 . S
C83 C79 1.387 . S
C83 C82 1.409 . S
C83 H85 0.951 . S
C84 C79 1.491 . S
C84 C86 1.382 . S
C84 C88 1.404 . S
H85 C83 0.951 . S
C86 C84 1.382 . S
C86 C87 1.390 . S
C86 H91 0.949 . S
C87 C86 1.390 . S
C87 C92 1.399 . S
C88 C84 1.404 . S
C88 H89 0.950 . S
C88 C90 1.375 . S
H89 C88 0.950 . S
C90 C88 1.375 . S
C90 C92 1.382 . S
C90 H94 0.950 . S
H91 C86 0.949 . S
C92 C87 1.399 . S
C92 C90 1.382 . S
C92 H93 0.952 . S
H93 C92 0.952 . S
H94 C90 0.950 . S
H95 C96 0.949 . S
C96 H95 0.949 . S
C96 C97 1.395 . S
C96 C98 1.391 . S
C97 C96 1.395 . S
C97 C100 1.390 . S
C98 C96 1.391 . S
C98 C102 1.387 . S
C98 C103 1.491 . S
H99 C100 0.950 . S
C100 C97 1.390 . S
C100 H99 0.950 . S
C100 C101 1.378 . S
C101 C100 1.378 . S
C101 C102 1.409 . S
C102 C98 1.387 . S
C102 C101 1.409 . S
C102 H104 0.951 . S
C103 C98 1.491 . S
C103 C105 1.382 . S
C103 C107 1.404 . S
H104 C102 0.951 . S
C105 C103 1.382 . S
C105 C106 1.390 . S
C105 H110 0.949 . S
C106 C105 1.390 . S
C106 C111 1.399 . S
C107 C103 1.404 . S
C107 H108 0.950 . S
C107 C109 1.375 . S
H108 C107 0.950 . S
C109 C107 1.375 . S
C109 C111 1.382 . S
C109 H113 0.950 . S
H110 C105 0.949 . S
C111 C106 1.399 . S
C111 C109 1.382 . S
C111 H112 0.952 . S
H112 C111 0.952 . S
H113 C109 0.950 . S
H114 C115 0.949 . S
C115 H114 0.949 . S
C115 C116 1.395 . S
C115 C117 1.391 . S
C116 C115 1.395 . S
C116 C119 1.390 . S
C117 C115 1.391 . S
C117 C121 1.387 . S
C117 C122 1.491 . S
H118 C119 0.950 . S
C119 C116 1.390 . S
C119 H118 0.950 . S
C119 C120 1.378 . S
C120 C119 1.378 . S
C120 C121 1.409 . S
C121 C117 1.387 . S
C121 C120 1.409 . S
C121 H123 0.951 . S
C122 C117 1.491 . S
C122 C124 1.382 . S
C122 C126 1.404 . S
H123 C121 0.951 . S
C124 C122 1.382 . S
C124 C125 1.390 . S
C124 H129 0.949 . S
C125 C124 1.390 . S
C125 C130 1.399 . S
C126 C122 1.404 . S
C126 H127 0.950 . S
C126 C128 1.375 . S
H127 C126 0.950 . S
C128 C126 1.375 . S
C128 C130 1.382 . S
C128 H132 0.950 . S
H129 C124 0.949 . S
C130 C125 1.399 . S
C130 C128 1.382 . S
C130 H131 0.952 . S
H131 C130 0.952 . S
H132 C128 0.950 . S
H133 C134 0.949 . S
C134 H133 0.949 . S
C134 C135 1.395 . S
C134 C136 1.391 . S
C135 C134 1.395 . S
C135 C138 1.390 . S
C136 C134 1.391 . S
C136 C140 1.387 . S
C136 C141 1.491 . S
H137 C138 0.950 . S
C138 C135 1.390 . S
C138 H137 0.950 . S
C138 C139 1.378 . S
C139 C138 1.378 . S
C139 C140 1.409 . S
C140 C136 1.387 . S
C140 C139 1.409 . S
C140 H142 0.951 . S
C141 C136 1.491 . S
C141 C143 1.382 . S
C141 C145 1.404 . S
H142 C140 0.951 . S
C143 C141 1.382 . S
C143 C144 1.390 . S
C143 H148 0.949 . S
C144 C143 1.390 . S
C144 C149 1.399 . S
C145 C141 1.404 . S
C145 H146 0.950 . S
C145 C147 1.375 . S
H146 C145 0.950 . S
C147 C145 1.375 . S
C147 C149 1.382 . S
C147 H151 0.950 . S
H148 C143 0.949 . S
C149 C144 1.399 . S
C149 C147 1.382 . S
C149 H150 0.952 . S
H150 C149 0.952 . S
H151 C147 0.950 . S
Dy152 O156 2.398 . S
Dy152 O157 2.491 . S
Dy152 O158 2.403 . S
Dy152 O159 2.664 . S
Dy152 O163 2.326 . S
Dy152 O167 2.310 1_455 S
Dy152 O168 2.351 1_445 S
C153 O164 1.185 . S
C153 O165 1.355 . S
C154 O156 1.185 . S
C154 O157 1.355 . S
Dy155 O159 2.310 1_655 S
Dy155 O162 2.351 1_655 S
Dy155 O164 2.398 1_545 S
Dy155 O165 2.491 1_545 S
Dy155 O166 2.403 . S
Dy155 O167 2.664 . S
Dy155 O169 2.326 1_545 S
O156 Dy152 2.398 . S
O156 C154 1.185 . S
O157 Dy152 2.491 . S
O157 C154 1.355 . S
O158 Dy152 2.403 . S
O158 C160 1.254 . S
O159 Dy152 2.664 . S
O159 Dy155 2.310 1_455 S
O159 C160 1.268 . S
C160 O158 1.254 . S
C160 O159 1.268 . S
C161 O166 1.254 . S
C161 O167 1.268 . S
O162 Dy155 2.351 1_455 S
O162 C170 1.249 . S
O163 Dy152 2.326 . S
O163 C170 1.267 . S
O164 C153 1.185 . S
O164 Dy155 2.398 1_565 S
O165 C153 1.355 . S
O165 Dy155 2.491 1_565 S
O166 Dy155 2.403 . S
O166 C161 1.254 . S
O167 Dy152 2.310 1_655 S
O167 Dy155 2.664 . S
O167 C161 1.268 . S
O168 Dy152 2.351 1_665 S
O168 C171 1.249 . S
O169 Dy155 2.326 1_565 S
O169 C171 1.267 . S
C170 O162 1.249 . S
C170 O163 1.267 . S
C171 O168 1.249 . S
C171 O169 1.267 . S
Dy172 O176 2.398 . S
Dy172 O177 2.491 . S
Dy172 O178 2.403 1_545 S
Dy172 O179 2.664 1_545 S
Dy172 O183 2.326 . S
Dy172 O187 2.310 . S
Dy172 O188 2.351 1_545 S
C173 O184 1.185 1_565 S
C173 O185 1.355 . S
C174 O176 1.185 . S
C174 O177 1.355 . S
Dy175 O179 2.310 1_545 S
Dy175 O182 2.351 . S
Dy175 O184 2.398 1_554 S
Dy175 O185 2.491 1_544 S
Dy175 O186 2.403 . S
Dy175 O187 2.664 . S
Dy175 O189 2.337 . S
O176 Dy172 2.398 . S
O176 C174 1.185 . S
O177 Dy172 2.491 . S
O177 C174 1.355 . S
O178 Dy172 2.403 1_565 S
O178 C180 1.254 . S
O179 Dy172 2.664 1_565 S
O179 Dy175 2.310 1_565 S
O179 C180 1.268 . S
C180 O178 1.254 . S
C180 O179 1.268 . S
C181 O186 1.254 . S
C181 O187 1.268 . S
O182 Dy175 2.351 . S
O182 C190 1.249 . S
O183 Dy172 2.326 . S
O183 C190 1.267 . S
O184 C173 1.185 1_545 S
O184 Dy175 2.398 1_556 S
O185 C173 1.355 . S
O185 Dy175 2.491 1_566 S
O186 Dy175 2.403 . S
O186 C181 1.254 . S
O187 Dy172 2.310 . S
O187 Dy175 2.664 . S
O187 C181 1.268 . S
O188 Dy172 2.351 1_565 S
O188 C191 1.249 . S
O189 Dy175 2.337 . S
O189 C191 1.254 1_545 S
C190 O182 1.249 . S
C190 O183 1.267 . S
C191 O188 1.249 . S
C191 O189 1.254 1_565 S
Dy192 O196 2.398 . S
Dy192 O197 2.491 . S
Dy192 O198 2.403 . S
Dy192 O199 2.664 . S
Dy192 O203 2.326 . S
Dy192 O207 2.310 . S
Dy192 O208 2.351 . S
C193 O204 1.185 . S
C193 O205 1.355 . S
C194 O196 1.185 . S
C194 O197 1.355 . S
Dy195 O199 2.310 . S
Dy195 O202 2.351 . S
Dy195 O204 2.398 . S
Dy195 O205 2.491 . S
Dy195 O206 2.403 . S
Dy195 O207 2.664 . S
Dy195 O209 2.326 . S
O196 Dy192 2.398 . S
O196 C194 1.185 . S
O197 Dy192 2.491 . S
O197 C194 1.355 . S
O198 Dy192 2.403 . S
O198 C200 1.254 . S
O199 Dy192 2.664 . S
O199 Dy195 2.310 . S
O199 C200 1.268 . S
C200 O198 1.254 . S
C200 O199 1.268 . S
C201 O206 1.254 . S
C201 O207 1.268 . S
O202 Dy195 2.351 . S
O202 C210 1.249 . S
O203 Dy192 2.326 . S
O203 C210 1.267 . S
O204 C193 1.185 . S
O204 Dy195 2.398 . S
O205 C193 1.355 . S
O205 Dy195 2.491 . S
O206 Dy195 2.403 . S
O206 C201 1.254 . S
O207 Dy192 2.310 . S
O207 Dy195 2.664 . S
O207 C201 1.268 . S
O208 Dy192 2.351 . S
O208 C211 1.249 . S
O209 Dy195 2.326 . S
O209 C211 1.267 . S
C210 O202 1.249 . S
C210 O203 1.267 . S
C211 O208 1.249 . S
C211 O209 1.267 . S
Dy212 O216 2.398 . S
Dy212 O217 2.491 . S
Dy212 O218 2.403 1_455 S
Dy212 O219 2.664 1_455 S
Dy212 O223 2.326 . S
Dy212 O227 2.310 1_554 S
Dy212 O228 2.351 1_455 S
C213 O224 1.185 . S
C213 O225 1.355 . S
C214 O216 1.185 . S
C214 O217 1.355 . S
Dy215 O219 2.310 1_456 S
Dy215 O222 2.351 1_556 S
Dy215 O224 2.398 1_455 S
Dy215 O225 2.491 1_455 S
Dy215 O226 2.403 . S
Dy215 O227 2.664 . S
Dy215 O229 2.326 1_455 S
O216 Dy212 2.398 . S
O216 C214 1.185 . S
O217 Dy212 2.491 . S
O217 C214 1.355 . S
O218 Dy212 2.403 1_655 S
O218 C220 1.254 . S
O219 Dy212 2.664 1_655 S
O219 Dy215 2.310 1_654 S
O219 C220 1.268 . S
C220 O218 1.254 . S
C220 O219 1.268 . S
C221 O226 1.254 . S
C221 O227 1.268 . S
O222 Dy215 2.351 1_554 S
O222 C230 1.249 . S
O223 Dy212 2.326 . S
O223 C230 1.267 . S
O224 C213 1.185 . S
O224 Dy215 2.398 1_655 S
O225 C213 1.355 . S
O225 Dy215 2.491 1_655 S
O226 Dy215 2.403 . S
O226 C221 1.254 . S
O227 Dy212 2.310 1_556 S
O227 Dy215 2.664 . S
O227 C221 1.268 . S
O228 Dy212 2.351 1_655 S
O228 C231 1.249 1_554 S
O229 Dy215 2.326 1_655 S
O229 C231 1.267 . S
C230 O222 1.249 . S
C230 O223 1.267 . S
C231 O228 1.249 1_556 S
C231 O229 1.267 . S
C232 C233 1.387 . S
C232 H236 0.950 . S
C232 C241 1.390 . S
C233 C232 1.387 . S
C233 C235 1.387 . S
H234 C241 0.950 . S
C235 C233 1.387 . S
C235 C237 1.390 . S
C235 H239 0.950 . S
H236 C232 0.950 . S
C237 C235 1.390 . S
C237 C238 1.387 . S
C237 H240 0.950 . S
C238 C237 1.387 . S
C238 C241 1.387 . S
H239 C235 0.950 . S
H240 C237 0.950 . S
C241 C232 1.390 . S
C241 H234 0.950 . S
C241 C238 1.387 . S
C242 C243 1.387 . S
C242 H246 0.950 . S
C242 C251 1.390 . S
C243 C242 1.387 . S
C243 C245 1.387 . S
H244 C251 0.950 . S
C245 C243 1.387 . S
C245 C247 1.390 . S
C245 H249 0.956 . S
H246 C242 0.950 . S
C247 C245 1.390 . S
C247 C248 1.387 . S
C247 H250 0.950 1_565 S
C248 C247 1.387 . S
C248 C251 1.387 . S
H249 C245 0.956 . S
H250 C247 0.950 1_545 S
C251 C242 1.390 . S
C251 H244 0.950 . S
C251 C248 1.387 . S
C252 C253 1.387 . S
C252 H256 0.950 . S
C252 C261 1.390 . S
C253 C252 1.387 . S
C253 C255 1.387 . S
H254 C261 0.950 . S
C255 C253 1.387 . S
C255 C257 1.390 . S
C255 H259 0.950 . S
H256 C252 0.950 . S
C257 C255 1.390 . S
C257 C258 1.387 . S
C257 H260 0.950 . S
C258 C257 1.387 . S
C258 C261 1.387 . S
H259 C255 0.950 . S
H260 C257 0.950 . S
C261 C252 1.390 . S
C261 H254 0.950 . S
C261 C258 1.387 . S
C262 C263 1.387 . S
C262 H266 0.950 . S
C262 C271 1.390 . S
C263 C262 1.387 . S
C263 C265 1.387 . S
H264 C271 0.950 . S
C265 C263 1.387 . S
C265 C267 1.390 . S
C265 H269 0.950 . S
H266 C262 0.950 . S
C267 C265 1.390 . S
C267 C268 1.387 . S
C267 H270 0.950 . S
C268 C267 1.387 . S
C268 C271 1.387 . S
H269 C265 0.950 . S
H270 C267 0.950 . S
C271 C262 1.390 . S
C271 H264 0.950 . S
C271 C268 1.387 . S
C272 C273 1.387 . S
C272 H276 0.950 . S
C272 C281 1.390 . S
C273 C272 1.387 . S
C273 C275 1.387 . S
H274 C281 0.950 . S
C275 C273 1.387 . S
C275 C277 1.390 . S
C275 H279 0.950 . S
H276 C272 0.950 . S
C277 C275 1.390 . S
C277 C278 1.387 . S
C277 H280 0.950 . S
C278 C277 1.387 . S
C278 C281 1.387 . S
H279 C275 0.950 . S
H280 C277 0.950 . S
C281 C272 1.390 . S
C281 H274 0.950 . S
C281 C278 1.387 . S
C282 C283 1.387 . S
C282 H286 0.950 . S
C282 C291 1.390 . S
C283 C282 1.387 . S
C283 C285 1.387 . S
H284 C291 0.950 . S
C285 C283 1.387 . S
C285 C287 1.390 . S
C285 H289 0.950 . S
H286 C282 0.950 . S
C287 C285 1.390 . S
C287 C288 1.387 . S
C287 H290 0.950 1_565 S
C288 C287 1.387 . S
C288 C291 1.387 . S
H289 C285 0.950 . S
H290 C287 0.950 1_545 S
C291 C282 1.390 . S
C291 H284 0.950 . S
C291 C288 1.387 . S
C292 C293 1.387 . S
C292 H296 0.950 . S
C292 C301 1.390 . S
C293 C292 1.387 . S
C293 C295 1.387 1_556 S
H294 C301 0.950 . S
C295 C293 1.387 1_554 S
C295 C297 1.390 . S
C295 H299 0.950 . S
H296 C292 0.950 . S
C297 C295 1.390 . S
C297 C298 1.387 1_554 S
C297 H300 0.950 . S
C298 C297 1.387 1_556 S
C298 C301 1.387 . S
H299 C295 0.950 . S
H300 C297 0.950 . S
C301 C292 1.390 . S
C301 H294 0.950 . S
C301 C298 1.387 . S
C302 C303 1.387 . S
C302 H306 0.950 . S
C302 C311 1.390 . S
C303 C302 1.387 . S
C303 C305 1.387 . S
H304 C311 0.950 . S
C305 C303 1.387 . S
C305 C307 1.390 . S
C305 H309 0.950 . S
H306 C302 0.950 . S
C307 C305 1.390 . S
C307 C308 1.387 . S
C307 H310 0.950 . S
C308 C307 1.387 . S
C308 C311 1.387 . S
H309 C305 0.950 . S
H310 C307 0.950 . S
C311 C302 1.390 . S
C311 H304 0.950 . S
C311 C308 1.387 . S
C312 C313 1.387 . S
C312 H316 0.950 . S
C312 C321 1.390 . S
C313 C312 1.387 . S
C313 C315 1.387 . S
H314 C321 0.950 . S
C315 C313 1.387 . S
C315 C317 1.390 . S
C315 H319 0.950 . S
H316 C312 0.950 . S
C317 C315 1.390 . S
C317 C318 1.387 . S
C317 H320 0.950 . S
C318 C317 1.387 . S
C318 C321 1.387 . S
H319 C315 0.950 . S
H320 C317 0.950 . S
C321 C312 1.390 . S
C321 H314 0.950 . S
C321 C318 1.387 . S
C322 C323 1.387 1_554 S
C322 H326 0.950 . S
C322 C331 1.390 . S
C323 C322 1.387 1_556 S
C323 C325 1.387 . S
H324 C331 0.950 . S
C325 C323 1.387 . S
C325 C327 1.390 . S
C325 H329 0.950 . S
H326 C322 0.950 . S
C327 C325 1.390 . S
C327 C328 1.387 1_556 S
C327 H330 0.950 . S
C328 C327 1.387 1_554 S
C328 C331 1.387 . S
H329 C325 0.950 . S
H330 C327 0.950 . S
C331 C322 1.390 . S
C331 H324 0.950 . S
C331 C328 1.387 . S
C332 C333 1.387 . S
C332 H336 0.950 . S
C332 C341 1.390 . S
C333 C332 1.387 . S
C333 C335 1.387 . S
H334 C341 0.950 . S
C335 C333 1.387 . S
C335 C337 1.390 . S
C335 H339 0.950 . S
H336 C332 0.950 . S
C337 C335 1.390 . S
C337 C338 1.387 . S
C337 H340 0.950 . S
C338 C337 1.387 . S
C338 C341 1.387 . S
H339 C335 0.950 . S
H340 C337 0.950 . S
C341 C332 1.390 . S
C341 H334 0.950 . S
C341 C338 1.387 . S
C342 C343 1.387 . S
C342 H346 0.950 . S
C342 C351 1.390 . S
C343 C342 1.387 . S
C343 C345 1.387 . S
H344 C351 0.950 . S
C345 C343 1.387 . S
C345 C347 1.390 . S
C345 H349 0.950 . S
H346 C342 0.950 . S
C347 C345 1.390 . S
C347 C348 1.387 . S
C347 H350 0.950 . S
C348 C347 1.387 . S
C348 C351 1.387 . S
H349 C345 0.950 . S
H350 C347 0.950 . S
C351 C342 1.390 . S
C351 H344 0.950 . S
C351 C348 1.387 . S
C352 C353 1.387 . S
C352 H356 0.950 . S
C352 C361 1.390 . S
C353 C352 1.387 . S
C353 C355 1.387 . S
H354 C361 0.950 . S
C355 C353 1.387 . S
C355 C357 1.390 . S
C355 H359 0.950 . S
H356 C352 0.950 . S
C357 C355 1.390 . S
C357 C358 1.387 . S
C357 H360 0.950 . S
C358 C357 1.387 . S
C358 C361 1.387 . S
H359 C355 0.950 . S
H360 C357 0.950 . S
C361 C352 1.390 . S
C361 H354 0.950 . S
C361 C358 1.387 . S
C362 C363 1.387 . S
C362 H366 0.950 . S
C362 C371 1.390 . S
C363 C362 1.387 . S
C363 C365 1.387 . S
H364 C371 0.950 . S
C365 C363 1.387 . S
C365 C367 1.390 . S
C365 H369 0.950 . S
H366 C362 0.950 . S
C367 C365 1.390 . S
C367 C368 1.387 . S
C367 H370 0.950 . S
C368 C367 1.387 . S
C368 C371 1.387 . S
H369 C365 0.950 . S
H370 C367 0.950 . S
C371 C362 1.390 . S
C371 H364 0.950 . S
C371 C368 1.387 . S
C372 C373 1.387 . S
C372 H376 0.950 . S
C372 C381 1.390 . S
C373 C372 1.387 . S
C373 C375 1.387 . S
H374 C381 0.950 . S
C375 C373 1.387 . S
C375 C377 1.390 . S
C375 H379 0.950 . S
H376 C372 0.950 . S
C377 C375 1.390 . S
C377 C378 1.387 . S
C377 H380 0.950 . S
C378 C377 1.387 . S
C378 C381 1.387 . S
H379 C375 0.950 . S
H380 C377 0.950 . S
C381 C372 1.390 . S
C381 H374 0.950 . S
C381 C378 1.387 . S
C382 C383 1.387 . S
C382 H386 0.950 . S
C382 C391 1.390 . S
C383 C382 1.387 . S
C383 C385 1.387 . S
H384 C391 0.950 . S
C385 C383 1.387 . S
C385 C387 1.390 . S
C385 H389 0.950 . S
H386 C382 0.950 . S
C387 C385 1.390 . S
C387 C388 1.387 . S
C387 H390 0.950 . S
C388 C387 1.387 . S
C388 C391 1.387 . S
H389 C385 0.950 . S
H390 C387 0.950 . S
C391 C382 1.390 . S
C391 H384 0.950 . S
C391 C388 1.387 . S
C392 C393 1.387 . S
C392 H396 0.950 . S
C392 C401 1.390 . S
C393 C392 1.387 . S
C393 C395 1.387 . S
H394 C401 0.950 . S
C395 C393 1.387 . S
C395 C397 1.390 1_556 S
C395 H399 0.950 1_556 S
H396 C392 0.950 . S
C397 C395 1.390 1_554 S
C397 C398 1.387 . S
C397 H400 0.950 . S
C398 C397 1.387 . S
C398 C401 1.387 1_554 S
H399 C395 0.950 1_554 S
H400 C397 0.950 . S
C401 C392 1.390 . S
C401 H394 0.950 . S
C401 C398 1.387 1_556 S
C402 C403 1.387 . S
C402 H406 0.950 . S
C402 C411 1.390 . S
C403 C402 1.387 . S
C403 C405 1.387 . S
H404 C411 0.950 . S
C405 C403 1.387 . S
C405 C407 1.390 . S
C405 H409 0.950 . S
H406 C402 0.950 . S
C407 C405 1.390 . S
C407 C408 1.387 . S
C407 H410 0.950 . S
C408 C407 1.387 . S
C408 C411 1.387 . S
H409 C405 0.950 . S
H410 C407 0.950 . S
C411 C402 1.390 . S
C411 H404 0.950 . S
C411 C408 1.387 . S
C412 C413 1.387 . S
C412 H416 0.950 . S
C412 C421 1.390 . S
C413 C412 1.387 . S
C413 C415 1.387 . S
H414 C421 0.950 . S
C415 C413 1.387 . S
C415 C417 1.390 . S
C415 H419 0.950 . S
H416 C412 0.950 . S
C417 C415 1.390 . S
C417 C418 1.387 . S
C417 H420 0.950 . S
C418 C417 1.387 . S
C418 C421 1.387 . S
H419 C415 0.950 . S
H420 C417 0.950 . S
C421 C412 1.390 . S
C421 H414 0.950 . S
C421 C418 1.387 . S
C422 C423 1.387 . S
C422 H426 0.950 . S
C422 C431 1.390 . S
C423 C422 1.387 . S
C423 C425 1.387 . S
H424 C431 0.950 . S
C425 C423 1.387 . S
C425 C427 1.390 . S
C425 H429 0.950 . S
H426 C422 0.950 . S
C427 C425 1.390 . S
C427 C428 1.387 . S
C427 H430 0.950 . S
C428 C427 1.387 . S
C428 C431 1.387 . S
H429 C425 0.950 . S
H430 C427 0.950 . S
C431 C422 1.390 . S
C431 H424 0.950 . S
C431 C428 1.387 . S
C432 C433 1.387 . S
C432 H436 0.950 . S
C432 C441 1.390 . S
C433 C432 1.387 . S
C433 C435 1.387 . S
H434 C441 0.950 . S
C435 C433 1.387 . S
C435 C437 1.390 . S
C435 H439 0.950 . S
H436 C432 0.950 . S
C437 C435 1.390 . S
C437 C438 1.387 . S
C437 H440 0.950 . S
C438 C437 1.387 . S
C438 C441 1.387 . S
H439 C435 0.950 . S
H440 C437 0.950 . S
C441 C432 1.390 . S
C441 H434 0.950 . S
C441 C438 1.387 . S
C442 C443 1.387 . S
C442 H446 0.950 . S
C442 C451 1.390 . S
C443 C442 1.387 . S
C443 C445 1.387 . S
H444 C451 0.950 . S
C445 C443 1.387 . S
C445 C447 1.390 . S
C445 H449 0.950 . S
H446 C442 0.950 . S
C447 C445 1.390 . S
C447 C448 1.387 . S
C447 H450 0.950 . S
C448 C447 1.387 . S
C448 C451 1.387 . S
H449 C445 0.950 . S
H450 C447 0.950 . S
C451 C442 1.390 . S
C451 H444 0.950 . S
C451 C448 1.387 . S
C452 C453 1.387 . S
C452 H456 0.950 . S
C452 C461 1.390 . S
C453 C452 1.387 . S
C453 C455 1.387 . S
H454 C461 0.950 . S
C455 C453 1.387 . S
C455 C457 1.390 . S
C455 H459 0.950 . S
H456 C452 0.950 . S
C457 C455 1.390 . S
C457 C458 1.387 . S
C457 H460 0.950 . S
C458 C457 1.387 . S
C458 C461 1.387 . S
H459 C455 0.950 . S
H460 C457 0.950 . S
C461 C452 1.390 . S
C461 H454 0.950 . S
C461 C458 1.387 . S
C462 C463 1.387 . S
C462 H466 0.950 . S
C462 C471 1.390 . S
C463 C462 1.387 . S
C463 C465 1.387 . S
H464 C471 0.950 . S
C465 C463 1.387 . S
C465 C467 1.390 . S
C465 H469 0.950 . S
H466 C462 0.950 . S
C467 C465 1.390 . S
C467 C468 1.387 . S
C467 H470 0.950 . S
C468 C467 1.387 . S
C468 C471 1.387 . S
H469 C465 0.950 . S
H470 C467 0.950 . S
C471 C462 1.390 . S
C471 H464 0.950 . S
C471 C468 1.387 . S
C233 C6 1.594 . S
C238 C154 1.583 . S
C243 C21 1.710 . S
C248 C173 1.683 . S
C258 C210 1.347 . S
C253 C49 1.338 . S
C263 C68 1.470 . S
C268 C220 1.528 . S
C278 C190 2.395 . S
C273 C2 2.321 . S
C288 C160 1.158 1_565 S
C283 C30 1.078 . S
C298 C231 1.552 . S
C293 C40 1.595 . S
C308 C201 1.378 . S
C303 C63 1.377 . S
C313 C11 1.492 . S
C318 C214 1.657 . S
C328 C181 1.893 . S
C323 C44 1.942 . S
C333 C59 1.546 . S
C338 C171 1.549 . S
C343 C25 1.450 . S
C348 C193 1.419 . S
C358 C153 1.707 . S
C353 C82 1.709 . S
C363 C101 1.614 . S
C368 C174 1.564 . S
C373 C125 1.579 . S
C378 C211 1.656 . S
C383 C144 1.320 . S
C388 C221 1.400 . S
C393 C87 1.578 . S
C398 C191 1.701 . S
C408 C161 1.962 . S
C403 C97 2.031 . S
C418 C230 1.368 . S
C413 C120 1.425 . S
C428 C200 1.383 . S
C423 C135 1.476 . S
C433 C78 1.854 . S
C438 C213 1.934 . S
C448 C180 1.418 . S
C443 C116 1.460 . S
C458 C170 1.969 . S
C453 C139 1.959 . S
C463 C106 1.182 . S
C468 C194 1.380 . S
