# Generated by pormake.
# Topology anh, (6,3)-cn, num edge types: 1
# Building blocks:
#     Node 0, Type 0, BuildingBlock: BETDEL_clean_sbu_0, # of connection points: 6
#     Node 1, Type 0, BuildingBlock: BETDEL_clean_sbu_0, # of connection points: 6
#     Node 2, Type 0, BuildingBlock: BETDEL_clean_sbu_0, # of connection points: 6
#     Node 3, Type 1, BuildingBlock: VETTIZ_charged_linker_0, # of connection points: 3
#     Node 4, Type 1, BuildingBlock: VETTIZ_charged_linker_0, # of connection points: 3
#     Node 5, Type 1, BuildingBlock: VETTIZ_charged_linker_0, # of connection points: 3
#     Node 6, Type 1, BuildingBlock: VETTIZ_charged_linker_0, # of connection points: 3
#     Node 7, Type 1, BuildingBlock: VETTIZ_charged_linker_0, # of connection points: 3
#     Node 8, Type 1, BuildingBlock: VETTIZ_charged_linker_0, # of connection points: 3
#     Edge 9, Type (0, 1), None
#     Edge 10, Type (0, 1), None
#     Edge 11, Type (0, 1), None
#     Edge 12, Type (0, 1), None
#     Edge 13, Type (0, 1), None
#     Edge 14, Type (0, 1), None
#     Edge 15, Type (0, 1), None
#     Edge 16, Type (0, 1), None
#     Edge 17, Type (0, 1), None
#     Edge 18, Type (0, 1), None
#     Edge 19, Type (0, 1), None
#     Edge 20, Type (0, 1), None
#     Edge 21, Type (0, 1), None
#     Edge 22, Type (0, 1), None
#     Edge 23, Type (0, 1), None
#     Edge 24, Type (0, 1), None
#     Edge 25, Type (0, 1), None
#     Edge 26, Type (0, 1), None
# Relax obj value: 0.172
# Max RMSD: 0.172
# Mean RMSD: 0.144
data_MOF--net-anh--node1-BETDEL_clean_sbu_0--node2-VETTIZ_charged_linker_0--edge1-none
_symmetry_space_group_name_H-M    P1
_symmetry_Int_Tables_number       1
_symmetry_cell_setting            triclinic
loop_
_symmetry_equiv_pos_as_xyz
'x, y, z'
_cell_length_a     18.792317
_cell_length_b     18.721371
_cell_length_c     36.712662
_cell_angle_alpha  90.519868
_cell_angle_beta   89.525344
_cell_angle_gamma 119.84317
loop_
_atom_site_label
_atom_site_type_symbol
_atom_site_fract_x
_atom_site_fract_y
_atom_site_fract_z
_atom_type_partial_charge
Dy0 Dy 0.13282 0.45419 0.13527 0.0
C1 C 0.96174 0.6296 0.14437 0.0
C2 C 0.23404 0.39255 0.11941 0.0
Dy3 Dy 1.05164 0.55229 0.13591 0.0
O4 O 0.2191 0.41008 0.15179 0.0
O5 O 0.1912 0.40641 0.09586 0.0
O6 O 0.08898 0.41147 0.19235 0.0
O7 O 0.12095 0.53158 0.17651 0.0
C8 C 0.09174 0.47988 0.20173 0.0
C9 C 0.09515 0.52944 0.06891 0.0
O10 O 0.17593 0.65107 0.15375 0.0
O11 O 0.24249 0.5871 0.12929 0.0
O12 O 1.02897 0.65676 0.1258 0.0
O13 O 0.94409 0.55985 0.15907 0.0
O14 O 0.09702 0.5959 0.0799 0.0
O15 O 0.06338 0.47505 0.09317 0.0
O16 O 1.00333 0.34478 0.13368 0.0
O17 O 0.94403 0.42445 0.14704 0.0
C18 C 0.24479 0.65506 0.14224 0.0
C19 C 0.9377 0.35084 0.14237 0.0
Dy20 Dy 0.4159 1.02847 0.47339 0.0
C21 C 0.76092 0.20386 0.48191 0.0
C22 C 0.25542 0.9296 0.45521 0.0
Dy23 Dy 0.59431 0.10882 0.47598 0.0
O24 O 0.31471 0.97181 0.43245 0.0
O25 O 0.28404 0.94281 0.48808 0.0
O26 O 0.41147 0.08393 0.52681 0.0
O27 O 0.50134 0.04934 0.51755 0.0
C28 C 0.47585 0.0839 0.53945 0.0
C29 C 0.53276 0.05325 0.40935 0.0
O30 O 0.56706 0.98798 0.49927 0.0
O31 O 0.43762 0.91712 0.47499 0.0
O32 O 0.72174 0.13169 0.46693 0.0
O33 O 0.70804 0.22231 0.49548 0.0
O34 O 0.59666 0.05412 0.42233 0.0
O35 O 0.50877 0.08902 0.43128 0.0
O36 O 0.43855 0.15865 0.46587 0.0
O37 O 0.57555 0.21899 0.48118 0.0
C38 C 0.50228 0.91711 0.48976 0.0
C39 C 0.50961 0.22518 0.47398 0.0
Dy40 Dy 0.71866 0.73106 0.80152 0.0
C41 C 0.55363 0.38533 0.82841 0.0
C42 C 0.77452 0.88283 0.77203 0.0
Dy43 Dy 0.61675 0.54786 0.81125 0.0
O44 O 0.76774 0.86737 0.8067 0.0
O45 O 0.75331 0.81559 0.75376 0.0
O46 O 0.76427 0.74495 0.85943 0.0
O47 O 0.64543 0.65215 0.84533 0.0
C48 C 0.69716 0.68029 0.87041 0.0
C49 C 0.63183 0.59744 0.74228 0.0
O50 O 0.51978 0.5803 0.82584 0.0
O51 O 0.58623 0.70898 0.79947 0.0
O52 O 0.51931 0.41562 0.80791 0.0
O53 O 0.62067 0.44581 0.84164 0.0
O54 O 0.56849 0.5326 0.7549 0.0
O55 O 0.6879 0.62621 0.76573 0.0
O56 O 0.8247 0.70568 0.79872 0.0
O57 O 0.7467 0.57095 0.81861 0.0
C58 C 0.51817 0.64591 0.81338 0.0
C59 C 0.81903 0.63562 0.80993 0.0
C60 C 0.80359 0.20537 0.14219 0.0
C61 C 0.8644 0.27913 0.15981 0.0
C62 C 0.85474 0.28896 0.19708 0.0
C63 C 0.7266 0.15926 0.19929 0.0
C64 C 0.73414 0.14572 0.16276 0.0
C65 C 0.66038 0.06278 0.15081 0.0
H66 H 0.27841 0.73718 0.205 0.0
C67 C 0.6484 0.09135 0.21362 0.0
C68 C 0.60691 1.03309 0.18566 0.0
H69 H 0.39075 0.74947 0.10076 0.0
H70 H 0.51153 0.8822 0.11876 0.0
H71 H 0.42845 0.77803 0.24899 0.0
H72 H 0.32593 0.9233 0.21146 0.0
H73 H 0.3594 0.95765 0.25603 0.0
H74 H 0.28285 0.85137 0.24821 0.0
H75 H 0.34413 0.77869 0.27182 0.0
H76 H 0.44918 0.84961 0.28397 0.0
C77 C 0.69175 1.0038 0.13978 0.0
C78 C 0.61486 0.07675 0.11954 0.0
C79 C 0.58658 0.10106 0.34767 0.0
C80 C 0.52026 0.04923 0.36999 0.0
C81 C 0.4486 0.98552 0.35429 0.0
C82 C 0.44517 0.97067 0.31662 0.0
C83 C 0.51449 1.01984 0.2947 0.0
C84 C 0.58225 0.08547 0.31026 0.0
C85 C 0.64949 0.1323 0.28318 0.0
C86 C 0.61287 0.08134 0.24882 0.0
C87 C 0.53461 1.01534 0.25585 0.0
C88 C 0.72662 0.12918 0.29585 0.0
C89 C 0.66081 0.22027 0.28033 0.0
C90 C 0.32847 0.76764 0.18567 0.0
C91 C 0.3241 0.73217 0.15151 0.0
C92 C 0.39227 0.77457 0.12761 0.0
C93 C 0.46203 0.85158 0.13797 0.0
C94 C 0.46446 0.88592 0.17278 0.0
C95 C 0.39765 0.84195 0.19571 0.0
C96 C 0.40834 0.88045 0.23236 0.0
C97 C 0.49211 0.95569 0.22847 0.0
C98 C 0.5269 0.96192 0.19338 0.0
C99 C 0.40702 0.81891 0.26097 0.0
C100 C 0.34053 0.90411 0.23767 0.0
H101 H 0.78665 0.24373 0.24487 0.0
H102 H 0.80907 0.19546 0.11347 0.0
H103 H 0.59627 0.12245 0.12776 0.0
H104 H 0.55875 1.01897 0.11193 0.0
H105 H 0.65484 0.1004 0.09503 0.0
H106 H 0.72888 0.99906 0.16206 0.0
H107 H 0.73097 1.02643 0.115 0.0
H108 H 0.64077 0.94107 0.13415 0.0
H109 H 0.64239 0.15049 0.35938 0.0
H110 H 0.39721 0.94452 0.37134 0.0
H111 H 0.38984 0.91943 0.30637 0.0
H112 H 0.70901 0.06845 0.30815 0.0
H113 H 0.76119 0.17728 0.31671 0.0
H114 H 0.76866 0.13554 0.27331 0.0
H115 H 0.60583 0.22265 0.29016 0.0
H116 H 0.66893 0.24199 0.25182 0.0
H117 H 0.71373 0.26552 0.29679 0.0
H118 H 0.89989 0.34347 0.21149 0.0
C119 C 0.78768 0.23036 0.21662 0.0
C120 C 0.48766 0.77065 0.48647 0.0
C121 C 0.49595 0.84079 0.50612 0.0
C122 C 0.50918 0.84455 0.54382 0.0
C123 C 0.51643 0.71894 0.542 0.0
C124 C 0.49769 0.70942 0.50532 0.0
C125 C 0.49115 0.62861 0.49124 0.0
H126 H 0.58476 0.32015 0.53119 0.0
C127 C 0.53362 0.65365 0.55368 0.0
C128 C 0.51972 0.59899 0.52427 0.0
H129 H 0.44373 0.31385 0.43809 0.0
H130 H 0.45677 0.44694 0.45746 0.0
H131 H 0.71429 0.51542 0.53423 0.0
H132 H 0.48363 0.34578 0.58219 0.0
H133 H 0.52969 0.42114 0.6159 0.0
H134 H 0.57827 0.36334 0.60133 0.0
H135 H 0.70132 0.44301 0.56893 0.0
H136 H 0.72136 0.54553 0.58013 0.0
C137 C 0.54749 0.64505 0.45806 0.0
C138 C 0.40061 0.56839 0.48223 0.0
C139 C 0.62161 0.6583 0.68456 0.0
C140 C 0.64548 0.60862 0.7031 0.0
C141 C 0.66354 0.55489 0.68346 0.0
C142 C 0.65226 0.54634 0.64575 0.0
C143 C 0.62095 0.59082 0.62773 0.0
C144 C 0.61013 0.64861 0.64679 0.0
C145 C 0.5791 0.69184 0.6229 0.0
C146 C 0.56687 0.64567 0.58697 0.0
C147 C 0.59024 0.58605 0.59028 0.0
C148 C 0.64776 0.78367 0.62053 0.0
C149 C 0.49629 0.6776 0.63893 0.0
C150 C 0.55737 0.34719 0.5143 0.0
C151 C 0.51438 0.30632 0.48287 0.0
C152 C 0.47737 0.34355 0.46264 0.0
C153 C 0.48459 0.42041 0.47393 0.0
C154 C 0.52656 0.45901 0.50648 0.0
C155 C 0.56063 0.42019 0.5259 0.0
C156 C 0.59354 0.45943 0.56191 0.0
C157 C 0.57484 0.52907 0.56165 0.0
C158 C 0.53758 0.53241 0.52881 0.0
C159 C 0.68742 0.49224 0.56167 0.0
C160 C 0.54466 0.39463 0.59202 0.0
H161 H 0.53016 0.79385 0.59025 0.0
H162 H 0.47667 0.76527 0.45742 0.0
H163 H 0.36067 0.56195 0.50594 0.0
H164 H 0.38987 0.50632 0.47548 0.0
H165 H 0.3806 0.59107 0.45875 0.0
H166 H 0.6119 0.69107 0.46502 0.0
H167 H 0.52797 0.66923 0.43499 0.0
H168 H 0.54613 0.58789 0.44883 0.0
H169 H 0.60676 0.69951 0.69942 0.0
H170 H 0.68114 0.51553 0.69764 0.0
H171 H 0.66417 0.50206 0.63255 0.0
H172 H 0.70926 0.79205 0.62693 0.0
H173 H 0.63652 0.82277 0.64001 0.0
H174 H 0.6549 0.80895 0.59276 0.0
H175 H 0.46066 0.61506 0.65096 0.0
H176 H 0.45516 0.67969 0.61814 0.0
H177 H 0.50626 0.72309 0.66076 0.0
H178 H 0.51453 0.8961 0.55972 0.0
C179 C 0.51914 0.78488 0.56162 0.0
C180 C 0.38162 0.64927 0.80818 0.0
C181 C 0.45146 0.66003 0.82807 0.0
C182 C 0.45491 0.67674 0.86556 0.0
C183 C 0.31761 0.65719 0.86482 0.0
C184 C 0.31545 0.65032 0.82735 0.0
C185 C 0.23422 0.64047 0.81311 0.0
H186 H 0.83724 0.5411 0.8598 0.0
C187 C 0.23647 0.63946 0.8784 0.0
C188 C 0.18775 0.63616 0.84875 0.0
H189 H 0.97648 0.72176 0.77789 0.0
H190 H 0.09979 0.71471 0.79488 0.0
H191 H 0.92929 0.42351 0.85997 0.0
H192 H 0.95736 0.64225 0.91224 0.0
H193 H 0.98581 0.59467 0.94501 0.0
H194 H 0.88282 0.54146 0.92752 0.0
H195 H 0.85881 0.42353 0.89327 0.0
H196 H 0.94816 0.41766 0.90645 0.0
C197 C 0.18762 0.55992 0.79116 0.0
C198 C 0.25247 0.71538 0.78961 0.0
C199 C 0.16819 0.55217 0.01052 0.0
C200 C 0.09396 0.5133 0.02983 0.0
C201 C 1.01942 0.47974 0.01081 0.0
C202 C 1.01911 0.49076 -0.02692 0.0
C203 C 0.09419 0.5368 0.95453 0.0
C204 C 0.16686 0.56226 -0.02716 0.0
C205 C 0.24058 0.60695 0.94849 0.0
C206 C 0.19995 0.60756 0.91282 0.0
C207 C 0.11471 0.5691 0.91696 0.0
C208 C 0.28553 0.55606 0.94631 0.0
C209 C 0.29411 0.69558 0.9636 0.0
C210 C 0.89241 0.57574 0.84365 0.0
C211 C 0.89501 0.62909 0.81634 0.0
C212 C 0.97117 0.67787 0.79825 0.0
C213 C 1.042 0.67218 0.80718 0.0
C214 C 1.03722 0.61718 0.83438 0.0
C215 C 0.96373 0.57392 0.85333 0.0
C216 C 0.97457 0.54186 0.88895 0.0
C217 C 0.0661 0.57318 0.88859 0.0
C218 C 0.10265 0.61155 0.85532 0.0
C219 C 0.9248 0.44661 0.88745 0.0
C220 C 0.94853 0.58112 0.9202 0.0
H221 H 0.39608 0.68885 0.91238 0.0
H222 H 0.37771 0.63789 0.77912 0.0
H223 H 0.26856 0.77036 0.8069 0.0
H224 H 0.19955 0.7023 0.77219 0.0
H225 H 0.30463 0.73063 0.77074 0.0
H226 H 0.17749 0.50639 0.80787 0.0
H227 H 0.2227 0.5618 0.76632 0.0
H228 H 0.12681 0.55015 0.78259 0.0
H229 H 0.22619 0.5791 0.02481 0.0
H230 H 0.96164 0.45083 0.02553 0.0
H231 H 0.96058 0.46745 0.96021 0.0
H232 H 0.25557 0.49962 0.96331 0.0
H233 H 0.34969 0.59202 0.95611 0.0
H234 H 0.28604 0.53397 0.91821 0.0
H235 H 0.25502 0.72072 -0.02615 0.0
H236 H 0.33397 0.73941 0.94254 0.0
H237 H 0.33283 0.69664 -0.01346 0.0
H238 H 0.50795 0.68731 0.88127 0.0
C239 C 0.38924 0.67604 0.88381 0.0
C240 C 0.8737 0.34921 0.47896 0.0
C241 C 0.84249 0.26628 0.46913 0.0
C242 C 0.87758 0.24643 0.43943 0.0
C243 C 0.95431 0.38993 0.42341 0.0
C244 C 0.93041 0.41034 0.45574 0.0
C245 C 0.96667 0.50199 0.46005 0.0
H246 H 0.20455 0.87735 0.38676 0.0
C247 C 0.99757 0.46477 0.4014 0.0
C248 C 1.00659 0.53112 0.42289 0.0
H249 H 0.13609 0.81571 0.49954 0.0
H250 H 1.04163 0.67441 0.48241 0.0
H251 H 0.2406 0.74488 0.37137 0.0
H252 H 1.0196 0.75153 0.35136 0.0
H253 H 1.02132 0.68527 0.31761 0.0
H254 H 0.10247 0.7916 0.31915 0.0
H255 H 0.23027 0.80615 0.33669 0.0
H256 H 0.20606 0.70209 0.32789 0.0
C257 C 1.03063 0.53186 0.49128 0.0
C258 C 0.89681 0.52188 0.46641 0.0
C259 C 1.04917 0.44278 0.26657 0.0
C260 C 0.07958 0.50168 0.23876 0.0
C261 C 0.10045 0.58355 0.2466 0.0
C262 C 0.09348 0.60727 0.28192 0.0
C263 C 0.06526 0.54857 0.30975 0.0
C264 C 1.04192 0.46755 0.30186 0.0
C265 C 1.00925 0.41337 0.33485 0.0
C266 C 1.01864 0.47611 0.36386 0.0
C267 C 1.05186 0.55485 0.3488 0.0
C268 C 0.06426 0.37506 0.34241 0.0
C269 C 0.91821 0.34938 0.32742 0.0
C270 C 0.16699 0.83394 0.40757 0.0
C271 C 0.1786 0.85649 0.44445 0.0
C272 C 0.12871 0.799 0.47093 0.0
C273 C 0.0755 0.71684 0.46109 0.0
C274 C 0.0735 0.69268 0.42463 0.0
C275 C 0.11603 0.75137 0.3983 0.0
C276 C 0.11256 0.71388 0.36155 0.0
C277 C 0.06723 0.62315 0.37101 0.0
C278 C 1.0437 0.61114 0.40777 0.0
C279 C 0.20168 0.74323 0.34833 0.0
C280 C 0.06193 0.73686 0.33586 0.0
H281 H 0.95385 0.28938 0.39271 0.0
H282 H 0.84913 0.36584 0.50225 0.0
H283 H 0.84654 0.48793 0.44647 0.0
H284 H 0.91744 0.58791 0.4629 0.0
H285 H 0.87051 0.50377 0.49424 0.0
H286 H 1.04704 0.48452 0.49897 0.0
H287 H 1.0071 0.54708 0.5163 0.0
H288 H 0.0896 0.58637 0.48332 0.0
H289 H 1.03174 0.37921 0.26105 0.0
H290 H 0.12339 0.62986 0.22549 0.0
H291 H 0.11162 0.67074 0.28624 0.0
H292 H 0.12669 0.41266 0.33051 0.0
H293 H 1.03742 0.31209 0.33061 0.0
H294 H 0.07494 0.37264 0.37189 0.0
H295 H 0.88481 0.38036 0.3173 0.0
H296 H 0.88452 0.31486 0.35175 0.0
H297 H 0.91326 0.30418 0.30633 0.0
H298 H 0.85579 0.18283 0.43183 0.0
C299 C 0.93319 0.30812 0.41631 0.0
C300 C 0.75913 1.00663 0.77841 0.0
C301 C 0.77442 0.95435 0.75606 0.0
C302 C 0.7699 0.95874 0.71799 0.0
C303 C 0.71689 0.05201 0.72537 0.0
C304 C 0.72924 0.05423 0.76256 0.0
C305 C 0.69759 0.10375 0.78245 0.0
H306 H 0.46033 0.2809 0.77615 0.0
C307 C 0.6687 0.09266 0.71817 0.0
C308 C 0.65626 0.12238 0.75149 0.0
H309 H 0.63405 0.31257 0.85982 0.0
H310 H 0.6622 0.21402 0.82883 0.0
H311 H 0.58278 0.32952 0.72307 0.0
H312 H 0.39588 0.08205 0.74794 0.0
H313 H 0.40194 0.09241 0.70021 0.0
H314 H 0.37655 0.1574 0.7274 0.0
H315 H 0.48214 0.28545 0.70387 0.0
H316 H 0.56341 0.27636 0.68172 0.0
C317 C 0.77184 0.18303 0.79786 0.0
C318 C 0.63509 0.04933 0.81192 0.0
C319 C 0.55863 0.08068 0.59114 0.0
C320 C 0.50193 0.1017 0.57749 0.0
C321 C 0.46735 0.13609 0.60093 0.0
C322 C 0.48776 0.14793 0.63785 0.0
C323 C 0.54367 0.12553 0.65135 0.0
C324 C 0.57816 0.09261 0.62812 0.0
C325 C 0.6333 0.06885 0.64761 0.0
C326 C 0.62854 0.09607 0.68624 0.0
C327 C 0.57576 0.12866 0.68812 0.0
C328 C 0.72084 0.11974 0.63152 0.0
C329 C 0.5959 0.97397 0.64411 0.0
C330 C 0.50136 0.26364 0.78891 0.0
C331 C 0.54484 0.30418 0.82042 0.0
C332 C 0.59954 0.28171 0.83558 0.0
C333 C 0.61725 0.22624 0.81712 0.0
C334 C 0.58159 0.19535 0.78288 0.0
C335 C 0.52456 0.21433 0.7694 0.0
C336 C 0.50744 0.19372 0.72969 0.0
C337 C 0.5625 0.15802 0.72166 0.0
C338 C 0.60391 0.15672 0.75303 0.0
C339 C 0.53455 0.27485 0.70829 0.0
C340 C 0.41559 0.12832 0.72577 0.0
H341 H 0.73546 1.00552 0.67344 0.0
H342 H 0.76265 1.00444 0.80776 0.0
H343 H 0.58905 0.98902 0.80007 0.0
H344 H 0.60057 0.0774 0.82373 0.0
H345 H 0.66633 1.0373 0.83463 0.0
H346 H 0.83012 0.19736 0.78381 0.0
H347 H 0.78037 0.177 0.82736 0.0
H348 H 0.76561 0.23822 0.7937 0.0
H349 H 0.58566 0.0535 0.57368 0.0
H350 H 0.42364 0.15283 0.59081 0.0
H351 H 0.45849 0.1733 0.65444 0.0
H352 H 0.73668 0.18484 0.62738 0.0
H353 H 0.72559 0.09446 0.60469 0.0
H354 H 0.76873 0.12259 0.6497 0.0
H355 H 0.52946 0.94233 0.63734 0.0
H356 H 0.59856 0.94534 0.66993 0.0
H357 H 0.6269 0.95779 0.62233 0.0
H358 H 0.78208 0.91933 0.70031 0.0
C359 C 0.74157 1.00778 0.70249 0.0
C360 C 0.81864 0.60331 0.14666 0.0
C361 C 0.90082 0.65421 0.13619 0.0
C362 C 0.92006 0.71431 0.10926 0.0
C363 C 0.77687 0.65116 0.0945 0.0
C364 C 0.75709 0.60325 0.1254 0.0
C365 C 0.66579 0.54762 0.12935 0.0
H366 H 0.29296 0.39689 0.05186 0.0
C367 C 0.7029 0.62045 0.07226 0.0
C368 C 0.63688 0.56106 0.09282 0.0
H369 H 0.34865 0.39516 0.16563 0.0
H370 H 0.49237 0.45062 0.15071 0.0
H371 H 0.42028 0.57084 0.0391 0.0
H372 H 0.42597 0.34844 0.01808 0.0
H373 H 0.49566 0.41863 -0.01363 0.0
H374 H 0.38885 0.39096 -0.01527 0.0
H375 H 0.36271 0.49725 0.00414 0.0
H376 H 0.46481 0.58032 -0.00421 0.0
C377 C 0.63532 0.5796 0.16168 0.0
C378 C 0.64619 0.45745 0.1337 0.0
C379 C 0.7315 0.68594 0.93669 0.0
C380 C 0.67461 0.65312 0.90819 0.0
C381 C 0.59282 0.59294 0.91582 0.0
C382 C 0.56731 0.56663 0.95125 0.0
C383 C 0.62412 0.6001 -0.02041 0.0
C384 C 0.70492 0.65776 0.97224 0.0
C385 C 0.75708 0.68168 0.00594 0.0
C386 C 0.69324 0.62959 0.03458 0.0
C387 C 0.61594 0.58236 0.01869 0.0
C388 C 0.79365 0.77529 0.0129 0.0
C389 C 0.82225 0.65503 -9e-05 0.0
C390 C 0.33571 0.40555 0.07338 0.0
C391 C 0.31035 0.39328 0.10986 0.0
C392 C 0.3673 0.40509 0.13727 0.0
C393 C 0.45072 0.43901 0.12873 0.0
C394 C 0.47666 0.46157 0.0926 0.0
C395 C 0.41929 0.44216 0.06542 0.0
C396 C 0.45809 0.47798 0.02929 0.0
C397 C 0.54759 0.52752 0.04002 0.0
C398 C 0.55816 0.51659 0.07686 0.0
C399 C 0.42483 0.53434 0.01603 0.0
C400 C 0.44118 0.40572 0.00306 0.0
H401 H 0.87567 0.75568 0.06615 0.0
H402 H 0.80273 0.55871 0.16821 0.0
H403 H 0.67911 0.44176 0.11261 0.0
H404 H 0.58023 0.41266 0.13054 0.0
H405 H 0.66532 0.44777 0.16091 0.0
H406 H 0.68223 0.64262 0.17058 0.0
H407 H 0.61981 0.53903 0.18581 0.0
H408 H 0.58098 0.58482 0.15429 0.0
H409 H 0.79489 0.73166 0.93143 0.0
H410 H 0.54772 0.5662 0.89437 0.0
H411 H 0.5041 0.52146 0.95511 0.0
H412 H 0.75749 0.79955 -0.0008 0.0
H413 H 0.85772 0.81087 0.00263 0.0
H414 H 0.7923 0.78966 0.04216 0.0
H415 H 0.79236 0.58909 -0.00838 0.0
H416 H 0.85858 0.66139 0.02427 0.0
H417 H 0.86598 0.69204 -0.022 0.0
H418 H 0.98324 0.75619 0.10167 0.0
C419 C 0.85794 0.71289 0.08819 0.0
loop_
_geom_bond_atom_site_label_1
_geom_bond_atom_site_label_2
_geom_bond_distance
_geom_bond_site_symmetry_2
_ccdc_geom_bond_type
Dy0 O4 2.398 . S
Dy0 O5 2.491 . S
Dy0 O6 2.403 . S
Dy0 O7 2.664 . S
Dy0 O11 2.326 . S
Dy0 O15 2.310 . S
Dy0 O16 2.351 1_455 S
C1 O12 1.185 . S
C1 O13 1.355 . S
C2 O4 1.185 . S
C2 O5 1.355 . S
Dy3 O7 2.310 1_655 S
Dy3 O10 2.351 1_655 S
Dy3 O12 2.398 . S
Dy3 O13 2.491 . S
Dy3 O14 2.403 . S
Dy3 O15 2.664 1_655 S
Dy3 O17 2.326 . S
O4 Dy0 2.398 . S
O4 C2 1.185 . S
O5 Dy0 2.491 . S
O5 C2 1.355 . S
O6 Dy0 2.403 . S
O6 C8 1.254 . S
O7 Dy0 2.664 . S
O7 Dy3 2.310 1_455 S
O7 C8 1.268 . S
C8 O6 1.254 . S
C8 O7 1.268 . S
C9 O14 1.254 1_455 S
C9 O15 1.268 . S
O10 Dy3 2.351 1_455 S
O10 C18 1.249 . S
O11 Dy0 2.326 . S
O11 C18 1.267 . S
O12 C1 1.185 . S
O12 Dy3 2.398 . S
O13 C1 1.355 . S
O13 Dy3 2.491 . S
O14 Dy3 2.403 . S
O14 C9 1.254 1_655 S
O15 Dy0 2.310 . S
O15 Dy3 2.664 1_455 S
O15 C9 1.268 . S
O16 Dy0 2.351 1_655 S
O16 C19 1.249 . S
O17 Dy3 2.326 . S
O17 C19 1.267 . S
C18 O10 1.249 . S
C18 O11 1.267 . S
C19 O16 1.249 . S
C19 O17 1.267 . S
Dy20 O24 2.398 . S
Dy20 O25 2.491 . S
Dy20 O26 2.403 . S
Dy20 O27 2.664 1_565 S
Dy20 O31 2.326 . S
Dy20 O35 2.310 1_565 S
Dy20 O36 2.351 1_565 S
C21 O32 1.185 . S
C21 O33 1.355 . S
C22 O24 1.185 . S
C22 O25 1.355 . S
Dy23 O27 2.310 . S
Dy23 O30 2.351 1_545 S
Dy23 O32 2.398 . S
Dy23 O33 2.491 . S
Dy23 O34 2.403 . S
Dy23 O35 2.664 . S
Dy23 O37 2.326 . S
O24 Dy20 2.398 . S
O24 C22 1.185 . S
O25 Dy20 2.491 . S
O25 C22 1.355 . S
O26 Dy20 2.403 . S
O26 C28 1.254 1_565 S
O27 Dy20 2.664 1_545 S
O27 Dy23 2.310 . S
O27 C28 1.268 . S
C28 O26 1.254 1_545 S
C28 O27 1.268 . S
C29 O34 1.254 . S
C29 O35 1.268 . S
O30 Dy23 2.351 1_565 S
O30 C38 1.249 . S
O31 Dy20 2.326 . S
O31 C38 1.267 . S
O32 C21 1.185 . S
O32 Dy23 2.398 . S
O33 C21 1.355 . S
O33 Dy23 2.491 . S
O34 Dy23 2.403 . S
O34 C29 1.254 . S
O35 Dy20 2.310 1_545 S
O35 Dy23 2.664 . S
O35 C29 1.268 . S
O36 Dy20 2.351 1_545 S
O36 C39 1.249 . S
O37 Dy23 2.326 . S
O37 C39 1.267 . S
C38 O30 1.249 . S
C38 O31 1.267 . S
C39 O36 1.249 . S
C39 O37 1.267 . S
Dy40 O44 2.398 . S
Dy40 O45 2.491 . S
Dy40 O46 2.403 . S
Dy40 O47 2.664 . S
Dy40 O51 2.326 . S
Dy40 O55 2.310 . S
Dy40 O56 2.351 . S
C41 O52 1.185 . S
C41 O53 1.355 . S
C42 O44 1.185 . S
C42 O45 1.355 . S
Dy43 O47 2.310 . S
Dy43 O50 2.351 . S
Dy43 O52 2.398 . S
Dy43 O53 2.491 . S
Dy43 O54 2.403 . S
Dy43 O55 2.664 . S
Dy43 O57 2.326 . S
O44 Dy40 2.398 . S
O44 C42 1.185 . S
O45 Dy40 2.491 . S
O45 C42 1.355 . S
O46 Dy40 2.403 . S
O46 C48 1.254 . S
O47 Dy40 2.664 . S
O47 Dy43 2.310 . S
O47 C48 1.268 . S
C48 O46 1.254 . S
C48 O47 1.268 . S
C49 O54 1.254 . S
C49 O55 1.268 . S
O50 Dy43 2.351 . S
O50 C58 1.249 . S
O51 Dy40 2.326 . S
O51 C58 1.267 . S
O52 C41 1.185 . S
O52 Dy43 2.398 . S
O53 C41 1.355 . S
O53 Dy43 2.491 . S
O54 Dy43 2.403 . S
O54 C49 1.254 . S
O55 Dy40 2.310 . S
O55 Dy43 2.664 . S
O55 C49 1.268 . S
O56 Dy40 2.351 . S
O56 C59 1.249 . S
O57 Dy43 2.326 . S
O57 C59 1.267 . S
C58 O50 1.249 . S
C58 O51 1.267 . S
C59 O56 1.249 . S
C59 O57 1.267 . S
C60 C61 1.391 . S
C60 C64 1.391 . S
C60 H102 0.948 . S
C61 C60 1.391 . S
C61 C62 1.391 . S
C62 C61 1.391 . S
C62 H118 0.947 . S
C62 C119 1.392 . S
C63 C64 1.391 . S
C63 C67 1.397 . S
C63 C119 1.419 . S
C64 C60 1.391 . S
C64 C63 1.391 . S
C64 C65 1.399 . S
C65 C64 1.399 . S
C65 C68 1.396 . S
C65 C77 1.453 . S
C65 C78 1.684 . S
H66 C90 0.948 . S
C67 C63 1.397 . S
C67 C68 1.394 . S
C67 C86 1.723 . S
C68 C65 1.396 . S
C68 C67 1.394 . S
C68 C98 1.723 1_545 S
H69 C92 0.947 . S
H70 C93 0.948 . S
H71 C99 0.982 . S
H72 C100 0.979 . S
H73 C100 0.980 . S
H74 C100 0.983 . S
H75 C99 0.979 . S
H76 C99 0.977 . S
C77 C65 1.453 . S
C77 H106 0.984 . S
C77 H107 0.979 . S
C77 H108 0.977 1_545 S
C78 C65 1.684 . S
C78 H103 0.979 . S
C78 H104 0.980 . S
C78 H105 0.983 . S
C79 C80 1.391 . S
C79 C84 1.391 . S
C79 H109 0.948 . S
C80 C79 1.391 . S
C80 C81 1.391 1_545 S
C81 C80 1.391 1_565 S
C81 C82 1.392 . S
C81 H110 0.947 . S
C82 C81 1.392 . S
C82 C83 1.419 . S
C82 H111 0.948 . S
C83 C82 1.419 . S
C83 C84 1.391 1_565 S
C83 C87 1.398 1_565 S
C84 C79 1.391 . S
C84 C83 1.391 1_545 S
C84 C85 1.399 . S
C85 C84 1.399 . S
C85 C86 1.396 . S
C85 C88 1.453 . S
C85 C89 1.684 . S
C86 C67 1.723 . S
C86 C85 1.396 . S
C86 C87 1.401 . S
C87 C83 1.398 1_545 S
C87 C86 1.401 . S
C87 C97 1.716 1_545 S
C88 C85 1.453 . S
C88 H112 0.982 . S
C88 H113 0.979 . S
C88 H114 0.977 . S
C89 C85 1.684 . S
C89 H115 0.979 . S
C89 H116 0.980 . S
C89 H117 0.983 . S
C90 H66 0.948 . S
C90 C91 1.391 . S
C90 C95 1.391 . S
C91 C90 1.391 . S
C91 C92 1.391 . S
C92 H69 0.947 . S
C92 C91 1.391 . S
C92 C93 1.392 . S
C93 H70 0.948 . S
C93 C92 1.392 . S
C93 C94 1.419 . S
C94 C93 1.419 . S
C94 C95 1.391 . S
C94 C98 1.397 . S
C95 C90 1.391 . S
C95 C94 1.391 . S
C95 C96 1.399 . S
C96 C95 1.399 . S
C96 C97 1.396 . S
C96 C99 1.453 . S
C96 C100 1.684 . S
C97 C87 1.716 1_565 S
C97 C96 1.396 . S
C97 C98 1.394 . S
C98 C68 1.723 1_565 S
C98 C94 1.397 . S
C98 C97 1.394 . S
C99 H71 0.982 . S
C99 H75 0.979 . S
C99 H76 0.977 . S
C99 C96 1.453 . S
C100 H72 0.979 . S
C100 H73 0.980 . S
C100 H74 0.983 . S
C100 C96 1.684 . S
H101 C119 0.948 . S
H102 C60 0.948 . S
H103 C78 0.979 . S
H104 C78 0.980 . S
H105 C78 0.983 . S
H106 C77 0.984 . S
H107 C77 0.979 . S
H108 C77 0.977 1_565 S
H109 C79 0.948 . S
H110 C81 0.947 . S
H111 C82 0.948 . S
H112 C88 0.982 . S
H113 C88 0.979 . S
H114 C88 0.977 . S
H115 C89 0.979 . S
H116 C89 0.980 . S
H117 C89 0.983 . S
H118 C62 0.947 . S
C119 C62 1.392 . S
C119 C63 1.419 . S
C119 H101 0.948 . S
C120 C121 1.391 . S
C120 C124 1.391 . S
C120 H162 0.948 . S
C121 C120 1.391 . S
C121 C122 1.391 . S
C122 C121 1.391 . S
C122 H178 0.947 . S
C122 C179 1.392 . S
C123 C124 1.391 . S
C123 C127 1.397 . S
C123 C179 1.419 . S
C124 C120 1.391 . S
C124 C123 1.391 . S
C124 C125 1.399 . S
C125 C124 1.399 . S
C125 C128 1.396 . S
C125 C137 1.453 . S
C125 C138 1.684 . S
H126 C150 0.948 . S
C127 C123 1.397 . S
C127 C128 1.394 . S
C127 C146 1.723 . S
C128 C125 1.396 . S
C128 C127 1.394 . S
C128 C158 1.723 . S
H129 C152 0.947 . S
H130 C153 0.948 . S
H131 C159 0.982 . S
H132 C160 0.979 . S
H133 C160 0.980 . S
H134 C160 0.983 . S
H135 C159 0.979 . S
H136 C159 0.977 . S
C137 C125 1.453 . S
C137 H166 0.982 . S
C137 H167 0.979 . S
C137 H168 0.977 . S
C138 C125 1.684 . S
C138 H163 0.979 . S
C138 H164 0.980 . S
C138 H165 0.983 . S
C139 C140 1.391 . S
C139 C144 1.391 . S
C139 H169 0.948 . S
C140 C139 1.391 . S
C140 C141 1.391 . S
C141 C140 1.391 . S
C141 C142 1.392 . S
C141 H170 0.947 . S
C142 C141 1.392 . S
C142 C143 1.419 . S
C142 H171 0.948 . S
C143 C142 1.419 . S
C143 C144 1.391 . S
C143 C147 1.397 . S
C144 C139 1.391 . S
C144 C143 1.391 . S
C144 C145 1.399 . S
C145 C144 1.399 . S
C145 C146 1.396 . S
C145 C148 1.453 . S
C145 C149 1.684 . S
C146 C127 1.723 . S
C146 C145 1.396 . S
C146 C147 1.394 . S
C147 C143 1.397 . S
C147 C146 1.394 . S
C147 C157 1.723 . S
C148 C145 1.453 . S
C148 H172 0.982 . S
C148 H173 0.979 . S
C148 H174 0.977 . S
C149 C145 1.684 . S
C149 H175 0.979 . S
C149 H176 0.980 . S
C149 H177 0.983 . S
C150 H126 0.948 . S
C150 C151 1.391 . S
C150 C155 1.391 . S
C151 C150 1.391 . S
C151 C152 1.391 . S
C152 H129 0.947 . S
C152 C151 1.391 . S
C152 C153 1.392 . S
C153 H130 0.948 . S
C153 C152 1.392 . S
C153 C154 1.419 . S
C154 C153 1.419 . S
C154 C155 1.391 . S
C154 C158 1.397 . S
C155 C150 1.391 . S
C155 C154 1.391 . S
C155 C156 1.399 . S
C156 C155 1.399 . S
C156 C157 1.396 . S
C156 C159 1.453 . S
C156 C160 1.684 . S
C157 C147 1.723 . S
C157 C156 1.396 . S
C157 C158 1.394 . S
C158 C128 1.723 . S
C158 C154 1.397 . S
C158 C157 1.394 . S
C159 H131 0.982 . S
C159 H135 0.979 . S
C159 H136 0.977 . S
C159 C156 1.453 . S
C160 H132 0.979 . S
C160 H133 0.980 . S
C160 H134 0.983 . S
C160 C156 1.684 . S
H161 C179 0.948 . S
H162 C120 0.948 . S
H163 C138 0.979 . S
H164 C138 0.980 . S
H165 C138 0.983 . S
H166 C137 0.982 . S
H167 C137 0.979 . S
H168 C137 0.977 . S
H169 C139 0.948 . S
H170 C141 0.947 . S
H171 C142 0.948 . S
H172 C148 0.982 . S
H173 C148 0.979 . S
H174 C148 0.977 . S
H175 C149 0.979 . S
H176 C149 0.980 . S
H177 C149 0.983 . S
H178 C122 0.947 . S
C179 C122 1.392 . S
C179 C123 1.419 . S
C179 H161 0.948 . S
C180 C181 1.391 . S
C180 C184 1.391 . S
C180 H222 0.948 . S
C181 C180 1.391 . S
C181 C182 1.391 . S
C182 C181 1.391 . S
C182 H238 0.947 . S
C182 C239 1.392 . S
C183 C184 1.391 . S
C183 C187 1.397 . S
C183 C239 1.419 . S
C184 C180 1.391 . S
C184 C183 1.391 . S
C184 C185 1.399 . S
C185 C184 1.399 . S
C185 C188 1.396 . S
C185 C197 1.453 . S
C185 C198 1.684 . S
H186 C210 0.948 . S
C187 C183 1.397 . S
C187 C188 1.394 . S
C187 C206 1.723 . S
C188 C185 1.396 . S
C188 C187 1.394 . S
C188 C218 1.739 . S
H189 C212 0.947 . S
H190 C213 0.948 . S
H191 C219 0.982 . S
H192 C220 0.979 . S
H193 C220 0.980 . S
H194 C220 0.983 . S
H195 C219 0.979 . S
H196 C219 0.977 . S
C197 C185 1.453 . S
C197 H226 0.982 . S
C197 H227 0.979 . S
C197 H228 0.977 . S
C198 C185 1.684 . S
C198 H223 0.979 . S
C198 H224 0.980 . S
C198 H225 0.983 . S
C199 C200 1.391 . S
C199 C204 1.391 1_554 S
C199 H229 0.948 . S
C200 C199 1.391 . S
C200 C201 1.391 1_455 S
C201 C200 1.391 1_655 S
C201 C202 1.392 1_554 S
C201 H230 0.947 . S
C202 C201 1.392 1_556 S
C202 C203 1.419 1_655 S
C202 H231 0.948 . S
C203 C202 1.419 1_455 S
C203 C204 1.391 . S
C203 C207 1.397 . S
C204 C199 1.391 1_556 S
C204 C203 1.391 . S
C204 C205 1.399 . S
C205 C204 1.399 . S
C205 C206 1.396 . S
C205 C208 1.453 . S
C205 C209 1.684 . S
C206 C187 1.723 . S
C206 C205 1.396 . S
C206 C207 1.394 . S
C207 C203 1.397 . S
C207 C206 1.394 . S
C207 C217 1.723 1_455 S
C208 C205 1.453 . S
C208 H232 0.982 . S
C208 H233 0.979 . S
C208 H234 0.977 . S
C209 C205 1.684 . S
C209 H235 0.979 . S
C209 H236 0.980 . S
C209 H237 0.983 . S
C210 H186 0.948 . S
C210 C211 1.391 . S
C210 C215 1.391 . S
C211 C210 1.391 . S
C211 C212 1.391 . S
C212 H189 0.947 . S
C212 C211 1.391 . S
C212 C213 1.392 . S
C213 H190 0.948 . S
C213 C212 1.392 . S
C213 C214 1.419 . S
C214 C213 1.419 . S
C214 C215 1.391 . S
C214 C218 1.383 1_655 S
C215 C210 1.391 . S
C215 C214 1.391 . S
C215 C216 1.399 . S
C216 C215 1.399 . S
C216 C217 1.396 . S
C216 C219 1.453 . S
C216 C220 1.684 . S
C217 C207 1.723 1_655 S
C217 C216 1.396 . S
C217 C218 1.388 1_655 S
C218 C188 1.739 . S
C218 C214 1.383 1_455 S
C218 C217 1.388 1_455 S
C219 H191 0.982 . S
C219 H195 0.979 . S
C219 H196 0.977 . S
C219 C216 1.453 . S
C220 H192 0.979 . S
C220 H193 0.980 . S
C220 H194 0.983 . S
C220 C216 1.684 . S
H221 C239 0.948 . S
H222 C180 0.948 . S
H223 C198 0.979 . S
H224 C198 0.980 . S
H225 C198 0.983 . S
H226 C197 0.982 . S
H227 C197 0.979 . S
H228 C197 0.977 . S
H229 C199 0.948 . S
H230 C201 0.947 . S
H231 C202 0.948 . S
H232 C208 0.982 . S
H233 C208 0.979 . S
H234 C208 0.977 . S
H235 C209 0.979 . S
H236 C209 0.980 . S
H237 C209 0.983 . S
H238 C182 0.947 . S
C239 C182 1.392 . S
C239 C183 1.419 . S
C239 H221 0.948 . S
C240 C241 1.391 . S
C240 C244 1.391 . S
C240 H282 0.948 . S
C241 C240 1.391 . S
C241 C242 1.391 . S
C242 C241 1.391 . S
C242 H298 0.947 . S
C242 C299 1.392 . S
C243 C244 1.391 . S
C243 C247 1.397 . S
C243 C299 1.419 . S
C244 C240 1.391 . S
C244 C243 1.391 . S
C244 C245 1.399 . S
C245 C244 1.399 . S
C245 C248 1.396 . S
C245 C257 1.453 . S
C245 C258 1.684 . S
H246 C270 0.948 . S
C247 C243 1.397 . S
C247 C248 1.394 . S
C247 C266 1.723 . S
C248 C245 1.396 . S
C248 C247 1.394 . S
C248 C278 1.723 1_655 S
H249 C272 0.947 . S
H250 C273 0.948 . S
H251 C279 0.982 . S
H252 C280 0.979 . S
H253 C280 0.980 . S
H254 C280 0.983 . S
H255 C279 0.979 . S
H256 C279 0.977 . S
C257 C245 1.453 . S
C257 H286 0.982 1_655 S
C257 H287 0.979 . S
C257 H288 0.977 1_655 S
C258 C245 1.684 . S
C258 H283 0.979 . S
C258 H284 0.980 . S
C258 H285 0.983 . S
C259 C260 1.391 1_655 S
C259 C264 1.391 . S
C259 H289 0.948 . S
C260 C259 1.391 1_455 S
C260 C261 1.391 . S
C261 C260 1.391 . S
C261 C262 1.392 . S
C261 H290 0.947 . S
C262 C261 1.392 . S
C262 C263 1.419 . S
C262 H291 0.948 . S
C263 C262 1.419 . S
C263 C264 1.391 1_455 S
C263 C267 1.397 . S
C264 C259 1.391 . S
C264 C263 1.391 1_655 S
C264 C265 1.399 . S
C265 C264 1.399 . S
C265 C266 1.396 . S
C265 C268 1.453 . S
C265 C269 1.684 . S
C266 C247 1.723 . S
C266 C265 1.396 . S
C266 C267 1.394 1_655 S
C267 C263 1.397 . S
C267 C266 1.394 1_455 S
C267 C277 1.723 . S
C268 C265 1.453 . S
C268 H292 0.982 . S
C268 H293 0.979 . S
C268 H294 0.977 . S
C269 C265 1.684 . S
C269 H295 0.979 . S
C269 H296 0.980 . S
C269 H297 0.983 . S
C270 H246 0.948 . S
C270 C271 1.391 . S
C270 C275 1.391 . S
C271 C270 1.391 . S
C271 C272 1.391 . S
C272 H249 0.947 . S
C272 C271 1.391 . S
C272 C273 1.392 . S
C273 H250 0.948 . S
C273 C272 1.392 . S
C273 C274 1.419 . S
C274 C273 1.419 . S
C274 C275 1.391 . S
C274 C278 1.397 . S
C275 C270 1.391 . S
C275 C274 1.391 . S
C275 C276 1.399 . S
C276 C275 1.399 . S
C276 C277 1.396 . S
C276 C279 1.453 . S
C276 C280 1.684 . S
C277 C267 1.723 . S
C277 C276 1.396 . S
C277 C278 1.394 . S
C278 C248 1.723 1_455 S
C278 C274 1.397 . S
C278 C277 1.394 . S
C279 H251 0.982 . S
C279 H255 0.979 . S
C279 H256 0.977 . S
C279 C276 1.453 . S
C280 H252 0.979 . S
C280 H253 0.980 . S
C280 H254 0.983 . S
C280 C276 1.684 . S
H281 C299 0.948 . S
H282 C240 0.948 . S
H283 C258 0.979 . S
H284 C258 0.980 . S
H285 C258 0.983 . S
H286 C257 0.982 1_455 S
H287 C257 0.979 . S
H288 C257 0.977 1_455 S
H289 C259 0.948 . S
H290 C261 0.947 . S
H291 C262 0.948 . S
H292 C268 0.982 . S
H293 C268 0.979 . S
H294 C268 0.977 . S
H295 C269 0.979 . S
H296 C269 0.980 . S
H297 C269 0.983 . S
H298 C242 0.947 . S
C299 C242 1.392 . S
C299 C243 1.419 . S
C299 H281 0.948 . S
C300 C301 1.391 . S
C300 C304 1.391 . S
C300 H342 0.948 . S
C301 C300 1.391 . S
C301 C302 1.391 . S
C302 C301 1.391 . S
C302 H358 0.947 . S
C302 C359 1.392 . S
C303 C304 1.391 . S
C303 C307 1.397 . S
C303 C359 1.419 . S
C304 C300 1.391 . S
C304 C303 1.391 . S
C304 C305 1.399 . S
C305 C304 1.399 . S
C305 C308 1.396 1_565 S
C305 C317 1.453 1_565 S
C305 C318 1.684 . S
H306 C330 0.948 . S
C307 C303 1.397 . S
C307 C308 1.394 1_565 S
C307 C326 1.723 1_565 S
C308 C305 1.396 1_545 S
C308 C307 1.394 1_545 S
C308 C338 1.723 . S
H309 C332 0.947 . S
H310 C333 0.948 . S
H311 C339 0.982 . S
H312 C340 0.979 . S
H313 C340 0.980 . S
H314 C340 0.983 . S
H315 C339 0.979 . S
H316 C339 0.977 . S
C317 C305 1.453 1_545 S
C317 H346 0.982 . S
C317 H347 0.979 . S
C317 H348 0.977 . S
C318 C305 1.684 . S
C318 H343 0.979 . S
C318 H344 0.980 1_565 S
C318 H345 0.983 . S
C319 C320 1.391 1_565 S
C319 C324 1.391 1_565 S
C319 H349 0.948 . S
C320 C319 1.391 1_545 S
C320 C321 1.391 . S
C321 C320 1.391 . S
C321 C322 1.392 . S
C321 H350 0.947 . S
C322 C321 1.392 . S
C322 C323 1.419 . S
C322 H351 0.948 . S
C323 C322 1.419 . S
C323 C324 1.391 . S
C323 C327 1.397 . S
C324 C319 1.391 1_545 S
C324 C323 1.391 . S
C324 C325 1.399 1_545 S
C325 C324 1.399 1_565 S
C325 C326 1.396 1_565 S
C325 C328 1.453 . S
C325 C329 1.684 . S
C326 C307 1.723 1_545 S
C326 C325 1.396 1_545 S
C326 C327 1.394 . S
C327 C323 1.397 . S
C327 C326 1.394 . S
C327 C337 1.723 . S
C328 C325 1.453 . S
C328 H352 0.982 . S
C328 H353 0.979 . S
C328 H354 0.977 . S
C329 C325 1.684 . S
C329 H355 0.979 . S
C329 H356 0.980 . S
C329 H357 0.983 . S
C330 H306 0.948 . S
C330 C331 1.391 . S
C330 C335 1.391 . S
C331 C330 1.391 . S
C331 C332 1.391 . S
C332 H309 0.947 . S
C332 C331 1.391 . S
C332 C333 1.392 . S
C333 H310 0.948 . S
C333 C332 1.392 . S
C333 C334 1.419 . S
C334 C333 1.419 . S
C334 C335 1.391 . S
C334 C338 1.397 . S
C335 C330 1.391 . S
C335 C334 1.391 . S
C335 C336 1.399 . S
C336 C335 1.399 . S
C336 C337 1.396 . S
C336 C339 1.453 . S
C336 C340 1.684 . S
C337 C327 1.723 . S
C337 C336 1.396 . S
C337 C338 1.394 . S
C338 C308 1.723 . S
C338 C334 1.397 . S
C338 C337 1.394 . S
C339 H311 0.982 . S
C339 H315 0.979 . S
C339 H316 0.977 . S
C339 C336 1.453 . S
C340 H312 0.979 . S
C340 H313 0.980 . S
C340 H314 0.983 . S
C340 C336 1.684 . S
H341 C359 0.948 . S
H342 C300 0.948 . S
H343 C318 0.979 . S
H344 C318 0.980 1_545 S
H345 C318 0.983 . S
H346 C317 0.982 . S
H347 C317 0.979 . S
H348 C317 0.977 . S
H349 C319 0.948 . S
H350 C321 0.947 . S
H351 C322 0.948 . S
H352 C328 0.982 . S
H353 C328 0.979 . S
H354 C328 0.977 . S
H355 C329 0.979 . S
H356 C329 0.980 . S
H357 C329 0.983 . S
H358 C302 0.947 . S
C359 C302 1.392 . S
C359 C303 1.419 . S
C359 H341 0.948 . S
C360 C361 1.391 . S
C360 C364 1.391 . S
C360 H402 0.948 . S
C361 C360 1.391 . S
C361 C362 1.391 . S
C362 C361 1.391 . S
C362 H418 0.947 . S
C362 C419 1.392 . S
C363 C364 1.391 . S
C363 C367 1.397 . S
C363 C419 1.419 . S
C364 C360 1.391 . S
C364 C363 1.391 . S
C364 C365 1.399 . S
C365 C364 1.399 . S
C365 C368 1.396 . S
C365 C377 1.453 . S
C365 C378 1.684 . S
H366 C390 0.948 . S
C367 C363 1.397 . S
C367 C368 1.394 . S
C367 C386 1.723 . S
C368 C365 1.396 . S
C368 C367 1.394 . S
C368 C398 1.723 . S
H369 C392 0.947 . S
H370 C393 0.948 . S
H371 C399 0.982 . S
H372 C400 0.979 . S
H373 C400 0.980 . S
H374 C400 0.983 . S
H375 C399 0.979 . S
H376 C399 0.977 . S
C377 C365 1.453 . S
C377 H406 0.982 . S
C377 H407 0.979 . S
C377 H408 0.977 . S
C378 C365 1.684 . S
C378 H403 0.979 . S
C378 H404 0.980 . S
C378 H405 0.983 . S
C379 C380 1.391 . S
C379 C384 1.391 1_556 S
C379 H409 0.948 . S
C380 C379 1.391 . S
C380 C381 1.391 . S
C381 C380 1.391 . S
C381 C382 1.392 . S
C381 H410 0.947 . S
C382 C381 1.392 . S
C382 C383 1.419 1_556 S
C382 H411 0.948 1_556 S
C383 C382 1.419 1_554 S
C383 C384 1.391 . S
C383 C387 1.397 . S
C384 C379 1.391 1_554 S
C384 C383 1.391 . S
C384 C385 1.399 . S
C385 C384 1.399 . S
C385 C386 1.396 . S
C385 C388 1.453 . S
C385 C389 1.684 . S
C386 C367 1.723 . S
C386 C385 1.396 . S
C386 C387 1.394 . S
C387 C383 1.397 . S
C387 C386 1.394 . S
C387 C397 1.723 . S
C388 C385 1.453 . S
C388 H412 0.982 . S
C388 H413 0.979 . S
C388 H414 0.977 . S
C389 C385 1.684 . S
C389 H415 0.979 . S
C389 H416 0.980 . S
C389 H417 0.983 . S
C390 H366 0.948 . S
C390 C391 1.391 . S
C390 C395 1.391 . S
C391 C390 1.391 . S
C391 C392 1.391 . S
C392 H369 0.947 . S
C392 C391 1.391 . S
C392 C393 1.392 . S
C393 H370 0.948 . S
C393 C392 1.392 . S
C393 C394 1.419 . S
C394 C393 1.419 . S
C394 C395 1.391 . S
C394 C398 1.397 . S
C395 C390 1.391 . S
C395 C394 1.391 . S
C395 C396 1.399 . S
C396 C395 1.399 . S
C396 C397 1.396 . S
C396 C399 1.453 . S
C396 C400 1.684 . S
C397 C387 1.723 . S
C397 C396 1.396 . S
C397 C398 1.394 . S
C398 C368 1.723 . S
C398 C394 1.397 . S
C398 C397 1.394 . S
C399 H371 0.982 . S
C399 H375 0.979 . S
C399 H376 0.977 . S
C399 C396 1.453 . S
C400 H372 0.979 . S
C400 H373 0.980 . S
C400 H374 0.983 . S
C400 C396 1.684 . S
H401 C419 0.948 . S
H402 C360 0.948 . S
H403 C378 0.979 . S
H404 C378 0.980 . S
H405 C378 0.983 . S
H406 C377 0.982 . S
H407 C377 0.979 . S
H408 C377 0.977 . S
H409 C379 0.948 . S
H410 C381 0.947 . S
H411 C382 0.948 1_554 S
H412 C388 0.982 . S
H413 C388 0.979 . S
H414 C388 0.977 . S
H415 C389 0.979 . S
H416 C389 0.980 . S
H417 C389 0.983 . S
H418 C362 0.947 . S
C419 C362 1.392 . S
C419 C363 1.419 . S
C419 H401 0.948 . S
C2 C391 1.164 . S
C21 C241 0.883 . S
C42 C301 0.815 . S
C1 C361 0.884 . S
C271 C22 1.164 . S
C331 C41 1.150 . S
C38 C121 2.611 . S
C59 C211 2.925 . S
C18 C91 2.957 . S
C151 C39 2.925 . S
C181 C58 2.611 . S
C19 C61 2.609 . S
C200 C9 1.507 . S
C29 C80 1.577 . S
C49 C140 1.508 . S
C320 C28 1.217 . S
C380 C48 1.383 . S
C8 C260 1.384 . S
