# Generated by pormake.
# Topology ssc, (4,4)-cn, num edge types: 1
# Building blocks:
#     Node 0, Type 0, BuildingBlock: GALJAG_clean_sbu_0, # of connection points: 4
#     Node 1, Type 0, BuildingBlock: GALJAG_clean_sbu_0, # of connection points: 4
#     Node 2, Type 0, BuildingBlock: GALJAG_clean_sbu_0, # of connection points: 4
#     Node 3, Type 0, BuildingBlock: GALJAG_clean_sbu_0, # of connection points: 4
#     Node 4, Type 0, BuildingBlock: GALJAG_clean_sbu_0, # of connection points: 4
#     Node 5, Type 0, BuildingBlock: GALJAG_clean_sbu_0, # of connection points: 4
#     Node 6, Type 0, BuildingBlock: GALJAG_clean_sbu_0, # of connection points: 4
#     Node 7, Type 0, BuildingBlock: GALJAG_clean_sbu_0, # of connection points: 4
#     Node 8, Type 0, BuildingBlock: GALJAG_clean_sbu_0, # of connection points: 4
#     Node 9, Type 0, BuildingBlock: GALJAG_clean_sbu_0, # of connection points: 4
#     Node 10, Type 0, BuildingBlock: GALJAG_clean_sbu_0, # of connection points: 4
#     Node 11, Type 0, BuildingBlock: GALJAG_clean_sbu_0, # of connection points: 4
#     Node 12, Type 1, BuildingBlock: KUFVIS_clean_linker_0, # of connection points: 4
#     Node 13, Type 1, BuildingBlock: KUFVIS_clean_linker_0, # of connection points: 4
#     Node 14, Type 1, BuildingBlock: KUFVIS_clean_linker_0, # of connection points: 4
#     Node 15, Type 1, BuildingBlock: KUFVIS_clean_linker_0, # of connection points: 4
#     Node 16, Type 1, BuildingBlock: KUFVIS_clean_linker_0, # of connection points: 4
#     Node 17, Type 1, BuildingBlock: KUFVIS_clean_linker_0, # of connection points: 4
#     Node 18, Type 1, BuildingBlock: KUFVIS_clean_linker_0, # of connection points: 4
#     Node 19, Type 1, BuildingBlock: KUFVIS_clean_linker_0, # of connection points: 4
#     Node 20, Type 1, BuildingBlock: KUFVIS_clean_linker_0, # of connection points: 4
#     Node 21, Type 1, BuildingBlock: KUFVIS_clean_linker_0, # of connection points: 4
#     Node 22, Type 1, BuildingBlock: KUFVIS_clean_linker_0, # of connection points: 4
#     Node 23, Type 1, BuildingBlock: KUFVIS_clean_linker_0, # of connection points: 4
#     Edge 24, Type (0, 1), BuildingBlock: XIVTED_clean_linker_0, # of connection points: 2
#     Edge 25, Type (0, 1), BuildingBlock: XIVTED_clean_linker_0, # of connection points: 2
#     Edge 26, Type (0, 1), BuildingBlock: XIVTED_clean_linker_0, # of connection points: 2
#     Edge 27, Type (0, 1), BuildingBlock: XIVTED_clean_linker_0, # of connection points: 2
#     Edge 28, Type (0, 1), BuildingBlock: XIVTED_clean_linker_0, # of connection points: 2
#     Edge 29, Type (0, 1), BuildingBlock: XIVTED_clean_linker_0, # of connection points: 2
#     Edge 30, Type (0, 1), BuildingBlock: XIVTED_clean_linker_0, # of connection points: 2
#     Edge 31, Type (0, 1), BuildingBlock: XIVTED_clean_linker_0, # of connection points: 2
#     Edge 32, Type (0, 1), BuildingBlock: XIVTED_clean_linker_0, # of connection points: 2
#     Edge 33, Type (0, 1), BuildingBlock: XIVTED_clean_linker_0, # of connection points: 2
#     Edge 34, Type (0, 1), BuildingBlock: XIVTED_clean_linker_0, # of connection points: 2
#     Edge 35, Type (0, 1), BuildingBlock: XIVTED_clean_linker_0, # of connection points: 2
#     Edge 36, Type (0, 1), BuildingBlock: XIVTED_clean_linker_0, # of connection points: 2
#     Edge 37, Type (0, 1), BuildingBlock: XIVTED_clean_linker_0, # of connection points: 2
#     Edge 38, Type (0, 1), BuildingBlock: XIVTED_clean_linker_0, # of connection points: 2
#     Edge 39, Type (0, 1), BuildingBlock: XIVTED_clean_linker_0, # of connection points: 2
#     Edge 40, Type (0, 1), BuildingBlock: XIVTED_clean_linker_0, # of connection points: 2
#     Edge 41, Type (0, 1), BuildingBlock: XIVTED_clean_linker_0, # of connection points: 2
#     Edge 42, Type (0, 1), BuildingBlock: XIVTED_clean_linker_0, # of connection points: 2
#     Edge 43, Type (0, 1), BuildingBlock: XIVTED_clean_linker_0, # of connection points: 2
#     Edge 44, Type (0, 1), BuildingBlock: XIVTED_clean_linker_0, # of connection points: 2
#     Edge 45, Type (0, 1), BuildingBlock: XIVTED_clean_linker_0, # of connection points: 2
#     Edge 46, Type (0, 1), BuildingBlock: XIVTED_clean_linker_0, # of connection points: 2
#     Edge 47, Type (0, 1), BuildingBlock: XIVTED_clean_linker_0, # of connection points: 2
#     Edge 48, Type (0, 1), BuildingBlock: XIVTED_clean_linker_0, # of connection points: 2
#     Edge 49, Type (0, 1), BuildingBlock: XIVTED_clean_linker_0, # of connection points: 2
#     Edge 50, Type (0, 1), BuildingBlock: XIVTED_clean_linker_0, # of connection points: 2
#     Edge 51, Type (0, 1), BuildingBlock: XIVTED_clean_linker_0, # of connection points: 2
#     Edge 52, Type (0, 1), BuildingBlock: XIVTED_clean_linker_0, # of connection points: 2
#     Edge 53, Type (0, 1), BuildingBlock: XIVTED_clean_linker_0, # of connection points: 2
#     Edge 54, Type (0, 1), BuildingBlock: XIVTED_clean_linker_0, # of connection points: 2
#     Edge 55, Type (0, 1), BuildingBlock: XIVTED_clean_linker_0, # of connection points: 2
#     Edge 56, Type (0, 1), BuildingBlock: XIVTED_clean_linker_0, # of connection points: 2
#     Edge 57, Type (0, 1), BuildingBlock: XIVTED_clean_linker_0, # of connection points: 2
#     Edge 58, Type (0, 1), BuildingBlock: XIVTED_clean_linker_0, # of connection points: 2
#     Edge 59, Type (0, 1), BuildingBlock: XIVTED_clean_linker_0, # of connection points: 2
#     Edge 60, Type (0, 1), BuildingBlock: XIVTED_clean_linker_0, # of connection points: 2
#     Edge 61, Type (0, 1), BuildingBlock: XIVTED_clean_linker_0, # of connection points: 2
#     Edge 62, Type (0, 1), BuildingBlock: XIVTED_clean_linker_0, # of connection points: 2
#     Edge 63, Type (0, 1), BuildingBlock: XIVTED_clean_linker_0, # of connection points: 2
#     Edge 64, Type (0, 1), BuildingBlock: XIVTED_clean_linker_0, # of connection points: 2
#     Edge 65, Type (0, 1), BuildingBlock: XIVTED_clean_linker_0, # of connection points: 2
#     Edge 66, Type (0, 1), BuildingBlock: XIVTED_clean_linker_0, # of connection points: 2
#     Edge 67, Type (0, 1), BuildingBlock: XIVTED_clean_linker_0, # of connection points: 2
#     Edge 68, Type (0, 1), BuildingBlock: XIVTED_clean_linker_0, # of connection points: 2
#     Edge 69, Type (0, 1), BuildingBlock: XIVTED_clean_linker_0, # of connection points: 2
#     Edge 70, Type (0, 1), BuildingBlock: XIVTED_clean_linker_0, # of connection points: 2
#     Edge 71, Type (0, 1), BuildingBlock: XIVTED_clean_linker_0, # of connection points: 2
# Relax obj value: 0.073
# Max RMSD: 0.279
# Mean RMSD: 0.240
data_MOF--net-ssc--node1-GALJAG_clean_sbu_0--node2-KUFVIS_clean_linker_0--edge1-XIVTED_clean_linker_0
_symmetry_space_group_name_H-M    P1
_symmetry_Int_Tables_number       1
_symmetry_cell_setting            triclinic
loop_
_symmetry_equiv_pos_as_xyz
'x, y, z'
_cell_length_a     31.481579
_cell_length_b     31.492288
_cell_length_c     31.457262
_cell_angle_alpha  90.039717
_cell_angle_beta   90.000495
_cell_angle_gamma 90.074965
loop_
_atom_site_label
_atom_site_type_symbol
_atom_site_fract_x
_atom_site_fract_y
_atom_site_fract_z
_atom_type_partial_charge
In0 In 0.007 0.25728 0.12078 0.0
O1 O 0.04508 0.22906 0.1757 0.0
O2 O 0.07273 0.28004 0.14136 0.0
C3 C 0.02282 0.18968 0.07001 0.0
C4 C 0.93665 0.26038 0.17023 0.0
C5 C 0.9926 0.32479 0.06967 0.0
O6 O 0.03867 0.22587 0.06346 0.0
O7 O 0.99937 0.18745 0.10241 0.0
O8 O 0.97349 0.28982 0.06545 0.0
O9 O 0.01858 0.32601 0.10019 0.0
C10 C 0.07641 0.25366 0.17127 0.0
O11 O 0.96905 0.28287 0.17745 0.0
O12 O 0.93968 0.23675 0.13803 0.0
In13 In 0.00799 0.75261 0.36814 0.0
O14 O 0.98312 0.70749 0.4193 0.0
O15 O 0.03147 0.68492 0.37811 0.0
C16 C 0.93371 0.74654 0.32549 0.0
C17 C 0.01505 0.81854 0.42286 0.0
C18 C 0.07475 0.76598 0.31559 0.0
O19 O 0.96639 0.72597 0.31481 0.0
O20 O 0.93843 0.76968 0.35788 0.0
O21 O 0.07842 0.74877 0.35154 0.0
O22 O 0.03747 0.77733 0.30641 0.0
C23 C 0.00753 0.67736 0.40932 0.0
O24 O 0.0302 0.78233 0.4305 0.0
O25 O 0.99706 0.82179 0.38722 0.0
In26 In 0.50146 0.74678 0.62691 0.0
O27 O 0.53759 0.71975 0.57013 0.0
O28 O 0.49449 0.67889 0.60183 0.0
C29 C 0.56675 0.74151 0.68247 0.0
C30 C 0.48735 0.81636 0.57872 0.0
C31 C 0.42919 0.74723 0.67318 0.0
O32 O 0.56573 0.76827 0.65271 0.0
O33 O 0.53501 0.71709 0.68399 0.0
O34 O 0.4595 0.7725 0.68031 0.0
O35 O 0.43533 0.72195 0.64269 0.0
C36 C 0.52058 0.68354 0.5718 0.0
O37 O 0.46719 0.78207 0.57385 0.0
O38 O 0.51433 0.81579 0.60835 0.0
In39 In 0.50531 0.24855 0.87029 0.0
O40 O 0.54247 0.27552 0.81404 0.0
O41 O 0.57418 0.23222 0.85477 0.0
C42 C 0.51338 0.31877 0.91912 0.0
C43 C 0.43554 0.23992 0.82085 0.0
C44 C 0.49459 0.18014 0.92095 0.0
O45 O 0.5318 0.2843 0.92772 0.0
O46 O 0.49172 0.31805 0.88542 0.0
O47 O 0.47464 0.21441 0.92617 0.0
O48 O 0.51974 0.18008 0.88973 0.0
C49 C 0.57617 0.25548 0.82222 0.0
O50 O 0.43625 0.26243 0.85397 0.0
O51 O 0.47011 0.22144 0.81259 0.0
In52 In 0.12678 0.00127 0.24377 0.0
O53 O 0.18046 0.96218 0.27322 0.0
O54 O 0.14585 0.93499 0.22204 0.0
C55 C 0.07694 0.98898 0.31265 0.0
C56 C 0.17768 0.07029 0.2371 0.0
C57 C 0.07296 0.01412 0.178 0.0
O58 O 0.1082 0.01405 0.31288 0.0
O59 O 0.07146 0.96954 0.27803 0.0
O60 O 0.07031 0.03401 0.21267 0.0
O61 O 0.10352 0.98834 0.17598 0.0
C62 C 0.17526 0.93071 0.2489 0.0
O63 O 0.18403 0.03682 0.21599 0.0
O64 O 0.14572 0.06889 0.26115 0.0
In65 In 0.23824 0.87408 0.51078 0.0
O66 O 0.21496 0.81672 0.47227 0.0
O67 O 0.25884 0.85878 0.44315 0.0
C68 C 0.16807 0.92187 0.49789 0.0
C69 C 0.24649 0.82276 0.57918 0.0
C70 C 0.30335 0.92843 0.52483 0.0
O71 O 0.16922 0.89227 0.52489 0.0
O72 O 0.20193 0.9267 0.47704 0.0
O73 O 0.26724 0.93315 0.54149 0.0
O74 O 0.30682 0.89588 0.5018 0.0
C75 C 0.23692 0.82545 0.43986 0.0
O76 O 0.27038 0.8204 0.54711 0.0
O77 O 0.21833 0.85112 0.57686 0.0
In78 In 0.37454 0.99884 0.74018 0.0
O79 O 0.35722 0.92995 0.75418 0.0
O80 O 0.31339 0.96597 0.71804 0.0
C81 C 0.42837 0.98319 0.67506 0.0
C82 C 0.33181 0.07313 0.73922 0.0
C83 C 0.41902 0.00982 0.81284 0.0
O84 O 0.39415 0.00341 0.67027 0.0
O85 O 0.43492 0.97028 0.71239 0.0
O86 O 0.4289 0.02788 0.77844 0.0
O87 O 0.38625 0.98683 0.81076 0.0
C88 C 0.32206 0.93082 0.73509 0.0
O89 O 0.32278 0.04345 0.76461 0.0
O90 O 0.3624 0.06532 0.71455 0.0
In91 In 0.24919 0.12563 0.00858 0.0
O92 O 0.26955 0.14965 0.07397 0.0
O93 O 0.22207 0.18452 0.04143 0.0
C94 C 0.18495 0.07168 0.02759 0.0
C95 C 0.24838 0.16882 0.93442 0.0
C96 C 0.3188 0.07717 0.99538 0.0
O97 O 0.18034 0.10301 0.00312 0.0
O98 O 0.22158 0.06832 0.04339 0.0
O99 O 0.28389 0.07077 0.97682 0.0
O100 O 0.31898 0.10869 0.02016 0.0
C101 C 0.24484 0.1811 0.07422 0.0
O102 O 0.27375 0.17783 0.96419 0.0
O103 O 0.22381 0.13816 0.94214 0.0
In104 In 0.74654 0.37176 0.00154 0.0
O105 O 0.72433 0.3537 0.06802 0.0
O106 O 0.77394 0.31711 0.04082 0.0
C107 C 0.81402 0.42315 0.01575 0.0
C108 C 0.74423 0.32078 0.9324 0.0
C109 C 0.67908 0.42273 0.98634 0.0
O110 O 0.81557 0.39189 0.99073 0.0
O111 O 0.77882 0.4278 0.03428 0.0
O112 O 0.71477 0.42806 0.96899 0.0
O113 O 0.67702 0.39096 0.01062 0.0
C114 C 0.74974 0.32308 0.07222 0.0
O115 O 0.72172 0.31396 0.96486 0.0
O116 O 0.7673 0.35342 0.93474 0.0
In117 In 0.86887 0.49496 0.25108 0.0
O118 O 0.85036 0.42719 0.26822 0.0
O119 O 0.81184 0.45923 0.22321 0.0
C120 C 0.92242 0.48201 0.18516 0.0
C121 C 0.82087 0.56585 0.25656 0.0
C122 C 0.91767 0.50642 0.32072 0.0
O123 O 0.89066 0.50624 0.18252 0.0
O124 O 0.92649 0.46383 0.22059 0.0
O125 O 0.92385 0.5262 0.28645 0.0
O126 O 0.88631 0.48148 0.32015 0.0
C127 C 0.81839 0.42572 0.24417 0.0
O128 O 0.81418 0.53352 0.27926 0.0
O129 O 0.85158 0.56231 0.23107 0.0
In130 In 0.74221 0.62896 0.50428 0.0
O131 O 0.71179 0.68552 0.5385 0.0
O132 O 0.75778 0.64964 0.572 0.0
C133 C 0.68019 0.57149 0.51915 0.0
C134 C 0.74359 0.67486 0.43167 0.0
C135 C 0.81478 0.58462 0.49372 0.0
O136 O 0.71656 0.56916 0.53566 0.0
O137 O 0.67468 0.60337 0.49554 0.0
O138 O 0.81238 0.61682 0.51749 0.0
O139 O 0.78081 0.57542 0.47452 0.0
C140 C 0.73245 0.68054 0.57247 0.0
O141 O 0.76771 0.68277 0.46273 0.0
O142 O 0.71882 0.64386 0.43727 0.0
In143 In 0.63104 0.50546 0.74431 0.0
O144 O 0.68322 0.46785 0.77766 0.0
O145 O 0.6554 0.44079 0.72243 0.0
C146 C 0.57922 0.49228 0.81156 0.0
C147 C 0.68162 0.57473 0.73793 0.0
C148 C 0.57829 0.5169 0.67745 0.0
O149 O 0.57546 0.47236 0.77696 0.0
O150 O 0.6097 0.51828 0.81258 0.0
O151 O 0.57523 0.53776 0.71151 0.0
O152 O 0.60859 0.49075 0.67669 0.0
C153 C 0.68233 0.43714 0.7519 0.0
O154 O 0.64925 0.57339 0.76143 0.0
O155 O 0.6884 0.54119 0.71713 0.0
H156 H 0.91117 0.36901 0.63418 0.0
H157 H 0.95929 0.24615 0.66899 0.0
H158 H 0.01812 0.31703 0.5673 0.0
H159 H 0.98828 0.20748 0.56834 0.0
H160 H 0.11396 0.16205 0.59617 0.0
H161 H 0.06802 0.27516 0.65717 0.0
C162 C 0.93413 0.34368 0.6298 0.0
C163 C 0.96502 0.34731 0.59804 0.0
C164 C 0.93157 0.30721 0.65509 0.0
C165 C 0.96081 0.27426 0.64917 0.0
C166 C 0.99233 0.27805 0.61774 0.0
C167 C 0.99405 0.31432 0.59182 0.0
C168 C 0.0248 0.24512 0.61291 0.0
C169 C 0.01819 0.21077 0.58512 0.0
C170 C 0.05051 0.18089 0.579 0.0
C171 C 0.0892 0.18562 0.60048 0.0
C172 C 0.09562 0.21929 0.62889 0.0
C173 C 0.06323 0.24897 0.63526 0.0
H174 H 0.88979 0.65629 0.88703 0.0
H175 H 0.00815 0.69798 0.94072 0.0
H176 H 0.95606 0.7619 0.83113 0.0
H177 H 0.05075 0.74028 0.83002 0.0
H178 H 0.11821 0.83953 0.89543 0.0
H179 H 0.99908 0.79479 0.94482 0.0
C180 C 0.91656 0.67805 0.88694 0.0
C181 C 0.91904 0.70975 0.8558 0.0
C182 C 0.9488 0.67329 0.91717 0.0
C183 C 0.98333 0.70127 0.91704 0.0
C184 C 0.9858 0.73354 0.88628 0.0
C185 C 0.95403 0.73725 0.8551 0.0
C186 C 0.02131 0.7638 0.88757 0.0
C187 C 0.05306 0.76259 0.85618 0.0
C188 C 0.08842 0.78944 0.85945 0.0
C189 C 0.09128 0.81805 0.89346 0.0
C190 C 0.05894 0.82061 0.92389 0.0
C191 C 0.024 0.79325 0.92107 0.0
H192 H 0.38413 0.83793 0.11505 0.0
H193 H 0.44881 0.7337 0.17473 0.0
H194 H 0.50761 0.80074 0.07046 0.0
H195 H 0.49605 0.69992 0.06745 0.0
H196 H 0.61381 0.65725 0.12158 0.0
H197 H 0.54686 0.76131 0.17919 0.0
C198 C 0.41136 0.81689 0.11678 0.0
C199 C 0.44572 0.82312 0.08921 0.0
C200 C 0.41239 0.78504 0.1478 0.0
C201 C 0.44793 0.75856 0.15091 0.0
C202 C 0.48194 0.76375 0.12243 0.0
C203 C 0.48107 0.7964 0.09202 0.0
C204 C 0.51777 0.73407 0.12306 0.0
C205 C 0.52064 0.70266 0.09145 0.0
C206 C 0.55541 0.67505 0.09065 0.0
C207 C 0.58707 0.67897 0.1217 0.0
C208 C 0.58404 0.70972 0.15375 0.0
C209 C 0.54929 0.73738 0.15452 0.0
H210 H 0.37471 0.16619 0.38905 0.0
H211 H 0.49685 0.19827 0.44069 0.0
H212 H 0.45195 0.26022 0.32692 0.0
H213 H 0.54454 0.2327 0.32815 0.0
H214 H 0.61967 0.32621 0.39383 0.0
H215 H 0.49597 0.29357 0.44109 0.0
C216 C 0.40345 0.18524 0.3881 0.0
C217 C 0.40938 0.21421 0.35483 0.0
C218 C 0.43506 0.17881 0.41871 0.0
C219 C 0.47245 0.20272 0.41677 0.0
C220 C 0.47836 0.23257 0.38413 0.0
C221 C 0.4472 0.23765 0.3525 0.0
C222 C 0.51639 0.2596 0.38491 0.0
C223 C 0.54851 0.25492 0.35419 0.0
C224 C 0.58619 0.27843 0.35793 0.0
C225 C 0.59107 0.30703 0.39174 0.0
C226 C 0.55844 0.31315 0.42131 0.0
C227 C 0.52118 0.28921 0.41799 0.0
H228 H 0.60167 0.88385 0.34158 0.0
H229 H 0.66271 0.94603 0.23625 0.0
H230 H 0.56439 0.0103 0.30694 0.0
H231 H 0.56418 0.99197 0.19959 0.0
H232 H 0.61022 0.11524 0.16363 0.0
H233 H 0.6659 0.05087 0.27044 0.0
C234 C 0.60476 0.91116 0.32077 0.0
C235 C 0.57971 0.94712 0.3281 0.0
C236 C 0.63501 0.91067 0.28809 0.0
C237 C 0.63964 0.94631 0.26184 0.0
C238 C 0.61366 0.98199 0.26829 0.0
C239 C 0.58421 0.98262 0.30182 0.0
C240 C 0.61481 0.01765 0.2384 0.0
C241 C 0.58569 0.01844 0.20457 0.0
C242 C 0.58373 0.0538 0.17781 0.0
C243 C 0.61118 0.08808 0.18485 0.0
C244 C 0.64111 0.0871 0.21778 0.0
C245 C 0.64307 0.0517 0.24466 0.0
H246 H 0.15071 0.38161 0.39427 0.0
H247 H 0.19494 0.43447 0.51219 0.0
H248 H 0.26082 0.32863 0.45503 0.0
H249 H 0.23682 0.32696 0.55348 0.0
H250 H 0.34167 0.38831 0.61615 0.0
H251 H 0.29524 0.43776 0.49771 0.0
C252 C 0.17334 0.38172 0.4203 0.0
C253 C 0.20609 0.35171 0.42092 0.0
C254 C 0.16911 0.41151 0.45306 0.0
C255 C 0.19806 0.41142 0.48676 0.0
C256 C 0.2313 0.38168 0.48736 0.0
C257 C 0.23525 0.35166 0.45451 0.0
C258 C 0.26222 0.38265 0.52217 0.0
C259 C 0.26038 0.35209 0.55463 0.0
C260 C 0.28862 0.35456 0.5889 0.0
C261 C 0.31908 0.38702 0.5901 0.0
C262 C 0.32196 0.41667 0.55711 0.0
C263 C 0.29327 0.41471 0.52323 0.0
H264 H 0.90237 0.10569 0.84938 0.0
H265 H 0.83129 0.04318 0.75093 0.0
H266 H 0.94278 0.98353 0.80386 0.0
H267 H 0.93634 0.99706 0.70583 0.0
H268 H 0.8657 0.89332 0.65211 0.0
H269 H 0.8269 0.94694 0.77167 0.0
C270 C 0.89805 0.07888 0.82809 0.0
C271 C 0.92614 0.04452 0.83024 0.0
C272 C 0.86374 0.07854 0.79979 0.0
C273 C 0.85756 0.04343 0.77322 0.0
C274 C 0.88647 0.00946 0.77411 0.0
C275 C 0.92064 0.00985 0.8029 0.0
C276 C 0.88245 0.97531 0.74258 0.0
C277 C 0.91061 0.97423 0.70794 0.0
C278 C 0.90416 0.94511 0.67496 0.0
C279 C 0.87042 0.91625 0.67746 0.0
C280 C 0.84299 0.91623 0.71251 0.0
C281 C 0.8487 0.9461 0.74501 0.0
H282 H 0.33647 0.60313 0.87981 0.0
H283 H 0.30064 0.56225 0.00496 0.0
H284 H 0.231 0.66269 0.9429 0.0
H285 H 0.26083 0.67023 0.04166 0.0
H286 H 0.15847 0.61314 0.11198 0.0
H287 H 0.19785 0.55837 0.9933 0.0
C288 C 0.31536 0.6054 0.907 0.0
C289 C 0.28269 0.63555 0.90701 0.0
C290 C 0.32234 0.57941 0.94232 0.0
C291 C 0.2956 0.58265 0.97766 0.0
C292 C 0.26228 0.61233 0.97767 0.0
C293 C 0.25632 0.63939 0.94266 0.0
C294 C 0.23294 0.61382 0.01385 0.0
C295 C 0.23691 0.64565 0.04494 0.0
C296 C 0.21035 0.64505 0.08067 0.0
C297 C 0.1796 0.61311 0.08471 0.0
C298 C 0.17455 0.58221 0.0531 0.0
C299 C 0.20138 0.58248 0.01768 0.0
H300 H 0.63126 0.87061 0.91199 0.0
H301 H 0.68293 0.93406 0.02134 0.0
H302 H 0.75045 0.8293 0.96416 0.0
H303 H 0.72545 0.83296 0.06645 0.0
H304 H 0.83267 0.8961 0.12276 0.0
H305 H 0.78676 0.93646 0.0006 0.0
C306 C 0.65607 0.87365 0.93578 0.0
C307 C 0.69127 0.8466 0.93428 0.0
C308 C 0.65295 0.90526 0.96689 0.0
C309 C 0.68529 0.90972 0.99706 0.0
C310 C 0.7202 0.88194 0.99645 0.0
C311 C 0.72338 0.85055 0.96482 0.0
C312 C 0.75229 0.88478 0.0301 0.0
C313 C 0.74985 0.85728 0.06517 0.0
C314 C 0.77847 0.86176 0.09889 0.0
C315 C 0.80984 0.89327 0.09705 0.0
C316 C 0.81341 0.91983 0.06154 0.0
C317 C 0.78444 0.91572 0.028 0.0
H318 H 0.40104 0.62526 0.33579 0.0
H319 H 0.33061 0.5631 0.23659 0.0
H320 H 0.4421 0.50358 0.28959 0.0
H321 H 0.43558 0.5183 0.1905 0.0
H322 H 0.37207 0.40759 0.14219 0.0
H323 H 0.32912 0.4648 0.25864 0.0
C324 C 0.39726 0.59881 0.31396 0.0
C325 C 0.42546 0.56452 0.31606 0.0
C326 C 0.36286 0.59838 0.28574 0.0
C327 C 0.35706 0.56353 0.25867 0.0
C328 C 0.38622 0.52977 0.25936 0.0
C329 C 0.42006 0.52999 0.28851 0.0
C330 C 0.38263 0.49541 0.22799 0.0
C331 C 0.41096 0.49437 0.19346 0.0
C332 C 0.40668 0.46308 0.16219 0.0
C333 C 0.37491 0.43228 0.16613 0.0
C334 C 0.34726 0.43238 0.20097 0.0
C335 C 0.35071 0.46432 0.2318 0.0
H336 H 0.84692 0.12051 0.38287 0.0
H337 H 0.80255 0.07213 0.50243 0.0
H338 H 0.73821 0.17751 0.44295 0.0
H339 H 0.76314 0.17694 0.54491 0.0
H340 H 0.65965 0.11302 0.60732 0.0
H341 H 0.70152 0.07015 0.48471 0.0
C342 C 0.82439 0.12166 0.40897 0.0
C343 C 0.79208 0.15223 0.40885 0.0
C344 C 0.8286 0.09317 0.44279 0.0
C345 C 0.79972 0.09457 0.47645 0.0
C346 C 0.76687 0.12472 0.47639 0.0
C347 C 0.76341 0.15409 0.4429 0.0
C348 C 0.73549 0.12395 0.51085 0.0
C349 C 0.73884 0.15251 0.54505 0.0
C350 C 0.7118 0.14822 0.58017 0.0
C351 C 0.68099 0.11606 0.58038 0.0
C352 C 0.67672 0.08834 0.54586 0.0
C353 C 0.70413 0.09216 0.51111 0.0
H354 H 0.09545 0.3779 0.83181 0.0
H355 H 0.16554 0.42629 0.72509 0.0
H356 H 0.07036 0.50393 0.78582 0.0
H357 H 0.0826 0.47285 0.67401 0.0
H358 H 0.15004 0.58349 0.63114 0.0
H359 H 0.1694 0.53756 0.75833 0.0
C360 C 0.10132 0.40294 0.80884 0.0
C361 C 0.07906 0.4413 0.8122 0.0
C362 C 0.13284 0.39747 0.77789 0.0
C363 C 0.14124 0.43033 0.7492 0.0
C364 C 0.1182 0.4684 0.75154 0.0
C365 C 0.08757 0.47423 0.78351 0.0
C366 C 0.1256 0.50134 0.71949 0.0
C367 C 0.10521 0.49819 0.67989 0.0
C368 C 0.1143 0.52758 0.64782 0.0
C369 C 0.14367 0.56008 0.65564 0.0
C370 C 0.16322 0.56416 0.69543 0.0
C371 C 0.15414 0.53475 0.72756 0.0
H372 H 0.03806 0.39882 0.06577 0.0
H373 H 0.00043 0.40685 0.82045 0.0
H374 H 0.94057 0.32812 0.00027 0.0
H375 H 0.09232 0.48433 0.88585 0.0
H376 H 0.96376 0.39446 0.88783 0.0
H377 H 0.04411 0.44591 0.00438 0.0
C378 C 0.01713 0.39389 0.03891 0.0
C379 C 0.98951 0.35894 0.03766 0.0
C380 C 0.99118 0.41526 0.88747 0.0
C381 C 0.99697 0.41197 0.96689 0.0
C382 C 0.01182 0.42256 0.84892 0.0
C383 C 0.04935 0.44642 0.84797 0.0
C384 C 0.00913 0.43081 0.92536 0.0
C385 C 0.06335 0.46575 0.88555 0.0
C386 C 0.02067 0.42074 0.00375 0.0
C387 C 0.96301 0.35414 0.00216 0.0
N388 N 0.04383 0.45667 0.92302 0.0
N389 N 0.96809 0.37972 0.96779 0.0
H390 H 0.91673 0.70208 0.25259 0.0
H391 H 0.75919 0.87974 0.18113 0.0
H392 H 0.86288 0.79506 0.33766 0.0
H393 H 0.80055 0.7784 0.0991 0.0
H394 H 0.78153 0.83834 0.24284 0.0
H395 H 0.86086 0.71781 0.20108 0.0
C396 C 0.89262 0.72519 0.26079 0.0
C397 C 0.89514 0.74826 0.29885 0.0
C398 C 0.78458 0.82441 0.21153 0.0
C399 C 0.83142 0.76675 0.23997 0.0
C400 C 0.77165 0.84803 0.17638 0.0
C401 C 0.77851 0.8324 0.13529 0.0
C402 C 0.80562 0.78555 0.2053 0.0
C403 C 0.79493 0.79139 0.13047 0.0
C404 C 0.86065 0.73415 0.23138 0.0
C405 C 0.86267 0.77725 0.30821 0.0
N406 N 0.80897 0.76973 0.16507 0.0
N407 N 0.83268 0.78635 0.27857 0.0
H408 H 0.56935 0.68993 0.50033 0.0
H409 H 0.43079 0.51338 0.38559 0.0
H410 H 0.48262 0.6055 0.56472 0.0
H411 H 0.49259 0.61824 0.32309 0.0
H412 H 0.47083 0.52955 0.45068 0.0
H413 H 0.56274 0.64663 0.43624 0.0
C414 C 0.54966 0.66171 0.50129 0.0
C415 C 0.52545 0.65198 0.53741 0.0
C416 C 0.4766 0.54819 0.42232 0.0
C417 C 0.51753 0.60255 0.46419 0.0
C418 C 0.45408 0.53874 0.38519 0.0
C419 C 0.45836 0.56484 0.34937 0.0
C420 C 0.50329 0.58401 0.42332 0.0
C421 C 0.48841 0.59763 0.35032 0.0
C422 C 0.54582 0.63707 0.46466 0.0
C423 C 0.5011 0.61462 0.53718 0.0
N424 N 0.50927 0.60673 0.38697 0.0
N425 N 0.49706 0.59166 0.50078 0.0
H426 H 0.64955 0.20977 0.82987 0.0
H427 H 0.69262 0.23257 0.58299 0.0
H428 H 0.58625 0.29933 0.74778 0.0
H429 H 0.73402 0.1282 0.661 0.0
H430 H 0.67538 0.27288 0.64759 0.0
H431 H 0.70125 0.19615 0.77361 0.0
C432 C 0.64707 0.22727 0.80034 0.0
C433 C 0.6128 0.25469 0.7929 0.0
C434 C 0.68943 0.24166 0.65059 0.0
C435 C 0.67174 0.23914 0.72847 0.0
C436 C 0.69953 0.21887 0.6138 0.0
C437 C 0.71418 0.17703 0.61703 0.0
C438 C 0.69387 0.22212 0.69054 0.0
C439 C 0.72236 0.16034 0.65746 0.0
C440 C 0.67666 0.21953 0.76826 0.0
C441 C 0.61162 0.27712 0.75439 0.0
N442 N 0.71141 0.18266 0.6927 0.0
N443 N 0.64015 0.26821 0.72323 0.0
H444 H 0.95823 0.65209 0.47641 0.0
H445 H 0.14714 0.51906 0.56827 0.0
H446 H 0.06834 0.61602 0.40321 0.0
H447 H 0.02951 0.53832 0.63545 0.0
H448 H 0.11229 0.54014 0.50216 0.0
H449 H 0.97658 0.59829 0.52918 0.0
C450 C 0.98572 0.63216 0.47097 0.0
C451 C 0.01237 0.63912 0.43594 0.0
C452 C 0.09368 0.53884 0.53108 0.0
C453 C 0.03365 0.57768 0.4962 0.0
C454 C 0.11357 0.52659 0.56869 0.0
C455 C 0.09114 0.52754 0.60712 0.0
C456 C 0.05141 0.55316 0.53226 0.0
C457 C 0.04779 0.53742 0.60631 0.0
C458 C 0.99611 0.6013 0.50103 0.0
C459 C 0.04731 0.61217 0.43017 0.0
N460 N 0.02952 0.55091 0.56958 0.0
N461 N 0.05745 0.58325 0.46048 0.0
H462 H 0.57089 0.69298 0.75432 0.0
H463 H 0.73482 0.85294 0.85997 0.0
H464 H 0.63708 0.79229 0.68693 0.0
H465 H 0.64955 0.77151 0.92935 0.0
H466 H 0.71798 0.81379 0.79459 0.0
H467 H 0.61693 0.70509 0.81569 0.0
C468 C 0.59571 0.71673 0.75211 0.0
C469 C 0.59962 0.74236 0.7159 0.0
C470 C 0.70393 0.80363 0.82433 0.0
C471 C 0.65237 0.75631 0.78588 0.0
C472 C 0.71389 0.82565 0.8616 0.0
C473 C 0.69338 0.81523 0.89971 0.0
C474 C 0.67286 0.77154 0.82545 0.0
C475 C 0.66596 0.78024 0.90038 0.0
C476 C 0.62195 0.72367 0.78717 0.0
C477 C 0.63267 0.77225 0.71451 0.0
N478 N 0.65589 0.76004 0.8636 0.0
N479 N 0.65741 0.77887 0.74928 0.0
H480 H 0.46672 0.39142 0.91256 0.0
H481 H 0.48882 0.43636 0.15994 0.0
H482 H 0.55563 0.32729 0.99475 0.0
H483 H 0.3876 0.4829 0.08064 0.0
H484 H 0.52757 0.414 0.09595 0.0
H485 H 0.45153 0.44152 0.96974 0.0
C486 C 0.48392 0.38859 0.94224 0.0
C487 C 0.51177 0.35462 0.9493 0.0
C488 C 0.49739 0.43011 0.09249 0.0
C489 C 0.49462 0.41205 0.01468 0.0
C490 C 0.47557 0.44314 0.1289 0.0
C491 C 0.43511 0.46114 0.12515 0.0
C492 C 0.47825 0.43498 0.0524 0.0
C493 C 0.41878 0.46894 0.08453 0.0
C494 C 0.47526 0.41728 0.97484 0.0
C495 C 0.53334 0.35263 0.98828 0.0
N496 N 0.44015 0.45525 0.04967 0.0
N497 N 0.52375 0.38051 0.01984 0.0
H498 H 0.86546 0.21134 0.16285 0.0
H499 H 0.81647 0.2351 0.40815 0.0
H500 H 0.92494 0.30376 0.24489 0.0
H501 H 0.76709 0.13579 0.32797 0.0
H502 H 0.83793 0.27475 0.34455 0.0
H503 H 0.81299 0.19716 0.21817 0.0
C504 C 0.86696 0.2293 0.1922 0.0
C505 C 0.90021 0.258 0.19974 0.0
C506 C 0.82125 0.24488 0.34078 0.0
C507 C 0.84012 0.24198 0.26316 0.0
C508 C 0.80862 0.22256 0.37704 0.0
C509 C 0.79041 0.18218 0.37296 0.0
C510 C 0.816 0.22621 0.30049 0.0
C511 C 0.78128 0.16685 0.33217 0.0
C512 C 0.83687 0.22129 0.22374 0.0
C513 C 0.90026 0.28077 0.2381 0.0
N514 N 0.79489 0.18853 0.29745 0.0
N515 N 0.87115 0.27169 0.26872 0.0
H516 H 0.00547 0.94012 0.31734 0.0
H517 H 0.90391 0.0982 0.48494 0.0
H518 H 0.07596 0.03549 0.38626 0.0
H519 H 0.83347 0.02057 0.3969 0.0
H520 H 0.96853 0.05809 0.46757 0.0
H521 H 0.94512 0.95168 0.36459 0.0
C522 C 0.0086 0.9628 0.34306 0.0
C523 C 0.04526 0.98778 0.34719 0.0
C524 C 0.93871 0.04903 0.45295 0.0
C525 C 0.9763 0.00131 0.40116 0.0
C526 C 0.90193 0.0717 0.46304 0.0
C527 C 0.86379 0.06255 0.44201 0.0
C528 C 0.93702 0.01747 0.42136 0.0
C529 C 0.86254 0.02842 0.41358 0.0
C530 C 0.9741 0.96944 0.36999 0.0
C531 C 0.04791 0.01614 0.38151 0.0
N532 N 0.89882 0.00746 0.40358 0.0
N533 N 0.0135 0.02278 0.40674 0.0
H534 H 0.19591 0.81834 0.64999 0.0
H535 H 0.24398 0.57515 0.6675 0.0
H536 H 0.30041 0.75547 0.58751 0.0
H537 H 0.14348 0.63767 0.7359 0.0
H538 H 0.27796 0.64394 0.65549 0.0
H539 H 0.18869 0.75742 0.6976 0.0
C540 C 0.21788 0.79207 0.64684 0.0
C541 C 0.24791 0.79128 0.61391 0.0
C542 C 0.24914 0.6427 0.67425 0.0
C543 C 0.23963 0.72145 0.66796 0.0
C544 C 0.23008 0.60337 0.68146 0.0
C545 C 0.19098 0.60112 0.70249 0.0
C546 C 0.22817 0.67996 0.68715 0.0
C547 C 0.17374 0.63839 0.71956 0.0
C548 C 0.21382 0.75732 0.67411 0.0
C549 C 0.2761 0.7569 0.6118 0.0
N550 N 0.19192 0.67652 0.71061 0.0
N551 N 0.27064 0.72295 0.6378 0.0
H552 H 0.49268 0.05459 0.8239 0.0
H553 H 0.57161 0.8862 0.98793 0.0
H554 H 0.40969 0.96558 0.887 0.0
H555 H 0.65055 0.98736 0.9405 0.0
H556 H 0.50868 0.92488 0.96435 0.0
H557 H 0.54667 0.04148 0.87796 0.0
C558 C 0.48545 0.03302 0.84972 0.0
C559 C 0.44716 0.01023 0.85036 0.0
C560 C 0.53955 0.9395 0.96038 0.0
C561 C 0.50885 0.99486 0.91221 0.0
C562 C 0.57541 0.91743 0.97396 0.0
C563 C 0.61598 0.93376 0.96586 0.0
C564 C 0.54453 0.97762 0.93769 0.0
C565 C 0.61959 0.97396 0.94727 0.0
C566 C 0.51628 0.02557 0.88067 0.0
C567 C 0.43917 0.98318 0.88486 0.0
N568 N 0.58429 0.99417 0.93288 0.0
N569 N 0.47013 0.97557 0.91393 0.0
H570 H 0.29401 0.18216 0.14569 0.0
H571 H 0.26807 0.42943 0.16693 0.0
H572 H 0.19892 0.25472 0.07904 0.0
H573 H 0.3582 0.35582 0.23856 0.0
H574 H 0.22946 0.36416 0.14943 0.0
H575 H 0.30555 0.24222 0.1934 0.0
C576 C 0.27491 0.21045 0.14168 0.0
C577 C 0.24613 0.21383 0.10784 0.0
C578 C 0.25693 0.36228 0.17005 0.0
C579 C 0.25959 0.28297 0.16192 0.0
C580 C 0.27859 0.39959 0.18041 0.0
C581 C 0.31613 0.39766 0.20414 0.0
C582 C 0.27374 0.3229 0.1827 0.0
C583 C 0.32917 0.35836 0.22028 0.0
C584 C 0.28149 0.24477 0.16896 0.0
C585 C 0.22202 0.25108 0.10427 0.0
N586 N 0.3085 0.32233 0.20852 0.0
N587 N 0.22991 0.28454 0.13042 0.0
H588 H 0.0038 0.06627 0.17652 0.0
H589 H 0.8851 0.91421 0.01357 0.0
H590 H 0.06448 0.96544 0.10643 0.0
H591 H 0.82357 0.99157 0.10816 0.0
H592 H 0.95233 0.9512 0.02815 0.0
H593 H 0.94029 0.05721 0.13286 0.0
C594 C 0.00414 0.04289 0.15124 0.0
C595 C 0.03911 0.01594 0.14559 0.0
C596 C 0.92383 0.96096 0.04478 0.0
C597 C 0.96654 0.00532 0.0957 0.0
C598 C 0.88552 0.94016 0.03621 0.0
C599 C 0.84915 0.94998 0.05991 0.0
C600 C 0.92545 0.99145 0.0774 0.0
C601 C 0.85114 0.98325 0.08935 0.0
C602 C 0.96784 0.03768 0.1264 0.0
C603 C 0.03805 0.98663 0.112 0.0
N604 N 0.88886 0.00242 0.09774 0.0
N605 N 0.00201 0.98156 0.08873 0.0
H606 H 0.19902 0.74795 0.42808 0.0
H607 H 0.37684 0.68139 0.26656 0.0
H608 H 0.28483 0.83666 0.36843 0.0
H609 H 0.28051 0.59531 0.31172 0.0
H610 H 0.33382 0.74128 0.29065 0.0
H611 H 0.21821 0.69483 0.37474 0.0
C612 C 0.22128 0.75651 0.40326 0.0
C613 C 0.24118 0.79636 0.40326 0.0
C614 C 0.32138 0.70944 0.29431 0.0
C615 C 0.26354 0.73575 0.34236 0.0
C616 C 0.34588 0.67532 0.28036 0.0
C617 C 0.33216 0.63363 0.28762 0.0
C618 C 0.28353 0.70162 0.31671 0.0
C619 C 0.29204 0.62716 0.30571 0.0
C620 C 0.23227 0.72617 0.37279 0.0
C621 C 0.26934 0.80599 0.37006 0.0
N622 N 0.26949 0.66082 0.3206 0.0
N623 N 0.28027 0.77565 0.3414 0.0
H624 H 0.42685 0.01853 0.59569 0.0
H625 H 0.67664 0.0146 0.59024 0.0
H626 H 0.50504 0.94301 0.67891 0.0
H627 H 0.59986 0.09063 0.50652 0.0
H628 H 0.61399 0.97229 0.60837 0.0
H629 H 0.48805 0.02907 0.549 0.0
C630 C 0.45662 0.00326 0.60352 0.0
C631 C 0.46125 0.98083 0.64172 0.0
C632 C 0.61088 0.99748 0.58517 0.0
C633 C 0.53145 0.99334 0.58896 0.0
C634 C 0.64668 0.02138 0.57471 0.0
C635 C 0.64299 0.05601 0.54713 0.0
C636 C 0.57101 0.00921 0.56882 0.0
C637 C 0.60367 0.06404 0.52798 0.0
C638 C 0.4916 0.00938 0.57691 0.0
C639 C 0.50037 0.96138 0.65021 0.0
N640 N 0.56888 0.04136 0.53988 0.0
N641 N 0.53421 0.96885 0.62453 0.0
H642 H 0.2935 0.23999 0.91237 0.0
H643 H 0.10642 0.31567 0.76857 0.0
H644 H 0.19313 0.15742 0.86858 0.0
H645 H 0.21794 0.39162 0.7917 0.0
H646 H 0.14539 0.25257 0.79112 0.0
H647 H 0.27508 0.29059 0.85647 0.0
C648 C 0.26814 0.23213 0.89045 0.0
C649 C 0.24397 0.1951 0.89584 0.0
C650 C 0.16188 0.28275 0.79023 0.0
C651 C 0.22257 0.25282 0.83202 0.0
C652 C 0.13959 0.31868 0.77726 0.0
C653 C 0.15898 0.35868 0.77897 0.0
C654 C 0.20338 0.2872 0.80618 0.0
C655 C 0.20196 0.36119 0.79026 0.0
C656 C 0.25769 0.26098 0.85842 0.0
C657 C 0.21194 0.18612 0.86616 0.0
N658 N 0.22249 0.32603 0.80454 0.0
N659 N 0.20159 0.2152 0.83609 0.0
H660 H 0.39264 0.0769 0.04144 0.0
H661 H 0.49808 0.89231 0.0861 0.0
H662 H 0.32423 0.00624 0.94589 0.0
H663 H 0.38906 0.83577 0.02556 0.0
H664 H 0.4828 0.95933 0.04948 0.0
H665 H 0.43955 0.01637 0.05165 0.0
C666 C 0.38839 0.04909 0.0216 0.0
C667 C 0.35386 0.04613 0.99358 0.0
C668 C 0.46241 0.93225 0.04385 0.0
C669 C 0.4076 0.97656 0.00481 0.0
C670 C 0.47156 0.89386 0.0642 0.0
C671 C 0.44426 0.85902 0.0592 0.0
C672 C 0.42566 0.93542 0.01857 0.0
C673 C 0.41044 0.86228 0.03054 0.0
C674 C 0.41546 0.01443 0.02724 0.0
C675 C 0.34993 0.00951 0.96853 0.0
N676 N 0.40179 0.9 0.0117 0.0
N677 N 0.37578 0.97578 0.9755 0.0
H678 H 0.8158 0.49496 0.06436 0.0
H679 H 0.99196 0.59844 0.91602 0.0
H680 H 0.88902 0.42545 0.97165 0.0
H681 H 0.89686 0.66781 0.98563 0.0
H682 H 0.97202 0.53366 0.95485 0.0
H683 H 0.86282 0.5559 0.05465 0.0
C684 C 0.84237 0.49218 0.04265 0.0
C685 C 0.8479 0.45554 0.01792 0.0
C686 C 0.95634 0.56331 0.96247 0.0
C687 C 0.90161 0.5252 0.00649 0.0
C688 C 0.9679 0.60019 0.94058 0.0
C689 C 0.94576 0.63809 0.94778 0.0
C690 C 0.92232 0.56467 0.9914 0.0
C691 C 0.9145 0.63898 0.97935 0.0
C692 C 0.86915 0.52701 0.03706 0.0
C693 C 0.88325 0.45341 0.99082 0.0
N694 N 0.90328 0.60264 0.99964 0.0
N695 N 0.90836 0.48812 0.98519 0.0
H696 H 0.82739 0.63762 0.20836 0.0
H697 H 0.65704 0.75631 0.15455 0.0
H698 H 0.74915 0.5785 0.30409 0.0
H699 H 0.587 0.66273 0.22555 0.0
H700 H 0.72106 0.73803 0.1946 0.0
H701 H 0.77272 0.69058 0.19715 0.0
C702 C 0.79903 0.6365 0.22784 0.0
C703 C 0.79226 0.60297 0.25633 0.0
C704 C 0.69179 0.7216 0.20185 0.0
C705 C 0.7292 0.6642 0.24425 0.0
C706 C 0.65506 0.73276 0.17957 0.0
C707 C 0.61718 0.71053 0.18667 0.0
C708 C 0.69049 0.68706 0.23026 0.0
C709 C 0.6159 0.68031 0.21918 0.0
C710 C 0.76773 0.6672 0.22175 0.0
C711 C 0.75525 0.60334 0.2811 0.0
N712 N 0.65228 0.66881 0.23921 0.0
N713 N 0.72471 0.6329 0.27381 0.0
H714 H 0.60191 0.56575 0.48183 0.0
H715 H 0.61708 0.31883 0.48442 0.0
H716 H 0.68867 0.49688 0.56226 0.0
H717 H 0.51118 0.38505 0.42877 0.0
H718 H 0.63545 0.38278 0.52444 0.0
H719 H 0.55952 0.50119 0.47333 0.0
C720 C 0.61142 0.53729 0.49851 0.0
C721 C 0.64931 0.53634 0.52191 0.0
C722 C 0.60753 0.38321 0.50435 0.0
C723 C 0.60187 0.46217 0.51149 0.0
C724 C 0.59708 0.34667 0.48164 0.0
C725 C 0.5629 0.3471 0.45323 0.0
C726 C 0.58438 0.42075 0.49745 0.0
C727 C 0.53786 0.38375 0.45045 0.0
C728 C 0.58733 0.50036 0.49357 0.0
C729 C 0.66013 0.49876 0.54316 0.0
N730 N 0.5497 0.41957 0.47153 0.0
N731 N 0.63708 0.4629 0.53663 0.0
H732 H 0.24476 0.91664 0.29936 0.0
H733 H 0.33354 0.75411 0.13179 0.0
H734 H 0.1713 0.86052 0.19803 0.0
H735 H 0.40934 0.81283 0.22944 0.0
H736 H 0.26931 0.77438 0.17027 0.0
H737 H 0.29943 0.86261 0.28849 0.0
C738 C 0.23977 0.89247 0.27535 0.0
C739 C 0.2041 0.89377 0.24868 0.0
C740 C 0.29989 0.78164 0.18419 0.0
C741 C 0.26645 0.83202 0.236 0.0
C742 C 0.33652 0.76974 0.16235 0.0
C743 C 0.37644 0.78215 0.17754 0.0
C744 C 0.3034 0.80709 0.22077 0.0
C745 C 0.37891 0.80279 0.21688 0.0
C746 C 0.27095 0.86156 0.26921 0.0
C747 C 0.19884 0.86128 0.21862 0.0
N748 N 0.34278 0.81562 0.2367 0.0
N749 N 0.23009 0.83224 0.21254 0.0
H750 H 0.09671 0.92576 0.54759 0.0
H751 H 0.0782 0.16896 0.49812 0.0
H752 H 0.15944 0.98854 0.44311 0.0
H753 H 0.01268 0.10658 0.60071 0.0
H754 H 0.09001 0.09992 0.46437 0.0
H755 H 0.04901 0.98655 0.55445 0.0
C756 C 0.09975 0.95187 0.52539 0.0
C757 C 0.13281 0.95269 0.49552 0.0
C758 C 0.07193 0.10126 0.49362 0.0
C759 C 0.07875 0.02251 0.50353 0.0
C760 C 0.06492 0.1407 0.51261 0.0
C761 C 0.04463 0.14307 0.55212 0.0
C762 C 0.05969 0.06404 0.51512 0.0
C763 C 0.02845 0.10576 0.57012 0.0
C764 C 0.0725 0.98661 0.52933 0.0
C765 C 0.13499 0.98707 0.46728 0.0
N766 N 0.03718 0.06758 0.55197 0.0
N767 N 0.10899 0.02102 0.47259 0.0
H768 H 0.74254 0.41848 0.20223 0.0
H769 H 0.66613 0.24693 0.36626 0.0
H770 H 0.82574 0.35105 0.28764 0.0
H771 H 0.58313 0.30993 0.27775 0.0
H772 H 0.72728 0.2688 0.32362 0.0
H773 H 0.6872 0.36573 0.21574 0.0
C774 C 0.74947 0.39205 0.22313 0.0
C775 C 0.78833 0.38971 0.24475 0.0
C776 C 0.6957 0.27688 0.3127 0.0
C777 C 0.72524 0.32925 0.26038 0.0
C778 C 0.66083 0.264 0.33683 0.0
C779 C 0.61985 0.27701 0.32545 0.0
C780 C 0.68941 0.30402 0.27779 0.0
C781 C 0.6144 0.29939 0.28741 0.0
C782 C 0.71788 0.36188 0.23082 0.0
C783 C 0.79587 0.3545 0.27098 0.0
N784 N 0.64893 0.31319 0.26545 0.0
N785 N 0.76433 0.32606 0.27865 0.0
H786 H 0.67375 0.64926 0.78119 0.0
H787 H 0.92204 0.68517 0.77293 0.0
H788 H 0.75898 0.58108 0.69847 0.0
H789 H 0.83827 0.73697 0.86786 0.0
H790 H 0.8601 0.667 0.72909 0.0
H791 H 0.73016 0.70047 0.79602 0.0
C792 C 0.70405 0.64568 0.76535 0.0
C793 C 0.71206 0.6104 0.73938 0.0
C794 C 0.8553 0.68354 0.7589 0.0
C795 C 0.77697 0.66832 0.75683 0.0
C796 C 0.89062 0.6942 0.78365 0.0
C797 C 0.88487 0.71217 0.82396 0.0
C798 C 0.81426 0.69059 0.77505 0.0
C799 C 0.84372 0.72289 0.83692 0.0
C800 C 0.73628 0.67487 0.77388 0.0
C801 C 0.75177 0.60741 0.71939 0.0
N802 N 0.80986 0.71126 0.81286 0.0
N803 N 0.78311 0.63546 0.72929 0.0
H804 H 0.43309 0.8236 0.51141 0.0
H805 H 0.5859 0.99144 0.40229 0.0
H806 H 0.53483 0.88921 0.57585 0.0
H807 H 0.50783 0.90041 0.33626 0.0
H808 H 0.54811 0.97469 0.46862 0.0
H809 H 0.44073 0.87223 0.45146 0.0
C810 C 0.4564 0.84886 0.51336 0.0
C811 C 0.48429 0.85163 0.54801 0.0
C812 C 0.53841 0.95934 0.43935 0.0
C813 C 0.49338 0.90705 0.47949 0.0
C814 C 0.55975 0.96906 0.4016 0.0
C815 C 0.55 0.94684 0.36424 0.0
C816 C 0.50743 0.92714 0.43935 0.0
C817 C 0.51627 0.91788 0.3647 0.0
C818 C 0.46077 0.87659 0.47912 0.0
C819 C 0.5133 0.88547 0.54928 0.0
N820 N 0.49657 0.90838 0.40185 0.0
N821 N 0.51775 0.91137 0.51502 0.0
H822 H 0.35845 0.27805 0.83192 0.0
H823 H 0.31791 0.27372 0.5839 0.0
H824 H 0.4295 0.20205 0.74269 0.0
H825 H 0.26308 0.36399 0.67083 0.0
H826 H 0.34012 0.23009 0.64446 0.0
H827 H 0.30553 0.29166 0.77682 0.0
C828 C 0.36247 0.26352 0.80096 0.0
C829 C 0.39906 0.24001 0.79138 0.0
C830 C 0.32209 0.25876 0.6503 0.0
C831 C 0.33885 0.25572 0.72824 0.0
C832 C 0.30915 0.28339 0.61578 0.0
C833 C 0.2891 0.32241 0.62278 0.0
C834 C 0.31494 0.27358 0.69186 0.0
C835 C 0.27872 0.33405 0.66445 0.0
C836 C 0.33221 0.27126 0.76955 0.0
C837 C 0.40223 0.2212 0.75108 0.0
N838 N 0.29237 0.31004 0.69756 0.0
N839 N 0.37297 0.23022 0.72065 0.0
H840 H 0.98848 0.11012 0.07519 0.0
H841 H 1e-05 0.08878 0.82727 0.0
H842 H 0.06545 0.18947 0.99429 0.0
H843 H 0.92618 0.00619 0.9075 0.0
H844 H 0.04106 0.11144 0.88927 0.0
H845 H 0.9819 0.05869 0.01728 0.0
C846 C 0.00477 0.11623 0.04552 0.0
C847 C 0.02658 0.15455 0.03911 0.0
C848 C 0.01681 0.08736 0.89331 0.0
C849 C 0.01856 0.09642 0.97248 0.0
C850 C 0.99372 0.07419 0.85782 0.0
C851 C 0.95983 0.0458 0.86262 0.0
C852 C 0.00491 0.07292 0.9339 0.0
C853 C 0.95226 0.02814 0.90276 0.0
C854 C 0.00097 0.08691 0.01243 0.0
C855 C 0.04753 0.16073 0.00027 0.0
N856 N 0.97397 0.04275 0.93715 0.0
N857 N 0.04222 0.13243 0.9681 0.0
H858 H 0.15424 0.73275 0.32447 0.0
H859 H 0.18299 0.72657 0.07422 0.0
H860 H 0.07442 0.79911 0.23515 0.0
H861 H 0.23859 0.63759 0.16187 0.0
H862 H 0.16346 0.77231 0.13433 0.0
H863 H 0.20442 0.71766 0.26711 0.0
C864 C 0.14785 0.74513 0.29302 0.0
C865 C 0.10964 0.76623 0.28424 0.0
C866 C 0.18109 0.74341 0.14031 0.0
C867 C 0.16656 0.7487 0.21858 0.0
C868 C 0.19257 0.71762 0.10605 0.0
C869 C 0.21205 0.67837 0.11347 0.0
C870 C 0.18904 0.72948 0.182 0.0
C871 C 0.2234 0.66768 0.15514 0.0
C872 C 0.17645 0.73641 0.2603 0.0
C873 C 0.1031 0.78191 0.24305 0.0
N874 N 0.21109 0.69277 0.188 0.0
N875 N 0.13087 0.77207 0.21149 0.0
H876 H 0.54393 0.10888 0.92414 0.0
H877 H 0.58101 0.00102 0.10883 0.0
H878 H 0.44279 0.17344 0.9902 0.0
H879 H 0.5213 0.11125 0.1636 0.0
H880 H 0.54572 0.01639 0.04093 0.0
H881 H 0.55288 0.06221 0.98514 0.0
C882 C 0.52261 0.11223 0.95094 0.0
C883 C 0.49317 0.14555 0.95251 0.0
C884 C 0.53994 0.03694 0.0679 0.0
C885 C 0.50294 0.09205 0.0225 0.0
C886 C 0.55957 0.02781 0.10671 0.0
C887 C 0.55449 0.05548 0.14127 0.0
C888 C 0.51544 0.07408 0.06404 0.0
C889 C 0.5264 0.08964 0.1373 0.0
C890 C 0.5275 0.08528 0.9858 0.0
C891 C 0.46644 0.14861 0.98803 0.0
N892 N 0.50834 0.09831 0.09916 0.0
N893 N 0.47268 0.12288 0.02205 0.0
H894 H 0.14413 0.30796 0.17185 0.0
H895 H 0.25588 0.35501 0.35015 0.0
H896 H 0.08944 0.20266 0.2404 0.0
H897 H 0.15892 0.28053 0.41151 0.0
H898 H 0.24091 0.31816 0.28312 0.0
H899 H 0.19302 0.31987 0.23035 0.0
C900 C 0.1433 0.28652 0.19875 0.0
C901 C 0.11203 0.25494 0.20176 0.0
C902 C 0.22315 0.30945 0.31124 0.0
C903 C 0.16886 0.26764 0.26882 0.0
C904 C 0.23234 0.32989 0.34961 0.0
C905 C 0.20822 0.32083 0.3859 0.0
C906 C 0.18894 0.28065 0.30938 0.0
C907 C 0.17797 0.28833 0.38392 0.0
C908 C 0.17174 0.29299 0.23214 0.0
C909 C 0.11257 0.22791 0.23717 0.0
N910 N 0.16863 0.2699 0.34606 0.0
N911 N 0.13989 0.23549 0.26974 0.0
H912 H 0.97013 0.8925 0.41989 0.0
H913 H 0.98771 0.9227 0.6706 0.0
H914 H 0.0541 0.82038 0.50049 0.0
H915 H 0.88232 0.96412 0.59385 0.0
H916 H 0.0272 0.90535 0.60541 0.0
H917 H 0.95396 0.93914 0.47993 0.0
C918 C 0.98602 0.88718 0.44992 0.0
C919 C 0.01278 0.85208 0.45553 0.0
C920 C 0.99583 0.9192 0.60288 0.0
C921 C 0.99388 0.90465 0.52437 0.0
C922 C 0.97352 0.92927 0.63994 0.0
C923 C 0.93178 0.94432 0.63719 0.0
C924 C 0.97607 0.92439 0.56314 0.0
C925 C 0.91441 0.95218 0.59698 0.0
C926 C 0.97659 0.91363 0.48422 0.0
C927 C 0.0326 0.84663 0.49508 0.0
N928 N 0.93646 0.94164 0.56145 0.0
N929 N 0.02214 0.87217 0.52828 0.0
H930 H 0.41146 0.79399 0.74434 0.0
H931 H 0.25937 0.61483 0.8266 0.0
H932 H 0.36174 0.69301 0.66597 0.0
H933 H 0.30161 0.7197 0.90371 0.0
H934 H 0.27982 0.65399 0.76291 0.0
H935 H 0.35731 0.77822 0.79765 0.0
C936 C 0.38859 0.76905 0.73797 0.0
C937 C 0.39176 0.744 0.70125 0.0
C938 C 0.28335 0.66924 0.79353 0.0
C939 C 0.32966 0.72583 0.76201 0.0
C940 C 0.27138 0.64694 0.82985 0.0
C941 C 0.27927 0.6641 0.87016 0.0
C942 C 0.30434 0.70844 0.79779 0.0
C943 C 0.29518 0.70553 0.873 0.0
C944 C 0.35757 0.76011 0.76838 0.0
C945 C 0.36098 0.71253 0.6943 0.0
N946 N 0.30826 0.72596 0.83726 0.0
N947 N 0.33169 0.70383 0.72477 0.0
H948 H 0.57759 0.53524 0.88735 0.0
H949 H 0.32939 0.50432 0.90076 0.0
H950 H 0.50668 0.44475 0.81254 0.0
H951 H 0.39918 0.59175 0.9796 0.0
H952 H 0.39601 0.4693 0.88159 0.0
H953 H 0.51609 0.54354 0.93415 0.0
C954 C 0.54937 0.51648 0.88128 0.0
C955 C 0.54675 0.49015 0.84536 0.0
C956 C 0.39684 0.49547 0.90392 0.0
C957 C 0.47618 0.50001 0.89822 0.0
C958 C 0.35878 0.5151 0.91511 0.0
C959 C 0.35918 0.55074 0.94166 0.0
C960 C 0.43552 0.51249 0.9185 0.0
C961 C 0.39787 0.56414 0.9591 0.0
C962 C 0.51423 0.52128 0.90797 0.0
C963 C 0.50973 0.46609 0.83937 0.0
N964 N 0.43473 0.54552 0.94653 0.0
N965 N 0.47559 0.47227 0.86497 0.0
H966 H 0.79656 0.2511 0.08583 0.0
H967 H 0.62459 0.16674 0.24623 0.0
H968 H 0.69791 0.32808 0.14152 0.0
H969 H 0.72373 0.08904 0.19316 0.0
H970 H 0.66381 0.23021 0.22505 0.0
H971 H 0.7826 0.19632 0.13905 0.0
C972 C 0.77257 0.25685 0.10983 0.0
C973 C 0.74768 0.29373 0.10875 0.0
C974 C 0.6779 0.19943 0.21929 0.0
C975 C 0.73163 0.23133 0.16983 0.0
C976 C 0.65562 0.16322 0.23176 0.0
C977 C 0.67103 0.1229 0.22114 0.0
C978 C 0.71523 0.19508 0.19515 0.0
C979 C 0.71099 0.11976 0.20186 0.0
C980 C 0.76466 0.2256 0.1403 0.0
C981 C 0.71739 0.29979 0.14085 0.0
N982 N 0.73131 0.15545 0.18849 0.0
N983 N 0.70974 0.26861 0.16965 0.0
H984 H 0.91817 0.45707 0.39193 0.0
H985 H 0.09889 0.41474 0.50391 0.0
H986 H 0.98823 0.55645 0.32876 0.0
H987 H 0.15846 0.47545 0.39668 0.0
H988 H 0.03227 0.45142 0.48681 0.0
H989 H 0.97787 0.44633 0.43971 0.0
C990 C 0.94557 0.47772 0.38917 0.0
C991 C 0.94856 0.5072 0.35595 0.0
C992 C 0.05995 0.45703 0.4672 0.0
C993 C 0.01711 0.49546 0.41096 0.0
C994 C 0.09806 0.43669 0.47742 0.0
C995 C 0.13362 0.44181 0.45114 0.0
C996 C 0.05779 0.48213 0.43025 0.0
C997 C 0.13136 0.47051 0.4173 0.0
C998 C 0.97969 0.4718 0.41681 0.0
C999 C 0.98488 0.5329 0.35359 0.0
N1000 N 0.09385 0.48918 0.40746 0.0
N1001 N 0.01815 0.52571 0.38006 0.0
H1002 H 0.68646 0.75402 0.57774 0.0
H1003 H 0.84269 0.84058 0.75406 0.0
H1004 H 0.77577 0.67728 0.64764 0.0
H1005 H 0.76793 0.91875 0.67049 0.0
H1006 H 0.79913 0.77904 0.73428 0.0
H1007 H 0.69714 0.81144 0.62895 0.0
C1008 C 0.70763 0.74893 0.60439 0.0
C1009 C 0.73124 0.71137 0.60783 0.0
C1010 C 0.79131 0.8099 0.7213 0.0
C1011 C 0.74368 0.77686 0.66641 0.0
C1012 C 0.81589 0.84501 0.73292 0.0
C1013 C 0.80876 0.8844 0.71359 0.0
C1014 C 0.76008 0.81442 0.68965 0.0
C1015 C 0.77423 0.88869 0.68593 0.0
C1016 C 0.71372 0.7817 0.63364 0.0
C1017 C 0.75764 0.70613 0.64336 0.0
N1018 N 0.75163 0.85389 0.67409 0.0
N1019 N 0.76379 0.73885 0.67086 0.0
H1020 H 0.57465 0.47133 0.60348 0.0
H1021 H 0.32737 0.48892 0.60395 0.0
H1022 H 0.50593 0.56463 0.67651 0.0
H1023 H 0.39643 0.41255 0.51394 0.0
H1024 H 0.39246 0.52855 0.61948 0.0
H1025 H 0.51199 0.4611 0.55878 0.0
C1026 C 0.5467 0.49042 0.60943 0.0
C1027 C 0.54507 0.51805 0.64435 0.0
C1028 C 0.39333 0.50394 0.59544 0.0
C1029 C 0.47296 0.50582 0.59414 0.0
C1030 C 0.35613 0.48153 0.58654 0.0
C1031 C 0.35696 0.44763 0.55781 0.0
C1032 C 0.43174 0.49134 0.57639 0.0
C1033 C 0.39483 0.43868 0.53627 0.0
C1034 C 0.51085 0.48452 0.58396 0.0
C1035 C 0.50822 0.54228 0.65045 0.0
N1036 N 0.43104 0.45982 0.54666 0.0
N1037 N 0.47327 0.53487 0.62625 0.0
H1038 H 0.79357 0.32745 0.86163 0.0
H1039 H 0.7794 0.07945 0.81985 0.0
H1040 H 0.70377 0.24417 0.92311 0.0
H1041 H 0.88262 0.16041 0.78072 0.0
H1042 H 0.73745 0.14282 0.83751 0.0
H1043 H 0.81114 0.27072 0.8118 0.0
C1044 C 0.77683 0.29751 0.864 0.0
C1045 C 0.74791 0.29014 0.89708 0.0
C1046 C 0.76886 0.14671 0.82401 0.0
C1047 C 0.76855 0.22476 0.84089 0.0
C1048 C 0.79259 0.11065 0.81372 0.0
C1049 C 0.83452 0.11507 0.79948 0.0
C1050 C 0.78743 0.18714 0.81992 0.0
C1051 C 0.85048 0.15594 0.79216 0.0
C1052 C 0.78698 0.26506 0.83565 0.0
C1053 C 0.72691 0.25086 0.89854 0.0
N1054 N 0.82714 0.19044 0.80305 0.0
N1055 N 0.73831 0.21926 0.8714 0.0
H1056 H 0.99481 0.43453 0.1859 0.0
H1057 H 0.10121 0.57858 0.00739 0.0
H1058 H 0.92641 0.52578 0.11006 0.0
H1059 H 0.16844 0.51765 0.10976 0.0
H1060 H 0.03659 0.53948 0.02753 0.0
H1061 H 0.05698 0.44471 0.1406 0.0
C1062 C 0.99254 0.456 0.1591 0.0
C1063 C 0.9558 0.48018 0.15228 0.0
C1064 C 0.0658 0.53384 0.04483 0.0
C1065 C 0.02678 0.49203 0.10055 0.0
C1066 C 0.10258 0.55584 0.03319 0.0
C1067 C 0.13975 0.55125 0.05725 0.0
C1068 C 0.06657 0.50722 0.08066 0.0
C1069 C 0.14016 0.52195 0.09066 0.0
C1070 C 0.02807 0.46185 0.13334 0.0
C1071 C 0.95437 0.50698 0.11671 0.0
N1072 N 0.10392 0.50137 0.10173 0.0
N1073 N 0.98969 0.5128 0.09253 0.0
H1074 H 0.79232 0.74443 0.41304 0.0
H1075 H 0.61319 0.83076 0.26357 0.0
H1076 H 0.68914 0.66842 0.36423 0.0
H1077 H 0.71893 0.90579 0.30737 0.0
H1078 H 0.65202 0.76618 0.28201 0.0
H1079 H 0.77767 0.79779 0.3587 0.0
C1080 C 0.76707 0.7386 0.39036 0.0
C1081 C 0.74103 0.70262 0.39394 0.0
C1082 C 0.66743 0.79662 0.28646 0.0
C1083 C 0.72394 0.76359 0.3318 0.0
C1084 C 0.64533 0.83342 0.27563 0.0
C1085 C 0.66292 0.87334 0.28442 0.0
C1086 C 0.70676 0.80003 0.30737 0.0
C1087 C 0.70441 0.87541 0.30029 0.0
C1088 C 0.75879 0.76903 0.35922 0.0
C1089 C 0.70934 0.69625 0.36324 0.0
N1090 N 0.72455 0.83922 0.31236 0.0
N1091 N 0.7011 0.72688 0.33402 0.0
H1092 H 0.82589 0.51137 0.4484 0.0
H1093 H 0.98556 0.42831 0.61943 0.0
H1094 H 0.88791 0.59255 0.53992 0.0
H1095 H 0.94006 0.35162 0.51557 0.0
H1096 H 0.96299 0.49208 0.58145 0.0
H1097 H 0.8787 0.45652 0.46243 0.0
C1098 C 0.85126 0.51805 0.4707 0.0
C1099 C 0.85192 0.55609 0.49388 0.0
C1100 C 0.95915 0.46152 0.56618 0.0
C1101 C 0.91239 0.49343 0.51022 0.0
C1102 C 0.97216 0.4252 0.58785 0.0
C1103 C 0.96434 0.38501 0.57048 0.0
C1104 C 0.93721 0.45735 0.52748 0.0
C1105 C 0.94657 0.38226 0.5298 0.0
C1106 C 0.8815 0.48672 0.47867 0.0
C1107 C 0.88576 0.56329 0.52196 0.0
N1108 N 0.93261 0.41797 0.51004 0.0
N1109 N 0.91416 0.53188 0.53001 0.0
H1110 H 0.38194 0.9274 0.48792 0.0
H1111 H 0.48675 0.11105 0.43452 0.0
H1112 H 0.29938 0.00555 0.56433 0.0
H1113 H 0.36964 0.16952 0.47436 0.0
H1114 H 0.46788 0.04739 0.47497 0.0
H1115 H 0.42745 0.9886 0.47541 0.0
C1116 C 0.37412 0.95725 0.50311 0.0
C1117 C 0.33634 0.96171 0.52632 0.0
C1118 C 0.44644 0.07419 0.47537 0.0
C1119 C 0.38819 0.03227 0.51216 0.0
C1120 C 0.45752 0.11072 0.4527 0.0
C1121 C 0.42924 0.14501 0.45064 0.0
C1122 C 0.40679 0.07229 0.49597 0.0
C1123 C 0.39187 0.14331 0.47468 0.0
C1124 C 0.40029 0.99237 0.49609 0.0
C1125 C 0.32781 0.00094 0.54554 0.0
N1126 N 0.38152 0.10734 0.49598 0.0
N1127 N 0.35297 0.03495 0.53716 0.0
H1128 H 0.26386 0.0973 0.78794 0.0
H1129 H 0.17564 0.23044 0.59855 0.0
H1130 H 0.33939 0.13632 0.68035 0.0
H1131 H 0.1056 0.20945 0.71426 0.0
H1132 H 0.24117 0.21166 0.63546 0.0
H1133 H 0.21172 0.15185 0.77009 0.0
C1134 C 0.26989 0.11794 0.76107 0.0
C1135 C 0.30531 0.11149 0.73481 0.0
C1136 C 0.21178 0.21229 0.65331 0.0
C1137 C 0.24572 0.17369 0.71401 0.0
C1138 C 0.17444 0.22311 0.63218 0.0
C1139 C 0.13545 0.22083 0.65342 0.0
C1140 C 0.20977 0.19787 0.69556 0.0
C1141 C 0.13524 0.21123 0.69688 0.0
C1142 C 0.24017 0.14922 0.75096 0.0
C1143 C 0.31198 0.13955 0.70087 0.0
N1144 N 0.17178 0.19899 0.71635 0.0
N1145 N 0.28195 0.16876 0.69087 0.0
H1146 H 0.19038 0.99822 0.07334 0.0
H1147 H 0.01005 0.89144 0.9324 0.0
H1148 H 0.10688 0.0673 0.98959 0.0
H1149 H 0.11595 0.8255 0.98838 0.0
H1150 H 0.02854 0.95486 0.97416 0.0
H1151 H 0.14633 0.93504 0.06376 0.0
C1152 C 0.16217 0.00039 0.05374 0.0
C1153 C 0.15286 0.03765 0.03124 0.0
C1154 C 0.04696 0.92611 0.97821 0.0
C1155 C 0.10263 0.96549 0.01989 0.0
C1156 C 0.03625 0.88996 0.95468 0.0
C1157 C 0.06183 0.85364 0.95697 0.0
C1158 C 0.08346 0.92558 0.00396 0.0
C1159 C 0.0957 0.85315 0.98577 0.0
C1160 C 0.13713 0.96428 0.04818 0.0
C1161 C 0.11554 0.03891 0.00688 0.0
N1162 N 0.10592 0.88882 0.00774 0.0
N1163 N 0.09217 0.00304 0.00114 0.0
H1164 H 0.74617 0.42493 0.80954 0.0
H1165 H 0.9301 0.34184 0.73385 0.0
H1166 H 0.69011 0.37009 0.69705 0.0
H1167 H 0.85418 0.27047 0.64525 0.0
H1168 H 0.86644 0.36035 0.77312 0.0
H1169 H 0.80609 0.37693 0.80234 0.0
C1170 C 0.74633 0.40239 0.78351 0.0
C1171 C 0.71391 0.40253 0.75296 0.0
C1172 C 0.86317 0.33928 0.74623 0.0
C1173 C 0.78323 0.34795 0.74359 0.0
C1174 C 0.89992 0.32852 0.72393 0.0
C1175 C 0.89709 0.30469 0.68652 0.0
C1176 C 0.82323 0.32678 0.73025 0.0
C1177 C 0.85742 0.28882 0.6742 0.0
C1178 C 0.78089 0.37503 0.77913 0.0
C1179 C 0.71508 0.37187 0.72065 0.0
N1180 N 0.82188 0.30093 0.69549 0.0
N1181 N 0.74958 0.34636 0.71638 0.0
H1182 H 0.60328 0.42381 0.02886 0.0
H1183 H 0.50032 0.60935 0.07591 0.0
H1184 H 0.67884 0.49623 0.94037 0.0
H1185 H 0.61909 0.66294 0.03387 0.0
H1186 H 0.51577 0.54474 0.03484 0.0
H1187 H 0.5585 0.4858 0.04031 0.0
C1188 C 0.6095 0.45233 0.01067 0.0
C1189 C 0.64536 0.45522 0.98438 0.0
C1190 C 0.53822 0.5708 0.03423 0.0
C1191 C 0.59417 0.52639 0.99718 0.0
C1192 C 0.52916 0.60778 0.05719 0.0
C1193 C 0.55896 0.64089 0.05871 0.0
C1194 C 0.5774 0.56729 0.013 0.0
C1195 C 0.59574 0.63766 0.03394 0.0
C1196 C 0.58367 0.48779 0.01702 0.0
C1197 C 0.65197 0.49291 0.96159 0.0
N1198 N 0.60416 0.60127 0.01249 0.0
N1199 N 0.62732 0.52738 0.96939 0.0
H1200 H 0.3318 0.85503 0.77578 0.0
H1201 H 0.0828 0.81647 0.77745 0.0
H1202 H 0.24223 0.92627 0.70054 0.0
H1203 H 0.17076 0.76604 0.86927 0.0
H1204 H 0.143 0.83765 0.73249 0.0
H1205 H 0.2757 0.80426 0.79303 0.0
C1206 C 0.30054 0.85945 0.7621 0.0
C1207 C 0.2913 0.89548 0.73764 0.0
C1208 C 0.14908 0.82088 0.76191 0.0
C1209 C 0.22703 0.83762 0.7574 0.0
C1210 C 0.1148 0.8085 0.78729 0.0
C1211 C 0.12219 0.78996 0.82705 0.0
C1212 C 0.19074 0.8147 0.77674 0.0
C1213 C 0.16403 0.78058 0.83882 0.0
C1214 C 0.26856 0.83043 0.77194 0.0
C1215 C 0.25044 0.89936 0.72028 0.0
N1216 N 0.19683 0.79364 0.81406 0.0
N1217 N 0.21953 0.8712 0.73116 0.0
H1218 H 0.25403 0.07708 0.19588 0.0
H1219 H 0.3297 0.24626 0.36252 0.0
H1220 H 0.17026 0.14513 0.28033 0.0
H1221 H 0.41342 0.18408 0.27402 0.0
H1222 H 0.26899 0.22528 0.31891 0.0
H1223 H 0.30961 0.12944 0.21019 0.0
C1224 C 0.24705 0.10354 0.21675 0.0
C1225 C 0.20796 0.10614 0.23793 0.0
C1226 C 0.30065 0.21736 0.3081 0.0
C1227 C 0.27135 0.16604 0.25458 0.0
C1228 C 0.33529 0.22967 0.33285 0.0
C1229 C 0.37632 0.21654 0.32179 0.0
C1230 C 0.30718 0.19079 0.27277 0.0
C1231 C 0.3821 0.19472 0.28344 0.0
C1232 C 0.27879 0.13348 0.22491 0.0
C1233 C 0.20035 0.14142 0.26409 0.0
N1234 N 0.34776 0.18155 0.26077 0.0
N1235 N 0.23203 0.16955 0.2723 0.0
loop_
_geom_bond_atom_site_label_1
_geom_bond_atom_site_label_2
_geom_bond_distance
_geom_bond_site_symmetry_2
_ccdc_geom_bond_type
In0 O1 2.294 . S
In0 O2 2.326 . S
In0 O6 2.266 . S
In0 O7 2.326 1_455 S
In0 O8 2.266 1_455 S
In0 O9 2.326 . S
In0 O11 2.294 1_455 S
In0 O12 2.326 1_455 S
O1 In0 2.294 . S
O1 C10 1.240 . S
O2 In0 2.326 . S
O2 C10 1.252 . S
C3 O6 1.252 1_655 S
C3 O7 1.260 . S
C4 O11 1.240 . S
C4 O12 1.252 . S
C5 O8 1.252 1_455 S
C5 O9 1.260 . S
O6 In0 2.266 . S
O6 C3 1.252 1_455 S
O7 In0 2.326 1_655 S
O7 C3 1.260 . S
O8 In0 2.266 1_655 S
O8 C5 1.252 1_655 S
O9 In0 2.326 . S
O9 C5 1.260 . S
C10 O1 1.240 . S
C10 O2 1.252 . S
O11 In0 2.294 1_655 S
O11 C4 1.240 . S
O12 In0 2.326 1_655 S
O12 C4 1.252 . S
In13 O14 2.292 1_455 S
In13 O15 2.329 . S
In13 O19 2.262 1_455 S
In13 O20 2.323 1_455 S
In13 O21 2.271 . S
In13 O22 2.328 . S
In13 O24 2.296 . S
In13 O25 2.323 1_455 S
O14 In13 2.292 1_655 S
O14 C23 1.240 1_655 S
O15 In13 2.329 . S
O15 C23 1.252 . S
C16 O19 1.252 . S
C16 O20 1.260 . S
C17 O24 1.240 1_655 S
C17 O25 1.252 . S
C18 O21 1.252 . S
C18 O22 1.260 . S
O19 In13 2.262 1_655 S
O19 C16 1.252 . S
O20 In13 2.323 1_655 S
O20 C16 1.260 . S
O21 In13 2.271 . S
O21 C18 1.252 . S
O22 In13 2.328 . S
O22 C18 1.260 . S
C23 O14 1.240 1_455 S
C23 O15 1.252 . S
O24 In13 2.296 . S
O24 C17 1.240 1_455 S
O25 In13 2.323 1_655 S
O25 C17 1.252 . S
In26 O27 2.294 . S
In26 O28 2.326 . S
In26 O32 2.266 . S
In26 O33 2.326 . S
In26 O34 2.266 . S
In26 O35 2.326 . S
In26 O37 2.294 . S
In26 O38 2.326 . S
O27 In26 2.294 . S
O27 C36 1.240 . S
O28 In26 2.326 . S
O28 C36 1.252 . S
C29 O32 1.252 . S
C29 O33 1.260 . S
C30 O37 1.240 . S
C30 O38 1.252 . S
C31 O34 1.252 . S
C31 O35 1.260 . S
O32 In26 2.266 . S
O32 C29 1.252 . S
O33 In26 2.326 . S
O33 C29 1.260 . S
O34 In26 2.266 . S
O34 C31 1.252 . S
O35 In26 2.326 . S
O35 C31 1.260 . S
C36 O27 1.240 . S
C36 O28 1.252 . S
O37 In26 2.294 . S
O37 C30 1.240 . S
O38 In26 2.326 . S
O38 C30 1.252 . S
In39 O40 2.294 . S
In39 O41 2.326 . S
In39 O45 2.266 . S
In39 O46 2.326 . S
In39 O47 2.266 . S
In39 O48 2.326 . S
In39 O50 2.294 . S
In39 O51 2.326 . S
O40 In39 2.294 . S
O40 C49 1.240 . S
O41 In39 2.326 . S
O41 C49 1.252 . S
C42 O45 1.252 . S
C42 O46 1.260 . S
C43 O50 1.240 . S
C43 O51 1.252 . S
C44 O47 1.252 . S
C44 O48 1.260 . S
O45 In39 2.266 . S
O45 C42 1.252 . S
O46 In39 2.326 . S
O46 C42 1.260 . S
O47 In39 2.266 . S
O47 C44 1.252 . S
O48 In39 2.326 . S
O48 C44 1.260 . S
C49 O40 1.240 . S
C49 O41 1.252 . S
O50 In39 2.294 . S
O50 C43 1.240 . S
O51 In39 2.326 . S
O51 C43 1.252 . S
In52 O53 2.294 1_545 S
In52 O54 2.326 1_545 S
In52 O58 2.266 1_545 S
In52 O59 2.326 . S
In52 O60 2.266 . S
In52 O61 2.326 1_545 S
In52 O63 2.294 . S
In52 O64 2.326 . S
O53 In52 2.294 1_565 S
O53 C62 1.240 . S
O54 In52 2.326 1_565 S
O54 C62 1.252 . S
C55 O58 1.252 1_545 S
C55 O59 1.260 . S
C56 O63 1.240 . S
C56 O64 1.252 . S
C57 O60 1.252 1_565 S
C57 O61 1.260 . S
O58 In52 2.266 1_565 S
O58 C55 1.252 1_565 S
O59 In52 2.326 . S
O59 C55 1.260 . S
O60 In52 2.266 . S
O60 C57 1.252 1_545 S
O61 In52 2.326 1_565 S
O61 C57 1.260 . S
C62 O53 1.240 . S
C62 O54 1.252 . S
O63 In52 2.294 . S
O63 C56 1.240 . S
O64 In52 2.326 . S
O64 C56 1.252 . S
In65 O66 2.294 . S
In65 O67 2.326 . S
In65 O71 2.266 . S
In65 O72 2.326 . S
In65 O73 2.266 . S
In65 O74 2.326 . S
In65 O76 2.294 . S
In65 O77 2.326 . S
O66 In65 2.294 . S
O66 C75 1.240 . S
O67 In65 2.326 . S
O67 C75 1.252 . S
C68 O71 1.252 . S
C68 O72 1.260 . S
C69 O76 1.240 . S
C69 O77 1.252 . S
C70 O73 1.252 . S
C70 O74 1.260 . S
O71 In65 2.266 . S
O71 C68 1.252 . S
O72 In65 2.326 . S
O72 C68 1.260 . S
O73 In65 2.266 . S
O73 C70 1.252 . S
O74 In65 2.326 . S
O74 C70 1.260 . S
C75 O66 1.240 . S
C75 O67 1.252 . S
O76 In65 2.294 . S
O76 C69 1.240 . S
O77 In65 2.326 . S
O77 C69 1.252 . S
In78 O79 2.288 1_545 S
In78 O80 2.323 1_545 S
In78 O84 2.264 1_545 S
In78 O85 2.330 . S
In78 O86 2.268 . S
In78 O87 2.321 1_545 S
In78 O89 2.300 . S
In78 O90 2.329 . S
O79 In78 2.288 1_565 S
O79 C88 1.240 . S
O80 In78 2.323 1_565 S
O80 C88 1.252 . S
C81 O84 1.252 1_545 S
C81 O85 1.260 . S
C82 O89 1.240 . S
C82 O90 1.252 . S
C83 O86 1.252 1_565 S
C83 O87 1.260 . S
O84 In78 2.264 1_565 S
O84 C81 1.252 1_565 S
O85 In78 2.330 . S
O85 C81 1.260 . S
O86 In78 2.268 . S
O86 C83 1.252 1_545 S
O87 In78 2.321 1_565 S
O87 C83 1.260 . S
C88 O79 1.240 . S
C88 O80 1.252 . S
O89 In78 2.300 . S
O89 C82 1.240 . S
O90 In78 2.329 . S
O90 C82 1.252 . S
In91 O92 2.294 . S
In91 O93 2.326 . S
In91 O97 2.266 . S
In91 O98 2.326 1_554 S
In91 O99 2.266 1_554 S
In91 O100 2.326 . S
In91 O102 2.294 1_554 S
In91 O103 2.326 1_554 S
O92 In91 2.294 . S
O92 C101 1.240 . S
O93 In91 2.326 . S
O93 C101 1.252 . S
C94 O97 1.252 1_556 S
C94 O98 1.260 . S
C95 O102 1.240 . S
C95 O103 1.252 . S
C96 O99 1.252 1_554 S
C96 O100 1.260 . S
O97 In91 2.266 . S
O97 C94 1.252 1_554 S
O98 In91 2.326 1_556 S
O98 C94 1.260 . S
O99 In91 2.266 1_556 S
O99 C96 1.252 1_556 S
O100 In91 2.326 . S
O100 C96 1.260 . S
C101 O92 1.240 . S
C101 O93 1.252 . S
O102 In91 2.294 1_556 S
O102 C95 1.240 . S
O103 In91 2.326 1_556 S
O103 C95 1.252 . S
In104 O105 2.295 . S
In104 O106 2.327 . S
In104 O110 2.267 . S
In104 O111 2.325 1_554 S
In104 O112 2.266 1_554 S
In104 O113 2.326 . S
In104 O115 2.293 1_554 S
In104 O116 2.326 1_554 S
O105 In104 2.295 . S
O105 C114 1.240 . S
O106 In104 2.327 . S
O106 C114 1.252 . S
C107 O110 1.252 1_556 S
C107 O111 1.260 . S
C108 O115 1.240 . S
C108 O116 1.252 . S
C109 O112 1.252 1_554 S
C109 O113 1.260 . S
O110 In104 2.267 . S
O110 C107 1.252 1_554 S
O111 In104 2.325 1_556 S
O111 C107 1.260 . S
O112 In104 2.266 1_556 S
O112 C109 1.252 1_556 S
O113 In104 2.326 . S
O113 C109 1.260 . S
C114 O105 1.240 . S
C114 O106 1.252 . S
O115 In104 2.293 1_556 S
O115 C108 1.240 . S
O116 In104 2.326 1_556 S
O116 C108 1.252 . S
In117 O118 2.294 . S
In117 O119 2.326 . S
In117 O123 2.266 . S
In117 O124 2.326 . S
In117 O125 2.266 . S
In117 O126 2.326 . S
In117 O128 2.294 . S
In117 O129 2.326 . S
O118 In117 2.294 . S
O118 C127 1.240 . S
O119 In117 2.326 . S
O119 C127 1.252 . S
C120 O123 1.252 . S
C120 O124 1.260 . S
C121 O128 1.240 . S
C121 O129 1.252 . S
C122 O125 1.252 . S
C122 O126 1.260 . S
O123 In117 2.266 . S
O123 C120 1.252 . S
O124 In117 2.326 . S
O124 C120 1.260 . S
O125 In117 2.266 . S
O125 C122 1.252 . S
O126 In117 2.326 . S
O126 C122 1.260 . S
C127 O118 1.240 . S
C127 O119 1.252 . S
O128 In117 2.294 . S
O128 C121 1.240 . S
O129 In117 2.326 . S
O129 C121 1.252 . S
In130 O131 2.294 . S
In130 O132 2.326 . S
In130 O136 2.266 . S
In130 O137 2.326 . S
In130 O138 2.266 . S
In130 O139 2.326 . S
In130 O141 2.294 . S
In130 O142 2.326 . S
O131 In130 2.294 . S
O131 C140 1.240 . S
O132 In130 2.326 . S
O132 C140 1.252 . S
C133 O136 1.252 . S
C133 O137 1.260 . S
C134 O141 1.240 . S
C134 O142 1.252 . S
C135 O138 1.252 . S
C135 O139 1.260 . S
O136 In130 2.266 . S
O136 C133 1.252 . S
O137 In130 2.326 . S
O137 C133 1.260 . S
O138 In130 2.266 . S
O138 C135 1.252 . S
O139 In130 2.326 . S
O139 C135 1.260 . S
C140 O131 1.240 . S
C140 O132 1.252 . S
O141 In130 2.294 . S
O141 C134 1.240 . S
O142 In130 2.326 . S
O142 C134 1.252 . S
In143 O144 2.294 . S
In143 O145 2.326 . S
In143 O149 2.266 . S
In143 O150 2.326 . S
In143 O151 2.266 . S
In143 O152 2.326 . S
In143 O154 2.294 . S
In143 O155 2.326 . S
O144 In143 2.294 . S
O144 C153 1.240 . S
O145 In143 2.326 . S
O145 C153 1.252 . S
C146 O149 1.252 . S
C146 O150 1.260 . S
C147 O154 1.240 . S
C147 O155 1.252 . S
C148 O151 1.252 . S
C148 O152 1.260 . S
O149 In143 2.266 . S
O149 C146 1.252 . S
O150 In143 2.326 . S
O150 C146 1.260 . S
O151 In143 2.266 . S
O151 C148 1.252 . S
O152 In143 2.326 . S
O152 C148 1.260 . S
C153 O144 1.240 . S
C153 O145 1.252 . S
O154 In143 2.294 . S
O154 C147 1.240 . S
O155 In143 2.326 . S
O155 C147 1.252 . S
H156 C162 0.930 . S
H157 C165 0.931 . S
H158 C167 0.931 . S
H159 C169 0.930 . S
H160 C171 0.930 . S
H161 C173 0.931 . S
C162 H156 0.930 . S
C162 C163 1.380 . S
C162 C164 1.394 . S
C163 C162 1.380 . S
C163 C167 1.382 . S
C164 C162 1.394 . S
C164 C165 1.400 . S
C165 H157 0.931 . S
C165 C164 1.400 . S
C165 C166 1.375 . S
C166 C165 1.375 . S
C166 C167 1.415 . S
C166 C168 1.501 1_655 S
C167 H158 0.931 . S
C167 C163 1.382 . S
C167 C166 1.415 . S
C168 C166 1.501 1_455 S
C168 C169 1.384 . S
C168 C173 1.408 . S
C169 H159 0.930 . S
C169 C168 1.384 . S
C169 C170 1.389 . S
C170 C169 1.389 . S
C170 C171 1.405 . S
C171 H160 0.930 . S
C171 C170 1.405 . S
C171 C172 1.364 . S
C172 C171 1.364 . S
C172 C173 1.400 . S
C173 H161 0.931 . S
C173 C168 1.408 . S
C173 C172 1.400 . S
H174 C180 0.930 . S
H175 C183 0.931 . S
H176 C185 0.931 . S
H177 C187 0.930 . S
H178 C189 0.930 . S
H179 C191 0.931 . S
C180 H174 0.930 . S
C180 C181 1.380 . S
C180 C182 1.394 . S
C181 C180 1.380 . S
C181 C185 1.382 . S
C182 C180 1.394 . S
C182 C183 1.400 . S
C183 H175 0.931 . S
C183 C182 1.400 . S
C183 C184 1.375 . S
C184 C183 1.375 . S
C184 C185 1.415 . S
C184 C186 1.501 1_655 S
C185 H176 0.931 . S
C185 C181 1.382 . S
C185 C184 1.415 . S
C186 C184 1.501 1_455 S
C186 C187 1.384 . S
C186 C191 1.408 . S
C187 H177 0.930 . S
C187 C186 1.384 . S
C187 C188 1.389 . S
C188 C187 1.389 . S
C188 C189 1.405 . S
C189 H178 0.930 . S
C189 C188 1.405 . S
C189 C190 1.364 . S
C190 C189 1.364 . S
C190 C191 1.400 . S
C191 H179 0.931 . S
C191 C186 1.408 . S
C191 C190 1.400 . S
H192 C198 0.930 . S
H193 C201 0.931 . S
H194 C203 0.931 . S
H195 C205 0.930 . S
H196 C207 0.930 . S
H197 C209 0.931 . S
C198 H192 0.930 . S
C198 C199 1.380 . S
C198 C200 1.394 . S
C199 C198 1.380 . S
C199 C203 1.382 . S
C200 C198 1.394 . S
C200 C201 1.400 . S
C201 H193 0.931 . S
C201 C200 1.400 . S
C201 C202 1.375 . S
C202 C201 1.375 . S
C202 C203 1.415 . S
C202 C204 1.501 . S
C203 H194 0.931 . S
C203 C199 1.382 . S
C203 C202 1.415 . S
C204 C202 1.501 . S
C204 C205 1.384 . S
C204 C209 1.408 . S
C205 H195 0.930 . S
C205 C204 1.384 . S
C205 C206 1.389 . S
C206 C205 1.389 . S
C206 C207 1.405 . S
C207 H196 0.930 . S
C207 C206 1.405 . S
C207 C208 1.364 . S
C208 C207 1.364 . S
C208 C209 1.400 . S
C209 H197 0.931 . S
C209 C204 1.408 . S
C209 C208 1.400 . S
H210 C216 0.930 . S
H211 C219 0.931 . S
H212 C221 0.931 . S
H213 C223 0.930 . S
H214 C225 0.930 . S
H215 C227 0.931 . S
C216 H210 0.930 . S
C216 C217 1.380 . S
C216 C218 1.394 . S
C217 C216 1.380 . S
C217 C221 1.382 . S
C218 C216 1.394 . S
C218 C219 1.400 . S
C219 H211 0.931 . S
C219 C218 1.400 . S
C219 C220 1.375 . S
C220 C219 1.375 . S
C220 C221 1.415 . S
C220 C222 1.501 . S
C221 H212 0.931 . S
C221 C217 1.382 . S
C221 C220 1.415 . S
C222 C220 1.501 . S
C222 C223 1.384 . S
C222 C227 1.408 . S
C223 H213 0.930 . S
C223 C222 1.384 . S
C223 C224 1.389 . S
C224 C223 1.389 . S
C224 C225 1.405 . S
C225 H214 0.930 . S
C225 C224 1.405 . S
C225 C226 1.364 . S
C226 C225 1.364 . S
C226 C227 1.400 . S
C227 H215 0.931 . S
C227 C222 1.408 . S
C227 C226 1.400 . S
H228 C234 0.930 . S
H229 C237 0.931 . S
H230 C239 0.931 . S
H231 C241 0.930 . S
H232 C243 0.930 . S
H233 C245 0.931 . S
C234 H228 0.930 . S
C234 C235 1.380 . S
C234 C236 1.394 . S
C235 C234 1.380 . S
C235 C239 1.382 . S
C236 C234 1.394 . S
C236 C237 1.400 . S
C237 H229 0.931 . S
C237 C236 1.400 . S
C237 C238 1.375 . S
C238 C237 1.375 . S
C238 C239 1.415 . S
C238 C240 1.501 1_565 S
C239 H230 0.931 . S
C239 C235 1.382 . S
C239 C238 1.415 . S
C240 C238 1.501 1_545 S
C240 C241 1.384 . S
C240 C245 1.408 . S
C241 H231 0.930 . S
C241 C240 1.384 . S
C241 C242 1.389 . S
C242 C241 1.389 . S
C242 C243 1.405 . S
C243 H232 0.930 . S
C243 C242 1.405 . S
C243 C244 1.364 . S
C244 C243 1.364 . S
C244 C245 1.400 . S
C245 H233 0.931 . S
C245 C240 1.408 . S
C245 C244 1.400 . S
H246 C252 0.930 . S
H247 C255 0.931 . S
H248 C257 0.931 . S
H249 C259 0.930 . S
H250 C261 0.930 . S
H251 C263 0.931 . S
C252 H246 0.930 . S
C252 C253 1.380 . S
C252 C254 1.394 . S
C253 C252 1.380 . S
C253 C257 1.382 . S
C254 C252 1.394 . S
C254 C255 1.400 . S
C255 H247 0.931 . S
C255 C254 1.400 . S
C255 C256 1.375 . S
C256 C255 1.375 . S
C256 C257 1.415 . S
C256 C258 1.501 . S
C257 H248 0.931 . S
C257 C253 1.382 . S
C257 C256 1.415 . S
C258 C256 1.501 . S
C258 C259 1.384 . S
C258 C263 1.408 . S
C259 H249 0.930 . S
C259 C258 1.384 . S
C259 C260 1.389 . S
C260 C259 1.389 . S
C260 C261 1.405 . S
C261 H250 0.930 . S
C261 C260 1.405 . S
C261 C262 1.364 . S
C262 C261 1.364 . S
C262 C263 1.400 . S
C263 H251 0.931 . S
C263 C258 1.408 . S
C263 C262 1.400 . S
H264 C270 0.930 . S
H265 C273 0.931 . S
H266 C275 0.931 . S
H267 C277 0.930 . S
H268 C279 0.930 . S
H269 C281 0.931 . S
C270 H264 0.930 . S
C270 C271 1.380 . S
C270 C272 1.394 . S
C271 C270 1.380 . S
C271 C275 1.382 . S
C272 C270 1.394 . S
C272 C273 1.400 . S
C273 H265 0.931 . S
C273 C272 1.400 . S
C273 C274 1.375 . S
C274 C273 1.375 . S
C274 C275 1.415 . S
C274 C276 1.501 1_545 S
C275 H266 0.931 . S
C275 C271 1.382 . S
C275 C274 1.415 . S
C276 C274 1.501 1_565 S
C276 C277 1.384 . S
C276 C281 1.408 . S
C277 H267 0.930 . S
C277 C276 1.384 . S
C277 C278 1.389 . S
C278 C277 1.389 . S
C278 C279 1.405 . S
C279 H268 0.930 . S
C279 C278 1.405 . S
C279 C280 1.364 . S
C280 C279 1.364 . S
C280 C281 1.400 . S
C281 H269 0.931 . S
C281 C276 1.408 . S
C281 C280 1.400 . S
H282 C288 0.930 . S
H283 C291 0.931 . S
H284 C293 0.931 . S
H285 C295 0.930 . S
H286 C297 0.930 . S
H287 C299 0.931 . S
C288 H282 0.930 . S
C288 C289 1.380 . S
C288 C290 1.394 . S
C289 C288 1.380 . S
C289 C293 1.382 . S
C290 C288 1.394 . S
C290 C291 1.400 . S
C291 H283 0.931 . S
C291 C290 1.400 . S
C291 C292 1.375 . S
C292 C291 1.375 . S
C292 C293 1.415 . S
C292 C294 1.501 1_556 S
C293 H284 0.931 . S
C293 C289 1.382 . S
C293 C292 1.415 . S
C294 C292 1.501 1_554 S
C294 C295 1.384 . S
C294 C299 1.408 . S
C295 H285 0.930 . S
C295 C294 1.384 . S
C295 C296 1.389 . S
C296 C295 1.389 . S
C296 C297 1.405 . S
C297 H286 0.930 . S
C297 C296 1.405 . S
C297 C298 1.364 . S
C298 C297 1.364 . S
C298 C299 1.400 . S
C299 H287 0.931 . S
C299 C294 1.408 . S
C299 C298 1.400 . S
H300 C306 0.930 . S
H301 C309 0.931 . S
H302 C311 0.931 . S
H303 C313 0.930 . S
H304 C315 0.930 . S
H305 C317 0.931 . S
C306 H300 0.930 . S
C306 C307 1.380 . S
C306 C308 1.394 . S
C307 C306 1.380 . S
C307 C311 1.382 . S
C308 C306 1.394 . S
C308 C309 1.400 . S
C309 H301 0.931 . S
C309 C308 1.400 . S
C309 C310 1.375 . S
C310 C309 1.375 . S
C310 C311 1.415 . S
C310 C312 1.501 1_556 S
C311 H302 0.931 . S
C311 C307 1.382 . S
C311 C310 1.415 . S
C312 C310 1.501 1_554 S
C312 C313 1.384 . S
C312 C317 1.408 . S
C313 H303 0.930 . S
C313 C312 1.384 . S
C313 C314 1.389 . S
C314 C313 1.389 . S
C314 C315 1.405 . S
C315 H304 0.930 . S
C315 C314 1.405 . S
C315 C316 1.364 . S
C316 C315 1.364 . S
C316 C317 1.400 . S
C317 H305 0.931 . S
C317 C312 1.408 . S
C317 C316 1.400 . S
H318 C324 0.930 . S
H319 C327 0.931 . S
H320 C329 0.931 . S
H321 C331 0.930 . S
H322 C333 0.930 . S
H323 C335 0.931 . S
C324 H318 0.930 . S
C324 C325 1.380 . S
C324 C326 1.394 . S
C325 C324 1.380 . S
C325 C329 1.382 . S
C326 C324 1.394 . S
C326 C327 1.400 . S
C327 H319 0.931 . S
C327 C326 1.400 . S
C327 C328 1.375 . S
C328 C327 1.375 . S
C328 C329 1.415 . S
C328 C330 1.501 . S
C329 H320 0.931 . S
C329 C325 1.382 . S
C329 C328 1.415 . S
C330 C328 1.501 . S
C330 C331 1.384 . S
C330 C335 1.408 . S
C331 H321 0.930 . S
C331 C330 1.384 . S
C331 C332 1.389 . S
C332 C331 1.389 . S
C332 C333 1.405 . S
C333 H322 0.930 . S
C333 C332 1.405 . S
C333 C334 1.364 . S
C334 C333 1.364 . S
C334 C335 1.400 . S
C335 H323 0.931 . S
C335 C330 1.408 . S
C335 C334 1.400 . S
H336 C342 0.930 . S
H337 C345 0.931 . S
H338 C347 0.931 . S
H339 C349 0.930 . S
H340 C351 0.930 . S
H341 C353 0.931 . S
C342 H336 0.930 . S
C342 C343 1.380 . S
C342 C344 1.394 . S
C343 C342 1.380 . S
C343 C347 1.382 . S
C344 C342 1.394 . S
C344 C345 1.400 . S
C345 H337 0.931 . S
C345 C344 1.400 . S
C345 C346 1.375 . S
C346 C345 1.375 . S
C346 C347 1.415 . S
C346 C348 1.501 . S
C347 H338 0.931 . S
C347 C343 1.382 . S
C347 C346 1.415 . S
C348 C346 1.501 . S
C348 C349 1.384 . S
C348 C353 1.408 . S
C349 H339 0.930 . S
C349 C348 1.384 . S
C349 C350 1.389 . S
C350 C349 1.389 . S
C350 C351 1.405 . S
C351 H340 0.930 . S
C351 C350 1.405 . S
C351 C352 1.364 . S
C352 C351 1.364 . S
C352 C353 1.400 . S
C353 H341 0.931 . S
C353 C348 1.408 . S
C353 C352 1.400 . S
H354 C360 0.930 . S
H355 C363 0.931 . S
H356 C365 0.931 . S
H357 C367 0.930 . S
H358 C369 0.930 . S
H359 C371 0.931 . S
C360 H354 0.930 . S
C360 C361 1.380 . S
C360 C362 1.394 . S
C361 C360 1.380 . S
C361 C365 1.382 . S
C362 C360 1.394 . S
C362 C363 1.400 . S
C363 H355 0.931 . S
C363 C362 1.400 . S
C363 C364 1.375 . S
C364 C363 1.375 . S
C364 C365 1.415 . S
C364 C366 1.501 . S
C365 H356 0.931 . S
C365 C361 1.382 . S
C365 C364 1.415 . S
C366 C364 1.501 . S
C366 C367 1.384 . S
C366 C371 1.408 . S
C367 H357 0.930 . S
C367 C366 1.384 . S
C367 C368 1.389 . S
C368 C367 1.389 . S
C368 C369 1.405 . S
C369 H358 0.930 . S
C369 C368 1.405 . S
C369 C370 1.364 . S
C370 C369 1.364 . S
C370 C371 1.400 . S
C371 H359 0.931 . S
C371 C366 1.408 . S
C371 C370 1.400 . S
H372 C378 0.930 . S
H373 C382 0.930 . S
H374 C387 0.929 1_655 S
H375 C385 0.929 . S
H376 C380 0.929 . S
H377 C386 0.929 . S
C378 H372 0.930 . S
C378 C379 1.367 . S
C378 C386 1.378 1_554 S
C379 C378 1.367 . S
C379 C387 1.433 1_554 S
C380 H376 0.929 . S
C380 C382 1.378 . S
C380 C384 1.350 . S
C381 C384 1.463 . S
C381 C386 1.350 . S
C381 N389 1.427 . S
C382 H373 0.930 . S
C382 C380 1.378 . S
C382 C383 1.367 . S
C383 C382 1.367 . S
C383 C385 1.433 . S
C384 C380 1.350 . S
C384 C381 1.463 . S
C384 N388 1.427 . S
C385 H375 0.929 . S
C385 C383 1.433 . S
C385 N388 1.384 . S
C386 H377 0.929 . S
C386 C378 1.378 1_556 S
C386 C381 1.350 . S
C387 H374 0.929 1_455 S
C387 C379 1.433 1_556 S
C387 N389 1.384 . S
N388 C384 1.427 . S
N388 C385 1.384 . S
N389 C381 1.427 . S
N389 C387 1.384 . S
H390 C396 0.930 . S
H391 C400 0.930 . S
H392 C405 0.929 . S
H393 C403 0.929 . S
H394 C398 0.929 . S
H395 C404 0.929 . S
C396 H390 0.930 . S
C396 C397 1.367 . S
C396 C404 1.378 . S
C397 C396 1.367 . S
C397 C405 1.433 . S
C398 H394 0.929 . S
C398 C400 1.378 . S
C398 C402 1.350 . S
C399 C402 1.463 . S
C399 C404 1.350 . S
C399 N407 1.427 . S
C400 H391 0.930 . S
C400 C398 1.378 . S
C400 C401 1.367 . S
C401 C400 1.367 . S
C401 C403 1.433 . S
C402 C398 1.350 . S
C402 C399 1.463 . S
C402 N406 1.427 . S
C403 H393 0.929 . S
C403 C401 1.433 . S
C403 N406 1.384 . S
C404 H395 0.929 . S
C404 C396 1.378 . S
C404 C399 1.350 . S
C405 H392 0.929 . S
C405 C397 1.433 . S
C405 N407 1.384 . S
N406 C402 1.427 . S
N406 C403 1.384 . S
N407 C399 1.427 . S
N407 C405 1.384 . S
H408 C414 0.930 . S
H409 C418 0.930 . S
H410 C423 0.929 . S
H411 C421 0.929 . S
H412 C416 0.929 . S
H413 C422 0.929 . S
C414 H408 0.930 . S
C414 C415 1.367 . S
C414 C422 1.378 . S
C415 C414 1.367 . S
C415 C423 1.433 . S
C416 H412 0.929 . S
C416 C418 1.378 . S
C416 C420 1.350 . S
C417 C420 1.463 . S
C417 C422 1.350 . S
C417 N425 1.427 . S
C418 H409 0.930 . S
C418 C416 1.378 . S
C418 C419 1.367 . S
C419 C418 1.367 . S
C419 C421 1.433 . S
C420 C416 1.350 . S
C420 C417 1.463 . S
C420 N424 1.427 . S
C421 H411 0.929 . S
C421 C419 1.433 . S
C421 N424 1.384 . S
C422 H413 0.929 . S
C422 C414 1.378 . S
C422 C417 1.350 . S
C423 H410 0.929 . S
C423 C415 1.433 . S
C423 N425 1.384 . S
N424 C420 1.427 . S
N424 C421 1.384 . S
N425 C417 1.427 . S
N425 C423 1.384 . S
H426 C432 0.930 . S
H427 C436 0.930 . S
H428 C441 0.929 . S
H429 C439 0.929 . S
H430 C434 0.929 . S
H431 C440 0.929 . S
C432 H426 0.930 . S
C432 C433 1.367 . S
C432 C440 1.378 . S
C433 C432 1.367 . S
C433 C441 1.433 . S
C434 H430 0.929 . S
C434 C436 1.378 . S
C434 C438 1.350 . S
C435 C438 1.463 . S
C435 C440 1.350 . S
C435 N443 1.427 . S
C436 H427 0.930 . S
C436 C434 1.378 . S
C436 C437 1.367 . S
C437 C436 1.367 . S
C437 C439 1.433 . S
C438 C434 1.350 . S
C438 C435 1.463 . S
C438 N442 1.427 . S
C439 H429 0.929 . S
C439 C437 1.433 . S
C439 N442 1.384 . S
C440 H431 0.929 . S
C440 C432 1.378 . S
C440 C435 1.350 . S
C441 H428 0.929 . S
C441 C433 1.433 . S
C441 N443 1.384 . S
N442 C438 1.427 . S
N442 C439 1.384 . S
N443 C435 1.427 . S
N443 C441 1.384 . S
H444 C450 0.930 1_655 S
H445 C454 0.930 . S
H446 C459 0.929 . S
H447 C457 0.929 . S
H448 C452 0.929 . S
H449 C458 0.929 . S
C450 H444 0.930 1_455 S
C450 C451 1.367 . S
C450 C458 1.378 . S
C451 C450 1.367 . S
C451 C459 1.433 . S
C452 H448 0.929 . S
C452 C454 1.378 . S
C452 C456 1.350 . S
C453 C456 1.463 . S
C453 C458 1.350 . S
C453 N461 1.427 . S
C454 H445 0.930 . S
C454 C452 1.378 . S
C454 C455 1.367 . S
C455 C454 1.367 . S
C455 C457 1.433 . S
C456 C452 1.350 . S
C456 C453 1.463 . S
C456 N460 1.427 . S
C457 H447 0.929 . S
C457 C455 1.433 . S
C457 N460 1.384 . S
C458 H449 0.929 . S
C458 C450 1.378 . S
C458 C453 1.350 . S
C459 H446 0.929 . S
C459 C451 1.433 . S
C459 N461 1.384 . S
N460 C456 1.427 . S
N460 C457 1.384 . S
N461 C453 1.427 . S
N461 C459 1.384 . S
H462 C468 0.930 . S
H463 C472 0.930 . S
H464 C477 0.929 . S
H465 C475 0.929 . S
H466 C470 0.929 . S
H467 C476 0.929 . S
C468 H462 0.930 . S
C468 C469 1.367 . S
C468 C476 1.378 . S
C469 C468 1.367 . S
C469 C477 1.433 . S
C470 H466 0.929 . S
C470 C472 1.378 . S
C470 C474 1.350 . S
C471 C474 1.463 . S
C471 C476 1.350 . S
C471 N479 1.427 . S
C472 H463 0.930 . S
C472 C470 1.378 . S
C472 C473 1.367 . S
C473 C472 1.367 . S
C473 C475 1.433 . S
C474 C470 1.350 . S
C474 C471 1.463 . S
C474 N478 1.427 . S
C475 H465 0.929 . S
C475 C473 1.433 . S
C475 N478 1.384 . S
C476 H467 0.929 . S
C476 C468 1.378 . S
C476 C471 1.350 . S
C477 H464 0.929 . S
C477 C469 1.433 . S
C477 N479 1.384 . S
N478 C474 1.427 . S
N478 C475 1.384 . S
N479 C471 1.427 . S
N479 C477 1.384 . S
H480 C486 0.930 . S
H481 C490 0.930 . S
H482 C495 0.929 . S
H483 C493 0.929 . S
H484 C488 0.929 . S
H485 C494 0.929 . S
C486 H480 0.930 . S
C486 C487 1.367 . S
C486 C494 1.378 1_556 S
C487 C486 1.367 . S
C487 C495 1.433 . S
C488 H484 0.929 . S
C488 C490 1.378 . S
C488 C492 1.350 . S
C489 C492 1.463 . S
C489 C494 1.350 . S
C489 N497 1.427 . S
C490 H481 0.930 . S
C490 C488 1.378 . S
C490 C491 1.367 . S
C491 C490 1.367 . S
C491 C493 1.433 . S
C492 C488 1.350 . S
C492 C489 1.463 . S
C492 N496 1.427 . S
C493 H483 0.929 . S
C493 C491 1.433 . S
C493 N496 1.384 . S
C494 H485 0.929 . S
C494 C486 1.378 1_554 S
C494 C489 1.350 . S
C495 H482 0.929 . S
C495 C487 1.433 . S
C495 N497 1.384 1_556 S
N496 C492 1.427 . S
N496 C493 1.384 . S
N497 C489 1.427 . S
N497 C495 1.384 1_554 S
H498 C504 0.930 . S
H499 C508 0.930 . S
H500 C513 0.929 . S
H501 C511 0.929 . S
H502 C506 0.929 . S
H503 C512 0.929 . S
C504 H498 0.930 . S
C504 C505 1.367 . S
C504 C512 1.378 . S
C505 C504 1.367 . S
C505 C513 1.433 . S
C506 H502 0.929 . S
C506 C508 1.378 . S
C506 C510 1.350 . S
C507 C510 1.463 . S
C507 C512 1.350 . S
C507 N515 1.427 . S
C508 H499 0.930 . S
C508 C506 1.378 . S
C508 C509 1.367 . S
C509 C508 1.367 . S
C509 C511 1.433 . S
C510 C506 1.350 . S
C510 C507 1.463 . S
C510 N514 1.427 . S
C511 H501 0.929 . S
C511 C509 1.433 . S
C511 N514 1.384 . S
C512 H503 0.929 . S
C512 C504 1.378 . S
C512 C507 1.350 . S
C513 H500 0.929 . S
C513 C505 1.433 . S
C513 N515 1.384 . S
N514 C510 1.427 . S
N514 C511 1.384 . S
N515 C507 1.427 . S
N515 C513 1.384 . S
H516 C522 0.930 1_455 S
H517 C526 0.930 . S
H518 C531 0.929 . S
H519 C529 0.929 . S
H520 C524 0.929 . S
H521 C530 0.929 . S
C522 H516 0.930 1_655 S
C522 C523 1.367 1_655 S
C522 C530 1.378 . S
C523 C522 1.367 1_455 S
C523 C531 1.433 . S
C524 H520 0.929 . S
C524 C526 1.378 . S
C524 C528 1.350 . S
C525 C528 1.463 . S
C525 C530 1.350 . S
C525 N533 1.427 . S
C526 H517 0.930 . S
C526 C524 1.378 . S
C526 C527 1.367 . S
C527 C526 1.367 . S
C527 C529 1.433 . S
C528 C524 1.350 . S
C528 C525 1.463 . S
C528 N532 1.427 . S
C529 H519 0.929 . S
C529 C527 1.433 . S
C529 N532 1.384 . S
C530 H521 0.929 . S
C530 C522 1.378 . S
C530 C525 1.350 . S
C531 H518 0.929 . S
C531 C523 1.433 . S
C531 N533 1.384 1_455 S
N532 C528 1.427 . S
N532 C529 1.384 . S
N533 C525 1.427 . S
N533 C531 1.384 1_655 S
H534 C540 0.930 . S
H535 C544 0.930 . S
H536 C549 0.929 . S
H537 C547 0.929 . S
H538 C542 0.929 . S
H539 C548 0.929 . S
C540 H534 0.930 . S
C540 C541 1.367 . S
C540 C548 1.378 . S
C541 C540 1.367 . S
C541 C549 1.433 . S
C542 H538 0.929 . S
C542 C544 1.378 . S
C542 C546 1.350 . S
C543 C546 1.463 . S
C543 C548 1.350 . S
C543 N551 1.427 . S
C544 H535 0.930 . S
C544 C542 1.378 . S
C544 C545 1.367 . S
C545 C544 1.367 . S
C545 C547 1.433 . S
C546 C542 1.350 . S
C546 C543 1.463 . S
C546 N550 1.427 . S
C547 H537 0.929 . S
C547 C545 1.433 . S
C547 N550 1.384 . S
C548 H539 0.929 . S
C548 C540 1.378 . S
C548 C543 1.350 . S
C549 H536 0.929 . S
C549 C541 1.433 . S
C549 N551 1.384 . S
N550 C546 1.427 . S
N550 C547 1.384 . S
N551 C543 1.427 . S
N551 C549 1.384 . S
H552 C558 0.930 . S
H553 C562 0.930 . S
H554 C567 0.929 . S
H555 C565 0.929 . S
H556 C560 0.929 . S
H557 C566 0.936 . S
C558 H552 0.930 . S
C558 C559 1.367 1_545 S
C558 C566 1.380 . S
C559 C558 1.367 1_565 S
C559 C567 1.433 . S
C560 H556 0.929 . S
C560 C562 1.378 . S
C560 C564 1.350 . S
C561 C564 1.463 . S
C561 C566 1.340 1_565 S
C561 N569 1.427 . S
C562 H553 0.930 . S
C562 C560 1.378 . S
C562 C563 1.367 . S
C563 C562 1.367 . S
C563 C565 1.433 . S
C564 C560 1.350 . S
C564 C561 1.463 . S
C564 N568 1.427 . S
C565 H555 0.929 . S
C565 C563 1.433 . S
C565 N568 1.384 . S
C566 H557 0.936 . S
C566 C558 1.380 . S
C566 C561 1.340 1_545 S
C567 H554 0.929 . S
C567 C559 1.433 . S
C567 N569 1.384 . S
N568 C564 1.427 . S
N568 C565 1.384 . S
N569 C561 1.427 . S
N569 C567 1.384 . S
H570 C576 0.930 . S
H571 C580 0.930 . S
H572 C585 0.929 . S
H573 C583 0.929 . S
H574 C578 0.929 . S
H575 C584 0.929 . S
C576 H570 0.930 . S
C576 C577 1.367 . S
C576 C584 1.378 . S
C577 C576 1.367 . S
C577 C585 1.433 . S
C578 H574 0.929 . S
C578 C580 1.378 . S
C578 C582 1.350 . S
C579 C582 1.463 . S
C579 C584 1.350 . S
C579 N587 1.427 . S
C580 H571 0.930 . S
C580 C578 1.378 . S
C580 C581 1.367 . S
C581 C580 1.367 . S
C581 C583 1.433 . S
C582 C578 1.350 . S
C582 C579 1.463 . S
C582 N586 1.427 . S
C583 H573 0.929 . S
C583 C581 1.433 . S
C583 N586 1.384 . S
C584 H575 0.929 . S
C584 C576 1.378 . S
C584 C579 1.350 . S
C585 H572 0.929 . S
C585 C577 1.433 . S
C585 N587 1.384 . S
N586 C582 1.427 . S
N586 C583 1.384 . S
N587 C579 1.427 . S
N587 C585 1.384 . S
H588 C594 0.930 . S
H589 C598 0.930 . S
H590 C603 0.929 . S
H591 C601 0.929 1_545 S
H592 C596 0.929 . S
H593 C602 0.929 . S
C594 H588 0.930 . S
C594 C595 1.367 1_545 S
C594 C602 1.378 1_455 S
C595 C594 1.367 1_565 S
C595 C603 1.433 . S
C596 H592 0.929 . S
C596 C598 1.378 . S
C596 C600 1.350 . S
C597 C600 1.463 . S
C597 C602 1.350 1_565 S
C597 N605 1.427 . S
C598 H589 0.930 . S
C598 C596 1.378 . S
C598 C599 1.367 . S
C599 C598 1.367 . S
C599 C601 1.433 . S
C600 C596 1.350 . S
C600 C597 1.463 . S
C600 N604 1.427 . S
C601 H591 0.929 1_565 S
C601 C599 1.433 . S
C601 N604 1.384 . S
C602 H593 0.929 . S
C602 C594 1.378 1_655 S
C602 C597 1.350 1_545 S
C603 H590 0.929 . S
C603 C595 1.433 . S
C603 N605 1.384 1_455 S
N604 C600 1.427 . S
N604 C601 1.384 . S
N605 C597 1.427 . S
N605 C603 1.384 1_655 S
H606 C612 0.930 . S
H607 C616 0.930 . S
H608 C621 0.929 . S
H609 C619 0.929 . S
H610 C614 0.929 . S
H611 C620 0.929 . S
C612 H606 0.930 . S
C612 C613 1.367 . S
C612 C620 1.378 . S
C613 C612 1.367 . S
C613 C621 1.433 . S
C614 H610 0.929 . S
C614 C616 1.378 . S
C614 C618 1.350 . S
C615 C618 1.463 . S
C615 C620 1.350 . S
C615 N623 1.427 . S
C616 H607 0.930 . S
C616 C614 1.378 . S
C616 C617 1.367 . S
C617 C616 1.367 . S
C617 C619 1.433 . S
C618 C614 1.350 . S
C618 C615 1.463 . S
C618 N622 1.427 . S
C619 H609 0.929 . S
C619 C617 1.433 . S
C619 N622 1.384 . S
C620 H611 0.929 . S
C620 C612 1.378 . S
C620 C615 1.350 . S
C621 H608 0.929 . S
C621 C613 1.433 . S
C621 N623 1.384 . S
N622 C618 1.427 . S
N622 C619 1.384 . S
N623 C615 1.427 . S
N623 C621 1.384 . S
H624 C630 0.930 1_565 S
H625 C634 0.930 . S
H626 C639 0.929 . S
H627 C637 0.929 . S
H628 C632 0.929 . S
H629 C638 0.929 . S
C630 H624 0.930 1_545 S
C630 C631 1.367 . S
C630 C638 1.378 . S
C631 C630 1.367 . S
C631 C639 1.433 . S
C632 H628 0.929 . S
C632 C634 1.378 . S
C632 C636 1.350 . S
C633 C636 1.463 . S
C633 C638 1.350 . S
C633 N641 1.427 . S
C634 H625 0.930 . S
C634 C632 1.378 . S
C634 C635 1.367 . S
C635 C634 1.367 . S
C635 C637 1.433 . S
C636 C632 1.350 . S
C636 C633 1.463 . S
C636 N640 1.427 . S
C637 H627 0.929 . S
C637 C635 1.433 . S
C637 N640 1.384 . S
C638 H629 0.929 . S
C638 C630 1.378 . S
C638 C633 1.350 . S
C639 H626 0.929 . S
C639 C631 1.433 . S
C639 N641 1.384 . S
N640 C636 1.427 . S
N640 C637 1.384 . S
N641 C633 1.427 . S
N641 C639 1.384 . S
H642 C648 0.930 . S
H643 C652 0.930 . S
H644 C657 0.929 . S
H645 C655 0.929 . S
H646 C650 0.929 . S
H647 C656 0.929 . S
C648 H642 0.930 . S
C648 C649 1.367 . S
C648 C656 1.378 . S
C649 C648 1.367 . S
C649 C657 1.433 . S
C650 H646 0.929 . S
C650 C652 1.378 . S
C650 C654 1.350 . S
C651 C654 1.463 . S
C651 C656 1.350 . S
C651 N659 1.427 . S
C652 H643 0.930 . S
C652 C650 1.378 . S
C652 C653 1.367 . S
C653 C652 1.367 . S
C653 C655 1.433 . S
C654 C650 1.350 . S
C654 C651 1.463 . S
C654 N658 1.427 . S
C655 H645 0.929 . S
C655 C653 1.433 . S
C655 N658 1.384 . S
C656 H647 0.929 . S
C656 C648 1.378 . S
C656 C651 1.350 . S
C657 H644 0.929 . S
C657 C649 1.433 . S
C657 N659 1.384 . S
N658 C654 1.427 . S
N658 C655 1.384 . S
N659 C651 1.427 . S
N659 C657 1.384 . S
H660 C666 0.930 . S
H661 C670 0.930 . S
H662 C675 0.929 . S
H663 C673 0.929 . S
H664 C668 0.922 1_556 S
H665 C674 0.929 . S
C666 H660 0.930 . S
C666 C667 1.367 . S
C666 C674 1.378 1_545 S
C667 C666 1.367 . S
C667 C675 1.433 1_554 S
C668 H664 0.922 1_554 S
C668 C670 1.378 . S
C668 C672 1.350 . S
C669 C672 1.463 . S
C669 C674 1.350 . S
C669 N677 1.427 . S
C670 H661 0.930 . S
C670 C668 1.378 . S
C670 C671 1.367 . S
C671 C670 1.367 . S
C671 C673 1.433 . S
C672 C668 1.350 . S
C672 C669 1.463 . S
C672 N676 1.427 . S
C673 H663 0.929 . S
C673 C671 1.433 . S
C673 N676 1.384 . S
C674 H665 0.929 . S
C674 C666 1.378 1_565 S
C674 C669 1.350 . S
C675 H662 0.929 . S
C675 C667 1.433 1_556 S
C675 N677 1.384 1_546 S
N676 C672 1.427 . S
N676 C673 1.384 . S
N677 C669 1.427 . S
N677 C675 1.384 1_564 S
H678 C684 0.930 . S
H679 C688 0.930 . S
H680 C693 0.929 1_554 S
H681 C691 0.929 . S
H682 C686 0.929 . S
H683 C692 0.929 . S
C684 H678 0.930 . S
C684 C685 1.367 . S
C684 C692 1.378 . S
C685 C684 1.367 . S
C685 C693 1.433 . S
C686 H682 0.929 . S
C686 C688 1.378 . S
C686 C690 1.350 . S
C687 C690 1.463 . S
C687 C692 1.350 . S
C687 N695 1.427 . S
C688 H679 0.930 . S
C688 C686 1.378 . S
C688 C689 1.367 . S
C689 C688 1.367 . S
C689 C691 1.433 . S
C690 C686 1.350 . S
C690 C687 1.463 . S
C690 N694 1.427 . S
C691 H681 0.929 . S
C691 C689 1.433 . S
C691 N694 1.384 . S
C692 H683 0.929 . S
C692 C684 1.378 . S
C692 C687 1.350 . S
C693 H680 0.929 1_556 S
C693 C685 1.433 . S
C693 N695 1.384 . S
N694 C690 1.427 . S
N694 C691 1.384 . S
N695 C687 1.427 . S
N695 C693 1.384 . S
H696 C702 0.930 . S
H697 C706 0.930 . S
H698 C711 0.929 . S
H699 C709 0.929 . S
H700 C704 0.929 . S
H701 C710 0.929 . S
C702 H696 0.930 . S
C702 C703 1.367 . S
C702 C710 1.378 . S
C703 C702 1.367 . S
C703 C711 1.433 . S
C704 H700 0.929 . S
C704 C706 1.378 . S
C704 C708 1.350 . S
C705 C708 1.463 . S
C705 C710 1.350 . S
C705 N713 1.427 . S
C706 H697 0.930 . S
C706 C704 1.378 . S
C706 C707 1.367 . S
C707 C706 1.367 . S
C707 C709 1.433 . S
C708 C704 1.350 . S
C708 C705 1.463 . S
C708 N712 1.427 . S
C709 H699 0.929 . S
C709 C707 1.433 . S
C709 N712 1.384 . S
C710 H701 0.929 . S
C710 C702 1.378 . S
C710 C705 1.350 . S
C711 H698 0.929 . S
C711 C703 1.433 . S
C711 N713 1.384 . S
N712 C708 1.427 . S
N712 C709 1.384 . S
N713 C705 1.427 . S
N713 C711 1.384 . S
H714 C720 0.930 . S
H715 C724 0.930 . S
H716 C729 0.929 . S
H717 C727 0.929 . S
H718 C722 0.929 . S
H719 C728 0.929 . S
C720 H714 0.930 . S
C720 C721 1.367 . S
C720 C728 1.378 . S
C721 C720 1.367 . S
C721 C729 1.433 . S
C722 H718 0.929 . S
C722 C724 1.378 . S
C722 C726 1.350 . S
C723 C726 1.463 . S
C723 C728 1.350 . S
C723 N731 1.427 . S
C724 H715 0.930 . S
C724 C722 1.378 . S
C724 C725 1.367 . S
C725 C724 1.367 . S
C725 C727 1.433 . S
C726 C722 1.350 . S
C726 C723 1.463 . S
C726 N730 1.427 . S
C727 H717 0.929 . S
C727 C725 1.433 . S
C727 N730 1.384 . S
C728 H719 0.929 . S
C728 C720 1.378 . S
C728 C723 1.350 . S
C729 H716 0.929 . S
C729 C721 1.433 . S
C729 N731 1.384 . S
N730 C726 1.427 . S
N730 C727 1.384 . S
N731 C723 1.427 . S
N731 C729 1.384 . S
H732 C738 0.930 . S
H733 C742 0.930 . S
H734 C747 0.929 . S
H735 C745 0.929 . S
H736 C740 0.929 . S
H737 C746 0.929 . S
C738 H732 0.930 . S
C738 C739 1.367 . S
C738 C746 1.378 . S
C739 C738 1.367 . S
C739 C747 1.433 . S
C740 H736 0.929 . S
C740 C742 1.378 . S
C740 C744 1.350 . S
C741 C744 1.463 . S
C741 C746 1.350 . S
C741 N749 1.427 . S
C742 H733 0.930 . S
C742 C740 1.378 . S
C742 C743 1.367 . S
C743 C742 1.367 . S
C743 C745 1.433 . S
C744 C740 1.350 . S
C744 C741 1.463 . S
C744 N748 1.427 . S
C745 H735 0.929 . S
C745 C743 1.433 . S
C745 N748 1.384 . S
C746 H737 0.929 . S
C746 C738 1.378 . S
C746 C741 1.350 . S
C747 H734 0.929 . S
C747 C739 1.433 . S
C747 N749 1.384 . S
N748 C744 1.427 . S
N748 C745 1.384 . S
N749 C741 1.427 . S
N749 C747 1.384 . S
H750 C756 0.930 . S
H751 C760 0.930 . S
H752 C765 0.929 . S
H753 C763 0.929 . S
H754 C758 0.929 . S
H755 C764 0.929 . S
C756 H750 0.930 . S
C756 C757 1.367 . S
C756 C764 1.378 1_565 S
C757 C756 1.367 . S
C757 C765 1.433 . S
C758 H754 0.929 . S
C758 C760 1.378 . S
C758 C762 1.350 . S
C759 C762 1.463 . S
C759 C764 1.350 . S
C759 N767 1.427 . S
C760 H751 0.930 . S
C760 C758 1.378 . S
C760 C761 1.367 . S
C761 C760 1.367 . S
C761 C763 1.433 . S
C762 C758 1.350 . S
C762 C759 1.463 . S
C762 N766 1.427 . S
C763 H753 0.929 . S
C763 C761 1.433 . S
C763 N766 1.384 . S
C764 H755 0.929 . S
C764 C756 1.378 1_545 S
C764 C759 1.350 . S
C765 H752 0.929 . S
C765 C757 1.433 . S
C765 N767 1.384 1_565 S
N766 C762 1.427 . S
N766 C763 1.384 . S
N767 C759 1.427 . S
N767 C765 1.384 1_545 S
H768 C774 0.930 . S
H769 C778 0.930 . S
H770 C783 0.929 . S
H771 C781 0.929 . S
H772 C776 0.929 . S
H773 C782 0.929 . S
C774 H768 0.930 . S
C774 C775 1.367 . S
C774 C782 1.378 . S
C775 C774 1.367 . S
C775 C783 1.433 . S
C776 H772 0.929 . S
C776 C778 1.378 . S
C776 C780 1.350 . S
C777 C780 1.463 . S
C777 C782 1.350 . S
C777 N785 1.427 . S
C778 H769 0.930 . S
C778 C776 1.378 . S
C778 C779 1.367 . S
C779 C778 1.367 . S
C779 C781 1.433 . S
C780 C776 1.350 . S
C780 C777 1.463 . S
C780 N784 1.427 . S
C781 H771 0.929 . S
C781 C779 1.433 . S
C781 N784 1.384 . S
C782 H773 0.929 . S
C782 C774 1.378 . S
C782 C777 1.350 . S
C783 H770 0.929 . S
C783 C775 1.433 . S
C783 N785 1.384 . S
N784 C780 1.427 . S
N784 C781 1.384 . S
N785 C777 1.427 . S
N785 C783 1.384 . S
H786 C792 0.930 . S
H787 C796 0.930 . S
H788 C801 0.929 . S
H789 C799 0.929 . S
H790 C794 0.929 . S
H791 C800 0.929 . S
C792 H786 0.930 . S
C792 C793 1.367 . S
C792 C800 1.378 . S
C793 C792 1.367 . S
C793 C801 1.433 . S
C794 H790 0.929 . S
C794 C796 1.378 . S
C794 C798 1.350 . S
C795 C798 1.463 . S
C795 C800 1.350 . S
C795 N803 1.427 . S
C796 H787 0.930 . S
C796 C794 1.378 . S
C796 C797 1.367 . S
C797 C796 1.367 . S
C797 C799 1.433 . S
C798 C794 1.350 . S
C798 C795 1.463 . S
C798 N802 1.427 . S
C799 H789 0.929 . S
C799 C797 1.433 . S
C799 N802 1.384 . S
C800 H791 0.929 . S
C800 C792 1.378 . S
C800 C795 1.350 . S
C801 H788 0.929 . S
C801 C793 1.433 . S
C801 N803 1.384 . S
N802 C798 1.427 . S
N802 C799 1.384 . S
N803 C795 1.427 . S
N803 C801 1.384 . S
H804 C810 0.930 . S
H805 C814 0.930 . S
H806 C819 0.929 . S
H807 C817 0.929 . S
H808 C812 0.929 . S
H809 C818 0.929 . S
C810 H804 0.930 . S
C810 C811 1.367 . S
C810 C818 1.378 . S
C811 C810 1.367 . S
C811 C819 1.433 . S
C812 H808 0.929 . S
C812 C814 1.378 . S
C812 C816 1.350 . S
C813 C816 1.463 . S
C813 C818 1.350 . S
C813 N821 1.427 . S
C814 H805 0.930 . S
C814 C812 1.378 . S
C814 C815 1.367 . S
C815 C814 1.367 . S
C815 C817 1.433 . S
C816 C812 1.350 . S
C816 C813 1.463 . S
C816 N820 1.427 . S
C817 H807 0.929 . S
C817 C815 1.433 . S
C817 N820 1.384 . S
C818 H809 0.929 . S
C818 C810 1.378 . S
C818 C813 1.350 . S
C819 H806 0.929 . S
C819 C811 1.433 . S
C819 N821 1.384 . S
N820 C816 1.427 . S
N820 C817 1.384 . S
N821 C813 1.427 . S
N821 C819 1.384 . S
H822 C828 0.930 . S
H823 C832 0.930 . S
H824 C837 0.929 . S
H825 C835 0.929 . S
H826 C830 0.929 . S
H827 C836 0.929 . S
C828 H822 0.930 . S
C828 C829 1.367 . S
C828 C836 1.378 . S
C829 C828 1.367 . S
C829 C837 1.433 . S
C830 H826 0.929 . S
C830 C832 1.378 . S
C830 C834 1.350 . S
C831 C834 1.463 . S
C831 C836 1.350 . S
C831 N839 1.427 . S
C832 H823 0.930 . S
C832 C830 1.378 . S
C832 C833 1.367 . S
C833 C832 1.367 . S
C833 C835 1.433 . S
C834 C830 1.350 . S
C834 C831 1.463 . S
C834 N838 1.427 . S
C835 H825 0.929 . S
C835 C833 1.433 . S
C835 N838 1.384 . S
C836 H827 0.929 . S
C836 C828 1.378 . S
C836 C831 1.350 . S
C837 H824 0.929 . S
C837 C829 1.433 . S
C837 N839 1.384 . S
N838 C834 1.427 . S
N838 C835 1.384 . S
N839 C831 1.427 . S
N839 C837 1.384 . S
H840 C846 0.930 . S
H841 C850 0.930 . S
H842 C855 0.929 . S
H843 C853 0.929 . S
H844 C848 0.929 . S
H845 C854 0.929 . S
C846 H840 0.930 . S
C846 C847 1.367 . S
C846 C854 1.378 1_554 S
C847 C846 1.367 . S
C847 C855 1.433 1_554 S
C848 H844 0.929 . S
C848 C850 1.378 . S
C848 C852 1.350 . S
C849 C852 1.463 . S
C849 C854 1.350 . S
C849 N857 1.427 . S
C850 H841 0.930 . S
C850 C848 1.378 . S
C850 C851 1.367 . S
C851 C850 1.367 . S
C851 C853 1.433 . S
C852 C848 1.350 . S
C852 C849 1.463 . S
C852 N856 1.427 . S
C853 H843 0.929 . S
C853 C851 1.433 . S
C853 N856 1.384 . S
C854 H845 0.929 . S
C854 C846 1.378 1_556 S
C854 C849 1.350 . S
C855 H842 0.929 . S
C855 C847 1.433 1_556 S
C855 N857 1.384 . S
N856 C852 1.427 . S
N856 C853 1.384 . S
N857 C849 1.427 . S
N857 C855 1.384 . S
H858 C864 0.930 . S
H859 C868 0.930 . S
H860 C873 0.929 . S
H861 C871 0.929 . S
H862 C866 0.929 . S
H863 C872 0.929 . S
C864 H858 0.930 . S
C864 C865 1.367 . S
C864 C872 1.378 . S
C865 C864 1.367 . S
C865 C873 1.433 . S
C866 H862 0.929 . S
C866 C868 1.378 . S
C866 C870 1.350 . S
C867 C870 1.463 . S
C867 C872 1.350 . S
C867 N875 1.427 . S
C868 H859 0.930 . S
C868 C866 1.378 . S
C868 C869 1.367 . S
C869 C868 1.367 . S
C869 C871 1.433 . S
C870 C866 1.350 . S
C870 C867 1.463 . S
C870 N874 1.427 . S
C871 H861 0.929 . S
C871 C869 1.433 . S
C871 N874 1.384 . S
C872 H863 0.929 . S
C872 C864 1.378 . S
C872 C867 1.350 . S
C873 H860 0.929 . S
C873 C865 1.433 . S
C873 N875 1.384 . S
N874 C870 1.427 . S
N874 C871 1.384 . S
N875 C867 1.427 . S
N875 C873 1.384 . S
H876 C882 0.930 . S
H877 C886 0.930 . S
H878 C891 0.929 . S
H879 C889 0.929 . S
H880 C884 0.929 . S
H881 C890 0.929 . S
C882 H876 0.930 . S
C882 C883 1.367 . S
C882 C890 1.378 1_556 S
C883 C882 1.367 . S
C883 C891 1.433 . S
C884 H880 0.929 . S
C884 C886 1.378 . S
C884 C888 1.350 . S
C885 C888 1.463 . S
C885 C890 1.350 . S
C885 N893 1.427 . S
C886 H877 0.930 . S
C886 C884 1.378 . S
C886 C887 1.367 . S
C887 C886 1.367 . S
C887 C889 1.433 . S
C888 C884 1.350 . S
C888 C885 1.463 . S
C888 N892 1.427 . S
C889 H879 0.929 . S
C889 C887 1.433 . S
C889 N892 1.384 . S
C890 H881 0.929 . S
C890 C882 1.378 1_554 S
C890 C885 1.350 . S
C891 H878 0.929 . S
C891 C883 1.433 . S
C891 N893 1.384 1_556 S
N892 C888 1.427 . S
N892 C889 1.384 . S
N893 C885 1.427 . S
N893 C891 1.384 1_554 S
H894 C900 0.930 . S
H895 C904 0.930 . S
H896 C909 0.929 . S
H897 C907 0.929 . S
H898 C902 0.929 . S
H899 C908 0.929 . S
C900 H894 0.930 . S
C900 C901 1.367 . S
C900 C908 1.378 . S
C901 C900 1.367 . S
C901 C909 1.433 . S
C902 H898 0.929 . S
C902 C904 1.378 . S
C902 C906 1.350 . S
C903 C906 1.463 . S
C903 C908 1.350 . S
C903 N911 1.427 . S
C904 H895 0.930 . S
C904 C902 1.378 . S
C904 C905 1.367 . S
C905 C904 1.367 . S
C905 C907 1.433 . S
C906 C902 1.350 . S
C906 C903 1.463 . S
C906 N910 1.427 . S
C907 H897 0.929 . S
C907 C905 1.433 . S
C907 N910 1.384 . S
C908 H899 0.929 . S
C908 C900 1.378 . S
C908 C903 1.350 . S
C909 H896 0.929 . S
C909 C901 1.433 . S
C909 N911 1.384 . S
N910 C906 1.427 . S
N910 C907 1.384 . S
N911 C903 1.427 . S
N911 C909 1.384 . S
H912 C918 0.930 . S
H913 C922 0.930 . S
H914 C927 0.929 . S
H915 C925 0.929 . S
H916 C920 0.929 1_455 S
H917 C926 0.929 . S
C918 H912 0.930 . S
C918 C919 1.367 . S
C918 C926 1.378 . S
C919 C918 1.367 . S
C919 C927 1.433 1_655 S
C920 H916 0.929 1_655 S
C920 C922 1.378 . S
C920 C924 1.350 . S
C921 C924 1.463 . S
C921 C926 1.350 . S
C921 N929 1.427 1_655 S
C922 H913 0.930 . S
C922 C920 1.378 . S
C922 C923 1.367 . S
C923 C922 1.367 . S
C923 C925 1.433 . S
C924 C920 1.350 . S
C924 C921 1.463 . S
C924 N928 1.427 . S
C925 H915 0.929 . S
C925 C923 1.433 . S
C925 N928 1.384 . S
C926 H917 0.929 . S
C926 C918 1.378 . S
C926 C921 1.350 . S
C927 H914 0.929 . S
C927 C919 1.433 1_455 S
C927 N929 1.384 . S
N928 C924 1.427 . S
N928 C925 1.384 . S
N929 C921 1.427 1_455 S
N929 C927 1.384 . S
H930 C936 0.930 . S
H931 C940 0.930 . S
H932 C945 0.929 . S
H933 C943 0.929 . S
H934 C938 0.929 . S
H935 C944 0.929 . S
C936 H930 0.930 . S
C936 C937 1.367 . S
C936 C944 1.378 . S
C937 C936 1.367 . S
C937 C945 1.433 . S
C938 H934 0.929 . S
C938 C940 1.378 . S
C938 C942 1.350 . S
C939 C942 1.463 . S
C939 C944 1.350 . S
C939 N947 1.427 . S
C940 H931 0.930 . S
C940 C938 1.378 . S
C940 C941 1.367 . S
C941 C940 1.367 . S
C941 C943 1.433 . S
C942 C938 1.350 . S
C942 C939 1.463 . S
C942 N946 1.427 . S
C943 H933 0.929 . S
C943 C941 1.433 . S
C943 N946 1.384 . S
C944 H935 0.929 . S
C944 C936 1.378 . S
C944 C939 1.350 . S
C945 H932 0.929 . S
C945 C937 1.433 . S
C945 N947 1.384 . S
N946 C942 1.427 . S
N946 C943 1.384 . S
N947 C939 1.427 . S
N947 C945 1.384 . S
H948 C954 0.930 . S
H949 C958 0.930 . S
H950 C963 0.929 . S
H951 C961 0.929 . S
H952 C956 0.929 . S
H953 C962 0.929 . S
C954 H948 0.930 . S
C954 C955 1.367 . S
C954 C962 1.378 . S
C955 C954 1.367 . S
C955 C963 1.433 . S
C956 H952 0.929 . S
C956 C958 1.378 . S
C956 C960 1.350 . S
C957 C960 1.463 . S
C957 C962 1.350 . S
C957 N965 1.427 . S
C958 H949 0.930 . S
C958 C956 1.378 . S
C958 C959 1.367 . S
C959 C958 1.367 . S
C959 C961 1.433 . S
C960 C956 1.350 . S
C960 C957 1.463 . S
C960 N964 1.427 . S
C961 H951 0.929 . S
C961 C959 1.433 . S
C961 N964 1.384 . S
C962 H953 0.929 . S
C962 C954 1.378 . S
C962 C957 1.350 . S
C963 H950 0.929 . S
C963 C955 1.433 . S
C963 N965 1.384 . S
N964 C960 1.427 . S
N964 C961 1.384 . S
N965 C957 1.427 . S
N965 C963 1.384 . S
H966 C972 0.930 . S
H967 C976 0.930 . S
H968 C981 0.929 . S
H969 C979 0.929 . S
H970 C974 0.929 . S
H971 C980 0.929 . S
C972 H966 0.930 . S
C972 C973 1.367 . S
C972 C980 1.378 . S
C973 C972 1.367 . S
C973 C981 1.433 . S
C974 H970 0.929 . S
C974 C976 1.378 . S
C974 C978 1.350 . S
C975 C978 1.463 . S
C975 C980 1.350 . S
C975 N983 1.427 . S
C976 H967 0.930 . S
C976 C974 1.378 . S
C976 C977 1.367 . S
C977 C976 1.367 . S
C977 C979 1.433 . S
C978 C974 1.350 . S
C978 C975 1.463 . S
C978 N982 1.427 . S
C979 H969 0.929 . S
C979 C977 1.433 . S
C979 N982 1.384 . S
C980 H971 0.929 . S
C980 C972 1.378 . S
C980 C975 1.350 . S
C981 H968 0.929 . S
C981 C973 1.433 . S
C981 N983 1.384 . S
N982 C978 1.427 . S
N982 C979 1.384 . S
N983 C975 1.427 . S
N983 C981 1.384 . S
H984 C990 0.930 1_655 S
H985 C994 0.930 . S
H986 C999 0.929 . S
H987 C997 0.929 . S
H988 C992 0.929 . S
H989 C998 0.929 . S
C990 H984 0.930 1_455 S
C990 C991 1.361 1_455 S
C990 C998 1.384 . S
C991 C990 1.361 1_655 S
C991 C999 1.433 . S
C992 H988 0.929 . S
C992 C994 1.378 . S
C992 C996 1.350 . S
C993 C996 1.463 . S
C993 C998 1.350 . S
C993 N1001 1.427 . S
C994 H985 0.930 . S
C994 C992 1.378 . S
C994 C995 1.367 . S
C995 C994 1.367 . S
C995 C997 1.433 . S
C996 C992 1.350 . S
C996 C993 1.463 . S
C996 N1000 1.427 . S
C997 H987 0.929 . S
C997 C995 1.433 . S
C997 N1000 1.384 . S
C998 H989 0.929 . S
C998 C990 1.384 . S
C998 C993 1.350 . S
C999 H986 0.929 . S
C999 C991 1.433 . S
C999 N1001 1.384 1_655 S
N1000 C996 1.427 . S
N1000 C997 1.384 . S
N1001 C993 1.427 . S
N1001 C999 1.384 1_455 S
H1002 C1008 0.930 . S
H1003 C1012 0.930 . S
H1004 C1017 0.929 . S
H1005 C1015 0.929 . S
H1006 C1010 0.929 . S
H1007 C1016 0.929 . S
C1008 H1002 0.930 . S
C1008 C1009 1.367 . S
C1008 C1016 1.378 . S
C1009 C1008 1.367 . S
C1009 C1017 1.433 . S
C1010 H1006 0.929 . S
C1010 C1012 1.378 . S
C1010 C1014 1.350 . S
C1011 C1014 1.463 . S
C1011 C1016 1.350 . S
C1011 N1019 1.427 . S
C1012 H1003 0.930 . S
C1012 C1010 1.378 . S
C1012 C1013 1.367 . S
C1013 C1012 1.367 . S
C1013 C1015 1.433 . S
C1014 C1010 1.350 . S
C1014 C1011 1.463 . S
C1014 N1018 1.427 . S
C1015 H1005 0.929 . S
C1015 C1013 1.433 . S
C1015 N1018 1.384 . S
C1016 H1007 0.929 . S
C1016 C1008 1.378 . S
C1016 C1011 1.350 . S
C1017 H1004 0.929 . S
C1017 C1009 1.433 . S
C1017 N1019 1.384 . S
N1018 C1014 1.427 . S
N1018 C1015 1.384 . S
N1019 C1011 1.427 . S
N1019 C1017 1.384 . S
H1020 C1026 0.930 . S
H1021 C1030 0.930 . S
H1022 C1035 0.929 . S
H1023 C1033 0.929 . S
H1024 C1028 0.929 . S
H1025 C1034 0.929 . S
C1026 H1020 0.930 . S
C1026 C1027 1.367 . S
C1026 C1034 1.378 . S
C1027 C1026 1.367 . S
C1027 C1035 1.433 . S
C1028 H1024 0.929 . S
C1028 C1030 1.378 . S
C1028 C1032 1.350 . S
C1029 C1032 1.463 . S
C1029 C1034 1.350 . S
C1029 N1037 1.427 . S
C1030 H1021 0.930 . S
C1030 C1028 1.378 . S
C1030 C1031 1.367 . S
C1031 C1030 1.367 . S
C1031 C1033 1.433 . S
C1032 C1028 1.350 . S
C1032 C1029 1.463 . S
C1032 N1036 1.427 . S
C1033 H1023 0.929 . S
C1033 C1031 1.433 . S
C1033 N1036 1.384 . S
C1034 H1025 0.929 . S
C1034 C1026 1.378 . S
C1034 C1029 1.350 . S
C1035 H1022 0.929 . S
C1035 C1027 1.433 . S
C1035 N1037 1.384 . S
N1036 C1032 1.427 . S
N1036 C1033 1.384 . S
N1037 C1029 1.427 . S
N1037 C1035 1.384 . S
H1038 C1044 0.930 . S
H1039 C1048 0.930 . S
H1040 C1053 0.929 . S
H1041 C1051 0.929 . S
H1042 C1046 0.929 . S
H1043 C1052 0.929 . S
C1044 H1038 0.930 . S
C1044 C1045 1.367 . S
C1044 C1052 1.378 . S
C1045 C1044 1.367 . S
C1045 C1053 1.433 . S
C1046 H1042 0.929 . S
C1046 C1048 1.378 . S
C1046 C1050 1.350 . S
C1047 C1050 1.463 . S
C1047 C1052 1.350 . S
C1047 N1055 1.427 . S
C1048 H1039 0.930 . S
C1048 C1046 1.378 . S
C1048 C1049 1.367 . S
C1049 C1048 1.367 . S
C1049 C1051 1.433 . S
C1050 C1046 1.350 . S
C1050 C1047 1.463 . S
C1050 N1054 1.427 . S
C1051 H1041 0.929 . S
C1051 C1049 1.433 . S
C1051 N1054 1.384 . S
C1052 H1043 0.929 . S
C1052 C1044 1.378 . S
C1052 C1047 1.350 . S
C1053 H1040 0.929 . S
C1053 C1045 1.433 . S
C1053 N1055 1.384 . S
N1054 C1050 1.427 . S
N1054 C1051 1.384 . S
N1055 C1047 1.427 . S
N1055 C1053 1.384 . S
H1056 C1062 0.930 . S
H1057 C1066 0.930 . S
H1058 C1071 0.929 . S
H1059 C1069 0.929 . S
H1060 C1064 0.929 . S
H1061 C1070 0.929 . S
C1062 H1056 0.930 . S
C1062 C1063 1.367 1_455 S
C1062 C1070 1.378 . S
C1063 C1062 1.367 1_655 S
C1063 C1071 1.433 . S
C1064 H1060 0.929 . S
C1064 C1066 1.378 . S
C1064 C1068 1.350 . S
C1065 C1068 1.463 . S
C1065 C1070 1.350 . S
C1065 N1073 1.427 . S
C1066 H1057 0.930 . S
C1066 C1064 1.378 . S
C1066 C1067 1.367 . S
C1067 C1066 1.367 . S
C1067 C1069 1.433 . S
C1068 C1064 1.350 . S
C1068 C1065 1.463 . S
C1068 N1072 1.427 . S
C1069 H1059 0.929 . S
C1069 C1067 1.433 . S
C1069 N1072 1.384 . S
C1070 H1061 0.929 . S
C1070 C1062 1.378 . S
C1070 C1065 1.350 . S
C1071 H1058 0.929 . S
C1071 C1063 1.433 . S
C1071 N1073 1.384 1_655 S
N1072 C1068 1.427 . S
N1072 C1069 1.384 . S
N1073 C1065 1.427 . S
N1073 C1071 1.384 1_455 S
H1074 C1080 0.930 . S
H1075 C1084 0.930 . S
H1076 C1089 0.929 . S
H1077 C1087 0.929 . S
H1078 C1082 0.929 . S
H1079 C1088 0.929 . S
C1080 H1074 0.930 . S
C1080 C1081 1.367 . S
C1080 C1088 1.378 . S
C1081 C1080 1.367 . S
C1081 C1089 1.433 . S
C1082 H1078 0.929 . S
C1082 C1084 1.378 . S
C1082 C1086 1.350 . S
C1083 C1086 1.463 . S
C1083 C1088 1.350 . S
C1083 N1091 1.427 . S
C1084 H1075 0.930 . S
C1084 C1082 1.378 . S
C1084 C1085 1.367 . S
C1085 C1084 1.367 . S
C1085 C1087 1.433 . S
C1086 C1082 1.350 . S
C1086 C1083 1.463 . S
C1086 N1090 1.427 . S
C1087 H1077 0.929 . S
C1087 C1085 1.433 . S
C1087 N1090 1.384 . S
C1088 H1079 0.929 . S
C1088 C1080 1.378 . S
C1088 C1083 1.350 . S
C1089 H1076 0.929 . S
C1089 C1081 1.433 . S
C1089 N1091 1.384 . S
N1090 C1086 1.427 . S
N1090 C1087 1.384 . S
N1091 C1083 1.427 . S
N1091 C1089 1.384 . S
H1092 C1098 0.930 . S
H1093 C1102 0.930 . S
H1094 C1107 0.929 . S
H1095 C1105 0.929 . S
H1096 C1100 0.929 . S
H1097 C1106 0.929 . S
C1098 H1092 0.930 . S
C1098 C1099 1.367 . S
C1098 C1106 1.378 . S
C1099 C1098 1.367 . S
C1099 C1107 1.433 . S
C1100 H1096 0.929 . S
C1100 C1102 1.378 . S
C1100 C1104 1.350 . S
C1101 C1104 1.463 . S
C1101 C1106 1.350 . S
C1101 N1109 1.427 . S
C1102 H1093 0.930 . S
C1102 C1100 1.378 . S
C1102 C1103 1.367 . S
C1103 C1102 1.367 . S
C1103 C1105 1.433 . S
C1104 C1100 1.350 . S
C1104 C1101 1.463 . S
C1104 N1108 1.427 . S
C1105 H1095 0.929 . S
C1105 C1103 1.433 . S
C1105 N1108 1.384 . S
C1106 H1097 0.929 . S
C1106 C1098 1.378 . S
C1106 C1101 1.350 . S
C1107 H1094 0.929 . S
C1107 C1099 1.433 . S
C1107 N1109 1.384 . S
N1108 C1104 1.427 . S
N1108 C1105 1.384 . S
N1109 C1101 1.427 . S
N1109 C1107 1.384 . S
H1110 C1116 0.930 . S
H1111 C1120 0.930 . S
H1112 C1125 0.929 . S
H1113 C1123 0.929 . S
H1114 C1118 0.929 . S
H1115 C1124 0.929 . S
C1116 H1110 0.930 . S
C1116 C1117 1.367 . S
C1116 C1124 1.378 1_565 S
C1117 C1116 1.367 . S
C1117 C1125 1.433 . S
C1118 H1114 0.929 . S
C1118 C1120 1.378 . S
C1118 C1122 1.350 . S
C1119 C1122 1.463 . S
C1119 C1124 1.350 . S
C1119 N1127 1.427 . S
C1120 H1111 0.930 . S
C1120 C1118 1.378 . S
C1120 C1121 1.367 . S
C1121 C1120 1.367 . S
C1121 C1123 1.433 . S
C1122 C1118 1.350 . S
C1122 C1119 1.463 . S
C1122 N1126 1.427 . S
C1123 H1113 0.929 . S
C1123 C1121 1.433 . S
C1123 N1126 1.384 . S
C1124 H1115 0.929 . S
C1124 C1116 1.378 1_545 S
C1124 C1119 1.350 . S
C1125 H1112 0.929 . S
C1125 C1117 1.433 . S
C1125 N1127 1.384 1_565 S
N1126 C1122 1.427 . S
N1126 C1123 1.384 . S
N1127 C1119 1.427 . S
N1127 C1125 1.384 1_545 S
H1128 C1134 0.930 . S
H1129 C1138 0.930 . S
H1130 C1143 0.929 . S
H1131 C1141 0.929 . S
H1132 C1136 0.929 . S
H1133 C1142 0.929 . S
C1134 H1128 0.930 . S
C1134 C1135 1.367 . S
C1134 C1142 1.378 . S
C1135 C1134 1.367 . S
C1135 C1143 1.433 . S
C1136 H1132 0.929 . S
C1136 C1138 1.378 . S
C1136 C1140 1.350 . S
C1137 C1140 1.463 . S
C1137 C1142 1.350 . S
C1137 N1145 1.427 . S
C1138 H1129 0.930 . S
C1138 C1136 1.378 . S
C1138 C1139 1.367 . S
C1139 C1138 1.367 . S
C1139 C1141 1.433 . S
C1140 C1136 1.350 . S
C1140 C1137 1.463 . S
C1140 N1144 1.427 . S
C1141 H1131 0.929 . S
C1141 C1139 1.433 . S
C1141 N1144 1.384 . S
C1142 H1133 0.929 . S
C1142 C1134 1.378 . S
C1142 C1137 1.350 . S
C1143 H1130 0.929 . S
C1143 C1135 1.433 . S
C1143 N1145 1.384 . S
N1144 C1140 1.427 . S
N1144 C1141 1.384 . S
N1145 C1137 1.427 . S
N1145 C1143 1.384 . S
H1146 C1152 0.929 1_545 S
H1147 C1156 0.930 . S
H1148 C1161 0.929 . S
H1149 C1159 0.929 . S
H1150 C1154 0.929 . S
H1151 C1160 0.929 . S
C1152 H1146 0.929 1_565 S
C1152 C1153 1.367 1_565 S
C1152 C1160 1.378 . S
C1153 C1152 1.367 1_545 S
C1153 C1161 1.433 . S
C1154 H1150 0.929 . S
C1154 C1156 1.378 . S
C1154 C1158 1.350 . S
C1155 C1158 1.463 . S
C1155 C1160 1.350 . S
C1155 N1163 1.427 . S
C1156 H1147 0.930 . S
C1156 C1154 1.378 . S
C1156 C1157 1.367 . S
C1157 C1156 1.367 . S
C1157 C1159 1.433 . S
C1158 C1154 1.350 . S
C1158 C1155 1.463 . S
C1158 N1162 1.427 . S
C1159 H1149 0.929 . S
C1159 C1157 1.433 . S
C1159 N1162 1.384 . S
C1160 H1151 0.929 . S
C1160 C1152 1.378 . S
C1160 C1155 1.350 . S
C1161 H1148 0.929 . S
C1161 C1153 1.433 . S
C1161 N1163 1.384 1_545 S
N1162 C1158 1.427 . S
N1162 C1159 1.384 . S
N1163 C1155 1.427 . S
N1163 C1161 1.384 1_565 S
H1164 C1170 0.930 . S
H1165 C1174 0.930 . S
H1166 C1179 0.929 . S
H1167 C1177 0.929 . S
H1168 C1172 0.929 . S
H1169 C1178 0.929 . S
C1170 H1164 0.930 . S
C1170 C1171 1.367 . S
C1170 C1178 1.378 . S
C1171 C1170 1.367 . S
C1171 C1179 1.433 . S
C1172 H1168 0.929 . S
C1172 C1174 1.378 . S
C1172 C1176 1.350 . S
C1173 C1176 1.463 . S
C1173 C1178 1.350 . S
C1173 N1181 1.427 . S
C1174 H1165 0.930 . S
C1174 C1172 1.378 . S
C1174 C1175 1.367 . S
C1175 C1174 1.367 . S
C1175 C1177 1.433 . S
C1176 C1172 1.350 . S
C1176 C1173 1.463 . S
C1176 N1180 1.427 . S
C1177 H1167 0.929 . S
C1177 C1175 1.433 . S
C1177 N1180 1.384 . S
C1178 H1169 0.929 . S
C1178 C1170 1.378 . S
C1178 C1173 1.350 . S
C1179 H1166 0.929 . S
C1179 C1171 1.433 . S
C1179 N1181 1.384 . S
N1180 C1176 1.427 . S
N1180 C1177 1.384 . S
N1181 C1173 1.427 . S
N1181 C1179 1.384 . S
H1182 C1188 0.930 . S
H1183 C1192 0.930 . S
H1184 C1197 0.929 . S
H1185 C1195 0.929 . S
H1186 C1190 0.929 1_556 S
H1187 C1196 0.929 . S
C1188 H1182 0.930 . S
C1188 C1189 1.367 . S
C1188 C1196 1.378 . S
C1189 C1188 1.367 . S
C1189 C1197 1.433 1_554 S
C1190 H1186 0.929 1_554 S
C1190 C1192 1.378 . S
C1190 C1194 1.350 . S
C1191 C1194 1.463 . S
C1191 C1196 1.350 . S
C1191 N1199 1.427 . S
C1192 H1183 0.930 . S
C1192 C1190 1.378 . S
C1192 C1193 1.367 . S
C1193 C1192 1.367 . S
C1193 C1195 1.433 . S
C1194 C1190 1.350 . S
C1194 C1191 1.463 . S
C1194 N1198 1.427 . S
C1195 H1185 0.929 . S
C1195 C1193 1.433 . S
C1195 N1198 1.384 . S
C1196 H1187 0.929 . S
C1196 C1188 1.378 . S
C1196 C1191 1.350 . S
C1197 H1184 0.929 . S
C1197 C1189 1.433 1_556 S
C1197 N1199 1.384 1_556 S
N1198 C1194 1.427 . S
N1198 C1195 1.384 . S
N1199 C1191 1.427 . S
N1199 C1197 1.384 1_554 S
H1200 C1206 0.930 . S
H1201 C1210 0.930 . S
H1202 C1215 0.929 . S
H1203 C1213 0.929 . S
H1204 C1208 0.929 . S
H1205 C1214 0.929 . S
C1206 H1200 0.930 . S
C1206 C1207 1.367 . S
C1206 C1214 1.378 . S
C1207 C1206 1.367 . S
C1207 C1215 1.433 . S
C1208 H1204 0.929 . S
C1208 C1210 1.378 . S
C1208 C1212 1.350 . S
C1209 C1212 1.463 . S
C1209 C1214 1.350 . S
C1209 N1217 1.427 . S
C1210 H1201 0.930 . S
C1210 C1208 1.378 . S
C1210 C1211 1.367 . S
C1211 C1210 1.367 . S
C1211 C1213 1.433 . S
C1212 C1208 1.350 . S
C1212 C1209 1.463 . S
C1212 N1216 1.427 . S
C1213 H1203 0.929 . S
C1213 C1211 1.433 . S
C1213 N1216 1.384 . S
C1214 H1205 0.929 . S
C1214 C1206 1.378 . S
C1214 C1209 1.350 . S
C1215 H1202 0.929 . S
C1215 C1207 1.433 . S
C1215 N1217 1.384 . S
N1216 C1212 1.427 . S
N1216 C1213 1.384 . S
N1217 C1209 1.427 . S
N1217 C1215 1.384 . S
H1218 C1224 0.930 . S
H1219 C1228 0.930 . S
H1220 C1233 0.929 . S
H1221 C1231 0.929 . S
H1222 C1226 0.929 . S
H1223 C1232 0.929 . S
C1224 H1218 0.930 . S
C1224 C1225 1.367 . S
C1224 C1232 1.378 . S
C1225 C1224 1.367 . S
C1225 C1233 1.433 . S
C1226 H1222 0.929 . S
C1226 C1228 1.378 . S
C1226 C1230 1.350 . S
C1227 C1230 1.463 . S
C1227 C1232 1.350 . S
C1227 N1235 1.427 . S
C1228 H1219 0.930 . S
C1228 C1226 1.378 . S
C1228 C1229 1.367 . S
C1229 C1228 1.367 . S
C1229 C1231 1.433 . S
C1230 C1226 1.350 . S
C1230 C1227 1.463 . S
C1230 N1234 1.427 . S
C1231 H1221 0.929 . S
C1231 C1229 1.433 . S
C1231 N1234 1.384 . S
C1232 H1223 0.929 . S
C1232 C1224 1.378 . S
C1232 C1227 1.350 . S
C1233 H1220 0.929 . S
C1233 C1225 1.433 . S
C1233 N1235 1.384 . S
N1234 C1230 1.427 . S
N1234 C1231 1.384 . S
N1235 C1227 1.427 . S
N1235 C1233 1.384 . S
C383 C361 1.139 . S
C379 C5 1.234 . S
C397 C16 1.240 . S
C401 C314 1.129 . S
C415 C36 1.214 . S
C419 C325 1.111 . S
C437 C350 1.155 . S
C433 C49 1.235 . S
C451 C23 1.214 . S
C455 C368 1.111 . S
C473 C307 1.154 . S
C469 C29 1.233 . S
C491 C332 1.140 . S
C487 C42 1.228 . S
C509 C343 1.158 . S
C505 C4 1.236 . S
C523 C55 1.219 . S
C527 C344 1.125 . S
C545 C370 1.160 . S
C541 C69 1.241 . S
C563 C308 1.118 . S
C559 C83 1.223 . S
C581 C334 1.147 . S
C577 C101 1.232 . S
C595 C57 1.225 . S
C599 C316 1.127 . S
C613 C75 1.231 . S
C617 C326 1.136 . S
C631 C81 1.232 . S
C635 C352 1.132 . S
C653 C362 1.129 . S
C649 C95 1.232 . S
C671 C199 1.135 . S
C667 C96 1.216 . S
C689 C182 1.127 . S
C685 C107 1.214 . S
C707 C208 1.162 . S
C703 C121 1.227 . S
C725 C226 1.152 . S
C721 C133 1.228 . S
C739 C62 1.227 . S
C743 C200 1.127 . S
C757 C68 1.236 . S
C761 C170 1.122 . S
C775 C127 1.227 . S
C779 C224 1.138 . S
C793 C147 1.234 . S
C797 C181 1.140 . S
C815 C235 1.111 . S
C811 C30 1.218 . S
C833 C260 1.135 . S
C829 C43 1.240 . S
C847 C3 1.233 . S
C851 C271 1.136 . S
C865 C18 1.244 . S
C869 C296 1.137 . S
C887 C242 1.140 . S
C883 C44 1.227 . S
C905 C253 1.157 . S
C901 C10 1.230 . S
C919 C17 1.221 . S
C923 C278 1.131 . S
C941 C289 1.136 . S
C937 C31 1.235 . S
C955 C146 1.223 . S
C959 C290 1.144 . S
C973 C114 1.222 . S
C977 C244 1.143 . S
C995 C254 1.129 . S
C991 C122 1.219 . S
C1009 C140 1.234 . S
C1013 C280 1.142 . S
C1031 C262 1.151 . S
C1027 C148 1.226 . S
C1045 C108 1.233 . S
C1049 C272 1.138 . S
C1067 C298 1.139 . S
C1063 C120 1.222 . S
C1085 C236 1.135 . S
C1081 C134 1.234 . S
C1103 C163 1.144 . S
C1099 C135 1.225 . S
C1121 C218 1.142 . S
C1117 C70 1.224 . S
C1135 C82 1.235 . S
C1139 C172 1.140 . S
C1157 C190 1.134 . S
C1153 C94 1.216 . S
C1175 C164 1.133 . S
C1171 C153 1.235 . S
C1189 C109 1.219 . S
C1193 C206 1.131 . S
C1207 C88 1.234 . S
C1211 C188 1.129 . S
C1225 C56 1.230 . S
C1229 C217 1.131 . S
