# Generated by pormake.
# Topology zzz, (3,6)-cn, num edge types: 1
# Building blocks:
#     Node 0, Type 0, BuildingBlock: QEWDON_clean_linker_0, # of connection points: 3
#     Node 1, Type 0, BuildingBlock: QEWDON_clean_linker_0, # of connection points: 3
#     Node 2, Type 0, BuildingBlock: QEWDON_clean_linker_0, # of connection points: 3
#     Node 3, Type 0, BuildingBlock: QEWDON_clean_linker_0, # of connection points: 3
#     Node 4, Type 0, BuildingBlock: QEWDON_clean_linker_0, # of connection points: 3
#     Node 5, Type 0, BuildingBlock: QEWDON_clean_linker_0, # of connection points: 3
#     Node 6, Type 0, BuildingBlock: QEWDON_clean_linker_0, # of connection points: 3
#     Node 7, Type 0, BuildingBlock: QEWDON_clean_linker_0, # of connection points: 3
#     Node 8, Type 1, BuildingBlock: KUMBUR_clean_sbu_1, # of connection points: 6
#     Node 9, Type 1, BuildingBlock: KUMBUR_clean_sbu_1, # of connection points: 6
#     Node 10, Type 1, BuildingBlock: KUMBUR_clean_sbu_1, # of connection points: 6
#     Node 11, Type 1, BuildingBlock: KUMBUR_clean_sbu_1, # of connection points: 6
#     Edge 12, Type (0, 1), BuildingBlock: OJICUG_clean_linker_0, # of connection points: 2
#     Edge 13, Type (0, 1), BuildingBlock: OJICUG_clean_linker_0, # of connection points: 2
#     Edge 14, Type (0, 1), BuildingBlock: OJICUG_clean_linker_0, # of connection points: 2
#     Edge 15, Type (0, 1), BuildingBlock: OJICUG_clean_linker_0, # of connection points: 2
#     Edge 16, Type (0, 1), BuildingBlock: OJICUG_clean_linker_0, # of connection points: 2
#     Edge 17, Type (0, 1), BuildingBlock: OJICUG_clean_linker_0, # of connection points: 2
#     Edge 18, Type (0, 1), BuildingBlock: OJICUG_clean_linker_0, # of connection points: 2
#     Edge 19, Type (0, 1), BuildingBlock: OJICUG_clean_linker_0, # of connection points: 2
#     Edge 20, Type (0, 1), BuildingBlock: OJICUG_clean_linker_0, # of connection points: 2
#     Edge 21, Type (0, 1), BuildingBlock: OJICUG_clean_linker_0, # of connection points: 2
#     Edge 22, Type (0, 1), BuildingBlock: OJICUG_clean_linker_0, # of connection points: 2
#     Edge 23, Type (0, 1), BuildingBlock: OJICUG_clean_linker_0, # of connection points: 2
#     Edge 24, Type (0, 1), BuildingBlock: OJICUG_clean_linker_0, # of connection points: 2
#     Edge 25, Type (0, 1), BuildingBlock: OJICUG_clean_linker_0, # of connection points: 2
#     Edge 26, Type (0, 1), BuildingBlock: OJICUG_clean_linker_0, # of connection points: 2
#     Edge 27, Type (0, 1), BuildingBlock: OJICUG_clean_linker_0, # of connection points: 2
#     Edge 28, Type (0, 1), BuildingBlock: OJICUG_clean_linker_0, # of connection points: 2
#     Edge 29, Type (0, 1), BuildingBlock: OJICUG_clean_linker_0, # of connection points: 2
#     Edge 30, Type (0, 1), BuildingBlock: OJICUG_clean_linker_0, # of connection points: 2
#     Edge 31, Type (0, 1), BuildingBlock: OJICUG_clean_linker_0, # of connection points: 2
#     Edge 32, Type (0, 1), BuildingBlock: OJICUG_clean_linker_0, # of connection points: 2
#     Edge 33, Type (0, 1), BuildingBlock: OJICUG_clean_linker_0, # of connection points: 2
#     Edge 34, Type (0, 1), BuildingBlock: OJICUG_clean_linker_0, # of connection points: 2
#     Edge 35, Type (0, 1), BuildingBlock: OJICUG_clean_linker_0, # of connection points: 2
# Relax obj value: 0.162
# Max RMSD: 0.112
# Mean RMSD: 0.043
data_MOF--net-zzz--node1-KUMBUR_clean_sbu_1--node2-QEWDON_clean_linker_0--edge1-OJICUG_clean_linker_0
_symmetry_space_group_name_H-M    P1
_symmetry_Int_Tables_number       1
_symmetry_cell_setting            triclinic
loop_
_symmetry_equiv_pos_as_xyz
'x, y, z'
_cell_length_a     39.030502
_cell_length_b     38.904584
_cell_length_c     11.46207
_cell_angle_alpha  89.808902
_cell_angle_beta   89.89989
_cell_angle_gamma 90.198112
loop_
_atom_site_label
_atom_site_type_symbol
_atom_site_fract_x
_atom_site_fract_y
_atom_site_fract_z
_atom_type_partial_charge
H0 H 0.78706 0.50545 0.19792 0.0
C1 C 0.80551 0.51202 0.26467 0.0
C2 C 0.83796 0.49749 0.25722 0.0
C3 C 0.79638 0.53304 0.35908 0.0
H4 H 0.88792 0.49323 0.33082 0.0
C5 C 0.86251 0.50386 0.34295 0.0
C6 C 0.85541 0.52372 0.44176 0.0
C7 C 0.82199 0.53902 0.44847 0.0
C8 C 0.75915 0.54498 0.36639 0.0
H9 H 0.81598 0.55483 0.52312 0.0
C10 C 0.73727 0.54887 0.26555 0.0
C11 C 0.70136 0.55572 0.27641 0.0
C12 C 0.744 0.54888 0.47666 0.0
H13 H 0.75872 0.54526 0.55561 0.0
C14 C 0.70909 0.5555 0.48797 0.0
H15 H 0.74795 0.54678 0.17878 0.0
C16 C 0.6881 0.55869 0.39011 0.0
H17 H 0.66099 0.56254 0.4042 0.0
H18 H 0.698 0.55718 0.57423 0.0
H19 H 0.04175 0.79448 0.14427 0.0
C20 C 0.04383 0.81065 0.22003 0.0
C21 C 0.04997 0.84533 0.19915 0.0
C22 C 0.04079 0.79742 0.33393 0.0
H23 H 0.05673 0.89548 0.27273 0.0
C24 C 0.0516 0.8686 0.29169 0.0
C25 C 0.04824 0.85802 0.40781 0.0
C26 C 0.04274 0.82201 0.42906 0.0
C27 C 0.03562 0.75838 0.34871 0.0
H28 H 0.04107 0.81365 0.51877 0.0
C29 C 0.03962 0.73391 0.25451 0.0
C30 C 1.03207 0.69814 0.26837 0.0
C31 C 1.02555 0.74496 0.45756 0.0
H32 H 1.0217 0.76132 0.53225 0.0
C33 C 1.01962 0.70987 0.47297 0.0
H34 H 0.04826 0.74194 0.16946 0.0
C35 C 1.02244 0.68693 0.38022 0.0
H36 H 1.01751 0.66004 0.39692 0.0
H37 H 1.01251 0.7004 0.55828 0.0
H38 H 0.78948 1.02243 0.15065 0.0
C39 C 0.77669 1.02557 0.23365 0.0
C40 C 0.7409 1.02279 0.23718 0.0
C41 C 0.79543 1.03159 0.33717 0.0
H42 H 0.69548 1.02355 0.34295 0.0
C43 C 0.72327 1.02552 0.34267 0.0
C44 C 0.73965 1.03339 0.44588 0.0
C45 C 0.77602 1.03684 0.44373 0.0
C46 C 0.83464 1.02999 0.33483 0.0
H47 H 0.78869 0.04359 0.52425 0.0
C48 C 0.85562 1.03422 0.23132 0.0
C49 C 0.89208 1.02909 0.23446 0.0
C50 C 0.85154 1.02124 0.43884 0.0
H51 H 0.83768 1.01628 0.51881 0.0
C52 C 0.88681 1.01738 0.44257 0.0
H53 H 0.84396 0.04091 0.14889 0.0
C54 C 0.90674 1.02121 0.34286 0.0
H55 H 0.93414 1.01829 0.35117 0.0
H56 H 0.89874 1.01113 0.52441 0.0
H57 H 0.51211 0.80891 0.18905 0.0
C58 C 0.51686 0.79219 0.26253 0.0
C59 C 0.49653 0.76279 0.27211 0.0
C60 C 0.54394 0.79873 0.34021 0.0
H61 H 0.48851 0.7148 0.35829 0.0
C62 C 0.50296 0.73862 0.35981 0.0
C63 C 0.52901 0.74292 0.44255 0.0
C64 C 0.54983 0.77341 0.43175 0.0
C65 C 0.56684 0.83031 0.31595 0.0
H66 H 0.5701 0.77716 0.49449 0.0
C67 C 0.55704 0.85858 0.24018 0.0
C68 C 0.58058 0.88528 0.20706 0.0
C69 C 0.60029 0.83116 0.3611 0.0
H70 H 0.60979 0.8108 0.4164 0.0
C71 C 0.62291 0.85777 0.33291 0.0
H72 H 0.53148 0.85996 0.20489 0.0
C73 C 0.61337 0.88425 0.25747 0.0
H74 H 0.63197 0.90431 0.23966 0.0
H75 H 0.6485 0.85767 0.36916 0.0
H76 H 0.30884 0.58928 0.29287 0.0
C77 C 0.29053 0.58215 0.22652 0.0
C78 C 0.25845 0.59753 0.23083 0.0
C79 C 0.29914 0.55903 0.13734 0.0
H80 H 0.20874 0.60203 0.15589 0.0
C81 C 0.23388 0.59065 0.1456 0.0
C82 C 0.24047 0.56894 0.05087 0.0
C83 C 0.27336 0.55233 0.04869 0.0
C84 C 0.33569 0.54458 0.13611 0.0
H85 H 0.27867 0.53474 0.97823 0.0
C86 C 0.35782 0.54372 0.23752 0.0
C87 C 0.39282 0.53286 0.23058 0.0
C88 C 0.34991 0.53385 0.02982 0.0
H89 H 0.33536 0.53482 0.94976 0.0
C90 C 0.3838 0.52291 0.02293 0.0
H91 H 0.34813 0.55091 0.32228 0.0
C92 C 0.40491 0.52241 0.12091 0.0
H93 H 0.43127 0.51457 0.10969 0.0
H94 H 0.39402 0.51544 0.93953 0.0
H95 H 1.00206 0.30921 0.26858 0.0
C96 C 1.00851 0.29118 0.20056 0.0
C97 C 0.99259 0.25918 0.2038 0.0
C98 C 1.03128 0.30006 0.11025 0.0
H99 H 0.9868 0.20986 0.12633 0.0
C100 C 0.99853 0.235 0.11644 0.0
C101 C 1.01959 0.24207 0.01996 0.0
C102 C 0.03683 0.27479 0.01905 0.0
C103 C 0.04658 0.33641 0.11041 0.0
H104 H 0.05406 0.28035 0.94754 0.0
C105 C 0.04816 0.3581 0.21289 0.0
C106 C 0.05974 0.39307 0.20724 0.0
C107 C 0.05756 0.35091 1.00446 0.0
H108 H 0.05609 0.33678 0.92363 0.0
C109 C 0.06941 0.38463 0.9988 0.0
H110 H 0.04093 0.34807 0.29739 0.0
C111 C 0.07037 0.40537 0.09769 0.0
H112 H 0.07852 0.43172 0.08708 0.0
H113 H 0.07704 0.39506 0.91546 0.0
H114 H 0.28294 0.09426 0.26675 0.0
C115 C 0.30055 0.08702 0.19816 0.0
C116 C 0.33519 0.08572 0.22582 0.0
C117 C 0.28839 0.07639 0.08948 0.0
H118 H 0.38646 0.07794 0.1609 0.0
C119 C 0.35951 0.07918 0.13825 0.0
C120 C 0.34954 0.0715 0.02371 0.0
C121 C 0.31349 0.06921 0.99993 0.0
C122 C 0.24959 0.07377 0.07518 0.0
H123 H 0.30537 0.06137 0.91384 0.0
C124 C 0.22645 0.06884 0.17265 0.0
C125 C 0.1902 0.07193 0.16024 0.0
C126 C 0.23503 0.07889 0.9649 0.0
H127 H 0.25092 0.08276 0.88855 0.0
C128 C 0.19959 0.08047 0.95151 0.0
H129 H 0.23633 0.06336 0.25873 0.0
C130 C 0.17761 0.0779 0.04749 0.0
H131 H 0.15038 0.07997 0.0331 0.0
H132 H 0.18911 0.0842 0.86551 0.0
H133 H 0.53492 0.28624 0.29529 0.0
C134 C 0.53601 0.30357 0.22128 0.0
C135 C 0.53516 0.33872 0.24449 0.0
C136 C 0.54503 0.29115 0.11097 0.0
H137 H 0.53769 0.38959 0.17261 0.0
C138 C 0.53753 0.36245 0.1525 0.0
C139 C 0.54405 0.35225 0.03733 0.0
C140 C 0.5484 0.31604 0.01693 0.0
C141 C 0.55856 0.25427 0.10774 0.0
H142 H 0.55596 0.30764 0.93077 0.0
C143 C 0.54777 0.22769 0.18901 0.0
C144 C 0.56695 0.19654 0.20576 0.0
C145 C 0.58762 0.24768 0.03958 0.0
H146 H 0.59757 0.26681 0.97964 0.0
C147 C 0.60644 0.2177 0.05506 0.0
H148 H 0.52495 0.23163 0.24073 0.0
C149 C 0.59671 0.19292 0.1368 0.0
H150 H 0.61387 0.17144 0.14754 0.0
H151 H 0.62998 0.21428 1.00672 0.0
Tb152 Tb 1.00324 0.05214 0.58814 0.0
C153 C 0.11231 0.12204 0.88637 0.0
N154 N 0.11446 0.09928 0.7968 0.0
C155 C 0.16038 0.1322 0.71187 0.0
C156 C 0.13408 0.15102 0.89146 0.0
C157 C 0.13846 0.1037 0.71094 0.0
C158 C 0.1583 0.15589 0.80275 0.0
C159 C 0.08271 0.14129 0.06026 0.0
C160 C 0.08695 0.11706 0.96989 0.0
C161 C 0.10454 0.17 0.06627 0.0
C162 C 0.13031 0.17473 0.98258 0.0
Tb163 Tb 0.07896 0.05245 0.80897 0.0
N164 N 0.06636 0.08876 0.96199 0.0
C165 C 0.05697 0.13578 0.14304 0.0
C166 C 0.04356 0.08185 0.04998 0.0
C167 C 0.03762 0.1057 0.13863 0.0
H168 H 0.14165 0.08474 0.64384 0.0
H169 H 1.01871 0.10038 0.20554 0.0
H170 H 0.94307 1.01359 0.75025 0.0
H171 H 0.06175 1.0157 0.17541 0.0
H172 H 1.03055 0.05763 0.05645 0.0
H173 H 0.05269 0.15392 0.21304 0.0
H174 H 0.04634 0.05583 0.3304 0.0
H175 H 0.17932 0.13551 0.64365 0.0
H176 H 0.10167 0.18874 0.13532 0.0
H177 H 0.14676 0.19715 0.98786 0.0
H178 H 0.91029 0.95939 0.74711 0.0
H179 H 0.1754 0.17788 0.80339 0.0
H180 H 0.03492 0.95827 0.16838 0.0
N181 N 0.9713 1.00255 0.59586 0.0
C182 C 0.97554 0.9806 0.5047 0.0
C183 C 0.92874 0.96492 0.67894 0.0
C184 C 0.95665 0.94969 0.49805 0.0
C185 C 0.94777 0.99542 0.68154 0.0
C186 C 0.93311 0.94201 0.58668 0.0
N187 N 1.01711 1.01922 0.42807 0.0
C188 C 0.0369 1.02991 0.33614 0.0
C189 C 1.00567 0.96593 0.32673 0.0
C190 C 0.99987 0.98874 0.42026 0.0
C191 C 1.0294 0.9752 0.2408 0.0
C192 C 0.04466 1.00758 0.24462 0.0
H193 H 0.91824 0.91845 0.58481 0.0
H194 H 0.9483 0.90314 0.39866 0.0
H195 H 0.99107 0.91739 0.24869 0.0
O196 O 0.98736 0.08732 0.45828 0.0
O197 O 1.01796 1.00263 0.67133 0.0
O198 O 0.07549 1.00574 0.69696 0.0
O199 O 0.95109 0.05617 0.55004 0.0
O200 O 0.05429 0.07172 0.52384 0.0
O201 O 0.094 0.04099 0.62883 0.0
O202 O 0.09255 1.0247 0.95922 0.0
O203 O 0.06408 0.10256 0.73065 0.0
O204 O 1.00649 0.09818 0.7031 0.0
O205 O 0.13086 0.04067 0.83635 0.0
O206 O 1.02785 1.03237 0.87283 0.0
O207 O 0.98779 0.06285 0.76781 0.0
C208 C 0.04807 0.98784 0.66784 0.0
C209 C 0.93338 0.11206 0.50813 0.0
C210 C 0.92412 0.17386 0.50524 0.0
C211 C 0.89184 0.16929 0.55663 0.0
C212 C 0.90099 0.10772 0.56072 0.0
C213 C 0.88051 0.13623 0.58541 0.0
C214 C 0.94474 0.14526 0.48154 0.0
C215 C 0.08536 0.05805 0.53421 0.0
C216 C 0.95503 0.08206 0.48084 0.0
C217 C 0.96245 0.92707 0.40504 0.0
C218 C 0.98702 0.93507 0.32008 0.0
C219 C 1.03352 0.11655 0.73401 0.0
C220 C 0.13831 0.98714 0.92324 0.0
C221 C 0.12671 0.92561 0.91459 0.0
C222 C 0.16153 0.91964 0.94249 0.0
C223 C 0.17244 0.98086 0.95275 0.0
C224 C 0.11671 0.95974 0.89464 0.0
C225 C 0.18426 0.94711 0.95845 0.0
C226 C 0.99644 0.04543 0.8615 0.0
C227 C 0.12444 1.02198 0.92716 0.0
H228 H 0.87536 0.19113 0.57262 0.0
H229 H 0.89141 0.08233 0.58243 0.0
H230 H 0.85557 0.13262 0.62516 0.0
H231 H 0.9692 0.14893 0.43811 0.0
H232 H 0.17125 0.89415 0.95924 0.0
H233 H 0.1897 1.00188 0.9727 0.0
H234 H 0.09117 0.96559 0.86555 0.0
H235 H 0.21065 0.94216 0.98187 0.0
Tb236 Tb 0.55332 0.08491 0.8357 0.0
C237 C 0.58618 0.94325 0.60492 0.0
N238 N 0.58192 0.97563 0.56298 0.0
C239 C 0.63193 0.96898 0.4427 0.0
C240 C 0.61394 0.92268 0.5695 0.0
C241 C 0.60343 0.9881 0.47841 0.0
C242 C 0.63731 0.93623 0.48884 0.0
C243 C 0.56418 0.89646 0.72321 0.0
C244 C 0.56192 0.93047 0.68109 0.0
C245 C 0.5923 0.8761 0.69123 0.0
C246 C 0.61724 0.88926 0.61492 0.0
Tb247 Tb 0.53752 1.0065 0.64253 0.0
N248 N 0.53515 0.9509 0.70924 0.0
C249 C 0.53776 0.88378 0.79408 0.0
C250 C 0.50849 0.93811 0.77397 0.0
C251 C 0.50955 0.90457 0.81821 0.0
H252 H 0.60007 1.01402 0.44636 0.0
H253 H 0.4887 0.89487 0.87141 0.0
H254 H 0.4895 0.14005 0.83597 0.0
H255 H 0.68959 0.10857 0.89763 0.0
H256 H 0.48666 0.95407 0.79394 0.0
H257 H 0.53855 0.85783 0.82853 0.0
H258 H 0.63637 0.07415 0.90633 0.0
H259 H 0.64993 0.97968 0.38051 0.0
H260 H 0.59471 0.85001 0.72344 0.0
H261 H 0.63862 0.87318 0.58996 0.0
H262 H 0.48112 0.20177 0.79202 0.0
H263 H 0.6593 0.9215 0.4606 0.0
H264 H 0.68788 0.16867 0.82631 0.0
N265 N 0.54348 0.14222 0.81416 0.0
C266 C 0.57126 0.16244 0.79613 0.0
C267 C 0.50664 0.19097 0.79183 0.0
C268 C 0.5679 0.19766 0.76996 0.0
C269 C 0.51141 0.15603 0.81637 0.0
C270 C 0.53498 0.21178 0.76643 0.0
N271 N 0.60452 0.11467 0.84562 0.0
C272 C 0.6351 0.10087 0.88078 0.0
C273 C 0.63285 0.1685 0.80272 0.0
C274 C 0.60307 0.14812 0.81255 0.0
C275 C 0.66438 0.15387 0.83229 0.0
C276 C 0.66541 0.12007 0.87346 0.0
H277 H 0.53126 0.23881 0.74744 0.0
H278 H 0.59553 0.24472 0.73006 0.0
H279 H 0.65259 0.21905 0.75802 0.0
O280 O 0.55445 0.10909 1.00007 0.0
O281 O 0.5291 0.09703 0.66821 0.0
O282 O 0.55301 0.05575 0.5514 0.0
O283 O 0.52241 0.06485 0.97016 0.0
O284 O 0.59762 0.07225 0.7222 0.0
O285 O 0.59279 1.01456 0.68239 0.0
O286 O 0.50445 1.02583 0.51444 0.0
O287 O 0.52757 1.00361 0.82863 0.0
O288 O 0.57338 1.03284 0.89079 0.0
O289 O 0.5127 0.9713 0.53159 0.0
O290 O 0.49462 1.02139 0.76235 0.0
O291 O 0.50019 0.07973 0.76766 0.0
C292 C 0.54226 0.08795 0.56723 0.0
C293 C 0.55631 0.06282 0.13392 0.0
C294 C 0.6098 1.03087 0.1559 0.0
C295 C 0.5912 1.00514 0.21526 0.0
C296 C 0.53887 0.03812 0.20045 0.0
C297 C 0.55657 1.00969 0.24315 0.0
C298 C 0.59192 0.06027 0.12075 0.0
C299 C 0.6113 0.04292 0.68954 0.0
C300 C 0.53763 0.08359 0.04818 0.0
C301 C 0.59749 0.21768 0.75196 0.0
C302 C 0.62998 0.20306 0.76781 0.0
C303 C 0.55369 1.00508 0.89837 0.0
C304 C 0.45564 0.99092 0.52474 0.0
C305 C 0.40201 1.02064 0.56551 0.0
C306 C 0.39159 0.99292 0.63647 0.0
C307 C 0.44387 0.96254 0.58986 0.0
C308 C 0.434 1.019 0.50936 0.0
C309 C 0.4122 0.9638 0.64654 0.0
C310 C 0.4806 0.05211 0.7766 0.0
C311 C 0.49213 0.99516 0.49437 0.0
H312 H 0.60297 0.98124 0.23977 0.0
H313 H 0.51131 0.03937 0.21105 0.0
H314 H 0.5429 0.98982 0.29058 0.0
H315 H 0.60483 0.07996 0.07196 0.0
H316 H 0.36724 0.99333 0.68178 0.0
H317 H 0.4596 0.93994 0.60082 0.0
H318 H 0.44266 0.03972 0.45313 0.0
H319 H 0.40376 0.94226 0.69939 0.0
Tb320 Tb 0.58186 0.54288 0.62808 0.0
C321 C 0.47483 0.48403 0.92789 0.0
N322 N 0.47315 0.51 0.84791 0.0
C323 C 0.42456 0.48236 0.75883 0.0
C324 C 0.45235 0.45556 0.92287 0.0
C325 C 0.44637 0.51071 0.77093 0.0
C326 C 0.4279 0.45439 0.8341 0.0
C327 C 0.5001 0.46088 0.10491 0.0
C328 C 0.49819 0.48669 0.01856 0.0
C329 C 0.47788 0.4325 0.09963 0.0
C330 C 0.45426 0.42971 1.00839 0.0
Tb331 Tb 0.51303 0.55342 0.87209 0.0
N332 N 0.51975 0.51427 0.02006 0.0
C333 C 0.52455 0.46422 0.19329 0.0
C334 C 0.54315 0.51794 0.10778 0.0
C335 C 0.54645 0.4926 0.19372 0.0
H336 H 0.4405 0.53343 0.72147 0.0
H337 H 0.56571 0.49511 0.26099 0.0
H338 H 0.64957 0.58045 0.74392 0.0
H339 H 0.51081 0.57153 0.23198 0.0
H340 H 0.55971 0.54009 0.11069 0.0
H341 H 0.52684 0.4451 0.26149 0.0
H342 H 0.53235 0.53367 0.38641 0.0
H343 H 0.40418 0.48282 0.69492 0.0
H344 H 0.47868 0.41257 0.16575 0.0
H345 H 0.43718 0.40771 1.00582 0.0
H346 H 0.68739 0.62986 0.70214 0.0
H347 H 0.41033 0.43288 0.82677 0.0
H348 H 0.53956 0.6271 0.19328 0.0
N349 N 0.61727 0.58921 0.59738 0.0
C350 C 0.61152 0.60871 0.50126 0.0
C351 C 0.666 0.62434 0.64516 0.0
C352 C 0.63204 0.63766 0.47513 0.0
C353 C 0.64441 0.59636 0.66875 0.0
C354 C 0.65976 0.64515 0.54805 0.0
N355 N 0.56693 0.57055 0.45627 0.0
C356 C 0.54282 0.55909 0.37927 0.0
C357 C 0.57547 0.62104 0.33553 0.0
C358 C 0.58432 0.59999 0.43137 0.0
C359 C 0.5477 0.61136 0.26627 0.0
C360 C 0.53145 0.58006 0.28788 0.0
H361 H 0.67623 0.66707 0.5309 0.0
H362 H 0.63856 0.68137 0.35926 0.0
H363 H 0.58841 0.66719 0.23816 0.0
O364 O 0.60536 0.51467 0.49247 0.0
O365 O 0.57247 0.59531 0.69912 0.0
O366 O 0.51543 0.59497 0.73859 0.0
O367 O 0.63004 0.5215 0.65766 0.0
O368 O 0.52925 0.52355 0.58617 0.0
O369 O 0.49428 0.55925 0.69102 0.0
O370 O 0.5079 0.59675 0.98127 0.0
O371 O 0.54758 0.50853 0.87262 0.0
O372 O 0.55443 0.49472 0.68286 0.0
O373 O 0.46695 0.56034 0.96306 0.0
O374 O 0.56524 0.57168 0.92507 0.0
O375 O 0.60153 0.53956 0.80848 0.0
C376 C 0.54296 0.61154 0.70148 0.0
C377 C 0.63175 0.46656 0.58525 0.0
C378 C 0.60279 0.41092 0.59103 0.0
C379 C 0.62612 0.39966 0.67621 0.0
C380 C 0.65557 0.45443 0.66742 0.0
C381 C 0.6526 0.42122 0.71294 0.0
C382 C 0.606 0.44438 0.5457 0.0
C383 C 0.49973 0.53983 0.59895 0.0
C384 C 0.62936 0.50375 0.56252 0.0
C385 C 0.62349 0.6587 0.37977 0.0
C386 C 0.59488 0.6507 0.31118 0.0
C387 C 0.54987 0.48488 0.79208 0.0
C388 C 0.45198 0.61839 0.9556 0.0
C389 C 0.43347 0.67778 0.9664 0.0
C390 C 0.41296 0.67338 0.86762 0.0
C391 C 0.43115 0.614 0.85628 0.0
C392 C 0.45266 0.65024 1.01066 0.0
C393 C 0.4116 0.64132 0.81331 0.0
C394 C 0.5958 0.55787 0.9034 0.0
C395 C 0.47526 0.59104 0.99563 0.0
H396 H 0.62412 0.37411 0.71346 0.0
H397 H 0.67541 0.47127 0.70085 0.0
H398 H 0.67055 0.41238 0.77826 0.0
H399 H 0.58821 0.4534 0.48003 0.0
H400 H 0.39849 0.69469 0.83212 0.0
H401 H 0.43043 0.58975 0.81041 0.0
H402 H 0.46921 0.65406 0.08557 0.0
H403 H 0.39594 0.63778 0.73642 0.0
Tb404 Tb 0.04986 0.58158 0.62492 0.0
C405 C 0.11529 0.47573 0.94558 0.0
N406 N 0.09337 0.47249 0.85397 0.0
C407 C 0.12734 0.42641 0.77706 0.0
C408 C 0.14428 0.45436 0.95594 0.0
C409 C 0.0988 0.44795 0.77073 0.0
C410 C 0.15009 0.4295 0.87027 0.0
C411 C 0.13241 0.50651 0.1197 0.0
C412 C 0.10924 0.5015 0.02665 0.0
C413 C 0.1613 0.48532 0.13017 0.0
C414 C 0.16707 0.45915 0.04907 0.0
Tb415 Tb 0.04697 0.50832 0.85597 0.0
N416 N 0.08076 0.52145 1.01474 0.0
C417 C 0.12571 0.53243 0.20048 0.0
C418 C 0.07254 0.54413 0.10123 0.0
C419 C 0.09548 0.5511 0.19168 0.0
H420 H 0.08064 0.44409 0.70146 0.0
H421 H 0.0893 0.57022 0.25671 0.0
H422 H 1.01484 0.64583 0.77564 0.0
H423 H 1.00967 0.518 0.22443 0.0
H424 H 0.04802 0.55637 0.1045 0.0
H425 H 0.14307 0.53738 0.27223 0.0
H426 H 0.05056 0.53357 0.37605 0.0
H427 H 0.13144 0.40702 0.71105 0.0
H428 H 0.17928 0.48887 0.20109 0.0
H429 H 0.18954 0.44309 0.05814 0.0
H430 H 0.9634 0.68204 0.76314 0.0
H431 H 0.17212 0.4127 0.87498 0.0
H432 H 0.95469 0.54877 0.20916 0.0
N433 N 1.00272 0.6165 0.62459 0.0
C434 C 0.98091 0.61235 0.53306 0.0
C435 C 0.9679 0.66239 0.69835 0.0
C436 C 0.95152 0.6331 0.52131 0.0
C437 C 0.99684 0.64144 0.70616 0.0
C438 C 0.94524 0.65834 0.6053 0.0
N439 N 1.01649 0.56711 0.46626 0.0
C440 C 1.02555 0.54482 0.37953 0.0
C441 C 0.96445 0.58032 0.3608 0.0
C442 C 0.98749 0.58627 0.45361 0.0
C443 C 0.9719 0.55442 0.28073 0.0
C444 C 1.00282 0.5369 0.28938 0.0
H445 H 0.92288 0.67467 0.5995 0.0
H446 H 0.90598 0.6428 0.4187 0.0
H447 H 0.91715 0.59646 0.27869 0.0
O448 O 0.08848 0.59394 0.50195 0.0
O449 O 0.99941 0.56815 0.70425 0.0
O450 O 1.00249 0.51063 0.73545 0.0
O451 O 0.05481 0.63242 0.56763 0.0
O452 O 0.06815 0.52932 0.56775 0.0
O453 O 0.0371 0.49055 0.67772 0.0
O454 O 1.00829 0.49699 0.97973 0.0
O455 O 0.09764 0.52225 0.77941 0.0
O456 O 0.09452 0.57974 0.74551 0.0
O457 O 0.04042 0.45747 0.91148 0.0
O458 O 1.02892 0.56043 0.9142 0.0
O459 O 0.05919 0.59974 0.80321 0.0
C460 C 0.98459 0.53779 0.70417 0.0
C461 C 0.11194 0.64921 0.54355 0.0
C462 C 0.1731 0.6612 0.5392 0.0
C463 C 0.16802 0.69138 0.60289 0.0
C464 C 0.10703 0.67952 0.60861 0.0
C465 C 0.13498 0.70031 0.63839 0.0
C466 C 0.1451 0.64032 0.50968 0.0
C467 C 0.0541 0.49833 0.58201 0.0
C468 C 0.08281 0.62681 0.51129 0.0
C469 C 0.92878 0.62728 0.42869 0.0
C470 C 0.93506 0.60076 0.34934 0.0
C471 C 0.11222 0.55274 0.78043 0.0
C472 C 0.98202 0.44435 0.92648 0.0
C473 C 0.92056 0.43484 0.93502 0.0
C474 C 0.92244 0.41217 0.84082 0.0
C475 C 0.98386 0.42137 0.83162 0.0
C476 C 0.95028 0.45057 0.97809 0.0
C477 C 0.95419 0.40538 0.78952 0.0
C478 C 0.0424 0.59162 0.89922 0.0
C479 C 1.01227 0.464 0.96604 0.0
H480 H 0.18943 0.70803 0.62388 0.0
H481 H 0.08167 0.68726 0.63637 0.0
H482 H 0.13094 0.7236 0.6879 0.0
H483 H 0.14918 0.61748 0.45738 0.0
H484 H 0.89953 0.39994 0.80726 0.0
H485 H 1.008 0.41613 0.78858 0.0
H486 H 0.94849 0.46831 0.05077 0.0
H487 H 0.95581 0.38798 0.71625 0.0
C488 C 0.16724 0.04418 0.34914 0.0
C489 C 0.16473 0.06947 0.26131 0.0
H490 H 0.14455 1.02041 0.5007 0.0
C491 C 0.1359 0.09145 0.26625 0.0
H492 H 0.18862 1.02652 0.34909 0.0
C493 C 0.11033 0.08787 0.35303 0.0
C494 C 0.11239 0.06208 0.43908 0.0
H495 H 0.13322 0.11182 0.2027 0.0
H496 H 0.08899 0.10556 0.3532 0.0
C497 C 0.14159 0.04054 0.43604 0.0
C498 C 0.53825 0.17464 0.39764 0.0
C499 C 0.55823 0.1684 0.29677 0.0
H500 H 0.51727 0.15502 0.55895 0.0
C501 C 0.57173 0.13464 0.28678 0.0
H502 H 0.52748 0.19983 0.41253 0.0
C503 C 0.56653 0.10906 0.37292 0.0
C504 C 0.54681 0.11535 0.47295 0.0
H505 H 0.58671 0.1274 0.21184 0.0
H506 H 0.57853 0.08425 0.36167 0.0
C507 C 0.53262 0.1487 0.48342 0.0
C508 C 0.41954 0.5606 0.41274 0.0
C509 C 0.41794 0.53311 0.33297 0.0
H510 H 0.44623 0.58458 0.55557 0.0
C511 C 0.44313 0.50714 0.34505 0.0
H512 H 0.40122 0.58136 0.40671 0.0
C513 C 0.46912 0.50897 0.43074 0.0
C514 C 0.47137 0.53701 0.50788 0.0
H515 H 0.44296 0.48519 0.28723 0.0
H516 H 0.48771 0.48842 0.43583 0.0
C517 C 0.44574 0.56255 0.49806 0.0
C518 C 0.08472 0.44471 0.31844 0.0
C519 C 0.05993 0.41801 0.31059 0.0
H520 H 0.10247 0.49038 0.4062 0.0
C521 C 0.03407 0.41769 0.39672 0.0
H522 H 0.10578 0.44583 0.25708 0.0
C523 C 1.03252 0.44339 0.48399 0.0
C524 C 0.05658 0.47071 0.48856 0.0
H525 H 1.01425 0.39816 0.39483 0.0
H526 H 1.01181 0.4422 0.54692 0.0
C527 C 0.08297 0.47053 0.40482 0.0
C528 C 0.9445 1.0087 0.12015 0.0
C529 C 0.91631 1.03149 0.12986 0.0
H530 H 0.99135 0.99511 0.03189 0.0
C531 C 0.91442 0.05816 0.04676 0.0
H532 H 0.94682 0.98724 0.17988 0.0
C533 C 0.94022 0.06247 0.9606 0.0
C534 C 0.96904 0.04043 0.9545 0.0
H535 H 0.89363 0.07648 0.05063 0.0
H536 H 0.93787 0.08367 0.89971 0.0
C537 C 0.97036 1.0132 0.03509 0.0
C538 C 0.59825 0.92842 0.04727 0.0
C539 C 0.57239 0.91438 0.12084 0.0
H540 H 0.6134 0.9679 0.9242 0.0
C541 C 0.53983 0.92993 0.11438 0.0
H542 H 0.62335 0.91673 0.04406 0.0
C543 C 0.53403 0.95903 0.04221 0.0
C544 C 0.56071 0.97441 0.97627 0.0
H545 H 0.51894 0.92029 0.16754 0.0
H546 H 0.50867 0.97023 0.04062 0.0
C547 C 0.59267 0.95801 0.97774 0.0
C548 C 0.67872 0.53701 0.07504 0.0
C549 C 0.67658 0.55859 0.17342 0.0
H550 H 0.65557 0.5196 0.91533 0.0
C551 C 0.6483 0.58131 0.17759 0.0
H552 H 0.69961 0.51892 0.06746 0.0
C553 C 0.62266 0.58154 0.09057 0.0
C554 C 0.62412 0.55916 0.99459 0.0
H555 H 0.64582 0.599 0.24944 0.0
H556 H 0.60152 0.59927 0.09877 0.0
C557 C 0.65305 0.5373 0.98755 0.0
C558 C 0.05909 0.67359 0.08098 0.0
C559 C 1.03391 0.6719 0.16931 0.0
H560 H 0.08166 0.65017 0.9294 0.0
C561 C 1.01094 0.64359 0.16514 0.0
H562 H 0.07754 0.69443 0.08008 0.0
C563 C 1.01353 0.61781 0.07895 0.0
C564 C 0.03912 0.61918 0.99239 0.0
H565 H 0.9905 0.64135 0.22853 0.0
H566 H 0.99526 0.59682 0.07978 0.0
C567 C 0.06158 0.64783 0.99434 0.0
C568 C 0.93615 0.24072 0.28053 0.0
C569 C 0.97045 0.24941 0.30196 0.0
H570 H 0.89336 0.21016 0.33506 0.0
C571 C 0.98544 0.24096 0.40918 0.0
H572 H 0.92435 0.24709 0.19775 0.0
C573 C 0.96785 0.21974 0.48729 0.0
C574 C 0.93519 0.2072 0.45836 0.0
H575 H 1.01199 0.24739 0.42644 0.0
H576 H 0.9812 0.20993 0.56321 0.0
C577 C 0.9184 0.21989 0.35926 0.0
C578 C 0.37497 0.09558 0.39356 0.0
C579 C 0.34464 0.08143 0.34942 0.0
H580 H 0.41614 0.08892 0.5138 0.0
C581 C 0.32746 0.05584 0.41412 0.0
H582 H 0.38799 0.11622 0.34765 0.0
C583 C 0.34415 0.03924 0.50489 0.0
C584 C 0.37801 0.04837 0.53167 0.0
H585 H 0.3035 0.04493 0.38393 0.0
H586 H 0.33253 1.01603 0.5393 0.0
C587 C 0.39101 0.07978 0.48815 0.0
C588 C 0.5291 0.38114 0.40727 0.0
C589 C 0.54305 0.35056 0.36401 0.0
H590 H 0.53671 0.42429 0.51936 0.0
C591 C 0.57116 0.33573 0.42192 0.0
H592 H 0.5069 0.39258 0.36617 0.0
C593 C 0.58837 0.35385 0.50813 0.0
C594 C 0.57773 0.38704 0.53795 0.0
H595 H 0.58264 0.31213 0.3911 0.0
H596 H 0.61228 0.34347 0.54027 0.0
C597 C 0.54627 0.39925 0.49446 0.0
C598 C 0.24252 0.60429 0.43815 0.0
C599 C 0.24878 0.6195 0.32918 0.0
H600 H 0.21299 0.60686 0.5955 0.0
C601 C 0.23781 0.6532 0.30736 0.0
H602 H 0.25067 0.57818 0.45577 0.0
C603 C 0.21688 0.66979 0.38785 0.0
C604 C 0.20646 0.65246 0.48928 0.0
H605 H 0.24244 0.66517 0.22325 0.0
H606 H 0.20535 0.69411 0.36388 0.0
C607 C 0.22118 0.62068 0.51799 0.0
C608 C 0.0898 0.8437 0.03083 0.0
C609 C 0.06014 0.8572 0.08216 0.0
H610 H 0.1335 0.85404 0.92496 0.0
C611 C 0.04641 0.88766 0.03845 0.0
H612 H 0.10021 0.81939 0.06022 0.0
C613 C 0.06599 0.90823 0.96479 0.0
C614 C 0.09984 0.89851 0.93469 0.0
H615 H 1.02267 0.89772 0.07334 0.0
H616 H 0.0556 0.93331 0.94662 0.0
C617 C 0.10929 0.86408 0.9552 0.0
C618 C 0.69878 0.99198 0.12269 0.0
C619 C 0.71897 1.0217 0.1334 0.0
H620 H 0.64844 0.97128 0.12892 0.0
C621 C 0.70386 0.05345 0.10811 0.0
H622 H 0.71003 0.96695 0.13808 0.0
C623 C 0.66832 0.05653 0.11391 0.0
C624 C 0.64724 1.02722 0.12829 0.0
H625 H 0.71908 0.07677 0.11265 0.0
H626 H 0.65818 0.08229 0.11833 0.0
C627 C 0.66307 0.99472 0.12269 0.0
C628 C 0.48306 0.75248 0.06329 0.0
C629 C 0.47182 0.75372 0.17968 0.0
H630 H 0.47785 0.72698 0.89917 0.0
C631 C 0.44043 0.73829 0.21007 0.0
H632 H 0.50717 0.76415 0.03754 0.0
C633 C 0.42384 0.71687 0.1309 0.0
C634 C 0.43828 0.71136 0.02069 0.0
H635 H 0.43105 0.73939 0.29901 0.0
H636 H 0.4024 0.70137 0.16066 0.0
C637 C 0.46624 0.73132 0.98382 0.0
C638 C 0.85988 0.44251 0.17951 0.0
C639 C 0.84755 0.47576 0.15803 0.0
H640 H 0.89268 0.40231 0.11942 0.0
C641 C 0.85182 0.49068 0.04746 0.0
H642 H 0.85678 0.43074 0.26474 0.0
C643 C 0.87227 0.4744 0.96452 0.0
C644 C 0.88813 0.44311 0.99194 0.0
H645 H 0.84263 0.51644 0.03004 0.0
H646 H 0.87883 0.488 0.8848 0.0
C647 C 0.8801 0.42618 0.09647 0.0
C648 C 0.05282 0.20659 0.86488 0.0
C649 C 1.02235 0.21394 0.92639 0.0
H650 H 0.07968 0.17164 0.75081 0.0
C651 C 0.99429 0.19138 0.9061 0.0
H652 H 0.07492 0.22322 0.87422 0.0
C653 C 0.9976 0.161 0.84033 0.0
C654 C 1.02888 0.15197 0.78814 0.0
H655 H 0.96951 0.19647 0.94474 0.0
H656 H 0.97575 0.14385 0.83434 0.0
C657 C 0.0558 0.1764 0.79572 0.0
C658 C 0.3949 1.03224 0.93506 0.0
C659 C 0.37819 0.0644 0.93676 0.0
H660 H 0.43926 1.00292 0.88365 0.0
C661 C 0.39465 0.09177 0.87778 0.0
H662 H 0.38384 1.01074 0.98227 0.0
C663 C 0.42684 0.08744 0.82227 0.0
C664 C 0.44423 0.05562 0.82429 0.0
H665 H 0.38336 0.11715 0.87955 0.0
H666 H 0.43856 0.10947 0.78017 0.0
C667 C 0.42709 1.02786 0.8792 0.0
C668 C 0.52844 0.38911 0.85632 0.0
C669 C 0.55084 0.38141 0.94978 0.0
H670 H 0.51067 0.42714 0.73167 0.0
C671 C 0.57546 0.40688 0.97759 0.0
H672 H 0.50843 0.37101 0.83365 0.0
C673 C 0.57627 0.43918 0.921 0.0
C674 C 0.55302 0.4476 0.83161 0.0
H675 H 0.59287 0.40264 0.04967 0.0
H676 H 0.59434 0.45837 0.95127 0.0
C677 C 0.52966 0.42157 0.79776 0.0
C678 C 0.18969 0.59327 0.93621 0.0
C679 C 0.21157 0.56503 0.96068 0.0
H680 H 0.14219 0.61167 0.8651 0.0
C681 C 0.20245 0.53343 0.90884 0.0
H682 H 0.19595 0.61863 0.96863 0.0
C683 C 0.17152 0.52988 0.84401 0.0
C684 C 0.14801 0.55735 0.83176 0.0
H685 H 0.21838 0.51105 0.9223 0.0
H686 H 0.16565 0.50528 0.80534 0.0
C687 C 0.15859 0.58944 0.87492 0.0
C688 C 1.02526 0.89453 0.57793 0.0
C689 C 0.05191 0.8862 0.49979 0.0
H690 H 1.00341 0.93235 0.69382 0.0
C691 C 0.07943 0.90999 0.49174 0.0
H692 H 1.0034 0.87748 0.58646 0.0
C693 C 0.07912 0.94173 0.55149 0.0
C694 C 0.05118 0.95131 0.62178 0.0
H695 H 0.10055 0.90489 0.43291 0.0
H696 H 0.09994 0.95971 0.53668 0.0
C697 C 1.02501 0.92645 0.63814 0.0
C698 C 0.69788 0.0701 0.55631 0.0
C699 C 0.71572 0.0387 0.54788 0.0
H700 H 0.65151 0.09613 0.60586 0.0
C701 C 0.70045 1.00967 0.60124 0.0
H702 H 0.7079 0.09273 0.51256 0.0
C703 C 0.66765 1.01146 0.65348 0.0
C704 C 0.64862 0.04221 0.65263 0.0
H705 H 0.71249 0.98476 0.59299 0.0
H706 H 0.65633 0.98815 0.68848 0.0
C707 C 0.66503 0.07187 0.60814 0.0
C708 C 0.50456 0.69404 0.56887 0.0
C709 C 0.53352 0.71343 0.53128 0.0
H710 H 0.48455 0.64764 0.64586 0.0
C711 C 0.56575 0.70095 0.56739 0.0
H712 H 0.47893 0.70295 0.54969 0.0
C713 C 0.56872 0.66928 0.62939 0.0
C714 C 0.53992 0.64806 0.65297 0.0
H715 H 0.58883 0.71486 0.54388 0.0
H716 H 0.59381 0.66104 0.65707 0.0
C717 C 0.50768 0.66199 0.62595 0.0
C718 C 0.89366 0.55802 0.58534 0.0
C719 C 0.88421 0.52676 0.53205 0.0
H720 H 0.9313 0.58552 0.6873 0.0
C721 C 0.90601 0.49827 0.55314 0.0
H722 H 0.87776 0.58053 0.57406 0.0
C723 C 0.93746 0.50164 0.61242 0.0
C724 C 0.94844 0.53351 0.65634 0.0
H725 H 0.89949 0.4732 0.5187 0.0
H726 H 0.95385 0.47931 0.61955 0.0
C727 C 0.92498 0.56111 0.64794 0.0
loop_
_geom_bond_atom_site_label_1
_geom_bond_atom_site_label_2
_geom_bond_distance
_geom_bond_site_symmetry_2
_ccdc_geom_bond_type
H0 C1 0.949 . S
C1 H0 0.949 . S
C1 C2 1.395 . S
C1 C3 1.391 . S
C2 C1 1.395 . S
C2 C5 1.390 . S
C3 C1 1.391 . S
C3 C7 1.387 . S
C3 C8 1.491 . S
H4 C5 0.950 . S
C5 C2 1.390 . S
C5 H4 0.950 . S
C5 C6 1.378 . S
C6 C5 1.378 . S
C6 C7 1.409 . S
C7 C3 1.387 . S
C7 C6 1.409 . S
C7 H9 0.951 . S
C8 C3 1.491 . S
C8 C10 1.382 . S
C8 C12 1.404 . S
H9 C7 0.951 . S
C10 C8 1.382 . S
C10 C11 1.390 . S
C10 H15 0.949 . S
C11 C10 1.390 . S
C11 C16 1.399 . S
C12 C8 1.404 . S
C12 H13 0.950 . S
C12 C14 1.375 . S
H13 C12 0.950 . S
C14 C12 1.375 . S
C14 C16 1.382 . S
C14 H18 0.950 . S
H15 C10 0.949 . S
C16 C11 1.399 . S
C16 C14 1.382 . S
C16 H17 0.952 . S
H17 C16 0.952 . S
H18 C14 0.950 . S
H19 C20 0.949 . S
C20 H19 0.949 . S
C20 C21 1.395 . S
C20 C22 1.391 . S
C21 C20 1.395 . S
C21 C24 1.390 . S
C22 C20 1.391 . S
C22 C26 1.387 . S
C22 C27 1.491 . S
H23 C24 0.950 . S
C24 C21 1.390 . S
C24 H23 0.950 . S
C24 C25 1.378 . S
C25 C24 1.378 . S
C25 C26 1.409 . S
C26 C22 1.387 . S
C26 C25 1.409 . S
C26 H28 0.951 . S
C27 C22 1.491 . S
C27 C29 1.382 . S
C27 C31 1.404 . S
H28 C26 0.951 . S
C29 C27 1.382 . S
C29 C30 1.390 . S
C29 H34 0.967 . S
C30 C29 1.390 . S
C30 C35 1.399 . S
C31 C27 1.404 . S
C31 H32 0.950 . S
C31 C33 1.375 . S
H32 C31 0.950 . S
C33 C31 1.375 . S
C33 C35 1.382 . S
C33 H37 0.950 . S
H34 C29 0.967 . S
C35 C30 1.399 . S
C35 C33 1.382 . S
C35 H36 0.952 . S
H36 C35 0.952 . S
H37 C33 0.950 . S
H38 C39 0.949 . S
C39 H38 0.949 . S
C39 C40 1.395 . S
C39 C41 1.391 . S
C40 C39 1.395 . S
C40 C43 1.390 . S
C41 C39 1.391 . S
C41 C45 1.387 . S
C41 C46 1.491 . S
H42 C43 0.950 . S
C43 C40 1.390 . S
C43 H42 0.950 . S
C43 C44 1.378 . S
C44 C43 1.378 . S
C44 C45 1.409 . S
C45 C41 1.387 . S
C45 C44 1.409 . S
C45 H47 0.951 . S
C46 C41 1.491 . S
C46 C48 1.382 . S
C46 C50 1.404 . S
H47 C45 0.951 . S
C48 C46 1.382 . S
C48 C49 1.390 . S
C48 H53 0.949 . S
C49 C48 1.390 . S
C49 C54 1.399 . S
C50 C46 1.404 . S
C50 H51 0.950 . S
C50 C52 1.375 . S
H51 C50 0.950 . S
C52 C50 1.375 . S
C52 C54 1.382 . S
C52 H56 0.950 . S
H53 C48 0.949 . S
C54 C49 1.399 . S
C54 C52 1.382 . S
C54 H55 0.952 . S
H55 C54 0.952 . S
H56 C52 0.950 . S
H57 C58 0.949 . S
C58 H57 0.949 . S
C58 C59 1.395 . S
C58 C60 1.391 . S
C59 C58 1.395 . S
C59 C62 1.390 . S
C60 C58 1.391 . S
C60 C64 1.387 . S
C60 C65 1.491 . S
H61 C62 0.950 . S
C62 C59 1.390 . S
C62 H61 0.950 . S
C62 C63 1.378 . S
C63 C62 1.378 . S
C63 C64 1.409 . S
C64 C60 1.387 . S
C64 C63 1.409 . S
C64 H66 0.951 . S
C65 C60 1.491 . S
C65 C67 1.382 . S
C65 C69 1.404 . S
H66 C64 0.951 . S
C67 C65 1.382 . S
C67 C68 1.390 . S
C67 H72 0.949 . S
C68 C67 1.390 . S
C68 C73 1.399 . S
C69 C65 1.404 . S
C69 H70 0.950 . S
C69 C71 1.375 . S
H70 C69 0.950 . S
C71 C69 1.375 . S
C71 C73 1.382 . S
C71 H75 0.950 . S
H72 C67 0.949 . S
C73 C68 1.399 . S
C73 C71 1.382 . S
C73 H74 0.952 . S
H74 C73 0.952 . S
H75 C71 0.950 . S
H76 C77 0.949 . S
C77 H76 0.949 . S
C77 C78 1.395 . S
C77 C79 1.400 . S
C78 C77 1.395 . S
C78 C81 1.390 1_554 S
C79 C77 1.400 . S
C79 C83 1.378 1_554 S
C79 C84 1.492 . S
H80 C81 0.950 . S
C81 C78 1.390 1_556 S
C81 H80 0.950 . S
C81 C82 1.378 . S
C82 C81 1.378 . S
C82 C83 1.409 . S
C83 C79 1.378 1_556 S
C83 C82 1.409 . S
C83 H85 0.951 . S
C84 C79 1.492 . S
C84 C86 1.382 . S
C84 C88 1.404 1_554 S
H85 C83 0.951 . S
C86 C84 1.382 . S
C86 C87 1.390 . S
C86 H91 0.949 . S
C87 C86 1.390 . S
C87 C92 1.399 . S
C88 C84 1.404 1_556 S
C88 H89 0.950 . S
C88 C90 1.375 . S
H89 C88 0.950 . S
C90 C88 1.375 . S
C90 C92 1.382 1_556 S
C90 H94 0.950 . S
H91 C86 0.949 . S
C92 C87 1.399 . S
C92 C90 1.382 1_554 S
C92 H93 0.952 . S
H93 C92 0.952 . S
H94 C90 0.950 . S
H95 C96 0.949 . S
C96 H95 0.949 . S
C96 C97 1.395 . S
C96 C98 1.391 . S
C97 C96 1.395 . S
C97 C100 1.390 1_554 S
C98 C96 1.391 . S
C98 C102 1.387 1_554 S
C98 C103 1.491 . S
H99 C100 0.950 . S
C100 C97 1.390 1_556 S
C100 H99 0.950 . S
C100 C101 1.378 . S
C101 C100 1.378 . S
C101 C102 1.409 . S
C102 C98 1.387 1_556 S
C102 C101 1.409 . S
C102 H104 0.951 . S
C103 C98 1.491 . S
C103 C105 1.382 . S
C103 C107 1.404 1_454 S
H104 C102 0.951 . S
C105 C103 1.382 . S
C105 C106 1.390 . S
C105 H110 0.949 . S
C106 C105 1.390 . S
C106 C111 1.399 . S
C107 C103 1.404 1_656 S
C107 H108 0.950 . S
C107 C109 1.375 . S
H108 C107 0.950 . S
C109 C107 1.375 . S
C109 C111 1.382 1_656 S
C109 H113 0.950 . S
H110 C105 0.949 . S
C111 C106 1.399 . S
C111 C109 1.382 1_454 S
C111 H112 0.952 1_455 S
H112 C111 0.952 1_655 S
H113 C109 0.950 . S
H114 C115 0.949 . S
C115 H114 0.949 . S
C115 C116 1.395 . S
C115 C117 1.391 . S
C116 C115 1.395 . S
C116 C119 1.390 1_554 S
C117 C115 1.391 . S
C117 C121 1.387 1_554 S
C117 C122 1.491 . S
H118 C119 0.950 . S
C119 C116 1.390 1_556 S
C119 H118 0.950 . S
C119 C120 1.378 . S
C120 C119 1.378 . S
C120 C121 1.409 . S
C121 C117 1.387 1_556 S
C121 C120 1.409 . S
C121 H123 0.951 . S
C122 C117 1.491 . S
C122 C124 1.382 . S
C122 C126 1.404 1_544 S
H123 C121 0.951 . S
C124 C122 1.382 . S
C124 C125 1.390 . S
C124 H129 0.949 . S
C125 C124 1.390 . S
C125 C130 1.399 . S
C126 C122 1.404 1_566 S
C126 H127 0.950 . S
C126 C128 1.375 . S
H127 C126 0.950 . S
C128 C126 1.375 . S
C128 C130 1.382 1_566 S
C128 H132 0.950 . S
H129 C124 0.949 . S
C130 C125 1.399 . S
C130 C128 1.382 1_544 S
C130 H131 0.952 1_545 S
H131 C130 0.952 1_565 S
H132 C128 0.950 . S
H133 C134 0.949 . S
C134 H133 0.949 . S
C134 C135 1.395 . S
C134 C136 1.391 1_554 S
C135 C134 1.395 . S
C135 C138 1.390 1_554 S
C136 C134 1.391 1_556 S
C136 C140 1.387 . S
C136 C141 1.491 1_556 S
H137 C138 0.950 . S
C138 C135 1.390 1_556 S
C138 H137 0.950 . S
C138 C139 1.378 . S
C139 C138 1.378 . S
C139 C140 1.409 . S
C140 C136 1.387 . S
C140 C139 1.409 . S
C140 H142 0.951 . S
C141 C136 1.491 1_554 S
C141 C143 1.382 . S
C141 C145 1.404 1_554 S
H142 C140 0.951 . S
C143 C141 1.382 . S
C143 C144 1.390 . S
C143 H148 0.949 . S
C144 C143 1.390 . S
C144 C149 1.399 . S
C145 C141 1.404 1_556 S
C145 H146 0.950 . S
C145 C147 1.375 . S
H146 C145 0.950 . S
C147 C145 1.375 . S
C147 C149 1.382 1_556 S
C147 H151 0.950 . S
H148 C143 0.949 . S
C149 C144 1.399 . S
C149 C147 1.382 1_554 S
C149 H150 0.952 . S
H150 C149 0.952 . S
H151 C147 0.950 . S
Tb152 N181 2.617 . S
Tb152 N187 2.572 . S
Tb152 O196 2.464 1_655 S
Tb152 O197 2.387 1_545 S
Tb152 O199 2.428 . S
Tb152 O200 2.308 1_655 S
Tb152 O204 2.349 1_655 S
Tb152 O207 2.393 . S
Tb152 C216 2.802 . S
C153 N154 1.379 1_554 S
C153 C156 1.416 . S
C153 C160 1.424 . S
N154 C153 1.379 1_556 S
N154 C157 1.334 . S
N154 Tb163 2.617 1_545 S
C155 C157 1.390 . S
C155 C158 1.339 . S
C155 H175 0.930 . S
C156 C153 1.416 . S
C156 C158 1.416 1_554 S
C156 C162 1.448 . S
C157 N154 1.334 . S
C157 C155 1.390 . S
C157 H168 0.930 1_545 S
C158 C155 1.339 . S
C158 C156 1.416 1_556 S
C158 H179 0.930 1_556 S
C159 C160 1.413 . S
C159 C161 1.427 . S
C159 C165 1.416 . S
C160 C153 1.424 . S
C160 C159 1.413 . S
C160 N164 1.361 . S
C161 C159 1.427 . S
C161 C162 1.328 . S
C161 H176 0.929 . S
C162 C156 1.448 . S
C162 C161 1.328 . S
C162 H177 0.930 . S
Tb163 N154 2.617 1_565 S
Tb163 N164 2.572 1_566 S
Tb163 O198 2.349 . S
Tb163 O201 2.393 . S
Tb163 O202 2.465 . S
Tb163 O203 2.387 1_565 S
Tb163 O205 2.428 . S
Tb163 O206 2.308 1_465 S
Tb163 C227 2.802 . S
N164 C160 1.361 . S
N164 Tb163 2.572 1_544 S
N164 C166 1.340 . S
C165 C159 1.416 . S
C165 C167 1.332 . S
C165 H173 0.931 . S
C166 N164 1.340 . S
C166 C167 1.407 . S
C166 H172 0.930 1_455 S
C167 C165 1.332 . S
C167 C166 1.407 . S
C167 H169 0.929 1_455 S
H168 C157 0.930 1_565 S
H169 C167 0.929 1_655 S
H170 C185 0.930 . S
H171 C192 0.929 . S
H172 C166 0.930 1_655 S
H173 C165 0.931 . S
H174 C188 0.930 . S
H175 C155 0.930 . S
H176 C161 0.929 . S
H177 C162 0.930 . S
H178 C183 0.930 . S
H179 C158 0.930 1_554 S
H180 C191 0.931 . S
N181 Tb152 2.617 . S
N181 C182 1.379 1_545 S
N181 C185 1.334 . S
C182 N181 1.379 1_565 S
C182 C184 1.416 . S
C182 C190 1.424 . S
C183 H178 0.930 . S
C183 C185 1.390 . S
C183 C186 1.339 1_545 S
C184 C182 1.416 . S
C184 C186 1.416 . S
C184 C217 1.448 . S
C185 H170 0.930 . S
C185 N181 1.334 . S
C185 C183 1.390 . S
C186 C183 1.339 1_565 S
C186 C184 1.416 . S
C186 H193 0.930 . S
N187 Tb152 2.572 . S
N187 C188 1.340 1_655 S
N187 C190 1.361 1_545 S
C188 H174 0.930 . S
C188 N187 1.340 1_455 S
C188 C192 1.407 1_545 S
C189 C190 1.413 . S
C189 C191 1.416 . S
C189 C218 1.427 . S
C190 C182 1.424 . S
C190 N187 1.361 1_565 S
C190 C189 1.413 . S
C191 H180 0.931 . S
C191 C189 1.416 . S
C191 C192 1.332 1_655 S
C192 H171 0.929 . S
C192 C188 1.407 1_565 S
C192 C191 1.332 1_455 S
H193 C186 0.930 . S
H194 C217 0.930 . S
H195 C218 0.929 . S
O196 Tb152 2.464 1_455 S
O196 C216 1.260 1_455 S
O197 Tb152 2.387 1_565 S
O197 C208 1.264 . S
O198 Tb163 2.349 . S
O198 C208 1.243 1_455 S
O199 Tb152 2.428 . S
O199 C216 1.256 . S
O200 Tb152 2.308 1_455 S
O200 C215 1.266 . S
O201 Tb163 2.393 . S
O201 C215 1.248 1_565 S
O202 Tb163 2.465 . S
O202 C227 1.264 . S
O203 Tb163 2.387 1_545 S
O203 C219 1.264 . S
O204 Tb152 2.349 1_455 S
O204 C219 1.243 . S
O205 Tb163 2.428 . S
O205 C227 1.256 . S
O206 Tb163 2.308 1_645 S
O206 C226 1.266 . S
O207 Tb152 2.393 . S
O207 C226 1.248 . S
C208 O197 1.264 . S
C208 O198 1.243 1_655 S
C209 C212 1.399 . S
C209 C214 1.383 . S
C209 C216 1.496 . S
C210 C211 1.399 . S
C210 C214 1.389 . S
C211 C210 1.399 . S
C211 C213 1.380 . S
C211 H228 0.929 . S
C212 C209 1.399 . S
C212 C213 1.392 . S
C212 H229 0.929 . S
C213 C211 1.380 . S
C213 C212 1.392 . S
C213 H230 0.929 . S
C214 C209 1.383 . S
C214 C210 1.389 . S
C214 H231 0.931 1_655 S
C215 O200 1.266 . S
C215 O201 1.248 1_545 S
C216 Tb152 2.802 . S
C216 O196 1.260 1_655 S
C216 O199 1.256 . S
C216 C209 1.496 . S
C217 C184 1.448 . S
C217 H194 0.930 . S
C217 C218 1.328 . S
C218 C189 1.427 . S
C218 H195 0.929 . S
C218 C217 1.328 . S
C219 O203 1.264 . S
C219 O204 1.243 . S
C220 C223 1.399 . S
C220 C224 1.383 . S
C220 C227 1.496 1_554 S
C221 C222 1.399 . S
C221 C224 1.389 . S
C222 C221 1.399 . S
C222 C225 1.380 . S
C222 H232 0.929 . S
C223 C220 1.399 . S
C223 C225 1.392 . S
C223 H233 0.929 1_554 S
C224 C220 1.383 . S
C224 C221 1.389 . S
C224 H234 0.931 . S
C225 C222 1.380 . S
C225 C223 1.392 . S
C225 H235 0.929 . S
C226 O206 1.266 . S
C226 O207 1.248 . S
C227 Tb163 2.802 . S
C227 O202 1.264 . S
C227 O205 1.256 . S
C227 C220 1.496 1_556 S
H228 C211 0.929 . S
H229 C212 0.929 . S
H230 C213 0.929 . S
H231 C214 0.931 1_455 S
H232 C222 0.929 . S
H233 C223 0.929 1_556 S
H234 C224 0.931 . S
H235 C225 0.929 . S
Tb236 N265 2.617 . S
Tb236 N271 2.572 . S
Tb236 O280 2.465 . S
Tb236 O281 2.387 . S
Tb236 O283 2.428 1_556 S
Tb236 O284 2.308 . S
Tb236 O288 2.349 1_545 S
Tb236 O291 2.393 . S
Tb236 C300 2.802 1_556 S
C237 N238 1.379 . S
C237 C240 1.416 . S
C237 C244 1.424 . S
N238 C237 1.379 . S
N238 C241 1.334 . S
N238 Tb247 2.617 . S
C239 C241 1.390 . S
C239 C242 1.339 . S
C239 H259 0.930 . S
C240 C237 1.416 . S
C240 C242 1.416 . S
C240 C246 1.448 . S
C241 N238 1.334 . S
C241 C239 1.390 . S
C241 H252 0.930 . S
C242 C239 1.339 . S
C242 C240 1.416 . S
C242 H263 0.930 . S
C243 C244 1.413 . S
C243 C245 1.427 . S
C243 C249 1.416 . S
C244 C237 1.424 . S
C244 C243 1.413 . S
C244 N248 1.361 . S
C245 C243 1.427 . S
C245 C246 1.328 . S
C245 H260 0.929 . S
C246 C240 1.448 . S
C246 C245 1.328 . S
C246 H261 0.930 . S
Tb247 N238 2.617 . S
Tb247 N248 2.572 . S
Tb247 O282 2.349 1_565 S
Tb247 O285 2.393 . S
Tb247 O286 2.465 . S
Tb247 O287 2.387 . S
Tb247 O289 2.428 . S
Tb247 O290 2.299 1_565 S
Tb247 C311 2.802 . S
N248 C244 1.361 . S
N248 Tb247 2.572 . S
N248 C250 1.340 . S
C249 C243 1.416 . S
C249 C251 1.332 . S
C249 H257 0.931 . S
C250 N248 1.340 . S
C250 C251 1.407 . S
C250 H256 0.930 . S
C251 C249 1.332 . S
C251 C250 1.407 . S
C251 H253 0.929 . S
H252 C241 0.930 . S
H253 C251 0.929 . S
H254 C269 0.930 . S
H255 C276 0.929 . S
H256 C250 0.930 . S
H257 C249 0.931 . S
H258 C272 0.930 . S
H259 C239 0.930 . S
H260 C245 0.929 . S
H261 C246 0.930 . S
H262 C267 0.930 . S
H263 C242 0.930 . S
H264 C275 0.931 . S
N265 Tb236 2.617 . S
N265 C266 1.379 . S
N265 C269 1.334 1_556 S
C266 N265 1.379 . S
C266 C268 1.416 . S
C266 C274 1.424 . S
C267 H262 0.930 . S
C267 C269 1.390 . S
C267 C270 1.339 . S
C268 C266 1.416 . S
C268 C270 1.416 1_556 S
C268 C301 1.448 . S
C269 H254 0.930 . S
C269 N265 1.334 1_554 S
C269 C267 1.390 . S
C270 C267 1.339 . S
C270 C268 1.416 1_554 S
C270 H277 0.930 . S
N271 Tb236 2.572 . S
N271 C272 1.340 . S
N271 C274 1.361 . S
C272 H258 0.930 . S
C272 N271 1.340 . S
C272 C276 1.407 . S
C273 C274 1.413 . S
C273 C275 1.416 . S
C273 C302 1.427 . S
C274 C266 1.424 . S
C274 N271 1.361 . S
C274 C273 1.413 . S
C275 H264 0.931 . S
C275 C273 1.416 . S
C275 C276 1.332 . S
C276 H255 0.929 . S
C276 C272 1.407 . S
C276 C275 1.332 . S
H277 C270 0.930 . S
H278 C301 0.930 . S
H279 C302 0.929 . S
O280 Tb236 2.465 . S
O280 C300 1.264 1_556 S
O281 Tb236 2.387 . S
O281 C292 1.264 . S
O282 Tb247 2.349 1_545 S
O282 C292 1.243 . S
O283 Tb236 2.428 1_554 S
O283 C300 1.256 . S
O284 Tb236 2.308 . S
O284 C299 1.266 1_545 S
O285 Tb247 2.393 . S
O285 C299 1.248 . S
O286 Tb247 2.465 . S
O286 C311 1.264 . S
O287 Tb247 2.387 . S
O287 C303 1.264 . S
O288 Tb236 2.349 1_565 S
O288 C303 1.243 . S
O289 Tb247 2.428 . S
O289 C311 1.256 . S
O290 Tb247 2.299 1_545 S
O290 C310 1.280 . S
O291 Tb236 2.393 . S
O291 C310 1.248 . S
C292 O281 1.264 . S
C292 O282 1.243 . S
C293 C296 1.399 . S
C293 C298 1.383 . S
C293 C300 1.496 . S
C294 C295 1.399 . S
C294 C298 1.389 . S
C295 C294 1.399 . S
C295 C297 1.380 . S
C295 H312 0.929 . S
C296 C293 1.399 . S
C296 C297 1.392 . S
C296 H313 0.929 . S
C297 C295 1.380 . S
C297 C296 1.392 . S
C297 H314 0.929 . S
C298 C293 1.383 . S
C298 C294 1.389 . S
C298 H315 0.931 . S
C299 O284 1.266 1_565 S
C299 O285 1.248 . S
C300 Tb236 2.802 1_554 S
C300 O280 1.264 1_554 S
C300 O283 1.256 . S
C300 C293 1.496 . S
C301 C268 1.448 . S
C301 H278 0.930 . S
C301 C302 1.328 . S
C302 C273 1.427 . S
C302 H279 0.929 . S
C302 C301 1.328 . S
C303 O287 1.264 . S
C303 O288 1.243 . S
C304 C307 1.399 . S
C304 C308 1.393 . S
C304 C311 1.496 . S
C305 C306 1.396 1_545 S
C305 C308 1.388 1_545 S
C306 C305 1.396 1_565 S
C306 C309 1.380 . S
C306 H316 0.929 . S
C307 C304 1.399 . S
C307 C309 1.392 . S
C307 H317 0.929 . S
C308 C304 1.393 . S
C308 C305 1.388 1_565 S
C308 H318 0.923 1_565 S
C309 C306 1.380 . S
C309 C307 1.392 . S
C309 H319 0.929 . S
C310 O290 1.280 . S
C310 O291 1.248 . S
C311 Tb247 2.802 . S
C311 O286 1.264 . S
C311 O289 1.256 . S
C311 C304 1.496 . S
H312 C295 0.929 . S
H313 C296 0.929 . S
H314 C297 0.929 . S
H315 C298 0.931 . S
H316 C306 0.929 . S
H317 C307 0.929 . S
H318 C308 0.923 1_545 S
H319 C309 0.929 . S
Tb320 N349 2.617 . S
Tb320 N355 2.572 . S
Tb320 O364 2.465 . S
Tb320 O365 2.387 . S
Tb320 O367 2.428 . S
Tb320 O368 2.308 . S
Tb320 O372 2.349 . S
Tb320 O375 2.393 . S
Tb320 C384 2.802 . S
C321 N322 1.379 1_554 S
C321 C324 1.416 . S
C321 C328 1.424 . S
N322 C321 1.379 1_556 S
N322 C325 1.334 . S
N322 Tb331 2.617 . S
C323 C325 1.390 . S
C323 C326 1.339 . S
C323 H343 0.930 . S
C324 C321 1.416 . S
C324 C326 1.416 1_554 S
C324 C330 1.448 . S
C325 N322 1.334 . S
C325 C323 1.390 . S
C325 H336 0.930 . S
C326 C323 1.339 . S
C326 C324 1.416 1_556 S
C326 H347 0.930 1_556 S
C327 C328 1.413 . S
C327 C329 1.427 . S
C327 C333 1.416 . S
C328 C321 1.424 . S
C328 C327 1.413 . S
C328 N332 1.361 . S
C329 C327 1.427 . S
C329 C330 1.328 . S
C329 H344 0.929 . S
C330 C324 1.448 . S
C330 C329 1.328 . S
C330 H345 0.930 . S
Tb331 N322 2.617 . S
Tb331 N332 2.572 1_556 S
Tb331 O366 2.349 . S
Tb331 O369 2.393 . S
Tb331 O370 2.465 . S
Tb331 O371 2.387 . S
Tb331 O373 2.428 . S
Tb331 O374 2.308 . S
Tb331 C395 2.802 . S
N332 C328 1.361 . S
N332 Tb331 2.572 1_554 S
N332 C334 1.340 . S
C333 C327 1.416 . S
C333 C335 1.332 . S
C333 H341 0.931 . S
C334 N332 1.340 . S
C334 C335 1.407 . S
C334 H340 0.930 . S
C335 C333 1.332 . S
C335 C334 1.407 . S
C335 H337 0.929 . S
H336 C325 0.930 . S
H337 C335 0.929 . S
H338 C353 0.930 . S
H339 C360 0.929 . S
H340 C334 0.930 . S
H341 C333 0.931 . S
H342 C356 0.930 . S
H343 C323 0.930 . S
H344 C329 0.929 . S
H345 C330 0.930 . S
H346 C351 0.930 . S
H347 C326 0.930 1_554 S
H348 C359 0.931 . S
N349 Tb320 2.617 . S
N349 C350 1.379 . S
N349 C353 1.334 . S
C350 N349 1.379 . S
C350 C352 1.416 . S
C350 C358 1.424 . S
C351 H346 0.930 . S
C351 C353 1.390 . S
C351 C354 1.339 . S
C352 C350 1.416 . S
C352 C354 1.416 . S
C352 C385 1.448 . S
C353 H338 0.930 . S
C353 N349 1.334 . S
C353 C351 1.390 . S
C354 C351 1.339 . S
C354 C352 1.416 . S
C354 H361 0.930 . S
N355 Tb320 2.572 . S
N355 C356 1.340 . S
N355 C358 1.361 . S
C356 H342 0.930 . S
C356 N355 1.340 . S
C356 C360 1.407 . S
C357 C358 1.413 . S
C357 C359 1.416 . S
C357 C386 1.427 . S
C358 C350 1.424 . S
C358 N355 1.361 . S
C358 C357 1.413 . S
C359 H348 0.931 . S
C359 C357 1.416 . S
C359 C360 1.332 . S
C360 H339 0.929 . S
C360 C356 1.407 . S
C360 C359 1.332 . S
H361 C354 0.930 . S
H362 C385 0.930 . S
H363 C386 0.929 . S
O364 Tb320 2.465 . S
O364 C384 1.264 . S
O365 Tb320 2.387 . S
O365 C376 1.264 . S
O366 Tb331 2.349 . S
O366 C376 1.243 . S
O367 Tb320 2.428 . S
O367 C384 1.256 . S
O368 Tb320 2.308 . S
O368 C383 1.266 . S
O369 Tb331 2.393 . S
O369 C383 1.248 . S
O370 Tb331 2.465 . S
O370 C395 1.264 . S
O371 Tb331 2.387 . S
O371 C387 1.264 . S
O372 Tb320 2.349 . S
O372 C387 1.243 . S
O373 Tb331 2.428 . S
O373 C395 1.256 . S
O374 Tb331 2.308 . S
O374 C394 1.266 . S
O375 Tb320 2.393 . S
O375 C394 1.248 . S
C376 O365 1.264 . S
C376 O366 1.243 . S
C377 C380 1.399 . S
C377 C382 1.383 . S
C377 C384 1.496 . S
C378 C379 1.399 . S
C378 C382 1.389 . S
C379 C378 1.399 . S
C379 C381 1.380 . S
C379 H396 0.929 . S
C380 C377 1.399 . S
C380 C381 1.392 . S
C380 H397 0.929 . S
C381 C379 1.380 . S
C381 C380 1.392 . S
C381 H398 0.929 . S
C382 C377 1.383 . S
C382 C378 1.389 . S
C382 H399 0.931 . S
C383 O368 1.266 . S
C383 O369 1.248 . S
C384 Tb320 2.802 . S
C384 O364 1.264 . S
C384 O367 1.256 . S
C384 C377 1.496 . S
C385 C352 1.448 . S
C385 H362 0.930 . S
C385 C386 1.328 . S
C386 C357 1.427 . S
C386 H363 0.929 . S
C386 C385 1.328 . S
C387 O371 1.264 . S
C387 O372 1.243 . S
C388 C391 1.399 . S
C388 C392 1.383 . S
C388 C395 1.496 1_554 S
C389 C390 1.399 . S
C389 C392 1.389 . S
C390 C389 1.399 . S
C390 C393 1.380 . S
C390 H400 0.929 . S
C391 C388 1.399 . S
C391 C393 1.392 . S
C391 H401 0.929 1_554 S
C392 C388 1.383 . S
C392 C389 1.389 . S
C392 H402 0.931 . S
C393 C390 1.380 . S
C393 C391 1.392 . S
C393 H403 0.929 . S
C394 O374 1.266 . S
C394 O375 1.248 . S
C395 Tb331 2.802 . S
C395 O370 1.264 . S
C395 O373 1.256 . S
C395 C388 1.496 1_556 S
H396 C379 0.929 . S
H397 C380 0.929 . S
H398 C381 0.929 . S
H399 C382 0.931 . S
H400 C390 0.929 . S
H401 C391 0.929 1_556 S
H402 C392 0.931 . S
H403 C393 0.929 . S
Tb404 N433 2.617 . S
Tb404 N439 2.572 . S
Tb404 O448 2.465 . S
Tb404 O449 2.387 1_455 S
Tb404 O451 2.428 . S
Tb404 O452 2.308 . S
Tb404 O456 2.349 . S
Tb404 O459 2.393 . S
Tb404 C468 2.802 . S
C405 N406 1.379 1_554 S
C405 C408 1.416 . S
C405 C412 1.424 . S
N406 C405 1.379 1_556 S
N406 C409 1.334 . S
N406 Tb415 2.617 1_455 S
C407 C409 1.390 . S
C407 C410 1.339 . S
C407 H427 0.930 . S
C408 C405 1.416 . S
C408 C410 1.416 1_554 S
C408 C414 1.448 . S
C409 N406 1.334 . S
C409 C407 1.390 . S
C409 H420 0.930 1_455 S
C410 C407 1.339 . S
C410 C408 1.416 1_556 S
C410 H431 0.930 1_556 S
C411 C412 1.413 . S
C411 C413 1.427 . S
C411 C417 1.416 . S
C412 C405 1.424 . S
C412 C411 1.413 . S
C412 N416 1.361 . S
C413 C411 1.427 . S
C413 C414 1.328 . S
C413 H428 0.929 . S
C414 C408 1.448 . S
C414 C413 1.328 . S
C414 H429 0.930 . S
Tb415 N406 2.617 1_655 S
Tb415 N416 2.572 1_656 S
Tb415 O450 2.349 . S
Tb415 O453 2.393 . S
Tb415 O454 2.465 . S
Tb415 O455 2.387 1_655 S
Tb415 O457 2.428 . S
Tb415 O458 2.308 1_655 S
Tb415 C479 2.802 . S
N416 C412 1.361 . S
N416 Tb415 2.572 1_454 S
N416 C418 1.340 . S
C417 C411 1.416 . S
C417 C419 1.332 . S
C417 H425 0.931 . S
C418 N416 1.340 . S
C418 C419 1.407 . S
C418 H424 0.930 . S
C419 C417 1.332 . S
C419 C418 1.407 . S
C419 H421 0.929 . S
H420 C409 0.930 1_655 S
H421 C419 0.929 . S
H422 C437 0.930 . S
H423 C444 0.929 . S
H424 C418 0.930 . S
H425 C417 0.931 . S
H426 C440 0.930 . S
H427 C407 0.930 . S
H428 C413 0.929 . S
H429 C414 0.930 . S
H430 C435 0.930 . S
H431 C410 0.930 1_554 S
H432 C443 0.931 . S
N433 Tb404 2.617 . S
N433 C434 1.379 1_455 S
N433 C437 1.334 . S
C434 N433 1.379 1_655 S
C434 C436 1.416 . S
C434 C442 1.424 . S
C435 H430 0.930 . S
C435 C437 1.390 . S
C435 C438 1.339 1_455 S
C436 C434 1.416 . S
C436 C438 1.416 . S
C436 C469 1.448 . S
C437 H422 0.930 . S
C437 N433 1.334 . S
C437 C435 1.390 . S
C438 C435 1.339 1_655 S
C438 C436 1.416 . S
C438 H445 0.930 . S
N439 Tb404 2.572 . S
N439 C440 1.340 . S
N439 C442 1.361 1_455 S
C440 H426 0.930 . S
C440 N439 1.340 . S
C440 C444 1.407 1_455 S
C441 C442 1.413 . S
C441 C443 1.416 . S
C441 C470 1.427 . S
C442 C434 1.424 . S
C442 N439 1.361 1_655 S
C442 C441 1.413 . S
C443 H432 0.931 . S
C443 C441 1.416 . S
C443 C444 1.332 . S
C444 H423 0.929 . S
C444 C440 1.407 1_655 S
C444 C443 1.332 . S
H445 C438 0.930 . S
H446 C469 0.930 . S
H447 C470 0.929 . S
O448 Tb404 2.465 . S
O448 C468 1.264 . S
O449 Tb404 2.387 1_655 S
O449 C460 1.264 . S
O450 Tb415 2.349 . S
O450 C460 1.243 . S
O451 Tb404 2.428 . S
O451 C468 1.256 . S
O452 Tb404 2.308 . S
O452 C467 1.266 . S
O453 Tb415 2.393 . S
O453 C467 1.248 1_655 S
O454 Tb415 2.465 . S
O454 C479 1.264 . S
O455 Tb415 2.387 1_455 S
O455 C471 1.264 . S
O456 Tb404 2.349 . S
O456 C471 1.243 . S
O457 Tb415 2.428 . S
O457 C479 1.256 . S
O458 Tb415 2.308 1_455 S
O458 C478 1.266 . S
O459 Tb404 2.393 . S
O459 C478 1.248 . S
C460 O449 1.264 . S
C460 O450 1.243 . S
C461 C464 1.399 . S
C461 C466 1.383 . S
C461 C468 1.496 . S
C462 C463 1.399 . S
C462 C466 1.389 . S
C463 C462 1.399 . S
C463 C465 1.380 . S
C463 H480 0.929 . S
C464 C461 1.399 . S
C464 C465 1.392 . S
C464 H481 0.929 . S
C465 C463 1.380 . S
C465 C464 1.392 . S
C465 H482 0.929 . S
C466 C461 1.383 . S
C466 C462 1.389 . S
C466 H483 0.931 . S
C467 O452 1.266 . S
C467 O453 1.248 1_455 S
C468 Tb404 2.802 . S
C468 O448 1.264 . S
C468 O451 1.256 . S
C468 C461 1.496 . S
C469 C436 1.448 . S
C469 H446 0.930 . S
C469 C470 1.328 . S
C470 C441 1.427 . S
C470 H447 0.929 . S
C470 C469 1.328 . S
C471 O455 1.264 . S
C471 O456 1.243 . S
C472 C475 1.399 . S
C472 C476 1.383 . S
C472 C479 1.496 1_554 S
C473 C474 1.399 . S
C473 C476 1.389 . S
C474 C473 1.399 . S
C474 C477 1.380 . S
C474 H484 0.929 . S
C475 C472 1.399 . S
C475 C477 1.392 . S
C475 H485 0.929 1_554 S
C476 C472 1.383 . S
C476 C473 1.389 . S
C476 H486 0.931 . S
C477 C474 1.380 . S
C477 C475 1.392 . S
C477 H487 0.929 . S
C478 O458 1.266 . S
C478 O459 1.248 . S
C479 Tb415 2.802 . S
C479 O454 1.264 . S
C479 O457 1.256 . S
C479 C472 1.496 1_556 S
H480 C463 0.929 . S
H481 C464 0.929 . S
H482 C465 0.929 . S
H483 C466 0.931 . S
H484 C474 0.929 . S
H485 C475 0.929 1_556 S
H486 C476 0.931 . S
H487 C477 0.929 . S
C488 C489 1.387 1_565 S
C488 H492 0.950 . S
C488 C497 1.390 . S
C489 C488 1.387 1_545 S
C489 C491 1.387 . S
H490 C497 0.950 . S
C491 C489 1.387 . S
C491 C493 1.390 . S
C491 H495 0.950 . S
H492 C488 0.950 . S
C493 C491 1.390 . S
C493 C494 1.387 . S
C493 H496 0.950 . S
C494 C493 1.387 . S
C494 C497 1.387 1_545 S
H495 C491 0.950 . S
H496 C493 0.950 . S
C497 C488 1.390 . S
C497 H490 0.950 . S
C497 C494 1.387 1_565 S
C498 C499 1.387 . S
C498 H502 0.950 . S
C498 C507 1.390 . S
C499 C498 1.387 . S
C499 C501 1.387 . S
H500 C507 0.950 . S
C501 C499 1.387 . S
C501 C503 1.390 . S
C501 H505 0.950 . S
H502 C498 0.950 . S
C503 C501 1.390 . S
C503 C504 1.387 . S
C503 H506 0.950 . S
C504 C503 1.387 . S
C504 C507 1.387 . S
H505 C501 0.950 . S
H506 C503 0.950 . S
C507 C498 1.390 . S
C507 H500 0.950 . S
C507 C504 1.387 . S
C508 C509 1.387 . S
C508 H512 0.950 . S
C508 C517 1.390 . S
C509 C508 1.387 . S
C509 C511 1.387 . S
H510 C517 0.950 . S
C511 C509 1.387 . S
C511 C513 1.390 . S
C511 H515 0.950 . S
H512 C508 0.950 . S
C513 C511 1.390 . S
C513 C514 1.387 . S
C513 H516 0.950 . S
C514 C513 1.387 . S
C514 C517 1.387 . S
H515 C511 0.950 . S
H516 C513 0.950 . S
C517 C508 1.390 . S
C517 H510 0.950 . S
C517 C514 1.387 . S
C518 C519 1.387 . S
C518 H522 0.950 . S
C518 C527 1.390 . S
C519 C518 1.387 . S
C519 C521 1.387 . S
H520 C527 0.950 . S
C521 C519 1.387 . S
C521 C523 1.390 1_455 S
C521 H525 0.950 1_455 S
H522 C518 0.950 . S
C523 C521 1.390 1_655 S
C523 C524 1.387 1_655 S
C523 H526 0.950 . S
C524 C523 1.387 1_455 S
C524 C527 1.387 . S
H525 C521 0.950 1_655 S
H526 C523 0.950 . S
C527 C518 1.390 . S
C527 H520 0.950 . S
C527 C524 1.387 . S
C528 C529 1.387 . S
C528 H532 0.950 . S
C528 C537 1.390 . S
C529 C528 1.387 . S
C529 C531 1.387 1_565 S
H530 C537 0.950 1_556 S
C531 C529 1.387 1_545 S
C531 C533 1.390 . S
C531 H535 0.950 . S
H532 C528 0.950 . S
C533 C531 1.390 . S
C533 C534 1.387 1_544 S
C533 H536 0.950 . S
C534 C533 1.387 1_566 S
C534 C537 1.387 1_556 S
H535 C531 0.950 . S
H536 C533 0.950 . S
C537 C528 1.390 . S
C537 H530 0.950 1_554 S
C537 C534 1.387 1_554 S
C538 C539 1.387 . S
C538 H542 0.950 . S
C538 C547 1.390 . S
C539 C538 1.387 . S
C539 C541 1.387 . S
H540 C547 0.950 1_556 S
C541 C539 1.387 . S
C541 C543 1.390 . S
C541 H545 0.950 . S
H542 C538 0.950 . S
C543 C541 1.390 . S
C543 C544 1.387 1_554 S
C543 H546 0.950 . S
C544 C543 1.387 1_556 S
C544 C547 1.387 1_556 S
H545 C541 0.950 . S
H546 C543 0.950 . S
C547 C538 1.390 . S
C547 H540 0.950 1_554 S
C547 C544 1.387 1_554 S
C548 C549 1.387 . S
C548 H552 0.950 . S
C548 C557 1.390 . S
C549 C548 1.387 . S
C549 C551 1.387 . S
H550 C557 0.950 . S
C551 C549 1.387 . S
C551 C553 1.390 . S
C551 H555 0.950 . S
H552 C548 0.950 . S
C553 C551 1.390 . S
C553 C554 1.387 1_554 S
C553 H556 0.950 1_554 S
C554 C553 1.387 1_556 S
C554 C557 1.387 1_556 S
H555 C551 0.950 . S
H556 C553 0.950 1_556 S
C557 C548 1.390 . S
C557 H550 0.950 . S
C557 C554 1.387 1_554 S
C558 C559 1.387 1_455 S
C558 H562 0.950 . S
C558 C567 1.390 . S
C559 C558 1.387 1_655 S
C559 C561 1.387 . S
H560 C567 0.950 . S
C561 C559 1.387 . S
C561 C563 1.390 1_554 S
C561 H565 0.950 . S
H562 C558 0.950 . S
C563 C561 1.390 1_556 S
C563 C564 1.387 . S
C563 H566 0.950 . S
C564 C563 1.387 . S
C564 C567 1.387 1_656 S
H565 C561 0.950 . S
H566 C563 0.950 . S
C567 C558 1.390 . S
C567 H560 0.950 . S
C567 C564 1.387 1_454 S
C568 C569 1.387 . S
C568 H572 0.950 . S
C568 C577 1.390 . S
C569 C568 1.387 . S
C569 C571 1.387 . S
H570 C577 0.950 1_655 S
C571 C569 1.387 . S
C571 C573 1.390 . S
C571 H575 0.950 . S
H572 C568 0.950 . S
C573 C571 1.390 . S
C573 C574 1.387 . S
C573 H576 0.950 . S
C574 C573 1.387 . S
C574 C577 1.387 . S
H575 C571 0.950 . S
H576 C573 0.950 . S
C577 C568 1.390 . S
C577 H570 0.950 1_455 S
C577 C574 1.387 . S
C578 C579 1.387 . S
C578 H582 0.950 . S
C578 C587 1.390 . S
C579 C578 1.387 . S
C579 C581 1.387 . S
H580 C587 0.950 . S
C581 C579 1.387 . S
C581 C583 1.390 1_545 S
C581 H585 0.949 . S
H582 C578 0.950 . S
C583 C581 1.390 1_565 S
C583 C584 1.387 1_565 S
C583 H586 0.950 . S
C584 C583 1.387 1_545 S
C584 C587 1.387 . S
H585 C581 0.949 . S
H586 C583 0.950 . S
C587 C578 1.390 . S
C587 H580 0.950 . S
C587 C584 1.387 . S
C588 C589 1.387 . S
C588 H592 0.950 . S
C588 C597 1.390 . S
C589 C588 1.387 . S
C589 C591 1.387 . S
H590 C597 0.950 . S
C591 C589 1.387 . S
C591 C593 1.390 . S
C591 H595 0.950 . S
H592 C588 0.950 . S
C593 C591 1.390 . S
C593 C594 1.387 . S
C593 H596 0.950 . S
C594 C593 1.387 . S
C594 C597 1.387 . S
H595 C591 0.950 . S
H596 C593 0.950 . S
C597 C588 1.390 . S
C597 H590 0.950 . S
C597 C594 1.387 . S
C598 C599 1.387 . S
C598 H602 0.950 . S
C598 C607 1.390 . S
C599 C598 1.387 . S
C599 C601 1.387 . S
H600 C607 0.950 . S
C601 C599 1.387 . S
C601 C603 1.390 . S
C601 H605 0.950 . S
H602 C598 0.950 . S
C603 C601 1.390 . S
C603 C604 1.387 . S
C603 H606 0.950 . S
C604 C603 1.387 . S
C604 C607 1.387 . S
H605 C601 0.950 . S
H606 C603 0.950 . S
C607 C598 1.390 . S
C607 H600 0.950 . S
C607 C604 1.387 . S
C608 C609 1.387 1_455 S
C608 H612 0.950 . S
C608 C617 1.390 . S
C609 C608 1.387 1_655 S
C609 C611 1.387 . S
H610 C617 0.950 . S
C611 C609 1.387 . S
C611 C613 1.390 . S
C611 H615 0.950 . S
H612 C608 0.950 . S
C613 C611 1.390 . S
C613 C614 1.387 1_655 S
C613 H616 0.950 . S
C614 C613 1.387 1_455 S
C614 C617 1.387 . S
H615 C611 0.950 . S
H616 C613 0.950 . S
C617 C608 1.390 . S
C617 H610 0.950 . S
C617 C614 1.387 . S
C618 C619 1.387 . S
C618 H622 0.950 . S
C618 C627 1.390 . S
C619 C618 1.387 . S
C619 C621 1.387 . S
H620 C627 0.950 . S
C621 C619 1.387 . S
C621 C623 1.390 1_565 S
C621 H625 0.951 . S
H622 C618 0.950 . S
C623 C621 1.390 1_545 S
C623 C624 1.387 . S
C623 H626 0.950 . S
C624 C623 1.387 . S
C624 C627 1.387 1_545 S
H625 C621 0.951 . S
H626 C623 0.950 . S
C627 C618 1.390 . S
C627 H620 0.950 . S
C627 C624 1.387 1_565 S
C628 C629 1.387 . S
C628 H632 0.950 . S
C628 C637 1.390 . S
C629 C628 1.387 . S
C629 C631 1.387 . S
H630 C637 0.950 . S
C631 C629 1.387 . S
C631 C633 1.390 . S
C631 H635 0.950 . S
H632 C628 0.950 . S
C633 C631 1.390 . S
C633 C634 1.387 . S
C633 H636 0.950 . S
C634 C633 1.387 . S
C634 C637 1.387 . S
H635 C631 0.950 . S
H636 C633 0.950 . S
C637 C628 1.390 . S
C637 H630 0.950 . S
C637 C634 1.387 . S
C638 C639 1.387 . S
C638 H642 0.950 . S
C638 C647 1.390 . S
C639 C638 1.387 . S
C639 C641 1.387 . S
H640 C647 0.950 . S
C641 C639 1.387 . S
C641 C643 1.390 . S
C641 H645 0.950 . S
H642 C638 0.950 . S
C643 C641 1.390 . S
C643 C644 1.387 . S
C643 H646 0.950 . S
C644 C643 1.387 . S
C644 C647 1.387 . S
H645 C641 0.950 . S
H646 C643 0.950 . S
C647 C638 1.390 . S
C647 H640 0.950 . S
C647 C644 1.387 . S
C648 C649 1.387 . S
C648 H652 0.950 . S
C648 C657 1.390 . S
C649 C648 1.387 . S
C649 C651 1.387 . S
H650 C657 0.950 . S
C651 C649 1.387 . S
C651 C653 1.390 . S
C651 H655 0.950 . S
H652 C648 0.950 . S
C653 C651 1.390 . S
C653 C654 1.387 . S
C653 H656 0.950 . S
C654 C653 1.387 . S
C654 C657 1.387 . S
H655 C651 0.950 . S
H656 C653 0.950 . S
C657 C648 1.390 . S
C657 H650 0.950 . S
C657 C654 1.387 . S
C658 C659 1.387 . S
C658 H662 0.950 1_556 S
C658 C667 1.390 . S
C659 C658 1.387 . S
C659 C661 1.387 . S
H660 C667 0.950 1_554 S
C661 C659 1.387 . S
C661 C663 1.390 . S
C661 H665 0.950 . S
H662 C658 0.950 1_554 S
C663 C661 1.390 . S
C663 C664 1.387 . S
C663 H666 0.950 . S
C664 C663 1.387 . S
C664 C667 1.387 . S
H665 C661 0.950 . S
H666 C663 0.950 . S
C667 C658 1.390 . S
C667 H660 0.950 1_556 S
C667 C664 1.387 . S
C668 C669 1.387 . S
C668 H672 0.950 . S
C668 C677 1.390 . S
C669 C668 1.387 . S
C669 C671 1.387 . S
H670 C677 0.950 . S
C671 C669 1.387 . S
C671 C673 1.390 . S
C671 H675 0.950 1_556 S
H672 C668 0.950 . S
C673 C671 1.390 . S
C673 C674 1.387 . S
C673 H676 0.957 . S
C674 C673 1.387 . S
C674 C677 1.387 . S
H675 C671 0.950 1_554 S
H676 C673 0.957 . S
C677 C668 1.390 . S
C677 H670 0.950 . S
C677 C674 1.387 . S
C678 C679 1.387 . S
C678 H682 0.950 . S
C678 C687 1.390 . S
C679 C678 1.387 . S
C679 C681 1.387 . S
H680 C687 0.950 . S
C681 C679 1.387 . S
C681 C683 1.390 . S
C681 H685 0.950 . S
H682 C678 0.950 . S
C683 C681 1.390 . S
C683 C684 1.387 . S
C683 H686 0.950 . S
C684 C683 1.387 . S
C684 C687 1.387 . S
H685 C681 0.950 . S
H686 C683 0.950 . S
C687 C678 1.390 . S
C687 H680 0.950 . S
C687 C684 1.387 . S
C688 C689 1.387 . S
C688 H692 0.950 . S
C688 C697 1.390 . S
C689 C688 1.387 . S
C689 C691 1.387 . S
H690 C697 0.950 . S
C691 C689 1.387 . S
C691 C693 1.390 . S
C691 H695 0.950 . S
H692 C688 0.950 . S
C693 C691 1.390 . S
C693 C694 1.387 . S
C693 H696 0.950 . S
C694 C693 1.387 . S
C694 C697 1.387 . S
H695 C691 0.950 . S
H696 C693 0.950 . S
C697 C688 1.390 . S
C697 H690 0.950 . S
C697 C694 1.387 . S
C698 C699 1.382 1_545 S
C698 H702 0.954 . S
C698 C707 1.391 . S
C699 C698 1.382 1_565 S
C699 C701 1.387 . S
H700 C707 0.950 . S
C701 C699 1.387 . S
C701 C703 1.390 . S
C701 H705 0.950 . S
H702 C698 0.954 . S
C703 C701 1.390 . S
C703 C704 1.387 . S
C703 H706 0.950 . S
C704 C703 1.387 . S
C704 C707 1.387 1_565 S
H705 C701 0.950 . S
H706 C703 0.950 . S
C707 C698 1.391 . S
C707 H700 0.950 . S
C707 C704 1.387 1_545 S
C708 C709 1.387 . S
C708 H712 0.950 . S
C708 C717 1.390 . S
C709 C708 1.387 . S
C709 C711 1.387 . S
H710 C717 0.950 . S
C711 C709 1.387 . S
C711 C713 1.390 . S
C711 H715 0.950 . S
H712 C708 0.950 . S
C713 C711 1.390 . S
C713 C714 1.387 . S
C713 H716 0.950 . S
C714 C713 1.387 . S
C714 C717 1.387 . S
H715 C711 0.950 . S
H716 C713 0.950 . S
C717 C708 1.390 . S
C717 H710 0.950 . S
C717 C714 1.387 . S
C718 C719 1.387 . S
C718 H722 0.950 . S
C718 C727 1.390 . S
C719 C718 1.387 . S
C719 C721 1.387 . S
H720 C727 0.950 . S
C721 C719 1.387 . S
C721 C723 1.390 . S
C721 H725 0.950 . S
H722 C718 0.950 . S
C723 C721 1.390 . S
C723 C724 1.387 . S
C723 H726 0.950 . S
C724 C723 1.387 . S
C724 C727 1.387 . S
H725 C721 0.950 . S
H726 C723 0.950 . S
C727 C718 1.390 . S
C727 H720 0.950 . S
C727 C724 1.387 . S
C489 C125 2.108 . S
C494 C215 2.160 . S
C504 C292 2.160 . S
C499 C144 2.110 . S
C514 C383 2.160 . S
C509 C87 2.112 . S
C524 C467 2.146 . S
C519 C106 2.097 . S
C534 C226 2.160 1_565 S
C529 C49 2.166 . S
C539 C68 2.169 . S
C544 C303 2.161 . S
C549 C11 2.165 . S
C554 C394 2.158 . S
C559 C30 2.154 . S
C564 C478 2.147 1_655 S
C574 C210 0.794 1_455 S
C569 C97 0.795 . S
C584 C305 0.791 . S
C579 C116 0.781 . S
C594 C378 0.798 . S
C589 C135 0.797 . S
C599 C78 0.777 . S
C604 C462 0.780 . S
C609 C21 0.789 . S
C614 C221 0.795 . S
C624 C294 0.784 . S
C619 C40 0.781 . S
C634 C389 0.803 . S
C629 C59 0.800 . S
C639 C2 0.779 . S
C644 C473 0.779 . S
C649 C101 2.035 . S
C654 C219 2.265 . S
C659 C120 2.040 . S
C664 C310 2.324 . S
C674 C387 2.281 . S
C669 C139 2.047 . S
C684 C471 2.284 . S
C679 C82 2.051 . S
C689 C25 2.036 . S
C694 C208 2.265 . S
C704 C299 2.326 . S
C699 C44 2.044 . S
C714 C376 2.282 . S
C709 C63 2.050 . S
C719 C6 2.054 . S
C724 C460 2.284 . S
