# Generated by pormake.
# Topology scu, (8,4)-cn, num edge types: 1
# Building blocks:
#     Node 0, Type 0, BuildingBlock: TAGTUT_clean_sbu_3, # of connection points: 8
#     Node 1, Type 1, BuildingBlock: IZENUY_clean_linker_0, # of connection points: 4
#     Node 2, Type 1, BuildingBlock: IZENUY_clean_linker_0, # of connection points: 4
#     Edge 3, Type (0, 1), BuildingBlock: MIFKUJ_clean_linker_0, # of connection points: 2
#     Edge 4, Type (0, 1), BuildingBlock: MIFKUJ_clean_linker_0, # of connection points: 2
#     Edge 5, Type (0, 1), BuildingBlock: MIFKUJ_clean_linker_0, # of connection points: 2
#     Edge 6, Type (0, 1), BuildingBlock: MIFKUJ_clean_linker_0, # of connection points: 2
#     Edge 7, Type (0, 1), BuildingBlock: MIFKUJ_clean_linker_0, # of connection points: 2
#     Edge 8, Type (0, 1), BuildingBlock: MIFKUJ_clean_linker_0, # of connection points: 2
#     Edge 9, Type (0, 1), BuildingBlock: MIFKUJ_clean_linker_0, # of connection points: 2
#     Edge 10, Type (0, 1), BuildingBlock: MIFKUJ_clean_linker_0, # of connection points: 2
# Relax obj value: 0.055
# Max RMSD: 0.179
# Mean RMSD: 0.142
data_MOF--net-scu--node1-TAGTUT_clean_sbu_3--node2-IZENUY_clean_linker_0--edge1-MIFKUJ_clean_linker_0
_symmetry_space_group_name_H-M    P1
_symmetry_Int_Tables_number       1
_symmetry_cell_setting            triclinic
loop_
_symmetry_equiv_pos_as_xyz
'x, y, z'
_cell_length_a     39.152493
_cell_length_b     34.284768
_cell_length_c     23.667581
_cell_angle_alpha  90.977131
_cell_angle_beta   90.363621
_cell_angle_gamma 89.766277
loop_
_atom_site_label
_atom_site_type_symbol
_atom_site_fract_x
_atom_site_fract_y
_atom_site_fract_z
_atom_type_partial_charge
C0 C 0.01084 0.93003 0.07175 0.0
C1 C 0.88383 0.98971 0.06779 0.0
C2 C 0.9088 0.02136 0.90245 0.0
Mg3 Mg 0.07823 0.96053 0.00798 0.0
Mg4 Mg 0.08771 0.05334 0.98121 0.0
O5 O 0.06041 0.00905 0.97109 0.0
Mg6 Mg 0.01219 0.00974 -0.00077 0.0
O7 O 0.9642 0.00576 0.02744 0.0
Mg8 Mg 0.94871 0.95631 0.98779 0.0
Mg9 Mg 0.93531 0.0486 0.01588 0.0
C10 C 0.01957 0.09112 0.92977 0.0
O11 O 0.02023 0.06165 0.06256 0.0
O12 O 0.12723 0.96778 0.95244 0.0
O13 O 0.96923 0.09206 0.05261 0.0
O14 O 0.10599 0.99323 0.07984 0.0
O15 O 0.12943 0.03159 0.93134 0.0
O16 O 0.10691 0.05731 0.06696 0.0
O17 O 0.99913 0.9602 0.93661 0.0
O18 O 0.04916 0.9285 0.93738 0.0
C19 C 0.01841 0.93222 0.91929 0.0
C20 C 0.14123 0.9967 0.92748 0.0
O21 O 1.00142 0.06044 0.93804 0.0
O22 O 0.89992 0.96064 0.04491 0.0
O23 O 0.05067 0.09444 0.94717 0.0
O24 O 0.91765 0.98773 0.91971 0.0
O25 O 0.89363 0.02511 0.0624 0.0
O26 O 0.91733 0.05221 0.92969 0.0
O27 O 0.02763 0.96053 0.05862 0.0
O28 O 0.98037 0.92421 0.0536 0.0
C29 C 0.11417 0.02756 0.09648 0.0
C30 C 1.00023 0.09122 0.07088 0.0
H31 H 0.02893 0.4563 0.42749 0.0
H32 H 0.99148 0.44966 0.59799 0.0
H33 H 1.00054 0.3456 0.49494 0.0
H34 H 1.00501 0.56178 0.57948 0.0
H35 H 0.04796 0.57178 0.41309 0.0
H36 H 0.03084 0.67423 0.51752 0.0
N37 N 0.01306 0.49886 0.52229 0.0
N38 N 0.02415 0.52095 0.48534 0.0
C39 C 0.01916 0.43946 0.46215 0.0
C40 C 0.01565 0.39894 0.45562 0.0
C41 C 0.01021 0.45793 0.51367 0.0
C42 C 0.99803 0.43548 0.5582 0.0
C43 C 0.9941 0.39502 0.55155 0.0
C44 C 1.00285 0.377 0.50005 0.0
C45 C 0.01531 0.57935 0.54605 0.0
C46 C 0.01772 0.61971 0.55417 0.0
C47 C 0.02639 0.5619 0.49495 0.0
C48 C 0.03953 0.58542 0.45222 0.0
C49 C 0.04163 0.62621 0.45984 0.0
C50 C 0.0306 0.64283 0.5112 0.0
H51 H 0.5534 0.98426 0.41433 0.0
H52 H 0.57191 0.01534 0.58956 0.0
H53 H 0.65549 0.00497 0.47329 0.0
H54 H 0.47013 0.99421 0.58017 0.0
H55 H 0.45135 0.99638 0.40012 0.0
H56 H 0.36738 0.99403 0.51607 0.0
N57 N 0.52268 0.99935 0.51535 0.0
N58 N 0.50072 0.99601 0.47708 0.0
C59 C 0.57072 0.9919 0.4486 0.0
C60 C 0.60584 0.99359 0.43817 0.0
C61 C 0.55823 3e-05 0.50342 0.0
C62 C 0.58139 0.00932 0.54737 0.0
C63 C 0.61658 0.01187 0.53648 0.0
C64 C 0.62837 0.00388 0.48185 0.0
C65 C 0.45267 0.99434 0.54449 0.0
C66 C 0.41739 0.9942 0.55414 0.0
C67 C 0.46513 0.99527 0.48864 0.0
C68 C 0.44188 0.99563 0.44301 0.0
C69 C 0.40654 0.99466 0.45273 0.0
C70 C 0.39468 0.9941 0.5083 0.0
H71 H 0.06299 0.10372 0.12216 0.0
H72 H 0.08157 0.16241 0.17436 0.0
H73 H 0.98369 0.2163 0.14224 0.0
H74 H 0.96565 0.15921 0.08887 0.0
H75 H 0.03134 0.26858 0.13342 0.0
H76 H 1.00403 0.167 0.27058 0.0
H77 H 0.01301 0.10205 0.31172 0.0
H78 H 0.11854 0.12927 0.34288 0.0
H79 H 0.11011 0.19427 0.30171 0.0
H80 H 0.9763 0.38466 0.36321 0.0
H81 H 0.989 0.33929 0.28502 0.0
H82 H 0.08994 0.32018 0.35399 0.0
H83 H 0.07677 0.36516 0.43285 0.0
H84 H 0.059 0.25357 0.33663 0.0
H85 H 0.07768 0.36473 0.22468 0.0
H86 H 0.06641 0.42906 0.18339 0.0
H87 H 0.97562 0.38467 0.10294 0.0
H88 H 0.9859 0.32029 0.14462 0.0
C89 C 0.04565 0.12825 0.12576 0.0
C90 C 0.01273 0.12644 0.1017 0.0
C91 C 0.05624 0.16175 0.15575 0.0
C92 C 0.03388 0.19368 0.16276 0.0
C93 C 1.00148 0.1922 0.13735 0.0
C94 C 0.99108 0.15915 0.10718 0.0
C95 C 0.0425 0.2279 0.19938 0.0
C96 C 0.03745 0.26544 0.17789 0.0
C97 C 0.05172 0.22386 0.25686 0.0
C98 C 0.05654 0.18521 0.28268 0.0
C99 C 0.02914 0.15903 0.28616 0.0
C100 C 0.03412 0.12223 0.30947 0.0
C101 C 0.06634 0.11147 0.32979 0.0
C102 C 0.0936 0.13757 0.32711 0.0
C103 C 0.08873 0.17441 0.30388 0.0
C104 C 1.00151 0.37164 0.36043 0.0
C105 C 0.02577 0.3785 0.40316 0.0
C106 C 0.00884 0.34582 0.3158 0.0
C107 C 0.04061 0.32658 0.31321 0.0
C108 C 0.06538 0.33484 0.35489 0.0
C109 C 0.05797 0.3606 0.39962 0.0
C110 C 0.04602 0.29438 0.2714 0.0
C111 C 0.05383 0.25715 0.29191 0.0
C112 C 0.03896 0.29878 0.21311 0.0
C113 C 0.03251 0.33763 0.18814 0.0
C114 C 0.05514 0.36874 0.19862 0.0
C115 C 0.04893 0.40523 0.17507 0.0
C116 C 0.02029 0.41097 0.14065 0.0
C117 C 0.99779 0.38021 0.12965 0.0
C118 C 1.00382 0.34368 0.1532 0.0
H119 H 0.01556 0.43924 0.12242 0.0
H120 H 0.07011 0.08293 0.34767 0.0
H121 H 0.85416 0.91989 0.09715 0.0
H122 H 0.80202 0.91122 0.15289 0.0
H123 H 0.79017 0.03615 0.16699 0.0
H124 H 0.84173 0.04509 0.11294 0.0
H125 H 0.78334 0.00384 0.26656 0.0
H126 H 0.74104 0.9805 0.07655 0.0
H127 H 0.73914 0.94658 0.98387 0.0
H128 H 0.71625 0.83875 0.06491 0.0
H129 H 0.71848 0.87197 0.1582 0.0
H130 H 0.62187 0.0456 0.35846 0.0
H131 H 0.6641 0.0353 0.28376 0.0
H132 H 0.66806 0.9127 0.32122 0.0
H133 H 0.62563 0.92308 0.3961 0.0
H134 H 0.67953 0.93394 0.19955 0.0
H135 H 0.7191 0.96097 0.39053 0.0
H136 H 0.71895 0.99797 0.48066 0.0
H137 H 0.74699 0.10205 0.39454 0.0
H138 H 0.7464 0.06594 0.30343 0.0
C139 C 0.84038 0.94545 0.11218 0.0
C140 C 0.85234 0.98316 0.10079 0.0
C141 C 0.81054 0.94044 0.14376 0.0
C142 C 0.79219 0.97308 0.164 0.0
C143 C 0.80399 0.01055 0.15214 0.0
C144 C 0.83361 0.01556 0.12105 0.0
C145 C 0.76117 0.96914 0.19908 0.0
C146 C 0.76066 0.98864 0.25165 0.0
C147 C 0.7318 0.94855 0.18036 0.0
C148 C 0.73035 0.9286 0.12436 0.0
C149 C 0.7359 0.94949 0.07464 0.0
C150 C 0.7347 0.93041 0.02199 0.0
C151 C 0.72769 0.89051 0.01851 0.0
C152 C 0.72175 0.86963 0.06768 0.0
C153 C 0.72297 0.88857 0.12044 0.0
C154 C 0.63047 0.01619 0.34865 0.0
C155 C 0.62043 0.98503 0.38221 0.0
C156 C 0.65468 0.01034 0.30633 0.0
C157 C 0.66938 0.97331 0.29754 0.0
C158 C 0.65684 0.94139 0.32723 0.0
C159 C 0.63258 0.94729 0.36974 0.0
C160 C 0.70164 0.96978 0.26567 0.0
C161 C 0.70243 0.94871 0.21437 0.0
C162 C 0.73138 0.98921 0.28516 0.0
C163 C 0.7324 0.0108 0.34008 0.0
C164 C 0.72501 0.9918 0.39071 0.0
C165 C 0.72518 0.01259 0.44202 0.0
C166 C 0.73303 0.05228 0.44342 0.0
C167 C 0.74087 0.07129 0.39343 0.0
C168 C 0.74062 0.05069 0.34191 0.0
H169 H 0.73306 0.06828 0.48325 0.0
H170 H 0.72676 0.87578 0.97772 0.0
H171 H 0.05178 0.93625 0.16589 0.0
H172 H 0.06869 0.88267 0.22806 0.0
H173 H 0.02392 0.79968 0.11022 0.0
H174 H 1.00579 0.85294 0.05001 0.0
H175 H 0.99879 0.79066 0.21054 0.0
H176 H 0.11381 0.8077 0.13753 0.0
H177 H 0.16432 0.84793 0.11781 0.0
H178 H 0.17528 0.87531 0.2947 0.0
H179 H 0.12468 0.83544 0.31542 0.0
H180 H 0.02938 0.61803 0.34581 0.0
H181 H 0.03751 0.66703 0.27378 0.0
H182 H 0.08441 0.74391 0.39751 0.0
H183 H 0.07889 0.69391 0.46882 0.0
H184 H 0.11071 0.75782 0.29722 0.0
H185 H 0.99816 0.74727 0.37269 0.0
H186 H 0.94514 0.71376 0.39921 0.0
H187 H 0.92667 0.68224 0.22537 0.0
H188 H 0.9799 0.71505 0.19794 0.0
C189 C 0.04629 0.90644 0.15301 0.0
C190 C 0.02713 0.89857 0.10383 0.0
C191 C 0.05603 0.87585 0.18833 0.0
C192 C 0.04748 0.83707 0.17391 0.0
C193 C 0.03053 0.82931 0.12255 0.0
C194 C 0.02021 0.85973 0.08815 0.0
C195 C 0.05234 0.80487 0.21442 0.0
C196 C 0.02346 0.78305 0.22849 0.0
C197 C 0.08413 0.79615 0.24022 0.0
C198 C 0.11535 0.81876 0.22796 0.0
C199 C 0.12698 0.82234 0.1722 0.0
C200 C 0.15562 0.84507 0.16085 0.0
C201 C 0.17296 0.86422 0.20496 0.0
C202 C 0.16184 0.86044 0.26058 0.0
C203 C 0.13324 0.83769 0.27216 0.0
C204 C 0.0426 0.64468 0.35741 0.0
C205 C 0.05264 0.6523 0.41365 0.0
C206 C 0.04692 0.67292 0.3162 0.0
C207 C 0.06054 0.70967 0.33068 0.0
C208 C 0.07345 0.71601 0.38542 0.0
C209 C 0.06979 0.68749 0.42638 0.0
C210 C 0.05738 0.74272 0.29115 0.0
C211 C 0.08626 0.76508 0.27826 0.0
C212 C 0.02539 0.75269 0.26708 0.0
C213 C 0.99319 0.73325 0.28337 0.0
C214 C 0.98291 0.73296 0.3402 0.0
C215 C 0.95282 0.71412 0.35539 0.0
C216 C 0.9326 0.6958 0.31403 0.0
C217 C 0.94239 0.69638 0.25737 0.0
C218 C 0.97251 0.7151 0.24197 0.0
H219 H 0.90931 0.68124 0.32587 0.0
H220 H 0.19503 0.88196 0.19606 0.0
H221 H 0.12815 0.97303 0.17612 0.0
H222 H 0.17731 0.97171 0.23959 0.0
H223 H 0.20437 0.08803 0.19014 0.0
H224 H 0.15522 0.08947 0.12568 0.0
H225 H 0.25692 0.0356 0.17587 0.0
H226 H 0.17924 0.07079 0.32746 0.0
H227 H 0.12758 0.06404 0.38566 0.0
H228 H 0.15624 0.94658 0.4248 0.0
H229 H 0.20817 0.95261 0.3672 0.0
H230 H 0.39826 0.04951 0.37123 0.0
H231 H 0.34836 0.05741 0.30907 0.0
H232 H 0.30723 0.94915 0.36907 0.0
H233 H 0.35644 0.94198 0.43203 0.0
H234 H 0.2614 0.00178 0.37854 0.0
H235 H 0.33587 0.96165 0.23034 0.0
H236 H 0.38607 0.96083 0.16802 0.0
H237 H 0.36256 0.07714 0.11527 0.0
H238 H 0.31248 0.07892 0.17799 0.0
C239 C 0.14396 0.99883 0.1798 0.0
C240 C 0.13789 0.03125 0.14535 0.0
C241 C 0.17209 0.99803 0.2163 0.0
C242 C 0.19463 0.02973 0.2195 0.0
C243 C 0.18735 0.06321 0.18815 0.0
C244 C 0.15906 0.06411 0.15168 0.0
C245 C 0.22745 0.02609 0.25084 0.0
C246 C 0.25804 0.02906 0.22054 0.0
C247 C 0.22877 0.01574 0.30834 0.0
C248 C 0.19747 0.0121 0.34276 0.0
C249 C 0.17441 0.04345 0.34821 0.0
C250 C 0.14511 0.03978 0.38114 0.0
C251 C 0.13853 0.00487 0.4086 0.0
C252 C 0.16134 0.9736 0.40348 0.0
C253 C 0.19078 0.97717 0.3709 0.0
C254 C 0.37899 0.02693 0.36971 0.0
C255 C 0.38109 0.99515 0.40622 0.0
C256 C 0.35045 0.03144 0.3343 0.0
C257 C 0.32386 0.00393 0.33441 0.0
C258 C 0.32718 0.97094 0.36844 0.0
C259 C 0.3554 0.96669 0.40412 0.0
C260 C 0.29119 0.01107 0.30361 0.0
C261 C 0.26054 0.00873 0.334 0.0
C262 C 0.28986 0.02104 0.2458 0.0
C263 C 0.32068 0.02063 0.20959 0.0
C264 C 0.34167 0.98728 0.20611 0.0
C265 C 0.37004 0.98659 0.17053 0.0
C266 C 0.37758 0.01897 0.13788 0.0
C267 C 0.35676 0.05212 0.14073 0.0
C268 C 0.32838 0.05299 0.17631 0.0
H269 H 0.39949 0.01832 0.11022 0.0
H270 H 0.1158 0.00211 0.43399 0.0
H271 H 0.95294 0.90426 0.90537 0.0
H272 H 0.93527 0.84891 0.8443 0.0
H273 H 0.03809 0.83895 0.7809 0.0
H274 H 0.05573 0.89328 0.84144 0.0
H275 H 0.98983 0.82997 0.69675 0.0
H276 H 0.01516 0.78453 0.88719 0.0
H277 H 1.00553 0.7836 0.99008 0.0
H278 H 0.90171 0.74799 0.96165 0.0
H279 H 0.91066 0.74924 0.85846 0.0
H280 H 0.05794 0.65428 0.6327 0.0
H281 H 0.03994 0.70317 0.70287 0.0
H282 H 0.93444 0.68047 0.66122 0.0
H283 H 0.95254 0.63104 0.59074 0.0
H284 H 0.96386 0.70626 0.79357 0.0
H285 H 0.94607 0.74398 0.59475 0.0
H286 H 0.96503 0.74038 0.49555 0.0
H287 H 0.06212 0.78864 0.54393 0.0
H288 H 0.04387 0.79197 0.64358 0.0
C289 C 0.97149 0.89058 0.87761 0.0
C290 C 1.00575 0.90273 0.87839 0.0
C291 C 0.96143 0.85901 0.84298 0.0
C292 C 0.98545 0.83985 0.80831 0.0
C293 C 0.01914 0.85341 0.80716 0.0
C294 C 0.02923 0.88431 0.84206 0.0
C295 C 0.97714 0.80378 0.77601 0.0
C296 C 0.98324 0.80313 0.71768 0.0
C297 C 0.96866 0.76873 0.80338 0.0
C298 C 0.96342 0.76748 0.86524 0.0
C299 C 0.99021 0.77679 0.90292 0.0
C300 C 0.9849 0.77617 0.96126 0.0
C301 C 0.95299 0.76589 0.98239 0.0
C302 C 0.92638 0.75605 0.94521 0.0
C303 C 0.93155 0.75671 0.88681 0.0
C304 C 0.03092 0.65848 0.64046 0.0
C305 C 1.00655 0.63912 0.60682 0.0
C306 C 0.02066 0.68628 0.68048 0.0
C307 C 0.98592 0.69534 0.6869 0.0
C308 C 0.96132 0.67345 0.65712 0.0
C309 C 0.97164 0.64537 0.61701 0.0
C310 C 0.97688 0.73272 0.71478 0.0
C311 C 0.96822 0.7335 0.77215 0.0
C312 C 0.98334 0.768 0.68679 0.0
C313 C 0.99362 0.76815 0.62654 0.0
C314 C 0.97146 0.75379 0.58419 0.0
C315 C 0.98209 0.75176 0.52791 0.0
C316 C 0.01476 0.76427 0.51344 0.0
C317 C 0.0368 0.77902 0.55519 0.0
C318 C 0.0263 0.78107 0.61154 0.0
H319 H 0.02302 0.76252 0.46993 0.0
H320 H 0.94892 0.76544 0.02757 0.0
H321 H 0.18739 0.93604 0.93255 0.0
H322 H 0.24082 0.92894 0.87916 0.0
H323 H 0.21876 0.03612 0.79313 0.0
H324 H 0.16593 0.0435 0.8459 0.0
H325 H 0.23908 0.97743 0.72065 0.0
H326 H 0.27396 0.0366 0.89815 0.0
H327 H 0.28082 0.04108 0.0017 0.0
H328 H 0.33966 0.93513 -0.00037 0.0
H329 H 0.3327 0.9297 0.89603 0.0
H330 H 0.38217 0.05293 0.60375 0.0
H331 H 0.34213 0.04673 0.68187 0.0
H332 H 0.37736 0.92917 0.70897 0.0
H333 H 0.41768 0.93539 0.63026 0.0
H334 H 0.35307 0.98151 0.81378 0.0
H335 H 0.3195 0.92606 0.63133 0.0
H336 H 0.31538 0.92834 0.5274 0.0
H337 H 0.25439 0.03244 0.53977 0.0
H338 H 0.25877 0.03124 0.64385 0.0
C339 C 0.19388 0.95788 0.90192 0.0
C340 C 0.17247 0.99037 0.89354 0.0
C341 C 0.22445 0.95391 0.87178 0.0
C342 C 0.23378 0.98215 0.83248 0.0
C343 C 0.21205 0.01403 0.82328 0.0
C344 C 0.18187 0.01823 0.85365 0.0
C345 C 0.26605 0.97907 0.80033 0.0
C346 C 0.26396 0.97812 0.74113 0.0
C347 C 0.29854 0.97946 0.82708 0.0
C348 C 0.30236 0.98242 0.88942 0.0
C349 C 0.288 0.01399 0.91983 0.0
C350 C 0.292 0.01677 0.97852 0.0
C351 C 0.31056 0.98833 0.00727 0.0
C352 C 0.32521 0.95708 0.97733 0.0
C353 C 0.32124 0.95413 0.91863 0.0
C354 C 0.38245 0.02645 0.62812 0.0
C355 C 0.40286 0.99464 0.61141 0.0
C356 C 0.35959 0.0229 0.67257 0.0
C357 C 0.35667 0.98739 0.70066 0.0
C358 C 0.37948 0.95684 0.6879 0.0
C359 C 0.40248 0.96042 0.64316 0.0
C360 C 0.3258 0.98039 0.73456 0.0
C361 C 0.32815 0.97966 0.79366 0.0
C362 C 0.29338 0.97866 0.70792 0.0
C363 C 0.2897 0.97872 0.64539 0.0
C364 C 0.3054 0.94958 0.61189 0.0
C365 C 0.303 0.95066 0.55296 0.0
C366 C 0.28469 0.98055 0.527 0.0
C367 C 0.2686 0.00932 0.55995 0.0
C368 C 0.27101 0.00844 0.61892 0.0
H369 H 0.28292 0.98138 0.48138 0.0
H370 H 0.31368 0.99058 0.05269 0.0
H371 H 0.0437 0.16527 0.92761 0.0
H372 H 0.02295 0.21915 0.87167 0.0
H373 H 0.94063 0.14759 0.80705 0.0
H374 H 0.96196 0.09258 0.8624 0.0
H375 H 0.97489 0.18262 0.72388 0.0
H376 H 0.92428 0.22518 0.89651 0.0
H377 H 0.92288 0.23917 -0.00101 0.0
H378 H 0.99984 0.3268 0.98069 0.0
H379 H 1.00221 0.31289 0.87822 0.0
H380 H 0.94154 0.3432 0.55211 0.0
H381 H 0.92888 0.29569 0.6252 0.0
H382 H 0.01022 0.34326 0.72897 0.0
H383 H 0.02181 0.3918 0.65698 0.0
H384 H 0.9609 0.31884 0.79447 0.0
H385 H 0.02242 0.26542 0.63327 0.0
H386 H 0.03029 0.24975 0.53204 0.0
H387 H 0.93857 0.18147 0.53124 0.0
H388 H 0.9299 0.19725 0.63234 0.0
C389 C 0.021 0.16087 0.9019 0.0
C390 C 1.00461 0.12446 0.8992 0.0
C391 C 0.00891 0.19198 0.8704 0.0
C392 C 0.97993 0.18765 0.83581 0.0
C393 C 0.96289 0.15164 0.83389 0.0
C394 C 0.97504 0.12029 0.86562 0.0
C395 C 0.97002 0.21974 0.79773 0.0
C396 C 0.97076 0.21224 0.73933 0.0
C397 C 0.96553 0.25853 0.818 0.0
C398 C 0.96346 0.26788 0.87951 0.0
C399 C 0.94101 0.24734 0.9143 0.0
C400 C 0.94006 0.25525 0.97244 0.0
C401 C 0.96128 0.28383 0.99634 0.0
C402 C 0.9834 0.30468 0.9621 0.0
C403 C 0.98451 0.29684 0.90395 0.0
C404 C 0.95612 0.34395 0.59117 0.0
C405 C 0.98282 0.37077 0.59894 0.0
C406 C 0.94897 0.3168 0.63278 0.0
C407 C 0.96914 0.31528 0.68203 0.0
C408 C 0.99434 0.34378 0.69133 0.0
C409 C 1.00103 0.37145 0.6502 0.0
C410 C 0.9668 0.28176 0.72077 0.0
C411 C 0.96389 0.28903 0.77914 0.0
C412 C 0.9699 0.24272 0.70067 0.0
C413 C 0.97529 0.2329 0.64009 0.0
C414 C 1.00383 0.24726 0.61138 0.0
C415 C 1.00844 0.23836 0.55406 0.0
C416 C 0.98489 0.21473 0.52519 0.0
C417 C 0.95674 0.19985 0.55363 0.0
C418 C 0.95196 0.20877 0.61092 0.0
H419 H 0.9885 0.20786 0.48081 0.0
H420 H 0.96057 0.28984 0.04137 0.0
H421 H 0.89347 0.08173 0.83037 0.0
H422 H 0.84458 0.08531 0.76499 0.0
H423 H 0.81322 0.9703 0.81499 0.0
H424 H 0.86286 0.96548 0.87562 0.0
H425 H 0.8006 0.97301 0.71494 0.0
H426 H 0.77716 0.065 0.86677 0.0
H427 H 0.7884 0.12234 0.92843 0.0
H428 H 0.78808 0.19633 0.78384 0.0
H429 H 0.7772 0.13933 0.72127 0.0
H430 H 0.62602 0.97645 0.63797 0.0
H431 H 0.67548 0.9838 0.70167 0.0
H432 H 0.71453 0.07541 0.59783 0.0
H433 H 0.66536 0.06805 0.5341 0.0
H434 H 0.72337 0.08804 0.71987 0.0
H435 H 0.74588 0.99027 0.57136 0.0
H436 H 0.73114 0.93074 0.51606 0.0
H437 H 0.72862 0.86485 0.66861 0.0
H438 H 0.74296 0.92404 0.72459 0.0
C439 C 0.87643 0.05702 0.82625 0.0
C440 C 0.88221 0.02325 0.85782 0.0
C441 C 0.84819 0.05924 0.78952 0.0
C442 C 0.82449 0.0284 0.78569 0.0
C443 C 0.83093 0.99451 0.8165 0.0
C444 C 0.85955 0.99176 0.85137 0.0
C445 C 0.79272 0.03075 0.75057 0.0
C446 C 0.78368 0.99813 0.71695 0.0
C447 C 0.77049 0.06359 0.75179 0.0
C448 C 0.77673 0.09788 0.78934 0.0
C449 C 0.77967 0.09348 0.84814 0.0
C450 C 0.78596 0.12591 0.88323 0.0
C451 C 0.78906 0.16293 0.86005 0.0
C452 C 0.78574 0.16763 0.80173 0.0
C453 C 0.77948 0.13529 0.76644 0.0
C454 C 0.64465 0.99891 0.62982 0.0
C455 C 0.64196 0.02164 0.58121 0.0
C456 C 0.67295 0.00293 0.66591 0.0
C457 C 0.69876 0.02995 0.6541 0.0
C458 C 0.69489 0.05448 0.60772 0.0
C459 C 0.66685 0.0502 0.57138 0.0
C460 C 0.73129 0.02998 0.68653 0.0
C461 C 0.74047 0.06307 0.71874 0.0
C462 C 0.75324 0.99719 0.68561 0.0
C463 C 0.74509 0.96156 0.65199 0.0
C464 C 0.74187 0.9631 0.59294 0.0
C465 C 0.73367 0.92946 0.56155 0.0
C466 C 0.72881 0.8941 0.58883 0.0
C467 C 0.73232 0.89227 0.64753 0.0
C468 C 0.74053 0.92582 0.67908 0.0
H469 H 0.72244 0.86811 0.56448 0.0
H470 H 0.79395 0.188 0.88728 0.0
loop_
_geom_bond_atom_site_label_1
_geom_bond_atom_site_label_2
_geom_bond_distance
_geom_bond_site_symmetry_2
_ccdc_geom_bond_type
C0 O27 1.290 1_655 S
C0 O28 1.238 . S
C1 O22 1.332 1_545 S
C1 O25 1.242 . S
C2 O24 1.264 1_545 S
C2 O26 1.273 . S
Mg3 O5 1.936 1_565 S
Mg3 O12 2.081 . S
Mg3 O14 2.023 1_556 S
Mg3 O18 2.031 . S
Mg3 O27 2.291 1_556 S
Mg4 O5 1.963 . S
Mg4 O15 1.942 . S
Mg4 O16 1.955 1_556 S
Mg4 O23 1.986 . S
O5 Mg3 1.936 1_545 S
O5 Mg4 1.963 . S
O5 Mg6 1.912 1_556 S
Mg6 O5 1.912 1_554 S
Mg6 O7 1.918 1_455 S
Mg6 O11 2.020 . S
Mg6 O17 2.108 1_444 S
Mg6 O21 2.006 1_454 S
Mg6 O27 2.120 1_545 S
O7 Mg6 1.918 1_655 S
O7 Mg8 1.936 1_545 S
O7 Mg9 1.963 . S
Mg8 O7 1.936 1_565 S
Mg8 O17 2.291 1_554 S
Mg8 O22 2.081 . S
Mg8 O24 2.023 1_554 S
Mg8 O28 2.031 . S
Mg9 O7 1.963 . S
Mg9 O13 1.986 . S
Mg9 O25 1.942 . S
Mg9 O26 1.955 1_554 S
C10 O21 1.191 1_455 S
C10 O23 1.307 . S
O11 Mg6 2.020 . S
O11 C30 1.191 1_455 S
O12 Mg3 2.081 . S
O12 C20 1.331 . S
O13 Mg9 1.986 . S
O13 C30 1.307 . S
O14 Mg3 2.023 1_554 S
O14 C29 1.264 1_565 S
O15 Mg4 1.942 . S
O15 C20 1.244 1_545 S
O16 Mg4 1.955 1_554 S
O16 C29 1.273 . S
O17 Mg6 2.108 1_666 S
O17 Mg8 2.291 1_556 S
O17 C19 1.312 1_655 S
O18 Mg3 2.031 . S
O18 C19 1.208 . S
C19 O17 1.312 1_455 S
C19 O18 1.208 . S
C20 O12 1.331 . S
C20 O15 1.244 1_565 S
O21 Mg6 2.006 1_656 S
O21 C10 1.191 1_655 S
O22 C1 1.332 1_565 S
O22 Mg8 2.081 . S
O23 Mg4 1.986 . S
O23 C10 1.307 . S
O24 C2 1.264 1_565 S
O24 Mg8 2.023 1_556 S
O25 C1 1.242 . S
O25 Mg9 1.942 . S
O26 C2 1.273 . S
O26 Mg9 1.955 1_556 S
O27 C0 1.290 1_455 S
O27 Mg3 2.291 1_554 S
O27 Mg6 2.120 1_565 S
O28 C0 1.238 . S
O28 Mg8 2.031 . S
C29 O14 1.264 1_545 S
C29 O16 1.273 . S
C30 O11 1.191 1_655 S
C30 O13 1.307 . S
H31 C39 0.940 . S
H32 C42 0.940 . S
H33 C44 0.940 1_655 S
H34 C45 0.940 . S
H35 C48 0.940 . S
H36 C50 0.940 1_655 S
N37 N38 1.190 . S
N37 C41 1.477 . S
N38 N37 1.190 . S
N38 C47 1.477 . S
C39 H31 0.940 . S
C39 C40 1.390 . S
C39 C41 1.322 . S
C40 C39 1.390 . S
C40 C44 1.370 . S
C41 N37 1.477 . S
C41 C39 1.322 . S
C41 C42 1.447 . S
C42 H32 0.940 . S
C42 C41 1.447 . S
C42 C43 1.373 . S
C43 C42 1.373 . S
C43 C44 1.417 . S
C44 H33 0.940 1_455 S
C44 C40 1.370 . S
C44 C43 1.417 . S
C45 H34 0.940 . S
C45 C46 1.390 . S
C45 C47 1.322 . S
C46 C45 1.390 . S
C46 C50 1.370 . S
C47 N38 1.477 . S
C47 C45 1.322 . S
C47 C48 1.447 . S
C48 H35 0.940 . S
C48 C47 1.447 . S
C48 C49 1.373 . S
C49 C48 1.373 . S
C49 C50 1.417 . S
C50 H36 0.940 1_455 S
C50 C46 1.370 . S
C50 C49 1.417 . S
H51 C59 0.940 . S
H52 C62 0.940 . S
H53 C64 0.940 1_565 S
H54 C65 0.940 . S
H55 C68 0.940 . S
H56 C70 0.940 1_565 S
N57 N58 1.190 . S
N57 C61 1.477 . S
N58 N57 1.190 . S
N58 C67 1.477 . S
C59 H51 0.940 . S
C59 C60 1.390 . S
C59 C61 1.322 . S
C60 C59 1.390 . S
C60 C64 1.370 . S
C61 N57 1.477 . S
C61 C59 1.322 . S
C61 C62 1.447 . S
C62 H52 0.940 . S
C62 C61 1.447 . S
C62 C63 1.373 . S
C63 C62 1.373 . S
C63 C64 1.417 . S
C64 H53 0.940 1_545 S
C64 C60 1.370 . S
C64 C63 1.417 . S
C65 H54 0.940 . S
C65 C66 1.390 . S
C65 C67 1.322 . S
C66 C65 1.390 . S
C66 C70 1.370 . S
C67 N58 1.477 . S
C67 C65 1.322 . S
C67 C68 1.447 . S
C68 H55 0.940 . S
C68 C67 1.447 . S
C68 C69 1.373 . S
C69 C68 1.373 . S
C69 C70 1.417 . S
C70 H56 0.940 1_545 S
C70 C66 1.370 . S
C70 C69 1.417 . S
H71 C89 0.951 . S
H72 C91 0.951 . S
H73 C93 0.950 . S
H74 C94 0.950 . S
H75 C96 0.950 . S
H76 C99 0.950 1_655 S
H77 C100 0.950 . S
H78 C102 0.950 . S
H79 C103 0.950 . S
H80 C104 0.951 . S
H81 C106 0.951 . S
H82 C108 0.950 . S
H83 C109 0.950 . S
H84 C111 0.950 . S
H85 C114 0.950 1_455 S
H86 C115 0.950 . S
H87 C117 0.950 . S
H88 C118 0.950 . S
C89 H71 0.951 . S
C89 C90 1.366 . S
C89 C91 1.388 . S
C90 C89 1.366 . S
C90 C94 1.385 1_455 S
C91 H72 0.951 . S
C91 C89 1.388 . S
C91 C92 1.366 . S
C92 C91 1.366 . S
C92 C93 1.414 1_455 S
C92 C95 1.498 1_455 S
C93 H73 0.950 . S
C93 C92 1.414 1_655 S
C93 C94 1.374 . S
C94 H74 0.950 . S
C94 C90 1.385 1_655 S
C94 C93 1.374 . S
C95 C92 1.498 1_655 S
C95 C96 1.375 . S
C95 C97 1.387 1_655 S
C96 H75 0.950 . S
C96 C95 1.375 . S
C96 C112 1.377 . S
C97 C95 1.387 1_455 S
C97 C98 1.524 . S
C97 C111 1.377 . S
C98 C97 1.524 . S
C98 C99 1.397 . S
C98 C103 1.363 . S
C99 H76 0.950 1_455 S
C99 C98 1.397 . S
C99 C100 1.334 . S
C100 H77 0.950 . S
C100 C99 1.334 . S
C100 C101 1.287 . S
C101 C100 1.287 . S
C101 C102 1.524 . S
C101 H120 0.913 . S
C102 H78 0.950 . S
C102 C101 1.524 . S
C102 C103 1.415 . S
C103 H79 0.950 . S
C103 C98 1.363 . S
C103 C102 1.415 . S
C104 H80 0.951 . S
C104 C105 1.368 1_655 S
C104 C106 1.388 . S
C105 C104 1.368 1_455 S
C105 C109 1.382 . S
C106 H81 0.951 . S
C106 C104 1.388 . S
C106 C107 1.340 1_655 S
C107 C106 1.340 1_455 S
C107 C108 1.439 . S
C107 C110 1.500 . S
C108 H82 0.950 . S
C108 C107 1.439 . S
C108 C109 1.374 . S
C109 H83 0.950 . S
C109 C105 1.382 . S
C109 C108 1.374 . S
C110 C107 1.500 . S
C110 C111 1.373 . S
C110 C112 1.389 1_455 S
C111 H84 0.950 . S
C111 C97 1.377 . S
C111 C110 1.373 . S
C112 C96 1.377 . S
C112 C110 1.389 1_655 S
C112 C113 1.524 . S
C113 C112 1.524 . S
C113 C114 1.397 . S
C113 C118 1.363 . S
C114 H85 0.950 1_655 S
C114 C113 1.397 . S
C114 C115 1.334 . S
C115 H86 0.950 . S
C115 C114 1.334 . S
C115 C116 1.287 . S
C116 C115 1.287 . S
C116 C117 1.524 . S
C116 H119 0.999 . S
C117 H87 0.950 . S
C117 C116 1.524 . S
C117 C118 1.415 . S
C118 H88 0.950 . S
C118 C113 1.363 . S
C118 C117 1.415 . S
H119 C116 0.999 . S
H120 C101 0.913 . S
H121 C139 0.951 . S
H122 C141 0.951 . S
H123 C143 0.950 . S
H124 C144 0.950 . S
H125 C146 0.950 . S
H126 C149 0.950 . S
H127 C150 0.950 . S
H128 C152 0.950 . S
H129 C153 0.950 . S
H130 C154 0.951 . S
H131 C156 0.951 . S
H132 C158 0.950 . S
H133 C159 0.950 . S
H134 C161 0.950 . S
H135 C164 0.950 . S
H136 C165 0.950 . S
H137 C167 0.950 . S
H138 C168 0.950 . S
C139 H121 0.951 . S
C139 C140 1.366 . S
C139 C141 1.388 . S
C140 C139 1.366 . S
C140 C144 1.385 1_565 S
C141 H122 0.951 . S
C141 C139 1.388 . S
C141 C142 1.366 . S
C142 C141 1.366 . S
C142 C143 1.414 1_565 S
C142 C145 1.499 . S
C143 H123 0.950 . S
C143 C142 1.414 1_545 S
C143 C144 1.374 . S
C144 H124 0.950 . S
C144 C140 1.385 1_545 S
C144 C143 1.374 . S
C145 C142 1.499 . S
C145 C146 1.373 1_565 S
C145 C147 1.389 . S
C146 H125 0.950 . S
C146 C145 1.373 1_545 S
C146 C162 1.377 . S
C147 C145 1.389 . S
C147 C148 1.524 . S
C147 C161 1.377 . S
C148 C147 1.524 . S
C148 C149 1.397 . S
C148 C153 1.363 . S
C149 H126 0.950 . S
C149 C148 1.397 . S
C149 C150 1.334 . S
C150 H127 0.950 . S
C150 C149 1.334 . S
C150 C151 1.287 . S
C151 C150 1.287 . S
C151 C152 1.524 . S
C151 H170 0.913 . S
C152 H128 0.950 . S
C152 C151 1.524 . S
C152 C153 1.415 . S
C153 H129 0.950 . S
C153 C148 1.363 . S
C153 C152 1.415 . S
C154 H130 0.951 . S
C154 C155 1.344 1_545 S
C154 C156 1.388 . S
C155 C154 1.344 1_565 S
C155 C159 1.406 . S
C156 H131 0.951 . S
C156 C154 1.388 . S
C156 C157 1.366 1_545 S
C157 C156 1.366 1_565 S
C157 C158 1.414 . S
C157 C160 1.499 . S
C158 H132 0.950 . S
C158 C157 1.414 . S
C158 C159 1.374 . S
C159 H133 0.950 . S
C159 C155 1.406 . S
C159 C158 1.374 . S
C160 C157 1.499 . S
C160 C161 1.373 . S
C160 C162 1.389 1_565 S
C161 H134 0.950 . S
C161 C147 1.377 . S
C161 C160 1.373 . S
C162 C146 1.377 . S
C162 C160 1.389 1_545 S
C162 C163 1.524 . S
C163 C162 1.524 . S
C163 C164 1.397 . S
C163 C168 1.363 . S
C164 H135 0.950 . S
C164 C163 1.397 . S
C164 C165 1.334 . S
C165 H136 0.950 . S
C165 C164 1.334 . S
C165 C166 1.287 . S
C166 C165 1.287 . S
C166 C167 1.524 . S
C166 H169 0.999 . S
C167 H137 0.950 . S
C167 C166 1.524 . S
C167 C168 1.415 . S
C168 H138 0.950 . S
C168 C163 1.363 . S
C168 C167 1.415 . S
H169 C166 0.999 . S
H170 C151 0.913 . S
H171 C189 0.951 . S
H172 C191 0.951 . S
H173 C193 0.950 . S
H174 C194 0.950 . S
H175 C196 0.950 . S
H176 C199 0.950 . S
H177 C200 0.950 . S
H178 C202 0.950 . S
H179 C203 0.950 . S
H180 C204 0.951 . S
H181 C206 0.951 . S
H182 C208 0.950 . S
H183 C209 0.950 . S
H184 C211 0.950 . S
H185 C214 0.950 . S
H186 C215 0.950 . S
H187 C217 0.950 . S
H188 C218 0.950 . S
C189 H171 0.951 . S
C189 C190 1.366 . S
C189 C191 1.388 . S
C190 C189 1.366 . S
C190 C194 1.385 1_455 S
C191 H172 0.951 . S
C191 C189 1.388 . S
C191 C192 1.366 . S
C192 C191 1.366 . S
C192 C193 1.414 1_455 S
C192 C195 1.499 . S
C193 H173 0.950 . S
C193 C192 1.414 1_655 S
C193 C194 1.374 . S
C194 H174 0.950 . S
C194 C190 1.385 1_655 S
C194 C193 1.374 . S
C195 C192 1.499 . S
C195 C196 1.373 1_455 S
C195 C197 1.389 . S
C196 H175 0.950 . S
C196 C195 1.373 1_655 S
C196 C212 1.377 . S
C197 C195 1.389 . S
C197 C198 1.524 . S
C197 C211 1.377 . S
C198 C197 1.524 . S
C198 C199 1.397 . S
C198 C203 1.363 . S
C199 H176 0.950 . S
C199 C198 1.397 . S
C199 C200 1.334 . S
C200 H177 0.950 . S
C200 C199 1.334 . S
C200 C201 1.287 . S
C201 C200 1.287 . S
C201 C202 1.524 . S
C201 H220 0.913 . S
C202 H178 0.950 . S
C202 C201 1.524 . S
C202 C203 1.415 . S
C203 H179 0.950 . S
C203 C198 1.363 . S
C203 C202 1.415 . S
C204 H180 0.951 . S
C204 C205 1.366 1_655 S
C204 C206 1.388 . S
C205 C204 1.366 1_455 S
C205 C209 1.385 . S
C206 H181 0.951 . S
C206 C204 1.388 . S
C206 C207 1.366 1_655 S
C207 C206 1.366 1_455 S
C207 C208 1.414 . S
C207 C210 1.499 . S
C208 H182 0.950 . S
C208 C207 1.414 . S
C208 C209 1.374 . S
C209 H183 0.950 . S
C209 C205 1.385 . S
C209 C208 1.374 . S
C210 C207 1.499 . S
C210 C211 1.373 . S
C210 C212 1.389 1_455 S
C211 H184 0.950 . S
C211 C197 1.377 . S
C211 C210 1.373 . S
C212 C196 1.377 . S
C212 C210 1.389 1_655 S
C212 C213 1.524 . S
C213 C212 1.524 . S
C213 C214 1.397 . S
C213 C218 1.363 . S
C214 H185 0.950 . S
C214 C213 1.397 . S
C214 C215 1.334 . S
C215 H186 0.950 . S
C215 C214 1.334 . S
C215 C216 1.287 . S
C216 C215 1.287 . S
C216 C217 1.524 . S
C216 H219 0.999 . S
C217 H187 0.950 . S
C217 C216 1.524 . S
C217 C218 1.415 . S
C218 H188 0.950 . S
C218 C213 1.363 . S
C218 C217 1.415 . S
H219 C216 0.999 . S
H220 C201 0.913 . S
H221 C239 0.951 . S
H222 C241 0.951 . S
H223 C243 0.950 . S
H224 C244 0.950 . S
H225 C246 0.950 . S
H226 C249 0.950 . S
H227 C250 0.950 . S
H228 C252 0.950 . S
H229 C253 0.950 . S
H230 C254 0.951 . S
H231 C256 0.951 . S
H232 C258 0.950 . S
H233 C259 0.950 . S
H234 C261 0.950 1_565 S
H235 C264 0.950 . S
H236 C265 0.950 . S
H237 C267 0.950 . S
H238 C268 0.950 . S
C239 H221 0.951 . S
C239 C240 1.366 1_565 S
C239 C241 1.388 . S
C240 C239 1.366 1_545 S
C240 C244 1.385 . S
C241 H222 0.951 . S
C241 C239 1.388 . S
C241 C242 1.366 1_565 S
C242 C241 1.366 1_545 S
C242 C243 1.414 . S
C242 C245 1.499 . S
C243 H223 0.950 . S
C243 C242 1.414 . S
C243 C244 1.374 . S
C244 H224 0.950 . S
C244 C240 1.385 . S
C244 C243 1.374 . S
C245 C242 1.499 . S
C245 C246 1.373 . S
C245 C247 1.389 . S
C246 H225 0.950 . S
C246 C245 1.373 . S
C246 C262 1.377 . S
C247 C245 1.389 . S
C247 C248 1.524 . S
C247 C261 1.377 . S
C248 C247 1.524 . S
C248 C249 1.397 . S
C248 C253 1.363 1_545 S
C249 H226 0.950 . S
C249 C248 1.397 . S
C249 C250 1.334 . S
C250 H227 0.950 . S
C250 C249 1.334 . S
C250 C251 1.287 . S
C251 C250 1.287 . S
C251 C252 1.524 1_545 S
C251 H270 0.913 . S
C252 H228 0.950 . S
C252 C251 1.524 1_565 S
C252 C253 1.415 . S
C253 H229 0.950 . S
C253 C248 1.363 1_565 S
C253 C252 1.415 . S
C254 H230 0.951 . S
C254 C255 1.366 . S
C254 C256 1.388 . S
C255 C254 1.366 . S
C255 C259 1.385 1_545 S
C256 H231 0.951 . S
C256 C254 1.388 . S
C256 C257 1.366 . S
C257 C256 1.366 . S
C257 C258 1.414 1_545 S
C257 C260 1.499 . S
C258 H232 0.950 . S
C258 C257 1.414 1_565 S
C258 C259 1.374 . S
C259 H233 0.950 . S
C259 C255 1.385 1_565 S
C259 C258 1.374 . S
C260 C257 1.499 . S
C260 C261 1.373 . S
C260 C262 1.389 . S
C261 H234 0.950 1_545 S
C261 C247 1.377 . S
C261 C260 1.373 . S
C262 C246 1.377 . S
C262 C260 1.389 . S
C262 C263 1.524 . S
C263 C262 1.524 . S
C263 C264 1.397 1_545 S
C263 C268 1.363 . S
C264 H235 0.950 . S
C264 C263 1.397 1_565 S
C264 C265 1.334 . S
C265 H236 0.950 . S
C265 C264 1.334 . S
C265 C266 1.287 1_565 S
C266 C265 1.287 1_545 S
C266 C267 1.524 . S
C266 H269 0.999 . S
C267 H237 0.950 . S
C267 C266 1.524 . S
C267 C268 1.415 . S
C268 H238 0.950 . S
C268 C263 1.363 . S
C268 C267 1.415 . S
H269 C266 0.999 . S
H270 C251 0.913 . S
H271 C289 0.951 . S
H272 C291 0.951 . S
H273 C293 0.950 . S
H274 C294 0.950 . S
H275 C296 0.950 . S
H276 C299 0.950 1_455 S
H277 C300 0.950 . S
H278 C302 0.950 . S
H279 C303 0.950 . S
H280 C304 0.951 . S
H281 C306 0.951 . S
H282 C308 0.950 . S
H283 C309 0.950 . S
H284 C311 0.950 . S
H285 C314 0.950 1_655 S
H286 C315 0.950 . S
H287 C317 0.950 . S
H288 C318 0.950 . S
C289 H271 0.951 . S
C289 C290 1.366 1_655 S
C289 C291 1.388 . S
C290 C289 1.366 1_455 S
C290 C294 1.385 . S
C291 H272 0.951 . S
C291 C289 1.388 . S
C291 C292 1.366 1_655 S
C292 C291 1.366 1_455 S
C292 C293 1.414 . S
C292 C295 1.499 . S
C293 H273 0.950 . S
C293 C292 1.414 . S
C293 C294 1.374 . S
C294 H274 0.950 . S
C294 C290 1.385 . S
C294 C293 1.374 . S
C295 C292 1.499 . S
C295 C296 1.373 . S
C295 C297 1.389 1_455 S
C296 H275 0.950 . S
C296 C295 1.373 . S
C296 C312 1.377 . S
C297 C295 1.389 1_655 S
C297 C298 1.524 . S
C297 C311 1.377 . S
C298 C297 1.524 . S
C298 C299 1.397 . S
C298 C303 1.363 . S
C299 H276 0.950 1_655 S
C299 C298 1.397 . S
C299 C300 1.334 . S
C300 H277 0.950 . S
C300 C299 1.334 . S
C300 C301 1.287 . S
C301 C300 1.287 . S
C301 C302 1.524 . S
C301 H320 0.913 . S
C302 H278 0.950 . S
C302 C301 1.524 . S
C302 C303 1.415 . S
C303 H279 0.950 . S
C303 C298 1.363 . S
C303 C302 1.415 . S
C304 H280 0.951 . S
C304 C305 1.369 1_455 S
C304 C306 1.388 . S
C305 C304 1.369 1_655 S
C305 C309 1.381 . S
C306 H281 0.951 . S
C306 C304 1.388 . S
C306 C307 1.364 . S
C307 C306 1.364 . S
C307 C308 1.415 1_455 S
C307 C310 1.498 1_455 S
C308 H282 0.950 . S
C308 C307 1.415 1_655 S
C308 C309 1.374 . S
C309 H283 0.950 . S
C309 C305 1.381 . S
C309 C308 1.374 . S
C310 C307 1.498 1_655 S
C310 C311 1.385 . S
C310 C312 1.377 1_655 S
C311 H284 0.950 . S
C311 C297 1.377 . S
C311 C310 1.385 . S
C312 C296 1.377 . S
C312 C310 1.377 1_455 S
C312 C313 1.524 . S
C313 C312 1.524 . S
C313 C314 1.397 . S
C313 C318 1.363 . S
C314 H285 0.950 1_455 S
C314 C313 1.397 . S
C314 C315 1.334 . S
C315 H286 0.950 . S
C315 C314 1.334 . S
C315 C316 1.287 . S
C316 C315 1.287 . S
C316 C317 1.524 . S
C316 H319 0.999 . S
C317 H287 0.950 . S
C317 C316 1.524 . S
C317 C318 1.415 . S
C318 H288 0.950 . S
C318 C313 1.363 . S
C318 C317 1.415 . S
H319 C316 0.999 . S
H320 C301 0.913 . S
H321 C339 0.951 . S
H322 C341 0.951 . S
H323 C343 0.950 . S
H324 C344 0.950 . S
H325 C346 0.950 . S
H326 C349 0.950 . S
H327 C350 0.950 . S
H328 C352 0.950 . S
H329 C353 0.950 . S
H330 C354 0.951 . S
H331 C356 0.951 . S
H332 C358 0.950 . S
H333 C359 0.950 . S
H334 C361 0.950 . S
H335 C364 0.950 . S
H336 C365 0.950 . S
H337 C367 0.950 . S
H338 C368 0.950 . S
C339 H321 0.951 . S
C339 C340 1.366 . S
C339 C341 1.388 . S
C340 C339 1.366 . S
C340 C344 1.385 1_565 S
C341 H322 0.951 . S
C341 C339 1.388 . S
C341 C342 1.366 . S
C342 C341 1.366 . S
C342 C343 1.414 1_565 S
C342 C345 1.499 . S
C343 H323 0.950 . S
C343 C342 1.414 1_545 S
C343 C344 1.374 . S
C344 H324 0.950 . S
C344 C340 1.385 1_545 S
C344 C343 1.374 . S
C345 C342 1.499 . S
C345 C346 1.376 . S
C345 C347 1.387 1_565 S
C346 H325 0.950 . S
C346 C345 1.376 . S
C346 C362 1.377 . S
C347 C345 1.387 1_545 S
C347 C348 1.524 . S
C347 C361 1.377 . S
C348 C347 1.524 . S
C348 C349 1.397 . S
C348 C353 1.363 . S
C349 H326 0.950 . S
C349 C348 1.397 . S
C349 C350 1.334 . S
C350 H327 0.950 . S
C350 C349 1.334 . S
C350 C351 1.287 . S
C351 C350 1.287 . S
C351 C352 1.524 . S
C351 H370 0.913 . S
C352 H328 0.950 . S
C352 C351 1.524 . S
C352 C353 1.415 . S
C353 H329 0.950 . S
C353 C348 1.363 . S
C353 C352 1.415 . S
C354 H330 0.951 . S
C354 C355 1.359 1_545 S
C354 C356 1.388 . S
C355 C354 1.359 1_565 S
C355 C359 1.393 . S
C356 H331 0.951 . S
C356 C354 1.388 . S
C356 C357 1.366 1_545 S
C357 C356 1.366 1_565 S
C357 C358 1.414 . S
C357 C360 1.499 . S
C358 H332 0.950 . S
C358 C357 1.414 . S
C358 C359 1.374 . S
C359 H333 0.950 . S
C359 C355 1.393 . S
C359 C358 1.374 . S
C360 C357 1.499 . S
C360 C361 1.373 1_565 S
C360 C362 1.389 . S
C361 H334 0.950 . S
C361 C347 1.377 . S
C361 C360 1.373 1_545 S
C362 C346 1.377 . S
C362 C360 1.389 . S
C362 C363 1.524 . S
C363 C362 1.524 . S
C363 C364 1.397 . S
C363 C368 1.363 . S
C364 H335 0.950 . S
C364 C363 1.397 . S
C364 C365 1.334 . S
C365 H336 0.950 . S
C365 C364 1.334 . S
C365 C366 1.287 . S
C366 C365 1.287 . S
C366 C367 1.524 . S
C366 H369 0.999 . S
C367 H337 0.950 . S
C367 C366 1.524 . S
C367 C368 1.415 . S
C368 H338 0.950 . S
C368 C363 1.363 . S
C368 C367 1.415 . S
H369 C366 0.999 . S
H370 C351 0.913 . S
H371 C389 0.951 . S
H372 C391 0.951 . S
H373 C393 0.950 . S
H374 C394 0.950 . S
H375 C396 0.950 . S
H376 C399 0.950 1_655 S
H377 C400 0.950 1_655 S
H378 C402 0.950 . S
H379 C403 0.950 . S
H380 C404 0.951 . S
H381 C406 0.951 . S
H382 C408 0.950 . S
H383 C409 0.950 . S
H384 C411 0.950 . S
H385 C414 0.950 . S
H386 C415 0.950 . S
H387 C417 0.950 . S
H388 C418 0.950 . S
C389 H371 0.951 . S
C389 C390 1.366 . S
C389 C391 1.388 . S
C390 C389 1.366 . S
C390 C394 1.385 1_455 S
C391 H372 0.951 . S
C391 C389 1.388 . S
C391 C392 1.366 . S
C392 C391 1.366 . S
C392 C393 1.414 1_455 S
C392 C395 1.499 . S
C393 H373 0.950 . S
C393 C392 1.414 1_655 S
C393 C394 1.374 . S
C394 H374 0.950 . S
C394 C390 1.385 1_655 S
C394 C393 1.374 . S
C395 C392 1.499 . S
C395 C396 1.373 1_455 S
C395 C397 1.389 . S
C396 H375 0.950 . S
C396 C395 1.373 1_655 S
C396 C412 1.377 . S
C397 C395 1.389 . S
C397 C398 1.524 . S
C397 C411 1.377 . S
C398 C397 1.524 . S
C398 C399 1.397 . S
C398 C403 1.363 . S
C399 H376 0.950 1_455 S
C399 C398 1.397 . S
C399 C400 1.334 . S
C400 H377 0.950 1_455 S
C400 C399 1.334 . S
C400 C401 1.287 . S
C401 C400 1.287 . S
C401 C402 1.524 . S
C401 H420 0.899 1_556 S
C402 H378 0.950 . S
C402 C401 1.524 . S
C402 C403 1.415 . S
C403 H379 0.950 . S
C403 C398 1.363 . S
C403 C402 1.415 . S
C404 H380 0.951 . S
C404 C405 1.366 1_655 S
C404 C406 1.388 . S
C405 C404 1.366 1_455 S
C405 C409 1.385 . S
C406 H381 0.951 . S
C406 C404 1.388 . S
C406 C407 1.366 1_655 S
C407 C406 1.366 1_455 S
C407 C408 1.414 . S
C407 C410 1.499 . S
C408 H382 0.950 . S
C408 C407 1.414 . S
C408 C409 1.374 . S
C409 H383 0.950 . S
C409 C405 1.385 . S
C409 C408 1.374 . S
C410 C407 1.499 . S
C410 C411 1.373 . S
C410 C412 1.389 1_455 S
C411 H384 0.950 . S
C411 C397 1.377 . S
C411 C410 1.373 . S
C412 C396 1.377 . S
C412 C410 1.389 1_655 S
C412 C413 1.524 . S
C413 C412 1.524 . S
C413 C414 1.397 1_655 S
C413 C418 1.363 . S
C414 H385 0.950 . S
C414 C413 1.397 1_455 S
C414 C415 1.334 . S
C415 H386 0.950 . S
C415 C414 1.334 . S
C415 C416 1.287 1_455 S
C416 C415 1.287 1_655 S
C416 C417 1.524 . S
C416 H419 0.999 . S
C417 H387 0.950 . S
C417 C416 1.524 . S
C417 C418 1.415 . S
C418 H388 0.950 . S
C418 C413 1.363 . S
C418 C417 1.415 . S
H419 C416 0.999 . S
H420 C401 0.899 1_554 S
H421 C439 0.951 . S
H422 C441 0.951 . S
H423 C443 0.950 1_565 S
H424 C444 0.950 1_565 S
H425 C446 0.950 . S
H426 C449 0.950 . S
H427 C450 0.950 . S
H428 C452 0.950 . S
H429 C453 0.950 . S
H430 C454 0.951 . S
H431 C456 0.951 . S
H432 C458 0.950 . S
H433 C459 0.950 . S
H434 C461 0.950 . S
H435 C464 0.950 . S
H436 C465 0.950 . S
H437 C467 0.950 . S
H438 C468 0.950 . S
C439 H421 0.951 . S
C439 C440 1.366 . S
C439 C441 1.388 . S
C440 C439 1.366 . S
C440 C444 1.385 . S
C441 H422 0.951 . S
C441 C439 1.388 . S
C441 C442 1.366 . S
C442 C441 1.366 . S
C442 C443 1.414 . S
C442 C445 1.499 . S
C443 H423 0.950 1_545 S
C443 C442 1.414 . S
C443 C444 1.374 . S
C444 H424 0.950 1_545 S
C444 C440 1.385 . S
C444 C443 1.374 . S
C445 C442 1.499 . S
C445 C446 1.373 1_545 S
C445 C447 1.389 . S
C446 H425 0.950 . S
C446 C445 1.373 1_565 S
C446 C462 1.377 . S
C447 C445 1.389 . S
C447 C448 1.524 . S
C447 C461 1.377 . S
C448 C447 1.524 . S
C448 C449 1.397 . S
C448 C453 1.363 . S
C449 H426 0.950 . S
C449 C448 1.397 . S
C449 C450 1.334 . S
C450 H427 0.950 . S
C450 C449 1.334 . S
C450 C451 1.287 . S
C451 C450 1.287 . S
C451 C452 1.524 . S
C451 H470 0.913 . S
C452 H428 0.950 . S
C452 C451 1.524 . S
C452 C453 1.415 . S
C453 H429 0.950 . S
C453 C448 1.363 . S
C453 C452 1.415 . S
C454 H430 0.951 . S
C454 C455 1.366 1_565 S
C454 C456 1.388 . S
C455 C454 1.366 1_545 S
C455 C459 1.385 . S
C456 H431 0.951 . S
C456 C454 1.388 . S
C456 C457 1.366 1_565 S
C457 C456 1.366 1_545 S
C457 C458 1.414 . S
C457 C460 1.499 . S
C458 H432 0.950 . S
C458 C457 1.414 . S
C458 C459 1.374 . S
C459 H433 0.950 . S
C459 C455 1.385 . S
C459 C458 1.374 . S
C460 C457 1.499 . S
C460 C461 1.373 . S
C460 C462 1.389 1_545 S
C461 H434 0.950 . S
C461 C447 1.377 . S
C461 C460 1.373 . S
C462 C446 1.377 . S
C462 C460 1.389 1_565 S
C462 C463 1.524 . S
C463 C462 1.524 . S
C463 C464 1.397 . S
C463 C468 1.363 . S
C464 H435 0.950 . S
C464 C463 1.397 . S
C464 C465 1.334 . S
C465 H436 0.950 . S
C465 C464 1.334 . S
C465 C466 1.287 . S
C466 C465 1.287 . S
C466 C467 1.524 . S
C466 H469 0.999 . S
C467 H437 0.950 . S
C467 C466 1.524 . S
C467 C468 1.415 . S
C468 H438 0.950 . S
C468 C463 1.363 . S
C468 C467 1.415 . S
H469 C466 0.999 . S
H470 C451 0.913 . S
C90 C30 1.442 1_455 S
C105 C40 1.426 . S
C140 C1 1.739 1_565 S
C155 C60 1.698 1_565 S
C190 C0 1.398 1_455 S
C205 C49 1.448 . S
C240 C29 1.754 . S
C255 C69 1.760 . S
C290 C19 1.426 . S
C305 C46 1.437 1_655 S
C340 C20 1.740 . S
C355 C66 1.699 1_565 S
C405 C43 1.438 . S
C390 C10 1.419 . S
C440 C2 1.753 . S
C455 C63 1.759 . S
