# Generated by pormake.
# Topology zzz, (3,6)-cn, num edge types: 1
# Building blocks:
#     Node 0, Type 0, BuildingBlock: BETDIP_clean_linker_0, # of connection points: 3
#     Node 1, Type 0, BuildingBlock: BETDIP_clean_linker_0, # of connection points: 3
#     Node 2, Type 0, BuildingBlock: BETDIP_clean_linker_0, # of connection points: 3
#     Node 3, Type 0, BuildingBlock: BETDIP_clean_linker_0, # of connection points: 3
#     Node 4, Type 0, BuildingBlock: BETDIP_clean_linker_0, # of connection points: 3
#     Node 5, Type 0, BuildingBlock: BETDIP_clean_linker_0, # of connection points: 3
#     Node 6, Type 0, BuildingBlock: BETDIP_clean_linker_0, # of connection points: 3
#     Node 7, Type 0, BuildingBlock: BETDIP_clean_linker_0, # of connection points: 3
#     Node 8, Type 1, BuildingBlock: GEDQOX_clean_sbu_0, # of connection points: 6
#     Node 9, Type 1, BuildingBlock: GEDQOX_clean_sbu_0, # of connection points: 6
#     Node 10, Type 1, BuildingBlock: GEDQOX_clean_sbu_0, # of connection points: 6
#     Node 11, Type 1, BuildingBlock: GEDQOX_clean_sbu_0, # of connection points: 6
#     Edge 12, Type (0, 1), BuildingBlock: XIVTED_clean_linker_0, # of connection points: 2
#     Edge 13, Type (0, 1), BuildingBlock: XIVTED_clean_linker_0, # of connection points: 2
#     Edge 14, Type (0, 1), BuildingBlock: XIVTED_clean_linker_0, # of connection points: 2
#     Edge 15, Type (0, 1), BuildingBlock: XIVTED_clean_linker_0, # of connection points: 2
#     Edge 16, Type (0, 1), BuildingBlock: XIVTED_clean_linker_0, # of connection points: 2
#     Edge 17, Type (0, 1), BuildingBlock: XIVTED_clean_linker_0, # of connection points: 2
#     Edge 18, Type (0, 1), BuildingBlock: XIVTED_clean_linker_0, # of connection points: 2
#     Edge 19, Type (0, 1), BuildingBlock: XIVTED_clean_linker_0, # of connection points: 2
#     Edge 20, Type (0, 1), BuildingBlock: XIVTED_clean_linker_0, # of connection points: 2
#     Edge 21, Type (0, 1), BuildingBlock: XIVTED_clean_linker_0, # of connection points: 2
#     Edge 22, Type (0, 1), BuildingBlock: XIVTED_clean_linker_0, # of connection points: 2
#     Edge 23, Type (0, 1), BuildingBlock: XIVTED_clean_linker_0, # of connection points: 2
#     Edge 24, Type (0, 1), BuildingBlock: XIVTED_clean_linker_0, # of connection points: 2
#     Edge 25, Type (0, 1), BuildingBlock: XIVTED_clean_linker_0, # of connection points: 2
#     Edge 26, Type (0, 1), BuildingBlock: XIVTED_clean_linker_0, # of connection points: 2
#     Edge 27, Type (0, 1), BuildingBlock: XIVTED_clean_linker_0, # of connection points: 2
#     Edge 28, Type (0, 1), BuildingBlock: XIVTED_clean_linker_0, # of connection points: 2
#     Edge 29, Type (0, 1), BuildingBlock: XIVTED_clean_linker_0, # of connection points: 2
#     Edge 30, Type (0, 1), BuildingBlock: XIVTED_clean_linker_0, # of connection points: 2
#     Edge 31, Type (0, 1), BuildingBlock: XIVTED_clean_linker_0, # of connection points: 2
#     Edge 32, Type (0, 1), BuildingBlock: XIVTED_clean_linker_0, # of connection points: 2
#     Edge 33, Type (0, 1), BuildingBlock: XIVTED_clean_linker_0, # of connection points: 2
#     Edge 34, Type (0, 1), BuildingBlock: XIVTED_clean_linker_0, # of connection points: 2
#     Edge 35, Type (0, 1), BuildingBlock: XIVTED_clean_linker_0, # of connection points: 2
# Relax obj value: 0.127
# Max RMSD: 0.182
# Mean RMSD: 0.085
data_MOF--net-zzz--node1-GEDQOX_clean_sbu_0--node2-BETDIP_clean_linker_0--edge1-XIVTED_clean_linker_0
_symmetry_space_group_name_H-M    P1
_symmetry_Int_Tables_number       1
_symmetry_cell_setting            triclinic
loop_
_symmetry_equiv_pos_as_xyz
'x, y, z'
_cell_length_a     54.930819
_cell_length_b     53.967352
_cell_length_c     17.268163
_cell_angle_alpha  79.703953
_cell_angle_beta   89.0522
_cell_angle_gamma 99.877185
loop_
_atom_site_label
_atom_site_type_symbol
_atom_site_fract_x
_atom_site_fract_y
_atom_site_fract_z
_atom_type_partial_charge
H0 H 0.78101 0.56292 0.27718 0.0
H1 H 0.78347 0.52047 0.08817 0.0
H2 H 0.84841 0.53925 0.21536 0.0
H3 H 0.75351 0.54419 0.04317 0.0
C4 C 0.74227 0.54288 0.0966 0.0
C5 C 0.79108 0.55319 0.24112 0.0
C6 C 0.81624 0.55267 0.25244 0.0
C7 C 0.77914 0.54217 0.18076 0.0
C8 C 0.79241 0.52958 0.13378 0.0
C9 C 0.81727 0.52811 0.1475 0.0
C10 C 0.829 0.53986 0.20614 0.0
N11 N 0.75382 0.54382 0.1694 0.0
H12 H 0.01211 0.74696 0.38804 0.0
H13 H 0.05046 0.78011 0.1622 0.0
H14 H 0.04155 0.82734 0.3312 0.0
H15 H 0.02989 0.74647 0.12371 0.0
C16 C 0.02815 0.7305 0.17274 0.0
C17 C 0.02224 0.76323 0.34733 0.0
C18 C 0.02654 0.78762 0.36872 0.0
C19 C 0.03071 0.76002 0.27234 0.0
C20 C 0.04348 0.78174 0.2196 0.0
C21 C 0.04758 0.80601 0.24089 0.0
C22 C 0.03928 0.80851 0.31548 0.0
N23 N 0.02627 0.73507 0.25162 0.0
H24 H 0.76678 0.96887 0.28122 0.0
H25 H 0.76695 0.01724 0.05271 0.0
H26 H 0.70218 0.99999 0.20812 0.0
H27 H 0.79717 0.99591 0.02337 0.0
C28 C 0.80741 0.99384 0.0767 0.0
C29 C 0.75748 0.98041 0.23743 0.0
C30 C 0.73291 0.98284 0.25247 0.0
C31 C 0.76986 0.99226 0.1648 0.0
C32 C 0.75763 1.00739 0.10819 0.0
C33 C 0.73337 0.01055 0.12453 0.0
C34 C 0.72117 0.99805 0.1962 0.0
N35 N 0.79475 0.98928 0.15184 0.0
H36 H 0.53631 0.78674 0.55894 0.0
H37 H 0.49714 0.79052 0.3442 0.0
H38 H 0.48968 0.71955 0.50879 0.0
H39 H 0.54453 0.81474 0.31333 0.0
C40 C 0.538 0.82776 0.3469 0.0
C41 C 0.52338 0.77766 0.52142 0.0
C42 C 0.51301 0.75153 0.5432 0.0
C43 C 0.51766 0.79178 0.44936 0.0
C44 C 0.50148 0.77967 0.39975 0.0
C45 C 0.49102 0.75369 0.42109 0.0
C46 C 0.4967 0.73993 0.49331 0.0
N47 N 0.52847 0.81801 0.42561 0.0
H48 H 0.2787 0.4932 0.56258 0.0
H49 H 0.27055 0.53262 0.75576 0.0
H50 H 0.20928 0.51487 0.61193 0.0
H51 H 0.29971 0.50804 0.80617 0.0
C52 C 0.31227 0.51083 0.75483 0.0
C53 C 0.26751 0.50221 0.59756 0.0
C54 C 0.24274 0.5028 0.58043 0.0
C55 C 0.27759 0.51235 0.662 0.0
C56 C 0.26289 0.5241 0.70728 0.0
C57 C 0.23836 0.52558 0.68817 0.0
C58 C 0.22847 0.51459 0.62543 0.0
N59 N 0.30262 0.51089 0.67888 0.0
H60 H 0.03573 0.3129 0.43211 0.0
H61 H 0.02353 0.28014 0.68105 0.0
H62 H 0.03168 0.23224 0.51391 0.0
H63 H 0.00787 0.31419 0.68874 0.0
C64 C 0.01792 0.32997 0.64597 0.0
C65 C 0.03315 0.29658 0.48 0.0
C66 C 0.03418 0.27196 0.46415 0.0
C67 C 0.02857 0.29996 0.55836 0.0
C68 C 0.02585 0.27834 0.62018 0.0
C69 C 0.02722 0.25407 0.60387 0.0
C70 C 0.03097 0.25116 0.52627 0.0
N71 N 0.0276 0.32508 0.57373 0.0
H72 H 0.28649 0.0883 0.51066 0.0
H73 H 0.29102 0.04381 0.74289 0.0
H74 H 0.35014 0.05366 0.56877 0.0
H75 H 0.26243 0.0653 0.77656 0.0
C76 C 0.25108 0.06807 0.72595 0.0
C77 C 0.2963 0.07678 0.5529 0.0
C78 C 0.3195 0.07195 0.53125 0.0
C79 C 0.28578 0.06693 0.62943 0.0
C80 C 0.2988 0.05199 0.6841 0.0
C81 C 0.3219 0.0469 0.66199 0.0
C82 C 0.332 0.05695 0.58563 0.0
N83 N 0.26184 0.07166 0.6483 0.0
H84 H 0.53007 0.27602 0.23692 0.0
H85 H 0.53657 0.26673 0.4892 0.0
H86 H 0.51699 0.33529 0.36102 0.0
H87 H 0.56955 0.24748 0.44673 0.0
C88 C 0.55624 0.23382 0.42281 0.0
C89 C 0.5286 0.283 0.29155 0.0
C90 C 0.52215 0.30726 0.29084 0.0
C91 C 0.53381 0.26811 0.36329 0.0
C92 C 0.53262 0.2778 0.43354 0.0
C93 C 0.5264 0.30182 0.43276 0.0
C94 C 0.52082 0.31617 0.36182 0.0
N95 N 0.54034 0.24357 0.36518 0.0
Nd96 Nd 0.01984 0.01824 0.84625 0.0
Nd97 Nd 0.04277 0.04106 0.9989 0.0
C98 C 0.99642 0.98729 0.7574 0.0
C99 C 0.99798 0.96235 0.73434 0.0
C100 C 0.97619 0.94563 0.72434 0.0
C101 C 0.97717 0.92243 0.6995 0.0
C102 C 1.00003 0.91536 0.68364 0.0
C103 C 0.02187 0.93204 0.69522 0.0
C104 C 0.02086 0.95519 0.72046 0.0
C105 C 0.06806 0.04348 0.82941 0.0
C106 C 0.04677 0.98219 0.98729 0.0
C107 C 0.06981 0.07232 0.07881 0.0
C108 C 0.06612 0.09585 0.10733 0.0
C109 C 0.08131 0.10521 0.16399 0.0
C110 C 0.07816 0.12777 0.1898 0.0
C111 C 0.05974 0.1416 0.15937 0.0
C112 C 0.04454 0.13201 0.10253 0.0
C113 C 0.04766 0.10942 0.07711 0.0
C114 C 0.99216 0.02424 0.01865 0.0
C115 C 0.01393 0.07539 0.86143 0.0
O116 O 0.98939 0.98675 0.83064 0.0
O117 O 0.01415 1.0066 0.73017 0.0
O118 O 0.05314 0.04337 0.77159 0.0
O119 O 0.05777 0.02914 0.89123 0.0
O120 O 0.03363 0.98455 0.92343 0.0
O121 O 0.05399 1.00132 0.02547 0.0
O122 O 0.0722 0.07442 0.00202 0.0
O123 O 0.05575 0.05078 0.113 0.0
O124 O 0.00544 0.03251 0.07346 0.0
O125 O 0.00632 0.02475 0.96056 0.0
O126 O 0.03052 0.0745 0.91612 0.0
O127 O 0.00442 0.05547 0.82977 0.0
H128 H 0.95832 0.95063 0.73517 0.0
H129 H 0.95992 0.91003 0.6929 0.0
H130 H 0.03985 0.92759 0.68288 0.0
H131 H 0.03799 0.96766 0.72806 0.0
H132 H 0.09564 0.09505 0.18837 0.0
H133 H 0.08998 0.13415 0.23453 0.0
H134 H 0.03038 0.14212 0.07668 0.0
H135 H 0.0357 0.1026 0.03338 0.0
Nd136 Nd 0.53146 0.01117 0.84235 0.0
Nd137 Nd 0.52557 0.04847 0.95038 0.0
C138 C 0.53635 0.97284 0.77074 0.0
C139 C 0.5584 0.96747 0.73209 0.0
C140 C 0.55853 0.9437 0.71027 0.0
C141 C 0.57974 0.93905 0.67308 0.0
C142 C 0.60114 0.9581 0.65746 0.0
C143 C 0.60088 0.98174 0.68071 0.0
C144 C 0.57977 0.98634 0.71764 0.0
C145 C 0.53599 0.06085 0.76475 0.0
C146 C 0.58164 0.04245 0.89765 0.0
C147 C 0.52062 0.08567 0.02716 0.0
C148 C 0.49846 0.09317 0.05912 0.0
C149 C 0.47619 0.09052 0.02004 0.0
C150 C 0.45435 0.09409 0.05578 0.0
C151 C 0.45428 0.10024 0.13161 0.0
C152 C 0.47685 0.10387 0.16918 0.0
C153 C 0.49871 0.10033 0.13326 0.0
C154 C 0.52281 0.9984 0.02503 0.0
C155 C 0.47563 0.01839 0.89188 0.0
O156 O 0.53702 0.97116 0.84713 0.0
O157 O 0.5282 0.99326 0.73625 0.0
O158 O 0.54914 0.04472 0.74676 0.0
O159 O 0.52023 0.05037 0.82034 0.0
O160 O 0.5717 0.02178 0.87109 0.0
O161 O 0.5679 0.05732 0.92419 0.0
O162 O 0.52349 0.08917 0.95038 0.0
O163 O 0.52532 0.06354 0.06181 0.0
O164 O 0.50827 0.01322 0.04362 0.0
O165 O 0.53808 0.01025 0.97021 0.0
O166 O 0.48579 0.03954 0.91533 0.0
O167 O 0.48924 1.00249 0.87081 0.0
H168 H 0.54225 0.92885 0.72159 0.0
H169 H 0.57937 0.92056 0.65655 0.0
H170 H 0.61677 0.99705 0.66839 0.0
H171 H 0.58002 1.00484 0.73403 0.0
H172 H 0.47546 0.08488 0.96289 0.0
H173 H 0.43742 0.09148 0.02466 0.0
H174 H 0.47746 0.10825 0.22798 0.0
H175 H 0.51563 0.1022 0.16475 0.0
Nd176 Nd 0.51127 0.53575 0.00221 0.0
Nd177 Nd 0.54398 0.53294 0.86362 0.0
C178 C 0.47594 0.54577 0.09115 0.0
C179 C 0.46943 0.56951 0.10811 0.0
C180 C 0.4457 0.56973 0.1386 0.0
C181 C 0.43956 0.59245 0.15478 0.0
C182 C 0.45712 0.61525 0.14064 0.0
C183 C 0.4807 0.61493 0.10801 0.0
C184 C 0.48675 0.59229 0.09165 0.0
C185 C 0.56076 0.54115 0.03077 0.0
C186 C 0.53325 0.58842 0.87107 0.0
C187 C 0.57497 0.5187 0.77029 0.0
C188 C 0.571 0.49309 0.75041 0.0
C189 C 0.58889 0.4843 0.709 0.0
C190 C 0.58394 0.45948 0.69216 0.0
C191 C 0.56119 0.44323 0.71759 0.0
C192 C 0.54384 0.45209 0.76134 0.0
C193 C 0.54851 0.47683 0.77615 0.0
C194 C 0.49438 0.52681 0.83589 0.0
C195 C 0.52319 0.48041 0.99601 0.0
O196 O 0.47302 0.54242 0.01858 0.0
O197 O 0.49676 0.54007 0.11855 0.0
O198 O 0.54348 0.52891 0.08275 0.0
O199 O 0.55169 0.55119 0.9689 0.0
O200 O 0.5153 0.57596 0.92296 0.0
O201 O 0.55019 0.57656 0.8465 0.0
O202 O 0.57894 0.51902 0.84463 0.0
O203 O 0.55852 0.53255 0.74343 0.0
O204 O 0.51151 0.53934 0.78421 0.0
O205 O 0.50369 0.51698 0.89751 0.0
O206 O 0.541 0.49312 0.94435 0.0
O207 O 0.50636 0.49211 0.02182 0.0
H208 H 0.43201 0.55232 0.15039 0.0
H209 H 0.42117 0.59209 0.179 0.0
H210 H 0.49486 0.63195 0.09762 0.0
H211 H 0.5051 0.59249 0.06725 0.0
H212 H 0.60638 0.49663 0.68898 0.0
H213 H 0.5976 0.4533 0.65763 0.0
H214 H 0.52641 0.44001 0.78355 0.0
H215 H 0.53433 0.48334 0.80752 0.0
Nd216 Nd 0.0243 0.55032 0.84335 0.0
Nd217 Nd 0.02932 0.50935 0.99653 0.0
C218 C 0.01113 0.59002 0.7528 0.0
C219 C 0.98963 0.59113 0.70366 0.0
C220 C 0.98486 0.61448 0.66236 0.0
C221 C 0.96369 0.61513 0.6183 0.0
C222 C 0.94692 0.59243 0.61558 0.0
C223 C 0.95193 0.56911 0.65719 0.0
C224 C 0.97307 0.56849 0.70063 0.0
C225 C 0.02197 0.50221 0.80339 0.0
C226 C 0.97481 0.51228 0.9378 0.0
C227 C 0.04418 0.47327 0.0997 0.0
C228 C 0.06748 0.4719 0.13957 0.0
C229 C 0.07311 0.44823 0.17477 0.0
C230 C 0.09532 0.44704 0.21276 0.0
C231 C 0.11229 0.46955 0.21597 0.0
C232 C 0.10661 0.49321 0.1794 0.0
C233 C 0.08446 0.49436 0.14156 0.0
C234 C 0.02293 0.55689 0.02269 0.0
C235 C 0.07979 0.54475 0.89612 0.0
O236 O 0.00563 0.58392 0.82876 0.0
O237 O 0.02776 0.5777 0.72986 0.0
O238 O 0.02129 0.52285 0.7523 0.0
O239 O 0.02406 0.50827 0.87033 0.0
O240 O 0.98458 0.53469 0.89454 0.0
O241 O 0.98854 0.49657 0.97539 0.0
O242 O 0.04547 0.47399 0.02361 0.0
O243 O 0.03124 0.48958 0.1196 0.0
O244 O 0.01362 0.53545 0.06891 0.0
O245 O 0.03613 0.55275 0.96714 0.0
O246 O 0.0697 0.52569 0.95296 0.0
O247 O 0.06647 0.55851 0.84836 0.0
H248 H 0.99739 0.63215 0.66456 0.0
H249 H 0.96029 0.63339 0.58716 0.0
H250 H 0.93972 0.55123 0.65522 0.0
H251 H 0.97648 0.55026 0.73217 0.0
H252 H 0.0603 0.43069 0.17312 0.0
H253 H 0.09921 0.42849 0.2395 0.0
H254 H 0.11897 0.51097 0.18172 0.0
H255 H 0.08045 0.51284 0.11446 0.0
H256 H 0.21597 0.07676 0.61675 0.0
H257 H 0.10317 0.03971 0.93936 0.0
H258 H 0.22545 0.05902 0.86681 0.0
H259 H 0.09458 0.06549 0.69177 0.0
H260 H 0.14813 0.04866 0.91502 0.0
H261 H 0.17165 0.07432 0.64336 0.0
C262 C 0.20875 0.07246 0.6773 0.0
C263 C 0.22437 0.06795 0.73979 0.0
C264 C 0.13644 0.05259 0.86607 0.0
C265 C 0.17363 0.06505 0.7707 0.0
C266 C 0.11077 0.04754 0.88002 0.0
C267 C 0.09515 0.05172 0.81738 0.0
C268 C 0.14656 0.06171 0.78881 0.0
C269 C 0.10597 0.06189 0.74169 0.0
C270 C 0.18343 0.07111 0.6925 0.0
C271 C 0.21399 0.06254 0.81701 0.0
N272 N 0.13098 0.06632 0.72939 0.0
N273 N 0.18927 0.06108 0.83031 0.0
H274 H 0.53953 0.1884 0.37301 0.0
H275 H 0.51735 0.10186 0.79974 0.0
H276 H 0.5587 0.2203 0.58018 0.0
H277 H 0.55371 0.07659 0.61255 0.0
H278 H 0.51972 0.14408 0.71456 0.0
H279 H 0.53191 0.14519 0.45581 0.0
C280 C 0.54182 0.18628 0.4359 0.0
C281 C 0.54988 0.20773 0.47013 0.0
C282 C 0.52698 0.12913 0.69235 0.0
C283 C 0.54062 0.15901 0.5644 0.0
C284 C 0.5257 0.10515 0.74081 0.0
C285 C 0.53574 0.08591 0.71363 0.0
C286 C 0.53758 0.13348 0.61547 0.0
C287 C 0.54603 0.09103 0.63615 0.0
C288 C 0.53756 0.16177 0.48281 0.0
C289 C 0.55268 0.20411 0.55176 0.0
N290 N 0.54658 0.11429 0.58955 0.0
N291 N 0.54789 0.18022 0.59634 0.0
H292 H 0.33466 0.50222 0.89359 0.0
H293 H 0.47219 0.54393 0.70167 0.0
H294 H 0.35076 0.52285 0.64272 0.0
H295 H 0.45582 0.50224 0.93938 0.0
H296 H 0.4278 0.5393 0.68079 0.0
H297 H 0.37906 0.50511 0.91384 0.0
C298 C 0.34758 0.50731 0.84282 0.0
C299 C 0.33907 0.51223 0.76648 0.0
C300 C 0.4339 0.5311 0.73746 0.0
C301 C 0.3898 0.5158 0.78902 0.0
C302 C 0.45922 0.53377 0.74945 0.0
C303 C 0.46764 0.52354 0.82246 0.0
C304 C 0.41685 0.51833 0.79923 0.0
C305 C 0.45007 0.51054 0.88233 0.0
C306 C 0.37287 0.50889 0.85436 0.0
C307 C 0.35652 0.51879 0.70261 0.0
N308 N 0.42548 0.50843 0.86957 0.0
N309 N 0.38108 0.52051 0.71536 0.0
H310 H 0.03462 0.37778 0.55223 0.0
H311 H 0.01803 0.45528 0.90206 0.0
H312 H 0.00648 0.34137 0.78692 0.0
H313 H 0.0273 0.49106 0.65695 0.0
H314 H 0.01835 0.41358 0.86347 0.0
H315 H 0.03666 0.41977 0.59143 0.0
C316 C 0.02898 0.3786 0.61198 0.0
C317 C 0.0203 0.35601 0.66634 0.0
C318 C 0.02037 0.43058 0.81813 0.0
C319 C 0.02274 0.40396 0.71187 0.0
C320 C 0.02027 0.45438 0.84027 0.0
C321 C 0.02263 0.47669 0.78274 0.0
C322 C 0.02312 0.42907 0.73786 0.0
C323 C 0.02536 0.47435 0.70334 0.0
C324 C 0.03009 0.40257 0.63435 0.0
C325 C 0.01322 0.35829 0.74302 0.0
N326 N 0.02559 0.45108 0.68332 0.0
N327 N 0.01464 0.38171 0.76348 0.0
H328 H 0.84019 0.99044 0.19519 0.0
H329 H 0.96026 0.01484 0.90204 0.0
H330 H 0.83629 1.00048 0.94247 0.0
H331 H 0.96257 0.01551 0.15111 0.0
H332 H 0.91484 1.00469 0.91594 0.0
H333 H 0.88506 0.99478 0.18058 0.0
C334 C 0.84877 0.99344 0.13656 0.0
C335 C 0.83453 0.99523 0.0698 0.0
C336 C 0.92533 1.00687 0.96759 0.0
C337 C 0.886 1.00028 0.05257 0.0
C338 C 0.9512 0.0125 0.9597 0.0
C339 C 0.96508 0.01597 0.02555 0.0
C340 C 0.9134 1.00462 0.04192 0.0
C341 C 0.95251 0.01304 0.09882 0.0
C342 C 0.87443 0.99595 0.12821 0.0
C343 C 0.84667 0.99908 0.99536 0.0
N344 N 0.92743 1.00759 0.10499 0.0
N345 N 0.87174 1.00156 0.98863 0.0
H346 H 0.51425 0.86407 0.39527 0.0
H347 H 0.55445 0.96673 0.99818 0.0
H348 H 0.55862 0.85082 0.20352 0.0
H349 H 0.49654 0.9732 0.16119 0.0
H350 H 0.55889 0.9259 0.07921 0.0
H351 H 0.51053 0.90604 0.31782 0.0
C352 C 0.52341 0.87011 0.33728 0.0
C353 C 0.53683 0.85403 0.30563 0.0
C354 C 0.54514 0.93617 0.09728 0.0
C355 C 0.53257 0.90179 0.21687 0.0
C356 C 0.54255 0.95946 0.05085 0.0
C357 C 0.52497 0.97328 0.0727 0.0
C358 C 0.53021 0.92665 0.16668 0.0
C359 C 0.51025 0.96308 0.14207 0.0
C360 C 0.52116 0.89396 0.29293 0.0
C361 C 0.54815 0.86269 0.23002 0.0
N362 N 0.51324 0.9404 0.18679 0.0
N363 N 0.54579 0.88593 0.18831 0.0
H364 H 0.70617 0.53506 0.21568 0.0
H365 H 0.59863 0.56154 0.92142 0.0
H366 H 0.71742 0.5509 0.96264 0.0
H367 H 0.58382 0.52382 0.16384 0.0
H368 H 0.64288 0.56236 0.93829 0.0
H369 H 0.66186 0.53523 0.20077 0.0
C370 C 0.69933 0.53866 0.15701 0.0
C371 C 0.71544 0.54302 0.09015 0.0
C372 C 0.62997 0.55391 0.98785 0.0
C373 C 0.6649 0.54337 0.07276 0.0
C374 C 0.60472 0.5535 0.97831 0.0
C375 C 0.58757 0.54253 0.04131 0.0
C376 C 0.63818 0.54353 0.06121 0.0
C377 C 0.59646 0.53242 0.11375 0.0
C378 C 0.67404 0.53867 0.14855 0.0
C379 C 0.70557 0.54745 0.01562 0.0
N380 N 0.62118 0.53322 0.12183 0.0
N381 N 0.68098 0.54762 0.00888 0.0
H382 H 0.0377 0.71967 0.0296 0.0
H383 H 0.00348 0.56719 0.15776 0.0
H384 H 0.01673 0.68236 0.26924 0.0
H385 H 0.04253 0.60476 0.93813 0.0
H386 H 0.00481 0.60893 0.19624 0.0
H387 H 0.03638 0.67784 0.99234 0.0
C388 C 0.03281 0.70261 0.07451 0.0
C389 C 0.02737 0.70459 0.15271 0.0
C390 C 0.01309 0.60809 0.13964 0.0
C391 C 0.0256 0.65632 0.1101 0.0
C392 C 0.01227 0.58424 0.11737 0.0
C393 C 0.02294 0.58241 0.04448 0.0
C394 C 0.02443 0.63048 0.08838 0.0
C395 C 0.03407 0.60522 0.99481 0.0
C396 C 0.03211 0.67871 0.05314 0.0
C397 C 0.02115 0.6818 0.20834 0.0
N398 N 0.03446 0.62825 0.01753 0.0
N399 N 0.02031 0.65863 0.18588 0.0
H400 H 0.06115 0.22333 0.63342 0.0
H401 H 1.00154 0.10994 0.9452 0.0
H402 H 0.98826 0.23155 0.70938 0.0
H403 H 0.01493 0.09874 0.70829 0.0
H404 H 1.00259 0.15581 0.89446 0.0
H405 H 0.05308 0.17876 0.70213 0.0
C406 C 0.04376 0.21594 0.66691 0.0
C407 C 0.02526 0.23094 0.66558 0.0
C408 C 0.00464 0.14309 0.85378 0.0
C409 C 0.01601 0.18027 0.74325 0.0
C410 C 0.00406 0.11708 0.88235 0.0
C411 C 0.00813 0.10074 0.83048 0.0
C412 C 0.01006 0.15264 0.77348 0.0
C413 C 0.01146 0.11074 0.74979 0.0
C414 C 0.03911 0.19056 0.70504 0.0
C415 C 1.00297 0.22052 0.70956 0.0
N416 N 0.01298 0.13627 0.72383 0.0
N417 N 0.99878 0.19552 0.74645 0.0
H418 H 0.34305 1.00623 0.64237 0.0
H419 H 0.44728 0.97988 0.83093 0.0
H420 H 0.33569 0.05605 0.80709 0.0
H421 H 0.44214 0.04689 0.93013 0.0
H422 H 0.40426 0.97749 0.79572 0.0
H423 H 0.37658 0.99113 0.71582 0.0
C424 C 0.34806 0.01334 0.69584 0.0
C425 C 0.33683 0.03259 0.71832 0.0
C426 C 0.41248 0.99285 0.82465 0.0
C427 C 0.37546 0.01546 0.80365 0.0
C428 C 0.43707 0.99403 0.84562 0.0
C429 C 0.44862 0.01405 0.88144 0.0
C430 C 0.39947 0.01209 0.8386 0.0
C431 C 0.43427 0.03147 0.90074 0.0
C432 C 0.36726 1.00464 0.73831 0.0
C433 C 0.34391 0.04119 0.78786 0.0
N434 N 0.41063 0.0303 0.87803 0.0
N435 N 0.36316 0.03297 0.82711 0.0
H436 H 0.56607 0.3081 0.52446 0.0
H437 H 0.51607 0.42098 0.67578 0.0
H438 H 0.49198 0.32368 0.49786 0.0
H439 H 0.59092 0.40751 0.7062 0.0
H440 H 0.50517 0.38027 0.63389 0.0
H441 H 0.57336 0.33831 0.61552 0.0
C442 C 0.55109 0.31728 0.53996 0.0
C443 C 0.52852 0.3138 0.50316 0.0
C444 C 0.52394 0.38599 0.65045 0.0
C445 C 0.53681 0.34858 0.60515 0.0
C446 C 0.53021 0.40929 0.67494 0.0
C447 C 0.55453 0.4178 0.69467 0.0
C448 C 0.54218 0.37112 0.6438 0.0
C449 C 0.57207 0.40193 0.69028 0.0
C450 C 0.55532 0.33467 0.59124 0.0
C451 C 0.50974 0.32619 0.52445 0.0
N452 N 0.56561 0.37943 0.66445 0.0
N453 N 0.51443 0.34334 0.57316 0.0
H454 H 0.2296 0.51686 0.84848 0.0
H455 H 0.11347 0.52339 0.98905 0.0
H456 H 0.20967 0.56063 0.63243 0.0
H457 H 0.10844 0.57657 0.77373 0.0
H458 H 0.15672 0.52507 0.95625 0.0
H459 H 0.19528 0.52815 0.91806 0.0
C460 C 0.21822 0.52929 0.81612 0.0
C461 C 0.22204 0.53732 0.73441 0.0
C462 C 0.1466 0.53691 0.91653 0.0
C463 C 0.18187 0.54943 0.8124 0.0
C464 C 0.1216 0.53583 0.93531 0.0
C465 C 0.10706 0.54945 0.88328 0.0
C466 C 0.15725 0.55169 0.84473 0.0
C467 C 0.11879 0.56547 0.81519 0.0
C468 C 0.19825 0.53542 0.85556 0.0
C469 C 0.20693 0.55353 0.69526 0.0
N470 N 0.14305 0.5658 0.79734 0.0
N471 N 0.1873 0.55866 0.73429 0.0
H472 H 0.03429 0.82021 0.08971 0.0
H473 H 0.07258 0.96636 0.11748 0.0
H474 H 0.08251 0.8464 0.2642 0.0
H475 H 0.03692 0.93992 0.91868 0.0
H476 H 0.08058 0.92305 0.16476 0.0
H477 H 0.04037 0.86399 0.01548 0.0
C478 C 0.04684 0.83502 0.11101 0.0
C479 C 0.05752 0.82978 0.18392 0.0
C480 C 0.07128 0.92687 0.11026 0.0
C481 C 0.06385 0.88007 0.10105 0.0
C482 C 0.06661 0.95158 0.08347 0.0
C483 C 0.05367 0.95678 0.01478 0.0
C484 C 0.06279 0.90722 0.06832 0.0
C485 C 0.0466 0.93685 0.9727 0.0
C486 C 0.05008 0.86012 0.06914 0.0
C487 C 0.07351 0.84978 0.20894 0.0
N488 N 0.05099 0.91298 0.0006 0.0
N489 N 0.07573 0.87415 0.16861 0.0
H490 H 0.71273 0.05138 0.14465 0.0
H491 H 0.61615 0.02215 0.82574 0.0
H492 H 0.72158 1.00307 0.97656 0.0
H493 H 0.60888 0.07301 0.988 0.0
H494 H 0.65915 0.02289 0.85916 0.0
H495 H 0.6801 0.06774 0.06739 0.0
C496 C 0.70824 0.04484 0.08996 0.0
C497 C 0.71958 0.02574 0.06702 0.0
C498 C 0.64833 0.03427 0.88651 0.0
C499 C 0.68181 0.04367 0.97968 0.0
C500 C 0.62371 0.03382 0.86755 0.0
C501 C 0.60872 0.04709 0.90553 0.0
C502 C 0.65799 0.0478 0.94467 0.0
C503 C 0.61967 0.06224 0.95802 0.0
C504 C 0.68954 0.05405 0.04608 0.0
C505 C 0.7132 0.0178 0.99602 0.0
N506 N 0.64352 0.06179 0.97722 0.0
N507 N 0.69433 0.0264 0.95563 0.0
H508 H 0.50047 0.75866 0.26229 0.0
H509 H 0.43116 0.61884 0.27397 0.0
H510 H 0.44928 0.71677 0.45211 0.0
H511 H 0.47151 0.66538 0.06666 0.0
H512 H 0.43037 0.65723 0.32852 0.0
H513 H 0.48326 0.72867 0.17895 0.0
C514 C 0.48512 0.74359 0.28582 0.0
C515 C 0.47671 0.73983 0.36496 0.0
C516 C 0.439 0.65916 0.27041 0.0
C517 C 0.45739 0.70499 0.27048 0.0
C518 C 0.43933 0.63718 0.23888 0.0
C519 C 0.45199 0.63876 0.16637 0.0
C520 C 0.45175 0.68286 0.2298 0.0
C521 C 0.4623 0.66314 0.12402 0.0
C522 C 0.47538 0.72632 0.23826 0.0
C523 C 0.45681 0.7199 0.39213 0.0
N524 N 0.46242 0.68418 0.15709 0.0
N525 N 0.44819 0.70289 0.34553 0.0
H526 H 0.83872 0.48675 0.19751 0.0
H527 H 0.94056 0.53452 0.85073 0.0
H528 H 0.83104 0.54241 0.9913 0.0
H529 H 0.94687 0.47655 0.05319 0.0
H530 H 0.89673 0.53045 0.8859 0.0
H531 H 0.87352 0.47511 0.13068 0.0
C532 C 0.84391 0.49586 0.13696 0.0
C533 C 0.83219 0.51559 0.09969 0.0
C534 C 0.90755 0.51829 0.92199 0.0
C535 C 0.87249 0.50316 0.02388 0.0
C536 C 0.93265 0.52063 0.90203 0.0
C537 C 0.94756 0.50625 0.95015 0.0
C538 C 0.89729 0.50168 0.99119 0.0
C539 C 0.93616 0.48825 0.01495 0.0
C540 C 0.86387 0.48939 0.099 0.0
C541 C 0.83962 0.52704 0.0217 0.0
N542 N 0.9118 0.48683 0.03444 0.0
N543 N 0.85968 0.52104 0.98685 0.0
H544 H 0.07881 0.2725 0.39268 0.0
H545 H 0.01617 0.15891 0.18273 0.0
H546 H 1.00049 0.25379 0.36519 0.0
H547 H 0.09508 0.17949 0.20068 0.0
H548 H 0.01063 0.19717 0.23299 0.0
H549 H 0.08582 0.24372 0.30293 0.0
C550 C 0.06318 0.26341 0.36426 0.0
C551 C 0.03906 0.26598 0.38528 0.0
C552 C 0.0292 0.19346 0.22536 0.0
C553 C 0.04675 0.23171 0.28594 0.0
C554 C 0.03242 0.17156 0.19624 0.0
C555 C 0.05617 0.16561 0.18755 0.0
C556 C 0.04982 0.20975 0.2466 0.0
C557 C 0.07636 0.1828 0.20762 0.0
C558 C 0.06713 0.24649 0.31432 0.0
C559 C 0.0194 0.25283 0.34922 0.0
N560 N 0.07271 0.20388 0.23653 0.0
N561 N 0.02362 0.23595 0.30265 0.0
H562 H 0.35014 0.11766 0.48714 0.0
H563 H 0.40967 0.06831 0.13182 0.0
H564 H 0.31884 0.04924 0.40297 0.0
H565 H 0.44474 0.13306 0.22908 0.0
H566 H 0.37227 0.06637 0.21222 0.0
H567 H 0.38028 0.12904 0.37452 0.0
C568 C 0.34907 0.10559 0.44303 0.0
C569 C 0.33191 0.08271 0.45322 0.0
C570 C 0.38803 0.0812 0.21536 0.0
C571 C 0.36674 0.09494 0.32637 0.0
C572 C 0.40941 0.08245 0.16897 0.0
C573 C 0.43056 0.10077 0.17399 0.0
C574 C 0.38771 0.09831 0.26768 0.0
C575 C 0.42908 0.1183 0.22431 0.0
C576 C 0.36643 0.11188 0.37939 0.0
C577 C 0.33163 0.06724 0.39613 0.0
N578 N 0.40814 0.11649 0.26967 0.0
N579 N 0.349 0.07347 0.33557 0.0
H580 H 0.55713 0.32908 0.17329 0.0
H581 H 0.55347 0.44957 0.94998 0.0
H582 H 0.48199 0.3289 0.24854 0.0
H583 H 0.49005 0.44726 0.10372 0.0
H584 H 0.55192 0.40401 0.99777 0.0
H585 H 0.55757 0.36994 0.08522 0.0
C586 C 0.54031 0.33708 0.16818 0.0
C587 C 0.51945 0.32554 0.21774 0.0
C588 C 0.53848 0.41338 0.02197 0.0
C589 C 0.5198 0.37282 0.11843 0.0
C590 C 0.53927 0.43952 0.99423 0.0
C591 C 0.52209 0.45249 0.02373 0.0
C592 C 0.52045 0.40001 0.0803 0.0
C593 C 0.50388 0.43824 0.07989 0.0
C594 C 0.54058 0.36067 0.11829 0.0
C595 C 0.49838 0.33712 0.21075 0.0
N596 N 0.50364 0.41289 0.10649 0.0
N597 N 0.49926 0.3603 0.16339 0.0
H598 H 0.24923 0.51961 0.42145 0.0
H599 H 0.11805 0.4388 0.35678 0.0
H600 H 0.2075 0.46028 0.59771 0.0
H601 H 0.15874 0.49843 0.17793 0.0
H602 H 0.15424 0.44102 0.43657 0.0
H603 H 0.22044 0.50666 0.32261 0.0
C604 C 0.2345 0.50327 0.43846 0.0
C605 C 0.23066 0.49086 0.51725 0.0
C606 C 0.15539 0.45344 0.37947 0.0
C607 C 0.19734 0.47647 0.40606 0.0
C608 C 0.13471 0.45207 0.33353 0.0
C609 C 0.13516 0.46869 0.26079 0.0
C610 C 0.17671 0.47168 0.35299 0.0
C611 C 0.15731 0.48567 0.23445 0.0
C612 C 0.21793 0.49604 0.38246 0.0
C613 C 0.21106 0.47017 0.5372 0.0
N614 N 0.17708 0.48694 0.28088 0.0
N615 N 0.19494 0.46383 0.48223 0.0
H616 H 0.98069 0.79723 0.39863 0.0
H617 H 0.03366 0.88248 0.71418 0.0
H618 H 0.05156 0.79524 0.49965 0.0
H619 H 0.96886 0.89267 0.58236 0.0
H620 H 0.03656 0.8449 0.65599 0.0
H621 H 0.97136 0.8249 0.48926 0.0
C622 C 0.99375 0.80153 0.44278 0.0
C623 C 0.01673 0.79351 0.44267 0.0
C624 C 0.02157 0.85523 0.6404 0.0
C625 C 0.00678 0.82629 0.54404 0.0
C626 C 0.02 0.8769 0.67315 0.0
C627 C 1.00111 0.89118 0.65292 0.0
C628 C 0.00411 0.84752 0.58691 0.0
C629 C 0.98365 0.88235 0.6007 0.0
C630 C 0.98866 0.8178 0.49344 0.0
C631 C 0.03342 0.80056 0.499 0.0
N632 N 0.98568 0.86131 0.5693 0.0
N633 N 0.02829 0.81682 0.54653 0.0
H634 H 0.6928 0.94511 0.26759 0.0
H635 H 0.65038 0.97382 0.6811 0.0
H636 H 0.73969 0.99238 0.40154 0.0
H637 H 0.60224 0.9337 0.53129 0.0
H638 H 0.68577 0.97298 0.59444 0.0
H639 H 0.66264 0.93216 0.37942 0.0
C640 C 0.697 0.95212 0.32175 0.0
C641 C 0.71864 0.96976 0.32586 0.0
C642 C 0.6675 0.96404 0.58121 0.0
C643 C 0.68395 0.95582 0.45297 0.0
C644 C 0.64725 0.96463 0.6304 0.0
C645 C 0.62317 0.95421 0.6128 0.0
C646 C 0.66371 0.95296 0.5138 0.0
C647 C 0.62038 0.94197 0.54745 0.0
C648 C 0.67973 0.94493 0.3853 0.0
C649 C 0.72323 0.97858 0.39664 0.0
N650 N 0.64034 0.94197 0.49989 0.0
N651 N 0.7058 0.97185 0.45718 0.0
H652 H 0.55808 0.73765 0.5682 0.0
H653 H 0.50034 0.61841 0.90409 0.0
H654 H 0.48416 0.7256 0.67162 0.0
H655 H 0.56674 0.62123 0.76301 0.0
H656 H 0.49871 0.66225 0.84059 0.0
H657 H 0.56618 0.70024 0.66162 0.0
C658 C 0.54391 0.7277 0.61268 0.0
C659 C 0.52051 0.73477 0.61293 0.0
C660 C 0.51377 0.65337 0.82398 0.0
C661 C 0.5293 0.69168 0.71817 0.0
C662 C 0.51474 0.62828 0.86025 0.0
C663 C 0.53355 0.61589 0.83819 0.0
C664 C 0.53176 0.66634 0.76517 0.0
C665 C 0.55176 0.62987 0.78142 0.0
C666 C 0.54839 0.70616 0.66518 0.0
C667 C 0.50251 0.72085 0.67021 0.0
N668 N 0.55031 0.65426 0.74645 0.0
N669 N 0.50719 0.69985 0.72001 0.0
H670 H 0.80868 0.5427 0.41298 0.0
H671 H 0.94328 0.61986 0.46761 0.0
H672 H 0.85602 0.59095 0.22394 0.0
H673 H 0.89993 0.56534 0.65381 0.0
H674 H 0.90789 0.61611 0.38401 0.0
H675 H 0.83804 0.5575 0.50804 0.0
C676 C 0.82491 0.55697 0.39189 0.0
C677 C 0.8301 0.56561 0.31093 0.0
C678 C 0.90601 0.60516 0.44346 0.0
C679 C 0.86385 0.58222 0.41824 0.0
C680 C 0.9262 0.60741 0.49142 0.0
C681 C 0.92471 0.59263 0.56751 0.0
C682 C 0.88414 0.58797 0.47162 0.0
C683 C 0.90209 0.57667 0.59489 0.0
C684 C 0.84175 0.56524 0.44586 0.0
C685 C 0.85149 0.58382 0.2861 0.0
N686 N 0.88279 0.57457 0.54676 0.0
N687 N 0.8677 0.59132 0.33943 0.0
loop_
_geom_bond_atom_site_label_1
_geom_bond_atom_site_label_2
_geom_bond_distance
_geom_bond_site_symmetry_2
_ccdc_geom_bond_type
H0 C5 0.930 . S
H1 C8 0.930 . S
H2 C10 0.930 . S
H3 C4 1.016 . S
C4 H3 1.016 . S
C4 N11 1.286 1_556 S
C5 H0 0.930 . S
C5 C6 1.397 . S
C5 C7 1.361 . S
C6 C5 1.397 . S
C6 C10 1.390 . S
C7 C5 1.361 . S
C7 C8 1.393 1_554 S
C7 N11 1.413 . S
C8 H1 0.930 . S
C8 C7 1.393 1_556 S
C8 C9 1.399 . S
C9 C8 1.399 . S
C9 C10 1.381 1_556 S
C10 H2 0.930 . S
C10 C6 1.390 . S
C10 C9 1.381 1_554 S
N11 C4 1.286 1_554 S
N11 C7 1.413 . S
H12 C17 0.930 . S
H13 C20 0.930 . S
H14 C22 0.930 . S
H15 C16 1.016 . S
C16 H15 1.016 . S
C16 N23 1.286 1_655 S
C17 H12 0.930 . S
C17 C18 1.397 1_455 S
C17 C19 1.361 . S
C18 C17 1.397 1_655 S
C18 C22 1.390 . S
C19 C17 1.361 . S
C19 C20 1.393 . S
C19 N23 1.413 . S
C20 H13 0.930 . S
C20 C19 1.393 . S
C20 C21 1.399 1_455 S
C21 C20 1.399 1_655 S
C21 C22 1.381 . S
C22 H14 0.930 . S
C22 C18 1.390 . S
C22 C21 1.381 . S
N23 C16 1.286 1_455 S
N23 C19 1.413 . S
H24 C29 0.930 . S
H25 C32 0.930 1_556 S
H26 C34 0.930 . S
H27 C28 1.016 1_556 S
C28 H27 1.016 1_554 S
C28 N35 1.286 . S
C29 H24 0.930 . S
C29 C30 1.397 . S
C29 C31 1.361 . S
C30 C29 1.397 . S
C30 C34 1.390 . S
C31 C29 1.361 . S
C31 C32 1.393 . S
C31 N35 1.413 . S
C32 H25 0.930 1_554 S
C32 C31 1.393 . S
C32 C33 1.399 . S
C33 C32 1.399 . S
C33 C34 1.381 . S
C34 H26 0.930 . S
C34 C30 1.390 . S
C34 C33 1.381 . S
N35 C28 1.286 . S
N35 C31 1.413 . S
H36 C41 0.930 . S
H37 C44 0.930 . S
H38 C46 0.930 . S
H39 C40 1.016 . S
C40 H39 1.016 . S
C40 N47 1.286 . S
C41 H36 0.930 . S
C41 C42 1.397 . S
C41 C43 1.361 . S
C42 C41 1.397 . S
C42 C46 1.390 . S
C43 C41 1.361 . S
C43 C44 1.393 . S
C43 N47 1.413 . S
C44 H37 0.930 . S
C44 C43 1.393 . S
C44 C45 1.399 . S
C45 C44 1.399 . S
C45 C46 1.381 . S
C46 H38 0.930 . S
C46 C42 1.390 . S
C46 C45 1.381 . S
N47 C40 1.286 . S
N47 C43 1.413 . S
H48 C53 0.930 . S
H49 C56 0.930 . S
H50 C58 0.930 . S
H51 C52 1.016 . S
C52 H51 1.016 . S
C52 N59 1.286 . S
C53 H48 0.930 . S
C53 C54 1.397 . S
C53 C55 1.361 . S
C54 C53 1.397 . S
C54 C58 1.390 . S
C55 C53 1.361 . S
C55 C56 1.393 . S
C55 N59 1.413 . S
C56 H49 0.930 . S
C56 C55 1.393 . S
C56 C57 1.399 . S
C57 C56 1.399 . S
C57 C58 1.381 . S
C58 H50 0.930 . S
C58 C54 1.390 . S
C58 C57 1.381 . S
N59 C52 1.286 . S
N59 C55 1.413 . S
H60 C65 0.930 . S
H61 C68 0.930 . S
H62 C70 0.930 . S
H63 C64 1.016 . S
C64 H63 1.016 . S
C64 N71 1.286 . S
C65 H60 0.930 . S
C65 C66 1.397 . S
C65 C67 1.361 . S
C66 C65 1.397 . S
C66 C70 1.390 . S
C67 C65 1.361 . S
C67 C68 1.393 . S
C67 N71 1.413 . S
C68 H61 0.930 . S
C68 C67 1.393 . S
C68 C69 1.399 . S
C69 C68 1.399 . S
C69 C70 1.381 . S
C70 H62 0.930 . S
C70 C66 1.390 . S
C70 C69 1.381 . S
N71 C64 1.286 . S
N71 C67 1.413 . S
H72 C77 0.930 . S
H73 C80 0.930 . S
H74 C82 0.930 . S
H75 C76 1.016 . S
C76 H75 1.016 . S
C76 N83 1.286 . S
C77 H72 0.930 . S
C77 C78 1.397 . S
C77 C79 1.361 . S
C78 C77 1.397 . S
C78 C82 1.390 . S
C79 C77 1.361 . S
C79 C80 1.393 . S
C79 N83 1.413 . S
C80 H73 0.930 . S
C80 C79 1.393 . S
C80 C81 1.399 . S
C81 C80 1.399 . S
C81 C82 1.381 . S
C82 H74 0.930 . S
C82 C78 1.390 . S
C82 C81 1.381 . S
N83 C76 1.286 . S
N83 C79 1.413 . S
H84 C89 0.930 . S
H85 C92 0.930 . S
H86 C94 0.930 . S
H87 C88 1.016 . S
C88 H87 1.016 . S
C88 N95 1.286 . S
C89 H84 0.930 . S
C89 C90 1.397 . S
C89 C91 1.361 . S
C90 C89 1.397 . S
C90 C94 1.390 . S
C91 C89 1.361 . S
C91 C92 1.393 . S
C91 N95 1.413 . S
C92 H85 0.930 . S
C92 C91 1.393 . S
C92 C93 1.399 . S
C93 C92 1.399 . S
C93 C94 1.381 . S
C94 H86 0.930 . S
C94 C90 1.390 . S
C94 C93 1.381 . S
N95 C88 1.286 . S
N95 C91 1.413 . S
Nd96 C98 2.836 1_545 S
Nd96 O116 2.500 1_445 S
Nd96 O117 2.492 1_545 S
Nd96 O118 2.487 . S
Nd96 O119 2.682 . S
Nd96 O120 2.410 1_545 S
Nd96 O125 2.414 1_455 S
Nd96 O127 2.424 . S
Nd97 C107 2.836 . S
Nd97 O119 2.414 1_554 S
Nd97 O121 2.424 1_545 S
Nd97 O122 2.500 . S
Nd97 O123 2.492 . S
Nd97 O124 2.487 1_455 S
Nd97 O125 2.682 1_454 S
Nd97 O126 2.410 1_554 S
C98 Nd96 2.836 1_565 S
C98 C99 1.498 . S
C98 O116 1.258 1_455 S
C98 O117 1.239 . S
C99 C98 1.498 . S
C99 C100 1.366 1_455 S
C99 C104 1.407 . S
C100 C99 1.366 1_655 S
C100 C101 1.392 . S
C100 H128 0.930 . S
C101 C100 1.392 . S
C101 C102 1.398 1_655 S
C101 H129 0.929 . S
C102 C101 1.398 1_455 S
C102 C103 1.352 . S
C103 C102 1.352 . S
C103 C104 1.384 . S
C103 H130 0.930 . S
C104 C99 1.407 . S
C104 C103 1.384 . S
C104 H131 0.929 . S
C105 O118 1.241 . S
C105 O119 1.273 . S
C106 O120 1.251 . S
C106 O121 1.268 1_556 S
C107 Nd97 2.836 . S
C107 C108 1.498 . S
C107 O122 1.258 . S
C107 O123 1.239 . S
C108 C107 1.498 . S
C108 C109 1.366 . S
C108 C113 1.407 . S
C109 C108 1.366 . S
C109 C110 1.392 . S
C109 H132 0.930 . S
C110 C109 1.392 . S
C110 C111 1.398 . S
C110 H133 0.929 . S
C111 C110 1.398 . S
C111 C112 1.352 . S
C112 C111 1.352 . S
C112 C113 1.384 . S
C112 H134 0.930 . S
C113 C108 1.407 . S
C113 C112 1.384 . S
C113 H135 0.929 . S
C114 O124 1.241 1_556 S
C114 O125 1.273 . S
C115 O126 1.251 . S
C115 O127 1.268 . S
O116 Nd96 2.500 1_665 S
O116 C98 1.258 1_655 S
O117 Nd96 2.492 1_565 S
O117 C98 1.239 . S
O118 Nd96 2.487 . S
O118 C105 1.241 . S
O119 Nd96 2.682 . S
O119 Nd97 2.414 1_556 S
O119 C105 1.273 . S
O120 Nd96 2.410 1_565 S
O120 C106 1.251 . S
O121 Nd97 2.424 1_565 S
O121 C106 1.268 1_554 S
O122 Nd97 2.500 . S
O122 C107 1.258 . S
O123 Nd97 2.492 . S
O123 C107 1.239 . S
O124 Nd97 2.487 1_655 S
O124 C114 1.241 1_554 S
O125 Nd96 2.414 1_655 S
O125 Nd97 2.682 1_656 S
O125 C114 1.273 . S
O126 Nd97 2.410 1_556 S
O126 C115 1.251 . S
O127 Nd96 2.424 . S
O127 C115 1.268 . S
H128 C100 0.930 . S
H129 C101 0.929 . S
H130 C103 0.930 . S
H131 C104 0.929 . S
H132 C109 0.930 . S
H133 C110 0.929 . S
H134 C112 0.930 . S
H135 C113 0.929 . S
Nd136 C138 2.836 1_545 S
Nd136 O156 2.500 1_545 S
Nd136 O157 2.492 . S
Nd136 O158 2.487 . S
Nd136 O159 2.682 . S
Nd136 O160 2.410 . S
Nd136 O165 2.414 1_545 S
Nd136 O167 2.424 . S
Nd137 C147 2.836 . S
Nd137 O159 2.414 1_554 S
Nd137 O161 2.424 1_554 S
Nd137 O162 2.500 . S
Nd137 O163 2.492 . S
Nd137 O164 2.487 1_545 S
Nd137 O165 2.682 1_544 S
Nd137 O166 2.410 1_554 S
C138 Nd136 2.836 1_565 S
C138 C139 1.498 . S
C138 O156 1.258 . S
C138 O157 1.239 1_565 S
C139 C138 1.498 . S
C139 C140 1.366 . S
C139 C144 1.407 . S
C140 C139 1.366 . S
C140 C141 1.392 . S
C140 H168 0.930 . S
C141 C140 1.392 . S
C141 C142 1.398 . S
C141 H169 0.929 . S
C142 C141 1.398 . S
C142 C143 1.352 . S
C143 C142 1.352 . S
C143 C144 1.384 . S
C143 H170 0.930 . S
C144 C139 1.407 . S
C144 C143 1.384 . S
C144 H171 0.929 1_565 S
C145 O158 1.241 . S
C145 O159 1.273 . S
C146 O160 1.251 . S
C146 O161 1.268 . S
C147 Nd137 2.836 . S
C147 C148 1.498 . S
C147 O162 1.258 . S
C147 O163 1.239 . S
C148 C147 1.498 . S
C148 C149 1.366 . S
C148 C153 1.407 . S
C149 C148 1.366 . S
C149 C150 1.392 . S
C149 H172 0.930 . S
C150 C149 1.392 . S
C150 C151 1.398 . S
C150 H173 0.929 . S
C151 C150 1.398 . S
C151 C152 1.352 . S
C152 C151 1.352 . S
C152 C153 1.384 . S
C152 H174 0.930 . S
C153 C148 1.407 . S
C153 C152 1.384 . S
C153 H175 0.929 . S
C154 O164 1.241 . S
C154 O165 1.273 1_554 S
C155 O166 1.251 . S
C155 O167 1.268 . S
O156 Nd136 2.500 1_565 S
O156 C138 1.258 . S
O157 Nd136 2.492 . S
O157 C138 1.239 1_545 S
O158 Nd136 2.487 . S
O158 C145 1.241 . S
O159 Nd136 2.682 . S
O159 Nd137 2.414 1_556 S
O159 C145 1.273 . S
O160 Nd136 2.410 . S
O160 C146 1.251 . S
O161 Nd137 2.424 1_556 S
O161 C146 1.268 . S
O162 Nd137 2.500 . S
O162 C147 1.258 . S
O163 Nd137 2.492 . S
O163 C147 1.239 . S
O164 Nd137 2.487 1_565 S
O164 C154 1.241 . S
O165 Nd136 2.414 1_565 S
O165 Nd137 2.682 1_566 S
O165 C154 1.273 1_556 S
O166 Nd137 2.410 1_556 S
O166 C155 1.251 . S
O167 Nd136 2.424 . S
O167 C155 1.268 . S
H168 C140 0.930 . S
H169 C141 0.929 . S
H170 C143 0.930 . S
H171 C144 0.929 1_545 S
H172 C149 0.930 . S
H173 C150 0.929 . S
H174 C152 0.930 . S
H175 C153 0.929 . S
Nd176 C178 2.836 . S
Nd176 O196 2.500 . S
Nd176 O197 2.492 . S
Nd176 O198 2.487 1_554 S
Nd176 O199 2.682 1_554 S
Nd176 O200 2.410 1_554 S
Nd176 O205 2.414 1_554 S
Nd176 O207 2.424 . S
Nd177 C187 2.836 . S
Nd177 O199 2.414 . S
Nd177 O201 2.424 . S
Nd177 O202 2.500 . S
Nd177 O203 2.492 . S
Nd177 O204 2.487 . S
Nd177 O205 2.682 . S
Nd177 O206 2.410 . S
C178 Nd176 2.836 . S
C178 C179 1.498 . S
C178 O196 1.258 . S
C178 O197 1.239 . S
C179 C178 1.498 . S
C179 C180 1.366 . S
C179 C184 1.407 . S
C180 C179 1.366 . S
C180 C181 1.392 . S
C180 H208 0.930 . S
C181 C180 1.392 . S
C181 C182 1.398 . S
C181 H209 0.929 . S
C182 C181 1.398 . S
C182 C183 1.352 . S
C183 C182 1.352 . S
C183 C184 1.384 . S
C183 H210 0.930 . S
C184 C179 1.407 . S
C184 C183 1.384 . S
C184 H211 0.929 . S
C185 O198 1.241 . S
C185 O199 1.273 . S
C186 O200 1.251 . S
C186 O201 1.268 . S
C187 Nd177 2.836 . S
C187 C188 1.498 . S
C187 O202 1.258 . S
C187 O203 1.239 . S
C188 C187 1.498 . S
C188 C189 1.366 . S
C188 C193 1.407 . S
C189 C188 1.366 . S
C189 C190 1.392 . S
C189 H212 0.930 . S
C190 C189 1.392 . S
C190 C191 1.398 . S
C190 H213 0.929 . S
C191 C190 1.398 . S
C191 C192 1.352 . S
C192 C191 1.352 . S
C192 C193 1.384 . S
C192 H214 0.930 . S
C193 C188 1.407 . S
C193 C192 1.384 . S
C193 H215 0.929 . S
C194 O204 1.241 . S
C194 O205 1.273 . S
C195 O206 1.251 . S
C195 O207 1.268 1_556 S
O196 Nd176 2.500 . S
O196 C178 1.258 . S
O197 Nd176 2.492 . S
O197 C178 1.239 . S
O198 Nd176 2.487 1_556 S
O198 C185 1.241 . S
O199 Nd176 2.682 1_556 S
O199 Nd177 2.414 . S
O199 C185 1.273 . S
O200 Nd176 2.410 1_556 S
O200 C186 1.251 . S
O201 Nd177 2.424 . S
O201 C186 1.268 . S
O202 Nd177 2.500 . S
O202 C187 1.258 . S
O203 Nd177 2.492 . S
O203 C187 1.239 . S
O204 Nd177 2.487 . S
O204 C194 1.241 . S
O205 Nd176 2.414 1_556 S
O205 Nd177 2.682 . S
O205 C194 1.273 . S
O206 Nd177 2.410 . S
O206 C195 1.251 . S
O207 Nd176 2.424 . S
O207 C195 1.268 1_554 S
H208 C180 0.930 . S
H209 C181 0.929 . S
H210 C183 0.930 . S
H211 C184 0.929 . S
H212 C189 0.930 . S
H213 C190 0.929 . S
H214 C192 0.930 . S
H215 C193 0.929 . S
Nd216 C218 2.836 1_455 S
Nd216 O236 2.500 1_455 S
Nd216 O237 2.492 1_455 S
Nd216 O238 2.487 . S
Nd216 O239 2.682 . S
Nd216 O240 2.410 1_455 S
Nd216 O245 2.414 . S
Nd216 O247 2.424 . S
Nd217 C227 2.836 . S
Nd217 O239 2.414 1_554 S
Nd217 O241 2.424 1_454 S
Nd217 O242 2.500 . S
Nd217 O243 2.492 . S
Nd217 O244 2.487 . S
Nd217 O245 2.682 1_554 S
Nd217 O246 2.410 1_554 S
C218 Nd216 2.836 1_655 S
C218 C219 1.498 . S
C218 O236 1.258 . S
C218 O237 1.239 . S
C219 C218 1.498 . S
C219 C220 1.366 . S
C219 C224 1.407 . S
C220 C219 1.366 . S
C220 C221 1.392 . S
C220 H248 0.930 . S
C221 C220 1.392 . S
C221 C222 1.398 . S
C221 H249 0.929 . S
C222 C221 1.398 . S
C222 C223 1.352 . S
C223 C222 1.352 . S
C223 C224 1.384 . S
C223 H250 0.930 . S
C224 C219 1.407 . S
C224 C223 1.384 . S
C224 H251 0.929 . S
C225 O238 1.241 . S
C225 O239 1.273 . S
C226 O240 1.251 . S
C226 O241 1.268 . S
C227 Nd217 2.836 . S
C227 C228 1.498 . S
C227 O242 1.258 . S
C227 O243 1.239 . S
C228 C227 1.498 . S
C228 C229 1.366 . S
C228 C233 1.407 . S
C229 C228 1.366 . S
C229 C230 1.392 . S
C229 H252 0.930 . S
C230 C229 1.392 . S
C230 C231 1.398 . S
C230 H253 0.929 . S
C231 C230 1.398 . S
C231 C232 1.352 . S
C232 C231 1.352 . S
C232 C233 1.384 . S
C232 H254 0.930 . S
C233 C228 1.407 . S
C233 C232 1.384 . S
C233 H255 0.929 . S
C234 O244 1.241 1_556 S
C234 O245 1.273 . S
C235 O246 1.251 . S
C235 O247 1.268 . S
O236 Nd216 2.500 1_655 S
O236 C218 1.258 . S
O237 Nd216 2.492 1_655 S
O237 C218 1.239 . S
O238 Nd216 2.487 . S
O238 C225 1.241 . S
O239 Nd216 2.682 . S
O239 Nd217 2.414 1_556 S
O239 C225 1.273 . S
O240 Nd216 2.410 1_655 S
O240 C226 1.251 . S
O241 Nd217 2.424 1_656 S
O241 C226 1.268 . S
O242 Nd217 2.500 . S
O242 C227 1.258 . S
O243 Nd217 2.492 . S
O243 C227 1.239 . S
O244 Nd217 2.487 . S
O244 C234 1.241 1_554 S
O245 Nd216 2.414 . S
O245 Nd217 2.682 1_556 S
O245 C234 1.273 . S
O246 Nd217 2.410 1_556 S
O246 C235 1.251 . S
O247 Nd216 2.424 . S
O247 C235 1.268 . S
H248 C220 0.930 . S
H249 C221 0.929 . S
H250 C223 0.930 . S
H251 C224 0.929 . S
H252 C229 0.930 . S
H253 C230 0.929 . S
H254 C232 0.930 . S
H255 C233 0.929 . S
H256 C262 0.930 . S
H257 C266 0.930 . S
H258 C271 0.929 . S
H259 C269 0.929 . S
H260 C264 0.929 . S
H261 C270 0.929 . S
C262 H256 0.930 . S
C262 C263 1.367 . S
C262 C270 1.378 . S
C263 C262 1.367 . S
C263 C271 1.433 . S
C264 H260 0.929 . S
C264 C266 1.378 . S
C264 C268 1.350 . S
C265 C268 1.463 . S
C265 C270 1.350 . S
C265 N273 1.427 . S
C266 H257 0.930 . S
C266 C264 1.378 . S
C266 C267 1.367 . S
C267 C266 1.367 . S
C267 C269 1.433 . S
C268 C264 1.350 . S
C268 C265 1.463 . S
C268 N272 1.427 . S
C269 H259 0.929 . S
C269 C267 1.433 . S
C269 N272 1.384 . S
C270 H261 0.929 . S
C270 C262 1.378 . S
C270 C265 1.350 . S
C271 H258 0.929 . S
C271 C263 1.433 . S
C271 N273 1.384 . S
N272 C268 1.427 . S
N272 C269 1.384 . S
N273 C265 1.427 . S
N273 C271 1.384 . S
H274 C280 0.930 . S
H275 C284 0.930 . S
H276 C289 0.929 . S
H277 C287 0.929 . S
H278 C282 0.929 . S
H279 C288 0.929 . S
C280 H274 0.930 . S
C280 C281 1.367 . S
C280 C288 1.378 . S
C281 C280 1.367 . S
C281 C289 1.433 . S
C282 H278 0.929 . S
C282 C284 1.378 . S
C282 C286 1.350 . S
C283 C286 1.463 . S
C283 C288 1.350 . S
C283 N291 1.427 . S
C284 H275 0.930 . S
C284 C282 1.378 . S
C284 C285 1.367 . S
C285 C284 1.367 . S
C285 C287 1.433 . S
C286 C282 1.350 . S
C286 C283 1.463 . S
C286 N290 1.427 . S
C287 H277 0.929 . S
C287 C285 1.433 . S
C287 N290 1.384 . S
C288 H279 0.929 . S
C288 C280 1.378 . S
C288 C283 1.350 . S
C289 H276 0.929 . S
C289 C281 1.433 . S
C289 N291 1.384 . S
N290 C286 1.427 . S
N290 C287 1.384 . S
N291 C283 1.427 . S
N291 C289 1.384 . S
H292 C298 0.930 . S
H293 C302 0.930 . S
H294 C307 0.929 . S
H295 C305 0.929 1_554 S
H296 C300 0.929 . S
H297 C306 0.929 . S
C298 H292 0.930 . S
C298 C299 1.367 . S
C298 C306 1.378 . S
C299 C298 1.367 . S
C299 C307 1.433 . S
C300 H296 0.929 . S
C300 C302 1.378 . S
C300 C304 1.350 . S
C301 C304 1.463 . S
C301 C306 1.350 . S
C301 N309 1.427 . S
C302 H293 0.930 . S
C302 C300 1.378 . S
C302 C303 1.367 . S
C303 C302 1.367 . S
C303 C305 1.433 . S
C304 C300 1.350 . S
C304 C301 1.463 . S
C304 N308 1.427 . S
C305 H295 0.929 1_556 S
C305 C303 1.433 . S
C305 N308 1.384 . S
C306 H297 0.929 . S
C306 C298 1.378 . S
C306 C301 1.350 . S
C307 H294 0.929 . S
C307 C299 1.433 . S
C307 N309 1.384 . S
N308 C304 1.427 . S
N308 C305 1.384 . S
N309 C301 1.427 . S
N309 C307 1.384 . S
H310 C316 0.930 . S
H311 C320 0.930 . S
H312 C325 0.929 . S
H313 C323 0.929 . S
H314 C318 0.929 . S
H315 C324 0.929 . S
C316 H310 0.930 . S
C316 C317 1.367 . S
C316 C324 1.378 . S
C317 C316 1.367 . S
C317 C325 1.433 . S
C318 H314 0.929 . S
C318 C320 1.378 . S
C318 C322 1.350 . S
C319 C322 1.463 . S
C319 C324 1.350 . S
C319 N327 1.427 . S
C320 H311 0.930 . S
C320 C318 1.378 . S
C320 C321 1.367 . S
C321 C320 1.367 . S
C321 C323 1.433 . S
C322 C318 1.350 . S
C322 C319 1.463 . S
C322 N326 1.427 . S
C323 H313 0.929 . S
C323 C321 1.433 . S
C323 N326 1.384 . S
C324 H315 0.929 . S
C324 C316 1.378 . S
C324 C319 1.350 . S
C325 H312 0.929 . S
C325 C317 1.433 . S
C325 N327 1.384 . S
N326 C322 1.427 . S
N326 C323 1.384 . S
N327 C319 1.427 . S
N327 C325 1.384 . S
H328 C334 0.930 . S
H329 C338 0.930 . S
H330 C343 0.929 . S
H331 C341 0.929 . S
H332 C336 0.929 . S
H333 C342 0.929 . S
C334 H328 0.930 . S
C334 C335 1.367 . S
C334 C342 1.378 . S
C335 C334 1.367 . S
C335 C343 1.433 1_554 S
C336 H332 0.929 . S
C336 C338 1.378 . S
C336 C340 1.350 . S
C337 C340 1.461 1_554 S
C337 C342 1.359 . S
C337 N345 1.420 1_554 S
C338 H329 0.930 . S
C338 C336 1.378 . S
C338 C339 1.367 . S
C339 C338 1.367 . S
C339 C341 1.433 1_566 S
C340 C336 1.350 . S
C340 C337 1.461 1_556 S
C340 N344 1.427 1_556 S
C341 H331 0.929 . S
C341 C339 1.433 1_544 S
C341 N344 1.384 1_545 S
C342 H333 0.929 . S
C342 C334 1.378 . S
C342 C337 1.359 . S
C343 H330 0.929 . S
C343 C335 1.433 1_556 S
C343 N345 1.384 . S
N344 C340 1.427 1_554 S
N344 C341 1.384 1_565 S
N345 C337 1.420 1_556 S
N345 C343 1.384 . S
H346 C352 0.930 . S
H347 C356 0.930 . S
H348 C361 0.929 . S
H349 C359 0.929 1_556 S
H350 C354 0.929 . S
H351 C360 0.929 . S
C352 H346 0.930 . S
C352 C353 1.367 . S
C352 C360 1.378 . S
C353 C352 1.367 . S
C353 C361 1.433 . S
C354 H350 0.929 . S
C354 C356 1.378 . S
C354 C358 1.350 . S
C355 C358 1.463 . S
C355 C360 1.350 . S
C355 N363 1.427 . S
C356 H347 0.930 . S
C356 C354 1.378 . S
C356 C357 1.367 . S
C357 C356 1.367 . S
C357 C359 1.433 . S
C358 C354 1.350 . S
C358 C355 1.463 . S
C358 N362 1.427 . S
C359 H349 0.929 1_554 S
C359 C357 1.433 . S
C359 N362 1.384 . S
C360 H351 0.929 . S
C360 C352 1.378 . S
C360 C355 1.350 . S
C361 H348 0.929 . S
C361 C353 1.433 . S
C361 N363 1.384 . S
N362 C358 1.427 . S
N362 C359 1.384 . S
N363 C355 1.427 . S
N363 C361 1.384 . S
H364 C370 0.930 . S
H365 C374 0.930 . S
H366 C379 0.929 . S
H367 C377 0.929 . S
H368 C372 0.929 . S
H369 C378 0.929 . S
C370 H364 0.930 . S
C370 C371 1.367 1_554 S
C370 C378 1.378 . S
C371 C370 1.367 1_556 S
C371 C379 1.433 . S
C372 H368 0.929 . S
C372 C374 1.378 . S
C372 C376 1.350 . S
C373 C376 1.463 . S
C373 C378 1.350 1_556 S
C373 N381 1.427 . S
C374 H365 0.930 . S
C374 C372 1.378 . S
C374 C375 1.367 . S
C375 C374 1.367 . S
C375 C377 1.433 1_556 S
C376 C372 1.350 . S
C376 C373 1.463 . S
C376 N380 1.427 1_556 S
C377 H367 0.929 . S
C377 C375 1.433 1_554 S
C377 N380 1.384 . S
C378 H369 0.929 . S
C378 C370 1.378 . S
C378 C373 1.350 1_554 S
C379 H366 0.929 . S
C379 C371 1.433 . S
C379 N381 1.384 . S
N380 C376 1.427 1_554 S
N380 C377 1.384 . S
N381 C373 1.427 . S
N381 C379 1.384 . S
H382 C388 0.930 1_556 S
H383 C392 0.930 1_655 S
H384 C397 0.929 . S
H385 C395 0.929 . S
H386 C390 0.923 1_655 S
H387 C396 0.929 . S
C388 H382 0.930 1_554 S
C388 C389 1.337 1_455 S
C388 C396 1.378 1_554 S
C389 C388 1.337 1_655 S
C389 C397 1.450 . S
C390 H386 0.923 1_455 S
C390 C392 1.380 . S
C390 C394 1.352 1_554 S
C391 C394 1.463 1_554 S
C391 C396 1.350 1_554 S
C391 N399 1.427 1_455 S
C392 H383 0.930 1_455 S
C392 C390 1.380 . S
C392 C393 1.367 1_554 S
C393 C392 1.367 1_556 S
C393 C395 1.433 . S
C394 C390 1.352 1_556 S
C394 C391 1.463 1_556 S
C394 N398 1.427 . S
C395 H385 0.929 . S
C395 C393 1.433 . S
C395 N398 1.384 . S
C396 H387 0.929 . S
C396 C388 1.378 1_556 S
C396 C391 1.350 1_556 S
C397 H384 0.929 . S
C397 C389 1.450 . S
C397 N399 1.384 . S
N398 C394 1.427 . S
N398 C395 1.384 . S
N399 C391 1.427 1_655 S
N399 C397 1.384 . S
H400 C406 0.930 . S
H401 C410 0.930 . S
H402 C415 0.929 . S
H403 C413 0.929 . S
H404 C408 0.929 . S
H405 C414 0.929 . S
C406 H400 0.930 . S
C406 C407 1.367 . S
C406 C414 1.378 . S
C407 C406 1.367 . S
C407 C415 1.433 . S
C408 H404 0.929 . S
C408 C410 1.378 . S
C408 C412 1.350 . S
C409 C412 1.463 . S
C409 C414 1.350 . S
C409 N417 1.427 . S
C410 H401 0.930 . S
C410 C408 1.378 . S
C410 C411 1.367 . S
C411 C410 1.367 . S
C411 C413 1.433 . S
C412 C408 1.350 . S
C412 C409 1.463 . S
C412 N416 1.427 . S
C413 H403 0.929 . S
C413 C411 1.433 . S
C413 N416 1.384 . S
C414 H405 0.929 . S
C414 C406 1.378 . S
C414 C409 1.350 . S
C415 H402 0.929 . S
C415 C407 1.433 . S
C415 N417 1.384 . S
N416 C412 1.427 . S
N416 C413 1.384 . S
N417 C409 1.427 . S
N417 C415 1.384 . S
H418 C424 0.930 . S
H419 C428 0.930 . S
H420 C433 0.929 . S
H421 C431 0.929 . S
H422 C426 0.929 . S
H423 C432 0.929 . S
C424 H418 0.930 . S
C424 C425 1.367 . S
C424 C432 1.378 . S
C425 C424 1.367 . S
C425 C433 1.433 . S
C426 H422 0.929 . S
C426 C428 1.378 . S
C426 C430 1.350 . S
C427 C430 1.463 . S
C427 C432 1.350 . S
C427 N435 1.427 . S
C428 H419 0.930 . S
C428 C426 1.378 . S
C428 C429 1.367 . S
C429 C428 1.367 . S
C429 C431 1.433 . S
C430 C426 1.350 . S
C430 C427 1.463 . S
C430 N434 1.427 . S
C431 H421 0.929 . S
C431 C429 1.433 . S
C431 N434 1.384 . S
C432 H423 0.929 . S
C432 C424 1.378 . S
C432 C427 1.350 . S
C433 H420 0.929 . S
C433 C425 1.433 . S
C433 N435 1.384 . S
N434 C430 1.427 . S
N434 C431 1.384 . S
N435 C427 1.427 . S
N435 C433 1.384 . S
H436 C442 0.930 . S
H437 C446 0.930 . S
H438 C451 0.929 . S
H439 C449 0.929 . S
H440 C444 0.929 . S
H441 C450 0.929 . S
C442 H436 0.930 . S
C442 C443 1.367 . S
C442 C450 1.378 . S
C443 C442 1.367 . S
C443 C451 1.433 . S
C444 H440 0.929 . S
C444 C446 1.378 . S
C444 C448 1.350 . S
C445 C448 1.463 . S
C445 C450 1.350 . S
C445 N453 1.427 . S
C446 H437 0.930 . S
C446 C444 1.378 . S
C446 C447 1.367 . S
C447 C446 1.367 . S
C447 C449 1.433 . S
C448 C444 1.350 . S
C448 C445 1.463 . S
C448 N452 1.427 . S
C449 H439 0.929 . S
C449 C447 1.433 . S
C449 N452 1.384 . S
C450 H441 0.929 . S
C450 C442 1.378 . S
C450 C445 1.350 . S
C451 H438 0.929 . S
C451 C443 1.433 . S
C451 N453 1.384 . S
N452 C448 1.427 . S
N452 C449 1.384 . S
N453 C445 1.427 . S
N453 C451 1.384 . S
H454 C460 0.930 . S
H455 C464 0.930 . S
H456 C469 0.929 . S
H457 C467 0.929 . S
H458 C462 0.929 . S
H459 C468 0.929 . S
C460 H454 0.930 . S
C460 C461 1.367 . S
C460 C468 1.378 . S
C461 C460 1.367 . S
C461 C469 1.433 . S
C462 H458 0.929 . S
C462 C464 1.378 . S
C462 C466 1.350 . S
C463 C466 1.463 . S
C463 C468 1.350 . S
C463 N471 1.427 . S
C464 H455 0.930 . S
C464 C462 1.378 . S
C464 C465 1.367 . S
C465 C464 1.367 . S
C465 C467 1.433 . S
C466 C462 1.350 . S
C466 C463 1.463 . S
C466 N470 1.427 . S
C467 H457 0.929 . S
C467 C465 1.433 . S
C467 N470 1.384 . S
C468 H459 0.929 . S
C468 C460 1.378 . S
C468 C463 1.350 . S
C469 H456 0.929 . S
C469 C461 1.433 . S
C469 N471 1.384 . S
N470 C466 1.427 . S
N470 C467 1.384 . S
N471 C463 1.427 . S
N471 C469 1.384 . S
H472 C478 0.930 . S
H473 C482 0.930 . S
H474 C487 0.929 . S
H475 C485 0.929 1_655 S
H476 C480 0.929 . S
H477 C486 0.929 . S
C478 H472 0.930 . S
C478 C479 1.367 1_556 S
C478 C486 1.378 . S
C479 C478 1.367 1_554 S
C479 C487 1.433 1_655 S
C480 H476 0.929 . S
C480 C482 1.378 . S
C480 C484 1.350 1_554 S
C481 C484 1.463 1_554 S
C481 C486 1.350 1_454 S
C481 N489 1.427 . S
C482 H473 0.930 . S
C482 C480 1.378 . S
C482 C483 1.367 1_554 S
C483 C482 1.367 1_556 S
C483 C485 1.433 . S
C484 C480 1.350 1_556 S
C484 C481 1.463 1_556 S
C484 N488 1.426 . S
C485 H475 0.929 1_455 S
C485 C483 1.433 . S
C485 N488 1.384 . S
C486 H477 0.929 . S
C486 C478 1.378 . S
C486 C481 1.350 1_656 S
C487 H474 0.929 . S
C487 C479 1.433 1_455 S
C487 N489 1.384 . S
N488 C484 1.426 . S
N488 C485 1.384 . S
N489 C481 1.427 . S
N489 C487 1.384 . S
H490 C496 0.930 . S
H491 C500 0.930 . S
H492 C505 0.929 . S
H493 C503 0.929 . S
H494 C498 0.929 . S
H495 C504 0.929 . S
C496 H490 0.930 . S
C496 C497 1.367 . S
C496 C504 1.378 . S
C497 C496 1.367 . S
C497 C505 1.433 1_554 S
C498 H494 0.929 . S
C498 C500 1.378 . S
C498 C502 1.350 . S
C499 C502 1.463 . S
C499 C504 1.350 1_556 S
C499 N507 1.427 . S
C500 H491 0.930 . S
C500 C498 1.378 . S
C500 C501 1.367 1_565 S
C501 C500 1.367 1_545 S
C501 C503 1.433 1_556 S
C502 C498 1.350 . S
C502 C499 1.463 . S
C502 N506 1.427 1_556 S
C503 H493 0.929 . S
C503 C501 1.433 1_554 S
C503 N506 1.384 1_545 S
C504 H495 0.929 . S
C504 C496 1.378 . S
C504 C499 1.350 1_554 S
C505 H492 0.929 . S
C505 C497 1.433 1_556 S
C505 N507 1.384 . S
N506 C502 1.427 1_554 S
N506 C503 1.384 1_565 S
N507 C499 1.427 . S
N507 C505 1.384 . S
H508 C514 0.930 . S
H509 C518 0.930 . S
H510 C523 0.929 . S
H511 C521 0.929 . S
H512 C516 0.929 . S
H513 C522 0.929 . S
C514 H508 0.930 . S
C514 C515 1.367 . S
C514 C522 1.378 . S
C515 C514 1.367 . S
C515 C523 1.433 . S
C516 H512 0.929 . S
C516 C518 1.378 . S
C516 C520 1.350 . S
C517 C520 1.463 . S
C517 C522 1.350 . S
C517 N525 1.427 . S
C518 H509 0.930 . S
C518 C516 1.378 . S
C518 C519 1.367 . S
C519 C518 1.367 . S
C519 C521 1.433 . S
C520 C516 1.350 . S
C520 C517 1.463 . S
C520 N524 1.427 . S
C521 H511 0.929 . S
C521 C519 1.433 . S
C521 N524 1.384 . S
C522 H513 0.929 . S
C522 C514 1.378 . S
C522 C517 1.350 . S
C523 H510 0.929 . S
C523 C515 1.433 . S
C523 N525 1.384 . S
N524 C520 1.427 . S
N524 C521 1.384 . S
N525 C517 1.427 . S
N525 C523 1.384 . S
H526 C532 0.930 1_554 S
H527 C536 0.930 . S
H528 C541 0.929 . S
H529 C539 0.929 . S
H530 C534 0.929 . S
H531 C540 0.929 1_554 S
C532 H526 0.930 1_556 S
C532 C533 1.367 . S
C532 C540 1.378 . S
C533 C532 1.367 . S
C533 C541 1.433 . S
C534 H530 0.929 . S
C534 C536 1.378 . S
C534 C538 1.350 . S
C535 C538 1.463 . S
C535 C540 1.350 . S
C535 N543 1.427 . S
C536 H527 0.930 . S
C536 C534 1.378 . S
C536 C537 1.367 . S
C537 C536 1.367 . S
C537 C539 1.433 1_556 S
C538 C534 1.350 . S
C538 C535 1.463 . S
C538 N542 1.427 1_556 S
C539 H529 0.929 . S
C539 C537 1.433 1_554 S
C539 N542 1.384 . S
C540 H531 0.929 1_556 S
C540 C532 1.378 . S
C540 C535 1.350 . S
C541 H528 0.929 . S
C541 C533 1.433 . S
C541 N543 1.384 . S
N542 C538 1.427 1_554 S
N542 C539 1.384 . S
N543 C535 1.427 . S
N543 C541 1.384 . S
H544 C550 0.930 . S
H545 C554 0.930 . S
H546 C559 0.929 . S
H547 C557 0.929 . S
H548 C552 0.929 . S
H549 C558 0.929 . S
C550 H544 0.930 . S
C550 C551 1.367 . S
C550 C558 1.378 . S
C551 C550 1.367 . S
C551 C559 1.433 . S
C552 H548 0.929 . S
C552 C554 1.378 . S
C552 C556 1.350 . S
C553 C556 1.463 . S
C553 C558 1.350 . S
C553 N561 1.427 . S
C554 H545 0.930 . S
C554 C552 1.378 . S
C554 C555 1.367 . S
C555 C554 1.367 . S
C555 C557 1.433 . S
C556 C552 1.350 . S
C556 C553 1.463 . S
C556 N560 1.427 . S
C557 H547 0.929 . S
C557 C555 1.433 . S
C557 N560 1.384 . S
C558 H549 0.929 . S
C558 C550 1.378 . S
C558 C553 1.350 . S
C559 H546 0.929 . S
C559 C551 1.433 . S
C559 N561 1.384 . S
N560 C556 1.427 . S
N560 C557 1.384 . S
N561 C553 1.427 . S
N561 C559 1.384 . S
H562 C568 0.930 . S
H563 C572 0.930 . S
H564 C577 0.929 . S
H565 C575 0.929 . S
H566 C570 0.929 . S
H567 C576 0.929 . S
C568 H562 0.930 . S
C568 C569 1.367 . S
C568 C576 1.378 . S
C569 C568 1.367 . S
C569 C577 1.433 . S
C570 H566 0.929 . S
C570 C572 1.378 . S
C570 C574 1.350 . S
C571 C574 1.463 . S
C571 C576 1.350 . S
C571 N579 1.427 . S
C572 H563 0.930 . S
C572 C570 1.378 . S
C572 C573 1.367 . S
C573 C572 1.367 . S
C573 C575 1.433 . S
C574 C570 1.350 . S
C574 C571 1.463 . S
C574 N578 1.427 . S
C575 H565 0.929 . S
C575 C573 1.433 . S
C575 N578 1.384 . S
C576 H567 0.929 . S
C576 C568 1.378 . S
C576 C571 1.350 . S
C577 H564 0.929 . S
C577 C569 1.433 . S
C577 N579 1.384 . S
N578 C574 1.427 . S
N578 C575 1.384 . S
N579 C571 1.427 . S
N579 C577 1.384 . S
H580 C586 0.930 . S
H581 C590 0.930 1_556 S
H582 C595 0.929 . S
H583 C593 0.929 . S
H584 C588 0.929 . S
H585 C594 0.929 . S
C586 H580 0.930 . S
C586 C587 1.367 . S
C586 C594 1.378 . S
C587 C586 1.367 . S
C587 C595 1.433 . S
C588 H584 0.929 . S
C588 C590 1.378 . S
C588 C592 1.350 . S
C589 C592 1.463 . S
C589 C594 1.350 . S
C589 N597 1.427 . S
C590 H581 0.930 1_554 S
C590 C588 1.378 . S
C590 C591 1.367 . S
C591 C590 1.367 . S
C591 C593 1.433 . S
C592 C588 1.350 . S
C592 C589 1.463 . S
C592 N596 1.427 . S
C593 H583 0.929 . S
C593 C591 1.433 . S
C593 N596 1.384 . S
C594 H585 0.929 . S
C594 C586 1.378 . S
C594 C589 1.350 . S
C595 H582 0.929 . S
C595 C587 1.433 . S
C595 N597 1.384 . S
N596 C592 1.427 . S
N596 C593 1.384 . S
N597 C589 1.427 . S
N597 C595 1.384 . S
H598 C604 0.930 . S
H599 C608 0.930 . S
H600 C613 0.929 . S
H601 C611 0.929 . S
H602 C606 0.929 . S
H603 C612 0.929 . S
C604 H598 0.930 . S
C604 C605 1.367 . S
C604 C612 1.378 . S
C605 C604 1.367 . S
C605 C613 1.433 . S
C606 H602 0.929 . S
C606 C608 1.378 . S
C606 C610 1.350 . S
C607 C610 1.463 . S
C607 C612 1.350 . S
C607 N615 1.427 . S
C608 H599 0.930 . S
C608 C606 1.378 . S
C608 C609 1.367 . S
C609 C608 1.367 . S
C609 C611 1.433 . S
C610 C606 1.350 . S
C610 C607 1.463 . S
C610 N614 1.427 . S
C611 H601 0.929 . S
C611 C609 1.433 . S
C611 N614 1.384 . S
C612 H603 0.929 . S
C612 C604 1.378 . S
C612 C607 1.350 . S
C613 H600 0.929 . S
C613 C605 1.433 . S
C613 N615 1.384 . S
N614 C610 1.427 . S
N614 C611 1.384 . S
N615 C607 1.427 . S
N615 C613 1.384 . S
H616 C622 0.930 . S
H617 C626 0.930 . S
H618 C631 0.929 . S
H619 C629 0.929 . S
H620 C624 0.929 . S
H621 C630 0.929 . S
C622 H616 0.930 . S
C622 C623 1.367 . S
C622 C630 1.378 . S
C623 C622 1.367 . S
C623 C631 1.433 1_655 S
C624 H620 0.929 . S
C624 C626 1.378 . S
C624 C628 1.335 1_455 S
C625 C628 1.462 . S
C625 C630 1.350 . S
C625 N633 1.427 1_655 S
C626 H617 0.930 . S
C626 C624 1.378 . S
C626 C627 1.367 . S
C627 C626 1.367 . S
C627 C629 1.433 1_455 S
C628 C624 1.335 1_655 S
C628 C625 1.462 . S
C628 N632 1.445 . S
C629 H619 0.929 . S
C629 C627 1.433 1_655 S
C629 N632 1.384 . S
C630 H621 0.929 . S
C630 C622 1.378 . S
C630 C625 1.350 . S
C631 H618 0.929 . S
C631 C623 1.433 1_455 S
C631 N633 1.384 . S
N632 C628 1.445 . S
N632 C629 1.384 . S
N633 C625 1.427 1_455 S
N633 C631 1.384 . S
H634 C640 0.930 . S
H635 C644 0.930 . S
H636 C649 0.929 . S
H637 C647 0.929 . S
H638 C642 0.929 . S
H639 C648 0.929 . S
C640 H634 0.930 . S
C640 C641 1.367 . S
C640 C648 1.378 . S
C641 C640 1.367 . S
C641 C649 1.433 . S
C642 H638 0.929 . S
C642 C644 1.378 . S
C642 C646 1.350 . S
C643 C646 1.463 . S
C643 C648 1.350 . S
C643 N651 1.427 . S
C644 H635 0.930 . S
C644 C642 1.378 . S
C644 C645 1.367 . S
C645 C644 1.367 . S
C645 C647 1.433 . S
C646 C642 1.350 . S
C646 C643 1.463 . S
C646 N650 1.427 . S
C647 H637 0.929 . S
C647 C645 1.433 . S
C647 N650 1.384 . S
C648 H639 0.929 . S
C648 C640 1.378 . S
C648 C643 1.350 . S
C649 H636 0.929 . S
C649 C641 1.433 . S
C649 N651 1.384 . S
N650 C646 1.427 . S
N650 C647 1.384 . S
N651 C643 1.427 . S
N651 C649 1.384 . S
H652 C658 0.930 . S
H653 C662 0.930 . S
H654 C667 0.929 . S
H655 C665 0.929 . S
H656 C660 0.929 . S
H657 C666 0.929 . S
C658 H652 0.930 . S
C658 C659 1.367 . S
C658 C666 1.378 . S
C659 C658 1.367 . S
C659 C667 1.433 . S
C660 H656 0.929 . S
C660 C662 1.378 . S
C660 C664 1.350 . S
C661 C664 1.463 . S
C661 C666 1.350 . S
C661 N669 1.427 . S
C662 H653 0.930 . S
C662 C660 1.378 . S
C662 C663 1.367 . S
C663 C662 1.367 . S
C663 C665 1.433 . S
C664 C660 1.350 . S
C664 C661 1.463 . S
C664 N668 1.427 . S
C665 H655 0.929 . S
C665 C663 1.433 . S
C665 N668 1.384 . S
C666 H657 0.929 . S
C666 C658 1.378 . S
C666 C661 1.350 . S
C667 H654 0.929 . S
C667 C659 1.433 . S
C667 N669 1.384 . S
N668 C664 1.427 . S
N668 C665 1.384 . S
N669 C661 1.427 . S
N669 C667 1.384 . S
H670 C676 0.930 . S
H671 C680 0.930 . S
H672 C685 0.929 . S
H673 C683 0.929 . S
H674 C678 0.929 . S
H675 C684 0.929 . S
C676 H670 0.930 . S
C676 C677 1.367 . S
C676 C684 1.378 . S
C677 C676 1.367 . S
C677 C685 1.433 . S
C678 H674 0.929 . S
C678 C680 1.378 . S
C678 C682 1.350 . S
C679 C682 1.463 . S
C679 C684 1.350 . S
C679 N687 1.427 . S
C680 H671 0.930 . S
C680 C678 1.378 . S
C680 C681 1.367 . S
C681 C680 1.367 . S
C681 C683 1.433 . S
C682 C678 1.350 . S
C682 C679 1.463 . S
C682 N686 1.427 . S
C683 H673 0.929 . S
C683 C681 1.433 . S
C683 N686 1.384 . S
C684 H675 0.929 . S
C684 C676 1.378 . S
C684 C679 1.350 . S
C685 H672 0.929 . S
C685 C677 1.433 . S
C685 N687 1.384 . S
N686 C682 1.427 . S
N686 C683 1.384 . S
N687 C679 1.427 . S
N687 C685 1.384 . S
C263 C76 1.675 . S
C267 C105 1.667 . S
C285 C145 1.317 . S
C281 C88 1.336 . S
C303 C194 1.319 . S
C299 C52 1.362 . S
C321 C225 1.671 . S
C317 C64 1.735 . S
C339 C114 1.665 1_565 S
C335 C28 1.689 . S
C353 C40 1.314 . S
C357 C154 1.295 . S
C371 C4 1.367 . S
C375 C185 1.328 . S
C389 C16 1.750 . S
C393 C234 1.655 . S
C411 C115 0.946 . S
C407 C69 0.884 . S
C429 C155 1.484 . S
C425 C81 1.350 . S
C447 C191 0.761 . S
C443 C93 0.775 . S
C461 C57 1.030 . S
C465 C235 1.139 . S
C479 C21 0.910 . S
C483 C106 0.946 . S
C501 C146 1.483 . S
C497 C33 1.309 . S
C519 C182 0.767 . S
C515 C45 0.770 . S
C533 C9 1.018 . S
C537 C226 1.136 . S
C551 C66 1.633 . S
C555 C111 1.663 . S
C569 C78 1.422 . S
C573 C151 1.423 . S
C591 C195 1.943 1_554 S
C587 C90 1.785 . S
C609 C231 1.427 . S
C605 C54 1.431 . S
C623 C18 1.624 . S
C627 C102 1.665 . S
C645 C142 1.417 . S
C641 C30 1.424 . S
C663 C186 1.945 . S
C659 C42 1.795 . S
C677 C6 1.428 . S
C681 C222 1.428 . S
