# Generated by pormake.
# Topology rtl, (3,6)-cn, num edge types: 1
# Building blocks:
#     Node 0, Type 0, BuildingBlock: KAKCAD_clean_linker_0, # of connection points: 3
#     Node 1, Type 0, BuildingBlock: KAKCAD_clean_linker_0, # of connection points: 3
#     Node 2, Type 0, BuildingBlock: KAKCAD_clean_linker_0, # of connection points: 3
#     Node 3, Type 0, BuildingBlock: KAKCAD_clean_linker_0, # of connection points: 3
#     Node 4, Type 1, BuildingBlock: FUNLAD_clean_sbu_0, # of connection points: 6
#     Node 5, Type 1, BuildingBlock: FUNLAD_clean_sbu_0, # of connection points: 6
#     Edge 6, Type (0, 1), BuildingBlock: XUDNAN_clean_linker_2, # of connection points: 2
#     Edge 7, Type (0, 1), BuildingBlock: XUDNAN_clean_linker_2, # of connection points: 2
#     Edge 8, Type (0, 1), BuildingBlock: XUDNAN_clean_linker_2, # of connection points: 2
#     Edge 9, Type (0, 1), BuildingBlock: XUDNAN_clean_linker_2, # of connection points: 2
#     Edge 10, Type (0, 1), BuildingBlock: XUDNAN_clean_linker_2, # of connection points: 2
#     Edge 11, Type (0, 1), BuildingBlock: XUDNAN_clean_linker_2, # of connection points: 2
#     Edge 12, Type (0, 1), BuildingBlock: XUDNAN_clean_linker_2, # of connection points: 2
#     Edge 13, Type (0, 1), BuildingBlock: XUDNAN_clean_linker_2, # of connection points: 2
#     Edge 14, Type (0, 1), BuildingBlock: XUDNAN_clean_linker_2, # of connection points: 2
#     Edge 15, Type (0, 1), BuildingBlock: XUDNAN_clean_linker_2, # of connection points: 2
#     Edge 16, Type (0, 1), BuildingBlock: XUDNAN_clean_linker_2, # of connection points: 2
#     Edge 17, Type (0, 1), BuildingBlock: XUDNAN_clean_linker_2, # of connection points: 2
# Relax obj value: 0.027
# Max RMSD: 0.092
# Mean RMSD: 0.078
data_MOF--net-rtl--node1-FUNLAD_clean_sbu_0--node2-KAKCAD_clean_linker_0--edge1-XUDNAN_clean_linker_2
_symmetry_space_group_name_H-M    P1
_symmetry_Int_Tables_number       1
_symmetry_cell_setting            triclinic
loop_
_symmetry_equiv_pos_as_xyz
'x, y, z'
_cell_length_a     49.112016
_cell_length_b     40.165913
_cell_length_c     28.366816
_cell_angle_alpha  89.825531
_cell_angle_beta   90.956361
_cell_angle_gamma 90.410112
loop_
_atom_site_label
_atom_site_type_symbol
_atom_site_fract_x
_atom_site_fract_y
_atom_site_fract_z
_atom_type_partial_charge
C0 C 0.10099 0.78238 0.8436 0.0
C1 C 0.08793 0.81336 0.84055 0.0
C2 C 0.11076 0.77045 0.88695 0.0
C3 C 0.10772 0.78927 0.92819 0.0
C4 C 0.09372 0.81967 0.92535 0.0
C5 C 0.08389 0.83154 0.88203 0.0
C6 C 0.12033 0.77828 0.97356 0.0
C7 C 0.14687 0.76536 0.97474 0.0
C8 C 0.15983 0.75703 0.01776 0.0
C9 C 0.14576 0.76205 0.05997 0.0
C10 C 0.11942 0.77561 0.05953 0.0
C11 C 0.10669 0.78289 0.01608 0.0
C12 C 0.10622 0.78495 0.10439 0.0
C13 C 0.10869 0.7648 0.14484 0.0
C14 C 0.09252 0.81549 0.1078 0.0
C15 C 0.08248 0.82617 0.15087 0.0
C16 C 0.08603 0.80671 0.19168 0.0
C17 C 0.18853 0.74489 0.01857 0.0
C18 C 0.19812 0.72434 0.98243 0.0
C19 C 0.20682 0.75442 0.05488 0.0
C20 C 0.23383 0.74368 0.0551 0.0
C21 C 0.24356 0.72362 0.01854 0.0
C22 C 0.22528 0.7141 0.9822 0.0
C23 C 0.09877 0.77561 0.18807 0.0
H24 H 0.10409 0.76762 0.81227 0.0
H25 H 0.12105 0.74668 0.8881 0.0
H26 H 0.09135 0.83504 0.95629 0.0
H27 H 0.07427 0.85572 0.88075 0.0
H28 H 0.1579 0.76331 0.94215 0.0
H29 H 0.08616 0.7926 0.01536 0.0
H30 H 0.15561 0.75631 0.09341 0.0
H31 H 0.11872 0.74091 0.14328 0.0
H32 H 0.09064 0.83195 0.07764 0.0
H33 H 0.07316 0.85049 0.15264 0.0
H34 H 0.18465 0.71606 0.95416 0.0
H35 H 0.2005 0.77068 0.08295 0.0
H36 H 0.10153 0.75994 0.21889 0.0
H37 H 0.23195 0.69906 0.95303 0.0
H38 H 0.24701 0.75109 0.08424 0.0
C39 C 0.60889 0.71215 0.67433 0.0
C40 C 0.61399 0.67789 0.67898 0.0
C41 C 0.61412 0.7286 0.63174 0.0
C42 C 0.62395 0.71081 0.59306 0.0
C43 C 0.62872 0.67653 0.5978 0.0
C44 C 0.62388 0.66029 0.64027 0.0
C45 C 0.6301 0.7275 0.54785 0.0
C46 C 0.64741 0.75542 0.5467 0.0
C47 C 0.6573 0.76729 0.50356 0.0
C48 C 0.64899 0.75183 0.4613 0.0
C49 C 0.63119 0.72435 0.462 0.0
C50 C 0.62161 0.71266 0.50535 0.0
C51 C 0.62492 0.70545 0.41837 0.0
C52 C 0.61659 0.72166 0.37666 0.0
C53 C 0.62761 0.67066 0.41839 0.0
C54 C 0.62208 0.6524 0.37766 0.0
C55 C 0.61367 0.66846 0.33594 0.0
C56 C 0.67932 0.79247 0.50341 0.0
C57 C 0.67564 0.82394 0.52342 0.0
C58 C 0.70487 0.78406 0.48588 0.0
C59 C 0.72669 0.80639 0.48946 0.0
C60 C 0.72332 0.83802 0.5098 0.0
C61 C 0.69733 0.84668 0.52603 0.0
C62 C 0.61078 0.70326 0.3358 0.0
H63 H 0.60129 0.72622 0.70379 0.0
H64 H 0.61033 0.75507 0.62888 0.0
H65 H 0.63664 0.66229 0.56874 0.0
H66 H 0.6277 0.6338 0.64275 0.0
H67 H 0.65492 0.76623 0.57945 0.0
H68 H 0.60819 0.69111 0.50619 0.0
H69 H 0.65742 0.7602 0.42819 0.0
H70 H 0.61434 0.74846 0.37581 0.0
H71 H 0.63433 0.65753 0.44987 0.0
H72 H 0.62419 0.62558 0.37894 0.0
H73 H 0.65602 0.83086 0.53713 0.0
H74 H 0.70823 0.75964 0.47099 0.0
H75 H 0.60442 0.71622 0.30399 0.0
H76 H 0.69368 0.87096 0.54103 0.0
H77 H 0.74638 0.79826 0.4776 0.0
C78 C 0.8987 0.15137 0.15243 0.0
C79 C 0.923 0.16717 0.16766 0.0
C80 C 0.88411 0.16335 0.11325 0.0
C81 C 0.89375 0.19096 0.08807 0.0
C82 C 0.91755 0.20727 0.10351 0.0
C83 C 0.93185 0.19578 0.14326 0.0
C84 C 0.88014 0.20112 0.04367 0.0
C85 C 0.85402 0.21484 0.04381 0.0
C86 C 0.84063 0.22335 0.0012 0.0
C87 C 0.85393 0.21758 0.95833 0.0
C88 C 0.88022 0.20386 0.95782 0.0
C89 C 0.89316 0.19588 0.00087 0.0
C90 C 0.89392 0.19654 0.91261 0.0
C91 C 0.8792 0.18302 0.87419 0.0
C92 C 0.92216 0.20144 0.90839 0.0
C93 C 0.93551 0.19189 0.86757 0.0
C94 C 0.92095 0.17746 0.82963 0.0
C95 C 0.81277 0.23795 0.00151 0.0
C96 C 0.79372 0.22767 0.03517 0.0
C97 C 0.80498 0.26237 0.96836 0.0
C98 C 0.77886 0.27598 0.96872 0.0
C99 C 0.7599 0.26593 0.0027 0.0
C100 C 0.76777 0.24166 0.03601 0.0
C101 C 0.89254 0.17369 0.83315 0.0
H102 H 0.89138 0.12901 0.16959 0.0
H103 H 0.86588 0.15026 0.10146 0.0
H104 H 0.92522 0.22872 0.08449 0.0
H105 H 0.95002 0.20919 0.15445 0.0
H106 H 0.84444 0.21929 0.07731 0.0
H107 H 0.91308 0.18441 0.00125 0.0
H108 H 0.84377 0.22353 0.92524 0.0
H109 H 0.85748 0.17863 0.87628 0.0
H110 H 0.93409 0.21228 0.93699 0.0
H111 H 0.95742 0.19489 0.86645 0.0
H112 H 0.79871 0.20858 0.06084 0.0
H113 H 0.81914 0.27132 0.94229 0.0
H114 H 0.88058 0.16317 0.80437 0.0
H115 H 0.75402 0.2336 0.06326 0.0
H116 H 0.77352 0.29423 0.94203 0.0
C117 C 0.38474 0.32031 0.33049 0.0
C118 C 0.41065 0.33406 0.32252 0.0
C119 C 0.37963 0.3024 0.37167 0.0
C120 C 0.40034 0.29773 0.40581 0.0
C121 C 0.4265 0.31053 0.39715 0.0
C122 C 0.43162 0.32849 0.35591 0.0
C123 C 0.39415 0.28133 0.45142 0.0
C124 C 0.37658 0.25362 0.45295 0.0
C125 C 0.36877 0.23996 0.49622 0.0
C126 C 0.37882 0.25384 0.53835 0.0
C127 C 0.39595 0.28199 0.53761 0.0
C128 C 0.40387 0.29522 0.49397 0.0
C129 C 0.40294 0.29994 0.5819 0.0
C130 C 0.38276 0.30563 0.61546 0.0
C131 C 0.42908 0.3136 0.58945 0.0
C132 C 0.43467 0.33333 0.62903 0.0
C133 C 0.41417 0.33993 0.66166 0.0
C134 C 0.34754 0.21384 0.49771 0.0
C135 C 0.32184 0.22 0.47749 0.0
C136 C 0.35211 0.1838 0.52174 0.0
C137 C 0.33113 0.16029 0.52578 0.0
C138 C 0.30498 0.16679 0.50686 0.0
C139 C 0.30072 0.19693 0.4824 0.0
C140 C 0.38832 0.32539 0.65486 0.0
H141 H 0.36826 0.32381 0.30516 0.0
H142 H 0.35917 0.2932 0.37744 0.0
H143 H 0.44294 0.30708 0.42259 0.0
H144 H 0.45175 0.33897 0.35098 0.0
H145 H 0.36855 0.24292 0.4205 0.0
H146 H 0.41614 0.31774 0.49313 0.0
H147 H 0.37221 0.24368 0.57175 0.0
H148 H 0.36232 0.29584 0.61042 0.0
H149 H 0.44507 0.30948 0.56433 0.0
H150 H 0.45475 0.34434 0.63321 0.0
H151 H 0.31779 0.24329 0.4594 0.0
H152 H 0.37188 0.17862 0.53752 0.0
H153 H 0.37221 0.32969 0.67971 0.0
H154 H 0.28083 0.2034 0.46831 0.0
H155 H 0.33543 0.13716 0.54402 0.0
C156 C 0.02996 0.9525 0.44552 0.0
N157 N 0.07552 0.02808 0.51048 0.0
C158 C 0.09583 0.00574 0.51837 0.0
C159 C 0.12286 0.01641 0.52191 0.0
C160 C 0.12908 0.05027 0.51635 0.0
C161 C 0.1079 0.07273 0.50695 0.0
C162 C 0.08105 0.06106 0.50454 0.0
Zn163 Zn 0.03618 0.01118 0.50941 0.0
C164 C 0.00219 0.04365 0.43603 0.0
N165 N 0.95481 0.97319 0.50832 0.0
C166 C 0.94917 0.93999 0.50634 0.0
C167 C 0.93455 0.99597 0.51183 0.0
C168 C 0.90747 0.98563 0.51499 0.0
C169 C 0.90113 0.95157 0.51362 0.0
C170 C 0.92226 0.92858 0.50853 0.0
Zn171 Zn 0.9942 0.99002 0.50848 0.0
O172 O 0.04696 0.97341 0.46243 0.0
C173 C 0.02908 0.95683 0.58009 0.0
O174 O 0.00505 0.95407 0.4568 0.0
H175 H 0.93939 0.02226 0.51282 0.0
H176 H 0.09109 0.97958 0.52242 0.0
H177 H 0.96558 0.92231 0.50377 0.0
O178 O 0.04553 0.97878 0.5652 0.0
O179 O 0.00498 0.95539 0.56311 0.0
H180 H 0.0646 0.07839 0.49848 0.0
O181 O 0.98442 0.02589 0.56028 0.0
O182 O 0.02504 0.04875 0.55751 0.0
O183 O 0.98418 0.02463 0.45367 0.0
O184 O 0.02641 0.04283 0.45243 0.0
C185 C 0.00116 0.04824 0.57403 0.0
H186 H 0.13876 0.99839 0.52877 0.0
H187 H 0.11201 0.09909 0.50275 0.0
H188 H 0.89163 0.00406 0.51847 0.0
H189 H 0.91808 0.90207 0.50766 0.0
C190 C 0.48163 0.4764 0.92628 0.0
N191 N 0.55433 0.45281 0.99832 0.0
C192 C 0.54735 0.42049 0.99006 0.0
C193 C 0.56722 0.39579 0.99033 0.0
C194 C 0.59459 0.40416 0.00019 0.0
C195 C 0.60115 0.43782 0.00853 0.0
C196 C 0.5807 0.46181 0.00698 0.0
Zn197 Zn 0.52448 0.48827 -0.00111 0.0
C198 C 0.53793 0.54542 0.93509 0.0
N199 N 0.46274 0.56308 0.00028 0.0
C200 C 0.43674 0.55158 0.00397 0.0
C201 C 0.46815 0.59631 0.99783 0.0
C202 C 0.44691 0.61935 -0.00075 0.0
C203 C 0.41983 0.60817 0.00404 0.0
C204 C 0.41505 0.57365 0.00653 0.0
Zn205 Zn 0.49327 0.52843 -0.0007 0.0
O206 O 0.50382 0.4645 0.94231 0.0
C207 C 0.48038 0.47125 0.06391 0.0
O208 O 0.47235 0.50293 0.94406 0.0
H209 H 0.48894 0.60499 0.99479 0.0
H210 H 0.52629 0.41375 0.98338 0.0
H211 H 0.43271 0.52511 0.00538 0.0
O212 O 0.50227 0.45949 0.04782 0.0
O213 O 0.47229 0.49961 0.04986 0.0
H214 H 0.58591 0.48764 0.01324 0.0
O215 O 0.51481 0.55351 0.05462 0.0
O216 O 0.5445 0.51289 0.0549 0.0
O217 O 0.51518 0.55646 0.94879 0.0
O218 O 0.54645 0.51758 0.95063 0.0
C219 C 0.53644 0.54042 0.07136 0.0
H220 H 0.56107 0.37042 0.98266 0.0
H221 H 0.62177 0.44564 0.01707 0.0
H222 H 0.45175 0.6456 0.99634 0.0
H223 H 0.3948 0.56354 0.01125 0.0
H224 H 0.2613 0.15368 0.44709 0.0
H225 H 0.29559 0.12688 0.58421 0.0
H226 H 0.25591 0.09074 0.59855 0.0
H227 H 0.19416 0.16243 0.48718 0.0
H228 H 0.17825 0.14667 0.43397 0.0
H229 H 0.211 0.16693 0.43151 0.0
H230 H 0.23117 0.11487 0.39156 0.0
H231 H 0.19843 0.09444 0.39378 0.0
H232 H 0.22797 0.07477 0.41974 0.0
H233 H 0.21138 0.05961 0.5999 0.0
H234 H 0.16432 0.03807 0.58944 0.0
H235 H 0.15756 0.08933 0.45507 0.0
C236 C 0.26062 0.14031 0.48023 0.0
C237 C 0.28189 0.14315 0.5143 0.0
C238 C 0.28005 0.12467 0.55687 0.0
C239 C 0.25744 0.10419 0.56558 0.0
C240 C 0.23667 0.10263 0.53163 0.0
C241 C 0.238 0.12032 0.48991 0.0
C242 C 0.21208 0.11635 0.46077 0.0
C243 C 0.19805 0.1501 0.45292 0.0
C244 C 0.21776 0.09907 0.41368 0.0
C245 C 0.19579 0.09405 0.49299 0.0
C246 C 0.21051 0.08596 0.53333 0.0
C247 C 0.19968 0.06571 0.56842 0.0
C248 C 0.17304 0.05357 0.56218 0.0
C249 C 0.15747 0.06219 0.52157 0.0
C250 C 0.16905 0.0826 0.48656 0.0
H251 H 0.26436 0.66424 0.98645 0.0
H252 H 0.289 0.75838 0.04981 0.0
H253 H 0.33663 0.73963 0.05213 0.0
H254 H 0.31024 0.61225 0.04859 0.0
H255 H 0.31727 0.58602 -0.00112 0.0
H256 H 0.28499 0.60673 0.00236 0.0
H257 H 0.29271 0.63395 0.92066 0.0
H258 H 0.32497 0.61315 0.9168 0.0
H259 H 0.32335 0.6578 0.91089 0.0
H260 H 0.3815 0.70929 0.05116 0.0
H261 H 0.42008 0.67094 0.04364 0.0
H262 H 0.36666 0.5996 0.97256 0.0
C263 C 0.2797 0.68128 0.00015 0.0
C264 C 0.2726 0.71277 0.01836 0.0
C265 C 0.29357 0.73382 0.03666 0.0
C266 C 0.32082 0.72353 0.03775 0.0
C267 C 0.32696 0.69232 0.01973 0.0
C268 C 0.30704 0.67168 0.00077 0.0
C269 C 0.31903 0.63945 0.98332 0.0
C270 C 0.30718 0.60934 0.00989 0.0
C271 C 0.31477 0.6359 0.92973 0.0
C272 C 0.34877 0.64499 0.99607 0.0
C273 C 0.35294 0.67555 0.01721 0.0
C274 C 0.37855 0.68549 0.03395 0.0
C275 C 0.40045 0.66355 0.02912 0.0
C276 C 0.39673 0.63205 0.00725 0.0
C277 C 0.37044 0.62312 0.99008 0.0
H278 H 0.76767 0.84551 0.45188 0.0
H279 H 0.7336 0.88237 0.58208 0.0
H280 H 0.77395 0.91817 0.59399 0.0
H281 H 0.83491 0.83812 0.49781 0.0
H282 H 0.85104 0.8498 0.44353 0.0
H283 H 0.81804 0.82999 0.44205 0.0
H284 H 0.79857 0.87929 0.39324 0.0
H285 H 0.83154 0.89925 0.3945 0.0
H286 H 0.80222 0.9211 0.41552 0.0
H287 H 0.81887 0.94851 0.59356 0.0
H288 H 0.86602 0.96889 0.5826 0.0
H289 H 0.87234 0.90838 0.45698 0.0
C290 C 0.76855 0.86096 0.48305 0.0
C291 C 0.74709 0.86108 0.51577 0.0
C292 C 0.74925 0.88224 0.55569 0.0
C293 C 0.77226 0.90255 0.56305 0.0
C294 C 0.79314 0.90126 0.53051 0.0
C295 C 0.79158 0.88085 0.49147 0.0
C296 C 0.81757 0.88238 0.46353 0.0
C297 C 0.83119 0.84803 0.46165 0.0
C298 C 0.81214 0.89635 0.41375 0.0
C299 C 0.83413 0.90656 0.4933 0.0
C300 C 0.81951 0.91756 0.53139 0.0
C301 C 0.8305 0.94011 0.56385 0.0
C302 C 0.85721 0.95158 0.55732 0.0
C303 C 0.87269 0.94009 0.51906 0.0
C304 C 0.86094 0.91734 0.48668 0.0
H305 H 0.74485 0.33045 0.98128 0.0
H306 H 0.71167 0.23502 0.02585 0.0
H307 H 0.66616 0.25999 0.03057 0.0
H308 H 0.70396 0.38223 0.05166 0.0
H309 H 0.69935 0.41386 0.00708 0.0
H310 H 0.72956 0.38871 0.00767 0.0
H311 H 0.71951 0.3708 0.92139 0.0
H312 H 0.68936 0.3961 0.9204 0.0
H313 H 0.68692 0.35244 0.90628 0.0
H314 H 0.62458 0.29592 0.03377 0.0
H315 H 0.58941 0.3392 0.03059 0.0
H316 H 0.64878 0.40956 0.9758 0.0
C317 C 0.72804 0.31454 0.99136 0.0
C318 C 0.73212 0.28072 0.00365 0.0
C319 C 0.70939 0.26115 0.01735 0.0
C320 C 0.68334 0.27504 0.01978 0.0
C321 C 0.68017 0.30843 0.00777 0.0
C322 C 0.70182 0.32783 0.99329 0.0
C323 C 0.69282 0.36294 0.98162 0.0
C324 C 0.70728 0.38843 0.01394 0.0
C325 C 0.69742 0.37103 0.92931 0.0
C326 C 0.66277 0.36032 0.99227 0.0
C327 C 0.65593 0.32873 0.00757 0.0
C328 C 0.62959 0.32062 0.02111 0.0
C329 C 0.60966 0.34542 0.01877 0.0
C330 C 0.61601 0.37796 0.00241 0.0
C331 C 0.64306 0.38522 0.98892 0.0
H332 H 0.03961 0.84033 0.21563 0.0
H333 H 0.11698 0.8055 0.27229 0.0
H334 H 0.10853 0.83492 0.34667 0.0
H335 H 0.04381 0.92021 0.2606 0.0
H336 H 0.00832 0.92411 0.27464 0.0
H337 H 0.01838 0.89668 0.22814 0.0
H338 H 0.99393 0.84731 0.26893 0.0
H339 H 0.98356 0.87469 0.31547 0.0
H340 H 0.00228 0.8374 0.32947 0.0
H341 H 0.09555 0.87457 0.40888 0.0
H342 H 0.07658 0.91844 0.45915 0.0
H343 H 0.00634 0.9262 0.36518 0.0
C344 C 0.05448 0.83837 0.2441 0.0
C345 C 0.07889 0.82046 0.23831 0.0
C346 C 0.09794 0.81856 0.27623 0.0
C347 C 0.09338 0.83533 0.31853 0.0
C348 C 0.0695 0.85351 0.32261 0.0
C349 C 0.05012 0.85473 0.2868 0.0
C350 C 0.02695 0.87767 0.29939 0.0
C351 C 0.02422 0.90636 0.26356 0.0
C352 C 1.00009 0.85809 0.30358 0.0
C353 C 0.03689 0.89013 0.34707 0.0
C354 C 0.06148 0.87576 0.35971 0.0
C355 C 0.07602 0.88543 0.39997 0.0
C356 C 0.06521 0.91047 0.42806 0.0
C357 C 0.03996 0.92528 0.41608 0.0
C358 C 0.02541 0.91467 0.37547 0.0
H359 H 0.56788 0.67835 0.73226 0.0
H360 H 0.64876 0.63619 0.72524 0.0
H361 H 0.63895 0.60053 0.79398 0.0
H362 H 0.56271 0.67623 0.86324 0.0
H363 H 0.52712 0.66501 0.86075 0.0
H364 H 0.54158 0.69011 0.81457 0.0
H365 H 0.52426 0.64739 0.75253 0.0
H366 H 0.51001 0.62203 0.79845 0.0
H367 H 0.53399 0.60435 0.75832 0.0
H368 H 0.61915 0.56562 0.85703 0.0
H369 H 0.59103 0.5347 0.91363 0.0
H370 H 0.52275 0.59948 0.88117 0.0
C371 C 0.58372 0.66226 0.74613 0.0
C372 C 0.60909 0.65998 0.7237 0.0
C373 C 0.62917 0.63812 0.74196 0.0
C374 C 0.62383 0.61791 0.78102 0.0
C375 C 0.59835 0.61998 0.80153 0.0
C376 C 0.57867 0.64177 0.7851 0.0
C377 C 0.55235 0.63736 0.81171 0.0
C378 C 0.54555 0.66907 0.83921 0.0
C379 C 0.52877 0.62717 0.77825 0.0
C380 C 0.56016 0.60914 0.84473 0.0
C381 C 0.58685 0.5997 0.8384 0.0
C382 C 0.59834 0.57305 0.86284 0.0
C383 C 0.58214 0.55553 0.89471 0.0
C384 C 0.55472 0.56473 0.9019 0.0
C385 C 0.54372 0.59209 0.87677 0.0
H386 H 0.9053 0.13433 0.24763 0.0
H387 H 0.97884 0.16664 0.17693 0.0
H388 H 0.00661 0.14178 0.24051 0.0
H389 H 0.92991 0.14425 0.368 0.0
H390 H 0.91326 0.10693 0.38857 0.0
H391 H 0.89883 0.12998 0.33974 0.0
H392 H 0.89946 0.07687 0.2881 0.0
H393 H 0.91385 0.05368 0.33676 0.0
H394 H 0.93099 0.05485 0.28107 0.0
H395 H 0.02669 0.11203 0.31018 0.0
H396 H 0.03766 0.07695 0.37933 0.0
H397 H 0.95136 0.0603 0.40179 0.0
C398 C 0.92723 0.13621 0.24526 0.0
C399 C 0.93971 0.15298 0.20719 0.0
C400 C 0.96857 0.15488 0.20612 0.0
C401 C 0.98462 0.14056 0.24197 0.0
C402 C 0.97163 0.12407 0.27856 0.0
C403 C 0.94361 0.12161 0.28037 0.0
C404 C 0.93481 0.10085 0.32224 0.0
C405 C 0.91823 0.12176 0.35667 0.0
C406 C 0.91884 0.06972 0.30606 0.0
C407 C 0.96231 0.09176 0.34334 0.0
C408 C 0.98325 0.10577 0.31791 0.0
C409 C 0.01047 0.10092 0.33042 0.0
C410 C 0.01649 0.08098 0.36979 0.0
C411 C 0.99537 0.0658 0.39588 0.0
C412 C 0.96794 0.07146 0.38247 0.0
H413 H 0.4591 0.34324 0.72065 0.0
H414 H 0.38086 0.38936 0.69207 0.0
H415 H 0.38932 0.42876 0.75733 0.0
H416 H 0.45739 0.35017 0.84738 0.0
H417 H 0.49328 0.35921 0.85355 0.0
H418 H 0.48091 0.33425 0.80498 0.0
H419 H 0.50361 0.3749 0.74608 0.0
H420 H 0.51605 0.39997 0.79448 0.0
H421 H 0.49561 0.4186 0.74824 0.0
H422 H 0.40668 0.46401 0.82417 0.0
H423 H 0.43142 0.49201 0.88949 0.0
H424 H 0.49831 0.42282 0.87474 0.0
C425 C 0.4438 0.3617 0.72806 0.0
C426 C 0.41927 0.36314 0.70144 0.0
C427 C 0.39962 0.38747 0.71247 0.0
C428 C 0.4043 0.41009 0.74927 0.0
C429 C 0.4287 0.408 0.77478 0.0
C430 C 0.44809 0.38439 0.7648 0.0
C431 C 0.47261 0.38756 0.79761 0.0
C432 C 0.47625 0.35592 0.82766 0.0
C433 C 0.49849 0.39575 0.76994 0.0
C434 C 0.464 0.41675 0.82738 0.0
C435 C 0.43862 0.4282 0.81359 0.0
C436 C 0.42653 0.45522 0.83542 0.0
C437 C 0.44077 0.47098 0.87243 0.0
C438 C 0.46677 0.45958 0.88727 0.0
C439 C 0.47842 0.43206 0.86436 0.0
H440 H 0.56934 0.67223 0.27578 0.0
H441 H 0.64506 0.61933 0.29998 0.0
H442 H 0.63408 0.58235 0.23295 0.0
H443 H 0.52913 0.60188 0.24771 0.0
H444 H 0.50896 0.62193 0.20233 0.0
H445 H 0.52355 0.64617 0.24981 0.0
H446 H 0.54754 0.68463 0.18963 0.0
H447 H 0.53283 0.66065 0.1419 0.0
H448 H 0.5692 0.66662 0.14596 0.0
H449 H 0.6139 0.54903 0.16771 0.0
H450 H 0.5863 0.52196 0.10545 0.0
H451 H 0.52345 0.59642 0.12208 0.0
C452 C 0.58383 0.65329 0.26626 0.0
C453 C 0.60803 0.64854 0.293 0.0
C454 C 0.6263 0.62314 0.28014 0.0
C455 C 0.62031 0.60214 0.24205 0.0
C456 C 0.59602 0.60696 0.21708 0.0
C457 C 0.57811 0.63199 0.22832 0.0
C458 C 0.55287 0.63075 0.19683 0.0
C459 C 0.52711 0.62482 0.22592 0.0
C460 C 0.55048 0.66256 0.16679 0.0
C461 C 0.55925 0.60079 0.16671 0.0
C462 C 0.5843 0.58759 0.17898 0.0
C463 C 0.59436 0.55927 0.15744 0.0
C464 C 0.57844 0.544 0.12223 0.0
C465 C 0.5527 0.55708 0.10883 0.0
C466 C 0.54308 0.58594 0.13137 0.0
H467 H 0.9101 0.12057 0.77883 0.0
H468 H 0.96514 0.20562 0.7857 0.0
H469 H 0.99135 0.18234 0.72018 0.0
H470 H 0.95887 0.05974 0.75437 0.0
H471 H 0.93738 0.03654 0.71395 0.0
H472 H 0.92239 0.06041 0.76028 0.0
H473 H 0.89303 0.09246 0.69866 0.0
H474 H 0.9078 0.06848 0.65212 0.0
H475 H 0.9094 0.11331 0.6503 0.0
H476 H 0.01314 0.14793 0.65684 0.0
H477 H 0.0272 0.1066 0.59771 0.0
H478 H 0.95638 0.04593 0.63004 0.0
C479 C 0.92729 0.13477 0.76603 0.0
C480 C 0.93554 0.16495 0.7877 0.0
C481 C 0.9586 0.18221 0.77028 0.0
C482 C 0.97354 0.1693 0.73285 0.0
C483 C 0.96503 0.13927 0.71284 0.0
C484 C 0.94226 0.12243 0.7285 0.0
C485 C 0.93759 0.0904 0.70147 0.0
C486 C 0.93916 0.05999 0.7345 0.0
C487 C 0.91034 0.09123 0.674 0.0
C488 C 0.96149 0.09164 0.66854 0.0
C489 C 0.97714 0.11996 0.67568 0.0
C490 C 0.00088 0.12584 0.65061 0.0
C491 C 0.00875 0.10218 0.61724 0.0
C492 C 0.99282 0.07316 0.6091 0.0
C493 C 0.96885 0.06803 0.63509 0.0
H494 H 0.45529 0.33568 0.26508 0.0
H495 H 0.37687 0.38198 0.28671 0.0
H496 H 0.38523 0.41999 0.22004 0.0
H497 H 0.4913 0.41009 0.23883 0.0
H498 H 0.51232 0.39166 0.1946 0.0
H499 H 0.49944 0.36643 0.24193 0.0
H500 H 0.47751 0.32581 0.18123 0.0
H501 H 0.49036 0.35092 0.13367 0.0
H502 H 0.45446 0.34169 0.13657 0.0
H503 H 0.40313 0.45523 0.15489 0.0
H504 H 0.42911 0.48486 0.09388 0.0
H505 H 0.49599 0.41581 0.11413 0.0
C506 C 0.43984 0.35373 0.25566 0.0
C507 C 0.41533 0.3557 0.28092 0.0
C508 C 0.39557 0.37959 0.26735 0.0
C509 C 0.40019 0.40141 0.2297 0.0
C510 C 0.42462 0.39898 0.20584 0.0
C511 C 0.44409 0.37569 0.21807 0.0
C512 C 0.46897 0.37905 0.18752 0.0
C513 C 0.49451 0.38731 0.21752 0.0
C514 C 0.47305 0.34749 0.15799 0.0
C515 C 0.46061 0.40825 0.15678 0.0
C516 C 0.43492 0.41927 0.16787 0.0
C517 C 0.42317 0.44668 0.14556 0.0
C518 C 0.43813 0.46338 0.11106 0.0
C519 C 0.46454 0.45258 0.09916 0.0
C520 C 0.47576 0.42447 0.12215 0.0
H521 H 0.04132 0.84716 0.81449 0.0
H522 H 0.11916 0.81415 0.76212 0.0
H523 H 0.11025 0.84366 0.68732 0.0
H524 H 0.004 0.84318 0.69942 0.0
H525 H 0.98463 0.88005 0.71152 0.0
H526 H 0.99565 0.85339 0.75929 0.0
H527 H 0.01935 0.90373 0.79997 0.0
H528 H 0.00858 0.93047 0.75228 0.0
H529 H 0.0442 0.92771 0.76808 0.0
H530 H 0.09634 0.88206 0.6236 0.0
H531 H 0.07622 0.92429 0.57057 0.0
H532 H 0.00609 0.93138 0.66082 0.0
C533 C 0.05626 0.84575 0.78694 0.0
C534 C 0.08086 0.82814 0.79399 0.0
C535 C 0.09997 0.82693 0.75721 0.0
C536 C 0.09516 0.84376 0.71467 0.0
C537 C 0.07101 0.8614 0.70922 0.0
C538 C 0.05166 0.86221 0.74396 0.0
C539 C 0.02801 0.88439 0.72962 0.0
C540 C 0.0015 0.86403 0.72466 0.0
C541 C 0.02487 0.91328 0.76456 0.0
C542 C 0.03757 0.89673 0.68207 0.0
C543 C 0.06245 0.88305 0.67118 0.0
C544 C 0.07664 0.89246 0.6312 0.0
C545 C 0.06515 0.91658 0.60153 0.0
C546 C 0.03961 0.93072 0.61166 0.0
C547 C 0.02542 0.92039 0.65205 0.0
loop_
_geom_bond_atom_site_label_1
_geom_bond_atom_site_label_2
_geom_bond_distance
_geom_bond_site_symmetry_2
_ccdc_geom_bond_type
C0 C1 1.386 . S
C0 C2 1.397 . S
C0 H24 0.931 . S
C1 C0 1.386 . S
C1 C5 1.397 . S
C2 C0 1.397 . S
C2 C3 1.384 . S
C2 H25 0.930 . S
C3 C2 1.384 . S
C3 C4 1.377 . S
C3 C6 1.481 . S
C4 C3 1.377 . S
C4 C5 1.389 . S
C4 H26 0.929 . S
C5 C1 1.397 . S
C5 C4 1.389 . S
C5 H27 0.931 . S
C6 C3 1.481 . S
C6 C7 1.387 . S
C6 C11 1.390 1_556 S
C7 C6 1.387 . S
C7 C8 1.401 1_556 S
C7 H28 0.930 . S
C8 C7 1.401 1_554 S
C8 C9 1.376 . S
C8 C17 1.511 . S
C9 C8 1.376 . S
C9 C10 1.392 . S
C9 H30 0.931 . S
C10 C9 1.392 . S
C10 C11 1.361 . S
C10 C12 1.500 . S
C11 C6 1.390 1_554 S
C11 C10 1.361 . S
C11 H29 0.931 . S
C12 C10 1.500 . S
C12 C13 1.371 . S
C12 C14 1.365 . S
C13 C12 1.371 . S
C13 C23 1.386 . S
C13 H31 0.931 . S
C14 C12 1.365 . S
C14 C15 1.409 . S
C14 H32 0.929 . S
C15 C14 1.409 . S
C15 C16 1.380 . S
C15 H33 0.930 . S
C16 C15 1.380 . S
C16 C23 1.357 . S
C17 C8 1.511 . S
C17 C18 1.341 1_554 S
C17 C19 1.371 . S
C18 C17 1.341 1_556 S
C18 C22 1.394 . S
C18 H34 0.930 . S
C19 C17 1.371 . S
C19 C20 1.392 . S
C19 H35 0.931 . S
C20 C19 1.392 . S
C20 C21 1.331 . S
C20 H38 0.932 . S
C21 C20 1.331 . S
C21 C22 1.336 1_554 S
C22 C18 1.394 . S
C22 C21 1.336 1_556 S
C22 H37 0.929 . S
C23 C13 1.386 . S
C23 C16 1.357 . S
C23 H36 0.928 . S
H24 C0 0.931 . S
H25 C2 0.930 . S
H26 C4 0.929 . S
H27 C5 0.931 . S
H28 C7 0.930 . S
H29 C11 0.931 . S
H30 C9 0.931 . S
H31 C13 0.931 . S
H32 C14 0.929 . S
H33 C15 0.930 . S
H34 C18 0.930 . S
H35 C19 0.931 . S
H36 C23 0.928 . S
H37 C22 0.929 . S
H38 C20 0.932 . S
C39 C40 1.386 . S
C39 C41 1.397 . S
C39 H63 0.931 . S
C40 C39 1.386 . S
C40 C44 1.397 . S
C41 C39 1.397 . S
C41 C42 1.384 . S
C41 H64 0.930 . S
C42 C41 1.384 . S
C42 C43 1.377 . S
C42 C45 1.481 . S
C43 C42 1.377 . S
C43 C44 1.389 . S
C43 H65 0.929 . S
C44 C40 1.397 . S
C44 C43 1.389 . S
C44 H66 0.931 . S
C45 C42 1.481 . S
C45 C46 1.387 . S
C45 C50 1.390 . S
C46 C45 1.387 . S
C46 C47 1.401 . S
C46 H67 0.930 . S
C47 C46 1.401 . S
C47 C48 1.376 . S
C47 C56 1.511 . S
C48 C47 1.376 . S
C48 C49 1.392 . S
C48 H69 0.931 . S
C49 C48 1.392 . S
C49 C50 1.361 . S
C49 C51 1.500 . S
C50 C45 1.390 . S
C50 C49 1.361 . S
C50 H68 0.931 . S
C51 C49 1.500 . S
C51 C52 1.371 . S
C51 C53 1.365 . S
C52 C51 1.371 . S
C52 C62 1.386 . S
C52 H70 0.931 . S
C53 C51 1.365 . S
C53 C54 1.409 . S
C53 H71 0.929 . S
C54 C53 1.409 . S
C54 C55 1.380 . S
C54 H72 0.930 . S
C55 C54 1.380 . S
C55 C62 1.357 . S
C56 C47 1.511 . S
C56 C57 1.341 . S
C56 C58 1.371 . S
C57 C56 1.341 . S
C57 C61 1.394 . S
C57 H73 0.930 . S
C58 C56 1.371 . S
C58 C59 1.392 . S
C58 H74 0.931 . S
C59 C58 1.392 . S
C59 C60 1.331 . S
C59 H77 0.932 . S
C60 C59 1.331 . S
C60 C61 1.336 . S
C61 C57 1.394 . S
C61 C60 1.336 . S
C61 H76 0.929 . S
C62 C52 1.386 . S
C62 C55 1.357 . S
C62 H75 0.928 . S
H63 C39 0.931 . S
H64 C41 0.930 . S
H65 C43 0.929 . S
H66 C44 0.931 . S
H67 C46 0.930 . S
H68 C50 0.931 . S
H69 C48 0.931 . S
H70 C52 0.931 . S
H71 C53 0.929 . S
H72 C54 0.930 . S
H73 C57 0.930 . S
H74 C58 0.931 . S
H75 C62 0.928 . S
H76 C61 0.929 . S
H77 C59 0.932 . S
C78 C79 1.386 . S
C78 C80 1.397 . S
C78 H102 0.931 . S
C79 C78 1.386 . S
C79 C83 1.397 . S
C80 C78 1.397 . S
C80 C81 1.384 . S
C80 H103 0.930 . S
C81 C80 1.384 . S
C81 C82 1.377 . S
C81 C84 1.481 . S
C82 C81 1.377 . S
C82 C83 1.389 . S
C82 H104 0.929 . S
C83 C79 1.397 . S
C83 C82 1.389 . S
C83 H105 0.931 . S
C84 C81 1.481 . S
C84 C85 1.387 . S
C84 C89 1.390 . S
C85 C84 1.387 . S
C85 C86 1.401 . S
C85 H106 0.930 . S
C86 C85 1.401 . S
C86 C87 1.376 1_554 S
C86 C95 1.511 . S
C87 C86 1.376 1_556 S
C87 C88 1.392 . S
C87 H108 0.931 . S
C88 C87 1.392 . S
C88 C89 1.361 1_556 S
C88 C90 1.500 . S
C89 C84 1.390 . S
C89 C88 1.361 1_554 S
C89 H107 0.931 . S
C90 C88 1.500 . S
C90 C91 1.371 . S
C90 C92 1.365 . S
C91 C90 1.371 . S
C91 C101 1.386 . S
C91 H109 0.931 . S
C92 C90 1.365 . S
C92 C93 1.409 . S
C92 H110 0.929 . S
C93 C92 1.409 . S
C93 C94 1.380 . S
C93 H111 0.930 . S
C94 C93 1.380 . S
C94 C101 1.357 . S
C95 C86 1.511 . S
C95 C96 1.341 . S
C95 C97 1.371 1_554 S
C96 C95 1.341 . S
C96 C100 1.394 . S
C96 H112 0.930 . S
C97 C95 1.371 1_556 S
C97 C98 1.392 . S
C97 H113 0.931 . S
C98 C97 1.392 . S
C98 C99 1.331 1_556 S
C98 H116 0.932 . S
C99 C98 1.331 1_554 S
C99 C100 1.336 . S
C100 C96 1.394 . S
C100 C99 1.336 . S
C100 H115 0.929 . S
C101 C91 1.386 . S
C101 C94 1.357 . S
C101 H114 0.928 . S
H102 C78 0.931 . S
H103 C80 0.930 . S
H104 C82 0.929 . S
H105 C83 0.931 . S
H106 C85 0.930 . S
H107 C89 0.931 . S
H108 C87 0.931 . S
H109 C91 0.931 . S
H110 C92 0.929 . S
H111 C93 0.930 . S
H112 C96 0.930 . S
H113 C97 0.931 . S
H114 C101 0.928 . S
H115 C100 0.929 . S
H116 C98 0.932 . S
C117 C118 1.386 . S
C117 C119 1.397 . S
C117 H141 0.931 . S
C118 C117 1.386 . S
C118 C122 1.397 . S
C119 C117 1.397 . S
C119 C120 1.384 . S
C119 H142 0.930 . S
C120 C119 1.384 . S
C120 C121 1.377 . S
C120 C123 1.481 . S
C121 C120 1.377 . S
C121 C122 1.389 . S
C121 H143 0.929 . S
C122 C118 1.397 . S
C122 C121 1.389 . S
C122 H144 0.931 . S
C123 C120 1.481 . S
C123 C124 1.387 . S
C123 C128 1.390 . S
C124 C123 1.387 . S
C124 C125 1.401 . S
C124 H145 0.930 . S
C125 C124 1.401 . S
C125 C126 1.376 . S
C125 C134 1.511 . S
C126 C125 1.376 . S
C126 C127 1.392 . S
C126 H147 0.931 . S
C127 C126 1.392 . S
C127 C128 1.361 . S
C127 C129 1.500 . S
C128 C123 1.390 . S
C128 C127 1.361 . S
C128 H146 0.931 . S
C129 C127 1.500 . S
C129 C130 1.371 . S
C129 C131 1.365 . S
C130 C129 1.371 . S
C130 C140 1.386 . S
C130 H148 0.931 . S
C131 C129 1.365 . S
C131 C132 1.409 . S
C131 H149 0.929 . S
C132 C131 1.409 . S
C132 C133 1.380 . S
C132 H150 0.930 . S
C133 C132 1.380 . S
C133 C140 1.357 . S
C134 C125 1.511 . S
C134 C135 1.341 . S
C134 C136 1.371 . S
C135 C134 1.341 . S
C135 C139 1.394 . S
C135 H151 0.930 . S
C136 C134 1.371 . S
C136 C137 1.392 . S
C136 H152 0.931 . S
C137 C136 1.392 . S
C137 C138 1.331 . S
C137 H155 0.932 . S
C138 C137 1.331 . S
C138 C139 1.336 . S
C139 C135 1.394 . S
C139 C138 1.336 . S
C139 H154 0.929 . S
C140 C130 1.386 . S
C140 C133 1.357 . S
C140 H153 0.928 . S
H141 C117 0.931 . S
H142 C119 0.930 . S
H143 C121 0.929 . S
H144 C122 0.931 . S
H145 C124 0.930 . S
H146 C128 0.931 . S
H147 C126 0.931 . S
H148 C130 0.931 . S
H149 C131 0.929 . S
H150 C132 0.930 . S
H151 C135 0.930 . S
H152 C136 0.931 . S
H153 C140 0.928 . S
H154 C139 0.929 . S
H155 C137 0.932 . S
C156 O172 1.251 . S
C156 O174 1.254 . S
N157 C158 1.333 . S
N157 C162 1.307 . S
N157 Zn163 2.020 . S
C158 N157 1.333 . S
C158 C159 1.379 . S
C158 H176 0.952 . S
C159 C158 1.379 . S
C159 C160 1.390 . S
C159 H186 0.949 . S
C160 C159 1.390 . S
C160 C161 1.357 . S
C161 C160 1.357 . S
C161 C162 1.370 . S
C161 H187 0.950 . S
C162 N157 1.307 . S
C162 C161 1.370 . S
C162 H180 0.948 . S
Zn163 N157 2.020 . S
Zn163 O172 2.039 1_545 S
Zn163 O178 2.034 1_545 S
Zn163 O182 2.025 . S
Zn163 O184 2.024 . S
C164 O183 1.246 . S
C164 O184 1.249 1_655 S
N165 C166 1.307 . S
N165 C167 1.333 . S
N165 Zn171 2.020 . S
C166 N165 1.307 . S
C166 C170 1.370 . S
C166 H177 0.948 . S
C167 N165 1.333 . S
C167 C168 1.379 . S
C167 H175 0.952 . S
C168 C167 1.379 . S
C168 C169 1.390 . S
C168 H188 0.949 . S
C169 C168 1.390 . S
C169 C170 1.357 . S
C170 C166 1.370 . S
C170 C169 1.357 . S
C170 H189 0.950 . S
Zn171 N165 2.020 . S
Zn171 O174 2.025 1_655 S
Zn171 O179 2.024 1_655 S
Zn171 O181 2.039 1_565 S
Zn171 O183 2.034 1_565 S
O172 C156 1.251 . S
O172 Zn163 2.039 1_565 S
C173 O178 1.246 . S
C173 O179 1.249 . S
O174 C156 1.254 . S
O174 Zn171 2.025 1_455 S
H175 C167 0.952 . S
H176 C158 0.952 . S
H177 C166 0.948 . S
O178 Zn163 2.034 1_565 S
O178 C173 1.246 . S
O179 Zn171 2.024 1_455 S
O179 C173 1.249 . S
H180 C162 0.948 . S
O181 Zn171 2.039 1_545 S
O181 C185 1.251 . S
O182 Zn163 2.025 . S
O182 C185 1.254 1_455 S
O183 C164 1.246 . S
O183 Zn171 2.034 1_545 S
O184 Zn163 2.024 . S
O184 C164 1.249 1_455 S
C185 O181 1.251 . S
C185 O182 1.254 1_655 S
H186 C159 0.949 . S
H187 C161 0.950 . S
H188 C168 0.949 . S
H189 C170 0.950 . S
C190 O206 1.251 . S
C190 O208 1.254 . S
N191 C192 1.333 1_554 S
N191 C196 1.307 . S
N191 Zn197 2.020 . S
C192 N191 1.333 1_556 S
C192 C193 1.379 . S
C192 H210 0.952 . S
C193 C192 1.379 . S
C193 C194 1.390 1_556 S
C193 H220 0.949 . S
C194 C193 1.390 1_554 S
C194 C195 1.357 . S
C195 C194 1.357 . S
C195 C196 1.370 . S
C195 H221 0.950 . S
C196 N191 1.307 . S
C196 C195 1.370 . S
C196 H214 0.948 . S
Zn197 N191 2.020 . S
Zn197 O206 2.039 1_554 S
Zn197 O212 2.034 . S
Zn197 O216 2.025 . S
Zn197 O218 2.024 1_554 S
C198 O217 1.246 . S
C198 O218 1.249 . S
N199 C200 1.307 1_554 S
N199 C201 1.333 . S
N199 Zn205 2.020 . S
C200 N199 1.307 1_556 S
C200 C204 1.370 . S
C200 H211 0.948 . S
C201 N199 1.333 . S
C201 C202 1.379 . S
C201 H209 0.952 . S
C202 C201 1.379 . S
C202 C203 1.390 . S
C202 H222 0.949 . S
C203 C202 1.390 . S
C203 C204 1.357 1_554 S
C204 C200 1.370 . S
C204 C203 1.357 1_556 S
C204 H223 0.950 . S
Zn205 N199 2.020 . S
Zn205 O208 2.025 1_554 S
Zn205 O213 2.024 . S
Zn205 O215 2.039 . S
Zn205 O217 2.034 1_554 S
O206 C190 1.251 . S
O206 Zn197 2.039 1_556 S
C207 O212 1.246 . S
C207 O213 1.249 . S
O208 C190 1.254 . S
O208 Zn205 2.025 1_556 S
H209 C201 0.952 . S
H210 C192 0.952 . S
H211 C200 0.948 . S
O212 Zn197 2.034 . S
O212 C207 1.246 . S
O213 Zn205 2.024 . S
O213 C207 1.249 . S
H214 C196 0.948 . S
O215 Zn205 2.039 . S
O215 C219 1.251 . S
O216 Zn197 2.025 . S
O216 C219 1.254 . S
O217 C198 1.246 . S
O217 Zn205 2.034 1_556 S
O218 Zn197 2.024 1_556 S
O218 C198 1.249 . S
C219 O215 1.251 . S
C219 O216 1.254 . S
H220 C193 0.949 . S
H221 C195 0.950 . S
H222 C202 0.949 . S
H223 C204 0.950 . S
H224 C236 0.930 . S
H225 C238 0.930 . S
H226 C239 0.930 . S
H227 C243 0.959 . S
H228 C243 0.959 . S
H229 C243 0.961 . S
H230 C244 0.960 . S
H231 C244 0.961 . S
H232 C244 0.959 . S
H233 C247 0.929 . S
H234 C248 0.931 . S
H235 C250 0.930 . S
C236 H224 0.930 . S
C236 C237 1.399 . S
C236 C241 1.399 . S
C237 C236 1.399 . S
C237 C238 1.376 . S
C238 H225 0.930 . S
C238 C237 1.376 . S
C238 C239 1.388 . S
C239 H226 0.930 . S
C239 C238 1.388 . S
C239 C240 1.390 . S
C240 C239 1.390 . S
C240 C241 1.394 . S
C240 C246 1.465 . S
C241 C236 1.399 . S
C241 C240 1.394 . S
C241 C242 1.516 . S
C242 C241 1.516 . S
C242 C243 1.502 . S
C242 C244 1.561 . S
C242 C245 1.526 . S
C243 H227 0.959 . S
C243 H228 0.959 . S
C243 H229 0.961 . S
C243 C242 1.502 . S
C244 H230 0.960 . S
C244 H231 0.961 . S
C244 H232 0.959 . S
C244 C242 1.561 . S
C245 C242 1.526 . S
C245 C246 1.396 . S
C245 C250 1.390 . S
C246 C240 1.465 . S
C246 C245 1.396 . S
C246 C247 1.399 . S
C247 H233 0.929 . S
C247 C246 1.399 . S
C247 C248 1.385 . S
C248 H234 0.931 . S
C248 C247 1.385 . S
C248 C249 1.389 . S
C249 C248 1.389 . S
C249 C250 1.387 . S
C250 H235 0.930 . S
C250 C245 1.390 . S
C250 C249 1.387 . S
H251 C263 0.930 . S
H252 C265 0.930 . S
H253 C266 0.930 . S
H254 C270 0.959 . S
H255 C270 0.959 . S
H256 C270 0.961 . S
H257 C271 0.960 . S
H258 C271 0.961 . S
H259 C271 0.959 . S
H260 C274 0.929 . S
H261 C275 0.931 . S
H262 C277 0.930 . S
C263 H251 0.930 . S
C263 C264 1.399 1_556 S
C263 C268 1.399 . S
C264 C263 1.399 1_554 S
C264 C265 1.376 . S
C265 H252 0.930 . S
C265 C264 1.376 . S
C265 C266 1.388 . S
C266 H253 0.930 . S
C266 C265 1.388 . S
C266 C267 1.390 . S
C267 C266 1.390 . S
C267 C268 1.394 1_554 S
C267 C273 1.465 . S
C268 C263 1.399 . S
C268 C267 1.394 1_556 S
C268 C269 1.516 . S
C269 C268 1.516 . S
C269 C270 1.502 . S
C269 C271 1.561 . S
C269 C272 1.526 . S
C270 H254 0.959 . S
C270 H255 0.959 . S
C270 H256 0.961 . S
C270 C269 1.502 . S
C271 H257 0.960 . S
C271 H258 0.961 . S
C271 H259 0.959 . S
C271 C269 1.561 . S
C272 C269 1.526 . S
C272 C273 1.396 1_556 S
C272 C277 1.390 . S
C273 C267 1.465 . S
C273 C272 1.396 1_554 S
C273 C274 1.399 . S
C274 H260 0.929 . S
C274 C273 1.399 . S
C274 C275 1.385 . S
C275 H261 0.931 . S
C275 C274 1.385 . S
C275 C276 1.389 . S
C276 C275 1.389 . S
C276 C277 1.387 1_554 S
C277 H262 0.930 . S
C277 C272 1.390 . S
C277 C276 1.387 1_556 S
H278 C290 0.930 . S
H279 C292 0.930 . S
H280 C293 0.930 . S
H281 C297 0.959 . S
H282 C297 0.959 . S
H283 C297 0.961 . S
H284 C298 0.960 . S
H285 C298 0.961 . S
H286 C298 0.959 . S
H287 C301 0.929 . S
H288 C302 0.931 . S
H289 C304 0.930 . S
C290 H278 0.930 . S
C290 C291 1.399 . S
C290 C295 1.399 . S
C291 C290 1.399 . S
C291 C292 1.376 . S
C292 H279 0.930 . S
C292 C291 1.376 . S
C292 C293 1.388 . S
C293 H280 0.930 . S
C293 C292 1.388 . S
C293 C294 1.390 . S
C294 C293 1.390 . S
C294 C295 1.394 . S
C294 C300 1.465 . S
C295 C290 1.399 . S
C295 C294 1.394 . S
C295 C296 1.516 . S
C296 C295 1.516 . S
C296 C297 1.502 . S
C296 C298 1.561 . S
C296 C299 1.526 . S
C297 H281 0.959 . S
C297 H282 0.959 . S
C297 H283 0.961 . S
C297 C296 1.502 . S
C298 H284 0.960 . S
C298 H285 0.961 . S
C298 H286 0.959 . S
C298 C296 1.561 . S
C299 C296 1.526 . S
C299 C300 1.396 . S
C299 C304 1.390 . S
C300 C294 1.465 . S
C300 C299 1.396 . S
C300 C301 1.399 . S
C301 H287 0.929 . S
C301 C300 1.399 . S
C301 C302 1.385 . S
C302 H288 0.931 . S
C302 C301 1.385 . S
C302 C303 1.389 . S
C303 C302 1.389 . S
C303 C304 1.387 . S
C304 H289 0.930 . S
C304 C299 1.390 . S
C304 C303 1.387 . S
H305 C317 0.930 . S
H306 C319 0.930 . S
H307 C320 0.930 . S
H308 C324 0.959 . S
H309 C324 0.959 . S
H310 C324 0.961 . S
H311 C325 0.960 . S
H312 C325 0.961 . S
H313 C325 0.959 . S
H314 C328 0.929 . S
H315 C329 0.931 . S
H316 C331 0.930 . S
C317 H305 0.930 . S
C317 C318 1.399 1_556 S
C317 C322 1.399 . S
C318 C317 1.399 1_554 S
C318 C319 1.376 . S
C319 H306 0.930 . S
C319 C318 1.376 . S
C319 C320 1.388 . S
C320 H307 0.930 . S
C320 C319 1.388 . S
C320 C321 1.390 . S
C321 C320 1.390 . S
C321 C322 1.394 1_554 S
C321 C327 1.465 . S
C322 C317 1.399 . S
C322 C321 1.394 1_556 S
C322 C323 1.516 . S
C323 C322 1.516 . S
C323 C324 1.502 . S
C323 C325 1.561 . S
C323 C326 1.526 . S
C324 H308 0.959 . S
C324 H309 0.959 . S
C324 H310 0.961 . S
C324 C323 1.502 . S
C325 H311 0.960 . S
C325 H312 0.961 . S
C325 H313 0.959 . S
C325 C323 1.561 . S
C326 C323 1.526 . S
C326 C327 1.396 1_556 S
C326 C331 1.390 . S
C327 C321 1.465 . S
C327 C326 1.396 1_554 S
C327 C328 1.399 . S
C328 H314 0.929 . S
C328 C327 1.399 . S
C328 C329 1.385 . S
C329 H315 0.931 . S
C329 C328 1.385 . S
C329 C330 1.389 . S
C330 C329 1.389 . S
C330 C331 1.387 1_554 S
C331 H316 0.930 . S
C331 C326 1.390 . S
C331 C330 1.387 1_556 S
H332 C344 0.930 . S
H333 C346 0.930 . S
H334 C347 0.930 . S
H335 C351 0.949 1_655 S
H336 C351 0.940 1_655 S
H337 C351 0.956 1_655 S
H338 C352 0.960 . S
H339 C352 0.961 . S
H340 C352 0.959 . S
H341 C355 0.929 . S
H342 C356 0.931 . S
H343 C358 0.930 . S
C344 H332 0.930 . S
C344 C345 1.399 . S
C344 C349 1.399 . S
C345 C344 1.399 . S
C345 C346 1.376 . S
C346 H333 0.930 . S
C346 C345 1.376 . S
C346 C347 1.388 . S
C347 H334 0.930 . S
C347 C346 1.388 . S
C347 C348 1.390 . S
C348 C347 1.390 . S
C348 C349 1.394 . S
C348 C354 1.465 . S
C349 C344 1.399 . S
C349 C348 1.394 . S
C349 C350 1.516 . S
C350 C349 1.516 . S
C350 C351 1.538 . S
C350 C352 1.561 . S
C350 C353 1.526 . S
C351 H335 0.949 1_455 S
C351 H336 0.940 1_455 S
C351 H337 0.956 1_455 S
C351 C350 1.538 . S
C352 H338 0.960 . S
C352 H339 0.961 . S
C352 H340 0.959 . S
C352 C350 1.561 . S
C353 C350 1.526 . S
C353 C354 1.396 . S
C353 C358 1.390 . S
C354 C348 1.465 . S
C354 C353 1.396 . S
C354 C355 1.399 . S
C355 H341 0.929 . S
C355 C354 1.399 . S
C355 C356 1.385 . S
C356 H342 0.931 . S
C356 C355 1.385 . S
C356 C357 1.389 . S
C357 C356 1.389 . S
C357 C358 1.387 . S
C358 H343 0.930 . S
C358 C353 1.390 . S
C358 C357 1.387 . S
H359 C371 0.930 . S
H360 C373 0.930 . S
H361 C374 0.930 . S
H362 C378 0.959 . S
H363 C378 0.959 . S
H364 C378 0.961 . S
H365 C379 0.960 . S
H366 C379 0.961 . S
H367 C379 0.959 . S
H368 C382 0.929 . S
H369 C383 0.931 . S
H370 C385 0.930 . S
C371 H359 0.930 . S
C371 C372 1.399 . S
C371 C376 1.399 . S
C372 C371 1.399 . S
C372 C373 1.376 . S
C373 H360 0.930 . S
C373 C372 1.376 . S
C373 C374 1.388 . S
C374 H361 0.930 . S
C374 C373 1.388 . S
C374 C375 1.390 . S
C375 C374 1.390 . S
C375 C376 1.394 . S
C375 C381 1.465 . S
C376 C371 1.399 . S
C376 C375 1.394 . S
C376 C377 1.516 . S
C377 C376 1.516 . S
C377 C378 1.502 . S
C377 C379 1.561 . S
C377 C380 1.526 . S
C378 H362 0.959 . S
C378 H363 0.959 . S
C378 H364 0.961 . S
C378 C377 1.502 . S
C379 H365 0.960 . S
C379 H366 0.961 . S
C379 H367 0.959 . S
C379 C377 1.561 . S
C380 C377 1.526 . S
C380 C381 1.396 . S
C380 C385 1.390 . S
C381 C375 1.465 . S
C381 C380 1.396 . S
C381 C382 1.399 . S
C382 H368 0.929 . S
C382 C381 1.399 . S
C382 C383 1.385 . S
C383 H369 0.931 . S
C383 C382 1.385 . S
C383 C384 1.389 . S
C384 C383 1.389 . S
C384 C385 1.387 . S
C385 H370 0.930 . S
C385 C380 1.390 . S
C385 C384 1.387 . S
H386 C398 0.930 . S
H387 C400 0.930 . S
H388 C401 0.930 . S
H389 C405 0.982 . S
H390 C405 0.959 . S
H391 C405 0.961 . S
H392 C406 0.960 . S
H393 C406 0.961 . S
H394 C406 0.959 . S
H395 C409 0.929 . S
H396 C410 0.931 . S
H397 C412 0.930 . S
C398 H386 0.930 . S
C398 C399 1.399 . S
C398 C403 1.399 . S
C399 C398 1.399 . S
C399 C400 1.376 . S
C400 H387 0.930 . S
C400 C399 1.376 . S
C400 C401 1.388 . S
C401 H388 0.930 . S
C401 C400 1.388 . S
C401 C402 1.390 . S
C402 C401 1.390 . S
C402 C403 1.394 . S
C402 C408 1.465 . S
C403 C398 1.399 . S
C403 C402 1.394 . S
C403 C404 1.516 . S
C404 C403 1.516 . S
C404 C405 1.502 . S
C404 C406 1.561 . S
C404 C407 1.526 . S
C405 H389 0.982 . S
C405 H390 0.959 . S
C405 H391 0.961 . S
C405 C404 1.502 . S
C406 H392 0.960 . S
C406 H393 0.961 . S
C406 H394 0.959 . S
C406 C404 1.561 . S
C407 C404 1.526 . S
C407 C408 1.396 . S
C407 C412 1.390 . S
C408 C402 1.465 . S
C408 C407 1.396 . S
C408 C409 1.399 . S
C409 H395 0.929 . S
C409 C408 1.399 . S
C409 C410 1.385 . S
C410 H396 0.931 . S
C410 C409 1.385 . S
C410 C411 1.389 . S
C411 C410 1.389 . S
C411 C412 1.387 . S
C412 H397 0.930 . S
C412 C407 1.390 . S
C412 C411 1.387 . S
H413 C425 0.930 . S
H414 C427 0.930 . S
H415 C428 0.930 . S
H416 C432 0.959 . S
H417 C432 0.959 . S
H418 C432 0.961 . S
H419 C433 0.960 . S
H420 C433 0.961 . S
H421 C433 0.959 . S
H422 C436 0.929 . S
H423 C437 0.931 . S
H424 C439 0.930 . S
C425 H413 0.930 . S
C425 C426 1.399 . S
C425 C430 1.399 . S
C426 C425 1.399 . S
C426 C427 1.376 . S
C427 H414 0.930 . S
C427 C426 1.376 . S
C427 C428 1.388 . S
C428 H415 0.930 . S
C428 C427 1.388 . S
C428 C429 1.390 . S
C429 C428 1.390 . S
C429 C430 1.394 . S
C429 C435 1.465 . S
C430 C425 1.399 . S
C430 C429 1.394 . S
C430 C431 1.516 . S
C431 C430 1.516 . S
C431 C432 1.502 . S
C431 C433 1.561 . S
C431 C434 1.526 . S
C432 H416 0.959 . S
C432 H417 0.959 . S
C432 H418 0.961 . S
C432 C431 1.502 . S
C433 H419 0.960 . S
C433 H420 0.961 . S
C433 H421 0.959 . S
C433 C431 1.561 . S
C434 C431 1.526 . S
C434 C435 1.396 . S
C434 C439 1.390 . S
C435 C429 1.465 . S
C435 C434 1.396 . S
C435 C436 1.399 . S
C436 H422 0.929 . S
C436 C435 1.399 . S
C436 C437 1.385 . S
C437 H423 0.931 . S
C437 C436 1.385 . S
C437 C438 1.389 . S
C438 C437 1.389 . S
C438 C439 1.387 . S
C439 H424 0.930 . S
C439 C434 1.390 . S
C439 C438 1.387 . S
H440 C452 0.930 . S
H441 C454 0.930 . S
H442 C455 0.930 . S
H443 C459 0.959 . S
H444 C459 0.959 . S
H445 C459 0.961 . S
H446 C460 0.960 . S
H447 C460 0.961 . S
H448 C460 0.959 . S
H449 C463 0.929 . S
H450 C464 0.931 . S
H451 C466 0.930 . S
C452 H440 0.930 . S
C452 C453 1.399 . S
C452 C457 1.399 . S
C453 C452 1.399 . S
C453 C454 1.376 . S
C454 H441 0.930 . S
C454 C453 1.376 . S
C454 C455 1.388 . S
C455 H442 0.930 . S
C455 C454 1.388 . S
C455 C456 1.390 . S
C456 C455 1.390 . S
C456 C457 1.394 . S
C456 C462 1.465 . S
C457 C452 1.399 . S
C457 C456 1.394 . S
C457 C458 1.516 . S
C458 C457 1.516 . S
C458 C459 1.502 . S
C458 C460 1.561 . S
C458 C461 1.526 . S
C459 H443 0.959 . S
C459 H444 0.959 . S
C459 H445 0.961 . S
C459 C458 1.502 . S
C460 H446 0.960 . S
C460 H447 0.961 . S
C460 H448 0.959 . S
C460 C458 1.561 . S
C461 C458 1.526 . S
C461 C462 1.396 . S
C461 C466 1.390 . S
C462 C456 1.465 . S
C462 C461 1.396 . S
C462 C463 1.399 . S
C463 H449 0.929 . S
C463 C462 1.399 . S
C463 C464 1.385 . S
C464 H450 0.931 . S
C464 C463 1.385 . S
C464 C465 1.389 . S
C465 C464 1.389 . S
C465 C466 1.387 . S
C466 H451 0.930 . S
C466 C461 1.390 . S
C466 C465 1.387 . S
H467 C479 0.930 . S
H468 C481 0.930 . S
H469 C482 0.930 . S
H470 C486 0.969 . S
H471 C486 0.959 . S
H472 C486 0.961 . S
H473 C487 0.960 . S
H474 C487 0.961 . S
H475 C487 0.959 . S
H476 C490 0.929 . S
H477 C491 0.931 . S
H478 C493 0.930 . S
C479 H467 0.930 . S
C479 C480 1.399 . S
C479 C484 1.399 . S
C480 C479 1.399 . S
C480 C481 1.376 . S
C481 H468 0.930 . S
C481 C480 1.376 . S
C481 C482 1.388 . S
C482 H469 0.930 . S
C482 C481 1.388 . S
C482 C483 1.390 . S
C483 C482 1.390 . S
C483 C484 1.394 . S
C483 C489 1.465 . S
C484 C479 1.399 . S
C484 C483 1.394 . S
C484 C485 1.516 . S
C485 C484 1.516 . S
C485 C486 1.502 . S
C485 C487 1.561 . S
C485 C488 1.526 . S
C486 H470 0.969 . S
C486 H471 0.959 . S
C486 H472 0.961 . S
C486 C485 1.502 . S
C487 H473 0.960 . S
C487 H474 0.961 . S
C487 H475 0.959 . S
C487 C485 1.561 . S
C488 C485 1.526 . S
C488 C489 1.396 . S
C488 C493 1.390 . S
C489 C483 1.465 . S
C489 C488 1.396 . S
C489 C490 1.399 . S
C490 H476 0.929 . S
C490 C489 1.399 . S
C490 C491 1.385 . S
C491 H477 0.931 . S
C491 C490 1.385 . S
C491 C492 1.389 . S
C492 C491 1.389 . S
C492 C493 1.387 . S
C493 H478 0.930 . S
C493 C488 1.390 . S
C493 C492 1.387 . S
H494 C506 0.930 . S
H495 C508 0.930 . S
H496 C509 0.930 . S
H497 C513 0.959 . S
H498 C513 0.959 . S
H499 C513 0.961 . S
H500 C514 0.960 . S
H501 C514 0.961 . S
H502 C514 0.959 . S
H503 C517 0.929 . S
H504 C518 0.931 . S
H505 C520 0.930 . S
C506 H494 0.930 . S
C506 C507 1.399 . S
C506 C511 1.399 . S
C507 C506 1.399 . S
C507 C508 1.376 . S
C508 H495 0.930 . S
C508 C507 1.376 . S
C508 C509 1.388 . S
C509 H496 0.930 . S
C509 C508 1.388 . S
C509 C510 1.390 . S
C510 C509 1.390 . S
C510 C511 1.394 . S
C510 C516 1.465 . S
C511 C506 1.399 . S
C511 C510 1.394 . S
C511 C512 1.516 . S
C512 C511 1.516 . S
C512 C513 1.502 . S
C512 C514 1.561 . S
C512 C515 1.526 . S
C513 H497 0.959 . S
C513 H498 0.959 . S
C513 H499 0.961 . S
C513 C512 1.502 . S
C514 H500 0.960 . S
C514 H501 0.961 . S
C514 H502 0.959 . S
C514 C512 1.561 . S
C515 C512 1.526 . S
C515 C516 1.396 . S
C515 C520 1.390 . S
C516 C510 1.465 . S
C516 C515 1.396 . S
C516 C517 1.399 . S
C517 H503 0.929 . S
C517 C516 1.399 . S
C517 C518 1.385 . S
C518 H504 0.931 . S
C518 C517 1.385 . S
C518 C519 1.389 . S
C519 C518 1.389 . S
C519 C520 1.387 . S
C520 H505 0.930 . S
C520 C515 1.390 . S
C520 C519 1.387 . S
H521 C533 0.930 . S
H522 C535 0.930 . S
H523 C536 0.930 . S
H524 C540 0.986 . S
H525 C540 0.959 . S
H526 C540 0.961 . S
H527 C541 0.960 . S
H528 C541 0.961 . S
H529 C541 0.959 . S
H530 C544 0.929 . S
H531 C545 0.931 . S
H532 C547 0.930 . S
C533 H521 0.930 . S
C533 C534 1.399 . S
C533 C538 1.399 . S
C534 C533 1.399 . S
C534 C535 1.376 . S
C535 H522 0.930 . S
C535 C534 1.376 . S
C535 C536 1.388 . S
C536 H523 0.930 . S
C536 C535 1.388 . S
C536 C537 1.390 . S
C537 C536 1.390 . S
C537 C538 1.394 . S
C537 C543 1.465 . S
C538 C533 1.399 . S
C538 C537 1.394 . S
C538 C539 1.516 . S
C539 C538 1.516 . S
C539 C540 1.502 . S
C539 C541 1.561 . S
C539 C542 1.526 . S
C540 H524 0.986 . S
C540 H525 0.959 . S
C540 H526 0.961 . S
C540 C539 1.502 . S
C541 H527 0.960 . S
C541 H528 0.961 . S
C541 H529 0.959 . S
C541 C539 1.561 . S
C542 C539 1.526 . S
C542 C543 1.396 . S
C542 C547 1.390 . S
C543 C537 1.465 . S
C543 C542 1.396 . S
C543 C544 1.399 . S
C544 H530 0.929 . S
C544 C543 1.399 . S
C544 C545 1.385 . S
C545 H531 0.931 . S
C545 C544 1.385 . S
C545 C546 1.389 . S
C546 C545 1.389 . S
C546 C547 1.387 . S
C547 H532 0.930 . S
C547 C542 1.390 . S
C547 C546 1.387 . S
C249 C160 1.637 . S
C237 C138 1.625 . S
C264 C21 1.542 . S
C276 C203 1.578 . S
C291 C60 1.638 . S
C303 C169 1.647 . S
C318 C99 1.530 . S
C330 C194 1.568 . S
C357 C156 1.640 . S
C345 C16 1.576 . S
C384 C198 1.715 . S
C372 C40 1.691 . S
C399 C79 1.564 . S
C411 C164 1.630 . S
C426 C133 1.666 . S
C438 C190 1.723 . S
C465 C219 1.727 . S
C453 C55 1.643 . S
C492 C185 1.623 . S
C480 C94 1.618 . S
C519 C207 1.734 . S
C507 C118 1.652 . S
C534 C1 1.602 . S
C546 C173 1.609 . S
