# Generated by pormake.
# Topology sit, (3,6)-cn, num edge types: 1
# Building blocks:
#     Node 0, Type 0, BuildingBlock: VETTIZ_charged_linker_0, # of connection points: 3
#     Node 1, Type 0, BuildingBlock: VETTIZ_charged_linker_0, # of connection points: 3
#     Node 2, Type 0, BuildingBlock: VETTIZ_charged_linker_0, # of connection points: 3
#     Node 3, Type 0, BuildingBlock: VETTIZ_charged_linker_0, # of connection points: 3
#     Node 4, Type 1, BuildingBlock: MIDCAF_clean_sbu_0, # of connection points: 6
#     Node 5, Type 1, BuildingBlock: MIDCAF_clean_sbu_0, # of connection points: 6
#     Edge 6, Type (0, 1), BuildingBlock: MIFKUJ_clean_linker_0, # of connection points: 2
#     Edge 7, Type (0, 1), BuildingBlock: MIFKUJ_clean_linker_0, # of connection points: 2
#     Edge 8, Type (0, 1), BuildingBlock: MIFKUJ_clean_linker_0, # of connection points: 2
#     Edge 9, Type (0, 1), BuildingBlock: MIFKUJ_clean_linker_0, # of connection points: 2
#     Edge 10, Type (0, 1), BuildingBlock: MIFKUJ_clean_linker_0, # of connection points: 2
#     Edge 11, Type (0, 1), BuildingBlock: MIFKUJ_clean_linker_0, # of connection points: 2
#     Edge 12, Type (0, 1), BuildingBlock: MIFKUJ_clean_linker_0, # of connection points: 2
#     Edge 13, Type (0, 1), BuildingBlock: MIFKUJ_clean_linker_0, # of connection points: 2
#     Edge 14, Type (0, 1), BuildingBlock: MIFKUJ_clean_linker_0, # of connection points: 2
#     Edge 15, Type (0, 1), BuildingBlock: MIFKUJ_clean_linker_0, # of connection points: 2
#     Edge 16, Type (0, 1), BuildingBlock: MIFKUJ_clean_linker_0, # of connection points: 2
#     Edge 17, Type (0, 1), BuildingBlock: MIFKUJ_clean_linker_0, # of connection points: 2
# Relax obj value: 0.113
# Max RMSD: 0.194
# Mean RMSD: 0.109
data_MOF--net-sit--node1-MIDCAF_clean_sbu_0--node2-VETTIZ_charged_linker_0--edge1-MIFKUJ_clean_linker_0
_symmetry_space_group_name_H-M    P1
_symmetry_Int_Tables_number       1
_symmetry_cell_setting            triclinic
loop_
_symmetry_equiv_pos_as_xyz
'x, y, z'
_cell_length_a     35.132948
_cell_length_b     48.16537
_cell_length_c     52.986024
_cell_angle_alpha  90.249102
_cell_angle_beta   89.528546
_cell_angle_gamma 84.471524
loop_
_atom_site_label
_atom_site_type_symbol
_atom_site_fract_x
_atom_site_fract_y
_atom_site_fract_z
_atom_type_partial_charge
C0 C 0.08251 0.20873 0.07767 0.0
C1 C 0.11809 0.19564 0.08512 0.0
C2 C 0.15178 0.20516 0.07514 0.0
C3 C 0.11414 0.24182 0.0525 0.0
C4 C 0.08119 0.23162 0.06149 0.0
C5 C 0.04553 0.24847 0.05283 0.0
H6 H 0.9639 0.35763 0.98629 0.0
C7 C 0.10264 0.26691 0.0373 0.0
C8 C 0.06239 0.2707 0.03734 0.0
H9 H 0.90648 0.29854 0.02995 0.0
H10 H 0.96787 0.27466 0.04185 0.0
H11 H 0.02285 0.36798 0.02648 0.0
H12 H 0.02867 0.31421 0.96169 0.0
H13 H 0.07232 0.32917 0.9626 0.0
H14 H 0.02823 0.35144 0.95995 0.0
H15 H 0.03288 0.38055 0.99559 0.0
H16 H 0.07054 0.36675 0.01635 0.0
C17 C 0.02353 0.26091 0.0764 0.0
C18 C 0.02265 0.22942 0.03634 0.0
C19 C 0.20241 0.32679 0.00138 0.0
C20 C 0.19874 0.35204 0.98788 0.0
C21 C 0.16218 0.36347 0.98049 0.0
C22 C 0.12965 0.35053 0.98691 0.0
C23 C 0.13343 0.32588 0.00106 0.0
C24 C 0.16928 0.31415 0.0079 0.0
C25 C 0.16711 0.28791 0.02312 0.0
C26 C 0.12405 0.28636 0.02464 0.0
C27 C 0.10476 0.30871 0.01163 0.0
C28 C 0.18452 0.29251 0.04936 0.0
C29 C 0.18751 0.26315 0.00801 0.0
C30 C 0.96472 0.33945 0.99835 0.0
C31 C 0.93087 0.32962 0.00713 0.0
C32 C 0.93256 0.30626 0.02305 0.0
C33 C 0.96812 0.2925 0.0298 0.0
C34 C 0.00203 0.30252 0.02068 0.0
C35 C -0.00025 0.32581 0.00543 0.0
C36 C 0.03819 0.33446 0.99826 0.0
C37 C 0.06427 0.31218 0.01127 0.0
C38 C 0.04311 0.29343 0.02422 0.0
C39 C 0.04149 0.36399 0.00951 0.0
C40 C 0.04227 0.33249 0.96912 0.0
H41 H 0.17658 0.23489 0.05228 0.0
H42 H 0.05611 0.20165 0.08476 0.0
H43 H 0.04223 0.2156 0.02409 0.0
H44 H 0.00297 0.24117 0.02323 0.0
H45 H 0.00607 0.21588 0.04827 0.0
H46 H 0.04365 0.26591 0.0915 0.0
H47 H 0.00444 0.246 0.08434 0.0
H48 H 0.00651 0.2809 0.07253 0.0
H49 H 0.23023 0.31751 0.00723 0.0
H50 H 0.15875 0.38253 0.9696 0.0
H51 H 0.10277 0.36047 0.98073 0.0
H52 H 0.17505 0.31378 0.05665 0.0
H53 H 0.21626 0.29043 0.04833 0.0
H54 H 0.17543 0.27808 0.06381 0.0
H55 H 0.18271 0.2659 0.9874 0.0
H56 H 0.17642 0.24306 0.01255 0.0
H57 H 0.21886 0.26137 0.01118 0.0
H58 H 0.17953 0.19545 0.08069 0.0
C59 C 0.14999 0.2282 0.05885 0.0
C60 C 0.14747 0.67883 0.0079 0.0
C61 C 0.15064 0.65068 0.00036 0.0
C62 C 0.11884 0.63523 0.00288 0.0
C63 C 0.08091 0.67608 0.01926 0.0
C64 C 0.1125 0.69098 0.01755 0.0
C65 C 0.10434 0.7203 0.02749 0.0
H66 H 0.98387 0.81577 0.08927 0.0
C67 C 0.04879 0.69491 0.02945 0.0
C68 C 0.06227 0.72075 0.03461 0.0
H69 H 0.10221 0.82067 0.06812 0.0
H70 H 0.10293 0.77741 0.04527 0.0
H71 H 0.9608 0.79339 0.03203 0.0
H72 H 0.98726 0.75047 0.10205 0.0
H73 H 0.94476 0.73975 0.08899 0.0
H74 H 0.94641 0.77553 0.09809 0.0
H75 H 0.92632 0.79324 0.05718 0.0
H76 H 0.93242 0.7654 0.03411 0.0
C77 C 0.11071 0.74076 0.00572 0.0
C78 C 0.13 0.72342 0.05084 0.0
C79 C 0.9175 0.66079 0.0327 0.0
C80 C 0.88084 0.6738 0.03792 0.0
C81 C 0.87708 0.70144 0.04721 0.0
C82 C 0.90955 0.71597 0.05081 0.0
C83 C 0.94599 0.70283 0.04461 0.0
C84 C 0.9493 0.67564 0.03581 0.0
C85 C 0.98943 0.66538 0.02835 0.0
C86 C 0.00982 0.69102 0.03365 0.0
C87 C 0.98456 0.71286 0.0435 0.0
C88 C 0.98981 0.65796 -0.0002 0.0
C89 C 0.00316 0.64078 0.04591 0.0
C90 C 0.00968 0.80771 0.07934 0.0
C91 C 0.04337 0.82129 0.0811 0.0
C92 C 0.07624 0.81024 0.06767 0.0
C93 C 0.07665 0.78506 0.05445 0.0
C94 C 0.04383 0.77063 0.0545 0.0
C95 C 0.01056 0.7824 0.06593 0.0
C96 C 0.97813 0.76426 0.0629 0.0
C97 C -0.00152 0.73879 0.04978 0.0
C98 C 0.03699 0.74275 0.04497 0.0
C99 C 0.94754 0.77978 0.04583 0.0
C100 C 0.96304 0.75712 0.08936 0.0
H101 H 0.0607 0.63499 0.01331 0.0
H102 H 0.17176 0.69101 0.00649 0.0
H103 H 0.1354 0.70331 0.06106 0.0
H104 H 0.11665 0.73807 0.06515 0.0
H105 H 0.15821 0.73015 0.04523 0.0
H106 H 0.10079 0.73259 0.98748 0.0
H107 H 0.14148 0.74384 0.00349 0.0
H108 H 0.09415 0.76129 0.00823 0.0
H109 H 0.92132 0.63989 0.02483 0.0
H110 H 0.84901 0.71192 0.05126 0.0
H111 H 0.90506 0.73698 0.05781 0.0
H112 H 0.96976 0.67291 0.98927 0.0
H113 H 0.98089 0.63672 0.99662 0.0
H114 H 0.01785 0.6593 0.9906 0.0
H115 H 0.9887 0.64284 0.06469 0.0
H116 H 0.034 0.64002 0.05021 0.0
H117 H -0.00304 0.62047 0.03767 0.0
H118 H 0.12074 0.61354 0.99704 0.0
C119 C 0.08399 0.64778 0.01222 0.0
C120 C 0.56941 0.71965 0.58031 0.0
C121 C 0.60173 0.70007 0.58161 0.0
C122 C 0.63565 0.7057 0.56907 0.0
C123 C 0.60517 0.7501 0.55482 0.0
C124 C 0.57181 0.74448 0.56697 0.0
C125 C 0.54068 0.76809 0.56469 0.0
H126 H 0.47932 0.89173 0.51183 0.0
C127 C 0.59848 0.77792 0.54313 0.0
C128 C 0.56068 0.78859 0.54883 0.0
H129 H 0.41719 0.84327 0.56393 0.0
H130 H 0.47248 0.80974 0.56743 0.0
H131 H 0.55331 0.8886 0.54506 0.0
H132 H 0.52124 0.84249 0.48045 0.0
H133 H 0.56904 0.84925 0.47566 0.0
H134 H 0.53253 0.87802 0.47904 0.0
H135 H 0.55692 0.90183 0.51366 0.0
H136 H 0.59586 0.88043 0.52798 0.0
C137 C 0.53047 0.77974 0.59147 0.0
C138 C 0.50678 0.75703 0.5506 0.0
C139 C 0.70565 0.81885 0.49466 0.0
C140 C 0.7074 0.84436 0.48202 0.0
C141 C 0.67396 0.86288 0.4802 0.0
C142 C 0.63965 0.85656 0.49129 0.0
C143 C 0.63852 0.83141 0.50442 0.0
C144 C 0.67098 0.81287 0.50575 0.0
C145 C 0.66404 0.78715 0.52052 0.0
C146 C 0.62235 0.79373 0.52827 0.0
C147 C 0.60773 0.81966 0.51875 0.0
C148 C 0.69092 0.7854 0.54361 0.0
C149 C 0.66977 0.76172 0.5024 0.0
C150 C 0.47742 0.87437 0.52452 0.0
C151 C 0.44319 0.87033 0.53739 0.0
C152 C 0.44264 0.84683 0.55325 0.0
C153 C 0.47492 0.82735 0.55539 0.0
C154 C 0.5084 0.83147 0.54177 0.0
C155 C 0.50942 0.85508 0.5272 0.0
C156 C 0.5478 0.85704 0.51506 0.0
C157 C 0.56949 0.8303 0.52418 0.0
C158 C 0.54623 0.81513 0.53951 0.0
C159 C 0.56447 0.88336 0.52573 0.0
C160 C 0.54267 0.8569 0.48602 0.0
H161 H 0.66419 0.73364 0.54662 0.0
H162 H 0.54319 0.71614 0.59019 0.0
H163 H 0.51724 0.74417 0.534 0.0
H164 H 0.48655 0.77379 0.54302 0.0
H165 H 0.49079 0.74374 0.56314 0.0
H166 H 0.55577 0.77741 0.60404 0.0
H167 H 0.50765 0.76857 0.60038 0.0
H168 H 0.52147 0.80237 0.59148 0.0
H169 H 0.73087 0.80421 0.49644 0.0
H170 H 0.67431 0.88237 0.47011 0.0
H171 H 0.61537 0.87163 0.48926 0.0
H172 H 0.69368 0.80654 0.55153 0.0
H173 H 0.72003 0.77607 0.53828 0.0
H174 H 0.68008 0.77348 0.55942 0.0
H175 H 0.66009 0.76753 0.48302 0.0
H176 H 0.65263 0.74462 0.50786 0.0
H177 H 0.70038 0.75354 0.50109 0.0
H178 H 0.66085 0.69088 0.56979 0.0
C179 C 0.6375 0.73052 0.55563 0.0
C180 C 0.6645 0.16085 0.51314 0.0
C181 C 0.66374 0.13464 0.50135 0.0
C182 C 0.62843 0.12357 0.49818 0.0
C183 C 0.59537 0.1647 0.51755 0.0
C184 C 0.62995 0.17552 0.52101 0.0
C185 C 0.625 0.20385 0.53351 0.0
H186 H 0.50717 0.30627 0.58939 0.0
C187 C 0.56482 0.18508 0.52739 0.0
C188 C 0.58174 0.20814 0.53678 0.0
H189 H 0.62998 0.30214 0.57944 0.0
H190 H 0.62941 0.25899 0.55641 0.0
H191 H 0.49135 0.28621 0.53094 0.0
H192 H 0.50133 0.2415 0.60145 0.0
H193 H 0.46108 0.23198 0.58502 0.0
H194 H 0.46254 0.26757 0.59509 0.0
H195 H 0.4547 0.29034 0.55485 0.0
H196 H 0.45634 0.26251 0.53183 0.0
C197 C 0.63995 0.22535 0.51513 0.0
C198 C 0.64579 0.20161 0.55918 0.0
C199 C 0.42808 0.16215 0.52062 0.0
C200 C 0.39258 0.17646 0.52683 0.0
C201 C 0.39167 0.20291 0.53853 0.0
C202 C 0.4258 0.2148 0.54389 0.0
C203 C 0.46114 0.20017 0.53725 0.0
C204 C 0.4616 0.17429 0.52584 0.0
C205 C 0.50111 0.16183 0.51925 0.0
C206 C 0.52464 0.18447 0.52847 0.0
C207 C 0.50136 0.20689 0.53911 0.0
C208 C 0.50373 0.15816 0.49012 0.0
C209 C 0.50913 0.13446 0.53449 0.0
C210 C 0.53389 0.29634 0.58193 0.0
C211 C 0.56875 0.30759 0.5866 0.0
C212 C 0.60283 0.29372 0.57664 0.0
C213 C 0.60246 0.26863 0.5632 0.0
C214 C 0.56765 0.25715 0.55955 0.0
C215 C 0.534 0.27125 0.56838 0.0
C216 C 0.49962 0.25614 0.56216 0.0
C217 C 0.51837 0.23025 0.54893 0.0
C218 C 0.5583 0.23094 0.54755 0.0
C219 C 0.47381 0.27468 0.54414 0.0
C220 C 0.47975 0.24896 0.58714 0.0
H221 H 0.56857 0.12875 0.50305 0.0
H222 H 0.69122 0.16996 0.51571 0.0
H223 H 0.64148 0.1815 0.56854 0.0
H224 H 0.63484 0.21786 0.57283 0.0
H225 H 0.67706 0.20253 0.55663 0.0
H226 H 0.6345 0.21973 0.49517 0.0
H227 H 0.67124 0.22626 0.51715 0.0
H228 H 0.62524 0.24652 0.51761 0.0
H229 H 0.42989 0.14216 0.51101 0.0
H230 H 0.36458 0.21438 0.54347 0.0
H231 H 0.4234 0.23494 0.55282 0.0
H232 H 0.48514 0.17476 0.48041 0.0
H233 H 0.49445 0.13775 0.48416 0.0
H234 H 0.53267 0.16018 0.48245 0.0
H235 H 0.49383 0.13587 0.553 0.0
H236 H 0.53958 0.12989 0.53944 0.0
H237 H 0.49949 0.11636 0.5241 0.0
H238 H 0.62715 0.10325 0.48955 0.0
C239 C 0.59437 0.1384 0.50618 0.0
Zn240 Zn 0.04667 0.05481 0.354 0.0
Zn241 Zn 0.11217 0.95052 0.3485 0.0
Zn242 Zn 0.07786 1.00271 0.35369 0.0
C243 C 0.10074 0.96989 0.30024 0.0
C244 C 0.03845 0.94881 0.37137 0.0
O245 O 0.11446 0.02648 0.37721 0.0
O246 O 0.08157 0.06798 0.38008 0.0
C247 C 0.06981 0.04447 0.30504 0.0
O248 O 0.08558 0.99105 0.31306 0.0
O249 O 0.11721 0.94904 0.31141 0.0
O250 O 0.06747 0.93341 0.36369 0.0
O251 O 0.03718 0.97555 0.36941 0.0
O252 O 0.05481 0.06441 0.3184 0.0
O253 O 0.07868 0.02035 0.31499 0.0
O254 O 0.02089 0.00417 0.37219 0.0
O255 O 0.99521 0.04725 0.36507 0.0
C256 C 0.99262 0.02325 0.37393 0.0
O257 O 0.12997 0.99844 0.37695 0.0
O258 O 0.1575 0.95586 0.3694 0.0
C259 C 0.11015 0.05149 0.38615 0.0
C260 C 0.15727 0.97908 0.38057 0.0
Zn261 Zn 0.55781 0.56937 0.84975 0.0
Zn262 Zn 0.57526 0.46154 0.84997 0.0
Zn263 Zn 0.56649 0.5149 0.85084 0.0
C264 C 0.5636 0.47693 0.8005 0.0
C265 C 0.5111 0.47597 0.87939 0.0
O266 O 0.6124 0.52976 0.87435 0.0
O267 O 0.59305 0.57472 0.87798 0.0
C268 C 0.57644 0.55277 0.80132 0.0
O269 O 0.56822 0.50076 0.81058 0.0
O270 O 0.56232 0.45567 0.81418 0.0
O271 O 0.53568 0.45543 0.87582 0.0
O272 O 0.5161 0.49991 0.86983 0.0
O273 O 0.57592 0.57452 0.81471 0.0
O274 O 0.5708 0.52918 0.81137 0.0
O275 O 0.51119 0.52936 0.86834 0.0
O276 O 0.50213 0.57389 0.85769 0.0
C277 C 0.49015 0.55278 0.86803 0.0
O278 O 0.61881 0.50063 0.87195 0.0
O279 O 0.62937 0.45635 0.86048 0.0
C280 C 0.61567 0.55395 0.88413 0.0
C281 C 0.63982 0.47718 0.87213 0.0
H282 H 0.16198 0.14505 0.08589 0.0
H283 H 0.16409 0.10978 0.11956 0.0
H284 H 0.08008 0.16226 0.16218 0.0
H285 H 0.078 0.19724 0.12907 0.0
H286 H 0.14407 0.14324 0.18998 0.0
H287 H 0.05496 0.10826 0.13026 0.0
H288 H 0.03571 0.08858 0.08981 0.0
H289 H 0.12003 0.01869 0.09859 0.0
H290 H 0.14024 0.03823 0.1389 0.0
H291 H 0.03074 0.08162 0.27442 0.0
H292 H 0.05027 0.09688 0.23284 0.0
H293 H 0.14799 0.03549 0.23357 0.0
H294 H 0.1292 0.02058 0.27583 0.0
H295 H 0.09543 0.05022 0.1822 0.0
H296 H 0.18056 0.08364 0.24441 0.0
H297 H 0.1947 0.10246 0.28631 0.0
H298 H 0.11587 0.1746 0.273 0.0
H299 H 0.1008 0.15594 0.23118 0.0
C300 C 0.14404 0.14894 0.10249 0.0
C301 C 0.11966 0.17379 0.10482 0.0
C302 C 0.14512 0.12877 0.12157 0.0
C303 C 0.12217 0.13344 0.14329 0.0
C304 C 0.09799 0.15826 0.14556 0.0
C305 C 0.09665 0.17815 0.12654 0.0
C306 C 0.1235 0.1133 0.16436 0.0
C307 C 0.13393 0.12275 0.18817 0.0
C308 C 0.11119 0.08626 0.16191 0.0
C309 C 0.09964 0.075 0.13735 0.0
C310 C 0.06983 0.08894 0.12337 0.0
C311 C 0.05863 0.07774 0.10051 0.0
C312 C 0.07678 0.05248 0.09156 0.0
C313 C 0.10612 0.03833 0.10547 0.0
C314 C 0.11748 0.04946 0.12831 0.0
C315 C 0.056 0.07098 0.26556 0.0
C316 C 0.07838 0.04985 0.2783 0.0
C317 C 0.06697 0.0796 0.24178 0.0
C318 C 0.1005 0.06728 0.23028 0.0
C319 C 0.12182 0.04502 0.24216 0.0
C320 C 0.11096 0.03647 0.26619 0.0
C321 C 0.11502 0.08064 0.20762 0.0
C322 C 0.10725 0.07015 0.18369 0.0
C323 C 0.12995 0.10672 0.20981 0.0
C324 C 0.13937 0.11829 0.23475 0.0
C325 C 0.16603 0.1034 0.25051 0.0
C326 C 0.17424 0.11406 0.27423 0.0
C327 C 0.15614 0.13969 0.28233 0.0
C328 C 0.12986 0.15474 0.2667 0.0
C329 C 0.12151 0.14415 0.24297 0.0
H330 H 0.16253 0.1479 0.3007 0.0
H331 H 0.06798 0.0438 0.07391 0.0
H332 H 0.99131 0.86717 0.08997 0.0
H333 H 0.99518 0.90346 0.12258 0.0
H334 H 0.10486 0.86414 0.14534 0.0
H335 H 0.10122 0.82814 0.11341 0.0
H336 H 0.04553 0.87196 0.18399 0.0
H337 H 0.10557 0.91998 0.11603 0.0
H338 H 0.10809 0.94363 0.07498 0.0
H339 H 0.01641 0.00382 0.09849 0.0
H340 H 0.01284 0.98019 0.13955 0.0
H341 H 0.14787 0.94094 0.26663 0.0
H342 H 0.13183 0.9274 0.22391 0.0
H343 H 0.02562 0.98007 0.22882 0.0
H344 H 0.04151 0.99376 0.2719 0.0
H345 H 0.0687 0.97161 0.17576 0.0
H346 H 0.00985 0.92463 0.24429 0.0
H347 H 0.01068 0.90265 0.28626 0.0
H348 H 0.10004 0.84126 0.26143 0.0
H349 H 0.10023 0.86324 0.21944 0.0
C350 C 0.01636 0.86652 0.1018 0.0
C351 C 0.04603 0.84485 0.09902 0.0
C352 C 0.01864 0.88732 0.12023 0.0
C353 C 0.05042 0.88648 0.1362 0.0
C354 C 0.08026 0.86525 0.13305 0.0
C355 C 0.07818 0.84475 0.11467 0.0
C356 C 0.0516 0.9056 0.15805 0.0
C357 C 0.05027 0.8938 0.18213 0.0
C358 C 0.05685 0.93426 0.15562 0.0
C359 C 0.05841 0.94796 0.13069 0.0
C360 C 0.08547 0.93794 0.1123 0.0
C361 C 0.0872 0.95143 0.08906 0.0
C362 C 0.06224 0.97509 0.08406 0.0
C363 C 0.03556 0.98538 0.10233 0.0
C364 C 0.03367 0.97194 0.12558 0.0
C365 C 0.12167 0.95036 0.25835 0.0
C366 C 0.0957 0.96809 0.27267 0.0
C367 C 0.11265 0.94274 0.2339 0.0
C368 C 0.0774 0.95253 0.22341 0.0
C369 C 0.05303 0.97242 0.23662 0.0
C370 C 0.06212 0.98016 0.26122 0.0
C371 C 0.06364 0.93759 0.20138 0.0
C372 C 0.06269 0.95002 0.17748 0.0
C373 C 0.05595 0.90945 0.2038 0.0
C374 C 0.05523 0.8957 0.2288 0.0
C375 C 0.02985 0.90656 0.24784 0.0
C376 C 0.03013 0.8941 0.27162 0.0
C377 C 0.05545 0.8706 0.27652 0.0
C378 C 0.08046 0.85947 0.25761 0.0
C379 C 0.08036 0.87191 0.23381 0.0
H380 H 0.05564 0.86099 0.29495 0.0
H381 H 0.06373 0.98557 0.0661 0.0
H382 H 0.54712 0.66317 0.58274 0.0
H383 H 0.54269 0.62441 0.61215 0.0
H384 H 0.64906 0.6422 0.64601 0.0
H385 H 0.6541 0.68021 0.61625 0.0
H386 H 0.64453 0.58775 0.64586 0.0
H387 H 0.55885 0.67024 0.66872 0.0
H388 H 0.50532 0.70616 0.661 0.0
H389 H 0.42926 0.64236 0.65117 0.0
H390 H 0.48254 0.60605 0.6585 0.0
H391 H 0.63203 0.57798 0.77774 0.0
H392 H 0.63638 0.58858 0.73276 0.0
H393 H 0.53661 0.5453 0.71882 0.0
H394 H 0.53268 0.53421 0.7639 0.0
H395 H 0.53064 0.60031 0.70218 0.0
H396 H 0.61693 0.51982 0.6953 0.0
H397 H 0.67179 0.48598 0.70492 0.0
H398 H 0.74906 0.54725 0.68795 0.0
H399 H 0.69472 0.58167 0.6784 0.0
C400 C 0.56975 0.65849 0.59627 0.0
C401 C 0.60078 0.67481 0.59739 0.0
C402 C 0.56724 0.63635 0.61302 0.0
C403 C 0.59522 0.63066 0.63159 0.0
C404 C 0.62716 0.64609 0.63183 0.0
C405 C 0.62998 0.66789 0.61486 0.0
C406 C 0.58976 0.61084 0.65243 0.0
C407 C 0.61969 0.59044 0.65823 0.0
C408 C 0.55668 0.61368 0.66804 0.0
C409 C 0.5247 0.63548 0.66382 0.0
C410 C 0.53075 0.6639 0.66475 0.0
C411 C 0.50047 0.68431 0.66046 0.0
C412 C 0.46394 0.67654 0.65551 0.0
C413 C 0.45759 0.64834 0.65493 0.0
C414 C 0.4878 0.62784 0.65914 0.0
C415 C 0.61171 0.57011 0.7649 0.0
C416 C 0.58226 0.55512 0.77401 0.0
C417 C 0.61428 0.57604 0.73926 0.0
C418 C 0.58704 0.56746 0.72243 0.0
C419 C 0.55818 0.55175 0.73144 0.0
C420 C 0.55602 0.54538 0.7571 0.0
C421 C 0.58629 0.57823 0.69634 0.0
C422 C 0.55512 0.59698 0.68952 0.0
C423 C 0.61852 0.57411 0.68011 0.0
C424 C 0.6515 0.55342 0.68598 0.0
C425 C 0.64554 0.5262 0.69363 0.0
C426 C 0.6766 0.50687 0.6991 0.0
C427 C 0.71386 0.51445 0.69703 0.0
C428 C 0.72016 0.54139 0.68948 0.0
C429 C 0.68921 0.5608 0.68395 0.0
H430 H 0.73787 0.49945 0.7013 0.0
H431 H 0.44053 0.69237 0.6522 0.0
H432 H 0.62203 0.31663 0.62228 0.0
H433 H 0.62074 0.35482 0.65264 0.0
H434 H 0.5163 0.39266 0.6202 0.0
H435 H 0.51804 0.35487 0.58893 0.0
H436 H 0.56524 0.43245 0.63667 0.0
H437 H 0.50855 0.35224 0.66822 0.0
H438 H 0.50685 0.30221 0.67736 0.0
H439 H 0.60505 0.30391 0.72486 0.0
H440 H 0.60768 0.35389 0.71568 0.0
H441 H 0.50295 0.4576 0.77845 0.0
H442 H 0.49956 0.4399 0.73539 0.0
H443 H 0.60893 0.46924 0.71818 0.0
H444 H 0.61207 0.48755 0.76156 0.0
H445 H 0.55524 0.39824 0.72439 0.0
H446 H 0.6091 0.47171 0.64732 0.0
H447 H 0.6022 0.52118 0.63478 0.0
H448 H 0.49798 0.53466 0.67779 0.0
H449 H 0.50394 0.48525 0.6904 0.0
C450 C 0.59932 0.33342 0.62103 0.0
C451 C 0.56995 0.3325 0.60323 0.0
C452 C 0.59856 0.35521 0.63852 0.0
C453 C 0.56823 0.37641 0.63883 0.0
C454 C 0.53996 0.37648 0.62027 0.0
C455 C 0.54076 0.35468 0.60264 0.0
C456 C 0.56379 0.39635 0.6603 0.0
C457 C 0.56325 0.42513 0.65592 0.0
C458 C 0.5603 0.38669 0.68528 0.0
C459 C 0.55852 0.35672 0.69107 0.0
C460 C 0.52994 0.34189 0.68047 0.0
C461 C 0.52879 0.31355 0.68567 0.0
C462 C 0.55588 0.29987 0.70163 0.0
C463 C 0.58412 0.31453 0.71248 0.0
C464 C 0.58544 0.34286 0.70729 0.0
C465 C 0.52559 0.4612 0.76519 0.0
C466 C 0.55783 0.47371 0.77321 0.0
C467 C 0.52362 0.45114 0.7406 0.0
C468 C 0.55413 0.45305 0.72364 0.0
C469 C 0.58496 0.46777 0.73091 0.0
C470 C 0.58681 0.47811 0.75566 0.0
C471 C 0.55696 0.43466 0.70103 0.0
C472 C 0.55747 0.40586 0.70524 0.0
C473 C 0.55974 0.44454 0.67601 0.0
C474 C 0.55725 0.47475 0.67006 0.0
C475 C 0.58476 0.48523 0.65419 0.0
C476 C 0.58092 0.51324 0.64697 0.0
C477 C 0.54963 0.53101 0.65545 0.0
C478 C 0.52226 0.52086 0.67131 0.0
C479 C 0.52598 0.49287 0.67862 0.0
H480 H 0.54654 0.55262 0.64967 0.0
H481 H 0.55495 0.27793 0.70564 0.0
H482 H 0.20645 0.40723 0.99425 0.0
H483 H 0.25784 0.43333 0.97833 0.0
H484 H 0.3183 0.35681 0.9508 0.0
H485 H 0.26645 0.33056 0.96643 0.0
H486 H 0.33373 0.43231 0.98676 0.0
H487 H 0.3567 0.37067 0.89304 0.0
H488 H 0.32031 0.34293 0.86426 0.0
H489 H 0.21534 0.38825 0.88907 0.0
H490 H 0.25114 0.41652 0.91771 0.0
H491 H 0.50836 0.44886 0.92375 0.0
H492 H 0.45163 0.43525 0.94567 0.0
H493 H 0.3797 0.47824 0.88977 0.0
H494 H 0.43674 0.49214 0.86784 0.0
H495 H 0.36395 0.42547 0.89516 0.0
H496 H 0.37073 0.50238 0.95238 0.0
H497 H 0.40138 0.53368 0.98138 0.0
H498 H 0.43892 0.464 0.02814 0.0
H499 H 0.40856 0.43233 -0.00054 0.0
C500 C 0.23085 0.39596 0.98495 0.0
C501 C 0.23235 0.36694 0.98129 0.0
C502 C 0.26024 0.41086 0.976 0.0
C503 C 0.29154 0.39705 0.96308 0.0
C504 C 0.29407 0.36787 0.96046 0.0
C505 C 0.26467 0.35289 0.96954 0.0
C506 C 0.32054 0.41342 0.95137 0.0
C507 C 0.3404 0.43081 0.96674 0.0
C508 C 0.32836 0.41211 0.92513 0.0
C509 C 0.3066 0.3955 0.90769 0.0
C510 C 0.32587 0.37478 0.89227 0.0
C511 C 0.30535 0.35896 0.876 0.0
C512 C 0.26553 0.36376 0.8749 0.0
C513 C 0.24616 0.38448 0.89001 0.0
C514 C 0.26656 0.40039 0.90628 0.0
C515 C 0.48034 0.45595 0.91652 0.0
C516 C 0.4767 0.47165 0.89428 0.0
C517 C 0.44796 0.44835 0.92914 0.0
C518 C 0.41137 0.45604 0.91955 0.0
C519 C 0.40764 0.47243 0.89766 0.0
C520 C 0.44012 0.48034 0.88517 0.0
C521 C 0.37788 0.44389 0.93064 0.0
C522 C 0.35716 0.42716 0.91515 0.0
C523 C 0.3688 0.44621 0.95667 0.0
C524 C 0.38782 0.465 0.97364 0.0
C525 C 0.38591 0.49374 0.96871 0.0
C526 C 0.40305 0.51154 0.98513 0.0
C527 C 0.42222 0.50082 0.00649 0.0
C528 C 0.42414 0.47228 0.01155 0.0
C529 C 0.40688 0.45441 0.99528 0.0
H530 H 0.43546 0.51465 0.01915 0.0
H531 H 0.24969 0.35147 0.86231 0.0
H532 H 0.86768 0.61982 0.04755 0.0
H533 H 0.8222 0.59283 0.02574 0.0
H534 H 0.77342 0.66768 0.98924 0.0
H535 H 0.81927 0.69466 0.0106 0.0
H536 H 0.74414 0.59272 0.01912 0.0
H537 H 0.76816 0.65305 0.92669 0.0
H538 H 0.81743 0.67992 0.90779 0.0
H539 H 0.90397 0.63388 0.95172 0.0
H540 H 0.85537 0.60638 0.97048 0.0
H541 H 0.60334 0.58268 0.92751 0.0
H542 H 0.6505 0.5946 0.95825 0.0
H543 H 0.73958 0.54714 0.91543 0.0
H544 H 0.69195 0.53531 0.88426 0.0
H545 H 0.75765 0.59925 0.92603 0.0
H546 H 0.71657 0.52443 0.9726 0.0
H547 H 0.67082 0.49467 0.99159 0.0
H548 H 0.62588 0.56252 0.03925 0.0
H549 H 0.6708 0.5929 0.0202 0.0
C550 C 0.84659 0.63061 0.03535 0.0
C551 C 0.84728 0.65927 0.03052 0.0
C552 C 0.8206 0.61518 0.02297 0.0
C553 C 0.79505 0.62817 0.0055 0.0
C554 C 0.79334 0.65723 0.00242 0.0
C555 C 0.81929 0.67267 0.01482 0.0
C556 C 0.77331 0.61113 0.98848 0.0
C557 C 0.74699 0.5941 0.99878 0.0
C558 C 0.77839 0.612 0.96197 0.0
C559 C 0.80803 0.62783 0.95015 0.0
C560 C 0.79774 0.64853 0.93218 0.0
C561 C 0.82555 0.66388 0.9215 0.0
C562 C 0.86379 0.65866 0.92859 0.0
C563 C 0.87434 0.63796 0.94628 0.0
C564 C 0.84666 0.62248 0.95694 0.0
C565 C 0.63292 0.57444 0.92487 0.0
C566 C 0.64413 0.55797 0.90369 0.0
C567 C 0.65978 0.58109 0.94253 0.0
C568 C 0.69849 0.57154 0.93929 0.0
C569 C 0.70977 0.55457 0.91835 0.0
C570 C 0.68267 0.54772 0.90067 0.0
C571 C 0.72707 0.58179 0.95659 0.0
C572 C 0.75491 0.59756 0.94636 0.0
C573 C 0.72394 0.5792 0.98313 0.0
C574 C 0.69694 0.56101 0.99483 0.0
C575 C 0.69672 0.53308 0.98698 0.0
C576 C 0.67098 0.51608 0.99778 0.0
C577 C 0.64547 0.52668 0.01659 0.0
C578 C 0.64567 0.55432 0.02467 0.0
C579 C 0.6713 0.57144 0.01389 0.0
H580 H 0.62557 0.51347 0.02493 0.0
H581 H 0.88525 0.67062 0.92036 0.0
H582 H 0.90136 0.32885 0.96048 0.0
H583 H 0.84995 0.3612 0.94367 0.0
H584 H 0.82901 0.39692 0.0179 0.0
H585 H 0.88039 0.36398 0.03488 0.0
H586 H 0.76143 0.39361 0.9889 0.0
H587 H 0.88284 0.42885 0.9815 0.0
H588 H 0.95178 0.42579 0.97152 0.0
H589 H 0.9283 0.41086 0.89349 0.0
H590 H 0.85926 0.4132 0.90308 0.0
H591 H 0.64919 0.49691 0.91978 0.0
H592 H 0.70053 0.48109 0.949 0.0
H593 H 0.75662 0.4302 0.88985 0.0
H594 H 0.70611 0.44644 0.86061 0.0
H595 H 0.80829 0.45143 0.92 0.0
H596 H 0.69021 0.40532 0.9302 0.0
H597 H 0.62133 0.40592 0.93994 0.0
H598 H 0.63921 0.44137 0.01291 0.0
H599 H 0.70815 0.44124 0.00344 0.0
C600 C 0.88488 0.343 0.97329 0.0
C601 C 0.89439 0.34403 -0.00112 0.0
C602 C 0.85582 0.36158 0.96371 0.0
C603 C 0.83635 0.38179 0.97949 0.0
C604 C 0.8439 0.38152 0.00546 0.0
C605 C 0.87298 0.36272 0.01513 0.0
C606 C 0.81074 0.40441 0.96811 0.0
C607 C 0.77172 0.40675 0.97426 0.0
C608 C 0.82436 0.4216 0.94911 0.0
C609 C 0.86582 0.42111 0.94305 0.0
C610 C 0.89237 0.4248 0.96222 0.0
C611 C 0.93148 0.42316 0.95664 0.0
C612 C 0.94441 0.41812 0.93189 0.0
C613 C 0.91824 0.41478 0.91266 0.0
C614 C 0.87909 0.41629 0.91816 0.0
C615 C 0.67333 0.48325 0.91283 0.0
C616 C 0.67402 0.47301 0.88795 0.0
C617 C 0.70239 0.47404 0.92957 0.0
C618 C 0.73208 0.4542 0.92168 0.0
C619 C 0.73403 0.44553 0.89635 0.0
C620 C 0.70514 0.45473 0.87967 0.0
C621 C 0.75869 0.43972 0.93995 0.0
C622 C 0.79809 0.43894 0.93517 0.0
C623 C 0.7454 0.42402 0.96021 0.0
C624 C 0.70416 0.42358 0.96602 0.0
C625 C 0.67938 0.41335 0.94827 0.0
C626 C 0.64035 0.41359 0.95374 0.0
C627 C 0.62588 0.42374 0.977 0.0
C628 C 0.65044 0.43353 0.99489 0.0
C629 C 0.68949 0.43336 0.98949 0.0
H630 H 0.59565 0.42395 0.98119 0.0
H631 H 0.97471 0.41683 0.92761 0.0
H632 H 0.19085 0.60182 0.01387 0.0
H633 H 0.24843 0.57883 0.99316 0.0
H634 H 0.24738 0.64652 0.94008 0.0
H635 H 0.19036 0.66981 0.96097 0.0
H636 H 0.25293 0.58722 0.91971 0.0
H637 H 0.30906 0.64827 0.98075 0.0
H638 H 0.31868 0.66523 0.02401 0.0
H639 H 0.35924 0.58228 0.04694 0.0
H640 H 0.34923 0.56478 0.00389 0.0
H641 H 0.4264 0.58554 0.85462 0.0
H642 H 0.36716 0.59475 0.87898 0.0
H643 H 0.41184 0.53716 0.93602 0.0
H644 H 0.47164 0.52874 0.91217 0.0
H645 H 0.38208 0.58247 0.95762 0.0
H646 H 0.33673 0.52107 0.89855 0.0
H647 H 0.3268 0.49979 0.85698 0.0
H648 H 0.26386 0.57563 0.83255 0.0
H649 H 0.27394 0.59748 0.87385 0.0
C650 C 0.20316 0.61179 0.99787 0.0
C651 C 0.18644 0.63755 0.98898 0.0
C652 C 0.23588 0.5987 0.98612 0.0
C653 C 0.25183 0.61102 0.96512 0.0
C654 C 0.23526 0.63675 0.95626 0.0
C655 C 0.203 0.65008 0.96827 0.0
C656 C 0.28571 0.59709 0.9521 0.0
C657 C 0.28127 0.58627 0.92783 0.0
C658 C 0.32213 0.59465 0.96337 0.0
C659 C 0.32812 0.6052 0.9892 0.0
C660 C 0.31971 0.63362 0.99508 0.0
C661 C 0.32529 0.64334 0.01955 0.0
C662 C 0.33949 0.62484 0.03823 0.0
C663 C 0.34822 0.59659 0.03247 0.0
C664 C 0.34263 0.58677 0.00804 0.0
C665 C 0.42323 0.57455 0.87219 0.0
C666 C 0.45308 0.55593 0.88128 0.0
C667 C 0.38932 0.57964 0.88602 0.0
C668 C 0.38466 0.56617 0.90915 0.0
C669 C 0.4145 0.54746 0.91814 0.0
C670 C 0.44849 0.54243 0.90436 0.0
C671 C 0.34975 0.57342 0.92462 0.0
C672 C 0.35381 0.58289 0.94947 0.0
C673 C 0.31279 0.57391 0.91411 0.0
C674 C 0.30638 0.56096 0.88923 0.0
C675 C 0.32106 0.53326 0.88422 0.0
C676 C 0.31535 0.52109 0.86073 0.0
C677 C 0.29479 0.53637 0.84211 0.0
C678 C 0.2798 0.56383 0.84699 0.0
C679 C 0.28546 0.5761 0.87045 0.0
H680 H 0.29039 0.52692 0.82393 0.0
H681 H 0.34381 0.6324 0.05716 0.0
H682 H 0.76109 0.81168 0.45444 0.0
H683 H 0.81935 0.82601 0.43456 0.0
H684 H 0.79387 0.90899 0.46509 0.0
H685 H 0.73598 0.89484 0.48496 0.0
H686 H 0.81113 0.9104 0.41588 0.0
H687 H 0.86417 0.86333 0.48972 0.0
H688 H 0.87644 0.82355 0.51864 0.0
H689 H 0.93078 0.77409 0.45848 0.0
H690 H 0.91835 0.81348 0.4291 0.0
H691 H 0.99002 0.96862 0.40874 0.0
H692 H 0.9331 0.94847 0.42472 0.0
H693 H 0.96048 0.8763 0.37715 0.0
H694 H 0.01555 0.89775 0.3597 0.0
H695 H 0.94227 0.86592 0.43071 0.0
H696 H 0.89631 0.916 0.3584 0.0
H697 H 0.8832 0.95576 0.32973 0.0
H698 H 0.81266 0.99942 0.38643 0.0
H699 H 0.82695 0.96056 0.41603 0.0
C700 C 0.76823 0.83286 0.45714 0.0
C701 C 0.74383 0.8522 0.47108 0.0
C702 C 0.80146 0.84103 0.44577 0.0
C703 C 0.81093 0.86857 0.44837 0.0
C704 C 0.78695 0.8877 0.46268 0.0
C705 C 0.75383 0.8796 0.47396 0.0
C706 C 0.8451 0.878 0.43564 0.0
C707 C 0.83987 0.90091 0.41935 0.0
C708 C 0.88239 0.8649 0.4395 0.0
C709 C 0.88993 0.84124 0.45715 0.0
C710 C 0.87844 0.84389 0.48261 0.0
C711 C 0.88548 0.82143 0.49909 0.0
C712 C 0.90427 0.79628 0.49038 0.0
C713 C 0.91616 0.79356 0.46519 0.0
C714 C 0.90915 0.81595 0.44862 0.0
C715 C 0.98273 0.94919 0.40096 0.0
C716 C 0.00584 0.93557 0.38217 0.0
C717 C 0.95089 0.93733 0.41045 0.0
C718 C 0.94239 0.91109 0.40179 0.0
C719 C 0.9665 0.89668 0.38389 0.0
C720 C -0.00213 0.90893 0.37399 0.0
C721 C 0.90828 0.89885 0.4116 0.0
C722 C 0.91351 0.87536 0.4272 0.0
C723 C 0.87094 0.91152 0.40718 0.0
C724 C 0.86339 0.93546 0.38969 0.0
C725 C 0.87878 0.93433 0.36506 0.0
C726 C 0.87106 0.95672 0.34859 0.0
C727 C 0.84732 0.98018 0.35632 0.0
C728 C 0.83126 0.9813 0.38055 0.0
C729 C 0.83939 0.95917 0.39724 0.0
H730 H 0.84123 0.99746 0.34352 0.0
H731 H 0.90971 0.77892 0.50317 0.0
H732 H 0.32913 0.20263 0.50443 0.0
H733 H 0.2764 0.18057 0.48529 0.0
H734 H 0.32494 0.10023 0.51151 0.0
H735 H 0.37669 0.12229 0.53151 0.0
H736 H 0.28408 0.14448 0.4476 0.0
H737 H 0.25443 0.05511 0.51589 0.0
H738 H 0.25439 0.04526 0.56151 0.0
H739 H 0.2354 0.13292 0.57781 0.0
H740 H 0.2343 0.14329 0.53229 0.0
H741 H 0.18789 0.04087 0.38503 0.0
H742 H 0.23376 0.06014 0.41342 0.0
H743 H 0.14041 0.10373 0.45534 0.0
H744 H 0.09463 0.08455 0.42709 0.0
H745 H 0.20114 0.07807 0.48604 0.0
H746 H 0.17906 0.13916 0.41418 0.0
H747 H 0.17625 0.14906 0.36856 0.0
H748 H 0.29534 0.12042 0.36065 0.0
H749 H 0.29868 0.10994 0.40619 0.0
C750 C 0.32786 0.18042 0.50681 0.0
C751 C 0.35718 0.16418 0.51932 0.0
C752 C 0.29795 0.16778 0.49564 0.0
C753 C 0.29676 0.13873 0.49688 0.0
C754 C 0.32498 0.12269 0.51048 0.0
C755 C 0.35472 0.13531 0.52174 0.0
C756 C 0.26804 0.12498 0.48217 0.0
C757 C 0.2659 0.13007 0.45611 0.0
C758 C 0.24447 0.10594 0.49317 0.0
C759 C 0.24475 0.09999 0.52063 0.0
C760 C 0.2501 0.07229 0.52919 0.0
C761 C 0.25028 0.06661 0.55504 0.0
C762 C 0.24517 0.08845 0.57255 0.0
C763 C 0.23957 0.11602 0.56423 0.0
C764 C 0.23916 0.12182 0.5384 0.0
C765 C 0.17728 0.05414 0.4006 0.0
C766 C 0.13788 0.06121 0.40401 0.0
C767 C 0.20339 0.06518 0.41669 0.0
C768 C 0.19033 0.08336 0.43639 0.0
C769 C 0.15095 0.08964 0.44031 0.0
C770 C 0.12493 0.07886 0.42409 0.0
C771 C 0.21755 0.09763 0.45173 0.0
C772 C 0.21949 0.09251 0.47773 0.0
C773 C 0.24081 0.11676 0.4408 0.0
C774 C 0.23903 0.12352 0.41352 0.0
C775 C 0.20458 0.1348 0.40267 0.0
C776 C 0.20289 0.14053 0.37684 0.0
C777 C 0.23557 0.1353 0.3617 0.0
C778 C 0.27003 0.12442 0.37239 0.0
C779 C 0.27185 0.1186 0.39821 0.0
H780 H 0.23419 0.13973 0.3417 0.0
H781 H 0.24541 0.08401 0.59255 0.0
H782 H 0.43695 0.92659 0.52624 0.0
H783 H 0.38245 0.95353 0.50763 0.0
H784 H 0.31305 0.88582 0.52132 0.0
H785 H 0.36844 0.85751 0.53714 0.0
H786 H 0.30711 0.89692 0.47659 0.0
H787 H 0.29717 0.95566 0.54866 0.0
H788 H 0.31708 0.9862 0.58255 0.0
H789 H 0.34879 0.04514 0.52752 0.0
H790 H 0.32978 0.01475 0.49325 0.0
H791 H 0.14665 0.99814 0.42878 0.0
H792 H 0.19243 0.98969 0.46335 0.0
H793 H 0.27944 0.95869 0.40964 0.0
H794 H 0.23348 0.96602 0.37539 0.0
H795 H 0.26657 0.99845 0.4795 0.0
H796 H 0.31268 0.89524 0.42649 0.0
H797 H 0.28653 0.86479 0.39473 0.0
H798 H 0.17226 0.89347 0.41847 0.0
H799 H 0.19775 0.92369 0.45065 0.0
C800 C 0.41018 0.91727 0.52527 0.0
C801 C 0.40782 0.88931 0.53243 0.0
C802 C 0.37858 0.9331 0.51512 0.0
C803 C 0.34342 0.92177 0.51282 0.0
C804 C 0.33995 0.89501 0.52255 0.0
C805 C 0.3718 0.87883 0.53193 0.0
C806 C 0.31275 0.93549 0.49658 0.0
C807 C 0.29809 0.91908 0.47767 0.0
C808 C 0.30044 0.96445 0.49775 0.0
C809 C 0.31238 0.98271 0.51832 0.0
C810 C 0.3088 0.97497 0.54374 0.0
C811 C 0.3199 0.99228 0.56304 0.0
C812 C 0.33443 0.0175 0.55719 0.0
C813 C 0.33775 0.02552 0.53202 0.0
C814 C 0.32676 0.00826 0.51265 0.0
C815 C 0.17596 0.99044 0.42438 0.0
C816 C 0.18664 0.9823 0.39963 0.0
C817 C 0.20206 0.9857 0.44409 0.0
C818 C 0.23898 0.97294 0.43906 0.0
C819 C 0.25085 0.96812 0.41392 0.0
C820 C 0.22467 0.97229 0.39438 0.0
C821 C 0.26253 0.95984 0.45966 0.0
C822 C 0.2756 0.97628 0.47907 0.0
C823 C 0.27271 0.93071 0.4596 0.0
C824 C 0.25715 0.91188 0.44083 0.0
C825 C 0.28199 0.89489 0.42504 0.0
C826 C 0.26728 0.8777 0.40695 0.0
C827 C 0.22776 0.87725 0.40454 0.0
C828 C 0.20286 0.89388 0.42032 0.0
C829 C 0.21743 0.91104 0.43848 0.0
H830 H 0.21644 0.86399 0.39048 0.0
H831 H 0.34286 0.03092 0.57216 0.0
H832 H 0.67464 0.1083 0.456 0.0
H833 H 0.7319 0.08069 0.44051 0.0
H834 H 0.79039 0.09743 0.50943 0.0
H835 H 0.73282 0.12536 0.52507 0.0
H836 H 0.83444 0.10432 0.46987 0.0
H837 H 0.76133 0.03253 0.49769 0.0
H838 H 0.70529 0.00586 0.50263 0.0
H839 H 0.70541 0.98996 0.42283 0.0
H840 H 0.76097 0.01699 0.41733 0.0
H841 H 0.9925 0.01848 0.42444 0.0
H842 H 0.93683 0.02766 0.45244 0.0
H843 H 0.86309 0.03468 0.38768 0.0
H844 H 0.91863 0.02433 0.35972 0.0
H845 H 0.83059 0.00988 0.43271 0.0
H846 H 0.89638 0.08994 0.40562 0.0
H847 H 0.95417 0.1149 0.40136 0.0
H848 H 0.9683 0.11338 0.48179 0.0
H849 H 0.91089 0.08797 0.48645 0.0
C850 C 0.69957 0.10589 0.46798 0.0
C851 C 0.6992 0.11878 0.49184 0.0
C852 C 0.73223 0.09 0.45915 0.0
C853 C 0.76513 0.08645 0.47406 0.0
C854 C 0.76515 0.0997 0.49773 0.0
C855 C 0.73241 0.11576 0.50657 0.0
C856 C 0.79999 0.07017 0.46408 0.0
C857 C 0.83374 0.08343 0.46227 0.0
C858 C 0.79906 0.04297 0.45392 0.0
C859 C 0.76527 0.02695 0.45708 0.0
C860 C 0.74921 0.02357 0.48115 0.0
C861 C 0.71754 0.00835 0.48406 0.0
C862 C 0.70177 0.99625 0.46306 0.0
C863 C 0.71765 0.99934 0.43909 0.0
C864 C 0.74927 0.01459 0.43607 0.0
C865 C 0.96414 0.02044 0.41636 0.0
C866 C 0.95946 0.01988 0.39009 0.0
C867 C 0.93249 0.02588 0.4323 0.0
C868 C 0.89594 0.03169 0.42206 0.0
C869 C 0.89099 0.02956 0.3959 0.0
C870 C 0.92262 0.02376 0.37997 0.0
C871 C 0.86412 0.04443 0.4379 0.0
C872 C 0.83115 0.03056 0.44074 0.0
C873 C 0.8657 0.07099 0.44913 0.0
C874 C 0.89965 0.0868 0.44636 0.0
C875 C 0.91197 0.09477 0.42237 0.0
C876 C 0.94463 0.10901 0.41989 0.0
C877 C 0.96496 0.11565 0.44129 0.0
C878 C 0.95257 0.10817 0.46523 0.0
C879 C 0.91997 0.09386 0.4678 0.0
H880 H 0.99027 0.12666 0.43933 0.0
H881 H 0.67729 0.98444 0.46536 0.0
loop_
_geom_bond_atom_site_label_1
_geom_bond_atom_site_label_2
_geom_bond_distance
_geom_bond_site_symmetry_2
_ccdc_geom_bond_type
C0 C1 1.391 . S
C0 C4 1.391 . S
C0 H42 0.948 . S
C1 C0 1.391 . S
C1 C2 1.391 . S
C2 C1 1.391 . S
C2 H58 0.947 . S
C2 C59 1.392 . S
C3 C4 1.391 . S
C3 C7 1.397 . S
C3 C59 1.419 . S
C4 C0 1.391 . S
C4 C3 1.391 . S
C4 C5 1.399 . S
C5 C4 1.399 . S
C5 C8 1.396 . S
C5 C17 1.453 . S
C5 C18 1.684 . S
H6 C30 0.948 . S
C7 C3 1.397 . S
C7 C8 1.394 . S
C7 C26 1.723 . S
C8 C5 1.396 . S
C8 C7 1.394 . S
C8 C38 1.723 . S
H9 C32 0.947 . S
H10 C33 0.948 . S
H11 C39 0.947 1_554 S
H12 C40 0.979 . S
H13 C40 0.980 . S
H14 C40 0.983 . S
H15 C39 0.979 . S
H16 C39 0.977 . S
C17 C5 1.453 . S
C17 H46 0.982 . S
C17 H47 0.979 . S
C17 H48 0.977 . S
C18 C5 1.684 . S
C18 H43 0.979 . S
C18 H44 0.980 . S
C18 H45 0.983 . S
C19 C20 1.393 1_554 S
C19 C24 1.390 . S
C19 H49 0.947 . S
C20 C19 1.393 1_556 S
C20 C21 1.391 . S
C21 C20 1.391 . S
C21 C22 1.392 . S
C21 H50 0.947 . S
C22 C21 1.392 . S
C22 C23 1.419 . S
C22 H51 0.948 . S
C23 C22 1.419 . S
C23 C24 1.391 1_556 S
C23 C27 1.397 1_556 S
C24 C19 1.390 . S
C24 C23 1.391 1_554 S
C24 C25 1.399 . S
C25 C24 1.399 . S
C25 C26 1.396 . S
C25 C28 1.453 . S
C25 C29 1.684 . S
C26 C7 1.723 . S
C26 C25 1.396 . S
C26 C27 1.394 . S
C27 C23 1.397 1_554 S
C27 C26 1.394 . S
C27 C37 1.723 . S
C28 C25 1.453 . S
C28 H52 0.982 . S
C28 H53 0.979 . S
C28 H54 0.977 . S
C29 C25 1.684 . S
C29 H55 0.979 . S
C29 H56 0.980 . S
C29 H57 0.983 . S
C30 H6 0.948 . S
C30 C31 1.391 1_455 S
C30 C35 1.391 . S
C31 C30 1.391 1_655 S
C31 C32 1.391 1_556 S
C32 H9 0.947 . S
C32 C31 1.391 1_554 S
C32 C33 1.392 1_655 S
C33 H10 0.948 . S
C33 C32 1.392 1_455 S
C33 C34 1.419 . S
C34 C33 1.419 . S
C34 C35 1.391 1_554 S
C34 C38 1.397 . S
C35 C30 1.391 . S
C35 C34 1.391 1_556 S
C35 C36 1.399 . S
C36 C35 1.399 . S
C36 C37 1.396 1_556 S
C36 C39 1.453 . S
C36 C40 1.684 . S
C37 C27 1.723 . S
C37 C36 1.396 1_554 S
C37 C38 1.394 . S
C38 C8 1.723 . S
C38 C34 1.397 . S
C38 C37 1.394 . S
C39 H11 0.947 1_556 S
C39 H15 0.979 . S
C39 H16 0.977 . S
C39 C36 1.453 . S
C40 H12 0.979 . S
C40 H13 0.980 . S
C40 H14 0.983 . S
C40 C36 1.684 . S
H41 C59 0.948 . S
H42 C0 0.948 . S
H43 C18 0.979 . S
H44 C18 0.980 . S
H45 C18 0.983 . S
H46 C17 0.982 . S
H47 C17 0.979 . S
H48 C17 0.977 . S
H49 C19 0.947 . S
H50 C21 0.947 . S
H51 C22 0.948 . S
H52 C28 0.982 . S
H53 C28 0.979 . S
H54 C28 0.977 . S
H55 C29 0.979 . S
H56 C29 0.980 . S
H57 C29 0.983 . S
H58 C2 0.947 . S
C59 C2 1.392 . S
C59 C3 1.419 . S
C59 H41 0.948 . S
C60 C61 1.391 1_554 S
C60 C64 1.391 . S
C60 H102 0.948 . S
C61 C60 1.391 1_556 S
C61 C62 1.391 . S
C62 C61 1.391 . S
C62 H118 0.947 . S
C62 C119 1.392 . S
C63 C64 1.382 1_556 S
C63 C67 1.388 1_556 S
C63 C119 1.433 . S
C64 C60 1.391 . S
C64 C63 1.382 1_554 S
C64 C65 1.399 . S
C65 C64 1.399 . S
C65 C68 1.396 . S
C65 C77 1.453 . S
C65 C78 1.684 . S
H66 C90 0.948 . S
C67 C63 1.388 1_554 S
C67 C68 1.394 . S
C67 C86 1.723 1_455 S
C68 C65 1.396 . S
C68 C67 1.394 . S
C68 C98 1.723 . S
H69 C92 0.947 . S
H70 C93 0.948 . S
H71 C99 0.982 . S
H72 C100 0.979 . S
H73 C100 0.980 . S
H74 C100 0.983 . S
H75 C99 0.979 . S
H76 C99 0.977 . S
C77 C65 1.453 . S
C77 H106 0.982 . S
C77 H107 0.979 . S
C77 H108 0.977 . S
C78 C65 1.684 . S
C78 H103 0.979 . S
C78 H104 0.980 . S
C78 H105 0.983 . S
C79 C80 1.391 . S
C79 C84 1.391 . S
C79 H109 0.948 . S
C80 C79 1.391 . S
C80 C81 1.391 1_556 S
C81 C80 1.391 1_554 S
C81 C82 1.392 . S
C81 H110 0.947 . S
C82 C81 1.392 . S
C82 C83 1.419 . S
C82 H111 0.948 . S
C83 C82 1.419 . S
C83 C84 1.391 1_554 S
C83 C87 1.397 . S
C84 C79 1.391 . S
C84 C83 1.391 1_556 S
C84 C85 1.399 . S
C85 C84 1.399 . S
C85 C86 1.396 1_556 S
C85 C88 1.453 . S
C85 C89 1.684 . S
C86 C67 1.723 1_655 S
C86 C85 1.396 1_554 S
C86 C87 1.394 . S
C87 C83 1.397 . S
C87 C86 1.394 . S
C87 C97 1.723 . S
C88 C85 1.453 . S
C88 H112 0.982 . S
C88 H113 0.979 . S
C88 H114 0.977 1_655 S
C89 C85 1.684 . S
C89 H115 0.974 1_556 S
C89 H116 0.980 1_655 S
C89 H117 0.983 . S
C90 H66 0.948 . S
C90 C91 1.391 1_655 S
C90 C95 1.391 . S
C91 C90 1.391 1_455 S
C91 C92 1.391 . S
C92 H69 0.947 . S
C92 C91 1.391 . S
C92 C93 1.392 . S
C93 H70 0.948 . S
C93 C92 1.392 . S
C93 C94 1.419 . S
C94 C93 1.419 . S
C94 C95 1.391 1_455 S
C94 C98 1.397 . S
C95 C90 1.391 . S
C95 C94 1.391 1_655 S
C95 C96 1.399 . S
C96 C95 1.399 . S
C96 C97 1.396 . S
C96 C99 1.453 . S
C96 C100 1.684 . S
C97 C87 1.723 . S
C97 C96 1.396 . S
C97 C98 1.394 1_655 S
C98 C68 1.723 . S
C98 C94 1.397 . S
C98 C97 1.394 1_455 S
C99 H71 0.982 . S
C99 H75 0.979 . S
C99 H76 0.977 . S
C99 C96 1.453 . S
C100 H72 0.979 . S
C100 H73 0.980 . S
C100 H74 0.983 . S
C100 C96 1.684 . S
H101 C119 0.948 . S
H102 C60 0.948 . S
H103 C78 0.979 . S
H104 C78 0.980 . S
H105 C78 0.983 . S
H106 C77 0.982 . S
H107 C77 0.979 . S
H108 C77 0.977 . S
H109 C79 0.948 . S
H110 C81 0.947 . S
H111 C82 0.948 . S
H112 C88 0.982 . S
H113 C88 0.979 . S
H114 C88 0.977 1_455 S
H115 C89 0.974 1_554 S
H116 C89 0.980 1_455 S
H117 C89 0.983 . S
H118 C62 0.947 . S
C119 C62 1.392 . S
C119 C63 1.433 . S
C119 H101 0.948 . S
C120 C121 1.391 . S
C120 C124 1.391 . S
C120 H162 0.948 . S
C121 C120 1.391 . S
C121 C122 1.391 . S
C122 C121 1.391 . S
C122 H178 0.947 . S
C122 C179 1.392 . S
C123 C124 1.391 . S
C123 C127 1.397 . S
C123 C179 1.419 . S
C124 C120 1.391 . S
C124 C123 1.391 . S
C124 C125 1.399 . S
C125 C124 1.399 . S
C125 C128 1.396 . S
C125 C137 1.453 . S
C125 C138 1.684 . S
H126 C150 0.948 . S
C127 C123 1.397 . S
C127 C128 1.394 . S
C127 C146 1.723 . S
C128 C125 1.396 . S
C128 C127 1.394 . S
C128 C158 1.723 . S
H129 C152 0.947 . S
H130 C153 0.948 . S
H131 C159 0.982 . S
H132 C160 0.979 . S
H133 C160 0.980 . S
H134 C160 0.983 . S
H135 C159 0.979 . S
H136 C159 0.977 . S
C137 C125 1.453 . S
C137 H166 0.982 . S
C137 H167 0.979 . S
C137 H168 0.977 . S
C138 C125 1.684 . S
C138 H163 0.979 . S
C138 H164 0.980 . S
C138 H165 0.983 . S
C139 C140 1.391 . S
C139 C144 1.391 . S
C139 H169 0.948 . S
C140 C139 1.391 . S
C140 C141 1.391 . S
C141 C140 1.391 . S
C141 C142 1.392 . S
C141 H170 0.947 . S
C142 C141 1.392 . S
C142 C143 1.419 . S
C142 H171 0.948 . S
C143 C142 1.419 . S
C143 C144 1.391 . S
C143 C147 1.397 . S
C144 C139 1.391 . S
C144 C143 1.391 . S
C144 C145 1.399 . S
C145 C144 1.399 . S
C145 C146 1.396 . S
C145 C148 1.453 . S
C145 C149 1.684 . S
C146 C127 1.723 . S
C146 C145 1.396 . S
C146 C147 1.394 . S
C147 C143 1.397 . S
C147 C146 1.394 . S
C147 C157 1.723 . S
C148 C145 1.453 . S
C148 H172 0.982 . S
C148 H173 0.979 . S
C148 H174 0.977 . S
C149 C145 1.684 . S
C149 H175 0.979 . S
C149 H176 0.980 . S
C149 H177 0.983 . S
C150 H126 0.948 . S
C150 C151 1.391 . S
C150 C155 1.391 . S
C151 C150 1.391 . S
C151 C152 1.391 . S
C152 H129 0.947 . S
C152 C151 1.391 . S
C152 C153 1.392 . S
C153 H130 0.948 . S
C153 C152 1.392 . S
C153 C154 1.419 . S
C154 C153 1.419 . S
C154 C155 1.391 . S
C154 C158 1.397 . S
C155 C150 1.391 . S
C155 C154 1.391 . S
C155 C156 1.399 . S
C156 C155 1.399 . S
C156 C157 1.396 . S
C156 C159 1.453 . S
C156 C160 1.684 . S
C157 C147 1.723 . S
C157 C156 1.396 . S
C157 C158 1.394 . S
C158 C128 1.723 . S
C158 C154 1.397 . S
C158 C157 1.394 . S
C159 H131 0.982 . S
C159 H135 0.979 . S
C159 H136 0.977 . S
C159 C156 1.453 . S
C160 H132 0.979 . S
C160 H133 0.980 . S
C160 H134 0.983 . S
C160 C156 1.684 . S
H161 C179 0.948 . S
H162 C120 0.948 . S
H163 C138 0.979 . S
H164 C138 0.980 . S
H165 C138 0.983 . S
H166 C137 0.982 . S
H167 C137 0.979 . S
H168 C137 0.977 . S
H169 C139 0.948 . S
H170 C141 0.947 . S
H171 C142 0.948 . S
H172 C148 0.982 . S
H173 C148 0.979 . S
H174 C148 0.977 . S
H175 C149 0.979 . S
H176 C149 0.980 . S
H177 C149 0.983 . S
H178 C122 0.947 . S
C179 C122 1.392 . S
C179 C123 1.419 . S
C179 H161 0.948 . S
C180 C181 1.391 . S
C180 C184 1.391 . S
C180 H222 0.948 . S
C181 C180 1.391 . S
C181 C182 1.391 . S
C182 C181 1.391 . S
C182 H238 0.947 . S
C182 C239 1.392 . S
C183 C184 1.391 . S
C183 C187 1.397 . S
C183 C239 1.419 . S
C184 C180 1.391 . S
C184 C183 1.391 . S
C184 C185 1.399 . S
C185 C184 1.399 . S
C185 C188 1.396 . S
C185 C197 1.453 . S
C185 C198 1.684 . S
H186 C210 0.948 . S
C187 C183 1.397 . S
C187 C188 1.394 . S
C187 C206 1.723 . S
C188 C185 1.396 . S
C188 C187 1.394 . S
C188 C218 1.723 . S
H189 C212 0.947 . S
H190 C213 0.948 . S
H191 C219 0.982 . S
H192 C220 0.979 . S
H193 C220 0.980 . S
H194 C220 0.983 . S
H195 C219 0.979 . S
H196 C219 0.977 . S
C197 C185 1.453 . S
C197 H226 0.982 . S
C197 H227 0.979 . S
C197 H228 0.977 . S
C198 C185 1.684 . S
C198 H223 0.979 . S
C198 H224 0.980 . S
C198 H225 0.983 . S
C199 C200 1.391 . S
C199 C204 1.391 . S
C199 H229 0.948 . S
C200 C199 1.391 . S
C200 C201 1.391 . S
C201 C200 1.391 . S
C201 C202 1.392 . S
C201 H230 0.947 . S
C202 C201 1.392 . S
C202 C203 1.419 . S
C202 H231 0.948 . S
C203 C202 1.419 . S
C203 C204 1.391 . S
C203 C207 1.397 . S
C204 C199 1.391 . S
C204 C203 1.391 . S
C204 C205 1.399 . S
C205 C204 1.399 . S
C205 C206 1.396 . S
C205 C208 1.453 . S
C205 C209 1.684 . S
C206 C187 1.723 . S
C206 C205 1.396 . S
C206 C207 1.394 . S
C207 C203 1.397 . S
C207 C206 1.394 . S
C207 C217 1.723 . S
C208 C205 1.453 . S
C208 H232 0.982 . S
C208 H233 0.979 . S
C208 H234 0.977 . S
C209 C205 1.684 . S
C209 H235 0.979 . S
C209 H236 0.980 . S
C209 H237 0.983 . S
C210 H186 0.948 . S
C210 C211 1.391 . S
C210 C215 1.391 . S
C211 C210 1.391 . S
C211 C212 1.391 . S
C212 H189 0.947 . S
C212 C211 1.391 . S
C212 C213 1.392 . S
C213 H190 0.948 . S
C213 C212 1.392 . S
C213 C214 1.419 . S
C214 C213 1.419 . S
C214 C215 1.391 . S
C214 C218 1.397 . S
C215 C210 1.391 . S
C215 C214 1.391 . S
C215 C216 1.399 . S
C216 C215 1.399 . S
C216 C217 1.396 . S
C216 C219 1.453 . S
C216 C220 1.684 . S
C217 C207 1.723 . S
C217 C216 1.396 . S
C217 C218 1.394 . S
C218 C188 1.723 . S
C218 C214 1.397 . S
C218 C217 1.394 . S
C219 H191 0.982 . S
C219 H195 0.979 . S
C219 H196 0.977 . S
C219 C216 1.453 . S
C220 H192 0.979 . S
C220 H193 0.980 . S
C220 H194 0.983 . S
C220 C216 1.684 . S
H221 C239 0.948 . S
H222 C180 0.948 . S
H223 C198 0.979 . S
H224 C198 0.980 . S
H225 C198 0.983 . S
H226 C197 0.982 . S
H227 C197 0.979 . S
H228 C197 0.977 . S
H229 C199 0.948 . S
H230 C201 0.947 . S
H231 C202 0.948 . S
H232 C208 0.982 . S
H233 C208 0.979 . S
H234 C208 0.977 . S
H235 C209 0.979 . S
H236 C209 0.980 . S
H237 C209 0.983 . S
H238 C182 0.947 . S
C239 C182 1.392 . S
C239 C183 1.419 . S
C239 H221 0.948 . S
Zn240 O246 1.920 . S
Zn240 O252 1.898 . S
Zn240 O255 1.905 . S
Zn241 O249 1.905 . S
Zn241 O250 1.898 . S
Zn241 O258 1.920 . S
Zn242 O245 2.080 . S
Zn242 O248 2.114 1_545 S
Zn242 O251 2.120 1_545 S
Zn242 O253 2.120 . S
Zn242 O254 2.114 . S
Zn242 O257 2.080 1_545 S
C243 O248 1.166 . S
C243 O249 1.182 . S
C244 O250 1.167 . S
C244 O251 1.299 . S
O245 Zn242 2.080 . S
O245 C259 1.305 . S
O246 Zn240 1.920 . S
O246 C259 1.234 . S
C247 O252 1.167 . S
C247 O253 1.299 . S
O248 Zn242 2.114 1_565 S
O248 C243 1.166 . S
O249 Zn241 1.905 . S
O249 C243 1.182 . S
O250 Zn241 1.898 . S
O250 C244 1.167 . S
O251 Zn242 2.120 1_565 S
O251 C244 1.299 . S
O252 Zn240 1.898 . S
O252 C247 1.167 . S
O253 Zn242 2.120 . S
O253 C247 1.299 . S
O254 Zn242 2.114 . S
O254 C256 1.164 1_455 S
O255 Zn240 1.905 . S
O255 C256 1.180 1_455 S
C256 O254 1.164 1_655 S
C256 O255 1.180 1_655 S
O257 Zn242 2.080 1_565 S
O257 C260 1.305 . S
O258 Zn241 1.920 . S
O258 C260 1.234 . S
C259 O245 1.305 . S
C259 O246 1.234 . S
C260 O257 1.305 . S
C260 O258 1.234 . S
Zn261 O267 1.920 . S
Zn261 O273 1.898 . S
Zn261 O276 1.905 . S
Zn262 O270 1.905 . S
Zn262 O271 1.898 . S
Zn262 O279 1.920 . S
Zn263 O266 2.080 . S
Zn263 O269 2.114 . S
Zn263 O272 2.120 . S
Zn263 O274 2.120 . S
Zn263 O275 2.114 . S
Zn263 O278 2.080 . S
C264 O269 1.166 . S
C264 O270 1.182 . S
C265 O271 1.167 . S
C265 O272 1.299 . S
O266 Zn263 2.080 . S
O266 C280 1.305 . S
O267 Zn261 1.920 . S
O267 C280 1.234 . S
C268 O273 1.167 . S
C268 O274 1.299 . S
O269 Zn263 2.114 . S
O269 C264 1.166 . S
O270 Zn262 1.905 . S
O270 C264 1.182 . S
O271 Zn262 1.898 . S
O271 C265 1.167 . S
O272 Zn263 2.120 . S
O272 C265 1.299 . S
O273 Zn261 1.898 . S
O273 C268 1.167 . S
O274 Zn263 2.120 . S
O274 C268 1.299 . S
O275 Zn263 2.114 . S
O275 C277 1.166 . S
O276 Zn261 1.905 . S
O276 C277 1.182 . S
C277 O275 1.166 . S
C277 O276 1.182 . S
O278 Zn263 2.080 . S
O278 C281 1.305 . S
O279 Zn262 1.920 . S
O279 C281 1.234 . S
C280 O266 1.305 . S
C280 O267 1.234 . S
C281 O278 1.305 . S
C281 O279 1.234 . S
H282 C300 0.951 . S
H283 C302 0.951 . S
H284 C304 0.950 . S
H285 C305 0.950 . S
H286 C307 0.950 . S
H287 C310 0.950 . S
H288 C311 0.950 1_655 S
H289 C313 0.950 . S
H290 C314 0.950 . S
H291 C315 0.951 . S
H292 C317 0.951 . S
H293 C319 0.950 . S
H294 C320 0.950 . S
H295 C322 0.950 . S
H296 C325 0.950 . S
H297 C326 0.950 . S
H298 C328 0.950 . S
H299 C329 0.950 . S
C300 H282 0.951 . S
C300 C301 1.366 . S
C300 C302 1.388 . S
C301 C300 1.366 . S
C301 C305 1.385 . S
C302 H283 0.951 . S
C302 C300 1.388 . S
C302 C303 1.366 . S
C303 C302 1.366 . S
C303 C304 1.414 . S
C303 C306 1.499 . S
C304 H284 0.950 . S
C304 C303 1.414 . S
C304 C305 1.374 . S
C305 H285 0.950 . S
C305 C301 1.385 . S
C305 C304 1.374 . S
C306 C303 1.499 . S
C306 C307 1.373 . S
C306 C308 1.389 . S
C307 H286 0.950 . S
C307 C306 1.373 . S
C307 C323 1.377 . S
C308 C306 1.389 . S
C308 C309 1.524 . S
C308 C322 1.377 . S
C309 C308 1.524 . S
C309 C310 1.397 . S
C309 C314 1.363 . S
C310 H287 0.950 . S
C310 C309 1.397 . S
C310 C311 1.334 . S
C311 H288 0.950 1_455 S
C311 C310 1.334 . S
C311 C312 1.287 . S
C312 C311 1.287 . S
C312 C313 1.524 . S
C312 H331 0.913 1_455 S
C313 H289 0.950 . S
C313 C312 1.524 . S
C313 C314 1.415 . S
C314 H290 0.950 . S
C314 C309 1.363 . S
C314 C313 1.415 . S
C315 H291 0.951 . S
C315 C316 1.366 . S
C315 C317 1.388 . S
C316 C315 1.366 . S
C316 C320 1.385 . S
C317 H292 0.951 . S
C317 C315 1.388 . S
C317 C318 1.366 . S
C318 C317 1.366 . S
C318 C319 1.414 . S
C318 C321 1.499 . S
C319 H293 0.950 . S
C319 C318 1.414 . S
C319 C320 1.374 . S
C320 H294 0.950 . S
C320 C316 1.385 . S
C320 C319 1.374 . S
C321 C318 1.499 . S
C321 C322 1.373 . S
C321 C323 1.389 . S
C322 H295 0.950 . S
C322 C308 1.377 . S
C322 C321 1.373 . S
C323 C307 1.377 . S
C323 C321 1.389 . S
C323 C324 1.524 . S
C324 C323 1.524 . S
C324 C325 1.397 . S
C324 C329 1.363 . S
C325 H296 0.950 . S
C325 C324 1.397 . S
C325 C326 1.334 . S
C326 H297 0.950 . S
C326 C325 1.334 . S
C326 C327 1.287 . S
C327 C326 1.287 . S
C327 C328 1.524 . S
C327 H330 0.999 . S
C328 H298 0.950 . S
C328 C327 1.524 . S
C328 C329 1.415 . S
C329 H299 0.950 . S
C329 C324 1.363 . S
C329 C328 1.415 . S
H330 C327 0.999 . S
H331 C312 0.913 1_655 S
H332 C350 0.951 . S
H333 C352 0.951 . S
H334 C354 0.950 . S
H335 C355 0.950 . S
H336 C357 0.950 . S
H337 C360 0.950 1_455 S
H338 C361 0.950 . S
H339 C363 0.950 . S
H340 C364 0.950 . S
H341 C365 0.951 . S
H342 C367 0.951 . S
H343 C369 0.950 1_655 S
H344 C370 0.950 1_655 S
H345 C372 0.950 1_655 S
H346 C375 0.950 . S
H347 C376 0.950 . S
H348 C378 0.950 . S
H349 C379 0.950 . S
C350 H332 0.951 . S
C350 C351 1.366 1_655 S
C350 C352 1.388 . S
C351 C350 1.366 1_455 S
C351 C355 1.385 . S
C352 H333 0.951 . S
C352 C350 1.388 . S
C352 C353 1.366 1_655 S
C353 C352 1.366 1_455 S
C353 C354 1.414 . S
C353 C356 1.499 . S
C354 H334 0.950 . S
C354 C353 1.414 . S
C354 C355 1.374 . S
C355 H335 0.950 . S
C355 C351 1.385 . S
C355 C354 1.374 . S
C356 C353 1.499 . S
C356 C357 1.373 . S
C356 C358 1.397 . S
C357 H336 0.950 . S
C357 C356 1.373 . S
C357 C373 1.377 . S
C358 C356 1.397 . S
C358 C359 1.515 1_455 S
C358 C372 1.379 . S
C359 C358 1.515 1_655 S
C359 C360 1.397 . S
C359 C364 1.363 . S
C360 H337 0.950 1_655 S
C360 C359 1.397 . S
C360 C361 1.334 . S
C361 H338 0.950 . S
C361 C360 1.334 . S
C361 C362 1.287 . S
C362 C361 1.287 . S
C362 C363 1.524 . S
C362 H381 0.913 . S
C363 H339 0.950 . S
C363 C362 1.524 . S
C363 C364 1.415 . S
C364 H340 0.950 . S
C364 C359 1.363 . S
C364 C363 1.415 . S
C365 H341 0.951 . S
C365 C366 1.366 . S
C365 C367 1.388 . S
C366 C365 1.366 . S
C366 C370 1.385 . S
C367 H342 0.951 . S
C367 C365 1.388 . S
C367 C368 1.366 . S
C368 C367 1.366 . S
C368 C369 1.414 . S
C368 C371 1.499 . S
C369 H343 0.950 1_455 S
C369 C368 1.414 . S
C369 C370 1.374 . S
C370 H344 0.950 1_455 S
C370 C366 1.385 . S
C370 C369 1.374 . S
C371 C368 1.499 . S
C371 C372 1.373 . S
C371 C373 1.389 . S
C372 H345 0.950 1_455 S
C372 C358 1.379 . S
C372 C371 1.373 . S
C373 C357 1.377 . S
C373 C371 1.389 . S
C373 C374 1.524 . S
C374 C373 1.524 . S
C374 C375 1.397 . S
C374 C379 1.363 . S
C375 H346 0.950 . S
C375 C374 1.397 . S
C375 C376 1.334 . S
C376 H347 0.950 . S
C376 C375 1.334 . S
C376 C377 1.287 . S
C377 C376 1.287 . S
C377 C378 1.524 . S
C377 H380 0.999 . S
C378 H348 0.950 . S
C378 C377 1.524 . S
C378 C379 1.415 . S
C379 H349 0.950 . S
C379 C374 1.363 . S
C379 C378 1.415 . S
H380 C377 0.999 . S
H381 C362 0.913 . S
H382 C400 0.951 . S
H383 C402 0.951 . S
H384 C404 0.950 . S
H385 C405 0.950 . S
H386 C407 0.950 . S
H387 C410 0.950 . S
H388 C411 0.950 . S
H389 C413 0.950 . S
H390 C414 0.950 . S
H391 C415 0.951 . S
H392 C417 0.951 . S
H393 C419 0.950 . S
H394 C420 0.950 . S
H395 C422 0.950 . S
H396 C425 0.950 . S
H397 C426 0.950 . S
H398 C428 0.950 . S
H399 C429 0.950 . S
C400 H382 0.951 . S
C400 C401 1.366 . S
C400 C402 1.388 . S
C401 C400 1.366 . S
C401 C405 1.385 . S
C402 H383 0.951 . S
C402 C400 1.388 . S
C402 C403 1.366 . S
C403 C402 1.366 . S
C403 C404 1.414 . S
C403 C406 1.499 . S
C404 H384 0.950 . S
C404 C403 1.414 . S
C404 C405 1.374 . S
C405 H385 0.950 . S
C405 C401 1.385 . S
C405 C404 1.374 . S
C406 C403 1.499 . S
C406 C407 1.373 . S
C406 C408 1.389 . S
C407 H386 0.950 . S
C407 C406 1.373 . S
C407 C423 1.377 . S
C408 C406 1.389 . S
C408 C409 1.524 . S
C408 C422 1.377 . S
C409 C408 1.524 . S
C409 C410 1.397 . S
C409 C414 1.363 . S
C410 H387 0.950 . S
C410 C409 1.397 . S
C410 C411 1.334 . S
C411 H388 0.950 . S
C411 C410 1.334 . S
C411 C412 1.287 . S
C412 C411 1.287 . S
C412 C413 1.524 . S
C412 H431 0.913 . S
C413 H389 0.950 . S
C413 C412 1.524 . S
C413 C414 1.415 . S
C414 H390 0.950 . S
C414 C409 1.363 . S
C414 C413 1.415 . S
C415 H391 0.951 . S
C415 C416 1.366 . S
C415 C417 1.388 . S
C416 C415 1.366 . S
C416 C420 1.385 . S
C417 H392 0.951 . S
C417 C415 1.388 . S
C417 C418 1.366 . S
C418 C417 1.366 . S
C418 C419 1.414 . S
C418 C421 1.499 . S
C419 H393 0.950 . S
C419 C418 1.414 . S
C419 C420 1.374 . S
C420 H394 0.950 . S
C420 C416 1.385 . S
C420 C419 1.374 . S
C421 C418 1.499 . S
C421 C422 1.373 . S
C421 C423 1.389 . S
C422 H395 0.950 . S
C422 C408 1.377 . S
C422 C421 1.373 . S
C423 C407 1.377 . S
C423 C421 1.389 . S
C423 C424 1.524 . S
C424 C423 1.524 . S
C424 C425 1.397 . S
C424 C429 1.363 . S
C425 H396 0.950 . S
C425 C424 1.397 . S
C425 C426 1.334 . S
C426 H397 0.950 . S
C426 C425 1.334 . S
C426 C427 1.287 . S
C427 C426 1.287 . S
C427 C428 1.524 . S
C427 H430 0.999 . S
C428 H398 0.950 . S
C428 C427 1.524 . S
C428 C429 1.415 . S
C429 H399 0.950 . S
C429 C424 1.363 . S
C429 C428 1.415 . S
H430 C427 0.999 . S
H431 C412 0.913 . S
H432 C450 0.951 . S
H433 C452 0.951 . S
H434 C454 0.950 . S
H435 C455 0.950 . S
H436 C457 0.950 . S
H437 C460 0.950 . S
H438 C461 0.950 . S
H439 C463 0.950 . S
H440 C464 0.950 . S
H441 C465 0.951 . S
H442 C467 0.951 . S
H443 C469 0.950 . S
H444 C470 0.950 . S
H445 C472 0.950 . S
H446 C475 0.950 . S
H447 C476 0.950 . S
H448 C478 0.950 . S
H449 C479 0.950 . S
C450 H432 0.951 . S
C450 C451 1.366 . S
C450 C452 1.388 . S
C451 C450 1.366 . S
C451 C455 1.385 . S
C452 H433 0.951 . S
C452 C450 1.388 . S
C452 C453 1.366 . S
C453 C452 1.366 . S
C453 C454 1.414 . S
C453 C456 1.499 . S
C454 H434 0.950 . S
C454 C453 1.414 . S
C454 C455 1.374 . S
C455 H435 0.950 . S
C455 C451 1.385 . S
C455 C454 1.374 . S
C456 C453 1.499 . S
C456 C457 1.373 . S
C456 C458 1.389 . S
C457 H436 0.950 . S
C457 C456 1.373 . S
C457 C473 1.377 . S
C458 C456 1.389 . S
C458 C459 1.524 . S
C458 C472 1.377 . S
C459 C458 1.524 . S
C459 C460 1.397 . S
C459 C464 1.363 . S
C460 H437 0.950 . S
C460 C459 1.397 . S
C460 C461 1.334 . S
C461 H438 0.950 . S
C461 C460 1.334 . S
C461 C462 1.287 . S
C462 C461 1.287 . S
C462 C463 1.524 . S
C462 H481 0.913 . S
C463 H439 0.950 . S
C463 C462 1.524 . S
C463 C464 1.415 . S
C464 H440 0.950 . S
C464 C459 1.363 . S
C464 C463 1.415 . S
C465 H441 0.951 . S
C465 C466 1.366 . S
C465 C467 1.388 . S
C466 C465 1.366 . S
C466 C470 1.385 . S
C467 H442 0.951 . S
C467 C465 1.388 . S
C467 C468 1.366 . S
C468 C467 1.366 . S
C468 C469 1.414 . S
C468 C471 1.499 . S
C469 H443 0.950 . S
C469 C468 1.414 . S
C469 C470 1.374 . S
C470 H444 0.950 . S
C470 C466 1.385 . S
C470 C469 1.374 . S
C471 C468 1.499 . S
C471 C472 1.373 . S
C471 C473 1.389 . S
C472 H445 0.950 . S
C472 C458 1.377 . S
C472 C471 1.373 . S
C473 C457 1.377 . S
C473 C471 1.389 . S
C473 C474 1.524 . S
C474 C473 1.524 . S
C474 C475 1.397 . S
C474 C479 1.363 . S
C475 H446 0.950 . S
C475 C474 1.397 . S
C475 C476 1.334 . S
C476 H447 0.950 . S
C476 C475 1.334 . S
C476 C477 1.287 . S
C477 C476 1.287 . S
C477 C478 1.524 . S
C477 H480 0.999 . S
C478 H448 0.950 . S
C478 C477 1.524 . S
C478 C479 1.415 . S
C479 H449 0.950 . S
C479 C474 1.363 . S
C479 C478 1.415 . S
H480 C477 0.999 . S
H481 C462 0.913 . S
H482 C500 0.951 . S
H483 C502 0.951 . S
H484 C504 0.950 . S
H485 C505 0.950 . S
H486 C507 0.950 . S
H487 C510 0.950 . S
H488 C511 0.950 . S
H489 C513 0.950 . S
H490 C514 0.950 . S
H491 C515 0.951 . S
H492 C517 0.951 . S
H493 C519 0.950 . S
H494 C520 0.950 . S
H495 C522 0.950 . S
H496 C525 0.950 . S
H497 C526 0.950 . S
H498 C528 0.950 . S
H499 C529 0.950 . S
C500 H482 0.951 . S
C500 C501 1.366 . S
C500 C502 1.388 . S
C501 C500 1.366 . S
C501 C505 1.385 . S
C502 H483 0.951 . S
C502 C500 1.388 . S
C502 C503 1.366 . S
C503 C502 1.366 . S
C503 C504 1.414 . S
C503 C506 1.499 . S
C504 H484 0.950 . S
C504 C503 1.414 . S
C504 C505 1.374 . S
C505 H485 0.950 . S
C505 C501 1.385 . S
C505 C504 1.374 . S
C506 C503 1.499 . S
C506 C507 1.373 . S
C506 C508 1.389 . S
C507 H486 0.950 . S
C507 C506 1.373 . S
C507 C523 1.377 . S
C508 C506 1.389 . S
C508 C509 1.524 . S
C508 C522 1.377 . S
C509 C508 1.524 . S
C509 C510 1.397 . S
C509 C514 1.363 . S
C510 H487 0.950 . S
C510 C509 1.397 . S
C510 C511 1.334 . S
C511 H488 0.950 . S
C511 C510 1.334 . S
C511 C512 1.287 . S
C512 C511 1.287 . S
C512 C513 1.524 . S
C512 H531 0.913 . S
C513 H489 0.950 . S
C513 C512 1.524 . S
C513 C514 1.415 . S
C514 H490 0.950 . S
C514 C509 1.363 . S
C514 C513 1.415 . S
C515 H491 0.951 . S
C515 C516 1.366 . S
C515 C517 1.388 . S
C516 C515 1.366 . S
C516 C520 1.385 . S
C517 H492 0.951 . S
C517 C515 1.388 . S
C517 C518 1.366 . S
C518 C517 1.366 . S
C518 C519 1.414 . S
C518 C521 1.499 . S
C519 H493 0.950 . S
C519 C518 1.414 . S
C519 C520 1.374 . S
C520 H494 0.950 . S
C520 C516 1.385 . S
C520 C519 1.374 . S
C521 C518 1.499 . S
C521 C522 1.373 . S
C521 C523 1.389 . S
C522 H495 0.950 . S
C522 C508 1.377 . S
C522 C521 1.373 . S
C523 C507 1.377 . S
C523 C521 1.389 . S
C523 C524 1.524 . S
C524 C523 1.524 . S
C524 C525 1.397 . S
C524 C529 1.363 1_556 S
C525 H496 0.950 . S
C525 C524 1.397 . S
C525 C526 1.334 1_556 S
C526 H497 0.950 . S
C526 C525 1.334 1_554 S
C526 C527 1.287 . S
C527 C526 1.287 . S
C527 C528 1.524 . S
C527 H530 0.999 . S
C528 H498 0.950 . S
C528 C527 1.524 . S
C528 C529 1.415 . S
C529 H499 0.950 . S
C529 C524 1.363 1_554 S
C529 C528 1.415 . S
H530 C527 0.999 . S
H531 C512 0.913 . S
H532 C550 0.951 . S
H533 C552 0.951 . S
H534 C554 0.950 . S
H535 C555 0.969 . S
H536 C557 0.950 . S
H537 C560 0.950 . S
H538 C561 0.950 . S
H539 C563 0.950 . S
H540 C564 0.950 . S
H541 C565 0.951 . S
H542 C567 0.951 . S
H543 C569 0.950 . S
H544 C570 0.950 . S
H545 C572 0.950 . S
H546 C575 0.950 . S
H547 C576 0.950 . S
H548 C578 0.950 . S
H549 C579 0.950 . S
C550 H532 0.951 . S
C550 C551 1.366 . S
C550 C552 1.388 . S
C551 C550 1.366 . S
C551 C555 1.385 . S
C552 H533 0.951 . S
C552 C550 1.388 . S
C552 C553 1.366 . S
C553 C552 1.366 . S
C553 C554 1.414 . S
C553 C556 1.499 . S
C554 H534 0.950 . S
C554 C553 1.414 . S
C554 C555 1.374 . S
C555 H535 0.969 . S
C555 C551 1.385 . S
C555 C554 1.374 . S
C556 C553 1.499 . S
C556 C557 1.373 . S
C556 C558 1.389 . S
C557 H536 0.950 . S
C557 C556 1.373 . S
C557 C573 1.377 . S
C558 C556 1.389 . S
C558 C559 1.524 . S
C558 C572 1.377 . S
C559 C558 1.524 . S
C559 C560 1.397 . S
C559 C564 1.363 . S
C560 H537 0.950 . S
C560 C559 1.397 . S
C560 C561 1.334 . S
C561 H538 0.950 . S
C561 C560 1.334 . S
C561 C562 1.287 . S
C562 C561 1.287 . S
C562 C563 1.524 . S
C562 H581 0.913 . S
C563 H539 0.950 . S
C563 C562 1.524 . S
C563 C564 1.415 . S
C564 H540 0.950 . S
C564 C559 1.363 . S
C564 C563 1.415 . S
C565 H541 0.951 . S
C565 C566 1.366 . S
C565 C567 1.388 . S
C566 C565 1.366 . S
C566 C570 1.385 . S
C567 H542 0.951 . S
C567 C565 1.388 . S
C567 C568 1.366 . S
C568 C567 1.366 . S
C568 C569 1.414 . S
C568 C571 1.499 . S
C569 H543 0.950 . S
C569 C568 1.414 . S
C569 C570 1.374 . S
C570 H544 0.950 . S
C570 C566 1.385 . S
C570 C569 1.374 . S
C571 C568 1.499 . S
C571 C572 1.373 . S
C571 C573 1.389 . S
C572 H545 0.950 . S
C572 C558 1.377 . S
C572 C571 1.373 . S
C573 C557 1.377 . S
C573 C571 1.389 . S
C573 C574 1.524 . S
C574 C573 1.524 . S
C574 C575 1.397 . S
C574 C579 1.363 1_556 S
C575 H546 0.950 . S
C575 C574 1.397 . S
C575 C576 1.334 1_556 S
C576 H547 0.950 . S
C576 C575 1.334 1_554 S
C576 C577 1.287 . S
C577 C576 1.287 . S
C577 C578 1.524 . S
C577 H580 0.999 . S
C578 H548 0.950 . S
C578 C577 1.524 . S
C578 C579 1.415 . S
C579 H549 0.950 . S
C579 C574 1.363 1_554 S
C579 C578 1.415 . S
H580 C577 0.999 . S
H581 C562 0.913 . S
H582 C600 0.951 . S
H583 C602 0.951 . S
H584 C604 0.950 . S
H585 C605 0.950 . S
H586 C607 0.950 . S
H587 C610 0.950 . S
H588 C611 0.950 . S
H589 C613 0.950 . S
H590 C614 0.950 . S
H591 C615 0.951 . S
H592 C617 0.951 . S
H593 C619 0.950 . S
H594 C620 0.950 . S
H595 C622 0.950 . S
H596 C625 0.950 . S
H597 C626 0.950 . S
H598 C628 0.950 . S
H599 C629 0.950 . S
C600 H582 0.951 . S
C600 C601 1.366 . S
C600 C602 1.388 . S
C601 C600 1.366 . S
C601 C605 1.385 . S
C602 H583 0.951 . S
C602 C600 1.388 . S
C602 C603 1.366 . S
C603 C602 1.366 . S
C603 C604 1.414 . S
C603 C606 1.499 . S
C604 H584 0.950 . S
C604 C603 1.414 . S
C604 C605 1.374 . S
C605 H585 0.950 . S
C605 C601 1.385 . S
C605 C604 1.374 . S
C606 C603 1.499 . S
C606 C607 1.373 . S
C606 C608 1.389 . S
C607 H586 0.950 . S
C607 C606 1.373 . S
C607 C623 1.377 . S
C608 C606 1.389 . S
C608 C609 1.524 . S
C608 C622 1.377 . S
C609 C608 1.524 . S
C609 C610 1.397 . S
C609 C614 1.363 . S
C610 H587 0.950 . S
C610 C609 1.397 . S
C610 C611 1.334 . S
C611 H588 0.950 . S
C611 C610 1.334 . S
C611 C612 1.287 . S
C612 C611 1.287 . S
C612 C613 1.524 . S
C612 H631 0.913 . S
C613 H589 0.950 . S
C613 C612 1.524 . S
C613 C614 1.415 . S
C614 H590 0.950 . S
C614 C609 1.363 . S
C614 C613 1.415 . S
C615 H591 0.951 . S
C615 C616 1.366 . S
C615 C617 1.388 . S
C616 C615 1.366 . S
C616 C620 1.385 . S
C617 H592 0.951 . S
C617 C615 1.388 . S
C617 C618 1.366 . S
C618 C617 1.366 . S
C618 C619 1.414 . S
C618 C621 1.499 . S
C619 H593 0.950 . S
C619 C618 1.414 . S
C619 C620 1.374 . S
C620 H594 0.950 . S
C620 C616 1.385 . S
C620 C619 1.374 . S
C621 C618 1.499 . S
C621 C622 1.373 . S
C621 C623 1.389 . S
C622 H595 0.950 . S
C622 C608 1.377 . S
C622 C621 1.373 . S
C623 C607 1.377 . S
C623 C621 1.389 . S
C623 C624 1.524 . S
C624 C623 1.524 . S
C624 C625 1.397 . S
C624 C629 1.363 . S
C625 H596 0.950 . S
C625 C624 1.397 . S
C625 C626 1.334 . S
C626 H597 0.950 . S
C626 C625 1.334 . S
C626 C627 1.287 1_556 S
C627 C626 1.287 1_554 S
C627 C628 1.524 . S
C627 H630 0.999 . S
C628 H598 0.950 . S
C628 C627 1.524 . S
C628 C629 1.415 1_554 S
C629 H599 0.950 . S
C629 C624 1.363 . S
C629 C628 1.415 1_556 S
H630 C627 0.999 . S
H631 C612 0.913 . S
H632 C650 0.951 . S
H633 C652 0.951 . S
H634 C654 0.950 . S
H635 C655 0.950 . S
H636 C657 0.950 . S
H637 C660 0.950 . S
H638 C661 0.950 . S
H639 C663 0.950 . S
H640 C664 0.950 1_556 S
H641 C665 0.951 . S
H642 C667 0.951 . S
H643 C669 0.950 . S
H644 C670 0.950 . S
H645 C672 0.950 . S
H646 C675 0.950 . S
H647 C676 0.950 . S
H648 C678 0.950 . S
H649 C679 0.950 . S
C650 H632 0.951 . S
C650 C651 1.366 . S
C650 C652 1.388 . S
C651 C650 1.366 . S
C651 C655 1.385 . S
C652 H633 0.951 . S
C652 C650 1.388 . S
C652 C653 1.366 . S
C653 C652 1.366 . S
C653 C654 1.414 . S
C653 C656 1.499 . S
C654 H634 0.950 . S
C654 C653 1.414 . S
C654 C655 1.374 . S
C655 H635 0.950 . S
C655 C651 1.385 . S
C655 C654 1.374 . S
C656 C653 1.499 . S
C656 C657 1.373 . S
C656 C658 1.389 . S
C657 H636 0.950 . S
C657 C656 1.373 . S
C657 C673 1.377 . S
C658 C656 1.389 . S
C658 C659 1.524 . S
C658 C672 1.377 . S
C659 C658 1.524 . S
C659 C660 1.397 . S
C659 C664 1.363 1_556 S
C660 H637 0.950 . S
C660 C659 1.397 . S
C660 C661 1.334 1_556 S
C661 H638 0.950 . S
C661 C660 1.334 1_554 S
C661 C662 1.287 . S
C662 C661 1.287 . S
C662 C663 1.524 . S
C662 H681 0.913 . S
C663 H639 0.950 . S
C663 C662 1.524 . S
C663 C664 1.415 . S
C664 H640 0.950 1_554 S
C664 C659 1.363 1_554 S
C664 C663 1.415 . S
C665 H641 0.951 . S
C665 C666 1.366 . S
C665 C667 1.388 . S
C666 C665 1.366 . S
C666 C670 1.385 . S
C667 H642 0.951 . S
C667 C665 1.388 . S
C667 C668 1.366 . S
C668 C667 1.366 . S
C668 C669 1.414 . S
C668 C671 1.499 . S
C669 H643 0.950 . S
C669 C668 1.414 . S
C669 C670 1.374 . S
C670 H644 0.950 . S
C670 C666 1.385 . S
C670 C669 1.374 . S
C671 C668 1.499 . S
C671 C672 1.373 . S
C671 C673 1.389 . S
C672 H645 0.950 . S
C672 C658 1.377 . S
C672 C671 1.373 . S
C673 C657 1.377 . S
C673 C671 1.389 . S
C673 C674 1.524 . S
C674 C673 1.524 . S
C674 C675 1.397 . S
C674 C679 1.363 . S
C675 H646 0.950 . S
C675 C674 1.397 . S
C675 C676 1.334 . S
C676 H647 0.950 . S
C676 C675 1.334 . S
C676 C677 1.287 . S
C677 C676 1.287 . S
C677 C678 1.524 . S
C677 H680 0.999 . S
C678 H648 0.950 . S
C678 C677 1.524 . S
C678 C679 1.415 . S
C679 H649 0.950 . S
C679 C674 1.363 . S
C679 C678 1.415 . S
H680 C677 0.999 . S
H681 C662 0.913 . S
H682 C700 0.951 . S
H683 C702 0.951 . S
H684 C704 0.950 . S
H685 C705 0.950 . S
H686 C707 0.950 . S
H687 C710 0.950 . S
H688 C711 0.950 . S
H689 C713 0.950 . S
H690 C714 0.950 . S
H691 C715 0.951 . S
H692 C717 0.951 . S
H693 C719 0.956 . S
H694 C720 0.950 . S
H695 C722 0.950 . S
H696 C725 0.950 . S
H697 C726 0.950 . S
H698 C728 0.950 . S
H699 C729 0.950 . S
C700 H682 0.951 . S
C700 C701 1.366 . S
C700 C702 1.388 . S
C701 C700 1.366 . S
C701 C705 1.385 . S
C702 H683 0.951 . S
C702 C700 1.388 . S
C702 C703 1.366 . S
C703 C702 1.366 . S
C703 C704 1.414 . S
C703 C706 1.499 . S
C704 H684 0.950 . S
C704 C703 1.414 . S
C704 C705 1.374 . S
C705 H685 0.950 . S
C705 C701 1.385 . S
C705 C704 1.374 . S
C706 C703 1.499 . S
C706 C707 1.373 . S
C706 C708 1.389 . S
C707 H686 0.950 . S
C707 C706 1.373 . S
C707 C723 1.377 . S
C708 C706 1.389 . S
C708 C709 1.524 . S
C708 C722 1.377 . S
C709 C708 1.524 . S
C709 C710 1.397 . S
C709 C714 1.363 . S
C710 H687 0.950 . S
C710 C709 1.397 . S
C710 C711 1.334 . S
C711 H688 0.950 . S
C711 C710 1.334 . S
C711 C712 1.287 . S
C712 C711 1.287 . S
C712 C713 1.524 . S
C712 H731 0.913 . S
C713 H689 0.950 . S
C713 C712 1.524 . S
C713 C714 1.415 . S
C714 H690 0.950 . S
C714 C709 1.363 . S
C714 C713 1.415 . S
C715 H691 0.951 . S
C715 C716 1.366 1_655 S
C715 C717 1.388 . S
C716 C715 1.366 1_455 S
C716 C720 1.385 . S
C717 H692 0.951 . S
C717 C715 1.388 . S
C717 C718 1.366 . S
C718 C717 1.366 . S
C718 C719 1.414 . S
C718 C721 1.499 . S
C719 H693 0.956 . S
C719 C718 1.414 . S
C719 C720 1.374 1_655 S
C720 H694 0.950 . S
C720 C716 1.385 . S
C720 C719 1.374 1_455 S
C721 C718 1.499 . S
C721 C722 1.373 . S
C721 C723 1.389 . S
C722 H695 0.950 . S
C722 C708 1.377 . S
C722 C721 1.373 . S
C723 C707 1.377 . S
C723 C721 1.389 . S
C723 C724 1.524 . S
C724 C723 1.524 . S
C724 C725 1.397 . S
C724 C729 1.363 . S
C725 H696 0.950 . S
C725 C724 1.397 . S
C725 C726 1.334 . S
C726 H697 0.950 . S
C726 C725 1.334 . S
C726 C727 1.287 . S
C727 C726 1.287 . S
C727 C728 1.524 . S
C727 H730 0.999 . S
C728 H698 0.950 . S
C728 C727 1.524 . S
C728 C729 1.415 . S
C729 H699 0.950 . S
C729 C724 1.363 . S
C729 C728 1.415 . S
H730 C727 0.999 . S
H731 C712 0.913 . S
H732 C750 0.951 . S
H733 C752 0.951 . S
H734 C754 0.950 . S
H735 C755 0.950 . S
H736 C757 0.950 . S
H737 C760 0.950 . S
H738 C761 0.950 . S
H739 C763 0.950 . S
H740 C764 0.950 . S
H741 C765 0.951 . S
H742 C767 0.951 . S
H743 C769 0.950 . S
H744 C770 0.950 . S
H745 C772 0.950 . S
H746 C775 0.950 . S
H747 C776 0.950 . S
H748 C778 0.950 . S
H749 C779 0.950 . S
C750 H732 0.951 . S
C750 C751 1.366 . S
C750 C752 1.388 . S
C751 C750 1.366 . S
C751 C755 1.385 . S
C752 H733 0.951 . S
C752 C750 1.388 . S
C752 C753 1.366 . S
C753 C752 1.366 . S
C753 C754 1.414 . S
C753 C756 1.499 . S
C754 H734 0.950 . S
C754 C753 1.414 . S
C754 C755 1.374 . S
C755 H735 0.950 . S
C755 C751 1.385 . S
C755 C754 1.374 . S
C756 C753 1.499 . S
C756 C757 1.373 . S
C756 C758 1.389 . S
C757 H736 0.950 . S
C757 C756 1.373 . S
C757 C773 1.377 . S
C758 C756 1.389 . S
C758 C759 1.524 . S
C758 C772 1.377 . S
C759 C758 1.524 . S
C759 C760 1.397 . S
C759 C764 1.363 . S
C760 H737 0.950 . S
C760 C759 1.397 . S
C760 C761 1.334 . S
C761 H738 0.950 . S
C761 C760 1.334 . S
C761 C762 1.287 . S
C762 C761 1.287 . S
C762 C763 1.524 . S
C762 H781 0.913 . S
C763 H739 0.950 . S
C763 C762 1.524 . S
C763 C764 1.415 . S
C764 H740 0.950 . S
C764 C759 1.363 . S
C764 C763 1.415 . S
C765 H741 0.951 . S
C765 C766 1.366 . S
C765 C767 1.388 . S
C766 C765 1.366 . S
C766 C770 1.385 . S
C767 H742 0.951 . S
C767 C765 1.388 . S
C767 C768 1.366 . S
C768 C767 1.366 . S
C768 C769 1.414 . S
C768 C771 1.499 . S
C769 H743 0.950 . S
C769 C768 1.414 . S
C769 C770 1.374 . S
C770 H744 0.950 . S
C770 C766 1.385 . S
C770 C769 1.374 . S
C771 C768 1.499 . S
C771 C772 1.373 . S
C771 C773 1.389 . S
C772 H745 0.950 . S
C772 C758 1.377 . S
C772 C771 1.373 . S
C773 C757 1.377 . S
C773 C771 1.389 . S
C773 C774 1.524 . S
C774 C773 1.524 . S
C774 C775 1.397 . S
C774 C779 1.363 . S
C775 H746 0.950 . S
C775 C774 1.397 . S
C775 C776 1.334 . S
C776 H747 0.950 . S
C776 C775 1.334 . S
C776 C777 1.287 . S
C777 C776 1.287 . S
C777 C778 1.524 . S
C777 H780 0.999 . S
C778 H748 0.950 . S
C778 C777 1.524 . S
C778 C779 1.415 . S
C779 H749 0.950 . S
C779 C774 1.363 . S
C779 C778 1.415 . S
H780 C777 0.999 . S
H781 C762 0.913 . S
H782 C800 0.951 . S
H783 C802 0.951 . S
H784 C804 0.950 . S
H785 C805 0.950 . S
H786 C807 0.950 . S
H787 C810 0.950 . S
H788 C811 0.950 . S
H789 C813 0.950 . S
H790 C814 0.950 . S
H791 C815 0.951 . S
H792 C817 0.951 . S
H793 C819 0.950 . S
H794 C820 0.950 . S
H795 C822 0.950 . S
H796 C825 0.950 . S
H797 C826 0.950 . S
H798 C828 0.950 . S
H799 C829 0.950 . S
C800 H782 0.951 . S
C800 C801 1.366 . S
C800 C802 1.388 . S
C801 C800 1.366 . S
C801 C805 1.385 . S
C802 H783 0.951 . S
C802 C800 1.388 . S
C802 C803 1.366 . S
C803 C802 1.366 . S
C803 C804 1.414 . S
C803 C806 1.499 . S
C804 H784 0.950 . S
C804 C803 1.414 . S
C804 C805 1.374 . S
C805 H785 0.950 . S
C805 C801 1.385 . S
C805 C804 1.374 . S
C806 C803 1.499 . S
C806 C807 1.373 . S
C806 C808 1.389 . S
C807 H786 0.950 . S
C807 C806 1.373 . S
C807 C823 1.377 . S
C808 C806 1.389 . S
C808 C809 1.524 . S
C808 C822 1.377 . S
C809 C808 1.524 . S
C809 C810 1.397 . S
C809 C814 1.363 . S
C810 H787 0.950 . S
C810 C809 1.397 . S
C810 C811 1.334 . S
C811 H788 0.950 . S
C811 C810 1.334 . S
C811 C812 1.287 . S
C812 C811 1.287 . S
C812 C813 1.524 . S
C812 H831 0.913 . S
C813 H789 0.950 . S
C813 C812 1.524 . S
C813 C814 1.415 . S
C814 H790 0.950 . S
C814 C809 1.363 . S
C814 C813 1.415 . S
C815 H791 0.951 . S
C815 C816 1.366 . S
C815 C817 1.388 . S
C816 C815 1.366 . S
C816 C820 1.385 . S
C817 H792 0.951 . S
C817 C815 1.388 . S
C817 C818 1.366 . S
C818 C817 1.366 . S
C818 C819 1.414 . S
C818 C821 1.499 . S
C819 H793 0.950 . S
C819 C818 1.414 . S
C819 C820 1.374 . S
C820 H794 0.950 . S
C820 C816 1.385 . S
C820 C819 1.374 . S
C821 C818 1.499 . S
C821 C822 1.373 . S
C821 C823 1.389 . S
C822 H795 0.950 . S
C822 C808 1.377 . S
C822 C821 1.373 . S
C823 C807 1.377 . S
C823 C821 1.389 . S
C823 C824 1.524 . S
C824 C823 1.524 . S
C824 C825 1.397 . S
C824 C829 1.363 . S
C825 H796 0.950 . S
C825 C824 1.397 . S
C825 C826 1.334 . S
C826 H797 0.950 . S
C826 C825 1.334 . S
C826 C827 1.287 . S
C827 C826 1.287 . S
C827 C828 1.524 . S
C827 H830 0.999 . S
C828 H798 0.950 . S
C828 C827 1.524 . S
C828 C829 1.415 . S
C829 H799 0.950 . S
C829 C824 1.363 . S
C829 C828 1.415 . S
H830 C827 0.999 . S
H831 C812 0.913 . S
H832 C850 0.951 . S
H833 C852 0.951 . S
H834 C854 0.950 . S
H835 C855 0.950 . S
H836 C857 0.950 . S
H837 C860 0.950 . S
H838 C861 0.950 . S
H839 C863 0.950 . S
H840 C864 0.950 . S
H841 C865 0.951 . S
H842 C867 0.951 . S
H843 C869 0.950 . S
H844 C870 0.950 . S
H845 C872 0.950 . S
H846 C875 0.950 . S
H847 C876 0.950 . S
H848 C878 0.950 . S
H849 C879 0.950 . S
C850 H832 0.951 . S
C850 C851 1.366 . S
C850 C852 1.388 . S
C851 C850 1.366 . S
C851 C855 1.385 . S
C852 H833 0.951 . S
C852 C850 1.388 . S
C852 C853 1.366 . S
C853 C852 1.366 . S
C853 C854 1.414 . S
C853 C856 1.499 . S
C854 H834 0.950 . S
C854 C853 1.414 . S
C854 C855 1.374 . S
C855 H835 0.950 . S
C855 C851 1.385 . S
C855 C854 1.374 . S
C856 C853 1.499 . S
C856 C857 1.373 . S
C856 C858 1.389 . S
C857 H836 0.950 . S
C857 C856 1.373 . S
C857 C873 1.377 . S
C858 C856 1.389 . S
C858 C859 1.524 . S
C858 C872 1.377 . S
C859 C858 1.524 . S
C859 C860 1.397 . S
C859 C864 1.363 . S
C860 H837 0.950 . S
C860 C859 1.397 . S
C860 C861 1.334 . S
C861 H838 0.950 . S
C861 C860 1.334 . S
C861 C862 1.287 . S
C862 C861 1.287 . S
C862 C863 1.524 . S
C862 H881 0.913 . S
C863 H839 0.950 . S
C863 C862 1.524 . S
C863 C864 1.415 . S
C864 H840 0.950 . S
C864 C859 1.363 . S
C864 C863 1.415 . S
C865 H841 0.951 . S
C865 C866 1.366 . S
C865 C867 1.388 . S
C866 C865 1.366 . S
C866 C870 1.385 . S
C867 H842 0.951 . S
C867 C865 1.388 . S
C867 C868 1.366 . S
C868 C867 1.366 . S
C868 C869 1.414 . S
C868 C871 1.499 . S
C869 H843 0.950 . S
C869 C868 1.414 . S
C869 C870 1.374 . S
C870 H844 0.950 . S
C870 C866 1.385 . S
C870 C869 1.374 . S
C871 C868 1.499 . S
C871 C872 1.373 . S
C871 C873 1.389 . S
C872 H845 0.950 . S
C872 C858 1.377 . S
C872 C871 1.373 . S
C873 C857 1.377 . S
C873 C871 1.389 . S
C873 C874 1.524 . S
C874 C873 1.524 . S
C874 C875 1.397 . S
C874 C879 1.363 . S
C875 H846 0.950 . S
C875 C874 1.397 . S
C875 C876 1.334 . S
C876 H847 0.950 . S
C876 C875 1.334 . S
C876 C877 1.287 . S
C877 C876 1.287 . S
C877 C878 1.524 . S
C877 H880 0.999 . S
C878 H848 0.950 . S
C878 C877 1.524 . S
C878 C879 1.415 . S
C879 H849 0.950 . S
C879 C874 1.363 . S
C879 C878 1.415 . S
H880 C877 0.999 . S
H881 C862 0.913 . S
C316 C247 1.407 . S
C301 C1 1.516 . S
C366 C243 1.414 . S
C351 C91 1.453 . S
C416 C268 1.406 . S
C401 C121 1.516 . S
C451 C211 1.453 . S
C466 C264 1.413 . S
C501 C20 1.066 . S
C516 C265 0.980 . S
C566 C280 1.003 . S
C551 C80 1.099 . S
C601 C31 1.733 . S
C616 C281 1.595 . S
C666 C277 1.613 . S
C651 C61 1.685 . S
C716 C244 0.982 . S
C701 C140 1.065 . S
C751 C200 1.100 . S
C766 C259 1.005 . S
C816 C260 1.596 . S
C801 C151 1.733 . S
C866 C256 1.619 . S
C851 C181 1.685 . S
