# Generated by pormake.
# Topology zzz, (3,6)-cn, num edge types: 1
# Building blocks:
#     Node 0, Type 0, BuildingBlock: ESEHIV_clean_linker_0, # of connection points: 3
#     Node 1, Type 0, BuildingBlock: ESEHIV_clean_linker_0, # of connection points: 3
#     Node 2, Type 0, BuildingBlock: ESEHIV_clean_linker_0, # of connection points: 3
#     Node 3, Type 0, BuildingBlock: ESEHIV_clean_linker_0, # of connection points: 3
#     Node 4, Type 0, BuildingBlock: ESEHIV_clean_linker_0, # of connection points: 3
#     Node 5, Type 0, BuildingBlock: ESEHIV_clean_linker_0, # of connection points: 3
#     Node 6, Type 0, BuildingBlock: ESEHIV_clean_linker_0, # of connection points: 3
#     Node 7, Type 0, BuildingBlock: ESEHIV_clean_linker_0, # of connection points: 3
#     Node 8, Type 1, BuildingBlock: BETDEL_clean_sbu_0, # of connection points: 6
#     Node 9, Type 1, BuildingBlock: BETDEL_clean_sbu_0, # of connection points: 6
#     Node 10, Type 1, BuildingBlock: BETDEL_clean_sbu_0, # of connection points: 6
#     Node 11, Type 1, BuildingBlock: BETDEL_clean_sbu_0, # of connection points: 6
#     Edge 12, Type (0, 1), BuildingBlock: MIFKUJ_clean_linker_0, # of connection points: 2
#     Edge 13, Type (0, 1), BuildingBlock: MIFKUJ_clean_linker_0, # of connection points: 2
#     Edge 14, Type (0, 1), BuildingBlock: MIFKUJ_clean_linker_0, # of connection points: 2
#     Edge 15, Type (0, 1), BuildingBlock: MIFKUJ_clean_linker_0, # of connection points: 2
#     Edge 16, Type (0, 1), BuildingBlock: MIFKUJ_clean_linker_0, # of connection points: 2
#     Edge 17, Type (0, 1), BuildingBlock: MIFKUJ_clean_linker_0, # of connection points: 2
#     Edge 18, Type (0, 1), BuildingBlock: MIFKUJ_clean_linker_0, # of connection points: 2
#     Edge 19, Type (0, 1), BuildingBlock: MIFKUJ_clean_linker_0, # of connection points: 2
#     Edge 20, Type (0, 1), BuildingBlock: MIFKUJ_clean_linker_0, # of connection points: 2
#     Edge 21, Type (0, 1), BuildingBlock: MIFKUJ_clean_linker_0, # of connection points: 2
#     Edge 22, Type (0, 1), BuildingBlock: MIFKUJ_clean_linker_0, # of connection points: 2
#     Edge 23, Type (0, 1), BuildingBlock: MIFKUJ_clean_linker_0, # of connection points: 2
#     Edge 24, Type (0, 1), BuildingBlock: MIFKUJ_clean_linker_0, # of connection points: 2
#     Edge 25, Type (0, 1), BuildingBlock: MIFKUJ_clean_linker_0, # of connection points: 2
#     Edge 26, Type (0, 1), BuildingBlock: MIFKUJ_clean_linker_0, # of connection points: 2
#     Edge 27, Type (0, 1), BuildingBlock: MIFKUJ_clean_linker_0, # of connection points: 2
#     Edge 28, Type (0, 1), BuildingBlock: MIFKUJ_clean_linker_0, # of connection points: 2
#     Edge 29, Type (0, 1), BuildingBlock: MIFKUJ_clean_linker_0, # of connection points: 2
#     Edge 30, Type (0, 1), BuildingBlock: MIFKUJ_clean_linker_0, # of connection points: 2
#     Edge 31, Type (0, 1), BuildingBlock: MIFKUJ_clean_linker_0, # of connection points: 2
#     Edge 32, Type (0, 1), BuildingBlock: MIFKUJ_clean_linker_0, # of connection points: 2
#     Edge 33, Type (0, 1), BuildingBlock: MIFKUJ_clean_linker_0, # of connection points: 2
#     Edge 34, Type (0, 1), BuildingBlock: MIFKUJ_clean_linker_0, # of connection points: 2
#     Edge 35, Type (0, 1), BuildingBlock: MIFKUJ_clean_linker_0, # of connection points: 2
# Relax obj value: 0.334
# Max RMSD: 0.227
# Mean RMSD: 0.209
data_MOF--net-zzz--node1-BETDEL_clean_sbu_0--node2-ESEHIV_clean_linker_0--edge1-MIFKUJ_clean_linker_0
_symmetry_space_group_name_H-M    P1
_symmetry_Int_Tables_number       1
_symmetry_cell_setting            triclinic
loop_
_symmetry_equiv_pos_as_xyz
'x, y, z'
_cell_length_a     57.707945
_cell_length_b     57.374814
_cell_length_c     20.23512
_cell_angle_alpha  91.185851
_cell_angle_beta   89.52609
_cell_angle_gamma 95.867958
loop_
_atom_site_label
_atom_site_type_symbol
_atom_site_fract_x
_atom_site_fract_y
_atom_site_fract_z
_atom_type_partial_charge
H0 H 0.79179 0.48028 0.09505 0.0
H1 H 0.73842 0.47629 0.94808 0.0
H2 H 0.72185 0.49204 0.1519 0.0
C3 C 0.77377 0.48155 0.08173 0.0
C4 C 0.75789 0.48658 0.13109 0.0
C5 C 0.76704 0.47818 0.01587 0.0
C6 C 0.7437 0.47892 0.99925 0.0
C7 C 0.7272 0.48385 0.04772 0.0
C8 C 0.73435 0.48805 0.11419 0.0
H9 H 0.95011 0.76851 0.13194 0.0
H10 H 0.95951 0.71671 0.98084 0.0
H11 H 0.955 0.69714 0.1856 0.0
C12 C 0.95179 0.75046 0.11716 0.0
C13 C 0.95232 0.73373 0.16613 0.0
C14 C 0.95542 0.74483 0.05063 0.0
C15 C 0.95655 0.72131 0.03223 0.0
C16 C 0.95553 0.70374 0.08012 0.0
C17 C 0.95437 0.71018 0.14788 0.0
H18 H 0.72288 0.01802 0.10084 0.0
H19 H 0.78133 0.02751 0.96948 0.0
H20 H 0.78564 0.98716 0.14654 0.0
C21 C 0.74088 0.01542 0.0895 0.0
C22 C 0.75316 0.00211 0.13147 0.0
C23 C 0.751 0.0245 0.03152 0.0
C24 C 0.77397 0.02095 0.0158 0.0
C25 C 0.78688 0.00762 0.05698 0.0
C26 C 0.77622 0.99789 0.11499 0.0
H27 H 0.59025 0.72354 0.09619 0.0
H28 H 0.55568 0.78109 0.17578 0.0
H29 H 0.58481 0.78381 0.97864 0.0
C30 C 0.58556 0.7413 0.09232 0.0
C31 C 0.58939 0.75279 0.0324 0.0
C32 C 0.57351 0.75116 0.14463 0.0
C33 C 0.56556 0.77343 0.13666 0.0
C34 C 0.57052 0.78571 0.07746 0.0
C35 C 0.58225 0.77512 0.02565 0.0
H36 H 0.22736 0.55415 0.02013 0.0
H37 H 0.27952 0.56474 0.17035 0.0
H38 H 0.28196 0.50874 0.02477 0.0
C39 C 0.24361 0.54985 0.04114 0.0
C40 C 0.25384 0.53062 0.01503 0.0
C41 C 0.25255 0.56209 0.09731 0.0
C42 C 0.27291 0.55559 0.1259 0.0
C43 C 0.28411 0.53668 0.09956 0.0
C44 C 0.27412 0.52382 0.04443 0.0
H45 H 0.0564 0.21617 0.02949 0.0
H46 H 0.05772 0.27822 0.15144 0.0
H47 H 0.06301 0.28368 0.93912 0.0
C48 C 0.0582 0.2351 0.0345 0.0
C49 C 0.06019 0.2485 0.97741 0.0
C50 C 0.05695 0.2456 0.09719 0.0
C51 C 0.05879 0.27001 0.10291 0.0
C52 C 0.06141 0.28393 0.0464 0.0
C53 C 0.06164 0.27313 0.98303 0.0
H54 H 0.30368 0.99641 0.02457 0.0
H55 H 0.24355 0.99298 0.15174 0.0
H56 H 0.23968 0.0194 0.9546 0.0
C57 C 0.28558 0.99925 0.03311 0.0
C58 C 0.27303 0.00842 0.98251 0.0
C59 C 0.27515 0.99367 0.09426 0.0
C60 C 0.25169 0.99698 0.10426 0.0
C61 C 0.23879 0.00624 0.05443 0.0
C62 C 0.24948 0.01208 0.99315 0.0
H63 H 0.42771 0.27037 0.95076 0.0
H64 H 0.47029 0.21322 0.94544 0.0
H65 H 0.43722 0.23227 0.1271 0.0
C66 C 0.43442 0.25583 0.97516 0.0
C67 C 0.43151 0.25375 0.04358 0.0
C68 C 0.44972 0.24259 0.94042 0.0
C69 C 0.45826 0.22351 0.97156 0.0
C70 C 0.45231 0.21874 0.0381 0.0
C71 C 0.43964 0.23447 0.07436 0.0
Dy72 Dy 0.02285 0.9791 0.60323 0.0
C73 C 0.99624 0.03572 0.40322 0.0
C74 C 0.03416 0.94588 0.68794 0.0
Dy75 Dy 0.99891 0.00326 0.49869 0.0
O76 O 0.04062 0.94751 0.62664 0.0
O77 O 0.02233 0.96327 0.7041 0.0
O78 O 0.05728 0.99457 0.56347 0.0
O79 O 0.02974 0.9845 0.49806 0.0
C80 C 0.05038 0.99404 0.50253 0.0
C81 C 0.97025 0.98953 0.59834 0.0
O82 O 0.99351 0.96683 0.45531 0.0
O83 O 0.99806 0.95076 0.55727 0.0
O84 O 0.97832 0.0249 0.43309 0.0
O85 O 0.01517 0.02787 0.42342 0.0
O86 O 0.96344 0.99108 0.53746 0.0
O87 O 0.99147 0.9975 0.60368 0.0
O88 O 0.02997 0.01427 0.65103 0.0
O89 O 0.01506 0.03323 0.56301 0.0
C90 C 0.99174 0.94852 0.49462 0.0
C91 C 0.02576 0.03361 0.62093 0.0
Dy92 Dy 0.49508 0.98061 0.51831 0.0
C93 C 0.56279 0.04536 0.648 0.0
C94 C 0.45844 0.94953 0.47816 0.0
Dy95 Dy 0.52662 0.01823 0.59134 0.0
O96 O 0.47516 0.95844 0.44043 0.0
O97 O 0.46221 0.95713 0.53811 0.0
O98 O 0.52099 0.97813 0.43623 0.0
O99 O 0.53306 0.98738 0.53118 0.0
C100 C 0.53909 0.98544 0.47126 0.0
C101 C 0.48065 0.02218 0.60806 0.0
O102 O 0.52254 0.03453 0.4934 0.0
O103 O 0.48714 0.01371 0.46943 0.0
O104 O 0.54331 0.0385 0.67775 0.0
O105 O 0.56244 0.03744 0.58743 0.0
O106 O 0.49653 0.03993 0.61041 0.0
O107 O 0.4905 0.00361 0.60313 0.0
O108 O 0.50539 0.95873 0.60142 0.0
O109 O 0.52952 0.9876 0.65769 0.0
C110 C 0.503 0.03167 0.45911 0.0
C111 C 0.51909 0.96589 0.65186 0.0
Dy112 Dy 0.50414 0.51668 0.6374 0.0
C113 C 0.48862 0.45807 0.4012 0.0
C114 C 0.5284 0.54567 0.72484 0.0
Dy115 Dy 0.50395 0.4839 0.50914 0.0
O116 O 0.50629 0.53826 0.73255 0.0
O117 O 0.53664 0.53674 0.67146 0.0
O118 O 0.47137 0.53138 0.60498 0.0
O119 O 0.47833 0.49754 0.57431 0.0
C120 C 0.4651 0.51344 0.56603 0.0
C121 C 0.54231 0.48622 0.58405 0.0
O122 O 0.51207 0.51922 0.46292 0.0
O123 O 0.51195 0.543 0.55837 0.0
O124 O 0.50861 0.45684 0.42951 0.0
O125 O 0.47771 0.47415 0.4301 0.0
O126 O 0.5364 0.46858 0.54406 0.0
O127 O 0.52933 0.50216 0.57403 0.0
O128 O 0.49823 0.48071 0.68237 0.0
O129 O 0.48771 0.4595 0.58525 0.0
C130 C 0.51403 0.54003 0.49367 0.0
C131 C 0.49045 0.46093 0.6504 0.0
Dy132 Dy 1.00133 0.48085 0.59238 0.0
C133 C 0.04917 0.53478 0.38672 0.0
C134 C 0.97428 0.45543 0.6809 0.0
Dy135 Dy 0.02281 0.51791 0.49025 0.0
O136 O 0.97586 0.4503 0.61834 0.0
O137 O 0.98784 0.47434 0.69517 0.0
O138 O 0.02342 0.4549 0.54649 0.0
O139 O 0.01085 0.48056 0.48768 0.0
C140 C 0.02369 0.46406 0.48824 0.0
C141 C 0.0093 0.53986 0.60097 0.0
O142 O 0.9863 0.51153 0.45089 0.0
O143 O 0.96963 0.49229 0.54289 0.0
O144 O 0.03214 0.54504 0.41318 0.0
O145 O 0.05135 0.51517 0.41597 0.0
O146 O 0.0185 0.55097 0.55017 0.0
O147 O 0.00798 0.51825 0.58779 0.0
O148 O 0.0357 0.49015 0.64004 0.0
O149 O 0.05385 0.5106 0.5519 0.0
C150 C 0.96781 0.50234 0.48473 0.0
C151 C 0.05442 0.50071 0.61077 0.0
H152 H 0.22369 0.04562 0.10792 0.0
H153 H 0.18716 0.04782 0.16949 0.0
H154 H 0.16356 0.97733 0.10527 0.0
H155 H 0.2002 0.97511 0.04395 0.0
H156 H 0.12649 0.00968 0.12093 0.0
H157 H 0.1914 0.9813 0.23893 0.0
H158 H 0.23222 0.9851 0.27639 0.0
H159 H 0.22221 0.05029 0.37525 0.0
H160 H 0.18138 0.04698 0.33774 0.0
H161 H 0.04959 0.97144 0.38244 0.0
H162 H 0.0785 0.97688 0.29356 0.0
H163 H 0.11519 0.03406 0.40487 0.0
H164 H 0.08729 0.0272 0.49586 0.0
H165 H 0.14523 0.01081 0.35992 0.0
H166 H 0.08024 0.03925 0.25425 0.0
H167 H 0.03969 0.0381 0.21579 0.0
H168 H 0.04914 0.97788 0.09273 0.0
H169 H 0.08964 0.97845 0.13124 0.0
C170 C 0.2102 0.03106 0.10439 0.0
C171 C 0.21449 0.01035 0.07043 0.0
C172 C 0.18943 0.03224 0.13994 0.0
C173 C 0.17271 0.01267 0.14235 0.0
C174 C 0.17613 0.99268 0.10369 0.0
C175 C 0.19699 0.99145 0.06843 0.0
C176 C 0.15383 0.01164 0.19296 0.0
C177 C 0.13045 0.00981 0.17325 0.0
C178 C 0.15908 0.01234 0.26117 0.0
C179 C 0.18343 0.014 0.28509 0.0
C180 C 0.19795 0.9965 0.26838 0.0
C181 C 0.22107 0.99855 0.28964 0.0
C182 C 0.22982 0.01796 0.32799 0.0
C183 C 0.21542 0.03528 0.34547 0.0
C184 C 0.19228 0.03331 0.32432 0.0
C185 C 0.06375 0.98529 0.38744 0.0
C186 C 0.0663 0.9989 0.44586 0.0
C187 C 0.08022 0.98856 0.33632 0.0
C188 C 0.09903 0.00619 0.3414 0.0
C189 C 0.10102 0.02026 0.39933 0.0
C190 C 0.08502 0.01644 0.45129 0.0
C191 C 0.11742 0.00907 0.28866 0.0
C192 C 0.14092 0.01103 0.30788 0.0
C193 C 0.11218 0.00896 0.22013 0.0
C194 C 0.08794 0.0088 0.19601 0.0
C195 C 0.07364 0.0257 0.21922 0.0
C196 C 0.05066 0.02515 0.19741 0.0
C197 C 0.04184 0.0079 0.15191 0.0
C198 C 0.056 0.99122 0.12799 0.0
C199 C 0.07898 0.99166 0.14974 0.0
H200 H 0.02404 0.00749 0.13512 0.0
H201 H 0.24774 0.01954 0.34428 0.0
H202 H 0.44468 0.17241 0.00343 0.0
H203 H 0.45433 0.13879 0.0677 0.0
H204 H 0.48816 0.18613 0.2137 0.0
H205 H 0.47821 0.21966 0.15035 0.0
H206 H 0.51332 0.14661 0.17603 0.0
H207 H 0.43657 0.16451 0.24706 0.0
H208 H 0.3955 0.17084 0.22889 0.0
H209 H 0.38216 0.10108 0.14751 0.0
H210 H 0.42328 0.09448 0.16427 0.0
H211 H 0.52331 0.07661 0.45291 0.0
H212 H 0.51569 0.10656 0.37474 0.0
H213 H 0.46564 0.05727 0.2746 0.0
H214 H 0.47235 0.0275 0.35547 0.0
H215 H 0.44874 0.09605 0.27972 0.0
H216 H 0.52344 0.07658 0.20635 0.0
H217 H 0.56469 0.06935 0.21403 0.0
H218 H 0.58216 0.1393 0.2899 0.0
H219 H 0.541 0.14706 0.28202 0.0
C220 C 0.45448 0.17555 0.04874 0.0
C221 C 0.46067 0.19856 0.07209 0.0
C222 C 0.45985 0.1564 0.08553 0.0
C223 C 0.47181 0.16 0.14569 0.0
C224 C 0.47891 0.18298 0.16748 0.0
C225 C 0.47319 0.20209 0.13138 0.0
C226 C 0.47618 0.13993 0.18747 0.0
C227 C 0.49925 0.13562 0.19917 0.0
C228 C 0.45778 0.12518 0.21589 0.0
C229 C 0.43305 0.12911 0.20618 0.0
C230 C 0.42493 0.1506 0.22471 0.0
C231 C 0.40163 0.15422 0.21479 0.0
C232 C 0.38624 0.1364 0.18687 0.0
C233 C 0.39411 0.11489 0.16901 0.0
C234 C 0.4174 0.1112 0.17873 0.0
C235 C 0.51076 0.07207 0.41405 0.0
C236 C 0.49856 0.04959 0.41016 0.0
C237 C 0.50654 0.08922 0.36884 0.0
C238 C 0.49051 0.08416 0.31726 0.0
C239 C 0.47819 0.06169 0.31353 0.0
C240 C 0.48207 0.04463 0.35973 0.0
C241 C 0.48606 0.10259 0.26904 0.0
C242 C 0.46293 0.10673 0.25618 0.0
C243 C 0.50443 0.11695 0.23852 0.0
C244 C 0.52913 0.11231 0.24417 0.0
C245 C 0.53606 0.09036 0.22511 0.0
C246 C 0.55943 0.08618 0.2294 0.0
C247 C 0.57602 0.10377 0.25295 0.0
C248 C 0.56929 0.12566 0.27181 0.0
C249 C 0.54596 0.13 0.26717 0.0
H250 H 0.5941 0.10046 0.25631 0.0
H251 H 0.36821 0.13923 0.17925 0.0
H252 H 0.32145 0.56603 0.1412 0.0
H253 H 0.35345 0.55705 0.21081 0.0
H254 H 0.32751 0.4838 0.20423 0.0
H255 H 0.29477 0.49294 0.13557 0.0
H256 H 0.33738 0.49693 0.32737 0.0
H257 H 0.37968 0.50373 0.12664 0.0
H258 H 0.3935 0.52067 0.02068 0.0
H259 H 0.42435 0.58235 0.12284 0.0
H260 H 0.41044 0.56593 0.22941 0.0
H261 H 0.43972 0.47503 0.51115 0.0
H262 H 0.41032 0.47438 0.42372 0.0
H263 H 0.41941 0.54989 0.41987 0.0
H264 H 0.44864 0.55056 0.50724 0.0
H265 H 0.41957 0.52931 0.29382 0.0
H266 H 0.37258 0.52197 0.49428 0.0
H267 H 0.35924 0.50304 0.59812 0.0
H268 H 0.33834 0.43901 0.49119 0.0
H269 H 0.35184 0.4575 0.38677 0.0
C270 C 0.32265 0.54794 0.15391 0.0
C271 C 0.30546 0.53022 0.13299 0.0
C272 C 0.34113 0.54278 0.19341 0.0
C273 C 0.34314 0.51969 0.21263 0.0
C274 C 0.32642 0.50176 0.19007 0.0
C275 C 0.30782 0.50695 0.1503 0.0
C276 C 0.36182 0.51487 0.25983 0.0
C277 C 0.35543 0.50357 0.31922 0.0
C278 C 0.38544 0.52364 0.24997 0.0
C279 C 0.39385 0.53366 0.18602 0.0
C280 C 0.38925 0.52099 0.12649 0.0
C281 C 0.39713 0.53048 0.06631 0.0
C282 C 0.40975 0.55259 0.06501 0.0
C283 C 0.41456 0.56523 0.12392 0.0
C284 C 0.40671 0.55582 0.18425 0.0
C285 C 0.43543 0.49146 0.49144 0.0
C286 C 0.44663 0.51285 0.51539 0.0
C287 C 0.41859 0.49108 0.44169 0.0
C288 C 0.41267 0.51209 0.41497 0.0
C289 C 0.42376 0.53345 0.43936 0.0
C290 C 0.44038 0.53383 0.48951 0.0
C291 C 0.39493 0.51203 0.36173 0.0
C292 C 0.40155 0.5224 0.30129 0.0
C293 C 0.37164 0.50208 0.37022 0.0
C294 C 0.36344 0.49103 0.43288 0.0
C295 C 0.36531 0.5038 0.493 0.0
C296 C 0.35769 0.49316 0.55194 0.0
C297 C 0.34801 0.46981 0.55128 0.0
C298 C 0.34587 0.45708 0.49164 0.0
C299 C 0.35348 0.46763 0.43258 0.0
H300 H 0.34212 0.46161 0.59695 0.0
H301 H 0.41584 0.55991 0.01837 0.0
H302 H 0.09674 0.31152 0.10299 0.0
H303 H 0.09364 0.34959 0.15707 0.0
H304 H 0.0254 0.35149 0.07362 0.0
H305 H 0.02852 0.31321 0.01915 0.0
H306 H 0.05684 0.39952 0.09951 0.0
H307 H 0.01847 0.32959 0.20449 0.0
H308 H 0.01718 0.28852 0.23907 0.0
H309 H 0.07988 0.30521 0.35068 0.0
H310 H 0.08143 0.34647 0.31679 0.0
H311 H 0.00636 0.46413 0.36301 0.0
H312 H 0.01599 0.43906 0.26953 0.0
H313 H 0.06983 0.41271 0.38532 0.0
H314 H 0.05911 0.43662 0.47994 0.0
H315 H 0.04533 0.37817 0.33487 0.0
H316 H 0.07994 0.45086 0.24107 0.0
H317 H 0.07872 0.49196 0.20859 0.0
H318 H 0.02246 0.47092 0.07579 0.0
H319 H 0.02332 0.42972 0.10742 0.0
C320 C 0.08162 0.32065 0.09341 0.0
C321 C 0.06293 0.3096 0.05672 0.0
C322 C 0.07983 0.34236 0.1244 0.0
C323 C 0.05926 0.35329 0.11954 0.0
C324 C 0.04151 0.34345 0.07734 0.0
C325 C 0.04331 0.32163 0.04615 0.0
C326 C 0.05452 0.37157 0.16927 0.0
C327 C 0.05418 0.39498 0.15096 0.0
C328 C 0.05121 0.3656 0.2363 0.0
C329 C 0.05016 0.34098 0.25774 0.0
C330 C 0.03202 0.32445 0.2362 0.0
C331 C 0.03121 0.30116 0.25578 0.0
C332 C 0.04851 0.29421 0.29679 0.0
C333 C 0.06652 0.3106 0.31881 0.0
C334 C 0.06732 0.33396 0.29965 0.0
C335 C 0.02051 0.45326 0.36791 0.0
C336 C 0.03194 0.45214 0.4286 0.0
C337 C 0.02614 0.43902 0.31428 0.0
C338 C 0.04382 0.42401 0.3198 0.0
C339 C 0.05605 0.42398 0.37965 0.0
C340 C 0.05 0.43769 0.43367 0.0
C341 C 0.04816 0.40667 0.26627 0.0
C342 C 0.04826 0.38312 0.28378 0.0
C343 C 0.05116 0.41269 0.19877 0.0
C344 C 0.05155 0.43725 0.17707 0.0
C345 C 0.06731 0.45502 0.20494 0.0
C346 C 0.06667 0.47832 0.18676 0.0
C347 C 0.05035 0.48405 0.14075 0.0
C348 C 0.035 0.46645 0.11169 0.0
C349 C 0.03562 0.44312 0.12952 0.0
H350 H 0.04957 0.50212 0.1276 0.0
H351 H 0.04792 0.27613 0.31158 0.0
H352 H 0.80556 0.96543 0.04889 0.0
H353 H 0.84134 0.95722 0.99016 0.0
H354 H 0.85658 0.03089 0.95132 0.0
H355 H 0.82157 0.03913 0.01166 0.0
H356 H 0.84992 0.96191 0.86617 0.0
H357 H 0.9125 0.04672 0.92148 0.0
H358 H 0.92376 0.07301 0.01631 0.0
H359 H 0.90166 0.01798 0.15043 0.0
H360 H 0.8906 0.99123 0.05645 0.0
H361 H 0.92306 0.98875 0.59526 0.0
H362 H 0.89588 0.98708 0.68803 0.0
H363 H 0.95261 0.98133 0.82255 0.0
H364 H 0.98014 0.98433 0.72932 0.0
H365 H 0.92693 0.00887 0.87598 0.0
H366 H 0.90818 0.93306 0.78104 0.0
H367 H 0.89877 0.90346 0.69267 0.0
H368 H 0.83579 0.93423 0.65144 0.0
H369 H 0.84512 0.96421 0.73898 0.0
C370 C 0.81701 0.97992 0.02985 0.0
C371 C 0.81069 0.00292 0.03475 0.0
C372 C 0.83735 0.9752 0.99563 0.0
C373 C 0.85183 0.9934 0.96612 0.0
C374 C 0.84609 0.0165 0.97431 0.0
C375 C 0.82591 0.0212 0.00854 0.0
C376 C 0.87145 0.9883 0.92105 0.0
C377 C 0.86684 0.97202 0.86882 0.0
C378 C 0.89381 0.00103 0.92491 0.0
C379 C 0.90057 0.017 0.98179 0.0
C380 C 0.91016 0.04017 0.97117 0.0
C381 C 0.91648 0.05517 0.0248 0.0
C382 C 0.91338 0.04718 0.08935 0.0
C383 C 0.90399 0.02416 0.10041 0.0
C384 C 0.89766 0.00908 0.04696 0.0
C385 C 0.92976 0.98692 0.64453 0.0
C386 C 0.95376 0.98663 0.65493 0.0
C387 C 0.91411 0.98573 0.69777 0.0
C388 C 0.92192 0.98348 0.76279 0.0
C389 C 0.94597 0.98291 0.77313 0.0
C390 C 0.96173 0.98455 0.71978 0.0
C391 C 0.90509 0.98311 0.81967 0.0
C392 C 0.91018 0.99843 0.87396 0.0
C393 C 0.88337 0.96905 0.81867 0.0
C394 C 0.8775 0.95096 0.76627 0.0
C395 C 0.89245 0.93358 0.75279 0.0
C396 C 0.8871 0.91673 0.7029 0.0
C397 C 0.8667 0.91699 0.66634 0.0
C398 C 0.85159 0.93406 0.67977 0.0
C399 C 0.8569 0.95096 0.72962 0.0
H400 H 0.86258 0.90394 0.62769 0.0
H401 H 0.91828 0.05882 0.1308 0.0
H402 H 0.59689 0.82675 0.05703 0.0
H403 H 0.58465 0.86082 0.00129 0.0
H404 H 0.51336 0.82976 0.00617 0.0
H405 H 0.52573 0.79553 0.06212 0.0
H406 H 0.52889 0.83968 0.88126 0.0
H407 H 0.52941 0.88238 0.08995 0.0
H408 H 0.54659 0.89768 0.19545 0.0
H409 H 0.60383 0.93406 0.09048 0.0
H410 H 0.58697 0.91907 0.98448 0.0
H411 H 0.48884 0.92934 0.69279 0.0
H412 H 0.49441 0.90178 0.78025 0.0
H413 H 0.56349 0.93609 0.81502 0.0
H414 H 0.55732 0.96459 0.73017 0.0
H415 H 0.54645 0.9249 0.9264 0.0
H416 H 0.55115 0.88152 0.72337 0.0
H417 H 0.5385 0.86554 0.61394 0.0
H418 H 0.47781 0.82873 0.70195 0.0
H419 H 0.48996 0.84474 0.81185 0.0
C420 C 0.57848 0.82773 0.04883 0.0
C421 C 0.56219 0.80872 0.06458 0.0
C422 C 0.57149 0.84717 0.01678 0.0
C423 C 0.54806 0.84793 0.99955 0.0
C424 C 0.53152 0.82961 0.01921 0.0
C425 C 0.53852 0.81019 0.05179 0.0
C426 C 0.54156 0.86599 0.95321 0.0
C427 C 0.5322 0.85835 0.89175 0.0
C428 C 0.54694 0.89031 0.96551 0.0
C429 C 0.55696 0.89951 0.0293 0.0
C430 C 0.5457 0.89359 0.08942 0.0
C431 C 0.55534 0.90228 0.14931 0.0
C432 C 0.57626 0.91689 0.1497 0.0
C433 C 0.58757 0.92285 0.09018 0.0
C434 C 0.57793 0.91434 0.03016 0.0
C435 C 0.50524 0.93096 0.71902 0.0
C436 C 0.52275 0.94896 0.70414 0.0
C437 C 0.50846 0.91512 0.76896 0.0
C438 C 0.52961 0.91638 0.80361 0.0
C439 C 0.54701 0.93461 0.78922 0.0
C440 C 0.54354 0.95085 0.74043 0.0
C441 C 0.5337 0.89861 0.85417 0.0
C442 C 0.54276 0.90627 0.91614 0.0
C443 C 0.52869 0.8742 0.84171 0.0
C444 C 0.52133 0.86454 0.77571 0.0
C445 C 0.53502 0.87015 0.71931 0.0
C446 C 0.52795 0.86107 0.65722 0.0
C447 C 0.50732 0.84619 0.65097 0.0
C448 C 0.49376 0.8403 0.70685 0.0
C449 C 0.50073 0.84936 0.76905 0.0
H450 H 0.50188 0.83917 0.60286 0.0
H451 H 0.58372 0.92359 0.1961 0.0
H452 H 0.70429 0.52254 0.0305 0.0
H453 H 0.66934 0.52456 0.96292 0.0
H454 H 0.66221 0.44925 0.93968 0.0
H455 H 0.69687 0.44734 0.00735 0.0
H456 H 0.66535 0.51271 0.8363 0.0
H457 H 0.60604 0.42858 0.90848 0.0
H458 H 0.59467 0.40613 0.00833 0.0
H459 H 0.61156 0.4677 0.12967 0.0
H460 H 0.62269 0.49061 0.03056 0.0
H461 H 0.58704 0.47487 0.5742 0.0
H462 H 0.61621 0.47571 0.66259 0.0
H463 H 0.5658 0.49764 0.80306 0.0
H464 H 0.53696 0.4965 0.71595 0.0
H465 H 0.58935 0.46431 0.85432 0.0
H466 H 0.60762 0.53762 0.74939 0.0
H467 H 0.61658 0.56395 0.65568 0.0
H468 H 0.67819 0.53028 0.61183 0.0
H469 H 0.66944 0.50359 0.70494 0.0
C470 C 0.69461 0.50642 0.01325 0.0
C471 C 0.70292 0.48475 0.0253 0.0
C472 C 0.67486 0.50757 0.97382 0.0
C473 C 0.66303 0.48706 0.94602 0.0
C474 C 0.6707 0.46532 0.96115 0.0
C475 C 0.69044 0.4642 1.00022 0.0
C476 C 0.64408 0.48834 0.89666 0.0
C477 C 0.64873 0.50215 0.84055 0.0
C478 C 0.62216 0.47488 0.90212 0.0
C479 C 0.61543 0.46125 0.96205 0.0
C480 C 0.60725 0.43735 0.95644 0.0
C481 C 0.60086 0.42454 0.01293 0.0
C482 C 0.60247 0.43547 0.07532 0.0
C483 C 0.61042 0.45924 0.08134 0.0
C484 C 0.61681 0.47213 0.02502 0.0
C485 C 0.58227 0.47989 0.62398 0.0
C486 C 0.55983 0.48628 0.63754 0.0
C487 C 0.59894 0.48045 0.67441 0.0
C488 C 0.59332 0.48704 0.73955 0.0
C489 C 0.57067 0.49265 0.75332 0.0
C490 C 0.55418 0.49226 0.70298 0.0
C491 C 0.61093 0.48817 0.7935 0.0
C492 C 0.60601 0.47482 0.85029 0.0
C493 C 0.63236 0.50247 0.78949 0.0
C494 C 0.63775 0.51848 0.73363 0.0
C495 C 0.62297 0.53573 0.7194 0.0
C496 C 0.62803 0.55073 0.6665 0.0
C497 C 0.6479 0.54873 0.62769 0.0
C498 C 0.66279 0.53178 0.64188 0.0
C499 C 0.65781 0.51673 0.69476 0.0
H500 H 0.65179 0.56036 0.58674 0.0
H501 H 0.59751 0.42552 0.11898 0.0
H502 H 0.9294 0.67947 0.98601 0.0
H503 H 0.93756 0.64342 0.92877 0.0
H504 H 0.99421 0.63657 0.06261 0.0
H505 H 0.98627 0.67325 0.11939 0.0
H506 H 0.00917 0.63364 0.94234 0.0
H507 H 0.9451 0.5953 0.05493 0.0
H508 H 0.90539 0.58796 0.10074 0.0
H509 H 0.87711 0.58461 0.90479 0.0
H510 H 0.91659 0.59238 0.85774 0.0
H511 H 0.99217 0.51962 0.7163 0.0
H512 H 0.98274 0.54 0.81984 0.0
H513 H 1.0008 0.60653 0.72726 0.0
H514 H 0.01051 0.58638 0.62523 0.0
H515 H 0.95209 0.57061 0.85309 0.0
H516 H 0.02822 0.64581 0.83499 0.0
H517 H 0.06821 0.65104 0.79027 0.0
H518 H 0.0733 0.57723 0.80412 0.0
H519 H 0.03381 0.57162 0.85218 0.0
C520 C 0.94321 0.66994 0.00435 0.0
C521 C 0.95725 0.6792 0.057 0.0
C522 C 0.94779 0.64919 0.97181 0.0
C523 C 0.96646 0.63706 0.99135 0.0
C524 C 0.97967 0.64555 0.0466 0.0
C525 C 0.97503 0.66639 0.0794 0.0
C526 C 0.97381 0.61762 0.94844 0.0
C527 C 0.99672 0.61969 0.92353 0.0
C528 C 0.95779 0.59897 0.92478 0.0
C529 C 0.93389 0.59456 0.9528 0.0
C530 C 0.93042 0.59323 0.02157 0.0
C531 C 0.90793 0.58895 0.04778 0.0
C532 C 0.88874 0.58585 0.00571 0.0
C533 C 0.89199 0.58702 0.93733 0.0
C534 C 0.91444 0.59134 0.91086 0.0
C535 C 0.9941 0.53856 0.71834 0.0
C536 C 0.0023 0.5514 0.66299 0.0
C537 C 0.9887 0.5502 0.77739 0.0
C538 C 0.99156 0.57483 0.78187 0.0
C539 C 0.99899 0.58754 0.7257 0.0
C540 C 0.00444 0.57598 0.6672 0.0
C541 C 0.98685 0.58765 0.84455 0.0
C542 C 0.96456 0.58428 0.87304 0.0
C543 C 0.00351 0.60491 0.87219 0.0
C544 C 0.02788 0.60828 0.8469 0.0
C545 C 0.03797 0.63072 0.82961 0.0
C546 C 0.0606 0.63375 0.80378 0.0
C547 C 0.07333 0.61448 0.79468 0.0
C548 C 0.06351 0.59215 0.81184 0.0
C549 C 0.04101 0.58904 0.83855 0.0
H550 H 0.09077 0.61684 0.77417 0.0
H551 H 0.87134 0.58252 0.0261 0.0
H552 H 0.07704 0.20707 0.13508 0.0
H553 H 0.05753 0.17497 0.19912 0.0
H554 H 0.00318 0.21803 0.25351 0.0
H555 H 0.02191 0.24979 0.18638 0.0
H556 H 0.02133 0.18327 0.35285 0.0
H557 H 0.98667 0.19568 0.15121 0.0
H558 H 0.98268 0.21075 0.02799 0.0
H559 H 0.0156 0.1244 0.97296 0.0
H560 H 0.01662 0.12144 0.10543 0.0
H561 H 0.95871 0.05757 0.36275 0.0
H562 H 0.95986 0.0977 0.32053 0.0
H563 H 0.0349 0.10425 0.32699 0.0
H564 H 0.03398 0.06428 0.36613 0.0
H565 H 0.99002 0.11876 0.20116 0.0
H566 H 0.0427 0.16163 0.42925 0.0
H567 H 0.04242 0.16064 0.55056 0.0
H568 H 0.97361 0.12434 0.54849 0.0
H569 H 0.97267 0.12669 0.42721 0.0
C570 C 0.06128 0.20991 0.16225 0.0
C571 C 0.05055 0.23056 0.15425 0.0
C572 C 0.05012 0.19157 0.19844 0.0
C573 C 0.02834 0.19387 0.22748 0.0
C574 C 0.01959 0.21578 0.22902 0.0
C575 C 0.03046 0.23399 0.19144 0.0
C576 C 0.01437 0.17284 0.25211 0.0
C577 C 0.01433 0.16913 0.32007 0.0
C578 C 0.00422 0.15503 0.20849 0.0
C579 C 0.00226 0.15864 0.13615 0.0
C580 C 0.99242 0.1844 0.11247 0.0
C581 C 0.98921 0.19396 0.03465 0.0
C582 C 0.99554 0.17782 0.96666 0.0
C583 C 0.00979 0.13939 0.00056 0.0
C584 C 0.01047 0.13692 0.08487 0.0
C585 C 0.97541 0.06745 0.35363 0.0
C586 C 0.99625 0.05788 0.36768 0.0
C587 C 0.97602 0.09033 0.33013 0.0
C588 C 0.99746 0.10396 0.32231 0.0
C589 C 0.01821 0.09406 0.33386 0.0
C590 C 0.01763 0.07117 0.35571 0.0
C591 C 0.99886 0.12858 0.30163 0.0
C592 C 0.99664 0.13298 0.23417 0.0
C593 C 0.00674 0.14713 0.34576 0.0
C594 C 0.00774 0.14404 0.4185 0.0
C595 C 0.02744 0.15343 0.45442 0.0
C596 C 0.02745 0.15279 0.52336 0.0
C597 C 0.00811 0.14224 0.55721 0.0
C598 C 0.98865 0.13238 0.52214 0.0
C599 C 0.98833 0.13346 0.45316 0.0
H600 H 0.00814 0.14194 0.61063 0.0
H601 H 0.99978 0.16657 0.96595 0.0
H602 H 0.31859 0.01109 0.13281 0.0
H603 H 0.34293 0.99578 0.2161 0.0
H604 H 0.28759 0.94206 0.26223 0.0
H605 H 0.26315 0.95713 0.17736 0.0
H606 H 0.33845 0.9904 0.34717 0.0
H607 H 0.31577 0.89213 0.29751 0.0
H608 H 0.29941 0.86511 0.20925 0.0
H609 H 0.32557 0.91411 0.06219 0.0
H610 H 0.34232 0.94124 0.14951 0.0
H611 H 0.41784 0.94311 0.54786 0.0
H612 H 0.37881 0.94057 0.50032 0.0
H613 H 0.40824 0.93297 0.30532 0.0
H614 H 0.44722 0.93547 0.35251 0.0
H615 H 0.36346 0.91071 0.3141 0.0
H616 H 0.40652 0.98632 0.36629 0.0
H617 H 0.42692 0.01654 0.43944 0.0
H618 H 0.36578 0.01678 0.56177 0.0
H619 H 0.3451 0.98631 0.48962 0.0
C620 C 0.3116 0.99598 0.16054 0.0
C621 C 0.28912 0.98509 0.14801 0.0
C622 C 0.32542 0.9874 0.2086 0.0
C623 C 0.31709 0.96773 0.24506 0.0
C624 C 0.29436 0.95719 0.23426 0.0
C625 C 0.28043 0.96585 0.18608 0.0
C626 C 0.33298 0.95789 0.29164 0.0
C627 C 0.34354 0.97279 0.34097 0.0
C628 C 0.33978 0.93501 0.28299 0.0
C629 C 0.32997 0.91881 0.23005 0.0
C630 C 0.31803 0.89709 0.24631 0.0
C631 C 0.30871 0.88177 0.19647 0.0
C632 C 0.31136 0.88793 0.13017 0.0
C633 C 0.32343 0.9094 0.11356 0.0
C634 C 0.33282 0.92476 0.1632 0.0
C635 C 0.41588 0.93985 0.49517 0.0
C636 C 0.43549 0.93991 0.45351 0.0
C637 C 0.39358 0.93846 0.46812 0.0
C638 C 0.39076 0.93707 0.39929 0.0
C639 C 0.41008 0.9341 0.35857 0.0
C640 C 0.43236 0.9356 0.38553 0.0
C641 C 0.36914 0.94338 0.36871 0.0
C642 C 0.35759 0.92791 0.32235 0.0
C643 C 0.36183 0.96602 0.37869 0.0
C644 C 0.37437 0.98388 0.42306 0.0
C645 C 0.39751 0.99265 0.40915 0.0
C646 C 0.40909 0.00987 0.45028 0.0
C647 C 0.39761 0.01863 0.50501 0.0
C648 C 0.37461 0.01002 0.51919 0.0
C649 C 0.36296 0.99276 0.47825 0.0
H650 H 0.40653 0.03213 0.53638 0.0
H651 H 0.30412 0.87605 0.09167 0.0
H652 H 0.44303 0.29978 0.01617 0.0
H653 H 0.43853 0.33353 0.08471 0.0
H654 H 0.4036 0.2898 0.23353 0.0
H655 H 0.40702 0.25503 0.16232 0.0
H656 H 0.40522 0.35597 0.14632 0.0
H657 H 0.42888 0.31196 0.37943 0.0
H658 H 0.44384 0.27548 0.41571 0.0
H659 H 0.48453 0.27281 0.23761 0.0
H660 H 0.46993 0.30931 0.20061 0.0
H661 H 0.44262 0.45091 0.372 0.0
H662 H 0.42218 0.41583 0.32096 0.0
H663 H 0.48804 0.38838 0.28262 0.0
H664 H 0.50846 0.42303 0.33659 0.0
H665 H 0.45907 0.35607 0.33614 0.0
H666 H 0.45426 0.4106 0.15502 0.0
H667 H 0.44375 0.44736 0.10758 0.0
H668 H 0.37243 0.43003 0.16571 0.0
H669 H 0.38257 0.39316 0.21357 0.0
C670 C 0.43324 0.29703 0.06169 0.0
C671 C 0.4251 0.2744 0.08295 0.0
C672 C 0.43081 0.31661 0.10128 0.0
C673 C 0.4207 0.31423 0.16409 0.0
C674 C 0.41142 0.29195 0.18491 0.0
C675 C 0.41358 0.27212 0.14446 0.0
C676 C 0.42392 0.33474 0.20964 0.0
C677 C 0.41646 0.35597 0.18907 0.0
C678 C 0.43886 0.33475 0.26464 0.0
C679 C 0.44812 0.31314 0.28705 0.0
C680 C 0.44106 0.30359 0.34821 0.0
C681 C 0.44949 0.28294 0.3689 0.0
C682 C 0.4651 0.27184 0.329 0.0
C683 C 0.47241 0.2814 0.26843 0.0
C684 C 0.46407 0.30205 0.24758 0.0
C685 C 0.45275 0.43759 0.35147 0.0
C686 C 0.4771 0.4396 0.35803 0.0
C687 C 0.44103 0.41752 0.32248 0.0
C688 C 0.45356 0.39943 0.2982 0.0
C689 C 0.47801 0.40202 0.30178 0.0
C690 C 0.48969 0.42191 0.3318 0.0
C691 C 0.4414 0.37746 0.27051 0.0
C692 C 0.44706 0.35607 0.29517 0.0
C693 C 0.42535 0.37738 0.21801 0.0
C694 C 0.4192 0.39931 0.18842 0.0
C695 C 0.43636 0.4147 0.15787 0.0
C696 C 0.43047 0.43552 0.13084 0.0
C697 C 0.40745 0.44108 0.13387 0.0
C698 C 0.39025 0.42573 0.1635 0.0
C699 C 0.39604 0.40485 0.19043 0.0
H700 H 0.40294 0.45725 0.11314 0.0
H701 H 0.47156 0.25584 0.34506 0.0
H702 H 0.2306 0.59712 0.04302 0.0
H703 H 0.19437 0.61044 0.08578 0.0
H704 H 0.20441 0.57664 0.27024 0.0
H705 H 0.24021 0.56286 0.22738 0.0
H706 H 0.16286 0.5723 0.1082 0.0
H707 H 0.16976 0.59799 0.38841 0.0
H708 H 0.19508 0.62434 0.46107 0.0
H709 H 0.21551 0.66803 0.29656 0.0
H710 H 0.19005 0.64216 0.22299 0.0
H711 H 0.08324 0.51383 0.32376 0.0
H712 H 0.11596 0.53279 0.26124 0.0
H713 H 0.08742 0.59919 0.28307 0.0
H714 H 0.05442 0.58014 0.34607 0.0
H715 H 0.13342 0.60103 0.32258 0.0
H716 H 0.08896 0.57385 0.13174 0.0
H717 H 0.06483 0.54424 0.06534 0.0
H718 H 0.1214 0.50119 0.05392 0.0
H719 H 0.14574 0.53027 0.1212 0.0
C720 C 0.22561 0.59348 0.0938 0.0
C721 C 0.23783 0.57841 0.13127 0.0
C722 C 0.20495 0.60116 0.11819 0.0
C723 C 0.19655 0.59422 0.18072 0.0
C724 C 0.21063 0.5823 0.22192 0.0
C725 C 0.23119 0.57443 0.19734 0.0
C726 C 0.17135 0.5934 0.19571 0.0
C727 C 0.15627 0.57905 0.15439 0.0
C728 C 0.16283 0.60224 0.25583 0.0
C729 C 0.17799 0.61806 0.30006 0.0
C730 C 0.1795 0.61331 0.36774 0.0
C731 C 0.19392 0.62814 0.40911 0.0
C732 C 0.20691 0.64783 0.38344 0.0
C733 C 0.20548 0.65274 0.31635 0.0
C734 C 0.19108 0.63797 0.27477 0.0
C735 C 0.08365 0.53236 0.31389 0.0
C736 C 0.06637 0.54555 0.33957 0.0
C737 C 0.10232 0.54318 0.27808 0.0
C738 C 0.10404 0.56738 0.26725 0.0
C739 C 0.08633 0.58048 0.29075 0.0
C740 C 0.06748 0.56958 0.3263 0.0
C741 C 0.12546 0.57896 0.23662 0.0
C742 C 0.13978 0.59511 0.27518 0.0
C743 C 0.13352 0.57142 0.1744 0.0
C744 C 0.11916 0.55427 0.13179 0.0
C745 C 0.09624 0.55805 0.11524 0.0
C746 C 0.08252 0.54133 0.07751 0.0
C747 C 0.09157 0.52081 0.05577 0.0
C748 C 0.11442 0.51707 0.07096 0.0
C749 C 0.1282 0.53369 0.10879 0.0
H750 H 0.08083 0.50776 0.02729 0.0
H751 H 0.21807 0.65928 0.41554 0.0
H752 H 0.94372 0.74599 0.91831 0.0
H753 H 0.95502 0.77775 0.84084 0.0
H754 H 0.99006 0.81859 0.99841 0.0
H755 H 0.98051 0.78696 0.07419 0.0
H756 H 0.95614 0.84171 0.90947 0.0
H757 H 0.02239 0.79196 0.91339 0.0
H758 H 0.03804 0.75416 0.89044 0.0
H759 H 0.01662 0.7561 0.68801 0.0
H760 H 1.0005 0.79374 0.71018 0.0
H761 H 0.02834 0.93891 0.82014 0.0
H762 H 0.01481 0.90166 0.87165 0.0
H763 H 0.01803 0.8661 0.68199 0.0
H764 H 0.03345 0.90272 0.63213 0.0
H765 H 0.02572 0.8371 0.76583 0.0
H766 H 0.96724 0.88823 0.74652 0.0
H767 H 0.9493 0.92526 0.75828 0.0
H768 H 0.94894 0.9193 0.96949 0.0
H769 H 0.96768 0.88265 0.95916 0.0
C770 C 0.95391 0.7617 0.93628 0.0
C771 C 0.96083 0.764 0.00291 0.0
C772 C 0.96016 0.77982 0.89217 0.0
C773 C 0.97307 0.80046 0.91459 0.0
C774 C 0.97974 0.80288 0.98076 0.0
C775 C 0.97402 0.78477 0.02415 0.0
C776 C 0.98097 0.81955 0.86986 0.0
C777 C 0.97125 0.84083 0.8776 0.0
C778 C 1.00006 0.81791 0.82667 0.0
C779 C 0.00998 0.79545 0.81365 0.0
C780 C 0.02082 0.7842 0.8642 0.0
C781 C 0.02981 0.76283 0.8513 0.0
C782 C 0.02825 0.75269 0.78788 0.0
C783 C 0.01776 0.76393 0.73716 0.0
C784 C 0.00869 0.78527 0.74987 0.0
C785 C 0.02696 0.92293 0.79031 0.0
C786 C 0.03182 0.92358 0.72245 0.0
C787 C 0.0189 0.90175 0.81932 0.0
C788 C 0.01446 0.88125 0.78007 0.0
C789 C 0.02107 0.88166 0.71324 0.0
C790 C 0.02996 0.90263 0.68483 0.0
C791 C 1.00159 0.8599 0.80751 0.0
C792 C 0.01029 0.83816 0.79627 0.0
C793 C 0.98093 0.86096 0.84553 0.0
C794 C 0.96904 0.88271 0.85204 0.0
C795 C 0.96346 0.89486 0.79552 0.0
C796 C 0.9532 0.91583 0.80195 0.0
C797 C 0.94796 0.92462 0.86463 0.0
C798 C 0.95302 0.91247 0.92099 0.0
C799 C 0.96352 0.89162 0.91487 0.0
H800 H 0.93992 0.9408 0.8696 0.0
H801 H 0.03523 0.73615 0.778 0.0
H802 H 0.75126 0.07065 0.99962 0.0
H803 H 0.72149 0.08777 0.93426 0.0
H804 H 0.68776 0.01836 0.89362 0.0
H805 H 0.71702 0.00149 0.95906 0.0
H806 H 0.70349 0.08093 0.80243 0.0
H807 H 0.6321 0.01801 0.93146 0.0
H808 H 0.62547 0.99974 0.04009 0.0
H809 H 0.67049 0.05522 0.13123 0.0
H810 H 0.67717 0.07401 0.02329 0.0
H811 H 0.60762 0.04427 0.60893 0.0
H812 H 0.64218 0.05519 0.67495 0.0
H813 H 0.59967 0.08362 0.82741 0.0
H814 H 0.56475 0.07103 0.76284 0.0
H815 H 0.6232 0.0566 0.88145 0.0
H816 H 0.64604 0.11823 0.7386 0.0
H817 H 0.65299 0.139 0.63375 0.0
H818 H 0.70437 0.0931 0.57766 0.0
H819 H 0.69752 0.07181 0.68168 0.0
C820 C 0.73769 0.0592 0.97533 0.0
C821 C 0.73614 0.03489 0.98405 0.0
C822 C 0.72079 0.06892 0.9383 0.0
C823 C 0.7023 0.0543 0.91026 0.0
C824 C 0.70173 0.02992 0.91575 0.0
C825 C 0.71842 0.0203 0.95276 0.0
C826 C 0.68242 0.06398 0.87911 0.0
C827 C 0.68587 0.07599 0.81969 0.0
C828 C 0.65958 0.05838 0.90366 0.0
C829 C 0.65517 0.0474 0.96912 0.0
C830 C 0.64043 0.02643 0.97473 0.0
C831 C 0.63669 0.01596 0.03621 0.0
C832 C 0.64753 0.02633 0.09254 0.0
C833 C 0.66213 0.0472 0.08754 0.0
C834 C 0.66592 0.05775 0.0262 0.0
C835 C 0.60574 0.05339 0.6558 0.0
C836 C 0.58362 0.05662 0.68134 0.0
C837 C 0.62558 0.05991 0.69338 0.0
C838 C 0.62371 0.07048 0.75627 0.0
C839 C 0.60163 0.07542 0.77927 0.0
C840 C 0.5817 0.06827 0.74243 0.0
C841 C 0.64396 0.07242 0.80171 0.0
C842 C 0.64065 0.06245 0.86436 0.0
C843 C 0.66683 0.08055 0.78075 0.0
C844 C 0.67123 0.09339 0.71812 0.0
C845 C 0.65875 0.11248 0.70381 0.0
C846 C 0.66268 0.12436 0.64449 0.0
C847 C 0.67911 0.11737 0.59908 0.0
C848 C 0.69168 0.09852 0.61295 0.0
C849 C 0.68782 0.08657 0.67219 0.0
H850 H 0.68211 0.12658 0.55316 0.0
H851 H 0.64463 0.01824 0.14008 0.0
H852 H 0.62758 0.72866 0.01859 0.0
H853 H 0.63018 0.69496 0.9438 0.0
H854 H 0.56777 0.71095 0.8454 0.0
H855 H 0.56573 0.7449 0.91812 0.0
H856 H 0.59829 0.66143 0.96003 0.0
H857 H 0.557 0.68028 0.70519 0.0
H858 H 0.56123 0.71021 0.61921 0.0
H859 H 0.63084 0.73213 0.68422 0.0
H860 H 0.62721 0.70205 0.76995 0.0
H861 H 0.51312 0.57515 0.8209 0.0
H862 H 0.53461 0.61186 0.8617 0.0
H863 H 0.59467 0.59681 0.74638 0.0
H864 H 0.57379 0.56012 0.7073 0.0
H865 H 0.57562 0.64355 0.72718 0.0
H866 H 0.60725 0.59482 0.88643 0.0
H867 H 0.60307 0.56272 0.96621 0.0
H868 H 0.5563 0.60037 0.08358 0.0
H869 H 0.56033 0.63267 0.00463 0.0
C870 C 0.61521 0.72562 0.97857 0.0
C871 C 0.59633 0.73911 0.97434 0.0
C872 C 0.61662 0.70634 0.93608 0.0
C873 C 0.599 0.70019 0.88954 0.0
C874 C 0.58177 0.7154 0.88017 0.0
C875 C 0.58057 0.73487 0.92197 0.0
C876 C 0.59531 0.67587 0.86281 0.0
C877 C 0.59388 0.65764 0.90864 0.0
C878 C 0.58943 0.67068 0.79589 0.0
C879 C 0.59178 0.68891 0.74439 0.0
C880 C 0.57328 0.69137 0.70099 0.0
C881 C 0.57556 0.70839 0.65228 0.0
C882 C 0.59627 0.72309 0.64631 0.0
C883 C 0.61477 0.72078 0.68903 0.0
C884 C 0.61259 0.70375 0.73779 0.0
C885 C 0.53108 0.57943 0.80588 0.0
C886 C 0.54177 0.56495 0.7609 0.0
C887 C 0.54323 0.60039 0.82852 0.0
C888 C 0.56599 0.60703 0.8058 0.0
C889 C 0.57702 0.59204 0.76355 0.0
C890 C 0.56509 0.57104 0.74183 0.0
C891 C 0.57805 0.62999 0.82486 0.0
C892 C 0.5808 0.64767 0.77784 0.0
C893 C 0.5855 0.63476 0.89013 0.0
C894 C 0.58405 0.61607 0.93972 0.0
C895 C 0.59614 0.59624 0.92945 0.0
C896 C 0.59383 0.57802 0.97451 0.0
C897 C 0.57947 0.57948 0.03001 0.0
C898 C 0.56755 0.59926 0.04087 0.0
C899 C 0.56991 0.61758 0.99611 0.0
H900 H 0.57758 0.56522 0.06434 0.0
H901 H 0.598 0.73626 0.60854 0.0
H902 H 0.76507 0.44534 0.91463 0.0
H903 H 0.79751 0.43603 0.84262 0.0
H904 H 0.84186 0.49226 0.93608 0.0
H905 H 0.80946 0.50248 0.00372 0.0
H906 H 0.85241 0.49118 0.81625 0.0
H907 H 0.83785 0.4317 0.98388 0.0
H908 H 0.81429 0.39976 0.04085 0.0
H909 H 0.80801 0.35955 0.85933 0.0
H910 H 0.83134 0.39141 0.80116 0.0
H911 H 0.96569 0.46809 0.80801 0.0
H912 H 0.9273 0.46431 0.86071 0.0
H913 H 0.90009 0.41948 0.69975 0.0
H914 H 0.93854 0.42291 0.64712 0.0
H915 H 0.87749 0.41126 0.83102 0.0
H916 H 0.90291 0.47409 0.67709 0.0
H917 H 0.93048 0.50736 0.64176 0.0
H918 H 0.91908 0.54408 0.82398 0.0
H919 H 0.89243 0.51077 0.86187 0.0
C920 C 0.78162 0.45602 0.91821 0.0
C921 C 0.78497 0.47432 0.9655 0.0
C922 C 0.80017 0.45054 0.87775 0.0
C923 C 0.82226 0.4631 0.88504 0.0
C924 C 0.82505 0.48222 0.92957 0.0
C925 C 0.80657 0.48792 0.96878 0.0
C926 C 0.8431 0.45606 0.8499 0.0
C927 C 0.85783 0.47368 0.8195 0.0
C928 C 0.85006 0.43312 0.85321 0.0
C929 C 0.83604 0.41403 0.88805 0.0
C930 C 0.83129 0.41611 0.95607 0.0
C931 C 0.81801 0.39803 0.98857 0.0
C932 C 0.80959 0.37768 0.95368 0.0
C933 C 0.81449 0.37535 0.88625 0.0
C934 C 0.82774 0.39341 0.85349 0.0
C935 C 0.9518 0.45657 0.78541 0.0
C936 C 0.95479 0.44627 0.72288 0.0
C937 C 0.92991 0.45445 0.81547 0.0
C938 C 0.91091 0.44218 0.78286 0.0
C939 C 0.9146 0.42918 0.7251 0.0
C940 C 0.93655 0.43119 0.69513 0.0
C941 C 0.88711 0.44678 0.80159 0.0
C942 C 0.8718 0.42863 0.82722 0.0
C943 C 0.87997 0.46955 0.79671 0.0
C944 C 0.89577 0.48977 0.7726 0.0
C945 C 0.90648 0.48914 0.70995 0.0
C946 C 0.922 0.508 0.68948 0.0
C947 C 0.92658 0.52777 0.73057 0.0
C948 C 0.91568 0.52874 0.79228 0.0
C949 C 0.90042 0.50984 0.81337 0.0
H950 H 0.93852 0.54238 0.71449 0.0
H951 H 0.79932 0.36369 0.97893 0.0
H952 H 0.0221 0.23478 0.90332 0.0
H953 H 0.01794 0.19973 0.83128 0.0
H954 H 0.09188 0.19487 0.84439 0.0
H955 H 0.09597 0.23007 0.91518 0.0
H956 H 0.07807 0.17764 0.73174 0.0
H957 H 0.05454 0.17646 0.95658 0.0
H958 H 0.03311 0.183 0.07841 0.0
H959 H 0.95455 0.13122 0.95115 0.0
H960 H 0.98598 0.13314 0.84748 0.0
H961 H 0.06446 0.04886 0.6937 0.0
H962 H 0.07352 0.08795 0.74586 0.0
H963 H 0.00789 0.10809 0.67843 0.0
H964 H 0.99942 0.06989 0.62351 0.0
H965 H 0.02065 0.11596 0.82118 0.0
H966 H 0.05231 0.12274 0.59862 0.0
H967 H 0.07932 0.11452 0.5087 0.0
H968 H 0.13741 0.14118 0.62895 0.0
H969 H 0.11068 0.14937 0.72018 0.0
C970 C 0.0376 0.22698 0.88751 0.0
C971 C 0.05942 0.23531 0.91382 0.0
C972 C 0.03517 0.20668 0.8474 0.0
C973 C 0.05447 0.19418 0.83403 0.0
C974 C 0.07667 0.20403 0.85425 0.0
C975 C 0.07909 0.22434 0.89416 0.0
C976 C 0.0514 0.16985 0.80559 0.0
C977 C 0.06549 0.16421 0.7516 0.0
C978 C 0.03528 0.15198 0.83222 0.0
C979 C 0.02159 0.155 0.8938 0.0
C980 C 0.03639 0.16999 0.96156 0.0
C981 C 0.02285 0.17363 0.03986 0.0
C982 C 0.97852 0.15304 0.03852 0.0
C983 C 0.97174 0.14014 0.95927 0.0
C984 C 0.9922 0.14146 0.89331 0.0
C985 C 0.0521 0.06176 0.68992 0.0
C986 C 0.03134 0.05653 0.65434 0.0
C987 C 0.0573 0.084 0.71943 0.0
C988 C 0.04149 0.10095 0.71505 0.0
C989 C 0.02047 0.0954 0.68129 0.0
C990 C 0.01565 0.07358 0.6501 0.0
C991 C 0.04628 0.12448 0.74632 0.0
C992 C 0.03277 0.12977 0.80123 0.0
C993 C 0.06335 0.14167 0.72198 0.0
C994 C 0.07937 0.13659 0.6667 0.0
C995 C 0.0708 0.12673 0.60635 0.0
C996 C 0.08609 0.12209 0.55494 0.0
C997 C 0.11008 0.12728 0.5631 0.0
C998 C 0.11881 0.13717 0.62266 0.0
C999 C 0.10357 0.14185 0.67421 0.0
H1000 H 0.12191 0.12367 0.52325 0.0
H1001 H 0.965 0.1514 0.0768 0.0
H1002 H 0.2987 0.04905 0.95176 0.0
H1003 H 0.32989 0.05349 0.86861 0.0
H1004 H 0.30899 0.98359 0.7939 0.0
H1005 H 0.27796 0.97918 0.87762 0.0
H1006 H 0.35355 0.98834 0.82925 0.0
H1007 H 0.30579 0.03226 0.69718 0.0
H1008 H 0.28054 0.06326 0.67417 0.0
H1009 H 0.33602 0.11596 0.72601 0.0
H1010 H 0.36152 0.08526 0.75021 0.0
H1011 H 0.44514 0.98714 0.6014 0.0
H1012 H 0.40584 0.98686 0.64589 0.0
H1013 H 0.42143 0.05854 0.71336 0.0
H1014 H 0.46066 0.05909 0.66524 0.0
H1015 H 0.37797 0.05244 0.67496 0.0
H1016 H 0.4241 0.00971 0.81789 0.0
H1017 H 0.45001 0.97952 0.84358 0.0
H1018 H 0.39789 0.9256 0.7767 0.0
H1019 H 0.37178 0.95552 0.74984 0.0
C1020 C 0.3001 0.03513 0.9154 0.0
C1021 C 0.28565 0.01398 0.91996 0.0
C1022 C 0.31802 0.03759 0.8681 0.0
C1023 C 0.32186 0.01888 0.82473 0.0
C1024 C 0.30639 0.9983 0.8266 0.0
C1025 C 0.28847 0.99587 0.87384 0.0
C1026 C 0.34367 0.01953 0.78429 0.0
C1027 C 0.35862 0.00212 0.79451 0.0
C1028 C 0.35079 0.03794 0.74068 0.0
C1029 C 0.33551 0.05644 0.72604 0.0
C1030 C 0.31255 0.05045 0.7042 0.0
C1031 C 0.29821 0.06798 0.69083 0.0
C1032 C 0.30666 0.09156 0.69876 0.0
C1033 C 0.32949 0.09768 0.71993 0.0
C1034 C 0.34391 0.08022 0.73339 0.0
C1035 C 0.44018 0.00289 0.62484 0.0
C1036 C 0.45615 0.02297 0.63024 0.0
C1037 C 0.41768 0.00269 0.65099 0.0
C1038 C 0.41074 0.02246 0.68496 0.0
C1039 C 0.42633 0.04298 0.68784 0.0
C1040 C 0.44879 0.04326 0.66048 0.0
C1041 C 0.38778 0.02124 0.72008 0.0
C1042 C 0.37273 0.03856 0.70924 0.0
C1043 C 0.3806 0.00289 0.76392 0.0
C1044 C 0.39607 0.98486 0.78137 0.0
C1045 C 0.41821 0.99142 0.80845 0.0
C1046 C 0.43293 0.97436 0.8232 0.0
C1047 C 0.42562 0.95066 0.81163 0.0
C1048 C 0.40354 0.94397 0.78556 0.0
C1049 C 0.38876 0.96096 0.77064 0.0
H1050 H 0.43706 0.93749 0.82296 0.0
H1051 H 0.29552 0.1051 0.68839 0.0
H1052 H 0.42978 0.25268 0.82381 0.0
H1053 H 0.44201 0.28814 0.76242 0.0
H1054 H 0.50668 0.29647 0.8696 0.0
H1055 H 0.4945 0.26096 0.93072 0.0
H1056 H 0.47956 0.33275 0.8922 0.0
H1057 H 0.50712 0.29136 0.70282 0.0
H1058 H 0.50466 0.26205 0.61163 0.0
H1059 H 0.4464 0.29255 0.53101 0.0
H1060 H 0.44831 0.32183 0.62206 0.0
H1061 H 0.51403 0.44589 0.75572 0.0
H1062 H 0.51079 0.40604 0.79899 0.0
H1063 H 0.45285 0.38626 0.6689 0.0
H1064 H 0.45674 0.4256 0.62399 0.0
H1065 H 0.48053 0.35517 0.65701 0.0
H1066 H 0.44796 0.39226 0.84494 0.0
H1067 H 0.44544 0.42031 0.93814 0.0
H1068 H 0.50678 0.39719 0.02356 0.0
H1069 H 0.50982 0.36916 0.93048 0.0
C1070 C 0.44725 0.26119 0.831 0.0
C1071 C 0.46118 0.25404 0.88202 0.0
C1072 C 0.45413 0.28168 0.79651 0.0
C1073 C 0.47512 0.29522 0.81223 0.0
C1074 C 0.49035 0.2864 0.85697 0.0
C1075 C 0.48355 0.26581 0.89105 0.0
C1076 C 0.4791 0.32004 0.79126 0.0
C1077 C 0.48032 0.33771 0.8407 0.0
C1078 C 0.479 0.32646 0.72423 0.0
C1079 C 0.47777 0.30871 0.66962 0.0
C1080 C 0.49366 0.2917 0.66597 0.0
C1081 C 0.4924 0.2751 0.61417 0.0
C1082 C 0.47538 0.27541 0.56553 0.0
C1083 C 0.4596 0.29232 0.56859 0.0
C1084 C 0.46078 0.30893 0.62026 0.0
C1085 C 0.50024 0.43316 0.73775 0.0
C1086 C 0.48559 0.43883 0.68669 0.0
C1087 C 0.49841 0.41033 0.76235 0.0
C1088 C 0.48156 0.39296 0.73726 0.0
C1089 C 0.46616 0.39914 0.68871 0.0
C1090 C 0.46827 0.42172 0.66339 0.0
C1091 C 0.48073 0.36803 0.75798 0.0
C1092 C 0.48006 0.35032 0.70857 0.0
C1093 C 0.48069 0.36152 0.82514 0.0
C1094 C 0.47929 0.37882 0.88024 0.0
C1095 C 0.46107 0.39335 0.88318 0.0
C1096 C 0.45951 0.40919 0.93611 0.0
C1097 C 0.47598 0.41058 0.98662 0.0
C1098 C 0.49406 0.39612 0.98433 0.0
C1099 C 0.4957 0.38025 0.93152 0.0
H1100 H 0.4747 0.42281 0.02763 0.0
H1101 H 0.47444 0.26257 0.52543 0.0
H1102 H 0.22053 0.49438 0.02868 0.0
H1103 H 0.18838 0.48418 0.95156 0.0
H1104 H 0.22362 0.52901 0.80587 0.0
H1105 H 0.25564 0.53941 0.8835 0.0
H1106 H 0.16227 0.51951 0.90927 0.0
H1107 H 0.20238 0.5086 0.65078 0.0
H1108 H 0.23695 0.49377 0.59877 0.0
H1109 H 0.2413 0.44621 0.75822 0.0
H1110 H 0.20659 0.46053 0.81072 0.0
H1111 H 0.09139 0.53488 0.60995 0.0
H1112 H 0.12781 0.53579 0.67302 0.0
H1113 H 0.10529 0.46765 0.74973 0.0
H1114 H 0.06855 0.46709 0.68964 0.0
H1115 H 0.16006 0.48737 0.6796 0.0
H1116 H 0.09817 0.4902 0.85426 0.0
H1117 H 0.06443 0.50876 0.89827 0.0
H1118 H 0.10574 0.57534 0.90834 0.0
H1119 H 0.13938 0.55736 0.86086 0.0
C1120 C 0.22198 0.50101 0.9789 0.0
C1121 C 0.24085 0.51721 0.96141 0.0
C1122 C 0.20342 0.49551 0.93525 0.0
C1123 C 0.20348 0.50592 0.87299 0.0
C1124 C 0.22324 0.52058 0.85333 0.0
C1125 C 0.2417 0.52628 0.89734 0.0
C1126 C 0.1819 0.5037 0.83232 0.0
C1127 C 0.16178 0.51218 0.85937 0.0
C1128 C 0.18133 0.49483 0.76646 0.0
C1129 C 0.20201 0.48581 0.73495 0.0
C1130 C 0.21066 0.49491 0.67459 0.0
C1131 C 0.23029 0.48661 0.64505 0.0
C1132 C 0.24136 0.46911 0.67527 0.0
C1133 C 0.23277 0.45983 0.73499 0.0
C1134 C 0.21314 0.46806 0.76472 0.0
C1135 C 0.09426 0.5201 0.64022 0.0
C1136 C 0.07703 0.50101 0.64538 0.0
C1137 C 0.11503 0.52064 0.67615 0.0
C1138 C 0.11911 0.50188 0.71653 0.0
C1139 C 0.10236 0.48241 0.71948 0.0
C1140 C 0.08137 0.48215 0.68522 0.0
C1141 C 0.14053 0.50274 0.75717 0.0
C1142 C 0.16061 0.49439 0.72981 0.0
C1143 C 0.14121 0.51193 0.82258 0.0
C1144 C 0.1211 0.52254 0.85237 0.0
C1145 C 0.0999 0.50889 0.86429 0.0
C1146 C 0.08079 0.51932 0.8898 0.0
C1147 C 0.08288 0.54326 0.90548 0.0
C1148 C 0.1041 0.55682 0.89577 0.0
C1149 C 0.12314 0.54655 0.86908 0.0
H1150 H 0.06811 0.55127 0.92572 0.0
H1151 H 0.25656 0.46272 0.65235 0.0
H1152 H 0.99149 0.74759 0.23343 0.0
H1153 H 0.99495 0.78072 0.3111 0.0
H1154 H 0.92003 0.7767 0.32726 0.0
H1155 H 0.91672 0.74416 0.24662 0.0
H1156 H 0.93414 0.81747 0.29255 0.0
H1157 H 0.95831 0.77108 0.46544 0.0
H1158 H 0.9803 0.7427 0.5217 0.0
H1159 H 0.04425 0.78577 0.48534 0.0
H1160 H 0.0227 0.81428 0.42814 0.0
H1161 H 0.97833 0.91005 0.56762 0.0
H1162 H 0.96799 0.86993 0.52906 0.0
H1163 H 0.97698 0.89193 0.32703 0.0
H1164 H 0.98687 0.93253 0.36554 0.0
H1165 H 0.99173 0.8408 0.4682 0.0
H1166 H 0.94301 0.85611 0.22485 0.0
H1167 H 0.91735 0.88392 0.18107 0.0
H1168 H 0.89564 0.90075 0.37833 0.0
H1169 H 0.92092 0.87283 0.42321 0.0
C1170 C 0.97581 0.75283 0.2568 0.0
C1171 C 0.95384 0.74308 0.23475 0.0
C1172 C 0.97777 0.77203 0.30092 0.0
C1173 C 0.95775 0.78154 0.32503 0.0
C1174 C 0.93578 0.76992 0.30908 0.0
C1175 C 0.93384 0.75094 0.26406 0.0
C1176 C 0.95972 0.80536 0.35734 0.0
C1177 C 0.9466 0.82241 0.33146 0.0
C1178 C 0.97576 0.81205 0.40863 0.0
C1179 C 0.98887 0.79476 0.44206 0.0
C1180 C 0.97709 0.77441 0.46891 0.0
C1181 C 0.98947 0.75832 0.50111 0.0
C1182 C 0.01366 0.76241 0.50702 0.0
C1183 C 0.02551 0.78262 0.48074 0.0
C1184 C 0.01322 0.79877 0.4485 0.0
C1185 C 0.97788 0.9065 0.51483 0.0
C1186 C 0.98341 0.92461 0.4696 0.0
C1187 C 0.97205 0.88342 0.49287 0.0
C1188 C 0.97162 0.87774 0.42511 0.0
C1189 C 0.97681 0.89583 0.37961 0.0
C1190 C 0.98249 0.91907 0.40162 0.0
C1191 C 0.96645 0.8528 0.40256 0.0
C1192 C 0.97908 0.83567 0.42989 0.0
C1193 C 0.94947 0.84586 0.35405 0.0
C1194 C 0.93405 0.86254 0.32738 0.0
C1195 C 0.9327 0.86568 0.25885 0.0
C1196 C 0.91823 0.88147 0.23385 0.0
C1197 C 0.90493 0.89415 0.2769 0.0
C1198 C 0.90602 0.89099 0.34504 0.0
C1199 C 0.92044 0.87521 0.37029 0.0
H1200 H 0.89375 0.90637 0.25744 0.0
H1201 H 0.02321 0.74996 0.53206 0.0
H1202 H 0.74909 0.02182 0.25377 0.0
H1203 H 0.71543 0.01373 0.32772 0.0
H1204 H 0.69153 0.9534 0.207 0.0
H1205 H 0.72527 0.96136 0.13371 0.0
H1206 H 0.66087 0.98825 0.2143 0.0
H1207 H 0.70477 0.94564 0.36343 0.0
H1208 H 0.73769 0.94026 0.43655 0.0
H1209 H 0.72106 0.99847 0.55849 0.0
H1210 H 0.68823 0.00442 0.48555 0.0
H1211 H 0.55258 0.96119 0.36352 0.0
H1212 H 0.59178 0.95883 0.32056 0.0
H1213 H 0.61965 0.0047 0.47885 0.0
H1214 H 0.58035 0.00507 0.52566 0.0
H1215 H 0.64953 0.97684 0.45508 0.0
H1216 H 0.60964 0.02311 0.31017 0.0
H1217 H 0.57789 0.03294 0.23866 0.0
H1218 H 0.58894 0.97512 0.10839 0.0
H1219 H 0.62044 0.96445 0.18028 0.0
C1220 C 0.7374 0.00604 0.2455 0.0
C1221 C 0.74004 0.9919 0.18893 0.0
C1222 C 0.71801 0.00156 0.28734 0.0
C1223 C 0.70086 0.98301 0.27276 0.0
C1224 C 0.70455 0.96775 0.21938 0.0
C1225 C 0.72402 0.9721 0.17802 0.0
C1226 C 0.67759 0.98182 0.30578 0.0
C1227 C 0.65831 0.98533 0.26679 0.0
C1228 C 0.67444 0.97919 0.37474 0.0
C1229 C 0.69417 0.97561 0.41863 0.0
C1230 C 0.70826 0.95744 0.40548 0.0
C1231 C 0.72688 0.95425 0.44698 0.0
C1232 C 0.7315 0.96904 0.50204 0.0
C1233 C 0.71748 0.98703 0.51579 0.0
C1234 C 0.69885 0.9903 0.47442 0.0
C1235 C 0.56705 0.9707 0.38947 0.0
C1236 C 0.56327 0.98382 0.44726 0.0
C1237 C 0.58956 0.96951 0.36445 0.0
C1238 C 0.60885 0.98233 0.39463 0.0
C1239 C 0.60518 0.99484 0.45381 0.0
C1240 C 0.58264 0.9953 0.48031 0.0
C1241 C 0.63258 0.98302 0.36338 0.0
C1242 C 0.65198 0.97964 0.40254 0.0
C1243 C 0.63608 0.98651 0.29459 0.0
C1244 C 0.61725 0.99286 0.25096 0.0
C1245 C 0.60521 0.01238 0.26651 0.0
C1246 C 0.58727 0.01811 0.22586 0.0
C1247 C 0.58142 0.00469 0.16894 0.0
C1248 C 0.59347 0.98543 0.15264 0.0
C1249 C 0.61135 0.97952 0.19334 0.0
H1250 H 0.56755 0.00921 0.13745 0.0
H1251 H 0.74592 0.96654 0.53412 0.0
H1252 H 0.5306 0.73939 0.20136 0.0
H1253 H 0.52011 0.70557 0.27242 0.0
H1254 H 0.59249 0.69378 0.28474 0.0
H1255 H 0.6031 0.72783 0.21614 0.0
H1256 H 0.55979 0.65503 0.22744 0.0
H1257 H 0.57283 0.70624 0.41751 0.0
H1258 H 0.56777 0.74058 0.48946 0.0
H1259 H 0.49468 0.71844 0.50776 0.0
H1260 H 0.49929 0.68405 0.4353 0.0
H1261 H 0.55361 0.55425 0.42574 0.0
H1262 H 0.56398 0.59275 0.37737 0.0
H1263 H 0.49581 0.61272 0.42806 0.0
H1264 H 0.48624 0.57482 0.48078 0.0
H1265 H 0.52593 0.64798 0.4532 0.0
H1266 H 0.51247 0.59749 0.25927 0.0
H1267 H 0.51837 0.56046 0.20031 0.0
H1268 H 0.59212 0.58039 0.19345 0.0
H1269 H 0.58662 0.61761 0.25209 0.0
C1270 C 0.54433 0.73023 0.22175 0.0
C1271 C 0.56766 0.7362 0.20291 0.0
C1272 C 0.53831 0.71076 0.26171 0.0
C1273 C 0.55552 0.69698 0.28291 0.0
C1274 C 0.57894 0.70405 0.26845 0.0
C1275 C 0.58497 0.7236 0.2296 0.0
C1276 C 0.5491 0.67392 0.31381 0.0
C1277 C 0.55252 0.6535 0.27698 0.0
C1278 C 0.53928 0.67187 0.37787 0.0
C1279 C 0.53634 0.69277 0.4202 0.0
C1280 C 0.55562 0.70886 0.43614 0.0
C1281 C 0.55285 0.72828 0.47721 0.0
C1282 C 0.5309 0.73175 0.50291 0.0
C1283 C 0.51167 0.71576 0.48768 0.0
C1284 C 0.51435 0.6963 0.44666 0.0
C1285 C 0.54077 0.56677 0.42529 0.0
C1286 C 0.51896 0.5615 0.4553 0.0
C1287 C 0.54665 0.58879 0.39769 0.0
C1288 C 0.5305 0.60563 0.39748 0.0
C1289 C 0.50858 0.60013 0.42719 0.0
C1290 C 0.50299 0.57839 0.45651 0.0
C1291 C 0.53646 0.62899 0.36679 0.0
C1292 C 0.53296 0.64947 0.40341 0.0
C1293 C 0.54607 0.63114 0.30229 0.0
C1294 C 0.54915 0.61022 0.26024 0.0
C1295 C 0.52991 0.59405 0.24453 0.0
C1296 C 0.53319 0.573 0.21147 0.0
C1297 C 0.55562 0.56797 0.19382 0.0
C1298 C 0.57477 0.58425 0.20765 0.0
C1299 C 0.57157 0.60541 0.24026 0.0
H1300 H 0.55813 0.55151 0.16906 0.0
H1301 H 0.5288 0.74677 0.53482 0.0
H1302 H 0.76677 0.45299 0.21621 0.0
H1303 H 0.79948 0.45677 0.2932 0.0
H1304 H 0.807 0.53161 0.26879 0.0
H1305 H 0.77441 0.52774 0.19089 0.0
H1306 H 0.84294 0.47402 0.24351 0.0
H1307 H 0.83654 0.55563 0.41204 0.0
H1308 H 0.80656 0.57598 0.4707 0.0
H1309 H 0.76219 0.51133 0.48099 0.0
H1310 H 0.79201 0.49055 0.42325 0.0
H1311 H 0.95537 0.51884 0.36423 0.0
H1312 H 0.91618 0.51761 0.31745 0.0
H1313 H 0.88702 0.48533 0.49406 0.0
H1314 H 0.92595 0.48585 0.54032 0.0
H1315 H 0.86107 0.52101 0.44852 0.0
H1316 H 0.89392 0.45193 0.36524 0.0
H1317 H 0.92358 0.43071 0.30817 0.0
H1318 H 0.91377 0.46796 0.13032 0.0
H1319 H 0.8843 0.48968 0.18668 0.0
C1320 C 0.77446 0.47038 0.23044 0.0
C1321 C 0.7677 0.49012 0.19848 0.0
C1322 C 0.79348 0.47249 0.27347 0.0
C1323 C 0.80594 0.49444 0.28626 0.0
C1324 C 0.79764 0.51449 0.26003 0.0
C1325 C 0.77872 0.51234 0.21631 0.0
C1326 C 0.82917 0.4959 0.31896 0.0
C1327 C 0.84684 0.4843 0.2884 0.0
C1328 C 0.83441 0.50933 0.3774 0.0
C1329 C 0.81643 0.5216 0.41267 0.0
C1330 C 0.82041 0.54575 0.42701 0.0
C1331 C 0.80344 0.55736 0.46008 0.0
C1332 C 0.78245 0.54497 0.47936 0.0
C1333 C 0.77841 0.52093 0.46578 0.0
C1334 C 0.79533 0.50924 0.43275 0.0
C1335 C 0.94064 0.51158 0.39335 0.0
C1336 C 0.94398 0.50262 0.45647 0.0
C1337 C 0.91821 0.5109 0.36649 0.0
C1338 C 0.89858 0.50142 0.40226 0.0
C1339 C 0.90181 0.49292 0.46568 0.0
C1340 C 0.9242 0.49328 0.49214 0.0
C1341 C 0.87481 0.4993 0.37265 0.0
C1342 C 0.85712 0.51081 0.40354 0.0
C1343 C 0.86948 0.48576 0.31445 0.0
C1344 C 0.88709 0.47261 0.28039 0.0
C1345 C 0.89823 0.45574 0.31413 0.0
C1346 C 0.91499 0.44359 0.28188 0.0
C1347 C 0.92061 0.44803 0.21572 0.0
C1348 C 0.90943 0.46457 0.1816 0.0
C1349 C 0.89269 0.4768 0.21367 0.0
H1350 H 0.93358 0.43861 0.19084 0.0
H1351 H 0.76933 0.55399 0.50495 0.0
loop_
_geom_bond_atom_site_label_1
_geom_bond_atom_site_label_2
_geom_bond_distance
_geom_bond_site_symmetry_2
_ccdc_geom_bond_type
H0 C3 0.931 . S
H1 C6 0.928 . S
H2 C8 0.930 . S
C3 H0 0.931 . S
C3 C4 1.413 . S
C3 C5 1.360 1_554 S
C4 C3 1.413 . S
C4 C8 1.429 . S
C5 C3 1.360 1_556 S
C5 C6 1.372 . S
C6 H1 0.928 . S
C6 C5 1.372 . S
C6 C7 1.404 1_556 S
C7 C6 1.404 1_554 S
C7 C8 1.391 . S
C8 H2 0.930 . S
C8 C4 1.429 . S
C8 C7 1.391 . S
H9 C12 0.931 . S
H10 C15 0.928 . S
H11 C17 0.930 . S
C12 H9 0.931 . S
C12 C13 1.413 . S
C12 C14 1.360 1_554 S
C13 C12 1.413 . S
C13 C17 1.429 . S
C14 C12 1.360 1_556 S
C14 C15 1.372 . S
C15 H10 0.928 . S
C15 C14 1.372 . S
C15 C16 1.404 . S
C16 C15 1.404 . S
C16 C17 1.391 1_556 S
C17 H11 0.930 . S
C17 C13 1.429 . S
C17 C16 1.391 1_554 S
H18 C21 0.931 . S
H19 C24 0.928 . S
H20 C26 0.932 . S
C21 H18 0.931 . S
C21 C22 1.414 . S
C21 C23 1.360 1_554 S
C22 C21 1.414 . S
C22 C26 1.430 1_565 S
C23 C21 1.360 1_556 S
C23 C24 1.374 . S
C24 H19 0.928 . S
C24 C23 1.374 . S
C24 C25 1.403 1_556 S
C25 C24 1.403 1_554 S
C25 C26 1.390 1_565 S
C26 H20 0.932 . S
C26 C22 1.430 1_545 S
C26 C25 1.390 1_545 S
H27 C30 0.931 . S
H28 C33 0.928 . S
H29 C35 0.930 . S
C30 H27 0.931 . S
C30 C31 1.413 . S
C30 C32 1.360 . S
C31 C30 1.413 . S
C31 C35 1.429 1_554 S
C32 C30 1.360 . S
C32 C33 1.372 . S
C33 H28 0.928 . S
C33 C32 1.372 . S
C33 C34 1.404 . S
C34 C33 1.404 . S
C34 C35 1.391 1_554 S
C35 H29 0.930 . S
C35 C31 1.429 1_556 S
C35 C34 1.391 1_556 S
H36 C39 0.931 . S
H37 C42 0.928 . S
H38 C44 0.930 . S
C39 H36 0.931 . S
C39 C40 1.413 . S
C39 C41 1.360 . S
C40 C39 1.413 . S
C40 C44 1.429 . S
C41 C39 1.360 . S
C41 C42 1.372 . S
C42 H37 0.928 . S
C42 C41 1.372 . S
C42 C43 1.404 . S
C43 C42 1.404 . S
C43 C44 1.391 . S
C44 H38 0.930 . S
C44 C40 1.429 . S
C44 C43 1.391 . S
H45 C48 0.931 . S
H46 C51 0.928 . S
H47 C53 0.930 . S
C48 H45 0.931 . S
C48 C49 1.413 . S
C48 C50 1.360 . S
C49 C48 1.413 . S
C49 C53 1.429 . S
C50 C48 1.360 . S
C50 C51 1.372 . S
C51 H46 0.928 . S
C51 C50 1.372 . S
C51 C52 1.404 . S
C52 C51 1.404 . S
C52 C53 1.391 . S
C53 H47 0.930 . S
C53 C49 1.429 . S
C53 C52 1.391 . S
H54 C57 0.930 . S
H55 C60 0.928 . S
H56 C62 0.927 1_556 S
C57 H54 0.930 . S
C57 C58 1.413 . S
C57 C59 1.360 . S
C58 C57 1.413 . S
C58 C62 1.428 1_565 S
C59 C57 1.360 . S
C59 C60 1.371 . S
C60 H55 0.928 . S
C60 C59 1.371 . S
C60 C61 1.404 . S
C61 C60 1.404 . S
C61 C62 1.391 1_565 S
C62 H56 0.927 1_554 S
C62 C58 1.428 1_545 S
C62 C61 1.391 1_545 S
H63 C66 0.931 . S
H64 C69 0.928 1_556 S
H65 C71 0.930 . S
C66 H63 0.931 . S
C66 C67 1.413 . S
C66 C68 1.360 1_554 S
C67 C66 1.413 . S
C67 C71 1.429 . S
C68 C66 1.360 1_556 S
C68 C69 1.372 1_556 S
C69 H64 0.928 1_554 S
C69 C68 1.372 1_554 S
C69 C70 1.404 . S
C70 C69 1.404 . S
C70 C71 1.391 . S
C71 H65 0.930 . S
C71 C67 1.429 . S
C71 C70 1.391 . S
Dy72 O76 2.398 . S
Dy72 O77 2.491 1_455 S
Dy72 O78 2.403 . S
Dy72 O79 2.664 1_565 S
Dy72 O83 2.326 . S
Dy72 O87 2.310 1_455 S
Dy72 O88 2.351 1_565 S
C73 O84 1.185 1_455 S
C73 O85 1.355 . S
C74 O76 1.185 . S
C74 O77 1.355 1_455 S
Dy75 O79 2.310 1_655 S
Dy75 O82 2.351 1_545 S
Dy75 O84 2.398 . S
Dy75 O85 2.491 1_655 S
Dy75 O86 2.403 . S
Dy75 O87 2.664 1_545 S
Dy75 O89 2.326 1_655 S
O76 Dy72 2.398 . S
O76 C74 1.185 . S
O77 Dy72 2.491 1_655 S
O77 C74 1.355 1_655 S
O78 Dy72 2.403 . S
O78 C80 1.254 . S
O79 Dy72 2.664 1_545 S
O79 Dy75 2.310 1_455 S
O79 C80 1.268 1_545 S
C80 O78 1.254 . S
C80 O79 1.268 1_565 S
C81 O86 1.254 . S
C81 O87 1.268 1_545 S
O82 Dy75 2.351 1_565 S
O82 C90 1.249 . S
O83 Dy72 2.326 . S
O83 C90 1.267 1_455 S
O84 C73 1.185 1_655 S
O84 Dy75 2.398 . S
O85 C73 1.355 . S
O85 Dy75 2.491 1_455 S
O86 Dy75 2.403 . S
O86 C81 1.254 . S
O87 Dy72 2.310 1_655 S
O87 Dy75 2.664 1_565 S
O87 C81 1.268 1_565 S
O88 Dy72 2.351 1_545 S
O88 C91 1.249 . S
O89 Dy75 2.326 1_455 S
O89 C91 1.267 . S
C90 O82 1.249 . S
C90 O83 1.267 1_655 S
C91 O88 1.249 . S
C91 O89 1.267 . S
Dy92 O96 2.398 . S
Dy92 O97 2.491 . S
Dy92 O98 2.403 . S
Dy92 O99 2.664 . S
Dy92 O103 2.326 1_565 S
Dy92 O107 2.310 1_565 S
Dy92 O108 2.351 . S
C93 O104 1.185 . S
C93 O105 1.355 . S
C94 O96 1.185 . S
C94 O97 1.355 . S
Dy95 O99 2.310 1_545 S
Dy95 O102 2.351 . S
Dy95 O104 2.398 . S
Dy95 O105 2.491 . S
Dy95 O106 2.403 . S
Dy95 O107 2.664 . S
Dy95 O109 2.326 1_545 S
O96 Dy92 2.398 . S
O96 C94 1.185 . S
O97 Dy92 2.491 . S
O97 C94 1.355 . S
O98 Dy92 2.403 . S
O98 C100 1.254 . S
O99 Dy92 2.664 . S
O99 Dy95 2.310 1_565 S
O99 C100 1.268 . S
C100 O98 1.254 . S
C100 O99 1.268 . S
C101 O106 1.254 . S
C101 O107 1.268 . S
O102 Dy95 2.351 . S
O102 C110 1.249 . S
O103 Dy92 2.326 1_545 S
O103 C110 1.267 . S
O104 C93 1.185 . S
O104 Dy95 2.398 . S
O105 C93 1.355 . S
O105 Dy95 2.491 . S
O106 Dy95 2.403 . S
O106 C101 1.254 . S
O107 Dy92 2.310 1_545 S
O107 Dy95 2.664 . S
O107 C101 1.268 . S
O108 Dy92 2.351 . S
O108 C111 1.249 . S
O109 Dy95 2.326 1_565 S
O109 C111 1.267 . S
C110 O102 1.249 . S
C110 O103 1.267 . S
C111 O108 1.249 . S
C111 O109 1.267 . S
Dy112 O116 2.398 . S
Dy112 O117 2.491 . S
Dy112 O118 2.403 . S
Dy112 O119 2.664 . S
Dy112 O123 2.326 . S
Dy112 O127 2.310 . S
Dy112 O128 2.351 . S
C113 O124 1.185 . S
C113 O125 1.355 . S
C114 O116 1.185 . S
C114 O117 1.355 . S
Dy115 O119 2.310 . S
Dy115 O122 2.351 . S
Dy115 O124 2.398 . S
Dy115 O125 2.491 . S
Dy115 O126 2.403 . S
Dy115 O127 2.664 . S
Dy115 O129 2.326 . S
O116 Dy112 2.398 . S
O116 C114 1.185 . S
O117 Dy112 2.491 . S
O117 C114 1.355 . S
O118 Dy112 2.403 . S
O118 C120 1.254 . S
O119 Dy112 2.664 . S
O119 Dy115 2.310 . S
O119 C120 1.268 . S
C120 O118 1.254 . S
C120 O119 1.268 . S
C121 O126 1.254 . S
C121 O127 1.268 . S
O122 Dy115 2.351 . S
O122 C130 1.249 . S
O123 Dy112 2.326 . S
O123 C130 1.267 . S
O124 C113 1.185 . S
O124 Dy115 2.398 . S
O125 C113 1.355 . S
O125 Dy115 2.491 . S
O126 Dy115 2.403 . S
O126 C121 1.254 . S
O127 Dy112 2.310 . S
O127 Dy115 2.664 . S
O127 C121 1.268 . S
O128 Dy112 2.351 . S
O128 C131 1.249 . S
O129 Dy115 2.326 . S
O129 C131 1.267 . S
C130 O122 1.249 . S
C130 O123 1.267 . S
C131 O128 1.249 . S
C131 O129 1.267 . S
Dy132 O136 2.398 . S
Dy132 O137 2.491 . S
Dy132 O138 2.403 1_655 S
Dy132 O139 2.664 1_655 S
Dy132 O143 2.326 . S
Dy132 O147 2.310 . S
Dy132 O148 2.351 1_655 S
C133 O144 1.185 . S
C133 O145 1.355 . S
C134 O136 1.185 . S
C134 O137 1.355 . S
Dy135 O139 2.310 . S
Dy135 O142 2.351 1_455 S
Dy135 O144 2.398 . S
Dy135 O145 2.491 . S
Dy135 O146 2.403 . S
Dy135 O147 2.664 1_455 S
Dy135 O149 2.326 . S
O136 Dy132 2.398 . S
O136 C134 1.185 . S
O137 Dy132 2.491 . S
O137 C134 1.355 . S
O138 Dy132 2.403 1_455 S
O138 C140 1.254 . S
O139 Dy132 2.664 1_455 S
O139 Dy135 2.310 . S
O139 C140 1.268 . S
C140 O138 1.254 . S
C140 O139 1.268 . S
C141 O146 1.254 1_655 S
C141 O147 1.268 . S
O142 Dy135 2.351 1_655 S
O142 C150 1.249 . S
O143 Dy132 2.326 . S
O143 C150 1.267 . S
O144 C133 1.185 . S
O144 Dy135 2.398 . S
O145 C133 1.355 . S
O145 Dy135 2.491 . S
O146 Dy135 2.403 . S
O146 C141 1.254 1_455 S
O147 Dy132 2.310 . S
O147 Dy135 2.664 1_655 S
O147 C141 1.268 . S
O148 Dy132 2.351 1_455 S
O148 C151 1.249 . S
O149 Dy135 2.326 . S
O149 C151 1.267 . S
C150 O142 1.249 . S
C150 O143 1.267 . S
C151 O148 1.249 . S
C151 O149 1.267 . S
H152 C170 0.951 . S
H153 C172 0.951 . S
H154 C174 0.950 . S
H155 C175 0.950 . S
H156 C177 0.950 . S
H157 C180 0.950 . S
H158 C181 0.950 . S
H159 C183 0.950 . S
H160 C184 0.950 . S
H161 C185 0.951 . S
H162 C187 0.951 . S
H163 C189 0.950 . S
H164 C190 0.950 . S
H165 C192 0.950 . S
H166 C195 0.950 . S
H167 C196 0.950 . S
H168 C198 0.950 . S
H169 C199 0.950 . S
C170 H152 0.951 . S
C170 C171 1.363 1_545 S
C170 C172 1.388 . S
C171 C170 1.363 1_565 S
C171 C175 1.388 . S
C172 H153 0.951 . S
C172 C170 1.388 . S
C172 C173 1.338 1_545 S
C173 C172 1.338 1_565 S
C173 C174 1.444 . S
C173 C176 1.498 . S
C174 H154 0.950 . S
C174 C173 1.444 . S
C174 C175 1.374 . S
C175 H155 0.950 . S
C175 C171 1.388 . S
C175 C174 1.374 . S
C176 C173 1.498 . S
C176 C177 1.373 . S
C176 C178 1.389 1_565 S
C177 H156 0.950 . S
C177 C176 1.373 . S
C177 C193 1.377 . S
C178 C176 1.389 1_545 S
C178 C179 1.524 . S
C178 C192 1.377 . S
C179 C178 1.524 . S
C179 C180 1.397 . S
C179 C184 1.363 . S
C180 H157 0.950 . S
C180 C179 1.397 . S
C180 C181 1.334 . S
C181 H158 0.950 . S
C181 C180 1.334 . S
C181 C182 1.287 . S
C182 C181 1.287 . S
C182 C183 1.524 . S
C182 H201 0.913 . S
C183 H159 0.950 . S
C183 C182 1.524 . S
C183 C184 1.415 . S
C184 H160 0.950 . S
C184 C179 1.363 . S
C184 C183 1.415 . S
C185 H161 0.951 . S
C185 C186 1.366 . S
C185 C187 1.388 . S
C186 C185 1.366 . S
C186 C190 1.385 1_565 S
C187 H162 0.951 . S
C187 C185 1.388 . S
C187 C188 1.366 . S
C188 C187 1.366 . S
C188 C189 1.414 1_565 S
C188 C191 1.499 . S
C189 H163 0.950 . S
C189 C188 1.414 1_545 S
C189 C190 1.374 . S
C190 H164 0.950 . S
C190 C186 1.385 1_545 S
C190 C189 1.374 . S
C191 C188 1.499 . S
C191 C192 1.373 1_565 S
C191 C193 1.389 . S
C192 H165 0.950 . S
C192 C178 1.377 . S
C192 C191 1.373 1_545 S
C193 C177 1.377 . S
C193 C191 1.389 . S
C193 C194 1.524 . S
C194 C193 1.524 . S
C194 C195 1.397 . S
C194 C199 1.363 . S
C195 H166 0.950 . S
C195 C194 1.397 . S
C195 C196 1.334 . S
C196 H167 0.950 . S
C196 C195 1.334 . S
C196 C197 1.287 . S
C197 C196 1.287 . S
C197 C198 1.524 . S
C197 H200 0.999 . S
C198 H168 0.950 . S
C198 C197 1.524 . S
C198 C199 1.415 . S
C199 H169 0.950 . S
C199 C194 1.363 . S
C199 C198 1.415 . S
H200 C197 0.999 . S
H201 C182 0.913 . S
H202 C220 0.951 . S
H203 C222 0.951 . S
H204 C224 0.950 . S
H205 C225 0.950 . S
H206 C227 0.950 . S
H207 C230 0.950 . S
H208 C231 0.950 . S
H209 C233 0.950 . S
H210 C234 0.950 . S
H211 C235 0.951 . S
H212 C237 0.951 . S
H213 C239 0.950 . S
H214 C240 0.950 . S
H215 C242 0.950 . S
H216 C245 0.950 . S
H217 C246 0.950 . S
H218 C248 0.950 . S
H219 C249 0.950 . S
C220 H202 0.951 . S
C220 C221 1.366 . S
C220 C222 1.388 . S
C221 C220 1.366 . S
C221 C225 1.385 . S
C222 H203 0.951 . S
C222 C220 1.388 . S
C222 C223 1.366 . S
C223 C222 1.366 . S
C223 C224 1.414 . S
C223 C226 1.499 . S
C224 H204 0.950 . S
C224 C223 1.414 . S
C224 C225 1.374 . S
C225 H205 0.950 . S
C225 C221 1.385 . S
C225 C224 1.374 . S
C226 C223 1.499 . S
C226 C227 1.373 . S
C226 C228 1.389 . S
C227 H206 0.950 . S
C227 C226 1.373 . S
C227 C243 1.377 . S
C228 C226 1.389 . S
C228 C229 1.524 . S
C228 C242 1.377 . S
C229 C228 1.524 . S
C229 C230 1.397 . S
C229 C234 1.363 . S
C230 H207 0.950 . S
C230 C229 1.397 . S
C230 C231 1.334 . S
C231 H208 0.950 . S
C231 C230 1.334 . S
C231 C232 1.287 . S
C232 C231 1.287 . S
C232 C233 1.524 . S
C232 H251 0.913 . S
C233 H209 0.950 . S
C233 C232 1.524 . S
C233 C234 1.415 . S
C234 H210 0.950 . S
C234 C229 1.363 . S
C234 C233 1.415 . S
C235 H211 0.951 . S
C235 C236 1.366 . S
C235 C237 1.388 . S
C236 C235 1.366 . S
C236 C240 1.385 . S
C237 H212 0.951 . S
C237 C235 1.388 . S
C237 C238 1.366 . S
C238 C237 1.366 . S
C238 C239 1.414 . S
C238 C241 1.499 . S
C239 H213 0.950 . S
C239 C238 1.414 . S
C239 C240 1.374 . S
C240 H214 0.950 . S
C240 C236 1.385 . S
C240 C239 1.374 . S
C241 C238 1.499 . S
C241 C242 1.373 . S
C241 C243 1.389 . S
C242 H215 0.950 . S
C242 C228 1.377 . S
C242 C241 1.373 . S
C243 C227 1.377 . S
C243 C241 1.389 . S
C243 C244 1.524 . S
C244 C243 1.524 . S
C244 C245 1.397 . S
C244 C249 1.363 . S
C245 H216 0.950 . S
C245 C244 1.397 . S
C245 C246 1.334 . S
C246 H217 0.950 . S
C246 C245 1.334 . S
C246 C247 1.287 . S
C247 C246 1.287 . S
C247 C248 1.524 . S
C247 H250 0.999 . S
C248 H218 0.950 . S
C248 C247 1.524 . S
C248 C249 1.415 . S
C249 H219 0.950 . S
C249 C244 1.363 . S
C249 C248 1.415 . S
H250 C247 0.999 . S
H251 C232 0.913 . S
H252 C270 0.951 . S
H253 C272 0.951 . S
H254 C274 0.950 . S
H255 C275 0.950 . S
H256 C277 0.950 . S
H257 C280 0.950 . S
H258 C281 0.950 . S
H259 C283 0.950 . S
H260 C284 0.950 . S
H261 C285 0.951 . S
H262 C287 0.951 . S
H263 C289 0.950 . S
H264 C290 0.950 . S
H265 C292 0.950 . S
H266 C295 0.950 . S
H267 C296 0.950 . S
H268 C298 0.950 . S
H269 C299 0.950 . S
C270 H252 0.951 . S
C270 C271 1.366 . S
C270 C272 1.388 . S
C271 C270 1.366 . S
C271 C275 1.385 . S
C272 H253 0.951 . S
C272 C270 1.388 . S
C272 C273 1.366 . S
C273 C272 1.366 . S
C273 C274 1.414 . S
C273 C276 1.499 . S
C274 H254 0.950 . S
C274 C273 1.414 . S
C274 C275 1.374 . S
C275 H255 0.950 . S
C275 C271 1.385 . S
C275 C274 1.374 . S
C276 C273 1.499 . S
C276 C277 1.373 . S
C276 C278 1.389 . S
C277 H256 0.950 . S
C277 C276 1.373 . S
C277 C293 1.377 . S
C278 C276 1.389 . S
C278 C279 1.524 . S
C278 C292 1.377 . S
C279 C278 1.524 . S
C279 C280 1.397 . S
C279 C284 1.363 . S
C280 H257 0.950 . S
C280 C279 1.397 . S
C280 C281 1.334 . S
C281 H258 0.950 . S
C281 C280 1.334 . S
C281 C282 1.287 . S
C282 C281 1.287 . S
C282 C283 1.524 . S
C282 H301 0.913 . S
C283 H259 0.950 . S
C283 C282 1.524 . S
C283 C284 1.415 . S
C284 H260 0.950 . S
C284 C279 1.363 . S
C284 C283 1.415 . S
C285 H261 0.951 . S
C285 C286 1.366 . S
C285 C287 1.388 . S
C286 C285 1.366 . S
C286 C290 1.385 . S
C287 H262 0.951 . S
C287 C285 1.388 . S
C287 C288 1.366 . S
C288 C287 1.366 . S
C288 C289 1.414 . S
C288 C291 1.499 . S
C289 H263 0.950 . S
C289 C288 1.414 . S
C289 C290 1.374 . S
C290 H264 0.950 . S
C290 C286 1.385 . S
C290 C289 1.374 . S
C291 C288 1.499 . S
C291 C292 1.373 . S
C291 C293 1.389 . S
C292 H265 0.950 . S
C292 C278 1.377 . S
C292 C291 1.373 . S
C293 C277 1.377 . S
C293 C291 1.389 . S
C293 C294 1.524 . S
C294 C293 1.524 . S
C294 C295 1.397 . S
C294 C299 1.363 . S
C295 H266 0.950 . S
C295 C294 1.397 . S
C295 C296 1.334 . S
C296 H267 0.950 . S
C296 C295 1.334 . S
C296 C297 1.287 . S
C297 C296 1.287 . S
C297 C298 1.524 . S
C297 H300 0.999 . S
C298 H268 0.950 . S
C298 C297 1.524 . S
C298 C299 1.415 . S
C299 H269 0.950 . S
C299 C294 1.363 . S
C299 C298 1.415 . S
H300 C297 0.999 . S
H301 C282 0.913 . S
H302 C320 0.951 . S
H303 C322 0.951 . S
H304 C324 0.950 . S
H305 C325 0.950 . S
H306 C327 0.950 . S
H307 C330 0.950 . S
H308 C331 0.950 . S
H309 C333 0.950 . S
H310 C334 0.950 . S
H311 C335 0.951 . S
H312 C337 0.951 . S
H313 C339 0.950 . S
H314 C340 0.950 . S
H315 C342 0.950 . S
H316 C345 0.950 . S
H317 C346 0.950 . S
H318 C348 0.950 . S
H319 C349 0.950 . S
C320 H302 0.951 . S
C320 C321 1.366 . S
C320 C322 1.388 . S
C321 C320 1.366 . S
C321 C325 1.385 . S
C322 H303 0.951 . S
C322 C320 1.388 . S
C322 C323 1.366 . S
C323 C322 1.366 . S
C323 C324 1.414 . S
C323 C326 1.499 . S
C324 H304 0.950 . S
C324 C323 1.414 . S
C324 C325 1.374 . S
C325 H305 0.950 . S
C325 C321 1.385 . S
C325 C324 1.374 . S
C326 C323 1.499 . S
C326 C327 1.373 . S
C326 C328 1.389 . S
C327 H306 0.950 . S
C327 C326 1.373 . S
C327 C343 1.377 . S
C328 C326 1.389 . S
C328 C329 1.524 . S
C328 C342 1.377 . S
C329 C328 1.524 . S
C329 C330 1.397 . S
C329 C334 1.363 . S
C330 H307 0.950 . S
C330 C329 1.397 . S
C330 C331 1.334 . S
C331 H308 0.950 . S
C331 C330 1.334 . S
C331 C332 1.287 . S
C332 C331 1.287 . S
C332 C333 1.524 . S
C332 H351 0.913 . S
C333 H309 0.950 . S
C333 C332 1.524 . S
C333 C334 1.415 . S
C334 H310 0.950 . S
C334 C329 1.363 . S
C334 C333 1.415 . S
C335 H311 0.951 . S
C335 C336 1.366 . S
C335 C337 1.388 . S
C336 C335 1.366 . S
C336 C340 1.385 . S
C337 H312 0.951 . S
C337 C335 1.388 . S
C337 C338 1.366 . S
C338 C337 1.366 . S
C338 C339 1.414 . S
C338 C341 1.499 . S
C339 H313 0.950 . S
C339 C338 1.414 . S
C339 C340 1.374 . S
C340 H314 0.950 . S
C340 C336 1.385 . S
C340 C339 1.374 . S
C341 C338 1.499 . S
C341 C342 1.373 . S
C341 C343 1.389 . S
C342 H315 0.950 . S
C342 C328 1.377 . S
C342 C341 1.373 . S
C343 C327 1.377 . S
C343 C341 1.389 . S
C343 C344 1.524 . S
C344 C343 1.524 . S
C344 C345 1.397 . S
C344 C349 1.363 . S
C345 H316 0.950 . S
C345 C344 1.397 . S
C345 C346 1.334 . S
C346 H317 0.950 . S
C346 C345 1.334 . S
C346 C347 1.287 . S
C347 C346 1.287 . S
C347 C348 1.524 . S
C347 H350 0.999 . S
C348 H318 0.950 . S
C348 C347 1.524 . S
C348 C349 1.415 . S
C349 H319 0.950 . S
C349 C344 1.363 . S
C349 C348 1.415 . S
H350 C347 0.999 . S
H351 C332 0.913 . S
H352 C370 0.951 . S
H353 C372 0.954 . S
H354 C374 0.950 . S
H355 C375 0.950 . S
H356 C377 0.950 . S
H357 C380 0.950 . S
H358 C381 0.950 . S
H359 C383 0.950 . S
H360 C384 0.950 . S
H361 C385 0.951 . S
H362 C387 0.951 . S
H363 C389 0.945 1_565 S
H364 C390 0.949 . S
H365 C392 0.950 . S
H366 C395 0.950 . S
H367 C396 0.950 . S
H368 C398 0.950 . S
H369 C399 0.950 . S
C370 H352 0.951 . S
C370 C371 1.364 1_564 S
C370 C372 1.387 1_554 S
C371 C370 1.364 1_546 S
C371 C375 1.386 . S
C372 H353 0.954 . S
C372 C370 1.387 1_556 S
C372 C373 1.363 1_565 S
C373 C372 1.363 1_545 S
C373 C374 1.414 . S
C373 C376 1.499 . S
C374 H354 0.950 . S
C374 C373 1.414 . S
C374 C375 1.374 . S
C375 H355 0.950 . S
C375 C371 1.386 . S
C375 C374 1.374 . S
C376 C373 1.499 . S
C376 C377 1.373 1_545 S
C376 C378 1.389 . S
C377 H356 0.950 . S
C377 C376 1.373 1_565 S
C377 C393 1.377 . S
C378 C376 1.389 . S
C378 C379 1.524 . S
C378 C392 1.377 . S
C379 C378 1.524 . S
C379 C380 1.397 . S
C379 C384 1.363 . S
C380 H357 0.950 . S
C380 C379 1.397 . S
C380 C381 1.334 . S
C381 H358 0.950 . S
C381 C380 1.334 . S
C381 C382 1.287 1_556 S
C382 C381 1.287 1_554 S
C382 C383 1.524 . S
C382 H401 0.913 . S
C383 H359 0.950 . S
C383 C382 1.524 . S
C383 C384 1.415 1_554 S
C384 H360 0.950 . S
C384 C379 1.363 . S
C384 C383 1.415 1_556 S
C385 H361 0.951 . S
C385 C386 1.366 . S
C385 C387 1.388 . S
C386 C385 1.366 . S
C386 C390 1.385 . S
C387 H362 0.951 . S
C387 C385 1.388 . S
C387 C388 1.366 . S
C388 C387 1.366 . S
C388 C389 1.418 . S
C388 C391 1.499 . S
C389 H363 0.945 1_545 S
C389 C388 1.418 . S
C389 C390 1.373 . S
C390 H364 0.949 . S
C390 C386 1.385 . S
C390 C389 1.373 . S
C391 C388 1.499 . S
C391 C392 1.373 . S
C391 C393 1.389 1_545 S
C392 H365 0.950 . S
C392 C378 1.377 . S
C392 C391 1.373 . S
C393 C377 1.377 . S
C393 C391 1.389 1_565 S
C393 C394 1.524 . S
C394 C393 1.524 . S
C394 C395 1.397 . S
C394 C399 1.363 . S
C395 H366 0.950 . S
C395 C394 1.397 . S
C395 C396 1.334 . S
C396 H367 0.950 . S
C396 C395 1.334 . S
C396 C397 1.287 . S
C397 C396 1.287 . S
C397 C398 1.524 . S
C397 H400 0.999 . S
C398 H368 0.950 . S
C398 C397 1.524 . S
C398 C399 1.415 . S
C399 H369 0.950 . S
C399 C394 1.363 . S
C399 C398 1.415 . S
H400 C397 0.999 . S
H401 C382 0.913 . S
H402 C420 0.951 . S
H403 C422 0.951 . S
H404 C424 0.950 . S
H405 C425 0.950 1_554 S
H406 C427 0.950 . S
H407 C430 0.950 . S
H408 C431 0.950 . S
H409 C433 0.950 . S
H410 C434 0.950 . S
H411 C435 0.951 . S
H412 C437 0.951 . S
H413 C439 0.950 . S
H414 C440 0.950 . S
H415 C442 0.950 . S
H416 C445 0.950 . S
H417 C446 0.950 . S
H418 C448 0.950 . S
H419 C449 0.950 . S
C420 H402 0.951 . S
C420 C421 1.366 1_556 S
C420 C422 1.388 . S
C421 C420 1.366 1_554 S
C421 C425 1.385 1_554 S
C422 H403 0.951 . S
C422 C420 1.388 . S
C422 C423 1.366 . S
C423 C422 1.366 . S
C423 C424 1.414 . S
C423 C426 1.499 . S
C424 H404 0.950 . S
C424 C423 1.414 . S
C424 C425 1.374 . S
C425 H405 0.950 1_556 S
C425 C421 1.385 1_556 S
C425 C424 1.374 . S
C426 C423 1.499 . S
C426 C427 1.373 . S
C426 C428 1.389 . S
C427 H406 0.950 . S
C427 C426 1.373 . S
C427 C443 1.377 . S
C428 C426 1.389 . S
C428 C429 1.524 . S
C428 C442 1.377 . S
C429 C428 1.524 . S
C429 C430 1.397 1_556 S
C429 C434 1.363 . S
C430 H407 0.950 . S
C430 C429 1.397 1_554 S
C430 C431 1.334 . S
C431 H408 0.950 . S
C431 C430 1.334 . S
C431 C432 1.287 . S
C432 C431 1.287 . S
C432 C433 1.524 1_554 S
C432 H451 0.913 . S
C433 H409 0.950 . S
C433 C432 1.524 1_556 S
C433 C434 1.415 . S
C434 H410 0.950 . S
C434 C429 1.363 . S
C434 C433 1.415 . S
C435 H411 0.951 . S
C435 C436 1.366 . S
C435 C437 1.388 . S
C436 C435 1.366 . S
C436 C440 1.385 . S
C437 H412 0.951 . S
C437 C435 1.388 . S
C437 C438 1.366 . S
C438 C437 1.366 . S
C438 C439 1.414 . S
C438 C441 1.499 . S
C439 H413 0.950 . S
C439 C438 1.414 . S
C439 C440 1.374 . S
C440 H414 0.950 . S
C440 C436 1.385 . S
C440 C439 1.374 . S
C441 C438 1.499 . S
C441 C442 1.373 . S
C441 C443 1.389 . S
C442 H415 0.950 . S
C442 C428 1.377 . S
C442 C441 1.373 . S
C443 C427 1.377 . S
C443 C441 1.389 . S
C443 C444 1.524 . S
C444 C443 1.524 . S
C444 C445 1.397 . S
C444 C449 1.363 . S
C445 H416 0.950 . S
C445 C444 1.397 . S
C445 C446 1.334 . S
C446 H417 0.950 . S
C446 C445 1.334 . S
C446 C447 1.287 . S
C447 C446 1.287 . S
C447 C448 1.524 . S
C447 H450 0.999 . S
C448 H418 0.950 . S
C448 C447 1.524 . S
C448 C449 1.415 . S
C449 H419 0.950 . S
C449 C444 1.363 . S
C449 C448 1.415 . S
H450 C447 0.999 . S
H451 C432 0.913 . S
H452 C470 0.951 1_554 S
H453 C472 0.951 . S
H454 C474 0.950 . S
H455 C475 0.950 . S
H456 C477 0.950 . S
H457 C480 0.950 . S
H458 C481 0.950 . S
H459 C483 0.950 . S
H460 C484 0.950 . S
H461 C485 0.951 . S
H462 C487 0.951 . S
H463 C489 0.950 . S
H464 C490 0.950 . S
H465 C492 0.950 . S
H466 C495 0.950 . S
H467 C496 0.950 . S
H468 C498 0.950 . S
H469 C499 0.950 . S
C470 H452 0.951 1_556 S
C470 C471 1.366 . S
C470 C472 1.388 . S
C471 C470 1.366 . S
C471 C475 1.385 . S
C472 H453 0.951 . S
C472 C470 1.388 . S
C472 C473 1.366 . S
C473 C472 1.366 . S
C473 C474 1.414 . S
C473 C476 1.499 . S
C474 H454 0.950 . S
C474 C473 1.414 . S
C474 C475 1.374 . S
C475 H455 0.950 . S
C475 C471 1.385 . S
C475 C474 1.374 . S
C476 C473 1.499 . S
C476 C477 1.373 . S
C476 C478 1.389 . S
C477 H456 0.950 . S
C477 C476 1.373 . S
C477 C493 1.377 . S
C478 C476 1.389 . S
C478 C479 1.524 . S
C478 C492 1.377 . S
C479 C478 1.524 . S
C479 C480 1.397 . S
C479 C484 1.363 . S
C480 H457 0.950 . S
C480 C479 1.397 . S
C480 C481 1.334 1_556 S
C481 H458 0.950 . S
C481 C480 1.334 1_554 S
C481 C482 1.287 . S
C482 C481 1.287 . S
C482 C483 1.524 . S
C482 H501 0.913 . S
C483 H459 0.950 . S
C483 C482 1.524 . S
C483 C484 1.415 1_554 S
C484 H460 0.950 . S
C484 C479 1.363 . S
C484 C483 1.415 1_556 S
C485 H461 0.951 . S
C485 C486 1.366 . S
C485 C487 1.388 . S
C486 C485 1.366 . S
C486 C490 1.385 . S
C487 H462 0.951 . S
C487 C485 1.388 . S
C487 C488 1.366 . S
C488 C487 1.366 . S
C488 C489 1.414 . S
C488 C491 1.499 . S
C489 H463 0.950 . S
C489 C488 1.414 . S
C489 C490 1.374 . S
C490 H464 0.950 . S
C490 C486 1.385 . S
C490 C489 1.374 . S
C491 C488 1.499 . S
C491 C492 1.373 . S
C491 C493 1.389 . S
C492 H465 0.950 . S
C492 C478 1.377 . S
C492 C491 1.373 . S
C493 C477 1.377 . S
C493 C491 1.389 . S
C493 C494 1.524 . S
C494 C493 1.524 . S
C494 C495 1.397 . S
C494 C499 1.363 . S
C495 H466 0.950 . S
C495 C494 1.397 . S
C495 C496 1.334 . S
C496 H467 0.950 . S
C496 C495 1.334 . S
C496 C497 1.287 . S
C497 C496 1.287 . S
C497 C498 1.524 . S
C497 H500 0.999 . S
C498 H468 0.950 . S
C498 C497 1.524 . S
C498 C499 1.415 . S
C499 H469 0.950 . S
C499 C494 1.363 . S
C499 C498 1.415 . S
H500 C497 0.999 . S
H501 C482 0.913 . S
H502 C520 0.951 . S
H503 C522 0.951 . S
H504 C524 0.950 . S
H505 C525 0.950 1_554 S
H506 C527 0.950 . S
H507 C530 0.950 . S
H508 C531 0.950 . S
H509 C533 0.950 . S
H510 C534 0.950 . S
H511 C535 0.951 . S
H512 C537 0.951 . S
H513 C539 0.950 . S
H514 C540 0.950 . S
H515 C542 0.950 . S
H516 C545 0.950 . S
H517 C546 0.950 . S
H518 C548 0.950 . S
H519 C549 0.950 . S
C520 H502 0.951 . S
C520 C521 1.366 . S
C520 C522 1.388 . S
C521 C520 1.366 . S
C521 C525 1.385 . S
C522 H503 0.951 . S
C522 C520 1.388 . S
C522 C523 1.366 . S
C523 C522 1.366 . S
C523 C524 1.414 . S
C523 C526 1.499 . S
C524 H504 0.950 . S
C524 C523 1.414 . S
C524 C525 1.374 . S
C525 H505 0.950 1_556 S
C525 C521 1.385 . S
C525 C524 1.374 . S
C526 C523 1.499 . S
C526 C527 1.373 . S
C526 C528 1.389 . S
C527 H506 0.950 . S
C527 C526 1.373 . S
C527 C543 1.377 . S
C528 C526 1.389 . S
C528 C529 1.524 . S
C528 C542 1.377 . S
C529 C528 1.524 . S
C529 C530 1.397 . S
C529 C534 1.363 . S
C530 H507 0.950 . S
C530 C529 1.397 . S
C530 C531 1.334 . S
C531 H508 0.950 . S
C531 C530 1.334 . S
C531 C532 1.287 . S
C532 C531 1.287 . S
C532 C533 1.524 . S
C532 H551 0.913 . S
C533 H509 0.950 . S
C533 C532 1.524 . S
C533 C534 1.415 . S
C534 H510 0.950 . S
C534 C529 1.363 . S
C534 C533 1.415 . S
C535 H511 0.951 . S
C535 C536 1.366 . S
C535 C537 1.388 . S
C536 C535 1.366 . S
C536 C540 1.385 . S
C537 H512 0.951 . S
C537 C535 1.388 . S
C537 C538 1.366 . S
C538 C537 1.366 . S
C538 C539 1.414 . S
C538 C541 1.499 . S
C539 H513 0.950 . S
C539 C538 1.414 . S
C539 C540 1.374 . S
C540 H514 0.950 . S
C540 C536 1.385 . S
C540 C539 1.374 . S
C541 C538 1.499 . S
C541 C542 1.373 . S
C541 C543 1.389 . S
C542 H515 0.950 . S
C542 C528 1.377 . S
C542 C541 1.373 . S
C543 C527 1.377 . S
C543 C541 1.389 . S
C543 C544 1.524 1_655 S
C544 C543 1.524 1_455 S
C544 C545 1.397 . S
C544 C549 1.363 . S
C545 H516 0.950 . S
C545 C544 1.397 . S
C545 C546 1.334 . S
C546 H517 0.950 . S
C546 C545 1.334 . S
C546 C547 1.287 . S
C547 C546 1.287 . S
C547 C548 1.524 . S
C547 H550 0.999 . S
C548 H518 0.950 . S
C548 C547 1.524 . S
C548 C549 1.415 . S
C549 H519 0.950 . S
C549 C544 1.363 . S
C549 C548 1.415 . S
H550 C547 0.999 . S
H551 C532 0.913 . S
H552 C570 0.951 . S
H553 C572 0.951 . S
H554 C574 0.950 . S
H555 C575 0.950 . S
H556 C577 0.950 . S
H557 C580 0.950 . S
H558 C581 0.950 . S
H559 C583 0.950 . S
H560 C584 0.950 . S
H561 C585 0.951 1_655 S
H562 C587 0.951 . S
H563 C589 0.950 . S
H564 C590 0.950 . S
H565 C592 0.950 . S
H566 C595 0.950 . S
H567 C596 0.950 . S
H568 C598 0.950 . S
H569 C599 0.950 . S
C570 H552 0.951 . S
C570 C571 1.366 . S
C570 C572 1.388 . S
C571 C570 1.366 . S
C571 C575 1.385 . S
C572 H553 0.951 . S
C572 C570 1.388 . S
C572 C573 1.366 . S
C573 C572 1.366 . S
C573 C574 1.414 . S
C573 C576 1.499 . S
C574 H554 0.950 . S
C574 C573 1.414 . S
C574 C575 1.374 . S
C575 H555 0.950 . S
C575 C571 1.385 . S
C575 C574 1.374 . S
C576 C573 1.499 . S
C576 C577 1.373 . S
C576 C578 1.389 . S
C577 H556 0.950 . S
C577 C576 1.373 . S
C577 C593 1.377 . S
C578 C576 1.389 . S
C578 C579 1.524 . S
C578 C592 1.377 . S
C579 C578 1.524 . S
C579 C580 1.397 . S
C579 C584 1.363 . S
C580 H557 0.950 . S
C580 C579 1.397 . S
C580 C581 1.334 . S
C581 H558 0.950 . S
C581 C580 1.334 . S
C581 C582 1.287 . S
C582 C581 1.287 . S
C582 C583 1.524 . S
C582 H601 0.916 . S
C583 H559 0.950 . S
C583 C582 1.524 . S
C583 C584 1.415 . S
C584 H560 0.950 . S
C584 C579 1.363 . S
C584 C583 1.415 . S
C585 H561 0.951 1_455 S
C585 C586 1.366 . S
C585 C587 1.388 . S
C586 C585 1.366 . S
C586 C590 1.385 . S
C587 H562 0.951 . S
C587 C585 1.388 . S
C587 C588 1.366 . S
C588 C587 1.366 . S
C588 C589 1.414 . S
C588 C591 1.499 . S
C589 H563 0.950 . S
C589 C588 1.414 . S
C589 C590 1.374 . S
C590 H564 0.950 . S
C590 C586 1.385 . S
C590 C589 1.374 . S
C591 C588 1.499 . S
C591 C592 1.373 . S
C591 C593 1.389 . S
C592 H565 0.950 . S
C592 C578 1.377 . S
C592 C591 1.373 . S
C593 C577 1.377 . S
C593 C591 1.389 . S
C593 C594 1.524 . S
C594 C593 1.524 . S
C594 C595 1.397 . S
C594 C599 1.363 . S
C595 H566 0.950 . S
C595 C594 1.397 . S
C595 C596 1.334 . S
C596 H567 0.950 . S
C596 C595 1.334 . S
C596 C597 1.287 . S
C597 C596 1.287 . S
C597 C598 1.524 . S
C597 H600 0.999 . S
C598 H568 0.950 . S
C598 C597 1.524 . S
C598 C599 1.415 . S
C599 H569 0.950 . S
C599 C594 1.363 . S
C599 C598 1.415 . S
H600 C597 0.999 . S
H601 C582 0.916 . S
H602 C620 0.951 . S
H603 C622 0.951 . S
H604 C624 0.950 . S
H605 C625 0.950 . S
H606 C627 0.950 . S
H607 C630 0.950 . S
H608 C631 0.950 . S
H609 C633 0.950 . S
H610 C634 0.950 . S
H611 C635 0.951 . S
H612 C637 0.951 . S
H613 C639 0.950 1_545 S
H614 C640 0.948 1_545 S
H615 C642 0.950 . S
H616 C645 0.950 . S
H617 C646 0.950 . S
H618 C648 0.950 . S
H619 C649 0.950 . S
C620 H602 0.951 . S
C620 C621 1.374 . S
C620 C622 1.388 . S
C621 C620 1.374 . S
C621 C625 1.368 1_545 S
C622 H603 0.951 . S
C622 C620 1.388 . S
C622 C623 1.366 1_545 S
C623 C622 1.366 1_565 S
C623 C624 1.414 . S
C623 C626 1.499 . S
C624 H604 0.950 . S
C624 C623 1.414 . S
C624 C625 1.374 . S
C625 H605 0.950 . S
C625 C621 1.368 1_565 S
C625 C624 1.374 . S
C626 C623 1.499 . S
C626 C627 1.373 1_565 S
C626 C628 1.389 . S
C627 H606 0.950 . S
C627 C626 1.373 1_545 S
C627 C643 1.377 . S
C628 C626 1.389 . S
C628 C629 1.524 . S
C628 C642 1.377 . S
C629 C628 1.524 . S
C629 C630 1.397 . S
C629 C634 1.363 . S
C630 H607 0.950 . S
C630 C629 1.397 . S
C630 C631 1.334 . S
C631 H608 0.950 . S
C631 C630 1.334 . S
C631 C632 1.287 . S
C632 C631 1.287 . S
C632 C633 1.524 . S
C632 H651 0.913 . S
C633 H609 0.950 . S
C633 C632 1.524 . S
C633 C634 1.415 . S
C634 H610 0.950 . S
C634 C629 1.363 . S
C634 C633 1.415 . S
C635 H611 0.951 . S
C635 C636 1.366 . S
C635 C637 1.388 . S
C636 C635 1.366 . S
C636 C640 1.385 . S
C637 H612 0.951 . S
C637 C635 1.388 . S
C637 C638 1.366 . S
C638 C637 1.366 . S
C638 C639 1.414 . S
C638 C641 1.499 . S
C639 H613 0.950 1_565 S
C639 C638 1.414 . S
C639 C640 1.374 . S
C640 H614 0.948 1_565 S
C640 C636 1.385 . S
C640 C639 1.374 . S
C641 C638 1.499 . S
C641 C642 1.373 . S
C641 C643 1.389 1_565 S
C642 H615 0.950 . S
C642 C628 1.377 . S
C642 C641 1.373 . S
C643 C627 1.377 . S
C643 C641 1.389 1_545 S
C643 C644 1.524 . S
C644 C643 1.524 . S
C644 C645 1.397 . S
C644 C649 1.363 . S
C645 H616 0.950 . S
C645 C644 1.397 . S
C645 C646 1.334 . S
C646 H617 0.950 . S
C646 C645 1.334 . S
C646 C647 1.287 . S
C647 C646 1.287 . S
C647 C648 1.524 . S
C647 H650 0.999 . S
C648 H618 0.950 . S
C648 C647 1.524 . S
C648 C649 1.415 . S
C649 H619 0.950 . S
C649 C644 1.363 . S
C649 C648 1.415 . S
H650 C647 0.999 . S
H651 C632 0.913 . S
H652 C670 0.951 . S
H653 C672 0.951 . S
H654 C674 0.950 . S
H655 C675 0.950 . S
H656 C677 0.950 . S
H657 C680 0.950 . S
H658 C681 0.950 . S
H659 C683 0.950 . S
H660 C684 0.950 . S
H661 C685 0.951 . S
H662 C687 0.951 . S
H663 C689 0.950 . S
H664 C690 0.950 . S
H665 C692 0.950 . S
H666 C695 0.950 . S
H667 C696 0.950 . S
H668 C698 0.950 . S
H669 C699 0.950 . S
C670 H652 0.951 . S
C670 C671 1.366 . S
C670 C672 1.388 . S
C671 C670 1.366 . S
C671 C675 1.385 . S
C672 H653 0.951 . S
C672 C670 1.388 . S
C672 C673 1.366 . S
C673 C672 1.366 . S
C673 C674 1.414 . S
C673 C676 1.499 . S
C674 H654 0.950 . S
C674 C673 1.414 . S
C674 C675 1.374 . S
C675 H655 0.950 . S
C675 C671 1.385 . S
C675 C674 1.374 . S
C676 C673 1.499 . S
C676 C677 1.373 . S
C676 C678 1.389 . S
C677 H656 0.950 . S
C677 C676 1.373 . S
C677 C693 1.377 . S
C678 C676 1.389 . S
C678 C679 1.524 . S
C678 C692 1.377 . S
C679 C678 1.524 . S
C679 C680 1.397 . S
C679 C684 1.363 . S
C680 H657 0.950 . S
C680 C679 1.397 . S
C680 C681 1.334 . S
C681 H658 0.950 . S
C681 C680 1.334 . S
C681 C682 1.287 . S
C682 C681 1.287 . S
C682 C683 1.524 . S
C682 H701 0.913 . S
C683 H659 0.950 . S
C683 C682 1.524 . S
C683 C684 1.415 . S
C684 H660 0.950 . S
C684 C679 1.363 . S
C684 C683 1.415 . S
C685 H661 0.951 . S
C685 C686 1.366 . S
C685 C687 1.388 . S
C686 C685 1.366 . S
C686 C690 1.385 . S
C687 H662 0.951 . S
C687 C685 1.388 . S
C687 C688 1.366 . S
C688 C687 1.366 . S
C688 C689 1.414 . S
C688 C691 1.499 . S
C689 H663 0.950 . S
C689 C688 1.414 . S
C689 C690 1.374 . S
C690 H664 0.950 . S
C690 C686 1.385 . S
C690 C689 1.374 . S
C691 C688 1.499 . S
C691 C692 1.373 . S
C691 C693 1.389 . S
C692 H665 0.950 . S
C692 C678 1.377 . S
C692 C691 1.373 . S
C693 C677 1.377 . S
C693 C691 1.389 . S
C693 C694 1.524 . S
C694 C693 1.524 . S
C694 C695 1.397 . S
C694 C699 1.363 . S
C695 H666 0.950 . S
C695 C694 1.397 . S
C695 C696 1.334 . S
C696 H667 0.950 . S
C696 C695 1.334 . S
C696 C697 1.287 . S
C697 C696 1.287 . S
C697 C698 1.524 . S
C697 H700 0.999 . S
C698 H668 0.950 . S
C698 C697 1.524 . S
C698 C699 1.415 . S
C699 H669 0.950 . S
C699 C694 1.363 . S
C699 C698 1.415 . S
H700 C697 0.999 . S
H701 C682 0.913 . S
H702 C720 0.951 . S
H703 C722 0.951 . S
H704 C724 0.950 . S
H705 C725 0.950 . S
H706 C727 0.950 . S
H707 C730 0.950 . S
H708 C731 0.950 . S
H709 C733 0.950 . S
H710 C734 0.950 . S
H711 C735 0.951 . S
H712 C737 0.951 . S
H713 C739 0.950 . S
H714 C740 0.950 . S
H715 C742 0.950 . S
H716 C745 0.950 . S
H717 C746 0.950 . S
H718 C748 0.950 . S
H719 C749 0.950 . S
C720 H702 0.951 . S
C720 C721 1.366 . S
C720 C722 1.388 . S
C721 C720 1.366 . S
C721 C725 1.385 . S
C722 H703 0.951 . S
C722 C720 1.388 . S
C722 C723 1.366 . S
C723 C722 1.366 . S
C723 C724 1.414 . S
C723 C726 1.499 . S
C724 H704 0.950 . S
C724 C723 1.414 . S
C724 C725 1.374 . S
C725 H705 0.950 . S
C725 C721 1.385 . S
C725 C724 1.374 . S
C726 C723 1.499 . S
C726 C727 1.373 . S
C726 C728 1.389 . S
C727 H706 0.950 . S
C727 C726 1.373 . S
C727 C743 1.377 . S
C728 C726 1.389 . S
C728 C729 1.524 . S
C728 C742 1.377 . S
C729 C728 1.524 . S
C729 C730 1.397 . S
C729 C734 1.363 . S
C730 H707 0.950 . S
C730 C729 1.397 . S
C730 C731 1.334 . S
C731 H708 0.950 . S
C731 C730 1.334 . S
C731 C732 1.287 . S
C732 C731 1.287 . S
C732 C733 1.524 . S
C732 H751 0.913 . S
C733 H709 0.950 . S
C733 C732 1.524 . S
C733 C734 1.415 . S
C734 H710 0.950 . S
C734 C729 1.363 . S
C734 C733 1.415 . S
C735 H711 0.951 . S
C735 C736 1.366 . S
C735 C737 1.388 . S
C736 C735 1.366 . S
C736 C740 1.385 . S
C737 H712 0.951 . S
C737 C735 1.388 . S
C737 C738 1.366 . S
C738 C737 1.366 . S
C738 C739 1.414 . S
C738 C741 1.499 . S
C739 H713 0.950 . S
C739 C738 1.414 . S
C739 C740 1.374 . S
C740 H714 0.950 . S
C740 C736 1.385 . S
C740 C739 1.374 . S
C741 C738 1.499 . S
C741 C742 1.373 . S
C741 C743 1.389 . S
C742 H715 0.950 . S
C742 C728 1.377 . S
C742 C741 1.373 . S
C743 C727 1.377 . S
C743 C741 1.389 . S
C743 C744 1.524 . S
C744 C743 1.524 . S
C744 C745 1.397 . S
C744 C749 1.363 . S
C745 H716 0.950 . S
C745 C744 1.397 . S
C745 C746 1.334 . S
C746 H717 0.950 . S
C746 C745 1.334 . S
C746 C747 1.287 . S
C747 C746 1.287 . S
C747 C748 1.524 . S
C747 H750 0.999 . S
C748 H718 0.950 . S
C748 C747 1.524 . S
C748 C749 1.415 . S
C749 H719 0.950 . S
C749 C744 1.363 . S
C749 C748 1.415 . S
H750 C747 0.999 . S
H751 C732 0.913 . S
H752 C770 0.951 . S
H753 C772 0.951 . S
H754 C774 0.950 . S
H755 C775 0.950 1_554 S
H756 C777 0.950 . S
H757 C780 0.950 . S
H758 C781 0.950 . S
H759 C783 0.950 . S
H760 C784 0.950 . S
H761 C785 0.951 . S
H762 C787 0.947 1_455 S
H763 C789 0.950 . S
H764 C790 0.950 . S
H765 C792 0.950 . S
H766 C795 0.950 . S
H767 C796 0.950 . S
H768 C798 0.950 1_554 S
H769 C799 0.950 . S
C770 H752 0.951 . S
C770 C771 1.366 . S
C770 C772 1.388 . S
C771 C770 1.366 . S
C771 C775 1.385 . S
C772 H753 0.951 . S
C772 C770 1.388 . S
C772 C773 1.366 . S
C773 C772 1.366 . S
C773 C774 1.414 . S
C773 C776 1.499 . S
C774 H754 0.950 . S
C774 C773 1.414 . S
C774 C775 1.374 . S
C775 H755 0.950 1_556 S
C775 C771 1.385 . S
C775 C774 1.374 . S
C776 C773 1.499 . S
C776 C777 1.373 . S
C776 C778 1.389 . S
C777 H756 0.950 . S
C777 C776 1.373 . S
C777 C793 1.377 . S
C778 C776 1.389 . S
C778 C779 1.524 . S
C778 C792 1.377 . S
C779 C778 1.524 . S
C779 C780 1.397 . S
C779 C784 1.363 . S
C780 H757 0.950 . S
C780 C779 1.397 . S
C780 C781 1.334 . S
C781 H758 0.950 . S
C781 C780 1.334 . S
C781 C782 1.287 . S
C782 C781 1.287 . S
C782 C783 1.524 . S
C782 H801 0.913 . S
C783 H759 0.950 . S
C783 C782 1.524 . S
C783 C784 1.415 . S
C784 H760 0.950 . S
C784 C779 1.363 . S
C784 C783 1.415 . S
C785 H761 0.951 . S
C785 C786 1.366 . S
C785 C787 1.384 1_455 S
C786 C785 1.366 . S
C786 C790 1.385 1_455 S
C787 H762 0.947 1_655 S
C787 C785 1.384 1_655 S
C787 C788 1.373 . S
C788 C787 1.373 . S
C788 C789 1.414 . S
C788 C791 1.499 . S
C789 H763 0.950 . S
C789 C788 1.414 . S
C789 C790 1.374 . S
C790 H764 0.950 . S
C790 C786 1.385 1_655 S
C790 C789 1.374 . S
C791 C788 1.499 . S
C791 C792 1.373 . S
C791 C793 1.389 . S
C792 H765 0.950 . S
C792 C778 1.377 . S
C792 C791 1.373 . S
C793 C777 1.377 . S
C793 C791 1.389 . S
C793 C794 1.524 . S
C794 C793 1.524 . S
C794 C795 1.397 . S
C794 C799 1.363 . S
C795 H766 0.950 . S
C795 C794 1.397 . S
C795 C796 1.334 . S
C796 H767 0.950 . S
C796 C795 1.334 . S
C796 C797 1.287 . S
C797 C796 1.287 . S
C797 C798 1.524 . S
C797 H800 0.999 . S
C798 H768 0.950 1_556 S
C798 C797 1.524 . S
C798 C799 1.415 . S
C799 H769 0.950 . S
C799 C794 1.363 . S
C799 C798 1.415 . S
H800 C797 0.999 . S
H801 C782 0.913 . S
H802 C820 0.951 1_554 S
H803 C822 0.951 . S
H804 C824 0.950 . S
H805 C825 0.950 . S
H806 C827 0.950 . S
H807 C830 0.950 1_556 S
H808 C831 0.950 . S
H809 C833 0.950 . S
H810 C834 0.950 . S
H811 C835 0.951 . S
H812 C837 0.951 . S
H813 C839 0.950 . S
H814 C840 0.950 . S
H815 C842 0.950 . S
H816 C845 0.950 . S
H817 C846 0.950 . S
H818 C848 0.950 . S
H819 C849 0.950 . S
C820 H802 0.951 1_556 S
C820 C821 1.338 1_545 S
C820 C822 1.388 . S
C821 C820 1.338 1_565 S
C821 C825 1.408 . S
C822 H803 0.951 . S
C822 C820 1.388 . S
C822 C823 1.366 . S
C823 C822 1.366 . S
C823 C824 1.414 1_545 S
C823 C826 1.499 . S
C824 H804 0.950 . S
C824 C823 1.414 1_565 S
C824 C825 1.374 . S
C825 H805 0.950 . S
C825 C821 1.408 . S
C825 C824 1.374 . S
C826 C823 1.499 . S
C826 C827 1.373 . S
C826 C828 1.389 . S
C827 H806 0.950 . S
C827 C826 1.373 . S
C827 C843 1.377 . S
C828 C826 1.389 . S
C828 C829 1.532 . S
C828 C842 1.377 . S
C829 C828 1.532 . S
C829 C830 1.352 1_546 S
C829 C834 1.398 1_556 S
C830 H807 0.950 1_554 S
C830 C829 1.352 1_564 S
C830 C831 1.334 . S
C831 H808 0.950 . S
C831 C830 1.334 . S
C831 C832 1.287 . S
C832 C831 1.287 . S
C832 C833 1.524 1_565 S
C832 H851 0.913 . S
C833 H809 0.950 . S
C833 C832 1.524 1_545 S
C833 C834 1.415 . S
C834 H810 0.950 . S
C834 C829 1.398 1_554 S
C834 C833 1.415 . S
C835 H811 0.951 . S
C835 C836 1.366 1_565 S
C835 C837 1.388 . S
C836 C835 1.366 1_545 S
C836 C840 1.385 . S
C837 H812 0.951 . S
C837 C835 1.388 . S
C837 C838 1.366 1_565 S
C838 C837 1.366 1_545 S
C838 C839 1.414 . S
C838 C841 1.499 . S
C839 H813 0.950 . S
C839 C838 1.414 . S
C839 C840 1.374 . S
C840 H814 0.950 . S
C840 C836 1.385 . S
C840 C839 1.374 . S
C841 C838 1.499 . S
C841 C842 1.373 . S
C841 C843 1.389 . S
C842 H815 0.950 . S
C842 C828 1.377 . S
C842 C841 1.373 . S
C843 C827 1.377 . S
C843 C841 1.389 . S
C843 C844 1.524 . S
C844 C843 1.524 . S
C844 C845 1.397 . S
C844 C849 1.363 1_545 S
C845 H816 0.950 . S
C845 C844 1.397 . S
C845 C846 1.334 . S
C846 H817 0.950 . S
C846 C845 1.334 . S
C846 C847 1.287 . S
C847 C846 1.287 . S
C847 C848 1.524 1_545 S
C847 H850 0.999 . S
C848 H818 0.950 . S
C848 C847 1.524 1_565 S
C848 C849 1.415 . S
C849 H819 0.950 . S
C849 C844 1.363 1_565 S
C849 C848 1.415 . S
H850 C847 0.999 . S
H851 C832 0.913 . S
H852 C870 0.951 . S
H853 C872 0.951 . S
H854 C874 0.950 . S
H855 C875 0.950 . S
H856 C877 0.950 . S
H857 C880 0.950 . S
H858 C881 0.950 . S
H859 C883 0.950 . S
H860 C884 0.950 . S
H861 C885 0.951 . S
H862 C887 0.951 . S
H863 C889 0.950 . S
H864 C890 0.950 . S
H865 C892 0.950 . S
H866 C895 0.950 . S
H867 C896 0.950 . S
H868 C898 0.950 1_554 S
H869 C899 0.950 . S
C870 H852 0.951 . S
C870 C871 1.366 . S
C870 C872 1.388 . S
C871 C870 1.366 . S
C871 C875 1.385 1_556 S
C872 H853 0.951 . S
C872 C870 1.388 . S
C872 C873 1.366 . S
C873 C872 1.366 . S
C873 C874 1.414 . S
C873 C876 1.499 . S
C874 H854 0.950 . S
C874 C873 1.414 . S
C874 C875 1.374 1_556 S
C875 H855 0.950 . S
C875 C871 1.385 1_554 S
C875 C874 1.374 1_554 S
C876 C873 1.499 . S
C876 C877 1.373 . S
C876 C878 1.389 . S
C877 H856 0.950 . S
C877 C876 1.373 . S
C877 C893 1.377 . S
C878 C876 1.389 . S
C878 C879 1.524 . S
C878 C892 1.377 . S
C879 C878 1.524 . S
C879 C880 1.397 . S
C879 C884 1.363 . S
C880 H857 0.950 . S
C880 C879 1.397 . S
C880 C881 1.334 . S
C881 H858 0.950 . S
C881 C880 1.334 . S
C881 C882 1.287 . S
C882 C881 1.287 . S
C882 C883 1.524 . S
C882 H901 0.913 . S
C883 H859 0.950 . S
C883 C882 1.524 . S
C883 C884 1.415 . S
C884 H860 0.950 . S
C884 C879 1.363 . S
C884 C883 1.415 . S
C885 H861 0.951 . S
C885 C886 1.366 . S
C885 C887 1.388 . S
C886 C885 1.366 . S
C886 C890 1.385 . S
C887 H862 0.951 . S
C887 C885 1.388 . S
C887 C888 1.366 . S
C888 C887 1.366 . S
C888 C889 1.414 . S
C888 C891 1.499 . S
C889 H863 0.950 . S
C889 C888 1.414 . S
C889 C890 1.374 . S
C890 H864 0.950 . S
C890 C886 1.385 . S
C890 C889 1.374 . S
C891 C888 1.499 . S
C891 C892 1.373 . S
C891 C893 1.389 . S
C892 H865 0.950 . S
C892 C878 1.377 . S
C892 C891 1.373 . S
C893 C877 1.377 . S
C893 C891 1.389 . S
C893 C894 1.524 . S
C894 C893 1.524 . S
C894 C895 1.397 . S
C894 C899 1.363 . S
C895 H866 0.950 . S
C895 C894 1.397 . S
C895 C896 1.334 . S
C896 H867 0.950 . S
C896 C895 1.334 . S
C896 C897 1.287 . S
C897 C896 1.287 . S
C897 C898 1.524 . S
C897 H900 0.999 . S
C898 H868 0.950 1_556 S
C898 C897 1.524 . S
C898 C899 1.415 . S
C899 H869 0.950 . S
C899 C894 1.363 . S
C899 C898 1.415 . S
H900 C897 0.999 . S
H901 C882 0.913 . S
H902 C920 0.951 . S
H903 C922 0.951 . S
H904 C924 0.950 . S
H905 C925 0.950 1_554 S
H906 C927 0.950 . S
H907 C930 0.950 . S
H908 C931 0.950 . S
H909 C933 0.950 . S
H910 C934 0.950 . S
H911 C935 0.951 . S
H912 C937 0.951 . S
H913 C939 0.950 . S
H914 C940 0.950 . S
H915 C942 0.950 . S
H916 C945 0.950 . S
H917 C946 0.950 . S
H918 C948 0.950 . S
H919 C949 0.950 . S
C920 H902 0.951 . S
C920 C921 1.366 . S
C920 C922 1.388 . S
C921 C920 1.366 . S
C921 C925 1.385 . S
C922 H903 0.951 . S
C922 C920 1.388 . S
C922 C923 1.366 . S
C923 C922 1.366 . S
C923 C924 1.414 . S
C923 C926 1.499 . S
C924 H904 0.950 . S
C924 C923 1.414 . S
C924 C925 1.374 . S
C925 H905 0.950 1_556 S
C925 C921 1.385 . S
C925 C924 1.374 . S
C926 C923 1.499 . S
C926 C927 1.373 . S
C926 C928 1.389 . S
C927 H906 0.950 . S
C927 C926 1.373 . S
C927 C943 1.377 . S
C928 C926 1.389 . S
C928 C929 1.524 . S
C928 C942 1.377 . S
C929 C928 1.524 . S
C929 C930 1.397 . S
C929 C934 1.363 . S
C930 H907 0.950 . S
C930 C929 1.397 . S
C930 C931 1.334 . S
C931 H908 0.950 . S
C931 C930 1.334 . S
C931 C932 1.287 . S
C932 C931 1.287 . S
C932 C933 1.524 . S
C932 H951 0.913 . S
C933 H909 0.950 . S
C933 C932 1.524 . S
C933 C934 1.415 . S
C934 H910 0.950 . S
C934 C929 1.363 . S
C934 C933 1.415 . S
C935 H911 0.951 . S
C935 C936 1.366 . S
C935 C937 1.388 . S
C936 C935 1.366 . S
C936 C940 1.385 . S
C937 H912 0.951 . S
C937 C935 1.388 . S
C937 C938 1.366 . S
C938 C937 1.366 . S
C938 C939 1.414 . S
C938 C941 1.499 . S
C939 H913 0.950 . S
C939 C938 1.414 . S
C939 C940 1.374 . S
C940 H914 0.950 . S
C940 C936 1.385 . S
C940 C939 1.374 . S
C941 C938 1.499 . S
C941 C942 1.373 . S
C941 C943 1.389 . S
C942 H915 0.950 . S
C942 C928 1.377 . S
C942 C941 1.373 . S
C943 C927 1.377 . S
C943 C941 1.389 . S
C943 C944 1.524 . S
C944 C943 1.524 . S
C944 C945 1.397 . S
C944 C949 1.363 . S
C945 H916 0.950 . S
C945 C944 1.397 . S
C945 C946 1.334 . S
C946 H917 0.950 . S
C946 C945 1.334 . S
C946 C947 1.287 . S
C947 C946 1.287 . S
C947 C948 1.524 . S
C947 H950 0.999 . S
C948 H918 0.950 . S
C948 C947 1.524 . S
C948 C949 1.415 . S
C949 H919 0.950 . S
C949 C944 1.363 . S
C949 C948 1.415 . S
H950 C947 0.999 . S
H951 C932 0.913 . S
H952 C970 0.951 1_554 S
H953 C972 0.951 . S
H954 C974 0.950 . S
H955 C975 0.950 . S
H956 C977 0.950 . S
H957 C980 0.950 1_556 S
H958 C981 0.950 . S
H959 C983 0.950 . S
H960 C984 0.950 . S
H961 C985 0.951 . S
H962 C987 0.951 . S
H963 C989 0.950 . S
H964 C990 0.950 . S
H965 C992 0.950 . S
H966 C995 0.950 . S
H967 C996 0.950 . S
H968 C998 0.950 . S
H969 C999 0.950 . S
C970 H952 0.951 1_556 S
C970 C971 1.366 . S
C970 C972 1.388 . S
C971 C970 1.366 . S
C971 C975 1.385 . S
C972 H953 0.951 . S
C972 C970 1.388 . S
C972 C973 1.366 . S
C973 C972 1.366 . S
C973 C974 1.414 . S
C973 C976 1.499 . S
C974 H954 0.950 . S
C974 C973 1.414 . S
C974 C975 1.374 . S
C975 H955 0.950 . S
C975 C971 1.385 . S
C975 C974 1.374 . S
C976 C973 1.499 . S
C976 C977 1.373 . S
C976 C978 1.389 . S
C977 H956 0.950 . S
C977 C976 1.373 . S
C977 C993 1.377 . S
C978 C976 1.389 . S
C978 C979 1.524 . S
C978 C992 1.377 . S
C979 C978 1.524 . S
C979 C980 1.397 1_556 S
C979 C984 1.363 . S
C980 H957 0.950 1_554 S
C980 C979 1.397 1_554 S
C980 C981 1.334 . S
C981 H958 0.950 . S
C981 C980 1.334 . S
C981 C982 1.287 . S
C982 C981 1.287 . S
C982 C983 1.524 . S
C982 H1001 0.913 . S
C983 H959 0.950 . S
C983 C982 1.524 . S
C983 C984 1.415 1_554 S
C984 H960 0.950 . S
C984 C979 1.363 . S
C984 C983 1.415 1_556 S
C985 H961 0.951 . S
C985 C986 1.366 . S
C985 C987 1.388 . S
C986 C985 1.366 . S
C986 C990 1.385 . S
C987 H962 0.951 . S
C987 C985 1.388 . S
C987 C988 1.366 . S
C988 C987 1.366 . S
C988 C989 1.414 . S
C988 C991 1.499 . S
C989 H963 0.950 . S
C989 C988 1.414 . S
C989 C990 1.374 . S
C990 H964 0.950 . S
C990 C986 1.385 . S
C990 C989 1.374 . S
C991 C988 1.499 . S
C991 C992 1.373 . S
C991 C993 1.389 . S
C992 H965 0.950 . S
C992 C978 1.377 . S
C992 C991 1.373 . S
C993 C977 1.377 . S
C993 C991 1.389 . S
C993 C994 1.524 . S
C994 C993 1.524 . S
C994 C995 1.397 . S
C994 C999 1.363 . S
C995 H966 0.950 . S
C995 C994 1.397 . S
C995 C996 1.334 . S
C996 H967 0.950 . S
C996 C995 1.334 . S
C996 C997 1.287 . S
C997 C996 1.287 . S
C997 C998 1.524 . S
C997 H1000 0.999 . S
C998 H968 0.950 . S
C998 C997 1.524 . S
C998 C999 1.415 . S
C999 H969 0.950 . S
C999 C994 1.363 . S
C999 C998 1.415 . S
H1000 C997 0.999 . S
H1001 C982 0.913 . S
H1002 C1020 0.951 1_554 S
H1003 C1022 0.951 . S
H1004 C1024 0.950 . S
H1005 C1025 0.950 . S
H1006 C1027 0.950 . S
H1007 C1030 0.950 . S
H1008 C1031 0.950 . S
H1009 C1033 0.950 . S
H1010 C1034 0.950 . S
H1011 C1035 0.951 . S
H1012 C1037 0.951 . S
H1013 C1039 0.950 . S
H1014 C1040 0.950 . S
H1015 C1042 0.950 . S
H1016 C1045 0.950 . S
H1017 C1046 0.950 . S
H1018 C1048 0.950 . S
H1019 C1049 0.950 . S
C1020 H1002 0.951 1_556 S
C1020 C1021 1.369 . S
C1020 C1022 1.388 . S
C1021 C1020 1.369 . S
C1021 C1025 1.381 1_545 S
C1022 H1003 0.951 . S
C1022 C1020 1.388 . S
C1022 C1023 1.366 . S
C1023 C1022 1.366 . S
C1023 C1024 1.414 1_545 S
C1023 C1026 1.499 . S
C1024 H1004 0.950 . S
C1024 C1023 1.414 1_565 S
C1024 C1025 1.374 . S
C1025 H1005 0.950 . S
C1025 C1021 1.381 1_565 S
C1025 C1024 1.374 . S
C1026 C1023 1.499 . S
C1026 C1027 1.373 1_545 S
C1026 C1028 1.389 . S
C1027 H1006 0.950 . S
C1027 C1026 1.373 1_565 S
C1027 C1043 1.377 . S
C1028 C1026 1.389 . S
C1028 C1029 1.524 . S
C1028 C1042 1.377 . S
C1029 C1028 1.524 . S
C1029 C1030 1.397 . S
C1029 C1034 1.363 . S
C1030 H1007 0.950 . S
C1030 C1029 1.397 . S
C1030 C1031 1.334 . S
C1031 H1008 0.950 . S
C1031 C1030 1.334 . S
C1031 C1032 1.287 . S
C1032 C1031 1.287 . S
C1032 C1033 1.524 . S
C1032 H1051 0.913 . S
C1033 H1009 0.950 . S
C1033 C1032 1.524 . S
C1033 C1034 1.415 . S
C1034 H1010 0.950 . S
C1034 C1029 1.363 . S
C1034 C1033 1.415 . S
C1035 H1011 0.951 . S
C1035 C1036 1.366 1_565 S
C1035 C1037 1.388 . S
C1036 C1035 1.366 1_545 S
C1036 C1040 1.385 . S
C1037 H1012 0.951 . S
C1037 C1035 1.388 . S
C1037 C1038 1.366 1_565 S
C1038 C1037 1.366 1_545 S
C1038 C1039 1.414 . S
C1038 C1041 1.499 . S
C1039 H1013 0.950 . S
C1039 C1038 1.414 . S
C1039 C1040 1.374 . S
C1040 H1014 0.950 . S
C1040 C1036 1.385 . S
C1040 C1039 1.374 . S
C1041 C1038 1.499 . S
C1041 C1042 1.373 . S
C1041 C1043 1.389 1_545 S
C1042 H1015 0.950 . S
C1042 C1028 1.377 . S
C1042 C1041 1.373 . S
C1043 C1027 1.377 . S
C1043 C1041 1.389 1_565 S
C1043 C1044 1.524 . S
C1044 C1043 1.524 . S
C1044 C1045 1.397 . S
C1044 C1049 1.363 . S
C1045 H1016 0.950 . S
C1045 C1044 1.397 . S
C1045 C1046 1.334 . S
C1046 H1017 0.950 . S
C1046 C1045 1.334 . S
C1046 C1047 1.287 . S
C1047 C1046 1.287 . S
C1047 C1048 1.524 . S
C1047 H1050 0.999 . S
C1048 H1018 0.950 . S
C1048 C1047 1.524 . S
C1048 C1049 1.415 . S
C1049 H1019 0.950 . S
C1049 C1044 1.363 . S
C1049 C1048 1.415 . S
H1050 C1047 0.999 . S
H1051 C1032 0.913 . S
H1052 C1070 0.951 . S
H1053 C1072 0.951 . S
H1054 C1074 0.950 . S
H1055 C1075 0.950 . S
H1056 C1077 0.950 . S
H1057 C1080 0.950 . S
H1058 C1081 0.950 . S
H1059 C1083 0.950 . S
H1060 C1084 0.950 . S
H1061 C1085 0.951 . S
H1062 C1087 0.951 . S
H1063 C1089 0.950 . S
H1064 C1090 0.950 . S
H1065 C1092 0.950 . S
H1066 C1095 0.950 . S
H1067 C1096 0.950 . S
H1068 C1098 0.950 . S
H1069 C1099 0.950 . S
C1070 H1052 0.951 . S
C1070 C1071 1.366 . S
C1070 C1072 1.388 . S
C1071 C1070 1.366 . S
C1071 C1075 1.385 . S
C1072 H1053 0.951 . S
C1072 C1070 1.388 . S
C1072 C1073 1.366 . S
C1073 C1072 1.366 . S
C1073 C1074 1.414 . S
C1073 C1076 1.499 . S
C1074 H1054 0.950 . S
C1074 C1073 1.414 . S
C1074 C1075 1.374 . S
C1075 H1055 0.950 . S
C1075 C1071 1.385 . S
C1075 C1074 1.374 . S
C1076 C1073 1.499 . S
C1076 C1077 1.373 . S
C1076 C1078 1.389 . S
C1077 H1056 0.950 . S
C1077 C1076 1.373 . S
C1077 C1093 1.377 . S
C1078 C1076 1.389 . S
C1078 C1079 1.524 . S
C1078 C1092 1.377 . S
C1079 C1078 1.524 . S
C1079 C1080 1.397 . S
C1079 C1084 1.363 . S
C1080 H1057 0.950 . S
C1080 C1079 1.397 . S
C1080 C1081 1.334 . S
C1081 H1058 0.950 . S
C1081 C1080 1.334 . S
C1081 C1082 1.287 . S
C1082 C1081 1.287 . S
C1082 C1083 1.524 . S
C1082 H1101 0.913 . S
C1083 H1059 0.950 . S
C1083 C1082 1.524 . S
C1083 C1084 1.415 . S
C1084 H1060 0.950 . S
C1084 C1079 1.363 . S
C1084 C1083 1.415 . S
C1085 H1061 0.951 . S
C1085 C1086 1.366 . S
C1085 C1087 1.388 . S
C1086 C1085 1.366 . S
C1086 C1090 1.385 . S
C1087 H1062 0.951 . S
C1087 C1085 1.388 . S
C1087 C1088 1.366 . S
C1088 C1087 1.366 . S
C1088 C1089 1.414 . S
C1088 C1091 1.499 . S
C1089 H1063 0.950 . S
C1089 C1088 1.414 . S
C1089 C1090 1.374 . S
C1090 H1064 0.950 . S
C1090 C1086 1.385 . S
C1090 C1089 1.374 . S
C1091 C1088 1.499 . S
C1091 C1092 1.373 . S
C1091 C1093 1.389 . S
C1092 H1065 0.950 . S
C1092 C1078 1.377 . S
C1092 C1091 1.373 . S
C1093 C1077 1.377 . S
C1093 C1091 1.389 . S
C1093 C1094 1.524 . S
C1094 C1093 1.524 . S
C1094 C1095 1.397 . S
C1094 C1099 1.363 . S
C1095 H1066 0.950 . S
C1095 C1094 1.397 . S
C1095 C1096 1.334 . S
C1096 H1067 0.950 . S
C1096 C1095 1.334 . S
C1096 C1097 1.287 . S
C1097 C1096 1.287 . S
C1097 C1098 1.524 . S
C1097 H1100 0.999 . S
C1098 H1068 0.950 . S
C1098 C1097 1.524 . S
C1098 C1099 1.415 . S
C1099 H1069 0.950 . S
C1099 C1094 1.363 . S
C1099 C1098 1.415 . S
H1100 C1097 0.999 . S
H1101 C1082 0.913 . S
H1102 C1120 0.951 . S
H1103 C1122 0.951 . S
H1104 C1124 0.950 . S
H1105 C1125 0.950 . S
H1106 C1127 0.950 . S
H1107 C1130 0.950 . S
H1108 C1131 0.950 . S
H1109 C1133 0.950 . S
H1110 C1134 0.950 . S
H1111 C1135 0.951 . S
H1112 C1137 0.951 . S
H1113 C1139 0.950 . S
H1114 C1140 0.950 . S
H1115 C1142 0.950 . S
H1116 C1145 0.950 . S
H1117 C1146 0.950 . S
H1118 C1148 0.950 . S
H1119 C1149 0.950 . S
C1120 H1102 0.951 . S
C1120 C1121 1.366 . S
C1120 C1122 1.388 . S
C1121 C1120 1.366 . S
C1121 C1125 1.385 . S
C1122 H1103 0.951 . S
C1122 C1120 1.388 . S
C1122 C1123 1.366 . S
C1123 C1122 1.366 . S
C1123 C1124 1.414 . S
C1123 C1126 1.499 . S
C1124 H1104 0.950 . S
C1124 C1123 1.414 . S
C1124 C1125 1.374 . S
C1125 H1105 0.950 . S
C1125 C1121 1.385 . S
C1125 C1124 1.374 . S
C1126 C1123 1.499 . S
C1126 C1127 1.373 . S
C1126 C1128 1.389 . S
C1127 H1106 0.950 . S
C1127 C1126 1.373 . S
C1127 C1143 1.377 . S
C1128 C1126 1.389 . S
C1128 C1129 1.524 . S
C1128 C1142 1.377 . S
C1129 C1128 1.524 . S
C1129 C1130 1.397 . S
C1129 C1134 1.363 . S
C1130 H1107 0.950 . S
C1130 C1129 1.397 . S
C1130 C1131 1.334 . S
C1131 H1108 0.950 . S
C1131 C1130 1.334 . S
C1131 C1132 1.287 . S
C1132 C1131 1.287 . S
C1132 C1133 1.524 . S
C1132 H1151 0.913 . S
C1133 H1109 0.950 . S
C1133 C1132 1.524 . S
C1133 C1134 1.415 . S
C1134 H1110 0.950 . S
C1134 C1129 1.363 . S
C1134 C1133 1.415 . S
C1135 H1111 0.951 . S
C1135 C1136 1.366 . S
C1135 C1137 1.388 . S
C1136 C1135 1.366 . S
C1136 C1140 1.385 . S
C1137 H1112 0.951 . S
C1137 C1135 1.388 . S
C1137 C1138 1.366 . S
C1138 C1137 1.366 . S
C1138 C1139 1.414 . S
C1138 C1141 1.499 . S
C1139 H1113 0.950 . S
C1139 C1138 1.414 . S
C1139 C1140 1.374 . S
C1140 H1114 0.950 . S
C1140 C1136 1.385 . S
C1140 C1139 1.374 . S
C1141 C1138 1.499 . S
C1141 C1142 1.373 . S
C1141 C1143 1.389 . S
C1142 H1115 0.950 . S
C1142 C1128 1.377 . S
C1142 C1141 1.373 . S
C1143 C1127 1.377 . S
C1143 C1141 1.389 . S
C1143 C1144 1.524 . S
C1144 C1143 1.524 . S
C1144 C1145 1.397 . S
C1144 C1149 1.363 . S
C1145 H1116 0.950 . S
C1145 C1144 1.397 . S
C1145 C1146 1.334 . S
C1146 H1117 0.950 . S
C1146 C1145 1.334 . S
C1146 C1147 1.287 . S
C1147 C1146 1.287 . S
C1147 C1148 1.524 . S
C1147 H1150 0.999 . S
C1148 H1118 0.950 . S
C1148 C1147 1.524 . S
C1148 C1149 1.415 . S
C1149 H1119 0.950 . S
C1149 C1144 1.363 . S
C1149 C1148 1.415 . S
H1150 C1147 0.999 . S
H1151 C1132 0.913 . S
H1152 C1170 0.951 . S
H1153 C1172 0.951 . S
H1154 C1174 0.950 . S
H1155 C1175 0.950 . S
H1156 C1177 0.950 . S
H1157 C1180 0.950 . S
H1158 C1181 0.950 . S
H1159 C1183 0.950 . S
H1160 C1184 0.950 . S
H1161 C1185 0.951 . S
H1162 C1187 0.951 . S
H1163 C1189 0.950 . S
H1164 C1190 0.950 1_455 S
H1165 C1192 0.950 . S
H1166 C1195 0.950 . S
H1167 C1196 0.950 . S
H1168 C1198 0.950 . S
H1169 C1199 0.950 . S
C1170 H1152 0.951 . S
C1170 C1171 1.366 . S
C1170 C1172 1.388 . S
C1171 C1170 1.366 . S
C1171 C1175 1.385 . S
C1172 H1153 0.951 . S
C1172 C1170 1.388 . S
C1172 C1173 1.366 . S
C1173 C1172 1.366 . S
C1173 C1174 1.414 . S
C1173 C1176 1.499 . S
C1174 H1154 0.950 . S
C1174 C1173 1.414 . S
C1174 C1175 1.374 . S
C1175 H1155 0.950 . S
C1175 C1171 1.385 . S
C1175 C1174 1.374 . S
C1176 C1173 1.499 . S
C1176 C1177 1.373 . S
C1176 C1178 1.389 . S
C1177 H1156 0.950 . S
C1177 C1176 1.373 . S
C1177 C1193 1.377 . S
C1178 C1176 1.389 . S
C1178 C1179 1.524 . S
C1178 C1192 1.377 . S
C1179 C1178 1.524 . S
C1179 C1180 1.397 . S
C1179 C1184 1.363 1_655 S
C1180 H1157 0.950 . S
C1180 C1179 1.397 . S
C1180 C1181 1.334 1_655 S
C1181 H1158 0.950 . S
C1181 C1180 1.334 1_455 S
C1181 C1182 1.287 . S
C1182 C1181 1.287 . S
C1182 C1183 1.524 . S
C1182 H1201 0.913 . S
C1183 H1159 0.950 . S
C1183 C1182 1.524 . S
C1183 C1184 1.415 . S
C1184 H1160 0.950 . S
C1184 C1179 1.363 1_455 S
C1184 C1183 1.415 . S
C1185 H1161 0.951 . S
C1185 C1186 1.366 . S
C1185 C1187 1.388 . S
C1186 C1185 1.366 . S
C1186 C1190 1.385 . S
C1187 H1162 0.951 . S
C1187 C1185 1.388 . S
C1187 C1188 1.366 . S
C1188 C1187 1.366 . S
C1188 C1189 1.414 . S
C1188 C1191 1.499 . S
C1189 H1163 0.950 . S
C1189 C1188 1.414 . S
C1189 C1190 1.374 . S
C1190 H1164 0.950 1_655 S
C1190 C1186 1.385 . S
C1190 C1189 1.374 . S
C1191 C1188 1.499 . S
C1191 C1192 1.373 . S
C1191 C1193 1.389 . S
C1192 H1165 0.950 . S
C1192 C1178 1.377 . S
C1192 C1191 1.373 . S
C1193 C1177 1.377 . S
C1193 C1191 1.389 . S
C1193 C1194 1.524 . S
C1194 C1193 1.524 . S
C1194 C1195 1.397 . S
C1194 C1199 1.363 . S
C1195 H1166 0.950 . S
C1195 C1194 1.397 . S
C1195 C1196 1.334 . S
C1196 H1167 0.950 . S
C1196 C1195 1.334 . S
C1196 C1197 1.287 . S
C1197 C1196 1.287 . S
C1197 C1198 1.524 . S
C1197 H1200 0.999 . S
C1198 H1168 0.950 . S
C1198 C1197 1.524 . S
C1198 C1199 1.415 . S
C1199 H1169 0.950 . S
C1199 C1194 1.363 . S
C1199 C1198 1.415 . S
H1200 C1197 0.999 . S
H1201 C1182 0.913 . S
H1202 C1220 0.951 . S
H1203 C1222 0.951 . S
H1204 C1224 0.950 . S
H1205 C1225 0.950 . S
H1206 C1227 0.950 . S
H1207 C1230 0.950 . S
H1208 C1231 0.954 1_565 S
H1209 C1233 0.950 . S
H1210 C1234 0.950 . S
H1211 C1235 0.951 . S
H1212 C1237 0.951 . S
H1213 C1239 0.950 . S
H1214 C1240 0.950 . S
H1215 C1242 0.950 . S
H1216 C1245 0.942 1_545 S
H1217 C1246 0.950 1_545 S
H1218 C1248 0.950 . S
H1219 C1249 0.950 . S
C1220 H1202 0.951 . S
C1220 C1221 1.366 1_545 S
C1220 C1222 1.388 . S
C1221 C1220 1.366 1_565 S
C1221 C1225 1.384 . S
C1222 H1203 0.951 . S
C1222 C1220 1.388 . S
C1222 C1223 1.366 1_545 S
C1223 C1222 1.366 1_565 S
C1223 C1224 1.414 . S
C1223 C1226 1.499 . S
C1224 H1204 0.950 . S
C1224 C1223 1.414 . S
C1224 C1225 1.374 . S
C1225 H1205 0.950 . S
C1225 C1221 1.384 . S
C1225 C1224 1.374 . S
C1226 C1223 1.499 . S
C1226 C1227 1.373 . S
C1226 C1228 1.389 1_565 S
C1227 H1206 0.950 . S
C1227 C1226 1.373 . S
C1227 C1243 1.377 . S
C1228 C1226 1.389 1_545 S
C1228 C1229 1.524 . S
C1228 C1242 1.377 . S
C1229 C1228 1.524 . S
C1229 C1230 1.397 1_545 S
C1229 C1234 1.363 . S
C1230 H1207 0.950 . S
C1230 C1229 1.397 1_565 S
C1230 C1231 1.335 1_565 S
C1231 H1208 0.954 1_545 S
C1231 C1230 1.335 1_545 S
C1231 C1232 1.282 . S
C1232 C1231 1.282 . S
C1232 C1233 1.524 . S
C1232 H1251 0.913 . S
C1233 H1209 0.950 . S
C1233 C1232 1.524 . S
C1233 C1234 1.415 . S
C1234 H1210 0.950 . S
C1234 C1229 1.363 . S
C1234 C1233 1.415 . S
C1235 H1211 0.951 . S
C1235 C1236 1.366 . S
C1235 C1237 1.388 . S
C1236 C1235 1.366 . S
C1236 C1240 1.385 1_565 S
C1237 H1212 0.951 . S
C1237 C1235 1.388 . S
C1237 C1238 1.366 . S
C1238 C1237 1.366 . S
C1238 C1239 1.414 1_565 S
C1238 C1241 1.499 . S
C1239 H1213 0.950 . S
C1239 C1238 1.414 1_545 S
C1239 C1240 1.374 . S
C1240 H1214 0.950 . S
C1240 C1236 1.385 1_545 S
C1240 C1239 1.374 . S
C1241 C1238 1.499 . S
C1241 C1242 1.373 1_565 S
C1241 C1243 1.389 . S
C1242 H1215 0.950 . S
C1242 C1228 1.377 . S
C1242 C1241 1.373 1_545 S
C1243 C1227 1.377 . S
C1243 C1241 1.389 . S
C1243 C1244 1.524 . S
C1244 C1243 1.524 . S
C1244 C1245 1.404 . S
C1244 C1249 1.363 . S
C1245 H1216 0.942 1_565 S
C1245 C1244 1.404 . S
C1245 C1246 1.335 . S
C1246 H1217 0.950 1_565 S
C1246 C1245 1.335 . S
C1246 C1247 1.287 . S
C1247 C1246 1.287 . S
C1247 C1248 1.524 . S
C1247 H1250 0.999 . S
C1248 H1218 0.950 . S
C1248 C1247 1.524 . S
C1248 C1249 1.415 . S
C1249 H1219 0.950 . S
C1249 C1244 1.363 . S
C1249 C1248 1.415 . S
H1250 C1247 0.999 . S
H1251 C1232 0.913 . S
H1252 C1270 0.951 . S
H1253 C1272 0.951 . S
H1254 C1274 0.950 . S
H1255 C1275 0.950 . S
H1256 C1277 0.950 . S
H1257 C1280 0.950 . S
H1258 C1281 0.950 . S
H1259 C1283 0.950 . S
H1260 C1284 0.950 . S
H1261 C1285 0.951 . S
H1262 C1287 0.951 . S
H1263 C1289 0.950 . S
H1264 C1290 0.950 . S
H1265 C1292 0.950 . S
H1266 C1295 0.950 . S
H1267 C1296 0.950 . S
H1268 C1298 0.950 . S
H1269 C1299 0.950 . S
C1270 H1252 0.951 . S
C1270 C1271 1.366 . S
C1270 C1272 1.388 . S
C1271 C1270 1.366 . S
C1271 C1275 1.385 . S
C1272 H1253 0.951 . S
C1272 C1270 1.388 . S
C1272 C1273 1.366 . S
C1273 C1272 1.366 . S
C1273 C1274 1.414 . S
C1273 C1276 1.499 . S
C1274 H1254 0.950 . S
C1274 C1273 1.414 . S
C1274 C1275 1.374 . S
C1275 H1255 0.950 . S
C1275 C1271 1.385 . S
C1275 C1274 1.374 . S
C1276 C1273 1.499 . S
C1276 C1277 1.373 . S
C1276 C1278 1.389 . S
C1277 H1256 0.950 . S
C1277 C1276 1.373 . S
C1277 C1293 1.377 . S
C1278 C1276 1.389 . S
C1278 C1279 1.524 . S
C1278 C1292 1.377 . S
C1279 C1278 1.524 . S
C1279 C1280 1.397 . S
C1279 C1284 1.363 . S
C1280 H1257 0.950 . S
C1280 C1279 1.397 . S
C1280 C1281 1.334 . S
C1281 H1258 0.950 . S
C1281 C1280 1.334 . S
C1281 C1282 1.287 . S
C1282 C1281 1.287 . S
C1282 C1283 1.524 . S
C1282 H1301 0.913 . S
C1283 H1259 0.950 . S
C1283 C1282 1.524 . S
C1283 C1284 1.415 . S
C1284 H1260 0.950 . S
C1284 C1279 1.363 . S
C1284 C1283 1.415 . S
C1285 H1261 0.951 . S
C1285 C1286 1.366 . S
C1285 C1287 1.388 . S
C1286 C1285 1.366 . S
C1286 C1290 1.385 . S
C1287 H1262 0.951 . S
C1287 C1285 1.388 . S
C1287 C1288 1.366 . S
C1288 C1287 1.366 . S
C1288 C1289 1.414 . S
C1288 C1291 1.499 . S
C1289 H1263 0.950 . S
C1289 C1288 1.414 . S
C1289 C1290 1.374 . S
C1290 H1264 0.950 . S
C1290 C1286 1.385 . S
C1290 C1289 1.374 . S
C1291 C1288 1.499 . S
C1291 C1292 1.373 . S
C1291 C1293 1.389 . S
C1292 H1265 0.950 . S
C1292 C1278 1.377 . S
C1292 C1291 1.373 . S
C1293 C1277 1.377 . S
C1293 C1291 1.389 . S
C1293 C1294 1.524 . S
C1294 C1293 1.524 . S
C1294 C1295 1.397 . S
C1294 C1299 1.363 . S
C1295 H1266 0.950 . S
C1295 C1294 1.397 . S
C1295 C1296 1.334 . S
C1296 H1267 0.950 . S
C1296 C1295 1.334 . S
C1296 C1297 1.287 . S
C1297 C1296 1.287 . S
C1297 C1298 1.524 . S
C1297 H1300 0.999 . S
C1298 H1268 0.950 . S
C1298 C1297 1.524 . S
C1298 C1299 1.415 . S
C1299 H1269 0.950 . S
C1299 C1294 1.363 . S
C1299 C1298 1.415 . S
H1300 C1297 0.999 . S
H1301 C1282 0.913 . S
H1302 C1320 0.951 . S
H1303 C1322 0.951 . S
H1304 C1324 0.950 . S
H1305 C1325 0.950 . S
H1306 C1327 0.950 . S
H1307 C1330 0.950 . S
H1308 C1331 0.950 . S
H1309 C1333 0.950 . S
H1310 C1334 0.950 . S
H1311 C1335 0.951 . S
H1312 C1337 0.951 . S
H1313 C1339 0.950 . S
H1314 C1340 0.950 . S
H1315 C1342 0.950 . S
H1316 C1345 0.950 . S
H1317 C1346 0.950 . S
H1318 C1348 0.950 . S
H1319 C1349 0.950 . S
C1320 H1302 0.951 . S
C1320 C1321 1.366 . S
C1320 C1322 1.388 . S
C1321 C1320 1.366 . S
C1321 C1325 1.385 . S
C1322 H1303 0.951 . S
C1322 C1320 1.388 . S
C1322 C1323 1.366 . S
C1323 C1322 1.366 . S
C1323 C1324 1.414 . S
C1323 C1326 1.499 . S
C1324 H1304 0.950 . S
C1324 C1323 1.414 . S
C1324 C1325 1.374 . S
C1325 H1305 0.950 . S
C1325 C1321 1.385 . S
C1325 C1324 1.374 . S
C1326 C1323 1.499 . S
C1326 C1327 1.373 . S
C1326 C1328 1.389 . S
C1327 H1306 0.950 . S
C1327 C1326 1.373 . S
C1327 C1343 1.377 . S
C1328 C1326 1.389 . S
C1328 C1329 1.524 . S
C1328 C1342 1.377 . S
C1329 C1328 1.524 . S
C1329 C1330 1.397 . S
C1329 C1334 1.363 . S
C1330 H1307 0.950 . S
C1330 C1329 1.397 . S
C1330 C1331 1.334 . S
C1331 H1308 0.950 . S
C1331 C1330 1.334 . S
C1331 C1332 1.287 . S
C1332 C1331 1.287 . S
C1332 C1333 1.524 . S
C1332 H1351 0.913 . S
C1333 H1309 0.950 . S
C1333 C1332 1.524 . S
C1333 C1334 1.415 . S
C1334 H1310 0.950 . S
C1334 C1329 1.363 . S
C1334 C1333 1.415 . S
C1335 H1311 0.951 . S
C1335 C1336 1.366 . S
C1335 C1337 1.388 . S
C1336 C1335 1.366 . S
C1336 C1340 1.385 . S
C1337 H1312 0.951 . S
C1337 C1335 1.388 . S
C1337 C1338 1.366 . S
C1338 C1337 1.366 . S
C1338 C1339 1.414 . S
C1338 C1341 1.499 . S
C1339 H1313 0.950 . S
C1339 C1338 1.414 . S
C1339 C1340 1.374 . S
C1340 H1314 0.950 . S
C1340 C1336 1.385 . S
C1340 C1339 1.374 . S
C1341 C1338 1.499 . S
C1341 C1342 1.373 . S
C1341 C1343 1.389 . S
C1342 H1315 0.950 . S
C1342 C1328 1.377 . S
C1342 C1341 1.373 . S
C1343 C1327 1.377 . S
C1343 C1341 1.389 . S
C1343 C1344 1.524 . S
C1344 C1343 1.524 . S
C1344 C1345 1.397 . S
C1344 C1349 1.363 . S
C1345 H1316 0.950 . S
C1345 C1344 1.397 . S
C1345 C1346 1.334 . S
C1346 H1317 0.950 . S
C1346 C1345 1.334 . S
C1346 C1347 1.287 . S
C1347 C1346 1.287 . S
C1347 C1348 1.524 . S
C1347 H1350 0.999 . S
C1348 H1318 0.950 . S
C1348 C1347 1.524 . S
C1348 C1349 1.415 . S
C1349 H1319 0.950 . S
C1349 C1344 1.363 . S
C1349 C1348 1.415 . S
H1350 C1347 0.999 . S
H1351 C1332 0.913 . S
C171 C61 1.467 . S
C186 C80 1.498 . S
C236 C110 1.932 . S
C221 C70 1.877 . S
C286 C120 1.479 . S
C271 C43 1.445 . S
C336 C140 1.338 . S
C321 C52 1.295 . S
C386 C81 1.498 . S
C371 C25 1.468 1_546 S
C421 C34 1.875 . S
C436 C111 1.936 . S
C471 C7 1.441 1_556 S
C486 C121 1.479 . S
C521 C16 1.298 . S
C536 C141 1.339 . S
C586 C73 0.478 . S
C571 C50 0.494 . S
C636 C94 0.188 . S
C621 C59 0.243 1_545 S
C686 C113 0.726 . S
C671 C67 0.728 . S
C721 C41 0.394 . S
C736 C133 0.410 . S
C771 C14 0.486 . S
C786 C74 0.485 . S
C836 C93 0.190 . S
C821 C23 0.245 . S
C886 C114 0.726 . S
C871 C31 0.727 1_556 S
C921 C5 0.401 . S
C936 C134 0.409 . S
C971 C49 1.690 1_556 S
C986 C91 1.763 . S
C1021 C58 1.191 1_546 S
C1036 C101 1.257 . S
C1086 C131 1.834 . S
C1071 C68 1.742 . S
C1136 C151 1.815 . S
C1121 C40 1.737 1_556 S
C1171 C13 1.692 . S
C1186 C90 1.772 . S
C1236 C100 1.257 . S
C1221 C22 1.189 . S
C1286 C130 1.834 . S
C1271 C32 1.734 . S
C1321 C4 1.734 . S
C1336 C150 1.816 . S
