# Generated by pormake.
# Topology pyr, (3,6)-cn, num edge types: 1
# Building blocks:
#     Node 0, Type 0, BuildingBlock: QEWDON_clean_linker_0, # of connection points: 3
#     Node 1, Type 0, BuildingBlock: QEWDON_clean_linker_0, # of connection points: 3
#     Node 2, Type 0, BuildingBlock: QEWDON_clean_linker_0, # of connection points: 3
#     Node 3, Type 0, BuildingBlock: QEWDON_clean_linker_0, # of connection points: 3
#     Node 4, Type 0, BuildingBlock: QEWDON_clean_linker_0, # of connection points: 3
#     Node 5, Type 0, BuildingBlock: QEWDON_clean_linker_0, # of connection points: 3
#     Node 6, Type 0, BuildingBlock: QEWDON_clean_linker_0, # of connection points: 3
#     Node 7, Type 0, BuildingBlock: QEWDON_clean_linker_0, # of connection points: 3
#     Node 8, Type 1, BuildingBlock: PAMTUU_clean_sbu_0, # of connection points: 6
#     Node 9, Type 1, BuildingBlock: PAMTUU_clean_sbu_0, # of connection points: 6
#     Node 10, Type 1, BuildingBlock: PAMTUU_clean_sbu_0, # of connection points: 6
#     Node 11, Type 1, BuildingBlock: PAMTUU_clean_sbu_0, # of connection points: 6
#     Edge 12, Type (0, 1), BuildingBlock: TEMPAE_clean_linker_10, # of connection points: 2
#     Edge 13, Type (0, 1), BuildingBlock: TEMPAE_clean_linker_10, # of connection points: 2
#     Edge 14, Type (0, 1), BuildingBlock: TEMPAE_clean_linker_10, # of connection points: 2
#     Edge 15, Type (0, 1), BuildingBlock: TEMPAE_clean_linker_10, # of connection points: 2
#     Edge 16, Type (0, 1), BuildingBlock: TEMPAE_clean_linker_10, # of connection points: 2
#     Edge 17, Type (0, 1), BuildingBlock: TEMPAE_clean_linker_10, # of connection points: 2
#     Edge 18, Type (0, 1), BuildingBlock: TEMPAE_clean_linker_10, # of connection points: 2
#     Edge 19, Type (0, 1), BuildingBlock: TEMPAE_clean_linker_10, # of connection points: 2
#     Edge 20, Type (0, 1), BuildingBlock: TEMPAE_clean_linker_10, # of connection points: 2
#     Edge 21, Type (0, 1), BuildingBlock: TEMPAE_clean_linker_10, # of connection points: 2
#     Edge 22, Type (0, 1), BuildingBlock: TEMPAE_clean_linker_10, # of connection points: 2
#     Edge 23, Type (0, 1), BuildingBlock: TEMPAE_clean_linker_10, # of connection points: 2
#     Edge 24, Type (0, 1), BuildingBlock: TEMPAE_clean_linker_10, # of connection points: 2
#     Edge 25, Type (0, 1), BuildingBlock: TEMPAE_clean_linker_10, # of connection points: 2
#     Edge 26, Type (0, 1), BuildingBlock: TEMPAE_clean_linker_10, # of connection points: 2
#     Edge 27, Type (0, 1), BuildingBlock: TEMPAE_clean_linker_10, # of connection points: 2
#     Edge 28, Type (0, 1), BuildingBlock: TEMPAE_clean_linker_10, # of connection points: 2
#     Edge 29, Type (0, 1), BuildingBlock: TEMPAE_clean_linker_10, # of connection points: 2
#     Edge 30, Type (0, 1), BuildingBlock: TEMPAE_clean_linker_10, # of connection points: 2
#     Edge 31, Type (0, 1), BuildingBlock: TEMPAE_clean_linker_10, # of connection points: 2
#     Edge 32, Type (0, 1), BuildingBlock: TEMPAE_clean_linker_10, # of connection points: 2
#     Edge 33, Type (0, 1), BuildingBlock: TEMPAE_clean_linker_10, # of connection points: 2
#     Edge 34, Type (0, 1), BuildingBlock: TEMPAE_clean_linker_10, # of connection points: 2
#     Edge 35, Type (0, 1), BuildingBlock: TEMPAE_clean_linker_10, # of connection points: 2
# Relax obj value: 0.156
# Max RMSD: 0.246
# Mean RMSD: 0.188
data_MOF--net-pyr--node1-PAMTUU_clean_sbu_0--node2-QEWDON_clean_linker_0--edge1-TEMPAE_clean_linker_10
_symmetry_space_group_name_H-M    P1
_symmetry_Int_Tables_number       1
_symmetry_cell_setting            triclinic
loop_
_symmetry_equiv_pos_as_xyz
'x, y, z'
_cell_length_a     38.900618
_cell_length_b     39.856147
_cell_length_c     41.451048
_cell_angle_alpha  89.585095
_cell_angle_beta   89.528237
_cell_angle_gamma 109.46637
loop_
_atom_site_label
_atom_site_type_symbol
_atom_site_fract_x
_atom_site_fract_y
_atom_site_fract_z
_atom_type_partial_charge
H0 H 0.42225 0.34219 0.18469 0.0
C1 C 0.40292 0.33009 0.20389 0.0
C2 C 0.40155 0.29702 0.21693 0.0
C3 C 0.37901 0.34732 0.21515 0.0
H4 H 0.37375 0.25513 0.25058 0.0
C5 C 0.37597 0.28132 0.2414 0.0
C6 C 0.35223 0.29833 0.25327 0.0
C7 C 0.35398 0.33137 0.24002 0.0
C8 C 0.37959 0.38166 0.20063 0.0
H9 H 0.33621 0.345 0.24945 0.0
C10 C 0.3467 0.38736 0.19333 0.0
C11 C 0.34675 0.41991 0.18004 0.0
C12 C 0.41277 0.40894 0.19414 0.0
H13 H 0.43851 0.40541 0.19972 0.0
C14 C 0.41299 0.44136 0.18095 0.0
H15 H 0.32097 0.36643 0.1981 0.0
C16 C 0.38022 0.44694 0.17401 0.0
H17 H 0.38105 0.4722 0.16359 0.0
H18 H 0.43867 0.46228 0.17614 0.0
H19 H 0.18676 0.84779 0.78677 0.0
C20 C 0.20492 0.83602 0.77502 0.0
C21 C 0.24025 0.84273 0.78687 0.0
C22 C 0.19328 0.81487 0.74756 0.0
H23 H 0.2909 0.83253 0.78052 0.0
C24 C 0.26376 0.82789 0.77119 0.0
C25 C 0.25275 0.80706 0.74365 0.0
C26 C 0.21725 0.80013 0.73219 0.0
C27 C 0.15713 0.81024 0.73346 0.0
H28 H 0.20891 0.78468 0.71045 0.0
C29 C 0.14611 0.84 0.72799 0.0
C30 C 0.11351 0.83663 0.71167 0.0
C31 C 0.1345 0.77655 0.72367 0.0
H32 H 0.14233 0.75322 0.72774 0.0
C33 C 0.10161 0.77273 0.70838 0.0
H34 H 0.16359 0.86595 0.73568 0.0
C35 C 0.0913 0.80249 0.70211 0.0
H36 H 0.06643 0.79875 0.6889 0.0
H37 H 0.0844 0.74668 0.70073 0.0
H38 H 0.71158 0.48935 0.90415 0.0
C39 C 0.70233 0.46158 0.91144 0.0
C40 C 0.72316 0.44929 0.93343 0.0
C41 C 0.6679 0.43874 0.90144 0.0
H42 H 0.72558 0.40446 0.96161 0.0
C43 C 0.70971 0.41382 0.94456 0.0
C44 C 0.67585 0.3905 0.9346 0.0
C45 C 0.65553 0.40302 0.91256 0.0
C46 C 0.64113 0.45311 0.8857 0.0
H47 H 0.62869 0.38561 0.90578 0.0
C48 C 0.64745 0.47172 0.85563 0.0
C49 C 0.62006 0.48383 0.84214 0.0
C50 C 0.60772 0.44737 0.90189 0.0
H51 H 0.60225 0.43374 0.92506 0.0
C52 C 0.5809 0.45893 0.88867 0.0
H53 H 0.67311 0.47652 0.84293 0.0
C54 C 0.58681 0.47668 0.85911 0.0
H55 H 0.56485 0.48449 0.84929 0.0
H56 H 0.55521 0.4539 0.90136 0.0
H57 H 0.90803 0.80175 0.36705 0.0
C58 C 0.88765 0.78358 0.38268 0.0
C59 C 0.88261 0.79389 0.4144 0.0
C60 C 0.86397 0.75139 0.37019 0.0
H61 H 0.84949 0.78014 0.45753 0.0
C62 C 0.85415 0.77144 0.43366 0.0
C63 C 0.83034 0.73917 0.42178 0.0
C64 C 0.83588 0.72926 0.39012 0.0
C65 C 0.86142 0.74518 0.33475 0.0
H66 H 0.81701 0.7051 0.38018 0.0
C67 C 0.88543 0.73202 0.31687 0.0
C68 C 0.87956 0.72465 0.2834 0.0
C69 C 0.8321 0.75102 0.319 0.0
H70 H 0.81336 0.76095 0.33219 0.0
C71 C 0.82607 0.74357 0.28645 0.0
H72 H 0.90813 0.72747 0.32887 0.0
C73 C 0.84921 0.73026 0.26891 0.0
H74 H 0.84283 0.72383 0.24385 0.0
H75 H 0.803 0.74773 0.27479 0.0
H76 H 0.70872 0.78855 0.95665 0.0
C77 C 0.71756 0.80259 0.93395 0.0
C78 C 0.7533 0.80892 0.92263 0.0
C79 C 0.69373 0.81576 0.91667 0.0
H80 H 0.79197 0.83181 0.88443 0.0
C81 C 0.76443 0.82713 0.89327 0.0
C82 C 0.74064 0.83953 0.87528 0.0
C83 C 0.70544 0.83433 0.88746 0.0
C84 C 0.65666 0.81059 0.92923 0.0
H85 H 0.68684 0.84398 0.87392 0.0
C86 C 0.64581 0.84017 0.93573 0.0
C87 C 0.61063 0.83561 0.94799 0.0
C88 C 0.63211 0.77619 0.93484 0.0
H89 H 0.64002 0.75309 0.92995 0.0
C90 C 0.59694 0.77138 0.94631 0.0
H91 H 0.66531 0.86669 0.93227 0.0
C92 C 0.58618 0.8008 0.95282 0.0
H93 H 0.5587 0.79625 0.96164 0.0
H94 H 0.57795 0.74476 0.95025 0.0
H95 H 0.89843 0.29354 0.46553 0.0
C96 C 0.88711 0.29303 0.44169 0.0
C97 C 0.90301 0.28108 0.41558 0.0
C98 C 0.85506 0.30153 0.43796 0.0
H99 H 0.89978 0.27074 0.36451 0.0
C100 C 0.88786 0.28002 0.38485 0.0
C101 C 0.85617 0.28888 0.38045 0.0
C102 C 0.84008 0.29989 0.40699 0.0
C103 C 0.83511 0.30788 0.4669 0.0
H104 H 0.81441 0.30455 0.40386 0.0
C105 C 0.81522 0.33164 0.46562 0.0
C106 C 0.79476 0.33591 0.49254 0.0
C107 C 0.83442 0.2887 0.49574 0.0
H108 H 0.84822 0.26924 0.49747 0.0
C109 C 0.81488 0.29344 0.52262 0.0
H110 H 0.81567 0.34689 0.44379 0.0
C111 C 0.79507 0.31673 0.52107 0.0
H112 H 0.77911 0.31892 0.54199 0.0
H113 H 0.81445 0.27837 0.54455 0.0
H114 H 0.42783 0.7837 0.25432 0.0
C115 C 0.40068 0.77088 0.24502 0.0
C116 C 0.38509 0.78993 0.22423 0.0
C117 C 0.38218 0.73475 0.25245 0.0
H118 H 0.33883 0.78651 0.1945 0.0
C119 C 0.35038 0.77243 0.2114 0.0
C120 C 0.33173 0.7362 0.21794 0.0
C121 C 0.34793 0.71758 0.23852 0.0
C122 C 0.40162 0.7131 0.26889 0.0
H123 H 0.33435 0.68941 0.24307 0.0
C124 C 0.40712 0.71365 0.30271 0.0
C125 C 0.42643 0.6927 0.31664 0.0
C126 C 0.4152 0.69144 0.24963 0.0
H127 H 0.41125 0.69058 0.22375 0.0
C128 C 0.43426 0.67099 0.26333 0.0
H129 H 0.39662 0.7301 0.3179 0.0
C130 C 0.43994 0.67167 0.2965 0.0
H131 H 0.45471 0.65539 0.30658 0.0
H132 H 0.4447 0.65451 0.24816 0.0
H133 H 0.23373 0.45882 0.76723 0.0
C134 C 0.21779 0.43547 0.7541 0.0
C135 C 0.22971 0.42883 0.72332 0.0
C136 C 0.18722 0.41029 0.76908 0.0
H137 H 0.22041 0.39205 0.68406 0.0
C138 C 0.2103 0.39741 0.70723 0.0
C139 C 0.17932 0.37216 0.72131 0.0
C140 C 0.16803 0.37899 0.75228 0.0
C141 C 0.17948 0.4125 0.80424 0.0
H142 H 0.1448 0.35943 0.7639 0.0
C143 C 0.16861 0.44005 0.8179 0.0
C144 C 0.16065 0.43951 0.85145 0.0
C145 C 0.18282 0.38538 0.82455 0.0
H146 H 0.19128 0.36415 0.81483 0.0
C147 C 0.17553 0.38525 0.85749 0.0
H148 H 0.16563 0.46105 0.80262 0.0
C149 C 0.16444 0.41197 0.87083 0.0
H150 H 0.15852 0.41105 0.89649 0.0
H151 H 0.17828 0.36416 0.87277 0.0
Tb152 Tb 0.07498 0.09069 0.54636 0.0
Tb153 Tb 0.99818 0.07453 0.58641 0.0
C154 C 1.00634 0.02493 0.53102 0.0
C155 C 0.15191 0.12651 0.48734 0.0
C156 C 0.18589 0.16808 0.43341 0.0
C157 C 0.15025 0.14383 0.43116 0.0
C158 C 0.13324 0.12334 0.45802 0.0
C159 C 0.18744 0.15071 0.48954 0.0
C160 C 0.20424 0.17141 0.46288 0.0
C161 C 0.135 0.10556 0.51618 0.0
O162 O 0.0508 0.12745 0.5255 0.0
O163 O 0.99112 0.09967 0.54147 0.0
O164 O 0.031 0.12974 0.59408 0.0
O165 O 0.08561 0.12104 0.59118 0.0
O166 O 0.94105 0.05267 0.58905 0.0
O167 O 0.97207 0.08324 0.62837 0.0
O168 O 0.03171 0.05276 0.61638 0.0
O169 O 0.0711 0.04568 0.57736 0.0
O170 O 0.03216 0.05248 0.51841 0.0
O171 O 0.99447 0.02596 0.56067 0.0
C172 C 0.01596 0.12334 0.52382 0.0
O173 O 0.12936 0.1238 0.5403 0.0
O174 O 0.10751 0.07652 0.51191 0.0
C175 C 0.06568 0.13993 0.60108 0.0
C176 C 0.91712 0.03811 0.64243 0.0
C177 C 0.8731 0.99149 0.68932 0.0
C178 C 0.88916 0.02789 0.69579 0.0
C179 C 0.9108 0.05096 0.67252 0.0
C180 C 0.90098 1.0017 0.63576 0.0
C181 C 0.87899 0.97859 0.65903 0.0
C182 C 0.93998 0.06357 0.61854 0.0
C183 C 0.05539 0.03819 0.60588 0.0
H184 H 0.1355 0.14093 0.40873 0.0
H185 H 0.10562 0.1051 0.45583 0.0
H186 H 0.20224 0.15358 0.51195 0.0
H187 H 0.2319 0.18956 0.46514 0.0
H188 H 0.8847 0.03859 0.71879 0.0
H189 H 0.92266 0.07898 0.67805 0.0
H190 H 0.90537 0.99107 0.61271 0.0
H191 H 0.86708 0.95057 0.65357 0.0
Tb192 Tb 0.57558 0.09747 0.09987 0.0
Tb193 Tb 0.49913 0.08103 0.06045 0.0
C194 C 0.5577 0.04564 0.04054 0.0
C195 C 0.6581 0.14234 0.14875 0.0
C196 C 0.70398 0.19566 0.18798 0.0
C197 C 0.71735 0.17126 0.17233 0.0
C198 C 0.69451 0.14473 0.15296 0.0
C199 C 0.64523 0.16799 0.16269 0.0
C200 C 0.66798 0.19435 0.18232 0.0
C201 C 0.63326 0.11133 0.13222 0.0
O202 O 0.5883 0.13326 0.05795 0.0
O203 O 0.53132 0.13626 0.04975 0.0
O204 O 0.49311 0.10304 0.10711 0.0
O205 O 0.55226 0.13726 0.11512 0.0
O206 O 0.47152 0.08653 1.01865 0.0
O207 O 0.44185 0.06263 0.06198 0.0
O208 O 0.49489 0.03077 0.08367 0.0
O209 O 0.53383 0.05392 0.12522 0.0
O210 O 0.57359 0.05361 0.06865 0.0
O211 O 0.53222 0.05829 0.03081 0.0
C212 C 0.56681 0.14921 0.04543 0.0
O213 O 0.60049 0.09836 0.14449 0.0
O214 O 0.63292 0.11276 0.10083 0.0
C215 C 0.51735 0.1306 0.12022 0.0
C216 C 0.41405 0.04252 1.01233 0.0
C217 C 0.36506 0.9928 0.97215 0.0
C218 C 0.35334 1.01646 0.99066 0.0
C219 C 0.37769 0.04116 1.01052 0.0
C220 C 0.42568 1.01817 0.99489 0.0
C221 C 0.40138 0.99356 0.97486 0.0
C222 C 0.43957 0.07031 0.03165 0.0
C223 C 0.50753 0.02755 0.11237 0.0
H224 H 0.74484 0.17139 0.17654 0.0
H225 H 0.70486 0.12517 0.14236 0.0
H226 H 0.61723 0.16677 0.15949 0.0
H227 H 0.65711 0.213 0.19393 0.0
H228 H 0.32544 1.01617 0.98949 0.0
H229 H 0.36828 0.05964 0.02407 0.0
H230 H 0.45368 1.01877 0.99617 0.0
H231 H 0.41141 0.97598 0.96067 0.0
Tb232 Tb 0.52628 0.5571 0.56056 0.0
Tb233 Tb 0.53655 0.63187 0.59694 0.0
C234 C 0.49891 0.61621 0.52952 0.0
C235 C 0.55066 0.48393 0.52483 0.0
C236 C 0.60484 0.45423 0.50922 0.0
C237 C 0.56813 0.43619 0.50167 0.0
C238 C 0.54123 0.45106 0.50931 0.0
C239 C 0.58719 0.50186 0.53259 0.0
C240 C 0.61409 0.48724 0.52472 0.0
C241 C 0.52276 0.50009 0.53222 0.0
O242 O 0.58421 0.58786 0.55608 0.0
O243 O 0.58101 0.64388 0.56175 0.0
O244 O 0.57305 0.60866 0.62148 0.0
O245 O 0.54042 0.55073 0.61063 0.0
O246 O 0.54524 0.68675 0.59504 0.0
O247 O 0.53818 0.65876 0.6406 0.0
O248 O 0.48904 0.592 0.61882 0.0
O249 O 0.47155 0.55219 0.57755 0.0
O250 O 0.51458 0.5921 0.52486 0.0
O251 O 0.49773 0.62931 0.55836 0.0
C252 C 0.59825 0.6225 0.55179 0.0
O253 O 0.5151 0.5017 0.56267 0.0
O254 O 0.52712 0.53013 0.51745 0.0
C255 C 0.56412 0.57454 0.62833 0.0
C256 C 0.50988 0.70174 0.63495 0.0
C257 C 0.45166 0.72391 0.6551 0.0
C258 C 0.48582 0.73716 0.6701 0.0
C259 C 0.51475 0.72615 0.66005 0.0
C260 C 0.4759 0.6886 0.61983 0.0
C261 C 0.4471 0.69973 0.6297 0.0
C262 C 0.53925 0.68808 0.62591 0.0
C263 C 0.46449 0.56507 0.605 0.0
H264 H 0.56032 0.41078 0.48959 0.0
H265 H 0.51314 0.43697 0.50306 0.0
H266 H 0.5949 0.52716 0.54478 0.0
H267 H 0.64204 0.50147 0.53128 0.0
H268 H 0.49016 0.75606 0.68957 0.0
H269 H 0.54072 0.7363 0.67213 0.0
H270 H 0.47146 0.66928 0.60071 0.0
H271 H 0.42098 0.68873 0.618 0.0
Tb272 Tb 0.03889 0.62962 0.04846 0.0
Tb273 Tb 0.02447 0.55459 0.08652 0.0
C274 C 0.0661 0.56921 0.0201 0.0
C275 C 1.01434 0.70283 1.01476 0.0
C276 C 0.95588 0.72741 1.00137 0.0
C277 C 0.9883 0.73944 0.98288 0.0
C278 C 0.01729 0.72718 0.98952 0.0
C279 C 0.98239 0.69138 0.03375 0.0
C280 C 0.95346 0.70364 0.02718 0.0
C281 C 0.04272 0.68654 0.0193 0.0
O282 O 0.98048 0.60096 0.04556 0.0
O283 O 0.98212 0.54443 0.05016 0.0
O284 O 0.98947 0.57991 0.11077 0.0
O285 O 0.02476 0.63706 0.09842 0.0
O286 O 1.01106 0.49904 0.0853 0.0
O287 O 0.02248 0.52702 0.13031 0.0
O288 O 0.07237 0.59313 0.10797 0.0
O289 O 0.09263 0.63337 0.06638 0.0
O290 O 0.05196 0.59425 1.0139 0.0
O291 O 0.06527 0.55639 0.0495 0.0
C292 C 0.96574 0.56667 0.0406 0.0
O293 O 0.05359 0.6854 0.04881 0.0
O294 O 0.03635 0.65612 1.00506 0.0
C295 C 1.00004 0.6142 0.11673 0.0
C296 C 0.04728 0.48102 0.1229 0.0
C297 C 0.10829 0.45972 0.13551 0.0
C298 C 0.0912 0.47212 0.16055 0.0
C299 C 0.06093 0.48252 0.15432 0.0
C300 C 0.06327 0.46699 0.09817 0.0
C301 C 0.09338 0.45642 0.10444 0.0
C302 C 0.01908 0.49731 0.11561 0.0
C303 C 0.09805 0.6198 0.09416 0.0
H304 H 0.99109 0.75806 0.96307 0.0
H305 H 0.04162 0.73603 0.97447 0.0
H306 H 0.97944 0.67217 0.05311 0.0
H307 H 0.92872 0.69355 0.04159 0.0
H308 H 0.10211 0.47523 0.18472 0.0
H309 H 0.04912 0.49314 0.17385 0.0
H310 H 0.05335 0.46519 0.07369 0.0
H311 H 0.10543 0.44629 0.08475 0.0
C312 C 0.33577 0.26371 0.30502 0.0
C313 C 0.32548 0.28119 0.27928 0.0
C314 C 0.31065 0.24612 0.32912 0.0
C315 C 0.2744 0.24638 0.32772 0.0
C316 C 0.2639 0.26448 0.30216 0.0
C317 C 0.28955 0.28156 0.27813 0.0
C318 C 0.32289 0.22705 0.35599 0.0
C319 C 0.22554 0.26551 0.30006 0.0
C320 C 0.20571 0.17224 0.3756 0.0
C321 C 0.20473 0.1891 0.40497 0.0
C322 C 0.22714 0.19099 0.34965 0.0
C323 C 0.2477 0.22748 0.35316 0.0
C324 C 0.24521 0.24506 0.38218 0.0
C325 C 0.22389 0.22558 0.40783 0.0
C326 C 0.2293 0.17129 0.31914 0.0
C327 C 0.26629 0.28406 0.38665 0.0
H328 H 0.36363 0.26384 0.30639 0.0
H329 H 0.28127 0.29467 0.25812 0.0
H330 H 0.31917 0.23835 0.37962 0.0
H331 H 0.3059 0.19848 0.35648 0.0
H332 H 0.35195 0.22905 0.35333 0.0
H333 H 0.22208 0.28175 0.27923 0.0
H334 H 0.20598 0.2381 0.29771 0.0
H335 H 0.21825 0.27665 0.32253 0.0
H336 H 0.19108 0.14399 0.37344 0.0
H337 H 0.22273 0.23872 0.43043 0.0
H338 H 0.25707 0.16956 0.31648 0.0
H339 H 0.22448 0.1859 0.29773 0.0
H340 H 0.20923 0.14388 0.31919 0.0
H341 H 0.2959 0.28809 0.38733 0.0
H342 H 0.25848 0.29452 0.40932 0.0
H343 H 0.26177 0.29991 0.36601 0.0
C344 C 0.28846 0.8917 0.81387 0.0
C345 C 0.25357 0.86601 0.815 0.0
C346 C 0.30319 0.91195 0.84096 0.0
C347 C 0.28238 0.90661 0.86986 0.0
C348 C 0.24657 0.88168 0.87087 0.0
C349 C 0.23253 0.86158 0.84333 0.0
C350 C 0.34142 0.93843 0.83883 0.0
C351 C 0.22355 0.87556 0.90125 0.0
C352 C 0.34046 0.93417 0.94422 0.0
C353 C 0.34025 0.96895 0.94863 0.0
C354 C 0.32013 0.9128 0.91964 0.0
C355 C 0.29898 0.92651 0.89911 0.0
C356 C 0.29711 0.96086 0.90451 0.0
C357 C 0.3179 0.98174 0.92912 0.0
C358 C 0.32277 0.87624 0.91462 0.0
C359 C 0.27476 0.97634 0.88318 0.0
H360 H 0.3045 0.89566 0.79178 0.0
H361 H 0.20559 0.84165 0.84428 0.0
H362 H 0.34135 0.96531 0.84551 0.0
H363 H 0.35921 0.93086 0.85619 0.0
H364 H 0.35356 0.93998 0.81428 0.0
H365 H 0.1954 0.85709 0.8974 0.0
H366 H 0.23633 0.86423 0.92038 0.0
H367 H 0.22208 0.90119 0.91028 0.0
H368 H 0.35715 0.9239 0.95959 0.0
H369 H 0.31786 1.00872 0.93213 0.0
H370 H 0.33729 0.87591 0.89153 0.0
H371 H 0.29516 0.8561 0.91289 0.0
H372 H 0.33763 0.86826 0.93441 0.0
H373 H 0.28766 0.98216 0.85888 0.0
H374 H 0.27246 1.00136 0.89305 0.0
H375 H 0.24694 0.95694 0.88012 0.0
C376 C 0.63626 0.49043 0.78238 0.0
C377 C 0.62398 0.503 0.81024 0.0
C378 C 0.63228 0.50388 0.75143 0.0
C379 C 0.61503 0.53003 0.74817 0.0
C380 C 0.60485 0.54435 0.7764 0.0
C381 C 0.61002 0.53117 0.80687 0.0
C382 C 0.64478 0.4887 0.72213 0.0
C383 C 0.58599 0.57186 0.77448 0.0
C384 C 0.6127 0.5823 0.67057 0.0
C385 C 0.57875 0.56245 0.65779 0.0
C386 C 0.62588 0.5711 0.69893 0.0
C387 C 0.60408 0.53998 0.71566 0.0
C388 C 0.56992 0.51976 0.70261 0.0
C389 C 0.55801 0.5309 0.67373 0.0
C390 C 0.66293 0.59287 0.71125 0.0
C391 C 0.54515 0.48698 0.71984 0.0
H392 H 0.64713 0.46877 0.78454 0.0
H393 H 0.6012 0.54173 0.82823 0.0
H394 H 0.62075 0.47044 0.70968 0.0
H395 H 0.65919 0.51023 0.70478 0.0
H396 H 0.66317 0.47361 0.72864 0.0
H397 H 0.58158 0.58173 0.79863 0.0
H398 H 0.60215 0.59487 0.75939 0.0
H399 H 0.55909 0.56008 0.76284 0.0
H400 H 0.6291 0.60651 0.65827 0.0
H401 H 0.53166 0.51545 0.66421 0.0
H402 H 0.67916 0.57536 0.7168 0.0
H403 H 0.65984 0.60614 0.73398 0.0
H404 H 0.67838 0.61361 0.69357 0.0
H405 H 0.55952 0.4675 0.72359 0.0
H406 H 0.51974 0.47384 0.70631 0.0
H407 H 0.53762 0.49433 0.74402 0.0
C408 C 0.91009 0.72133 0.23027 0.0
C409 C 0.90349 0.71038 0.26278 0.0
C410 C 0.92686 0.70452 0.20857 0.0
C411 C 0.93899 0.67671 0.21959 0.0
C412 C 0.93473 0.667 0.25281 0.0
C413 C 0.91674 0.68366 0.27393 0.0
C414 C 0.93042 0.7158 0.17347 0.0
C415 C 0.94838 0.6384 0.26588 0.0
C416 C 0.94833 0.61228 0.15461 0.0
C417 C 0.98486 0.62788 0.14491 0.0
C418 C 0.93327 0.62723 0.17952 0.0
C419 C 0.95554 0.65785 0.19592 0.0
C420 C 0.99295 0.67246 0.18727 0.0
C421 C 1.00694 0.65774 0.16159 0.0
C422 C 0.89309 0.61124 0.18723 0.0
C423 C 0.0181 0.70428 0.20459 0.0
H424 H 0.90115 0.74267 0.22141 0.0
H425 H 0.91193 0.67485 0.29886 0.0
H426 H 0.95951 0.72524 0.16589 0.0
H427 H 0.91608 0.69268 0.1582 0.0
H428 H 0.91893 0.73736 0.1686 0.0
H429 H 0.94666 0.63659 0.29264 0.0
H430 H 0.93198 0.61226 0.25594 0.0
H431 H 0.97711 0.64361 0.25823 0.0
H432 H 0.93109 0.58931 0.14177 0.0
H433 H 0.03535 0.66968 0.15453 0.0
H434 H 0.87932 0.63081 0.18136 0.0
H435 H 0.88881 0.60506 0.21339 0.0
H436 H 0.87983 0.58652 0.17351 0.0
H437 H 1.01102 0.72829 0.19844 0.0
H438 H 0.04718 0.7095 0.198 0.0
H439 H 1.01479 0.70022 0.2311 0.0
C440 C 0.43018 0.27517 0.17087 0.0
C441 C 0.4254 0.2777 0.20421 0.0
C442 C 0.44902 0.2535 0.15851 0.0
C443 C 0.46323 0.23378 0.18002 0.0
C444 C 0.46007 0.23758 0.21371 0.0
C445 C 0.44127 0.25959 0.2254 0.0
C446 C 0.45205 0.25027 0.1224 0.0
C447 C 0.47494 0.21708 0.2374 0.0
C448 C 0.46769 0.14688 0.14723 0.0
C449 C 0.5046 0.15599 0.13853 0.0
C450 C 0.45418 0.17174 0.16158 0.0
C451 C 0.47813 0.20665 0.16723 0.0
C452 C 0.51567 0.21573 0.15952 0.0
C453 C 0.52852 0.19021 0.14533 0.0
C454 C 0.41402 0.16089 0.16982 0.0
C455 C 0.54197 0.25272 0.16517 0.0
H456 H 0.41776 0.28885 0.15436 0.0
H457 H 0.43822 0.26196 0.25122 0.0
H458 H 0.48065 0.25407 0.11522 0.0
H459 H 0.43516 0.22315 0.11491 0.0
H460 H 0.44281 0.26994 0.10906 0.0
H461 H 0.47341 0.22564 0.26267 0.0
H462 H 0.45915 0.18828 0.23582 0.0
H463 H 0.50374 0.22041 0.23141 0.0
H464 H 0.44908 0.12042 0.14227 0.0
H465 H 0.55707 0.19748 0.13859 0.0
H466 H 0.4012 0.17681 0.15516 0.0
H467 H 0.4102 0.16637 0.19556 0.0
H468 H 0.39944 0.13223 0.16533 0.0
H469 H 0.53502 0.27199 0.14927 0.0
H470 H 0.5707 0.25471 0.16022 0.0
H471 H 0.53968 0.26079 0.19043 0.0
C472 C 0.13139 0.90059 0.69352 0.0
C473 C 0.10395 0.86876 0.70262 0.0
C474 C 0.12278 0.92997 0.68204 0.0
C475 C 0.0858 0.92726 0.67861 0.0
C476 C 0.05795 0.89585 0.68887 0.0
C477 C 0.06736 0.86717 0.70113 0.0
C478 C 0.15333 0.96326 0.67192 0.0
C479 C 0.01817 0.89171 0.68515 0.0
C480 C 0.06272 1.01081 0.65894 0.0
C481 C 0.0623 1.00992 0.62516 0.0
C482 C 0.07031 0.98404 0.67689 0.0
C483 C 0.07648 0.9554 0.66057 0.0
C484 C 0.07492 0.95398 0.62649 0.0
C485 C 0.06833 0.98148 0.60923 0.0
C486 C 0.07264 0.98684 0.71314 0.0
C487 C 0.08041 0.92349 0.60815 0.0
H488 H 0.15974 0.90223 0.69398 0.0
H489 H 0.04591 0.84314 0.7088 0.0
H490 H 0.15446 0.96555 0.64521 0.0
H491 H 0.14841 0.98725 0.68139 0.0
H492 H 0.18027 0.96312 0.68048 0.0
H493 H 0.99991 0.86712 0.69711 0.0
H494 H 1.01239 0.91495 0.69533 0.0
H495 H 1.01146 0.89064 0.65912 0.0
H496 H 0.05807 0.03286 0.67122 0.0
H497 H 0.06738 0.98044 0.5831 0.0
H498 H 0.10059 0.98922 0.72087 0.0
H499 H 0.05371 0.96237 0.72466 0.0
H500 H 0.06603 1.01016 0.72222 0.0
H501 H 0.1085 0.92314 0.61187 0.0
H502 H 0.0761 0.92534 0.58182 0.0
H503 H 0.0613 0.89776 0.61737 0.0
C504 C 0.76102 0.47598 0.98118 0.0
C505 C 0.75759 0.47347 0.94752 0.0
C506 C 0.79453 0.49439 0.99557 0.0
C507 C 0.82574 0.51046 0.97591 0.0
C508 C 0.82209 0.50934 0.94183 0.0
C509 C 0.78797 0.49102 0.92802 0.0
C510 C 0.79682 0.49523 0.03192 0.0
C511 C 0.85461 0.52593 0.91995 0.0
C512 C 0.90983 0.57503 1.01623 0.0
C513 C 0.9301 0.55271 0.02369 0.0
C514 C 0.87618 0.56194 1.00022 0.0
C515 C 0.86246 0.52568 0.99116 0.0
C516 C 0.8831 0.50322 0.9982 0.0
C517 C 0.91643 0.51691 1.01442 0.0
C518 C 0.85502 0.58677 0.9935 0.0
C519 C 0.86975 0.46447 0.98887 0.0
H520 H 0.7375 0.46263 0.99633 0.0
H521 H 0.78547 0.48896 0.90203 0.0
H522 H 0.81375 0.47932 0.04012 0.0
H523 H 0.81019 0.5229 0.04022 0.0
H524 H 0.76954 0.48435 0.04372 0.0
H525 H 0.84676 0.5257 0.89422 0.0
H526 H 0.86917 0.55381 0.92706 0.0
H527 H 0.87406 0.51109 0.92236 0.0
H528 H 0.92007 0.60275 0.02316 0.0
H529 H 0.93187 0.49942 0.01976 0.0
H530 H 0.82867 0.5775 1.00689 0.0
H531 H 0.84864 0.58657 0.96745 0.0
H532 H 0.87015 0.61458 1.00064 0.0
H533 H 0.84377 0.45034 1.00174 0.0
H534 H 0.88974 0.45094 0.99465 0.0
H535 H 0.86415 0.46199 0.96263 0.0
C536 C 0.7632 0.70452 0.42674 0.0
C537 C 0.79755 0.718 0.44123 0.0
C538 C 0.73157 0.68715 0.44508 0.0
C539 C 0.73409 0.68307 0.47888 0.0
C540 C 0.76876 0.69574 0.49356 0.0
C541 C 0.79999 0.71304 0.47462 0.0
C542 C 0.69522 0.6742 0.42838 0.0
C543 C 0.77277 0.69183 0.52945 0.0
C544 C 0.64894 0.67481 0.52905 0.0
C545 C 0.63404 0.63794 0.53461 0.0
C546 C 0.68165 0.68976 0.51144 0.0
C547 C 0.70019 0.66743 0.49897 0.0
C548 C 0.6857 0.63026 0.50496 0.0
C549 C 0.65286 0.61598 0.52265 0.0
C550 C 0.69602 0.72951 0.50568 0.0
C551 C 0.70456 0.60546 0.49222 0.0
H552 H 0.76077 0.70868 0.40111 0.0
H553 H 0.82638 0.72301 0.48605 0.0
H554 H 0.68094 0.64569 0.4342 0.0
H555 H 0.67766 0.68923 0.4372 0.0
H556 H 0.69806 0.67745 0.40174 0.0
H557 H 0.80177 0.70115 0.53692 0.0
H558 H 0.75831 0.7074 0.54259 0.0
H559 H 0.76004 0.66358 0.53698 0.0
H560 H 0.63479 0.69214 0.5381 0.0
H561 H 0.64173 0.58749 0.52672 0.0
H562 H 0.69697 0.73533 0.47941 0.0
H563 H 0.72429 0.74076 0.5147 0.0
H564 H 0.67897 0.74333 0.5177 0.0
H565 H 0.70563 0.60676 0.46547 0.0
H566 H 0.69052 0.57739 0.49987 0.0
H567 H 0.73311 0.61388 0.50075 0.0
C568 C 0.28399 0.39921 0.15688 0.0
C569 C 0.3118 0.42557 0.17269 0.0
C570 C 0.25052 0.40384 0.15034 0.0
C571 C 0.24468 0.43552 0.16001 0.0
C572 C 0.27268 0.46228 0.1759 0.0
C573 C 0.30598 0.45702 0.18196 0.0
C574 C 0.22146 0.3749 0.13303 0.0
C575 C 0.26736 0.49632 0.18675 0.0
C576 C 0.17145 0.46322 0.1188 0.0
C577 C 0.14267 0.45215 0.14137 0.0
C578 C 0.20463 0.4576 0.12439 0.0
C579 C 0.2093 0.44076 0.15339 0.0
C580 C 0.18034 0.4293 0.1762 0.0
C581 C 0.14733 0.43505 0.16988 0.0
C582 C 0.23485 0.47012 0.09945 0.0
C583 C 0.18436 0.41125 0.20741 0.0
H584 H 0.28857 0.37504 0.14933 0.0
H585 H 0.32727 0.47727 0.1945 0.0
H586 H 0.19641 0.36521 0.14822 0.0
H587 H 0.21408 0.38569 0.11036 0.0
H588 H 0.23038 0.35192 0.12704 0.0
H589 H 0.29185 0.51447 0.19881 0.0
H590 H 0.26097 0.51052 0.16573 0.0
H591 H 0.24384 0.49013 0.20375 0.0
H592 H 0.16835 0.47703 0.09697 0.0
H593 H 0.1251 0.42607 0.18726 0.0
H594 H 0.24373 0.4476 0.09192 0.0
H595 H 0.25884 0.49054 0.11002 0.0
H596 H 0.22641 0.48169 0.07769 0.0
H597 H 0.1911 0.38687 0.20228 0.0
H598 H 0.15919 0.40381 0.22256 0.0
H599 H 0.20721 0.42917 0.22147 0.0
C600 C 0.64382 0.32412 0.93087 0.0
C601 C 0.66038 0.35426 0.94966 0.0
C602 C 0.62904 0.29002 0.94515 0.0
C603 C 0.63027 0.28593 0.9791 0.0
C604 C 0.64678 0.31633 0.99816 0.0
C605 C 0.66172 0.34995 0.98324 0.0
C606 C 0.61211 0.25833 0.92388 0.0
C607 C 0.64823 0.31343 0.03443 0.0
C608 C 0.56164 0.2051 0.02067 0.0
C609 C 0.58294 0.1836 0.02751 0.0
C610 C 0.57657 0.23817 1.00473 0.0
C611 C 0.6137 0.25009 0.99491 0.0
C612 C 0.63522 0.22827 1.00124 0.0
C613 C 0.61969 0.19548 1.01762 0.0
C614 C 0.55272 0.2607 0.99896 0.0
C615 C 0.67479 0.23971 0.99094 0.0
H616 H 0.64282 0.32718 0.90493 0.0
H617 H 0.67389 0.37314 0.99803 0.0
H618 H 0.62569 0.23819 0.92773 0.0
H619 H 0.58291 0.24556 0.93044 0.0
H620 H 0.61416 0.26575 0.89787 0.0
H621 H 0.66212 0.33955 0.04581 0.0
H622 H 0.62017 0.30237 0.04457 0.0
H623 H 0.66282 0.29484 0.0412 0.0
H624 H 0.53328 0.1964 0.02831 0.0
H625 H 0.6364 0.17911 0.02263 0.0
H626 H 0.55223 0.26676 0.97285 0.0
H627 H 0.56413 0.28646 1.01154 0.0
H628 H 0.52425 0.24744 1.0076 0.0
H629 H 0.67738 0.24565 0.96466 0.0
H630 H 0.6874 0.21908 0.99631 0.0
H631 H 0.69041 0.26453 1.00351 0.0
C632 C 0.88585 0.85407 0.43387 0.0
C633 C 0.90385 0.82978 0.42676 0.0
C634 C 0.9041 0.88676 0.44866 0.0
C635 C 0.9412 0.89525 0.45726 0.0
C636 C 0.95975 0.87107 0.44945 0.0
C637 C 0.94092 0.83874 0.43405 0.0
C638 C 0.88328 0.91179 0.45593 0.0
C639 C 0.99907 0.8787 0.45856 0.0
C640 C 0.99453 0.99206 0.4782 0.0
C641 C 0.99069 0.99177 0.51193 0.0
C642 C 0.97899 0.96088 0.46009 0.0
C643 C 0.95967 0.92837 0.47607 0.0
C644 C 0.95652 0.92781 0.51018 0.0
C645 C 0.97172 0.95944 0.52759 0.0
C646 C 0.98256 0.96291 0.42379 0.0
C647 C 0.93674 0.89378 0.52837 0.0
H648 H 0.85716 0.84715 0.42824 0.0
H649 H 0.95476 0.81984 0.42884 0.0
H650 H 0.88061 0.91405 0.48242 0.0
H651 H 0.89836 0.93881 0.44633 0.0
H652 H 0.85554 0.90263 0.44544 0.0
H653 H 1.01022 0.85831 0.44923 0.0
H654 H 0.0161 0.90518 0.44912 0.0
H655 H 1.00146 0.87945 0.48522 0.0
H656 H 1.00907 1.01685 0.46583 0.0
H657 H 0.96891 0.95873 0.55365 0.0
H658 H 0.95511 0.95581 0.41293 0.0
H659 H 0.99512 0.94339 0.41503 0.0
H660 H 0.99931 0.98986 0.41503 0.0
H661 H 0.90756 0.88414 0.52162 0.0
H662 H 0.93849 0.8973 0.55494 0.0
H663 H 0.94828 0.87275 0.52175 0.0
C664 C 0.27038 0.75811 0.71838 0.0
C665 C 0.27931 0.79403 0.72653 0.0
C666 C 0.29676 0.7452 0.70493 0.0
C667 C 0.33265 0.76893 0.69935 0.0
C668 C 0.34129 0.80548 0.70636 0.0
C669 C 0.31453 0.81756 0.71991 0.0
C670 C 0.28664 0.70604 0.6978 0.0
C671 C 0.37912 0.8317 0.70046 0.0
C672 C 0.41298 0.7352 0.69936 0.0
C673 C 0.42062 0.73468 0.66631 0.0
C674 C 0.38377 0.74539 0.71038 0.0
C675 C 0.36184 0.75549 0.68778 0.0
C676 C 0.36913 0.75461 0.65435 0.0
C677 C 0.39841 0.74411 0.644 0.0
C678 C 0.37671 0.74581 0.74624 0.0
C679 C 0.34652 0.76551 0.62958 0.0
H680 H 0.24317 0.73991 0.7236 0.0
H681 H 0.32127 0.84547 0.72577 0.0
H682 H 0.29412 0.70219 0.67255 0.0
H683 H 0.30215 0.69391 0.71375 0.0
H684 H 0.25705 0.69159 0.70151 0.0
H685 H 0.38076 0.85953 0.70549 0.0
H686 H 0.39888 0.82484 0.7161 0.0
H687 H 0.38772 0.83022 0.67508 0.0
H688 H 0.42974 0.72737 0.71664 0.0
H689 H 0.40441 0.74396 0.61842 0.0
H690 H 0.34811 0.72939 0.75201 0.0
H691 H 0.38042 0.77338 0.75395 0.0
H692 H 0.39522 0.7356 0.76053 0.0
H693 H 0.31722 0.74994 0.63315 0.0
H694 H 0.3546 0.76162 0.60448 0.0
H695 H 0.34955 0.79398 0.63263 0.0
C696 C 0.74727 0.89042 0.83705 0.0
C697 C 0.75342 0.85848 0.8442 0.0
C698 C 0.76327 0.91073 0.80965 0.0
C699 C 0.78604 0.89881 0.78914 0.0
C700 C 0.79069 0.86565 0.7953 0.0
C701 C 0.77417 0.84581 0.82267 0.0
C702 C 0.75741 0.94582 0.80364 0.0
C703 C 0.81473 0.85201 0.77401 0.0
C704 C 0.81636 0.94288 0.70728 0.0
C705 C 0.85076 0.9672 0.7145 0.0
C706 C 0.79465 0.92062 0.7314 0.0
C707 C 0.80796 0.92255 0.76326 0.0
C708 C 0.84285 0.94683 0.77053 0.0
C709 C 0.86374 0.96893 0.74608 0.0
C710 C 0.75747 0.89523 0.72288 0.0
C711 C 0.85823 0.94933 0.80412 0.0
H712 H 0.73136 0.90039 0.85365 0.0
H713 H 0.77834 0.82073 0.82775 0.0
H714 H 0.78311 0.96797 0.80816 0.0
H715 H 0.75005 0.94805 0.7781 0.0
H716 H 0.73566 0.94924 0.81947 0.0
H717 H 0.81287 0.82435 0.78045 0.0
H718 H 0.80726 0.85279 0.74833 0.0
H719 H 0.84354 0.86945 0.77634 0.0
H720 H 0.80618 0.94177 0.68291 0.0
H721 H 0.89053 0.98743 0.75159 0.0
H722 H 0.73625 0.90081 0.73782 0.0
H723 H 0.75592 0.86747 0.7283 0.0
H724 H 0.75104 0.89719 0.69701 0.0
H725 H 0.83986 0.95618 0.82154 0.0
H726 H 0.88581 0.96964 0.80573 0.0
H727 H 0.85995 0.92318 0.81169 0.0
C728 C 0.82995 0.24811 0.33509 0.0
C729 C 0.83687 0.28147 0.34928 0.0
C730 C 0.80919 0.23903 0.30708 0.0
C731 C 0.79528 0.26411 0.29267 0.0
C732 C 0.80309 0.29828 0.30631 0.0
C733 C 0.82353 0.30646 0.33475 0.0
C734 C 0.80105 0.20209 0.2936 0.0
C735 C 0.78921 0.32584 0.29127 0.0
C736 C 0.76327 0.23796 0.20762 0.0
C737 C 0.72617 0.21922 0.21306 0.0
C738 C 0.78577 0.25532 0.23297 0.0
C739 C 0.77085 0.25327 0.26448 0.0
C740 C 0.73296 0.23627 0.26964 0.0
C741 C 0.71104 0.2196 0.2438 0.0
C742 C 0.8259 0.27384 0.22641 0.0
C743 C 0.71601 0.23314 0.30293 0.0
H744 H 0.83971 0.22853 0.34661 0.0
H745 H 0.82897 0.3323 0.34573 0.0
H746 H 0.7712 0.18784 0.29424 0.0
H747 H 0.81012 0.20371 0.26803 0.0
H748 H 0.81464 0.18608 0.30731 0.0
H749 H 0.8004 0.35211 0.30312 0.0
H750 H 0.79649 0.32914 0.26523 0.0
H751 H 0.75903 0.31685 0.29315 0.0
H752 H 0.77492 0.238 0.18376 0.0
H753 H 0.68244 0.20484 0.24817 0.0
H754 H 0.8416 0.25747 0.23624 0.0
H755 H 0.83555 0.29997 0.23861 0.0
H756 H 0.83206 0.27808 0.20017 0.0
H757 H 0.72546 0.21483 0.31796 0.0
H758 H 0.68574 0.22272 0.30227 0.0
H759 H 0.72468 0.25935 0.31497 0.0
C760 C 0.40505 0.67112 0.37276 0.0
C761 C 0.43297 0.69135 0.35194 0.0
C762 C 0.41286 0.66149 0.40403 0.0
C763 C 0.44949 0.67241 0.41477 0.0
C764 C 0.47736 0.69492 0.3945 0.0
C765 C 0.46882 0.70381 0.36334 0.0
C766 C 0.38223 0.63746 0.4246 0.0
C767 C 0.5167 0.7076 0.40482 0.0
C768 C 0.47353 0.66027 0.50282 0.0
C769 C 0.48359 0.62956 0.50105 0.0
C770 C 0.46161 0.67419 0.47524 0.0
C771 C 0.45941 0.65693 0.44512 0.0
C772 C 0.46851 0.62537 0.44349 0.0
C773 C 0.48053 0.61224 0.47127 0.0
C774 C 0.45236 0.70792 0.47815 0.0
C775 C 0.46635 0.60576 0.41212 0.0
H776 H 0.37742 0.66083 0.36382 0.0
H777 H 0.49054 0.71902 0.34714 0.0
H778 H 0.38441 0.6104 0.42545 0.0
H779 H 0.38416 0.64723 0.44973 0.0
H780 H 0.35504 0.6354 0.41498 0.0
H781 H 0.53434 0.72838 0.38823 0.0
H782 H 0.51918 0.7185 0.42957 0.0
H783 H 0.52704 0.6848 0.40527 0.0
H784 H 0.4758 0.674 0.52559 0.0
H785 H 0.48794 0.5884 0.46948 0.0
H786 H 0.42487 0.70395 0.4683 0.0
H787 H 0.47209 0.72943 0.46367 0.0
H788 H 0.45303 0.71684 0.50354 0.0
H789 H 0.43868 0.59929 0.40182 0.0
H790 H 0.47257 0.58067 0.41515 0.0
H791 H 0.48593 0.62299 0.39432 0.0
C792 C 0.17179 0.49563 0.88275 0.0
C793 C 0.14717 0.46611 0.86757 0.0
C794 C 0.15971 0.51553 0.90554 0.0
C795 C 0.12209 0.50544 0.91374 0.0
C796 C 0.097 0.47664 0.89724 0.0
C797 C 0.10985 0.4573 0.87452 0.0
C798 C 0.1875 0.54606 0.92224 0.0
C799 C 0.05673 0.46478 0.90501 0.0
C800 C 0.09428 0.52511 0.99855 0.0
C801 C 0.08219 0.55418 0.9931 0.0
C802 C 0.10765 0.50942 0.97311 0.0
C803 C 0.10926 0.52304 0.94119 0.0
C804 C 0.09771 0.55276 0.9356 0.0
C805 C 0.08429 0.56785 0.96149 0.0
C806 C 0.11953 0.47778 0.98039 0.0
C807 C 0.09906 0.56834 0.90214 0.0
H808 H 0.20074 0.50192 0.87811 0.0
H809 H 0.09085 0.43393 0.8635 0.0
H810 H 0.17885 0.56993 0.92204 0.0
H811 H 0.1896 0.53876 0.94784 0.0
H812 H 0.21493 0.55309 0.91075 0.0
H813 H 0.04047 0.44417 0.88812 0.0
H814 H 0.05186 0.45366 0.9299 0.0
H815 H 0.04672 0.48777 0.9041 0.0
H816 H 0.0928 0.51413 0.02272 0.0
H817 H 0.07511 0.59027 0.95681 0.0
H818 H 0.14821 0.48339 0.97242 0.0
H819 H 0.10252 0.45435 0.96676 0.0
H820 H 0.11729 0.47077 1.0065 0.0
H821 H 0.12711 0.57569 0.89199 0.0
H822 H 0.09049 0.59229 0.90188 0.0
H823 H 0.08093 0.54816 0.88597 0.0
C824 C 0.57988 0.86612 0.98551 0.0
C825 C 0.60013 0.86701 0.95714 0.0
C826 C 0.57171 0.89612 0.9957 0.0
C827 C 0.58442 0.92803 0.97731 0.0
C828 C 0.60403 0.92893 0.94821 0.0
C829 C 0.61154 0.89838 0.93842 0.0
C830 C 0.55061 0.89401 0.02685 0.0
C831 C 0.61809 0.96249 0.92799 0.0
C832 C 0.54177 0.99838 0.99824 0.0
C833 C 0.56653 1.01866 0.02088 0.0
C834 C 0.54783 0.96949 0.98283 0.0
C835 C 0.57953 0.961 0.99004 0.0
C836 C 0.60549 0.98258 1.01158 0.0
C837 C 0.5986 1.011 0.02682 0.0
C838 C 0.51945 0.94702 0.96011 0.0
C839 C 0.63985 0.97472 0.01966 0.0
H840 H 0.57137 0.84227 1.00043 0.0
H841 H 0.62667 0.89918 0.91619 0.0
H842 H 0.5684 0.91165 0.045 0.0
H843 H 0.52714 0.90344 0.02295 0.0
H844 H 0.54023 0.86653 0.03698 0.0
H845 H 0.63057 0.95813 0.90489 0.0
H846 H 0.59564 0.97294 0.92259 0.0
H847 H 0.6389 0.98329 0.94167 0.0
H848 H 0.51686 1.00403 0.99362 0.0
H849 H 0.61804 0.02677 0.04404 0.0
H850 H 0.50602 0.92031 0.97108 0.0
H851 H 0.53239 0.94312 0.93715 0.0
H852 H 0.49816 0.95909 0.95465 0.0
H853 H 0.63269 0.94897 0.03291 0.0
H854 H 0.65863 0.99572 0.03477 0.0
H855 H 0.65452 0.97215 0.99724 0.0
C856 C 0.92734 0.23091 0.40802 0.0
C857 C 0.93097 0.26395 0.42187 0.0
C858 C 0.94716 0.20985 0.41967 0.0
C859 C 0.97066 0.22186 0.44614 0.0
C860 C 0.9772 0.25661 0.45804 0.0
C861 C 0.95749 0.2774 0.44553 0.0
C862 C 0.94003 0.17325 0.40581 0.0
C863 C 1.00212 0.27049 0.4862 0.0
C864 C 0.97015 0.15138 0.50793 0.0
C865 C 1.00424 0.14746 0.5027 0.0
C866 C 0.95914 0.17555 0.48963 0.0
C867 C 0.98253 0.19598 0.46508 0.0
C868 C 0.01669 0.19167 0.45913 0.0
C869 C 0.02731 0.16763 0.47826 0.0
C870 C 0.92257 0.17955 0.49695 0.0
C871 C 0.04198 0.21254 0.43277 0.0
H872 H 0.90688 0.22006 0.38982 0.0
H873 H 0.96111 0.30328 0.45579 0.0
H874 H 0.96566 0.16695 0.40372 0.0
H875 H 0.92128 0.15309 0.42217 0.0
H876 H 0.92728 0.17078 0.38167 0.0
H877 H 1.00899 0.29968 0.489 0.0
H878 H 0.98842 0.25719 0.50871 0.0
H879 H 0.02776 0.26435 0.4834 0.0
H880 H 0.95229 0.13612 0.52692 0.0
H881 H 0.05365 0.16458 0.47401 0.0
H882 H 0.90511 0.17307 0.47529 0.0
H883 H 0.9263 0.20753 0.50331 0.0
H884 H 0.90791 0.16201 0.51717 0.0
H885 H 0.0276 0.20837 0.40936 0.0
H886 H 0.06681 0.20485 0.43024 0.0
H887 H 0.05044 0.2414 0.43795 0.0
C888 C 0.29161 0.68515 0.18536 0.0
C889 C 0.29681 0.71756 0.20104 0.0
C890 C 0.25996 0.66866 0.16738 0.0
C891 C 0.2325 0.68467 0.16526 0.0
C892 C 0.23734 0.71708 0.18151 0.0
C893 C 0.26944 0.73319 0.19897 0.0
C894 C 0.25614 0.63433 0.15025 0.0
C895 C 0.20858 0.73479 0.18044 0.0
C896 C 0.1635 0.66071 0.09664 0.0
C897 C 0.13305 0.63582 0.11166 0.0
C898 C 0.1962 0.67635 0.11357 0.0
C899 C 0.19846 0.66734 0.14648 0.0
C900 C 0.16784 0.64216 0.1617 0.0
C901 C 0.13576 0.62661 0.14413 0.0
C902 C 0.22832 0.70269 0.09627 0.0
C903 C 0.16874 0.63202 0.19678 0.0
H904 H 0.31283 0.67315 0.1864 0.0
H905 H 0.27313 0.7581 0.21116 0.0
H906 H 0.23117 0.61304 0.15883 0.0
H907 H 0.25312 0.6378 0.12396 0.0
H908 H 0.27995 0.62535 0.15412 0.0
H909 H 0.2162 0.75963 0.19473 0.0
H910 H 0.20405 0.74134 0.15512 0.0
H911 H 0.18229 0.71628 0.18994 0.0
H912 H 0.16185 0.66796 0.07159 0.0
H913 H 0.11246 0.60758 0.15616 0.0
H914 H 0.25248 0.6939 0.09793 0.0
H915 H 0.23549 0.72902 0.10801 0.0
H916 H 0.22272 0.70594 0.07041 0.0
H917 H 0.19122 0.62121 0.20079 0.0
H918 H 0.14275 0.61186 0.20504 0.0
H919 H 0.17419 0.65598 0.21201 0.0
C920 C 0.29416 0.43968 0.70619 0.0
C921 C 0.26464 0.45225 0.70885 0.0
C922 C 0.32638 0.45945 0.68974 0.0
C923 C 0.32902 0.49241 0.67495 0.0
C924 C 0.29933 0.50543 0.67792 0.0
C925 C 0.26754 0.48527 0.69503 0.0
C926 C 0.35744 0.44475 0.68778 0.0
C927 C 0.30077 0.54018 0.66227 0.0
C928 C 0.42466 0.55563 0.65459 0.0
C929 C 0.42893 0.54781 0.62208 0.0
C930 C 0.39218 0.53834 0.67185 0.0
C931 C 0.36278 0.51286 0.65624 0.0
C932 C 0.36649 0.50557 0.62318 0.0
C933 C 0.39955 0.52287 0.60659 0.0
C934 C 0.38976 0.54661 0.70712 0.0
C935 C 0.33569 0.47901 0.60543 0.0
H936 H 0.29177 0.41401 0.71674 0.0
H937 H 0.24451 0.49474 0.69673 0.0
H938 H 0.36273 0.43968 0.66225 0.0
H939 H 0.38275 0.46447 0.69708 0.0
H940 H 0.35169 0.41953 0.70174 0.0
H941 H 0.27583 0.54702 0.66736 0.0
H942 H 0.3248 0.56209 0.6709 0.0
H943 H 0.30397 0.53858 0.63576 0.0
H944 H 0.44712 0.57472 0.66694 0.0
H945 H 0.40239 0.51675 0.58149 0.0
H946 H 0.38627 0.52235 0.7219 0.0
H947 H 0.36557 0.5548 0.71169 0.0
H948 H 0.41443 0.56807 0.71543 0.0
H949 H 0.33016 0.45206 0.61604 0.0
H950 H 0.34188 0.47805 0.57931 0.0
H951 H 0.31036 0.48577 0.60813 0.0
C952 C 0.8149 0.82085 0.94619 0.0
C953 C 0.77971 0.79699 0.941 0.0
C954 C 0.84211 0.80925 0.95928 0.0
C955 C 0.83396 0.77283 0.96728 0.0
C956 C 0.79793 0.74893 0.96373 0.0
C957 C 0.7711 0.76136 0.95068 0.0
C958 C 0.88007 0.83566 0.96297 0.0
C959 C 0.78821 0.70991 0.97203 0.0
C960 C 0.9139 0.73885 0.96066 0.0
C961 C 0.92416 0.73847 0.99296 0.0
C962 C 0.88405 0.74917 0.95214 0.0
C963 C 0.86397 0.75945 0.97651 0.0
C964 C 0.87382 0.75866 1.00923 0.0
C965 C 0.90381 0.74811 1.01708 0.0
C966 C 0.87431 0.74951 0.91696 0.0
C967 C 0.85316 0.7696 0.03583 0.0
H968 H 0.82141 0.84853 0.93908 0.0
H969 H 0.74392 0.74288 0.94655 0.0
H970 H 0.89031 0.83384 0.98759 0.0
H971 H 0.89891 0.82935 0.94568 0.0
H972 H 0.88108 0.86349 0.95843 0.0
H973 H 0.75835 0.69567 0.97117 0.0
H974 H 0.8019 0.69727 0.9547 0.0
H975 H 0.79805 0.70645 0.99646 0.0
H976 H 0.92908 0.73075 0.94199 0.0
H977 H 0.91175 0.74804 0.04208 0.0
H978 H 0.87722 0.77703 0.90919 0.0
H979 H 0.84542 0.7329 0.91339 0.0
H980 H 0.89181 0.73945 0.90111 0.0
H981 H 0.85605 0.79809 0.03279 0.0
H982 H 0.86304 0.76565 0.06017 0.0
H983 H 0.82366 0.75411 0.03448 0.0
C984 C 0.4418 0.83531 0.20105 0.0
C985 C 0.406 0.8269 0.21297 0.0
C986 C 0.46005 0.86855 0.1863 0.0
C987 C 0.44227 0.89425 0.18365 0.0
C988 C 0.40672 0.88643 0.1969 0.0
C989 C 0.389 0.85288 0.21119 0.0
C990 C 0.49777 0.87555 0.1723 0.0
C991 C 0.38688 0.9131 0.19506 0.0
C992 C 0.49823 0.99111 0.16373 0.0
C993 C 0.49147 0.99341 0.13068 0.0
C994 C 0.48254 0.9591 0.18127 0.0
C995 C 0.45987 0.92841 0.16538 0.0
C996 C 0.45341 0.93047 0.13194 0.0
C997 C 0.46905 0.96287 0.1151 0.0
C998 C 0.48989 0.95824 0.2169 0.0
C999 C 0.42981 0.89839 0.11388 0.0
H1000 H 0.45498 0.81527 0.20191 0.0
H1001 H 0.36143 0.84667 0.22052 0.0
H1002 H 0.49697 0.87815 0.14567 0.0
H1003 H 0.51678 0.90101 0.18143 0.0
H1004 H 0.50881 0.85391 0.17819 0.0
H1005 H 0.36058 0.90407 0.20862 0.0
H1006 H 0.40412 0.93905 0.20481 0.0
H1007 H 0.38129 0.91764 0.16949 0.0
H1008 H 0.51541 1.01449 0.17607 0.0
H1009 H 0.46382 0.96416 0.08956 0.0
H1010 H 0.50226 0.93746 0.22223 0.0
H1011 H 0.46384 0.95112 0.23071 0.0
H1012 H 0.5084 0.98419 0.22566 0.0
H1013 H 0.44066 0.87608 0.11662 0.0
H1014 H 0.4283 0.90404 0.08774 0.0
H1015 H 0.40177 0.88933 0.12419 0.0
C1016 C 0.14902 0.30526 0.72148 0.0
C1017 C 0.16067 0.33778 0.7044 0.0
C1018 C 0.13338 0.27265 0.70553 0.0
C1019 C 0.1293 0.27228 0.67156 0.0
C1020 C 0.14063 0.30499 0.65422 0.0
C1021 C 0.156 0.33719 0.67078 0.0
C1022 C 0.12156 0.2385 0.72502 0.0
C1023 C 0.13674 0.30599 0.61804 0.0
C1024 C 0.11983 0.1869 0.62528 0.0
C1025 C 0.08215 0.17327 0.61979 0.0
C1026 C 0.13549 0.21889 0.64221 0.0
C1027 C 0.11301 0.23778 0.65413 0.0
C1028 C 0.07494 0.22396 0.64892 0.0
C1029 C 0.06005 0.19205 0.63184 0.0
C1030 C 0.17621 0.23268 0.64705 0.0
C1031 C 0.04987 0.24302 0.66123 0.0
H1032 H 0.15294 0.30515 0.74732 0.0
H1033 H 0.16438 0.36206 0.65731 0.0
H1034 H 0.09226 0.22375 0.72098 0.0
H1035 H 0.13706 0.22114 0.717 0.0
H1036 H 0.12584 0.24326 0.75129 0.0
H1037 H 0.14696 0.33353 0.60805 0.0
H1038 H 0.15201 0.29021 0.60639 0.0
H1039 H 0.10768 0.29369 0.61144 0.0
H1040 H 0.13723 0.17276 0.61606 0.0
H1041 H 0.0309 0.18188 0.62787 0.0
H1042 H 0.18232 0.23588 0.67317 0.0
H1043 H 0.18807 0.25932 0.63553 0.0
H1044 H 0.1899 0.2147 0.63676 0.0
H1045 H 0.05271 0.2465 0.68772 0.0
H1046 H 0.02081 0.22847 0.6558 0.0
H1047 H 0.05758 0.26998 0.65016 0.0
C1048 C 0.74954 0.35732 0.46356 0.0
C1049 C 0.77136 0.35864 0.49063 0.0
C1050 C 0.72391 0.37514 0.46323 0.0
C1051 C 0.71987 0.39443 0.49071 0.0
C1052 C 0.74305 0.39729 0.51743 0.0
C1053 C 0.76864 0.37952 0.51699 0.0
C1054 C 0.69997 0.37187 0.43413 0.0
C1055 C 0.73965 0.41771 0.54716 0.0
C1056 C 0.66696 0.45904 0.48844 0.0
C1057 C 0.63339 0.43828 0.50204 0.0
C1058 C 0.69507 0.44482 0.48355 0.0
C1059 C 0.68951 0.40914 0.49279 0.0
C1060 C 0.65537 0.38782 0.5058 0.0
C1061 C 0.62766 0.40263 0.51015 0.0
C1062 C 0.73093 0.46818 0.46921 0.0
C1063 C 0.64849 0.34971 0.51619 0.0
H1064 H 0.75129 0.34105 0.44319 0.0
H1065 H 0.78594 0.38121 0.5377 0.0
H1066 H 0.67162 0.35515 0.44042 0.0
H1067 H 0.69926 0.39839 0.42657 0.0
H1068 H 0.70942 0.35962 0.41337 0.0
H1069 H 0.76131 0.41931 0.56497 0.0
H1070 H 0.74102 0.44512 0.54046 0.0
H1071 H 0.71273 0.40455 0.55894 0.0
H1072 H 0.67128 0.48652 0.4818 0.0
H1073 H 0.60188 0.38664 0.52096 0.0
H1074 H 0.73865 0.45486 0.44831 0.0
H1075 H 0.75277 0.47258 0.48734 0.0
H1076 H 0.72995 0.49449 0.46115 0.0
H1077 H 0.65423 0.33433 0.49588 0.0
H1078 H 0.61998 0.33634 0.52466 0.0
H1079 H 0.66719 0.34892 0.53603 0.0
loop_
_geom_bond_atom_site_label_1
_geom_bond_atom_site_label_2
_geom_bond_distance
_geom_bond_site_symmetry_2
_ccdc_geom_bond_type
H0 C1 0.949 . S
C1 H0 0.949 . S
C1 C2 1.395 . S
C1 C3 1.391 . S
C2 C1 1.395 . S
C2 C5 1.390 . S
C3 C1 1.391 . S
C3 C7 1.387 . S
C3 C8 1.491 . S
H4 C5 0.950 . S
C5 C2 1.390 . S
C5 H4 0.950 . S
C5 C6 1.378 . S
C6 C5 1.378 . S
C6 C7 1.409 . S
C7 C3 1.387 . S
C7 C6 1.409 . S
C7 H9 0.951 . S
C8 C3 1.491 . S
C8 C10 1.382 . S
C8 C12 1.404 . S
H9 C7 0.951 . S
C10 C8 1.382 . S
C10 C11 1.390 . S
C10 H15 0.949 . S
C11 C10 1.390 . S
C11 C16 1.399 . S
C12 C8 1.404 . S
C12 H13 0.950 . S
C12 C14 1.375 . S
H13 C12 0.950 . S
C14 C12 1.375 . S
C14 C16 1.382 . S
C14 H18 0.950 . S
H15 C10 0.949 . S
C16 C11 1.399 . S
C16 C14 1.382 . S
C16 H17 0.952 . S
H17 C16 0.952 . S
H18 C14 0.950 . S
H19 C20 0.949 . S
C20 H19 0.949 . S
C20 C21 1.395 . S
C20 C22 1.391 . S
C21 C20 1.395 . S
C21 C24 1.390 . S
C22 C20 1.391 . S
C22 C26 1.387 . S
C22 C27 1.491 . S
H23 C24 0.950 . S
C24 C21 1.390 . S
C24 H23 0.950 . S
C24 C25 1.378 . S
C25 C24 1.378 . S
C25 C26 1.409 . S
C26 C22 1.387 . S
C26 C25 1.409 . S
C26 H28 0.951 . S
C27 C22 1.491 . S
C27 C29 1.382 . S
C27 C31 1.404 . S
H28 C26 0.951 . S
C29 C27 1.382 . S
C29 C30 1.390 . S
C29 H34 0.949 . S
C30 C29 1.390 . S
C30 C35 1.399 . S
C31 C27 1.404 . S
C31 H32 0.950 . S
C31 C33 1.375 . S
H32 C31 0.950 . S
C33 C31 1.375 . S
C33 C35 1.382 . S
C33 H37 0.950 . S
H34 C29 0.949 . S
C35 C30 1.399 . S
C35 C33 1.382 . S
C35 H36 0.952 . S
H36 C35 0.952 . S
H37 C33 0.950 . S
H38 C39 0.949 . S
C39 H38 0.949 . S
C39 C40 1.395 . S
C39 C41 1.391 . S
C40 C39 1.395 . S
C40 C43 1.390 . S
C41 C39 1.391 . S
C41 C45 1.387 . S
C41 C46 1.491 . S
H42 C43 0.950 . S
C43 C40 1.390 . S
C43 H42 0.950 . S
C43 C44 1.378 . S
C44 C43 1.378 . S
C44 C45 1.409 . S
C45 C41 1.387 . S
C45 C44 1.409 . S
C45 H47 0.951 . S
C46 C41 1.491 . S
C46 C48 1.382 . S
C46 C50 1.404 . S
H47 C45 0.951 . S
C48 C46 1.382 . S
C48 C49 1.390 . S
C48 H53 0.949 . S
C49 C48 1.390 . S
C49 C54 1.399 . S
C50 C46 1.404 . S
C50 H51 0.950 . S
C50 C52 1.375 . S
H51 C50 0.950 . S
C52 C50 1.375 . S
C52 C54 1.382 . S
C52 H56 0.950 . S
H53 C48 0.949 . S
C54 C49 1.399 . S
C54 C52 1.382 . S
C54 H55 0.952 . S
H55 C54 0.952 . S
H56 C52 0.950 . S
H57 C58 0.949 . S
C58 H57 0.949 . S
C58 C59 1.395 . S
C58 C60 1.391 . S
C59 C58 1.395 . S
C59 C62 1.390 . S
C60 C58 1.391 . S
C60 C64 1.387 . S
C60 C65 1.491 . S
H61 C62 0.950 . S
C62 C59 1.390 . S
C62 H61 0.950 . S
C62 C63 1.378 . S
C63 C62 1.378 . S
C63 C64 1.409 . S
C64 C60 1.387 . S
C64 C63 1.409 . S
C64 H66 0.951 . S
C65 C60 1.491 . S
C65 C67 1.382 . S
C65 C69 1.404 . S
H66 C64 0.951 . S
C67 C65 1.382 . S
C67 C68 1.390 . S
C67 H72 0.949 . S
C68 C67 1.390 . S
C68 C73 1.399 . S
C69 C65 1.404 . S
C69 H70 0.950 . S
C69 C71 1.375 . S
H70 C69 0.950 . S
C71 C69 1.375 . S
C71 C73 1.382 . S
C71 H75 0.950 . S
H72 C67 0.949 . S
C73 C68 1.399 . S
C73 C71 1.382 . S
C73 H74 0.952 . S
H74 C73 0.952 . S
H75 C71 0.950 . S
H76 C77 0.949 . S
C77 H76 0.949 . S
C77 C78 1.395 . S
C77 C79 1.391 . S
C78 C77 1.395 . S
C78 C81 1.390 . S
C79 C77 1.391 . S
C79 C83 1.387 . S
C79 C84 1.491 . S
H80 C81 0.950 . S
C81 C78 1.390 . S
C81 H80 0.950 . S
C81 C82 1.378 . S
C82 C81 1.378 . S
C82 C83 1.409 . S
C83 C79 1.387 . S
C83 C82 1.409 . S
C83 H85 0.951 . S
C84 C79 1.491 . S
C84 C86 1.382 . S
C84 C88 1.404 . S
H85 C83 0.951 . S
C86 C84 1.382 . S
C86 C87 1.390 . S
C86 H91 0.949 . S
C87 C86 1.390 . S
C87 C92 1.399 . S
C88 C84 1.404 . S
C88 H89 0.950 . S
C88 C90 1.375 . S
H89 C88 0.950 . S
C90 C88 1.375 . S
C90 C92 1.382 . S
C90 H94 0.950 . S
H91 C86 0.949 . S
C92 C87 1.399 . S
C92 C90 1.382 . S
C92 H93 0.952 . S
H93 C92 0.952 . S
H94 C90 0.950 . S
H95 C96 0.949 . S
C96 H95 0.949 . S
C96 C97 1.395 . S
C96 C98 1.391 . S
C97 C96 1.395 . S
C97 C100 1.390 . S
C98 C96 1.391 . S
C98 C102 1.387 . S
C98 C103 1.491 . S
H99 C100 0.950 . S
C100 C97 1.390 . S
C100 H99 0.950 . S
C100 C101 1.378 . S
C101 C100 1.378 . S
C101 C102 1.409 . S
C102 C98 1.387 . S
C102 C101 1.409 . S
C102 H104 0.951 . S
C103 C98 1.491 . S
C103 C105 1.382 . S
C103 C107 1.404 . S
H104 C102 0.951 . S
C105 C103 1.382 . S
C105 C106 1.390 . S
C105 H110 0.949 . S
C106 C105 1.390 . S
C106 C111 1.399 . S
C107 C103 1.404 . S
C107 H108 0.950 . S
C107 C109 1.375 . S
H108 C107 0.950 . S
C109 C107 1.375 . S
C109 C111 1.382 . S
C109 H113 0.950 . S
H110 C105 0.949 . S
C111 C106 1.399 . S
C111 C109 1.382 . S
C111 H112 0.952 . S
H112 C111 0.952 . S
H113 C109 0.950 . S
H114 C115 0.949 . S
C115 H114 0.949 . S
C115 C116 1.395 . S
C115 C117 1.391 . S
C116 C115 1.395 . S
C116 C119 1.390 . S
C117 C115 1.391 . S
C117 C121 1.387 . S
C117 C122 1.491 . S
H118 C119 0.950 . S
C119 C116 1.390 . S
C119 H118 0.950 . S
C119 C120 1.378 . S
C120 C119 1.378 . S
C120 C121 1.409 . S
C121 C117 1.387 . S
C121 C120 1.409 . S
C121 H123 0.951 . S
C122 C117 1.491 . S
C122 C124 1.382 . S
C122 C126 1.404 . S
H123 C121 0.951 . S
C124 C122 1.382 . S
C124 C125 1.390 . S
C124 H129 0.949 . S
C125 C124 1.390 . S
C125 C130 1.399 . S
C126 C122 1.404 . S
C126 H127 0.950 . S
C126 C128 1.375 . S
H127 C126 0.950 . S
C128 C126 1.375 . S
C128 C130 1.382 . S
C128 H132 0.950 . S
H129 C124 0.949 . S
C130 C125 1.399 . S
C130 C128 1.382 . S
C130 H131 0.952 . S
H131 C130 0.952 . S
H132 C128 0.950 . S
H133 C134 0.949 . S
C134 H133 0.949 . S
C134 C135 1.395 . S
C134 C136 1.391 . S
C135 C134 1.395 . S
C135 C138 1.390 . S
C136 C134 1.391 . S
C136 C140 1.387 . S
C136 C141 1.491 . S
H137 C138 0.950 . S
C138 C135 1.390 . S
C138 H137 0.950 . S
C138 C139 1.378 . S
C139 C138 1.378 . S
C139 C140 1.409 . S
C140 C136 1.387 . S
C140 C139 1.409 . S
C140 H142 0.951 . S
C141 C136 1.491 . S
C141 C143 1.382 . S
C141 C145 1.404 . S
H142 C140 0.951 . S
C143 C141 1.382 . S
C143 C144 1.390 . S
C143 H148 0.949 . S
C144 C143 1.390 . S
C144 C149 1.399 . S
C145 C141 1.404 . S
C145 H146 0.950 . S
C145 C147 1.375 . S
H146 C145 0.950 . S
C147 C145 1.375 . S
C147 C149 1.382 . S
C147 H151 0.950 . S
H148 C143 0.949 . S
C149 C144 1.399 . S
C149 C147 1.382 . S
C149 H150 0.952 . S
H150 C149 0.952 . S
H151 C147 0.950 . S
Tb152 C161 2.764 . S
Tb152 O162 2.325 . S
Tb152 O165 2.303 . S
Tb152 O169 2.322 . S
Tb152 O170 2.349 1_545 S
Tb152 O173 2.415 . S
Tb152 O174 2.399 . S
Tb153 O163 2.322 . S
Tb153 O164 2.349 1_655 S
Tb153 O166 2.415 1_545 S
Tb153 O167 2.399 . S
Tb153 O168 2.325 1_655 S
Tb153 O171 2.303 . S
Tb153 C182 2.764 1_545 S
C154 O170 1.261 1_655 S
C154 O171 1.257 1_565 S
C155 C158 1.358 . S
C155 C159 1.332 . S
C155 C161 1.504 . S
C156 C157 1.373 . S
C156 C160 1.308 . S
C157 C156 1.373 . S
C157 C158 1.429 . S
C157 H184 0.932 . S
C158 C155 1.358 . S
C158 C157 1.429 . S
C158 H185 0.930 . S
C159 C155 1.332 . S
C159 C160 1.394 . S
C159 H186 0.932 . S
C160 C156 1.308 . S
C160 C159 1.394 . S
C160 H187 0.929 . S
C161 Tb152 2.764 . S
C161 C155 1.504 . S
C161 O173 1.239 . S
C161 O174 1.263 . S
O162 Tb152 2.325 . S
O162 C172 1.236 1_455 S
O163 Tb153 2.322 . S
O163 C172 1.257 . S
O164 Tb153 2.349 1_455 S
O164 C175 1.261 . S
O165 Tb152 2.303 . S
O165 C175 1.257 . S
O166 Tb153 2.415 1_565 S
O166 C182 1.239 . S
O167 Tb153 2.399 . S
O167 C182 1.263 1_545 S
O168 Tb153 2.325 1_455 S
O168 C183 1.236 . S
O169 Tb152 2.322 . S
O169 C183 1.257 . S
O170 Tb152 2.349 1_565 S
O170 C154 1.261 1_455 S
O171 Tb153 2.303 . S
O171 C154 1.257 1_545 S
C172 O162 1.236 1_655 S
C172 O163 1.257 . S
O173 Tb152 2.415 . S
O173 C161 1.239 . S
O174 Tb152 2.399 . S
O174 C161 1.263 . S
C175 O164 1.261 . S
C175 O165 1.257 . S
C176 C179 1.358 . S
C176 C180 1.332 . S
C176 C182 1.504 . S
C177 C178 1.373 . S
C177 C181 1.308 . S
C178 C177 1.373 . S
C178 C179 1.429 . S
C178 H188 0.932 . S
C179 C176 1.358 . S
C179 C178 1.429 . S
C179 H189 0.930 1_565 S
C180 C176 1.332 . S
C180 C181 1.394 . S
C180 H190 0.932 . S
C181 C177 1.308 . S
C181 C180 1.394 . S
C181 H191 0.929 . S
C182 Tb153 2.764 1_565 S
C182 O166 1.239 . S
C182 O167 1.263 1_565 S
C182 C176 1.504 . S
C183 O168 1.236 . S
C183 O169 1.257 . S
H184 C157 0.932 . S
H185 C158 0.930 . S
H186 C159 0.932 . S
H187 C160 0.929 . S
H188 C178 0.932 . S
H189 C179 0.930 1_545 S
H190 C180 0.932 . S
H191 C181 0.929 . S
Tb192 C201 2.764 . S
Tb192 O202 2.325 . S
Tb192 O205 2.303 . S
Tb192 O209 2.322 1_545 S
Tb192 O210 2.349 . S
Tb192 O213 2.415 . S
Tb192 O214 2.399 . S
Tb193 O203 2.322 . S
Tb193 O204 2.349 . S
Tb193 O206 2.415 1_545 S
Tb193 O207 2.399 1_545 S
Tb193 O208 2.325 1_545 S
Tb193 O211 2.303 . S
Tb193 C222 2.764 1_545 S
C194 O210 1.261 . S
C194 O211 1.257 . S
C195 C198 1.358 . S
C195 C199 1.332 . S
C195 C201 1.504 . S
C196 C197 1.373 . S
C196 C200 1.308 . S
C197 C196 1.373 . S
C197 C198 1.429 . S
C197 H224 0.932 . S
C198 C195 1.358 . S
C198 C197 1.429 . S
C198 H225 0.930 . S
C199 C195 1.332 . S
C199 C200 1.394 . S
C199 H226 0.932 . S
C200 C196 1.308 . S
C200 C199 1.394 . S
C200 H227 0.929 . S
C201 Tb192 2.764 . S
C201 C195 1.504 . S
C201 O213 1.239 . S
C201 O214 1.263 . S
O202 Tb192 2.325 . S
O202 C212 1.236 . S
O203 Tb193 2.322 . S
O203 C212 1.257 . S
O204 Tb193 2.349 . S
O204 C215 1.261 . S
O205 Tb192 2.303 . S
O205 C215 1.257 . S
O206 Tb193 2.415 1_565 S
O206 C222 1.239 . S
O207 Tb193 2.399 1_565 S
O207 C222 1.263 . S
O208 Tb193 2.325 1_565 S
O208 C223 1.236 . S
O209 Tb192 2.322 1_565 S
O209 C223 1.257 . S
O210 Tb192 2.349 . S
O210 C194 1.261 . S
O211 Tb193 2.303 . S
O211 C194 1.257 . S
C212 O202 1.236 . S
C212 O203 1.257 . S
O213 Tb192 2.415 . S
O213 C201 1.239 . S
O214 Tb192 2.399 . S
O214 C201 1.263 . S
C215 O204 1.261 . S
C215 O205 1.257 . S
C216 C219 1.358 . S
C216 C220 1.332 . S
C216 C222 1.504 1_556 S
C217 C218 1.373 . S
C217 C221 1.308 . S
C218 C217 1.373 . S
C218 C219 1.429 . S
C218 H228 0.932 . S
C219 C216 1.358 . S
C219 C218 1.429 . S
C219 H229 0.930 . S
C220 C216 1.332 . S
C220 C221 1.394 . S
C220 H230 0.932 . S
C221 C217 1.308 . S
C221 C220 1.394 . S
C221 H231 0.929 . S
C222 Tb193 2.764 1_565 S
C222 O206 1.239 . S
C222 O207 1.263 . S
C222 C216 1.504 1_554 S
C223 O208 1.236 . S
C223 O209 1.257 . S
H224 C197 0.932 . S
H225 C198 0.930 . S
H226 C199 0.932 . S
H227 C200 0.929 . S
H228 C218 0.932 . S
H229 C219 0.930 . S
H230 C220 0.932 . S
H231 C221 0.929 . S
Tb232 C241 2.764 . S
Tb232 O242 2.325 . S
Tb232 O245 2.303 . S
Tb232 O249 2.322 . S
Tb232 O250 2.349 . S
Tb232 O253 2.415 . S
Tb232 O254 2.399 . S
Tb233 O243 2.322 . S
Tb233 O244 2.349 . S
Tb233 O246 2.415 . S
Tb233 O247 2.399 . S
Tb233 O248 2.325 . S
Tb233 O251 2.303 . S
Tb233 C262 2.764 . S
C234 O250 1.261 . S
C234 O251 1.257 . S
C235 C238 1.358 . S
C235 C239 1.332 . S
C235 C241 1.504 . S
C236 C237 1.373 . S
C236 C240 1.308 . S
C237 C236 1.373 . S
C237 C238 1.429 . S
C237 H264 0.932 . S
C238 C235 1.358 . S
C238 C237 1.429 . S
C238 H265 0.930 . S
C239 C235 1.332 . S
C239 C240 1.394 . S
C239 H266 0.932 . S
C240 C236 1.308 . S
C240 C239 1.394 . S
C240 H267 0.929 . S
C241 Tb232 2.764 . S
C241 C235 1.504 . S
C241 O253 1.239 . S
C241 O254 1.263 . S
O242 Tb232 2.325 . S
O242 C252 1.236 . S
O243 Tb233 2.322 . S
O243 C252 1.257 . S
O244 Tb233 2.349 . S
O244 C255 1.261 . S
O245 Tb232 2.303 . S
O245 C255 1.257 . S
O246 Tb233 2.415 . S
O246 C262 1.239 . S
O247 Tb233 2.399 . S
O247 C262 1.263 . S
O248 Tb233 2.325 . S
O248 C263 1.236 . S
O249 Tb232 2.322 . S
O249 C263 1.257 . S
O250 Tb232 2.349 . S
O250 C234 1.261 . S
O251 Tb233 2.303 . S
O251 C234 1.257 . S
C252 O242 1.236 . S
C252 O243 1.257 . S
O253 Tb232 2.415 . S
O253 C241 1.239 . S
O254 Tb232 2.399 . S
O254 C241 1.263 . S
C255 O244 1.261 . S
C255 O245 1.257 . S
C256 C259 1.358 . S
C256 C260 1.332 . S
C256 C262 1.504 . S
C257 C258 1.373 . S
C257 C261 1.308 . S
C258 C257 1.373 . S
C258 C259 1.429 . S
C258 H268 0.932 . S
C259 C256 1.358 . S
C259 C258 1.429 . S
C259 H269 0.930 . S
C260 C256 1.332 . S
C260 C261 1.394 . S
C260 H270 0.932 . S
C261 C257 1.308 . S
C261 C260 1.394 . S
C261 H271 0.929 . S
C262 Tb233 2.764 . S
C262 O246 1.239 . S
C262 O247 1.263 . S
C262 C256 1.504 . S
C263 O248 1.236 . S
C263 O249 1.257 . S
H264 C237 0.932 . S
H265 C238 0.930 . S
H266 C239 0.932 . S
H267 C240 0.929 . S
H268 C258 0.932 . S
H269 C259 0.930 . S
H270 C260 0.932 . S
H271 C261 0.929 . S
Tb272 C281 2.764 . S
Tb272 O282 2.325 1_455 S
Tb272 O285 2.303 1_556 S
Tb272 O289 2.322 1_556 S
Tb272 O290 2.349 . S
Tb272 O293 2.415 1_455 S
Tb272 O294 2.399 . S
Tb273 O283 2.322 1_455 S
Tb273 O284 2.349 . S
Tb273 O286 2.415 . S
Tb273 O287 2.399 . S
Tb273 O288 2.325 . S
Tb273 O291 2.303 1_554 S
Tb273 C302 2.764 . S
C274 O290 1.261 . S
C274 O291 1.257 . S
C275 C278 1.358 . S
C275 C279 1.332 . S
C275 C281 1.504 1_655 S
C276 C277 1.373 . S
C276 C280 1.308 . S
C277 C276 1.373 . S
C277 C278 1.429 . S
C277 H304 0.932 . S
C278 C275 1.358 . S
C278 C277 1.429 . S
C278 H305 0.930 1_655 S
C279 C275 1.332 . S
C279 C280 1.394 . S
C279 H306 0.932 . S
C280 C276 1.308 . S
C280 C279 1.394 . S
C280 H307 0.929 . S
C281 Tb272 2.764 . S
C281 C275 1.504 1_455 S
C281 O293 1.235 1_455 S
C281 O294 1.263 . S
O282 Tb272 2.325 1_655 S
O282 C292 1.236 . S
O283 Tb273 2.322 1_655 S
O283 C292 1.257 1_554 S
O284 Tb273 2.349 . S
O284 C295 1.261 . S
O285 Tb272 2.303 1_554 S
O285 C295 1.257 . S
O286 Tb273 2.415 . S
O286 C302 1.239 . S
O287 Tb273 2.399 . S
O287 C302 1.263 . S
O288 Tb273 2.325 . S
O288 C303 1.236 . S
O289 Tb272 2.322 1_554 S
O289 C303 1.257 . S
O290 Tb272 2.349 . S
O290 C274 1.261 . S
O291 Tb273 2.303 1_556 S
O291 C274 1.257 . S
C292 O282 1.236 . S
C292 O283 1.257 1_556 S
O293 Tb272 2.415 1_655 S
O293 C281 1.235 1_655 S
O294 Tb272 2.399 . S
O294 C281 1.263 . S
C295 O284 1.261 . S
C295 O285 1.257 . S
C296 C299 1.358 . S
C296 C300 1.332 . S
C296 C302 1.504 . S
C297 C298 1.373 . S
C297 C301 1.308 . S
C298 C297 1.373 . S
C298 C299 1.429 . S
C298 H308 0.932 . S
C299 C296 1.358 . S
C299 C298 1.429 . S
C299 H309 0.930 . S
C300 C296 1.332 . S
C300 C301 1.394 . S
C300 H310 0.932 . S
C301 C297 1.308 . S
C301 C300 1.394 . S
C301 H311 0.929 . S
C302 Tb273 2.764 . S
C302 O286 1.239 . S
C302 O287 1.263 . S
C302 C296 1.504 . S
C303 O288 1.236 . S
C303 O289 1.257 . S
H304 C277 0.932 . S
H305 C278 0.930 1_455 S
H306 C279 0.932 . S
H307 C280 0.929 . S
H308 C298 0.932 . S
H309 C299 0.930 . S
H310 C300 0.932 . S
H311 C301 0.929 . S
C312 C313 1.391 . S
C312 C314 1.394 . S
C312 H328 0.931 . S
C313 C312 1.391 . S
C313 C317 1.376 . S
C314 C312 1.394 . S
C314 C315 1.369 . S
C314 C318 1.531 . S
C315 C314 1.369 . S
C315 C316 1.410 . S
C315 C323 1.503 . S
C316 C315 1.410 . S
C316 C317 1.392 . S
C316 C319 1.511 . S
C317 C313 1.376 . S
C317 C316 1.392 . S
C317 H329 0.929 . S
C318 C314 1.531 . S
C318 H330 0.960 . S
C318 H331 0.962 . S
C318 H332 0.960 . S
C319 C316 1.511 . S
C319 H333 0.961 . S
C319 H334 0.961 . S
C319 H335 0.961 . S
C320 C321 1.370 . S
C320 C322 1.363 . S
C320 H336 0.931 . S
C321 C320 1.370 . S
C321 C325 1.408 . S
C322 C320 1.363 . S
C322 C323 1.370 . S
C322 C326 1.524 . S
C323 C315 1.503 . S
C323 C322 1.370 . S
C323 C324 1.403 . S
C324 C323 1.403 . S
C324 C325 1.404 . S
C324 C327 1.539 . S
C325 C321 1.408 . S
C325 C324 1.404 . S
C325 H337 0.930 . S
C326 C322 1.524 . S
C326 H338 0.956 . S
C326 H339 0.961 . S
C326 H340 0.961 . S
C327 C324 1.539 . S
C327 H341 0.958 . S
C327 H342 0.961 . S
C327 H343 0.960 . S
H328 C312 0.931 . S
H329 C317 0.929 . S
H330 C318 0.960 . S
H331 C318 0.962 . S
H332 C318 0.960 . S
H333 C319 0.961 . S
H334 C319 0.961 . S
H335 C319 0.961 . S
H336 C320 0.931 . S
H337 C325 0.930 . S
H338 C326 0.956 . S
H339 C326 0.961 . S
H340 C326 0.961 . S
H341 C327 0.958 . S
H342 C327 0.961 . S
H343 C327 0.960 . S
C344 C345 1.391 . S
C344 C346 1.394 . S
C344 H360 0.931 . S
C345 C344 1.391 . S
C345 C349 1.376 . S
C346 C344 1.394 . S
C346 C347 1.369 . S
C346 C350 1.531 . S
C347 C346 1.369 . S
C347 C348 1.410 . S
C347 C355 1.503 . S
C348 C347 1.410 . S
C348 C349 1.392 . S
C348 C351 1.511 . S
C349 C345 1.376 . S
C349 C348 1.392 . S
C349 H361 0.929 . S
C350 C346 1.531 . S
C350 H362 0.960 . S
C350 H363 0.962 . S
C350 H364 0.960 . S
C351 C348 1.511 . S
C351 H365 0.961 . S
C351 H366 0.961 . S
C351 H367 0.961 . S
C352 C353 1.370 . S
C352 C354 1.363 . S
C352 H368 0.931 . S
C353 C352 1.370 . S
C353 C357 1.408 . S
C354 C352 1.363 . S
C354 C355 1.370 . S
C354 C358 1.524 . S
C355 C347 1.503 . S
C355 C354 1.370 . S
C355 C356 1.403 . S
C356 C355 1.403 . S
C356 C357 1.404 . S
C356 C359 1.539 . S
C357 C353 1.408 . S
C357 C356 1.404 . S
C357 H369 0.930 . S
C358 C354 1.524 . S
C358 H370 0.956 . S
C358 H371 0.961 . S
C358 H372 0.961 . S
C359 C356 1.539 . S
C359 H373 0.958 . S
C359 H374 0.961 . S
C359 H375 0.960 . S
H360 C344 0.931 . S
H361 C349 0.929 . S
H362 C350 0.960 . S
H363 C350 0.962 . S
H364 C350 0.960 . S
H365 C351 0.961 . S
H366 C351 0.961 . S
H367 C351 0.961 . S
H368 C352 0.931 . S
H369 C357 0.930 . S
H370 C358 0.956 . S
H371 C358 0.961 . S
H372 C358 0.961 . S
H373 C359 0.958 . S
H374 C359 0.961 . S
H375 C359 0.960 . S
C376 C377 1.391 . S
C376 C378 1.394 . S
C376 H392 0.931 . S
C377 C376 1.391 . S
C377 C381 1.376 . S
C378 C376 1.394 . S
C378 C379 1.369 . S
C378 C382 1.531 . S
C379 C378 1.369 . S
C379 C380 1.410 . S
C379 C387 1.503 . S
C380 C379 1.410 . S
C380 C381 1.392 . S
C380 C383 1.511 . S
C381 C377 1.376 . S
C381 C380 1.392 . S
C381 H393 0.929 . S
C382 C378 1.531 . S
C382 H394 0.960 . S
C382 H395 0.962 . S
C382 H396 0.960 . S
C383 C380 1.511 . S
C383 H397 0.961 . S
C383 H398 0.961 . S
C383 H399 0.961 . S
C384 C385 1.370 . S
C384 C386 1.363 . S
C384 H400 0.931 . S
C385 C384 1.370 . S
C385 C389 1.408 . S
C386 C384 1.363 . S
C386 C387 1.370 . S
C386 C390 1.524 . S
C387 C379 1.503 . S
C387 C386 1.370 . S
C387 C388 1.403 . S
C388 C387 1.403 . S
C388 C389 1.404 . S
C388 C391 1.539 . S
C389 C385 1.408 . S
C389 C388 1.404 . S
C389 H401 0.930 . S
C390 C386 1.524 . S
C390 H402 0.956 . S
C390 H403 0.961 . S
C390 H404 0.961 . S
C391 C388 1.539 . S
C391 H405 0.958 . S
C391 H406 0.961 . S
C391 H407 0.960 . S
H392 C376 0.931 . S
H393 C381 0.929 . S
H394 C382 0.960 . S
H395 C382 0.962 . S
H396 C382 0.960 . S
H397 C383 0.961 . S
H398 C383 0.961 . S
H399 C383 0.961 . S
H400 C384 0.931 . S
H401 C389 0.930 . S
H402 C390 0.956 . S
H403 C390 0.961 . S
H404 C390 0.961 . S
H405 C391 0.958 . S
H406 C391 0.961 . S
H407 C391 0.960 . S
C408 C409 1.391 . S
C408 C410 1.394 . S
C408 H424 0.931 . S
C409 C408 1.391 . S
C409 C413 1.376 . S
C410 C408 1.394 . S
C410 C411 1.369 . S
C410 C414 1.531 . S
C411 C410 1.369 . S
C411 C412 1.410 . S
C411 C419 1.503 . S
C412 C411 1.410 . S
C412 C413 1.392 . S
C412 C415 1.511 . S
C413 C409 1.376 . S
C413 C412 1.392 . S
C413 H425 0.929 . S
C414 C410 1.531 . S
C414 H426 0.960 . S
C414 H427 0.962 . S
C414 H428 0.960 . S
C415 C412 1.511 . S
C415 H429 0.961 . S
C415 H430 0.961 . S
C415 H431 0.961 1_655 S
C416 C417 1.370 . S
C416 C418 1.363 . S
C416 H432 0.931 . S
C417 C416 1.370 . S
C417 C421 1.408 1_655 S
C418 C416 1.363 . S
C418 C419 1.370 . S
C418 C422 1.524 . S
C419 C411 1.503 . S
C419 C418 1.370 . S
C419 C420 1.403 . S
C420 C419 1.403 . S
C420 C421 1.404 1_655 S
C420 C423 1.539 1_655 S
C421 C417 1.408 1_455 S
C421 C420 1.404 1_455 S
C421 H433 0.930 . S
C422 C418 1.524 . S
C422 H434 0.956 . S
C422 H435 0.961 . S
C422 H436 0.961 . S
C423 C420 1.539 1_455 S
C423 H437 0.958 . S
C423 H438 0.961 . S
C423 H439 0.960 . S
H424 C408 0.931 . S
H425 C413 0.929 . S
H426 C414 0.960 . S
H427 C414 0.962 . S
H428 C414 0.960 . S
H429 C415 0.961 . S
H430 C415 0.961 . S
H431 C415 0.961 1_455 S
H432 C416 0.931 . S
H433 C421 0.930 . S
H434 C422 0.956 . S
H435 C422 0.961 . S
H436 C422 0.961 . S
H437 C423 0.958 . S
H438 C423 0.961 . S
H439 C423 0.960 . S
C440 C441 1.391 . S
C440 C442 1.394 . S
C440 H456 0.931 . S
C441 C440 1.391 . S
C441 C445 1.376 . S
C442 C440 1.394 . S
C442 C443 1.369 . S
C442 C446 1.531 . S
C443 C442 1.369 . S
C443 C444 1.410 . S
C443 C451 1.503 . S
C444 C443 1.410 . S
C444 C445 1.392 . S
C444 C447 1.511 . S
C445 C441 1.376 . S
C445 C444 1.392 . S
C445 H457 0.929 . S
C446 C442 1.531 . S
C446 H458 0.960 . S
C446 H459 0.962 . S
C446 H460 0.960 . S
C447 C444 1.511 . S
C447 H461 0.961 . S
C447 H462 0.961 . S
C447 H463 0.961 . S
C448 C449 1.370 . S
C448 C450 1.363 . S
C448 H464 0.931 . S
C449 C448 1.370 . S
C449 C453 1.408 . S
C450 C448 1.363 . S
C450 C451 1.370 . S
C450 C454 1.524 . S
C451 C443 1.503 . S
C451 C450 1.370 . S
C451 C452 1.403 . S
C452 C451 1.403 . S
C452 C453 1.404 . S
C452 C455 1.539 . S
C453 C449 1.408 . S
C453 C452 1.404 . S
C453 H465 0.930 . S
C454 C450 1.524 . S
C454 H466 0.956 . S
C454 H467 0.961 . S
C454 H468 0.961 . S
C455 C452 1.539 . S
C455 H469 0.958 . S
C455 H470 0.961 . S
C455 H471 0.960 . S
H456 C440 0.931 . S
H457 C445 0.929 . S
H458 C446 0.960 . S
H459 C446 0.962 . S
H460 C446 0.960 . S
H461 C447 0.961 . S
H462 C447 0.961 . S
H463 C447 0.961 . S
H464 C448 0.931 . S
H465 C453 0.930 . S
H466 C454 0.956 . S
H467 C454 0.961 . S
H468 C454 0.961 . S
H469 C455 0.958 . S
H470 C455 0.961 . S
H471 C455 0.960 . S
C472 C473 1.391 . S
C472 C474 1.394 . S
C472 H488 0.931 . S
C473 C472 1.391 . S
C473 C477 1.376 . S
C474 C472 1.394 . S
C474 C475 1.369 . S
C474 C478 1.531 . S
C475 C474 1.369 . S
C475 C476 1.410 . S
C475 C483 1.503 . S
C476 C475 1.410 . S
C476 C477 1.392 . S
C476 C479 1.499 1_455 S
C477 C473 1.376 . S
C477 C476 1.392 . S
C477 H489 0.929 . S
C478 C474 1.531 . S
C478 H490 0.960 . S
C478 H491 0.962 . S
C478 H492 0.960 . S
C479 C476 1.499 1_655 S
C479 H493 0.962 . S
C479 H494 0.961 1_655 S
C479 H495 0.972 . S
C480 C481 1.370 . S
C480 C482 1.363 . S
C480 H496 0.931 . S
C481 C480 1.370 . S
C481 C485 1.408 . S
C482 C480 1.363 . S
C482 C483 1.370 . S
C482 C486 1.524 . S
C483 C475 1.503 . S
C483 C482 1.370 . S
C483 C484 1.403 . S
C484 C483 1.403 . S
C484 C485 1.404 . S
C484 C487 1.539 1_455 S
C485 C481 1.408 . S
C485 C484 1.404 . S
C485 H497 0.930 . S
C486 C482 1.524 . S
C486 H498 0.956 . S
C486 H499 0.961 . S
C486 H500 0.961 . S
C487 C484 1.539 1_655 S
C487 H501 0.958 1_655 S
C487 H502 0.961 . S
C487 H503 0.960 . S
H488 C472 0.931 . S
H489 C477 0.929 . S
H490 C478 0.960 . S
H491 C478 0.962 . S
H492 C478 0.960 . S
H493 C479 0.962 . S
H494 C479 0.961 1_455 S
H495 C479 0.972 . S
H496 C480 0.931 . S
H497 C485 0.930 . S
H498 C486 0.956 . S
H499 C486 0.961 . S
H500 C486 0.961 . S
H501 C487 0.958 1_455 S
H502 C487 0.961 . S
H503 C487 0.960 . S
C504 C505 1.391 . S
C504 C506 1.394 . S
C504 H520 0.931 . S
C505 C504 1.391 . S
C505 C509 1.376 . S
C506 C504 1.394 . S
C506 C507 1.369 . S
C506 C510 1.531 . S
C507 C506 1.369 . S
C507 C508 1.410 . S
C507 C515 1.503 . S
C508 C507 1.410 . S
C508 C509 1.392 . S
C508 C511 1.511 . S
C509 C505 1.376 . S
C509 C508 1.392 . S
C509 H521 0.929 . S
C510 C506 1.531 . S
C510 H522 0.960 . S
C510 H523 0.962 1_556 S
C510 H524 0.960 . S
C511 C508 1.511 . S
C511 H525 0.961 . S
C511 H526 0.961 . S
C511 H527 0.961 . S
C512 C513 1.357 1_554 S
C512 C514 1.354 1_554 S
C512 H528 0.955 . S
C513 C512 1.357 1_556 S
C513 C517 1.408 . S
C514 C512 1.354 1_556 S
C514 C515 1.370 . S
C514 C518 1.524 1_556 S
C515 C507 1.503 . S
C515 C514 1.370 . S
C515 C516 1.403 . S
C516 C515 1.403 . S
C516 C517 1.404 . S
C516 C519 1.539 . S
C517 C513 1.408 . S
C517 C516 1.404 . S
C517 H529 0.930 . S
C518 C514 1.524 1_554 S
C518 H530 0.956 . S
C518 H531 0.961 1_554 S
C518 H532 0.961 . S
C519 C516 1.539 . S
C519 H533 0.958 . S
C519 H534 0.961 . S
C519 H535 0.960 . S
H520 C504 0.931 . S
H521 C509 0.929 . S
H522 C510 0.960 . S
H523 C510 0.962 1_554 S
H524 C510 0.960 . S
H525 C511 0.961 . S
H526 C511 0.961 . S
H527 C511 0.961 . S
H528 C512 0.955 . S
H529 C517 0.930 . S
H530 C518 0.956 . S
H531 C518 0.961 1_556 S
H532 C518 0.961 . S
H533 C519 0.958 . S
H534 C519 0.961 . S
H535 C519 0.960 . S
C536 C537 1.391 . S
C536 C538 1.394 . S
C536 H552 0.931 . S
C537 C536 1.391 . S
C537 C541 1.376 . S
C538 C536 1.394 . S
C538 C539 1.369 . S
C538 C542 1.531 . S
C539 C538 1.369 . S
C539 C540 1.410 . S
C539 C547 1.503 . S
C540 C539 1.410 . S
C540 C541 1.392 . S
C540 C543 1.511 . S
C541 C537 1.376 . S
C541 C540 1.392 . S
C541 H553 0.929 . S
C542 C538 1.531 . S
C542 H554 0.960 . S
C542 H555 0.962 . S
C542 H556 0.960 . S
C543 C540 1.511 . S
C543 H557 0.961 . S
C543 H558 0.961 . S
C543 H559 0.961 . S
C544 C545 1.370 . S
C544 C546 1.363 . S
C544 H560 0.931 . S
C545 C544 1.370 . S
C545 C549 1.408 . S
C546 C544 1.363 . S
C546 C547 1.370 . S
C546 C550 1.524 . S
C547 C539 1.503 . S
C547 C546 1.370 . S
C547 C548 1.403 . S
C548 C547 1.403 . S
C548 C549 1.404 . S
C548 C551 1.539 . S
C549 C545 1.408 . S
C549 C548 1.404 . S
C549 H561 0.930 . S
C550 C546 1.524 . S
C550 H562 0.956 . S
C550 H563 0.961 . S
C550 H564 0.961 . S
C551 C548 1.539 . S
C551 H565 0.958 . S
C551 H566 0.961 . S
C551 H567 0.960 . S
H552 C536 0.931 . S
H553 C541 0.929 . S
H554 C542 0.960 . S
H555 C542 0.962 . S
H556 C542 0.960 . S
H557 C543 0.961 . S
H558 C543 0.961 . S
H559 C543 0.961 . S
H560 C544 0.931 . S
H561 C549 0.930 . S
H562 C550 0.956 . S
H563 C550 0.961 . S
H564 C550 0.961 . S
H565 C551 0.958 . S
H566 C551 0.961 . S
H567 C551 0.960 . S
C568 C569 1.391 . S
C568 C570 1.394 . S
C568 H584 0.931 . S
C569 C568 1.391 . S
C569 C573 1.376 . S
C570 C568 1.394 . S
C570 C571 1.369 . S
C570 C574 1.531 . S
C571 C570 1.369 . S
C571 C572 1.410 . S
C571 C579 1.503 . S
C572 C571 1.410 . S
C572 C573 1.392 . S
C572 C575 1.511 . S
C573 C569 1.376 . S
C573 C572 1.392 . S
C573 H585 0.929 . S
C574 C570 1.531 . S
C574 H586 0.960 . S
C574 H587 0.962 . S
C574 H588 0.960 . S
C575 C572 1.511 . S
C575 H589 0.961 . S
C575 H590 0.961 . S
C575 H591 0.961 . S
C576 C577 1.370 . S
C576 C578 1.363 . S
C576 H592 0.931 . S
C577 C576 1.370 . S
C577 C581 1.408 . S
C578 C576 1.363 . S
C578 C579 1.370 . S
C578 C582 1.524 . S
C579 C571 1.503 . S
C579 C578 1.370 . S
C579 C580 1.403 . S
C580 C579 1.403 . S
C580 C581 1.404 . S
C580 C583 1.539 . S
C581 C577 1.408 . S
C581 C580 1.404 . S
C581 H593 0.930 . S
C582 C578 1.524 . S
C582 H594 0.956 . S
C582 H595 0.961 . S
C582 H596 0.961 . S
C583 C580 1.539 . S
C583 H597 0.958 . S
C583 H598 0.961 . S
C583 H599 0.960 . S
H584 C568 0.931 . S
H585 C573 0.929 . S
H586 C574 0.960 . S
H587 C574 0.962 . S
H588 C574 0.960 . S
H589 C575 0.961 . S
H590 C575 0.961 . S
H591 C575 0.961 . S
H592 C576 0.931 . S
H593 C581 0.930 . S
H594 C582 0.956 . S
H595 C582 0.961 . S
H596 C582 0.961 . S
H597 C583 0.958 . S
H598 C583 0.961 . S
H599 C583 0.960 . S
C600 C601 1.391 . S
C600 C602 1.394 . S
C600 H616 0.931 . S
C601 C600 1.391 . S
C601 C605 1.376 . S
C602 C600 1.394 . S
C602 C603 1.369 . S
C602 C606 1.531 . S
C603 C602 1.369 . S
C603 C604 1.410 . S
C603 C611 1.503 1_556 S
C604 C603 1.410 . S
C604 C605 1.392 . S
C604 C607 1.511 1_556 S
C605 C601 1.376 . S
C605 C604 1.392 . S
C605 H617 0.929 . S
C606 C602 1.531 . S
C606 H618 0.960 . S
C606 H619 0.962 . S
C606 H620 0.960 . S
C607 C604 1.511 1_554 S
C607 H621 0.961 . S
C607 H622 0.961 . S
C607 H623 0.961 . S
C608 C609 1.370 . S
C608 C610 1.363 . S
C608 H624 0.931 . S
C609 C608 1.370 . S
C609 C613 1.408 . S
C610 C608 1.363 . S
C610 C611 1.370 . S
C610 C614 1.524 . S
C611 C603 1.503 1_554 S
C611 C610 1.370 . S
C611 C612 1.403 1_554 S
C612 C611 1.403 1_556 S
C612 C613 1.404 1_556 S
C612 C615 1.539 . S
C613 C609 1.408 . S
C613 C612 1.404 1_554 S
C613 H625 0.930 1_554 S
C614 C610 1.524 . S
C614 H626 0.956 . S
C614 H627 0.961 . S
C614 H628 0.961 . S
C615 C612 1.539 . S
C615 H629 0.958 . S
C615 H630 0.961 . S
C615 H631 0.960 . S
H616 C600 0.931 . S
H617 C605 0.929 . S
H618 C606 0.960 . S
H619 C606 0.962 . S
H620 C606 0.960 . S
H621 C607 0.961 . S
H622 C607 0.961 . S
H623 C607 0.961 . S
H624 C608 0.931 . S
H625 C613 0.930 1_556 S
H626 C614 0.956 . S
H627 C614 0.961 . S
H628 C614 0.961 . S
H629 C615 0.958 . S
H630 C615 0.961 . S
H631 C615 0.960 . S
C632 C633 1.391 . S
C632 C634 1.394 . S
C632 H648 0.931 . S
C633 C632 1.391 . S
C633 C637 1.376 . S
C634 C632 1.394 . S
C634 C635 1.369 . S
C634 C638 1.531 . S
C635 C634 1.369 . S
C635 C636 1.410 . S
C635 C643 1.503 . S
C636 C635 1.410 . S
C636 C637 1.392 . S
C636 C639 1.511 . S
C637 C633 1.376 . S
C637 C636 1.392 . S
C637 H649 0.929 . S
C638 C634 1.531 . S
C638 H650 0.960 . S
C638 H651 0.962 . S
C638 H652 0.960 . S
C639 C636 1.511 . S
C639 H653 0.961 . S
C639 H654 0.961 . S
C639 H655 0.961 . S
C640 C641 1.370 . S
C640 C642 1.363 . S
C640 H656 0.931 . S
C641 C640 1.370 . S
C641 C645 1.408 . S
C642 C640 1.363 . S
C642 C643 1.370 . S
C642 C646 1.524 . S
C643 C635 1.503 . S
C643 C642 1.370 . S
C643 C644 1.403 . S
C644 C643 1.403 . S
C644 C645 1.404 . S
C644 C647 1.539 . S
C645 C641 1.408 . S
C645 C644 1.404 . S
C645 H657 0.930 . S
C646 C642 1.524 . S
C646 H658 0.956 . S
C646 H659 0.961 . S
C646 H660 0.961 . S
C647 C644 1.539 . S
C647 H661 0.958 . S
C647 H662 0.961 . S
C647 H663 0.960 . S
H648 C632 0.931 . S
H649 C637 0.929 . S
H650 C638 0.960 . S
H651 C638 0.962 . S
H652 C638 0.960 . S
H653 C639 0.961 . S
H654 C639 0.961 . S
H655 C639 0.961 . S
H656 C640 0.931 . S
H657 C645 0.930 . S
H658 C646 0.956 . S
H659 C646 0.961 . S
H660 C646 0.961 . S
H661 C647 0.958 . S
H662 C647 0.961 . S
H663 C647 0.960 . S
C664 C665 1.391 . S
C664 C666 1.394 . S
C664 H680 0.931 . S
C665 C664 1.391 . S
C665 C669 1.376 . S
C666 C664 1.394 . S
C666 C667 1.369 . S
C666 C670 1.531 . S
C667 C666 1.369 . S
C667 C668 1.410 . S
C667 C675 1.503 . S
C668 C667 1.410 . S
C668 C669 1.392 . S
C668 C671 1.511 . S
C669 C665 1.376 . S
C669 C668 1.392 . S
C669 H681 0.929 . S
C670 C666 1.531 . S
C670 H682 0.960 . S
C670 H683 0.962 . S
C670 H684 0.960 . S
C671 C668 1.511 . S
C671 H685 0.961 . S
C671 H686 0.961 . S
C671 H687 0.961 . S
C672 C673 1.370 . S
C672 C674 1.363 . S
C672 H688 0.931 . S
C673 C672 1.370 . S
C673 C677 1.408 . S
C674 C672 1.363 . S
C674 C675 1.370 . S
C674 C678 1.524 . S
C675 C667 1.503 . S
C675 C674 1.370 . S
C675 C676 1.403 . S
C676 C675 1.403 . S
C676 C677 1.404 . S
C676 C679 1.539 . S
C677 C673 1.408 . S
C677 C676 1.404 . S
C677 H689 0.930 . S
C678 C674 1.524 . S
C678 H690 0.956 . S
C678 H691 0.961 . S
C678 H692 0.961 . S
C679 C676 1.539 . S
C679 H693 0.958 . S
C679 H694 0.961 . S
C679 H695 0.960 . S
H680 C664 0.931 . S
H681 C669 0.929 . S
H682 C670 0.960 . S
H683 C670 0.962 . S
H684 C670 0.960 . S
H685 C671 0.961 . S
H686 C671 0.961 . S
H687 C671 0.961 . S
H688 C672 0.931 . S
H689 C677 0.930 . S
H690 C678 0.956 . S
H691 C678 0.961 . S
H692 C678 0.961 . S
H693 C679 0.958 . S
H694 C679 0.961 . S
H695 C679 0.960 . S
C696 C697 1.391 . S
C696 C698 1.394 . S
C696 H712 0.931 . S
C697 C696 1.391 . S
C697 C701 1.376 . S
C698 C696 1.394 . S
C698 C699 1.369 . S
C698 C702 1.531 . S
C699 C698 1.369 . S
C699 C700 1.410 . S
C699 C707 1.503 . S
C700 C699 1.410 . S
C700 C701 1.392 . S
C700 C703 1.511 . S
C701 C697 1.376 . S
C701 C700 1.392 . S
C701 H713 0.929 . S
C702 C698 1.531 . S
C702 H714 0.960 . S
C702 H715 0.962 . S
C702 H716 0.960 . S
C703 C700 1.511 . S
C703 H717 0.961 . S
C703 H718 0.961 . S
C703 H719 0.961 . S
C704 C705 1.370 . S
C704 C706 1.363 . S
C704 H720 0.931 . S
C705 C704 1.370 . S
C705 C709 1.408 . S
C706 C704 1.363 . S
C706 C707 1.370 . S
C706 C710 1.524 . S
C707 C699 1.503 . S
C707 C706 1.370 . S
C707 C708 1.403 . S
C708 C707 1.403 . S
C708 C709 1.404 . S
C708 C711 1.539 . S
C709 C705 1.408 . S
C709 C708 1.404 . S
C709 H721 0.930 . S
C710 C706 1.524 . S
C710 H722 0.956 . S
C710 H723 0.961 . S
C710 H724 0.961 . S
C711 C708 1.539 . S
C711 H725 0.958 . S
C711 H726 0.961 . S
C711 H727 0.960 . S
H712 C696 0.931 . S
H713 C701 0.929 . S
H714 C702 0.960 . S
H715 C702 0.962 . S
H716 C702 0.960 . S
H717 C703 0.961 . S
H718 C703 0.961 . S
H719 C703 0.961 . S
H720 C704 0.931 . S
H721 C709 0.930 . S
H722 C710 0.956 . S
H723 C710 0.961 . S
H724 C710 0.961 . S
H725 C711 0.958 . S
H726 C711 0.961 . S
H727 C711 0.960 . S
C728 C729 1.391 . S
C728 C730 1.394 . S
C728 H744 0.931 . S
C729 C728 1.391 . S
C729 C733 1.376 . S
C730 C728 1.394 . S
C730 C731 1.369 . S
C730 C734 1.531 . S
C731 C730 1.369 . S
C731 C732 1.410 . S
C731 C739 1.503 . S
C732 C731 1.410 . S
C732 C733 1.392 . S
C732 C735 1.511 . S
C733 C729 1.376 . S
C733 C732 1.392 . S
C733 H745 0.929 . S
C734 C730 1.531 . S
C734 H746 0.960 . S
C734 H747 0.962 . S
C734 H748 0.960 . S
C735 C732 1.511 . S
C735 H749 0.961 . S
C735 H750 0.961 . S
C735 H751 0.961 . S
C736 C737 1.370 . S
C736 C738 1.363 . S
C736 H752 0.931 . S
C737 C736 1.370 . S
C737 C741 1.408 . S
C738 C736 1.363 . S
C738 C739 1.370 . S
C738 C742 1.524 . S
C739 C731 1.503 . S
C739 C738 1.370 . S
C739 C740 1.403 . S
C740 C739 1.403 . S
C740 C741 1.404 . S
C740 C743 1.539 . S
C741 C737 1.408 . S
C741 C740 1.404 . S
C741 H753 0.930 . S
C742 C738 1.524 . S
C742 H754 0.956 . S
C742 H755 0.961 . S
C742 H756 0.961 . S
C743 C740 1.539 . S
C743 H757 0.958 . S
C743 H758 0.961 . S
C743 H759 0.960 . S
H744 C728 0.931 . S
H745 C733 0.929 . S
H746 C734 0.960 . S
H747 C734 0.962 . S
H748 C734 0.960 . S
H749 C735 0.961 . S
H750 C735 0.961 . S
H751 C735 0.961 . S
H752 C736 0.931 . S
H753 C741 0.930 . S
H754 C742 0.956 . S
H755 C742 0.961 . S
H756 C742 0.961 . S
H757 C743 0.958 . S
H758 C743 0.961 . S
H759 C743 0.960 . S
C760 C761 1.391 . S
C760 C762 1.394 . S
C760 H776 0.931 . S
C761 C760 1.391 . S
C761 C765 1.376 . S
C762 C760 1.394 . S
C762 C763 1.369 . S
C762 C766 1.531 . S
C763 C762 1.369 . S
C763 C764 1.410 . S
C763 C771 1.503 . S
C764 C763 1.410 . S
C764 C765 1.392 . S
C764 C767 1.511 . S
C765 C761 1.376 . S
C765 C764 1.392 . S
C765 H777 0.929 . S
C766 C762 1.531 . S
C766 H778 0.960 . S
C766 H779 0.962 . S
C766 H780 0.960 . S
C767 C764 1.511 . S
C767 H781 0.961 . S
C767 H782 0.961 . S
C767 H783 0.961 . S
C768 C769 1.370 . S
C768 C770 1.363 . S
C768 H784 0.931 . S
C769 C768 1.370 . S
C769 C773 1.408 . S
C770 C768 1.363 . S
C770 C771 1.370 . S
C770 C774 1.524 . S
C771 C763 1.503 . S
C771 C770 1.370 . S
C771 C772 1.403 . S
C772 C771 1.403 . S
C772 C773 1.404 . S
C772 C775 1.539 . S
C773 C769 1.408 . S
C773 C772 1.404 . S
C773 H785 0.930 . S
C774 C770 1.524 . S
C774 H786 0.956 . S
C774 H787 0.961 . S
C774 H788 0.961 . S
C775 C772 1.539 . S
C775 H789 0.958 . S
C775 H790 0.961 . S
C775 H791 0.960 . S
H776 C760 0.931 . S
H777 C765 0.929 . S
H778 C766 0.960 . S
H779 C766 0.962 . S
H780 C766 0.960 . S
H781 C767 0.961 . S
H782 C767 0.961 . S
H783 C767 0.961 . S
H784 C768 0.931 . S
H785 C773 0.930 . S
H786 C774 0.956 . S
H787 C774 0.961 . S
H788 C774 0.961 . S
H789 C775 0.958 . S
H790 C775 0.961 . S
H791 C775 0.960 . S
C792 C793 1.391 . S
C792 C794 1.394 . S
C792 H808 0.931 . S
C793 C792 1.391 . S
C793 C797 1.376 . S
C794 C792 1.394 . S
C794 C795 1.369 . S
C794 C798 1.531 . S
C795 C794 1.369 . S
C795 C796 1.410 . S
C795 C803 1.503 . S
C796 C795 1.410 . S
C796 C797 1.392 . S
C796 C799 1.511 . S
C797 C793 1.376 . S
C797 C796 1.392 . S
C797 H809 0.929 . S
C798 C794 1.531 . S
C798 H810 0.960 . S
C798 H811 0.962 . S
C798 H812 0.960 . S
C799 C796 1.511 . S
C799 H813 0.961 . S
C799 H814 0.961 . S
C799 H815 0.961 . S
C800 C801 1.370 . S
C800 C802 1.363 . S
C800 H816 0.931 . S
C801 C800 1.370 . S
C801 C805 1.408 . S
C802 C800 1.363 . S
C802 C803 1.370 . S
C802 C806 1.524 . S
C803 C795 1.503 . S
C803 C802 1.370 . S
C803 C804 1.403 . S
C804 C803 1.403 . S
C804 C805 1.404 . S
C804 C807 1.539 . S
C805 C801 1.408 . S
C805 C804 1.404 . S
C805 H817 0.930 . S
C806 C802 1.524 . S
C806 H818 0.956 . S
C806 H819 0.961 . S
C806 H820 0.961 . S
C807 C804 1.539 . S
C807 H821 0.958 . S
C807 H822 0.961 . S
C807 H823 0.960 . S
H808 C792 0.931 . S
H809 C797 0.929 . S
H810 C798 0.960 . S
H811 C798 0.962 . S
H812 C798 0.960 . S
H813 C799 0.961 . S
H814 C799 0.961 . S
H815 C799 0.961 . S
H816 C800 0.931 . S
H817 C805 0.930 . S
H818 C806 0.956 . S
H819 C806 0.961 . S
H820 C806 0.961 . S
H821 C807 0.958 . S
H822 C807 0.961 . S
H823 C807 0.960 . S
C824 C825 1.391 . S
C824 C826 1.394 . S
C824 H840 0.931 . S
C825 C824 1.391 . S
C825 C829 1.376 . S
C826 C824 1.394 . S
C826 C827 1.369 . S
C826 C830 1.531 1_556 S
C827 C826 1.369 . S
C827 C828 1.410 . S
C827 C835 1.503 1_556 S
C828 C827 1.410 . S
C828 C829 1.392 . S
C828 C831 1.511 . S
C829 C825 1.376 . S
C829 C828 1.392 . S
C829 H841 0.929 . S
C830 C826 1.531 1_554 S
C830 H842 0.960 . S
C830 H843 0.962 . S
C830 H844 0.960 . S
C831 C828 1.511 . S
C831 H845 0.961 . S
C831 H846 0.961 . S
C831 H847 0.961 . S
C832 C833 1.370 . S
C832 C834 1.363 1_554 S
C832 H848 0.930 1_554 S
C833 C832 1.370 . S
C833 C837 1.408 . S
C834 C832 1.363 1_556 S
C834 C835 1.370 1_556 S
C834 C838 1.524 . S
C835 C827 1.503 1_554 S
C835 C834 1.370 1_554 S
C835 C836 1.403 . S
C836 C835 1.403 . S
C836 C837 1.404 . S
C836 C839 1.539 . S
C837 C833 1.408 . S
C837 C836 1.404 . S
C837 H849 0.930 . S
C838 C834 1.524 . S
C838 H850 0.956 . S
C838 H851 0.961 . S
C838 H852 0.961 . S
C839 C836 1.539 . S
C839 H853 0.958 . S
C839 H854 0.961 . S
C839 H855 0.960 . S
H840 C824 0.931 . S
H841 C829 0.929 . S
H842 C830 0.960 . S
H843 C830 0.962 . S
H844 C830 0.960 . S
H845 C831 0.961 . S
H846 C831 0.961 . S
H847 C831 0.961 . S
H848 C832 0.930 1_556 S
H849 C837 0.930 . S
H850 C838 0.956 . S
H851 C838 0.961 . S
H852 C838 0.961 . S
H853 C839 0.958 . S
H854 C839 0.961 . S
H855 C839 0.960 . S
C856 C857 1.391 . S
C856 C858 1.394 . S
C856 H872 0.931 . S
C857 C856 1.391 . S
C857 C861 1.376 . S
C858 C856 1.394 . S
C858 C859 1.369 . S
C858 C862 1.531 . S
C859 C858 1.369 . S
C859 C860 1.410 . S
C859 C867 1.503 . S
C860 C859 1.410 . S
C860 C861 1.392 . S
C860 C863 1.511 . S
C861 C857 1.376 . S
C861 C860 1.392 . S
C861 H873 0.929 . S
C862 C858 1.531 . S
C862 H874 0.960 . S
C862 H875 0.962 . S
C862 H876 0.960 . S
C863 C860 1.511 . S
C863 H877 0.961 . S
C863 H878 0.961 . S
C863 H879 0.961 . S
C864 C865 1.370 . S
C864 C866 1.363 . S
C864 H880 0.931 . S
C865 C864 1.370 . S
C865 C869 1.408 . S
C866 C864 1.363 . S
C866 C867 1.370 . S
C866 C870 1.524 . S
C867 C859 1.503 . S
C867 C866 1.370 . S
C867 C868 1.403 . S
C868 C867 1.403 . S
C868 C869 1.404 . S
C868 C871 1.539 1_655 S
C869 C865 1.408 . S
C869 C868 1.404 . S
C869 H881 0.930 1_655 S
C870 C866 1.524 . S
C870 H882 0.956 . S
C870 H883 0.961 . S
C870 H884 0.961 . S
C871 C868 1.539 1_455 S
C871 H885 0.958 . S
C871 H886 0.961 . S
C871 H887 0.960 . S
H872 C856 0.931 . S
H873 C861 0.929 . S
H874 C862 0.960 . S
H875 C862 0.962 . S
H876 C862 0.960 . S
H877 C863 0.961 . S
H878 C863 0.961 . S
H879 C863 0.961 . S
H880 C864 0.931 . S
H881 C869 0.930 1_455 S
H882 C870 0.956 . S
H883 C870 0.961 . S
H884 C870 0.961 . S
H885 C871 0.958 . S
H886 C871 0.961 . S
H887 C871 0.960 . S
C888 C889 1.391 . S
C888 C890 1.394 . S
C888 H904 0.931 . S
C889 C888 1.391 . S
C889 C893 1.376 . S
C890 C888 1.394 . S
C890 C891 1.369 . S
C890 C894 1.531 . S
C891 C890 1.369 . S
C891 C892 1.410 . S
C891 C899 1.503 . S
C892 C891 1.410 . S
C892 C893 1.392 . S
C892 C895 1.511 . S
C893 C889 1.376 . S
C893 C892 1.392 . S
C893 H905 0.929 . S
C894 C890 1.531 . S
C894 H906 0.960 . S
C894 H907 0.962 . S
C894 H908 0.960 . S
C895 C892 1.511 . S
C895 H909 0.961 . S
C895 H910 0.961 . S
C895 H911 0.961 . S
C896 C897 1.370 . S
C896 C898 1.363 . S
C896 H912 0.931 . S
C897 C896 1.370 . S
C897 C901 1.408 . S
C898 C896 1.363 . S
C898 C899 1.370 . S
C898 C902 1.524 . S
C899 C891 1.503 . S
C899 C898 1.370 . S
C899 C900 1.403 . S
C900 C899 1.403 . S
C900 C901 1.404 . S
C900 C903 1.539 . S
C901 C897 1.408 . S
C901 C900 1.404 . S
C901 H913 0.930 . S
C902 C898 1.524 . S
C902 H914 0.956 . S
C902 H915 0.961 . S
C902 H916 0.961 . S
C903 C900 1.539 . S
C903 H917 0.958 . S
C903 H918 0.961 . S
C903 H919 0.960 . S
H904 C888 0.931 . S
H905 C893 0.929 . S
H906 C894 0.960 . S
H907 C894 0.962 . S
H908 C894 0.960 . S
H909 C895 0.961 . S
H910 C895 0.961 . S
H911 C895 0.961 . S
H912 C896 0.931 . S
H913 C901 0.930 . S
H914 C902 0.956 . S
H915 C902 0.961 . S
H916 C902 0.961 . S
H917 C903 0.958 . S
H918 C903 0.961 . S
H919 C903 0.960 . S
C920 C921 1.391 . S
C920 C922 1.394 . S
C920 H936 0.931 . S
C921 C920 1.391 . S
C921 C925 1.376 . S
C922 C920 1.394 . S
C922 C923 1.369 . S
C922 C926 1.531 . S
C923 C922 1.369 . S
C923 C924 1.410 . S
C923 C931 1.503 . S
C924 C923 1.410 . S
C924 C925 1.392 . S
C924 C927 1.511 . S
C925 C921 1.376 . S
C925 C924 1.392 . S
C925 H937 0.929 . S
C926 C922 1.531 . S
C926 H938 0.960 . S
C926 H939 0.962 . S
C926 H940 0.960 . S
C927 C924 1.511 . S
C927 H941 0.961 . S
C927 H942 0.961 . S
C927 H943 0.961 . S
C928 C929 1.370 . S
C928 C930 1.363 . S
C928 H944 0.931 . S
C929 C928 1.370 . S
C929 C933 1.408 . S
C930 C928 1.363 . S
C930 C931 1.370 . S
C930 C934 1.524 . S
C931 C923 1.503 . S
C931 C930 1.370 . S
C931 C932 1.403 . S
C932 C931 1.403 . S
C932 C933 1.404 . S
C932 C935 1.539 . S
C933 C929 1.408 . S
C933 C932 1.404 . S
C933 H945 0.930 . S
C934 C930 1.524 . S
C934 H946 0.956 . S
C934 H947 0.961 . S
C934 H948 0.961 . S
C935 C932 1.539 . S
C935 H949 0.958 . S
C935 H950 0.961 . S
C935 H951 0.960 . S
H936 C920 0.931 . S
H937 C925 0.929 . S
H938 C926 0.960 . S
H939 C926 0.962 . S
H940 C926 0.960 . S
H941 C927 0.961 . S
H942 C927 0.961 . S
H943 C927 0.961 . S
H944 C928 0.931 . S
H945 C933 0.930 . S
H946 C934 0.956 . S
H947 C934 0.961 . S
H948 C934 0.961 . S
H949 C935 0.958 . S
H950 C935 0.961 . S
H951 C935 0.960 . S
C952 C953 1.391 . S
C952 C954 1.394 . S
C952 H968 0.931 . S
C953 C952 1.391 . S
C953 C957 1.376 . S
C954 C952 1.394 . S
C954 C955 1.369 . S
C954 C958 1.531 . S
C955 C954 1.369 . S
C955 C956 1.410 . S
C955 C963 1.503 . S
C956 C955 1.410 . S
C956 C957 1.392 . S
C956 C959 1.511 . S
C957 C953 1.376 . S
C957 C956 1.392 . S
C957 H969 0.929 . S
C958 C954 1.531 . S
C958 H970 0.960 . S
C958 H971 0.962 . S
C958 H972 0.960 . S
C959 C956 1.511 . S
C959 H973 0.961 . S
C959 H974 0.961 . S
C959 H975 0.961 . S
C960 C961 1.370 . S
C960 C962 1.363 . S
C960 H976 0.931 . S
C961 C960 1.370 . S
C961 C965 1.408 . S
C962 C960 1.363 . S
C962 C963 1.370 . S
C962 C966 1.524 . S
C963 C955 1.503 . S
C963 C962 1.370 . S
C963 C964 1.403 . S
C964 C963 1.403 . S
C964 C965 1.404 . S
C964 C967 1.539 . S
C965 C961 1.408 . S
C965 C964 1.404 . S
C965 H977 0.930 . S
C966 C962 1.524 . S
C966 H978 0.956 . S
C966 H979 0.961 . S
C966 H980 0.961 . S
C967 C964 1.539 . S
C967 H981 0.958 . S
C967 H982 0.939 1_556 S
C967 H983 0.960 . S
H968 C952 0.931 . S
H969 C957 0.929 . S
H970 C958 0.960 . S
H971 C958 0.962 . S
H972 C958 0.960 . S
H973 C959 0.961 . S
H974 C959 0.961 . S
H975 C959 0.961 . S
H976 C960 0.931 . S
H977 C965 0.930 . S
H978 C966 0.956 . S
H979 C966 0.961 . S
H980 C966 0.961 . S
H981 C967 0.958 . S
H982 C967 0.939 1_554 S
H983 C967 0.960 . S
C984 C985 1.391 . S
C984 C986 1.394 . S
C984 H1000 0.931 . S
C985 C984 1.391 . S
C985 C989 1.376 . S
C986 C984 1.394 . S
C986 C987 1.369 . S
C986 C990 1.531 . S
C987 C986 1.369 . S
C987 C988 1.410 . S
C987 C995 1.503 . S
C988 C987 1.410 . S
C988 C989 1.392 . S
C988 C991 1.511 . S
C989 C985 1.376 . S
C989 C988 1.392 . S
C989 H1001 0.929 . S
C990 C986 1.531 . S
C990 H1002 0.960 . S
C990 H1003 0.962 . S
C990 H1004 0.960 . S
C991 C988 1.511 . S
C991 H1005 0.961 . S
C991 H1006 0.961 . S
C991 H1007 0.961 . S
C992 C993 1.370 . S
C992 C994 1.363 . S
C992 H1008 0.931 . S
C993 C992 1.370 . S
C993 C997 1.408 . S
C994 C992 1.363 . S
C994 C995 1.370 . S
C994 C998 1.524 . S
C995 C987 1.503 . S
C995 C994 1.370 . S
C995 C996 1.403 . S
C996 C995 1.403 . S
C996 C997 1.404 . S
C996 C999 1.539 . S
C997 C993 1.408 . S
C997 C996 1.404 . S
C997 H1009 0.930 . S
C998 C994 1.524 . S
C998 H1010 0.956 . S
C998 H1011 0.961 . S
C998 H1012 0.961 . S
C999 C996 1.539 . S
C999 H1013 0.958 . S
C999 H1014 0.961 . S
C999 H1015 0.960 . S
H1000 C984 0.931 . S
H1001 C989 0.929 . S
H1002 C990 0.960 . S
H1003 C990 0.962 . S
H1004 C990 0.960 . S
H1005 C991 0.961 . S
H1006 C991 0.961 . S
H1007 C991 0.961 . S
H1008 C992 0.931 . S
H1009 C997 0.930 . S
H1010 C998 0.956 . S
H1011 C998 0.961 . S
H1012 C998 0.961 . S
H1013 C999 0.958 . S
H1014 C999 0.961 . S
H1015 C999 0.960 . S
C1016 C1017 1.391 . S
C1016 C1018 1.394 . S
C1016 H1032 0.931 . S
C1017 C1016 1.391 . S
C1017 C1021 1.376 . S
C1018 C1016 1.394 . S
C1018 C1019 1.369 . S
C1018 C1022 1.531 . S
C1019 C1018 1.369 . S
C1019 C1020 1.410 . S
C1019 C1027 1.503 . S
C1020 C1019 1.410 . S
C1020 C1021 1.392 . S
C1020 C1023 1.511 . S
C1021 C1017 1.376 . S
C1021 C1020 1.392 . S
C1021 H1033 0.929 . S
C1022 C1018 1.531 . S
C1022 H1034 0.960 . S
C1022 H1035 0.962 . S
C1022 H1036 0.960 . S
C1023 C1020 1.511 . S
C1023 H1037 0.961 . S
C1023 H1038 0.961 . S
C1023 H1039 0.961 . S
C1024 C1025 1.370 . S
C1024 C1026 1.363 . S
C1024 H1040 0.931 . S
C1025 C1024 1.370 . S
C1025 C1029 1.408 . S
C1026 C1024 1.363 . S
C1026 C1027 1.370 . S
C1026 C1030 1.524 . S
C1027 C1019 1.503 . S
C1027 C1026 1.370 . S
C1027 C1028 1.403 . S
C1028 C1027 1.403 . S
C1028 C1029 1.404 . S
C1028 C1031 1.539 . S
C1029 C1025 1.408 . S
C1029 C1028 1.404 . S
C1029 H1041 0.930 . S
C1030 C1026 1.524 . S
C1030 H1042 0.956 . S
C1030 H1043 0.961 . S
C1030 H1044 0.961 . S
C1031 C1028 1.539 . S
C1031 H1045 0.958 . S
C1031 H1046 0.961 . S
C1031 H1047 0.960 . S
H1032 C1016 0.931 . S
H1033 C1021 0.929 . S
H1034 C1022 0.960 . S
H1035 C1022 0.962 . S
H1036 C1022 0.960 . S
H1037 C1023 0.961 . S
H1038 C1023 0.961 . S
H1039 C1023 0.961 . S
H1040 C1024 0.931 . S
H1041 C1029 0.930 . S
H1042 C1030 0.956 . S
H1043 C1030 0.961 . S
H1044 C1030 0.961 . S
H1045 C1031 0.958 . S
H1046 C1031 0.961 . S
H1047 C1031 0.960 . S
C1048 C1049 1.391 . S
C1048 C1050 1.394 . S
C1048 H1064 0.931 . S
C1049 C1048 1.391 . S
C1049 C1053 1.376 . S
C1050 C1048 1.394 . S
C1050 C1051 1.369 . S
C1050 C1054 1.531 . S
C1051 C1050 1.369 . S
C1051 C1052 1.410 . S
C1051 C1059 1.503 . S
C1052 C1051 1.410 . S
C1052 C1053 1.392 . S
C1052 C1055 1.511 . S
C1053 C1049 1.376 . S
C1053 C1052 1.392 . S
C1053 H1065 0.929 . S
C1054 C1050 1.531 . S
C1054 H1066 0.960 . S
C1054 H1067 0.962 . S
C1054 H1068 0.960 . S
C1055 C1052 1.511 . S
C1055 H1069 0.961 . S
C1055 H1070 0.961 . S
C1055 H1071 0.961 . S
C1056 C1057 1.370 . S
C1056 C1058 1.363 . S
C1056 H1072 0.931 . S
C1057 C1056 1.370 . S
C1057 C1061 1.408 . S
C1058 C1056 1.363 . S
C1058 C1059 1.370 . S
C1058 C1062 1.524 . S
C1059 C1051 1.503 . S
C1059 C1058 1.370 . S
C1059 C1060 1.403 . S
C1060 C1059 1.403 . S
C1060 C1061 1.404 . S
C1060 C1063 1.539 . S
C1061 C1057 1.408 . S
C1061 C1060 1.404 . S
C1061 H1073 0.930 . S
C1062 C1058 1.524 . S
C1062 H1074 0.956 . S
C1062 H1075 0.961 . S
C1062 H1076 0.961 . S
C1063 C1060 1.539 . S
C1063 H1077 0.958 . S
C1063 H1078 0.961 . S
C1063 H1079 0.960 . S
H1064 C1048 0.931 . S
H1065 C1053 0.929 . S
H1066 C1054 0.960 . S
H1067 C1054 0.962 . S
H1068 C1054 0.960 . S
H1069 C1055 0.961 . S
H1070 C1055 0.961 . S
H1071 C1055 0.961 . S
H1072 C1056 0.931 . S
H1073 C1061 0.930 . S
H1074 C1062 0.956 . S
H1075 C1062 0.961 . S
H1076 C1062 0.961 . S
H1077 C1063 0.958 . S
H1078 C1063 0.961 . S
H1079 C1063 0.960 . S
C313 C6 1.016 . S
C321 C156 1.052 . S
C345 C21 1.521 . S
C353 C217 1.543 . S
C385 C255 1.941 . S
C377 C49 1.880 . S
C409 C68 2.089 . S
C417 C295 2.160 1_655 S
C449 C215 2.124 . S
C441 C2 2.118 . S
C481 C183 1.657 1_565 S
C473 C30 1.580 . S
C513 C292 1.665 . S
C505 C40 1.669 . S
C545 C252 1.620 . S
C537 C63 1.665 . S
C569 C11 0.888 . S
C577 C297 1.084 . S
C609 C212 2.696 . S
C601 C44 2.690 . S
C633 C59 1.739 . S
C641 C154 1.731 . S
C665 C25 1.784 . S
C673 C257 1.828 . S
C705 C177 1.251 . S
C697 C82 1.219 . S
C729 C101 1.189 . S
C737 C196 1.248 . S
C761 C125 2.292 . S
C769 C234 2.321 . S
C793 C144 1.779 . S
C801 C274 1.816 . S
C825 C87 1.023 . S
C833 C194 1.015 1_565 S
C865 C172 2.663 . S
C857 C97 2.581 . S
C897 C303 1.474 . S
C889 C120 1.543 . S
C929 C263 1.829 . S
C921 C135 1.823 . S
C953 C78 1.570 . S
C961 C276 1.593 . S
C993 C223 1.969 . S
C985 C116 1.930 . S
C1025 C175 2.443 . S
C1017 C139 2.481 . S
C1049 C106 0.980 . S
C1057 C236 1.370 . S
