# Generated by pormake.
# Topology pts, (4,4)-cn, num edge types: 1
# Building blocks:
#     Node 0, Type 0, BuildingBlock: MIFKUJ_clean_linker_1, # of connection points: 4
#     Node 1, Type 0, BuildingBlock: MIFKUJ_clean_linker_1, # of connection points: 4
#     Node 2, Type 1, BuildingBlock: UXUYUI_clean_sbu_0, # of connection points: 4
#     Node 3, Type 1, BuildingBlock: UXUYUI_clean_sbu_0, # of connection points: 4
#     Edge 4, Type (0, 1), BuildingBlock: FUNLAD_clean_linker_1, # of connection points: 2
#     Edge 5, Type (0, 1), BuildingBlock: FUNLAD_clean_linker_1, # of connection points: 2
#     Edge 6, Type (0, 1), BuildingBlock: FUNLAD_clean_linker_1, # of connection points: 2
#     Edge 7, Type (0, 1), BuildingBlock: FUNLAD_clean_linker_1, # of connection points: 2
#     Edge 8, Type (0, 1), BuildingBlock: FUNLAD_clean_linker_1, # of connection points: 2
#     Edge 9, Type (0, 1), BuildingBlock: FUNLAD_clean_linker_1, # of connection points: 2
#     Edge 10, Type (0, 1), BuildingBlock: FUNLAD_clean_linker_1, # of connection points: 2
#     Edge 11, Type (0, 1), BuildingBlock: FUNLAD_clean_linker_1, # of connection points: 2
# Relax obj value: 0.001
# Max RMSD: 0.016
# Mean RMSD: 0.014
data_MOF--net-pts--node1-UXUYUI_clean_sbu_0--node2-MIFKUJ_clean_linker_1--edge1-FUNLAD_clean_linker_1
_symmetry_space_group_name_H-M    P1
_symmetry_Int_Tables_number       1
_symmetry_cell_setting            triclinic
loop_
_symmetry_equiv_pos_as_xyz
'x, y, z'
_cell_length_a     36.757463
_cell_length_b     36.80539
_cell_length_c     50.438472
_cell_angle_alpha  90.108821
_cell_angle_beta   90.118868
_cell_angle_gamma 89.857615
loop_
_atom_site_label
_atom_site_type_symbol
_atom_site_fract_x
_atom_site_fract_y
_atom_site_fract_z
_atom_type_partial_charge
H0 H 0.57488 0.97008 0.0611 0.0
H1 H 0.62966 0.97624 0.08768 0.0
H2 H 0.6557 0.07591 0.04662 0.0
H3 H 0.59973 0.07007 0.02061 0.0
H4 H 0.51729 0.01251 0.05961 0.0
H5 H 0.60526 0.97166 0.99604 0.0
H6 H 0.65868 0.97298 0.96763 0.0
H7 H 0.61666 0.06881 0.92856 0.0
H8 H 0.5631 0.06728 0.95724 0.0
H9 H 0.45415 0.06029 0.96023 0.0
H10 H 0.3984 0.05534 0.93478 0.0
H11 H 0.37239 0.95549 0.97573 0.0
H12 H 0.42927 0.96028 1.00065 0.0
H13 H 0.51191 0.01754 0.96146 0.0
H14 H 0.42469 0.05909 0.02592 0.0
H15 H 0.3714 0.05754 0.05435 0.0
H16 H 0.41215 0.95966 0.09151 0.0
H17 H 0.4657 0.96164 0.06286 0.0
C18 C 0.58337 0.01933 0.03861 0.0
C19 C 0.59253 0.99313 0.05768 0.0
C20 C 0.62431 0.99655 0.07272 0.0
C21 C 0.64775 0.02631 0.0689 0.0
C22 C 0.63842 0.05252 0.04981 0.0
C23 C 0.60657 0.04911 0.03483 0.0
C24 C 0.54863 0.01636 0.02369 0.0
C25 C 0.51618 0.01307 0.03812 0.0
C26 C 0.54708 0.0181 0.99567 0.0
C27 C 0.58037 0.01967 0.97906 0.0
C28 C 0.60788 0.99336 0.98171 0.0
C29 C 0.63861 0.99429 0.96542 0.0
C30 C 0.64237 0.02159 0.94608 0.0
C31 C 0.61465 0.04766 0.94339 0.0
C32 C 0.58402 0.04677 0.95972 0.0
C33 C 0.44575 0.01094 0.9826 0.0
C34 C 0.43638 0.03737 0.96376 0.0
C35 C 0.40403 0.03455 0.94929 0.0
C36 C 0.38024 1.00509 0.95341 0.0
C37 C 0.3899 0.97862 0.97222 0.0
C38 C 0.42232 0.98142 0.9866 0.0
C39 C 0.48062 0.01372 0.9974 0.0
C40 C 0.51307 0.01698 0.98295 0.0
C41 C 0.48221 0.01194 0.0254 0.0
C42 C 0.44899 0.01025 0.04203 0.0
C43 C 0.42184 0.03698 0.03991 0.0
C44 C 0.39115 0.03591 0.05624 0.0
C45 C 0.38704 0.00795 0.07507 0.0
C46 C 0.4144 0.98138 0.07713 0.0
C47 C 0.44503 0.9825 0.06082 0.0
H48 H 0.0659 0.45131 0.46238 0.0
H49 H 0.06042 0.39725 0.43461 0.0
H50 H 0.9522 0.37902 0.46509 0.0
H51 H 0.95774 0.43366 0.49265 0.0
H52 H 0.02464 0.51268 0.46096 0.0
H53 H 0.0546 0.4206 0.52412 0.0
H54 H 0.04701 0.36507 0.54956 0.0
H55 H 0.94865 0.40879 0.58423 0.0
H56 H 0.95589 0.46405 0.55785 0.0
H57 H 0.9677 0.57406 0.55822 0.0
H58 H 0.97202 0.62908 0.58488 0.0
H59 H 0.07814 0.65072 0.55169 0.0
H60 H 0.07399 0.59477 0.52558 0.0
H61 H 0.00841 0.51388 0.55856 0.0
H62 H 0.97801 0.60566 0.49495 0.0
H63 H 0.9854 0.66097 0.46921 0.0
H64 H 0.08438 0.6176 0.43523 0.0
H65 H 0.07732 0.56258 0.46189 0.0
C66 C 0.01242 0.44627 0.47981 0.0
C67 C 0.04113 0.43547 0.46325 0.0
C68 C 0.03807 0.40425 0.44759 0.0
C69 C 1.00607 0.38333 0.44813 0.0
C70 C 0.97727 0.39442 0.46453 0.0
C71 C 0.98046 0.4255 0.48033 0.0
C72 C 0.01535 0.48009 0.49569 0.0
C73 C 0.02163 0.5129 0.48236 0.0
C74 C 0.01045 0.48041 0.5235 0.0
C75 C 1.00571 0.44645 0.53895 0.0
C76 C 0.03125 0.41813 0.53705 0.0
C77 C 0.02711 0.38649 0.55201 0.0
C78 C 0.99751 0.38275 0.5695 0.0
C79 C 0.97184 0.411 0.57111 0.0
C80 C 0.97599 0.44261 0.55612 0.0
C81 C 0.02026 0.58053 0.53961 0.0
C82 C 0.99183 0.59074 0.55662 0.0
C83 C 0.99421 0.62261 0.57164 0.0
C84 C 0.02518 0.64496 0.56991 0.0
C85 C 0.0538 0.63431 0.55318 0.0
C86 C 0.05139 0.60245 0.53817 0.0
C87 C 0.01767 0.54653 0.52384 0.0
C88 C 0.01143 0.51368 0.53717 0.0
C89 C 0.02257 0.54615 0.496 0.0
C90 C 0.02719 0.58003 0.48045 0.0
C91 C 1.00143 0.60817 0.48209 0.0
C92 C 1.00548 0.63968 0.46697 0.0
C93 C 0.03521 0.64344 0.4496 0.0
C94 C 0.0611 0.61538 0.44827 0.0
C95 C 0.05705 0.5839 0.46341 0.0
Li96 Li 0.01542 0.04614 0.2775 0.0
Li97 Li 0.0144 0.97973 0.27807 0.0
Li98 Li 0.04829 0.01299 0.24396 0.0
Li99 Li 0.98193 0.01146 0.24375 0.0
C100 C 0.07531 0.02684 0.30332 0.0
N101 N 0.10984 0.05859 0.34617 0.0
C102 C 0.073 0.01098 0.32841 0.0
C103 C 0.09534 0.05875 0.29999 0.0
C104 C 0.09065 0.02745 0.34983 0.0
C105 C 0.11251 0.07443 0.32192 0.0
C106 C 0.93672 0.01951 0.28299 0.0
C107 C 0.87525 0.99825 0.27684 0.0
N108 N 0.8627 0.03254 0.28115 0.0
C109 C 0.92322 0.05453 0.28742 0.0
C110 C 0.91257 0.99108 0.27774 0.0
C111 C 0.8857 0.06056 0.28641 0.0
C112 C 0.01839 0.12182 0.28972 0.0
N113 N 0.01489 0.08786 0.29994 0.0
C114 C 0.01284 0.11168 0.34401 0.0
C115 C 0.01143 0.08237 0.32646 0.0
C116 C 0.01666 0.14702 0.33412 0.0
C117 C 0.0193 0.15202 0.30655 0.0
H118 H 0.02077 0.12542 0.26854 0.0
H119 H 1.00811 0.0551 0.33398 0.0
C120 C 0.04491 0.91775 0.30326 0.0
N121 N 0.01439 0.93841 0.30081 0.0
C122 C 0.04509 0.88727 0.31974 0.0
C123 C 0.98259 0.90031 0.33116 0.0
C124 C 0.98364 0.93046 0.31446 0.0
C125 C 0.0135 0.87818 0.33405 0.0
H126 H 0.06913 0.92497 0.29234 0.0
H127 H 0.95991 0.94759 0.31245 0.0
C128 C 0.0287 0.07118 0.21769 0.0
N129 N 0.06114 0.10259 0.17404 0.0
C130 C 0.01497 0.06457 0.19227 0.0
C131 C 0.0588 0.09392 0.22092 0.0
C132 C 0.03176 0.08071 0.17045 0.0
C133 C 0.07487 0.10947 0.1986 0.0
C134 C 0.02166 0.93399 0.23889 0.0
C135 C 0.05654 0.92025 0.23418 0.0
C136 C 0.99317 0.91009 0.24442 0.0
C137 C 0.06235 0.88274 0.23513 0.0
C138 C 1.00012 0.87277 0.24526 0.0
N139 N 0.03427 0.85999 0.24063 0.0
C140 C 0.12294 0.02272 0.22999 0.0
C141 C 0.08402 1.00281 0.19543 0.0
C142 C 0.15249 0.02374 0.21261 0.0
N143 N 0.08954 0.01264 0.22111 0.0
C144 C 0.11272 1.00347 0.17738 0.0
C145 C 0.14755 0.01392 0.18584 0.0
H146 H 0.12661 0.03034 0.25051 0.0
H147 H 0.05713 0.9948 0.18895 0.0
C148 C 0.92038 0.04199 0.21803 0.0
N149 N 0.94033 0.01114 0.22114 0.0
C150 C 0.88995 0.04222 0.20136 0.0
C151 C 0.90164 0.9791 0.1911 0.0
C152 C 0.93178 0.98012 0.20793 0.0
C153 C 0.88007 0.01028 0.18774 0.0
H154 H 0.92828 0.06649 0.2284 0.0
H155 H 0.94849 0.95619 0.21033 0.0
O156 O 0.05781 0.01138 0.28217 0.0
O157 O 0.97341 0.01319 0.28332 0.0
O158 O 0.0132 0.05494 0.23924 0.0
O159 O 0.01555 0.97067 0.23854 0.0
H160 H 0.05749 0.98641 0.3314 0.0
H161 H 0.09707 0.07163 0.28079 0.0
H162 H 0.08898 0.01555 0.36938 0.0
H163 H 0.12785 0.09928 0.31967 0.0
H164 H 0.85628 0.97657 0.27259 0.0
H165 H 0.94149 0.07689 0.29136 0.0
H166 H 0.92259 0.9639 0.27394 0.0
H167 H 0.87487 0.08754 0.2897 0.0
H168 H 0.01078 0.1068 0.36513 0.0
H169 H 0.02301 0.17876 0.29808 0.0
H170 H 0.06972 0.87132 0.32091 0.0
H171 H 0.95774 0.89441 0.34182 0.0
H172 H 0.99188 0.04684 0.18937 0.0
H173 H 0.06994 0.0991 0.24043 0.0
H174 H 0.02154 0.0757 0.15066 0.0
H175 H 0.09834 0.1269 0.20079 0.0
H176 H 0.07899 0.93832 0.23011 0.0
H177 H 0.96612 0.92028 0.24851 0.0
H178 H 0.08923 0.87173 0.23161 0.0
H179 H 0.97839 0.85399 0.24971 0.0
H180 H 0.17846 0.03283 0.22016 0.0
H181 H 0.1077 0.99584 0.15694 0.0
H182 H 0.87502 0.06734 0.19902 0.0
H183 H 0.89524 0.95407 0.18078 0.0
Li184 Li 0.97971 0.01553 0.77638 0.0
Li185 Li 0.05049 0.01359 0.77392 0.0
Li186 Li 0.01262 0.04533 0.74088 0.0
Li187 Li 0.01298 0.9823 0.74151 0.0
C188 C 0.01615 0.09216 0.78124 0.0
N189 N 0.01635 0.16717 0.78261 0.0
C190 C 0.04802 0.11123 0.77559 0.0
C191 C 0.98445 0.11117 0.78778 0.0
C192 C 0.04753 0.14918 0.7763 0.0
C193 C 0.9851 0.14912 0.78834 0.0
C194 C 0.01285 0.93726 0.78262 0.0
C195 C 0.04145 0.87873 0.78809 0.0
N196 N 0.00859 0.86242 0.78472 0.0
C197 C 0.97933 0.91998 0.77938 0.0
C198 C 0.04418 0.91656 0.78712 0.0
C199 C 0.97775 0.88209 0.78043 0.0
C200 C 0.9083 0.99946 0.79349 0.0
N201 N 0.94009 0.01572 0.8004 0.0
C202 C 0.91619 0.03156 0.84289 0.0
C203 C 0.94462 0.03144 0.82456 0.0
C204 C 0.8828 0.01544 0.83629 0.0
C205 C 0.87913 0.99894 0.81121 0.0
H206 H 0.9057 0.98672 0.77423 0.0
H207 H 0.97039 0.04383 0.82959 0.0
C208 C 0.12227 0.0343 0.786 0.0
N209 N 0.09339 0.01481 0.7948 0.0
C210 C 0.1539 0.03663 0.80127 0.0
C211 C 0.12549 0.99869 0.83434 0.0
C212 C 0.09431 0.99726 0.81847 0.0
C213 C 0.15593 0.0185 0.82568 0.0
H214 H 0.12066 0.0481 0.76712 0.0
H215 H 0.07065 0.98246 0.82513 0.0
C216 C 0.94743 0.03184 0.72113 0.0
N217 N 0.90366 0.07041 0.68654 0.0
C218 C 0.95467 0.03137 0.69394 0.0
C219 C 0.91771 0.05162 0.73071 0.0
C220 C 0.93231 0.05116 0.67678 0.0
C221 C 0.89594 0.07099 0.7129 0.0
C222 C 0.07612 0.99495 0.71766 0.0
C223 C 0.06605 0.9934 0.69095 0.0
C224 C 0.10735 0.97665 0.72624 0.0
C225 C 0.08712 0.97305 0.67329 0.0
C226 C 0.12775 0.95665 0.70795 0.0
N227 N 0.11727 0.95524 0.68209 0.0
C228 C 0.04183 0.0921 0.70227 0.0
C229 C 0.98631 0.11359 0.72017 0.0
C230 C 0.04437 0.12258 0.68598 0.0
N231 N 0.01301 0.08799 0.71882 0.0
C232 C 0.98773 0.14454 0.70422 0.0
C233 C 0.01701 0.14919 0.68662 0.0
H234 H 0.06314 0.07185 0.70187 0.0
H235 H 0.96406 0.11031 0.73388 0.0
C236 C 0.97922 0.93323 0.70615 0.0
N237 N 0.01013 0.93872 0.72043 0.0
C238 C 0.97537 0.90217 0.69047 0.0
C239 C 0.03501 0.88255 0.70471 0.0
C240 C 0.03761 0.91389 0.72023 0.0
C241 C 1.00365 0.87658 0.68932 0.0
H242 H 0.95738 0.95289 0.70703 0.0
H243 H 0.0615 0.91819 0.7323 0.0
O244 O 0.01591 0.05505 0.7802 0.0
O245 O 0.01504 0.97425 0.78111 0.0
O246 O 0.9691 0.01275 0.73824 0.0
O247 O 0.0558 0.01469 0.73526 0.0
H248 H 0.07271 0.09689 0.77038 0.0
H249 H 0.95949 0.09679 0.79203 0.0
H250 H 0.07192 0.16432 0.77179 0.0
H251 H 0.96072 0.16421 0.79322 0.0
H252 H 0.06549 0.86232 0.7914 0.0
H253 H 0.95489 0.93565 0.77575 0.0
H254 H 0.07037 0.92955 0.78947 0.0
H255 H 0.95204 0.86831 0.77778 0.0
H256 H 0.92026 0.04426 0.86206 0.0
H257 H 0.85448 0.98514 0.8053 0.0
H258 H 0.17666 0.05237 0.79402 0.0
H259 H 0.1252 0.98513 0.85335 0.0
H260 H 0.9774 0.016 0.68619 0.0
H261 H 0.91181 0.05247 0.7517 0.0
H262 H 0.93774 0.05122 0.65571 0.0
H263 H 0.87299 0.08662 0.72005 0.0
H264 H 0.04213 0.00763 0.68395 0.0
H265 H 0.11549 0.97742 0.74685 0.0
H266 H 0.07951 0.97142 0.6526 0.0
H267 H 0.15184 0.94214 0.71434 0.0
H268 H 0.06761 0.12533 0.67297 0.0
H269 H 0.96645 0.16467 0.70622 0.0
H270 H 0.95054 0.89828 0.67921 0.0
H271 H 0.05706 0.86304 0.7053 0.0
H272 H 0.35807 0.98787 0.11052 0.0
C273 C 0.35566 1.00607 0.09363 0.0
H274 H 0.32032 0.0434 0.07431 0.0
H275 H 0.20986 0.95059 0.15352 0.0
H276 H 0.22097 0.89998 0.12375 0.0
H277 H 0.26523 0.90525 0.08726 0.0
H278 H 0.29904 0.96098 0.08059 0.0
C279 C 0.32448 0.0249 0.09073 0.0
C280 C 0.29522 0.02261 0.11102 0.0
C281 C 0.27478 0.99024 0.11405 0.0
C282 C 0.24822 0.9877 0.13444 0.0
C283 C 0.22945 0.95447 0.13782 0.0
C284 C 0.23571 0.92511 0.12095 0.0
C285 C 0.26071 0.92803 0.10046 0.0
C286 C 0.28008 0.96014 0.09695 0.0
H287 H 0.16984 0.01423 0.14511 0.0
C288 C 0.1774 0.01505 0.16597 0.0
H289 H 0.22218 0.01658 0.1926 0.0
H290 H 0.32908 0.08877 0.11018 0.0
H291 H 0.31655 0.14009 0.13902 0.0
H292 H 0.26931 0.13628 0.17358 0.0
H293 H 0.2344 0.08105 0.17958 0.0
C294 C 0.213 0.01597 0.17217 0.0
C295 C 0.24124 0.018 0.15113 0.0
C296 C 0.26128 0.05052 0.14781 0.0
C297 C 0.28826 0.05285 0.12772 0.0
C298 C 0.30807 0.08559 0.12499 0.0
C299 C 0.30118 0.11527 0.14143 0.0
C300 C 0.2746 0.11311 0.16089 0.0
C301 C 0.2548 0.08121 0.16414 0.0
H302 H 0.96532 0.34556 0.59466 0.0
C303 C 0.99212 0.34984 0.58611 0.0
H304 H 0.04652 0.33063 0.58574 0.0
H305 H 0.03178 0.24633 0.69403 0.0
H306 H 0.06996 0.29689 0.70711 0.0
H307 H 0.08218 0.34716 0.67614 0.0
H308 H 0.05611 0.34726 0.63194 0.0
C309 C 0.01876 0.32609 0.59214 0.0
C310 C 0.01206 0.29504 0.61035 0.0
C311 C 0.02809 0.29506 0.63594 0.0
C312 C 0.0215 0.2658 0.65366 0.0
C313 C 0.03671 0.26727 0.67947 0.0
C314 C 0.05848 0.2963 0.68733 0.0
C315 C 0.06533 0.32462 0.66991 0.0
C316 C 0.05026 0.32426 0.64455 0.0
H317 H 0.04736 0.18665 0.66054 0.0
C318 C 0.02086 0.1817 0.66938 0.0
H319 H 0.96603 0.19974 0.67035 0.0
H320 H 0.97943 0.28508 0.56196 0.0
H321 H 0.94123 0.23452 0.54889 0.0
H322 H 0.92907 0.18421 0.57985 0.0
H323 H 0.95524 0.18408 0.62403 0.0
C324 C 0.99353 0.20476 0.66357 0.0
C325 C 0.99946 0.23618 0.64554 0.0
C326 C 0.98329 0.23624 0.62 0.0
C327 C 0.98986 0.26552 0.60227 0.0
C328 C 0.97456 0.2641 0.57649 0.0
C329 C 0.95276 0.23508 0.56865 0.0
C330 C 0.94595 0.20674 0.58607 0.0
C331 C 0.96109 0.20707 0.61141 0.0
H332 H 0.69294 0.05904 0.08545 0.0
C333 C 0.68109 0.03198 0.08518 0.0
H334 H 0.68714 0.97814 0.09958 0.0
H335 H 0.851 0.04597 0.12276 0.0
H336 H 0.85787 0.04637 0.07494 0.0
H337 H 0.80634 0.03077 0.04568 0.0
H338 H 0.7475 0.01522 0.06405 0.0
C339 C 0.69754 1.00566 0.09932 0.0
C340 C 0.72926 0.01373 0.1167 0.0
C341 C 0.76374 0.02173 0.1056 0.0
C342 C 0.79383 0.02935 0.12249 0.0
C343 C 0.82757 0.03874 0.11089 0.0
C344 C 0.83183 0.03928 0.08346 0.0
C345 C 0.80279 0.03061 0.06698 0.0
C346 C 0.76909 0.0219 0.0778 0.0
H347 H 0.84629 0.98448 0.15666 0.0
C348 C 0.84834 0.00825 0.16944 0.0
H349 H 0.82086 0.05616 0.1817 0.0
H350 H 0.66673 1.00011 0.14432 0.0
H351 H 0.66021 0.99839 0.19215 0.0
H352 H 0.7128 0.00979 0.22144 0.0
H353 H 0.7722 0.02316 0.2031 0.0
C354 C 0.82152 0.03315 0.16827 0.0
C355 C 0.78966 0.02769 0.15043 0.0
C356 C 0.75515 0.0199 0.1615 0.0
C357 C 0.72492 0.01291 0.14462 0.0
C358 C 0.69071 1.0053 0.15621 0.0
C359 C 0.68655 1.00427 0.18364 0.0
C360 C 0.71616 0.01073 0.20013 0.0
C361 C 0.75011 0.01842 0.18932 0.0
H362 H 0.05669 0.68922 0.5888 0.0
C363 C 0.02933 0.67869 0.58591 0.0
H364 H 0.97343 0.68829 0.59374 0.0
H365 H 1.0055 0.77808 0.69839 0.0
H366 H 0.98207 0.72209 0.71687 0.0
H367 H 0.96989 0.6691 0.68821 0.0
H368 H 0.9812 0.67174 0.6409 0.0
C369 C 1.00126 0.69734 0.59635 0.0
C370 C 1.00744 0.72997 0.61323 0.0
C371 C 1.00005 0.72818 0.64078 0.0
C372 C 1.00669 0.75887 0.65726 0.0
C373 C 1.0002 0.7559 0.68484 0.0
C374 C 0.98694 0.72383 0.69575 0.0
C375 C 0.98011 0.69398 0.67962 0.0
C376 C 0.98666 0.69591 0.65247 0.0
H377 H 0.97131 0.83565 0.66738 0.0
C378 C 0.99889 0.84357 0.67268 0.0
H379 H 0.05474 0.83226 0.66624 0.0
H380 H 0.02116 0.74374 0.5608 0.0
H381 H 0.04441 0.79982 0.54232 0.0
H382 H 0.05714 0.85261 0.57106 0.0
H383 H 0.04641 0.8497 0.61847 0.0
C384 C 0.02679 0.82382 0.66313 0.0
C385 C 0.02021 0.79147 0.64607 0.0
C386 C 0.02745 0.79333 0.61852 0.0
C387 C 0.02069 0.76268 0.60201 0.0
C388 C 0.02676 0.76581 0.57438 0.0
C389 C 0.03988 0.79795 0.56347 0.0
C390 C 0.047 0.82768 0.57965 0.0
C391 C 0.04079 0.82562 0.60684 0.0
H392 H 0.33143 0.97455 0.94053 0.0
C393 C 0.34579 1.00016 0.93818 0.0
H394 H 0.34409 0.05115 0.91843 0.0
H395 H 0.24912 0.98669 0.82427 0.0
H396 H 0.30849 0.98715 0.80347 0.0
H397 H 0.36358 1.00167 0.82938 0.0
H398 H 0.35961 0.01547 0.87634 0.0
C399 C 0.33121 0.02516 0.92184 0.0
C400 C 0.29769 0.01721 0.90633 0.0
C401 C 0.30035 0.01015 0.87878 0.0
C402 C 0.26849 1.00264 0.86371 0.0
C403 C 0.27221 0.99391 0.83648 0.0
C404 C 0.30621 0.99375 0.82432 0.0
C405 C 0.33723 1.00187 0.83892 0.0
C406 C 0.33453 0.00983 0.86585 0.0
H407 H 0.20734 0.04496 0.83774 0.0
C408 C 0.18962 0.02201 0.84181 0.0
H409 H 0.18352 0.97422 0.86475 0.0
H410 H 0.28301 0.03064 0.95866 0.0
H411 H 0.22366 0.03005 0.97957 0.0
H412 H 0.16832 0.01729 0.95345 0.0
H413 H 0.17197 1.0051 0.90626 0.0
C414 C 0.20007 0.99778 0.86028 0.0
C415 C 0.23386 1.00333 0.87612 0.0
C416 C 0.23128 0.00986 0.90378 0.0
C417 C 0.26321 0.01698 0.91889 0.0
C418 C 0.25973 0.02444 0.94632 0.0
C419 C 0.2258 0.02436 0.95856 0.0
C420 C 0.19463 0.0172 0.94386 0.0
C421 C 0.19714 0.01017 0.91677 0.0
H422 H 0.97353 0.34372 0.42515 0.0
C423 C 1.00112 0.35101 0.43084 0.0
H424 H 0.05666 0.3362 0.42817 0.0
H425 H 0.96395 0.19065 0.38585 0.0
H426 H 0.93972 0.18728 0.43042 0.0
H427 H 0.95488 0.23404 0.46374 0.0
H428 H 0.99351 0.28494 0.45242 0.0
C429 C 0.02886 0.33002 0.42249 0.0
C430 C 0.02292 0.29939 0.40363 0.0
C431 C 1.00193 0.26875 0.41106 0.0
C432 C 0.99512 0.24056 0.39235 0.0
C433 C 0.97171 0.21176 0.39966 0.0
C434 C 0.95732 0.20966 0.42513 0.0
C435 C 0.9657 0.23607 0.44385 0.0
C436 C 0.98772 0.26532 0.43701 0.0
H437 H 0.03085 0.17231 0.37254 0.0
C438 C 0.01929 0.17774 0.35307 0.0
H439 H 0.99456 0.21723 0.32855 0.0
H440 H 0.06387 0.3545 0.38282 0.0
H441 H 0.09063 0.35635 0.33898 0.0
H442 H 0.08211 0.30566 0.30755 0.0
H443 H 0.04647 0.25299 0.31964 0.0
C444 C 1.00677 0.21128 0.34768 0.0
C445 C 0.0114 0.24182 0.36685 0.0
C446 C 0.03279 0.27223 0.35958 0.0
C447 C 0.03833 0.30112 0.37791 0.0
C448 C 0.05922 0.33149 0.36988 0.0
C449 C 0.07471 0.33297 0.34473 0.0
C450 C 0.06987 0.30445 0.32703 0.0
C451 C 0.04924 0.27438 0.33424 0.0
H452 H 0.67032 0.03834 0.90928 0.0
C453 C 0.67373 0.02293 0.92751 0.0
H454 H 0.71104 0.99162 0.95012 0.0
H455 H 0.80339 0.94213 0.85076 0.0
H456 H 0.77387 0.88565 0.86278 0.0
H457 H 0.72637 0.88445 0.89724 0.0
H458 H 0.7082 0.93968 0.92 0.0
C459 C 0.7061 1.00698 0.93214 0.0
C460 C 0.73558 0.0079 0.91193 0.0
C461 C 0.74582 0.97538 0.89879 0.0
C462 C 0.77292 0.97613 0.87871 0.0
C463 C 0.78274 0.94319 0.866 0.0
C464 C 0.76604 0.91055 0.87272 0.0
C465 C 0.73932 0.90987 0.89214 0.0
C466 C 0.72919 0.9418 0.90507 0.0
H467 H 0.86049 0.02159 0.8768 0.0
C468 C 0.85316 0.01556 0.85635 0.0
H469 H 0.80898 1.00402 0.83054 0.0
H470 H 0.72566 0.07437 0.93547 0.0
H471 H 0.75402 0.13109 0.92268 0.0
H472 H 0.79806 0.13308 0.88588 0.0
H473 H 0.81448 0.07826 0.86196 0.0
C474 C 0.81787 0.00981 0.8506 0.0
C475 C 0.78975 0.00939 0.8718 0.0
C476 C 0.77956 0.04195 0.88496 0.0
C477 C 0.75298 0.04108 0.90543 0.0
C478 C 0.74462 0.07368 0.91911 0.0
C479 C 0.76088 0.10641 0.91209 0.0
C480 C 0.78577 0.10751 0.89143 0.0
C481 C 0.79509 0.07577 0.87795 0.0
H482 H 0.06738 0.68061 0.42443 0.0
C483 C 0.04047 0.67611 0.43273 0.0
H484 H 0.98611 0.69575 0.43338 0.0
H485 H 0.03345 0.8563 0.4037 0.0
H486 H 0.02159 0.86376 0.45069 0.0
H487 H 0.00908 0.81066 0.479 0.0
H488 H 0.00847 0.74975 0.46049 0.0
C489 C 0.01358 0.69922 0.42604 0.0
C490 C 0.02067 0.73107 0.40872 0.0
C491 C 0.02028 0.76651 0.41975 0.0
C492 C 0.02706 0.79715 0.40337 0.0
C493 C 0.02764 0.83214 0.41509 0.0
C494 C 0.02109 0.83679 0.44208 0.0
C495 C 0.01407 0.8069 0.45803 0.0
C496 C 0.01374 0.7721 0.44713 0.0
H497 H 0.98477 0.84036 0.3608 0.0
C498 C 0.01114 0.84619 0.35202 0.0
H499 H 0.06602 0.82798 0.35001 0.0
H500 H 0.02098 0.66702 0.38087 0.0
H501 H 0.03309 0.65957 0.33395 0.0
H502 H 0.04581 0.71265 0.30568 0.0
H503 H 0.04629 0.77355 0.32417 0.0
C504 C 0.03916 0.82425 0.35834 0.0
C505 C 0.03361 0.79228 0.37588 0.0
C506 C 0.03428 0.75682 0.36488 0.0
C507 C 0.02745 0.72618 0.38126 0.0
C508 C 0.02687 0.69119 0.36952 0.0
C509 C 0.03357 0.68653 0.34255 0.0
C510 C 0.04069 0.71642 0.32663 0.0
C511 C 0.04094 0.75122 0.33752 0.0
loop_
_geom_bond_atom_site_label_1
_geom_bond_atom_site_label_2
_geom_bond_distance
_geom_bond_site_symmetry_2
_ccdc_geom_bond_type
H0 C19 0.949 . S
H1 C20 0.950 . S
H2 C22 0.950 . S
H3 C23 0.950 . S
H4 C25 0.950 1_565 S
H5 C28 0.950 . S
H6 C29 0.950 . S
H7 C31 0.951 . S
H8 C32 0.949 . S
H9 C34 0.949 . S
H10 C35 0.950 . S
H11 C37 0.950 . S
H12 C38 0.950 . S
H13 C40 0.950 . S
H14 C43 0.950 . S
H15 C44 0.950 . S
H16 C46 0.951 . S
H17 C47 0.949 . S
C18 C19 1.376 1_545 S
C18 C23 1.386 . S
C18 C24 1.483 . S
C19 H0 0.949 . S
C19 C18 1.376 1_565 S
C19 C20 1.397 . S
C20 H1 0.950 . S
C20 C19 1.397 . S
C20 C21 1.391 1_565 S
C21 C20 1.391 1_545 S
C21 C22 1.405 . S
C22 H2 0.950 . S
C22 C21 1.405 . S
C22 C23 1.367 . S
C23 H3 0.950 . S
C23 C18 1.386 . S
C23 C22 1.367 . S
C24 C18 1.483 . S
C24 C25 1.382 . S
C24 C26 1.403 1_554 S
C25 H4 0.950 1_545 S
C25 C24 1.382 . S
C25 C41 1.411 . S
C26 C24 1.403 1_556 S
C26 C27 1.489 . S
C26 C40 1.411 . S
C27 C26 1.489 . S
C27 C28 1.383 1_545 S
C27 C32 1.382 . S
C28 H5 0.950 . S
C28 C27 1.383 1_565 S
C28 C29 1.395 . S
C29 H6 0.950 . S
C29 C28 1.395 . S
C29 C30 1.288 1_565 S
C30 C29 1.288 1_545 S
C30 C31 1.392 . S
C31 H7 0.951 . S
C31 C30 1.392 . S
C31 C32 1.392 . S
C32 H8 0.949 . S
C32 C27 1.382 . S
C32 C31 1.392 . S
C33 C34 1.376 . S
C33 C38 1.386 1_545 S
C33 C39 1.483 . S
C34 H9 0.949 . S
C34 C33 1.376 . S
C34 C35 1.397 . S
C35 H10 0.950 . S
C35 C34 1.397 . S
C35 C36 1.391 . S
C36 C35 1.391 . S
C36 C37 1.405 1_545 S
C37 H11 0.950 . S
C37 C36 1.405 1_565 S
C37 C38 1.367 . S
C38 H12 0.950 . S
C38 C33 1.386 1_565 S
C38 C37 1.367 . S
C39 C33 1.483 . S
C39 C40 1.382 . S
C39 C41 1.403 1_556 S
C40 H13 0.950 . S
C40 C26 1.411 . S
C40 C39 1.382 . S
C41 C25 1.411 . S
C41 C39 1.403 1_554 S
C41 C42 1.489 . S
C42 C41 1.489 . S
C42 C43 1.383 . S
C42 C47 1.382 1_545 S
C43 H14 0.950 . S
C43 C42 1.383 . S
C43 C44 1.395 . S
C44 H15 0.950 . S
C44 C43 1.395 . S
C44 C45 1.288 . S
C45 C44 1.288 . S
C45 C46 1.392 1_545 S
C46 H16 0.951 . S
C46 C45 1.392 1_565 S
C46 C47 1.392 . S
C47 H17 0.949 . S
C47 C42 1.382 1_565 S
C47 C46 1.392 . S
H48 C67 0.949 . S
H49 C68 0.950 . S
H50 C70 0.950 . S
H51 C71 0.950 . S
H52 C73 0.950 . S
H53 C76 0.950 . S
H54 C77 0.950 . S
H55 C79 0.951 . S
H56 C80 0.949 . S
H57 C82 0.949 . S
H58 C83 0.950 . S
H59 C85 0.950 . S
H60 C86 0.950 . S
H61 C88 0.950 1_655 S
H62 C91 0.950 . S
H63 C92 0.950 . S
H64 C94 0.951 . S
H65 C95 0.949 . S
C66 C67 1.376 . S
C66 C71 1.386 1_455 S
C66 C72 1.483 . S
C67 H48 0.949 . S
C67 C66 1.376 . S
C67 C68 1.397 . S
C68 H49 0.950 . S
C68 C67 1.397 . S
C68 C69 1.391 . S
C69 C68 1.391 . S
C69 C70 1.405 1_455 S
C70 H50 0.950 . S
C70 C69 1.405 1_655 S
C70 C71 1.367 . S
C71 H51 0.950 . S
C71 C66 1.386 1_655 S
C71 C70 1.367 . S
C72 C66 1.483 . S
C72 C73 1.382 . S
C72 C74 1.403 . S
C73 H52 0.950 . S
C73 C72 1.382 . S
C73 C89 1.411 . S
C74 C72 1.403 . S
C74 C75 1.489 . S
C74 C88 1.411 . S
C75 C74 1.489 . S
C75 C76 1.383 . S
C75 C80 1.382 1_455 S
C76 H53 0.950 . S
C76 C75 1.383 . S
C76 C77 1.395 . S
C77 H54 0.950 . S
C77 C76 1.395 . S
C77 C78 1.288 . S
C78 C77 1.288 . S
C78 C79 1.392 1_455 S
C79 H55 0.951 . S
C79 C78 1.392 1_655 S
C79 C80 1.392 . S
C80 H56 0.949 . S
C80 C75 1.382 1_655 S
C80 C79 1.392 . S
C81 C82 1.376 1_455 S
C81 C86 1.386 . S
C81 C87 1.483 . S
C82 H57 0.949 . S
C82 C81 1.376 1_655 S
C82 C83 1.397 . S
C83 H58 0.950 . S
C83 C82 1.397 . S
C83 C84 1.391 1_655 S
C84 C83 1.391 1_455 S
C84 C85 1.405 . S
C85 H59 0.950 . S
C85 C84 1.405 . S
C85 C86 1.367 . S
C86 H60 0.950 . S
C86 C81 1.386 . S
C86 C85 1.367 . S
C87 C81 1.483 . S
C87 C88 1.382 . S
C87 C89 1.403 . S
C88 H61 0.950 1_455 S
C88 C74 1.411 . S
C88 C87 1.382 . S
C89 C73 1.411 . S
C89 C87 1.403 . S
C89 C90 1.489 . S
C90 C89 1.489 . S
C90 C91 1.383 1_455 S
C90 C95 1.382 . S
C91 H62 0.950 . S
C91 C90 1.383 1_655 S
C91 C92 1.395 . S
C92 H63 0.950 . S
C92 C91 1.395 . S
C92 C93 1.288 1_655 S
C93 C92 1.288 1_455 S
C93 C94 1.392 . S
C94 H64 0.951 . S
C94 C93 1.392 . S
C94 C95 1.392 . S
C95 H65 0.949 . S
C95 C90 1.382 . S
C95 C94 1.392 . S
Li96 N113 1.990 . S
Li96 O156 1.956 . S
Li96 O157 1.970 1_455 S
Li96 O158 1.961 . S
Li97 N121 1.990 . S
Li97 O156 1.970 1_565 S
Li97 O157 1.956 1_465 S
Li97 O159 1.961 . S
Li98 N143 1.990 . S
Li98 O156 1.961 . S
Li98 O158 1.956 . S
Li98 O159 1.970 1_545 S
Li99 N149 1.990 . S
Li99 O157 1.961 . S
Li99 O158 1.970 1_655 S
Li99 O159 1.956 1_645 S
C100 C102 1.348 1_545 S
C100 C103 1.356 . S
C100 O156 1.325 . S
N101 C104 1.314 1_545 S
N101 C105 1.279 . S
C102 C100 1.348 1_565 S
C102 C104 1.353 . S
C102 H160 0.929 . S
C103 C100 1.356 . S
C103 C105 1.358 . S
C103 H161 0.930 . S
C104 N101 1.314 1_565 S
C104 C102 1.353 . S
C104 H162 0.930 . S
C105 N101 1.279 . S
C105 C103 1.358 . S
C105 H163 0.930 . S
C106 C109 1.348 . S
C106 C110 1.356 1_545 S
C106 O157 1.325 . S
C107 N108 1.279 1_565 S
C107 C110 1.358 . S
C107 H164 0.930 . S
N108 C107 1.279 1_545 S
N108 C111 1.314 . S
C109 C106 1.348 . S
C109 C111 1.353 . S
C109 H165 0.929 . S
C110 C106 1.356 1_565 S
C110 C107 1.358 . S
C110 H166 0.930 . S
C111 N108 1.314 . S
C111 C109 1.353 . S
C111 H167 0.930 . S
C112 N113 1.314 1_655 S
C112 C117 1.353 . S
C112 H118 0.930 . S
N113 Li96 1.990 . S
N113 C112 1.314 1_455 S
N113 C115 1.279 . S
C114 C115 1.358 . S
C114 C116 1.356 . S
C114 H168 0.930 . S
C115 N113 1.279 . S
C115 C114 1.358 . S
C115 H119 0.930 . S
C116 C114 1.356 . S
C116 C117 1.348 1_455 S
C117 C112 1.353 . S
C117 C116 1.348 1_655 S
C117 H169 0.929 . S
H118 C112 0.930 . S
H119 C115 0.930 . S
C120 N121 1.314 . S
C120 C122 1.353 . S
C120 H126 0.930 . S
N121 Li97 1.990 . S
N121 C120 1.314 . S
N121 C124 1.279 1_455 S
C122 C120 1.353 . S
C122 C125 1.348 . S
C122 H170 0.929 . S
C123 C124 1.358 . S
C123 C125 1.356 1_655 S
C123 H171 0.930 . S
C124 N121 1.279 1_655 S
C124 C123 1.358 . S
C124 H127 0.930 . S
C125 C122 1.348 . S
C125 C123 1.356 1_455 S
H126 C120 0.930 . S
H127 C124 0.930 . S
C128 C130 1.348 1_455 S
C128 C131 1.356 . S
C128 O158 1.325 . S
N129 C132 1.314 1_455 S
N129 C133 1.279 . S
C130 C128 1.348 1_655 S
C130 C132 1.353 . S
C130 H172 0.929 . S
C131 C128 1.356 . S
C131 C133 1.358 . S
C131 H173 0.930 . S
C132 N129 1.314 1_655 S
C132 C130 1.353 . S
C132 H174 0.930 . S
C133 N129 1.279 . S
C133 C131 1.358 . S
C133 H175 0.930 . S
C134 C135 1.348 . S
C134 C136 1.356 1_455 S
C134 O159 1.325 . S
C135 C134 1.348 . S
C135 C137 1.353 . S
C135 H176 0.929 . S
C136 C134 1.356 1_655 S
C136 C138 1.358 . S
C136 H177 0.930 . S
C137 C135 1.353 . S
C137 N139 1.314 . S
C137 H178 0.930 . S
C138 C136 1.358 . S
C138 N139 1.279 1_655 S
C138 H179 0.930 . S
N139 C137 1.314 . S
N139 C138 1.279 1_455 S
C140 C142 1.353 . S
C140 N143 1.314 1_565 S
C140 H146 0.930 . S
C141 N143 1.279 . S
C141 C144 1.358 . S
C141 H147 0.930 . S
C142 C140 1.353 . S
C142 C145 1.348 1_565 S
C142 H180 0.929 . S
N143 Li98 1.990 . S
N143 C140 1.314 1_545 S
N143 C141 1.279 . S
C144 C141 1.358 . S
C144 C145 1.356 . S
C144 H181 0.930 . S
C145 C142 1.348 1_545 S
C145 C144 1.356 . S
H146 C140 0.930 . S
H147 C141 0.930 . S
C148 N149 1.314 . S
C148 C150 1.353 . S
C148 H154 0.930 . S
N149 Li99 1.990 . S
N149 C148 1.314 . S
N149 C152 1.279 1_545 S
C150 C148 1.353 . S
C150 C153 1.348 . S
C150 H182 0.929 . S
C151 C152 1.358 . S
C151 C153 1.356 1_565 S
C151 H183 0.930 . S
C152 N149 1.279 1_565 S
C152 C151 1.358 . S
C152 H155 0.930 . S
C153 C150 1.348 . S
C153 C151 1.356 1_545 S
H154 C148 0.930 . S
H155 C152 0.930 . S
O156 Li96 1.956 . S
O156 Li97 1.970 1_545 S
O156 Li98 1.961 . S
O156 C100 1.325 . S
O157 Li96 1.970 1_655 S
O157 Li97 1.956 1_645 S
O157 Li99 1.961 . S
O157 C106 1.325 . S
O158 Li96 1.961 . S
O158 Li98 1.956 . S
O158 Li99 1.970 1_455 S
O158 C128 1.325 . S
O159 Li97 1.961 . S
O159 Li98 1.970 1_565 S
O159 Li99 1.956 1_465 S
O159 C134 1.325 . S
H160 C102 0.929 . S
H161 C103 0.930 . S
H162 C104 0.930 . S
H163 C105 0.930 . S
H164 C107 0.930 . S
H165 C109 0.929 . S
H166 C110 0.930 . S
H167 C111 0.930 . S
H168 C114 0.930 . S
H169 C117 0.929 . S
H170 C122 0.929 . S
H171 C123 0.930 . S
H172 C130 0.929 . S
H173 C131 0.930 . S
H174 C132 0.930 . S
H175 C133 0.930 . S
H176 C135 0.929 . S
H177 C136 0.930 . S
H178 C137 0.930 . S
H179 C138 0.930 . S
H180 C142 0.929 . S
H181 C144 0.930 . S
H182 C150 0.929 . S
H183 C151 0.930 . S
Li184 N201 1.990 . S
Li184 O244 1.956 1_655 S
Li184 O245 1.970 1_645 S
Li184 O246 1.961 . S
Li185 N209 1.990 . S
Li185 O244 1.970 . S
Li185 O245 1.956 1_545 S
Li185 O247 1.961 . S
Li186 N231 1.990 . S
Li186 O244 1.961 . S
Li186 O246 1.956 1_455 S
Li186 O247 1.970 . S
Li187 N237 1.990 . S
Li187 O245 1.961 . S
Li187 O246 1.970 1_465 S
Li187 O247 1.956 1_565 S
C188 C190 1.348 . S
C188 C191 1.356 1_455 S
C188 O244 1.325 . S
N189 C192 1.314 . S
N189 C193 1.279 1_455 S
C190 C188 1.348 . S
C190 C192 1.353 . S
C190 H248 0.929 . S
C191 C188 1.356 1_655 S
C191 C193 1.358 . S
C191 H249 0.930 . S
C192 N189 1.314 . S
C192 C190 1.353 . S
C192 H250 0.930 . S
C193 N189 1.279 1_655 S
C193 C191 1.358 . S
C193 H251 0.930 . S
C194 C197 1.348 1_455 S
C194 C198 1.356 . S
C194 O245 1.325 . S
C195 N196 1.279 . S
C195 C198 1.358 . S
C195 H252 0.930 . S
N196 C195 1.279 . S
N196 C199 1.314 1_455 S
C197 C194 1.348 1_655 S
C197 C199 1.353 . S
C197 H253 0.929 . S
C198 C194 1.356 . S
C198 C195 1.358 . S
C198 H254 0.930 . S
C199 N196 1.314 1_655 S
C199 C197 1.353 . S
C199 H255 0.930 . S
C200 N201 1.314 1_565 S
C200 C205 1.353 . S
C200 H206 0.930 . S
N201 Li184 1.990 . S
N201 C200 1.314 1_545 S
N201 C203 1.279 . S
C202 C203 1.358 . S
C202 C204 1.356 . S
C202 H256 0.930 . S
C203 N201 1.279 . S
C203 C202 1.358 . S
C203 H207 0.930 . S
C204 C202 1.356 . S
C204 C205 1.348 1_545 S
C205 C200 1.353 . S
C205 C204 1.348 1_565 S
C205 H257 0.929 . S
H206 C200 0.930 . S
H207 C203 0.930 . S
C208 N209 1.314 . S
C208 C210 1.353 . S
C208 H214 0.930 . S
N209 Li185 1.990 . S
N209 C208 1.314 . S
N209 C212 1.279 1_545 S
C210 C208 1.353 . S
C210 C213 1.348 . S
C210 H258 0.929 . S
C211 C212 1.358 . S
C211 C213 1.356 1_565 S
C211 H259 0.930 . S
C212 N209 1.279 1_565 S
C212 C211 1.358 . S
C212 H215 0.930 . S
C213 C210 1.348 . S
C213 C211 1.356 1_545 S
H214 C208 0.930 . S
H215 C212 0.930 . S
C216 C218 1.348 1_545 S
C216 C219 1.356 . S
C216 O246 1.325 . S
N217 C220 1.314 1_545 S
N217 C221 1.279 . S
C218 C216 1.348 1_565 S
C218 C220 1.353 . S
C218 H260 0.929 . S
C219 C216 1.356 . S
C219 C221 1.358 . S
C219 H261 0.930 . S
C220 N217 1.314 1_565 S
C220 C218 1.353 . S
C220 H262 0.930 . S
C221 N217 1.279 . S
C221 C219 1.358 . S
C221 H263 0.930 . S
C222 C223 1.348 . S
C222 C224 1.356 1_545 S
C222 O247 1.325 . S
C223 C222 1.348 . S
C223 C225 1.353 . S
C223 H264 0.929 . S
C224 C222 1.356 1_565 S
C224 C226 1.358 . S
C224 H265 0.930 . S
C225 C223 1.353 . S
C225 N227 1.314 . S
C225 H266 0.930 . S
C226 C224 1.358 . S
C226 N227 1.279 1_565 S
C226 H267 0.930 . S
N227 C225 1.314 . S
N227 C226 1.279 1_545 S
C228 C230 1.353 . S
C228 N231 1.314 . S
C228 H234 0.930 . S
C229 N231 1.279 1_655 S
C229 C232 1.358 . S
C229 H235 0.930 . S
C230 C228 1.353 . S
C230 C233 1.348 . S
C230 H268 0.929 . S
N231 Li186 1.990 . S
N231 C228 1.314 . S
N231 C229 1.279 1_455 S
C232 C229 1.358 . S
C232 C233 1.356 1_655 S
C232 H269 0.930 . S
C233 C230 1.348 . S
C233 C232 1.356 1_455 S
H234 C228 0.930 . S
H235 C229 0.930 . S
C236 N237 1.314 1_655 S
C236 C238 1.353 . S
C236 H242 0.930 . S
N237 Li187 1.990 . S
N237 C236 1.314 1_455 S
N237 C240 1.279 . S
C238 C236 1.353 . S
C238 C241 1.348 1_655 S
C238 H270 0.929 . S
C239 C240 1.358 . S
C239 C241 1.356 . S
C239 H271 0.930 . S
C240 N237 1.279 . S
C240 C239 1.358 . S
C240 H243 0.930 . S
C241 C238 1.348 1_455 S
C241 C239 1.356 . S
H242 C236 0.930 . S
H243 C240 0.930 . S
O244 Li184 1.956 1_455 S
O244 Li185 1.970 . S
O244 Li186 1.961 . S
O244 C188 1.325 . S
O245 Li184 1.970 1_465 S
O245 Li185 1.956 1_565 S
O245 Li187 1.961 . S
O245 C194 1.325 . S
O246 Li184 1.961 . S
O246 Li186 1.956 1_655 S
O246 Li187 1.970 1_645 S
O246 C216 1.325 . S
O247 Li185 1.961 . S
O247 Li186 1.970 . S
O247 Li187 1.956 1_545 S
O247 C222 1.325 . S
H248 C190 0.929 . S
H249 C191 0.930 . S
H250 C192 0.930 . S
H251 C193 0.930 . S
H252 C195 0.930 . S
H253 C197 0.929 . S
H254 C198 0.930 . S
H255 C199 0.930 . S
H256 C202 0.930 . S
H257 C205 0.929 . S
H258 C210 0.929 . S
H259 C211 0.930 . S
H260 C218 0.929 . S
H261 C219 0.930 . S
H262 C220 0.930 . S
H263 C221 0.930 . S
H264 C223 0.929 . S
H265 C224 0.930 . S
H266 C225 0.930 . S
H267 C226 0.930 . S
H268 C230 0.929 . S
H269 C232 0.930 . S
H270 C238 0.929 . S
H271 C239 0.930 . S
H272 C273 0.951 . S
C273 H272 0.951 . S
C273 C279 1.265 . S
H274 C279 0.950 1_565 S
H275 C283 0.949 . S
H276 C284 0.950 . S
H277 C285 0.951 . S
H278 C286 0.951 . S
C279 C273 1.265 . S
C279 H274 0.950 1_545 S
C279 C280 1.478 . S
C280 C279 1.478 . S
C280 C281 1.397 1_545 S
C280 C297 1.394 . S
C281 C280 1.397 1_565 S
C281 C282 1.438 . S
C281 C286 1.429 . S
C282 C281 1.438 . S
C282 C283 1.428 . S
C282 C295 1.394 1_565 S
C283 H275 0.949 . S
C283 C282 1.428 . S
C283 C284 1.345 . S
C284 H276 0.950 . S
C284 C283 1.345 . S
C284 C285 1.424 . S
C285 H277 0.951 . S
C285 C284 1.424 . S
C285 C286 1.347 . S
C286 H278 0.951 . S
C286 C281 1.429 . S
C286 C285 1.347 . S
H287 C288 0.956 . S
C288 H287 0.956 . S
C288 C294 1.265 . S
H289 C294 0.950 . S
H290 C298 0.949 . S
H291 C299 0.950 . S
H292 C300 0.951 . S
H293 C301 0.951 . S
C294 C288 1.265 . S
C294 H289 0.950 . S
C294 C295 1.478 . S
C295 C282 1.394 1_545 S
C295 C294 1.478 . S
C295 C296 1.397 . S
C296 C295 1.397 . S
C296 C297 1.438 . S
C296 C301 1.429 . S
C297 C280 1.394 . S
C297 C296 1.438 . S
C297 C298 1.428 . S
C298 H290 0.949 . S
C298 C297 1.428 . S
C298 C299 1.345 . S
C299 H291 0.950 . S
C299 C298 1.345 . S
C299 C300 1.424 . S
C300 H292 0.951 . S
C300 C299 1.424 . S
C300 C301 1.347 . S
C301 H293 0.951 . S
C301 C296 1.429 . S
C301 C300 1.347 . S
H302 C303 0.951 1_655 S
C303 H302 0.951 1_455 S
C303 C309 1.265 . S
H304 C309 0.950 . S
H305 C313 0.949 . S
H306 C314 0.950 . S
H307 C315 0.951 . S
H308 C316 0.951 . S
C309 C303 1.265 . S
C309 H304 0.950 . S
C309 C310 1.478 . S
C310 C309 1.478 . S
C310 C311 1.397 . S
C310 C327 1.394 1_455 S
C311 C310 1.397 . S
C311 C312 1.438 . S
C311 C316 1.429 . S
C312 C311 1.438 . S
C312 C313 1.428 . S
C312 C325 1.405 . S
C313 H305 0.949 . S
C313 C312 1.428 . S
C313 C314 1.345 . S
C314 H306 0.950 . S
C314 C313 1.345 . S
C314 C315 1.424 . S
C315 H307 0.951 . S
C315 C314 1.424 . S
C315 C316 1.347 . S
C316 H308 0.951 . S
C316 C311 1.429 . S
C316 C315 1.347 . S
H317 C318 0.951 . S
C318 H317 0.951 . S
C318 C324 1.265 1_455 S
H319 C324 0.950 . S
H320 C328 0.949 . S
H321 C329 0.950 . S
H322 C330 0.951 . S
H323 C331 0.951 . S
C324 C318 1.265 1_655 S
C324 H319 0.950 . S
C324 C325 1.476 1_655 S
C325 C312 1.405 . S
C325 C324 1.476 1_455 S
C325 C326 1.388 1_455 S
C326 C325 1.388 1_655 S
C326 C327 1.438 . S
C326 C331 1.429 . S
C327 C310 1.394 1_655 S
C327 C326 1.438 . S
C327 C328 1.428 . S
C328 H320 0.949 . S
C328 C327 1.428 . S
C328 C329 1.345 . S
C329 H321 0.950 . S
C329 C328 1.345 . S
C329 C330 1.424 . S
C330 H322 0.951 . S
C330 C329 1.424 . S
C330 C331 1.347 . S
C331 H323 0.951 . S
C331 C326 1.429 . S
C331 C330 1.347 . S
H332 C333 0.951 . S
C333 H332 0.951 . S
C333 C339 1.265 1_545 S
H334 C339 0.950 . S
H335 C343 0.949 . S
H336 C344 0.950 . S
H337 C345 0.951 . S
H338 C346 0.951 . S
C339 C333 1.265 1_565 S
C339 H334 0.950 . S
C339 C340 1.474 1_565 S
C340 C339 1.474 1_545 S
C340 C341 1.403 . S
C340 C357 1.393 1_545 S
C341 C340 1.403 . S
C341 C342 1.438 . S
C341 C346 1.429 . S
C342 C341 1.438 . S
C342 C343 1.428 . S
C342 C355 1.394 . S
C343 H335 0.949 . S
C343 C342 1.428 . S
C343 C344 1.345 . S
C344 H336 0.950 . S
C344 C343 1.345 . S
C344 C345 1.424 . S
C345 H337 0.951 . S
C345 C344 1.424 . S
C345 C346 1.347 . S
C346 H338 0.951 . S
C346 C341 1.429 . S
C346 C345 1.347 . S
H347 C348 0.951 1_565 S
C348 H347 0.951 1_545 S
C348 C354 1.265 . S
H349 C354 0.950 . S
H350 C358 0.949 . S
H351 C359 0.950 . S
H352 C360 0.951 . S
H353 C361 0.951 . S
C354 C348 1.265 . S
C354 H349 0.950 . S
C354 C355 1.478 . S
C355 C342 1.394 . S
C355 C354 1.478 . S
C355 C356 1.397 . S
C356 C355 1.397 . S
C356 C357 1.438 1_545 S
C356 C361 1.429 . S
C357 C340 1.393 1_565 S
C357 C356 1.438 1_565 S
C357 C358 1.428 . S
C358 H350 0.949 . S
C358 C357 1.428 . S
C358 C359 1.345 . S
C359 H351 0.950 . S
C359 C358 1.345 . S
C359 C360 1.424 . S
C360 H352 0.951 . S
C360 C359 1.424 . S
C360 C361 1.347 1_565 S
C361 H353 0.951 . S
C361 C356 1.429 . S
C361 C360 1.347 1_545 S
H362 C363 0.951 . S
C363 H362 0.951 . S
C363 C369 1.265 1_455 S
H364 C369 0.950 . S
H365 C373 0.949 . S
H366 C374 0.950 . S
H367 C375 0.951 . S
H368 C376 0.951 . S
C369 C363 1.265 1_655 S
C369 H364 0.950 . S
C369 C370 1.478 . S
C370 C369 1.478 . S
C370 C371 1.397 . S
C370 C387 1.394 1_655 S
C371 C370 1.397 . S
C371 C372 1.438 . S
C371 C376 1.429 . S
C372 C371 1.438 . S
C372 C373 1.428 . S
C372 C385 1.394 1_655 S
C373 H365 0.949 . S
C373 C372 1.428 . S
C373 C374 1.345 . S
C374 H366 0.950 . S
C374 C373 1.345 . S
C374 C375 1.424 . S
C375 H367 0.951 . S
C375 C374 1.424 . S
C375 C376 1.347 . S
C376 H368 0.951 . S
C376 C371 1.429 . S
C376 C375 1.347 . S
H377 C378 0.951 1_655 S
C378 H377 0.951 1_455 S
C378 C384 1.265 . S
H379 C384 0.950 . S
H380 C388 0.949 . S
H381 C389 0.950 . S
H382 C390 0.951 . S
H383 C391 0.951 . S
C384 C378 1.265 . S
C384 H379 0.950 . S
C384 C385 1.478 . S
C385 C372 1.394 1_455 S
C385 C384 1.478 . S
C385 C386 1.397 . S
C386 C385 1.397 . S
C386 C387 1.438 . S
C386 C391 1.429 . S
C387 C370 1.394 1_455 S
C387 C386 1.438 . S
C387 C388 1.428 . S
C388 H380 0.949 . S
C388 C387 1.428 . S
C388 C389 1.345 . S
C389 H381 0.950 . S
C389 C388 1.345 . S
C389 C390 1.424 . S
C390 H382 0.951 . S
C390 C389 1.424 . S
C390 C391 1.347 . S
C391 H383 0.951 . S
C391 C386 1.429 . S
C391 C390 1.347 . S
H392 C393 0.951 1_565 S
C393 H392 0.951 1_545 S
C393 C399 1.265 . S
H394 C399 0.950 . S
H395 C403 0.949 . S
H396 C404 0.950 . S
H397 C405 0.951 . S
H398 C406 0.951 . S
C399 C393 1.265 . S
C399 H394 0.950 . S
C399 C400 1.478 . S
C400 C399 1.478 . S
C400 C401 1.397 . S
C400 C417 1.394 1_545 S
C401 C400 1.397 . S
C401 C402 1.438 . S
C401 C406 1.429 . S
C402 C401 1.438 . S
C402 C403 1.428 . S
C402 C415 1.387 1_545 S
C403 H395 0.949 . S
C403 C402 1.428 . S
C403 C404 1.345 . S
C404 H396 0.950 . S
C404 C403 1.345 . S
C404 C405 1.424 . S
C405 H397 0.951 . S
C405 C404 1.424 . S
C405 C406 1.347 . S
C406 H398 0.951 . S
C406 C401 1.429 . S
C406 C405 1.347 . S
H407 C408 0.951 . S
C408 H407 0.951 . S
C408 C414 1.265 1_545 S
H409 C414 0.950 . S
H410 C418 0.949 . S
H411 C419 0.950 . S
H412 C420 0.951 . S
H413 C421 0.951 . S
C414 C408 1.265 1_565 S
C414 H409 0.950 . S
C414 C415 1.480 . S
C415 C402 1.387 1_565 S
C415 C414 1.480 . S
C415 C416 1.402 . S
C416 C415 1.402 . S
C416 C417 1.438 . S
C416 C421 1.429 . S
C417 C400 1.394 1_565 S
C417 C416 1.438 . S
C417 C418 1.428 . S
C418 H410 0.949 . S
C418 C417 1.428 . S
C418 C419 1.345 . S
C419 H411 0.950 . S
C419 C418 1.345 . S
C419 C420 1.424 . S
C420 H412 0.951 . S
C420 C419 1.424 . S
C420 C421 1.347 . S
C421 H413 0.951 . S
C421 C416 1.429 . S
C421 C420 1.347 . S
H422 C423 0.951 1_655 S
C423 H422 0.951 1_455 S
C423 C429 1.265 . S
H424 C429 0.950 . S
H425 C433 0.949 . S
H426 C434 0.950 . S
H427 C435 0.951 . S
H428 C436 0.951 . S
C429 C423 1.265 . S
C429 H424 0.950 . S
C429 C430 1.478 . S
C430 C429 1.478 . S
C430 C431 1.397 . S
C430 C447 1.394 1_455 S
C431 C430 1.397 . S
C431 C432 1.438 . S
C431 C436 1.429 . S
C432 C431 1.438 . S
C432 C433 1.428 . S
C432 C445 1.394 1_455 S
C433 H425 0.949 . S
C433 C432 1.428 . S
C433 C434 1.345 . S
C434 H426 0.950 . S
C434 C433 1.345 . S
C434 C435 1.424 . S
C435 H427 0.951 . S
C435 C434 1.424 . S
C435 C436 1.347 . S
C436 H428 0.951 . S
C436 C431 1.429 . S
C436 C435 1.347 . S
H437 C438 0.951 . S
C438 H437 0.951 . S
C438 C444 1.265 1_455 S
H439 C444 0.950 . S
H440 C448 0.949 . S
H441 C449 0.950 . S
H442 C450 0.951 . S
H443 C451 0.951 . S
C444 C438 1.265 1_655 S
C444 H439 0.950 . S
C444 C445 1.478 . S
C445 C432 1.394 1_655 S
C445 C444 1.478 . S
C445 C446 1.397 . S
C446 C445 1.397 . S
C446 C447 1.438 . S
C446 C451 1.429 . S
C447 C430 1.394 1_655 S
C447 C446 1.438 . S
C447 C448 1.428 . S
C448 H440 0.949 . S
C448 C447 1.428 . S
C448 C449 1.345 . S
C449 H441 0.950 . S
C449 C448 1.345 . S
C449 C450 1.424 . S
C450 H442 0.951 . S
C450 C449 1.424 . S
C450 C451 1.347 . S
C451 H443 0.951 . S
C451 C446 1.429 . S
C451 C450 1.347 . S
H452 C453 0.951 . S
C453 H452 0.951 . S
C453 C459 1.265 . S
H454 C459 0.950 . S
H455 C463 0.949 . S
H456 C464 0.950 . S
H457 C465 0.951 . S
H458 C466 0.951 . S
C459 C453 1.265 . S
C459 H454 0.950 . S
C459 C460 1.478 . S
C460 C459 1.478 . S
C460 C461 1.397 1_545 S
C460 C477 1.394 . S
C461 C460 1.397 1_565 S
C461 C462 1.438 . S
C461 C466 1.429 . S
C462 C461 1.438 . S
C462 C463 1.428 . S
C462 C475 1.394 1_565 S
C463 H455 0.949 . S
C463 C462 1.428 . S
C463 C464 1.345 . S
C464 H456 0.950 . S
C464 C463 1.345 . S
C464 C465 1.424 . S
C465 H457 0.951 . S
C465 C464 1.424 . S
C465 C466 1.347 . S
C466 H458 0.951 . S
C466 C461 1.429 . S
C466 C465 1.347 . S
H467 C468 0.951 . S
C468 H467 0.951 . S
C468 C474 1.265 . S
H469 C474 0.950 . S
H470 C478 0.949 . S
H471 C479 0.950 . S
H472 C480 0.951 . S
H473 C481 0.951 . S
C474 C468 1.265 . S
C474 H469 0.950 . S
C474 C475 1.478 . S
C475 C462 1.394 1_545 S
C475 C474 1.478 . S
C475 C476 1.397 . S
C476 C475 1.397 . S
C476 C477 1.438 . S
C476 C481 1.429 . S
C477 C460 1.394 . S
C477 C476 1.438 . S
C477 C478 1.428 . S
C478 H470 0.949 . S
C478 C477 1.428 . S
C478 C479 1.345 . S
C479 H471 0.950 . S
C479 C478 1.345 . S
C479 C480 1.424 . S
C480 H472 0.951 . S
C480 C479 1.424 . S
C480 C481 1.347 . S
C481 H473 0.951 . S
C481 C476 1.429 . S
C481 C480 1.347 . S
H482 C483 0.951 . S
C483 H482 0.951 . S
C483 C489 1.265 1_455 S
H484 C489 0.950 . S
H485 C493 0.949 . S
H486 C494 0.950 . S
H487 C495 0.951 . S
H488 C496 0.951 . S
C489 C483 1.265 1_655 S
C489 H484 0.950 . S
C489 C490 1.484 . S
C490 C489 1.484 . S
C490 C491 1.409 . S
C490 C507 1.377 1_655 S
C491 C490 1.409 . S
C491 C492 1.438 . S
C491 C496 1.429 . S
C492 C491 1.438 . S
C492 C493 1.428 . S
C492 C505 1.394 1_655 S
C493 H485 0.949 . S
C493 C492 1.428 . S
C493 C494 1.345 . S
C494 H486 0.950 . S
C494 C493 1.345 . S
C494 C495 1.424 . S
C495 H487 0.951 . S
C495 C494 1.424 . S
C495 C496 1.347 . S
C496 H488 0.951 . S
C496 C491 1.429 . S
C496 C495 1.347 . S
H497 C498 0.951 1_655 S
C498 H497 0.951 1_455 S
C498 C504 1.265 . S
H499 C504 0.950 . S
H500 C508 0.949 . S
H501 C509 0.950 . S
H502 C510 0.951 . S
H503 C511 0.951 . S
C504 C498 1.265 . S
C504 H499 0.950 . S
C504 C505 1.478 . S
C505 C492 1.394 1_455 S
C505 C504 1.478 . S
C505 C506 1.397 . S
C506 C505 1.397 . S
C506 C507 1.438 . S
C506 C511 1.429 . S
C507 C490 1.377 1_455 S
C507 C506 1.438 . S
C507 C508 1.428 . S
C508 H500 0.949 . S
C508 C507 1.428 . S
C508 C509 1.345 . S
C509 H501 0.950 . S
C509 C508 1.345 . S
C509 C510 1.424 . S
C510 H502 0.951 . S
C510 C509 1.424 . S
C510 C511 1.347 . S
C511 H503 0.951 . S
C511 C506 1.429 . S
C511 C510 1.347 . S
C288 C145 1.507 . S
C273 C45 1.499 . S
C318 C233 1.509 . S
C303 C78 1.487 . S
C348 C153 1.502 . S
C333 C21 1.511 . S
C378 C241 1.509 . S
C363 C84 1.510 . S
C408 C213 1.509 . S
C393 C36 1.511 . S
C438 C116 1.501 . S
C423 C69 1.508 . S
C468 C204 1.507 . S
C453 C30 1.497 . S
C483 C93 1.487 . S
C498 C125 1.500 . S
