# Generated by pormake.
# Topology zzz, (3,6)-cn, num edge types: 1
# Building blocks:
#     Node 0, Type 0, BuildingBlock: VETTIZ_charged_linker_0, # of connection points: 3
#     Node 1, Type 0, BuildingBlock: VETTIZ_charged_linker_0, # of connection points: 3
#     Node 2, Type 0, BuildingBlock: VETTIZ_charged_linker_0, # of connection points: 3
#     Node 3, Type 0, BuildingBlock: VETTIZ_charged_linker_0, # of connection points: 3
#     Node 4, Type 0, BuildingBlock: VETTIZ_charged_linker_0, # of connection points: 3
#     Node 5, Type 0, BuildingBlock: VETTIZ_charged_linker_0, # of connection points: 3
#     Node 6, Type 0, BuildingBlock: VETTIZ_charged_linker_0, # of connection points: 3
#     Node 7, Type 0, BuildingBlock: VETTIZ_charged_linker_0, # of connection points: 3
#     Node 8, Type 1, BuildingBlock: KUMBOL_clean_sbu_1, # of connection points: 6
#     Node 9, Type 1, BuildingBlock: KUMBOL_clean_sbu_1, # of connection points: 6
#     Node 10, Type 1, BuildingBlock: KUMBOL_clean_sbu_1, # of connection points: 6
#     Node 11, Type 1, BuildingBlock: KUMBOL_clean_sbu_1, # of connection points: 6
#     Edge 12, Type (0, 1), BuildingBlock: KIFKEQ_clean_linker_1, # of connection points: 2
#     Edge 13, Type (0, 1), BuildingBlock: KIFKEQ_clean_linker_1, # of connection points: 2
#     Edge 14, Type (0, 1), BuildingBlock: KIFKEQ_clean_linker_1, # of connection points: 2
#     Edge 15, Type (0, 1), BuildingBlock: KIFKEQ_clean_linker_1, # of connection points: 2
#     Edge 16, Type (0, 1), BuildingBlock: KIFKEQ_clean_linker_1, # of connection points: 2
#     Edge 17, Type (0, 1), BuildingBlock: KIFKEQ_clean_linker_1, # of connection points: 2
#     Edge 18, Type (0, 1), BuildingBlock: KIFKEQ_clean_linker_1, # of connection points: 2
#     Edge 19, Type (0, 1), BuildingBlock: KIFKEQ_clean_linker_1, # of connection points: 2
#     Edge 20, Type (0, 1), BuildingBlock: KIFKEQ_clean_linker_1, # of connection points: 2
#     Edge 21, Type (0, 1), BuildingBlock: KIFKEQ_clean_linker_1, # of connection points: 2
#     Edge 22, Type (0, 1), BuildingBlock: KIFKEQ_clean_linker_1, # of connection points: 2
#     Edge 23, Type (0, 1), BuildingBlock: KIFKEQ_clean_linker_1, # of connection points: 2
#     Edge 24, Type (0, 1), BuildingBlock: KIFKEQ_clean_linker_1, # of connection points: 2
#     Edge 25, Type (0, 1), BuildingBlock: KIFKEQ_clean_linker_1, # of connection points: 2
#     Edge 26, Type (0, 1), BuildingBlock: KIFKEQ_clean_linker_1, # of connection points: 2
#     Edge 27, Type (0, 1), BuildingBlock: KIFKEQ_clean_linker_1, # of connection points: 2
#     Edge 28, Type (0, 1), BuildingBlock: KIFKEQ_clean_linker_1, # of connection points: 2
#     Edge 29, Type (0, 1), BuildingBlock: KIFKEQ_clean_linker_1, # of connection points: 2
#     Edge 30, Type (0, 1), BuildingBlock: KIFKEQ_clean_linker_1, # of connection points: 2
#     Edge 31, Type (0, 1), BuildingBlock: KIFKEQ_clean_linker_1, # of connection points: 2
#     Edge 32, Type (0, 1), BuildingBlock: KIFKEQ_clean_linker_1, # of connection points: 2
#     Edge 33, Type (0, 1), BuildingBlock: KIFKEQ_clean_linker_1, # of connection points: 2
#     Edge 34, Type (0, 1), BuildingBlock: KIFKEQ_clean_linker_1, # of connection points: 2
#     Edge 35, Type (0, 1), BuildingBlock: KIFKEQ_clean_linker_1, # of connection points: 2
# Relax obj value: 0.318
# Max RMSD: 0.212
# Mean RMSD: 0.185
data_MOF--net-zzz--node1-KUMBOL_clean_sbu_1--node2-VETTIZ_charged_linker_0--edge1-KIFKEQ_clean_linker_1
_symmetry_space_group_name_H-M    P1
_symmetry_Int_Tables_number       1
_symmetry_cell_setting            triclinic
loop_
_symmetry_equiv_pos_as_xyz
'x, y, z'
_cell_length_a     56.647929
_cell_length_b     56.626706
_cell_length_c     20.977776
_cell_angle_alpha  90.130149
_cell_angle_beta   90.09991
_cell_angle_gamma 90.345215
loop_
_atom_site_label
_atom_site_type_symbol
_atom_site_fract_x
_atom_site_fract_y
_atom_site_fract_z
_atom_type_partial_charge
C0 C 0.80964 0.54889 0.31559 0.0
C1 C 0.82901 0.56101 0.34502 0.0
C2 C 0.8328 0.58499 0.3299 0.0
C3 C 0.80297 0.5829 0.24863 0.0
C4 C 0.79613 0.56082 0.26837 0.0
C5 C 0.77287 0.55395 0.23529 0.0
H6 H 0.69376 0.58574 0.99695 0.0
C7 C 0.78832 0.5904 0.19579 0.0
C8 C 0.76917 0.57478 0.18893 0.0
H9 H 0.68537 0.52631 0.12337 0.0
H10 H 0.72276 0.53667 0.17615 0.0
H11 H 0.71353 0.6245 0.0995 0.0
H12 H 0.73648 0.57972 0.95583 0.0
H13 H 0.76462 0.59087 0.97646 0.0
H14 H 0.74202 0.61016 0.94542 0.0
H15 H 0.71109 0.62657 1.01419 0.0
H16 H 0.73589 0.63933 0.05608 0.0
C17 C 0.75332 0.55274 0.28608 0.0
C18 C 0.77603 0.53043 0.19961 0.0
C19 C 0.83001 0.62698 1.0107 0.0
C20 C 0.82166 0.63315 0.94962 0.0
C21 C 0.7977 0.63962 0.94345 0.0
C22 C 0.78178 0.6354 0.99332 0.0
C23 C 0.78995 0.6245 0.04898 0.0
C24 C 0.81384 0.62275 0.05972 0.0
C25 C 0.81924 0.61303 0.12472 0.0
C26 C 0.79429 0.60648 0.14711 0.0
C27 C 0.77759 0.6117 0.10021 0.0
C28 C 0.83127 0.6328 0.16435 0.0
C29 C 0.83521 0.59105 0.11867 0.0
C30 C 0.69942 0.57516 0.03706 0.0
C31 C 0.68604 0.55558 0.05668 0.0
C32 C 0.69507 0.54171 0.10734 0.0
C33 C 0.71664 0.54781 0.13831 0.0
C34 C 0.72951 0.56783 0.11809 0.0
C35 C 0.72078 0.58074 0.06729 0.0
C36 C 0.73694 0.60033 0.04721 0.0
C37 C 0.75634 0.59826 0.09673 0.0
C38 C 0.75224 0.5792 0.13906 0.0
C39 C 0.7237 0.62402 0.05418 0.0
C40 C 0.74553 0.59517 0.97797 0.0
H41 H 0.82135 0.61477 0.27611 0.0
H42 H 0.80514 0.53102 0.32939 0.0
H43 H 0.79129 0.53159 0.16645 0.0
H44 H 0.76027 0.5258 0.17104 0.0
H45 H 0.77936 0.51584 0.23372 0.0
H46 H 0.7532 0.5692 0.3151 0.0
H47 H 0.75627 0.53761 0.31873 0.0
H48 H 0.73561 0.55086 0.26478 0.0
H49 H 0.84836 0.62289 1.01879 0.0
H50 H 0.79089 0.64608 0.89855 0.0
H51 H 0.76357 0.63967 0.986 0.0
H52 H 0.84192 0.64484 0.13383 0.0
H53 H 0.84409 0.62554 0.19901 0.0
H54 H 0.818 0.64373 0.18964 0.0
H55 H 0.82678 0.57746 0.08762 0.0
H56 H 0.83874 0.58297 0.16572 0.0
H57 H 0.85268 0.59576 0.09832 0.0
H58 H 0.84645 0.59517 0.35382 0.0
C59 C 0.81942 0.59607 0.2831 0.0
C60 C 0.91121 0.81767 0.95632 0.0
C61 C 0.90372 0.84098 0.96778 0.0
C62 C 0.89653 0.84716 0.03001 0.0
C63 C 0.91316 0.81096 0.06979 0.0
C64 C 0.91569 0.80285 1.00828 0.0
C65 C 0.92629 0.77857 1.00646 0.0
H66 H 1.00629 0.70496 0.09464 0.0
C67 C 0.92649 0.7953 0.11241 0.0
C68 C 0.93232 0.77519 0.07722 0.0
H69 H 0.94205 0.68782 0.99126 0.0
H70 H 0.92374 0.72309 0.0349 0.0
H71 H 1.00714 0.76767 0.0841 0.0
H72 H 0.97009 0.72558 0.22622 0.0
H73 H 0.98969 0.74771 0.25642 0.0
H74 H 1.00147 0.72247 0.21577 0.0
H75 H 0.02304 0.74681 0.13234 0.0
H76 H 0.0136 0.77445 0.16552 0.0
C77 C 0.9487 0.77857 0.96448 0.0
C78 C 0.90741 0.76125 0.98038 0.0
C79 C 0.96404 0.83672 0.30104 0.0
C80 C 0.98496 0.83409 0.33593 0.0
C81 C 0.99947 0.81447 0.32131 0.0
C82 C 0.99276 0.79773 0.27372 0.0
C83 C 0.97161 0.80089 0.23918 0.0
C84 C 0.95808 0.8206 0.25273 0.0
C85 C 0.93771 0.82346 0.20803 0.0
C86 C 0.94014 0.80148 0.16703 0.0
C87 C 0.9599 0.78776 0.18525 0.0
C88 C 0.94128 0.84689 0.17011 0.0
C89 C 0.91459 0.82272 0.24709 0.0
C90 C 0.98875 0.70945 0.07838 0.0
C91 C 0.97619 0.69416 0.03569 0.0
C92 C 0.9526 0.69966 0.02047 0.0
C93 C 0.94231 0.72046 0.04223 0.0
C94 C 0.95591 0.7366 0.07663 0.0
C95 C 0.97764 0.7305 0.10031 0.0
C96 C 0.9851 0.74831 0.1521 0.0
C97 C 0.96452 0.76611 0.15113 0.0
C98 C 0.94887 0.75926 0.10255 0.0
C99 C 1.00858 0.75999 0.13269 0.0
C100 C 0.98676 0.73537 0.21636 0.0
H101 H 0.89613 0.83759 0.12826 0.0
H102 H 0.91604 0.81197 0.90888 0.0
H103 H 0.89625 0.76972 0.94334 0.0
H104 H 0.89553 0.75501 1.01901 0.0
H105 H 0.91555 0.74598 0.9559 0.0
H106 H 0.96166 0.79196 0.98178 0.0
H107 H 0.94433 0.7825 0.914 0.0
H108 H 0.95734 0.76105 0.96502 0.0
H109 H 0.95285 0.8519 0.30907 0.0
H110 H 0.01589 0.81203 0.34689 0.0
H111 H 1.00436 0.7832 0.2644 0.0
H112 H 0.95585 0.85807 0.18925 0.0
H113 H 0.92543 0.85827 0.17199 0.0
H114 H 0.94602 0.84353 0.11957 0.0
H115 H 0.91519 0.80843 0.28339 0.0
H116 H 0.899 0.81886 0.21698 0.0
H117 H 0.91174 0.83973 0.27236 0.0
H118 H 0.88948 0.86454 0.03976 0.0
C119 C 0.90104 0.83201 0.08125 0.0
C120 C 0.83324 1.00202 0.07478 0.0
C121 C 0.84847 0.99091 0.02998 0.0
C122 C 0.84278 0.96807 1.00852 0.0
C123 C 0.80659 0.96823 0.06915 0.0
C124 C 0.81245 0.98991 0.09503 0.0
C125 C 0.79426 0.99701 0.14524 0.0
H126 H 0.69189 0.96392 0.30361 0.0
C127 C 0.78405 0.96007 0.09591 0.0
C128 C 0.77682 0.97605 0.14346 0.0
H129 H 0.72989 0.02925 0.33205 0.0
H130 H 0.75909 0.01721 0.25207 0.0
H131 H 0.68783 0.96682 0.1753 0.0
H132 H 0.73685 0.92782 0.28354 0.0
H133 H 0.7272 0.90968 0.21984 0.0
H134 H 0.70579 0.92229 0.27337 0.0
H135 H 0.68431 0.93569 0.18139 0.0
H136 H 0.6997 0.949 0.11507 0.0
C137 C 0.78248 0.02015 0.12402 0.0
C138 C 0.80668 0.9992 0.21034 0.0
C139 C 0.73348 0.90465 0.96636 0.0
C140 C 0.71015 0.89649 0.97551 0.0
C141 C 0.70157 0.89523 0.03867 0.0
C142 C 0.71398 0.90605 0.08885 0.0
C143 C 0.73518 0.91803 0.07578 0.0
C144 C 0.74561 0.91536 1.01704 0.0
C145 C 0.76944 0.92716 1.01412 0.0
C146 C 0.76929 0.94102 0.07677 0.0
C147 C 0.74902 0.93575 0.112 0.0
C148 C 0.77037 0.94361 0.95519 0.0
C149 C 0.78839 0.90741 1.01302 0.0
C150 C 0.70674 0.97552 0.29388 0.0
C151 C 0.7088 0.99726 0.32528 0.0
C152 C 0.72796 1.01224 0.3089 0.0
C153 C 0.74487 1.00523 0.26261 0.0
C154 C 0.74227 0.98329 0.23116 0.0
C155 C 0.72304 0.9692 0.24688 0.0
C156 C 0.72068 0.94792 0.20512 0.0
C157 C 0.74223 0.95063 0.16315 0.0
C158 C 0.75543 0.97118 0.17838 0.0
C159 C 0.69701 0.94975 0.16734 0.0
C160 C 0.72257 0.92564 0.24746 0.0
H161 H 0.81915 0.93934 1.01056 0.0
H162 H 0.83753 0.01931 0.09372 0.0
H163 H 0.81693 0.98296 0.22069 0.0
H164 H 0.79403 1.00149 0.24975 0.0
H165 H 0.8191 1.01447 0.21069 0.0
H166 H 0.77625 0.01866 0.07385 0.0
H167 H 0.79518 0.03515 0.12693 0.0
H168 H 0.76691 0.02447 0.15321 0.0
H169 H 0.74139 0.90501 0.91962 0.0
H170 H 0.68445 0.88753 0.04873 0.0
H171 H 0.70607 0.90573 0.1352 0.0
H172 H 0.75493 0.95564 0.95479 0.0
H173 H 0.77025 0.93323 0.91024 0.0
H174 H 0.78635 0.95477 0.95396 0.0
H175 H 0.78062 0.88933 1.01501 0.0
H176 H 0.80043 0.90869 0.05479 0.0
H177 H 0.79905 0.90803 0.96863 0.0
H178 H 0.85423 0.959 0.97524 0.0
C179 C 0.82226 0.9567 0.02836 0.0
C180 C 0.53993 0.7319 0.32133 0.0
C181 C 0.55311 0.7135 0.35066 0.0
C182 C 0.57669 0.71022 0.33182 0.0
C183 C 0.57242 0.73929 0.24858 0.0
C184 C 0.55046 0.7453 0.27141 0.0
C185 C 0.54121 0.76712 0.23654 0.0
H186 H 0.55348 0.83816 0.97137 0.0
C187 C 0.57757 0.75318 0.19117 0.0
C188 C 0.56023 0.77077 0.1849 0.0
H189 H 0.51079 0.85449 0.13533 0.0
H190 H 0.52532 0.81853 0.1891 0.0
H191 H 0.59899 0.82626 0.05015 0.0
H192 H 0.54374 0.78573 0.96403 0.0
H193 H 0.56752 0.76613 0.96384 0.0
H194 H 0.56971 0.79355 0.92036 0.0
H195 H 0.59558 0.82177 0.96589 0.0
H196 H 0.61274 0.80189 1.01414 0.0
C197 C 0.54001 0.78811 0.28397 0.0
C198 C 0.517 0.7616 0.20645 0.0
C199 C 0.62749 0.71329 0.02288 0.0
C200 C 0.62753 0.71646 0.9562 0.0
C201 C 0.62151 0.73894 0.93233 0.0
C202 C 0.61224 0.75628 0.97253 0.0
C203 C 0.60812 0.75096 0.03693 0.0
C204 C 0.61663 0.73018 0.0619 0.0
C205 C 0.60906 0.72661 0.13009 0.0
C206 C 0.59333 0.74818 0.14026 0.0
C207 C 0.59295 0.7622 0.08546 0.0
C208 C 0.63135 0.72704 0.17326 0.0
C209 C 0.59492 0.7031 0.13362 0.0
C210 C 0.54695 0.83401 1.0186 0.0
C211 C 0.53079 0.84894 0.04853 0.0
C212 C 0.52312 0.8431 0.11086 0.0
C213 C 0.53134 0.82235 0.1418 0.0
C214 C 0.5475 0.80756 0.1104 0.0
C215 C 0.55528 0.81401 0.05032 0.0
C216 C 0.57376 0.79785 0.02494 0.0
C217 C 0.57691 0.78122 0.08066 0.0
C218 C 0.5609 0.7861 0.13036 0.0
C219 C 0.59649 0.81258 1.01254 0.0
C220 C 0.56338 0.7852 0.96508 0.0
H221 H 0.60436 0.71975 0.2691 0.0
H222 H 0.52216 0.7357 0.33699 0.0
H223 H 0.5181 0.74591 0.17465 0.0
H224 H 0.51073 0.77674 0.17766 0.0
H225 H 0.50366 0.75793 0.24399 0.0
H226 H 0.55563 0.79995 0.27932 0.0
H227 H 0.53939 0.78202 0.33429 0.0
H228 H 0.52381 0.79869 0.27736 0.0
H229 H 0.63335 0.69687 0.04363 0.0
H230 H 0.62163 0.7426 0.88176 0.0
H231 H 0.60691 0.77245 0.95056 0.0
H232 H 0.6477 0.73148 0.14641 0.0
H233 H 0.63438 0.7096 0.19589 0.0
H234 H 0.63 0.74065 0.21128 0.0
H235 H 0.60642 0.68777 0.12308 0.0
H236 H 0.5802 0.7031 0.09847 0.0
H237 H 0.58712 0.69968 0.18063 0.0
H238 H 0.58743 0.69685 0.35445 0.0
C239 C 0.58642 0.72317 0.28176 0.0
C240 C 0.33368 0.50417 0.22145 0.0
C241 C 0.34281 0.50588 0.2847 0.0
C242 C 0.32689 0.50669 0.33587 0.0
C243 C 0.29431 0.49887 0.26473 0.0
C244 C 0.30887 0.50124 0.21255 0.0
C245 C 0.29439 0.49889 0.15103 0.0
H246 H 0.18758 0.46443 0.0206 0.0
C247 C 0.2709 0.49096 0.24352 0.0
C248 C 0.26948 0.49329 0.17703 0.0
H249 H 0.22414 0.5278 0.96324 0.0
H250 H 0.25236 0.5226 0.05137 0.0
H251 H 0.23311 0.4309 0.08238 0.0
H252 H 0.18538 0.48418 0.15191 0.0
H253 H 0.18732 0.4622 0.21006 0.0
H254 H 0.17563 0.45475 0.13299 0.0
H255 H 0.20206 0.42549 0.0924 0.0
H256 H 0.22257 0.42213 0.15772 0.0
C257 C 0.30367 0.47823 0.11063 0.0
C258 C 0.29564 0.52221 0.1137 0.0
C259 C 0.22442 0.4427 0.40281 0.0
C260 C 0.2045 0.42788 0.39798 0.0
C261 C 0.19632 0.42149 0.33665 0.0
C262 C 0.2066 0.43133 0.28174 0.0
C263 C 0.22495 0.44804 0.28835 0.0
C264 C 0.23426 0.45249 0.34798 0.0
C265 C 0.25375 0.47051 0.34712 0.0
C266 C 0.25475 0.47616 0.27638 0.0
C267 C 0.23737 0.46362 0.24257 0.0
C268 C 0.27667 0.45884 0.3731 0.0
C269 C 0.24559 0.4923 0.38607 0.0
C270 C 0.20262 0.47629 0.02374 0.0
C271 C 0.20425 0.49576 0.98259 0.0
C272 C 0.223 0.51206 0.99234 0.0
C273 C 0.2398 0.50875 0.04174 0.0
C274 C 0.23804 0.48888 0.0816 0.0
C275 C 0.21879 0.47383 0.07421 0.0
C276 C 0.21444 0.45929 0.13306 0.0
C277 C 0.2338 0.46838 0.1769 0.0
C278 C 0.24891 0.48424 0.14498 0.0
C279 C 0.21804 0.43299 0.11584 0.0
C280 C 0.1894 0.46513 0.15855 0.0
H281 H 0.29153 0.50447 0.36687 0.0
H282 H 0.34547 0.50438 0.18091 0.0
H283 H 0.28433 0.53587 0.13608 0.0
H284 H 0.29029 0.51956 0.06338 0.0
H285 H 0.31406 0.52908 0.11234 0.0
H286 H 0.30358 0.46159 0.13869 0.0
H287 H 0.32201 0.48181 0.09447 0.0
H288 H 0.29238 0.47553 0.06782 0.0
H289 H 0.23113 0.44843 0.4487 0.0
H290 H 0.18118 0.40988 0.3313 0.0
H291 H 0.19911 0.42651 0.23647 0.0
H292 H 0.28974 0.45574 0.33462 0.0
H293 H 0.2733 0.44129 0.39508 0.0
H294 H 0.28509 0.46956 0.41124 0.0
H295 H 0.22639 0.49552 0.37922 0.0
H296 H 0.25436 0.50884 0.37073 0.0
H297 H 0.24875 0.48971 0.43787 0.0
H298 H 0.33328 0.50903 0.38424 0.0
C299 C 0.30278 0.50351 0.3261 0.0
C300 C 0.12617 0.2218 0.37316 0.0
C301 C 0.13386 0.19845 0.36332 0.0
C302 C 0.1366 0.19054 0.29979 0.0
C303 C 0.11645 0.22532 0.26117 0.0
C304 C 0.11754 0.23481 0.32159 0.0
C305 C 0.10609 0.25862 0.32513 0.0
H306 H 0.03307 0.34116 0.20551 0.0
C307 C 0.10096 0.2406 0.22222 0.0
C308 C 0.09504 0.26024 0.25907 0.0
H309 H 0.07733 0.34301 0.37392 0.0
H310 H 0.0919 0.30492 0.34972 0.0
H311 H 0.07336 0.31338 0.10287 0.0
H312 H 0.01985 0.27941 0.2205 0.0
H313 H 0.01926 0.27136 0.13861 0.0
H314 H 1.01164 0.30093 0.16158 0.0
H315 H 0.04281 0.32166 0.09616 0.0
H316 H 0.05299 0.29455 0.06161 0.0
C317 C 0.12604 0.27725 0.33521 0.0
C318 C 0.08711 0.258 0.3785 0.0
C319 C 0.07 0.2055 1.01718 0.0
C320 C 0.05079 0.20995 0.97705 0.0
C321 C 0.03723 0.23047 0.98895 0.0
C322 C 0.04305 0.24618 0.03983 0.0
C323 C 0.06219 0.24099 0.0806 0.0
C324 C 0.07497 0.22063 0.06856 0.0
C325 C 0.09287 0.21564 0.11904 0.0
C326 C 0.08926 0.23638 0.16348 0.0
C327 C 0.07164 0.25195 0.14108 0.0
C328 C 0.11766 0.21656 0.08802 0.0
C329 C 0.08653 0.19151 0.15059 0.0
C330 C 0.04599 0.33314 0.23663 0.0
C331 C 0.0543 0.34547 0.29179 0.0
C332 C 0.07094 0.33435 0.33103 0.0
C333 C 0.07958 0.31206 0.31659 0.0
C334 C 0.0717 0.30007 0.26198 0.0
C335 C 0.05527 0.31033 0.22217 0.0
C336 C 0.04964 0.29379 0.16611 0.0
C337 C 0.06661 0.27305 0.17758 0.0
C338 C 0.07879 0.27704 0.23532 0.0
C339 C 0.05493 0.30652 0.10297 0.0
C340 C 0.02364 0.28593 0.17157 0.0
H341 H 0.12876 0.19608 0.20208 0.0
H342 H 0.12435 0.22906 0.42057 0.0
H343 H 0.07726 0.24094 0.37754 0.0
H344 H 0.0735 0.27171 0.37341 0.0
H345 H 0.09532 0.25994 0.42635 0.0
H346 H 0.14384 0.27013 0.32405 0.0
H347 H 0.12663 0.28358 0.38535 0.0
H348 H 0.12409 0.29263 0.30299 0.0
H349 H 0.08039 0.18966 1.01076 0.0
H350 H 0.02221 0.23436 0.95886 0.0
H351 H 0.03235 0.26157 0.0464 0.0
H352 H 0.1189 0.23136 0.05335 0.0
H353 H 0.12147 0.19993 0.06188 0.0
H354 H 0.1319 0.2199 0.12307 0.0
H355 H 0.06831 0.18551 0.13872 0.0
H356 H 0.08666 0.19237 0.20328 0.0
H357 H 0.09867 0.17732 0.13484 0.0
H358 H 0.14382 0.17327 0.28975 0.0
C359 C 0.12774 0.20377 0.24873 0.0
C360 C 0.31063 0.04733 0.99733 0.0
C361 C 0.33241 0.0562 0.97303 0.0
C362 C 0.34158 0.07727 0.99853 0.0
C363 C 0.30879 0.0804 0.07172 0.0
C364 C 0.29885 0.06007 0.04657 0.0
C365 C 0.27517 0.05481 0.07876 0.0
H366 H 0.19489 0.09114 0.30765 0.0
C367 C 0.29335 0.08968 0.12237 0.0
C368 C 0.273 0.07533 0.12665 0.0
H369 H 0.18754 0.02904 0.18952 0.0
H370 H 0.22508 0.03851 0.1371 0.0
H371 H 0.2426 0.08304 0.34555 0.0
H372 H 0.21498 0.12687 0.19836 0.0
H373 H 0.23729 0.14332 0.23706 0.0
H374 H 0.21242 0.13252 0.2823 0.0
H375 H 0.23521 0.11316 0.36099 0.0
H376 H 0.26454 0.10464 0.33713 0.0
C377 C 0.27682 0.03079 0.11271 0.0
C378 C 0.2555 0.05543 0.02808 0.0
C379 C 0.32757 0.14985 0.27467 0.0
C380 C 0.31943 0.1582 0.33409 0.0
C381 C 0.2948 0.15816 0.34471 0.0
C382 C 0.27949 0.14593 0.30338 0.0
C383 C 0.28887 0.13386 0.25057 0.0
C384 C 0.31217 0.1374 0.23453 0.0
C385 C 0.3192 0.12345 0.17666 0.0
C386 C 0.29694 0.10888 0.16499 0.0
C387 C 0.27935 0.115 0.20845 0.0
C388 C 0.3406 0.10774 0.19476 0.0
C389 C 0.32398 0.14128 0.12187 0.0
C390 C 0.20081 0.07972 0.26945 0.0
C391 C 0.18773 0.0596 0.25226 0.0
C392 C 0.19709 0.04479 0.20395 0.0
C393 C 0.21886 0.05031 0.17342 0.0
C394 C 0.23165 0.07069 0.19186 0.0
C395 C 0.2223 0.08478 0.23956 0.0
C396 C 0.23816 0.1048 0.25789 0.0
C397 C 0.25849 0.10117 0.21248 0.0
C398 C 0.25503 0.08121 0.17273 0.0
C399 C 0.24549 0.10148 0.32893 0.0
C400 C 0.22511 0.1282 0.24374 0.0
H401 H 0.33842 0.105 0.06398 0.0
H402 H 0.30295 0.03128 0.97809 0.0
H403 H 0.25655 0.07208 1.00022 0.0
H404 H 0.23775 0.05468 0.04954 0.0
H405 H 0.25723 0.04037 0.99436 0.0
H406 H 0.29282 0.03021 0.14345 0.0
H407 H 0.27797 0.01617 0.07743 0.0
H408 H 0.26153 0.02741 0.1439 0.0
H409 H 0.3461 0.15004 0.26268 0.0
H410 H 0.28754 0.16568 0.38786 0.0
H411 H 0.26124 0.14498 0.31665 0.0
H412 H 0.33835 0.10032 0.24346 0.0
H413 H 0.35732 0.11808 0.19422 0.0
H414 H 0.34284 0.09224 0.1636 0.0
H415 H 0.31617 0.15892 0.13157 0.0
H416 H 0.31576 0.13554 0.0763 0.0
H417 H 0.3432 0.14407 0.11441 0.0
H418 H 0.35815 0.08444 0.98114 0.0
C419 C 0.32998 0.08932 0.04688 0.0
C420 C 0.49751 0.31721 1.00528 0.0
C421 C 0.49079 0.34081 0.99058 0.0
C422 C 0.47532 0.35251 0.03189 0.0
C423 C 0.47368 0.31858 0.10183 0.0
C424 C 0.48844 0.30627 0.06145 0.0
C425 C 0.49261 0.28132 0.08705 0.0
H426 H 0.4638 0.20122 0.3251 0.0
C427 C 0.46678 0.30323 0.15547 0.0
C428 C 0.47703 0.28077 0.1471 0.0
H429 H 0.51447 0.18863 0.17578 0.0
H430 H 0.50629 0.22793 0.13132 0.0
H431 H 0.47932 0.24274 0.36646 0.0
H432 H 0.42419 0.22748 0.23713 0.0
H433 H 0.41398 0.25097 0.28454 0.0
H434 H 0.42365 0.22401 0.32214 0.0
H435 H 0.44951 0.24426 0.39281 0.0
H436 H 0.46531 0.27017 0.36596 0.0
C437 C 0.51896 0.27891 0.10384 0.0
C438 C 0.48438 0.26307 0.0372 0.0
C439 C 0.43206 0.33951 0.35402 0.0
C440 C 0.42591 0.32937 0.41317 0.0
C441 C 0.41999 0.30516 0.41468 0.0
C442 C 0.42425 0.29072 0.36174 0.0
C443 C 0.43449 0.30063 0.30694 0.0
C444 C 0.43622 0.32478 0.30156 0.0
C445 C 0.44552 0.33211 0.23732 0.0
C446 C 0.45279 0.30824 0.20987 0.0
C447 C 0.4466 0.29006 0.25155 0.0
C448 C 0.46701 0.34882 0.24723 0.0
C449 C 0.42476 0.34333 0.19967 0.0
C450 C 0.4729 0.20633 0.28185 0.0
C451 C 0.48944 0.1913 0.25375 0.0
C452 C 0.50152 0.19969 0.19889 0.0
C453 C 0.49679 0.22251 0.17315 0.0
C454 C 0.48017 0.23733 0.20317 0.0
C455 C 0.46879 0.22878 0.25689 0.0
C456 C 0.45297 0.24641 0.2873 0.0
C457 C 0.45638 0.26731 0.24361 0.0
C458 C 0.47204 0.26236 0.19288 0.0
C459 C 0.46201 0.25118 0.35657 0.0
C460 C 0.42731 0.23678 0.28321 0.0
H461 H 0.45529 0.35185 0.11584 0.0
H462 H 0.5093 0.30767 0.97406 0.0
H463 H 0.46584 0.26657 0.02269 0.0
H464 H 0.485 0.24489 0.05606 0.0
H465 H 0.49565 0.26392 0.99396 0.0
H466 H 0.52482 0.29384 0.13467 0.0
H467 H 0.52992 0.27903 0.05996 0.0
H468 H 0.52263 0.26252 0.13028 0.0
H469 H 0.43606 0.35813 0.35 0.0
H470 H 0.41393 0.29699 0.45838 0.0
H471 H 0.42078 0.27222 0.36694 0.0
H472 H 0.47918 0.34151 0.28377 0.0
H473 H 0.46127 0.36655 0.26355 0.0
H474 H 0.47767 0.35131 0.20385 0.0
H475 H 0.42715 0.36272 0.19461 0.0
H476 H 0.40739 0.34052 0.22328 0.0
H477 H 0.4227 0.33533 0.15158 0.0
H478 H 0.46988 0.37045 0.02178 0.0
C479 C 0.46674 0.34161 0.08665 0.0
C480 C 0.06571 0.03963 0.80724 0.0
C481 C 0.04408 0.03585 0.90625 0.0
C482 C 0.04687 0.03032 0.84111 0.0
C483 C 0.05969 0.05195 0.93554 0.0
C484 C 0.08232 0.05456 0.83746 0.0
C485 C 0.07882 0.06122 0.90126 0.0
N486 N 0.06851 0.03305 0.74548 0.0
C487 C 0.08847 0.039 0.71268 0.0
C488 C 0.10227 0.06181 0.80309 0.0
C489 C 0.10552 0.0537 0.74072 0.0
Gd490 Gd 0.99343 0.03905 0.58299 0.0
Gd491 Gd 0.03914 1.00854 0.70208 0.0
N492 N 0.03255 1.01427 0.81187 0.0
C493 C 0.02641 0.02418 0.94075 0.0
C494 C 0.01699 1.00116 0.84692 0.0
C495 C 0.01315 1.00638 0.91124 0.0
H496 H 1.00767 0.98646 0.82563 0.0
H497 H 1.00028 0.99638 0.93826 0.0
H498 H 0.01494 0.02879 0.43817 0.0
H499 H 0.09097 0.03271 0.66452 0.0
H500 H 1.00773 1.00171 0.34703 0.0
H501 H 0.02367 0.02794 0.99085 0.0
H502 H 0.05764 0.05663 0.98533 0.0
H503 H 0.94185 0.03952 0.66507 0.0
H504 H 0.11547 0.07323 0.82466 0.0
H505 H 0.1211 0.05881 0.71422 0.0
H506 H 0.93946 0.95672 0.4105 0.0
H507 H 0.09117 0.07298 0.92505 0.0
H508 H 0.89954 0.98143 0.6005 0.0
H509 H 0.90629 1.01464 0.67539 0.0
N510 N 0.95678 0.01887 0.59049 0.0
C511 C 0.95233 1.00212 0.54561 0.0
C512 C 0.93979 0.02439 0.63415 0.0
C513 C 0.91554 0.99192 0.59691 0.0
C514 C 0.9193 1.01061 0.6393 0.0
C515 C 0.93179 0.98795 0.54797 0.0
H516 H 0.91217 0.95976 0.50143 0.0
N517 N 0.98631 0.01528 0.49264 0.0
C518 C 0.96742 1.00052 0.49436 0.0
C519 C 0.97772 0.98481 0.39104 0.0
C520 C 0.96279 0.98457 0.44417 0.0
C521 C 1.00024 0.01652 0.43957 0.0
C522 C 0.9963 1.00113 0.38829 0.0
O523 O 0.04153 0.04883 0.69034 0.0
O524 O 1.00325 0.05959 0.67224 0.0
O525 O 0.99835 0.06522 0.50937 0.0
O526 O 0.96681 0.06616 0.56603 0.0
O527 O 0.9999 1.00291 0.72184 0.0
O528 O 0.98339 0.03758 0.6883 0.0
O529 O 1.01089 1.00382 0.56055 0.0
O530 O 1.00988 0.98665 0.65719 0.0
O531 O 0.0576 0.98306 0.76055 0.0
O532 O 0.06113 0.98166 0.6583 0.0
O533 O 0.03207 0.04696 0.56064 0.0
O534 O 0.0538 0.01617 0.60352 0.0
C535 C 0.0243 0.06424 0.69571 0.0
C536 C 0.98375 0.01942 0.72738 0.0
C537 C 0.98634 0.10223 0.54465 0.0
C538 C 0.0173 0.13041 0.57561 0.0
C539 C 0.97858 0.14408 0.53986 0.0
C540 C 0.97113 0.12079 0.53012 0.0
C541 C 1.0016 0.14894 0.56086 0.0
C542 C 1.00858 0.10718 0.57137 0.0
C543 C 0.98042 0.07772 0.52722 0.0
C544 C 0.94317 0.96936 0.44811 0.0
C545 C 0.92768 0.97104 0.49998 0.0
H546 H 0.97478 0.97282 0.35145 0.0
C547 C 1.0088 0.98469 0.59511 0.0
C548 C 0.05096 0.03334 0.56176 0.0
C549 C 0.05757 0.94579 0.71273 0.0
C550 C 0.02648 0.91624 0.72868 0.0
C551 C 0.06684 0.90429 0.70445 0.0
C552 C 0.074 0.92791 0.70198 0.0
C553 C 0.04335 0.89842 0.71821 0.0
C554 C 0.03394 0.93991 0.72481 0.0
C555 C 0.06467 0.97073 0.71191 0.0
H556 H 0.9669 0.15848 0.52796 0.0
H557 H 0.95382 0.1173 0.5101 0.0
H558 H 1.00716 0.16722 0.56218 0.0
H559 H 0.01957 0.09256 0.58504 0.0
H560 H 0.07961 0.89043 0.69671 0.0
H561 H 0.09229 0.93221 0.69217 0.0
H562 H 0.03873 0.87993 0.72223 0.0
H563 H 0.02147 0.95402 0.73171 0.0
C564 C 0.51914 0.95312 0.50109 0.0
C565 C 0.50089 0.91828 0.54692 0.0
C566 C 0.50473 0.94289 0.54657 0.0
C567 C 0.51249 0.90405 0.50199 0.0
C568 C 0.53022 0.93905 0.45454 0.0
C569 C 0.52714 0.91441 0.4559 0.0
N570 N 0.52143 0.97698 0.50063 0.0
C571 C 0.53366 0.98806 0.45319 0.0
C572 C 0.54364 0.95023 0.40728 0.0
C573 C 0.54518 0.97486 0.4063 0.0
Gd574 Gd 0.53141 0.04087 0.70368 0.0
Gd575 Gd 0.50326 0.99739 0.58457 0.0
N576 N 0.49356 0.95717 0.58862 0.0
C577 C 0.4851 0.90882 0.59153 0.0
C578 C 0.47748 0.94824 0.6306 0.0
C579 C 0.47319 0.9239 0.63317 0.0
H580 H 0.46831 0.95985 0.66297 0.0
H581 H 0.46072 0.9168 0.66726 0.0
H582 H 0.56142 0.07922 0.61394 0.0
H583 H 0.535 1.00708 0.45221 0.0
H584 H 0.57171 0.12156 0.61381 0.0
H585 H 0.48168 0.88998 0.59344 0.0
H586 H 0.5099 0.88507 0.50173 0.0
H587 H 0.50298 0.03081 0.84173 0.0
H588 H 0.55249 0.94005 0.37073 0.0
H589 H 0.55525 0.98369 0.36949 0.0
H590 H 0.53734 0.15129 0.80698 0.0
H591 H 0.53563 0.90327 0.4208 0.0
H592 H 0.49704 0.09615 0.94242 0.0
H593 H 0.48928 0.0532 0.93491 0.0
N594 N 0.51858 0.06061 0.79618 0.0
C595 C 0.52308 0.08412 0.79968 0.0
C596 C 0.50675 0.04944 0.84426 0.0
C597 C 0.50319 0.08637 0.90128 0.0
C598 C 0.49882 0.06213 0.89726 0.0
C599 C 0.51554 0.09768 0.85225 0.0
H600 H 0.51497 0.1327 0.89421 0.0
N601 N 0.54268 0.08082 0.70159 0.0
C602 C 0.53555 0.09456 0.75076 0.0
C603 C 0.55409 0.12866 0.70269 0.0
C604 C 0.54101 0.11888 0.75275 0.0
C605 C 0.55568 0.09017 0.65298 0.0
C606 C 0.56152 0.1142 0.65267 0.0
O607 O 0.51346 0.97883 0.67639 0.0
O608 O 0.51741 1.00772 0.75417 0.0
O609 O 0.55505 1.01163 0.71698 0.0
O610 O 0.56379 0.04625 0.75774 0.0
O611 O 0.47963 1.00387 0.67088 0.0
O612 O 0.49148 0.03983 0.71334 0.0
O613 O 0.51532 0.05925 0.61714 0.0
O614 O 0.51579 0.03132 0.53701 0.0
O615 O 0.47513 0.02209 0.5666 0.0
O616 O 0.47657 0.98817 0.51383 0.0
O617 O 0.55237 0.03697 0.61208 0.0
O618 O 0.54353 0.99895 0.58225 0.0
C619 C 0.5157 0.98528 0.73659 0.0
C620 C 0.47546 0.02309 0.7048 0.0
C621 C 0.59505 0.02135 0.7217 0.0
C622 C 0.62738 0.99388 0.70214 0.0
C623 C 0.62866 0.03367 0.65836 0.0
C624 C 0.60681 0.03869 0.686 0.0
C625 C 0.63878 1.01136 0.66556 0.0
C626 C 0.60554 0.99926 0.73031 0.0
C627 C 0.57094 0.02467 0.74576 0.0
C628 C 0.53338 0.13256 0.80464 0.0
C629 C 0.52066 0.12198 0.8543 0.0
H630 H 0.55865 0.14727 0.70238 0.0
C631 C 0.51369 0.05338 0.55635 0.0
C632 C 0.55805 0.01721 0.58291 0.0
C633 C 0.44414 0.01489 0.48887 0.0
C634 C 0.41353 0.04377 0.46628 0.0
C635 C 0.41279 1.00536 0.41406 0.0
C636 C 0.43331 0.99898 0.44638 0.0
C637 C 0.4029 0.02758 0.42392 0.0
C638 C 0.43424 0.03733 0.49834 0.0
C639 C 0.46569 1.00822 0.52337 0.0
H640 H 0.63759 0.04699 0.63023 0.0
H641 H 0.59889 0.0558 0.67811 0.0
H642 H 0.65547 1.00784 0.64247 0.0
H643 H 0.59652 0.98631 0.75958 0.0
H644 H 0.40452 0.99305 0.38125 0.0
H645 H 0.44066 0.98162 0.4382 0.0
H646 H 0.38706 0.0322 0.39788 0.0
H647 H 0.44243 0.0497 0.53129 0.0
C648 C 0.44761 0.5074 0.76406 0.0
C649 C 0.45955 0.48599 0.85876 0.0
C650 C 0.46483 0.50152 0.80823 0.0
C651 C 0.43671 0.47642 0.86402 0.0
C652 C 0.42463 0.49792 0.76929 0.0
C653 C 0.41929 0.48236 0.8194 0.0
N654 N 0.45338 0.52234 0.71587 0.0
C655 C 0.43681 0.52912 0.67245 0.0
C656 C 0.40769 0.50437 0.72399 0.0
C657 C 0.41379 0.52013 0.67553 0.0
Gd658 Gd 0.54226 0.51331 0.59737 0.0
Gd659 Gd 0.49252 0.53609 0.71387 0.0
N660 N 0.48695 0.51048 0.80059 0.0
C661 C 0.47747 0.48037 0.90206 0.0
C662 C 0.50429 0.50568 0.84381 0.0
C663 C 0.4999 0.49038 0.89472 0.0
H664 H 0.52153 0.51352 0.83912 0.0
H665 H 0.51381 0.48634 0.92833 0.0
H666 H 0.50987 0.51114 0.46078 0.0
H667 H 0.44118 0.54183 0.63607 0.0
H668 H 0.50502 0.53456 0.3634 0.0
H669 H 0.47417 0.46843 0.94137 0.0
H670 H 0.43234 0.46438 0.90236 0.0
H671 H 0.59241 0.53197 0.66537 0.0
H672 H 0.38983 0.49746 0.72632 0.0
H673 H 0.40074 0.52549 0.6408 0.0
H674 H 0.5689 0.59034 0.37161 0.0
H675 H 0.40175 0.47485 0.8241 0.0
H676 H 0.6228 0.58568 0.5474 0.0
H677 H 0.62402 0.56122 0.64493 0.0
N678 N 0.57341 0.54008 0.58098 0.0
C679 C 0.57274 0.55284 0.52615 0.0
C680 C 0.59168 0.54265 0.62295 0.0
C681 C 0.60894 0.57282 0.55604 0.0
C682 C 0.60965 0.55911 0.61128 0.0
C683 C 0.59037 0.56978 0.5126 0.0
H684 H 0.60195 0.59664 0.44601 0.0
N685 N 0.53717 0.53289 0.49906 0.0
C686 C 0.55386 0.54946 0.48468 0.0
C687 C 0.53414 0.55785 0.38507 0.0
C688 C 0.55252 0.56269 0.42784 0.0
C689 C 0.52074 0.52657 0.45442 0.0
C690 C 0.5185 0.53934 0.39781 0.0
O691 O 0.49442 0.49597 0.70311 0.0
O692 O 0.53317 0.48823 0.6783 0.0
O693 O 0.54599 0.48559 0.52666 0.0
O694 O 0.57531 0.49421 0.58814 0.0
O695 O 0.5309 0.54157 0.74605 0.0
O696 O 0.55349 0.51228 0.70044 0.0
O697 O 0.54083 0.55269 0.62265 0.0
O698 O 0.50136 0.55877 0.62843 0.0
O699 O 0.49812 0.56003 0.79274 0.0
O700 O 0.46741 0.56433 0.73235 0.0
O701 O 0.50367 0.50384 0.57301 0.0
O702 O 0.48359 0.53621 0.6091 0.0
C703 C 0.51281 0.48183 0.70316 0.0
C704 C 0.54989 0.52813 0.74526 0.0
C705 C 0.56686 0.45396 0.57326 0.0
C706 C 0.5457 0.41839 0.60766 0.0
C707 C 0.58779 0.4227 0.62818 0.0
C708 C 0.58783 0.44477 0.59845 0.0
C709 C 0.56686 0.40962 0.63322 0.0
C710 C 0.54599 0.44049 0.57735 0.0
C711 C 0.56606 0.47857 0.55009 0.0
C712 C 0.56981 0.57988 0.41473 0.0
C713 C 0.5887 0.58339 0.45693 0.0
H714 H 0.53249 0.5676 0.34093 0.0
C715 C 0.52251 0.5664 0.61364 0.0
C716 C 0.48531 0.51812 0.57014 0.0
C717 C 0.48839 0.59866 0.76264 0.0
C718 C 0.51995 0.62758 0.74431 0.0
C719 C 0.47907 0.64023 0.75652 0.0
C720 C 0.47183 0.61686 0.76534 0.0
C721 C 0.50294 0.64565 0.74717 0.0
C722 C 0.51212 0.60406 0.74906 0.0
C723 C 0.48121 0.57404 0.7747 0.0
H724 H 0.60398 0.41584 0.64815 0.0
H725 H 0.60409 0.45491 0.59655 0.0
H726 H 0.56724 0.39277 0.65745 0.0
H727 H 0.52983 0.44728 0.55699 0.0
H728 H 0.46625 0.6543 0.75917 0.0
H729 H 0.45341 0.613 0.77477 0.0
H730 H 0.50799 0.66408 0.74505 0.0
H731 H 0.52466 0.58985 0.74422 0.0
C732 C 0.02973 0.47536 0.81891 0.0
C733 C 0.02708 0.49817 0.91641 0.0
C734 C 0.02125 0.49481 0.85159 0.0
C735 C 0.04255 0.4824 0.94656 0.0
C736 C 0.04417 0.45874 0.8499 0.0
C737 C 0.05101 0.46268 0.91342 0.0
N738 N 0.02316 0.47226 0.7572 0.0
C739 C 0.02876 0.45207 0.72507 0.0
C740 C 0.05096 0.43848 0.81632 0.0
C741 C 0.04297 0.435 0.75388 0.0
Gd742 Gd 0.03334 0.54551 0.59489 0.0
Gd743 Gd 0.99936 0.50156 0.71228 0.0
N744 N 1.00588 0.50938 0.82144 0.0
C745 C 0.0164 0.51667 0.94971 0.0
C746 C 0.99368 0.52586 0.85554 0.0
C747 C 0.99924 0.53026 0.91946 0.0
H748 H 0.97928 0.53535 0.8341 0.0
H749 H 0.98994 0.5438 0.94566 0.0
H750 H 0.02952 0.52166 0.4508 0.0
H751 H 0.02254 0.44936 0.6769 0.0
H752 H 1.00829 0.52829 0.34899 0.0
H753 H 0.02042 0.51987 0.99952 0.0
H754 H 0.04743 0.48486 0.99611 0.0
H755 H 0.03223 0.59836 0.6716 0.0
H756 H 0.06201 0.42527 0.83847 0.0
H757 H 0.04777 0.41921 0.72793 0.0
H758 H 0.96486 0.59974 0.386 0.0
H759 H 0.06239 0.4503 0.9378 0.0
H760 H 0.98122 0.64197 0.57964 0.0
H761 H 1.00932 0.6351 0.66803 0.0
N762 N 0.01508 0.58297 0.59102 0.0
C763 C 1.00122 0.58728 0.53952 0.0
C764 C 0.01909 0.60045 0.63481 0.0
C765 C 0.99071 0.62545 0.58211 0.0
C766 C 1.00652 0.62161 0.63211 0.0
C767 C 0.98846 0.60848 0.53386 0.0
H768 H 0.9646 0.62854 0.47418 0.0
N769 N 0.01486 0.55171 0.49613 0.0
C770 C 1.0014 0.57126 0.48993 0.0
C771 C 0.99105 0.55982 0.38243 0.0
C772 C 0.9888 0.57571 0.4333 0.0
C773 C 0.01812 0.53675 0.44579 0.0
C774 C 1.00609 0.54045 0.38838 0.0
O775 O 0.03975 0.49918 0.70458 0.0
O776 O 0.04947 0.53781 0.69117 0.0
O777 O 0.06448 0.53588 0.54188 0.0
O778 O 0.06062 0.57178 0.57386 0.0
O779 O 0.99268 0.54102 0.72691 0.0
O780 O 0.02816 0.55748 0.69821 0.0
O781 O 0.99797 0.52975 0.56385 0.0
O782 O 0.97902 0.52959 0.65885 0.0
O783 O 0.9713 0.48744 0.77175 0.0
O784 O 0.97451 0.47582 0.67415 0.0
O785 O 0.03889 0.50628 0.57375 0.0
O786 O 1.00641 0.48616 0.6141 0.0
C787 C 0.05475 0.51678 0.71258 0.0
C788 C 1.00872 0.55786 0.73268 0.0
C789 C 0.09792 0.55364 0.58886 0.0
C790 C 0.12805 0.52795 0.63518 0.0
C791 C 0.12804 0.56996 0.65924 0.0
C792 C 0.10805 0.57303 0.62087 0.0
C793 C 0.13799 0.54757 0.66659 0.0
C794 C 0.10842 0.53136 0.59537 0.0
C795 C 0.07524 0.55574 0.55399 0.0
C796 C 0.97494 0.59612 0.42879 0.0
C797 C 0.97475 0.61249 0.47906 0.0
H798 H 0.98169 0.56261 0.33803 0.0
C799 C 0.97824 0.53015 0.59638 0.0
C800 C 0.02423 0.48798 0.57389 0.0
C801 C 0.93617 0.48183 0.71222 0.0
C802 C 0.90294 0.50919 0.71764 0.0
C803 C 0.90023 0.47334 0.65343 0.0
C804 C 0.92306 0.46713 0.67145 0.0
C805 C 0.89029 0.49428 0.67574 0.0
C806 C 0.92592 0.50266 0.73589 0.0
C807 C 0.96117 0.47641 0.72451 0.0
H808 H 0.13566 0.58496 0.68407 0.0
H809 H 0.10032 0.59041 0.61715 0.0
H810 H 0.15321 0.54557 0.69738 0.0
H811 H 0.10119 0.51645 0.56923 0.0
H812 H 0.89034 0.4621 0.62108 0.0
H813 H 0.93072 0.45113 0.65231 0.0
H814 H 0.87285 0.49895 0.65897 0.0
H815 H 0.936 0.51394 0.76775 0.0
H816 H 0.17064 0.01679 0.29692 0.0
H817 H 0.15342 0.09083 0.28901 0.0
H818 H 0.13673 1.00994 0.36677 0.0
H819 H 0.12056 0.08437 0.361 0.0
H820 H 0.05206 0.06463 0.46081 0.0
H821 H 0.08275 0.06957 0.38039 0.0
H822 H 0.12431 0.01578 0.4726 0.0
H823 H 0.09339 1.01035 0.5514 0.0
C824 C 0.15952 0.03157 0.30936 0.0
C825 C 0.1651 0.05441 0.28747 0.0
C826 C 0.14019 0.02774 0.35045 0.0
C827 C 0.12581 0.04662 0.37095 0.0
C828 C 0.13086 0.06924 0.34656 0.0
C829 C 0.15003 0.07302 0.30546 0.0
C830 C 0.06773 0.05383 0.464 0.0
C831 C 0.07006 0.0371 0.51314 0.0
C832 C 0.0855 0.05673 0.41775 0.0
C833 C 0.10628 0.04305 0.41914 0.0
C834 C 0.10855 0.02637 0.46852 0.0
C835 C 0.09077 0.02342 0.5145 0.0
H836 H 0.53198 0.16806 0.27408 0.0
H837 H 0.45703 0.16093 0.30659 0.0
H838 H 0.53887 0.13361 0.34315 0.0
H839 H 0.4641 0.12772 0.37743 0.0
H840 H 0.4928 0.09651 0.57073 0.0
H841 H 0.48777 0.12767 0.49111 0.0
H842 H 0.52494 0.08565 0.3527 0.0
H843 H 0.52928 0.05396 0.43187 0.0
C844 C 0.51696 0.15902 0.29481 0.0
C845 C 0.49397 0.16777 0.28526 0.0
C846 C 0.52093 0.13937 0.33484 0.0
C847 C 0.50205 0.12821 0.36688 0.0
C848 C 0.47907 0.13615 0.35456 0.0
C849 C 0.47508 0.15531 0.31384 0.0
C850 C 0.49994 0.09386 0.5234 0.0
C851 C 0.51135 0.07262 0.50784 0.0
C852 C 0.49702 0.11172 0.47769 0.0
C853 C 0.506 0.1092 0.41549 0.0
C854 C 0.51792 0.0882 0.40018 0.0
C855 C 0.52027 0.07001 0.4455 0.0
H856 H 0.37498 0.5424 0.28125 0.0
H857 H 0.36725 0.46946 0.33479 0.0
H858 H 0.41203 0.5448 0.34142 0.0
H859 H 0.40354 0.4718 0.39695 0.0
H860 H 0.47478 0.47907 0.49511 0.0
H861 H 0.44432 0.47537 0.41258 0.0
H862 H 0.42342 0.54749 0.44778 0.0
H863 H 0.45436 0.55138 0.52708 0.0
C864 C 0.38168 0.52663 0.30394 0.0
C865 C 0.36843 0.5056 0.30194 0.0
C866 C 0.4027 0.52807 0.33985 0.0
C867 C 0.41089 0.50861 0.37568 0.0
C868 C 0.39827 0.48717 0.37003 0.0
C869 C 0.3774 0.48574 0.33387 0.0
C870 C 0.46376 0.49416 0.4848 0.0
C871 C 0.46696 0.51542 0.51872 0.0
C872 C 0.44612 0.49204 0.43752 0.0
C873 C 0.43107 0.51111 0.42272 0.0
C874 C 0.43466 0.53243 0.45625 0.0
C875 C 0.45231 0.53456 0.50299 0.0
H876 H 1.01012 0.3612 0.32764 0.0
H877 H 0.08235 0.38401 0.30783 0.0
H878 H 1.00146 0.39699 0.38915 0.0
H879 H 0.07442 0.41884 0.37142 0.0
H880 H 0.05489 0.48625 0.47159 0.0
H881 H 0.05931 0.45515 0.39236 0.0
H882 H 1.0063 0.41346 0.48926 0.0
H883 H 1.00097 0.44518 0.56597 0.0
C884 C 0.02398 0.37421 0.33472 0.0
C885 C 0.04686 0.36979 0.31194 0.0
C886 C 0.01922 0.39459 0.37144 0.0
C887 C 0.03727 0.41106 0.38708 0.0
C888 C 0.05978 0.40713 0.36065 0.0
C889 C 0.06442 0.38699 0.32369 0.0
C890 C 0.04404 0.47053 0.47589 0.0
C891 C 0.02757 0.46848 0.5258 0.0
C892 C 0.04669 0.45241 0.43032 0.0
C893 C 0.03326 0.43131 0.43343 0.0
C894 C 0.01675 0.42936 0.48353 0.0
C895 C 0.01387 0.44762 0.52849 0.0
H896 H 0.89366 0.97634 0.04642 0.0
H897 H 0.85227 0.02811 0.94692 0.0
H898 H 0.92733 0.98487 0.97753 0.0
H899 H 0.88591 0.03662 0.87693 0.0
H900 H 0.95714 0.05474 0.78044 0.0
H901 H 0.92612 0.05142 0.86104 0.0
H902 H 0.9366 0.97601 0.86779 0.0
H903 H 0.96737 0.97937 0.78704 0.0
C904 C 0.89206 0.9902 1.01117 0.0
C905 C 0.87037 1.00182 1.00295 0.0
C906 C 0.91125 0.9948 0.97073 0.0
C907 C 0.90937 1.01112 0.92045 0.0
C908 C 0.88817 0.02398 0.91507 0.0
C909 C 0.86889 0.01931 0.95567 0.0
C910 C 0.95282 0.03744 0.79917 0.0
C911 C 0.96501 0.01735 0.77748 0.0
C912 C 0.93495 0.03553 0.84543 0.0
C913 C 0.92881 1.01348 0.8718 0.0
C914 C 0.94107 0.9934 0.84997 0.0
C915 C 0.95879 0.9953 0.80342 0.0
H916 H 0.50425 0.85052 0.94059 0.0
H917 H 0.54132 0.89554 0.07317 0.0
H918 H 0.49828 0.88392 0.86934 0.0
H919 H 0.53637 0.92909 1.00077 0.0
H920 H 0.51325 0.98944 0.8682 0.0
H921 H 0.51347 0.95791 0.9477 0.0
H922 H 0.51969 0.90623 0.79697 0.0
H923 H 0.51874 0.93745 0.71832 0.0
C924 C 0.51073 0.86777 0.95503 0.0
C925 C 0.52295 0.87042 1.013 0.0
C926 C 0.50769 0.88695 0.91358 0.0
C927 C 0.51722 0.90943 0.928 0.0
C928 C 0.52856 0.91228 0.98763 0.0
C929 C 0.53136 0.89303 0.02953 0.0
C930 C 0.51451 0.97134 0.852 0.0
C931 C 0.51574 0.96619 0.78632 0.0
C932 C 0.51478 0.95314 0.89785 0.0
C933 C 0.5164 0.92919 0.87954 0.0
C934 C 0.51778 0.9242 0.81372 0.0
C935 C 0.51738 0.9423 0.76813 0.0
H936 H 0.65216 0.5865 1.01602 0.0
H937 H 0.66845 0.51219 1.0168 0.0
H938 H 0.61909 0.57918 0.94499 0.0
H939 H 0.63433 0.50452 0.94776 0.0
H940 H 0.5909 0.50306 0.76164 0.0
H941 H 0.62162 0.5086 0.84145 0.0
H942 H 0.5811 0.56461 0.92759 0.0
H943 H 0.55072 0.55955 0.84609 0.0
C944 C 0.64851 0.56845 1.00169 0.0
C945 C 0.66337 0.55 0.02182 0.0
C946 C 0.62922 0.56419 0.96116 0.0
C947 C 0.62382 0.54122 0.93948 0.0
C948 C 0.63802 0.52255 0.96204 0.0
C949 C 0.65748 0.52687 1.00262 0.0
C950 C 0.58848 0.51662 0.79749 0.0
C951 C 0.56828 0.53104 0.79647 0.0
C952 C 0.60612 0.51965 0.84404 0.0
C953 C 0.60417 0.53711 0.89171 0.0
C954 C 0.58368 0.55122 0.89141 0.0
C955 C 0.56606 0.54825 0.84459 0.0
H956 H 0.95923 0.64907 0.04327 0.0
H957 H 0.01448 0.6902 0.9557 0.0
H958 H 0.96822 0.61583 0.97346 0.0
H959 H 0.02346 0.65696 0.8846 0.0
H960 H 0.04273 0.58575 0.78931 0.0
H961 H 0.03771 0.6172 0.86811 0.0
H962 H 0.96231 0.60567 0.86399 0.0
H963 H 0.96741 0.57427 0.78536 0.0
C964 C 0.97376 0.65079 1.01005 0.0
C965 C 0.98625 0.67232 1.00566 0.0
C966 C 0.97869 0.63181 0.96909 0.0
C967 C 0.99628 0.63363 0.92192 0.0
C968 C 1.00982 0.65468 0.92017 0.0
C969 C 1.00484 0.67377 0.9614 0.0
C970 C 0.02505 0.58997 0.80507 0.0
C971 C 1.00549 0.57726 0.78091 0.0
C972 C 0.02216 0.60812 0.85038 0.0
C973 C 0.9996 0.61412 0.87339 0.0
C974 C 0.98005 0.60141 0.84887 0.0
C975 C 0.98294 0.58336 0.80336 0.0
H976 H 0.1424 0.20577 0.49282 0.0
H977 H 0.1221 0.15137 0.35785 0.0
H978 H 0.12251 0.18387 0.57719 0.0
H979 H 0.10351 0.12962 0.44088 0.0
H980 H 0.05484 0.09953 0.55528 0.0
H981 H 0.09503 0.11004 0.53577 0.0
H982 H 0.08047 0.18218 0.58899 0.0
H983 H 0.0405 0.17121 0.61674 0.0
C984 C 0.1344 0.1889 0.48113 0.0
C985 C 0.13268 0.18123 0.41725 0.0
C986 C 0.1231 0.17628 0.52979 0.0
C987 C 0.11045 0.15549 0.51557 0.0
C988 C 0.11273 0.1457 0.45418 0.0
C989 C 0.12364 0.15841 0.40565 0.0
C990 C 0.05993 0.11747 0.56636 0.0
C991 C 0.04333 0.13488 0.58393 0.0
C992 C 0.08338 0.12352 0.55429 0.0
C993 C 0.09069 0.14721 0.55683 0.0
C994 C 0.07539 0.16379 0.58462 0.0
C995 C 0.05205 0.15757 0.59897 0.0
H996 H 0.36728 0.17024 0.33452 0.0
H997 H 0.3111 0.14929 0.46211 0.0
H998 H 0.39482 0.14709 0.39611 0.0
H999 H 0.33915 0.12885 0.52772 0.0
H1000 H 0.36741 0.05342 0.48741 0.0
H1001 H 0.34857 0.0915 0.48771 0.0
H1002 H 0.41679 0.12588 0.47203 0.0
H1003 H 0.43562 0.0871 0.46934 0.0
C1004 C 0.36086 0.16157 0.37709 0.0
C1005 C 0.33644 0.15944 0.38882 0.0
C1006 C 0.37688 0.14852 0.41332 0.0
C1007 C 0.36871 0.13443 0.46394 0.0
C1008 C 0.34564 0.13817 0.48617 0.0
C1009 C 0.32947 0.15034 0.44845 0.0
C1010 C 0.3784 0.06911 0.48474 0.0
C1011 C 0.40286 0.06728 0.47672 0.0
C1012 C 0.36766 0.09113 0.4862 0.0
C1013 C 0.38109 0.11203 0.47974 0.0
C1014 C 0.40585 0.11023 0.47651 0.0
C1015 C 0.41664 0.08803 0.47512 0.0
H1016 H 0.42181 0.37706 0.43895 0.0
H1017 H 0.44359 0.31126 0.52461 0.0
H1018 H 0.44686 0.39848 0.5131 0.0
H1019 H 0.46694 0.3328 0.60183 0.0
H1020 H 0.54039 0.37072 0.59236 0.0
H1021 H 0.5041 0.34908 0.57417 0.0
H1022 H 0.46387 0.41243 0.60941 0.0
H1023 H 0.5004 0.43429 0.62539 0.0
C1024 C 0.43117 0.36717 0.47504 0.0
C1025 C 0.43157 0.34235 0.47325 0.0
C1026 C 0.44537 0.37952 0.51839 0.0
C1027 C 0.45977 0.36724 0.56172 0.0
C1028 C 0.45678 0.34271 0.56736 0.0
C1029 C 0.44298 0.33034 0.52327 0.0
C1030 C 0.52384 0.37993 0.59831 0.0
C1031 C 0.52344 0.40435 0.60964 0.0
C1032 C 0.50286 0.36744 0.5882 0.0
C1033 C 0.48093 0.37905 0.58959 0.0
C1034 C 0.48043 0.40302 0.60677 0.0
C1035 C 0.50144 0.41555 0.61614 0.0
H1036 H 0.21913 0.41874 0.52098 0.0
H1037 H 0.15647 0.42958 0.40723 0.0
H1038 H 0.19854 0.43407 0.61424 0.0
H1039 H 0.13586 0.44365 0.5001 0.0
H1040 H 0.10514 0.4852 0.64244 0.0
H1041 H 0.12158 0.44708 0.61319 0.0
H1042 H 0.19126 0.47834 0.60838 0.0
H1043 H 0.17489 0.5164 0.63663 0.0
C1044 C 0.20064 0.42323 0.51645 0.0
C1045 C 0.18985 0.4242 0.45594 0.0
C1046 C 0.18885 0.4319 0.57002 0.0
C1047 C 0.16593 0.44089 0.56387 0.0
C1048 C 0.15365 0.43712 0.50637 0.0
C1049 C 0.16555 0.42892 0.45264 0.0
C1050 C 0.12408 0.48378 0.63727 0.0
C1051 C 0.13862 0.50404 0.63949 0.0
C1052 C 0.13348 0.46185 0.62103 0.0
C1053 C 0.15759 0.45982 0.60707 0.0
C1054 C 0.17257 0.47928 0.61888 0.0
C1055 C 0.16315 0.50125 0.6348 0.0
H1056 H 0.89923 0.84009 0.83646 0.0
H1057 H 0.92346 0.88374 0.99287 0.0
H1058 H 0.92249 0.86401 0.76268 0.0
H1059 H 0.94686 0.90678 0.92115 0.0
H1060 H 0.99584 0.94232 0.80301 0.0
H1061 H 0.95735 0.93131 0.84078 0.0
H1062 H 0.96269 0.86446 0.74191 0.0
H1063 H 0.99987 0.87694 0.69616 0.0
C1064 C 0.90894 0.85517 0.85486 0.0
C1065 C 0.90985 0.85963 0.92081 0.0
C1066 C 0.92247 0.86877 0.81268 0.0
C1067 C 0.9373 0.88692 0.83584 0.0
C1068 C 0.93576 0.89311 0.90071 0.0
C1069 C 0.92211 0.87975 0.94247 0.0
C1070 C 0.98861 0.92567 0.78661 0.0
C1071 C 1.00163 0.91034 0.74719 0.0
C1072 C 0.96645 0.91913 0.80962 0.0
C1073 C 0.95706 0.8966 0.7966 0.0
C1074 C 0.9692 0.88195 0.75349 0.0
C1075 C 0.99101 0.88888 0.72844 0.0
H1076 H 0.6624 0.90542 0.97389 0.0
H1077 H 0.71967 0.88534 0.84869 0.0
H1078 H 0.64046 0.91956 0.88374 0.0
H1079 H 0.69799 0.90172 0.75873 0.0
H1080 H 0.67446 0.98466 0.71913 0.0
H1081 H 0.69166 0.9493 0.76432 0.0
H1082 H 0.6233 0.91537 0.76486 0.0
H1083 H 0.60605 0.95027 0.7155 0.0
C1084 C 0.67014 0.90301 0.92727 0.0
C1085 C 0.6936 0.89527 0.91981 0.0
C1086 C 0.65738 0.91131 0.87516 0.0
C1087 C 0.66787 0.91239 0.81476 0.0
C1088 C 0.68975 0.90148 0.80529 0.0
C1089 C 0.70226 0.89243 0.85723 0.0
C1090 C 0.66317 0.96938 0.72586 0.0
C1091 C 0.63869 0.97068 0.71527 0.0
C1092 C 0.6731 0.94902 0.75173 0.0
C1093 C 0.65874 0.92971 0.7684 0.0
C1094 C 0.63469 0.93009 0.75254 0.0
C1095 C 0.62483 0.95026 0.72526 0.0
H1096 H 0.63995 0.71354 0.82778 0.0
H1097 H 0.61359 0.67103 0.98392 0.0
H1098 H 0.62302 0.68521 0.75258 0.0
H1099 H 0.59805 0.64304 0.91032 0.0
H1100 H 0.55607 0.60163 0.79803 0.0
H1101 H 0.59475 0.61564 0.82699 0.0
H1102 H 0.58141 0.68136 0.72965 0.0
H1103 H 0.54345 0.66632 0.69403 0.0
C1104 C 0.63122 0.69799 0.84648 0.0
C1105 C 0.62717 0.6955 0.91247 0.0
C1106 C 0.62166 0.68165 0.80314 0.0
C1107 C 0.6084 0.66225 0.82514 0.0
C1108 C 0.60797 0.65776 0.891 0.0
C1109 C 0.61713 0.67415 0.93401 0.0
C1110 C 0.56153 0.6186 0.77954 0.0
C1111 C 0.54579 0.63329 0.746 0.0
C1112 C 0.5839 0.62675 0.79702 0.0
C1113 C 0.59077 0.65007 0.7836 0.0
C1114 C 0.5766 0.66343 0.74208 0.0
C1115 C 0.55445 0.65498 0.72286 0.0
H1116 H 0.80567 0.61718 0.83327 0.0
H1117 H 0.87033 0.63374 0.93456 0.0
H1118 H 0.82729 0.59214 0.76149 0.0
H1119 H 0.89142 0.60636 0.86705 0.0
H1120 H 0.92516 0.55192 0.74403 0.0
H1121 H 0.90729 0.58856 0.77759 0.0
H1122 H 0.83913 0.55383 0.78393 0.0
H1123 H 0.85671 0.51763 0.74697 0.0
C1124 C 0.82459 0.61612 0.83968 0.0
C1125 C 0.83593 0.62663 0.8925 0.0
C1126 C 0.83696 0.60118 0.79895 0.0
C1127 C 0.86078 0.59597 0.81087 0.0
C1128 C 0.87293 0.60936 0.85714 0.0
C1129 C 0.86068 0.62493 0.8967 0.0
C1130 C 0.90628 0.55208 0.75113 0.0
C1131 C 0.89234 0.53171 0.74067 0.0
C1132 C 0.89602 0.57325 0.77092 0.0
C1133 C 0.87164 0.57448 0.78255 0.0
C1134 C 0.85781 0.55401 0.77308 0.0
C1135 C 0.86797 0.53303 0.75222 0.0
H1136 H 1.00971 0.18451 0.95962 0.0
H1137 H 0.07927 0.194 0.88119 0.0
H1138 H 1.00324 0.1505 0.88977 0.0
H1139 H 0.07261 0.161 0.80848 0.0
H1140 H 0.06601 0.0856 0.73378 0.0
H1141 H 0.07145 0.12108 0.7978 0.0
H1142 H 0.9961 0.1327 0.79373 0.0
H1143 H 0.99081 0.09607 0.73472 0.0
C1144 C 0.02336 0.17977 0.92592 0.0
C1145 C 0.04495 0.19215 0.92592 0.0
C1146 C 0.01972 0.16012 0.88549 0.0
C1147 C 0.03745 0.15234 0.84292 0.0
C1148 C 0.05863 0.16561 0.84121 0.0
C1149 C 0.06239 0.18493 0.88241 0.0
C1150 C 0.05059 0.09536 0.74802 0.0
C1151 C 0.02797 0.08722 0.7308 0.0
C1152 C 0.05368 0.11625 0.78383 0.0
C1153 C 0.03422 0.13022 0.80241 0.0
C1154 C 1.01163 0.12247 0.78263 0.0
C1155 C 1.00857 0.10137 0.74784 0.0
H1156 H 0.34167 0.07392 0.85578 0.0
H1157 H 0.35748 1.01464 0.9765 0.0
H1158 H 0.37493 0.06399 0.78707 0.0
H1159 H 0.39086 1.00437 0.90689 0.0
H1160 H 0.44256 0.98839 0.73361 0.0
H1161 H 0.40519 0.99272 0.7918 0.0
H1162 H 0.4187 0.0674 0.81199 0.0
H1163 H 0.45596 0.0631 0.75528 0.0
C1164 C 0.35168 0.05814 0.86612 0.0
C1165 C 0.34665 0.04491 0.92127 0.0
C1166 C 0.37102 0.05264 0.82724 0.0
C1167 C 0.38592 0.03361 0.84188 0.0
C1168 C 0.37978 0.01914 0.89404 0.0
C1169 C 0.36046 0.02484 0.93361 0.0
C1170 C 0.43753 1.00575 0.7503 0.0
C1171 C 0.45239 0.0254 0.73931 0.0
C1172 C 0.41612 1.0082 0.78395 0.0
C1173 C 0.40874 0.03044 0.80625 0.0
C1174 C 0.42358 0.05004 0.79487 0.0
C1175 C 0.44509 0.04754 0.76249 0.0
H1176 H 0.53073 0.36774 0.97919 0.0
H1177 H 0.46763 0.34743 0.87808 0.0
H1178 H 0.53715 0.40014 0.90404 0.0
H1179 H 0.4741 0.37944 0.80177 0.0
H1180 H 0.47287 0.45779 0.7416 0.0
H1181 H 0.47008 0.42129 0.80234 0.0
H1182 H 0.54602 0.41521 0.79957 0.0
H1183 H 0.54879 0.45234 0.74084 0.0
C1184 C 0.51885 0.36951 0.93901 0.0
C1185 C 0.49903 0.35453 0.93376 0.0
C1186 C 0.52236 0.3883 0.896 0.0
C1187 C 0.50599 0.39288 0.84675 0.0
C1188 C 0.48692 0.37695 0.83948 0.0
C1189 C 0.48343 0.35819 0.88249 0.0
C1190 C 0.48902 0.44886 0.75443 0.0
C1191 C 0.51107 0.45849 0.73709 0.0
C1192 C 0.48743 0.42756 0.78861 0.0
C1193 C 0.50782 0.41499 0.80654 0.0
C1194 C 0.52987 0.42437 0.78783 0.0
C1195 C 0.53146 0.44571 0.75364 0.0
H1196 H 0.17681 0.53526 0.96997 0.0
H1197 H 0.18637 0.46566 0.89153 0.0
H1198 H 0.14133 0.54019 0.90574 0.0
H1199 H 0.15183 0.47091 0.82359 0.0
H1200 H 0.07622 0.47559 0.75191 0.0
H1201 H 0.11194 0.47106 0.81514 0.0
H1202 H 0.12202 0.54682 0.81339 0.0
H1203 H 0.08531 0.55113 0.75513 0.0
C1204 C 0.17167 0.52124 0.9375 0.0
C1205 C 0.18459 0.50012 0.93585 0.0
C1206 C 0.15118 0.52402 0.90016 0.0
C1207 C 0.14307 0.50593 0.85877 0.0
C1208 C 0.1567 0.48513 0.85561 0.0
C1209 C 0.17686 0.48217 0.89406 0.0
C1210 C 0.0857 0.49128 0.76666 0.0
C1211 C 0.0773 0.51369 0.74953 0.0
C1212 C 0.10671 0.48872 0.80197 0.0
C1213 C 0.12044 0.50855 0.82045 0.0
C1214 C 0.11207 0.53098 0.80222 0.0
C1215 C 0.09091 0.53349 0.76779 0.0
H1216 H 0.02699 0.85856 0.3511 0.0
H1217 H 0.95687 0.85279 0.4292 0.0
H1218 H 0.03447 0.89341 0.41819 0.0
H1219 H 0.96411 0.88756 0.49541 0.0
H1220 H 0.98857 0.9435 0.6394 0.0
H1221 H 0.98516 0.90533 0.58443 0.0
H1222 H 0.02197 0.93446 0.42232 0.0
H1223 H 0.02588 0.97214 0.47805 0.0
C1224 C 0.01334 0.8644 0.3835 0.0
C1225 C 0.99132 0.85276 0.38446 0.0
C1226 C 0.01749 0.88462 0.42152 0.0
C1227 C 0.99984 0.89366 0.46224 0.0
C1228 C 0.97826 0.88124 0.46533 0.0
C1229 C 0.97405 0.86126 0.42698 0.0
C1230 C 0.99622 0.9416 0.59242 0.0
C1231 C 1.00747 0.96098 0.56327 0.0
C1232 C 0.99409 0.91974 0.56047 0.0
C1233 C 1.00328 0.91655 0.49848 0.0
C1234 C 0.01491 0.93591 0.47008 0.0
C1235 C 0.01691 0.95772 0.50187 0.0
H1236 H 0.69417 0.97216 0.4288 0.0
H1237 H 0.68003 0.03634 0.32614 0.0
H1238 H 0.65908 0.97823 0.4937 0.0
H1239 H 0.64419 0.04218 0.38953 0.0
H1240 H 0.58717 0.05344 0.54305 0.0
H1241 H 0.62491 0.05069 0.48731 0.0
H1242 H 0.61806 0.97467 0.48426 0.0
H1243 H 0.58087 0.97749 0.54148 0.0
C1244 C 0.68366 0.98779 0.42069 0.0
C1245 C 0.69 1.00379 0.37231 0.0
C1246 C 0.66326 0.99114 0.45738 0.0
C1247 C 0.6482 1.01045 0.4464 0.0
C1248 C 0.65521 0.02712 0.39999 0.0
C1249 C 0.67586 0.02386 0.36358 0.0
C1250 C 0.59378 0.03613 0.53069 0.0
C1251 C 0.58094 0.01569 0.54743 0.0
C1252 C 0.61544 0.03454 0.49814 0.0
C1253 C 0.62497 1.01244 0.48127 0.0
C1254 C 0.61185 0.99204 0.49744 0.0
C1255 C 0.59024 0.99365 0.52987 0.0
H1256 H 0.56831 0.7059 0.47254 0.0
H1257 H 0.51723 0.68133 0.33505 0.0
H1258 H 0.55941 0.67217 0.54087 0.0
H1259 H 0.50884 0.64692 0.40171 0.0
H1260 H 0.48899 0.59145 0.54868 0.0
H1261 H 0.49333 0.62892 0.49281 0.0
H1262 H 0.5668 0.63188 0.54836 0.0
H1263 H 0.56189 0.59504 0.60708 0.0
C1264 C 0.55472 0.69351 0.45764 0.0
C1265 C 0.54322 0.69657 0.3987 0.0
C1266 C 0.5499 0.67383 0.49633 0.0
C1267 C 0.53365 0.65624 0.47693 0.0
C1268 C 0.52129 0.65997 0.41922 0.0
C1269 C 0.52597 0.67987 0.38083 0.0
C1270 C 0.50604 0.60021 0.54945 0.0
C1271 C 0.52523 0.58988 0.58151 0.0
C1272 C 0.50862 0.62171 0.51668 0.0
C1273 C 0.5305 0.63372 0.51491 0.0
C1274 C 0.54955 0.62357 0.54858 0.0
C1275 C 0.54689 0.60212 0.58162 0.0
H1276 H 0.84009 0.57596 0.46493 0.0
H1277 H 0.85781 0.5226 0.32677 0.0
H1278 H 0.87508 0.56649 0.52644 0.0
H1279 H 0.89273 0.51217 0.38981 0.0
H1280 H 0.96854 0.52247 0.46891 0.0
H1281 H 0.93089 0.52643 0.41334 0.0
H1282 H 0.897 0.54275 0.5924 0.0
H1283 H 0.93513 0.54043 0.64581 0.0
C1284 C 0.85108 0.56153 0.44892 0.0
C1285 C 0.84598 0.54998 0.39095 0.0
C1286 C 0.87133 0.55603 0.48435 0.0
C1287 C 0.88729 0.53867 0.46331 0.0
C1288 C 0.88132 0.52601 0.40729 0.0
C1289 C 0.86097 0.53161 0.37161 0.0
C1290 C 0.9531 0.5272 0.49622 0.0
C1291 C 0.95498 0.53141 0.56221 0.0
C1292 C 0.93127 0.52907 0.46444 0.0
C1293 C 0.91047 0.53497 0.49777 0.0
C1294 C 0.9124 0.53858 0.56416 0.0
C1295 C 0.93428 0.53698 0.59544 0.0
loop_
_geom_bond_atom_site_label_1
_geom_bond_atom_site_label_2
_geom_bond_distance
_geom_bond_site_symmetry_2
_ccdc_geom_bond_type
C0 C1 1.391 . S
C0 C4 1.391 . S
C0 H42 0.948 . S
C1 C0 1.391 . S
C1 C2 1.391 . S
C2 C1 1.391 . S
C2 H58 0.947 . S
C2 C59 1.392 . S
C3 C4 1.391 . S
C3 C7 1.397 . S
C3 C59 1.419 . S
C4 C0 1.391 . S
C4 C3 1.391 . S
C4 C5 1.399 . S
C5 C4 1.399 . S
C5 C8 1.396 . S
C5 C17 1.453 . S
C5 C18 1.684 . S
H6 C30 0.948 . S
C7 C3 1.397 . S
C7 C8 1.394 . S
C7 C26 1.723 . S
C8 C5 1.396 . S
C8 C7 1.394 . S
C8 C38 1.723 . S
H9 C32 0.947 . S
H10 C33 0.948 . S
H11 C39 0.982 . S
H12 C40 0.979 . S
H13 C40 0.980 . S
H14 C40 0.983 . S
H15 C39 0.979 . S
H16 C39 0.977 . S
C17 C5 1.453 . S
C17 H46 0.982 . S
C17 H47 0.979 . S
C17 H48 0.977 . S
C18 C5 1.684 . S
C18 H43 0.979 . S
C18 H44 0.980 . S
C18 H45 0.983 . S
C19 C20 1.391 . S
C19 C24 1.391 . S
C19 H49 0.948 . S
C20 C19 1.391 . S
C20 C21 1.391 . S
C21 C20 1.391 . S
C21 C22 1.392 . S
C21 H50 0.947 1_554 S
C22 C21 1.392 . S
C22 C23 1.419 . S
C22 H51 0.948 . S
C23 C22 1.419 . S
C23 C24 1.391 . S
C23 C27 1.397 . S
C24 C19 1.391 . S
C24 C23 1.391 . S
C24 C25 1.399 . S
C25 C24 1.399 . S
C25 C26 1.396 . S
C25 C28 1.453 . S
C25 C29 1.684 . S
C26 C7 1.723 . S
C26 C25 1.396 . S
C26 C27 1.394 . S
C27 C23 1.397 . S
C27 C26 1.394 . S
C27 C37 1.723 . S
C28 C25 1.453 . S
C28 H52 0.982 . S
C28 H53 0.979 . S
C28 H54 0.977 . S
C29 C25 1.684 . S
C29 H55 0.979 . S
C29 H56 0.980 . S
C29 H57 0.983 . S
C30 H6 0.948 . S
C30 C31 1.391 . S
C30 C35 1.391 . S
C31 C30 1.391 . S
C31 C32 1.391 . S
C32 H9 0.947 . S
C32 C31 1.391 . S
C32 C33 1.392 . S
C33 H10 0.948 . S
C33 C32 1.392 . S
C33 C34 1.419 . S
C34 C33 1.419 . S
C34 C35 1.391 . S
C34 C38 1.397 . S
C35 C30 1.391 . S
C35 C34 1.391 . S
C35 C36 1.399 . S
C36 C35 1.399 . S
C36 C37 1.396 . S
C36 C39 1.453 . S
C36 C40 1.684 . S
C37 C27 1.723 . S
C37 C36 1.396 . S
C37 C38 1.394 . S
C38 C8 1.723 . S
C38 C34 1.397 . S
C38 C37 1.394 . S
C39 H11 0.982 . S
C39 H15 0.979 . S
C39 H16 0.977 . S
C39 C36 1.453 . S
C40 H12 0.979 . S
C40 H13 0.980 . S
C40 H14 0.983 . S
C40 C36 1.684 . S
H41 C59 0.948 . S
H42 C0 0.948 . S
H43 C18 0.979 . S
H44 C18 0.980 . S
H45 C18 0.983 . S
H46 C17 0.982 . S
H47 C17 0.979 . S
H48 C17 0.977 . S
H49 C19 0.948 . S
H50 C21 0.947 1_556 S
H51 C22 0.948 . S
H52 C28 0.982 . S
H53 C28 0.979 . S
H54 C28 0.977 . S
H55 C29 0.979 . S
H56 C29 0.980 . S
H57 C29 0.983 . S
H58 C2 0.947 . S
C59 C2 1.392 . S
C59 C3 1.419 . S
C59 H41 0.948 . S
C60 C61 1.391 . S
C60 C64 1.391 . S
C60 H102 0.948 . S
C61 C60 1.391 . S
C61 C62 1.391 . S
C62 C61 1.391 . S
C62 H118 0.947 . S
C62 C119 1.392 . S
C63 C64 1.391 . S
C63 C67 1.397 . S
C63 C119 1.419 . S
C64 C60 1.391 . S
C64 C63 1.391 . S
C64 C65 1.399 . S
C65 C64 1.399 . S
C65 C68 1.396 . S
C65 C77 1.453 . S
C65 C78 1.684 . S
H66 C90 0.948 . S
C67 C63 1.397 . S
C67 C68 1.394 . S
C67 C86 1.723 . S
C68 C65 1.396 . S
C68 C67 1.394 . S
C68 C98 1.723 . S
H69 C92 0.947 . S
H70 C93 0.948 . S
H71 C99 0.982 . S
H72 C100 0.979 . S
H73 C100 0.980 . S
H74 C100 0.983 . S
H75 C99 0.979 . S
H76 C99 0.977 . S
C77 C65 1.453 . S
C77 H106 0.982 . S
C77 H107 0.979 . S
C77 H108 0.977 . S
C78 C65 1.684 . S
C78 H103 0.979 . S
C78 H104 0.980 . S
C78 H105 0.983 . S
C79 C80 1.391 . S
C79 C84 1.391 . S
C79 H109 0.948 . S
C80 C79 1.391 . S
C80 C81 1.391 . S
C81 C80 1.391 . S
C81 C82 1.392 . S
C81 H110 0.947 . S
C82 C81 1.392 . S
C82 C83 1.419 . S
C82 H111 0.948 . S
C83 C82 1.419 . S
C83 C84 1.391 . S
C83 C87 1.397 . S
C84 C79 1.391 . S
C84 C83 1.391 . S
C84 C85 1.399 . S
C85 C84 1.399 . S
C85 C86 1.396 . S
C85 C88 1.453 . S
C85 C89 1.684 . S
C86 C67 1.723 . S
C86 C85 1.396 . S
C86 C87 1.394 . S
C87 C83 1.397 . S
C87 C86 1.394 . S
C87 C97 1.723 . S
C88 C85 1.453 . S
C88 H112 0.982 . S
C88 H113 0.979 . S
C88 H114 0.977 . S
C89 C85 1.684 . S
C89 H115 0.979 . S
C89 H116 0.980 . S
C89 H117 0.983 . S
C90 H66 0.948 . S
C90 C91 1.391 . S
C90 C95 1.391 . S
C91 C90 1.391 . S
C91 C92 1.391 . S
C92 H69 0.947 . S
C92 C91 1.391 . S
C92 C93 1.392 . S
C93 H70 0.948 . S
C93 C92 1.392 . S
C93 C94 1.419 . S
C94 C93 1.419 . S
C94 C95 1.391 . S
C94 C98 1.397 . S
C95 C90 1.391 . S
C95 C94 1.391 . S
C95 C96 1.399 . S
C96 C95 1.399 . S
C96 C97 1.396 . S
C96 C99 1.453 . S
C96 C100 1.684 . S
C97 C87 1.723 . S
C97 C96 1.396 . S
C97 C98 1.394 . S
C98 C68 1.723 . S
C98 C94 1.397 . S
C98 C97 1.394 . S
C99 H71 0.982 . S
C99 H75 0.979 . S
C99 H76 0.977 . S
C99 C96 1.453 . S
C100 H72 0.979 . S
C100 H73 0.980 . S
C100 H74 0.983 . S
C100 C96 1.684 . S
H101 C119 0.948 . S
H102 C60 0.948 . S
H103 C78 0.979 . S
H104 C78 0.980 . S
H105 C78 0.983 . S
H106 C77 0.982 . S
H107 C77 0.979 . S
H108 C77 0.977 . S
H109 C79 0.948 . S
H110 C81 0.947 . S
H111 C82 0.948 . S
H112 C88 0.982 . S
H113 C88 0.979 . S
H114 C88 0.977 . S
H115 C89 0.979 . S
H116 C89 0.980 . S
H117 C89 0.983 . S
H118 C62 0.947 . S
C119 C62 1.392 . S
C119 C63 1.419 . S
C119 H101 0.948 . S
C120 C121 1.391 . S
C120 C124 1.391 . S
C120 H162 0.948 . S
C121 C120 1.391 . S
C121 C122 1.391 . S
C122 C121 1.391 . S
C122 H178 0.947 . S
C122 C179 1.392 . S
C123 C124 1.391 . S
C123 C127 1.397 . S
C123 C179 1.419 . S
C124 C120 1.391 . S
C124 C123 1.391 . S
C124 C125 1.399 . S
C125 C124 1.399 . S
C125 C128 1.396 . S
C125 C137 1.453 . S
C125 C138 1.684 . S
H126 C150 0.948 . S
C127 C123 1.397 . S
C127 C128 1.394 . S
C127 C146 1.723 . S
C128 C125 1.396 . S
C128 C127 1.394 . S
C128 C158 1.723 . S
H129 C152 0.947 . S
H130 C153 0.948 . S
H131 C159 0.992 . S
H132 C160 0.979 . S
H133 C160 0.980 . S
H134 C160 0.983 . S
H135 C159 0.979 . S
H136 C159 0.977 . S
C137 C125 1.453 . S
C137 H166 0.992 . S
C137 H167 0.979 . S
C137 H168 0.977 . S
C138 C125 1.684 . S
C138 H163 0.979 . S
C138 H164 0.980 . S
C138 H165 0.983 . S
C139 C140 1.391 . S
C139 C144 1.391 . S
C139 H169 0.948 . S
C140 C139 1.391 . S
C140 C141 1.391 . S
C141 C140 1.391 . S
C141 C142 1.392 . S
C141 H170 0.947 . S
C142 C141 1.392 . S
C142 C143 1.419 . S
C142 H171 0.948 . S
C143 C142 1.419 . S
C143 C144 1.391 . S
C143 C147 1.397 . S
C144 C139 1.391 . S
C144 C143 1.391 . S
C144 C145 1.399 . S
C145 C144 1.399 . S
C145 C146 1.396 . S
C145 C148 1.453 . S
C145 C149 1.684 . S
C146 C127 1.723 . S
C146 C145 1.396 . S
C146 C147 1.394 . S
C147 C143 1.397 . S
C147 C146 1.394 . S
C147 C157 1.723 . S
C148 C145 1.453 . S
C148 H172 0.992 . S
C148 H173 0.979 . S
C148 H174 0.977 . S
C149 C145 1.684 . S
C149 H175 0.979 . S
C149 H176 0.980 . S
C149 H177 0.983 . S
C150 H126 0.948 . S
C150 C151 1.391 . S
C150 C155 1.391 . S
C151 C150 1.391 . S
C151 C152 1.391 . S
C152 H129 0.947 . S
C152 C151 1.391 . S
C152 C153 1.392 . S
C153 H130 0.948 . S
C153 C152 1.392 . S
C153 C154 1.419 . S
C154 C153 1.419 . S
C154 C155 1.391 . S
C154 C158 1.397 . S
C155 C150 1.391 . S
C155 C154 1.391 . S
C155 C156 1.399 . S
C156 C155 1.399 . S
C156 C157 1.396 . S
C156 C159 1.453 . S
C156 C160 1.684 . S
C157 C147 1.723 . S
C157 C156 1.396 . S
C157 C158 1.394 . S
C158 C128 1.723 . S
C158 C154 1.397 . S
C158 C157 1.394 . S
C159 H131 0.992 . S
C159 H135 0.979 . S
C159 H136 0.977 . S
C159 C156 1.453 . S
C160 H132 0.979 . S
C160 H133 0.980 . S
C160 H134 0.983 . S
C160 C156 1.684 . S
H161 C179 0.948 . S
H162 C120 0.948 . S
H163 C138 0.979 . S
H164 C138 0.980 . S
H165 C138 0.983 . S
H166 C137 0.992 . S
H167 C137 0.979 . S
H168 C137 0.977 . S
H169 C139 0.948 . S
H170 C141 0.947 . S
H171 C142 0.948 . S
H172 C148 0.992 . S
H173 C148 0.979 . S
H174 C148 0.977 . S
H175 C149 0.979 . S
H176 C149 0.980 . S
H177 C149 0.983 . S
H178 C122 0.947 . S
C179 C122 1.392 . S
C179 C123 1.419 . S
C179 H161 0.948 . S
C180 C181 1.391 . S
C180 C184 1.391 . S
C180 H222 0.948 . S
C181 C180 1.391 . S
C181 C182 1.391 . S
C182 C181 1.391 . S
C182 H238 0.947 . S
C182 C239 1.392 . S
C183 C184 1.391 . S
C183 C187 1.397 . S
C183 C239 1.419 . S
C184 C180 1.391 . S
C184 C183 1.391 . S
C184 C185 1.399 . S
C185 C184 1.399 . S
C185 C188 1.396 . S
C185 C197 1.453 . S
C185 C198 1.684 . S
H186 C210 0.948 . S
C187 C183 1.397 . S
C187 C188 1.394 . S
C187 C206 1.723 . S
C188 C185 1.396 . S
C188 C187 1.394 . S
C188 C218 1.723 . S
H189 C212 0.947 . S
H190 C213 0.948 . S
H191 C219 0.982 . S
H192 C220 0.979 . S
H193 C220 0.980 . S
H194 C220 0.983 . S
H195 C219 0.979 . S
H196 C219 0.977 . S
C197 C185 1.453 . S
C197 H226 0.982 . S
C197 H227 0.979 . S
C197 H228 0.977 . S
C198 C185 1.684 . S
C198 H223 0.979 . S
C198 H224 0.980 . S
C198 H225 0.983 . S
C199 C200 1.391 . S
C199 C204 1.391 . S
C199 H229 0.948 . S
C200 C199 1.391 . S
C200 C201 1.391 . S
C201 C200 1.391 . S
C201 C202 1.392 . S
C201 H230 0.947 1_554 S
C202 C201 1.392 . S
C202 C203 1.419 . S
C202 H231 0.948 . S
C203 C202 1.419 . S
C203 C204 1.391 . S
C203 C207 1.397 . S
C204 C199 1.391 . S
C204 C203 1.391 . S
C204 C205 1.399 . S
C205 C204 1.399 . S
C205 C206 1.396 . S
C205 C208 1.453 . S
C205 C209 1.684 . S
C206 C187 1.723 . S
C206 C205 1.396 . S
C206 C207 1.394 . S
C207 C203 1.397 . S
C207 C206 1.394 . S
C207 C217 1.723 . S
C208 C205 1.453 . S
C208 H232 0.982 . S
C208 H233 0.979 . S
C208 H234 0.977 . S
C209 C205 1.684 . S
C209 H235 0.979 . S
C209 H236 0.980 . S
C209 H237 0.983 . S
C210 H186 0.948 . S
C210 C211 1.391 . S
C210 C215 1.391 . S
C211 C210 1.391 . S
C211 C212 1.391 . S
C212 H189 0.947 . S
C212 C211 1.391 . S
C212 C213 1.392 . S
C213 H190 0.948 . S
C213 C212 1.392 . S
C213 C214 1.419 . S
C214 C213 1.419 . S
C214 C215 1.391 . S
C214 C218 1.397 . S
C215 C210 1.391 . S
C215 C214 1.391 . S
C215 C216 1.399 . S
C216 C215 1.399 . S
C216 C217 1.396 . S
C216 C219 1.453 . S
C216 C220 1.684 . S
C217 C207 1.723 . S
C217 C216 1.396 . S
C217 C218 1.394 . S
C218 C188 1.723 . S
C218 C214 1.397 . S
C218 C217 1.394 . S
C219 H191 0.982 . S
C219 H195 0.979 . S
C219 H196 0.977 . S
C219 C216 1.453 . S
C220 H192 0.979 . S
C220 H193 0.980 . S
C220 H194 0.983 . S
C220 C216 1.684 . S
H221 C239 0.948 . S
H222 C180 0.948 . S
H223 C198 0.979 . S
H224 C198 0.980 . S
H225 C198 0.983 . S
H226 C197 0.982 . S
H227 C197 0.979 . S
H228 C197 0.977 . S
H229 C199 0.948 . S
H230 C201 0.947 1_556 S
H231 C202 0.948 . S
H232 C208 0.982 . S
H233 C208 0.979 . S
H234 C208 0.977 . S
H235 C209 0.979 . S
H236 C209 0.980 . S
H237 C209 0.983 . S
H238 C182 0.947 . S
C239 C182 1.392 . S
C239 C183 1.419 . S
C239 H221 0.948 . S
C240 C241 1.391 . S
C240 C244 1.391 . S
C240 H282 0.948 . S
C241 C240 1.391 . S
C241 C242 1.391 . S
C242 C241 1.391 . S
C242 H298 0.947 . S
C242 C299 1.392 . S
C243 C244 1.391 . S
C243 C247 1.397 . S
C243 C299 1.419 . S
C244 C240 1.391 . S
C244 C243 1.391 . S
C244 C245 1.399 1_554 S
C245 C244 1.399 1_556 S
C245 C248 1.396 1_556 S
C245 C257 1.453 . S
C245 C258 1.684 . S
H246 C270 0.948 . S
C247 C243 1.397 . S
C247 C248 1.394 . S
C247 C266 1.723 . S
C248 C245 1.396 1_554 S
C248 C247 1.394 . S
C248 C278 1.723 1_554 S
H249 C272 0.947 . S
H250 C273 0.948 . S
H251 C279 0.982 . S
H252 C280 0.979 . S
H253 C280 0.980 1_554 S
H254 C280 0.983 . S
H255 C279 0.979 . S
H256 C279 0.977 1_554 S
C257 C245 1.453 . S
C257 H286 0.982 . S
C257 H287 0.979 . S
C257 H288 0.977 . S
C258 C245 1.684 . S
C258 H283 0.979 . S
C258 H284 0.980 . S
C258 H285 0.983 . S
C259 C260 1.391 . S
C259 C264 1.391 . S
C259 H289 0.948 . S
C260 C259 1.391 . S
C260 C261 1.391 . S
C261 C260 1.391 . S
C261 C262 1.392 . S
C261 H290 0.947 . S
C262 C261 1.392 . S
C262 C263 1.419 . S
C262 H291 0.948 . S
C263 C262 1.419 . S
C263 C264 1.391 . S
C263 C267 1.397 . S
C264 C259 1.391 . S
C264 C263 1.391 . S
C264 C265 1.399 . S
C265 C264 1.399 . S
C265 C266 1.396 . S
C265 C268 1.453 . S
C265 C269 1.684 . S
C266 C247 1.723 . S
C266 C265 1.396 . S
C266 C267 1.394 . S
C267 C263 1.397 . S
C267 C266 1.394 . S
C267 C277 1.723 . S
C268 C265 1.453 . S
C268 H292 0.982 . S
C268 H293 0.979 . S
C268 H294 0.977 . S
C269 C265 1.684 . S
C269 H295 0.979 . S
C269 H296 0.980 . S
C269 H297 0.983 . S
C270 H246 0.948 . S
C270 C271 1.391 . S
C270 C275 1.391 . S
C271 C270 1.391 . S
C271 C272 1.391 . S
C272 H249 0.947 . S
C272 C271 1.391 . S
C272 C273 1.392 . S
C273 H250 0.948 . S
C273 C272 1.392 . S
C273 C274 1.419 . S
C274 C273 1.419 . S
C274 C275 1.391 . S
C274 C278 1.397 . S
C275 C270 1.391 . S
C275 C274 1.391 . S
C275 C276 1.399 . S
C276 C275 1.399 . S
C276 C277 1.396 1_556 S
C276 C279 1.453 . S
C276 C280 1.684 . S
C277 C267 1.723 . S
C277 C276 1.396 1_554 S
C277 C278 1.394 1_554 S
C278 C248 1.723 1_556 S
C278 C274 1.397 . S
C278 C277 1.394 1_556 S
C279 H251 0.982 . S
C279 H255 0.979 . S
C279 H256 0.977 1_556 S
C279 C276 1.453 . S
C280 H252 0.979 . S
C280 H253 0.980 1_556 S
C280 H254 0.983 . S
C280 C276 1.684 . S
H281 C299 0.948 . S
H282 C240 0.948 . S
H283 C258 0.979 . S
H284 C258 0.980 . S
H285 C258 0.983 . S
H286 C257 0.982 . S
H287 C257 0.979 . S
H288 C257 0.977 . S
H289 C259 0.948 . S
H290 C261 0.947 . S
H291 C262 0.948 . S
H292 C268 0.982 . S
H293 C268 0.979 . S
H294 C268 0.977 . S
H295 C269 0.979 . S
H296 C269 0.980 . S
H297 C269 0.983 . S
H298 C242 0.947 . S
C299 C242 1.392 . S
C299 C243 1.419 . S
C299 H281 0.948 . S
C300 C301 1.391 . S
C300 C304 1.391 . S
C300 H342 0.948 . S
C301 C300 1.391 . S
C301 C302 1.391 . S
C302 C301 1.391 . S
C302 H358 0.947 . S
C302 C359 1.392 . S
C303 C304 1.391 . S
C303 C307 1.397 . S
C303 C359 1.419 . S
C304 C300 1.391 . S
C304 C303 1.391 . S
C304 C305 1.399 . S
C305 C304 1.399 . S
C305 C308 1.396 . S
C305 C317 1.453 . S
C305 C318 1.684 . S
H306 C330 0.948 . S
C307 C303 1.397 . S
C307 C308 1.394 . S
C307 C326 1.723 . S
C308 C305 1.396 . S
C308 C307 1.394 . S
C308 C338 1.723 . S
H309 C332 0.947 . S
H310 C333 0.948 . S
H311 C339 0.982 . S
H312 C340 0.979 . S
H313 C340 0.980 . S
H314 C340 0.983 . S
H315 C339 0.979 . S
H316 C339 0.977 . S
C317 C305 1.453 . S
C317 H346 0.982 . S
C317 H347 0.979 . S
C317 H348 0.977 . S
C318 C305 1.684 . S
C318 H343 0.979 . S
C318 H344 0.980 . S
C318 H345 0.983 . S
C319 C320 1.391 . S
C319 C324 1.391 . S
C319 H349 0.948 . S
C320 C319 1.391 . S
C320 C321 1.391 . S
C321 C320 1.391 . S
C321 C322 1.392 . S
C321 H350 0.947 . S
C322 C321 1.392 . S
C322 C323 1.419 . S
C322 H351 0.948 . S
C323 C322 1.419 . S
C323 C324 1.391 . S
C323 C327 1.397 . S
C324 C319 1.391 . S
C324 C323 1.391 . S
C324 C325 1.399 . S
C325 C324 1.399 . S
C325 C326 1.396 1_556 S
C325 C328 1.453 . S
C325 C329 1.684 . S
C326 C307 1.723 . S
C326 C325 1.396 1_554 S
C326 C327 1.394 1_554 S
C327 C323 1.397 . S
C327 C326 1.394 1_556 S
C327 C337 1.723 1_556 S
C328 C325 1.453 . S
C328 H352 0.982 . S
C328 H353 0.979 . S
C328 H354 0.977 1_556 S
C329 C325 1.684 . S
C329 H355 0.979 . S
C329 H356 0.980 1_556 S
C329 H357 0.983 . S
C330 H306 0.948 . S
C330 C331 1.391 . S
C330 C335 1.391 . S
C331 C330 1.391 . S
C331 C332 1.391 . S
C332 H309 0.947 . S
C332 C331 1.391 . S
C332 C333 1.392 . S
C333 H310 0.948 . S
C333 C332 1.392 . S
C333 C334 1.419 . S
C334 C333 1.419 . S
C334 C335 1.391 . S
C334 C338 1.397 . S
C335 C330 1.391 . S
C335 C334 1.391 . S
C335 C336 1.399 1_554 S
C336 C335 1.399 1_556 S
C336 C337 1.396 1_556 S
C336 C339 1.453 . S
C336 C340 1.684 . S
C337 C327 1.723 1_554 S
C337 C336 1.396 1_554 S
C337 C338 1.394 . S
C338 C308 1.723 . S
C338 C334 1.397 . S
C338 C337 1.394 . S
C339 H311 0.982 . S
C339 H315 0.979 . S
C339 H316 0.977 . S
C339 C336 1.453 . S
C340 H312 0.979 . S
C340 H313 0.980 . S
C340 H314 0.983 . S
C340 C336 1.684 . S
H341 C359 0.948 . S
H342 C300 0.948 . S
H343 C318 0.979 . S
H344 C318 0.980 . S
H345 C318 0.983 . S
H346 C317 0.982 . S
H347 C317 0.979 . S
H348 C317 0.977 . S
H349 C319 0.948 . S
H350 C321 0.947 . S
H351 C322 0.948 . S
H352 C328 0.982 . S
H353 C328 0.979 . S
H354 C328 0.977 1_554 S
H355 C329 0.979 . S
H356 C329 0.980 1_554 S
H357 C329 0.983 . S
H358 C302 0.947 . S
C359 C302 1.392 . S
C359 C303 1.419 . S
C359 H341 0.948 . S
C360 C361 1.391 . S
C360 C364 1.391 . S
C360 H402 0.948 . S
C361 C360 1.391 . S
C361 C362 1.391 . S
C362 C361 1.391 . S
C362 H418 0.947 . S
C362 C419 1.392 . S
C363 C364 1.391 . S
C363 C367 1.397 . S
C363 C419 1.419 . S
C364 C360 1.391 . S
C364 C363 1.391 . S
C364 C365 1.399 . S
C365 C364 1.399 . S
C365 C368 1.396 . S
C365 C377 1.453 . S
C365 C378 1.684 . S
H366 C390 0.948 . S
C367 C363 1.397 . S
C367 C368 1.394 . S
C367 C386 1.723 1_556 S
C368 C365 1.396 . S
C368 C367 1.394 . S
C368 C398 1.723 1_556 S
H369 C392 0.947 . S
H370 C393 0.948 1_556 S
H371 C399 0.982 . S
H372 C400 0.979 . S
H373 C400 0.980 . S
H374 C400 0.983 . S
H375 C399 0.979 . S
H376 C399 0.977 . S
C377 C365 1.453 . S
C377 H406 0.982 . S
C377 H407 0.979 . S
C377 H408 0.977 . S
C378 C365 1.684 . S
C378 H403 0.979 . S
C378 H404 0.980 . S
C378 H405 0.983 . S
C379 C380 1.391 . S
C379 C384 1.391 . S
C379 H409 0.948 . S
C380 C379 1.391 . S
C380 C381 1.391 . S
C381 C380 1.391 . S
C381 C382 1.392 . S
C381 H410 0.947 . S
C382 C381 1.392 . S
C382 C383 1.419 . S
C382 H411 0.948 . S
C383 C382 1.419 . S
C383 C384 1.391 . S
C383 C387 1.397 . S
C384 C379 1.391 . S
C384 C383 1.391 . S
C384 C385 1.399 . S
C385 C384 1.399 . S
C385 C386 1.396 . S
C385 C388 1.453 . S
C385 C389 1.684 . S
C386 C367 1.723 1_554 S
C386 C385 1.396 . S
C386 C387 1.394 . S
C387 C383 1.397 . S
C387 C386 1.394 . S
C387 C397 1.723 . S
C388 C385 1.453 . S
C388 H412 0.982 . S
C388 H413 0.979 . S
C388 H414 0.977 1_554 S
C389 C385 1.684 . S
C389 H415 0.979 . S
C389 H416 0.980 1_554 S
C389 H417 0.983 . S
C390 H366 0.948 . S
C390 C391 1.391 . S
C390 C395 1.391 . S
C391 C390 1.391 . S
C391 C392 1.391 . S
C392 H369 0.947 . S
C392 C391 1.391 . S
C392 C393 1.392 . S
C393 H370 0.948 1_554 S
C393 C392 1.392 . S
C393 C394 1.419 . S
C394 C393 1.419 . S
C394 C395 1.391 . S
C394 C398 1.397 . S
C395 C390 1.391 . S
C395 C394 1.391 . S
C395 C396 1.399 . S
C396 C395 1.399 . S
C396 C397 1.396 . S
C396 C399 1.453 . S
C396 C400 1.684 . S
C397 C387 1.723 . S
C397 C396 1.396 . S
C397 C398 1.394 . S
C398 C368 1.723 1_554 S
C398 C394 1.397 . S
C398 C397 1.394 . S
C399 H371 0.982 . S
C399 H375 0.979 . S
C399 H376 0.977 . S
C399 C396 1.453 . S
C400 H372 0.979 . S
C400 H373 0.980 . S
C400 H374 0.983 . S
C400 C396 1.684 . S
H401 C419 0.948 . S
H402 C360 0.948 . S
H403 C378 0.979 . S
H404 C378 0.980 . S
H405 C378 0.983 . S
H406 C377 0.982 . S
H407 C377 0.979 . S
H408 C377 0.977 . S
H409 C379 0.948 . S
H410 C381 0.947 . S
H411 C382 0.948 . S
H412 C388 0.982 . S
H413 C388 0.979 . S
H414 C388 0.977 1_556 S
H415 C389 0.979 . S
H416 C389 0.980 1_556 S
H417 C389 0.983 . S
H418 C362 0.947 . S
C419 C362 1.392 . S
C419 C363 1.419 . S
C419 H401 0.948 . S
C420 C421 1.391 . S
C420 C424 1.391 . S
C420 H462 0.948 . S
C421 C420 1.391 . S
C421 C422 1.391 . S
C422 C421 1.391 . S
C422 H478 0.947 . S
C422 C479 1.392 . S
C423 C424 1.391 . S
C423 C427 1.397 . S
C423 C479 1.419 . S
C424 C420 1.391 . S
C424 C423 1.391 . S
C424 C425 1.399 . S
C425 C424 1.399 . S
C425 C428 1.396 . S
C425 C437 1.453 . S
C425 C438 1.684 . S
H426 C450 0.948 . S
C427 C423 1.397 . S
C427 C428 1.394 . S
C427 C446 1.723 1_556 S
C428 C425 1.396 . S
C428 C427 1.394 . S
C428 C458 1.723 1_556 S
H429 C452 0.947 1_556 S
H430 C453 0.948 1_556 S
H431 C459 0.982 . S
H432 C460 0.979 . S
H433 C460 0.980 . S
H434 C460 0.983 . S
H435 C459 0.979 . S
H436 C459 0.977 . S
C437 C425 1.453 . S
C437 H466 0.982 . S
C437 H467 0.979 . S
C437 H468 0.977 . S
C438 C425 1.684 . S
C438 H463 0.979 . S
C438 H464 0.980 . S
C438 H465 0.983 . S
C439 C440 1.391 . S
C439 C444 1.391 . S
C439 H469 0.948 . S
C440 C439 1.391 . S
C440 C441 1.391 . S
C441 C440 1.391 . S
C441 C442 1.392 . S
C441 H470 0.947 . S
C442 C441 1.392 . S
C442 C443 1.419 . S
C442 H471 0.948 . S
C443 C442 1.419 . S
C443 C444 1.391 . S
C443 C447 1.397 . S
C444 C439 1.391 . S
C444 C443 1.391 . S
C444 C445 1.399 . S
C445 C444 1.399 . S
C445 C446 1.396 . S
C445 C448 1.453 . S
C445 C449 1.684 . S
C446 C427 1.723 1_554 S
C446 C445 1.396 . S
C446 C447 1.394 . S
C447 C443 1.397 . S
C447 C446 1.394 . S
C447 C457 1.723 . S
C448 C445 1.453 . S
C448 H472 0.982 . S
C448 H473 0.979 . S
C448 H474 0.977 1_554 S
C449 C445 1.684 . S
C449 H475 0.979 . S
C449 H476 0.980 1_554 S
C449 H477 0.983 . S
C450 H426 0.948 . S
C450 C451 1.391 . S
C450 C455 1.391 . S
C451 C450 1.391 . S
C451 C452 1.391 . S
C452 H429 0.947 1_554 S
C452 C451 1.391 . S
C452 C453 1.392 . S
C453 H430 0.948 1_554 S
C453 C452 1.392 . S
C453 C454 1.419 . S
C454 C453 1.419 . S
C454 C455 1.391 . S
C454 C458 1.397 . S
C455 C450 1.391 . S
C455 C454 1.391 . S
C455 C456 1.399 . S
C456 C455 1.399 . S
C456 C457 1.396 . S
C456 C459 1.453 . S
C456 C460 1.684 . S
C457 C447 1.723 . S
C457 C456 1.396 . S
C457 C458 1.394 . S
C458 C428 1.723 1_554 S
C458 C454 1.397 . S
C458 C457 1.394 . S
C459 H431 0.982 . S
C459 H435 0.979 . S
C459 H436 0.977 . S
C459 C456 1.453 . S
C460 H432 0.979 . S
C460 H433 0.980 . S
C460 H434 0.983 . S
C460 C456 1.684 . S
H461 C479 0.948 . S
H462 C420 0.948 . S
H463 C438 0.979 . S
H464 C438 0.980 . S
H465 C438 0.983 . S
H466 C437 0.982 . S
H467 C437 0.979 . S
H468 C437 0.977 . S
H469 C439 0.948 . S
H470 C441 0.947 . S
H471 C442 0.948 . S
H472 C448 0.982 . S
H473 C448 0.979 . S
H474 C448 0.977 1_556 S
H475 C449 0.979 . S
H476 C449 0.980 1_556 S
H477 C449 0.983 . S
H478 C422 0.947 . S
C479 C422 1.392 . S
C479 C423 1.419 . S
C479 H461 0.948 . S
C480 C482 1.422 . S
C480 C484 1.415 . S
C480 N486 1.369 . S
C481 C482 1.421 . S
C481 C483 1.417 . S
C481 C493 1.422 . S
C482 C480 1.422 . S
C482 C481 1.421 . S
C482 N492 1.359 . S
C483 C481 1.417 . S
C483 C485 1.329 . S
C483 H502 0.930 . S
C484 C480 1.415 . S
C484 C485 1.437 . S
C484 C488 1.413 . S
C485 C483 1.329 . S
C485 C484 1.437 . S
C485 H507 0.929 . S
N486 C480 1.369 . S
N486 C487 1.338 . S
N486 Gd491 2.622 1_545 S
C487 N486 1.338 . S
C487 C489 1.378 . S
C487 H499 0.929 1_545 S
C488 C484 1.413 . S
C488 C489 1.348 . S
C488 H504 0.931 . S
C489 C487 1.378 . S
C489 C488 1.348 . S
C489 H505 0.930 . S
Gd490 N510 2.622 . S
Gd490 N517 2.570 . S
Gd490 O524 2.353 1_655 S
Gd490 O525 2.468 . S
Gd490 O526 2.427 . S
Gd490 O528 2.388 . S
Gd490 O529 2.386 1_545 S
Gd490 O533 2.307 1_655 S
Gd490 C543 2.805 . S
Gd491 N486 2.622 1_565 S
Gd491 N492 2.570 1_565 S
Gd491 O523 2.386 1_565 S
Gd491 O527 2.307 1_465 S
Gd491 O530 2.353 . S
Gd491 O531 2.468 . S
Gd491 O532 2.427 . S
Gd491 O534 2.388 . S
Gd491 C555 2.805 . S
N492 C482 1.359 . S
N492 Gd491 2.570 1_545 S
N492 C494 1.343 . S
C493 C481 1.422 . S
C493 C495 1.321 . S
C493 H501 0.931 . S
C494 N492 1.343 . S
C494 C495 1.390 . S
C494 H496 0.904 1_455 S
C495 C493 1.321 . S
C495 C494 1.390 . S
C495 H497 0.930 . S
H496 C494 0.904 1_655 S
H497 C495 0.930 . S
H498 C521 0.931 1_455 S
H499 C487 0.929 1_565 S
H500 C522 0.930 1_455 S
H501 C493 0.931 . S
H502 C483 0.930 . S
H503 C512 0.929 . S
H504 C488 0.931 . S
H505 C489 0.930 . S
H506 C544 0.930 . S
H507 C485 0.929 . S
H508 C513 0.945 . S
H509 C514 0.930 . S
N510 Gd490 2.622 . S
N510 C511 1.369 . S
N510 C512 1.338 . S
C511 N510 1.369 . S
C511 C515 1.415 1_545 S
C511 C518 1.422 . S
C512 H503 0.929 . S
C512 N510 1.338 . S
C512 C514 1.378 . S
C513 H508 0.945 . S
C513 C514 1.332 1_565 S
C513 C515 1.416 . S
C514 H509 0.930 . S
C514 C512 1.378 . S
C514 C513 1.332 1_545 S
C515 C511 1.415 1_565 S
C515 C513 1.416 . S
C515 C545 1.437 . S
H516 C545 0.929 . S
N517 Gd490 2.570 . S
N517 C518 1.359 . S
N517 C521 1.343 . S
C518 C511 1.422 . S
C518 N517 1.359 . S
C518 C520 1.421 1_545 S
C519 C520 1.422 . S
C519 C522 1.321 . S
C519 H546 0.931 . S
C520 C518 1.421 1_565 S
C520 C519 1.422 . S
C520 C544 1.417 . S
C521 H498 0.931 1_655 S
C521 N517 1.343 . S
C521 C522 1.390 1_545 S
C522 H500 0.930 1_655 S
C522 C519 1.321 . S
C522 C521 1.390 1_565 S
O523 Gd491 2.386 1_545 S
O523 C535 1.265 . S
O524 Gd490 2.353 1_455 S
O524 C535 1.242 . S
O525 Gd490 2.468 . S
O525 C543 1.263 . S
O526 Gd490 2.427 . S
O526 C543 1.252 . S
O527 Gd491 2.307 1_645 S
O527 C536 1.261 . S
O528 Gd490 2.388 . S
O528 C536 1.252 . S
O529 Gd490 2.386 1_565 S
O529 C547 1.265 . S
O530 Gd491 2.353 . S
O530 C547 1.242 1_455 S
O531 Gd491 2.468 . S
O531 C555 1.263 . S
O532 Gd491 2.427 . S
O532 C555 1.252 . S
O533 Gd490 2.307 1_455 S
O533 C548 1.261 . S
O534 Gd491 2.388 . S
O534 C548 1.252 1_565 S
C535 O523 1.265 . S
C535 O524 1.242 . S
C536 O527 1.261 . S
C536 O528 1.252 . S
C537 C540 1.394 . S
C537 C542 1.370 . S
C537 C543 1.500 . S
C538 C541 1.383 . S
C538 C542 1.395 . S
C539 C540 1.396 . S
C539 C541 1.365 . S
C539 H556 0.929 . S
C540 C537 1.394 . S
C540 C539 1.396 . S
C540 H557 0.930 . S
C541 C538 1.383 . S
C541 C539 1.365 . S
C541 H558 0.931 . S
C542 C537 1.370 . S
C542 C538 1.395 . S
C542 H559 0.930 1_655 S
C543 Gd490 2.805 . S
C543 O525 1.263 . S
C543 O526 1.252 . S
C543 C537 1.500 . S
C544 H506 0.930 . S
C544 C520 1.417 . S
C544 C545 1.329 . S
C545 C515 1.437 . S
C545 H516 0.929 . S
C545 C544 1.329 . S
H546 C519 0.931 . S
C547 O529 1.265 . S
C547 O530 1.242 1_655 S
C548 O533 1.261 . S
C548 O534 1.252 1_545 S
C549 C552 1.394 . S
C549 C554 1.370 . S
C549 C555 1.500 . S
C550 C553 1.383 . S
C550 C554 1.395 . S
C551 C552 1.396 . S
C551 C553 1.365 . S
C551 H560 0.929 . S
C552 C549 1.394 . S
C552 C551 1.396 . S
C552 H561 0.930 . S
C553 C550 1.383 . S
C553 C551 1.365 . S
C553 H562 0.931 . S
C554 C549 1.370 . S
C554 C550 1.395 . S
C554 H563 0.930 . S
C555 Gd491 2.805 . S
C555 O531 1.263 . S
C555 O532 1.252 . S
C555 C549 1.500 . S
H556 C539 0.929 . S
H557 C540 0.930 . S
H558 C541 0.931 . S
H559 C542 0.930 1_455 S
H560 C551 0.929 . S
H561 C552 0.930 . S
H562 C553 0.931 . S
H563 C554 0.930 . S
C564 C566 1.422 . S
C564 C568 1.415 . S
C564 N570 1.369 . S
C565 C566 1.421 . S
C565 C567 1.417 . S
C565 C577 1.422 . S
C566 C564 1.422 . S
C566 C565 1.421 . S
C566 N576 1.359 . S
C567 C565 1.417 . S
C567 C569 1.329 . S
C567 H586 0.930 . S
C568 C564 1.415 . S
C568 C569 1.437 . S
C568 C572 1.413 . S
C569 C567 1.329 . S
C569 C568 1.437 . S
C569 H591 0.929 . S
N570 C564 1.369 . S
N570 C571 1.338 . S
N570 Gd575 2.622 . S
C571 N570 1.338 . S
C571 C573 1.378 . S
C571 H583 0.929 . S
C572 C568 1.413 . S
C572 C573 1.348 . S
C572 H588 0.931 . S
C573 C571 1.378 . S
C573 C572 1.348 . S
C573 H589 0.930 . S
Gd574 N594 2.622 . S
Gd574 N601 2.570 . S
Gd574 O608 2.353 1_545 S
Gd574 O609 2.468 . S
Gd574 O610 2.427 . S
Gd574 O612 2.388 . S
Gd574 O613 2.386 . S
Gd574 O617 2.307 . S
Gd574 C627 2.805 . S
Gd575 N570 2.622 . S
Gd575 N576 2.570 . S
Gd575 O607 2.386 . S
Gd575 O611 2.307 1_565 S
Gd575 O614 2.353 1_565 S
Gd575 O615 2.468 . S
Gd575 O616 2.427 . S
Gd575 O618 2.388 . S
Gd575 C639 2.805 . S
N576 C566 1.359 . S
N576 Gd575 2.570 . S
N576 C578 1.343 . S
C577 C565 1.422 . S
C577 C579 1.321 . S
C577 H585 0.931 . S
C578 N576 1.343 . S
C578 C579 1.390 . S
C578 H580 0.931 . S
C579 C577 1.321 . S
C579 C578 1.390 . S
C579 H581 0.930 . S
H580 C578 0.931 . S
H581 C579 0.930 . S
H582 C605 0.931 . S
H583 C571 0.929 . S
H584 C606 0.930 . S
H585 C577 0.931 . S
H586 C567 0.930 . S
H587 C596 0.929 . S
H588 C572 0.931 . S
H589 C573 0.930 . S
H590 C628 0.930 . S
H591 C569 0.929 . S
H592 C597 0.931 . S
H593 C598 0.930 . S
N594 Gd574 2.622 . S
N594 C595 1.369 . S
N594 C596 1.338 . S
C595 N594 1.369 . S
C595 C599 1.415 . S
C595 C602 1.422 . S
C596 H587 0.929 . S
C596 N594 1.338 . S
C596 C598 1.378 . S
C597 H592 0.931 . S
C597 C598 1.348 . S
C597 C599 1.413 . S
C598 H593 0.930 . S
C598 C596 1.378 . S
C598 C597 1.348 . S
C599 C595 1.415 . S
C599 C597 1.413 . S
C599 C629 1.437 . S
H600 C629 0.929 . S
N601 Gd574 2.570 . S
N601 C602 1.359 . S
N601 C605 1.343 . S
C602 C595 1.422 . S
C602 N601 1.359 . S
C602 C604 1.421 . S
C603 C604 1.422 . S
C603 C606 1.321 . S
C603 H630 0.931 . S
C604 C602 1.421 . S
C604 C603 1.422 . S
C604 C628 1.417 . S
C605 H582 0.931 . S
C605 N601 1.343 . S
C605 C606 1.390 . S
C606 H584 0.930 . S
C606 C603 1.321 . S
C606 C605 1.390 . S
O607 Gd575 2.386 . S
O607 C619 1.265 . S
O608 Gd574 2.353 1_565 S
O608 C619 1.242 . S
O609 Gd574 2.468 . S
O609 C627 1.263 . S
O610 Gd574 2.427 . S
O610 C627 1.252 . S
O611 Gd575 2.307 1_545 S
O611 C620 1.261 . S
O612 Gd574 2.388 . S
O612 C620 1.252 . S
O613 Gd574 2.386 . S
O613 C631 1.265 . S
O614 Gd575 2.353 1_545 S
O614 C631 1.242 . S
O615 Gd575 2.468 . S
O615 C639 1.263 . S
O616 Gd575 2.427 . S
O616 C639 1.252 . S
O617 Gd574 2.307 . S
O617 C632 1.249 1_545 S
O618 Gd575 2.388 . S
O618 C632 1.259 . S
C619 O607 1.265 . S
C619 O608 1.242 . S
C620 O611 1.261 . S
C620 O612 1.252 . S
C621 C624 1.394 . S
C621 C626 1.370 . S
C621 C627 1.500 . S
C622 C625 1.383 . S
C622 C626 1.395 . S
C623 C624 1.396 . S
C623 C625 1.365 . S
C623 H640 0.929 . S
C624 C621 1.394 . S
C624 C623 1.396 . S
C624 H641 0.930 . S
C625 C622 1.383 . S
C625 C623 1.365 . S
C625 H642 0.931 . S
C626 C621 1.370 . S
C626 C622 1.395 . S
C626 H643 0.930 . S
C627 Gd574 2.805 . S
C627 O609 1.263 . S
C627 O610 1.252 . S
C627 C621 1.500 . S
C628 H590 0.930 . S
C628 C604 1.417 . S
C628 C629 1.329 . S
C629 C599 1.437 . S
C629 H600 0.929 . S
C629 C628 1.329 . S
H630 C603 0.931 . S
C631 O613 1.265 . S
C631 O614 1.242 . S
C632 O617 1.249 1_565 S
C632 O618 1.259 . S
C633 C636 1.394 . S
C633 C638 1.370 1_565 S
C633 C639 1.500 . S
C634 C637 1.383 1_545 S
C634 C638 1.395 . S
C635 C636 1.396 . S
C635 C637 1.365 . S
C635 H644 0.929 . S
C636 C633 1.394 . S
C636 C635 1.396 . S
C636 H645 0.930 . S
C637 C634 1.383 1_565 S
C637 C635 1.365 . S
C637 H646 0.931 . S
C638 C633 1.370 1_545 S
C638 C634 1.395 . S
C638 H647 0.930 . S
C639 Gd575 2.805 . S
C639 O615 1.263 . S
C639 O616 1.252 . S
C639 C633 1.500 . S
H640 C623 0.929 . S
H641 C624 0.930 . S
H642 C625 0.931 . S
H643 C626 0.930 . S
H644 C635 0.929 . S
H645 C636 0.930 . S
H646 C637 0.931 . S
H647 C638 0.930 . S
C648 C650 1.422 . S
C648 C652 1.415 . S
C648 N654 1.369 . S
C649 C650 1.421 . S
C649 C651 1.417 . S
C649 C661 1.422 . S
C650 C648 1.422 . S
C650 C649 1.421 . S
C650 N660 1.359 . S
C651 C649 1.417 . S
C651 C653 1.329 . S
C651 H670 0.930 . S
C652 C648 1.415 . S
C652 C653 1.437 . S
C652 C656 1.413 . S
C653 C651 1.329 . S
C653 C652 1.437 . S
C653 H675 0.929 . S
N654 C648 1.369 . S
N654 C655 1.338 . S
N654 Gd659 2.622 . S
C655 N654 1.338 . S
C655 C657 1.378 . S
C655 H667 0.929 . S
C656 C652 1.413 . S
C656 C657 1.348 . S
C656 H672 0.931 . S
C657 C655 1.378 . S
C657 C656 1.348 . S
C657 H673 0.930 . S
Gd658 N678 2.622 . S
Gd658 N685 2.570 . S
Gd658 O692 2.353 . S
Gd658 O693 2.468 . S
Gd658 O694 2.427 . S
Gd658 O696 2.388 . S
Gd658 O697 2.386 . S
Gd658 O701 2.307 . S
Gd658 C711 2.805 . S
Gd659 N654 2.622 . S
Gd659 N660 2.570 . S
Gd659 O691 2.386 . S
Gd659 O695 2.307 . S
Gd659 O698 2.353 . S
Gd659 O699 2.468 . S
Gd659 O700 2.427 . S
Gd659 O702 2.388 . S
Gd659 C723 2.805 . S
N660 C650 1.359 . S
N660 Gd659 2.570 . S
N660 C662 1.343 . S
C661 C649 1.422 . S
C661 C663 1.321 . S
C661 H669 0.931 . S
C662 N660 1.343 . S
C662 C663 1.390 . S
C662 H664 0.931 . S
C663 C661 1.321 . S
C663 C662 1.390 . S
C663 H665 0.930 . S
H664 C662 0.931 . S
H665 C663 0.930 . S
H666 C689 0.931 . S
H667 C655 0.929 . S
H668 C690 0.930 . S
H669 C661 0.931 . S
H670 C651 0.930 . S
H671 C680 0.929 . S
H672 C656 0.931 . S
H673 C657 0.930 . S
H674 C712 0.930 . S
H675 C653 0.929 . S
H676 C681 0.931 . S
H677 C682 0.930 . S
N678 Gd658 2.622 . S
N678 C679 1.369 . S
N678 C680 1.338 . S
C679 N678 1.369 . S
C679 C683 1.415 . S
C679 C686 1.422 . S
C680 H671 0.929 . S
C680 N678 1.338 . S
C680 C682 1.378 . S
C681 H676 0.931 . S
C681 C682 1.348 . S
C681 C683 1.413 . S
C682 H677 0.930 . S
C682 C680 1.378 . S
C682 C681 1.348 . S
C683 C679 1.415 . S
C683 C681 1.413 . S
C683 C713 1.437 . S
H684 C713 0.929 . S
N685 Gd658 2.570 . S
N685 C686 1.359 . S
N685 C689 1.343 . S
C686 C679 1.422 . S
C686 N685 1.359 . S
C686 C688 1.421 . S
C687 C688 1.422 . S
C687 C690 1.321 . S
C687 H714 0.931 . S
C688 C686 1.421 . S
C688 C687 1.422 . S
C688 C712 1.417 . S
C689 H666 0.931 . S
C689 N685 1.343 . S
C689 C690 1.390 . S
C690 H668 0.930 . S
C690 C687 1.321 . S
C690 C689 1.390 . S
O691 Gd659 2.386 . S
O691 C703 1.265 . S
O692 Gd658 2.353 . S
O692 C703 1.242 . S
O693 Gd658 2.468 . S
O693 C711 1.263 . S
O694 Gd658 2.427 . S
O694 C711 1.252 . S
O695 Gd659 2.307 . S
O695 C704 1.261 . S
O696 Gd658 2.388 . S
O696 C704 1.252 . S
O697 Gd658 2.386 . S
O697 C715 1.265 . S
O698 Gd659 2.353 . S
O698 C715 1.242 . S
O699 Gd659 2.468 . S
O699 C723 1.263 . S
O700 Gd659 2.427 . S
O700 C723 1.252 . S
O701 Gd658 2.307 . S
O701 C716 1.261 . S
O702 Gd659 2.388 . S
O702 C716 1.252 . S
C703 O691 1.265 . S
C703 O692 1.242 . S
C704 O695 1.261 . S
C704 O696 1.252 . S
C705 C708 1.394 . S
C705 C710 1.370 . S
C705 C711 1.500 . S
C706 C709 1.383 . S
C706 C710 1.395 . S
C707 C708 1.396 . S
C707 C709 1.365 . S
C707 H724 0.929 . S
C708 C705 1.394 . S
C708 C707 1.396 . S
C708 H725 0.930 . S
C709 C706 1.383 . S
C709 C707 1.365 . S
C709 H726 0.931 . S
C710 C705 1.370 . S
C710 C706 1.395 . S
C710 H727 0.930 . S
C711 Gd658 2.805 . S
C711 O693 1.263 . S
C711 O694 1.252 . S
C711 C705 1.500 . S
C712 H674 0.930 . S
C712 C688 1.417 . S
C712 C713 1.329 . S
C713 C683 1.437 . S
C713 H684 0.929 . S
C713 C712 1.329 . S
H714 C687 0.931 . S
C715 O697 1.265 . S
C715 O698 1.242 . S
C716 O701 1.261 . S
C716 O702 1.252 . S
C717 C720 1.394 . S
C717 C722 1.370 . S
C717 C723 1.500 . S
C718 C721 1.383 . S
C718 C722 1.395 . S
C719 C720 1.396 . S
C719 C721 1.365 . S
C719 H728 0.929 . S
C720 C717 1.394 . S
C720 C719 1.396 . S
C720 H729 0.930 . S
C721 C718 1.383 . S
C721 C719 1.365 . S
C721 H730 0.931 . S
C722 C717 1.370 . S
C722 C718 1.395 . S
C722 H731 0.930 . S
C723 Gd659 2.805 . S
C723 O699 1.263 . S
C723 O700 1.252 . S
C723 C717 1.500 . S
H724 C707 0.929 . S
H725 C708 0.930 . S
H726 C709 0.931 . S
H727 C710 0.930 . S
H728 C719 0.929 . S
H729 C720 0.930 . S
H730 C721 0.931 . S
H731 C722 0.930 . S
C732 C734 1.422 . S
C732 C736 1.415 . S
C732 N738 1.369 1_455 S
C733 C734 1.421 . S
C733 C735 1.417 . S
C733 C745 1.422 . S
C734 C732 1.422 . S
C734 C733 1.421 . S
C734 N744 1.359 . S
C735 C733 1.417 . S
C735 C737 1.329 . S
C735 H754 0.930 . S
C736 C732 1.415 . S
C736 C737 1.437 . S
C736 C740 1.413 . S
C737 C735 1.329 . S
C737 C736 1.437 . S
C737 H759 0.929 . S
N738 C732 1.369 1_655 S
N738 C739 1.338 . S
N738 Gd743 2.622 . S
C739 N738 1.338 . S
C739 C741 1.378 1_655 S
C739 H751 0.929 . S
C740 C736 1.413 . S
C740 C741 1.348 . S
C740 H756 0.931 . S
C741 C739 1.378 1_455 S
C741 C740 1.348 . S
C741 H757 0.928 1_455 S
Gd742 N762 2.622 . S
Gd742 N769 2.570 . S
Gd742 O776 2.353 . S
Gd742 O777 2.468 . S
Gd742 O778 2.427 . S
Gd742 O780 2.388 . S
Gd742 O781 2.386 1_455 S
Gd742 O785 2.307 . S
Gd742 C795 2.805 . S
Gd743 N738 2.622 . S
Gd743 N744 2.570 1_655 S
Gd743 O775 2.386 1_655 S
Gd743 O779 2.321 . S
Gd743 O782 2.353 . S
Gd743 O783 2.468 . S
Gd743 O784 2.427 . S
Gd743 O786 2.388 . S
Gd743 C807 2.805 . S
N744 C734 1.359 . S
N744 Gd743 2.570 1_455 S
N744 C746 1.343 . S
C745 C733 1.422 . S
C745 C747 1.321 . S
C745 H753 0.931 . S
C746 N744 1.343 . S
C746 C747 1.390 . S
C746 H748 0.931 1_455 S
C747 C745 1.321 . S
C747 C746 1.390 . S
C747 H749 0.930 . S
H748 C746 0.931 1_655 S
H749 C747 0.930 . S
H750 C773 0.931 . S
H751 C739 0.929 . S
H752 C774 0.930 . S
H753 C745 0.931 . S
H754 C735 0.930 . S
H755 C764 0.929 . S
H756 C740 0.931 . S
H757 C741 0.928 1_655 S
H758 C796 0.930 . S
H759 C737 0.929 . S
H760 C765 0.931 . S
H761 C766 0.930 . S
N762 Gd742 2.622 . S
N762 C763 1.369 . S
N762 C764 1.338 . S
C763 N762 1.369 . S
C763 C767 1.415 1_455 S
C763 C770 1.426 . S
C764 H755 0.929 . S
C764 N762 1.338 . S
C764 C766 1.378 . S
C765 H760 0.931 . S
C765 C766 1.348 1_655 S
C765 C767 1.413 . S
C766 H761 0.930 . S
C766 C764 1.378 . S
C766 C765 1.348 1_455 S
C767 C763 1.415 1_655 S
C767 C765 1.413 . S
C767 C797 1.437 . S
H768 C797 0.929 . S
N769 Gd742 2.570 . S
N769 C770 1.370 . S
N769 C773 1.343 . S
C770 C763 1.426 . S
C770 N769 1.370 . S
C770 C772 1.407 1_455 S
C771 C772 1.422 . S
C771 C774 1.321 . S
C771 H798 0.931 . S
C772 C770 1.407 1_655 S
C772 C771 1.422 . S
C772 C796 1.417 . S
C773 H750 0.931 . S
C773 N769 1.343 . S
C773 C774 1.390 1_455 S
C774 H752 0.930 . S
C774 C771 1.321 . S
C774 C773 1.390 1_655 S
O775 Gd743 2.386 1_455 S
O775 C787 1.265 . S
O776 Gd742 2.353 . S
O776 C787 1.242 . S
O777 Gd742 2.468 . S
O777 C795 1.263 . S
O778 Gd742 2.427 . S
O778 C795 1.252 . S
O779 Gd743 2.321 . S
O779 C788 1.252 1_655 S
O780 Gd742 2.388 . S
O780 C788 1.252 . S
O781 Gd742 2.386 1_655 S
O781 C799 1.265 . S
O782 Gd743 2.353 . S
O782 C799 1.242 . S
O783 Gd743 2.468 . S
O783 C807 1.263 . S
O784 Gd743 2.427 . S
O784 C807 1.252 . S
O785 Gd742 2.307 . S
O785 C800 1.261 . S
O786 Gd743 2.388 . S
O786 C800 1.252 1_655 S
C787 O775 1.265 . S
C787 O776 1.242 . S
C788 O779 1.252 1_455 S
C788 O780 1.252 . S
C789 C792 1.394 . S
C789 C794 1.370 . S
C789 C795 1.500 . S
C790 C793 1.383 . S
C790 C794 1.395 . S
C791 C792 1.396 . S
C791 C793 1.365 . S
C791 H808 0.929 . S
C792 C789 1.394 . S
C792 C791 1.396 . S
C792 H809 0.930 . S
C793 C790 1.383 . S
C793 C791 1.365 . S
C793 H810 0.931 . S
C794 C789 1.370 . S
C794 C790 1.395 . S
C794 H811 0.930 . S
C795 Gd742 2.805 . S
C795 O777 1.263 . S
C795 O778 1.252 . S
C795 C789 1.500 . S
C796 H758 0.930 . S
C796 C772 1.417 . S
C796 C797 1.329 . S
C797 C767 1.437 . S
C797 H768 0.929 . S
C797 C796 1.329 . S
H798 C771 0.931 . S
C799 O781 1.265 . S
C799 O782 1.242 . S
C800 O785 1.261 . S
C800 O786 1.252 1_455 S
C801 C804 1.394 . S
C801 C806 1.370 . S
C801 C807 1.500 . S
C802 C805 1.383 . S
C802 C806 1.395 . S
C803 C804 1.396 . S
C803 C805 1.365 . S
C803 H812 0.929 . S
C804 C801 1.394 . S
C804 C803 1.396 . S
C804 H813 0.930 . S
C805 C802 1.383 . S
C805 C803 1.365 . S
C805 H814 0.931 . S
C806 C801 1.370 . S
C806 C802 1.395 . S
C806 H815 0.930 . S
C807 Gd743 2.805 . S
C807 O783 1.263 . S
C807 O784 1.252 . S
C807 C801 1.500 . S
H808 C791 0.929 . S
H809 C792 0.930 . S
H810 C793 0.931 . S
H811 C794 0.930 . S
H812 C803 0.929 . S
H813 C804 0.930 . S
H814 C805 0.931 . S
H815 C806 0.930 . S
H816 C824 0.950 . S
H817 C829 0.950 . S
H818 C826 0.950 . S
H819 C828 0.950 . S
H820 C830 0.950 . S
H821 C832 0.950 . S
H822 C834 0.950 1_565 S
H823 C835 0.950 1_565 S
C824 H816 0.950 . S
C824 C825 1.386 . S
C824 C826 1.391 . S
C825 C824 1.386 . S
C825 C829 1.393 . S
C826 H818 0.950 . S
C826 C824 1.391 . S
C826 C827 1.400 . S
C827 C826 1.400 . S
C827 C828 1.398 . S
C827 C833 1.491 . S
C828 H819 0.950 . S
C828 C827 1.398 . S
C828 C829 1.391 . S
C829 H817 0.950 . S
C829 C825 1.393 . S
C829 C828 1.391 . S
C830 H820 0.950 . S
C830 C831 1.386 . S
C830 C832 1.391 . S
C831 C830 1.386 . S
C831 C835 1.393 . S
C832 H821 0.950 . S
C832 C830 1.391 . S
C832 C833 1.400 . S
C833 C827 1.491 . S
C833 C832 1.400 . S
C833 C834 1.398 . S
C834 H822 0.950 1_545 S
C834 C833 1.398 . S
C834 C835 1.391 . S
C835 H823 0.950 1_545 S
C835 C831 1.393 . S
C835 C834 1.391 . S
H836 C844 0.950 . S
H837 C849 0.950 . S
H838 C846 0.950 . S
H839 C848 0.950 . S
H840 C850 0.950 . S
H841 C852 0.950 . S
H842 C854 0.950 . S
H843 C855 0.950 . S
C844 H836 0.950 . S
C844 C845 1.386 . S
C844 C846 1.391 . S
C845 C844 1.386 . S
C845 C849 1.393 . S
C846 H838 0.950 . S
C846 C844 1.391 . S
C846 C847 1.400 . S
C847 C846 1.400 . S
C847 C848 1.398 . S
C847 C853 1.491 . S
C848 H839 0.950 . S
C848 C847 1.398 . S
C848 C849 1.391 . S
C849 H837 0.950 . S
C849 C845 1.393 . S
C849 C848 1.391 . S
C850 H840 0.950 . S
C850 C851 1.386 . S
C850 C852 1.391 . S
C851 C850 1.386 . S
C851 C855 1.393 . S
C852 H841 0.950 . S
C852 C850 1.391 . S
C852 C853 1.400 . S
C853 C847 1.491 . S
C853 C852 1.400 . S
C853 C854 1.398 . S
C854 H842 0.950 . S
C854 C853 1.398 . S
C854 C855 1.391 . S
C855 H843 0.950 . S
C855 C851 1.393 . S
C855 C854 1.391 . S
H856 C864 0.950 . S
H857 C869 0.950 . S
H858 C866 0.950 . S
H859 C868 0.950 . S
H860 C870 0.950 . S
H861 C872 0.950 . S
H862 C874 0.950 . S
H863 C875 0.950 . S
C864 H856 0.950 . S
C864 C865 1.386 . S
C864 C866 1.391 . S
C865 C864 1.386 . S
C865 C869 1.393 . S
C866 H858 0.950 . S
C866 C864 1.391 . S
C866 C867 1.400 . S
C867 C866 1.400 . S
C867 C868 1.398 . S
C867 C873 1.491 . S
C868 H859 0.950 . S
C868 C867 1.398 . S
C868 C869 1.391 . S
C869 H857 0.950 . S
C869 C865 1.393 . S
C869 C868 1.391 . S
C870 H860 0.950 . S
C870 C871 1.386 . S
C870 C872 1.391 . S
C871 C870 1.386 . S
C871 C875 1.393 . S
C872 H861 0.950 . S
C872 C870 1.391 . S
C872 C873 1.400 . S
C873 C867 1.491 . S
C873 C872 1.400 . S
C873 C874 1.398 . S
C874 H862 0.950 . S
C874 C873 1.398 . S
C874 C875 1.391 . S
C875 H863 0.950 . S
C875 C871 1.393 . S
C875 C874 1.391 . S
H876 C884 0.950 . S
H877 C889 0.950 . S
H878 C886 0.950 1_655 S
H879 C888 0.950 . S
H880 C890 0.950 . S
H881 C892 0.950 . S
H882 C894 0.950 1_655 S
H883 C895 0.950 . S
C884 H876 0.950 . S
C884 C885 1.386 . S
C884 C886 1.391 . S
C885 C884 1.386 . S
C885 C889 1.393 . S
C886 H878 0.950 1_455 S
C886 C884 1.391 . S
C886 C887 1.400 . S
C887 C886 1.400 . S
C887 C888 1.398 . S
C887 C893 1.491 . S
C888 H879 0.950 . S
C888 C887 1.398 . S
C888 C889 1.391 . S
C889 H877 0.950 . S
C889 C885 1.393 . S
C889 C888 1.391 . S
C890 H880 0.950 . S
C890 C891 1.386 . S
C890 C892 1.391 . S
C891 C890 1.386 . S
C891 C895 1.393 1_455 S
C892 H881 0.950 . S
C892 C890 1.391 . S
C892 C893 1.400 . S
C893 C887 1.491 . S
C893 C892 1.400 . S
C893 C894 1.398 . S
C894 H882 0.950 1_455 S
C894 C893 1.398 . S
C894 C895 1.391 1_455 S
C895 H883 0.950 . S
C895 C891 1.393 1_655 S
C895 C894 1.391 1_655 S
H896 C904 0.950 . S
H897 C909 0.950 . S
H898 C906 0.950 . S
H899 C908 0.949 . S
H900 C910 0.950 . S
H901 C912 0.936 1_545 S
H902 C914 0.950 . S
H903 C915 0.950 . S
C904 H896 0.950 . S
C904 C905 1.386 . S
C904 C906 1.391 1_554 S
C905 C904 1.386 . S
C905 C909 1.393 . S
C906 H898 0.950 . S
C906 C904 1.391 1_556 S
C906 C907 1.400 . S
C907 C906 1.400 . S
C907 C908 1.398 1_556 S
C907 C913 1.491 . S
C908 H899 0.949 . S
C908 C907 1.398 1_554 S
C908 C909 1.391 . S
C909 H897 0.950 . S
C909 C905 1.393 . S
C909 C908 1.391 . S
C910 H900 0.950 . S
C910 C911 1.386 1_545 S
C910 C912 1.383 1_545 S
C911 C910 1.386 1_565 S
C911 C915 1.393 . S
C912 H901 0.936 1_565 S
C912 C910 1.383 1_565 S
C912 C913 1.425 . S
C913 C907 1.491 . S
C913 C912 1.425 . S
C913 C914 1.398 . S
C914 H902 0.950 . S
C914 C913 1.398 . S
C914 C915 1.391 . S
C915 H903 0.950 . S
C915 C911 1.393 . S
C915 C914 1.391 . S
H916 C924 0.950 . S
H917 C929 0.950 . S
H918 C926 0.950 1_556 S
H919 C928 0.950 . S
H920 C930 0.950 . S
H921 C932 0.950 . S
H922 C934 0.950 . S
H923 C935 0.950 . S
C924 H916 0.950 . S
C924 C925 1.386 . S
C924 C926 1.391 . S
C925 C924 1.386 . S
C925 C929 1.393 . S
C926 H918 0.950 1_554 S
C926 C924 1.391 . S
C926 C927 1.400 1_554 S
C927 C926 1.400 1_556 S
C927 C928 1.398 1_556 S
C927 C933 1.491 . S
C928 H919 0.950 . S
C928 C927 1.398 1_554 S
C928 C929 1.391 . S
C929 H917 0.950 . S
C929 C925 1.393 . S
C929 C928 1.391 . S
C930 H920 0.950 . S
C930 C931 1.386 . S
C930 C932 1.391 . S
C931 C930 1.386 . S
C931 C935 1.393 . S
C932 H921 0.950 . S
C932 C930 1.391 . S
C932 C933 1.400 . S
C933 C927 1.491 . S
C933 C932 1.400 . S
C933 C934 1.398 . S
C934 H922 0.950 . S
C934 C933 1.398 . S
C934 C935 1.391 . S
C935 H923 0.950 . S
C935 C931 1.393 . S
C935 C934 1.391 . S
H936 C944 0.950 . S
H937 C949 0.950 . S
H938 C946 0.950 . S
H939 C948 0.950 . S
H940 C950 0.950 . S
H941 C952 0.950 . S
H942 C954 0.950 . S
H943 C955 0.950 . S
C944 H936 0.950 . S
C944 C945 1.386 . S
C944 C946 1.391 1_554 S
C945 C944 1.386 . S
C945 C949 1.393 . S
C946 H938 0.950 . S
C946 C944 1.391 1_556 S
C946 C947 1.400 . S
C947 C946 1.400 . S
C947 C948 1.398 1_556 S
C947 C953 1.491 . S
C948 H939 0.950 . S
C948 C947 1.398 1_554 S
C948 C949 1.391 . S
C949 H937 0.950 . S
C949 C945 1.393 . S
C949 C948 1.391 . S
C950 H940 0.950 . S
C950 C951 1.386 . S
C950 C952 1.391 . S
C951 C950 1.386 . S
C951 C955 1.393 . S
C952 H941 0.950 . S
C952 C950 1.391 . S
C952 C953 1.400 . S
C953 C947 1.491 . S
C953 C952 1.400 . S
C953 C954 1.398 . S
C954 H942 0.950 . S
C954 C953 1.398 . S
C954 C955 1.391 . S
C955 H943 0.950 . S
C955 C951 1.393 . S
C955 C954 1.391 . S
H956 C964 0.950 . S
H957 C969 0.950 1_455 S
H958 C966 0.950 1_556 S
H959 C968 0.950 1_456 S
H960 C970 0.950 . S
H961 C972 0.950 . S
H962 C974 0.950 . S
H963 C975 0.950 . S
C964 H956 0.950 . S
C964 C965 1.386 . S
C964 C966 1.391 . S
C965 C964 1.386 . S
C965 C969 1.393 . S
C966 H958 0.950 1_554 S
C966 C964 1.391 . S
C966 C967 1.400 1_554 S
C967 C966 1.400 1_556 S
C967 C968 1.398 1_556 S
C967 C973 1.491 . S
C968 H959 0.950 1_654 S
C968 C967 1.398 1_554 S
C968 C969 1.391 . S
C969 H957 0.950 1_655 S
C969 C965 1.393 . S
C969 C968 1.391 . S
C970 H960 0.950 . S
C970 C971 1.386 1_455 S
C970 C972 1.391 . S
C971 C970 1.386 1_655 S
C971 C975 1.393 . S
C972 H961 0.950 . S
C972 C970 1.391 . S
C972 C973 1.400 1_455 S
C973 C967 1.491 . S
C973 C972 1.400 1_655 S
C973 C974 1.398 . S
C974 H962 0.950 . S
C974 C973 1.398 . S
C974 C975 1.391 . S
C975 H963 0.950 . S
C975 C971 1.393 . S
C975 C974 1.391 . S
H976 C984 0.950 . S
H977 C989 0.950 . S
H978 C986 0.950 . S
H979 C988 0.950 . S
H980 C990 0.950 . S
H981 C992 0.945 1_655 S
H982 C994 0.950 . S
H983 C995 0.950 . S
C984 H976 0.950 . S
C984 C985 1.386 . S
C984 C986 1.391 . S
C985 C984 1.386 . S
C985 C989 1.393 . S
C986 H978 0.950 . S
C986 C984 1.391 . S
C986 C987 1.400 . S
C987 C986 1.400 . S
C987 C988 1.398 . S
C987 C993 1.491 . S
C988 H979 0.950 . S
C988 C987 1.398 . S
C988 C989 1.391 . S
C989 H977 0.950 . S
C989 C985 1.393 . S
C989 C988 1.391 . S
C990 H980 0.950 . S
C990 C991 1.386 . S
C990 C992 1.386 1_655 S
C991 C990 1.386 . S
C991 C995 1.393 1_655 S
C992 H981 0.945 1_455 S
C992 C990 1.386 1_455 S
C992 C993 1.410 . S
C993 C987 1.491 . S
C993 C992 1.410 . S
C993 C994 1.398 . S
C994 H982 0.950 . S
C994 C993 1.398 . S
C994 C995 1.391 . S
C995 H983 0.950 . S
C995 C991 1.393 1_455 S
C995 C994 1.391 . S
H996 C1004 0.950 . S
H997 C1009 0.950 . S
H998 C1006 0.950 . S
H999 C1008 0.950 . S
H1000 C1010 0.950 . S
H1001 C1012 0.950 . S
H1002 C1014 0.950 . S
H1003 C1015 0.950 . S
C1004 H996 0.950 . S
C1004 C1005 1.386 . S
C1004 C1006 1.391 . S
C1005 C1004 1.386 . S
C1005 C1009 1.393 . S
C1006 H998 0.950 . S
C1006 C1004 1.391 . S
C1006 C1007 1.400 . S
C1007 C1006 1.400 . S
C1007 C1008 1.398 . S
C1007 C1013 1.491 . S
C1008 H999 0.950 . S
C1008 C1007 1.398 . S
C1008 C1009 1.391 . S
C1009 H997 0.950 . S
C1009 C1005 1.393 . S
C1009 C1008 1.391 . S
C1010 H1000 0.950 . S
C1010 C1011 1.386 1_565 S
C1010 C1012 1.391 1_565 S
C1011 C1010 1.386 1_545 S
C1011 C1015 1.393 . S
C1012 H1001 0.950 . S
C1012 C1010 1.391 1_545 S
C1012 C1013 1.400 . S
C1013 C1007 1.491 . S
C1013 C1012 1.400 . S
C1013 C1014 1.398 . S
C1014 H1002 0.950 . S
C1014 C1013 1.398 . S
C1014 C1015 1.391 . S
C1015 H1003 0.950 . S
C1015 C1011 1.393 . S
C1015 C1014 1.391 . S
H1016 C1024 0.950 . S
H1017 C1029 0.950 . S
H1018 C1026 0.950 . S
H1019 C1028 0.950 . S
H1020 C1030 0.950 . S
H1021 C1032 0.950 . S
H1022 C1034 0.950 . S
H1023 C1035 0.950 . S
C1024 H1016 0.950 . S
C1024 C1025 1.386 . S
C1024 C1026 1.391 . S
C1025 C1024 1.386 . S
C1025 C1029 1.393 . S
C1026 H1018 0.950 . S
C1026 C1024 1.391 . S
C1026 C1027 1.400 . S
C1027 C1026 1.400 . S
C1027 C1028 1.398 . S
C1027 C1033 1.491 . S
C1028 H1019 0.950 . S
C1028 C1027 1.398 . S
C1028 C1029 1.391 . S
C1029 H1017 0.950 . S
C1029 C1025 1.393 . S
C1029 C1028 1.391 . S
C1030 H1020 0.950 . S
C1030 C1031 1.386 . S
C1030 C1032 1.391 . S
C1031 C1030 1.386 . S
C1031 C1035 1.393 . S
C1032 H1021 0.950 . S
C1032 C1030 1.391 . S
C1032 C1033 1.400 . S
C1033 C1027 1.491 . S
C1033 C1032 1.400 . S
C1033 C1034 1.398 . S
C1034 H1022 0.950 . S
C1034 C1033 1.398 . S
C1034 C1035 1.391 . S
C1035 H1023 0.950 . S
C1035 C1031 1.393 . S
C1035 C1034 1.391 . S
H1036 C1044 0.950 . S
H1037 C1049 0.950 . S
H1038 C1046 0.950 . S
H1039 C1048 0.950 . S
H1040 C1050 0.950 . S
H1041 C1052 0.950 . S
H1042 C1054 0.950 . S
H1043 C1055 0.950 . S
C1044 H1036 0.950 . S
C1044 C1045 1.386 . S
C1044 C1046 1.391 . S
C1045 C1044 1.386 . S
C1045 C1049 1.393 . S
C1046 H1038 0.950 . S
C1046 C1044 1.391 . S
C1046 C1047 1.400 . S
C1047 C1046 1.400 . S
C1047 C1048 1.398 . S
C1047 C1053 1.491 . S
C1048 H1039 0.950 . S
C1048 C1047 1.398 . S
C1048 C1049 1.391 . S
C1049 H1037 0.950 . S
C1049 C1045 1.393 . S
C1049 C1048 1.391 . S
C1050 H1040 0.950 . S
C1050 C1051 1.386 . S
C1050 C1052 1.391 . S
C1051 C1050 1.386 . S
C1051 C1055 1.393 . S
C1052 H1041 0.950 . S
C1052 C1050 1.391 . S
C1052 C1053 1.400 . S
C1053 C1047 1.491 . S
C1053 C1052 1.400 . S
C1053 C1054 1.398 . S
C1054 H1042 0.950 . S
C1054 C1053 1.398 . S
C1054 C1055 1.391 . S
C1055 H1043 0.950 . S
C1055 C1051 1.393 . S
C1055 C1054 1.391 . S
H1056 C1064 0.950 . S
H1057 C1069 0.950 . S
H1058 C1066 0.950 . S
H1059 C1068 0.950 . S
H1060 C1070 0.950 . S
H1061 C1072 0.946 1_554 S
H1062 C1074 0.950 . S
H1063 C1075 0.960 . S
C1064 H1056 0.950 . S
C1064 C1065 1.386 1_556 S
C1064 C1066 1.391 . S
C1065 C1064 1.386 1_554 S
C1065 C1069 1.393 . S
C1066 H1058 0.950 . S
C1066 C1064 1.391 . S
C1066 C1067 1.400 . S
C1067 C1066 1.400 . S
C1067 C1068 1.398 1_556 S
C1067 C1073 1.491 . S
C1068 H1059 0.950 . S
C1068 C1067 1.398 1_554 S
C1068 C1069 1.391 . S
C1069 H1057 0.950 . S
C1069 C1065 1.393 . S
C1069 C1068 1.391 . S
C1070 H1060 0.950 . S
C1070 C1071 1.386 . S
C1070 C1072 1.391 . S
C1071 C1070 1.386 . S
C1071 C1075 1.367 1_455 S
C1072 H1061 0.946 1_556 S
C1072 C1070 1.391 . S
C1072 C1073 1.400 1_455 S
C1073 C1067 1.491 . S
C1073 C1072 1.400 1_655 S
C1073 C1074 1.398 . S
C1074 H1062 0.950 . S
C1074 C1073 1.398 . S
C1074 C1075 1.408 . S
C1075 H1063 0.960 . S
C1075 C1071 1.367 1_655 S
C1075 C1074 1.408 . S
H1076 C1084 0.950 . S
H1077 C1089 0.950 . S
H1078 C1086 0.950 . S
H1079 C1088 0.950 . S
H1080 C1090 0.950 . S
H1081 C1092 0.950 . S
H1082 C1094 0.950 1_554 S
H1083 C1095 0.950 . S
C1084 H1076 0.950 . S
C1084 C1085 1.386 . S
C1084 C1086 1.391 . S
C1085 C1084 1.386 . S
C1085 C1089 1.393 1_554 S
C1086 H1078 0.950 . S
C1086 C1084 1.391 . S
C1086 C1087 1.400 1_554 S
C1087 C1086 1.400 1_556 S
C1087 C1088 1.398 . S
C1087 C1093 1.491 . S
C1088 H1079 0.950 . S
C1088 C1087 1.398 . S
C1088 C1089 1.391 . S
C1089 H1077 0.950 . S
C1089 C1085 1.393 1_556 S
C1089 C1088 1.391 . S
C1090 H1080 0.950 . S
C1090 C1091 1.386 . S
C1090 C1092 1.391 1_545 S
C1091 C1090 1.386 . S
C1091 C1095 1.393 . S
C1092 H1081 0.950 . S
C1092 C1090 1.391 1_565 S
C1092 C1093 1.400 . S
C1093 C1087 1.491 . S
C1093 C1092 1.400 . S
C1093 C1094 1.398 1_565 S
C1094 H1082 0.950 1_556 S
C1094 C1093 1.398 1_545 S
C1094 C1095 1.391 . S
C1095 H1083 0.950 . S
C1095 C1091 1.393 . S
C1095 C1094 1.391 . S
H1096 C1104 0.950 . S
H1097 C1109 0.950 . S
H1098 C1106 0.950 . S
H1099 C1108 0.950 . S
H1100 C1110 0.950 . S
H1101 C1112 0.950 1_554 S
H1102 C1114 0.950 . S
H1103 C1115 0.950 . S
C1104 H1096 0.950 . S
C1104 C1105 1.386 1_556 S
C1104 C1106 1.391 . S
C1105 C1104 1.386 1_554 S
C1105 C1109 1.393 . S
C1106 H1098 0.950 . S
C1106 C1104 1.391 . S
C1106 C1107 1.400 . S
C1107 C1106 1.400 . S
C1107 C1108 1.398 1_556 S
C1107 C1113 1.491 . S
C1108 H1099 0.950 . S
C1108 C1107 1.398 1_554 S
C1108 C1109 1.391 . S
C1109 H1097 0.950 . S
C1109 C1105 1.393 . S
C1109 C1108 1.391 . S
C1110 H1100 0.950 . S
C1110 C1111 1.386 . S
C1110 C1112 1.391 . S
C1111 C1110 1.386 . S
C1111 C1115 1.393 . S
C1112 H1101 0.950 1_556 S
C1112 C1110 1.391 . S
C1112 C1113 1.400 . S
C1113 C1107 1.491 . S
C1113 C1112 1.400 . S
C1113 C1114 1.398 . S
C1114 H1102 0.950 . S
C1114 C1113 1.398 . S
C1114 C1115 1.391 . S
C1115 H1103 0.950 . S
C1115 C1111 1.393 . S
C1115 C1114 1.391 . S
H1116 C1124 0.950 . S
H1117 C1129 0.950 . S
H1118 C1126 0.950 . S
H1119 C1128 0.950 . S
H1120 C1130 0.950 . S
H1121 C1132 0.950 . S
H1122 C1134 0.950 . S
H1123 C1135 0.950 . S
C1124 H1116 0.950 . S
C1124 C1125 1.386 . S
C1124 C1126 1.391 . S
C1125 C1124 1.386 . S
C1125 C1129 1.393 1_554 S
C1126 H1118 0.950 . S
C1126 C1124 1.391 . S
C1126 C1127 1.400 1_554 S
C1127 C1126 1.400 1_556 S
C1127 C1128 1.398 . S
C1127 C1133 1.491 . S
C1128 H1119 0.950 . S
C1128 C1127 1.398 . S
C1128 C1129 1.391 . S
C1129 H1117 0.950 . S
C1129 C1125 1.393 1_556 S
C1129 C1128 1.391 . S
C1130 H1120 0.950 . S
C1130 C1131 1.386 . S
C1130 C1132 1.391 . S
C1131 C1130 1.386 . S
C1131 C1135 1.393 . S
C1132 H1121 0.950 . S
C1132 C1130 1.391 . S
C1132 C1133 1.400 . S
C1133 C1127 1.491 . S
C1133 C1132 1.400 . S
C1133 C1134 1.398 . S
C1134 H1122 0.950 . S
C1134 C1133 1.398 . S
C1134 C1135 1.391 . S
C1135 H1123 0.950 . S
C1135 C1131 1.393 . S
C1135 C1134 1.391 . S
H1136 C1144 0.950 . S
H1137 C1149 0.950 . S
H1138 C1146 0.950 1_655 S
H1139 C1148 0.950 . S
H1140 C1150 0.950 . S
H1141 C1152 0.950 . S
H1142 C1154 0.950 1_655 S
H1143 C1155 0.950 1_655 S
C1144 H1136 0.950 . S
C1144 C1145 1.386 . S
C1144 C1146 1.391 . S
C1145 C1144 1.386 . S
C1145 C1149 1.393 . S
C1146 H1138 0.950 1_455 S
C1146 C1144 1.391 . S
C1146 C1147 1.400 . S
C1147 C1146 1.400 . S
C1147 C1148 1.398 . S
C1147 C1153 1.491 . S
C1148 H1139 0.950 . S
C1148 C1147 1.398 . S
C1148 C1149 1.391 . S
C1149 H1137 0.950 . S
C1149 C1145 1.393 . S
C1149 C1148 1.391 . S
C1150 H1140 0.950 . S
C1150 C1151 1.386 . S
C1150 C1152 1.391 . S
C1151 C1150 1.386 . S
C1151 C1155 1.393 . S
C1152 H1141 0.950 . S
C1152 C1150 1.391 . S
C1152 C1153 1.400 . S
C1153 C1147 1.491 . S
C1153 C1152 1.400 . S
C1153 C1154 1.398 . S
C1154 H1142 0.950 1_455 S
C1154 C1153 1.398 . S
C1154 C1155 1.391 . S
C1155 H1143 0.950 1_455 S
C1155 C1151 1.393 . S
C1155 C1154 1.391 . S
H1156 C1164 0.950 . S
H1157 C1169 0.950 . S
H1158 C1166 0.950 . S
H1159 C1168 0.950 . S
H1160 C1170 0.950 . S
H1161 C1172 0.950 . S
H1162 C1174 0.950 . S
H1163 C1175 0.950 . S
C1164 H1156 0.950 . S
C1164 C1165 1.386 . S
C1164 C1166 1.391 . S
C1165 C1164 1.386 . S
C1165 C1169 1.393 . S
C1166 H1158 0.950 . S
C1166 C1164 1.391 . S
C1166 C1167 1.400 . S
C1167 C1166 1.400 . S
C1167 C1168 1.398 . S
C1167 C1173 1.491 . S
C1168 H1159 0.950 . S
C1168 C1167 1.398 . S
C1168 C1169 1.391 . S
C1169 H1157 0.950 . S
C1169 C1165 1.393 . S
C1169 C1168 1.391 . S
C1170 H1160 0.950 . S
C1170 C1171 1.386 . S
C1170 C1172 1.391 . S
C1171 C1170 1.386 . S
C1171 C1175 1.393 . S
C1172 H1161 0.950 . S
C1172 C1170 1.391 . S
C1172 C1173 1.400 . S
C1173 C1167 1.491 . S
C1173 C1172 1.400 . S
C1173 C1174 1.398 . S
C1174 H1162 0.950 . S
C1174 C1173 1.398 . S
C1174 C1175 1.391 . S
C1175 H1163 0.950 . S
C1175 C1171 1.393 . S
C1175 C1174 1.391 . S
H1176 C1184 0.950 . S
H1177 C1189 0.950 . S
H1178 C1186 0.950 . S
H1179 C1188 0.950 . S
H1180 C1190 0.950 . S
H1181 C1192 0.950 . S
H1182 C1194 0.950 . S
H1183 C1195 0.950 . S
C1184 H1176 0.950 . S
C1184 C1185 1.386 . S
C1184 C1186 1.391 . S
C1185 C1184 1.386 . S
C1185 C1189 1.393 . S
C1186 H1178 0.950 . S
C1186 C1184 1.391 . S
C1186 C1187 1.400 . S
C1187 C1186 1.400 . S
C1187 C1188 1.398 . S
C1187 C1193 1.491 . S
C1188 H1179 0.950 . S
C1188 C1187 1.398 . S
C1188 C1189 1.391 . S
C1189 H1177 0.950 . S
C1189 C1185 1.393 . S
C1189 C1188 1.391 . S
C1190 H1180 0.950 . S
C1190 C1191 1.386 . S
C1190 C1192 1.391 . S
C1191 C1190 1.386 . S
C1191 C1195 1.393 . S
C1192 H1181 0.950 . S
C1192 C1190 1.391 . S
C1192 C1193 1.400 . S
C1193 C1187 1.491 . S
C1193 C1192 1.400 . S
C1193 C1194 1.398 . S
C1194 H1182 0.950 . S
C1194 C1193 1.398 . S
C1194 C1195 1.391 . S
C1195 H1183 0.950 . S
C1195 C1191 1.393 . S
C1195 C1194 1.391 . S
H1196 C1204 0.950 . S
H1197 C1209 0.950 . S
H1198 C1206 0.950 . S
H1199 C1208 0.950 . S
H1200 C1210 0.950 . S
H1201 C1212 0.950 . S
H1202 C1214 0.950 . S
H1203 C1215 0.950 . S
C1204 H1196 0.950 . S
C1204 C1205 1.386 . S
C1204 C1206 1.391 . S
C1205 C1204 1.386 . S
C1205 C1209 1.393 . S
C1206 H1198 0.950 . S
C1206 C1204 1.391 . S
C1206 C1207 1.400 . S
C1207 C1206 1.400 . S
C1207 C1208 1.398 . S
C1207 C1213 1.491 . S
C1208 H1199 0.950 . S
C1208 C1207 1.398 . S
C1208 C1209 1.391 . S
C1209 H1197 0.950 . S
C1209 C1205 1.393 . S
C1209 C1208 1.391 . S
C1210 H1200 0.950 . S
C1210 C1211 1.386 . S
C1210 C1212 1.391 . S
C1211 C1210 1.386 . S
C1211 C1215 1.393 . S
C1212 H1201 0.950 . S
C1212 C1210 1.391 . S
C1212 C1213 1.400 . S
C1213 C1207 1.491 . S
C1213 C1212 1.400 . S
C1213 C1214 1.398 . S
C1214 H1202 0.950 . S
C1214 C1213 1.398 . S
C1214 C1215 1.391 . S
C1215 H1203 0.950 . S
C1215 C1211 1.393 . S
C1215 C1214 1.391 . S
H1216 C1224 0.950 . S
H1217 C1229 0.950 . S
H1218 C1226 0.950 . S
H1219 C1228 0.950 . S
H1220 C1230 0.950 . S
H1221 C1232 0.950 . S
H1222 C1234 0.950 . S
H1223 C1235 0.950 . S
C1224 H1216 0.950 . S
C1224 C1225 1.386 . S
C1224 C1226 1.391 . S
C1225 C1224 1.386 . S
C1225 C1229 1.393 . S
C1226 H1218 0.950 . S
C1226 C1224 1.391 . S
C1226 C1227 1.400 . S
C1227 C1226 1.400 . S
C1227 C1228 1.398 . S
C1227 C1233 1.491 . S
C1228 H1219 0.950 . S
C1228 C1227 1.398 . S
C1228 C1229 1.391 . S
C1229 H1217 0.950 . S
C1229 C1225 1.393 . S
C1229 C1228 1.391 . S
C1230 H1220 0.950 . S
C1230 C1231 1.386 . S
C1230 C1232 1.391 . S
C1231 C1230 1.386 . S
C1231 C1235 1.393 . S
C1232 H1221 0.950 . S
C1232 C1230 1.391 . S
C1232 C1233 1.400 . S
C1233 C1227 1.491 . S
C1233 C1232 1.400 . S
C1233 C1234 1.398 . S
C1234 H1222 0.950 . S
C1234 C1233 1.398 . S
C1234 C1235 1.391 . S
C1235 H1223 0.950 . S
C1235 C1231 1.393 . S
C1235 C1234 1.391 . S
H1236 C1244 0.950 . S
H1237 C1249 0.950 . S
H1238 C1246 0.950 . S
H1239 C1248 0.950 . S
H1240 C1250 0.974 . S
H1241 C1252 0.950 1_545 S
H1242 C1254 0.950 . S
H1243 C1255 0.950 . S
C1244 H1236 0.950 . S
C1244 C1245 1.386 . S
C1244 C1246 1.391 . S
C1245 C1244 1.386 . S
C1245 C1249 1.393 . S
C1246 H1238 0.950 . S
C1246 C1244 1.391 . S
C1246 C1247 1.400 . S
C1247 C1246 1.400 . S
C1247 C1248 1.398 . S
C1247 C1253 1.491 . S
C1248 H1239 0.950 . S
C1248 C1247 1.398 . S
C1248 C1249 1.391 . S
C1249 H1237 0.950 . S
C1249 C1245 1.393 . S
C1249 C1248 1.391 . S
C1250 H1240 0.974 . S
C1250 C1251 1.369 1_545 S
C1250 C1252 1.385 1_545 S
C1251 C1250 1.369 1_565 S
C1251 C1255 1.393 . S
C1252 H1241 0.950 1_565 S
C1252 C1250 1.385 1_565 S
C1252 C1253 1.400 . S
C1253 C1247 1.491 . S
C1253 C1252 1.400 . S
C1253 C1254 1.398 . S
C1254 H1242 0.950 . S
C1254 C1253 1.398 . S
C1254 C1255 1.391 . S
C1255 H1243 0.950 . S
C1255 C1251 1.393 . S
C1255 C1254 1.391 . S
H1256 C1264 0.950 . S
H1257 C1269 0.950 . S
H1258 C1266 0.950 . S
H1259 C1268 0.950 . S
H1260 C1270 0.950 . S
H1261 C1272 0.950 . S
H1262 C1274 0.950 . S
H1263 C1275 0.950 . S
C1264 H1256 0.950 . S
C1264 C1265 1.386 . S
C1264 C1266 1.391 . S
C1265 C1264 1.386 . S
C1265 C1269 1.393 . S
C1266 H1258 0.950 . S
C1266 C1264 1.391 . S
C1266 C1267 1.400 . S
C1267 C1266 1.400 . S
C1267 C1268 1.398 . S
C1267 C1273 1.491 . S
C1268 H1259 0.950 . S
C1268 C1267 1.398 . S
C1268 C1269 1.391 . S
C1269 H1257 0.950 . S
C1269 C1265 1.393 . S
C1269 C1268 1.391 . S
C1270 H1260 0.950 . S
C1270 C1271 1.386 . S
C1270 C1272 1.391 . S
C1271 C1270 1.386 . S
C1271 C1275 1.393 . S
C1272 H1261 0.950 . S
C1272 C1270 1.391 . S
C1272 C1273 1.400 . S
C1273 C1267 1.491 . S
C1273 C1272 1.400 . S
C1273 C1274 1.398 . S
C1274 H1262 0.950 . S
C1274 C1273 1.398 . S
C1274 C1275 1.391 . S
C1275 H1263 0.950 . S
C1275 C1271 1.393 . S
C1275 C1274 1.391 . S
H1276 C1284 0.950 . S
H1277 C1289 0.950 . S
H1278 C1286 0.950 . S
H1279 C1288 0.950 . S
H1280 C1290 0.950 . S
H1281 C1292 0.950 . S
H1282 C1294 0.950 . S
H1283 C1295 0.950 . S
C1284 H1276 0.950 . S
C1284 C1285 1.386 . S
C1284 C1286 1.391 . S
C1285 C1284 1.386 . S
C1285 C1289 1.393 . S
C1286 H1278 0.950 . S
C1286 C1284 1.391 . S
C1286 C1287 1.400 . S
C1287 C1286 1.400 . S
C1287 C1288 1.398 . S
C1287 C1293 1.491 . S
C1288 H1279 0.950 . S
C1288 C1287 1.398 . S
C1288 C1289 1.391 . S
C1289 H1277 0.950 . S
C1289 C1285 1.393 . S
C1289 C1288 1.391 . S
C1290 H1280 0.950 . S
C1290 C1291 1.386 . S
C1290 C1292 1.391 . S
C1291 C1290 1.386 . S
C1291 C1295 1.393 . S
C1292 H1281 0.950 . S
C1292 C1290 1.391 . S
C1292 C1293 1.400 . S
C1293 C1287 1.491 . S
C1293 C1292 1.400 . S
C1293 C1294 1.398 . S
C1294 H1282 0.950 . S
C1294 C1293 1.398 . S
C1294 C1295 1.391 . S
C1295 H1283 0.950 . S
C1295 C1291 1.393 . S
C1295 C1294 1.391 . S
C825 C391 2.376 . S
C831 C548 2.417 . S
C851 C631 2.427 . S
C845 C451 2.393 . S
C871 C716 2.417 . S
C865 C241 2.054 . S
C891 C800 2.392 . S
C885 C331 2.035 . S
C911 C536 2.423 1_565 S
C905 C121 2.110 . S
C925 C211 2.370 . S
C931 C619 2.439 . S
C945 C31 2.337 . S
C951 C704 2.417 . S
C965 C91 2.074 . S
C971 C788 2.391 1_655 S
C991 C538 0.524 . S
C985 C301 0.553 . S
C1011 C634 0.501 . S
C1005 C380 0.413 . S
C1031 C706 0.511 . S
C1025 C440 0.442 . S
C1045 C260 0.539 . S
C1051 C790 0.445 . S
C1065 C61 0.486 . S
C1071 C550 0.450 . S
C1091 C622 0.512 . S
C1085 C140 0.486 . S
C1111 C718 0.458 . S
C1105 C200 0.554 . S
C1125 C20 0.489 . S
C1131 C802 0.498 . S
C1145 C320 2.736 . S
C1151 C535 2.902 . S
C1165 C361 2.395 . S
C1171 C620 2.938 . S
C1191 C703 2.926 . S
C1185 C421 2.435 . S
C1211 C787 2.928 . S
C1205 C271 2.762 . S
C1225 C80 2.753 . S
C1231 C547 2.897 . S
C1251 C632 2.939 . S
C1245 C151 2.752 . S
C1271 C715 2.926 . S
C1265 C181 2.400 . S
C1285 C1 2.396 . S
C1291 C799 2.924 . S
