# Generated by pormake.
# Topology anh, (6,3)-cn, num edge types: 1
# Building blocks:
#     Node 0, Type 0, BuildingBlock: MIFKUJ_clean_sbu_0, # of connection points: 6
#     Node 1, Type 0, BuildingBlock: MIFKUJ_clean_sbu_0, # of connection points: 6
#     Node 2, Type 0, BuildingBlock: MIFKUJ_clean_sbu_0, # of connection points: 6
#     Node 3, Type 1, BuildingBlock: BETDIP_clean_linker_0, # of connection points: 3
#     Node 4, Type 1, BuildingBlock: BETDIP_clean_linker_0, # of connection points: 3
#     Node 5, Type 1, BuildingBlock: BETDIP_clean_linker_0, # of connection points: 3
#     Node 6, Type 1, BuildingBlock: BETDIP_clean_linker_0, # of connection points: 3
#     Node 7, Type 1, BuildingBlock: BETDIP_clean_linker_0, # of connection points: 3
#     Node 8, Type 1, BuildingBlock: BETDIP_clean_linker_0, # of connection points: 3
#     Edge 9, Type (0, 1), BuildingBlock: XIVTED_clean_linker_0, # of connection points: 2
#     Edge 10, Type (0, 1), BuildingBlock: XIVTED_clean_linker_0, # of connection points: 2
#     Edge 11, Type (0, 1), BuildingBlock: XIVTED_clean_linker_0, # of connection points: 2
#     Edge 12, Type (0, 1), BuildingBlock: XIVTED_clean_linker_0, # of connection points: 2
#     Edge 13, Type (0, 1), BuildingBlock: XIVTED_clean_linker_0, # of connection points: 2
#     Edge 14, Type (0, 1), BuildingBlock: XIVTED_clean_linker_0, # of connection points: 2
#     Edge 15, Type (0, 1), BuildingBlock: XIVTED_clean_linker_0, # of connection points: 2
#     Edge 16, Type (0, 1), BuildingBlock: XIVTED_clean_linker_0, # of connection points: 2
#     Edge 17, Type (0, 1), BuildingBlock: XIVTED_clean_linker_0, # of connection points: 2
#     Edge 18, Type (0, 1), BuildingBlock: XIVTED_clean_linker_0, # of connection points: 2
#     Edge 19, Type (0, 1), BuildingBlock: XIVTED_clean_linker_0, # of connection points: 2
#     Edge 20, Type (0, 1), BuildingBlock: XIVTED_clean_linker_0, # of connection points: 2
#     Edge 21, Type (0, 1), BuildingBlock: XIVTED_clean_linker_0, # of connection points: 2
#     Edge 22, Type (0, 1), BuildingBlock: XIVTED_clean_linker_0, # of connection points: 2
#     Edge 23, Type (0, 1), BuildingBlock: XIVTED_clean_linker_0, # of connection points: 2
#     Edge 24, Type (0, 1), BuildingBlock: XIVTED_clean_linker_0, # of connection points: 2
#     Edge 25, Type (0, 1), BuildingBlock: XIVTED_clean_linker_0, # of connection points: 2
#     Edge 26, Type (0, 1), BuildingBlock: XIVTED_clean_linker_0, # of connection points: 2
# Relax obj value: 0.084
# Max RMSD: 0.184
# Mean RMSD: 0.117
data_MOF--net-anh--node1-MIFKUJ_clean_sbu_0--node2-BETDIP_clean_linker_0--edge1-XIVTED_clean_linker_0
_symmetry_space_group_name_H-M    P1
_symmetry_Int_Tables_number       1
_symmetry_cell_setting            triclinic
loop_
_symmetry_equiv_pos_as_xyz
'x, y, z'
_cell_length_a     31.870692
_cell_length_b     31.835502
_cell_length_c     47.21761
_cell_angle_alpha  97.821648
_cell_angle_beta   90.819728
_cell_angle_gamma 119.63411
loop_
_atom_site_label
_atom_site_type_symbol
_atom_site_fract_x
_atom_site_fract_y
_atom_site_fract_z
_atom_type_partial_charge
Zn0 Zn 0.10527 0.62598 0.14878 0.0
Zn1 Zn 0.96571 0.52514 0.13931 0.0
C2 C 0.18124 0.6193 0.17717 0.0
O3 O 0.18738 0.66 0.19242 0.0
C4 C 0.89038 0.54273 0.12846 0.0
O5 O 0.88832 0.51378 0.10514 0.0
O6 O 0.1524 0.69557 0.14529 0.0
O7 O 0.06731 0.59328 0.10981 0.0
O8 O 0.98982 0.53511 0.10038 0.0
C9 C 0.14797 0.73203 0.15554 0.0
O10 O 0.10957 0.72484 0.16879 0.0
O11 O 0.1465 0.59631 0.15734 0.0
C12 C 0.88592 0.44442 0.15633 0.0
O13 O 0.88853 0.48059 0.17481 0.0
O14 O 0.91805 0.45346 0.13877 0.0
O15 O 0.02013 0.54724 0.16931 0.0
O16 O 0.06697 0.62586 0.18227 0.0
O17 O 0.92595 0.5588 0.14741 0.0
C18 C 0.03066 0.56382 0.09203 0.0
C19 C 0.03152 0.58587 0.18683 0.0
Zn20 Zn 0.58719 0.06643 0.48977 0.0
Zn21 Zn 0.48561 0.91609 0.49281 0.0
C22 C 0.68872 0.13019 0.49525 0.0
O23 O 0.68056 0.13638 0.52227 0.0
C24 C 0.3902 0.84361 0.48078 0.0
O25 O 0.41469 0.8264 0.46607 0.0
O26 O 0.56746 0.11609 0.48585 0.0
O27 O 0.54399 -0.00016 0.46955 0.0
O28 O 0.49675 0.92446 0.45098 0.0
C29 C 0.53302 0.118 0.47342 0.0
O30 O 0.49672 0.07824 0.45845 0.0
O31 O 0.65453 0.09639 0.47754 0.0
C32 C 0.48143 0.84384 0.52287 0.0
O33 O 0.45619 0.85912 0.53834 0.0
O34 O 0.50081 0.8647 0.5017 0.0
O35 O 0.52848 0.97929 0.52214 0.0
O36 O 0.58407 0.05812 0.53108 0.0
O37 O 0.41319 0.88666 0.49528 0.0
C38 C 0.52524 0.96797 0.44726 0.0
C39 C 0.55509 0.01848 0.54005 0.0
Zn40 Zn 0.56095 0.51179 0.85258 0.0
Zn41 Zn 0.45585 0.54048 0.85158 0.0
C42 C 0.52151 0.40684 0.85454 0.0
O43 O 0.50724 0.41655 0.8793 0.0
C44 C 0.47029 0.61704 0.82306 0.0
O45 O 0.4379 0.57769 0.80565 0.0
O46 O 0.63314 0.54931 0.8523 0.0
O47 O 0.5345 0.53794 0.82564 0.0
O48 O 0.45626 0.49737 0.8162 0.0
C49 C 0.65011 0.54042 0.82949 0.0
O50 O 0.61993 0.5085 0.80784 0.0
O51 O 0.54176 0.44049 0.83929 0.0
C52 C 0.38421 0.55659 0.87402 0.0
O53 O 0.42234 0.58676 0.89219 0.0
O54 O 0.38762 0.52665 0.85478 0.0
O55 O 0.48154 0.53474 0.88962 0.0
O56 O 0.54287 0.52005 0.89275 0.0
O57 O 0.48907 0.61144 0.84519 0.0
C58 C 0.49766 0.50673 0.80886 0.0
C59 C 0.51111 0.52815 0.90427 0.0
H60 H 0.4997 0.05017 0.17079 0.0
H61 H 0.60322 0.08804 0.24294 0.0
H62 H 0.45288 0.98261 0.24567 0.0
H63 H 0.55353 0.12524 0.16272 0.0
C64 C 0.58905 0.13116 0.16938 0.0
C65 C 0.50808 0.04674 0.19233 0.0
C66 C 0.47065 0.01419 0.20693 0.0
C67 C 0.55593 0.0741 0.20551 0.0
C68 C 0.56624 0.06753 0.233 0.0
C69 C 0.52921 0.03445 0.24754 0.0
C70 C 0.48155 0.00832 0.23448 0.0
N71 N 0.59465 0.10814 0.19172 0.0
H72 H 0.503 0.44192 0.51466 0.0
H73 H 0.50098 0.51374 0.59821 0.0
H74 H 0.52958 0.39465 0.59095 0.0
H75 H 0.43423 0.50946 0.57017 0.0
C76 C 0.45752 0.52835 0.55416 0.0
C77 C 0.50668 0.44543 0.53785 0.0
C78 C 0.51765 0.41431 0.55073 0.0
C79 C 0.49974 0.4807 0.55484 0.0
C80 C 0.50539 0.4859 0.5849 0.0
C81 C 0.51604 0.45492 0.59798 0.0
C82 C 0.52193 0.41905 0.58083 0.0
N83 N 0.48745 0.51103 0.54154 0.0
H84 H 0.02392 0.64009 0.81204 0.0
H85 H 0.10691 0.62109 0.87673 0.0
H86 H 0.96495 0.59792 0.89151 0.0
H87 H 0.16748 0.71413 0.84782 0.0
C88 C 0.15743 0.67784 0.83658 0.0
C89 C 0.02711 0.63069 0.83287 0.0
C90 C 0.98968 0.61943 0.85091 0.0
C91 C 0.06998 0.63268 0.84244 0.0
C92 C 0.07431 0.62079 0.86958 0.0
C93 C 0.036 0.60698 0.8871 0.0
C94 C 0.99418 0.60711 0.87773 0.0
N95 N 0.10869 0.64692 0.82472 0.0
H96 H 0.01629 0.56257 0.47016 0.0
H97 H 0.92312 0.50372 0.39121 0.0
H98 H 0.05486 0.64175 0.39909 0.0
H99 H 0.86845 0.45534 0.4165 0.0
C100 C 0.88815 0.4486 0.43254 0.0
C101 C 0.00766 0.5663 0.44869 0.0
C102 C 0.03983 0.60764 0.43688 0.0
C103 C 0.9649 0.52895 0.43269 0.0
C104 C 0.95481 0.5329 0.40434 0.0
C105 C 0.98682 0.57365 0.3921 0.0
C106 C 0.02877 0.61126 0.40875 0.0
N107 N 0.93512 0.48618 0.44476 0.0
H108 H 0.51383 0.06213 0.83401 0.0
H109 H 0.51769 0.97324 0.75793 0.0
H110 H 0.54232 0.11728 0.75376 0.0
H111 H 0.44188 0.91866 0.78295 0.0
C112 C 0.46797 0.92459 0.80034 0.0
C113 C 0.51884 0.05759 0.81138 0.0
C114 C 0.52955 0.09584 0.79566 0.0
C115 C 0.51362 0.01293 0.79766 0.0
C116 C 0.52037 0.00711 0.76833 0.0
C117 C 0.53161 0.04493 0.75252 0.0
C118 C 0.53575 0.08886 0.76629 0.0
N119 N 0.50153 0.97369 0.81317 0.0
H120 H 0.48769 0.5611 0.20046 0.0
H121 H 0.56127 0.5466 0.1274 0.0
H122 H 0.42657 0.54506 0.1151 0.0
H123 H 0.54378 0.47746 0.16986 0.0
C124 C 0.57407 0.51388 0.17794 0.0
C125 C 0.4896 0.55713 0.17743 0.0
C126 C 0.45226 0.5532 0.15901 0.0
C127 C 0.52806 0.55305 0.16583 0.0
C128 C 0.53055 0.54797 0.13599 0.0
C129 C 0.49466 0.5461 0.11748 0.0
C130 C 0.45525 0.54781 0.12922 0.0
N131 N 0.56385 0.55268 0.18386 0.0
H132 H 0.26577 0.66658 0.21279 0.0
H133 H 0.35722 0.48647 0.1433 0.0
H134 H 0.1796 0.53651 0.15012 0.0
H135 H 0.45028 0.62375 0.1986 0.0
H136 H 0.28762 0.49688 0.15318 0.0
H137 H 0.32922 0.64475 0.21478 0.0
C138 C 0.25988 0.63311 0.19968 0.0
C139 C 0.21744 0.60362 0.18098 0.0
C140 C 0.32307 0.5245 0.16352 0.0
C141 C 0.29008 0.57847 0.1832 0.0
C142 C 0.36274 0.51845 0.15797 0.0
C143 C 0.40952 0.55459 0.16993 0.0
C144 C 0.33015 0.56729 0.18098 0.0
C145 C 0.41475 0.5951 0.18896 0.0
C146 C 0.29622 0.62073 0.20083 0.0
C147 C 0.21185 0.56061 0.16463 0.0
N148 N 0.37559 0.60077 0.19358 0.0
N149 N 0.24787 0.54958 0.16597 0.0
H150 H 0.76967 0.208 0.5261 0.0
H151 H 0.80981 0.36699 0.40467 0.0
H152 H 0.70149 0.14528 0.43956 0.0
H153 H 0.91521 0.41789 0.47781 0.0
H154 H 0.77017 0.28497 0.41746 0.0
H155 H 0.82606 0.28393 0.50912 0.0
C156 C 0.76726 0.20977 0.50343 0.0
C157 C 0.73028 0.17051 0.48433 0.0
C158 C 0.80227 0.31389 0.43057 0.0
C159 C 0.79385 0.25748 0.46495 0.0
C160 C 0.82463 0.36072 0.4234 0.0
C161 C 0.86552 0.39912 0.4403 0.0
C162 C 0.82042 0.30556 0.45519 0.0
C163 C 0.88359 0.3892 0.46426 0.0
C164 C 0.79938 0.25317 0.49378 0.0
C165 C 0.72908 0.17472 0.45514 0.0
N166 N 0.8605 0.34339 0.47123 0.0
N167 N 0.75971 0.21781 0.44646 0.0
H168 H 0.43821 0.63908 0.77674 0.0
H169 H 0.52849 0.91949 0.84117 0.0
H170 H 0.51879 0.70569 0.86008 0.0
H171 H 0.41663 0.83263 0.7716 0.0
H172 H 0.53416 0.84642 0.84678 0.0
H173 H 0.44081 0.7153 0.77199 0.0
C174 C 0.45692 0.66993 0.79401 0.0
C175 C 0.47803 0.66571 0.81894 0.0
C176 C 0.50838 0.84354 0.83036 0.0
C177 C 0.48074 0.75371 0.81371 0.0
C178 C 0.5051 0.8851 0.82718 0.0
C179 C 0.47196 0.88193 0.80588 0.0
C180 C 0.47876 0.79901 0.81185 0.0
C181 C 0.44259 0.83664 0.78831 0.0
C182 C 0.45817 0.71353 0.79132 0.0
C183 C 0.50201 0.70729 0.84047 0.0
N184 N 0.44683 0.7972 0.79159 0.0
N185 N 0.50251 0.74958 0.83745 0.0
H186 H 0.80429 0.49924 0.09555 0.0
H187 H 0.66326 0.59632 0.19722 0.0
H188 H 0.87696 0.59494 0.17586 0.0
H189 H 0.59644 0.45194 0.14639 0.0
H190 H 0.74351 0.60895 0.18523 0.0
H191 H 0.72931 0.49609 0.10842 0.0
C192 C 0.80478 0.52022 0.11576 0.0
C193 C 0.8471 0.54713 0.13474 0.0
C194 C 0.71113 0.57457 0.17686 0.0
C195 C 0.76076 0.5435 0.14959 0.0
C196 C 0.66552 0.56737 0.18363 0.0
C197 C 0.62333 0.52299 0.17272 0.0
C198 C 0.71402 0.53757 0.15856 0.0
C199 C 0.62811 0.48661 0.15527 0.0
C200 C 0.76175 0.51809 0.12315 0.0
C201 C 0.84516 0.5736 0.16062 0.0
N202 N 0.67248 0.49487 0.14851 0.0
N203 N 0.80255 0.57107 0.16737 0.0
H204 H 0.3202 0.86972 0.48943 0.0
H205 H 0.10498 0.59028 0.46341 0.0
H206 H 0.34041 0.74455 0.47277 0.0
H207 H 0.08461 0.7079 0.44398 0.0
H208 H 0.18951 0.64994 0.48057 0.0
H209 H 0.23178 0.81353 0.48532 0.0
C210 C 0.30606 0.83053 0.48528 0.0
C211 C 0.33743 0.81165 0.48107 0.0
C212 C 0.16631 0.66277 0.47297 0.0
C213 C 0.23731 0.74774 0.47686 0.0
C214 C 0.11799 0.62882 0.46343 0.0
C215 C 0.08793 0.64421 0.45211 0.0
C216 C 0.18463 0.7125 0.47134 0.0
C217 C 0.10687 0.69458 0.45229 0.0
C218 C 0.25581 0.79861 0.48287 0.0
C219 C 0.31743 0.76063 0.47575 0.0
N220 N 0.15421 0.727 0.46155 0.0
N221 N 0.26872 0.73051 0.47378 0.0
H222 H 0.4733 0.32325 0.87857 0.0
H223 H 0.59604 0.18878 0.7882 0.0
H224 H 0.56718 0.38248 0.81219 0.0
H225 H 0.4696 0.10987 0.83263 0.0
H226 H 0.59325 0.26367 0.80304 0.0
H227 H 0.47694 0.24765 0.86696 0.0
C228 C 0.49442 0.3203 0.86146 0.0
C229 C 0.51991 0.35933 0.8463 0.0
C230 C 0.56617 0.23006 0.80967 0.0
C231 C 0.52491 0.27334 0.83334 0.0
C232 C 0.56779 0.18724 0.80125 0.0
C233 C 0.53253 0.14268 0.80878 0.0
C234 C 0.52926 0.22879 0.82601 0.0
C235 C 0.49753 0.14333 0.82634 0.0
C236 C 0.49653 0.27717 0.8549 0.0
C237 C 0.54675 0.35339 0.82438 0.0
N238 N 0.49657 0.18567 0.83422 0.0
N239 N 0.54878 0.31145 0.81872 0.0
H240 H 0.52694 0.79923 0.49398 0.0
H241 H 0.40902 0.57115 0.5784 0.0
H242 H 0.43598 0.78645 0.56298 0.0
H243 H 0.51322 0.58934 0.51697 0.0
H244 H 0.41624 0.64884 0.57117 0.0
H245 H 0.52146 0.72183 0.50084 0.0
C246 C 0.50612 0.78036 0.51069 0.0
C247 C 0.48186 0.79931 0.52793 0.0
C248 C 0.43755 0.63593 0.55922 0.0
C249 C 0.47506 0.71073 0.53566 0.0
C250 C 0.43326 0.59152 0.56326 0.0
C251 C 0.46053 0.57399 0.54828 0.0
C252 C 0.46936 0.66303 0.53997 0.0
C253 C 0.49153 0.60166 0.52895 0.0
C254 C 0.50292 0.73616 0.51453 0.0
C255 C 0.45532 0.77329 0.54919 0.0
N256 N 0.49514 0.64496 0.52535 0.0
N257 N 0.45248 0.73028 0.55235 0.0
H258 H 0.69779 0.52117 0.78638 0.0
H259 H 0.95231 0.6697 0.88133 0.0
H260 H 0.72281 0.60912 0.86966 0.0
H261 H 0.92701 0.57197 0.80213 0.0
H262 H 0.87236 0.66038 0.87229 0.0
H263 H 0.78476 0.55087 0.78711 0.0
C264 C 0.72161 0.54714 0.80469 0.0
C265 C 0.70293 0.56213 0.82822 0.0
C266 C 0.88437 0.6414 0.85664 0.0
C267 C 0.80238 0.59622 0.82912 0.0
C268 C 0.92998 0.64679 0.86179 0.0
C269 C 0.94568 0.62094 0.84263 0.0
C270 C 0.85397 0.60947 0.83229 0.0
C271 C 0.91592 0.59229 0.81744 0.0
C272 C 0.77125 0.56406 0.80506 0.0
C273 C 0.73552 0.5961 0.85123 0.0
N274 N 0.87099 0.58665 0.81319 0.0
N275 N 0.78358 0.61163 0.8512 0.0
H276 H 0.16468 0.81716 0.18902 0.0
H277 H 0.44002 0.96001 0.15301 0.0
H278 H 0.22567 0.76043 0.12386 0.0
H279 H 0.38714 -0.00073 0.22989 0.0
H280 H 0.35642 0.89927 0.13422 0.0
H281 H 0.24047 0.89586 0.19606 0.0
C282 C 0.19362 0.82153 0.1758 0.0
C283 C 0.18933 0.78195 0.15627 0.0
C284 C 0.36308 0.92177 0.155 0.0
C285 C 0.27589 0.87159 0.16424 0.0
C286 C 0.4107 0.95658 0.16563 0.0
C287 C 0.42038 0.98398 0.19321 0.0
C288 C 0.32505 0.91451 0.17209 0.0
C289 C 0.38114 0.97807 0.20875 0.0
C290 C 0.2369 0.86639 0.17989 0.0
C291 C 0.22784 0.78975 0.13957 0.0
N292 N 0.33519 0.94353 0.19812 0.0
N293 N 0.26976 0.8335 0.14419 0.0
H294 H 0.60916 0.20746 0.49562 0.0
H295 H 0.45663 0.34553 0.50569 0.0
H296 H 0.45931 0.13675 0.46132 0.0
H297 H 0.59167 0.39559 0.55597 0.0
H298 H 0.46284 0.27609 0.48071 0.0
H299 H 0.60887 0.28368 0.50873 0.0
C300 C 0.57614 0.20797 0.49066 0.0
C301 C 0.53381 0.16528 0.47786 0.0
C302 C 0.49129 0.30261 0.497 0.0
C303 C 0.53337 0.25299 0.493 0.0
C304 C 0.48792 0.34225 0.5111 0.0
C305 C 0.52347 0.37582 0.53307 0.0
C306 C 0.53075 0.29707 0.50481 0.0
C307 C 0.56318 0.37003 0.53943 0.0
C308 C 0.57608 0.25167 0.49817 0.0
C309 C 0.49254 0.16865 0.47145 0.0
N310 N 0.56563 0.33128 0.52546 0.0
N311 N 0.49314 0.21174 0.47942 0.0
H312 H 0.30405 0.50977 0.83455 0.0
H313 H 0.23964 0.7215 0.87244 0.0
H314 H 0.37182 0.62551 0.90779 0.0
H315 H 0.14578 0.58767 0.81439 0.0
H316 H 0.29012 0.68721 0.88423 0.0
H317 H 0.24536 0.53633 0.82627 0.0
C318 C 0.30611 0.54019 0.84918 0.0
C319 C 0.34323 0.56576 0.87174 0.0
C320 C 0.25841 0.66519 0.86897 0.0
C321 C 0.27689 0.59678 0.86206 0.0
C322 C 0.22987 0.68491 0.8621 0.0
C323 C 0.18873 0.65739 0.84242 0.0
C324 C 0.24601 0.61772 0.8558 0.0
C325 C 0.17734 0.61007 0.82968 0.0
C326 C 0.27272 0.55544 0.84436 0.0
C327 C 0.34411 0.60491 0.89 0.0
N328 N 0.20602 0.59173 0.8365 0.0
N329 N 0.31187 0.61957 0.88454 0.0
H330 H 0.8789 0.35476 0.14055 0.0
H331 H 0.59236 0.20618 0.14652 0.0
H332 H 0.79469 0.42358 0.16577 0.0
H333 H 0.68304 0.15036 0.17263 0.0
H334 H 0.66521 0.28098 0.13832 0.0
H335 H 0.80522 0.27394 0.13823 0.0
C336 C 0.84489 0.35275 0.14539 0.0
C337 C 0.84271 0.39554 0.15377 0.0
C338 C 0.66895 0.252 0.1455 0.0
C339 C 0.7591 0.30439 0.15036 0.0
C340 C 0.62758 0.20944 0.15006 0.0
C341 C 0.63203 0.17275 0.16071 0.0
C342 C 0.7148 0.25724 0.15112 0.0
C343 C 0.67833 0.17836 0.16486 0.0
C344 C 0.80314 0.30692 0.14408 0.0
C345 C 0.79794 0.39132 0.15971 0.0
N346 N 0.71816 0.2201 0.16015 0.0
N347 N 0.75781 0.3465 0.15778 0.0
H348 H 0.11073 0.62262 0.06596 0.0
H349 H 0.96705 0.52984 0.90974 0.0
H350 H 0.96147 0.50671 0.04707 0.0
H351 H 0.11226 0.65329 0.9291 0.0
H352 H 0.96864 0.51379 0.9587 0.0
H353 H 0.11587 0.62745 0.01487 0.0
C354 C 0.0791 0.5979 0.05109 0.0
C355 C 0.0354 0.56452 0.06093 0.0
C356 C 0.00034 0.54418 0.95224 0.0
C357 C 0.04116 0.56999 0.00234 0.0
C358 C -0.0006 0.55342 0.92431 0.0
C359 C 0.03931 0.59343 0.91552 0.0
C360 C 0.04143 0.57527 0.97163 0.0
C361 C 0.0807 0.62212 0.93503 0.0
C362 C 0.08212 0.60073 0.02189 0.0
C363 C 0.99579 0.53329 0.04056 0.0
N364 N 0.0805 0.61281 0.96231 0.0
N365 N -0.00045 0.53703 0.01229 0.0
H366 H 0.57468 0.05906 0.43133 0.0
H367 H 0.50342 0.94727 0.26431 0.0
H368 H 0.49936 0.90457 0.3969 0.0
H369 H 0.57771 0.10256 0.29584 0.0
H370 H 0.51103 0.93231 0.31288 0.0
H371 H 0.58489 0.07722 0.38222 0.0
C372 C 0.56074 0.02901 0.41348 0.0
C373 C 0.53566 0.98021 0.41816 0.0
C374 C 0.52609 0.96977 0.30928 0.0
C375 C 0.54725 0.00065 0.36212 0.0
C376 C 0.5217 0.97824 0.28155 0.0
C377 C 0.53948 0.02612 0.27624 0.0
C378 C 0.54794 0.00944 0.33203 0.0
C379 C 0.56349 0.06509 0.29917 0.0
C380 C 0.56656 0.03939 0.38548 0.0
C381 C 0.51846 0.94271 0.3943 0.0
N382 N 0.56649 0.05588 0.32623 0.0
N383 N 0.52433 0.95373 0.36737 0.0
H384 H 0.43116 0.42963 0.76919 0.0
H385 H 0.57375 0.53618 0.63732 0.0
H386 H 0.57714 0.5528 0.77977 0.0
H387 H 0.46462 0.38377 0.63005 0.0
H388 H 0.57302 0.54468 0.68964 0.0
H389 H 0.43961 0.41282 0.71791 0.0
C390 C 0.46509 0.45275 0.76078 0.0
C391 C 0.50345 0.49267 0.7787 0.0
C392 C 0.54964 0.50922 0.67664 0.0
C393 C 0.51305 0.47421 0.72031 0.0
C394 C 0.54996 0.50447 0.64687 0.0
C395 C 0.51917 0.45927 0.62957 0.0
C396 C 0.5175 0.46874 0.68907 0.0
C397 C 0.48902 0.41915 0.64281 0.0
C398 C 0.46995 0.44308 0.73162 0.0
C399 C 0.54671 0.52148 0.76677 0.0
N400 N 0.48841 0.42495 0.67184 0.0
N401 N 0.5501 0.51209 0.73825 0.0
H402 H 0.49068 0.9461 0.56847 0.0
H403 H 0.60158 0.11072 0.72361 0.0
H404 H 0.61557 0.09176 0.58317 0.0
H405 H 0.47701 0.96489 0.71082 0.0
H406 H 0.60944 0.10205 0.67215 0.0
H407 H 0.48736 0.94958 0.62049 0.0
C408 C 0.51768 0.97852 0.58259 0.0
C409 C 0.55347 0.01856 0.57138 0.0
C410 C 0.58046 0.0718 0.68055 0.0
C411 C 0.54958 0.02317 0.63087 0.0
C412 C 0.57585 0.07684 0.70993 0.0
C413 C 0.53834 0.03864 0.72149 0.0
C414 C 0.54723 0.02826 0.66244 0.0
C415 C 0.5066 0.99518 0.70282 0.0
C416 C 0.51565 0.98062 0.61229 0.0
C417 C 0.58718 0.06001 0.59075 0.0
N418 N 0.51156 0.99128 0.67417 0.0
N419 N 0.58428 0.06126 0.61946 0.0
H420 H 0.46163 0.56191 0.93815 0.0
H421 H 0.52664 0.49314 0.08253 0.0
H422 H 0.55457 0.49951 0.94201 0.0
H423 H 0.47131 0.59227 0.08053 0.0
H424 H 0.53154 0.48873 0.03061 0.0
H425 H 0.45806 0.56597 0.98991 0.0
C426 C 0.48126 0.54898 0.94985 0.0
C427 C 0.50858 0.53047 0.93567 0.0
C428 C 0.51838 0.51144 0.04161 0.0
C429 C 0.50448 0.53492 0.99506 0.0
C430 C 0.51577 0.51418 0.07127 0.0
C431 C 0.4983 0.54296 0.08599 0.0
C432 C 0.50309 0.53735 0.02655 0.0
C433 C 0.48406 0.56882 0.0701 0.0
C434 C 0.47933 0.55148 0.97945 0.0
C435 C 0.53329 0.51432 0.95206 0.0
N436 N 0.48661 0.56525 0.04129 0.0
N437 N 0.53053 0.51677 0.9809 0.0
H438 H 0.97143 0.50339 0.20894 0.0
H439 H 0.00332 0.65186 0.36587 0.0
H440 H 0.04586 0.66131 0.22885 0.0
H441 H 0.95501 0.49728 0.3473 0.0
H442 H 0.00275 0.65419 0.31427 0.0
H443 H 0.94793 0.49913 0.25785 0.0
C444 C 0.98215 0.5372 0.22344 0.0
C445 C 0.01121 0.58281 0.2149 0.0
C446 C 0.99162 0.61966 0.32155 0.0
C447 C 0.98495 0.57816 0.27108 0.0
C448 C 0.99211 0.61833 0.35098 0.0
C449 C 0.97972 0.57444 0.36102 0.0
C450 C 0.97864 0.57681 0.30201 0.0
C451 C 0.96453 0.53191 0.34068 0.0
C452 C 0.9689 0.53472 0.25143 0.0
C453 C 0.024 0.62537 0.23465 0.0
N454 N 0.9649 0.53429 0.3122 0.0
N455 N 0.01125 0.62202 0.26194 0.0
loop_
_geom_bond_atom_site_label_1
_geom_bond_atom_site_label_2
_geom_bond_distance
_geom_bond_site_symmetry_2
_ccdc_geom_bond_type
Zn0 O6 1.969 . S
Zn0 O7 1.965 . S
Zn0 O11 2.024 . S
Zn0 O16 1.969 . S
Zn1 O8 1.969 . S
Zn1 O14 1.969 . S
Zn1 O15 1.965 1_655 S
Zn1 O17 2.024 . S
C2 O3 1.229 . S
C2 O11 1.058 . S
O3 C2 1.229 . S
C4 O5 1.229 . S
C4 O17 1.058 . S
O5 C4 1.229 . S
O6 Zn0 1.969 . S
O6 C9 1.267 . S
O7 Zn0 1.965 . S
O7 C18 1.260 . S
O8 Zn1 1.969 . S
O8 C18 1.258 1_655 S
C9 O6 1.267 . S
C9 O10 1.228 . S
O10 C9 1.228 . S
O11 Zn0 2.024 . S
O11 C2 1.058 . S
C12 O13 1.228 . S
C12 O14 1.267 . S
O13 C12 1.228 . S
O14 Zn1 1.969 . S
O14 C12 1.267 . S
O15 Zn1 1.965 1_455 S
O15 C19 1.260 . S
O16 Zn0 1.969 . S
O16 C19 1.258 . S
O17 Zn1 2.024 . S
O17 C4 1.058 . S
C18 O7 1.260 . S
C18 O8 1.258 1_455 S
C19 O15 1.260 . S
C19 O16 1.258 . S
Zn20 O26 1.969 . S
Zn20 O27 1.965 . S
Zn20 O31 2.024 . S
Zn20 O36 1.969 . S
Zn21 O28 1.969 . S
Zn21 O34 1.969 . S
Zn21 O35 1.965 1_565 S
Zn21 O37 2.024 . S
C22 O23 1.229 . S
C22 O31 1.058 . S
O23 C22 1.229 . S
C24 O25 1.229 . S
C24 O37 1.058 . S
O25 C24 1.229 . S
O26 Zn20 1.969 . S
O26 C29 1.267 . S
O27 Zn20 1.965 . S
O27 C38 1.260 . S
O28 Zn21 1.969 . S
O28 C38 1.258 1_565 S
C29 O26 1.267 . S
C29 O30 1.228 . S
O30 C29 1.228 . S
O31 Zn20 2.024 . S
O31 C22 1.058 . S
C32 O33 1.228 . S
C32 O34 1.267 . S
O33 C32 1.228 . S
O34 Zn21 1.969 . S
O34 C32 1.267 . S
O35 Zn21 1.965 1_545 S
O35 C39 1.260 . S
O36 Zn20 1.969 . S
O36 C39 1.258 . S
O37 Zn21 2.024 . S
O37 C24 1.058 . S
C38 O27 1.260 . S
C38 O28 1.258 1_545 S
C39 O35 1.260 . S
C39 O36 1.258 . S
Zn40 O46 1.969 . S
Zn40 O47 1.965 . S
Zn40 O51 2.024 . S
Zn40 O56 1.969 . S
Zn41 O48 1.969 . S
Zn41 O54 1.969 . S
Zn41 O55 1.965 . S
Zn41 O57 2.024 . S
C42 O43 1.229 . S
C42 O51 1.058 . S
O43 C42 1.229 . S
C44 O45 1.229 . S
C44 O57 1.058 . S
O45 C44 1.229 . S
O46 Zn40 1.969 . S
O46 C49 1.267 . S
O47 Zn40 1.965 . S
O47 C58 1.260 . S
O48 Zn41 1.969 . S
O48 C58 1.258 . S
C49 O46 1.267 . S
C49 O50 1.228 . S
O50 C49 1.228 . S
O51 Zn40 2.024 . S
O51 C42 1.058 . S
C52 O53 1.228 . S
C52 O54 1.267 . S
O53 C52 1.228 . S
O54 Zn41 1.969 . S
O54 C52 1.267 . S
O55 Zn41 1.965 . S
O55 C59 1.260 . S
O56 Zn40 1.969 . S
O56 C59 1.258 . S
O57 Zn41 2.024 . S
O57 C44 1.058 . S
C58 O47 1.260 . S
C58 O48 1.258 . S
C59 O55 1.260 . S
C59 O56 1.258 . S
H60 C65 0.930 . S
H61 C68 0.930 . S
H62 C70 0.930 1_565 S
H63 C64 1.016 . S
C64 H63 1.016 . S
C64 N71 1.286 . S
C65 H60 0.930 . S
C65 C66 1.397 1_545 S
C65 C67 1.361 . S
C66 C65 1.397 1_565 S
C66 C70 1.390 1_565 S
C67 C65 1.361 . S
C67 C68 1.393 . S
C67 N71 1.413 . S
C68 H61 0.930 . S
C68 C67 1.393 . S
C68 C69 1.399 . S
C69 C68 1.399 . S
C69 C70 1.381 . S
C70 H62 0.930 1_545 S
C70 C66 1.390 1_545 S
C70 C69 1.381 . S
N71 C64 1.286 . S
N71 C67 1.413 . S
H72 C77 0.930 . S
H73 C80 0.930 . S
H74 C82 0.930 . S
H75 C76 1.016 . S
C76 H75 1.016 . S
C76 N83 1.286 . S
C77 H72 0.930 . S
C77 C78 1.397 . S
C77 C79 1.361 . S
C78 C77 1.397 . S
C78 C82 1.390 . S
C79 C77 1.361 . S
C79 C80 1.393 . S
C79 N83 1.413 . S
C80 H73 0.930 . S
C80 C79 1.393 . S
C80 C81 1.399 . S
C81 C80 1.399 . S
C81 C82 1.381 . S
C82 H74 0.930 . S
C82 C78 1.390 . S
C82 C81 1.381 . S
N83 C76 1.286 . S
N83 C79 1.413 . S
H84 C89 0.930 . S
H85 C92 0.930 . S
H86 C94 0.930 . S
H87 C88 1.016 . S
C88 H87 1.016 . S
C88 N95 1.286 . S
C89 H84 0.930 . S
C89 C90 1.403 . S
C89 C91 1.354 1_655 S
C90 C89 1.403 . S
C90 C94 1.390 . S
C91 C89 1.354 1_455 S
C91 C92 1.393 . S
C91 N95 1.413 . S
C92 H85 0.930 . S
C92 C91 1.393 . S
C92 C93 1.399 . S
C93 C92 1.399 . S
C93 C94 1.381 1_455 S
C94 H86 0.930 . S
C94 C90 1.390 . S
C94 C93 1.381 1_655 S
N95 C88 1.286 . S
N95 C91 1.413 . S
H96 C101 0.930 . S
H97 C104 0.930 . S
H98 C106 0.930 . S
H99 C100 1.016 . S
C100 H99 1.016 . S
C100 N107 1.286 . S
C101 H96 0.930 . S
C101 C102 1.397 . S
C101 C103 1.361 . S
C102 C101 1.397 . S
C102 C106 1.390 . S
C103 C101 1.361 . S
C103 C104 1.393 1_455 S
C103 N107 1.413 1_455 S
C104 H97 0.930 . S
C104 C103 1.393 1_655 S
C104 C105 1.399 1_655 S
C105 C104 1.399 1_455 S
C105 C106 1.381 . S
C106 H98 0.930 . S
C106 C102 1.390 . S
C106 C105 1.381 . S
N107 C100 1.286 . S
N107 C103 1.413 1_655 S
H108 C113 0.930 . S
H109 C116 0.930 1_565 S
H110 C118 0.930 . S
H111 C112 1.016 . S
C112 H111 1.016 . S
C112 N119 1.286 . S
C113 H108 0.930 . S
C113 C114 1.397 . S
C113 C115 1.361 . S
C114 C113 1.397 . S
C114 C118 1.390 . S
C115 C113 1.361 . S
C115 C116 1.393 . S
C115 N119 1.413 1_545 S
C116 H109 0.930 1_545 S
C116 C115 1.393 . S
C116 C117 1.399 . S
C117 C116 1.399 . S
C117 C118 1.381 . S
C118 H110 0.930 . S
C118 C114 1.390 . S
C118 C117 1.381 . S
N119 C112 1.286 . S
N119 C115 1.413 1_565 S
H120 C125 0.930 . S
H121 C128 0.930 . S
H122 C130 0.930 . S
H123 C124 1.016 . S
C124 H123 1.016 . S
C124 N131 1.286 . S
C125 H120 0.930 . S
C125 C126 1.397 . S
C125 C127 1.361 . S
C126 C125 1.397 . S
C126 C130 1.390 . S
C127 C125 1.361 . S
C127 C128 1.393 . S
C127 N131 1.413 . S
C128 H121 0.930 . S
C128 C127 1.393 . S
C128 C129 1.399 . S
C129 C128 1.399 . S
C129 C130 1.381 . S
C130 H122 0.930 . S
C130 C126 1.390 . S
C130 C129 1.381 . S
N131 C124 1.286 . S
N131 C127 1.413 . S
H132 C138 0.930 . S
H133 C142 0.930 . S
H134 C147 0.929 . S
H135 C145 0.929 . S
H136 C140 0.929 . S
H137 C146 0.929 . S
C138 H132 0.930 . S
C138 C139 1.367 . S
C138 C146 1.378 . S
C139 C138 1.367 . S
C139 C147 1.433 . S
C140 H136 0.929 . S
C140 C142 1.378 . S
C140 C144 1.350 . S
C141 C144 1.463 . S
C141 C146 1.350 . S
C141 N149 1.427 . S
C142 H133 0.930 . S
C142 C140 1.378 . S
C142 C143 1.367 . S
C143 C142 1.367 . S
C143 C145 1.433 . S
C144 C140 1.350 . S
C144 C141 1.463 . S
C144 N148 1.427 . S
C145 H135 0.929 . S
C145 C143 1.433 . S
C145 N148 1.384 . S
C146 H137 0.929 . S
C146 C138 1.378 . S
C146 C141 1.350 . S
C147 H134 0.929 . S
C147 C139 1.433 . S
C147 N149 1.384 . S
N148 C144 1.427 . S
N148 C145 1.384 . S
N149 C141 1.427 . S
N149 C147 1.384 . S
H150 C156 0.930 . S
H151 C160 0.930 . S
H152 C165 0.929 . S
H153 C163 0.929 . S
H154 C158 0.929 . S
H155 C164 0.929 . S
C156 H150 0.930 . S
C156 C157 1.367 . S
C156 C164 1.378 . S
C157 C156 1.367 . S
C157 C165 1.433 . S
C158 H154 0.929 . S
C158 C160 1.378 . S
C158 C162 1.350 . S
C159 C162 1.463 . S
C159 C164 1.350 . S
C159 N167 1.427 . S
C160 H151 0.930 . S
C160 C158 1.378 . S
C160 C161 1.367 . S
C161 C160 1.367 . S
C161 C163 1.433 . S
C162 C158 1.350 . S
C162 C159 1.463 . S
C162 N166 1.427 . S
C163 H153 0.929 . S
C163 C161 1.433 . S
C163 N166 1.384 . S
C164 H155 0.929 . S
C164 C156 1.378 . S
C164 C159 1.350 . S
C165 H152 0.929 . S
C165 C157 1.433 . S
C165 N167 1.384 . S
N166 C162 1.427 . S
N166 C163 1.384 . S
N167 C159 1.427 . S
N167 C165 1.384 . S
H168 C174 0.930 . S
H169 C178 0.930 . S
H170 C183 0.929 . S
H171 C181 0.929 . S
H172 C176 0.929 . S
H173 C182 0.929 . S
C174 H168 0.930 . S
C174 C175 1.367 . S
C174 C182 1.378 . S
C175 C174 1.367 . S
C175 C183 1.433 . S
C176 H172 0.929 . S
C176 C178 1.378 . S
C176 C180 1.350 . S
C177 C180 1.463 . S
C177 C182 1.350 . S
C177 N185 1.427 . S
C178 H169 0.930 . S
C178 C176 1.378 . S
C178 C179 1.367 . S
C179 C178 1.367 . S
C179 C181 1.433 . S
C180 C176 1.350 . S
C180 C177 1.463 . S
C180 N184 1.427 . S
C181 H171 0.929 . S
C181 C179 1.433 . S
C181 N184 1.384 . S
C182 H173 0.929 . S
C182 C174 1.378 . S
C182 C177 1.350 . S
C183 H170 0.929 . S
C183 C175 1.433 . S
C183 N185 1.384 . S
N184 C180 1.427 . S
N184 C181 1.384 . S
N185 C177 1.427 . S
N185 C183 1.384 . S
H186 C192 0.930 . S
H187 C196 0.930 . S
H188 C201 0.929 . S
H189 C199 0.929 . S
H190 C194 0.929 . S
H191 C200 0.929 . S
C192 H186 0.930 . S
C192 C193 1.367 . S
C192 C200 1.378 . S
C193 C192 1.367 . S
C193 C201 1.433 . S
C194 H190 0.929 . S
C194 C196 1.378 . S
C194 C198 1.350 . S
C195 C198 1.463 . S
C195 C200 1.350 . S
C195 N203 1.427 . S
C196 H187 0.930 . S
C196 C194 1.378 . S
C196 C197 1.367 . S
C197 C196 1.367 . S
C197 C199 1.433 . S
C198 C194 1.350 . S
C198 C195 1.463 . S
C198 N202 1.427 . S
C199 H189 0.929 . S
C199 C197 1.433 . S
C199 N202 1.384 . S
C200 H191 0.929 . S
C200 C192 1.378 . S
C200 C195 1.350 . S
C201 H188 0.929 . S
C201 C193 1.433 . S
C201 N203 1.384 . S
N202 C198 1.427 . S
N202 C199 1.384 . S
N203 C195 1.427 . S
N203 C201 1.384 . S
H204 C210 0.930 . S
H205 C214 0.930 . S
H206 C219 0.929 . S
H207 C217 0.929 . S
H208 C212 0.929 . S
H209 C218 0.929 . S
C210 H204 0.930 . S
C210 C211 1.367 . S
C210 C218 1.378 . S
C211 C210 1.367 . S
C211 C219 1.433 . S
C212 H208 0.929 . S
C212 C214 1.378 . S
C212 C216 1.350 . S
C213 C216 1.463 . S
C213 C218 1.350 . S
C213 N221 1.427 . S
C214 H205 0.930 . S
C214 C212 1.378 . S
C214 C215 1.367 . S
C215 C214 1.367 . S
C215 C217 1.433 . S
C216 C212 1.350 . S
C216 C213 1.463 . S
C216 N220 1.427 . S
C217 H207 0.929 . S
C217 C215 1.433 . S
C217 N220 1.384 . S
C218 H209 0.929 . S
C218 C210 1.378 . S
C218 C213 1.350 . S
C219 H206 0.929 . S
C219 C211 1.433 . S
C219 N221 1.384 . S
N220 C216 1.427 . S
N220 C217 1.384 . S
N221 C213 1.427 . S
N221 C219 1.384 . S
H222 C228 0.930 . S
H223 C232 0.930 . S
H224 C237 0.929 . S
H225 C235 0.929 . S
H226 C230 0.929 . S
H227 C236 0.929 . S
C228 H222 0.930 . S
C228 C229 1.367 . S
C228 C236 1.378 . S
C229 C228 1.367 . S
C229 C237 1.433 . S
C230 H226 0.929 . S
C230 C232 1.378 . S
C230 C234 1.350 . S
C231 C234 1.463 . S
C231 C236 1.350 . S
C231 N239 1.427 . S
C232 H223 0.930 . S
C232 C230 1.378 . S
C232 C233 1.367 . S
C233 C232 1.367 . S
C233 C235 1.433 . S
C234 C230 1.350 . S
C234 C231 1.463 . S
C234 N238 1.427 . S
C235 H225 0.929 . S
C235 C233 1.433 . S
C235 N238 1.384 . S
C236 H227 0.929 . S
C236 C228 1.378 . S
C236 C231 1.350 . S
C237 H224 0.929 . S
C237 C229 1.433 . S
C237 N239 1.384 . S
N238 C234 1.427 . S
N238 C235 1.384 . S
N239 C231 1.427 . S
N239 C237 1.384 . S
H240 C246 0.930 . S
H241 C250 0.930 . S
H242 C255 0.929 . S
H243 C253 0.929 . S
H244 C248 0.929 . S
H245 C254 0.929 . S
C246 H240 0.930 . S
C246 C247 1.367 . S
C246 C254 1.378 . S
C247 C246 1.367 . S
C247 C255 1.433 . S
C248 H244 0.929 . S
C248 C250 1.378 . S
C248 C252 1.350 . S
C249 C252 1.463 . S
C249 C254 1.350 . S
C249 N257 1.427 . S
C250 H241 0.930 . S
C250 C248 1.378 . S
C250 C251 1.367 . S
C251 C250 1.367 . S
C251 C253 1.433 . S
C252 C248 1.350 . S
C252 C249 1.463 . S
C252 N256 1.427 . S
C253 H243 0.929 . S
C253 C251 1.433 . S
C253 N256 1.384 . S
C254 H245 0.929 . S
C254 C246 1.378 . S
C254 C249 1.350 . S
C255 H242 0.929 . S
C255 C247 1.433 . S
C255 N257 1.384 . S
N256 C252 1.427 . S
N256 C253 1.384 . S
N257 C249 1.427 . S
N257 C255 1.384 . S
H258 C264 0.930 . S
H259 C268 0.930 . S
H260 C273 0.929 . S
H261 C271 0.929 . S
H262 C266 0.929 . S
H263 C272 0.929 . S
C264 H258 0.930 . S
C264 C265 1.367 . S
C264 C272 1.378 . S
C265 C264 1.367 . S
C265 C273 1.433 . S
C266 H262 0.929 . S
C266 C268 1.378 . S
C266 C270 1.350 . S
C267 C270 1.463 . S
C267 C272 1.350 . S
C267 N275 1.427 . S
C268 H259 0.930 . S
C268 C266 1.378 . S
C268 C269 1.367 . S
C269 C268 1.367 . S
C269 C271 1.433 . S
C270 C266 1.350 . S
C270 C267 1.463 . S
C270 N274 1.427 . S
C271 H261 0.929 . S
C271 C269 1.433 . S
C271 N274 1.384 . S
C272 H263 0.929 . S
C272 C264 1.378 . S
C272 C267 1.350 . S
C273 H260 0.929 . S
C273 C265 1.433 . S
C273 N275 1.384 . S
N274 C270 1.427 . S
N274 C271 1.384 . S
N275 C267 1.427 . S
N275 C273 1.384 . S
H276 C282 0.930 . S
H277 C286 0.930 . S
H278 C291 0.929 . S
H279 C289 0.929 . S
H280 C284 0.929 . S
H281 C290 0.929 . S
C282 H276 0.930 . S
C282 C283 1.367 . S
C282 C290 1.378 . S
C283 C282 1.367 . S
C283 C291 1.433 . S
C284 H280 0.929 . S
C284 C286 1.378 . S
C284 C288 1.350 . S
C285 C288 1.463 . S
C285 C290 1.350 . S
C285 N293 1.427 . S
C286 H277 0.930 . S
C286 C284 1.378 . S
C286 C287 1.367 . S
C287 C286 1.367 . S
C287 C289 1.433 . S
C288 C284 1.350 . S
C288 C285 1.463 . S
C288 N292 1.427 . S
C289 H279 0.929 . S
C289 C287 1.433 . S
C289 N292 1.384 . S
C290 H281 0.929 . S
C290 C282 1.378 . S
C290 C285 1.350 . S
C291 H278 0.929 . S
C291 C283 1.433 . S
C291 N293 1.384 . S
N292 C288 1.427 . S
N292 C289 1.384 . S
N293 C285 1.427 . S
N293 C291 1.384 . S
H294 C300 0.930 . S
H295 C304 0.930 . S
H296 C309 0.929 . S
H297 C307 0.929 . S
H298 C302 0.929 . S
H299 C308 0.929 . S
C300 H294 0.930 . S
C300 C301 1.367 . S
C300 C308 1.378 . S
C301 C300 1.367 . S
C301 C309 1.433 . S
C302 H298 0.929 . S
C302 C304 1.378 . S
C302 C306 1.350 . S
C303 C306 1.463 . S
C303 C308 1.350 . S
C303 N311 1.427 . S
C304 H295 0.930 . S
C304 C302 1.378 . S
C304 C305 1.367 . S
C305 C304 1.367 . S
C305 C307 1.433 . S
C306 C302 1.350 . S
C306 C303 1.463 . S
C306 N310 1.427 . S
C307 H297 0.929 . S
C307 C305 1.433 . S
C307 N310 1.384 . S
C308 H299 0.929 . S
C308 C300 1.378 . S
C308 C303 1.350 . S
C309 H296 0.929 . S
C309 C301 1.433 . S
C309 N311 1.384 . S
N310 C306 1.427 . S
N310 C307 1.384 . S
N311 C303 1.427 . S
N311 C309 1.384 . S
H312 C318 0.930 . S
H313 C322 0.930 . S
H314 C327 0.929 . S
H315 C325 0.929 . S
H316 C320 0.929 . S
H317 C326 0.929 . S
C318 H312 0.930 . S
C318 C319 1.367 . S
C318 C326 1.378 . S
C319 C318 1.367 . S
C319 C327 1.433 . S
C320 H316 0.929 . S
C320 C322 1.378 . S
C320 C324 1.350 . S
C321 C324 1.463 . S
C321 C326 1.350 . S
C321 N329 1.427 . S
C322 H313 0.930 . S
C322 C320 1.378 . S
C322 C323 1.367 . S
C323 C322 1.367 . S
C323 C325 1.433 . S
C324 C320 1.350 . S
C324 C321 1.463 . S
C324 N328 1.427 . S
C325 H315 0.929 . S
C325 C323 1.433 . S
C325 N328 1.384 . S
C326 H317 0.929 . S
C326 C318 1.378 . S
C326 C321 1.350 . S
C327 H314 0.929 . S
C327 C319 1.433 . S
C327 N329 1.384 . S
N328 C324 1.427 . S
N328 C325 1.384 . S
N329 C321 1.427 . S
N329 C327 1.384 . S
H330 C336 0.930 . S
H331 C340 0.930 . S
H332 C345 0.929 . S
H333 C343 0.929 . S
H334 C338 0.929 . S
H335 C344 0.929 . S
C336 H330 0.930 . S
C336 C337 1.367 . S
C336 C344 1.378 . S
C337 C336 1.367 . S
C337 C345 1.433 . S
C338 H334 0.929 . S
C338 C340 1.378 . S
C338 C342 1.350 . S
C339 C342 1.463 . S
C339 C344 1.350 . S
C339 N347 1.427 . S
C340 H331 0.930 . S
C340 C338 1.378 . S
C340 C341 1.367 . S
C341 C340 1.367 . S
C341 C343 1.433 . S
C342 C338 1.350 . S
C342 C339 1.463 . S
C342 N346 1.427 . S
C343 H333 0.929 . S
C343 C341 1.433 . S
C343 N346 1.384 . S
C344 H335 0.929 . S
C344 C336 1.378 . S
C344 C339 1.350 . S
C345 H332 0.929 . S
C345 C337 1.433 . S
C345 N347 1.384 . S
N346 C342 1.427 . S
N346 C343 1.384 . S
N347 C339 1.427 . S
N347 C345 1.384 . S
H348 C354 0.930 . S
H349 C358 0.930 . S
H350 C363 0.929 . S
H351 C361 0.929 . S
H352 C356 0.929 . S
H353 C362 0.929 . S
C354 H348 0.930 . S
C354 C355 1.367 . S
C354 C362 1.378 . S
C355 C354 1.367 . S
C355 C363 1.433 . S
C356 H352 0.929 . S
C356 C358 1.378 . S
C356 C360 1.350 1_556 S
C357 C360 1.463 . S
C357 C362 1.350 . S
C357 N365 1.427 . S
C358 H349 0.930 . S
C358 C356 1.378 . S
C358 C359 1.367 . S
C359 C358 1.367 . S
C359 C361 1.433 . S
C360 C356 1.350 1_554 S
C360 C357 1.463 . S
C360 N364 1.427 1_554 S
C361 H351 0.929 . S
C361 C359 1.433 . S
C361 N364 1.384 . S
C362 H353 0.929 . S
C362 C354 1.378 . S
C362 C357 1.350 . S
C363 H350 0.929 . S
C363 C355 1.433 . S
C363 N365 1.384 . S
N364 C360 1.427 1_556 S
N364 C361 1.384 . S
N365 C357 1.427 . S
N365 C363 1.384 . S
H366 C372 0.930 . S
H367 C376 0.930 1_565 S
H368 C381 0.929 . S
H369 C379 0.929 . S
H370 C374 0.929 1_565 S
H371 C380 0.929 . S
C372 H366 0.930 . S
C372 C373 1.367 . S
C372 C380 1.378 . S
C373 C372 1.367 . S
C373 C381 1.433 1_545 S
C374 H370 0.929 1_545 S
C374 C376 1.378 . S
C374 C378 1.350 . S
C375 C378 1.463 . S
C375 C380 1.350 . S
C375 N383 1.427 1_545 S
C376 H367 0.930 1_545 S
C376 C374 1.378 . S
C376 C377 1.367 . S
C377 C376 1.367 . S
C377 C379 1.433 . S
C378 C374 1.350 . S
C378 C375 1.463 . S
C378 N382 1.427 . S
C379 H369 0.929 . S
C379 C377 1.433 . S
C379 N382 1.384 . S
C380 H371 0.929 . S
C380 C372 1.378 . S
C380 C375 1.350 . S
C381 H368 0.929 . S
C381 C373 1.433 1_565 S
C381 N383 1.384 . S
N382 C378 1.427 . S
N382 C379 1.384 . S
N383 C375 1.427 1_565 S
N383 C381 1.384 . S
H384 C390 0.930 . S
H385 C394 0.930 . S
H386 C399 0.929 . S
H387 C397 0.929 . S
H388 C392 0.929 . S
H389 C398 0.929 . S
C390 H384 0.930 . S
C390 C391 1.367 . S
C390 C398 1.378 . S
C391 C390 1.367 . S
C391 C399 1.433 . S
C392 H388 0.929 . S
C392 C394 1.378 . S
C392 C396 1.350 . S
C393 C396 1.463 . S
C393 C398 1.350 . S
C393 N401 1.427 . S
C394 H385 0.930 . S
C394 C392 1.378 . S
C394 C395 1.367 . S
C395 C394 1.367 . S
C395 C397 1.433 . S
C396 C392 1.350 . S
C396 C393 1.463 . S
C396 N400 1.427 . S
C397 H387 0.929 . S
C397 C395 1.433 . S
C397 N400 1.384 . S
C398 H389 0.929 . S
C398 C390 1.378 . S
C398 C393 1.350 . S
C399 H386 0.929 . S
C399 C391 1.433 . S
C399 N401 1.384 . S
N400 C396 1.427 . S
N400 C397 1.384 . S
N401 C393 1.427 . S
N401 C399 1.384 . S
H402 C408 0.928 . S
H403 C412 0.930 . S
H404 C417 0.929 . S
H405 C415 0.929 1_565 S
H406 C410 0.929 . S
H407 C416 0.927 1_565 S
C408 H402 0.928 . S
C408 C409 1.369 1_565 S
C408 C416 1.378 1_565 S
C409 C408 1.369 1_545 S
C409 C417 1.433 . S
C410 H406 0.929 . S
C410 C412 1.378 . S
C410 C414 1.350 . S
C411 C414 1.463 . S
C411 C416 1.351 . S
C411 N419 1.427 . S
C412 H403 0.930 . S
C412 C410 1.378 . S
C412 C413 1.367 . S
C413 C412 1.367 . S
C413 C415 1.434 . S
C414 C410 1.350 . S
C414 C411 1.463 . S
C414 N418 1.437 . S
C415 H405 0.929 1_545 S
C415 C413 1.434 . S
C415 N418 1.382 . S
C416 H407 0.927 1_545 S
C416 C408 1.378 1_545 S
C416 C411 1.351 . S
C417 H404 0.929 . S
C417 C409 1.433 . S
C417 N419 1.384 . S
N418 C414 1.437 . S
N418 C415 1.382 . S
N419 C411 1.427 . S
N419 C417 1.384 . S
H420 C426 0.930 . S
H421 C430 0.930 . S
H422 C435 0.929 . S
H423 C433 0.929 . S
H424 C428 0.929 . S
H425 C434 0.929 . S
C426 H420 0.930 . S
C426 C427 1.367 . S
C426 C434 1.378 . S
C427 C426 1.367 . S
C427 C435 1.433 . S
C428 H424 0.929 . S
C428 C430 1.378 . S
C428 C432 1.350 1_554 S
C429 C432 1.463 . S
C429 C434 1.350 . S
C429 N437 1.427 . S
C430 H421 0.930 . S
C430 C428 1.378 . S
C430 C431 1.367 . S
C431 C430 1.367 . S
C431 C433 1.433 . S
C432 C428 1.350 1_556 S
C432 C429 1.463 . S
C432 N436 1.427 1_556 S
C433 H423 0.929 . S
C433 C431 1.433 . S
C433 N436 1.384 . S
C434 H425 0.929 . S
C434 C426 1.378 . S
C434 C429 1.350 . S
C435 H422 0.929 . S
C435 C427 1.433 . S
C435 N437 1.384 . S
N436 C432 1.427 1_554 S
N436 C433 1.384 . S
N437 C429 1.427 . S
N437 C435 1.384 . S
H438 C444 0.930 . S
H439 C448 0.930 . S
H440 C453 0.929 . S
H441 C451 0.929 . S
H442 C446 0.929 . S
H443 C452 0.929 . S
C444 H438 0.930 . S
C444 C445 1.367 . S
C444 C452 1.378 . S
C445 C444 1.367 . S
C445 C453 1.433 . S
C446 H442 0.929 . S
C446 C448 1.378 . S
C446 C450 1.350 . S
C447 C450 1.463 . S
C447 C452 1.350 . S
C447 N455 1.427 . S
C448 H439 0.930 . S
C448 C446 1.378 . S
C448 C449 1.367 . S
C449 C448 1.367 . S
C449 C451 1.433 . S
C450 C446 1.350 . S
C450 C447 1.463 . S
C450 N454 1.427 . S
C451 H441 0.929 . S
C451 C449 1.433 . S
C451 N454 1.384 . S
C452 H443 0.929 . S
C452 C444 1.378 . S
C452 C447 1.350 . S
C453 H440 0.929 . S
C453 C445 1.433 . S
C453 N455 1.384 . S
N454 C450 1.427 . S
N454 C451 1.384 . S
N455 C447 1.427 . S
N455 C453 1.384 . S
C139 C2 1.613 . S
C143 C126 1.701 . S
C157 C22 1.454 . S
C161 C100 1.498 . S
C175 C44 1.472 . S
C179 C112 1.526 . S
C193 C4 1.314 . S
C197 C124 1.359 . S
C215 C102 1.509 . S
C211 C24 1.440 . S
C233 C114 1.482 . S
C229 C42 1.401 . S
C247 C32 1.413 . S
C251 C76 1.377 . S
C265 C49 1.493 . S
C269 C90 1.518 . S
C283 C9 1.152 . S
C287 C66 1.161 . S
C305 C78 1.195 . S
C301 C29 1.139 . S
C323 C88 1.088 . S
C319 C52 1.089 . S
C337 C12 1.324 . S
C341 C64 1.319 . S
C359 C93 1.496 . S
C355 C18 1.479 . S
C373 C38 1.477 . S
C377 C69 1.470 . S
C391 C58 1.463 . S
C395 C81 1.497 . S
C413 C117 1.517 . S
C409 C39 1.508 . S
C431 C129 1.575 . S
C427 C59 1.561 . S
C445 C19 1.498 . S
C449 C105 1.519 . S
