# Generated by pormake.
# Topology pyr, (3,6)-cn, num edge types: 1
# Building blocks:
#     Node 0, Type 0, BuildingBlock: BETDAH_clean_linker_0, # of connection points: 3
#     Node 1, Type 0, BuildingBlock: BETDAH_clean_linker_0, # of connection points: 3
#     Node 2, Type 0, BuildingBlock: BETDAH_clean_linker_0, # of connection points: 3
#     Node 3, Type 0, BuildingBlock: BETDAH_clean_linker_0, # of connection points: 3
#     Node 4, Type 0, BuildingBlock: BETDAH_clean_linker_0, # of connection points: 3
#     Node 5, Type 0, BuildingBlock: BETDAH_clean_linker_0, # of connection points: 3
#     Node 6, Type 0, BuildingBlock: BETDAH_clean_linker_0, # of connection points: 3
#     Node 7, Type 0, BuildingBlock: BETDAH_clean_linker_0, # of connection points: 3
#     Node 8, Type 1, BuildingBlock: VOLQOD_clean_sbu_1, # of connection points: 6
#     Node 9, Type 1, BuildingBlock: VOLQOD_clean_sbu_1, # of connection points: 6
#     Node 10, Type 1, BuildingBlock: VOLQOD_clean_sbu_1, # of connection points: 6
#     Node 11, Type 1, BuildingBlock: VOLQOD_clean_sbu_1, # of connection points: 6
#     Edge 12, Type (0, 1), BuildingBlock: EZIPEK_clean_linker_0, # of connection points: 2
#     Edge 13, Type (0, 1), BuildingBlock: EZIPEK_clean_linker_0, # of connection points: 2
#     Edge 14, Type (0, 1), BuildingBlock: EZIPEK_clean_linker_0, # of connection points: 2
#     Edge 15, Type (0, 1), BuildingBlock: EZIPEK_clean_linker_0, # of connection points: 2
#     Edge 16, Type (0, 1), BuildingBlock: EZIPEK_clean_linker_0, # of connection points: 2
#     Edge 17, Type (0, 1), BuildingBlock: EZIPEK_clean_linker_0, # of connection points: 2
#     Edge 18, Type (0, 1), BuildingBlock: EZIPEK_clean_linker_0, # of connection points: 2
#     Edge 19, Type (0, 1), BuildingBlock: EZIPEK_clean_linker_0, # of connection points: 2
#     Edge 20, Type (0, 1), BuildingBlock: EZIPEK_clean_linker_0, # of connection points: 2
#     Edge 21, Type (0, 1), BuildingBlock: EZIPEK_clean_linker_0, # of connection points: 2
#     Edge 22, Type (0, 1), BuildingBlock: EZIPEK_clean_linker_0, # of connection points: 2
#     Edge 23, Type (0, 1), BuildingBlock: EZIPEK_clean_linker_0, # of connection points: 2
#     Edge 24, Type (0, 1), BuildingBlock: EZIPEK_clean_linker_0, # of connection points: 2
#     Edge 25, Type (0, 1), BuildingBlock: EZIPEK_clean_linker_0, # of connection points: 2
#     Edge 26, Type (0, 1), BuildingBlock: EZIPEK_clean_linker_0, # of connection points: 2
#     Edge 27, Type (0, 1), BuildingBlock: EZIPEK_clean_linker_0, # of connection points: 2
#     Edge 28, Type (0, 1), BuildingBlock: EZIPEK_clean_linker_0, # of connection points: 2
#     Edge 29, Type (0, 1), BuildingBlock: EZIPEK_clean_linker_0, # of connection points: 2
#     Edge 30, Type (0, 1), BuildingBlock: EZIPEK_clean_linker_0, # of connection points: 2
#     Edge 31, Type (0, 1), BuildingBlock: EZIPEK_clean_linker_0, # of connection points: 2
#     Edge 32, Type (0, 1), BuildingBlock: EZIPEK_clean_linker_0, # of connection points: 2
#     Edge 33, Type (0, 1), BuildingBlock: EZIPEK_clean_linker_0, # of connection points: 2
#     Edge 34, Type (0, 1), BuildingBlock: EZIPEK_clean_linker_0, # of connection points: 2
#     Edge 35, Type (0, 1), BuildingBlock: EZIPEK_clean_linker_0, # of connection points: 2
# Relax obj value: 0.110
# Max RMSD: 0.188
# Mean RMSD: 0.146
data_MOF--net-pry--node1-VOLQOD_clean_sbu_1--node2-BETDAH_clean_linker_0--edge1-EZIPEK_clean_linker_0
_symmetry_space_group_name_H-M    P1
_symmetry_Int_Tables_number       1
_symmetry_cell_setting            triclinic
loop_
_symmetry_equiv_pos_as_xyz
'x, y, z'
_cell_length_a     26.563495
_cell_length_b     26.962944
_cell_length_c     28.202938
_cell_angle_alpha  90.491563
_cell_angle_beta   91.05278
_cell_angle_gamma 96.431943
loop_
_atom_site_label
_atom_site_type_symbol
_atom_site_fract_x
_atom_site_fract_y
_atom_site_fract_z
_atom_type_partial_charge
H0 H 0.19309 0.08802 0.21358 0.0
H1 H 0.18059 0.15179 0.07526 0.0
H2 H 0.06341 0.16379 0.17658 0.0
C3 C 0.17265 0.1088 0.18834 0.0
C4 C 0.12585 0.12458 0.20058 0.0
C5 C 0.1927 0.11887 0.14333 0.0
C6 C 0.16569 0.14475 0.1104 0.0
C7 C 0.11978 0.16206 0.12248 0.0
C8 C 0.09979 0.15201 0.16769 0.0
N9 N 0.09229 0.18512 0.08694 0.0
C10 C 0.07475 0.23152 0.09231 0.0
H11 H 0.44264 0.85408 0.75012 0.0
H12 H 0.4167 0.00594 0.72235 0.0
H13 H 0.42136 0.9028 0.60646 0.0
C14 C 0.43477 0.8827 0.72516 0.0
C15 C 0.43224 0.87186 0.67601 0.0
C16 C 0.43065 0.93138 0.7419 0.0
C17 C 0.4201 0.96839 0.70974 0.0
C18 C 0.41486 0.95744 0.66122 0.0
C19 C 0.42259 0.90994 0.64436 0.0
N20 N 0.40476 0.99526 0.62915 0.0
C21 C 0.35628 0.99751 0.61058 0.0
H22 H 0.66356 0.36932 1.00198 0.0
H23 H 0.62457 0.50788 0.94525 0.0
H24 H 0.5088 0.38487 0.96299 0.0
C25 C 0.63523 0.39201 0.98877 0.0
C26 C 0.58454 0.3716 0.98433 0.0
C27 C 0.64957 0.44137 0.97542 0.0
C28 C 0.61326 0.47008 0.95677 0.0
C29 C 0.56236 0.44976 0.9525 0.0
C30 C 0.54792 0.4009 0.96725 0.0
N31 N 0.52609 0.47667 0.93012 0.0
C32 C 0.53499 0.49658 0.88547 0.0
H33 H 0.83751 0.71446 0.48046 0.0
H34 H 0.96258 0.66846 0.40264 0.0
H35 H 0.83502 0.56189 0.43439 0.0
C36 C 0.85552 0.68559 0.46251 0.0
C37 C 0.83116 0.63692 0.46002 0.0
C38 C 0.90329 0.69708 0.44252 0.0
C39 C 0.92584 0.65974 0.41852 0.0
C40 C 0.90091 0.611 0.4153 0.0
C41 C 0.85428 0.59947 0.43708 0.0
N42 N 0.92123 0.57355 0.38878 0.0
C43 C 0.93767 0.58242 0.34294 0.0
H44 H 0.96251 0.85661 0.82721 0.0
H45 H 0.90854 0.90601 0.9609 0.0
H46 H 0.91735 0.00435 0.84163 0.0
C47 C 0.94745 0.88494 0.84853 0.0
C48 C 0.9405 0.93138 0.8285 0.0
C49 C 0.93569 0.87546 0.89638 0.0
C50 C 0.91629 0.91254 0.92377 0.0
C51 C 0.90911 0.95879 0.90384 0.0
C52 C 0.92185 0.96816 0.85657 0.0
N53 N 0.89384 0.99802 0.93194 0.0
C54 C 0.84724 0.99534 0.95403 0.0
H55 H 0.69284 0.08997 0.36627 0.0
H56 H 0.67335 0.14482 0.50761 0.0
H57 H 0.55575 0.15239 0.40188 0.0
C58 C 0.67039 0.10776 0.39175 0.0
C59 C 0.62228 0.12035 0.37835 0.0
C60 C 0.68911 0.11681 0.43817 0.0
C61 C 0.65952 0.13879 0.47139 0.0
C62 C 0.61195 0.1527 0.45823 0.0
C63 C 0.5933 0.14342 0.41164 0.0
N64 N 0.58107 0.17053 0.49359 0.0
C65 C 0.56755 0.21891 0.49438 0.0
H66 H 0.34401 0.716 0.09598 0.0
H67 H 0.3367 0.56628 0.14857 0.0
H68 H 0.4725 0.66739 0.17012 0.0
C69 C 0.36178 0.68715 0.11437 0.0
C70 C 0.41147 0.69723 0.13225 0.0
C71 C 0.33503 0.63996 0.11965 0.0
C72 C 0.35766 0.60267 0.14366 0.0
C73 C 0.40679 0.61285 0.16268 0.0
C74 C 0.43406 0.65988 0.15634 0.0
N75 N 0.42802 0.57595 0.1892 0.0
C76 C 0.43442 0.58149 0.23793 0.0
H77 H 0.15979 0.37039 0.56775 0.0
H78 H 0.12897 0.50135 0.64582 0.0
H79 H 0.0081 0.38698 0.60999 0.0
C80 C 0.13329 0.39268 0.58429 0.0
C81 C 0.08253 0.37312 0.58778 0.0
C82 C 0.15071 0.43901 0.60517 0.0
C83 C 0.11598 0.46614 0.62837 0.0
C84 C 0.06418 0.44845 0.62797 0.0
C85 C 0.04754 0.40204 0.60748 0.0
N86 N 0.02876 0.47547 0.6506 0.0
C87 C 0.03595 0.49006 0.69764 0.0
O88 O 0.00581 0.13618 0.56585 0.0
Zn89 Zn 0.97669 0.06485 0.55604 0.0
O90 O 0.01912 0.03195 0.51192 0.0
Zn91 Zn 0.97899 0.01095 0.45463 0.0
Zn92 Zn 0.07823 0.07687 0.49325 0.0
Zn93 Zn 0.04319 0.97482 0.54395 0.0
O94 O 0.96713 0.93561 0.45219 0.0
O95 O 0.01961 0.91208 0.50813 0.0
O96 O 0.90661 0.06891 0.52824 0.0
O97 O 0.91049 0.03716 0.45549 0.0
O98 O 0.01376 0.03713 0.39447 0.0
O99 O 0.08352 0.08208 0.42217 0.0
O100 O 0.14365 0.05545 0.51995 0.0
O101 O 0.97046 0.03024 0.61992 0.0
O102 O 0.11917 0.9819 0.5521 0.0
O103 O 0.01519 0.96615 0.60999 0.0
C104 C 0.04213 0.16316 0.54673 0.0
C105 C 0.9872 0.90173 0.47467 0.0
C106 C 0.05497 0.06505 0.38764 0.0
C107 C 0.8868 0.05819 0.48745 0.0
C108 C 0.15372 0.01652 0.54187 0.0
C109 C 0.9877 0.99107 0.63544 0.0
O110 O 0.07181 0.1456 0.51769 0.0
O111 O 0.50277 0.13645 0.00866 0.0
Zn112 Zn 0.47194 0.06581 0.01894 0.0
O113 O 0.51697 0.0318 0.06076 0.0
Zn114 Zn 0.53953 0.97553 0.02599 0.0
Zn115 Zn 0.57713 0.0764 0.08091 0.0
Zn116 Zn 0.47962 0.00848 0.11715 0.0
O117 O 0.51986 0.91166 0.05992 0.0
O118 O 0.47063 0.93329 0.11794 0.0
O119 O 0.45989 0.03075 0.95476 0.0
O120 O 0.50762 0.96829 0.9605 0.0
O121 O 0.61477 0.98341 0.01651 0.0
O122 O 0.64188 0.05377 0.05514 0.0
O123 O 0.58349 0.08245 0.15239 0.0
O124 O 0.4043 0.07153 0.04945 0.0
O125 O 0.51582 0.03471 0.17774 0.0
O126 O 0.41047 0.0328 0.11829 0.0
C127 C 0.54113 0.1628 0.02698 0.0
C128 C 0.49025 0.90024 0.09408 0.0
C129 C 0.6504 0.01632 0.02982 0.0
C130 C 0.47709 0.99244 0.93721 0.0
C131 C 0.55615 0.06401 0.18597 0.0
C132 C 0.38595 0.05715 0.08907 0.0
O133 O 0.57157 0.14499 0.05591 0.0
O134 O 0.55202 0.57584 0.66607 0.0
Zn135 Zn 0.54493 0.59852 0.59832 0.0
O136 O 0.49815 0.54999 0.56255 0.0
Zn137 Zn 0.53081 0.52668 0.50694 0.0
Zn138 Zn 0.47546 0.49233 0.60133 0.0
Zn139 Zn 0.44026 0.58358 0.54256 0.0
O140 O 0.49646 0.54612 0.44746 0.0
O141 O 0.44005 0.5956 0.47163 0.0
O142 O 0.61381 0.60733 0.56865 0.0
O143 O 0.60229 0.55815 0.5046 0.0
O144 O 0.53292 0.45239 0.50638 0.0
O145 O 0.49689 0.42751 0.57393 0.0
O146 O 0.39929 0.48553 0.60731 0.0
O147 O 0.51857 0.66607 0.60264 0.0
O148 O 0.3758 0.54093 0.55615 0.0
O149 O 0.43851 0.64874 0.57928 0.0
C150 C 0.53315 0.53712 0.68785 0.0
C151 C 0.46288 0.57504 0.43869 0.0
C152 C 0.51894 0.41809 0.53557 0.0
C153 C 0.63017 0.58864 0.5311 0.0
C154 C 0.36477 0.50563 0.5851 0.0
C155 C 0.47383 0.67852 0.59859 0.0
O156 O 0.50421 0.50244 0.66719 0.0
O157 O 0.95547 0.54215 0.12568 0.0
Zn158 Zn 0.95537 0.51242 0.06072 0.0
O159 O 0.99642 0.55771 0.01915 0.0
Zn160 Zn 0.95603 0.57315 0.96385 0.0
Zn161 Zn 0.01948 0.6211 0.05215 0.0
Zn162 Zn 0.05419 0.52356 0.99956 0.0
O163 O 0.98617 0.54921 0.90471 0.0
O164 O 0.05707 0.51884 0.92828 0.0
O165 O 0.88343 0.50032 0.03649 0.0
O166 O 0.88438 0.54087 0.96798 0.0
O167 O 0.95356 0.64705 0.95597 0.0
O168 O 0.99791 0.68194 0.01753 0.0
O169 O 0.09558 0.62884 0.05895 0.0
O170 O 0.98218 0.44545 0.06842 0.0
O171 O 0.11877 0.56007 0.02537 0.0
O172 O 0.05176 0.45357 0.02553 0.0
C173 C 0.9713 0.5845 0.14378 0.0
C174 C 0.02636 0.52962 0.89574 0.0
C175 C 0.97189 0.68557 0.97947 0.0
C176 C 0.86121 0.51356 0.99908 0.0
C177 C 0.12941 0.60102 0.04802 0.0
C178 C 0.02115 0.42797 0.05245 0.0
O179 O 0.99463 0.61935 0.11969 0.0
C180 C 0.10125 0.14634 0.28367 0.0
C181 C 0.10353 0.11001 0.24733 0.0
C182 C 0.0749 0.0436 0.30309 0.0
C183 C 0.06938 0.0802 0.33857 0.0
N184 N 0.06541 0.16691 0.35874 0.0
N185 N 0.08174 0.02546 0.21924 0.0
C186 C 0.07911 0.13178 0.32772 0.0
C187 C 0.08697 0.05903 0.25609 0.0
N188 N 0.12194 0.19442 0.27687 0.0
N189 N 0.07122 0.99421 0.31468 0.0
H190 H 0.08973 0.03545 0.18429 0.0
H191 H 0.06492 0.98889 0.22256 0.0
H192 H 0.06354 0.9813 0.34881 0.0
H193 H 0.08037 0.96643 0.29152 0.0
H194 H 0.12655 0.22117 0.30394 0.0
H195 H 0.13846 0.20663 0.24516 0.0
H196 H 0.06691 0.20467 0.35068 0.0
H197 H 0.04757 0.15782 0.39065 0.0
C198 C 0.49246 0.96444 0.80604 0.0
C199 C 0.44221 0.94534 0.79251 0.0
C200 C 0.41491 0.95483 0.87463 0.0
C201 C 0.46432 0.97727 0.88727 0.0
N202 N 0.54809 0.01085 0.86402 0.0
N203 N 0.35414 0.92728 0.81168 0.0
C204 C 0.50261 0.98395 0.85271 0.0
C205 C 0.40296 0.94191 0.82622 0.0
N206 N 0.53072 0.96322 0.77438 0.0
N207 N 0.38001 0.94428 0.9092 0.0
H208 H 0.3444 0.91604 0.7769 0.0
H209 H 0.32292 0.92925 0.8331 0.0
H210 H 0.38734 0.95367 0.94482 0.0
H211 H 0.34517 0.92314 0.90337 0.0
H212 H 0.56895 0.97088 0.7836 0.0
H213 H 0.52468 0.95092 0.73937 0.0
H214 H 0.57552 0.02195 0.83921 0.0
H215 H 0.55694 0.02598 0.89771 0.0
C216 C 0.56786 0.48269 0.80537 0.0
C217 C 0.54262 0.51238 0.83693 0.0
C218 C 0.51686 0.56297 0.77118 0.0
C219 C 0.54189 0.53317 0.73944 0.0
N220 N 0.60054 0.47283 0.72636 0.0
N221 N 0.50434 0.58742 0.85281 0.0
C222 C 0.57047 0.49558 0.75665 0.0
C223 C 0.52097 0.55489 0.82074 0.0
N224 N 0.58771 0.44123 0.82166 0.0
N225 N 0.48663 0.59675 0.75385 0.0
H226 H 0.50652 0.58206 0.88937 0.0
H227 H 0.49268 0.6217 0.84355 0.0
H228 H 0.48228 0.60353 0.71775 0.0
H229 H 0.4629 0.6155 0.77485 0.0
H230 H 0.60126 0.41474 0.79964 0.0
H231 H 0.58824 0.43171 0.85739 0.0
H232 H 0.62604 0.44841 0.73729 0.0
H233 H 0.60324 0.48183 0.6905 0.0
C234 C 0.92201 0.61805 0.26417 0.0
C235 C 0.95092 0.58912 0.29367 0.0
C236 C 0.99988 0.56646 0.22576 0.0
C237 C 0.96721 0.59068 0.1955 0.0
N238 N 0.89629 0.63787 0.18402 0.0
N239 N 0.01648 0.53512 0.30433 0.0
C240 C 0.92841 0.61667 0.21422 0.0
C241 C 0.99006 0.56359 0.27506 0.0
N242 N 0.88858 0.64685 0.28405 0.0
N243 N 0.04053 0.54662 0.20717 0.0
H244 H 0.01169 0.53393 0.34096 0.0
H245 H 0.04136 0.51077 0.29244 0.0
H246 H 0.04775 0.54644 0.17096 0.0
H247 H 0.06907 0.53329 0.22752 0.0
H248 H 0.87004 0.67276 0.26536 0.0
H249 H 0.88184 0.64736 0.32033 0.0
H250 H 0.8636 0.65243 0.19469 0.0
H251 H 0.90083 0.63855 0.14735 0.0
C252 C 0.28793 0.13047 0.14592 0.0
C253 C 0.24225 0.10218 0.13034 0.0
C254 C 0.29075 0.04608 0.08509 0.0
C255 C 0.3364 0.07241 0.10319 0.0
N256 N 0.37944 0.13587 0.15494 0.0
N257 N 0.19931 0.0293 0.09104 0.0
C258 C 0.33524 0.11343 0.13495 0.0
C259 C 0.24341 0.05892 0.10148 0.0
N260 N 0.28605 0.17465 0.16969 0.0
N261 N 0.29273 0.00923 0.05178 0.0
H262 H 0.164 0.03772 0.10226 0.0
H263 H 0.19783 0.99453 0.07446 0.0
H264 H 0.3267 0.99762 0.04033 0.0
H265 H 0.2611 0.99234 0.03315 0.0
H266 H 0.31774 0.19997 0.1773 0.0
H267 H 0.25215 0.18803 0.17892 0.0
H268 H 0.38088 0.16186 0.18256 0.0
H269 H 0.41506 0.12624 0.14604 0.0
C270 C 0.28232 0.04568 0.6043 0.0
C271 C 0.30556 0.00255 0.59237 0.0
C272 C 0.2317 0.97149 0.54283 0.0
C273 C 0.20652 0.01237 0.55823 0.0
N274 N 0.20415 0.08353 0.61046 0.0
N275 N 0.30086 0.9211 0.55568 0.0
C276 C 0.2309 0.04836 0.59066 0.0
C277 C 0.27979 0.96442 0.56321 0.0
N278 N 0.30959 0.08442 0.6282 0.0
N279 N 0.21056 0.9406 0.50737 0.0
H280 H 0.33661 0.91528 0.56897 0.0
H281 H 0.28155 0.88961 0.53931 0.0
H282 H 0.17583 0.94511 0.49105 0.0
H283 H 0.22931 0.91329 0.49117 0.0
H284 H 0.29665 0.11913 0.63314 0.0
H285 H 0.34693 0.08329 0.63992 0.0
H286 H 0.21819 0.10717 0.63818 0.0
H287 H 0.16611 0.08624 0.60236 0.0
C288 C 0.71985 0.49208 0.02025 0.0
C289 C 0.70329 0.4624 0.98 0.0
C290 C 0.79057 0.46465 0.95307 0.0
C291 C 0.80677 0.49694 0.99173 0.0
N292 N 0.78646 0.54934 0.05685 0.0
N293 N 0.72033 0.42739 0.9038 0.0
C294 C 0.77129 0.51292 0.02391 0.0
C295 C 0.73792 0.45085 0.94502 0.0
N296 N 0.68674 0.49912 0.05561 0.0
N297 N 0.82555 0.44531 0.92543 0.0
H298 H 0.68199 0.41614 0.897 0.0
H299 H 0.74308 0.42275 0.87479 0.0
H300 H 0.86454 0.45412 0.93044 0.0
H301 H 0.81623 0.41732 0.90009 0.0
H302 H 0.69786 0.51545 0.08828 0.0
H303 H 0.64845 0.48531 0.05373 0.0
H304 H 0.76141 0.56632 0.07794 0.0
H305 H 0.82378 0.56591 0.06029 0.0
C306 C 0.77386 0.60347 0.52468 0.0
C307 C 0.77996 0.6259 0.47954 0.0
C308 C 0.689 0.63208 0.47337 0.0
C309 C 0.68215 0.60453 0.51579 0.0
N310 N 0.71644 0.55894 0.57969 0.0
N311 N 0.74363 0.65596 0.4077 0.0
C312 C 0.72417 0.58907 0.54114 0.0
C313 C 0.7376 0.63876 0.45297 0.0
N314 N 0.81554 0.59688 0.55207 0.0
N315 N 0.64928 0.65322 0.4535 0.0
H316 H 0.7788 0.66186 0.39158 0.0
H317 H 0.71343 0.66059 0.38471 0.0
H318 H 0.61338 0.65005 0.46831 0.0
H319 H 0.65296 0.67781 0.42519 0.0
H320 H 0.81361 0.58567 0.58728 0.0
H321 H 0.85252 0.60636 0.54075 0.0
H322 H 0.74507 0.54178 0.59641 0.0
H323 H 0.68058 0.5481 0.59307 0.0
C324 C 0.0925 0.3237 0.10113 0.0
C325 C 0.05824 0.28115 0.0891 0.0
C326 C 0.99869 0.33459 0.05419 0.0
C327 C 0.03247 0.37742 0.06706 0.0
N328 N 0.10568 0.41363 0.11224 0.0
N329 N 0.97478 0.24564 0.06395 0.0
C330 C 0.07774 0.37222 0.09334 0.0
C331 C 0.00995 0.28653 0.06887 0.0
N332 N 0.13967 0.31771 0.11886 0.0
N333 N 0.95729 0.33952 0.0258 0.0
H334 H 0.98212 0.20998 0.07414 0.0
H335 H 0.93717 0.24763 0.05386 0.0
H336 H 0.94798 0.37391 0.01391 0.0
H337 H 0.93435 0.30938 0.01083 0.0
H338 H 0.16868 0.34686 0.12291 0.0
H339 H 0.15081 0.28283 0.1271 0.0
H340 H 0.13619 0.41211 0.13568 0.0
H341 H 0.09561 0.44966 0.10798 0.0
C342 C 0.57452 0.28212 0.9584 0.0
C343 C 0.57064 0.31822 0.99468 0.0
C344 C 0.54174 0.25237 0.05033 0.0
C345 C 0.55002 0.21619 0.01534 0.0
N346 N 0.57995 0.19524 0.93833 0.0
N347 N 0.55597 0.33896 0.07618 0.0
C348 C 0.56768 0.23063 0.96983 0.0
C349 C 0.55566 0.30371 0.04097 0.0
N350 N 0.58411 0.29716 0.91293 0.0
N351 N 0.51912 0.23763 0.09188 0.0
H352 H 0.56442 0.3771 0.07021 0.0
H353 H 0.55118 0.3304 0.11184 0.0
H354 H 0.50847 0.20028 0.09998 0.0
H355 H 0.50717 0.2623 0.11676 0.0
H356 H 0.58186 0.27284 0.88392 0.0
H357 H 0.59074 0.3346 0.90342 0.0
H358 H 0.59845 0.20362 0.90669 0.0
H359 H 0.57511 0.15709 0.94537 0.0
C360 C 0.9414 0.76569 0.49611 0.0
C361 C 0.92999 0.74803 0.44928 0.0
C362 C 0.96492 0.82909 0.41848 0.0
C363 C 0.96853 0.84867 0.46546 0.0
N364 N 0.94718 0.83735 0.54821 0.0
N365 N 0.92342 0.76539 0.36562 0.0
C366 C 0.95344 0.81746 0.50421 0.0
C367 C 0.93986 0.7803 0.41021 0.0
N368 N 0.94114 0.73297 0.53288 0.0
N369 N 0.98658 0.85632 0.38203 0.0
H370 H 0.90392 0.73038 0.35825 0.0
H371 H 0.92509 0.78936 0.33677 0.0
H372 H 0.0066 0.89159 0.38695 0.0
H373 H 0.98909 0.84184 0.34789 0.0
H374 H 0.95367 0.7438 0.56706 0.0
H375 H 0.93368 0.69439 0.52814 0.0
H376 H 0.93167 0.81622 0.57624 0.0
H377 H 0.95149 0.87559 0.55541 0.0
C378 C 0.48555 0.79942 0.67207 0.0
C379 C 0.44193 0.82156 0.65718 0.0
C380 C 0.424 0.75415 0.59819 0.0
C381 C 0.46245 0.72779 0.61872 0.0
N382 N 0.51755 0.72113 0.6877 0.0
N383 N 0.36153 0.81032 0.61447 0.0
C384 C 0.48973 0.74907 0.65936 0.0
C385 C 0.40854 0.79595 0.62284 0.0
N386 N 0.52421 0.82653 0.69658 0.0
N387 N 0.40397 0.7416 0.55421 0.0
H388 H 0.34743 0.83867 0.63386 0.0
H389 H 0.33471 0.79014 0.59224 0.0
H390 H 0.41761 0.71496 0.53239 0.0
H391 H 0.37854 0.7625 0.537 0.0
H392 H 0.5582 0.81228 0.70478 0.0
H393 H 0.52495 0.86466 0.70337 0.0
H394 H 0.5348 0.73505 0.71935 0.0
H395 H 0.51755 0.68274 0.68353 0.0
C396 C 0.00324 0.96517 0.76768 0.0
C397 C 0.95383 0.9428 0.77829 0.0
C398 C 0.92622 0.95307 0.69553 0.0
C399 C 0.97606 0.97414 0.68456 0.0
N400 N 0.0637 0.99527 0.70797 0.0
N401 N 0.87018 0.90875 0.75222 0.0
C402 C 0.01513 0.97848 0.72 0.0
C403 C 0.91585 0.93482 0.7421 0.0
N404 N 0.03827 0.97525 0.80364 0.0
N405 N 0.88872 0.95097 0.66143 0.0
H406 H 0.86117 0.89556 0.78603 0.0
H407 H 0.84243 0.89697 0.72682 0.0
H408 H 0.8954 0.9612 0.62632 0.0
H409 H 0.85047 0.94161 0.66811 0.0
H410 H 0.07292 0.99681 0.79977 0.0
H411 H 0.0316 0.96431 0.83857 0.0
H412 H 0.09504 0.99372 0.73036 0.0
H413 H 0.07345 0.00848 0.67434 0.0
C414 C 0.59743 0.14371 0.29534 0.0
C415 C 0.60164 0.10643 0.32992 0.0
C416 C 0.57859 0.04115 0.26962 0.0
C417 C 0.57083 0.07842 0.23582 0.0
N418 N 0.56156 0.16476 0.2195 0.0
N419 N 0.58565 0.02016 0.3527 0.0
C420 C 0.57704 0.12965 0.24952 0.0
C421 C 0.58894 0.05525 0.31785 0.0
N422 N 0.61452 0.19239 0.30566 0.0
N423 N 0.57851 0.99254 0.25535 0.0
H424 H 0.59241 0.02913 0.38848 0.0
H425 H 0.57152 0.98297 0.34677 0.0
H426 H 0.57225 0.98073 0.22022 0.0
H427 H 0.58933 0.96469 0.27745 0.0
H428 H 0.61775 0.22032 0.28025 0.0
H429 H 0.62945 0.20424 0.33884 0.0
H430 H 0.5603 0.20189 0.22943 0.0
H431 H 0.54514 0.15594 0.18617 0.0
C432 C 0.48032 0.61468 0.3107 0.0
C433 C 0.43826 0.58551 0.28918 0.0
C434 C 0.40564 0.56067 0.36727 0.0
C435 C 0.45095 0.5846 0.38842 0.0
N436 N 0.53124 0.63509 0.38205 0.0
N437 N 0.36052 0.53074 0.29498 0.0
C438 C 0.48807 0.61222 0.36061 0.0
C439 C 0.40043 0.55898 0.31694 0.0
N440 N 0.51234 0.64518 0.28338 0.0
N441 N 0.3679 0.53935 0.39538 0.0
H442 H 0.35452 0.53021 0.2583 0.0
H443 H 0.33457 0.50591 0.31247 0.0
H444 H 0.37118 0.5384 0.43225 0.0
H445 H 0.33195 0.52555 0.38282 0.0
H446 H 0.54094 0.67117 0.29704 0.0
H447 H 0.50811 0.647 0.24662 0.0
H448 H 0.5628 0.65051 0.36378 0.0
H449 H 0.53625 0.63714 0.41881 0.0
C450 C 0.0454 0.55047 0.76465 0.0
C451 C 0.04117 0.50051 0.74793 0.0
C452 C 0.03275 0.46923 0.82883 0.0
C453 C 0.03703 0.51925 0.84576 0.0
N454 N 0.05865 0.60711 0.83224 0.0
N455 N 0.04306 0.4129 0.76307 0.0
C456 C 0.04687 0.55985 0.81433 0.0
C457 C 0.03894 0.46003 0.77977 0.0
N458 N 0.04657 0.58874 0.73303 0.0
N459 N 0.01994 0.4307 0.85912 0.0
H460 H 0.04715 0.40484 0.72718 0.0
H461 H 0.04683 0.38258 0.78496 0.0
H462 H 0.01546 0.43582 0.89543 0.0
H463 H 0.01025 0.39393 0.84791 0.0
H464 H 0.04379 0.62565 0.74272 0.0
H465 H 0.04766 0.58312 0.69641 0.0
H466 H 0.07083 0.63781 0.81163 0.0
H467 H 0.06049 0.615 0.86857 0.0
C468 C 0.77139 0.96033 0.99872 0.0
C469 C 0.79846 1.00077 0.97502 0.0
C470 C 0.72787 0.0509 0.98569 0.0
C471 C 0.70245 0.01201 0.01293 0.0
N472 N 0.70424 0.93354 0.05308 0.0
N473 N 0.80718 0.08766 0.95338 0.0
C474 C 0.7254 0.96771 0.02159 0.0
C475 C 0.7782 0.04706 0.97096 0.0
N476 N 0.789 0.91463 0.99855 0.0
N477 N 0.70301 0.09011 0.97134 0.0
H478 H 0.84382 0.08619 0.94115 0.0
H479 H 0.79656 0.12367 0.95464 0.0
H480 H 0.66559 0.09383 0.97984 0.0
H481 H 0.71776 0.11655 0.94709 0.0
H482 H 0.7682 0.88232 0.01065 0.0
H483 H 0.8229 0.90823 0.98282 0.0
H484 H 0.72177 0.90297 0.06446 0.0
H485 H 0.67133 0.93827 0.0714 0.0
C486 C 0.78253 0.13838 0.45364 0.0
C487 C 0.73956 0.10199 0.45222 0.0
C488 C 0.79344 0.03637 0.47188 0.0
C489 C 0.83594 0.07319 0.47597 0.0
N490 N 0.87109 0.15972 0.47586 0.0
N491 N 0.70186 0.01801 0.46608 0.0
C492 C 0.83044 0.12441 0.46855 0.0
C493 C 0.74441 0.05137 0.46297 0.0
N494 N 0.77777 0.1859 0.43897 0.0
N495 N 0.80011 0.98702 0.47608 0.0
H496 H 0.66544 0.02758 0.45937 0.0
H497 H 0.70197 0.98186 0.47866 0.0
H498 H 0.83491 0.97479 0.48504 0.0
H499 H 0.77205 0.95791 0.46801 0.0
H500 H 0.80834 0.21287 0.43385 0.0
H501 H 0.74319 0.19769 0.42856 0.0
H502 H 0.86843 0.19793 0.47672 0.0
H503 H 0.9075 0.15095 0.48395 0.0
C504 C 0.24173 0.63158 0.13281 0.0
C505 C 0.28237 0.63049 0.10117 0.0
C506 C 0.22253 0.61827 0.03389 0.0
C507 C 0.18188 0.6139 0.06606 0.0
N508 N 0.15305 0.60722 0.14691 0.0
N509 N 0.31263 0.6167 0.02259 0.0
C510 C 0.19146 0.61833 0.11577 0.0
C511 C 0.27313 0.62214 0.0519 0.0
N512 N 0.25107 0.64636 0.17895 0.0
N513 N 0.21274 0.62049 0.98623 0.0
H514 H 0.35026 0.61976 0.03454 0.0
H515 H 0.30787 0.60521 0.9873 0.0
H516 H 0.17609 0.61874 0.97189 0.0
H517 H 0.24078 0.62866 0.96127 0.0
H518 H 0.22262 0.65346 0.20217 0.0
H519 H 0.28752 0.65572 0.19305 0.0
H520 H 0.15894 0.60424 0.18334 0.0
H521 H 0.11569 0.59642 0.13623 0.0
C522 C 0.22204 0.50633 0.58774 0.0
C523 C 0.20568 0.45763 0.60394 0.0
C524 C 0.2934 0.43829 0.60365 0.0
C525 C 0.31034 0.489 0.59381 0.0
N526 N 0.28881 0.57422 0.59471 0.0
N527 N 0.22936 0.38383 0.64301 0.0
C528 C 0.27415 0.52409 0.59138 0.0
C529 C 0.24249 0.42564 0.61704 0.0
N530 N 0.18882 0.53504 0.56691 0.0
N531 N 0.32417 0.40149 0.59758 0.0
H532 H 0.19303 0.37495 0.65614 0.0
H533 H 0.25608 0.36159 0.65604 0.0
H534 H 0.36001 0.4076 0.58295 0.0
H535 H 0.31123 0.36377 0.60124 0.0
H536 H 0.20066 0.56927 0.55142 0.0
H537 H 0.15084 0.52235 0.56015 0.0
H538 H 0.26278 0.6004 0.59619 0.0
H539 H 0.32598 0.58908 0.60263 0.0
C540 C 0.90368 0.79152 0.92969 0.0
C541 C 0.94514 0.82716 0.91856 0.0
C542 C 0.00456 0.76965 0.94663 0.0
C543 C 0.96307 0.73559 0.96106 0.0
N544 N 0.8735 0.71812 0.97457 0.0
N545 N 0.03467 0.85442 0.92456 0.0
C546 C 0.91268 0.74769 0.95489 0.0
C547 C 0.99551 0.81746 0.92943 0.0
N548 N 0.8558 0.7988 0.91482 0.0
N549 N 0.05242 0.75551 0.94715 0.0
H550 H 0.02966 0.88983 0.91197 0.0
H551 H 0.07142 0.85146 0.93684 0.0
H552 H 0.06075 0.7208 0.95907 0.0
H553 H 0.08322 0.77644 0.93197 0.0
H554 H 0.82477 0.77174 0.91721 0.0
H555 H 0.84769 0.83039 0.89634 0.0
H556 H 0.8366 0.72762 0.97564 0.0
H557 H 0.8787 0.68621 0.99391 0.0
C558 C 0.45283 0.78096 0.16168 0.0
C559 C 0.43954 0.74689 0.12367 0.0
C560 C 0.45849 0.8134 0.06646 0.0
C561 C 0.47546 0.84685 0.10413 0.0
N562 N 0.50137 0.85855 0.18641 0.0
N563 N 0.44441 0.72726 0.04041 0.0
C564 C 0.47658 0.82944 0.15147 0.0
C565 C 0.44748 0.76202 0.0762 0.0
N566 N 0.44068 0.76813 0.20717 0.0
N567 N 0.44918 0.83074 0.02208 0.0
H568 H 0.43726 0.68901 0.04653 0.0
H569 H 0.45434 0.73607 0.00565 0.0
H570 H 0.45277 0.8685 0.01363 0.0
H571 H 0.43213 0.80796 0.99491 0.0
H572 H 0.44467 0.79358 0.23536 0.0
H573 H 0.42266 0.73326 0.21623 0.0
H574 H 0.50722 0.84575 0.22061 0.0
H575 H 0.52075 0.89358 0.17993 0.0
C576 C 0.07432 0.28481 0.61438 0.0
C577 C 0.06819 0.31956 0.57773 0.0
C578 C 0.03876 0.25156 0.52261 0.0
C579 C 0.04967 0.21686 0.55789 0.0
N580 N 0.08353 0.1992 0.63504 0.0
N581 N 0.04927 0.33751 0.49626 0.0
C582 C 0.06867 0.23308 0.60332 0.0
C583 C 0.05157 0.30338 0.53159 0.0
N584 N 0.08508 0.30133 0.65985 0.0
N585 N 0.0148 0.2349 0.48117 0.0
H586 H 0.05676 0.37591 0.50216 0.0
H587 H 0.04307 0.32785 0.46065 0.0
H588 H 0.00488 0.19712 0.47341 0.0
H589 H 0.00113 0.25835 0.45606 0.0
H590 H 0.08423 0.27783 0.68899 0.0
H591 H 0.09117 0.33903 0.6693 0.0
H592 H 0.10323 0.20914 0.66657 0.0
H593 H 0.07975 0.16084 0.62829 0.0
C594 C 0.50364 0.2771 0.51205 0.0
C595 C 0.5543 0.26938 0.50177 0.0
C596 C 0.58207 0.35773 0.51829 0.0
C597 C 0.53084 0.36647 0.52507 0.0
N598 N 0.44186 0.33631 0.52056 0.0
N599 N 0.64035 0.30297 0.48701 0.0
C600 C 0.49128 0.3266 0.51995 0.0
C601 C 0.59307 0.30996 0.5023 0.0
N602 N 0.46751 0.23701 0.51514 0.0
N603 N 0.62046 0.39434 0.52949 0.0
H604 H 0.64986 0.26832 0.47568 0.0
H605 H 0.6688 0.33212 0.48168 0.0
H606 H 0.61422 0.42932 0.54274 0.0
H607 H 0.65858 0.38861 0.53007 0.0
H608 H 0.43135 0.23944 0.52798 0.0
H609 H 0.47475 0.20051 0.50778 0.0
H610 H 0.41137 0.30983 0.51202 0.0
H611 H 0.43127 0.37203 0.52571 0.0
loop_
_geom_bond_atom_site_label_1
_geom_bond_atom_site_label_2
_geom_bond_distance
_geom_bond_site_symmetry_2
_ccdc_geom_bond_type
H0 C3 0.929 . S
H1 C6 0.929 . S
H2 C8 0.930 . S
C3 H0 0.929 . S
C3 C4 1.398 . S
C3 C5 1.396 . S
C4 C3 1.398 . S
C4 C8 1.407 . S
C5 C3 1.396 . S
C5 C6 1.394 . S
C6 H1 0.929 . S
C6 C5 1.394 . S
C6 C7 1.382 . S
C7 C6 1.382 . S
C7 C8 1.392 . S
C7 N9 1.420 . S
C8 H2 0.930 . S
C8 C4 1.407 . S
C8 C7 1.392 . S
N9 C7 1.420 . S
N9 C10 1.244 . S
C10 N9 1.244 . S
H11 C14 0.929 . S
H12 C17 0.929 . S
H13 C19 0.930 . S
C14 H11 0.929 . S
C14 C15 1.398 . S
C14 C16 1.396 . S
C15 C14 1.398 . S
C15 C19 1.407 . S
C16 C14 1.396 . S
C16 C17 1.394 . S
C17 H12 0.929 . S
C17 C16 1.394 . S
C17 C18 1.382 . S
C18 C17 1.382 . S
C18 C19 1.392 . S
C18 N20 1.420 . S
C19 H13 0.930 . S
C19 C15 1.407 . S
C19 C18 1.392 . S
N20 C18 1.420 . S
N20 C21 1.244 . S
C21 N20 1.244 . S
H22 C25 0.929 1_554 S
H23 C28 0.929 . S
H24 C30 0.930 . S
C25 H22 0.929 1_556 S
C25 C26 1.398 . S
C25 C27 1.396 . S
C26 C25 1.398 . S
C26 C30 1.407 . S
C27 C25 1.396 . S
C27 C28 1.394 . S
C28 H23 0.929 . S
C28 C27 1.394 . S
C28 C29 1.382 . S
C29 C28 1.382 . S
C29 C30 1.392 . S
C29 N31 1.420 . S
C30 H24 0.930 . S
C30 C26 1.407 . S
C30 C29 1.392 . S
N31 C29 1.420 . S
N31 C32 1.244 . S
C32 N31 1.244 . S
H33 C36 0.929 . S
H34 C39 0.929 . S
H35 C41 0.930 . S
C36 H33 0.929 . S
C36 C37 1.398 . S
C36 C38 1.396 . S
C37 C36 1.398 . S
C37 C41 1.407 . S
C38 C36 1.396 . S
C38 C39 1.394 . S
C39 H34 0.929 . S
C39 C38 1.394 . S
C39 C40 1.382 . S
C40 C39 1.382 . S
C40 C41 1.392 . S
C40 N42 1.420 . S
C41 H35 0.930 . S
C41 C37 1.407 . S
C41 C40 1.392 . S
N42 C40 1.420 . S
N42 C43 1.244 . S
C43 N42 1.244 . S
H44 C47 0.929 . S
H45 C50 0.929 . S
H46 C52 0.930 . S
C47 H44 0.929 . S
C47 C48 1.398 . S
C47 C49 1.396 . S
C48 C47 1.398 . S
C48 C52 1.407 1_565 S
C49 C47 1.396 . S
C49 C50 1.394 . S
C50 H45 0.929 . S
C50 C49 1.394 . S
C50 C51 1.382 . S
C51 C50 1.382 . S
C51 C52 1.392 1_565 S
C51 N53 1.420 1_565 S
C52 H46 0.930 . S
C52 C48 1.407 1_545 S
C52 C51 1.392 1_545 S
N53 C51 1.420 1_545 S
N53 C54 1.244 1_545 S
C54 N53 1.244 1_565 S
H55 C58 0.929 . S
H56 C61 0.929 . S
H57 C63 0.930 . S
C58 H55 0.929 . S
C58 C59 1.398 . S
C58 C60 1.396 . S
C59 C58 1.398 . S
C59 C63 1.407 . S
C60 C58 1.396 . S
C60 C61 1.394 . S
C61 H56 0.929 . S
C61 C60 1.394 . S
C61 C62 1.382 . S
C62 C61 1.382 . S
C62 C63 1.392 . S
C62 N64 1.420 . S
C63 H57 0.930 . S
C63 C59 1.407 . S
C63 C62 1.392 . S
N64 C62 1.420 . S
N64 C65 1.244 . S
C65 N64 1.244 . S
H66 C69 0.929 . S
H67 C72 0.929 . S
H68 C74 0.930 . S
C69 H66 0.929 . S
C69 C70 1.398 . S
C69 C71 1.396 . S
C70 C69 1.398 . S
C70 C74 1.407 . S
C71 C69 1.396 . S
C71 C72 1.394 . S
C72 H67 0.929 . S
C72 C71 1.394 . S
C72 C73 1.382 . S
C73 C72 1.382 . S
C73 C74 1.392 . S
C73 N75 1.420 . S
C74 H68 0.930 . S
C74 C70 1.407 . S
C74 C73 1.392 . S
N75 C73 1.420 . S
N75 C76 1.244 . S
C76 N75 1.244 . S
H77 C80 0.929 . S
H78 C83 0.929 . S
H79 C85 0.930 . S
C80 H77 0.929 . S
C80 C81 1.398 . S
C80 C82 1.396 . S
C81 C80 1.398 . S
C81 C85 1.407 . S
C82 C80 1.396 . S
C82 C83 1.394 . S
C83 H78 0.929 . S
C83 C82 1.394 . S
C83 C84 1.382 . S
C84 C83 1.382 . S
C84 C85 1.392 . S
C84 N86 1.420 . S
C85 H79 0.930 . S
C85 C81 1.407 . S
C85 C84 1.392 . S
N86 C84 1.420 . S
N86 C87 1.244 . S
C87 N86 1.244 . S
O88 Zn89 1.953 . S
O88 C104 1.225 1_655 S
Zn89 O88 1.953 . S
Zn89 O90 1.949 1_655 S
Zn89 O96 1.919 . S
Zn89 O101 1.924 . S
O90 Zn89 1.949 1_455 S
O90 Zn91 1.923 1_455 S
O90 Zn92 1.950 . S
O90 Zn93 1.945 1_545 S
Zn91 O90 1.923 1_655 S
Zn91 O94 1.933 1_545 S
Zn91 O97 1.941 . S
Zn91 O98 1.965 1_655 S
Zn92 O90 1.950 . S
Zn92 O99 1.938 . S
Zn92 O100 1.906 . S
Zn92 O110 1.953 . S
Zn93 O90 1.945 1_565 S
Zn93 O95 1.932 1_455 S
Zn93 O102 1.977 . S
Zn93 O103 1.910 1_455 S
O94 Zn91 1.933 1_565 S
O94 C105 1.226 . S
O95 Zn93 1.932 1_655 S
O95 C105 1.307 . S
O96 Zn89 1.919 . S
O96 C107 1.253 . S
O97 Zn91 1.941 . S
O97 C107 1.283 . S
O98 Zn91 1.965 1_455 S
O98 C106 1.303 . S
O99 Zn92 1.938 . S
O99 C106 1.247 . S
O100 Zn92 1.906 . S
O100 C108 1.304 1_545 S
O101 Zn89 1.924 . S
O101 C109 1.311 . S
O102 Zn93 1.977 . S
O102 C108 1.272 . S
O103 Zn93 1.910 1_655 S
O103 C109 1.231 1_565 S
C104 O88 1.225 1_455 S
C104 O110 1.298 . S
C105 O94 1.226 . S
C105 O95 1.307 . S
C106 O98 1.303 . S
C106 O99 1.247 . S
C107 O96 1.253 . S
C107 O97 1.283 . S
C108 O100 1.304 1_565 S
C108 O102 1.272 . S
C109 O101 1.311 . S
C109 O103 1.231 1_545 S
O110 Zn92 1.953 . S
O110 C104 1.298 . S
O111 Zn112 1.953 1_556 S
O111 C127 1.225 1_556 S
Zn112 O111 1.953 1_554 S
Zn112 O113 1.949 . S
Zn112 O119 1.919 1_554 S
Zn112 O124 1.924 . S
O113 Zn112 1.949 . S
O113 Zn114 1.923 1_545 S
O113 Zn115 1.950 . S
O113 Zn116 1.945 . S
Zn114 O113 1.923 1_565 S
Zn114 O117 1.933 . S
Zn114 O120 1.941 1_554 S
Zn114 O121 1.965 . S
Zn115 O113 1.950 . S
Zn115 O122 1.938 . S
Zn115 O123 1.906 . S
Zn115 O133 1.953 . S
Zn116 O113 1.945 . S
Zn116 O118 1.932 1_545 S
Zn116 O125 1.977 . S
Zn116 O126 1.910 . S
O117 Zn114 1.933 . S
O117 C128 1.226 . S
O118 Zn116 1.932 1_565 S
O118 C128 1.307 . S
O119 Zn112 1.919 1_556 S
O119 C130 1.253 1_545 S
O120 Zn114 1.941 1_556 S
O120 C130 1.283 . S
O121 Zn114 1.965 . S
O121 C129 1.303 1_565 S
O122 Zn115 1.938 . S
O122 C129 1.247 . S
O123 Zn115 1.906 . S
O123 C131 1.304 . S
O124 Zn112 1.924 . S
O124 C132 1.311 . S
O125 Zn116 1.977 . S
O125 C131 1.272 . S
O126 Zn116 1.910 . S
O126 C132 1.231 . S
C127 O111 1.225 1_554 S
C127 O133 1.298 . S
C128 O117 1.226 . S
C128 O118 1.307 . S
C129 O121 1.303 1_545 S
C129 O122 1.247 . S
C130 O119 1.253 1_565 S
C130 O120 1.283 . S
C131 O123 1.304 . S
C131 O125 1.272 . S
C132 O124 1.311 . S
C132 O126 1.231 . S
O133 Zn115 1.953 . S
O133 C127 1.298 . S
O134 Zn135 1.953 . S
O134 C150 1.225 . S
Zn135 O134 1.953 . S
Zn135 O136 1.949 . S
Zn135 O142 1.919 . S
Zn135 O147 1.924 . S
O136 Zn135 1.949 . S
O136 Zn137 1.923 . S
O136 Zn138 1.950 . S
O136 Zn139 1.945 . S
Zn137 O136 1.923 . S
Zn137 O140 1.933 . S
Zn137 O143 1.941 . S
Zn137 O144 1.965 . S
Zn138 O136 1.950 . S
Zn138 O145 1.938 . S
Zn138 O146 1.906 . S
Zn138 O156 1.953 . S
Zn139 O136 1.945 . S
Zn139 O141 1.932 . S
Zn139 O148 1.977 . S
Zn139 O149 1.910 . S
O140 Zn137 1.933 . S
O140 C151 1.226 . S
O141 Zn139 1.932 . S
O141 C151 1.307 . S
O142 Zn135 1.919 . S
O142 C153 1.253 . S
O143 Zn137 1.941 . S
O143 C153 1.283 . S
O144 Zn137 1.965 . S
O144 C152 1.303 . S
O145 Zn138 1.938 . S
O145 C152 1.247 . S
O146 Zn138 1.906 . S
O146 C154 1.304 . S
O147 Zn135 1.924 . S
O147 C155 1.311 . S
O148 Zn139 1.977 . S
O148 C154 1.272 . S
O149 Zn139 1.910 . S
O149 C155 1.231 . S
C150 O134 1.225 . S
C150 O156 1.298 . S
C151 O140 1.226 . S
C151 O141 1.307 . S
C152 O144 1.303 . S
C152 O145 1.247 . S
C153 O142 1.253 . S
C153 O143 1.283 . S
C154 O146 1.304 . S
C154 O148 1.272 . S
C155 O147 1.311 . S
C155 O149 1.231 . S
O156 Zn138 1.953 . S
O156 C150 1.298 . S
O157 Zn158 1.953 . S
O157 C173 1.225 . S
Zn158 O157 1.953 . S
Zn158 O159 1.949 1_655 S
Zn158 O165 1.919 . S
Zn158 O170 1.924 . S
O159 Zn158 1.949 1_455 S
O159 Zn160 1.923 1_454 S
O159 Zn161 1.950 . S
O159 Zn162 1.945 1_554 S
Zn160 O159 1.923 1_656 S
Zn160 O163 1.933 1_655 S
Zn160 O166 1.941 . S
Zn160 O167 1.965 . S
Zn161 O159 1.950 . S
Zn161 O168 1.938 . S
Zn161 O169 1.906 . S
Zn161 O179 1.953 . S
Zn162 O159 1.945 1_556 S
Zn162 O164 1.932 . S
Zn162 O171 1.977 1_556 S
Zn162 O172 1.910 1_556 S
O163 Zn160 1.933 1_455 S
O163 C174 1.226 . S
O164 Zn162 1.932 . S
O164 C174 1.307 . S
O165 Zn158 1.919 . S
O165 C176 1.253 1_554 S
O166 Zn160 1.941 . S
O166 C176 1.283 . S
O167 Zn160 1.965 . S
O167 C175 1.303 . S
O168 Zn161 1.938 . S
O168 C175 1.247 1_454 S
O169 Zn161 1.906 . S
O169 C177 1.304 . S
O170 Zn158 1.924 . S
O170 C178 1.311 1_655 S
O171 Zn162 1.977 1_554 S
O171 C177 1.272 . S
O172 Zn162 1.910 1_554 S
O172 C178 1.231 . S
C173 O157 1.225 . S
C173 O179 1.298 1_655 S
C174 O163 1.226 . S
C174 O164 1.307 . S
C175 O167 1.303 . S
C175 O168 1.247 1_656 S
C176 O165 1.253 1_556 S
C176 O166 1.283 . S
C177 O169 1.304 . S
C177 O171 1.272 . S
C178 O170 1.311 1_455 S
C178 O172 1.231 . S
O179 Zn161 1.953 . S
O179 C173 1.298 1_455 S
C180 C181 1.363 . S
C180 C186 1.379 . S
C180 N188 1.356 . S
C181 C180 1.363 . S
C181 C187 1.363 . S
C182 C183 1.363 . S
C182 C187 1.379 . S
C182 N189 1.356 . S
C183 C182 1.363 . S
C183 C186 1.363 . S
N184 C186 1.356 . S
N184 H196 0.984 . S
N184 H197 0.985 . S
N185 C187 1.356 . S
N185 H190 0.984 . S
N185 H191 0.985 . S
C186 C180 1.379 . S
C186 C183 1.363 . S
C186 N184 1.356 . S
C187 C181 1.363 . S
C187 C182 1.379 . S
C187 N185 1.356 . S
N188 C180 1.356 . S
N188 H194 0.984 . S
N188 H195 0.984 . S
N189 C182 1.356 . S
N189 H192 0.984 . S
N189 H193 0.985 1_545 S
H190 N185 0.984 . S
H191 N185 0.985 . S
H192 N189 0.984 . S
H193 N189 0.985 1_565 S
H194 N188 0.984 . S
H195 N188 0.984 . S
H196 N184 0.984 . S
H197 N184 0.985 . S
C198 C199 1.363 . S
C198 C204 1.379 . S
C198 N206 1.356 . S
C199 C198 1.363 . S
C199 C205 1.363 . S
C200 C201 1.363 . S
C200 C205 1.379 . S
C200 N207 1.356 . S
C201 C200 1.363 . S
C201 C204 1.363 . S
N202 C204 1.356 . S
N202 H214 0.984 . S
N202 H215 0.985 . S
N203 C205 1.356 . S
N203 H208 0.984 . S
N203 H209 0.985 . S
C204 C198 1.379 . S
C204 C201 1.363 . S
C204 N202 1.356 . S
C205 C199 1.363 . S
C205 C200 1.379 . S
C205 N203 1.356 . S
N206 C198 1.356 . S
N206 H212 0.984 . S
N206 H213 0.984 . S
N207 C200 1.356 . S
N207 H210 0.984 . S
N207 H211 0.985 . S
H208 N203 0.984 . S
H209 N203 0.985 . S
H210 N207 0.984 . S
H211 N207 0.985 . S
H212 N206 0.984 . S
H213 N206 0.984 . S
H214 N202 0.984 . S
H215 N202 0.985 . S
C216 C217 1.363 . S
C216 C222 1.379 . S
C216 N224 1.356 . S
C217 C216 1.363 . S
C217 C223 1.363 . S
C218 C219 1.363 . S
C218 C223 1.379 . S
C218 N225 1.356 . S
C219 C218 1.363 . S
C219 C222 1.363 . S
N220 C222 1.356 . S
N220 H232 0.984 . S
N220 H233 0.985 . S
N221 C223 1.356 . S
N221 H226 0.984 . S
N221 H227 0.985 . S
C222 C216 1.379 . S
C222 C219 1.363 . S
C222 N220 1.356 . S
C223 C217 1.363 . S
C223 C218 1.379 . S
C223 N221 1.356 . S
N224 C216 1.356 . S
N224 H230 0.984 . S
N224 H231 0.984 . S
N225 C218 1.356 . S
N225 H228 0.984 . S
N225 H229 0.985 . S
H226 N221 0.984 . S
H227 N221 0.985 . S
H228 N225 0.984 . S
H229 N225 0.985 . S
H230 N224 0.984 . S
H231 N224 0.984 . S
H232 N220 0.984 . S
H233 N220 0.985 . S
C234 C235 1.363 . S
C234 C240 1.379 . S
C234 N242 1.356 . S
C235 C234 1.363 . S
C235 C241 1.363 . S
C236 C237 1.363 . S
C236 C241 1.379 . S
C236 N243 1.356 . S
C237 C236 1.363 . S
C237 C240 1.363 . S
N238 C240 1.356 . S
N238 H250 0.984 . S
N238 H251 0.985 . S
N239 C241 1.356 . S
N239 H244 0.984 . S
N239 H245 0.985 . S
C240 C234 1.379 . S
C240 C237 1.363 . S
C240 N238 1.356 . S
C241 C235 1.363 . S
C241 C236 1.379 . S
C241 N239 1.356 . S
N242 C234 1.356 . S
N242 H248 0.984 . S
N242 H249 0.984 . S
N243 C236 1.356 . S
N243 H246 0.984 . S
N243 H247 0.985 . S
H244 N239 0.984 . S
H245 N239 0.985 . S
H246 N243 0.984 . S
H247 N243 0.985 . S
H248 N242 0.984 . S
H249 N242 0.984 . S
H250 N238 0.984 . S
H251 N238 0.985 . S
C252 C253 1.363 . S
C252 C258 1.379 . S
C252 N260 1.356 . S
C253 C252 1.363 . S
C253 C259 1.363 . S
C254 C255 1.363 . S
C254 C259 1.379 . S
C254 N261 1.356 . S
C255 C254 1.363 . S
C255 C258 1.363 . S
N256 C258 1.356 . S
N256 H268 0.984 . S
N256 H269 0.985 . S
N257 C259 1.356 . S
N257 H262 0.984 . S
N257 H263 0.985 . S
C258 C252 1.379 . S
C258 C255 1.363 . S
C258 N256 1.356 . S
C259 C253 1.363 . S
C259 C254 1.379 . S
C259 N257 1.356 . S
N260 C252 1.356 . S
N260 H266 0.984 . S
N260 H267 0.984 . S
N261 C254 1.356 . S
N261 H264 0.984 . S
N261 H265 0.985 . S
H262 N257 0.984 . S
H263 N257 0.985 . S
H264 N261 0.984 . S
H265 N261 0.985 . S
H266 N260 0.984 . S
H267 N260 0.984 . S
H268 N256 0.984 . S
H269 N256 0.985 . S
C270 C271 1.363 . S
C270 C276 1.379 . S
C270 N278 1.356 1_565 S
C271 C270 1.363 . S
C271 C277 1.363 . S
C272 C273 1.363 . S
C272 C277 1.379 . S
C272 N279 1.356 . S
C273 C272 1.363 . S
C273 C276 1.363 . S
N274 C276 1.356 1_545 S
N274 H286 0.984 . S
N274 H287 0.985 . S
N275 C277 1.356 . S
N275 H280 0.984 . S
N275 H281 0.985 . S
C276 C270 1.379 . S
C276 C273 1.363 . S
C276 N274 1.356 1_565 S
C277 C271 1.363 . S
C277 C272 1.379 . S
C277 N275 1.356 . S
N278 C270 1.356 1_545 S
N278 H284 0.984 . S
N278 H285 0.984 . S
N279 C272 1.356 . S
N279 H282 0.984 . S
N279 H283 0.985 . S
H280 N275 0.984 . S
H281 N275 0.985 . S
H282 N279 0.984 . S
H283 N279 0.985 . S
H284 N278 0.984 . S
H285 N278 0.984 . S
H286 N274 0.984 . S
H287 N274 0.985 . S
C288 C289 1.363 . S
C288 C294 1.379 . S
C288 N296 1.356 1_556 S
C289 C288 1.363 . S
C289 C295 1.363 . S
C290 C291 1.363 . S
C290 C295 1.379 . S
C290 N297 1.356 . S
C291 C290 1.363 . S
C291 C294 1.363 . S
N292 C294 1.356 1_554 S
N292 H304 0.984 . S
N292 H305 0.985 1_554 S
N293 C295 1.356 . S
N293 H298 0.984 . S
N293 H299 0.985 . S
C294 C288 1.379 . S
C294 C291 1.363 . S
C294 N292 1.356 1_556 S
C295 C289 1.363 . S
C295 C290 1.379 . S
C295 N293 1.356 . S
N296 C288 1.356 1_554 S
N296 H302 0.984 . S
N296 H303 0.984 . S
N297 C290 1.356 . S
N297 H300 0.984 . S
N297 H301 0.985 . S
H298 N293 0.984 . S
H299 N293 0.985 . S
H300 N297 0.984 . S
H301 N297 0.985 . S
H302 N296 0.984 . S
H303 N296 0.984 . S
H304 N292 0.984 . S
H305 N292 0.985 1_556 S
C306 C307 1.363 . S
C306 C312 1.379 . S
C306 N314 1.356 . S
C307 C306 1.363 . S
C307 C313 1.363 . S
C308 C309 1.363 . S
C308 C313 1.379 . S
C308 N315 1.356 . S
C309 C308 1.363 . S
C309 C312 1.363 . S
N310 C312 1.356 . S
N310 H322 0.984 . S
N310 H323 0.985 . S
N311 C313 1.356 . S
N311 H316 0.984 . S
N311 H317 0.985 . S
C312 C306 1.379 . S
C312 C309 1.363 . S
C312 N310 1.356 . S
C313 C307 1.363 . S
C313 C308 1.379 . S
C313 N311 1.356 . S
N314 C306 1.356 . S
N314 H320 0.984 . S
N314 H321 0.984 . S
N315 C308 1.356 . S
N315 H318 0.984 . S
N315 H319 0.985 . S
H316 N311 0.984 . S
H317 N311 0.985 . S
H318 N315 0.984 . S
H319 N315 0.985 . S
H320 N314 0.984 . S
H321 N314 0.984 . S
H322 N310 0.984 . S
H323 N310 0.985 . S
C324 C325 1.363 . S
C324 C330 1.379 . S
C324 N332 1.356 . S
C325 C324 1.363 . S
C325 C331 1.363 . S
C326 C327 1.363 . S
C326 C331 1.379 . S
C326 N333 1.356 1_455 S
C327 C326 1.363 . S
C327 C330 1.363 . S
N328 C330 1.356 . S
N328 H340 0.984 . S
N328 H341 0.985 . S
N329 C331 1.356 . S
N329 H334 0.984 . S
N329 H335 0.985 . S
C330 C324 1.379 . S
C330 C327 1.363 . S
C330 N328 1.356 . S
C331 C325 1.363 . S
C331 C326 1.379 . S
C331 N329 1.356 . S
N332 C324 1.356 . S
N332 H338 0.984 . S
N332 H339 0.984 . S
N333 C326 1.356 1_655 S
N333 H336 0.984 . S
N333 H337 0.985 . S
H334 N329 0.984 . S
H335 N329 0.985 . S
H336 N333 0.984 . S
H337 N333 0.985 . S
H338 N332 0.984 . S
H339 N332 0.984 . S
H340 N328 0.984 . S
H341 N328 0.985 . S
C342 C343 1.363 . S
C342 C348 1.379 . S
C342 N350 1.356 . S
C343 C342 1.363 . S
C343 C349 1.363 1_556 S
C344 C345 1.365 1_554 S
C344 C349 1.379 . S
C344 N351 1.356 . S
C345 C344 1.365 1_556 S
C345 C348 1.361 . S
N346 C348 1.356 . S
N346 H358 0.984 . S
N346 H359 0.985 . S
N347 C349 1.356 . S
N347 H352 0.984 . S
N347 H353 0.985 . S
C348 C342 1.379 . S
C348 C345 1.361 . S
C348 N346 1.356 . S
C349 C343 1.363 1_554 S
C349 C344 1.379 . S
C349 N347 1.356 . S
N350 C342 1.356 . S
N350 H356 0.984 . S
N350 H357 0.984 . S
N351 C344 1.356 . S
N351 H354 0.984 . S
N351 H355 0.985 . S
H352 N347 0.984 . S
H353 N347 0.985 . S
H354 N351 0.984 . S
H355 N351 0.985 . S
H356 N350 0.984 . S
H357 N350 0.984 . S
H358 N346 0.984 . S
H359 N346 0.985 . S
C360 C361 1.363 . S
C360 C366 1.379 . S
C360 N368 1.356 . S
C361 C360 1.363 . S
C361 C367 1.363 . S
C362 C363 1.363 . S
C362 C367 1.379 . S
C362 N369 1.356 1_655 S
C363 C362 1.363 . S
C363 C366 1.363 . S
N364 C366 1.356 . S
N364 H376 0.984 . S
N364 H377 0.985 . S
N365 C367 1.356 . S
N365 H370 0.984 . S
N365 H371 0.985 . S
C366 C360 1.379 . S
C366 C363 1.363 . S
C366 N364 1.356 . S
C367 C361 1.363 . S
C367 C362 1.379 . S
C367 N365 1.356 . S
N368 C360 1.356 . S
N368 H374 0.984 . S
N368 H375 0.984 . S
N369 C362 1.356 1_455 S
N369 H372 0.984 . S
N369 H373 0.985 . S
H370 N365 0.984 . S
H371 N365 0.985 . S
H372 N369 0.984 . S
H373 N369 0.985 . S
H374 N368 0.984 . S
H375 N368 0.984 . S
H376 N364 0.984 . S
H377 N364 0.985 . S
C378 C379 1.363 . S
C378 C384 1.379 . S
C378 N386 1.356 . S
C379 C378 1.363 . S
C379 C385 1.363 . S
C380 C381 1.363 . S
C380 C385 1.379 . S
C380 N387 1.356 . S
C381 C380 1.363 . S
C381 C384 1.363 . S
N382 C384 1.356 . S
N382 H394 0.984 . S
N382 H395 0.985 . S
N383 C385 1.356 . S
N383 H388 0.984 . S
N383 H389 0.985 . S
C384 C378 1.379 . S
C384 C381 1.363 . S
C384 N382 1.356 . S
C385 C379 1.363 . S
C385 C380 1.379 . S
C385 N383 1.356 . S
N386 C378 1.356 . S
N386 H392 0.984 . S
N386 H393 0.984 . S
N387 C380 1.356 . S
N387 H390 0.984 . S
N387 H391 0.985 . S
H388 N383 0.984 . S
H389 N383 0.985 . S
H390 N387 0.984 . S
H391 N387 0.985 . S
H392 N386 0.984 . S
H393 N386 0.984 . S
H394 N382 0.984 . S
H395 N382 0.985 . S
C396 C397 1.363 1_445 S
C396 C402 1.379 . S
C396 N404 1.356 . S
C397 C396 1.363 1_665 S
C397 C403 1.363 . S
C398 C399 1.363 . S
C398 C403 1.379 1_545 S
C398 N405 1.356 . S
C399 C398 1.363 . S
C399 C402 1.363 1_655 S
N400 C402 1.356 . S
N400 H412 0.984 . S
N400 H413 0.985 . S
N401 C403 1.356 . S
N401 H406 0.984 . S
N401 H407 0.985 . S
C402 C396 1.379 . S
C402 C399 1.363 1_455 S
C402 N400 1.356 . S
C403 C397 1.363 . S
C403 C398 1.379 1_565 S
C403 N401 1.356 . S
N404 C396 1.356 . S
N404 H410 0.984 . S
N404 H411 0.984 1_545 S
N405 C398 1.356 . S
N405 H408 0.984 . S
N405 H409 0.985 1_545 S
H406 N401 0.984 . S
H407 N401 0.985 . S
H408 N405 0.984 . S
H409 N405 0.985 1_565 S
H410 N404 0.984 . S
H411 N404 0.984 1_565 S
H412 N400 0.984 . S
H413 N400 0.985 . S
C414 C415 1.363 . S
C414 C420 1.379 . S
C414 N422 1.356 . S
C415 C414 1.363 . S
C415 C421 1.363 . S
C416 C417 1.363 . S
C416 C421 1.379 . S
C416 N423 1.356 1_545 S
C417 C416 1.363 . S
C417 C420 1.363 . S
N418 C420 1.356 . S
N418 H430 0.984 . S
N418 H431 0.985 . S
N419 C421 1.356 1_565 S
N419 H424 0.984 1_565 S
N419 H425 0.985 . S
C420 C414 1.379 . S
C420 C417 1.363 . S
C420 N418 1.356 . S
C421 C415 1.363 . S
C421 C416 1.379 . S
C421 N419 1.356 1_545 S
N422 C414 1.356 . S
N422 H428 0.984 . S
N422 H429 0.984 . S
N423 C416 1.356 1_565 S
N423 H426 0.984 . S
N423 H427 0.985 . S
H424 N419 0.984 1_545 S
H425 N419 0.985 . S
H426 N423 0.984 . S
H427 N423 0.985 . S
H428 N422 0.984 . S
H429 N422 0.984 . S
H430 N418 0.984 . S
H431 N418 0.985 . S
C432 C433 1.363 . S
C432 C438 1.379 . S
C432 N440 1.356 . S
C433 C432 1.363 . S
C433 C439 1.363 . S
C434 C435 1.363 . S
C434 C439 1.379 . S
C434 N441 1.356 . S
C435 C434 1.363 . S
C435 C438 1.363 . S
N436 C438 1.356 . S
N436 H448 0.984 . S
N436 H449 0.985 . S
N437 C439 1.356 . S
N437 H442 0.984 . S
N437 H443 0.985 . S
C438 C432 1.379 . S
C438 C435 1.363 . S
C438 N436 1.356 . S
C439 C433 1.363 . S
C439 C434 1.379 . S
C439 N437 1.356 . S
N440 C432 1.356 . S
N440 H446 0.984 . S
N440 H447 0.984 . S
N441 C434 1.356 . S
N441 H444 0.984 . S
N441 H445 0.985 . S
H442 N437 0.984 . S
H443 N437 0.985 . S
H444 N441 0.984 . S
H445 N441 0.985 . S
H446 N440 0.984 . S
H447 N440 0.984 . S
H448 N436 0.984 . S
H449 N436 0.985 . S
C450 C451 1.363 . S
C450 C456 1.379 . S
C450 N458 1.356 . S
C451 C450 1.363 . S
C451 C457 1.363 . S
C452 C453 1.363 . S
C452 C457 1.379 . S
C452 N459 1.356 . S
C453 C452 1.363 . S
C453 C456 1.363 . S
N454 C456 1.356 . S
N454 H466 0.984 . S
N454 H467 0.985 . S
N455 C457 1.356 . S
N455 H460 0.984 . S
N455 H461 0.985 1_455 S
C456 C450 1.379 . S
C456 C453 1.363 . S
C456 N454 1.356 . S
C457 C451 1.363 . S
C457 C452 1.379 . S
C457 N455 1.356 . S
N458 C450 1.356 . S
N458 H464 0.984 . S
N458 H465 0.984 . S
N459 C452 1.356 . S
N459 H462 0.984 . S
N459 H463 0.985 1_455 S
H460 N455 0.984 . S
H461 N455 0.985 1_655 S
H462 N459 0.984 . S
H463 N459 0.985 1_655 S
H464 N458 0.984 . S
H465 N458 0.984 . S
H466 N454 0.984 . S
H467 N454 0.985 . S
C468 C469 1.363 1_565 S
C468 C474 1.379 . S
C468 N476 1.356 . S
C469 C468 1.363 1_545 S
C469 C475 1.363 1_556 S
C470 C471 1.363 . S
C470 C475 1.379 . S
C470 N477 1.356 . S
C471 C470 1.363 . S
C471 C474 1.363 1_544 S
N472 C474 1.356 . S
N472 H484 0.984 . S
N472 H485 0.985 . S
N473 C475 1.356 . S
N473 H478 0.984 1_554 S
N473 H479 0.985 . S
C474 C468 1.379 . S
C474 C471 1.363 1_566 S
C474 N472 1.356 . S
C475 C469 1.363 1_554 S
C475 C470 1.379 . S
C475 N473 1.356 . S
N476 C468 1.356 . S
N476 H482 0.984 . S
N476 H483 0.984 . S
N477 C470 1.356 . S
N477 H480 0.984 . S
N477 H481 0.985 . S
H478 N473 0.984 1_556 S
H479 N473 0.985 . S
H480 N477 0.984 . S
H481 N477 0.985 . S
H482 N476 0.984 . S
H483 N476 0.984 . S
H484 N472 0.984 . S
H485 N472 0.985 . S
C486 C487 1.363 . S
C486 C492 1.379 . S
C486 N494 1.356 . S
C487 C486 1.363 . S
C487 C493 1.363 . S
C488 C489 1.363 . S
C488 C493 1.379 . S
C488 N495 1.356 1_545 S
C489 C488 1.363 . S
C489 C492 1.363 . S
N490 C492 1.356 . S
N490 H502 0.984 . S
N490 H503 0.985 . S
N491 C493 1.356 . S
N491 H496 0.984 . S
N491 H497 0.985 1_545 S
C492 C486 1.379 . S
C492 C489 1.363 . S
C492 N490 1.356 . S
C493 C487 1.363 . S
C493 C488 1.379 . S
C493 N491 1.356 . S
N494 C486 1.356 . S
N494 H500 0.984 . S
N494 H501 0.984 . S
N495 C488 1.356 1_565 S
N495 H498 0.984 . S
N495 H499 0.985 . S
H496 N491 0.984 . S
H497 N491 0.985 1_565 S
H498 N495 0.984 . S
H499 N495 0.985 . S
H500 N494 0.984 . S
H501 N494 0.984 . S
H502 N490 0.984 . S
H503 N490 0.985 . S
C504 C505 1.363 . S
C504 C510 1.379 . S
C504 N512 1.356 . S
C505 C504 1.363 . S
C505 C511 1.363 . S
C506 C507 1.363 . S
C506 C511 1.379 . S
C506 N513 1.356 . S
C507 C506 1.363 . S
C507 C510 1.363 . S
N508 C510 1.356 . S
N508 H520 0.984 . S
N508 H521 0.985 . S
N509 C511 1.356 . S
N509 H514 0.984 . S
N509 H515 0.985 . S
C510 C504 1.379 . S
C510 C507 1.363 . S
C510 N508 1.356 . S
C511 C505 1.363 . S
C511 C506 1.379 . S
C511 N509 1.356 . S
N512 C504 1.356 . S
N512 H518 0.984 . S
N512 H519 0.984 . S
N513 C506 1.356 . S
N513 H516 0.984 1_554 S
N513 H517 0.985 1_554 S
H514 N509 0.984 . S
H515 N509 0.985 . S
H516 N513 0.984 1_556 S
H517 N513 0.985 1_556 S
H518 N512 0.984 . S
H519 N512 0.984 . S
H520 N508 0.984 . S
H521 N508 0.985 . S
C522 C523 1.363 . S
C522 C528 1.379 . S
C522 N530 1.356 . S
C523 C522 1.363 . S
C523 C529 1.363 . S
C524 C525 1.363 . S
C524 C529 1.379 . S
C524 N531 1.356 . S
C525 C524 1.363 . S
C525 C528 1.363 . S
N526 C528 1.356 . S
N526 H538 0.984 . S
N526 H539 0.985 . S
N527 C529 1.356 . S
N527 H532 0.984 . S
N527 H533 0.985 . S
C528 C522 1.379 . S
C528 C525 1.363 . S
C528 N526 1.356 . S
C529 C523 1.363 . S
C529 C524 1.379 . S
C529 N527 1.356 . S
N530 C522 1.356 . S
N530 H536 0.984 . S
N530 H537 0.984 . S
N531 C524 1.356 . S
N531 H534 0.984 . S
N531 H535 0.985 . S
H532 N527 0.984 . S
H533 N527 0.985 . S
H534 N531 0.984 . S
H535 N531 0.985 . S
H536 N530 0.984 . S
H537 N530 0.984 . S
H538 N526 0.984 . S
H539 N526 0.985 . S
C540 C541 1.363 . S
C540 C546 1.379 . S
C540 N548 1.356 . S
C541 C540 1.363 . S
C541 C547 1.363 . S
C542 C543 1.363 1_454 S
C542 C547 1.379 1_454 S
C542 N549 1.356 . S
C543 C542 1.363 1_656 S
C543 C546 1.363 . S
N544 C546 1.356 . S
N544 H556 0.984 . S
N544 H557 0.985 . S
N545 C547 1.356 1_454 S
N545 H550 0.984 1_554 S
N545 H551 0.985 . S
C546 C540 1.379 . S
C546 C543 1.363 . S
C546 N544 1.356 . S
C547 C541 1.363 . S
C547 C542 1.379 1_656 S
C547 N545 1.356 1_656 S
N548 C540 1.356 . S
N548 H554 0.984 . S
N548 H555 0.984 . S
N549 C542 1.356 . S
N549 H552 0.984 . S
N549 H553 0.985 . S
H550 N545 0.984 1_556 S
H551 N545 0.985 . S
H552 N549 0.984 . S
H553 N549 0.985 . S
H554 N548 0.984 . S
H555 N548 0.984 . S
H556 N544 0.984 . S
H557 N544 0.985 . S
C558 C559 1.363 . S
C558 C564 1.379 . S
C558 N566 1.356 . S
C559 C558 1.363 . S
C559 C565 1.363 . S
C560 C561 1.363 . S
C560 C565 1.379 . S
C560 N567 1.356 . S
C561 C560 1.363 . S
C561 C564 1.363 . S
N562 C564 1.356 . S
N562 H574 0.984 . S
N562 H575 0.985 . S
N563 C565 1.356 . S
N563 H568 0.984 . S
N563 H569 0.985 . S
C564 C558 1.379 . S
C564 C561 1.363 . S
C564 N562 1.356 . S
C565 C559 1.363 . S
C565 C560 1.379 . S
C565 N563 1.356 . S
N566 C558 1.356 . S
N566 H572 0.984 . S
N566 H573 0.984 . S
N567 C560 1.356 . S
N567 H570 0.984 . S
N567 H571 0.985 . S
H568 N563 0.984 . S
H569 N563 0.985 . S
H570 N567 0.984 . S
H571 N567 0.985 . S
H572 N566 0.984 . S
H573 N566 0.984 . S
H574 N562 0.984 . S
H575 N562 0.985 . S
C576 C577 1.363 . S
C576 C582 1.379 . S
C576 N584 1.356 . S
C577 C576 1.363 . S
C577 C583 1.363 . S
C578 C579 1.363 . S
C578 C583 1.379 . S
C578 N585 1.356 . S
C579 C578 1.363 . S
C579 C582 1.363 . S
N580 C582 1.356 . S
N580 H592 0.984 . S
N580 H593 0.985 . S
N581 C583 1.356 . S
N581 H586 0.984 . S
N581 H587 0.985 . S
C582 C576 1.379 . S
C582 C579 1.363 . S
C582 N580 1.356 . S
C583 C577 1.363 . S
C583 C578 1.379 . S
C583 N581 1.356 . S
N584 C576 1.356 . S
N584 H590 0.984 . S
N584 H591 0.984 . S
N585 C578 1.356 . S
N585 H588 0.984 . S
N585 H589 0.985 1_455 S
H586 N581 0.984 . S
H587 N581 0.985 . S
H588 N585 0.984 . S
H589 N585 0.985 1_655 S
H590 N584 0.984 . S
H591 N584 0.984 . S
H592 N580 0.984 . S
H593 N580 0.985 . S
C594 C595 1.363 . S
C594 C600 1.379 . S
C594 N602 1.356 . S
C595 C594 1.363 . S
C595 C601 1.363 . S
C596 C597 1.363 . S
C596 C601 1.379 . S
C596 N603 1.356 . S
C597 C596 1.363 . S
C597 C600 1.363 . S
N598 C600 1.356 . S
N598 H610 0.984 . S
N598 H611 0.985 . S
N599 C601 1.356 . S
N599 H604 0.984 . S
N599 H605 0.985 . S
C600 C594 1.379 . S
C600 C597 1.363 . S
C600 N598 1.356 . S
C601 C595 1.363 . S
C601 C596 1.379 . S
C601 N599 1.356 . S
N602 C594 1.356 . S
N602 H608 0.984 . S
N602 H609 0.984 . S
N603 C596 1.356 . S
N603 H606 0.984 . S
N603 H607 0.985 . S
H604 N599 0.984 . S
H605 N599 0.985 . S
H606 N603 0.984 . S
H607 N603 0.985 . S
H608 N602 0.984 . S
H609 N602 0.984 . S
H610 N598 0.984 . S
H611 N598 0.985 . S
C181 C4 1.731 . S
C183 C106 1.691 . S
C199 C16 1.865 . S
C201 C130 1.800 . S
C219 C150 1.165 . S
C217 C32 1.151 . S
C235 C43 1.352 . S
C237 C173 1.379 . S
C255 C132 1.965 . S
C253 C5 2.002 . S
C273 C108 1.431 . S
C271 C21 1.514 . S
C291 C176 1.500 . S
C289 C27 1.563 . S
C309 C153 1.438 . S
C307 C37 1.475 . S
C325 C10 1.528 . S
C327 C178 1.471 . S
C345 C127 1.675 1_556 S
C343 C26 1.652 . S
C361 C38 1.396 . S
C363 C105 1.407 . S
C379 C15 1.615 . S
C381 C155 1.573 . S
C399 C109 1.872 . S
C397 C48 1.857 . S
C415 C59 1.659 . S
C417 C131 1.687 . S
C433 C76 1.560 . S
C435 C151 1.594 . S
C451 C87 1.426 . S
C453 C174 1.471 . S
C469 C54 1.414 1_545 S
C471 C129 1.418 . S
C489 C107 1.843 . S
C487 C60 1.828 . S
C507 C177 1.410 . S
C505 C71 1.473 . S
C525 C154 1.412 . S
C523 C82 1.420 . S
C541 C49 1.961 . S
C543 C175 1.925 . S
C561 C128 1.341 . S
C559 C70 1.323 . S
C579 C104 1.616 . S
C577 C81 1.595 . S
C595 C65 1.689 . S
C597 C152 1.674 . S
