# Generated by pormake.
# Topology zzz, (3,6)-cn, num edge types: 1
# Building blocks:
#     Node 0, Type 0, BuildingBlock: QEWDON_clean_linker_0, # of connection points: 3
#     Node 1, Type 0, BuildingBlock: QEWDON_clean_linker_0, # of connection points: 3
#     Node 2, Type 0, BuildingBlock: QEWDON_clean_linker_0, # of connection points: 3
#     Node 3, Type 0, BuildingBlock: QEWDON_clean_linker_0, # of connection points: 3
#     Node 4, Type 0, BuildingBlock: QEWDON_clean_linker_0, # of connection points: 3
#     Node 5, Type 0, BuildingBlock: QEWDON_clean_linker_0, # of connection points: 3
#     Node 6, Type 0, BuildingBlock: QEWDON_clean_linker_0, # of connection points: 3
#     Node 7, Type 0, BuildingBlock: QEWDON_clean_linker_0, # of connection points: 3
#     Node 8, Type 1, BuildingBlock: PAMTOO_clean_sbu_0, # of connection points: 6
#     Node 9, Type 1, BuildingBlock: PAMTOO_clean_sbu_0, # of connection points: 6
#     Node 10, Type 1, BuildingBlock: PAMTOO_clean_sbu_0, # of connection points: 6
#     Node 11, Type 1, BuildingBlock: PAMTOO_clean_sbu_0, # of connection points: 6
#     Edge 12, Type (0, 1), BuildingBlock: XIVTED_clean_linker_0, # of connection points: 2
#     Edge 13, Type (0, 1), BuildingBlock: XIVTED_clean_linker_0, # of connection points: 2
#     Edge 14, Type (0, 1), BuildingBlock: XIVTED_clean_linker_0, # of connection points: 2
#     Edge 15, Type (0, 1), BuildingBlock: XIVTED_clean_linker_0, # of connection points: 2
#     Edge 16, Type (0, 1), BuildingBlock: XIVTED_clean_linker_0, # of connection points: 2
#     Edge 17, Type (0, 1), BuildingBlock: XIVTED_clean_linker_0, # of connection points: 2
#     Edge 18, Type (0, 1), BuildingBlock: XIVTED_clean_linker_0, # of connection points: 2
#     Edge 19, Type (0, 1), BuildingBlock: XIVTED_clean_linker_0, # of connection points: 2
#     Edge 20, Type (0, 1), BuildingBlock: XIVTED_clean_linker_0, # of connection points: 2
#     Edge 21, Type (0, 1), BuildingBlock: XIVTED_clean_linker_0, # of connection points: 2
#     Edge 22, Type (0, 1), BuildingBlock: XIVTED_clean_linker_0, # of connection points: 2
#     Edge 23, Type (0, 1), BuildingBlock: XIVTED_clean_linker_0, # of connection points: 2
#     Edge 24, Type (0, 1), BuildingBlock: XIVTED_clean_linker_0, # of connection points: 2
#     Edge 25, Type (0, 1), BuildingBlock: XIVTED_clean_linker_0, # of connection points: 2
#     Edge 26, Type (0, 1), BuildingBlock: XIVTED_clean_linker_0, # of connection points: 2
#     Edge 27, Type (0, 1), BuildingBlock: XIVTED_clean_linker_0, # of connection points: 2
#     Edge 28, Type (0, 1), BuildingBlock: XIVTED_clean_linker_0, # of connection points: 2
#     Edge 29, Type (0, 1), BuildingBlock: XIVTED_clean_linker_0, # of connection points: 2
#     Edge 30, Type (0, 1), BuildingBlock: XIVTED_clean_linker_0, # of connection points: 2
#     Edge 31, Type (0, 1), BuildingBlock: XIVTED_clean_linker_0, # of connection points: 2
#     Edge 32, Type (0, 1), BuildingBlock: XIVTED_clean_linker_0, # of connection points: 2
#     Edge 33, Type (0, 1), BuildingBlock: XIVTED_clean_linker_0, # of connection points: 2
#     Edge 34, Type (0, 1), BuildingBlock: XIVTED_clean_linker_0, # of connection points: 2
#     Edge 35, Type (0, 1), BuildingBlock: XIVTED_clean_linker_0, # of connection points: 2
# Relax obj value: 0.154
# Max RMSD: 0.254
# Mean RMSD: 0.085
data_MOF--net-zzz--node1-PAMTOO_clean_sbu_0--node2-QEWDON_clean_linker_0--edge1-XIVTED_clean_linker_0
_symmetry_space_group_name_H-M    P1
_symmetry_Int_Tables_number       1
_symmetry_cell_setting            triclinic
loop_
_symmetry_equiv_pos_as_xyz
'x, y, z'
_cell_length_a     60.982599
_cell_length_b     53.232275
_cell_length_c     15.363773
_cell_angle_alpha  91.805697
_cell_angle_beta   79.286177
_cell_angle_gamma 86.813507
loop_
_atom_site_label
_atom_site_type_symbol
_atom_site_fract_x
_atom_site_fract_y
_atom_site_fract_z
_atom_type_partial_charge
H0 H 0.80542 0.48393 0.34358 0.0
C1 C 0.815 0.48671 0.39521 0.0
C2 C 0.83405 0.47062 0.39411 0.0
C3 C 0.80893 0.50668 0.45932 0.0
H4 H 0.86292 0.46315 0.45349 0.0
C5 C 0.84752 0.47468 0.45718 0.0
C6 C 0.84254 0.49473 0.52026 0.0
C7 C 0.82309 0.51052 0.52189 0.0
C8 C 0.78864 0.52402 0.45677 0.0
H9 H 0.81916 0.52556 0.57231 0.0
C10 C 0.77076 0.51613 0.41688 0.0
C11 C 0.75253 0.53292 0.4094 0.0
C12 C 0.78734 0.5491 0.49059 0.0
H13 H 0.80072 0.55654 0.51889 0.0
C14 C 0.76894 0.56548 0.48607 0.0
H15 H 0.77066 0.49693 0.39196 0.0
C16 C 0.7517 0.55755 0.44574 0.0
H17 H 0.738 0.57094 0.44073 0.0
H18 H 0.76829 0.58468 0.51231 0.0
H19 H 0.03172 0.73339 0.31891 0.0
C20 C 0.02996 0.7452 0.37864 0.0
C21 C 0.04407 0.76517 0.37825 0.0
C22 C 1.01317 0.7414 0.45325 0.0
H23 H 0.05092 0.79838 0.44986 0.0
C24 C 0.04111 0.78194 0.45212 0.0
C25 C 0.02395 0.77965 0.5247 0.0
C26 C 1.01036 0.75913 0.5263 0.0
C27 C 0.99793 0.71998 0.45249 0.0
H28 H 0.99762 0.75747 0.58459 0.0
C29 C 1.00424 0.69814 0.39578 0.0
C30 C 0.98955 0.67859 0.39286 0.0
C31 C 0.97652 0.72146 0.50701 0.0
H32 H 0.97019 0.73795 0.54876 0.0
C33 C 0.96243 0.70172 0.50768 0.0
H34 H 1.02043 0.69637 0.3527 0.0
C35 C 0.96885 0.68047 0.45176 0.0
H36 H 0.95741 0.66555 0.45465 0.0
H37 H 0.94621 0.70309 0.5511 0.0
H38 H 0.77356 0.01224 0.21094 0.0
C39 C 0.76091 0.01097 0.27 0.0
C40 C 0.73962 0.02276 0.27253 0.0
C41 C 0.76546 0.99678 0.34158 0.0
H42 H 0.70585 0.02815 0.34539 0.0
C43 C 0.72257 0.02001 0.34559 0.0
C44 C 0.72607 1.00521 0.41543 0.0
C45 C 0.7476 0.99395 0.41447 0.0
C46 C 0.78824 0.98366 0.33738 0.0
H47 H 0.75019 0.98304 0.47031 0.0
C48 C 0.80819 0.99329 0.29008 0.0
C49 C 0.82934 0.98043 0.28713 0.0
C50 C 0.79013 0.96072 0.37952 0.0
H51 H 0.77551 0.95197 0.41319 0.0
C52 C 0.81091 0.94819 0.37725 0.0
H53 H 0.80746 0.01091 0.25711 0.0
C54 C 0.8303 0.95792 0.33193 0.0
H55 H 0.84613 0.94743 0.3302 0.0
H56 H 0.81196 0.93057 0.41005 0.0
H57 H 0.52529 0.74288 0.13499 0.0
C58 C 0.52299 0.73352 0.1974 0.0
C59 C 0.51148 0.71132 0.20561 0.0
C60 C 0.53293 0.74254 0.26727 0.0
H61 H 0.50166 0.68064 0.28873 0.0
C62 C 0.50952 0.69847 0.28445 0.0
C63 C 0.52005 0.70628 0.3531 0.0
C64 C 0.53166 0.72844 0.34468 0.0
C65 C 0.54666 0.76501 0.25548 0.0
H66 H 0.5399 0.73443 0.39778 0.0
C67 C 0.53954 0.78697 0.2159 0.0
C68 C 0.553 0.80791 0.20463 0.0
C69 C 0.56752 0.76422 0.28214 0.0
H70 H 0.57375 0.74755 0.31066 0.0
C71 C 0.58093 0.78463 0.27024 0.0
H72 H 0.52341 0.78793 0.19588 0.0
C73 C 0.57382 0.80622 0.23184 0.0
H74 H 0.5849 0.82151 0.22222 0.0
H75 H 0.59705 0.78362 0.29027 0.0
H76 H 0.25592 0.54824 0.16961 0.0
C77 C 0.24442 0.54205 0.12873 0.0
C78 C 0.22342 0.55504 0.13815 0.0
C79 C 0.2506 0.52159 0.06685 0.0
H80 H 0.19225 0.55782 0.09095 0.0
C81 C 0.20869 0.54819 0.08272 0.0
C82 C 0.21417 0.5279 0.02089 0.0
C83 C 0.23496 0.51429 0.01429 0.0
C84 C 0.27355 0.50862 0.05567 0.0
H85 H 0.23883 0.4982 0.96803 0.0
C86 C 0.28539 0.50724 0.12697 0.0
C87 C 0.30758 0.49657 0.11406 0.0
C88 C 0.28432 0.49862 0.97175 0.0
H89 H 0.27629 0.49983 0.91474 0.0
C90 C 0.30603 0.48762 0.95904 0.0
H91 H 0.27738 0.51418 0.19281 0.0
C92 C 0.31761 0.4867 0.02911 0.0
H93 H 0.33469 0.47876 0.01595 0.0
H94 H 0.31411 0.48021 0.89385 0.0
H95 H 0.03584 0.28204 0.24556 0.0
C96 C 0.03937 0.26864 0.18948 0.0
C97 C 0.04704 0.24426 0.20372 0.0
C98 C 0.03536 0.27538 0.10546 0.0
H99 H 0.05495 0.2067 0.14804 0.0
C100 C 0.05019 0.22596 0.13477 0.0
C101 C 0.04495 0.23132 0.05225 0.0
C102 C 0.03767 0.2562 0.0371 0.0
C103 C 0.02753 0.30207 0.09361 0.0
H104 H 0.03392 0.2604 0.97279 0.0
C105 C 0.0337 0.32199 0.14553 0.0
C106 C 0.02384 0.34659 0.14663 0.0
C107 C 1.01258 0.30781 0.03649 0.0
H108 H 1.00709 0.29323 0.99636 0.0
C109 C 1.00371 0.33249 0.03321 0.0
H110 H 0.04601 0.31835 0.18675 0.0
C111 C 1.00902 0.35167 0.08855 0.0
H112 H 1.00094 0.37025 0.08781 0.0
H113 H 0.99202 0.33662 0.9897 0.0
H114 H 0.27372 0.97742 0.40534 0.0
C115 C 0.28678 0.98557 0.35923 0.0
C116 C 0.30883 0.98298 0.37332 0.0
C117 C 0.28188 0.99782 0.28421 0.0
H118 H 0.34315 0.98995 0.3245 0.0
C119 C 0.32613 0.99254 0.31327 0.0
C120 C 0.32208 1.00452 0.23776 0.0
C121 C 0.29989 0.00718 0.22326 0.0
C122 C 0.2583 0.99957 0.26722 0.0
H123 H 0.29678 0.01681 0.16535 0.0
C124 C 0.23923 1.00184 0.33719 0.0
C125 C 0.21726 1.00325 0.31868 0.0
C126 C 0.25473 0.99824 0.1793 0.0
H127 H 0.2686 0.99559 0.12391 0.0
C128 C 0.23318 0.99963 0.161 0.0
H129 H 0.24136 1.0031 0.40555 0.0
C130 C 0.21466 1.00215 0.22966 0.0
H131 H 0.19815 1.00279 0.2129 0.0
H132 H 0.23081 0.99849 0.09292 0.0
H133 H 0.53908 0.27438 0.44234 0.0
C134 C 0.5326 0.28557 0.394 0.0
C135 C 0.52724 0.3114 0.41289 0.0
C136 C 0.53032 0.27458 0.31138 0.0
H137 H 0.51658 0.34646 0.36357 0.0
C138 C 0.51977 0.32631 0.34969 0.0
C139 C 0.51809 0.31624 0.26659 0.0
C140 C 0.52312 0.29033 0.24776 0.0
C141 C 0.53686 0.24723 0.28866 0.0
H142 H 0.52149 0.28265 0.18334 0.0
C143 C 0.53337 0.22848 0.35283 0.0
C144 C 0.53991 0.20283 0.32913 0.0
C145 C 0.54711 0.23976 0.20116 0.0
H146 H 0.55087 0.25343 0.1507 0.0
C147 C 0.55302 0.21454 0.17715 0.0
H148 H 0.52575 0.2338 0.42076 0.0
C149 C 0.54935 0.19625 0.24001 0.0
H150 H 0.55391 0.1768 0.21829 0.0
H151 H 0.56063 0.20913 0.10927 0.0
Dy152 Dy 1.01279 0.01279 0.74004 0.0
Dy153 Dy 0.03568 0.99604 0.90565 0.0
C154 C 0.06561 1.00325 0.71947 0.0
O155 O 1.01644 0.97087 0.71968 0.0
O156 O 0.02521 0.95978 0.85355 0.0
O157 O 1.01366 0.01352 0.59886 0.0
O158 O 0.98723 0.0347 0.69041 0.0
O159 O 0.99952 0.00797 0.96181 0.0
O160 O 0.98462 0.99955 0.83881 0.0
O161 O 0.04137 0.03727 0.89477 0.0
O162 O 1.01251 0.04785 0.82434 0.0
O163 O 0.03275 0.98317 0.03888 0.0
O164 O 0.06531 0.98991 0.96301 0.0
C165 C 1.01994 0.95384 0.77665 0.0
O166 O 0.0495 0.01919 0.70627 0.0
O167 O 0.06161 0.9873 0.78284 0.0
C168 C 1.00588 0.05603 0.57185 0.0
C169 C 1.01888 0.10532 0.53923 0.0
C170 C 0.03437 0.0865 0.55627 0.0
C171 C 0.02798 0.06217 0.57168 0.0
C172 C 0.99038 0.07454 0.55313 0.0
C173 C 0.99687 0.099 0.53626 0.0
C174 C 0.99845 0.03222 0.60929 0.0
C175 C 0.98216 1.0035 0.92494 0.0
C176 C 0.02809 0.05437 0.86749 0.0
C177 C 0.06225 0.95304 0.04288 0.0
C178 C 0.07823 0.90271 0.05438 0.0
C179 C 0.05806 0.90819 0.0251 0.0
C180 C 0.05021 0.933 0.01929 0.0
C181 C 0.08255 0.9478 0.07112 0.0
C182 C 0.09046 0.92281 0.07717 0.0
C183 C 0.05434 0.97913 0.03126 0.0
H184 H 0.05133 0.09068 0.56049 0.0
H185 H 0.04021 0.04843 0.58743 0.0
H186 H 0.97314 0.07032 0.55469 0.0
H187 H 0.98462 0.11298 0.52168 0.0
H188 H 0.04788 0.8933 0.00907 0.0
H189 H 0.03457 0.93646 0.99661 0.0
H190 H 0.09227 0.96301 0.08821 0.0
H191 H 0.10609 0.91921 0.09975 0.0
Dy192 Dy 0.5152 0.99288 0.72375 0.0
Dy193 Dy 0.5283 0.02752 0.88289 0.0
C194 C 0.51892 0.05193 0.70957 0.0
O195 O 0.55279 0.98692 0.70224 0.0
O196 O 0.55901 0.02296 0.77687 0.0
O197 O 0.50017 0.99098 0.60747 0.0
O198 O 0.51356 0.95687 0.65678 0.0
O199 O 0.53828 0.98728 0.90465 0.0
O200 O 0.51161 0.96926 0.84244 0.0
O201 O 0.49211 0.02173 0.9337 0.0
O202 O 0.48225 0.00883 0.80263 0.0
O203 O 0.53495 0.03231 0.01581 0.0
O204 O 0.5399 0.06263 0.92545 0.0
C205 C 0.56647 1.00352 0.72267 0.0
O206 O 0.52539 0.02994 0.66907 0.0
O207 O 0.5129 0.05361 0.79619 0.0
C208 C 0.47931 0.95561 0.6072 0.0
C209 C 0.43473 0.94355 0.611 0.0
C210 C 0.45019 0.94283 0.53027 0.0
C211 C 0.47228 0.94892 0.52844 0.0
C212 C 0.46433 0.955 0.68835 0.0
C213 C 0.44223 0.94902 0.69027 0.0
C214 C 0.50105 0.96643 0.60427 0.0
C215 C 0.52603 0.96816 0.89581 0.0
C216 C 0.47683 0.01625 0.88692 0.0
C217 C 0.56752 0.05427 0.00889 0.0
C218 C 0.61322 0.05596 0.01843 0.0
C219 C 0.60629 0.03966 0.95642 0.0
C220 C 0.58372 0.03856 0.95289 0.0
C221 C 0.57416 0.07092 0.07003 0.0
C222 C 0.59683 0.07162 0.07534 0.0
C223 C 0.54405 0.05366 0.99902 0.0
H224 H 0.44491 0.93908 0.46787 0.0
H225 H 0.48356 0.94956 0.46522 0.0
H226 H 0.46945 0.96025 0.74994 0.0
H227 H 0.43081 0.94956 0.75348 0.0
H228 H 0.61825 0.02767 0.91015 0.0
H229 H 0.57893 0.02539 0.90593 0.0
H230 H 0.56186 0.08322 0.11378 0.0
H231 H 0.6014 0.0841 0.12511 0.0
Dy232 Dy 0.54547 0.51565 0.83498 0.0
Dy233 Dy 0.49366 0.50645 0.78633 0.0
C234 C 0.51521 0.47223 0.92745 0.0
O235 O 0.54851 0.47864 0.75966 0.0
O236 O 0.52097 0.48864 0.68257 0.0
O237 O 0.58195 0.51179 0.81447 0.0
O238 O 0.56288 0.53591 0.92119 0.0
O239 O 0.50507 0.53828 0.70278 0.0
O240 O 0.54127 0.54229 0.72714 0.0
O241 O 0.49045 0.54363 0.85956 0.0
O242 O 0.51821 0.53456 0.93683 0.0
O243 O 0.45761 0.5135 0.80018 0.0
O244 O 0.47498 0.48273 0.7147 0.0
C245 C 0.53674 0.47283 0.69952 0.0
O246 O 0.53498 0.4816 0.9081 0.0
O247 O 0.49734 0.48172 0.8999 0.0
C248 C 0.59852 0.51994 0.9439 0.0
C249 C 0.63151 0.51368 0.05201 0.0
C250 C 0.61214 0.52967 0.08012 0.0
C251 C 0.59597 0.53275 0.02703 0.0
C252 C 0.61765 0.50361 0.91589 0.0
C253 C 0.6339 0.50043 0.96944 0.0
C254 C 0.58264 0.52642 0.88377 0.0
C255 C 0.52409 0.54948 0.69051 0.0
C256 C 0.50229 0.54998 0.91871 0.0
C257 C 0.44137 0.50043 0.67632 0.0
C258 C 0.41118 0.50313 0.55595 0.0
C259 C 0.43398 0.49586 0.526 0.0
C260 C 0.44888 0.49454 0.58532 0.0
C261 C 0.41879 0.50846 0.70588 0.0
C262 C 0.4039 0.50991 0.64647 0.0
C263 C 0.45599 0.49557 0.74222 0.0
H264 H 0.60978 0.5407 0.14193 0.0
H265 H 0.58175 0.54595 0.0502 0.0
H266 H 0.62035 0.49373 0.85173 0.0
H267 H 0.64843 0.48776 0.94561 0.0
H268 H 0.44029 0.49089 0.45662 0.0
H269 H 0.46616 0.48824 0.56011 0.0
H270 H 0.41247 0.51283 0.77569 0.0
H271 H 0.38647 0.51538 0.67219 0.0
Dy272 Dy 0.03338 0.53174 0.70741 0.0
Dy273 Dy 0.02385 0.48434 0.83662 0.0
C274 C 0.03521 0.47585 0.6271 0.0
O275 O 0.99592 0.53024 0.73713 0.0
O276 O 0.9933 0.48905 0.77607 0.0
O277 O 0.04818 0.54659 0.58281 0.0
O278 O 0.02873 0.57152 0.68681 0.0
O279 O 1.01044 0.51973 0.91726 0.0
O280 O 0.03533 0.54567 0.84394 0.0
O281 O 0.05763 0.4954 0.85371 0.0
O282 O 0.06742 0.51667 0.72563 0.0
O283 O 1.01065 0.46942 0.96363 0.0
O284 O 0.02724 0.44435 0.85523 0.0
C285 C 0.98441 0.51002 0.75069 0.0
O286 O 0.02821 0.49925 0.61912 0.0
O287 O 0.04019 0.46849 0.70213 0.0
C288 C 0.06088 0.58662 0.59911 0.0
C289 C 0.10229 0.60857 0.55848 0.0
C290 C 0.08745 0.6091 0.49822 0.0
C291 C 0.06693 0.59819 0.51847 0.0
C292 C 0.07466 0.5879 0.66261 0.0
C293 C 0.09514 0.599 0.64274 0.0
C294 C 0.04237 0.56988 0.61024 0.0
C295 C 0.02112 0.54052 0.91496 0.0
C296 C 0.07268 0.50575 0.79549 0.0
C297 C 0.99591 0.43016 0.95035 0.0
C298 C 0.9545 0.40829 0.99243 0.0
C299 C 0.96798 0.41115 0.05681 0.0
C300 C 0.98846 0.42207 0.0359 0.0
C301 C 0.98339 0.42562 0.88405 0.0
C302 C 0.96289 0.41462 0.90484 0.0
C303 C 1.01499 0.44612 0.93438 0.0
H304 H 0.09238 0.61594 0.43227 0.0
H305 H 0.05652 0.59721 0.46858 0.0
H306 H 0.07026 0.57894 0.72531 0.0
H307 H 0.10596 0.59861 0.69122 0.0
H308 H 0.96198 0.40691 0.12528 0.0
H309 H 0.99778 0.4257 0.08802 0.0
H310 H 0.98881 0.43185 0.81744 0.0
H311 H 0.953 0.41251 0.85365 0.0
H312 H 0.20698 0.97606 0.47012 0.0
H313 H 0.0801 0.0354 0.58759 0.0
H314 H 0.18018 0.03536 0.32816 0.0
H315 H 0.10383 0.97339 0.72654 0.0
H316 H 0.11749 0.03694 0.49869 0.0
H317 H 0.17067 0.97658 0.5726 0.0
C318 C 0.19362 0.98946 0.46133 0.0
C319 C 0.19666 1.00557 0.38984 0.0
C320 C 0.11462 0.02296 0.54858 0.0
C321 C 0.15493 0.00607 0.50626 0.0
C322 C 0.09313 0.02202 0.5995 0.0
C323 C 0.08858 1.00412 0.66473 0.0
C324 C 0.13198 1.00589 0.56234 0.0
C325 C 0.10643 0.98746 0.67694 0.0
C326 C 0.17281 0.9896 0.51939 0.0
C327 C 0.1786 0.02237 0.38145 0.0
N328 N 0.12726 0.98871 0.62626 0.0
N329 N 0.15863 0.02208 0.43828 0.0
H330 H 0.56891 0.16225 0.33842 0.0
H331 H 0.49931 0.0996 0.75802 0.0
H332 H 0.50531 0.19685 0.47161 0.0
H333 H 0.54282 0.05732 0.54313 0.0
H334 H 0.50413 0.13778 0.67141 0.0
H335 H 0.563 0.12644 0.43253 0.0
C336 C 0.55361 0.16237 0.3873 0.0
C337 C 0.53733 0.18252 0.3951 0.0
C338 C 0.51251 0.12008 0.64344 0.0
C339 C 0.53074 0.14137 0.50552 0.0
C340 C 0.50981 0.09831 0.69273 0.0
C341 C 0.52063 0.07515 0.65776 0.0
C342 C 0.52653 0.11876 0.55958 0.0
C343 C 0.53403 0.07463 0.57278 0.0
C344 C 0.55031 0.14185 0.44133 0.0
C345 C 0.51831 0.1818 0.46267 0.0
N346 N 0.53674 0.09607 0.5272 0.0
N347 N 0.51548 0.16151 0.51512 0.0
H348 H 0.33686 0.4591 0.15166 0.0
H349 H 0.37582 0.53703 0.5462 0.0
H350 H 0.30874 0.53355 0.2433 0.0
H351 H 0.40923 0.46762 0.42446 0.0
H352 H 0.3492 0.53494 0.44487 0.0
H353 H 0.36126 0.46066 0.26048 0.0
C354 C 0.33577 0.47582 0.19467 0.0
C355 C 0.32079 0.49635 0.18714 0.0
C356 C 0.36238 0.52019 0.44034 0.0
C357 C 0.34881 0.49816 0.31342 0.0
C358 C 0.37756 0.52131 0.49843 0.0
C359 C 0.39496 0.50255 0.49385 0.0
C360 C 0.36442 0.50002 0.37745 0.0
C361 C 0.39639 0.48276 0.42982 0.0
C362 C 0.34973 0.47666 0.25714 0.0
C363 C 0.31988 0.5172 0.24665 0.0
N364 N 0.38136 0.48201 0.37457 0.0
N365 N 0.33376 0.51763 0.3068 0.0
H366 H 0.0279 0.39768 0.12659 0.0
H367 H 0.04359 0.42475 0.62728 0.0
H368 H 0.02844 0.34047 0.31927 0.0
H369 H 0.02865 0.48384 0.45723 0.0
H370 H 0.04251 0.39371 0.50812 0.0
H371 H 0.03197 0.42954 0.24039 0.0
C372 C 0.02883 0.39178 0.19263 0.0
C373 C 0.02776 0.36624 0.21292 0.0
C374 C 0.03956 0.41347 0.4966 0.0
C375 C 0.03287 0.40263 0.34329 0.0
C376 C 0.04027 0.43127 0.56465 0.0
C377 C 0.03617 0.45703 0.5526 0.0
C378 C 0.03482 0.42136 0.41528 0.0
C379 C 0.03187 0.46421 0.46975 0.0
C380 C 0.03129 0.40998 0.25746 0.0
C381 C 0.02956 0.35977 0.29951 0.0
N382 N 0.03128 0.44648 0.40436 0.0
N383 N 0.032 0.37777 0.36113 0.0
H384 H 0.83846 0.9953 0.11435 0.0
H385 H 0.97015 1.00509 0.10734 0.0
H386 H 0.8691 0.98519 0.34303 0.0
H387 H 0.94178 1.00098 0.87048 0.0
H388 H 0.93259 1.00311 0.19671 0.0
H389 H 0.87527 1.00336 0.02667 0.0
C390 C 0.85283 0.99525 0.14654 0.0
C391 C 0.85065 0.98943 0.23618 0.0
C392 C 0.93456 1.00272 0.12516 0.0
C393 C 0.89296 0.99838 0.13601 0.0
C394 C 0.95606 1.00388 0.07396 0.0
C395 C 0.95931 1.00307 0.98089 0.0
C396 C 0.91599 1.00092 0.08342 0.0
C397 C 0.94024 1.00151 0.94185 0.0
C398 C 0.8739 0.99961 0.09627 0.0
C399 C 0.86998 0.98936 0.27399 0.0
N400 N 0.91951 1.00047 0.99308 0.0
N401 N 0.89022 0.99363 0.2239 0.0
H402 H 0.53096 0.81328 0.06349 0.0
H403 H 0.54986 0.96073 0.02892 0.0
H404 H 0.55893 0.8568 0.25315 0.0
H405 H 0.50854 0.9223 0.87482 0.0
H406 H 0.55451 0.92213 0.10751 0.0
H407 H 0.52301 0.85233 0.99101 0.0
C408 C 0.53522 0.831 0.09059 0.0
C409 C 0.54593 0.83156 0.16412 0.0
C410 C 0.54435 0.92213 0.05671 0.0
C411 C 0.5372 0.87636 0.08035 0.0
C412 C 0.54175 0.9442 0.01154 0.0
C413 C 0.52879 0.94486 0.94497 0.0
C414 C 0.53414 0.90035 0.03486 0.0
C415 C 0.51865 0.92275 0.92572 0.0
C416 C 0.5308 0.85329 0.04877 0.0
C417 C 0.55118 0.8552 0.1955 0.0
N418 N 0.52163 0.90141 0.97001 0.0
N419 N 0.54694 0.87649 0.15321 0.0
H420 H 0.75778 0.50909 0.24501 0.0
H421 H 0.62662 0.51509 0.23436 0.0
H422 H 0.70699 0.54028 0.46058 0.0
H423 H 0.67747 0.50849 0.99679 0.0
H424 H 0.65588 0.51691 0.32288 0.0
H425 H 0.72854 0.50112 0.15878 0.0
C426 C 0.74045 0.51389 0.27472 0.0
C427 C 0.73483 0.52544 0.36011 0.0
C428 C 0.66063 0.51494 0.25137 0.0
C429 C 0.7013 0.5164 0.26176 0.0
C430 C 0.6439 0.51402 0.20044 0.0
C431 C 0.64939 0.51201 0.10725 0.0
C432 C 0.6832 0.51356 0.20946 0.0
C433 C 0.67225 0.50991 0.06811 0.0
C434 C 0.7238 0.50952 0.22522 0.0
C435 C 0.7121 0.53153 0.39482 0.0
N436 N 0.68826 0.51085 0.11926 0.0
N437 N 0.69622 0.52695 0.34566 0.0
H438 H 0.03103 0.65458 0.32239 0.0
H439 H 0.98379 0.54744 0.04625 0.0
H440 H 0.96091 0.65246 0.30971 0.0
H441 H 0.04892 0.57545 0.95844 0.0
H442 H 0.97655 0.57995 0.16699 0.0
H443 H 0.03924 0.62001 0.20994 0.0
C444 C 1.01733 0.64704 0.29637 0.0
C445 C 0.99516 0.65676 0.32656 0.0
C446 C 0.99246 0.57883 0.12143 0.0
C447 C 1.00455 0.61647 0.19953 0.0
C448 C 0.99664 0.56024 0.05289 0.0
C449 C 1.01692 0.55885 0.99188 0.0
C450 C 1.00887 0.59578 0.13018 0.0
C451 C 0.03297 0.576 0.00353 0.0
C452 C 0.02207 0.62714 0.2325 0.0
C453 C 0.9782 0.64549 0.2909 0.0
N454 N 0.02864 0.59369 0.07144 0.0
N455 N 0.98323 0.62597 0.2299 0.0
H456 H 0.08246 0.22098 0.26004 0.0
H457 H 0.99492 0.15035 0.59186 0.0
H458 H 1.01364 0.24761 0.3484 0.0
H459 H 0.0592 0.11946 0.45069 0.0
H460 H 1.00584 0.19246 0.54912 0.0
H461 H 0.07893 0.19231 0.38218 0.0
C462 C 0.06689 0.22149 0.30762 0.0
C463 C 0.04813 0.23603 0.29342 0.0
C464 C 1.01768 0.17645 0.52933 0.0
C465 C 0.04366 0.20278 0.43005 0.0
C466 C 1.01136 0.1524 0.55254 0.0
C467 C 0.02593 0.13123 0.52295 0.0
C468 C 0.03869 0.17929 0.47622 0.0
C469 C 0.04733 0.13512 0.47498 0.0
C470 C 0.06479 0.20501 0.37677 0.0
C471 C 0.02837 0.23631 0.3568 0.0
N472 N 0.05291 0.15861 0.45217 0.0
N473 N 0.02639 0.21924 0.4211 0.0
H474 H 0.32162 0.93354 0.37534 0.0
H475 H 0.39949 0.9725 0.70769 0.0
H476 H 0.31279 1.00267 0.53427 0.0
H477 H 0.41473 0.91083 0.5126 0.0
H478 H 0.361 0.97522 0.68386 0.0
H479 H 0.34767 0.91669 0.46565 0.0
C480 C 0.32431 0.94463 0.43234 0.0
C481 C 0.31514 0.96944 0.44786 0.0
C482 C 0.37263 0.96072 0.64764 0.0
C483 C 0.34556 0.95091 0.54856 0.0
C484 C 0.39463 0.95905 0.66153 0.0
C485 C 0.41052 0.94172 0.61066 0.0
C486 C 0.36648 0.94506 0.58212 0.0
C487 C 0.40318 0.9249 0.55155 0.0
C488 C 0.33942 0.9352 0.48304 0.0
C489 C 0.31949 0.98337 0.52091 0.0
N490 N 0.38179 0.92727 0.53783 0.0
N491 N 0.33481 0.97413 0.56748 0.0
H492 H 0.56707 0.32379 0.45251 0.0
H493 H 0.50796 0.4517 0.60725 0.0
H494 H 0.49597 0.33175 0.54846 0.0
H495 H 0.56808 0.43397 0.70974 0.0
H496 H 0.50665 0.4075 0.56592 0.0
H497 H 0.57131 0.36232 0.53898 0.0
C498 C 0.55254 0.33284 0.49584 0.0
C499 C 0.53113 0.32472 0.49366 0.0
C500 C 0.52011 0.41328 0.59766 0.0
C501 C 0.53571 0.36904 0.58796 0.0
C502 C 0.52107 0.43861 0.62029 0.0
C503 C 0.53815 0.44666 0.66232 0.0
C504 C 0.53659 0.39576 0.61503 0.0
C505 C 0.55464 0.42858 0.67728 0.0
C506 C 0.55493 0.35497 0.544 0.0
C507 C 0.51273 0.33743 0.54888 0.0
N508 N 0.5536 0.40388 0.65283 0.0
N509 N 0.51534 0.35943 0.59161 0.0
H510 H 0.22706 0.55119 0.31178 0.0
H511 H 0.1204 0.6442 0.44393 0.0
H512 H 0.2011 0.60108 0.13413 0.0
H513 H 0.13918 0.58289 0.59814 0.0
H514 H 0.15819 0.64091 0.35509 0.0
H515 H 0.20423 0.57526 0.43755 0.0
C516 C 0.21714 0.56774 0.29928 0.0
C517 C 0.21542 0.57373 0.21243 0.0
C518 C 0.15417 0.6287 0.41014 0.0
C519 C 0.18892 0.60096 0.35578 0.0
C520 C 0.13257 0.6305 0.46073 0.0
C521 C 0.12625 0.61314 0.52643 0.0
C522 C 0.16949 0.60941 0.42547 0.0
C523 C 0.14301 0.59646 0.54741 0.0
C524 C 0.20399 0.5814 0.37116 0.0
C525 C 0.20235 0.59541 0.20018 0.0
N526 N 0.16368 0.5946 0.49564 0.0
N527 N 0.18917 0.60791 0.27104 0.0
H528 H 0.03496 0.76798 0.21127 0.0
H529 H 0.07558 0.86031 0.95043 0.0
H530 H 0.08717 0.77914 0.3605 0.0
H531 H 0.09604 0.88437 0.19252 0.0
H532 H 0.07672 0.81687 0.99741 0.0
H533 H 0.05324 0.79472 0.09832 0.0
C534 C 0.05089 0.77505 0.21817 0.0
C535 C 0.05925 0.77194 0.29648 0.0
C536 C 0.08123 0.83162 0.03963 0.0
C537 C 0.08016 0.80306 0.16811 0.0
C538 C 0.08062 0.85643 0.01289 0.0
C539 C 0.08487 0.87616 0.06929 0.0
C540 C 0.08601 0.82663 0.12353 0.0
C541 C 0.09226 0.8699 0.14748 0.0
C542 C 0.06139 0.79048 0.15341 0.0
C543 C 0.07989 0.78169 0.302 0.0
N544 N 0.09215 0.84573 0.1731 0.0
N545 N 0.08924 0.79757 0.24027 0.0
H546 H 0.73942 1.00041 0.11168 0.0
H547 H 0.63749 0.09521 0.06309 0.0
H548 H 0.72313 0.07095 0.26105 0.0
H549 H 0.64415 0.01555 0.99201 0.0
H550 H 0.67576 0.09239 0.0913 0.0
H551 H 0.71309 0.01305 0.01648 0.0
C552 C 0.73114 0.0191 0.12148 0.0
C553 C 0.7331 0.03455 0.19477 0.0
C554 C 0.66888 0.07571 0.06772 0.0
C555 C 0.70248 0.0487 0.08894 0.0
C556 C 0.64694 0.07719 0.05266 0.0
C557 C 0.63725 0.05552 0.02642 0.0
C558 C 0.68131 0.05244 0.05577 0.0
C559 C 0.65071 0.03289 0.0114 0.0
C560 C 0.71585 0.02616 0.06811 0.0
C561 C 0.72184 0.05848 0.2054 0.0
N562 N 0.67189 0.03194 0.02708 0.0
N563 N 0.70652 0.06461 0.1545 0.0
H564 H 0.54005 0.69541 0.05516 0.0
H565 H 0.46621 0.58468 0.93913 0.0
H566 H 0.4712 0.69383 0.18552 0.0
H567 H 0.53496 0.57578 0.97164 0.0
H568 H 0.46582 0.62971 0.98368 0.0
H569 H 0.53574 0.65761 0.9668 0.0
C570 C 0.5237 0.68789 0.06182 0.0
C571 C 0.50602 0.69752 0.1282 0.0
C572 C 0.48093 0.61774 0.98046 0.0
C573 C 0.50117 0.65409 0.02948 0.0
C574 C 0.48113 0.59213 0.95602 0.0
C575 C 0.50054 0.57637 0.95329 0.0
C576 C 0.50051 0.62764 0.99886 0.0
C577 C 0.51951 0.58703 0.9744 0.0
C578 C 0.52136 0.66609 0.01256 0.0
C579 C 0.48524 0.68679 0.13509 0.0
N580 N 0.51906 0.61198 0.99562 0.0
N581 N 0.48347 0.66523 0.08767 0.0
H582 H 0.83441 0.47546 0.21674 0.0
H583 H 0.9351 0.37577 0.1161 0.0
H584 H 0.85165 0.4224 0.40356 0.0
H585 H 0.91878 0.43163 0.93671 0.0
H586 H 0.89681 0.38131 0.1995 0.0
H587 H 0.85612 0.4488 0.09606 0.0
C588 C 0.84218 0.45781 0.23238 0.0
C589 C 0.8418 0.45154 0.32066 0.0
C590 C 0.90143 0.3918 0.14028 0.0
C591 C 0.86734 0.42132 0.1827 0.0
C592 C 0.92331 0.38865 0.09268 0.0
C593 C 0.93044 0.404 0.02149 0.0
C594 C 0.88675 0.41059 0.1168 0.0
C595 C 0.91426 0.41971 0.99217 0.0
C596 C 0.85473 0.44262 0.16323 0.0
C597 C 0.85219 0.42837 0.33652 0.0
N598 N 0.89335 0.42312 0.04144 0.0
N599 N 0.86503 0.41441 0.26838 0.0
H600 H 0.07952 0.19722 0.98687 0.0
H601 H 1.00043 0.09482 0.84055 0.0
H602 H 1.00993 0.21451 0.98212 0.0
H603 H 0.06264 0.07647 0.92657 0.0
H604 H 1.00587 0.13966 0.86316 0.0
H605 H 0.07621 0.15448 0.92957 0.0
C606 C 0.06372 0.19225 0.97067 0.0
C607 C 0.04497 0.20948 0.98923 0.0
C608 C 1.01832 0.1258 0.87693 0.0
C609 C 0.04086 0.16023 0.92596 0.0
C610 C 1.01523 0.10015 0.86431 0.0
C611 C 0.03099 0.08169 0.88269 0.0
C612 C 0.03747 0.13319 0.907 0.0
C613 C 0.04991 0.08991 0.91251 0.0
C614 C 0.06174 0.16773 0.93923 0.0
C615 C 0.02483 0.20193 0.96796 0.0
N616 N 0.05261 0.11497 0.92361 0.0
N617 N 0.02321 0.17775 0.93859 0.0
H618 H 0.3536 0.03537 0.27504 0.0
H619 H 0.4405 1.00029 0.82137 0.0
H620 H 0.33635 0.99154 0.05995 0.0
H621 H 0.45784 0.03583 0.05355 0.0
H622 H 0.40141 1.00126 0.89821 0.0
H623 H 0.39027 0.04099 0.18457 0.0
C624 C 0.35738 0.0274 0.20777 0.0
C625 C 0.34182 0.01299 0.17507 0.0
C626 C 0.41375 0.009 0.93209 0.0
C627 C 0.38428 0.01883 0.07103 0.0
C628 C 0.43614 0.00848 0.88821 0.0
C629 C 0.4527 0.01791 0.93091 0.0
C630 C 0.40769 0.01919 0.01939 0.0
C631 C 0.44584 0.02822 0.01773 0.0
C632 C 0.37844 0.03042 0.15629 0.0
C633 C 0.34772 1.00299 0.08752 0.0
N634 N 0.42399 0.02853 0.05881 0.0
N635 N 0.36856 1.00584 0.0389 0.0
H636 H 0.54507 0.32417 0.10865 0.0
H637 H 0.47774 0.45186 0.02143 0.0
H638 H 0.48238 0.35023 0.27385 0.0
H639 H 0.54909 0.43761 0.93948 0.0
H640 H 0.47604 0.41101 0.09219 0.0
H641 H 0.54303 0.36131 0.01904 0.0
C642 C 0.5305 0.33727 0.12409 0.0
C643 C 0.51383 0.33411 0.19838 0.0
C644 C 0.49204 0.41692 0.05867 0.0
C645 C 0.5116 0.37688 0.0978 0.0
C646 C 0.49304 0.44024 0.01861 0.0
C647 C 0.51363 0.44841 0.97559 0.0
C648 C 0.51169 0.4014 0.05385 0.0
C649 C 0.53288 0.43239 0.97324 0.0
C650 C 0.5295 0.35864 0.07389 0.0
C651 C 0.49553 0.35197 0.21676 0.0
N652 N 0.53142 0.40969 0.01136 0.0
N653 N 0.49496 0.37268 0.16726 0.0
H654 H 0.1939 0.48326 0.01452 0.0
H655 H 0.10548 0.5371 0.72731 0.0
H656 H 0.19512 0.55736 0.9096 0.0
H657 H 0.09285 0.47598 0.90418 0.0
H658 H 0.14233 0.54008 0.76798 0.0
H659 H 0.16104 0.4755 0.94784 0.0
C660 C 0.18758 0.49762 0.97554 0.0
C661 C 0.19725 0.52094 0.96727 0.0
C662 C 0.13155 0.52587 0.79724 0.0
C663 C 0.15961 0.51238 0.89164 0.0
C664 C 0.11053 0.52407 0.77373 0.0
C665 C 0.09592 0.50633 0.81266 0.0
C666 C 0.13821 0.5096 0.85929 0.0
C667 C 0.10343 0.49008 0.87292 0.0
C668 C 0.16872 0.49332 0.93828 0.0
C669 C 0.18816 0.53911 0.91736 0.0
N670 N 0.12398 0.49212 0.89438 0.0
N671 N 0.16986 0.53449 0.88173 0.0
H672 H 0.98697 0.81195 0.55403 0.0
H673 H 0.03955 0.91263 0.84115 0.0
H674 H 0.05008 0.79757 0.63646 0.0
H675 H 0.99626 0.9334 0.65926 0.0
H676 H 0.03745 0.86821 0.7983 0.0
H677 H 0.98358 0.85404 0.62747 0.0
C678 C 0.99968 0.81733 0.59056 0.0
C679 C 1.01871 0.80123 0.59016 0.0
C680 C 0.02828 0.88251 0.76835 0.0
C681 C 1.01521 0.84939 0.67247 0.0
C682 C 0.02941 0.90786 0.79288 0.0
C683 C 1.01814 0.92682 0.75339 0.0
C684 C 1.01546 0.87596 0.70503 0.0
C685 C 1.00538 0.91946 0.69078 0.0
C686 C 0.99792 0.84144 0.63121 0.0
C687 C 0.03504 0.80936 0.63625 0.0
N688 N 1.00435 0.89463 0.66868 0.0
N689 N 0.03298 0.83292 0.67522 0.0
H690 H 0.70517 0.03655 0.55316 0.0
H691 H 0.59068 0.96575 0.61012 0.0
H692 H 0.70026 0.96476 0.42386 0.0
H693 H 0.59844 0.03587 0.74663 0.0
H694 H 0.63101 0.9632 0.54828 0.0
H695 H 0.66688 0.0343 0.63538 0.0
C696 C 0.69625 0.01988 0.5446 0.0
C697 C 0.70609 1.00053 0.4834 0.0
C698 C 0.62386 0.97905 0.59223 0.0
C699 C 0.66168 0.99828 0.57389 0.0
C700 C 0.60078 0.98057 0.62733 0.0
C701 C 0.59094 1.00109 0.68372 0.0
C702 C 0.63727 0.99821 0.61345 0.0
C703 C 0.60505 0.01965 0.70367 0.0
C704 C 0.67425 0.01872 0.59053 0.0
C705 C 0.69347 0.97976 0.4722 0.0
N706 N 0.62731 0.01779 0.66857 0.0
N707 N 0.67187 0.97929 0.51617 0.0
H708 H 0.48508 0.68646 0.45974 0.0
H709 H 0.55997 0.57904 0.64232 0.0
H710 H 0.55706 0.68481 0.4066 0.0
H711 H 0.49025 0.57452 0.62756 0.0
H712 H 0.55951 0.62015 0.57401 0.0
H713 H 0.48676 0.64903 0.54678 0.0
C714 C 0.50124 0.67857 0.4686 0.0
C715 C 0.52094 0.68874 0.42597 0.0
C716 C 0.54438 0.61004 0.58562 0.0
C717 C 0.52309 0.64532 0.52344 0.0
C718 C 0.54464 0.58649 0.62411 0.0
C719 C 0.52516 0.57305 0.64043 0.0
C720 C 0.52442 0.62041 0.56443 0.0
C721 C 0.50577 0.5839 0.61597 0.0
C722 C 0.50223 0.657 0.51732 0.0
C723 C 0.54148 0.67767 0.4391 0.0
N724 N 0.50589 0.60687 0.57982 0.0
N725 N 0.54205 0.65634 0.48583 0.0
H726 H 0.86069 0.46161 0.62355 0.0
H727 H 0.96047 0.54826 0.68537 0.0
H728 H 0.86301 0.53851 0.54465 0.0
H729 H 0.95525 0.47219 0.77291 0.0
H730 H 0.92347 0.54671 0.64519 0.0
H731 H 0.89333 0.46693 0.69212 0.0
C732 C 0.86785 0.47981 0.62226 0.0
C733 C 0.85909 0.49964 0.57825 0.0
C734 C 0.93035 0.53044 0.67387 0.0
C735 C 0.89699 0.50578 0.65511 0.0
C736 C 0.95152 0.5313 0.69692 0.0
C737 C 0.9612 0.51027 0.73217 0.0
C738 C 0.91869 0.50837 0.6859 0.0
C739 C 0.94867 0.48886 0.74551 0.0
C740 C 0.88659 0.48282 0.66102 0.0
C741 C 0.86909 0.52279 0.57847 0.0
N742 N 0.92823 0.48843 0.72193 0.0
N743 N 0.88767 0.52513 0.61514 0.0
loop_
_geom_bond_atom_site_label_1
_geom_bond_atom_site_label_2
_geom_bond_distance
_geom_bond_site_symmetry_2
_ccdc_geom_bond_type
H0 C1 0.949 . S
C1 H0 0.949 . S
C1 C2 1.395 . S
C1 C3 1.391 . S
C2 C1 1.395 . S
C2 C5 1.390 . S
C3 C1 1.391 . S
C3 C7 1.387 . S
C3 C8 1.491 . S
H4 C5 0.950 . S
C5 C2 1.390 . S
C5 H4 0.950 . S
C5 C6 1.378 . S
C6 C5 1.378 . S
C6 C7 1.409 . S
C7 C3 1.387 . S
C7 C6 1.409 . S
C7 H9 0.951 . S
C8 C3 1.491 . S
C8 C10 1.382 . S
C8 C12 1.404 . S
H9 C7 0.951 . S
C10 C8 1.382 . S
C10 C11 1.390 . S
C10 H15 0.949 . S
C11 C10 1.390 . S
C11 C16 1.399 . S
C12 C8 1.404 . S
C12 H13 0.950 . S
C12 C14 1.375 . S
H13 C12 0.950 . S
C14 C12 1.375 . S
C14 C16 1.382 . S
C14 H18 0.950 . S
H15 C10 0.949 . S
C16 C11 1.399 . S
C16 C14 1.382 . S
C16 H17 0.952 . S
H17 C16 0.952 . S
H18 C14 0.950 . S
H19 C20 0.949 . S
C20 H19 0.949 . S
C20 C21 1.395 . S
C20 C22 1.391 . S
C21 C20 1.395 . S
C21 C24 1.390 . S
C22 C20 1.391 . S
C22 C26 1.387 . S
C22 C27 1.491 . S
H23 C24 0.950 . S
C24 C21 1.390 . S
C24 H23 0.950 . S
C24 C25 1.378 . S
C25 C24 1.378 . S
C25 C26 1.409 . S
C26 C22 1.387 . S
C26 C25 1.409 . S
C26 H28 0.951 . S
C27 C22 1.491 . S
C27 C29 1.382 . S
C27 C31 1.404 . S
H28 C26 0.951 . S
C29 C27 1.382 . S
C29 C30 1.390 . S
C29 H34 0.949 1_655 S
C30 C29 1.390 . S
C30 C35 1.399 . S
C31 C27 1.404 . S
C31 H32 0.950 . S
C31 C33 1.375 . S
H32 C31 0.950 . S
C33 C31 1.375 . S
C33 C35 1.382 . S
C33 H37 0.950 . S
H34 C29 0.949 1_455 S
C35 C30 1.399 . S
C35 C33 1.382 . S
C35 H36 0.952 . S
H36 C35 0.952 . S
H37 C33 0.950 . S
H38 C39 0.949 . S
C39 H38 0.949 . S
C39 C40 1.395 . S
C39 C41 1.391 . S
C40 C39 1.395 . S
C40 C43 1.390 1_565 S
C41 C39 1.391 . S
C41 C45 1.387 . S
C41 C46 1.491 . S
H42 C43 0.952 . S
C43 C40 1.390 1_545 S
C43 H42 0.952 . S
C43 C44 1.376 1_545 S
C44 C43 1.376 1_565 S
C44 C45 1.409 . S
C45 C41 1.387 . S
C45 C44 1.409 . S
C45 H47 0.951 . S
C46 C41 1.491 . S
C46 C48 1.382 . S
C46 C50 1.404 . S
H47 C45 0.951 . S
C48 C46 1.382 . S
C48 C49 1.390 . S
C48 H53 0.949 1_565 S
C49 C48 1.390 . S
C49 C54 1.399 . S
C50 C46 1.404 . S
C50 H51 0.950 . S
C50 C52 1.375 . S
H51 C50 0.950 . S
C52 C50 1.375 . S
C52 C54 1.382 . S
C52 H56 0.950 . S
H53 C48 0.949 1_545 S
C54 C49 1.399 . S
C54 C52 1.382 . S
C54 H55 0.952 . S
H55 C54 0.952 . S
H56 C52 0.950 . S
H57 C58 0.949 . S
C58 H57 0.949 . S
C58 C59 1.395 . S
C58 C60 1.391 . S
C59 C58 1.395 . S
C59 C62 1.390 . S
C60 C58 1.391 . S
C60 C64 1.387 . S
C60 C65 1.491 . S
H61 C62 0.950 . S
C62 C59 1.390 . S
C62 H61 0.950 . S
C62 C63 1.378 . S
C63 C62 1.378 . S
C63 C64 1.409 . S
C64 C60 1.387 . S
C64 C63 1.409 . S
C64 H66 0.951 . S
C65 C60 1.491 . S
C65 C67 1.382 . S
C65 C69 1.404 . S
H66 C64 0.951 . S
C67 C65 1.382 . S
C67 C68 1.390 . S
C67 H72 0.949 . S
C68 C67 1.390 . S
C68 C73 1.399 . S
C69 C65 1.404 . S
C69 H70 0.950 . S
C69 C71 1.375 . S
H70 C69 0.950 . S
C71 C69 1.375 . S
C71 C73 1.382 . S
C71 H75 0.950 . S
H72 C67 0.949 . S
C73 C68 1.399 . S
C73 C71 1.382 . S
C73 H74 0.952 . S
H74 C73 0.952 . S
H75 C71 0.950 . S
H76 C77 0.949 . S
C77 H76 0.949 . S
C77 C78 1.395 . S
C77 C79 1.391 1_554 S
C78 C77 1.395 . S
C78 C81 1.390 1_554 S
C79 C77 1.391 1_556 S
C79 C83 1.387 . S
C79 C84 1.491 . S
H80 C81 0.950 . S
C81 C78 1.390 1_556 S
C81 H80 0.950 . S
C81 C82 1.378 . S
C82 C81 1.378 . S
C82 C83 1.409 . S
C83 C79 1.387 . S
C83 C82 1.409 . S
C83 H85 0.951 . S
C84 C79 1.491 . S
C84 C86 1.382 1_556 S
C84 C88 1.404 . S
H85 C83 0.951 . S
C86 C84 1.382 1_554 S
C86 C87 1.390 . S
C86 H91 0.949 . S
C87 C86 1.390 . S
C87 C92 1.399 1_554 S
C88 C84 1.404 . S
C88 H89 0.950 . S
C88 C90 1.375 . S
H89 C88 0.950 . S
C90 C88 1.375 . S
C90 C92 1.382 . S
C90 H94 0.950 . S
H91 C86 0.949 . S
C92 C87 1.399 1_556 S
C92 C90 1.382 . S
C92 H93 0.952 . S
H93 C92 0.952 . S
H94 C90 0.950 . S
H95 C96 0.949 . S
C96 H95 0.949 . S
C96 C97 1.395 . S
C96 C98 1.391 . S
C97 C96 1.395 . S
C97 C100 1.390 . S
C98 C96 1.391 . S
C98 C102 1.387 . S
C98 C103 1.491 . S
H99 C100 0.950 . S
C100 C97 1.390 . S
C100 H99 0.950 . S
C100 C101 1.378 . S
C101 C100 1.378 . S
C101 C102 1.409 . S
C102 C98 1.387 . S
C102 C101 1.409 . S
C102 H104 0.951 1_554 S
C103 C98 1.491 . S
C103 C105 1.382 . S
C103 C107 1.404 1_455 S
H104 C102 0.951 1_556 S
C105 C103 1.382 . S
C105 C106 1.390 . S
C105 H110 0.949 . S
C106 C105 1.390 . S
C106 C111 1.399 1_455 S
C107 C103 1.404 1_655 S
C107 H108 0.950 . S
C107 C109 1.375 . S
H108 C107 0.950 . S
C109 C107 1.375 . S
C109 C111 1.382 . S
C109 H113 0.950 . S
H110 C105 0.949 . S
C111 C106 1.399 1_655 S
C111 C109 1.382 . S
C111 H112 0.952 . S
H112 C111 0.952 . S
H113 C109 0.950 . S
H114 C115 0.954 . S
C115 H114 0.954 . S
C115 C116 1.387 1_565 S
C115 C117 1.395 . S
C116 C115 1.387 1_545 S
C116 C119 1.390 . S
C117 C115 1.395 . S
C117 C121 1.387 . S
C117 C122 1.491 . S
H118 C119 0.950 . S
C119 C116 1.390 . S
C119 H118 0.950 . S
C119 C120 1.378 . S
C120 C119 1.378 . S
C120 C121 1.409 1_545 S
C121 C117 1.387 . S
C121 C120 1.409 1_565 S
C121 H123 0.951 . S
C122 C117 1.491 . S
C122 C124 1.382 1_565 S
C122 C126 1.404 . S
H123 C121 0.951 . S
C124 C122 1.382 1_545 S
C124 C125 1.390 1_545 S
C124 H129 0.949 . S
C125 C124 1.390 1_565 S
C125 C130 1.399 . S
C126 C122 1.404 . S
C126 H127 0.950 . S
C126 C128 1.375 . S
H127 C126 0.950 . S
C128 C126 1.375 . S
C128 C130 1.382 . S
C128 H132 0.950 . S
H129 C124 0.949 . S
C130 C125 1.399 . S
C130 C128 1.382 . S
C130 H131 0.952 . S
H131 C130 0.952 . S
H132 C128 0.950 . S
H133 C134 0.949 . S
C134 H133 0.949 . S
C134 C135 1.395 . S
C134 C136 1.391 . S
C135 C134 1.395 . S
C135 C138 1.390 . S
C136 C134 1.391 . S
C136 C140 1.387 . S
C136 C141 1.491 . S
H137 C138 0.950 . S
C138 C135 1.390 . S
C138 H137 0.950 . S
C138 C139 1.378 . S
C139 C138 1.378 . S
C139 C140 1.409 . S
C140 C136 1.387 . S
C140 C139 1.409 . S
C140 H142 0.951 . S
C141 C136 1.491 . S
C141 C143 1.382 . S
C141 C145 1.404 . S
H142 C140 0.951 . S
C143 C141 1.382 . S
C143 C144 1.390 . S
C143 H148 0.949 . S
C144 C143 1.390 . S
C144 C149 1.399 . S
C145 C141 1.404 . S
C145 H146 0.950 . S
C145 C147 1.375 . S
H146 C145 0.950 . S
C147 C145 1.375 . S
C147 C149 1.382 . S
C147 H151 0.950 . S
H148 C143 0.949 . S
C149 C144 1.399 . S
C149 C147 1.382 . S
C149 H150 0.952 . S
H150 C149 0.952 . S
H151 C147 0.950 . S
Dy152 O155 2.307 1_545 S
Dy152 O157 2.395 1_655 S
Dy152 O158 2.379 . S
Dy152 O160 2.339 . S
Dy152 O162 2.296 1_655 S
Dy152 O166 2.275 1_655 S
Dy152 C174 2.738 . S
Dy153 O156 2.298 . S
Dy153 O159 2.275 1_455 S
Dy153 O161 2.307 1_565 S
Dy153 O163 2.395 1_455 S
Dy153 O164 2.379 . S
Dy153 O167 2.339 . S
Dy153 C183 2.738 . S
C154 O166 1.254 1_565 S
C154 O167 1.257 . S
O155 Dy152 2.307 1_565 S
O155 C165 1.266 1_655 S
O156 Dy153 2.298 . S
O156 C165 1.236 . S
O157 Dy152 2.395 1_455 S
O157 C174 1.255 1_455 S
O158 Dy152 2.379 . S
O158 C174 1.249 . S
O159 Dy153 2.275 1_655 S
O159 C175 1.254 1_565 S
O160 Dy152 2.339 . S
O160 C175 1.257 . S
O161 Dy153 2.307 1_545 S
O161 C176 1.266 . S
O162 Dy152 2.296 1_455 S
O162 C176 1.241 . S
O163 Dy153 2.395 1_655 S
O163 C183 1.255 1_655 S
O164 Dy153 2.379 . S
O164 C183 1.249 . S
C165 O155 1.266 1_455 S
C165 O156 1.236 . S
O166 Dy152 2.275 1_455 S
O166 C154 1.254 1_545 S
O167 Dy153 2.339 . S
O167 C154 1.257 . S
C168 C171 1.344 1_655 S
C168 C172 1.328 . S
C168 C174 1.516 . S
C169 C170 1.263 1_655 S
C169 C173 1.366 . S
C170 C169 1.263 1_455 S
C170 C171 1.371 . S
C170 H184 0.930 . S
C171 C168 1.344 1_455 S
C171 C170 1.371 . S
C171 H185 0.931 . S
C172 C168 1.328 . S
C172 C173 1.433 . S
C172 H186 0.931 . S
C173 C169 1.366 . S
C173 C172 1.433 . S
C173 H187 0.933 . S
C174 Dy152 2.738 . S
C174 O157 1.255 1_655 S
C174 O158 1.249 . S
C174 C168 1.516 . S
C175 O159 1.254 1_545 S
C175 O160 1.257 . S
C176 O161 1.266 . S
C176 O162 1.241 . S
C177 C180 1.344 1_455 S
C177 C181 1.328 . S
C177 C183 1.516 1_554 S
C178 C179 1.304 1_455 S
C178 C182 1.323 . S
C179 C178 1.304 1_655 S
C179 C180 1.371 . S
C179 H188 0.930 . S
C180 C177 1.344 1_655 S
C180 C179 1.371 . S
C180 H189 0.931 . S
C181 C177 1.328 . S
C181 C182 1.433 . S
C181 H190 0.931 . S
C182 C178 1.323 . S
C182 C181 1.433 . S
C182 H191 0.933 . S
C183 Dy153 2.738 . S
C183 O163 1.255 1_455 S
C183 O164 1.249 . S
C183 C177 1.516 1_556 S
H184 C170 0.930 . S
H185 C171 0.931 . S
H186 C172 0.931 . S
H187 C173 0.933 . S
H188 C179 0.930 . S
H189 C180 0.931 . S
H190 C181 0.931 . S
H191 C182 0.933 . S
Dy192 O195 2.307 . S
Dy192 O197 2.395 1_565 S
Dy192 O198 2.379 . S
Dy192 O200 2.339 . S
Dy192 O202 2.298 . S
Dy192 O206 2.275 1_565 S
Dy192 C214 2.738 . S
Dy193 O196 2.298 . S
Dy193 O199 2.275 1_545 S
Dy193 O201 2.307 . S
Dy193 O203 2.395 1_545 S
Dy193 O204 2.379 . S
Dy193 O207 2.339 . S
Dy193 C223 2.738 . S
C194 O206 1.254 . S
C194 O207 1.257 . S
O195 Dy192 2.307 . S
O195 C205 1.266 . S
O196 Dy193 2.298 . S
O196 C205 1.236 1_545 S
O197 Dy192 2.395 1_545 S
O197 C214 1.255 1_545 S
O198 Dy192 2.379 . S
O198 C214 1.249 . S
O199 Dy193 2.275 1_565 S
O199 C215 1.254 . S
O200 Dy192 2.339 . S
O200 C215 1.257 . S
O201 Dy193 2.307 . S
O201 C216 1.266 . S
O202 Dy192 2.298 . S
O202 C216 1.236 1_565 S
O203 Dy193 2.395 1_565 S
O203 C223 1.255 1_565 S
O204 Dy193 2.379 . S
O204 C223 1.249 . S
C205 O195 1.266 . S
C205 O196 1.236 1_565 S
O206 Dy192 2.275 1_545 S
O206 C194 1.254 . S
O207 Dy193 2.339 . S
O207 C194 1.257 . S
C208 C211 1.344 1_565 S
C208 C212 1.328 . S
C208 C214 1.516 . S
C209 C210 1.304 1_565 S
C209 C213 1.323 . S
C210 C209 1.304 1_545 S
C210 C211 1.371 . S
C210 H224 0.930 . S
C211 C208 1.344 1_545 S
C211 C210 1.371 . S
C211 H225 0.931 . S
C212 C208 1.328 . S
C212 C213 1.433 . S
C212 H226 0.931 . S
C213 C209 1.323 . S
C213 C212 1.433 . S
C213 H227 0.933 . S
C214 Dy192 2.738 . S
C214 O197 1.255 1_565 S
C214 O198 1.249 . S
C214 C208 1.516 . S
C215 O199 1.254 . S
C215 O200 1.257 . S
C216 O201 1.266 . S
C216 O202 1.236 1_545 S
C217 C220 1.344 1_545 S
C217 C221 1.328 . S
C217 C223 1.516 1_554 S
C218 C219 1.304 1_545 S
C218 C222 1.323 . S
C219 C218 1.304 1_565 S
C219 C220 1.371 . S
C219 H228 0.930 . S
C220 C217 1.344 1_565 S
C220 C219 1.371 . S
C220 H229 0.931 1_554 S
C221 C217 1.328 . S
C221 C222 1.433 . S
C221 H230 0.931 . S
C222 C218 1.323 . S
C222 C221 1.433 . S
C222 H231 0.933 . S
C223 Dy193 2.738 . S
C223 O203 1.255 1_545 S
C223 O204 1.249 . S
C223 C217 1.516 1_556 S
H224 C210 0.930 . S
H225 C211 0.931 . S
H226 C212 0.931 . S
H227 C213 0.933 . S
H228 C219 0.930 . S
H229 C220 0.931 1_556 S
H230 C221 0.931 . S
H231 C222 0.933 . S
Dy232 O235 2.307 . S
Dy232 O237 2.395 . S
Dy232 O238 2.379 . S
Dy232 O240 2.339 . S
Dy232 O242 2.298 . S
Dy232 O246 2.275 . S
Dy232 C254 2.738 . S
Dy233 O236 2.298 . S
Dy233 O239 2.275 . S
Dy233 O241 2.307 . S
Dy233 O243 2.395 . S
Dy233 O244 2.379 . S
Dy233 O247 2.339 . S
Dy233 C263 2.738 . S
C234 O246 1.254 . S
C234 O247 1.257 . S
O235 Dy232 2.307 . S
O235 C245 1.266 . S
O236 Dy233 2.298 . S
O236 C245 1.236 . S
O237 Dy232 2.395 . S
O237 C254 1.255 . S
O238 Dy232 2.379 . S
O238 C254 1.249 . S
O239 Dy233 2.275 . S
O239 C255 1.254 . S
O240 Dy232 2.339 . S
O240 C255 1.257 . S
O241 Dy233 2.307 . S
O241 C256 1.266 . S
O242 Dy232 2.298 . S
O242 C256 1.236 . S
O243 Dy233 2.395 . S
O243 C263 1.255 . S
O244 Dy233 2.379 . S
O244 C263 1.249 . S
C245 O235 1.266 . S
C245 O236 1.236 . S
O246 Dy232 2.275 . S
O246 C234 1.254 . S
O247 Dy233 2.339 . S
O247 C234 1.257 . S
C248 C251 1.344 1_556 S
C248 C252 1.328 . S
C248 C254 1.516 . S
C249 C250 1.304 . S
C249 C253 1.323 1_554 S
C250 C249 1.304 . S
C250 C251 1.371 . S
C250 H264 0.930 . S
C251 C248 1.344 1_554 S
C251 C250 1.371 . S
C251 H265 0.931 . S
C252 C248 1.328 . S
C252 C253 1.433 . S
C252 H266 0.931 . S
C253 C249 1.323 1_556 S
C253 C252 1.433 . S
C253 H267 0.933 . S
C254 Dy232 2.738 . S
C254 O237 1.255 . S
C254 O238 1.249 . S
C254 C248 1.516 . S
C255 O239 1.254 . S
C255 O240 1.257 . S
C256 O241 1.266 . S
C256 O242 1.236 . S
C257 C260 1.344 . S
C257 C261 1.328 . S
C257 C263 1.516 . S
C258 C259 1.304 . S
C258 C262 1.323 . S
C259 C258 1.304 . S
C259 C260 1.371 . S
C259 H268 0.930 . S
C260 C257 1.344 . S
C260 C259 1.371 . S
C260 H269 0.931 . S
C261 C257 1.328 . S
C261 C262 1.433 . S
C261 H270 0.931 . S
C262 C258 1.323 . S
C262 C261 1.433 . S
C262 H271 0.933 . S
C263 Dy233 2.738 . S
C263 O243 1.255 . S
C263 O244 1.249 . S
C263 C257 1.516 . S
H264 C250 0.930 . S
H265 C251 0.931 . S
H266 C252 0.931 . S
H267 C253 0.933 . S
H268 C259 0.930 . S
H269 C260 0.931 . S
H270 C261 0.931 . S
H271 C262 0.933 . S
Dy272 O275 2.307 1_455 S
Dy272 O277 2.395 . S
Dy272 O278 2.379 . S
Dy272 O280 2.339 . S
Dy272 O282 2.298 . S
Dy272 O286 2.275 . S
Dy272 C294 2.738 . S
Dy273 O276 2.298 . S
Dy273 O279 2.275 1_655 S
Dy273 O281 2.307 1_655 S
Dy273 O283 2.395 1_556 S
Dy273 O284 2.379 . S
Dy273 O287 2.339 . S
Dy273 C303 2.738 1_556 S
C274 O286 1.254 . S
C274 O287 1.257 1_455 S
O275 Dy272 2.307 1_655 S
O275 C285 1.266 . S
O276 Dy273 2.298 . S
O276 C285 1.236 . S
O277 Dy272 2.395 . S
O277 C294 1.255 . S
O278 Dy272 2.379 . S
O278 C294 1.249 . S
O279 Dy273 2.275 1_455 S
O279 C295 1.254 . S
O280 Dy272 2.339 . S
O280 C295 1.257 . S
O281 Dy273 2.307 1_455 S
O281 C296 1.266 . S
O282 Dy272 2.298 . S
O282 C296 1.236 . S
O283 Dy273 2.395 1_554 S
O283 C303 1.255 . S
O284 Dy273 2.379 . S
O284 C303 1.249 1_556 S
C285 O275 1.266 . S
C285 O276 1.236 . S
O286 Dy272 2.275 . S
O286 C274 1.254 . S
O287 Dy273 2.339 . S
O287 C274 1.257 1_655 S
C288 C291 1.344 . S
C288 C292 1.328 . S
C288 C294 1.516 . S
C289 C290 1.304 . S
C289 C293 1.323 . S
C290 C289 1.304 . S
C290 C291 1.371 . S
C290 H304 0.930 . S
C291 C288 1.344 . S
C291 C290 1.371 . S
C291 H305 0.931 . S
C292 C288 1.328 . S
C292 C293 1.433 . S
C292 H306 0.931 . S
C293 C289 1.323 . S
C293 C292 1.433 . S
C293 H307 0.933 . S
C294 Dy272 2.738 . S
C294 O277 1.255 . S
C294 O278 1.249 . S
C294 C288 1.516 . S
C295 O279 1.254 . S
C295 O280 1.257 . S
C296 O281 1.266 . S
C296 O282 1.236 . S
C297 C300 1.344 . S
C297 C301 1.328 . S
C297 C303 1.516 . S
C298 C299 1.304 . S
C298 C302 1.323 . S
C299 C298 1.304 . S
C299 C300 1.371 . S
C299 H308 0.930 . S
C300 C297 1.344 . S
C300 C299 1.371 . S
C300 H309 0.931 . S
C301 C297 1.328 . S
C301 C302 1.433 . S
C301 H310 0.931 . S
C302 C298 1.323 . S
C302 C301 1.433 . S
C302 H311 0.933 . S
C303 Dy273 2.738 1_554 S
C303 O283 1.255 . S
C303 O284 1.249 1_554 S
C303 C297 1.516 . S
H304 C290 0.930 . S
H305 C291 0.931 . S
H306 C292 0.931 . S
H307 C293 0.933 . S
H308 C299 0.930 . S
H309 C300 0.931 . S
H310 C301 0.931 . S
H311 C302 0.933 . S
H312 C318 0.930 . S
H313 C322 0.930 . S
H314 C327 0.929 . S
H315 C325 0.929 . S
H316 C320 0.929 . S
H317 C326 0.929 . S
C318 H312 0.930 . S
C318 C319 1.367 . S
C318 C326 1.378 . S
C319 C318 1.367 . S
C319 C327 1.433 1_545 S
C320 H316 0.929 . S
C320 C322 1.378 . S
C320 C324 1.350 1_565 S
C321 C324 1.463 . S
C321 C326 1.350 . S
C321 N329 1.427 1_545 S
C322 H313 0.930 . S
C322 C320 1.378 . S
C322 C323 1.367 1_565 S
C323 C322 1.367 1_545 S
C323 C325 1.433 . S
C324 C320 1.350 1_545 S
C324 C321 1.463 . S
C324 N328 1.427 . S
C325 H315 0.929 . S
C325 C323 1.433 . S
C325 N328 1.384 . S
C326 H317 0.929 . S
C326 C318 1.378 . S
C326 C321 1.350 . S
C327 H314 0.929 . S
C327 C319 1.433 1_565 S
C327 N329 1.384 . S
N328 C324 1.427 . S
N328 C325 1.384 . S
N329 C321 1.427 1_565 S
N329 C327 1.384 . S
H330 C336 0.930 . S
H331 C340 0.930 . S
H332 C345 0.929 . S
H333 C343 0.929 . S
H334 C338 0.929 . S
H335 C344 0.929 . S
C336 H330 0.930 . S
C336 C337 1.367 . S
C336 C344 1.378 . S
C337 C336 1.367 . S
C337 C345 1.433 . S
C338 H334 0.929 . S
C338 C340 1.378 . S
C338 C342 1.350 . S
C339 C342 1.463 . S
C339 C344 1.350 . S
C339 N347 1.427 . S
C340 H331 0.930 . S
C340 C338 1.378 . S
C340 C341 1.367 . S
C341 C340 1.367 . S
C341 C343 1.433 . S
C342 C338 1.350 . S
C342 C339 1.463 . S
C342 N346 1.427 . S
C343 H333 0.929 . S
C343 C341 1.433 . S
C343 N346 1.384 . S
C344 H335 0.929 . S
C344 C336 1.378 . S
C344 C339 1.350 . S
C345 H332 0.929 . S
C345 C337 1.433 . S
C345 N347 1.384 . S
N346 C342 1.427 . S
N346 C343 1.384 . S
N347 C339 1.427 . S
N347 C345 1.384 . S
H348 C354 0.930 . S
H349 C358 0.930 . S
H350 C363 0.929 . S
H351 C361 0.929 . S
H352 C356 0.929 . S
H353 C362 0.929 . S
C354 H348 0.930 . S
C354 C355 1.367 . S
C354 C362 1.378 . S
C355 C354 1.367 . S
C355 C363 1.433 . S
C356 H352 0.929 . S
C356 C358 1.378 . S
C356 C360 1.350 . S
C357 C360 1.463 . S
C357 C362 1.350 . S
C357 N365 1.427 . S
C358 H349 0.930 . S
C358 C356 1.378 . S
C358 C359 1.367 . S
C359 C358 1.367 . S
C359 C361 1.433 . S
C360 C356 1.350 . S
C360 C357 1.463 . S
C360 N364 1.427 . S
C361 H351 0.929 . S
C361 C359 1.433 . S
C361 N364 1.384 . S
C362 H353 0.929 . S
C362 C354 1.378 . S
C362 C357 1.350 . S
C363 H350 0.929 . S
C363 C355 1.433 . S
C363 N365 1.384 . S
N364 C360 1.427 . S
N364 C361 1.384 . S
N365 C357 1.427 . S
N365 C363 1.384 . S
H366 C372 0.930 . S
H367 C376 0.930 . S
H368 C381 0.929 . S
H369 C379 0.929 1_655 S
H370 C374 0.929 . S
H371 C380 0.929 . S
C372 H366 0.930 . S
C372 C373 1.367 . S
C372 C380 1.378 . S
C373 C372 1.367 . S
C373 C381 1.433 . S
C374 H370 0.929 . S
C374 C376 1.378 . S
C374 C378 1.350 . S
C375 C378 1.463 . S
C375 C380 1.350 . S
C375 N383 1.427 . S
C376 H367 0.930 . S
C376 C374 1.378 . S
C376 C377 1.367 . S
C377 C376 1.367 . S
C377 C379 1.433 . S
C378 C374 1.350 . S
C378 C375 1.463 . S
C378 N382 1.427 . S
C379 H369 0.929 1_455 S
C379 C377 1.433 . S
C379 N382 1.384 . S
C380 H371 0.929 . S
C380 C372 1.378 . S
C380 C375 1.350 . S
C381 H368 0.929 . S
C381 C373 1.433 . S
C381 N383 1.384 . S
N382 C378 1.427 . S
N382 C379 1.384 . S
N383 C375 1.427 . S
N383 C381 1.384 . S
H384 C390 0.930 . S
H385 C394 0.930 . S
H386 C399 0.929 . S
H387 C397 0.929 . S
H388 C392 0.929 . S
H389 C398 0.929 . S
C390 H384 0.930 . S
C390 C391 1.367 . S
C390 C398 1.378 . S
C391 C390 1.367 . S
C391 C399 1.433 1_565 S
C392 H388 0.929 . S
C392 C394 1.378 . S
C392 C396 1.346 1_545 S
C393 C396 1.460 . S
C393 C398 1.366 . S
C393 N401 1.416 1_565 S
C394 H385 0.930 . S
C394 C392 1.378 . S
C394 C395 1.366 1_544 S
C395 C394 1.366 1_566 S
C395 C397 1.434 . S
C396 C392 1.346 1_565 S
C396 C393 1.460 . S
C396 N400 1.430 1_554 S
C397 H387 0.929 . S
C397 C395 1.434 . S
C397 N400 1.384 . S
C398 H389 0.929 . S
C398 C390 1.378 . S
C398 C393 1.366 . S
C399 H386 0.929 . S
C399 C391 1.433 1_545 S
C399 N401 1.384 . S
N400 C396 1.430 1_556 S
N400 C397 1.384 . S
N401 C393 1.416 1_545 S
N401 C399 1.384 . S
H402 C408 0.930 1_556 S
H403 C412 0.930 . S
H404 C417 0.929 . S
H405 C415 0.929 . S
H406 C410 0.929 1_554 S
H407 C416 0.929 . S
C408 H402 0.930 1_554 S
C408 C409 1.367 . S
C408 C416 1.378 1_554 S
C409 C408 1.367 . S
C409 C417 1.433 . S
C410 H406 0.929 1_556 S
C410 C412 1.378 . S
C410 C414 1.350 . S
C411 C414 1.463 . S
C411 C416 1.350 . S
C411 N419 1.427 1_556 S
C412 H403 0.930 . S
C412 C410 1.378 . S
C412 C413 1.367 . S
C413 C412 1.367 . S
C413 C415 1.433 . S
C414 C410 1.350 . S
C414 C411 1.463 . S
C414 N418 1.427 . S
C415 H405 0.929 . S
C415 C413 1.433 . S
C415 N418 1.384 . S
C416 H407 0.929 . S
C416 C408 1.378 1_556 S
C416 C411 1.350 . S
C417 H404 0.929 . S
C417 C409 1.433 . S
C417 N419 1.384 . S
N418 C414 1.427 . S
N418 C415 1.384 . S
N419 C411 1.427 1_554 S
N419 C417 1.384 . S
H420 C426 0.930 . S
H421 C430 0.930 . S
H422 C435 0.929 . S
H423 C433 0.929 . S
H424 C428 0.929 . S
H425 C434 0.929 . S
C426 H420 0.930 . S
C426 C427 1.367 . S
C426 C434 1.378 . S
C427 C426 1.367 . S
C427 C435 1.433 . S
C428 H424 0.929 . S
C428 C430 1.378 . S
C428 C432 1.350 . S
C429 C432 1.463 . S
C429 C434 1.350 . S
C429 N437 1.427 . S
C430 H421 0.930 . S
C430 C428 1.378 . S
C430 C431 1.367 . S
C431 C430 1.367 . S
C431 C433 1.433 . S
C432 C428 1.350 . S
C432 C429 1.463 . S
C432 N436 1.427 . S
C433 H423 0.929 . S
C433 C431 1.433 . S
C433 N436 1.384 . S
C434 H425 0.929 . S
C434 C426 1.378 . S
C434 C429 1.350 . S
C435 H422 0.929 . S
C435 C427 1.433 . S
C435 N437 1.384 . S
N436 C432 1.427 . S
N436 C433 1.384 . S
N437 C429 1.427 . S
N437 C435 1.384 . S
H438 C444 0.930 . S
H439 C448 0.930 . S
H440 C453 0.929 . S
H441 C451 0.929 . S
H442 C446 0.929 . S
H443 C452 0.929 . S
C444 H438 0.930 . S
C444 C445 1.367 1_455 S
C444 C452 1.378 . S
C445 C444 1.367 1_655 S
C445 C453 1.433 . S
C446 H442 0.929 . S
C446 C448 1.378 . S
C446 C450 1.379 . S
C447 C450 1.465 . S
C447 C452 1.311 1_655 S
C447 N455 1.461 . S
C448 H439 0.930 . S
C448 C446 1.378 . S
C448 C449 1.367 1_654 S
C449 C448 1.367 1_456 S
C449 C451 1.433 . S
C450 C446 1.379 . S
C450 C447 1.465 . S
C450 N454 1.404 1_655 S
C451 H441 0.929 . S
C451 C449 1.433 . S
C451 N454 1.384 1_556 S
C452 H443 0.929 . S
C452 C444 1.378 . S
C452 C447 1.311 1_455 S
C453 H440 0.929 . S
C453 C445 1.433 . S
C453 N455 1.384 . S
N454 C450 1.404 1_455 S
N454 C451 1.384 1_554 S
N455 C447 1.461 . S
N455 C453 1.384 . S
H456 C462 0.930 . S
H457 C466 0.930 . S
H458 C471 0.929 . S
H459 C469 0.929 . S
H460 C464 0.929 . S
H461 C470 0.929 . S
C462 H456 0.930 . S
C462 C463 1.367 . S
C462 C470 1.378 . S
C463 C462 1.367 . S
C463 C471 1.433 . S
C464 H460 0.929 . S
C464 C466 1.378 . S
C464 C468 1.350 1_655 S
C465 C468 1.463 . S
C465 C470 1.350 . S
C465 N473 1.427 . S
C466 H457 0.930 . S
C466 C464 1.378 . S
C466 C467 1.367 . S
C467 C466 1.367 . S
C467 C469 1.433 1_655 S
C468 C464 1.350 1_455 S
C468 C465 1.463 . S
C468 N472 1.427 . S
C469 H459 0.929 . S
C469 C467 1.433 1_455 S
C469 N472 1.384 . S
C470 H461 0.929 . S
C470 C462 1.378 . S
C470 C465 1.350 . S
C471 H458 0.929 . S
C471 C463 1.433 . S
C471 N473 1.384 . S
N472 C468 1.427 . S
N472 C469 1.384 . S
N473 C465 1.427 . S
N473 C471 1.384 . S
H474 C480 0.930 . S
H475 C484 0.930 . S
H476 C489 0.929 . S
H477 C487 0.929 . S
H478 C482 0.929 . S
H479 C488 0.929 . S
C480 H474 0.930 . S
C480 C481 1.367 1_565 S
C480 C488 1.378 . S
C481 C480 1.367 1_545 S
C481 C489 1.433 . S
C482 H478 0.929 . S
C482 C484 1.378 . S
C482 C486 1.350 1_545 S
C483 C486 1.463 . S
C483 C488 1.350 . S
C483 N491 1.427 1_565 S
C484 H475 0.930 . S
C484 C482 1.378 . S
C484 C485 1.367 1_545 S
C485 C484 1.367 1_565 S
C485 C487 1.433 . S
C486 C482 1.350 1_565 S
C486 C483 1.463 . S
C486 N490 1.427 . S
C487 H477 0.929 . S
C487 C485 1.433 . S
C487 N490 1.384 . S
C488 H479 0.929 . S
C488 C480 1.378 . S
C488 C483 1.350 . S
C489 H476 0.929 . S
C489 C481 1.433 . S
C489 N491 1.384 . S
N490 C486 1.427 . S
N490 C487 1.384 . S
N491 C483 1.427 1_545 S
N491 C489 1.384 . S
H492 C498 0.930 . S
H493 C502 0.930 . S
H494 C507 0.929 . S
H495 C505 0.929 . S
H496 C500 0.929 . S
H497 C506 0.929 . S
C498 H492 0.930 . S
C498 C499 1.367 . S
C498 C506 1.378 . S
C499 C498 1.367 . S
C499 C507 1.433 . S
C500 H496 0.929 . S
C500 C502 1.378 . S
C500 C504 1.350 . S
C501 C504 1.463 . S
C501 C506 1.350 . S
C501 N509 1.427 . S
C502 H493 0.930 . S
C502 C500 1.378 . S
C502 C503 1.367 . S
C503 C502 1.367 . S
C503 C505 1.433 . S
C504 C500 1.350 . S
C504 C501 1.463 . S
C504 N508 1.427 . S
C505 H495 0.929 . S
C505 C503 1.433 . S
C505 N508 1.384 . S
C506 H497 0.929 . S
C506 C498 1.378 . S
C506 C501 1.350 . S
C507 H494 0.929 . S
C507 C499 1.433 . S
C507 N509 1.384 . S
N508 C504 1.427 . S
N508 C505 1.384 . S
N509 C501 1.427 . S
N509 C507 1.384 . S
H510 C516 0.930 . S
H511 C520 0.930 . S
H512 C525 0.929 . S
H513 C523 0.929 . S
H514 C518 0.929 . S
H515 C524 0.929 . S
C516 H510 0.930 . S
C516 C517 1.367 . S
C516 C524 1.378 . S
C517 C516 1.367 . S
C517 C525 1.433 . S
C518 H514 0.929 . S
C518 C520 1.378 . S
C518 C522 1.350 . S
C519 C522 1.463 . S
C519 C524 1.350 . S
C519 N527 1.427 . S
C520 H511 0.930 . S
C520 C518 1.378 . S
C520 C521 1.367 . S
C521 C520 1.367 . S
C521 C523 1.433 . S
C522 C518 1.350 . S
C522 C519 1.463 . S
C522 N526 1.427 . S
C523 H513 0.929 . S
C523 C521 1.433 . S
C523 N526 1.384 . S
C524 H515 0.929 . S
C524 C516 1.378 . S
C524 C519 1.350 . S
C525 H512 0.929 . S
C525 C517 1.433 . S
C525 N527 1.384 . S
N526 C522 1.427 . S
N526 C523 1.384 . S
N527 C519 1.427 . S
N527 C525 1.384 . S
H528 C534 0.930 . S
H529 C538 0.930 . S
H530 C543 0.929 . S
H531 C541 0.929 . S
H532 C536 0.929 . S
H533 C542 0.929 . S
C534 H528 0.930 . S
C534 C535 1.367 . S
C534 C542 1.378 1_655 S
C535 C534 1.367 . S
C535 C543 1.433 . S
C536 H532 0.929 . S
C536 C538 1.378 . S
C536 C540 1.350 . S
C537 C540 1.463 . S
C537 C542 1.350 . S
C537 N545 1.439 . S
C538 H529 0.930 . S
C538 C536 1.378 . S
C538 C539 1.367 . S
C539 C538 1.367 . S
C539 C541 1.433 . S
C540 C536 1.350 . S
C540 C537 1.463 . S
C540 N544 1.427 . S
C541 H531 0.929 . S
C541 C539 1.433 . S
C541 N544 1.384 . S
C542 H533 0.929 . S
C542 C534 1.378 1_455 S
C542 C537 1.350 . S
C543 H530 0.929 . S
C543 C535 1.433 . S
C543 N545 1.377 1_655 S
N544 C540 1.427 . S
N544 C541 1.384 . S
N545 C537 1.439 . S
N545 C543 1.377 1_455 S
H546 C552 0.930 . S
H547 C556 0.930 . S
H548 C561 0.929 . S
H549 C559 0.929 . S
H550 C554 0.929 . S
H551 C560 0.929 . S
C552 H546 0.930 . S
C552 C553 1.367 . S
C552 C560 1.378 . S
C553 C552 1.367 . S
C553 C561 1.433 1_565 S
C554 H550 0.929 . S
C554 C556 1.378 . S
C554 C558 1.350 . S
C555 C558 1.463 . S
C555 C560 1.350 1_545 S
C555 N563 1.427 . S
C556 H547 0.930 . S
C556 C554 1.378 . S
C556 C557 1.367 . S
C557 C556 1.367 . S
C557 C559 1.433 1_545 S
C558 C554 1.350 . S
C558 C555 1.463 . S
C558 N562 1.427 1_545 S
C559 H549 0.929 . S
C559 C557 1.433 1_565 S
C559 N562 1.384 . S
C560 H551 0.929 . S
C560 C552 1.378 . S
C560 C555 1.350 1_565 S
C561 H548 0.929 . S
C561 C553 1.433 1_545 S
C561 N563 1.384 . S
N562 C558 1.427 1_565 S
N562 C559 1.384 . S
N563 C555 1.427 . S
N563 C561 1.384 . S
H564 C570 0.930 1_556 S
H565 C574 0.930 . S
H566 C579 0.929 . S
H567 C577 0.929 . S
H568 C572 0.929 . S
H569 C578 0.929 . S
C570 H564 0.930 1_554 S
C570 C571 1.367 . S
C570 C578 1.378 1_554 S
C571 C570 1.367 . S
C571 C579 1.433 . S
C572 H568 0.929 . S
C572 C574 1.378 . S
C572 C576 1.350 . S
C573 C576 1.463 . S
C573 C578 1.350 1_554 S
C573 N581 1.427 . S
C574 H565 0.930 . S
C574 C572 1.378 . S
C574 C575 1.367 1_554 S
C575 C574 1.367 1_556 S
C575 C577 1.433 . S
C576 C572 1.350 . S
C576 C573 1.463 . S
C576 N580 1.427 1_554 S
C577 H567 0.929 . S
C577 C575 1.433 . S
C577 N580 1.384 . S
C578 H569 0.929 . S
C578 C570 1.378 1_556 S
C578 C573 1.350 1_556 S
C579 H566 0.929 . S
C579 C571 1.433 . S
C579 N581 1.384 . S
N580 C576 1.427 1_556 S
N580 C577 1.384 . S
N581 C573 1.427 . S
N581 C579 1.384 . S
H582 C588 0.930 . S
H583 C592 0.930 . S
H584 C597 0.929 . S
H585 C595 0.929 . S
H586 C590 0.929 . S
H587 C596 0.929 . S
C588 H582 0.930 . S
C588 C589 1.367 . S
C588 C596 1.378 . S
C589 C588 1.367 . S
C589 C597 1.433 . S
C590 H586 0.929 . S
C590 C592 1.378 . S
C590 C594 1.350 . S
C591 C594 1.463 . S
C591 C596 1.350 . S
C591 N599 1.427 . S
C592 H583 0.930 . S
C592 C590 1.378 . S
C592 C593 1.367 . S
C593 C592 1.367 . S
C593 C595 1.433 . S
C594 C590 1.350 . S
C594 C591 1.463 . S
C594 N598 1.427 . S
C595 H585 0.929 . S
C595 C593 1.433 . S
C595 N598 1.384 . S
C596 H587 0.929 . S
C596 C588 1.378 . S
C596 C591 1.350 . S
C597 H584 0.929 . S
C597 C589 1.433 . S
C597 N599 1.384 . S
N598 C594 1.427 . S
N598 C595 1.384 . S
N599 C591 1.427 . S
N599 C597 1.384 . S
H600 C606 0.930 . S
H601 C610 0.935 . S
H602 C615 0.929 . S
H603 C613 0.929 . S
H604 C608 0.929 . S
H605 C614 0.929 . S
C606 H600 0.930 . S
C606 C607 1.367 1_554 S
C606 C614 1.378 . S
C607 C606 1.367 1_556 S
C607 C615 1.433 . S
C608 H604 0.929 . S
C608 C610 1.378 . S
C608 C612 1.350 . S
C609 C612 1.463 . S
C609 C614 1.349 1_556 S
C609 N617 1.427 . S
C610 H601 0.935 . S
C610 C608 1.378 . S
C610 C611 1.367 . S
C611 C610 1.367 . S
C611 C613 1.433 . S
C612 C608 1.350 . S
C612 C609 1.463 . S
C612 N616 1.427 . S
C613 H603 0.929 . S
C613 C611 1.433 . S
C613 N616 1.384 . S
C614 H605 0.929 . S
C614 C606 1.378 . S
C614 C609 1.349 1_554 S
C615 H602 0.929 . S
C615 C607 1.433 . S
C615 N617 1.384 . S
N616 C612 1.427 . S
N616 C613 1.384 . S
N617 C609 1.427 . S
N617 C615 1.384 . S
H618 C624 0.930 . S
H619 C628 0.930 . S
H620 C633 0.929 . S
H621 C631 0.929 . S
H622 C626 0.929 . S
H623 C632 0.929 . S
C624 H618 0.930 . S
C624 C625 1.367 . S
C624 C632 1.378 . S
C625 C624 1.367 . S
C625 C633 1.433 1_545 S
C626 H622 0.929 . S
C626 C628 1.378 . S
C626 C630 1.350 1_565 S
C627 C630 1.463 1_554 S
C627 C632 1.350 . S
C627 N635 1.427 1_545 S
C628 H619 0.930 . S
C628 C626 1.378 . S
C628 C629 1.367 1_565 S
C629 C628 1.367 1_545 S
C629 C631 1.433 . S
C630 C626 1.350 1_545 S
C630 C627 1.463 1_556 S
C630 N634 1.427 . S
C631 H621 0.929 . S
C631 C629 1.433 . S
C631 N634 1.384 . S
C632 H623 0.929 . S
C632 C624 1.378 . S
C632 C627 1.350 . S
C633 H620 0.929 . S
C633 C625 1.433 1_565 S
C633 N635 1.384 . S
N634 C630 1.427 . S
N634 C631 1.384 . S
N635 C627 1.427 1_565 S
N635 C633 1.384 . S
H636 C642 0.930 . S
H637 C646 0.930 . S
H638 C651 0.929 . S
H639 C649 0.929 . S
H640 C644 0.929 1_556 S
H641 C650 0.929 . S
C642 H636 0.930 . S
C642 C643 1.367 . S
C642 C650 1.378 . S
C643 C642 1.367 . S
C643 C651 1.433 . S
C644 H640 0.929 1_554 S
C644 C646 1.378 1_554 S
C644 C648 1.350 . S
C645 C648 1.463 . S
C645 C650 1.350 . S
C645 N653 1.427 . S
C646 H637 0.930 . S
C646 C644 1.378 1_556 S
C646 C647 1.367 . S
C647 C646 1.367 . S
C647 C649 1.433 1_556 S
C648 C644 1.350 . S
C648 C645 1.463 . S
C648 N652 1.427 . S
C649 H639 0.929 . S
C649 C647 1.433 1_554 S
C649 N652 1.384 . S
C650 H641 0.929 . S
C650 C642 1.378 . S
C650 C645 1.350 . S
C651 H638 0.929 . S
C651 C643 1.433 . S
C651 N653 1.384 . S
N652 C648 1.427 . S
N652 C649 1.384 . S
N653 C645 1.427 . S
N653 C651 1.384 . S
H654 C660 0.930 . S
H655 C664 0.930 . S
H656 C669 0.929 . S
H657 C667 0.929 . S
H658 C662 0.929 . S
H659 C668 0.929 . S
C660 H654 0.930 . S
C660 C661 1.367 . S
C660 C668 1.378 . S
C661 C660 1.367 . S
C661 C669 1.433 . S
C662 H658 0.929 . S
C662 C664 1.378 . S
C662 C666 1.350 . S
C663 C666 1.463 . S
C663 C668 1.350 . S
C663 N671 1.427 . S
C664 H655 0.930 . S
C664 C662 1.378 . S
C664 C665 1.367 . S
C665 C664 1.367 . S
C665 C667 1.433 . S
C666 C662 1.350 . S
C666 C663 1.463 . S
C666 N670 1.427 . S
C667 H657 0.929 . S
C667 C665 1.433 . S
C667 N670 1.384 . S
C668 H659 0.929 . S
C668 C660 1.378 . S
C668 C663 1.350 . S
C669 H656 0.929 . S
C669 C661 1.433 . S
C669 N671 1.384 . S
N670 C666 1.427 . S
N670 C667 1.384 . S
N671 C663 1.427 . S
N671 C669 1.384 . S
H672 C678 0.930 . S
H673 C682 0.930 . S
H674 C687 0.929 . S
H675 C685 0.929 . S
H676 C680 0.929 . S
H677 C686 0.929 . S
C678 H672 0.930 . S
C678 C679 1.367 . S
C678 C686 1.378 . S
C679 C678 1.367 . S
C679 C687 1.433 1_655 S
C680 H676 0.929 . S
C680 C682 1.378 . S
C680 C684 1.350 1_455 S
C681 C684 1.463 . S
C681 C686 1.350 . S
C681 N689 1.427 1_655 S
C682 H673 0.930 . S
C682 C680 1.378 . S
C682 C683 1.367 1_455 S
C683 C682 1.367 1_655 S
C683 C685 1.433 . S
C684 C680 1.350 1_655 S
C684 C681 1.463 . S
C684 N688 1.427 . S
C685 H675 0.929 . S
C685 C683 1.433 . S
C685 N688 1.384 . S
C686 H677 0.929 . S
C686 C678 1.378 . S
C686 C681 1.350 . S
C687 H674 0.929 . S
C687 C679 1.433 1_455 S
C687 N689 1.384 . S
N688 C684 1.427 . S
N688 C685 1.384 . S
N689 C681 1.427 1_455 S
N689 C687 1.384 . S
H690 C696 0.930 . S
H691 C700 0.930 . S
H692 C705 0.929 . S
H693 C703 0.929 . S
H694 C698 0.929 . S
H695 C704 0.929 . S
C696 H690 0.930 . S
C696 C697 1.367 1_545 S
C696 C704 1.378 . S
C697 C696 1.367 1_565 S
C697 C705 1.433 . S
C698 H694 0.929 . S
C698 C700 1.378 . S
C698 C702 1.350 . S
C699 C702 1.463 . S
C699 C704 1.350 1_565 S
C699 N707 1.427 . S
C700 H691 0.930 . S
C700 C698 1.378 . S
C700 C701 1.367 . S
C701 C700 1.367 . S
C701 C703 1.433 1_565 S
C702 C698 1.350 . S
C702 C699 1.463 . S
C702 N706 1.427 1_565 S
C703 H693 0.929 . S
C703 C701 1.433 1_545 S
C703 N706 1.384 . S
C704 H695 0.929 . S
C704 C696 1.378 . S
C704 C699 1.350 1_545 S
C705 H692 0.929 . S
C705 C697 1.433 . S
C705 N707 1.384 . S
N706 C702 1.427 1_545 S
N706 C703 1.384 . S
N707 C699 1.427 . S
N707 C705 1.384 . S
H708 C714 0.930 . S
H709 C718 0.930 . S
H710 C723 0.929 . S
H711 C721 0.929 . S
H712 C716 0.929 . S
H713 C722 0.929 . S
C714 H708 0.930 . S
C714 C715 1.367 . S
C714 C722 1.378 . S
C715 C714 1.367 . S
C715 C723 1.433 . S
C716 H712 0.929 . S
C716 C718 1.378 . S
C716 C720 1.350 . S
C717 C720 1.463 . S
C717 C722 1.350 . S
C717 N725 1.427 . S
C718 H709 0.930 . S
C718 C716 1.378 . S
C718 C719 1.367 . S
C719 C718 1.367 . S
C719 C721 1.433 . S
C720 C716 1.350 . S
C720 C717 1.463 . S
C720 N724 1.427 . S
C721 H711 0.929 . S
C721 C719 1.433 . S
C721 N724 1.384 . S
C722 H713 0.929 . S
C722 C714 1.378 . S
C722 C717 1.350 . S
C723 H710 0.929 . S
C723 C715 1.433 . S
C723 N725 1.384 . S
N724 C720 1.427 . S
N724 C721 1.384 . S
N725 C717 1.427 . S
N725 C723 1.384 . S
H726 C732 0.930 . S
H727 C736 0.930 . S
H728 C741 0.929 . S
H729 C739 0.929 . S
H730 C734 0.929 . S
H731 C740 0.929 . S
C732 H726 0.930 . S
C732 C733 1.367 . S
C732 C740 1.378 . S
C733 C732 1.367 . S
C733 C741 1.433 . S
C734 H730 0.929 . S
C734 C736 1.378 . S
C734 C738 1.350 . S
C735 C738 1.463 . S
C735 C740 1.350 . S
C735 N743 1.427 . S
C736 H727 0.930 . S
C736 C734 1.378 . S
C736 C737 1.367 . S
C737 C736 1.367 . S
C737 C739 1.433 . S
C738 C734 1.350 . S
C738 C735 1.463 . S
C738 N742 1.427 . S
C739 H729 0.929 . S
C739 C737 1.433 . S
C739 N742 1.384 . S
C740 H731 0.929 . S
C740 C732 1.378 . S
C740 C735 1.350 . S
C741 H728 0.929 . S
C741 C733 1.433 . S
C741 N743 1.384 . S
N742 C738 1.427 . S
N742 C739 1.384 . S
N743 C735 1.427 . S
N743 C741 1.384 . S
C319 C125 2.014 1_545 S
C323 C154 2.060 1_545 S
C341 C194 2.081 . S
C337 C144 1.956 . S
C359 C258 1.882 . S
C355 C87 1.876 . S
C377 C274 1.643 . S
C373 C106 1.600 . S
C395 C175 2.059 1_565 S
C391 C49 2.011 . S
C409 C68 2.045 . S
C413 C215 2.084 . S
C427 C11 1.925 . S
C431 C249 1.876 . S
C445 C30 1.624 . S
C449 C295 1.639 . S
C467 C169 0.495 . S
C463 C97 0.480 . S
C485 C209 0.797 . S
C481 C116 0.787 . S
C503 C245 0.857 . S
C499 C135 0.854 . S
C517 C78 0.611 . S
C521 C289 0.628 . S
C535 C21 0.474 . S
C539 C178 0.464 . S
C557 C218 0.816 . S
C553 C40 0.804 . S
C575 C256 0.860 . S
C571 C59 0.855 . S
C589 C2 0.609 . S
C593 C298 0.625 . S
C607 C101 1.835 1_556 S
C611 C176 2.026 . S
C625 C120 1.912 . S
C629 C216 2.048 . S
C647 C234 1.586 . S
C643 C139 1.586 . S
C665 C296 2.468 . S
C661 C82 2.236 . S
C679 C25 1.833 . S
C683 C165 2.024 1_655 S
C701 C205 2.054 . S
C697 C44 1.918 . S
C719 C255 1.598 . S
C715 C63 1.603 . S
C733 C6 2.238 . S
C737 C285 2.472 . S
