# Generated by pormake.
# Topology llj, (12,3)-cn, num edge types: 1
# Building blocks:
#     Node 0, Type 0, BuildingBlock: QEWDON_clean_sbu_0, # of connection points: 12
#     Node 1, Type 0, BuildingBlock: QEWDON_clean_sbu_0, # of connection points: 12
#     Node 2, Type 1, BuildingBlock: KAKCAD_clean_linker_0, # of connection points: 3
#     Node 3, Type 1, BuildingBlock: KAKCAD_clean_linker_0, # of connection points: 3
#     Node 4, Type 1, BuildingBlock: KAKCAD_clean_linker_0, # of connection points: 3
#     Node 5, Type 1, BuildingBlock: KAKCAD_clean_linker_0, # of connection points: 3
#     Node 6, Type 1, BuildingBlock: KAKCAD_clean_linker_0, # of connection points: 3
#     Node 7, Type 1, BuildingBlock: KAKCAD_clean_linker_0, # of connection points: 3
#     Node 8, Type 1, BuildingBlock: KAKCAD_clean_linker_0, # of connection points: 3
#     Node 9, Type 1, BuildingBlock: KAKCAD_clean_linker_0, # of connection points: 3
#     Edge 10, Type (0, 1), BuildingBlock: UVAHIK_clean_linker_0, # of connection points: 2
#     Edge 11, Type (0, 1), BuildingBlock: UVAHIK_clean_linker_0, # of connection points: 2
#     Edge 12, Type (0, 1), BuildingBlock: UVAHIK_clean_linker_0, # of connection points: 2
#     Edge 13, Type (0, 1), BuildingBlock: UVAHIK_clean_linker_0, # of connection points: 2
#     Edge 14, Type (0, 1), BuildingBlock: UVAHIK_clean_linker_0, # of connection points: 2
#     Edge 15, Type (0, 1), BuildingBlock: UVAHIK_clean_linker_0, # of connection points: 2
#     Edge 16, Type (0, 1), BuildingBlock: UVAHIK_clean_linker_0, # of connection points: 2
#     Edge 17, Type (0, 1), BuildingBlock: UVAHIK_clean_linker_0, # of connection points: 2
#     Edge 18, Type (0, 1), BuildingBlock: UVAHIK_clean_linker_0, # of connection points: 2
#     Edge 19, Type (0, 1), BuildingBlock: UVAHIK_clean_linker_0, # of connection points: 2
#     Edge 20, Type (0, 1), BuildingBlock: UVAHIK_clean_linker_0, # of connection points: 2
#     Edge 21, Type (0, 1), BuildingBlock: UVAHIK_clean_linker_0, # of connection points: 2
#     Edge 22, Type (0, 1), BuildingBlock: UVAHIK_clean_linker_0, # of connection points: 2
#     Edge 23, Type (0, 1), BuildingBlock: UVAHIK_clean_linker_0, # of connection points: 2
#     Edge 24, Type (0, 1), BuildingBlock: UVAHIK_clean_linker_0, # of connection points: 2
#     Edge 25, Type (0, 1), BuildingBlock: UVAHIK_clean_linker_0, # of connection points: 2
#     Edge 26, Type (0, 1), BuildingBlock: UVAHIK_clean_linker_0, # of connection points: 2
#     Edge 27, Type (0, 1), BuildingBlock: UVAHIK_clean_linker_0, # of connection points: 2
#     Edge 28, Type (0, 1), BuildingBlock: UVAHIK_clean_linker_0, # of connection points: 2
#     Edge 29, Type (0, 1), BuildingBlock: UVAHIK_clean_linker_0, # of connection points: 2
#     Edge 30, Type (0, 1), BuildingBlock: UVAHIK_clean_linker_0, # of connection points: 2
#     Edge 31, Type (0, 1), BuildingBlock: UVAHIK_clean_linker_0, # of connection points: 2
#     Edge 32, Type (0, 1), BuildingBlock: UVAHIK_clean_linker_0, # of connection points: 2
#     Edge 33, Type (0, 1), BuildingBlock: UVAHIK_clean_linker_0, # of connection points: 2
# Relax obj value: 0.011
# Max RMSD: 0.050
# Mean RMSD: 0.047
data_MOF--net-llj--node1-QEWDON_clean_sbu_0--node2-KAKCAD_clean_linker_0--edge1-UVAHIK_clean_linker_0
_symmetry_space_group_name_H-M    P1
_symmetry_Int_Tables_number       1
_symmetry_cell_setting            triclinic
loop_
_symmetry_equiv_pos_as_xyz
'x, y, z'
_cell_length_a     55.022014
_cell_length_b     55.01402
_cell_length_c     38.540386
_cell_angle_alpha  89.902814
_cell_angle_beta   90.007162
_cell_angle_gamma 89.862144
loop_
_atom_site_label
_atom_site_type_symbol
_atom_site_fract_x
_atom_site_fract_y
_atom_site_fract_z
_atom_type_partial_charge
Zn0 Zn 0.94791 0.04058 0.97583 0.0
Zn1 Zn 0.94779 0.04175 0.05889 0.0
O2 O 0.96948 0.03769 0.01808 0.0
H3 H 0.98458 0.0287 0.01801 0.0
C4 C 0.95552 0.96985 0.92758 0.0
O5 O 0.97325 0.98153 0.94309 0.0
Zn6 Zn 0.04279 0.95739 0.05626 0.0
Zn7 Zn 0.04254 0.95863 0.97361 0.0
O8 O 0.02035 0.95896 0.01575 0.0
H9 H 0.00403 0.96556 0.01592 0.0
Zn10 Zn 0.95601 0.9436 0.99315 0.0
O11 O 0.95342 0.97207 0.02647 0.0
Zn12 Zn 0.95641 0.95502 0.07184 0.0
H13 H 0.95923 0.98815 0.02095 0.0
Zn14 Zn 0.0356 0.0529 0.98238 0.0
O15 O 0.03456 0.02627 0.01894 0.0
H16 H 0.0282 0.01016 0.015 0.0
Zn17 Zn 0.03407 0.04505 0.06327 0.0
C18 C 0.03576 0.02563 0.91635 0.0
O19 O 0.01742 0.01405 0.93055 0.0
O20 O 0.91515 0.05727 0.98609 0.0
O21 O 0.91564 0.05691 0.0438 0.0
O22 O 0.07597 0.9432 0.98373 0.0
O23 O 0.0751 0.94259 0.04138 0.0
O24 O 0.94226 0.91183 0.01374 0.0
O25 O 0.93921 0.92258 0.06919 0.0
C26 C 0.98677 0.06483 0.095 0.0
O27 O 0.05149 0.08431 0.00027 0.0
O28 O 0.052 0.07699 0.05697 0.0
O29 O 0.02633 0.94846 0.92756 0.0
C30 C 0.90529 0.0623 0.01514 0.0
O31 O 0.96627 0.05071 0.93152 0.0
C32 C 0.00523 0.93582 0.09742 0.0
O33 O 0.94546 0.95218 0.94316 0.0
C34 C 0.08576 0.9379 0.01274 0.0
O35 O 0.04611 0.04254 0.93312 0.0
C36 C 0.93774 0.99805 0.10639 0.0
O37 O 0.96373 0.06404 0.09362 0.0
O38 O -0.00129 0.05099 0.07474 0.0
C39 C 0.93568 0.90734 0.04481 0.0
O40 O 0.02811 0.93592 0.09316 0.0
O41 O 0.99247 0.95038 0.07927 0.0
C42 C 0.05328 0.00276 0.09978 0.0
O43 O 0.94076 0.97528 0.10963 0.0
O44 O 0.94483 0.00801 0.07844 0.0
C45 C 0.05723 0.09045 0.03106 0.0
O46 O 0.05054 0.02564 0.10137 0.0
O47 O 0.04565 0.99188 0.07285 0.0
C48 C 0.00839 0.93406 0.92981 0.0
O49 O 0.00109 0.92698 0.96066 0.0
C50 C 0.98354 0.06568 0.93586 0.0
O51 O 0.98802 0.07381 0.96725 0.0
Zn52 Zn 0.44854 0.53528 0.48092 0.0
Zn53 Zn 0.44951 0.53228 0.56371 0.0
O54 O 0.47055 0.52877 0.52199 0.0
H55 H 0.48547 0.51953 0.52079 0.0
C56 C 0.45341 0.46888 0.42089 0.0
O57 O 0.47147 0.47953 0.43715 0.0
Zn58 Zn 0.53943 0.46615 0.56621 0.0
Zn59 Zn 0.541 0.4627 0.48402 0.0
O60 O 0.51796 0.46741 0.52461 0.0
H61 H 0.50268 0.47601 0.52323 0.0
Zn62 Zn 0.45363 0.43953 0.48367 0.0
O63 O 0.44934 0.46579 0.52025 0.0
Zn64 Zn 0.45291 0.44692 0.56403 0.0
H65 H 0.45284 0.48276 0.51643 0.0
Zn66 Zn 0.53795 0.55712 0.47919 0.0
O67 O 0.54126 0.53149 0.51693 0.0
H68 H 0.53762 0.51449 0.51372 0.0
Zn69 Zn 0.53612 0.55172 0.55925 0.0
C70 C 0.53863 0.52802 0.41524 0.0
O71 O 0.52128 0.51591 0.43101 0.0
O72 O 0.41762 0.55431 0.49395 0.0
O73 O 0.41909 0.55189 0.55149 0.0
O74 O 0.57228 0.44439 0.49757 0.0
O75 O 0.57012 0.4467 0.55502 0.0
O76 O 0.44075 0.4062 0.49975 0.0
O77 O 0.43862 0.41338 0.55639 0.0
C78 C 0.48987 0.55565 0.59737 0.0
O79 O 0.55124 0.59034 0.49445 0.0
O80 O 0.55029 0.58533 0.55159 0.0
O81 O 0.52464 0.45065 0.43921 0.0
C82 C 0.40888 0.55936 0.52368 0.0
O83 O 0.46664 0.54701 0.43733 0.0
C84 C 0.49992 0.44386 0.60377 0.0
O85 O 0.44319 0.45067 0.43486 0.0
C86 C 0.58075 0.43939 0.52749 0.0
O87 O 0.54815 0.54618 0.43024 0.0
C88 C 0.43307 0.48615 0.60325 0.0
O89 O 0.46779 0.54971 0.60172 0.0
O90 O 0.50012 0.55105 0.56862 0.0
C91 C 0.43511 0.39953 0.53037 0.0
O92 O 0.52214 0.44982 0.60619 0.0
O93 O 0.48875 0.44796 0.57548 0.0
C94 C 0.55404 0.51371 0.60265 0.0
O95 O 0.43438 0.46311 0.60278 0.0
O96 O 0.44297 0.49773 0.57846 0.0
C97 C 0.55532 0.59817 0.52497 0.0
O98 O 0.55298 0.53671 0.6005 0.0
O99 O 0.54545 0.50138 0.57764 0.0
C100 C 0.50905 0.43391 0.44332 0.0
O101 O 0.5044 0.4261 0.47486 0.0
C102 C 0.48181 0.56406 0.44201 0.0
O103 O 0.48468 0.57289 0.4734 0.0
C104 C 0.37678 0.31333 0.90167 0.0
C105 C 0.40196 0.31568 0.89679 0.0
C106 C 0.36765 0.30257 0.93179 0.0
C107 C 0.38352 0.29377 0.95754 0.0
C108 C 0.40873 0.29533 0.95198 0.0
C109 C 0.41785 0.30627 0.92199 0.0
C110 C 0.37385 0.28443 0.99097 0.0
C111 C 0.35262 0.27029 0.99195 0.0
C112 C 0.34255 0.26298 0.02378 0.0
C113 C 0.35419 0.26953 0.05479 0.0
C114 C 0.37531 0.28376 0.05433 0.0
C115 C 0.38504 0.29104 0.02231 0.0
C116 C 0.38622 0.2926 0.08718 0.0
C117 C 0.37127 0.30095 0.11426 0.0
C118 C 0.41159 0.29388 0.09108 0.0
C119 C 0.42176 0.30386 0.12103 0.0
C120 C 0.40677 0.31262 0.14775 0.0
C121 C 0.31897 0.25005 0.02497 0.0
C122 C 0.29943 0.25803 0.00439 0.0
C123 C 0.31535 0.23067 0.04818 0.0
C124 C 0.29252 0.21986 0.05132 0.0
C125 C 0.27282 0.22827 0.03138 0.0
C126 C 0.27658 0.24728 0.0076 0.0
C127 C 0.38144 0.31078 0.14426 0.0
H128 H 0.36413 0.32065 0.8828 0.0
H129 H 0.34814 0.30199 0.93544 0.0
H130 H 0.42144 0.28834 0.97102 0.0
H131 H 0.43735 0.3075 0.91861 0.0
H132 H 0.34385 0.26502 0.96795 0.0
H133 H 0.40069 0.30296 0.02185 0.0
H134 H 0.34635 0.26415 0.07942 0.0
H135 H 0.35166 0.30065 0.11185 0.0
H136 H 0.42359 0.28729 0.07088 0.0
H137 H 0.44137 0.30478 0.12326 0.0
H138 H 0.3016 0.2731 0.98652 0.0
H139 H 0.33013 0.22403 0.06419 0.0
H140 H 0.36944 0.31769 0.16424 0.0
H141 H 0.26182 0.25393 0.99155 0.0
H142 H 0.29014 0.20533 0.07 0.0
C143 C 0.67567 0.38307 0.90157 0.0
C144 C 0.67871 0.40797 0.89446 0.0
C145 C 0.68525 0.37283 0.93181 0.0
C146 C 0.69789 0.38732 0.95568 0.0
C147 C 0.70166 0.41199 0.94811 0.0
C148 C 0.69228 0.42219 0.91773 0.0
C149 C 0.70557 0.37714 0.98951 0.0
C150 C 0.7174 0.35459 0.99145 0.0
C151 C 0.72338 0.34434 0.02375 0.0
C152 C 0.71741 0.35692 0.05431 0.0
C153 C 0.70519 0.37937 0.05277 0.0
C154 C 0.69958 0.3894 0.0202 0.0
C155 C 0.69634 0.39153 0.08478 0.0
C156 C 0.68574 0.37787 0.11164 0.0
C157 C 0.69647 0.41701 0.08739 0.0
C158 C 0.68508 0.42861 0.11519 0.0
C159 C 0.67349 0.41499 0.14124 0.0
C160 C 0.73508 0.32009 0.02549 0.0
C161 C 0.72642 0.30095 0.00484 0.0
C162 C 0.75495 0.31591 0.04762 0.0
C163 C 0.76619 0.29311 0.04864 0.0
C164 C 0.75762 0.27402 0.02778 0.0
C165 C 0.73753 0.27813 0.00605 0.0
C166 C 0.67452 0.38947 0.1396 0.0
H167 H 0.66505 0.37164 0.8845 0.0
H168 H 0.68187 0.35381 0.93724 0.0
H169 H 0.71161 0.42347 0.96594 0.0
H170 H 0.69542 0.4413 0.9127 0.0
H171 H 0.72208 0.34508 0.96774 0.0
H172 H 0.68934 0.40622 0.01862 0.0
H173 H 0.72172 0.34892 0.07928 0.0
H174 H 0.68514 0.35822 0.11037 0.0
H175 H 0.70481 0.42806 0.0674 0.0
H176 H 0.68455 0.44829 0.11545 0.0
H177 H 0.71096 0.30359 0.98783 0.0
H178 H 0.76205 0.33038 0.0637 0.0
H179 H 0.6662 0.37841 0.15958 0.0
H180 H 0.73069 0.26383 0.98944 0.0
H181 H 0.78154 0.29039 0.06581 0.0
C182 C 0.60726 0.68604 0.14169 0.0
C183 C 0.60334 0.66082 0.14374 0.0
C184 C 0.61616 0.69651 0.11122 0.0
C185 C 0.62114 0.682 0.08213 0.0
C186 C 0.61723 0.65683 0.08412 0.0
C187 C 0.6085 0.64633 0.11463 0.0
C188 C 0.63073 0.69301 0.04987 0.0
C189 C 0.65015 0.70941 0.05125 0.0
C190 C 0.66013 0.71924 0.02069 0.0
C191 C 0.65003 0.71261 0.9885 0.0
C192 C 0.63098 0.69573 0.98679 0.0
C193 C 0.62127 0.68623 0.01758 0.0
C194 C 0.62228 0.68657 0.95293 0.0
C195 C 0.61639 0.7026 0.92577 0.0
C196 C 0.61997 0.66143 0.94767 0.0
C197 C 0.61183 0.65244 0.91596 0.0
C198 C 0.60568 0.6684 0.88888 0.0
C199 C 0.68232 0.73463 0.02257 0.0
C200 C 0.68605 0.75045 0.0507 0.0
C201 C 0.70079 0.73231 -0.00244 0.0
C202 C 0.72265 0.74486 0.00116 0.0
C203 C 0.72688 0.75967 0.03026 0.0
C204 C 0.70812 0.7626 0.0547 0.0
C205 C 0.60798 0.69359 0.89405 0.0
H206 H 0.6031 0.69776 0.16344 0.0
H207 H 0.61882 0.716 0.11022 0.0
H208 H 0.62132 0.64517 0.06224 0.0
H209 H 0.6061 0.62681 0.11553 0.0
H210 H 0.65824 0.7135 0.07619 0.0
H211 H 0.60632 0.67346 0.01637 0.0
H212 H 0.65749 0.71989 0.96465 0.0
H213 H 0.61798 0.72207 0.92926 0.0
H214 H 0.62465 0.64867 0.96805 0.0
H215 H 0.60998 0.63297 0.91283 0.0
H216 H 0.67209 0.75311 0.07013 0.0
H217 H 0.6988 0.72014 0.97571 0.0
H218 H 0.60343 0.70626 0.8735 0.0
H219 H 0.71064 0.7737 0.07758 0.0
H220 H 0.73636 0.74262 0.98128 0.0
C221 C 0.30788 0.60589 0.14804 0.0
C222 C 0.3326 0.59931 0.14792 0.0
C223 C 0.29729 0.61648 0.11861 0.0
C224 C 0.31119 0.62023 0.08852 0.0
C225 C 0.33591 0.61386 0.08863 0.0
C226 C 0.34651 0.60357 0.11801 0.0
C227 C 0.30022 0.63041 0.05659 0.0
C228 C 0.28673 0.65205 0.05746 0.0
C229 C 0.27882 0.663 0.02646 0.0
C230 C 0.28422 0.65186 0.99455 0.0
C231 C 0.29733 0.62994 0.99336 0.0
C232 C 0.30489 0.61922 0.02463 0.0
C233 C 0.3042 0.61872 0.95966 0.0
C234 C 0.28824 0.61912 0.9311 0.0
C235 C 0.32706 0.6075 0.95585 0.0
C236 C 0.33358 0.59651 0.92467 0.0
C237 C 0.31762 0.59686 0.89633 0.0
C238 C 0.26598 0.68668 0.02724 0.0
C239 C 0.24664 0.69062 0.05035 0.0
C240 C 0.27306 0.70553 0.0048 0.0
C241 C 0.26094 0.72783 0.00526 0.0
C242 C 0.24138 0.73169 0.02802 0.0
C243 C 0.23436 0.71289 0.0506 0.0
C244 C 0.29499 0.60845 0.8996 0.0
H245 H 0.29679 0.60289 0.17086 0.0
H246 H 0.27818 0.62124 0.11908 0.0
H247 H 0.3471 0.61682 0.06588 0.0
H248 H 0.36552 0.59844 0.11702 0.0
H249 H 0.28346 0.66099 0.08208 0.0
H250 H 0.31468 0.6021 0.02426 0.0
H251 H 0.27856 0.66056 0.97063 0.0
H252 H 0.27042 0.62737 0.93318 0.0
H253 H 0.34014 0.60742 0.97685 0.0
H254 H 0.35131 0.58804 0.92252 0.0
H255 H 0.24078 0.67636 0.06785 0.0
H256 H 0.28811 0.70307 0.987 0.0
H257 H 0.28239 0.60886 0.878 0.0
H258 H 0.21944 0.71544 0.06858 0.0
H259 H 0.26659 0.74192 0.98735 0.0
C260 C 0.87908 0.79605 0.38165 0.0
C261 C 0.90428 0.79762 0.37613 0.0
C262 C 0.86992 0.78884 0.4138 0.0
C263 C 0.88572 0.78276 0.44117 0.0
C264 C 0.91093 0.7834 0.43524 0.0
C265 C 0.92011 0.7908 0.40311 0.0
C266 C 0.87586 0.77713 0.47618 0.0
C267 C 0.85417 0.76392 0.47979 0.0
C268 C 0.84351 0.76054 0.51251 0.0
C269 C 0.85513 0.76986 0.542 0.0
C270 C 0.87679 0.78314 0.53899 0.0
C271 C 0.8871 0.78658 0.50601 0.0
C272 C 0.88765 0.79485 0.56999 0.0
C273 C 0.87267 0.80636 0.59456 0.0
C274 C 0.91297 0.79508 0.57496 0.0
C275 C 0.92304 0.80653 0.60393 0.0
C276 C 0.90799 0.81791 0.62853 0.0
C277 C 0.81927 0.74908 0.51575 0.0
C278 C 0.80037 0.75593 0.49321 0.0
C279 C 0.8144 0.73244 0.54255 0.0
C280 C 0.791 0.72314 0.54705 0.0
C281 C 0.77199 0.73043 0.52496 0.0
C282 C 0.77698 0.74673 0.4978 0.0
C283 C 0.88272 0.8177 0.62351 0.0
H284 H 0.86637 0.8008 0.36127 0.0
H285 H 0.8504 0.78884 0.41747 0.0
H286 H 0.9236 0.77853 0.45562 0.0
H287 H 0.93962 0.79195 0.39984 0.0
H288 H 0.84537 0.75642 0.45705 0.0
H289 H 0.90319 0.79774 0.50341 0.0
H290 H 0.84685 0.76745 0.56728 0.0
H291 H 0.85314 0.80701 0.59111 0.0
H292 H 0.92496 0.7862 0.55664 0.0
H293 H 0.94258 0.80621 0.60733 0.0
H294 H 0.8035 0.76894 0.47257 0.0
H295 H 0.82866 0.72676 0.56019 0.0
H296 H 0.87069 0.82669 0.64169 0.0
H297 H 0.76276 0.75242 0.4801 0.0
H298 H 0.78767 0.71068 0.5683 0.0
C299 C 0.17538 0.87242 0.40003 0.0
C300 C 0.17788 0.89719 0.39169 0.0
C301 C 0.18406 0.8634 0.43163 0.0
C302 C 0.19523 0.879 0.45558 0.0
C303 C 0.19854 0.90353 0.44676 0.0
C304 C 0.19008 0.91251 0.41509 0.0
C305 C 0.20195 0.87012 0.49059 0.0
C306 C 0.21455 0.84814 0.49486 0.0
C307 C 0.22003 0.83931 0.5282 0.0
C308 C 0.21266 0.8527 0.55742 0.0
C309 C 0.19971 0.8746 0.55353 0.0
C310 C 0.19465 0.88322 0.51998 0.0
C311 C 0.18995 0.8878 0.58414 0.0
C312 C 0.17897 0.87501 0.61154 0.0
C313 C 0.18989 0.91335 0.58495 0.0
C314 C 0.17822 0.92583 0.61174 0.0
C315 C 0.16642 0.91304 0.63845 0.0
C316 C 0.23298 0.81582 0.53236 0.0
C317 C 0.22613 0.79557 0.51248 0.0
C318 C 0.25238 0.81351 0.55586 0.0
C319 C 0.26495 0.7915 0.55895 0.0
C320 C 0.25823 0.77132 0.53882 0.0
C321 C 0.23858 0.77354 0.51574 0.0
C322 C 0.16737 0.88749 0.63842 0.0
H323 H 0.16586 0.86017 0.38281 0.0
H324 H 0.18109 0.84444 0.43795 0.0
H325 H 0.20742 0.91585 0.4646 0.0
H326 H 0.19282 0.93155 0.40916 0.0
H327 H 0.22034 0.83806 0.47216 0.0
H328 H 0.18396 0.89964 0.51663 0.0
H329 H 0.21661 0.84583 0.58318 0.0
H330 H 0.17851 0.85533 0.61159 0.0
H331 H 0.19847 0.92374 0.56446 0.0
H332 H 0.17773 0.9455 0.61081 0.0
H333 H 0.21109 0.79674 0.49442 0.0
H334 H 0.25812 0.82886 0.57138 0.0
H335 H 0.15883 0.87709 0.65893 0.0
H336 H 0.23314 0.75839 0.49963 0.0
H337 H 0.27993 0.79026 0.57712 0.0
C338 C 0.10183 0.19152 0.63645 0.0
C339 C 0.0965 0.16654 0.63514 0.0
C340 C 0.10911 0.20395 0.60662 0.0
C341 C 0.11103 0.19172 0.5748 0.0
C342 C 0.10553 0.16682 0.57335 0.0
C343 C 0.09841 0.15434 0.60322 0.0
C344 C 0.11936 0.20475 0.54335 0.0
C345 C 0.14009 0.2195 0.54475 0.0
C346 C 0.14906 0.23098 0.51474 0.0
C347 C 0.13653 0.22789 0.48321 0.0
C348 C 0.1162 0.2126 0.48131 0.0
C349 C 0.10758 0.20131 0.51152 0.0
C350 C 0.10575 0.20613 0.44724 0.0
C351 C 0.09929 0.2241 0.42292 0.0
C352 C 0.10333 0.18153 0.43834 0.0
C353 C 0.09507 0.17495 0.40555 0.0
C354 C 0.0888 0.19281 0.38109 0.0
C355 C 0.17275 0.24403 0.51589 0.0
C356 C 0.17986 0.25688 0.54573 0.0
C357 C 0.18924 0.2422 0.48813 0.0
C358 C 0.2124 0.25234 0.4905 0.0
C359 C 0.21995 0.26412 0.521 0.0
C360 C 0.20323 0.26656 0.5484 0.0
C361 C 0.09059 0.21746 0.39013 0.0
H362 H 0.1001 0.20157 0.66046 0.0
H363 H 0.11303 0.2232 0.60835 0.0
H364 H 0.10724 0.15686 0.54924 0.0
H365 H 0.0948 0.13504 0.6014 0.0
H366 H 0.14996 0.22085 0.56899 0.0
H367 H 0.0918 0.18957 0.5101 0.0
H368 H 0.14319 0.23643 0.45973 0.0
H369 H 0.10102 0.24318 0.42928 0.0
H370 H 0.10844 0.16735 0.45649 0.0
H371 H 0.09362 0.15582 0.39922 0.0
H372 H 0.16755 0.25909 0.56741 0.0
H373 H 0.18467 0.23221 0.46486 0.0
H374 H 0.08583 0.23151 0.37159 0.0
H375 H 0.20832 0.27532 0.57244 0.0
H376 H 0.22446 0.25061 0.46846 0.0
C377 C 0.81171 0.10334 0.65107 0.0
C378 C 0.83663 0.09751 0.65088 0.0
C379 C 0.80119 0.11564 0.62295 0.0
C380 C 0.81538 0.122 0.59404 0.0
C381 C 0.84031 0.11642 0.59414 0.0
C382 C 0.8508 0.10434 0.6222 0.0
C383 C 0.80447 0.13391 0.56321 0.0
C384 C 0.78936 0.15437 0.56654 0.0
C385 C 0.78108 0.16683 0.53689 0.0
C386 C 0.78773 0.15835 0.50378 0.0
C387 C 0.80258 0.13773 0.50011 0.0
C388 C 0.81052 0.12548 0.53 0.0
C389 C 0.8107 0.12933 0.46534 0.0
C390 C 0.79476 0.12928 0.43678 0.0
C391 C 0.83462 0.12085 0.46073 0.0
C392 C 0.84215 0.1117 0.42882 0.0
C393 C 0.82608 0.11108 0.40058 0.0
C394 C 0.76649 0.1894 0.54038 0.0
C395 C 0.74682 0.19056 0.56357 0.0
C396 C 0.77223 0.20999 0.5204 0.0
C397 C 0.75848 0.23124 0.5233 0.0
C398 C 0.73862 0.23235 0.54615 0.0
C399 C 0.73293 0.2118 0.56629 0.0
C400 C 0.80243 0.12032 0.4046 0.0
H401 H 0.80039 0.09843 0.67297 0.0
H402 H 0.78192 0.1197 0.62346 0.0
H403 H 0.85175 0.12137 0.57237 0.0
H404 H 0.86997 0.09989 0.62108 0.0
H405 H 0.78503 0.16125 0.59214 0.0
H406 H 0.8216 0.10926 0.52751 0.0
H407 H 0.78167 0.16809 0.48089 0.0
H408 H 0.77618 0.13554 0.43951 0.0
H409 H 0.8476 0.12126 0.48184 0.0
H410 H 0.86062 0.10508 0.42619 0.0
H411 H 0.74195 0.17493 0.57919 0.0
H412 H 0.78748 0.20973 0.50263 0.0
H413 H 0.7897 0.11995 0.38317 0.0
H414 H 0.71781 0.2122 0.58428 0.0
H415 H 0.76316 0.24667 0.50718 0.0
C416 C 0.0817 0.125 0.00756 0.0
C417 C 0.07281 0.11201 0.0363 0.0
C418 C 0.09991 0.14235 0.01174 0.0
C419 C 0.15092 0.15431 0.0698 0.0
H420 H 0.16015 0.21003 0.00954 0.0
C421 C 0.24549 0.19227 0.03895 0.0
C422 C 0.24832 0.21754 0.0358 0.0
C423 C 0.22243 0.18217 0.04305 0.0
C424 C 0.15775 0.19475 0.02694 0.0
H425 H 0.07449 0.10871 0.09241 0.0
H426 H 0.10609 0.13928 0.09969 0.0
H427 H 0.12092 0.18952 0.01069 0.0
H428 H 0.22925 0.25209 0.03528 0.0
H429 H 0.18891 0.23442 0.04243 0.0
H430 H 0.18774 0.15941 0.08589 0.0
C431 C 0.09937 0.13557 0.07382 0.0
C432 C 0.13533 0.18287 0.02737 0.0
C433 C 0.08117 0.11814 0.06965 0.0
C434 C 0.2276 0.23251 0.03708 0.0
C435 C 0.20451 0.22241 0.04124 0.0
C436 C 0.17328 0.16621 0.06943 0.0
C437 C 0.10956 0.1472 0.04477 0.0
C438 C 0.13186 0.16215 0.04817 0.0
C439 C 0.20167 0.19712 0.0442 0.0
C440 C 0.17715 0.18617 0.04735 0.0
H441 H 0.07558 0.12086 0.98152 0.0
H442 H 0.10744 0.15083 0.98876 0.0
H443 H 0.14898 0.13827 0.08589 0.0
H444 H 0.26108 0.18025 0.0376 0.0
H445 H 0.22082 0.16258 0.04456 0.0
C446 C 0.873 0.08625 0.98451 0.0
C447 C 0.88312 0.0776 0.01569 0.0
C448 C 0.85527 0.10443 0.98493 0.0
C449 C 0.81291 0.13933 0.04081 0.0
H450 H 0.82997 0.19263 0.97949 0.0
C451 C 0.7955 0.24878 0.02617 0.0
C452 C 0.77003 0.25009 0.02778 0.0
C453 C 0.80722 0.2263 0.02437 0.0
C454 C 0.825 0.17792 0.99679 0.0
H455 H 0.88095 0.0798 0.07188 0.0
H456 H 0.85013 0.11162 0.0725 0.0
H457 H 0.8525 0.15458 0.97624 0.0
H458 H 0.73689 0.22889 0.02979 0.0
H459 H 0.75745 0.18948 0.02662 0.0
H460 H 0.78576 0.16312 0.06193 0.0
C461 C 0.85592 0.10434 0.04774 0.0
C462 C 0.83768 0.156 0.99462 0.0
C463 C 0.87369 0.08616 0.04735 0.0
C464 C 0.75654 0.22842 0.02826 0.0
C465 C 0.76829 0.20589 0.02672 0.0
C466 C 0.80008 0.16128 0.04282 0.0
C467 C 0.84723 0.1143 0.01651 0.0
C468 C 0.83198 0.13656 0.01687 0.0
C469 C 0.79373 0.20464 0.02434 0.0
C470 C 0.80628 0.18089 0.02118 0.0
H471 H 0.87963 0.07989 0.95966 0.0
H472 H 0.84853 0.11145 0.96046 0.0
H473 H 0.80808 0.12463 0.05819 0.0
H474 H 0.80636 0.26518 0.02548 0.0
H475 H 0.82688 0.22586 0.02298 0.0
C476 C 0.90346 0.88588 0.07832 0.0
C477 C 0.92078 0.8856 0.05157 0.0
C478 C 0.88577 0.86779 0.08026 0.0
C479 C 0.85556 0.82389 0.02162 0.0
H480 H 0.81877 0.80891 0.10474 0.0
C481 C 0.77247 0.75953 0.02493 0.0
C482 C 0.75099 0.77136 0.03557 0.0
C483 C 0.79507 0.77052 0.02951 0.0
C484 C 0.82902 0.81291 0.08142 0.0
H485 H 0.93492 0.86487 0.00829 0.0
H486 H 0.90503 0.83247 0.01291 0.0
H487 H 0.85694 0.83128 0.10955 0.0
H488 H 0.73678 0.80415 0.05967 0.0
H489 H 0.77647 0.82273 0.06894 0.0
H490 H 0.82771 0.80502 0.99377 0.0
C491 C 0.90418 0.8473 0.03129 0.0
C492 C 0.85079 0.82583 0.08405 0.0
C493 C 0.9215 0.86573 0.02882 0.0
C494 C 0.75284 0.79425 0.05165 0.0
C495 C 0.77553 0.80498 0.05689 0.0
C496 C 0.83414 0.8105 0.01915 0.0
C497 C 0.88535 0.84871 0.05596 0.0
C498 C 0.86407 0.83203 0.05407 0.0
C499 C 0.79675 0.79327 0.04558 0.0
C500 C 0.82047 0.8054 0.04891 0.0
H501 H 0.90246 0.90099 0.09627 0.0
H502 H 0.87158 0.86976 0.0995 0.0
H503 H 0.8648 0.82868 -0.0022 0.0
H504 H 0.77193 0.74165 0.01328 0.0
H505 H 0.8113 0.76118 0.02072 0.0
C506 C 0.11832 0.91523 0.04486 0.0
C507 C 0.1083 0.92314 0.0132 0.0
C508 C 0.13663 0.89759 0.04535 0.0
C509 C 0.1809 0.86416 0.03809 0.0
H510 H 0.16466 0.80921 0.9796 0.0
C511 C 0.24055 0.77727 0.02614 0.0
C512 C 0.22797 0.75508 0.02745 0.0
C513 C 0.22784 0.79926 0.02421 0.0
C514 C 0.16941 0.8244 0.9961 0.0
H515 H 0.11115 0.92022 0.95716 0.0
H516 H 0.14313 0.88954 0.95814 0.0
H517 H 0.14064 0.84635 0.97582 0.0
H518 H 0.19229 0.73847 0.02789 0.0
H519 H 0.17008 0.77686 0.0246 0.0
H520 H 0.20939 0.84181 0.05889 0.0
C521 C 0.1365 0.89669 0.98255 0.0
C522 C 0.15586 0.84578 0.99363 0.0
C523 C 0.11826 0.91437 0.98203 0.0
C524 C 0.20245 0.7553 0.02717 0.0
C525 C 0.18976 0.77724 0.02494 0.0
C526 C 0.19461 0.84277 0.04036 0.0
C527 C 0.14524 0.8875 0.01422 0.0
C528 C 0.16126 0.8658 0.01486 0.0
C529 C 0.20233 0.79942 0.0232 0.0
C530 C 0.18874 0.82257 0.01974 0.0
H531 H 0.11119 0.92171 0.06937 0.0
H532 H 0.14297 0.89081 0.07017 0.0
H533 H 0.1855 0.87934 0.05469 0.0
H534 H 0.26023 0.77762 0.0266 0.0
H535 H 0.23797 0.81609 0.02277 0.0
C536 C 0.57937 0.63262 0.50032 0.0
C537 C 0.56953 0.62076 0.52942 0.0
C538 C 0.59726 0.65032 0.50438 0.0
C539 C 0.64588 0.66439 0.56569 0.0
H540 H 0.65955 0.71581 0.4997 0.0
C541 C 0.74292 0.69656 0.5375 0.0
C542 C 0.74697 0.72124 0.53034 0.0
C543 C 0.71931 0.6878 0.54169 0.0
C544 C 0.65589 0.70179 0.51873 0.0
H545 H 0.56884 0.62011 0.58573 0.0
H546 H 0.5997 0.6514 0.59279 0.0
H547 H 0.61963 0.69673 0.5 0.0
H548 H 0.72955 0.75629 0.52309 0.0
H549 H 0.68827 0.74101 0.53058 0.0
H550 H 0.68213 0.66933 0.5843 0.0
C551 C 0.5941 0.64647 0.5668 0.0
C552 C 0.63307 0.69069 0.51868 0.0
C553 C 0.57629 0.62864 0.56274 0.0
C554 C 0.72695 0.73708 0.52803 0.0
C555 C 0.70332 0.72834 0.53235 0.0
C556 C 0.66862 0.67554 0.56584 0.0
C557 C 0.60557 0.6567 0.53764 0.0
C558 C 0.62803 0.6714 0.54151 0.0
C559 C 0.69922 0.70357 0.53901 0.0
C560 C 0.67413 0.69388 0.54171 0.0
H561 H 0.57447 0.62713 0.47426 0.0
H562 H 0.60573 0.65771 0.48132 0.0
H563 H 0.64277 0.64942 0.58343 0.0
H564 H 0.75798 0.68388 0.53901 0.0
H565 H 0.71679 0.66853 0.54612 0.0
C566 C 0.37974 0.58462 0.55855 0.0
C567 C 0.3882 0.57658 0.52607 0.0
C568 C 0.36302 0.60375 0.56071 0.0
C569 C 0.34522 0.65774 0.51157 0.0
H570 H 0.29211 0.6622 0.57741 0.0
C571 C 0.26001 0.72575 0.54149 0.0
C572 C 0.27213 0.74823 0.5409 0.0
C573 C 0.27317 0.70399 0.54139 0.0
C574 C 0.30682 0.66114 0.55881 0.0
H575 H 0.38435 0.58123 0.47037 0.0
H576 H 0.35517 0.61441 0.47424 0.0
H577 H 0.31545 0.62436 0.57283 0.0
H578 H 0.30749 0.76551 0.54018 0.0
H579 H 0.33046 0.72751 0.54019 0.0
H580 H 0.33672 0.6944 0.49749 0.0
C581 C 0.36181 0.60621 0.49801 0.0
C582 C 0.32024 0.63957 0.55634 0.0
C583 C 0.37843 0.58708 0.49582 0.0
C584 C 0.29766 0.74849 0.5409 0.0
C585 C 0.31079 0.72674 0.54056 0.0
C586 C 0.33197 0.6793 0.51422 0.0
C587 C 0.35449 0.61523 0.53045 0.0
C588 C 0.33956 0.63766 0.53263 0.0
C589 C 0.29869 0.70427 0.54041 0.0
C590 C 0.31267 0.68127 0.5379 0.0
H591 H 0.3868 0.57687 0.58239 0.0
H592 H 0.35774 0.61034 0.58609 0.0
H593 H 0.36023 0.65696 0.49341 0.0
H594 H 0.24034 0.72501 0.54183 0.0
H595 H 0.26335 0.68694 0.5411 0.0
C596 C 0.41941 0.35968 0.50862 0.0
C597 C 0.42077 0.37711 0.53511 0.0
C598 C 0.40201 0.34124 0.51005 0.0
C599 C 0.35227 0.31534 0.56608 0.0
H600 H 0.32113 0.30533 0.47695 0.0
C601 C 0.25038 0.2943 0.54384 0.0
C602 C 0.24532 0.27323 0.52448 0.0
C603 C 0.27421 0.30265 0.54724 0.0
C604 C 0.32984 0.30776 0.50193 0.0
H605 H 0.40622 0.38781 0.58515 0.0
H606 H 0.37532 0.35671 0.58689 0.0
H607 H 0.35972 0.32666 0.47956 0.0
H608 H 0.2618 0.24417 0.49425 0.0
H609 H 0.30314 0.25977 0.49861 0.0
H610 H 0.32102 0.29795 0.5883 0.0
C611 C 0.38791 0.35662 0.56532 0.0
C612 C 0.35211 0.31978 0.50352 0.0
C613 C 0.40563 0.37468 0.56425 0.0
C614 C 0.26478 0.26078 0.50864 0.0
C615 C 0.28852 0.26947 0.51142 0.0
C616 C 0.32969 0.30382 0.56448 0.0
C617 C 0.38523 0.3402 0.53761 0.0
C618 C 0.36344 0.3242 0.53569 0.0
C619 C 0.29338 0.29041 0.53081 0.0
C620 C 0.31819 0.30032 0.53244 0.0
H621 H 0.43111 0.36089 0.48606 0.0
H622 H 0.40109 0.32845 0.48878 0.0
H623 H 0.36062 0.31782 0.59125 0.0
H624 H 0.23594 0.30467 0.5559 0.0
H625 H 0.27761 0.31908 0.56193 0.0
C626 C 0.61162 0.41178 0.50048 0.0
C627 C 0.60161 0.42241 0.53042 0.0
C628 C 0.62855 0.39293 0.50321 0.0
C629 C 0.67082 0.36126 0.56253 0.0
H630 H 0.65648 0.30558 0.50443 0.0
C631 C 0.6981 0.25326 0.54795 0.0
C632 C 0.72359 0.25473 0.54813 0.0
C633 C 0.68395 0.27438 0.54747 0.0
C634 C 0.66063 0.32091 0.52099 0.0
H635 H 0.6028 0.42259 0.58674 0.0
H636 H 0.63242 0.38966 0.5914 0.0
H637 H 0.63164 0.34213 0.49969 0.0
H638 H 0.75422 0.27945 0.5493 0.0
H639 H 0.72946 0.31636 0.54829 0.0
H640 H 0.69972 0.33979 0.58404 0.0
C641 C 0.62709 0.39592 0.56583 0.0
C642 C 0.6466 0.34196 0.51796 0.0
C643 C 0.61006 0.41475 0.56313 0.0
C644 C 0.73461 0.27776 0.5488 0.0
C645 C 0.72045 0.29888 0.54855 0.0
C646 C 0.685 0.3402 0.56539 0.0
C647 C 0.63595 0.38435 0.5359 0.0
C648 C 0.65151 0.36237 0.53869 0.0
C649 C 0.69498 0.29741 0.54738 0.0
C650 C 0.67997 0.31978 0.54472 0.0
H651 H 0.6057 0.41731 0.47485 0.0
H652 H 0.63543 0.38466 0.47968 0.0
H653 H 0.67506 0.37672 0.57877 0.0
H654 H 0.68909 0.23579 0.54719 0.0
H655 H 0.66434 0.27269 0.54696 0.0
C656 C 0.0234 0.07897 0.12806 0.0
C657 C -0.00123 0.08165 0.11958 0.0
C658 C 0.03426 0.09393 0.1527 0.0
C659 C 0.02777 0.15121 0.20147 0.0
H660 H 0.06644 0.11694 0.27006 0.0
C661 C 0.05826 0.1929 0.3329 0.0
C662 C 0.08077 0.18529 0.3462 0.0
C663 C 0.04934 0.1829 0.30206 0.0
C664 C 0.05609 0.12692 0.25082 0.0
H665 H 0.9662 0.10276 0.13006 0.0
H666 H 0.98511 0.12876 0.17364 0.0
H667 H 0.04883 0.09462 0.22208 0.0
H668 H 0.11249 0.16291 0.33677 0.0
H669 H 0.09738 0.14599 0.28256 0.0
H670 H 0.035 0.18357 0.23063 0.0
C671 C 0.99612 0.11517 0.16072 0.0
C672 C 0.04594 0.11408 0.22333 0.0
C673 C 0.98527 0.10013 0.13596 0.0
C674 C 0.09489 0.16874 0.32722 0.0
C675 C 0.08616 0.15899 0.29632 0.0
C676 C 0.03808 0.16415 0.22902 0.0
C677 C 0.02064 0.11192 0.16974 0.0
C678 C 0.03169 0.12605 0.19835 0.0
C679 C 0.06294 0.1653 0.28398 0.0
C680 C 0.05238 0.15211 0.25398 0.0
H681 H 0.03423 0.06493 0.11651 0.0
H682 H 0.05328 0.09115 0.15883 0.0
H683 H 0.01695 0.1609 0.18244 0.0
H684 H 0.04705 0.20562 0.34723 0.0
H685 H 0.03134 0.18807 0.29335 0.0
C686 C 0.92345 0.00084 0.16762 0.0
C687 C 0.9263 0.01191 0.13498 0.0
C688 C 0.91106 0.01273 0.1942 0.0
C689 C 0.88948 0.07283 0.22369 0.0
H690 H 0.84741 0.03346 0.28168 0.0
C691 C 0.83105 0.11249 0.33586 0.0
C692 C 0.83404 0.1001 0.36748 0.0
C693 C 0.84009 0.10249 0.30506 0.0
C694 C 0.85909 0.04467 0.2657 0.0
H695 H 0.91866 0.04435 0.10517 0.0
H696 H 0.89681 0.06516 0.15139 0.0
H697 H 0.86814 0.01495 0.2325 0.0
H698 H 0.84789 0.06731 0.3917 0.0
H699 H 0.86346 0.04979 0.33806 0.0
H700 H 0.88038 0.10253 0.25727 0.0
C701 C 0.90442 0.04733 0.15648 0.0
C702 C 0.87107 0.03407 0.23765 0.0
C703 C 0.91696 0.03541 0.12988 0.0
C704 C 0.84554 0.0773 0.36767 0.0
C705 C 0.85426 0.06721 0.33696 0.0
C706 C 0.87733 0.08349 0.25171 0.0
C707 C 0.90102 0.03594 0.18879 0.0
C708 C 0.88685 0.04787 0.2168 0.0
C709 C 0.85187 0.07979 0.30541 0.0
C710 C 0.86245 0.06936 0.2734 0.0
H711 H 0.93062 0.98281 0.17264 0.0
H712 H 0.90931 0.00367 0.21904 0.0
H713 H 0.90159 0.08393 0.20824 0.0
H714 H 0.8223 0.13015 0.33512 0.0
H715 H 0.83792 0.11249 0.28101 0.0
C716 C 0.00711 0.89728 0.13176 0.0
C717 C 0.99419 0.91824 0.1218 0.0
C718 C 0.99718 0.88094 0.15564 0.0
C719 C 0.93921 0.86308 0.19738 0.0
H720 H 0.98101 0.84014 0.27164 0.0
C721 C 0.90239 0.8277 0.32732 0.0
C722 C 0.91391 0.80769 0.3431 0.0
C723 C 0.91193 0.83809 0.29725 0.0
C724 C 0.96919 0.84603 0.25076 0.0
H725 H 0.96116 0.93867 0.1299 0.0
H726 H 0.94365 0.91033 0.17123 0.0
H727 H 0.99823 0.86411 0.22447 0.0
H728 H 0.94422 0.78255 0.33905 0.0
H729 H 0.96109 0.801 0.28659 0.0
H730 H 0.91005 0.84556 0.22426 0.0
C731 C 0.96121 0.90616 0.15999 0.0
C732 C 0.97905 0.85976 0.22372 0.0
C733 C 0.97119 0.92246 0.13619 0.0
C734 C 0.93508 0.79814 0.3278 0.0
C735 C 0.94471 0.80865 0.29774 0.0
C736 C 0.92934 0.8494 0.22446 0.0
C737 C 0.97416 0.88528 0.17016 0.0
C738 C 0.96409 0.86881 0.19707 0.0
C739 C 0.9333 0.82883 0.2823 0.0
C740 C 0.94415 0.84111 0.25176 0.0
H741 H 0.02493 0.89347 0.12111 0.0
H742 H 0.00754 0.86492 0.16272 0.0
H743 H 0.9273 0.8694 0.17687 0.0
H744 H 0.88637 0.83586 0.33876 0.0
H745 H 0.90298 0.85391 0.28635 0.0
C746 C 0.06801 0.00192 0.16095 0.0
C747 C 0.06498 0.98985 0.12912 0.0
C748 C 0.08051 0.99086 0.18822 0.0
C749 C 0.10256 0.93166 0.22123 0.0
H750 H 0.14606 0.97248 0.27466 0.0
C751 C 0.16664 0.89416 0.32846 0.0
C752 C 0.16662 0.90734 0.35971 0.0
C753 C 0.15516 0.90352 0.29891 0.0
C754 C 0.13389 0.96088 0.26009 0.0
H755 H 0.07249 0.95651 0.10153 0.0
H756 H 0.09453 0.93716 0.14888 0.0
H757 H 0.12372 0.98981 0.22599 0.0
H758 H 0.15413 0.94054 0.38443 0.0
H759 H 0.13458 0.95693 0.33289 0.0
H760 H 0.11289 0.90271 0.25554 0.0
C761 C 0.08693 0.95512 0.15284 0.0
C762 C 0.12102 0.97081 0.23228 0.0
C763 C 0.07429 0.96621 0.12558 0.0
C764 C 0.15501 0.93013 0.36063 0.0
C765 C 0.14372 0.93951 0.33112 0.0
C766 C 0.11555 0.92168 0.24903 0.0
C767 C 0.09048 0.96748 0.18432 0.0
C768 C 0.10492 0.95643 0.21284 0.0
C769 C 0.1436 0.9263 0.29998 0.0
C770 C 0.13108 0.9363 0.26902 0.0
H771 H 0.06087 0.02009 0.16479 0.0
H772 H 0.08242 0.00069 0.21239 0.0
H773 H 0.09017 0.92014 0.20694 0.0
H774 H 0.17565 0.87668 0.32674 0.0
H775 H 0.15554 0.89305 0.27513 0.0
C776 C 0.03654 0.99733 0.86545 0.0
C777 C 0.04558 0.01804 0.88235 0.0
C778 C 0.04794 0.98854 0.83555 0.0
C779 C 0.10823 0.98807 0.79556 0.0
H780 H 0.07515 0.95889 0.71727 0.0
C781 C 0.16087 0.94827 0.67925 0.0
C782 C 0.15229 0.92629 0.66536 0.0
C783 C 0.14715 0.96102 0.70374 0.0
C784 C 0.08465 0.96678 0.73912 0.0
H785 H 0.07222 0.04702 0.87943 0.0
H786 H 0.09198 0.03169 0.82733 0.0
H787 H 0.05149 0.97921 0.76239 0.0
H788 H 0.12236 0.90066 0.66611 0.0
H789 H 0.09888 0.92244 0.70963 0.0
H790 H 0.1413 0.97522 0.77296 0.0
C791 C 0.07653 0.0219 0.83767 0.0
C792 C 0.07109 0.97848 0.76487 0.0
C793 C 0.06515 0.03069 0.86748 0.0
C794 C 0.1297 0.91734 0.67663 0.0
C795 C 0.11604 0.93004 0.7012 0.0
C796 C 0.12176 0.97631 0.76995 0.0
C797 C 0.06854 0.0003 0.82203 0.0
C798 C 0.08275 0.98914 0.79346 0.0
C799 C 0.12456 0.95206 0.71501 0.0
C800 C 0.11014 0.96537 0.74153 0.0
H801 H 0.02125 0.98741 0.876 0.0
H802 H 0.04133 0.9719 0.82398 0.0
H803 H 0.11773 0.9957 0.81761 0.0
H804 H 0.17827 0.95558 0.67136 0.0
H805 H 0.15417 0.97804 0.7136 0.0
C806 C 0.99392 0.06496 0.87268 0.0
C807 C -0.00141 0.07364 0.90626 0.0
C808 C 0.00805 0.07264 0.84468 0.0
C809 C 0.0466 0.12379 0.81798 0.0
H810 H 0.06208 0.08188 0.74019 0.0
C811 C 0.09953 0.15856 0.69917 0.0
C812 C 0.08881 0.15333 0.66692 0.0
C813 C 0.09155 0.14692 0.72929 0.0
C814 C 0.05784 0.09376 0.76176 0.0
H815 H 0.02224 0.09661 0.93705 0.0
H816 H 0.04705 0.10981 0.88828 0.0
H817 H 0.04309 0.06463 0.79202 0.0
H818 H 0.06148 0.13147 0.64106 0.0
H819 H 0.0478 0.11096 0.69362 0.0
H820 H 0.06116 0.15291 0.7877 0.0
C821 C 0.03219 0.09739 0.88345 0.0
C822 C 0.04693 0.08393 0.79135 0.0
C823 C 0.01798 0.0898 0.91141 0.0
C824 C 0.07037 0.13571 0.66537 0.0
C825 C 0.06252 0.12394 0.69547 0.0
C826 C 0.05766 0.13355 0.78856 0.0
C827 C 0.02717 0.08917 0.84969 0.0
C828 C 0.0408 0.09894 0.81955 0.0
C829 C 0.07282 0.12967 0.72776 0.0
C830 C 0.06303 0.11873 0.75995 0.0
H831 H 0.97917 0.05246 0.86794 0.0
H832 H 0.0035 0.06617 0.81898 0.0
H833 H 0.04178 0.13595 0.83897 0.0
H834 H 0.11411 0.17167 0.70119 0.0
H835 H 0.09999 0.15147 0.75382 0.0
C836 C 0.924 0.96893 0.88083 0.0
C837 C 0.94553 0.97884 0.89435 0.0
C838 C 0.91273 0.97948 0.85202 0.0
C839 C 0.92196 0.02236 0.77908 0.0
H840 H 0.85276 0.03402 0.78922 0.0
C841 C 0.87099 0.09054 0.69235 0.0
C842 C 0.84797 0.08384 0.67989 0.0
C843 C 0.88265 0.07662 0.71769 0.0
C844 C 0.872 0.03064 0.78574 0.0
H845 H 0.97308 0.00648 0.88673 0.0
H846 H 0.9534 0.02483 0.83632 0.0
H847 H 0.87435 0.01042 0.83308 0.0
H848 H 0.81893 0.05749 0.68464 0.0
H849 H 0.83932 0.03309 0.72902 0.0
H850 H 0.91966 0.04279 0.73191 0.0
C851 C 0.94515 0.00904 0.84821 0.0
C852 C 0.88438 0.01707 0.81084 0.0
C853 C 0.95636 -0.00141 0.87718 0.0
C854 C 0.83655 0.06325 0.69401 0.0
C855 C 0.84826 0.04926 0.71936 0.0
C856 C 0.90958 0.0359 0.75395 0.0
C857 C 0.92286 3e-05 0.83595 0.0
C858 C 0.90954 0.01297 0.80795 0.0
C859 C 0.87159 0.05563 0.73115 0.0
C860 C 0.88451 0.04042 0.75719 0.0
H861 H 0.91533 0.95353 0.89322 0.0
H862 H 0.89583 0.97182 0.84272 0.0
H863 H 0.94128 0.01925 0.7759 0.0
H864 H 0.88006 0.10655 0.68238 0.0
H865 H 0.90036 0.08236 0.72679 0.0
C866 C 0.97588 0.90969 0.90106 0.0
C867 C 0.99651 0.92455 0.89829 0.0
C868 C 0.96542 0.89951 0.8715 0.0
C869 C 0.96326 0.90367 0.77568 0.0
H870 H 0.94476 0.83583 0.78262 0.0
C871 C 0.93896 0.84519 0.65606 0.0
C872 C 0.91849 0.83012 0.65931 0.0
C873 C 0.94832 0.85725 0.68499 0.0
C874 C 0.94961 0.85484 0.78035 0.0
H875 H 0.02206 0.94079 0.86232 0.0
H876 H 0.00399 0.92277 0.81068 0.0
H877 H 0.96063 0.85667 0.83344 0.0
H878 H 0.8921 0.81548 0.69548 0.0
H879 H 0.90829 0.83668 0.74588 0.0
H880 H 0.95241 0.90166 0.72239 0.0
C881 C 0.99569 0.91926 0.83566 0.0
C882 C 0.95864 0.86681 0.80949 0.0
C883 C 0.0061 0.92952 0.86526 0.0
C884 C 0.90775 0.82716 0.69211 0.0
C885 C 0.91716 0.83912 0.72102 0.0
C886 C 0.95427 0.89165 0.74647 0.0
C887 C 0.97547 0.90382 0.83854 0.0
C888 C 0.96552 0.89137 0.80753 0.0
C889 C 0.93748 0.85436 0.71776 0.0
C890 C 0.94731 0.86712 0.74854 0.0
H891 H 0.96792 0.90567 0.92612 0.0
H892 H 0.94956 0.88808 0.87451 0.0
H893 H 0.96816 0.92266 0.77344 0.0
H894 H 0.94749 0.84797 0.63105 0.0
H895 H 0.96415 0.8687 0.68177 0.0
C896 C 0.51771 0.5874 0.61966 0.0
C897 C 0.50358 0.56672 0.62588 0.0
C898 C 0.5305 0.59837 0.64663 0.0
C899 C 0.55327 0.58768 0.73574 0.0
H900 H 0.55413 0.65813 0.73962 0.0
C901 C 0.60779 0.63852 0.84013 0.0
C902 C 0.59637 0.65857 0.85573 0.0
C903 C 0.59796 0.62795 0.81039 0.0
C904 C 0.55394 0.63845 0.73904 0.0
H905 H 0.49095 0.54147 0.66497 0.0
H906 H 0.51294 0.56088 0.71264 0.0
H907 H 0.53361 0.63789 0.6918 0.0
H908 H 0.566 0.68359 0.85222 0.0
H909 H 0.54857 0.66494 0.80053 0.0
H910 H 0.57277 0.58822 0.78369 0.0
C911 C 0.51475 0.5683 0.68673 0.0
C912 C 0.54245 0.62683 0.71138 0.0
C913 C 0.502 0.55731 0.65962 0.0
C914 C 0.5753 0.66829 0.8405 0.0
C915 C 0.56536 0.65761 0.81087 0.0
C916 C 0.56466 0.59929 0.76349 0.0
C917 C 0.52908 0.58902 0.68054 0.0
C918 C 0.54188 0.60131 0.70949 0.0
C919 C 0.5764 0.6371 0.79575 0.0
C920 C 0.56503 0.62482 0.76556 0.0
H921 H 0.51818 0.59555 0.59413 0.0
H922 H 0.54139 0.61425 0.64094 0.0
H923 H 0.55342 0.568 0.73483 0.0
H924 H 0.62427 0.63089 0.85108 0.0
H925 H 0.60722 0.61251 0.79898 0.0
C926 C 0.41525 0.52344 0.63113 0.0
C927 C 0.42052 0.4985 0.6323 0.0
C928 C 0.40223 0.53456 0.65786 0.0
C929 C 0.36184 0.51993 0.73233 0.0
H930 H 0.37813 0.58528 0.76172 0.0
C931 C 0.3338 0.56131 0.86357 0.0
C932 C 0.32498 0.58527 0.86345 0.0
C933 C 0.3428 0.55091 0.8332 0.0
C934 C 0.37319 0.56714 0.75343 0.0
H935 H 0.41712 0.46577 0.66348 0.0
H936 H 0.39528 0.48524 0.71064 0.0
H937 H 0.40025 0.56681 0.71367 0.0
H938 H 0.31814 0.61706 0.83168 0.0
H939 H 0.33438 0.59893 0.77833 0.0
H940 H 0.33545 0.52005 0.77321 0.0
C941 C 0.40037 0.49615 0.6884 0.0
C942 C 0.38582 0.55654 0.72588 0.0
C943 C 0.4131 0.48501 0.66143 0.0
C944 C 0.32475 0.5985 0.83228 0.0
C945 C 0.33414 0.58822 0.80194 0.0
C946 C 0.34946 0.53043 0.76015 0.0
C947 C 0.39449 0.52101 0.68677 0.0
C948 C 0.38046 0.5327 0.7152 0.0
C949 C 0.34348 0.56442 0.80228 0.0
C950 C 0.35516 0.55404 0.77111 0.0
H951 H 0.42081 0.53436 0.60943 0.0
H952 H 0.39788 0.5537 0.65551 0.0
H953 H 0.35682 0.50177 0.72431 0.0
H954 H 0.33405 0.55076 0.88734 0.0
H955 H 0.35006 0.53259 0.83417 0.0
C956 C 0.49367 0.43972 0.66767 0.0
C957 C 0.48753 0.43285 0.63373 0.0
C958 C 0.48314 0.42794 0.69608 0.0
C959 C 0.45331 0.36998 0.71923 0.0
H960 H 0.43633 0.40417 0.80375 0.0
C961 C 0.40221 0.32449 0.83295 0.0
C962 C 0.41159 0.32887 0.86625 0.0
C963 C 0.41094 0.33746 0.80437 0.0
C964 C 0.44115 0.3944 0.78035 0.0
H965 H 0.46696 0.40755 0.60295 0.0
H966 H 0.44722 0.38797 0.65204 0.0
H967 H 0.4518 0.42696 0.75404 0.0
H968 H 0.4372 0.35038 0.89588 0.0
H969 H 0.45248 0.37299 0.84589 0.0
H970 H 0.44243 0.33747 0.7455 0.0
C971 C 0.46011 0.40241 0.65696 0.0
C972 C 0.45004 0.40741 0.75193 0.0
C973 C 0.47081 0.41406 0.6287 0.0
C974 C 0.42983 0.34646 0.87044 0.0
C975 C 0.43838 0.35957 0.84193 0.0
C976 C 0.44423 0.35702 0.74753 0.0
C977 C 0.46638 0.40897 0.69104 0.0
C978 C 0.45632 0.39534 0.72106 0.0
C979 C 0.42901 0.35521 0.80863 0.0
C980 C 0.43817 0.36908 0.77841 0.0
H981 H 0.50683 0.45398 0.67221 0.0
H982 H 0.48871 0.4332 0.72195 0.0
H983 H 0.45842 0.36001 0.69615 0.0
H984 H 0.38822 0.31096 0.82899 0.0
H985 H 0.40331 0.33384 0.77899 0.0
C986 C 0.57217 0.47785 0.63357 0.0
C987 C 0.56468 0.50221 0.63387 0.0
C988 C 0.58369 0.46761 0.66235 0.0
C989 C 0.61815 0.48504 0.74072 0.0
H990 H 0.60768 0.41773 0.76667 0.0
C991 C 0.65593 0.44245 0.8667 0.0
C992 C 0.66668 0.41931 0.86392 0.0
C993 C 0.64361 0.45272 0.8386 0.0
C994 C 0.61092 0.43649 0.75949 0.0
H995 H 0.56249 0.53482 0.66539 0.0
H996 H 0.58207 0.51684 0.71599 0.0
H997 H 0.58454 0.43532 0.71879 0.0
H998 H 0.67335 0.38909 0.82902 0.0
H999 H 0.65142 0.40694 0.78011 0.0
H1000 H 0.64429 0.48622 0.78183 0.0
C1001 C 0.57965 0.50574 0.69307 0.0
C1002 C 0.5977 0.44658 0.73207 0.0
C1003 C 0.5683 0.51601 0.66411 0.0
C1004 C 0.66498 0.40678 0.83223 0.0
C1005 C 0.65246 0.41698 0.80421 0.0
C1006 C 0.63121 0.475 0.76831 0.0
C1007 C 0.58781 0.4815 0.69234 0.0
C1008 C 0.60123 0.47095 0.72226 0.0
C1009 C 0.64157 0.44 0.80721 0.0
C1010 C 0.62779 0.45061 0.77786 0.0
H1011 H 0.56981 0.46685 0.61083 0.0
H1012 H 0.59001 0.44899 0.66064 0.0
H1013 H 0.62167 0.50373 0.73346 0.0
H1014 H 0.65645 0.45242 0.89089 0.0
H1015 H 0.63514 0.47038 0.84174 0.0
C1016 C 0.56763 0.53235 0.36582 0.0
C1017 C 0.54869 0.51945 0.38191 0.0
C1018 C 0.57947 0.52274 0.33694 0.0
C1019 C 0.5761 0.47696 0.26758 0.0
H1020 H 0.64632 0.476 0.27672 0.0
C1021 C 0.63684 0.41772 0.17981 0.0
C1022 C 0.65921 0.42735 0.16883 0.0
C1023 C 0.62282 0.42978 0.2046 0.0
C1024 C 0.62678 0.47643 0.2734 0.0
H1025 H 0.526 0.48738 0.37872 0.0
H1026 H 0.54687 0.47044 0.32821 0.0
H1027 H 0.6218 0.49657 0.32026 0.0
H1028 H 0.68451 0.45714 0.17579 0.0
H1029 H 0.6597 0.47859 0.21817 0.0
H1030 H 0.58107 0.45691 0.22059 0.0
C1031 C 0.5526 0.48793 0.33812 0.0
C1032 C 0.61273 0.4882 0.2984 0.0
C1033 C 0.54075 0.49754 0.36712 0.0
C1034 C 0.66727 0.44931 0.18339 0.0
C1035 C 0.65316 0.46148 0.20801 0.0
C1036 C 0.59019 0.46533 0.24236 0.0
C1037 C 0.57256 0.5001 0.32344 0.0
C1038 C 0.58725 0.48849 0.29584 0.0
C1039 C 0.63072 0.45189 0.21885 0.0
C1040 C 0.6157 0.46479 0.2451 0.0
H1041 H 0.57386 0.54954 0.37617 0.0
H1042 H 0.59444 0.53276 0.32564 0.0
H1043 H 0.55651 0.47708 0.26486 0.0
H1044 H 0.62986 0.40104 0.16878 0.0
H1045 H 0.60583 0.42168 0.21271 0.0
C1046 C 0.49361 0.56377 0.37938 0.0
C1047 C 0.49646 0.57341 0.41283 0.0
C1048 C 0.50785 0.57215 0.35195 0.0
C1049 C 0.54357 0.62518 0.32453 0.0
H1050 H 0.56668 0.58123 0.25312 0.0
C1051 C 0.60149 0.65779 0.20873 0.0
C1052 C 0.5937 0.64966 0.17599 0.0
C1053 C 0.59199 0.6476 0.23902 0.0
C1054 C 0.56027 0.5937 0.27285 0.0
H1055 H 0.51644 0.59951 0.44379 0.0
H1056 H 0.54152 0.61399 0.39598 0.0
H1057 H 0.54597 0.56489 0.30407 0.0
H1058 H 0.56973 0.62449 0.1495 0.0
H1059 H 0.55341 0.60655 0.20237 0.0
H1060 H 0.55769 0.65398 0.29315 0.0
C1061 C 0.5281 0.60007 0.39088 0.0
C1062 C 0.54839 0.58437 0.30196 0.0
C1063 C 0.51379 0.59172 0.41829 0.0
C1064 C 0.57643 0.6309 0.17426 0.0
C1065 C 0.56707 0.62061 0.20453 0.0
C1066 C 0.55556 0.63448 0.29552 0.0
C1067 C 0.52523 0.59044 0.35738 0.0
C1068 C 0.53956 0.60006 0.32785 0.0
C1069 C 0.57464 0.62896 0.23719 0.0
C1070 C 0.56368 0.61887 0.26916 0.0
H1071 H 0.48033 0.54977 0.3743 0.0
H1072 H 0.50489 0.56463 0.32636 0.0
H1073 H 0.5367 0.63778 0.34375 0.0
H1074 H 0.61506 0.67193 0.21097 0.0
H1075 H 0.5983 0.65421 0.26389 0.0
C1076 C 0.4542 0.49985 0.37329 0.0
C1077 C 0.44305 0.47975 0.3891 0.0
C1078 C 0.44275 0.51199 0.3459 0.0
C1079 C 0.38168 0.52336 0.31135 0.0
H1080 H 0.41596 0.54806 0.23089 0.0
C1081 C 0.33246 0.56753 0.19456 0.0
C1082 C 0.34395 0.58724 0.17825 0.0
C1083 C 0.34437 0.55455 0.22076 0.0
C1084 C 0.40618 0.54156 0.25344 0.0
H1085 H 0.41189 0.45564 0.38721 0.0
H1086 H 0.39203 0.47677 0.33937 0.0
H1087 H 0.43788 0.52409 0.27406 0.0
H1088 H 0.37627 0.60968 0.17773 0.0
H1089 H 0.3969 0.58733 0.22383 0.0
H1090 H 0.35004 0.541 0.29101 0.0
C1091 C 0.40937 0.48343 0.34858 0.0
C1092 C 0.41874 0.52776 0.27807 0.0
C1093 C 0.42085 0.47124 0.37582 0.0
C1094 C 0.36715 0.59431 0.18952 0.0
C1095 C 0.37899 0.58144 0.21579 0.0
C1096 C 0.36914 0.53723 0.2868 0.0
C1097 C 0.41992 0.50427 0.33389 0.0
C1098 C 0.40661 0.51849 0.30726 0.0
C1099 C 0.36794 0.56113 0.23127 0.0
C1100 C 0.38125 0.54651 0.25757 0.0
H1101 H 0.47145 0.50659 0.38272 0.0
H1102 H 0.45132 0.52798 0.33501 0.0
H1103 H 0.37193 0.51682 0.33392 0.0
H1104 H 0.31468 0.56154 0.18611 0.0
H1105 H 0.33543 0.53886 0.23192 0.0
C1106 C 0.50319 0.42969 0.37921 0.0
C1107 C 0.49683 0.42285 0.41314 0.0
C1108 C 0.4923 0.41847 0.35074 0.0
C1109 C 0.46064 0.36199 0.32671 0.0
H1110 H 0.44453 0.39775 0.243 0.0
C1111 C 0.4085 0.31941 0.21196 0.0
C1112 C 0.4174 0.32455 0.17859 0.0
C1113 C 0.41782 0.33148 0.24086 0.0
C1114 C 0.44913 0.38752 0.26613 0.0
H1115 H 0.47355 0.39942 0.44386 0.0
H1116 H 0.45425 0.38016 0.39422 0.0
H1117 H 0.46052 0.41945 0.29322 0.0
H1118 H 0.44298 0.34635 0.14925 0.0
H1119 H 0.45942 0.36733 0.19982 0.0
H1120 H 0.44913 0.3301 0.29964 0.0
C1121 C 0.46801 0.39383 0.38958 0.0
C1122 C 0.45829 0.39992 0.29486 0.0
C1123 C 0.47898 0.40496 0.41803 0.0
C1124 C 0.43595 0.34186 0.1747 0.0
C1125 C 0.44515 0.35405 0.20357 0.0
C1126 C 0.45136 0.34962 0.29806 0.0
C1127 C 0.47478 0.40021 0.35561 0.0
C1128 C 0.46426 0.38727 0.32543 0.0
C1129 C 0.4361 0.34906 0.2369 0.0
C1130 C 0.44564 0.36225 0.26744 0.0
H1131 H 0.51695 0.44335 0.37459 0.0
H1132 H 0.49813 0.42362 0.32492 0.0
H1133 H 0.46547 0.35163 0.34963 0.0
H1134 H 0.39432 0.30603 0.21571 0.0
H1135 H 0.41042 0.32739 0.26624 0.0
loop_
_geom_bond_atom_site_label_1
_geom_bond_atom_site_label_2
_geom_bond_distance
_geom_bond_site_symmetry_2
_ccdc_geom_bond_type
Zn0 O2 1.933 1_556 S
Zn0 O20 1.985 . S
Zn0 O31 1.955 . S
Zn1 O2 1.911 . S
Zn1 O21 1.970 . S
Zn1 O37 1.945 . S
Zn1 O44 1.981 . S
O2 Zn0 1.933 1_554 S
O2 Zn1 1.911 . S
O2 H3 0.841 1_655 S
H3 O2 0.841 1_455 S
C4 O5 1.246 . S
C4 O33 1.276 1_545 S
O5 C4 1.246 . S
Zn6 O8 1.911 . S
Zn6 O23 1.970 . S
Zn6 O40 1.945 . S
Zn6 O47 1.981 . S
Zn7 O8 1.933 1_556 S
Zn7 O22 1.985 . S
Zn7 O29 1.955 . S
O8 Zn6 1.911 . S
O8 Zn7 1.933 1_554 S
O8 H9 0.841 1_455 S
H9 O8 0.841 1_655 S
Zn10 O11 1.933 1_556 S
Zn10 O24 1.985 . S
Zn10 O33 1.955 . S
O11 Zn10 1.933 1_554 S
O11 Zn12 1.911 . S
O11 H13 0.841 1_565 S
Zn12 O11 1.911 . S
Zn12 O25 1.970 . S
Zn12 O41 1.981 . S
Zn12 O43 1.945 . S
H13 O11 0.841 1_545 S
Zn14 O15 1.933 1_556 S
Zn14 O27 1.985 . S
Zn14 O35 1.955 . S
O15 Zn14 1.933 1_554 S
O15 H16 0.841 1_545 S
O15 Zn17 1.911 . S
H16 O15 0.841 1_565 S
Zn17 O15 1.911 . S
Zn17 O28 1.970 . S
Zn17 O38 1.981 . S
Zn17 O46 1.945 . S
C18 O19 1.246 . S
C18 O35 1.276 1_565 S
O19 C18 1.246 . S
O20 Zn0 1.985 . S
O20 C30 1.245 1_556 S
O21 Zn1 1.970 . S
O21 C30 1.263 . S
O22 Zn7 1.985 . S
O22 C34 1.245 1_556 S
O23 Zn6 1.970 . S
O23 C34 1.263 . S
O24 Zn10 1.985 . S
O24 C39 1.245 1_556 S
O25 Zn12 1.970 . S
O25 C39 1.263 . S
C26 O37 1.262 1_455 S
C26 O38 1.245 . S
O27 Zn14 1.985 . S
O27 C45 1.245 1_556 S
O28 Zn17 1.970 . S
O28 C45 1.263 . S
O29 Zn7 1.955 . S
O29 C48 1.276 1_455 S
C30 O20 1.245 1_554 S
C30 O21 1.263 . S
O31 Zn0 1.955 . S
O31 C50 1.276 1_655 S
C32 O40 1.262 1_655 S
C32 O41 1.245 . S
O33 C4 1.276 1_565 S
O33 Zn10 1.955 . S
C34 O22 1.245 1_554 S
C34 O23 1.263 . S
O35 Zn14 1.955 . S
O35 C18 1.276 1_545 S
C36 O43 1.262 1_545 S
C36 O44 1.245 . S
O37 Zn1 1.945 . S
O37 C26 1.262 1_655 S
O38 Zn17 1.981 . S
O38 C26 1.245 . S
C39 O24 1.245 1_554 S
C39 O25 1.263 . S
O40 Zn6 1.945 . S
O40 C32 1.262 1_455 S
O41 Zn12 1.981 . S
O41 C32 1.245 . S
C42 O46 1.262 1_565 S
C42 O47 1.245 . S
O43 Zn12 1.945 . S
O43 C36 1.262 1_565 S
O44 Zn1 1.981 . S
O44 C36 1.245 . S
C45 O27 1.245 1_554 S
C45 O28 1.263 . S
O46 Zn17 1.945 . S
O46 C42 1.262 1_545 S
O47 Zn6 1.981 . S
O47 C42 1.245 . S
C48 O29 1.276 1_655 S
C48 O49 1.246 . S
O49 C48 1.246 . S
C50 O31 1.276 1_455 S
C50 O51 1.246 . S
O51 C50 1.246 . S
Zn52 O54 1.933 . S
Zn52 O72 1.985 . S
Zn52 O83 1.955 . S
Zn53 O54 1.911 . S
Zn53 O73 1.970 . S
Zn53 O89 1.945 . S
Zn53 O96 1.981 . S
O54 Zn52 1.933 . S
O54 Zn53 1.911 . S
O54 H55 0.841 . S
H55 O54 0.841 . S
C56 O57 1.246 . S
C56 O85 1.276 . S
O57 C56 1.246 . S
Zn58 O60 1.911 . S
Zn58 O75 1.970 . S
Zn58 O92 1.945 . S
Zn58 O99 1.981 . S
Zn59 O60 1.933 . S
Zn59 O74 1.985 . S
Zn59 O81 1.955 . S
O60 Zn58 1.911 . S
O60 Zn59 1.933 . S
O60 H61 0.841 . S
H61 O60 0.841 . S
Zn62 O63 1.933 . S
Zn62 O76 1.985 . S
Zn62 O85 1.955 . S
O63 Zn62 1.933 . S
O63 Zn64 1.911 . S
O63 H65 0.841 . S
Zn64 O63 1.911 . S
Zn64 O77 1.970 . S
Zn64 O93 1.981 . S
Zn64 O95 1.945 . S
H65 O63 0.841 . S
Zn66 O67 1.933 . S
Zn66 O79 1.985 . S
Zn66 O87 1.955 . S
O67 Zn66 1.933 . S
O67 H68 0.841 . S
O67 Zn69 1.911 . S
H68 O67 0.841 . S
Zn69 O67 1.911 . S
Zn69 O80 1.970 . S
Zn69 O90 1.981 . S
Zn69 O98 1.945 . S
C70 O71 1.246 . S
C70 O87 1.276 . S
O71 C70 1.246 . S
O72 Zn52 1.985 . S
O72 C82 1.245 . S
O73 Zn53 1.970 . S
O73 C82 1.263 . S
O74 Zn59 1.985 . S
O74 C86 1.245 . S
O75 Zn58 1.970 . S
O75 C86 1.263 . S
O76 Zn62 1.985 . S
O76 C91 1.245 . S
O77 Zn64 1.970 . S
O77 C91 1.263 . S
C78 O89 1.262 . S
C78 O90 1.245 . S
O79 Zn66 1.985 . S
O79 C97 1.245 . S
O80 Zn69 1.970 . S
O80 C97 1.263 . S
O81 Zn59 1.955 . S
O81 C100 1.276 . S
C82 O72 1.245 . S
C82 O73 1.263 . S
O83 Zn52 1.955 . S
O83 C102 1.276 . S
C84 O92 1.262 . S
C84 O93 1.245 . S
O85 C56 1.276 . S
O85 Zn62 1.955 . S
C86 O74 1.245 . S
C86 O75 1.263 . S
O87 Zn66 1.955 . S
O87 C70 1.276 . S
C88 O95 1.262 . S
C88 O96 1.245 . S
O89 Zn53 1.945 . S
O89 C78 1.262 . S
O90 Zn69 1.981 . S
O90 C78 1.245 . S
C91 O76 1.245 . S
C91 O77 1.263 . S
O92 Zn58 1.945 . S
O92 C84 1.262 . S
O93 Zn64 1.981 . S
O93 C84 1.245 . S
C94 O98 1.262 . S
C94 O99 1.245 . S
O95 Zn64 1.945 . S
O95 C88 1.262 . S
O96 Zn53 1.981 . S
O96 C88 1.245 . S
C97 O79 1.245 . S
C97 O80 1.263 . S
O98 Zn69 1.945 . S
O98 C94 1.262 . S
O99 Zn58 1.981 . S
O99 C94 1.245 . S
C100 O81 1.276 . S
C100 O101 1.246 . S
O101 C100 1.246 . S
C102 O83 1.276 . S
C102 O103 1.246 . S
O103 C102 1.246 . S
C104 C105 1.386 . S
C104 C106 1.397 . S
C104 H128 0.931 . S
C105 C104 1.386 . S
C105 C109 1.397 . S
C106 C104 1.397 . S
C106 C107 1.384 . S
C106 H129 0.930 . S
C107 C106 1.384 . S
C107 C108 1.377 . S
C107 C110 1.481 . S
C108 C107 1.377 . S
C108 C109 1.389 . S
C108 H130 0.929 . S
C109 C105 1.397 . S
C109 C108 1.389 . S
C109 H131 0.931 . S
C110 C107 1.481 . S
C110 C111 1.387 . S
C110 C115 1.390 1_556 S
C111 C110 1.387 . S
C111 C112 1.401 1_556 S
C111 H132 0.930 . S
C112 C111 1.401 1_554 S
C112 C113 1.376 . S
C112 C121 1.511 . S
C113 C112 1.376 . S
C113 C114 1.392 . S
C113 H134 0.931 . S
C114 C113 1.392 . S
C114 C115 1.361 . S
C114 C116 1.500 . S
C115 C110 1.390 1_554 S
C115 C114 1.361 . S
C115 H133 0.931 . S
C116 C114 1.500 . S
C116 C117 1.371 . S
C116 C118 1.365 . S
C117 C116 1.371 . S
C117 C127 1.386 . S
C117 H135 0.931 . S
C118 C116 1.365 . S
C118 C119 1.409 . S
C118 H136 0.929 . S
C119 C118 1.409 . S
C119 C120 1.380 . S
C119 H137 0.930 . S
C120 C119 1.380 . S
C120 C127 1.357 . S
C121 C112 1.511 . S
C121 C122 1.341 1_554 S
C121 C123 1.371 . S
C122 C121 1.341 1_556 S
C122 C126 1.394 . S
C122 H138 0.930 . S
C123 C121 1.371 . S
C123 C124 1.392 . S
C123 H139 0.931 . S
C124 C123 1.392 . S
C124 C125 1.331 . S
C124 H142 0.932 . S
C125 C124 1.331 . S
C125 C126 1.336 1_554 S
C126 C122 1.394 . S
C126 C125 1.336 1_556 S
C126 H141 0.929 . S
C127 C117 1.386 . S
C127 C120 1.357 . S
C127 H140 0.928 . S
H128 C104 0.931 . S
H129 C106 0.930 . S
H130 C108 0.929 . S
H131 C109 0.931 . S
H132 C111 0.930 . S
H133 C115 0.931 . S
H134 C113 0.931 . S
H135 C117 0.931 . S
H136 C118 0.929 . S
H137 C119 0.930 . S
H138 C122 0.930 . S
H139 C123 0.931 . S
H140 C127 0.928 . S
H141 C126 0.929 . S
H142 C124 0.932 . S
C143 C144 1.386 . S
C143 C145 1.397 . S
C143 H167 0.931 . S
C144 C143 1.386 . S
C144 C148 1.397 . S
C145 C143 1.397 . S
C145 C146 1.384 . S
C145 H168 0.930 . S
C146 C145 1.384 . S
C146 C147 1.377 . S
C146 C149 1.481 . S
C147 C146 1.377 . S
C147 C148 1.389 . S
C147 H169 0.929 . S
C148 C144 1.397 . S
C148 C147 1.389 . S
C148 H170 0.931 . S
C149 C146 1.481 . S
C149 C150 1.387 . S
C149 C154 1.390 1_556 S
C150 C149 1.387 . S
C150 C151 1.401 1_556 S
C150 H171 0.930 . S
C151 C150 1.401 1_554 S
C151 C152 1.376 . S
C151 C160 1.511 . S
C152 C151 1.376 . S
C152 C153 1.392 . S
C152 H173 0.931 . S
C153 C152 1.392 . S
C153 C154 1.361 . S
C153 C155 1.500 . S
C154 C149 1.390 1_554 S
C154 C153 1.361 . S
C154 H172 0.931 . S
C155 C153 1.500 . S
C155 C156 1.371 . S
C155 C157 1.365 . S
C156 C155 1.371 . S
C156 C166 1.386 . S
C156 H174 0.931 . S
C157 C155 1.365 . S
C157 C158 1.409 . S
C157 H175 0.929 . S
C158 C157 1.409 . S
C158 C159 1.380 . S
C158 H176 0.930 . S
C159 C158 1.380 . S
C159 C166 1.357 . S
C160 C151 1.511 . S
C160 C161 1.341 1_554 S
C160 C162 1.371 . S
C161 C160 1.341 1_556 S
C161 C165 1.394 . S
C161 H177 0.930 . S
C162 C160 1.371 . S
C162 C163 1.392 . S
C162 H178 0.931 . S
C163 C162 1.392 . S
C163 C164 1.331 . S
C163 H181 0.932 . S
C164 C163 1.331 . S
C164 C165 1.336 1_554 S
C165 C161 1.394 . S
C165 C164 1.336 1_556 S
C165 H180 0.929 . S
C166 C156 1.386 . S
C166 C159 1.357 . S
C166 H179 0.928 . S
H167 C143 0.931 . S
H168 C145 0.930 . S
H169 C147 0.929 . S
H170 C148 0.931 . S
H171 C150 0.930 . S
H172 C154 0.931 . S
H173 C152 0.931 . S
H174 C156 0.931 . S
H175 C157 0.929 . S
H176 C158 0.930 . S
H177 C161 0.930 . S
H178 C162 0.931 . S
H179 C166 0.928 . S
H180 C165 0.929 . S
H181 C163 0.932 . S
C182 C183 1.386 . S
C182 C184 1.397 . S
C182 H206 0.931 . S
C183 C182 1.386 . S
C183 C187 1.397 . S
C184 C182 1.397 . S
C184 C185 1.384 . S
C184 H207 0.930 . S
C185 C184 1.384 . S
C185 C186 1.377 . S
C185 C188 1.481 . S
C186 C185 1.377 . S
C186 C187 1.389 . S
C186 H208 0.929 . S
C187 C183 1.397 . S
C187 C186 1.389 . S
C187 H209 0.931 . S
C188 C185 1.481 . S
C188 C189 1.387 . S
C188 C193 1.390 . S
C189 C188 1.387 . S
C189 C190 1.401 . S
C189 H210 0.930 . S
C190 C189 1.401 . S
C190 C191 1.376 1_554 S
C190 C199 1.511 . S
C191 C190 1.376 1_556 S
C191 C192 1.392 . S
C191 H212 0.931 . S
C192 C191 1.392 . S
C192 C193 1.361 1_556 S
C192 C194 1.500 . S
C193 C188 1.390 . S
C193 C192 1.361 1_554 S
C193 H211 0.931 . S
C194 C192 1.500 . S
C194 C195 1.371 . S
C194 C196 1.365 . S
C195 C194 1.371 . S
C195 C205 1.386 . S
C195 H213 0.931 . S
C196 C194 1.365 . S
C196 C197 1.409 . S
C196 H214 0.929 . S
C197 C196 1.409 . S
C197 C198 1.380 . S
C197 H215 0.930 . S
C198 C197 1.380 . S
C198 C205 1.357 . S
C199 C190 1.511 . S
C199 C200 1.341 . S
C199 C201 1.371 1_554 S
C200 C199 1.341 . S
C200 C204 1.394 . S
C200 H216 0.930 . S
C201 C199 1.371 1_556 S
C201 C202 1.392 . S
C201 H217 0.931 . S
C202 C201 1.392 . S
C202 C203 1.331 1_556 S
C202 H220 0.932 . S
C203 C202 1.331 1_554 S
C203 C204 1.336 . S
C204 C200 1.394 . S
C204 C203 1.336 . S
C204 H219 0.929 . S
C205 C195 1.386 . S
C205 C198 1.357 . S
C205 H218 0.928 . S
H206 C182 0.931 . S
H207 C184 0.930 . S
H208 C186 0.929 . S
H209 C187 0.931 . S
H210 C189 0.930 . S
H211 C193 0.931 . S
H212 C191 0.931 . S
H213 C195 0.931 . S
H214 C196 0.929 . S
H215 C197 0.930 . S
H216 C200 0.930 . S
H217 C201 0.931 . S
H218 C205 0.928 . S
H219 C204 0.929 . S
H220 C202 0.932 . S
C221 C222 1.386 . S
C221 C223 1.397 . S
C221 H245 0.931 . S
C222 C221 1.386 . S
C222 C226 1.397 . S
C223 C221 1.397 . S
C223 C224 1.384 . S
C223 H246 0.930 . S
C224 C223 1.384 . S
C224 C225 1.377 . S
C224 C227 1.481 . S
C225 C224 1.377 . S
C225 C226 1.389 . S
C225 H247 0.929 . S
C226 C222 1.397 . S
C226 C225 1.389 . S
C226 H248 0.931 . S
C227 C224 1.481 . S
C227 C228 1.387 . S
C227 C232 1.390 . S
C228 C227 1.387 . S
C228 C229 1.401 . S
C228 H249 0.930 . S
C229 C228 1.401 . S
C229 C230 1.376 1_554 S
C229 C238 1.511 . S
C230 C229 1.376 1_556 S
C230 C231 1.392 . S
C230 H251 0.931 . S
C231 C230 1.392 . S
C231 C232 1.361 1_556 S
C231 C233 1.500 . S
C232 C227 1.390 . S
C232 C231 1.361 1_554 S
C232 H250 0.931 . S
C233 C231 1.500 . S
C233 C234 1.371 . S
C233 C235 1.365 . S
C234 C233 1.371 . S
C234 C244 1.386 . S
C234 H252 0.931 . S
C235 C233 1.365 . S
C235 C236 1.409 . S
C235 H253 0.929 . S
C236 C235 1.409 . S
C236 C237 1.380 . S
C236 H254 0.930 . S
C237 C236 1.380 . S
C237 C244 1.357 . S
C238 C229 1.511 . S
C238 C239 1.341 . S
C238 C240 1.371 1_554 S
C239 C238 1.341 . S
C239 C243 1.394 . S
C239 H255 0.930 . S
C240 C238 1.371 1_556 S
C240 C241 1.392 . S
C240 H256 0.931 . S
C241 C240 1.392 . S
C241 C242 1.331 1_556 S
C241 H259 0.932 . S
C242 C241 1.331 1_554 S
C242 C243 1.336 . S
C243 C239 1.394 . S
C243 C242 1.336 . S
C243 H258 0.929 . S
C244 C234 1.386 . S
C244 C237 1.357 . S
C244 H257 0.928 . S
H245 C221 0.931 . S
H246 C223 0.930 . S
H247 C225 0.929 . S
H248 C226 0.931 . S
H249 C228 0.930 . S
H250 C232 0.931 . S
H251 C230 0.931 . S
H252 C234 0.931 . S
H253 C235 0.929 . S
H254 C236 0.930 . S
H255 C239 0.930 . S
H256 C240 0.931 . S
H257 C244 0.928 . S
H258 C243 0.929 . S
H259 C241 0.932 . S
C260 C261 1.386 . S
C260 C262 1.397 . S
C260 H284 0.931 . S
C261 C260 1.386 . S
C261 C265 1.397 . S
C262 C260 1.397 . S
C262 C263 1.384 . S
C262 H285 0.930 . S
C263 C262 1.384 . S
C263 C264 1.377 . S
C263 C266 1.481 . S
C264 C263 1.377 . S
C264 C265 1.389 . S
C264 H286 0.929 . S
C265 C261 1.397 . S
C265 C264 1.389 . S
C265 H287 0.931 . S
C266 C263 1.481 . S
C266 C267 1.387 . S
C266 C271 1.390 . S
C267 C266 1.387 . S
C267 C268 1.401 . S
C267 H288 0.930 . S
C268 C267 1.401 . S
C268 C269 1.376 . S
C268 C277 1.511 . S
C269 C268 1.376 . S
C269 C270 1.392 . S
C269 H290 0.931 . S
C270 C269 1.392 . S
C270 C271 1.361 . S
C270 C272 1.500 . S
C271 C266 1.390 . S
C271 C270 1.361 . S
C271 H289 0.931 . S
C272 C270 1.500 . S
C272 C273 1.371 . S
C272 C274 1.365 . S
C273 C272 1.371 . S
C273 C283 1.386 . S
C273 H291 0.931 . S
C274 C272 1.365 . S
C274 C275 1.409 . S
C274 H292 0.929 . S
C275 C274 1.409 . S
C275 C276 1.380 . S
C275 H293 0.930 . S
C276 C275 1.380 . S
C276 C283 1.357 . S
C277 C268 1.511 . S
C277 C278 1.341 . S
C277 C279 1.371 . S
C278 C277 1.341 . S
C278 C282 1.394 . S
C278 H294 0.930 . S
C279 C277 1.371 . S
C279 C280 1.392 . S
C279 H295 0.931 . S
C280 C279 1.392 . S
C280 C281 1.331 . S
C280 H298 0.932 . S
C281 C280 1.331 . S
C281 C282 1.336 . S
C282 C278 1.394 . S
C282 C281 1.336 . S
C282 H297 0.929 . S
C283 C273 1.386 . S
C283 C276 1.357 . S
C283 H296 0.928 . S
H284 C260 0.931 . S
H285 C262 0.930 . S
H286 C264 0.929 . S
H287 C265 0.931 . S
H288 C267 0.930 . S
H289 C271 0.931 . S
H290 C269 0.931 . S
H291 C273 0.931 . S
H292 C274 0.929 . S
H293 C275 0.930 . S
H294 C278 0.930 . S
H295 C279 0.931 . S
H296 C283 0.928 . S
H297 C282 0.929 . S
H298 C280 0.932 . S
C299 C300 1.386 . S
C299 C301 1.397 . S
C299 H323 0.931 . S
C300 C299 1.386 . S
C300 C304 1.397 . S
C301 C299 1.397 . S
C301 C302 1.384 . S
C301 H324 0.930 . S
C302 C301 1.384 . S
C302 C303 1.377 . S
C302 C305 1.481 . S
C303 C302 1.377 . S
C303 C304 1.389 . S
C303 H325 0.929 . S
C304 C300 1.397 . S
C304 C303 1.389 . S
C304 H326 0.931 . S
C305 C302 1.481 . S
C305 C306 1.387 . S
C305 C310 1.390 . S
C306 C305 1.387 . S
C306 C307 1.401 . S
C306 H327 0.930 . S
C307 C306 1.401 . S
C307 C308 1.376 . S
C307 C316 1.511 . S
C308 C307 1.376 . S
C308 C309 1.392 . S
C308 H329 0.931 . S
C309 C308 1.392 . S
C309 C310 1.361 . S
C309 C311 1.500 . S
C310 C305 1.390 . S
C310 C309 1.361 . S
C310 H328 0.931 . S
C311 C309 1.500 . S
C311 C312 1.371 . S
C311 C313 1.365 . S
C312 C311 1.371 . S
C312 C322 1.386 . S
C312 H330 0.931 . S
C313 C311 1.365 . S
C313 C314 1.409 . S
C313 H331 0.929 . S
C314 C313 1.409 . S
C314 C315 1.380 . S
C314 H332 0.930 . S
C315 C314 1.380 . S
C315 C322 1.357 . S
C316 C307 1.511 . S
C316 C317 1.341 . S
C316 C318 1.371 . S
C317 C316 1.341 . S
C317 C321 1.394 . S
C317 H333 0.930 . S
C318 C316 1.371 . S
C318 C319 1.392 . S
C318 H334 0.931 . S
C319 C318 1.392 . S
C319 C320 1.331 . S
C319 H337 0.932 . S
C320 C319 1.331 . S
C320 C321 1.336 . S
C321 C317 1.394 . S
C321 C320 1.336 . S
C321 H336 0.929 . S
C322 C312 1.386 . S
C322 C315 1.357 . S
C322 H335 0.928 . S
H323 C299 0.931 . S
H324 C301 0.930 . S
H325 C303 0.929 . S
H326 C304 0.931 . S
H327 C306 0.930 . S
H328 C310 0.931 . S
H329 C308 0.931 . S
H330 C312 0.931 . S
H331 C313 0.929 . S
H332 C314 0.930 . S
H333 C317 0.930 . S
H334 C318 0.931 . S
H335 C322 0.928 . S
H336 C321 0.929 . S
H337 C319 0.932 . S
C338 C339 1.386 . S
C338 C340 1.397 . S
C338 H362 0.931 . S
C339 C338 1.386 . S
C339 C343 1.397 . S
C340 C338 1.397 . S
C340 C341 1.384 . S
C340 H363 0.930 . S
C341 C340 1.384 . S
C341 C342 1.377 . S
C341 C344 1.481 . S
C342 C341 1.377 . S
C342 C343 1.389 . S
C342 H364 0.929 . S
C343 C339 1.397 . S
C343 C342 1.389 . S
C343 H365 0.931 . S
C344 C341 1.481 . S
C344 C345 1.387 . S
C344 C349 1.390 . S
C345 C344 1.387 . S
C345 C346 1.401 . S
C345 H366 0.930 . S
C346 C345 1.401 . S
C346 C347 1.376 . S
C346 C355 1.511 . S
C347 C346 1.376 . S
C347 C348 1.392 . S
C347 H368 0.931 . S
C348 C347 1.392 . S
C348 C349 1.361 . S
C348 C350 1.500 . S
C349 C344 1.390 . S
C349 C348 1.361 . S
C349 H367 0.931 . S
C350 C348 1.500 . S
C350 C351 1.371 . S
C350 C352 1.365 . S
C351 C350 1.371 . S
C351 C361 1.386 . S
C351 H369 0.931 . S
C352 C350 1.365 . S
C352 C353 1.409 . S
C352 H370 0.929 . S
C353 C352 1.409 . S
C353 C354 1.380 . S
C353 H371 0.930 . S
C354 C353 1.380 . S
C354 C361 1.357 . S
C355 C346 1.511 . S
C355 C356 1.341 . S
C355 C357 1.371 . S
C356 C355 1.341 . S
C356 C360 1.394 . S
C356 H372 0.930 . S
C357 C355 1.371 . S
C357 C358 1.392 . S
C357 H373 0.931 . S
C358 C357 1.392 . S
C358 C359 1.331 . S
C358 H376 0.932 . S
C359 C358 1.331 . S
C359 C360 1.336 . S
C360 C356 1.394 . S
C360 C359 1.336 . S
C360 H375 0.929 . S
C361 C351 1.386 . S
C361 C354 1.357 . S
C361 H374 0.928 . S
H362 C338 0.931 . S
H363 C340 0.930 . S
H364 C342 0.929 . S
H365 C343 0.931 . S
H366 C345 0.930 . S
H367 C349 0.931 . S
H368 C347 0.931 . S
H369 C351 0.931 . S
H370 C352 0.929 . S
H371 C353 0.930 . S
H372 C356 0.930 . S
H373 C357 0.931 . S
H374 C361 0.928 . S
H375 C360 0.929 . S
H376 C358 0.932 . S
C377 C378 1.386 . S
C377 C379 1.397 . S
C377 H401 0.931 . S
C378 C377 1.386 . S
C378 C382 1.397 . S
C379 C377 1.397 . S
C379 C380 1.384 . S
C379 H402 0.930 . S
C380 C379 1.384 . S
C380 C381 1.377 . S
C380 C383 1.481 . S
C381 C380 1.377 . S
C381 C382 1.389 . S
C381 H403 0.929 . S
C382 C378 1.397 . S
C382 C381 1.389 . S
C382 H404 0.931 . S
C383 C380 1.481 . S
C383 C384 1.387 . S
C383 C388 1.390 . S
C384 C383 1.387 . S
C384 C385 1.401 . S
C384 H405 0.930 . S
C385 C384 1.401 . S
C385 C386 1.376 . S
C385 C394 1.511 . S
C386 C385 1.376 . S
C386 C387 1.392 . S
C386 H407 0.931 . S
C387 C386 1.392 . S
C387 C388 1.361 . S
C387 C389 1.500 . S
C388 C383 1.390 . S
C388 C387 1.361 . S
C388 H406 0.931 . S
C389 C387 1.500 . S
C389 C390 1.371 . S
C389 C391 1.365 . S
C390 C389 1.371 . S
C390 C400 1.386 . S
C390 H408 0.931 . S
C391 C389 1.365 . S
C391 C392 1.409 . S
C391 H409 0.929 . S
C392 C391 1.409 . S
C392 C393 1.380 . S
C392 H410 0.930 . S
C393 C392 1.380 . S
C393 C400 1.357 . S
C394 C385 1.511 . S
C394 C395 1.341 . S
C394 C396 1.371 . S
C395 C394 1.341 . S
C395 C399 1.394 . S
C395 H411 0.930 . S
C396 C394 1.371 . S
C396 C397 1.392 . S
C396 H412 0.931 . S
C397 C396 1.392 . S
C397 C398 1.331 . S
C397 H415 0.932 . S
C398 C397 1.331 . S
C398 C399 1.336 . S
C399 C395 1.394 . S
C399 C398 1.336 . S
C399 H414 0.929 . S
C400 C390 1.386 . S
C400 C393 1.357 . S
C400 H413 0.928 . S
H401 C377 0.931 . S
H402 C379 0.930 . S
H403 C381 0.929 . S
H404 C382 0.931 . S
H405 C384 0.930 . S
H406 C388 0.931 . S
H407 C386 0.931 . S
H408 C390 0.931 . S
H409 C391 0.929 . S
H410 C392 0.930 . S
H411 C395 0.930 . S
H412 C396 0.931 . S
H413 C400 0.928 . S
H414 C399 0.929 . S
H415 C397 0.932 . S
C416 C417 1.362 . S
C416 C418 1.327 1_554 S
C416 H441 0.937 1_554 S
C417 C416 1.362 . S
C417 C433 1.349 . S
C418 C416 1.327 1_556 S
C418 C437 1.426 1_556 S
C418 H442 0.952 . S
C419 C436 1.574 . S
C419 C438 1.368 . S
C419 H443 0.949 . S
H420 C424 0.949 . S
C421 C422 1.349 . S
C421 C423 1.327 . S
C421 H444 0.950 . S
C422 C421 1.349 . S
C422 C434 1.326 1_554 S
C423 C421 1.327 . S
C423 C439 1.429 . S
C423 H445 0.950 . S
C424 H420 0.949 . S
C424 C432 1.574 . S
C424 C440 1.368 1_556 S
H425 C433 0.950 . S
H426 C431 0.950 . S
H427 C432 0.949 . S
H428 C434 0.973 . S
H429 C435 0.950 . S
H430 C436 0.949 . S
C431 H426 0.950 . S
C431 C433 1.327 . S
C431 C437 1.429 . S
C432 C424 1.574 . S
C432 H427 0.949 . S
C432 C438 1.368 1_556 S
C433 C417 1.349 . S
C433 H425 0.950 . S
C433 C431 1.327 . S
C434 C422 1.326 1_556 S
C434 H428 0.973 . S
C434 C435 1.328 . S
C435 H429 0.950 . S
C435 C434 1.328 . S
C435 C439 1.429 1_556 S
C436 C419 1.574 . S
C436 H430 0.949 . S
C436 C440 1.368 . S
C437 C418 1.426 1_554 S
C437 C431 1.429 . S
C437 C438 1.523 . S
C438 C419 1.368 . S
C438 C432 1.368 1_554 S
C438 C437 1.523 . S
C439 C423 1.429 . S
C439 C435 1.429 1_554 S
C439 C440 1.523 . S
C440 C424 1.368 1_554 S
C440 C436 1.368 . S
C440 C439 1.523 . S
H441 C416 0.937 1_556 S
H442 C418 0.952 . S
H443 C419 0.949 . S
H444 C421 0.950 . S
H445 C423 0.950 . S
C446 C447 1.328 1_556 S
C446 C448 1.328 . S
C446 H471 0.971 . S
C447 C446 1.328 1_554 S
C447 C463 1.349 . S
C448 C446 1.328 . S
C448 C467 1.429 1_556 S
C448 H472 0.950 . S
C449 C466 1.574 . S
C449 C468 1.368 . S
C449 H473 0.949 . S
H450 C454 0.949 . S
C451 C452 1.349 . S
C451 C453 1.327 . S
C451 H474 0.950 . S
C452 C451 1.349 . S
C452 C464 1.349 1_554 S
C453 C451 1.327 . S
C453 C469 1.429 . S
C453 H475 0.950 . S
C454 H450 0.949 . S
C454 C462 1.574 . S
C454 C470 1.368 1_556 S
H455 C463 0.950 . S
H456 C461 0.950 . S
H457 C462 0.949 . S
H458 C464 0.950 . S
H459 C465 0.950 . S
H460 C466 0.949 . S
C461 H456 0.950 . S
C461 C463 1.327 . S
C461 C467 1.429 . S
C462 C454 1.574 . S
C462 H457 0.949 . S
C462 C468 1.368 1_556 S
C463 C447 1.349 . S
C463 H455 0.950 . S
C463 C461 1.327 . S
C464 C452 1.349 1_556 S
C464 H458 0.950 . S
C464 C465 1.327 . S
C465 H459 0.950 . S
C465 C464 1.327 . S
C465 C469 1.429 1_556 S
C466 C449 1.574 . S
C466 H460 0.949 . S
C466 C470 1.368 . S
C467 C448 1.429 1_554 S
C467 C461 1.429 . S
C467 C468 1.523 . S
C468 C449 1.368 . S
C468 C462 1.368 1_554 S
C468 C467 1.523 . S
C469 C453 1.429 . S
C469 C465 1.429 1_554 S
C469 C470 1.523 . S
C470 C454 1.368 1_554 S
C470 C466 1.368 . S
C470 C469 1.523 . S
H471 C446 0.971 . S
H472 C448 0.950 . S
H473 C449 0.949 . S
H474 C451 0.950 . S
H475 C453 0.950 . S
C476 C477 1.349 . S
C476 C478 1.327 . S
C476 H501 0.950 . S
C477 C476 1.349 . S
C477 C493 1.329 1_554 S
C478 C476 1.327 . S
C478 C497 1.429 . S
C478 H502 0.950 . S
C479 C496 1.574 . S
C479 C498 1.368 1_556 S
C479 H503 0.949 . S
H480 C484 0.949 . S
C481 C482 1.349 1_556 S
C481 C483 1.327 . S
C481 H504 0.950 . S
C482 C481 1.349 1_554 S
C482 C494 1.349 . S
C483 C481 1.327 . S
C483 C499 1.429 1_556 S
C483 H505 0.950 . S
C484 H480 0.949 . S
C484 C492 1.574 . S
C484 C500 1.368 . S
H485 C493 0.969 . S
H486 C491 0.950 . S
H487 C492 0.949 . S
H488 C494 0.950 . S
H489 C495 0.950 . S
H490 C496 0.949 . S
C491 H486 0.950 . S
C491 C493 1.328 . S
C491 C497 1.429 1_556 S
C492 C484 1.574 . S
C492 H487 0.949 . S
C492 C498 1.368 . S
C493 C477 1.329 1_556 S
C493 H485 0.969 . S
C493 C491 1.328 . S
C494 C482 1.349 . S
C494 H488 0.950 . S
C494 C495 1.327 . S
C495 H489 0.950 . S
C495 C494 1.327 . S
C495 C499 1.429 . S
C496 C479 1.574 . S
C496 H490 0.949 . S
C496 C500 1.368 1_556 S
C497 C478 1.429 . S
C497 C491 1.429 1_554 S
C497 C498 1.523 . S
C498 C479 1.368 1_554 S
C498 C492 1.368 . S
C498 C497 1.523 . S
C499 C483 1.429 1_554 S
C499 C495 1.429 . S
C499 C500 1.523 . S
C500 C484 1.368 . S
C500 C496 1.368 1_554 S
C500 C499 1.523 . S
H501 C476 0.950 . S
H502 C478 0.950 . S
H503 C479 0.949 . S
H504 C481 0.950 . S
H505 C483 0.950 . S
C506 C507 1.349 . S
C506 C508 1.327 . S
C506 H531 0.950 . S
C507 C506 1.349 . S
C507 C523 1.349 . S
C508 C506 1.327 . S
C508 C527 1.429 . S
C508 H532 0.950 . S
C509 C526 1.574 . S
C509 C528 1.368 . S
C509 H533 0.949 . S
H510 C514 0.949 . S
C511 C512 1.349 . S
C511 C513 1.327 . S
C511 H534 0.950 . S
C512 C511 1.349 . S
C512 C524 1.349 . S
C513 C511 1.327 . S
C513 C529 1.429 . S
C513 H535 0.950 . S
C514 H510 0.949 . S
C514 C522 1.574 . S
C514 C530 1.368 . S
H515 C523 0.950 . S
H516 C521 0.950 . S
H517 C522 0.949 . S
H518 C524 0.950 . S
H519 C525 0.950 . S
H520 C526 0.949 . S
C521 H516 0.950 . S
C521 C523 1.327 . S
C521 C527 1.429 . S
C522 C514 1.574 . S
C522 H517 0.949 . S
C522 C528 1.368 . S
C523 C507 1.349 . S
C523 H515 0.950 . S
C523 C521 1.327 . S
C524 C512 1.349 . S
C524 H518 0.950 . S
C524 C525 1.327 . S
C525 H519 0.950 . S
C525 C524 1.327 . S
C525 C529 1.429 . S
C526 C509 1.574 . S
C526 H520 0.949 . S
C526 C530 1.368 . S
C527 C508 1.429 . S
C527 C521 1.429 . S
C527 C528 1.523 . S
C528 C509 1.368 . S
C528 C522 1.368 . S
C528 C527 1.523 . S
C529 C513 1.429 . S
C529 C525 1.429 . S
C529 C530 1.523 . S
C530 C514 1.368 . S
C530 C526 1.368 . S
C530 C529 1.523 . S
H531 C506 0.950 . S
H532 C508 0.950 . S
H533 C509 0.949 . S
H534 C511 0.950 . S
H535 C513 0.950 . S
C536 C537 1.349 . S
C536 C538 1.327 . S
C536 H561 0.950 . S
C537 C536 1.349 . S
C537 C553 1.349 . S
C538 C536 1.327 . S
C538 C557 1.429 . S
C538 H562 0.950 . S
C539 C556 1.574 . S
C539 C558 1.368 . S
C539 H563 0.949 . S
H540 C544 0.949 . S
C541 C542 1.349 . S
C541 C543 1.327 . S
C541 H564 0.950 . S
C542 C541 1.349 . S
C542 C554 1.349 . S
C543 C541 1.327 . S
C543 C559 1.429 . S
C543 H565 0.950 . S
C544 H540 0.949 . S
C544 C552 1.574 . S
C544 C560 1.368 . S
H545 C553 0.950 . S
H546 C551 0.950 . S
H547 C552 0.949 . S
H548 C554 0.950 . S
H549 C555 0.950 . S
H550 C556 0.949 . S
C551 H546 0.950 . S
C551 C553 1.327 . S
C551 C557 1.429 . S
C552 C544 1.574 . S
C552 H547 0.949 . S
C552 C558 1.368 . S
C553 C537 1.349 . S
C553 H545 0.950 . S
C553 C551 1.327 . S
C554 C542 1.349 . S
C554 H548 0.950 . S
C554 C555 1.327 . S
C555 H549 0.950 . S
C555 C554 1.327 . S
C555 C559 1.429 . S
C556 C539 1.574 . S
C556 H550 0.949 . S
C556 C560 1.368 . S
C557 C538 1.429 . S
C557 C551 1.429 . S
C557 C558 1.523 . S
C558 C539 1.368 . S
C558 C552 1.368 . S
C558 C557 1.523 . S
C559 C543 1.429 . S
C559 C555 1.429 . S
C559 C560 1.523 . S
C560 C544 1.368 . S
C560 C556 1.368 . S
C560 C559 1.523 . S
H561 C536 0.950 . S
H562 C538 0.950 . S
H563 C539 0.949 . S
H564 C541 0.950 . S
H565 C543 0.950 . S
C566 C567 1.349 . S
C566 C568 1.327 . S
C566 H591 0.950 . S
C567 C566 1.349 . S
C567 C583 1.349 . S
C568 C566 1.327 . S
C568 C587 1.429 . S
C568 H592 0.950 . S
C569 C586 1.574 . S
C569 C588 1.368 . S
C569 H593 0.949 . S
H570 C574 0.949 . S
C571 C572 1.349 . S
C571 C573 1.327 . S
C571 H594 0.950 . S
C572 C571 1.349 . S
C572 C584 1.349 . S
C573 C571 1.327 . S
C573 C589 1.429 . S
C573 H595 0.950 . S
C574 H570 0.949 . S
C574 C582 1.574 . S
C574 C590 1.368 . S
H575 C583 0.950 . S
H576 C581 0.950 . S
H577 C582 0.949 . S
H578 C584 0.950 . S
H579 C585 0.950 . S
H580 C586 0.949 . S
C581 H576 0.950 . S
C581 C583 1.327 . S
C581 C587 1.429 . S
C582 C574 1.574 . S
C582 H577 0.949 . S
C582 C588 1.368 . S
C583 C567 1.349 . S
C583 H575 0.950 . S
C583 C581 1.327 . S
C584 C572 1.349 . S
C584 H578 0.950 . S
C584 C585 1.327 . S
C585 H579 0.950 . S
C585 C584 1.327 . S
C585 C589 1.429 . S
C586 C569 1.574 . S
C586 H580 0.949 . S
C586 C590 1.368 . S
C587 C568 1.429 . S
C587 C581 1.429 . S
C587 C588 1.523 . S
C588 C569 1.368 . S
C588 C582 1.368 . S
C588 C587 1.523 . S
C589 C573 1.429 . S
C589 C585 1.429 . S
C589 C590 1.523 . S
C590 C574 1.368 . S
C590 C586 1.368 . S
C590 C589 1.523 . S
H591 C566 0.950 . S
H592 C568 0.950 . S
H593 C569 0.949 . S
H594 C571 0.950 . S
H595 C573 0.950 . S
C596 C597 1.349 . S
C596 C598 1.327 . S
C596 H621 0.950 . S
C597 C596 1.349 . S
C597 C613 1.349 . S
C598 C596 1.327 . S
C598 C617 1.429 . S
C598 H622 0.950 . S
C599 C616 1.574 . S
C599 C618 1.368 . S
C599 H623 0.949 . S
H600 C604 0.949 . S
C601 C602 1.349 . S
C601 C603 1.327 . S
C601 H624 0.950 . S
C602 C601 1.349 . S
C602 C614 1.349 . S
C603 C601 1.327 . S
C603 C619 1.429 . S
C603 H625 0.950 . S
C604 H600 0.949 . S
C604 C612 1.574 . S
C604 C620 1.368 . S
H605 C613 0.950 . S
H606 C611 0.950 . S
H607 C612 0.949 . S
H608 C614 0.950 . S
H609 C615 0.950 . S
H610 C616 0.949 . S
C611 H606 0.950 . S
C611 C613 1.327 . S
C611 C617 1.429 . S
C612 C604 1.574 . S
C612 H607 0.949 . S
C612 C618 1.368 . S
C613 C597 1.349 . S
C613 H605 0.950 . S
C613 C611 1.327 . S
C614 C602 1.349 . S
C614 H608 0.950 . S
C614 C615 1.327 . S
C615 H609 0.950 . S
C615 C614 1.327 . S
C615 C619 1.429 . S
C616 C599 1.574 . S
C616 H610 0.949 . S
C616 C620 1.368 . S
C617 C598 1.429 . S
C617 C611 1.429 . S
C617 C618 1.523 . S
C618 C599 1.368 . S
C618 C612 1.368 . S
C618 C617 1.523 . S
C619 C603 1.429 . S
C619 C615 1.429 . S
C619 C620 1.523 . S
C620 C604 1.368 . S
C620 C616 1.368 . S
C620 C619 1.523 . S
H621 C596 0.950 . S
H622 C598 0.950 . S
H623 C599 0.949 . S
H624 C601 0.950 . S
H625 C603 0.950 . S
C626 C627 1.349 . S
C626 C628 1.327 . S
C626 H651 0.950 . S
C627 C626 1.349 . S
C627 C643 1.349 . S
C628 C626 1.327 . S
C628 C647 1.429 . S
C628 H652 0.950 . S
C629 C646 1.574 . S
C629 C648 1.368 . S
C629 H653 0.949 . S
H630 C634 0.949 . S
C631 C632 1.349 . S
C631 C633 1.327 . S
C631 H654 0.950 . S
C632 C631 1.349 . S
C632 C644 1.349 . S
C633 C631 1.327 . S
C633 C649 1.429 . S
C633 H655 0.950 . S
C634 H630 0.949 . S
C634 C642 1.574 . S
C634 C650 1.368 . S
H635 C643 0.950 . S
H636 C641 0.950 . S
H637 C642 0.949 . S
H638 C644 0.950 . S
H639 C645 0.950 . S
H640 C646 0.949 . S
C641 H636 0.950 . S
C641 C643 1.327 . S
C641 C647 1.429 . S
C642 C634 1.574 . S
C642 H637 0.949 . S
C642 C648 1.368 . S
C643 C627 1.349 . S
C643 H635 0.950 . S
C643 C641 1.327 . S
C644 C632 1.349 . S
C644 H638 0.950 . S
C644 C645 1.327 . S
C645 H639 0.950 . S
C645 C644 1.327 . S
C645 C649 1.429 . S
C646 C629 1.574 . S
C646 H640 0.949 . S
C646 C650 1.368 . S
C647 C628 1.429 . S
C647 C641 1.429 . S
C647 C648 1.523 . S
C648 C629 1.368 . S
C648 C642 1.368 . S
C648 C647 1.523 . S
C649 C633 1.429 . S
C649 C645 1.429 . S
C649 C650 1.523 . S
C650 C634 1.368 . S
C650 C646 1.368 . S
C650 C649 1.523 . S
H651 C626 0.950 . S
H652 C628 0.950 . S
H653 C629 0.949 . S
H654 C631 0.950 . S
H655 C633 0.950 . S
C656 C657 1.349 . S
C656 C658 1.327 . S
C656 H681 0.950 . S
C657 C656 1.349 . S
C657 C673 1.349 . S
C658 C656 1.327 . S
C658 C677 1.429 . S
C658 H682 0.950 . S
C659 C676 1.574 . S
C659 C678 1.368 . S
C659 H683 0.949 . S
H660 C664 0.949 . S
C661 C662 1.349 . S
C661 C663 1.327 . S
C661 H684 0.950 . S
C662 C661 1.349 . S
C662 C674 1.349 . S
C663 C661 1.327 . S
C663 C679 1.429 . S
C663 H685 0.950 . S
C664 H660 0.949 . S
C664 C672 1.574 . S
C664 C680 1.368 . S
H665 C673 0.950 1_655 S
H666 C671 0.949 . S
H667 C672 0.949 . S
H668 C674 0.950 . S
H669 C675 0.950 . S
H670 C676 0.949 . S
C671 H666 0.949 . S
C671 C673 1.327 . S
C671 C677 1.429 . S
C672 C664 1.574 . S
C672 H667 0.949 . S
C672 C678 1.368 . S
C673 C657 1.349 . S
C673 H665 0.950 1_455 S
C673 C671 1.327 . S
C674 C662 1.349 . S
C674 H668 0.950 . S
C674 C675 1.327 . S
C675 H669 0.950 . S
C675 C674 1.327 . S
C675 C679 1.429 . S
C676 C659 1.574 . S
C676 H670 0.949 . S
C676 C680 1.368 . S
C677 C658 1.429 . S
C677 C671 1.429 . S
C677 C678 1.523 . S
C678 C659 1.368 . S
C678 C672 1.368 . S
C678 C677 1.523 . S
C679 C663 1.429 . S
C679 C675 1.429 . S
C679 C680 1.523 . S
C680 C664 1.368 . S
C680 C676 1.368 . S
C680 C679 1.523 . S
H681 C656 0.950 . S
H682 C658 0.950 . S
H683 C659 0.949 . S
H684 C661 0.950 . S
H685 C663 0.950 . S
C686 C687 1.349 . S
C686 C688 1.327 . S
C686 H711 0.979 . S
C687 C686 1.349 . S
C687 C703 1.349 . S
C688 C686 1.327 . S
C688 C707 1.429 . S
C688 H712 0.950 . S
C689 C706 1.574 . S
C689 C708 1.368 . S
C689 H713 0.949 . S
H690 C694 0.949 . S
C691 C692 1.349 . S
C691 C693 1.327 . S
C691 H714 0.950 . S
C692 C691 1.349 . S
C692 C704 1.349 . S
C693 C691 1.327 . S
C693 C709 1.429 . S
C693 H715 0.950 . S
C694 H690 0.949 . S
C694 C702 1.574 . S
C694 C710 1.368 . S
H695 C703 0.950 . S
H696 C701 0.950 . S
H697 C702 0.949 . S
H698 C704 0.950 . S
H699 C705 0.950 . S
H700 C706 0.949 . S
C701 H696 0.950 . S
C701 C703 1.327 . S
C701 C707 1.429 . S
C702 C694 1.574 . S
C702 H697 0.949 . S
C702 C708 1.368 . S
C703 C687 1.349 . S
C703 H695 0.950 . S
C703 C701 1.327 . S
C704 C692 1.349 . S
C704 H698 0.950 . S
C704 C705 1.327 . S
C705 H699 0.950 . S
C705 C704 1.327 . S
C705 C709 1.429 . S
C706 C689 1.574 . S
C706 H700 0.949 . S
C706 C710 1.368 . S
C707 C688 1.429 . S
C707 C701 1.429 . S
C707 C708 1.523 . S
C708 C689 1.368 . S
C708 C702 1.368 . S
C708 C707 1.523 . S
C709 C693 1.429 . S
C709 C705 1.429 . S
C709 C710 1.523 . S
C710 C694 1.368 . S
C710 C706 1.368 . S
C710 C709 1.523 . S
H711 C686 0.979 . S
H712 C688 0.950 . S
H713 C689 0.949 . S
H714 C691 0.950 . S
H715 C693 0.950 . S
C716 C717 1.349 . S
C716 C718 1.327 . S
C716 H741 0.950 . S
C717 C716 1.349 . S
C717 C733 1.349 . S
C718 C716 1.327 . S
C718 C737 1.429 . S
C718 H742 0.950 . S
C719 C736 1.574 . S
C719 C738 1.368 . S
C719 H743 0.949 . S
H720 C724 0.949 . S
C721 C722 1.349 . S
C721 C723 1.327 . S
C721 H744 0.950 . S
C722 C721 1.349 . S
C722 C734 1.349 . S
C723 C721 1.327 . S
C723 C739 1.429 . S
C723 H745 0.950 . S
C724 H720 0.949 . S
C724 C732 1.574 . S
C724 C740 1.368 . S
H725 C733 0.950 . S
H726 C731 0.950 . S
H727 C732 0.949 . S
H728 C734 0.950 . S
H729 C735 0.950 . S
H730 C736 0.949 . S
C731 H726 0.950 . S
C731 C733 1.327 . S
C731 C737 1.429 . S
C732 C724 1.574 . S
C732 H727 0.949 . S
C732 C738 1.368 . S
C733 C717 1.349 . S
C733 H725 0.950 . S
C733 C731 1.327 . S
C734 C722 1.349 . S
C734 H728 0.950 . S
C734 C735 1.327 . S
C735 H729 0.950 . S
C735 C734 1.327 . S
C735 C739 1.429 . S
C736 C719 1.574 . S
C736 H730 0.949 . S
C736 C740 1.368 . S
C737 C718 1.429 . S
C737 C731 1.429 . S
C737 C738 1.523 . S
C738 C719 1.368 . S
C738 C732 1.368 . S
C738 C737 1.523 . S
C739 C723 1.429 . S
C739 C735 1.429 . S
C739 C740 1.523 . S
C740 C724 1.368 . S
C740 C736 1.368 . S
C740 C739 1.523 . S
H741 C716 0.950 . S
H742 C718 0.950 . S
H743 C719 0.949 . S
H744 C721 0.950 . S
H745 C723 0.950 . S
C746 C747 1.349 . S
C746 C748 1.327 . S
C746 H771 0.968 . S
C747 C746 1.349 . S
C747 C763 1.349 . S
C748 C746 1.327 . S
C748 C767 1.429 . S
C748 H772 0.950 . S
C749 C766 1.574 . S
C749 C768 1.368 . S
C749 H773 0.949 . S
H750 C754 0.949 . S
C751 C752 1.349 . S
C751 C753 1.327 . S
C751 H774 0.950 . S
C752 C751 1.349 . S
C752 C764 1.349 . S
C753 C751 1.327 . S
C753 C769 1.429 . S
C753 H775 0.950 . S
C754 H750 0.949 . S
C754 C762 1.574 . S
C754 C770 1.368 . S
H755 C763 0.950 . S
H756 C761 0.950 . S
H757 C762 0.949 . S
H758 C764 0.950 . S
H759 C765 0.950 . S
H760 C766 0.949 . S
C761 H756 0.950 . S
C761 C763 1.327 . S
C761 C767 1.429 . S
C762 C754 1.574 . S
C762 H757 0.949 . S
C762 C768 1.368 . S
C763 C747 1.349 . S
C763 H755 0.950 . S
C763 C761 1.327 . S
C764 C752 1.349 . S
C764 H758 0.950 . S
C764 C765 1.327 . S
C765 H759 0.950 . S
C765 C764 1.327 . S
C765 C769 1.429 . S
C766 C749 1.574 . S
C766 H760 0.949 . S
C766 C770 1.368 . S
C767 C748 1.429 . S
C767 C761 1.429 . S
C767 C768 1.523 . S
C768 C749 1.368 . S
C768 C762 1.368 . S
C768 C767 1.523 . S
C769 C753 1.429 . S
C769 C765 1.429 . S
C769 C770 1.523 . S
C770 C754 1.368 . S
C770 C766 1.368 . S
C770 C769 1.523 . S
H771 C746 0.968 . S
H772 C748 0.950 . S
H773 C749 0.949 . S
H774 C751 0.950 . S
H775 C753 0.950 . S
C776 C777 1.349 . S
C776 C778 1.327 . S
C776 H801 0.950 . S
C777 C776 1.349 . S
C777 C793 1.349 . S
C778 C776 1.327 . S
C778 C797 1.429 . S
C778 H802 0.950 . S
C779 C796 1.574 . S
C779 C798 1.368 . S
C779 H803 0.949 . S
H780 C784 0.949 . S
C781 C782 1.349 . S
C781 C783 1.327 . S
C781 H804 0.950 . S
C782 C781 1.349 . S
C782 C794 1.349 . S
C783 C781 1.327 . S
C783 C799 1.429 . S
C783 H805 0.950 . S
C784 H780 0.949 . S
C784 C792 1.574 . S
C784 C800 1.368 . S
H785 C793 0.950 1_545 S
H786 C791 0.950 . S
H787 C792 0.949 . S
H788 C794 0.950 . S
H789 C795 0.950 . S
H790 C796 0.949 . S
C791 H786 0.950 . S
C791 C793 1.327 . S
C791 C797 1.429 . S
C792 C784 1.574 . S
C792 H787 0.949 . S
C792 C798 1.368 . S
C793 C777 1.349 . S
C793 H785 0.950 1_565 S
C793 C791 1.327 . S
C794 C782 1.349 . S
C794 H788 0.950 . S
C794 C795 1.327 . S
C795 H789 0.950 . S
C795 C794 1.327 . S
C795 C799 1.429 . S
C796 C779 1.574 . S
C796 H790 0.949 . S
C796 C800 1.368 . S
C797 C778 1.429 . S
C797 C791 1.429 . S
C797 C798 1.523 . S
C798 C779 1.368 . S
C798 C792 1.368 . S
C798 C797 1.523 . S
C799 C783 1.429 . S
C799 C795 1.429 . S
C799 C800 1.523 . S
C800 C784 1.368 . S
C800 C796 1.368 . S
C800 C799 1.523 . S
H801 C776 0.950 . S
H802 C778 0.950 . S
H803 C779 0.949 . S
H804 C781 0.950 . S
H805 C783 0.950 . S
C806 C807 1.349 . S
C806 C808 1.327 . S
C806 H831 0.950 . S
C807 C806 1.349 . S
C807 C823 1.349 . S
C808 C806 1.327 . S
C808 C827 1.429 . S
C808 H832 0.950 . S
C809 C826 1.574 . S
C809 C828 1.368 . S
C809 H833 0.949 . S
H810 C814 0.949 . S
C811 C812 1.349 . S
C811 C813 1.327 . S
C811 H834 0.950 . S
C812 C811 1.349 . S
C812 C824 1.349 . S
C813 C811 1.327 . S
C813 C829 1.429 . S
C813 H835 0.950 . S
C814 H810 0.949 . S
C814 C822 1.574 . S
C814 C830 1.368 . S
H815 C823 0.950 . S
H816 C821 0.950 . S
H817 C822 0.949 . S
H818 C824 0.950 . S
H819 C825 0.950 . S
H820 C826 0.949 . S
C821 H816 0.950 . S
C821 C823 1.327 . S
C821 C827 1.429 . S
C822 C814 1.574 . S
C822 H817 0.949 . S
C822 C828 1.368 . S
C823 C807 1.349 . S
C823 H815 0.950 . S
C823 C821 1.327 . S
C824 C812 1.349 . S
C824 H818 0.950 . S
C824 C825 1.327 . S
C825 H819 0.950 . S
C825 C824 1.327 . S
C825 C829 1.429 . S
C826 C809 1.574 . S
C826 H820 0.949 . S
C826 C830 1.368 . S
C827 C808 1.429 . S
C827 C821 1.429 . S
C827 C828 1.523 . S
C828 C809 1.368 . S
C828 C822 1.368 . S
C828 C827 1.523 . S
C829 C813 1.429 . S
C829 C825 1.429 . S
C829 C830 1.523 . S
C830 C814 1.368 . S
C830 C826 1.368 . S
C830 C829 1.523 . S
H831 C806 0.950 . S
H832 C808 0.950 . S
H833 C809 0.949 . S
H834 C811 0.950 . S
H835 C813 0.950 . S
C836 C837 1.349 . S
C836 C838 1.327 . S
C836 H861 0.950 1_545 S
C837 C836 1.349 . S
C837 C853 1.349 . S
C838 C836 1.327 . S
C838 C857 1.429 . S
C838 H862 0.950 . S
C839 C856 1.574 . S
C839 C858 1.368 . S
C839 H863 0.949 . S
H840 C844 0.949 . S
C841 C842 1.349 . S
C841 C843 1.327 . S
C841 H864 0.950 . S
C842 C841 1.349 . S
C842 C854 1.349 . S
C843 C841 1.327 . S
C843 C859 1.429 . S
C843 H865 0.950 . S
C844 H840 0.949 . S
C844 C852 1.574 . S
C844 C860 1.368 . S
H845 C853 0.950 . S
H846 C851 0.950 . S
H847 C852 0.949 . S
H848 C854 0.950 . S
H849 C855 0.950 . S
H850 C856 0.949 . S
C851 H846 0.950 . S
C851 C853 1.327 . S
C851 C857 1.429 . S
C852 C844 1.574 . S
C852 H847 0.949 . S
C852 C858 1.368 . S
C853 C837 1.349 . S
C853 H845 0.950 . S
C853 C851 1.327 . S
C854 C842 1.349 . S
C854 H848 0.950 . S
C854 C855 1.327 . S
C855 H849 0.950 . S
C855 C854 1.327 . S
C855 C859 1.429 . S
C856 C839 1.574 . S
C856 H850 0.949 . S
C856 C860 1.368 . S
C857 C838 1.429 . S
C857 C851 1.429 . S
C857 C858 1.523 . S
C858 C839 1.368 . S
C858 C852 1.368 . S
C858 C857 1.523 . S
C859 C843 1.429 . S
C859 C855 1.429 . S
C859 C860 1.523 . S
C860 C844 1.368 . S
C860 C856 1.368 . S
C860 C859 1.523 . S
H861 C836 0.950 1_565 S
H862 C838 0.950 . S
H863 C839 0.949 . S
H864 C841 0.950 . S
H865 C843 0.950 . S
C866 C867 1.349 . S
C866 C868 1.327 . S
C866 H891 0.950 . S
C867 C866 1.349 . S
C867 C883 1.349 . S
C868 C866 1.327 . S
C868 C887 1.429 . S
C868 H892 0.950 . S
C869 C886 1.574 . S
C869 C888 1.368 . S
C869 H893 0.949 . S
H870 C874 0.949 . S
C871 C872 1.349 . S
C871 C873 1.327 . S
C871 H894 0.950 . S
C872 C871 1.349 . S
C872 C884 1.349 . S
C873 C871 1.327 . S
C873 C889 1.429 . S
C873 H895 0.950 . S
C874 H870 0.949 . S
C874 C882 1.574 . S
C874 C890 1.368 . S
H875 C883 0.950 . S
H876 C881 0.950 . S
H877 C882 0.949 . S
H878 C884 0.950 . S
H879 C885 0.950 . S
H880 C886 0.949 . S
C881 H876 0.950 . S
C881 C883 1.327 . S
C881 C887 1.429 . S
C882 C874 1.574 . S
C882 H877 0.949 . S
C882 C888 1.368 . S
C883 C867 1.349 . S
C883 H875 0.950 . S
C883 C881 1.327 . S
C884 C872 1.349 . S
C884 H878 0.950 . S
C884 C885 1.327 . S
C885 H879 0.950 . S
C885 C884 1.327 . S
C885 C889 1.429 . S
C886 C869 1.574 . S
C886 H880 0.949 . S
C886 C890 1.368 . S
C887 C868 1.429 . S
C887 C881 1.429 . S
C887 C888 1.523 . S
C888 C869 1.368 . S
C888 C882 1.368 . S
C888 C887 1.523 . S
C889 C873 1.429 . S
C889 C885 1.429 . S
C889 C890 1.523 . S
C890 C874 1.368 . S
C890 C886 1.368 . S
C890 C889 1.523 . S
H891 C866 0.950 . S
H892 C868 0.950 . S
H893 C869 0.949 . S
H894 C871 0.950 . S
H895 C873 0.950 . S
C896 C897 1.349 . S
C896 C898 1.327 . S
C896 H921 0.950 . S
C897 C896 1.349 . S
C897 C913 1.349 . S
C898 C896 1.327 . S
C898 C917 1.429 . S
C898 H922 0.950 . S
C899 C916 1.574 . S
C899 C918 1.368 . S
C899 H923 0.949 . S
H900 C904 0.949 . S
C901 C902 1.349 . S
C901 C903 1.327 . S
C901 H924 0.950 . S
C902 C901 1.349 . S
C902 C914 1.349 . S
C903 C901 1.327 . S
C903 C919 1.429 . S
C903 H925 0.950 . S
C904 H900 0.949 . S
C904 C912 1.574 . S
C904 C920 1.368 . S
H905 C913 0.950 . S
H906 C911 0.950 . S
H907 C912 0.949 . S
H908 C914 0.950 . S
H909 C915 0.950 . S
H910 C916 0.949 . S
C911 H906 0.950 . S
C911 C913 1.327 . S
C911 C917 1.429 . S
C912 C904 1.574 . S
C912 H907 0.949 . S
C912 C918 1.368 . S
C913 C897 1.349 . S
C913 H905 0.950 . S
C913 C911 1.327 . S
C914 C902 1.349 . S
C914 H908 0.950 . S
C914 C915 1.327 . S
C915 H909 0.950 . S
C915 C914 1.327 . S
C915 C919 1.429 . S
C916 C899 1.574 . S
C916 H910 0.949 . S
C916 C920 1.368 . S
C917 C898 1.429 . S
C917 C911 1.429 . S
C917 C918 1.523 . S
C918 C899 1.368 . S
C918 C912 1.368 . S
C918 C917 1.523 . S
C919 C903 1.429 . S
C919 C915 1.429 . S
C919 C920 1.523 . S
C920 C904 1.368 . S
C920 C916 1.368 . S
C920 C919 1.523 . S
H921 C896 0.950 . S
H922 C898 0.950 . S
H923 C899 0.949 . S
H924 C901 0.950 . S
H925 C903 0.950 . S
C926 C927 1.349 . S
C926 C928 1.327 . S
C926 H951 0.950 . S
C927 C926 1.349 . S
C927 C943 1.349 . S
C928 C926 1.327 . S
C928 C947 1.429 . S
C928 H952 0.950 . S
C929 C946 1.574 . S
C929 C948 1.368 . S
C929 H953 0.949 . S
H930 C934 0.949 . S
C931 C932 1.349 . S
C931 C933 1.327 . S
C931 H954 0.950 . S
C932 C931 1.349 . S
C932 C944 1.349 . S
C933 C931 1.327 . S
C933 C949 1.429 . S
C933 H955 0.950 . S
C934 H930 0.949 . S
C934 C942 1.574 . S
C934 C950 1.368 . S
H935 C943 0.950 . S
H936 C941 0.950 . S
H937 C942 0.949 . S
H938 C944 0.950 . S
H939 C945 0.950 . S
H940 C946 0.949 . S
C941 H936 0.950 . S
C941 C943 1.327 . S
C941 C947 1.429 . S
C942 C934 1.574 . S
C942 H937 0.949 . S
C942 C948 1.368 . S
C943 C927 1.349 . S
C943 H935 0.950 . S
C943 C941 1.327 . S
C944 C932 1.349 . S
C944 H938 0.950 . S
C944 C945 1.327 . S
C945 H939 0.950 . S
C945 C944 1.327 . S
C945 C949 1.429 . S
C946 C929 1.574 . S
C946 H940 0.949 . S
C946 C950 1.368 . S
C947 C928 1.429 . S
C947 C941 1.429 . S
C947 C948 1.523 . S
C948 C929 1.368 . S
C948 C942 1.368 . S
C948 C947 1.523 . S
C949 C933 1.429 . S
C949 C945 1.429 . S
C949 C950 1.523 . S
C950 C934 1.368 . S
C950 C946 1.368 . S
C950 C949 1.523 . S
H951 C926 0.950 . S
H952 C928 0.950 . S
H953 C929 0.949 . S
H954 C931 0.950 . S
H955 C933 0.950 . S
C956 C957 1.349 . S
C956 C958 1.327 . S
C956 H981 0.950 . S
C957 C956 1.349 . S
C957 C973 1.349 . S
C958 C956 1.327 . S
C958 C977 1.429 . S
C958 H982 0.950 . S
C959 C976 1.574 . S
C959 C978 1.368 . S
C959 H983 0.949 . S
H960 C964 0.949 . S
C961 C962 1.349 . S
C961 C963 1.327 . S
C961 H984 0.950 . S
C962 C961 1.349 . S
C962 C974 1.349 . S
C963 C961 1.327 . S
C963 C979 1.429 . S
C963 H985 0.950 . S
C964 H960 0.949 . S
C964 C972 1.574 . S
C964 C980 1.368 . S
H965 C973 0.950 . S
H966 C971 0.950 . S
H967 C972 0.949 . S
H968 C974 0.950 . S
H969 C975 0.950 . S
H970 C976 0.949 . S
C971 H966 0.950 . S
C971 C973 1.327 . S
C971 C977 1.429 . S
C972 C964 1.574 . S
C972 H967 0.949 . S
C972 C978 1.368 . S
C973 C957 1.349 . S
C973 H965 0.950 . S
C973 C971 1.327 . S
C974 C962 1.349 . S
C974 H968 0.950 . S
C974 C975 1.327 . S
C975 H969 0.950 . S
C975 C974 1.327 . S
C975 C979 1.429 . S
C976 C959 1.574 . S
C976 H970 0.949 . S
C976 C980 1.368 . S
C977 C958 1.429 . S
C977 C971 1.429 . S
C977 C978 1.523 . S
C978 C959 1.368 . S
C978 C972 1.368 . S
C978 C977 1.523 . S
C979 C963 1.429 . S
C979 C975 1.429 . S
C979 C980 1.523 . S
C980 C964 1.368 . S
C980 C976 1.368 . S
C980 C979 1.523 . S
H981 C956 0.950 . S
H982 C958 0.950 . S
H983 C959 0.949 . S
H984 C961 0.950 . S
H985 C963 0.950 . S
C986 C987 1.349 . S
C986 C988 1.327 . S
C986 H1011 0.950 . S
C987 C986 1.349 . S
C987 C1003 1.349 . S
C988 C986 1.327 . S
C988 C1007 1.429 . S
C988 H1012 0.950 . S
C989 C1006 1.574 . S
C989 C1008 1.368 . S
C989 H1013 0.949 . S
H990 C994 0.949 . S
C991 C992 1.349 . S
C991 C993 1.327 . S
C991 H1014 0.950 . S
C992 C991 1.349 . S
C992 C1004 1.349 . S
C993 C991 1.327 . S
C993 C1009 1.429 . S
C993 H1015 0.950 . S
C994 H990 0.949 . S
C994 C1002 1.574 . S
C994 C1010 1.368 . S
H995 C1003 0.950 . S
H996 C1001 0.950 . S
H997 C1002 0.949 . S
H998 C1004 0.950 . S
H999 C1005 0.950 . S
H1000 C1006 0.949 . S
C1001 H996 0.950 . S
C1001 C1003 1.327 . S
C1001 C1007 1.429 . S
C1002 C994 1.574 . S
C1002 H997 0.949 . S
C1002 C1008 1.368 . S
C1003 C987 1.349 . S
C1003 H995 0.950 . S
C1003 C1001 1.327 . S
C1004 C992 1.349 . S
C1004 H998 0.950 . S
C1004 C1005 1.327 . S
C1005 H999 0.950 . S
C1005 C1004 1.327 . S
C1005 C1009 1.429 . S
C1006 C989 1.574 . S
C1006 H1000 0.949 . S
C1006 C1010 1.368 . S
C1007 C988 1.429 . S
C1007 C1001 1.429 . S
C1007 C1008 1.523 . S
C1008 C989 1.368 . S
C1008 C1002 1.368 . S
C1008 C1007 1.523 . S
C1009 C993 1.429 . S
C1009 C1005 1.429 . S
C1009 C1010 1.523 . S
C1010 C994 1.368 . S
C1010 C1006 1.368 . S
C1010 C1009 1.523 . S
H1011 C986 0.950 . S
H1012 C988 0.950 . S
H1013 C989 0.949 . S
H1014 C991 0.950 . S
H1015 C993 0.950 . S
C1016 C1017 1.349 . S
C1016 C1018 1.327 . S
C1016 H1041 0.950 . S
C1017 C1016 1.349 . S
C1017 C1033 1.349 . S
C1018 C1016 1.327 . S
C1018 C1037 1.429 . S
C1018 H1042 0.950 . S
C1019 C1036 1.574 . S
C1019 C1038 1.368 . S
C1019 H1043 0.949 . S
H1020 C1024 0.949 . S
C1021 C1022 1.349 . S
C1021 C1023 1.327 . S
C1021 H1044 0.950 . S
C1022 C1021 1.349 . S
C1022 C1034 1.349 . S
C1023 C1021 1.327 . S
C1023 C1039 1.429 . S
C1023 H1045 0.950 . S
C1024 H1020 0.949 . S
C1024 C1032 1.574 . S
C1024 C1040 1.368 . S
H1025 C1033 0.950 . S
H1026 C1031 0.950 . S
H1027 C1032 0.949 . S
H1028 C1034 0.950 . S
H1029 C1035 0.950 . S
H1030 C1036 0.949 . S
C1031 H1026 0.950 . S
C1031 C1033 1.327 . S
C1031 C1037 1.429 . S
C1032 C1024 1.574 . S
C1032 H1027 0.949 . S
C1032 C1038 1.368 . S
C1033 C1017 1.349 . S
C1033 H1025 0.950 . S
C1033 C1031 1.327 . S
C1034 C1022 1.349 . S
C1034 H1028 0.950 . S
C1034 C1035 1.327 . S
C1035 H1029 0.950 . S
C1035 C1034 1.327 . S
C1035 C1039 1.429 . S
C1036 C1019 1.574 . S
C1036 H1030 0.949 . S
C1036 C1040 1.368 . S
C1037 C1018 1.429 . S
C1037 C1031 1.429 . S
C1037 C1038 1.523 . S
C1038 C1019 1.368 . S
C1038 C1032 1.368 . S
C1038 C1037 1.523 . S
C1039 C1023 1.429 . S
C1039 C1035 1.429 . S
C1039 C1040 1.523 . S
C1040 C1024 1.368 . S
C1040 C1036 1.368 . S
C1040 C1039 1.523 . S
H1041 C1016 0.950 . S
H1042 C1018 0.950 . S
H1043 C1019 0.949 . S
H1044 C1021 0.950 . S
H1045 C1023 0.950 . S
C1046 C1047 1.349 . S
C1046 C1048 1.327 . S
C1046 H1071 0.950 . S
C1047 C1046 1.349 . S
C1047 C1063 1.349 . S
C1048 C1046 1.327 . S
C1048 C1067 1.429 . S
C1048 H1072 0.950 . S
C1049 C1066 1.574 . S
C1049 C1068 1.368 . S
C1049 H1073 0.949 . S
H1050 C1054 0.949 . S
C1051 C1052 1.349 . S
C1051 C1053 1.327 . S
C1051 H1074 0.950 . S
C1052 C1051 1.349 . S
C1052 C1064 1.349 . S
C1053 C1051 1.327 . S
C1053 C1069 1.429 . S
C1053 H1075 0.950 . S
C1054 H1050 0.949 . S
C1054 C1062 1.574 . S
C1054 C1070 1.368 . S
H1055 C1063 0.950 . S
H1056 C1061 0.950 . S
H1057 C1062 0.949 . S
H1058 C1064 0.950 . S
H1059 C1065 0.950 . S
H1060 C1066 0.949 . S
C1061 H1056 0.950 . S
C1061 C1063 1.327 . S
C1061 C1067 1.429 . S
C1062 C1054 1.574 . S
C1062 H1057 0.949 . S
C1062 C1068 1.368 . S
C1063 C1047 1.349 . S
C1063 H1055 0.950 . S
C1063 C1061 1.327 . S
C1064 C1052 1.349 . S
C1064 H1058 0.950 . S
C1064 C1065 1.327 . S
C1065 H1059 0.950 . S
C1065 C1064 1.327 . S
C1065 C1069 1.429 . S
C1066 C1049 1.574 . S
C1066 H1060 0.949 . S
C1066 C1070 1.368 . S
C1067 C1048 1.429 . S
C1067 C1061 1.429 . S
C1067 C1068 1.523 . S
C1068 C1049 1.368 . S
C1068 C1062 1.368 . S
C1068 C1067 1.523 . S
C1069 C1053 1.429 . S
C1069 C1065 1.429 . S
C1069 C1070 1.523 . S
C1070 C1054 1.368 . S
C1070 C1066 1.368 . S
C1070 C1069 1.523 . S
H1071 C1046 0.950 . S
H1072 C1048 0.950 . S
H1073 C1049 0.949 . S
H1074 C1051 0.950 . S
H1075 C1053 0.950 . S
C1076 C1077 1.349 . S
C1076 C1078 1.327 . S
C1076 H1101 0.950 . S
C1077 C1076 1.349 . S
C1077 C1093 1.349 . S
C1078 C1076 1.327 . S
C1078 C1097 1.429 . S
C1078 H1102 0.950 . S
C1079 C1096 1.574 . S
C1079 C1098 1.368 . S
C1079 H1103 0.949 . S
H1080 C1084 0.949 . S
C1081 C1082 1.349 . S
C1081 C1083 1.327 . S
C1081 H1104 0.950 . S
C1082 C1081 1.349 . S
C1082 C1094 1.349 . S
C1083 C1081 1.327 . S
C1083 C1099 1.429 . S
C1083 H1105 0.950 . S
C1084 H1080 0.949 . S
C1084 C1092 1.574 . S
C1084 C1100 1.368 . S
H1085 C1093 0.950 . S
H1086 C1091 0.950 . S
H1087 C1092 0.949 . S
H1088 C1094 0.950 . S
H1089 C1095 0.950 . S
H1090 C1096 0.949 . S
C1091 H1086 0.950 . S
C1091 C1093 1.327 . S
C1091 C1097 1.429 . S
C1092 C1084 1.574 . S
C1092 H1087 0.949 . S
C1092 C1098 1.368 . S
C1093 C1077 1.349 . S
C1093 H1085 0.950 . S
C1093 C1091 1.327 . S
C1094 C1082 1.349 . S
C1094 H1088 0.950 . S
C1094 C1095 1.327 . S
C1095 H1089 0.950 . S
C1095 C1094 1.327 . S
C1095 C1099 1.429 . S
C1096 C1079 1.574 . S
C1096 H1090 0.949 . S
C1096 C1100 1.368 . S
C1097 C1078 1.429 . S
C1097 C1091 1.429 . S
C1097 C1098 1.523 . S
C1098 C1079 1.368 . S
C1098 C1092 1.368 . S
C1098 C1097 1.523 . S
C1099 C1083 1.429 . S
C1099 C1095 1.429 . S
C1099 C1100 1.523 . S
C1100 C1084 1.368 . S
C1100 C1096 1.368 . S
C1100 C1099 1.523 . S
H1101 C1076 0.950 . S
H1102 C1078 0.950 . S
H1103 C1079 0.949 . S
H1104 C1081 0.950 . S
H1105 C1083 0.950 . S
C1106 C1107 1.349 . S
C1106 C1108 1.327 . S
C1106 H1131 0.950 . S
C1107 C1106 1.349 . S
C1107 C1123 1.349 . S
C1108 C1106 1.327 . S
C1108 C1127 1.429 . S
C1108 H1132 0.950 . S
C1109 C1126 1.574 . S
C1109 C1128 1.368 . S
C1109 H1133 0.949 . S
H1110 C1114 0.949 . S
C1111 C1112 1.349 . S
C1111 C1113 1.327 . S
C1111 H1134 0.950 . S
C1112 C1111 1.349 . S
C1112 C1124 1.349 . S
C1113 C1111 1.327 . S
C1113 C1129 1.429 . S
C1113 H1135 0.950 . S
C1114 H1110 0.949 . S
C1114 C1122 1.574 . S
C1114 C1130 1.368 . S
H1115 C1123 0.950 . S
H1116 C1121 0.950 . S
H1117 C1122 0.949 . S
H1118 C1124 0.950 . S
H1119 C1125 0.950 . S
H1120 C1126 0.949 . S
C1121 H1116 0.950 . S
C1121 C1123 1.327 . S
C1121 C1127 1.429 . S
C1122 C1114 1.574 . S
C1122 H1117 0.949 . S
C1122 C1128 1.368 . S
C1123 C1107 1.349 . S
C1123 H1115 0.950 . S
C1123 C1121 1.327 . S
C1124 C1112 1.349 . S
C1124 H1118 0.950 . S
C1124 C1125 1.327 . S
C1125 H1119 0.950 . S
C1125 C1124 1.327 . S
C1125 C1129 1.429 . S
C1126 C1109 1.574 . S
C1126 H1120 0.949 . S
C1126 C1130 1.368 . S
C1127 C1108 1.429 . S
C1127 C1121 1.429 . S
C1127 C1128 1.523 . S
C1128 C1109 1.368 . S
C1128 C1122 1.368 . S
C1128 C1127 1.523 . S
C1129 C1113 1.429 . S
C1129 C1125 1.429 . S
C1129 C1130 1.523 . S
C1130 C1114 1.368 . S
C1130 C1126 1.368 . S
C1130 C1129 1.523 . S
H1131 C1106 0.950 . S
H1132 C1108 0.950 . S
H1133 C1109 0.949 . S
H1134 C1111 0.950 . S
H1135 C1113 0.950 . S
C417 C45 1.636 . S
C422 C125 1.638 . S
C447 C30 1.636 . S
C452 C164 1.644 . S
C477 C39 1.636 . S
C482 C203 1.655 . S
C512 C242 1.651 . S
C507 C34 1.633 . S
C537 C97 1.636 . S
C542 C281 1.641 . S
C572 C320 1.641 . S
C567 C82 1.636 . S
C602 C359 1.651 . S
C597 C91 1.636 . S
C632 C398 1.651 . S
C627 C86 1.636 . S
C662 C354 1.524 . S
C657 C26 1.477 . S
C692 C393 1.523 . S
C687 C36 1.480 . S
C722 C261 1.525 . S
C717 C32 1.482 . S
C752 C300 1.525 . S
C747 C42 1.478 . S
C777 C18 1.566 . S
C782 C315 1.627 . S
C812 C339 1.633 . S
C807 C50 1.566 . S
C837 C4 1.567 . S
C842 C378 1.635 . S
C867 C48 1.565 . S
C872 C276 1.631 . S
C902 C198 1.523 . S
C897 C78 1.478 . S
C927 C88 1.478 . S
C932 C237 1.523 . S
C962 C105 1.525 . S
C957 C84 1.480 . S
C992 C144 1.525 . S
C987 C94 1.480 . S
C1022 C159 1.629 . S
C1017 C70 1.565 . S
C1052 C183 1.633 . S
C1047 C102 1.567 . S
C1077 C56 1.567 . S
C1082 C222 1.633 . S
C1107 C100 1.565 . S
C1112 C120 1.630 . S
