# Generated by pormake.
# Topology eea, (3,6)-cn, num edge types: 1
# Building blocks:
#     Node 0, Type 0, BuildingBlock: KAKCAD_clean_linker_0, # of connection points: 3
#     Node 1, Type 0, BuildingBlock: KAKCAD_clean_linker_0, # of connection points: 3
#     Node 2, Type 0, BuildingBlock: KAKCAD_clean_linker_0, # of connection points: 3
#     Node 3, Type 0, BuildingBlock: KAKCAD_clean_linker_0, # of connection points: 3
#     Node 4, Type 0, BuildingBlock: KAKCAD_clean_linker_0, # of connection points: 3
#     Node 5, Type 0, BuildingBlock: KAKCAD_clean_linker_0, # of connection points: 3
#     Node 6, Type 0, BuildingBlock: KAKCAD_clean_linker_0, # of connection points: 3
#     Node 7, Type 0, BuildingBlock: KAKCAD_clean_linker_0, # of connection points: 3
#     Node 8, Type 0, BuildingBlock: KAKCAD_clean_linker_0, # of connection points: 3
#     Node 9, Type 0, BuildingBlock: KAKCAD_clean_linker_0, # of connection points: 3
#     Node 10, Type 0, BuildingBlock: KAKCAD_clean_linker_0, # of connection points: 3
#     Node 11, Type 0, BuildingBlock: KAKCAD_clean_linker_0, # of connection points: 3
#     Node 12, Type 0, BuildingBlock: KAKCAD_clean_linker_0, # of connection points: 3
#     Node 13, Type 0, BuildingBlock: KAKCAD_clean_linker_0, # of connection points: 3
#     Node 14, Type 0, BuildingBlock: KAKCAD_clean_linker_0, # of connection points: 3
#     Node 15, Type 0, BuildingBlock: KAKCAD_clean_linker_0, # of connection points: 3
#     Node 16, Type 0, BuildingBlock: KAKCAD_clean_linker_0, # of connection points: 3
#     Node 17, Type 0, BuildingBlock: KAKCAD_clean_linker_0, # of connection points: 3
#     Node 18, Type 1, BuildingBlock: CUWYAW_clean_sbu_0, # of connection points: 6
#     Node 19, Type 1, BuildingBlock: CUWYAW_clean_sbu_0, # of connection points: 6
#     Node 20, Type 1, BuildingBlock: CUWYAW_clean_sbu_0, # of connection points: 6
#     Node 21, Type 1, BuildingBlock: CUWYAW_clean_sbu_0, # of connection points: 6
#     Node 22, Type 1, BuildingBlock: CUWYAW_clean_sbu_0, # of connection points: 6
#     Node 23, Type 1, BuildingBlock: CUWYAW_clean_sbu_0, # of connection points: 6
#     Node 24, Type 1, BuildingBlock: CUWYAW_clean_sbu_0, # of connection points: 6
#     Node 25, Type 1, BuildingBlock: CUWYAW_clean_sbu_0, # of connection points: 6
#     Node 26, Type 1, BuildingBlock: CUWYAW_clean_sbu_0, # of connection points: 6
#     Edge 27, Type (0, 1), BuildingBlock: MIFKUJ_clean_linker_0, # of connection points: 2
#     Edge 28, Type (0, 1), BuildingBlock: MIFKUJ_clean_linker_0, # of connection points: 2
#     Edge 29, Type (0, 1), BuildingBlock: MIFKUJ_clean_linker_0, # of connection points: 2
#     Edge 30, Type (0, 1), BuildingBlock: MIFKUJ_clean_linker_0, # of connection points: 2
#     Edge 31, Type (0, 1), BuildingBlock: MIFKUJ_clean_linker_0, # of connection points: 2
#     Edge 32, Type (0, 1), BuildingBlock: MIFKUJ_clean_linker_0, # of connection points: 2
#     Edge 33, Type (0, 1), BuildingBlock: MIFKUJ_clean_linker_0, # of connection points: 2
#     Edge 34, Type (0, 1), BuildingBlock: MIFKUJ_clean_linker_0, # of connection points: 2
#     Edge 35, Type (0, 1), BuildingBlock: MIFKUJ_clean_linker_0, # of connection points: 2
#     Edge 36, Type (0, 1), BuildingBlock: MIFKUJ_clean_linker_0, # of connection points: 2
#     Edge 37, Type (0, 1), BuildingBlock: MIFKUJ_clean_linker_0, # of connection points: 2
#     Edge 38, Type (0, 1), BuildingBlock: MIFKUJ_clean_linker_0, # of connection points: 2
#     Edge 39, Type (0, 1), BuildingBlock: MIFKUJ_clean_linker_0, # of connection points: 2
#     Edge 40, Type (0, 1), BuildingBlock: MIFKUJ_clean_linker_0, # of connection points: 2
#     Edge 41, Type (0, 1), BuildingBlock: MIFKUJ_clean_linker_0, # of connection points: 2
#     Edge 42, Type (0, 1), BuildingBlock: MIFKUJ_clean_linker_0, # of connection points: 2
#     Edge 43, Type (0, 1), BuildingBlock: MIFKUJ_clean_linker_0, # of connection points: 2
#     Edge 44, Type (0, 1), BuildingBlock: MIFKUJ_clean_linker_0, # of connection points: 2
#     Edge 45, Type (0, 1), BuildingBlock: MIFKUJ_clean_linker_0, # of connection points: 2
#     Edge 46, Type (0, 1), BuildingBlock: MIFKUJ_clean_linker_0, # of connection points: 2
#     Edge 47, Type (0, 1), BuildingBlock: MIFKUJ_clean_linker_0, # of connection points: 2
#     Edge 48, Type (0, 1), BuildingBlock: MIFKUJ_clean_linker_0, # of connection points: 2
#     Edge 49, Type (0, 1), BuildingBlock: MIFKUJ_clean_linker_0, # of connection points: 2
#     Edge 50, Type (0, 1), BuildingBlock: MIFKUJ_clean_linker_0, # of connection points: 2
#     Edge 51, Type (0, 1), BuildingBlock: MIFKUJ_clean_linker_0, # of connection points: 2
#     Edge 52, Type (0, 1), BuildingBlock: MIFKUJ_clean_linker_0, # of connection points: 2
#     Edge 53, Type (0, 1), BuildingBlock: MIFKUJ_clean_linker_0, # of connection points: 2
#     Edge 54, Type (0, 1), BuildingBlock: MIFKUJ_clean_linker_0, # of connection points: 2
#     Edge 55, Type (0, 1), BuildingBlock: MIFKUJ_clean_linker_0, # of connection points: 2
#     Edge 56, Type (0, 1), BuildingBlock: MIFKUJ_clean_linker_0, # of connection points: 2
#     Edge 57, Type (0, 1), BuildingBlock: MIFKUJ_clean_linker_0, # of connection points: 2
#     Edge 58, Type (0, 1), BuildingBlock: MIFKUJ_clean_linker_0, # of connection points: 2
#     Edge 59, Type (0, 1), BuildingBlock: MIFKUJ_clean_linker_0, # of connection points: 2
#     Edge 60, Type (0, 1), BuildingBlock: MIFKUJ_clean_linker_0, # of connection points: 2
#     Edge 61, Type (0, 1), BuildingBlock: MIFKUJ_clean_linker_0, # of connection points: 2
#     Edge 62, Type (0, 1), BuildingBlock: MIFKUJ_clean_linker_0, # of connection points: 2
#     Edge 63, Type (0, 1), BuildingBlock: MIFKUJ_clean_linker_0, # of connection points: 2
#     Edge 64, Type (0, 1), BuildingBlock: MIFKUJ_clean_linker_0, # of connection points: 2
#     Edge 65, Type (0, 1), BuildingBlock: MIFKUJ_clean_linker_0, # of connection points: 2
#     Edge 66, Type (0, 1), BuildingBlock: MIFKUJ_clean_linker_0, # of connection points: 2
#     Edge 67, Type (0, 1), BuildingBlock: MIFKUJ_clean_linker_0, # of connection points: 2
#     Edge 68, Type (0, 1), BuildingBlock: MIFKUJ_clean_linker_0, # of connection points: 2
#     Edge 69, Type (0, 1), BuildingBlock: MIFKUJ_clean_linker_0, # of connection points: 2
#     Edge 70, Type (0, 1), BuildingBlock: MIFKUJ_clean_linker_0, # of connection points: 2
#     Edge 71, Type (0, 1), BuildingBlock: MIFKUJ_clean_linker_0, # of connection points: 2
#     Edge 72, Type (0, 1), BuildingBlock: MIFKUJ_clean_linker_0, # of connection points: 2
#     Edge 73, Type (0, 1), BuildingBlock: MIFKUJ_clean_linker_0, # of connection points: 2
#     Edge 74, Type (0, 1), BuildingBlock: MIFKUJ_clean_linker_0, # of connection points: 2
#     Edge 75, Type (0, 1), BuildingBlock: MIFKUJ_clean_linker_0, # of connection points: 2
#     Edge 76, Type (0, 1), BuildingBlock: MIFKUJ_clean_linker_0, # of connection points: 2
#     Edge 77, Type (0, 1), BuildingBlock: MIFKUJ_clean_linker_0, # of connection points: 2
#     Edge 78, Type (0, 1), BuildingBlock: MIFKUJ_clean_linker_0, # of connection points: 2
#     Edge 79, Type (0, 1), BuildingBlock: MIFKUJ_clean_linker_0, # of connection points: 2
#     Edge 80, Type (0, 1), BuildingBlock: MIFKUJ_clean_linker_0, # of connection points: 2
# Relax obj value: 0.034
# Max RMSD: 0.135
# Mean RMSD: 0.066
data_MOF--net-eea--node1-CUWYAW_clean_sbu_0--node2-KAKCAD_clean_linker_0--edge1-MIFKUJ_clean_linker_0
_symmetry_space_group_name_H-M    P1
_symmetry_Int_Tables_number       1
_symmetry_cell_setting            triclinic
loop_
_symmetry_equiv_pos_as_xyz
'x, y, z'
_cell_length_a     78.348486
_cell_length_b     78.027338
_cell_length_c     108.81439
_cell_angle_alpha  93.616126
_cell_angle_beta   93.470293
_cell_angle_gamma 119.85357
loop_
_atom_site_label
_atom_site_type_symbol
_atom_site_fract_x
_atom_site_fract_y
_atom_site_fract_z
_atom_type_partial_charge
C0 C 0.27271 0.16308 0.46156 0.0
C1 C 0.28638 0.15801 0.46652 0.0
C2 C 0.26657 0.15924 0.44888 0.0
C3 C 0.27392 0.15018 0.44089 0.0
C4 C 0.28798 0.14557 0.4458 0.0
C5 C 0.29419 0.1495 0.45849 0.0
C6 C 0.26611 0.14466 0.4276 0.0
C7 C 0.26289 0.15774 0.42086 0.0
C8 C 0.25382 0.15197 0.4086 0.0
C9 C 0.2483 0.13291 0.40305 0.0
C10 C 0.25177 0.11978 0.40959 0.0
C11 C 0.26072 0.1258 0.42184 0.0
C12 C 0.24539 0.09949 0.4038 0.0
C13 C 0.22657 0.08785 0.39716 0.0
C14 C 0.25794 0.09152 0.40502 0.0
C15 C 0.25183 0.07233 0.39968 0.0
C16 C 0.23298 0.06065 0.39309 0.0
C17 C 0.24948 0.16555 0.40177 0.0
C18 C 0.24339 0.17764 0.40799 0.0
C19 C 0.25097 0.16628 0.38896 0.0
C20 C 0.2462 0.17855 0.38253 0.0
C21 C 0.24014 0.19056 0.38879 0.0
C22 C 0.23892 0.1901 0.40159 0.0
C23 C 0.22042 0.06862 0.39189 0.0
H24 H 0.2666 0.16985 0.46751 0.0
H25 H 0.25559 0.1628 0.4454 0.0
H26 H 0.29402 0.13874 0.43984 0.0
H27 H 0.30464 0.14529 0.46205 0.0
H28 H 0.26754 0.17249 0.4252 0.0
H29 H 0.26268 0.11542 0.42708 0.0
H30 H 0.24105 0.12811 0.39368 0.0
H31 H 0.21649 0.09351 0.39618 0.0
H32 H 0.27257 0.1002 0.41003 0.0
H33 H 0.26178 0.06653 0.40082 0.0
H34 H 0.24164 0.17719 0.41778 0.0
H35 H 0.25592 0.15747 0.38389 0.0
H36 H 0.20589 0.06005 0.38675 0.0
H37 H 0.23401 0.19902 0.4066 0.0
H38 H 0.2474 0.17879 0.37266 0.0
C39 C 0.88451 0.15988 0.46724 0.0
C40 C 0.8752 0.1441 0.47454 0.0
C41 C 0.88752 0.15631 0.45502 0.0
C42 C 0.88144 0.1369 0.44985 0.0
C43 C 0.8721 0.12115 0.45716 0.0
C44 C 0.86887 0.12468 0.46928 0.0
C45 C 0.88514 0.13298 0.43699 0.0
C46 C 0.90281 0.14623 0.4323 0.0
C47 C 0.90682 0.14199 0.42045 0.0
C48 C 0.89307 0.12417 0.41328 0.0
C49 C 0.8752 0.1108 0.41774 0.0
C50 C 0.87128 0.11554 0.42952 0.0
C51 C 0.86074 0.09172 0.41027 0.0
C52 C 0.85706 0.09075 0.39735 0.0
C53 C 0.85043 0.07426 0.41606 0.0
C54 C 0.83663 0.05638 0.40916 0.0
C55 C 0.83294 0.05544 0.39628 0.0
C56 C 0.92552 0.15617 0.41564 0.0
C57 C 0.93164 0.17649 0.41639 0.0
C58 C 0.93733 0.14951 0.41029 0.0
C59 C 0.95496 0.16294 0.40577 0.0
C60 C 0.96095 0.18323 0.40638 0.0
C61 C 0.94912 0.18988 0.41173 0.0
C62 C 0.84337 0.07277 0.39043 0.0
H63 H 0.88974 0.17505 0.47099 0.0
H64 H 0.89455 0.16879 0.44962 0.0
H65 H 0.86748 0.10604 0.45359 0.0
H66 H 0.86132 0.11209 0.47451 0.0
H67 H 0.91383 0.15957 0.43802 0.0
H68 H 0.85725 0.10565 0.43285 0.0
H69 H 0.89637 0.12072 0.40423 0.0
H70 H 0.86452 0.10394 0.3926 0.0
H71 H 0.85319 0.07433 0.42595 0.0
H72 H 0.82903 0.04317 0.41389 0.0
H73 H 0.92274 0.18199 0.42043 0.0
H74 H 0.93302 0.13393 0.40969 0.0
H75 H 0.84068 0.0725 0.38051 0.0
H76 H 0.95347 0.20546 0.41238 0.0
H77 H 0.96374 0.15741 0.40159 0.0
C78 C 0.8964 0.74587 0.47647 0.0
C79 C 0.87811 0.72996 0.47882 0.0
C80 C 0.8989 0.75294 0.46485 0.0
C81 C 0.88309 0.74437 0.45539 0.0
C82 C 0.86486 0.72832 0.4577 0.0
C83 C 0.86243 0.72111 0.46928 0.0
C84 C 0.88549 0.75262 0.44329 0.0
C85 C 0.9024 0.75723 0.43729 0.0
C86 C 0.90532 0.76595 0.42611 0.0
C87 C 0.89098 0.77006 0.42101 0.0
C88 C 0.87384 0.76525 0.4268 0.0
C89 C 0.87116 0.75644 0.4379 0.0
C90 C 0.85884 0.76966 0.4213 0.0
C91 C 0.86467 0.78826 0.41709 0.0
C92 C 0.83862 0.75526 0.42017 0.0
C93 C 0.82453 0.75931 0.41479 0.0
C94 C 0.83037 0.7779 0.41056 0.0
C95 C 0.92329 0.77077 0.4198 0.0
C96 C 0.94172 0.77787 0.42671 0.0
C97 C 0.92217 0.76831 0.4068 0.0
C98 C 0.93905 0.77296 0.40088 0.0
C99 C 0.95747 0.77995 0.40779 0.0
C100 C 0.95855 0.78227 0.42079 0.0
C101 C 0.85057 0.79237 0.41182 0.0
H102 H 0.90877 0.75287 0.48364 0.0
H103 H 0.91307 0.76543 0.46336 0.0
H104 H 0.85247 0.72136 0.45054 0.0
H105 H 0.84811 0.70894 0.47087 0.0
H106 H 0.91312 0.75366 0.44127 0.0
H107 H 0.85821 0.75321 0.44259 0.0
H108 H 0.89313 0.77705 0.4125 0.0
H109 H 0.88015 0.79969 0.41795 0.0
H110 H 0.83373 0.74076 0.42328 0.0
H111 H 0.80904 0.74792 0.41399 0.0
H112 H 0.94325 0.78022 0.43672 0.0
H113 H 0.9082 0.76261 0.40116 0.0
H114 H 0.85551 0.80677 0.40855 0.0
H115 H 0.97239 0.78733 0.42645 0.0
H116 H 0.93764 0.77123 0.39085 0.0
C117 C 0.12797 0.2524 0.52943 0.0
C118 C 0.12389 0.26712 0.5259 0.0
C119 C 0.12555 0.2467 0.5414 0.0
C120 C 0.11901 0.2556 0.55012 0.0
C121 C 0.11442 0.26995 0.5465 0.0
C122 C 0.11683 0.27565 0.53451 0.0
C123 C 0.1175 0.25026 0.56303 0.0
C124 C 0.13234 0.24785 0.56915 0.0
C125 C 0.13108 0.24261 0.5813 0.0
C126 C 0.11483 0.24008 0.58743 0.0
C127 C 0.09975 0.24235 0.58145 0.0
C128 C 0.10124 0.24745 0.56924 0.0
C129 C 0.08217 0.23884 0.58782 0.0
C130 C 0.07363 0.22328 0.59536 0.0
C131 C 0.07358 0.25079 0.58625 0.0
C132 C 0.05677 0.24713 0.59198 0.0
C133 C 0.04831 0.2316 0.59952 0.0
C134 C 0.14653 0.23935 0.58744 0.0
C135 C 0.15387 0.22876 0.58084 0.0
C136 C 0.15395 0.24659 0.59989 0.0
C137 C 0.16838 0.2433 0.60562 0.0
C138 C 0.17569 0.23268 0.59901 0.0
C139 C 0.16826 0.22547 0.58655 0.0
C140 C 0.05695 0.21977 0.60119 0.0
H141 H 0.13308 0.2453 0.52294 0.0
H142 H 0.12881 0.23531 0.54382 0.0
H143 H 0.10952 0.2772 0.55304 0.0
H144 H 0.11375 0.28717 0.5321 0.0
H145 H 0.14513 0.25039 0.5645 0.0
H146 H 0.08945 0.24865 0.56439 0.0
H147 H 0.11384 0.23611 0.59683 0.0
H148 H 0.07957 0.21353 0.59659 0.0
H149 H 0.07994 0.26308 0.58066 0.0
H150 H 0.05051 0.2566 0.59064 0.0
H151 H 0.14822 0.22269 0.57129 0.0
H152 H 0.14877 0.25501 0.60518 0.0
H153 H 0.05056 0.2075 0.6068 0.0
H154 H 0.17329 0.21691 0.58126 0.0
H155 H 0.17397 0.24927 0.61519 0.0
C156 C 0.71621 0.83052 0.54149 0.0
C157 C 0.72625 0.84604 0.53412 0.0
C158 C 0.7194 0.83414 0.55442 0.0
C159 C 0.73267 0.85335 0.56024 0.0
C160 C 0.74274 0.86879 0.55285 0.0
C161 C 0.73952 0.86521 0.53997 0.0
C162 C 0.73635 0.8574 0.57396 0.0
C163 C 0.73854 0.84414 0.58116 0.0
C164 C 0.74387 0.84889 0.59399 0.0
C165 C 0.74654 0.86682 0.5997 0.0
C166 C 0.74421 0.88011 0.59267 0.0
C167 C 0.73899 0.87525 0.57985 0.0
C168 C 0.74868 0.89972 0.59854 0.0
C169 C 0.74039 0.9013 0.60935 0.0
C170 C 0.76182 0.9171 0.59349 0.0
C171 C 0.76689 0.93573 0.59927 0.0
C172 C 0.75869 0.93734 0.6101 0.0
C173 C 0.74847 0.83602 0.60123 0.0
C174 C 0.73493 0.81561 0.60081 0.0
C175 C 0.7669 0.8441 0.60826 0.0
C176 C 0.77188 0.83193 0.6146 0.0
C177 C 0.75839 0.81143 0.61424 0.0
C178 C 0.73975 0.80345 0.60735 0.0
C179 C 0.74522 0.91997 0.61502 0.0
H180 H 0.706 0.81555 0.53727 0.0
H181 H 0.71134 0.82194 0.55986 0.0
H182 H 0.75333 0.8837 0.557 0.0
H183 H 0.74727 0.87759 0.5346 0.0
H184 H 0.73722 0.83065 0.57671 0.0
H185 H 0.73713 0.88552 0.57444 0.0
H186 H 0.75107 0.87072 0.60957 0.0
H187 H 0.73018 0.88809 0.61338 0.0
H188 H 0.76854 0.91628 0.58522 0.0
H189 H 0.77723 0.94892 0.59527 0.0
H190 H 0.72058 0.80909 0.59548 0.0
H191 H 0.77772 0.85977 0.60856 0.0
H192 H 0.7388 0.92087 0.62341 0.0
H193 H 0.72882 0.78783 0.60701 0.0
H194 H 0.78653 0.83861 0.61952 0.0
C195 C 0.11755 0.84216 0.53621 0.0
C196 C 0.13671 0.84574 0.53464 0.0
C197 C 0.11236 0.84455 0.54799 0.0
C198 C 0.12625 0.85071 0.55846 0.0
C199 C 0.14522 0.85377 0.55696 0.0
C200 C 0.15037 0.85124 0.54519 0.0
C201 C 0.12129 0.85509 0.57077 0.0
C202 C 0.10298 0.84212 0.5749 0.0
C203 C 0.09769 0.84688 0.58621 0.0
C204 C 0.11102 0.865 0.59332 0.0
C205 C 0.12949 0.87794 0.5894 0.0
C206 C 0.13455 0.87283 0.57816 0.0
C207 C 0.14331 0.89713 0.59683 0.0
C208 C 0.13663 0.90987 0.60111 0.0
C209 C 0.16337 0.90303 0.59942 0.0
C210 C 0.17653 0.92136 0.60613 0.0
C211 C 0.16996 0.93434 0.61027 0.0
C212 C 0.0783 0.83304 0.59059 0.0
C213 C 0.06112 0.82223 0.5822 0.0
C214 C 0.07682 0.83058 0.60325 0.0
C215 C 0.05864 0.81783 0.60742 0.0
C216 C 0.04146 0.80696 0.59905 0.0
C217 C 0.04296 0.80929 0.58637 0.0
C218 C 0.14982 0.92832 0.60769 0.0
H219 H 0.10674 0.83822 0.5283 0.0
H220 H 0.09771 0.84233 0.54885 0.0
H221 H 0.15613 0.85828 0.5649 0.0
H222 H 0.16513 0.85375 0.54436 0.0
H223 H 0.093 0.82816 0.56935 0.0
H224 H 0.14854 0.88311 0.57493 0.0
H225 H 0.10704 0.86913 0.60192 0.0
H226 H 0.12127 0.90578 0.5991 0.0
H227 H 0.16885 0.89336 0.59632 0.0
H228 H 0.19182 0.92529 0.60814 0.0
H229 H 0.06162 0.82391 0.57241 0.0
H230 H 0.08974 0.83841 0.60997 0.0
H231 H 0.14426 0.93802 0.61052 0.0
H232 H 0.03012 0.801 0.57962 0.0
H233 H 0.05806 0.81671 0.61727 0.0
C234 C 0.93562 0.48661 0.79676 0.0
C235 C 0.95158 0.48483 0.80169 0.0
C236 C 0.93113 0.4848 0.78396 0.0
C237 C 0.94241 0.48099 0.77583 0.0
C238 C 0.95855 0.47948 0.78076 0.0
C239 C 0.96317 0.4815 0.79357 0.0
C240 C 0.93679 0.47775 0.76227 0.0
C241 C 0.93175 0.49041 0.75644 0.0
C242 C 0.92544 0.48677 0.74371 0.0
C243 C 0.92401 0.47019 0.73682 0.0
C244 C 0.92867 0.45719 0.74256 0.0
C245 C 0.93536 0.46127 0.75525 0.0
C246 C 0.92496 0.43847 0.73561 0.0
C247 C 0.907 0.42638 0.72814 0.0
C248 C 0.9387 0.43194 0.73698 0.0
C249 C 0.93436 0.41349 0.73119 0.0
C250 C 0.91611 0.40114 0.72406 0.0
C251 C 0.9194 0.49972 0.73771 0.0
C252 C 0.90607 0.50435 0.743 0.0
C253 C 0.92646 0.50708 0.72652 0.0
C254 C 0.92025 0.51881 0.72069 0.0
C255 C 0.90663 0.52311 0.72587 0.0
C256 C 0.89964 0.51582 0.73709 0.0
C257 C 0.9026 0.40789 0.72246 0.0
H258 H 0.92654 0.48932 0.80281 0.0
H259 H 0.9185 0.48586 0.78041 0.0
H260 H 0.96755 0.47665 0.7747 0.0
H261 H 0.97548 0.47994 0.79713 0.0
H262 H 0.93284 0.50318 0.76179 0.0
H263 H 0.93843 0.45099 0.75982 0.0
H264 H 0.91874 0.46711 0.72705 0.0
H265 H 0.89602 0.4309 0.72702 0.0
H266 H 0.9527 0.44101 0.74263 0.0
H267 H 0.94501 0.40861 0.73263 0.0
H268 H 0.9003 0.49874 0.75158 0.0
H269 H 0.9368 0.50377 0.72228 0.0
H270 H 0.88851 0.39877 0.71691 0.0
H271 H 0.88923 0.51904 0.7413 0.0
H272 H 0.92577 0.52417 0.71201 0.0
C273 C 0.54438 0.49373 0.7994 0.0
C274 C 0.53707 0.47802 0.80689 0.0
C275 C 0.54741 0.49056 0.78711 0.0
C276 C 0.54308 0.47161 0.78207 0.0
C277 C 0.53568 0.45594 0.78957 0.0
C278 C 0.53267 0.45909 0.80181 0.0
C279 C 0.54659 0.46806 0.76914 0.0
C280 C 0.56401 0.48164 0.76437 0.0
C281 C 0.56816 0.47734 0.75258 0.0
C282 C 0.55469 0.45931 0.74549 0.0
C283 C 0.53692 0.44574 0.74997 0.0
C284 C 0.53296 0.45042 0.76176 0.0
C285 C 0.52269 0.4265 0.74255 0.0
C286 C 0.51941 0.42524 0.72957 0.0
C287 C 0.51218 0.40916 0.74844 0.0
C288 C 0.49853 0.39117 0.74158 0.0
C289 C 0.49531 0.38998 0.72866 0.0
C290 C 0.58686 0.49146 0.7478 0.0
C291 C 0.59234 0.51154 0.74767 0.0
C292 C 0.59931 0.48492 0.74332 0.0
C293 C 0.61697 0.49824 0.7388 0.0
C294 C 0.6223 0.51825 0.73849 0.0
C295 C 0.60983 0.52479 0.74294 0.0
C296 C 0.50597 0.40712 0.72269 0.0
H297 H 0.54802 0.50851 0.80308 0.0
H298 H 0.55302 0.50291 0.78154 0.0
H299 H 0.53245 0.44123 0.78604 0.0
H300 H 0.52675 0.44661 0.80726 0.0
H301 H 0.57478 0.4952 0.77002 0.0
H302 H 0.51914 0.44034 0.76523 0.0
H303 H 0.55819 0.45587 0.73651 0.0
H304 H 0.527 0.43829 0.72472 0.0
H305 H 0.51463 0.40937 0.75836 0.0
H306 H 0.4907 0.37808 0.74637 0.0
H307 H 0.58293 0.51689 0.75105 0.0
H308 H 0.59545 0.46953 0.7434 0.0
H309 H 0.50363 0.40657 0.71272 0.0
H310 H 0.61369 0.54017 0.74284 0.0
H311 H 0.62628 0.49282 0.73533 0.0
C312 C 0.55879 0.07575 0.80737 0.0
C313 C 0.53971 0.0609 0.80943 0.0
C314 C 0.56265 0.08241 0.79567 0.0
C315 C 0.5475 0.07435 0.7858 0.0
C316 C 0.52855 0.05918 0.78779 0.0
C317 C 0.5247 0.05252 0.79947 0.0
C318 C 0.55123 0.08209 0.77354 0.0
C319 C 0.56861 0.08612 0.76828 0.0
C320 C 0.57217 0.09349 0.75668 0.0
C321 C 0.55802 0.0967 0.75032 0.0
C322 C 0.54059 0.0929 0.75547 0.0
C323 C 0.53742 0.08567 0.76712 0.0
C324 C 0.52584 0.09678 0.74886 0.0
C325 C 0.532 0.11339 0.74217 0.0
C326 C 0.50544 0.08408 0.7494 0.0
C327 C 0.49161 0.08812 0.74363 0.0
C328 C 0.49782 0.10477 0.73704 0.0
C329 C 0.59074 0.09801 0.75127 0.0
C330 C 0.60898 0.10766 0.75872 0.0
C331 C 0.59041 0.09296 0.7386 0.0
C332 C 0.60794 0.09764 0.73346 0.0
C333 C 0.6262 0.10745 0.74088 0.0
C334 C 0.62652 0.11231 0.75358 0.0
C335 C 0.51813 0.11726 0.73625 0.0
H336 H 0.57061 0.08267 0.81488 0.0
H337 H 0.57735 0.09426 0.79445 0.0
H338 H 0.51666 0.05243 0.78031 0.0
H339 H 0.50993 0.0408 0.8007 0.0
H340 H 0.57919 0.08311 0.7731 0.0
H341 H 0.5244 0.08333 0.7714 0.0
H342 H 0.56066 0.10229 0.74135 0.0
H343 H 0.54757 0.12368 0.74171 0.0
H344 H 0.5001 0.07093 0.75424 0.0
H345 H 0.476 0.07812 0.74423 0.0
H346 H 0.60977 0.11198 0.76848 0.0
H347 H 0.57657 0.08522 0.73265 0.0
H348 H 0.5233 0.13031 0.73132 0.0
H349 H 0.64037 0.12009 0.75951 0.0
H350 H 0.60716 0.09338 0.72368 0.0
C351 C 0.79171 0.57675 0.86024 0.0
C352 C 0.78694 0.59097 0.85665 0.0
C353 C 0.78847 0.57031 0.872 0.0
C354 C 0.78059 0.57809 0.88051 0.0
C355 C 0.7755 0.59208 0.87681 0.0
C356 C 0.77857 0.59838 0.86499 0.0
C357 C 0.77824 0.57206 0.89328 0.0
C358 C 0.79263 0.56922 0.89963 0.0
C359 C 0.79076 0.56381 0.91173 0.0
C360 C 0.77442 0.56151 0.91763 0.0
C361 C 0.75966 0.56402 0.91141 0.0
C362 C 0.76172 0.56925 0.89921 0.0
C363 C 0.74194 0.5608 0.91751 0.0
C364 C 0.73297 0.54535 0.9251 0.0
C365 C 0.73366 0.57295 0.91567 0.0
C366 C 0.71675 0.56962 0.92117 0.0
C367 C 0.70787 0.5542 0.92875 0.0
C368 C 0.8058 0.56025 0.91809 0.0
C369 C 0.81168 0.54791 0.91205 0.0
C370 C 0.81438 0.56913 0.93015 0.0
C371 C 0.82877 0.5659 0.93601 0.0
C372 C 0.83469 0.5535 0.92999 0.0
C373 C 0.82585 0.54447 0.91795 0.0
C374 C 0.7162 0.54217 0.9307 0.0
H375 H 0.79791 0.57057 0.85392 0.0
H376 H 0.79216 0.5592 0.87442 0.0
H377 H 0.76964 0.59858 0.88317 0.0
H378 H 0.77493 0.6095 0.86249 0.0
H379 H 0.80561 0.57162 0.89527 0.0
H380 H 0.75017 0.57064 0.8942 0.0
H381 H 0.77313 0.55756 0.92704 0.0
H382 H 0.73869 0.53545 0.92654 0.0
H383 H 0.74035 0.58519 0.91007 0.0
H384 H 0.71078 0.57928 0.91964 0.0
H385 H 0.80509 0.54067 0.9028 0.0
H386 H 0.81022 0.57885 0.93497 0.0
H387 H 0.7095 0.53001 0.93638 0.0
H388 H 0.82965 0.53448 0.9131 0.0
H389 H 0.83545 0.57338 0.9452 0.0
C390 C 0.37593 0.16339 0.87898 0.0
C391 C 0.3862 0.17801 0.87109 0.0
C392 C 0.38042 0.16773 0.89184 0.0
C393 C 0.39522 0.1868 0.89707 0.0
C394 C 0.40552 0.20134 0.88916 0.0
C395 C 0.40102 0.19703 0.87636 0.0
C396 C 0.40015 0.19165 0.91071 0.0
C397 C 0.40173 0.17823 0.91808 0.0
C398 C 0.40803 0.18354 0.9308 0.0
C399 C 0.41228 0.20224 0.93622 0.0
C400 C 0.41064 0.21573 0.92902 0.0
C401 C 0.40447 0.2103 0.91631 0.0
C402 C 0.41659 0.23597 0.93461 0.0
C403 C 0.40975 0.2388 0.94577 0.0
C404 C 0.42968 0.25265 0.92895 0.0
C405 C 0.43608 0.27181 0.93444 0.0
C406 C 0.42933 0.27466 0.94563 0.0
C407 C 0.41175 0.17026 0.93824 0.0
C408 C 0.39754 0.15003 0.93791 0.0
C409 C 0.42992 0.17779 0.94551 0.0
C410 C 0.43392 0.16532 0.95222 0.0
C411 C 0.41974 0.14503 0.95198 0.0
C412 C 0.40144 0.13756 0.94478 0.0
C413 C 0.41594 0.258 0.95118 0.0
H414 H 0.36451 0.14855 0.87521 0.0
H415 H 0.37215 0.15623 0.89769 0.0
H416 H 0.41722 0.21608 0.89286 0.0
H417 H 0.40902 0.20874 0.87058 0.0
H418 H 0.39911 0.16407 0.91381 0.0
H419 H 0.40307 0.22069 0.91077 0.0
H420 H 0.41743 0.20651 0.946 0.0
H421 H 0.39959 0.22617 0.95028 0.0
H422 H 0.43531 0.25087 0.9204 0.0
H423 H 0.44629 0.28441 0.92993 0.0
H424 H 0.38338 0.14391 0.93242 0.0
H425 H 0.44126 0.19327 0.94575 0.0
H426 H 0.41062 0.25982 0.95985 0.0
H427 H 0.39006 0.1221 0.94449 0.0
H428 H 0.44837 0.17155 0.95737 0.0
C429 C 0.77381 0.18136 0.86788 0.0
C430 C 0.793 0.18807 0.86456 0.0
C431 C 0.77084 0.18458 0.88015 0.0
C432 C 0.78701 0.19446 0.88936 0.0
C433 C 0.80614 0.20059 0.88606 0.0
C434 C 0.80911 0.1975 0.87379 0.0
C435 C 0.78404 0.19909 0.90224 0.0
C436 C 0.76772 0.18531 0.90785 0.0
C437 C 0.76439 0.19 0.91983 0.0
C438 C 0.77803 0.20856 0.92634 0.0
C439 C 0.79457 0.2225 0.92094 0.0
C440 C 0.79728 0.21766 0.90883 0.0
C441 C 0.80886 0.24224 0.92779 0.0
C442 C 0.8023 0.25242 0.93553 0.0
C443 C 0.82921 0.25116 0.92656 0.0
C444 C 0.84262 0.26983 0.93278 0.0
C445 C 0.83609 0.27997 0.94057 0.0
C446 C 0.74631 0.17585 0.92536 0.0
C447 C 0.72807 0.1648 0.91798 0.0
C448 C 0.74696 0.17374 0.93809 0.0
C449 C 0.72972 0.16128 0.94335 0.0
C450 C 0.71143 0.15044 0.93599 0.0
C451 C 0.71089 0.15217 0.92321 0.0
C452 C 0.81575 0.27096 0.94191 0.0
H453 H 0.76114 0.17421 0.86093 0.0
H454 H 0.75594 0.17989 0.88234 0.0
H455 H 0.81887 0.20788 0.89296 0.0
H456 H 0.82404 0.20254 0.87151 0.0
H457 H 0.75768 0.17082 0.90291 0.0
H458 H 0.80943 0.22864 0.90436 0.0
H459 H 0.77565 0.21226 0.93559 0.0
H460 H 0.78672 0.24619 0.93659 0.0
H461 H 0.83488 0.24368 0.92082 0.0
H462 H 0.8581 0.27636 0.93137 0.0
H463 H 0.72692 0.16619 0.90816 0.0
H464 H 0.76078 0.18177 0.94404 0.0
H465 H 0.81016 0.27814 0.94796 0.0
H466 H 0.69716 0.14381 0.9172 0.0
H467 H 0.73072 0.16051 0.95325 0.0
C468 C 0.62263 0.83865 0.12813 0.0
C469 C 0.63358 0.83018 0.13264 0.0
C470 C 0.61535 0.83493 0.11563 0.0
C471 C 0.61912 0.82287 0.10736 0.0
C472 C 0.63104 0.81534 0.11182 0.0
C473 C 0.63804 0.81881 0.12436 0.0
C474 C 0.60941 0.81695 0.09441 0.0
C475 C 0.60651 0.8303 0.08775 0.0
C476 C 0.59547 0.82413 0.07601 0.0
C477 C 0.58831 0.80451 0.07071 0.0
C478 C 0.59173 0.79116 0.07702 0.0
C479 C 0.60194 0.79743 0.08895 0.0
C480 C 0.58445 0.77054 0.07131 0.0
C481 C 0.566 0.75969 0.06413 0.0
C482 C 0.59598 0.76151 0.07307 0.0
C483 C 0.58919 0.74211 0.06788 0.0
C484 C 0.5708 0.73128 0.06063 0.0
C485 C 0.59066 0.83783 0.0696 0.0
C486 C 0.58788 0.85198 0.07647 0.0
C487 C 0.58801 0.83643 0.05659 0.0
C488 C 0.58203 0.84824 0.05067 0.0
C489 C 0.57909 0.86228 0.05756 0.0
C490 C 0.58252 0.86422 0.07055 0.0
C491 C 0.55931 0.74035 0.05881 0.0
H492 H 0.61885 0.84731 0.13438 0.0
H493 H 0.60603 0.84077 0.11258 0.0
H494 H 0.63462 0.80639 0.10568 0.0
H495 H 0.64665 0.81231 0.12763 0.0
H496 H 0.61287 0.84553 0.09177 0.0
H497 H 0.60346 0.78682 0.09418 0.0
H498 H 0.57985 0.79948 0.06169 0.0
H499 H 0.55658 0.76603 0.06272 0.0
H500 H 0.61037 0.76948 0.0784 0.0
H501 H 0.59834 0.73556 0.06965 0.0
H502 H 0.58939 0.85342 0.08649 0.0
H503 H 0.59042 0.8261 0.05089 0.0
H504 H 0.5452 0.73259 0.05315 0.0
H505 H 0.58099 0.87514 0.07626 0.0
H506 H 0.57935 0.84599 0.04067 0.0
C507 C 0.21362 0.82982 0.13261 0.0
C508 C 0.20641 0.81447 0.14036 0.0
C509 C 0.21661 0.82619 0.12038 0.0
C510 C 0.2123 0.80709 0.11566 0.0
C511 C 0.20491 0.79175 0.12341 0.0
C512 C 0.20198 0.79538 0.13558 0.0
C513 C 0.21584 0.80306 0.10283 0.0
C514 C 0.23341 0.8163 0.09804 0.0
C515 C 0.23759 0.81157 0.08636 0.0
C516 C 0.22394 0.79348 0.07939 0.0
C517 C 0.20609 0.78021 0.08392 0.0
C518 C 0.20213 0.78528 0.0956 0.0
C519 C 0.19187 0.76082 0.07666 0.0
C520 C 0.18855 0.75928 0.06368 0.0
C521 C 0.18162 0.7436 0.08269 0.0
C522 C 0.16831 0.72537 0.07593 0.0
C523 C 0.16513 0.72386 0.06298 0.0
C524 C 0.25652 0.82522 0.08158 0.0
C525 C 0.2631 0.84562 0.08188 0.0
C526 C 0.26809 0.8179 0.07662 0.0
C527 C 0.28583 0.8307 0.07198 0.0
C528 C 0.29226 0.85104 0.0721 0.0
C529 C 0.28075 0.85839 0.0771 0.0
C530 C 0.17541 0.74096 0.05691 0.0
H531 H 0.21724 0.8447 0.13605 0.0
H532 H 0.22221 0.83828 0.11461 0.0
H533 H 0.20168 0.77694 0.12012 0.0
H534 H 0.19614 0.78316 0.14125 0.0
H535 H 0.24426 0.82988 0.10363 0.0
H536 H 0.18827 0.77537 0.09911 0.0
H537 H 0.22736 0.78969 0.07048 0.0
H538 H 0.19594 0.77225 0.05873 0.0
H539 H 0.18409 0.74408 0.09264 0.0
H540 H 0.16077 0.71235 0.08083 0.0
H541 H 0.25442 0.85162 0.08562 0.0
H542 H 0.26345 0.80227 0.07638 0.0
H543 H 0.17307 0.74022 0.04693 0.0
H544 H 0.28544 0.87403 0.07737 0.0
H545 H 0.29433 0.82461 0.06808 0.0
C546 C 0.22767 0.41645 0.14361 0.0
C547 C 0.20901 0.40043 0.14539 0.0
C548 C 0.2317 0.42298 0.13189 0.0
C549 C 0.21711 0.41377 0.12175 0.0
C550 C 0.1986 0.39759 0.12345 0.0
C551 C 0.19464 0.39092 0.13511 0.0
C552 C 0.22095 0.42129 0.10946 0.0
C553 C 0.23838 0.42521 0.10434 0.0
C554 C 0.24191 0.43213 0.09263 0.0
C555 C 0.22783 0.43528 0.08609 0.0
C556 C 0.21043 0.43173 0.09119 0.0
C557 C 0.20713 0.42466 0.10288 0.0
C558 C 0.19589 0.43586 0.08455 0.0
C559 C 0.20231 0.45273 0.07808 0.0
C560 C 0.17544 0.42335 0.08502 0.0
C561 C 0.16183 0.42788 0.07949 0.0
C562 C 0.1683 0.44491 0.07323 0.0
C563 C 0.2603 0.43602 0.08722 0.0
C564 C 0.27869 0.44626 0.09448 0.0
C565 C 0.25958 0.42947 0.07478 0.0
C566 C 0.27688 0.4331 0.0697 0.0
C567 C 0.29533 0.4435 0.07692 0.0
C568 C 0.29602 0.45001 0.08938 0.0
C569 C 0.18866 0.45715 0.07243 0.0
H570 H 0.23901 0.42432 0.15132 0.0
H571 H 0.24605 0.4356 0.13084 0.0
H572 H 0.1872 0.39004 0.11573 0.0
H573 H 0.18027 0.37827 0.13606 0.0
H574 H 0.24896 0.42239 0.10934 0.0
H575 H 0.19405 0.42232 0.10709 0.0
H576 H 0.23052 0.44062 0.07706 0.0
H577 H 0.21793 0.46286 0.07768 0.0
H578 H 0.16992 0.41002 0.08969 0.0
H579 H 0.14619 0.41802 0.08007 0.0
H580 H 0.27972 0.45169 0.10407 0.0
H581 H 0.24558 0.42127 0.06901 0.0
H582 H 0.19406 0.47046 0.06775 0.0
H583 H 0.30999 0.45832 0.09516 0.0
H584 H 0.27574 0.42755 0.06013 0.0
C585 C 0.45716 0.91695 0.19527 0.0
C586 C 0.45278 0.93171 0.19231 0.0
C587 C 0.45451 0.91018 0.20696 0.0
C588 C 0.44745 0.91804 0.21599 0.0
C589 C 0.44265 0.9325 0.21295 0.0
C590 C 0.44527 0.93925 0.20122 0.0
C591 C 0.44545 0.91135 0.22858 0.0
C592 C 0.46012 0.90843 0.23447 0.0
C593 C 0.45824 0.90158 0.24622 0.0
C594 C 0.44158 0.89811 0.25222 0.0
C595 C 0.42679 0.90112 0.24655 0.0
C596 C 0.42885 0.90766 0.23469 0.0
C597 C 0.4091 0.89718 0.25293 0.0
C598 C 0.40029 0.88102 0.26002 0.0
C599 C 0.40087 0.90955 0.25201 0.0
C600 C 0.38422 0.9058 0.25796 0.0
C601 C 0.37559 0.88976 0.2651 0.0
C602 C 0.47348 0.89768 0.25209 0.0
C603 C 0.48231 0.88927 0.24487 0.0
C604 C 0.47913 0.90203 0.26492 0.0
C605 C 0.49306 0.89785 0.27041 0.0
C606 C 0.50185 0.88938 0.26319 0.0
C607 C 0.49638 0.88528 0.25034 0.0
C608 C 0.3838 0.87744 0.26609 0.0
H609 H 0.46263 0.91058 0.18852 0.0
H610 H 0.45795 0.89872 0.20891 0.0
H611 H 0.43734 0.93898 0.21974 0.0
H612 H 0.44194 0.95077 0.19925 0.0
H613 H 0.47322 0.91181 0.22994 0.0
H614 H 0.41723 0.90934 0.23003 0.0
H615 H 0.44005 0.89292 0.2613 0.0
H616 H 0.40593 0.87093 0.26074 0.0
H617 H 0.40744 0.92232 0.24681 0.0
H618 H 0.37828 0.91564 0.25715 0.0
H619 H 0.47816 0.88546 0.23498 0.0
H620 H 0.47286 0.90876 0.27076 0.0
H621 H 0.37725 0.8648 0.27141 0.0
H622 H 0.50302 0.87905 0.24444 0.0
H623 H 0.49671 0.90101 0.28036 0.0
C624 C 0.03898 0.50306 0.21319 0.0
C625 C 0.04463 0.51928 0.20624 0.0
C626 C 0.04477 0.50617 0.22593 0.0
C627 C 0.0565 0.52557 0.23194 0.0
C628 C 0.06219 0.54175 0.22492 0.0
C629 C 0.05624 0.53864 0.21224 0.0
C630 C 0.06317 0.52903 0.24542 0.0
C631 C 0.06914 0.51677 0.25089 0.0
C632 C 0.0763 0.52047 0.26351 0.0
C633 C 0.07772 0.53692 0.27062 0.0
C634 C 0.07206 0.54952 0.26528 0.0
C635 C 0.06438 0.54515 0.25276 0.0
C636 C 0.07519 0.56786 0.27255 0.0
C637 C 0.07211 0.56808 0.28515 0.0
C638 C 0.08205 0.58558 0.26695 0.0
C639 C 0.08581 0.60307 0.27376 0.0
C640 C 0.08301 0.60335 0.28638 0.0
C641 C 0.08285 0.50752 0.26912 0.0
C642 C 0.0723 0.48685 0.26583 0.0
C643 C 0.0998 0.51573 0.27773 0.0
C644 C 0.10598 0.50357 0.28295 0.0
C645 C 0.0955 0.4829 0.27961 0.0
C646 C 0.07859 0.4747 0.27097 0.0
C647 C 0.07609 0.58569 0.29202 0.0
H648 H 0.0299 0.48798 0.2088 0.0
H649 H 0.03992 0.49338 0.23107 0.0
H650 H 0.07158 0.55688 0.22916 0.0
H651 H 0.06108 0.55141 0.20707 0.0
H652 H 0.06893 0.50473 0.24521 0.0
H653 H 0.05934 0.55438 0.24869 0.0
H654 H 0.08358 0.54012 0.28028 0.0
H655 H 0.0666 0.55466 0.28972 0.0
H656 H 0.08504 0.58613 0.25735 0.0
H657 H 0.09149 0.61655 0.26923 0.0
H658 H 0.05906 0.47998 0.25933 0.0
H659 H 0.10847 0.53161 0.28035 0.0
H660 H 0.07369 0.58549 0.30172 0.0
H661 H 0.07028 0.45889 0.26805 0.0
H662 H 0.11891 0.51039 0.2897 0.0
C663 C 0.44072 0.51979 0.19862 0.0
C664 C 0.45863 0.52148 0.1956 0.0
C665 C 0.43776 0.52241 0.21097 0.0
C666 C 0.45276 0.52702 0.22052 0.0
C667 C 0.47066 0.52867 0.21751 0.0
C668 C 0.47352 0.52579 0.20517 0.0
C669 C 0.44983 0.53046 0.23358 0.0
C670 C 0.43227 0.51718 0.23834 0.0
C671 C 0.42916 0.5206 0.25061 0.0
C672 C 0.4437 0.53768 0.25806 0.0
C673 C 0.46125 0.55123 0.25339 0.0
C674 C 0.46435 0.54735 0.24119 0.0
C675 C 0.47582 0.56999 0.26099 0.0
C676 C 0.46943 0.58178 0.26718 0.0
C677 C 0.49617 0.57657 0.26176 0.0
C678 C 0.50987 0.5947 0.26854 0.0
C679 C 0.50347 0.60668 0.2745 0.0
C680 C 0.41059 0.50652 0.25559 0.0
C681 C 0.39218 0.49958 0.24871 0.0
C682 C 0.41114 0.50013 0.26731 0.0
C683 C 0.39363 0.4871 0.27209 0.0
C684 C 0.3752 0.48037 0.26529 0.0
C685 C 0.37464 0.48671 0.25354 0.0
C686 C 0.48312 0.59998 0.27382 0.0
H687 H 0.42897 0.51638 0.19142 0.0
H688 H 0.42387 0.5212 0.21304 0.0
H689 H 0.48241 0.53211 0.22471 0.0
H690 H 0.48753 0.52732 0.20308 0.0
H691 H 0.42114 0.50398 0.23255 0.0
H692 H 0.47768 0.55795 0.23744 0.0
H693 H 0.44123 0.5406 0.26747 0.0
H694 H 0.45385 0.57715 0.26665 0.0
H695 H 0.50146 0.56771 0.25711 0.0
H696 H 0.52549 0.59957 0.26887 0.0
H697 H 0.39132 0.50439 0.23968 0.0
H698 H 0.42515 0.50515 0.27277 0.0
H699 H 0.47779 0.60886 0.27841 0.0
H700 H 0.36064 0.48166 0.24808 0.0
H701 H 0.39448 0.48259 0.28121 0.0
C702 C 0.52678 0.012 0.03782 0.0
Eu703 Eu 0.51093 0.00948 0.01554 0.0
C704 C 0.5196 0.00714 0.04998 0.0
C705 C 0.53292 0.01579 0.0607 0.0
C706 C 0.52631 0.01116 0.07234 0.0
C707 C 0.50624 0.99773 0.07343 0.0
C708 C 0.4929 0.98922 0.06262 0.0
C709 C 0.49952 0.99393 0.051 0.0
C710 C 0.49361 0.03036 0.00844 0.0
C711 C 0.46441 0.97454 0.01222 0.0
C712 C 0.47112 0.99283 0.96769 0.0
Eu713 Eu 0.48761 0.99555 0.9898 0.0
C714 C 0.47745 0.99706 0.95528 0.0
C715 C 0.46326 0.98907 0.94495 0.0
C716 C 0.46898 0.99337 0.9331 0.0
C717 C 0.48901 0.00584 0.93139 0.0
C718 C 0.50322 0.01358 0.94181 0.0
C719 C 0.49748 0.00917 0.95365 0.0
C720 C 0.50488 0.97466 0.99698 0.0
C721 C 0.53461 0.02999 0.99313 0.0
O722 O 0.52116 0.99688 0.02947 0.0
O723 O 0.52573 0.02667 0.03337 0.0
O724 O 0.51059 0.03833 0.01507 0.0
O725 O 0.4861 0.01184 0.00655 0.0
O726 O 0.48199 0.9821 0.01856 0.0
O727 O 0.46227 0.98011 0.00128 0.0
O728 O 0.47754 0.0083 0.9759 0.0
O729 O 0.47206 0.97812 0.97216 0.0
O730 O 0.48789 0.96661 0.99035 0.0
O731 O 0.5123 0.99316 0.99878 0.0
O732 O 0.51713 0.02232 0.98656 0.0
O733 O 0.53641 0.02481 0.00425 0.0
H734 H 0.54844 0.02612 0.06008 0.0
H735 H 0.53691 0.01821 0.08049 0.0
H736 H 0.47741 0.97865 0.06311 0.0
H737 H 0.48899 0.98716 0.04282 0.0
H738 H 0.44774 0.97958 0.94606 0.0
H739 H 0.45769 0.98688 0.92527 0.0
H740 H 0.51874 0.02339 0.94086 0.0
H741 H 0.50865 0.01537 0.96154 0.0
C742 C 0.00145 0.52728 0.03733 0.0
Eu743 Eu 0.99774 0.50841 0.01585 0.0
C744 C 0.00521 0.52506 0.05032 0.0
C745 C 0.00326 0.5072 0.05376 0.0
C746 C 0.00617 0.50504 0.06624 0.0
C747 C 0.01127 0.52077 0.07547 0.0
C748 C 0.01368 0.53881 0.07187 0.0
C749 C 0.01057 0.54087 0.05941 0.0
C750 C 0.97199 0.46973 0.00816 0.0
C751 C 0.02767 0.49032 0.01583 0.0
C752 C 0.0005 0.47318 0.9698 0.0
Eu753 Eu 0.00494 0.49247 0.99124 0.0
C754 C 0.99581 0.47509 0.95687 0.0
C755 C 0.00057 0.49369 0.95308 0.0
C756 C 0.99648 0.49541 0.94069 0.0
C757 C 0.9873 0.47851 0.93195 0.0
C758 C 0.98209 0.45984 0.93585 0.0
C759 C 0.98642 0.45817 0.94822 0.0
C760 C 0.03067 0.53128 0.99875 0.0
C761 C 0.97523 0.5108 0.99127 0.0
O762 O 0.01617 0.532 0.03061 0.0
O763 O 0.98442 0.51353 0.03158 0.0
O764 O 0.96697 0.48121 0.01408 0.0
O765 O 0.99031 0.47869 0.00743 0.0
O766 O 0.02202 0.5017 0.02175 0.0
O767 O 0.02074 0.48245 0.00425 0.0
O768 O 0.9862 0.46818 0.9769 0.0
O769 O 0.01767 0.48721 0.97524 0.0
O770 O 0.03555 0.5199 0.99255 0.0
O771 O 0.0124 0.5222 0.99966 0.0
O772 O 0.98055 0.49908 0.98541 0.0
O773 O 0.98253 0.51895 0.00277 0.0
H774 H 0.9992 0.49486 0.04682 0.0
H775 H 0.00398 0.49088 0.06865 0.0
H776 H 0.01804 0.5514 0.07866 0.0
H777 H 0.01232 0.55482 0.05686 0.0
H778 H 0.00758 0.5069 0.95968 0.0
H779 H 0.00042 0.50992 0.93794 0.0
H780 H 0.97508 0.4466 0.92929 0.0
H781 H 0.9825 0.44369 0.95103 0.0
C782 C 0.46995 0.48331 0.9681 0.0
Eu783 Eu 0.48854 0.49809 0.99018 0.0
C784 C 0.4757 0.48307 0.95552 0.0
C785 C 0.46331 0.48232 0.94542 0.0
C786 C 0.46897 0.48295 0.93345 0.0
C787 C 0.48719 0.48442 0.93139 0.0
C788 C 0.49954 0.48508 0.94157 0.0
C789 C 0.49382 0.48436 0.95352 0.0
C790 C 0.50149 0.53496 0.00116 0.0
C791 C 0.53641 0.516 0.98951 0.0
C792 C 0.53391 0.52514 0.03637 0.0
Eu793 Eu 0.51596 0.50984 0.01425 0.0
C794 C 0.52736 0.52336 0.04882 0.0
C795 C 0.51174 0.50535 0.05182 0.0
C796 C 0.50504 0.50408 0.06352 0.0
C797 C 0.51365 0.52088 0.07231 0.0
C798 C 0.52922 0.5389 0.06928 0.0
C799 C 0.53607 0.5401 0.05762 0.0
C800 C 0.50279 0.47277 0.00338 0.0
C801 C 0.46806 0.49145 0.0151 0.0
O802 O 0.47406 0.4732 0.97572 0.0
O803 O 0.47395 0.50067 0.97328 0.0
O804 O 0.48373 0.52371 0.99562 0.0
O805 O 0.51172 0.52671 1.00013 0.0
O806 O 0.51833 0.50527 0.98366 0.0
O807 O 0.53953 0.52216 0.00143 0.0
O808 O 0.52769 0.53411 0.02912 0.0
O809 O 0.53285 0.50928 0.03069 0.0
O810 O 0.52044 0.48384 0.00913 0.0
O811 O 0.49273 0.48121 0.00433 0.0
O812 O 0.48611 0.50146 0.02104 0.0
O813 O 0.46488 0.48624 0.00303 0.0
H814 H 0.44928 0.48134 0.9468 0.0
H815 H 0.45898 0.48211 0.92579 0.0
H816 H 0.51377 0.48645 0.94034 0.0
H817 H 0.50361 0.48496 0.9612 0.0
H818 H 0.50457 0.49231 0.04509 0.0
H819 H 0.49289 0.49008 0.06562 0.0
H820 H 0.53612 0.55202 0.07594 0.0
H821 H 0.54798 0.55416 0.05541 0.0
C822 C 0.19675 0.34999 0.37121 0.0
Eu823 Eu 0.17955 0.3452 0.34897 0.0
C824 C 0.19006 0.34428 0.38337 0.0
C825 C 0.20384 0.35136 0.39389 0.0
C826 C 0.19756 0.34602 0.40552 0.0
C827 C 0.17737 0.33343 0.40679 0.0
C828 C 0.16361 0.32644 0.39617 0.0
C829 C 0.16991 0.33191 0.38459 0.0
C830 C 0.16454 0.36743 0.34075 0.0
C831 C 0.13238 0.31215 0.34757 0.0
C832 C 0.13661 0.32659 0.30223 0.0
Eu833 Eu 0.1539 0.32945 0.32404 0.0
C834 C 0.14299 0.33128 0.28986 0.0
C835 C 0.1585 0.32902 0.2858 0.0
C836 C 0.1647 0.3341 0.27412 0.0
C837 C 0.15565 0.34174 0.26637 0.0
C838 C 0.14028 0.34419 0.2706 0.0
C839 C 0.13398 0.33894 0.28222 0.0
C840 C 0.16919 0.30719 0.33182 0.0
C841 C 0.20158 0.36164 0.32526 0.0
O842 O 0.19304 0.33541 0.36288 0.0
O843 O 0.19298 0.36306 0.36675 0.0
O844 O 0.18223 0.375 0.34638 0.0
O845 O 0.15549 0.34878 0.34017 0.0
O846 O 0.15033 0.31941 0.35335 0.0
O847 O 0.12959 0.3166 0.33641 0.0
O848 O 0.1428 0.34193 0.3105 0.0
O849 O 0.13765 0.31185 0.30662 0.0
O850 O 0.15182 0.29963 0.32569 0.0
O851 O 0.17799 0.32587 0.33279 0.0
O852 O 0.18374 0.35359 0.31909 0.0
O853 O 0.20413 0.35835 0.33681 0.0
H854 H 0.21945 0.36105 0.39312 0.0
H855 H 0.20851 0.35192 0.41353 0.0
H856 H 0.148 0.31653 0.39677 0.0
H857 H 0.15903 0.32643 0.3766 0.0
H858 H 0.16585 0.32338 0.29165 0.0
H859 H 0.17645 0.33187 0.27114 0.0
H860 H 0.13327 0.35045 0.26502 0.0
H861 H 0.1222 0.34106 0.28529 0.0
C862 C 0.66509 0.85472 0.36883 0.0
Eu863 Eu 0.66278 0.83896 0.34656 0.0
C864 C 0.67027 0.85141 0.38129 0.0
C865 C 0.66662 0.83254 0.3839 0.0
C866 C 0.67218 0.82976 0.39572 0.0
C867 C 0.68178 0.84587 0.40498 0.0
C868 C 0.68556 0.86475 0.40231 0.0
C869 C 0.67977 0.86747 0.39054 0.0
C870 C 0.63799 0.80039 0.33771 0.0
C871 C 0.69372 0.82246 0.34625 0.0
C872 C 0.67035 0.81033 0.29991 0.0
Eu873 Eu 0.6717 0.82591 0.32203 0.0
C874 C 0.66733 0.81427 0.28713 0.0
C875 C 0.68179 0.81763 0.2791 0.0
C876 C 0.67941 0.82161 0.26699 0.0
C877 C 0.66236 0.82195 0.26267 0.0
C878 C 0.64788 0.81864 0.27067 0.0
C879 C 0.65045 0.81507 0.28287 0.0
C880 C 0.69659 0.86447 0.33079 0.0
C881 C 0.64078 0.8427 0.32247 0.0
O882 O 0.67961 0.86206 0.36186 0.0
O883 O 0.64855 0.84045 0.36284 0.0
O884 O 0.63231 0.81124 0.3437 0.0
O885 O 0.65641 0.80984 0.33741 0.0
O886 O 0.68856 0.83434 0.35201 0.0
O887 O 0.68613 0.81413 0.33483 0.0
O888 O 0.65512 0.80357 0.30635 0.0
O889 O 0.68683 0.82375 0.30638 0.0
O890 O 0.70214 0.85359 0.32473 0.0
O891 O 0.67817 0.85504 0.33116 0.0
O892 O 0.64618 0.83111 0.31653 0.0
O893 O 0.64805 0.85058 0.334 0.0
H894 H 0.65957 0.82 0.3768 0.0
H895 H 0.66924 0.8151 0.39759 0.0
H896 H 0.69284 0.87734 0.40936 0.0
H897 H 0.68284 0.88215 0.38864 0.0
H898 H 0.69495 0.81718 0.28221 0.0
H899 H 0.69068 0.82406 0.2609 0.0
H900 H 0.63464 0.81887 0.26747 0.0
H901 H 0.63916 0.81275 0.28891 0.0
C902 C 0.13801 0.81107 0.30135 0.0
Eu903 Eu 0.15427 0.82849 0.32347 0.0
C904 C 0.14412 0.81366 0.28874 0.0
C905 C 0.15425 0.8326 0.28461 0.0
C906 C 0.16032 0.83474 0.2727 0.0
C907 C 0.15662 0.81802 0.26482 0.0
C908 C 0.14655 0.79911 0.26901 0.0
C909 C 0.1403 0.79696 0.28086 0.0
C910 C 0.16892 0.86716 0.33146 0.0
C911 C 0.202 0.84494 0.32541 0.0
C912 C 0.19593 0.86003 0.37095 0.0
Eu913 Eu 0.17893 0.84235 0.34894 0.0
C914 C 0.19137 0.85747 0.38381 0.0
C915 C 0.17752 0.83888 0.3872 0.0
C916 C 0.17351 0.8367 0.39953 0.0
C917 C 0.18311 0.85314 0.40865 0.0
C918 C 0.1968 0.87179 0.4051 0.0
C919 C 0.20093 0.87388 0.3928 0.0
C920 C 0.16291 0.80318 0.34115 0.0
C921 C 0.13138 0.82647 0.34698 0.0
O922 O 0.14712 0.8049 0.30877 0.0
O923 O 0.13557 0.82503 0.30681 0.0
O924 O 0.15219 0.85642 0.32464 0.0
O925 O 0.17783 0.8576 0.3328 0.0
O926 O 0.18448 0.83407 0.31891 0.0
O927 O 0.20388 0.85244 0.33697 0.0
O928 O 0.18533 0.86515 0.36403 0.0
O929 O 0.19864 0.84646 0.36521 0.0
O930 O 0.17963 0.81342 0.34804 0.0
O931 O 0.15492 0.8135 0.33975 0.0
O932 O 0.14899 0.83781 0.35333 0.0
O933 O 0.12944 0.81825 0.3356 0.0
H934 H 0.1576 0.84577 0.29058 0.0
H935 H 0.16823 0.84949 0.26974 0.0
H936 H 0.14335 0.78596 0.26308 0.0
H937 H 0.13258 0.78225 0.2839 0.0
H938 H 0.16993 0.82604 0.38034 0.0
H939 H 0.16308 0.82209 0.40193 0.0
H940 H 0.20415 0.88486 0.41178 0.0
H941 H 0.21153 0.88837 0.39029 0.0
C942 C 0.86122 0.67631 0.7025 0.0
Eu943 Eu 0.84351 0.67229 0.68057 0.0
C944 C 0.85482 0.66983 0.71462 0.0
C945 C 0.86651 0.68143 0.72548 0.0
C946 C 0.86023 0.67573 0.73706 0.0
C947 C 0.84206 0.65841 0.73794 0.0
C948 C 0.83041 0.64682 0.72701 0.0
C949 C 0.83679 0.65245 0.71547 0.0
C950 C 0.82858 0.69465 0.67247 0.0
C951 C 0.79586 0.64021 0.67944 0.0
C952 C 0.80078 0.65249 0.6336 0.0
Eu953 Eu 0.81755 0.65622 0.65573 0.0
C954 C 0.80793 0.65733 0.62134 0.0
C955 C 0.81768 0.64846 0.61564 0.0
C956 C 0.82504 0.65389 0.60427 0.0
C957 C 0.82292 0.66838 0.59843 0.0
C958 C 0.81314 0.6772 0.60413 0.0
C959 C 0.80565 0.67167 0.61545 0.0
C960 C 0.83253 0.63397 0.66402 0.0
C961 C 0.86495 0.68876 0.65663 0.0
O962 O 0.85778 0.6623 0.69377 0.0
O963 O 0.85711 0.68947 0.69856 0.0
O964 O 0.84615 0.70219 0.67831 0.0
O965 O 0.81953 0.67598 0.67175 0.0
O966 O 0.81379 0.64739 0.68532 0.0
O967 O 0.79328 0.64429 0.66812 0.0
O968 O 0.80604 0.66774 0.64177 0.0
O969 O 0.80187 0.63801 0.63836 0.0
O970 O 0.81488 0.62636 0.65829 0.0
O971 O 0.84156 0.65261 0.66451 0.0
O972 O 0.84701 0.68068 0.65066 0.0
O973 O 0.86781 0.68553 0.66815 0.0
H974 H 0.88044 0.69495 0.725 0.0
H975 H 0.86944 0.68503 0.74532 0.0
H976 H 0.81648 0.63325 0.7274 0.0
H977 H 0.82767 0.64324 0.70719 0.0
H978 H 0.81984 0.63748 0.62 0.0
H979 H 0.83269 0.64699 0.60014 0.0
H980 H 0.8111 0.68825 0.59977 0.0
H981 H 0.79821 0.67873 0.61966 0.0
C982 C 0.32937 0.18324 0.70387 0.0
Eu983 Eu 0.32715 0.16842 0.68133 0.0
C984 C 0.33401 0.18003 0.71652 0.0
C985 C 0.3263 0.16082 0.7202 0.0
C986 C 0.33075 0.15824 0.73234 0.0
C987 C 0.34317 0.17479 0.74094 0.0
C988 C 0.35107 0.19395 0.73716 0.0
C989 C 0.34648 0.19654 0.72507 0.0
C990 C 0.30242 0.13069 0.67113 0.0
C991 C 0.35792 0.15149 0.67975 0.0
C992 C 0.33434 0.14305 0.63352 0.0
Eu993 Eu 0.3368 0.15787 0.65606 0.0
C994 C 0.33082 0.14731 0.6209 0.0
C995 C 0.34233 0.16627 0.61704 0.0
C996 C 0.33905 0.16981 0.60494 0.0
C997 C 0.32409 0.15452 0.59653 0.0
C998 C 0.31233 0.13568 0.6005 0.0
C999 C 0.31573 0.1321 0.61257 0.0
C1000 C 0.36165 0.19555 0.66631 0.0
C1001 C 0.30647 0.17538 0.65755 0.0
O1002 O 0.34413 0.19062 0.69706 0.0
O1003 O 0.31285 0.16921 0.6977 0.0
O1004 O 0.29678 0.14076 0.67799 0.0
O1005 O 0.32086 0.14028 0.67083 0.0
O1006 O 0.35158 0.16155 0.68644 0.0
O1007 O 0.35188 0.14568 0.66786 0.0
O1008 O 0.31928 0.13643 0.6401 0.0
O1009 O 0.35113 0.15592 0.63997 0.0
O1010 O 0.36723 0.18552 0.65935 0.0
O1011 O 0.3432 0.18598 0.66656 0.0
O1012 O 0.31311 0.16567 0.65081 0.0
O1013 O 0.31179 0.18045 0.66957 0.0
H1014 H 0.31682 0.14783 0.71373 0.0
H1015 H 0.32463 0.1433 0.73499 0.0
H1016 H 0.36053 0.20698 0.74362 0.0
H1017 H 0.3526 0.21146 0.72239 0.0
H1018 H 0.35394 0.17836 0.62332 0.0
H1019 H 0.34818 0.18452 0.60215 0.0
H1020 H 0.30082 0.12357 0.59418 0.0
H1021 H 0.30667 0.11738 0.61537 0.0
C1022 C 0.80858 0.15519 0.6349 0.0
Eu1023 Eu 0.82493 0.16547 0.65767 0.0
C1024 C 0.81533 0.15674 0.62251 0.0
C1025 C 0.83292 0.17335 0.61992 0.0
C1026 C 0.83923 0.17419 0.60811 0.0
C1027 C 0.82822 0.15827 0.59885 0.0
C1028 C 0.8107 0.14167 0.60151 0.0
C1029 C 0.80424 0.141 0.61323 0.0
C1030 C 0.84053 0.20151 0.67074 0.0
C1031 C 0.8721 0.17891 0.65867 0.0
C1032 C 0.86328 0.17893 0.70524 0.0
Eu1033 Eu 0.84833 0.17015 0.6822 0.0
C1034 C 0.85536 0.17931 0.71718 0.0
C1035 C 0.85376 0.16567 0.7255 0.0
C1036 C 0.84575 0.16538 0.73666 0.0
C1037 C 0.83939 0.17889 0.73978 0.0
C1038 C 0.84107 0.19262 0.7315 0.0
C1039 C 0.8489 0.19278 0.72028 0.0
C1040 C 0.83339 0.13463 0.66869 0.0
C1041 C 0.80161 0.15746 0.68127 0.0
O1042 O 0.81143 0.1433 0.64158 0.0
O1043 O 0.81259 0.17178 0.64129 0.0
O1044 O 0.82348 0.1928 0.6641 0.0
O1045 O 0.84896 0.19142 0.6696 0.0
O1046 O 0.85476 0.17142 0.65196 0.0
O1047 O 0.87396 0.18196 0.67087 0.0
O1048 O 0.86487 0.19228 0.69796 0.0
O1049 O 0.85651 0.16137 0.6992 0.0
O1050 O 0.85068 0.14367 0.67506 0.0
O1051 O 0.8245 0.14421 0.6702 0.0
O1052 O 0.81907 0.16571 0.68785 0.0
O1053 O 0.79947 0.1535 0.66914 0.0
H1054 H 0.84182 0.18559 0.62702 0.0
H1055 H 0.85286 0.18707 0.60627 0.0
H1056 H 0.80192 0.12931 0.59446 0.0
H1057 H 0.79063 0.12813 0.6151 0.0
H1058 H 0.85866 0.15516 0.72334 0.0
H1059 H 0.84485 0.15481 0.74295 0.0
H1060 H 0.83618 0.20312 0.73365 0.0
H1061 H 0.8498 0.20343 0.71404 0.0
H1062 H 0.32834 0.85365 0.07581 0.0
H1063 H 0.35829 0.8747 0.06606 0.0
H1064 H 0.32756 0.89939 0.04638 0.0
H1065 H 0.29759 0.87836 0.05607 0.0
H1066 H 0.34741 0.88621 0.0313 0.0
H1067 H 0.36019 0.92631 0.07003 0.0
H1068 H 0.36448 0.9335 0.09275 0.0
H1069 H 0.41239 0.92153 0.09516 0.0
H1070 H 0.40816 0.91391 0.07244 0.0
H1071 H 0.42628 0.96589 0.00684 0.0
H1072 H 0.39758 0.94449 0.01734 0.0
H1073 H 0.43392 0.93004 0.04093 0.0
H1074 H 0.46283 0.95207 0.03077 0.0
H1075 H 0.41153 0.93694 0.05431 0.0
H1076 H 0.39971 0.89659 0.01647 0.0
H1077 H 0.3961 0.88841 0.99386 0.0
H1078 H 0.34724 0.89881 0.98989 0.0
H1079 H 0.35072 0.90732 0.01248 0.0
C1080 C 0.32802 0.86361 0.06942 0.0
C1081 C 0.31067 0.8644 0.06669 0.0
C1082 C 0.34513 0.87569 0.06393 0.0
C1083 C 0.34512 0.88863 0.05555 0.0
C1084 C 0.32785 0.88951 0.05285 0.0
C1085 C 0.31081 0.8776 0.05844 0.0
C1086 C 0.36288 0.90077 0.04924 0.0
C1087 C 0.36139 0.89749 0.0363 0.0
C1088 C 0.38125 0.91491 0.05585 0.0
C1089 C 0.38368 0.91929 0.06953 0.0
C1090 C 0.37148 0.92497 0.0754 0.0
C1091 C 0.37394 0.92917 0.08828 0.0
C1092 C 0.38866 0.9279 0.09539 0.0
C1093 C 0.40097 0.92245 0.08963 0.0
C1094 C 0.39854 0.9182 0.07675 0.0
C1095 C 0.42811 0.95801 0.01419 0.0
C1096 C 0.44677 0.96061 0.01797 0.0
C1097 C 0.41168 0.94573 0.02017 0.0
C1098 C 0.41349 0.93541 0.02983 0.0
C1099 C 0.43213 0.93785 0.03352 0.0
C1100 C 0.44863 0.9504 0.02769 0.0
C1101 C 0.39608 0.92254 0.0363 0.0
C1102 C 0.39761 0.92562 0.04928 0.0
C1103 C 0.3778 0.90795 0.02975 0.0
C1104 C 0.37559 0.90276 0.01616 0.0
C1105 C 0.38828 0.89727 0.01077 0.0
C1106 C 0.38625 0.89255 0.99796 0.0
C1107 C 0.37148 0.89314 0.99044 0.0
C1108 C 0.35868 0.89839 0.99573 0.0
C1109 C 0.36067 0.90313 0.00853 0.0
H1110 H 0.36993 0.88949 0.98052 0.0
H1111 H 0.39056 0.93122 0.10535 0.0
H1112 H 0.13801 0.44539 0.08402 0.0
H1113 H 0.11413 0.45387 0.07508 0.0
H1114 H 0.14194 0.4643 0.04115 0.0
H1115 H 0.16618 0.4563 0.0502 0.0
H1116 H 0.13351 0.4921 0.04663 0.0
H1117 H 0.09752 0.42097 0.04423 0.0
H1118 H 0.08419 0.38819 0.05206 0.0
H1119 H 0.05163 0.40285 0.07683 0.0
H1120 H 0.06498 0.43585 0.06927 0.0
H1121 H 0.05192 0.47897 0.00572 0.0
H1122 H 0.07587 0.47225 0.01662 0.0
H1123 H 0.05901 0.48438 0.05167 0.0
H1124 H 0.03532 0.49169 0.04085 0.0
H1125 H 0.06134 0.44598 0.04639 0.0
H1126 H 0.0975 0.51748 0.04765 0.0
H1127 H 0.10976 0.54893 0.03826 0.0
H1128 H 0.14126 0.53188 0.01401 0.0
H1129 H 0.12886 0.50012 0.0231 0.0
C1130 C 0.13894 0.44939 0.07462 0.0
C1131 C 0.15385 0.45006 0.06776 0.0
C1132 C 0.12529 0.45422 0.06952 0.0
C1133 C 0.12602 0.45942 0.05736 0.0
C1134 C 0.14107 0.46033 0.05054 0.0
C1135 C 0.15489 0.45574 0.05571 0.0
C1136 C 0.11112 0.46392 0.05174 0.0
C1137 C 0.11775 0.4819 0.0465 0.0
C1138 C 0.09049 0.45079 0.05172 0.0
C1139 C 0.08242 0.43096 0.05627 0.0
C1140 C 0.08764 0.41726 0.05142 0.0
C1141 C 0.08006 0.39864 0.05579 0.0
C1142 C 0.06712 0.39346 0.06496 0.0
C1143 C 0.06168 0.40689 0.06975 0.0
C1144 C 0.06924 0.42555 0.06541 0.0
C1145 C 0.05326 0.48016 0.01575 0.0
C1146 C 0.04176 0.48584 0.02244 0.0
C1147 C 0.06695 0.47636 0.02194 0.0
C1148 C 0.06913 0.47785 0.03491 0.0
C1149 C 0.05746 0.48316 0.04164 0.0
C1150 C 0.04403 0.48739 0.03546 0.0
C1151 C 0.08383 0.47402 0.04135 0.0
C1152 C 0.07713 0.45617 0.04667 0.0
C1153 C 0.10435 0.48712 0.04132 0.0
C1154 C 0.11208 0.50633 0.03597 0.0
C1155 C 0.10688 0.52034 0.04023 0.0
C1156 C 0.11388 0.53824 0.03498 0.0
C1157 C 0.12624 0.54238 0.02552 0.0
C1158 C 0.13167 0.52864 0.02132 0.0
C1159 C 0.12466 0.51069 0.02653 0.0
H1160 H 0.13164 0.55624 0.02146 0.0
H1161 H 0.06126 0.37903 0.06833 0.0
H1162 H 0.59277 0.71628 0.05087 0.0
H1163 H 0.58125 0.68253 0.04176 0.0
H1164 H 0.52125 0.66606 0.04765 0.0
H1165 H 0.53283 0.69947 0.05759 0.0
H1166 H 0.5274 0.63737 0.05289 0.0
H1167 H 0.53924 0.6763 0.01872 0.0
H1168 H 0.55836 0.70408 0.00651 0.0
H1169 H 0.60148 0.68578 0.00345 0.0
H1170 H 0.58274 0.65803 0.01579 0.0
H1171 H 0.47969 0.55153 0.00814 0.0
H1172 H 0.4919 0.58459 0.01912 0.0
H1173 H 0.5518 0.59602 0.01991 0.0
H1174 H 0.53967 0.56289 0.00906 0.0
H1175 H 0.54581 0.62677 0.01143 0.0
H1176 H 0.53141 0.58597 0.04498 0.0
H1177 H 0.51024 0.55757 0.05618 0.0
H1178 H 0.46966 0.57903 0.0595 0.0
H1179 H 0.49028 0.60732 0.04802 0.0
C1180 C 0.57715 0.70544 0.05043 0.0
C1181 C 0.56374 0.71069 0.05495 0.0
C1182 C 0.57055 0.68618 0.04505 0.0
C1183 C 0.55032 0.67183 0.04381 0.0
C1184 C 0.53691 0.67691 0.04845 0.0
C1185 C 0.54354 0.69611 0.05399 0.0
C1186 C 0.54316 0.65159 0.03758 0.0
C1187 C 0.53123 0.63506 0.04376 0.0
C1188 C 0.5484 0.64855 0.02574 0.0
C1189 C 0.55968 0.6652 0.01829 0.0
C1190 C 0.55287 0.67828 0.01552 0.0
C1191 C 0.56363 0.69401 0.00857 0.0
C1192 C 0.58115 0.69672 0.00423 0.0
C1193 C 0.58792 0.68368 0.00683 0.0
C1194 C 0.57723 0.66794 0.01379 0.0
C1195 C 0.49545 0.56111 0.01067 0.0
C1196 C 0.50877 0.55476 0.00777 0.0
C1197 C 0.50237 0.5799 0.01697 0.0
C1198 C 0.52272 0.59263 0.02035 0.0
C1199 C 0.53605 0.58635 0.01737 0.0
C1200 C 0.52912 0.56747 0.01122 0.0
C1201 C 0.53011 0.6127 0.02674 0.0
C1202 C 0.54205 0.62915 0.02057 0.0
C1203 C 0.52464 0.61562 0.0385 0.0
C1204 C 0.51232 0.59869 0.04552 0.0
C1205 C 0.51788 0.58455 0.04798 0.0
C1206 C 0.506 0.56848 0.05441 0.0
C1207 C 0.48863 0.56649 0.05855 0.0
C1208 C 0.48311 0.58058 0.05628 0.0
C1209 C 0.49488 0.59663 0.04981 0.0
H1210 H 0.47948 0.55404 0.06354 0.0
H1211 H 0.58946 0.70891 0.99885 0.0
H1212 H 0.87407 0.29321 0.95075 0.0
H1213 H 0.89749 0.32564 0.9617 0.0
H1214 H 0.85382 0.34374 0.95748 0.0
H1215 H 0.83077 0.31185 0.94566 0.0
H1216 H 0.88786 0.37329 0.95412 0.0
H1217 H 0.86462 0.3284 0.98521 0.0
H1218 H 0.85723 0.29838 0.99532 0.0
H1219 H 0.91885 0.31605 0.9987 0.0
H1220 H 0.92658 0.34605 0.98846 0.0
H1221 H 0.93212 0.45282 0.00307 0.0
H1222 H 0.90925 0.42042 0.99141 0.0
H1223 H 0.9576 0.40955 0.98749 0.0
H1224 H 0.98059 0.44204 0.99897 0.0
H1225 H 0.92163 0.37687 0.99509 0.0
H1226 H 0.94397 0.42352 0.96441 0.0
H1227 H 0.94979 0.45433 0.95592 0.0
H1228 H 0.88752 0.43358 0.95306 0.0
H1229 H 0.88132 0.40285 0.96186 0.0
C1230 C 0.8695 0.30416 0.95194 0.0
C1231 C 0.85042 0.29978 0.94733 0.0
C1232 C 0.88286 0.32265 0.95838 0.0
C1233 C 0.87731 0.33703 0.96065 0.0
C1234 C 0.85841 0.33286 0.95592 0.0
C1235 C 0.84514 0.31448 0.94929 0.0
C1236 C 0.89114 0.35633 0.96804 0.0
C1237 C 0.89505 0.37402 0.96313 0.0
C1238 C 0.90074 0.35738 0.97977 0.0
C1239 C 0.89615 0.33937 0.98596 0.0
C1240 C 0.87658 0.32581 0.98803 0.0
C1241 C 0.87233 0.30881 0.99379 0.0
C1242 C 0.88755 0.30528 0.99762 0.0
C1243 C 0.90707 0.31878 0.99571 0.0
C1244 C 0.91139 0.33579 0.98994 0.0
C1245 C 0.93781 0.44343 0.99979 0.0
C1246 C 0.95805 0.44983 0.00187 0.0
C1247 C 0.92478 0.42502 0.99312 0.0
C1248 C 0.93183 0.41274 0.98857 0.0
C1249 C 0.95195 0.41888 0.99094 0.0
C1250 C 0.96502 0.43739 0.99746 0.0
C1251 C 0.91823 0.3936 0.98114 0.0
C1252 C 0.91441 0.37602 0.98605 0.0
C1253 C 0.90849 0.39267 0.96954 0.0
C1254 C 0.91219 0.41093 0.96392 0.0
C1255 C 0.93152 0.42557 0.96207 0.0
C1256 C 0.93489 0.44302 0.95719 0.0
C1257 C 0.91905 0.44591 0.95396 0.0
C1258 C 0.89978 0.43133 0.95557 0.0
C1259 C 0.89632 0.41389 0.96051 0.0
H1260 H 0.92171 0.45944 0.9502 0.0
H1261 H 0.88423 0.29211 0.00208 0.0
H1262 H 0.67454 0.55225 0.91782 0.0
H1263 H 0.64468 0.54578 0.92735 0.0
H1264 H 0.67094 0.54187 0.96233 0.0
H1265 H 0.70061 0.54786 0.95274 0.0
H1266 H 0.63431 0.51325 0.95855 0.0
H1267 H 0.66739 0.58356 0.95599 0.0
H1268 H 0.6835 0.61431 0.94576 0.0
H1269 H 0.62992 0.59447 0.92195 0.0
H1270 H 0.61355 0.56346 0.93194 0.0
H1271 H 0.57388 0.5272 0.99902 0.0
H1272 H 0.60207 0.5336 0.98765 0.0
H1273 H 0.56637 0.52227 0.9531 0.0
H1274 H 0.53792 0.51566 0.96441 0.0
H1275 H 0.60617 0.55767 0.95572 0.0
H1276 H 0.57304 0.48759 0.95966 0.0
H1277 H 0.55751 0.45818 0.97115 0.0
H1278 H 0.61248 0.47922 0.9937 0.0
H1279 H 0.62826 0.50897 0.98249 0.0
C1280 C 0.67396 0.55014 0.92756 0.0
C1281 C 0.68989 0.55061 0.93456 0.0
C1282 C 0.65692 0.54647 0.93301 0.0
C1283 C 0.65564 0.54359 0.94561 0.0
C1284 C 0.67155 0.54401 0.95259 0.0
C1285 C 0.68849 0.54743 0.94711 0.0
C1286 C 0.63765 0.53986 0.95151 0.0
C1287 C 0.62833 0.52311 0.95803 0.0
C1288 C 0.62952 0.55246 0.95063 0.0
C1289 C 0.63932 0.5711 0.94462 0.0
C1290 C 0.65909 0.58568 0.9485 0.0
C1291 C 0.66826 0.60317 0.94276 0.0
C1292 C 0.65776 0.60632 0.93319 0.0
C1293 C 0.63804 0.592 0.92936 0.0
C1294 C 0.62881 0.57447 0.93506 0.0
C1295 C 0.57203 0.5262 0.98901 0.0
C1296 C 0.55365 0.52083 0.9826 0.0
C1297 C 0.58813 0.5298 0.98254 0.0
C1298 C 0.58621 0.52828 0.96956 0.0
C1299 C 0.56808 0.52348 0.96312 0.0
C1300 C 0.55184 0.5196 0.96959 0.0
C1301 C 0.60313 0.53126 0.96279 0.0
C1302 C 0.61218 0.54782 0.95614 0.0
C1303 C 0.61116 0.51863 0.96366 0.0
C1304 C 0.60178 0.50061 0.9703 0.0
C1305 C 0.58178 0.48604 0.96713 0.0
C1306 C 0.57293 0.46929 0.97359 0.0
C1307 C 0.58399 0.46685 0.98317 0.0
C1308 C 0.60393 0.48114 0.98629 0.0
C1309 C 0.61283 0.49794 0.97988 0.0
H1310 H 0.57711 0.45388 0.98816 0.0
H1311 H 0.66488 0.61987 0.92876 0.0
H1312 H 0.44118 0.15377 0.97469 0.0
H1313 H 0.45179 0.13323 0.98499 0.0
H1314 H 0.41892 0.08543 0.95583 0.0
H1315 H 0.40897 0.10616 0.94507 0.0
H1316 H 0.41587 0.07496 0.98218 0.0
H1317 H 0.46303 0.10932 0.95299 0.0
H1318 H 0.48631 0.13914 0.94362 0.0
H1319 H 0.52107 0.16474 0.97883 0.0
H1320 H 0.49778 0.13517 0.98845 0.0
H1321 H 0.45906 0.01567 0.99351 0.0
H1322 H 0.44488 0.03437 0.98465 0.0
H1323 H 0.49211 0.08849 0.00487 0.0
H1324 H 0.50708 0.06996 0.01303 0.0
H1325 H 0.48707 0.09591 0.98317 0.0
H1326 H 0.44208 0.06283 0.0128 0.0
H1327 H 0.419 0.03439 0.02331 0.0
H1328 H 0.38045 0.00808 0.98945 0.0
H1329 H 0.40344 0.03625 0.97868 0.0
C1330 C 0.43626 0.13895 0.97039 0.0
C1331 C 0.42441 0.13177 0.95893 0.0
C1332 C 0.4422 0.12718 0.97637 0.0
C1333 C 0.43619 0.10791 0.97112 0.0
C1334 C 0.42361 0.10027 0.96003 0.0
C1335 C 0.41789 0.11214 0.95392 0.0
C1336 C 0.44414 0.09628 0.97682 0.0
C1337 C 0.43138 0.07933 0.98232 0.0
C1338 C 0.46446 0.10244 0.97726 0.0
C1339 C 0.47855 0.12014 0.97146 0.0
C1340 C 0.47553 0.12139 0.95875 0.0
C1341 C 0.48875 0.13823 0.95339 0.0
C1342 C 0.50513 0.15385 0.96063 0.0
C1343 C 0.50835 0.15264 0.97324 0.0
C1344 C 0.49516 0.13584 0.97865 0.0
C1345 C 0.46646 0.03157 0.99599 0.0
C1346 C 0.48429 0.04143 0.00382 0.0
C1347 C 0.4582 0.04223 0.99106 0.0
C1348 C 0.46724 0.06286 0.99421 0.0
C1349 C 0.48485 0.07262 0.00226 0.0
C1350 C 0.49336 0.06201 0.00697 0.0
C1351 C 0.45886 0.07441 0.9887 0.0
C1352 C 0.47155 0.09143 0.98316 0.0
C1353 C 0.43852 0.06847 0.98844 0.0
C1354 C 0.42458 0.05157 0.99491 0.0
C1355 C 0.42875 0.05092 0.00757 0.0
C1356 C 0.41567 0.03485 0.01358 0.0
C1357 C 0.39829 0.01941 0.00705 0.0
C1358 C 0.39393 0.02004 0.9945 0.0
C1359 C 0.40697 0.03606 0.98844 0.0
H1360 H 0.38819 0.00698 0.01171 0.0
H1361 H 0.51535 0.16688 0.95647 0.0
H1362 H 0.70651 0.12731 0.95499 0.0
H1363 H 0.67637 0.10738 0.96462 0.0
H1364 H 0.64405 0.12385 0.93908 0.0
H1365 H 0.67439 0.14488 0.92995 0.0
H1366 H 0.63349 0.1255 0.96093 0.0
H1367 H 0.64043 0.077 0.9361 0.0
H1368 H 0.65725 0.05962 0.92821 0.0
H1369 H 0.66382 0.04401 0.96462 0.0
H1370 H 0.64727 0.06153 0.97277 0.0
H1371 H 0.5373 0.04852 0.97219 0.0
H1372 H 0.56722 0.06927 0.9624 0.0
H1373 H 0.60256 0.06213 0.99134 0.0
H1374 H 0.57281 0.04139 0.00119 0.0
H1375 H 0.61084 0.0553 0.9674 0.0
H1376 H 0.60337 0.10454 0.99181 0.0
H1377 H 0.58524 0.12101 0.99884 0.0
H1378 H 0.57805 0.13402 0.96176 0.0
H1379 H 0.59591 0.11736 0.95447 0.0
C1380 C 0.69307 0.1269 0.95149 0.0
C1381 C 0.69294 0.1377 0.94164 0.0
C1382 C 0.67575 0.11525 0.95691 0.0
C1383 C 0.65783 0.11382 0.95245 0.0
C1384 C 0.65766 0.12462 0.94265 0.0
C1385 C 0.67501 0.13647 0.93734 0.0
C1386 C 0.63935 0.10138 0.95813 0.0
C1387 C 0.62841 0.11007 0.96217 0.0
C1388 C 0.63283 0.08131 0.95994 0.0
C1389 C 0.64278 0.07074 0.95507 0.0
C1390 C 0.6456 0.06999 0.94244 0.0
C1391 C 0.65506 0.06009 0.93792 0.0
C1392 C 0.66164 0.05076 0.94591 0.0
C1393 C 0.65874 0.05127 0.95844 0.0
C1394 C 0.6493 0.06116 0.96302 0.0
C1395 C 0.55144 0.0514 0.97649 0.0
C1396 C 0.55268 0.0433 0.98746 0.0
C1397 C 0.56851 0.06331 0.97091 0.0
C1398 C 0.58706 0.06724 0.97618 0.0
C1399 C 0.58835 0.05923 0.98714 0.0
C1400 C 0.57134 0.04747 0.99278 0.0
C1401 C 0.60516 0.07948 0.97019 0.0
C1402 C 0.61597 0.07073 0.9661 0.0
C1403 C 0.61141 0.09938 0.96819 0.0
C1404 C 0.6008 0.10953 0.97258 0.0
C1405 C 0.59779 0.11077 0.98514 0.0
C1406 C 0.58759 0.12017 0.98917 0.0
C1407 C 0.58045 0.12851 0.98074 0.0
C1408 C 0.58356 0.12753 0.96827 0.0
C1409 C 0.59373 0.11812 0.96419 0.0
H1410 H 0.57256 0.13578 0.98388 0.0
H1411 H 0.66896 0.0431 0.94239 0.0
H1412 H 0.86359 0.54923 0.91953 0.0
H1413 H 0.88769 0.54205 0.92963 0.0
H1414 H 0.86522 0.54332 0.96466 0.0
H1415 H 0.84045 0.54963 0.9546 0.0
H1416 H 0.90786 0.56568 0.96508 0.0
H1417 H 0.85193 0.50054 0.95086 0.0
H1418 H 0.8266 0.4749 0.93511 0.0
H1419 H 0.87212 0.47688 0.91413 0.0
H1420 H 0.89773 0.50277 0.92967 0.0
H1421 H 0.95305 0.52488 0.00137 0.0
H1422 H 0.92974 0.53236 0.99058 0.0
H1423 H 0.94288 0.51533 0.95545 0.0
H1424 H 0.96557 0.5069 0.96626 0.0
H1425 H 0.90565 0.5018 0.95431 0.0
H1426 H 0.96171 0.56564 0.96753 0.0
H1427 H 0.9883 0.59235 0.98217 0.0
H1428 H 0.94502 0.59479 0.00346 0.0
H1429 H 0.91816 0.56789 0.98904 0.0
C1430 C 0.86354 0.54773 0.92935 0.0
C1431 C 0.84991 0.5499 0.93621 0.0
C1432 C 0.87744 0.54377 0.93511 0.0
C1433 C 0.87814 0.54208 0.94786 0.0
C1434 C 0.86492 0.54464 0.9548 0.0
C1435 C 0.85084 0.54836 0.94903 0.0
C1436 C 0.89254 0.53742 0.95393 0.0
C1437 C 0.9073 0.55164 0.96286 0.0
C1438 C 0.89213 0.51939 0.95066 0.0
C1439 C 0.87674 0.50375 0.94136 0.0
C1440 C 0.85654 0.49564 0.94283 0.0
C1441 C 0.84213 0.48104 0.93395 0.0
C1442 C 0.84775 0.47431 0.9236 0.0
C1443 C 0.86779 0.48213 0.92213 0.0
C1444 C 0.88226 0.49676 0.93098 0.0
C1445 C 0.95103 0.52279 0.99135 0.0
C1446 C 0.96127 0.51548 0.98466 0.0
C1447 C 0.93776 0.52718 0.98517 0.0
C1448 C 0.93486 0.52488 0.97217 0.0
C1449 C 0.94492 0.51734 0.96548 0.0
C1450 C 0.95793 0.51257 0.97166 0.0
C1451 C 0.92108 0.53003 0.96561 0.0
C1452 C 0.90639 0.51592 0.95655 0.0
C1453 C 0.9218 0.54835 0.96859 0.0
C1454 C 0.93792 0.56463 0.97725 0.0
C1455 C 0.95786 0.57178 0.97538 0.0
C1456 C 0.97298 0.58697 0.98364 0.0
C1457 C 0.96835 0.59523 0.99376 0.0
C1458 C 0.94859 0.58836 0.99562 0.0
C1459 C 0.9334 0.57316 0.9874 0.0
H1460 H 0.98008 0.60699 1.00014 0.0
H1461 H 0.83657 0.463 0.91674 0.0
H1462 H 0.40754 0.29016 0.95472 0.0
H1463 H 0.4198 0.32405 0.96443 0.0
H1464 H 0.47969 0.33871 0.95977 0.0
H1465 H 0.46753 0.30494 0.95001 0.0
H1466 H 0.47419 0.35057 0.98382 0.0
H1467 H 0.45924 0.35487 0.94084 0.0
H1468 H 0.43789 0.34497 0.92109 0.0
H1469 H 0.39704 0.3573 0.93874 0.0
H1470 H 0.41801 0.36701 0.95865 0.0
H1471 H 0.52384 0.4549 0.99739 0.0
H1472 H 0.51101 0.4212 0.98737 0.0
H1473 H 0.45155 0.41133 0.98586 0.0
H1474 H 0.46444 0.44527 0.9955 0.0
H1475 H 0.45611 0.39647 0.96507 0.0
H1476 H 0.46972 0.39205 0.0078 0.0
H1477 H 0.4897 0.40121 0.02804 0.0
H1478 H 0.53105 0.38806 0.01181 0.0
H1479 H 0.51144 0.37906 0.99143 0.0
C1480 C 0.42331 0.30063 0.95581 0.0
C1481 C 0.4366 0.29501 0.95159 0.0
C1482 C 0.43027 0.31995 0.96129 0.0
C1483 C 0.45062 0.33384 0.96274 0.0
C1484 C 0.46393 0.32818 0.9587 0.0
C1485 C 0.45697 0.30896 0.95308 0.0
C1486 C 0.4581 0.35432 0.9685 0.0
C1487 C 0.47045 0.36072 0.97967 0.0
C1488 C 0.4527 0.36727 0.96322 0.0
C1489 C 0.44008 0.36145 0.95126 0.0
C1490 C 0.44561 0.35529 0.94054 0.0
C1491 C 0.4336 0.34976 0.92931 0.0
C1492 C 0.41609 0.35045 0.92867 0.0
C1493 C 0.41058 0.35674 0.93925 0.0
C1494 C 0.42254 0.36227 0.95051 0.0
C1495 C 0.50804 0.4455 0.99492 0.0
C1496 C 0.49509 0.45256 0.99728 0.0
C1497 C 0.50071 0.42624 0.98924 0.0
C1498 C 0.48026 0.41359 0.98606 0.0
C1499 C 0.46736 0.42079 0.98826 0.0
C1500 C 0.47472 0.44014 0.99379 0.0
C1501 C 0.47233 0.39286 0.98044 0.0
C1502 C 0.45985 0.38637 0.96928 0.0
C1503 C 0.4774 0.37972 0.98582 0.0
C1504 C 0.48921 0.38506 0.99807 0.0
C1505 C 0.48315 0.39125 0.00853 0.0
C1506 C 0.4944 0.39639 0.02003 0.0
C1507 C 0.51166 0.39527 0.0212 0.0
C1508 C 0.51769 0.38895 0.01089 0.0
C1509 C 0.5065 0.38381 0.99936 0.0
H1510 H 0.52035 0.39926 0.03011 0.0
H1511 H 0.40682 0.34617 0.91997 0.0
H1512 H 0.1715 0.70664 0.04251 0.0
H1513 H 0.14885 0.67415 0.03106 0.0
H1514 H 0.10469 0.66495 0.05581 0.0
H1515 H 0.12757 0.69719 0.06749 0.0
H1516 H 0.10555 0.63241 0.05195 0.0
H1517 H 0.10215 0.67765 0.02566 0.0
H1518 H 0.11483 0.7063 0.01344 0.0
H1519 H 0.14006 0.6801 0.99024 0.0
H1520 H 0.12775 0.65139 0.00244 0.0
H1521 H 0.02224 0.55587 0.01258 0.0
H1522 H 0.04574 0.58896 0.02307 0.0
H1523 H 0.09367 0.58647 0.0072 0.0
H1524 H 0.07033 0.55295 0.99708 0.0
H1525 H 0.09083 0.6243 0.00625 0.0
H1526 H 0.09191 0.57783 0.03333 0.0
H1527 H 0.07588 0.54883 0.04512 0.0
H1528 H 0.0519 0.57798 0.06692 0.0
H1529 H 0.06724 0.60687 0.05497 0.0
C1530 C 0.1569 0.69771 0.04543 0.0
C1531 C 0.15123 0.70442 0.05585 0.0
C1532 C 0.14395 0.67917 0.03888 0.0
C1533 C 0.12493 0.66718 0.04246 0.0
C1534 C 0.11928 0.67389 0.05288 0.0
C1535 C 0.13233 0.69231 0.05954 0.0
C1536 C 0.11102 0.64754 0.03545 0.0
C1537 C 0.1022 0.63074 0.04198 0.0
C1538 C 0.10676 0.64522 0.0224 0.0
C1539 C 0.11421 0.66247 0.01505 0.0
C1540 C 0.11054 0.67807 0.01802 0.0
C1541 C 0.11764 0.69431 0.01108 0.0
C1542 C 0.12829 0.69505 0.00109 0.0
C1543 C 0.13183 0.67952 0.99799 0.0
C1544 C 0.12479 0.66325 0.00491 0.0
C1545 C 0.03779 0.56235 0.01137 0.0
C1546 C 0.04456 0.55178 0.00421 0.0
C1547 C 0.05114 0.58124 0.01731 0.0
C1548 C 0.07137 0.58999 0.01593 0.0
C1549 C 0.07808 0.57986 0.00835 0.0
C1550 C 0.06477 0.56077 0.00262 0.0
C1551 C 0.08556 0.60946 0.02278 0.0
C1552 C 0.09434 0.62613 0.01622 0.0
C1553 C 0.0895 0.61171 0.0358 0.0
C1554 C 0.08053 0.59444 0.04313 0.0
C1555 C 0.08301 0.57796 0.04052 0.0
C1556 C 0.07404 0.56153 0.04724 0.0
C1557 C 0.06278 0.56151 0.05673 0.0
C1558 C 0.06053 0.57795 0.05953 0.0
C1559 C 0.06933 0.59435 0.05278 0.0
H1560 H 0.05585 0.54878 0.06192 0.0
H1561 H 0.13377 0.70763 0.99573 0.0
H1562 H 0.32741 0.44233 0.08755 0.0
H1563 H 0.35772 0.44944 0.07835 0.0
H1564 H 0.33519 0.46092 0.04462 0.0
H1565 H 0.3051 0.45429 0.05379 0.0
H1566 H 0.35047 0.43591 0.04065 0.0
H1567 H 0.36946 0.49861 0.06509 0.0
H1568 H 0.37454 0.51933 0.08455 0.0
H1569 H 0.41467 0.50229 0.10046 0.0
H1570 H 0.40961 0.48125 0.08114 0.0
H1571 H 0.43112 0.4832 0.00655 0.0
H1572 H 0.40281 0.47401 0.01829 0.0
H1573 H 0.43765 0.47667 0.05142 0.0
H1574 H 0.4664 0.48694 0.0398 0.0
H1575 H 0.41679 0.49169 0.05743 0.0
H1576 H 0.40093 0.43119 0.03436 0.0
H1577 H 0.39637 0.40848 0.01604 0.0
H1578 H 0.35097 0.41767 0.99922 0.0
H1579 H 0.35545 0.44067 0.01736 0.0
C1580 C 0.32899 0.44659 0.07822 0.0
C1581 C 0.31378 0.44772 0.07141 0.0
C1582 C 0.34629 0.45057 0.07298 0.0
C1583 C 0.34871 0.45579 0.06083 0.0
C1584 C 0.33356 0.45684 0.054 0.0
C1585 C 0.31633 0.45295 0.05924 0.0
C1586 C 0.36689 0.45999 0.05509 0.0
C1587 C 0.36497 0.44821 0.04424 0.0
C1588 C 0.38589 0.47544 0.06013 0.0
C1589 C 0.38897 0.48818 0.07171 0.0
C1590 C 0.37923 0.49915 0.07277 0.0
C1591 C 0.38213 0.51098 0.08377 0.0
C1592 C 0.39487 0.51207 0.09375 0.0
C1593 C 0.40478 0.50139 0.09274 0.0
C1594 C 0.4019 0.48953 0.08176 0.0
C1595 C 0.43273 0.48175 0.01633 0.0
C1596 C 0.45091 0.48562 0.02223 0.0
C1597 C 0.41649 0.47638 0.02303 0.0
C1598 C 0.41788 0.47413 0.0357 0.0
C1599 C 0.43613 0.47819 0.04165 0.0
C1600 C 0.45254 0.48401 0.035 0.0
C1601 C 0.40036 0.46794 0.04272 0.0
C1602 C 0.40237 0.47926 0.05385 0.0
C1603 C 0.38148 0.4517 0.03812 0.0
C1604 C 0.37863 0.43778 0.0272 0.0
C1605 C 0.39006 0.42848 0.02672 0.0
C1606 C 0.38748 0.41554 0.01637 0.0
C1607 C 0.37341 0.41167 0.00646 0.0
C1608 C 0.36186 0.42069 0.0069 0.0
C1609 C 0.3644 0.43366 0.01722 0.0
H1610 H 0.37144 0.40165 0.99846 0.0
H1611 H 0.3971 0.52125 0.10225 0.0
H1612 H 0.58616 0.87569 0.03447 0.0
H1613 H 0.57353 0.89436 0.02407 0.0
H1614 H 0.54535 0.8974 0.05636 0.0
H1615 H 0.55575 0.87663 0.06622 0.0
H1616 H 0.52227 0.89271 0.03864 0.0
H1617 H 0.59113 0.93805 0.04775 0.0
H1618 H 0.62697 0.95057 0.04839 0.0
H1619 H 0.62249 0.94549 0.00865 0.0
H1620 H 0.58655 0.93269 0.00777 0.0
H1621 H 0.53994 0.99002 0.0114 0.0
H1622 H 0.55312 0.97167 0.02196 0.0
H1623 H 0.50384 0.91634 0.00445 0.0
H1624 H 0.49001 0.93465 0.9945 0.0
H1625 H 0.56631 0.949 0.01597 0.0
H1626 H 0.49012 0.88035 0.02275 0.0
H1627 H 0.45629 0.87316 0.02574 0.0
H1628 H 0.47911 0.93376 0.04061 0.0
H1629 H 0.51305 0.94125 0.03783 0.0
C1630 C 0.57693 0.87991 0.03932 0.0
C1631 C 0.57213 0.87455 0.05129 0.0
C1632 C 0.57003 0.89101 0.03341 0.0
C1633 C 0.55882 0.89777 0.0395 0.0
C1634 C 0.55402 0.89249 0.05143 0.0
C1635 C 0.56035 0.88084 0.05718 0.0
C1636 C 0.55183 0.91005 0.03338 0.0
C1637 C 0.53197 0.90503 0.03372 0.0
C1638 C 0.56451 0.92657 0.02723 0.0
C1639 C 0.58612 0.93423 0.0277 0.0
C1640 C 0.59776 0.93947 0.03915 0.0
C1641 C 0.6181 0.94663 0.03955 0.0
C1642 C 0.62699 0.94878 0.02857 0.0
C1643 C 0.61557 0.9438 0.01715 0.0
C1644 C 0.59522 0.93661 0.0167 0.0
C1645 C 0.53185 0.9739 0.00988 0.0
C1646 C 0.51374 0.96368 0.00237 0.0
C1647 C 0.53949 0.96346 0.01584 0.0
C1648 C 0.52929 0.94259 0.01421 0.0
C1649 C 0.51171 0.93242 0.00614 0.0
C1650 C 0.50387 0.94285 0.00037 0.0
C1651 C 0.53681 0.93149 0.02115 0.0
C1652 C 0.5567 0.9367 0.02093 0.0
C1653 C 0.52449 0.91592 0.02803 0.0
C1654 C 0.50411 0.91139 0.02996 0.0
C1655 C 0.48792 0.89211 0.02671 0.0
C1656 C 0.46872 0.888 0.02834 0.0
C1657 C 0.46554 0.90302 0.0333 0.0
C1658 C 0.48157 0.92216 0.0367 0.0
C1659 C 0.50079 0.92635 0.03508 0.0
H1660 H 0.45067 0.89982 0.03454 0.0
H1661 H 0.64273 0.95433 0.0289 0.0
H1662 H 0.99759 0.18709 0.40997 0.0
H1663 H 0.02754 0.20984 0.40075 0.0
H1664 H 0.99537 0.2337 0.38178 0.0
H1665 H 0.96546 0.21106 0.39097 0.0
H1666 H 0.01665 0.22241 0.36647 0.0
H1667 H 0.02676 0.26036 0.40567 0.0
H1668 H 0.0304 0.26676 0.42842 0.0
H1669 H 0.08022 0.25774 0.43087 0.0
H1670 H 0.07667 0.25093 0.40812 0.0
H1671 H 0.09428 0.30383 0.34273 0.0
H1672 H 0.0658 0.28246 0.35341 0.0
H1673 H 0.10282 0.26909 0.37719 0.0
H1674 H 0.13151 0.29108 0.36685 0.0
H1675 H 0.07932 0.27432 0.39039 0.0
H1676 H 0.06991 0.2357 0.35212 0.0
H1677 H 0.0671 0.22844 0.32947 0.0
H1678 H 0.01686 0.23665 0.32537 0.0
H1679 H 0.01953 0.24422 0.348 0.0
C1680 C 0.99696 0.19723 0.40385 0.0
C1681 C 0.97924 0.19735 0.40117 0.0
C1682 C 0.01406 0.21027 0.39867 0.0
C1683 C 0.01364 0.22348 0.39065 0.0
C1684 C 0.99598 0.22364 0.38798 0.0
C1685 C 0.97896 0.21079 0.39327 0.0
C1686 C 0.03137 0.23661 0.38462 0.0
C1687 C 0.0303 0.23394 0.37167 0.0
C1688 C 0.04934 0.25112 0.39148 0.0
C1689 C 0.05129 0.25489 0.40518 0.0
C1690 C 0.03834 0.25948 0.41105 0.0
C1691 C 0.04042 0.26324 0.42395 0.0
C1692 C 0.0555 0.2626 0.43108 0.0
C1693 C 0.06852 0.25819 0.42533 0.0
C1694 C 0.06648 0.25438 0.41243 0.0
C1695 C 0.09633 0.29629 0.35021 0.0
C1696 C 0.11509 0.29905 0.35392 0.0
C1697 C 0.08002 0.28401 0.35629 0.0
C1698 C 0.08206 0.27383 0.36596 0.0
C1699 C 0.10085 0.27674 0.36974 0.0
C1700 C 0.11723 0.28929 0.36381 0.0
C1701 C 0.06461 0.26026 0.37217 0.0
C1702 C 0.06572 0.26277 0.38516 0.0
C1703 C 0.04675 0.24533 0.36537 0.0
C1704 C 0.04504 0.2407 0.35175 0.0
C1705 C 0.05835 0.23609 0.34638 0.0
C1706 C 0.05677 0.2319 0.33355 0.0
C1707 C 0.04184 0.23213 0.32598 0.0
C1708 C 0.02843 0.2365 0.33124 0.0
C1709 C 0.02996 0.24072 0.34407 0.0
H1710 H 0.04064 0.22889 0.31604 0.0
H1711 H 0.05713 0.26561 0.44106 0.0
H1712 H 0.79983 0.75413 0.39285 0.0
H1713 H 0.77606 0.76162 0.38247 0.0
H1714 H 0.80363 0.81862 0.40437 0.0
H1715 H 0.8274 0.81117 0.41486 0.0
H1716 H 0.76177 0.79818 0.40232 0.0
H1717 H 0.81444 0.81747 0.3761 0.0
H1718 H 0.83733 0.81231 0.3639 0.0
H1719 H 0.78806 0.76469 0.3407 0.0
H1720 H 0.76486 0.76937 0.35289 0.0
H1721 H 0.71879 0.84301 0.36707 0.0
H1722 H 0.74162 0.83536 0.37836 0.0
H1723 H 0.72223 0.78341 0.35237 0.0
H1724 H 0.69994 0.79147 0.34073 0.0
H1725 H 0.76008 0.8013 0.35688 0.0
H1726 H 0.70711 0.78142 0.38251 0.0
H1727 H 0.68352 0.78518 0.3948 0.0
H1728 H 0.73175 0.83193 0.4191 0.0
H1729 H 0.75567 0.82868 0.40683 0.0
C1730 C 0.80068 0.76817 0.39554 0.0
C1731 C 0.8155 0.78211 0.40462 0.0
C1732 C 0.78718 0.77246 0.38956 0.0
C1733 C 0.78821 0.79072 0.3926 0.0
C1734 C 0.80264 0.80446 0.40189 0.0
C1735 C 0.81627 0.80025 0.4078 0.0
C1736 C 0.77457 0.7957 0.38582 0.0
C1737 C 0.7615 0.79911 0.39241 0.0
C1738 C 0.77398 0.79641 0.37286 0.0
C1739 C 0.78792 0.79364 0.36549 0.0
C1740 C 0.80849 0.80579 0.36847 0.0
C1741 C 0.82152 0.80297 0.36154 0.0
C1742 C 0.81416 0.78815 0.35155 0.0
C1743 C 0.79374 0.77615 0.34845 0.0
C1744 C 0.78064 0.77888 0.35536 0.0
C1745 C 0.71938 0.82994 0.36376 0.0
C1746 C 0.70754 0.8178 0.35303 0.0
C1747 C 0.73236 0.82551 0.37028 0.0
C1748 C 0.7334 0.80859 0.36636 0.0
C1749 C 0.72167 0.79653 0.35559 0.0
C1750 C 0.70892 0.80114 0.34895 0.0
C1751 C 0.74703 0.80367 0.37332 0.0
C1752 C 0.7602 0.80033 0.36679 0.0
C1753 C 0.74754 0.80283 0.38631 0.0
C1754 C 0.73319 0.80491 0.39368 0.0
C1755 C 0.7127 0.79262 0.39041 0.0
C1756 C 0.69927 0.79465 0.39738 0.0
C1757 C 0.70614 0.80878 0.40772 0.0
C1758 C 0.72646 0.82099 0.41109 0.0
C1759 C 0.73996 0.81905 0.40413 0.0
H1760 H 0.69571 0.81019 0.41316 0.0
H1761 H 0.82427 0.78599 0.3462 0.0
H1762 H 0.25423 0.04835 0.37987 0.0
H1763 H 0.24304 0.01504 0.36976 0.0
H1764 H 0.18585 0.99381 0.38304 0.0
H1765 H 0.19705 0.02703 0.39336 0.0
H1766 H 0.19925 0.96737 0.38528 0.0
H1767 H 0.19098 0.0044 0.35418 0.0
H1768 H 0.20156 0.03271 0.34176 0.0
H1769 H 0.24538 0.02134 0.32762 0.0
H1770 H 0.23524 0.99312 0.3401 0.0
H1771 H 0.15136 0.88938 0.32877 0.0
H1772 H 0.16201 0.92233 0.33933 0.0
H1773 H 0.21249 0.92318 0.35818 0.0
H1774 H 0.20238 0.89055 0.34725 0.0
H1775 H 0.20034 0.95911 0.33977 0.0
H1776 H 0.21183 0.94182 0.38958 0.0
H1777 H 0.19903 0.91305 0.40172 0.0
H1778 H 0.14453 0.88375 0.37776 0.0
H1779 H 0.15675 0.91258 0.36573 0.0
C1780 C 0.23936 0.03653 0.38076 0.0
C1781 C 0.22648 0.04031 0.38735 0.0
C1782 C 0.23295 0.01755 0.37493 0.0
C1783 C 0.21357 0.00203 0.37557 0.0
C1784 C 0.20086 0.00561 0.38242 0.0
C1785 C 0.20721 0.02461 0.38821 0.0
C1786 C 0.20636 0.98225 0.36873 0.0
C1787 C 0.19953 0.96556 0.37534 0.0
C1788 C 0.20641 0.97988 0.35573 0.0
C1789 C 0.21248 0.99677 0.34817 0.0
C1790 C 0.20298 0.00804 0.34849 0.0
C1791 C 0.20888 0.02405 0.34143 0.0
C1792 C 0.22417 0.02885 0.33393 0.0
C1793 C 0.23356 0.01761 0.33345 0.0
C1794 C 0.22773 0.0016 0.34051 0.0
C1795 C 0.16483 0.89668 0.33508 0.0
C1796 C 0.17595 0.88738 0.33733 0.0
C1797 C 0.17087 0.91546 0.34107 0.0
C1798 C 0.18789 0.92499 0.34958 0.0
C1799 C 0.19921 0.9159 0.35171 0.0
C1800 C 0.1934 0.89729 0.3455 0.0
C1801 C 0.19367 0.94439 0.35636 0.0
C1802 C 0.20019 0.96097 0.34972 0.0
C1803 C 0.19303 0.94658 0.3693 0.0
C1804 C 0.18537 0.92927 0.37663 0.0
C1805 C 0.19709 0.92927 0.38693 0.0
C1806 C 0.18991 0.91296 0.39381 0.0
C1807 C 0.17103 0.89651 0.39047 0.0
C1808 C 0.1592 0.89643 0.3803 0.0
C1809 C 0.16625 0.91277 0.37345 0.0
H1810 H 0.16554 0.88387 0.39578 0.0
H1811 H 0.22872 0.04125 0.32846 0.0
H1812 H 0.53489 0.61592 0.29143 0.0
H1813 H 0.55851 0.64864 0.30251 0.0
H1814 H 0.52836 0.67445 0.28346 0.0
H1815 H 0.50474 0.64187 0.27242 0.0
H1816 H 0.56992 0.69643 0.28382 0.0
H1817 H 0.51988 0.66554 0.31178 0.0
H1818 H 0.49924 0.63899 0.32439 0.0
H1819 H 0.55144 0.64714 0.34536 0.0
H1820 H 0.57241 0.67356 0.33275 0.0
H1821 H 0.59798 0.77825 0.33761 0.0
H1822 H 0.57577 0.74488 0.32701 0.0
H1823 H 0.62578 0.74339 0.31362 0.0
H1824 H 0.64807 0.77667 0.3243 0.0
H1825 H 0.57452 0.70906 0.3295 0.0
H1826 H 0.60971 0.71849 0.2837 0.0
H1827 H 0.62886 0.74448 0.27033 0.0
H1828 H 0.60476 0.77953 0.28466 0.0
H1829 H 0.58531 0.75366 0.29802 0.0
C1830 C 0.53339 0.62861 0.28959 0.0
C1831 C 0.51796 0.62638 0.28113 0.0
C1832 C 0.54681 0.64723 0.29594 0.0
C1833 C 0.54509 0.6639 0.29382 0.0
C1834 C 0.5299 0.66175 0.28522 0.0
C1835 C 0.51637 0.64313 0.279 0.0
C1836 C 0.559 0.68362 0.3006 0.0
C1837 C 0.57102 0.69919 0.29381 0.0
C1838 C 0.5603 0.68718 0.31362 0.0
C1839 C 0.54771 0.67138 0.32124 0.0
C1840 C 0.52696 0.66155 0.31901 0.0
C1841 C 0.5152 0.64655 0.32617 0.0
C1842 C 0.52402 0.64134 0.33565 0.0
C1843 C 0.54463 0.65116 0.338 0.0
C1844 C 0.55645 0.66616 0.33086 0.0
C1845 C 0.60422 0.77075 0.33246 0.0
C1846 C 0.62469 0.78004 0.33171 0.0
C1847 C 0.59155 0.75171 0.32643 0.0
C1848 C 0.59913 0.74176 0.31946 0.0
C1849 C 0.61962 0.75091 0.31885 0.0
C1850 C 0.63232 0.76989 0.32496 0.0
C1851 C 0.58552 0.72189 0.31272 0.0
C1852 C 0.57357 0.70628 0.31952 0.0
C1853 C 0.58427 0.7183 0.2997 0.0
C1854 C 0.59621 0.73421 0.29194 0.0
C1855 C 0.60852 0.73176 0.284 0.0
C1856 C 0.61941 0.74646 0.27643 0.0
C1857 C 0.61803 0.76364 0.27665 0.0
C1858 C 0.60586 0.76623 0.28452 0.0
C1859 C 0.59493 0.75157 0.29212 0.0
H1860 H 0.62631 0.77485 0.27066 0.0
H1861 H 0.51489 0.62972 0.34118 0.0
H1862 H 0.36981 0.88257 0.28913 0.0
H1863 H 0.34054 0.87546 0.29956 0.0
H1864 H 0.31226 0.88041 0.26575 0.0
H1865 H 0.34179 0.88812 0.25541 0.0
H1866 H 0.3051 0.89767 0.2842 0.0
H1867 H 0.30051 0.83452 0.27608 0.0
H1868 H 0.31181 0.81015 0.27627 0.0
H1869 H 0.31831 0.817 0.31603 0.0
H1870 H 0.30729 0.84163 0.31608 0.0
H1871 H 0.20579 0.84411 0.30064 0.0
H1872 H 0.23579 0.85243 0.29067 0.0
H1873 H 0.26861 0.86425 0.32645 0.0
H1874 H 0.23877 0.85636 0.33653 0.0
H1875 H 0.27305 0.83836 0.30719 0.0
H1876 H 0.27684 0.90194 0.31445 0.0
H1877 H 0.26386 0.92488 0.31329 0.0
H1878 H 0.25675 0.915 0.27357 0.0
H1879 H 0.2694 0.89174 0.27451 0.0
C1880 C 0.35731 0.88209 0.28394 0.0
C1881 C 0.35799 0.88578 0.27146 0.0
C1882 C 0.34057 0.87798 0.28989 0.0
C1883 C 0.32403 0.87704 0.28338 0.0
C1884 C 0.32482 0.88103 0.27096 0.0
C1885 C 0.34168 0.88543 0.26506 0.0
C1886 C 0.3059 0.8719 0.28954 0.0
C1887 C 0.29799 0.88455 0.28908 0.0
C1888 C 0.29669 0.85492 0.29607 0.0
C1889 C 0.30326 0.84007 0.29608 0.0
C1890 C 0.30449 0.83094 0.28486 0.0
C1891 C 0.31082 0.81706 0.28493 0.0
C1892 C 0.31582 0.81207 0.29615 0.0
C1893 C 0.31445 0.8209 0.30734 0.0
C1894 C 0.30815 0.83481 0.30733 0.0
C1895 C 0.21939 0.84845 0.30639 0.0
C1896 C 0.21997 0.84964 0.31937 0.0
C1897 C 0.23649 0.85324 0.30068 0.0
C1898 C 0.25434 0.85898 0.30785 0.0
C1899 C 0.25492 0.85985 0.32079 0.0
C1900 C 0.23791 0.85543 0.32652 0.0
C1901 C 0.27245 0.86413 0.30182 0.0
C1902 C 0.28027 0.85146 0.30229 0.0
C1903 C 0.28137 0.88088 0.29515 0.0
C1904 C 0.27387 0.89493 0.29456 0.0
C1905 C 0.27233 0.90451 0.30547 0.0
C1906 C 0.26507 0.9176 0.30485 0.0
C1907 C 0.25943 0.92135 0.29336 0.0
C1908 C 0.26109 0.91206 0.28247 0.0
C1909 C 0.26832 0.89893 0.28304 0.0
H1910 H 0.25382 0.9315 0.2929 0.0
H1911 H 0.32072 0.80132 0.29618 0.0
H1912 H 0.13355 0.49087 0.28516 0.0
H1913 H 0.14441 0.47024 0.29503 0.0
H1914 H 0.08355 0.42457 0.29588 0.0
H1915 H 0.07255 0.44565 0.28672 0.0
H1916 H 0.10307 0.42918 0.31696 0.0
H1917 H 0.11415 0.42065 0.27495 0.0
H1918 H 0.12685 0.43052 0.25485 0.0
H1919 H 0.18651 0.46003 0.27235 0.0
H1920 H 0.17418 0.4506 0.29259 0.0
H1921 H 0.12657 0.35457 0.33149 0.0
H1922 H 0.11416 0.37339 0.32058 0.0
H1923 H 0.17297 0.42468 0.32498 0.0
H1924 H 0.18545 0.40596 0.33593 0.0
H1925 H 0.1535 0.41563 0.30072 0.0
H1926 H 0.14102 0.4243 0.34298 0.0
H1927 H 0.12734 0.41258 0.36258 0.0
H1928 H 0.06865 0.38034 0.34354 0.0
H1929 H 0.08202 0.39165 0.32379 0.0
C1930 C 0.12244 0.47653 0.28755 0.0
C1931 C 0.10215 0.46997 0.28515 0.0
C1932 C 0.12869 0.4646 0.29303 0.0
C1933 C 0.1148 0.4457 0.29603 0.0
C1934 C 0.09455 0.43906 0.2936 0.0
C1935 C 0.08828 0.45107 0.28824 0.0
C1936 C 0.12141 0.43321 0.30215 0.0
C1937 C 0.11386 0.42596 0.31327 0.0
C1938 C 0.13574 0.42924 0.29748 0.0
C1939 C 0.14321 0.43509 0.28532 0.0
C1940 C 0.12997 0.4294 0.27454 0.0
C1941 C 0.13711 0.4349 0.26312 0.0
C1942 C 0.15747 0.44596 0.26233 0.0
C1943 C 0.17074 0.4515 0.27297 0.0
C1944 C 0.16369 0.44608 0.28442 0.0
C1945 C 0.13681 0.36989 0.33016 0.0
C1946 C 0.15693 0.37888 0.33455 0.0
C1947 C 0.12971 0.38059 0.32395 0.0
C1948 C 0.14266 0.40042 0.32203 0.0
C1949 C 0.16278 0.40938 0.32638 0.0
C1950 C 0.16985 0.39874 0.33268 0.0
C1951 C 0.13524 0.41184 0.31548 0.0
C1952 C 0.14264 0.41883 0.30431 0.0
C1953 C 0.12061 0.41536 0.32 0.0
C1954 C 0.11255 0.40866 0.33189 0.0
C1955 C 0.12522 0.41458 0.34296 0.0
C1956 C 0.11751 0.40804 0.3541 0.0
C1957 C 0.09714 0.39568 0.3543 0.0
C1958 C 0.08443 0.38989 0.34337 0.0
C1959 C 0.09206 0.39637 0.3322 0.0
H1960 H 0.09121 0.39063 0.36294 0.0
H1961 H 0.16297 0.4502 0.25348 0.0
H1962 H 0.34231 0.4839 0.26587 0.0
H1963 H 0.31222 0.46296 0.27549 0.0
H1964 H 0.33613 0.42626 0.28632 0.0
H1965 H 0.36626 0.44711 0.27667 0.0
H1966 H 0.29575 0.40437 0.27655 0.0
H1967 H 0.33911 0.45917 0.30717 0.0
H1968 H 0.36045 0.4946 0.3149 0.0
H1969 H 0.31128 0.50407 0.30855 0.0
H1970 H 0.28971 0.46872 0.3006 0.0
H1971 H 0.24022 0.38314 0.3352 0.0
H1972 H 0.26929 0.4028 0.32449 0.0
H1973 H 0.23188 0.38783 0.29018 0.0
H1974 H 0.20269 0.368 0.30078 0.0
H1975 H 0.2794 0.43517 0.31183 0.0
H1976 H 0.25676 0.3825 0.26694 0.0
H1977 H 0.23577 0.34675 0.25983 0.0
H1978 H 0.24498 0.33226 0.29614 0.0
H1979 H 0.26616 0.3679 0.30343 0.0
C1980 C 0.34104 0.47122 0.27017 0.0
C1981 C 0.35662 0.46715 0.27057 0.0
C1982 C 0.32391 0.45935 0.2757 0.0
C1983 C 0.32205 0.44316 0.28166 0.0
C1984 C 0.33733 0.4387 0.28176 0.0
C1985 C 0.35455 0.45068 0.27634 0.0
C1986 C 0.30451 0.43137 0.28822 0.0
C1987 C 0.29213 0.41109 0.28424 0.0
C1988 C 0.29994 0.44014 0.29832 0.0
C1989 C 0.31285 0.46135 0.30318 0.0
C1990 C 0.33289 0.46884 0.30733 0.0
C1991 C 0.34502 0.4889 0.31176 0.0
C1992 C 0.33724 0.50159 0.31219 0.0
C1993 C 0.31729 0.49423 0.3082 0.0
C1994 C 0.30511 0.47418 0.30374 0.0
C1995 C 0.23814 0.38401 0.32538 0.0
C1996 C 0.21914 0.37393 0.31884 0.0
C1997 C 0.25477 0.39532 0.31929 0.0
C1998 C 0.25273 0.39664 0.30654 0.0
C1999 C 0.23378 0.38682 0.30001 0.0
C2000 C 0.21712 0.37555 0.3061 0.0
C2001 C 0.27051 0.40818 0.3001 0.0
C2002 C 0.28295 0.42845 0.3041 0.0
C2003 C 0.2752 0.39935 0.29009 0.0
C2004 C 0.26291 0.37786 0.28574 0.0
C2005 C 0.25438 0.37167 0.27338 0.0
C2006 C 0.24243 0.35143 0.26933 0.0
C2007 C 0.23901 0.33725 0.27754 0.0
C2008 C 0.24759 0.34326 0.2898 0.0
C2009 C 0.25955 0.36348 0.2939 0.0
H2010 H 0.22973 0.32159 0.27438 0.0
H2011 H 0.34665 0.51711 0.31563 0.0
H2012 H 0.50628 0.85725 0.25708 0.0
H2013 H 0.5304 0.84966 0.26652 0.0
H2014 H 0.55395 0.90233 0.29245 0.0
H2015 H 0.53068 0.91075 0.28254 0.0
H2016 H 0.58304 0.89898 0.28474 0.0
H2017 H 0.52228 0.85461 0.30052 0.0
H2018 H 0.487 0.82898 0.29939 0.0
H2019 H 0.49819 0.78761 0.27861 0.0
H2020 H 0.53351 0.81309 0.27946 0.0
H2021 H 0.6324 0.87165 0.32963 0.0
H2022 H 0.6092 0.87946 0.3189 0.0
H2023 H 0.59426 0.83244 0.28991 0.0
H2024 H 0.61752 0.82453 0.30056 0.0
H2025 H 0.56115 0.83258 0.29886 0.0
H2026 H 0.62286 0.87794 0.28403 0.0
H2027 H 0.65812 0.9039 0.28628 0.0
H2028 H 0.64481 0.9439 0.30676 0.0
H2029 H 0.60949 0.91806 0.30479 0.0
C2030 C 0.51676 0.86742 0.26467 0.0
C2031 C 0.51646 0.88463 0.26904 0.0
C2032 C 0.53039 0.86289 0.27018 0.0
C2033 C 0.54379 0.87523 0.28035 0.0
C2034 C 0.54369 0.89252 0.28466 0.0
C2035 C 0.53021 0.89719 0.27906 0.0
C2036 C 0.55796 0.87017 0.28644 0.0
C2037 C 0.57819 0.88454 0.28796 0.0
C2038 C 0.55173 0.8512 0.29045 0.0
C2039 C 0.53051 0.83582 0.28995 0.0
C2040 C 0.51719 0.84009 0.29562 0.0
C2041 C 0.49719 0.82558 0.29505 0.0
C2042 C 0.49035 0.80669 0.28891 0.0
C2043 C 0.50351 0.80226 0.28335 0.0
C2044 C 0.52352 0.81672 0.28388 0.0
C2045 C 0.6242 0.86296 0.32097 0.0
C2046 C 0.62684 0.84749 0.31593 0.0
C2047 C 0.61101 0.8675 0.31484 0.0
C2048 C 0.60015 0.8566 0.30359 0.0
C2049 C 0.60257 0.84103 0.29858 0.0
C2050 C 0.61591 0.8366 0.30465 0.0
C2051 C 0.58609 0.86139 0.29715 0.0
C2052 C 0.56592 0.84698 0.29558 0.0
C2053 C 0.59234 0.88039 0.29325 0.0
C2054 C 0.61355 0.896 0.29436 0.0
C2055 C 0.62747 0.89222 0.2891 0.0
C2056 C 0.64747 0.90692 0.29031 0.0
C2057 C 0.65371 0.92552 0.29668 0.0
C2058 C 0.63996 0.92948 0.30183 0.0
C2059 C 0.61995 0.91481 0.30066 0.0
H2060 H 0.6692 0.93688 0.29761 0.0
H2061 H 0.47486 0.79548 0.28847 0.0
H2062 H 0.07297 0.63071 0.28007 0.0
H2063 H 0.0846 0.66368 0.29083 0.0
H2064 H 0.1166 0.652 0.31962 0.0
H2065 H 0.10472 0.61881 0.30897 0.0
H2066 H 0.10066 0.67264 0.3293 0.0
H2067 H 0.14001 0.67807 0.2962 0.0
H2068 H 0.14642 0.67317 0.27473 0.0
H2069 H 0.11915 0.70608 0.26263 0.0
H2070 H 0.11229 0.71091 0.28401 0.0
H2071 H 0.17537 0.77716 0.34651 0.0
H2072 H 0.1594 0.74177 0.33874 0.0
H2073 H 0.11334 0.7461 0.31793 0.0
H2074 H 0.12865 0.78111 0.32606 0.0
H2075 H 0.13675 0.72937 0.30479 0.0
H2076 H 0.09745 0.72341 0.33853 0.0
H2077 H 0.09238 0.72861 0.36028 0.0
H2078 H 0.12186 0.6973 0.37146 0.0
H2079 H 0.1274 0.6922 0.34978 0.0
C2080 C 0.08235 0.63513 0.28875 0.0
C2081 C 0.08813 0.62232 0.29362 0.0
C2082 C 0.08899 0.65395 0.29488 0.0
C2083 C 0.10181 0.66044 0.30589 0.0
C2084 C 0.10678 0.6473 0.31112 0.0
C2085 C 0.09998 0.62836 0.30503 0.0
C2086 C 0.11087 0.6813 0.31153 0.0
C2087 C 0.10873 0.68503 0.32397 0.0
C2088 C 0.12129 0.6975 0.30456 0.0
C2089 C 0.12545 0.69467 0.29169 0.0
C2090 C 0.13523 0.68413 0.28895 0.0
C2091 C 0.13897 0.68137 0.27679 0.0
C2092 C 0.13315 0.68926 0.26732 0.0
C2093 C 0.12362 0.69995 0.26998 0.0
C2094 C 0.11981 0.7027 0.28211 0.0
C2095 C 0.16176 0.77049 0.34035 0.0
C2096 C 0.15334 0.78187 0.33675 0.0
C2097 C 0.15266 0.75034 0.33596 0.0
C2098 C 0.13524 0.74146 0.32779 0.0
C2099 C 0.12679 0.75277 0.32423 0.0
C2100 C 0.13561 0.77275 0.32883 0.0
C2101 C 0.12632 0.72059 0.32244 0.0
C2102 C 0.12863 0.71692 0.31007 0.0
C2103 C 0.11629 0.70453 0.32951 0.0
C2104 C 0.1131 0.70768 0.34256 0.0
C2105 C 0.10309 0.71787 0.34565 0.0
C2106 C 0.10006 0.72073 0.35796 0.0
C2107 C 0.10686 0.71336 0.36726 0.0
C2108 C 0.11665 0.70305 0.36425 0.0
C2109 C 0.11973 0.70016 0.35195 0.0
H2110 H 0.10449 0.71557 0.37678 0.0
H2111 H 0.13607 0.68712 0.25791 0.0
H2112 H 0.83726 0.03872 0.37475 0.0
H2113 H 0.81344 0.00676 0.36314 0.0
H2114 H 0.7717 0.99734 0.38973 0.0
H2115 H 0.79568 0.02909 0.40152 0.0
H2116 H 0.77218 0.96463 0.38465 0.0
H2117 H 0.76662 0.0108 0.36032 0.0
H2118 H 0.77824 0.03994 0.34857 0.0
H2119 H 0.80122 0.01437 0.32302 0.0
H2120 H 0.78997 0.98518 0.33472 0.0
H2121 H 0.68737 0.8879 0.34528 0.0
H2122 H 0.71039 0.92089 0.35618 0.0
H2123 H 0.75879 0.92064 0.33949 0.0
H2124 H 0.73604 0.88724 0.32906 0.0
H2125 H 0.75391 0.95786 0.3394 0.0
H2126 H 0.75896 0.91144 0.36481 0.0
H2127 H 0.74536 0.8822 0.37652 0.0
H2128 H 0.72121 0.90883 0.40032 0.0
H2129 H 0.73413 0.93797 0.38849 0.0
C2130 C 0.82293 0.02989 0.37805 0.0
C2131 C 0.8183 0.03638 0.38902 0.0
C2132 C 0.80931 0.01165 0.3714 0.0
C2133 C 0.79065 0.99973 0.37547 0.0
C2134 C 0.786 0.00624 0.38642 0.0
C2135 C 0.7997 0.02437 0.39314 0.0
C2136 C 0.77614 0.98029 0.36845 0.0
C2137 C 0.76801 0.96325 0.37479 0.0
C2138 C 0.77084 0.97837 0.35554 0.0
C2139 C 0.77762 0.99589 0.34847 0.0
C2140 C 0.77429 0.01146 0.35225 0.0
C2141 C 0.78079 0.02797 0.34559 0.0
C2142 C 0.79051 0.02903 0.33507 0.0
C2143 C 0.79371 0.01354 0.33118 0.0
C2144 C 0.78726 0.997 0.33782 0.0
C2145 C 0.70293 0.89483 0.34401 0.0
C2146 C 0.71003 0.88492 0.33653 0.0
C2147 C 0.716 0.91367 0.35017 0.0
C2148 C 0.73622 0.92302 0.34865 0.0
C2149 C 0.74321 0.91355 0.34076 0.0
C2150 C 0.73023 0.89451 0.33485 0.0
C2151 C 0.75019 0.94246 0.35562 0.0
C2152 C 0.75814 0.95941 0.34927 0.0
C2153 C 0.75511 0.94434 0.36853 0.0
C2154 C 0.74727 0.92678 0.37563 0.0
C2155 C 0.75047 0.91093 0.37241 0.0
C2156 C 0.74292 0.89438 0.37909 0.0
C2157 C 0.73235 0.89362 0.38913 0.0
C2158 C 0.72933 0.9094 0.39251 0.0
C2159 C 0.73673 0.92592 0.3858 0.0
H2160 H 0.7266 0.88083 0.39432 0.0
H2161 H 0.79553 0.04182 0.32993 0.0
H2162 H 0.96019 0.76076 0.38659 0.0
H2163 H 0.98956 0.76907 0.37615 0.0
H2164 H 0.02514 0.81753 0.40457 0.0
H2165 H 0.9956 0.81025 0.41458 0.0
H2166 H 0.03638 0.82924 0.38342 0.0
H2167 H 0.02408 0.77168 0.4032 0.0
H2168 H 0.00471 0.73736 0.40861 0.0
H2169 H 0.99631 0.71483 0.37036 0.0
H2170 H 0.01542 0.74905 0.3647 0.0
H2171 H 0.12946 0.84237 0.36963 0.0
H2172 H 0.09989 0.83433 0.3799 0.0
H2173 H 0.06331 0.79219 0.34866 0.0
H2174 H 0.0928 0.80001 0.33832 0.0
H2175 H 0.05302 0.77736 0.37127 0.0
H2176 H 0.06622 0.83636 0.35206 0.0
H2177 H 0.08783 0.87094 0.34769 0.0
H2178 H 0.09657 0.89098 0.38643 0.0
H2179 H 0.0752 0.85647 0.39105 0.0
C2180 C 0.97418 0.77338 0.39055 0.0
C2181 C 0.97545 0.78479 0.40148 0.0
C2182 C 0.99106 0.77793 0.38465 0.0
C2183 C 0.00966 0.7937 0.38969 0.0
C2184 C 0.01098 0.80522 0.40053 0.0
C2185 C 0.99407 0.80087 0.40634 0.0
C2186 C 0.02773 0.79833 0.3836 0.0
C2187 C 0.04011 0.81791 0.38092 0.0
C2188 C 0.03253 0.78354 0.38014 0.0
C2189 C 0.02102 0.76294 0.38352 0.0
C2190 C 0.01797 0.75941 0.39593 0.0
C2191 C 0.00706 0.73998 0.39904 0.0
C2192 C 0.99924 0.72393 0.38983 0.0
C2193 C 0.00235 0.72728 0.37748 0.0
C2194 C 0.01324 0.74669 0.37432 0.0
C2195 C 0.11514 0.8314 0.36492 0.0
C2196 C 0.11348 0.82186 0.35313 0.0
C2197 C 0.09826 0.82686 0.3708 0.0
C2198 C 0.07943 0.81278 0.36499 0.0
C2199 C 0.07773 0.80311 0.35328 0.0
C2200 C 0.09459 0.80768 0.34737 0.0
C2201 C 0.06149 0.80815 0.37112 0.0
C2202 C 0.04918 0.7886 0.37378 0.0
C2203 C 0.05691 0.823 0.37471 0.0
C2204 C 0.06923 0.84382 0.3719 0.0
C2205 C 0.07281 0.84814 0.35965 0.0
C2206 C 0.08501 0.86772 0.35713 0.0
C2207 C 0.09361 0.88314 0.36678 0.0
C2208 C 0.08992 0.87902 0.37896 0.0
C2209 C 0.07774 0.85945 0.38154 0.0
H2210 H 0.10309 0.89829 0.36481 0.0
H2211 H 0.9908 0.70889 0.39225 0.0
H2212 H 0.25278 0.22981 0.39468 0.0
H2213 H 0.24224 0.25028 0.38412 0.0
H2214 H 0.20395 0.20009 0.35733 0.0
H2215 H 0.21503 0.17979 0.36765 0.0
H2216 H 0.22031 0.23181 0.34599 0.0
H2217 H 0.18645 0.21492 0.38229 0.0
H2218 H 0.18288 0.21199 0.40454 0.0
H2219 H 0.21793 0.27545 0.41245 0.0
H2220 H 0.22198 0.27874 0.39026 0.0
H2221 H 0.15254 0.2669 0.32961 0.0
H2222 H 0.16646 0.24767 0.33834 0.0
H2223 H 0.21862 0.30204 0.354 0.0
H2224 H 0.20525 0.32136 0.34481 0.0
H2225 H 0.19524 0.26866 0.37069 0.0
H2226 H 0.22816 0.28409 0.33326 0.0
H2227 H 0.22887 0.28525 0.3107 0.0
H2228 H 0.19162 0.22178 0.30475 0.0
H2229 H 0.19042 0.22029 0.32729 0.0
C2230 C 0.24218 0.22321 0.38651 0.0
C2231 C 0.23461 0.20322 0.38201 0.0
C2232 C 0.2361 0.23487 0.38051 0.0
C2233 C 0.22197 0.22662 0.37007 0.0
C2234 C 0.21482 0.20678 0.36537 0.0
C2235 C 0.22115 0.1952 0.37126 0.0
C2236 C 0.21436 0.23853 0.36423 0.0
C2237 C 0.21466 0.23968 0.3514 0.0
C2238 C 0.20709 0.24897 0.37127 0.0
C2239 C 0.2047 0.24705 0.38463 0.0
C2240 C 0.19354 0.22824 0.38879 0.0
C2241 C 0.19141 0.22652 0.40139 0.0
C2242 C 0.20022 0.24352 0.40991 0.0
C2243 C 0.21115 0.26229 0.40584 0.0
C2244 C 0.21336 0.26409 0.39326 0.0
C2245 C 0.16704 0.27473 0.33483 0.0
C2246 C 0.17773 0.29559 0.33669 0.0
C2247 C 0.17493 0.26376 0.33979 0.0
C2248 C 0.19348 0.27351 0.34682 0.0
C2249 C 0.20423 0.29432 0.34863 0.0
C2250 C 0.19654 0.30529 0.34344 0.0
C2251 C 0.20139 0.26194 0.35259 0.0
C2252 C 0.20102 0.26081 0.36536 0.0
C2253 C 0.20823 0.25125 0.34549 0.0
C2254 C 0.209 0.25211 0.33195 0.0
C2255 C 0.21994 0.27041 0.32713 0.0
C2256 C 0.22048 0.27112 0.31435 0.0
C2257 C 0.21024 0.25361 0.30629 0.0
C2258 C 0.19951 0.23534 0.311 0.0
C2259 C 0.1989 0.23455 0.32378 0.0
H2260 H 0.21068 0.25419 0.2964 0.0
H2261 H 0.19854 0.24216 0.41966 0.0
H2262 H 0.65959 0.52478 0.74427 0.0
H2263 H 0.68968 0.54687 0.73492 0.0
H2264 H 0.6562 0.56459 0.71137 0.0
H2265 H 0.62616 0.54276 0.72081 0.0
H2266 H 0.67986 0.55212 0.69887 0.0
H2267 H 0.68466 0.59552 0.73359 0.0
H2268 H 0.68604 0.60663 0.75551 0.0
H2269 H 0.73889 0.60406 0.76393 0.0
H2270 H 0.73751 0.59228 0.74211 0.0
H2271 H 0.75776 0.63089 0.67307 0.0
H2272 H 0.72874 0.6108 0.68367 0.0
H2273 H 0.76499 0.60137 0.71073 0.0
H2274 H 0.79414 0.62166 0.70024 0.0
H2275 H 0.74 0.60952 0.72173 0.0
H2276 H 0.73482 0.56498 0.68749 0.0
H2277 H 0.73391 0.55403 0.66558 0.0
H2278 H 0.68247 0.55882 0.65643 0.0
H2279 H 0.68323 0.57007 0.67826 0.0
C2280 C 0.65873 0.53349 0.73714 0.0
C2281 C 0.64062 0.53213 0.73324 0.0
C2282 C 0.67588 0.54612 0.73186 0.0
C2283 C 0.6751 0.55736 0.7225 0.0
C2284 C 0.65705 0.55605 0.71861 0.0
C2285 C 0.63997 0.54368 0.72403 0.0
C2286 C 0.69297 0.56989 0.71641 0.0
C2287 C 0.69294 0.56483 0.70382 0.0
C2288 C 0.71016 0.58609 0.72301 0.0
C2289 C 0.71078 0.59268 0.73622 0.0
C2290 C 0.69639 0.59696 0.74014 0.0
C2291 C 0.69719 0.60341 0.75255 0.0
C2292 C 0.71247 0.6059 0.76112 0.0
C2293 C 0.72698 0.60195 0.75729 0.0
C2294 C 0.72617 0.59535 0.74491 0.0
C2295 C 0.75957 0.6245 0.68126 0.0
C2296 C 0.77829 0.62791 0.68583 0.0
C2297 C 0.74295 0.61298 0.68729 0.0
C2298 C 0.74465 0.60438 0.69791 0.0
C2299 C 0.76334 0.60788 0.70256 0.0
C2300 C 0.78001 0.61951 0.69656 0.0
C2301 C 0.72691 0.59177 0.70416 0.0
C2302 C 0.72696 0.59677 0.71679 0.0
C2303 C 0.70976 0.5754 0.69763 0.0
C2304 C 0.7092 0.56855 0.68449 0.0
C2305 C 0.7234 0.56384 0.68079 0.0
C2306 C 0.7229 0.55756 0.66838 0.0
C2307 C 0.70817 0.55578 0.65961 0.0
C2308 C 0.69388 0.56023 0.66323 0.0
C2309 C 0.69433 0.56654 0.67562 0.0
H2310 H 0.70781 0.55091 0.65001 0.0
H2311 H 0.71312 0.61098 0.77072 0.0
H2312 H 0.46773 0.10616 0.74747 0.0
H2313 H 0.4437 0.11392 0.73788 0.0
H2314 H 0.47055 0.1208 0.70367 0.0
H2315 H 0.49504 0.11369 0.71341 0.0
H2316 H 0.46288 0.14901 0.70776 0.0
H2317 H 0.42537 0.07851 0.70824 0.0
H2318 H 0.41162 0.04668 0.71732 0.0
H2319 H 0.38112 0.06515 0.74153 0.0
H2320 H 0.39491 0.09722 0.73271 0.0
H2321 H 0.38193 0.1406 0.66873 0.0
H2322 H 0.40551 0.13263 0.67882 0.0
H2323 H 0.38865 0.14208 0.7145 0.0
H2324 H 0.36522 0.15041 0.70451 0.0
H2325 H 0.39074 0.10564 0.70966 0.0
H2326 H 0.42894 0.17656 0.70821 0.0
H2327 H 0.44198 0.20719 0.69784 0.0
H2328 H 0.47047 0.18594 0.67376 0.0
H2329 H 0.45733 0.15502 0.68388 0.0
C2330 C 0.46841 0.10923 0.73788 0.0
C2331 C 0.48315 0.10924 0.73115 0.0
C2332 C 0.45464 0.1136 0.73239 0.0
C2333 C 0.45507 0.11762 0.71997 0.0
C2334 C 0.46989 0.11774 0.71326 0.0
C2335 C 0.48386 0.11367 0.71881 0.0
C2336 C 0.44029 0.12202 0.71404 0.0
C2337 C 0.4471 0.13935 0.70805 0.0
C2338 C 0.41967 0.10963 0.71457 0.0
C2339 C 0.41134 0.09035 0.71989 0.0
C2340 C 0.41585 0.07585 0.71557 0.0
C2341 C 0.40803 0.05775 0.72066 0.0
C2342 C 0.39554 0.05392 0.73002 0.0
C2343 C 0.39081 0.06815 0.73429 0.0
C2344 C 0.39862 0.08628 0.72924 0.0
C2345 C 0.38318 0.14092 0.67872 0.0
C2346 C 0.37175 0.14616 0.68583 0.0
C2347 C 0.39668 0.13642 0.68445 0.0
C2348 C 0.39881 0.13685 0.69738 0.0
C2349 C 0.38717 0.14168 0.7045 0.0
C2350 C 0.37388 0.14651 0.69879 0.0
C2351 C 0.41342 0.13249 0.70343 0.0
C2352 C 0.40654 0.11521 0.70942 0.0
C2353 C 0.43393 0.14474 0.70274 0.0
C2354 C 0.44198 0.16339 0.69672 0.0
C2355 C 0.43784 0.17834 0.70063 0.0
C2356 C 0.44527 0.19577 0.69481 0.0
C2357 C 0.457 0.19849 0.68512 0.0
C2358 C 0.46136 0.1838 0.68126 0.0
C2359 C 0.45394 0.16633 0.68704 0.0
H2360 H 0.46275 0.21199 0.68063 0.0
H2361 H 0.3895 0.0399 0.73395 0.0
H2362 H 0.88138 0.36668 0.72482 0.0
H2363 H 0.87233 0.33323 0.71614 0.0
H2364 H 0.92963 0.35629 0.70273 0.0
H2365 H 0.93877 0.38996 0.71136 0.0
H2366 H 0.89855 0.33006 0.68509 0.0
H2367 H 0.9216 0.332 0.72707 0.0
H2368 H 0.92381 0.33794 0.74978 0.0
H2369 H 0.8623 0.29413 0.74908 0.0
H2370 H 0.85964 0.28814 0.72633 0.0
H2371 H 0.87663 0.22219 0.68436 0.0
H2372 H 0.89308 0.25662 0.69401 0.0
H2373 H 0.84377 0.26208 0.67949 0.0
H2374 H 0.82686 0.22743 0.67026 0.0
H2375 H 0.87641 0.27459 0.71145 0.0
H2376 H 0.8685 0.30886 0.6674 0.0
H2377 H 0.86749 0.30281 0.64476 0.0
H2378 H 0.90196 0.27444 0.64997 0.0
H2379 H 0.90343 0.28059 0.67262 0.0
C2380 C 0.89201 0.36465 0.71996 0.0
C2381 C 0.91076 0.38092 0.71873 0.0
C2382 C 0.88689 0.34553 0.71509 0.0
C2383 C 0.90038 0.34229 0.70889 0.0
C2384 C 0.91905 0.3585 0.70753 0.0
C2385 C 0.92427 0.37767 0.7125 0.0
C2386 C 0.89473 0.32194 0.70371 0.0
C2387 C 0.89384 0.31796 0.69086 0.0
C2388 C 0.88885 0.30622 0.71128 0.0
C2389 C 0.8904 0.30974 0.72498 0.0
C2390 C 0.90851 0.32375 0.73174 0.0
C2391 C 0.90985 0.32711 0.74463 0.0
C2392 C 0.8932 0.31645 0.75087 0.0
C2393 C 0.87518 0.30238 0.74424 0.0
C2394 C 0.87376 0.29899 0.73135 0.0
C2395 C 0.86916 0.23063 0.6834 0.0
C2396 C 0.85038 0.22211 0.67669 0.0
C2397 C 0.87861 0.25028 0.68887 0.0
C2398 C 0.86963 0.2618 0.68739 0.0
C2399 C 0.85092 0.25337 0.68066 0.0
C2400 C 0.84129 0.23361 0.67542 0.0
C2401 C 0.87973 0.28273 0.69285 0.0
C2402 C 0.88135 0.28677 0.70572 0.0
C2403 C 0.88647 0.29852 0.68533 0.0
C2404 C 0.88588 0.295 0.67171 0.0
C2405 C 0.87592 0.3014 0.66371 0.0
C2406 C 0.87526 0.29795 0.65088 0.0
C2407 C 0.88459 0.28819 0.64593 0.0
C2408 C 0.89466 0.28192 0.65381 0.0
C2409 C 0.89537 0.28535 0.66665 0.0
H2410 H 0.88405 0.28553 0.63599 0.0
H2411 H 0.89427 0.31906 0.76085 0.0
H2412 H 0.20854 0.95974 0.60635 0.0
H2413 H 0.23151 0.99244 0.61737 0.0
H2414 H 0.18636 0.98716 0.64016 0.0
H2415 H 0.16346 0.95409 0.62957 0.0
H2416 H 0.20604 0.02372 0.62938 0.0
H2417 H 0.22148 0.98155 0.65263 0.0
H2418 H 0.23092 0.95606 0.65506 0.0
H2419 H 0.28531 0.99204 0.63957 0.0
H2420 H 0.27606 0.01763 0.63688 0.0
H2421 H 0.2632 0.10689 0.67318 0.0
H2422 H 0.24129 0.073 0.6634 0.0
H2423 H 0.29008 0.0745 0.64606 0.0
H2424 H 0.31223 0.1081 0.6563 0.0
H2425 H 0.26873 0.03962 0.65374 0.0
H2426 H 0.25487 0.08146 0.6302 0.0
H2427 H 0.24681 0.10768 0.62703 0.0
H2428 H 0.19075 0.0731 0.6411 0.0
H2429 H 0.19872 0.04682 0.64465 0.0
C2430 C 0.20354 0.96532 0.61385 0.0
C2431 C 0.18409 0.95418 0.61707 0.0
C2432 C 0.21668 0.98408 0.62008 0.0
C2433 C 0.21061 0.99214 0.62958 0.0
C2434 C 0.19126 0.98118 0.63281 0.0
C2435 C 0.17817 0.96233 0.62669 0.0
C2436 C 0.22436 0.01218 0.63601 0.0
C2437 C 0.21962 0.02717 0.63486 0.0
C2438 C 0.24237 0.01675 0.64277 0.0
C2439 C 0.24798 0.00142 0.64444 0.0
C2440 C 0.23537 0.98395 0.64964 0.0
C2441 C 0.2407 0.9695 0.65109 0.0
C2442 C 0.25867 0.9724 0.64744 0.0
C2443 C 0.27138 0.98979 0.64237 0.0
C2444 C 0.26611 0.00429 0.6409 0.0
C2445 C 0.26924 0.09994 0.66732 0.0
C2446 C 0.28933 0.11015 0.66537 0.0
C2447 C 0.25671 0.08062 0.66169 0.0
C2448 C 0.26395 0.07132 0.6538 0.0
C2449 C 0.28414 0.08138 0.65207 0.0
C2450 C 0.29674 0.10062 0.65785 0.0
C2451 C 0.25038 0.05123 0.64722 0.0
C2452 C 0.25516 0.03623 0.64829 0.0
C2453 C 0.23255 0.04671 0.64018 0.0
C2454 C 0.22748 0.06226 0.63781 0.0
C2455 C 0.24087 0.07949 0.63269 0.0
C2456 C 0.2363 0.09437 0.63083 0.0
C2457 C 0.21826 0.09208 0.63387 0.0
C2458 C 0.20473 0.07486 0.63876 0.0
C2459 C 0.20926 0.05997 0.64071 0.0
H2460 H 0.21475 0.10363 0.63245 0.0
H2461 H 0.26278 0.96119 0.64857 0.0
H2462 H 0.04164 0.22477 0.62351 0.0
H2463 H 0.01147 0.21648 0.63317 0.0
H2464 H 0.98415 0.22051 0.59866 0.0
H2465 H 0.01451 0.22922 0.58902 0.0
H2466 H 0.97496 0.23665 0.6173 0.0
H2467 H 0.97357 0.17524 0.60816 0.0
H2468 H 0.9864 0.15209 0.60812 0.0
H2469 H 0.99078 0.1566 0.64785 0.0
H2470 H 0.97824 0.18001 0.64813 0.0
H2471 H 0.876 0.18235 0.63398 0.0
H2472 H 0.90582 0.19185 0.62358 0.0
H2473 H 0.93829 0.19726 0.65844 0.0
H2474 H 0.90863 0.18788 0.66894 0.0
H2475 H 0.94384 0.1757 0.63889 0.0
H2476 H 0.94515 0.23781 0.64749 0.0
H2477 H 0.93092 0.25974 0.64687 0.0
H2478 H 0.92504 0.25231 0.60712 0.0
H2479 H 0.93897 0.23008 0.6075 0.0
C2480 C 0.02919 0.22387 0.61799 0.0
C2481 C 0.03034 0.22748 0.6055 0.0
C2482 C 0.01195 0.21912 0.6235 0.0
C2483 C 0.9954 0.2175 0.61657 0.0
C2484 C 0.99671 0.22163 0.60418 0.0
C2485 C 0.01405 0.22661 0.59869 0.0
C2486 C 0.97666 0.21116 0.62221 0.0
C2487 C 0.96802 0.22318 0.62187 0.0
C2488 C 0.96768 0.19368 0.6283 0.0
C2489 C 0.97514 0.17952 0.62816 0.0
C2490 C 0.97741 0.1714 0.61689 0.0
C2491 C 0.98461 0.15822 0.61682 0.0
C2492 C 0.98945 0.15291 0.62798 0.0
C2493 C 0.98705 0.16074 0.63922 0.0
C2494 C 0.97988 0.17395 0.63934 0.0
C2495 C 0.88947 0.18554 0.63944 0.0
C2496 C 0.88998 0.18442 0.6523 0.0
C2497 C 0.9065 0.19102 0.63349 0.0
C2498 C 0.92424 0.19535 0.64028 0.0
C2499 C 0.92471 0.19398 0.65306 0.0
C2500 C 0.90778 0.1887 0.65904 0.0
C2501 C 0.94236 0.20129 0.63407 0.0
C2502 C 0.95081 0.18914 0.63429 0.0
C2503 C 0.95101 0.21851 0.62777 0.0
C2504 C 0.94292 0.23212 0.62753 0.0
C2505 C 0.94069 0.24074 0.63862 0.0
C2506 C 0.9327 0.25324 0.63831 0.0
C2507 C 0.92703 0.25738 0.62697 0.0
C2508 C 0.92941 0.24907 0.6159 0.0
C2509 C 0.93737 0.23653 0.61616 0.0
H2510 H 0.92083 0.26705 0.62675 0.0
H2511 H 0.99502 0.1427 0.62791 0.0
H2512 H 0.7481 0.77274 0.607 0.0
H2513 H 0.75844 0.75206 0.61746 0.0
H2514 H 0.79278 0.80014 0.6462 0.0
H2515 H 0.7816 0.82059 0.63634 0.0
H2516 H 0.81156 0.77776 0.63113 0.0
H2517 H 0.75883 0.77082 0.65635 0.0
H2518 H 0.72443 0.7623 0.65859 0.0
H2519 H 0.70319 0.70358 0.64071 0.0
H2520 H 0.73748 0.71188 0.63819 0.0
H2521 H 0.84608 0.73493 0.67352 0.0
H2522 H 0.83282 0.75407 0.66407 0.0
H2523 H 0.77965 0.69954 0.64959 0.0
H2524 H 0.7923 0.6805 0.65979 0.0
H2525 H 0.76949 0.72441 0.6564 0.0
H2526 H 0.81816 0.72733 0.63138 0.0
H2527 H 0.85078 0.73275 0.6267 0.0
H2528 H 0.87768 0.79451 0.6402 0.0
H2529 H 0.84525 0.7894 0.64515 0.0
C2530 C 0.75748 0.77885 0.61569 0.0
C2531 C 0.76403 0.79845 0.62077 0.0
C2532 C 0.76351 0.76704 0.62157 0.0
C2533 C 0.7764 0.77469 0.63252 0.0
C2534 C 0.78291 0.7941 0.63769 0.0
C2535 C 0.7766 0.80579 0.63197 0.0
C2536 C 0.78346 0.76257 0.63848 0.0
C2537 C 0.80253 0.76624 0.6368 0.0
C2538 C 0.77124 0.74703 0.64535 0.0
C2539 C 0.75068 0.74205 0.64695 0.0
C2540 C 0.74681 0.75617 0.65278 0.0
C2541 C 0.72734 0.75137 0.65413 0.0
C2542 C 0.71163 0.73244 0.64976 0.0
C2543 C 0.71537 0.71825 0.64407 0.0
C2544 C 0.73481 0.72299 0.64269 0.0
C2545 C 0.83152 0.72708 0.66839 0.0
C2546 C 0.82036 0.70625 0.66717 0.0
C2547 C 0.824 0.738 0.6629 0.0
C2548 C 0.80543 0.72825 0.65582 0.0
C2549 C 0.79406 0.70743 0.65491 0.0
C2550 C 0.80139 0.69654 0.66064 0.0
C2551 C 0.79793 0.73976 0.64931 0.0
C2552 C 0.77868 0.73591 0.65078 0.0
C2553 C 0.80978 0.75471 0.64187 0.0
C2554 C 0.82929 0.75794 0.63874 0.0
C2555 C 0.83105 0.74205 0.63342 0.0
C2556 C 0.84951 0.74506 0.63071 0.0
C2557 C 0.8663 0.76395 0.63318 0.0
C2558 C 0.86466 0.77988 0.63831 0.0
C2559 C 0.84624 0.77694 0.64106 0.0
H2560 H 0.88058 0.76626 0.63108 0.0
H2561 H 0.69656 0.72874 0.65082 0.0
H2562 H 0.00449 0.79986 0.5905 0.0
H2563 H 0.973 0.77827 0.59836 0.0
H2564 H 0.00308 0.76271 0.62614 0.0
H2565 H 0.03438 0.78313 0.61782 0.0
H2566 H 0.96993 0.73118 0.61747 0.0
H2567 H 0.98877 0.79862 0.63223 0.0
H2568 H 0.99822 0.83344 0.63006 0.0
H2569 H 0.94346 0.81383 0.6076 0.0
H2570 H 0.9338 0.77887 0.60951 0.0
H2571 H 0.90379 0.70088 0.66343 0.0
H2572 H 0.93209 0.71986 0.65192 0.0
H2573 H 0.89362 0.72313 0.62327 0.0
H2574 H 0.86516 0.70409 0.63468 0.0
H2575 H 0.92861 0.75948 0.63044 0.0
H2576 H 0.90887 0.69184 0.61746 0.0
H2577 H 0.89951 0.65731 0.62051 0.0
H2578 H 0.95638 0.67776 0.64049 0.0
H2579 H 0.96598 0.71245 0.63772 0.0
C2580 C 0.0044 0.79159 0.59814 0.0
C2581 C 0.02209 0.79343 0.60358 0.0
C2582 C 0.98638 0.77943 0.60273 0.0
C2583 C 0.9857 0.76916 0.61301 0.0
C2584 C 0.00322 0.77057 0.61825 0.0
C2585 C 0.02119 0.78249 0.61357 0.0
C2586 C 0.96688 0.75719 0.61849 0.0
C2587 C 0.96102 0.73746 0.6204 0.0
C2588 C 0.9549 0.76515 0.62203 0.0
C2589 C 0.96067 0.78615 0.6209 0.0
C2590 C 0.97881 0.80174 0.62676 0.0
C2591 C 0.98419 0.82149 0.62559 0.0
C2592 C 0.97147 0.82584 0.61867 0.0
C2593 C 0.95332 0.81044 0.61294 0.0
C2594 C 0.94788 0.79066 0.61407 0.0
C2595 C 0.90133 0.7057 0.65471 0.0
C2596 C 0.88222 0.70091 0.64995 0.0
C2597 C 0.9175 0.71645 0.64812 0.0
C2598 C 0.91488 0.72269 0.63669 0.0
C2599 C 0.89591 0.71837 0.63205 0.0
C2600 C 0.87969 0.70744 0.63857 0.0
C2601 C 0.93203 0.73374 0.62964 0.0
C2602 C 0.93749 0.75322 0.62741 0.0
C2603 C 0.94373 0.72562 0.62589 0.0
C2604 C 0.93808 0.70476 0.62747 0.0
C2605 C 0.91933 0.68899 0.62259 0.0
C2606 C 0.91398 0.66938 0.62425 0.0
C2607 C 0.92732 0.66535 0.63071 0.0
C2608 C 0.94606 0.68091 0.63549 0.0
C2609 C 0.95147 0.70054 0.63387 0.0
H2610 H 0.92316 0.65016 0.63199 0.0
H2611 H 0.97566 0.84115 0.61778 0.0
H2612 H 0.1774 0.22203 0.62236 0.0
H2613 H 0.20141 0.21433 0.63202 0.0
H2614 H 0.2318 0.22645 0.59911 0.0
H2615 H 0.20793 0.23435 0.58941 0.0
H2616 H 0.22575 0.19211 0.60694 0.0
H2617 H 0.25193 0.25885 0.62511 0.0
H2618 H 0.2511 0.28692 0.63621 0.0
H2619 H 0.23431 0.25524 0.6683 0.0
H2620 H 0.23476 0.22684 0.65732 0.0
H2621 H 0.30597 0.18406 0.63372 0.0
H2622 H 0.28563 0.19572 0.62351 0.0
H2623 H 0.2572 0.19195 0.65684 0.0
H2624 H 0.2785 0.18152 0.6673 0.0
H2625 H 0.26378 0.22372 0.64799 0.0
H2626 H 0.23431 0.15554 0.62879 0.0
H2627 H 0.2348 0.1275 0.61735 0.0
H2628 H 0.25829 0.1623 0.58718 0.0
H2629 H 0.25775 0.19051 0.59838 0.0
C2630 C 0.18937 0.22337 0.61724 0.0
C2631 C 0.19074 0.2288 0.60511 0.0
C2632 C 0.20306 0.21893 0.62277 0.0
C2633 C 0.21848 0.21996 0.61632 0.0
C2634 C 0.21999 0.22552 0.60424 0.0
C2635 C 0.2063 0.22995 0.5987 0.0
C2636 C 0.23258 0.21453 0.62201 0.0
C2637 C 0.23428 0.1992 0.61584 0.0
C2638 C 0.24346 0.22357 0.63371 0.0
C2639 C 0.24321 0.24064 0.64035 0.0
C2640 C 0.2479 0.2578 0.6345 0.0
C2641 C 0.24753 0.27378 0.64078 0.0
C2642 C 0.24261 0.27284 0.65294 0.0
C2643 C 0.2381 0.25593 0.65887 0.0
C2644 C 0.23843 0.2399 0.65263 0.0
C2645 C 0.29533 0.18567 0.63884 0.0
C2646 C 0.29372 0.18182 0.65128 0.0
C2647 C 0.28359 0.19221 0.63297 0.0
C2648 C 0.26949 0.19432 0.63929 0.0
C2649 C 0.26792 0.19044 0.65174 0.0
C2650 C 0.28005 0.18443 0.65771 0.0
C2651 C 0.25664 0.20092 0.63306 0.0
C2652 C 0.25524 0.21658 0.6391 0.0
C2653 C 0.24601 0.19217 0.62123 0.0
C2654 C 0.24615 0.17516 0.61446 0.0
C2655 C 0.23964 0.15722 0.61973 0.0
C2656 C 0.23991 0.1413 0.61329 0.0
C2657 C 0.2467 0.14315 0.60159 0.0
C2658 C 0.25307 0.16089 0.59625 0.0
C2659 C 0.2527 0.17682 0.60262 0.0
H2660 H 0.24696 0.13081 0.59665 0.0
H2661 H 0.24233 0.28524 0.65779 0.0
H2662 H 0.79614 0.96791 0.61671 0.0
H2663 H 0.80638 0.00095 0.62693 0.0
H2664 H 0.7452 0.98465 0.62775 0.0
H2665 H 0.73483 0.95135 0.61763 0.0
H2666 H 0.77139 0.02305 0.6185 0.0
H2667 H 0.76644 0.98645 0.65324 0.0
H2668 H 0.77259 0.96413 0.66545 0.0
H2669 H 0.83518 0.00492 0.66812 0.0
H2670 H 0.82943 0.02736 0.65576 0.0
H2671 H 0.79519 0.11064 0.65835 0.0
H2672 H 0.78045 0.07675 0.64804 0.0
H2673 H 0.83721 0.08023 0.65308 0.0
H2674 H 0.85182 0.11381 0.6636 0.0
H2675 H 0.81008 0.04689 0.65988 0.0
H2676 H 0.81633 0.08246 0.62443 0.0
H2677 H 0.81163 0.10391 0.61055 0.0
H2678 H 0.74861 0.06546 0.60806 0.0
H2679 H 0.75293 0.04391 0.62205 0.0
C2680 C 0.78489 0.9714 0.61907 0.0
C2681 C 0.76472 0.95716 0.6164 0.0
C2682 C 0.79074 0.9902 0.62493 0.0
C2683 C 0.77652 0.99514 0.6281 0.0
C2684 C 0.75635 0.98104 0.62536 0.0
C2685 C 0.75047 0.96207 0.61967 0.0
C2686 C 0.78294 0.01516 0.63422 0.0
C2687 C 0.77953 0.02824 0.62765 0.0
C2688 C 0.79399 0.02192 0.64599 0.0
C2689 C 0.7975 0.0085 0.65348 0.0
C2690 C 0.78153 0.99058 0.65634 0.0
C2691 C 0.78494 0.97793 0.6633 0.0
C2692 C 0.80427 0.98308 0.66753 0.0
C2693 C 0.82022 0.00094 0.66483 0.0
C2694 C 0.81689 0.01364 0.65785 0.0
C2695 C 0.8045 0.10417 0.65716 0.0
C2696 C 0.8246 0.11474 0.66181 0.0
C2697 C 0.7961 0.08486 0.65122 0.0
C2698 C 0.80774 0.07596 0.64973 0.0
C2699 C 0.82791 0.08674 0.65417 0.0
C2700 C 0.83626 0.10593 0.66016 0.0
C2701 C 0.79887 0.05511 0.64409 0.0
C2702 C 0.80179 0.04178 0.65078 0.0
C2703 C 0.78757 0.04823 0.63235 0.0
C2704 C 0.78495 0.06169 0.6244 0.0
C2705 C 0.80146 0.07873 0.62106 0.0
C2706 C 0.79887 0.09086 0.61313 0.0
C2707 C 0.77983 0.08603 0.60843 0.0
C2708 C 0.76335 0.06917 0.61171 0.0
C2709 C 0.76586 0.05699 0.61964 0.0
H2710 H 0.77782 0.0953 0.60219 0.0
H2711 H 0.80688 0.97327 0.67293 0.0
H2712 H 0.45708 0.36518 0.73269 0.0
H2713 H 0.43363 0.33276 0.72145 0.0
H2714 H 0.4779 0.33885 0.69752 0.0
H2715 H 0.50112 0.37168 0.70849 0.0
H2716 H 0.44404 0.32301 0.68436 0.0
H2717 H 0.46651 0.30974 0.72252 0.0
H2718 H 0.47344 0.31211 0.74516 0.0
H2719 H 0.41161 0.28742 0.74917 0.0
H2720 H 0.40434 0.28517 0.72655 0.0
H2721 H 0.40111 0.21902 0.66473 0.0
H2722 H 0.42309 0.25289 0.67471 0.0
H2723 H 0.37398 0.25186 0.69125 0.0
H2724 H 0.3518 0.21822 0.681 0.0
H2725 H 0.4097 0.26476 0.70797 0.0
H2726 H 0.38817 0.27757 0.66893 0.0
H2727 H 0.38255 0.27427 0.64615 0.0
H2728 H 0.4448 0.29867 0.64381 0.0
H2729 H 0.45075 0.30184 0.66659 0.0
C2730 C 0.46174 0.35957 0.725 0.0
C2731 C 0.4809 0.3708 0.72149 0.0
C2732 C 0.44838 0.34103 0.71862 0.0
C2733 C 0.45412 0.33313 0.7088 0.0
C2734 C 0.47313 0.34459 0.70508 0.0
C2735 C 0.48639 0.36331 0.71134 0.0
C2736 C 0.44038 0.31285 0.70251 0.0
C2737 C 0.43675 0.31026 0.68954 0.0
C2738 C 0.4306 0.29619 0.70924 0.0
C2739 C 0.43491 0.29748 0.72285 0.0
C2740 C 0.45441 0.30496 0.72824 0.0
C2741 C 0.4584 0.30626 0.74106 0.0
C2742 C 0.44299 0.29997 0.7486 0.0
C2743 C 0.42354 0.29232 0.74332 0.0
C2744 C 0.41948 0.29102 0.7305 0.0
C2745 C 0.395 0.22606 0.67045 0.0
C2746 C 0.37481 0.216 0.67217 0.0
C2747 C 0.40754 0.24537 0.67612 0.0
C2748 C 0.4001 0.25481 0.68369 0.0
C2749 C 0.37996 0.24476 0.68546 0.0
C2750 C 0.36735 0.22557 0.67963 0.0
C2751 C 0.41345 0.27506 0.68991 0.0
C2752 C 0.41702 0.27759 0.70285 0.0
C2753 C 0.42341 0.29157 0.68315 0.0
C2754 C 0.41987 0.28975 0.66946 0.0
C2755 C 0.40063 0.28206 0.66355 0.0
C2756 C 0.3974 0.28025 0.65064 0.0
C2757 C 0.4133 0.2862 0.64354 0.0
C2758 C 0.43249 0.29404 0.64933 0.0
C2759 C 0.4358 0.29586 0.66224 0.0
H2760 H 0.41076 0.28479 0.63354 0.0
H2761 H 0.4461 0.30099 0.75853 0.0
H2762 H 0.63709 0.12294 0.71896 0.0
H2763 H 0.66739 0.13097 0.70957 0.0
H2764 H 0.68791 0.11226 0.74086 0.0
H2765 H 0.65754 0.10413 0.75032 0.0
H2766 H 0.71738 0.14647 0.73393 0.0
H2767 H 0.66905 0.0822 0.71408 0.0
H2768 H 0.63702 0.05699 0.70281 0.0
H2769 H 0.64891 0.09209 0.67221 0.0
H2770 H 0.6809 0.11766 0.68338 0.0
H2771 H 0.7958 0.14642 0.70456 0.0
H2772 H 0.76624 0.13672 0.71519 0.0
H2773 H 0.73859 0.14784 0.68353 0.0
H2774 H 0.76764 0.15619 0.67256 0.0
H2775 H 0.71283 0.11603 0.69154 0.0
H2776 H 0.76076 0.18163 0.71247 0.0
H2777 H 0.79338 0.20564 0.72369 0.0
H2778 H 0.78266 0.1668 0.75212 0.0
H2779 H 0.75003 0.14263 0.74112 0.0
C2780 C 0.64798 0.12039 0.72381 0.0
C2781 C 0.64484 0.11274 0.73533 0.0
C2782 C 0.66531 0.12504 0.71845 0.0
C2783 C 0.67978 0.12197 0.72445 0.0
C2784 C 0.67692 0.11473 0.73608 0.0
C2785 C 0.65958 0.11013 0.74147 0.0
C2786 C 0.69776 0.12608 0.71846 0.0
C2787 C 0.71641 0.13967 0.72471 0.0
C2788 C 0.69649 0.11734 0.7064 0.0
C2789 C 0.6773 0.10193 0.69962 0.0
C2790 C 0.66477 0.08462 0.70499 0.0
C2791 C 0.64663 0.07025 0.69861 0.0
C2792 C 0.64091 0.07296 0.68681 0.0
C2793 C 0.65335 0.09002 0.68136 0.0
C2794 C 0.67149 0.10445 0.6877 0.0
C2795 C 0.78339 0.14679 0.69989 0.0
C2796 C 0.78397 0.15211 0.68777 0.0
C2797 C 0.76655 0.14139 0.70601 0.0
C2798 C 0.7503 0.14199 0.7003 0.0
C2799 C 0.75092 0.14728 0.68816 0.0
C2800 C 0.76752 0.15211 0.6819 0.0
C2801 C 0.73252 0.13686 0.70685 0.0
C2802 C 0.71385 0.12294 0.70073 0.0
C2803 C 0.7338 0.1453 0.71904 0.0
C2804 C 0.753 0.16031 0.72595 0.0
C2805 C 0.76537 0.17826 0.72114 0.0
C2806 C 0.78386 0.19189 0.72746 0.0
C2807 C 0.79011 0.18774 0.73861 0.0
C2808 C 0.77782 0.17002 0.7435 0.0
C2809 C 0.75929 0.1564 0.73727 0.0
H2810 H 0.80443 0.19828 0.7435 0.0
H2811 H 0.62686 0.06182 0.68189 0.0
H2812 H 0.92852 0.55855 0.71654 0.0
H2813 H 0.9163 0.57777 0.70587 0.0
H2814 H 0.85625 0.53308 0.70993 0.0
H2815 H 0.86838 0.5139 0.72068 0.0
H2816 H 0.86315 0.54548 0.6855 0.0
H2817 H 0.87498 0.57319 0.72819 0.0
H2818 H 0.89512 0.58883 0.74826 0.0
H2819 H 0.93663 0.63874 0.73078 0.0
H2820 H 0.91687 0.62325 0.71056 0.0
H2821 H 0.81213 0.5955 0.66904 0.0
H2822 H 0.82528 0.57692 0.6794 0.0
H2823 H 0.88414 0.6281 0.68227 0.0
H2824 H 0.87087 0.64691 0.67231 0.0
H2825 H 0.87879 0.61259 0.703 0.0
H2826 H 0.86829 0.58645 0.66061 0.0
H2827 H 0.84974 0.57143 0.64003 0.0
H2828 H 0.80811 0.51951 0.6559 0.0
H2829 H 0.82627 0.53435 0.67661 0.0
C2830 C 0.91272 0.55285 0.71512 0.0
C2831 C 0.89938 0.5348 0.71945 0.0
C2832 C 0.90578 0.56384 0.70909 0.0
C2833 C 0.8854 0.55684 0.70718 0.0
C2834 C 0.87204 0.53871 0.71135 0.0
C2835 C 0.87898 0.52786 0.71753 0.0
C2836 C 0.87795 0.56837 0.70078 0.0
C2837 C 0.86635 0.56006 0.68936 0.0
C2838 C 0.8827 0.58761 0.70568 0.0
C2839 C 0.89456 0.59695 0.71784 0.0
C2840 C 0.8885 0.58741 0.7286 0.0
C2841 C 0.89982 0.59627 0.74002 0.0
C2842 C 0.91717 0.61474 0.74079 0.0
C2843 C 0.9232 0.62442 0.73016 0.0
C2844 C 0.91194 0.61561 0.71872 0.0
C2845 C 0.82788 0.60271 0.67184 0.0
C2846 C 0.84052 0.62256 0.66986 0.0
C2847 C 0.8354 0.59208 0.67771 0.0
C2848 C 0.85577 0.601 0.68145 0.0
C2849 C 0.86839 0.62088 0.67946 0.0
C2850 C 0.86083 0.63159 0.67374 0.0
C2851 C 0.86385 0.58971 0.68765 0.0
C2852 C 0.8756 0.59805 0.69905 0.0
C2853 C 0.85949 0.57059 0.68263 0.0
C2854 C 0.84854 0.5616 0.67018 0.0
C2855 C 0.8551 0.5719 0.65973 0.0
C2856 C 0.84467 0.5634 0.64804 0.0
C2857 C 0.82773 0.54455 0.64666 0.0
C2858 C 0.82122 0.53413 0.65698 0.0
C2859 C 0.83159 0.54256 0.66869 0.0
H2860 H 0.81967 0.538 0.6376 0.0
H2861 H 0.92591 0.62158 0.74964 0.0
H2862 H 0.42926 0.93991 0.17694 0.0
H2863 H 0.43614 0.95299 0.15678 0.0
H2864 H 0.49187 0.95414 0.16 0.0
H2865 H 0.48531 0.94155 0.18016 0.0
H2866 H 0.4958 0.98822 0.15246 0.0
H2867 H 0.45151 0.91743 0.1422 0.0
H2868 H 0.42039 0.88556 0.14197 0.0
H2869 H 0.38815 0.91007 0.12426 0.0
H2870 H 0.41905 0.94222 0.12457 0.0
H2871 H 0.52486 0.99046 0.09272 0.0
H2872 H 0.51367 0.98159 0.113 0.0
H2873 H 0.4607 0.9834 0.10238 0.0
H2874 H 0.47192 0.99254 0.08202 0.0
H2875 H 0.45254 0.95072 0.11378 0.0
H2876 H 0.4966 0.02028 0.12218 0.0
H2877 H 0.5275 0.05219 0.12193 0.0
H2878 H 0.5597 0.03054 0.14286 0.0
H2879 H 0.52903 0.99838 0.14308 0.0
C2880 C 0.44302 0.94308 0.17337 0.0
C2881 C 0.4567 0.9396 0.1801 0.0
C2882 C 0.44686 0.95041 0.16183 0.0
C2883 C 0.46445 0.95439 0.15686 0.0
C2884 C 0.47819 0.95114 0.16365 0.0
C2885 C 0.47435 0.94378 0.17512 0.0
C2886 C 0.4688 0.96201 0.14463 0.0
C2887 C 0.48641 0.97996 0.14399 0.0
C2888 C 0.45615 0.95159 0.13363 0.0
C2889 C 0.43755 0.93233 0.13359 0.0
C2890 C 0.43776 0.91611 0.13839 0.0
C2891 C 0.42016 0.89798 0.13822 0.0
C2892 C 0.40229 0.89582 0.13315 0.0
C2893 C 0.40199 0.91178 0.12822 0.0
C2894 C 0.41954 0.92996 0.1284 0.0
C2895 C 0.51096 0.98926 0.09473 0.0
C2896 C 0.49936 0.99236 0.08578 0.0
C2897 C 0.50456 0.98414 0.10633 0.0
C2898 C 0.48649 0.98212 0.10926 0.0
C2899 C 0.47472 0.98495 0.10031 0.0
C2900 C 0.48113 0.9901 0.08868 0.0
C2901 C 0.47984 0.97659 0.1216 0.0
C2902 C 0.46179 0.95912 0.12226 0.0
C2903 C 0.49202 0.98749 0.13264 0.0
C2904 C 0.51052 0.00685 0.13257 0.0
C2905 C 0.51029 0.02227 0.12666 0.0
C2906 C 0.52776 0.04041 0.12653 0.0
C2907 C 0.54556 0.04338 0.13236 0.0
C2908 C 0.5459 0.02822 0.13834 0.0
C2909 C 0.52847 0.01003 0.13849 0.0
H2910 H 0.55907 0.05744 0.13225 0.0
H2911 H 0.38869 0.88176 0.13301 0.0
H2912 H 0.04697 0.49374 0.18898 0.0
H2913 H 0.03933 0.49033 0.16645 0.0
H2914 H 0.02171 0.5345 0.17057 0.0
H2915 H 0.02921 0.5379 0.19306 0.0
H2916 H 0.99591 0.50137 0.15354 0.0
H2917 H 0.06622 0.5482 0.16299 0.0
H2918 H 0.10006 0.55859 0.17193 0.0
H2919 H 0.09896 0.51094 0.1492 0.0
H2920 H 0.06498 0.50011 0.14026 0.0
H2921 H 1.00018 0.53536 0.09507 0.0
H2922 H 0.00447 0.53183 0.11692 0.0
H2923 H 0.03073 0.49599 0.10801 0.0
H2924 H 0.02767 0.50054 0.08614 0.0
H2925 H 0.05101 0.52093 0.12726 0.0
H2926 H 0.98237 0.47539 0.1163 0.0
H2927 H 0.94824 0.4638 0.10736 0.0
H2928 H 0.94526 0.50651 0.13266 0.0
H2929 H 0.97948 0.51855 0.14164 0.0
C2930 C 0.04122 0.50251 0.18507 0.0
C2931 C 0.03878 0.51617 0.19273 0.0
C2932 C 0.03697 0.50063 0.17223 0.0
C2933 C 0.03011 0.51228 0.16688 0.0
C2934 C 0.02701 0.5254 0.17454 0.0
C2935 C 0.03142 0.52743 0.18735 0.0
C2936 C 0.02692 0.5115 0.15326 0.0
C2937 C 0.00794 0.50576 0.14777 0.0
C2938 C 0.04253 0.51662 0.14575 0.0
C2939 C 0.06299 0.52322 0.15106 0.0
C2940 C 0.07314 0.53984 0.15998 0.0
C2941 C 0.09235 0.54583 0.16503 0.0
C2942 C 0.10164 0.53539 0.16116 0.0
C2943 C 0.09174 0.51898 0.15221 0.0
C2944 C 0.07251 0.51292 0.14714 0.0
C2945 C 0.00712 0.52694 0.09773 0.0
C2946 C 0.01361 0.51828 0.0888 0.0
C2947 C 0.00926 0.52465 0.11024 0.0
C2948 C 0.01757 0.5133 0.11411 0.0
C2949 C 0.02414 0.50468 0.10524 0.0
C2950 C 0.02221 0.50716 0.09272 0.0
C2951 C 0.01997 0.51107 0.12745 0.0
C2952 C 0.03884 0.51626 0.13294 0.0
C2953 C 0.00418 0.5052 0.13493 0.0
C2954 C 0.98356 0.49798 0.12958 0.0
C2955 C 0.97449 0.48241 0.1199 0.0
C2956 C 0.95512 0.47574 0.11483 0.0
C2957 C 0.9446 0.48444 0.11942 0.0
C2958 C 0.95343 0.49979 0.12911 0.0
C2959 C 0.9728 0.50653 0.1342 0.0
H2960 H 0.92961 0.47926 0.11549 0.0
H2961 H 0.11651 0.54005 0.16508 0.0
H2962 H 0.45182 0.53879 0.17636 0.0
H2963 H 0.45899 0.53646 0.15496 0.0
H2964 H 0.47985 0.49642 0.16386 0.0
H2965 H 0.47322 0.49922 0.18537 0.0
H2966 H 0.50465 0.52253 0.15131 0.0
H2967 H 0.43456 0.48115 0.14604 0.0
H2968 H 0.39959 0.4712 0.14738 0.0
H2969 H 0.40604 0.51778 0.12568 0.0
H2970 H 0.44115 0.52824 0.12438 0.0
H2971 H 0.50843 0.4937 0.08837 0.0
H2972 H 0.49722 0.49211 0.10906 0.0
H2973 H 0.49104 0.54335 0.10455 0.0
H2974 H 0.50247 0.54514 0.0839 0.0
H2975 H 0.45804 0.51004 0.11438 0.0
H2976 H 0.52937 0.55158 0.12094 0.0
H2977 H 0.56355 0.55913 0.11895 0.0
H2978 H 0.55304 0.50856 0.13778 0.0
H2979 H 0.51868 0.50054 0.13972 0.0
C2980 C 0.45772 0.52932 0.17369 0.0
C2981 C 0.46198 0.51918 0.1825 0.0
C2982 C 0.46175 0.52792 0.16145 0.0
C2983 C 0.46973 0.51605 0.15773 0.0
C2984 C 0.47371 0.50569 0.1665 0.0
C2985 C 0.46995 0.5073 0.17878 0.0
C2986 C 0.475 0.51534 0.14488 0.0
C2987 C 0.49429 0.51945 0.14326 0.0
C2988 C 0.46165 0.51168 0.13432 0.0
C2989 C 0.44059 0.50564 0.13525 0.0
C2990 C 0.4286 0.48943 0.14167 0.0
C2991 C 0.40873 0.48366 0.1424 0.0
C2992 C 0.40061 0.49389 0.13665 0.0
C2993 C 0.41235 0.50989 0.13015 0.0
C2994 C 0.43224 0.51575 0.12942 0.0
C2995 C 0.50457 0.50453 0.09179 0.0
C2996 C 0.50639 0.5196 0.08463 0.0
C2997 C 0.49823 0.50364 0.10358 0.0
C2998 C 0.4934 0.51766 0.10829 0.0
C2999 C 0.49473 0.53242 0.10103 0.0
C3000 C 0.50136 0.53351 0.08932 0.0
C3001 C 0.48753 0.51726 0.12097 0.0
C3002 C 0.46822 0.51299 0.12251 0.0
C3003 C 0.50071 0.52045 0.13145 0.0
C3004 C 0.5214 0.52534 0.13035 0.0
C3005 C 0.53429 0.54197 0.12456 0.0
C3006 C 0.55371 0.54636 0.12346 0.0
C3007 C 0.56045 0.5343 0.1282 0.0
C3008 C 0.54779 0.51787 0.13409 0.0
C3009 C 0.52835 0.5134 0.1352 0.0
H3010 H 0.57549 0.53773 0.12735 0.0
H3011 H 0.38522 0.48938 0.1372 0.0
H3012 H 0.92513 0.46575 0.81812 0.0
H3013 H 0.93185 0.46645 0.84041 0.0
H3014 H 0.99398 0.50675 0.83824 0.0
H3015 H 0.98733 0.50569 0.81582 0.0
H3016 H 0.99 0.4795 0.85225 0.0
H3017 H 0.96331 0.5225 0.85051 0.0
H3018 H 0.93941 0.53295 0.84418 0.0
H3019 H 0.89438 0.48533 0.86148 0.0
H3020 H 0.91793 0.47441 0.86777 0.0
H3021 H 0.01316 0.50509 0.91766 0.0
H3022 H 0.00746 0.50761 0.89563 0.0
H3023 H 0.94757 0.45884 0.89442 0.0
H3024 H 0.9532 0.45621 0.91648 0.0
H3025 H 0.95155 0.49218 0.88248 0.0
H3026 H 0.97954 0.44925 0.88352 0.0
H3027 H 0.00464 0.44051 0.89014 0.0
H3028 H 0.04902 0.49091 0.87442 0.0
H3029 H 0.02421 0.50013 0.86786 0.0
C3030 C 0.94019 0.47491 0.82242 0.0
C3031 C 0.9557 0.48576 0.81526 0.0
C3032 C 0.94402 0.47534 0.83517 0.0
C3033 C 0.96338 0.48692 0.84106 0.0
C3034 C 0.97892 0.49774 0.83391 0.0
C3035 C 0.97512 0.49712 0.82112 0.0
C3036 C 0.96744 0.48723 0.85461 0.0
C3037 C 0.98181 0.48261 0.85886 0.0
C3038 C 0.95657 0.49099 0.86325 0.0
C3039 C 0.94235 0.49753 0.85951 0.0
C3040 C 0.94827 0.51416 0.85288 0.0
C3041 C 0.93479 0.52018 0.84931 0.0
C3042 C 0.91538 0.50978 0.8524 0.0
C3043 C 0.90941 0.49336 0.85909 0.0
C3044 C 0.92283 0.48726 0.86266 0.0
C3045 C 0.99874 0.49502 0.91271 0.0
C3046 C 0.98362 0.48043 0.91874 0.0
C3047 C 0.99554 0.49641 0.90014 0.0
C3048 C 0.97714 0.48334 0.89342 0.0
C3049 C 0.96188 0.46904 0.89947 0.0
C3050 C 0.96513 0.46748 0.91202 0.0
C3051 C 0.97394 0.48434 0.88001 0.0
C3052 C 0.95977 0.4892 0.87582 0.0
C3053 C 0.98517 0.48108 0.87144 0.0
C3054 C 1.00006 0.47549 0.87532 0.0
C3055 C 0.99468 0.45857 0.88157 0.0
C3056 C 0.00885 0.45351 0.88529 0.0
C3057 C 0.02843 0.46518 0.88273 0.0
C3058 C 0.03386 0.48191 0.87641 0.0
C3059 C 0.01975 0.48704 0.87268 0.0
H3060 H 0.03938 0.46124 0.88561 0.0
H3061 H 0.90497 0.51447 0.84963 0.0
H3062 H 0.52112 0.49967 0.8164 0.0
H3063 H 0.51402 0.50285 0.83777 0.0
H3064 H 0.5385 0.46643 0.8482 0.0
H3065 H 0.54583 0.46338 0.82695 0.0
H3066 H 0.50241 0.45377 0.85614 0.0
H3067 H 0.56343 0.51581 0.85686 0.0
H3068 H 0.58603 0.54815 0.84968 0.0
H3069 H 0.54491 0.56805 0.85636 0.0
H3070 H 0.52193 0.53571 0.86342 0.0
H3071 H 0.50554 0.46591 0.92098 0.0
H3072 H 0.51517 0.46689 0.90001 0.0
H3073 H 0.49167 0.50501 0.89186 0.0
H3074 H 0.48269 0.50477 0.91302 0.0
H3075 H 0.52647 0.5173 0.88252 0.0
H3076 H 0.46555 0.45583 0.88181 0.0
H3077 H 0.44249 0.42355 0.88888 0.0
H3078 H 0.48263 0.40253 0.88182 0.0
H3079 H 0.50607 0.4348 0.87488 0.0
C3080 C 0.52528 0.49262 0.82329 0.0
C3081 C 0.53391 0.48116 0.81997 0.0
C3082 C 0.52119 0.49442 0.83549 0.0
C3083 C 0.52576 0.48489 0.84456 0.0
C3084 C 0.53475 0.4738 0.84132 0.0
C3085 C 0.53885 0.47202 0.82916 0.0
C3086 C 0.52041 0.48565 0.85733 0.0
C3087 C 0.50789 0.46765 0.86197 0.0
C3088 C 0.52706 0.5038 0.86477 0.0
C3089 C 0.54087 0.52326 0.86055 0.0
C3090 C 0.55913 0.52702 0.8567 0.0
C3091 C 0.57202 0.54536 0.85267 0.0
C3092 C 0.56688 0.56012 0.85253 0.0
C3093 C 0.54886 0.55659 0.85645 0.0
C3094 C 0.5359 0.53826 0.86048 0.0
C3095 C 0.50264 0.47472 0.91479 0.0
C3096 C 0.49325 0.48518 0.91867 0.0
C3097 C 0.50798 0.47511 0.90277 0.0
C3098 C 0.50387 0.48579 0.89432 0.0
C3099 C 0.49489 0.49659 0.89821 0.0
C3100 C 0.48959 0.49627 0.91027 0.0
C3101 C 0.50868 0.48539 0.88137 0.0
C3102 C 0.521 0.50343 0.87669 0.0
C3103 C 0.50176 0.46727 0.87383 0.0
C3104 C 0.48764 0.4478 0.87793 0.0
C3105 C 0.46953 0.44437 0.88185 0.0
C3106 C 0.45638 0.42607 0.88582 0.0
C3107 C 0.46111 0.41101 0.88583 0.0
C3108 C 0.47899 0.41421 0.88183 0.0
C3109 C 0.4922 0.4325 0.87786 0.0
H3110 H 0.45092 0.39685 0.88891 0.0
H3111 H 0.57689 0.57432 0.84941 0.0
H3112 H 0.50709 0.0538 0.82088 0.0
H3113 H 0.49992 0.04419 0.84168 0.0
H3114 H 0.55522 0.04487 0.84746 0.0
H3115 H 0.56226 0.05395 0.82644 0.0
H3116 H 0.52477 0.01251 0.85601 0.0
H3117 H 0.5515 0.08299 0.86009 0.0
H3118 H 0.55431 0.11452 0.85484 0.0
H3119 H 0.49469 0.09406 0.86309 0.0
H3120 H 0.49142 0.06227 0.86822 0.0
H3121 H 0.52179 0.00942 0.92132 0.0
H3122 H 0.53182 0.01892 0.90083 0.0
H3123 H 0.47948 0.02295 0.89244 0.0
H3124 H 0.46983 0.01437 0.91307 0.0
H3125 H 0.51083 0.05394 0.88558 0.0
H3126 H 0.48345 0.98298 0.88058 0.0
H3127 H 0.48025 0.95118 0.88556 0.0
H3128 H 0.54067 0.97227 0.87895 0.0
H3129 H 0.54431 0.00432 0.87408 0.0
C3130 C 0.51763 0.05167 0.8265 0.0
C3131 C 0.53526 0.05465 0.82201 0.0
C3132 C 0.5136 0.04636 0.83844 0.0
C3133 C 0.52717 0.04408 0.84617 0.0
C3134 C 0.54461 0.04666 0.84165 0.0
C3135 C 0.54867 0.05199 0.82969 0.0
C3136 C 0.52312 0.03917 0.85899 0.0
C3137 C 0.52202 0.02171 0.86256 0.0
C3138 C 0.5192 0.05102 0.86743 0.0
C3139 C 0.52117 0.07018 0.86444 0.0
C3140 C 0.53894 0.08516 0.8607 0.0
C3141 C 0.54062 0.10308 0.85776 0.0
C3142 C 0.52468 0.10627 0.85861 0.0
C3143 C 0.50703 0.09156 0.86243 0.0
C3144 C 0.50526 0.07359 0.86537 0.0
C3145 C 0.51249 0.01248 0.91515 0.0
C3146 C 0.49496 0.01107 0.91883 0.0
C3147 C 0.51814 0.0177 0.90339 0.0
C3148 C 0.50628 0.02141 0.89505 0.0
C3149 C 0.48883 0.02008 0.89871 0.0
C3150 C 0.48322 0.01497 0.91047 0.0
C3151 C 0.51214 0.02708 0.88256 0.0
C3152 C 0.51365 0.04475 0.87907 0.0
C3153 C 0.51639 0.01539 0.8742 0.0
C3154 C 0.51421 0.99612 0.8771 0.0
C3155 C 0.4961 0.9809 0.88028 0.0
C3156 C 0.4942 0.96282 0.88307 0.0
C3157 C 0.51026 0.95973 0.88261 0.0
C3158 C 0.52825 0.9747 0.87932 0.0
C3159 C 0.53024 0.99282 0.87654 0.0
H3160 H 0.50876 0.94572 0.88476 0.0
H3161 H 0.52601 0.12016 0.85633 0.0
H3162 H 0.10079 0.27514 0.51003 0.0
H3163 H 0.10798 0.28737 0.48968 0.0
H3164 H 0.16286 0.28686 0.49336 0.0
H3165 H 0.15602 0.27513 0.51374 0.0
H3166 H 0.16796 0.32109 0.4856 0.0
H3167 H 0.12268 0.25087 0.47524 0.0
H3168 H 0.09133 0.21923 0.47503 0.0
H3169 H 0.05964 0.24439 0.45746 0.0
H3170 H 0.09079 0.27632 0.45772 0.0
H3171 H 0.19545 0.32372 0.42513 0.0
H3172 H 0.18456 0.31399 0.44538 0.0
H3173 H 0.13303 0.31918 0.43651 0.0
H3174 H 0.14404 0.32939 0.41629 0.0
H3175 H 0.12405 0.28475 0.44692 0.0
H3176 H 0.16945 0.35419 0.45598 0.0
H3177 H 0.20082 0.38567 0.45579 0.0
H3178 H 0.23213 0.36202 0.4756 0.0
H3179 H 0.20098 0.33027 0.47575 0.0
C3180 C 0.11441 0.27772 0.5065 0.0
C3181 C 0.1278 0.27409 0.51346 0.0
C3182 C 0.11843 0.28455 0.49485 0.0
C3183 C 0.13589 0.28788 0.48998 0.0
C3184 C 0.14928 0.28435 0.49694 0.0
C3185 C 0.14527 0.27748 0.50853 0.0
C3186 C 0.14056 0.29537 0.47774 0.0
C3187 C 0.15844 0.31306 0.47713 0.0
C3188 C 0.12779 0.28521 0.46675 0.0
C3189 C 0.10903 0.26609 0.46668 0.0
C3190 C 0.109 0.24974 0.47147 0.0
C3191 C 0.09128 0.23173 0.4713 0.0
C3192 C 0.0735 0.22983 0.46628 0.0
C3193 C 0.07342 0.24592 0.46137 0.0
C3194 C 0.0911 0.26397 0.46153 0.0
C3195 C 0.18195 0.32308 0.42753 0.0
C3196 C 0.17069 0.32746 0.4191 0.0
C3197 C 0.1757 0.31743 0.43909 0.0
C3198 C 0.1581 0.31607 0.44248 0.0
C3199 C 0.14667 0.32016 0.43406 0.0
C3200 C 0.15295 0.32591 0.4225 0.0
C3201 C 0.15167 0.31018 0.45479 0.0
C3202 C 0.13346 0.29287 0.45542 0.0
C3203 C 0.1641 0.32068 0.46582 0.0
C3204 C 0.18289 0.33978 0.46578 0.0
C3205 C 0.18305 0.35564 0.46021 0.0
C3206 C 0.20079 0.37354 0.46012 0.0
C3207 C 0.21847 0.37583 0.46566 0.0
C3208 C 0.21843 0.36022 0.47131 0.0
C3209 C 0.20073 0.34227 0.47141 0.0
H3210 H 0.23219 0.3897 0.46558 0.0
H3211 H 0.0598 0.21587 0.46615 0.0
H3212 H 0.691 0.82261 0.51966 0.0
H3213 H 0.68499 0.81939 0.49708 0.0
H3214 H 0.74724 0.85876 0.49494 0.0
H3215 H 0.7535 0.86166 0.51744 0.0
H3216 H 0.72316 0.87025 0.48262 0.0
H3217 H 0.72749 0.81122 0.48507 0.0
H3218 H 0.71895 0.7789 0.49238 0.0
H3219 H 0.65861 0.75453 0.47708 0.0
H3220 H 0.66672 0.78681 0.46983 0.0
H3221 H 0.71834 0.8659 0.41785 0.0
H3222 H 0.72752 0.8628 0.43917 0.0
H3223 H 0.66726 0.81686 0.44168 0.0
H3224 H 0.6583 0.81941 0.42017 0.0
H3225 H 0.6914 0.80821 0.45378 0.0
H3226 H 0.68518 0.86629 0.45285 0.0
H3227 H 0.69195 0.89838 0.44592 0.0
H3228 H 0.75344 0.92434 0.45905 0.0
H3229 H 0.74708 0.8923 0.4659 0.0
C3230 C 0.70348 0.83022 0.51438 0.0
C3231 C 0.72271 0.84254 0.52038 0.0
C3232 C 0.70001 0.8284 0.50147 0.0
C3233 C 0.71568 0.83884 0.49436 0.0
C3234 C 0.73494 0.85065 0.50028 0.0
C3235 C 0.73846 0.85238 0.51315 0.0
C3236 C 0.71182 0.83868 0.48086 0.0
C3237 C 0.71653 0.85674 0.47627 0.0
C3238 C 0.70258 0.82094 0.47269 0.0
C3239 C 0.69769 0.8015 0.47701 0.0
C3240 C 0.71236 0.79903 0.48335 0.0
C3241 C 0.70761 0.7807 0.48747 0.0
C3242 C 0.68824 0.76469 0.48522 0.0
C3243 C 0.6736 0.76695 0.47883 0.0
C3244 C 0.67828 0.78526 0.4747 0.0
C3245 C 0.70715 0.85507 0.42297 0.0
C3246 C 0.68759 0.84306 0.41751 0.0
C3247 C 0.71236 0.85331 0.43512 0.0
C3248 C 0.69796 0.83992 0.44213 0.0
C3249 C 0.67859 0.82734 0.43648 0.0
C3250 C 0.67346 0.82884 0.42424 0.0
C3251 C 0.7028 0.83983 0.45552 0.0
C3252 C 0.69819 0.82175 0.4601 0.0
C3253 C 0.71186 0.85752 0.46377 0.0
C3254 C 0.71569 0.87685 0.45977 0.0
C3255 C 0.70017 0.87881 0.45418 0.0
C3256 C 0.70393 0.89699 0.45028 0.0
C3257 C 0.72312 0.91337 0.45201 0.0
C3258 C 0.73858 0.91162 0.45769 0.0
C3259 C 0.73491 0.89347 0.4616 0.0
H3260 H 0.726 0.92743 0.44898 0.0
H3261 H 0.68459 0.75051 0.48841 0.0
H3262 H 0.1147 0.81888 0.51449 0.0
H3263 H 0.12366 0.81905 0.49338 0.0
H3264 H 0.18135 0.86993 0.50513 0.0
H3265 H 0.17213 0.87052 0.5261 0.0
H3266 H 0.16673 0.87584 0.48483 0.0
H3267 H 0.17431 0.82262 0.4979 0.0
H3268 H 0.16481 0.79117 0.50678 0.0
H3269 H 0.11659 0.7596 0.47808 0.0
H3270 H 0.12563 0.79092 0.46911 0.0
H3271 H 0.20919 0.87152 0.42958 0.0
H3272 H 0.20194 0.86905 0.45112 0.0
H3273 H 0.14061 0.82678 0.4392 0.0
H3274 H 0.14748 0.8297 0.41757 0.0
H3275 H 0.15806 0.81633 0.45953 0.0
H3276 H 0.15113 0.87109 0.44707 0.0
H3277 H 0.16242 0.90288 0.43823 0.0
H3278 H 0.21189 0.93195 0.4663 0.0
H3279 H 0.20107 0.90024 0.47519 0.0
C3280 C 0.12928 0.83015 0.51258 0.0
C3281 C 0.14267 0.84471 0.52201 0.0
C3282 C 0.13447 0.83008 0.50053 0.0
C3283 C 0.15326 0.84438 0.49768 0.0
C3284 C 0.16678 0.85871 0.50711 0.0
C3285 C 0.16155 0.85889 0.51914 0.0
C3286 C 0.15847 0.84502 0.48475 0.0
C3287 C 0.16512 0.86289 0.47939 0.0
C3288 C 0.15605 0.82804 0.47754 0.0
C3289 C 0.15054 0.80916 0.48291 0.0
C3290 C 0.16158 0.809 0.49354 0.0
C3291 C 0.1563 0.79119 0.49858 0.0
C3292 C 0.14008 0.7734 0.49302 0.0
C3293 C 0.12913 0.77339 0.48238 0.0
C3294 C 0.13434 0.79117 0.47731 0.0
C3295 C 0.1941 0.86184 0.43149 0.0
C3296 C 0.1789 0.85093 0.42179 0.0
C3297 C 0.19004 0.86033 0.44382 0.0
C3298 C 0.17075 0.84779 0.44671 0.0
C3299 C 0.15562 0.83646 0.43712 0.0
C3300 C 0.15962 0.83811 0.42477 0.0
C3301 C 0.16624 0.84708 0.45973 0.0
C3302 C 0.15971 0.82924 0.46506 0.0
C3303 C 0.16899 0.86413 0.46697 0.0
C3304 C 0.1754 0.88325 0.46171 0.0
C3305 C 0.16451 0.88422 0.45129 0.0
C3306 C 0.17081 0.90223 0.44628 0.0
C3307 C 0.18789 0.91941 0.45168 0.0
C3308 C 0.19868 0.91863 0.46212 0.0
C3309 C 0.19246 0.90064 0.46715 0.0
H3310 H 0.19275 0.93334 0.44778 0.0
H3311 H 0.13601 0.75963 0.49693 0.0
H3312 H 0.62585 0.79998 0.14655 0.0
H3313 H 0.63207 0.802 0.16907 0.0
H3314 H 0.65923 0.86579 0.17163 0.0
H3315 H 0.65264 0.86384 0.14902 0.0
H3316 H 0.67984 0.84578 0.18595 0.0
H3317 H 0.61979 0.84923 0.17953 0.0
H3318 H 0.58628 0.83771 0.16945 0.0
H3319 H 0.5656 0.78042 0.18236 0.0
H3320 H 0.59909 0.79152 0.19235 0.0
H3321 H 0.68427 0.85522 0.25149 0.0
H3322 H 0.6802 0.85994 0.22966 0.0
H3323 H 0.63069 0.79988 0.22288 0.0
H3324 H 0.6341 0.79571 0.24485 0.0
H3325 H 0.62229 0.82147 0.21049 0.0
H3326 H 0.68 0.81481 0.21555 0.0
H3327 H 0.71311 0.82294 0.22464 0.0
H3328 H 0.73796 0.88181 0.21351 0.0
H3329 H 0.70492 0.8741 0.20449 0.0
C3330 C 0.63336 0.81445 0.1519 0.0
C3331 C 0.63883 0.83177 0.1461 0.0
C3332 C 0.63682 0.81556 0.16473 0.0
C3333 C 0.64604 0.83402 0.17192 0.0
C3334 C 0.65211 0.85144 0.16616 0.0
C3335 C 0.6483 0.8503 0.15332 0.0
C3336 C 0.6486 0.83484 0.18552 0.0
C3337 C 0.66739 0.84085 0.19142 0.0
C3338 C 0.63218 0.82777 0.19246 0.0
C3339 C 0.61199 0.82115 0.18658 0.0
C3340 C 0.60814 0.83412 0.18012 0.0
C3341 C 0.58914 0.82768 0.17445 0.0
C3342 C 0.57383 0.80832 0.17524 0.0
C3343 C 0.57748 0.7954 0.18174 0.0
C3344 C 0.59646 0.80177 0.18742 0.0
C3345 C 0.67245 0.84317 0.24529 0.0
C3346 C 0.65949 0.82512 0.24971 0.0
C3347 C 0.67021 0.84578 0.23283 0.0
C3348 C 0.65539 0.83013 0.22453 0.0
C3349 C 0.64223 0.81219 0.22907 0.0
C3350 C 0.64418 0.80977 0.24158 0.0
C3351 C 0.65363 0.83223 0.2111 0.0
C3352 C 0.63491 0.82668 0.20516 0.0
C3353 C 0.67009 0.8393 0.20409 0.0
C3354 C 0.68996 0.84395 0.20947 0.0
C3355 C 0.6925 0.82953 0.21512 0.0
C3356 C 0.71126 0.83406 0.22025 0.0
C3357 C 0.72762 0.8529 0.21969 0.0
C3358 C 0.72526 0.86723 0.21396 0.0
C3359 C 0.70653 0.86279 0.20883 0.0
H3360 H 0.74213 0.85637 0.22366 0.0
H3361 H 0.55913 0.80336 0.17084 0.0
H3362 H 0.19008 0.83599 0.14951 0.0
H3363 H 0.18299 0.83956 0.17086 0.0
H3364 H 0.20884 0.8046 0.1819 0.0
H3365 H 0.21608 0.80111 0.16069 0.0
H3366 H 0.17245 0.79106 0.18948 0.0
H3367 H 0.23251 0.85439 0.19004 0.0
H3368 H 0.25396 0.88694 0.1827 0.0
H3369 H 0.21111 0.90448 0.18951 0.0
H3370 H 0.18928 0.87192 0.19674 0.0
H3371 H 0.17619 0.80141 0.25402 0.0
H3372 H 0.1858 0.8036 0.23297 0.0
H3373 H 0.16154 0.84153 0.22619 0.0
H3374 H 0.15223 0.83969 0.24739 0.0
H3375 H 0.19539 0.85427 0.21596 0.0
H3376 H 0.13559 0.79207 0.21562 0.0
H3377 H 0.11328 0.75959 0.22274 0.0
H3378 H 0.15411 0.73977 0.2149 0.0
H3379 H 0.17681 0.77225 0.2079 0.0
C3380 C 0.19454 0.82936 0.15654 0.0
C3381 C 0.20347 0.81811 0.1534 0.0
C3382 C 0.19046 0.83139 0.16872 0.0
C3383 C 0.19539 0.82233 0.17796 0.0
C3384 C 0.2048 0.81159 0.1749 0.0
C3385 C 0.20886 0.80955 0.16277 0.0
C3386 C 0.18981 0.82299 0.19068 0.0
C3387 C 0.17767 0.80488 0.19532 0.0
C3388 C 0.19602 0.84104 0.19811 0.0
C3389 C 0.20917 0.86064 0.19381 0.0
C3390 C 0.22759 0.86512 0.18987 0.0
C3391 C 0.23983 0.88359 0.18575 0.0
C3392 C 0.23388 0.89775 0.1856 0.0
C3393 C 0.21569 0.89349 0.18961 0.0
C3394 C 0.20339 0.87504 0.19373 0.0
C3395 C 0.17291 0.81021 0.24803 0.0
C3396 C 0.16327 0.82019 0.25227 0.0
C3397 C 0.1784 0.81146 0.23602 0.0
C3398 C 0.17404 0.82241 0.22792 0.0
C3399 C 0.16499 0.83294 0.23226 0.0
C3400 C 0.15968 0.83187 0.24435 0.0
C3401 C 0.1784 0.8223 0.21485 0.0
C3402 C 0.19015 0.84046 0.21011 0.0
C3403 C 0.17168 0.80428 0.20723 0.0
C3404 C 0.15798 0.78466 0.21133 0.0
C3405 C 0.13987 0.78083 0.21549 0.0
C3406 C 0.12715 0.76241 0.2195 0.0
C3407 C 0.1323 0.74764 0.2193 0.0
C3408 C 0.15015 0.75123 0.21506 0.0
C3409 C 0.16295 0.76964 0.21106 0.0
H3410 H 0.12243 0.73339 0.22241 0.0
H3411 H 0.24337 0.91204 0.18241 0.0
H3412 H 0.23338 0.39846 0.16382 0.0
H3413 H 0.2258 0.38895 0.18462 0.0
H3414 H 0.1663 0.37748 0.176 0.0
H3415 H 0.1741 0.38811 0.1555 0.0
H3416 H 0.17984 0.39659 0.19781 0.0
H3417 H 0.1778 0.33954 0.17703 0.0
H3418 H 0.19023 0.32106 0.1649 0.0
H3419 H 0.23844 0.3396 0.1932 0.0
H3420 H 0.22644 0.35841 0.20544 0.0
H3421 H 0.13263 0.33652 0.24494 0.0
H3422 H 0.14346 0.34706 0.22481 0.0
H3423 H 0.20407 0.3692 0.23923 0.0
H3424 H 0.1935 0.35937 0.2596 0.0
H3425 H 0.19183 0.34582 0.21528 0.0
H3426 H 0.19098 0.40166 0.23642 0.0
H3427 H 0.17571 0.41758 0.24823 0.0
H3428 H 0.12954 0.39831 0.21839 0.0
H3429 H 0.14436 0.38202 0.20648 0.0
C3430 C 0.21874 0.3941 0.16638 0.0
C3431 C 0.20434 0.39401 0.15794 0.0
C3432 C 0.21435 0.38843 0.17824 0.0
C3433 C 0.19539 0.38224 0.18184 0.0
C3434 C 0.18102 0.38214 0.17344 0.0
C3435 C 0.18545 0.388 0.16164 0.0
C3436 C 0.19054 0.37624 0.19442 0.0
C3437 C 0.18229 0.38534 0.20155 0.0
C3438 C 0.19407 0.36182 0.19943 0.0
C3439 C 0.20135 0.35057 0.19209 0.0
C3440 C 0.19115 0.33982 0.18062 0.0
C3441 C 0.1981 0.32926 0.17373 0.0
C3442 C 0.21514 0.32921 0.17826 0.0
C3443 C 0.22525 0.33968 0.1897 0.0
C3444 C 0.21838 0.35028 0.19662 0.0
C3445 C 0.14829 0.34382 0.24391 0.0
C3446 C 0.1622 0.34726 0.25395 0.0
C3447 C 0.15443 0.3497 0.23237 0.0
C3448 C 0.17455 0.35903 0.2306 0.0
C3449 C 0.18845 0.36199 0.24045 0.0
C3450 C 0.18236 0.35628 0.25206 0.0
C3451 C 0.18099 0.36603 0.2185 0.0
C3452 C 0.18954 0.35716 0.21151 0.0
C3453 C 0.17744 0.3804 0.21351 0.0
C3454 C 0.1687 0.39047 0.2206 0.0
C3455 C 0.1775 0.40069 0.23241 0.0
C3456 C 0.16894 0.4098 0.23912 0.0
C3457 C 0.15164 0.4089 0.23407 0.0
C3458 C 0.14293 0.39897 0.22229 0.0
C3459 C 0.15141 0.38982 0.21555 0.0
H3460 H 0.14499 0.4159 0.23927 0.0
H3461 H 0.22049 0.32102 0.17292 0.0
H3462 H 0.82107 0.6031 0.8459 0.0
H3463 H 0.82852 0.61562 0.82571 0.0
H3464 H 0.77031 0.60844 0.81953 0.0
H3465 H 0.76271 0.59581 0.83979 0.0
H3466 H 0.78166 0.59347 0.79909 0.0
H3467 H 0.80687 0.65314 0.82655 0.0
H3468 H 0.82605 0.67655 0.84503 0.0
H3469 H 0.87977 0.68272 0.83286 0.0
H3470 H 0.86086 0.65909 0.81439 0.0
H3471 H 0.80514 0.64528 0.74526 0.0
H3472 H 0.79404 0.63476 0.76543 0.0
H3473 H 0.85264 0.64707 0.77834 0.0
H3474 H 0.86384 0.65784 0.75828 0.0
H3475 H 0.83865 0.66043 0.79552 0.0
H3476 H 0.81374 0.59973 0.76869 0.0
H3477 H 0.79489 0.57587 0.75033 0.0
H3478 H 0.74097 0.57059 0.76143 0.0
H3479 H 0.75956 0.59481 0.77973 0.0
C3480 C 0.80982 0.60409 0.84021 0.0
C3481 C 0.7913 0.59847 0.84439 0.0
C3482 C 0.81414 0.61136 0.82873 0.0
C3483 C 0.80001 0.61307 0.82119 0.0
C3484 C 0.78141 0.60726 0.82525 0.0
C3485 C 0.77714 0.60017 0.83682 0.0
C3486 C 0.80477 0.62083 0.80904 0.0
C3487 C 0.79388 0.60824 0.79827 0.0
C3488 C 0.82097 0.63994 0.80805 0.0
C3489 C 0.83241 0.6542 0.81913 0.0
C3490 C 0.82275 0.65935 0.82786 0.0
C3491 C 0.83358 0.67269 0.83833 0.0
C3492 C 0.85411 0.68108 0.84013 0.0
C3493 C 0.86386 0.67619 0.83146 0.0
C3494 C 0.8531 0.66284 0.82098 0.0
C3495 C 0.81562 0.64566 0.7524 0.0
C3496 C 0.83535 0.65233 0.7502 0.0
C3497 C 0.80926 0.63965 0.76391 0.0
C3498 C 0.82245 0.63991 0.77336 0.0
C3499 C 0.84221 0.64679 0.77121 0.0
C3500 C 0.84861 0.65296 0.75975 0.0
C3501 C 0.81577 0.63295 0.78549 0.0
C3502 C 0.8263 0.64571 0.79629 0.0
C3503 C 0.7993 0.61394 0.78648 0.0
C3504 C 0.7881 0.59933 0.77549 0.0
C3505 C 0.79789 0.59366 0.76715 0.0
C3506 C 0.78725 0.58007 0.75675 0.0
C3507 C 0.76676 0.57182 0.75467 0.0
C3508 C 0.75686 0.57709 0.76302 0.0
C3509 C 0.76744 0.59076 0.7734 0.0
H3510 H 0.75854 0.56129 0.74662 0.0
H3511 H 0.86247 0.69141 0.84824 0.0
H3512 H 0.41196 0.18985 0.85339 0.0
H3513 H 0.40399 0.18623 0.831 0.0
H3514 H 0.34174 0.15271 0.83534 0.0
H3515 H 0.34954 0.15663 0.85785 0.0
H3516 H 0.35334 0.13748 0.81474 0.0
H3517 H 0.35974 0.19893 0.83221 0.0
H3518 H 0.37651 0.23132 0.84501 0.0
H3519 H 0.42566 0.25209 0.82324 0.0
H3520 H 0.4093 0.21969 0.81043 0.0
H3521 H 0.31725 0.15086 0.75637 0.0
H3522 H 0.32435 0.14837 0.77819 0.0
H3523 H 0.38622 0.19028 0.77649 0.0
H3524 H 0.37912 0.19305 0.75475 0.0
H3525 H 0.37418 0.2004 0.79597 0.0
H3526 H 0.36818 0.13965 0.77818 0.0
H3527 H 0.35219 0.10721 0.76548 0.0
H3528 H 0.30337 0.08498 0.78755 0.0
H3529 H 0.31895 0.1174 0.80028 0.0
C3530 C 0.39656 0.18169 0.8496 0.0
C3531 C 0.38137 0.17379 0.85743 0.0
C3532 C 0.39205 0.17954 0.8368 0.0
C3533 C 0.37228 0.16941 0.83156 0.0
C3534 C 0.35709 0.16057 0.83924 0.0
C3535 C 0.36159 0.1628 0.85209 0.0
C3536 C 0.36757 0.16932 0.81818 0.0
C3537 C 0.35766 0.15117 0.81062 0.0
C3538 C 0.3736 0.18726 0.81283 0.0
C3539 C 0.38338 0.20682 0.82044 0.0
C3540 C 0.37419 0.21035 0.83022 0.0
C3541 C 0.38361 0.22872 0.83746 0.0
C3542 C 0.40216 0.24374 0.83496 0.0
C3543 C 0.4113 0.24044 0.82518 0.0
C3544 C 0.40196 0.22208 0.81792 0.0
C3545 C 0.3324 0.15931 0.76062 0.0
C3546 C 0.34764 0.17219 0.75389 0.0
C3547 C 0.33645 0.15785 0.77308 0.0
C3548 C 0.35586 0.16901 0.77896 0.0
C3549 C 0.37113 0.18157 0.77216 0.0
C3550 C 0.36707 0.18317 0.75975 0.0
C3551 C 0.36011 0.16853 0.79238 0.0
C3552 C 0.36988 0.18663 0.80001 0.0
C3553 C 0.35404 0.15054 0.79774 0.0
C3554 C 0.34465 0.13102 0.79011 0.0
C3555 C 0.35396 0.1279 0.78026 0.0
C3556 C 0.34498 0.1095 0.77307 0.0
C3557 C 0.32675 0.09406 0.77568 0.0
C3558 C 0.31748 0.09697 0.78552 0.0
C3559 C 0.32639 0.11534 0.79274 0.0
H3560 H 0.31983 0.07983 0.7701 0.0
H3561 H 0.40943 0.25795 0.84057 0.0
H3562 H 0.77284 0.15525 0.84757 0.0
H3563 H 0.77817 0.1523 0.82573 0.0
H3564 H 0.82582 0.21326 0.83015 0.0
H3565 H 0.82049 0.21634 0.8519 0.0
H3566 H 0.79928 0.20374 0.80904 0.0
H3567 H 0.83659 0.17749 0.82946 0.0
H3568 H 0.84089 0.15499 0.84259 0.0
H3569 H 0.79711 0.10448 0.81825 0.0
H3570 H 0.79235 0.12668 0.80507 0.0
H3571 H 0.84949 0.21093 0.75636 0.0
H3572 H 0.83848 0.21103 0.77684 0.0
H3573 H 0.80043 0.14729 0.77083 0.0
H3574 H 0.81196 0.14712 0.75043 0.0
H3575 H 0.81902 0.15623 0.7924 0.0
H3576 H 0.7801 0.18066 0.77242 0.0
H3577 H 0.77384 0.20194 0.75918 0.0
H3578 H 0.81803 0.25398 0.78223 0.0
H3579 H 0.82449 0.23297 0.79559 0.0
C3580 C 0.78441 0.16801 0.84385 0.0
C3581 C 0.79632 0.18599 0.85142 0.0
C3582 C 0.78749 0.16628 0.83142 0.0
C3583 C 0.80244 0.18255 0.82638 0.0
C3584 C 0.81422 0.20055 0.83389 0.0
C3585 C 0.81127 0.20223 0.84632 0.0
C3586 C 0.80588 0.18092 0.81325 0.0
C3587 C 0.80374 0.19346 0.8054 0.0
C3588 C 0.81106 0.16707 0.80845 0.0
C3589 C 0.81396 0.15373 0.81636 0.0
C3590 C 0.82776 0.16157 0.82697 0.0
C3591 C 0.8303 0.14888 0.83441 0.0
C3592 C 0.81924 0.12832 0.83128 0.0
C3593 C 0.80564 0.12041 0.82068 0.0
C3594 C 0.80302 0.13304 0.81322 0.0
C3595 C 0.83856 0.19698 0.75934 0.0
C3596 C 0.83159 0.17901 0.75183 0.0
C3597 C 0.83216 0.19705 0.77103 0.0
C3598 C 0.81833 0.1792 0.77534 0.0
C3599 C 0.81111 0.16126 0.76773 0.0
C3600 C 0.81771 0.16116 0.7561 0.0
C3601 C 0.81255 0.17916 0.7881 0.0
C3602 C 0.8143 0.16634 0.79593 0.0
C3603 C 0.80673 0.19257 0.79286 0.0
C3604 C 0.80294 0.20527 0.78488 0.0
C3605 C 0.78859 0.19665 0.77457 0.0
C3606 C 0.78497 0.20865 0.76708 0.0
C3607 C 0.79563 0.2293 0.76981 0.0
C3608 C 0.80982 0.23799 0.78011 0.0
C3609 C 0.81342 0.22604 0.78767 0.0
H3610 H 0.79284 0.23857 0.76399 0.0
H3611 H 0.82123 0.11852 0.83705 0.0
H3612 H 0.2616 0.14911 0.48464 0.0
H3613 H 0.26997 0.15212 0.50693 0.0
H3614 H 0.33148 0.17573 0.50145 0.0
H3615 H 0.32313 0.1726 0.47904 0.0
H3616 H 0.32039 0.14802 0.51674 0.0
H3617 H 0.31471 0.20569 0.51387 0.0
H3618 H 0.2992 0.22505 0.50761 0.0
H3619 H 0.25022 0.19083 0.52814 0.0
H3620 H 0.26529 0.17105 0.53438 0.0
H3621 H 0.35245 0.17313 0.58104 0.0
H3622 H 0.34762 0.17703 0.55919 0.0
H3623 H 0.28448 0.14731 0.56075 0.0
H3624 H 0.28923 0.14358 0.58268 0.0
H3625 H 0.29868 0.1807 0.54764 0.0
H3626 H 0.30395 0.12177 0.54918 0.0
H3627 H 0.31998 0.10288 0.55545 0.0
H3628 H 0.37082 0.14075 0.53736 0.0
H3629 H 0.35519 0.16005 0.53113 0.0
C3630 C 0.27696 0.15524 0.48819 0.0
C3631 C 0.29173 0.16072 0.4801 0.0
C3632 C 0.28173 0.15696 0.50094 0.0
C3633 C 0.3014 0.16441 0.50588 0.0
C3634 C 0.31621 0.16998 0.49783 0.0
C3635 C 0.31142 0.16815 0.48505 0.0
C3636 C 0.30627 0.16545 0.5194 0.0
C3637 C 0.31598 0.1555 0.52349 0.0
C3638 C 0.30016 0.17488 0.52821 0.0
C3639 C 0.29106 0.18677 0.52451 0.0
C3640 C 0.30055 0.20218 0.51697 0.0
C3641 C 0.29185 0.21325 0.51344 0.0
C3642 C 0.27372 0.20914 0.51745 0.0
C3643 C 0.26426 0.19398 0.52503 0.0
C3644 C 0.27289 0.18285 0.52858 0.0
C3645 C 0.33757 0.16768 0.57677 0.0
C3646 C 0.3212 0.15795 0.58353 0.0
C3647 C 0.33483 0.16981 0.56428 0.0
C3648 C 0.31569 0.16228 0.55835 0.0
C3649 C 0.29936 0.15317 0.56517 0.0
C3650 C 0.30208 0.15092 0.57765 0.0
C3651 C 0.31263 0.16316 0.5449 0.0
C3652 C 0.30324 0.17342 0.54085 0.0
C3653 C 0.31913 0.15413 0.53612 0.0
C3654 C 0.3285 0.14248 0.53981 0.0
C3655 C 0.31862 0.12617 0.54663 0.0
C3656 C 0.32762 0.11537 0.55016 0.0
C3657 C 0.34643 0.12065 0.54684 0.0
C3658 C 0.35626 0.1367 0.53994 0.0
C3659 C 0.34734 0.14757 0.5364 0.0
H3660 H 0.35338 0.11227 0.54958 0.0
H3661 H 0.26701 0.21773 0.51471 0.0
H3662 H 0.86545 0.1711 0.48433 0.0
H3663 H 0.85924 0.17597 0.50569 0.0
H3664 H 0.87078 0.12975 0.51548 0.0
H3665 H 0.87792 0.12535 0.49439 0.0
H3666 H 0.83384 0.12591 0.52221 0.0
H3667 H 0.90405 0.17397 0.52498 0.0
H3668 H 0.9334 0.20305 0.51877 0.0
H3669 H 0.90801 0.23959 0.52707 0.0
H3670 H 0.87836 0.21064 0.53315 0.0
H3671 H 0.83411 0.13065 0.58651 0.0
H3672 H 0.8436 0.13049 0.56553 0.0
H3673 H 0.8461 0.18651 0.56206 0.0
H3674 H 0.83747 0.18708 0.58334 0.0
H3675 H 0.87483 0.18671 0.55144 0.0
H3676 H 0.8056 0.14101 0.54904 0.0
H3677 H 0.77488 0.11282 0.55465 0.0
H3678 H 0.79579 0.0729 0.54463 0.0
H3679 H 0.82677 0.10091 0.53913 0.0
C3680 C 0.86705 0.16221 0.49107 0.0
C3681 C 0.87206 0.14772 0.48758 0.0
C3682 C 0.86338 0.16496 0.50324 0.0
C3683 C 0.86451 0.15317 0.5121 0.0
C3684 C 0.86971 0.13888 0.50872 0.0
C3685 C 0.87364 0.13631 0.49663 0.0
C3686 C 0.85962 0.15515 0.52482 0.0
C3687 C 0.84289 0.13909 0.52867 0.0
C3688 C 0.87104 0.17268 0.533 0.0
C3689 C 0.88889 0.19009 0.52938 0.0
C3690 C 0.90464 0.18816 0.52537 0.0
C3691 C 0.92135 0.20463 0.52189 0.0
C3692 C 0.92254 0.22314 0.52249 0.0
C3693 C 0.90705 0.22523 0.52659 0.0
C3694 C 0.8903 0.2088 0.53006 0.0
C3695 C 0.83679 0.14295 0.58126 0.0
C3696 C 0.83493 0.15879 0.58643 0.0
C3697 C 0.84211 0.14282 0.56927 0.0
C3698 C 0.84508 0.15824 0.56209 0.0
C3699 C 0.84379 0.1744 0.5674 0.0
C3700 C 0.83885 0.17472 0.57951 0.0
C3701 C 0.84916 0.15725 0.54899 0.0
C3702 C 0.86567 0.17351 0.54501 0.0
C3703 C 0.83728 0.14003 0.54057 0.0
C3704 C 0.81858 0.1231 0.54377 0.0
C3705 C 0.8037 0.12624 0.54811 0.0
C3706 C 0.78624 0.11029 0.55126 0.0
C3707 C 0.7834 0.09109 0.55002 0.0
C3708 C 0.79801 0.08779 0.54559 0.0
C3709 C 0.81552 0.10369 0.54244 0.0
H3710 H 0.76988 0.07876 0.55247 0.0
H3711 H 0.9355 0.23588 0.5198 0.0
H3712 H 0.86053 0.69173 0.48473 0.0
H3713 H 0.85378 0.6804 0.50528 0.0
H3714 H 0.88181 0.7413 0.52158 0.0
H3715 H 0.88895 0.75268 0.50108 0.0
H3716 H 0.89109 0.7205 0.53604 0.0
H3717 H 0.83112 0.7123 0.51544 0.0
H3718 H 0.80406 0.70041 0.49857 0.0
H3719 H 0.78709 0.63995 0.50332 0.0
H3720 H 0.81425 0.6515 0.52012 0.0
H3721 H 0.84394 0.70588 0.59155 0.0
H3722 H 0.85574 0.71537 0.57138 0.0
H3723 H 0.83164 0.65363 0.55804 0.0
H3724 H 0.81952 0.64401 0.57814 0.0
H3725 H 0.82118 0.67359 0.54214 0.0
H3726 H 0.88053 0.68308 0.56446 0.0
H3727 H 0.90671 0.69628 0.58199 0.0
H3728 H 0.92414 0.75593 0.57467 0.0
H3729 H 0.89785 0.74309 0.55721 0.0
C3730 C 0.8653 0.70267 0.49271 0.0
C3731 C 0.87513 0.72307 0.49131 0.0
C3732 C 0.86145 0.6962 0.50444 0.0
C3733 C 0.867 0.71 0.51496 0.0
C3734 C 0.8774 0.73039 0.51361 0.0
C3735 C 0.88146 0.73687 0.5019 0.0
C3736 C 0.86116 0.7032 0.52725 0.0
C3737 C 0.87579 0.71037 0.5374 0.0
C3738 C 0.84123 0.68976 0.529 0.0
C3739 C 0.82485 0.68277 0.51894 0.0
C3740 C 0.82171 0.69647 0.51282 0.0
C3741 C 0.80634 0.6898 0.50328 0.0
C3742 C 0.7939 0.66944 0.49985 0.0
C3743 C 0.79677 0.65572 0.50598 0.0
C3744 C 0.81213 0.66232 0.51551 0.0
C3745 C 0.84115 0.69434 0.58431 0.0
C3746 C 0.83078 0.6742 0.58639 0.0
C3747 C 0.84805 0.69978 0.57284 0.0
C3748 C 0.8447 0.6852 0.56326 0.0
C3749 C 0.83444 0.6651 0.56534 0.0
C3750 C 0.82763 0.65965 0.57683 0.0
C3751 C 0.85107 0.69087 0.5509 0.0
C3752 C 0.83652 0.68355 0.54076 0.0
C3753 C 0.87101 0.70434 0.54921 0.0
C3754 C 0.88709 0.71211 0.55958 0.0
C3755 C 0.88985 0.69901 0.56664 0.0
C3756 C 0.90473 0.70643 0.57656 0.0
C3757 C 0.91705 0.72693 0.57946 0.0
C3758 C 0.91457 0.74005 0.57242 0.0
C3759 C 0.8997 0.73271 0.5625 0.0
H3760 H 0.92854 0.73265 0.58716 0.0
H3761 H 0.78201 0.6643 0.49246 0.0
loop_
_geom_bond_atom_site_label_1
_geom_bond_atom_site_label_2
_geom_bond_distance
_geom_bond_site_symmetry_2
_ccdc_geom_bond_type
C0 C1 1.386 . S
C0 C2 1.397 . S
C0 H24 0.931 . S
C1 C0 1.386 . S
C1 C5 1.397 . S
C2 C0 1.397 . S
C2 C3 1.384 . S
C2 H25 0.930 . S
C3 C2 1.384 . S
C3 C4 1.377 . S
C3 C6 1.481 . S
C4 C3 1.377 . S
C4 C5 1.389 . S
C4 H26 0.929 . S
C5 C1 1.397 . S
C5 C4 1.389 . S
C5 H27 0.931 . S
C6 C3 1.481 . S
C6 C7 1.387 . S
C6 C11 1.390 . S
C7 C6 1.387 . S
C7 C8 1.401 . S
C7 H28 0.930 . S
C8 C7 1.401 . S
C8 C9 1.376 . S
C8 C17 1.511 . S
C9 C8 1.376 . S
C9 C10 1.392 . S
C9 H30 0.931 . S
C10 C9 1.392 . S
C10 C11 1.361 . S
C10 C12 1.500 . S
C11 C6 1.390 . S
C11 C10 1.361 . S
C11 H29 0.931 . S
C12 C10 1.500 . S
C12 C13 1.371 . S
C12 C14 1.365 . S
C13 C12 1.371 . S
C13 C23 1.386 . S
C13 H31 0.931 . S
C14 C12 1.365 . S
C14 C15 1.409 . S
C14 H32 0.929 . S
C15 C14 1.409 . S
C15 C16 1.380 . S
C15 H33 0.930 . S
C16 C15 1.380 . S
C16 C23 1.357 . S
C17 C8 1.511 . S
C17 C18 1.341 . S
C17 C19 1.371 . S
C18 C17 1.341 . S
C18 C22 1.394 . S
C18 H34 0.930 . S
C19 C17 1.371 . S
C19 C20 1.392 . S
C19 H35 0.931 . S
C20 C19 1.392 . S
C20 C21 1.331 . S
C20 H38 0.932 . S
C21 C20 1.331 . S
C21 C22 1.336 . S
C22 C18 1.394 . S
C22 C21 1.336 . S
C22 H37 0.929 . S
C23 C13 1.386 . S
C23 C16 1.357 . S
C23 H36 0.928 . S
H24 C0 0.931 . S
H25 C2 0.930 . S
H26 C4 0.929 . S
H27 C5 0.931 . S
H28 C7 0.930 . S
H29 C11 0.931 . S
H30 C9 0.931 . S
H31 C13 0.931 . S
H32 C14 0.929 . S
H33 C15 0.930 . S
H34 C18 0.930 . S
H35 C19 0.931 . S
H36 C23 0.928 . S
H37 C22 0.929 . S
H38 C20 0.932 . S
C39 C40 1.386 . S
C39 C41 1.397 . S
C39 H63 0.931 . S
C40 C39 1.386 . S
C40 C44 1.397 . S
C41 C39 1.397 . S
C41 C42 1.384 . S
C41 H64 0.930 . S
C42 C41 1.384 . S
C42 C43 1.377 . S
C42 C45 1.481 . S
C43 C42 1.377 . S
C43 C44 1.389 . S
C43 H65 0.929 . S
C44 C40 1.397 . S
C44 C43 1.389 . S
C44 H66 0.931 . S
C45 C42 1.481 . S
C45 C46 1.387 . S
C45 C50 1.390 . S
C46 C45 1.387 . S
C46 C47 1.401 . S
C46 H67 0.930 . S
C47 C46 1.401 . S
C47 C48 1.376 . S
C47 C56 1.511 . S
C48 C47 1.376 . S
C48 C49 1.392 . S
C48 H69 0.931 . S
C49 C48 1.392 . S
C49 C50 1.361 . S
C49 C51 1.500 . S
C50 C45 1.390 . S
C50 C49 1.361 . S
C50 H68 0.931 . S
C51 C49 1.500 . S
C51 C52 1.371 . S
C51 C53 1.365 . S
C52 C51 1.371 . S
C52 C62 1.386 . S
C52 H70 0.931 . S
C53 C51 1.365 . S
C53 C54 1.409 . S
C53 H71 0.929 . S
C54 C53 1.409 . S
C54 C55 1.380 . S
C54 H72 0.930 . S
C55 C54 1.380 . S
C55 C62 1.357 . S
C56 C47 1.511 . S
C56 C57 1.341 . S
C56 C58 1.371 . S
C57 C56 1.341 . S
C57 C61 1.394 . S
C57 H73 0.930 . S
C58 C56 1.371 . S
C58 C59 1.392 . S
C58 H74 0.931 . S
C59 C58 1.392 . S
C59 C60 1.331 . S
C59 H77 0.932 . S
C60 C59 1.331 . S
C60 C61 1.336 . S
C61 C57 1.394 . S
C61 C60 1.336 . S
C61 H76 0.929 . S
C62 C52 1.386 . S
C62 C55 1.357 . S
C62 H75 0.928 . S
H63 C39 0.931 . S
H64 C41 0.930 . S
H65 C43 0.929 . S
H66 C44 0.931 . S
H67 C46 0.930 . S
H68 C50 0.931 . S
H69 C48 0.931 . S
H70 C52 0.931 . S
H71 C53 0.929 . S
H72 C54 0.930 . S
H73 C57 0.930 . S
H74 C58 0.931 . S
H75 C62 0.928 . S
H76 C61 0.929 . S
H77 C59 0.932 . S
C78 C79 1.386 . S
C78 C80 1.397 . S
C78 H102 0.931 . S
C79 C78 1.386 . S
C79 C83 1.397 . S
C80 C78 1.397 . S
C80 C81 1.384 . S
C80 H103 0.930 . S
C81 C80 1.384 . S
C81 C82 1.377 . S
C81 C84 1.481 . S
C82 C81 1.377 . S
C82 C83 1.389 . S
C82 H104 0.929 . S
C83 C79 1.397 . S
C83 C82 1.389 . S
C83 H105 0.931 . S
C84 C81 1.481 . S
C84 C85 1.387 . S
C84 C89 1.390 . S
C85 C84 1.387 . S
C85 C86 1.401 . S
C85 H106 0.930 . S
C86 C85 1.401 . S
C86 C87 1.376 . S
C86 C95 1.511 . S
C87 C86 1.376 . S
C87 C88 1.392 . S
C87 H108 0.931 . S
C88 C87 1.392 . S
C88 C89 1.361 . S
C88 C90 1.500 . S
C89 C84 1.390 . S
C89 C88 1.361 . S
C89 H107 0.931 . S
C90 C88 1.500 . S
C90 C91 1.371 . S
C90 C92 1.365 . S
C91 C90 1.371 . S
C91 C101 1.386 . S
C91 H109 0.931 . S
C92 C90 1.365 . S
C92 C93 1.409 . S
C92 H110 0.929 . S
C93 C92 1.409 . S
C93 C94 1.380 . S
C93 H111 0.930 . S
C94 C93 1.380 . S
C94 C101 1.357 . S
C95 C86 1.511 . S
C95 C96 1.341 . S
C95 C97 1.371 . S
C96 C95 1.341 . S
C96 C100 1.394 . S
C96 H112 0.930 . S
C97 C95 1.371 . S
C97 C98 1.392 . S
C97 H113 0.931 . S
C98 C97 1.392 . S
C98 C99 1.331 . S
C98 H116 0.932 . S
C99 C98 1.331 . S
C99 C100 1.336 . S
C100 C96 1.394 . S
C100 C99 1.336 . S
C100 H115 0.929 . S
C101 C91 1.386 . S
C101 C94 1.357 . S
C101 H114 0.928 . S
H102 C78 0.931 . S
H103 C80 0.930 . S
H104 C82 0.929 . S
H105 C83 0.931 . S
H106 C85 0.930 . S
H107 C89 0.931 . S
H108 C87 0.931 . S
H109 C91 0.931 . S
H110 C92 0.929 . S
H111 C93 0.930 . S
H112 C96 0.930 . S
H113 C97 0.931 . S
H114 C101 0.928 . S
H115 C100 0.929 . S
H116 C98 0.932 . S
C117 C118 1.386 . S
C117 C119 1.397 . S
C117 H141 0.931 . S
C118 C117 1.386 . S
C118 C122 1.397 . S
C119 C117 1.397 . S
C119 C120 1.384 . S
C119 H142 0.930 . S
C120 C119 1.384 . S
C120 C121 1.377 . S
C120 C123 1.481 . S
C121 C120 1.377 . S
C121 C122 1.389 . S
C121 H143 0.929 . S
C122 C118 1.397 . S
C122 C121 1.389 . S
C122 H144 0.931 . S
C123 C120 1.481 . S
C123 C124 1.387 . S
C123 C128 1.390 . S
C124 C123 1.387 . S
C124 C125 1.401 . S
C124 H145 0.930 . S
C125 C124 1.401 . S
C125 C126 1.376 . S
C125 C134 1.511 . S
C126 C125 1.376 . S
C126 C127 1.392 . S
C126 H147 0.931 . S
C127 C126 1.392 . S
C127 C128 1.361 . S
C127 C129 1.500 . S
C128 C123 1.390 . S
C128 C127 1.361 . S
C128 H146 0.931 . S
C129 C127 1.500 . S
C129 C130 1.371 . S
C129 C131 1.365 . S
C130 C129 1.371 . S
C130 C140 1.386 . S
C130 H148 0.931 . S
C131 C129 1.365 . S
C131 C132 1.409 . S
C131 H149 0.929 . S
C132 C131 1.409 . S
C132 C133 1.380 . S
C132 H150 0.930 . S
C133 C132 1.380 . S
C133 C140 1.357 . S
C134 C125 1.511 . S
C134 C135 1.341 . S
C134 C136 1.371 . S
C135 C134 1.341 . S
C135 C139 1.394 . S
C135 H151 0.930 . S
C136 C134 1.371 . S
C136 C137 1.392 . S
C136 H152 0.931 . S
C137 C136 1.392 . S
C137 C138 1.331 . S
C137 H155 0.932 . S
C138 C137 1.331 . S
C138 C139 1.336 . S
C139 C135 1.394 . S
C139 C138 1.336 . S
C139 H154 0.929 . S
C140 C130 1.386 . S
C140 C133 1.357 . S
C140 H153 0.928 . S
H141 C117 0.931 . S
H142 C119 0.930 . S
H143 C121 0.929 . S
H144 C122 0.931 . S
H145 C124 0.930 . S
H146 C128 0.931 . S
H147 C126 0.931 . S
H148 C130 0.931 . S
H149 C131 0.929 . S
H150 C132 0.930 . S
H151 C135 0.930 . S
H152 C136 0.931 . S
H153 C140 0.928 . S
H154 C139 0.929 . S
H155 C137 0.932 . S
C156 C157 1.386 . S
C156 C158 1.397 . S
C156 H180 0.931 . S
C157 C156 1.386 . S
C157 C161 1.397 . S
C158 C156 1.397 . S
C158 C159 1.384 . S
C158 H181 0.930 . S
C159 C158 1.384 . S
C159 C160 1.377 . S
C159 C162 1.481 . S
C160 C159 1.377 . S
C160 C161 1.389 . S
C160 H182 0.929 . S
C161 C157 1.397 . S
C161 C160 1.389 . S
C161 H183 0.931 . S
C162 C159 1.481 . S
C162 C163 1.387 . S
C162 C167 1.390 . S
C163 C162 1.387 . S
C163 C164 1.401 . S
C163 H184 0.930 . S
C164 C163 1.401 . S
C164 C165 1.376 . S
C164 C173 1.511 . S
C165 C164 1.376 . S
C165 C166 1.392 . S
C165 H186 0.931 . S
C166 C165 1.392 . S
C166 C167 1.361 . S
C166 C168 1.500 . S
C167 C162 1.390 . S
C167 C166 1.361 . S
C167 H185 0.931 . S
C168 C166 1.500 . S
C168 C169 1.371 . S
C168 C170 1.365 . S
C169 C168 1.371 . S
C169 C179 1.386 . S
C169 H187 0.931 . S
C170 C168 1.365 . S
C170 C171 1.409 . S
C170 H188 0.929 . S
C171 C170 1.409 . S
C171 C172 1.380 . S
C171 H189 0.930 . S
C172 C171 1.380 . S
C172 C179 1.357 . S
C173 C164 1.511 . S
C173 C174 1.341 . S
C173 C175 1.371 . S
C174 C173 1.341 . S
C174 C178 1.394 . S
C174 H190 0.930 . S
C175 C173 1.371 . S
C175 C176 1.392 . S
C175 H191 0.931 . S
C176 C175 1.392 . S
C176 C177 1.331 . S
C176 H194 0.932 . S
C177 C176 1.331 . S
C177 C178 1.336 . S
C178 C174 1.394 . S
C178 C177 1.336 . S
C178 H193 0.929 . S
C179 C169 1.386 . S
C179 C172 1.357 . S
C179 H192 0.928 . S
H180 C156 0.931 . S
H181 C158 0.930 . S
H182 C160 0.929 . S
H183 C161 0.931 . S
H184 C163 0.930 . S
H185 C167 0.931 . S
H186 C165 0.931 . S
H187 C169 0.931 . S
H188 C170 0.929 . S
H189 C171 0.930 . S
H190 C174 0.930 . S
H191 C175 0.931 . S
H192 C179 0.928 . S
H193 C178 0.929 . S
H194 C176 0.932 . S
C195 C196 1.386 . S
C195 C197 1.397 . S
C195 H219 0.931 . S
C196 C195 1.386 . S
C196 C200 1.397 . S
C197 C195 1.397 . S
C197 C198 1.384 . S
C197 H220 0.930 . S
C198 C197 1.384 . S
C198 C199 1.377 . S
C198 C201 1.481 . S
C199 C198 1.377 . S
C199 C200 1.389 . S
C199 H221 0.929 . S
C200 C196 1.397 . S
C200 C199 1.389 . S
C200 H222 0.931 . S
C201 C198 1.481 . S
C201 C202 1.387 . S
C201 C206 1.390 . S
C202 C201 1.387 . S
C202 C203 1.401 . S
C202 H223 0.930 . S
C203 C202 1.401 . S
C203 C204 1.376 . S
C203 C212 1.511 . S
C204 C203 1.376 . S
C204 C205 1.392 . S
C204 H225 0.931 . S
C205 C204 1.392 . S
C205 C206 1.361 . S
C205 C207 1.500 . S
C206 C201 1.390 . S
C206 C205 1.361 . S
C206 H224 0.931 . S
C207 C205 1.500 . S
C207 C208 1.371 . S
C207 C209 1.365 . S
C208 C207 1.371 . S
C208 C218 1.386 . S
C208 H226 0.931 . S
C209 C207 1.365 . S
C209 C210 1.409 . S
C209 H227 0.929 . S
C210 C209 1.409 . S
C210 C211 1.380 . S
C210 H228 0.930 . S
C211 C210 1.380 . S
C211 C218 1.357 . S
C212 C203 1.511 . S
C212 C213 1.341 . S
C212 C214 1.371 . S
C213 C212 1.341 . S
C213 C217 1.394 . S
C213 H229 0.930 . S
C214 C212 1.371 . S
C214 C215 1.392 . S
C214 H230 0.931 . S
C215 C214 1.392 . S
C215 C216 1.331 . S
C215 H233 0.932 . S
C216 C215 1.331 . S
C216 C217 1.336 . S
C217 C213 1.394 . S
C217 C216 1.336 . S
C217 H232 0.929 . S
C218 C208 1.386 . S
C218 C211 1.357 . S
C218 H231 0.928 . S
H219 C195 0.931 . S
H220 C197 0.930 . S
H221 C199 0.929 . S
H222 C200 0.931 . S
H223 C202 0.930 . S
H224 C206 0.931 . S
H225 C204 0.931 . S
H226 C208 0.931 . S
H227 C209 0.929 . S
H228 C210 0.930 . S
H229 C213 0.930 . S
H230 C214 0.931 . S
H231 C218 0.928 . S
H232 C217 0.929 . S
H233 C215 0.932 . S
C234 C235 1.386 . S
C234 C236 1.397 . S
C234 H258 0.931 . S
C235 C234 1.386 . S
C235 C239 1.397 . S
C236 C234 1.397 . S
C236 C237 1.384 . S
C236 H259 0.930 . S
C237 C236 1.384 . S
C237 C238 1.377 . S
C237 C240 1.481 . S
C238 C237 1.377 . S
C238 C239 1.389 . S
C238 H260 0.929 . S
C239 C235 1.397 . S
C239 C238 1.389 . S
C239 H261 0.931 1_655 S
C240 C237 1.481 . S
C240 C241 1.387 . S
C240 C245 1.390 . S
C241 C240 1.387 . S
C241 C242 1.401 . S
C241 H262 0.930 . S
C242 C241 1.401 . S
C242 C243 1.376 . S
C242 C251 1.511 . S
C243 C242 1.376 . S
C243 C244 1.392 . S
C243 H264 0.931 . S
C244 C243 1.392 . S
C244 C245 1.361 . S
C244 C246 1.500 . S
C245 C240 1.390 . S
C245 C244 1.361 . S
C245 H263 0.931 . S
C246 C244 1.500 . S
C246 C247 1.371 . S
C246 C248 1.365 . S
C247 C246 1.371 . S
C247 C257 1.386 . S
C247 H265 0.931 . S
C248 C246 1.365 . S
C248 C249 1.409 . S
C248 H266 0.929 . S
C249 C248 1.409 . S
C249 C250 1.380 . S
C249 H267 0.930 . S
C250 C249 1.380 . S
C250 C257 1.357 . S
C251 C242 1.511 . S
C251 C252 1.341 . S
C251 C253 1.371 . S
C252 C251 1.341 . S
C252 C256 1.394 . S
C252 H268 0.930 . S
C253 C251 1.371 . S
C253 C254 1.392 . S
C253 H269 0.931 . S
C254 C253 1.392 . S
C254 C255 1.331 . S
C254 H272 0.932 . S
C255 C254 1.331 . S
C255 C256 1.336 . S
C256 C252 1.394 . S
C256 C255 1.336 . S
C256 H271 0.929 . S
C257 C247 1.386 . S
C257 C250 1.357 . S
C257 H270 0.928 . S
H258 C234 0.931 . S
H259 C236 0.930 . S
H260 C238 0.929 . S
H261 C239 0.931 1_455 S
H262 C241 0.930 . S
H263 C245 0.931 . S
H264 C243 0.931 . S
H265 C247 0.931 . S
H266 C248 0.929 . S
H267 C249 0.930 . S
H268 C252 0.930 . S
H269 C253 0.931 . S
H270 C257 0.928 . S
H271 C256 0.929 . S
H272 C254 0.932 . S
C273 C274 1.386 . S
C273 C275 1.397 . S
C273 H297 0.931 . S
C274 C273 1.386 . S
C274 C278 1.397 . S
C275 C273 1.397 . S
C275 C276 1.384 . S
C275 H298 0.930 . S
C276 C275 1.384 . S
C276 C277 1.377 . S
C276 C279 1.481 . S
C277 C276 1.377 . S
C277 C278 1.389 . S
C277 H299 0.929 . S
C278 C274 1.397 . S
C278 C277 1.389 . S
C278 H300 0.931 . S
C279 C276 1.481 . S
C279 C280 1.387 . S
C279 C284 1.390 . S
C280 C279 1.387 . S
C280 C281 1.401 . S
C280 H301 0.930 . S
C281 C280 1.401 . S
C281 C282 1.376 . S
C281 C290 1.511 . S
C282 C281 1.376 . S
C282 C283 1.392 . S
C282 H303 0.931 . S
C283 C282 1.392 . S
C283 C284 1.361 . S
C283 C285 1.500 . S
C284 C279 1.390 . S
C284 C283 1.361 . S
C284 H302 0.931 . S
C285 C283 1.500 . S
C285 C286 1.371 . S
C285 C287 1.365 . S
C286 C285 1.371 . S
C286 C296 1.386 . S
C286 H304 0.931 . S
C287 C285 1.365 . S
C287 C288 1.409 . S
C287 H305 0.929 . S
C288 C287 1.409 . S
C288 C289 1.380 . S
C288 H306 0.930 . S
C289 C288 1.380 . S
C289 C296 1.357 . S
C290 C281 1.511 . S
C290 C291 1.341 . S
C290 C292 1.371 . S
C291 C290 1.341 . S
C291 C295 1.394 . S
C291 H307 0.930 . S
C292 C290 1.371 . S
C292 C293 1.392 . S
C292 H308 0.931 . S
C293 C292 1.392 . S
C293 C294 1.331 . S
C293 H311 0.932 . S
C294 C293 1.331 . S
C294 C295 1.336 . S
C295 C291 1.394 . S
C295 C294 1.336 . S
C295 H310 0.929 . S
C296 C286 1.386 . S
C296 C289 1.357 . S
C296 H309 0.928 . S
H297 C273 0.931 . S
H298 C275 0.930 . S
H299 C277 0.929 . S
H300 C278 0.931 . S
H301 C280 0.930 . S
H302 C284 0.931 . S
H303 C282 0.931 . S
H304 C286 0.931 . S
H305 C287 0.929 . S
H306 C288 0.930 . S
H307 C291 0.930 . S
H308 C292 0.931 . S
H309 C296 0.928 . S
H310 C295 0.929 . S
H311 C293 0.932 . S
C312 C313 1.386 . S
C312 C314 1.397 . S
C312 H336 0.931 . S
C313 C312 1.386 . S
C313 C317 1.397 . S
C314 C312 1.397 . S
C314 C315 1.384 . S
C314 H337 0.930 . S
C315 C314 1.384 . S
C315 C316 1.377 . S
C315 C318 1.481 . S
C316 C315 1.377 . S
C316 C317 1.389 . S
C316 H338 0.929 . S
C317 C313 1.397 . S
C317 C316 1.389 . S
C317 H339 0.931 . S
C318 C315 1.481 . S
C318 C319 1.387 . S
C318 C323 1.390 . S
C319 C318 1.387 . S
C319 C320 1.401 . S
C319 H340 0.930 . S
C320 C319 1.401 . S
C320 C321 1.376 . S
C320 C329 1.511 . S
C321 C320 1.376 . S
C321 C322 1.392 . S
C321 H342 0.931 . S
C322 C321 1.392 . S
C322 C323 1.361 . S
C322 C324 1.500 . S
C323 C318 1.390 . S
C323 C322 1.361 . S
C323 H341 0.931 . S
C324 C322 1.500 . S
C324 C325 1.371 . S
C324 C326 1.365 . S
C325 C324 1.371 . S
C325 C335 1.386 . S
C325 H343 0.931 . S
C326 C324 1.365 . S
C326 C327 1.409 . S
C326 H344 0.929 . S
C327 C326 1.409 . S
C327 C328 1.380 . S
C327 H345 0.930 . S
C328 C327 1.380 . S
C328 C335 1.357 . S
C329 C320 1.511 . S
C329 C330 1.341 . S
C329 C331 1.371 . S
C330 C329 1.341 . S
C330 C334 1.394 . S
C330 H346 0.930 . S
C331 C329 1.371 . S
C331 C332 1.392 . S
C331 H347 0.931 . S
C332 C331 1.392 . S
C332 C333 1.331 . S
C332 H350 0.932 . S
C333 C332 1.331 . S
C333 C334 1.336 . S
C334 C330 1.394 . S
C334 C333 1.336 . S
C334 H349 0.929 . S
C335 C325 1.386 . S
C335 C328 1.357 . S
C335 H348 0.928 . S
H336 C312 0.931 . S
H337 C314 0.930 . S
H338 C316 0.929 . S
H339 C317 0.931 . S
H340 C319 0.930 . S
H341 C323 0.931 . S
H342 C321 0.931 . S
H343 C325 0.931 . S
H344 C326 0.929 . S
H345 C327 0.930 . S
H346 C330 0.930 . S
H347 C331 0.931 . S
H348 C335 0.928 . S
H349 C334 0.929 . S
H350 C332 0.932 . S
C351 C352 1.386 . S
C351 C353 1.397 . S
C351 H375 0.931 . S
C352 C351 1.386 . S
C352 C356 1.397 . S
C353 C351 1.397 . S
C353 C354 1.384 . S
C353 H376 0.930 . S
C354 C353 1.384 . S
C354 C355 1.377 . S
C354 C357 1.481 . S
C355 C354 1.377 . S
C355 C356 1.389 . S
C355 H377 0.929 . S
C356 C352 1.397 . S
C356 C355 1.389 . S
C356 H378 0.931 . S
C357 C354 1.481 . S
C357 C358 1.387 . S
C357 C362 1.390 . S
C358 C357 1.387 . S
C358 C359 1.401 . S
C358 H379 0.930 . S
C359 C358 1.401 . S
C359 C360 1.376 . S
C359 C368 1.511 . S
C360 C359 1.376 . S
C360 C361 1.392 . S
C360 H381 0.931 . S
C361 C360 1.392 . S
C361 C362 1.361 . S
C361 C363 1.500 . S
C362 C357 1.390 . S
C362 C361 1.361 . S
C362 H380 0.931 . S
C363 C361 1.500 . S
C363 C364 1.371 . S
C363 C365 1.365 . S
C364 C363 1.371 . S
C364 C374 1.386 . S
C364 H382 0.931 . S
C365 C363 1.365 . S
C365 C366 1.409 . S
C365 H383 0.929 . S
C366 C365 1.409 . S
C366 C367 1.380 . S
C366 H384 0.930 . S
C367 C366 1.380 . S
C367 C374 1.357 . S
C368 C359 1.511 . S
C368 C369 1.341 . S
C368 C370 1.371 . S
C369 C368 1.341 . S
C369 C373 1.394 . S
C369 H385 0.930 . S
C370 C368 1.371 . S
C370 C371 1.392 . S
C370 H386 0.931 . S
C371 C370 1.392 . S
C371 C372 1.331 . S
C371 H389 0.932 . S
C372 C371 1.331 . S
C372 C373 1.336 . S
C373 C369 1.394 . S
C373 C372 1.336 . S
C373 H388 0.929 . S
C374 C364 1.386 . S
C374 C367 1.357 . S
C374 H387 0.928 . S
H375 C351 0.931 . S
H376 C353 0.930 . S
H377 C355 0.929 . S
H378 C356 0.931 . S
H379 C358 0.930 . S
H380 C362 0.931 . S
H381 C360 0.931 . S
H382 C364 0.931 . S
H383 C365 0.929 . S
H384 C366 0.930 . S
H385 C369 0.930 . S
H386 C370 0.931 . S
H387 C374 0.928 . S
H388 C373 0.929 . S
H389 C371 0.932 . S
C390 C391 1.386 . S
C390 C392 1.397 . S
C390 H414 0.931 . S
C391 C390 1.386 . S
C391 C395 1.397 . S
C392 C390 1.397 . S
C392 C393 1.384 . S
C392 H415 0.930 . S
C393 C392 1.384 . S
C393 C394 1.377 . S
C393 C396 1.481 . S
C394 C393 1.377 . S
C394 C395 1.389 . S
C394 H416 0.929 . S
C395 C391 1.397 . S
C395 C394 1.389 . S
C395 H417 0.931 . S
C396 C393 1.481 . S
C396 C397 1.387 . S
C396 C401 1.390 . S
C397 C396 1.387 . S
C397 C398 1.401 . S
C397 H418 0.930 . S
C398 C397 1.401 . S
C398 C399 1.376 . S
C398 C407 1.511 . S
C399 C398 1.376 . S
C399 C400 1.392 . S
C399 H420 0.931 . S
C400 C399 1.392 . S
C400 C401 1.361 . S
C400 C402 1.500 . S
C401 C396 1.390 . S
C401 C400 1.361 . S
C401 H419 0.931 . S
C402 C400 1.500 . S
C402 C403 1.371 . S
C402 C404 1.365 . S
C403 C402 1.371 . S
C403 C413 1.386 . S
C403 H421 0.931 . S
C404 C402 1.365 . S
C404 C405 1.409 . S
C404 H422 0.929 . S
C405 C404 1.409 . S
C405 C406 1.380 . S
C405 H423 0.930 . S
C406 C405 1.380 . S
C406 C413 1.357 . S
C407 C398 1.511 . S
C407 C408 1.341 . S
C407 C409 1.371 . S
C408 C407 1.341 . S
C408 C412 1.394 . S
C408 H424 0.930 . S
C409 C407 1.371 . S
C409 C410 1.392 . S
C409 H425 0.931 . S
C410 C409 1.392 . S
C410 C411 1.331 . S
C410 H428 0.932 . S
C411 C410 1.331 . S
C411 C412 1.336 . S
C412 C408 1.394 . S
C412 C411 1.336 . S
C412 H427 0.929 . S
C413 C403 1.386 . S
C413 C406 1.357 . S
C413 H426 0.928 . S
H414 C390 0.931 . S
H415 C392 0.930 . S
H416 C394 0.929 . S
H417 C395 0.931 . S
H418 C397 0.930 . S
H419 C401 0.931 . S
H420 C399 0.931 . S
H421 C403 0.931 . S
H422 C404 0.929 . S
H423 C405 0.930 . S
H424 C408 0.930 . S
H425 C409 0.931 . S
H426 C413 0.928 . S
H427 C412 0.929 . S
H428 C410 0.932 . S
C429 C430 1.386 . S
C429 C431 1.397 . S
C429 H453 0.931 . S
C430 C429 1.386 . S
C430 C434 1.397 . S
C431 C429 1.397 . S
C431 C432 1.384 . S
C431 H454 0.930 . S
C432 C431 1.384 . S
C432 C433 1.377 . S
C432 C435 1.481 . S
C433 C432 1.377 . S
C433 C434 1.389 . S
C433 H455 0.929 . S
C434 C430 1.397 . S
C434 C433 1.389 . S
C434 H456 0.931 . S
C435 C432 1.481 . S
C435 C436 1.387 . S
C435 C440 1.390 . S
C436 C435 1.387 . S
C436 C437 1.401 . S
C436 H457 0.930 . S
C437 C436 1.401 . S
C437 C438 1.376 . S
C437 C446 1.511 . S
C438 C437 1.376 . S
C438 C439 1.392 . S
C438 H459 0.931 . S
C439 C438 1.392 . S
C439 C440 1.361 . S
C439 C441 1.500 . S
C440 C435 1.390 . S
C440 C439 1.361 . S
C440 H458 0.931 . S
C441 C439 1.500 . S
C441 C442 1.371 . S
C441 C443 1.365 . S
C442 C441 1.371 . S
C442 C452 1.386 . S
C442 H460 0.931 . S
C443 C441 1.365 . S
C443 C444 1.409 . S
C443 H461 0.929 . S
C444 C443 1.409 . S
C444 C445 1.380 . S
C444 H462 0.930 . S
C445 C444 1.380 . S
C445 C452 1.357 . S
C446 C437 1.511 . S
C446 C447 1.341 . S
C446 C448 1.371 . S
C447 C446 1.341 . S
C447 C451 1.394 . S
C447 H463 0.930 . S
C448 C446 1.371 . S
C448 C449 1.392 . S
C448 H464 0.931 . S
C449 C448 1.392 . S
C449 C450 1.331 . S
C449 H467 0.932 . S
C450 C449 1.331 . S
C450 C451 1.336 . S
C451 C447 1.394 . S
C451 C450 1.336 . S
C451 H466 0.929 . S
C452 C442 1.386 . S
C452 C445 1.357 . S
C452 H465 0.928 . S
H453 C429 0.931 . S
H454 C431 0.930 . S
H455 C433 0.929 . S
H456 C434 0.931 . S
H457 C436 0.930 . S
H458 C440 0.931 . S
H459 C438 0.931 . S
H460 C442 0.931 . S
H461 C443 0.929 . S
H462 C444 0.930 . S
H463 C447 0.930 . S
H464 C448 0.931 . S
H465 C452 0.928 . S
H466 C451 0.929 . S
H467 C449 0.932 . S
C468 C469 1.386 . S
C468 C470 1.397 . S
C468 H492 0.931 . S
C469 C468 1.386 . S
C469 C473 1.397 . S
C470 C468 1.397 . S
C470 C471 1.384 . S
C470 H493 0.930 . S
C471 C470 1.384 . S
C471 C472 1.377 . S
C471 C474 1.481 . S
C472 C471 1.377 . S
C472 C473 1.389 . S
C472 H494 0.929 . S
C473 C469 1.397 . S
C473 C472 1.389 . S
C473 H495 0.931 . S
C474 C471 1.481 . S
C474 C475 1.387 . S
C474 C479 1.390 . S
C475 C474 1.387 . S
C475 C476 1.401 . S
C475 H496 0.930 . S
C476 C475 1.401 . S
C476 C477 1.376 . S
C476 C485 1.511 . S
C477 C476 1.376 . S
C477 C478 1.392 . S
C477 H498 0.931 . S
C478 C477 1.392 . S
C478 C479 1.361 . S
C478 C480 1.500 . S
C479 C474 1.390 . S
C479 C478 1.361 . S
C479 H497 0.931 . S
C480 C478 1.500 . S
C480 C481 1.371 . S
C480 C482 1.365 . S
C481 C480 1.371 . S
C481 C491 1.386 . S
C481 H499 0.931 . S
C482 C480 1.365 . S
C482 C483 1.409 . S
C482 H500 0.929 . S
C483 C482 1.409 . S
C483 C484 1.380 . S
C483 H501 0.930 . S
C484 C483 1.380 . S
C484 C491 1.357 . S
C485 C476 1.511 . S
C485 C486 1.341 . S
C485 C487 1.371 . S
C486 C485 1.341 . S
C486 C490 1.394 . S
C486 H502 0.930 . S
C487 C485 1.371 . S
C487 C488 1.392 . S
C487 H503 0.931 . S
C488 C487 1.392 . S
C488 C489 1.331 . S
C488 H506 0.932 . S
C489 C488 1.331 . S
C489 C490 1.336 . S
C490 C486 1.394 . S
C490 C489 1.336 . S
C490 H505 0.929 . S
C491 C481 1.386 . S
C491 C484 1.357 . S
C491 H504 0.928 . S
H492 C468 0.931 . S
H493 C470 0.930 . S
H494 C472 0.929 . S
H495 C473 0.931 . S
H496 C475 0.930 . S
H497 C479 0.931 . S
H498 C477 0.931 . S
H499 C481 0.931 . S
H500 C482 0.929 . S
H501 C483 0.930 . S
H502 C486 0.930 . S
H503 C487 0.931 . S
H504 C491 0.928 . S
H505 C490 0.929 . S
H506 C488 0.932 . S
C507 C508 1.386 . S
C507 C509 1.397 . S
C507 H531 0.931 . S
C508 C507 1.386 . S
C508 C512 1.397 . S
C509 C507 1.397 . S
C509 C510 1.384 . S
C509 H532 0.930 . S
C510 C509 1.384 . S
C510 C511 1.377 . S
C510 C513 1.481 . S
C511 C510 1.377 . S
C511 C512 1.389 . S
C511 H533 0.929 . S
C512 C508 1.397 . S
C512 C511 1.389 . S
C512 H534 0.931 . S
C513 C510 1.481 . S
C513 C514 1.387 . S
C513 C518 1.390 . S
C514 C513 1.387 . S
C514 C515 1.401 . S
C514 H535 0.930 . S
C515 C514 1.401 . S
C515 C516 1.376 . S
C515 C524 1.511 . S
C516 C515 1.376 . S
C516 C517 1.392 . S
C516 H537 0.931 . S
C517 C516 1.392 . S
C517 C518 1.361 . S
C517 C519 1.500 . S
C518 C513 1.390 . S
C518 C517 1.361 . S
C518 H536 0.931 . S
C519 C517 1.500 . S
C519 C520 1.371 . S
C519 C521 1.365 . S
C520 C519 1.371 . S
C520 C530 1.386 . S
C520 H538 0.931 . S
C521 C519 1.365 . S
C521 C522 1.409 . S
C521 H539 0.929 . S
C522 C521 1.409 . S
C522 C523 1.380 . S
C522 H540 0.930 . S
C523 C522 1.380 . S
C523 C530 1.357 . S
C524 C515 1.511 . S
C524 C525 1.341 . S
C524 C526 1.371 . S
C525 C524 1.341 . S
C525 C529 1.394 . S
C525 H541 0.930 . S
C526 C524 1.371 . S
C526 C527 1.392 . S
C526 H542 0.931 . S
C527 C526 1.392 . S
C527 C528 1.331 . S
C527 H545 0.932 . S
C528 C527 1.331 . S
C528 C529 1.336 . S
C529 C525 1.394 . S
C529 C528 1.336 . S
C529 H544 0.929 . S
C530 C520 1.386 . S
C530 C523 1.357 . S
C530 H543 0.928 . S
H531 C507 0.931 . S
H532 C509 0.930 . S
H533 C511 0.929 . S
H534 C512 0.931 . S
H535 C514 0.930 . S
H536 C518 0.931 . S
H537 C516 0.931 . S
H538 C520 0.931 . S
H539 C521 0.929 . S
H540 C522 0.930 . S
H541 C525 0.930 . S
H542 C526 0.931 . S
H543 C530 0.928 . S
H544 C529 0.929 . S
H545 C527 0.932 . S
C546 C547 1.386 . S
C546 C548 1.397 . S
C546 H570 0.931 . S
C547 C546 1.386 . S
C547 C551 1.397 . S
C548 C546 1.397 . S
C548 C549 1.384 . S
C548 H571 0.930 . S
C549 C548 1.384 . S
C549 C550 1.377 . S
C549 C552 1.481 . S
C550 C549 1.377 . S
C550 C551 1.389 . S
C550 H572 0.929 . S
C551 C547 1.397 . S
C551 C550 1.389 . S
C551 H573 0.931 . S
C552 C549 1.481 . S
C552 C553 1.387 . S
C552 C557 1.390 . S
C553 C552 1.387 . S
C553 C554 1.401 . S
C553 H574 0.930 . S
C554 C553 1.401 . S
C554 C555 1.376 . S
C554 C563 1.511 . S
C555 C554 1.376 . S
C555 C556 1.392 . S
C555 H576 0.931 . S
C556 C555 1.392 . S
C556 C557 1.361 . S
C556 C558 1.500 . S
C557 C552 1.390 . S
C557 C556 1.361 . S
C557 H575 0.931 . S
C558 C556 1.500 . S
C558 C559 1.371 . S
C558 C560 1.365 . S
C559 C558 1.371 . S
C559 C569 1.386 . S
C559 H577 0.931 . S
C560 C558 1.365 . S
C560 C561 1.409 . S
C560 H578 0.929 . S
C561 C560 1.409 . S
C561 C562 1.380 . S
C561 H579 0.930 . S
C562 C561 1.380 . S
C562 C569 1.357 . S
C563 C554 1.511 . S
C563 C564 1.341 . S
C563 C565 1.371 . S
C564 C563 1.341 . S
C564 C568 1.394 . S
C564 H580 0.930 . S
C565 C563 1.371 . S
C565 C566 1.392 . S
C565 H581 0.931 . S
C566 C565 1.392 . S
C566 C567 1.331 . S
C566 H584 0.932 . S
C567 C566 1.331 . S
C567 C568 1.336 . S
C568 C564 1.394 . S
C568 C567 1.336 . S
C568 H583 0.929 . S
C569 C559 1.386 . S
C569 C562 1.357 . S
C569 H582 0.928 . S
H570 C546 0.931 . S
H571 C548 0.930 . S
H572 C550 0.929 . S
H573 C551 0.931 . S
H574 C553 0.930 . S
H575 C557 0.931 . S
H576 C555 0.931 . S
H577 C559 0.931 . S
H578 C560 0.929 . S
H579 C561 0.930 . S
H580 C564 0.930 . S
H581 C565 0.931 . S
H582 C569 0.928 . S
H583 C568 0.929 . S
H584 C566 0.932 . S
C585 C586 1.386 . S
C585 C587 1.397 . S
C585 H609 0.931 . S
C586 C585 1.386 . S
C586 C590 1.397 . S
C587 C585 1.397 . S
C587 C588 1.384 . S
C587 H610 0.930 . S
C588 C587 1.384 . S
C588 C589 1.377 . S
C588 C591 1.481 . S
C589 C588 1.377 . S
C589 C590 1.389 . S
C589 H611 0.929 . S
C590 C586 1.397 . S
C590 C589 1.389 . S
C590 H612 0.931 . S
C591 C588 1.481 . S
C591 C592 1.387 . S
C591 C596 1.390 . S
C592 C591 1.387 . S
C592 C593 1.401 . S
C592 H613 0.930 . S
C593 C592 1.401 . S
C593 C594 1.376 . S
C593 C602 1.511 . S
C594 C593 1.376 . S
C594 C595 1.392 . S
C594 H615 0.931 . S
C595 C594 1.392 . S
C595 C596 1.361 . S
C595 C597 1.500 . S
C596 C591 1.390 . S
C596 C595 1.361 . S
C596 H614 0.931 . S
C597 C595 1.500 . S
C597 C598 1.371 . S
C597 C599 1.365 . S
C598 C597 1.371 . S
C598 C608 1.386 . S
C598 H616 0.931 . S
C599 C597 1.365 . S
C599 C600 1.409 . S
C599 H617 0.929 . S
C600 C599 1.409 . S
C600 C601 1.380 . S
C600 H618 0.930 . S
C601 C600 1.380 . S
C601 C608 1.357 . S
C602 C593 1.511 . S
C602 C603 1.341 . S
C602 C604 1.371 . S
C603 C602 1.341 . S
C603 C607 1.394 . S
C603 H619 0.930 . S
C604 C602 1.371 . S
C604 C605 1.392 . S
C604 H620 0.931 . S
C605 C604 1.392 . S
C605 C606 1.331 . S
C605 H623 0.932 . S
C606 C605 1.331 . S
C606 C607 1.336 . S
C607 C603 1.394 . S
C607 C606 1.336 . S
C607 H622 0.929 . S
C608 C598 1.386 . S
C608 C601 1.357 . S
C608 H621 0.928 . S
H609 C585 0.931 . S
H610 C587 0.930 . S
H611 C589 0.929 . S
H612 C590 0.931 . S
H613 C592 0.930 . S
H614 C596 0.931 . S
H615 C594 0.931 . S
H616 C598 0.931 . S
H617 C599 0.929 . S
H618 C600 0.930 . S
H619 C603 0.930 . S
H620 C604 0.931 . S
H621 C608 0.928 . S
H622 C607 0.929 . S
H623 C605 0.932 . S
C624 C625 1.386 . S
C624 C626 1.397 . S
C624 H648 0.931 1_455 S
C625 C624 1.386 . S
C625 C629 1.397 . S
C626 C624 1.397 . S
C626 C627 1.384 . S
C626 H649 0.930 . S
C627 C626 1.384 . S
C627 C628 1.377 . S
C627 C630 1.481 . S
C628 C627 1.377 . S
C628 C629 1.389 . S
C628 H650 0.929 . S
C629 C625 1.397 . S
C629 C628 1.389 . S
C629 H651 0.931 . S
C630 C627 1.481 . S
C630 C631 1.387 . S
C630 C635 1.390 . S
C631 C630 1.387 . S
C631 C632 1.401 . S
C631 H652 0.930 . S
C632 C631 1.401 . S
C632 C633 1.376 . S
C632 C641 1.511 . S
C633 C632 1.376 . S
C633 C634 1.392 . S
C633 H654 0.931 . S
C634 C633 1.392 . S
C634 C635 1.361 . S
C634 C636 1.500 . S
C635 C630 1.390 . S
C635 C634 1.361 . S
C635 H653 0.931 . S
C636 C634 1.500 . S
C636 C637 1.371 . S
C636 C638 1.365 . S
C637 C636 1.371 . S
C637 C647 1.386 . S
C637 H655 0.931 . S
C638 C636 1.365 . S
C638 C639 1.409 . S
C638 H656 0.929 . S
C639 C638 1.409 . S
C639 C640 1.380 . S
C639 H657 0.930 . S
C640 C639 1.380 . S
C640 C647 1.357 . S
C641 C632 1.511 . S
C641 C642 1.341 . S
C641 C643 1.371 . S
C642 C641 1.341 . S
C642 C646 1.394 . S
C642 H658 0.930 . S
C643 C641 1.371 . S
C643 C644 1.392 . S
C643 H659 0.931 . S
C644 C643 1.392 . S
C644 C645 1.331 . S
C644 H662 0.932 . S
C645 C644 1.331 . S
C645 C646 1.336 . S
C646 C642 1.394 . S
C646 C645 1.336 . S
C646 H661 0.929 . S
C647 C637 1.386 . S
C647 C640 1.357 . S
C647 H660 0.928 . S
H648 C624 0.931 1_655 S
H649 C626 0.930 . S
H650 C628 0.929 . S
H651 C629 0.931 . S
H652 C631 0.930 . S
H653 C635 0.931 . S
H654 C633 0.931 . S
H655 C637 0.931 . S
H656 C638 0.929 . S
H657 C639 0.930 . S
H658 C642 0.930 . S
H659 C643 0.931 . S
H660 C647 0.928 . S
H661 C646 0.929 . S
H662 C644 0.932 . S
C663 C664 1.386 . S
C663 C665 1.397 . S
C663 H687 0.931 . S
C664 C663 1.386 . S
C664 C668 1.397 . S
C665 C663 1.397 . S
C665 C666 1.384 . S
C665 H688 0.930 . S
C666 C665 1.384 . S
C666 C667 1.377 . S
C666 C669 1.481 . S
C667 C666 1.377 . S
C667 C668 1.389 . S
C667 H689 0.929 . S
C668 C664 1.397 . S
C668 C667 1.389 . S
C668 H690 0.931 . S
C669 C666 1.481 . S
C669 C670 1.387 . S
C669 C674 1.390 . S
C670 C669 1.387 . S
C670 C671 1.401 . S
C670 H691 0.930 . S
C671 C670 1.401 . S
C671 C672 1.376 . S
C671 C680 1.511 . S
C672 C671 1.376 . S
C672 C673 1.392 . S
C672 H693 0.931 . S
C673 C672 1.392 . S
C673 C674 1.361 . S
C673 C675 1.500 . S
C674 C669 1.390 . S
C674 C673 1.361 . S
C674 H692 0.931 . S
C675 C673 1.500 . S
C675 C676 1.371 . S
C675 C677 1.365 . S
C676 C675 1.371 . S
C676 C686 1.386 . S
C676 H694 0.931 . S
C677 C675 1.365 . S
C677 C678 1.409 . S
C677 H695 0.929 . S
C678 C677 1.409 . S
C678 C679 1.380 . S
C678 H696 0.930 . S
C679 C678 1.380 . S
C679 C686 1.357 . S
C680 C671 1.511 . S
C680 C681 1.341 . S
C680 C682 1.371 . S
C681 C680 1.341 . S
C681 C685 1.394 . S
C681 H697 0.930 . S
C682 C680 1.371 . S
C682 C683 1.392 . S
C682 H698 0.931 . S
C683 C682 1.392 . S
C683 C684 1.331 . S
C683 H701 0.932 . S
C684 C683 1.331 . S
C684 C685 1.336 . S
C685 C681 1.394 . S
C685 C684 1.336 . S
C685 H700 0.929 . S
C686 C676 1.386 . S
C686 C679 1.357 . S
C686 H699 0.928 . S
H687 C663 0.931 . S
H688 C665 0.930 . S
H689 C667 0.929 . S
H690 C668 0.931 . S
H691 C670 0.930 . S
H692 C674 0.931 . S
H693 C672 0.931 . S
H694 C676 0.931 . S
H695 C677 0.929 . S
H696 C678 0.930 . S
H697 C681 0.930 . S
H698 C682 0.931 . S
H699 C686 0.928 . S
H700 C685 0.929 . S
H701 C683 0.932 . S
C702 Eu703 2.835 . S
C702 C704 1.500 . S
C702 O722 1.257 1_545 S
C702 O723 1.260 . S
Eu703 C702 2.835 . S
Eu703 O722 2.473 1_545 S
Eu703 O723 2.480 . S
Eu703 O724 2.430 . S
Eu703 O725 2.670 1_554 S
Eu703 O726 2.394 1_545 S
Eu703 O731 2.355 1_545 S
Eu703 O733 2.374 . S
C704 C702 1.500 . S
C704 C705 1.377 . S
C704 C709 1.377 1_545 S
C705 C704 1.377 . S
C705 C706 1.395 . S
C705 H734 0.931 . S
C706 C705 1.395 . S
C706 C707 1.383 1_545 S
C706 H735 0.931 . S
C707 C706 1.383 1_565 S
C707 C708 1.394 . S
C708 C707 1.394 . S
C708 C709 1.378 . S
C708 H736 0.931 . S
C709 C704 1.377 1_565 S
C709 C708 1.378 . S
C709 H737 0.931 . S
C710 O724 1.296 . S
C710 O725 1.257 1_554 S
C711 O726 1.251 . S
C711 O727 1.251 1_554 S
C712 Eu713 2.835 . S
C712 C714 1.500 . S
C712 O728 1.257 1_565 S
C712 O729 1.260 . S
Eu713 C712 2.835 . S
Eu713 O725 2.355 1_565 S
Eu713 O727 2.374 . S
Eu713 O728 2.473 1_565 S
Eu713 O729 2.480 . S
Eu713 O730 2.430 . S
Eu713 O731 2.670 1_556 S
Eu713 O732 2.394 1_565 S
C714 C712 1.500 . S
C714 C715 1.377 . S
C714 C719 1.377 1_565 S
C715 C714 1.377 . S
C715 C716 1.395 . S
C715 H738 0.931 . S
C716 C715 1.395 . S
C716 C717 1.383 1_565 S
C716 H739 0.931 . S
C717 C716 1.383 1_545 S
C717 C718 1.394 . S
C718 C717 1.394 . S
C718 C719 1.378 . S
C718 H740 0.931 . S
C719 C714 1.377 1_545 S
C719 C718 1.378 . S
C719 H741 0.931 . S
C720 O730 1.259 1_554 S
C720 O731 1.270 . S
C721 O732 1.251 . S
C721 O733 1.251 1_556 S
O722 C702 1.257 1_565 S
O722 Eu703 2.473 1_565 S
O723 C702 1.260 . S
O723 Eu703 2.480 . S
O724 Eu703 2.430 . S
O724 C710 1.296 . S
O725 Eu703 2.670 1_556 S
O725 C710 1.257 1_556 S
O725 Eu713 2.355 1_545 S
O726 Eu703 2.394 1_565 S
O726 C711 1.251 . S
O727 C711 1.251 1_556 S
O727 Eu713 2.374 . S
O728 C712 1.257 1_545 S
O728 Eu713 2.473 1_545 S
O729 C712 1.260 . S
O729 Eu713 2.480 . S
O730 Eu713 2.430 . S
O730 C720 1.259 1_556 S
O731 Eu703 2.355 1_565 S
O731 Eu713 2.670 1_554 S
O731 C720 1.270 . S
O732 Eu713 2.394 1_545 S
O732 C721 1.251 . S
O733 Eu703 2.374 . S
O733 C721 1.251 1_554 S
H734 C705 0.931 . S
H735 C706 0.931 . S
H736 C708 0.931 . S
H737 C709 0.931 . S
H738 C715 0.931 . S
H739 C716 0.931 . S
H740 C718 0.931 . S
H741 C719 0.931 . S
C742 Eu743 2.835 . S
C742 C744 1.500 1_655 S
C742 O762 1.257 1_655 S
C742 O763 1.260 . S
Eu743 C742 2.835 . S
Eu743 O762 2.473 1_655 S
Eu743 O763 2.480 . S
Eu743 O764 2.430 . S
Eu743 O765 2.670 1_554 S
Eu743 O766 2.394 1_655 S
Eu743 O771 2.355 1_655 S
Eu743 O773 2.374 . S
C744 C742 1.500 1_455 S
C744 C745 1.377 1_455 S
C744 C749 1.377 . S
C745 C744 1.377 1_655 S
C745 C746 1.395 . S
C745 H774 0.931 . S
C746 C745 1.395 . S
C746 C747 1.383 1_655 S
C746 H775 0.931 . S
C747 C746 1.383 1_455 S
C747 C748 1.394 . S
C748 C747 1.394 . S
C748 C749 1.378 . S
C748 H776 0.931 . S
C749 C744 1.377 . S
C749 C748 1.378 . S
C749 H777 0.931 . S
C750 O764 1.259 1_556 S
C750 O765 1.270 . S
C751 O766 1.251 . S
C751 O767 1.251 . S
C752 Eu753 2.835 . S
C752 C754 1.500 1_455 S
C752 O768 1.257 1_455 S
C752 O769 1.260 . S
Eu753 C752 2.835 . S
Eu753 O765 2.355 1_455 S
Eu753 O767 2.374 1_556 S
Eu753 O768 2.473 1_455 S
Eu753 O769 2.480 . S
Eu753 O770 2.430 . S
Eu753 O771 2.670 1_556 S
Eu753 O772 2.394 1_455 S
C754 C752 1.500 1_655 S
C754 C755 1.377 1_655 S
C754 C759 1.377 . S
C755 C754 1.377 1_455 S
C755 C756 1.395 . S
C755 H778 0.931 . S
C756 C755 1.395 . S
C756 C757 1.383 1_455 S
C756 H779 0.931 . S
C757 C756 1.383 1_655 S
C757 C758 1.394 . S
C758 C757 1.394 . S
C758 C759 1.378 . S
C758 H780 0.931 . S
C759 C754 1.377 . S
C759 C758 1.378 . S
C759 H781 0.931 . S
C760 O770 1.259 1_554 S
C760 O771 1.270 . S
C761 O772 1.251 . S
C761 O773 1.251 1_556 S
O762 C742 1.257 1_455 S
O762 Eu743 2.473 1_455 S
O763 C742 1.260 . S
O763 Eu743 2.480 . S
O764 Eu743 2.430 . S
O764 C750 1.259 1_554 S
O765 Eu743 2.670 1_556 S
O765 C750 1.270 . S
O765 Eu753 2.355 1_655 S
O766 Eu743 2.394 1_455 S
O766 C751 1.251 . S
O767 C751 1.251 . S
O767 Eu753 2.374 1_554 S
O768 C752 1.257 1_655 S
O768 Eu753 2.473 1_655 S
O769 C752 1.260 . S
O769 Eu753 2.480 . S
O770 Eu753 2.430 . S
O770 C760 1.259 1_556 S
O771 Eu743 2.355 1_455 S
O771 Eu753 2.670 1_554 S
O771 C760 1.270 . S
O772 Eu753 2.394 1_655 S
O772 C761 1.251 . S
O773 Eu743 2.374 . S
O773 C761 1.251 1_554 S
H774 C745 0.931 . S
H775 C746 0.931 . S
H776 C748 0.931 . S
H777 C749 0.931 . S
H778 C755 0.931 . S
H779 C756 0.931 . S
H780 C758 0.931 . S
H781 C759 0.931 . S
C782 Eu783 2.835 . S
C782 C784 1.500 . S
C782 O802 1.257 . S
C782 O803 1.260 . S
Eu783 C782 2.835 . S
Eu783 O802 2.473 . S
Eu783 O803 2.480 . S
Eu783 O804 2.430 . S
Eu783 O805 2.670 1_556 S
Eu783 O806 2.394 . S
Eu783 O811 2.355 . S
Eu783 O813 2.338 1_556 S
C784 C782 1.500 . S
C784 C785 1.377 . S
C784 C789 1.377 . S
C785 C784 1.377 . S
C785 C786 1.395 . S
C785 H814 0.931 . S
C786 C785 1.395 . S
C786 C787 1.383 . S
C786 H815 0.931 . S
C787 C786 1.383 . S
C787 C788 1.394 . S
C788 C787 1.394 . S
C788 C789 1.378 . S
C788 H816 0.931 . S
C789 C784 1.377 . S
C789 C788 1.378 . S
C789 H817 0.931 . S
C790 O804 1.259 1_554 S
C790 O805 1.270 . S
C791 O806 1.251 . S
C791 O807 1.251 1_556 S
C792 Eu793 2.835 . S
C792 C794 1.500 . S
C792 O808 1.257 . S
C792 O809 1.260 . S
Eu793 C792 2.835 . S
Eu793 O805 2.355 . S
Eu793 O807 2.374 . S
Eu793 O808 2.473 . S
Eu793 O809 2.480 . S
Eu793 O810 2.430 . S
Eu793 O811 2.670 1_554 S
Eu793 O812 2.394 . S
C794 C792 1.500 . S
C794 C795 1.377 . S
C794 C799 1.377 . S
C795 C794 1.377 . S
C795 C796 1.395 . S
C795 H818 0.931 . S
C796 C795 1.395 . S
C796 C797 1.383 . S
C796 H819 0.931 . S
C797 C796 1.383 . S
C797 C798 1.394 . S
C798 C797 1.394 . S
C798 C799 1.378 . S
C798 H820 0.931 . S
C799 C794 1.377 . S
C799 C798 1.378 . S
C799 H821 0.931 . S
C800 O810 1.259 1_556 S
C800 O811 1.270 . S
C801 O812 1.251 . S
C801 O813 1.299 . S
O802 C782 1.257 . S
O802 Eu783 2.473 . S
O803 C782 1.260 . S
O803 Eu783 2.480 . S
O804 Eu783 2.430 . S
O804 C790 1.259 1_556 S
O805 Eu783 2.670 1_554 S
O805 C790 1.270 . S
O805 Eu793 2.355 . S
O806 Eu783 2.394 . S
O806 C791 1.251 . S
O807 C791 1.251 1_554 S
O807 Eu793 2.374 . S
O808 C792 1.257 . S
O808 Eu793 2.473 . S
O809 C792 1.260 . S
O809 Eu793 2.480 . S
O810 Eu793 2.430 . S
O810 C800 1.259 1_554 S
O811 Eu783 2.355 . S
O811 Eu793 2.670 1_556 S
O811 C800 1.270 . S
O812 Eu793 2.394 . S
O812 C801 1.251 . S
O813 Eu783 2.338 1_554 S
O813 C801 1.299 . S
H814 C785 0.931 . S
H815 C786 0.931 . S
H816 C788 0.931 . S
H817 C789 0.931 . S
H818 C795 0.931 . S
H819 C796 0.931 . S
H820 C798 0.931 . S
H821 C799 0.931 . S
C822 Eu823 2.835 . S
C822 C824 1.500 . S
C822 O842 1.257 . S
C822 O843 1.260 . S
Eu823 C822 2.835 . S
Eu823 O842 2.473 . S
Eu823 O843 2.480 . S
Eu823 O844 2.430 . S
Eu823 O845 2.670 . S
Eu823 O846 2.394 . S
Eu823 O851 2.355 . S
Eu823 O853 2.374 . S
C824 C822 1.500 . S
C824 C825 1.377 . S
C824 C829 1.377 . S
C825 C824 1.377 . S
C825 C826 1.395 . S
C825 H854 0.931 . S
C826 C825 1.395 . S
C826 C827 1.383 . S
C826 H855 0.931 . S
C827 C826 1.383 . S
C827 C828 1.394 . S
C828 C827 1.394 . S
C828 C829 1.378 . S
C828 H856 0.931 . S
C829 C824 1.377 . S
C829 C828 1.378 . S
C829 H857 0.931 . S
C830 O844 1.259 . S
C830 O845 1.270 . S
C831 O846 1.251 . S
C831 O847 1.251 . S
C832 Eu833 2.835 . S
C832 C834 1.500 . S
C832 O848 1.257 . S
C832 O849 1.260 . S
Eu833 C832 2.835 . S
Eu833 O845 2.355 . S
Eu833 O847 2.374 . S
Eu833 O848 2.473 . S
Eu833 O849 2.480 . S
Eu833 O850 2.430 . S
Eu833 O851 2.670 . S
Eu833 O852 2.394 . S
C834 C832 1.500 . S
C834 C835 1.377 . S
C834 C839 1.377 . S
C835 C834 1.377 . S
C835 C836 1.395 . S
C835 H858 0.931 . S
C836 C835 1.395 . S
C836 C837 1.383 . S
C836 H859 0.931 . S
C837 C836 1.383 . S
C837 C838 1.394 . S
C838 C837 1.394 . S
C838 C839 1.378 . S
C838 H860 0.931 . S
C839 C834 1.377 . S
C839 C838 1.378 . S
C839 H861 0.931 . S
C840 O850 1.259 . S
C840 O851 1.270 . S
C841 O852 1.251 . S
C841 O853 1.251 . S
O842 C822 1.257 . S
O842 Eu823 2.473 . S
O843 C822 1.260 . S
O843 Eu823 2.480 . S
O844 Eu823 2.430 . S
O844 C830 1.259 . S
O845 Eu823 2.670 . S
O845 C830 1.270 . S
O845 Eu833 2.355 . S
O846 Eu823 2.394 . S
O846 C831 1.251 . S
O847 C831 1.251 . S
O847 Eu833 2.374 . S
O848 C832 1.257 . S
O848 Eu833 2.473 . S
O849 C832 1.260 . S
O849 Eu833 2.480 . S
O850 Eu833 2.430 . S
O850 C840 1.259 . S
O851 Eu823 2.355 . S
O851 Eu833 2.670 . S
O851 C840 1.270 . S
O852 Eu833 2.394 . S
O852 C841 1.251 . S
O853 Eu823 2.374 . S
O853 C841 1.251 . S
H854 C825 0.931 . S
H855 C826 0.931 . S
H856 C828 0.931 . S
H857 C829 0.931 . S
H858 C835 0.931 . S
H859 C836 0.931 . S
H860 C838 0.931 . S
H861 C839 0.931 . S
C862 Eu863 2.835 . S
C862 C864 1.500 . S
C862 O882 1.257 . S
C862 O883 1.260 . S
Eu863 C862 2.835 . S
Eu863 O882 2.473 . S
Eu863 O883 2.480 . S
Eu863 O884 2.430 . S
Eu863 O885 2.670 . S
Eu863 O886 2.394 . S
Eu863 O891 2.355 . S
Eu863 O893 2.374 . S
C864 C862 1.500 . S
C864 C865 1.377 . S
C864 C869 1.377 . S
C865 C864 1.377 . S
C865 C866 1.395 . S
C865 H894 0.931 . S
C866 C865 1.395 . S
C866 C867 1.383 . S
C866 H895 0.931 . S
C867 C866 1.383 . S
C867 C868 1.394 . S
C868 C867 1.394 . S
C868 C869 1.378 . S
C868 H896 0.931 . S
C869 C864 1.377 . S
C869 C868 1.378 . S
C869 H897 0.931 . S
C870 O884 1.259 . S
C870 O885 1.270 . S
C871 O886 1.251 . S
C871 O887 1.251 . S
C872 Eu873 2.835 . S
C872 C874 1.500 . S
C872 O888 1.257 . S
C872 O889 1.260 . S
Eu873 C872 2.835 . S
Eu873 O885 2.355 . S
Eu873 O887 2.374 . S
Eu873 O888 2.473 . S
Eu873 O889 2.480 . S
Eu873 O890 2.430 . S
Eu873 O891 2.670 . S
Eu873 O892 2.394 . S
C874 C872 1.500 . S
C874 C875 1.377 . S
C874 C879 1.377 . S
C875 C874 1.377 . S
C875 C876 1.395 . S
C875 H898 0.931 . S
C876 C875 1.395 . S
C876 C877 1.383 . S
C876 H899 0.931 . S
C877 C876 1.383 . S
C877 C878 1.394 . S
C878 C877 1.394 . S
C878 C879 1.378 . S
C878 H900 0.931 . S
C879 C874 1.377 . S
C879 C878 1.378 . S
C879 H901 0.931 . S
C880 O890 1.259 . S
C880 O891 1.270 . S
C881 O892 1.251 . S
C881 O893 1.251 . S
O882 C862 1.257 . S
O882 Eu863 2.473 . S
O883 C862 1.260 . S
O883 Eu863 2.480 . S
O884 Eu863 2.430 . S
O884 C870 1.259 . S
O885 Eu863 2.670 . S
O885 C870 1.270 . S
O885 Eu873 2.355 . S
O886 Eu863 2.394 . S
O886 C871 1.251 . S
O887 C871 1.251 . S
O887 Eu873 2.374 . S
O888 C872 1.257 . S
O888 Eu873 2.473 . S
O889 C872 1.260 . S
O889 Eu873 2.480 . S
O890 Eu873 2.430 . S
O890 C880 1.259 . S
O891 Eu863 2.355 . S
O891 Eu873 2.670 . S
O891 C880 1.270 . S
O892 Eu873 2.394 . S
O892 C881 1.251 . S
O893 Eu863 2.374 . S
O893 C881 1.251 . S
H894 C865 0.931 . S
H895 C866 0.931 . S
H896 C868 0.931 . S
H897 C869 0.931 . S
H898 C875 0.931 . S
H899 C876 0.931 . S
H900 C878 0.931 . S
H901 C879 0.931 . S
C902 Eu903 2.835 . S
C902 C904 1.500 . S
C902 O922 1.257 . S
C902 O923 1.260 . S
Eu903 C902 2.835 . S
Eu903 O922 2.473 . S
Eu903 O923 2.480 . S
Eu903 O924 2.430 . S
Eu903 O925 2.670 . S
Eu903 O926 2.394 . S
Eu903 O931 2.355 . S
Eu903 O933 2.374 . S
C904 C902 1.500 . S
C904 C905 1.377 . S
C904 C909 1.377 . S
C905 C904 1.377 . S
C905 C906 1.395 . S
C905 H934 0.931 . S
C906 C905 1.395 . S
C906 C907 1.383 . S
C906 H935 0.931 . S
C907 C906 1.383 . S
C907 C908 1.394 . S
C908 C907 1.394 . S
C908 C909 1.378 . S
C908 H936 0.931 . S
C909 C904 1.377 . S
C909 C908 1.378 . S
C909 H937 0.931 . S
C910 O924 1.259 . S
C910 O925 1.270 . S
C911 O926 1.251 . S
C911 O927 1.251 . S
C912 Eu913 2.835 . S
C912 C914 1.500 . S
C912 O928 1.257 . S
C912 O929 1.260 . S
Eu913 C912 2.835 . S
Eu913 O925 2.355 . S
Eu913 O927 2.374 . S
Eu913 O928 2.473 . S
Eu913 O929 2.480 . S
Eu913 O930 2.430 . S
Eu913 O931 2.670 . S
Eu913 O932 2.394 . S
C914 C912 1.500 . S
C914 C915 1.377 . S
C914 C919 1.377 . S
C915 C914 1.377 . S
C915 C916 1.395 . S
C915 H938 0.931 . S
C916 C915 1.395 . S
C916 C917 1.383 . S
C916 H939 0.931 . S
C917 C916 1.383 . S
C917 C918 1.394 . S
C918 C917 1.394 . S
C918 C919 1.378 . S
C918 H940 0.931 . S
C919 C914 1.377 . S
C919 C918 1.378 . S
C919 H941 0.931 . S
C920 O930 1.259 . S
C920 O931 1.270 . S
C921 O932 1.251 . S
C921 O933 1.251 . S
O922 C902 1.257 . S
O922 Eu903 2.473 . S
O923 C902 1.260 . S
O923 Eu903 2.480 . S
O924 Eu903 2.430 . S
O924 C910 1.259 . S
O925 Eu903 2.670 . S
O925 C910 1.270 . S
O925 Eu913 2.355 . S
O926 Eu903 2.394 . S
O926 C911 1.251 . S
O927 C911 1.251 . S
O927 Eu913 2.374 . S
O928 C912 1.257 . S
O928 Eu913 2.473 . S
O929 C912 1.260 . S
O929 Eu913 2.480 . S
O930 Eu913 2.430 . S
O930 C920 1.259 . S
O931 Eu903 2.355 . S
O931 Eu913 2.670 . S
O931 C920 1.270 . S
O932 Eu913 2.394 . S
O932 C921 1.251 . S
O933 Eu903 2.374 . S
O933 C921 1.251 . S
H934 C905 0.931 . S
H935 C906 0.931 . S
H936 C908 0.931 . S
H937 C909 0.931 . S
H938 C915 0.931 . S
H939 C916 0.931 . S
H940 C918 0.931 . S
H941 C919 0.931 . S
C942 Eu943 2.835 . S
C942 C944 1.500 . S
C942 O962 1.257 . S
C942 O963 1.260 . S
Eu943 C942 2.835 . S
Eu943 O962 2.473 . S
Eu943 O963 2.480 . S
Eu943 O964 2.430 . S
Eu943 O965 2.670 . S
Eu943 O966 2.394 . S
Eu943 O971 2.355 . S
Eu943 O973 2.374 . S
C944 C942 1.500 . S
C944 C945 1.377 . S
C944 C949 1.377 . S
C945 C944 1.377 . S
C945 C946 1.395 . S
C945 H974 0.931 . S
C946 C945 1.395 . S
C946 C947 1.383 . S
C946 H975 0.931 . S
C947 C946 1.383 . S
C947 C948 1.394 . S
C948 C947 1.394 . S
C948 C949 1.378 . S
C948 H976 0.931 . S
C949 C944 1.377 . S
C949 C948 1.378 . S
C949 H977 0.931 . S
C950 O964 1.259 . S
C950 O965 1.270 . S
C951 O966 1.251 . S
C951 O967 1.251 . S
C952 Eu953 2.835 . S
C952 C954 1.500 . S
C952 O968 1.257 . S
C952 O969 1.260 . S
Eu953 C952 2.835 . S
Eu953 O965 2.355 . S
Eu953 O967 2.374 . S
Eu953 O968 2.473 . S
Eu953 O969 2.480 . S
Eu953 O970 2.430 . S
Eu953 O971 2.670 . S
Eu953 O972 2.394 . S
C954 C952 1.500 . S
C954 C955 1.377 . S
C954 C959 1.377 . S
C955 C954 1.377 . S
C955 C956 1.395 . S
C955 H978 0.931 . S
C956 C955 1.395 . S
C956 C957 1.383 . S
C956 H979 0.931 . S
C957 C956 1.383 . S
C957 C958 1.394 . S
C958 C957 1.394 . S
C958 C959 1.378 . S
C958 H980 0.931 . S
C959 C954 1.377 . S
C959 C958 1.378 . S
C959 H981 0.931 . S
C960 O970 1.259 . S
C960 O971 1.270 . S
C961 O972 1.251 . S
C961 O973 1.251 . S
O962 C942 1.257 . S
O962 Eu943 2.473 . S
O963 C942 1.260 . S
O963 Eu943 2.480 . S
O964 Eu943 2.430 . S
O964 C950 1.259 . S
O965 Eu943 2.670 . S
O965 C950 1.270 . S
O965 Eu953 2.355 . S
O966 Eu943 2.394 . S
O966 C951 1.251 . S
O967 C951 1.251 . S
O967 Eu953 2.374 . S
O968 C952 1.257 . S
O968 Eu953 2.473 . S
O969 C952 1.260 . S
O969 Eu953 2.480 . S
O970 Eu953 2.430 . S
O970 C960 1.259 . S
O971 Eu943 2.355 . S
O971 Eu953 2.670 . S
O971 C960 1.270 . S
O972 Eu953 2.394 . S
O972 C961 1.251 . S
O973 Eu943 2.374 . S
O973 C961 1.251 . S
H974 C945 0.931 . S
H975 C946 0.931 . S
H976 C948 0.931 . S
H977 C949 0.931 . S
H978 C955 0.931 . S
H979 C956 0.931 . S
H980 C958 0.931 . S
H981 C959 0.931 . S
C982 Eu983 2.835 . S
C982 C984 1.500 . S
C982 O1002 1.257 . S
C982 O1003 1.260 . S
Eu983 C982 2.835 . S
Eu983 O1002 2.473 . S
Eu983 O1003 2.480 . S
Eu983 O1004 2.430 . S
Eu983 O1005 2.670 . S
Eu983 O1006 2.394 . S
Eu983 O1011 2.355 . S
Eu983 O1013 2.374 . S
C984 C982 1.500 . S
C984 C985 1.377 . S
C984 C989 1.377 . S
C985 C984 1.377 . S
C985 C986 1.395 . S
C985 H1014 0.931 . S
C986 C985 1.395 . S
C986 C987 1.383 . S
C986 H1015 0.931 . S
C987 C986 1.383 . S
C987 C988 1.394 . S
C988 C987 1.394 . S
C988 C989 1.378 . S
C988 H1016 0.931 . S
C989 C984 1.377 . S
C989 C988 1.378 . S
C989 H1017 0.931 . S
C990 O1004 1.259 . S
C990 O1005 1.270 . S
C991 O1006 1.251 . S
C991 O1007 1.251 . S
C992 Eu993 2.835 . S
C992 C994 1.500 . S
C992 O1008 1.257 . S
C992 O1009 1.260 . S
Eu993 C992 2.835 . S
Eu993 O1005 2.355 . S
Eu993 O1007 2.374 . S
Eu993 O1008 2.473 . S
Eu993 O1009 2.480 . S
Eu993 O1010 2.430 . S
Eu993 O1011 2.670 . S
Eu993 O1012 2.394 . S
C994 C992 1.500 . S
C994 C995 1.377 . S
C994 C999 1.377 . S
C995 C994 1.377 . S
C995 C996 1.395 . S
C995 H1018 0.931 . S
C996 C995 1.395 . S
C996 C997 1.383 . S
C996 H1019 0.931 . S
C997 C996 1.383 . S
C997 C998 1.394 . S
C998 C997 1.394 . S
C998 C999 1.378 . S
C998 H1020 0.931 . S
C999 C994 1.377 . S
C999 C998 1.378 . S
C999 H1021 0.931 . S
C1000 O1010 1.259 . S
C1000 O1011 1.270 . S
C1001 O1012 1.251 . S
C1001 O1013 1.251 . S
O1002 C982 1.257 . S
O1002 Eu983 2.473 . S
O1003 C982 1.260 . S
O1003 Eu983 2.480 . S
O1004 Eu983 2.430 . S
O1004 C990 1.259 . S
O1005 Eu983 2.670 . S
O1005 C990 1.270 . S
O1005 Eu993 2.355 . S
O1006 Eu983 2.394 . S
O1006 C991 1.251 . S
O1007 C991 1.251 . S
O1007 Eu993 2.374 . S
O1008 C992 1.257 . S
O1008 Eu993 2.473 . S
O1009 C992 1.260 . S
O1009 Eu993 2.480 . S
O1010 Eu993 2.430 . S
O1010 C1000 1.259 . S
O1011 Eu983 2.355 . S
O1011 Eu993 2.670 . S
O1011 C1000 1.270 . S
O1012 Eu993 2.394 . S
O1012 C1001 1.251 . S
O1013 Eu983 2.374 . S
O1013 C1001 1.251 . S
H1014 C985 0.931 . S
H1015 C986 0.931 . S
H1016 C988 0.931 . S
H1017 C989 0.931 . S
H1018 C995 0.931 . S
H1019 C996 0.931 . S
H1020 C998 0.931 . S
H1021 C999 0.931 . S
C1022 Eu1023 2.835 . S
C1022 C1024 1.500 . S
C1022 O1042 1.257 . S
C1022 O1043 1.260 . S
Eu1023 C1022 2.835 . S
Eu1023 O1042 2.473 . S
Eu1023 O1043 2.480 . S
Eu1023 O1044 2.430 . S
Eu1023 O1045 2.670 . S
Eu1023 O1046 2.394 . S
Eu1023 O1051 2.355 . S
Eu1023 O1053 2.374 . S
C1024 C1022 1.500 . S
C1024 C1025 1.377 . S
C1024 C1029 1.377 . S
C1025 C1024 1.377 . S
C1025 C1026 1.395 . S
C1025 H1054 0.931 . S
C1026 C1025 1.395 . S
C1026 C1027 1.383 . S
C1026 H1055 0.931 . S
C1027 C1026 1.383 . S
C1027 C1028 1.394 . S
C1028 C1027 1.394 . S
C1028 C1029 1.378 . S
C1028 H1056 0.931 . S
C1029 C1024 1.377 . S
C1029 C1028 1.378 . S
C1029 H1057 0.931 . S
C1030 O1044 1.259 . S
C1030 O1045 1.270 . S
C1031 O1046 1.251 . S
C1031 O1047 1.251 . S
C1032 Eu1033 2.835 . S
C1032 C1034 1.500 . S
C1032 O1048 1.257 . S
C1032 O1049 1.260 . S
Eu1033 C1032 2.835 . S
Eu1033 O1045 2.355 . S
Eu1033 O1047 2.374 . S
Eu1033 O1048 2.473 . S
Eu1033 O1049 2.480 . S
Eu1033 O1050 2.430 . S
Eu1033 O1051 2.670 . S
Eu1033 O1052 2.394 . S
C1034 C1032 1.500 . S
C1034 C1035 1.377 . S
C1034 C1039 1.377 . S
C1035 C1034 1.377 . S
C1035 C1036 1.395 . S
C1035 H1058 0.931 . S
C1036 C1035 1.395 . S
C1036 C1037 1.383 . S
C1036 H1059 0.931 . S
C1037 C1036 1.383 . S
C1037 C1038 1.394 . S
C1038 C1037 1.394 . S
C1038 C1039 1.378 . S
C1038 H1060 0.931 . S
C1039 C1034 1.377 . S
C1039 C1038 1.378 . S
C1039 H1061 0.931 . S
C1040 O1050 1.259 . S
C1040 O1051 1.270 . S
C1041 O1052 1.251 . S
C1041 O1053 1.251 . S
O1042 C1022 1.257 . S
O1042 Eu1023 2.473 . S
O1043 C1022 1.260 . S
O1043 Eu1023 2.480 . S
O1044 Eu1023 2.430 . S
O1044 C1030 1.259 . S
O1045 Eu1023 2.670 . S
O1045 C1030 1.270 . S
O1045 Eu1033 2.355 . S
O1046 Eu1023 2.394 . S
O1046 C1031 1.251 . S
O1047 C1031 1.251 . S
O1047 Eu1033 2.374 . S
O1048 C1032 1.257 . S
O1048 Eu1033 2.473 . S
O1049 C1032 1.260 . S
O1049 Eu1033 2.480 . S
O1050 Eu1033 2.430 . S
O1050 C1040 1.259 . S
O1051 Eu1023 2.355 . S
O1051 Eu1033 2.670 . S
O1051 C1040 1.270 . S
O1052 Eu1033 2.394 . S
O1052 C1041 1.251 . S
O1053 Eu1023 2.374 . S
O1053 C1041 1.251 . S
H1054 C1025 0.931 . S
H1055 C1026 0.931 . S
H1056 C1028 0.931 . S
H1057 C1029 0.931 . S
H1058 C1035 0.931 . S
H1059 C1036 0.931 . S
H1060 C1038 0.931 . S
H1061 C1039 0.931 . S
H1062 C1080 0.951 . S
H1063 C1082 0.951 . S
H1064 C1084 0.950 . S
H1065 C1085 0.950 . S
H1066 C1087 0.950 . S
H1067 C1090 0.950 . S
H1068 C1091 0.950 . S
H1069 C1093 0.950 . S
H1070 C1094 0.950 . S
H1071 C1095 0.951 . S
H1072 C1097 0.951 . S
H1073 C1099 0.950 . S
H1074 C1100 0.950 . S
H1075 C1102 0.950 . S
H1076 C1105 0.941 1_554 S
H1077 C1106 0.950 . S
H1078 C1108 0.950 . S
H1079 C1109 0.950 . S
C1080 H1062 0.951 . S
C1080 C1081 1.366 . S
C1080 C1082 1.388 . S
C1081 C1080 1.366 . S
C1081 C1085 1.385 . S
C1082 H1063 0.951 . S
C1082 C1080 1.388 . S
C1082 C1083 1.366 . S
C1083 C1082 1.366 . S
C1083 C1084 1.414 . S
C1083 C1086 1.499 . S
C1084 H1064 0.950 . S
C1084 C1083 1.414 . S
C1084 C1085 1.374 . S
C1085 H1065 0.950 . S
C1085 C1081 1.385 . S
C1085 C1084 1.374 . S
C1086 C1083 1.499 . S
C1086 C1087 1.373 . S
C1086 C1088 1.389 . S
C1087 H1066 0.950 . S
C1087 C1086 1.373 . S
C1087 C1103 1.377 . S
C1088 C1086 1.389 . S
C1088 C1089 1.524 . S
C1088 C1102 1.377 . S
C1089 C1088 1.524 . S
C1089 C1090 1.397 . S
C1089 C1094 1.363 . S
C1090 H1067 0.950 . S
C1090 C1089 1.397 . S
C1090 C1091 1.334 . S
C1091 H1068 0.950 . S
C1091 C1090 1.334 . S
C1091 C1092 1.287 . S
C1092 C1091 1.287 . S
C1092 C1093 1.524 . S
C1092 H1111 0.913 . S
C1093 H1069 0.950 . S
C1093 C1092 1.524 . S
C1093 C1094 1.415 . S
C1094 H1070 0.950 . S
C1094 C1089 1.363 . S
C1094 C1093 1.415 . S
C1095 H1071 0.951 . S
C1095 C1096 1.366 . S
C1095 C1097 1.388 . S
C1096 C1095 1.366 . S
C1096 C1100 1.385 . S
C1097 H1072 0.951 . S
C1097 C1095 1.388 . S
C1097 C1098 1.366 . S
C1098 C1097 1.366 . S
C1098 C1099 1.414 . S
C1098 C1101 1.499 . S
C1099 H1073 0.950 . S
C1099 C1098 1.414 . S
C1099 C1100 1.374 . S
C1100 H1074 0.950 . S
C1100 C1096 1.385 . S
C1100 C1099 1.374 . S
C1101 C1098 1.499 . S
C1101 C1102 1.373 . S
C1101 C1103 1.389 . S
C1102 H1075 0.950 . S
C1102 C1088 1.377 . S
C1102 C1101 1.373 . S
C1103 C1087 1.377 . S
C1103 C1101 1.389 . S
C1103 C1104 1.524 . S
C1104 C1103 1.524 . S
C1104 C1105 1.397 1_554 S
C1104 C1109 1.363 . S
C1105 H1076 0.941 1_556 S
C1105 C1104 1.397 1_556 S
C1105 C1106 1.334 . S
C1106 H1077 0.950 . S
C1106 C1105 1.334 . S
C1106 C1107 1.287 . S
C1107 C1106 1.287 . S
C1107 C1108 1.524 . S
C1107 H1110 0.999 . S
C1108 H1078 0.950 . S
C1108 C1107 1.524 . S
C1108 C1109 1.415 1_556 S
C1109 H1079 0.950 . S
C1109 C1104 1.363 . S
C1109 C1108 1.415 1_554 S
H1110 C1107 0.999 . S
H1111 C1092 0.913 . S
H1112 C1130 0.951 . S
H1113 C1132 0.951 . S
H1114 C1134 0.950 . S
H1115 C1135 0.950 . S
H1116 C1137 0.950 . S
H1117 C1140 0.950 . S
H1118 C1141 0.950 . S
H1119 C1143 0.950 . S
H1120 C1144 0.950 . S
H1121 C1145 0.951 . S
H1122 C1147 0.951 . S
H1123 C1149 0.950 . S
H1124 C1150 0.950 . S
H1125 C1152 0.950 . S
H1126 C1155 0.950 . S
H1127 C1156 0.950 . S
H1128 C1158 0.950 . S
H1129 C1159 0.950 . S
C1130 H1112 0.951 . S
C1130 C1131 1.366 . S
C1130 C1132 1.388 . S
C1131 C1130 1.366 . S
C1131 C1135 1.385 . S
C1132 H1113 0.951 . S
C1132 C1130 1.388 . S
C1132 C1133 1.366 . S
C1133 C1132 1.366 . S
C1133 C1134 1.414 . S
C1133 C1136 1.499 . S
C1134 H1114 0.950 . S
C1134 C1133 1.414 . S
C1134 C1135 1.374 . S
C1135 H1115 0.950 . S
C1135 C1131 1.385 . S
C1135 C1134 1.374 . S
C1136 C1133 1.499 . S
C1136 C1137 1.373 . S
C1136 C1138 1.389 . S
C1137 H1116 0.950 . S
C1137 C1136 1.373 . S
C1137 C1153 1.377 . S
C1138 C1136 1.389 . S
C1138 C1139 1.524 . S
C1138 C1152 1.377 . S
C1139 C1138 1.524 . S
C1139 C1140 1.397 . S
C1139 C1144 1.363 . S
C1140 H1117 0.950 . S
C1140 C1139 1.397 . S
C1140 C1141 1.334 . S
C1141 H1118 0.950 . S
C1141 C1140 1.334 . S
C1141 C1142 1.287 . S
C1142 C1141 1.287 . S
C1142 C1143 1.524 . S
C1142 H1161 0.913 . S
C1143 H1119 0.950 . S
C1143 C1142 1.524 . S
C1143 C1144 1.415 . S
C1144 H1120 0.950 . S
C1144 C1139 1.363 . S
C1144 C1143 1.415 . S
C1145 H1121 0.951 . S
C1145 C1146 1.366 . S
C1145 C1147 1.388 . S
C1146 C1145 1.366 . S
C1146 C1150 1.385 . S
C1147 H1122 0.951 . S
C1147 C1145 1.388 . S
C1147 C1148 1.366 . S
C1148 C1147 1.366 . S
C1148 C1149 1.414 . S
C1148 C1151 1.499 . S
C1149 H1123 0.950 . S
C1149 C1148 1.414 . S
C1149 C1150 1.374 . S
C1150 H1124 0.950 . S
C1150 C1146 1.385 . S
C1150 C1149 1.374 . S
C1151 C1148 1.499 . S
C1151 C1152 1.373 . S
C1151 C1153 1.389 . S
C1152 H1125 0.950 . S
C1152 C1138 1.377 . S
C1152 C1151 1.373 . S
C1153 C1137 1.377 . S
C1153 C1151 1.389 . S
C1153 C1154 1.524 . S
C1154 C1153 1.524 . S
C1154 C1155 1.397 . S
C1154 C1159 1.363 . S
C1155 H1126 0.950 . S
C1155 C1154 1.397 . S
C1155 C1156 1.334 . S
C1156 H1127 0.950 . S
C1156 C1155 1.334 . S
C1156 C1157 1.287 . S
C1157 C1156 1.287 . S
C1157 C1158 1.524 . S
C1157 H1160 0.999 . S
C1158 H1128 0.950 . S
C1158 C1157 1.524 . S
C1158 C1159 1.415 . S
C1159 H1129 0.950 . S
C1159 C1154 1.363 . S
C1159 C1158 1.415 . S
H1160 C1157 0.999 . S
H1161 C1142 0.913 . S
H1162 C1180 0.951 . S
H1163 C1182 0.951 . S
H1164 C1184 0.950 . S
H1165 C1185 0.950 . S
H1166 C1187 0.950 . S
H1167 C1190 0.950 . S
H1168 C1191 0.938 1_556 S
H1169 C1193 0.950 . S
H1170 C1194 0.950 . S
H1171 C1195 0.951 . S
H1172 C1197 0.951 . S
H1173 C1199 0.950 . S
H1174 C1200 0.950 . S
H1175 C1202 0.950 . S
H1176 C1205 0.950 . S
H1177 C1206 0.950 . S
H1178 C1208 0.950 . S
H1179 C1209 0.950 . S
C1180 H1162 0.951 . S
C1180 C1181 1.366 . S
C1180 C1182 1.388 . S
C1181 C1180 1.366 . S
C1181 C1185 1.385 . S
C1182 H1163 0.951 . S
C1182 C1180 1.388 . S
C1182 C1183 1.366 . S
C1183 C1182 1.366 . S
C1183 C1184 1.414 . S
C1183 C1186 1.499 . S
C1184 H1164 0.950 . S
C1184 C1183 1.414 . S
C1184 C1185 1.374 . S
C1185 H1165 0.950 . S
C1185 C1181 1.385 . S
C1185 C1184 1.374 . S
C1186 C1183 1.499 . S
C1186 C1187 1.373 . S
C1186 C1188 1.389 . S
C1187 H1166 0.950 . S
C1187 C1186 1.373 . S
C1187 C1203 1.377 . S
C1188 C1186 1.389 . S
C1188 C1189 1.524 . S
C1188 C1202 1.377 . S
C1189 C1188 1.524 . S
C1189 C1190 1.397 . S
C1189 C1194 1.363 . S
C1190 H1167 0.950 . S
C1190 C1189 1.397 . S
C1190 C1191 1.345 . S
C1191 H1168 0.938 1_554 S
C1191 C1190 1.345 . S
C1191 C1192 1.289 . S
C1192 C1191 1.289 . S
C1192 C1193 1.524 . S
C1192 H1211 0.913 1_554 S
C1193 H1169 0.950 . S
C1193 C1192 1.524 . S
C1193 C1194 1.415 . S
C1194 H1170 0.950 . S
C1194 C1189 1.363 . S
C1194 C1193 1.415 . S
C1195 H1171 0.951 . S
C1195 C1196 1.366 . S
C1195 C1197 1.388 . S
C1196 C1195 1.366 . S
C1196 C1200 1.385 . S
C1197 H1172 0.951 . S
C1197 C1195 1.388 . S
C1197 C1198 1.366 . S
C1198 C1197 1.366 . S
C1198 C1199 1.414 . S
C1198 C1201 1.499 . S
C1199 H1173 0.950 . S
C1199 C1198 1.414 . S
C1199 C1200 1.374 . S
C1200 H1174 0.950 . S
C1200 C1196 1.385 . S
C1200 C1199 1.374 . S
C1201 C1198 1.499 . S
C1201 C1202 1.373 . S
C1201 C1203 1.389 . S
C1202 H1175 0.950 . S
C1202 C1188 1.377 . S
C1202 C1201 1.373 . S
C1203 C1187 1.377 . S
C1203 C1201 1.389 . S
C1203 C1204 1.524 . S
C1204 C1203 1.524 . S
C1204 C1205 1.397 . S
C1204 C1209 1.363 . S
C1205 H1176 0.950 . S
C1205 C1204 1.397 . S
C1205 C1206 1.334 . S
C1206 H1177 0.950 . S
C1206 C1205 1.334 . S
C1206 C1207 1.287 . S
C1207 C1206 1.287 . S
C1207 C1208 1.524 . S
C1207 H1210 0.999 . S
C1208 H1178 0.950 . S
C1208 C1207 1.524 . S
C1208 C1209 1.415 . S
C1209 H1179 0.950 . S
C1209 C1204 1.363 . S
C1209 C1208 1.415 . S
H1210 C1207 0.999 . S
H1211 C1192 0.913 1_556 S
H1212 C1230 0.951 . S
H1213 C1232 0.951 . S
H1214 C1234 0.950 . S
H1215 C1235 0.950 . S
H1216 C1237 0.950 . S
H1217 C1240 0.950 . S
H1218 C1241 0.940 1_554 S
H1219 C1243 0.950 . S
H1220 C1244 0.950 . S
H1221 C1245 0.951 . S
H1222 C1247 0.951 . S
H1223 C1249 0.950 . S
H1224 C1250 0.950 . S
H1225 C1252 0.950 . S
H1226 C1255 0.950 . S
H1227 C1256 0.950 . S
H1228 C1258 0.950 . S
H1229 C1259 0.950 . S
C1230 H1212 0.951 . S
C1230 C1231 1.366 . S
C1230 C1232 1.388 . S
C1231 C1230 1.366 . S
C1231 C1235 1.385 . S
C1232 H1213 0.951 . S
C1232 C1230 1.388 . S
C1232 C1233 1.366 . S
C1233 C1232 1.366 . S
C1233 C1234 1.414 . S
C1233 C1236 1.499 . S
C1234 H1214 0.950 . S
C1234 C1233 1.414 . S
C1234 C1235 1.374 . S
C1235 H1215 0.950 . S
C1235 C1231 1.385 . S
C1235 C1234 1.374 . S
C1236 C1233 1.499 . S
C1236 C1237 1.373 . S
C1236 C1238 1.389 . S
C1237 H1216 0.950 . S
C1237 C1236 1.373 . S
C1237 C1253 1.377 . S
C1238 C1236 1.389 . S
C1238 C1239 1.524 . S
C1238 C1252 1.377 . S
C1239 C1238 1.524 . S
C1239 C1240 1.397 . S
C1239 C1244 1.363 . S
C1240 H1217 0.950 . S
C1240 C1239 1.397 . S
C1240 C1241 1.342 . S
C1241 H1218 0.940 1_556 S
C1241 C1240 1.342 . S
C1241 C1242 1.289 . S
C1242 C1241 1.289 . S
C1242 C1243 1.524 . S
C1242 H1261 0.913 1_556 S
C1243 H1219 0.950 . S
C1243 C1242 1.524 . S
C1243 C1244 1.415 . S
C1244 H1220 0.950 . S
C1244 C1239 1.363 . S
C1244 C1243 1.415 . S
C1245 H1221 0.951 . S
C1245 C1246 1.366 . S
C1245 C1247 1.388 . S
C1246 C1245 1.366 . S
C1246 C1250 1.385 . S
C1247 H1222 0.951 . S
C1247 C1245 1.388 . S
C1247 C1248 1.366 . S
C1248 C1247 1.366 . S
C1248 C1249 1.414 . S
C1248 C1251 1.499 . S
C1249 H1223 0.950 . S
C1249 C1248 1.414 . S
C1249 C1250 1.374 . S
C1250 H1224 0.950 . S
C1250 C1246 1.385 . S
C1250 C1249 1.374 . S
C1251 C1248 1.499 . S
C1251 C1252 1.373 . S
C1251 C1253 1.389 . S
C1252 H1225 0.950 . S
C1252 C1238 1.377 . S
C1252 C1251 1.373 . S
C1253 C1237 1.377 . S
C1253 C1251 1.389 . S
C1253 C1254 1.524 . S
C1254 C1253 1.524 . S
C1254 C1255 1.397 . S
C1254 C1259 1.363 . S
C1255 H1226 0.950 . S
C1255 C1254 1.397 . S
C1255 C1256 1.334 . S
C1256 H1227 0.950 . S
C1256 C1255 1.334 . S
C1256 C1257 1.287 . S
C1257 C1256 1.287 . S
C1257 C1258 1.524 . S
C1257 H1260 0.999 . S
C1258 H1228 0.950 . S
C1258 C1257 1.524 . S
C1258 C1259 1.415 . S
C1259 H1229 0.950 . S
C1259 C1254 1.363 . S
C1259 C1258 1.415 . S
H1260 C1257 0.999 . S
H1261 C1242 0.913 1_554 S
H1262 C1280 0.951 . S
H1263 C1282 0.951 . S
H1264 C1284 0.950 . S
H1265 C1285 0.950 . S
H1266 C1287 0.950 . S
H1267 C1290 0.950 . S
H1268 C1291 0.950 . S
H1269 C1293 0.950 . S
H1270 C1294 0.950 . S
H1271 C1295 0.951 1_554 S
H1272 C1297 0.951 . S
H1273 C1299 0.950 . S
H1274 C1300 0.950 . S
H1275 C1302 0.950 . S
H1276 C1305 0.950 . S
H1277 C1306 0.950 . S
H1278 C1308 0.950 1_554 S
H1279 C1309 0.950 . S
C1280 H1262 0.951 . S
C1280 C1281 1.366 . S
C1280 C1282 1.388 . S
C1281 C1280 1.366 . S
C1281 C1285 1.385 . S
C1282 H1263 0.951 . S
C1282 C1280 1.388 . S
C1282 C1283 1.366 . S
C1283 C1282 1.366 . S
C1283 C1284 1.414 . S
C1283 C1286 1.499 . S
C1284 H1264 0.950 . S
C1284 C1283 1.414 . S
C1284 C1285 1.374 . S
C1285 H1265 0.950 . S
C1285 C1281 1.385 . S
C1285 C1284 1.374 . S
C1286 C1283 1.499 . S
C1286 C1287 1.373 . S
C1286 C1288 1.389 . S
C1287 H1266 0.950 . S
C1287 C1286 1.373 . S
C1287 C1303 1.377 . S
C1288 C1286 1.389 . S
C1288 C1289 1.524 . S
C1288 C1302 1.377 . S
C1289 C1288 1.524 . S
C1289 C1290 1.397 . S
C1289 C1294 1.363 . S
C1290 H1267 0.950 . S
C1290 C1289 1.397 . S
C1290 C1291 1.334 . S
C1291 H1268 0.950 . S
C1291 C1290 1.334 . S
C1291 C1292 1.287 . S
C1292 C1291 1.287 . S
C1292 C1293 1.524 . S
C1292 H1311 0.913 . S
C1293 H1269 0.950 . S
C1293 C1292 1.524 . S
C1293 C1294 1.415 . S
C1294 H1270 0.950 . S
C1294 C1289 1.363 . S
C1294 C1293 1.415 . S
C1295 H1271 0.951 1_556 S
C1295 C1296 1.366 . S
C1295 C1297 1.388 . S
C1296 C1295 1.366 . S
C1296 C1300 1.385 . S
C1297 H1272 0.951 . S
C1297 C1295 1.388 . S
C1297 C1298 1.366 . S
C1298 C1297 1.366 . S
C1298 C1299 1.414 . S
C1298 C1301 1.499 . S
C1299 H1273 0.950 . S
C1299 C1298 1.414 . S
C1299 C1300 1.374 . S
C1300 H1274 0.950 . S
C1300 C1296 1.385 . S
C1300 C1299 1.374 . S
C1301 C1298 1.499 . S
C1301 C1302 1.373 . S
C1301 C1303 1.389 . S
C1302 H1275 0.950 . S
C1302 C1288 1.377 . S
C1302 C1301 1.373 . S
C1303 C1287 1.377 . S
C1303 C1301 1.389 . S
C1303 C1304 1.524 . S
C1304 C1303 1.524 . S
C1304 C1305 1.397 . S
C1304 C1309 1.363 . S
C1305 H1276 0.950 . S
C1305 C1304 1.397 . S
C1305 C1306 1.334 . S
C1306 H1277 0.950 . S
C1306 C1305 1.334 . S
C1306 C1307 1.287 . S
C1307 C1306 1.287 . S
C1307 C1308 1.524 . S
C1307 H1310 0.999 . S
C1308 H1278 0.950 1_556 S
C1308 C1307 1.524 . S
C1308 C1309 1.415 . S
C1309 H1279 0.950 . S
C1309 C1304 1.363 . S
C1309 C1308 1.415 . S
H1310 C1307 0.999 . S
H1311 C1292 0.913 . S
H1312 C1330 0.951 . S
H1313 C1332 0.951 . S
H1314 C1334 0.950 . S
H1315 C1335 0.950 . S
H1316 C1337 0.950 . S
H1317 C1340 0.950 . S
H1318 C1341 0.950 . S
H1319 C1343 0.950 . S
H1320 C1344 0.950 . S
H1321 C1345 0.951 . S
H1322 C1347 0.951 . S
H1323 C1349 1.002 . S
H1324 C1350 0.950 . S
H1325 C1352 0.950 . S
H1326 C1355 0.950 . S
H1327 C1356 0.950 . S
H1328 C1358 0.950 1_565 S
H1329 C1359 0.950 . S
C1330 H1312 0.951 . S
C1330 C1331 1.366 . S
C1330 C1332 1.388 . S
C1331 C1330 1.366 . S
C1331 C1335 1.385 . S
C1332 H1313 0.951 . S
C1332 C1330 1.388 . S
C1332 C1333 1.366 . S
C1333 C1332 1.366 . S
C1333 C1334 1.414 . S
C1333 C1336 1.499 . S
C1334 H1314 0.950 . S
C1334 C1333 1.414 . S
C1334 C1335 1.374 . S
C1335 H1315 0.950 . S
C1335 C1331 1.385 . S
C1335 C1334 1.374 . S
C1336 C1333 1.499 . S
C1336 C1337 1.373 . S
C1336 C1338 1.389 . S
C1337 H1316 0.950 . S
C1337 C1336 1.373 . S
C1337 C1353 1.377 . S
C1338 C1336 1.389 . S
C1338 C1339 1.524 . S
C1338 C1352 1.377 . S
C1339 C1338 1.524 . S
C1339 C1340 1.397 . S
C1339 C1344 1.363 1_556 S
C1340 H1317 0.950 . S
C1340 C1339 1.397 . S
C1340 C1341 1.334 . S
C1341 H1318 0.950 . S
C1341 C1340 1.334 . S
C1341 C1342 1.287 . S
C1342 C1341 1.287 . S
C1342 C1343 1.524 1_556 S
C1342 H1361 0.911 . S
C1343 H1319 0.950 . S
C1343 C1342 1.524 1_554 S
C1343 C1344 1.415 . S
C1344 H1320 0.950 . S
C1344 C1339 1.363 1_554 S
C1344 C1343 1.415 . S
C1345 H1321 0.951 . S
C1345 C1346 1.366 . S
C1345 C1347 1.388 . S
C1346 C1345 1.366 . S
C1346 C1350 1.385 1_556 S
C1347 H1322 0.951 . S
C1347 C1345 1.388 . S
C1347 C1348 1.366 . S
C1348 C1347 1.366 . S
C1348 C1349 1.347 1_556 S
C1348 C1351 1.499 . S
C1349 H1323 1.002 . S
C1349 C1348 1.347 1_554 S
C1349 C1350 1.393 . S
C1350 H1324 0.950 . S
C1350 C1346 1.385 1_554 S
C1350 C1349 1.393 . S
C1351 C1348 1.499 . S
C1351 C1352 1.373 . S
C1351 C1353 1.389 . S
C1352 H1325 0.950 . S
C1352 C1338 1.377 . S
C1352 C1351 1.373 . S
C1353 C1337 1.377 . S
C1353 C1351 1.389 . S
C1353 C1354 1.524 . S
C1354 C1353 1.524 . S
C1354 C1355 1.397 . S
C1354 C1359 1.363 . S
C1355 H1326 0.950 . S
C1355 C1354 1.397 . S
C1355 C1356 1.334 1_545 S
C1356 H1327 0.950 . S
C1356 C1355 1.334 1_565 S
C1356 C1357 1.287 . S
C1357 C1356 1.287 . S
C1357 C1358 1.524 1_565 S
C1357 H1360 0.999 . S
C1358 H1328 0.950 1_545 S
C1358 C1357 1.524 1_545 S
C1358 C1359 1.415 . S
C1359 H1329 0.950 . S
C1359 C1354 1.363 . S
C1359 C1358 1.415 . S
H1360 C1357 0.999 . S
H1361 C1342 0.911 . S
H1362 C1380 0.951 . S
H1363 C1382 0.951 . S
H1364 C1384 0.950 . S
H1365 C1385 0.950 . S
H1366 C1387 0.950 . S
H1367 C1390 0.950 . S
H1368 C1391 0.950 . S
H1369 C1393 0.950 . S
H1370 C1394 0.950 . S
H1371 C1395 0.951 . S
H1372 C1397 0.951 . S
H1373 C1399 0.950 . S
H1374 C1400 0.950 1_554 S
H1375 C1402 0.950 . S
H1376 C1405 0.950 . S
H1377 C1406 0.950 . S
H1378 C1408 0.950 . S
H1379 C1409 0.950 . S
C1380 H1362 0.951 . S
C1380 C1381 1.366 . S
C1380 C1382 1.388 . S
C1381 C1380 1.366 . S
C1381 C1385 1.385 . S
C1382 H1363 0.951 . S
C1382 C1380 1.388 . S
C1382 C1383 1.366 . S
C1383 C1382 1.366 . S
C1383 C1384 1.414 . S
C1383 C1386 1.499 . S
C1384 H1364 0.950 . S
C1384 C1383 1.414 . S
C1384 C1385 1.374 . S
C1385 H1365 0.950 . S
C1385 C1381 1.385 . S
C1385 C1384 1.374 . S
C1386 C1383 1.499 . S
C1386 C1387 1.373 . S
C1386 C1388 1.389 . S
C1387 H1366 0.950 . S
C1387 C1386 1.373 . S
C1387 C1403 1.377 . S
C1388 C1386 1.389 . S
C1388 C1389 1.524 . S
C1388 C1402 1.377 . S
C1389 C1388 1.524 . S
C1389 C1390 1.397 . S
C1389 C1394 1.363 . S
C1390 H1367 0.950 . S
C1390 C1389 1.397 . S
C1390 C1391 1.334 . S
C1391 H1368 0.950 . S
C1391 C1390 1.334 . S
C1391 C1392 1.287 . S
C1392 C1391 1.287 . S
C1392 C1393 1.524 . S
C1392 H1411 0.913 . S
C1393 H1369 0.950 . S
C1393 C1392 1.524 . S
C1393 C1394 1.415 . S
C1394 H1370 0.950 . S
C1394 C1389 1.363 . S
C1394 C1393 1.415 . S
C1395 H1371 0.951 . S
C1395 C1396 1.366 . S
C1395 C1397 1.388 . S
C1396 C1395 1.366 . S
C1396 C1400 1.385 . S
C1397 H1372 0.951 . S
C1397 C1395 1.388 . S
C1397 C1398 1.366 . S
C1398 C1397 1.366 . S
C1398 C1399 1.414 . S
C1398 C1401 1.499 . S
C1399 H1373 0.950 . S
C1399 C1398 1.414 . S
C1399 C1400 1.374 . S
C1400 H1374 0.950 1_556 S
C1400 C1396 1.385 . S
C1400 C1399 1.374 . S
C1401 C1398 1.499 . S
C1401 C1402 1.373 . S
C1401 C1403 1.389 . S
C1402 H1375 0.950 . S
C1402 C1388 1.377 . S
C1402 C1401 1.373 . S
C1403 C1387 1.377 . S
C1403 C1401 1.389 . S
C1403 C1404 1.524 . S
C1404 C1403 1.524 . S
C1404 C1405 1.397 . S
C1404 C1409 1.363 . S
C1405 H1376 0.950 . S
C1405 C1404 1.397 . S
C1405 C1406 1.334 . S
C1406 H1377 0.950 . S
C1406 C1405 1.334 . S
C1406 C1407 1.287 . S
C1407 C1406 1.287 . S
C1407 C1408 1.524 . S
C1407 H1410 0.999 . S
C1408 H1378 0.950 . S
C1408 C1407 1.524 . S
C1408 C1409 1.415 . S
C1409 H1379 0.950 . S
C1409 C1404 1.363 . S
C1409 C1408 1.415 . S
H1410 C1407 0.999 . S
H1411 C1392 0.913 . S
H1412 C1430 0.951 . S
H1413 C1432 0.951 . S
H1414 C1434 0.950 . S
H1415 C1435 0.950 . S
H1416 C1437 0.950 . S
H1417 C1440 0.950 . S
H1418 C1441 0.950 . S
H1419 C1443 0.950 . S
H1420 C1444 0.950 . S
H1421 C1445 0.951 . S
H1422 C1447 0.951 . S
H1423 C1449 0.950 . S
H1424 C1450 0.950 . S
H1425 C1452 0.950 . S
H1426 C1455 1.017 . S
H1427 C1456 0.950 . S
H1428 C1458 0.950 . S
H1429 C1459 0.946 1_556 S
C1430 H1412 0.951 . S
C1430 C1431 1.366 . S
C1430 C1432 1.388 . S
C1431 C1430 1.366 . S
C1431 C1435 1.385 . S
C1432 H1413 0.951 . S
C1432 C1430 1.388 . S
C1432 C1433 1.366 . S
C1433 C1432 1.366 . S
C1433 C1434 1.414 . S
C1433 C1436 1.499 . S
C1434 H1414 0.950 . S
C1434 C1433 1.414 . S
C1434 C1435 1.374 . S
C1435 H1415 0.950 . S
C1435 C1431 1.385 . S
C1435 C1434 1.374 . S
C1436 C1433 1.499 . S
C1436 C1437 1.373 . S
C1436 C1438 1.389 . S
C1437 H1416 0.950 . S
C1437 C1436 1.373 . S
C1437 C1453 1.377 . S
C1438 C1436 1.389 . S
C1438 C1439 1.524 . S
C1438 C1452 1.377 . S
C1439 C1438 1.524 . S
C1439 C1440 1.397 . S
C1439 C1444 1.363 . S
C1440 H1417 0.950 . S
C1440 C1439 1.397 . S
C1440 C1441 1.334 . S
C1441 H1418 0.950 . S
C1441 C1440 1.334 . S
C1441 C1442 1.287 . S
C1442 C1441 1.287 . S
C1442 C1443 1.524 . S
C1442 H1461 0.913 . S
C1443 H1419 0.950 . S
C1443 C1442 1.524 . S
C1443 C1444 1.415 . S
C1444 H1420 0.950 . S
C1444 C1439 1.363 . S
C1444 C1443 1.415 . S
C1445 H1421 0.951 . S
C1445 C1446 1.366 . S
C1445 C1447 1.388 . S
C1446 C1445 1.366 . S
C1446 C1450 1.385 . S
C1447 H1422 0.951 . S
C1447 C1445 1.388 . S
C1447 C1448 1.366 . S
C1448 C1447 1.366 . S
C1448 C1449 1.414 . S
C1448 C1451 1.499 . S
C1449 H1423 0.950 . S
C1449 C1448 1.414 . S
C1449 C1450 1.374 . S
C1450 H1424 0.950 . S
C1450 C1446 1.385 . S
C1450 C1449 1.374 . S
C1451 C1448 1.499 . S
C1451 C1452 1.373 . S
C1451 C1453 1.389 . S
C1452 H1425 0.950 . S
C1452 C1438 1.377 . S
C1452 C1451 1.373 . S
C1453 C1437 1.377 . S
C1453 C1451 1.389 . S
C1453 C1454 1.524 . S
C1454 C1453 1.524 . S
C1454 C1455 1.431 . S
C1454 C1459 1.355 1_556 S
C1455 H1426 1.017 . S
C1455 C1454 1.431 . S
C1455 C1456 1.239 1_556 S
C1456 H1427 0.950 . S
C1456 C1455 1.239 1_554 S
C1456 C1457 1.287 . S
C1457 C1456 1.287 . S
C1457 C1458 1.524 . S
C1457 H1460 0.999 . S
C1458 H1428 0.950 . S
C1458 C1457 1.524 . S
C1458 C1459 1.428 . S
C1459 H1429 0.946 1_554 S
C1459 C1454 1.355 1_554 S
C1459 C1458 1.428 . S
H1460 C1457 0.999 . S
H1461 C1442 0.913 . S
H1462 C1480 0.951 . S
H1463 C1482 0.951 . S
H1464 C1484 0.950 . S
H1465 C1485 0.950 . S
H1466 C1487 0.950 . S
H1467 C1490 0.950 . S
H1468 C1491 0.950 . S
H1469 C1493 0.950 . S
H1470 C1494 0.950 . S
H1471 C1495 0.951 . S
H1472 C1497 0.951 . S
H1473 C1499 0.950 . S
H1474 C1500 0.950 . S
H1475 C1502 0.950 . S
H1476 C1505 0.950 . S
H1477 C1506 0.950 . S
H1478 C1508 0.950 . S
H1479 C1509 0.942 1_556 S
C1480 H1462 0.951 . S
C1480 C1481 1.366 . S
C1480 C1482 1.388 . S
C1481 C1480 1.366 . S
C1481 C1485 1.385 . S
C1482 H1463 0.951 . S
C1482 C1480 1.388 . S
C1482 C1483 1.366 . S
C1483 C1482 1.366 . S
C1483 C1484 1.414 . S
C1483 C1486 1.499 . S
C1484 H1464 0.950 . S
C1484 C1483 1.414 . S
C1484 C1485 1.374 . S
C1485 H1465 0.950 . S
C1485 C1481 1.385 . S
C1485 C1484 1.374 . S
C1486 C1483 1.499 . S
C1486 C1487 1.373 . S
C1486 C1488 1.389 . S
C1487 H1466 0.950 . S
C1487 C1486 1.373 . S
C1487 C1503 1.377 . S
C1488 C1486 1.389 . S
C1488 C1489 1.524 . S
C1488 C1502 1.377 . S
C1489 C1488 1.524 . S
C1489 C1490 1.397 . S
C1489 C1494 1.363 . S
C1490 H1467 0.950 . S
C1490 C1489 1.397 . S
C1490 C1491 1.334 . S
C1491 H1468 0.950 . S
C1491 C1490 1.334 . S
C1491 C1492 1.287 . S
C1492 C1491 1.287 . S
C1492 C1493 1.524 . S
C1492 H1511 0.913 . S
C1493 H1469 0.950 . S
C1493 C1492 1.524 . S
C1493 C1494 1.415 . S
C1494 H1470 0.950 . S
C1494 C1489 1.363 . S
C1494 C1493 1.415 . S
C1495 H1471 0.951 . S
C1495 C1496 1.366 . S
C1495 C1497 1.388 . S
C1496 C1495 1.366 . S
C1496 C1500 1.385 . S
C1497 H1472 0.951 . S
C1497 C1495 1.388 . S
C1497 C1498 1.366 . S
C1498 C1497 1.366 . S
C1498 C1499 1.414 . S
C1498 C1501 1.499 . S
C1499 H1473 0.950 . S
C1499 C1498 1.414 . S
C1499 C1500 1.374 . S
C1500 H1474 0.950 . S
C1500 C1496 1.385 . S
C1500 C1499 1.374 . S
C1501 C1498 1.499 . S
C1501 C1502 1.373 . S
C1501 C1503 1.389 . S
C1502 H1475 0.950 . S
C1502 C1488 1.377 . S
C1502 C1501 1.373 . S
C1503 C1487 1.377 . S
C1503 C1501 1.389 . S
C1503 C1504 1.488 1_556 S
C1504 C1503 1.488 1_554 S
C1504 C1505 1.440 . S
C1504 C1509 1.360 . S
C1505 H1476 0.950 . S
C1505 C1504 1.440 . S
C1505 C1506 1.334 . S
C1506 H1477 0.950 . S
C1506 C1505 1.334 . S
C1506 C1507 1.287 . S
C1507 C1506 1.287 . S
C1507 C1508 1.524 . S
C1507 H1510 0.999 . S
C1508 H1478 0.950 . S
C1508 C1507 1.524 . S
C1508 C1509 1.422 . S
C1509 H1479 0.942 1_554 S
C1509 C1504 1.360 . S
C1509 C1508 1.422 . S
H1510 C1507 0.999 . S
H1511 C1492 0.913 . S
H1512 C1530 0.951 . S
H1513 C1532 0.951 . S
H1514 C1534 0.950 . S
H1515 C1535 0.950 . S
H1516 C1537 0.950 . S
H1517 C1540 0.950 . S
H1518 C1541 0.950 . S
H1519 C1543 0.950 . S
H1520 C1544 0.972 . S
H1521 C1545 0.951 . S
H1522 C1547 0.951 . S
H1523 C1549 0.950 . S
H1524 C1550 0.950 . S
H1525 C1552 0.950 . S
H1526 C1555 0.950 . S
H1527 C1556 0.950 . S
H1528 C1558 0.950 . S
H1529 C1559 0.950 . S
C1530 H1512 0.951 . S
C1530 C1531 1.366 . S
C1530 C1532 1.388 . S
C1531 C1530 1.366 . S
C1531 C1535 1.385 . S
C1532 H1513 0.951 . S
C1532 C1530 1.388 . S
C1532 C1533 1.366 . S
C1533 C1532 1.366 . S
C1533 C1534 1.414 . S
C1533 C1536 1.499 . S
C1534 H1514 0.950 . S
C1534 C1533 1.414 . S
C1534 C1535 1.374 . S
C1535 H1515 0.950 . S
C1535 C1531 1.385 . S
C1535 C1534 1.374 . S
C1536 C1533 1.499 . S
C1536 C1537 1.373 . S
C1536 C1538 1.389 . S
C1537 H1516 0.950 . S
C1537 C1536 1.373 . S
C1537 C1553 1.377 . S
C1538 C1536 1.389 . S
C1538 C1539 1.524 . S
C1538 C1552 1.377 . S
C1539 C1538 1.524 . S
C1539 C1540 1.397 . S
C1539 C1544 1.416 . S
C1540 H1517 0.950 . S
C1540 C1539 1.397 . S
C1540 C1541 1.334 1_554 S
C1541 H1518 0.950 . S
C1541 C1540 1.334 1_556 S
C1541 C1542 1.287 . S
C1542 C1541 1.287 . S
C1542 C1543 1.524 . S
C1542 H1561 0.913 . S
C1543 H1519 0.950 . S
C1543 C1542 1.524 . S
C1543 C1544 1.346 1_556 S
C1544 H1520 0.972 . S
C1544 C1539 1.416 . S
C1544 C1543 1.346 1_554 S
C1545 H1521 0.951 . S
C1545 C1546 1.366 . S
C1545 C1547 1.388 . S
C1546 C1545 1.366 . S
C1546 C1550 1.385 . S
C1547 H1522 0.951 . S
C1547 C1545 1.388 . S
C1547 C1548 1.366 . S
C1548 C1547 1.366 . S
C1548 C1549 1.414 . S
C1548 C1551 1.499 . S
C1549 H1523 0.950 . S
C1549 C1548 1.414 . S
C1549 C1550 1.374 . S
C1550 H1524 0.950 . S
C1550 C1546 1.385 . S
C1550 C1549 1.374 . S
C1551 C1548 1.499 . S
C1551 C1552 1.373 . S
C1551 C1553 1.389 . S
C1552 H1525 0.950 . S
C1552 C1538 1.377 . S
C1552 C1551 1.373 . S
C1553 C1537 1.377 . S
C1553 C1551 1.389 . S
C1553 C1554 1.524 . S
C1554 C1553 1.524 . S
C1554 C1555 1.397 . S
C1554 C1559 1.363 . S
C1555 H1526 0.950 . S
C1555 C1554 1.397 . S
C1555 C1556 1.334 . S
C1556 H1527 0.950 . S
C1556 C1555 1.334 . S
C1556 C1557 1.287 . S
C1557 C1556 1.287 . S
C1557 C1558 1.524 . S
C1557 H1560 0.999 . S
C1558 H1528 0.950 . S
C1558 C1557 1.524 . S
C1558 C1559 1.415 . S
C1559 H1529 0.950 . S
C1559 C1554 1.363 . S
C1559 C1558 1.415 . S
H1560 C1557 0.999 . S
H1561 C1542 0.913 . S
H1562 C1580 0.951 . S
H1563 C1582 0.951 . S
H1564 C1584 0.950 . S
H1565 C1585 0.950 . S
H1566 C1587 0.950 . S
H1567 C1590 0.950 . S
H1568 C1591 0.950 . S
H1569 C1593 0.950 . S
H1570 C1594 0.950 . S
H1571 C1595 0.951 . S
H1572 C1597 0.951 . S
H1573 C1599 0.950 . S
H1574 C1600 0.950 . S
H1575 C1602 0.950 . S
H1576 C1605 0.950 . S
H1577 C1606 0.950 . S
H1578 C1608 0.950 . S
H1579 C1609 0.950 . S
C1580 H1562 0.951 . S
C1580 C1581 1.366 . S
C1580 C1582 1.388 . S
C1581 C1580 1.366 . S
C1581 C1585 1.385 . S
C1582 H1563 0.951 . S
C1582 C1580 1.388 . S
C1582 C1583 1.366 . S
C1583 C1582 1.366 . S
C1583 C1584 1.414 . S
C1583 C1586 1.499 . S
C1584 H1564 0.950 . S
C1584 C1583 1.414 . S
C1584 C1585 1.374 . S
C1585 H1565 0.950 . S
C1585 C1581 1.385 . S
C1585 C1584 1.374 . S
C1586 C1583 1.499 . S
C1586 C1587 1.373 . S
C1586 C1588 1.389 . S
C1587 H1566 0.950 . S
C1587 C1586 1.373 . S
C1587 C1603 1.377 . S
C1588 C1586 1.389 . S
C1588 C1589 1.524 . S
C1588 C1602 1.377 . S
C1589 C1588 1.524 . S
C1589 C1590 1.397 . S
C1589 C1594 1.363 . S
C1590 H1567 0.950 . S
C1590 C1589 1.397 . S
C1590 C1591 1.334 . S
C1591 H1568 0.950 . S
C1591 C1590 1.334 . S
C1591 C1592 1.287 . S
C1592 C1591 1.287 . S
C1592 C1593 1.524 . S
C1592 H1611 0.913 . S
C1593 H1569 0.950 . S
C1593 C1592 1.524 . S
C1593 C1594 1.415 . S
C1594 H1570 0.950 . S
C1594 C1589 1.363 . S
C1594 C1593 1.415 . S
C1595 H1571 0.951 . S
C1595 C1596 1.366 . S
C1595 C1597 1.388 . S
C1596 C1595 1.366 . S
C1596 C1600 1.385 . S
C1597 H1572 0.951 . S
C1597 C1595 1.388 . S
C1597 C1598 1.366 . S
C1598 C1597 1.366 . S
C1598 C1599 1.414 . S
C1598 C1601 1.499 . S
C1599 H1573 0.950 . S
C1599 C1598 1.414 . S
C1599 C1600 1.374 . S
C1600 H1574 0.950 . S
C1600 C1596 1.385 . S
C1600 C1599 1.374 . S
C1601 C1598 1.499 . S
C1601 C1602 1.373 . S
C1601 C1603 1.389 . S
C1602 H1575 0.950 . S
C1602 C1588 1.377 . S
C1602 C1601 1.373 . S
C1603 C1587 1.377 . S
C1603 C1601 1.389 . S
C1603 C1604 1.524 . S
C1604 C1603 1.524 . S
C1604 C1605 1.397 . S
C1604 C1609 1.363 . S
C1605 H1576 0.950 . S
C1605 C1604 1.397 . S
C1605 C1606 1.334 1_554 S
C1606 H1577 0.950 . S
C1606 C1605 1.334 1_556 S
C1606 C1607 1.287 . S
C1607 C1606 1.287 . S
C1607 C1608 1.524 . S
C1607 H1610 0.999 . S
C1608 H1578 0.950 . S
C1608 C1607 1.524 . S
C1608 C1609 1.415 1_556 S
C1609 H1579 0.950 . S
C1609 C1604 1.363 . S
C1609 C1608 1.415 1_554 S
H1610 C1607 0.999 . S
H1611 C1592 0.913 . S
H1612 C1630 0.951 . S
H1613 C1632 0.951 . S
H1614 C1634 0.950 . S
H1615 C1635 0.950 . S
H1616 C1637 0.950 . S
H1617 C1640 0.950 . S
H1618 C1641 0.950 . S
H1619 C1643 0.950 . S
H1620 C1644 0.950 1_556 S
H1621 C1645 0.951 . S
H1622 C1647 0.951 . S
H1623 C1649 0.950 1_556 S
H1624 C1650 0.900 1_556 S
H1625 C1652 0.950 . S
H1626 C1655 0.950 . S
H1627 C1656 0.950 . S
H1628 C1658 0.950 . S
H1629 C1659 0.950 . S
C1630 H1612 0.951 . S
C1630 C1631 1.366 . S
C1630 C1632 1.388 . S
C1631 C1630 1.366 . S
C1631 C1635 1.385 . S
C1632 H1613 0.951 . S
C1632 C1630 1.388 . S
C1632 C1633 1.366 . S
C1633 C1632 1.366 . S
C1633 C1634 1.414 . S
C1633 C1636 1.499 . S
C1634 H1614 0.950 . S
C1634 C1633 1.414 . S
C1634 C1635 1.374 . S
C1635 H1615 0.950 . S
C1635 C1631 1.385 . S
C1635 C1634 1.374 . S
C1636 C1633 1.499 . S
C1636 C1637 1.373 . S
C1636 C1638 1.389 . S
C1637 H1616 0.950 . S
C1637 C1636 1.373 . S
C1637 C1653 1.377 . S
C1638 C1636 1.389 . S
C1638 C1639 1.524 . S
C1638 C1652 1.377 . S
C1639 C1638 1.524 . S
C1639 C1640 1.397 . S
C1639 C1644 1.363 . S
C1640 H1617 0.950 . S
C1640 C1639 1.397 . S
C1640 C1641 1.334 . S
C1641 H1618 0.950 . S
C1641 C1640 1.334 . S
C1641 C1642 1.287 . S
C1642 C1641 1.287 . S
C1642 C1643 1.524 1_554 S
C1642 H1661 0.913 . S
C1643 H1619 0.950 . S
C1643 C1642 1.524 1_556 S
C1643 C1644 1.415 1_556 S
C1644 H1620 0.950 1_554 S
C1644 C1639 1.363 . S
C1644 C1643 1.415 1_554 S
C1645 H1621 0.951 . S
C1645 C1646 1.366 . S
C1645 C1647 1.388 . S
C1646 C1645 1.366 . S
C1646 C1650 1.421 . S
C1647 H1622 0.951 . S
C1647 C1645 1.388 . S
C1647 C1648 1.366 . S
C1648 C1647 1.366 . S
C1648 C1649 1.414 . S
C1648 C1651 1.499 . S
C1649 H1623 0.950 1_554 S
C1649 C1648 1.414 . S
C1649 C1650 1.388 . S
C1650 H1624 0.900 1_554 S
C1650 C1646 1.421 . S
C1650 C1649 1.388 . S
C1651 C1648 1.499 . S
C1651 C1652 1.373 . S
C1651 C1653 1.389 . S
C1652 H1625 0.950 . S
C1652 C1638 1.377 . S
C1652 C1651 1.373 . S
C1653 C1637 1.377 . S
C1653 C1651 1.389 . S
C1653 C1654 1.524 . S
C1654 C1653 1.524 . S
C1654 C1655 1.397 . S
C1654 C1659 1.363 . S
C1655 H1626 0.950 . S
C1655 C1654 1.397 . S
C1655 C1656 1.334 . S
C1656 H1627 0.950 . S
C1656 C1655 1.334 . S
C1656 C1657 1.287 . S
C1657 C1656 1.287 . S
C1657 C1658 1.524 . S
C1657 H1660 0.999 . S
C1658 H1628 0.950 . S
C1658 C1657 1.524 . S
C1658 C1659 1.415 . S
C1659 H1629 0.950 . S
C1659 C1654 1.363 . S
C1659 C1658 1.415 . S
H1660 C1657 0.999 . S
H1661 C1642 0.913 . S
H1662 C1680 0.951 . S
H1663 C1682 0.951 . S
H1664 C1684 0.950 . S
H1665 C1685 0.950 . S
H1666 C1687 0.950 . S
H1667 C1690 0.950 . S
H1668 C1691 0.950 . S
H1669 C1693 0.950 . S
H1670 C1694 0.950 . S
H1671 C1695 0.951 . S
H1672 C1697 0.951 . S
H1673 C1699 0.950 . S
H1674 C1700 0.950 . S
H1675 C1702 0.950 . S
H1676 C1705 0.950 . S
H1677 C1706 0.950 . S
H1678 C1708 0.950 . S
H1679 C1709 0.950 . S
C1680 H1662 0.951 . S
C1680 C1681 1.366 . S
C1680 C1682 1.388 . S
C1681 C1680 1.366 . S
C1681 C1685 1.385 . S
C1682 H1663 0.951 . S
C1682 C1680 1.388 . S
C1682 C1683 1.366 . S
C1683 C1682 1.366 . S
C1683 C1684 1.414 . S
C1683 C1686 1.499 1_655 S
C1684 H1664 0.950 . S
C1684 C1683 1.414 . S
C1684 C1685 1.374 . S
C1685 H1665 0.950 . S
C1685 C1681 1.385 . S
C1685 C1684 1.374 . S
C1686 C1683 1.499 1_455 S
C1686 C1687 1.373 . S
C1686 C1688 1.389 . S
C1687 H1666 0.950 . S
C1687 C1686 1.373 . S
C1687 C1703 1.377 . S
C1688 C1686 1.389 . S
C1688 C1689 1.524 . S
C1688 C1702 1.377 . S
C1689 C1688 1.524 . S
C1689 C1690 1.397 . S
C1689 C1694 1.363 . S
C1690 H1667 0.950 . S
C1690 C1689 1.397 . S
C1690 C1691 1.334 . S
C1691 H1668 0.950 . S
C1691 C1690 1.334 . S
C1691 C1692 1.287 . S
C1692 C1691 1.287 . S
C1692 C1693 1.524 . S
C1692 H1711 0.913 . S
C1693 H1669 0.950 . S
C1693 C1692 1.524 . S
C1693 C1694 1.415 . S
C1694 H1670 0.950 . S
C1694 C1689 1.363 . S
C1694 C1693 1.415 . S
C1695 H1671 0.951 . S
C1695 C1696 1.366 . S
C1695 C1697 1.388 . S
C1696 C1695 1.366 . S
C1696 C1700 1.385 . S
C1697 H1672 0.951 . S
C1697 C1695 1.388 . S
C1697 C1698 1.366 . S
C1698 C1697 1.366 . S
C1698 C1699 1.414 . S
C1698 C1701 1.499 . S
C1699 H1673 0.950 . S
C1699 C1698 1.414 . S
C1699 C1700 1.374 . S
C1700 H1674 0.950 . S
C1700 C1696 1.385 . S
C1700 C1699 1.374 . S
C1701 C1698 1.499 . S
C1701 C1702 1.373 . S
C1701 C1703 1.389 . S
C1702 H1675 0.950 . S
C1702 C1688 1.377 . S
C1702 C1701 1.373 . S
C1703 C1687 1.377 . S
C1703 C1701 1.389 . S
C1703 C1704 1.524 . S
C1704 C1703 1.524 . S
C1704 C1705 1.397 . S
C1704 C1709 1.363 . S
C1705 H1676 0.950 . S
C1705 C1704 1.397 . S
C1705 C1706 1.334 . S
C1706 H1677 0.950 . S
C1706 C1705 1.334 . S
C1706 C1707 1.287 . S
C1707 C1706 1.287 . S
C1707 C1708 1.524 . S
C1707 H1710 0.999 . S
C1708 H1678 0.950 . S
C1708 C1707 1.524 . S
C1708 C1709 1.415 . S
C1709 H1679 0.950 . S
C1709 C1704 1.363 . S
C1709 C1708 1.415 . S
H1710 C1707 0.999 . S
H1711 C1692 0.913 . S
H1712 C1730 0.951 . S
H1713 C1732 0.951 . S
H1714 C1734 0.950 . S
H1715 C1735 0.950 . S
H1716 C1737 0.950 . S
H1717 C1740 0.950 . S
H1718 C1741 0.950 . S
H1719 C1743 0.950 . S
H1720 C1744 0.950 . S
H1721 C1745 0.951 . S
H1722 C1747 0.951 . S
H1723 C1749 0.950 . S
H1724 C1750 0.950 . S
H1725 C1752 0.950 . S
H1726 C1755 0.950 . S
H1727 C1756 0.950 . S
H1728 C1758 0.950 . S
H1729 C1759 0.950 . S
C1730 H1712 0.951 . S
C1730 C1731 1.366 . S
C1730 C1732 1.388 . S
C1731 C1730 1.366 . S
C1731 C1735 1.385 . S
C1732 H1713 0.951 . S
C1732 C1730 1.388 . S
C1732 C1733 1.366 . S
C1733 C1732 1.366 . S
C1733 C1734 1.414 . S
C1733 C1736 1.499 . S
C1734 H1714 0.950 . S
C1734 C1733 1.414 . S
C1734 C1735 1.374 . S
C1735 H1715 0.950 . S
C1735 C1731 1.385 . S
C1735 C1734 1.374 . S
C1736 C1733 1.499 . S
C1736 C1737 1.373 . S
C1736 C1738 1.389 . S
C1737 H1716 0.950 . S
C1737 C1736 1.373 . S
C1737 C1753 1.377 . S
C1738 C1736 1.389 . S
C1738 C1739 1.524 . S
C1738 C1752 1.377 . S
C1739 C1738 1.524 . S
C1739 C1740 1.397 . S
C1739 C1744 1.363 . S
C1740 H1717 0.950 . S
C1740 C1739 1.397 . S
C1740 C1741 1.334 . S
C1741 H1718 0.950 . S
C1741 C1740 1.334 . S
C1741 C1742 1.287 . S
C1742 C1741 1.287 . S
C1742 C1743 1.524 . S
C1742 H1761 0.913 . S
C1743 H1719 0.950 . S
C1743 C1742 1.524 . S
C1743 C1744 1.415 . S
C1744 H1720 0.950 . S
C1744 C1739 1.363 . S
C1744 C1743 1.415 . S
C1745 H1721 0.951 . S
C1745 C1746 1.366 . S
C1745 C1747 1.388 . S
C1746 C1745 1.366 . S
C1746 C1750 1.385 . S
C1747 H1722 0.951 . S
C1747 C1745 1.388 . S
C1747 C1748 1.366 . S
C1748 C1747 1.366 . S
C1748 C1749 1.414 . S
C1748 C1751 1.499 . S
C1749 H1723 0.950 . S
C1749 C1748 1.414 . S
C1749 C1750 1.374 . S
C1750 H1724 0.950 . S
C1750 C1746 1.385 . S
C1750 C1749 1.374 . S
C1751 C1748 1.499 . S
C1751 C1752 1.373 . S
C1751 C1753 1.389 . S
C1752 H1725 0.950 . S
C1752 C1738 1.377 . S
C1752 C1751 1.373 . S
C1753 C1737 1.377 . S
C1753 C1751 1.389 . S
C1753 C1754 1.524 . S
C1754 C1753 1.524 . S
C1754 C1755 1.397 . S
C1754 C1759 1.363 . S
C1755 H1726 0.950 . S
C1755 C1754 1.397 . S
C1755 C1756 1.334 . S
C1756 H1727 0.950 . S
C1756 C1755 1.334 . S
C1756 C1757 1.287 . S
C1757 C1756 1.287 . S
C1757 C1758 1.524 . S
C1757 H1760 0.999 . S
C1758 H1728 0.950 . S
C1758 C1757 1.524 . S
C1758 C1759 1.415 . S
C1759 H1729 0.950 . S
C1759 C1754 1.363 . S
C1759 C1758 1.415 . S
H1760 C1757 0.999 . S
H1761 C1742 0.913 . S
H1762 C1780 0.951 . S
H1763 C1782 0.951 . S
H1764 C1784 0.950 . S
H1765 C1785 0.950 . S
H1766 C1787 0.950 . S
H1767 C1790 0.950 . S
H1768 C1791 0.950 . S
H1769 C1793 0.950 . S
H1770 C1794 0.950 . S
H1771 C1795 0.951 . S
H1772 C1797 0.951 . S
H1773 C1799 0.950 . S
H1774 C1800 0.950 . S
H1775 C1802 0.950 . S
H1776 C1805 0.950 . S
H1777 C1806 0.950 . S
H1778 C1808 0.950 . S
H1779 C1809 0.950 . S
C1780 H1762 0.951 . S
C1780 C1781 1.366 . S
C1780 C1782 1.388 . S
C1781 C1780 1.366 . S
C1781 C1785 1.385 . S
C1782 H1763 0.951 . S
C1782 C1780 1.388 . S
C1782 C1783 1.366 . S
C1783 C1782 1.366 . S
C1783 C1784 1.414 . S
C1783 C1786 1.462 1_545 S
C1784 H1764 0.950 . S
C1784 C1783 1.414 . S
C1784 C1785 1.374 . S
C1785 H1765 0.950 . S
C1785 C1781 1.385 . S
C1785 C1784 1.374 . S
C1786 C1783 1.462 1_565 S
C1786 C1787 1.400 . S
C1786 C1788 1.402 . S
C1787 H1766 0.950 . S
C1787 C1786 1.400 . S
C1787 C1803 1.377 . S
C1788 C1786 1.402 . S
C1788 C1789 1.524 1_565 S
C1788 C1802 1.377 . S
C1789 C1788 1.524 1_545 S
C1789 C1790 1.397 . S
C1789 C1794 1.363 1_545 S
C1790 H1767 0.950 . S
C1790 C1789 1.397 . S
C1790 C1791 1.334 . S
C1791 H1768 0.950 . S
C1791 C1790 1.334 . S
C1791 C1792 1.287 . S
C1792 C1791 1.287 . S
C1792 C1793 1.524 . S
C1792 H1811 0.913 . S
C1793 H1769 0.950 . S
C1793 C1792 1.524 . S
C1793 C1794 1.415 1_545 S
C1794 H1770 0.950 . S
C1794 C1789 1.363 1_565 S
C1794 C1793 1.415 1_565 S
C1795 H1771 0.951 . S
C1795 C1796 1.366 . S
C1795 C1797 1.388 . S
C1796 C1795 1.366 . S
C1796 C1800 1.385 . S
C1797 H1772 0.951 . S
C1797 C1795 1.388 . S
C1797 C1798 1.366 . S
C1798 C1797 1.366 . S
C1798 C1799 1.414 . S
C1798 C1801 1.499 . S
C1799 H1773 0.950 . S
C1799 C1798 1.414 . S
C1799 C1800 1.374 . S
C1800 H1774 0.950 . S
C1800 C1796 1.385 . S
C1800 C1799 1.374 . S
C1801 C1798 1.499 . S
C1801 C1802 1.373 . S
C1801 C1803 1.389 . S
C1802 H1775 0.950 . S
C1802 C1788 1.377 . S
C1802 C1801 1.373 . S
C1803 C1787 1.377 . S
C1803 C1801 1.389 . S
C1803 C1804 1.524 . S
C1804 C1803 1.524 . S
C1804 C1805 1.397 . S
C1804 C1809 1.363 . S
C1805 H1776 0.950 . S
C1805 C1804 1.397 . S
C1805 C1806 1.334 . S
C1806 H1777 0.950 . S
C1806 C1805 1.334 . S
C1806 C1807 1.287 . S
C1807 C1806 1.287 . S
C1807 C1808 1.524 . S
C1807 H1810 0.999 . S
C1808 H1778 0.950 . S
C1808 C1807 1.524 . S
C1808 C1809 1.415 . S
C1809 H1779 0.950 . S
C1809 C1804 1.363 . S
C1809 C1808 1.415 . S
H1810 C1807 0.999 . S
H1811 C1792 0.913 . S
H1812 C1830 0.951 . S
H1813 C1832 0.951 . S
H1814 C1834 0.950 . S
H1815 C1835 0.950 . S
H1816 C1837 0.950 . S
H1817 C1840 0.950 . S
H1818 C1841 0.950 . S
H1819 C1843 0.950 . S
H1820 C1844 0.950 . S
H1821 C1845 0.951 . S
H1822 C1847 0.951 . S
H1823 C1849 0.950 . S
H1824 C1850 0.950 . S
H1825 C1852 0.950 . S
H1826 C1855 0.950 . S
H1827 C1856 0.950 . S
H1828 C1858 0.950 . S
H1829 C1859 0.950 . S
C1830 H1812 0.951 . S
C1830 C1831 1.366 . S
C1830 C1832 1.388 . S
C1831 C1830 1.366 . S
C1831 C1835 1.385 . S
C1832 H1813 0.951 . S
C1832 C1830 1.388 . S
C1832 C1833 1.366 . S
C1833 C1832 1.366 . S
C1833 C1834 1.414 . S
C1833 C1836 1.499 . S
C1834 H1814 0.950 . S
C1834 C1833 1.414 . S
C1834 C1835 1.374 . S
C1835 H1815 0.950 . S
C1835 C1831 1.385 . S
C1835 C1834 1.374 . S
C1836 C1833 1.499 . S
C1836 C1837 1.373 . S
C1836 C1838 1.389 . S
C1837 H1816 0.950 . S
C1837 C1836 1.373 . S
C1837 C1853 1.377 . S
C1838 C1836 1.389 . S
C1838 C1839 1.524 . S
C1838 C1852 1.377 . S
C1839 C1838 1.524 . S
C1839 C1840 1.397 . S
C1839 C1844 1.363 . S
C1840 H1817 0.950 . S
C1840 C1839 1.397 . S
C1840 C1841 1.334 . S
C1841 H1818 0.950 . S
C1841 C1840 1.334 . S
C1841 C1842 1.287 . S
C1842 C1841 1.287 . S
C1842 C1843 1.524 . S
C1842 H1861 0.913 . S
C1843 H1819 0.950 . S
C1843 C1842 1.524 . S
C1843 C1844 1.415 . S
C1844 H1820 0.950 . S
C1844 C1839 1.363 . S
C1844 C1843 1.415 . S
C1845 H1821 0.951 . S
C1845 C1846 1.366 . S
C1845 C1847 1.388 . S
C1846 C1845 1.366 . S
C1846 C1850 1.385 . S
C1847 H1822 0.951 . S
C1847 C1845 1.388 . S
C1847 C1848 1.366 . S
C1848 C1847 1.366 . S
C1848 C1849 1.414 . S
C1848 C1851 1.499 . S
C1849 H1823 0.950 . S
C1849 C1848 1.414 . S
C1849 C1850 1.374 . S
C1850 H1824 0.950 . S
C1850 C1846 1.385 . S
C1850 C1849 1.374 . S
C1851 C1848 1.499 . S
C1851 C1852 1.373 . S
C1851 C1853 1.389 . S
C1852 H1825 0.950 . S
C1852 C1838 1.377 . S
C1852 C1851 1.373 . S
C1853 C1837 1.377 . S
C1853 C1851 1.389 . S
C1853 C1854 1.524 . S
C1854 C1853 1.524 . S
C1854 C1855 1.397 . S
C1854 C1859 1.363 . S
C1855 H1826 0.950 . S
C1855 C1854 1.397 . S
C1855 C1856 1.334 . S
C1856 H1827 0.950 . S
C1856 C1855 1.334 . S
C1856 C1857 1.287 . S
C1857 C1856 1.287 . S
C1857 C1858 1.524 . S
C1857 H1860 0.999 . S
C1858 H1828 0.950 . S
C1858 C1857 1.524 . S
C1858 C1859 1.415 . S
C1859 H1829 0.950 . S
C1859 C1854 1.363 . S
C1859 C1858 1.415 . S
H1860 C1857 0.999 . S
H1861 C1842 0.913 . S
H1862 C1880 0.951 . S
H1863 C1882 0.951 . S
H1864 C1884 0.950 . S
H1865 C1885 0.950 . S
H1866 C1887 0.950 . S
H1867 C1890 0.950 . S
H1868 C1891 0.950 . S
H1869 C1893 0.950 . S
H1870 C1894 0.950 . S
H1871 C1895 0.951 . S
H1872 C1897 0.951 . S
H1873 C1899 0.950 . S
H1874 C1900 0.950 . S
H1875 C1902 0.950 . S
H1876 C1905 0.950 . S
H1877 C1906 0.950 . S
H1878 C1908 0.950 . S
H1879 C1909 0.950 . S
C1880 H1862 0.951 . S
C1880 C1881 1.366 . S
C1880 C1882 1.388 . S
C1881 C1880 1.366 . S
C1881 C1885 1.385 . S
C1882 H1863 0.951 . S
C1882 C1880 1.388 . S
C1882 C1883 1.366 . S
C1883 C1882 1.366 . S
C1883 C1884 1.414 . S
C1883 C1886 1.499 . S
C1884 H1864 0.950 . S
C1884 C1883 1.414 . S
C1884 C1885 1.374 . S
C1885 H1865 0.950 . S
C1885 C1881 1.385 . S
C1885 C1884 1.374 . S
C1886 C1883 1.499 . S
C1886 C1887 1.373 . S
C1886 C1888 1.389 . S
C1887 H1866 0.950 . S
C1887 C1886 1.373 . S
C1887 C1903 1.377 . S
C1888 C1886 1.389 . S
C1888 C1889 1.524 . S
C1888 C1902 1.377 . S
C1889 C1888 1.524 . S
C1889 C1890 1.397 . S
C1889 C1894 1.363 . S
C1890 H1867 0.950 . S
C1890 C1889 1.397 . S
C1890 C1891 1.334 . S
C1891 H1868 0.950 . S
C1891 C1890 1.334 . S
C1891 C1892 1.287 . S
C1892 C1891 1.287 . S
C1892 C1893 1.524 . S
C1892 H1911 0.913 . S
C1893 H1869 0.950 . S
C1893 C1892 1.524 . S
C1893 C1894 1.415 . S
C1894 H1870 0.950 . S
C1894 C1889 1.363 . S
C1894 C1893 1.415 . S
C1895 H1871 0.951 . S
C1895 C1896 1.366 . S
C1895 C1897 1.388 . S
C1896 C1895 1.366 . S
C1896 C1900 1.385 . S
C1897 H1872 0.951 . S
C1897 C1895 1.388 . S
C1897 C1898 1.366 . S
C1898 C1897 1.366 . S
C1898 C1899 1.414 . S
C1898 C1901 1.499 . S
C1899 H1873 0.950 . S
C1899 C1898 1.414 . S
C1899 C1900 1.374 . S
C1900 H1874 0.950 . S
C1900 C1896 1.385 . S
C1900 C1899 1.374 . S
C1901 C1898 1.499 . S
C1901 C1902 1.373 . S
C1901 C1903 1.389 . S
C1902 H1875 0.950 . S
C1902 C1888 1.377 . S
C1902 C1901 1.373 . S
C1903 C1887 1.377 . S
C1903 C1901 1.389 . S
C1903 C1904 1.524 . S
C1904 C1903 1.524 . S
C1904 C1905 1.397 . S
C1904 C1909 1.363 . S
C1905 H1876 0.950 . S
C1905 C1904 1.397 . S
C1905 C1906 1.334 . S
C1906 H1877 0.950 . S
C1906 C1905 1.334 . S
C1906 C1907 1.287 . S
C1907 C1906 1.287 . S
C1907 C1908 1.524 . S
C1907 H1910 0.999 . S
C1908 H1878 0.950 . S
C1908 C1907 1.524 . S
C1908 C1909 1.415 . S
C1909 H1879 0.950 . S
C1909 C1904 1.363 . S
C1909 C1908 1.415 . S
H1910 C1907 0.999 . S
H1911 C1892 0.913 . S
H1912 C1930 0.951 . S
H1913 C1932 0.951 . S
H1914 C1934 0.950 . S
H1915 C1935 0.950 . S
H1916 C1937 0.950 . S
H1917 C1940 0.950 . S
H1918 C1941 0.950 . S
H1919 C1943 0.950 . S
H1920 C1944 0.950 . S
H1921 C1945 0.951 . S
H1922 C1947 0.951 . S
H1923 C1949 0.950 . S
H1924 C1950 0.950 . S
H1925 C1952 0.950 . S
H1926 C1955 0.950 . S
H1927 C1956 0.950 . S
H1928 C1958 0.950 . S
H1929 C1959 0.950 . S
C1930 H1912 0.951 . S
C1930 C1931 1.366 . S
C1930 C1932 1.388 . S
C1931 C1930 1.366 . S
C1931 C1935 1.385 . S
C1932 H1913 0.951 . S
C1932 C1930 1.388 . S
C1932 C1933 1.366 . S
C1933 C1932 1.366 . S
C1933 C1934 1.414 . S
C1933 C1936 1.499 . S
C1934 H1914 0.950 . S
C1934 C1933 1.414 . S
C1934 C1935 1.374 . S
C1935 H1915 0.950 . S
C1935 C1931 1.385 . S
C1935 C1934 1.374 . S
C1936 C1933 1.499 . S
C1936 C1937 1.373 . S
C1936 C1938 1.389 . S
C1937 H1916 0.950 . S
C1937 C1936 1.373 . S
C1937 C1953 1.377 . S
C1938 C1936 1.389 . S
C1938 C1939 1.524 . S
C1938 C1952 1.377 . S
C1939 C1938 1.524 . S
C1939 C1940 1.397 . S
C1939 C1944 1.363 . S
C1940 H1917 0.950 . S
C1940 C1939 1.397 . S
C1940 C1941 1.334 . S
C1941 H1918 0.950 . S
C1941 C1940 1.334 . S
C1941 C1942 1.287 . S
C1942 C1941 1.287 . S
C1942 C1943 1.524 . S
C1942 H1961 0.913 . S
C1943 H1919 0.950 . S
C1943 C1942 1.524 . S
C1943 C1944 1.415 . S
C1944 H1920 0.950 . S
C1944 C1939 1.363 . S
C1944 C1943 1.415 . S
C1945 H1921 0.951 . S
C1945 C1946 1.366 . S
C1945 C1947 1.388 . S
C1946 C1945 1.366 . S
C1946 C1950 1.385 . S
C1947 H1922 0.951 . S
C1947 C1945 1.388 . S
C1947 C1948 1.366 . S
C1948 C1947 1.366 . S
C1948 C1949 1.414 . S
C1948 C1951 1.499 . S
C1949 H1923 0.950 . S
C1949 C1948 1.414 . S
C1949 C1950 1.374 . S
C1950 H1924 0.950 . S
C1950 C1946 1.385 . S
C1950 C1949 1.374 . S
C1951 C1948 1.499 . S
C1951 C1952 1.373 . S
C1951 C1953 1.389 . S
C1952 H1925 0.950 . S
C1952 C1938 1.377 . S
C1952 C1951 1.373 . S
C1953 C1937 1.377 . S
C1953 C1951 1.389 . S
C1953 C1954 1.524 . S
C1954 C1953 1.524 . S
C1954 C1955 1.397 . S
C1954 C1959 1.363 . S
C1955 H1926 0.950 . S
C1955 C1954 1.397 . S
C1955 C1956 1.334 . S
C1956 H1927 0.950 . S
C1956 C1955 1.334 . S
C1956 C1957 1.287 . S
C1957 C1956 1.287 . S
C1957 C1958 1.524 . S
C1957 H1960 0.999 . S
C1958 H1928 0.950 . S
C1958 C1957 1.524 . S
C1958 C1959 1.415 . S
C1959 H1929 0.950 . S
C1959 C1954 1.363 . S
C1959 C1958 1.415 . S
H1960 C1957 0.999 . S
H1961 C1942 0.913 . S
H1962 C1980 0.951 . S
H1963 C1982 0.951 . S
H1964 C1984 0.950 . S
H1965 C1985 0.950 . S
H1966 C1987 0.950 . S
H1967 C1990 0.950 . S
H1968 C1991 0.950 . S
H1969 C1993 0.950 . S
H1970 C1994 0.950 . S
H1971 C1995 0.951 . S
H1972 C1997 0.951 . S
H1973 C1999 0.950 . S
H1974 C2000 0.950 . S
H1975 C2002 0.950 . S
H1976 C2005 0.950 . S
H1977 C2006 0.950 . S
H1978 C2008 0.950 . S
H1979 C2009 0.950 . S
C1980 H1962 0.951 . S
C1980 C1981 1.366 . S
C1980 C1982 1.388 . S
C1981 C1980 1.366 . S
C1981 C1985 1.385 . S
C1982 H1963 0.951 . S
C1982 C1980 1.388 . S
C1982 C1983 1.366 . S
C1983 C1982 1.366 . S
C1983 C1984 1.414 . S
C1983 C1986 1.499 . S
C1984 H1964 0.950 . S
C1984 C1983 1.414 . S
C1984 C1985 1.374 . S
C1985 H1965 0.950 . S
C1985 C1981 1.385 . S
C1985 C1984 1.374 . S
C1986 C1983 1.499 . S
C1986 C1987 1.373 . S
C1986 C1988 1.389 . S
C1987 H1966 0.950 . S
C1987 C1986 1.373 . S
C1987 C2003 1.377 . S
C1988 C1986 1.389 . S
C1988 C1989 1.524 . S
C1988 C2002 1.377 . S
C1989 C1988 1.524 . S
C1989 C1990 1.397 . S
C1989 C1994 1.363 . S
C1990 H1967 0.950 . S
C1990 C1989 1.397 . S
C1990 C1991 1.334 . S
C1991 H1968 0.950 . S
C1991 C1990 1.334 . S
C1991 C1992 1.287 . S
C1992 C1991 1.287 . S
C1992 C1993 1.524 . S
C1992 H2011 0.913 . S
C1993 H1969 0.950 . S
C1993 C1992 1.524 . S
C1993 C1994 1.415 . S
C1994 H1970 0.950 . S
C1994 C1989 1.363 . S
C1994 C1993 1.415 . S
C1995 H1971 0.951 . S
C1995 C1996 1.366 . S
C1995 C1997 1.388 . S
C1996 C1995 1.366 . S
C1996 C2000 1.385 . S
C1997 H1972 0.951 . S
C1997 C1995 1.388 . S
C1997 C1998 1.366 . S
C1998 C1997 1.366 . S
C1998 C1999 1.414 . S
C1998 C2001 1.499 . S
C1999 H1973 0.950 . S
C1999 C1998 1.414 . S
C1999 C2000 1.374 . S
C2000 H1974 0.950 . S
C2000 C1996 1.385 . S
C2000 C1999 1.374 . S
C2001 C1998 1.499 . S
C2001 C2002 1.373 . S
C2001 C2003 1.389 . S
C2002 H1975 0.950 . S
C2002 C1988 1.377 . S
C2002 C2001 1.373 . S
C2003 C1987 1.377 . S
C2003 C2001 1.389 . S
C2003 C2004 1.524 . S
C2004 C2003 1.524 . S
C2004 C2005 1.397 . S
C2004 C2009 1.363 . S
C2005 H1976 0.950 . S
C2005 C2004 1.397 . S
C2005 C2006 1.334 . S
C2006 H1977 0.950 . S
C2006 C2005 1.334 . S
C2006 C2007 1.287 . S
C2007 C2006 1.287 . S
C2007 C2008 1.524 . S
C2007 H2010 0.999 . S
C2008 H1978 0.950 . S
C2008 C2007 1.524 . S
C2008 C2009 1.415 . S
C2009 H1979 0.950 . S
C2009 C2004 1.363 . S
C2009 C2008 1.415 . S
H2010 C2007 0.999 . S
H2011 C1992 0.913 . S
H2012 C2030 0.951 . S
H2013 C2032 0.951 . S
H2014 C2034 0.950 . S
H2015 C2035 0.950 . S
H2016 C2037 0.950 . S
H2017 C2040 0.950 . S
H2018 C2041 0.950 . S
H2019 C2043 0.950 . S
H2020 C2044 0.950 . S
H2021 C2045 0.951 . S
H2022 C2047 0.951 . S
H2023 C2049 0.950 . S
H2024 C2050 0.950 . S
H2025 C2052 0.950 . S
H2026 C2055 0.950 . S
H2027 C2056 0.950 . S
H2028 C2058 0.950 . S
H2029 C2059 0.950 . S
C2030 H2012 0.951 . S
C2030 C2031 1.366 . S
C2030 C2032 1.388 . S
C2031 C2030 1.366 . S
C2031 C2035 1.385 . S
C2032 H2013 0.951 . S
C2032 C2030 1.388 . S
C2032 C2033 1.366 . S
C2033 C2032 1.366 . S
C2033 C2034 1.414 . S
C2033 C2036 1.499 . S
C2034 H2014 0.950 . S
C2034 C2033 1.414 . S
C2034 C2035 1.374 . S
C2035 H2015 0.950 . S
C2035 C2031 1.385 . S
C2035 C2034 1.374 . S
C2036 C2033 1.499 . S
C2036 C2037 1.373 . S
C2036 C2038 1.389 . S
C2037 H2016 0.950 . S
C2037 C2036 1.373 . S
C2037 C2053 1.377 . S
C2038 C2036 1.389 . S
C2038 C2039 1.524 . S
C2038 C2052 1.377 . S
C2039 C2038 1.524 . S
C2039 C2040 1.397 . S
C2039 C2044 1.363 . S
C2040 H2017 0.950 . S
C2040 C2039 1.397 . S
C2040 C2041 1.334 . S
C2041 H2018 0.950 . S
C2041 C2040 1.334 . S
C2041 C2042 1.287 . S
C2042 C2041 1.287 . S
C2042 C2043 1.524 . S
C2042 H2061 0.913 . S
C2043 H2019 0.950 . S
C2043 C2042 1.524 . S
C2043 C2044 1.415 . S
C2044 H2020 0.950 . S
C2044 C2039 1.363 . S
C2044 C2043 1.415 . S
C2045 H2021 0.951 . S
C2045 C2046 1.366 . S
C2045 C2047 1.388 . S
C2046 C2045 1.366 . S
C2046 C2050 1.385 . S
C2047 H2022 0.951 . S
C2047 C2045 1.388 . S
C2047 C2048 1.366 . S
C2048 C2047 1.366 . S
C2048 C2049 1.414 . S
C2048 C2051 1.499 . S
C2049 H2023 0.950 . S
C2049 C2048 1.414 . S
C2049 C2050 1.374 . S
C2050 H2024 0.950 . S
C2050 C2046 1.385 . S
C2050 C2049 1.374 . S
C2051 C2048 1.499 . S
C2051 C2052 1.373 . S
C2051 C2053 1.389 . S
C2052 H2025 0.950 . S
C2052 C2038 1.377 . S
C2052 C2051 1.373 . S
C2053 C2037 1.377 . S
C2053 C2051 1.389 . S
C2053 C2054 1.524 . S
C2054 C2053 1.524 . S
C2054 C2055 1.397 . S
C2054 C2059 1.363 . S
C2055 H2026 0.950 . S
C2055 C2054 1.397 . S
C2055 C2056 1.334 . S
C2056 H2027 0.950 . S
C2056 C2055 1.334 . S
C2056 C2057 1.287 . S
C2057 C2056 1.287 . S
C2057 C2058 1.524 . S
C2057 H2060 0.999 . S
C2058 H2028 0.950 . S
C2058 C2057 1.524 . S
C2058 C2059 1.415 . S
C2059 H2029 0.950 . S
C2059 C2054 1.363 . S
C2059 C2058 1.415 . S
H2060 C2057 0.999 . S
H2061 C2042 0.913 . S
H2062 C2080 0.951 . S
H2063 C2082 0.951 . S
H2064 C2084 0.950 . S
H2065 C2085 0.950 . S
H2066 C2087 0.950 . S
H2067 C2090 0.950 . S
H2068 C2091 0.950 . S
H2069 C2093 0.950 . S
H2070 C2094 0.950 . S
H2071 C2095 0.951 . S
H2072 C2097 0.951 . S
H2073 C2099 0.950 . S
H2074 C2100 0.950 . S
H2075 C2102 0.950 . S
H2076 C2105 0.950 . S
H2077 C2106 0.950 . S
H2078 C2108 0.950 . S
H2079 C2109 0.950 . S
C2080 H2062 0.951 . S
C2080 C2081 1.366 . S
C2080 C2082 1.388 . S
C2081 C2080 1.366 . S
C2081 C2085 1.385 . S
C2082 H2063 0.951 . S
C2082 C2080 1.388 . S
C2082 C2083 1.366 . S
C2083 C2082 1.366 . S
C2083 C2084 1.414 . S
C2083 C2086 1.499 . S
C2084 H2064 0.950 . S
C2084 C2083 1.414 . S
C2084 C2085 1.374 . S
C2085 H2065 0.950 . S
C2085 C2081 1.385 . S
C2085 C2084 1.374 . S
C2086 C2083 1.499 . S
C2086 C2087 1.373 . S
C2086 C2088 1.389 . S
C2087 H2066 0.950 . S
C2087 C2086 1.373 . S
C2087 C2103 1.377 . S
C2088 C2086 1.389 . S
C2088 C2089 1.524 . S
C2088 C2102 1.377 . S
C2089 C2088 1.524 . S
C2089 C2090 1.397 . S
C2089 C2094 1.363 . S
C2090 H2067 0.950 . S
C2090 C2089 1.397 . S
C2090 C2091 1.334 . S
C2091 H2068 0.950 . S
C2091 C2090 1.334 . S
C2091 C2092 1.287 . S
C2092 C2091 1.287 . S
C2092 C2093 1.524 . S
C2092 H2111 0.913 . S
C2093 H2069 0.950 . S
C2093 C2092 1.524 . S
C2093 C2094 1.415 . S
C2094 H2070 0.950 . S
C2094 C2089 1.363 . S
C2094 C2093 1.415 . S
C2095 H2071 0.951 . S
C2095 C2096 1.366 . S
C2095 C2097 1.388 . S
C2096 C2095 1.366 . S
C2096 C2100 1.385 . S
C2097 H2072 0.951 . S
C2097 C2095 1.388 . S
C2097 C2098 1.366 . S
C2098 C2097 1.366 . S
C2098 C2099 1.414 . S
C2098 C2101 1.499 . S
C2099 H2073 0.950 . S
C2099 C2098 1.414 . S
C2099 C2100 1.374 . S
C2100 H2074 0.950 . S
C2100 C2096 1.385 . S
C2100 C2099 1.374 . S
C2101 C2098 1.499 . S
C2101 C2102 1.373 . S
C2101 C2103 1.389 . S
C2102 H2075 0.950 . S
C2102 C2088 1.377 . S
C2102 C2101 1.373 . S
C2103 C2087 1.377 . S
C2103 C2101 1.389 . S
C2103 C2104 1.524 . S
C2104 C2103 1.524 . S
C2104 C2105 1.397 . S
C2104 C2109 1.363 . S
C2105 H2076 0.950 . S
C2105 C2104 1.397 . S
C2105 C2106 1.334 . S
C2106 H2077 0.950 . S
C2106 C2105 1.334 . S
C2106 C2107 1.287 . S
C2107 C2106 1.287 . S
C2107 C2108 1.524 . S
C2107 H2110 0.999 . S
C2108 H2078 0.950 . S
C2108 C2107 1.524 . S
C2108 C2109 1.415 . S
C2109 H2079 0.950 . S
C2109 C2104 1.363 . S
C2109 C2108 1.415 . S
H2110 C2107 0.999 . S
H2111 C2092 0.913 . S
H2112 C2130 0.951 . S
H2113 C2132 0.951 . S
H2114 C2134 0.950 . S
H2115 C2135 0.950 . S
H2116 C2137 0.950 . S
H2117 C2140 0.950 . S
H2118 C2141 0.950 . S
H2119 C2143 0.950 . S
H2120 C2144 0.950 . S
H2121 C2145 0.951 . S
H2122 C2147 0.951 . S
H2123 C2149 0.950 . S
H2124 C2150 0.950 . S
H2125 C2152 0.950 . S
H2126 C2155 0.950 . S
H2127 C2156 0.950 . S
H2128 C2158 0.950 . S
H2129 C2159 0.950 . S
C2130 H2112 0.951 . S
C2130 C2131 1.366 . S
C2130 C2132 1.388 . S
C2131 C2130 1.366 . S
C2131 C2135 1.385 . S
C2132 H2113 0.951 . S
C2132 C2130 1.388 . S
C2132 C2133 1.366 . S
C2133 C2132 1.366 . S
C2133 C2134 1.414 . S
C2133 C2136 1.499 1_545 S
C2134 H2114 0.950 . S
C2134 C2133 1.414 . S
C2134 C2135 1.374 . S
C2135 H2115 0.950 . S
C2135 C2131 1.385 . S
C2135 C2134 1.374 . S
C2136 C2133 1.499 1_565 S
C2136 C2137 1.373 . S
C2136 C2138 1.389 . S
C2137 H2116 0.950 . S
C2137 C2136 1.373 . S
C2137 C2153 1.377 . S
C2138 C2136 1.389 . S
C2138 C2139 1.541 . S
C2138 C2152 1.377 . S
C2139 C2138 1.541 . S
C2139 C2140 1.374 1_565 S
C2139 C2144 1.369 . S
C2140 H2117 0.950 . S
C2140 C2139 1.374 1_545 S
C2140 C2141 1.334 . S
C2141 H2118 0.950 . S
C2141 C2140 1.334 . S
C2141 C2142 1.287 . S
C2142 C2141 1.287 . S
C2142 C2143 1.524 . S
C2142 H2161 0.913 . S
C2143 H2119 0.950 . S
C2143 C2142 1.524 . S
C2143 C2144 1.415 1_545 S
C2144 H2120 0.950 . S
C2144 C2139 1.369 . S
C2144 C2143 1.415 1_565 S
C2145 H2121 0.951 . S
C2145 C2146 1.366 . S
C2145 C2147 1.388 . S
C2146 C2145 1.366 . S
C2146 C2150 1.385 . S
C2147 H2122 0.951 . S
C2147 C2145 1.388 . S
C2147 C2148 1.366 . S
C2148 C2147 1.366 . S
C2148 C2149 1.414 . S
C2148 C2151 1.499 . S
C2149 H2123 0.950 . S
C2149 C2148 1.414 . S
C2149 C2150 1.374 . S
C2150 H2124 0.950 . S
C2150 C2146 1.385 . S
C2150 C2149 1.374 . S
C2151 C2148 1.499 . S
C2151 C2152 1.373 . S
C2151 C2153 1.389 . S
C2152 H2125 0.950 . S
C2152 C2138 1.377 . S
C2152 C2151 1.373 . S
C2153 C2137 1.377 . S
C2153 C2151 1.389 . S
C2153 C2154 1.524 . S
C2154 C2153 1.524 . S
C2154 C2155 1.397 . S
C2154 C2159 1.363 . S
C2155 H2126 0.950 . S
C2155 C2154 1.397 . S
C2155 C2156 1.334 . S
C2156 H2127 0.950 . S
C2156 C2155 1.334 . S
C2156 C2157 1.287 . S
C2157 C2156 1.287 . S
C2157 C2158 1.524 . S
C2157 H2160 0.999 . S
C2158 H2128 0.950 . S
C2158 C2157 1.524 . S
C2158 C2159 1.415 . S
C2159 H2129 0.950 . S
C2159 C2154 1.363 . S
C2159 C2158 1.415 . S
H2160 C2157 0.999 . S
H2161 C2142 0.913 . S
H2162 C2180 0.951 . S
H2163 C2182 0.951 . S
H2164 C2184 0.950 . S
H2165 C2185 0.950 . S
H2166 C2187 0.950 . S
H2167 C2190 0.950 . S
H2168 C2191 0.950 1_655 S
H2169 C2193 0.950 1_655 S
H2170 C2194 0.950 . S
H2171 C2195 0.951 . S
H2172 C2197 0.951 . S
H2173 C2199 0.950 . S
H2174 C2200 0.950 . S
H2175 C2202 0.950 . S
H2176 C2205 0.950 . S
H2177 C2206 0.950 . S
H2178 C2208 0.950 . S
H2179 C2209 0.950 . S
C2180 H2162 0.951 . S
C2180 C2181 1.366 . S
C2180 C2182 1.388 . S
C2181 C2180 1.366 . S
C2181 C2185 1.385 . S
C2182 H2163 0.951 . S
C2182 C2180 1.388 . S
C2182 C2183 1.366 1_655 S
C2183 C2182 1.366 1_455 S
C2183 C2184 1.414 . S
C2183 C2186 1.499 . S
C2184 H2164 0.950 . S
C2184 C2183 1.414 . S
C2184 C2185 1.374 1_455 S
C2185 H2165 0.950 . S
C2185 C2181 1.385 . S
C2185 C2184 1.374 1_655 S
C2186 C2183 1.499 . S
C2186 C2187 1.373 . S
C2186 C2188 1.389 . S
C2187 H2166 0.950 . S
C2187 C2186 1.373 . S
C2187 C2203 1.377 . S
C2188 C2186 1.389 . S
C2188 C2189 1.524 . S
C2188 C2202 1.377 . S
C2189 C2188 1.524 . S
C2189 C2190 1.397 . S
C2189 C2194 1.363 . S
C2190 H2167 0.950 . S
C2190 C2189 1.397 . S
C2190 C2191 1.334 . S
C2191 H2168 0.950 1_455 S
C2191 C2190 1.334 . S
C2191 C2192 1.287 1_455 S
C2192 C2191 1.287 1_655 S
C2192 C2193 1.524 1_655 S
C2192 H2211 0.913 . S
C2193 H2169 0.950 1_455 S
C2193 C2192 1.524 1_455 S
C2193 C2194 1.416 . S
C2194 H2170 0.950 . S
C2194 C2189 1.363 . S
C2194 C2193 1.416 . S
C2195 H2171 0.951 . S
C2195 C2196 1.366 . S
C2195 C2197 1.388 . S
C2196 C2195 1.366 . S
C2196 C2200 1.385 . S
C2197 H2172 0.951 . S
C2197 C2195 1.388 . S
C2197 C2198 1.366 . S
C2198 C2197 1.366 . S
C2198 C2199 1.414 . S
C2198 C2201 1.499 . S
C2199 H2173 0.950 . S
C2199 C2198 1.414 . S
C2199 C2200 1.374 . S
C2200 H2174 0.950 . S
C2200 C2196 1.385 . S
C2200 C2199 1.374 . S
C2201 C2198 1.499 . S
C2201 C2202 1.373 . S
C2201 C2203 1.389 . S
C2202 H2175 0.950 . S
C2202 C2188 1.377 . S
C2202 C2201 1.373 . S
C2203 C2187 1.377 . S
C2203 C2201 1.389 . S
C2203 C2204 1.524 . S
C2204 C2203 1.524 . S
C2204 C2205 1.397 . S
C2204 C2209 1.363 . S
C2205 H2176 0.950 . S
C2205 C2204 1.397 . S
C2205 C2206 1.334 . S
C2206 H2177 0.950 . S
C2206 C2205 1.334 . S
C2206 C2207 1.287 . S
C2207 C2206 1.287 . S
C2207 C2208 1.524 . S
C2207 H2210 0.999 . S
C2208 H2178 0.950 . S
C2208 C2207 1.524 . S
C2208 C2209 1.415 . S
C2209 H2179 0.950 . S
C2209 C2204 1.363 . S
C2209 C2208 1.415 . S
H2210 C2207 0.999 . S
H2211 C2192 0.913 . S
H2212 C2230 0.951 . S
H2213 C2232 0.951 . S
H2214 C2234 0.950 . S
H2215 C2235 0.950 . S
H2216 C2237 0.950 . S
H2217 C2240 0.950 . S
H2218 C2241 0.950 . S
H2219 C2243 0.950 . S
H2220 C2244 0.950 . S
H2221 C2245 0.951 . S
H2222 C2247 0.951 . S
H2223 C2249 0.950 . S
H2224 C2250 0.950 . S
H2225 C2252 0.950 . S
H2226 C2255 0.950 . S
H2227 C2256 0.950 . S
H2228 C2258 0.950 . S
H2229 C2259 0.950 . S
C2230 H2212 0.951 . S
C2230 C2231 1.366 . S
C2230 C2232 1.388 . S
C2231 C2230 1.366 . S
C2231 C2235 1.385 . S
C2232 H2213 0.951 . S
C2232 C2230 1.388 . S
C2232 C2233 1.366 . S
C2233 C2232 1.366 . S
C2233 C2234 1.414 . S
C2233 C2236 1.499 . S
C2234 H2214 0.950 . S
C2234 C2233 1.414 . S
C2234 C2235 1.374 . S
C2235 H2215 0.950 . S
C2235 C2231 1.385 . S
C2235 C2234 1.374 . S
C2236 C2233 1.499 . S
C2236 C2237 1.373 . S
C2236 C2238 1.389 . S
C2237 H2216 0.950 . S
C2237 C2236 1.373 . S
C2237 C2253 1.377 . S
C2238 C2236 1.389 . S
C2238 C2239 1.524 . S
C2238 C2252 1.377 . S
C2239 C2238 1.524 . S
C2239 C2240 1.397 . S
C2239 C2244 1.363 . S
C2240 H2217 0.950 . S
C2240 C2239 1.397 . S
C2240 C2241 1.334 . S
C2241 H2218 0.950 . S
C2241 C2240 1.334 . S
C2241 C2242 1.287 . S
C2242 C2241 1.287 . S
C2242 C2243 1.524 . S
C2242 H2261 0.913 . S
C2243 H2219 0.950 . S
C2243 C2242 1.524 . S
C2243 C2244 1.415 . S
C2244 H2220 0.950 . S
C2244 C2239 1.363 . S
C2244 C2243 1.415 . S
C2245 H2221 0.951 . S
C2245 C2246 1.366 . S
C2245 C2247 1.388 . S
C2246 C2245 1.366 . S
C2246 C2250 1.385 . S
C2247 H2222 0.951 . S
C2247 C2245 1.388 . S
C2247 C2248 1.366 . S
C2248 C2247 1.366 . S
C2248 C2249 1.414 . S
C2248 C2251 1.499 . S
C2249 H2223 0.950 . S
C2249 C2248 1.414 . S
C2249 C2250 1.374 . S
C2250 H2224 0.950 . S
C2250 C2246 1.385 . S
C2250 C2249 1.374 . S
C2251 C2248 1.499 . S
C2251 C2252 1.373 . S
C2251 C2253 1.389 . S
C2252 H2225 0.950 . S
C2252 C2238 1.377 . S
C2252 C2251 1.373 . S
C2253 C2237 1.377 . S
C2253 C2251 1.389 . S
C2253 C2254 1.524 . S
C2254 C2253 1.524 . S
C2254 C2255 1.397 . S
C2254 C2259 1.363 . S
C2255 H2226 0.950 . S
C2255 C2254 1.397 . S
C2255 C2256 1.334 . S
C2256 H2227 0.950 . S
C2256 C2255 1.334 . S
C2256 C2257 1.287 . S
C2257 C2256 1.287 . S
C2257 C2258 1.524 . S
C2257 H2260 0.999 . S
C2258 H2228 0.950 . S
C2258 C2257 1.524 . S
C2258 C2259 1.415 . S
C2259 H2229 0.950 . S
C2259 C2254 1.363 . S
C2259 C2258 1.415 . S
H2260 C2257 0.999 . S
H2261 C2242 0.913 . S
H2262 C2280 0.951 . S
H2263 C2282 0.951 . S
H2264 C2284 0.950 . S
H2265 C2285 0.950 . S
H2266 C2287 0.950 . S
H2267 C2290 0.950 . S
H2268 C2291 0.950 . S
H2269 C2293 0.950 . S
H2270 C2294 0.950 . S
H2271 C2295 0.951 . S
H2272 C2297 0.951 . S
H2273 C2299 0.950 . S
H2274 C2300 0.950 . S
H2275 C2302 0.950 . S
H2276 C2305 0.950 . S
H2277 C2306 0.950 . S
H2278 C2308 0.950 . S
H2279 C2309 0.950 . S
C2280 H2262 0.951 . S
C2280 C2281 1.366 . S
C2280 C2282 1.388 . S
C2281 C2280 1.366 . S
C2281 C2285 1.385 . S
C2282 H2263 0.951 . S
C2282 C2280 1.388 . S
C2282 C2283 1.366 . S
C2283 C2282 1.366 . S
C2283 C2284 1.414 . S
C2283 C2286 1.499 . S
C2284 H2264 0.950 . S
C2284 C2283 1.414 . S
C2284 C2285 1.374 . S
C2285 H2265 0.950 . S
C2285 C2281 1.385 . S
C2285 C2284 1.374 . S
C2286 C2283 1.499 . S
C2286 C2287 1.373 . S
C2286 C2288 1.389 . S
C2287 H2266 0.950 . S
C2287 C2286 1.373 . S
C2287 C2303 1.377 . S
C2288 C2286 1.389 . S
C2288 C2289 1.524 . S
C2288 C2302 1.377 . S
C2289 C2288 1.524 . S
C2289 C2290 1.397 . S
C2289 C2294 1.363 . S
C2290 H2267 0.950 . S
C2290 C2289 1.397 . S
C2290 C2291 1.334 . S
C2291 H2268 0.950 . S
C2291 C2290 1.334 . S
C2291 C2292 1.287 . S
C2292 C2291 1.287 . S
C2292 C2293 1.524 . S
C2292 H2311 0.913 . S
C2293 H2269 0.950 . S
C2293 C2292 1.524 . S
C2293 C2294 1.415 . S
C2294 H2270 0.950 . S
C2294 C2289 1.363 . S
C2294 C2293 1.415 . S
C2295 H2271 0.951 . S
C2295 C2296 1.366 . S
C2295 C2297 1.388 . S
C2296 C2295 1.366 . S
C2296 C2300 1.385 . S
C2297 H2272 0.951 . S
C2297 C2295 1.388 . S
C2297 C2298 1.366 . S
C2298 C2297 1.366 . S
C2298 C2299 1.414 . S
C2298 C2301 1.499 . S
C2299 H2273 0.950 . S
C2299 C2298 1.414 . S
C2299 C2300 1.374 . S
C2300 H2274 0.950 . S
C2300 C2296 1.385 . S
C2300 C2299 1.374 . S
C2301 C2298 1.499 . S
C2301 C2302 1.373 . S
C2301 C2303 1.389 . S
C2302 H2275 0.950 . S
C2302 C2288 1.377 . S
C2302 C2301 1.373 . S
C2303 C2287 1.377 . S
C2303 C2301 1.389 . S
C2303 C2304 1.524 . S
C2304 C2303 1.524 . S
C2304 C2305 1.397 . S
C2304 C2309 1.363 . S
C2305 H2276 0.950 . S
C2305 C2304 1.397 . S
C2305 C2306 1.334 . S
C2306 H2277 0.950 . S
C2306 C2305 1.334 . S
C2306 C2307 1.287 . S
C2307 C2306 1.287 . S
C2307 C2308 1.524 . S
C2307 H2310 0.999 . S
C2308 H2278 0.950 . S
C2308 C2307 1.524 . S
C2308 C2309 1.415 . S
C2309 H2279 0.950 . S
C2309 C2304 1.363 . S
C2309 C2308 1.415 . S
H2310 C2307 0.999 . S
H2311 C2292 0.913 . S
H2312 C2330 0.951 . S
H2313 C2332 0.951 . S
H2314 C2334 0.950 . S
H2315 C2335 0.950 . S
H2316 C2337 0.950 . S
H2317 C2340 0.950 . S
H2318 C2341 0.950 . S
H2319 C2343 0.950 . S
H2320 C2344 0.950 . S
H2321 C2345 0.951 . S
H2322 C2347 0.951 . S
H2323 C2349 0.950 . S
H2324 C2350 0.950 . S
H2325 C2352 0.950 . S
H2326 C2355 0.950 . S
H2327 C2356 0.950 . S
H2328 C2358 0.950 . S
H2329 C2359 0.950 . S
C2330 H2312 0.951 . S
C2330 C2331 1.366 . S
C2330 C2332 1.388 . S
C2331 C2330 1.366 . S
C2331 C2335 1.385 . S
C2332 H2313 0.951 . S
C2332 C2330 1.388 . S
C2332 C2333 1.366 . S
C2333 C2332 1.366 . S
C2333 C2334 1.414 . S
C2333 C2336 1.499 . S
C2334 H2314 0.950 . S
C2334 C2333 1.414 . S
C2334 C2335 1.374 . S
C2335 H2315 0.950 . S
C2335 C2331 1.385 . S
C2335 C2334 1.374 . S
C2336 C2333 1.499 . S
C2336 C2337 1.373 . S
C2336 C2338 1.389 . S
C2337 H2316 0.950 . S
C2337 C2336 1.373 . S
C2337 C2353 1.377 . S
C2338 C2336 1.389 . S
C2338 C2339 1.524 . S
C2338 C2352 1.377 . S
C2339 C2338 1.524 . S
C2339 C2340 1.397 . S
C2339 C2344 1.363 . S
C2340 H2317 0.950 . S
C2340 C2339 1.397 . S
C2340 C2341 1.334 . S
C2341 H2318 0.950 . S
C2341 C2340 1.334 . S
C2341 C2342 1.287 . S
C2342 C2341 1.287 . S
C2342 C2343 1.524 . S
C2342 H2361 0.913 . S
C2343 H2319 0.950 . S
C2343 C2342 1.524 . S
C2343 C2344 1.415 . S
C2344 H2320 0.950 . S
C2344 C2339 1.363 . S
C2344 C2343 1.415 . S
C2345 H2321 0.951 . S
C2345 C2346 1.366 . S
C2345 C2347 1.388 . S
C2346 C2345 1.366 . S
C2346 C2350 1.385 . S
C2347 H2322 0.951 . S
C2347 C2345 1.388 . S
C2347 C2348 1.366 . S
C2348 C2347 1.366 . S
C2348 C2349 1.414 . S
C2348 C2351 1.499 . S
C2349 H2323 0.950 . S
C2349 C2348 1.414 . S
C2349 C2350 1.374 . S
C2350 H2324 0.950 . S
C2350 C2346 1.385 . S
C2350 C2349 1.374 . S
C2351 C2348 1.499 . S
C2351 C2352 1.373 . S
C2351 C2353 1.389 . S
C2352 H2325 0.950 . S
C2352 C2338 1.377 . S
C2352 C2351 1.373 . S
C2353 C2337 1.377 . S
C2353 C2351 1.389 . S
C2353 C2354 1.524 . S
C2354 C2353 1.524 . S
C2354 C2355 1.397 . S
C2354 C2359 1.363 . S
C2355 H2326 0.950 . S
C2355 C2354 1.397 . S
C2355 C2356 1.334 . S
C2356 H2327 0.950 . S
C2356 C2355 1.334 . S
C2356 C2357 1.287 . S
C2357 C2356 1.287 . S
C2357 C2358 1.524 . S
C2357 H2360 0.999 . S
C2358 H2328 0.950 . S
C2358 C2357 1.524 . S
C2358 C2359 1.415 . S
C2359 H2329 0.950 . S
C2359 C2354 1.363 . S
C2359 C2358 1.415 . S
H2360 C2357 0.999 . S
H2361 C2342 0.913 . S
H2362 C2380 0.951 . S
H2363 C2382 0.951 . S
H2364 C2384 0.950 . S
H2365 C2385 0.950 . S
H2366 C2387 0.950 . S
H2367 C2390 0.950 . S
H2368 C2391 0.950 . S
H2369 C2393 0.950 . S
H2370 C2394 0.950 . S
H2371 C2395 0.951 . S
H2372 C2397 0.951 . S
H2373 C2399 0.950 . S
H2374 C2400 0.950 . S
H2375 C2402 0.950 . S
H2376 C2405 0.950 . S
H2377 C2406 0.950 . S
H2378 C2408 0.950 . S
H2379 C2409 0.950 . S
C2380 H2362 0.951 . S
C2380 C2381 1.366 . S
C2380 C2382 1.388 . S
C2381 C2380 1.366 . S
C2381 C2385 1.385 . S
C2382 H2363 0.951 . S
C2382 C2380 1.388 . S
C2382 C2383 1.366 . S
C2383 C2382 1.366 . S
C2383 C2384 1.414 . S
C2383 C2386 1.499 . S
C2384 H2364 0.950 . S
C2384 C2383 1.414 . S
C2384 C2385 1.374 . S
C2385 H2365 0.950 . S
C2385 C2381 1.385 . S
C2385 C2384 1.374 . S
C2386 C2383 1.499 . S
C2386 C2387 1.373 . S
C2386 C2388 1.389 . S
C2387 H2366 0.950 . S
C2387 C2386 1.373 . S
C2387 C2403 1.377 . S
C2388 C2386 1.389 . S
C2388 C2389 1.524 . S
C2388 C2402 1.377 . S
C2389 C2388 1.524 . S
C2389 C2390 1.397 . S
C2389 C2394 1.363 . S
C2390 H2367 0.950 . S
C2390 C2389 1.397 . S
C2390 C2391 1.334 . S
C2391 H2368 0.950 . S
C2391 C2390 1.334 . S
C2391 C2392 1.287 . S
C2392 C2391 1.287 . S
C2392 C2393 1.524 . S
C2392 H2411 0.913 . S
C2393 H2369 0.950 . S
C2393 C2392 1.524 . S
C2393 C2394 1.415 . S
C2394 H2370 0.950 . S
C2394 C2389 1.363 . S
C2394 C2393 1.415 . S
C2395 H2371 0.951 . S
C2395 C2396 1.366 . S
C2395 C2397 1.388 . S
C2396 C2395 1.366 . S
C2396 C2400 1.385 . S
C2397 H2372 0.951 . S
C2397 C2395 1.388 . S
C2397 C2398 1.366 . S
C2398 C2397 1.366 . S
C2398 C2399 1.414 . S
C2398 C2401 1.499 . S
C2399 H2373 0.950 . S
C2399 C2398 1.414 . S
C2399 C2400 1.374 . S
C2400 H2374 0.950 . S
C2400 C2396 1.385 . S
C2400 C2399 1.374 . S
C2401 C2398 1.499 . S
C2401 C2402 1.373 . S
C2401 C2403 1.389 . S
C2402 H2375 0.950 . S
C2402 C2388 1.377 . S
C2402 C2401 1.373 . S
C2403 C2387 1.377 . S
C2403 C2401 1.389 . S
C2403 C2404 1.524 . S
C2404 C2403 1.524 . S
C2404 C2405 1.397 . S
C2404 C2409 1.363 . S
C2405 H2376 0.950 . S
C2405 C2404 1.397 . S
C2405 C2406 1.334 . S
C2406 H2377 0.950 . S
C2406 C2405 1.334 . S
C2406 C2407 1.287 . S
C2407 C2406 1.287 . S
C2407 C2408 1.524 . S
C2407 H2410 0.999 . S
C2408 H2378 0.950 . S
C2408 C2407 1.524 . S
C2408 C2409 1.415 . S
C2409 H2379 0.950 . S
C2409 C2404 1.363 . S
C2409 C2408 1.415 . S
H2410 C2407 0.999 . S
H2411 C2392 0.913 . S
H2412 C2430 0.951 . S
H2413 C2432 0.951 . S
H2414 C2434 0.950 . S
H2415 C2435 0.950 . S
H2416 C2437 0.950 . S
H2417 C2440 0.950 . S
H2418 C2441 0.950 . S
H2419 C2443 0.950 . S
H2420 C2444 0.950 . S
H2421 C2445 0.951 . S
H2422 C2447 0.951 . S
H2423 C2449 0.950 . S
H2424 C2450 0.950 . S
H2425 C2452 0.950 . S
H2426 C2455 0.950 . S
H2427 C2456 0.950 . S
H2428 C2458 0.950 . S
H2429 C2459 0.950 . S
C2430 H2412 0.951 . S
C2430 C2431 1.366 . S
C2430 C2432 1.388 . S
C2431 C2430 1.366 . S
C2431 C2435 1.385 . S
C2432 H2413 0.951 . S
C2432 C2430 1.388 . S
C2432 C2433 1.366 . S
C2433 C2432 1.366 . S
C2433 C2434 1.414 . S
C2433 C2436 1.499 1_565 S
C2434 H2414 0.950 . S
C2434 C2433 1.414 . S
C2434 C2435 1.374 . S
C2435 H2415 0.950 . S
C2435 C2431 1.385 . S
C2435 C2434 1.374 . S
C2436 C2433 1.499 1_545 S
C2436 C2437 1.373 . S
C2436 C2438 1.389 . S
C2437 H2416 0.950 . S
C2437 C2436 1.373 . S
C2437 C2453 1.377 . S
C2438 C2436 1.389 . S
C2438 C2439 1.524 . S
C2438 C2452 1.377 . S
C2439 C2438 1.524 . S
C2439 C2440 1.397 1_545 S
C2439 C2444 1.363 . S
C2440 H2417 0.950 . S
C2440 C2439 1.397 1_565 S
C2440 C2441 1.334 . S
C2441 H2418 0.950 . S
C2441 C2440 1.334 . S
C2441 C2442 1.287 . S
C2442 C2441 1.287 . S
C2442 C2443 1.524 1_565 S
C2442 H2461 0.913 . S
C2443 H2419 0.950 . S
C2443 C2442 1.524 1_545 S
C2443 C2444 1.415 . S
C2444 H2420 0.950 . S
C2444 C2439 1.363 . S
C2444 C2443 1.415 . S
C2445 H2421 0.951 . S
C2445 C2446 1.366 . S
C2445 C2447 1.388 . S
C2446 C2445 1.366 . S
C2446 C2450 1.385 . S
C2447 H2422 0.951 . S
C2447 C2445 1.388 . S
C2447 C2448 1.366 . S
C2448 C2447 1.366 . S
C2448 C2449 1.414 . S
C2448 C2451 1.499 . S
C2449 H2423 0.950 . S
C2449 C2448 1.414 . S
C2449 C2450 1.374 . S
C2450 H2424 0.950 . S
C2450 C2446 1.385 . S
C2450 C2449 1.374 . S
C2451 C2448 1.499 . S
C2451 C2452 1.373 . S
C2451 C2453 1.389 . S
C2452 H2425 0.950 . S
C2452 C2438 1.377 . S
C2452 C2451 1.373 . S
C2453 C2437 1.377 . S
C2453 C2451 1.389 . S
C2453 C2454 1.524 . S
C2454 C2453 1.524 . S
C2454 C2455 1.397 . S
C2454 C2459 1.363 . S
C2455 H2426 0.950 . S
C2455 C2454 1.397 . S
C2455 C2456 1.334 . S
C2456 H2427 0.950 . S
C2456 C2455 1.334 . S
C2456 C2457 1.287 . S
C2457 C2456 1.287 . S
C2457 C2458 1.524 . S
C2457 H2460 0.999 . S
C2458 H2428 0.950 . S
C2458 C2457 1.524 . S
C2458 C2459 1.415 . S
C2459 H2429 0.950 . S
C2459 C2454 1.363 . S
C2459 C2458 1.415 . S
H2460 C2457 0.999 . S
H2461 C2442 0.913 . S
H2462 C2480 0.951 . S
H2463 C2482 0.951 . S
H2464 C2484 0.950 . S
H2465 C2485 0.950 . S
H2466 C2487 0.950 . S
H2467 C2490 0.950 . S
H2468 C2491 0.950 . S
H2469 C2493 0.950 . S
H2470 C2494 0.950 . S
H2471 C2495 0.951 . S
H2472 C2497 0.951 . S
H2473 C2499 0.950 . S
H2474 C2500 0.950 . S
H2475 C2502 0.950 . S
H2476 C2505 0.950 . S
H2477 C2506 0.950 . S
H2478 C2508 0.950 . S
H2479 C2509 0.950 . S
C2480 H2462 0.951 . S
C2480 C2481 1.366 . S
C2480 C2482 1.388 . S
C2481 C2480 1.366 . S
C2481 C2485 1.385 . S
C2482 H2463 0.951 . S
C2482 C2480 1.388 . S
C2482 C2483 1.366 1_455 S
C2483 C2482 1.366 1_655 S
C2483 C2484 1.414 . S
C2483 C2486 1.499 . S
C2484 H2464 0.950 . S
C2484 C2483 1.414 . S
C2484 C2485 1.374 1_655 S
C2485 H2465 0.950 . S
C2485 C2481 1.385 . S
C2485 C2484 1.374 1_455 S
C2486 C2483 1.499 . S
C2486 C2487 1.373 . S
C2486 C2488 1.389 . S
C2487 H2466 0.950 . S
C2487 C2486 1.373 . S
C2487 C2503 1.377 . S
C2488 C2486 1.389 . S
C2488 C2489 1.524 . S
C2488 C2502 1.377 . S
C2489 C2488 1.524 . S
C2489 C2490 1.397 . S
C2489 C2494 1.363 . S
C2490 H2467 0.950 . S
C2490 C2489 1.397 . S
C2490 C2491 1.334 . S
C2491 H2468 0.950 . S
C2491 C2490 1.334 . S
C2491 C2492 1.287 . S
C2492 C2491 1.287 . S
C2492 C2493 1.524 . S
C2492 H2511 0.910 1_655 S
C2493 H2469 0.950 . S
C2493 C2492 1.524 . S
C2493 C2494 1.415 . S
C2494 H2470 0.950 . S
C2494 C2489 1.363 . S
C2494 C2493 1.415 . S
C2495 H2471 0.951 . S
C2495 C2496 1.366 . S
C2495 C2497 1.388 . S
C2496 C2495 1.366 . S
C2496 C2500 1.385 . S
C2497 H2472 0.951 . S
C2497 C2495 1.388 . S
C2497 C2498 1.366 . S
C2498 C2497 1.366 . S
C2498 C2499 1.414 . S
C2498 C2501 1.499 . S
C2499 H2473 0.950 . S
C2499 C2498 1.414 . S
C2499 C2500 1.374 . S
C2500 H2474 0.950 . S
C2500 C2496 1.385 . S
C2500 C2499 1.374 . S
C2501 C2498 1.499 . S
C2501 C2502 1.373 . S
C2501 C2503 1.389 . S
C2502 H2475 0.950 . S
C2502 C2488 1.377 . S
C2502 C2501 1.373 . S
C2503 C2487 1.377 . S
C2503 C2501 1.389 . S
C2503 C2504 1.524 . S
C2504 C2503 1.524 . S
C2504 C2505 1.397 . S
C2504 C2509 1.363 . S
C2505 H2476 0.950 . S
C2505 C2504 1.397 . S
C2505 C2506 1.334 . S
C2506 H2477 0.950 . S
C2506 C2505 1.334 . S
C2506 C2507 1.287 . S
C2507 C2506 1.287 . S
C2507 C2508 1.524 . S
C2507 H2510 0.999 . S
C2508 H2478 0.950 . S
C2508 C2507 1.524 . S
C2508 C2509 1.415 . S
C2509 H2479 0.950 . S
C2509 C2504 1.363 . S
C2509 C2508 1.415 . S
H2510 C2507 0.999 . S
H2511 C2492 0.910 1_455 S
H2512 C2530 0.951 . S
H2513 C2532 0.951 . S
H2514 C2534 0.950 . S
H2515 C2535 0.950 . S
H2516 C2537 0.950 . S
H2517 C2540 0.950 . S
H2518 C2541 0.950 . S
H2519 C2543 0.950 . S
H2520 C2544 0.950 . S
H2521 C2545 0.951 . S
H2522 C2547 0.951 . S
H2523 C2549 0.950 . S
H2524 C2550 0.950 . S
H2525 C2552 0.950 . S
H2526 C2555 0.950 . S
H2527 C2556 0.950 . S
H2528 C2558 0.950 . S
H2529 C2559 0.950 . S
C2530 H2512 0.951 . S
C2530 C2531 1.366 . S
C2530 C2532 1.388 . S
C2531 C2530 1.366 . S
C2531 C2535 1.385 . S
C2532 H2513 0.951 . S
C2532 C2530 1.388 . S
C2532 C2533 1.366 . S
C2533 C2532 1.366 . S
C2533 C2534 1.414 . S
C2533 C2536 1.499 . S
C2534 H2514 0.950 . S
C2534 C2533 1.414 . S
C2534 C2535 1.374 . S
C2535 H2515 0.950 . S
C2535 C2531 1.385 . S
C2535 C2534 1.374 . S
C2536 C2533 1.499 . S
C2536 C2537 1.373 . S
C2536 C2538 1.389 . S
C2537 H2516 0.950 . S
C2537 C2536 1.373 . S
C2537 C2553 1.377 . S
C2538 C2536 1.389 . S
C2538 C2539 1.524 . S
C2538 C2552 1.377 . S
C2539 C2538 1.524 . S
C2539 C2540 1.397 . S
C2539 C2544 1.363 . S
C2540 H2517 0.950 . S
C2540 C2539 1.397 . S
C2540 C2541 1.334 . S
C2541 H2518 0.950 . S
C2541 C2540 1.334 . S
C2541 C2542 1.287 . S
C2542 C2541 1.287 . S
C2542 C2543 1.524 . S
C2542 H2561 0.913 . S
C2543 H2519 0.950 . S
C2543 C2542 1.524 . S
C2543 C2544 1.415 . S
C2544 H2520 0.950 . S
C2544 C2539 1.363 . S
C2544 C2543 1.415 . S
C2545 H2521 0.951 . S
C2545 C2546 1.366 . S
C2545 C2547 1.388 . S
C2546 C2545 1.366 . S
C2546 C2550 1.385 . S
C2547 H2522 0.951 . S
C2547 C2545 1.388 . S
C2547 C2548 1.366 . S
C2548 C2547 1.366 . S
C2548 C2549 1.414 . S
C2548 C2551 1.499 . S
C2549 H2523 0.950 . S
C2549 C2548 1.414 . S
C2549 C2550 1.374 . S
C2550 H2524 0.950 . S
C2550 C2546 1.385 . S
C2550 C2549 1.374 . S
C2551 C2548 1.499 . S
C2551 C2552 1.373 . S
C2551 C2553 1.389 . S
C2552 H2525 0.950 . S
C2552 C2538 1.377 . S
C2552 C2551 1.373 . S
C2553 C2537 1.377 . S
C2553 C2551 1.389 . S
C2553 C2554 1.524 . S
C2554 C2553 1.524 . S
C2554 C2555 1.397 . S
C2554 C2559 1.363 . S
C2555 H2526 0.950 . S
C2555 C2554 1.397 . S
C2555 C2556 1.334 . S
C2556 H2527 0.950 . S
C2556 C2555 1.334 . S
C2556 C2557 1.287 . S
C2557 C2556 1.287 . S
C2557 C2558 1.524 . S
C2557 H2560 0.999 . S
C2558 H2528 0.950 . S
C2558 C2557 1.524 . S
C2558 C2559 1.415 . S
C2559 H2529 0.950 . S
C2559 C2554 1.363 . S
C2559 C2558 1.415 . S
H2560 C2557 0.999 . S
H2561 C2542 0.913 . S
H2562 C2580 0.951 . S
H2563 C2582 0.951 1_655 S
H2564 C2584 0.950 . S
H2565 C2585 0.950 . S
H2566 C2587 0.950 . S
H2567 C2590 0.944 1_455 S
H2568 C2591 0.950 1_455 S
H2569 C2593 0.950 . S
H2570 C2594 0.950 . S
H2571 C2595 0.951 . S
H2572 C2597 0.951 . S
H2573 C2599 0.950 . S
H2574 C2600 0.950 . S
H2575 C2602 0.950 . S
H2576 C2605 0.950 . S
H2577 C2606 0.950 . S
H2578 C2608 0.950 . S
H2579 C2609 0.950 . S
C2580 H2562 0.951 . S
C2580 C2581 1.366 . S
C2580 C2582 1.388 . S
C2581 C2580 1.366 . S
C2581 C2585 1.385 . S
C2582 H2563 0.951 1_455 S
C2582 C2580 1.388 . S
C2582 C2583 1.366 . S
C2583 C2582 1.366 . S
C2583 C2584 1.414 . S
C2583 C2586 1.499 1_455 S
C2584 H2564 0.950 . S
C2584 C2583 1.414 . S
C2584 C2585 1.374 . S
C2585 H2565 0.950 . S
C2585 C2581 1.385 . S
C2585 C2584 1.374 . S
C2586 C2583 1.499 1_655 S
C2586 C2587 1.373 . S
C2586 C2588 1.389 . S
C2587 H2566 0.950 . S
C2587 C2586 1.373 . S
C2587 C2603 1.377 . S
C2588 C2586 1.389 . S
C2588 C2589 1.524 . S
C2588 C2602 1.377 . S
C2589 C2588 1.524 . S
C2589 C2590 1.397 . S
C2589 C2594 1.363 . S
C2590 H2567 0.944 1_655 S
C2590 C2589 1.397 . S
C2590 C2591 1.334 . S
C2591 H2568 0.950 1_655 S
C2591 C2590 1.334 . S
C2591 C2592 1.287 . S
C2592 C2591 1.287 . S
C2592 C2593 1.524 . S
C2592 H2611 0.913 . S
C2593 H2569 0.950 . S
C2593 C2592 1.524 . S
C2593 C2594 1.415 . S
C2594 H2570 0.950 . S
C2594 C2589 1.363 . S
C2594 C2593 1.415 . S
C2595 H2571 0.951 . S
C2595 C2596 1.366 . S
C2595 C2597 1.388 . S
C2596 C2595 1.366 . S
C2596 C2600 1.385 . S
C2597 H2572 0.951 . S
C2597 C2595 1.388 . S
C2597 C2598 1.366 . S
C2598 C2597 1.366 . S
C2598 C2599 1.414 . S
C2598 C2601 1.499 . S
C2599 H2573 0.950 . S
C2599 C2598 1.414 . S
C2599 C2600 1.374 . S
C2600 H2574 0.950 . S
C2600 C2596 1.385 . S
C2600 C2599 1.374 . S
C2601 C2598 1.499 . S
C2601 C2602 1.373 . S
C2601 C2603 1.389 . S
C2602 H2575 0.950 . S
C2602 C2588 1.377 . S
C2602 C2601 1.373 . S
C2603 C2587 1.377 . S
C2603 C2601 1.389 . S
C2603 C2604 1.524 . S
C2604 C2603 1.524 . S
C2604 C2605 1.397 . S
C2604 C2609 1.363 . S
C2605 H2576 0.950 . S
C2605 C2604 1.397 . S
C2605 C2606 1.334 . S
C2606 H2577 0.950 . S
C2606 C2605 1.334 . S
C2606 C2607 1.287 . S
C2607 C2606 1.287 . S
C2607 C2608 1.524 . S
C2607 H2610 0.999 . S
C2608 H2578 0.950 . S
C2608 C2607 1.524 . S
C2608 C2609 1.415 . S
C2609 H2579 0.950 . S
C2609 C2604 1.363 . S
C2609 C2608 1.415 . S
H2610 C2607 0.999 . S
H2611 C2592 0.913 . S
H2612 C2630 0.951 . S
H2613 C2632 0.951 . S
H2614 C2634 0.950 . S
H2615 C2635 0.950 . S
H2616 C2637 0.950 . S
H2617 C2640 0.950 . S
H2618 C2641 0.950 . S
H2619 C2643 0.950 . S
H2620 C2644 0.950 . S
H2621 C2645 0.951 . S
H2622 C2647 0.951 . S
H2623 C2649 0.950 . S
H2624 C2650 0.950 . S
H2625 C2652 0.950 . S
H2626 C2655 0.950 . S
H2627 C2656 0.950 . S
H2628 C2658 0.950 . S
H2629 C2659 0.950 . S
C2630 H2612 0.951 . S
C2630 C2631 1.366 . S
C2630 C2632 1.388 . S
C2631 C2630 1.366 . S
C2631 C2635 1.385 . S
C2632 H2613 0.951 . S
C2632 C2630 1.388 . S
C2632 C2633 1.366 . S
C2633 C2632 1.366 . S
C2633 C2634 1.414 . S
C2633 C2636 1.499 . S
C2634 H2614 0.950 . S
C2634 C2633 1.414 . S
C2634 C2635 1.374 . S
C2635 H2615 0.950 . S
C2635 C2631 1.385 . S
C2635 C2634 1.374 . S
C2636 C2633 1.499 . S
C2636 C2637 1.373 . S
C2636 C2638 1.389 . S
C2637 H2616 0.950 . S
C2637 C2636 1.373 . S
C2637 C2653 1.377 . S
C2638 C2636 1.389 . S
C2638 C2639 1.524 . S
C2638 C2652 1.377 . S
C2639 C2638 1.524 . S
C2639 C2640 1.397 . S
C2639 C2644 1.363 . S
C2640 H2617 0.950 . S
C2640 C2639 1.397 . S
C2640 C2641 1.334 . S
C2641 H2618 0.950 . S
C2641 C2640 1.334 . S
C2641 C2642 1.287 . S
C2642 C2641 1.287 . S
C2642 C2643 1.524 . S
C2642 H2661 0.913 . S
C2643 H2619 0.950 . S
C2643 C2642 1.524 . S
C2643 C2644 1.415 . S
C2644 H2620 0.950 . S
C2644 C2639 1.363 . S
C2644 C2643 1.415 . S
C2645 H2621 0.951 . S
C2645 C2646 1.366 . S
C2645 C2647 1.388 . S
C2646 C2645 1.366 . S
C2646 C2650 1.385 . S
C2647 H2622 0.951 . S
C2647 C2645 1.388 . S
C2647 C2648 1.366 . S
C2648 C2647 1.366 . S
C2648 C2649 1.414 . S
C2648 C2651 1.499 . S
C2649 H2623 0.950 . S
C2649 C2648 1.414 . S
C2649 C2650 1.374 . S
C2650 H2624 0.950 . S
C2650 C2646 1.385 . S
C2650 C2649 1.374 . S
C2651 C2648 1.499 . S
C2651 C2652 1.373 . S
C2651 C2653 1.389 . S
C2652 H2625 0.950 . S
C2652 C2638 1.377 . S
C2652 C2651 1.373 . S
C2653 C2637 1.377 . S
C2653 C2651 1.389 . S
C2653 C2654 1.524 . S
C2654 C2653 1.524 . S
C2654 C2655 1.397 . S
C2654 C2659 1.363 . S
C2655 H2626 0.950 . S
C2655 C2654 1.397 . S
C2655 C2656 1.334 . S
C2656 H2627 0.950 . S
C2656 C2655 1.334 . S
C2656 C2657 1.287 . S
C2657 C2656 1.287 . S
C2657 C2658 1.524 . S
C2657 H2660 0.999 . S
C2658 H2628 0.950 . S
C2658 C2657 1.524 . S
C2658 C2659 1.415 . S
C2659 H2629 0.950 . S
C2659 C2654 1.363 . S
C2659 C2658 1.415 . S
H2660 C2657 0.999 . S
H2661 C2642 0.913 . S
H2662 C2680 0.951 . S
H2663 C2682 0.951 . S
H2664 C2684 0.950 . S
H2665 C2685 0.950 . S
H2666 C2687 0.950 . S
H2667 C2690 0.950 . S
H2668 C2691 0.950 . S
H2669 C2693 0.960 1_545 S
H2670 C2694 0.950 . S
H2671 C2695 0.951 . S
H2672 C2697 0.951 . S
H2673 C2699 0.950 . S
H2674 C2700 0.950 . S
H2675 C2702 0.950 . S
H2676 C2705 0.950 . S
H2677 C2706 0.950 . S
H2678 C2708 0.950 . S
H2679 C2709 0.950 . S
C2680 H2662 0.951 . S
C2680 C2681 1.366 . S
C2680 C2682 1.388 . S
C2681 C2680 1.366 . S
C2681 C2685 1.385 . S
C2682 H2663 0.951 . S
C2682 C2680 1.388 . S
C2682 C2683 1.366 . S
C2683 C2682 1.366 . S
C2683 C2684 1.414 . S
C2683 C2686 1.499 1_565 S
C2684 H2664 0.950 . S
C2684 C2683 1.414 . S
C2684 C2685 1.374 . S
C2685 H2665 0.950 . S
C2685 C2681 1.385 . S
C2685 C2684 1.374 . S
C2686 C2683 1.499 1_545 S
C2686 C2687 1.373 . S
C2686 C2688 1.389 . S
C2687 H2666 0.950 . S
C2687 C2686 1.373 . S
C2687 C2703 1.377 . S
C2688 C2686 1.389 . S
C2688 C2689 1.524 . S
C2688 C2702 1.377 . S
C2689 C2688 1.524 . S
C2689 C2690 1.397 1_545 S
C2689 C2694 1.363 . S
C2690 H2667 0.950 . S
C2690 C2689 1.397 1_565 S
C2690 C2691 1.334 . S
C2691 H2668 0.950 . S
C2691 C2690 1.334 . S
C2691 C2692 1.287 . S
C2692 C2691 1.287 . S
C2692 C2693 1.541 . S
C2692 H2711 0.913 . S
C2693 H2669 0.960 1_565 S
C2693 C2692 1.541 . S
C2693 C2694 1.388 1_565 S
C2694 H2670 0.950 . S
C2694 C2689 1.363 . S
C2694 C2693 1.388 1_545 S
C2695 H2671 0.951 . S
C2695 C2696 1.366 . S
C2695 C2697 1.388 . S
C2696 C2695 1.366 . S
C2696 C2700 1.385 . S
C2697 H2672 0.951 . S
C2697 C2695 1.388 . S
C2697 C2698 1.366 . S
C2698 C2697 1.366 . S
C2698 C2699 1.414 . S
C2698 C2701 1.499 . S
C2699 H2673 0.950 . S
C2699 C2698 1.414 . S
C2699 C2700 1.374 . S
C2700 H2674 0.950 . S
C2700 C2696 1.385 . S
C2700 C2699 1.374 . S
C2701 C2698 1.499 . S
C2701 C2702 1.373 . S
C2701 C2703 1.389 . S
C2702 H2675 0.950 . S
C2702 C2688 1.377 . S
C2702 C2701 1.373 . S
C2703 C2687 1.377 . S
C2703 C2701 1.389 . S
C2703 C2704 1.524 . S
C2704 C2703 1.524 . S
C2704 C2705 1.397 . S
C2704 C2709 1.363 . S
C2705 H2676 0.950 . S
C2705 C2704 1.397 . S
C2705 C2706 1.334 . S
C2706 H2677 0.950 . S
C2706 C2705 1.334 . S
C2706 C2707 1.287 . S
C2707 C2706 1.287 . S
C2707 C2708 1.524 . S
C2707 H2710 0.999 . S
C2708 H2678 0.950 . S
C2708 C2707 1.524 . S
C2708 C2709 1.415 . S
C2709 H2679 0.950 . S
C2709 C2704 1.363 . S
C2709 C2708 1.415 . S
H2710 C2707 0.999 . S
H2711 C2692 0.913 . S
H2712 C2730 0.951 . S
H2713 C2732 0.951 . S
H2714 C2734 0.950 . S
H2715 C2735 0.950 . S
H2716 C2737 0.950 . S
H2717 C2740 0.950 . S
H2718 C2741 0.950 . S
H2719 C2743 0.950 . S
H2720 C2744 0.950 . S
H2721 C2745 0.951 . S
H2722 C2747 0.951 . S
H2723 C2749 0.950 . S
H2724 C2750 0.950 . S
H2725 C2752 0.950 . S
H2726 C2755 0.950 . S
H2727 C2756 0.950 . S
H2728 C2758 0.950 . S
H2729 C2759 0.950 . S
C2730 H2712 0.951 . S
C2730 C2731 1.366 . S
C2730 C2732 1.388 . S
C2731 C2730 1.366 . S
C2731 C2735 1.385 . S
C2732 H2713 0.951 . S
C2732 C2730 1.388 . S
C2732 C2733 1.366 . S
C2733 C2732 1.366 . S
C2733 C2734 1.414 . S
C2733 C2736 1.499 . S
C2734 H2714 0.950 . S
C2734 C2733 1.414 . S
C2734 C2735 1.374 . S
C2735 H2715 0.950 . S
C2735 C2731 1.385 . S
C2735 C2734 1.374 . S
C2736 C2733 1.499 . S
C2736 C2737 1.373 . S
C2736 C2738 1.389 . S
C2737 H2716 0.950 . S
C2737 C2736 1.373 . S
C2737 C2753 1.377 . S
C2738 C2736 1.389 . S
C2738 C2739 1.524 . S
C2738 C2752 1.377 . S
C2739 C2738 1.524 . S
C2739 C2740 1.397 . S
C2739 C2744 1.363 . S
C2740 H2717 0.950 . S
C2740 C2739 1.397 . S
C2740 C2741 1.334 . S
C2741 H2718 0.950 . S
C2741 C2740 1.334 . S
C2741 C2742 1.287 . S
C2742 C2741 1.287 . S
C2742 C2743 1.524 . S
C2742 H2761 0.913 . S
C2743 H2719 0.950 . S
C2743 C2742 1.524 . S
C2743 C2744 1.415 . S
C2744 H2720 0.950 . S
C2744 C2739 1.363 . S
C2744 C2743 1.415 . S
C2745 H2721 0.951 . S
C2745 C2746 1.366 . S
C2745 C2747 1.388 . S
C2746 C2745 1.366 . S
C2746 C2750 1.385 . S
C2747 H2722 0.951 . S
C2747 C2745 1.388 . S
C2747 C2748 1.366 . S
C2748 C2747 1.366 . S
C2748 C2749 1.414 . S
C2748 C2751 1.499 . S
C2749 H2723 0.950 . S
C2749 C2748 1.414 . S
C2749 C2750 1.374 . S
C2750 H2724 0.950 . S
C2750 C2746 1.385 . S
C2750 C2749 1.374 . S
C2751 C2748 1.499 . S
C2751 C2752 1.373 . S
C2751 C2753 1.389 . S
C2752 H2725 0.950 . S
C2752 C2738 1.377 . S
C2752 C2751 1.373 . S
C2753 C2737 1.377 . S
C2753 C2751 1.389 . S
C2753 C2754 1.524 . S
C2754 C2753 1.524 . S
C2754 C2755 1.397 . S
C2754 C2759 1.363 . S
C2755 H2726 0.950 . S
C2755 C2754 1.397 . S
C2755 C2756 1.334 . S
C2756 H2727 0.950 . S
C2756 C2755 1.334 . S
C2756 C2757 1.287 . S
C2757 C2756 1.287 . S
C2757 C2758 1.524 . S
C2757 H2760 0.999 . S
C2758 H2728 0.950 . S
C2758 C2757 1.524 . S
C2758 C2759 1.415 . S
C2759 H2729 0.950 . S
C2759 C2754 1.363 . S
C2759 C2758 1.415 . S
H2760 C2757 0.999 . S
H2761 C2742 0.913 . S
H2762 C2780 0.951 . S
H2763 C2782 0.951 . S
H2764 C2784 0.950 . S
H2765 C2785 0.950 . S
H2766 C2787 0.950 . S
H2767 C2790 0.950 . S
H2768 C2791 0.950 . S
H2769 C2793 0.950 . S
H2770 C2794 0.950 . S
H2771 C2795 0.951 . S
H2772 C2797 0.951 . S
H2773 C2799 0.950 . S
H2774 C2800 0.950 . S
H2775 C2802 0.950 . S
H2776 C2805 0.950 . S
H2777 C2806 0.950 . S
H2778 C2808 0.950 . S
H2779 C2809 0.950 . S
C2780 H2762 0.951 . S
C2780 C2781 1.366 . S
C2780 C2782 1.388 . S
C2781 C2780 1.366 . S
C2781 C2785 1.385 . S
C2782 H2763 0.951 . S
C2782 C2780 1.388 . S
C2782 C2783 1.366 . S
C2783 C2782 1.366 . S
C2783 C2784 1.414 . S
C2783 C2786 1.499 . S
C2784 H2764 0.950 . S
C2784 C2783 1.414 . S
C2784 C2785 1.374 . S
C2785 H2765 0.950 . S
C2785 C2781 1.385 . S
C2785 C2784 1.374 . S
C2786 C2783 1.499 . S
C2786 C2787 1.373 . S
C2786 C2788 1.389 . S
C2787 H2766 0.950 . S
C2787 C2786 1.373 . S
C2787 C2803 1.377 . S
C2788 C2786 1.389 . S
C2788 C2789 1.524 . S
C2788 C2802 1.377 . S
C2789 C2788 1.524 . S
C2789 C2790 1.397 . S
C2789 C2794 1.363 . S
C2790 H2767 0.950 . S
C2790 C2789 1.397 . S
C2790 C2791 1.334 . S
C2791 H2768 0.950 . S
C2791 C2790 1.334 . S
C2791 C2792 1.287 . S
C2792 C2791 1.287 . S
C2792 C2793 1.524 . S
C2792 H2811 0.913 . S
C2793 H2769 0.950 . S
C2793 C2792 1.524 . S
C2793 C2794 1.415 . S
C2794 H2770 0.950 . S
C2794 C2789 1.363 . S
C2794 C2793 1.415 . S
C2795 H2771 0.951 . S
C2795 C2796 1.366 . S
C2795 C2797 1.388 . S
C2796 C2795 1.366 . S
C2796 C2800 1.385 . S
C2797 H2772 0.951 . S
C2797 C2795 1.388 . S
C2797 C2798 1.366 . S
C2798 C2797 1.366 . S
C2798 C2799 1.414 . S
C2798 C2801 1.499 . S
C2799 H2773 0.950 . S
C2799 C2798 1.414 . S
C2799 C2800 1.374 . S
C2800 H2774 0.950 . S
C2800 C2796 1.385 . S
C2800 C2799 1.374 . S
C2801 C2798 1.499 . S
C2801 C2802 1.373 . S
C2801 C2803 1.389 . S
C2802 H2775 0.950 . S
C2802 C2788 1.377 . S
C2802 C2801 1.373 . S
C2803 C2787 1.377 . S
C2803 C2801 1.389 . S
C2803 C2804 1.524 . S
C2804 C2803 1.524 . S
C2804 C2805 1.397 . S
C2804 C2809 1.363 . S
C2805 H2776 0.950 . S
C2805 C2804 1.397 . S
C2805 C2806 1.334 . S
C2806 H2777 0.950 . S
C2806 C2805 1.334 . S
C2806 C2807 1.287 . S
C2807 C2806 1.287 . S
C2807 C2808 1.524 . S
C2807 H2810 0.999 . S
C2808 H2778 0.950 . S
C2808 C2807 1.524 . S
C2808 C2809 1.415 . S
C2809 H2779 0.950 . S
C2809 C2804 1.363 . S
C2809 C2808 1.415 . S
H2810 C2807 0.999 . S
H2811 C2792 0.913 . S
H2812 C2830 0.951 . S
H2813 C2832 0.951 . S
H2814 C2834 0.950 . S
H2815 C2835 0.950 . S
H2816 C2837 0.950 . S
H2817 C2840 0.950 . S
H2818 C2841 0.950 . S
H2819 C2843 0.950 . S
H2820 C2844 0.950 . S
H2821 C2845 0.951 . S
H2822 C2847 0.951 . S
H2823 C2849 0.950 . S
H2824 C2850 0.950 . S
H2825 C2852 0.950 . S
H2826 C2855 0.950 . S
H2827 C2856 0.950 . S
H2828 C2858 0.950 . S
H2829 C2859 0.950 . S
C2830 H2812 0.951 . S
C2830 C2831 1.366 . S
C2830 C2832 1.388 . S
C2831 C2830 1.366 . S
C2831 C2835 1.385 . S
C2832 H2813 0.951 . S
C2832 C2830 1.388 . S
C2832 C2833 1.366 . S
C2833 C2832 1.366 . S
C2833 C2834 1.414 . S
C2833 C2836 1.499 . S
C2834 H2814 0.950 . S
C2834 C2833 1.414 . S
C2834 C2835 1.374 . S
C2835 H2815 0.950 . S
C2835 C2831 1.385 . S
C2835 C2834 1.374 . S
C2836 C2833 1.499 . S
C2836 C2837 1.373 . S
C2836 C2838 1.389 . S
C2837 H2816 0.950 . S
C2837 C2836 1.373 . S
C2837 C2853 1.377 . S
C2838 C2836 1.389 . S
C2838 C2839 1.524 . S
C2838 C2852 1.377 . S
C2839 C2838 1.524 . S
C2839 C2840 1.397 . S
C2839 C2844 1.363 . S
C2840 H2817 0.950 . S
C2840 C2839 1.397 . S
C2840 C2841 1.334 . S
C2841 H2818 0.950 . S
C2841 C2840 1.334 . S
C2841 C2842 1.287 . S
C2842 C2841 1.287 . S
C2842 C2843 1.524 . S
C2842 H2861 0.913 . S
C2843 H2819 0.950 . S
C2843 C2842 1.524 . S
C2843 C2844 1.415 . S
C2844 H2820 0.950 . S
C2844 C2839 1.363 . S
C2844 C2843 1.415 . S
C2845 H2821 0.951 . S
C2845 C2846 1.366 . S
C2845 C2847 1.388 . S
C2846 C2845 1.366 . S
C2846 C2850 1.385 . S
C2847 H2822 0.951 . S
C2847 C2845 1.388 . S
C2847 C2848 1.366 . S
C2848 C2847 1.366 . S
C2848 C2849 1.414 . S
C2848 C2851 1.499 . S
C2849 H2823 0.950 . S
C2849 C2848 1.414 . S
C2849 C2850 1.374 . S
C2850 H2824 0.950 . S
C2850 C2846 1.385 . S
C2850 C2849 1.374 . S
C2851 C2848 1.499 . S
C2851 C2852 1.373 . S
C2851 C2853 1.389 . S
C2852 H2825 0.950 . S
C2852 C2838 1.377 . S
C2852 C2851 1.373 . S
C2853 C2837 1.377 . S
C2853 C2851 1.389 . S
C2853 C2854 1.524 . S
C2854 C2853 1.524 . S
C2854 C2855 1.397 . S
C2854 C2859 1.363 . S
C2855 H2826 0.950 . S
C2855 C2854 1.397 . S
C2855 C2856 1.334 . S
C2856 H2827 0.950 . S
C2856 C2855 1.334 . S
C2856 C2857 1.287 . S
C2857 C2856 1.287 . S
C2857 C2858 1.524 . S
C2857 H2860 0.999 . S
C2858 H2828 0.950 . S
C2858 C2857 1.524 . S
C2858 C2859 1.415 . S
C2859 H2829 0.950 . S
C2859 C2854 1.363 . S
C2859 C2858 1.415 . S
H2860 C2857 0.999 . S
H2861 C2842 0.913 . S
H2862 C2880 0.951 . S
H2863 C2882 0.951 . S
H2864 C2884 0.950 . S
H2865 C2885 0.950 . S
H2866 C2887 0.936 1_545 S
H2867 C2890 0.950 . S
H2868 C2891 0.950 . S
H2869 C2893 0.950 . S
H2870 C2894 0.950 . S
H2871 C2895 0.951 1_545 S
H2872 C2897 0.951 1_545 S
H2873 C2899 0.950 . S
H2874 C2900 0.950 . S
H2875 C2902 0.950 . S
H2876 C2905 0.950 . S
H2877 C2906 0.950 . S
H2878 C2908 0.950 . S
H2879 C2909 0.950 . S
C2880 H2862 0.951 . S
C2880 C2881 1.366 . S
C2880 C2882 1.388 . S
C2881 C2880 1.366 . S
C2881 C2885 1.385 . S
C2882 H2863 0.951 . S
C2882 C2880 1.388 . S
C2882 C2883 1.366 . S
C2883 C2882 1.366 . S
C2883 C2884 1.414 . S
C2883 C2886 1.499 . S
C2884 H2864 0.950 . S
C2884 C2883 1.414 . S
C2884 C2885 1.374 . S
C2885 H2865 0.950 . S
C2885 C2881 1.385 . S
C2885 C2884 1.374 . S
C2886 C2883 1.499 . S
C2886 C2887 1.373 . S
C2886 C2888 1.389 . S
C2887 H2866 0.936 1_565 S
C2887 C2886 1.373 . S
C2887 C2903 1.377 . S
C2888 C2886 1.389 . S
C2888 C2889 1.524 . S
C2888 C2902 1.377 . S
C2889 C2888 1.524 . S
C2889 C2890 1.397 . S
C2889 C2894 1.363 . S
C2890 H2867 0.950 . S
C2890 C2889 1.397 . S
C2890 C2891 1.334 . S
C2891 H2868 0.950 . S
C2891 C2890 1.334 . S
C2891 C2892 1.287 . S
C2892 C2891 1.287 . S
C2892 C2893 1.524 . S
C2892 H2911 0.913 . S
C2893 H2869 0.950 . S
C2893 C2892 1.524 . S
C2893 C2894 1.415 . S
C2894 H2870 0.950 . S
C2894 C2889 1.363 . S
C2894 C2893 1.415 . S
C2895 H2871 0.951 1_565 S
C2895 C2896 1.366 . S
C2895 C2897 1.387 . S
C2896 C2895 1.366 . S
C2896 C2900 1.385 . S
C2897 H2872 0.951 1_565 S
C2897 C2895 1.387 . S
C2897 C2898 1.366 . S
C2898 C2897 1.366 . S
C2898 C2899 1.414 . S
C2898 C2901 1.499 . S
C2899 H2873 0.950 . S
C2899 C2898 1.414 . S
C2899 C2900 1.374 . S
C2900 H2874 0.950 . S
C2900 C2896 1.385 . S
C2900 C2899 1.374 . S
C2901 C2898 1.499 . S
C2901 C2902 1.373 . S
C2901 C2903 1.389 . S
C2902 H2875 0.950 . S
C2902 C2888 1.377 . S
C2902 C2901 1.373 . S
C2903 C2887 1.377 . S
C2903 C2901 1.389 . S
C2903 C2904 1.524 1_565 S
C2904 C2903 1.524 1_545 S
C2904 C2905 1.397 . S
C2904 C2909 1.363 . S
C2905 H2876 0.950 . S
C2905 C2904 1.397 . S
C2905 C2906 1.334 . S
C2906 H2877 0.950 . S
C2906 C2905 1.334 . S
C2906 C2907 1.287 . S
C2907 C2906 1.287 . S
C2907 C2908 1.524 . S
C2907 H2910 0.999 . S
C2908 H2878 0.950 . S
C2908 C2907 1.524 . S
C2908 C2909 1.415 . S
C2909 H2879 0.950 . S
C2909 C2904 1.363 . S
C2909 C2908 1.415 . S
H2910 C2907 0.999 . S
H2911 C2892 0.913 . S
H2912 C2930 0.951 . S
H2913 C2932 0.951 . S
H2914 C2934 0.950 . S
H2915 C2935 0.950 . S
H2916 C2937 0.950 . S
H2917 C2940 0.950 . S
H2918 C2941 0.950 . S
H2919 C2943 0.950 . S
H2920 C2944 0.950 . S
H2921 C2945 0.951 . S
H2922 C2947 0.951 . S
H2923 C2949 0.950 . S
H2924 C2950 0.950 . S
H2925 C2952 0.950 . S
H2926 C2955 0.950 . S
H2927 C2956 0.950 . S
H2928 C2958 0.950 . S
H2929 C2959 0.950 . S
C2930 H2912 0.951 . S
C2930 C2931 1.366 . S
C2930 C2932 1.388 . S
C2931 C2930 1.366 . S
C2931 C2935 1.385 . S
C2932 H2913 0.951 . S
C2932 C2930 1.388 . S
C2932 C2933 1.366 . S
C2933 C2932 1.366 . S
C2933 C2934 1.414 . S
C2933 C2936 1.499 . S
C2934 H2914 0.950 . S
C2934 C2933 1.414 . S
C2934 C2935 1.374 . S
C2935 H2915 0.950 . S
C2935 C2931 1.385 . S
C2935 C2934 1.374 . S
C2936 C2933 1.499 . S
C2936 C2937 1.373 1_455 S
C2936 C2938 1.389 . S
C2937 H2916 0.950 . S
C2937 C2936 1.373 1_655 S
C2937 C2953 1.377 . S
C2938 C2936 1.389 . S
C2938 C2939 1.524 . S
C2938 C2952 1.377 . S
C2939 C2938 1.524 . S
C2939 C2940 1.397 . S
C2939 C2944 1.363 . S
C2940 H2917 0.950 . S
C2940 C2939 1.397 . S
C2940 C2941 1.334 . S
C2941 H2918 0.950 . S
C2941 C2940 1.334 . S
C2941 C2942 1.287 . S
C2942 C2941 1.287 . S
C2942 C2943 1.524 . S
C2942 H2961 0.913 . S
C2943 H2919 0.950 . S
C2943 C2942 1.524 . S
C2943 C2944 1.415 . S
C2944 H2920 0.950 . S
C2944 C2939 1.363 . S
C2944 C2943 1.415 . S
C2945 H2921 0.951 . S
C2945 C2946 1.366 . S
C2945 C2947 1.388 . S
C2946 C2945 1.366 . S
C2946 C2950 1.385 . S
C2947 H2922 0.951 . S
C2947 C2945 1.388 . S
C2947 C2948 1.366 . S
C2948 C2947 1.366 . S
C2948 C2949 1.414 . S
C2948 C2951 1.499 . S
C2949 H2923 0.950 . S
C2949 C2948 1.414 . S
C2949 C2950 1.374 . S
C2950 H2924 0.950 . S
C2950 C2946 1.385 . S
C2950 C2949 1.374 . S
C2951 C2948 1.499 . S
C2951 C2952 1.373 . S
C2951 C2953 1.389 1_455 S
C2952 H2925 0.950 . S
C2952 C2938 1.377 . S
C2952 C2951 1.373 . S
C2953 C2937 1.377 . S
C2953 C2951 1.389 1_655 S
C2953 C2954 1.524 . S
C2954 C2953 1.524 . S
C2954 C2955 1.397 . S
C2954 C2959 1.363 . S
C2955 H2926 0.950 . S
C2955 C2954 1.397 . S
C2955 C2956 1.334 . S
C2956 H2927 0.950 . S
C2956 C2955 1.334 . S
C2956 C2957 1.287 . S
C2957 C2956 1.287 . S
C2957 C2958 1.524 . S
C2957 H2960 0.999 . S
C2958 H2928 0.950 . S
C2958 C2957 1.524 . S
C2958 C2959 1.415 . S
C2959 H2929 0.950 . S
C2959 C2954 1.363 . S
C2959 C2958 1.415 . S
H2960 C2957 0.999 . S
H2961 C2942 0.913 . S
H2962 C2980 0.951 . S
H2963 C2982 0.951 . S
H2964 C2984 0.950 . S
H2965 C2985 0.950 . S
H2966 C2987 0.950 . S
H2967 C2990 0.950 . S
H2968 C2991 0.950 . S
H2969 C2993 0.950 . S
H2970 C2994 0.950 . S
H2971 C2995 0.951 . S
H2972 C2997 0.951 . S
H2973 C2999 0.950 . S
H2974 C3000 0.950 . S
H2975 C3002 0.950 . S
H2976 C3005 0.950 . S
H2977 C3006 0.950 . S
H2978 C3008 0.950 . S
H2979 C3009 0.950 . S
C2980 H2962 0.951 . S
C2980 C2981 1.366 . S
C2980 C2982 1.388 . S
C2981 C2980 1.366 . S
C2981 C2985 1.385 . S
C2982 H2963 0.951 . S
C2982 C2980 1.388 . S
C2982 C2983 1.366 . S
C2983 C2982 1.366 . S
C2983 C2984 1.414 . S
C2983 C2986 1.499 . S
C2984 H2964 0.950 . S
C2984 C2983 1.414 . S
C2984 C2985 1.374 . S
C2985 H2965 0.950 . S
C2985 C2981 1.385 . S
C2985 C2984 1.374 . S
C2986 C2983 1.499 . S
C2986 C2987 1.373 . S
C2986 C2988 1.389 . S
C2987 H2966 0.950 . S
C2987 C2986 1.373 . S
C2987 C3003 1.377 . S
C2988 C2986 1.389 . S
C2988 C2989 1.524 . S
C2988 C3002 1.377 . S
C2989 C2988 1.524 . S
C2989 C2990 1.397 . S
C2989 C2994 1.363 . S
C2990 H2967 0.950 . S
C2990 C2989 1.397 . S
C2990 C2991 1.334 . S
C2991 H2968 0.950 . S
C2991 C2990 1.334 . S
C2991 C2992 1.287 . S
C2992 C2991 1.287 . S
C2992 C2993 1.524 . S
C2992 H3011 0.913 . S
C2993 H2969 0.950 . S
C2993 C2992 1.524 . S
C2993 C2994 1.415 . S
C2994 H2970 0.950 . S
C2994 C2989 1.363 . S
C2994 C2993 1.415 . S
C2995 H2971 0.951 . S
C2995 C2996 1.366 . S
C2995 C2997 1.388 . S
C2996 C2995 1.366 . S
C2996 C3000 1.385 . S
C2997 H2972 0.951 . S
C2997 C2995 1.388 . S
C2997 C2998 1.366 . S
C2998 C2997 1.366 . S
C2998 C2999 1.414 . S
C2998 C3001 1.499 . S
C2999 H2973 0.950 . S
C2999 C2998 1.414 . S
C2999 C3000 1.374 . S
C3000 H2974 0.950 . S
C3000 C2996 1.385 . S
C3000 C2999 1.374 . S
C3001 C2998 1.499 . S
C3001 C3002 1.373 . S
C3001 C3003 1.389 . S
C3002 H2975 0.950 . S
C3002 C2988 1.377 . S
C3002 C3001 1.373 . S
C3003 C2987 1.377 . S
C3003 C3001 1.389 . S
C3003 C3004 1.524 . S
C3004 C3003 1.524 . S
C3004 C3005 1.397 . S
C3004 C3009 1.363 . S
C3005 H2976 0.950 . S
C3005 C3004 1.397 . S
C3005 C3006 1.334 . S
C3006 H2977 0.950 . S
C3006 C3005 1.334 . S
C3006 C3007 1.287 . S
C3007 C3006 1.287 . S
C3007 C3008 1.524 . S
C3007 H3010 0.999 . S
C3008 H2978 0.950 . S
C3008 C3007 1.524 . S
C3008 C3009 1.415 . S
C3009 H2979 0.950 . S
C3009 C3004 1.363 . S
C3009 C3008 1.415 . S
H3010 C3007 0.999 . S
H3011 C2992 0.913 . S
H3012 C3030 0.951 . S
H3013 C3032 0.951 . S
H3014 C3034 0.950 . S
H3015 C3035 0.950 . S
H3016 C3037 0.950 . S
H3017 C3040 0.950 . S
H3018 C3041 0.950 . S
H3019 C3043 0.950 . S
H3020 C3044 0.950 . S
H3021 C3045 0.951 . S
H3022 C3047 0.951 . S
H3023 C3049 0.950 . S
H3024 C3050 0.950 . S
H3025 C3052 0.950 . S
H3026 C3055 0.950 . S
H3027 C3056 0.950 . S
H3028 C3058 0.950 . S
H3029 C3059 0.950 . S
C3030 H3012 0.951 . S
C3030 C3031 1.366 . S
C3030 C3032 1.388 . S
C3031 C3030 1.366 . S
C3031 C3035 1.385 1_655 S
C3032 H3013 0.951 . S
C3032 C3030 1.388 . S
C3032 C3033 1.366 . S
C3033 C3032 1.366 . S
C3033 C3034 1.414 1_655 S
C3033 C3036 1.499 . S
C3034 H3014 0.950 . S
C3034 C3033 1.414 1_455 S
C3034 C3035 1.374 . S
C3035 H3015 0.950 . S
C3035 C3031 1.385 1_455 S
C3035 C3034 1.374 . S
C3036 C3033 1.499 . S
C3036 C3037 1.373 1_655 S
C3036 C3038 1.389 . S
C3037 H3016 0.950 . S
C3037 C3036 1.373 1_455 S
C3037 C3053 1.377 . S
C3038 C3036 1.389 . S
C3038 C3039 1.524 . S
C3038 C3052 1.377 . S
C3039 C3038 1.524 . S
C3039 C3040 1.397 . S
C3039 C3044 1.363 . S
C3040 H3017 0.950 . S
C3040 C3039 1.397 . S
C3040 C3041 1.334 . S
C3041 H3018 0.950 . S
C3041 C3040 1.334 . S
C3041 C3042 1.287 . S
C3042 C3041 1.287 . S
C3042 C3043 1.524 . S
C3042 H3061 0.913 . S
C3043 H3019 0.950 . S
C3043 C3042 1.524 . S
C3043 C3044 1.415 . S
C3044 H3020 0.950 . S
C3044 C3039 1.363 . S
C3044 C3043 1.415 . S
C3045 H3021 0.951 . S
C3045 C3046 1.366 1_455 S
C3045 C3047 1.388 . S
C3046 C3045 1.366 1_655 S
C3046 C3050 1.385 . S
C3047 H3022 0.951 . S
C3047 C3045 1.388 . S
C3047 C3048 1.366 1_455 S
C3048 C3047 1.366 1_655 S
C3048 C3049 1.414 . S
C3048 C3051 1.499 . S
C3049 H3023 0.950 . S
C3049 C3048 1.414 . S
C3049 C3050 1.374 . S
C3050 H3024 0.950 . S
C3050 C3046 1.385 . S
C3050 C3049 1.374 . S
C3051 C3048 1.499 . S
C3051 C3052 1.373 . S
C3051 C3053 1.389 1_655 S
C3052 H3025 0.950 . S
C3052 C3038 1.377 . S
C3052 C3051 1.373 . S
C3053 C3037 1.377 . S
C3053 C3051 1.389 1_455 S
C3053 C3054 1.524 . S
C3054 C3053 1.524 . S
C3054 C3055 1.397 . S
C3054 C3059 1.363 . S
C3055 H3026 0.950 . S
C3055 C3054 1.397 . S
C3055 C3056 1.334 . S
C3056 H3027 0.950 . S
C3056 C3055 1.334 . S
C3056 C3057 1.287 . S
C3057 C3056 1.287 . S
C3057 C3058 1.524 . S
C3057 H3060 0.999 . S
C3058 H3028 0.950 . S
C3058 C3057 1.524 . S
C3058 C3059 1.415 . S
C3059 H3029 0.950 . S
C3059 C3054 1.363 . S
C3059 C3058 1.415 . S
H3060 C3057 0.999 . S
H3061 C3042 0.913 . S
H3062 C3080 0.951 . S
H3063 C3082 0.951 . S
H3064 C3084 0.950 . S
H3065 C3085 0.950 . S
H3066 C3087 0.950 . S
H3067 C3090 0.950 . S
H3068 C3091 0.950 . S
H3069 C3093 0.950 . S
H3070 C3094 0.950 . S
H3071 C3095 0.951 . S
H3072 C3097 0.951 . S
H3073 C3099 0.950 . S
H3074 C3100 0.950 . S
H3075 C3102 0.950 . S
H3076 C3105 0.950 . S
H3077 C3106 0.950 . S
H3078 C3108 0.950 . S
H3079 C3109 0.950 . S
C3080 H3062 0.951 . S
C3080 C3081 1.366 . S
C3080 C3082 1.388 . S
C3081 C3080 1.366 . S
C3081 C3085 1.385 . S
C3082 H3063 0.951 . S
C3082 C3080 1.388 . S
C3082 C3083 1.366 . S
C3083 C3082 1.366 . S
C3083 C3084 1.414 . S
C3083 C3086 1.499 . S
C3084 H3064 0.950 . S
C3084 C3083 1.414 . S
C3084 C3085 1.374 . S
C3085 H3065 0.950 . S
C3085 C3081 1.385 . S
C3085 C3084 1.374 . S
C3086 C3083 1.499 . S
C3086 C3087 1.373 . S
C3086 C3088 1.389 . S
C3087 H3066 0.950 . S
C3087 C3086 1.373 . S
C3087 C3103 1.377 . S
C3088 C3086 1.389 . S
C3088 C3089 1.524 . S
C3088 C3102 1.377 . S
C3089 C3088 1.524 . S
C3089 C3090 1.397 . S
C3089 C3094 1.363 . S
C3090 H3067 0.950 . S
C3090 C3089 1.397 . S
C3090 C3091 1.334 . S
C3091 H3068 0.950 . S
C3091 C3090 1.334 . S
C3091 C3092 1.287 . S
C3092 C3091 1.287 . S
C3092 C3093 1.524 . S
C3092 H3111 0.913 . S
C3093 H3069 0.950 . S
C3093 C3092 1.524 . S
C3093 C3094 1.415 . S
C3094 H3070 0.950 . S
C3094 C3089 1.363 . S
C3094 C3093 1.415 . S
C3095 H3071 0.951 . S
C3095 C3096 1.366 . S
C3095 C3097 1.388 . S
C3096 C3095 1.366 . S
C3096 C3100 1.385 . S
C3097 H3072 0.951 . S
C3097 C3095 1.388 . S
C3097 C3098 1.366 . S
C3098 C3097 1.366 . S
C3098 C3099 1.414 . S
C3098 C3101 1.499 . S
C3099 H3073 0.950 . S
C3099 C3098 1.414 . S
C3099 C3100 1.374 . S
C3100 H3074 0.950 . S
C3100 C3096 1.385 . S
C3100 C3099 1.374 . S
C3101 C3098 1.499 . S
C3101 C3102 1.373 . S
C3101 C3103 1.389 . S
C3102 H3075 0.950 . S
C3102 C3088 1.377 . S
C3102 C3101 1.373 . S
C3103 C3087 1.377 . S
C3103 C3101 1.389 . S
C3103 C3104 1.524 . S
C3104 C3103 1.524 . S
C3104 C3105 1.397 . S
C3104 C3109 1.363 . S
C3105 H3076 0.950 . S
C3105 C3104 1.397 . S
C3105 C3106 1.334 . S
C3106 H3077 0.950 . S
C3106 C3105 1.334 . S
C3106 C3107 1.287 . S
C3107 C3106 1.287 . S
C3107 C3108 1.524 . S
C3107 H3110 0.999 . S
C3108 H3078 0.950 . S
C3108 C3107 1.524 . S
C3108 C3109 1.415 . S
C3109 H3079 0.950 . S
C3109 C3104 1.363 . S
C3109 C3108 1.415 . S
H3110 C3107 0.999 . S
H3111 C3092 0.913 . S
H3112 C3130 0.951 . S
H3113 C3132 0.951 . S
H3114 C3134 0.950 . S
H3115 C3135 0.950 . S
H3116 C3137 0.950 . S
H3117 C3140 0.950 . S
H3118 C3141 0.950 . S
H3119 C3143 0.950 . S
H3120 C3144 0.950 . S
H3121 C3145 0.951 . S
H3122 C3147 0.951 . S
H3123 C3149 0.958 1_565 S
H3124 C3150 0.948 1_565 S
H3125 C3152 0.950 . S
H3126 C3155 0.950 . S
H3127 C3156 0.950 . S
H3128 C3158 0.950 . S
H3129 C3159 0.950 . S
C3130 H3112 0.951 . S
C3130 C3131 1.366 . S
C3130 C3132 1.388 . S
C3131 C3130 1.366 . S
C3131 C3135 1.385 . S
C3132 H3113 0.951 . S
C3132 C3130 1.388 . S
C3132 C3133 1.366 . S
C3133 C3132 1.366 . S
C3133 C3134 1.414 . S
C3133 C3136 1.499 . S
C3134 H3114 0.950 . S
C3134 C3133 1.414 . S
C3134 C3135 1.374 . S
C3135 H3115 0.950 . S
C3135 C3131 1.385 . S
C3135 C3134 1.374 . S
C3136 C3133 1.499 . S
C3136 C3137 1.373 . S
C3136 C3138 1.389 . S
C3137 H3116 0.950 . S
C3137 C3136 1.373 . S
C3137 C3153 1.377 . S
C3138 C3136 1.389 . S
C3138 C3139 1.524 . S
C3138 C3152 1.377 . S
C3139 C3138 1.524 . S
C3139 C3140 1.397 . S
C3139 C3144 1.363 . S
C3140 H3117 0.950 . S
C3140 C3139 1.397 . S
C3140 C3141 1.334 . S
C3141 H3118 0.950 . S
C3141 C3140 1.334 . S
C3141 C3142 1.287 . S
C3142 C3141 1.287 . S
C3142 C3143 1.524 . S
C3142 H3161 0.913 . S
C3143 H3119 0.950 . S
C3143 C3142 1.524 . S
C3143 C3144 1.415 . S
C3144 H3120 0.950 . S
C3144 C3139 1.363 . S
C3144 C3143 1.415 . S
C3145 H3121 0.951 . S
C3145 C3146 1.366 . S
C3145 C3147 1.388 . S
C3146 C3145 1.366 . S
C3146 C3150 1.383 . S
C3147 H3122 0.951 . S
C3147 C3145 1.388 . S
C3147 C3148 1.366 . S
C3148 C3147 1.366 . S
C3148 C3149 1.414 . S
C3148 C3151 1.499 . S
C3149 H3123 0.958 1_545 S
C3149 C3148 1.414 . S
C3149 C3150 1.377 . S
C3150 H3124 0.948 1_545 S
C3150 C3146 1.383 . S
C3150 C3149 1.377 . S
C3151 C3148 1.499 . S
C3151 C3152 1.373 . S
C3151 C3153 1.389 . S
C3152 H3125 0.950 . S
C3152 C3138 1.377 . S
C3152 C3151 1.373 . S
C3153 C3137 1.377 . S
C3153 C3151 1.389 . S
C3153 C3154 1.524 . S
C3154 C3153 1.524 . S
C3154 C3155 1.397 1_545 S
C3154 C3159 1.363 . S
C3155 H3126 0.950 . S
C3155 C3154 1.397 1_565 S
C3155 C3156 1.334 . S
C3156 H3127 0.950 . S
C3156 C3155 1.334 . S
C3156 C3157 1.287 . S
C3157 C3156 1.287 . S
C3157 C3158 1.524 1_565 S
C3157 H3160 0.999 . S
C3158 H3128 0.950 . S
C3158 C3157 1.524 1_545 S
C3158 C3159 1.415 . S
C3159 H3129 0.950 . S
C3159 C3154 1.363 . S
C3159 C3158 1.415 . S
H3160 C3157 0.999 . S
H3161 C3142 0.913 . S
H3162 C3180 0.951 . S
H3163 C3182 0.951 . S
H3164 C3184 0.950 . S
H3165 C3185 0.950 . S
H3166 C3187 0.950 . S
H3167 C3190 0.950 . S
H3168 C3191 0.950 . S
H3169 C3193 0.950 . S
H3170 C3194 0.950 . S
H3171 C3195 0.951 . S
H3172 C3197 0.951 . S
H3173 C3199 0.950 . S
H3174 C3200 0.950 . S
H3175 C3202 0.950 . S
H3176 C3205 0.950 . S
H3177 C3206 0.950 . S
H3178 C3208 0.950 . S
H3179 C3209 0.950 . S
C3180 H3162 0.951 . S
C3180 C3181 1.366 . S
C3180 C3182 1.388 . S
C3181 C3180 1.366 . S
C3181 C3185 1.385 . S
C3182 H3163 0.951 . S
C3182 C3180 1.388 . S
C3182 C3183 1.366 . S
C3183 C3182 1.366 . S
C3183 C3184 1.414 . S
C3183 C3186 1.499 . S
C3184 H3164 0.950 . S
C3184 C3183 1.414 . S
C3184 C3185 1.374 . S
C3185 H3165 0.950 . S
C3185 C3181 1.385 . S
C3185 C3184 1.374 . S
C3186 C3183 1.499 . S
C3186 C3187 1.373 . S
C3186 C3188 1.389 . S
C3187 H3166 0.950 . S
C3187 C3186 1.373 . S
C3187 C3203 1.377 . S
C3188 C3186 1.389 . S
C3188 C3189 1.524 . S
C3188 C3202 1.377 . S
C3189 C3188 1.524 . S
C3189 C3190 1.397 . S
C3189 C3194 1.363 . S
C3190 H3167 0.950 . S
C3190 C3189 1.397 . S
C3190 C3191 1.334 . S
C3191 H3168 0.950 . S
C3191 C3190 1.334 . S
C3191 C3192 1.287 . S
C3192 C3191 1.287 . S
C3192 C3193 1.524 . S
C3192 H3211 0.913 . S
C3193 H3169 0.950 . S
C3193 C3192 1.524 . S
C3193 C3194 1.415 . S
C3194 H3170 0.950 . S
C3194 C3189 1.363 . S
C3194 C3193 1.415 . S
C3195 H3171 0.951 . S
C3195 C3196 1.366 . S
C3195 C3197 1.388 . S
C3196 C3195 1.366 . S
C3196 C3200 1.385 . S
C3197 H3172 0.951 . S
C3197 C3195 1.388 . S
C3197 C3198 1.366 . S
C3198 C3197 1.366 . S
C3198 C3199 1.414 . S
C3198 C3201 1.499 . S
C3199 H3173 0.950 . S
C3199 C3198 1.414 . S
C3199 C3200 1.374 . S
C3200 H3174 0.950 . S
C3200 C3196 1.385 . S
C3200 C3199 1.374 . S
C3201 C3198 1.499 . S
C3201 C3202 1.373 . S
C3201 C3203 1.389 . S
C3202 H3175 0.950 . S
C3202 C3188 1.377 . S
C3202 C3201 1.373 . S
C3203 C3187 1.377 . S
C3203 C3201 1.389 . S
C3203 C3204 1.524 . S
C3204 C3203 1.524 . S
C3204 C3205 1.397 . S
C3204 C3209 1.363 . S
C3205 H3176 0.950 . S
C3205 C3204 1.397 . S
C3205 C3206 1.334 . S
C3206 H3177 0.950 . S
C3206 C3205 1.334 . S
C3206 C3207 1.287 . S
C3207 C3206 1.287 . S
C3207 C3208 1.524 . S
C3207 H3210 0.999 . S
C3208 H3178 0.950 . S
C3208 C3207 1.524 . S
C3208 C3209 1.415 . S
C3209 H3179 0.950 . S
C3209 C3204 1.363 . S
C3209 C3208 1.415 . S
H3210 C3207 0.999 . S
H3211 C3192 0.913 . S
H3212 C3230 0.951 . S
H3213 C3232 0.951 . S
H3214 C3234 0.950 . S
H3215 C3235 0.950 . S
H3216 C3237 0.950 . S
H3217 C3240 0.950 . S
H3218 C3241 0.950 . S
H3219 C3243 0.950 . S
H3220 C3244 0.950 . S
H3221 C3245 0.951 . S
H3222 C3247 0.951 . S
H3223 C3249 0.950 . S
H3224 C3250 0.950 . S
H3225 C3252 0.950 . S
H3226 C3255 0.950 . S
H3227 C3256 0.950 . S
H3228 C3258 0.950 . S
H3229 C3259 0.950 . S
C3230 H3212 0.951 . S
C3230 C3231 1.366 . S
C3230 C3232 1.388 . S
C3231 C3230 1.366 . S
C3231 C3235 1.385 . S
C3232 H3213 0.951 . S
C3232 C3230 1.388 . S
C3232 C3233 1.366 . S
C3233 C3232 1.366 . S
C3233 C3234 1.414 . S
C3233 C3236 1.499 . S
C3234 H3214 0.950 . S
C3234 C3233 1.414 . S
C3234 C3235 1.374 . S
C3235 H3215 0.950 . S
C3235 C3231 1.385 . S
C3235 C3234 1.374 . S
C3236 C3233 1.499 . S
C3236 C3237 1.373 . S
C3236 C3238 1.389 . S
C3237 H3216 0.950 . S
C3237 C3236 1.373 . S
C3237 C3253 1.377 . S
C3238 C3236 1.389 . S
C3238 C3239 1.524 . S
C3238 C3252 1.377 . S
C3239 C3238 1.524 . S
C3239 C3240 1.397 . S
C3239 C3244 1.363 . S
C3240 H3217 0.950 . S
C3240 C3239 1.397 . S
C3240 C3241 1.334 . S
C3241 H3218 0.950 . S
C3241 C3240 1.334 . S
C3241 C3242 1.287 . S
C3242 C3241 1.287 . S
C3242 C3243 1.524 . S
C3242 H3261 0.913 . S
C3243 H3219 0.950 . S
C3243 C3242 1.524 . S
C3243 C3244 1.415 . S
C3244 H3220 0.950 . S
C3244 C3239 1.363 . S
C3244 C3243 1.415 . S
C3245 H3221 0.951 . S
C3245 C3246 1.366 . S
C3245 C3247 1.388 . S
C3246 C3245 1.366 . S
C3246 C3250 1.385 . S
C3247 H3222 0.951 . S
C3247 C3245 1.388 . S
C3247 C3248 1.366 . S
C3248 C3247 1.366 . S
C3248 C3249 1.414 . S
C3248 C3251 1.499 . S
C3249 H3223 0.950 . S
C3249 C3248 1.414 . S
C3249 C3250 1.374 . S
C3250 H3224 0.950 . S
C3250 C3246 1.385 . S
C3250 C3249 1.374 . S
C3251 C3248 1.499 . S
C3251 C3252 1.373 . S
C3251 C3253 1.389 . S
C3252 H3225 0.950 . S
C3252 C3238 1.377 . S
C3252 C3251 1.373 . S
C3253 C3237 1.377 . S
C3253 C3251 1.389 . S
C3253 C3254 1.524 . S
C3254 C3253 1.524 . S
C3254 C3255 1.397 . S
C3254 C3259 1.363 . S
C3255 H3226 0.950 . S
C3255 C3254 1.397 . S
C3255 C3256 1.334 . S
C3256 H3227 0.950 . S
C3256 C3255 1.334 . S
C3256 C3257 1.287 . S
C3257 C3256 1.287 . S
C3257 C3258 1.524 . S
C3257 H3260 0.999 . S
C3258 H3228 0.950 . S
C3258 C3257 1.524 . S
C3258 C3259 1.415 . S
C3259 H3229 0.950 . S
C3259 C3254 1.363 . S
C3259 C3258 1.415 . S
H3260 C3257 0.999 . S
H3261 C3242 0.913 . S
H3262 C3280 0.951 . S
H3263 C3282 0.951 . S
H3264 C3284 0.950 . S
H3265 C3285 0.950 . S
H3266 C3287 0.950 . S
H3267 C3290 0.950 . S
H3268 C3291 0.950 . S
H3269 C3293 0.950 . S
H3270 C3294 0.950 . S
H3271 C3295 0.951 . S
H3272 C3297 0.951 . S
H3273 C3299 0.950 . S
H3274 C3300 0.950 . S
H3275 C3302 0.950 . S
H3276 C3305 0.950 . S
H3277 C3306 0.950 . S
H3278 C3308 0.950 . S
H3279 C3309 0.950 . S
C3280 H3262 0.951 . S
C3280 C3281 1.366 . S
C3280 C3282 1.388 . S
C3281 C3280 1.366 . S
C3281 C3285 1.385 . S
C3282 H3263 0.951 . S
C3282 C3280 1.388 . S
C3282 C3283 1.366 . S
C3283 C3282 1.366 . S
C3283 C3284 1.414 . S
C3283 C3286 1.499 . S
C3284 H3264 0.950 . S
C3284 C3283 1.414 . S
C3284 C3285 1.374 . S
C3285 H3265 0.950 . S
C3285 C3281 1.385 . S
C3285 C3284 1.374 . S
C3286 C3283 1.499 . S
C3286 C3287 1.373 . S
C3286 C3288 1.389 . S
C3287 H3266 0.950 . S
C3287 C3286 1.373 . S
C3287 C3303 1.377 . S
C3288 C3286 1.389 . S
C3288 C3289 1.524 . S
C3288 C3302 1.377 . S
C3289 C3288 1.524 . S
C3289 C3290 1.397 . S
C3289 C3294 1.363 . S
C3290 H3267 0.950 . S
C3290 C3289 1.397 . S
C3290 C3291 1.334 . S
C3291 H3268 0.950 . S
C3291 C3290 1.334 . S
C3291 C3292 1.287 . S
C3292 C3291 1.287 . S
C3292 C3293 1.524 . S
C3292 H3311 0.913 . S
C3293 H3269 0.950 . S
C3293 C3292 1.524 . S
C3293 C3294 1.415 . S
C3294 H3270 0.950 . S
C3294 C3289 1.363 . S
C3294 C3293 1.415 . S
C3295 H3271 0.951 . S
C3295 C3296 1.366 . S
C3295 C3297 1.388 . S
C3296 C3295 1.366 . S
C3296 C3300 1.385 . S
C3297 H3272 0.951 . S
C3297 C3295 1.388 . S
C3297 C3298 1.366 . S
C3298 C3297 1.366 . S
C3298 C3299 1.414 . S
C3298 C3301 1.499 . S
C3299 H3273 0.950 . S
C3299 C3298 1.414 . S
C3299 C3300 1.374 . S
C3300 H3274 0.950 . S
C3300 C3296 1.385 . S
C3300 C3299 1.374 . S
C3301 C3298 1.499 . S
C3301 C3302 1.373 . S
C3301 C3303 1.389 . S
C3302 H3275 0.950 . S
C3302 C3288 1.377 . S
C3302 C3301 1.373 . S
C3303 C3287 1.377 . S
C3303 C3301 1.389 . S
C3303 C3304 1.524 . S
C3304 C3303 1.524 . S
C3304 C3305 1.397 . S
C3304 C3309 1.363 . S
C3305 H3276 0.950 . S
C3305 C3304 1.397 . S
C3305 C3306 1.334 . S
C3306 H3277 0.950 . S
C3306 C3305 1.334 . S
C3306 C3307 1.287 . S
C3307 C3306 1.287 . S
C3307 C3308 1.524 . S
C3307 H3310 0.999 . S
C3308 H3278 0.950 . S
C3308 C3307 1.524 . S
C3308 C3309 1.415 . S
C3309 H3279 0.950 . S
C3309 C3304 1.363 . S
C3309 C3308 1.415 . S
H3310 C3307 0.999 . S
H3311 C3292 0.913 . S
H3312 C3330 0.951 . S
H3313 C3332 0.951 . S
H3314 C3334 0.950 . S
H3315 C3335 0.950 . S
H3316 C3337 0.950 . S
H3317 C3340 0.950 . S
H3318 C3341 0.950 . S
H3319 C3343 0.950 . S
H3320 C3344 0.950 . S
H3321 C3345 0.951 . S
H3322 C3347 0.951 . S
H3323 C3349 0.950 . S
H3324 C3350 0.950 . S
H3325 C3352 0.950 . S
H3326 C3355 0.950 . S
H3327 C3356 0.950 . S
H3328 C3358 0.950 . S
H3329 C3359 0.950 . S
C3330 H3312 0.951 . S
C3330 C3331 1.366 . S
C3330 C3332 1.388 . S
C3331 C3330 1.366 . S
C3331 C3335 1.385 . S
C3332 H3313 0.951 . S
C3332 C3330 1.388 . S
C3332 C3333 1.366 . S
C3333 C3332 1.366 . S
C3333 C3334 1.414 . S
C3333 C3336 1.499 . S
C3334 H3314 0.950 . S
C3334 C3333 1.414 . S
C3334 C3335 1.374 . S
C3335 H3315 0.950 . S
C3335 C3331 1.385 . S
C3335 C3334 1.374 . S
C3336 C3333 1.499 . S
C3336 C3337 1.373 . S
C3336 C3338 1.389 . S
C3337 H3316 0.950 . S
C3337 C3336 1.373 . S
C3337 C3353 1.377 . S
C3338 C3336 1.389 . S
C3338 C3339 1.524 . S
C3338 C3352 1.377 . S
C3339 C3338 1.524 . S
C3339 C3340 1.397 . S
C3339 C3344 1.363 . S
C3340 H3317 0.950 . S
C3340 C3339 1.397 . S
C3340 C3341 1.334 . S
C3341 H3318 0.950 . S
C3341 C3340 1.334 . S
C3341 C3342 1.287 . S
C3342 C3341 1.287 . S
C3342 C3343 1.524 . S
C3342 H3361 0.913 . S
C3343 H3319 0.950 . S
C3343 C3342 1.524 . S
C3343 C3344 1.415 . S
C3344 H3320 0.950 . S
C3344 C3339 1.363 . S
C3344 C3343 1.415 . S
C3345 H3321 0.951 . S
C3345 C3346 1.366 . S
C3345 C3347 1.388 . S
C3346 C3345 1.366 . S
C3346 C3350 1.385 . S
C3347 H3322 0.951 . S
C3347 C3345 1.388 . S
C3347 C3348 1.366 . S
C3348 C3347 1.366 . S
C3348 C3349 1.414 . S
C3348 C3351 1.499 . S
C3349 H3323 0.950 . S
C3349 C3348 1.414 . S
C3349 C3350 1.374 . S
C3350 H3324 0.950 . S
C3350 C3346 1.385 . S
C3350 C3349 1.374 . S
C3351 C3348 1.499 . S
C3351 C3352 1.373 . S
C3351 C3353 1.389 . S
C3352 H3325 0.950 . S
C3352 C3338 1.377 . S
C3352 C3351 1.373 . S
C3353 C3337 1.377 . S
C3353 C3351 1.389 . S
C3353 C3354 1.524 . S
C3354 C3353 1.524 . S
C3354 C3355 1.397 . S
C3354 C3359 1.363 . S
C3355 H3326 0.950 . S
C3355 C3354 1.397 . S
C3355 C3356 1.334 . S
C3356 H3327 0.950 . S
C3356 C3355 1.334 . S
C3356 C3357 1.287 . S
C3357 C3356 1.287 . S
C3357 C3358 1.524 . S
C3357 H3360 0.999 . S
C3358 H3328 0.950 . S
C3358 C3357 1.524 . S
C3358 C3359 1.415 . S
C3359 H3329 0.950 . S
C3359 C3354 1.363 . S
C3359 C3358 1.415 . S
H3360 C3357 0.999 . S
H3361 C3342 0.913 . S
H3362 C3380 0.951 . S
H3363 C3382 0.951 . S
H3364 C3384 0.950 . S
H3365 C3385 0.950 . S
H3366 C3387 0.950 . S
H3367 C3390 0.950 . S
H3368 C3391 0.950 . S
H3369 C3393 0.950 . S
H3370 C3394 0.950 . S
H3371 C3395 0.951 . S
H3372 C3397 0.951 . S
H3373 C3399 0.950 . S
H3374 C3400 0.950 . S
H3375 C3402 0.950 . S
H3376 C3405 0.950 . S
H3377 C3406 0.950 . S
H3378 C3408 0.950 . S
H3379 C3409 0.950 . S
C3380 H3362 0.951 . S
C3380 C3381 1.366 . S
C3380 C3382 1.388 . S
C3381 C3380 1.366 . S
C3381 C3385 1.385 . S
C3382 H3363 0.951 . S
C3382 C3380 1.388 . S
C3382 C3383 1.366 . S
C3383 C3382 1.366 . S
C3383 C3384 1.414 . S
C3383 C3386 1.499 . S
C3384 H3364 0.950 . S
C3384 C3383 1.414 . S
C3384 C3385 1.374 . S
C3385 H3365 0.950 . S
C3385 C3381 1.385 . S
C3385 C3384 1.374 . S
C3386 C3383 1.499 . S
C3386 C3387 1.373 . S
C3386 C3388 1.389 . S
C3387 H3366 0.950 . S
C3387 C3386 1.373 . S
C3387 C3403 1.377 . S
C3388 C3386 1.389 . S
C3388 C3389 1.524 . S
C3388 C3402 1.377 . S
C3389 C3388 1.524 . S
C3389 C3390 1.397 . S
C3389 C3394 1.363 . S
C3390 H3367 0.950 . S
C3390 C3389 1.397 . S
C3390 C3391 1.334 . S
C3391 H3368 0.950 . S
C3391 C3390 1.334 . S
C3391 C3392 1.287 . S
C3392 C3391 1.287 . S
C3392 C3393 1.524 . S
C3392 H3411 0.913 . S
C3393 H3369 0.950 . S
C3393 C3392 1.524 . S
C3393 C3394 1.415 . S
C3394 H3370 0.950 . S
C3394 C3389 1.363 . S
C3394 C3393 1.415 . S
C3395 H3371 0.951 . S
C3395 C3396 1.366 . S
C3395 C3397 1.388 . S
C3396 C3395 1.366 . S
C3396 C3400 1.385 . S
C3397 H3372 0.951 . S
C3397 C3395 1.388 . S
C3397 C3398 1.366 . S
C3398 C3397 1.366 . S
C3398 C3399 1.414 . S
C3398 C3401 1.499 . S
C3399 H3373 0.950 . S
C3399 C3398 1.414 . S
C3399 C3400 1.374 . S
C3400 H3374 0.950 . S
C3400 C3396 1.385 . S
C3400 C3399 1.374 . S
C3401 C3398 1.499 . S
C3401 C3402 1.373 . S
C3401 C3403 1.389 . S
C3402 H3375 0.950 . S
C3402 C3388 1.377 . S
C3402 C3401 1.373 . S
C3403 C3387 1.377 . S
C3403 C3401 1.389 . S
C3403 C3404 1.524 . S
C3404 C3403 1.524 . S
C3404 C3405 1.397 . S
C3404 C3409 1.363 . S
C3405 H3376 0.950 . S
C3405 C3404 1.397 . S
C3405 C3406 1.334 . S
C3406 H3377 0.950 . S
C3406 C3405 1.334 . S
C3406 C3407 1.287 . S
C3407 C3406 1.287 . S
C3407 C3408 1.524 . S
C3407 H3410 0.999 . S
C3408 H3378 0.950 . S
C3408 C3407 1.524 . S
C3408 C3409 1.415 . S
C3409 H3379 0.950 . S
C3409 C3404 1.363 . S
C3409 C3408 1.415 . S
H3410 C3407 0.999 . S
H3411 C3392 0.913 . S
H3412 C3430 0.951 . S
H3413 C3432 0.951 . S
H3414 C3434 0.950 . S
H3415 C3435 0.950 . S
H3416 C3437 0.950 . S
H3417 C3440 0.950 . S
H3418 C3441 0.950 . S
H3419 C3443 0.950 . S
H3420 C3444 0.950 . S
H3421 C3445 0.951 . S
H3422 C3447 0.951 . S
H3423 C3449 0.950 . S
H3424 C3450 0.950 . S
H3425 C3452 0.950 . S
H3426 C3455 0.950 . S
H3427 C3456 0.950 . S
H3428 C3458 0.950 . S
H3429 C3459 0.950 . S
C3430 H3412 0.951 . S
C3430 C3431 1.366 . S
C3430 C3432 1.388 . S
C3431 C3430 1.366 . S
C3431 C3435 1.385 . S
C3432 H3413 0.951 . S
C3432 C3430 1.388 . S
C3432 C3433 1.366 . S
C3433 C3432 1.366 . S
C3433 C3434 1.414 . S
C3433 C3436 1.499 . S
C3434 H3414 0.950 . S
C3434 C3433 1.414 . S
C3434 C3435 1.374 . S
C3435 H3415 0.950 . S
C3435 C3431 1.385 . S
C3435 C3434 1.374 . S
C3436 C3433 1.499 . S
C3436 C3437 1.373 . S
C3436 C3438 1.389 . S
C3437 H3416 0.950 . S
C3437 C3436 1.373 . S
C3437 C3453 1.377 . S
C3438 C3436 1.389 . S
C3438 C3439 1.524 . S
C3438 C3452 1.377 . S
C3439 C3438 1.524 . S
C3439 C3440 1.397 . S
C3439 C3444 1.363 . S
C3440 H3417 0.950 . S
C3440 C3439 1.397 . S
C3440 C3441 1.334 . S
C3441 H3418 0.950 . S
C3441 C3440 1.334 . S
C3441 C3442 1.287 . S
C3442 C3441 1.287 . S
C3442 C3443 1.524 . S
C3442 H3461 0.913 . S
C3443 H3419 0.950 . S
C3443 C3442 1.524 . S
C3443 C3444 1.415 . S
C3444 H3420 0.950 . S
C3444 C3439 1.363 . S
C3444 C3443 1.415 . S
C3445 H3421 0.951 . S
C3445 C3446 1.366 . S
C3445 C3447 1.388 . S
C3446 C3445 1.366 . S
C3446 C3450 1.385 . S
C3447 H3422 0.951 . S
C3447 C3445 1.388 . S
C3447 C3448 1.366 . S
C3448 C3447 1.366 . S
C3448 C3449 1.414 . S
C3448 C3451 1.499 . S
C3449 H3423 0.950 . S
C3449 C3448 1.414 . S
C3449 C3450 1.374 . S
C3450 H3424 0.950 . S
C3450 C3446 1.385 . S
C3450 C3449 1.374 . S
C3451 C3448 1.499 . S
C3451 C3452 1.373 . S
C3451 C3453 1.389 . S
C3452 H3425 0.950 . S
C3452 C3438 1.377 . S
C3452 C3451 1.373 . S
C3453 C3437 1.377 . S
C3453 C3451 1.389 . S
C3453 C3454 1.524 . S
C3454 C3453 1.524 . S
C3454 C3455 1.397 . S
C3454 C3459 1.363 . S
C3455 H3426 0.950 . S
C3455 C3454 1.397 . S
C3455 C3456 1.334 . S
C3456 H3427 0.950 . S
C3456 C3455 1.334 . S
C3456 C3457 1.287 . S
C3457 C3456 1.287 . S
C3457 C3458 1.524 . S
C3457 H3460 0.999 . S
C3458 H3428 0.950 . S
C3458 C3457 1.524 . S
C3458 C3459 1.415 . S
C3459 H3429 0.950 . S
C3459 C3454 1.363 . S
C3459 C3458 1.415 . S
H3460 C3457 0.999 . S
H3461 C3442 0.913 . S
H3462 C3480 0.951 . S
H3463 C3482 0.951 . S
H3464 C3484 0.950 . S
H3465 C3485 0.950 . S
H3466 C3487 0.950 . S
H3467 C3490 0.950 . S
H3468 C3491 0.950 . S
H3469 C3493 0.950 . S
H3470 C3494 0.950 . S
H3471 C3495 0.951 . S
H3472 C3497 0.951 . S
H3473 C3499 0.950 . S
H3474 C3500 0.950 . S
H3475 C3502 0.950 . S
H3476 C3505 0.950 . S
H3477 C3506 0.950 . S
H3478 C3508 0.950 . S
H3479 C3509 0.950 . S
C3480 H3462 0.951 . S
C3480 C3481 1.366 . S
C3480 C3482 1.388 . S
C3481 C3480 1.366 . S
C3481 C3485 1.385 . S
C3482 H3463 0.951 . S
C3482 C3480 1.388 . S
C3482 C3483 1.366 . S
C3483 C3482 1.366 . S
C3483 C3484 1.414 . S
C3483 C3486 1.499 . S
C3484 H3464 0.950 . S
C3484 C3483 1.414 . S
C3484 C3485 1.374 . S
C3485 H3465 0.950 . S
C3485 C3481 1.385 . S
C3485 C3484 1.374 . S
C3486 C3483 1.499 . S
C3486 C3487 1.373 . S
C3486 C3488 1.389 . S
C3487 H3466 0.950 . S
C3487 C3486 1.373 . S
C3487 C3503 1.377 . S
C3488 C3486 1.389 . S
C3488 C3489 1.524 . S
C3488 C3502 1.377 . S
C3489 C3488 1.524 . S
C3489 C3490 1.397 . S
C3489 C3494 1.363 . S
C3490 H3467 0.950 . S
C3490 C3489 1.397 . S
C3490 C3491 1.334 . S
C3491 H3468 0.950 . S
C3491 C3490 1.334 . S
C3491 C3492 1.287 . S
C3492 C3491 1.287 . S
C3492 C3493 1.524 . S
C3492 H3511 0.913 . S
C3493 H3469 0.950 . S
C3493 C3492 1.524 . S
C3493 C3494 1.415 . S
C3494 H3470 0.950 . S
C3494 C3489 1.363 . S
C3494 C3493 1.415 . S
C3495 H3471 0.951 . S
C3495 C3496 1.366 . S
C3495 C3497 1.388 . S
C3496 C3495 1.366 . S
C3496 C3500 1.385 . S
C3497 H3472 0.951 . S
C3497 C3495 1.388 . S
C3497 C3498 1.366 . S
C3498 C3497 1.366 . S
C3498 C3499 1.414 . S
C3498 C3501 1.499 . S
C3499 H3473 0.950 . S
C3499 C3498 1.414 . S
C3499 C3500 1.374 . S
C3500 H3474 0.950 . S
C3500 C3496 1.385 . S
C3500 C3499 1.374 . S
C3501 C3498 1.499 . S
C3501 C3502 1.373 . S
C3501 C3503 1.389 . S
C3502 H3475 0.950 . S
C3502 C3488 1.377 . S
C3502 C3501 1.373 . S
C3503 C3487 1.377 . S
C3503 C3501 1.389 . S
C3503 C3504 1.524 . S
C3504 C3503 1.524 . S
C3504 C3505 1.397 . S
C3504 C3509 1.363 . S
C3505 H3476 0.950 . S
C3505 C3504 1.397 . S
C3505 C3506 1.334 . S
C3506 H3477 0.950 . S
C3506 C3505 1.334 . S
C3506 C3507 1.287 . S
C3507 C3506 1.287 . S
C3507 C3508 1.524 . S
C3507 H3510 0.999 . S
C3508 H3478 0.950 . S
C3508 C3507 1.524 . S
C3508 C3509 1.415 . S
C3509 H3479 0.950 . S
C3509 C3504 1.363 . S
C3509 C3508 1.415 . S
H3510 C3507 0.999 . S
H3511 C3492 0.913 . S
H3512 C3530 0.951 . S
H3513 C3532 0.951 . S
H3514 C3534 0.950 . S
H3515 C3535 0.950 . S
H3516 C3537 0.950 . S
H3517 C3540 0.950 . S
H3518 C3541 0.950 . S
H3519 C3543 0.950 . S
H3520 C3544 0.950 . S
H3521 C3545 0.951 . S
H3522 C3547 0.951 . S
H3523 C3549 0.950 . S
H3524 C3550 0.950 . S
H3525 C3552 0.950 . S
H3526 C3555 0.950 . S
H3527 C3556 0.950 . S
H3528 C3558 0.950 . S
H3529 C3559 0.950 . S
C3530 H3512 0.951 . S
C3530 C3531 1.366 . S
C3530 C3532 1.388 . S
C3531 C3530 1.366 . S
C3531 C3535 1.385 . S
C3532 H3513 0.951 . S
C3532 C3530 1.388 . S
C3532 C3533 1.366 . S
C3533 C3532 1.366 . S
C3533 C3534 1.414 . S
C3533 C3536 1.499 . S
C3534 H3514 0.950 . S
C3534 C3533 1.414 . S
C3534 C3535 1.374 . S
C3535 H3515 0.950 . S
C3535 C3531 1.385 . S
C3535 C3534 1.374 . S
C3536 C3533 1.499 . S
C3536 C3537 1.373 . S
C3536 C3538 1.389 . S
C3537 H3516 0.950 . S
C3537 C3536 1.373 . S
C3537 C3553 1.377 . S
C3538 C3536 1.389 . S
C3538 C3539 1.524 . S
C3538 C3552 1.377 . S
C3539 C3538 1.524 . S
C3539 C3540 1.397 . S
C3539 C3544 1.363 . S
C3540 H3517 0.950 . S
C3540 C3539 1.397 . S
C3540 C3541 1.334 . S
C3541 H3518 0.950 . S
C3541 C3540 1.334 . S
C3541 C3542 1.287 . S
C3542 C3541 1.287 . S
C3542 C3543 1.524 . S
C3542 H3561 0.913 . S
C3543 H3519 0.950 . S
C3543 C3542 1.524 . S
C3543 C3544 1.415 . S
C3544 H3520 0.950 . S
C3544 C3539 1.363 . S
C3544 C3543 1.415 . S
C3545 H3521 0.951 . S
C3545 C3546 1.366 . S
C3545 C3547 1.388 . S
C3546 C3545 1.366 . S
C3546 C3550 1.385 . S
C3547 H3522 0.951 . S
C3547 C3545 1.388 . S
C3547 C3548 1.366 . S
C3548 C3547 1.366 . S
C3548 C3549 1.414 . S
C3548 C3551 1.499 . S
C3549 H3523 0.950 . S
C3549 C3548 1.414 . S
C3549 C3550 1.374 . S
C3550 H3524 0.950 . S
C3550 C3546 1.385 . S
C3550 C3549 1.374 . S
C3551 C3548 1.499 . S
C3551 C3552 1.373 . S
C3551 C3553 1.389 . S
C3552 H3525 0.950 . S
C3552 C3538 1.377 . S
C3552 C3551 1.373 . S
C3553 C3537 1.377 . S
C3553 C3551 1.389 . S
C3553 C3554 1.524 . S
C3554 C3553 1.524 . S
C3554 C3555 1.397 . S
C3554 C3559 1.363 . S
C3555 H3526 0.950 . S
C3555 C3554 1.397 . S
C3555 C3556 1.334 . S
C3556 H3527 0.950 . S
C3556 C3555 1.334 . S
C3556 C3557 1.287 . S
C3557 C3556 1.287 . S
C3557 C3558 1.524 . S
C3557 H3560 0.999 . S
C3558 H3528 0.950 . S
C3558 C3557 1.524 . S
C3558 C3559 1.415 . S
C3559 H3529 0.950 . S
C3559 C3554 1.363 . S
C3559 C3558 1.415 . S
H3560 C3557 0.999 . S
H3561 C3542 0.913 . S
H3562 C3580 0.951 . S
H3563 C3582 0.951 . S
H3564 C3584 0.950 . S
H3565 C3585 0.950 . S
H3566 C3587 0.950 . S
H3567 C3590 0.950 . S
H3568 C3591 0.950 . S
H3569 C3593 0.950 . S
H3570 C3594 0.950 . S
H3571 C3595 0.951 . S
H3572 C3597 0.951 . S
H3573 C3599 0.950 . S
H3574 C3600 0.950 . S
H3575 C3602 0.950 . S
H3576 C3605 0.950 . S
H3577 C3606 0.950 . S
H3578 C3608 0.950 . S
H3579 C3609 0.950 . S
C3580 H3562 0.951 . S
C3580 C3581 1.366 . S
C3580 C3582 1.388 . S
C3581 C3580 1.366 . S
C3581 C3585 1.385 . S
C3582 H3563 0.951 . S
C3582 C3580 1.388 . S
C3582 C3583 1.366 . S
C3583 C3582 1.366 . S
C3583 C3584 1.414 . S
C3583 C3586 1.499 . S
C3584 H3564 0.950 . S
C3584 C3583 1.414 . S
C3584 C3585 1.374 . S
C3585 H3565 0.950 . S
C3585 C3581 1.385 . S
C3585 C3584 1.374 . S
C3586 C3583 1.499 . S
C3586 C3587 1.373 . S
C3586 C3588 1.389 . S
C3587 H3566 0.950 . S
C3587 C3586 1.373 . S
C3587 C3603 1.377 . S
C3588 C3586 1.389 . S
C3588 C3589 1.524 . S
C3588 C3602 1.377 . S
C3589 C3588 1.524 . S
C3589 C3590 1.397 . S
C3589 C3594 1.363 . S
C3590 H3567 0.950 . S
C3590 C3589 1.397 . S
C3590 C3591 1.334 . S
C3591 H3568 0.950 . S
C3591 C3590 1.334 . S
C3591 C3592 1.287 . S
C3592 C3591 1.287 . S
C3592 C3593 1.524 . S
C3592 H3611 0.913 . S
C3593 H3569 0.950 . S
C3593 C3592 1.524 . S
C3593 C3594 1.415 . S
C3594 H3570 0.950 . S
C3594 C3589 1.363 . S
C3594 C3593 1.415 . S
C3595 H3571 0.951 . S
C3595 C3596 1.366 . S
C3595 C3597 1.388 . S
C3596 C3595 1.366 . S
C3596 C3600 1.385 . S
C3597 H3572 0.951 . S
C3597 C3595 1.388 . S
C3597 C3598 1.366 . S
C3598 C3597 1.366 . S
C3598 C3599 1.414 . S
C3598 C3601 1.499 . S
C3599 H3573 0.950 . S
C3599 C3598 1.414 . S
C3599 C3600 1.374 . S
C3600 H3574 0.950 . S
C3600 C3596 1.385 . S
C3600 C3599 1.374 . S
C3601 C3598 1.499 . S
C3601 C3602 1.373 . S
C3601 C3603 1.389 . S
C3602 H3575 0.950 . S
C3602 C3588 1.377 . S
C3602 C3601 1.373 . S
C3603 C3587 1.377 . S
C3603 C3601 1.389 . S
C3603 C3604 1.524 . S
C3604 C3603 1.524 . S
C3604 C3605 1.397 . S
C3604 C3609 1.363 . S
C3605 H3576 0.950 . S
C3605 C3604 1.397 . S
C3605 C3606 1.334 . S
C3606 H3577 0.950 . S
C3606 C3605 1.334 . S
C3606 C3607 1.287 . S
C3607 C3606 1.287 . S
C3607 C3608 1.524 . S
C3607 H3610 0.999 . S
C3608 H3578 0.950 . S
C3608 C3607 1.524 . S
C3608 C3609 1.415 . S
C3609 H3579 0.950 . S
C3609 C3604 1.363 . S
C3609 C3608 1.415 . S
H3610 C3607 0.999 . S
H3611 C3592 0.913 . S
H3612 C3630 0.951 . S
H3613 C3632 0.951 . S
H3614 C3634 0.950 . S
H3615 C3635 0.950 . S
H3616 C3637 0.950 . S
H3617 C3640 0.950 . S
H3618 C3641 0.950 . S
H3619 C3643 0.950 . S
H3620 C3644 0.950 . S
H3621 C3645 0.951 . S
H3622 C3647 0.951 . S
H3623 C3649 0.950 . S
H3624 C3650 0.950 . S
H3625 C3652 0.950 . S
H3626 C3655 0.950 . S
H3627 C3656 0.950 . S
H3628 C3658 0.950 . S
H3629 C3659 0.950 . S
C3630 H3612 0.951 . S
C3630 C3631 1.366 . S
C3630 C3632 1.388 . S
C3631 C3630 1.366 . S
C3631 C3635 1.385 . S
C3632 H3613 0.951 . S
C3632 C3630 1.388 . S
C3632 C3633 1.366 . S
C3633 C3632 1.366 . S
C3633 C3634 1.414 . S
C3633 C3636 1.499 . S
C3634 H3614 0.950 . S
C3634 C3633 1.414 . S
C3634 C3635 1.374 . S
C3635 H3615 0.950 . S
C3635 C3631 1.385 . S
C3635 C3634 1.374 . S
C3636 C3633 1.499 . S
C3636 C3637 1.373 . S
C3636 C3638 1.389 . S
C3637 H3616 0.950 . S
C3637 C3636 1.373 . S
C3637 C3653 1.377 . S
C3638 C3636 1.389 . S
C3638 C3639 1.524 . S
C3638 C3652 1.377 . S
C3639 C3638 1.524 . S
C3639 C3640 1.397 . S
C3639 C3644 1.363 . S
C3640 H3617 0.950 . S
C3640 C3639 1.397 . S
C3640 C3641 1.334 . S
C3641 H3618 0.950 . S
C3641 C3640 1.334 . S
C3641 C3642 1.287 . S
C3642 C3641 1.287 . S
C3642 C3643 1.524 . S
C3642 H3661 0.913 . S
C3643 H3619 0.950 . S
C3643 C3642 1.524 . S
C3643 C3644 1.415 . S
C3644 H3620 0.950 . S
C3644 C3639 1.363 . S
C3644 C3643 1.415 . S
C3645 H3621 0.951 . S
C3645 C3646 1.366 . S
C3645 C3647 1.388 . S
C3646 C3645 1.366 . S
C3646 C3650 1.385 . S
C3647 H3622 0.951 . S
C3647 C3645 1.388 . S
C3647 C3648 1.366 . S
C3648 C3647 1.366 . S
C3648 C3649 1.414 . S
C3648 C3651 1.499 . S
C3649 H3623 0.950 . S
C3649 C3648 1.414 . S
C3649 C3650 1.374 . S
C3650 H3624 0.950 . S
C3650 C3646 1.385 . S
C3650 C3649 1.374 . S
C3651 C3648 1.499 . S
C3651 C3652 1.373 . S
C3651 C3653 1.389 . S
C3652 H3625 0.950 . S
C3652 C3638 1.377 . S
C3652 C3651 1.373 . S
C3653 C3637 1.377 . S
C3653 C3651 1.389 . S
C3653 C3654 1.524 . S
C3654 C3653 1.524 . S
C3654 C3655 1.397 . S
C3654 C3659 1.363 . S
C3655 H3626 0.950 . S
C3655 C3654 1.397 . S
C3655 C3656 1.334 . S
C3656 H3627 0.950 . S
C3656 C3655 1.334 . S
C3656 C3657 1.287 . S
C3657 C3656 1.287 . S
C3657 C3658 1.524 . S
C3657 H3660 0.999 . S
C3658 H3628 0.950 . S
C3658 C3657 1.524 . S
C3658 C3659 1.415 . S
C3659 H3629 0.950 . S
C3659 C3654 1.363 . S
C3659 C3658 1.415 . S
H3660 C3657 0.999 . S
H3661 C3642 0.913 . S
H3662 C3680 0.951 . S
H3663 C3682 0.951 . S
H3664 C3684 0.950 . S
H3665 C3685 0.950 . S
H3666 C3687 0.950 . S
H3667 C3690 0.950 . S
H3668 C3691 0.950 . S
H3669 C3693 0.950 . S
H3670 C3694 0.950 . S
H3671 C3695 0.951 . S
H3672 C3697 0.951 . S
H3673 C3699 0.950 . S
H3674 C3700 0.950 . S
H3675 C3702 0.950 . S
H3676 C3705 0.950 . S
H3677 C3706 0.950 . S
H3678 C3708 0.950 . S
H3679 C3709 0.950 . S
C3680 H3662 0.951 . S
C3680 C3681 1.366 . S
C3680 C3682 1.388 . S
C3681 C3680 1.366 . S
C3681 C3685 1.385 . S
C3682 H3663 0.951 . S
C3682 C3680 1.388 . S
C3682 C3683 1.366 . S
C3683 C3682 1.366 . S
C3683 C3684 1.414 . S
C3683 C3686 1.499 . S
C3684 H3664 0.950 . S
C3684 C3683 1.414 . S
C3684 C3685 1.374 . S
C3685 H3665 0.950 . S
C3685 C3681 1.385 . S
C3685 C3684 1.374 . S
C3686 C3683 1.499 . S
C3686 C3687 1.373 . S
C3686 C3688 1.389 . S
C3687 H3666 0.950 . S
C3687 C3686 1.373 . S
C3687 C3703 1.377 . S
C3688 C3686 1.389 . S
C3688 C3689 1.524 . S
C3688 C3702 1.377 . S
C3689 C3688 1.524 . S
C3689 C3690 1.397 . S
C3689 C3694 1.363 . S
C3690 H3667 0.950 . S
C3690 C3689 1.397 . S
C3690 C3691 1.334 . S
C3691 H3668 0.950 . S
C3691 C3690 1.334 . S
C3691 C3692 1.287 . S
C3692 C3691 1.287 . S
C3692 C3693 1.524 . S
C3692 H3711 0.913 . S
C3693 H3669 0.950 . S
C3693 C3692 1.524 . S
C3693 C3694 1.415 . S
C3694 H3670 0.950 . S
C3694 C3689 1.363 . S
C3694 C3693 1.415 . S
C3695 H3671 0.951 . S
C3695 C3696 1.366 . S
C3695 C3697 1.388 . S
C3696 C3695 1.366 . S
C3696 C3700 1.385 . S
C3697 H3672 0.951 . S
C3697 C3695 1.388 . S
C3697 C3698 1.366 . S
C3698 C3697 1.366 . S
C3698 C3699 1.414 . S
C3698 C3701 1.499 . S
C3699 H3673 0.950 . S
C3699 C3698 1.414 . S
C3699 C3700 1.374 . S
C3700 H3674 0.950 . S
C3700 C3696 1.385 . S
C3700 C3699 1.374 . S
C3701 C3698 1.499 . S
C3701 C3702 1.373 . S
C3701 C3703 1.389 . S
C3702 H3675 0.950 . S
C3702 C3688 1.377 . S
C3702 C3701 1.373 . S
C3703 C3687 1.377 . S
C3703 C3701 1.389 . S
C3703 C3704 1.524 . S
C3704 C3703 1.524 . S
C3704 C3705 1.397 . S
C3704 C3709 1.363 . S
C3705 H3676 0.950 . S
C3705 C3704 1.397 . S
C3705 C3706 1.334 . S
C3706 H3677 0.950 . S
C3706 C3705 1.334 . S
C3706 C3707 1.287 . S
C3707 C3706 1.287 . S
C3707 C3708 1.524 . S
C3707 H3710 0.999 . S
C3708 H3678 0.950 . S
C3708 C3707 1.524 . S
C3708 C3709 1.415 . S
C3709 H3679 0.950 . S
C3709 C3704 1.363 . S
C3709 C3708 1.415 . S
H3710 C3707 0.999 . S
H3711 C3692 0.913 . S
H3712 C3730 0.951 . S
H3713 C3732 0.951 . S
H3714 C3734 0.950 . S
H3715 C3735 0.950 . S
H3716 C3737 0.950 . S
H3717 C3740 0.950 . S
H3718 C3741 0.950 . S
H3719 C3743 0.950 . S
H3720 C3744 0.950 . S
H3721 C3745 0.951 . S
H3722 C3747 0.951 . S
H3723 C3749 0.950 . S
H3724 C3750 0.950 . S
H3725 C3752 0.950 . S
H3726 C3755 0.950 . S
H3727 C3756 0.950 . S
H3728 C3758 0.950 . S
H3729 C3759 0.950 . S
C3730 H3712 0.951 . S
C3730 C3731 1.366 . S
C3730 C3732 1.388 . S
C3731 C3730 1.366 . S
C3731 C3735 1.385 . S
C3732 H3713 0.951 . S
C3732 C3730 1.388 . S
C3732 C3733 1.366 . S
C3733 C3732 1.366 . S
C3733 C3734 1.414 . S
C3733 C3736 1.499 . S
C3734 H3714 0.950 . S
C3734 C3733 1.414 . S
C3734 C3735 1.374 . S
C3735 H3715 0.950 . S
C3735 C3731 1.385 . S
C3735 C3734 1.374 . S
C3736 C3733 1.499 . S
C3736 C3737 1.373 . S
C3736 C3738 1.389 . S
C3737 H3716 0.950 . S
C3737 C3736 1.373 . S
C3737 C3753 1.377 . S
C3738 C3736 1.389 . S
C3738 C3739 1.524 . S
C3738 C3752 1.377 . S
C3739 C3738 1.524 . S
C3739 C3740 1.397 . S
C3739 C3744 1.363 . S
C3740 H3717 0.950 . S
C3740 C3739 1.397 . S
C3740 C3741 1.334 . S
C3741 H3718 0.950 . S
C3741 C3740 1.334 . S
C3741 C3742 1.287 . S
C3742 C3741 1.287 . S
C3742 C3743 1.524 . S
C3742 H3761 0.913 . S
C3743 H3719 0.950 . S
C3743 C3742 1.524 . S
C3743 C3744 1.415 . S
C3744 H3720 0.950 . S
C3744 C3739 1.363 . S
C3744 C3743 1.415 . S
C3745 H3721 0.951 . S
C3745 C3746 1.366 . S
C3745 C3747 1.388 . S
C3746 C3745 1.366 . S
C3746 C3750 1.385 . S
C3747 H3722 0.951 . S
C3747 C3745 1.388 . S
C3747 C3748 1.366 . S
C3748 C3747 1.366 . S
C3748 C3749 1.414 . S
C3748 C3751 1.499 . S
C3749 H3723 0.950 . S
C3749 C3748 1.414 . S
C3749 C3750 1.374 . S
C3750 H3724 0.950 . S
C3750 C3746 1.385 . S
C3750 C3749 1.374 . S
C3751 C3748 1.499 . S
C3751 C3752 1.373 . S
C3751 C3753 1.389 . S
C3752 H3725 0.950 . S
C3752 C3738 1.377 . S
C3752 C3751 1.373 . S
C3753 C3737 1.377 . S
C3753 C3751 1.389 . S
C3753 C3754 1.524 . S
C3754 C3753 1.524 . S
C3754 C3755 1.397 . S
C3754 C3759 1.363 . S
C3755 H3726 0.950 . S
C3755 C3754 1.397 . S
C3755 C3756 1.334 . S
C3756 H3727 0.950 . S
C3756 C3755 1.334 . S
C3756 C3757 1.287 . S
C3757 C3756 1.287 . S
C3757 C3758 1.524 . S
C3757 H3760 0.999 . S
C3758 H3728 0.950 . S
C3758 C3757 1.524 . S
C3758 C3759 1.415 . S
C3759 H3729 0.950 . S
C3759 C3754 1.363 . S
C3759 C3758 1.415 . S
H3760 C3757 0.999 . S
H3761 C3742 0.913 . S
C1081 C528 1.628 . S
C1096 C711 1.606 . S
C1131 C562 1.832 . S
C1146 C751 1.809 . S
C1181 C484 1.717 . S
C1196 C790 1.713 . S
C1231 C445 1.537 . S
C1246 C750 1.521 . S
C1296 C791 1.440 . S
C1281 C367 1.455 . S
C1331 C411 1.330 . S
C1346 C710 1.318 1_556 S
C1396 C721 1.625 . S
C1381 C450 1.636 . S
C1446 C761 1.789 . S
C1431 C372 1.806 . S
C1481 C406 1.715 . S
C1496 C800 1.715 . S
C1531 C523 1.534 . S
C1546 C760 1.521 . S
C1581 C567 1.429 . S
C1596 C801 1.419 . S
C1646 C720 1.357 . S
C1631 C489 1.339 . S
C1696 C831 1.607 . S
C1681 C60 1.629 . S
C1731 C94 1.832 . S
C1746 C871 1.810 . S
C1781 C16 1.717 . S
C1796 C910 1.713 . S
C1831 C679 1.537 . S
C1846 C870 1.521 . S
C1881 C601 1.456 . S
C1896 C911 1.441 . S
C1931 C645 1.330 . S
C1946 C830 1.335 . S
C1981 C684 1.637 . S
C1996 C841 1.626 . S
C2031 C606 1.806 . S
C2046 C881 1.789 . S
C2096 C920 1.715 . S
C2081 C640 1.715 . S
C2131 C55 1.534 . S
C2146 C880 1.521 . S
C2196 C921 1.418 . S
C2181 C99 1.428 . S
C2231 C21 1.340 . S
C2246 C840 1.357 . S
C2296 C951 1.606 . S
C2281 C294 1.628 . S
C2331 C328 1.832 . S
C2346 C991 1.810 . S
C2396 C1030 1.714 . S
C2381 C250 1.717 . S
C2446 C990 1.522 . S
C2431 C211 1.537 . S
C2496 C1031 1.441 . S
C2481 C133 1.456 . S
C2531 C177 1.329 . S
C2546 C950 1.335 . S
C2581 C216 1.637 . S
C2596 C961 1.627 . S
C2631 C138 1.806 . S
C2646 C1001 1.788 . S
C2696 C1040 1.714 . S
C2681 C172 1.714 . S
C2731 C289 1.535 . S
C2746 C1000 1.522 . S
C2781 C333 1.428 . S
C2796 C1041 1.418 . S
C2831 C255 1.339 . S
C2846 C960 1.357 . S
C2881 C586 1.275 . S
C2896 C707 1.273 . S
C2946 C747 1.896 . S
C2931 C625 1.882 . S
C2981 C664 1.572 . S
C2996 C797 1.584 . S
C3031 C235 1.891 . S
C3046 C757 1.910 . S
C3081 C274 1.559 . S
C3096 C787 1.567 . S
C3146 C717 1.269 . S
C3131 C313 1.272 . S
C3181 C118 1.275 . S
C3196 C827 1.273 . S
C3231 C157 1.882 . S
C3246 C867 1.896 . S
C3281 C196 1.572 . S
C3296 C917 1.584 . S
C3331 C469 1.891 . S
C3346 C877 1.910 . S
C3396 C907 1.567 . S
C3381 C508 1.558 . S
C3431 C547 1.272 . S
C3446 C837 1.270 . S
C3481 C352 1.275 . S
C3496 C947 1.273 . S
C3531 C391 1.882 . S
C3546 C987 1.896 . S
C3596 C1037 1.584 . S
C3581 C430 1.572 . S
C3631 C1 1.891 . S
C3646 C997 1.910 . S
C3681 C40 1.558 . S
C3696 C1027 1.567 . S
C3731 C79 1.272 . S
C3746 C957 1.269 . S
