# Generated by pormake.
# Topology anh, (6,3)-cn, num edge types: 1
# Building blocks:
#     Node 0, Type 0, BuildingBlock: MIFKUJ_clean_sbu_0, # of connection points: 6
#     Node 1, Type 0, BuildingBlock: MIFKUJ_clean_sbu_0, # of connection points: 6
#     Node 2, Type 0, BuildingBlock: MIFKUJ_clean_sbu_0, # of connection points: 6
#     Node 3, Type 1, BuildingBlock: BETDAH_clean_linker_0, # of connection points: 3
#     Node 4, Type 1, BuildingBlock: BETDAH_clean_linker_0, # of connection points: 3
#     Node 5, Type 1, BuildingBlock: BETDAH_clean_linker_0, # of connection points: 3
#     Node 6, Type 1, BuildingBlock: BETDAH_clean_linker_0, # of connection points: 3
#     Node 7, Type 1, BuildingBlock: BETDAH_clean_linker_0, # of connection points: 3
#     Node 8, Type 1, BuildingBlock: BETDAH_clean_linker_0, # of connection points: 3
#     Edge 9, Type (0, 1), BuildingBlock: UVAHIK_clean_linker_0, # of connection points: 2
#     Edge 10, Type (0, 1), BuildingBlock: UVAHIK_clean_linker_0, # of connection points: 2
#     Edge 11, Type (0, 1), BuildingBlock: UVAHIK_clean_linker_0, # of connection points: 2
#     Edge 12, Type (0, 1), BuildingBlock: UVAHIK_clean_linker_0, # of connection points: 2
#     Edge 13, Type (0, 1), BuildingBlock: UVAHIK_clean_linker_0, # of connection points: 2
#     Edge 14, Type (0, 1), BuildingBlock: UVAHIK_clean_linker_0, # of connection points: 2
#     Edge 15, Type (0, 1), BuildingBlock: UVAHIK_clean_linker_0, # of connection points: 2
#     Edge 16, Type (0, 1), BuildingBlock: UVAHIK_clean_linker_0, # of connection points: 2
#     Edge 17, Type (0, 1), BuildingBlock: UVAHIK_clean_linker_0, # of connection points: 2
#     Edge 18, Type (0, 1), BuildingBlock: UVAHIK_clean_linker_0, # of connection points: 2
#     Edge 19, Type (0, 1), BuildingBlock: UVAHIK_clean_linker_0, # of connection points: 2
#     Edge 20, Type (0, 1), BuildingBlock: UVAHIK_clean_linker_0, # of connection points: 2
#     Edge 21, Type (0, 1), BuildingBlock: UVAHIK_clean_linker_0, # of connection points: 2
#     Edge 22, Type (0, 1), BuildingBlock: UVAHIK_clean_linker_0, # of connection points: 2
#     Edge 23, Type (0, 1), BuildingBlock: UVAHIK_clean_linker_0, # of connection points: 2
#     Edge 24, Type (0, 1), BuildingBlock: UVAHIK_clean_linker_0, # of connection points: 2
#     Edge 25, Type (0, 1), BuildingBlock: UVAHIK_clean_linker_0, # of connection points: 2
#     Edge 26, Type (0, 1), BuildingBlock: UVAHIK_clean_linker_0, # of connection points: 2
# Relax obj value: 0.070
# Max RMSD: 0.134
# Mean RMSD: 0.095
data_MOF--net-anh--node1-MIFKUJ_clean_sbu_0--node2-BETDAH_clean_linker_0--edge1-UVAHIK_clean_linker_0
_symmetry_space_group_name_H-M    P1
_symmetry_Int_Tables_number       1
_symmetry_cell_setting            triclinic
loop_
_symmetry_equiv_pos_as_xyz
'x, y, z'
_cell_length_a     40.024684
_cell_length_b     40.01644
_cell_length_c     61.212064
_cell_angle_alpha  96.284171
_cell_angle_beta   93.028649
_cell_angle_gamma 119.94315
loop_
_atom_site_label
_atom_site_type_symbol
_atom_site_fract_x
_atom_site_fract_y
_atom_site_fract_z
_atom_type_partial_charge
Zn0 Zn 0.06059 0.56223 0.16638 0.0
Zn1 Zn 0.98625 0.47597 0.16407 0.0
C2 C 0.13295 0.56537 0.17809 0.0
O3 O 0.13683 0.59375 0.19297 0.0
C4 C 0.92381 0.48631 0.14972 0.0
O5 O 0.91938 0.45809 0.1345 0.0
O6 O 0.09175 0.62049 0.16871 0.0
O7 O 0.02661 0.54201 0.13693 0.0
O8 O 0.0096 0.48027 0.13546 0.0
C9 C 0.08711 0.64158 0.15622 0.0
O10 O 0.0589 0.62518 0.13967 0.0
O11 O 0.1012 0.54538 0.16512 0.0
C12 C 0.93056 0.41183 0.18139 0.0
O13 O 0.93951 0.44062 0.19746 0.0
O14 O 0.94782 0.41939 0.16418 0.0
O15 O 0.02154 0.4924 0.19262 0.0
O16 O 0.03664 0.55348 0.19503 0.0
O17 O 0.95291 0.50152 0.16469 0.0
C18 C 0.01767 0.50938 0.12572 0.0
C19 C 0.02988 0.52429 0.20435 0.0
Zn20 Zn 0.56777 0.08127 0.49602 0.0
Zn21 Zn 0.57994 0.00813 0.49738 0.0
C22 C 0.64214 0.15086 0.50864 0.0
O23 O 0.62178 0.15706 0.52299 0.0
C24 C 0.50536 0.94056 0.48319 0.0
O25 O 0.52634 0.935 0.46903 0.0
O26 O 0.54463 0.11542 0.49548 0.0
O27 O 0.54521 0.0433 0.46763 0.0
O28 O 0.591 0.0282 0.46808 0.0
C29 C 0.54395 0.13101 0.4786 0.0
O30 O 0.55697 0.12296 0.46071 0.0
O31 O 0.62582 0.11849 0.4955 0.0
C32 C 0.59802 0.95773 0.51681 0.0
O33 O 0.58103 0.96643 0.53241 0.0
O34 O 0.60189 0.97295 0.49926 0.0
O35 O 0.6025 0.046 0.52613 0.0
O36 O 0.55672 0.06091 0.52503 0.0
O37 O 0.52157 0.97195 0.49716 0.0
C38 C 0.56682 0.03402 0.45732 0.0
C39 C 0.58065 0.05529 0.53613 0.0
Zn40 Zn 0.59386 0.58966 0.83844 0.0
Zn41 Zn 0.50895 0.58166 0.83379 0.0
C42 C 0.5798 0.51608 0.84811 0.0
O43 O 0.60431 0.53987 0.86541 0.0
C44 C 0.51785 0.64979 0.81837 0.0
O45 O 0.4951 0.62239 0.80176 0.0
O46 O 0.65041 0.60676 0.83963 0.0
O47 O 0.58185 0.60758 0.81115 0.0
O48 O 0.5206 0.56098 0.80548 0.0
C49 C 0.65947 0.59215 0.82312 0.0
O50 O 0.63249 0.56995 0.80641 0.0
O51 O 0.56792 0.53021 0.83399 0.0
C52 C 0.43769 0.56643 0.84788 0.0
O53 O 0.46207 0.59061 0.86512 0.0
O54 O 0.45107 0.55745 0.83131 0.0
O55 O 0.52244 0.56962 0.86308 0.0
O56 O 0.58584 0.60936 0.86831 0.0
O57 O 0.5297 0.64003 0.83492 0.0
C58 C 0.55157 0.58381 0.79787 0.0
C59 C 0.55392 0.5901 0.87607 0.0
H60 H 0.44172 0.97109 0.22623 0.0
H61 H 0.55971 0.03099 0.21141 0.0
H62 H 0.46501 0.98148 0.15877 0.0
C63 C 0.46231 0.98176 0.2143 0.0
C64 C 0.44855 0.97426 0.19172 0.0
C65 C 0.50237 1.00191 0.22155 0.0
C66 C 0.5288 0.01582 0.20595 0.0
C67 C 0.51521 0.00839 0.18324 0.0
C68 C 0.47525 0.98728 0.17629 0.0
N69 N 0.54084 0.02091 0.16688 0.0
C70 C 0.57958 0.0501 0.17158 0.0
H71 H 0.55328 0.48537 0.5657 0.0
H72 H 0.62542 0.6073 0.562 0.0
H73 H 0.6171 0.52145 0.50999 0.0
C74 C 0.57266 0.50824 0.5569 0.0
C75 C 0.58264 0.4983 0.53652 0.0
C76 C 0.58841 0.54748 0.56639 0.0
C77 C 0.61327 0.57704 0.55482 0.0
C78 C 0.62307 0.56751 0.53427 0.0
C79 C 0.60828 0.52833 0.52548 0.0
N80 N 0.64826 0.59665 0.52222 0.0
C81 C 0.65347 0.6339 0.52468 0.0
H82 H 0.95772 0.51974 0.896 0.0
H83 H 0.01801 0.45899 0.87835 0.0
H84 H 0.96037 0.48474 0.82735 0.0
C85 C 0.96753 0.50659 0.88341 0.0
C86 C 0.95678 0.50496 0.86093 0.0
C87 C 0.98958 0.49011 0.88987 0.0
C88 C 1.00103 0.47181 0.87351 0.0
C89 C 0.9904 0.4699 0.85093 0.0
C90 C 0.96796 0.48598 0.8448 0.0
N91 N 1.00225 0.45238 0.83404 0.0
C92 C 0.03698 0.4526 0.83685 0.0
H93 H 0.11737 0.61889 0.43691 0.0
H94 H 0.02204 0.51115 0.45016 0.0
H95 H 0.11482 0.58798 0.50212 0.0
C96 C 0.10264 0.59928 0.44855 0.0
C97 C 0.12018 0.60828 0.47048 0.0
C98 C 0.06742 0.5644 0.44106 0.0
C99 C 0.04917 0.5381 0.4559 0.0
C100 C 0.06614 0.5467 0.47805 0.0
C101 C 0.10176 0.58156 0.4851 0.0
N102 N 0.04866 0.521 0.49365 0.0
C103 C 0.01163 0.48779 0.49012 0.0
H104 H 0.57371 0.15656 0.76546 0.0
H105 H 0.56774 0.05194 0.78151 0.0
H106 H 0.5574 0.12948 0.83157 0.0
C107 C 0.57122 0.13786 0.77757 0.0
C108 C 0.56596 0.14773 0.79935 0.0
C109 C 0.57186 0.10343 0.77098 0.0
C110 C 0.56703 0.07837 0.78649 0.0
C111 C 0.56182 0.08775 0.80841 0.0
C112 C 0.56115 0.12228 0.81463 0.0
N113 N 0.55735 0.06341 0.82467 0.0
C114 C 0.55807 0.02877 0.82111 0.0
H115 H 0.61708 0.56516 0.10359 0.0
H116 H 0.50988 0.55863 0.11739 0.0
H117 H 0.57565 0.53759 0.1663 0.0
C118 C 0.596 0.56122 0.11497 0.0
C119 C 0.60103 0.55199 0.13591 0.0
C120 C 0.56331 0.56366 0.10808 0.0
C121 C 0.53506 0.55665 0.12253 0.0
C122 C 0.53945 0.54721 0.14359 0.0
C123 C 0.57233 0.54475 0.15006 0.0
N124 N 0.51148 0.53977 0.15866 0.0
C125 C 0.47872 0.54338 0.15537 0.0
C126 C 0.16488 0.53207 0.1582 0.0
C127 C 0.16666 0.55972 0.17527 0.0
C128 C 0.19789 0.52923 0.1548 0.0
C129 C 0.30557 0.58737 0.16628 0.0
H130 H 0.29997 0.48768 0.15269 0.0
C131 C 0.44329 0.57466 0.17032 0.0
C132 C 0.44422 0.54665 0.1549 0.0
C133 C 0.40918 0.57618 0.1713 0.0
C134 C 0.30204 0.51582 0.15615 0.0
H135 H 0.20451 0.6053 0.2025 0.0
H136 H 0.26148 0.60014 0.19671 0.0
H137 H 0.24066 0.48954 0.15745 0.0
H138 H 0.41084 0.49839 0.1283 0.0
H139 H 0.35111 0.50125 0.12966 0.0
H140 H 0.36678 0.61376 0.16501 0.0
C141 C 0.23486 0.58104 0.18568 0.0
C142 C 0.26796 0.51685 0.15892 0.0
C143 C 0.20198 0.58378 0.18911 0.0
C144 C 0.41073 0.52039 0.14026 0.0
C145 C 0.37649 0.52186 0.14121 0.0
C146 C 0.33955 0.58635 0.16346 0.0
C147 C 0.23349 0.5541 0.16832 0.0
C148 C 0.26934 0.55266 0.16431 0.0
C149 C 0.37515 0.54963 0.15688 0.0
C150 C 0.33842 0.55057 0.15861 0.0
H151 H 0.13822 0.51313 0.14718 0.0
H152 H 0.19578 0.50826 0.14121 0.0
H153 H 0.30771 0.61553 0.16994 0.0
H154 H 0.46875 0.59492 0.18194 0.0
H155 H 0.40926 0.59755 0.18382 0.0
C156 C 0.70281 0.17928 0.48954 0.0
C157 C 0.68213 0.18271 0.5067 0.0
C158 C 0.73939 0.2107 0.48709 0.0
C159 C 0.8213 0.30467 0.51775 0.0
H160 H 0.84592 0.33037 0.45922 0.0
C161 C 0.95044 0.4531 0.50619 0.0
C162 C 0.97374 0.45346 0.48983 0.0
C163 C 0.91521 0.41918 0.5074 0.0
C164 C 0.83971 0.32337 0.47567 0.0
H165 H 0.68417 0.2219 0.53488 0.0
H166 H 0.74727 0.27627 0.53057 0.0
H167 H 0.78469 0.27219 0.46322 0.0
H168 H 0.97885 0.41934 0.46169 0.0
H169 H 0.917 0.35965 0.46369 0.0
H170 H 0.87598 0.35587 0.53025 0.0
C171 C 0.73566 0.24929 0.51911 0.0
C172 C 0.80458 0.28992 0.47797 0.0
C173 C 0.69922 0.21804 0.52152 0.0
C174 C 0.96107 0.41966 0.47437 0.0
C175 C 0.92567 0.38561 0.47552 0.0
C176 C 0.85626 0.33804 0.51546 0.0
C177 C 0.75623 0.24623 0.50181 0.0
C178 C 0.79468 0.28037 0.49908 0.0
C179 C 0.90253 0.38477 0.49227 0.0
C180 C 0.86578 0.34817 0.49442 0.0
H181 H 0.6905 0.15254 0.47779 0.0
H182 H 0.75453 0.20711 0.47371 0.0
H183 H 0.81516 0.29788 0.53424 0.0
H184 H 0.95977 0.47891 0.5183 0.0
H185 H 0.89792 0.41991 0.52027 0.0
C186 C 0.54634 0.71965 0.83683 0.0
C187 C 0.52703 0.69063 0.81811 0.0
C188 C 0.55233 0.75732 0.83672 0.0
C189 C 0.51342 0.80986 0.80766 0.0
H190 H 0.60799 0.90283 0.83605 0.0
C191 C 0.54164 0.96466 0.80041 0.0
C192 C 0.55815 0.99245 0.81969 0.0
C193 C 0.53988 0.92865 0.79968 0.0
C194 C 0.58123 0.87715 0.8282 0.0
H195 H 0.50012 0.67906 0.78432 0.0
H196 H 0.51098 0.74441 0.78404 0.0
H197 H 0.60142 0.83878 0.83607 0.0
H198 H 0.58603 0.00522 0.8532 0.0
H199 H 0.58281 0.94235 0.85211 0.0
H200 H 0.49306 0.84801 0.79991 0.0
C201 C 0.52081 0.73802 0.799 0.0
C202 C 0.57746 0.84037 0.82824 0.0
C203 C 0.5148 0.7005 0.79912 0.0
C204 C 0.57336 0.98415 0.8381 0.0
C205 C 0.57166 0.94822 0.83741 0.0
C206 C 0.51718 0.84656 0.80762 0.0
C207 C 0.53915 0.76684 0.81788 0.0
C208 C 0.54349 0.8062 0.81794 0.0
C209 C 0.55458 0.91979 0.81825 0.0
C210 C 0.55112 0.88075 0.8179 0.0
H211 H 0.55608 0.71304 0.85175 0.0
H212 H 0.56633 0.77865 0.85162 0.0
H213 H 0.48652 0.78422 0.79994 0.0
H214 H 0.52974 0.9706 0.78602 0.0
H215 H 0.52701 0.90776 0.78455 0.0
C216 C 0.89456 0.52416 0.16756 0.0
C217 C 0.89335 0.49729 0.1502 0.0
C218 C 0.86406 0.53197 0.16842 0.0
C219 C 0.75976 0.48844 0.14726 0.0
H220 H 0.77854 0.59333 0.16333 0.0
C221 C 0.63245 0.5177 0.15245 0.0
C222 C 0.63588 0.54903 0.14237 0.0
C223 C 0.66458 0.51293 0.1563 0.0
C224 C 0.77277 0.56384 0.15877 0.0
H225 H 0.85944 0.45845 0.11981 0.0
H226 H 0.80695 0.47227 0.12122 0.0
H227 H 0.83338 0.5823 0.16364 0.0
H228 H 0.67646 0.60112 0.12962 0.0
H229 H 0.73211 0.59256 0.13603 0.0
H230 H 0.69939 0.47001 0.14175 0.0
C231 C 0.83099 0.48683 0.13442 0.0
C232 C 0.80423 0.55748 0.15916 0.0
C233 C 0.86136 0.47913 0.13353 0.0
C234 C 0.67262 0.57634 0.13714 0.0
C235 C 0.7047 0.57166 0.14104 0.0
C236 C 0.72837 0.49476 0.14695 0.0
C237 C 0.83159 0.51295 0.152 0.0
C238 C 0.79818 0.51975 0.15306 0.0
C239 C 0.70101 0.53949 0.15029 0.0
C240 C 0.73441 0.5326 0.15241 0.0
H241 H 0.9187 0.53862 0.1807 0.0
H242 H 0.86545 0.55216 0.18225 0.0
H243 H 0.75389 0.45889 0.1428 0.0
H244 H 0.6046 0.49604 0.15662 0.0
H245 H 0.66073 0.48809 0.16374 0.0
C246 C 0.44244 0.91225 0.50014 0.0
C247 C 0.46462 0.90907 0.48382 0.0
C248 C 0.40494 0.88114 0.50129 0.0
C249 C 0.34261 0.77388 0.48396 0.0
H250 H 0.2574 0.79098 0.49493 0.0
C251 C 0.18916 0.64484 0.48946 0.0
C252 C 0.15835 0.64501 0.47742 0.0
C253 C 0.22633 0.67831 0.49341 0.0
C254 C 0.28087 0.78567 0.49183 0.0
H255 H 0.46416 0.87088 0.4556 0.0
H256 H 0.39915 0.81726 0.45748 0.0
H257 H 0.32241 0.84687 0.49473 0.0
H258 H 0.142 0.68128 0.46131 0.0
H259 H 0.2066 0.73925 0.46793 0.0
H260 H 0.30107 0.71277 0.48036 0.0
C261 C 0.41083 0.8434 0.46966 0.0
C262 C 0.31825 0.81778 0.49192 0.0
C263 C 0.44811 0.87439 0.46848 0.0
C264 C 0.16519 0.67999 0.4704 0.0
C265 C 0.20223 0.71342 0.4744 0.0
C266 C 0.30534 0.74185 0.48394 0.0
C267 C 0.38886 0.84611 0.48621 0.0
C268 C 0.34949 0.81227 0.48762 0.0
C269 C 0.23354 0.71283 0.48553 0.0
C270 C 0.27382 0.74723 0.48756 0.0
H271 H 0.45428 0.93849 0.51225 0.0
H272 H 0.38892 0.88419 0.51432 0.0
H273 H 0.36606 0.7685 0.48094 0.0
H274 H 0.18495 0.61837 0.49502 0.0
H275 H 0.24962 0.67694 0.50231 0.0
C276 C 0.55073 0.45059 0.82369 0.0
C277 C 0.57055 0.47483 0.84399 0.0
C278 C 0.54595 0.4132 0.81919 0.0
C279 C 0.55187 0.33631 0.84586 0.0
H280 H 0.57036 0.30557 0.78757 0.0
C281 C 0.53783 0.18521 0.81895 0.0
C282 C 0.56531 0.1845 0.80578 0.0
C283 C 0.53606 0.21934 0.82383 0.0
C284 C 0.56533 0.31375 0.80399 0.0
H285 H 0.59973 0.47806 0.87573 0.0
H286 H 0.59167 0.41343 0.86785 0.0
H287 H 0.57046 0.36657 0.79566 0.0
H288 H 0.61353 0.21981 0.78824 0.0
H289 H 0.61062 0.27907 0.79682 0.0
H290 H 0.54797 0.28403 0.85437 0.0
C291 C 0.57945 0.42296 0.85544 0.0
C292 C 0.56484 0.34856 0.80854 0.0
C293 C 0.58427 0.46025 0.85991 0.0
C294 C 0.59148 0.21902 0.79806 0.0
C295 C 0.58974 0.25306 0.80294 0.0
C296 C 0.55234 0.30146 0.8413 0.0
C297 C 0.56076 0.39909 0.83489 0.0
C298 C 0.55852 0.36057 0.82961 0.0
C299 C 0.56176 0.25364 0.81569 0.0
C300 C 0.55953 0.28991 0.82037 0.0
H301 H 0.53979 0.46086 0.81105 0.0
H302 H 0.53092 0.39546 0.8033 0.0
H303 H 0.54646 0.34434 0.8622 0.0
H304 H 0.51697 0.15908 0.82498 0.0
H305 H 0.5139 0.21854 0.83355 0.0
C306 C 0.62303 0.91493 0.50144 0.0
C307 C 0.61044 0.92909 0.51927 0.0
C308 C 0.63248 0.88608 0.50348 0.0
C309 C 0.61296 0.80755 0.53613 0.0
H310 H 0.6974 0.80606 0.50863 0.0
C311 C 0.65078 0.68842 0.54562 0.0
C312 C 0.65599 0.67118 0.52594 0.0
C313 C 0.64961 0.72282 0.54618 0.0
C314 C 0.67363 0.80604 0.51631 0.0
H315 H 0.59925 0.92518 0.55347 0.0
H316 H 0.61632 0.87541 0.55712 0.0
H317 H 0.68731 0.86118 0.5071 0.0
H318 H 0.66493 0.67582 0.49162 0.0
H319 H 0.66285 0.73608 0.49247 0.0
H320 H 0.59901 0.75232 0.54515 0.0
C321 C 0.61813 0.88595 0.54142 0.0
C322 C 0.6678 0.83754 0.5154 0.0
C323 C 0.60853 0.91463 0.53935 0.0
C324 C 0.66111 0.68903 0.50699 0.0
C325 C 0.66007 0.72349 0.50753 0.0
C326 C 0.61887 0.77618 0.53709 0.0
C327 C 0.62968 0.87094 0.52342 0.0
C328 C 0.6372 0.83849 0.52516 0.0
C329 C 0.65367 0.74039 0.52704 0.0
C330 C 0.64906 0.77493 0.52706 0.0
H331 H 0.62472 0.92543 0.48573 0.0
H332 H 0.64085 0.87484 0.48921 0.0
H333 H 0.58868 0.80698 0.54346 0.0
H334 H 0.64685 0.675 0.56043 0.0
H335 H 0.6451 0.73543 0.56151 0.0
C336 C 0.70418 0.57119 0.80836 0.0
C337 C 0.69788 0.59523 0.824 0.0
C338 C 0.73842 0.57002 0.8107 0.0
C339 C 0.81489 0.58794 0.85434 0.0
H340 H 0.85877 0.56263 0.8046 0.0
C341 C 0.94081 0.55829 0.86644 0.0
C342 C 0.93361 0.52278 0.85447 0.0
C343 C 0.91735 0.57374 0.86142 0.0
C344 C 0.84682 0.56977 0.81862 0.0
H345 H 0.72358 0.63887 0.85357 0.0
H346 H 0.78396 0.63771 0.85734 0.0
H347 H 0.80909 0.58008 0.79802 0.0
H348 H 0.89671 0.4763 0.82741 0.0
H349 H 0.85618 0.50369 0.81844 0.0
H350 H 0.85241 0.57729 0.87488 0.0
C351 C 0.76194 0.61888 0.84359 0.0
C352 C 0.81831 0.57965 0.81488 0.0
C353 C 0.72746 0.61975 0.84136 0.0
C354 C 0.90335 0.50389 0.8368 0.0
C355 C 0.88011 0.51956 0.83166 0.0
C356 C 0.84367 0.5785 0.85807 0.0
C357 C 0.76738 0.59319 0.82863 0.0
C358 C 0.80132 0.58793 0.83266 0.0
C359 C 0.88648 0.55425 0.84418 0.0
C360 C 0.85927 0.56848 0.84022 0.0
H361 H 0.68194 0.55189 0.79479 0.0
H362 H 0.74125 0.54949 0.79902 0.0
H363 H 0.80208 0.59345 0.86842 0.0
H364 H 0.96444 0.57407 0.87982 0.0
H365 H 0.92314 0.60078 0.87116 0.0
C366 C 0.14373 0.70107 0.1782 0.0
C367 C 0.1154 0.68396 0.15957 0.0
C368 C 0.17298 0.74009 0.18059 0.0
C369 C 0.22795 0.81483 0.14704 0.0
H370 H 0.27629 0.87627 0.20509 0.0
C371 C 0.38032 0.95862 0.19518 0.0
C372 C 0.40629 0.95087 0.18427 0.0
C373 C 0.34023 0.93385 0.1897 0.0
C374 C 0.26292 0.86016 0.18864 0.0
H375 H 0.09442 0.69491 0.12933 0.0
H376 H 0.14584 0.76357 0.13355 0.0
H377 H 0.21186 0.81882 0.20115 0.0
H378 H 0.41091 0.91217 0.15857 0.0
H379 H 0.34124 0.8684 0.14939 0.0
H380 H 0.27929 0.85593 0.13456 0.0
C381 C 0.14545 0.74648 0.14619 0.0
C382 C 0.22609 0.82688 0.18644 0.0
C383 C 0.11597 0.70725 0.14382 0.0
C384 C 0.39152 0.919 0.16711 0.0
C385 C 0.3515 0.89403 0.16178 0.0
C386 C 0.26471 0.84836 0.14919 0.0
C387 C 0.17466 0.7631 0.16443 0.0
C388 C 0.20901 0.80284 0.16581 0.0
C389 C 0.32535 0.9006 0.17338 0.0
C390 C 0.28336 0.8704 0.17018 0.0
H391 H 0.14408 0.68403 0.1907 0.0
H392 H 0.19533 0.75167 0.19464 0.0
H393 H 0.21562 0.79698 0.13089 0.0
H394 H 0.39104 0.98341 0.20826 0.0
H395 H 0.32093 0.94017 0.19869 0.0
C396 C 0.52623 0.17488 0.50063 0.0
C397 C 0.5333 0.16155 0.48019 0.0
C398 C 0.52104 0.20698 0.503 0.0
C399 C 0.54808 0.29533 0.47835 0.0
H400 H 0.48841 0.31029 0.52227 0.0
C401 C 0.55782 0.44371 0.50424 0.0
C402 C 0.56753 0.45669 0.52724 0.0
C403 C 0.54553 0.40503 0.49554 0.0
C404 C 0.50499 0.30638 0.50985 0.0
H405 H 0.53793 0.16981 0.44581 0.0
H406 H 0.52802 0.22551 0.44983 0.0
H407 H 0.47925 0.24544 0.51139 0.0
H408 H 0.57166 0.43879 0.55905 0.0
H409 H 0.54919 0.37128 0.54388 0.0
H410 H 0.57421 0.35652 0.47715 0.0
C411 C 0.52743 0.21168 0.46417 0.0
C412 C 0.49991 0.26935 0.50367 0.0
C413 C 0.53292 0.17965 0.46184 0.0
C414 C 0.56368 0.42977 0.54132 0.0
C415 C 0.55087 0.39105 0.53265 0.0
C416 C 0.55279 0.33226 0.48434 0.0
C417 C 0.52244 0.22634 0.48493 0.0
C418 C 0.52242 0.26368 0.48844 0.0
C419 C 0.54213 0.37844 0.50968 0.0
C420 C 0.53224 0.33834 0.50068 0.0
H421 H 0.52633 0.1616 0.51511 0.0
H422 H 0.51787 0.21772 0.51932 0.0
H423 H 0.56625 0.29223 0.46677 0.0
H424 H 0.5598 0.46346 0.49293 0.0
H425 H 0.5388 0.39589 0.47777 0.0
C426 C 0.381 0.55918 0.86662 0.0
C427 C 0.39549 0.55049 0.84777 0.0
C428 C 0.34129 0.5451 0.86645 0.0
C429 C 0.24466 0.47097 0.83683 0.0
H430 H 0.21429 0.5433 0.86248 0.0
C431 C 0.08886 0.44481 0.82183 0.0
C432 C 0.07485 0.45689 0.83966 0.0
C433 C 0.12718 0.45274 0.82387 0.0
C434 C 0.22224 0.52252 0.85555 0.0
H435 H 0.37962 0.51969 0.81404 0.0
H436 H 0.31024 0.49552 0.81366 0.0
H437 H 0.28284 0.564 0.86389 0.0
H438 H 0.08853 0.48569 0.87363 0.0
H439 H 0.15545 0.49916 0.87744 0.0
H440 H 0.18385 0.42968 0.82821 0.0
C441 C 0.32957 0.51284 0.82866 0.0
C442 C 0.26155 0.5344 0.85635 0.0
C443 C 0.36935 0.52689 0.82884 0.0
C444 C 0.09894 0.47601 0.85973 0.0
C445 C 0.13722 0.48396 0.86181 0.0
C446 C 0.20524 0.45907 0.83601 0.0
C447 C 0.31516 0.52207 0.84741 0.0
C448 C 0.27324 0.50883 0.84694 0.0
C449 C 0.15198 0.47304 0.84378 0.0
C450 C 0.19363 0.48479 0.84532 0.0
H451 H 0.40033 0.57704 0.88153 0.0
H452 H 0.33103 0.55222 0.88128 0.0
H453 H 0.25274 0.45044 0.82968 0.0
H454 H 0.07056 0.43026 0.80614 0.0
H455 H 0.13779 0.44434 0.80961 0.0
C456 C 0.88111 0.36388 0.20222 0.0
C457 C 0.89922 0.37185 0.18286 0.0
C458 C 0.84971 0.32687 0.20322 0.0
C459 C 0.79765 0.22378 0.17585 0.0
H460 H 0.70908 0.22159 0.20005 0.0
C461 C 0.6425 0.08981 0.15846 0.0
C462 C 0.61894 0.08217 0.17549 0.0
C463 C 0.67948 0.12313 0.16142 0.0
C464 C 0.73376 0.22158 0.19361 0.0
H465 H 0.8994 0.34694 0.14959 0.0
H466 H 0.84419 0.28237 0.15124 0.0
H467 H 0.76888 0.28369 0.20137 0.0
H468 H 0.61478 0.10179 0.20905 0.0
H469 H 0.67982 0.16007 0.21449 0.0
H470 H 0.76205 0.16158 0.16768 0.0
C471 C 0.85456 0.30464 0.16573 0.0
C472 C 0.76806 0.25721 0.19434 0.0
C473 C 0.88604 0.3417 0.16474 0.0
C474 C 0.63282 0.10736 0.19575 0.0
C475 C 0.66981 0.14071 0.19876 0.0
C476 C 0.76328 0.18807 0.17512 0.0
C477 C 0.83569 0.29702 0.18487 0.0
C478 C 0.80025 0.25877 0.18527 0.0
C479 C 0.69328 0.14931 0.18148 0.0
C480 C 0.73083 0.18665 0.18377 0.0
H481 H 0.89077 0.3864 0.21654 0.0
H482 H 0.83616 0.32173 0.21831 0.0
H483 H 0.82215 0.22401 0.16899 0.0
H484 H 0.63192 0.07063 0.14265 0.0
H485 H 0.69658 0.12917 0.1477 0.0
C486 C 0.00762 0.46995 0.08857 0.0
C487 C 0.01721 0.50566 0.10135 0.0
C488 C 0.00796 0.46686 0.0656 0.0
C489 C 0.04734 0.52671 0.02121 0.0
H490 H 0.96269 0.43706 0.98289 0.0
C491 C 0.01264 0.52607 0.92871 0.0
C492 C 0.99968 0.49153 0.91376 0.0
C493 C 0.01884 0.52673 0.95144 0.0
C494 C 0.9869 0.46197 0.99336 0.0
H495 H 0.0345 0.56608 0.09995 0.0
H496 H 0.03461 0.56053 0.06001 0.0
H497 H 0.96492 0.43996 0.02298 0.0
H498 H 0.98415 0.43087 0.91085 0.0
H499 H 0.99534 0.43208 0.95068 0.0
H500 H 0.06889 0.54907 0.99159 0.0
C501 C 0.02742 0.53506 0.06774 0.0
C502 C 0.98815 0.46365 0.01634 0.0
C503 C 0.02704 0.53814 0.09065 0.0
C504 C 0.99431 0.45796 0.92197 0.0
C505 C 1.00034 0.45856 0.94477 0.0
C506 C 0.04607 0.52504 0.99825 0.0
C507 C 0.01799 0.49943 0.05494 0.0
C508 C 0.01806 0.49633 0.03053 0.0
C509 C 0.01214 0.49282 0.95977 0.0
C510 C 0.01551 0.49294 0.98407 0.0
H511 H 1.00001 0.44438 0.09629 0.0
H512 H 1.00086 0.43908 0.05624 0.0
H513 H 0.07121 0.55193 0.03168 0.0
H514 H 0.01742 0.55251 0.92284 0.0
H515 H 0.02759 0.5535 0.96254 0.0
C516 C 0.54014 0.04132 0.4214 0.0
C517 C 0.56471 0.0317 0.43292 0.0
C518 C 0.53869 0.04025 0.39849 0.0
C519 C 0.55676 0.99573 0.34833 0.0
H520 H 0.5503 0.07666 0.32214 0.0
C521 C 0.54613 0.04304 0.2566 0.0
C522 C 0.51612 0.00684 0.24532 0.0
C523 C 0.55728 0.04775 0.27932 0.0
C524 C 0.55259 0.05409 0.32918 0.0
H525 H 0.60688 0.01311 0.42929 0.0
H526 H 0.60413 0.01104 0.38913 0.0
H527 H 0.56016 0.08233 0.36236 0.0
H528 H 0.47555 0.9468 0.24871 0.0
H529 H 0.49467 0.95507 0.28823 0.0
H530 H 0.54879 0.96731 0.31514 0.0
C531 C 0.58597 0.01937 0.39792 0.0
C532 C 0.55779 0.05712 0.35222 0.0
C533 C 0.58761 0.02066 0.42092 0.0
C534 C 0.49839 0.9752 0.25702 0.0
C535 C 0.50968 0.97982 0.27962 0.0
C536 C 0.55137 0.99261 0.32528 0.0
C537 C 0.56162 0.02934 0.38648 0.0
C538 C 0.55928 0.02765 0.36205 0.0
C539 C 0.53892 0.01624 0.2911 0.0
C540 C 0.54859 0.02145 0.31546 0.0
H541 H 0.52199 0.04983 0.43007 0.0
H542 H 0.51912 0.04745 0.39012 0.0
H543 H 0.55761 0.97247 0.35539 0.0
H544 H 0.56027 0.06792 0.248 0.0
H545 H 0.58013 0.0761 0.2877 0.0
C546 C 0.58727 0.60667 0.7652 0.0
C547 C 0.55246 0.58288 0.77367 0.0
C548 C 0.58837 0.60537 0.74237 0.0
C549 C 0.537 0.54133 0.68936 0.0
H550 H 0.5988 0.63551 0.66426 0.0
C551 C 0.54347 0.53616 0.59547 0.0
C552 C 0.5808 0.55716 0.58902 0.0
C553 C 0.53734 0.54205 0.61747 0.0
C554 C 0.58157 0.60893 0.67104 0.0
H555 H 0.49133 0.5395 0.76476 0.0
H556 H 0.49325 0.53743 0.72489 0.0
H557 H 0.59314 0.64016 0.70385 0.0
H558 H 0.64072 0.60169 0.60048 0.0
H559 H 0.63006 0.61198 0.63884 0.0
H560 H 0.52596 0.51 0.65669 0.0
C561 C 0.5198 0.55675 0.73593 0.0
C562 C 0.57836 0.61159 0.69372 0.0
C563 C 0.51868 0.55805 0.75878 0.0
C564 C 0.61152 0.58538 0.60486 0.0
C565 C 0.6054 0.59125 0.62686 0.0
C566 C 0.54021 0.53867 0.66671 0.0
C567 C 0.5547 0.58026 0.72746 0.0
C568 C 0.55637 0.57777 0.70318 0.0
C569 C 0.56841 0.56906 0.63352 0.0
C570 C 0.56285 0.57239 0.65731 0.0
H571 H 0.61386 0.62605 0.7762 0.0
H572 H 0.61586 0.62343 0.73639 0.0
H573 H 0.52031 0.51466 0.69616 0.0
H574 H 0.51908 0.51466 0.58356 0.0
H575 H 0.50834 0.52502 0.62198 0.0
C576 C 0.60773 0.05129 0.57313 0.0
C577 C 0.58179 0.05795 0.56054 0.0
C578 C 0.60796 0.05294 0.5961 0.0
C579 C 0.547 0.04658 0.6406 0.0
H580 H 0.64481 0.10166 0.6792 0.0
C581 C 0.6046 0.12282 0.73695 0.0
C582 C 0.57685 0.09373 0.7477 0.0
C583 C 0.60708 0.11492 0.71449 0.0
C584 C 0.61726 0.08615 0.66863 0.0
H585 H 0.53593 0.07179 0.56231 0.0
H586 H 0.53656 0.07489 0.60227 0.0
H587 H 0.64495 0.09533 0.63906 0.0
H588 H 0.53078 0.03312 0.74347 0.0
H589 H 0.53527 0.01916 0.70416 0.0
H590 H 0.51929 0.03838 0.67011 0.0
C591 C 0.55638 0.06791 0.59437 0.0
C592 C 0.61734 0.08223 0.64564 0.0
C593 C 0.55623 0.06642 0.57146 0.0
C594 C 0.55254 0.0561 0.73566 0.0
C595 C 0.55488 0.04822 0.71312 0.0
C596 C 0.54692 0.05034 0.66357 0.0
C597 C 0.58215 0.06109 0.60697 0.0
C598 C 0.5822 0.06295 0.63137 0.0
C599 C 0.58178 0.07774 0.7022 0.0
C600 C 0.58204 0.07068 0.67786 0.0
H601 H 0.62772 0.04457 0.56524 0.0
H602 H 0.62798 0.04727 0.60532 0.0
H603 H 0.51943 0.03109 0.63006 0.0
H604 H 0.62404 0.15198 0.74585 0.0
H605 H 0.62791 0.1384 0.70657 0.0
C606 C 0.51791 0.56774 0.90872 0.0
C607 C 0.55314 0.59043 0.90029 0.0
C608 C 0.51697 0.56724 0.93147 0.0
C609 C 0.57143 0.62213 0.98616 0.0
H610 H 0.51244 0.52193 0.00595 0.0
C611 C 0.59081 0.59998 0.07652 0.0
C612 C 0.55855 0.57208 0.08541 0.0
C613 C 0.58774 0.60474 0.05438 0.0
C614 C 0.52848 0.55026 0.00076 0.0
H615 H 0.61497 0.63076 0.9093 0.0
H616 H 0.61327 0.6298 0.94907 0.0
H617 H 0.51221 0.52515 0.96647 0.0
H618 H 0.49725 0.52856 0.07821 0.0
H619 H 0.49157 0.53761 0.03966 0.0
H620 H 0.58784 0.64725 0.02045 0.0
C621 C 0.58634 0.61261 0.93802 0.0
C622 C 0.52846 0.55207 0.97809 0.0
C623 C 0.58734 0.61299 0.91522 0.0
C624 C 0.52263 0.55039 0.0719 0.0
C625 C 0.51952 0.55524 0.04973 0.0
C626 C 0.5713 0.62035 0.00885 0.0
C627 C 0.55117 0.58953 0.94638 0.0
C628 C 0.55021 0.58797 0.97052 0.0
C629 C 0.55225 0.58188 0.04056 0.0
C630 C 0.55014 0.58433 0.01645 0.0
H631 H 0.49095 0.55013 0.89775 0.0
H632 H 0.48934 0.54953 0.9374 0.0
H633 H 0.58801 0.6503 0.98084 0.0
H634 H 0.61879 0.61758 0.08657 0.0
H635 H 0.61365 0.62533 0.04791 0.0
C636 C 0.03643 0.56127 0.24166 0.0
C637 C 0.0299 0.52686 0.22869 0.0
C638 C 0.03597 0.56359 0.26457 0.0
C639 C 1.00341 0.50304 0.30946 0.0
H640 H 0.08127 0.59917 0.34649 0.0
C641 C 0.04131 0.51948 0.40458 0.0
C642 C 0.05153 0.55538 0.41733 0.0
C643 C 0.03326 0.5139 0.38149 0.0
C644 C 0.05893 0.5723 0.3364 0.0
H645 H 0.01754 0.46774 0.22968 0.0
H646 H 0.01754 0.47209 0.26971 0.0
H647 H 0.07906 0.59391 0.30646 0.0
H648 H 0.05809 0.61227 0.41622 0.0
H649 H 0.04369 0.60245 0.37605 0.0
H650 H 0.9839 0.48131 0.33964 0.0
C651 C 0.0224 0.4971 0.26212 0.0
C652 C 0.05767 0.56928 0.31341 0.0
C653 C 0.02274 0.49474 0.23918 0.0
C654 C 0.05092 0.58453 0.40674 0.0
C655 C 0.04285 0.57896 0.38375 0.0
C656 C 1.00478 0.50603 0.33254 0.0
C657 C 0.02913 0.53161 0.27512 0.0
C658 C 0.02992 0.53464 0.29962 0.0
C659 C 0.03525 0.54412 0.37079 0.0
C660 C 0.03254 0.54075 0.34626 0.0
H661 H 0.04175 0.58647 0.23412 0.0
H662 H 0.04066 0.59042 0.27401 0.0
H663 H 0.98133 0.47609 0.29932 0.0
H664 H 0.04179 0.4966 0.41231 0.0
H665 H 0.0276 0.48676 0.37196 0.0
loop_
_geom_bond_atom_site_label_1
_geom_bond_atom_site_label_2
_geom_bond_distance
_geom_bond_site_symmetry_2
_ccdc_geom_bond_type
Zn0 O6 1.969 . S
Zn0 O7 1.965 . S
Zn0 O11 2.024 . S
Zn0 O16 1.969 . S
Zn1 O8 1.969 . S
Zn1 O14 1.969 . S
Zn1 O15 1.965 1_655 S
Zn1 O17 2.024 . S
C2 O3 1.229 . S
C2 O11 1.058 . S
O3 C2 1.229 . S
C4 O5 1.229 . S
C4 O17 1.058 . S
O5 C4 1.229 . S
O6 Zn0 1.969 . S
O6 C9 1.267 . S
O7 Zn0 1.965 . S
O7 C18 1.260 . S
O8 Zn1 1.969 . S
O8 C18 1.258 1_655 S
C9 O6 1.267 . S
C9 O10 1.228 . S
O10 C9 1.228 . S
O11 Zn0 2.024 . S
O11 C2 1.058 . S
C12 O13 1.228 . S
C12 O14 1.267 . S
O13 C12 1.228 . S
O14 Zn1 1.969 . S
O14 C12 1.267 . S
O15 Zn1 1.965 1_455 S
O15 C19 1.260 . S
O16 Zn0 1.969 . S
O16 C19 1.258 . S
O17 Zn1 2.024 . S
O17 C4 1.058 . S
C18 O7 1.260 . S
C18 O8 1.258 1_455 S
C19 O15 1.260 . S
C19 O16 1.258 . S
Zn20 O26 1.969 . S
Zn20 O27 1.965 . S
Zn20 O31 2.024 . S
Zn20 O36 1.969 . S
Zn21 O28 1.969 . S
Zn21 O34 1.969 . S
Zn21 O35 1.965 1_565 S
Zn21 O37 2.024 . S
C22 O23 1.229 . S
C22 O31 1.058 . S
O23 C22 1.229 . S
C24 O25 1.229 . S
C24 O37 1.058 . S
O25 C24 1.229 . S
O26 Zn20 1.969 . S
O26 C29 1.267 . S
O27 Zn20 1.965 . S
O27 C38 1.260 . S
O28 Zn21 1.969 . S
O28 C38 1.258 1_565 S
C29 O26 1.267 . S
C29 O30 1.228 . S
O30 C29 1.228 . S
O31 Zn20 2.024 . S
O31 C22 1.058 . S
C32 O33 1.228 . S
C32 O34 1.267 . S
O33 C32 1.228 . S
O34 Zn21 1.969 . S
O34 C32 1.267 . S
O35 Zn21 1.965 1_545 S
O35 C39 1.260 . S
O36 Zn20 1.969 . S
O36 C39 1.258 . S
O37 Zn21 2.024 . S
O37 C24 1.058 . S
C38 O27 1.260 . S
C38 O28 1.258 1_545 S
C39 O35 1.260 . S
C39 O36 1.258 . S
Zn40 O46 1.969 . S
Zn40 O47 1.965 . S
Zn40 O51 2.024 . S
Zn40 O56 1.969 . S
Zn41 O48 1.969 . S
Zn41 O54 1.969 . S
Zn41 O55 1.965 . S
Zn41 O57 2.024 . S
C42 O43 1.229 . S
C42 O51 1.058 . S
O43 C42 1.229 . S
C44 O45 1.229 . S
C44 O57 1.058 . S
O45 C44 1.229 . S
O46 Zn40 1.969 . S
O46 C49 1.267 . S
O47 Zn40 1.965 . S
O47 C58 1.260 . S
O48 Zn41 1.969 . S
O48 C58 1.258 . S
C49 O46 1.267 . S
C49 O50 1.228 . S
O50 C49 1.228 . S
O51 Zn40 2.024 . S
O51 C42 1.058 . S
C52 O53 1.228 . S
C52 O54 1.267 . S
O53 C52 1.228 . S
O54 Zn41 1.969 . S
O54 C52 1.267 . S
O55 Zn41 1.965 . S
O55 C59 1.260 . S
O56 Zn40 1.969 . S
O56 C59 1.258 . S
O57 Zn41 2.024 . S
O57 C44 1.058 . S
C58 O47 1.260 . S
C58 O48 1.258 . S
C59 O55 1.260 . S
C59 O56 1.258 . S
H60 C63 0.929 . S
H61 C66 0.929 . S
H62 C68 0.930 . S
C63 H60 0.929 . S
C63 C64 1.398 . S
C63 C65 1.396 . S
C64 C63 1.398 . S
C64 C68 1.407 . S
C65 C63 1.396 . S
C65 C66 1.394 . S
C66 H61 0.929 . S
C66 C65 1.394 . S
C66 C67 1.382 . S
C67 C66 1.382 . S
C67 C68 1.392 . S
C67 N69 1.420 . S
C68 H62 0.930 . S
C68 C64 1.407 . S
C68 C67 1.392 . S
N69 C67 1.420 . S
N69 C70 1.244 . S
C70 N69 1.244 . S
H71 C74 0.929 . S
H72 C77 0.929 . S
H73 C79 0.930 . S
C74 H71 0.929 . S
C74 C75 1.398 . S
C74 C76 1.396 . S
C75 C74 1.398 . S
C75 C79 1.407 . S
C76 C74 1.396 . S
C76 C77 1.394 . S
C77 H72 0.929 . S
C77 C76 1.394 . S
C77 C78 1.382 . S
C78 C77 1.382 . S
C78 C79 1.392 . S
C78 N80 1.420 . S
C79 H73 0.930 . S
C79 C75 1.407 . S
C79 C78 1.392 . S
N80 C78 1.420 . S
N80 C81 1.244 . S
C81 N80 1.244 . S
H82 C85 0.929 . S
H83 C88 0.929 . S
H84 C90 0.930 . S
C85 H82 0.929 . S
C85 C86 1.398 . S
C85 C87 1.396 . S
C86 C85 1.398 . S
C86 C90 1.407 . S
C87 C85 1.396 . S
C87 C88 1.394 . S
C88 H83 0.929 . S
C88 C87 1.394 . S
C88 C89 1.382 . S
C89 C88 1.382 . S
C89 C90 1.392 . S
C89 N91 1.420 . S
C90 H84 0.930 . S
C90 C86 1.407 . S
C90 C89 1.392 . S
N91 C89 1.420 . S
N91 C92 1.244 . S
C92 N91 1.244 . S
H93 C96 0.929 . S
H94 C99 0.929 1_655 S
H95 C101 0.930 . S
C96 H93 0.929 . S
C96 C97 1.398 . S
C96 C98 1.396 . S
C97 C96 1.398 . S
C97 C101 1.407 . S
C98 C96 1.396 . S
C98 C99 1.394 . S
C99 H94 0.929 1_455 S
C99 C98 1.394 . S
C99 C100 1.382 . S
C100 C99 1.382 . S
C100 C101 1.392 . S
C100 N102 1.417 1_455 S
C101 H95 0.930 . S
C101 C97 1.407 . S
C101 C100 1.392 . S
N102 C100 1.417 1_655 S
N102 C103 1.256 . S
C103 N102 1.256 . S
H104 C107 0.929 . S
H105 C110 0.927 1_565 S
H106 C112 0.930 . S
C107 H104 0.929 . S
C107 C108 1.398 . S
C107 C109 1.396 . S
C108 C107 1.398 . S
C108 C112 1.407 . S
C109 C107 1.396 . S
C109 C110 1.394 . S
C110 H105 0.927 1_545 S
C110 C109 1.394 . S
C110 C111 1.382 . S
C111 C110 1.382 . S
C111 C112 1.392 . S
C111 N113 1.420 . S
C112 H106 0.930 . S
C112 C108 1.407 . S
C112 C111 1.392 . S
N113 C111 1.420 . S
N113 C114 1.244 1_545 S
C114 N113 1.244 1_565 S
H115 C118 0.929 . S
H116 C121 0.929 . S
H117 C123 0.930 . S
C118 H115 0.929 . S
C118 C119 1.398 . S
C118 C120 1.396 . S
C119 C118 1.398 . S
C119 C123 1.407 . S
C120 C118 1.396 . S
C120 C121 1.394 . S
C121 H116 0.929 . S
C121 C120 1.394 . S
C121 C122 1.382 . S
C122 C121 1.382 . S
C122 C123 1.392 . S
C122 N124 1.420 . S
C123 H117 0.930 . S
C123 C119 1.407 . S
C123 C122 1.392 . S
N124 C122 1.420 . S
N124 C125 1.244 . S
C125 N124 1.244 . S
C126 C127 1.349 . S
C126 C128 1.327 . S
C126 H151 0.950 . S
C127 C126 1.349 . S
C127 C143 1.349 . S
C128 C126 1.327 . S
C128 C147 1.429 . S
C128 H152 0.950 . S
C129 C146 1.574 . S
C129 C148 1.368 . S
C129 H153 0.949 . S
H130 C134 0.949 . S
C131 C132 1.349 . S
C131 C133 1.327 . S
C131 H154 0.950 . S
C132 C131 1.349 . S
C132 C144 1.349 . S
C133 C131 1.327 . S
C133 C149 1.429 . S
C133 H155 0.950 . S
C134 H130 0.949 . S
C134 C142 1.574 . S
C134 C150 1.368 . S
H135 C143 0.950 . S
H136 C141 0.950 . S
H137 C142 0.949 . S
H138 C144 0.950 . S
H139 C145 0.950 . S
H140 C146 0.949 . S
C141 H136 0.950 . S
C141 C143 1.327 . S
C141 C147 1.429 . S
C142 C134 1.574 . S
C142 H137 0.949 . S
C142 C148 1.368 . S
C143 C127 1.349 . S
C143 H135 0.950 . S
C143 C141 1.327 . S
C144 C132 1.349 . S
C144 H138 0.950 . S
C144 C145 1.327 . S
C145 H139 0.950 . S
C145 C144 1.327 . S
C145 C149 1.429 . S
C146 C129 1.574 . S
C146 H140 0.949 . S
C146 C150 1.368 . S
C147 C128 1.429 . S
C147 C141 1.429 . S
C147 C148 1.523 . S
C148 C129 1.368 . S
C148 C142 1.368 . S
C148 C147 1.523 . S
C149 C133 1.429 . S
C149 C145 1.429 . S
C149 C150 1.523 . S
C150 C134 1.368 . S
C150 C146 1.368 . S
C150 C149 1.523 . S
H151 C126 0.950 . S
H152 C128 0.950 . S
H153 C129 0.949 . S
H154 C131 0.950 . S
H155 C133 0.950 . S
C156 C157 1.349 . S
C156 C158 1.327 . S
C156 H181 0.950 . S
C157 C156 1.349 . S
C157 C173 1.349 . S
C158 C156 1.327 . S
C158 C177 1.429 . S
C158 H182 0.950 . S
C159 C176 1.574 . S
C159 C178 1.368 . S
C159 H183 0.949 . S
H160 C164 0.949 . S
C161 C162 1.349 . S
C161 C163 1.327 . S
C161 H184 0.950 . S
C162 C161 1.349 . S
C162 C174 1.349 . S
C163 C161 1.327 . S
C163 C179 1.429 . S
C163 H185 0.950 . S
C164 H160 0.949 . S
C164 C172 1.574 . S
C164 C180 1.368 . S
H165 C173 0.950 . S
H166 C171 0.950 . S
H167 C172 0.949 . S
H168 C174 0.950 . S
H169 C175 0.950 . S
H170 C176 0.949 . S
C171 H166 0.950 . S
C171 C173 1.327 . S
C171 C177 1.429 . S
C172 C164 1.574 . S
C172 H167 0.949 . S
C172 C178 1.368 . S
C173 C157 1.349 . S
C173 H165 0.950 . S
C173 C171 1.327 . S
C174 C162 1.349 . S
C174 H168 0.950 . S
C174 C175 1.327 . S
C175 H169 0.950 . S
C175 C174 1.327 . S
C175 C179 1.429 . S
C176 C159 1.574 . S
C176 H170 0.949 . S
C176 C180 1.368 . S
C177 C158 1.429 . S
C177 C171 1.429 . S
C177 C178 1.523 . S
C178 C159 1.368 . S
C178 C172 1.368 . S
C178 C177 1.523 . S
C179 C163 1.429 . S
C179 C175 1.429 . S
C179 C180 1.523 . S
C180 C164 1.368 . S
C180 C176 1.368 . S
C180 C179 1.523 . S
H181 C156 0.950 . S
H182 C158 0.950 . S
H183 C159 0.949 . S
H184 C161 0.950 . S
H185 C163 0.950 . S
C186 C187 1.349 . S
C186 C188 1.327 . S
C186 H211 0.950 . S
C187 C186 1.349 . S
C187 C203 1.349 . S
C188 C186 1.327 . S
C188 C207 1.429 . S
C188 H212 0.950 . S
C189 C206 1.574 . S
C189 C208 1.368 . S
C189 H213 0.949 . S
H190 C194 0.949 . S
C191 C192 1.349 . S
C191 C193 1.327 . S
C191 H214 0.950 . S
C192 C191 1.349 . S
C192 C204 1.349 . S
C193 C191 1.327 . S
C193 C209 1.429 . S
C193 H215 0.950 . S
C194 H190 0.949 . S
C194 C202 1.574 . S
C194 C210 1.368 . S
H195 C203 0.950 . S
H196 C201 0.950 . S
H197 C202 0.949 . S
H198 C204 0.950 . S
H199 C205 0.950 . S
H200 C206 0.949 . S
C201 H196 0.950 . S
C201 C203 1.327 . S
C201 C207 1.429 . S
C202 C194 1.574 . S
C202 H197 0.949 . S
C202 C208 1.368 . S
C203 C187 1.349 . S
C203 H195 0.950 . S
C203 C201 1.327 . S
C204 C192 1.349 . S
C204 H198 0.950 . S
C204 C205 1.327 . S
C205 H199 0.950 . S
C205 C204 1.327 . S
C205 C209 1.429 . S
C206 C189 1.574 . S
C206 H200 0.949 . S
C206 C210 1.368 . S
C207 C188 1.429 . S
C207 C201 1.429 . S
C207 C208 1.523 . S
C208 C189 1.368 . S
C208 C202 1.368 . S
C208 C207 1.523 . S
C209 C193 1.429 . S
C209 C205 1.429 . S
C209 C210 1.523 . S
C210 C194 1.368 . S
C210 C206 1.368 . S
C210 C209 1.523 . S
H211 C186 0.950 . S
H212 C188 0.950 . S
H213 C189 0.949 . S
H214 C191 0.950 . S
H215 C193 0.950 . S
C216 C217 1.349 . S
C216 C218 1.327 . S
C216 H241 0.950 . S
C217 C216 1.349 . S
C217 C233 1.349 . S
C218 C216 1.327 . S
C218 C237 1.429 . S
C218 H242 0.950 . S
C219 C236 1.574 . S
C219 C238 1.368 . S
C219 H243 0.949 . S
H220 C224 0.949 . S
C221 C222 1.349 . S
C221 C223 1.327 . S
C221 H244 0.950 . S
C222 C221 1.349 . S
C222 C234 1.349 . S
C223 C221 1.327 . S
C223 C239 1.429 . S
C223 H245 0.950 . S
C224 H220 0.949 . S
C224 C232 1.574 . S
C224 C240 1.368 . S
H225 C233 0.950 . S
H226 C231 0.950 . S
H227 C232 0.949 . S
H228 C234 0.950 . S
H229 C235 0.950 . S
H230 C236 0.949 . S
C231 H226 0.950 . S
C231 C233 1.327 . S
C231 C237 1.429 . S
C232 C224 1.574 . S
C232 H227 0.949 . S
C232 C238 1.368 . S
C233 C217 1.349 . S
C233 H225 0.950 . S
C233 C231 1.327 . S
C234 C222 1.349 . S
C234 H228 0.950 . S
C234 C235 1.327 . S
C235 H229 0.950 . S
C235 C234 1.327 . S
C235 C239 1.429 . S
C236 C219 1.574 . S
C236 H230 0.949 . S
C236 C240 1.368 . S
C237 C218 1.429 . S
C237 C231 1.429 . S
C237 C238 1.523 . S
C238 C219 1.368 . S
C238 C232 1.368 . S
C238 C237 1.523 . S
C239 C223 1.429 . S
C239 C235 1.429 . S
C239 C240 1.523 . S
C240 C224 1.368 . S
C240 C236 1.368 . S
C240 C239 1.523 . S
H241 C216 0.950 . S
H242 C218 0.950 . S
H243 C219 0.949 . S
H244 C221 0.950 . S
H245 C223 0.950 . S
C246 C247 1.349 . S
C246 C248 1.327 . S
C246 H271 0.950 . S
C247 C246 1.349 . S
C247 C263 1.349 . S
C248 C246 1.327 . S
C248 C267 1.429 . S
C248 H272 0.950 . S
C249 C266 1.574 . S
C249 C268 1.368 . S
C249 H273 0.949 . S
H250 C254 0.949 . S
C251 C252 1.349 . S
C251 C253 1.327 . S
C251 H274 0.950 . S
C252 C251 1.349 . S
C252 C264 1.349 . S
C253 C251 1.327 . S
C253 C269 1.429 . S
C253 H275 0.950 . S
C254 H250 0.949 . S
C254 C262 1.574 . S
C254 C270 1.368 . S
H255 C263 0.950 . S
H256 C261 0.950 . S
H257 C262 0.949 . S
H258 C264 0.950 . S
H259 C265 0.950 . S
H260 C266 0.949 . S
C261 H256 0.950 . S
C261 C263 1.327 . S
C261 C267 1.429 . S
C262 C254 1.574 . S
C262 H257 0.949 . S
C262 C268 1.368 . S
C263 C247 1.349 . S
C263 H255 0.950 . S
C263 C261 1.327 . S
C264 C252 1.349 . S
C264 H258 0.950 . S
C264 C265 1.327 . S
C265 H259 0.950 . S
C265 C264 1.327 . S
C265 C269 1.429 . S
C266 C249 1.574 . S
C266 H260 0.949 . S
C266 C270 1.368 . S
C267 C248 1.429 . S
C267 C261 1.429 . S
C267 C268 1.523 . S
C268 C249 1.368 . S
C268 C262 1.368 . S
C268 C267 1.523 . S
C269 C253 1.429 . S
C269 C265 1.429 . S
C269 C270 1.523 . S
C270 C254 1.368 . S
C270 C266 1.368 . S
C270 C269 1.523 . S
H271 C246 0.950 . S
H272 C248 0.950 . S
H273 C249 0.949 . S
H274 C251 0.950 . S
H275 C253 0.950 . S
C276 C277 1.349 . S
C276 C278 1.327 . S
C276 H301 0.950 . S
C277 C276 1.349 . S
C277 C293 1.349 . S
C278 C276 1.327 . S
C278 C297 1.429 . S
C278 H302 0.950 . S
C279 C296 1.574 . S
C279 C298 1.368 . S
C279 H303 0.949 . S
H280 C284 0.949 . S
C281 C282 1.349 . S
C281 C283 1.327 . S
C281 H304 0.950 . S
C282 C281 1.349 . S
C282 C294 1.349 . S
C283 C281 1.327 . S
C283 C299 1.429 . S
C283 H305 0.950 . S
C284 H280 0.949 . S
C284 C292 1.574 . S
C284 C300 1.368 . S
H285 C293 0.950 . S
H286 C291 0.950 . S
H287 C292 0.949 . S
H288 C294 0.950 . S
H289 C295 0.950 . S
H290 C296 0.949 . S
C291 H286 0.950 . S
C291 C293 1.327 . S
C291 C297 1.429 . S
C292 C284 1.574 . S
C292 H287 0.949 . S
C292 C298 1.368 . S
C293 C277 1.349 . S
C293 H285 0.950 . S
C293 C291 1.327 . S
C294 C282 1.349 . S
C294 H288 0.950 . S
C294 C295 1.327 . S
C295 H289 0.950 . S
C295 C294 1.327 . S
C295 C299 1.429 . S
C296 C279 1.574 . S
C296 H290 0.949 . S
C296 C300 1.368 . S
C297 C278 1.429 . S
C297 C291 1.429 . S
C297 C298 1.523 . S
C298 C279 1.368 . S
C298 C292 1.368 . S
C298 C297 1.523 . S
C299 C283 1.429 . S
C299 C295 1.429 . S
C299 C300 1.523 . S
C300 C284 1.368 . S
C300 C296 1.368 . S
C300 C299 1.523 . S
H301 C276 0.950 . S
H302 C278 0.950 . S
H303 C279 0.949 . S
H304 C281 0.950 . S
H305 C283 0.950 . S
C306 C307 1.349 . S
C306 C308 1.327 . S
C306 H331 0.950 . S
C307 C306 1.349 . S
C307 C323 1.349 . S
C308 C306 1.327 . S
C308 C327 1.429 . S
C308 H332 0.950 . S
C309 C326 1.574 . S
C309 C328 1.368 . S
C309 H333 0.949 . S
H310 C314 0.949 . S
C311 C312 1.349 . S
C311 C313 1.327 . S
C311 H334 0.950 . S
C312 C311 1.349 . S
C312 C324 1.349 . S
C313 C311 1.327 . S
C313 C329 1.429 . S
C313 H335 0.950 . S
C314 H310 0.949 . S
C314 C322 1.574 . S
C314 C330 1.368 . S
H315 C323 0.950 . S
H316 C321 0.950 . S
H317 C322 0.949 . S
H318 C324 0.950 . S
H319 C325 0.950 . S
H320 C326 0.949 . S
C321 H316 0.950 . S
C321 C323 1.327 . S
C321 C327 1.429 . S
C322 C314 1.574 . S
C322 H317 0.949 . S
C322 C328 1.368 . S
C323 C307 1.349 . S
C323 H315 0.950 . S
C323 C321 1.327 . S
C324 C312 1.349 . S
C324 H318 0.950 . S
C324 C325 1.327 . S
C325 H319 0.950 . S
C325 C324 1.327 . S
C325 C329 1.429 . S
C326 C309 1.574 . S
C326 H320 0.949 . S
C326 C330 1.368 . S
C327 C308 1.429 . S
C327 C321 1.429 . S
C327 C328 1.523 . S
C328 C309 1.368 . S
C328 C322 1.368 . S
C328 C327 1.523 . S
C329 C313 1.429 . S
C329 C325 1.429 . S
C329 C330 1.523 . S
C330 C314 1.368 . S
C330 C326 1.368 . S
C330 C329 1.523 . S
H331 C306 0.950 . S
H332 C308 0.950 . S
H333 C309 0.949 . S
H334 C311 0.950 . S
H335 C313 0.950 . S
C336 C337 1.349 . S
C336 C338 1.327 . S
C336 H361 0.950 . S
C337 C336 1.349 . S
C337 C353 1.349 . S
C338 C336 1.327 . S
C338 C357 1.429 . S
C338 H362 0.950 . S
C339 C356 1.574 . S
C339 C358 1.368 . S
C339 H363 0.949 . S
H340 C344 0.949 . S
C341 C342 1.349 . S
C341 C343 1.327 . S
C341 H364 0.950 1_655 S
C342 C341 1.349 . S
C342 C354 1.349 . S
C343 C341 1.327 . S
C343 C359 1.429 . S
C343 H365 0.950 . S
C344 H340 0.949 . S
C344 C352 1.574 . S
C344 C360 1.368 . S
H345 C353 0.950 . S
H346 C351 0.950 . S
H347 C352 0.949 . S
H348 C354 0.950 . S
H349 C355 0.950 . S
H350 C356 0.949 . S
C351 H346 0.950 . S
C351 C353 1.327 . S
C351 C357 1.429 . S
C352 C344 1.574 . S
C352 H347 0.949 . S
C352 C358 1.368 . S
C353 C337 1.349 . S
C353 H345 0.950 . S
C353 C351 1.327 . S
C354 C342 1.349 . S
C354 H348 0.950 . S
C354 C355 1.327 . S
C355 H349 0.950 . S
C355 C354 1.327 . S
C355 C359 1.429 . S
C356 C339 1.574 . S
C356 H350 0.949 . S
C356 C360 1.368 . S
C357 C338 1.429 . S
C357 C351 1.429 . S
C357 C358 1.523 . S
C358 C339 1.368 . S
C358 C352 1.368 . S
C358 C357 1.523 . S
C359 C343 1.429 . S
C359 C355 1.429 . S
C359 C360 1.523 . S
C360 C344 1.368 . S
C360 C356 1.368 . S
C360 C359 1.523 . S
H361 C336 0.950 . S
H362 C338 0.950 . S
H363 C339 0.949 . S
H364 C341 0.950 1_455 S
H365 C343 0.950 . S
C366 C367 1.349 . S
C366 C368 1.327 . S
C366 H391 0.950 . S
C367 C366 1.349 . S
C367 C383 1.349 . S
C368 C366 1.327 . S
C368 C387 1.429 . S
C368 H392 0.950 . S
C369 C386 1.574 . S
C369 C388 1.368 . S
C369 H393 0.949 . S
H370 C374 0.949 . S
C371 C372 1.349 . S
C371 C373 1.327 . S
C371 H394 0.950 . S
C372 C371 1.349 . S
C372 C384 1.349 . S
C373 C371 1.327 . S
C373 C389 1.429 . S
C373 H395 0.950 . S
C374 H370 0.949 . S
C374 C382 1.574 . S
C374 C390 1.368 . S
H375 C383 0.950 . S
H376 C381 0.950 . S
H377 C382 0.949 . S
H378 C384 0.950 . S
H379 C385 0.950 . S
H380 C386 0.949 . S
C381 H376 0.950 . S
C381 C383 1.327 . S
C381 C387 1.429 . S
C382 C374 1.574 . S
C382 H377 0.949 . S
C382 C388 1.368 . S
C383 C367 1.349 . S
C383 H375 0.950 . S
C383 C381 1.327 . S
C384 C372 1.349 . S
C384 H378 0.950 . S
C384 C385 1.327 . S
C385 H379 0.950 . S
C385 C384 1.327 . S
C385 C389 1.429 . S
C386 C369 1.574 . S
C386 H380 0.949 . S
C386 C390 1.368 . S
C387 C368 1.429 . S
C387 C381 1.429 . S
C387 C388 1.523 . S
C388 C369 1.368 . S
C388 C382 1.368 . S
C388 C387 1.523 . S
C389 C373 1.429 . S
C389 C385 1.429 . S
C389 C390 1.523 . S
C390 C374 1.368 . S
C390 C386 1.368 . S
C390 C389 1.523 . S
H391 C366 0.950 . S
H392 C368 0.950 . S
H393 C369 0.949 . S
H394 C371 0.950 . S
H395 C373 0.950 . S
C396 C397 1.349 . S
C396 C398 1.327 . S
C396 H421 0.950 . S
C397 C396 1.349 . S
C397 C413 1.349 . S
C398 C396 1.327 . S
C398 C417 1.429 . S
C398 H422 0.950 . S
C399 C416 1.574 . S
C399 C418 1.368 . S
C399 H423 0.949 . S
H400 C404 0.949 . S
C401 C402 1.349 . S
C401 C403 1.327 . S
C401 H424 0.950 . S
C402 C401 1.349 . S
C402 C414 1.349 . S
C403 C401 1.327 . S
C403 C419 1.429 . S
C403 H425 0.950 . S
C404 H400 0.949 . S
C404 C412 1.574 . S
C404 C420 1.368 . S
H405 C413 0.950 . S
H406 C411 0.950 . S
H407 C412 0.949 . S
H408 C414 0.950 . S
H409 C415 0.950 . S
H410 C416 0.949 . S
C411 H406 0.950 . S
C411 C413 1.327 . S
C411 C417 1.429 . S
C412 C404 1.574 . S
C412 H407 0.949 . S
C412 C418 1.368 . S
C413 C397 1.349 . S
C413 H405 0.950 . S
C413 C411 1.327 . S
C414 C402 1.349 . S
C414 H408 0.950 . S
C414 C415 1.327 . S
C415 H409 0.950 . S
C415 C414 1.327 . S
C415 C419 1.429 . S
C416 C399 1.574 . S
C416 H410 0.949 . S
C416 C420 1.368 . S
C417 C398 1.429 . S
C417 C411 1.429 . S
C417 C418 1.523 . S
C418 C399 1.368 . S
C418 C412 1.368 . S
C418 C417 1.523 . S
C419 C403 1.429 . S
C419 C415 1.429 . S
C419 C420 1.523 . S
C420 C404 1.368 . S
C420 C416 1.368 . S
C420 C419 1.523 . S
H421 C396 0.950 . S
H422 C398 0.950 . S
H423 C399 0.949 . S
H424 C401 0.950 . S
H425 C403 0.950 . S
C426 C427 1.349 . S
C426 C428 1.327 . S
C426 H451 0.950 . S
C427 C426 1.349 . S
C427 C443 1.349 . S
C428 C426 1.327 . S
C428 C447 1.429 . S
C428 H452 0.950 . S
C429 C446 1.574 . S
C429 C448 1.368 . S
C429 H453 0.949 . S
H430 C434 0.949 . S
C431 C432 1.349 . S
C431 C433 1.327 . S
C431 H454 0.950 . S
C432 C431 1.349 . S
C432 C444 1.349 . S
C433 C431 1.327 . S
C433 C449 1.429 . S
C433 H455 0.950 . S
C434 H430 0.949 . S
C434 C442 1.574 . S
C434 C450 1.368 . S
H435 C443 0.950 . S
H436 C441 0.950 . S
H437 C442 0.949 . S
H438 C444 0.950 . S
H439 C445 0.950 . S
H440 C446 0.949 . S
C441 H436 0.950 . S
C441 C443 1.327 . S
C441 C447 1.429 . S
C442 C434 1.574 . S
C442 H437 0.949 . S
C442 C448 1.368 . S
C443 C427 1.349 . S
C443 H435 0.950 . S
C443 C441 1.327 . S
C444 C432 1.349 . S
C444 H438 0.950 . S
C444 C445 1.327 . S
C445 H439 0.950 . S
C445 C444 1.327 . S
C445 C449 1.429 . S
C446 C429 1.574 . S
C446 H440 0.949 . S
C446 C450 1.368 . S
C447 C428 1.429 . S
C447 C441 1.429 . S
C447 C448 1.523 . S
C448 C429 1.368 . S
C448 C442 1.368 . S
C448 C447 1.523 . S
C449 C433 1.429 . S
C449 C445 1.429 . S
C449 C450 1.523 . S
C450 C434 1.368 . S
C450 C446 1.368 . S
C450 C449 1.523 . S
H451 C426 0.950 . S
H452 C428 0.950 . S
H453 C429 0.949 . S
H454 C431 0.950 . S
H455 C433 0.950 . S
C456 C457 1.349 . S
C456 C458 1.327 . S
C456 H481 0.950 . S
C457 C456 1.349 . S
C457 C473 1.349 . S
C458 C456 1.327 . S
C458 C477 1.429 . S
C458 H482 0.950 . S
C459 C476 1.574 . S
C459 C478 1.368 . S
C459 H483 0.949 . S
H460 C464 0.949 . S
C461 C462 1.349 . S
C461 C463 1.327 . S
C461 H484 0.950 . S
C462 C461 1.349 . S
C462 C474 1.349 . S
C463 C461 1.327 . S
C463 C479 1.429 . S
C463 H485 0.950 . S
C464 H460 0.949 . S
C464 C472 1.574 . S
C464 C480 1.368 . S
H465 C473 0.950 . S
H466 C471 0.950 . S
H467 C472 0.949 . S
H468 C474 0.950 . S
H469 C475 0.950 . S
H470 C476 0.949 . S
C471 H466 0.950 . S
C471 C473 1.327 . S
C471 C477 1.429 . S
C472 C464 1.574 . S
C472 H467 0.949 . S
C472 C478 1.368 . S
C473 C457 1.349 . S
C473 H465 0.950 . S
C473 C471 1.327 . S
C474 C462 1.349 . S
C474 H468 0.950 . S
C474 C475 1.327 . S
C475 H469 0.950 . S
C475 C474 1.327 . S
C475 C479 1.429 . S
C476 C459 1.574 . S
C476 H470 0.949 . S
C476 C480 1.368 . S
C477 C458 1.429 . S
C477 C471 1.429 . S
C477 C478 1.523 . S
C478 C459 1.368 . S
C478 C472 1.368 . S
C478 C477 1.523 . S
C479 C463 1.429 . S
C479 C475 1.429 . S
C479 C480 1.523 . S
C480 C464 1.368 . S
C480 C476 1.368 . S
C480 C479 1.523 . S
H481 C456 0.950 . S
H482 C458 0.950 . S
H483 C459 0.949 . S
H484 C461 0.950 . S
H485 C463 0.950 . S
C486 C487 1.349 1_655 S
C486 C488 1.327 . S
C486 H511 0.950 . S
C487 C486 1.349 1_455 S
C487 C503 1.349 . S
C488 C486 1.327 . S
C488 C507 1.429 1_655 S
C488 H512 0.950 . S
C489 C506 1.574 . S
C489 C508 1.368 . S
C489 H513 0.949 . S
H490 C494 0.949 1_656 S
C491 C492 1.349 . S
C491 C493 1.327 . S
C491 H514 0.950 . S
C492 C491 1.349 . S
C492 C504 1.349 . S
C493 C491 1.327 . S
C493 C509 1.429 . S
C493 H515 0.950 . S
C494 H490 0.949 1_454 S
C494 C502 1.574 . S
C494 C510 1.368 1_554 S
H495 C503 0.950 . S
H496 C501 0.950 . S
H497 C502 0.949 1_655 S
H498 C504 0.950 1_655 S
H499 C505 0.950 1_655 S
H500 C506 0.949 . S
C501 H496 0.950 . S
C501 C503 1.327 . S
C501 C507 1.429 . S
C502 C494 1.574 . S
C502 H497 0.949 1_455 S
C502 C508 1.368 . S
C503 C487 1.349 . S
C503 H495 0.950 . S
C503 C501 1.327 . S
C504 C492 1.349 . S
C504 H498 0.950 1_455 S
C504 C505 1.327 . S
C505 H499 0.950 1_455 S
C505 C504 1.327 . S
C505 C509 1.429 . S
C506 C489 1.574 . S
C506 H500 0.949 . S
C506 C510 1.368 1_554 S
C507 C488 1.429 1_455 S
C507 C501 1.429 . S
C507 C508 1.523 . S
C508 C489 1.368 . S
C508 C502 1.368 . S
C508 C507 1.523 . S
C509 C493 1.429 . S
C509 C505 1.429 . S
C509 C510 1.523 . S
C510 C494 1.368 1_556 S
C510 C506 1.368 1_556 S
C510 C509 1.523 . S
H511 C486 0.950 . S
H512 C488 0.950 . S
H513 C489 0.949 . S
H514 C491 0.950 . S
H515 C493 0.950 . S
C516 C517 1.349 . S
C516 C518 1.327 . S
C516 H541 0.950 1_545 S
C517 C516 1.349 . S
C517 C533 1.349 . S
C518 C516 1.327 . S
C518 C537 1.429 . S
C518 H542 0.950 1_545 S
C519 C536 1.574 . S
C519 C538 1.368 . S
C519 H543 0.949 . S
H520 C524 0.949 1_565 S
C521 C522 1.349 . S
C521 C523 1.327 . S
C521 H544 0.950 . S
C522 C521 1.349 . S
C522 C534 1.349 . S
C523 C521 1.327 . S
C523 C539 1.429 . S
C523 H545 0.950 . S
C524 H520 0.949 1_545 S
C524 C532 1.574 . S
C524 C540 1.368 . S
H525 C533 0.950 . S
H526 C531 0.950 . S
H527 C532 0.949 1_565 S
H528 C534 0.950 . S
H529 C535 0.950 1_565 S
H530 C536 0.949 . S
C531 H526 0.950 . S
C531 C533 1.327 . S
C531 C537 1.429 . S
C532 C524 1.574 . S
C532 H527 0.949 1_545 S
C532 C538 1.368 . S
C533 C517 1.349 . S
C533 H525 0.950 . S
C533 C531 1.327 . S
C534 C522 1.349 . S
C534 H528 0.950 . S
C534 C535 1.327 . S
C535 H529 0.950 1_545 S
C535 C534 1.327 . S
C535 C539 1.429 . S
C536 C519 1.574 . S
C536 H530 0.949 . S
C536 C540 1.368 . S
C537 C518 1.429 . S
C537 C531 1.429 . S
C537 C538 1.523 . S
C538 C519 1.368 . S
C538 C532 1.368 . S
C538 C537 1.523 . S
C539 C523 1.429 . S
C539 C535 1.429 . S
C539 C540 1.523 . S
C540 C524 1.368 . S
C540 C536 1.368 . S
C540 C539 1.523 . S
H541 C516 0.950 1_565 S
H542 C518 0.950 1_565 S
H543 C519 0.949 . S
H544 C521 0.950 . S
H545 C523 0.950 . S
C546 C547 1.349 . S
C546 C548 1.327 . S
C546 H571 0.950 . S
C547 C546 1.349 . S
C547 C563 1.349 . S
C548 C546 1.327 . S
C548 C567 1.429 . S
C548 H572 0.950 . S
C549 C566 1.574 . S
C549 C568 1.368 . S
C549 H573 0.949 . S
H550 C554 0.949 . S
C551 C552 1.349 . S
C551 C553 1.327 . S
C551 H574 0.950 . S
C552 C551 1.349 . S
C552 C564 1.349 . S
C553 C551 1.327 . S
C553 C569 1.429 . S
C553 H575 0.950 . S
C554 H550 0.949 . S
C554 C562 1.574 . S
C554 C570 1.368 . S
H555 C563 0.950 . S
H556 C561 0.950 . S
H557 C562 0.949 . S
H558 C564 0.950 . S
H559 C565 0.950 . S
H560 C566 0.949 . S
C561 H556 0.950 . S
C561 C563 1.327 . S
C561 C567 1.429 . S
C562 C554 1.574 . S
C562 H557 0.949 . S
C562 C568 1.368 . S
C563 C547 1.349 . S
C563 H555 0.950 . S
C563 C561 1.327 . S
C564 C552 1.349 . S
C564 H558 0.950 . S
C564 C565 1.327 . S
C565 H559 0.950 . S
C565 C564 1.327 . S
C565 C569 1.429 . S
C566 C549 1.574 . S
C566 H560 0.949 . S
C566 C570 1.368 . S
C567 C548 1.429 . S
C567 C561 1.429 . S
C567 C568 1.523 . S
C568 C549 1.368 . S
C568 C562 1.368 . S
C568 C567 1.523 . S
C569 C553 1.429 . S
C569 C565 1.429 . S
C569 C570 1.523 . S
C570 C554 1.368 . S
C570 C566 1.368 . S
C570 C569 1.523 . S
H571 C546 0.950 . S
H572 C548 0.950 . S
H573 C549 0.949 . S
H574 C551 0.950 . S
H575 C553 0.950 . S
C576 C577 1.349 . S
C576 C578 1.327 . S
C576 H601 0.950 1_545 S
C577 C576 1.349 . S
C577 C593 1.349 . S
C578 C576 1.327 . S
C578 C597 1.429 . S
C578 H602 0.950 1_545 S
C579 C596 1.574 . S
C579 C598 1.368 . S
C579 H603 0.949 . S
H580 C584 0.949 1_565 S
C581 C582 1.349 . S
C581 C583 1.327 . S
C581 H604 0.950 . S
C582 C581 1.349 . S
C582 C594 1.349 . S
C583 C581 1.327 . S
C583 C599 1.429 . S
C583 H605 0.950 . S
C584 H580 0.949 1_545 S
C584 C592 1.574 . S
C584 C600 1.368 . S
H585 C593 0.950 . S
H586 C591 0.950 . S
H587 C592 0.949 1_565 S
H588 C594 0.950 1_565 S
H589 C595 0.950 1_565 S
H590 C596 0.949 . S
C591 H586 0.950 . S
C591 C593 1.327 . S
C591 C597 1.429 . S
C592 C584 1.574 . S
C592 H587 0.949 1_545 S
C592 C598 1.368 . S
C593 C577 1.349 . S
C593 H585 0.950 . S
C593 C591 1.327 . S
C594 C582 1.349 . S
C594 H588 0.950 1_545 S
C594 C595 1.327 . S
C595 H589 0.950 1_545 S
C595 C594 1.327 . S
C595 C599 1.429 . S
C596 C579 1.574 . S
C596 H590 0.949 . S
C596 C600 1.368 . S
C597 C578 1.429 . S
C597 C591 1.429 . S
C597 C598 1.523 . S
C598 C579 1.368 . S
C598 C592 1.368 . S
C598 C597 1.523 . S
C599 C583 1.429 . S
C599 C595 1.429 . S
C599 C600 1.523 . S
C600 C584 1.368 . S
C600 C596 1.368 . S
C600 C599 1.523 . S
H601 C576 0.950 1_565 S
H602 C578 0.950 1_565 S
H603 C579 0.949 . S
H604 C581 0.950 . S
H605 C583 0.950 . S
C606 C607 1.349 . S
C606 C608 1.327 . S
C606 H631 0.950 . S
C607 C606 1.349 . S
C607 C623 1.349 . S
C608 C606 1.327 . S
C608 C627 1.429 . S
C608 H632 0.950 . S
C609 C626 1.574 . S
C609 C628 1.368 . S
C609 H633 0.949 . S
H610 C614 0.949 1_554 S
C611 C612 1.349 . S
C611 C613 1.327 . S
C611 H634 0.950 . S
C612 C611 1.349 . S
C612 C624 1.349 . S
C613 C611 1.327 . S
C613 C629 1.429 . S
C613 H635 0.950 . S
C614 H610 0.949 1_556 S
C614 C622 1.574 . S
C614 C630 1.368 1_556 S
H615 C623 0.950 . S
H616 C621 0.950 . S
H617 C622 0.949 . S
H618 C624 0.950 . S
H619 C625 0.950 . S
H620 C626 0.949 1_554 S
C621 H616 0.950 . S
C621 C623 1.327 . S
C621 C627 1.429 . S
C622 C614 1.574 . S
C622 H617 0.949 . S
C622 C628 1.368 . S
C623 C607 1.349 . S
C623 H615 0.950 . S
C623 C621 1.327 . S
C624 C612 1.349 . S
C624 H618 0.950 . S
C624 C625 1.327 . S
C625 H619 0.950 . S
C625 C624 1.327 . S
C625 C629 1.429 . S
C626 C609 1.574 . S
C626 H620 0.949 1_556 S
C626 C630 1.368 1_556 S
C627 C608 1.429 . S
C627 C621 1.429 . S
C627 C628 1.523 . S
C628 C609 1.368 . S
C628 C622 1.368 . S
C628 C627 1.523 . S
C629 C613 1.429 . S
C629 C625 1.429 . S
C629 C630 1.523 . S
C630 C614 1.368 1_554 S
C630 C626 1.368 1_554 S
C630 C629 1.523 . S
H631 C606 0.950 . S
H632 C608 0.950 . S
H633 C609 0.949 . S
H634 C611 0.950 . S
H635 C613 0.950 . S
C636 C637 1.349 . S
C636 C638 1.327 . S
C636 H661 0.950 . S
C637 C636 1.349 . S
C637 C653 1.349 . S
C638 C636 1.327 . S
C638 C657 1.429 . S
C638 H662 0.950 . S
C639 C656 1.574 . S
C639 C658 1.368 . S
C639 H663 0.949 . S
H640 C644 0.949 . S
C641 C642 1.349 . S
C641 C643 1.327 . S
C641 H664 0.950 . S
C642 C641 1.349 . S
C642 C654 1.349 . S
C643 C641 1.327 . S
C643 C659 1.429 . S
C643 H665 0.950 . S
C644 H640 0.949 . S
C644 C652 1.574 . S
C644 C660 1.368 . S
H645 C653 0.950 . S
H646 C651 0.950 . S
H647 C652 0.949 . S
H648 C654 0.950 . S
H649 C655 0.950 . S
H650 C656 0.949 . S
C651 H646 0.950 . S
C651 C653 1.327 . S
C651 C657 1.429 . S
C652 C644 1.574 . S
C652 H647 0.949 . S
C652 C658 1.368 . S
C653 C637 1.349 . S
C653 H645 0.950 . S
C653 C651 1.327 . S
C654 C642 1.349 . S
C654 H648 0.950 . S
C654 C655 1.327 . S
C655 H649 0.950 . S
C655 C654 1.327 . S
C655 C659 1.429 . S
C656 C639 1.574 . S
C656 H650 0.949 . S
C656 C660 1.368 . S
C657 C638 1.429 . S
C657 C651 1.429 . S
C657 C658 1.523 . S
C658 C639 1.368 . S
C658 C652 1.368 . S
C658 C657 1.523 . S
C659 C643 1.429 . S
C659 C655 1.429 . S
C659 C660 1.523 . S
C660 C644 1.368 . S
C660 C656 1.368 . S
C660 C659 1.523 . S
H661 C636 0.950 . S
H662 C638 0.950 . S
H663 C639 0.949 . S
H664 C641 0.950 . S
H665 C643 0.950 . S
C127 C2 1.407 . S
C132 C125 1.458 . S
C157 C22 1.393 . S
C162 C103 1.452 . S
C187 C44 1.410 . S
C192 C114 1.471 . S
C217 C4 1.392 . S
C222 C119 1.479 . S
C252 C97 1.484 . S
C247 C24 1.411 . S
C282 C108 1.446 . S
C277 C42 1.368 . S
C307 C32 1.394 . S
C312 C81 1.387 . S
C337 C49 1.107 . S
C342 C86 1.118 1_655 S
C367 C9 1.090 . S
C372 C64 1.106 1_565 S
C402 C75 1.115 . S
C397 C29 1.084 . S
C432 C92 1.306 . S
C427 C52 1.281 . S
C457 C12 1.294 . S
C462 C70 1.311 . S
C492 C87 1.499 . S
C487 C18 1.504 . S
C517 C38 1.472 . S
C522 C65 1.470 . S
C547 C58 1.467 . S
C552 C76 1.499 . S
C582 C109 1.514 . S
C577 C39 1.504 . S
C612 C120 1.527 . S
C607 C59 1.520 . S
C637 C19 1.515 . S
C642 C98 1.537 . S
