# Generated by pormake.
# Topology anh, (6,3)-cn, num edge types: 1
# Building blocks:
#     Node 0, Type 0, BuildingBlock: BETDAH_clean_sbu_0, # of connection points: 6
#     Node 1, Type 0, BuildingBlock: BETDAH_clean_sbu_0, # of connection points: 6
#     Node 2, Type 0, BuildingBlock: BETDAH_clean_sbu_0, # of connection points: 6
#     Node 3, Type 1, BuildingBlock: BETDIP_clean_linker_0, # of connection points: 3
#     Node 4, Type 1, BuildingBlock: BETDIP_clean_linker_0, # of connection points: 3
#     Node 5, Type 1, BuildingBlock: BETDIP_clean_linker_0, # of connection points: 3
#     Node 6, Type 1, BuildingBlock: BETDIP_clean_linker_0, # of connection points: 3
#     Node 7, Type 1, BuildingBlock: BETDIP_clean_linker_0, # of connection points: 3
#     Node 8, Type 1, BuildingBlock: BETDIP_clean_linker_0, # of connection points: 3
#     Edge 9, Type (0, 1), BuildingBlock: ZUJKAS_clean_linker_0, # of connection points: 2
#     Edge 10, Type (0, 1), BuildingBlock: ZUJKAS_clean_linker_0, # of connection points: 2
#     Edge 11, Type (0, 1), BuildingBlock: ZUJKAS_clean_linker_0, # of connection points: 2
#     Edge 12, Type (0, 1), BuildingBlock: ZUJKAS_clean_linker_0, # of connection points: 2
#     Edge 13, Type (0, 1), BuildingBlock: ZUJKAS_clean_linker_0, # of connection points: 2
#     Edge 14, Type (0, 1), BuildingBlock: ZUJKAS_clean_linker_0, # of connection points: 2
#     Edge 15, Type (0, 1), BuildingBlock: ZUJKAS_clean_linker_0, # of connection points: 2
#     Edge 16, Type (0, 1), BuildingBlock: ZUJKAS_clean_linker_0, # of connection points: 2
#     Edge 17, Type (0, 1), BuildingBlock: ZUJKAS_clean_linker_0, # of connection points: 2
#     Edge 18, Type (0, 1), BuildingBlock: ZUJKAS_clean_linker_0, # of connection points: 2
#     Edge 19, Type (0, 1), BuildingBlock: ZUJKAS_clean_linker_0, # of connection points: 2
#     Edge 20, Type (0, 1), BuildingBlock: ZUJKAS_clean_linker_0, # of connection points: 2
#     Edge 21, Type (0, 1), BuildingBlock: ZUJKAS_clean_linker_0, # of connection points: 2
#     Edge 22, Type (0, 1), BuildingBlock: ZUJKAS_clean_linker_0, # of connection points: 2
#     Edge 23, Type (0, 1), BuildingBlock: ZUJKAS_clean_linker_0, # of connection points: 2
#     Edge 24, Type (0, 1), BuildingBlock: ZUJKAS_clean_linker_0, # of connection points: 2
#     Edge 25, Type (0, 1), BuildingBlock: ZUJKAS_clean_linker_0, # of connection points: 2
#     Edge 26, Type (0, 1), BuildingBlock: ZUJKAS_clean_linker_0, # of connection points: 2
# Relax obj value: 0.126
# Max RMSD: 0.169
# Mean RMSD: 0.121
data_MOF--net-anh--node1-BETDAH_clean_sbu_0--node2-BETDIP_clean_linker_0--edge1-ZUJKAS_clean_linker_0
_symmetry_space_group_name_H-M    P1
_symmetry_Int_Tables_number       1
_symmetry_cell_setting            triclinic
loop_
_symmetry_equiv_pos_as_xyz
'x, y, z'
_cell_length_a     39.898119
_cell_length_b     46.89503
_cell_length_c     64.270899
_cell_angle_alpha  95.892833
_cell_angle_beta   89.221866
_cell_angle_gamma 127.94437
loop_
_atom_site_label
_atom_site_type_symbol
_atom_site_fract_x
_atom_site_fract_y
_atom_site_fract_z
_atom_type_partial_charge
Ho0 Ho 0.11055 0.52775 0.1387 0.0
Ho1 Ho 0.06901 0.55788 0.162 0.0
C2 C 0.16495 0.61643 0.15128 0.0
C3 C 0.15368 0.51676 0.11397 0.0
C4 C 0.19962 0.53432 0.1153 0.0
C5 C 0.23033 0.57123 0.11234 0.0
C6 C 0.2734 0.58933 0.11773 0.0
C7 C 0.28611 0.57083 0.12634 0.0
C8 C 0.25591 0.53356 0.12812 0.0
C9 C 0.21311 0.51539 0.12248 0.0
C10 C 0.11456 0.53076 0.18077 0.0
C11 C 1.01598 0.47046 0.14973 0.0
C12 C 1.02931 0.56957 0.1891 0.0
C13 C 0.99366 0.54568 0.20196 0.0
C14 C 0.99402 0.55812 0.22281 0.0
C15 C 0.95915 0.53614 0.23475 0.0
C16 C 0.92353 0.50135 0.226 0.0
C17 C 0.92467 0.48823 0.20552 0.0
C18 C 0.95933 0.51021 0.19362 0.0
C19 C 0.067 0.55584 0.11993 0.0
O20 O 0.16202 0.58918 0.14046 0.0
O21 O 0.13385 0.6109 0.16249 0.0
O22 O 0.13232 0.49658 0.1289 0.0
O23 O 0.14297 0.53713 0.10995 0.0
O24 O 0.1112 0.50559 0.16818 0.0
O25 O 0.11881 0.55403 0.17046 0.0
O26 O 1.02344 0.49691 0.1637 0.0
O27 O 1.04272 0.47739 0.13503 0.0
O28 O 1.02045 0.564 0.16884 0.0
O29 O 0.06452 0.57471 0.19383 0.0
O30 O 0.07145 0.58161 0.13256 0.0
O31 O 0.06116 0.53183 0.13015 0.0
H32 H 0.221 0.58655 0.10669 0.0
H33 H 0.29644 0.61802 0.11604 0.0
H34 H 0.26536 0.51866 0.13432 0.0
H35 H 0.19026 0.48691 0.12474 0.0
H36 H 1.0207 0.58519 0.22964 0.0
H37 H 0.95926 0.54691 0.25051 0.0
H38 H 0.89755 0.46187 0.19811 0.0
H39 H 0.95855 0.49988 0.17762 0.0
Ho40 Ho 0.61208 0.03237 0.48526 0.0
Ho41 Ho 0.55581 0.05205 0.4721 0.0
C42 C 0.50973 0.96839 0.4741 0.0
C43 C 0.6442 0.00686 0.50369 0.0
C44 C 0.63317 0.97088 0.50508 0.0
C45 C 0.64579 0.96483 0.52328 0.0
C46 C 0.63616 0.93105 0.52491 0.0
C47 C 0.61384 0.9027 0.5083 0.0
C48 C 0.60091 0.90876 0.49011 0.0
C49 C 0.61027 0.94252 0.48856 0.0
C50 C 0.60666 0.03525 0.44393 0.0
C51 C 0.65873 0.11584 0.48156 0.0
C52 C 0.52411 0.0791 0.45517 0.0
C53 C 0.5332 0.11478 0.45862 0.0
C54 C 0.51592 0.12419 0.44454 0.0
C55 C 0.5234 0.15767 0.44821 0.0
C56 C 0.54822 0.18229 0.46608 0.0
C57 C 0.56601 0.17281 0.47996 0.0
C58 C 0.5587 0.13945 0.47621 0.0
C59 C 0.56277 0.05039 0.51358 0.0
O60 O 0.5449 0.979 0.4845 0.0
O61 O 0.50847 0.99152 0.46465 0.0
O62 O 0.65522 0.01914 0.48546 0.0
O63 O 0.61897 0.01267 0.51266 0.0
O64 O 0.64056 0.04431 0.45389 0.0
O65 O 0.57651 0.02245 0.45592 0.0
O66 O 0.62263 0.10494 0.47215 0.0
O67 O 0.66128 0.09322 0.4908 0.0
O68 O 0.50761 0.05947 0.47075 0.0
O69 O 0.55429 0.07896 0.4471 0.0
O70 O 0.52856 0.04109 0.5039 0.0
O71 O 0.59212 0.06263 0.50119 0.0
H72 H 0.66337 0.98637 0.53621 0.0
H73 H 0.64689 0.92733 0.53904 0.0
H74 H 0.58324 0.88731 0.47716 0.0
H75 H 0.59979 0.94652 0.47445 0.0
H76 H 0.4964 0.10553 0.4308 0.0
H77 H 0.50977 0.16427 0.43701 0.0
H78 H 0.58474 0.19072 0.49402 0.0
H79 H 0.5724 0.13264 0.48723 0.0
Ho80 Ho 0.634 0.56216 0.83842 0.0
Ho81 Ho 0.57387 0.48215 0.84506 0.0
C82 C 0.53139 0.52223 0.84359 0.0
C83 C 0.67129 0.62427 0.82426 0.0
C84 C 0.66335 0.65066 0.82246 0.0
C85 C 0.68758 0.67777 0.80925 0.0
C86 C 0.6809 0.70336 0.80734 0.0
C87 C 0.64975 0.70231 0.81863 0.0
C88 C 0.62521 0.6748 0.83177 0.0
C89 C 0.63201 0.6492 0.83369 0.0
C90 C 0.62802 0.54871 0.87848 0.0
C91 C 0.67683 0.52247 0.84065 0.0
C92 C 0.53745 0.41937 0.85807 0.0
C93 C 0.54417 0.39157 0.85622 0.0
C94 C 0.58413 0.40059 0.86108 0.0
C95 C 0.59009 0.37402 0.85806 0.0
C96 C 0.55621 0.3379 0.85012 0.0
C97 C 0.5161 0.32894 0.84564 0.0
C98 C 0.51017 0.35547 0.84871 0.0
C99 C 0.5811 0.49557 0.80482 0.0
O100 O 0.56859 0.54994 0.83725 0.0
O101 O 0.52694 0.49404 0.84994 0.0
O102 O 0.67879 0.62092 0.84324 0.0
O103 O 0.64588 0.59291 0.81262 0.0
O104 O 0.66299 0.57504 0.87106 0.0
O105 O 0.59759 0.53256 0.86477 0.0
O106 O 0.63936 0.49458 0.84666 0.0
O107 O 0.68144 0.55072 0.83429 0.0
O108 O 0.52526 0.42367 0.84068 0.0
O109 O 0.56588 0.45035 0.86953 0.0
O110 O 0.54607 0.46905 0.81204 0.0
O111 O 0.61089 0.51173 0.81885 0.0
H112 H 0.71173 0.67913 0.80037 0.0
H113 H 0.69981 0.72371 0.7968 0.0
H114 H 0.60119 0.67336 0.84079 0.0
H115 H 0.61304 0.62843 0.844 0.0
H116 H 0.61089 0.42821 0.86701 0.0
H117 H 0.62126 0.38182 0.86192 0.0
H118 H 0.48944 0.3016 0.83919 0.0
H119 H 0.4791 0.3479 0.84481 0.0
H120 H 0.55897 0.01475 0.16003 0.0
H121 H 0.62407 0.08282 0.2183 0.0
H122 H 0.51561 0.97075 0.21878 0.0
H123 H 0.62122 0.12164 0.19778 0.0
C124 C 0.63733 0.11873 0.18494 0.0
C125 C 0.56235 0.01813 0.177 0.0
C126 C 0.53311 0.9887 0.1882 0.0
C127 C 0.59455 0.05255 0.18783 0.0
C128 C 0.59879 0.05665 0.20987 0.0
C129 C 0.57037 0.02734 0.22115 0.0
C130 C 0.53754 0.99363 0.21018 0.0
N131 N 0.62213 0.08305 0.1766 0.0
H132 H 0.5827 0.51987 0.52414 0.0
H133 H 0.59351 0.57185 0.58558 0.0
H134 H 0.60165 0.4843 0.57882 0.0
H135 H 0.54706 0.5771 0.56925 0.0
C136 C 0.56246 0.58648 0.55471 0.0
C137 C 0.5871 0.52221 0.541 0.0
C138 C 0.59313 0.49938 0.54993 0.0
C139 C 0.58622 0.54785 0.55375 0.0
C140 C 0.59245 0.55121 0.57564 0.0
C141 C 0.59829 0.52853 0.58483 0.0
C142 C 0.59867 0.50278 0.57183 0.0
N143 N 0.57971 0.57033 0.54423 0.0
H144 H 0.07047 0.51932 0.83422 0.0
H145 H 0.13429 0.5332 0.89257 0.0
H146 H 1.02238 0.52679 0.89336 0.0
H147 H 0.19414 0.57203 0.87004 0.0
C148 C 0.18242 0.54788 0.85919 0.0
C149 C 0.07291 0.52264 0.85119 0.0
C150 C 1.04174 0.52255 0.86256 0.0
C151 C 0.10729 0.52704 0.86201 0.0
C152 C 0.10938 0.531 0.88407 0.0
C153 C 0.07865 0.53042 0.89535 0.0
C154 C 1.04549 0.52642 0.88451 0.0
N155 N 0.13864 0.52605 0.85114 0.0
H156 H 0.10942 0.57326 0.46519 0.0
H157 H 1.03893 0.50078 0.40888 0.0
H158 H 0.15064 0.61046 0.40477 0.0
H159 H 0.98393 0.48873 0.43282 0.0
C160 C 0.9961 0.48146 0.44451 0.0
C161 C 0.10539 0.56811 0.44824 0.0
C162 C 0.13371 0.59628 0.43606 0.0
C163 C 0.07045 0.5338 0.43848 0.0
C164 C 0.06538 0.52731 0.41644 0.0
C165 C 0.0941 0.5548 0.40413 0.0
C166 C 0.12793 0.58915 0.41412 0.0
N167 N 1.04035 0.50597 0.45082 0.0
H168 H 0.58417 0.03212 0.79442 0.0
H169 H 0.58621 0.98646 0.73319 0.0
H170 H 0.57493 0.07215 0.73916 0.0
H171 H 0.54899 0.93489 0.7504 0.0
C172 C 0.56976 0.94569 0.76456 0.0
C173 C 0.58332 0.03147 0.77753 0.0
C174 C 0.57892 0.05499 0.76826 0.0
C175 C 0.58462 1.00585 0.76497 0.0
C176 C 0.58394 1.00532 0.74302 0.0
C177 C 0.58011 0.02897 0.73361 0.0
C178 C 0.57732 0.05348 0.74634 0.0
N179 N 0.58657 0.98089 0.77465 0.0
H180 H 0.62129 0.54487 0.15815 0.0
H181 H 0.63701 0.49291 0.10404 0.0
H182 H 0.59321 0.55524 0.09642 0.0
H183 H 0.66522 0.53869 0.17394 0.0
C184 C 0.65379 0.51171 0.16719 0.0
C185 C 0.62036 0.53941 0.14135 0.0
C186 C 0.60681 0.55342 0.12848 0.0
C187 C 0.63111 0.51742 0.13263 0.0
C188 C 0.62908 0.51009 0.11079 0.0
C189 C 0.6158 0.52404 0.0977 0.0
C190 C 0.6046 0.54546 0.10664 0.0
N191 N 0.64138 0.5005 0.14546 0.0
H192 H 0.35682 0.60718 0.10396 0.0
H193 H 0.42661 0.62441 0.11441 0.0
H194 H 0.38453 0.59408 0.17609 0.0
H195 H 0.31464 0.57622 0.16559 0.0
H196 H 0.49385 0.66675 0.15251 0.0
H197 H 0.39154 0.51499 0.1427 0.0
H198 H 0.37425 0.53898 0.13289 0.0
H199 H 0.37498 0.53576 0.16045 0.0
C200 C 0.36315 0.6055 0.11994 0.0
C201 C 0.33054 0.58984 0.1339 0.0
C202 C 0.40296 0.61552 0.12593 0.0
C203 C 0.41034 0.61018 0.14594 0.0
C204 C 0.37925 0.59834 0.1606 0.0
H205 H 0.56245 0.54151 0.16383 0.0
H206 H 0.52523 0.56575 0.17481 0.0
C207 C 0.3394 0.58793 0.15455 0.0
C208 C 0.44544 0.60856 0.14965 0.0
H209 H 0.46417 0.54691 0.1493 0.0
C210 C 0.48761 0.64068 0.15212 0.0
C211 C 0.43688 0.57444 0.14914 0.0
C212 C 0.39206 0.53898 0.14603 0.0
C213 C 0.52178 0.63941 0.15375 0.0
C214 C 0.5132 0.60513 0.15235 0.0
C215 C 0.47083 0.57323 0.1506 0.0
C216 C 0.54668 0.60055 0.15016 0.0
C217 C 0.56652 0.67467 0.1568 0.0
C218 C 0.57327 0.61371 0.13339 0.0
C219 C 0.5958 0.60067 0.1274 0.0
C220 C 0.59112 0.57341 0.13767 0.0
C221 C 0.56724 0.5626 0.15554 0.0
C222 C 0.54564 0.57635 0.16184 0.0
H223 H 0.5671 0.69666 0.16561 0.0
H224 H 0.58807 0.67173 0.16533 0.0
H225 H 0.57895 0.68329 0.14125 0.0
H226 H 0.57413 0.63189 0.12388 0.0
H227 H 0.6149 0.61044 0.11394 0.0
H228 H 0.66351 0.16996 0.46557 0.0
H229 H 0.72609 0.23285 0.46412 0.0
H230 H 0.80305 0.21339 0.49646 0.0
H231 H 0.74041 0.14983 0.49769 0.0
H232 H 0.77952 0.28767 0.49596 0.0
H233 H 0.86936 0.25648 0.44475 0.0
H234 H 0.81355 0.22267 0.44861 0.0
H235 H 0.8531 0.23554 0.46858 0.0
C236 C 0.69367 0.17886 0.47239 0.0
C237 C 0.69685 0.15459 0.48163 0.0
C238 C 0.7295 0.21498 0.47157 0.0
C239 C 0.76947 0.22781 0.47989 0.0
C240 C 0.77273 0.20396 0.48955 0.0
H241 H 1.01246 0.44672 0.47013 0.0
H242 H 0.96009 0.3862 0.48169 0.0
C243 C 0.73679 0.16766 0.49036 0.0
C244 C 0.80731 0.26618 0.47831 0.0
H245 H 0.90186 0.31837 0.45502 0.0
C246 C 0.80643 0.29436 0.48716 0.0
C247 C 0.8426 0.27502 0.46691 0.0
C248 C 0.84482 0.24592 0.4565 0.0
C249 C 0.8392 0.33091 0.48449 0.0
C250 C 0.87362 0.33959 0.47242 0.0
C251 C 0.87548 0.31167 0.46429 0.0
C252 C 0.9056 0.37683 0.46637 0.0
C253 C 0.83641 0.35993 0.49439 0.0
C254 C 0.89242 0.39148 0.45383 0.0
C255 C 0.92209 0.42571 0.44719 0.0
C256 C 0.96566 0.44616 0.45293 0.0
C257 C 0.97903 0.43171 0.46561 0.0
C258 C 0.94919 0.39714 0.47217 0.0
H259 H 0.81585 0.35078 0.50789 0.0
H260 H 0.86846 0.38545 0.49982 0.0
H261 H 0.82227 0.36609 0.48261 0.0
H262 H 0.85913 0.37608 0.44882 0.0
H263 H 0.91094 0.43605 0.4373 0.0
H264 H 0.71009 0.77545 0.81673 0.0
H265 H 0.69881 0.81978 0.81097 0.0
H266 H 0.56295 0.7359 0.8099 0.0
H267 H 0.57391 0.69125 0.81548 0.0
H268 H 0.65546 0.8167 0.77655 0.0
H269 H 0.58176 0.81936 0.84978 0.0
H270 H 0.61013 0.80066 0.84714 0.0
H271 H 0.55619 0.77444 0.8364 0.0
C272 C 0.67778 0.76639 0.81529 0.0
C273 C 0.64289 0.72973 0.81649 0.0
C274 C 0.67142 0.79183 0.81213 0.0
C275 C 0.63008 0.78127 0.81025 0.0
C276 C 0.59516 0.74485 0.81176 0.0
H277 H 0.54146 0.87889 0.74759 0.0
H278 H 0.55771 0.84057 0.75967 0.0
C279 C 0.60149 0.71933 0.81493 0.0
C280 C 0.62352 0.80778 0.80524 0.0
H281 H 0.57776 0.84751 0.82199 0.0
C282 C 0.63876 0.82364 0.78657 0.0
C283 C 0.60216 0.81713 0.81845 0.0
C284 C 0.58694 0.80231 0.83917 0.0
C285 C 0.63211 0.84775 0.78044 0.0
C286 C 0.60913 0.85587 0.79317 0.0
C287 C 0.59504 0.84096 0.81218 0.0
C288 C 0.59821 0.87875 0.78653 0.0
C289 C 0.6497 0.86434 0.76033 0.0
C290 C 0.61473 0.91252 0.79796 0.0
C291 C 0.60542 0.93451 0.79108 0.0
C292 C 0.57915 0.92278 0.77277 0.0
C293 C 0.56194 0.88862 0.76169 0.0
C294 C 0.57131 0.86679 0.76852 0.0
H295 H 0.67549 0.86297 0.75531 0.0
H296 H 0.62381 0.84911 0.74771 0.0
H297 H 0.66233 0.89323 0.76207 0.0
H298 H 0.63539 0.92212 0.81196 0.0
H299 H 0.61904 0.96069 0.79997 0.0
H300 H 0.86437 0.42775 0.22852 0.0
H301 H 0.78792 0.39612 0.23107 0.0
H302 H 0.81307 0.49944 0.24756 0.0
H303 H 0.88863 0.53081 0.24542 0.0
H304 H 0.73384 0.44059 0.26063 0.0
H305 H 0.75547 0.41322 0.17673 0.0
H306 H 0.76408 0.39344 0.1964 0.0
H307 H 0.80096 0.44174 0.19517 0.0
C308 C 0.85361 0.4435 0.23362 0.0
C309 C 0.88229 0.48183 0.23599 0.0
C310 C 0.80994 0.42539 0.23509 0.0
C311 C 0.7948 0.44558 0.23859 0.0
C312 C 0.82399 0.48328 0.24456 0.0
H313 H 0.69534 0.53395 0.20516 0.0
H314 H 0.71022 0.50121 0.2252 0.0
C315 C 0.86748 0.50132 0.2433 0.0
C316 C 0.75176 0.43095 0.23051 0.0
H317 H 0.70605 0.42268 0.18365 0.0
C318 C 0.72655 0.4352 0.24383 0.0
C319 C 0.74154 0.42309 0.20859 0.0
C320 C 0.76679 0.4176 0.1933 0.0
C321 C 0.69531 0.43673 0.23563 0.0
C322 C 0.69007 0.43478 0.21367 0.0
C323 C 0.71059 0.42491 0.20051 0.0
C324 C 0.67234 0.45082 0.20412 0.0
C325 C 0.67034 0.44284 0.25062 0.0
C326 C 0.64637 0.43379 0.1854 0.0
C327 C 0.63915 0.4531 0.17351 0.0
C328 C 0.65747 0.48962 0.18029 0.0
C329 C 0.68102 0.50584 0.19961 0.0
C330 C 0.68883 0.48681 0.21129 0.0
H331 H 0.66189 0.42678 0.26401 0.0
H332 H 0.69038 0.472 0.25716 0.0
H333 H 0.64069 0.43516 0.24286 0.0
H334 H 0.63356 0.40618 0.17943 0.0
H335 H 0.62031 0.43979 0.15877 0.0
H336 H 0.50027 0.91179 0.49011 0.0
H337 H 0.43708 0.8476 0.48664 0.0
H338 H 0.36919 0.87271 0.45112 0.0
H339 H 0.43199 0.93665 0.45431 0.0
H340 H 0.3521 0.81444 0.49874 0.0
H341 H 0.35726 0.79071 0.41286 0.0
H342 H 0.40191 0.82995 0.42897 0.0
H343 H 0.35816 0.82898 0.42096 0.0
C344 C 0.47192 0.90369 0.48154 0.0
C345 C 0.47142 0.92946 0.47235 0.0
C346 C 0.43578 0.86697 0.47963 0.0
C347 C 0.39859 0.85525 0.46838 0.0
C348 C 0.39777 0.88099 0.45955 0.0
H349 H 0.14998 0.65929 0.42826 0.0
H350 H 0.21418 0.72143 0.43866 0.0
C351 C 0.43376 0.91763 0.46145 0.0
C352 C 0.36061 0.81613 0.46562 0.0
H353 H 0.29388 0.7449 0.42806 0.0
C354 C 0.3395 0.79905 0.48332 0.0
C355 C 0.34439 0.79604 0.44551 0.0
C356 C 0.36678 0.81218 0.42599 0.0
C357 C 0.30154 0.7629 0.48133 0.0
C358 C 0.28469 0.74322 0.46114 0.0
C359 C 0.30657 0.76005 0.44354 0.0
C360 C 0.24357 0.70568 0.45754 0.0
C361 C 0.279 0.74651 0.50075 0.0
C362 C 0.23806 0.67604 0.46516 0.0
C363 C 0.20098 0.6403 0.45933 0.0
C364 C 0.1692 0.63373 0.44559 0.0
C365 C 0.17406 0.66357 0.4388 0.0
C366 C 0.21077 0.69908 0.4447 0.0
H367 H 0.29083 0.76758 0.51446 0.0
H368 H 0.24412 0.7312 0.49811 0.0
H369 H 0.28453 0.72714 0.50464 0.0
H370 H 0.26319 0.68035 0.47481 0.0
H371 H 0.19822 0.61775 0.46458 0.0
H372 H 0.62539 0.34642 0.83377 0.0
H373 H 0.63358 0.29934 0.82397 0.0
H374 H 0.50972 0.21868 0.84571 0.0
H375 H 0.50199 0.26582 0.85642 0.0
H376 H 0.56931 0.20889 0.85601 0.0
H377 H 0.56944 0.22638 0.77182 0.0
H378 H 0.61026 0.26711 0.78824 0.0
H379 H 0.5552 0.24669 0.79165 0.0
C380 C 0.60021 0.31882 0.83687 0.0
C381 C 0.56279 0.30989 0.84569 0.0
C382 C 0.60477 0.29186 0.83104 0.0
C383 C 0.57189 0.25539 0.83372 0.0
C384 C 0.53535 0.24661 0.84335 0.0
H385 H 0.51941 0.06494 0.76323 0.0
H386 H 0.51813 0.11275 0.78116 0.0
C387 C 0.53083 0.27356 0.84928 0.0
C388 C 0.57447 0.22605 0.82554 0.0
H389 H 0.58052 0.1849 0.78028 0.0
C390 C 0.57188 0.20364 0.83947 0.0
C391 C 0.57724 0.21898 0.8039 0.0
C392 C 0.5778 0.2408 0.78798 0.0
C393 C 0.57193 0.17428 0.83231 0.0
C394 C 0.57528 0.16758 0.81071 0.0
C395 C 0.57815 0.19017 0.79685 0.0
C396 C 0.57394 0.13638 0.80177 0.0
C397 C 0.56713 0.1501 0.84782 0.0
C398 C 0.60527 0.13326 0.80768 0.0
C399 C 0.60583 0.10565 0.79751 0.0
C400 C 0.57547 0.08115 0.78108 0.0
C401 C 0.54342 0.08367 0.77571 0.0
C402 C 0.54266 0.11095 0.78595 0.0
H403 H 0.55458 0.15343 0.86263 0.0
H404 H 0.54548 0.12101 0.84111 0.0
H405 H 0.59874 0.15736 0.85168 0.0
H406 H 0.63019 0.15295 0.81957 0.0
H407 H 0.6311 0.10449 0.80179 0.0
H408 H 0.58382 0.86314 0.54159 0.0
H409 H 0.5724 0.80625 0.54505 0.0
H410 H 0.61146 0.8049 0.48233 0.0
H411 H 0.62332 0.86206 0.47878 0.0
H412 H 0.51792 0.73574 0.51649 0.0
H413 H 0.69063 0.79959 0.5224 0.0
H414 H 0.67164 0.82588 0.52763 0.0
H415 H 0.6714 0.80931 0.50118 0.0
C416 C 0.59005 0.85077 0.52855 0.0
C417 C 0.60471 0.86718 0.50996 0.0
C418 C 0.5833 0.81821 0.5305 0.0
C419 C 0.59146 0.80164 0.51401 0.0
C420 C 0.60531 0.81749 0.49528 0.0
H421 H 0.59654 0.61772 0.51837 0.0
H422 H 0.60092 0.66766 0.50596 0.0
C423 C 0.61178 0.84996 0.49324 0.0
C424 C 0.58615 0.76812 0.51671 0.0
H425 H 0.64216 0.73692 0.52523 0.0
C426 C 0.545 0.73585 0.51826 0.0
C427 C 0.62156 0.76839 0.51882 0.0
C428 C 0.66643 0.8026 0.51755 0.0
C429 C 0.53834 0.70384 0.52218 0.0
C430 C 0.57389 0.70446 0.52519 0.0
C431 C 0.61496 0.73649 0.52297 0.0
C432 C 0.56942 0.67301 0.532 0.0
C433 C 0.49325 0.66967 0.52301 0.0
C434 C 0.55065 0.65969 0.55082 0.0
C435 C 0.548 0.63121 0.55786 0.0
C436 C 0.56447 0.61572 0.54636 0.0
C437 C 0.5834 0.62904 0.52753 0.0
C438 C 0.58595 0.65756 0.52043 0.0
H439 H 0.47044 0.67027 0.51373 0.0
H440 H 0.49004 0.64498 0.51701 0.0
H441 H 0.48417 0.66752 0.5395 0.0
H442 H 0.53873 0.67179 0.56031 0.0
H443 H 0.53357 0.62162 0.57251 0.0
H444 H 0.75903 0.57391 0.82916 0.0
H445 H 0.81958 0.57268 0.8295 0.0
H446 H 0.7416 0.46869 0.85334 0.0
H447 H 0.68086 0.46944 0.8526 0.0
H448 H 0.86448 0.5725 0.85968 0.0
H449 H 0.7909 0.4444 0.80713 0.0
H450 H 0.7666 0.46656 0.81046 0.0
H451 H 0.76047 0.43814 0.82942 0.0
C452 C 0.75448 0.55056 0.83435 0.0
C453 C 0.71433 0.52166 0.84072 0.0
C454 C 0.78947 0.54992 0.83458 0.0
C455 C 0.78575 0.52026 0.84106 0.0
C456 C 0.74578 0.49157 0.84766 0.0
H457 H 0.95699 0.46771 0.86535 0.0
H458 H 0.89688 0.46799 0.85873 0.0
C459 C 0.71077 0.49217 0.8474 0.0
C460 C 0.82372 0.5199 0.84145 0.0
H461 H 0.85607 0.46827 0.82579 0.0
C462 C 0.86255 0.54976 0.85206 0.0
C463 C 0.82212 0.49044 0.83161 0.0
C464 C 0.78295 0.45825 0.81884 0.0
C465 C 0.89858 0.55051 0.85366 0.0
C466 C 0.89683 0.52088 0.844 0.0
C467 C 0.85813 0.49117 0.83323 0.0
C468 C 0.93377 0.51936 0.84581 0.0
C469 C 0.93778 0.58264 0.86645 0.0
C470 C 0.97511 0.5472 0.83995 0.0
C471 C 1.00982 0.54682 0.84353 0.0
C472 C 1.00429 0.51841 0.85293 0.0
C473 C 0.96255 0.48971 0.85772 0.0
C474 C 0.92799 0.49003 0.85409 0.0
H475 H 0.9305 0.59802 0.87725 0.0
H476 H 0.95235 0.5738 0.87585 0.0
H477 H 0.96156 0.60152 0.85576 0.0
H478 H 0.98089 0.56986 0.83305 0.0
H479 H 1.04142 0.56979 0.84003 0.0
H480 H 0.23995 0.64016 0.1333 0.0
H481 H 0.3063 0.70286 0.13533 0.0
H482 H 0.24649 0.74105 0.17157 0.0
H483 H 0.18053 0.67895 0.16977 0.0
H484 H 0.32302 0.76903 0.12329 0.0
H485 H 0.35324 0.77763 0.20848 0.0
H486 H 0.31629 0.73481 0.19228 0.0
H487 H 0.30073 0.76243 0.20148 0.0
C488 C 0.24085 0.66191 0.14163 0.0
C489 C 0.20489 0.65435 0.15153 0.0
C490 C 0.2788 0.69773 0.14274 0.0
C491 C 0.28148 0.72653 0.15385 0.0
C492 C 0.24534 0.71916 0.16321 0.0
H493 H 0.44958 0.95306 0.19441 0.0
H494 H 0.39049 0.88925 0.18299 0.0
C495 C 0.20756 0.68354 0.16212 0.0
C496 C 0.32205 0.76432 0.15629 0.0
H497 H 0.39301 0.83376 0.19373 0.0
C498 C 0.33877 0.78315 0.13862 0.0
C499 C 0.3427 0.78254 0.1763 0.0
C500 C 0.32762 0.76326 0.19571 0.0
C501 C 0.37429 0.82036 0.14064 0.0
C502 C 0.39361 0.83893 0.1608 0.0
C503 C 0.3779 0.8196 0.17829 0.0
C504 C 0.42848 0.87884 0.16457 0.0
C505 C 0.38978 0.83995 0.12138 0.0
C506 C 0.46933 0.89458 0.15746 0.0
C507 C 0.50325 0.93136 0.16389 0.0
C508 C 0.49673 0.95262 0.17765 0.0
C509 C 0.45541 0.93722 0.18381 0.0
C510 C 0.42169 0.90077 0.17734 0.0
H511 H 0.36714 0.8233 0.10748 0.0
H512 H 0.39475 0.86612 0.12418 0.0
H513 H 0.42084 0.84629 0.11776 0.0
H514 H 0.47545 0.87805 0.14785 0.0
H515 H 0.53494 0.94251 0.15915 0.0
H516 H 0.49024 0.1945 0.45996 0.0
H517 H 0.49939 0.25085 0.46908 0.0
H518 H 0.62814 0.3047 0.49304 0.0
H519 H 0.6201 0.2491 0.48294 0.0
H520 H 0.51419 0.28578 0.50731 0.0
H521 H 0.64614 0.37969 0.45894 0.0
H522 H 0.61722 0.33101 0.45472 0.0
H523 H 0.65945 0.35845 0.475 0.0
C524 C 0.5209 0.21855 0.46666 0.0
C525 C 0.55445 0.21715 0.47065 0.0
C526 C 0.52596 0.25072 0.47203 0.0
C527 C 0.56465 0.28223 0.48147 0.0
C528 C 0.59831 0.28105 0.48532 0.0
H529 H 0.64747 0.48272 0.55248 0.0
H530 H 0.64003 0.43074 0.5337 0.0
C531 C 0.5934 0.24898 0.47983 0.0
C532 C 0.5687 0.31542 0.48873 0.0
H533 H 0.63119 0.40742 0.48714 0.0
C534 C 0.53942 0.31227 0.50265 0.0
C535 C 0.60165 0.35004 0.48266 0.0
C536 C 0.63262 0.35499 0.46684 0.0
C537 C 0.54301 0.34288 0.51119 0.0
C538 C 0.5766 0.37753 0.50557 0.0
C539 C 0.6055 0.38074 0.49141 0.0
C540 C 0.58323 0.41087 0.51515 0.0
C541 C 0.51171 0.33818 0.52672 0.0
C542 C 0.55434 0.41736 0.5105 0.0
C543 C 0.55856 0.44709 0.52116 0.0
C544 C 0.59161 0.47063 0.53673 0.0
C545 C 0.62144 0.4648 0.54072 0.0
C546 C 0.61736 0.43527 0.52996 0.0
H547 H 0.49153 0.31049 0.53178 0.0
H548 H 0.52876 0.35856 0.54079 0.0
H549 H 0.49055 0.34275 0.51943 0.0
H550 H 0.52792 0.39889 0.49901 0.0
H551 H 0.53496 0.45075 0.51786 0.0
H552 H 0.44597 0.46598 0.84715 0.0
H553 H 0.3855 0.46729 0.84705 0.0
H554 H 0.4712 0.58249 0.8422 0.0
H555 H 0.53126 0.58081 0.84118 0.0
H556 H 0.35852 0.49496 0.87065 0.0
H557 H 0.38867 0.55859 0.79807 0.0
H558 H 0.41831 0.54369 0.8059 0.0
H559 H 0.43354 0.58757 0.8166 0.0
C560 C 0.45205 0.49162 0.84589 0.0
C561 C 0.49402 0.52321 0.84397 0.0
C562 C 0.41713 0.49239 0.84587 0.0
C563 C 0.42265 0.52481 0.84407 0.0
C564 C 0.46485 0.5566 0.84275 0.0
H565 H 0.26814 0.59739 0.86411 0.0
H566 H 0.32276 0.58922 0.85919 0.0
C567 C 0.49967 0.55572 0.8424 0.0
C568 C 0.38475 0.52545 0.84419 0.0
H569 H 0.33957 0.55798 0.82029 0.0
C570 C 0.35436 0.50839 0.85938 0.0
C571 C 0.37803 0.5426 0.82953 0.0
C572 C 0.40611 0.55877 0.81149 0.0
C573 C 0.31925 0.50906 0.86072 0.0
C574 C 0.31363 0.52735 0.84659 0.0
C575 C 0.34348 0.54397 0.83124 0.0
C576 C 0.2789 0.53169 0.84843 0.0
C577 C 0.28887 0.49109 0.87772 0.0
C578 C 0.23523 0.50229 0.84365 0.0
C579 C 0.20345 0.50711 0.8461 0.0
C580 C 0.2145 0.5414 0.85367 0.0
C581 C 0.25818 0.57061 0.85814 0.0
C582 C 0.28971 0.56597 0.85538 0.0
H583 H 0.29972 0.48122 0.88884 0.0
H584 H 0.28512 0.51047 0.88662 0.0
H585 H 0.25708 0.46753 0.87052 0.0
H586 H 0.22564 0.47549 0.83814 0.0
H587 H 0.1703 0.48383 0.84271 0.0
H588 H 0.95533 0.44578 0.17854 0.0
H589 H 0.89096 0.38358 0.18019 0.0
H590 H 0.92381 0.34635 0.12544 0.0
H591 H 0.98824 0.4088 0.12343 0.0
H592 H 0.82293 0.33608 0.14617 0.0
H593 H 0.9024 0.27974 0.1716 0.0
H594 H 0.92831 0.328 0.17501 0.0
H595 H 0.92229 0.30537 0.14948 0.0
C596 C 0.94886 0.42454 0.16671 0.0
C597 C 0.97693 0.43249 0.15074 0.0
C598 C 0.91206 0.38891 0.16775 0.0
C599 C 0.90276 0.36033 0.15303 0.0
C600 C 0.93064 0.36799 0.13708 0.0
H601 H 0.69065 0.12616 0.15411 0.0
H602 H 0.75419 0.18357 0.1436 0.0
C603 C 0.96738 0.40374 0.13593 0.0
C604 C 0.86347 0.32267 0.15434 0.0
H605 H 0.82752 0.23982 0.16765 0.0
C606 C 0.82389 0.31494 0.15072 0.0
C607 C 0.86484 0.29506 0.16007 0.0
C608 C 0.90664 0.30224 0.1644 0.0
C609 C 0.7856 0.28049 0.15303 0.0
C610 C 0.7869 0.25328 0.15967 0.0
C611 C 0.8265 0.26065 0.16259 0.0
C612 C 0.74786 0.21826 0.16531 0.0
C613 C 0.74407 0.27362 0.14834 0.0
C614 C 0.72353 0.21866 0.18114 0.0
C615 C 0.68744 0.18614 0.18706 0.0
C616 C 0.67496 0.15239 0.17746 0.0
C617 C 0.69934 0.15178 0.16168 0.0
C618 C 0.73565 0.18453 0.15571 0.0
H619 H 0.74779 0.29166 0.13702 0.0
H620 H 0.71886 0.24486 0.14184 0.0
H621 H 0.7334 0.27955 0.16304 0.0
H622 H 0.73284 0.24422 0.18918 0.0
H623 H 0.66949 0.18741 0.19941 0.0
H624 H 0.08887 0.60919 0.09594 0.0
H625 H 0.09468 0.60767 0.05784 0.0
H626 H 1.0575 0.49922 0.05429 0.0
H627 H 1.05251 0.5009 0.0923 0.0
H628 H 0.12536 0.54277 0.03093 0.0
H629 H 0.99602 0.55138 0.01365 0.0
H630 H 1.03754 0.58799 0.03201 0.0
H631 H 1.00443 0.54225 0.03886 0.0
C632 C 0.08179 0.58502 0.08698 0.0
C633 C 0.06997 0.55508 0.097 0.0
C634 C 0.08495 0.58411 0.06523 0.0
C635 C 0.07589 0.55311 0.05318 0.0
C636 C 0.06451 0.52337 0.06326 0.0
H637 H 1.01339 0.48893 0.92033 0.0
H638 H 1.01522 0.49543 0.95861 0.0
C639 C 0.06154 0.52433 0.08496 0.0
C640 C 0.07831 0.55144 0.03006 0.0
H641 H 1.0356 0.55376 0.9852 0.0
C642 C 0.1058 0.54523 0.02091 0.0
C643 C 1.05238 0.55421 0.01702 0.0
C644 C 1.02062 0.55898 0.02581 0.0
C645 C 0.108 0.54165 -0.00094 0.0
C646 C 0.08263 0.54509 0.98605 0.0
C647 C 1.05526 0.5514 0.99521 0.0
C648 C 0.08253 0.54073 0.96284 0.0
C649 C 0.1365 0.53312 0.99011 0.0
C650 C 0.1198 0.56401 0.95246 0.0
C651 C 0.11886 0.56025 0.93054 0.0
C652 C 0.08049 0.53346 0.91862 0.0
C653 C 1.04333 0.5101 0.92908 0.0
C654 C 1.04435 0.51373 0.95094 0.0
H655 H 0.14519 0.52223 0.00167 0.0
H656 H 0.12089 0.51298 0.97586 0.0
H657 H 0.16635 0.55844 0.98568 0.0
H658 H 0.14944 0.58553 0.9613 0.0
H659 H 0.14787 0.57891 0.9229 0.0
H660 H 0.53561 0.01112 0.4202 0.0
H661 H 0.52962 0.01157 0.38231 0.0
H662 H 0.66357 0.06346 0.37905 0.0
H663 H 0.66958 0.06254 0.41677 0.0
H664 H 0.57184 0.06967 0.35814 0.0
H665 H 0.60833 0.97452 0.33514 0.0
H666 H 0.59508 0.98063 0.36132 0.0
H667 H 0.64793 0.01328 0.35312 0.0
C668 C 0.56371 0.02255 0.41136 0.0
C669 C 0.60297 0.03645 0.42131 0.0
C670 C 0.56028 0.02285 0.38976 0.0
C671 C 0.59599 0.03694 0.37783 0.0
C672 C 0.63543 0.0517 0.38789 0.0
H673 H 0.64306 0.06098 0.24625 0.0
H674 H 0.64949 0.06547 0.28453 0.0
C675 C 0.63885 0.05131 0.40943 0.0
C676 C 0.59214 0.0363 0.35487 0.0
H677 H 0.60601 1.00425 0.30808 0.0
C678 C 0.5791 0.05524 0.34717 0.0
C679 C 0.60158 0.01737 0.34062 0.0
C680 C 0.61362 0.995 0.34791 0.0
C681 C 0.57607 0.05637 0.32557 0.0
C682 C 0.58592 0.03774 0.31137 0.0
C683 C 0.5988 0.01871 0.31906 0.0
C684 C 0.58229 0.03698 0.28841 0.0
C685 C 0.56312 0.07799 0.3181 0.0
C686 C 0.54238 0.01946 0.27798 0.0
C687 C 0.53863 0.01688 0.25617 0.0
C688 C 0.57474 0.0317 0.24439 0.0
C689 C 0.61477 0.04966 0.25492 0.0
C690 C 0.61846 0.05208 0.27674 0.0
H691 H 0.56631 0.09742 0.33095 0.0
H692 H 0.58267 0.09341 0.30518 0.0
H693 H 0.5293 0.05903 0.31202 0.0
H694 H 0.51401 0.00717 0.28669 0.0
H695 H 0.50742 1.00314 0.2485 0.0
H696 H 0.65453 0.545 0.7864 0.0
H697 H 0.6624 0.55524 0.74937 0.0
H698 H 0.52708 0.47212 0.73652 0.0
H699 H 0.51904 0.46173 0.77342 0.0
H700 H 0.57793 0.46501 0.70888 0.0
H701 H 0.62537 0.60488 0.71719 0.0
H702 H 0.6559 0.59833 0.73346 0.0
H703 H 0.60061 0.57549 0.73762 0.0
C704 C 0.62646 0.52917 0.77568 0.0
C705 C 0.58615 0.50265 0.78273 0.0
C706 C 0.63098 0.53513 0.75458 0.0
C707 C 0.59524 0.51469 0.74028 0.0
C708 C 0.55501 0.48824 0.74734 0.0
H709 H 0.55302 0.5366 0.61388 0.0
H710 H 0.55597 0.5357 0.65177 0.0
C711 C 0.55047 0.48234 0.76839 0.0
C712 C 0.59968 0.5197 0.71776 0.0
H713 H 0.62547 0.58014 0.68321 0.0
C714 C 0.58847 0.49021 0.70325 0.0
C715 C 0.61312 0.55253 0.71052 0.0
C716 C 0.62416 0.5846 0.72544 0.0
C717 C 0.5902 0.49259 0.68163 0.0
C718 C 0.60401 0.52552 0.67437 0.0
C719 C 0.61527 0.55506 0.68887 0.0
C720 C 0.60504 0.52907 0.6517 0.0
C721 C 0.57613 0.45953 0.6667 0.0
C722 C 0.63241 0.52652 0.63922 0.0
C723 C 0.63095 0.52719 0.61756 0.0
C724 C 0.60218 0.53055 0.60802 0.0
C725 C 0.57583 0.53434 0.62073 0.0
C726 C 0.57735 0.53369 0.64237 0.0
H727 H 0.55808 0.43433 0.67453 0.0
H728 H 0.55587 0.4556 0.65329 0.0
H729 H 0.60459 0.46352 0.66038 0.0
H730 H 0.65453 0.52356 0.6462 0.0
H731 H 0.65219 0.52486 0.60827 0.0
H732 H 0.50089 0.02312 0.54134 0.0
H733 H 0.50734 0.01896 0.57852 0.0
H734 H 0.6399 0.06696 0.57331 0.0
H735 H 0.63396 0.0724 0.53627 0.0
H736 H 0.52859 0.98203 0.59712 0.0
H737 H 0.64578 0.13034 0.62314 0.0
H738 H 0.61781 0.11274 0.59762 0.0
H739 H 0.66292 0.11391 0.60258 0.0
C740 C 0.53147 0.03301 0.54818 0.0
C741 C 0.56694 0.0481 0.53598 0.0
C742 C 0.53508 0.0305 0.56938 0.0
C743 C 0.57422 0.04306 0.57876 0.0
C744 C 0.60962 0.05779 0.56652 0.0
H745 H 0.63258 0.0278 0.70625 0.0
H746 H 0.63208 0.02943 0.66816 0.0
C747 C 0.6061 0.06059 0.54533 0.0
C748 C 0.57755 0.04023 0.6013 0.0
H749 H 0.62795 0.09055 0.64852 0.0
C750 C 0.55038 1.00576 0.60833 0.0
C751 C 0.60596 0.07126 0.61594 0.0
C752 C 0.63452 0.1092 0.60953 0.0
C753 C 0.55073 1.00154 0.62961 0.0
C754 C 0.57896 0.03251 0.64414 0.0
C755 C 0.60659 0.06688 0.63718 0.0
C756 C 0.57839 0.03001 0.66686 0.0
C757 C 0.52067 0.96417 0.6366 0.0
C758 C 0.54825 0.02967 0.67851 0.0
C759 C 0.5485 0.02885 0.70016 0.0
C760 C 0.57886 0.02822 0.71049 0.0
C761 C 0.60862 0.02796 0.69867 0.0
C762 C 0.60852 0.02906 0.67699 0.0
H763 H 0.50345 0.94239 0.62315 0.0
H764 H 0.53853 0.95872 0.64634 0.0
H765 H 0.49693 0.96304 0.64649 0.0
H766 H 0.52481 0.03042 0.67087 0.0
H767 H 0.52494 0.0287 0.70884 0.0
H768 H 0.55525 0.5006 0.89761 0.0
H769 H 0.54916 0.48856 0.93432 0.0
H770 H 0.68572 0.56531 0.9449 0.0
H771 H 0.69208 0.57768 0.90832 0.0
H772 H 0.63265 0.48678 0.96104 0.0
H773 H 0.58564 0.57499 0.98458 0.0
H774 H 0.56115 0.54372 0.96086 0.0
H775 H 0.61662 0.58188 0.96217 0.0
C776 C 0.58394 0.51473 0.90776 0.0
C777 C 0.62412 0.54024 0.90024 0.0
C778 C 0.58041 0.5078 0.92864 0.0
C779 C 0.61701 0.52611 0.94219 0.0
C780 C 0.65719 0.55091 0.93459 0.0
H781 H 0.67801 0.53596 0.07263 0.0
H782 H 0.67621 0.53199 0.03427 0.0
C783 C 0.66073 0.55803 0.91377 0.0
C784 C 0.61339 0.52087 0.9646 0.0
H785 H 0.59157 0.54696 0.01091 0.0
C786 C 0.62348 0.49971 0.97201 0.0
C787 C 0.60128 0.53774 0.97869 0.0
C788 C 0.59064 0.56103 0.97135 0.0
C789 C 0.62165 0.4949 0.99334 0.0
C790 C 0.61053 0.51255 0.00759 0.0
C791 C 0.60002 0.53338 1e-05 0.0
C792 C 0.61038 0.51071 0.03051 0.0
C793 C 0.63102 0.47058 0.00031 0.0
C794 C 0.57412 0.50017 0.04117 0.0
C795 C 0.57539 0.50302 0.06302 0.0
C796 C 0.61289 0.51626 0.07462 0.0
C797 C 0.64861 0.52526 0.06398 0.0
C798 C 0.6475 0.52284 0.04208 0.0
H799 H 0.62547 0.45051 0.98716 0.0
H800 H 0.66499 0.48751 0.00599 0.0
H801 H 0.61108 0.4556 0.01325 0.0
H802 H 0.54516 0.49078 0.0326 0.0
H803 H 0.54738 0.49576 0.0709 0.0
H804 H 0.08678 0.47491 0.20364 0.0
H805 H 0.07741 0.47431 0.24147 0.0
H806 H 0.12392 0.58576 0.24697 0.0
H807 H 0.13411 0.58673 0.20931 0.0
H808 H 0.14238 0.52387 0.27497 0.0
H809 H 1.00734 0.52957 0.27495 0.0
H810 H 1.02195 0.51569 0.25157 0.0
H811 H 1.05237 0.56307 0.26133 0.0
C812 C 0.0951 0.49927 0.21297 0.0
C813 C 0.11055 0.53071 0.20358 0.0
C814 C 0.08959 0.49884 0.2345 0.0
C815 C 0.09918 0.52975 0.24687 0.0
C816 C 0.11542 0.56138 0.23757 0.0
H817 H 0.10462 0.59979 0.37629 0.0
H818 H 0.10328 0.59077 0.3381 0.0
C819 C 0.12121 0.5619 0.2161 0.0
C820 C 0.09369 0.52949 0.26967 0.0
H821 H 1.04011 0.53864 0.3082 0.0
C822 C 0.11975 0.52671 0.28227 0.0
C823 C 0.0642 0.53333 0.27903 0.0
C824 C 1.03456 0.53529 0.26606 0.0
C825 C 0.11821 0.52897 0.30416 0.0
C826 C 0.08901 0.5332 0.31361 0.0
C827 C 0.06238 0.53531 0.30092 0.0
C828 C 0.08718 0.5373 0.33669 0.0
C829 C 0.14906 0.52828 0.317 0.0
C830 C 0.07756 0.50986 0.34855 0.0
C831 C 0.07884 0.51513 0.37044 0.0
C832 C 0.08942 0.54785 0.38084 0.0
C833 C 0.09725 0.5746 0.36881 0.0
C834 C 0.09614 0.56937 0.34697 0.0
H835 H 0.17596 0.53393 0.30784 0.0
H836 H 0.16223 0.54861 0.33118 0.0
H837 H 0.13215 0.5009 0.32217 0.0
H838 H 0.06969 0.48457 0.3409 0.0
H839 H 0.07278 0.49402 0.37921 0.0
loop_
_geom_bond_atom_site_label_1
_geom_bond_atom_site_label_2
_geom_bond_distance
_geom_bond_site_symmetry_2
_ccdc_geom_bond_type
Ho0 C3 2.811 . S
Ho0 O20 2.322 . S
Ho0 O22 2.378 . S
Ho0 O23 2.524 . S
Ho0 O24 2.381 . S
Ho0 O25 2.669 . S
Ho0 O27 2.346 . S
Ho0 O31 2.305 . S
Ho1 C12 2.811 1_455 S
Ho1 O21 2.346 . S
Ho1 O25 2.305 . S
Ho1 O26 2.322 1_455 S
Ho1 O28 2.378 1_455 S
Ho1 O29 2.524 1_455 S
Ho1 O30 2.381 . S
Ho1 O31 2.669 . S
C2 O20 1.259 . S
C2 O21 1.268 . S
C3 Ho0 2.811 . S
C3 C4 1.488 . S
C3 O22 1.215 . S
C3 O23 1.289 . S
C4 C3 1.488 . S
C4 C5 1.348 . S
C4 C9 1.413 . S
C5 C4 1.348 . S
C5 C6 1.442 . S
C5 H32 0.930 . S
C6 C5 1.442 . S
C6 C7 1.381 . S
C6 H33 0.931 . S
C7 C6 1.381 . S
C7 C8 1.321 . S
C8 C7 1.321 . S
C8 C9 1.403 . S
C8 H34 0.934 . S
C9 C4 1.413 . S
C9 C8 1.403 . S
C9 H35 0.930 . S
C10 O24 1.275 . S
C10 O25 1.256 . S
C11 O26 1.259 . S
C11 O27 1.268 1_655 S
C12 Ho1 2.811 1_655 S
C12 C13 1.488 . S
C12 O28 1.215 . S
C12 O29 1.289 . S
C13 C12 1.488 . S
C13 C14 1.348 . S
C13 C18 1.413 . S
C14 C13 1.348 . S
C14 C15 1.442 . S
C14 H36 0.930 . S
C15 C14 1.442 . S
C15 C16 1.381 . S
C15 H37 0.931 . S
C16 C15 1.381 . S
C16 C17 1.321 . S
C17 C16 1.321 . S
C17 C18 1.403 . S
C17 H38 0.934 . S
C18 C13 1.413 . S
C18 C17 1.403 . S
C18 H39 0.930 . S
C19 O30 1.275 . S
C19 O31 1.256 . S
O20 Ho0 2.322 . S
O20 C2 1.259 . S
O21 Ho1 2.346 . S
O21 C2 1.268 . S
O22 Ho0 2.378 . S
O22 C3 1.215 . S
O23 Ho0 2.524 . S
O23 C3 1.289 . S
O24 Ho0 2.381 . S
O24 C10 1.275 . S
O25 Ho0 2.669 . S
O25 Ho1 2.305 . S
O25 C10 1.256 . S
O26 Ho1 2.322 1_655 S
O26 C11 1.259 . S
O27 Ho0 2.346 . S
O27 C11 1.268 1_455 S
O28 Ho1 2.378 1_655 S
O28 C12 1.215 . S
O29 Ho1 2.524 1_655 S
O29 C12 1.289 . S
O30 Ho1 2.381 . S
O30 C19 1.275 . S
O31 Ho0 2.305 . S
O31 Ho1 2.669 . S
O31 C19 1.256 . S
H32 C5 0.930 . S
H33 C6 0.931 . S
H34 C8 0.934 . S
H35 C9 0.930 . S
H36 C14 0.930 . S
H37 C15 0.931 . S
H38 C17 0.934 . S
H39 C18 0.930 . S
Ho40 C43 2.811 1_545 S
Ho40 O60 2.322 1_545 S
Ho40 O62 2.378 1_545 S
Ho40 O63 2.524 1_545 S
Ho40 O64 2.381 . S
Ho40 O65 2.669 . S
Ho40 O67 2.346 . S
Ho40 O71 2.305 . S
Ho41 C52 2.811 . S
Ho41 O61 2.346 1_545 S
Ho41 O65 2.305 . S
Ho41 O66 2.322 . S
Ho41 O68 2.378 . S
Ho41 O69 2.524 . S
Ho41 O70 2.381 . S
Ho41 O71 2.669 . S
C42 O60 1.259 . S
C42 O61 1.268 . S
C43 Ho40 2.811 1_565 S
C43 C44 1.488 . S
C43 O62 1.215 . S
C43 O63 1.289 . S
C44 C43 1.488 . S
C44 C45 1.348 . S
C44 C49 1.413 . S
C45 C44 1.348 . S
C45 C46 1.442 . S
C45 H72 0.930 . S
C46 C45 1.442 . S
C46 C47 1.381 . S
C46 H73 0.931 . S
C47 C46 1.381 . S
C47 C48 1.321 . S
C48 C47 1.321 . S
C48 C49 1.403 . S
C48 H74 0.934 . S
C49 C44 1.413 . S
C49 C48 1.403 . S
C49 H75 0.930 . S
C50 O64 1.275 . S
C50 O65 1.256 . S
C51 O66 1.259 . S
C51 O67 1.268 . S
C52 Ho41 2.811 . S
C52 C53 1.488 . S
C52 O68 1.215 . S
C52 O69 1.289 . S
C53 C52 1.488 . S
C53 C54 1.348 . S
C53 C58 1.413 . S
C54 C53 1.348 . S
C54 C55 1.442 . S
C54 H76 0.930 . S
C55 C54 1.442 . S
C55 C56 1.381 . S
C55 H77 0.931 . S
C56 C55 1.381 . S
C56 C57 1.321 . S
C57 C56 1.321 . S
C57 C58 1.403 . S
C57 H78 0.934 . S
C58 C53 1.413 . S
C58 C57 1.403 . S
C58 H79 0.930 . S
C59 O70 1.275 . S
C59 O71 1.256 . S
O60 Ho40 2.322 1_565 S
O60 C42 1.259 . S
O61 Ho41 2.346 1_565 S
O61 C42 1.268 . S
O62 Ho40 2.378 1_565 S
O62 C43 1.215 . S
O63 Ho40 2.524 1_565 S
O63 C43 1.289 . S
O64 Ho40 2.381 . S
O64 C50 1.275 . S
O65 Ho40 2.669 . S
O65 Ho41 2.305 . S
O65 C50 1.256 . S
O66 Ho41 2.322 . S
O66 C51 1.259 . S
O67 Ho40 2.346 . S
O67 C51 1.268 . S
O68 Ho41 2.378 . S
O68 C52 1.215 . S
O69 Ho41 2.524 . S
O69 C52 1.289 . S
O70 Ho41 2.381 . S
O70 C59 1.275 . S
O71 Ho40 2.305 . S
O71 Ho41 2.669 . S
O71 C59 1.256 . S
H72 C45 0.930 . S
H73 C46 0.931 . S
H74 C48 0.934 . S
H75 C49 0.930 . S
H76 C54 0.930 . S
H77 C55 0.931 . S
H78 C57 0.934 . S
H79 C58 0.930 . S
Ho80 C83 2.811 . S
Ho80 O100 2.322 . S
Ho80 O102 2.378 . S
Ho80 O103 2.524 . S
Ho80 O104 2.381 . S
Ho80 O105 2.669 . S
Ho80 O107 2.346 . S
Ho80 O111 2.305 . S
Ho81 C92 2.811 . S
Ho81 O101 2.346 . S
Ho81 O105 2.305 . S
Ho81 O106 2.322 . S
Ho81 O108 2.378 . S
Ho81 O109 2.524 . S
Ho81 O110 2.381 . S
Ho81 O111 2.669 . S
C82 O100 1.259 . S
C82 O101 1.268 . S
C83 Ho80 2.811 . S
C83 C84 1.488 . S
C83 O102 1.215 . S
C83 O103 1.289 . S
C84 C83 1.488 . S
C84 C85 1.348 . S
C84 C89 1.413 . S
C85 C84 1.348 . S
C85 C86 1.442 . S
C85 H112 0.930 . S
C86 C85 1.442 . S
C86 C87 1.381 . S
C86 H113 0.931 . S
C87 C86 1.381 . S
C87 C88 1.321 . S
C88 C87 1.321 . S
C88 C89 1.403 . S
C88 H114 0.934 . S
C89 C84 1.413 . S
C89 C88 1.403 . S
C89 H115 0.930 . S
C90 O104 1.275 . S
C90 O105 1.256 . S
C91 O106 1.259 . S
C91 O107 1.268 . S
C92 Ho81 2.811 . S
C92 C93 1.488 . S
C92 O108 1.215 . S
C92 O109 1.289 . S
C93 C92 1.488 . S
C93 C94 1.348 . S
C93 C98 1.413 . S
C94 C93 1.348 . S
C94 C95 1.442 . S
C94 H116 0.930 . S
C95 C94 1.442 . S
C95 C96 1.381 . S
C95 H117 0.931 . S
C96 C95 1.381 . S
C96 C97 1.321 . S
C97 C96 1.321 . S
C97 C98 1.403 . S
C97 H118 0.934 . S
C98 C93 1.413 . S
C98 C97 1.403 . S
C98 H119 0.930 . S
C99 O110 1.275 . S
C99 O111 1.256 . S
O100 Ho80 2.322 . S
O100 C82 1.259 . S
O101 Ho81 2.346 . S
O101 C82 1.268 . S
O102 Ho80 2.378 . S
O102 C83 1.215 . S
O103 Ho80 2.524 . S
O103 C83 1.289 . S
O104 Ho80 2.381 . S
O104 C90 1.275 . S
O105 Ho80 2.669 . S
O105 Ho81 2.305 . S
O105 C90 1.256 . S
O106 Ho81 2.322 . S
O106 C91 1.259 . S
O107 Ho80 2.346 . S
O107 C91 1.268 . S
O108 Ho81 2.378 . S
O108 C92 1.215 . S
O109 Ho81 2.524 . S
O109 C92 1.289 . S
O110 Ho81 2.381 . S
O110 C99 1.275 . S
O111 Ho80 2.305 . S
O111 Ho81 2.669 . S
O111 C99 1.256 . S
H112 C85 0.930 . S
H113 C86 0.931 . S
H114 C88 0.934 . S
H115 C89 0.930 . S
H116 C94 0.930 . S
H117 C95 0.931 . S
H118 C97 0.934 . S
H119 C98 0.930 . S
H120 C125 0.930 . S
H121 C128 0.930 . S
H122 C130 0.930 1_565 S
H123 C124 1.016 . S
C124 H123 1.016 . S
C124 N131 1.286 . S
C125 H120 0.930 . S
C125 C126 1.397 . S
C125 C127 1.361 . S
C126 C125 1.397 . S
C126 C130 1.390 . S
C127 C125 1.361 . S
C127 C128 1.393 . S
C127 N131 1.413 . S
C128 H121 0.930 . S
C128 C127 1.393 . S
C128 C129 1.399 . S
C129 C128 1.399 . S
C129 C130 1.381 . S
C130 H122 0.930 1_545 S
C130 C126 1.390 . S
C130 C129 1.381 . S
N131 C124 1.286 . S
N131 C127 1.413 . S
H132 C137 0.930 . S
H133 C140 0.930 . S
H134 C142 0.930 . S
H135 C136 1.016 . S
C136 H135 1.016 . S
C136 N143 1.286 . S
C137 H132 0.930 . S
C137 C138 1.397 . S
C137 C139 1.361 . S
C138 C137 1.397 . S
C138 C142 1.390 . S
C139 C137 1.361 . S
C139 C140 1.393 . S
C139 N143 1.413 . S
C140 H133 0.930 . S
C140 C139 1.393 . S
C140 C141 1.399 . S
C141 C140 1.399 . S
C141 C142 1.381 . S
C142 H134 0.930 . S
C142 C138 1.390 . S
C142 C141 1.381 . S
N143 C136 1.286 . S
N143 C139 1.413 . S
H144 C149 0.930 . S
H145 C152 0.930 . S
H146 C154 0.930 . S
H147 C148 1.016 . S
C148 H147 1.016 . S
C148 N155 1.286 . S
C149 H144 0.930 . S
C149 C150 1.397 . S
C149 C151 1.361 . S
C150 C149 1.397 . S
C150 C154 1.390 . S
C151 C149 1.361 . S
C151 C152 1.393 . S
C151 N155 1.413 . S
C152 H145 0.930 . S
C152 C151 1.393 . S
C152 C153 1.399 . S
C153 C152 1.399 . S
C153 C154 1.381 . S
C154 H146 0.930 . S
C154 C150 1.390 . S
C154 C153 1.381 . S
N155 C148 1.286 . S
N155 C151 1.413 . S
H156 C161 0.930 . S
H157 C164 0.930 . S
H158 C166 0.930 . S
H159 C160 1.016 . S
C160 H159 1.016 . S
C160 N167 1.286 . S
C161 H156 0.930 . S
C161 C162 1.397 . S
C161 C163 1.361 1_455 S
C162 C161 1.397 . S
C162 C166 1.390 . S
C163 C161 1.361 1_655 S
C163 C164 1.393 . S
C163 N167 1.413 . S
C164 H157 0.930 . S
C164 C163 1.393 . S
C164 C165 1.399 1_655 S
C165 C164 1.399 1_455 S
C165 C166 1.381 . S
C166 H158 0.930 . S
C166 C162 1.390 . S
C166 C165 1.381 . S
N167 C160 1.286 . S
N167 C163 1.413 . S
H168 C173 0.930 . S
H169 C176 0.930 . S
H170 C178 0.930 . S
H171 C172 1.016 . S
C172 H171 1.016 . S
C172 N179 1.286 . S
C173 H168 0.930 . S
C173 C174 1.397 . S
C173 C175 1.361 . S
C174 C173 1.397 . S
C174 C178 1.390 . S
C175 C173 1.361 . S
C175 C176 1.393 1_545 S
C175 N179 1.413 1_545 S
C176 H169 0.930 . S
C176 C175 1.393 1_565 S
C176 C177 1.399 1_565 S
C177 C176 1.399 1_545 S
C177 C178 1.381 . S
C178 H170 0.930 . S
C178 C174 1.390 . S
C178 C177 1.381 . S
N179 C172 1.286 . S
N179 C175 1.413 1_565 S
H180 C185 0.930 . S
H181 C188 0.930 . S
H182 C190 0.930 . S
H183 C184 1.016 . S
C184 H183 1.016 . S
C184 N191 1.286 . S
C185 H180 0.930 . S
C185 C186 1.397 . S
C185 C187 1.361 . S
C186 C185 1.397 . S
C186 C190 1.390 . S
C187 C185 1.361 . S
C187 C188 1.393 . S
C187 N191 1.413 . S
C188 H181 0.930 . S
C188 C187 1.393 . S
C188 C189 1.399 . S
C189 C188 1.399 . S
C189 C190 1.381 . S
C190 H182 0.930 . S
C190 C186 1.390 . S
C190 C189 1.381 . S
N191 C184 1.286 . S
N191 C187 1.413 . S
H192 C200 0.929 . S
H193 C202 0.930 . S
H194 C204 0.930 . S
H195 C207 0.929 . S
H196 C210 0.930 . S
H197 C212 0.960 . S
H198 C212 0.960 . S
H199 C212 0.960 . S
C200 H192 0.929 . S
C200 C201 1.377 . S
C200 C202 1.384 . S
C201 C200 1.377 . S
C201 C207 1.390 . S
C202 H193 0.930 . S
C202 C200 1.384 . S
C202 C203 1.372 . S
C203 C202 1.372 . S
C203 C204 1.400 . S
C203 C208 1.490 . S
C204 H194 0.930 . S
C204 C203 1.400 . S
C204 C207 1.386 . S
H205 C221 0.930 . S
H206 C222 0.931 . S
C207 H195 0.929 . S
C207 C201 1.390 . S
C207 C204 1.386 . S
C208 C203 1.490 . S
C208 C210 1.395 . S
C208 C211 1.403 . S
H209 C215 0.930 . S
C210 H196 0.930 . S
C210 C208 1.395 . S
C210 C213 1.403 . S
C211 C208 1.403 . S
C211 C212 1.524 . S
C211 C215 1.400 . S
C212 H197 0.960 . S
C212 H198 0.960 . S
C212 H199 0.960 . S
C212 C211 1.524 . S
C213 C210 1.403 . S
C213 C214 1.392 . S
C213 C217 1.495 . S
C214 C213 1.392 . S
C214 C215 1.385 . S
C214 C216 1.478 . S
C215 H209 0.930 . S
C215 C211 1.400 . S
C215 C214 1.385 . S
C216 C214 1.478 . S
C216 C218 1.381 . S
C216 C222 1.383 . S
C217 C213 1.495 . S
C217 H223 0.959 . S
C217 H224 0.961 . S
C217 H225 0.960 . S
C218 C216 1.381 . S
C218 C219 1.394 . S
C218 H226 0.930 . S
C219 C218 1.394 . S
C219 C220 1.383 . S
C219 H227 0.929 . S
C220 C219 1.383 . S
C220 C221 1.377 . S
C221 H205 0.930 . S
C221 C220 1.377 . S
C221 C222 1.379 . S
C222 H206 0.931 . S
C222 C216 1.383 . S
C222 C221 1.379 . S
H223 C217 0.959 . S
H224 C217 0.961 . S
H225 C217 0.960 . S
H226 C218 0.930 . S
H227 C219 0.929 . S
H228 C236 0.929 . S
H229 C238 0.930 . S
H230 C240 0.930 . S
H231 C243 0.929 . S
H232 C246 0.930 . S
H233 C248 0.960 . S
H234 C248 0.960 . S
H235 C248 0.960 . S
C236 H228 0.929 . S
C236 C237 1.377 . S
C236 C238 1.384 . S
C237 C236 1.377 . S
C237 C243 1.390 . S
C238 H229 0.930 . S
C238 C236 1.384 . S
C238 C239 1.372 . S
C239 C238 1.372 . S
C239 C240 1.400 . S
C239 C244 1.490 . S
C240 H230 0.930 . S
C240 C239 1.400 . S
C240 C243 1.386 . S
H241 C257 0.930 . S
H242 C258 0.931 . S
C243 H231 0.929 . S
C243 C237 1.390 . S
C243 C240 1.386 . S
C244 C239 1.490 . S
C244 C246 1.395 . S
C244 C247 1.403 . S
H245 C251 0.930 . S
C246 H232 0.930 . S
C246 C244 1.395 . S
C246 C249 1.403 . S
C247 C244 1.403 . S
C247 C248 1.524 . S
C247 C251 1.400 . S
C248 H233 0.960 . S
C248 H234 0.960 . S
C248 H235 0.960 . S
C248 C247 1.524 . S
C249 C246 1.403 . S
C249 C250 1.392 . S
C249 C253 1.495 . S
C250 C249 1.392 . S
C250 C251 1.385 . S
C250 C252 1.478 . S
C251 H245 0.930 . S
C251 C247 1.400 . S
C251 C250 1.385 . S
C252 C250 1.478 . S
C252 C254 1.381 . S
C252 C258 1.383 . S
C253 C249 1.495 . S
C253 H259 0.959 . S
C253 H260 0.961 . S
C253 H261 0.960 . S
C254 C252 1.381 . S
C254 C255 1.394 . S
C254 H262 0.930 . S
C255 C254 1.394 . S
C255 C256 1.383 . S
C255 H263 0.929 . S
C256 C255 1.383 . S
C256 C257 1.377 . S
C257 H241 0.930 . S
C257 C256 1.377 . S
C257 C258 1.379 . S
C258 H242 0.931 . S
C258 C252 1.383 . S
C258 C257 1.379 . S
H259 C253 0.959 . S
H260 C253 0.961 . S
H261 C253 0.960 . S
H262 C254 0.930 . S
H263 C255 0.929 . S
H264 C272 0.929 . S
H265 C274 0.930 . S
H266 C276 0.930 . S
H267 C279 0.929 . S
H268 C282 0.930 . S
H269 C284 0.960 . S
H270 C284 0.960 . S
H271 C284 0.960 . S
C272 H264 0.929 . S
C272 C273 1.377 . S
C272 C274 1.384 . S
C273 C272 1.377 . S
C273 C279 1.390 . S
C274 H265 0.930 . S
C274 C272 1.384 . S
C274 C275 1.372 . S
C275 C274 1.372 . S
C275 C276 1.400 . S
C275 C280 1.490 . S
C276 H266 0.930 . S
C276 C275 1.400 . S
C276 C279 1.386 . S
H277 C293 0.930 . S
H278 C294 0.931 . S
C279 H267 0.929 . S
C279 C273 1.390 . S
C279 C276 1.386 . S
C280 C275 1.490 . S
C280 C282 1.395 . S
C280 C283 1.403 . S
H281 C287 0.930 . S
C282 H268 0.930 . S
C282 C280 1.395 . S
C282 C285 1.403 . S
C283 C280 1.403 . S
C283 C284 1.524 . S
C283 C287 1.400 . S
C284 H269 0.960 . S
C284 H270 0.960 . S
C284 H271 0.960 . S
C284 C283 1.524 . S
C285 C282 1.403 . S
C285 C286 1.392 . S
C285 C289 1.495 . S
C286 C285 1.392 . S
C286 C287 1.385 . S
C286 C288 1.478 . S
C287 H281 0.930 . S
C287 C283 1.400 . S
C287 C286 1.385 . S
C288 C286 1.478 . S
C288 C290 1.381 . S
C288 C294 1.383 . S
C289 C285 1.495 . S
C289 H295 0.959 . S
C289 H296 0.961 . S
C289 H297 0.960 . S
C290 C288 1.381 . S
C290 C291 1.394 . S
C290 H298 0.930 . S
C291 C290 1.394 . S
C291 C292 1.383 . S
C291 H299 0.929 . S
C292 C291 1.383 . S
C292 C293 1.377 . S
C293 H277 0.930 . S
C293 C292 1.377 . S
C293 C294 1.379 . S
C294 H278 0.931 . S
C294 C288 1.383 . S
C294 C293 1.379 . S
H295 C289 0.959 . S
H296 C289 0.961 . S
H297 C289 0.960 . S
H298 C290 0.930 . S
H299 C291 0.929 . S
H300 C308 0.929 . S
H301 C310 0.930 . S
H302 C312 0.930 . S
H303 C315 0.929 . S
H304 C318 0.930 . S
H305 C320 0.960 . S
H306 C320 0.960 . S
H307 C320 0.960 . S
C308 H300 0.929 . S
C308 C309 1.377 . S
C308 C310 1.384 . S
C309 C308 1.377 . S
C309 C315 1.390 . S
C310 H301 0.930 . S
C310 C308 1.384 . S
C310 C311 1.372 . S
C311 C310 1.372 . S
C311 C312 1.400 . S
C311 C316 1.490 . S
C312 H302 0.930 . S
C312 C311 1.400 . S
C312 C315 1.386 . S
H313 C329 0.930 . S
H314 C330 0.931 . S
C315 H303 0.929 . S
C315 C309 1.390 . S
C315 C312 1.386 . S
C316 C311 1.490 . S
C316 C318 1.395 . S
C316 C319 1.403 . S
H317 C323 0.930 . S
C318 H304 0.930 . S
C318 C316 1.395 . S
C318 C321 1.403 . S
C319 C316 1.403 . S
C319 C320 1.524 . S
C319 C323 1.400 . S
C320 H305 0.960 . S
C320 H306 0.960 . S
C320 H307 0.960 . S
C320 C319 1.524 . S
C321 C318 1.403 . S
C321 C322 1.392 . S
C321 C325 1.495 . S
C322 C321 1.392 . S
C322 C323 1.385 . S
C322 C324 1.478 . S
C323 H317 0.930 . S
C323 C319 1.400 . S
C323 C322 1.385 . S
C324 C322 1.478 . S
C324 C326 1.381 . S
C324 C330 1.383 . S
C325 C321 1.495 . S
C325 H331 0.959 . S
C325 H332 0.961 . S
C325 H333 0.960 . S
C326 C324 1.381 . S
C326 C327 1.394 . S
C326 H334 0.930 . S
C327 C326 1.394 . S
C327 C328 1.383 . S
C327 H335 0.929 . S
C328 C327 1.383 . S
C328 C329 1.377 . S
C329 H313 0.930 . S
C329 C328 1.377 . S
C329 C330 1.379 . S
C330 H314 0.931 . S
C330 C324 1.383 . S
C330 C329 1.379 . S
H331 C325 0.959 . S
H332 C325 0.961 . S
H333 C325 0.960 . S
H334 C326 0.930 . S
H335 C327 0.929 . S
H336 C344 0.929 . S
H337 C346 0.930 . S
H338 C348 0.930 . S
H339 C351 0.929 . S
H340 C354 0.930 . S
H341 C356 0.960 . S
H342 C356 0.960 . S
H343 C356 0.960 . S
C344 H336 0.929 . S
C344 C345 1.377 . S
C344 C346 1.384 . S
C345 C344 1.377 . S
C345 C351 1.390 . S
C346 H337 0.930 . S
C346 C344 1.384 . S
C346 C347 1.372 . S
C347 C346 1.372 . S
C347 C348 1.400 . S
C347 C352 1.490 . S
C348 H338 0.930 . S
C348 C347 1.400 . S
C348 C351 1.386 . S
H349 C365 0.930 . S
H350 C366 0.931 . S
C351 H339 0.929 . S
C351 C345 1.390 . S
C351 C348 1.386 . S
C352 C347 1.490 . S
C352 C354 1.395 . S
C352 C355 1.403 . S
H353 C359 0.930 . S
C354 H340 0.930 . S
C354 C352 1.395 . S
C354 C357 1.403 . S
C355 C352 1.403 . S
C355 C356 1.524 . S
C355 C359 1.400 . S
C356 H341 0.960 . S
C356 H342 0.960 . S
C356 H343 0.960 . S
C356 C355 1.524 . S
C357 C354 1.403 . S
C357 C358 1.392 . S
C357 C361 1.495 . S
C358 C357 1.392 . S
C358 C359 1.385 . S
C358 C360 1.478 . S
C359 H353 0.930 . S
C359 C355 1.400 . S
C359 C358 1.385 . S
C360 C358 1.478 . S
C360 C362 1.381 . S
C360 C366 1.383 . S
C361 C357 1.495 . S
C361 H367 0.959 . S
C361 H368 0.961 . S
C361 H369 0.960 . S
C362 C360 1.381 . S
C362 C363 1.394 . S
C362 H370 0.930 . S
C363 C362 1.394 . S
C363 C364 1.383 . S
C363 H371 0.929 . S
C364 C363 1.383 . S
C364 C365 1.377 . S
C365 H349 0.930 . S
C365 C364 1.377 . S
C365 C366 1.379 . S
C366 H350 0.931 . S
C366 C360 1.383 . S
C366 C365 1.379 . S
H367 C361 0.959 . S
H368 C361 0.961 . S
H369 C361 0.960 . S
H370 C362 0.930 . S
H371 C363 0.929 . S
H372 C380 0.929 . S
H373 C382 0.930 . S
H374 C384 0.930 . S
H375 C387 0.929 . S
H376 C390 0.930 . S
H377 C392 0.960 . S
H378 C392 0.960 . S
H379 C392 0.960 . S
C380 H372 0.929 . S
C380 C381 1.377 . S
C380 C382 1.384 . S
C381 C380 1.377 . S
C381 C387 1.390 . S
C382 H373 0.930 . S
C382 C380 1.384 . S
C382 C383 1.372 . S
C383 C382 1.372 . S
C383 C384 1.400 . S
C383 C388 1.490 . S
C384 H374 0.930 . S
C384 C383 1.400 . S
C384 C387 1.386 . S
H385 C401 0.930 . S
H386 C402 0.931 . S
C387 H375 0.929 . S
C387 C381 1.390 . S
C387 C384 1.386 . S
C388 C383 1.490 . S
C388 C390 1.395 . S
C388 C391 1.403 . S
H389 C395 0.930 . S
C390 H376 0.930 . S
C390 C388 1.395 . S
C390 C393 1.403 . S
C391 C388 1.403 . S
C391 C392 1.524 . S
C391 C395 1.400 . S
C392 H377 0.960 . S
C392 H378 0.960 . S
C392 H379 0.960 . S
C392 C391 1.524 . S
C393 C390 1.403 . S
C393 C394 1.392 . S
C393 C397 1.495 . S
C394 C393 1.392 . S
C394 C395 1.385 . S
C394 C396 1.478 . S
C395 H389 0.930 . S
C395 C391 1.400 . S
C395 C394 1.385 . S
C396 C394 1.478 . S
C396 C398 1.381 . S
C396 C402 1.383 . S
C397 C393 1.495 . S
C397 H403 0.959 . S
C397 H404 0.961 . S
C397 H405 0.960 . S
C398 C396 1.381 . S
C398 C399 1.394 . S
C398 H406 0.930 . S
C399 C398 1.394 . S
C399 C400 1.383 . S
C399 H407 0.929 . S
C400 C399 1.383 . S
C400 C401 1.377 . S
C401 H385 0.930 . S
C401 C400 1.377 . S
C401 C402 1.379 . S
C402 H386 0.931 . S
C402 C396 1.383 . S
C402 C401 1.379 . S
H403 C397 0.959 . S
H404 C397 0.961 . S
H405 C397 0.960 . S
H406 C398 0.930 . S
H407 C399 0.929 . S
H408 C416 0.929 . S
H409 C418 0.930 . S
H410 C420 0.930 . S
H411 C423 0.929 . S
H412 C426 0.930 . S
H413 C428 0.960 . S
H414 C428 0.960 . S
H415 C428 0.960 . S
C416 H408 0.929 . S
C416 C417 1.377 . S
C416 C418 1.384 . S
C417 C416 1.377 . S
C417 C423 1.390 . S
C418 H409 0.930 . S
C418 C416 1.384 . S
C418 C419 1.372 . S
C419 C418 1.372 . S
C419 C420 1.400 . S
C419 C424 1.490 . S
C420 H410 0.930 . S
C420 C419 1.400 . S
C420 C423 1.386 . S
H421 C437 0.930 . S
H422 C438 0.931 . S
C423 H411 0.929 . S
C423 C417 1.390 . S
C423 C420 1.386 . S
C424 C419 1.490 . S
C424 C426 1.395 . S
C424 C427 1.403 . S
H425 C431 0.930 . S
C426 H412 0.930 . S
C426 C424 1.395 . S
C426 C429 1.403 . S
C427 C424 1.403 . S
C427 C428 1.524 . S
C427 C431 1.400 . S
C428 H413 0.960 . S
C428 H414 0.960 . S
C428 H415 0.960 . S
C428 C427 1.524 . S
C429 C426 1.403 . S
C429 C430 1.392 . S
C429 C433 1.495 . S
C430 C429 1.392 . S
C430 C431 1.385 . S
C430 C432 1.478 . S
C431 H425 0.930 . S
C431 C427 1.400 . S
C431 C430 1.385 . S
C432 C430 1.478 . S
C432 C434 1.381 . S
C432 C438 1.383 . S
C433 C429 1.495 . S
C433 H439 0.959 . S
C433 H440 0.961 . S
C433 H441 0.960 . S
C434 C432 1.381 . S
C434 C435 1.394 . S
C434 H442 0.930 . S
C435 C434 1.394 . S
C435 C436 1.383 . S
C435 H443 0.929 . S
C436 C435 1.383 . S
C436 C437 1.377 . S
C437 H421 0.930 . S
C437 C436 1.377 . S
C437 C438 1.379 . S
C438 H422 0.931 . S
C438 C432 1.383 . S
C438 C437 1.379 . S
H439 C433 0.959 . S
H440 C433 0.961 . S
H441 C433 0.960 . S
H442 C434 0.930 . S
H443 C435 0.929 . S
H444 C452 0.929 . S
H445 C454 0.930 . S
H446 C456 0.930 . S
H447 C459 0.929 . S
H448 C462 0.930 . S
H449 C464 0.960 . S
H450 C464 0.960 . S
H451 C464 0.960 . S
C452 H444 0.929 . S
C452 C453 1.377 . S
C452 C454 1.384 . S
C453 C452 1.377 . S
C453 C459 1.390 . S
C454 H445 0.930 . S
C454 C452 1.384 . S
C454 C455 1.372 . S
C455 C454 1.372 . S
C455 C456 1.400 . S
C455 C460 1.490 . S
C456 H446 0.930 . S
C456 C455 1.400 . S
C456 C459 1.386 . S
H457 C473 0.930 . S
H458 C474 0.931 . S
C459 H447 0.929 . S
C459 C453 1.390 . S
C459 C456 1.386 . S
C460 C455 1.490 . S
C460 C462 1.395 . S
C460 C463 1.403 . S
H461 C467 0.930 . S
C462 H448 0.930 . S
C462 C460 1.395 . S
C462 C465 1.403 . S
C463 C460 1.403 . S
C463 C464 1.524 . S
C463 C467 1.400 . S
C464 H449 0.960 . S
C464 H450 0.960 . S
C464 H451 0.960 . S
C464 C463 1.524 . S
C465 C462 1.403 . S
C465 C466 1.392 . S
C465 C469 1.495 . S
C466 C465 1.392 . S
C466 C467 1.385 . S
C466 C468 1.478 . S
C467 H461 0.930 . S
C467 C463 1.400 . S
C467 C466 1.385 . S
C468 C466 1.478 . S
C468 C470 1.381 . S
C468 C474 1.383 . S
C469 C465 1.495 . S
C469 H475 0.959 . S
C469 H476 0.961 . S
C469 H477 0.960 . S
C470 C468 1.381 . S
C470 C471 1.394 . S
C470 H478 0.930 . S
C471 C470 1.394 . S
C471 C472 1.383 . S
C471 H479 0.929 . S
C472 C471 1.383 . S
C472 C473 1.377 . S
C473 H457 0.930 . S
C473 C472 1.377 . S
C473 C474 1.379 . S
C474 H458 0.931 . S
C474 C468 1.383 . S
C474 C473 1.379 . S
H475 C469 0.959 . S
H476 C469 0.961 . S
H477 C469 0.960 . S
H478 C470 0.930 . S
H479 C471 0.929 . S
H480 C488 0.929 . S
H481 C490 0.930 . S
H482 C492 0.930 . S
H483 C495 0.929 . S
H484 C498 0.930 . S
H485 C500 0.960 . S
H486 C500 0.960 . S
H487 C500 0.960 . S
C488 H480 0.929 . S
C488 C489 1.377 . S
C488 C490 1.384 . S
C489 C488 1.377 . S
C489 C495 1.390 . S
C490 H481 0.930 . S
C490 C488 1.384 . S
C490 C491 1.372 . S
C491 C490 1.372 . S
C491 C492 1.400 . S
C491 C496 1.490 . S
C492 H482 0.930 . S
C492 C491 1.400 . S
C492 C495 1.386 . S
H493 C509 0.930 . S
H494 C510 0.931 . S
C495 H483 0.929 . S
C495 C489 1.390 . S
C495 C492 1.386 . S
C496 C491 1.490 . S
C496 C498 1.395 . S
C496 C499 1.403 . S
H497 C503 0.930 . S
C498 H484 0.930 . S
C498 C496 1.395 . S
C498 C501 1.403 . S
C499 C496 1.403 . S
C499 C500 1.524 . S
C499 C503 1.400 . S
C500 H485 0.960 . S
C500 H486 0.960 . S
C500 H487 0.960 . S
C500 C499 1.524 . S
C501 C498 1.403 . S
C501 C502 1.392 . S
C501 C505 1.495 . S
C502 C501 1.392 . S
C502 C503 1.385 . S
C502 C504 1.478 . S
C503 H497 0.930 . S
C503 C499 1.400 . S
C503 C502 1.385 . S
C504 C502 1.478 . S
C504 C506 1.381 . S
C504 C510 1.383 . S
C505 C501 1.495 . S
C505 H511 0.959 . S
C505 H512 0.961 . S
C505 H513 0.960 . S
C506 C504 1.381 . S
C506 C507 1.394 . S
C506 H514 0.930 . S
C507 C506 1.394 . S
C507 C508 1.383 . S
C507 H515 0.929 . S
C508 C507 1.383 . S
C508 C509 1.377 . S
C509 H493 0.930 . S
C509 C508 1.377 . S
C509 C510 1.379 . S
C510 H494 0.931 . S
C510 C504 1.383 . S
C510 C509 1.379 . S
H511 C505 0.959 . S
H512 C505 0.961 . S
H513 C505 0.960 . S
H514 C506 0.930 . S
H515 C507 0.929 . S
H516 C524 0.929 . S
H517 C526 0.930 . S
H518 C528 0.930 . S
H519 C531 0.929 . S
H520 C534 0.930 . S
H521 C536 0.960 . S
H522 C536 0.960 . S
H523 C536 0.960 . S
C524 H516 0.929 . S
C524 C525 1.377 . S
C524 C526 1.384 . S
C525 C524 1.377 . S
C525 C531 1.390 . S
C526 H517 0.930 . S
C526 C524 1.384 . S
C526 C527 1.372 . S
C527 C526 1.372 . S
C527 C528 1.400 . S
C527 C532 1.490 . S
C528 H518 0.930 . S
C528 C527 1.400 . S
C528 C531 1.386 . S
H529 C545 0.930 . S
H530 C546 0.931 . S
C531 H519 0.929 . S
C531 C525 1.390 . S
C531 C528 1.386 . S
C532 C527 1.490 . S
C532 C534 1.395 . S
C532 C535 1.403 . S
H533 C539 0.930 . S
C534 H520 0.930 . S
C534 C532 1.395 . S
C534 C537 1.403 . S
C535 C532 1.403 . S
C535 C536 1.524 . S
C535 C539 1.400 . S
C536 H521 0.960 . S
C536 H522 0.960 . S
C536 H523 0.960 . S
C536 C535 1.524 . S
C537 C534 1.403 . S
C537 C538 1.392 . S
C537 C541 1.495 . S
C538 C537 1.392 . S
C538 C539 1.385 . S
C538 C540 1.478 . S
C539 H533 0.930 . S
C539 C535 1.400 . S
C539 C538 1.385 . S
C540 C538 1.478 . S
C540 C542 1.381 . S
C540 C546 1.383 . S
C541 C537 1.495 . S
C541 H547 0.959 . S
C541 H548 0.961 . S
C541 H549 0.960 . S
C542 C540 1.381 . S
C542 C543 1.394 . S
C542 H550 0.930 . S
C543 C542 1.394 . S
C543 C544 1.383 . S
C543 H551 0.929 . S
C544 C543 1.383 . S
C544 C545 1.377 . S
C545 H529 0.930 . S
C545 C544 1.377 . S
C545 C546 1.379 . S
C546 H530 0.931 . S
C546 C540 1.383 . S
C546 C545 1.379 . S
H547 C541 0.959 . S
H548 C541 0.961 . S
H549 C541 0.960 . S
H550 C542 0.930 . S
H551 C543 0.929 . S
H552 C560 0.929 . S
H553 C562 0.930 . S
H554 C564 0.930 . S
H555 C567 0.929 . S
H556 C570 0.930 . S
H557 C572 0.960 . S
H558 C572 0.960 . S
H559 C572 0.960 . S
C560 H552 0.929 . S
C560 C561 1.377 . S
C560 C562 1.384 . S
C561 C560 1.377 . S
C561 C567 1.390 . S
C562 H553 0.930 . S
C562 C560 1.384 . S
C562 C563 1.372 . S
C563 C562 1.372 . S
C563 C564 1.400 . S
C563 C568 1.490 . S
C564 H554 0.930 . S
C564 C563 1.400 . S
C564 C567 1.386 . S
H565 C581 0.930 . S
H566 C582 0.931 . S
C567 H555 0.929 . S
C567 C561 1.390 . S
C567 C564 1.386 . S
C568 C563 1.490 . S
C568 C570 1.395 . S
C568 C571 1.403 . S
H569 C575 0.930 . S
C570 H556 0.930 . S
C570 C568 1.395 . S
C570 C573 1.403 . S
C571 C568 1.403 . S
C571 C572 1.524 . S
C571 C575 1.400 . S
C572 H557 0.960 . S
C572 H558 0.960 . S
C572 H559 0.960 . S
C572 C571 1.524 . S
C573 C570 1.403 . S
C573 C574 1.392 . S
C573 C577 1.495 . S
C574 C573 1.392 . S
C574 C575 1.385 . S
C574 C576 1.478 . S
C575 H569 0.930 . S
C575 C571 1.400 . S
C575 C574 1.385 . S
C576 C574 1.478 . S
C576 C578 1.381 . S
C576 C582 1.383 . S
C577 C573 1.495 . S
C577 H583 0.959 . S
C577 H584 0.961 . S
C577 H585 0.960 . S
C578 C576 1.381 . S
C578 C579 1.394 . S
C578 H586 0.930 . S
C579 C578 1.394 . S
C579 C580 1.383 . S
C579 H587 0.929 . S
C580 C579 1.383 . S
C580 C581 1.377 . S
C581 H565 0.930 . S
C581 C580 1.377 . S
C581 C582 1.379 . S
C582 H566 0.931 . S
C582 C576 1.383 . S
C582 C581 1.379 . S
H583 C577 0.959 . S
H584 C577 0.961 . S
H585 C577 0.960 . S
H586 C578 0.930 . S
H587 C579 0.929 . S
H588 C596 0.929 . S
H589 C598 0.930 . S
H590 C600 0.930 . S
H591 C603 0.929 . S
H592 C606 0.930 . S
H593 C608 0.960 . S
H594 C608 0.960 . S
H595 C608 0.960 . S
C596 H588 0.929 . S
C596 C597 1.377 . S
C596 C598 1.384 . S
C597 C596 1.377 . S
C597 C603 1.390 . S
C598 H589 0.930 . S
C598 C596 1.384 . S
C598 C599 1.372 . S
C599 C598 1.372 . S
C599 C600 1.400 . S
C599 C604 1.490 . S
C600 H590 0.930 . S
C600 C599 1.400 . S
C600 C603 1.386 . S
H601 C617 0.930 . S
H602 C618 0.931 . S
C603 H591 0.929 . S
C603 C597 1.390 . S
C603 C600 1.386 . S
C604 C599 1.490 . S
C604 C606 1.395 . S
C604 C607 1.403 . S
H605 C611 0.930 . S
C606 H592 0.930 . S
C606 C604 1.395 . S
C606 C609 1.403 . S
C607 C604 1.403 . S
C607 C608 1.524 . S
C607 C611 1.400 . S
C608 H593 0.960 . S
C608 H594 0.960 . S
C608 H595 0.960 . S
C608 C607 1.524 . S
C609 C606 1.403 . S
C609 C610 1.392 . S
C609 C613 1.495 . S
C610 C609 1.392 . S
C610 C611 1.385 . S
C610 C612 1.478 . S
C611 H605 0.930 . S
C611 C607 1.400 . S
C611 C610 1.385 . S
C612 C610 1.478 . S
C612 C614 1.381 . S
C612 C618 1.383 . S
C613 C609 1.495 . S
C613 H619 0.959 . S
C613 H620 0.961 . S
C613 H621 0.960 . S
C614 C612 1.381 . S
C614 C615 1.394 . S
C614 H622 0.930 . S
C615 C614 1.394 . S
C615 C616 1.383 . S
C615 H623 0.929 . S
C616 C615 1.383 . S
C616 C617 1.377 . S
C617 H601 0.930 . S
C617 C616 1.377 . S
C617 C618 1.379 . S
C618 H602 0.931 . S
C618 C612 1.383 . S
C618 C617 1.379 . S
H619 C613 0.959 . S
H620 C613 0.961 . S
H621 C613 0.960 . S
H622 C614 0.930 . S
H623 C615 0.929 . S
H624 C632 0.929 . S
H625 C634 0.930 . S
H626 C636 0.930 . S
H627 C639 0.929 . S
H628 C642 0.930 . S
H629 C644 0.960 . S
H630 C644 0.960 . S
H631 C644 0.960 . S
C632 H624 0.929 . S
C632 C633 1.377 . S
C632 C634 1.384 . S
C633 C632 1.377 . S
C633 C639 1.390 . S
C634 H625 0.930 . S
C634 C632 1.384 . S
C634 C635 1.372 . S
C635 C634 1.372 . S
C635 C636 1.400 . S
C635 C640 1.490 . S
C636 H626 0.930 . S
C636 C635 1.400 . S
C636 C639 1.386 . S
H637 C653 0.930 . S
H638 C654 0.931 . S
C639 H627 0.929 . S
C639 C633 1.390 . S
C639 C636 1.386 . S
C640 C635 1.490 . S
C640 C642 1.395 . S
C640 C643 1.403 . S
H641 C647 0.930 1_556 S
C642 H628 0.930 . S
C642 C640 1.395 . S
C642 C645 1.403 . S
C643 C640 1.403 . S
C643 C644 1.524 1_455 S
C643 C647 1.400 . S
C644 H629 0.960 . S
C644 H630 0.960 . S
C644 H631 0.960 . S
C644 C643 1.524 1_655 S
C645 C642 1.403 . S
C645 C646 1.392 1_554 S
C645 C649 1.495 1_554 S
C646 C645 1.392 1_556 S
C646 C647 1.385 1_556 S
C646 C648 1.478 . S
C647 H641 0.930 1_554 S
C647 C643 1.400 . S
C647 C646 1.385 1_554 S
C648 C646 1.478 . S
C648 C650 1.381 . S
C648 C654 1.383 . S
C649 C645 1.495 1_556 S
C649 H655 0.959 1_556 S
C649 H656 0.961 . S
C649 H657 0.960 . S
C650 C648 1.381 . S
C650 C651 1.394 . S
C650 H658 0.930 . S
C651 C650 1.394 . S
C651 C652 1.383 . S
C651 H659 0.929 . S
C652 C651 1.383 . S
C652 C653 1.377 . S
C653 H637 0.930 . S
C653 C652 1.377 . S
C653 C654 1.379 . S
C654 H638 0.931 . S
C654 C648 1.383 . S
C654 C653 1.379 . S
H655 C649 0.959 1_554 S
H656 C649 0.961 . S
H657 C649 0.960 . S
H658 C650 0.930 . S
H659 C651 0.929 . S
H660 C668 0.929 . S
H661 C670 0.930 . S
H662 C672 0.930 . S
H663 C675 0.929 . S
H664 C678 0.930 . S
H665 C680 0.960 . S
H666 C680 0.960 . S
H667 C680 0.960 1_545 S
C668 H660 0.929 . S
C668 C669 1.377 . S
C668 C670 1.384 . S
C669 C668 1.377 . S
C669 C675 1.390 . S
C670 H661 0.930 . S
C670 C668 1.384 . S
C670 C671 1.372 . S
C671 C670 1.372 . S
C671 C672 1.400 . S
C671 C676 1.490 . S
C672 H662 0.930 . S
C672 C671 1.400 . S
C672 C675 1.386 . S
H673 C689 0.930 . S
H674 C690 0.931 . S
C675 H663 0.929 . S
C675 C669 1.390 . S
C675 C672 1.386 . S
C676 C671 1.490 . S
C676 C678 1.395 . S
C676 C679 1.403 . S
H677 C683 0.930 . S
C678 H664 0.930 . S
C678 C676 1.395 . S
C678 C681 1.403 . S
C679 C676 1.403 . S
C679 C680 1.524 1_545 S
C679 C683 1.400 . S
C680 H665 0.960 . S
C680 H666 0.960 . S
C680 H667 0.960 1_565 S
C680 C679 1.524 1_565 S
C681 C678 1.403 . S
C681 C682 1.392 . S
C681 C685 1.495 . S
C682 C681 1.392 . S
C682 C683 1.385 . S
C682 C684 1.478 . S
C683 H677 0.930 . S
C683 C679 1.400 . S
C683 C682 1.385 . S
C684 C682 1.478 . S
C684 C686 1.381 . S
C684 C690 1.383 . S
C685 C681 1.495 . S
C685 H691 0.959 . S
C685 H692 0.961 . S
C685 H693 0.960 . S
C686 C684 1.381 . S
C686 C687 1.394 . S
C686 H694 0.930 . S
C687 C686 1.394 . S
C687 C688 1.383 . S
C687 H695 0.929 . S
C688 C687 1.383 . S
C688 C689 1.377 . S
C689 H673 0.930 . S
C689 C688 1.377 . S
C689 C690 1.379 . S
C690 H674 0.931 . S
C690 C684 1.383 . S
C690 C689 1.379 . S
H691 C685 0.959 . S
H692 C685 0.961 . S
H693 C685 0.960 . S
H694 C686 0.930 . S
H695 C687 0.929 . S
H696 C704 0.929 . S
H697 C706 0.930 . S
H698 C708 0.930 . S
H699 C711 0.929 . S
H700 C714 0.930 . S
H701 C716 0.960 . S
H702 C716 0.960 . S
H703 C716 0.960 . S
C704 H696 0.929 . S
C704 C705 1.377 . S
C704 C706 1.384 . S
C705 C704 1.377 . S
C705 C711 1.390 . S
C706 H697 0.930 . S
C706 C704 1.384 . S
C706 C707 1.372 . S
C707 C706 1.372 . S
C707 C708 1.400 . S
C707 C712 1.490 . S
C708 H698 0.930 . S
C708 C707 1.400 . S
C708 C711 1.386 . S
H709 C725 0.930 . S
H710 C726 0.931 . S
C711 H699 0.929 . S
C711 C705 1.390 . S
C711 C708 1.386 . S
C712 C707 1.490 . S
C712 C714 1.395 . S
C712 C715 1.403 . S
H713 C719 0.930 . S
C714 H700 0.930 . S
C714 C712 1.395 . S
C714 C717 1.403 . S
C715 C712 1.403 . S
C715 C716 1.524 . S
C715 C719 1.400 . S
C716 H701 0.960 . S
C716 H702 0.960 . S
C716 H703 0.960 . S
C716 C715 1.524 . S
C717 C714 1.403 . S
C717 C718 1.392 . S
C717 C721 1.495 . S
C718 C717 1.392 . S
C718 C719 1.385 . S
C718 C720 1.478 . S
C719 H713 0.930 . S
C719 C715 1.400 . S
C719 C718 1.385 . S
C720 C718 1.478 . S
C720 C722 1.381 . S
C720 C726 1.383 . S
C721 C717 1.495 . S
C721 H727 0.959 . S
C721 H728 0.961 . S
C721 H729 0.960 . S
C722 C720 1.381 . S
C722 C723 1.394 . S
C722 H730 0.930 . S
C723 C722 1.394 . S
C723 C724 1.383 . S
C723 H731 0.929 . S
C724 C723 1.383 . S
C724 C725 1.377 . S
C725 H709 0.930 . S
C725 C724 1.377 . S
C725 C726 1.379 . S
C726 H710 0.931 . S
C726 C720 1.383 . S
C726 C725 1.379 . S
H727 C721 0.959 . S
H728 C721 0.961 . S
H729 C721 0.960 . S
H730 C722 0.930 . S
H731 C723 0.929 . S
H732 C740 0.929 . S
H733 C742 0.930 . S
H734 C744 0.930 1_565 S
H735 C747 0.929 1_565 S
H736 C750 0.930 1_565 S
H737 C752 0.960 . S
H738 C752 0.960 . S
H739 C752 0.960 . S
C740 H732 0.929 . S
C740 C741 1.377 . S
C740 C742 1.384 . S
C741 C740 1.377 . S
C741 C747 1.390 . S
C742 H733 0.930 . S
C742 C740 1.384 . S
C742 C743 1.372 . S
C743 C742 1.372 . S
C743 C744 1.400 . S
C743 C748 1.490 . S
C744 H734 0.930 1_545 S
C744 C743 1.400 . S
C744 C747 1.386 . S
H745 C761 0.930 . S
H746 C762 0.931 . S
C747 H735 0.929 1_545 S
C747 C741 1.390 . S
C747 C744 1.386 . S
C748 C743 1.490 . S
C748 C750 1.395 . S
C748 C751 1.403 . S
H749 C755 0.930 . S
C750 H736 0.930 1_545 S
C750 C748 1.395 . S
C750 C753 1.403 1_545 S
C751 C748 1.403 . S
C751 C752 1.524 . S
C751 C755 1.400 . S
C752 H737 0.960 . S
C752 H738 0.960 . S
C752 H739 0.960 . S
C752 C751 1.524 . S
C753 C750 1.403 1_565 S
C753 C754 1.392 1_565 S
C753 C757 1.495 . S
C754 C753 1.392 1_545 S
C754 C755 1.385 . S
C754 C756 1.478 . S
C755 H749 0.930 . S
C755 C751 1.400 . S
C755 C754 1.385 . S
C756 C754 1.478 . S
C756 C758 1.381 . S
C756 C762 1.383 1_545 S
C757 C753 1.495 . S
C757 H763 0.959 . S
C757 H764 0.961 . S
C757 H765 0.960 . S
C758 C756 1.381 . S
C758 C759 1.394 . S
C758 H766 0.930 . S
C759 C758 1.394 . S
C759 C760 1.383 . S
C759 H767 0.929 . S
C760 C759 1.383 . S
C760 C761 1.377 1_545 S
C761 H745 0.930 . S
C761 C760 1.377 1_565 S
C761 C762 1.379 . S
C762 H746 0.931 . S
C762 C756 1.383 1_565 S
C762 C761 1.379 . S
H763 C757 0.959 . S
H764 C757 0.961 . S
H765 C757 0.960 . S
H766 C758 0.930 . S
H767 C759 0.929 . S
H768 C776 0.929 . S
H769 C778 0.930 . S
H770 C780 0.930 . S
H771 C783 0.929 . S
H772 C786 0.930 . S
H773 C788 0.960 . S
H774 C788 0.960 . S
H775 C788 0.960 . S
C776 H768 0.929 . S
C776 C777 1.377 . S
C776 C778 1.384 . S
C777 C776 1.377 . S
C777 C783 1.390 . S
C778 H769 0.930 . S
C778 C776 1.384 . S
C778 C779 1.372 . S
C779 C778 1.372 . S
C779 C780 1.400 . S
C779 C784 1.490 . S
C780 H770 0.930 . S
C780 C779 1.400 . S
C780 C783 1.386 . S
H781 C797 0.930 . S
H782 C798 0.931 . S
C783 H771 0.929 . S
C783 C777 1.390 . S
C783 C780 1.386 . S
C784 C779 1.490 . S
C784 C786 1.395 . S
C784 C787 1.403 . S
H785 C791 0.930 1_554 S
C786 H772 0.930 . S
C786 C784 1.395 . S
C786 C789 1.403 . S
C787 C784 1.403 . S
C787 C788 1.524 . S
C787 C791 1.400 . S
C788 H773 0.960 . S
C788 H774 0.960 . S
C788 H775 0.960 . S
C788 C787 1.524 . S
C789 C786 1.403 . S
C789 C790 1.392 1_556 S
C789 C793 1.495 . S
C790 C789 1.392 1_554 S
C790 C791 1.385 1_554 S
C790 C792 1.478 . S
C791 H785 0.930 1_556 S
C791 C787 1.400 . S
C791 C790 1.385 1_556 S
C792 C790 1.478 . S
C792 C794 1.381 . S
C792 C798 1.383 . S
C793 C789 1.495 . S
C793 H799 0.959 . S
C793 H800 0.961 1_556 S
C793 H801 0.960 1_556 S
C794 C792 1.381 . S
C794 C795 1.394 . S
C794 H802 0.930 . S
C795 C794 1.394 . S
C795 C796 1.383 . S
C795 H803 0.929 . S
C796 C795 1.383 . S
C796 C797 1.377 . S
C797 H781 0.930 . S
C797 C796 1.377 . S
C797 C798 1.379 . S
C798 H782 0.931 . S
C798 C792 1.383 . S
C798 C797 1.379 . S
H799 C793 0.959 . S
H800 C793 0.961 1_554 S
H801 C793 0.960 1_554 S
H802 C794 0.930 . S
H803 C795 0.929 . S
H804 C812 0.929 . S
H805 C814 0.930 . S
H806 C816 0.930 . S
H807 C819 0.929 . S
H808 C822 0.930 . S
H809 C824 0.960 . S
H810 C824 0.960 . S
H811 C824 0.960 . S
C812 H804 0.929 . S
C812 C813 1.377 . S
C812 C814 1.384 . S
C813 C812 1.377 . S
C813 C819 1.390 . S
C814 H805 0.930 . S
C814 C812 1.384 . S
C814 C815 1.372 . S
C815 C814 1.372 . S
C815 C816 1.400 . S
C815 C820 1.490 . S
C816 H806 0.930 . S
C816 C815 1.400 . S
C816 C819 1.386 . S
H817 C833 0.930 . S
H818 C834 0.931 . S
C819 H807 0.929 . S
C819 C813 1.390 . S
C819 C816 1.386 . S
C820 C815 1.490 . S
C820 C822 1.395 . S
C820 C823 1.403 . S
H821 C827 0.930 1_655 S
C822 H808 0.930 . S
C822 C820 1.395 . S
C822 C825 1.403 . S
C823 C820 1.403 . S
C823 C824 1.524 1_455 S
C823 C827 1.400 . S
C824 H809 0.960 . S
C824 H810 0.960 . S
C824 H811 0.960 . S
C824 C823 1.524 1_655 S
C825 C822 1.403 . S
C825 C826 1.392 . S
C825 C829 1.495 . S
C826 C825 1.392 . S
C826 C827 1.385 . S
C826 C828 1.478 . S
C827 H821 0.930 1_455 S
C827 C823 1.400 . S
C827 C826 1.385 . S
C828 C826 1.478 . S
C828 C830 1.381 . S
C828 C834 1.383 . S
C829 C825 1.495 . S
C829 H835 0.959 . S
C829 H836 0.961 . S
C829 H837 0.960 . S
C830 C828 1.381 . S
C830 C831 1.394 . S
C830 H838 0.930 . S
C831 C830 1.394 . S
C831 C832 1.383 . S
C831 H839 0.929 . S
C832 C831 1.383 . S
C832 C833 1.377 . S
C833 H817 0.930 . S
C833 C832 1.377 . S
C833 C834 1.379 . S
C834 H818 0.931 . S
C834 C828 1.383 . S
C834 C833 1.379 . S
H835 C829 0.959 . S
H836 C829 0.961 . S
H837 C829 0.960 . S
H838 C830 0.930 . S
H839 C831 0.929 . S
C201 C7 0.736 . S
C220 C186 0.709 . S
C237 C51 1.933 . S
C256 C160 1.858 . S
C273 C87 1.238 . S
C292 C172 1.196 . S
C309 C16 0.285 . S
C328 C184 0.421 . S
C364 C162 1.823 . S
C345 C42 1.840 . S
C400 C174 1.116 . S
C381 C96 1.105 . S
C417 C47 1.264 . S
C436 C136 1.256 . S
C453 C91 3.400 . S
C472 C150 3.374 1_655 S
C489 C2 1.856 . S
C508 C126 1.855 1_565 S
C544 C138 1.110 . S
C525 C56 1.112 . S
C580 C148 2.586 . S
C561 C82 2.675 . S
C597 C11 1.936 . S
C616 C124 1.897 . S
C652 C153 1.746 . S
C633 C19 1.680 . S
C669 C50 1.433 . S
C688 C129 1.487 . S
C705 C99 1.513 . S
C724 C141 1.514 . S
C760 C177 1.534 . S
C741 C59 1.524 . S
C796 C189 1.288 . S
C777 C90 1.247 . S
C813 C10 1.417 . S
C832 C165 1.441 . S
