# Generated by pormake.
# Topology ctn, (3,4)-cn, num edge types: 1
# Building blocks:
#     Node 0, Type 0, BuildingBlock: PAMTOO_clean_linker_0, # of connection points: 3
#     Node 1, Type 0, BuildingBlock: PAMTOO_clean_linker_0, # of connection points: 3
#     Node 2, Type 0, BuildingBlock: PAMTOO_clean_linker_0, # of connection points: 3
#     Node 3, Type 0, BuildingBlock: PAMTOO_clean_linker_0, # of connection points: 3
#     Node 4, Type 0, BuildingBlock: PAMTOO_clean_linker_0, # of connection points: 3
#     Node 5, Type 0, BuildingBlock: PAMTOO_clean_linker_0, # of connection points: 3
#     Node 6, Type 0, BuildingBlock: PAMTOO_clean_linker_0, # of connection points: 3
#     Node 7, Type 0, BuildingBlock: PAMTOO_clean_linker_0, # of connection points: 3
#     Node 8, Type 0, BuildingBlock: PAMTOO_clean_linker_0, # of connection points: 3
#     Node 9, Type 0, BuildingBlock: PAMTOO_clean_linker_0, # of connection points: 3
#     Node 10, Type 0, BuildingBlock: PAMTOO_clean_linker_0, # of connection points: 3
#     Node 11, Type 0, BuildingBlock: PAMTOO_clean_linker_0, # of connection points: 3
#     Node 12, Type 0, BuildingBlock: PAMTOO_clean_linker_0, # of connection points: 3
#     Node 13, Type 0, BuildingBlock: PAMTOO_clean_linker_0, # of connection points: 3
#     Node 14, Type 0, BuildingBlock: PAMTOO_clean_linker_0, # of connection points: 3
#     Node 15, Type 0, BuildingBlock: PAMTOO_clean_linker_0, # of connection points: 3
#     Node 16, Type 1, BuildingBlock: AZAVOO_clean_sbu_0, # of connection points: 4
#     Node 17, Type 1, BuildingBlock: AZAVOO_clean_sbu_0, # of connection points: 4
#     Node 18, Type 1, BuildingBlock: AZAVOO_clean_sbu_0, # of connection points: 4
#     Node 19, Type 1, BuildingBlock: AZAVOO_clean_sbu_0, # of connection points: 4
#     Node 20, Type 1, BuildingBlock: AZAVOO_clean_sbu_0, # of connection points: 4
#     Node 21, Type 1, BuildingBlock: AZAVOO_clean_sbu_0, # of connection points: 4
#     Node 22, Type 1, BuildingBlock: AZAVOO_clean_sbu_0, # of connection points: 4
#     Node 23, Type 1, BuildingBlock: AZAVOO_clean_sbu_0, # of connection points: 4
#     Node 24, Type 1, BuildingBlock: AZAVOO_clean_sbu_0, # of connection points: 4
#     Node 25, Type 1, BuildingBlock: AZAVOO_clean_sbu_0, # of connection points: 4
#     Node 26, Type 1, BuildingBlock: AZAVOO_clean_sbu_0, # of connection points: 4
#     Node 27, Type 1, BuildingBlock: AZAVOO_clean_sbu_0, # of connection points: 4
#     Edge 28, Type (0, 1), BuildingBlock: XIVTED_clean_linker_0, # of connection points: 2
#     Edge 29, Type (0, 1), BuildingBlock: XIVTED_clean_linker_0, # of connection points: 2
#     Edge 30, Type (0, 1), BuildingBlock: XIVTED_clean_linker_0, # of connection points: 2
#     Edge 31, Type (0, 1), BuildingBlock: XIVTED_clean_linker_0, # of connection points: 2
#     Edge 32, Type (0, 1), BuildingBlock: XIVTED_clean_linker_0, # of connection points: 2
#     Edge 33, Type (0, 1), BuildingBlock: XIVTED_clean_linker_0, # of connection points: 2
#     Edge 34, Type (0, 1), BuildingBlock: XIVTED_clean_linker_0, # of connection points: 2
#     Edge 35, Type (0, 1), BuildingBlock: XIVTED_clean_linker_0, # of connection points: 2
#     Edge 36, Type (0, 1), BuildingBlock: XIVTED_clean_linker_0, # of connection points: 2
#     Edge 37, Type (0, 1), BuildingBlock: XIVTED_clean_linker_0, # of connection points: 2
#     Edge 38, Type (0, 1), BuildingBlock: XIVTED_clean_linker_0, # of connection points: 2
#     Edge 39, Type (0, 1), BuildingBlock: XIVTED_clean_linker_0, # of connection points: 2
#     Edge 40, Type (0, 1), BuildingBlock: XIVTED_clean_linker_0, # of connection points: 2
#     Edge 41, Type (0, 1), BuildingBlock: XIVTED_clean_linker_0, # of connection points: 2
#     Edge 42, Type (0, 1), BuildingBlock: XIVTED_clean_linker_0, # of connection points: 2
#     Edge 43, Type (0, 1), BuildingBlock: XIVTED_clean_linker_0, # of connection points: 2
#     Edge 44, Type (0, 1), BuildingBlock: XIVTED_clean_linker_0, # of connection points: 2
#     Edge 45, Type (0, 1), BuildingBlock: XIVTED_clean_linker_0, # of connection points: 2
#     Edge 46, Type (0, 1), BuildingBlock: XIVTED_clean_linker_0, # of connection points: 2
#     Edge 47, Type (0, 1), BuildingBlock: XIVTED_clean_linker_0, # of connection points: 2
#     Edge 48, Type (0, 1), BuildingBlock: XIVTED_clean_linker_0, # of connection points: 2
#     Edge 49, Type (0, 1), BuildingBlock: XIVTED_clean_linker_0, # of connection points: 2
#     Edge 50, Type (0, 1), BuildingBlock: XIVTED_clean_linker_0, # of connection points: 2
#     Edge 51, Type (0, 1), BuildingBlock: XIVTED_clean_linker_0, # of connection points: 2
#     Edge 52, Type (0, 1), BuildingBlock: XIVTED_clean_linker_0, # of connection points: 2
#     Edge 53, Type (0, 1), BuildingBlock: XIVTED_clean_linker_0, # of connection points: 2
#     Edge 54, Type (0, 1), BuildingBlock: XIVTED_clean_linker_0, # of connection points: 2
#     Edge 55, Type (0, 1), BuildingBlock: XIVTED_clean_linker_0, # of connection points: 2
#     Edge 56, Type (0, 1), BuildingBlock: XIVTED_clean_linker_0, # of connection points: 2
#     Edge 57, Type (0, 1), BuildingBlock: XIVTED_clean_linker_0, # of connection points: 2
#     Edge 58, Type (0, 1), BuildingBlock: XIVTED_clean_linker_0, # of connection points: 2
#     Edge 59, Type (0, 1), BuildingBlock: XIVTED_clean_linker_0, # of connection points: 2
#     Edge 60, Type (0, 1), BuildingBlock: XIVTED_clean_linker_0, # of connection points: 2
#     Edge 61, Type (0, 1), BuildingBlock: XIVTED_clean_linker_0, # of connection points: 2
#     Edge 62, Type (0, 1), BuildingBlock: XIVTED_clean_linker_0, # of connection points: 2
#     Edge 63, Type (0, 1), BuildingBlock: XIVTED_clean_linker_0, # of connection points: 2
#     Edge 64, Type (0, 1), BuildingBlock: XIVTED_clean_linker_0, # of connection points: 2
#     Edge 65, Type (0, 1), BuildingBlock: XIVTED_clean_linker_0, # of connection points: 2
#     Edge 66, Type (0, 1), BuildingBlock: XIVTED_clean_linker_0, # of connection points: 2
#     Edge 67, Type (0, 1), BuildingBlock: XIVTED_clean_linker_0, # of connection points: 2
#     Edge 68, Type (0, 1), BuildingBlock: XIVTED_clean_linker_0, # of connection points: 2
#     Edge 69, Type (0, 1), BuildingBlock: XIVTED_clean_linker_0, # of connection points: 2
#     Edge 70, Type (0, 1), BuildingBlock: XIVTED_clean_linker_0, # of connection points: 2
#     Edge 71, Type (0, 1), BuildingBlock: XIVTED_clean_linker_0, # of connection points: 2
#     Edge 72, Type (0, 1), BuildingBlock: XIVTED_clean_linker_0, # of connection points: 2
#     Edge 73, Type (0, 1), BuildingBlock: XIVTED_clean_linker_0, # of connection points: 2
#     Edge 74, Type (0, 1), BuildingBlock: XIVTED_clean_linker_0, # of connection points: 2
#     Edge 75, Type (0, 1), BuildingBlock: XIVTED_clean_linker_0, # of connection points: 2
# Relax obj value: 0.057
# Max RMSD: 0.171
# Mean RMSD: 0.109
data_MOF--net-ctn--node1-AZAVOO_clean_sbu_0--node2-PAMTOO_clean_linker_0--edge1-XIVTED_clean_linker_0
_symmetry_space_group_name_H-M    P1
_symmetry_Int_Tables_number       1
_symmetry_cell_setting            triclinic
loop_
_symmetry_equiv_pos_as_xyz
'x, y, z'
_cell_length_a     52.777703
_cell_length_b     54.091322
_cell_length_c     55.223132
_cell_angle_alpha  85.076143
_cell_angle_beta   95.629229
_cell_angle_gamma 100.98584
loop_
_atom_site_label
_atom_site_type_symbol
_atom_site_fract_x
_atom_site_fract_y
_atom_site_fract_z
_atom_type_partial_charge
H0 H 0.9915 0.06541 0.04304 0.0
H1 H 0.02451 0.99823 0.05686 0.0
H2 H 0.0428 0.04818 0.99371 0.0
H3 H 0.03292 0.99724 0.98193 0.0
C4 C 0.03834 0.9874 0.99966 0.0
O5 O 0.04826 0.00491 0.01653 0.0
H6 H 0.02067 0.97498 0.00626 0.0
C7 C 0.00404 0.05331 0.03806 0.0
C8 C 0.0174 0.06007 0.01708 0.0
C9 C 0.00731 0.03182 0.05329 0.0
C10 C 0.02181 0.01509 0.04561 0.0
C11 C 0.03391 0.02073 0.0237 0.0
C12 C 0.03219 0.04344 0.00981 0.0
H13 H 0.31479 0.71655 0.2988 0.0
H14 H 0.28023 0.73921 0.22862 0.0
H15 H 0.34603 0.78768 0.26174 0.0
H16 H 0.30927 0.81776 0.23162 0.0
C17 C 0.2974 0.80106 0.22297 0.0
O18 O 0.31213 0.78239 0.22393 0.0
H19 H 0.27983 0.79456 0.2331 0.0
C20 C 0.31412 0.73045 0.2835 0.0
C21 C 0.3329 0.7527 0.28283 0.0
C22 C 0.29512 0.72537 0.26404 0.0
C23 C 0.29482 0.74282 0.24376 0.0
C24 C 0.313 0.76534 0.24319 0.0
C25 C 0.33207 0.77019 0.26254 0.0
H26 H 0.98622 0.53664 0.12364 0.0
H27 H 0.94704 0.50583 0.05753 0.0
H28 H 0.01153 0.47587 0.09275 0.0
H29 H 0.00777 0.48986 0.03768 0.0
C30 C 0.98788 0.47868 0.03429 0.0
O31 O 0.97648 0.47258 0.056 0.0
H32 H 0.97622 0.49031 0.02187 0.0
C33 C 0.98408 0.52332 0.10968 0.0
C34 C 1.00144 0.50637 0.11062 0.0
C35 C 0.96426 0.5234 0.09059 0.0
C36 C 0.9618 0.50597 0.07263 0.0
C37 C 0.97895 0.48912 0.07344 0.0
C38 C 0.9986 0.48927 0.09234 0.0
H39 H 0.71522 0.86388 0.27294 0.0
H40 H 0.67641 0.78646 0.27097 0.0
H41 H 0.74328 0.81237 0.23123 0.0
H42 H 0.6815 0.77867 0.21368 0.0
C43 C 0.69151 0.76394 0.22364 0.0
O44 O 0.70795 0.77344 0.24302 0.0
H45 H 0.67614 0.74883 0.23075 0.0
C46 C 0.71347 0.84533 0.26623 0.0
C47 C 0.73179 0.84074 0.25113 0.0
C48 C 0.69327 0.82602 0.27334 0.0
C49 C 0.69147 0.80181 0.26521 0.0
C50 C 0.70943 0.79703 0.25003 0.0
C51 C 0.72945 0.81643 0.24289 0.0
H52 H 0.10249 0.97911 0.54779 0.0
H53 H 0.03622 0.95429 0.49787 0.0
H54 H 0.07874 0.02962 0.48875 0.0
H55 H 0.02059 0.02381 0.47868 0.0
C56 C 0.01691 0.00461 0.47177 0.0
O57 O 0.04018 0.99672 0.47109 0.0
H58 H 0.00443 0.99148 0.48422 0.0
C59 C 0.08962 0.98282 0.53193 0.0
C60 C 0.09318 0.00689 0.51939 0.0
C61 C 0.06878 0.96384 0.52457 0.0
C62 C 0.05201 0.96886 0.50413 0.0
C63 C 0.05567 0.99252 0.49138 0.0
C64 C 0.07605 0.01147 0.49904 0.0
H65 H 0.1604 0.73639 0.79885 0.0
H66 H 0.19513 0.6942 0.75237 0.0
H67 H 0.23459 0.71553 0.82066 0.0
H68 H 0.26619 0.72002 0.77871 0.0
C69 C 0.25685 0.70213 0.77038 0.0
O70 O 0.23555 0.69085 0.78251 0.0
H71 H 0.25067 0.70682 0.75095 0.0
C72 C 0.17627 0.72766 0.79499 0.0
C73 C 0.19771 0.72782 0.81238 0.0
C74 C 0.17482 0.71543 0.77318 0.0
C75 C 0.19532 0.70341 0.76905 0.0
C76 C 0.21656 0.70334 0.78626 0.0
C77 C 0.21779 0.71556 0.80772 0.0
H78 H 0.91661 0.52244 0.51273 0.0
H79 H 0.94316 0.4797 0.46134 0.0
H80 H 0.98917 0.55017 0.48094 0.0
H81 H 0.98807 0.53973 0.42918 0.0
C82 C 0.98625 0.51885 0.43139 0.0
O83 O 0.98658 0.51095 0.45584 0.0
H84 H 0.96751 0.51019 0.42183 0.0
C85 C 0.93078 0.52072 0.50036 0.0
C86 C 0.95326 0.53947 0.4986 0.0
C87 C 0.92674 0.49916 0.4869 0.0
C88 C 0.94579 0.49613 0.4719 0.0
C89 C 0.96822 0.51444 0.46999 0.0
C90 C 0.97186 0.53606 0.48312 0.0
H91 H 0.77464 0.80261 0.85004 0.0
H92 H 0.83332 0.76532 0.82899 0.0
H93 H 0.80083 0.81725 0.77774 0.0
H94 H 0.80882 0.77254 0.75541 0.0
C95 C 0.82495 0.76736 0.76816 0.0
O96 O 0.83318 0.78586 0.78436 0.0
H97 H 0.81745 0.74907 0.77817 0.0
C98 C 0.78708 0.79965 0.83649 0.0
C99 C 0.78545 0.81239 0.81324 0.0
C100 C 0.80452 0.78295 0.84257 0.0
C101 C 0.81969 0.77804 0.82468 0.0
C102 C 0.81798 0.79019 0.80129 0.0
C103 C 0.80116 0.80745 0.79568 0.0
H104 H 0.2743 0.30662 0.34448 0.0
H105 H 0.32796 0.26311 0.32352 0.0
H106 H 0.30668 0.32308 0.27489 0.0
H107 H 0.3119 0.27898 0.25099 0.0
C108 C 0.3273 0.27211 0.26353 0.0
O109 O 0.33545 0.28854 0.28168 0.0
H110 H 0.31888 0.25313 0.27169 0.0
C111 C 0.28627 0.30243 0.33109 0.0
C112 C 0.28829 0.31735 0.30893 0.0
C113 C 0.30034 0.28269 0.3366 0.0
C114 C 0.31698 0.27821 0.31976 0.0
C115 C 0.31923 0.29289 0.29767 0.0
C116 C 0.3049 0.31225 0.29226 0.0
H117 H 0.47777 0.03265 0.6265 0.0
H118 H 0.44512 0.00861 0.55586 0.0
H119 H 0.50826 0.97735 0.5916 0.0
H120 H 0.50711 0.99415 0.5379 0.0
C121 C 0.48767 0.98257 0.53326 0.0
O122 O 0.47475 0.97568 0.55405 0.0
H123 H 0.47639 0.99401 0.52023 0.0
C124 C 0.47781 0.02139 0.61122 0.0
C125 C 0.4956 0.00479 0.612 0.0
C126 C 0.45955 0.02316 0.59098 0.0
C127 C 0.45883 0.00763 0.5717 0.0
C128 C 0.47621 0.99109 0.5723 0.0
C129 C 0.49463 0.98988 0.5921 0.0
H130 H 0.21025 0.36342 0.77812 0.0
H131 H 0.18519 0.28372 0.77188 0.0
H132 H 0.24617 0.32364 0.73027 0.0
H133 H 0.18919 0.28639 0.71056 0.0
C134 C 0.19901 0.27125 0.71992 0.0
O135 O 0.21629 0.28027 0.73896 0.0
H136 H 0.18367 0.25628 0.7273 0.0
C137 C 0.2119 0.34633 0.76999 0.0
C138 C 0.2308 0.34676 0.75351 0.0
C139 C 0.19574 0.32365 0.77702 0.0
C140 C 0.19757 0.30138 0.76664 0.0
C141 C 0.21511 0.30177 0.74921 0.0
C142 C 0.23183 0.32423 0.74284 0.0
H143 H 0.827 0.20726 0.77677 0.0
H144 H 0.78092 0.23335 0.71447 0.0
H145 H 0.84274 0.28508 0.74935 0.0
H146 H 0.79684 0.31107 0.72511 0.0
C147 C 0.7878 0.294 0.71537 0.0
O148 O 0.80648 0.27977 0.71328 0.0
H149 H 0.77194 0.28316 0.72602 0.0
C150 C 0.82285 0.22216 0.76339 0.0
C151 C 0.8375 0.2466 0.76499 0.0
C152 C 0.80201 0.21723 0.74552 0.0
C153 C 0.79664 0.23686 0.72862 0.0
C154 C 0.81139 0.2612 0.72999 0.0
C155 C 0.83155 0.26614 0.74832 0.0
H156 H 0.50351 0.57389 0.54271 0.0
H157 H 0.52506 0.50061 0.55271 0.0
H158 H 0.55243 0.55253 0.49351 0.0
H159 H 0.53614 0.50292 0.47862 0.0
C160 C 0.54039 0.49136 0.49566 0.0
O161 O 0.5513 0.50693 0.51392 0.0
H162 H 0.5219 0.4797 0.50132 0.0
C163 C 0.51403 0.56019 0.53728 0.0
C164 C 0.52863 0.5664 0.51705 0.0
C165 C 0.51325 0.53701 0.55096 0.0
C166 C 0.52537 0.51871 0.5426 0.0
C167 C 0.53897 0.52421 0.52154 0.0
C168 C 0.54094 0.54814 0.50906 0.0
H169 H 0.59935 0.4901 0.04018 0.0
H170 H 0.53266 0.46557 0.99065 0.0
H171 H 0.57634 0.54029 0.98048 0.0
H172 H 0.51819 0.53543 0.97041 0.0
C173 C 0.51414 0.51604 0.96391 0.0
O174 O 0.53719 0.50769 0.96338 0.0
H175 H 0.50158 0.50339 0.97664 0.0
C176 C 0.5865 0.49384 0.0243 0.0
C177 C 0.59047 0.51774 0.01144 0.0
C178 C 0.5654 0.47499 0.01719 0.0
C179 C 0.54864 0.48004 0.99677 0.0
C180 C 0.55263 0.50354 0.98372 0.0
C181 C 0.57335 0.52232 0.99107 0.0
H182 H 0.6635 0.23842 0.28859 0.0
H183 H 0.69214 0.18748 0.24666 0.0
H184 H 0.72827 0.20377 0.3176 0.0
H185 H 0.76413 0.20192 0.28162 0.0
C186 C 0.7523 0.18727 0.27014 0.0
O187 O 0.72875 0.17856 0.27962 0.0
H188 H 0.74923 0.1962 0.25141 0.0
C189 C 0.67701 0.22607 0.28674 0.0
C190 C 0.69582 0.22256 0.30602 0.0
C191 C 0.67553 0.21368 0.26506 0.0
C192 C 0.69311 0.19757 0.26294 0.0
C193 C 0.71197 0.19409 0.28189 0.0
C194 C 0.71329 0.2065 0.30328 0.0
H195 H 0.42138 0.03306 0.00838 0.0
H196 H 0.44788 0.9877 0.95913 0.0
H197 H 0.49546 0.05749 0.97871 0.0
H198 H 0.49276 0.04728 0.92641 0.0
C199 C 0.49097 0.0264 0.92855 0.0
O200 O 0.49149 0.01843 0.95299 0.0
H201 H 0.47214 0.01783 0.91908 0.0
C202 C 0.43593 0.0301 0.99695 0.0
C203 C 0.45885 0.04824 0.99518 0.0
C204 C 0.43177 0.00802 0.98421 0.0
C205 C 0.45073 0.00437 0.96937 0.0
C206 C 0.4734 0.02233 0.96725 0.0
C207 C 0.47751 0.04408 0.98019 0.0
Mg208 Mg 0.21141 0.85276 0.008 0.0
O209 O 0.25222 0.87633 0.0024 0.0
O210 O 0.27965 0.8495 0.01228 0.0
Mg211 Mg 0.25783 0.81042 0.02412 0.0
C212 C 0.27519 0.87146 0.00505 0.0
C213 C 0.16639 0.87563 0.98491 0.0
O214 O 0.15744 0.85126 0.98784 0.0
O215 O 0.21139 0.83327 0.97259 0.0
O216 O 0.23818 0.80651 0.98529 0.0
O217 O 0.21585 0.86217 0.04692 0.0
O218 O 0.22729 0.82866 0.03417 0.0
C219 C 0.22281 0.81526 0.96885 0.0
C220 C 0.22656 0.8425 0.05182 0.0
O221 O 0.19055 0.88346 0.98944 0.0
Mg222 Mg 0.16962 0.50823 0.30135 0.0
O223 O 0.14391 0.5071 0.26498 0.0
O224 O 0.17063 0.51715 0.23522 0.0
Mg225 Mg 0.21247 0.5258 0.25184 0.0
C226 C 0.14786 0.51088 0.24237 0.0
C227 C 0.1373 0.49667 0.34425 0.0
O228 O 0.15972 0.50958 0.35246 0.0
O229 O 0.18208 0.47072 0.29522 0.0
O230 O 0.21003 0.48467 0.26701 0.0
O231 O 0.16873 0.5491 0.303 0.0
O232 O 0.19844 0.53507 0.28539 0.0
C233 C 0.19905 0.46706 0.28151 0.0
C234 C 0.18886 0.55395 0.29061 0.0
O235 O 0.13483 0.49008 0.32243 0.0
Mg236 Mg 0.80238 0.67929 0.06636 0.0
O237 O 0.76249 0.65427 0.05734 0.0
O238 O 0.73386 0.68028 0.05196 0.0
Mg239 Mg 0.75427 0.72079 0.05802 0.0
C240 C 0.73933 0.65821 0.05248 0.0
C241 C 0.84724 0.65174 0.07115 0.0
O242 O 0.85608 0.67369 0.08029 0.0
O243 O 0.80409 0.69411 0.02595 0.0
O244 O 0.7767 0.72123 0.02461 0.0
O245 O 0.7956 0.67566 0.10635 0.0
O246 O 0.78505 0.70587 0.08022 0.0
C247 C 0.79298 0.7114 0.01476 0.0
C248 C 0.78499 0.69545 0.10197 0.0
O249 O 0.82385 0.64721 0.0621 0.0
Mg250 Mg 0.91282 0.03901 0.25054 0.0
O251 O 0.88551 1.00058 0.24703 0.0
O252 O 0.91026 0.97213 0.24295 0.0
Mg253 Mg 0.95257 0.99168 0.24369 0.0
C254 C 0.88813 0.97798 0.2443 0.0
C255 C 0.86019 0.05778 0.24905 0.0
O256 O 0.85705 0.04654 0.22851 0.0
O257 O 0.9262 0.02715 0.28961 0.0
O258 O 0.95145 0.9997 0.28385 0.0
O259 O 0.90976 0.04657 0.21027 0.0
O260 O 0.93913 0.02678 0.23041 0.0
C261 C 0.94146 0.01213 0.29789 0.0
C262 C 0.9286 0.03446 0.20979 0.0
O263 O 0.88073 0.05698 0.26301 0.0
Mg264 Mg 0.29853 0.17993 0.55905 0.0
O265 O 0.25899 0.1526 0.5554 0.0
O266 O 0.22852 0.17662 0.55118 0.0
Mg267 Mg 0.2475 0.21815 0.55077 0.0
C268 C 0.2352 0.15502 0.55279 0.0
C269 C 0.34277 0.15164 0.56816 0.0
O270 O 0.35031 0.17281 0.57902 0.0
O271 O 0.29549 0.19015 0.51766 0.0
O272 O 0.26455 0.21364 0.51515 0.0
O273 O 0.29591 0.18019 0.59931 0.0
O274 O 0.28134 0.2073 0.57182 0.0
C275 C 0.28074 0.20371 0.50527 0.0
C276 C 0.28385 0.19895 0.59426 0.0
O277 O 0.32062 0.14796 0.55629 0.0
Mg278 Mg 0.41063 0.54776 0.74227 0.0
O279 O 0.38157 0.51039 0.74012 0.0
O280 O 0.40359 0.47983 0.73546 0.0
Mg281 Mg 0.44664 0.49711 0.73676 0.0
C282 C 0.38239 0.48738 0.73723 0.0
C283 C 0.38549 0.58811 0.76369 0.0
O284 O 0.41013 0.5973 0.76891 0.0
O285 O 0.42344 0.53652 0.7816 0.0
O286 O 0.44607 0.50658 0.77669 0.0
O287 O 0.40773 0.55388 0.70184 0.0
O288 O 0.43606 0.53336 0.72278 0.0
C289 C 0.43735 0.52043 0.79033 0.0
C290 C 0.42594 0.54086 0.70191 0.0
O291 O 0.37928 0.5673 0.75358 0.0
Mg292 Mg 0.70315 0.34742 0.50071 0.0
O293 O 0.74478 0.36996 0.49737 0.0
O294 O 0.77108 0.34232 0.5086 0.0
Mg295 Mg 0.7476 0.30359 0.51922 0.0
C296 C 0.76748 0.36451 0.50119 0.0
C297 C 0.65997 0.37247 0.47691 0.0
O298 O 0.6498 0.34839 0.48006 0.0
O299 O 0.70479 0.32815 0.46549 0.0
O300 O 0.73011 0.30044 0.47961 0.0
O301 O 0.70554 0.35646 0.53962 0.0
O302 O 0.71687 0.32258 0.52752 0.0
C303 C 0.71596 0.30976 0.46243 0.0
C304 C 0.71547 0.33639 0.54502 0.0
O305 O 0.6843 0.37915 0.4814 0.0
Mg306 Mg 0.67164 0.00571 0.79645 0.0
O307 O 0.64298 0.00326 0.76216 0.0
O308 O 0.66591 0.00539 0.72982 0.0
Mg309 Mg 0.70897 0.01155 0.74305 0.0
C310 C 0.64437 0.00319 0.73921 0.0
C311 C 0.64153 0.00298 0.8411 0.0
O312 O 0.66428 0.01662 0.84726 0.0
O313 O 0.67906 0.9655 0.79376 0.0
O314 O 0.70355 0.97168 0.76212 0.0
O315 O 0.6754 0.0475 0.79326 0.0
O316 O 0.70089 0.02704 0.77648 0.0
C317 C 0.69272 0.95744 0.77931 0.0
C318 C 0.69426 0.04814 0.77976 0.0
O319 O 0.63797 0.99336 0.82053 0.0
Mg320 Mg 0.02893 0.28266 0.93276 0.0
O321 O 0.99202 0.27625 0.90666 0.0
O322 O 0.95918 0.25999 0.92942 0.0
Mg323 Mg 0.9753 0.25424 0.96903 0.0
C324 C 0.96796 0.26799 0.90888 0.0
C325 C 0.07573 0.30635 0.90865 0.0
O326 O 0.08308 0.29551 0.92971 0.0
O327 O 0.01667 0.31639 0.94725 0.0
O328 O 0.98536 0.29749 0.97071 0.0
O329 O 0.03554 0.24441 0.92719 0.0
O330 O 0.01318 0.25291 0.95629 0.0
C331 C 0.99984 0.31736 0.9621 0.0
C332 C 0.02147 0.23637 0.94517 0.0
O333 O 0.05175 0.30654 0.90364 0.0
Mg334 Mg 0.53952 0.79008 0.43331 0.0
O335 O 0.49967 0.78057 0.41231 0.0
O336 O 0.47131 0.76124 0.43847 0.0
Mg337 Mg 0.49322 0.7588 0.47619 0.0
C338 C 0.47674 0.77001 0.417 0.0
C339 C 0.57765 0.82736 0.40338 0.0
O340 O 0.58923 0.82912 0.4255 0.0
O341 O 0.52693 0.82268 0.44931 0.0
O342 O 0.49951 0.80226 0.47593 0.0
O343 O 0.54777 0.75263 0.42681 0.0
O344 O 0.5295 0.76038 0.45906 0.0
C345 C 0.51149 0.8227 0.46572 0.0
C346 C 0.53707 0.74431 0.44675 0.0
O347 O 0.55503 0.81424 0.40063 0.0
Mg348 Mg 0.98081 0.73699 0.61049 0.0
O349 O 0.01527 0.72913 0.63725 0.0
O350 O 0.04581 0.72183 0.6148 0.0
Mg351 Mg 0.03174 0.72587 0.57443 0.0
C352 C 0.03756 0.72382 0.6354 0.0
C353 C 0.95676 0.73719 0.66013 0.0
O354 O 0.96422 0.71522 0.66309 0.0
O355 O 0.00324 0.7763 0.6008 0.0
O356 O 0.03289 0.7685 0.57763 0.0
O357 O 0.96338 0.69599 0.60994 0.0
O358 O 0.99161 0.71572 0.5846 0.0
C359 C 0.02215 0.78389 0.58759 0.0
C360 C 0.97736 0.69497 0.59219 0.0
O361 O 0.96171 0.75113 0.6408 0.0
Mg362 Mg 0.48271 0.24654 0.10531 0.0
O363 O 0.5192 0.23948 0.12956 0.0
O364 O 0.54827 0.23433 0.10448 0.0
Mg365 Mg 0.5309 0.23765 0.06504 0.0
C366 C 0.54158 0.23546 0.12591 0.0
C367 C 0.46115 0.24503 0.15648 0.0
O368 O 0.46862 0.22307 0.15834 0.0
O369 O 0.5031 0.28662 0.09463 0.0
O370 O 0.53108 0.27984 0.06912 0.0
O371 O 0.46716 0.2051 0.10551 0.0
O372 O 0.49198 0.22624 0.07792 0.0
C373 C 0.52078 0.29477 0.08015 0.0
C374 C 0.4796 0.20492 0.08646 0.0
O375 O 0.46545 0.25958 0.1374 0.0
H376 H 0.21431 0.71061 0.85807 0.0
H377 H 0.19513 0.8297 0.92646 0.0
H378 H 0.18427 0.77331 0.81985 0.0
H379 H 0.23915 0.77322 0.95727 0.0
H380 H 0.18728 0.80837 0.88811 0.0
H381 H 0.21942 0.73211 0.89562 0.0
C382 C 0.20888 0.72899 0.85753 0.0
C383 C 0.19918 0.74029 0.83563 0.0
C384 C 0.19867 0.80076 0.90333 0.0
C385 C 0.20471 0.76505 0.87891 0.0
C386 C 0.20314 0.8129 0.92521 0.0
C387 C 0.21788 0.80332 0.94518 0.0
C388 C 0.20879 0.7788 0.90155 0.0
C389 C 0.22776 0.78146 0.94246 0.0
C390 C 0.21171 0.74125 0.87906 0.0
C391 C 0.19177 0.76385 0.83631 0.0
N392 N 0.22298 0.76999 0.92117 0.0
N393 N 0.19479 0.77552 0.8576 0.0
H394 H 0.03774 0.52843 0.44745 0.0
H395 H 0.08585 0.47914 0.33035 0.0
H396 H 0.98549 0.49378 0.38984 0.0
H397 H 0.13697 0.50889 0.39113 0.0
H398 H 0.04866 0.48127 0.35291 0.0
H399 H 0.07425 0.51898 0.42804 0.0
C400 C 0.034 0.51857 0.43083 0.0
C401 C 0.00862 0.51164 0.42035 0.0
C402 C 0.06803 0.48708 0.3614 0.0
C403 C 0.05024 0.50109 0.39774 0.0
C404 C 0.08928 0.48576 0.34855 0.0
C405 C 0.1146 0.49406 0.35875 0.0
C406 C 0.07215 0.49685 0.38455 0.0
C407 C 0.11784 0.50248 0.38242 0.0
C408 C 0.0548 0.5132 0.41972 0.0
C409 C 0.00479 0.49926 0.3986 0.0
N410 N 0.09691 0.50387 0.39438 0.0
N411 N 0.02538 0.49446 0.38795 0.0
H412 H 0.80794 0.73378 0.85864 0.0
H413 H 0.79347 0.75921 0.99616 0.0
H414 H 0.80805 0.80685 0.88445 0.0
H415 H 0.80718 0.68745 0.97713 0.0
H416 H 0.80022 0.77646 0.95489 0.0
H417 H 0.80936 0.7159 0.90119 0.0
C418 C 0.80851 0.74607 0.87324 0.0
C419 C 0.80738 0.77175 0.86799 0.0
C420 C 0.80195 0.75697 0.95958 0.0
C421 C 0.80895 0.75152 0.91643 0.0
C422 C 0.79799 0.74705 0.98322 0.0
C423 C 0.79949 0.72177 0.99002 0.0
C424 C 0.80712 0.74149 0.94224 0.0
C425 C 0.80581 0.70705 0.97255 0.0
C426 C 0.80928 0.73586 0.89746 0.0
C427 C 0.80821 0.78684 0.88757 0.0
N428 N 0.80908 0.71705 0.94926 0.0
N429 N 0.80876 0.77648 0.91079 0.0
H430 H 0.00574 0.96607 0.44123 0.0
H431 H 0.93561 0.0433 0.33292 0.0
H432 H 0.99625 0.04292 0.44561 0.0
H433 H 0.96465 0.97564 0.32338 0.0
H434 H 0.95156 0.04065 0.37608 0.0
H435 H 0.98459 0.96656 0.39969 0.0
C436 C 0.99917 0.98303 0.43336 0.0
C437 C 0.00313 0.00463 0.44657 0.0
C438 C 0.9543 0.02634 0.36452 0.0
C439 C 0.97865 0.00528 0.39934 0.0
C440 C 0.94509 0.02776 0.33992 0.0
C441 C 0.94896 0.00977 0.32444 0.0
C442 C 0.96719 0.00664 0.37375 0.0
C443 C 0.96143 0.99007 0.33455 0.0
C444 C 0.98712 0.98332 0.40972 0.0
C445 C 0.99387 0.02601 0.43583 0.0
N446 N 0.97012 0.98907 0.35852 0.0
N447 N 0.98212 0.02584 0.41278 0.0
H448 H 0.21526 0.22578 0.72395 0.0
H449 H 0.26447 0.24247 0.59007 0.0
H450 H 0.21482 0.29279 0.67584 0.0
H451 H 0.27699 0.1804 0.64155 0.0
H452 H 0.24497 0.26032 0.62104 0.0
H453 H 0.23703 0.20807 0.69401 0.0
C454 C 0.21978 0.23668 0.70703 0.0
C455 C 0.21292 0.2605 0.70204 0.0
C456 C 0.25199 0.24281 0.62564 0.0
C457 C 0.23777 0.24062 0.66791 0.0
C458 C 0.26302 0.23251 0.60789 0.0
C459 C 0.2722 0.2098 0.61318 0.0
C460 C 0.24997 0.23028 0.64889 0.0
C461 C 0.27011 0.19794 0.6367 0.0
C462 C 0.2322 0.22665 0.69001 0.0
C463 C 0.21947 0.27417 0.68013 0.0
N464 N 0.25909 0.20827 0.6537 0.0
N465 N 0.23137 0.26395 0.66378 0.0
H466 H 0.48373 0.49373 0.57183 0.0
H467 H 0.42129 0.56703 0.658 0.0
H468 H 0.51506 0.57187 0.58424 0.0
H469 H 0.45254 0.50368 0.69326 0.0
H470 H 0.4418 0.56245 0.62118 0.0
H471 H 0.46033 0.49075 0.60893 0.0
C472 C 0.48584 0.51014 0.5823 0.0
C473 C 0.50085 0.53329 0.57444 0.0
C474 C 0.44371 0.54933 0.63693 0.0
C475 C 0.4738 0.53008 0.61599 0.0
C476 C 0.43203 0.55186 0.65788 0.0
C477 C 0.43549 0.53591 0.67884 0.0
C478 C 0.45843 0.53037 0.63672 0.0
C479 C 0.4497 0.51659 0.67763 0.0
C480 C 0.47243 0.50842 0.60329 0.0
C481 C 0.50293 0.55391 0.58887 0.0
N482 N 0.46078 0.51435 0.65685 0.0
N483 N 0.48919 0.55194 0.60861 0.0
H484 H 0.78221 0.34113 0.69479 0.0
H485 H 0.72987 0.29219 0.56346 0.0
H486 H 0.7669 0.26262 0.67945 0.0
H487 H 0.72483 0.36633 0.58366 0.0
H488 H 0.7469 0.28202 0.60508 0.0
H489 H 0.76417 0.35178 0.65337 0.0
C490 C 0.77505 0.32618 0.68265 0.0
C491 C 0.77632 0.30102 0.69031 0.0
C492 C 0.74204 0.30051 0.60043 0.0
C493 C 0.75578 0.31295 0.64314 0.0
C494 C 0.73245 0.30638 0.57663 0.0
C495 C 0.72599 0.33017 0.57009 0.0
C496 C 0.74544 0.31863 0.61778 0.0
C497 C 0.72953 0.34774 0.58797 0.0
C498 C 0.76474 0.33222 0.65909 0.0
C499 C 0.76653 0.28227 0.67407 0.0
N500 N 0.73913 0.34166 0.611 0.0
N501 N 0.75685 0.28863 0.65118 0.0
H502 H 0.51652 0.96337 0.63082 0.0
H503 H 0.60231 0.02479 0.74329 0.0
H504 H 0.52007 0.04214 0.64215 0.0
H505 H 0.6323 0.97836 0.6975 0.0
H506 H 0.5642 0.02458 0.7137 0.0
H507 H 0.55164 0.96204 0.66278 0.0
C508 C 0.52459 0.98046 0.63982 0.0
C509 C 0.5154 0.0031 0.63316 0.0
C510 C 0.57909 0.01432 0.71034 0.0
C511 C 0.5549 0.00109 0.67075 0.0
C512 C 0.60067 0.01429 0.7272 0.0
C513 C 0.62043 0.00161 0.72272 0.0
C514 C 0.57699 0.00095 0.68935 0.0
C515 C 0.61753 0.98846 0.70151 0.0
C516 C 0.54451 0.97952 0.65825 0.0
C517 C 0.52616 0.02418 0.64655 0.0
N518 N 0.5961 0.9883 0.68567 0.0
N519 N 0.5453 0.02265 0.66472 0.0
H520 H 0.88094 0.22584 0.77383 0.0
H521 H 0.91723 0.27278 0.90591 0.0
H522 H 0.84081 0.2787 0.80097 0.0
H523 H 0.97676 0.26117 0.8621 0.0
H524 H 0.88636 0.26966 0.86966 0.0
H525 H 0.91425 0.23317 0.80817 0.0
C526 C 0.87931 0.23906 0.78701 0.0
C527 C 0.85832 0.25177 0.78472 0.0
C528 C 0.90623 0.26797 0.868 0.0
C529 C 0.8957 0.2598 0.82395 0.0
C530 C 0.92379 0.26961 0.88864 0.0
C531 C 0.94954 0.26721 0.88694 0.0
C532 C 0.91433 0.26323 0.84569 0.0
C533 C 0.95709 0.26324 0.86412 0.0
C534 C 0.89825 0.2433 0.80644 0.0
C535 C 0.85687 0.2687 0.80215 0.0
N536 N 0.93944 0.26103 0.84439 0.0
N537 N 0.87517 0.272 0.82128 0.0
H538 H 0.45084 0.94025 0.52519 0.0
H539 H 0.5413 0.86971 0.45804 0.0
H540 H 0.53032 0.9725 0.51368 0.0
H541 H 0.47252 0.83124 0.49127 0.0
H542 H 0.535 0.90939 0.47277 0.0
H543 H 0.45588 0.9019 0.50706 0.0
C544 C 0.46937 0.93916 0.5189 0.0
C545 C 0.49041 0.95922 0.52149 0.0
C546 C 0.52129 0.89224 0.47676 0.0
C547 C 0.49617 0.91575 0.50029 0.0
C548 C 0.5248 0.86962 0.46829 0.0
C549 C 0.50749 0.84708 0.47354 0.0
C550 C 0.50013 0.89237 0.49027 0.0
C551 C 0.48648 0.8481 0.48694 0.0
C552 C 0.47224 0.91734 0.50855 0.0
C553 C 0.51381 0.95721 0.51244 0.0
N554 N 0.48338 0.87035 0.49481 0.0
N555 N 0.51611 0.93579 0.5023 0.0
H556 H 0.19352 0.29309 0.8186 0.0
H557 H 0.06803 0.32919 0.86264 0.0
H558 H 0.15878 0.35253 0.77975 0.0
H559 H 0.1259 0.30008 0.91183 0.0
H560 H 0.0981 0.33577 0.83041 0.0
H561 H 0.16525 0.29201 0.85131 0.0
C562 C 0.17979 0.30582 0.81696 0.0
C563 C 0.1783 0.32284 0.79652 0.0
C564 C 0.1042 0.32825 0.84839 0.0
C565 C 0.14597 0.32176 0.83375 0.0
C566 C 0.08711 0.32449 0.86676 0.0
C567 C 0.09439 0.31387 0.8899 0.0
C568 C 0.12842 0.32089 0.85319 0.0
C569 C 0.11936 0.30817 0.89425 0.0
C570 C 0.16384 0.30536 0.83567 0.0
C571 C 0.16043 0.33917 0.79533 0.0
N572 N 0.13531 0.31143 0.87599 0.0
N573 N 0.1447 0.33809 0.81365 0.0
H574 H 0.53767 0.60999 0.54021 0.0
H575 H 0.54389 0.70468 0.4218 0.0
H576 H 0.52725 0.5825 0.46811 0.0
H577 H 0.52406 0.72279 0.49136 0.0
H578 H 0.54243 0.66074 0.4379 0.0
H579 H 0.53859 0.65267 0.52218 0.0
C580 C 0.53547 0.61293 0.52052 0.0
C581 C 0.5318 0.59254 0.50564 0.0
C582 C 0.53823 0.67435 0.44951 0.0
C583 C 0.53327 0.64167 0.48483 0.0
C584 C 0.53906 0.69938 0.44039 0.0
C585 C 0.53415 0.7174 0.45532 0.0
C586 C 0.53287 0.66751 0.47381 0.0
C587 C 0.52795 0.70955 0.4792 0.0
C588 C 0.53603 0.63735 0.51025 0.0
C589 C 0.53001 0.59767 0.48023 0.0
N590 N 0.52771 0.68524 0.48776 0.0
N591 N 0.53067 0.62181 0.47056 0.0
H592 H 0.85784 0.7333 0.77713 0.0
H593 H 0.93325 0.77862 0.65725 0.0
H594 H 0.84248 0.79557 0.7274 0.0
H595 H 0.94296 0.71194 0.70339 0.0
H596 H 0.90339 0.78783 0.68498 0.0
H597 H 0.89242 0.72784 0.75261 0.0
C598 C 0.86183 0.74582 0.76101 0.0
C599 C 0.84702 0.76455 0.7539 0.0
C600 C 0.91218 0.77127 0.68912 0.0
C601 C 0.88662 0.75866 0.7259 0.0
C602 C 0.9293 0.76602 0.67331 0.0
C603 C 0.94052 0.74435 0.67787 0.0
C604 C 0.90622 0.75477 0.70968 0.0
C605 C 0.93467 0.72877 0.69903 0.0
C606 C 0.88154 0.74274 0.74704 0.0
C607 C 0.85323 0.78063 0.73319 0.0
N608 N 0.91785 0.73421 0.71405 0.0
N609 N 0.87245 0.77722 0.7198 0.0
H610 H 0.10328 0.93202 0.53753 0.0
H611 H 0.99763 0.82245 0.59559 0.0
H612 H 0.02369 0.93848 0.54177 0.0
H613 H 0.06675 0.80813 0.56777 0.0
H614 H 0.01068 0.86732 0.58367 0.0
H615 H 0.09374 0.88874 0.5563 0.0
C616 C 0.08392 0.92442 0.54273 0.0
C617 C 0.06418 0.93868 0.53797 0.0
C618 C 0.02305 0.85435 0.58034 0.0
C619 C 0.05318 0.88949 0.55941 0.0
C620 C 0.01569 0.82873 0.58722 0.0
C621 C 0.03099 0.8114 0.58248 0.0
C622 C 0.04604 0.86281 0.56886 0.0
C623 C 0.05421 0.82074 0.57156 0.0
C624 C 0.07845 0.89974 0.55328 0.0
C625 C 0.03936 0.92796 0.5449 0.0
N626 N 0.06099 0.8458 0.56507 0.0
N627 N 0.03456 0.90401 0.55525 0.0
H628 H 0.15202 0.67739 0.74367 0.0
H629 H 0.03968 0.74551 0.67889 0.0
H630 H 0.14516 0.75229 0.76053 0.0
H631 H 0.07537 0.69529 0.64241 0.0
H632 H 0.07144 0.74252 0.71423 0.0
H633 H 0.11705 0.67826 0.7115 0.0
C634 C 0.14333 0.6941 0.74064 0.0
C635 C 0.15207 0.71501 0.75473 0.0
C636 C 0.07212 0.73208 0.6985 0.0
C637 C 0.11122 0.7156 0.71829 0.0
C638 C 0.05397 0.73363 0.67844 0.0
C639 C 0.055 0.72071 0.65767 0.0
C640 C 0.09097 0.71703 0.69793 0.0
C641 C 0.07401 0.70571 0.65798 0.0
C642 C 0.1232 0.69444 0.72235 0.0
C643 C 0.13913 0.73565 0.75035 0.0
N644 N 0.09117 0.7042 0.67781 0.0
N645 N 0.11938 0.73543 0.7325 0.0
H646 H 0.91646 0.56465 0.5119 0.0
H647 H 0.0127 0.68174 0.56453 0.0
H648 H 0.99921 0.56709 0.51826 0.0
H649 H 0.93814 0.65414 0.59226 0.0
H650 H 0.00757 0.64335 0.54248 0.0
H651 H 0.92326 0.60114 0.53633 0.0
C652 C 0.93606 0.57258 0.51852 0.0
C653 C 0.95724 0.56235 0.51299 0.0
C654 C 0.99246 0.64569 0.55356 0.0
C655 C 0.96509 0.60496 0.5404 0.0
C656 C 0.99534 0.66759 0.5661 0.0
C657 C 0.97582 0.67115 0.58028 0.0
C658 C 0.96963 0.62758 0.55472 0.0
C659 C 0.95373 0.65212 0.58165 0.0
C660 C 0.93988 0.59357 0.53238 0.0
C661 C 0.98222 0.57433 0.52159 0.0
N662 N 0.95108 0.63131 0.56879 0.0
N663 N 0.98545 0.59506 0.53471 0.0
H664 H 0.73198 0.89117 0.23951 0.0
H665 H 0.88631 0.92735 0.24168 0.0
H666 H 0.78267 0.83655 0.25039 0.0
H667 H 0.83691 0.98228 0.24311 0.0
H668 H 0.84809 0.89404 0.2399 0.0
H669 H 0.76976 0.92483 0.23559 0.0
C670 C 0.75104 0.88623 0.24096 0.0
C671 C 0.75415 0.86098 0.24555 0.0
C672 C 0.84559 0.91337 0.24055 0.0
C673 C 0.79746 0.89944 0.2409 0.0
C674 C 0.86743 0.93247 0.24156 0.0
C675 C 0.8649 0.95772 0.24271 0.0
C676 C 0.82093 0.91948 0.2406 0.0
C677 C 0.83985 0.96309 0.24241 0.0
C678 C 0.77259 0.90546 0.23867 0.0
C679 C 0.77928 0.85568 0.24671 0.0
N680 N 0.81885 0.94412 0.24144 0.0
N681 N 0.79997 0.87476 0.24458 0.0
H682 H 0.79014 0.17253 0.30301 0.0
H683 H 0.81542 0.06484 0.22212 0.0
H684 H 0.74594 0.15287 0.23535 0.0
H685 H 0.86254 0.08703 0.28784 0.0
H686 H 0.78724 0.0941 0.22881 0.0
H687 H 0.81437 0.13863 0.29988 0.0
C688 C 0.78556 0.16099 0.28752 0.0
C689 C 0.76644 0.16572 0.26914 0.0
C690 C 0.80364 0.09246 0.24187 0.0
C691 C 0.79382 0.12685 0.26549 0.0
C692 C 0.81975 0.07569 0.23809 0.0
C693 C 0.84155 0.07357 0.25434 0.0
C694 C 0.80932 0.10732 0.26205 0.0
C695 C 0.84605 0.0881 0.27476 0.0
C696 C 0.79934 0.14165 0.28573 0.0
C697 C 0.76085 0.15 0.24968 0.0
N698 N 0.83019 0.10446 0.27794 0.0
N699 N 0.77461 0.13138 0.24825 0.0
H700 H 0.38139 0.01479 0.98493 0.0
H701 H 0.32559 0.86665 0.00369 0.0
H702 H 0.42783 0.95671 0.98926 0.0
H703 H 0.27649 0.92272 0.99594 0.0
H704 H 0.36298 0.8999 0.99809 0.0
H705 H 0.34268 0.98198 0.98907 0.0
C706 C 0.38348 0.99516 0.98684 0.0
C707 C 0.40794 0.98851 0.98669 0.0
C708 C 0.34406 0.90502 0.99754 0.0
C709 C 0.36371 0.9509 0.99124 0.0
C710 C 0.3226 0.88598 0.00075 0.0
C711 C 0.29774 0.89182 0.00038 0.0
C712 C 0.34088 0.93029 0.99399 0.0
C713 C 0.29524 0.9173 0.99635 0.0
C714 C 0.36135 0.97645 0.98904 0.0
C715 C 0.40939 0.96276 0.98892 0.0
N716 N 0.31657 0.93562 0.99342 0.0
N717 N 0.38765 0.94498 0.99114 0.0
H718 H 0.30363 0.36345 0.28447 0.0
H719 H 0.18452 0.42445 0.31221 0.0
H720 H 0.2393 0.3199 0.32119 0.0
H721 H 0.23557 0.45403 0.25583 0.0
H722 H 0.20469 0.38672 0.31792 0.0
H723 H 0.27971 0.39791 0.27616 0.0
C724 C 0.28438 0.36092 0.29059 0.0
C725 C 0.27356 0.3385 0.30351 0.0
C726 C 0.21122 0.40144 0.30417 0.0
C727 C 0.24615 0.37849 0.29449 0.0
C728 C 0.19969 0.42296 0.30087 0.0
C729 C 0.20842 0.44264 0.28363 0.0
C730 C 0.23177 0.39979 0.29035 0.0
C731 C 0.22822 0.43957 0.26948 0.0
C732 C 0.27075 0.38076 0.28594 0.0
C733 C 0.2487 0.33688 0.3115 0.0
N734 N 0.23932 0.41877 0.27332 0.0
N735 N 0.23591 0.35663 0.30698 0.0
H736 H 0.14433 0.00457 0.53304 0.0
H737 H 0.18289 0.15309 0.54957 0.0
H738 H 0.09045 0.05611 0.52398 0.0
H739 H 0.23989 0.10513 0.55137 0.0
H740 H 0.14875 0.11652 0.54405 0.0
H741 H 0.17938 0.03983 0.54366 0.0
C742 C 0.13984 0.02324 0.53351 0.0
C743 C 0.11447 0.02747 0.52741 0.0
C744 C 0.16869 0.11389 0.5457 0.0
C745 C 0.15437 0.06779 0.53942 0.0
C746 C 0.1883 0.13485 0.54889 0.0
C747 C 0.21444 0.13232 0.55078 0.0
C748 C 0.17505 0.09004 0.54434 0.0
C749 C 0.22005 0.10803 0.54991 0.0
C750 C 0.15986 0.04336 0.53943 0.0
C751 C 0.10977 0.05205 0.52816 0.0
N752 N 0.20051 0.08783 0.54663 0.0
N753 N 0.12949 0.07122 0.53397 0.0
H754 H 0.74913 0.20651 0.74214 0.0
H755 H 0.74058 0.05687 0.75936 0.0
H756 H 0.81617 0.17078 0.74935 0.0
H757 H 0.68027 0.09454 0.77685 0.0
H758 H 0.76605 0.09789 0.7468 0.0
H759 H 0.72135 0.16484 0.74604 0.0
C760 C 0.75796 0.18985 0.74418 0.0
C761 C 0.78498 0.19205 0.74556 0.0
C762 C 0.74714 0.09711 0.75317 0.0
C763 C 0.75338 0.14444 0.7501 0.0
C764 C 0.73253 0.07372 0.76022 0.0
C765 C 0.70836 0.07234 0.76935 0.0
C766 C 0.73737 0.1192 0.75502 0.0
C767 C 0.6989 0.09478 0.77011 0.0
C768 C 0.74213 0.16613 0.74656 0.0
C769 C 0.79544 0.16989 0.74847 0.0
N770 N 0.71348 0.11732 0.76313 0.0
N771 N 0.77961 0.14698 0.7507 0.0
H772 H 0.47023 0.07186 0.60476 0.0
H773 H 0.33192 0.10346 0.5525 0.0
H774 H 0.40827 0.01677 0.57338 0.0
H775 H 0.39169 0.15562 0.59048 0.0
H776 H 0.35978 0.07162 0.559 0.0
H777 H 0.4416 0.10279 0.59952 0.0
C778 C 0.45052 0.06615 0.59702 0.0
C779 C 0.44173 0.04164 0.58944 0.0
C780 C 0.36677 0.09005 0.5659 0.0
C781 C 0.40889 0.07721 0.58292 0.0
C782 C 0.35091 0.10826 0.56211 0.0
C783 C 0.35946 0.13227 0.57094 0.0
C784 C 0.39138 0.09593 0.57853 0.0
C785 C 0.38423 0.13739 0.58335 0.0
C786 C 0.43422 0.08391 0.59384 0.0
C787 C 0.41606 0.03554 0.57914 0.0
N788 N 0.39927 0.11941 0.58675 0.0
N789 N 0.40061 0.0532 0.57611 0.0
H790 H 0.59266 0.50447 0.49008 0.0
H791 H 0.6075 0.36394 0.46683 0.0
H792 H 0.52957 0.44081 0.48811 0.0
H793 H 0.67293 0.42399 0.47988 0.0
H794 H 0.57847 0.39368 0.46848 0.0
H795 H 0.6221 0.4769 0.48126 0.0
C796 C 0.58509 0.48463 0.48794 0.0
C797 C 0.55884 0.47469 0.4905 0.0
C798 C 0.59917 0.40045 0.47077 0.0
C799 C 0.59212 0.44325 0.4798 0.0
C800 C 0.61581 0.38348 0.4697 0.0
C801 C 0.64273 0.39138 0.47349 0.0
C802 C 0.60944 0.42559 0.4757 0.0
C803 C 0.65232 0.41702 0.47696 0.0
C804 C 0.60183 0.46896 0.48279 0.0
C805 C 0.5498 0.44908 0.48683 0.0
N806 N 0.63567 0.43316 0.47824 0.0
N807 N 0.56642 0.43423 0.48179 0.0
H808 H 0.70574 0.20343 0.3528 0.0
H809 H 0.69333 0.32652 0.41823 0.0
H810 H 0.68901 0.27101 0.31199 0.0
H811 H 0.72968 0.26584 0.45251 0.0
H812 H 0.68723 0.30555 0.37972 0.0
H813 H 0.70997 0.22502 0.39026 0.0
C814 C 0.7031 0.22287 0.35165 0.0
C815 C 0.69729 0.23544 0.32907 0.0
C816 C 0.69657 0.29694 0.39574 0.0
C817 C 0.7017 0.26029 0.37222 0.0
C818 C 0.70002 0.30886 0.41771 0.0
C819 C 0.7121 0.298 0.43869 0.0
C820 C 0.70497 0.2739 0.39489 0.0
C821 C 0.72038 0.27507 0.43689 0.0
C822 C 0.70539 0.23518 0.37312 0.0
C823 C 0.69334 0.26047 0.32895 0.0
N824 N 0.71658 0.26382 0.41548 0.0
N825 N 0.69567 0.2721 0.3502 0.0
H826 H 0.48934 0.99552 0.89099 0.0
H827 H 0.64336 0.02182 0.88571 0.0
H828 H 0.5429 0.04128 0.9405 0.0
H829 H 0.59003 0.98224 0.83145 0.0
H830 H 0.60698 0.02464 0.90867 0.0
H831 H 0.526 0.98639 0.87148 0.0
C832 C 0.50887 0.00348 0.89784 0.0
C833 C 0.5132 0.01921 0.91733 0.0
C834 C 0.6032 0.01518 0.89183 0.0
C835 C 0.55518 0.00892 0.89513 0.0
C836 C 0.62401 0.01349 0.8787 0.0
C837 C 0.61977 0.00195 0.85646 0.0
C838 C 0.57784 0.00531 0.88271 0.0
C839 C 0.59422 0.99139 0.84844 0.0
C840 C 0.52977 0.99829 0.88671 0.0
C841 C 0.53883 0.02906 0.92551 0.0
N842 N 0.57421 0.99349 0.86146 0.0
N843 N 0.55885 0.02383 0.91433 0.0
H844 H 0.3384 0.26534 0.36749 0.0
H845 H 0.24292 0.21471 0.47142 0.0
H846 H 0.256 0.26402 0.35903 0.0
H847 H 0.32303 0.2063 0.47886 0.0
H848 H 0.24729 0.23015 0.42911 0.0
H849 H 0.33333 0.24146 0.40704 0.0
C850 C 0.31921 0.25982 0.37381 0.0
C851 C 0.29762 0.26698 0.36001 0.0
C852 C 0.26392 0.22473 0.43982 0.0
C853 C 0.29174 0.23982 0.40531 0.0
C854 C 0.26142 0.2159 0.46404 0.0
C855 C 0.28272 0.20943 0.47876 0.0
C856 C 0.28801 0.22754 0.43016 0.0
C857 C 0.30613 0.21109 0.46813 0.0
C858 C 0.31635 0.24624 0.39642 0.0
C859 C 0.27328 0.25943 0.36923 0.0
N860 N 0.30828 0.22035 0.44451 0.0
N861 N 0.27105 0.24645 0.3913 0.0
H862 H 0.50151 0.47658 0.9345 0.0
H863 H 0.43358 0.55348 0.82436 0.0
H864 H 0.49465 0.55447 0.93674 0.0
H865 H 0.45877 0.48331 0.81686 0.0
H866 H 0.4499 0.55169 0.86743 0.0
H867 H 0.48003 0.47638 0.89307 0.0
C868 C 0.49544 0.49362 0.92619 0.0
C869 C 0.50022 0.51569 0.93877 0.0
C870 C 0.45171 0.53664 0.85635 0.0
C871 C 0.47537 0.51558 0.89166 0.0
C872 C 0.44229 0.53757 0.83179 0.0
C873 C 0.44496 0.5186 0.81689 0.0
C874 C 0.46366 0.51648 0.86613 0.0
C875 C 0.45647 0.49847 0.82756 0.0
C876 C 0.4832 0.49352 0.90261 0.0
C877 C 0.49161 0.53718 0.92746 0.0
N878 N 0.46542 0.49797 0.85148 0.0
N879 N 0.47967 0.53663 0.90449 0.0
H880 H 0.70441 0.71689 0.22633 0.0
H881 H 0.76962 0.74081 0.09966 0.0
H882 H 0.71337 0.78758 0.18287 0.0
H883 H 0.77167 0.67326 0.1469 0.0
H884 H 0.74808 0.75751 0.12982 0.0
H885 H 0.72838 0.69992 0.19763 0.0
C886 C 0.71141 0.72875 0.21066 0.0
C887 C 0.70651 0.75341 0.20652 0.0
C888 C 0.75323 0.73904 0.13369 0.0
C889 C 0.73398 0.73439 0.1739 0.0
C890 C 0.76542 0.7294 0.11638 0.0
C891 C 0.77225 0.70548 0.12067 0.0
C892 C 0.74762 0.72467 0.15553 0.0
C893 C 0.76668 0.69176 0.14285 0.0
C894 C 0.72511 0.71913 0.19437 0.0
C895 C 0.71637 0.76829 0.18635 0.0
N896 N 0.75454 0.70151 0.15945 0.0
N897 N 0.72947 0.75849 0.17069 0.0
H898 H 0.98486 0.98794 0.07907 0.0
H899 H 0.92235 0.06123 0.16652 0.0
H900 H 0.00674 0.06865 0.08379 0.0
H901 H 0.95626 0.99861 0.19967 0.0
H902 H 0.9414 0.05756 0.1287 0.0
H903 H 0.96452 0.98533 0.11791 0.0
C904 C 0.98553 0.00501 0.08821 0.0
C905 C 0.99689 0.02864 0.07771 0.0
C906 C 0.94437 0.04447 0.14424 0.0
C907 C 0.9733 0.02575 0.12129 0.0
C908 C 0.93349 0.04647 0.16577 0.0
C909 C 0.938 0.0304 0.18638 0.0
C910 C 0.95941 0.02593 0.1431 0.0
C911 C 0.95262 0.0116 0.18432 0.0
C912 C 0.97387 0.00348 0.11021 0.0
C913 C 0.99731 0.05012 0.09051 0.0
N914 N 0.96289 0.00983 0.16297 0.0
N915 N 0.9853 0.04821 0.11131 0.0
H916 H 0.29279 0.84785 0.2017 0.0
H917 H 0.24344 0.79917 0.06945 0.0
H918 H 0.28065 0.76964 0.18569 0.0
H919 H 0.23636 0.87245 0.09044 0.0
H920 H 0.26182 0.78938 0.11072 0.0
H921 H 0.27651 0.85856 0.15973 0.0
C922 C 0.28697 0.83301 0.18922 0.0
C923 C 0.28866 0.80795 0.19691 0.0
C924 C 0.25628 0.80761 0.10628 0.0
C925 C 0.26975 0.81991 0.14913 0.0
C926 C 0.2459 0.81327 0.08269 0.0
C927 C 0.23837 0.83667 0.0765 0.0
C928 C 0.25933 0.82556 0.12377 0.0
C929 C 0.24184 0.85415 0.09446 0.0
C930 C 0.27758 0.83908 0.16536 0.0
C931 C 0.28023 0.78928 0.18028 0.0
N932 N 0.25212 0.84825 0.11729 0.0
N933 N 0.27129 0.79566 0.15712 0.0
H934 H 0.05193 0.50371 0.10603 0.0
H935 H 0.09597 0.50578 0.24904 0.0
H936 H 0.99992 0.50997 0.15987 0.0
H937 H 0.14865 0.51135 0.19288 0.0
H938 H 0.05989 0.50431 0.21732 0.0
H939 H 0.08695 0.50359 0.13829 0.0
C940 C 0.04784 0.50494 0.12469 0.0
C941 C 0.02291 0.50678 0.13025 0.0
C942 C 0.07936 0.50582 0.212 0.0
C943 C 0.0631 0.50682 0.16741 0.0
C944 C 0.09997 0.50656 0.2301 0.0
C945 C 0.12546 0.50876 0.22367 0.0
C946 C 0.08425 0.50711 0.18732 0.0
C947 C 0.12941 0.50976 0.19878 0.0
C948 C 0.0679 0.50501 0.14311 0.0
C949 C 0.01889 0.50873 0.15474 0.0
N950 N 0.10908 0.50893 0.18159 0.0
N951 N 0.03876 0.50862 0.17244 0.0
H952 H 0.32856 0.74357 0.33201 0.0
H953 H 0.48048 0.78495 0.3685 0.0
H954 H 0.38459 0.77178 0.27965 0.0
H955 H 0.42495 0.75124 0.41985 0.0
H956 H 0.44542 0.7822 0.33598 0.0
H957 H 0.36343 0.74836 0.3647 0.0
C958 C 0.34821 0.75076 0.32738 0.0
C959 C 0.35366 0.75714 0.30301 0.0
C960 C 0.44092 0.77541 0.35436 0.0
C961 C 0.39371 0.76285 0.34042 0.0
C962 C 0.46094 0.77696 0.37298 0.0
C963 C 0.45572 0.76826 0.39701 0.0
C964 C 0.41544 0.76515 0.35978 0.0
C965 C 0.42997 0.75813 0.40163 0.0
C966 C 0.3681 0.75357 0.34607 0.0
C967 C 0.37944 0.76683 0.29817 0.0
N968 N 0.41082 0.75686 0.3832 0.0
N969 N 0.39851 0.76929 0.31669 0.0
H970 H 0.94905 0.43774 0.02709 0.0
H971 H 0.03303 0.36286 0.95657 0.0
H972 H 0.02868 0.46645 0.01336 0.0
H973 H 0.96111 0.32825 0.98657 0.0
H974 H 0.02963 0.4028 0.97264 0.0
H975 H 0.95107 0.39914 0.00774 0.0
C976 C 0.96698 0.43579 0.02009 0.0
C977 C 0.98891 0.45496 0.02231 0.0
C978 C 0.01458 0.38645 0.97561 0.0
C979 C 0.99127 0.41121 0.99975 0.0
C980 C 0.01644 0.36367 0.96636 0.0
C981 C 0.9974 0.3421 0.97033 0.0
C982 C 0.99341 0.38772 0.98872 0.0
C983 C 0.97636 0.34431 0.98321 0.0
C984 C 0.96814 0.41384 0.00902 0.0
C985 C 0.0115 0.45187 0.01239 0.0
N986 N 0.97494 0.36668 0.99194 0.0
N987 N 0.01214 0.43036 0.0016 0.0
H988 H 0.64056 0.81093 0.27039 0.0
H989 H 0.62749 0.85324 0.40246 0.0
H990 H 0.70404 0.85205 0.3146 0.0
H991 H 0.56255 0.81839 0.35556 0.0
H992 H 0.65481 0.85763 0.3686 0.0
H993 H 0.61085 0.81703 0.29974 0.0
C994 C 0.64821 0.82131 0.28624 0.0
C995 C 0.6748 0.83085 0.29016 0.0
C996 C 0.6345 0.84935 0.3656 0.0
C997 C 0.64098 0.83802 0.32375 0.0
C998 C 0.61885 0.84692 0.38493 0.0
C999 C 0.5928 0.83503 0.38197 0.0
C1000 C 0.62406 0.83963 0.34323 0.0
C1001 C 0.58261 0.82741 0.35876 0.0
C1002 C 0.63124 0.82495 0.3029 0.0
C1003 C 0.68365 0.84451 0.31079 0.0
N1004 N 0.59837 0.82947 0.34039 0.0
N1005 N 0.66682 0.84747 0.32693 0.0
H1006 H 0.016 0.07388 0.96753 0.0
H1007 H 1.0002 0.21468 0.98673 0.0
H1008 H 0.01868 0.10434 0.03774 0.0
H1009 H 0.03133 0.19658 0.92238 0.0
H1010 H 0.99716 0.17078 0.00257 0.0
H1011 H 0.01401 0.11619 0.9479 0.0
C1012 C 0.01618 0.08935 0.9788 0.0
C1013 C 0.01705 0.08538 0.00433 0.0
C1014 C 0.00448 0.17639 0.98489 0.0
C1015 C 0.01421 0.13334 0.98207 0.0
C1016 C 0.00606 0.20141 0.97578 0.0
C1017 C 0.01629 0.20933 0.95334 0.0
C1018 C 0.01301 0.15914 0.97142 0.0
C1019 C 0.02356 0.19127 0.9399 0.0
C1020 C 0.01488 0.11337 0.9676 0.0
C1021 C 0.01718 0.10617 0.01801 0.0
N1022 N 0.02191 0.16696 0.94921 0.0
N1023 N 0.01559 0.1291 0.00672 0.0
H1024 H 0.34723 0.30396 0.22588 0.0
H1025 H 0.44788 0.21796 0.19907 0.0
H1026 H 0.35869 0.23653 0.26968 0.0
H1027 H 0.43761 0.28624 0.15581 0.0
H1028 H 0.41779 0.22626 0.22696 0.0
H1029 H 0.38259 0.29961 0.20175 0.0
C1030 C 0.35728 0.28826 0.23038 0.0
C1031 C 0.34977 0.27027 0.24938 0.0
C1032 C 0.42225 0.23954 0.21147 0.0
C1033 C 0.39027 0.2652 0.22211 0.0
C1034 C 0.43949 0.23483 0.19553 0.0
C1035 C 0.44516 0.25132 0.17492 0.0
C1036 C 0.41045 0.26085 0.20677 0.0
C1037 C 0.43375 0.27293 0.17138 0.0
C1038 C 0.37745 0.28578 0.21667 0.0
C1039 C 0.36365 0.25054 0.25486 0.0
N1040 N 0.4168 0.27696 0.18702 0.0
N1041 N 0.38308 0.2484 0.24116 0.0
H1042 H 0.60008 0.44352 0.03062 0.0
H1043 H 0.49529 0.33269 0.08821 0.0
H1044 H 0.52016 0.44925 0.03406 0.0
H1045 H 0.56489 0.31976 0.06026 0.0
H1046 H 0.50759 0.37775 0.07627 0.0
H1047 H 0.59078 0.40029 0.04942 0.0
C1048 C 0.58068 0.43578 0.03566 0.0
C1049 C 0.5608 0.44984 0.03065 0.0
C1050 C 0.52022 0.36503 0.07292 0.0
C1051 C 0.55005 0.40062 0.05212 0.0
C1052 C 0.51328 0.33933 0.07982 0.0
C1053 C 0.52896 0.32236 0.07503 0.0
C1054 C 0.54317 0.37388 0.06147 0.0
C1055 C 0.55206 0.3321 0.06407 0.0
C1056 C 0.57535 0.41111 0.04622 0.0
C1057 C 0.53595 0.4389 0.03738 0.0
N1058 N 0.55845 0.35719 0.05764 0.0
N1059 N 0.53126 0.41493 0.04774 0.0
H1060 H 0.68169 0.2193 0.21609 0.0
H1061 H 0.53517 0.23441 0.17497 0.0
H1062 H 0.62437 0.21704 0.26727 0.0
H1063 H 0.59183 0.22951 0.12505 0.0
H1064 H 0.56757 0.2296 0.20914 0.0
H1065 H 0.64903 0.22457 0.18263 0.0
C1066 C 0.66218 0.21977 0.22031 0.0
C1067 C 0.65579 0.21756 0.24459 0.0
C1068 C 0.57285 0.22957 0.19069 0.0
C1069 C 0.61819 0.22394 0.2062 0.0
C1070 C 0.55436 0.23232 0.17115 0.0
C1071 C 0.5607 0.23235 0.14702 0.0
C1072 C 0.59789 0.22692 0.18607 0.0
C1073 C 0.58593 0.22956 0.14327 0.0
C1074 C 0.64354 0.22292 0.20117 0.0
C1075 C 0.63027 0.21889 0.24888 0.0
N1076 N 0.60353 0.227 0.16253 0.0
N1077 N 0.6124 0.22194 0.22988 0.0
H1078 H 0.48092 0.09668 0.9802 0.0
H1079 H 0.45819 0.15671 0.1021 0.0
H1080 H 0.44718 0.05268 0.04193 0.0
H1081 H 0.49922 0.19918 0.04355 0.0
H1082 H 0.45439 0.11832 0.0806 0.0
H1083 H 0.48811 0.13431 0.00326 0.0
C1084 C 0.47517 0.09485 0.99866 0.0
C1085 C 0.46336 0.07138 0.00906 0.0
C1086 C 0.46438 0.136 0.07252 0.0
C1087 C 0.47129 0.11462 0.03554 0.0
C1088 C 0.46659 0.15794 0.08481 0.0
C1089 C 0.47904 0.18123 0.07462 0.0
C1090 C 0.47453 0.13734 0.04975 0.0
C1091 C 0.48953 0.18165 0.05215 0.0
C1092 C 0.47919 0.11641 0.01179 0.0
C1093 C 0.45596 0.07037 0.03295 0.0
N1094 N 0.4869 0.16009 0.04042 0.0
N1095 N 0.45999 0.09165 0.04533 0.0
H1096 H 0.25174 0.38334 0.78528 0.0
H1097 H 0.37108 0.44381 0.71357 0.0
H1098 H 0.25583 0.36345 0.71172 0.0
H1099 H 0.33866 0.48812 0.75969 0.0
H1100 H 0.3317 0.41144 0.71505 0.0
H1101 H 0.28591 0.41966 0.77868 0.0
C1102 C 0.25934 0.3867 0.76756 0.0
C1103 C 0.25056 0.37003 0.74902 0.0
C1104 C 0.33316 0.42839 0.72461 0.0
C1105 C 0.29074 0.4113 0.74189 0.0
C1106 C 0.35562 0.44675 0.72391 0.0
C1107 C 0.35812 0.46858 0.73662 0.0
C1108 C 0.31343 0.43161 0.73864 0.0
C1109 C 0.33746 0.47157 0.7496 0.0
C1110 C 0.27908 0.40744 0.76394 0.0
C1111 C 0.26215 0.37529 0.72679 0.0
N1112 N 0.31611 0.45308 0.75061 0.0
N1113 N 0.28189 0.39525 0.72397 0.0
H1114 H 0.30578 0.7067 0.79407 0.0
H1115 H 0.33341 0.57772 0.74969 0.0
H1116 H 0.25045 0.65709 0.74933 0.0
H1117 H 0.39193 0.63265 0.78571 0.0
H1118 H 0.3015 0.60438 0.75297 0.0
H1119 H 0.3364 0.6778 0.79456 0.0
C1120 C 0.30011 0.68966 0.78439 0.0
C1121 C 0.2757 0.68429 0.77147 0.0
C1122 C 0.3213 0.61054 0.76025 0.0
C1123 C 0.31048 0.65108 0.77202 0.0
C1124 C 0.33953 0.59528 0.75847 0.0
C1125 C 0.36546 0.603 0.76732 0.0
C1126 C 0.32898 0.63368 0.77105 0.0
C1127 C 0.37221 0.62596 0.77852 0.0
C1128 C 0.31756 0.67317 0.78466 0.0
C1129 C 0.26919 0.6619 0.75937 0.0
N1130 N 0.35412 0.64051 0.77999 0.0
N1131 N 0.28649 0.64613 0.75989 0.0
H1132 H 0.87665 0.50639 0.48735 0.0
H1133 H 0.81788 0.35865 0.50214 0.0
H1134 H 0.92212 0.44765 0.49034 0.0
H1135 H 0.77015 0.41593 0.4924 0.0
H1136 H 0.85612 0.39136 0.49824 0.0
H1137 H 0.83747 0.47399 0.48998 0.0
C1138 C 0.87842 0.48668 0.48867 0.0
C1139 C 0.90275 0.47974 0.48862 0.0
C1140 C 0.83732 0.39684 0.49687 0.0
C1141 C 0.85795 0.44257 0.49144 0.0
C1142 C 0.81537 0.37813 0.49912 0.0
C1143 C 0.79064 0.38448 0.49766 0.0
C1144 C 0.83472 0.42227 0.49324 0.0
C1145 C 0.78878 0.4101 0.49361 0.0
C1146 C 0.85602 0.46821 0.49001 0.0
C1147 C 0.9038 0.45391 0.49003 0.0
N1148 N 0.81054 0.42807 0.49165 0.0
N1149 N 0.88177 0.43633 0.49144 0.0
H1150 H 0.7578 0.82347 0.7698 0.0
H1151 H 0.69495 0.929 0.82281 0.0
H1152 H 0.77316 0.84486 0.84419 0.0
H1153 H 0.7062 0.92815 0.74657 0.0
H1154 H 0.71419 0.89095 0.83115 0.0
H1155 H 0.73064 0.85568 0.7613 0.0
C1156 C 0.75555 0.83484 0.78437 0.0
C1157 C 0.768 0.8313 0.80777 0.0
C1158 C 0.71208 0.89894 0.81256 0.0
C1159 C 0.73624 0.86777 0.79824 0.0
C1160 C 0.70087 0.92048 0.80775 0.0
C1161 C 0.69916 0.93187 0.78399 0.0
C1162 C 0.72129 0.88855 0.79342 0.0
C1163 C 0.70738 0.92012 0.7652 0.0
C1164 C 0.73984 0.85309 0.77952 0.0
C1165 C 0.76372 0.8464 0.82598 0.0
N1166 N 0.71821 0.89919 0.77032 0.0
N1167 N 0.74825 0.8639 0.82082 0.0
H1168 H 0.58961 0.56782 0.01398 0.0
H1169 H 0.74159 0.60768 0.05205 0.0
H1170 H 0.64106 0.514 0.02631 0.0
H1171 H 0.68796 0.65957 0.0411 0.0
H1172 H 0.70549 0.57291 0.04324 0.0
H1173 H 0.62581 0.60143 0.0245 0.0
C1174 C 0.60858 0.56307 0.01885 0.0
C1175 C 0.61231 0.53805 0.01908 0.0
C1176 C 0.70169 0.59192 0.04282 0.0
C1177 C 0.65404 0.57659 0.03137 0.0
C1178 C 0.72229 0.6118 0.04782 0.0
C1179 C 0.7179 0.63668 0.0473 0.0
C1180 C 0.67652 0.59695 0.03723 0.0
C1181 C 0.69241 0.64079 0.04172 0.0
C1182 C 0.62927 0.58229 0.02498 0.0
C1183 C 0.63726 0.533 0.02603 0.0
N1184 N 0.6728 0.6212 0.0369 0.0
N1185 N 0.65722 0.55212 0.03178 0.0
H1186 H 0.28369 0.69001 0.23021 0.0
H1187 H 0.17947 0.59725 0.30705 0.0
H1188 H 0.26351 0.70667 0.30005 0.0
H1189 H 0.22572 0.57062 0.25814 0.0
H1190 H 0.20244 0.64036 0.29818 0.0
H1191 H 0.25462 0.64881 0.23396 0.0
C1192 C 0.27285 0.68508 0.24615 0.0
C1193 C 0.27602 0.70154 0.26494 0.0
C1194 C 0.20734 0.62505 0.28925 0.0
C1195 C 0.24283 0.65488 0.26924 0.0
C1196 C 0.19419 0.60047 0.29419 0.0
C1197 C 0.20078 0.58024 0.28342 0.0
C1198 C 0.22693 0.62947 0.27314 0.0
C1199 C 0.22006 0.58556 0.26694 0.0
C1200 C 0.25643 0.66162 0.24833 0.0
C1201 C 0.2617 0.69432 0.2853 0.0
N1202 N 0.23249 0.60967 0.26232 0.0
N1203 N 0.2457 0.6715 0.28692 0.0
H1204 H 0.97667 0.57354 0.09974 0.0
H1205 H 0.8345 0.60232 0.0589 0.0
H1206 H 0.91198 0.51631 0.07681 0.0
H1207 H 0.89832 0.65726 0.08761 0.0
H1208 H 0.86266 0.57071 0.06396 0.0
H1209 H 0.94814 0.60451 0.0948 0.0
C1210 C 0.95641 0.56739 0.09391 0.0
C1211 C 0.94677 0.54221 0.08872 0.0
C1212 C 0.87047 0.58971 0.06911 0.0
C1213 C 0.91397 0.57782 0.08255 0.0
C1214 C 0.85443 0.60778 0.06614 0.0
C1215 C 0.86403 0.63249 0.07286 0.0
C1216 C 0.8963 0.59643 0.0788 0.0
C1217 C 0.89001 0.63846 0.08222 0.0
C1218 C 0.94014 0.58517 0.09089 0.0
C1219 C 0.92038 0.53555 0.08074 0.0
N1220 N 0.90518 0.62059 0.08492 0.0
N1221 N 0.90494 0.55324 0.07786 0.0
H1222 H 0.09069 0.00303 0.99501 0.0
H1223 H 0.11401 0.86446 0.97467 0.0
H1224 H 0.03065 0.93673 0.99348 0.0
H1225 H 0.17657 0.92724 0.98773 0.0
H1226 H 0.08304 0.89241 0.97569 0.0
H1227 H 0.12222 0.9771 0.98753 0.0
C1228 C 0.08423 0.98297 0.99331 0.0
C1229 C 0.05821 0.97181 0.99562 0.0
C1230 C 0.10354 0.90016 0.97814 0.0
C1231 C 0.09389 0.94223 0.98636 0.0
C1232 C 0.12129 0.88422 0.97744 0.0
C1233 C 0.14797 0.89343 0.98137 0.0
C1234 C 0.11244 0.92559 0.98285 0.0
C1235 C 0.15618 0.91928 0.9847 0.0
C1236 C 0.10216 0.96822 0.98891 0.0
C1237 C 0.05065 0.94593 0.99243 0.0
N1238 N 0.13847 0.93442 0.9856 0.0
N1239 N 0.0684 0.93202 0.98809 0.0
loop_
_geom_bond_atom_site_label_1
_geom_bond_atom_site_label_2
_geom_bond_distance
_geom_bond_site_symmetry_2
_ccdc_geom_bond_type
H0 C7 0.929 . S
H1 C10 0.930 . S
H2 C12 0.929 1_556 S
H3 C4 0.969 . S
C4 H3 0.969 . S
C4 O5 1.550 1_565 S
C4 H6 0.973 . S
O5 C4 1.550 1_545 S
O5 C11 1.412 . S
H6 C4 0.973 . S
C7 H0 0.929 . S
C7 C8 1.400 1_655 S
C7 C9 1.364 . S
C8 C7 1.400 1_455 S
C8 C12 1.377 . S
C9 C7 1.364 . S
C9 C10 1.374 1_655 S
C10 H1 0.930 . S
C10 C9 1.374 1_455 S
C10 C11 1.383 . S
C11 O5 1.412 . S
C11 C10 1.383 . S
C11 C12 1.394 . S
C12 H2 0.929 1_554 S
C12 C8 1.377 . S
C12 C11 1.394 . S
H13 C20 0.929 . S
H14 C23 0.930 . S
H15 C25 0.929 . S
H16 C17 0.969 . S
C17 H16 0.969 . S
C17 O18 1.550 . S
C17 H19 0.973 . S
O18 C17 1.550 . S
O18 C24 1.412 . S
H19 C17 0.973 . S
C20 H13 0.929 . S
C20 C21 1.400 . S
C20 C22 1.364 . S
C21 C20 1.400 . S
C21 C25 1.377 . S
C22 C20 1.364 . S
C22 C23 1.374 . S
C23 H14 0.930 . S
C23 C22 1.374 . S
C23 C24 1.383 . S
C24 O18 1.412 . S
C24 C23 1.383 . S
C24 C25 1.394 . S
C25 H15 0.929 . S
C25 C21 1.377 . S
C25 C24 1.394 . S
H26 C33 0.929 . S
H27 C36 0.930 . S
H28 C38 0.968 . S
H29 C30 0.969 . S
C30 H29 0.969 . S
C30 O31 1.550 . S
C30 H32 0.973 . S
O31 C30 1.550 . S
O31 C37 1.412 . S
H32 C30 0.973 . S
C33 H26 0.929 . S
C33 C34 1.400 . S
C33 C35 1.364 . S
C34 C33 1.400 . S
C34 C38 1.361 1_655 S
C35 C33 1.364 . S
C35 C36 1.374 . S
C36 H27 0.930 . S
C36 C35 1.374 . S
C36 C37 1.383 . S
C37 O31 1.412 . S
C37 C36 1.383 . S
C37 C38 1.373 1_655 S
C38 H28 0.968 . S
C38 C34 1.361 1_455 S
C38 C37 1.373 1_455 S
H39 C46 0.929 . S
H40 C49 0.930 . S
H41 C51 0.929 . S
H42 C43 0.969 . S
C43 H42 0.969 . S
C43 O44 1.550 . S
C43 H45 0.973 . S
O44 C43 1.550 . S
O44 C50 1.412 . S
H45 C43 0.973 . S
C46 H39 0.929 . S
C46 C47 1.400 . S
C46 C48 1.364 . S
C47 C46 1.400 . S
C47 C51 1.377 . S
C48 C46 1.364 . S
C48 C49 1.374 . S
C49 H40 0.930 . S
C49 C48 1.374 . S
C49 C50 1.383 . S
C50 O44 1.412 . S
C50 C49 1.383 . S
C50 C51 1.394 . S
C51 H41 0.929 . S
C51 C47 1.377 . S
C51 C50 1.394 . S
H52 C59 0.929 . S
H53 C62 0.930 . S
H54 C64 0.929 . S
H55 C56 0.969 . S
C56 H55 0.969 . S
C56 O57 1.550 . S
C56 H58 0.973 . S
O57 C56 1.550 . S
O57 C63 1.412 . S
H58 C56 0.973 . S
C59 H52 0.929 . S
C59 C60 1.400 . S
C59 C61 1.364 . S
C60 C59 1.400 . S
C60 C64 1.377 1_565 S
C61 C59 1.364 . S
C61 C62 1.374 . S
C62 H53 0.930 . S
C62 C61 1.374 . S
C62 C63 1.383 . S
C63 O57 1.412 . S
C63 C62 1.383 . S
C63 C64 1.394 1_565 S
C64 H54 0.929 . S
C64 C60 1.377 1_545 S
C64 C63 1.394 1_545 S
H65 C72 0.929 . S
H66 C75 0.930 . S
H67 C77 0.929 . S
H68 C69 0.969 . S
C69 H68 0.969 . S
C69 O70 1.550 . S
C69 H71 0.973 . S
O70 C69 1.550 . S
O70 C76 1.412 . S
H71 C69 0.973 . S
C72 H65 0.929 . S
C72 C73 1.400 . S
C72 C74 1.364 . S
C73 C72 1.400 . S
C73 C77 1.377 . S
C74 C72 1.364 . S
C74 C75 1.374 . S
C75 H66 0.930 . S
C75 C74 1.374 . S
C75 C76 1.383 . S
C76 O70 1.412 . S
C76 C75 1.383 . S
C76 C77 1.394 . S
C77 H67 0.929 . S
C77 C73 1.377 . S
C77 C76 1.394 . S
H78 C85 0.929 . S
H79 C88 0.930 . S
H80 C90 0.929 1_455 S
H81 C82 0.978 . S
C82 H81 0.978 . S
C82 O83 1.550 1_655 S
C82 H84 0.978 . S
O83 C82 1.550 1_455 S
O83 C89 1.412 1_455 S
H84 C82 0.978 . S
C85 H78 0.929 . S
C85 C86 1.400 . S
C85 C87 1.364 . S
C86 C85 1.400 . S
C86 C90 1.377 . S
C87 C85 1.364 . S
C87 C88 1.374 . S
C88 H79 0.930 . S
C88 C87 1.374 . S
C88 C89 1.383 . S
C89 O83 1.412 1_655 S
C89 C88 1.383 . S
C89 C90 1.394 . S
C90 H80 0.929 1_655 S
C90 C86 1.377 . S
C90 C89 1.394 . S
H91 C98 0.929 . S
H92 C101 0.930 . S
H93 C103 0.929 . S
H94 C95 0.969 . S
C95 H94 0.969 . S
C95 O96 1.550 . S
C95 H97 0.973 . S
O96 C95 1.550 . S
O96 C102 1.412 . S
H97 C95 0.973 . S
C98 H91 0.929 . S
C98 C99 1.400 . S
C98 C100 1.364 . S
C99 C98 1.400 . S
C99 C103 1.377 . S
C100 C98 1.364 . S
C100 C101 1.374 . S
C101 H92 0.930 . S
C101 C100 1.374 . S
C101 C102 1.383 . S
C102 O96 1.412 . S
C102 C101 1.383 . S
C102 C103 1.394 . S
C103 H93 0.929 . S
C103 C99 1.377 . S
C103 C102 1.394 . S
H104 C111 0.929 . S
H105 C114 0.930 . S
H106 C116 0.929 . S
H107 C108 0.969 . S
C108 H107 0.969 . S
C108 O109 1.550 . S
C108 H110 0.973 . S
O109 C108 1.550 . S
O109 C115 1.412 . S
H110 C108 0.973 . S
C111 H104 0.929 . S
C111 C112 1.400 . S
C111 C113 1.364 . S
C112 C111 1.400 . S
C112 C116 1.377 . S
C113 C111 1.364 . S
C113 C114 1.374 . S
C114 H105 0.930 . S
C114 C113 1.374 . S
C114 C115 1.383 . S
C115 O109 1.412 . S
C115 C114 1.383 . S
C115 C116 1.394 . S
C116 H106 0.929 . S
C116 C112 1.377 . S
C116 C115 1.394 . S
H117 C124 0.929 . S
H118 C127 0.930 . S
H119 C129 0.929 . S
H120 C121 0.969 . S
C121 H120 0.969 . S
C121 O122 1.550 . S
C121 H123 0.973 . S
O122 C121 1.550 . S
O122 C128 1.412 . S
H123 C121 0.973 . S
C124 H117 0.929 . S
C124 C125 1.400 . S
C124 C126 1.364 . S
C125 C124 1.400 . S
C125 C129 1.377 . S
C126 C124 1.364 . S
C126 C127 1.374 . S
C127 H118 0.930 . S
C127 C126 1.374 . S
C127 C128 1.383 . S
C128 O122 1.412 . S
C128 C127 1.383 . S
C128 C129 1.394 . S
C129 H119 0.929 . S
C129 C125 1.377 . S
C129 C128 1.394 . S
H130 C137 0.929 . S
H131 C140 0.930 . S
H132 C142 0.929 . S
H133 C134 0.969 . S
C134 H133 0.969 . S
C134 O135 1.550 . S
C134 H136 0.973 . S
O135 C134 1.550 . S
O135 C141 1.412 . S
H136 C134 0.973 . S
C137 H130 0.929 . S
C137 C138 1.400 . S
C137 C139 1.364 . S
C138 C137 1.400 . S
C138 C142 1.377 . S
C139 C137 1.364 . S
C139 C140 1.374 . S
C140 H131 0.930 . S
C140 C139 1.374 . S
C140 C141 1.383 . S
C141 O135 1.412 . S
C141 C140 1.383 . S
C141 C142 1.394 . S
C142 H132 0.929 . S
C142 C138 1.377 . S
C142 C141 1.394 . S
H143 C150 0.929 . S
H144 C153 0.930 . S
H145 C155 0.929 . S
H146 C147 0.969 . S
C147 H146 0.969 . S
C147 O148 1.550 . S
C147 H149 0.973 . S
O148 C147 1.550 . S
O148 C154 1.412 . S
H149 C147 0.973 . S
C150 H143 0.929 . S
C150 C151 1.400 . S
C150 C152 1.364 . S
C151 C150 1.400 . S
C151 C155 1.377 . S
C152 C150 1.364 . S
C152 C153 1.374 . S
C153 H144 0.930 . S
C153 C152 1.374 . S
C153 C154 1.383 . S
C154 O148 1.412 . S
C154 C153 1.383 . S
C154 C155 1.394 . S
C155 H145 0.929 . S
C155 C151 1.377 . S
C155 C154 1.394 . S
H156 C163 0.929 . S
H157 C166 0.930 . S
H158 C168 0.929 . S
H159 C160 0.969 . S
C160 H159 0.969 . S
C160 O161 1.550 . S
C160 H162 0.973 . S
O161 C160 1.550 . S
O161 C167 1.412 . S
H162 C160 0.973 . S
C163 H156 0.929 . S
C163 C164 1.400 . S
C163 C165 1.364 . S
C164 C163 1.400 . S
C164 C168 1.377 . S
C165 C163 1.364 . S
C165 C166 1.374 . S
C166 H157 0.930 . S
C166 C165 1.374 . S
C166 C167 1.383 . S
C167 O161 1.412 . S
C167 C166 1.383 . S
C167 C168 1.394 . S
C168 H158 0.929 . S
C168 C164 1.377 . S
C168 C167 1.394 . S
H169 C176 0.929 . S
H170 C179 0.930 . S
H171 C181 0.929 . S
H172 C173 0.969 . S
C173 H172 0.969 . S
C173 O174 1.550 . S
C173 H175 0.973 . S
O174 C173 1.550 . S
O174 C180 1.412 . S
H175 C173 0.973 . S
C176 H169 0.929 . S
C176 C177 1.400 1_554 S
C176 C178 1.364 1_554 S
C177 C176 1.400 1_556 S
C177 C181 1.377 . S
C178 C176 1.364 1_556 S
C178 C179 1.374 . S
C179 H170 0.930 . S
C179 C178 1.374 . S
C179 C180 1.383 . S
C180 O174 1.412 . S
C180 C179 1.383 . S
C180 C181 1.394 . S
C181 H171 0.929 . S
C181 C177 1.377 . S
C181 C180 1.394 . S
H182 C189 0.929 . S
H183 C192 0.930 . S
H184 C194 0.929 . S
H185 C186 0.969 . S
C186 H185 0.969 . S
C186 O187 1.550 . S
C186 H188 0.973 . S
O187 C186 1.550 . S
O187 C193 1.412 . S
H188 C186 0.973 . S
C189 H182 0.929 . S
C189 C190 1.400 . S
C189 C191 1.364 . S
C190 C189 1.400 . S
C190 C194 1.377 . S
C191 C189 1.364 . S
C191 C192 1.374 . S
C192 H183 0.930 . S
C192 C191 1.374 . S
C192 C193 1.383 . S
C193 O187 1.412 . S
C193 C192 1.383 . S
C193 C194 1.394 . S
C194 H184 0.929 . S
C194 C190 1.377 . S
C194 C193 1.394 . S
H195 C202 0.929 . S
H196 C205 0.930 . S
H197 C207 0.929 . S
H198 C199 0.969 . S
C199 H198 0.969 . S
C199 O200 1.550 . S
C199 H201 0.973 . S
O200 C199 1.550 . S
O200 C206 1.412 . S
H201 C199 0.973 . S
C202 H195 0.929 . S
C202 C203 1.400 . S
C202 C204 1.364 . S
C203 C202 1.400 . S
C203 C207 1.377 . S
C204 C202 1.364 . S
C204 C205 1.374 1_554 S
C205 H196 0.930 . S
C205 C204 1.374 1_556 S
C205 C206 1.383 . S
C206 O200 1.412 . S
C206 C205 1.383 . S
C206 C207 1.394 1_556 S
C207 H197 0.929 . S
C207 C203 1.377 . S
C207 C206 1.394 1_554 S
Mg208 O209 2.028 . S
Mg208 O215 1.986 1_554 S
Mg208 O217 2.114 . S
Mg208 O218 2.251 . S
Mg208 O221 2.010 . S
O209 Mg208 2.028 . S
O209 C212 1.254 . S
O210 Mg211 2.026 1_554 S
O210 C212 1.246 . S
Mg211 O210 2.026 1_556 S
Mg211 O216 2.041 . S
Mg211 O218 2.071 1_556 S
C212 O209 1.254 . S
C212 O210 1.246 . S
C213 O214 1.264 . S
C213 O221 1.249 . S
O214 C213 1.264 . S
O215 Mg208 1.986 1_556 S
O215 C219 1.246 . S
O216 Mg211 2.041 . S
O216 C219 1.259 . S
O217 Mg208 2.114 . S
O217 C220 1.252 . S
O218 Mg208 2.251 . S
O218 Mg211 2.071 1_554 S
O218 C220 1.273 . S
C219 O215 1.246 . S
C219 O216 1.259 . S
C220 O217 1.252 . S
C220 O218 1.273 . S
O221 Mg208 2.010 . S
O221 C213 1.249 . S
Mg222 O223 2.028 . S
Mg222 O229 1.986 . S
Mg222 O231 2.114 . S
Mg222 O232 2.251 . S
Mg222 O235 2.010 . S
O223 Mg222 2.028 . S
O223 C226 1.250 . S
O224 Mg225 2.028 . S
O224 C226 1.248 . S
Mg225 O224 2.028 . S
Mg225 O230 2.032 . S
Mg225 O232 2.079 . S
C226 O223 1.250 . S
C226 O224 1.248 . S
C227 O228 1.264 . S
C227 O235 1.249 . S
O228 C227 1.264 . S
O229 Mg222 1.986 . S
O229 C233 1.246 . S
O230 Mg225 2.032 . S
O230 C233 1.259 . S
O231 Mg222 2.114 . S
O231 C234 1.252 . S
O232 Mg222 2.251 . S
O232 Mg225 2.079 . S
O232 C234 1.273 . S
C233 O229 1.246 . S
C233 O230 1.259 . S
C234 O231 1.252 . S
C234 O232 1.273 . S
O235 Mg222 2.010 . S
O235 C227 1.249 . S
Mg236 O237 2.028 . S
Mg236 O243 1.986 . S
Mg236 O245 2.114 . S
Mg236 O246 2.251 . S
Mg236 O249 2.010 . S
O237 Mg236 2.028 . S
O237 C240 1.250 . S
O238 Mg239 2.028 . S
O238 C240 1.248 . S
Mg239 O238 2.028 . S
Mg239 O244 2.032 . S
Mg239 O246 2.079 . S
C240 O237 1.250 . S
C240 O238 1.248 . S
C241 O242 1.264 . S
C241 O249 1.249 . S
O242 C241 1.264 . S
O243 Mg236 1.986 . S
O243 C247 1.246 . S
O244 Mg239 2.032 . S
O244 C247 1.259 . S
O245 Mg236 2.114 . S
O245 C248 1.252 . S
O246 Mg236 2.251 . S
O246 Mg239 2.079 . S
O246 C248 1.273 . S
C247 O243 1.246 . S
C247 O244 1.259 . S
C248 O245 1.252 . S
C248 O246 1.273 . S
O249 Mg236 2.010 . S
O249 C241 1.249 . S
Mg250 O251 2.028 . S
Mg250 O257 1.986 . S
Mg250 O259 2.114 . S
Mg250 O260 2.251 . S
Mg250 O263 2.010 . S
O251 Mg250 2.028 . S
O251 C254 1.250 1_545 S
O252 Mg253 2.028 . S
O252 C254 1.248 . S
Mg253 O252 2.028 . S
Mg253 O258 2.032 1_565 S
Mg253 O260 2.079 1_565 S
C254 O251 1.250 1_565 S
C254 O252 1.248 . S
C255 O256 1.264 . S
C255 O263 1.249 . S
O256 C255 1.264 . S
O257 Mg250 1.986 . S
O257 C261 1.246 . S
O258 Mg253 2.032 1_545 S
O258 C261 1.259 . S
O259 Mg250 2.114 . S
O259 C262 1.252 . S
O260 Mg250 2.251 . S
O260 Mg253 2.079 1_545 S
O260 C262 1.273 . S
C261 O257 1.246 . S
C261 O258 1.259 . S
C262 O259 1.252 . S
C262 O260 1.273 . S
O263 Mg250 2.010 . S
O263 C255 1.249 . S
Mg264 O265 2.028 . S
Mg264 O271 1.986 . S
Mg264 O273 2.114 . S
Mg264 O274 2.251 . S
Mg264 O277 2.010 . S
O265 Mg264 2.028 . S
O265 C268 1.250 . S
O266 Mg267 2.028 . S
O266 C268 1.248 . S
Mg267 O266 2.028 . S
Mg267 O272 2.032 . S
Mg267 O274 2.079 . S
C268 O265 1.250 . S
C268 O266 1.248 . S
C269 O270 1.264 . S
C269 O277 1.249 . S
O270 C269 1.264 . S
O271 Mg264 1.986 . S
O271 C275 1.246 . S
O272 Mg267 2.032 . S
O272 C275 1.259 . S
O273 Mg264 2.114 . S
O273 C276 1.252 . S
O274 Mg264 2.251 . S
O274 Mg267 2.079 . S
O274 C276 1.273 . S
C275 O271 1.246 . S
C275 O272 1.259 . S
C276 O273 1.252 . S
C276 O274 1.273 . S
O277 Mg264 2.010 . S
O277 C269 1.249 . S
Mg278 O279 2.028 . S
Mg278 O285 1.986 . S
Mg278 O287 2.114 . S
Mg278 O288 2.251 . S
Mg278 O291 2.010 . S
O279 Mg278 2.028 . S
O279 C282 1.250 . S
O280 Mg281 2.028 . S
O280 C282 1.248 . S
Mg281 O280 2.028 . S
Mg281 O286 2.032 . S
Mg281 O288 2.079 . S
C282 O279 1.250 . S
C282 O280 1.248 . S
C283 O284 1.264 . S
C283 O291 1.249 . S
O284 C283 1.264 . S
O285 Mg278 1.986 . S
O285 C289 1.246 . S
O286 Mg281 2.032 . S
O286 C289 1.259 . S
O287 Mg278 2.114 . S
O287 C290 1.252 . S
O288 Mg278 2.251 . S
O288 Mg281 2.079 . S
O288 C290 1.273 . S
C289 O285 1.246 . S
C289 O286 1.259 . S
C290 O287 1.252 . S
C290 O288 1.273 . S
O291 Mg278 2.010 . S
O291 C283 1.249 . S
Mg292 O293 2.028 . S
Mg292 O299 1.986 . S
Mg292 O301 2.114 . S
Mg292 O302 2.251 . S
Mg292 O305 2.010 . S
O293 Mg292 2.028 . S
O293 C296 1.250 . S
O294 Mg295 2.028 . S
O294 C296 1.248 . S
Mg295 O294 2.028 . S
Mg295 O300 2.032 . S
Mg295 O302 2.079 . S
C296 O293 1.250 . S
C296 O294 1.248 . S
C297 O298 1.264 . S
C297 O305 1.249 . S
O298 C297 1.264 . S
O299 Mg292 1.986 . S
O299 C303 1.246 . S
O300 Mg295 2.032 . S
O300 C303 1.259 . S
O301 Mg292 2.114 . S
O301 C304 1.252 . S
O302 Mg292 2.251 . S
O302 Mg295 2.079 . S
O302 C304 1.273 . S
C303 O299 1.246 . S
C303 O300 1.259 . S
C304 O301 1.252 . S
C304 O302 1.273 . S
O305 Mg292 2.010 . S
O305 C297 1.249 . S
Mg306 O307 2.028 1_545 S
Mg306 O313 1.986 1_545 S
Mg306 O315 2.114 . S
Mg306 O316 2.251 . S
Mg306 O319 2.010 . S
O307 Mg306 2.028 1_565 S
O307 C310 1.250 . S
O308 Mg309 2.028 . S
O308 C310 1.248 . S
Mg309 O308 2.028 . S
Mg309 O314 2.032 . S
Mg309 O316 2.079 1_565 S
C310 O307 1.250 . S
C310 O308 1.248 . S
C311 O312 1.264 . S
C311 O319 1.249 . S
O312 C311 1.264 . S
O313 Mg306 1.986 1_565 S
O313 C317 1.246 . S
O314 Mg309 2.032 . S
O314 C317 1.259 . S
O315 Mg306 2.114 . S
O315 C318 1.252 . S
O316 Mg306 2.251 . S
O316 Mg309 2.079 1_545 S
O316 C318 1.273 . S
C317 O313 1.246 . S
C317 O314 1.259 . S
C318 O315 1.252 . S
C318 O316 1.273 . S
O319 Mg306 2.010 . S
O319 C311 1.249 . S
Mg320 O321 2.028 1_455 S
Mg320 O327 1.986 . S
Mg320 O329 2.114 . S
Mg320 O330 2.251 1_455 S
Mg320 O333 2.010 . S
O321 Mg320 2.028 1_655 S
O321 C324 1.250 . S
O322 Mg323 2.028 . S
O322 C324 1.248 . S
Mg323 O322 2.028 . S
Mg323 O328 2.032 . S
Mg323 O330 2.079 . S
C324 O321 1.250 . S
C324 O322 1.248 . S
C325 O326 1.264 . S
C325 O333 1.249 . S
O326 C325 1.264 . S
O327 Mg320 1.986 . S
O327 C331 1.215 1_455 S
O328 Mg323 2.032 . S
O328 C331 1.292 . S
O329 Mg320 2.114 . S
O329 C332 1.252 . S
O330 Mg320 2.251 1_655 S
O330 Mg323 2.079 . S
O330 C332 1.273 1_655 S
C331 O327 1.215 1_655 S
C331 O328 1.292 . S
C332 O329 1.252 . S
C332 O330 1.273 1_455 S
O333 Mg320 2.010 . S
O333 C325 1.249 . S
Mg334 O335 2.028 . S
Mg334 O341 1.986 . S
Mg334 O343 2.114 . S
Mg334 O344 2.251 . S
Mg334 O347 2.010 . S
O335 Mg334 2.028 . S
O335 C338 1.250 . S
O336 Mg337 2.028 . S
O336 C338 1.248 . S
Mg337 O336 2.028 . S
Mg337 O342 2.032 . S
Mg337 O344 2.079 . S
C338 O335 1.250 . S
C338 O336 1.248 . S
C339 O340 1.264 . S
C339 O347 1.249 . S
O340 C339 1.264 . S
O341 Mg334 1.986 . S
O341 C345 1.246 . S
O342 Mg337 2.032 . S
O342 C345 1.259 . S
O343 Mg334 2.114 . S
O343 C346 1.252 . S
O344 Mg334 2.251 . S
O344 Mg337 2.079 . S
O344 C346 1.273 . S
C345 O341 1.246 . S
C345 O342 1.259 . S
C346 O343 1.252 . S
C346 O344 1.273 . S
O347 Mg334 2.010 . S
O347 C339 1.249 . S
Mg348 O349 2.028 1_655 S
Mg348 O355 1.986 1_655 S
Mg348 O357 2.114 . S
Mg348 O358 2.251 1_655 S
Mg348 O361 2.010 . S
O349 Mg348 2.028 1_455 S
O349 C352 1.250 . S
O350 Mg351 2.028 . S
O350 C352 1.248 . S
Mg351 O350 2.028 . S
Mg351 O356 2.032 . S
Mg351 O358 2.079 . S
C352 O349 1.250 . S
C352 O350 1.248 . S
C353 O354 1.264 . S
C353 O361 1.249 . S
O354 C353 1.264 . S
O355 Mg348 1.986 1_455 S
O355 C359 1.246 . S
O356 Mg351 2.032 . S
O356 C359 1.259 . S
O357 Mg348 2.114 . S
O357 C360 1.252 . S
O358 Mg348 2.251 1_455 S
O358 Mg351 2.079 . S
O358 C360 1.273 1_455 S
C359 O355 1.246 . S
C359 O356 1.259 . S
C360 O357 1.252 . S
C360 O358 1.273 1_655 S
O361 Mg348 2.010 . S
O361 C353 1.249 . S
Mg362 O363 2.028 . S
Mg362 O369 1.986 . S
Mg362 O371 2.114 . S
Mg362 O372 2.251 . S
Mg362 O375 2.010 . S
O363 Mg362 2.028 . S
O363 C366 1.250 . S
O364 Mg365 2.028 . S
O364 C366 1.248 . S
Mg365 O364 2.028 . S
Mg365 O370 2.032 . S
Mg365 O372 2.079 . S
C366 O363 1.250 . S
C366 O364 1.248 . S
C367 O368 1.264 . S
C367 O375 1.249 . S
O368 C367 1.264 . S
O369 Mg362 1.986 . S
O369 C373 1.246 . S
O370 Mg365 2.032 . S
O370 C373 1.259 . S
O371 Mg362 2.114 . S
O371 C374 1.252 . S
O372 Mg362 2.251 . S
O372 Mg365 2.079 . S
O372 C374 1.273 . S
C373 O369 1.246 . S
C373 O370 1.259 . S
C374 O371 1.252 . S
C374 O372 1.273 . S
O375 Mg362 2.010 . S
O375 C367 1.249 . S
H376 C382 0.930 . S
H377 C386 0.930 . S
H378 C391 0.929 . S
H379 C389 0.929 . S
H380 C384 0.929 . S
H381 C390 0.929 . S
C382 H376 0.930 . S
C382 C383 1.367 . S
C382 C390 1.378 . S
C383 C382 1.367 . S
C383 C391 1.433 . S
C384 H380 0.929 . S
C384 C386 1.378 . S
C384 C388 1.350 . S
C385 C388 1.463 . S
C385 C390 1.350 . S
C385 N393 1.427 . S
C386 H377 0.930 . S
C386 C384 1.378 . S
C386 C387 1.367 . S
C387 C386 1.367 . S
C387 C389 1.433 . S
C388 C384 1.350 . S
C388 C385 1.463 . S
C388 N392 1.427 . S
C389 H379 0.929 . S
C389 C387 1.433 . S
C389 N392 1.384 . S
C390 H381 0.929 . S
C390 C382 1.378 . S
C390 C385 1.350 . S
C391 H378 0.929 . S
C391 C383 1.433 . S
C391 N393 1.384 . S
N392 C388 1.427 . S
N392 C389 1.384 . S
N393 C385 1.427 . S
N393 C391 1.384 . S
H394 C400 0.930 . S
H395 C404 0.930 . S
H396 C409 0.929 . S
H397 C407 0.929 . S
H398 C402 0.929 . S
H399 C408 0.929 . S
C400 H394 0.930 . S
C400 C401 1.367 . S
C400 C408 1.378 . S
C401 C400 1.367 . S
C401 C409 1.433 . S
C402 H398 0.929 . S
C402 C404 1.378 . S
C402 C406 1.350 . S
C403 C406 1.463 . S
C403 C408 1.350 . S
C403 N411 1.427 . S
C404 H395 0.930 . S
C404 C402 1.378 . S
C404 C405 1.367 . S
C405 C404 1.367 . S
C405 C407 1.433 . S
C406 C402 1.350 . S
C406 C403 1.463 . S
C406 N410 1.427 . S
C407 H397 0.929 . S
C407 C405 1.433 . S
C407 N410 1.384 . S
C408 H399 0.929 . S
C408 C400 1.378 . S
C408 C403 1.350 . S
C409 H396 0.929 . S
C409 C401 1.433 . S
C409 N411 1.384 . S
N410 C406 1.427 . S
N410 C407 1.384 . S
N411 C403 1.427 . S
N411 C409 1.384 . S
H412 C418 0.930 . S
H413 C422 0.930 . S
H414 C427 0.929 . S
H415 C425 0.929 . S
H416 C420 0.929 . S
H417 C426 0.929 . S
C418 H412 0.930 . S
C418 C419 1.367 . S
C418 C426 1.378 . S
C419 C418 1.367 . S
C419 C427 1.433 . S
C420 H416 0.929 . S
C420 C422 1.378 . S
C420 C424 1.350 . S
C421 C424 1.463 . S
C421 C426 1.350 . S
C421 N429 1.427 . S
C422 H413 0.930 . S
C422 C420 1.378 . S
C422 C423 1.367 . S
C423 C422 1.367 . S
C423 C425 1.433 . S
C424 C420 1.350 . S
C424 C421 1.463 . S
C424 N428 1.427 . S
C425 H415 0.929 . S
C425 C423 1.433 . S
C425 N428 1.384 . S
C426 H417 0.929 . S
C426 C418 1.378 . S
C426 C421 1.350 . S
C427 H414 0.929 . S
C427 C419 1.433 . S
C427 N429 1.384 . S
N428 C424 1.427 . S
N428 C425 1.384 . S
N429 C421 1.427 . S
N429 C427 1.384 . S
H430 C436 0.930 . S
H431 C440 0.930 . S
H432 C445 0.929 . S
H433 C443 0.943 . S
H434 C438 0.929 . S
H435 C444 0.929 . S
C436 H430 0.930 . S
C436 C437 1.367 1_655 S
C436 C444 1.378 . S
C437 C436 1.367 1_455 S
C437 C445 1.433 1_565 S
C438 H434 0.929 . S
C438 C440 1.378 . S
C438 C442 1.350 . S
C439 C442 1.463 . S
C439 C444 1.350 1_545 S
C439 N447 1.427 . S
C440 H431 0.930 . S
C440 C438 1.378 . S
C440 C441 1.367 . S
C441 C440 1.367 . S
C441 C443 1.412 1_545 S
C442 C438 1.350 . S
C442 C439 1.463 . S
C442 N446 1.427 1_545 S
C443 H433 0.943 . S
C443 C441 1.412 1_565 S
C443 N446 1.390 . S
C444 H435 0.929 . S
C444 C436 1.378 . S
C444 C439 1.350 1_565 S
C445 H432 0.929 . S
C445 C437 1.433 1_545 S
C445 N447 1.384 1_455 S
N446 C442 1.427 1_565 S
N446 C443 1.390 . S
N447 C439 1.427 . S
N447 C445 1.384 1_655 S
H448 C454 0.930 . S
H449 C458 0.930 . S
H450 C463 0.929 . S
H451 C461 0.929 . S
H452 C456 0.929 . S
H453 C462 0.929 . S
C454 H448 0.930 . S
C454 C455 1.367 . S
C454 C462 1.378 . S
C455 C454 1.367 . S
C455 C463 1.433 . S
C456 H452 0.929 . S
C456 C458 1.378 . S
C456 C460 1.350 . S
C457 C460 1.463 . S
C457 C462 1.350 . S
C457 N465 1.427 . S
C458 H449 0.930 . S
C458 C456 1.378 . S
C458 C459 1.367 . S
C459 C458 1.367 . S
C459 C461 1.433 . S
C460 C456 1.350 . S
C460 C457 1.463 . S
C460 N464 1.427 . S
C461 H451 0.929 . S
C461 C459 1.433 . S
C461 N464 1.384 . S
C462 H453 0.929 . S
C462 C454 1.378 . S
C462 C457 1.350 . S
C463 H450 0.929 . S
C463 C455 1.433 . S
C463 N465 1.384 . S
N464 C460 1.427 . S
N464 C461 1.384 . S
N465 C457 1.427 . S
N465 C463 1.384 . S
H466 C472 0.930 . S
H467 C476 0.930 . S
H468 C481 0.929 . S
H469 C479 0.929 . S
H470 C474 0.929 . S
H471 C480 0.929 . S
C472 H466 0.930 . S
C472 C473 1.367 . S
C472 C480 1.378 . S
C473 C472 1.367 . S
C473 C481 1.433 . S
C474 H470 0.929 . S
C474 C476 1.378 . S
C474 C478 1.350 . S
C475 C478 1.463 . S
C475 C480 1.350 . S
C475 N483 1.427 . S
C476 H467 0.930 . S
C476 C474 1.378 . S
C476 C477 1.367 . S
C477 C476 1.367 . S
C477 C479 1.433 . S
C478 C474 1.350 . S
C478 C475 1.463 . S
C478 N482 1.427 . S
C479 H469 0.929 . S
C479 C477 1.433 . S
C479 N482 1.384 . S
C480 H471 0.929 . S
C480 C472 1.378 . S
C480 C475 1.350 . S
C481 H468 0.929 . S
C481 C473 1.433 . S
C481 N483 1.384 . S
N482 C478 1.427 . S
N482 C479 1.384 . S
N483 C475 1.427 . S
N483 C481 1.384 . S
H484 C490 0.930 . S
H485 C494 0.930 . S
H486 C499 0.929 . S
H487 C497 0.929 . S
H488 C492 0.929 . S
H489 C498 0.929 . S
C490 H484 0.930 . S
C490 C491 1.367 . S
C490 C498 1.378 . S
C491 C490 1.367 . S
C491 C499 1.433 . S
C492 H488 0.929 . S
C492 C494 1.378 . S
C492 C496 1.350 . S
C493 C496 1.463 . S
C493 C498 1.350 . S
C493 N501 1.427 . S
C494 H485 0.930 . S
C494 C492 1.378 . S
C494 C495 1.367 . S
C495 C494 1.367 . S
C495 C497 1.433 . S
C496 C492 1.350 . S
C496 C493 1.463 . S
C496 N500 1.427 . S
C497 H487 0.929 . S
C497 C495 1.433 . S
C497 N500 1.384 . S
C498 H489 0.929 . S
C498 C490 1.378 . S
C498 C493 1.350 . S
C499 H486 0.929 . S
C499 C491 1.433 . S
C499 N501 1.384 . S
N500 C496 1.427 . S
N500 C497 1.384 . S
N501 C493 1.427 . S
N501 C499 1.384 . S
H502 C508 0.930 . S
H503 C512 0.930 . S
H504 C517 0.929 1_545 S
H505 C515 0.929 . S
H506 C510 0.929 . S
H507 C516 0.929 . S
C508 H502 0.930 . S
C508 C509 1.367 . S
C508 C516 1.378 . S
C509 C508 1.367 . S
C509 C517 1.433 . S
C510 H506 0.929 . S
C510 C512 1.378 . S
C510 C514 1.350 1_545 S
C511 C514 1.463 . S
C511 C516 1.350 . S
C511 N519 1.427 . S
C512 H503 0.930 . S
C512 C510 1.378 . S
C512 C513 1.367 1_545 S
C513 C512 1.367 1_565 S
C513 C515 1.433 . S
C514 C510 1.350 1_565 S
C514 C511 1.463 . S
C514 N518 1.427 . S
C515 H505 0.929 . S
C515 C513 1.433 . S
C515 N518 1.384 . S
C516 H507 0.929 . S
C516 C508 1.378 . S
C516 C511 1.350 . S
C517 H504 0.929 1_565 S
C517 C509 1.433 . S
C517 N519 1.384 . S
N518 C514 1.427 . S
N518 C515 1.384 . S
N519 C511 1.427 . S
N519 C517 1.384 . S
H520 C526 0.930 . S
H521 C530 0.930 . S
H522 C535 0.929 . S
H523 C533 0.929 . S
H524 C528 0.929 . S
H525 C534 0.929 . S
C526 H520 0.930 . S
C526 C527 1.367 . S
C526 C534 1.378 . S
C527 C526 1.367 . S
C527 C535 1.433 . S
C528 H524 0.929 . S
C528 C530 1.378 . S
C528 C532 1.350 . S
C529 C532 1.463 . S
C529 C534 1.350 . S
C529 N537 1.427 . S
C530 H521 0.930 . S
C530 C528 1.378 . S
C530 C531 1.367 . S
C531 C530 1.367 . S
C531 C533 1.433 . S
C532 C528 1.350 . S
C532 C529 1.463 . S
C532 N536 1.427 . S
C533 H523 0.929 . S
C533 C531 1.433 . S
C533 N536 1.384 . S
C534 H525 0.929 . S
C534 C526 1.378 . S
C534 C529 1.350 . S
C535 H522 0.929 . S
C535 C527 1.433 . S
C535 N537 1.384 . S
N536 C532 1.427 . S
N536 C533 1.384 . S
N537 C529 1.427 . S
N537 C535 1.384 . S
H538 C544 0.930 . S
H539 C548 0.930 . S
H540 C553 0.929 . S
H541 C551 0.929 . S
H542 C546 0.929 . S
H543 C552 0.929 . S
C544 H538 0.930 . S
C544 C545 1.367 . S
C544 C552 1.378 . S
C545 C544 1.367 . S
C545 C553 1.433 . S
C546 H542 0.929 . S
C546 C548 1.378 . S
C546 C550 1.350 . S
C547 C550 1.463 . S
C547 C552 1.350 . S
C547 N555 1.427 . S
C548 H539 0.930 . S
C548 C546 1.378 . S
C548 C549 1.367 . S
C549 C548 1.367 . S
C549 C551 1.433 . S
C550 C546 1.350 . S
C550 C547 1.463 . S
C550 N554 1.427 . S
C551 H541 0.929 . S
C551 C549 1.433 . S
C551 N554 1.384 . S
C552 H543 0.929 . S
C552 C544 1.378 . S
C552 C547 1.350 . S
C553 H540 0.929 . S
C553 C545 1.433 . S
C553 N555 1.384 . S
N554 C550 1.427 . S
N554 C551 1.384 . S
N555 C547 1.427 . S
N555 C553 1.384 . S
H556 C562 0.930 . S
H557 C566 0.930 . S
H558 C571 0.929 . S
H559 C569 0.929 . S
H560 C564 0.929 . S
H561 C570 0.929 . S
C562 H556 0.930 . S
C562 C563 1.367 . S
C562 C570 1.378 . S
C563 C562 1.367 . S
C563 C571 1.433 . S
C564 H560 0.929 . S
C564 C566 1.378 . S
C564 C568 1.350 . S
C565 C568 1.463 . S
C565 C570 1.350 . S
C565 N573 1.427 . S
C566 H557 0.930 . S
C566 C564 1.378 . S
C566 C567 1.367 . S
C567 C566 1.367 . S
C567 C569 1.433 . S
C568 C564 1.350 . S
C568 C565 1.463 . S
C568 N572 1.427 . S
C569 H559 0.929 . S
C569 C567 1.433 . S
C569 N572 1.384 . S
C570 H561 0.929 . S
C570 C562 1.378 . S
C570 C565 1.350 . S
C571 H558 0.929 . S
C571 C563 1.433 . S
C571 N573 1.384 . S
N572 C568 1.427 . S
N572 C569 1.384 . S
N573 C565 1.427 . S
N573 C571 1.384 . S
H574 C580 0.930 . S
H575 C584 0.930 . S
H576 C589 0.929 . S
H577 C587 0.929 . S
H578 C582 0.929 . S
H579 C588 0.929 . S
C580 H574 0.930 . S
C580 C581 1.367 . S
C580 C588 1.378 . S
C581 C580 1.367 . S
C581 C589 1.433 . S
C582 H578 0.929 . S
C582 C584 1.378 . S
C582 C586 1.350 . S
C583 C586 1.463 . S
C583 C588 1.350 . S
C583 N591 1.427 . S
C584 H575 0.930 . S
C584 C582 1.378 . S
C584 C585 1.367 . S
C585 C584 1.367 . S
C585 C587 1.433 . S
C586 C582 1.350 . S
C586 C583 1.463 . S
C586 N590 1.427 . S
C587 H577 0.929 . S
C587 C585 1.433 . S
C587 N590 1.384 . S
C588 H579 0.929 . S
C588 C580 1.378 . S
C588 C583 1.350 . S
C589 H576 0.929 . S
C589 C581 1.433 . S
C589 N591 1.384 . S
N590 C586 1.427 . S
N590 C587 1.384 . S
N591 C583 1.427 . S
N591 C589 1.384 . S
H592 C598 0.930 . S
H593 C602 0.930 . S
H594 C607 0.929 . S
H595 C605 0.929 . S
H596 C600 0.929 . S
H597 C606 0.929 . S
C598 H592 0.930 . S
C598 C599 1.367 . S
C598 C606 1.378 . S
C599 C598 1.367 . S
C599 C607 1.433 . S
C600 H596 0.929 . S
C600 C602 1.378 . S
C600 C604 1.350 . S
C601 C604 1.463 . S
C601 C606 1.350 . S
C601 N609 1.427 . S
C602 H593 0.930 . S
C602 C600 1.378 . S
C602 C603 1.367 . S
C603 C602 1.367 . S
C603 C605 1.433 . S
C604 C600 1.350 . S
C604 C601 1.463 . S
C604 N608 1.427 . S
C605 H595 0.929 . S
C605 C603 1.433 . S
C605 N608 1.384 . S
C606 H597 0.929 . S
C606 C598 1.378 . S
C606 C601 1.350 . S
C607 H594 0.929 . S
C607 C599 1.433 . S
C607 N609 1.384 . S
N608 C604 1.427 . S
N608 C605 1.384 . S
N609 C601 1.427 . S
N609 C607 1.384 . S
H610 C616 0.930 . S
H611 C620 0.930 1_655 S
H612 C625 0.929 . S
H613 C623 0.929 . S
H614 C618 0.929 . S
H615 C624 0.929 . S
C616 H610 0.930 . S
C616 C617 1.367 . S
C616 C624 1.378 . S
C617 C616 1.367 . S
C617 C625 1.433 . S
C618 H614 0.929 . S
C618 C620 1.378 . S
C618 C622 1.350 . S
C619 C622 1.463 . S
C619 C624 1.350 . S
C619 N627 1.427 . S
C620 H611 0.930 1_455 S
C620 C618 1.378 . S
C620 C621 1.367 . S
C621 C620 1.367 . S
C621 C623 1.433 . S
C622 C618 1.350 . S
C622 C619 1.463 . S
C622 N626 1.427 . S
C623 H613 0.929 . S
C623 C621 1.433 . S
C623 N626 1.384 . S
C624 H615 0.929 . S
C624 C616 1.378 . S
C624 C619 1.350 . S
C625 H612 0.929 . S
C625 C617 1.433 . S
C625 N627 1.384 . S
N626 C622 1.427 . S
N626 C623 1.384 . S
N627 C619 1.427 . S
N627 C625 1.384 . S
H628 C634 0.930 . S
H629 C638 0.930 . S
H630 C643 0.929 . S
H631 C641 0.929 . S
H632 C636 0.929 . S
H633 C642 0.929 . S
C634 H628 0.930 . S
C634 C635 1.367 . S
C634 C642 1.378 . S
C635 C634 1.367 . S
C635 C643 1.433 . S
C636 H632 0.929 . S
C636 C638 1.378 . S
C636 C640 1.350 . S
C637 C640 1.463 . S
C637 C642 1.350 . S
C637 N645 1.427 . S
C638 H629 0.930 . S
C638 C636 1.378 . S
C638 C639 1.367 . S
C639 C638 1.367 . S
C639 C641 1.433 . S
C640 C636 1.350 . S
C640 C637 1.463 . S
C640 N644 1.427 . S
C641 H631 0.929 . S
C641 C639 1.433 . S
C641 N644 1.384 . S
C642 H633 0.929 . S
C642 C634 1.378 . S
C642 C637 1.350 . S
C643 H630 0.929 . S
C643 C635 1.433 . S
C643 N645 1.384 . S
N644 C640 1.427 . S
N644 C641 1.384 . S
N645 C637 1.427 . S
N645 C643 1.384 . S
H646 C652 0.930 . S
H647 C656 0.930 . S
H648 C661 0.929 1_455 S
H649 C659 0.929 . S
H650 C654 0.929 . S
H651 C660 0.929 . S
C652 H646 0.930 . S
C652 C653 1.367 . S
C652 C660 1.378 . S
C653 C652 1.367 . S
C653 C661 1.433 . S
C654 H650 0.929 . S
C654 C656 1.378 . S
C654 C658 1.350 1_455 S
C655 C658 1.463 . S
C655 C660 1.350 . S
C655 N663 1.427 . S
C656 H647 0.930 . S
C656 C654 1.378 . S
C656 C657 1.367 1_455 S
C657 C656 1.367 1_655 S
C657 C659 1.433 . S
C658 C654 1.350 1_655 S
C658 C655 1.463 . S
C658 N662 1.427 . S
C659 H649 0.929 . S
C659 C657 1.433 . S
C659 N662 1.384 . S
C660 H651 0.929 . S
C660 C652 1.378 . S
C660 C655 1.350 . S
C661 H648 0.929 1_655 S
C661 C653 1.433 . S
C661 N663 1.384 . S
N662 C658 1.427 . S
N662 C659 1.384 . S
N663 C655 1.427 . S
N663 C661 1.384 . S
H664 C670 0.930 . S
H665 C674 0.930 . S
H666 C679 0.929 . S
H667 C677 0.929 . S
H668 C672 0.929 . S
H669 C678 0.929 . S
C670 H664 0.930 . S
C670 C671 1.367 . S
C670 C678 1.378 . S
C671 C670 1.367 . S
C671 C679 1.433 . S
C672 H668 0.929 . S
C672 C674 1.378 . S
C672 C676 1.350 . S
C673 C676 1.463 . S
C673 C678 1.350 . S
C673 N681 1.427 . S
C674 H665 0.930 . S
C674 C672 1.378 . S
C674 C675 1.367 . S
C675 C674 1.367 . S
C675 C677 1.433 . S
C676 C672 1.350 . S
C676 C673 1.463 . S
C676 N680 1.427 . S
C677 H667 0.929 . S
C677 C675 1.433 . S
C677 N680 1.384 . S
C678 H669 0.929 . S
C678 C670 1.378 . S
C678 C673 1.350 . S
C679 H666 0.929 . S
C679 C671 1.433 . S
C679 N681 1.384 . S
N680 C676 1.427 . S
N680 C677 1.384 . S
N681 C673 1.427 . S
N681 C679 1.384 . S
H682 C688 0.930 . S
H683 C692 0.930 . S
H684 C697 0.929 . S
H685 C695 0.929 . S
H686 C690 0.929 . S
H687 C696 0.929 . S
C688 H682 0.930 . S
C688 C689 1.367 . S
C688 C696 1.378 . S
C689 C688 1.367 . S
C689 C697 1.433 . S
C690 H686 0.929 . S
C690 C692 1.378 . S
C690 C694 1.350 . S
C691 C694 1.463 . S
C691 C696 1.350 . S
C691 N699 1.427 . S
C692 H683 0.930 . S
C692 C690 1.378 . S
C692 C693 1.367 . S
C693 C692 1.367 . S
C693 C695 1.433 . S
C694 C690 1.350 . S
C694 C691 1.463 . S
C694 N698 1.427 . S
C695 H685 0.929 . S
C695 C693 1.433 . S
C695 N698 1.384 . S
C696 H687 0.929 . S
C696 C688 1.378 . S
C696 C691 1.350 . S
C697 H684 0.929 . S
C697 C689 1.433 . S
C697 N699 1.384 . S
N698 C694 1.427 . S
N698 C695 1.384 . S
N699 C691 1.427 . S
N699 C697 1.384 . S
H700 C706 0.930 . S
H701 C710 0.930 . S
H702 C715 0.936 . S
H703 C713 0.929 . S
H704 C708 0.929 . S
H705 C714 0.929 . S
C706 H700 0.930 . S
C706 C707 1.367 . S
C706 C714 1.378 . S
C707 C706 1.367 . S
C707 C715 1.427 1_544 S
C708 H704 0.929 . S
C708 C710 1.378 . S
C708 C712 1.350 1_556 S
C709 C712 1.463 . S
C709 C714 1.350 1_565 S
C709 N717 1.427 1_554 S
C710 H701 0.930 . S
C710 C708 1.378 . S
C710 C711 1.358 1_556 S
C711 C710 1.358 1_554 S
C711 C713 1.443 . S
C712 C708 1.350 1_554 S
C712 C709 1.463 . S
C712 N716 1.427 . S
C713 H703 0.929 . S
C713 C711 1.443 . S
C713 N716 1.384 . S
C714 H705 0.929 . S
C714 C706 1.378 . S
C714 C709 1.350 1_545 S
C715 H702 0.936 . S
C715 C707 1.427 1_566 S
C715 N717 1.384 . S
N716 C712 1.427 . S
N716 C713 1.384 . S
N717 C709 1.427 1_556 S
N717 C715 1.384 . S
H718 C724 0.930 . S
H719 C728 0.930 . S
H720 C733 0.929 . S
H721 C731 0.929 . S
H722 C726 0.929 . S
H723 C732 0.929 . S
C724 H718 0.930 . S
C724 C725 1.367 . S
C724 C732 1.378 . S
C725 C724 1.367 . S
C725 C733 1.433 . S
C726 H722 0.929 . S
C726 C728 1.378 . S
C726 C730 1.350 . S
C727 C730 1.463 . S
C727 C732 1.350 . S
C727 N735 1.427 . S
C728 H719 0.930 . S
C728 C726 1.378 . S
C728 C729 1.367 . S
C729 C728 1.367 . S
C729 C731 1.433 . S
C730 C726 1.350 . S
C730 C727 1.463 . S
C730 N734 1.427 . S
C731 H721 0.929 . S
C731 C729 1.433 . S
C731 N734 1.384 . S
C732 H723 0.929 . S
C732 C724 1.378 . S
C732 C727 1.350 . S
C733 H720 0.929 . S
C733 C725 1.433 . S
C733 N735 1.384 . S
N734 C730 1.427 . S
N734 C731 1.384 . S
N735 C727 1.427 . S
N735 C733 1.384 . S
H736 C742 0.930 1_565 S
H737 C746 0.930 . S
H738 C751 0.929 . S
H739 C749 0.929 . S
H740 C744 0.929 . S
H741 C750 0.929 . S
C742 H736 0.930 1_545 S
C742 C743 1.367 . S
C742 C750 1.378 . S
C743 C742 1.367 . S
C743 C751 1.433 . S
C744 H740 0.929 . S
C744 C746 1.378 . S
C744 C748 1.350 . S
C745 C748 1.463 . S
C745 C750 1.350 . S
C745 N753 1.427 . S
C746 H737 0.930 . S
C746 C744 1.378 . S
C746 C747 1.367 . S
C747 C746 1.367 . S
C747 C749 1.433 . S
C748 C744 1.350 . S
C748 C745 1.463 . S
C748 N752 1.427 . S
C749 H739 0.929 . S
C749 C747 1.433 . S
C749 N752 1.384 . S
C750 H741 0.929 . S
C750 C742 1.378 . S
C750 C745 1.350 . S
C751 H738 0.929 . S
C751 C743 1.433 . S
C751 N753 1.384 . S
N752 C748 1.427 . S
N752 C749 1.384 . S
N753 C745 1.427 . S
N753 C751 1.384 . S
H754 C760 0.930 . S
H755 C764 0.930 . S
H756 C769 0.929 . S
H757 C767 0.929 . S
H758 C762 0.929 . S
H759 C768 0.929 . S
C760 H754 0.930 . S
C760 C761 1.367 . S
C760 C768 1.378 . S
C761 C760 1.367 . S
C761 C769 1.433 . S
C762 H758 0.929 . S
C762 C764 1.378 . S
C762 C766 1.350 . S
C763 C766 1.463 . S
C763 C768 1.350 . S
C763 N771 1.427 . S
C764 H755 0.930 . S
C764 C762 1.378 . S
C764 C765 1.367 . S
C765 C764 1.367 . S
C765 C767 1.433 . S
C766 C762 1.350 . S
C766 C763 1.463 . S
C766 N770 1.427 . S
C767 H757 0.929 . S
C767 C765 1.433 . S
C767 N770 1.384 . S
C768 H759 0.929 . S
C768 C760 1.378 . S
C768 C763 1.350 . S
C769 H756 0.929 . S
C769 C761 1.433 . S
C769 N771 1.384 . S
N770 C766 1.427 . S
N770 C767 1.384 . S
N771 C763 1.427 . S
N771 C769 1.384 . S
H772 C778 0.930 . S
H773 C782 0.930 . S
H774 C787 0.929 . S
H775 C785 0.929 . S
H776 C780 0.929 . S
H777 C786 0.929 . S
C778 H772 0.930 . S
C778 C779 1.367 1_545 S
C778 C786 1.378 . S
C779 C778 1.367 1_565 S
C779 C787 1.433 . S
C780 H776 0.929 . S
C780 C782 1.378 . S
C780 C784 1.350 . S
C781 C784 1.463 . S
C781 C786 1.350 . S
C781 N789 1.427 . S
C782 H773 0.930 . S
C782 C780 1.378 . S
C782 C783 1.367 . S
C783 C782 1.367 . S
C783 C785 1.433 . S
C784 C780 1.350 . S
C784 C781 1.463 . S
C784 N788 1.427 . S
C785 H775 0.929 . S
C785 C783 1.433 . S
C785 N788 1.384 . S
C786 H777 0.929 . S
C786 C778 1.378 . S
C786 C781 1.350 . S
C787 H774 0.929 . S
C787 C779 1.433 . S
C787 N789 1.384 1_565 S
N788 C784 1.427 . S
N788 C785 1.384 . S
N789 C781 1.427 . S
N789 C787 1.384 1_545 S
H790 C796 0.930 . S
H791 C800 0.930 . S
H792 C805 0.929 . S
H793 C803 0.929 . S
H794 C798 0.929 . S
H795 C804 0.929 . S
C796 H790 0.930 . S
C796 C797 1.367 . S
C796 C804 1.378 . S
C797 C796 1.367 . S
C797 C805 1.433 . S
C798 H794 0.929 . S
C798 C800 1.378 . S
C798 C802 1.350 . S
C799 C802 1.463 . S
C799 C804 1.350 . S
C799 N807 1.427 . S
C800 H791 0.930 . S
C800 C798 1.378 . S
C800 C801 1.367 . S
C801 C800 1.367 . S
C801 C803 1.433 . S
C802 C798 1.350 . S
C802 C799 1.463 . S
C802 N806 1.427 . S
C803 H793 0.929 . S
C803 C801 1.433 . S
C803 N806 1.384 . S
C804 H795 0.929 . S
C804 C796 1.378 . S
C804 C799 1.350 . S
C805 H792 0.929 . S
C805 C797 1.433 . S
C805 N807 1.384 . S
N806 C802 1.427 . S
N806 C803 1.384 . S
N807 C799 1.427 . S
N807 C805 1.384 . S
H808 C814 0.930 . S
H809 C818 0.930 . S
H810 C823 0.929 . S
H811 C821 0.929 . S
H812 C816 0.929 . S
H813 C822 0.929 . S
C814 H808 0.930 . S
C814 C815 1.367 . S
C814 C822 1.378 . S
C815 C814 1.367 . S
C815 C823 1.433 . S
C816 H812 0.929 . S
C816 C818 1.378 . S
C816 C820 1.350 . S
C817 C820 1.463 . S
C817 C822 1.350 . S
C817 N825 1.427 . S
C818 H809 0.930 . S
C818 C816 1.378 . S
C818 C819 1.367 . S
C819 C818 1.367 . S
C819 C821 1.433 . S
C820 C816 1.350 . S
C820 C817 1.463 . S
C820 N824 1.427 . S
C821 H811 0.929 . S
C821 C819 1.433 . S
C821 N824 1.384 . S
C822 H813 0.929 . S
C822 C814 1.378 . S
C822 C817 1.350 . S
C823 H810 0.929 . S
C823 C815 1.433 . S
C823 N825 1.384 . S
N824 C820 1.427 . S
N824 C821 1.384 . S
N825 C817 1.427 . S
N825 C823 1.384 . S
H826 C832 0.920 1_565 S
H827 C836 0.930 . S
H828 C841 0.929 . S
H829 C839 0.929 . S
H830 C834 0.929 . S
H831 C840 0.929 1_565 S
C832 H826 0.920 1_545 S
C832 C833 1.367 . S
C832 C840 1.378 . S
C833 C832 1.367 . S
C833 C841 1.433 . S
C834 H830 0.929 . S
C834 C836 1.378 . S
C834 C838 1.350 . S
C835 C838 1.463 . S
C835 C840 1.350 . S
C835 N843 1.427 . S
C836 H827 0.930 . S
C836 C834 1.378 . S
C836 C837 1.367 . S
C837 C836 1.367 . S
C837 C839 1.433 1_545 S
C838 C834 1.350 . S
C838 C835 1.463 . S
C838 N842 1.427 1_545 S
C839 H829 0.929 . S
C839 C837 1.433 1_565 S
C839 N842 1.384 . S
C840 H831 0.929 1_545 S
C840 C832 1.378 . S
C840 C835 1.350 . S
C841 H828 0.929 . S
C841 C833 1.433 . S
C841 N843 1.384 . S
N842 C838 1.427 1_565 S
N842 C839 1.384 . S
N843 C835 1.427 . S
N843 C841 1.384 . S
H844 C850 0.930 . S
H845 C854 0.930 . S
H846 C859 0.929 . S
H847 C857 0.929 . S
H848 C852 0.929 . S
H849 C858 0.929 . S
C850 H844 0.930 . S
C850 C851 1.367 . S
C850 C858 1.378 . S
C851 C850 1.367 . S
C851 C859 1.433 . S
C852 H848 0.929 . S
C852 C854 1.378 . S
C852 C856 1.350 . S
C853 C856 1.463 . S
C853 C858 1.350 . S
C853 N861 1.427 . S
C854 H845 0.930 . S
C854 C852 1.378 . S
C854 C855 1.367 . S
C855 C854 1.367 . S
C855 C857 1.433 . S
C856 C852 1.350 . S
C856 C853 1.463 . S
C856 N860 1.427 . S
C857 H847 0.929 . S
C857 C855 1.433 . S
C857 N860 1.384 . S
C858 H849 0.929 . S
C858 C850 1.378 . S
C858 C853 1.350 . S
C859 H846 0.929 . S
C859 C851 1.433 . S
C859 N861 1.384 . S
N860 C856 1.427 . S
N860 C857 1.384 . S
N861 C853 1.427 . S
N861 C859 1.384 . S
H862 C868 0.930 . S
H863 C872 0.930 . S
H864 C877 0.929 . S
H865 C875 0.929 . S
H866 C870 0.929 . S
H867 C876 0.929 . S
C868 H862 0.930 . S
C868 C869 1.367 . S
C868 C876 1.378 . S
C869 C868 1.367 . S
C869 C877 1.433 . S
C870 H866 0.929 . S
C870 C872 1.378 . S
C870 C874 1.350 . S
C871 C874 1.463 . S
C871 C876 1.350 . S
C871 N879 1.427 . S
C872 H863 0.930 . S
C872 C870 1.378 . S
C872 C873 1.367 . S
C873 C872 1.367 . S
C873 C875 1.433 . S
C874 C870 1.350 . S
C874 C871 1.463 . S
C874 N878 1.427 . S
C875 H865 0.929 . S
C875 C873 1.433 . S
C875 N878 1.384 . S
C876 H867 0.929 . S
C876 C868 1.378 . S
C876 C871 1.350 . S
C877 H864 0.929 . S
C877 C869 1.433 . S
C877 N879 1.384 . S
N878 C874 1.427 . S
N878 C875 1.384 . S
N879 C871 1.427 . S
N879 C877 1.384 . S
H880 C886 0.930 . S
H881 C890 0.930 . S
H882 C895 0.929 . S
H883 C893 0.929 . S
H884 C888 0.929 . S
H885 C894 0.929 . S
C886 H880 0.930 . S
C886 C887 1.367 . S
C886 C894 1.378 . S
C887 C886 1.367 . S
C887 C895 1.433 . S
C888 H884 0.929 . S
C888 C890 1.378 . S
C888 C892 1.350 . S
C889 C892 1.463 . S
C889 C894 1.350 . S
C889 N897 1.427 . S
C890 H881 0.930 . S
C890 C888 1.378 . S
C890 C891 1.367 . S
C891 C890 1.367 . S
C891 C893 1.433 . S
C892 C888 1.350 . S
C892 C889 1.463 . S
C892 N896 1.427 . S
C893 H883 0.929 . S
C893 C891 1.433 . S
C893 N896 1.384 . S
C894 H885 0.929 . S
C894 C886 1.378 . S
C894 C889 1.350 . S
C895 H882 0.929 . S
C895 C887 1.433 . S
C895 N897 1.384 . S
N896 C892 1.427 . S
N896 C893 1.384 . S
N897 C889 1.427 . S
N897 C895 1.384 . S
H898 C904 0.930 . S
H899 C908 0.930 . S
H900 C913 0.929 . S
H901 C911 0.929 . S
H902 C906 0.929 . S
H903 C912 0.929 . S
C904 H898 0.930 . S
C904 C905 1.367 . S
C904 C912 1.378 . S
C905 C904 1.367 . S
C905 C913 1.433 . S
C906 H902 0.929 . S
C906 C908 1.378 . S
C906 C910 1.350 . S
C907 C910 1.463 . S
C907 C912 1.350 . S
C907 N915 1.427 . S
C908 H899 0.930 . S
C908 C906 1.378 . S
C908 C909 1.367 . S
C909 C908 1.367 . S
C909 C911 1.433 . S
C910 C906 1.350 . S
C910 C907 1.463 . S
C910 N914 1.427 . S
C911 H901 0.929 . S
C911 C909 1.433 . S
C911 N914 1.384 . S
C912 H903 0.929 . S
C912 C904 1.378 . S
C912 C907 1.350 . S
C913 H900 0.929 . S
C913 C905 1.433 . S
C913 N915 1.384 . S
N914 C910 1.427 . S
N914 C911 1.384 . S
N915 C907 1.427 . S
N915 C913 1.384 . S
H916 C922 0.930 . S
H917 C926 0.930 . S
H918 C931 0.929 . S
H919 C929 0.929 . S
H920 C924 0.929 . S
H921 C930 0.929 . S
C922 H916 0.930 . S
C922 C923 1.367 . S
C922 C930 1.378 . S
C923 C922 1.367 . S
C923 C931 1.433 . S
C924 H920 0.929 . S
C924 C926 1.378 . S
C924 C928 1.350 . S
C925 C928 1.463 . S
C925 C930 1.350 . S
C925 N933 1.427 . S
C926 H917 0.930 . S
C926 C924 1.378 . S
C926 C927 1.367 . S
C927 C926 1.367 . S
C927 C929 1.433 . S
C928 C924 1.350 . S
C928 C925 1.463 . S
C928 N932 1.427 . S
C929 H919 0.929 . S
C929 C927 1.433 . S
C929 N932 1.384 . S
C930 H921 0.929 . S
C930 C922 1.378 . S
C930 C925 1.350 . S
C931 H918 0.929 . S
C931 C923 1.433 . S
C931 N933 1.384 . S
N932 C928 1.427 . S
N932 C929 1.384 . S
N933 C925 1.427 . S
N933 C931 1.384 . S
H934 C940 0.930 . S
H935 C944 0.930 . S
H936 C949 0.929 1_655 S
H937 C947 0.929 . S
H938 C942 0.929 . S
H939 C948 0.929 . S
C940 H934 0.930 . S
C940 C941 1.367 . S
C940 C948 1.378 . S
C941 C940 1.367 . S
C941 C949 1.433 . S
C942 H938 0.929 . S
C942 C944 1.378 . S
C942 C946 1.350 . S
C943 C946 1.463 . S
C943 C948 1.350 . S
C943 N951 1.427 . S
C944 H935 0.930 . S
C944 C942 1.378 . S
C944 C945 1.367 . S
C945 C944 1.367 . S
C945 C947 1.433 . S
C946 C942 1.350 . S
C946 C943 1.463 . S
C946 N950 1.427 . S
C947 H937 0.929 . S
C947 C945 1.433 . S
C947 N950 1.384 . S
C948 H939 0.929 . S
C948 C940 1.378 . S
C948 C943 1.350 . S
C949 H936 0.929 1_455 S
C949 C941 1.433 . S
C949 N951 1.384 . S
N950 C946 1.427 . S
N950 C947 1.384 . S
N951 C943 1.427 . S
N951 C949 1.384 . S
H952 C958 0.930 . S
H953 C962 0.930 . S
H954 C967 0.929 . S
H955 C965 0.929 . S
H956 C960 0.929 . S
H957 C966 0.929 . S
C958 H952 0.930 . S
C958 C959 1.367 . S
C958 C966 1.378 . S
C959 C958 1.367 . S
C959 C967 1.433 . S
C960 H956 0.929 . S
C960 C962 1.378 . S
C960 C964 1.350 . S
C961 C964 1.463 . S
C961 C966 1.350 . S
C961 N969 1.427 . S
C962 H953 0.930 . S
C962 C960 1.378 . S
C962 C963 1.367 . S
C963 C962 1.367 . S
C963 C965 1.433 . S
C964 C960 1.350 . S
C964 C961 1.463 . S
C964 N968 1.427 . S
C965 H955 0.929 . S
C965 C963 1.433 . S
C965 N968 1.384 . S
C966 H957 0.929 . S
C966 C958 1.378 . S
C966 C961 1.350 . S
C967 H954 0.929 . S
C967 C959 1.433 . S
C967 N969 1.384 . S
N968 C964 1.427 . S
N968 C965 1.384 . S
N969 C961 1.427 . S
N969 C967 1.384 . S
H970 C976 0.930 . S
H971 C980 0.930 . S
H972 C985 0.929 . S
H973 C983 0.929 . S
H974 C978 0.929 . S
H975 C984 0.929 1_556 S
C976 H970 0.930 . S
C976 C977 1.367 . S
C976 C984 1.378 . S
C977 C976 1.367 . S
C977 C985 1.433 1_655 S
C978 H974 0.929 . S
C978 C980 1.378 . S
C978 C982 1.350 1_455 S
C979 C982 1.463 . S
C979 C984 1.350 1_556 S
C979 N987 1.427 1_656 S
C980 H971 0.930 . S
C980 C978 1.378 . S
C980 C981 1.367 . S
C981 C980 1.367 . S
C981 C983 1.433 1_455 S
C982 C978 1.350 1_655 S
C982 C979 1.463 . S
C982 N986 1.427 . S
C983 H973 0.929 . S
C983 C981 1.433 1_655 S
C983 N986 1.384 . S
C984 H975 0.929 1_554 S
C984 C976 1.378 . S
C984 C979 1.350 1_554 S
C985 H972 0.929 . S
C985 C977 1.433 1_455 S
C985 N987 1.384 . S
N986 C982 1.427 . S
N986 C983 1.384 . S
N987 C979 1.427 1_454 S
N987 C985 1.384 . S
H988 C994 0.930 . S
H989 C998 0.930 . S
H990 C1003 0.929 . S
H991 C1001 0.929 . S
H992 C996 0.929 . S
H993 C1002 0.929 . S
C994 H988 0.930 . S
C994 C995 1.367 . S
C994 C1002 1.378 . S
C995 C994 1.367 . S
C995 C1003 1.433 . S
C996 H992 0.929 . S
C996 C998 1.378 . S
C996 C1000 1.350 . S
C997 C1000 1.463 . S
C997 C1002 1.350 . S
C997 N1005 1.427 . S
C998 H989 0.930 . S
C998 C996 1.378 . S
C998 C999 1.367 . S
C999 C998 1.367 . S
C999 C1001 1.433 . S
C1000 C996 1.350 . S
C1000 C997 1.463 . S
C1000 N1004 1.427 . S
C1001 H991 0.929 . S
C1001 C999 1.433 . S
C1001 N1004 1.384 . S
C1002 H993 0.929 . S
C1002 C994 1.378 . S
C1002 C997 1.350 . S
C1003 H990 0.929 . S
C1003 C995 1.433 . S
C1003 N1005 1.384 . S
N1004 C1000 1.427 . S
N1004 C1001 1.384 . S
N1005 C997 1.427 . S
N1005 C1003 1.384 . S
H1006 C1012 0.930 . S
H1007 C1016 0.930 . S
H1008 C1021 0.929 . S
H1009 C1019 0.929 . S
H1010 C1014 0.929 . S
H1011 C1020 0.929 . S
C1012 H1006 0.930 . S
C1012 C1013 1.386 1_556 S
C1012 C1020 1.378 . S
C1013 C1012 1.386 1_554 S
C1013 C1021 1.412 1_455 S
C1014 H1010 0.929 . S
C1014 C1016 1.378 . S
C1014 C1018 1.350 1_655 S
C1015 C1018 1.463 . S
C1015 C1020 1.350 . S
C1015 N1023 1.427 1_455 S
C1016 H1007 0.930 . S
C1016 C1014 1.378 . S
C1016 C1017 1.367 1_655 S
C1017 C1016 1.367 1_455 S
C1017 C1019 1.433 . S
C1018 C1014 1.350 1_455 S
C1018 C1015 1.463 . S
C1018 N1022 1.427 . S
C1019 H1009 0.929 . S
C1019 C1017 1.433 . S
C1019 N1022 1.384 . S
C1020 H1011 0.929 . S
C1020 C1012 1.378 . S
C1020 C1015 1.350 . S
C1021 H1008 0.929 . S
C1021 C1013 1.412 1_655 S
C1021 N1023 1.384 1_554 S
N1022 C1018 1.427 . S
N1022 C1019 1.384 . S
N1023 C1015 1.427 1_655 S
N1023 C1021 1.384 1_556 S
H1024 C1030 0.930 . S
H1025 C1034 0.930 . S
H1026 C1039 0.929 . S
H1027 C1037 0.929 . S
H1028 C1032 0.929 . S
H1029 C1038 0.929 . S
C1030 H1024 0.930 . S
C1030 C1031 1.367 . S
C1030 C1038 1.378 . S
C1031 C1030 1.367 . S
C1031 C1039 1.433 . S
C1032 H1028 0.929 . S
C1032 C1034 1.378 . S
C1032 C1036 1.350 . S
C1033 C1036 1.463 . S
C1033 C1038 1.350 . S
C1033 N1041 1.427 . S
C1034 H1025 0.930 . S
C1034 C1032 1.378 . S
C1034 C1035 1.367 . S
C1035 C1034 1.367 . S
C1035 C1037 1.433 . S
C1036 C1032 1.350 . S
C1036 C1033 1.463 . S
C1036 N1040 1.427 . S
C1037 H1027 0.929 . S
C1037 C1035 1.433 . S
C1037 N1040 1.384 . S
C1038 H1029 0.929 . S
C1038 C1030 1.378 . S
C1038 C1033 1.350 . S
C1039 H1026 0.929 . S
C1039 C1031 1.433 . S
C1039 N1041 1.384 . S
N1040 C1036 1.427 . S
N1040 C1037 1.384 . S
N1041 C1033 1.427 . S
N1041 C1039 1.384 . S
H1042 C1048 0.930 . S
H1043 C1052 0.930 . S
H1044 C1057 0.929 . S
H1045 C1055 0.929 . S
H1046 C1050 0.929 . S
H1047 C1056 0.929 . S
C1048 H1042 0.930 . S
C1048 C1049 1.367 . S
C1048 C1056 1.378 . S
C1049 C1048 1.367 . S
C1049 C1057 1.433 . S
C1050 H1046 0.929 . S
C1050 C1052 1.378 . S
C1050 C1054 1.350 . S
C1051 C1054 1.463 . S
C1051 C1056 1.350 . S
C1051 N1059 1.427 . S
C1052 H1043 0.930 . S
C1052 C1050 1.378 . S
C1052 C1053 1.367 . S
C1053 C1052 1.367 . S
C1053 C1055 1.433 . S
C1054 C1050 1.350 . S
C1054 C1051 1.463 . S
C1054 N1058 1.427 . S
C1055 H1045 0.929 . S
C1055 C1053 1.433 . S
C1055 N1058 1.384 . S
C1056 H1047 0.929 . S
C1056 C1048 1.378 . S
C1056 C1051 1.350 . S
C1057 H1044 0.929 . S
C1057 C1049 1.433 . S
C1057 N1059 1.384 . S
N1058 C1054 1.427 . S
N1058 C1055 1.384 . S
N1059 C1051 1.427 . S
N1059 C1057 1.384 . S
H1060 C1066 0.930 . S
H1061 C1070 0.930 . S
H1062 C1075 0.929 . S
H1063 C1073 0.929 . S
H1064 C1068 0.929 . S
H1065 C1074 0.929 . S
C1066 H1060 0.930 . S
C1066 C1067 1.367 . S
C1066 C1074 1.378 . S
C1067 C1066 1.367 . S
C1067 C1075 1.433 . S
C1068 H1064 0.929 . S
C1068 C1070 1.378 . S
C1068 C1072 1.350 . S
C1069 C1072 1.463 . S
C1069 C1074 1.350 . S
C1069 N1077 1.427 . S
C1070 H1061 0.930 . S
C1070 C1068 1.378 . S
C1070 C1071 1.367 . S
C1071 C1070 1.367 . S
C1071 C1073 1.433 . S
C1072 C1068 1.350 . S
C1072 C1069 1.463 . S
C1072 N1076 1.427 . S
C1073 H1063 0.929 . S
C1073 C1071 1.433 . S
C1073 N1076 1.384 . S
C1074 H1065 0.929 . S
C1074 C1066 1.378 . S
C1074 C1069 1.350 . S
C1075 H1062 0.929 . S
C1075 C1067 1.433 . S
C1075 N1077 1.384 . S
N1076 C1072 1.427 . S
N1076 C1073 1.384 . S
N1077 C1069 1.427 . S
N1077 C1075 1.384 . S
H1078 C1084 0.930 . S
H1079 C1088 0.930 . S
H1080 C1093 0.929 . S
H1081 C1091 0.929 . S
H1082 C1086 0.929 . S
H1083 C1092 0.929 . S
C1084 H1078 0.930 . S
C1084 C1085 1.367 . S
C1084 C1092 1.378 . S
C1085 C1084 1.367 . S
C1085 C1093 1.433 . S
C1086 H1082 0.929 . S
C1086 C1088 1.378 . S
C1086 C1090 1.350 . S
C1087 C1090 1.463 . S
C1087 C1092 1.350 . S
C1087 N1095 1.427 . S
C1088 H1079 0.930 . S
C1088 C1086 1.378 . S
C1088 C1089 1.367 . S
C1089 C1088 1.367 . S
C1089 C1091 1.433 . S
C1090 C1086 1.350 . S
C1090 C1087 1.463 . S
C1090 N1094 1.427 . S
C1091 H1081 0.929 . S
C1091 C1089 1.433 . S
C1091 N1094 1.384 . S
C1092 H1083 0.929 . S
C1092 C1084 1.378 . S
C1092 C1087 1.350 . S
C1093 H1080 0.929 . S
C1093 C1085 1.433 . S
C1093 N1095 1.384 . S
N1094 C1090 1.427 . S
N1094 C1091 1.384 . S
N1095 C1087 1.427 . S
N1095 C1093 1.384 . S
H1096 C1102 0.930 . S
H1097 C1106 0.930 . S
H1098 C1111 0.929 . S
H1099 C1109 0.929 . S
H1100 C1104 0.929 . S
H1101 C1110 0.929 . S
C1102 H1096 0.930 . S
C1102 C1103 1.367 . S
C1102 C1110 1.378 . S
C1103 C1102 1.367 . S
C1103 C1111 1.433 . S
C1104 H1100 0.929 . S
C1104 C1106 1.378 . S
C1104 C1108 1.350 . S
C1105 C1108 1.463 . S
C1105 C1110 1.350 . S
C1105 N1113 1.427 . S
C1106 H1097 0.930 . S
C1106 C1104 1.378 . S
C1106 C1107 1.367 . S
C1107 C1106 1.367 . S
C1107 C1109 1.433 . S
C1108 C1104 1.350 . S
C1108 C1105 1.463 . S
C1108 N1112 1.427 . S
C1109 H1099 0.929 . S
C1109 C1107 1.433 . S
C1109 N1112 1.384 . S
C1110 H1101 0.929 . S
C1110 C1102 1.378 . S
C1110 C1105 1.350 . S
C1111 H1098 0.929 . S
C1111 C1103 1.433 . S
C1111 N1113 1.384 . S
N1112 C1108 1.427 . S
N1112 C1109 1.384 . S
N1113 C1105 1.427 . S
N1113 C1111 1.384 . S
H1114 C1120 0.930 . S
H1115 C1124 0.930 . S
H1116 C1129 0.929 . S
H1117 C1127 0.929 . S
H1118 C1122 0.929 . S
H1119 C1128 0.929 . S
C1120 H1114 0.930 . S
C1120 C1121 1.367 . S
C1120 C1128 1.378 . S
C1121 C1120 1.367 . S
C1121 C1129 1.433 . S
C1122 H1118 0.929 . S
C1122 C1124 1.378 . S
C1122 C1126 1.350 . S
C1123 C1126 1.463 . S
C1123 C1128 1.350 . S
C1123 N1131 1.427 . S
C1124 H1115 0.930 . S
C1124 C1122 1.378 . S
C1124 C1125 1.367 . S
C1125 C1124 1.367 . S
C1125 C1127 1.433 . S
C1126 C1122 1.350 . S
C1126 C1123 1.463 . S
C1126 N1130 1.427 . S
C1127 H1117 0.929 . S
C1127 C1125 1.433 . S
C1127 N1130 1.384 . S
C1128 H1119 0.929 . S
C1128 C1120 1.378 . S
C1128 C1123 1.350 . S
C1129 H1116 0.929 . S
C1129 C1121 1.433 . S
C1129 N1131 1.384 . S
N1130 C1126 1.427 . S
N1130 C1127 1.384 . S
N1131 C1123 1.427 . S
N1131 C1129 1.384 . S
H1132 C1138 0.930 . S
H1133 C1142 0.930 . S
H1134 C1147 0.929 . S
H1135 C1145 0.929 . S
H1136 C1140 0.929 . S
H1137 C1146 0.929 . S
C1138 H1132 0.930 . S
C1138 C1139 1.367 . S
C1138 C1146 1.378 . S
C1139 C1138 1.367 . S
C1139 C1147 1.433 . S
C1140 H1136 0.929 . S
C1140 C1142 1.378 . S
C1140 C1144 1.350 . S
C1141 C1144 1.463 . S
C1141 C1146 1.350 . S
C1141 N1149 1.427 . S
C1142 H1133 0.930 . S
C1142 C1140 1.378 . S
C1142 C1143 1.367 . S
C1143 C1142 1.367 . S
C1143 C1145 1.433 . S
C1144 C1140 1.350 . S
C1144 C1141 1.463 . S
C1144 N1148 1.427 . S
C1145 H1135 0.929 . S
C1145 C1143 1.433 . S
C1145 N1148 1.384 . S
C1146 H1137 0.929 . S
C1146 C1138 1.378 . S
C1146 C1141 1.350 . S
C1147 H1134 0.929 . S
C1147 C1139 1.433 . S
C1147 N1149 1.384 . S
N1148 C1144 1.427 . S
N1148 C1145 1.384 . S
N1149 C1141 1.427 . S
N1149 C1147 1.384 . S
H1150 C1156 0.930 . S
H1151 C1160 0.930 . S
H1152 C1165 0.929 . S
H1153 C1163 0.929 . S
H1154 C1158 0.929 . S
H1155 C1164 0.929 . S
C1156 H1150 0.930 . S
C1156 C1157 1.367 . S
C1156 C1164 1.378 . S
C1157 C1156 1.367 . S
C1157 C1165 1.433 . S
C1158 H1154 0.929 . S
C1158 C1160 1.378 . S
C1158 C1162 1.350 . S
C1159 C1162 1.463 . S
C1159 C1164 1.350 . S
C1159 N1167 1.427 . S
C1160 H1151 0.930 . S
C1160 C1158 1.378 . S
C1160 C1161 1.367 . S
C1161 C1160 1.367 . S
C1161 C1163 1.433 . S
C1162 C1158 1.350 . S
C1162 C1159 1.463 . S
C1162 N1166 1.427 . S
C1163 H1153 0.929 . S
C1163 C1161 1.433 . S
C1163 N1166 1.384 . S
C1164 H1155 0.929 . S
C1164 C1156 1.378 . S
C1164 C1159 1.350 . S
C1165 H1152 0.929 . S
C1165 C1157 1.433 . S
C1165 N1167 1.384 . S
N1166 C1162 1.427 . S
N1166 C1163 1.384 . S
N1167 C1159 1.427 . S
N1167 C1165 1.384 . S
H1168 C1174 0.930 . S
H1169 C1178 0.930 . S
H1170 C1183 0.929 . S
H1171 C1181 0.929 . S
H1172 C1176 0.929 . S
H1173 C1182 0.928 1_556 S
C1174 H1168 0.930 . S
C1174 C1175 1.367 . S
C1174 C1182 1.373 1_556 S
C1175 C1174 1.367 . S
C1175 C1183 1.433 1_556 S
C1176 H1172 0.929 . S
C1176 C1178 1.378 . S
C1176 C1180 1.350 . S
C1177 C1180 1.463 . S
C1177 C1182 1.356 . S
C1177 N1185 1.427 . S
C1178 H1169 0.930 . S
C1178 C1176 1.378 . S
C1178 C1179 1.367 . S
C1179 C1178 1.367 . S
C1179 C1181 1.433 . S
C1180 C1176 1.350 . S
C1180 C1177 1.463 . S
C1180 N1184 1.427 . S
C1181 H1171 0.929 . S
C1181 C1179 1.433 . S
C1181 N1184 1.384 . S
C1182 H1173 0.928 1_554 S
C1182 C1174 1.373 1_554 S
C1182 C1177 1.356 . S
C1183 H1170 0.929 . S
C1183 C1175 1.433 1_554 S
C1183 N1185 1.384 . S
N1184 C1180 1.427 . S
N1184 C1181 1.384 . S
N1185 C1177 1.427 . S
N1185 C1183 1.384 . S
H1186 C1192 0.930 . S
H1187 C1196 0.930 . S
H1188 C1201 0.929 . S
H1189 C1199 0.929 . S
H1190 C1194 0.929 . S
H1191 C1200 0.929 . S
C1192 H1186 0.930 . S
C1192 C1193 1.367 . S
C1192 C1200 1.378 . S
C1193 C1192 1.367 . S
C1193 C1201 1.433 . S
C1194 H1190 0.929 . S
C1194 C1196 1.378 . S
C1194 C1198 1.350 . S
C1195 C1198 1.463 . S
C1195 C1200 1.350 . S
C1195 N1203 1.427 . S
C1196 H1187 0.930 . S
C1196 C1194 1.378 . S
C1196 C1197 1.367 . S
C1197 C1196 1.367 . S
C1197 C1199 1.433 . S
C1198 C1194 1.350 . S
C1198 C1195 1.463 . S
C1198 N1202 1.427 . S
C1199 H1189 0.929 . S
C1199 C1197 1.433 . S
C1199 N1202 1.384 . S
C1200 H1191 0.929 . S
C1200 C1192 1.378 . S
C1200 C1195 1.350 . S
C1201 H1188 0.929 . S
C1201 C1193 1.433 . S
C1201 N1203 1.384 . S
N1202 C1198 1.427 . S
N1202 C1199 1.384 . S
N1203 C1195 1.427 . S
N1203 C1201 1.384 . S
H1204 C1210 0.930 . S
H1205 C1214 0.930 . S
H1206 C1219 0.929 . S
H1207 C1217 0.929 . S
H1208 C1212 0.929 . S
H1209 C1218 0.929 . S
C1210 H1204 0.930 . S
C1210 C1211 1.367 . S
C1210 C1218 1.378 . S
C1211 C1210 1.367 . S
C1211 C1219 1.433 . S
C1212 H1208 0.929 . S
C1212 C1214 1.378 . S
C1212 C1216 1.350 . S
C1213 C1216 1.463 . S
C1213 C1218 1.350 . S
C1213 N1221 1.427 . S
C1214 H1205 0.930 . S
C1214 C1212 1.378 . S
C1214 C1215 1.367 . S
C1215 C1214 1.367 . S
C1215 C1217 1.433 . S
C1216 C1212 1.350 . S
C1216 C1213 1.463 . S
C1216 N1220 1.427 . S
C1217 H1207 0.929 . S
C1217 C1215 1.433 . S
C1217 N1220 1.384 . S
C1218 H1209 0.929 . S
C1218 C1210 1.378 . S
C1218 C1213 1.350 . S
C1219 H1206 0.929 . S
C1219 C1211 1.433 . S
C1219 N1221 1.384 . S
N1220 C1216 1.427 . S
N1220 C1217 1.384 . S
N1221 C1213 1.427 . S
N1221 C1219 1.384 . S
H1222 C1228 0.930 . S
H1223 C1232 0.930 . S
H1224 C1237 0.929 . S
H1225 C1235 0.929 . S
H1226 C1230 0.929 . S
H1227 C1236 0.940 1_545 S
C1228 H1222 0.930 . S
C1228 C1229 1.367 1_545 S
C1228 C1236 1.378 1_545 S
C1229 C1228 1.367 1_565 S
C1229 C1237 1.433 . S
C1230 H1226 0.929 . S
C1230 C1232 1.378 . S
C1230 C1234 1.350 . S
C1231 C1234 1.463 . S
C1231 C1236 1.350 . S
C1231 N1239 1.427 . S
C1232 H1223 0.930 . S
C1232 C1230 1.378 . S
C1232 C1233 1.367 . S
C1233 C1232 1.367 . S
C1233 C1235 1.433 1_554 S
C1234 C1230 1.350 . S
C1234 C1231 1.463 . S
C1234 N1238 1.427 . S
C1235 H1225 0.929 . S
C1235 C1233 1.433 1_556 S
C1235 N1238 1.384 1_556 S
C1236 H1227 0.940 1_565 S
C1236 C1228 1.378 1_565 S
C1236 C1231 1.350 . S
C1237 H1224 0.929 . S
C1237 C1229 1.433 . S
C1237 N1239 1.384 . S
N1238 C1234 1.427 . S
N1238 C1235 1.384 1_554 S
N1239 C1231 1.427 . S
N1239 C1237 1.384 . S
C387 C219 1.684 . S
C383 C73 1.718 . S
C405 C227 1.137 . S
C401 C82 1.268 1_455 S
C419 C100 1.756 . S
C423 C247 1.705 1_556 S
C441 C261 1.329 . S
C437 C56 1.308 . S
C459 C276 1.413 . S
C455 C134 1.386 . S
C477 C290 1.731 . S
C473 C165 1.717 . S
C491 C147 1.246 . S
C495 C304 1.282 . S
C513 C310 1.750 . S
C509 C125 1.798 . S
C527 C151 1.422 . S
C531 C324 1.386 . S
C549 C345 1.468 . S
C545 C121 1.451 . S
C563 C139 1.711 . S
C567 C325 1.465 . S
C585 C346 1.351 . S
C581 C164 1.345 . S
C599 C95 1.282 . S
C603 C353 1.151 . S
C617 C61 1.518 . S
C621 C359 1.504 . S
C635 C74 1.430 . S
C639 C352 1.399 . S
C653 C86 1.710 . S
C657 C360 1.713 . S
C671 C47 1.408 . S
C675 C254 1.349 . S
C689 C186 1.316 . S
C693 C255 1.115 . S
C711 C212 1.485 . S
C707 C204 1.553 . S
C729 C233 1.765 . S
C725 C112 1.807 . S
C743 C60 1.376 1_545 S
C747 C268 1.326 . S
C765 C318 1.458 . S
C761 C152 1.450 . S
C783 C269 1.583 . S
C779 C126 1.836 . S
C801 C297 1.084 . S
C797 C160 1.351 . S
C819 C303 1.685 . S
C815 C190 1.719 . S
C833 C199 1.273 . S
C837 C311 1.120 . S
C851 C113 1.755 . S
C855 C275 1.704 . S
C873 C289 1.330 . S
C869 C173 1.310 . S
C887 C43 1.389 . S
C891 C248 1.412 . S
C909 C262 1.731 . S
C905 C9 1.717 . S
C927 C220 1.282 . S
C923 C17 1.245 . S
C945 C226 1.754 . S
C941 C34 1.798 1_455 S
C959 C21 1.421 . S
C963 C338 1.389 . S
C977 C30 1.454 . S
C981 C331 1.476 1_455 S
C995 C48 1.707 . S
C999 C339 1.449 . S
C1013 C8 1.353 . S
C1017 C332 1.351 . S
C1035 C367 1.152 . S
C1031 C108 1.298 . S
C1053 C373 1.504 . S
C1049 C178 1.517 1_554 S
C1071 C366 1.404 . S
C1067 C191 1.432 . S
C1085 C203 1.709 . S
C1089 C374 1.713 . S
C1103 C138 1.411 . S
C1107 C282 1.360 . S
C1125 C283 1.134 . S
C1121 C69 1.309 . S
C1143 C296 1.485 . S
C1139 C87 1.553 . S
C1161 C317 1.766 . S
C1157 C99 1.805 . S
C1175 C177 1.375 . S
C1179 C240 1.339 . S
C1197 C234 1.456 . S
C1193 C22 1.450 . S
C1211 C35 1.835 . S
C1215 C241 1.581 . S
C1233 C213 1.086 . S
C1229 C4 1.352 . S
