# Generated by pormake.
# Topology pts, (4,4)-cn, num edge types: 1
# Building blocks:
#     Node 0, Type 0, BuildingBlock: KUFVIS_clean_linker_0, # of connection points: 4
#     Node 1, Type 0, BuildingBlock: KUFVIS_clean_linker_0, # of connection points: 4
#     Node 2, Type 1, BuildingBlock: UXUYUI_clean_sbu_0, # of connection points: 4
#     Node 3, Type 1, BuildingBlock: UXUYUI_clean_sbu_0, # of connection points: 4
#     Edge 4, Type (0, 1), BuildingBlock: TEMPAE_clean_linker_10, # of connection points: 2
#     Edge 5, Type (0, 1), BuildingBlock: TEMPAE_clean_linker_10, # of connection points: 2
#     Edge 6, Type (0, 1), BuildingBlock: TEMPAE_clean_linker_10, # of connection points: 2
#     Edge 7, Type (0, 1), BuildingBlock: TEMPAE_clean_linker_10, # of connection points: 2
#     Edge 8, Type (0, 1), BuildingBlock: TEMPAE_clean_linker_10, # of connection points: 2
#     Edge 9, Type (0, 1), BuildingBlock: TEMPAE_clean_linker_10, # of connection points: 2
#     Edge 10, Type (0, 1), BuildingBlock: TEMPAE_clean_linker_10, # of connection points: 2
#     Edge 11, Type (0, 1), BuildingBlock: TEMPAE_clean_linker_10, # of connection points: 2
# Relax obj value: 0.008
# Max RMSD: 0.067
# Mean RMSD: 0.060
data_MOF--net-pts--node1-UXUYUI_clean_sbu_0--node2-KUFVIS_clean_linker_0--edge1-TEMPAE_clean_linker_10
_symmetry_space_group_name_H-M    P1
_symmetry_Int_Tables_number       1
_symmetry_cell_setting            triclinic
loop_
_symmetry_equiv_pos_as_xyz
'x, y, z'
_cell_length_a     32.032773
_cell_length_b     32.016717
_cell_length_c     41.877471
_cell_angle_alpha  90.021848
_cell_angle_beta   89.815062
_cell_angle_gamma 90.063736
loop_
_atom_site_label
_atom_site_type_symbol
_atom_site_fract_x
_atom_site_fract_y
_atom_site_fract_z
_atom_type_partial_charge
H0 H 0.37388 0.02225 0.00837 0.0
H1 H 0.48372 0.04531 0.95236 0.0
H2 H 0.49324 1.0068 0.05153 0.0
H3 H 0.55154 0.04282 0.04988 0.0
H4 H 0.66325 0.04044 0.99388 0.0
H5 H 0.5465 0.01592 0.94829 0.0
C6 C 0.40764 0.02351 0.00623 0.0
C7 C 0.43177 1.01472 0.03298 0.0
C8 C 0.4261 0.03415 0.97706 0.0
C9 C 0.46991 0.03545 0.97473 0.0
C10 C 0.49533 0.02588 0.00145 0.0
C11 C 0.47538 1.01494 0.03057 0.0
C12 C 0.54217 0.02897 -0.00064 0.0
C13 C 0.56624 0.0379 0.02691 0.0
C14 C 0.60982 0.04182 0.025 0.0
C15 C 0.6295 0.03798 0.99538 0.0
C16 C 0.60677 0.02956 0.96774 0.0
C17 C 0.56335 0.02392 0.96979 0.0
H18 H 1.01351 0.65951 0.50334 0.0
H19 H 0.04299 0.54352 0.54823 0.0
H20 H 1.00016 0.54643 0.44991 0.0
H21 H 0.03643 0.48889 0.4452 0.0
H22 H 0.04067 0.37035 0.49151 0.0
H23 H 0.01754 0.47964 0.54774 0.0
C24 C 0.01538 0.62568 0.5021 0.0
C25 C 1.00588 0.60529 0.47357 0.0
C26 C 0.02807 0.60341 0.52895 0.0
C27 C 0.03159 0.55979 0.52738 0.0
C28 C 0.02194 0.53798 0.49884 0.0
C29 C 1.00878 0.56156 0.47201 0.0
C30 C 0.02654 0.49121 0.49684 0.0
C31 C 0.03378 0.47121 0.4671 0.0
C32 C 0.03863 0.42777 0.46538 0.0
C33 C 0.03749 0.40403 0.49323 0.0
C34 C 0.03084 0.42261 0.523 0.0
C35 C 0.02425 0.46599 0.52467 0.0
Li36 Li 0.02185 0.05223 0.27056 0.0
Li37 Li 1.0131 0.97542 0.26973 0.0
Li38 Li 0.05587 1.01156 0.2274 0.0
Li39 Li 0.97864 0.01577 0.22926 0.0
C40 C 0.09901 0.01971 0.29242 0.0
N41 N 0.16703 0.04251 0.32898 0.0
C42 C 0.10285 1.00512 0.32372 0.0
C43 C 0.13016 0.04534 0.27955 0.0
C44 C 0.13735 0.01716 0.34188 0.0
C45 C 0.16419 0.05666 0.29845 0.0
C46 C 0.94822 1.00425 0.30195 0.0
C47 C 0.90053 0.95456 0.32542 0.0
N48 N 0.90592 0.97305 0.35436 0.0
C49 C 0.95315 0.02289 0.33188 0.0
C50 C 0.92154 0.96994 0.2986 0.0
C51 C 0.93152 1.00662 0.3581 0.0
C52 C 1.00739 0.13705 0.28111 0.0
N53 N 0.02548 0.10297 0.29463 0.0
C54 C 0.04798 0.14396 0.33913 0.0
C55 C 0.04512 0.10561 0.32329 0.0
C56 C 0.0305 0.17988 0.32528 0.0
C57 C 1.00986 0.17603 0.29592 0.0
H58 H 0.99122 0.13399 0.25861 0.0
H59 H 0.05847 0.07806 0.33398 0.0
C60 C 1.00798 0.88836 0.27779 0.0
N61 N 1.00985 0.92495 0.29424 0.0
C62 C 1.00511 0.85035 0.29398 0.0
C63 C 1.00651 0.88819 0.34389 0.0
C64 C 1.00944 0.92549 0.3267 0.0
C65 C 1.00432 0.84988 0.32751 0.0
H66 H 1.00897 0.88862 0.25201 0.0
H67 H 1.01101 0.95489 0.3393 0.0
C68 C 0.0372 0.09405 0.20688 0.0
N69 N 0.07263 0.1594 0.17322 0.0
C70 C 0.02147 0.10527 0.177 0.0
C71 C 0.07062 0.11642 0.2198 0.0
C72 C 0.03991 0.13829 0.1603 0.0
C73 C 0.08818 0.14926 0.20238 0.0
C74 C 0.9956 0.94747 0.19709 0.0
C75 C 1.0134 0.95128 0.16672 0.0
C76 C 0.95807 0.92569 0.20093 0.0
C77 C 0.99309 0.93347 0.14056 0.0
C78 C 0.93869 0.90841 0.17415 0.0
N79 N 0.95645 0.91264 0.14478 0.0
C80 C 0.13537 0.98008 0.21424 0.0
C81 C 0.11285 0.02915 0.17568 0.0
C82 C 0.17403 0.97622 0.19898 0.0
N83 N 0.10595 1.00663 0.2027 0.0
C84 C 0.15115 0.02647 0.15977 0.0
C85 C 0.18257 0.99993 0.17148 0.0
H86 H 0.12893 0.96225 0.23564 0.0
H87 H 0.08888 0.04948 0.16654 0.0
C88 C 0.89166 0.02195 0.22144 0.0
N89 N 0.92833 0.02075 0.20502 0.0
C90 C 0.85378 0.02524 0.20526 0.0
C91 C 0.892 0.02674 0.15545 0.0
C92 C 0.92918 0.02333 0.17263 0.0
C93 C 0.85355 0.02765 0.17178 0.0
H94 H 0.89174 0.0204 0.24718 0.0
H95 H 0.95872 0.02268 0.1601 0.0
O96 O 0.06543 1.00809 0.27431 0.0
O97 O 0.96934 0.01958 0.27604 0.0
O98 O 0.01954 0.06166 0.22346 0.0
O99 O 1.01473 0.96514 0.22292 0.0
H100 H 0.07931 0.98496 0.334 0.0
H101 H 0.12839 0.05606 0.25515 0.0
H102 H 0.14053 1.00633 0.36621 0.0
H103 H 0.18845 0.07657 0.2888 0.0
H104 H 0.88002 0.92785 0.32323 0.0
H105 H 0.97358 0.04951 0.33486 0.0
H106 H 0.91749 0.95508 0.27561 0.0
H107 H 0.93514 0.02063 0.38144 0.0
H108 H 0.06414 0.1456 0.36177 0.0
H109 H 0.99531 0.20278 0.28472 0.0
H110 H 1.00419 0.82159 0.28037 0.0
H111 H 1.00553 0.88939 0.36972 0.0
H112 H 0.99541 0.08859 0.16674 0.0
H113 H 0.08258 0.10887 0.24316 0.0
H114 H 0.02818 0.14716 0.13708 0.0
H115 H 0.11409 0.16679 0.21211 0.0
H116 H 0.04243 0.96804 0.16337 0.0
H117 H 0.94387 0.92255 0.22428 0.0
H118 H 1.0064 0.93631 0.11689 0.0
H119 H 0.9095 0.89172 0.17672 0.0
H120 H 0.19689 0.9548 0.2086 0.0
H121 H 0.15631 0.04568 0.13885 0.0
H122 H 0.82497 0.02541 0.21886 0.0
H123 H 0.89342 0.02917 0.12968 0.0
Li124 Li 0.97951 1.01243 0.76946 0.0
Li125 Li 0.05724 0.01763 0.77141 0.0
Li126 Li 0.0155 0.05149 0.72776 0.0
Li127 Li 0.02463 0.9755 0.72935 0.0
C128 C 0.99702 0.08515 0.79903 0.0
N129 N 0.96024 0.12927 0.8484 0.0
C130 C 0.01603 0.08671 0.82899 0.0
C131 C 0.95952 0.10649 0.79409 0.0
C132 C 0.99691 0.10908 0.85367 0.0
C133 C 0.94134 0.12847 0.81937 0.0
C134 C 0.03871 0.94119 0.79801 0.0
C135 C 0.0959 0.89771 0.81495 0.0
N136 N 0.07503 0.88912 0.84252 0.0
C137 C 0.01782 0.93201 0.8265 0.0
C138 C 0.07804 0.92395 0.79213 0.0
C139 C 0.03671 0.90557 0.8487 0.0
C140 C 0.89415 0.99434 0.77652 0.0
N141 N 0.92834 1.00715 0.79303 0.0
C142 C 0.88758 1.01403 0.84068 0.0
C143 C 0.92594 0.01589 0.82475 0.0
C144 C 0.85136 1.00198 0.82404 0.0
C145 C 0.85528 0.99146 0.79158 0.0
H146 H 0.89699 0.98643 0.75152 0.0
H147 H 0.95367 0.02485 0.83766 0.0
C148 C 0.13986 0.0417 0.78255 0.0
N149 N 0.10628 0.02398 0.79713 0.0
C150 C 0.17792 0.04513 0.79848 0.0
C151 C 0.14539 1.01496 0.84518 0.0
C152 C 0.10816 1.0113 0.82808 0.0
C153 C 0.18132 0.0314 0.83026 0.0
H154 H 0.13726 0.05265 0.75822 0.0
H155 H 0.08076 0.99842 0.83956 0.0
C156 C 0.94769 0.02477 0.69903 0.0
N157 N 0.89938 0.0606 0.65186 0.0
C158 C 0.95202 1.01189 0.66729 0.0
C159 C 0.91846 0.05553 0.7068 0.0
C160 C 0.92737 0.03045 0.64378 0.0
C161 C 0.89443 0.07337 0.68261 0.0
C162 C 0.09295 1.00252 0.70049 0.0
C163 C 0.07738 1.00014 0.66943 0.0
C164 C 0.13287 0.98706 0.70699 0.0
C165 C 0.10197 0.98261 0.64532 0.0
C166 C 0.15658 0.96983 0.68221 0.0
N167 N 0.14077 0.96797 0.65214 0.0
C168 C 1.0105 0.13845 0.71983 0.0
C169 C 1.01283 0.10249 0.67051 0.0
C170 C 1.00855 0.17686 0.70418 0.0
N171 N 1.01234 0.10216 0.70299 0.0
C172 C 1.01149 0.14029 0.65383 0.0
C173 C 1.00936 0.17831 0.67067 0.0
H174 H 1.01098 0.13778 0.74555 0.0
H175 H 1.01463 0.07358 0.6574 0.0
C176 C 0.99297 0.90831 0.69315 0.0
N177 N 0.02849 0.92355 0.7065 0.0
C178 C 0.99324 0.86992 0.67725 0.0
C179 C 0.06643 0.86295 0.68975 0.0
C180 C 0.06471 0.90142 0.70543 0.0
C181 C 0.03038 0.8467 0.67532 0.0
H182 H 0.96419 0.92572 0.69522 0.0
H183 H 0.09235 0.91336 0.71686 0.0
O184 O 0.01529 0.06333 0.77457 0.0
O185 O 0.02091 0.96745 0.77624 0.0
O186 O 0.97191 1.00739 0.72238 0.0
O187 O 0.06901 0.01931 0.72443 0.0
H188 H 0.04521 0.07083 0.83321 0.0
H189 H 0.94459 0.10608 0.77101 0.0
H190 H 1.01122 0.11038 0.87701 0.0
H191 H 0.91223 0.14491 0.81591 0.0
H192 H 0.12646 0.88437 0.81082 0.0
H193 H 0.98739 0.94521 0.83142 0.0
H194 H 0.09502 0.93159 0.77058 0.0
H195 H 0.02093 0.89819 0.87088 0.0
H196 H 0.8863 0.02282 0.86562 0.0
H197 H 0.82864 0.98099 0.77788 0.0
H198 H 0.2045 0.05774 0.78569 0.0
H199 H 0.14581 1.00515 0.86991 0.0
H200 H 0.97437 0.98806 0.66077 0.0
H201 H 0.91434 0.06552 0.73125 0.0
H202 H 0.93057 0.02096 0.6191 0.0
H203 H 0.87183 0.09735 0.6883 0.0
H204 H 0.04633 1.01096 0.6641 0.0
H205 H 0.14522 0.98746 0.73095 0.0
H206 H 0.09014 0.98044 0.62121 0.0
H207 H 0.18742 0.95764 0.68694 0.0
H208 H 1.00642 0.2051 0.71831 0.0
H209 H 1.01302 0.13964 0.62801 0.0
H210 H 0.96449 0.85827 0.66701 0.0
H211 H 0.09583 0.84632 0.6887 0.0
C212 C 0.39507 0.96875 0.07184 0.0
C213 C 0.40959 1.00851 0.06349 0.0
C214 C 0.36251 0.96401 0.09415 0.0
C215 C 0.34374 1.0 0.10771 0.0
C216 C 0.36084 0.03994 0.10123 0.0
C217 C 0.39367 0.04366 0.07919 0.0
C218 C 0.34579 0.92084 0.10092 0.0
C219 C 0.34173 0.07917 0.11493 0.0
C220 C 0.22669 0.99901 0.12184 0.0
C221 C 0.224 0.99741 0.15526 0.0
C222 C 0.26546 0.99902 0.10619 0.0
C223 C 0.30267 0.99679 0.12431 0.0
C224 C 0.30029 0.99378 0.15797 0.0
C225 C 0.26101 0.9944 0.17307 0.0
C226 C 0.26656 1.00241 0.0702 0.0
C227 C 0.33922 0.99092 0.17805 0.0
H228 H 0.407 0.94169 0.0592 0.0
H229 H 0.40453 0.07443 0.07215 0.0
H230 H 0.33865 0.91706 0.12671 0.0
H231 H 0.31629 0.91613 0.08759 0.0
H232 H 0.36819 0.89617 0.09354 0.0
H233 H 0.36198 0.10693 0.11112 0.0
H234 H 0.31123 0.08502 0.10327 0.0
H235 H 0.3358 0.0756 0.14089 0.0
H236 H 0.19836 1.0004 0.10781 0.0
H237 H 0.2594 0.99359 0.19891 0.0
H238 H 0.28375 0.97553 0.05986 0.0
H239 H 0.28346 0.03122 0.06304 0.0
H240 H 0.23482 1.00326 0.05961 0.0
H241 H 0.35988 0.96577 0.16896 0.0
H242 H 0.332 0.98471 0.20358 0.0
H243 H 0.35694 0.02063 0.17642 0.0
C244 C 0.06061 0.36409 0.55476 0.0
C245 C 0.03016 0.39528 0.55167 0.0
C246 C 0.05647 0.33221 0.5774 0.0
C247 C 0.02144 0.33194 0.59806 0.0
C248 C 0.99234 0.36524 0.59688 0.0
C249 C 0.9969 0.39652 0.57349 0.0
C250 C 0.08822 0.29733 0.57771 0.0
C251 C 0.95521 0.3666 0.6191 0.0
C252 C 0.98875 0.2232 0.62403 0.0
C253 C 1.00924 0.21913 0.65344 0.0
C254 C 0.99109 0.26039 0.60638 0.0
C255 C 1.01381 0.29478 0.61865 0.0
C256 C 0.03274 0.29173 0.64902 0.0
C257 C 0.03065 0.25385 0.66588 0.0
C258 C 0.97072 0.26222 0.57393 0.0
C259 C 0.05667 0.3279 0.66316 0.0
H260 H 0.0868 0.36351 0.53829 0.0
H261 H 0.97329 0.42055 0.57119 0.0
H262 H 0.1005 0.29266 0.60217 0.0
H263 H 0.07306 0.26769 0.57031 0.0
H264 H 0.11491 0.30351 0.56137 0.0
H265 H 0.93934 0.39743 0.61856 0.0
H266 H 0.93237 0.34227 0.612 0.0
H267 H 0.96488 0.35979 0.64398 0.0
H268 H 0.97125 0.19706 0.61451 0.0
H269 H 0.04704 0.25116 0.68837 0.0
H270 H 0.99503 0.26607 0.55521 0.0
H271 H 0.94968 0.28964 0.57245 0.0
H272 H 0.95239 0.23361 0.56853 0.0
H273 H 0.08631 0.33234 0.64982 0.0
H274 H 0.06423 0.32271 0.68873 0.0
H275 H 0.03851 0.35725 0.66099 0.0
C276 C 0.66833 0.07756 0.05307 0.0
C277 C 0.63626 0.04772 0.05366 0.0
C278 C 0.70042 0.07685 0.07572 0.0
C279 C 0.7003 0.04564 0.09964 0.0
C280 C 0.66605 0.01773 0.10202 0.0
C281 C 0.63432 0.01909 0.0789 0.0
C282 C 0.73615 0.10737 0.07239 0.0
C283 C 0.6645 0.98437 0.12744 0.0
C284 C 0.80773 1.00921 0.12542 0.0
C285 C 0.8135 0.03117 0.15404 0.0
C286 C 0.77065 1.013 0.10793 0.0
C287 C 0.7383 0.03921 0.11941 0.0
C288 C 0.74345 0.06075 0.14864 0.0
C289 C 0.78104 0.0566 0.16555 0.0
C290 C 0.76641 0.98947 0.07683 0.0
C291 C 0.70965 0.08888 0.16167 0.0
H292 H 0.66961 0.09996 0.03367 0.0
H293 H 0.60967 0.99586 0.0793 0.0
H294 H 0.7436 0.12179 0.09577 0.0
H295 H 0.76445 0.09052 0.06413 0.0
H296 H 0.72918 0.13259 0.05499 0.0
H297 H 0.63317 0.96961 0.12915 0.0
H298 H 0.68769 0.95973 0.12173 0.0
H299 H 0.67282 0.99755 0.15108 0.0
H300 H 0.83226 0.98888 0.11666 0.0
H301 H 0.78534 0.07405 0.18748 0.0
H302 H 0.76258 1.01188 0.05684 0.0
H303 H 0.73813 0.96945 0.07744 0.0
H304 H 0.79394 0.96946 0.0717 0.0
H305 H 0.70527 0.1159 0.14546 0.0
H306 H 0.71716 0.10085 0.18588 0.0
H307 H 0.67949 0.07187 0.16278 0.0
C308 C 0.0695 0.65684 0.55774 0.0
C309 C 0.0372 0.62735 0.55825 0.0
C310 C 0.07147 0.68862 0.58072 0.0
C311 C 0.04006 0.69113 0.60452 0.0
C312 C 1.00938 0.65929 0.60665 0.0
C313 C 1.00833 0.62763 0.58339 0.0
C314 C 0.10497 0.72161 0.57771 0.0
C315 C 0.97545 0.66071 0.6317 0.0
C316 C 0.05418 0.77207 0.67027 0.0
C317 C 0.03164 0.80607 0.65802 0.0
C318 C 0.05656 0.73405 0.65355 0.0
C319 C 0.03595 0.72996 0.62387 0.0
C320 C 1.01262 0.76393 0.61166 0.0
C321 C 1.0108 0.8015 0.62884 0.0
C322 C 0.08161 0.69852 0.66735 0.0
C323 C 0.99025 0.76094 0.58002 0.0
H324 H 0.09155 0.65669 0.53803 0.0
H325 H 0.98302 0.6051 0.58341 0.0
H326 H 0.09093 0.75095 0.56864 0.0
H327 H 0.11891 0.72857 0.60134 0.0
H328 H 0.13024 0.712 0.56104 0.0
H329 H 0.95839 0.63056 0.63347 0.0
H330 H 0.9886 0.66852 0.65543 0.0
H331 H 0.95273 0.68553 0.62548 0.0
H332 H 0.0699 0.77514 0.69304 0.0
H333 H 0.99379 0.82773 0.61899 0.0
H334 H 0.10813 0.69102 0.65123 0.0
H335 H 0.062 0.67003 0.66915 0.0
H336 H 0.09416 0.706 0.69138 0.0
H337 H 1.01323 0.75567 0.56055 0.0
H338 H 0.97218 0.78962 0.57447 0.0
H339 H 0.96855 0.73392 0.58014 0.0
C340 C 0.36256 0.06784 0.95445 0.0
C341 C 0.39835 0.04337 0.94958 0.0
C342 C 0.33042 0.06886 0.9319 0.0
C343 C 0.33459 0.04572 0.90328 0.0
C344 C 0.37241 0.02431 0.89679 0.0
C345 C 0.40385 0.02313 0.92019 0.0
C346 C 0.29064 0.09193 0.93996 0.0
C347 C 0.37857 1.0004 0.8661 0.0
C348 C 0.23267 1.00364 0.87033 0.0
C349 C 0.22194 0.03408 0.84766 0.0
C350 C 0.26971 1.00661 0.88797 0.0
C351 C 0.29755 0.0402 0.88227 0.0
C352 C 0.288 0.07002 0.85849 0.0
C353 C 0.25009 0.06699 0.84183 0.0
C354 C 0.27841 0.97439 0.91345 0.0
C355 C 0.3173 0.10577 0.85122 0.0
H356 H 0.35861 0.08428 0.9769 0.0
H357 H 0.43149 1.00427 0.91626 0.0
H358 H 0.28138 0.11262 0.91999 0.0
H359 H 0.26498 0.06909 0.94365 0.0
H360 H 0.29371 0.11113 0.96194 0.0
H361 H 0.41181 0.99183 0.86224 0.0
H362 H 0.35981 0.97127 0.86684 0.0
H363 H 0.36764 0.01898 0.84539 0.0
H364 H 0.212 0.9774 0.8745 0.0
H365 H 0.24222 0.09107 0.82473 0.0
H366 H 0.28018 0.98984 0.93714 0.0
H367 H 0.309 0.95927 0.90897 0.0
H368 H 0.25398 0.94977 0.91452 0.0
H369 H 0.31726 0.12817 0.87143 0.0
H370 H 0.30824 0.12282 0.82921 0.0
H371 H 0.34973 0.09418 0.84835 0.0
C372 C 0.079 0.38224 0.42869 0.0
C373 C 0.04266 0.40518 0.43481 0.0
C374 C 0.0791 0.3498 0.40616 0.0
C375 C 0.04173 0.33977 0.38987 0.0
C376 C 1.00602 0.36535 0.39398 0.0
C377 C 1.00697 0.39794 0.41645 0.0
C378 C 0.11805 0.32381 0.40215 0.0
C379 C 0.96555 0.35576 0.37713 0.0
C380 C 0.04411 0.25715 0.32442 0.0
C381 C 0.03319 0.22103 0.34155 0.0
C382 C 0.04691 0.29617 0.33968 0.0
C383 C 0.03821 0.29914 0.37276 0.0
C384 C 0.02677 0.26281 0.39006 0.0
C385 C 0.02459 0.22423 0.37428 0.0
C386 C 0.05965 0.33407 0.32056 0.0
C387 C 0.01685 0.26465 0.42533 0.0
H388 H 0.10641 0.38765 0.44326 0.0
H389 H 0.97871 0.41532 0.42165 0.0
H390 H 0.11387 0.29354 0.41468 0.0
H391 H 0.12389 0.31688 0.37657 0.0
H392 H 0.14597 0.33963 0.41219 0.0
H393 H 0.94314 0.38213 0.37879 0.0
H394 H 0.9712 0.34848 0.35159 0.0
H395 H 0.95094 0.32782 0.38819 0.0
H396 H 0.05114 0.25474 0.29915 0.0
H397 H 0.01558 0.19652 0.3875 0.0
H398 H 0.08913 0.34712 0.3302 0.0
H399 H 0.03556 0.35878 0.32271 0.0
H400 H 0.06431 0.32672 0.29487 0.0
H401 H 0.04452 0.27588 0.43871 0.0
H402 H 1.00747 0.23376 0.43509 0.0
H403 H 0.99117 0.28718 0.42976 0.0
C404 C 0.633 0.98855 0.92088 0.0
C405 C 0.63023 0.02654 0.93732 0.0
C406 C 0.66425 0.98226 0.89765 0.0
C407 C 0.69334 1.01463 0.89117 0.0
C408 C 0.68818 0.05414 0.90583 0.0
C409 C 0.65657 0.05962 0.9286 0.0
C410 C 0.6681 0.94002 0.88196 0.0
C411 C 0.71835 0.08957 0.89972 0.0
C412 C 0.80647 0.98951 0.87249 0.0
C413 C 0.8098 1.00127 0.8403 0.0
C414 C 0.76832 0.99215 0.88892 0.0
C415 C 0.73221 1.00611 0.87267 0.0
C416 C 0.73473 0.01583 0.83977 0.0
C417 C 0.77352 1.01373 0.82406 0.0
C418 C 0.7671 0.98166 0.92408 0.0
C419 C 0.69683 0.03013 0.82147 0.0
H420 H 0.61277 0.96289 0.92778 0.0
H421 H 0.65428 0.08902 0.94137 0.0
H422 H 0.67519 0.94336 0.85613 0.0
H423 H 0.69426 0.92258 0.89297 0.0
H424 H 0.63915 0.92123 0.88479 0.0
H425 H 0.70752 0.11939 0.91047 0.0
H426 H 0.74921 0.08167 0.91007 0.0
H427 H 0.72292 0.09433 0.87372 0.0
H428 H 0.83391 0.97876 0.8851 0.0
H429 H 0.77557 0.02326 0.79929 0.0
H430 H 0.74255 0.95803 0.92892 0.0
H431 H 0.75907 1.01004 0.93804 0.0
H432 H 0.79742 0.96944 0.93285 0.0
H433 H 0.66968 1.00968 0.82673 0.0
H434 H 0.70244 0.03027 0.79527 0.0
H435 H 0.68835 0.06225 0.829 0.0
C436 C 0.02128 0.62967 0.41814 0.0
C437 C 0.99576 0.63119 0.44533 0.0
C438 C 0.01967 0.66156 0.3951 0.0
C439 C 0.99185 0.6955 0.3995 0.0
C440 C 0.96343 0.69501 0.42546 0.0
C441 C 0.96578 0.66286 0.44808 0.0
C442 C 0.0502 0.66071 0.36759 0.0
C443 C 0.933 0.7303 0.43094 0.0
C444 C 0.02593 0.80354 0.37274 0.0
C445 C 1.00176 0.8097 0.34529 0.0
C446 C 0.02347 0.7662 0.39014 0.0
C447 C 0.99624 0.73403 0.37986 0.0
C448 C 0.97224 0.73968 0.35188 0.0
C449 C 0.97524 0.77748 0.33494 0.0
C450 C 0.04969 0.76143 0.41985 0.0
C451 C 0.94285 0.70615 0.34021 0.0
H452 H 0.04466 0.60534 0.41612 0.0
H453 H 0.94592 0.66388 0.46909 0.0
H454 H 0.03457 0.66944 0.34496 0.0
H455 H 0.0753 0.68392 0.37194 0.0
H456 H 0.0648 0.62948 0.36464 0.0
H457 H 0.9094 0.72248 0.4495 0.0
H458 H 0.9503 0.75853 0.43879 0.0
H459 H 0.91657 0.73833 0.4085 0.0
H460 H 0.04705 0.82792 0.38056 0.0
H461 H 0.95615 0.78212 0.31392 0.0
H462 H 0.06962 0.73322 0.41786 0.0
H463 H 0.02914 0.75711 0.44097 0.0
H464 H 0.07009 0.78893 0.42413 0.0
H465 H 0.95968 0.67607 0.3376 0.0
H466 H 0.9284 0.71428 0.31695 0.0
H467 H 0.91762 0.7012 0.35803 0.0
loop_
_geom_bond_atom_site_label_1
_geom_bond_atom_site_label_2
_geom_bond_distance
_geom_bond_site_symmetry_2
_ccdc_geom_bond_type
H0 C6 0.928 1_565 S
H1 C9 0.931 . S
H2 C11 0.932 . S
H3 C13 0.930 . S
H4 C15 0.930 . S
H5 C17 0.931 . S
C6 H0 0.928 1_545 S
C6 C7 1.379 1_545 S
C6 C8 1.398 1_554 S
C7 C6 1.379 1_565 S
C7 C11 1.382 . S
C8 C6 1.398 1_556 S
C8 C9 1.400 . S
C9 H1 0.931 . S
C9 C8 1.400 . S
C9 C10 1.375 1_556 S
C10 C9 1.375 1_554 S
C10 C11 1.414 1_545 S
C10 C12 1.501 . S
C11 H2 0.932 . S
C11 C7 1.382 . S
C11 C10 1.414 1_565 S
C12 C10 1.501 . S
C12 C13 1.384 . S
C12 C17 1.408 1_544 S
C13 H3 0.930 . S
C13 C12 1.384 . S
C13 C14 1.389 . S
C14 C13 1.389 . S
C14 C15 1.405 . S
C15 H4 0.930 . S
C15 C14 1.405 . S
C15 C16 1.363 1_544 S
C16 C15 1.363 1_566 S
C16 C17 1.400 . S
C17 H5 0.931 . S
C17 C12 1.408 1_566 S
C17 C16 1.400 . S
H18 C24 0.930 . S
H19 C27 0.931 . S
H20 C29 0.931 . S
H21 C31 0.931 . S
H22 C33 0.930 . S
H23 C35 0.931 . S
C24 H18 0.930 . S
C24 C25 1.380 . S
C24 C26 1.394 . S
C25 C24 1.380 . S
C25 C29 1.382 . S
C26 C24 1.394 . S
C26 C27 1.400 1_455 S
C27 H19 0.931 . S
C27 C26 1.400 1_655 S
C27 C28 1.375 1_655 S
C28 C27 1.375 1_455 S
C28 C29 1.415 . S
C28 C30 1.501 . S
C29 H20 0.931 . S
C29 C25 1.382 . S
C29 C28 1.415 . S
C30 C28 1.501 . S
C30 C31 1.383 1_455 S
C30 C35 1.408 . S
C31 H21 0.931 . S
C31 C30 1.383 1_655 S
C31 C32 1.389 1_655 S
C32 C31 1.389 1_455 S
C32 C33 1.406 . S
C33 H22 0.930 . S
C33 C32 1.406 . S
C33 C34 1.364 . S
C34 C33 1.364 . S
C34 C35 1.400 . S
C35 H23 0.931 . S
C35 C30 1.408 . S
C35 C34 1.400 . S
Li36 N53 1.990 . S
Li36 O96 1.958 1_545 S
Li36 O97 1.970 1_455 S
Li36 O98 1.961 . S
Li37 N61 1.990 . S
Li37 O96 1.969 . S
Li37 O97 1.956 1_465 S
Li37 O99 1.961 . S
Li38 N83 1.990 . S
Li38 O96 1.961 1_545 S
Li38 O98 1.956 . S
Li38 O99 1.970 1_545 S
Li39 N89 1.990 . S
Li39 O97 1.961 1_565 S
Li39 O98 1.969 1_665 S
Li39 O99 1.958 1_655 S
C40 C42 1.348 1_545 S
C40 C43 1.356 . S
C40 O96 1.325 1_545 S
N41 C44 1.314 1_545 S
N41 C45 1.279 . S
C42 C40 1.348 1_565 S
C42 C44 1.353 . S
C42 H100 0.929 . S
C43 C40 1.356 . S
C43 C45 1.358 . S
C43 H101 0.930 . S
C44 N41 1.314 1_565 S
C44 C42 1.353 . S
C44 H102 0.930 . S
C45 N41 1.279 . S
C45 C43 1.358 . S
C45 H103 0.930 . S
C46 C49 1.348 . S
C46 C50 1.356 1_545 S
C46 O97 1.325 . S
C47 N48 1.279 . S
C47 C50 1.358 . S
C47 H104 0.930 . S
N48 C47 1.279 . S
N48 C51 1.314 1_565 S
C49 C46 1.348 . S
C49 C51 1.353 . S
C49 H105 0.929 . S
C50 C46 1.356 1_565 S
C50 C47 1.358 . S
C50 H106 0.930 . S
C51 N48 1.314 1_545 S
C51 C49 1.353 . S
C51 H107 0.930 . S
C52 N53 1.314 1_655 S
C52 C57 1.353 . S
C52 H58 0.930 . S
N53 Li36 1.990 . S
N53 C52 1.314 1_455 S
N53 C55 1.279 . S
C54 C55 1.358 . S
C54 C56 1.356 . S
C54 H108 0.930 . S
C55 N53 1.279 . S
C55 C54 1.358 . S
C55 H59 0.930 . S
C56 C54 1.356 . S
C56 C57 1.348 1_455 S
C57 C52 1.353 . S
C57 C56 1.348 1_655 S
C57 H109 0.929 . S
H58 C52 0.930 . S
H59 C55 0.930 . S
C60 N61 1.314 . S
C60 C62 1.353 . S
C60 H66 0.930 . S
N61 Li37 1.990 . S
N61 C60 1.314 . S
N61 C64 1.279 1_455 S
C62 C60 1.353 . S
C62 C65 1.348 . S
C62 H110 0.929 . S
C63 C64 1.358 . S
C63 C65 1.356 1_655 S
C63 H111 0.930 . S
C64 N61 1.279 1_655 S
C64 C63 1.358 . S
C64 H67 0.930 . S
C65 C62 1.348 . S
C65 C63 1.356 1_455 S
H66 C60 0.930 . S
H67 C64 0.930 . S
C68 C70 1.348 1_455 S
C68 C71 1.356 . S
C68 O98 1.325 . S
N69 C72 1.314 1_455 S
N69 C73 1.279 . S
C70 C68 1.348 1_655 S
C70 C72 1.353 . S
C70 H112 0.929 . S
C71 C68 1.356 . S
C71 C73 1.358 . S
C71 H113 0.930 . S
C72 N69 1.314 1_655 S
C72 C70 1.353 . S
C72 H114 0.930 . S
C73 N69 1.279 . S
C73 C71 1.358 . S
C73 H115 0.930 . S
C74 C75 1.348 . S
C74 C76 1.356 1_455 S
C74 O99 1.325 . S
C75 C74 1.348 . S
C75 C77 1.353 . S
C75 H116 0.929 . S
C76 C74 1.356 1_655 S
C76 C78 1.358 . S
C76 H117 0.930 . S
C77 C75 1.353 . S
C77 N79 1.314 . S
C77 H118 0.930 . S
C78 C76 1.358 . S
C78 N79 1.279 1_655 S
C78 H119 0.930 . S
N79 C77 1.314 . S
N79 C78 1.279 1_455 S
C80 C82 1.353 . S
C80 N83 1.314 1_565 S
C80 H86 0.930 . S
C81 N83 1.279 . S
C81 C84 1.358 . S
C81 H87 0.930 . S
C82 C80 1.353 . S
C82 C85 1.348 1_565 S
C82 H120 0.929 . S
N83 Li38 1.990 . S
N83 C80 1.314 1_545 S
N83 C81 1.279 . S
C84 C81 1.358 . S
C84 C85 1.356 . S
C84 H121 0.930 . S
C85 C82 1.348 1_545 S
C85 C84 1.356 . S
H86 C80 0.930 . S
H87 C81 0.930 . S
C88 N89 1.314 1_545 S
C88 C90 1.353 . S
C88 H94 0.930 . S
N89 Li39 1.990 . S
N89 C88 1.314 1_565 S
N89 C92 1.279 . S
C90 C88 1.353 . S
C90 C93 1.348 . S
C90 H122 0.929 . S
C91 C92 1.358 . S
C91 C93 1.356 1_565 S
C91 H123 0.930 . S
C92 N89 1.279 . S
C92 C91 1.358 . S
C92 H95 0.930 . S
C93 C90 1.348 . S
C93 C91 1.356 1_545 S
H94 C88 0.930 . S
H95 C92 0.930 . S
O96 Li36 1.958 1_565 S
O96 Li37 1.969 . S
O96 Li38 1.961 1_565 S
O96 C40 1.325 1_565 S
O97 Li36 1.970 1_655 S
O97 Li37 1.956 1_645 S
O97 Li39 1.961 1_545 S
O97 C46 1.325 . S
O98 Li36 1.961 . S
O98 Li38 1.956 . S
O98 Li39 1.969 1_445 S
O98 C68 1.325 . S
O99 Li37 1.961 . S
O99 Li38 1.970 1_565 S
O99 Li39 1.958 1_455 S
O99 C74 1.325 . S
H100 C42 0.929 . S
H101 C43 0.930 . S
H102 C44 0.930 . S
H103 C45 0.930 . S
H104 C47 0.930 . S
H105 C49 0.929 . S
H106 C50 0.930 . S
H107 C51 0.930 . S
H108 C54 0.930 . S
H109 C57 0.929 . S
H110 C62 0.929 . S
H111 C63 0.930 . S
H112 C70 0.929 . S
H113 C71 0.930 . S
H114 C72 0.930 . S
H115 C73 0.930 . S
H116 C75 0.929 . S
H117 C76 0.930 . S
H118 C77 0.930 . S
H119 C78 0.930 . S
H120 C82 0.929 . S
H121 C84 0.930 . S
H122 C90 0.929 . S
H123 C91 0.930 . S
Li124 N141 1.990 . S
Li124 O184 1.956 1_655 S
Li124 O185 1.970 1_645 S
Li124 O186 1.961 . S
Li125 N149 1.990 1_545 S
Li125 O184 1.968 . S
Li125 O185 1.958 1_545 S
Li125 O187 1.961 . S
Li126 N171 1.990 . S
Li126 O184 1.961 . S
Li126 O186 1.959 1_455 S
Li126 O187 1.970 . S
Li127 N177 1.990 . S
Li127 O185 1.961 . S
Li127 O186 1.968 1_465 S
Li127 O187 1.956 1_565 S
C128 C130 1.348 . S
C128 C131 1.356 1_455 S
C128 O184 1.325 . S
N129 C132 1.332 . S
N129 C133 1.264 1_455 S
C130 C128 1.348 . S
C130 C132 1.353 . S
C130 H188 0.929 . S
C131 C128 1.356 1_655 S
C131 C133 1.358 . S
C131 H189 0.930 . S
C132 N129 1.332 . S
C132 C130 1.353 . S
C132 H190 0.930 . S
C133 N129 1.264 1_655 S
C133 C131 1.358 . S
C133 H191 0.930 . S
C134 C137 1.348 1_455 S
C134 C138 1.356 . S
C134 O185 1.325 . S
C135 N136 1.279 . S
C135 C138 1.358 . S
C135 H192 0.930 . S
N136 C135 1.279 . S
N136 C139 1.314 1_455 S
C137 C134 1.348 1_655 S
C137 C139 1.353 . S
C137 H193 0.929 . S
C138 C134 1.356 . S
C138 C135 1.358 . S
C138 H194 0.930 . S
C139 N136 1.314 1_655 S
C139 C137 1.353 . S
C139 H195 0.930 . S
C140 N141 1.314 1_565 S
C140 C145 1.353 . S
C140 H146 0.930 . S
N141 Li124 1.990 . S
N141 C140 1.314 1_545 S
N141 C143 1.279 . S
C142 C143 1.358 . S
C142 C144 1.356 . S
C142 H196 0.930 . S
C143 N141 1.279 . S
C143 C142 1.358 . S
C143 H147 0.930 . S
C144 C142 1.356 . S
C144 C145 1.348 1_545 S
C145 C140 1.353 . S
C145 C144 1.348 1_565 S
C145 H197 0.929 . S
H146 C140 0.930 . S
H147 C143 0.930 . S
C148 N149 1.314 1_545 S
C148 C150 1.353 . S
C148 H154 0.930 . S
N149 Li125 1.990 1_565 S
N149 C148 1.314 1_565 S
N149 C152 1.279 . S
C150 C148 1.353 . S
C150 C153 1.348 . S
C150 H198 0.929 . S
C151 C152 1.358 . S
C151 C153 1.356 1_565 S
C151 H199 0.930 . S
C152 N149 1.279 . S
C152 C151 1.358 . S
C152 H155 0.930 . S
C153 C150 1.348 . S
C153 C151 1.356 1_545 S
H154 C148 0.930 . S
H155 C152 0.930 . S
C156 C158 1.348 1_545 S
C156 C159 1.356 . S
C156 O186 1.325 . S
N157 C160 1.314 1_545 S
N157 C161 1.279 . S
C158 C156 1.348 1_565 S
C158 C160 1.353 . S
C158 H200 0.929 . S
C159 C156 1.356 . S
C159 C161 1.358 . S
C159 H201 0.930 . S
C160 N157 1.314 1_565 S
C160 C158 1.353 . S
C160 H202 0.930 . S
C161 N157 1.279 . S
C161 C159 1.358 . S
C161 H203 0.930 . S
C162 C163 1.348 . S
C162 C164 1.356 1_545 S
C162 O187 1.325 . S
C163 C162 1.348 . S
C163 C165 1.353 . S
C163 H204 0.929 . S
C164 C162 1.356 1_565 S
C164 C166 1.358 . S
C164 H205 0.930 . S
C165 C163 1.353 . S
C165 N167 1.314 1_545 S
C165 H206 0.930 . S
C166 C164 1.358 . S
C166 N167 1.279 . S
C166 H207 0.930 . S
N167 C165 1.314 1_565 S
N167 C166 1.279 . S
C168 C170 1.353 . S
C168 N171 1.314 . S
C168 H174 0.930 . S
C169 N171 1.279 1_655 S
C169 C172 1.358 . S
C169 H175 0.930 . S
C170 C168 1.353 . S
C170 C173 1.348 . S
C170 H208 0.929 . S
N171 Li126 1.990 . S
N171 C168 1.314 . S
N171 C169 1.279 1_455 S
C172 C169 1.358 . S
C172 C173 1.356 1_655 S
C172 H209 0.930 . S
C173 C170 1.348 . S
C173 C172 1.356 1_455 S
H174 C168 0.930 . S
H175 C169 0.930 . S
C176 N177 1.314 1_655 S
C176 C178 1.353 . S
C176 H182 0.930 . S
N177 Li127 1.990 . S
N177 C176 1.314 1_455 S
N177 C180 1.279 . S
C178 C176 1.353 . S
C178 C181 1.348 1_655 S
C178 H210 0.929 . S
C179 C180 1.358 . S
C179 C181 1.356 . S
C179 H211 0.930 . S
C180 N177 1.279 . S
C180 C179 1.358 . S
C180 H183 0.930 . S
C181 C178 1.348 1_455 S
C181 C179 1.356 . S
H182 C176 0.930 . S
H183 C180 0.930 . S
O184 Li124 1.956 1_455 S
O184 Li125 1.968 . S
O184 Li126 1.961 . S
O184 C128 1.325 . S
O185 Li124 1.970 1_465 S
O185 Li125 1.958 1_565 S
O185 Li127 1.961 . S
O185 C134 1.325 . S
O186 Li124 1.961 . S
O186 Li126 1.959 1_655 S
O186 Li127 1.968 1_645 S
O186 C156 1.325 . S
O187 Li125 1.961 . S
O187 Li126 1.970 . S
O187 Li127 1.956 1_545 S
O187 C162 1.325 . S
H188 C130 0.929 . S
H189 C131 0.930 . S
H190 C132 0.930 . S
H191 C133 0.930 . S
H192 C135 0.930 . S
H193 C137 0.929 . S
H194 C138 0.930 . S
H195 C139 0.930 . S
H196 C142 0.930 . S
H197 C145 0.929 . S
H198 C150 0.929 . S
H199 C151 0.930 . S
H200 C158 0.929 . S
H201 C159 0.930 . S
H202 C160 0.930 . S
H203 C161 0.930 . S
H204 C163 0.929 . S
H205 C164 0.930 . S
H206 C165 0.930 . S
H207 C166 0.930 . S
H208 C170 0.929 . S
H209 C172 0.930 . S
H210 C178 0.929 . S
H211 C179 0.930 . S
C212 C213 1.391 . S
C212 C214 1.394 . S
C212 H228 0.931 . S
C213 C212 1.391 . S
C213 C217 1.376 1_565 S
C214 C212 1.394 . S
C214 C215 1.369 1_565 S
C214 C218 1.531 . S
C215 C214 1.369 1_545 S
C215 C216 1.410 . S
C215 C223 1.503 . S
C216 C215 1.410 . S
C216 C217 1.392 . S
C216 C219 1.511 . S
C217 C213 1.376 1_545 S
C217 C216 1.392 . S
C217 H229 0.929 . S
C218 C214 1.531 . S
C218 H230 0.960 . S
C218 H231 0.962 . S
C218 H232 0.960 . S
C219 C216 1.511 . S
C219 H233 0.961 . S
C219 H234 0.961 . S
C219 H235 0.961 . S
C220 C221 1.370 1_565 S
C220 C222 1.363 . S
C220 H236 0.931 . S
C221 C220 1.370 1_545 S
C221 C225 1.408 . S
C222 C220 1.363 . S
C222 C223 1.370 1_565 S
C222 C226 1.524 . S
C223 C215 1.503 . S
C223 C222 1.370 1_545 S
C223 C224 1.403 . S
C224 C223 1.403 . S
C224 C225 1.404 . S
C224 C227 1.539 . S
C225 C221 1.408 . S
C225 C224 1.404 . S
C225 H237 0.930 . S
C226 C222 1.524 . S
C226 H238 0.956 . S
C226 H239 0.961 . S
C226 H240 0.961 . S
C227 C224 1.539 . S
C227 H241 0.958 . S
C227 H242 0.961 . S
C227 H243 0.960 . S
H228 C212 0.931 . S
H229 C217 0.929 . S
H230 C218 0.960 . S
H231 C218 0.962 . S
H232 C218 0.960 . S
H233 C219 0.961 . S
H234 C219 0.961 . S
H235 C219 0.961 . S
H236 C220 0.931 . S
H237 C225 0.930 . S
H238 C226 0.956 . S
H239 C226 0.961 . S
H240 C226 0.961 . S
H241 C227 0.958 . S
H242 C227 0.961 . S
H243 C227 0.960 . S
C244 C245 1.391 . S
C244 C246 1.394 . S
C244 H260 0.931 . S
C245 C244 1.391 . S
C245 C249 1.376 . S
C246 C244 1.394 . S
C246 C247 1.369 . S
C246 C250 1.531 . S
C247 C246 1.369 . S
C247 C248 1.410 . S
C247 C255 1.503 . S
C248 C247 1.410 . S
C248 C249 1.392 . S
C248 C251 1.511 1_455 S
C249 C245 1.376 . S
C249 C248 1.392 . S
C249 H261 0.929 1_455 S
C250 C246 1.531 . S
C250 H262 0.960 . S
C250 H263 0.962 . S
C250 H264 0.960 . S
C251 C248 1.511 1_655 S
C251 H265 0.961 . S
C251 H266 0.961 . S
C251 H267 0.961 1_655 S
C252 C253 1.370 1_655 S
C252 C254 1.363 . S
C252 H268 0.931 . S
C253 C252 1.370 1_455 S
C253 C257 1.408 . S
C254 C252 1.363 . S
C254 C255 1.370 1_655 S
C254 C258 1.524 . S
C255 C247 1.503 . S
C255 C254 1.370 1_455 S
C255 C256 1.403 . S
C256 C255 1.403 . S
C256 C257 1.404 . S
C256 C259 1.539 . S
C257 C253 1.408 . S
C257 C256 1.404 . S
C257 H269 0.930 . S
C258 C254 1.524 . S
C258 H270 0.956 . S
C258 H271 0.961 . S
C258 H272 0.961 . S
C259 C256 1.539 . S
C259 H273 0.958 . S
C259 H274 0.961 . S
C259 H275 0.960 . S
H260 C244 0.931 . S
H261 C249 0.929 1_655 S
H262 C250 0.960 . S
H263 C250 0.962 . S
H264 C250 0.960 . S
H265 C251 0.961 . S
H266 C251 0.961 . S
H267 C251 0.961 1_455 S
H268 C252 0.931 . S
H269 C257 0.930 . S
H270 C258 0.956 . S
H271 C258 0.961 . S
H272 C258 0.961 . S
H273 C259 0.958 . S
H274 C259 0.961 . S
H275 C259 0.960 . S
C276 C277 1.391 . S
C276 C278 1.394 . S
C276 H292 0.931 . S
C277 C276 1.391 . S
C277 C281 1.376 . S
C278 C276 1.394 . S
C278 C279 1.369 . S
C278 C282 1.531 . S
C279 C278 1.369 . S
C279 C280 1.410 . S
C279 C287 1.503 . S
C280 C279 1.410 . S
C280 C281 1.392 . S
C280 C283 1.511 1_545 S
C281 C277 1.376 . S
C281 C280 1.392 . S
C281 H293 0.929 1_545 S
C282 C278 1.531 . S
C282 H294 0.960 . S
C282 H295 0.962 . S
C282 H296 0.960 . S
C283 C280 1.511 1_565 S
C283 H297 0.962 . S
C283 H298 0.962 . S
C283 H299 0.958 1_565 S
C284 C285 1.370 1_565 S
C284 C286 1.363 . S
C284 H300 0.931 . S
C285 C284 1.370 1_545 S
C285 C289 1.408 . S
C286 C284 1.363 . S
C286 C287 1.370 1_565 S
C286 C290 1.524 . S
C287 C279 1.503 . S
C287 C286 1.370 1_545 S
C287 C288 1.403 . S
C288 C287 1.403 . S
C288 C289 1.404 . S
C288 C291 1.539 . S
C289 C285 1.408 . S
C289 C288 1.404 . S
C289 H301 0.930 . S
C290 C286 1.524 . S
C290 H302 0.956 . S
C290 H303 0.961 . S
C290 H304 0.961 . S
C291 C288 1.539 . S
C291 H305 0.958 . S
C291 H306 0.961 . S
C291 H307 0.960 . S
H292 C276 0.931 . S
H293 C281 0.929 1_565 S
H294 C282 0.960 . S
H295 C282 0.962 . S
H296 C282 0.960 . S
H297 C283 0.962 . S
H298 C283 0.962 . S
H299 C283 0.958 1_545 S
H300 C284 0.931 . S
H301 C289 0.930 . S
H302 C290 0.956 . S
H303 C290 0.961 . S
H304 C290 0.961 . S
H305 C291 0.958 . S
H306 C291 0.961 . S
H307 C291 0.960 . S
C308 C309 1.391 1_455 S
C308 C310 1.394 . S
C308 H324 0.931 . S
C309 C308 1.391 1_655 S
C309 C313 1.376 . S
C310 C308 1.394 . S
C310 C311 1.369 1_455 S
C310 C314 1.531 . S
C311 C310 1.369 1_655 S
C311 C312 1.410 . S
C311 C319 1.503 . S
C312 C311 1.410 . S
C312 C313 1.392 . S
C312 C315 1.511 . S
C313 C309 1.376 . S
C313 C312 1.392 . S
C313 H325 0.929 . S
C314 C310 1.531 . S
C314 H326 0.960 . S
C314 H327 0.962 . S
C314 H328 0.960 . S
C315 C312 1.511 . S
C315 H329 0.961 . S
C315 H330 0.961 . S
C315 H331 0.961 . S
C316 C317 1.370 . S
C316 C318 1.363 . S
C316 H332 0.931 . S
C317 C316 1.370 . S
C317 C321 1.408 1_455 S
C318 C316 1.363 . S
C318 C319 1.370 1_455 S
C318 C322 1.524 . S
C319 C311 1.503 . S
C319 C318 1.370 1_655 S
C319 C320 1.403 . S
C320 C319 1.403 . S
C320 C321 1.404 . S
C320 C323 1.539 . S
C321 C317 1.408 1_655 S
C321 C320 1.404 . S
C321 H333 0.930 . S
C322 C318 1.524 . S
C322 H334 0.956 . S
C322 H335 0.961 . S
C322 H336 0.961 . S
C323 C320 1.539 . S
C323 H337 0.958 . S
C323 H338 0.961 . S
C323 H339 0.960 . S
H324 C308 0.931 . S
H325 C313 0.929 . S
H326 C314 0.960 . S
H327 C314 0.962 . S
H328 C314 0.960 . S
H329 C315 0.961 . S
H330 C315 0.961 . S
H331 C315 0.961 . S
H332 C316 0.931 . S
H333 C321 0.930 . S
H334 C322 0.956 . S
H335 C322 0.961 . S
H336 C322 0.961 . S
H337 C323 0.958 . S
H338 C323 0.961 . S
H339 C323 0.960 . S
C340 C341 1.391 . S
C340 C342 1.394 . S
C340 H356 0.931 . S
C341 C340 1.391 . S
C341 C345 1.376 1_545 S
C342 C340 1.394 . S
C342 C343 1.369 . S
C342 C346 1.531 . S
C343 C342 1.369 . S
C343 C344 1.410 1_545 S
C343 C351 1.503 . S
C344 C343 1.410 1_565 S
C344 C345 1.392 . S
C344 C347 1.511 . S
C345 C341 1.376 1_565 S
C345 C344 1.392 . S
C345 H357 0.929 . S
C346 C342 1.531 . S
C346 H358 0.960 . S
C346 H359 0.962 . S
C346 H360 0.960 . S
C347 C344 1.511 . S
C347 H361 0.961 . S
C347 H362 0.961 . S
C347 H363 0.961 . S
C348 C349 1.370 1_565 S
C348 C350 1.363 . S
C348 H364 0.931 . S
C349 C348 1.370 1_545 S
C349 C353 1.408 . S
C350 C348 1.363 . S
C350 C351 1.370 1_565 S
C350 C354 1.524 . S
C351 C343 1.503 . S
C351 C350 1.370 1_545 S
C351 C352 1.403 . S
C352 C351 1.403 . S
C352 C353 1.404 . S
C352 C355 1.539 . S
C353 C349 1.408 . S
C353 C352 1.404 . S
C353 H365 0.930 . S
C354 C350 1.524 . S
C354 H366 0.956 . S
C354 H367 0.961 . S
C354 H368 0.961 . S
C355 C352 1.539 . S
C355 H369 0.958 . S
C355 H370 0.961 . S
C355 H371 0.960 . S
H356 C340 0.931 . S
H357 C345 0.929 . S
H358 C346 0.960 . S
H359 C346 0.962 . S
H360 C346 0.960 . S
H361 C347 0.961 . S
H362 C347 0.961 . S
H363 C347 0.961 . S
H364 C348 0.931 . S
H365 C353 0.930 . S
H366 C354 0.956 . S
H367 C354 0.961 . S
H368 C354 0.961 . S
H369 C355 0.958 . S
H370 C355 0.961 . S
H371 C355 0.960 . S
C372 C373 1.391 1_455 S
C372 C374 1.394 . S
C372 H388 0.931 . S
C373 C372 1.391 1_655 S
C373 C377 1.376 . S
C374 C372 1.394 . S
C374 C375 1.369 1_455 S
C374 C378 1.531 . S
C375 C374 1.369 1_655 S
C375 C376 1.410 . S
C375 C383 1.503 . S
C376 C375 1.410 . S
C376 C377 1.392 . S
C376 C379 1.511 . S
C377 C373 1.376 . S
C377 C376 1.392 . S
C377 H389 0.929 . S
C378 C374 1.531 . S
C378 H390 0.960 . S
C378 H391 0.962 . S
C378 H392 0.960 . S
C379 C376 1.511 . S
C379 H393 0.961 . S
C379 H394 0.961 . S
C379 H395 0.961 . S
C380 C381 1.370 . S
C380 C382 1.363 . S
C380 H396 0.931 . S
C381 C380 1.370 . S
C381 C385 1.408 1_455 S
C382 C380 1.363 . S
C382 C383 1.370 1_455 S
C382 C386 1.524 . S
C383 C375 1.503 . S
C383 C382 1.370 1_655 S
C383 C384 1.403 . S
C384 C383 1.403 . S
C384 C385 1.404 . S
C384 C387 1.539 . S
C385 C381 1.408 1_655 S
C385 C384 1.404 . S
C385 H397 0.930 . S
C386 C382 1.524 . S
C386 H398 0.956 . S
C386 H399 0.961 . S
C386 H400 0.961 . S
C387 C384 1.539 . S
C387 H401 0.958 . S
C387 H402 0.961 . S
C387 H403 0.960 . S
H388 C372 0.931 . S
H389 C377 0.929 . S
H390 C378 0.960 . S
H391 C378 0.962 . S
H392 C378 0.960 . S
H393 C379 0.961 . S
H394 C379 0.961 . S
H395 C379 0.961 . S
H396 C380 0.931 . S
H397 C385 0.930 . S
H398 C386 0.956 . S
H399 C386 0.961 . S
H400 C386 0.961 . S
H401 C387 0.958 . S
H402 C387 0.961 . S
H403 C387 0.960 . S
C404 C405 1.391 . S
C404 C406 1.394 . S
C404 H420 0.931 . S
C405 C404 1.391 . S
C405 C409 1.376 1_565 S
C406 C404 1.394 . S
C406 C407 1.369 . S
C406 C410 1.531 . S
C407 C406 1.369 . S
C407 C408 1.410 1_565 S
C407 C415 1.503 . S
C408 C407 1.410 1_545 S
C408 C409 1.392 . S
C408 C411 1.511 . S
C409 C405 1.376 1_545 S
C409 C408 1.392 . S
C409 H421 0.929 . S
C410 C406 1.531 . S
C410 H422 0.960 . S
C410 H423 0.962 . S
C410 H424 0.960 . S
C411 C408 1.511 . S
C411 H425 0.961 . S
C411 H426 0.961 . S
C411 H427 0.961 . S
C412 C413 1.371 . S
C412 C414 1.363 . S
C412 H428 0.931 . S
C413 C412 1.371 . S
C413 C417 1.407 1_545 S
C414 C412 1.363 . S
C414 C415 1.370 1_545 S
C414 C418 1.524 . S
C415 C407 1.503 . S
C415 C414 1.370 1_565 S
C415 C416 1.403 . S
C416 C415 1.403 . S
C416 C417 1.404 . S
C416 C419 1.539 . S
C417 C413 1.407 1_565 S
C417 C416 1.404 . S
C417 H429 0.930 . S
C418 C414 1.524 . S
C418 H430 0.956 1_545 S
C418 H431 0.961 . S
C418 H432 0.961 . S
C419 C416 1.539 . S
C419 H433 0.958 . S
C419 H434 0.960 . S
C419 H435 0.955 1_565 S
H420 C404 0.931 . S
H421 C409 0.929 . S
H422 C410 0.960 . S
H423 C410 0.962 . S
H424 C410 0.960 . S
H425 C411 0.961 . S
H426 C411 0.961 . S
H427 C411 0.961 . S
H428 C412 0.931 . S
H429 C417 0.930 . S
H430 C418 0.956 1_565 S
H431 C418 0.961 . S
H432 C418 0.961 . S
H433 C419 0.958 . S
H434 C419 0.960 . S
H435 C419 0.955 1_545 S
C436 C437 1.391 . S
C436 C438 1.394 . S
C436 H452 0.931 . S
C437 C436 1.391 . S
C437 C441 1.376 1_455 S
C438 C436 1.394 . S
C438 C439 1.369 . S
C438 C442 1.531 . S
C439 C438 1.369 . S
C439 C440 1.410 1_455 S
C439 C447 1.503 . S
C440 C439 1.410 1_655 S
C440 C441 1.392 . S
C440 C443 1.511 . S
C441 C437 1.376 1_655 S
C441 C440 1.392 . S
C441 H453 0.929 . S
C442 C438 1.531 . S
C442 H454 0.960 . S
C442 H455 0.962 . S
C442 H456 0.960 . S
C443 C440 1.511 . S
C443 H457 0.961 . S
C443 H458 0.961 . S
C443 H459 0.961 . S
C444 C445 1.370 . S
C444 C446 1.363 . S
C444 H460 0.931 . S
C445 C444 1.370 . S
C445 C449 1.408 1_455 S
C446 C444 1.363 . S
C446 C447 1.370 . S
C446 C450 1.524 . S
C447 C439 1.503 . S
C447 C446 1.370 . S
C447 C448 1.403 1_455 S
C448 C447 1.403 1_655 S
C448 C449 1.404 . S
C448 C451 1.539 . S
C449 C445 1.408 1_655 S
C449 C448 1.404 . S
C449 H461 0.930 . S
C450 C446 1.524 . S
C450 H462 0.956 . S
C450 H463 0.961 . S
C450 H464 0.961 . S
C451 C448 1.539 . S
C451 H465 0.958 . S
C451 H466 0.961 . S
C451 H467 0.960 . S
H452 C436 0.931 . S
H453 C441 0.929 . S
H454 C442 0.960 . S
H455 C442 0.962 . S
H456 C442 0.960 . S
H457 C443 0.961 . S
H458 C443 0.961 . S
H459 C443 0.961 . S
H460 C444 0.931 . S
H461 C449 0.930 . S
H462 C450 0.956 . S
H463 C450 0.961 . S
H464 C450 0.961 . S
H465 C451 0.958 . S
H466 C451 0.961 . S
H467 C451 0.960 . S
C221 C85 1.550 . S
C213 C7 1.516 . S
C253 C173 1.547 . S
C245 C34 1.510 . S
C285 C93 1.554 . S
C277 C14 1.508 . S
C317 C181 1.545 . S
C309 C26 1.486 1_655 S
C349 C153 1.544 . S
C341 C8 1.510 . S
C381 C56 1.556 . S
C373 C32 1.482 1_655 S
C413 C144 1.546 . S
C405 C16 1.520 . S
C437 C25 1.518 . S
C445 C65 1.550 . S
