# Generated by pormake.
# Topology zzz, (3,6)-cn, num edge types: 1
# Building blocks:
#     Node 0, Type 0, BuildingBlock: BELTOD_clean_linker_0, # of connection points: 3
#     Node 1, Type 0, BuildingBlock: BELTOD_clean_linker_0, # of connection points: 3
#     Node 2, Type 0, BuildingBlock: BELTOD_clean_linker_0, # of connection points: 3
#     Node 3, Type 0, BuildingBlock: BELTOD_clean_linker_0, # of connection points: 3
#     Node 4, Type 0, BuildingBlock: BELTOD_clean_linker_0, # of connection points: 3
#     Node 5, Type 0, BuildingBlock: BELTOD_clean_linker_0, # of connection points: 3
#     Node 6, Type 0, BuildingBlock: BELTOD_clean_linker_0, # of connection points: 3
#     Node 7, Type 0, BuildingBlock: BELTOD_clean_linker_0, # of connection points: 3
#     Node 8, Type 1, BuildingBlock: NUHQIS_clean_sbu_0, # of connection points: 6
#     Node 9, Type 1, BuildingBlock: NUHQIS_clean_sbu_0, # of connection points: 6
#     Node 10, Type 1, BuildingBlock: NUHQIS_clean_sbu_0, # of connection points: 6
#     Node 11, Type 1, BuildingBlock: NUHQIS_clean_sbu_0, # of connection points: 6
#     Edge 12, Type (0, 1), BuildingBlock: EZIPEK_clean_linker_0, # of connection points: 2
#     Edge 13, Type (0, 1), BuildingBlock: EZIPEK_clean_linker_0, # of connection points: 2
#     Edge 14, Type (0, 1), BuildingBlock: EZIPEK_clean_linker_0, # of connection points: 2
#     Edge 15, Type (0, 1), BuildingBlock: EZIPEK_clean_linker_0, # of connection points: 2
#     Edge 16, Type (0, 1), BuildingBlock: EZIPEK_clean_linker_0, # of connection points: 2
#     Edge 17, Type (0, 1), BuildingBlock: EZIPEK_clean_linker_0, # of connection points: 2
#     Edge 18, Type (0, 1), BuildingBlock: EZIPEK_clean_linker_0, # of connection points: 2
#     Edge 19, Type (0, 1), BuildingBlock: EZIPEK_clean_linker_0, # of connection points: 2
#     Edge 20, Type (0, 1), BuildingBlock: EZIPEK_clean_linker_0, # of connection points: 2
#     Edge 21, Type (0, 1), BuildingBlock: EZIPEK_clean_linker_0, # of connection points: 2
#     Edge 22, Type (0, 1), BuildingBlock: EZIPEK_clean_linker_0, # of connection points: 2
#     Edge 23, Type (0, 1), BuildingBlock: EZIPEK_clean_linker_0, # of connection points: 2
#     Edge 24, Type (0, 1), BuildingBlock: EZIPEK_clean_linker_0, # of connection points: 2
#     Edge 25, Type (0, 1), BuildingBlock: EZIPEK_clean_linker_0, # of connection points: 2
#     Edge 26, Type (0, 1), BuildingBlock: EZIPEK_clean_linker_0, # of connection points: 2
#     Edge 27, Type (0, 1), BuildingBlock: EZIPEK_clean_linker_0, # of connection points: 2
#     Edge 28, Type (0, 1), BuildingBlock: EZIPEK_clean_linker_0, # of connection points: 2
#     Edge 29, Type (0, 1), BuildingBlock: EZIPEK_clean_linker_0, # of connection points: 2
#     Edge 30, Type (0, 1), BuildingBlock: EZIPEK_clean_linker_0, # of connection points: 2
#     Edge 31, Type (0, 1), BuildingBlock: EZIPEK_clean_linker_0, # of connection points: 2
#     Edge 32, Type (0, 1), BuildingBlock: EZIPEK_clean_linker_0, # of connection points: 2
#     Edge 33, Type (0, 1), BuildingBlock: EZIPEK_clean_linker_0, # of connection points: 2
#     Edge 34, Type (0, 1), BuildingBlock: EZIPEK_clean_linker_0, # of connection points: 2
#     Edge 35, Type (0, 1), BuildingBlock: EZIPEK_clean_linker_0, # of connection points: 2
# Relax obj value: 0.474
# Max RMSD: 0.235
# Mean RMSD: 0.224
data_MOF--net-zzz--node1-NUHQIS_clean_sbu_0--node2-BELTOD_clean_linker_0--edge1-EZIPEK_clean_linker_0
_symmetry_space_group_name_H-M    P1
_symmetry_Int_Tables_number       1
_symmetry_cell_setting            triclinic
loop_
_symmetry_equiv_pos_as_xyz
'x, y, z'
_cell_length_a     42.157147
_cell_length_b     42.020496
_cell_length_c     13.722886
_cell_angle_alpha  89.657974
_cell_angle_beta   89.755597
_cell_angle_gamma 89.958205
loop_
_atom_site_label
_atom_site_type_symbol
_atom_site_fract_x
_atom_site_fract_y
_atom_site_fract_z
_atom_type_partial_charge
P0 P 0.7285 0.48507 0.42013 0.0
H1 H 0.75443 0.46869 0.60892 0.0
H2 H 0.80582 0.48024 0.6812 0.0
H3 H 0.82139 0.55423 0.46791 0.0
H4 H 0.76947 0.54245 0.39415 0.0
H5 H 0.66539 0.51301 0.45071 0.0
H6 H 0.62238 0.5258 0.33654 0.0
H7 H 0.68667 0.51374 0.09512 0.0
H8 H 0.72938 0.50115 0.20729 0.0
H9 H 0.73733 0.41531 0.41975 0.0
H10 H 0.77876 0.49775 0.27957 0.0
O11 O 0.70578 0.46272 0.49331 0.0
H12 H 0.78066 0.38218 0.35485 0.0
H13 H 0.82116 0.46483 0.2146 0.0
C14 C 0.75747 0.50501 0.49653 0.0
C15 C 0.76796 0.48852 0.57998 0.0
C16 C 0.79766 0.4948 0.62091 0.0
C17 C 0.81772 0.51787 0.57974 0.0
C18 C 0.80632 0.53633 0.50119 0.0
C19 C 0.77647 0.52984 0.45966 0.0
C20 C 0.70107 0.50593 0.33896 0.0
C21 C 0.67068 0.51423 0.37349 0.0
C22 C 0.64595 0.5213 0.30823 0.0
C23 C 0.65117 0.52039 0.20704 0.0
C24 C 0.68204 0.51465 0.17277 0.0
C25 C 0.70668 0.5075 0.23781 0.0
C26 C 0.75432 0.45899 0.35276 0.0
C27 C 0.75498 0.42614 0.37265 0.0
C28 C 0.7797 0.40725 0.33628 0.0
C29 C 0.80389 0.42123 0.28014 0.0
C30 C 0.8025 0.45369 0.25732 0.0
C31 C 0.77808 0.47242 0.2938 0.0
P32 P 0.04234 0.7269 0.43861 0.0
H33 H 0.0261 0.74381 0.64042 0.0
H34 H 0.0149 0.79587 0.71176 0.0
H35 H 0.99819 0.83464 0.42544 0.0
H36 H 1.00838 0.78219 0.35372 0.0
H37 H 0.07567 0.67788 0.33378 0.0
H38 H 0.06029 0.63687 0.21772 0.0
H39 H 0.96308 0.66827 0.23583 0.0
H40 H 0.97874 0.70976 0.35399 0.0
H41 H 0.09867 0.75915 0.51126 0.0
H42 H 0.05007 0.74824 0.2374 0.0
O43 O 0.05942 0.70699 0.52987 0.0
H44 H 0.12623 0.80615 0.44622 0.0
H45 H 0.07698 0.79536 0.17368 0.0
C46 C 0.01816 0.75862 0.491 0.0
C47 C 0.01856 0.76294 0.59269 0.0
C48 C 0.01256 0.79292 0.63376 0.0
C49 C 1.00642 0.81947 0.57403 0.0
C50 C 1.00318 0.81465 0.47316 0.0
C51 C 1.00866 0.78448 0.43223 0.0
C52 C 0.02845 0.69712 0.35254 0.0
C53 C 0.05096 0.67604 0.31327 0.0
C54 C 0.04219 0.65252 0.24682 0.0
C55 C 1.01055 0.64942 0.21698 0.0
C56 C 0.98769 0.67022 0.25723 0.0
C57 C 0.99659 0.69395 0.32449 0.0
C58 C 0.07252 0.75005 0.37886 0.0
C59 C 0.09516 0.76581 0.43572 0.0
C60 C 0.11071 0.79274 0.39903 0.0
C61 C 0.10307 0.8044 0.30605 0.0
C62 C 0.083 0.78671 0.24583 0.0
C63 C 0.06782 0.75964 0.28202 0.0
P64 P 0.79453 0.05001 0.44016 0.0
H65 H 0.77016 0.05252 0.63897 0.0
H66 H 0.71847 0.03816 0.70608 0.0
H67 H 0.69815 0.98394 0.4485 0.0
H68 H 0.75012 0.99856 0.38013 0.0
H69 H 0.84975 0.07963 0.35706 0.0
H70 H 0.88819 0.0645 0.23247 0.0
H71 H 0.8447 0.97206 0.21177 0.0
H72 H 0.80531 0.98753 0.33725 0.0
H73 H 0.77414 0.11665 0.46517 0.0
H74 H 0.76006 0.04043 0.26055 0.0
O75 O 0.81387 0.07152 0.52278 0.0
H76 H 0.73109 0.14698 0.38738 0.0
H77 H 0.71572 0.06947 0.18848 0.0
C78 C 0.76469 0.02641 0.50431 0.0
C79 C 0.75545 0.03633 0.59805 0.0
C80 C 0.72561 0.02838 0.63648 0.0
C81 C 0.70414 1.01026 0.58217 0.0
C82 C 0.71427 0.99797 0.49192 0.0
C83 C 0.74421 1.00609 0.4532 0.0
C84 C 0.82474 0.03464 0.35794 0.0
C85 C 0.84865 0.0558 0.32756 0.0
C86 C 0.87074 0.04718 0.25634 0.0
C87 C 0.86981 0.01699 0.21371 0.0
C88 C 0.8462 0.99535 0.24473 0.0
C89 C 0.82368 1.00418 0.31623 0.0
C90 C 0.7701 0.0762 0.36884 0.0
C91 C 0.76225 0.10669 0.40262 0.0
C92 C 0.73753 0.12384 0.35907 0.0
C93 C 0.71953 0.10986 0.28487 0.0
C94 C 0.72891 0.08035 0.24713 0.0
C95 C 0.75423 0.06382 0.28812 0.0
P96 P 0.47669 0.79917 0.44628 0.0
H97 H 0.46536 0.76632 0.62957 0.0
H98 H 0.48033 0.71389 0.68844 0.0
H99 H 0.5506 0.70703 0.46046 0.0
H100 H 0.53315 0.75887 0.39498 0.0
H101 H 0.4465 0.85377 0.36127 0.0
H102 H 0.46276 0.89505 0.24612 0.0
H103 H 0.55803 0.85769 0.2468 0.0
H104 H 0.54145 0.81574 0.36382 0.0
H105 H 0.42348 0.75716 0.48714 0.0
H106 H 0.47549 0.78983 0.23383 0.0
O107 O 0.45358 0.81646 0.52964 0.0
H108 H 0.40048 0.71424 0.39047 0.0
H109 H 0.45111 0.74807 0.13678 0.0
C110 C 0.49861 0.76752 0.5087 0.0
C111 C 0.48475 0.75429 0.59325 0.0
C112 C 0.49319 0.72391 0.62703 0.0
C113 C 0.51661 0.70591 0.57942 0.0
C114 C 0.53238 0.72014 0.499 0.0
C115 C 0.52283 0.75016 0.46235 0.0
C116 C 0.49275 0.83173 0.37274 0.0
C117 C 0.47114 0.85469 0.33874 0.0
C118 C 0.48036 0.87827 0.2722 0.0
C119 C 0.51158 0.87956 0.23672 0.0
C120 C 0.53374 0.85719 0.27278 0.0
C121 C 0.52433 0.83324 0.33975 0.0
C122 C 0.45127 0.77665 0.36796 0.0
C123 C 0.42877 0.75611 0.40995 0.0
C124 C 0.41547 0.73177 0.35486 0.0
C125 C 0.42415 0.7282 0.25689 0.0
C126 C 0.44391 0.75085 0.21214 0.0
C127 C 0.45789 0.77464 0.26788 0.0
P128 P 0.28634 0.46922 0.1401 0.0
H129 H 0.25324 0.4332 0.98802 0.0
H130 H 0.20594 0.44732 0.89548 0.0
H131 H 0.22083 0.54623 0.96139 0.0
H132 H 0.26809 0.53199 0.05675 0.0
H133 H 0.33786 0.42364 0.17816 0.0
H134 H 0.38754 0.4297 0.26584 0.0
H135 H 0.37805 0.53169 0.24799 0.0
H136 H 0.33033 0.52546 0.14751 0.0
H137 H 0.22065 0.46366 0.19636 0.0
H138 H 0.30083 0.5195 0.29076 0.0
O139 O 0.2789 0.4305 0.15607 0.0
H140 H 0.18509 0.50124 0.27704 0.0
H141 H 0.26527 0.55784 0.36335 0.0
C142 C 0.26475 0.48141 0.03032 0.0
C143 C 0.24742 0.45815 0.97967 0.0
C144 C 0.21995 0.46618 0.92717 0.0
C145 C 0.20914 0.4978 0.92262 0.0
C146 C 0.22837 0.5216 0.96403 0.0
C147 C 0.25581 0.51348 0.01738 0.0
C148 C 0.32907 0.47418 0.15996 0.0
C149 C 0.34694 0.44744 0.18876 0.0
C150 C 0.37539 0.45087 0.24034 0.0
C151 C 0.386 0.48114 0.26893 0.0
C152 C 0.37022 0.50794 0.22972 0.0
C153 C 0.34282 0.50437 0.17202 0.0
C154 C 0.26358 0.48914 0.23313 0.0
C155 C 0.23081 0.48337 0.23604 0.0
C156 C 0.21049 0.50492 0.28113 0.0
C157 C 0.22277 0.53248 0.32366 0.0
C158 C 0.25554 0.53685 0.32909 0.0
C159 C 0.27589 0.51494 0.28568 0.0
P160 P 0.06424 0.29165 0.1059 0.0
H161 H 0.08938 0.26054 0.93089 0.0
H162 H 0.07158 0.21246 0.84928 0.0
H163 H 0.97964 0.22214 0.98281 0.0
H164 H 0.99786 0.27019 0.06841 0.0
H165 H 0.1023 0.33884 0.20355 0.0
H166 H 0.08991 0.3833 0.30973 0.0
H167 H 0.99088 0.37417 0.2398 0.0
H168 H 1.00336 0.32882 0.13197 0.0
H169 H 0.09183 0.22921 0.1362 0.0
H170 H 0.025 0.2901 0.28527 0.0
O171 O 0.10284 0.29351 0.07864 0.0
H172 H 0.06812 0.18287 0.21628 0.0
H173 H 1.00188 0.24393 0.36547 0.0
C174 C 0.0451 0.26969 1.00672 0.0
C175 C 0.06486 0.2535 0.94012 0.0
C176 C 0.05479 0.22554 0.89364 0.0
C177 C 0.02443 0.213 0.91104 0.0
C178 C 1.00333 0.23101 0.96872 0.0
C179 C 0.0136 0.25892 0.01649 0.0
C180 C 0.05395 0.33051 0.15716 0.0
C181 C 0.07792 0.34683 0.20755 0.0
C182 C 0.07084 0.37225 0.26952 0.0
C183 C 0.03944 0.38224 0.28395 0.0
C184 C 0.01534 0.36706 0.23002 0.0
C185 C 0.0225 0.34132 0.16751 0.0
C186 C 0.05978 0.2631 0.20266 0.0
C187 C 0.0733 0.2329 0.18989 0.0
C188 C 0.05966 0.20642 0.235 0.0
C189 C 0.03263 0.21016 0.2935 0.0
C190 C 0.02244 0.24076 0.31889 0.0
C191 C 0.03577 0.26717 0.27274 0.0
P192 P 0.24032 0.05711 0.15483 0.0
H193 H 0.26964 0.09102 0.99021 0.0
H194 H 0.31353 0.07722 0.8883 0.0
H195 H 0.30575 0.97965 0.98821 0.0
H196 H 0.26149 0.99411 0.08725 0.0
H197 H 0.18972 0.10161 0.20757 0.0
H198 H 0.14053 0.0938 0.29802 0.0
H199 H 0.1483 0.99255 0.25858 0.0
H200 H 0.19729 1.00043 0.16238 0.0
H201 H 0.30757 0.05608 0.19363 0.0
H202 H 0.22351 0.01669 0.32957 0.0
O203 O 0.24769 0.096 0.16434 0.0
H204 H 0.34014 0.01828 0.28494 0.0
H205 H 0.25615 0.97832 0.4173 0.0
C206 C 0.26077 0.04353 0.04446 0.0
C207 C 0.27577 0.06609 0.98431 0.0
C208 C 0.30135 0.0577 0.92356 0.0
C209 C 0.31263 0.02594 0.91611 0.0
C210 C 0.29707 1.00348 0.97803 0.0
C211 C 0.27115 1.01188 0.03793 0.0
C212 C 0.19787 0.05159 0.17864 0.0
C213 C 0.1804 0.0777 0.2138 0.0
C214 C 0.15217 0.07328 0.26647 0.0
C215 C 0.14085 0.04254 0.28703 0.0
C216 C 0.15646 0.01651 0.24368 0.0
C217 C 0.18439 0.02106 0.18805 0.0
C218 C 0.26292 0.0382 0.25013 0.0
C219 C 0.29608 0.03984 0.24422 0.0
C220 C 0.31466 0.01819 0.29562 0.0
C221 C 0.30024 0.99509 0.35484 0.0
C222 C 0.2674 0.99563 0.36969 0.0
C223 C 0.24879 0.01741 0.31826 0.0
P224 P 0.45897 0.23145 0.1004 0.0
H225 H 0.43764 0.25445 0.90866 0.0
H226 H 0.45324 0.30235 0.81952 0.0
H227 H 0.53939 0.30715 0.98613 0.0
H228 H 0.52378 0.2589 0.07592 0.0
H229 H 0.42098 0.18533 0.20505 0.0
H230 H 0.43339 0.14061 0.31172 0.0
H231 H 0.53209 0.14828 0.23286 0.0
H232 H 0.51956 0.19394 0.12484 0.0
H233 H 0.42517 0.29048 0.14155 0.0
H234 H 0.50316 0.23692 0.26322 0.0
O235 O 0.42062 0.22937 0.07113 0.0
H236 H 0.44459 0.33842 0.22301 0.0
H237 H 0.52282 0.28466 0.3407 0.0
C238 C 0.47917 0.25276 1.00095 0.0
C239 C 0.46063 0.26469 0.92375 0.0
C240 C 0.46941 0.29251 0.87293 0.0
C241 C 0.49696 0.30942 0.89819 0.0
C242 C 0.51764 0.29518 0.96622 0.0
C243 C 0.50885 0.26719 0.01702 0.0
C244 C 0.46916 0.19289 0.15444 0.0
C245 C 0.44527 0.17697 0.20746 0.0
C246 C 0.45236 0.15141 0.26954 0.0
C247 C 0.4837 0.1409 0.2813 0.0
C248 C 0.50768 0.15579 0.22502 0.0
C249 C 0.50051 0.18171 0.16259 0.0
C250 C 0.46269 0.26006 0.19604 0.0
C251 C 0.44536 0.28854 0.18976 0.0
C252 C 0.4565 0.31593 0.23558 0.0
C253 C 0.48545 0.31492 0.28543 0.0
C254 C 0.50057 0.28573 0.30149 0.0
C255 C 0.48915 0.25837 0.25743 0.0
Tb256 Tb 0.03393 1.01031 0.82011 0.0
Eu257 Eu 0.97367 0.02033 0.67534 0.0
C258 C 0.04463 0.02763 0.59454 0.0
C259 C 1.00759 0.0802 0.78488 0.0
C260 C 0.089 0.97578 1.00117 0.0
C261 C 0.12809 0.94905 0.10199 0.0
C262 C 0.11948 0.97455 0.04165 0.0
C263 C 0.06706 0.95166 0.02224 0.0
C264 C 0.07563 0.92628 0.08216 0.0
C265 C 0.10626 0.92463 0.12144 0.0
C266 C 0.08061 1.00107 0.9324 0.0
O267 O 0.99213 0.01448 0.91592 0.0
O268 O 0.95344 0.99813 0.81142 0.0
O269 O 0.99134 0.97048 0.64902 0.0
O270 O 0.01659 0.96167 0.79427 0.0
C271 C 0.96288 1.00504 0.89956 0.0
O272 O 0.92596 0.03824 0.64687 0.0
O273 O 0.9496 1.00923 0.53971 0.0
O274 O 0.01552 0.03861 0.58773 0.0
O275 O 0.05426 1.01217 0.6727 0.0
O276 O 0.03262 0.06207 0.7998 0.0
O277 O 0.98118 0.06846 0.74854 0.0
C278 C 1.00441 0.95108 0.71222 0.0
O279 O 0.07986 0.99243 0.84169 0.0
O280 O 0.05588 0.01804 0.95521 0.0
C281 C 0.92376 0.05495 0.48266 0.0
C282 C 0.94858 0.10625 0.37889 0.0
C283 C 0.93058 0.11175 0.46299 0.0
C284 C 0.91766 0.08616 0.51405 0.0
C285 C 0.93677 0.05025 0.38918 0.0
C286 C 0.9492 0.07596 0.33714 0.0
C287 C 0.92664 0.02935 0.55587 0.0
H288 H 0.15177 0.94805 0.1322 0.0
H289 H 0.13666 0.99303 0.02552 0.0
H290 H 0.0435 0.95223 0.991 0.0
H291 H 0.0585 0.90764 0.09702 0.0
H292 H 0.92936 0.13532 0.49439 0.0
H293 H 0.90679 0.09066 0.58431 0.0
H294 H 0.94113 0.0265 0.36222 0.0
H295 H 0.96253 0.07168 0.27081 0.0
Tb296 Tb 0.51351 0.03961 0.82317 0.0
Eu297 Eu 0.50411 0.97658 0.68967 0.0
C298 C 0.49854 0.04779 0.59873 0.0
C299 C 0.44374 1.01241 0.78472 0.0
C300 C 0.55022 0.0979 0.98847 0.0
C301 C 0.5793 0.13977 0.07035 0.0
C302 C 0.55295 0.12979 0.01692 0.0
C303 C 0.57401 0.07605 0.01363 0.0
C304 C 0.60024 0.08597 0.06683 0.0
C305 C 0.6031 0.11785 0.09512 0.0
C306 C 0.52344 0.08775 0.92859 0.0
O307 O 0.5313 0.99955 0.91211 0.0
O308 O 0.50081 0.96056 0.84598 0.0
O309 O 0.55669 0.97935 0.71745 0.0
O310 O 0.55873 0.03295 0.74535 0.0
C311 C 0.51789 0.97128 0.91803 0.0
O312 O 0.48685 0.92805 0.67467 0.0
O313 O 0.51366 0.94952 0.55721 0.0
O314 O 0.50687 0.01807 0.58338 0.0
O315 O 0.49331 0.05836 0.68754 0.0
O316 O 0.4632 0.0273 0.84394 0.0
O317 O 0.45424 0.99585 0.71001 0.0
C318 C 0.57262 1.00608 0.72065 0.0
O319 O 0.52909 0.08686 0.83543 0.0
O320 O 0.50853 0.06233 0.95834 0.0
C321 C 0.46788 0.91992 0.51797 0.0
C322 C 0.40552 0.92228 0.45147 0.0
C323 C 0.41536 0.89648 0.50901 0.0
C324 C 0.44658 0.8954 0.54262 0.0
C325 C 0.45888 0.94299 0.44892 0.0
C326 C 0.42784 0.9441 0.41582 0.0
C327 C 0.49467 0.92641 0.58291 0.0
H328 H 0.58125 0.16445 0.09189 0.0
H329 H 0.53487 0.14695 0.99705 0.0
H330 H 0.57241 0.05141 0.99129 0.0
H331 H 0.61849 0.06884 0.0855 0.0
H332 H 0.39826 0.87933 0.53616 0.0
H333 H 0.45306 0.87751 0.59608 0.0
H334 H 0.47462 0.96228 0.42855 0.0
H335 H 0.42051 0.96392 0.37028 0.0
Tb336 Tb 0.48964 0.51412 0.80215 0.0
Eu337 Eu 0.55169 0.50092 0.6695 0.0
C338 C 0.48127 0.4962 0.57901 0.0
C339 C 0.51398 0.44332 0.77385 0.0
C340 C 0.42923 0.55567 0.946 0.0
C341 C 0.39896 0.58276 0.07116 0.0
C342 C 0.40659 0.55487 0.02107 0.0
C343 C 0.4427 0.58474 0.91716 0.0
C344 C 0.43495 0.61251 0.96634 0.0
C345 C 0.41386 0.61148 0.04543 0.0
C346 C 0.44064 0.52618 0.90212 0.0
O347 O 0.52964 0.53088 0.89106 0.0
O348 O 0.5683 0.4993 0.82508 0.0
O349 O 0.55134 0.55422 0.69398 0.0
O350 O 0.4983 0.55942 0.72613 0.0
C351 C 0.55766 0.51703 0.89626 0.0
O352 O 0.59548 0.47484 0.64187 0.0
O353 O 0.58252 0.51393 0.54734 0.0
O354 O 0.51113 0.50327 0.5617 0.0
O355 O 0.47081 0.49281 0.66902 0.0
O356 O 0.50273 0.46467 0.83476 0.0
O357 O 0.52827 0.45247 0.6928 0.0
C358 C 0.52571 0.57187 0.7004 0.0
O359 O 0.44143 0.52623 0.80741 0.0
O360 O 0.4668 0.51486 0.9387 0.0
C361 C 0.5995 0.46618 0.47403 0.0
C362 C 0.5714 0.41605 0.37497 0.0
C363 C 0.59609 0.40979 0.44037 0.0
C364 C 0.61048 0.43494 0.48903 0.0
C365 C 0.57917 0.47245 0.395 0.0
C366 C 0.56496 0.44736 0.34607 0.0
C367 C 0.59981 0.48832 0.5569 0.0
H368 H 0.38297 0.58165 0.13306 0.0
H369 H 0.39595 0.53254 0.0434 0.0
H370 H 0.46022 0.58577 0.85935 0.0
H371 H 0.44692 0.63447 0.9467 0.0
H372 H 0.60166 0.38556 0.4616 0.0
H373 H 0.62668 0.42956 0.54799 0.0
H374 H 0.57088 0.49634 0.37942 0.0
H375 H 0.54642 0.45239 0.29369 0.0
Tb376 Tb 1.008 0.48578 0.82182 0.0
Eu377 Eu 0.01852 0.54738 0.68089 0.0
C378 C 0.02398 0.4757 0.59834 0.0
C379 C 0.07791 0.51333 0.78644 0.0
C380 C 0.97272 0.42776 0.99512 0.0
C381 C 0.94401 0.38547 0.07848 0.0
C382 C 0.97008 0.3957 0.02317 0.0
C383 C 0.94938 0.44961 0.02364 0.0
C384 C 0.92349 0.43945 0.07891 0.0
C385 C 0.92051 0.40734 0.1058 0.0
C386 C 0.99885 0.43808 0.9319 0.0
O387 O 0.99041 0.52649 0.90761 0.0
O388 O 0.0199 0.56555 0.8345 0.0
O389 O 0.96579 0.54529 0.70794 0.0
O390 O 0.96242 0.49232 0.74701 0.0
C391 C 1.00326 0.55512 0.90879 0.0
O392 O 0.03747 0.59497 0.65665 0.0
O393 O 1.00772 0.57365 0.54727 0.0
O394 O 0.01533 0.50513 0.57955 0.0
O395 O 0.02934 0.4662 0.68851 0.0
O396 O 0.05744 0.49956 0.84589 0.0
O397 O 0.06845 0.52851 0.70729 0.0
C398 C 0.94926 0.51899 0.71634 0.0
O399 O 0.99251 0.43858 0.83926 0.0
O400 O 0.01362 0.46378 0.95847 0.0
C401 C 0.05284 0.60235 0.49533 0.0
C402 C 0.11323 0.60141 0.41241 0.0
C403 C 0.10378 0.62769 0.4678 0.0
C404 C 0.07353 0.62807 0.50951 0.0
C405 C 0.06114 0.57835 0.42916 0.0
C406 C 0.09114 0.57806 0.3873 0.0
C407 C 0.02761 0.59646 0.56692 0.0
H408 H 0.94191 0.3606 0.09871 0.0
H409 H 0.98788 0.37857 1.00099 0.0
H410 H 0.95093 0.47439 1.00181 0.0
H411 H 0.9054 0.45653 0.09932 0.0
H412 H 0.12077 0.64586 0.48741 0.0
H413 H 0.06766 0.64646 0.56141 0.0
H414 H 0.04586 0.55805 0.41744 0.0
H415 H 0.09823 0.55773 0.34409 0.0
C416 C 0.08483 0.02673 0.34074 0.0
C417 C 0.11566 0.03795 0.36434 0.0
C418 C 0.09779 0.04703 0.53321 0.0
C419 C 0.06803 0.03278 0.51275 0.0
N420 N 0.03506 1.00433 0.39926 0.0
N421 N 0.15326 0.05181 0.48929 0.0
C422 C 0.06196 0.02145 0.41686 0.0
C423 C 0.1226 0.04612 0.46242 0.0
N424 N 0.07712 0.02182 0.2454 0.0
N425 N 0.10208 0.06264 0.61925 0.0
H426 H 0.17234 0.05046 0.44086 0.0
H427 H 0.16016 0.05456 0.56156 0.0
H428 H 0.08424 0.06483 0.67168 0.0
H429 H 0.12208 0.07631 0.63399 0.0
H430 H 0.05418 0.01685 0.2221 0.0
H431 H 0.09325 0.0252 0.18844 0.0
H432 H 0.03091 0.99248 0.33411 0.0
H433 H 0.01801 0.99961 0.45264 0.0
C434 C 0.47758 0.08472 0.34884 0.0
C435 C 0.4908 0.11574 0.3574 0.0
C436 C 0.51379 0.09965 0.51519 0.0
C437 C 0.49642 0.07062 0.51376 0.0
N438 N 0.45815 0.03746 0.43244 0.0
N439 N 0.51747 0.1542 0.45833 0.0
C440 C 0.47749 0.06355 0.43101 0.0
C441 C 0.50795 0.12356 0.44302 0.0
N442 N 0.46566 0.07523 0.2613 0.0
N443 N 0.53696 0.10402 0.58314 0.0
H444 H 0.51333 0.17265 0.40892 0.0
H445 H 0.52688 0.16188 0.52421 0.0
H446 H 0.54293 0.08675 0.63472 0.0
H447 H 0.55259 0.12321 0.58133 0.0
H448 H 0.45861 0.05195 0.24737 0.0
H449 H 0.46585 0.08988 0.19962 0.0
H450 H 0.44148 0.03282 0.37855 0.0
H451 H 0.45654 0.022 0.49194 0.0
C452 C 0.43815 0.50466 0.33148 0.0
C453 C 0.41151 0.4844 0.34591 0.0
C454 C 0.43515 0.46694 0.50138 0.0
C455 C 0.45852 0.49122 0.49536 0.0
N456 N 0.47633 0.53866 0.41031 0.0
N457 N 0.38118 0.45311 0.4624 0.0
C458 C 0.45854 0.51156 0.41164 0.0
C459 C 0.40902 0.46741 0.43591 0.0
N460 N 0.44463 0.51678 0.24107 0.0
N461 N 0.43825 0.44262 0.56708 0.0
H462 H 0.36047 0.45511 0.42164 0.0
H463 H 0.37775 0.44272 0.53085 0.0
H464 H 0.45826 0.43985 0.61073 0.0
H465 H 0.42293 0.42314 0.56873 0.0
H466 H 0.46521 0.5296 0.22535 0.0
H467 H 0.43133 0.51093 0.17987 0.0
H468 H 0.47502 0.5555 0.35436 0.0
H469 H 0.48912 0.54628 0.4704 0.0
C470 C 0.04496 0.43848 0.34957 0.0
C471 C 0.03245 0.40719 0.36024 0.0
C472 C 1.01028 0.42273 0.51988 0.0
C473 C 0.02678 0.45228 0.51558 0.0
N474 N 0.06407 0.48603 0.42994 0.0
N475 N 1.00754 0.36809 0.46505 0.0
C476 C 0.04513 0.45964 0.43101 0.0
C477 C 0.01619 0.39896 0.4479 0.0
N478 N 0.0561 0.44827 0.2607 0.0
N479 N 0.98779 0.41772 0.5903 0.0
H480 H 0.01169 0.34979 0.41568 0.0
H481 H 0.99888 0.36014 0.53212 0.0
H482 H 0.98178 0.43477 0.64201 0.0
H483 H 0.9727 0.3981 0.59072 0.0
H484 H 0.06253 0.47171 0.24542 0.0
H485 H 0.05584 0.43364 0.19951 0.0
H486 H 0.08033 0.49094 0.37451 0.0
H487 H 0.0659 0.50143 0.48893 0.0
C488 C 0.88681 0.0253 0.03973 0.0
C489 C 0.89201 1.00998 0.13061 0.0
C490 C 0.94217 0.98788 0.06636 0.0
C491 C 0.9386 1.00632 0.9798 0.0
N492 N 0.91028 0.04782 0.89389 0.0
N493 N 0.92571 0.97842 0.23433 0.0
C494 C 0.91154 0.02628 0.96885 0.0
C495 C 0.91997 0.9916 0.1449 0.0
N496 N 0.85791 0.03869 0.02056 0.0
N497 N 0.96621 0.96613 0.07229 0.0
H498 H 0.90952 0.97974 0.29187 0.0
H499 H 0.94722 0.96799 0.25351 0.0
H500 H 0.98263 0.96273 0.01623 0.0
H501 H 0.96846 0.94973 0.129 0.0
H502 H 0.8515 0.04722 0.95197 0.0
H503 H 0.8392 0.03838 0.07056 0.0
H504 H 0.89285 0.0653 0.8882 0.0
H505 H 0.92845 0.0506 0.84293 0.0
C506 C 0.51742 0.93671 0.17922 0.0
C507 C 0.51977 0.90366 0.15869 0.0
C508 C 0.53133 0.91727 0.98743 0.0
C509 C 0.5228 0.94954 1.00431 0.0
N510 N 0.50452 0.98936 0.11788 0.0
N511 N 0.5254 0.86231 0.03828 0.0
C512 C 0.51541 0.95926 0.10097 0.0
C513 C 0.52612 0.89387 0.06156 0.0
N514 N 0.51744 0.94656 0.27384 0.0
N515 N 0.54508 0.90902 0.90084 0.0
H516 H 0.52123 0.84433 0.08932 0.0
H517 H 0.52621 0.85417 0.96674 0.0
H518 H 0.55037 0.92569 0.8465 0.0
H519 H 0.55445 0.8865 0.88758 0.0
H520 H 0.51877 0.97041 0.29374 0.0
H521 H 0.51946 0.93067 0.33224 0.0
H522 H 0.49541 0.99657 0.18491 0.0
H523 H 0.50203 1.00641 0.06311 0.0
C524 C 0.60874 0.49199 0.1119 0.0
C525 C 0.62398 0.52097 0.1366 0.0
C526 C 0.59358 0.54869 1.00829 0.0
C527 C 0.57774 0.5198 0.98574 0.0
N528 N 0.5649 0.46586 0.03122 0.0
N529 N 0.62698 0.57792 0.12124 0.0
C530 C 0.58375 0.49205 0.04228 0.0
C531 C 0.61502 0.54969 0.08899 0.0
N532 N 0.61909 0.464 0.15184 0.0
N533 N 0.58947 0.57469 0.94943 0.0
H534 H 0.64303 0.57923 0.17877 0.0
H535 H 0.61919 0.60004 0.09658 0.0
H536 H 0.57415 0.5747 0.89001 0.0
H537 H 0.60276 0.59546 0.95502 0.0
H538 H 0.61265 0.44188 0.12467 0.0
H539 H 0.63608 0.46279 0.20677 0.0
H540 H 0.5658 0.4461 0.07731 0.0
H541 H 0.5462 0.46514 0.98178 0.0
C542 C 1.00558 0.59177 0.16577 0.0
C543 C 1.00231 0.62458 0.14221 0.0
C544 C 0.98934 0.60945 0.97386 0.0
C545 C 0.99868 0.57747 0.99314 0.0
N546 N 0.01931 0.53907 0.10844 0.0
N547 N 0.99387 0.66493 0.01917 0.0
C548 C 1.00736 0.5687 0.08974 0.0
C549 C 0.99461 0.6335 0.0451 0.0
N550 N 1.00646 0.58257 0.26124 0.0
N551 N 0.97476 0.61675 0.88784 0.0
H552 H 0.99763 0.6833 0.06851 0.0
H553 H 0.99207 0.6727 0.94716 0.0
H554 H 0.96954 0.59959 0.83566 0.0
H555 H 0.96477 0.63894 0.87311 0.0
H556 H 1.00553 0.55882 0.28334 0.0
H557 H 1.00463 0.59883 0.3182 0.0
H558 H 0.02935 0.5327 0.17503 0.0
H559 H 0.02175 0.52167 0.05523 0.0
C560 C 0.02156 0.158 0.37576 0.0
C561 C 0.01169 0.18261 0.31202 0.0
C562 C 0.96073 0.15595 0.28643 0.0
C563 C 0.97119 0.1308 0.34676 0.0
N564 N 0.0136 0.10404 0.43283 0.0
N565 N 0.97517 0.20175 0.18926 0.0
C566 C 1.00235 0.13053 0.38602 0.0
C567 C 0.98219 0.18066 0.2622 0.0
N568 N 0.04847 0.16156 0.42987 0.0
N569 N 0.93011 0.1565 0.25392 0.0
H570 H 0.99027 0.22017 0.16868 0.0
H571 H 0.95575 0.19936 0.14327 0.0
H572 H 0.91423 0.13784 0.26612 0.0
H573 H 0.91986 0.1762 0.22004 0.0
H574 H 0.05499 0.14603 0.48574 0.0
H575 H 0.063 0.18159 0.42469 0.0
H576 H 0.03723 0.10119 0.45295 0.0
H577 H 0.99994 0.08379 0.44565 0.0
C578 C 0.32889 0.94405 0.33053 0.0
C579 C 0.31985 0.96901 0.39405 0.0
C580 C 0.35859 0.95131 0.51408 0.0
C581 C 0.37175 0.93085 0.44252 0.0
N582 N 0.36902 0.90494 0.28739 0.0
N583 N 0.32365 0.99591 0.54783 0.0
C584 C 0.35628 0.92581 0.35281 0.0
C585 C 0.33344 0.97199 0.48754 0.0
N586 N 0.31156 0.93847 0.2484 0.0
N587 N 0.37092 0.95161 0.60605 0.0
H588 H 0.30454 1.01075 0.53135 0.0
H589 H 0.33505 1.00203 0.61211 0.0
H590 H 0.38986 0.93727 0.62731 0.0
H591 H 0.36089 0.96406 0.66367 0.0
H592 H 0.31546 0.91935 0.20203 0.0
H593 H 0.29148 0.95176 0.23047 0.0
H594 H 0.36129 0.90261 0.21589 0.0
H595 H 0.3883 0.89037 0.30466 0.0
C596 C 0.52275 0.3574 0.23123 0.0
C597 C 0.50327 0.3443 0.30604 0.0
C598 C 0.52573 0.38139 0.42317 0.0
C599 C 0.54836 0.39093 0.35153 0.0
N600 N 0.57154 0.385 0.19218 0.0
N601 N 0.48722 0.34184 0.47457 0.0
C602 C 0.54764 0.37825 0.2566 0.0
C603 C 0.50496 0.3558 0.40254 0.0
N604 N 0.51738 0.35007 0.13592 0.0
N605 N 0.52347 0.39737 0.5095 0.0
H606 H 0.47049 0.32416 0.46063 0.0
H607 H 0.49032 0.34651 0.54838 0.0
H608 H 0.53817 0.41637 0.52744 0.0
H609 H 0.50534 0.39359 0.56002 0.0
H610 H 0.52862 0.3616 0.07792 0.0
H611 H 0.49942 0.33475 0.11421 0.0
H612 H 0.574 0.37394 0.12484 0.0
H613 H 0.59072 0.39943 0.21022 0.0
C614 C 0.19141 0.5604 0.45128 0.0
C615 C 0.20083 0.55802 0.35271 0.0
C616 C 0.16021 0.59654 0.30448 0.0
C617 C 0.14699 0.59371 0.39881 0.0
N618 N 0.14924 0.57337 0.56401 0.0
N619 N 0.19707 0.57527 0.18517 0.0
C620 C 0.16285 0.57652 0.47375 0.0
C621 C 0.18643 0.57705 0.27928 0.0
N622 N 0.20939 0.5467 0.52279 0.0
N623 N 0.14711 0.61744 0.23942 0.0
H624 H 0.21732 0.56249 0.16551 0.0
H625 H 0.18543 0.58546 0.12601 0.0
H626 H 0.12782 0.63186 0.25774 0.0
H627 H 0.15664 0.62241 0.17097 0.0
H628 H 0.20568 0.5507 0.59678 0.0
H629 H 0.22982 0.53354 0.50814 0.0
H630 H 0.15735 0.55757 0.61708 0.0
H631 H 0.12864 0.58528 0.58478 0.0
C632 C 0.13232 0.84159 0.19507 0.0
C633 C 0.11168 0.83719 0.27569 0.0
C634 C 0.09968 0.89417 0.27539 0.0
C635 C 0.11454 0.89692 0.18325 0.0
N636 N 0.14536 0.87373 0.05326 0.0
N637 N 0.07335 0.85899 0.38924 0.0
C638 C 0.1316 0.87095 0.14324 0.0
C639 C 0.09522 0.86352 0.31661 0.0
N640 N 0.15218 0.8175 0.16784 0.0
N641 N 0.08923 0.92089 0.32192 0.0
H642 H 0.06851 0.83686 0.4203 0.0
H643 H 0.05807 0.8768 0.41341 0.0
H644 H 0.09225 0.94366 0.29241 0.0
H645 H 0.08061 0.92073 0.3932 0.0
H646 H 0.16972 0.82003 0.11471 0.0
H647 H 0.15298 0.79579 0.20516 0.0
H648 H 0.15481 0.85455 0.01517 0.0
H649 H 0.14582 0.89505 0.01402 0.0
C650 C 0.68915 0.13462 0.14862 0.0
C651 C 0.6899 0.12447 0.24716 0.0
C652 C 0.63186 0.12259 0.2529 0.0
C653 C 0.63149 0.12756 0.15066 0.0
N654 N 0.65797 0.14231 1.00149 0.0
N655 N 0.66271 0.11873 0.40133 0.0
C656 C 0.6596 0.13562 0.09899 0.0
C657 C 0.66143 0.12199 0.3023 0.0
N658 N 0.71692 0.14298 0.10355 0.0
N659 N 0.60407 0.11606 0.30087 0.0
H660 H 0.68383 0.1165 0.4397 0.0
H661 H 0.64302 0.12053 0.44691 0.0
H662 H 0.582 0.11752 0.26701 0.0
H663 H 0.60265 0.10819 0.37277 0.0
H664 H 0.71859 0.15195 0.03298 0.0
H665 H 0.73856 0.1429 0.14034 0.0
H666 H 0.67756 0.1456 0.95632 0.0
H667 H 0.63645 0.14421 0.9646 0.0
C668 C 0.4438 0.67422 0.21424 0.0
C669 C 0.4192 0.69723 0.20896 0.0
C670 C 0.38848 0.66231 0.10272 0.0
C671 C 0.41277 0.63912 0.11109 0.0
N672 N 0.45924 0.61929 0.19341 0.0
N673 N 0.36619 0.71199 0.16213 0.0
C674 C 0.43903 0.64393 0.17303 0.0
C675 C 0.39077 0.69083 0.15786 0.0
N676 N 0.47234 0.6817 0.25512 0.0
N677 N 0.364 0.65748 0.03958 0.0
H678 H 0.36767 0.73345 0.19973 0.0
H679 H 0.34375 0.70747 0.13412 0.0
H680 H 0.36133 0.63637 1.00079 0.0
H681 H 0.34729 0.6748 0.0219 0.0
H682 H 0.49256 0.66773 0.24643 0.0
H683 H 0.47667 0.70293 0.29166 0.0
H684 H 0.47696 0.62052 0.24586 0.0
H685 H 0.45646 0.59653 0.16473 0.0
C686 C 0.83393 0.39198 0.15311 0.0
C687 C 0.83247 0.40343 0.24961 0.0
C688 C 0.89034 0.4019 0.2614 0.0
C689 C 0.89165 0.39731 0.15932 0.0
N690 N 0.86627 0.38371 1.00844 0.0
N691 N 0.85759 0.41419 0.40279 0.0
C692 C 0.86389 0.39014 0.10573 0.0
C693 C 0.86026 0.40598 0.30685 0.0
N694 N 0.80646 0.38389 0.10699 0.0
N695 N 0.91795 0.40343 0.31302 0.0
H696 H 0.83565 0.41636 0.43761 0.0
H697 H 0.87667 0.41908 0.44804 0.0
H698 H 0.94011 0.40061 0.28002 0.0
H699 H 0.91918 0.40551 0.38836 0.0
H700 H 0.80552 0.37363 0.03828 0.0
H701 H 0.78442 0.38527 0.14167 0.0
H702 H 0.84695 0.38159 0.96204 0.0
H703 H 0.88807 0.38114 0.97312 0.0
C704 C 1.00969 0.17223 0.78056 0.0
C705 C 0.01669 0.17932 0.87955 0.0
C706 C 0.01312 0.12166 0.91788 0.0
C707 C 1.00889 0.11454 0.81739 0.0
N708 N 1.00113 0.13385 0.65324 0.0
N709 N 0.02831 0.15994 0.04121 0.0
C710 C 1.00643 0.14005 0.74931 0.0
C711 C 0.01901 0.15374 0.94794 0.0
N712 N 1.00626 0.19585 0.71309 0.0
N713 N 1.01002 0.09783 0.98557 0.0
H714 H 0.03221 0.18288 0.06659 0.0
H715 H 0.03434 0.14241 0.09174 0.0
H716 H 1.00532 0.07431 0.96691 0.0
H717 H 1.00907 0.10168 0.06039 0.0
H718 H 1.00786 0.22006 0.72897 0.0
H719 H 1.00786 0.22006 0.72897 0.0
H720 H 0.99909 0.15186 0.60089 0.0
H721 H 0.99879 0.11083 0.62634 0.0
C722 C 0.35686 0.04084 0.79122 0.0
C723 C 0.34286 0.01813 0.85585 0.0
C724 C 0.39287 0.98759 0.84943 0.0
C725 C 0.40862 0.01376 0.80454 0.0
N726 N 0.40485 0.06541 0.728 0.0
N727 N 0.3425 0.96092 0.86455 0.0
C728 C 0.39035 0.04035 0.77357 0.0
C729 C 0.35928 0.98862 0.86371 0.0
N730 N 0.33766 0.05946 0.73499 0.0
N731 N 0.40979 0.96163 0.87923 0.0
H732 H 0.31828 0.96071 0.849 0.0
H733 H 0.35316 0.93854 0.86224 0.0
H734 H 0.4342 0.9595 0.86827 0.0
H735 H 0.39973 0.94338 0.92091 0.0
H736 H 0.34609 0.0743 0.67958 0.0
H737 H 0.31308 0.0564 0.73492 0.0
H738 H 0.39328 0.08685 0.71362 0.0
H739 H 0.42893 0.06543 0.71028 0.0
C740 C 0.47861 0.36704 0.88527 0.0
C741 C 0.50172 0.34344 0.863 0.0
C742 C 0.53458 0.38562 0.78648 0.0
C743 C 0.50962 0.4083 0.7985 0.0
N744 N 0.45403 0.4164 0.83485 0.0
N745 N 0.54912 0.32977 0.77392 0.0
C746 C 0.48053 0.39775 0.84072 0.0
C747 C 0.52894 0.3526 0.80793 0.0
N748 N 0.45539 0.36082 0.9525 0.0
N749 N 0.56425 0.39554 0.76008 0.0
H750 H 0.54561 0.30556 0.78722 0.0
H751 H 0.56746 0.33465 0.72493 0.0
H752 H 0.57013 0.41936 0.74912 0.0
H753 H 0.58388 0.38047 0.7594 0.0
H754 H 0.43999 0.3783 0.97829 0.0
H755 H 0.45377 0.33935 0.99066 0.0
H756 H 0.43166 0.40852 0.85681 0.0
H757 H 0.45354 0.43801 0.79721 0.0
C758 C 0.16881 0.49955 0.78402 0.0
C759 C 0.1763 0.5051 0.88362 0.0
C760 C 0.12111 0.52291 0.91049 0.0
C761 C 0.1125 0.51299 0.81519 0.0
N762 N 0.12805 0.48843 0.66391 0.0
N763 N 0.15735 0.51697 0.04589 0.0
C764 C 0.1364 0.50063 0.75223 0.0
C765 C 0.15186 0.51558 0.94787 0.0
N766 N 0.19279 0.49375 0.71926 0.0
N767 N 0.10015 0.5403 0.96479 0.0
H768 H 0.17902 0.511 0.07736 0.0
H769 H 0.13952 0.52106 0.09713 0.0
H770 H 0.07789 0.54711 0.93909 0.0
H771 H 0.10613 0.55092 0.03061 0.0
H772 H 0.18944 0.49234 0.6443 0.0
H773 H 0.21659 0.49323 0.73973 0.0
H774 H 0.14367 0.47599 0.61914 0.0
H775 H 0.1048 0.48839 0.6385 0.0
C776 C 0.03494 0.86855 0.63584 0.0
C777 C 1.00589 0.85256 0.61602 0.0
C778 C 0.97641 0.89917 0.67745 0.0
C779 C 1.00531 0.91627 0.68784 0.0
N780 N 0.06195 0.91864 0.66513 0.0
N781 N 0.94883 0.85336 0.61098 0.0
C782 C 0.03457 0.90121 0.66475 0.0
C783 C 0.97658 0.86812 0.635 0.0
N784 N 0.06301 0.85244 0.62749 0.0
N785 N 0.94885 0.91231 0.71134 0.0
H786 H 0.94797 0.83019 0.58424 0.0
H787 H 0.92684 0.86461 0.61175 0.0
H788 H 0.94797 0.93468 0.7438 0.0
H789 H 0.92739 0.90014 0.71535 0.0
H790 H 0.08459 0.86135 0.65176 0.0
H791 H 0.06459 0.82916 0.60214 0.0
H792 H 0.08342 0.91045 0.63706 0.0
H793 H 0.06283 0.94235 0.68688 0.0
C794 C 0.662 0.98902 0.69855 0.0
C795 C 0.67015 1.00762 0.61521 0.0
C796 C 0.6139 0.02248 0.59614 0.0
C797 C 0.60629 1.00653 0.6849 0.0
N798 N 0.62355 0.97743 0.82672 0.0
N799 N 0.6545 0.04599 0.49294 0.0
C800 C 0.63048 0.99043 0.73761 0.0
C801 C 0.64623 0.02534 0.5661 0.0
N802 N 0.68424 0.96929 0.7387 0.0
N803 N 0.59009 0.03403 0.53854 0.0
H804 H 0.67781 0.04946 0.46951 0.0
H805 H 0.6386 0.06168 0.46043 0.0
H806 H 0.56623 0.03262 0.55788 0.0
H807 H 0.59358 0.04243 0.46778 0.0
H808 H 0.6792 0.95267 0.79312 0.0
H809 H 0.70737 0.96765 0.71178 0.0
H810 H 0.64064 0.96839 0.87392 0.0
H811 H 0.60082 0.97788 0.85708 0.0
C812 C 0.51962 0.6464 0.54127 0.0
C813 C 0.52233 0.67155 0.60991 0.0
C814 C 0.52642 0.63094 0.74059 0.0
C815 C 0.52699 0.60628 0.67025 0.0
N816 N 0.53291 0.59196 0.50123 0.0
N817 N 0.53655 0.68671 0.77344 0.0
C818 C 0.52668 0.61452 0.5699 0.0
C819 C 0.52817 0.66348 0.70934 0.0
N820 N 0.50779 0.65228 0.4506 0.0
N821 N 0.52382 0.62345 0.83724 0.0
H822 H 0.53965 0.71039 0.75227 0.0
H823 H 0.54374 0.68191 0.84457 0.0
H824 H 0.52305 0.60002 0.8627 0.0
H825 H 0.5199 0.64043 0.89098 0.0
H826 H 0.50246 0.63423 0.4016 0.0
H827 H 0.49952 0.67455 0.42923 0.0
H828 H 0.53578 0.59744 0.42751 0.0
H829 H 0.53829 0.56842 0.51901 0.0
C830 C 0.87559 0.50333 0.55952 0.0
C831 C 0.85168 0.5198 0.61265 0.0
C832 C 0.89192 0.53685 0.73205 0.0
C833 C 0.91546 0.51889 0.68196 0.0
N834 N 0.92963 0.48337 0.55123 0.0
N835 N 0.83603 0.55016 0.75293 0.0
C836 C 0.90721 0.50166 0.59663 0.0
C837 C 0.85963 0.53607 0.69981 0.0
N838 N 0.86813 0.48971 0.47219 0.0
N839 N 0.90054 0.55481 0.81041 0.0
H840 H 0.81258 0.55135 0.7292 0.0
H841 H 0.83909 0.55931 0.82251 0.0
H842 H 0.92329 0.55433 0.83994 0.0
H843 H 0.88577 0.57135 0.84382 0.0
H844 H 0.88486 0.48104 0.42311 0.0
H845 H 0.84509 0.48864 0.44508 0.0
H846 H 0.92459 0.46681 0.49741 0.0
H847 H 0.95349 0.48348 0.57043 0.0
loop_
_geom_bond_atom_site_label_1
_geom_bond_atom_site_label_2
_geom_bond_distance
_geom_bond_site_symmetry_2
_ccdc_geom_bond_type
P0 O11 1.490 . S
P0 C14 1.812 . S
P0 C20 1.803 . S
P0 C26 1.819 . S
H1 C15 0.941 . S
H2 C16 0.939 . S
H3 C18 0.940 . S
H4 C19 0.940 . S
H5 C21 0.939 . S
H6 C22 0.942 . S
H7 C24 0.940 . S
H8 C25 0.939 . S
H9 C27 0.941 . S
H10 C31 0.939 . S
O11 P0 1.490 . S
H12 C28 0.939 . S
H13 C30 0.940 . S
C14 P0 1.812 . S
C14 C15 1.389 . S
C14 C19 1.391 . S
C15 H1 0.941 . S
C15 C14 1.389 . S
C15 C16 1.397 . S
C16 H2 0.939 . S
C16 C15 1.397 . S
C16 C17 1.378 . S
C17 C16 1.378 . S
C17 C18 1.378 . S
C18 H3 0.940 . S
C18 C17 1.378 . S
C18 C19 1.396 . S
C19 H4 0.940 . S
C19 C14 1.391 . S
C19 C18 1.396 . S
C20 P0 1.803 . S
C20 C21 1.378 . S
C20 C25 1.400 . S
C21 H5 0.939 . S
C21 C20 1.378 . S
C21 C22 1.361 . S
C22 H6 0.942 . S
C22 C21 1.361 . S
C22 C23 1.369 . S
C23 C22 1.369 . S
C23 C24 1.404 . S
C24 H7 0.940 . S
C24 C23 1.404 . S
C24 C25 1.389 . S
C25 H8 0.939 . S
C25 C20 1.400 . S
C25 C24 1.389 . S
C26 P0 1.819 . S
C26 C27 1.391 . S
C26 C31 1.391 . S
C27 H9 0.941 . S
C27 C26 1.391 . S
C27 C28 1.396 . S
C28 H12 0.939 . S
C28 C27 1.396 . S
C28 C29 1.397 . S
C29 C28 1.397 . S
C29 C30 1.385 . S
C30 H13 0.940 . S
C30 C29 1.385 . S
C30 C31 1.388 . S
C31 H10 0.939 . S
C31 C26 1.391 . S
C31 C30 1.388 . S
P32 O43 1.490 . S
P32 C46 1.812 . S
P32 C52 1.803 . S
P32 C58 1.819 . S
H33 C47 0.941 . S
H34 C48 0.939 . S
H35 C50 0.940 . S
H36 C51 0.950 . S
H37 C53 0.939 . S
H38 C54 0.942 . S
H39 C56 0.940 . S
H40 C57 0.959 . S
H41 C59 0.941 . S
H42 C63 0.929 1_655 S
O43 P32 1.490 . S
H44 C60 0.939 . S
H45 C62 0.940 . S
C46 P32 1.812 . S
C46 C47 1.389 . S
C46 C51 1.375 1_455 S
C47 H33 0.941 . S
C47 C46 1.389 . S
C47 C48 1.397 . S
C48 H34 0.939 . S
C48 C47 1.397 . S
C48 C49 1.378 . S
C49 C48 1.378 . S
C49 C50 1.378 1_455 S
C50 H35 0.940 . S
C50 C49 1.378 1_655 S
C50 C51 1.403 . S
C51 H36 0.950 . S
C51 C46 1.375 1_655 S
C51 C50 1.403 . S
C52 P32 1.803 . S
C52 C53 1.378 . S
C52 C57 1.368 1_455 S
C53 H37 0.939 . S
C53 C52 1.378 . S
C53 C54 1.361 . S
C54 H38 0.942 . S
C54 C53 1.361 . S
C54 C55 1.369 . S
C55 C54 1.369 . S
C55 C56 1.404 1_455 S
C56 H39 0.940 . S
C56 C55 1.404 1_655 S
C56 C57 1.402 . S
C57 H40 0.959 . S
C57 C52 1.368 1_655 S
C57 C56 1.402 . S
C58 P32 1.819 . S
C58 C59 1.391 . S
C58 C63 1.391 . S
C59 H41 0.941 . S
C59 C58 1.391 . S
C59 C60 1.396 . S
C60 H44 0.939 . S
C60 C59 1.396 . S
C60 C61 1.397 . S
C61 C60 1.397 . S
C61 C62 1.385 1_455 S
C62 H45 0.940 . S
C62 C61 1.385 1_655 S
C62 C63 1.388 1_655 S
C63 H42 0.929 1_455 S
C63 C58 1.391 . S
C63 C62 1.388 1_455 S
P64 O75 1.490 . S
P64 C78 1.812 . S
P64 C84 1.803 . S
P64 C90 1.819 . S
H65 C79 0.941 . S
H66 C80 0.939 . S
H67 C82 0.940 . S
H68 C83 0.950 . S
H69 C85 0.939 . S
H70 C86 0.942 . S
H71 C88 0.940 . S
H72 C89 0.959 . S
H73 C91 0.941 . S
H74 C95 0.929 1_565 S
O75 P64 1.490 . S
H76 C92 0.939 . S
H77 C94 0.940 . S
C78 P64 1.812 . S
C78 C79 1.389 . S
C78 C83 1.375 1_545 S
C79 H65 0.941 . S
C79 C78 1.389 . S
C79 C80 1.397 . S
C80 H66 0.939 . S
C80 C79 1.397 . S
C80 C81 1.378 . S
C81 C80 1.378 . S
C81 C82 1.378 1_545 S
C82 H67 0.940 . S
C82 C81 1.378 1_565 S
C82 C83 1.402 . S
C83 H68 0.950 . S
C83 C78 1.375 1_565 S
C83 C82 1.402 . S
C84 P64 1.803 . S
C84 C85 1.378 . S
C84 C89 1.368 1_545 S
C85 H69 0.939 . S
C85 C84 1.378 . S
C85 C86 1.361 . S
C86 H70 0.942 . S
C86 C85 1.361 . S
C86 C87 1.369 . S
C87 C86 1.369 . S
C87 C88 1.404 1_545 S
C88 H71 0.940 . S
C88 C87 1.404 1_565 S
C88 C89 1.402 . S
C89 H72 0.959 . S
C89 C84 1.368 1_565 S
C89 C88 1.402 . S
C90 P64 1.819 . S
C90 C91 1.391 . S
C90 C95 1.391 . S
C91 H73 0.941 . S
C91 C90 1.391 . S
C91 C92 1.396 . S
C92 H76 0.939 . S
C92 C91 1.396 . S
C92 C93 1.397 . S
C93 C92 1.397 . S
C93 C94 1.385 1_545 S
C94 H77 0.940 . S
C94 C93 1.385 1_565 S
C94 C95 1.388 1_565 S
C95 H74 0.929 1_545 S
C95 C90 1.391 . S
C95 C94 1.388 1_545 S
P96 O107 1.490 . S
P96 C110 1.812 . S
P96 C116 1.803 . S
P96 C122 1.819 . S
H97 C111 0.941 . S
H98 C112 0.939 . S
H99 C114 0.940 . S
H100 C115 0.940 . S
H101 C117 0.939 . S
H102 C118 0.942 . S
H103 C120 0.940 . S
H104 C121 0.939 . S
H105 C123 0.941 . S
H106 C127 0.939 . S
O107 P96 1.490 . S
H108 C124 0.939 . S
H109 C126 0.940 . S
C110 P96 1.812 . S
C110 C111 1.389 . S
C110 C115 1.391 . S
C111 H97 0.941 . S
C111 C110 1.389 . S
C111 C112 1.397 . S
C112 H98 0.939 . S
C112 C111 1.397 . S
C112 C113 1.378 . S
C113 C112 1.378 . S
C113 C114 1.378 . S
C114 H99 0.940 . S
C114 C113 1.378 . S
C114 C115 1.396 . S
C115 H100 0.940 . S
C115 C110 1.391 . S
C115 C114 1.396 . S
C116 P96 1.803 . S
C116 C117 1.378 . S
C116 C121 1.400 . S
C117 H101 0.939 . S
C117 C116 1.378 . S
C117 C118 1.361 . S
C118 H102 0.942 . S
C118 C117 1.361 . S
C118 C119 1.369 . S
C119 C118 1.369 . S
C119 C120 1.404 . S
C120 H103 0.940 . S
C120 C119 1.404 . S
C120 C121 1.389 . S
C121 H104 0.939 . S
C121 C116 1.400 . S
C121 C120 1.389 . S
C122 P96 1.819 . S
C122 C123 1.391 . S
C122 C127 1.391 . S
C123 H105 0.941 . S
C123 C122 1.391 . S
C123 C124 1.396 . S
C124 H108 0.939 . S
C124 C123 1.396 . S
C124 C125 1.397 . S
C125 C124 1.397 . S
C125 C126 1.385 . S
C126 H109 0.940 . S
C126 C125 1.385 . S
C126 C127 1.388 . S
C127 H106 0.939 . S
C127 C122 1.391 . S
C127 C126 1.388 . S
P128 O139 1.490 . S
P128 C142 1.812 1_554 S
P128 C148 1.803 . S
P128 C154 1.819 . S
H129 C143 0.941 . S
H130 C144 0.939 . S
H131 C146 0.940 . S
H132 C147 0.940 . S
H133 C149 0.939 . S
H134 C150 0.942 . S
H135 C152 0.940 . S
H136 C153 0.939 . S
H137 C155 0.941 . S
H138 C159 0.939 . S
O139 P128 1.490 . S
H140 C156 0.939 . S
H141 C158 0.940 . S
C142 P128 1.812 1_556 S
C142 C143 1.389 . S
C142 C147 1.391 . S
C143 H129 0.941 . S
C143 C142 1.389 . S
C143 C144 1.397 . S
C144 H130 0.939 . S
C144 C143 1.397 . S
C144 C145 1.378 . S
C145 C144 1.378 . S
C145 C146 1.378 . S
C146 H131 0.940 . S
C146 C145 1.378 . S
C146 C147 1.396 . S
C147 H132 0.940 . S
C147 C142 1.391 . S
C147 C146 1.396 . S
C148 P128 1.803 . S
C148 C149 1.378 . S
C148 C153 1.400 . S
C149 H133 0.939 . S
C149 C148 1.378 . S
C149 C150 1.361 . S
C150 H134 0.942 . S
C150 C149 1.361 . S
C150 C151 1.369 . S
C151 C150 1.369 . S
C151 C152 1.404 . S
C152 H135 0.940 . S
C152 C151 1.404 . S
C152 C153 1.389 . S
C153 H136 0.939 . S
C153 C148 1.400 . S
C153 C152 1.389 . S
C154 P128 1.819 . S
C154 C155 1.391 . S
C154 C159 1.391 . S
C155 H137 0.941 . S
C155 C154 1.391 . S
C155 C156 1.396 . S
C156 H140 0.939 . S
C156 C155 1.396 . S
C156 C157 1.397 . S
C157 C156 1.397 . S
C157 C158 1.385 . S
C158 H141 0.940 . S
C158 C157 1.385 . S
C158 C159 1.388 . S
C159 H138 0.939 . S
C159 C154 1.391 . S
C159 C158 1.388 . S
P160 O171 1.490 . S
P160 C174 1.812 1_554 S
P160 C180 1.803 . S
P160 C186 1.819 . S
H161 C175 0.941 . S
H162 C176 0.939 . S
H163 C178 0.940 . S
H164 C179 0.945 . S
H165 C181 0.939 . S
H166 C182 0.942 . S
H167 C184 0.940 . S
H168 C185 0.954 . S
H169 C187 0.941 . S
H170 C191 0.932 1_655 S
O171 P160 1.490 . S
H172 C188 0.939 . S
H173 C190 0.940 . S
C174 P160 1.812 1_556 S
C174 C175 1.389 . S
C174 C179 1.383 1_455 S
C175 H161 0.941 . S
C175 C174 1.389 . S
C175 C176 1.397 . S
C176 H162 0.939 . S
C176 C175 1.397 . S
C176 C177 1.378 . S
C177 C176 1.378 . S
C177 C178 1.378 1_455 S
C178 H163 0.940 . S
C178 C177 1.378 1_655 S
C178 C179 1.400 . S
C179 H164 0.945 . S
C179 C174 1.383 1_655 S
C179 C178 1.400 . S
C180 P160 1.803 . S
C180 C181 1.378 . S
C180 C185 1.376 1_455 S
C181 H165 0.939 . S
C181 C180 1.378 . S
C181 C182 1.361 . S
C182 H166 0.942 . S
C182 C181 1.361 . S
C182 C183 1.369 . S
C183 C182 1.369 . S
C183 C184 1.404 1_455 S
C184 H167 0.940 . S
C184 C183 1.404 1_655 S
C184 C185 1.399 . S
C185 H168 0.954 . S
C185 C180 1.376 1_655 S
C185 C184 1.399 . S
C186 P160 1.819 . S
C186 C187 1.391 . S
C186 C191 1.391 . S
C187 H169 0.941 . S
C187 C186 1.391 . S
C187 C188 1.396 . S
C188 H172 0.939 . S
C188 C187 1.396 . S
C188 C189 1.397 . S
C189 C188 1.397 . S
C189 C190 1.385 1_455 S
C190 H173 0.940 . S
C190 C189 1.385 1_655 S
C190 C191 1.388 1_655 S
C191 H170 0.932 1_455 S
C191 C186 1.391 . S
C191 C190 1.388 1_455 S
P192 O203 1.490 . S
P192 C206 1.812 1_554 S
P192 C212 1.803 . S
P192 C218 1.819 . S
H193 C207 0.941 . S
H194 C208 0.939 . S
H195 C210 0.940 . S
H196 C211 0.945 . S
H197 C213 0.939 . S
H198 C214 0.942 . S
H199 C216 0.940 . S
H200 C217 0.954 . S
H201 C219 0.941 . S
H202 C223 0.932 1_565 S
O203 P192 1.490 . S
H204 C220 0.939 . S
H205 C222 0.940 . S
C206 P192 1.812 1_556 S
C206 C207 1.389 . S
C206 C211 1.383 1_545 S
C207 H193 0.941 . S
C207 C206 1.389 . S
C207 C208 1.397 . S
C208 H194 0.939 . S
C208 C207 1.397 . S
C208 C209 1.378 . S
C209 C208 1.378 . S
C209 C210 1.378 1_545 S
C210 H195 0.940 . S
C210 C209 1.378 1_565 S
C210 C211 1.400 . S
C211 H196 0.945 . S
C211 C206 1.383 1_565 S
C211 C210 1.400 . S
C212 P192 1.803 . S
C212 C213 1.378 . S
C212 C217 1.376 1_545 S
C213 H197 0.939 . S
C213 C212 1.378 . S
C213 C214 1.361 . S
C214 H198 0.942 . S
C214 C213 1.361 . S
C214 C215 1.369 . S
C215 C214 1.369 . S
C215 C216 1.404 1_545 S
C216 H199 0.940 . S
C216 C215 1.404 1_565 S
C216 C217 1.399 . S
C217 H200 0.954 . S
C217 C212 1.376 1_565 S
C217 C216 1.399 . S
C218 P192 1.819 . S
C218 C219 1.391 . S
C218 C223 1.391 . S
C219 H201 0.941 . S
C219 C218 1.391 . S
C219 C220 1.396 . S
C220 H204 0.939 . S
C220 C219 1.396 . S
C220 C221 1.397 . S
C221 C220 1.397 . S
C221 C222 1.385 1_545 S
C222 H205 0.940 . S
C222 C221 1.385 1_565 S
C222 C223 1.388 1_565 S
C223 H202 0.932 1_545 S
C223 C218 1.391 . S
C223 C222 1.388 1_545 S
P224 O235 1.490 . S
P224 C238 1.812 1_554 S
P224 C244 1.803 . S
P224 C250 1.819 . S
H225 C239 0.941 . S
H226 C240 0.939 . S
H227 C242 0.940 . S
H228 C243 0.940 . S
H229 C245 0.939 . S
H230 C246 0.942 . S
H231 C248 0.940 . S
H232 C249 0.939 . S
H233 C251 0.941 . S
H234 C255 0.939 . S
O235 P224 1.490 . S
H236 C252 0.939 . S
H237 C254 0.940 . S
C238 P224 1.812 1_556 S
C238 C239 1.389 . S
C238 C243 1.391 . S
C239 H225 0.941 . S
C239 C238 1.389 . S
C239 C240 1.397 . S
C240 H226 0.939 . S
C240 C239 1.397 . S
C240 C241 1.378 . S
C241 C240 1.378 . S
C241 C242 1.378 . S
C242 H227 0.940 . S
C242 C241 1.378 . S
C242 C243 1.396 . S
C243 H228 0.940 . S
C243 C238 1.391 . S
C243 C242 1.396 . S
C244 P224 1.803 . S
C244 C245 1.378 . S
C244 C249 1.400 . S
C245 H229 0.939 . S
C245 C244 1.378 . S
C245 C246 1.361 . S
C246 H230 0.942 . S
C246 C245 1.361 . S
C246 C247 1.369 . S
C247 C246 1.369 . S
C247 C248 1.404 . S
C248 H231 0.940 . S
C248 C247 1.404 . S
C248 C249 1.389 . S
C249 H232 0.939 . S
C249 C244 1.400 . S
C249 C248 1.389 . S
C250 P224 1.819 . S
C250 C251 1.391 . S
C250 C255 1.391 . S
C251 H233 0.941 . S
C251 C250 1.391 . S
C251 C252 1.396 . S
C252 H236 0.939 . S
C252 C251 1.396 . S
C252 C253 1.397 . S
C253 C252 1.397 . S
C253 C254 1.385 . S
C254 H237 0.940 . S
C254 C253 1.385 . S
C254 C255 1.388 . S
C255 H234 0.939 . S
C255 C250 1.391 . S
C255 C254 1.388 . S
Tb256 C266 2.825 . S
Tb256 O267 2.347 1_455 S
Tb256 O270 2.366 . S
Tb256 O275 2.418 . S
Tb256 O276 2.384 1_565 S
Tb256 O279 2.479 . S
Tb256 O280 2.471 . S
Eu257 O268 2.418 . S
Eu257 O269 2.384 1_545 S
Eu257 O272 2.479 . S
Eu257 O273 2.471 . S
Eu257 O274 2.347 1_655 S
Eu257 O277 2.366 . S
Eu257 C287 2.825 . S
C258 O274 1.259 1_565 S
C258 O275 1.265 . S
C259 O276 1.255 . S
C259 O277 1.265 1_455 S
C260 C262 1.380 1_556 S
C260 C263 1.374 1_556 S
C260 C266 1.507 . S
C261 C262 1.384 . S
C261 C265 1.387 . S
C261 H288 0.930 . S
C262 C260 1.380 1_554 S
C262 C261 1.384 . S
C262 H289 0.931 1_554 S
C263 C260 1.374 1_554 S
C263 C264 1.390 . S
C263 H290 0.930 1_455 S
C264 C263 1.390 . S
C264 C265 1.391 . S
C264 H291 0.928 1_455 S
C265 C261 1.387 . S
C265 C264 1.391 . S
C266 Tb256 2.825 . S
C266 C260 1.507 . S
C266 O279 1.238 . S
C266 O280 1.247 . S
O267 Tb256 2.347 1_655 S
O267 C271 1.259 1_565 S
O268 Eu257 2.418 . S
O268 C271 1.265 . S
O269 Eu257 2.384 1_565 S
O269 C278 1.255 . S
O270 Tb256 2.366 . S
O270 C278 1.265 1_455 S
C271 O267 1.259 1_545 S
C271 O268 1.265 . S
O272 Eu257 2.479 . S
O272 C287 1.238 . S
O273 Eu257 2.471 . S
O273 C287 1.247 . S
O274 Eu257 2.347 1_455 S
O274 C258 1.259 1_545 S
O275 Tb256 2.418 . S
O275 C258 1.265 . S
O276 Tb256 2.384 1_545 S
O276 C259 1.255 . S
O277 Eu257 2.366 . S
O277 C259 1.265 1_655 S
C278 O269 1.255 . S
C278 O270 1.265 1_655 S
O279 Tb256 2.479 . S
O279 C266 1.238 . S
O280 Tb256 2.471 . S
O280 C266 1.247 . S
C281 C284 1.380 . S
C281 C285 1.374 . S
C281 C287 1.507 . S
C282 C283 1.387 . S
C282 C286 1.391 . S
C283 C282 1.387 . S
C283 C284 1.384 . S
C283 H292 0.930 . S
C284 C281 1.380 . S
C284 C283 1.384 . S
C284 H293 0.931 . S
C285 C281 1.374 . S
C285 C286 1.390 . S
C285 H294 0.930 1_655 S
C286 C282 1.391 . S
C286 C285 1.390 . S
C286 H295 0.921 1_655 S
C287 Eu257 2.825 . S
C287 O272 1.238 . S
C287 O273 1.247 . S
C287 C281 1.507 . S
H288 C261 0.930 . S
H289 C262 0.931 1_556 S
H290 C263 0.930 1_655 S
H291 C264 0.928 1_655 S
H292 C283 0.930 . S
H293 C284 0.931 . S
H294 C285 0.930 1_455 S
H295 C286 0.921 1_455 S
Tb296 C306 2.825 . S
Tb296 O307 2.347 1_545 S
Tb296 O310 2.366 . S
Tb296 O315 2.418 . S
Tb296 O316 2.384 . S
Tb296 O319 2.479 . S
Tb296 O320 2.471 . S
Eu297 O308 2.418 . S
Eu297 O309 2.384 . S
Eu297 O312 2.479 . S
Eu297 O313 2.471 . S
Eu297 O314 2.347 1_565 S
Eu297 O317 2.366 . S
Eu297 C327 2.825 . S
C298 O314 1.259 . S
C298 O315 1.265 . S
C299 O316 1.255 . S
C299 O317 1.265 1_545 S
C300 C302 1.379 1_556 S
C300 C303 1.373 1_556 S
C300 C306 1.508 . S
C301 C302 1.384 . S
C301 C305 1.387 . S
C301 H328 0.930 . S
C302 C300 1.379 1_554 S
C302 C301 1.384 . S
C302 H329 0.931 1_554 S
C303 C300 1.373 1_554 S
C303 C304 1.390 . S
C303 H330 0.930 1_545 S
C304 C303 1.390 . S
C304 C305 1.391 . S
C304 H331 0.930 1_545 S
C305 C301 1.387 . S
C305 C304 1.391 . S
C306 Tb296 2.825 . S
C306 C300 1.508 . S
C306 O319 1.238 . S
C306 O320 1.247 . S
O307 Tb296 2.347 1_565 S
O307 C311 1.259 . S
O308 Eu297 2.418 . S
O308 C311 1.265 . S
O309 Eu297 2.384 . S
O309 C318 1.255 . S
O310 Tb296 2.366 . S
O310 C318 1.265 1_545 S
C311 O307 1.259 . S
C311 O308 1.265 . S
O312 Eu297 2.479 . S
O312 C327 1.238 . S
O313 Eu297 2.471 . S
O313 C327 1.247 . S
O314 Eu297 2.347 1_545 S
O314 C298 1.259 . S
O315 Tb296 2.418 . S
O315 C298 1.265 . S
O316 Tb296 2.384 . S
O316 C299 1.255 . S
O317 Eu297 2.366 . S
O317 C299 1.265 1_565 S
C318 O309 1.255 . S
C318 O310 1.265 1_565 S
O319 Tb296 2.479 . S
O319 C306 1.238 . S
O320 Tb296 2.471 . S
O320 C306 1.247 . S
C321 C324 1.380 . S
C321 C325 1.374 . S
C321 C327 1.507 . S
C322 C323 1.387 . S
C322 C326 1.391 . S
C323 C322 1.387 . S
C323 C324 1.384 . S
C323 H332 0.930 . S
C324 C321 1.380 . S
C324 C323 1.384 . S
C324 H333 0.931 . S
C325 C321 1.374 . S
C325 C326 1.390 . S
C325 H334 0.930 1_565 S
C326 C322 1.391 . S
C326 C325 1.390 . S
C326 H335 0.930 1_565 S
C327 Eu297 2.825 . S
C327 O312 1.238 . S
C327 O313 1.247 . S
C327 C321 1.507 . S
H328 C301 0.930 . S
H329 C302 0.931 1_556 S
H330 C303 0.930 1_565 S
H331 C304 0.930 1_565 S
H332 C323 0.930 . S
H333 C324 0.931 . S
H334 C325 0.930 1_545 S
H335 C326 0.930 1_545 S
Tb336 C346 2.825 . S
Tb336 O347 2.347 . S
Tb336 O350 2.366 . S
Tb336 O355 2.418 . S
Tb336 O356 2.384 . S
Tb336 O359 2.479 . S
Tb336 O360 2.471 . S
Eu337 O348 2.418 . S
Eu337 O349 2.384 . S
Eu337 O352 2.479 . S
Eu337 O353 2.471 . S
Eu337 O354 2.347 . S
Eu337 O357 2.366 . S
Eu337 C367 2.825 . S
C338 O354 1.259 . S
C338 O355 1.265 . S
C339 O356 1.255 . S
C339 O357 1.265 . S
C340 C342 1.380 . S
C340 C343 1.374 . S
C340 C346 1.507 1_554 S
C341 C342 1.384 . S
C341 C345 1.387 . S
C341 H368 0.930 . S
C342 C340 1.380 . S
C342 C341 1.384 . S
C342 H369 0.931 1_554 S
C343 C340 1.374 . S
C343 C344 1.390 . S
C343 H370 0.930 . S
C344 C343 1.390 . S
C344 C345 1.391 . S
C344 H371 0.930 . S
C345 C341 1.387 . S
C345 C344 1.391 . S
C346 Tb336 2.825 . S
C346 C340 1.507 1_556 S
C346 O359 1.238 . S
C346 O360 1.247 . S
O347 Tb336 2.347 . S
O347 C351 1.259 . S
O348 Eu337 2.418 . S
O348 C351 1.265 . S
O349 Eu337 2.384 . S
O349 C358 1.255 . S
O350 Tb336 2.366 . S
O350 C358 1.265 . S
C351 O347 1.259 . S
C351 O348 1.265 . S
O352 Eu337 2.479 . S
O352 C367 1.238 . S
O353 Eu337 2.471 . S
O353 C367 1.247 . S
O354 Eu337 2.347 . S
O354 C338 1.259 . S
O355 Tb336 2.418 . S
O355 C338 1.265 . S
O356 Tb336 2.384 . S
O356 C339 1.255 . S
O357 Eu337 2.366 . S
O357 C339 1.265 . S
C358 O349 1.255 . S
C358 O350 1.265 . S
O359 Tb336 2.479 . S
O359 C346 1.238 . S
O360 Tb336 2.471 . S
O360 C346 1.247 . S
C361 C364 1.380 . S
C361 C365 1.374 . S
C361 C367 1.507 . S
C362 C363 1.387 . S
C362 C366 1.391 . S
C363 C362 1.387 . S
C363 C364 1.384 . S
C363 H372 0.930 . S
C364 C361 1.380 . S
C364 C363 1.384 . S
C364 H373 0.931 . S
C365 C361 1.374 . S
C365 C366 1.390 . S
C365 H374 0.930 . S
C366 C362 1.391 . S
C366 C365 1.390 . S
C366 H375 0.930 . S
C367 Eu337 2.825 . S
C367 O352 1.238 . S
C367 O353 1.247 . S
C367 C361 1.507 . S
H368 C341 0.930 . S
H369 C342 0.931 1_556 S
H370 C343 0.930 . S
H371 C344 0.930 . S
H372 C363 0.930 . S
H373 C364 0.931 . S
H374 C365 0.930 . S
H375 C366 0.930 . S
Tb376 C386 2.825 . S
Tb376 O387 2.347 . S
Tb376 O390 2.366 . S
Tb376 O395 2.418 . S
Tb376 O396 2.384 1_655 S
Tb376 O399 2.479 . S
Tb376 O400 2.471 . S
Eu377 O388 2.418 . S
Eu377 O389 2.384 1_455 S
Eu377 O392 2.479 . S
Eu377 O393 2.471 . S
Eu377 O394 2.347 . S
Eu377 O397 2.366 . S
Eu377 C407 2.825 . S
C378 O394 1.259 1_655 S
C378 O395 1.265 . S
C379 O396 1.255 . S
C379 O397 1.265 . S
C380 C382 1.380 . S
C380 C383 1.374 . S
C380 C386 1.507 1_554 S
C381 C382 1.384 . S
C381 C385 1.387 . S
C381 H408 0.930 . S
C382 C380 1.380 . S
C382 C381 1.384 . S
C382 H409 0.931 1_554 S
C383 C380 1.374 . S
C383 C384 1.390 . S
C383 H410 0.930 . S
C384 C383 1.390 . S
C384 C385 1.391 . S
C384 H411 0.930 . S
C385 C381 1.387 . S
C385 C384 1.391 . S
C386 Tb376 2.825 . S
C386 C380 1.507 1_556 S
C386 O399 1.238 . S
C386 O400 1.247 . S
O387 Tb376 2.347 . S
O387 C391 1.259 1_655 S
O388 Eu377 2.418 . S
O388 C391 1.265 . S
O389 Eu377 2.384 1_655 S
O389 C398 1.255 . S
O390 Tb376 2.366 . S
O390 C398 1.265 . S
C391 O387 1.259 1_455 S
C391 O388 1.265 . S
O392 Eu377 2.479 . S
O392 C407 1.238 . S
O393 Eu377 2.471 . S
O393 C407 1.247 . S
O394 Eu377 2.347 . S
O394 C378 1.259 1_455 S
O395 Tb376 2.418 . S
O395 C378 1.265 . S
O396 Tb376 2.384 1_455 S
O396 C379 1.255 . S
O397 Eu377 2.366 . S
O397 C379 1.265 . S
C398 O389 1.255 . S
C398 O390 1.265 . S
O399 Tb376 2.479 . S
O399 C386 1.238 . S
O400 Tb376 2.471 . S
O400 C386 1.247 . S
C401 C404 1.380 . S
C401 C405 1.374 . S
C401 C407 1.507 . S
C402 C403 1.387 . S
C402 C406 1.391 . S
C403 C402 1.387 . S
C403 C404 1.384 . S
C403 H412 0.930 . S
C404 C401 1.380 . S
C404 C403 1.384 . S
C404 H413 0.931 . S
C405 C401 1.374 . S
C405 C406 1.390 . S
C405 H414 0.930 . S
C406 C402 1.391 . S
C406 C405 1.390 . S
C406 H415 0.930 . S
C407 Eu377 2.825 . S
C407 O392 1.238 . S
C407 O393 1.247 . S
C407 C401 1.507 . S
H408 C381 0.930 . S
H409 C382 0.931 1_556 S
H410 C383 0.930 . S
H411 C384 0.930 . S
H412 C403 0.930 . S
H413 C404 0.931 . S
H414 C405 0.930 . S
H415 C406 0.930 . S
C416 C417 1.365 1_565 S
C416 C422 1.379 . S
C416 N424 1.356 . S
C417 C416 1.365 1_545 S
C417 C423 1.361 . S
C418 C419 1.364 1_545 S
C418 C423 1.379 . S
C418 N425 1.356 . S
C419 C418 1.364 1_565 S
C419 C422 1.362 . S
N420 C422 1.356 . S
N420 H432 0.984 . S
N420 H433 0.985 . S
N421 C423 1.356 . S
N421 H426 0.984 . S
N421 H427 0.985 . S
C422 C416 1.379 . S
C422 C419 1.362 . S
C422 N420 1.356 . S
C423 C417 1.361 . S
C423 C418 1.379 . S
C423 N421 1.356 . S
N424 C416 1.356 . S
N424 H430 0.984 . S
N424 H431 0.984 . S
N425 C418 1.356 . S
N425 H428 0.984 . S
N425 H429 0.985 . S
H426 N421 0.984 . S
H427 N421 0.985 . S
H428 N425 0.984 . S
H429 N425 0.985 . S
H430 N424 0.984 . S
H431 N424 0.984 . S
H432 N420 0.984 . S
H433 N420 0.985 . S
C434 C435 1.363 . S
C434 C440 1.379 . S
C434 N442 1.356 . S
C435 C434 1.363 . S
C435 C441 1.363 . S
C436 C437 1.363 . S
C436 C441 1.379 . S
C436 N443 1.356 . S
C437 C436 1.363 . S
C437 C440 1.363 . S
N438 C440 1.356 . S
N438 H450 0.984 . S
N438 H451 0.985 . S
N439 C441 1.356 . S
N439 H444 0.984 . S
N439 H445 0.985 . S
C440 C434 1.379 . S
C440 C437 1.363 . S
C440 N438 1.356 . S
C441 C435 1.363 . S
C441 C436 1.379 . S
C441 N439 1.356 . S
N442 C434 1.356 . S
N442 H448 0.984 . S
N442 H449 0.984 . S
N443 C436 1.356 . S
N443 H446 0.984 . S
N443 H447 0.985 . S
H444 N439 0.984 . S
H445 N439 0.985 . S
H446 N443 0.984 . S
H447 N443 0.985 . S
H448 N442 0.984 . S
H449 N442 0.984 . S
H450 N438 0.984 . S
H451 N438 0.985 . S
C452 C453 1.363 . S
C452 C458 1.379 . S
C452 N460 1.356 . S
C453 C452 1.363 . S
C453 C459 1.363 . S
C454 C455 1.363 . S
C454 C459 1.379 . S
C454 N461 1.356 . S
C455 C454 1.363 . S
C455 C458 1.363 . S
N456 C458 1.356 . S
N456 H468 0.984 . S
N456 H469 0.985 . S
N457 C459 1.356 . S
N457 H462 0.984 . S
N457 H463 0.985 . S
C458 C452 1.379 . S
C458 C455 1.363 . S
C458 N456 1.356 . S
C459 C453 1.363 . S
C459 C454 1.379 . S
C459 N457 1.356 . S
N460 C452 1.356 . S
N460 H466 0.984 . S
N460 H467 0.984 . S
N461 C454 1.356 . S
N461 H464 0.984 . S
N461 H465 0.985 . S
H462 N457 0.984 . S
H463 N457 0.985 . S
H464 N461 0.984 . S
H465 N461 0.985 . S
H466 N460 0.984 . S
H467 N460 0.984 . S
H468 N456 0.984 . S
H469 N456 0.985 . S
C470 C471 1.377 . S
C470 C476 1.379 . S
C470 N478 1.356 . S
C471 C470 1.377 . S
C471 C477 1.350 1_455 S
C472 C473 1.363 1_655 S
C472 C477 1.379 . S
C472 N479 1.356 . S
C473 C472 1.363 1_455 S
C473 C476 1.363 . S
N474 C476 1.356 . S
N474 H486 0.984 . S
N474 H487 0.985 . S
N475 C477 1.356 . S
N475 H480 0.984 . S
N475 H481 0.985 . S
C476 C470 1.379 . S
C476 C473 1.363 . S
C476 N474 1.356 . S
C477 C471 1.350 1_655 S
C477 C472 1.379 . S
C477 N475 1.356 . S
N478 C470 1.356 . S
N478 H484 0.984 . S
N478 H485 0.984 . S
N479 C472 1.356 . S
N479 H482 0.984 . S
N479 H483 0.985 . S
H480 N475 0.984 . S
H481 N475 0.985 . S
H482 N479 0.984 . S
H483 N479 0.985 . S
H484 N478 0.984 . S
H485 N478 0.984 . S
H486 N474 0.984 . S
H487 N474 0.985 . S
C488 C489 1.364 . S
C488 C494 1.379 . S
C488 N496 1.356 . S
C489 C488 1.364 . S
C489 C495 1.362 1_545 S
C490 C491 1.360 1_565 S
C490 C495 1.379 . S
C490 N497 1.356 . S
C491 C490 1.360 1_545 S
C491 C494 1.366 . S
N492 C494 1.356 1_556 S
N492 H504 0.984 . S
N492 H505 0.985 . S
N493 C495 1.356 . S
N493 H498 0.984 . S
N493 H499 0.985 . S
C494 C488 1.379 . S
C494 C491 1.366 . S
C494 N492 1.356 1_554 S
C495 C489 1.362 1_565 S
C495 C490 1.379 . S
C495 N493 1.356 . S
N496 C488 1.356 . S
N496 H502 0.984 . S
N496 H503 0.984 . S
N497 C490 1.356 . S
N497 H500 0.984 1_554 S
N497 H501 0.985 . S
H498 N493 0.984 . S
H499 N493 0.985 . S
H500 N497 0.984 1_556 S
H501 N497 0.985 . S
H502 N496 0.984 . S
H503 N496 0.984 . S
H504 N492 0.984 . S
H505 N492 0.985 . S
C506 C507 1.363 . S
C506 C512 1.379 . S
C506 N514 1.356 . S
C507 C506 1.363 . S
C507 C513 1.363 . S
C508 C509 1.363 . S
C508 C513 1.379 . S
C508 N515 1.356 1_554 S
C509 C508 1.363 . S
C509 C512 1.363 . S
N510 C512 1.356 . S
N510 H522 0.984 . S
N510 H523 0.985 1_554 S
N511 C513 1.356 . S
N511 H516 0.984 . S
N511 H517 0.985 . S
C512 C506 1.379 . S
C512 C509 1.363 . S
C512 N510 1.356 . S
C513 C507 1.363 . S
C513 C508 1.379 . S
C513 N511 1.356 . S
N514 C506 1.356 . S
N514 H520 0.984 . S
N514 H521 0.984 . S
N515 C508 1.356 1_556 S
N515 H518 0.984 . S
N515 H519 0.985 . S
H516 N511 0.984 . S
H517 N511 0.985 . S
H518 N515 0.984 . S
H519 N515 0.985 . S
H520 N514 0.984 . S
H521 N514 0.984 . S
H522 N510 0.984 . S
H523 N510 0.985 1_556 S
C524 C525 1.363 . S
C524 C530 1.379 . S
C524 N532 1.356 . S
C525 C524 1.363 . S
C525 C531 1.363 . S
C526 C527 1.363 . S
C526 C531 1.379 . S
C526 N533 1.356 . S
C527 C526 1.363 . S
C527 C530 1.363 . S
N528 C530 1.356 1_556 S
N528 H540 0.984 . S
N528 H541 0.985 . S
N529 C531 1.356 . S
N529 H534 0.984 . S
N529 H535 0.985 . S
C530 C524 1.379 . S
C530 C527 1.363 . S
C530 N528 1.356 1_554 S
C531 C525 1.363 . S
C531 C526 1.379 . S
C531 N529 1.356 . S
N532 C524 1.356 . S
N532 H538 0.984 . S
N532 H539 0.984 . S
N533 C526 1.356 . S
N533 H536 0.984 1_554 S
N533 H537 0.985 . S
H534 N529 0.984 . S
H535 N529 0.985 . S
H536 N533 0.984 1_556 S
H537 N533 0.985 . S
H538 N532 0.984 . S
H539 N532 0.984 . S
H540 N528 0.984 . S
H541 N528 0.985 . S
C542 C543 1.353 1_455 S
C542 C548 1.379 . S
C542 N550 1.356 . S
C543 C542 1.353 1_655 S
C543 C549 1.373 . S
C544 C545 1.363 . S
C544 C549 1.379 . S
C544 N551 1.356 1_554 S
C545 C544 1.363 . S
C545 C548 1.363 1_655 S
N546 C548 1.356 . S
N546 H558 0.984 . S
N546 H559 0.985 1_554 S
N547 C549 1.356 . S
N547 H552 0.984 . S
N547 H553 0.985 . S
C548 C542 1.379 . S
C548 C545 1.363 1_455 S
C548 N546 1.356 . S
C549 C543 1.373 . S
C549 C544 1.379 . S
C549 N547 1.356 . S
N550 C542 1.356 . S
N550 H556 0.984 . S
N550 H557 0.984 . S
N551 C544 1.356 1_556 S
N551 H554 0.984 . S
N551 H555 0.985 . S
H552 N547 0.984 . S
H553 N547 0.985 . S
H554 N551 0.984 . S
H555 N551 0.985 . S
H556 N550 0.984 . S
H557 N550 0.984 . S
H558 N546 0.984 . S
H559 N546 0.985 1_556 S
C560 C561 1.364 . S
C560 C566 1.379 . S
C560 N568 1.356 1_655 S
C561 C560 1.364 . S
C561 C567 1.369 . S
C562 C563 1.363 . S
C562 C567 1.379 . S
C562 N569 1.356 . S
C563 C562 1.363 . S
C563 C566 1.363 . S
N564 C566 1.356 . S
N564 H576 0.984 . S
N564 H577 0.985 . S
N565 C567 1.356 . S
N565 H570 0.984 1_655 S
N565 H571 0.985 . S
C566 C560 1.379 . S
C566 C563 1.363 . S
C566 N564 1.356 . S
C567 C561 1.369 . S
C567 C562 1.379 . S
C567 N565 1.356 . S
N568 C560 1.356 1_455 S
N568 H574 0.984 . S
N568 H575 0.984 . S
N569 C562 1.356 . S
N569 H572 0.984 . S
N569 H573 0.985 . S
H570 N565 0.984 1_455 S
H571 N565 0.985 . S
H572 N569 0.984 . S
H573 N569 0.985 . S
H574 N568 0.984 . S
H575 N568 0.984 . S
H576 N564 0.984 . S
H577 N564 0.985 . S
C578 C579 1.363 . S
C578 C584 1.379 . S
C578 N586 1.356 1_565 S
C579 C578 1.363 . S
C579 C585 1.363 . S
C580 C581 1.363 . S
C580 C585 1.379 . S
C580 N587 1.356 . S
C581 C580 1.363 . S
C581 C584 1.363 . S
N582 C584 1.356 . S
N582 H594 0.984 . S
N582 H595 0.985 . S
N583 C585 1.356 1_545 S
N583 H588 0.984 . S
N583 H589 0.985 1_545 S
C584 C578 1.379 . S
C584 C581 1.363 . S
C584 N582 1.356 . S
C585 C579 1.363 . S
C585 C580 1.379 . S
C585 N583 1.356 1_565 S
N586 C578 1.356 1_545 S
N586 H592 0.984 . S
N586 H593 0.984 . S
N587 C580 1.356 . S
N587 H590 0.984 . S
N587 H591 0.985 . S
H588 N583 0.984 . S
H589 N583 0.985 1_565 S
H590 N587 0.984 . S
H591 N587 0.985 . S
H592 N586 0.984 . S
H593 N586 0.984 . S
H594 N582 0.984 . S
H595 N582 0.985 . S
C596 C597 1.363 . S
C596 C602 1.379 . S
C596 N604 1.356 . S
C597 C596 1.363 . S
C597 C603 1.363 . S
C598 C599 1.363 . S
C598 C603 1.379 . S
C598 N605 1.356 . S
C599 C598 1.363 . S
C599 C602 1.363 . S
N600 C602 1.356 . S
N600 H612 0.984 . S
N600 H613 0.985 . S
N601 C603 1.356 . S
N601 H606 0.984 . S
N601 H607 0.985 . S
C602 C596 1.379 . S
C602 C599 1.363 . S
C602 N600 1.356 . S
C603 C597 1.363 . S
C603 C598 1.379 . S
C603 N601 1.356 . S
N604 C596 1.356 . S
N604 H610 0.984 . S
N604 H611 0.984 . S
N605 C598 1.356 . S
N605 H608 0.984 . S
N605 H609 0.985 . S
H606 N601 0.984 . S
H607 N601 0.985 . S
H608 N605 0.984 . S
H609 N605 0.985 . S
H610 N604 0.984 . S
H611 N604 0.984 . S
H612 N600 0.984 . S
H613 N600 0.985 . S
C614 C615 1.363 . S
C614 C620 1.379 . S
C614 N622 1.356 . S
C615 C614 1.363 . S
C615 C621 1.363 . S
C616 C617 1.363 . S
C616 C621 1.379 . S
C616 N623 1.356 . S
C617 C616 1.363 . S
C617 C620 1.363 . S
N618 C620 1.356 . S
N618 H630 0.984 . S
N618 H631 0.985 . S
N619 C621 1.356 . S
N619 H624 0.984 . S
N619 H625 0.985 . S
C620 C614 1.379 . S
C620 C617 1.363 . S
C620 N618 1.356 . S
C621 C615 1.363 . S
C621 C616 1.379 . S
C621 N619 1.356 . S
N622 C614 1.356 . S
N622 H628 0.984 . S
N622 H629 0.984 . S
N623 C616 1.356 . S
N623 H626 0.984 . S
N623 H627 0.985 . S
H624 N619 0.984 . S
H625 N619 0.985 . S
H626 N623 0.984 . S
H627 N623 0.985 . S
H628 N622 0.984 . S
H629 N622 0.984 . S
H630 N618 0.984 . S
H631 N618 0.985 . S
C632 C633 1.370 . S
C632 C638 1.379 . S
C632 N640 1.356 . S
C633 C632 1.370 . S
C633 C639 1.363 . S
C634 C635 1.363 . S
C634 C639 1.404 . S
C634 N641 1.356 . S
C635 C634 1.363 . S
C635 C638 1.363 . S
N636 C638 1.356 . S
N636 H648 0.984 . S
N636 H649 0.985 . S
N637 C639 1.328 1_655 S
N637 H642 0.984 . S
N637 H643 0.985 . S
C638 C632 1.379 . S
C638 C635 1.363 . S
C638 N636 1.356 . S
C639 C633 1.363 . S
C639 C634 1.404 . S
C639 N637 1.328 1_455 S
N640 C632 1.356 . S
N640 H646 0.984 . S
N640 H647 0.984 1_455 S
N641 C634 1.356 . S
N641 H644 0.984 . S
N641 H645 0.985 . S
H642 N637 0.984 . S
H643 N637 0.985 . S
H644 N641 0.984 . S
H645 N641 0.985 . S
H646 N640 0.984 . S
H647 N640 0.984 1_655 S
H648 N636 0.984 . S
H649 N636 0.985 . S
C650 C651 1.368 . S
C650 C656 1.379 . S
C650 N658 1.356 . S
C651 C650 1.368 . S
C651 C657 1.364 . S
C652 C653 1.363 . S
C652 C657 1.379 . S
C652 N659 1.356 . S
C653 C652 1.363 . S
C653 C656 1.363 . S
N654 C656 1.356 . S
N654 H666 0.984 1_554 S
N654 H667 0.985 1_554 S
N655 C657 1.356 1_565 S
N655 H660 0.984 . S
N655 H661 0.985 . S
C656 C650 1.379 . S
C656 C653 1.363 . S
C656 N654 1.356 . S
C657 C651 1.364 . S
C657 C652 1.379 . S
C657 N655 1.356 1_545 S
N658 C650 1.356 . S
N658 H664 0.984 . S
N658 H665 0.984 1_545 S
N659 C652 1.356 . S
N659 H662 0.984 . S
N659 H663 0.985 . S
H660 N655 0.984 . S
H661 N655 0.985 . S
H662 N659 0.984 . S
H663 N659 0.985 . S
H664 N658 0.984 . S
H665 N658 0.984 1_565 S
H666 N654 0.984 1_556 S
H667 N654 0.985 1_556 S
C668 C669 1.363 . S
C668 C674 1.379 . S
C668 N676 1.356 . S
C669 C668 1.363 . S
C669 C675 1.363 . S
C670 C671 1.363 . S
C670 C675 1.379 . S
C670 N677 1.356 . S
C671 C670 1.363 . S
C671 C674 1.363 . S
N672 C674 1.356 . S
N672 H684 0.984 . S
N672 H685 0.985 . S
N673 C675 1.356 . S
N673 H678 0.984 . S
N673 H679 0.985 . S
C674 C668 1.379 . S
C674 C671 1.363 . S
C674 N672 1.356 . S
C675 C669 1.363 . S
C675 C670 1.379 . S
C675 N673 1.356 . S
N676 C668 1.356 . S
N676 H682 0.984 . S
N676 H683 0.984 . S
N677 C670 1.356 . S
N677 H680 0.984 . S
N677 H681 0.985 1_554 S
H678 N673 0.984 . S
H679 N673 0.985 . S
H680 N677 0.984 . S
H681 N677 0.985 1_556 S
H682 N676 0.984 . S
H683 N676 0.984 . S
H684 N672 0.984 . S
H685 N672 0.985 . S
C686 C687 1.363 . S
C686 C692 1.379 . S
C686 N694 1.356 . S
C687 C686 1.363 . S
C687 C693 1.363 . S
C688 C689 1.363 . S
C688 C693 1.379 . S
C688 N695 1.356 . S
C689 C688 1.363 . S
C689 C692 1.363 . S
N690 C692 1.356 . S
N690 H702 0.984 1_554 S
N690 H703 0.985 1_554 S
N691 C693 1.356 . S
N691 H696 0.984 . S
N691 H697 0.985 . S
C692 C686 1.379 . S
C692 C689 1.363 . S
C692 N690 1.356 . S
C693 C687 1.363 . S
C693 C688 1.379 . S
C693 N691 1.356 . S
N694 C686 1.356 . S
N694 H700 0.984 . S
N694 H701 0.984 . S
N695 C688 1.356 . S
N695 H698 0.984 . S
N695 H699 0.985 . S
H696 N691 0.984 . S
H697 N691 0.985 . S
H698 N695 0.984 . S
H699 N695 0.985 . S
H700 N694 0.984 . S
H701 N694 0.984 . S
H702 N690 0.984 1_556 S
H703 N690 0.985 1_556 S
C704 C705 1.363 1_655 S
C704 C710 1.379 . S
C704 N712 1.356 . S
C705 C704 1.363 1_455 S
C705 C711 1.363 . S
C706 C707 1.363 . S
C706 C711 1.379 . S
C706 N713 1.356 . S
C707 C706 1.363 . S
C707 C710 1.363 1_455 S
N708 C710 1.356 . S
N708 H720 0.984 . S
N708 H721 0.985 . S
N709 C711 1.356 . S
N709 H714 0.984 . S
N709 H715 0.985 . S
C710 C704 1.379 . S
C710 C707 1.363 1_655 S
C710 N708 1.356 . S
C711 C705 1.363 . S
C711 C706 1.379 . S
C711 N709 1.356 . S
N712 C704 1.356 . S
N712 H718 0.984 . S
N712 H719 0.984 . S
N713 C706 1.356 . S
N713 H716 0.984 . S
N713 H717 0.985 . S
H714 N709 0.984 . S
H715 N709 0.985 . S
H716 N713 0.984 . S
H717 N713 0.985 . S
H718 N712 0.984 . S
H719 N712 0.984 . S
H720 N708 0.984 . S
H721 N708 0.985 . S
C722 C723 1.363 . S
C722 C728 1.379 . S
C722 N730 1.356 . S
C723 C722 1.363 . S
C723 C729 1.363 1_545 S
C724 C725 1.363 1_565 S
C724 C729 1.379 . S
C724 N731 1.356 . S
C725 C724 1.363 1_545 S
C725 C728 1.363 . S
N726 C728 1.356 . S
N726 H738 0.984 . S
N726 H739 0.985 . S
N727 C729 1.356 . S
N727 H732 0.984 . S
N727 H733 0.985 . S
C728 C722 1.379 . S
C728 C725 1.363 . S
C728 N726 1.356 . S
C729 C723 1.363 1_565 S
C729 C724 1.379 . S
C729 N727 1.356 . S
N730 C722 1.356 . S
N730 H736 0.984 . S
N730 H737 0.984 . S
N731 C724 1.356 . S
N731 H734 0.984 . S
N731 H735 0.985 . S
H732 N727 0.984 . S
H733 N727 0.985 . S
H734 N731 0.984 . S
H735 N731 0.985 . S
H736 N730 0.984 . S
H737 N730 0.984 . S
H738 N726 0.984 . S
H739 N726 0.985 . S
C740 C741 1.363 . S
C740 C746 1.379 . S
C740 N748 1.356 . S
C741 C740 1.363 . S
C741 C747 1.363 . S
C742 C743 1.363 . S
C742 C747 1.379 . S
C742 N749 1.356 . S
C743 C742 1.363 . S
C743 C746 1.363 . S
N744 C746 1.356 . S
N744 H756 0.984 . S
N744 H757 0.985 . S
N745 C747 1.356 . S
N745 H750 0.984 . S
N745 H751 0.985 . S
C746 C740 1.379 . S
C746 C743 1.363 . S
C746 N744 1.356 . S
C747 C741 1.363 . S
C747 C742 1.379 . S
C747 N745 1.356 . S
N748 C740 1.356 . S
N748 H754 0.984 . S
N748 H755 0.984 . S
N749 C742 1.356 . S
N749 H752 0.984 . S
N749 H753 0.985 . S
H750 N745 0.984 . S
H751 N745 0.985 . S
H752 N749 0.984 . S
H753 N749 0.985 . S
H754 N748 0.984 . S
H755 N748 0.984 . S
H756 N744 0.984 . S
H757 N744 0.985 . S
C758 C759 1.363 . S
C758 C764 1.379 . S
C758 N766 1.356 . S
C759 C758 1.363 . S
C759 C765 1.363 . S
C760 C761 1.363 . S
C760 C765 1.379 . S
C760 N767 1.356 . S
C761 C760 1.363 . S
C761 C764 1.363 . S
N762 C764 1.356 . S
N762 H774 0.984 . S
N762 H775 0.985 . S
N763 C765 1.356 . S
N763 H768 0.984 . S
N763 H769 0.985 . S
C764 C758 1.379 . S
C764 C761 1.363 . S
C764 N762 1.356 . S
C765 C759 1.363 . S
C765 C760 1.379 . S
C765 N763 1.356 . S
N766 C758 1.356 . S
N766 H772 0.984 . S
N766 H773 0.984 . S
N767 C760 1.356 . S
N767 H770 0.984 . S
N767 H771 0.985 . S
H768 N763 0.984 . S
H769 N763 0.985 . S
H770 N767 0.984 . S
H771 N767 0.985 . S
H772 N766 0.984 . S
H773 N766 0.984 . S
H774 N762 0.984 . S
H775 N762 0.985 . S
C776 C777 1.363 1_455 S
C776 C782 1.379 . S
C776 N784 1.356 . S
C777 C776 1.363 1_655 S
C777 C783 1.363 . S
C778 C779 1.363 . S
C778 C783 1.379 . S
C778 N785 1.356 . S
C779 C778 1.363 . S
C779 C782 1.363 1_655 S
N780 C782 1.356 . S
N780 H792 0.984 . S
N780 H793 0.985 . S
N781 C783 1.356 . S
N781 H786 0.984 . S
N781 H787 0.985 . S
C782 C776 1.379 . S
C782 C779 1.363 1_455 S
C782 N780 1.356 . S
C783 C777 1.363 . S
C783 C778 1.379 . S
C783 N781 1.356 . S
N784 C776 1.356 . S
N784 H790 0.984 . S
N784 H791 0.984 . S
N785 C778 1.356 . S
N785 H788 0.984 . S
N785 H789 0.985 . S
H786 N781 0.984 . S
H787 N781 0.985 . S
H788 N785 0.984 . S
H789 N785 0.985 . S
H790 N784 0.984 . S
H791 N784 0.984 . S
H792 N780 0.984 . S
H793 N780 0.985 . S
C794 C795 1.363 1_545 S
C794 C800 1.379 . S
C794 N802 1.356 . S
C795 C794 1.363 1_565 S
C795 C801 1.363 . S
C796 C797 1.363 . S
C796 C801 1.379 . S
C796 N803 1.356 . S
C797 C796 1.363 . S
C797 C800 1.363 1_565 S
N798 C800 1.356 . S
N798 H810 0.984 . S
N798 H811 0.985 . S
N799 C801 1.356 . S
N799 H804 0.984 . S
N799 H805 0.985 . S
C800 C794 1.379 . S
C800 C797 1.363 1_545 S
C800 N798 1.356 . S
C801 C795 1.363 . S
C801 C796 1.379 . S
C801 N799 1.356 . S
N802 C794 1.356 . S
N802 H808 0.984 . S
N802 H809 0.984 . S
N803 C796 1.356 . S
N803 H806 0.984 . S
N803 H807 0.985 . S
H804 N799 0.984 . S
H805 N799 0.985 . S
H806 N803 0.984 . S
H807 N803 0.985 . S
H808 N802 0.984 . S
H809 N802 0.984 . S
H810 N798 0.984 . S
H811 N798 0.985 . S
C812 C813 1.363 . S
C812 C818 1.379 . S
C812 N820 1.356 . S
C813 C812 1.363 . S
C813 C819 1.363 . S
C814 C815 1.363 . S
C814 C819 1.379 . S
C814 N821 1.356 . S
C815 C814 1.363 . S
C815 C818 1.363 . S
N816 C818 1.356 . S
N816 H828 0.984 . S
N816 H829 0.985 . S
N817 C819 1.356 . S
N817 H822 0.984 . S
N817 H823 0.985 . S
C818 C812 1.379 . S
C818 C815 1.363 . S
C818 N816 1.356 . S
C819 C813 1.363 . S
C819 C814 1.379 . S
C819 N817 1.356 . S
N820 C812 1.356 . S
N820 H826 0.984 . S
N820 H827 0.984 . S
N821 C814 1.356 . S
N821 H824 0.984 . S
N821 H825 0.985 . S
H822 N817 0.984 . S
H823 N817 0.985 . S
H824 N821 0.984 . S
H825 N821 0.985 . S
H826 N820 0.984 . S
H827 N820 0.984 . S
H828 N816 0.984 . S
H829 N816 0.985 . S
C830 C831 1.363 . S
C830 C836 1.379 . S
C830 N838 1.356 . S
C831 C830 1.363 . S
C831 C837 1.363 . S
C832 C833 1.363 . S
C832 C837 1.379 . S
C832 N839 1.356 . S
C833 C832 1.363 . S
C833 C836 1.363 . S
N834 C836 1.356 . S
N834 H846 0.984 . S
N834 H847 0.985 . S
N835 C837 1.356 . S
N835 H840 0.984 . S
N835 H841 0.985 . S
C836 C830 1.379 . S
C836 C833 1.363 . S
C836 N834 1.356 . S
C837 C831 1.363 . S
C837 C832 1.379 . S
C837 N835 1.356 . S
N838 C830 1.356 . S
N838 H844 0.984 . S
N838 H845 0.984 . S
N839 C832 1.356 . S
N839 H842 0.984 . S
N839 H843 0.985 . S
H840 N835 0.984 . S
H841 N835 0.985 . S
H842 N839 0.984 . S
H843 N839 0.985 . S
H844 N838 0.984 . S
H845 N838 0.984 . S
H846 N834 0.984 . S
H847 N834 0.985 . S
C417 C215 2.321 . S
C419 C258 2.602 . S
C437 C298 2.622 . S
C435 C247 2.323 . S
C455 C338 2.630 . S
C453 C151 2.332 . S
C473 C378 2.610 1_455 S
C471 C183 2.331 . S
C491 C271 2.604 1_554 S
C489 C87 2.322 . S
C507 C119 2.363 . S
C509 C311 2.624 1_554 S
C525 C23 2.375 . S
C527 C351 2.629 1_554 S
C543 C55 2.330 1_655 S
C545 C391 2.610 1_654 S
C563 C282 0.766 . S
C561 C189 0.766 1_655 S
C581 C322 0.758 . S
C579 C221 0.761 1_565 S
C599 C362 0.724 . S
C597 C253 0.715 . S
C615 C157 0.720 . S
C617 C402 0.725 . S
C633 C61 0.762 . S
C635 C265 0.769 . S
C653 C305 0.758 . S
C651 C93 0.754 . S
C671 C345 0.724 . S
C669 C125 0.734 . S
C687 C29 0.737 . S
C689 C385 0.732 . S
C705 C177 2.828 . S
C707 C259 3.248 . S
C723 C209 2.783 . S
C725 C299 3.211 . S
C743 C339 3.200 . S
C741 C241 2.755 . S
C761 C379 3.241 . S
C759 C145 2.795 . S
C777 C49 2.865 1_655 S
C779 C278 3.255 . S
C797 C318 3.212 . S
C795 C81 2.823 1_565 S
C815 C358 3.201 . S
C813 C113 2.827 . S
C831 C17 2.867 . S
C833 C398 3.245 . S
