# Generated by pormake.
# Topology ctn, (3,4)-cn, num edge types: 1
# Building blocks:
#     Node 0, Type 0, BuildingBlock: BETDIP_clean_linker_0, # of connection points: 3
#     Node 1, Type 0, BuildingBlock: BETDIP_clean_linker_0, # of connection points: 3
#     Node 2, Type 0, BuildingBlock: BETDIP_clean_linker_0, # of connection points: 3
#     Node 3, Type 0, BuildingBlock: BETDIP_clean_linker_0, # of connection points: 3
#     Node 4, Type 0, BuildingBlock: BETDIP_clean_linker_0, # of connection points: 3
#     Node 5, Type 0, BuildingBlock: BETDIP_clean_linker_0, # of connection points: 3
#     Node 6, Type 0, BuildingBlock: BETDIP_clean_linker_0, # of connection points: 3
#     Node 7, Type 0, BuildingBlock: BETDIP_clean_linker_0, # of connection points: 3
#     Node 8, Type 0, BuildingBlock: BETDIP_clean_linker_0, # of connection points: 3
#     Node 9, Type 0, BuildingBlock: BETDIP_clean_linker_0, # of connection points: 3
#     Node 10, Type 0, BuildingBlock: BETDIP_clean_linker_0, # of connection points: 3
#     Node 11, Type 0, BuildingBlock: BETDIP_clean_linker_0, # of connection points: 3
#     Node 12, Type 0, BuildingBlock: BETDIP_clean_linker_0, # of connection points: 3
#     Node 13, Type 0, BuildingBlock: BETDIP_clean_linker_0, # of connection points: 3
#     Node 14, Type 0, BuildingBlock: BETDIP_clean_linker_0, # of connection points: 3
#     Node 15, Type 0, BuildingBlock: BETDIP_clean_linker_0, # of connection points: 3
#     Node 16, Type 1, BuildingBlock: TATPOV_clean_sbu_0, # of connection points: 4
#     Node 17, Type 1, BuildingBlock: TATPOV_clean_sbu_0, # of connection points: 4
#     Node 18, Type 1, BuildingBlock: TATPOV_clean_sbu_0, # of connection points: 4
#     Node 19, Type 1, BuildingBlock: TATPOV_clean_sbu_0, # of connection points: 4
#     Node 20, Type 1, BuildingBlock: TATPOV_clean_sbu_0, # of connection points: 4
#     Node 21, Type 1, BuildingBlock: TATPOV_clean_sbu_0, # of connection points: 4
#     Node 22, Type 1, BuildingBlock: TATPOV_clean_sbu_0, # of connection points: 4
#     Node 23, Type 1, BuildingBlock: TATPOV_clean_sbu_0, # of connection points: 4
#     Node 24, Type 1, BuildingBlock: TATPOV_clean_sbu_0, # of connection points: 4
#     Node 25, Type 1, BuildingBlock: TATPOV_clean_sbu_0, # of connection points: 4
#     Node 26, Type 1, BuildingBlock: TATPOV_clean_sbu_0, # of connection points: 4
#     Node 27, Type 1, BuildingBlock: TATPOV_clean_sbu_0, # of connection points: 4
#     Edge 28, Type (0, 1), BuildingBlock: EZIPEK_clean_linker_0, # of connection points: 2
#     Edge 29, Type (0, 1), BuildingBlock: EZIPEK_clean_linker_0, # of connection points: 2
#     Edge 30, Type (0, 1), BuildingBlock: EZIPEK_clean_linker_0, # of connection points: 2
#     Edge 31, Type (0, 1), BuildingBlock: EZIPEK_clean_linker_0, # of connection points: 2
#     Edge 32, Type (0, 1), BuildingBlock: EZIPEK_clean_linker_0, # of connection points: 2
#     Edge 33, Type (0, 1), BuildingBlock: EZIPEK_clean_linker_0, # of connection points: 2
#     Edge 34, Type (0, 1), BuildingBlock: EZIPEK_clean_linker_0, # of connection points: 2
#     Edge 35, Type (0, 1), BuildingBlock: EZIPEK_clean_linker_0, # of connection points: 2
#     Edge 36, Type (0, 1), BuildingBlock: EZIPEK_clean_linker_0, # of connection points: 2
#     Edge 37, Type (0, 1), BuildingBlock: EZIPEK_clean_linker_0, # of connection points: 2
#     Edge 38, Type (0, 1), BuildingBlock: EZIPEK_clean_linker_0, # of connection points: 2
#     Edge 39, Type (0, 1), BuildingBlock: EZIPEK_clean_linker_0, # of connection points: 2
#     Edge 40, Type (0, 1), BuildingBlock: EZIPEK_clean_linker_0, # of connection points: 2
#     Edge 41, Type (0, 1), BuildingBlock: EZIPEK_clean_linker_0, # of connection points: 2
#     Edge 42, Type (0, 1), BuildingBlock: EZIPEK_clean_linker_0, # of connection points: 2
#     Edge 43, Type (0, 1), BuildingBlock: EZIPEK_clean_linker_0, # of connection points: 2
#     Edge 44, Type (0, 1), BuildingBlock: EZIPEK_clean_linker_0, # of connection points: 2
#     Edge 45, Type (0, 1), BuildingBlock: EZIPEK_clean_linker_0, # of connection points: 2
#     Edge 46, Type (0, 1), BuildingBlock: EZIPEK_clean_linker_0, # of connection points: 2
#     Edge 47, Type (0, 1), BuildingBlock: EZIPEK_clean_linker_0, # of connection points: 2
#     Edge 48, Type (0, 1), BuildingBlock: EZIPEK_clean_linker_0, # of connection points: 2
#     Edge 49, Type (0, 1), BuildingBlock: EZIPEK_clean_linker_0, # of connection points: 2
#     Edge 50, Type (0, 1), BuildingBlock: EZIPEK_clean_linker_0, # of connection points: 2
#     Edge 51, Type (0, 1), BuildingBlock: EZIPEK_clean_linker_0, # of connection points: 2
#     Edge 52, Type (0, 1), BuildingBlock: EZIPEK_clean_linker_0, # of connection points: 2
#     Edge 53, Type (0, 1), BuildingBlock: EZIPEK_clean_linker_0, # of connection points: 2
#     Edge 54, Type (0, 1), BuildingBlock: EZIPEK_clean_linker_0, # of connection points: 2
#     Edge 55, Type (0, 1), BuildingBlock: EZIPEK_clean_linker_0, # of connection points: 2
#     Edge 56, Type (0, 1), BuildingBlock: EZIPEK_clean_linker_0, # of connection points: 2
#     Edge 57, Type (0, 1), BuildingBlock: EZIPEK_clean_linker_0, # of connection points: 2
#     Edge 58, Type (0, 1), BuildingBlock: EZIPEK_clean_linker_0, # of connection points: 2
#     Edge 59, Type (0, 1), BuildingBlock: EZIPEK_clean_linker_0, # of connection points: 2
#     Edge 60, Type (0, 1), BuildingBlock: EZIPEK_clean_linker_0, # of connection points: 2
#     Edge 61, Type (0, 1), BuildingBlock: EZIPEK_clean_linker_0, # of connection points: 2
#     Edge 62, Type (0, 1), BuildingBlock: EZIPEK_clean_linker_0, # of connection points: 2
#     Edge 63, Type (0, 1), BuildingBlock: EZIPEK_clean_linker_0, # of connection points: 2
#     Edge 64, Type (0, 1), BuildingBlock: EZIPEK_clean_linker_0, # of connection points: 2
#     Edge 65, Type (0, 1), BuildingBlock: EZIPEK_clean_linker_0, # of connection points: 2
#     Edge 66, Type (0, 1), BuildingBlock: EZIPEK_clean_linker_0, # of connection points: 2
#     Edge 67, Type (0, 1), BuildingBlock: EZIPEK_clean_linker_0, # of connection points: 2
#     Edge 68, Type (0, 1), BuildingBlock: EZIPEK_clean_linker_0, # of connection points: 2
#     Edge 69, Type (0, 1), BuildingBlock: EZIPEK_clean_linker_0, # of connection points: 2
#     Edge 70, Type (0, 1), BuildingBlock: EZIPEK_clean_linker_0, # of connection points: 2
#     Edge 71, Type (0, 1), BuildingBlock: EZIPEK_clean_linker_0, # of connection points: 2
#     Edge 72, Type (0, 1), BuildingBlock: EZIPEK_clean_linker_0, # of connection points: 2
#     Edge 73, Type (0, 1), BuildingBlock: EZIPEK_clean_linker_0, # of connection points: 2
#     Edge 74, Type (0, 1), BuildingBlock: EZIPEK_clean_linker_0, # of connection points: 2
#     Edge 75, Type (0, 1), BuildingBlock: EZIPEK_clean_linker_0, # of connection points: 2
# Relax obj value: 0.074
# Max RMSD: 0.194
# Mean RMSD: 0.112
data_MOF--net-ctn--node1-TATPOV_clean_sbu_0--node2-BETDIP_clean_linker_0--edge1-EZIPEK_clean_linker_0
_symmetry_space_group_name_H-M    P1
_symmetry_Int_Tables_number       1
_symmetry_cell_setting            triclinic
loop_
_symmetry_equiv_pos_as_xyz
'x, y, z'
_cell_length_a     37.667159
_cell_length_b     37.89385
_cell_length_c     42.003533
_cell_angle_alpha  95.332414
_cell_angle_beta   95.416282
_cell_angle_gamma 94.784313
loop_
_atom_site_label
_atom_site_type_symbol
_atom_site_fract_x
_atom_site_fract_y
_atom_site_fract_z
_atom_type_partial_charge
H0 H 0.99812 0.05365 0.05115 0.0
H1 H 0.07834 0.00635 0.99897 0.0
H2 H 0.05268 0.96801 0.08774 0.0
H3 H 0.08167 0.05604 0.97599 0.0
C4 C 0.05662 0.06807 0.97694 0.0
C5 C 0.01778 0.03449 0.04893 0.0
C6 C 0.02278 0.01088 0.07256 0.0
C7 C 0.03822 0.03391 0.02266 0.0
C8 C 0.06312 0.00837 0.01952 0.0
C9 C 0.06847 0.98468 0.04293 0.0
C10 C 0.04852 0.98622 0.06959 0.0
N11 N 0.03265 0.05904 -0.00016 0.0
H12 H 0.2112 0.67497 0.20531 0.0
H13 H 0.315 0.73255 0.21378 0.0
H14 H 0.28554 0.66844 0.28845 0.0
H15 H 0.26566 0.77795 0.20303 0.0
C16 C 0.25781 0.76189 0.18024 0.0
C17 C 0.23713 0.68256 0.21879 0.0
C18 C 0.24612 0.66812 0.24772 0.0
C19 C 0.2613 0.70723 0.20755 0.0
C20 C 0.29563 0.71522 0.22388 0.0
C21 C 0.30481 0.70185 0.25341 0.0
C22 C 0.27923 0.67898 0.26568 0.0
N23 N 0.25086 0.72444 0.18008 0.0
H24 H 0.9777 0.4899 0.01036 0.0
H25 H 0.04115 0.43742 0.07854 0.0
H26 H 0.00287 0.53825 0.10764 0.0
H27 H 0.06543 0.418 0.03093 0.0
C28 C 0.04217 0.41348 0.01323 0.0
C29 C 0.99091 0.48956 0.03441 0.0
C30 C 0.98845 0.51773 0.05792 0.0
C31 C 0.01063 0.46114 0.04138 0.0
C32 C 0.02712 0.46013 0.07255 0.0
C33 C 0.02408 0.48766 0.0966 0.0
C34 C 0.00532 0.51694 0.08913 0.0
N35 N 0.01227 0.43346 0.01666 0.0
H36 H 0.71991 0.72823 0.16675 0.0
H37 H 0.75314 0.82095 0.23383 0.0
H38 H 0.80398 0.80475 0.14724 0.0
H39 H 0.72265 0.79232 0.26761 0.0
C40 C 0.70115 0.77565 0.2531 0.0
C41 C 0.73707 0.75264 0.17388 0.0
C42 C 0.76239 0.76417 0.15376 0.0
C43 C 0.7336 0.77247 0.20308 0.0
C44 C 0.75567 0.8045 0.21186 0.0
C45 C 0.78108 0.81602 0.19175 0.0
C46 C 0.78435 0.79583 0.16276 0.0
N47 N 0.70658 0.76018 0.222 0.0
H48 H 0.04034 0.95157 0.42361 0.0
H49 H 0.14505 0.97969 0.47446 0.0
H50 H 0.11435 0.02765 0.38846 0.0
H51 H 0.11738 0.96161 0.51665 0.0
C52 C 0.09832 0.93958 0.50623 0.0
C53 C 0.06645 0.9665 0.42579 0.0
C54 C 0.07446 0.99009 0.40314 0.0
C55 C 0.0914 0.96287 0.45188 0.0
C56 C 0.12509 0.98255 0.45482 0.0
C57 C 0.13352 0.00574 0.43185 0.0
C58 C 0.10814 0.00939 0.40598 0.0
N59 N 0.08171 0.93898 0.47437 0.0
H60 H 0.20869 0.7535 0.80845 0.0
H61 H 0.24855 0.6703 0.74898 0.0
H62 H 0.30575 0.70972 0.84077 0.0
H63 H 0.21885 0.69574 0.70842 0.0
C64 C 0.19625 0.70692 0.71846 0.0
C65 C 0.2289 0.73529 0.80433 0.0
C66 C 0.25722 0.73383 0.82805 0.0
C67 C 0.22636 0.71363 0.77529 0.0
C68 C 0.25157 0.68876 0.77052 0.0
C69 C 0.28055 0.68711 0.79397 0.0
C70 C 0.28368 0.71062 0.82242 0.0
N71 N 0.19755 0.71733 0.75192 0.0
H72 H 0.95515 0.60342 0.45566 0.0
H73 H 0.90244 0.49746 0.44701 0.0
H74 H 0.88268 0.57343 0.52413 0.0
H75 H 0.95464 0.48374 0.42951 0.0
C76 C 0.96271 0.50515 0.4155 0.0
C77 C 0.93651 0.58387 0.46408 0.0
C78 C 0.91945 0.59271 0.49169 0.0
C79 C 0.93202 0.54922 0.44879 0.0
C80 C 0.90757 0.524 0.45942 0.0
C81 C 0.88945 0.53281 0.48629 0.0
C82 C 0.89583 0.56699 0.50275 0.0
N83 N 0.9537 0.54023 0.42391 0.0
H84 H 0.80714 0.86172 0.77916 0.0
H85 H 0.87163 0.79104 0.82783 0.0
H86 H 0.7775 0.8243 0.86769 0.0
H87 H 0.91564 0.81552 0.80147 0.0
C88 C 0.90208 0.8215 0.77892 0.0
C89 C 0.8125 0.84674 0.79959 0.0
C90 C 0.78876 0.84603 0.82344 0.0
C91 C 0.84333 0.82867 0.80177 0.0
C92 C 0.84945 0.80746 0.82707 0.0
C93 C 0.82544 0.80537 0.85052 0.0
C94 C 0.7959 0.82578 0.84941 0.0
N95 N 0.86622 0.83064 0.7769 0.0
H96 H 0.31605 0.37632 0.29211 0.0
H97 H 0.37979 0.30105 0.33564 0.0
H98 H 0.27323 0.31205 0.36118 0.0
H99 H 0.42572 0.33176 0.31625 0.0
C100 C 0.41358 0.33996 0.294 0.0
C101 C 0.31954 0.35684 0.30922 0.0
C102 C 0.29121 0.34664 0.32676 0.0
C103 C 0.35181 0.34114 0.31251 0.0
C104 C 0.35576 0.31481 0.33379 0.0
C105 C 0.32759 0.30449 0.35157 0.0
C106 C 0.29539 0.32065 0.34818 0.0
N107 N 0.37802 0.34994 0.29164 0.0
H108 H 0.45997 0.9781 0.51236 0.0
H109 H 0.52533 0.92907 0.58175 0.0
H110 H 0.49205 0.03337 0.60623 0.0
H111 H 0.54704 0.90604 0.53389 0.0
C112 C 0.5234 0.90155 0.51661 0.0
C113 C 0.47428 0.97915 0.53613 0.0
C114 C 0.47412 0.00927 0.5581 0.0
C115 C 0.49343 0.95069 0.54415 0.0
C116 C 0.51156 0.95163 0.57494 0.0
C117 C 0.5108 0.98119 0.59753 0.0
C118 C 0.49261 0.01042 0.5889 0.0
N119 N 0.49352 0.92139 0.52069 0.0
H120 H 0.23713 0.23015 0.66286 0.0
H121 H 0.25071 0.32655 0.72673 0.0
H122 H 0.32871 0.30533 0.6605 0.0
H123 H 0.24044 0.27629 0.76203 0.0
C124 C 0.2149 0.26718 0.74824 0.0
C125 C 0.25235 0.25524 0.67174 0.0
C126 C 0.28336 0.26625 0.6579 0.0
C127 C 0.24166 0.27614 0.69771 0.0
C128 C 0.26037 0.30947 0.70794 0.0
C129 C 0.29225 0.32024 0.69511 0.0
C130 C 0.30398 0.29784 0.67049 0.0
N131 N 0.21282 0.26306 0.71411 0.0
H132 H 0.72671 0.16821 0.71626 0.0
H133 H 0.83168 0.22164 0.7157 0.0
H134 H 0.80417 0.17097 0.79874 0.0
H135 H 0.7965 0.2634 0.69344 0.0
C136 C 0.78018 0.245 0.67538 0.0
C137 C 0.75321 0.17665 0.72827 0.0
C138 C 0.76339 0.16588 0.75863 0.0
C139 C 0.77705 0.19856 0.71352 0.0
C140 C 0.81223 0.20711 0.72817 0.0
C141 C 0.82228 0.1981 0.7593 0.0
C142 C 0.7971 0.1782 0.77473 0.0
N143 N 0.76522 0.21204 0.68424 0.0
H144 H 0.49803 0.55476 0.54804 0.0
H145 H 0.57877 0.50384 0.49942 0.0
H146 H 0.55351 0.47337 0.59114 0.0
H147 H 0.58261 0.55127 0.47361 0.0
C148 C 0.55828 0.56456 0.47447 0.0
C149 C 0.51765 0.53542 0.5471 0.0
C150 C 0.52289 0.51409 0.57247 0.0
C151 C 0.53826 0.53286 0.52101 0.0
C152 C 0.5633 0.5073 0.51971 0.0
C153 C 0.56897 0.48585 0.5449 0.0
C154 C 0.54895 0.48956 0.57146 0.0
N155 N 0.53344 0.55675 0.49698 0.0
H156 H 0.54668 0.46517 0.92345 0.0
H157 H 0.64863 0.48932 0.98015 0.0
H158 H 0.62779 0.53679 0.89201 0.0
H159 H 0.61402 0.4766 0.02087 0.0
C160 C 0.59627 0.45384 0.00976 0.0
C161 C 0.57344 0.47881 0.92699 0.0
C162 C 0.58461 0.50154 0.90463 0.0
C163 C 0.596 0.47457 0.95454 0.0
C164 C 0.63055 0.49263 0.95926 0.0
C165 C 0.64217 0.51483 0.93659 0.0
C166 C 0.61915 0.51914 0.90925 0.0
N167 N 0.58311 0.45182 0.97676 0.0
H168 H 0.70592 0.2525 0.29804 0.0
H169 H 0.75015 0.16949 0.24171 0.0
H170 H 0.80105 0.20903 0.33565 0.0
H171 H 0.71315 0.1805 0.20151 0.0
C172 C 0.69673 0.20139 0.20871 0.0
C173 C 0.72637 0.23429 0.29515 0.0
C174 C 0.753 0.23261 0.32039 0.0
C175 C 0.72586 0.21279 0.26617 0.0
C176 C 0.75135 0.18786 0.26312 0.0
C177 C 0.77882 0.18627 0.28799 0.0
C178 C 0.78011 0.20981 0.31623 0.0
N179 N 0.69942 0.21752 0.24087 0.0
H180 H 0.4865 0.11314 0.98526 0.0
H181 H 0.4309 0.00853 0.96484 0.0
H182 H 0.39624 0.0832 0.0361 0.0
H183 H 0.44572 0.02043 0.91284 0.0
C184 C 0.47394 0.02822 0.92022 0.0
C185 C 0.4653 0.0936 0.98968 0.0
C186 C 0.44186 0.10214 0.01273 0.0
C187 C 0.46089 0.06034 0.97164 0.0
C188 C 0.4338 0.03488 0.97778 0.0
C189 C 0.4107 0.04291 0.00113 0.0
C190 C 0.41436 0.07678 0.01829 0.0
N191 N 0.48424 0.0528 0.9478 0.0
Zn192 Zn 0.31302 0.84112 0.00939 0.0
Zn193 Zn 0.24794 0.86901 0.00667 0.0
O194 O 0.25012 0.84253 0.04754 0.0
O195 O 0.30219 0.8196 0.04973 0.0
O196 O 0.2022 0.8943 0.00797 0.0
O197 O 0.33805 0.89048 0.01201 0.0
O198 O 0.28537 0.9121 0.0088 0.0
C199 C 0.27293 0.82436 0.06129 0.0
C200 C 0.26673 0.81705 0.9512 0.0
O201 O 0.24433 0.8365 0.96346 0.0
O202 O 0.29713 0.81463 0.96602 0.0
C203 C 0.17598 0.88552 0.02356 0.0
O204 O 0.17579 0.85639 0.03823 0.0
C205 C 0.31941 0.91669 0.01077 0.0
Zn206 Zn 0.08589 0.41832 0.27755 0.0
Zn207 Zn 0.12695 0.48224 0.28725 0.0
O208 O 0.09177 0.49012 0.32066 0.0
O209 O 0.05786 0.43888 0.31281 0.0
O210 O 0.15955 0.52723 0.28984 0.0
O211 O 0.1302 0.39298 0.28892 0.0
O212 O 0.16216 0.44509 0.29648 0.0
C213 C 0.06535 0.46986 0.32727 0.0
C214 C 0.08187 0.45812 0.22265 0.0
O215 O 0.10285 0.48054 0.24145 0.0
O216 O 0.07119 0.42841 0.23167 0.0
C217 C 0.14771 0.55582 0.28163 0.0
O218 O 0.11316 0.55692 0.27437 0.0
C219 C 0.15999 0.41136 0.29634 0.0
Zn220 Zn 0.85259 0.61742 0.93784 0.0
Zn221 Zn 0.83237 0.65395 0.99114 0.0
O222 O 0.87609 0.63032 0.00849 0.0
O223 O 0.89381 0.60083 0.96598 0.0
O224 O 0.81875 0.68067 0.03085 0.0
O225 O 0.85552 0.6639 0.91714 0.0
O226 O 0.83747 0.69234 0.96005 0.0
C227 C 0.89711 0.60968 0.99601 0.0
C228 C 0.7818 0.59404 0.95366 0.0
O229 O 0.78935 0.61803 0.97714 0.0
O230 O 0.80398 0.58836 0.93328 0.0
C231 C 0.78685 0.6881 0.03356 0.0
O232 O 0.76175 0.6786 0.0097 0.0
C233 C 0.84655 0.69213 0.93161 0.0
Zn234 Zn 0.87968 0.99897 0.29374 0.0
Zn235 Zn 0.91634 0.01536 0.24508 0.0
O236 O 0.89006 0.06134 0.25475 0.0
O237 O 0.85469 0.04307 0.28991 0.0
O238 O 0.94577 0.02257 0.20728 0.0
O239 O 0.9255 -0.00017 0.32272 0.0
O240 O 0.95561 0.0094 0.28128 0.0
C241 C 0.86527 0.06699 0.27293 0.0
C242 C 0.86311 0.94707 0.24163 0.0
O243 O 0.88414 0.9685 0.22883 0.0
O244 O 0.85718 0.9533 0.27061 0.0
C245 C 0.93266 0.01596 0.17805 0.0
O246 O 0.89811 0.007 0.17144 0.0
C247 C 0.95493 0.00392 0.3107 0.0
Zn248 Zn 0.34404 0.10944 0.43291 0.0
Zn249 Zn 0.32223 0.14671 0.48528 0.0
O250 O 0.36456 0.12186 0.5039 0.0
O251 O 0.38359 0.0919 0.4623 0.0
O252 O 0.30703 0.17444 0.52396 0.0
O253 O 0.34983 0.15564 0.41212 0.0
O254 O 0.33004 0.1845 0.45397 0.0
C255 C 0.38569 0.10074 0.4923 0.0
C256 C 0.27179 0.08766 0.44677 0.0
O257 O 0.27883 0.11163 0.47034 0.0
O258 O 0.29468 0.08171 0.42711 0.0
C259 C 0.32965 0.18793 0.54713 0.0
O260 O 0.36388 0.18435 0.54591 0.0
C261 C 0.34068 0.18409 0.42606 0.0
Zn262 Zn 0.39622 0.50756 0.7962 0.0
Zn263 Zn 0.42169 0.52234 0.74709 0.0
O264 O 0.39721 0.56886 0.75788 0.0
O265 O 0.36161 0.54497 0.79013 0.0
O266 O 0.44802 0.52574 0.70698 0.0
O267 O 0.44024 0.51858 0.82648 0.0
O268 O 0.46457 0.51601 0.78085 0.0
C269 C 0.37087 0.57097 0.77486 0.0
C270 C 0.3749 0.4529 0.74952 0.0
O271 O 0.38416 0.47844 0.73342 0.0
O272 O 0.38361 0.4564 0.77945 0.0
C273 C 0.43563 0.5324 0.67915 0.0
O274 O 0.40251 0.5407 0.67436 0.0
C275 C 0.46764 0.51719 0.81146 0.0
Zn276 Zn 0.80336 0.33074 0.50497 0.0
Zn277 Zn 0.73712 0.35496 0.50486 0.0
O278 O 0.74104 0.32513 0.54396 0.0
O279 O 0.79513 0.30659 0.54452 0.0
O280 O 0.69011 0.37811 0.50709 0.0
O281 O 0.82629 0.38095 0.50805 0.0
O282 O 0.77249 0.39981 0.5081 0.0
C283 C 0.76572 0.30816 0.55662 0.0
C284 C 0.75745 0.30797 0.44654 0.0
O285 O 0.73453 0.32583 0.4599 0.0
O286 O 0.78805 0.30562 0.46102 0.0
C287 C 0.68128 0.39024 0.53427 0.0
O288 O 0.701 0.38499 0.56059 0.0
C289 C 0.80627 0.40614 0.50847 0.0
Zn290 Zn 0.58665 0.92577 0.78007 0.0
Zn291 Zn 0.62635 0.98901 0.7851 0.0
O292 O 0.5928 0.00068 0.81867 0.0
O293 O 0.56316 0.94773 0.81838 0.0
O294 O 0.65872 0.03313 0.78265 0.0
O295 O 0.63227 0.90087 0.78621 0.0
O296 O 0.66186 0.95344 0.79858 0.0
C297 C 0.56938 0.98018 0.82951 0.0
C298 C 0.5768 0.96071 0.72342 0.0
O299 O 0.60026 0.98316 0.73955 0.0
O300 O 0.56553 0.93288 0.73526 0.0
C301 C 0.6671 0.05956 0.80365 0.0
O302 O 0.6543 0.0601 0.83169 0.0
C303 C 0.66123 0.91966 0.79634 0.0
Zn304 Zn 0.02784 0.29649 0.83373 0.0
Zn305 Zn 0.03518 0.24034 0.86135 0.0
O306 O 0.07969 0.24445 0.83602 0.0
O307 O 0.06551 0.28556 0.80444 0.0
O308 O 0.04249 0.19906 0.88819 0.0
O309 O 0.04234 0.32957 0.87316 0.0
O310 O 0.03276 0.28133 0.8975 0.0
C311 C 0.08621 0.26273 0.81287 0.0
C312 C 0.96584 0.24732 0.82059 0.0
O313 O 0.98785 0.22669 0.83185 0.0
O314 O 0.97532 0.28032 0.82258 0.0
C315 C 0.02693 0.16767 0.88288 0.0
O316 O 0.00439 0.15883 0.85702 0.0
C317 C 0.03854 0.3151 0.89867 0.0
Zn318 Zn 0.51158 0.79264 0.33425 0.0
Zn319 Zn 0.51646 0.73444 0.35898 0.0
O320 O 0.56198 0.73816 0.33485 0.0
O321 O 0.55057 0.78242 0.30617 0.0
O322 O 0.51933 0.69138 0.3842 0.0
O323 O 0.52523 0.82379 0.3748 0.0
O324 O 0.51441 0.774 0.39655 0.0
C325 C 0.57041 0.75846 0.31362 0.0
C326 C 0.44859 0.74498 0.3177 0.0
O327 O 0.46989 0.72326 0.32809 0.0
O328 O 0.4589 0.77785 0.32144 0.0
C329 C 0.5433 0.66968 0.3834 0.0
O330 O 0.56802 0.67293 0.36356 0.0
C331 C 0.52065 0.80781 0.39936 0.0
Zn332 Zn 0.9551 0.80439 0.58712 0.0
Zn333 Zn 0.01309 0.77395 0.61381 0.0
O334 O 0.03614 0.81359 0.59039 0.0
O335 O 0.99019 0.84125 0.57212 0.0
O336 O 0.05437 0.74993 0.63296 0.0
O337 O 0.93933 0.81109 0.63229 0.0
O338 O 0.98842 0.79002 0.65285 0.0
C339 C 0.02356 0.83838 0.57558 0.0
C340 C 0.95775 0.73098 0.56356 0.0
O341 O 0.98459 0.73367 0.58471 0.0
O342 O 0.94102 0.7579 0.55848 0.0
C343 C 0.08243 0.76781 0.64695 0.0
O344 O 0.08524 0.8027 0.64815 0.0
C345 C 0.95896 0.8033 0.65636 0.0
Zn346 Zn 0.45884 0.31671 0.10114 0.0
Zn347 Zn 0.52201 0.29335 0.12593 0.0
O348 O 0.53977 0.33329 0.10037 0.0
O349 O 0.4897 0.35305 0.08023 0.0
O350 O 0.56664 0.27504 0.14537 0.0
O351 O 0.4464 0.32768 0.14687 0.0
O352 O 0.49708 0.30808 0.16553 0.0
C353 C 0.5236 0.35438 0.08345 0.0
C354 C 0.46742 0.24308 0.08086 0.0
O355 O 0.4973 0.25001 0.09799 0.0
O356 O 0.44561 0.26666 0.0784 0.0
C357 C 0.58549 0.25549 0.12897 0.0
O358 O 0.57677 0.2478 0.09793 0.0
C359 C 0.46764 0.32091 0.17027 0.0
C360 C 0.24405 0.74012 0.88574 0.0
C361 C 0.25784 0.7557 0.85943 0.0
C362 C 0.26829 0.81372 0.89172 0.0
C363 C 0.25845 0.79721 0.91894 0.0
N364 N 0.23909 0.74472 0.94316 0.0
N365 N 0.28554 0.80631 0.83738 0.0
C366 C 0.24671 0.76042 0.91627 0.0
C367 C 0.27042 0.79234 0.86235 0.0
N368 N 0.22759 0.70621 0.88128 0.0
N369 N 0.27543 0.8499 0.89405 0.0
H370 H 0.28726 0.79148 0.81546 0.0
H371 H 0.29868 0.83178 0.83897 0.0
H372 H 0.27438 0.86615 0.91535 0.0
H373 H 0.27947 0.86416 0.87449 0.0
H374 H 0.21362 0.69462 0.89846 0.0
H375 H 0.22547 0.6904 0.85938 0.0
H376 H 0.2348 0.71731 0.94377 0.0
H377 H 0.23888 0.75916 0.96554 0.0
C378 C 0.02154 0.48289 0.40471 0.0
C379 C 0.99068 0.4991 0.39359 0.0
C380 C 0.01352 0.503 0.34118 0.0
C381 C 0.04184 0.48276 0.35106 0.0
N382 N 0.072 0.45086 0.39094 0.0
N383 N 0.95461 0.5206 0.35018 0.0
C384 C 0.04568 0.47201 0.38251 0.0
C385 C 0.98609 0.50852 0.36163 0.0
N386 N 0.02851 0.4792 0.43672 0.0
N387 N 0.01279 0.51676 0.31218 0.0
H388 H 0.93344 0.52413 0.3641 0.0
H389 H 0.9481 0.52419 0.32612 0.0
H390 H 0.03189 0.51235 0.29616 0.0
H391 H 0.99505 0.53489 0.30511 0.0
H392 H 0.05235 0.47091 0.44679 0.0
H393 H 0.01194 0.48764 0.4539 0.0
H394 H 0.07346 0.43847 0.41208 0.0
H395 H 0.0913 0.44388 0.37584 0.0
C396 C 0.85406 0.78419 0.90114 0.0
C397 C 0.82886 0.77791 0.87342 0.0
C398 C 0.81157 0.71811 0.88766 0.0
C399 C 0.83981 0.72265 0.91297 0.0
N400 N 0.88955 0.75878 0.94318 0.0
N401 N 0.78735 0.73716 0.83738 0.0
C402 C 0.86137 0.75551 0.91976 0.0
C403 C 0.8085 0.74444 0.86595 0.0
N404 N 0.87058 0.81767 0.90975 0.0
N405 N 0.78691 0.68908 0.88497 0.0
H406 H 0.78429 0.7556 0.82062 0.0
H407 H 0.77527 0.71186 0.829 0.0
H408 H 0.78783 0.66932 0.90067 0.0
H409 H 0.76356 0.68633 0.8692 0.0
H410 H 0.88668 0.825 0.93126 0.0
H411 H 0.86595 0.83899 0.89636 0.0
H412 H 0.90865 0.78063 0.94716 0.0
H413 H 0.8952 0.73842 0.95744 0.0
C414 C 0.04031 0.9717 0.34917 0.0
C415 C 0.04652 0.99591 0.37738 0.0
C416 C 0.99775 0.02963 0.35759 0.0
C417 C 0.98858 0.00283 0.33157 0.0
N418 N 0.99879 0.94674 0.3034 0.0
N419 N 0.02994 0.04634 0.41027 0.0
C420 C 0.00947 0.97358 0.32731 0.0
C421 C 0.02507 0.02464 0.38201 0.0
N422 N 0.06413 0.94717 0.34323 0.0
N423 N 0.98081 0.0602 0.3585 0.0
H424 H 0.05015 0.04403 0.42851 0.0
H425 H 0.01248 0.06505 0.41668 0.0
H426 H 0.96083 0.06479 0.3408 0.0
H427 H 0.98867 0.08231 0.37504 0.0
H428 H 0.0632 0.93115 0.3216 0.0
H429 H 0.08671 0.94482 0.35904 0.0
H430 H 0.0104 0.92276 0.30134 0.0
H431 H 0.97656 0.94733 0.28672 0.0
C432 C 0.31328 0.21503 0.63357 0.0
C433 C 0.29411 0.24521 0.6295 0.0
C434 C 0.30059 0.23932 0.57183 0.0
C435 C 0.31738 0.20758 0.57547 0.0
N436 N 0.33436 0.1616 0.60839 0.0
N437 N 0.26421 0.28305 0.59464 0.0
C438 C 0.32234 0.19442 0.60598 0.0
C439 C 0.28616 0.25645 0.59855 0.0
N440 N 0.32363 0.20665 0.66382 0.0
N441 N 0.29985 0.25394 0.54322 0.0
H442 H 0.25344 0.29654 0.61373 0.0
H443 H 0.25424 0.2898 0.57226 0.0
H444 H 0.31049 0.24239 0.52313 0.0
H445 H 0.29157 0.27905 0.54013 0.0
H446 H 0.34113 0.18746 0.6685 0.0
H447 H 0.31684 0.22075 0.68457 0.0
H448 H 0.33487 0.1489 0.62934 0.0
H449 H 0.341 0.14557 0.58867 0.0
C450 C 0.51093 0.54652 0.62503 0.0
C451 C 0.50119 0.51812 0.60038 0.0
C452 C 0.44759 0.5002 0.62647 0.0
C453 C 0.4579 0.52795 0.65172 0.0
N454 N 0.50047 0.57577 0.67689 0.0
N455 N 0.46284 0.46574 0.57865 0.0
C456 C 0.48998 0.55054 0.65154 0.0
C457 C 0.47019 0.49437 0.6014 0.0
N458 N 0.53988 0.5701 0.62264 0.0
N459 N 0.41605 0.47946 0.62643 0.0
H460 H 0.47789 0.46142 0.55928 0.0
H461 H 0.44323 0.445 0.57967 0.0
H462 H 0.40006 0.48096 0.64535 0.0
H463 H 0.40457 0.46169 0.60713 0.0
H464 H 0.54631 0.59378 0.63743 0.0
H465 H 0.55692 0.56694 0.6046 0.0
H466 H 0.52546 0.59026 0.6805 0.0
H467 H 0.48467 0.58135 0.69549 0.0
C468 C 0.75813 0.29323 0.64422 0.0
C469 C 0.76906 0.25828 0.64411 0.0
C470 C 0.7653 0.25336 0.5853 0.0
C471 C 0.76108 0.29026 0.58606 0.0
N472 N 0.75681 0.34659 0.61682 0.0
N473 N 0.78691 0.206 0.61448 0.0
C474 C 0.75782 0.31052 0.61561 0.0
C475 C 0.77313 0.23825 0.61461 0.0
N476 N 0.74763 0.30973 0.67165 0.0
N477 N 0.76172 0.23279 0.55648 0.0
H478 H 0.7941 0.19429 0.63533 0.0
H479 H 0.79421 0.19224 0.59383 0.0
H480 H 0.75559 0.24313 0.53464 0.0
H481 H 0.76117 0.20514 0.5545 0.0
H482 H 0.73616 0.33384 0.6724 0.0
H483 H 0.7469 0.29753 0.69289 0.0
H484 H 0.7587 0.36314 0.63826 0.0
H485 H 0.75702 0.36047 0.59656 0.0
C486 C 0.56573 0.98276 0.63649 0.0
C487 C 0.52785 0.98012 0.6307 0.0
C488 C 0.52287 0.97099 0.6871 0.0
C489 C 0.56039 0.9686 0.69172 0.0
N490 N 0.61741 0.96815 0.66993 0.0
N491 N 0.46989 0.96668 0.64912 0.0
C492 C 0.58191 0.97368 0.66625 0.0
C493 C 0.50624 0.97303 0.65566 0.0
N494 N 0.58616 0.99439 0.61364 0.0
N495 N 0.50327 0.97264 0.71291 0.0
H496 H 0.45651 0.9679 0.62642 0.0
H497 H 0.45327 0.95729 0.66556 0.0
H498 H 0.51454 0.9721 0.73649 0.0
H499 H 0.47656 0.97817 0.71133 0.0
H500 H 0.61382 0.00027 0.6176 0.0
H501 H 0.57505 0.00128 0.59162 0.0
H502 H 0.63356 0.96769 0.65112 0.0
H503 H 0.63014 0.96097 0.69118 0.0
C504 C 0.8739 0.24553 0.77434 0.0
C505 C 0.85897 0.21014 0.77563 0.0
C506 C 0.91175 0.20069 0.81141 0.0
C507 C 0.92945 0.23344 0.80457 0.0
N508 N 0.92881 0.27949 0.76777 0.0
N509 N 0.8708 0.1507 0.78807 0.0
C510 C 0.91106 0.25378 0.78255 0.0
C511 C 0.87998 0.18654 0.79193 0.0
N512 N 0.85291 0.27165 0.76625 0.0
N513 N 0.92346 0.18385 0.83722 0.0
H514 H 0.84965 0.1388 0.7718 0.0
H515 H 0.88708 0.13275 0.79806 0.0
H516 H 0.94347 0.19521 0.85484 0.0
H517 H 0.90955 0.16097 0.8435 0.0
H518 H 0.86319 0.29819 0.76699 0.0
H519 H 0.82502 0.26762 0.76284 0.0
H520 H 0.91578 0.29325 0.75043 0.0
H521 H 0.95665 0.28309 0.76887 0.0
C522 C 0.50808 0.88654 0.45721 0.0
C523 C 0.52362 0.87704 0.48691 0.0
C524 C 0.54 0.82185 0.45899 0.0
C525 C 0.51978 0.8294 0.43052 0.0
N526 N 0.47537 0.86417 0.40639 0.0
N527 N 0.54949 0.8325 0.51709 0.0
C528 C 0.50089 0.86023 0.43084 0.0
C529 C 0.53822 0.84374 0.48816 0.0
N530 N 0.50234 0.92107 0.45329 0.0
N531 N 0.56217 0.7951 0.45804 0.0
H532 H 0.54843 0.84756 0.539 0.0
H533 H 0.55689 0.80691 0.51945 0.0
H534 H 0.56522 0.77922 0.43704 0.0
H535 H 0.5801 0.79091 0.47747 0.0
H536 H 0.49347 0.92925 0.43111 0.0
H537 H 0.51117 0.94213 0.47076 0.0
H538 H 0.45909 0.88514 0.40713 0.0
H539 H 0.46752 0.84442 0.38744 0.0
C540 C 0.15759 0.23378 0.76005 0.0
C541 C 0.18224 0.26474 0.76541 0.0
C542 C 0.14718 0.29008 0.80667 0.0
C543 C 0.12038 0.26132 0.79841 0.0
N544 N 0.09783 0.20718 0.76554 0.0
N545 N 0.1981 0.3247 0.79057 0.0
C546 C 0.12497 0.23343 0.77468 0.0
C547 C 0.17654 0.29345 0.78802 0.0
N548 N 0.16606 0.20417 0.74226 0.0
N549 N 0.14486 0.31385 0.83281 0.0
H550 H 0.21966 0.32872 0.77708 0.0
H551 H 0.19272 0.34784 0.80392 0.0
H552 H 0.12368 0.31222 0.84709 0.0
H553 H 0.16547 0.33312 0.84216 0.0
H554 H 0.15084 0.17968 0.74016 0.0
H555 H 0.19014 0.20305 0.73199 0.0
H556 H 0.09783 0.1884 0.7458 0.0
H557 H 0.07409 0.20559 0.7765 0.0
C558 C 0.54781 0.58038 0.41786 0.0
C559 C 0.55183 0.59136 0.45137 0.0
C560 C 0.55151 0.65387 0.44028 0.0
C561 C 0.54518 0.64268 0.40683 0.0
N562 N 0.53123 0.59545 0.36385 0.0
N563 N 0.55385 0.63794 0.495 0.0
C564 C 0.54173 0.60595 0.39562 0.0
C565 C 0.55219 0.6279 0.46273 0.0
N566 N 0.55015 0.5455 0.40727 0.0
N567 N 0.55917 0.68928 0.45053 0.0
H568 H 0.55759 0.62039 0.51244 0.0
H569 H 0.54947 0.66336 0.50457 0.0
H570 H 0.55971 0.70913 0.43494 0.0
H571 H 0.56803 0.69899 0.47418 0.0
H572 H 0.5519 0.53652 0.38333 0.0
H573 H 0.55253 0.52559 0.4227 0.0
H574 H 0.52444 0.56903 0.35465 0.0
H575 H 0.52628 0.61341 0.34695 0.0
C576 C 0.9298 0.78389 0.73773 0.0
C577 C 0.92032 0.81782 0.74925 0.0
C578 C 0.94171 0.84325 0.70215 0.0
C579 C 0.9469 0.80851 0.68881 0.0
N580 N 0.94168 0.74495 0.69165 0.0
N581 N 0.91636 0.88006 0.74296 0.0
C582 C 0.94022 0.7786 0.70613 0.0
C583 C 0.92596 0.8476 0.73156 0.0
N584 N 0.92854 0.7566 0.75687 0.0
N585 N 0.9533 0.87214 0.68736 0.0
H586 H 0.90793 0.88511 0.76576 0.0
H587 H 0.9153 0.90165 0.72939 0.0
H588 H 0.96548 0.86994 0.66606 0.0
H589 H 0.95372 0.89834 0.69743 0.0
H590 H 0.93902 0.73247 0.75128 0.0
H591 H 0.91959 0.75891 0.77965 0.0
H592 H 0.93313 0.72197 0.70162 0.0
H593 H 0.94848 0.73974 0.66829 0.0
C594 C 0.08391 0.87657 0.51724 0.0
C595 C 0.08418 0.91342 0.52708 0.0
C596 C 0.05275 0.89963 0.57355 0.0
C597 C 0.04771 0.86338 0.56086 0.0
N598 N 0.05616 0.81698 0.51961 0.0
N599 N 0.06732 0.96083 0.56346 0.0
C600 C 0.06301 0.85162 0.53262 0.0
C601 C 0.06867 0.92523 0.55523 0.0
N602 N 0.10443 0.86547 0.49374 0.0
N603 N 0.04272 0.90938 0.60332 0.0
H604 H 0.07883 0.9805 0.55086 0.0
H605 H 0.05264 0.97096 0.58144 0.0
H606 H 0.03099 0.89114 0.61727 0.0
H607 H 0.04888 0.93472 0.6154 0.0
H608 H 0.10819 0.83887 0.48765 0.0
H609 H 0.1206 0.88311 0.48243 0.0
H610 H 0.06291 0.80785 0.49702 0.0
H611 H 0.04144 0.79769 0.53039 0.0
C612 C 0.17484 0.7405 0.67244 0.0
C613 C 0.16691 0.71856 0.69695 0.0
C614 C 0.10355 0.72888 0.68865 0.0
C615 C 0.11114 0.74951 0.66317 0.0
N616 N 0.15207 0.76826 0.62589 0.0
N617 N 0.12297 0.68422 0.7224 0.0
C618 C 0.14624 0.75329 0.65355 0.0
C619 C 0.13098 0.71038 0.7032 0.0
N620 N 0.20963 0.75073 0.66826 0.0
N621 N 0.07075 0.72838 0.70015 0.0
H622 H 0.14237 0.66944 0.73272 0.0
H623 H 0.09686 0.67466 0.72531 0.0
H624 H 0.05001 0.74213 0.6907 0.0
H625 H 0.06513 0.71701 0.72097 0.0
H626 H 0.21693 0.77008 0.65344 0.0
H627 H 0.23148 0.742 0.68144 0.0
H628 H 0.17631 0.76835 0.61583 0.0
H629 H 0.13168 0.77765 0.61132 0.0
C630 C 0.96482 0.63955 0.52127 0.0
C631 C 0.92855 0.62822 0.51022 0.0
C632 C 0.91054 0.68283 0.53743 0.0
C633 C 0.94715 0.69625 0.5442 0.0
N634 N 0.00847 0.69035 0.53307 0.0
N635 N 0.86748 0.64322 0.50172 0.0
C636 C 0.97417 0.67551 0.53334 0.0
C637 C 0.90149 0.65109 0.51645 0.0
N638 N 0.99027 0.61587 0.52138 0.0
N639 N 0.88451 0.69905 0.55216 0.0
H640 H 0.86005 0.62085 0.4853 0.0
H641 H 0.84774 0.66083 0.5033 0.0
H642 H 0.88996 0.72098 0.56934 0.0
H643 H 0.85794 0.68819 0.55003 0.0
H644 H 0.01647 0.62265 0.53181 0.0
H645 H 0.98428 0.58869 0.51454 0.0
H646 H 0.02817 0.67663 0.52288 0.0
H647 H 0.01606 0.71741 0.53916 0.0
C648 C 0.79319 0.88218 0.19184 0.0
C649 C 0.80453 0.84948 0.20112 0.0
C650 C 0.85808 0.88082 0.23226 0.0
C651 C 0.84634 0.91358 0.22358 0.0
N652 N 0.80741 0.94579 0.19057 0.0
N653 N 0.85034 0.8162 0.22452 0.0
C654 C 0.81543 0.91431 0.20171 0.0
C655 C 0.8379 0.84836 0.21954 0.0
N656 N 0.76056 0.88251 0.1746 0.0
N657 N 0.88806 0.88098 0.2534 0.0
H658 H 0.8358 0.79192 0.21625 0.0
H659 H 0.87599 0.81329 0.23488 0.0
H660 H 0.90483 0.90406 0.26138 0.0
H661 H 0.89575 0.85871 0.26404 0.0
H662 H 0.74872 0.9056 0.17003 0.0
H663 H 0.74412 0.85937 0.16615 0.0
H664 H 0.78721 0.9479 0.17236 0.0
H665 H 0.82285 0.96982 0.19788 0.0
C666 C 0.82283 0.15352 0.25658 0.0
C667 C 0.80497 0.15862 0.28486 0.0
C668 C 0.83881 0.11306 0.3075 0.0
C669 C 0.8493 0.10185 0.27682 0.0
N670 N 0.84632 0.11031 0.2201 0.0
N671 N 0.79027 0.13502 0.33426 0.0
C672 C 0.84029 0.12191 0.25069 0.0
C673 C 0.81146 0.13625 0.30966 0.0
N674 N 0.82393 0.17907 0.23573 0.0
N675 N 0.85523 0.10207 0.33476 0.0
H676 H 0.76739 0.14857 0.33528 0.0
H677 H 0.79296 0.1169 0.35137 0.0
H678 H 0.87743 0.08732 0.33447 0.0
H679 H 0.84968 0.1116 0.3577 0.0
H680 H 0.83905 0.17773 0.21618 0.0
H681 H 0.81319 0.20334 0.24013 0.0
H682 H 0.83685 0.12257 0.20018 0.0
H683 H 0.85754 0.08673 0.2141 0.0
C684 C 0.38831 0.99532 0.03407 0.0
C685 C 0.38285 0.01507 0.00724 0.0
C686 C 0.33266 0.97232 0.98408 0.0
C687 C 0.33787 0.95274 0.01111 0.0
N688 N 0.36375 0.9504 0.06548 0.0
N689 N 0.34484 0.02805 0.96126 0.0
C690 C 0.36352 0.96586 0.03733 0.0
C691 C 0.35321 0.00544 0.98379 0.0
N692 N 0.41813 0.00354 0.05553 0.0
N693 N 0.30993 0.95829 0.95781 0.0
H694 H 0.35953 0.05251 0.9605 0.0
H695 H 0.32156 0.02418 0.94539 0.0
H696 H 0.29461 0.93392 0.95673 0.0
H697 H 0.3083 0.96944 0.93603 0.0
H698 H 0.42576 0.98749 0.07333 0.0
H699 H 0.43673 0.02518 0.05422 0.0
H700 H 0.37955 0.96082 0.08648 0.0
H701 H 0.34551 0.92908 0.06874 0.0
C702 C 0.23424 0.34931 0.29151 0.0
C703 C 0.25621 0.36137 0.32042 0.0
C704 C 0.2123 0.40247 0.33558 0.0
C705 C 0.19264 0.39352 0.30492 0.0
N706 N 0.18791 0.36252 0.25158 0.0
N707 N 0.26873 0.40212 0.36853 0.0
C708 C 0.20428 0.36787 0.28233 0.0
C709 C 0.24592 0.38866 0.34215 0.0
N710 N 0.2417 0.31969 0.27309 0.0
N711 N 0.19822 0.42305 0.35885 0.0
H712 H 0.29326 0.3922 0.37443 0.0
H713 H 0.2646 0.42477 0.38323 0.0
H714 H 0.17337 0.4331 0.35517 0.0
H715 H 0.20952 0.42744 0.38264 0.0
H716 H 0.22454 0.30739 0.25358 0.0
H717 H 0.26347 0.30539 0.27903 0.0
H718 H 0.19773 0.34709 0.23315 0.0
H719 H 0.16635 0.37611 0.24359 0.0
C720 C 0.17123 0.06433 0.44157 0.0
C721 C 0.16897 0.02673 0.43521 0.0
C722 C 0.2344 0.02886 0.43959 0.0
C723 C 0.23645 0.06662 0.4423 0.0
N724 N 0.20626 0.12015 0.43859 0.0
N725 N 0.19796 0.97371 0.42157 0.0
C726 C 0.2047 0.08438 0.44125 0.0
C727 C 0.20045 0.0091 0.43226 0.0
N728 N 0.14174 0.08084 0.44902 0.0
N729 N 0.26455 0.01181 0.44554 0.0
H730 H 0.17354 0.95839 0.41544 0.0
H731 H 0.22001 0.96042 0.41586 0.0
H732 H 0.28984 0.02525 0.45219 0.0
H733 H 0.26392 0.98449 0.44711 0.0
H734 H 0.14284 0.10779 0.45708 0.0
H735 H 0.11684 0.06705 0.4502 0.0
H736 H 0.18355 0.13367 0.4345 0.0
H737 H 0.23012 0.13567 0.43704 0.0
C738 C 0.74828 0.10383 0.77221 0.0
C739 C 0.73967 0.13961 0.7727 0.0
C740 C 0.68358 0.12365 0.79537 0.0
C741 C 0.6933 0.08833 0.79653 0.0
N742 N 0.73872 0.0472 0.79387 0.0
N743 N 0.70309 0.18538 0.79027 0.0
C744 C 0.7269 0.07919 0.78737 0.0
C745 C 0.70853 0.15011 0.78607 0.0
N746 N 0.77591 0.09295 0.756 0.0
N747 N 0.64995 0.1315 0.80145 0.0
H748 H 0.72072 0.20536 0.78345 0.0
H749 H 0.68283 0.19505 0.80289 0.0
H750 H 0.63088 0.1129 0.80826 0.0
H751 H 0.63999 0.15569 0.79737 0.0
H752 H 0.78091 0.06637 0.75191 0.0
H753 H 0.7919 0.10997 0.74397 0.0
H754 H 0.76448 0.04049 0.79057 0.0
H755 H 0.7241 0.02881 0.80572 0.0
C756 C 0.46913 0.06365 0.52869 0.0
C757 C 0.45369 0.03893 0.54802 0.0
C758 C 0.39417 0.05787 0.53383 0.0
C759 C 0.40949 0.08245 0.51419 0.0
N760 N 0.46166 0.11463 0.49838 0.0
N761 N 0.40389 0.01847 0.57553 0.0
C762 C 0.44711 0.08722 0.51339 0.0
C763 C 0.41698 0.03826 0.55291 0.0
N764 N 0.50457 0.0636 0.52409 0.0
N765 N 0.35775 0.05126 0.5325 0.0
H766 H 0.4198 0.00318 0.58937 0.0
H767 H 0.37826 0.01972 0.58268 0.0
H768 H 0.33981 0.06446 0.51856 0.0
H769 H 0.34511 0.03062 0.54319 0.0
H770 H 0.51665 0.07774 0.50728 0.0
H771 H 0.52174 0.04797 0.53629 0.0
H772 H 0.48907 0.1217 0.49931 0.0
H773 H 0.44608 0.13234 0.48716 0.0
C774 C 0.58823 0.4242 0.53281 0.0
C775 C 0.59747 0.46075 0.54371 0.0
C776 C 0.66146 0.45097 0.54822 0.0
C777 C 0.6523 0.4146 0.53637 0.0
N778 N 0.60796 0.36669 0.51504 0.0
N779 N 0.64205 0.50993 0.56049 0.0
C780 C 0.61591 0.40126 0.52795 0.0
C781 C 0.63391 0.47434 0.55121 0.0
N782 N 0.55287 0.41147 0.52759 0.0
N783 N 0.69669 0.46312 0.55655 0.0
H784 H 0.62267 0.52738 0.56491 0.0
H785 H 0.66774 0.52286 0.56282 0.0
H786 H 0.71785 0.44805 0.55172 0.0
H787 H 0.7054 0.48778 0.56901 0.0
H788 H 0.54378 0.38467 0.52266 0.0
H789 H 0.53204 0.42771 0.5299 0.0
H790 H 0.58257 0.35585 0.50527 0.0
H791 H 0.62735 0.3488 0.51256 0.0
C792 C 0.76731 0.28901 0.35756 0.0
C793 C 0.75119 0.25351 0.35191 0.0
C794 C 0.73075 0.25792 0.40594 0.0
C795 C 0.75037 0.29175 0.4128 0.0
N796 N 0.78741 0.34022 0.39615 0.0
N797 N 0.71803 0.20329 0.37004 0.0
C798 C 0.76841 0.30764 0.38874 0.0
C799 C 0.73274 0.23781 0.37585 0.0
N800 N 0.78116 0.30494 0.33294 0.0
N801 N 0.71022 0.24519 0.42828 0.0
H802 H 0.71767 0.18824 0.3479 0.0
H803 H 0.70778 0.18872 0.38745 0.0
H804 H 0.70874 0.25918 0.45064 0.0
H805 H 0.69259 0.22223 0.42403 0.0
H806 H 0.78995 0.33185 0.33426 0.0
H807 H 0.78184 0.29166 0.31013 0.0
H808 H 0.80486 0.35156 0.38136 0.0
H809 H 0.78677 0.35563 0.41798 0.0
C810 C 0.49583 0.0278 0.86594 0.0
C811 C 0.50038 0.01843 0.89786 0.0
C812 C 0.55377 0.98884 0.88607 0.0
C813 C 0.54688 0.99493 0.85339 0.0
N814 N 0.50982 0.0169 0.81093 0.0
N815 N 0.53069 0.98665 0.93789 0.0
C816 C 0.51758 0.01367 0.84296 0.0
C817 C 0.52876 0.9983 0.90797 0.0
N818 N 0.47147 0.05115 0.85789 0.0
N819 N 0.5845 0.97451 0.89617 0.0
H820 H 0.51276 0.99284 0.95457 0.0
H821 H 0.54829 0.96859 0.94539 0.0
H822 H 0.6031 0.96687 0.88057 0.0
H823 H 0.59302 0.97282 0.92024 0.0
H824 H 0.46949 0.06203 0.836 0.0
H825 H 0.4552 0.06222 0.87419 0.0
H826 H 0.4864 0.02642 0.80136 0.0
H827 H 0.52567 0.00773 0.79342 0.0
C828 C 0.31269 0.24038 0.35942 0.0
C829 C 0.33063 0.27408 0.37131 0.0
C830 C 0.35738 0.24843 0.41852 0.0
C831 C 0.33722 0.21546 0.40773 0.0
N832 N 0.28921 0.18255 0.372 0.0
N833 N 0.36574 0.312 0.41416 0.0
C834 C 0.31306 0.21211 0.37929 0.0
C835 C 0.35177 0.27865 0.40149 0.0
N836 N 0.29619 0.235 0.3287 0.0
N837 N 0.38272 0.2505 0.44432 0.0
H838 H 0.36233 0.33461 0.40219 0.0
H839 H 0.37823 0.31772 0.43747 0.0
H840 H 0.38745 0.2289 0.45731 0.0
H841 H 0.40092 0.27269 0.45135 0.0
H842 H 0.28626 0.20996 0.31754 0.0
H843 H 0.29522 0.25499 0.31325 0.0
H844 H 0.26843 0.18044 0.35352 0.0
H845 H 0.28772 0.16155 0.38635 0.0
C846 C 0.55091 0.48206 0.85068 0.0
C847 C 0.55904 0.50829 0.8773 0.0
C848 C 0.51503 0.54492 0.85364 0.0
C849 C 0.50275 0.51616 0.83015 0.0
N850 N 0.50736 0.45626 0.80679 0.0
N851 N 0.54755 0.56386 0.90573 0.0
C852 C 0.52061 0.4846 0.82838 0.0
C853 C 0.54109 0.53978 0.87904 0.0
N854 N 0.57228 0.45488 0.84677 0.0
N855 N 0.50184 0.57723 0.85138 0.0
H856 H 0.56648 0.56116 0.9249 0.0
H857 H 0.53231 0.58518 0.91002 0.0
H858 H 0.48296 0.58177 0.83272 0.0
H859 H 0.51206 0.60024 0.86598 0.0
H860 H 0.56992 0.43684 0.82624 0.0
H861 H 0.59453 0.45226 0.86288 0.0
H862 H 0.51655 0.43111 0.807 0.0
H863 H 0.4855 0.45712 0.78979 0.0
C864 C 0.78329 0.71132 0.12288 0.0
C865 C 0.76607 0.74319 0.12291 0.0
C866 C 0.76296 0.73948 0.06419 0.0
C867 C 0.77799 0.70635 0.06404 0.0
N868 N 0.79465 0.65671 0.09246 0.0
N869 N 0.73288 0.78394 0.09392 0.0
C870 C 0.7859 0.69106 0.09319 0.0
C871 C 0.75379 0.75612 0.09361 0.0
N872 N 0.79833 0.70108 0.15108 0.0
N873 N 0.75918 0.75599 0.03663 0.0
H874 H 0.72566 0.7968 0.11508 0.0
H875 H 0.72006 0.79215 0.07318 0.0
H876 H 0.76621 0.74507 0.01465 0.0
H877 H 0.75209 0.78192 0.03611 0.0
H878 H 0.81474 0.68033 0.15209 0.0
H879 H 0.79692 0.71515 0.17341 0.0
H880 H 0.79714 0.64301 0.11282 0.0
H881 H 0.79591 0.64063 0.07113 0.0
C882 C 0.97433 0.98327 0.10255 0.0
C883 C 0.00053 0.01184 0.10026 0.0
C884 C 0.98064 0.04446 0.1478 0.0
C885 C 0.95664 0.01457 0.15169 0.0
N886 N 0.93733 0.95226 0.13711 0.0
N887 N 0.03348 0.06664 0.12429 0.0
C888 C 0.95533 0.98304 0.13026 0.0
C889 C 0.00512 0.04159 0.12397 0.0
N890 N 0.96663 0.95688 0.07778 0.0
N891 N 0.97907 0.0761 0.16587 0.0
H892 H 0.05212 0.06526 0.10747 0.0
H893 H 0.04041 0.0869 0.14289 0.0
H894 H 0.96113 0.0795 0.18312 0.0
H895 H 0.99319 0.09977 0.16173 0.0
H896 H 0.94508 0.93753 0.07662 0.0
H897 H 0.97964 0.95616 0.05691 0.0
H898 H 0.93858 0.92769 0.12409 0.0
H899 H 0.9243 0.95039 0.1578 0.0
C900 C 0.29078 0.80252 0.14704 0.0
C901 C 0.26033 0.77876 0.14994 0.0
C902 C 0.23752 0.78477 0.09423 0.0
C903 C 0.26673 0.81036 0.09222 0.0
N904 N 0.316 0.85019 0.11917 0.0
N905 N 0.20058 0.75407 0.12911 0.0
C906 C 0.29181 0.82124 0.1194 0.0
C907 C 0.23246 0.77174 0.12432 0.0
N908 N 0.31958 0.80603 0.16991 0.0
N909 N 0.21543 0.77187 0.06723 0.0
H910 H 0.19531 0.74538 0.15117 0.0
H911 H 0.17813 0.75131 0.11227 0.0
H912 H 0.21823 0.78072 0.04475 0.0
H913 H 0.1962 0.75034 0.06661 0.0
H914 H 0.34395 0.81993 0.1671 0.0
H915 H 0.32058 0.79231 0.19031 0.0
H916 H 0.33245 0.86155 0.13949 0.0
H917 H 0.31705 0.86518 0.0996 0.0
C918 C 0.07638 0.48854 0.13842 0.0
C919 C 0.03879 0.48404 0.13005 0.0
C920 C 0.02982 0.46856 0.1842 0.0
C921 C 0.0674 0.4681 0.19105 0.0
N922 N 0.1267 0.47406 0.17368 0.0
N923 N 0.97968 0.4648 0.14322 0.0
C924 C 0.09086 0.47743 0.16799 0.0
C925 C 0.01544 0.47283 0.1525 0.0
N926 N 0.09811 0.50382 0.11822 0.0
N927 N 0.00794 0.46631 0.20827 0.0
H928 H 0.96794 0.46752 0.1202 0.0
H929 H 0.96217 0.45258 0.15751 0.0
H930 H 0.01747 0.46419 0.23209 0.0
H931 H 0.98083 0.47024 0.20532 0.0
H932 H 0.12534 0.51112 0.12433 0.0
H933 H 0.08824 0.51215 0.09637 0.0
H934 H 0.14459 0.47688 0.15645 0.0
H935 H 0.13824 0.46547 0.19481 0.0
C936 C 0.35611 0.74809 0.27363 0.0
C937 C 0.34118 0.71223 0.27113 0.0
C938 C 0.39421 0.69857 0.30447 0.0
C939 C 0.41199 0.73259 0.30101 0.0
N940 N 0.41091 0.7833 0.26928 0.0
N941 N 0.35318 0.65101 0.27648 0.0
C942 C 0.39336 0.75564 0.2818 0.0
C943 C 0.36229 0.6866 0.2842 0.0
N944 N 0.3351 0.77516 0.26884 0.0
N945 N 0.40596 0.67824 0.32778 0.0
H946 H 0.33193 0.64094 0.25949 0.0
H947 H 0.36959 0.63188 0.28403 0.0
H948 H 0.42606 0.68725 0.34612 0.0
H949 H 0.39193 0.65433 0.33157 0.0
H950 H 0.34542 0.80182 0.27226 0.0
H951 H 0.3072 0.77119 0.26542 0.0
H952 H 0.39758 0.79921 0.25399 0.0
H953 H 0.43868 0.78669 0.26966 0.0
C954 C 0.05714 0.35486 0.98642 0.0
C955 C 0.04249 0.38802 0.98415 0.0
C956 C 0.01942 0.3691 0.92848 0.0
C957 C 0.03829 0.33827 0.9291 0.0
N958 N 0.08122 0.30539 0.95767 0.0
N959 N 0.02095 0.4306 0.94907 0.0
C960 C 0.05883 0.33196 0.95783 0.0
C961 C 0.0268 0.39635 0.95407 0.0
N962 N 0.06847 0.34466 0.01575 0.0
N963 N 0.99365 0.3721 0.90396 0.0
H964 H 0.0298 0.45222 0.96595 0.0
H965 H 0.01193 0.4379 0.92659 0.0
H966 H 0.98554 0.35165 0.88569 0.0
H967 H 0.97741 0.3931 0.90409 0.0
H968 H 0.07587 0.31921 0.01884 0.0
H969 H 0.06738 0.36037 0.0373 0.0
H970 H 0.09938 0.30214 0.97725 0.0
H971 H 0.08429 0.28878 0.93711 0.0
C972 C 0.66946 0.75927 0.30039 0.0
C973 C 0.66751 0.76641 0.26771 0.0
C974 C 0.60217 0.7561 0.26409 0.0
C975 C 0.60394 0.75572 0.29791 0.0
N976 N 0.64022 0.76209 0.34925 0.0
N977 N 0.6308 0.77889 0.22027 0.0
C978 C 0.63783 0.75827 0.31642 0.0
C979 C 0.63357 0.76642 0.24983 0.0
N980 N 0.70138 0.75279 0.31604 0.0
N981 N 0.57044 0.74649 0.24555 0.0
H982 H 0.65266 0.78971 0.20982 0.0
H983 H 0.6063 0.78246 0.20781 0.0
H984 H 0.5471 0.73786 0.25522 0.0
H985 H 0.56839 0.74332 0.2205 0.0
H986 H 0.70358 0.74405 0.33889 0.0
H987 H 0.725 0.75245 0.30495 0.0
H988 H 0.66446 0.76816 0.36362 0.0
H989 H 0.61806 0.76245 0.36228 0.0
C990 C 0.05039 0.08312 0.91981 0.0
C991 C 0.04751 0.09321 0.95283 0.0
C992 C 0.02649 0.15 0.93909 0.0
C993 C 0.03325 0.14158 0.90669 0.0
N994 N 0.05742 0.10252 0.8672 0.0
N995 N 0.0403 0.13951 0.99466 0.0
C996 C 0.04667 0.10872 0.89725 0.0
C997 C 0.03746 0.1275 0.96273 0.0
N998 N 0.05555 0.04872 0.90979 0.0
N999 N 0.0085 0.17886 0.94719 0.0
H1000 H 0.04976 0.12462 0.01277 0.0
H1001 H 0.03692 0.16565 0.003 0.0
H1002 H 0.99926 0.1956 0.9305 0.0
H1003 H -0.00041 0.1841 0.96974 0.0
H1004 H 0.05399 0.03887 0.88566 0.0
H1005 H 0.05807 0.02906 0.92546 0.0
H1006 H 0.07108 0.08078 0.8602 0.0
H1007 H 0.05568 0.12076 0.85013 0.0
C1008 C 0.43796 0.36594 0.24671 0.0
C1009 C 0.43214 0.3362 0.26443 0.0
C1010 C 0.45084 0.29663 0.22084 0.0
C1011 C 0.45728 0.32643 0.20334 0.0
N1012 N 0.46405 0.38998 0.20164 0.0
N1013 N 0.4397 0.27472 0.27173 0.0
C1014 C 0.45281 0.3613 0.21685 0.0
C1015 C 0.44104 0.30208 0.25267 0.0
N1016 N 0.42924 0.39861 0.25849 0.0
N1017 N 0.45185 0.26292 0.20632 0.0
H1018 H 0.43105 0.27701 0.29461 0.0
H1019 H 0.44983 0.25046 0.26594 0.0
H1020 H 0.45843 0.25761 0.1829 0.0
H1021 H 0.44326 0.24 0.21636 0.0
H1022 H 0.42828 0.42033 0.24507 0.0
H1023 H 0.42159 0.40378 0.28157 0.0
H1024 H 0.46492 0.41626 0.21161 0.0
H1025 H 0.47542 0.38748 0.17993 0.0
C1026 C 0.58201 0.39148 0.02303 0.0
C1027 C 0.58006 0.42853 0.03036 0.0
C1028 C 0.54611 0.41677 0.07589 0.0
C1029 C 0.54446 0.37978 0.06615 0.0
N1030 N 0.55704 0.33155 0.02842 0.0
N1031 N 0.55722 0.47686 0.06141 0.0
C1032 C 0.56154 0.36697 0.03926 0.0
C1033 C 0.56156 0.44137 0.05635 0.0
N1034 N 0.60444 0.37979 0.00138 0.0
N1035 N 0.53362 0.42829 0.10421 0.0
H1036 H 0.5681 0.49579 0.04769 0.0
H1037 H 0.54052 0.48729 0.07755 0.0
H1038 H 0.522 0.41096 0.11901 0.0
H1039 H 0.53749 0.45461 0.11442 0.0
H1040 H 0.6099 0.35334 0.99747 0.0
H1041 H 0.62034 0.39703 0.98945 0.0
H1042 H 0.5653 0.32124 0.00677 0.0
H1043 H 0.54251 0.31264 0.03978 0.0
C1044 C 0.64288 0.19003 0.1679 0.0
C1045 C 0.67098 0.21403 0.18438 0.0
C1046 C 0.6462 0.26406 0.15971 0.0
C1047 C 0.61648 0.24059 0.14534 0.0
N1048 N 0.58459 0.18203 0.13672 0.0
N1049 N 0.70501 0.27132 0.19005 0.0
C1050 C 0.61461 0.20361 0.14914 0.0
C1051 C 0.6742 0.25043 0.17867 0.0
N1052 N 0.64334 0.15429 0.17023 0.0
N1053 N 0.64711 0.29955 0.15567 0.0
H1054 H 0.72662 0.26168 0.20284 0.0
H1055 H 0.71078 0.29732 0.18477 0.0
H1056 H 0.62846 0.30999 0.14004 0.0
H1057 H 0.6654 0.31904 0.16847 0.0
H1058 H 0.62597 0.13486 0.15625 0.0
H1059 H 0.66284 0.14358 0.18473 0.0
H1060 H 0.5794 0.15579 0.14161 0.0
H1061 H 0.56332 0.19087 0.12284 0.0
C1062 C 0.4586 0.1424 0.0639 0.0
C1063 C 0.44609 0.13807 0.03073 0.0
C1064 C 0.44895 0.20276 0.02994 0.0
C1065 C 0.4584 0.20703 0.06371 0.0
N1066 N 0.46404 0.18061 0.11391 0.0
N1067 N 0.42172 0.16349 0.98377 0.0
C1068 C 0.46084 0.17674 0.08104 0.0
C1069 C 0.43886 0.16809 0.01423 0.0
N1070 N 0.46964 0.11405 0.07879 0.0
N1071 N 0.45155 0.23144 0.01252 0.0
H1072 H 0.41359 0.13844 0.97157 0.0
H1073 H 0.41253 0.18441 0.97185 0.0
H1074 H 0.46013 0.2572 0.02278 0.0
H1075 H 0.44866 0.22914 0.98748 0.0
H1076 H 0.48267 0.11654 0.102 0.0
H1077 H 0.46877 0.08849 0.067 0.0
H1078 H 0.46244 0.15916 0.12768 0.0
H1079 H 0.46452 0.20522 0.1274 0.0
C1080 C 0.32752 0.37875 0.68768 0.0
C1081 C 0.31368 0.35441 0.70829 0.0
C1082 C 0.33217 0.39892 0.75367 0.0
C1083 C 0.35283 0.41983 0.73433 0.0
N1084 N 0.37696 0.42173 0.68266 0.0
N1085 N 0.31512 0.33855 0.763 0.0
C1086 C 0.35257 0.40762 0.70115 0.0
C1087 C 0.31986 0.36351 0.74197 0.0
N1088 N 0.31603 0.37545 0.65565 0.0
N1089 N 0.32218 0.41294 0.78224 0.0
H1090 H 0.30931 0.31148 0.75554 0.0
H1091 H 0.32148 0.34445 0.78775 0.0
H1092 H 0.32552 0.44011 0.78978 0.0
H1093 H 0.30558 0.39829 0.79576 0.0
H1094 H 0.32385 0.39435 0.64052 0.0
H1095 H 0.29554 0.35655 0.6452 0.0
H1096 H 0.37848 0.4115 0.65895 0.0
H1097 H 0.39856 0.43988 0.69188 0.0
C1098 C 0.32366 0.65536 0.76068 0.0
C1099 C 0.3064 0.65943 0.78938 0.0
C1100 C 0.34116 0.61358 0.81055 0.0
C1101 C 0.35217 0.60412 0.77969 0.0
N1102 N 0.34838 0.61393 0.72333 0.0
N1103 N 0.29275 0.63443 0.83836 0.0
C1104 C 0.34215 0.62455 0.7541 0.0
C1105 C 0.3135 0.63636 0.81349 0.0
N1106 N 0.3233 0.68121 0.74011 0.0
N1107 N 0.35771 0.60172 0.83735 0.0
H1108 H 0.27008 0.64817 0.84014 0.0
H1109 H 0.2956 0.61574 0.85494 0.0
H1110 H 0.38017 0.58741 0.8367 0.0
H1111 H 0.352 0.61018 0.86051 0.0
H1112 H 0.33805 0.68081 0.72031 0.0
H1113 H 0.31162 0.7049 0.74486 0.0
H1114 H 0.33833 0.62626 0.70365 0.0
H1115 H 0.3603 0.59084 0.71696 0.0
C1116 C 0.83117 0.49526 0.47758 0.0
C1117 C 0.86397 0.50539 0.49684 0.0
C1118 C 0.85152 0.45677 0.52984 0.0
C1119 C 0.82256 0.44278 0.50688 0.0
N1120 N 0.78683 0.44697 0.45652 0.0
N1121 N 0.9069 0.4952 0.54063 0.0
C1122 C 0.81239 0.46183 0.48037 0.0
C1123 C 0.8744 0.48631 0.52314 0.0
N1124 N 0.81821 0.51757 0.45645 0.0
N1125 N 0.85684 0.44198 0.55817 0.0
H1126 H 0.92421 0.51696 0.53673 0.0
H1127 H 0.91776 0.47965 0.55758 0.0
H1128 H 0.84003 0.42069 0.56392 0.0
H1129 H 0.8755 0.45295 0.57712 0.0
H1130 H 0.79276 0.51321 0.44393 0.0
H1131 H 0.83154 0.54228 0.45392 0.0
H1132 H 0.78155 0.45799 0.43495 0.0
H1133 H 0.77293 0.42209 0.45676 0.0
C1134 C 0.72128 0.84855 0.82069 0.0
C1135 C 0.75609 0.8659 0.82007 0.0
C1136 C 0.72889 0.91764 0.80114 0.0
C1137 C 0.69425 0.90211 0.8058 0.0
N1138 N 0.66089 0.85741 0.8318 0.0
N1139 N 0.79188 0.92186 0.81983 0.0
C1140 C 0.69138 0.86897 0.81921 0.0
C1141 C 0.75954 0.9021 0.81368 0.0
N1142 N 0.71612 0.8125 0.82097 0.0
N1143 N 0.73303 0.94559 0.78305 0.0
H1144 H 0.8146 0.91186 0.83048 0.0
H1145 H 0.79488 0.94914 0.8178 0.0
H1146 H 0.71179 0.95561 0.77019 0.0
H1147 H 0.75801 0.95565 0.77737 0.0
H1148 H 0.69065 0.79884 0.81874 0.0
H1149 H 0.73672 0.79592 0.81957 0.0
H1150 H 0.659 0.83451 0.84376 0.0
H1151 H 0.63957 0.87296 0.83428 0.0
C1152 C 0.68107 0.57238 0.94833 0.0
C1153 C 0.67816 0.53479 0.94194 0.0
C1154 C 0.74356 0.53575 0.94715 0.0
C1155 C 0.74623 0.57351 0.94955 0.0
N1156 N 0.71707 0.62761 0.94543 0.0
N1157 N 0.70628 0.48086 0.92984 0.0
C1158 C 0.71486 0.59185 0.94827 0.0
C1159 C 0.70932 0.51645 0.93983 0.0
N1160 N 0.65177 0.58944 0.95536 0.0
N1161 N 0.77345 0.51833 0.95317 0.0
H1162 H 0.68166 0.46581 0.92404 0.0
H1163 H 0.72809 0.46696 0.92459 0.0
H1164 H 0.79892 0.53153 0.95947 0.0
H1165 H 0.7725 0.49104 0.95499 0.0
H1166 H 0.65321 0.61643 0.96336 0.0
H1167 H 0.62666 0.57599 0.95637 0.0
H1168 H 0.69467 0.64152 0.94115 0.0
H1169 H 0.74117 0.64275 0.94394 0.0
C1170 C 0.22176 0.60436 0.24279 0.0
C1171 C 0.22178 0.63943 0.25781 0.0
C1172 C 0.17529 0.61911 0.29085 0.0
C1173 C 0.1731 0.5848 0.27369 0.0
N1174 N 0.18873 0.54666 0.22875 0.0
N1175 N 0.1963 0.68179 0.29331 0.0
C1176 C 0.19491 0.57787 0.24845 0.0
C1177 C 0.19792 0.6473 0.28113 0.0
N1178 N 0.24789 0.59617 0.22356 0.0
N1179 N 0.15658 0.62442 0.31696 0.0
H1180 H 0.21304 0.7029 0.28719 0.0
H1181 H 0.17685 0.68986 0.30772 0.0
H1182 H 0.13963 0.60437 0.32454 0.0
H1183 H 0.15983 0.64775 0.33252 0.0
H1184 H 0.2516 0.57022 0.21491 0.0
H1185 H 0.26793 0.61493 0.21853 0.0
H1186 H 0.20111 0.54187 0.20783 0.0
H1187 H 0.16865 0.52681 0.2314 0.0
C1188 C 0.93013 0.54483 0.05356 0.0
C1189 C 0.96701 0.54719 0.04904 0.0
C1190 C 0.9591 0.59721 0.0166 0.0
C1191 C 0.92153 0.59108 0.01707 0.0
N1192 N 0.87046 0.55719 0.03373 0.0
N1193 N 0.01751 0.57535 0.02697 0.0
C1194 C 0.9068 0.56483 0.03543 0.0
C1195 C 0.98185 0.57366 0.03106 0.0
N1196 N 0.91737 0.52306 0.07491 0.0
N1197 N 0.97286 0.62583 0.00266 0.0
H1198 H 0.03514 0.55979 0.03871 0.0
H1199 H 0.02941 0.59096 0.01107 0.0
H1200 H 0.95668 0.64343 0.99198 0.0
H1201 H 0.0001 0.63385 0.00388 0.0
H1202 H 0.89158 0.52296 0.08192 0.0
H1203 H 0.93356 0.50729 0.0879 0.0
H1204 H 0.85826 0.53544 0.04326 0.0
H1205 H 0.85217 0.57085 0.02063 0.0
C1206 C 0.13218 0.96912 0.05023 0.0
C1207 C 0.09568 0.95853 0.03939 0.0
C1208 C 0.11199 0.90065 0.01657 0.0
C1209 C 0.14821 0.91056 0.02891 0.0
N1210 N 0.19184 0.95124 0.06273 0.0
N1211 N 0.04965 0.913 0.01615 0.0
C1212 C 0.15808 0.94404 0.04712 0.0
C1213 C 0.08523 0.92384 0.02378 0.0
N1214 N 0.14219 0.00342 0.06304 0.0
N1215 N 0.10345 0.8697 0.99686 0.0
H1216 H 0.02946 0.92962 0.02013 0.0
H1217 H 0.03989 0.8869 0.008 0.0
H1218 H 0.12232 0.85212 0.99114 0.0
H1219 H 0.07838 0.86263 0.98419 0.0
H1220 H 0.16875 0.01411 0.06765 0.0
H1221 H 0.12387 0.02209 0.06718 0.0
H1222 H 0.19955 0.97339 0.07925 0.0
H1223 H 0.21151 0.9335 0.06142 0.0
loop_
_geom_bond_atom_site_label_1
_geom_bond_atom_site_label_2
_geom_bond_distance
_geom_bond_site_symmetry_2
_ccdc_geom_bond_type
H0 C5 0.930 . S
H1 C8 0.930 . S
H2 C10 0.930 1_565 S
H3 C4 1.016 . S
C4 H3 1.016 . S
C4 N11 1.286 1_556 S
C5 H0 0.930 . S
C5 C6 1.397 . S
C5 C7 1.361 . S
C6 C5 1.397 . S
C6 C10 1.390 . S
C7 C5 1.361 . S
C7 C8 1.393 . S
C7 N11 1.413 . S
C8 H1 0.930 . S
C8 C7 1.393 . S
C8 C9 1.399 . S
C9 C8 1.399 . S
C9 C10 1.381 . S
C10 H2 0.930 1_545 S
C10 C6 1.390 . S
C10 C9 1.381 . S
N11 C4 1.286 1_554 S
N11 C7 1.413 . S
H12 C17 0.930 . S
H13 C20 0.930 . S
H14 C22 0.930 . S
H15 C16 1.016 . S
C16 H15 1.016 . S
C16 N23 1.286 . S
C17 H12 0.930 . S
C17 C18 1.397 . S
C17 C19 1.361 . S
C18 C17 1.397 . S
C18 C22 1.390 . S
C19 C17 1.361 . S
C19 C20 1.393 . S
C19 N23 1.413 . S
C20 H13 0.930 . S
C20 C19 1.393 . S
C20 C21 1.399 . S
C21 C20 1.399 . S
C21 C22 1.381 . S
C22 H14 0.930 . S
C22 C18 1.390 . S
C22 C21 1.381 . S
N23 C16 1.286 . S
N23 C19 1.413 . S
H24 C29 0.930 . S
H25 C32 0.930 . S
H26 C34 0.930 . S
H27 C28 1.016 . S
C28 H27 1.016 . S
C28 N35 1.286 . S
C29 H24 0.930 . S
C29 C30 1.397 . S
C29 C31 1.361 . S
C30 C29 1.397 . S
C30 C34 1.390 . S
C31 C29 1.361 . S
C31 C32 1.393 . S
C31 N35 1.413 . S
C32 H25 0.930 . S
C32 C31 1.393 . S
C32 C33 1.399 . S
C33 C32 1.399 . S
C33 C34 1.381 . S
C34 H26 0.930 . S
C34 C30 1.390 . S
C34 C33 1.381 . S
N35 C28 1.286 . S
N35 C31 1.413 . S
H36 C41 0.930 . S
H37 C44 0.930 . S
H38 C46 0.930 . S
H39 C40 1.016 . S
C40 H39 1.016 . S
C40 N47 1.286 . S
C41 H36 0.930 . S
C41 C42 1.397 . S
C41 C43 1.361 . S
C42 C41 1.397 . S
C42 C46 1.390 . S
C43 C41 1.361 . S
C43 C44 1.393 . S
C43 N47 1.413 . S
C44 H37 0.930 . S
C44 C43 1.393 . S
C44 C45 1.399 . S
C45 C44 1.399 . S
C45 C46 1.381 . S
C46 H38 0.930 . S
C46 C42 1.390 . S
C46 C45 1.381 . S
N47 C40 1.286 . S
N47 C43 1.413 . S
H48 C53 0.930 . S
H49 C56 0.930 . S
H50 C58 0.930 1_545 S
H51 C52 1.016 . S
C52 H51 1.016 . S
C52 N59 1.286 . S
C53 H48 0.930 . S
C53 C54 1.397 . S
C53 C55 1.361 . S
C54 C53 1.397 . S
C54 C58 1.390 . S
C55 C53 1.361 . S
C55 C56 1.393 . S
C55 N59 1.413 . S
C56 H49 0.930 . S
C56 C55 1.393 . S
C56 C57 1.399 . S
C57 C56 1.399 . S
C57 C58 1.381 . S
C58 H50 0.930 1_565 S
C58 C54 1.390 . S
C58 C57 1.381 . S
N59 C52 1.286 . S
N59 C55 1.413 . S
H60 C65 0.930 . S
H61 C68 0.930 . S
H62 C70 0.930 . S
H63 C64 1.016 . S
C64 H63 1.016 . S
C64 N71 1.286 . S
C65 H60 0.930 . S
C65 C66 1.397 . S
C65 C67 1.361 . S
C66 C65 1.397 . S
C66 C70 1.390 . S
C67 C65 1.361 . S
C67 C68 1.393 . S
C67 N71 1.413 . S
C68 H61 0.930 . S
C68 C67 1.393 . S
C68 C69 1.399 . S
C69 C68 1.399 . S
C69 C70 1.381 . S
C70 H62 0.930 . S
C70 C66 1.390 . S
C70 C69 1.381 . S
N71 C64 1.286 . S
N71 C67 1.413 . S
H72 C77 0.923 1_455 S
H73 C80 0.930 . S
H74 C82 0.930 . S
H75 C76 1.016 1_655 S
C76 H75 1.016 1_455 S
C76 N83 1.286 1_455 S
C77 H72 0.923 1_655 S
C77 C78 1.397 . S
C77 C79 1.361 . S
C78 C77 1.397 . S
C78 C82 1.390 . S
C79 C77 1.361 . S
C79 C80 1.393 . S
C79 N83 1.413 . S
C80 H73 0.930 . S
C80 C79 1.393 . S
C80 C81 1.399 . S
C81 C80 1.399 . S
C81 C82 1.381 . S
C82 H74 0.930 . S
C82 C78 1.390 . S
C82 C81 1.381 . S
N83 C76 1.286 1_655 S
N83 C79 1.413 . S
H84 C89 0.930 . S
H85 C92 0.930 . S
H86 C94 0.930 . S
H87 C88 1.016 . S
C88 H87 1.016 . S
C88 N95 1.286 . S
C89 H84 0.930 . S
C89 C90 1.397 . S
C89 C91 1.361 . S
C90 C89 1.397 . S
C90 C94 1.390 . S
C91 C89 1.361 . S
C91 C92 1.393 . S
C91 N95 1.413 . S
C92 H85 0.930 . S
C92 C91 1.393 . S
C92 C93 1.399 . S
C93 C92 1.399 . S
C93 C94 1.381 . S
C94 H86 0.930 . S
C94 C90 1.390 . S
C94 C93 1.381 . S
N95 C88 1.286 . S
N95 C91 1.413 . S
H96 C101 0.930 . S
H97 C104 0.930 . S
H98 C106 0.930 . S
H99 C100 1.016 . S
C100 H99 1.016 . S
C100 N107 1.286 . S
C101 H96 0.930 . S
C101 C102 1.397 . S
C101 C103 1.361 . S
C102 C101 1.397 . S
C102 C106 1.390 . S
C103 C101 1.361 . S
C103 C104 1.393 . S
C103 N107 1.413 . S
C104 H97 0.930 . S
C104 C103 1.393 . S
C104 C105 1.399 . S
C105 C104 1.399 . S
C105 C106 1.381 . S
C106 H98 0.930 . S
C106 C102 1.390 . S
C106 C105 1.381 . S
N107 C100 1.286 . S
N107 C103 1.413 . S
H108 C113 0.930 . S
H109 C116 0.930 . S
H110 C118 0.930 . S
H111 C112 1.016 . S
C112 H111 1.016 . S
C112 N119 1.286 . S
C113 H108 0.930 . S
C113 C114 1.397 1_565 S
C113 C115 1.361 . S
C114 C113 1.397 1_545 S
C114 C118 1.390 . S
C115 C113 1.361 . S
C115 C116 1.393 . S
C115 N119 1.413 . S
C116 H109 0.930 . S
C116 C115 1.393 . S
C116 C117 1.399 . S
C117 C116 1.399 . S
C117 C118 1.381 1_565 S
C118 H110 0.930 . S
C118 C114 1.390 . S
C118 C117 1.381 1_545 S
N119 C112 1.286 . S
N119 C115 1.413 . S
H120 C125 0.930 . S
H121 C128 0.930 . S
H122 C130 0.930 . S
H123 C124 1.016 . S
C124 H123 1.016 . S
C124 N131 1.286 . S
C125 H120 0.930 . S
C125 C126 1.397 . S
C125 C127 1.361 . S
C126 C125 1.397 . S
C126 C130 1.390 . S
C127 C125 1.361 . S
C127 C128 1.393 . S
C127 N131 1.413 . S
C128 H121 0.930 . S
C128 C127 1.393 . S
C128 C129 1.399 . S
C129 C128 1.399 . S
C129 C130 1.381 . S
C130 H122 0.930 . S
C130 C126 1.390 . S
C130 C129 1.381 . S
N131 C124 1.286 . S
N131 C127 1.413 . S
H132 C137 0.930 . S
H133 C140 0.930 . S
H134 C142 0.930 . S
H135 C136 1.016 . S
C136 H135 1.016 . S
C136 N143 1.286 . S
C137 H132 0.930 . S
C137 C138 1.397 . S
C137 C139 1.361 . S
C138 C137 1.397 . S
C138 C142 1.390 . S
C139 C137 1.361 . S
C139 C140 1.393 . S
C139 N143 1.413 . S
C140 H133 0.930 . S
C140 C139 1.393 . S
C140 C141 1.399 . S
C141 C140 1.399 . S
C141 C142 1.381 . S
C142 H134 0.930 . S
C142 C138 1.390 . S
C142 C141 1.381 . S
N143 C136 1.286 . S
N143 C139 1.413 . S
H144 C149 0.930 . S
H145 C152 0.930 . S
H146 C154 0.930 . S
H147 C148 1.016 . S
C148 H147 1.016 . S
C148 N155 1.286 . S
C149 H144 0.930 . S
C149 C150 1.397 . S
C149 C151 1.361 . S
C150 C149 1.397 . S
C150 C154 1.390 . S
C151 C149 1.361 . S
C151 C152 1.393 . S
C151 N155 1.413 . S
C152 H145 0.930 . S
C152 C151 1.393 . S
C152 C153 1.399 . S
C153 C152 1.399 . S
C153 C154 1.381 . S
C154 H146 0.930 . S
C154 C150 1.390 . S
C154 C153 1.381 . S
N155 C148 1.286 . S
N155 C151 1.413 . S
H156 C161 0.930 . S
H157 C164 0.930 1_554 S
H158 C166 0.930 . S
H159 C160 1.016 . S
C160 H159 1.016 . S
C160 N167 1.286 1_554 S
C161 H156 0.930 . S
C161 C162 1.397 . S
C161 C163 1.361 . S
C162 C161 1.397 . S
C162 C166 1.390 . S
C163 C161 1.361 . S
C163 C164 1.393 . S
C163 N167 1.413 . S
C164 H157 0.930 1_556 S
C164 C163 1.393 . S
C164 C165 1.399 . S
C165 C164 1.399 . S
C165 C166 1.381 . S
C166 H158 0.930 . S
C166 C162 1.390 . S
C166 C165 1.381 . S
N167 C160 1.286 1_556 S
N167 C163 1.413 . S
H168 C173 0.930 . S
H169 C176 0.930 . S
H170 C178 0.930 . S
H171 C172 1.016 . S
C172 H171 1.016 . S
C172 N179 1.286 . S
C173 H168 0.930 . S
C173 C174 1.397 . S
C173 C175 1.361 . S
C174 C173 1.397 . S
C174 C178 1.390 . S
C175 C173 1.361 . S
C175 C176 1.393 . S
C175 N179 1.413 . S
C176 H169 0.930 . S
C176 C175 1.393 . S
C176 C177 1.399 . S
C177 C176 1.399 . S
C177 C178 1.381 . S
C178 H170 0.930 . S
C178 C174 1.390 . S
C178 C177 1.381 . S
N179 C172 1.286 . S
N179 C175 1.413 . S
H180 C185 0.930 . S
H181 C188 0.930 . S
H182 C190 0.930 1_554 S
H183 C184 1.016 . S
C184 H183 1.016 . S
C184 N191 1.286 . S
C185 H180 0.930 . S
C185 C186 1.397 . S
C185 C187 1.361 . S
C186 C185 1.397 . S
C186 C190 1.390 . S
C187 C185 1.361 . S
C187 C188 1.393 . S
C187 N191 1.413 . S
C188 H181 0.930 . S
C188 C187 1.393 . S
C188 C189 1.399 . S
C189 C188 1.399 . S
C189 C190 1.381 . S
C190 H182 0.930 1_556 S
C190 C186 1.390 . S
C190 C189 1.381 . S
N191 C184 1.286 . S
N191 C187 1.413 . S
Zn192 O195 2.031 . S
Zn192 O197 2.049 1_554 S
Zn192 O202 2.067 1_554 S
Zn193 O194 1.962 . S
Zn193 O196 1.986 . S
Zn193 O198 1.996 . S
Zn193 O201 1.943 1_554 S
O194 Zn193 1.962 . S
O194 C199 1.254 . S
O195 Zn192 2.031 . S
O195 C199 1.269 . S
O196 Zn193 1.986 . S
O196 C203 1.262 . S
O197 Zn192 2.049 1_556 S
O197 C205 1.260 1_556 S
O198 Zn193 1.996 . S
O198 C205 1.257 . S
C199 O194 1.254 . S
C199 O195 1.269 . S
C200 O201 1.249 . S
C200 O202 1.270 . S
O201 Zn193 1.943 1_556 S
O201 C200 1.249 . S
O202 Zn192 2.067 1_556 S
O202 C200 1.270 . S
C203 O196 1.262 . S
C203 O204 1.232 . S
O204 C203 1.232 . S
C205 O197 1.260 1_554 S
C205 O198 1.257 . S
Zn206 O209 2.031 . S
Zn206 O211 2.049 . S
Zn206 O216 2.067 . S
Zn207 O208 1.962 . S
Zn207 O210 1.986 . S
Zn207 O212 1.996 . S
Zn207 O215 1.943 . S
O208 Zn207 1.962 . S
O208 C213 1.254 . S
O209 Zn206 2.031 . S
O209 C213 1.269 . S
O210 Zn207 1.986 . S
O210 C217 1.262 . S
O211 Zn206 2.049 . S
O211 C219 1.260 . S
O212 Zn207 1.996 . S
O212 C219 1.257 . S
C213 O208 1.254 . S
C213 O209 1.269 . S
C214 O215 1.249 . S
C214 O216 1.270 . S
O215 Zn207 1.943 . S
O215 C214 1.249 . S
O216 Zn206 2.067 . S
O216 C214 1.270 . S
C217 O210 1.262 . S
C217 O218 1.232 . S
O218 C217 1.232 . S
C219 O211 1.260 . S
C219 O212 1.257 . S
Zn220 O223 2.031 . S
Zn220 O225 2.049 . S
Zn220 O230 2.067 . S
Zn221 O222 1.962 . S
Zn221 O224 1.986 . S
Zn221 O226 1.996 1_554 S
Zn221 O229 1.943 . S
O222 Zn221 1.962 . S
O222 C227 1.254 . S
O223 Zn220 2.031 . S
O223 C227 1.269 1_556 S
O224 Zn221 1.986 . S
O224 C231 1.262 . S
O225 Zn220 2.049 . S
O225 C233 1.260 . S
O226 Zn221 1.996 1_556 S
O226 C233 1.257 . S
C227 O222 1.254 . S
C227 O223 1.269 1_554 S
C228 O229 1.249 1_556 S
C228 O230 1.270 . S
O229 Zn221 1.943 . S
O229 C228 1.249 1_554 S
O230 Zn220 2.067 . S
O230 C228 1.270 . S
C231 O224 1.262 . S
C231 O232 1.232 . S
O232 C231 1.232 . S
C233 O225 1.260 . S
C233 O226 1.257 . S
Zn234 O237 2.031 . S
Zn234 O239 2.049 1_545 S
Zn234 O244 2.067 1_545 S
Zn235 O236 1.962 . S
Zn235 O238 1.986 . S
Zn235 O240 1.996 . S
Zn235 O243 1.943 1_545 S
O236 Zn235 1.962 . S
O236 C241 1.254 . S
O237 Zn234 2.031 . S
O237 C241 1.269 . S
O238 Zn235 1.986 . S
O238 C245 1.262 . S
O239 Zn234 2.049 1_565 S
O239 C247 1.260 1_565 S
O240 Zn235 1.996 . S
O240 C247 1.257 . S
C241 O236 1.254 . S
C241 O237 1.269 . S
C242 O243 1.249 . S
C242 O244 1.270 . S
O243 Zn235 1.943 1_565 S
O243 C242 1.249 . S
O244 Zn234 2.067 1_565 S
O244 C242 1.270 . S
C245 O238 1.262 . S
C245 O246 1.232 . S
O246 C245 1.232 . S
C247 O239 1.260 1_545 S
C247 O240 1.257 . S
Zn248 O251 2.031 . S
Zn248 O253 2.049 . S
Zn248 O258 2.067 . S
Zn249 O250 1.962 . S
Zn249 O252 1.986 . S
Zn249 O254 1.996 . S
Zn249 O257 1.943 . S
O250 Zn249 1.962 . S
O250 C255 1.254 . S
O251 Zn248 2.031 . S
O251 C255 1.269 . S
O252 Zn249 1.986 . S
O252 C259 1.262 . S
O253 Zn248 2.049 . S
O253 C261 1.260 . S
O254 Zn249 1.996 . S
O254 C261 1.257 . S
C255 O250 1.254 . S
C255 O251 1.269 . S
C256 O257 1.249 . S
C256 O258 1.270 . S
O257 Zn249 1.943 . S
O257 C256 1.249 . S
O258 Zn248 2.067 . S
O258 C256 1.270 . S
C259 O252 1.262 . S
C259 O260 1.232 . S
O260 C259 1.232 . S
C261 O253 1.260 . S
C261 O254 1.257 . S
Zn262 O265 2.031 . S
Zn262 O267 2.049 . S
Zn262 O272 2.067 . S
Zn263 O264 1.962 . S
Zn263 O266 1.986 . S
Zn263 O268 1.996 . S
Zn263 O271 1.943 . S
O264 Zn263 1.962 . S
O264 C269 1.254 . S
O265 Zn262 2.031 . S
O265 C269 1.269 . S
O266 Zn263 1.986 . S
O266 C273 1.262 . S
O267 Zn262 2.049 . S
O267 C275 1.260 . S
O268 Zn263 1.996 . S
O268 C275 1.257 . S
C269 O264 1.254 . S
C269 O265 1.269 . S
C270 O271 1.249 . S
C270 O272 1.270 . S
O271 Zn263 1.943 . S
O271 C270 1.249 . S
O272 Zn262 2.067 . S
O272 C270 1.270 . S
C273 O266 1.262 . S
C273 O274 1.232 . S
O274 C273 1.232 . S
C275 O267 1.260 . S
C275 O268 1.257 . S
Zn276 O279 2.031 . S
Zn276 O281 2.049 . S
Zn276 O286 2.067 . S
Zn277 O278 1.962 . S
Zn277 O280 1.986 . S
Zn277 O282 1.996 . S
Zn277 O285 1.943 . S
O278 Zn277 1.962 . S
O278 C283 1.254 . S
O279 Zn276 2.031 . S
O279 C283 1.269 . S
O280 Zn277 1.986 . S
O280 C287 1.262 . S
O281 Zn276 2.049 . S
O281 C289 1.260 . S
O282 Zn277 1.996 . S
O282 C289 1.257 . S
C283 O278 1.254 . S
C283 O279 1.269 . S
C284 O285 1.249 . S
C284 O286 1.270 . S
O285 Zn277 1.943 . S
O285 C284 1.249 . S
O286 Zn276 2.067 . S
O286 C284 1.270 . S
C287 O280 1.262 . S
C287 O288 1.232 . S
O288 C287 1.232 . S
C289 O281 1.260 . S
C289 O282 1.257 . S
Zn290 O293 2.031 . S
Zn290 O295 2.049 . S
Zn290 O300 2.067 . S
Zn291 O292 1.962 . S
Zn291 O294 1.986 . S
Zn291 O296 1.996 1_545 S
Zn291 O299 1.943 . S
O292 Zn291 1.962 . S
O292 C297 1.254 . S
O293 Zn290 2.031 . S
O293 C297 1.269 1_565 S
O294 Zn291 1.986 . S
O294 C301 1.262 . S
O295 Zn290 2.049 . S
O295 C303 1.260 . S
O296 Zn291 1.996 1_565 S
O296 C303 1.257 . S
C297 O292 1.254 . S
C297 O293 1.269 1_545 S
C298 O299 1.249 1_565 S
C298 O300 1.270 . S
O299 Zn291 1.943 . S
O299 C298 1.249 1_545 S
O300 Zn290 2.067 . S
O300 C298 1.270 . S
C301 O294 1.262 . S
C301 O302 1.232 . S
O302 C301 1.232 . S
C303 O295 1.260 . S
C303 O296 1.257 . S
Zn304 O307 2.031 . S
Zn304 O309 2.049 1_455 S
Zn304 O314 2.067 1_455 S
Zn305 O306 1.962 . S
Zn305 O308 1.986 . S
Zn305 O310 1.996 . S
Zn305 O313 1.943 1_455 S
O306 Zn305 1.962 . S
O306 C311 1.254 . S
O307 Zn304 2.031 . S
O307 C311 1.269 . S
O308 Zn305 1.986 . S
O308 C315 1.262 . S
O309 Zn304 2.049 1_655 S
O309 C317 1.260 . S
O310 Zn305 1.996 . S
O310 C317 1.257 1_455 S
C311 O306 1.254 . S
C311 O307 1.269 . S
C312 O313 1.249 . S
C312 O314 1.270 . S
O313 Zn305 1.943 1_655 S
O313 C312 1.249 . S
O314 Zn304 2.067 1_655 S
O314 C312 1.270 . S
C315 O308 1.262 . S
C315 O316 1.232 . S
O316 C315 1.232 . S
C317 O309 1.260 . S
C317 O310 1.257 1_655 S
Zn318 O321 2.031 . S
Zn318 O323 2.049 . S
Zn318 O328 2.067 . S
Zn319 O320 1.962 . S
Zn319 O322 1.986 . S
Zn319 O324 1.996 . S
Zn319 O327 1.943 . S
O320 Zn319 1.962 . S
O320 C325 1.254 . S
O321 Zn318 2.031 . S
O321 C325 1.269 . S
O322 Zn319 1.986 . S
O322 C329 1.262 . S
O323 Zn318 2.049 . S
O323 C331 1.260 . S
O324 Zn319 1.996 . S
O324 C331 1.257 . S
C325 O320 1.254 . S
C325 O321 1.269 . S
C326 O327 1.249 . S
C326 O328 1.270 . S
O327 Zn319 1.943 . S
O327 C326 1.249 . S
O328 Zn318 2.067 . S
O328 C326 1.270 . S
C329 O322 1.262 . S
C329 O330 1.232 . S
O330 C329 1.232 . S
C331 O323 1.260 . S
C331 O324 1.257 . S
Zn332 O335 2.031 1_655 S
Zn332 O337 2.049 . S
Zn332 O342 2.067 . S
Zn333 O334 1.962 . S
Zn333 O336 1.986 . S
Zn333 O338 1.996 1_455 S
Zn333 O341 1.943 . S
O334 Zn333 1.962 . S
O334 C339 1.254 . S
O335 Zn332 2.031 1_455 S
O335 C339 1.269 . S
O336 Zn333 1.986 . S
O336 C343 1.262 . S
O337 Zn332 2.049 . S
O337 C345 1.260 . S
O338 Zn333 1.996 1_655 S
O338 C345 1.257 . S
C339 O334 1.254 . S
C339 O335 1.269 . S
C340 O341 1.249 1_655 S
C340 O342 1.270 . S
O341 Zn333 1.943 . S
O341 C340 1.249 1_455 S
O342 Zn332 2.067 . S
O342 C340 1.270 . S
C343 O336 1.262 . S
C343 O344 1.232 . S
O344 C343 1.232 . S
C345 O337 1.260 . S
C345 O338 1.257 . S
Zn346 O349 2.031 . S
Zn346 O351 2.049 . S
Zn346 O356 2.067 . S
Zn347 O348 1.962 . S
Zn347 O350 1.986 . S
Zn347 O352 1.996 . S
Zn347 O355 1.943 . S
O348 Zn347 1.962 . S
O348 C353 1.254 . S
O349 Zn346 2.031 . S
O349 C353 1.269 . S
O350 Zn347 1.986 . S
O350 C357 1.262 . S
O351 Zn346 2.049 . S
O351 C359 1.260 . S
O352 Zn347 1.996 . S
O352 C359 1.257 . S
C353 O348 1.254 . S
C353 O349 1.269 . S
C354 O355 1.249 . S
C354 O356 1.270 . S
O355 Zn347 1.943 . S
O355 C354 1.249 . S
O356 Zn346 2.067 . S
O356 C354 1.270 . S
C357 O350 1.262 . S
C357 O358 1.232 . S
O358 C357 1.232 . S
C359 O351 1.260 . S
C359 O352 1.257 . S
C360 C361 1.363 . S
C360 C366 1.379 . S
C360 N368 1.356 . S
C361 C360 1.363 . S
C361 C367 1.363 . S
C362 C363 1.363 . S
C362 C367 1.379 . S
C362 N369 1.356 . S
C363 C362 1.363 . S
C363 C366 1.363 . S
N364 C366 1.356 . S
N364 H376 0.984 . S
N364 H377 0.985 . S
N365 C367 1.356 . S
N365 H370 0.984 . S
N365 H371 0.985 . S
C366 C360 1.379 . S
C366 C363 1.363 . S
C366 N364 1.356 . S
C367 C361 1.363 . S
C367 C362 1.379 . S
C367 N365 1.356 . S
N368 C360 1.356 . S
N368 H374 0.984 . S
N368 H375 0.984 . S
N369 C362 1.356 . S
N369 H372 0.984 . S
N369 H373 0.985 . S
H370 N365 0.984 . S
H371 N365 0.985 . S
H372 N369 0.984 . S
H373 N369 0.985 . S
H374 N368 0.984 . S
H375 N368 0.984 . S
H376 N364 0.984 . S
H377 N364 0.985 . S
C378 C379 1.363 . S
C378 C384 1.379 . S
C378 N386 1.356 . S
C379 C378 1.363 . S
C379 C385 1.363 . S
C380 C381 1.363 . S
C380 C385 1.379 . S
C380 N387 1.356 . S
C381 C380 1.363 . S
C381 C384 1.363 . S
N382 C384 1.356 . S
N382 H394 0.984 . S
N382 H395 0.985 . S
N383 C385 1.356 . S
N383 H388 0.984 . S
N383 H389 0.985 . S
C384 C378 1.379 . S
C384 C381 1.363 . S
C384 N382 1.356 . S
C385 C379 1.363 . S
C385 C380 1.379 . S
C385 N383 1.356 . S
N386 C378 1.356 . S
N386 H392 0.984 . S
N386 H393 0.984 . S
N387 C380 1.356 . S
N387 H390 0.984 . S
N387 H391 0.985 . S
H388 N383 0.984 . S
H389 N383 0.985 . S
H390 N387 0.984 . S
H391 N387 0.985 . S
H392 N386 0.984 . S
H393 N386 0.984 . S
H394 N382 0.984 . S
H395 N382 0.985 . S
C396 C397 1.363 . S
C396 C402 1.379 . S
C396 N404 1.356 . S
C397 C396 1.363 . S
C397 C403 1.363 . S
C398 C399 1.363 . S
C398 C403 1.379 . S
C398 N405 1.356 . S
C399 C398 1.363 . S
C399 C402 1.363 . S
N400 C402 1.356 . S
N400 H412 0.984 . S
N400 H413 0.985 . S
N401 C403 1.356 . S
N401 H406 0.984 . S
N401 H407 0.985 . S
C402 C396 1.379 . S
C402 C399 1.363 . S
C402 N400 1.356 . S
C403 C397 1.363 . S
C403 C398 1.379 . S
C403 N401 1.356 . S
N404 C396 1.356 . S
N404 H410 0.984 . S
N404 H411 0.984 . S
N405 C398 1.356 . S
N405 H408 0.984 . S
N405 H409 0.985 . S
H406 N401 0.984 . S
H407 N401 0.985 . S
H408 N405 0.984 . S
H409 N405 0.985 . S
H410 N404 0.984 . S
H411 N404 0.984 . S
H412 N400 0.984 . S
H413 N400 0.985 . S
C414 C415 1.363 . S
C414 C420 1.379 . S
C414 N422 1.356 . S
C415 C414 1.363 . S
C415 C421 1.363 1_565 S
C416 C417 1.363 1_545 S
C416 C421 1.379 . S
C416 N423 1.356 1_455 S
C417 C416 1.363 1_565 S
C417 C420 1.363 . S
N418 C420 1.356 . S
N418 H430 0.984 . S
N418 H431 0.985 . S
N419 C421 1.356 . S
N419 H424 0.984 . S
N419 H425 0.985 . S
C420 C414 1.379 . S
C420 C417 1.363 . S
C420 N418 1.356 . S
C421 C415 1.363 1_545 S
C421 C416 1.379 . S
C421 N419 1.356 . S
N422 C414 1.356 . S
N422 H428 0.984 . S
N422 H429 0.984 . S
N423 C416 1.356 1_655 S
N423 H426 0.984 . S
N423 H427 0.985 . S
H424 N419 0.984 . S
H425 N419 0.985 . S
H426 N423 0.984 . S
H427 N423 0.985 . S
H428 N422 0.984 . S
H429 N422 0.984 . S
H430 N418 0.984 . S
H431 N418 0.985 . S
C432 C433 1.363 . S
C432 C438 1.379 . S
C432 N440 1.356 . S
C433 C432 1.363 . S
C433 C439 1.363 . S
C434 C435 1.363 . S
C434 C439 1.379 . S
C434 N441 1.356 . S
C435 C434 1.363 . S
C435 C438 1.363 . S
N436 C438 1.356 . S
N436 H448 0.984 . S
N436 H449 0.985 . S
N437 C439 1.356 . S
N437 H442 0.984 . S
N437 H443 0.985 . S
C438 C432 1.379 . S
C438 C435 1.363 . S
C438 N436 1.356 . S
C439 C433 1.363 . S
C439 C434 1.379 . S
C439 N437 1.356 . S
N440 C432 1.356 . S
N440 H446 0.984 . S
N440 H447 0.984 . S
N441 C434 1.356 . S
N441 H444 0.984 . S
N441 H445 0.985 . S
H442 N437 0.984 . S
H443 N437 0.985 . S
H444 N441 0.984 . S
H445 N441 0.985 . S
H446 N440 0.984 . S
H447 N440 0.984 . S
H448 N436 0.984 . S
H449 N436 0.985 . S
C450 C451 1.363 . S
C450 C456 1.379 . S
C450 N458 1.356 . S
C451 C450 1.363 . S
C451 C457 1.363 . S
C452 C453 1.363 . S
C452 C457 1.379 . S
C452 N459 1.356 . S
C453 C452 1.363 . S
C453 C456 1.363 . S
N454 C456 1.356 . S
N454 H466 0.984 . S
N454 H467 0.985 . S
N455 C457 1.356 . S
N455 H460 0.984 . S
N455 H461 0.985 . S
C456 C450 1.379 . S
C456 C453 1.363 . S
C456 N454 1.356 . S
C457 C451 1.363 . S
C457 C452 1.379 . S
C457 N455 1.356 . S
N458 C450 1.356 . S
N458 H464 0.984 . S
N458 H465 0.984 . S
N459 C452 1.356 . S
N459 H462 0.984 . S
N459 H463 0.985 . S
H460 N455 0.984 . S
H461 N455 0.985 . S
H462 N459 0.984 . S
H463 N459 0.985 . S
H464 N458 0.984 . S
H465 N458 0.984 . S
H466 N454 0.984 . S
H467 N454 0.985 . S
C468 C469 1.363 . S
C468 C474 1.379 . S
C468 N476 1.356 . S
C469 C468 1.363 . S
C469 C475 1.363 . S
C470 C471 1.363 . S
C470 C475 1.379 . S
C470 N477 1.356 . S
C471 C470 1.363 . S
C471 C474 1.363 . S
N472 C474 1.356 . S
N472 H484 0.984 . S
N472 H485 0.985 . S
N473 C475 1.356 . S
N473 H478 0.984 . S
N473 H479 0.985 . S
C474 C468 1.379 . S
C474 C471 1.363 . S
C474 N472 1.356 . S
C475 C469 1.363 . S
C475 C470 1.379 . S
C475 N473 1.356 . S
N476 C468 1.356 . S
N476 H482 0.984 . S
N476 H483 0.984 . S
N477 C470 1.356 . S
N477 H480 0.984 . S
N477 H481 0.985 . S
H478 N473 0.984 . S
H479 N473 0.985 . S
H480 N477 0.984 . S
H481 N477 0.985 . S
H482 N476 0.984 . S
H483 N476 0.984 . S
H484 N472 0.984 . S
H485 N472 0.985 . S
C486 C487 1.363 1_545 S
C486 C492 1.379 . S
C486 N494 1.356 . S
C487 C486 1.363 1_565 S
C487 C493 1.363 . S
C488 C489 1.363 . S
C488 C493 1.379 . S
C488 N495 1.356 . S
C489 C488 1.363 . S
C489 C492 1.363 1_565 S
N490 C492 1.356 . S
N490 H502 0.984 . S
N490 H503 0.985 . S
N491 C493 1.356 . S
N491 H496 0.984 . S
N491 H497 0.985 . S
C492 C486 1.379 . S
C492 C489 1.363 1_545 S
C492 N490 1.356 . S
C493 C487 1.363 . S
C493 C488 1.379 . S
C493 N491 1.356 . S
N494 C486 1.356 . S
N494 H500 0.984 . S
N494 H501 0.984 . S
N495 C488 1.356 . S
N495 H498 0.984 . S
N495 H499 0.985 . S
H496 N491 0.984 . S
H497 N491 0.985 . S
H498 N495 0.984 . S
H499 N495 0.985 . S
H500 N494 0.984 . S
H501 N494 0.984 . S
H502 N490 0.984 . S
H503 N490 0.985 . S
C504 C505 1.363 . S
C504 C510 1.379 . S
C504 N512 1.356 . S
C505 C504 1.363 . S
C505 C511 1.363 . S
C506 C507 1.363 . S
C506 C511 1.379 . S
C506 N513 1.356 . S
C507 C506 1.363 . S
C507 C510 1.363 . S
N508 C510 1.356 . S
N508 H520 0.984 . S
N508 H521 0.985 . S
N509 C511 1.356 . S
N509 H514 0.984 . S
N509 H515 0.985 . S
C510 C504 1.379 . S
C510 C507 1.363 . S
C510 N508 1.356 . S
C511 C505 1.363 . S
C511 C506 1.379 . S
C511 N509 1.356 . S
N512 C504 1.356 . S
N512 H518 0.984 . S
N512 H519 0.984 . S
N513 C506 1.356 . S
N513 H516 0.984 . S
N513 H517 0.985 . S
H514 N509 0.984 . S
H515 N509 0.985 . S
H516 N513 0.984 . S
H517 N513 0.985 . S
H518 N512 0.984 . S
H519 N512 0.984 . S
H520 N508 0.984 . S
H521 N508 0.985 . S
C522 C523 1.363 . S
C522 C528 1.379 . S
C522 N530 1.356 . S
C523 C522 1.363 . S
C523 C529 1.363 . S
C524 C525 1.363 . S
C524 C529 1.379 . S
C524 N531 1.356 . S
C525 C524 1.363 . S
C525 C528 1.363 . S
N526 C528 1.356 . S
N526 H538 0.984 . S
N526 H539 0.985 . S
N527 C529 1.356 . S
N527 H532 0.984 . S
N527 H533 0.985 . S
C528 C522 1.379 . S
C528 C525 1.363 . S
C528 N526 1.356 . S
C529 C523 1.363 . S
C529 C524 1.379 . S
C529 N527 1.356 . S
N530 C522 1.356 . S
N530 H536 0.984 . S
N530 H537 0.984 . S
N531 C524 1.356 . S
N531 H534 0.984 . S
N531 H535 0.985 . S
H532 N527 0.984 . S
H533 N527 0.985 . S
H534 N531 0.984 . S
H535 N531 0.985 . S
H536 N530 0.984 . S
H537 N530 0.984 . S
H538 N526 0.984 . S
H539 N526 0.985 . S
C540 C541 1.363 . S
C540 C546 1.379 . S
C540 N548 1.356 . S
C541 C540 1.363 . S
C541 C547 1.363 . S
C542 C543 1.363 . S
C542 C547 1.379 . S
C542 N549 1.356 . S
C543 C542 1.363 . S
C543 C546 1.363 . S
N544 C546 1.356 . S
N544 H556 0.984 . S
N544 H557 0.985 . S
N545 C547 1.356 . S
N545 H550 0.984 . S
N545 H551 0.985 . S
C546 C540 1.379 . S
C546 C543 1.363 . S
C546 N544 1.356 . S
C547 C541 1.363 . S
C547 C542 1.379 . S
C547 N545 1.356 . S
N548 C540 1.356 . S
N548 H554 0.984 . S
N548 H555 0.984 . S
N549 C542 1.356 . S
N549 H552 0.984 . S
N549 H553 0.985 . S
H550 N545 0.984 . S
H551 N545 0.985 . S
H552 N549 0.984 . S
H553 N549 0.985 . S
H554 N548 0.984 . S
H555 N548 0.984 . S
H556 N544 0.984 . S
H557 N544 0.985 . S
C558 C559 1.363 . S
C558 C564 1.379 . S
C558 N566 1.356 . S
C559 C558 1.363 . S
C559 C565 1.363 . S
C560 C561 1.363 . S
C560 C565 1.379 . S
C560 N567 1.356 . S
C561 C560 1.363 . S
C561 C564 1.363 . S
N562 C564 1.356 . S
N562 H574 0.984 . S
N562 H575 0.985 . S
N563 C565 1.356 . S
N563 H568 0.984 . S
N563 H569 0.985 . S
C564 C558 1.379 . S
C564 C561 1.363 . S
C564 N562 1.356 . S
C565 C559 1.363 . S
C565 C560 1.379 . S
C565 N563 1.356 . S
N566 C558 1.356 . S
N566 H572 0.984 . S
N566 H573 0.984 . S
N567 C560 1.356 . S
N567 H570 0.984 . S
N567 H571 0.985 . S
H568 N563 0.984 . S
H569 N563 0.985 . S
H570 N567 0.984 . S
H571 N567 0.985 . S
H572 N566 0.984 . S
H573 N566 0.984 . S
H574 N562 0.984 . S
H575 N562 0.985 . S
C576 C577 1.363 . S
C576 C582 1.379 . S
C576 N584 1.356 . S
C577 C576 1.363 . S
C577 C583 1.363 . S
C578 C579 1.363 . S
C578 C583 1.379 . S
C578 N585 1.356 . S
C579 C578 1.363 . S
C579 C582 1.363 . S
N580 C582 1.356 . S
N580 H592 0.984 . S
N580 H593 0.985 . S
N581 C583 1.356 . S
N581 H586 0.984 . S
N581 H587 0.985 . S
C582 C576 1.379 . S
C582 C579 1.363 . S
C582 N580 1.356 . S
C583 C577 1.363 . S
C583 C578 1.379 . S
C583 N581 1.356 . S
N584 C576 1.356 . S
N584 H590 0.984 . S
N584 H591 0.984 . S
N585 C578 1.356 . S
N585 H588 0.984 . S
N585 H589 0.985 . S
H586 N581 0.984 . S
H587 N581 0.985 . S
H588 N585 0.984 . S
H589 N585 0.985 . S
H590 N584 0.984 . S
H591 N584 0.984 . S
H592 N580 0.984 . S
H593 N580 0.985 . S
C594 C595 1.363 . S
C594 C600 1.379 . S
C594 N602 1.356 . S
C595 C594 1.363 . S
C595 C601 1.363 . S
C596 C597 1.363 . S
C596 C601 1.379 . S
C596 N603 1.356 . S
C597 C596 1.363 . S
C597 C600 1.363 . S
N598 C600 1.356 . S
N598 H610 0.984 . S
N598 H611 0.985 . S
N599 C601 1.356 . S
N599 H604 0.984 . S
N599 H605 0.985 . S
C600 C594 1.379 . S
C600 C597 1.363 . S
C600 N598 1.356 . S
C601 C595 1.363 . S
C601 C596 1.379 . S
C601 N599 1.356 . S
N602 C594 1.356 . S
N602 H608 0.984 . S
N602 H609 0.984 . S
N603 C596 1.356 . S
N603 H606 0.984 . S
N603 H607 0.985 . S
H604 N599 0.984 . S
H605 N599 0.985 . S
H606 N603 0.984 . S
H607 N603 0.985 . S
H608 N602 0.984 . S
H609 N602 0.984 . S
H610 N598 0.984 . S
H611 N598 0.985 . S
C612 C613 1.363 . S
C612 C618 1.379 . S
C612 N620 1.356 . S
C613 C612 1.363 . S
C613 C619 1.363 . S
C614 C615 1.363 . S
C614 C619 1.379 . S
C614 N621 1.356 . S
C615 C614 1.363 . S
C615 C618 1.363 . S
N616 C618 1.356 . S
N616 H628 0.984 . S
N616 H629 0.985 . S
N617 C619 1.356 . S
N617 H622 0.984 . S
N617 H623 0.985 . S
C618 C612 1.379 . S
C618 C615 1.363 . S
C618 N616 1.356 . S
C619 C613 1.363 . S
C619 C614 1.379 . S
C619 N617 1.356 . S
N620 C612 1.356 . S
N620 H626 0.984 . S
N620 H627 0.984 . S
N621 C614 1.356 . S
N621 H624 0.984 . S
N621 H625 0.985 . S
H622 N617 0.984 . S
H623 N617 0.985 . S
H624 N621 0.984 . S
H625 N621 0.985 . S
H626 N620 0.984 . S
H627 N620 0.984 . S
H628 N616 0.984 . S
H629 N616 0.985 . S
C630 C631 1.363 1_455 S
C630 C636 1.379 . S
C630 N638 1.356 . S
C631 C630 1.363 1_655 S
C631 C637 1.363 . S
C632 C633 1.363 . S
C632 C637 1.379 . S
C632 N639 1.356 . S
C633 C632 1.363 . S
C633 C636 1.363 1_655 S
N634 C636 1.356 . S
N634 H646 0.984 . S
N634 H647 0.985 . S
N635 C637 1.356 . S
N635 H640 0.984 . S
N635 H641 0.985 . S
C636 C630 1.379 . S
C636 C633 1.363 1_455 S
C636 N634 1.356 . S
C637 C631 1.363 . S
C637 C632 1.379 . S
C637 N635 1.356 . S
N638 C630 1.356 . S
N638 H644 0.984 . S
N638 H645 0.984 . S
N639 C632 1.356 . S
N639 H642 0.984 . S
N639 H643 0.985 . S
H640 N635 0.984 . S
H641 N635 0.985 . S
H642 N639 0.984 . S
H643 N639 0.985 . S
H644 N638 0.984 . S
H645 N638 0.984 . S
H646 N634 0.984 . S
H647 N634 0.985 . S
C648 C649 1.363 . S
C648 C654 1.379 . S
C648 N656 1.356 . S
C649 C648 1.363 . S
C649 C655 1.363 . S
C650 C651 1.363 . S
C650 C655 1.379 . S
C650 N657 1.356 . S
C651 C650 1.363 . S
C651 C654 1.363 . S
N652 C654 1.356 . S
N652 H664 0.984 . S
N652 H665 0.985 . S
N653 C655 1.356 . S
N653 H658 0.984 . S
N653 H659 0.985 . S
C654 C648 1.379 . S
C654 C651 1.363 . S
C654 N652 1.356 . S
C655 C649 1.363 . S
C655 C650 1.379 . S
C655 N653 1.356 . S
N656 C648 1.356 . S
N656 H662 0.984 . S
N656 H663 0.984 . S
N657 C650 1.356 . S
N657 H660 0.984 . S
N657 H661 0.985 . S
H658 N653 0.984 . S
H659 N653 0.985 . S
H660 N657 0.984 . S
H661 N657 0.985 . S
H662 N656 0.984 . S
H663 N656 0.984 . S
H664 N652 0.984 . S
H665 N652 0.985 . S
C666 C667 1.363 . S
C666 C672 1.379 . S
C666 N674 1.356 . S
C667 C666 1.363 . S
C667 C673 1.363 . S
C668 C669 1.363 . S
C668 C673 1.379 . S
C668 N675 1.356 . S
C669 C668 1.363 . S
C669 C672 1.363 . S
N670 C672 1.356 . S
N670 H682 0.984 . S
N670 H683 0.985 . S
N671 C673 1.356 . S
N671 H676 0.984 . S
N671 H677 0.985 . S
C672 C666 1.379 . S
C672 C669 1.363 . S
C672 N670 1.356 . S
C673 C667 1.363 . S
C673 C668 1.379 . S
C673 N671 1.356 . S
N674 C666 1.356 . S
N674 H680 0.984 . S
N674 H681 0.984 . S
N675 C668 1.356 . S
N675 H678 0.984 . S
N675 H679 0.985 . S
H676 N671 0.984 . S
H677 N671 0.985 . S
H678 N675 0.984 . S
H679 N675 0.985 . S
H680 N674 0.984 . S
H681 N674 0.984 . S
H682 N670 0.984 . S
H683 N670 0.985 . S
C684 C685 1.376 1_565 S
C684 C690 1.372 1_556 S
C684 N692 1.354 1_566 S
C685 C684 1.376 1_545 S
C685 C691 1.363 1_545 S
C686 C687 1.363 . S
C686 C691 1.379 . S
C686 N693 1.356 . S
C687 C686 1.363 . S
C687 C690 1.363 1_556 S
N688 C690 1.356 . S
N688 H700 0.984 . S
N688 H701 0.985 . S
N689 C691 1.356 1_545 S
N689 H694 0.984 . S
N689 H695 0.989 . S
C690 C684 1.372 1_554 S
C690 C687 1.363 1_554 S
C690 N688 1.356 . S
C691 C685 1.363 1_565 S
C691 C686 1.379 . S
C691 N689 1.356 1_565 S
N692 C684 1.354 1_544 S
N692 H698 0.984 . S
N692 H699 0.984 1_554 S
N693 C686 1.356 . S
N693 H696 0.984 . S
N693 H697 0.985 . S
H694 N689 0.984 . S
H695 N689 0.989 . S
H696 N693 0.984 . S
H697 N693 0.985 . S
H698 N692 0.984 . S
H699 N692 0.984 1_556 S
H700 N688 0.984 . S
H701 N688 0.985 . S
C702 C703 1.363 . S
C702 C708 1.379 . S
C702 N710 1.356 . S
C703 C702 1.363 . S
C703 C709 1.363 . S
C704 C705 1.363 . S
C704 C709 1.379 . S
C704 N711 1.356 . S
C705 C704 1.363 . S
C705 C708 1.363 . S
N706 C708 1.356 . S
N706 H718 0.984 . S
N706 H719 0.985 . S
N707 C709 1.356 . S
N707 H712 0.984 . S
N707 H713 0.985 . S
C708 C702 1.379 . S
C708 C705 1.363 . S
C708 N706 1.356 . S
C709 C703 1.363 . S
C709 C704 1.379 . S
C709 N707 1.356 . S
N710 C702 1.356 . S
N710 H716 0.984 . S
N710 H717 0.984 . S
N711 C704 1.356 . S
N711 H714 0.984 . S
N711 H715 0.985 . S
H712 N707 0.984 . S
H713 N707 0.985 . S
H714 N711 0.984 . S
H715 N711 0.985 . S
H716 N710 0.984 . S
H717 N710 0.984 . S
H718 N706 0.984 . S
H719 N706 0.985 . S
C720 C721 1.363 . S
C720 C726 1.379 . S
C720 N728 1.356 . S
C721 C720 1.363 . S
C721 C727 1.363 . S
C722 C723 1.363 . S
C722 C727 1.379 . S
C722 N729 1.356 . S
C723 C722 1.363 . S
C723 C726 1.363 . S
N724 C726 1.356 . S
N724 H736 0.984 . S
N724 H737 0.985 . S
N725 C727 1.356 1_565 S
N725 H730 0.984 . S
N725 H731 0.985 . S
C726 C720 1.379 . S
C726 C723 1.363 . S
C726 N724 1.356 . S
C727 C721 1.363 . S
C727 C722 1.379 . S
C727 N725 1.356 1_545 S
N728 C720 1.356 . S
N728 H734 0.984 . S
N728 H735 0.984 . S
N729 C722 1.356 . S
N729 H732 0.984 . S
N729 H733 0.985 . S
H730 N725 0.984 . S
H731 N725 0.985 . S
H732 N729 0.984 . S
H733 N729 0.985 . S
H734 N728 0.984 . S
H735 N728 0.984 . S
H736 N724 0.984 . S
H737 N724 0.985 . S
C738 C739 1.363 . S
C738 C744 1.379 . S
C738 N746 1.356 . S
C739 C738 1.363 . S
C739 C745 1.363 . S
C740 C741 1.363 . S
C740 C745 1.379 . S
C740 N747 1.356 . S
C741 C740 1.363 . S
C741 C744 1.363 . S
N742 C744 1.356 . S
N742 H754 0.984 . S
N742 H755 0.985 . S
N743 C745 1.356 . S
N743 H748 0.984 . S
N743 H749 0.985 . S
C744 C738 1.379 . S
C744 C741 1.363 . S
C744 N742 1.356 . S
C745 C739 1.363 . S
C745 C740 1.379 . S
C745 N743 1.356 . S
N746 C738 1.356 . S
N746 H752 0.984 . S
N746 H753 0.984 . S
N747 C740 1.356 . S
N747 H750 0.984 . S
N747 H751 0.985 . S
H748 N743 0.984 . S
H749 N743 0.985 . S
H750 N747 0.984 . S
H751 N747 0.985 . S
H752 N746 0.984 . S
H753 N746 0.984 . S
H754 N742 0.984 . S
H755 N742 0.985 . S
C756 C757 1.363 . S
C756 C762 1.379 . S
C756 N764 1.356 . S
C757 C756 1.363 . S
C757 C763 1.363 . S
C758 C759 1.363 . S
C758 C763 1.379 . S
C758 N765 1.356 . S
C759 C758 1.363 . S
C759 C762 1.363 . S
N760 C762 1.356 . S
N760 H772 0.984 . S
N760 H773 0.985 . S
N761 C763 1.356 . S
N761 H766 0.984 1_545 S
N761 H767 0.985 1_545 S
C762 C756 1.379 . S
C762 C759 1.363 . S
C762 N760 1.356 . S
C763 C757 1.363 . S
C763 C758 1.379 . S
C763 N761 1.356 . S
N764 C756 1.356 . S
N764 H770 0.984 . S
N764 H771 0.984 . S
N765 C758 1.356 . S
N765 H768 0.984 . S
N765 H769 0.985 . S
H766 N761 0.984 1_565 S
H767 N761 0.985 1_565 S
H768 N765 0.984 . S
H769 N765 0.985 . S
H770 N764 0.984 . S
H771 N764 0.984 . S
H772 N760 0.984 . S
H773 N760 0.985 . S
C774 C775 1.363 . S
C774 C780 1.379 . S
C774 N782 1.356 . S
C775 C774 1.363 . S
C775 C781 1.363 . S
C776 C777 1.363 . S
C776 C781 1.379 . S
C776 N783 1.356 . S
C777 C776 1.363 . S
C777 C780 1.363 . S
N778 C780 1.356 . S
N778 H790 0.984 . S
N778 H791 0.985 . S
N779 C781 1.356 . S
N779 H784 0.984 . S
N779 H785 0.985 . S
C780 C774 1.379 . S
C780 C777 1.363 . S
C780 N778 1.356 . S
C781 C775 1.363 . S
C781 C776 1.379 . S
C781 N779 1.356 . S
N782 C774 1.356 . S
N782 H788 0.984 . S
N782 H789 0.984 . S
N783 C776 1.356 . S
N783 H786 0.984 . S
N783 H787 0.985 . S
H784 N779 0.984 . S
H785 N779 0.985 . S
H786 N783 0.984 . S
H787 N783 0.985 . S
H788 N782 0.984 . S
H789 N782 0.984 . S
H790 N778 0.984 . S
H791 N778 0.985 . S
C792 C793 1.363 . S
C792 C798 1.379 . S
C792 N800 1.356 . S
C793 C792 1.363 . S
C793 C799 1.363 . S
C794 C795 1.363 . S
C794 C799 1.379 . S
C794 N801 1.356 . S
C795 C794 1.363 . S
C795 C798 1.363 . S
N796 C798 1.356 . S
N796 H808 0.984 . S
N796 H809 0.985 . S
N797 C799 1.356 . S
N797 H802 0.984 . S
N797 H803 0.985 . S
C798 C792 1.379 . S
C798 C795 1.363 . S
C798 N796 1.356 . S
C799 C793 1.363 . S
C799 C794 1.379 . S
C799 N797 1.356 . S
N800 C792 1.356 . S
N800 H806 0.984 . S
N800 H807 0.984 . S
N801 C794 1.356 . S
N801 H804 0.984 . S
N801 H805 0.985 . S
H802 N797 0.984 . S
H803 N797 0.985 . S
H804 N801 0.984 . S
H805 N801 0.985 . S
H806 N800 0.984 . S
H807 N800 0.984 . S
H808 N796 0.984 . S
H809 N796 0.985 . S
C810 C811 1.363 . S
C810 C816 1.379 . S
C810 N818 1.356 . S
C811 C810 1.363 . S
C811 C817 1.363 . S
C812 C813 1.363 . S
C812 C817 1.379 . S
C812 N819 1.356 1_545 S
C813 C812 1.363 . S
C813 C816 1.363 . S
N814 C816 1.356 . S
N814 H826 0.984 . S
N814 H827 0.985 . S
N815 C817 1.348 1_565 S
N815 H820 0.976 1_565 S
N815 H821 1.002 . S
C816 C810 1.379 . S
C816 C813 1.363 . S
C816 N814 1.356 . S
C817 C811 1.363 . S
C817 C812 1.379 . S
C817 N815 1.348 1_545 S
N818 C810 1.356 . S
N818 H824 0.984 . S
N818 H825 0.984 . S
N819 C812 1.356 1_565 S
N819 H822 0.984 . S
N819 H823 0.985 . S
H820 N815 0.976 1_545 S
H821 N815 1.002 . S
H822 N819 0.984 . S
H823 N819 0.985 . S
H824 N818 0.984 . S
H825 N818 0.984 . S
H826 N814 0.984 . S
H827 N814 0.985 . S
C828 C829 1.363 . S
C828 C834 1.379 . S
C828 N836 1.356 . S
C829 C828 1.363 . S
C829 C835 1.363 . S
C830 C831 1.363 . S
C830 C835 1.379 . S
C830 N837 1.356 . S
C831 C830 1.363 . S
C831 C834 1.363 . S
N832 C834 1.356 . S
N832 H844 0.984 . S
N832 H845 0.985 . S
N833 C835 1.356 . S
N833 H838 0.984 . S
N833 H839 0.985 . S
C834 C828 1.379 . S
C834 C831 1.363 . S
C834 N832 1.356 . S
C835 C829 1.363 . S
C835 C830 1.379 . S
C835 N833 1.356 . S
N836 C828 1.356 . S
N836 H842 0.984 . S
N836 H843 0.984 . S
N837 C830 1.356 . S
N837 H840 0.984 . S
N837 H841 0.985 . S
H838 N833 0.984 . S
H839 N833 0.985 . S
H840 N837 0.984 . S
H841 N837 0.985 . S
H842 N836 0.984 . S
H843 N836 0.984 . S
H844 N832 0.984 . S
H845 N832 0.985 . S
C846 C847 1.363 . S
C846 C852 1.379 . S
C846 N854 1.356 . S
C847 C846 1.363 . S
C847 C853 1.363 . S
C848 C849 1.363 . S
C848 C853 1.379 . S
C848 N855 1.356 . S
C849 C848 1.363 . S
C849 C852 1.363 . S
N850 C852 1.356 . S
N850 H862 0.984 . S
N850 H863 0.985 . S
N851 C853 1.356 . S
N851 H856 0.984 . S
N851 H857 0.985 . S
C852 C846 1.379 . S
C852 C849 1.363 . S
C852 N850 1.356 . S
C853 C847 1.363 . S
C853 C848 1.379 . S
C853 N851 1.356 . S
N854 C846 1.356 . S
N854 H860 0.984 . S
N854 H861 0.984 . S
N855 C848 1.356 . S
N855 H858 0.984 . S
N855 H859 0.985 . S
H856 N851 0.984 . S
H857 N851 0.985 . S
H858 N855 0.984 . S
H859 N855 0.985 . S
H860 N854 0.984 . S
H861 N854 0.984 . S
H862 N850 0.984 . S
H863 N850 0.985 . S
C864 C865 1.363 . S
C864 C870 1.379 . S
C864 N872 1.356 . S
C865 C864 1.363 . S
C865 C871 1.363 . S
C866 C867 1.363 . S
C866 C871 1.379 . S
C866 N873 1.356 . S
C867 C866 1.363 . S
C867 C870 1.363 . S
N868 C870 1.356 . S
N868 H880 0.984 . S
N868 H881 0.985 . S
N869 C871 1.356 . S
N869 H874 0.984 . S
N869 H875 0.985 . S
C870 C864 1.379 . S
C870 C867 1.363 . S
C870 N868 1.356 . S
C871 C865 1.363 . S
C871 C866 1.379 . S
C871 N869 1.356 . S
N872 C864 1.356 . S
N872 H878 0.984 . S
N872 H879 0.984 . S
N873 C866 1.356 . S
N873 H876 0.984 . S
N873 H877 0.985 . S
H874 N869 0.984 . S
H875 N869 0.985 . S
H876 N873 0.984 . S
H877 N873 0.985 . S
H878 N872 0.984 . S
H879 N872 0.984 . S
H880 N868 0.984 . S
H881 N868 0.985 . S
C882 C883 1.363 1_565 S
C882 C888 1.379 1_465 S
C882 N890 1.355 . S
C883 C882 1.363 1_545 S
C883 C889 1.363 . S
C884 C885 1.362 . S
C884 C889 1.379 . S
C884 N891 1.356 . S
C885 C884 1.362 . S
C885 C888 1.363 1_455 S
N886 C888 1.356 1_565 S
N886 H898 0.984 . S
N886 H899 0.985 . S
N887 C889 1.356 . S
N887 H892 0.984 . S
N887 H893 0.985 . S
C888 C882 1.379 1_645 S
C888 C885 1.363 1_655 S
C888 N886 1.356 1_545 S
C889 C883 1.363 . S
C889 C884 1.379 . S
C889 N887 1.356 . S
N890 C882 1.355 . S
N890 H896 0.966 1_455 S
N890 H897 1.006 . S
N891 C884 1.356 . S
N891 H894 0.984 . S
N891 H895 0.985 . S
H892 N887 0.984 . S
H893 N887 0.985 . S
H894 N891 0.984 . S
H895 N891 0.985 . S
H896 N890 0.966 1_655 S
H897 N890 1.006 . S
H898 N886 0.984 . S
H899 N886 0.985 . S
C900 C901 1.363 . S
C900 C906 1.379 . S
C900 N908 1.356 . S
C901 C900 1.363 . S
C901 C907 1.363 . S
C902 C903 1.363 . S
C902 C907 1.379 . S
C902 N909 1.356 . S
C903 C902 1.363 . S
C903 C906 1.363 . S
N904 C906 1.356 . S
N904 H916 0.984 . S
N904 H917 0.985 . S
N905 C907 1.356 . S
N905 H910 0.984 . S
N905 H911 0.985 . S
C906 C900 1.379 . S
C906 C903 1.363 . S
C906 N904 1.356 . S
C907 C901 1.363 . S
C907 C902 1.379 . S
C907 N905 1.356 . S
N908 C900 1.356 . S
N908 H914 0.984 . S
N908 H915 0.984 . S
N909 C902 1.356 . S
N909 H912 0.984 . S
N909 H913 0.985 . S
H910 N905 0.984 . S
H911 N905 0.985 . S
H912 N909 0.984 . S
H913 N909 0.985 . S
H914 N908 0.984 . S
H915 N908 0.984 . S
H916 N904 0.984 . S
H917 N904 0.985 . S
C918 C919 1.363 . S
C918 C924 1.379 . S
C918 N926 1.356 . S
C919 C918 1.363 . S
C919 C925 1.363 . S
C920 C921 1.363 . S
C920 C925 1.379 . S
C920 N927 1.356 . S
C921 C920 1.363 . S
C921 C924 1.363 . S
N922 C924 1.356 . S
N922 H934 0.984 . S
N922 H935 0.985 . S
N923 C925 1.356 1_655 S
N923 H928 0.984 . S
N923 H929 0.985 . S
C924 C918 1.379 . S
C924 C921 1.363 . S
C924 N922 1.356 . S
C925 C919 1.363 . S
C925 C920 1.379 . S
C925 N923 1.356 1_455 S
N926 C918 1.356 . S
N926 H932 0.984 . S
N926 H933 0.984 . S
N927 C920 1.356 . S
N927 H930 0.984 . S
N927 H931 0.985 . S
H928 N923 0.984 . S
H929 N923 0.985 . S
H930 N927 0.984 . S
H931 N927 0.985 . S
H932 N926 0.984 . S
H933 N926 0.984 . S
H934 N922 0.984 . S
H935 N922 0.985 . S
C936 C937 1.363 . S
C936 C942 1.379 . S
C936 N944 1.356 . S
C937 C936 1.363 . S
C937 C943 1.363 . S
C938 C939 1.363 . S
C938 C943 1.379 . S
C938 N945 1.356 . S
C939 C938 1.363 . S
C939 C942 1.363 . S
N940 C942 1.356 . S
N940 H952 0.984 . S
N940 H953 0.985 . S
N941 C943 1.356 . S
N941 H946 0.984 . S
N941 H947 0.985 . S
C942 C936 1.379 . S
C942 C939 1.363 . S
C942 N940 1.356 . S
C943 C937 1.363 . S
C943 C938 1.379 . S
C943 N941 1.356 . S
N944 C936 1.356 . S
N944 H950 0.984 . S
N944 H951 0.984 . S
N945 C938 1.356 . S
N945 H948 0.984 . S
N945 H949 0.985 . S
H946 N941 0.984 . S
H947 N941 0.985 . S
H948 N945 0.984 . S
H949 N945 0.985 . S
H950 N944 0.984 . S
H951 N944 0.984 . S
H952 N940 0.984 . S
H953 N940 0.985 . S
C954 C955 1.363 1_455 S
C954 C960 1.379 . S
C954 N962 1.356 1_556 S
C955 C954 1.363 1_655 S
C955 C961 1.363 . S
C956 C957 1.363 . S
C956 C961 1.379 . S
C956 N963 1.356 . S
C957 C956 1.363 . S
C957 C960 1.363 1_655 S
N958 C960 1.356 . S
N958 H970 0.984 . S
N958 H971 0.985 . S
N959 C961 1.356 . S
N959 H964 0.984 . S
N959 H965 0.985 . S
C960 C954 1.379 . S
C960 C957 1.363 1_455 S
C960 N958 1.356 . S
C961 C955 1.363 . S
C961 C956 1.379 . S
C961 N959 1.356 . S
N962 C954 1.356 1_554 S
N962 H968 0.984 . S
N962 H969 0.984 . S
N963 C956 1.356 . S
N963 H966 0.984 . S
N963 H967 0.985 . S
H964 N959 0.984 . S
H965 N959 0.985 . S
H966 N963 0.984 . S
H967 N963 0.985 . S
H968 N962 0.984 . S
H969 N962 0.984 . S
H970 N958 0.984 . S
H971 N958 0.985 . S
C972 C973 1.363 . S
C972 C978 1.379 . S
C972 N980 1.356 . S
C973 C972 1.363 . S
C973 C979 1.363 . S
C974 C975 1.363 . S
C974 C979 1.379 . S
C974 N981 1.356 . S
C975 C974 1.363 . S
C975 C978 1.363 . S
N976 C978 1.356 . S
N976 H988 0.984 . S
N976 H989 0.985 . S
N977 C979 1.356 . S
N977 H982 0.984 . S
N977 H983 0.985 . S
C978 C972 1.379 . S
C978 C975 1.363 . S
C978 N976 1.356 . S
C979 C973 1.363 . S
C979 C974 1.379 . S
C979 N977 1.356 . S
N980 C972 1.356 . S
N980 H986 0.984 . S
N980 H987 0.984 . S
N981 C974 1.356 . S
N981 H984 0.984 . S
N981 H985 0.985 . S
H982 N977 0.984 . S
H983 N977 0.985 . S
H984 N981 0.984 . S
H985 N981 0.985 . S
H986 N980 0.984 . S
H987 N980 0.984 . S
H988 N976 0.984 . S
H989 N976 0.985 . S
C990 C991 1.363 . S
C990 C996 1.379 . S
C990 N998 1.356 . S
C991 C990 1.363 . S
C991 C997 1.363 . S
C992 C993 1.363 . S
C992 C997 1.379 . S
C992 N999 1.356 1_455 S
C993 C992 1.363 . S
C993 C996 1.363 . S
N994 C996 1.356 . S
N994 H1006 0.984 . S
N994 H1007 0.985 . S
N995 C997 1.356 1_655 S
N995 H1000 0.984 1_656 S
N995 H1001 0.985 1_556 S
C996 C990 1.379 . S
C996 C993 1.363 . S
C996 N994 1.356 . S
C997 C991 1.363 . S
C997 C992 1.379 . S
C997 N995 1.356 1_455 S
N998 C990 1.356 . S
N998 H1004 0.984 . S
N998 H1005 0.984 . S
N999 C992 1.356 1_655 S
N999 H1002 0.984 . S
N999 H1003 0.985 . S
H1000 N995 0.984 1_454 S
H1001 N995 0.985 1_554 S
H1002 N999 0.984 . S
H1003 N999 0.985 . S
H1004 N998 0.984 . S
H1005 N998 0.984 . S
H1006 N994 0.984 . S
H1007 N994 0.985 . S
C1008 C1009 1.363 . S
C1008 C1014 1.379 . S
C1008 N1016 1.356 . S
C1009 C1008 1.363 . S
C1009 C1015 1.363 . S
C1010 C1011 1.363 . S
C1010 C1015 1.379 . S
C1010 N1017 1.356 . S
C1011 C1010 1.363 . S
C1011 C1014 1.363 . S
N1012 C1014 1.356 . S
N1012 H1024 0.984 . S
N1012 H1025 0.985 . S
N1013 C1015 1.356 . S
N1013 H1018 0.984 . S
N1013 H1019 0.985 . S
C1014 C1008 1.379 . S
C1014 C1011 1.363 . S
C1014 N1012 1.356 . S
C1015 C1009 1.363 . S
C1015 C1010 1.379 . S
C1015 N1013 1.356 . S
N1016 C1008 1.356 . S
N1016 H1022 0.984 . S
N1016 H1023 0.984 . S
N1017 C1010 1.356 . S
N1017 H1020 0.984 . S
N1017 H1021 0.985 . S
H1018 N1013 0.984 . S
H1019 N1013 0.985 . S
H1020 N1017 0.984 . S
H1021 N1017 0.985 . S
H1022 N1016 0.984 . S
H1023 N1016 0.984 . S
H1024 N1012 0.984 . S
H1025 N1012 0.985 . S
C1026 C1027 1.363 . S
C1026 C1032 1.379 . S
C1026 N1034 1.356 1_554 S
C1027 C1026 1.363 . S
C1027 C1033 1.363 . S
C1028 C1029 1.363 . S
C1028 C1033 1.379 . S
C1028 N1035 1.356 . S
C1029 C1028 1.363 . S
C1029 C1032 1.363 . S
N1030 C1032 1.356 . S
N1030 H1042 0.984 . S
N1030 H1043 0.985 . S
N1031 C1033 1.356 . S
N1031 H1036 0.984 . S
N1031 H1037 0.985 . S
C1032 C1026 1.379 . S
C1032 C1029 1.363 . S
C1032 N1030 1.356 . S
C1033 C1027 1.363 . S
C1033 C1028 1.379 . S
C1033 N1031 1.356 . S
N1034 C1026 1.356 1_556 S
N1034 H1040 0.984 . S
N1034 H1041 0.984 . S
N1035 C1028 1.356 . S
N1035 H1038 0.984 . S
N1035 H1039 0.985 . S
H1036 N1031 0.984 . S
H1037 N1031 0.985 . S
H1038 N1035 0.984 . S
H1039 N1035 0.985 . S
H1040 N1034 0.984 . S
H1041 N1034 0.984 . S
H1042 N1030 0.984 . S
H1043 N1030 0.985 . S
C1044 C1045 1.363 . S
C1044 C1050 1.379 . S
C1044 N1052 1.356 . S
C1045 C1044 1.363 . S
C1045 C1051 1.363 . S
C1046 C1047 1.363 . S
C1046 C1051 1.379 . S
C1046 N1053 1.356 . S
C1047 C1046 1.363 . S
C1047 C1050 1.363 . S
N1048 C1050 1.356 . S
N1048 H1060 0.984 . S
N1048 H1061 0.985 . S
N1049 C1051 1.356 . S
N1049 H1054 0.984 . S
N1049 H1055 0.985 . S
C1050 C1044 1.379 . S
C1050 C1047 1.363 . S
C1050 N1048 1.356 . S
C1051 C1045 1.363 . S
C1051 C1046 1.379 . S
C1051 N1049 1.356 . S
N1052 C1044 1.356 . S
N1052 H1058 0.984 . S
N1052 H1059 0.984 . S
N1053 C1046 1.356 . S
N1053 H1056 0.984 . S
N1053 H1057 0.985 . S
H1054 N1049 0.984 . S
H1055 N1049 0.985 . S
H1056 N1053 0.984 . S
H1057 N1053 0.985 . S
H1058 N1052 0.984 . S
H1059 N1052 0.984 . S
H1060 N1048 0.984 . S
H1061 N1048 0.985 . S
C1062 C1063 1.363 . S
C1062 C1068 1.379 . S
C1062 N1070 1.356 . S
C1063 C1062 1.363 . S
C1063 C1069 1.363 . S
C1064 C1065 1.363 . S
C1064 C1069 1.379 . S
C1064 N1071 1.356 . S
C1065 C1064 1.363 . S
C1065 C1068 1.363 . S
N1066 C1068 1.356 . S
N1066 H1078 0.984 . S
N1066 H1079 0.985 . S
N1067 C1069 1.356 1_556 S
N1067 H1072 0.984 . S
N1067 H1073 0.985 . S
C1068 C1062 1.379 . S
C1068 C1065 1.363 . S
C1068 N1066 1.356 . S
C1069 C1063 1.363 . S
C1069 C1064 1.379 . S
C1069 N1067 1.356 1_554 S
N1070 C1062 1.356 . S
N1070 H1076 0.984 . S
N1070 H1077 0.984 . S
N1071 C1064 1.356 . S
N1071 H1074 0.984 . S
N1071 H1075 0.985 . S
H1072 N1067 0.984 . S
H1073 N1067 0.985 . S
H1074 N1071 0.984 . S
H1075 N1071 0.985 . S
H1076 N1070 0.984 . S
H1077 N1070 0.984 . S
H1078 N1066 0.984 . S
H1079 N1066 0.985 . S
C1080 C1081 1.363 . S
C1080 C1086 1.379 . S
C1080 N1088 1.356 . S
C1081 C1080 1.363 . S
C1081 C1087 1.363 . S
C1082 C1083 1.363 . S
C1082 C1087 1.379 . S
C1082 N1089 1.356 . S
C1083 C1082 1.363 . S
C1083 C1086 1.363 . S
N1084 C1086 1.356 . S
N1084 H1096 0.984 . S
N1084 H1097 0.985 . S
N1085 C1087 1.356 . S
N1085 H1090 0.984 . S
N1085 H1091 0.985 . S
C1086 C1080 1.379 . S
C1086 C1083 1.363 . S
C1086 N1084 1.356 . S
C1087 C1081 1.363 . S
C1087 C1082 1.379 . S
C1087 N1085 1.356 . S
N1088 C1080 1.356 . S
N1088 H1094 0.984 . S
N1088 H1095 0.984 . S
N1089 C1082 1.356 . S
N1089 H1092 0.984 . S
N1089 H1093 0.985 . S
H1090 N1085 0.984 . S
H1091 N1085 0.985 . S
H1092 N1089 0.984 . S
H1093 N1089 0.985 . S
H1094 N1088 0.984 . S
H1095 N1088 0.984 . S
H1096 N1084 0.984 . S
H1097 N1084 0.985 . S
C1098 C1099 1.363 . S
C1098 C1104 1.379 . S
C1098 N1106 1.356 . S
C1099 C1098 1.363 . S
C1099 C1105 1.363 . S
C1100 C1101 1.363 . S
C1100 C1105 1.379 . S
C1100 N1107 1.356 . S
C1101 C1100 1.363 . S
C1101 C1104 1.363 . S
N1102 C1104 1.356 . S
N1102 H1114 0.984 . S
N1102 H1115 0.985 . S
N1103 C1105 1.356 . S
N1103 H1108 0.984 . S
N1103 H1109 0.985 . S
C1104 C1098 1.379 . S
C1104 C1101 1.363 . S
C1104 N1102 1.356 . S
C1105 C1099 1.363 . S
C1105 C1100 1.379 . S
C1105 N1103 1.356 . S
N1106 C1098 1.356 . S
N1106 H1112 0.984 . S
N1106 H1113 0.984 . S
N1107 C1100 1.356 . S
N1107 H1110 0.984 . S
N1107 H1111 0.985 . S
H1108 N1103 0.984 . S
H1109 N1103 0.985 . S
H1110 N1107 0.984 . S
H1111 N1107 0.985 . S
H1112 N1106 0.984 . S
H1113 N1106 0.984 . S
H1114 N1102 0.984 . S
H1115 N1102 0.985 . S
C1116 C1117 1.363 . S
C1116 C1122 1.379 . S
C1116 N1124 1.356 . S
C1117 C1116 1.363 . S
C1117 C1123 1.363 . S
C1118 C1119 1.363 . S
C1118 C1123 1.379 . S
C1118 N1125 1.356 . S
C1119 C1118 1.363 . S
C1119 C1122 1.363 . S
N1120 C1122 1.356 . S
N1120 H1132 0.984 . S
N1120 H1133 0.985 . S
N1121 C1123 1.356 . S
N1121 H1126 0.984 . S
N1121 H1127 0.985 . S
C1122 C1116 1.379 . S
C1122 C1119 1.363 . S
C1122 N1120 1.356 . S
C1123 C1117 1.363 . S
C1123 C1118 1.379 . S
C1123 N1121 1.356 . S
N1124 C1116 1.356 . S
N1124 H1130 0.984 . S
N1124 H1131 0.984 . S
N1125 C1118 1.356 . S
N1125 H1128 0.984 . S
N1125 H1129 0.985 . S
H1126 N1121 0.984 . S
H1127 N1121 0.985 . S
H1128 N1125 0.984 . S
H1129 N1125 0.985 . S
H1130 N1124 0.984 . S
H1131 N1124 0.984 . S
H1132 N1120 0.984 . S
H1133 N1120 0.985 . S
C1134 C1135 1.363 . S
C1134 C1140 1.379 . S
C1134 N1142 1.356 . S
C1135 C1134 1.363 . S
C1135 C1141 1.363 . S
C1136 C1137 1.363 . S
C1136 C1141 1.379 . S
C1136 N1143 1.356 . S
C1137 C1136 1.363 . S
C1137 C1140 1.363 . S
N1138 C1140 1.356 . S
N1138 H1150 0.984 . S
N1138 H1151 0.985 . S
N1139 C1141 1.356 . S
N1139 H1144 0.984 . S
N1139 H1145 0.985 . S
C1140 C1134 1.379 . S
C1140 C1137 1.363 . S
C1140 N1138 1.356 . S
C1141 C1135 1.363 . S
C1141 C1136 1.379 . S
C1141 N1139 1.356 . S
N1142 C1134 1.356 . S
N1142 H1148 0.984 . S
N1142 H1149 0.984 . S
N1143 C1136 1.356 . S
N1143 H1146 0.984 . S
N1143 H1147 0.985 . S
H1144 N1139 0.984 . S
H1145 N1139 0.985 . S
H1146 N1143 0.984 . S
H1147 N1143 0.985 . S
H1148 N1142 0.984 . S
H1149 N1142 0.984 . S
H1150 N1138 0.984 . S
H1151 N1138 0.985 . S
C1152 C1153 1.363 1_554 S
C1152 C1158 1.379 . S
C1152 N1160 1.356 . S
C1153 C1152 1.363 1_556 S
C1153 C1159 1.363 . S
C1154 C1155 1.363 . S
C1154 C1159 1.379 . S
C1154 N1161 1.356 . S
C1155 C1154 1.363 . S
C1155 C1158 1.363 1_556 S
N1156 C1158 1.356 . S
N1156 H1168 0.984 . S
N1156 H1169 0.985 . S
N1157 C1159 1.356 . S
N1157 H1162 0.984 . S
N1157 H1163 0.985 . S
C1158 C1152 1.379 . S
C1158 C1155 1.363 1_554 S
C1158 N1156 1.356 . S
C1159 C1153 1.363 . S
C1159 C1154 1.379 . S
C1159 N1157 1.356 . S
N1160 C1152 1.356 . S
N1160 H1166 0.984 . S
N1160 H1167 0.984 . S
N1161 C1154 1.356 . S
N1161 H1164 0.984 . S
N1161 H1165 0.985 . S
H1162 N1157 0.984 . S
H1163 N1157 0.985 . S
H1164 N1161 0.984 . S
H1165 N1161 0.985 . S
H1166 N1160 0.984 . S
H1167 N1160 0.984 . S
H1168 N1156 0.984 . S
H1169 N1156 0.985 . S
C1170 C1171 1.363 . S
C1170 C1176 1.379 . S
C1170 N1178 1.356 . S
C1171 C1170 1.363 . S
C1171 C1177 1.363 . S
C1172 C1173 1.363 . S
C1172 C1177 1.379 . S
C1172 N1179 1.356 . S
C1173 C1172 1.363 . S
C1173 C1176 1.363 . S
N1174 C1176 1.356 . S
N1174 H1186 0.984 . S
N1174 H1187 0.985 . S
N1175 C1177 1.356 . S
N1175 H1180 0.984 . S
N1175 H1181 0.985 . S
C1176 C1170 1.379 . S
C1176 C1173 1.363 . S
C1176 N1174 1.356 . S
C1177 C1171 1.363 . S
C1177 C1172 1.379 . S
C1177 N1175 1.356 . S
N1178 C1170 1.356 . S
N1178 H1184 0.984 . S
N1178 H1185 0.984 . S
N1179 C1172 1.356 . S
N1179 H1182 0.984 . S
N1179 H1183 0.985 . S
H1180 N1175 0.984 . S
H1181 N1175 0.985 . S
H1182 N1179 0.984 . S
H1183 N1179 0.985 . S
H1184 N1178 0.984 . S
H1185 N1178 0.984 . S
H1186 N1174 0.984 . S
H1187 N1174 0.985 . S
C1188 C1189 1.363 . S
C1188 C1194 1.379 . S
C1188 N1196 1.356 . S
C1189 C1188 1.363 . S
C1189 C1195 1.363 . S
C1190 C1191 1.363 . S
C1190 C1195 1.379 . S
C1190 N1197 1.356 . S
C1191 C1190 1.363 . S
C1191 C1194 1.363 . S
N1192 C1194 1.356 . S
N1192 H1204 0.984 . S
N1192 H1205 0.985 . S
N1193 C1195 1.356 . S
N1193 H1198 0.984 . S
N1193 H1199 0.985 . S
C1194 C1188 1.379 . S
C1194 C1191 1.363 . S
C1194 N1192 1.356 . S
C1195 C1189 1.363 . S
C1195 C1190 1.379 . S
C1195 N1193 1.356 . S
N1196 C1188 1.356 . S
N1196 H1202 0.984 . S
N1196 H1203 0.984 . S
N1197 C1190 1.356 . S
N1197 H1200 0.984 . S
N1197 H1201 0.996 . S
H1198 N1193 0.984 . S
H1199 N1193 0.985 . S
H1200 N1197 0.984 . S
H1201 N1197 0.996 . S
H1202 N1196 0.984 . S
H1203 N1196 0.984 . S
H1204 N1192 0.984 . S
H1205 N1192 0.985 . S
C1206 C1207 1.363 . S
C1206 C1212 1.379 . S
C1206 N1214 1.356 1_565 S
C1207 C1206 1.363 . S
C1207 C1213 1.363 . S
C1208 C1209 1.363 . S
C1208 C1213 1.379 . S
C1208 N1215 1.356 1_554 S
C1209 C1208 1.363 . S
C1209 C1212 1.363 . S
N1210 C1212 1.356 . S
N1210 H1222 0.984 . S
N1210 H1223 0.985 . S
N1211 C1213 1.356 1_556 S
N1211 H1216 0.984 1_556 S
N1211 H1217 0.985 . S
C1212 C1206 1.379 . S
C1212 C1209 1.363 . S
C1212 N1210 1.356 . S
C1213 C1207 1.363 . S
C1213 C1208 1.379 . S
C1213 N1211 1.356 1_554 S
N1214 C1206 1.356 1_545 S
N1214 H1220 0.984 . S
N1214 H1221 0.984 . S
N1215 C1208 1.356 1_556 S
N1215 H1218 0.984 . S
N1215 H1219 0.985 . S
H1216 N1211 0.984 1_554 S
H1217 N1211 0.985 . S
H1218 N1215 0.984 . S
H1219 N1215 0.985 . S
H1220 N1214 0.984 . S
H1221 N1214 0.984 . S
H1222 N1210 0.984 . S
H1223 N1210 0.985 . S
C363 C200 1.686 . S
C361 C66 1.745 . S
C381 C213 1.237 . S
C379 C76 1.238 . S
C397 C93 1.888 . S
C399 C233 1.726 . S
C417 C247 1.324 1_465 S
C415 C54 1.435 . S
C435 C259 1.522 . S
C433 C126 1.540 . S
C453 C273 1.724 . S
C451 C150 1.729 . S
C469 C136 1.220 . S
C471 C283 1.225 . S
C489 C298 1.786 . S
C487 C117 1.795 . S
C505 C141 1.326 . S
C507 C312 1.297 . S
C525 C331 1.287 . S
C523 C112 1.334 . S
C541 C124 1.526 . S
C543 C311 1.505 . S
C561 C329 1.314 . S
C559 C148 1.308 . S
C577 C88 1.473 . S
C579 C345 1.410 . S
C595 C52 1.576 . S
C597 C339 1.576 . S
C613 C64 1.336 . S
C615 C343 1.335 . S
C631 C78 1.301 . S
C633 C340 1.269 . S
C649 C45 1.685 . S
C651 C242 1.671 . S
C667 C177 1.773 . S
C669 C241 1.746 . S
C687 C205 1.342 1_556 S
C685 C189 1.377 . S
C705 C219 1.587 . S
C703 C102 1.717 . S
C721 C57 1.686 1_545 S
C723 C256 1.674 . S
C741 C301 1.501 . S
C739 C138 1.501 . S
C759 C255 1.721 . S
C757 C114 1.730 . S
C777 C287 1.633 . S
C775 C153 1.638 . S
C795 C284 1.686 . S
C793 C174 1.745 . S
C811 C184 1.238 . S
C813 C297 1.237 . S
C829 C105 1.888 . S
C831 C261 1.726 . S
C849 C275 1.324 . S
C847 C162 1.435 . S
C865 C42 1.540 . S
C867 C231 1.522 . S
C885 C245 1.725 1_455 S
C883 C6 1.729 . S
C903 C199 1.225 . S
C901 C16 1.220 . S
C921 C214 1.786 . S
C919 C33 1.795 1_455 S
C937 C21 1.325 . S
C939 C326 1.297 . S
C955 C28 1.334 1_556 S
C957 C317 1.287 . S
C973 C40 1.526 . S
C975 C325 1.505 . S
C991 C4 1.308 . S
C993 C315 1.314 . S
C1011 C359 1.410 . S
C1009 C100 1.473 . S
C1029 C353 1.576 . S
C1027 C160 1.576 . S
C1047 C357 1.335 . S
C1045 C172 1.336 . S
C1063 C186 1.301 1_554 S
C1065 C354 1.269 . S
C1081 C129 1.685 . S
C1083 C270 1.671 . S
C1101 C269 1.746 . S
C1099 C69 1.773 . S
C1119 C289 1.342 . S
C1117 C81 1.378 . S
C1137 C303 1.587 . S
C1135 C90 1.717 . S
C1153 C165 1.686 . S
C1155 C228 1.674 . S
C1173 C217 1.501 . S
C1171 C18 1.501 . S
C1189 C30 1.729 . S
C1191 C227 1.721 . S
C1209 C203 1.633 . S
C1207 C9 1.638 1_565 S
