# Generated by pormake.
# Topology ptr, (4,4)-cn, num edge types: 1
# Building blocks:
#     Node 0, Type 0, BuildingBlock: KUFVIS_clean_sbu_0, # of connection points: 4
#     Node 1, Type 0, BuildingBlock: KUFVIS_clean_sbu_0, # of connection points: 4
#     Node 2, Type 0, BuildingBlock: KUFVIS_clean_sbu_0, # of connection points: 4
#     Node 3, Type 0, BuildingBlock: KUFVIS_clean_sbu_0, # of connection points: 4
#     Node 4, Type 0, BuildingBlock: KUFVIS_clean_sbu_0, # of connection points: 4
#     Node 5, Type 0, BuildingBlock: KUFVIS_clean_sbu_0, # of connection points: 4
#     Node 6, Type 0, BuildingBlock: KUFVIS_clean_sbu_0, # of connection points: 4
#     Node 7, Type 0, BuildingBlock: KUFVIS_clean_sbu_0, # of connection points: 4
#     Node 8, Type 0, BuildingBlock: KUFVIS_clean_sbu_0, # of connection points: 4
#     Node 9, Type 0, BuildingBlock: KUFVIS_clean_sbu_0, # of connection points: 4
#     Node 10, Type 0, BuildingBlock: KUFVIS_clean_sbu_0, # of connection points: 4
#     Node 11, Type 0, BuildingBlock: KUFVIS_clean_sbu_0, # of connection points: 4
#     Node 12, Type 0, BuildingBlock: KUFVIS_clean_sbu_0, # of connection points: 4
#     Node 13, Type 0, BuildingBlock: KUFVIS_clean_sbu_0, # of connection points: 4
#     Node 14, Type 0, BuildingBlock: KUFVIS_clean_sbu_0, # of connection points: 4
#     Node 15, Type 0, BuildingBlock: KUFVIS_clean_sbu_0, # of connection points: 4
#     Node 16, Type 0, BuildingBlock: KUFVIS_clean_sbu_0, # of connection points: 4
#     Node 17, Type 0, BuildingBlock: KUFVIS_clean_sbu_0, # of connection points: 4
#     Node 18, Type 1, BuildingBlock: AZAVOO_clean_linker_0, # of connection points: 4
#     Node 19, Type 1, BuildingBlock: AZAVOO_clean_linker_0, # of connection points: 4
#     Node 20, Type 1, BuildingBlock: AZAVOO_clean_linker_0, # of connection points: 4
#     Node 21, Type 1, BuildingBlock: AZAVOO_clean_linker_0, # of connection points: 4
#     Node 22, Type 1, BuildingBlock: AZAVOO_clean_linker_0, # of connection points: 4
#     Node 23, Type 1, BuildingBlock: AZAVOO_clean_linker_0, # of connection points: 4
#     Node 24, Type 1, BuildingBlock: AZAVOO_clean_linker_0, # of connection points: 4
#     Node 25, Type 1, BuildingBlock: AZAVOO_clean_linker_0, # of connection points: 4
#     Node 26, Type 1, BuildingBlock: AZAVOO_clean_linker_0, # of connection points: 4
#     Node 27, Type 1, BuildingBlock: AZAVOO_clean_linker_0, # of connection points: 4
#     Node 28, Type 1, BuildingBlock: AZAVOO_clean_linker_0, # of connection points: 4
#     Node 29, Type 1, BuildingBlock: AZAVOO_clean_linker_0, # of connection points: 4
#     Node 30, Type 1, BuildingBlock: AZAVOO_clean_linker_0, # of connection points: 4
#     Node 31, Type 1, BuildingBlock: AZAVOO_clean_linker_0, # of connection points: 4
#     Node 32, Type 1, BuildingBlock: AZAVOO_clean_linker_0, # of connection points: 4
#     Node 33, Type 1, BuildingBlock: AZAVOO_clean_linker_0, # of connection points: 4
#     Node 34, Type 1, BuildingBlock: AZAVOO_clean_linker_0, # of connection points: 4
#     Node 35, Type 1, BuildingBlock: AZAVOO_clean_linker_0, # of connection points: 4
#     Edge 36, Type (0, 1), BuildingBlock: TEMPAE_clean_linker_10, # of connection points: 2
#     Edge 37, Type (0, 1), BuildingBlock: TEMPAE_clean_linker_10, # of connection points: 2
#     Edge 38, Type (0, 1), BuildingBlock: TEMPAE_clean_linker_10, # of connection points: 2
#     Edge 39, Type (0, 1), BuildingBlock: TEMPAE_clean_linker_10, # of connection points: 2
#     Edge 40, Type (0, 1), BuildingBlock: TEMPAE_clean_linker_10, # of connection points: 2
#     Edge 41, Type (0, 1), BuildingBlock: TEMPAE_clean_linker_10, # of connection points: 2
#     Edge 42, Type (0, 1), BuildingBlock: TEMPAE_clean_linker_10, # of connection points: 2
#     Edge 43, Type (0, 1), BuildingBlock: TEMPAE_clean_linker_10, # of connection points: 2
#     Edge 44, Type (0, 1), BuildingBlock: TEMPAE_clean_linker_10, # of connection points: 2
#     Edge 45, Type (0, 1), BuildingBlock: TEMPAE_clean_linker_10, # of connection points: 2
#     Edge 46, Type (0, 1), BuildingBlock: TEMPAE_clean_linker_10, # of connection points: 2
#     Edge 47, Type (0, 1), BuildingBlock: TEMPAE_clean_linker_10, # of connection points: 2
#     Edge 48, Type (0, 1), BuildingBlock: TEMPAE_clean_linker_10, # of connection points: 2
#     Edge 49, Type (0, 1), BuildingBlock: TEMPAE_clean_linker_10, # of connection points: 2
#     Edge 50, Type (0, 1), BuildingBlock: TEMPAE_clean_linker_10, # of connection points: 2
#     Edge 51, Type (0, 1), BuildingBlock: TEMPAE_clean_linker_10, # of connection points: 2
#     Edge 52, Type (0, 1), BuildingBlock: TEMPAE_clean_linker_10, # of connection points: 2
#     Edge 53, Type (0, 1), BuildingBlock: TEMPAE_clean_linker_10, # of connection points: 2
#     Edge 54, Type (0, 1), BuildingBlock: TEMPAE_clean_linker_10, # of connection points: 2
#     Edge 55, Type (0, 1), BuildingBlock: TEMPAE_clean_linker_10, # of connection points: 2
#     Edge 56, Type (0, 1), BuildingBlock: TEMPAE_clean_linker_10, # of connection points: 2
#     Edge 57, Type (0, 1), BuildingBlock: TEMPAE_clean_linker_10, # of connection points: 2
#     Edge 58, Type (0, 1), BuildingBlock: TEMPAE_clean_linker_10, # of connection points: 2
#     Edge 59, Type (0, 1), BuildingBlock: TEMPAE_clean_linker_10, # of connection points: 2
#     Edge 60, Type (0, 1), BuildingBlock: TEMPAE_clean_linker_10, # of connection points: 2
#     Edge 61, Type (0, 1), BuildingBlock: TEMPAE_clean_linker_10, # of connection points: 2
#     Edge 62, Type (0, 1), BuildingBlock: TEMPAE_clean_linker_10, # of connection points: 2
#     Edge 63, Type (0, 1), BuildingBlock: TEMPAE_clean_linker_10, # of connection points: 2
#     Edge 64, Type (0, 1), BuildingBlock: TEMPAE_clean_linker_10, # of connection points: 2
#     Edge 65, Type (0, 1), BuildingBlock: TEMPAE_clean_linker_10, # of connection points: 2
#     Edge 66, Type (0, 1), BuildingBlock: TEMPAE_clean_linker_10, # of connection points: 2
#     Edge 67, Type (0, 1), BuildingBlock: TEMPAE_clean_linker_10, # of connection points: 2
#     Edge 68, Type (0, 1), BuildingBlock: TEMPAE_clean_linker_10, # of connection points: 2
#     Edge 69, Type (0, 1), BuildingBlock: TEMPAE_clean_linker_10, # of connection points: 2
#     Edge 70, Type (0, 1), BuildingBlock: TEMPAE_clean_linker_10, # of connection points: 2
#     Edge 71, Type (0, 1), BuildingBlock: TEMPAE_clean_linker_10, # of connection points: 2
#     Edge 72, Type (0, 1), BuildingBlock: TEMPAE_clean_linker_10, # of connection points: 2
#     Edge 73, Type (0, 1), BuildingBlock: TEMPAE_clean_linker_10, # of connection points: 2
#     Edge 74, Type (0, 1), BuildingBlock: TEMPAE_clean_linker_10, # of connection points: 2
#     Edge 75, Type (0, 1), BuildingBlock: TEMPAE_clean_linker_10, # of connection points: 2
#     Edge 76, Type (0, 1), BuildingBlock: TEMPAE_clean_linker_10, # of connection points: 2
#     Edge 77, Type (0, 1), BuildingBlock: TEMPAE_clean_linker_10, # of connection points: 2
#     Edge 78, Type (0, 1), BuildingBlock: TEMPAE_clean_linker_10, # of connection points: 2
#     Edge 79, Type (0, 1), BuildingBlock: TEMPAE_clean_linker_10, # of connection points: 2
#     Edge 80, Type (0, 1), BuildingBlock: TEMPAE_clean_linker_10, # of connection points: 2
#     Edge 81, Type (0, 1), BuildingBlock: TEMPAE_clean_linker_10, # of connection points: 2
#     Edge 82, Type (0, 1), BuildingBlock: TEMPAE_clean_linker_10, # of connection points: 2
#     Edge 83, Type (0, 1), BuildingBlock: TEMPAE_clean_linker_10, # of connection points: 2
#     Edge 84, Type (0, 1), BuildingBlock: TEMPAE_clean_linker_10, # of connection points: 2
#     Edge 85, Type (0, 1), BuildingBlock: TEMPAE_clean_linker_10, # of connection points: 2
#     Edge 86, Type (0, 1), BuildingBlock: TEMPAE_clean_linker_10, # of connection points: 2
#     Edge 87, Type (0, 1), BuildingBlock: TEMPAE_clean_linker_10, # of connection points: 2
#     Edge 88, Type (0, 1), BuildingBlock: TEMPAE_clean_linker_10, # of connection points: 2
#     Edge 89, Type (0, 1), BuildingBlock: TEMPAE_clean_linker_10, # of connection points: 2
#     Edge 90, Type (0, 1), BuildingBlock: TEMPAE_clean_linker_10, # of connection points: 2
#     Edge 91, Type (0, 1), BuildingBlock: TEMPAE_clean_linker_10, # of connection points: 2
#     Edge 92, Type (0, 1), BuildingBlock: TEMPAE_clean_linker_10, # of connection points: 2
#     Edge 93, Type (0, 1), BuildingBlock: TEMPAE_clean_linker_10, # of connection points: 2
#     Edge 94, Type (0, 1), BuildingBlock: TEMPAE_clean_linker_10, # of connection points: 2
#     Edge 95, Type (0, 1), BuildingBlock: TEMPAE_clean_linker_10, # of connection points: 2
#     Edge 96, Type (0, 1), BuildingBlock: TEMPAE_clean_linker_10, # of connection points: 2
#     Edge 97, Type (0, 1), BuildingBlock: TEMPAE_clean_linker_10, # of connection points: 2
#     Edge 98, Type (0, 1), BuildingBlock: TEMPAE_clean_linker_10, # of connection points: 2
#     Edge 99, Type (0, 1), BuildingBlock: TEMPAE_clean_linker_10, # of connection points: 2
#     Edge 100, Type (0, 1), BuildingBlock: TEMPAE_clean_linker_10, # of connection points: 2
#     Edge 101, Type (0, 1), BuildingBlock: TEMPAE_clean_linker_10, # of connection points: 2
#     Edge 102, Type (0, 1), BuildingBlock: TEMPAE_clean_linker_10, # of connection points: 2
#     Edge 103, Type (0, 1), BuildingBlock: TEMPAE_clean_linker_10, # of connection points: 2
#     Edge 104, Type (0, 1), BuildingBlock: TEMPAE_clean_linker_10, # of connection points: 2
#     Edge 105, Type (0, 1), BuildingBlock: TEMPAE_clean_linker_10, # of connection points: 2
#     Edge 106, Type (0, 1), BuildingBlock: TEMPAE_clean_linker_10, # of connection points: 2
#     Edge 107, Type (0, 1), BuildingBlock: TEMPAE_clean_linker_10, # of connection points: 2
# Relax obj value: 0.057
# Max RMSD: 0.199
# Mean RMSD: 0.130
data_MOF--net-ptr--node1-KUFVIS_clean_sbu_0--node2-AZAVOO_clean_linker_0--edge1-TEMPAE_clean_linker_10
_symmetry_space_group_name_H-M    P1
_symmetry_Int_Tables_number       1
_symmetry_cell_setting            triclinic
loop_
_symmetry_equiv_pos_as_xyz
'x, y, z'
_cell_length_a     82.370989
_cell_length_b     80.613774
_cell_length_c     69.673693
_cell_angle_alpha  92.323964
_cell_angle_beta   93.075624
_cell_angle_gamma 119.52405
loop_
_atom_site_label
_atom_site_type_symbol
_atom_site_fract_x
_atom_site_fract_y
_atom_site_fract_z
_atom_type_partial_charge
Mn0 Mn 0.00587 0.36314 0.01729 0.0
Mn1 Mn 0.04859 0.40233 0.026 0.0
C2 C 0.01436 0.38858 0.99848 0.0
C3 C 0.98677 0.33237 0.00302 0.0
C4 C 0.01601 0.39398 0.0498 0.0
O5 O 0.01988 0.35407 0.035 0.0
O6 O 0.04851 0.38016 0.03741 0.0
C7 C 0.06955 0.38945 0.00212 0.0
N8 N 0.06429 0.40261 0.00667 0.0
C9 C 0.08315 0.42318 0.98323 0.0
C10 C 0.08886 0.4099 0.97834 0.0
C11 C 0.08194 0.39291 0.98776 0.0
C12 C 0.0706 0.41883 0.99748 0.0
H13 H 0.06433 0.37642 0.0094 0.0
C14 C 0.03722 0.36286 0.0408 0.0
O15 O 0.98223 0.33857 0.01815 0.0
O16 O 0.00257 0.34396 0.99635 0.0
N17 N 0.05113 0.42508 0.0158 0.0
C18 C 0.04388 0.43616 0.02189 0.0
C19 C 0.04945 0.45373 0.01398 0.0
C20 C 0.06265 0.45987 0.00018 0.0
C21 C 0.0699 0.44821 0.99411 0.0
C22 C 0.06384 0.43087 0.00252 0.0
H23 H 0.03402 0.4317 0.03278 0.0
O24 O 0.99689 0.37576 0.99901 0.0
O25 O 0.02652 0.38569 0.0083 0.0
O26 O 0.00388 0.3788 0.03989 0.0
O27 O 0.03321 0.40344 0.04634 0.0
C28 C 0.08297 0.45316 0.98014 0.0
C29 C 0.08942 0.44055 0.97454 0.0
H30 H 0.0985 0.41257 0.96735 0.0
H31 H 0.08624 0.38256 0.98404 0.0
H32 H 0.04378 0.46265 0.0187 0.0
H33 H 0.06719 0.47361 0.99442 0.0
H34 H 0.08807 0.46657 0.9735 0.0
H35 H 0.09924 0.44438 0.96357 0.0
Mn36 Mn 0.63059 0.6258 0.06552 0.0
Mn37 Mn 0.63222 0.58499 0.05872 0.0
C38 C 0.61182 0.59984 0.08217 0.0
C39 C 0.64277 0.65628 0.08033 0.0
C40 C 0.61116 0.59689 0.0306 0.0
O41 O 0.65427 0.63415 0.05206 0.0
O42 O 0.65509 0.60669 0.04967 0.0
C43 C 0.66439 0.59462 0.08686 0.0
N44 N 0.64623 0.58266 0.08014 0.0
C45 C 0.64272 0.56022 0.10353 0.0
C46 C 0.66142 0.57225 0.11067 0.0
C47 C 0.67227 0.58957 0.10235 0.0
C48 C 0.63559 0.5661 0.08819 0.0
H49 H 0.6728 0.60788 0.08042 0.0
C50 C 0.66203 0.62452 0.04721 0.0
O51 O 0.63342 0.65156 0.06355 0.0
O52 O 0.64499 0.64332 0.08862 0.0
N53 N 0.61129 0.56265 0.06674 0.0
C54 C 0.59327 0.55314 0.05875 0.0
C55 C 0.58049 0.53562 0.06556 0.0
C56 C 0.58644 0.52793 0.08027 0.0
C57 C 0.60503 0.53802 0.08833 0.0
C58 C 0.61713 0.5554 0.08095 0.0
H59 H 0.58871 0.55883 0.04721 0.0
O60 O 0.60794 0.61347 0.08001 0.0
O61 O 0.627 0.60206 0.07496 0.0
O62 O 0.61485 0.61231 0.04022 0.0
O63 O 0.61718 0.58582 0.03609 0.0
C64 C 0.61205 0.53152 0.10339 0.0
C65 C 0.63083 0.54269 0.11109 0.0
H66 H 0.66756 0.56837 0.12257 0.0
H67 H 0.6867 0.59895 0.10781 0.0
H68 H 0.56613 0.52794 0.05932 0.0
H69 H 0.57661 0.51426 0.08525 0.0
H70 H 0.60308 0.51805 0.1093 0.0
H71 H 0.63597 0.5377 0.12288 0.0
Mn72 Mn 0.37642 0.99835 0.02502 0.0
Mn73 Mn 0.41534 0.0412 0.02486 0.0
C74 C 0.40284 0.00498 0.04459 0.0
C75 C 0.34728 0.98046 0.03711 0.0
C76 C 0.4024 0.00951 0.9927 0.0
O77 O 0.36733 0.01464 0.01169 0.0
O78 O 0.3932 0.04366 0.01643 0.0
C79 C 0.40867 0.06258 0.05608 0.0
N80 N 0.41965 0.05617 0.04849 0.0
C81 C 0.44338 0.07207 0.07483 0.0
C82 C 0.4324 0.07897 0.08287 0.0
C83 C 0.41492 0.07412 0.0735 0.0
C84 C 0.43637 0.06055 0.0575 0.0
H85 H 0.39525 0.0589 0.0489 0.0
C86 C 0.37582 0.03275 0.01094 0.0
O87 O 0.3508 0.97537 0.02059 0.0
O88 O 0.36067 0.99573 0.04646 0.0
N89 N 0.43772 0.04087 0.03301 0.0
C90 C 0.44594 0.03188 0.02412 0.0
C91 C 0.46318 0.03461 0.03208 0.0
C92 C 0.47192 0.04674 0.04892 0.0
C93 C 0.46322 0.05588 0.05776 0.0
C94 C 0.44598 0.05251 0.04926 0.0
H95 H 0.43938 0.0227 0.01107 0.0
O96 O 0.38965 0.98744 0.04039 0.0
O97 O 0.39986 0.01802 0.03758 0.0
O98 O 0.38879 0.9965 0.0008 0.0
O99 O 0.41237 0.02671 7e-05 0.0
C100 C 0.47093 0.06813 0.07474 0.0
C101 C 0.46093 0.07604 0.0834 0.0
H102 H 0.43718 0.08788 0.0963 0.0
H103 H 0.40632 0.0793 0.07967 0.0
H104 H 0.46978 0.02746 0.0252 0.0
H105 H 0.48524 0.04884 0.05499 0.0
H106 H 0.48449 0.07143 0.08134 0.0
H107 H 0.46682 0.08508 0.09669 0.0
Mn108 Mn 0.99521 0.64018 0.04064 0.0
Mn109 Mn 0.03739 0.64383 0.05135 0.0
C110 C 0.00308 0.6199 0.02454 0.0
C111 C 0.97658 0.64986 0.02363 0.0
C112 C 0.00475 0.62363 0.07562 0.0
O113 O 0.00982 0.66615 0.05561 0.0
O114 O 0.03737 0.66708 0.06184 0.0
C115 C 0.05899 0.67532 0.0268 0.0
N116 N 0.05347 0.65731 0.03199 0.0
C117 C 0.07236 0.65309 0.00927 0.0
C118 C 0.07833 0.67163 0.00374 0.0
C119 C 0.07155 0.68276 0.01249 0.0
C120 C 0.05971 0.64639 0.02349 0.0
H121 H 0.05385 0.68393 0.03355 0.0
C122 C 0.02667 0.67433 0.06303 0.0
O123 O 0.97199 0.64213 0.0399 0.0
O124 O 0.99205 0.65213 0.0174 0.0
N125 N 0.03988 0.62256 0.04228 0.0
C126 C 0.03229 0.60477 0.04886 0.0
C127 C 0.03758 0.59181 0.04153 0.0
C128 C 0.05082 0.59738 0.02779 0.0
C129 C 0.05847 0.61577 0.02127 0.0
C130 C 0.0527 0.62807 0.02912 0.0
H131 H 0.02234 0.60054 0.05966 0.0
O132 O 0.98569 0.6155 0.02499 0.0
O133 O 0.0155 0.63637 0.03309 0.0
O134 O 0.99314 0.62658 0.06551 0.0
O135 O 0.02159 0.62948 0.07161 0.0
C136 C 0.0716 0.62239 0.00731 0.0
C137 C 0.07841 0.64097 0.00118 0.0
H138 H 0.08807 0.67744 0.99274 0.0
H139 H 0.07604 0.69705 0.00825 0.0
H140 H 0.0316 0.57763 0.04661 0.0
H141 H 0.05507 0.58743 0.02241 0.0
H142 H 0.07647 0.61327 0.00109 0.0
H143 H 0.08828 0.64579 0.99024 0.0
Mn144 Mn 0.37269 0.38316 0.01085 0.0
Mn145 Mn 0.4103 0.37769 0.006 0.0
C146 C 0.3993 0.40036 0.03179 0.0
C147 C 0.34384 0.37262 0.02352 0.0
C148 C 0.39983 0.40085 0.97986 0.0
O149 O 0.36224 0.35866 0.9934 0.0
O150 O 0.38755 0.35487 0.99352 0.0
C151 C 0.40051 0.34522 0.03018 0.0
N152 N 0.41266 0.36346 0.02616 0.0
C153 C 0.4349 0.36681 0.05198 0.0
C154 C 0.42268 0.34803 0.05635 0.0
C155 C 0.40537 0.33723 0.04545 0.0
C156 C 0.42926 0.37404 0.03667 0.0
H157 H 0.38721 0.33686 0.0218 0.0
C158 C 0.37022 0.34911 0.98886 0.0
O159 O 0.34795 0.38227 0.00829 0.0
O160 O 0.35635 0.36901 0.03113 0.0
N161 N 0.43323 0.39864 0.01765 0.0
C162 C 0.44287 0.41691 0.01236 0.0
C163 C 0.46023 0.4298 0.02225 0.0
C164 C 0.4676 0.42371 0.03728 0.0
C165 C 0.45746 0.40482 0.04239 0.0
C166 C 0.4402 0.39265 0.03209 0.0
H167 H 0.43735 0.42161 0.0007 0.0
O168 O 0.38705 0.40598 0.02969 0.0
O169 O 0.3954 0.3847 0.0218 0.0
O170 O 0.38588 0.39916 0.98854 0.0
O171 O 0.40932 0.39286 0.98487 0.0
C172 C 0.46375 0.39761 0.05737 0.0
C173 C 0.45241 0.37869 0.0623 0.0
H174 H 0.42638 0.34181 0.06811 0.0
H175 H 0.39582 0.32275 0.04878 0.0
H176 H 0.46795 0.44437 0.01825 0.0
H177 H 0.48102 0.43369 0.04485 0.0
H178 H 0.47725 0.40654 0.06528 0.0
H179 H 0.45724 0.37344 0.07411 0.0
Mn180 Mn 0.62525 0.00802 0.04213 0.0
Mn181 Mn 0.58641 0.96476 0.0409 0.0
C182 C 0.59932 0.00142 0.02201 0.0
C183 C 0.65457 0.02686 0.03094 0.0
C184 C 0.59749 0.99597 0.07306 0.0
O185 O 0.6345 0.99193 0.05517 0.0
O186 O 0.60842 0.96307 0.05167 0.0
C187 C 0.59591 0.94384 0.01179 0.0
N188 N 0.58406 0.94983 0.01784 0.0
C189 C 0.5621 0.93316 0.99029 0.0
C190 C 0.57401 0.92672 0.98381 0.0
C191 C 0.59103 0.93216 0.99457 0.0
C192 C 0.56773 0.94481 0.00753 0.0
H193 H 0.60898 0.94795 0.02006 0.0
C194 C 0.62585 0.97401 0.05694 0.0
O195 O 0.65052 0.03132 0.04746 0.0
O196 O 0.64161 0.01164 0.0211 0.0
N197 N 0.56412 0.96418 0.0306 0.0
C198 C 0.55489 0.97273 0.03811 0.0
C199 C 0.53795 0.96941 0.02865 0.0
C200 C 0.53058 0.95715 0.01172 0.0
C201 C 0.5403 0.94848 0.00429 0.0
C202 C 0.55713 0.95236 0.01432 0.0
H203 H 0.56045 0.98207 0.05118 0.0
O204 O 0.61212 0.01898 0.02697 0.0
O205 O 0.6023 0.98824 0.02871 0.0
O206 O 0.61218 0.00883 0.06618 0.0
O207 O 0.58734 0.97914 0.06488 0.0
C208 C 0.53405 0.93628 0.98724 0.0
C209 C 0.54499 0.9287 0.98019 0.0
H210 H 0.5703 0.91773 0.97052 0.0
H211 H 0.60033 0.92731 0.98962 0.0
H212 H 0.53056 0.97621 0.03443 0.0
H213 H 0.51748 0.95459 0.0045 0.0
H214 H 0.52093 0.93273 0.97935 0.0
H215 H 0.54019 0.91962 0.96687 0.0
Mn216 Mn 0.66615 0.70129 0.3565 0.0
Mn217 Mn 0.70823 0.74041 0.36906 0.0
C218 C 0.67655 0.72746 0.3384 0.0
C219 C 0.64782 0.67098 0.34081 0.0
C220 C 0.67347 0.73116 0.38932 0.0
O221 O 0.6787 0.69134 0.37499 0.0
O222 O 0.70675 0.71793 0.38124 0.0
C223 C 0.73168 0.72809 0.34889 0.0
N224 N 0.72602 0.74116 0.35214 0.0
C225 C 0.74802 0.76264 0.33131 0.0
C226 C 0.75416 0.74946 0.32777 0.0
C227 C 0.74587 0.73206 0.33652 0.0
C228 C 0.73368 0.75779 0.34357 0.0
H229 H 0.72545 0.71477 0.35571 0.0
C230 C 0.69529 0.70027 0.38314 0.0
O231 O 0.64229 0.67669 0.35548 0.0
O232 O 0.66417 0.68284 0.33536 0.0
N233 N 0.71201 0.7634 0.35841 0.0
C234 C 0.70391 0.77416 0.36268 0.0
C235 C 0.71051 0.792 0.35502 0.0
C236 C 0.72555 0.7987 0.34334 0.0
C237 C 0.73358 0.78732 0.33904 0.0
C238 C 0.72642 0.76969 0.34709 0.0
H239 H 0.6926 0.76924 0.37198 0.0
O240 O 0.65888 0.71484 0.33768 0.0
O241 O 0.68781 0.72416 0.34935 0.0
O242 O 0.66235 0.71595 0.37884 0.0
O243 O 0.69091 0.74118 0.38711 0.0
C244 C 0.74844 0.79279 0.32714 0.0
C245 C 0.75553 0.78038 0.32312 0.0
H246 H 0.76516 0.75252 0.31832 0.0
H247 H 0.7505 0.72179 0.33383 0.0
H248 H 0.7042 0.80068 0.35832 0.0
H249 H 0.73082 0.81262 0.33777 0.0
H250 H 0.75442 0.80644 0.32085 0.0
H251 H 0.76673 0.7846 0.31368 0.0
Mn252 Mn 0.29614 0.95445 0.40037 0.0
Mn253 Mn 0.29613 0.91269 0.39442 0.0
C254 C 0.27786 0.92945 0.41851 0.0
C255 C 0.30933 0.98564 0.41414 0.0
C256 C 0.27436 0.92425 0.36687 0.0
O257 O 0.31892 0.96153 0.38543 0.0
O258 O 0.31853 0.93344 0.38381 0.0
C259 C 0.32942 0.92289 0.42112 0.0
N260 N 0.31097 0.91098 0.41543 0.0
C261 C 0.30824 0.88972 0.43986 0.0
C262 C 0.32723 0.9017 0.44595 0.0
C263 C 0.33784 0.91841 0.4366 0.0
C264 C 0.30056 0.89506 0.42453 0.0
H265 H 0.33763 0.93567 0.41388 0.0
C266 C 0.32588 0.95111 0.38051 0.0
O267 O 0.29898 0.98017 0.39792 0.0
O268 O 0.31216 0.97299 0.42234 0.0
N269 N 0.27552 0.89109 0.40391 0.0
C270 C 0.25729 0.88134 0.39655 0.0
C271 C 0.2448 0.86417 0.40416 0.0
C272 C 0.25126 0.85705 0.419 0.0
C273 C 0.27006 0.86736 0.4264 0.0
C274 C 0.28185 0.88436 0.41822 0.0
H275 H 0.25235 0.88654 0.38485 0.0
O276 O 0.2744 0.94335 0.41635 0.0
O277 O 0.29241 0.93089 0.41055 0.0
O278 O 0.27893 0.94014 0.37608 0.0
O279 O 0.28019 0.91301 0.37233 0.0
C280 C 0.27761 0.86138 0.44147 0.0
C281 C 0.29663 0.87268 0.44835 0.0
H282 H 0.3338 0.89823 0.4578 0.0
H283 H 0.35249 0.92776 0.44125 0.0
H284 H 0.2303 0.8563 0.39843 0.0
H285 H 0.24168 0.84358 0.42453 0.0
H286 H 0.2689 0.84819 0.44796 0.0
H287 H 0.30219 0.86808 0.46013 0.0
Mn288 Mn 0.04664 0.3271 0.3569 0.0
Mn289 Mn 0.08613 0.36934 0.35492 0.0
C290 C 0.07296 0.33441 0.37696 0.0
C291 C 0.01745 0.30955 0.36866 0.0
C292 C 0.07281 0.33609 0.32473 0.0
O293 O 0.03773 0.34308 0.34269 0.0
O294 O 0.06437 0.37155 0.34458 0.0
C295 C 0.07945 0.39318 0.3833 0.0
N296 N 0.0903 0.38592 0.37724 0.0
C297 C 0.11387 0.40355 0.40332 0.0
C298 C 0.10301 0.41129 0.40981 0.0
C299 C 0.08568 0.40601 0.39981 0.0
C300 C 0.1069 0.39077 0.38685 0.0
H301 H 0.06617 0.38921 0.37558 0.0
C302 C 0.04679 0.36083 0.33992 0.0
O303 O 0.02111 0.30424 0.35238 0.0
O304 O 0.03065 0.3249 0.37813 0.0
N305 N 0.10822 0.3692 0.36465 0.0
C306 C 0.11629 0.35934 0.35734 0.0
C307 C 0.13336 0.36236 0.36617 0.0
C308 C 0.14205 0.37565 0.38223 0.0
C309 C 0.13348 0.38564 0.38947 0.0
C310 C 0.11642 0.38194 0.38015 0.0
H311 H 0.10975 0.34924 0.34489 0.0
O312 O 0.05981 0.31676 0.37318 0.0
O313 O 0.07016 0.34719 0.369 0.0
O314 O 0.05879 0.32401 0.33304 0.0
O315 O 0.08344 0.3534 0.33139 0.0
C316 C 0.14112 0.39903 0.40562 0.0
C317 C 0.13126 0.40786 0.41265 0.0
H318 H 0.10777 0.4212 0.42253 0.0
H319 H 0.07718 0.41186 0.40477 0.0
H320 H 0.13985 0.35454 0.36055 0.0
H321 H 0.15524 0.37798 0.38897 0.0
H322 H 0.15453 0.40256 0.41281 0.0
H323 H 0.13711 0.41783 0.42532 0.0
Mn324 Mn 0.66296 0.96622 0.37582 0.0
Mn325 Mn 0.70542 0.97164 0.38937 0.0
C326 C 0.67366 0.94836 0.35966 0.0
C327 C 0.64397 0.97517 0.35823 0.0
C328 C 0.67107 0.94799 0.41031 0.0
O329 O 0.67537 0.99142 0.39232 0.0
O330 O 0.70295 0.99315 0.40082 0.0
C331 C 0.72773 0.00589 0.36831 0.0
N332 N 0.72282 0.98764 0.37213 0.0
C333 C 0.74489 0.98722 0.35115 0.0
C334 C 0.75025 0.00603 0.34705 0.0
C335 C 0.74156 0.01538 0.3556 0.0
C336 C 0.73087 0.97843 0.36375 0.0
H337 H 0.72116 0.01316 0.37494 0.0
C338 C 0.69159 0.99965 0.40133 0.0
O339 O 0.63875 0.96617 0.37374 0.0
O340 O 0.66034 0.97915 0.35306 0.0
N341 N 0.71028 0.95217 0.37955 0.0
C342 C 0.70319 0.9339 0.38468 0.0
C343 C 0.71046 0.92261 0.37749 0.0
C344 C 0.72515 0.93034 0.36539 0.0
C345 C 0.7322 0.94916 0.36026 0.0
C346 C 0.72443 0.95974 0.36792 0.0
H347 H 0.69212 0.92801 0.39425 0.0
O348 O 0.65591 0.94275 0.35892 0.0
O349 O 0.6848 0.96455 0.36949 0.0
O350 O 0.65993 0.95139 0.39993 0.0
O351 O 0.68831 0.9547 0.40747 0.0
C352 C 0.74669 0.95789 0.34795 0.0
C353 C 0.75289 0.97683 0.34323 0.0
H354 H 0.76098 0.01343 0.33732 0.0
H355 H 0.74559 0.02988 0.35247 0.0
H356 H 0.70492 0.90807 0.38145 0.0
H357 H 0.73097 0.9217 0.3602 0.0
H358 H 0.75309 0.95014 0.34192 0.0
H359 H 0.76385 0.98329 0.33354 0.0
Mn360 Mn 0.04058 0.7162 0.34671 0.0
Mn361 Mn 0.08063 0.71457 0.34482 0.0
C362 C 0.06528 0.73372 0.36976 0.0
C363 C 0.01046 0.70331 0.35695 0.0
C364 C 0.07051 0.73827 0.31917 0.0
O365 O 0.03271 0.69285 0.32834 0.0
O366 O 0.05977 0.69231 0.32918 0.0
C367 C 0.0698 0.67967 0.36544 0.0
N368 N 0.08179 0.69856 0.36368 0.0
C369 C 0.10238 0.69997 0.39031 0.0
C370 C 0.0903 0.68051 0.39235 0.0
C371 C 0.0739 0.67034 0.37991 0.0
C372 C 0.09751 0.70852 0.37569 0.0
H373 H 0.05722 0.67178 0.35585 0.0
C374 C 0.04241 0.68523 0.32354 0.0
O375 O 0.01534 0.71396 0.34247 0.0
O376 O 0.02296 0.70002 0.36519 0.0
N377 N 0.102 0.73495 0.35947 0.0
C378 C 0.11144 0.75392 0.35648 0.0
C379 C 0.12789 0.76624 0.36812 0.0
C380 C 0.13459 0.7589 0.38253 0.0
C381 C 0.12461 0.73935 0.38539 0.0
C382 C 0.10828 0.72778 0.37338 0.0
H383 H 0.10639 0.7596 0.34537 0.0
O384 O 0.0523 0.73819 0.36661 0.0
O385 O 0.06326 0.71883 0.35956 0.0
O386 O 0.0548 0.73386 0.32575 0.0
O387 O 0.08098 0.7317 0.32522 0.0
C388 C 0.13014 0.7309 0.39977 0.0
C389 C 0.11896 0.71126 0.40232 0.0
H390 H 0.09343 0.67326 0.40349 0.0
H391 H 0.06447 0.65534 0.38144 0.0
H392 H 0.13545 0.78134 0.36592 0.0
H393 H 0.14737 0.76843 0.39137 0.0
H394 H 0.14285 0.73941 0.40909 0.0
H395 H 0.12318 0.70502 0.41366 0.0
Mn396 Mn 0.28935 0.34301 0.37639 0.0
Mn397 Mn 0.25148 0.2996 0.37898 0.0
C398 C 0.26233 0.33388 0.35684 0.0
C399 C 0.31774 0.36203 0.36361 0.0
C400 C 0.26279 0.33295 0.40845 0.0
O401 O 0.30013 0.3286 0.39028 0.0
O402 O 0.27424 0.29974 0.39039 0.0
C403 C 0.26131 0.27717 0.35209 0.0
N404 N 0.24914 0.28304 0.3573 0.0
C405 C 0.22689 0.2639 0.33072 0.0
C406 C 0.23914 0.25755 0.32511 0.0
C407 C 0.25646 0.26428 0.3358 0.0
C408 C 0.23252 0.27679 0.34703 0.0
H409 H 0.27462 0.28227 0.36029 0.0
C410 C 0.29185 0.31115 0.3942 0.0
O411 O 0.3141 0.36704 0.38009 0.0
O412 O 0.30496 0.34606 0.35472 0.0
N413 N 0.22854 0.29733 0.36821 0.0
C414 C 0.21899 0.30595 0.37466 0.0
C415 C 0.20164 0.30129 0.36514 0.0
C416 C 0.19423 0.2877 0.34923 0.0
C417 C 0.20434 0.27905 0.34283 0.0
C418 C 0.22157 0.28428 0.35286 0.0
H419 H 0.22461 0.3164 0.38688 0.0
O420 O 0.27458 0.35187 0.36052 0.0
O421 O 0.26634 0.32185 0.36466 0.0
O422 O 0.27724 0.34508 0.40068 0.0
O423 O 0.2524 0.31567 0.40156 0.0
C424 C 0.19809 0.26556 0.32679 0.0
C425 C 0.20942 0.2581 0.32064 0.0
H426 H 0.23545 0.24762 0.31256 0.0
H427 H 0.26602 0.25952 0.33152 0.0
H428 H 0.19398 0.30812 0.37009 0.0
H429 H 0.18083 0.28412 0.34195 0.0
H430 H 0.18465 0.26092 0.319 0.0
H431 H 0.20462 0.24803 0.30806 0.0
Mn432 Mn 0.3384 0.03838 0.68444 0.0
Mn433 Mn 0.37941 0.07963 0.69341 0.0
C434 C 0.34503 0.06365 0.66581 0.0
C435 C 0.3208 0.0074 0.67029 0.0
C436 C 0.34622 0.06876 0.7169 0.0
O437 O 0.35382 0.03061 0.70155 0.0
O438 O 0.38083 0.05852 0.7057 0.0
C439 C 0.40255 0.06864 0.67083 0.0
N440 N 0.3961 0.08094 0.67477 0.0
C441 C 0.4153 0.10239 0.6521 0.0
C442 C 0.42222 0.09 0.64781 0.0
C443 C 0.41572 0.07299 0.65714 0.0
C444 C 0.40198 0.09714 0.66563 0.0
H445 H 0.39772 0.05565 0.67811 0.0
C446 C 0.37078 0.04079 0.70842 0.0
O447 O 0.31606 0.01288 0.68574 0.0
O448 O 0.33587 0.01991 0.66304 0.0
N449 N 0.38067 0.1016 0.6826 0.0
C450 C 0.37225 0.11175 0.68805 0.0
C451 C 0.37742 0.12933 0.68035 0.0
C452 C 0.39139 0.13641 0.66738 0.0
C453 C 0.3997 0.12562 0.6618 0.0
C454 C 0.39404 0.10825 0.67002 0.0
H455 H 0.36185 0.10659 0.6984 0.0
O456 O 0.3279 0.05004 0.66664 0.0
O457 O 0.35797 0.0618 0.67544 0.0
O458 O 0.33536 0.05275 0.70752 0.0
O459 O 0.36304 0.0798 0.71301 0.0
C460 C 0.4135 0.13148 0.64855 0.0
C461 C 0.42113 0.11976 0.64352 0.0
H462 H 0.43249 0.09338 0.63738 0.0
H463 H 0.42097 0.06333 0.65389 0.0
H464 H 0.37089 0.13755 0.68464 0.0
H465 H 0.39566 0.1502 0.66185 0.0
H466 H 0.41827 0.14491 0.64202 0.0
H467 H 0.43153 0.12429 0.6331 0.0
Mn468 Mn 0.96213 0.28777 0.72942 0.0
Mn469 Mn 0.9651 0.24758 0.72412 0.0
C470 C 0.94328 0.26168 0.74592 0.0
C471 C 0.9728 0.31822 0.74392 0.0
C472 C 0.94398 0.25823 0.69476 0.0
O473 O 0.98641 0.29674 0.71679 0.0
O474 O 0.98773 0.26953 0.71514 0.0
C475 C 0.99701 0.25894 0.75322 0.0
N476 N 0.97907 0.24633 0.74624 0.0
C477 C 0.97584 0.22492 0.77068 0.0
C478 C 0.99431 0.23762 0.77809 0.0
C479 C 0.0049 0.25475 0.76938 0.0
C480 C 0.96866 0.22998 0.7547 0.0
H481 H 0.00522 0.27207 0.7465 0.0
C482 C 0.99451 0.28728 0.71247 0.0
O483 O 0.96401 0.31308 0.72684 0.0
O484 O 0.97552 0.30571 0.75255 0.0
N485 N 0.94447 0.225 0.73219 0.0
C486 C 0.92671 0.21459 0.72361 0.0
C487 C 0.91428 0.19701 0.73056 0.0
C488 C 0.92033 0.19017 0.74601 0.0
C489 C 0.93866 0.20115 0.75463 0.0
C490 C 0.95041 0.21854 0.74708 0.0
H491 H 0.92211 0.21961 0.71149 0.0
O492 O 0.939 0.27494 0.74318 0.0
O493 O 0.95889 0.26437 0.73946 0.0
O494 O 0.94728 0.27373 0.70393 0.0
O495 O 0.95012 0.24744 0.70089 0.0
C496 C 0.94577 0.19547 0.77035 0.0
C497 C 0.96427 0.20745 0.77851 0.0
H498 H 0.00047 0.23438 0.79048 0.0
H499 H 0.01914 0.26465 0.77504 0.0
H500 H 0.90014 0.18863 0.72387 0.0
H501 H 0.91081 0.17643 0.75107 0.0
H502 H 0.9371 0.18198 0.77637 0.0
H503 H 0.96947 0.20307 0.79078 0.0
Mn504 Mn 0.71204 0.66175 0.68722 0.0
Mn505 Mn 0.74812 0.70634 0.68501 0.0
C506 C 0.7394 0.67233 0.70689 0.0
C507 C 0.68373 0.64176 0.69999 0.0
C508 C 0.73893 0.67372 0.6552 0.0
O509 O 0.69998 0.67497 0.6731 0.0
O510 O 0.72466 0.70474 0.67359 0.0
C511 C 0.73601 0.7263 0.71241 0.0
N512 N 0.74912 0.72178 0.70707 0.0
C513 C 0.77027 0.74072 0.73443 0.0
C514 C 0.75705 0.74567 0.74017 0.0
C515 C 0.73981 0.73835 0.72916 0.0
C516 C 0.76561 0.72849 0.71773 0.0
H517 H 0.72277 0.72073 0.70397 0.0
C518 C 0.70732 0.69246 0.66946 0.0
O519 O 0.68788 0.63687 0.68374 0.0
O520 O 0.69607 0.65801 0.70873 0.0
N521 N 0.77168 0.71012 0.69574 0.0
C522 C 0.78263 0.70343 0.6886 0.0
C523 C 0.80025 0.70914 0.69815 0.0
C524 C 0.80653 0.72191 0.71472 0.0
C525 C 0.79511 0.72878 0.72163 0.0
C526 C 0.77764 0.72247 0.71162 0.0
H527 H 0.77794 0.69376 0.67577 0.0
O528 O 0.72782 0.65416 0.70337 0.0
O529 O 0.73441 0.68363 0.699 0.0
O530 O 0.72496 0.66077 0.66301 0.0
O531 O 0.74827 0.69112 0.66216 0.0
C532 C 0.80039 0.74171 0.73803 0.0
C533 C 0.78788 0.74746 0.74459 0.0
H534 H 0.75997 0.75503 0.75303 0.0
H535 H 0.72951 0.74204 0.73353 0.0
H536 H 0.80898 0.70378 0.69272 0.0
H537 H 0.82014 0.7263 0.72202 0.0
H538 H 0.81402 0.74725 0.74577 0.0
H539 H 0.79199 0.75713 0.75744 0.0
Mn540 Mn 0.3329 0.30333 0.70566 0.0
Mn541 Mn 0.37393 0.30422 0.71528 0.0
C542 C 0.33967 0.28315 0.68759 0.0
C543 C 0.31553 0.31536 0.69024 0.0
C544 C 0.34078 0.28423 0.73917 0.0
O545 O 0.34839 0.32823 0.72233 0.0
O546 O 0.37561 0.32814 0.7264 0.0
C547 C 0.3975 0.33592 0.69181 0.0
N548 N 0.39067 0.3175 0.69632 0.0
C549 C 0.40938 0.31251 0.67394 0.0
C550 C 0.41668 0.33146 0.6691 0.0
C551 C 0.41064 0.34318 0.678 0.0
C552 C 0.39621 0.30603 0.68767 0.0
H553 H 0.39299 0.34501 0.69872 0.0
C554 C 0.36552 0.33598 0.7288 0.0
O555 O 0.31048 0.30661 0.70593 0.0
O556 O 0.33078 0.31734 0.68368 0.0
N557 N 0.37468 0.28218 0.70531 0.0
C558 C 0.36548 0.26397 0.71081 0.0
C559 C 0.36956 0.25028 0.70288 0.0
C560 C 0.38326 0.25554 0.68966 0.0
C561 C 0.39254 0.27436 0.68423 0.0
C562 C 0.38784 0.28736 0.69255 0.0
H563 H 0.35515 0.25994 0.72119 0.0
O564 O 0.32252 0.27952 0.68827 0.0
O565 O 0.3525 0.29881 0.69716 0.0
O566 O 0.32963 0.28789 0.72922 0.0
O567 O 0.35766 0.28997 0.7354 0.0
C568 C 0.40626 0.28076 0.67086 0.0
C569 C 0.41455 0.29977 0.6656 0.0
H570 H 0.42686 0.33713 0.6585 0.0
H571 H 0.41617 0.3578 0.6743 0.0
H572 H 0.3623 0.23576 0.7071 0.0
H573 H 0.38652 0.24499 0.68377 0.0
H574 H 0.41042 0.27114 0.6644 0.0
H575 H 0.42482 0.30441 0.65505 0.0
Mn576 Mn 0.70347 0.04938 0.67537 0.0
Mn577 Mn 0.73894 0.04037 0.67062 0.0
C578 C 0.73039 0.06507 0.69618 0.0
C579 C 0.67515 0.04132 0.68841 0.0
C580 C 0.73142 0.06558 0.64461 0.0
O581 O 0.69119 0.02456 0.65813 0.0
O582 O 0.7155 0.01915 0.65728 0.0
C583 C 0.72534 0.00692 0.69402 0.0
N584 N 0.7389 0.02483 0.69062 0.0
C585 C 0.75903 0.02569 0.71742 0.0
C586 C 0.74533 0.00721 0.72116 0.0
C587 C 0.72837 0.99783 0.70946 0.0
C588 C 0.75513 0.0341 0.70196 0.0
H589 H 0.71231 0.99963 0.68503 0.0
C590 C 0.69838 0.01441 0.65291 0.0
O591 O 0.67988 0.05091 0.67317 0.0
O592 O 0.68673 0.03633 0.69576 0.0
N593 N 0.76248 0.05962 0.68303 0.0
C594 C 0.77406 0.07756 0.67776 0.0
C595 C 0.79152 0.08898 0.68819 0.0
C596 C 0.79702 0.08171 0.70368 0.0
C597 C 0.78498 0.06309 0.70863 0.0
C598 C 0.76769 0.05245 0.69783 0.0
H599 H 0.76999 0.08313 0.66573 0.0
O600 O 0.71923 0.07203 0.69407 0.0
O601 O 0.72523 0.04901 0.6863 0.0
O602 O 0.71749 0.06456 0.65288 0.0
O603 O 0.74011 0.05683 0.6499 0.0
C604 C 0.78948 0.05464 0.72379 0.0
C605 C 0.77642 0.03606 0.72836 0.0
H606 H 0.74766 0.00012 0.733 0.0
H607 H 0.7177 0.98359 0.71229 0.0
H608 H 0.80075 0.10331 0.68425 0.0
H609 H 0.81051 0.09054 0.71168 0.0
H610 H 0.80293 0.06233 0.7321 0.0
H611 H 0.77994 0.02985 0.74027 0.0
Mn612 Mn 0.95031 0.67569 0.70636 0.0
Mn613 Mn 0.90978 0.63392 0.70594 0.0
C614 C 0.92491 0.66976 0.68552 0.0
C615 C 0.98004 0.69331 0.69561 0.0
C616 C 0.92211 0.66657 0.73662 0.0
O617 O 0.95819 0.65903 0.72062 0.0
O618 O 0.93073 0.63143 0.71821 0.0
C619 C 0.91867 0.61069 0.67905 0.0
N620 N 0.90722 0.61761 0.68396 0.0
C621 C 0.88505 0.59956 0.65696 0.0
C622 C 0.89654 0.59215 0.65165 0.0
C623 C 0.91348 0.59784 0.66269 0.0
C624 C 0.89106 0.61248 0.67328 0.0
H625 H 0.93164 0.61493 0.68758 0.0
C626 C 0.94827 0.64139 0.72341 0.0
O627 O 0.97589 0.69831 0.71178 0.0
O628 O 0.96695 0.67809 0.68583 0.0
N629 N 0.88823 0.63394 0.69428 0.0
C630 C 0.87942 0.64341 0.70058 0.0
C631 C 0.86244 0.63969 0.69087 0.0
C632 C 0.8546 0.62609 0.67496 0.0
C633 C 0.86401 0.61664 0.66865 0.0
C634 C 0.88091 0.621 0.67885 0.0
H635 H 0.88531 0.65373 0.7129 0.0
O636 O 0.93828 0.68715 0.6901 0.0
O637 O 0.92695 0.65633 0.693 0.0
O638 O 0.93748 0.67814 0.72987 0.0
O639 O 0.91088 0.64979 0.72883 0.0
C640 C 0.85729 0.60305 0.65265 0.0
C641 C 0.86791 0.5947 0.64666 0.0
H642 H 0.89255 0.58217 0.63909 0.0
H643 H 0.92246 0.59224 0.65865 0.0
H644 H 0.85534 0.64715 0.69573 0.0
H645 H 0.84139 0.6231 0.66765 0.0
H646 H 0.84403 0.599 0.64477 0.0
H647 H 0.86277 0.58456 0.63411 0.0
H648 H 0.15573 0.34335 0.03013 0.0
H649 H 0.26992 0.29667 0.17675 0.0
H650 H 0.15098 0.34394 0.14368 0.0
H651 H 0.12406 0.34586 0.12998 0.0
H652 H 0.09499 0.28506 0.11416 0.0
H653 H 0.12213 0.28331 0.12805 0.0
H654 H 0.18155 0.34797 0.11109 0.0
H655 H 0.17414 0.35184 0.07764 0.0
H656 H 0.13794 0.29062 0.06801 0.0
H657 H 0.14561 0.28698 0.10145 0.0
H658 H 0.21933 0.34868 0.13608 0.0
H659 H 0.24387 0.35713 0.11435 0.0
H660 H 0.20869 0.30424 0.0794 0.0
H661 H 0.18474 0.29522 0.10236 0.0
H662 H 0.22164 0.34316 0.17469 0.0
H663 H 0.25009 0.3423 0.18482 0.0
H664 H 0.22587 0.28525 0.15701 0.0
H665 H 0.19738 0.28621 0.14722 0.0
H666 H 0.19472 0.34524 0.19319 0.0
H667 H 0.20482 0.34734 0.22727 0.0
H668 H 0.18324 0.28627 0.2237 0.0
H669 H 0.17277 0.28429 0.18956 0.0
H670 H 0.16366 0.34367 0.1832 0.0
H671 H 0.1459 0.34387 0.21023 0.0
H672 H 0.11162 0.28247 0.20172 0.0
H673 H 0.1299 0.28231 0.1749 0.0
O674 O 0.15854 0.34149 0.04328 0.0
O675 O 0.14 0.30995 0.03912 0.0
O676 O 0.27058 0.32669 0.18714 0.0
O677 O 0.25881 0.29738 0.17297 0.0
C678 C 0.15571 0.31309 0.1428 0.0
C679 C 0.16838 0.315 0.12898 0.0
C680 C 0.18571 0.31632 0.13484 0.0
C681 C 0.18996 0.31498 0.15445 0.0
C682 C 0.17756 0.31376 0.16827 0.0
C683 C 0.16047 0.31291 0.16248 0.0
C684 C 0.13844 0.31352 0.13678 0.0
C685 C 0.13863 0.33099 0.13763 0.0
C686 C 0.12323 0.33202 0.12987 0.0
C687 C 0.10742 0.31559 0.12102 0.0
C688 C 0.10703 0.29794 0.12082 0.0
C689 C 0.12243 0.29691 0.12876 0.0
C690 C 0.16409 0.31721 0.10862 0.0
C691 C 0.17207 0.33543 0.10169 0.0
C692 C 0.16779 0.33759 0.0826 0.0
C693 C 0.15542 0.32154 0.07015 0.0
C694 C 0.1475 0.30328 0.07721 0.0
C695 C 0.15183 0.30115 0.09629 0.0
C696 C 0.20028 0.32125 0.12096 0.0
C697 C 0.217 0.33879 0.12387 0.0
C698 C 0.23093 0.34374 0.11118 0.0
C699 C 0.22831 0.33149 0.09489 0.0
C700 C 0.21137 0.31397 0.09186 0.0
C701 C 0.19755 0.30884 0.10486 0.0
C702 C 0.20736 0.31464 0.16046 0.0
C703 C 0.22242 0.33041 0.17099 0.0
C704 C 0.2387 0.32992 0.17666 0.0
C705 C 0.24023 0.31366 0.17178 0.0
C706 C 0.22514 0.29796 0.16105 0.0
C707 C 0.20886 0.29847 0.15543 0.0
C708 C 0.18303 0.31462 0.18902 0.0
C709 C 0.192 0.3323 0.19985 0.0
C710 C 0.19785 0.33348 0.21923 0.0
C711 C 0.19488 0.31698 0.22811 0.0
C712 C 0.18554 0.29918 0.21727 0.0
C713 C 0.17967 0.29803 0.19782 0.0
C714 C 0.14817 0.31296 0.17727 0.0
C715 C 0.15228 0.33027 0.18712 0.0
C716 C 0.14218 0.33036 0.20254 0.0
C717 C 0.12754 0.31317 0.20812 0.0
C718 C 0.12286 0.29589 0.19766 0.0
C719 C 0.13323 0.29578 0.1824 0.0
C720 C 0.15081 0.3239 0.04991 0.0
C721 C 0.25748 0.31305 0.17779 0.0
H722 H 0.66723 0.82706 0.0473 0.0
H723 H 0.72655 0.97831 0.2147 0.0
H724 H 0.66459 0.81258 0.15783 0.0
H725 H 0.65678 0.78093 0.14426 0.0
H726 H 0.7157 0.80057 0.14039 0.0
H727 H 0.72332 0.83198 0.15516 0.0
H728 H 0.66593 0.8434 0.12961 0.0
H729 H 0.66093 0.83504 0.0948 0.0
H730 H 0.71901 0.84997 0.09377 0.0
H731 H 0.72382 0.85842 0.12857 0.0
H732 H 0.66737 0.87454 0.15766 0.0
H733 H 0.65934 0.89468 0.13877 0.0
H734 H 0.71296 0.91886 0.11478 0.0
H735 H 0.72101 0.89851 0.13403 0.0
H736 H 0.67614 0.88346 0.19787 0.0
H737 H 0.67906 0.91341 0.21128 0.0
H738 H 0.73484 0.94442 0.19229 0.0
H739 H 0.73183 0.91428 0.17923 0.0
H740 H 0.67274 0.84851 0.21364 0.0
H741 H 0.66957 0.85934 0.24581 0.0
H742 H 0.72815 0.90224 0.25073 0.0
H743 H 0.73126 0.89128 0.21842 0.0
H744 H 0.67023 0.81614 0.19516 0.0
H745 H 0.66879 0.79522 0.22023 0.0
H746 H 0.72899 0.82826 0.2315 0.0
H747 H 0.7302 0.8493 0.20651 0.0
O748 O 0.66951 0.83047 0.06104 0.0
O749 O 0.69942 0.83813 0.06134 0.0
O750 O 0.69635 0.94962 0.21915 0.0
O751 O 0.72501 0.96626 0.20951 0.0
C752 C 0.69875 0.84361 0.16533 0.0
C753 C 0.69825 0.85658 0.15261 0.0
C754 C 0.69958 0.87377 0.16004 0.0
C755 C 0.70233 0.87846 0.18012 0.0
C756 C 0.70271 0.86544 0.19284 0.0
C757 C 0.70088 0.848 0.18544 0.0
C758 C 0.69449 0.82443 0.15757 0.0
C759 C 0.67579 0.80992 0.15426 0.0
C760 C 0.67137 0.79193 0.14627 0.0
C761 C 0.68559 0.78819 0.14102 0.0
C762 C 0.7044 0.80284 0.14447 0.0
C763 C 0.70881 0.82081 0.15279 0.0
C764 C 0.69525 0.8516 0.13152 0.0
C765 C 0.67755 0.84493 0.1218 0.0
C766 C 0.67474 0.84013 0.10194 0.0
C767 C 0.68958 0.84185 0.09149 0.0
C768 C 0.70729 0.84849 0.10137 0.0
C769 C 0.71008 0.85332 0.12122 0.0
C770 C 0.69482 0.88527 0.14732 0.0
C771 C 0.67739 0.88418 0.14832 0.0
C772 C 0.67288 0.89573 0.13762 0.0
C773 C 0.68567 0.90852 0.12559 0.0
C774 C 0.70291 0.90914 0.12403 0.0
C775 C 0.70751 0.89759 0.13494 0.0
C776 C 0.70388 0.8967 0.18782 0.0
C777 C 0.68903 0.89672 0.19676 0.0
C778 C 0.69071 0.91386 0.20433 0.0
C779 C 0.70723 0.93132 0.20292 0.0
C780 C 0.72196 0.93124 0.19368 0.0
C781 C 0.72028 0.91406 0.18618 0.0
C782 C 0.70224 0.86907 0.21378 0.0
C783 C 0.68505 0.85978 0.22194 0.0
C784 C 0.6832 0.8661 0.24018 0.0
C785 C 0.69857 0.88172 0.25058 0.0
C786 C 0.71613 0.89011 0.24299 0.0
C787 C 0.71794 0.88386 0.22462 0.0
C788 C 0.70033 0.83407 0.19893 0.0
C789 C 0.68313 0.81856 0.20274 0.0
C790 C 0.68234 0.80664 0.21706 0.0
C791 C 0.69878 0.8101 0.22786 0.0
C792 C 0.71607 0.82536 0.22357 0.0
C793 C 0.71682 0.83728 0.20924 0.0
C794 C 0.68655 0.83673 0.07039 0.0
C795 C 0.70912 0.94956 0.21103 0.0
H796 H 0.13285 0.85287 0.0326 0.0
H797 H 0.293 0.96187 0.18751 0.0
H798 H 0.12284 0.85149 0.13674 0.0
H799 H 0.09555 0.82182 0.12194 0.0
H800 H 0.1238 0.7904 0.13645 0.0
H801 H 0.15075 0.8198 0.15134 0.0
H802 H 0.15783 0.88529 0.11235 0.0
H803 H 0.14679 0.8764 0.07818 0.0
H804 H 0.15294 0.82628 0.08137 0.0
H805 H 0.16422 0.8355 0.11541 0.0
H806 H 0.2014 0.91855 0.13174 0.0
H807 H 0.22651 0.93401 0.11021 0.0
H808 H 0.22596 0.88058 0.09919 0.0
H809 H 0.20145 0.86552 0.12114 0.0
H810 H 0.19984 0.9214 0.1799 0.0
H811 H 0.23062 0.94887 0.19021 0.0
H812 H 0.25701 0.91757 0.1691 0.0
H813 H 0.22615 0.89013 0.15908 0.0
H814 H 0.16993 0.89132 0.20652 0.0
H815 H 0.18383 0.89944 0.24005 0.0
H816 H 0.22126 0.87841 0.22602 0.0
H817 H 0.2073 0.87032 0.19275 0.0
H818 H 0.13307 0.86125 0.18665 0.0
H819 H 0.11364 0.84077 0.21093 0.0
H820 H 0.14618 0.81207 0.2122 0.0
H821 H 0.16569 0.83277 0.18829 0.0
O822 O 0.13735 0.85618 0.04609 0.0
O823 O 0.14063 0.83054 0.04853 0.0
O824 O 0.2664 0.96662 0.19437 0.0
O825 O 0.28067 0.95121 0.18362 0.0
C826 C 0.15628 0.85562 0.15131 0.0
C827 C 0.16803 0.86631 0.13716 0.0
C828 C 0.18606 0.88187 0.14274 0.0
C829 C 0.19202 0.88723 0.16254 0.0
C830 C 0.18031 0.87644 0.17668 0.0
C831 C 0.16244 0.86064 0.17106 0.0
C832 C 0.13865 0.83769 0.14521 0.0
C833 C 0.12287 0.83808 0.13714 0.0
C834 C 0.1074 0.82125 0.12871 0.0
C835 C 0.10778 0.80402 0.12807 0.0
C836 C 0.12329 0.80358 0.13681 0.0
C837 C 0.13857 0.82028 0.14541 0.0
C838 C 0.16162 0.86094 0.11637 0.0
C839 C 0.15681 0.87242 0.10561 0.0
C840 C 0.15048 0.86729 0.08611 0.0
C841 C 0.1489 0.85058 0.07706 0.0
C842 C 0.15392 0.8392 0.0879 0.0
C843 C 0.16029 0.84438 0.10737 0.0
C844 C 0.19958 0.89091 0.12798 0.0
C845 C 0.20658 0.91018 0.12448 0.0
C846 C 0.22084 0.91894 0.11211 0.0
C847 C 0.22831 0.90854 0.10308 0.0
C848 C 0.22072 0.88906 0.10612 0.0
C849 C 0.20656 0.88037 0.11849 0.0
C850 C 0.21079 0.90386 0.16859 0.0
C851 C 0.2123 0.92052 0.17751 0.0
C852 C 0.22989 0.93618 0.18338 0.0
C853 C 0.24629 0.93544 0.18042 0.0
C854 C 0.24468 0.91865 0.17154 0.0
C855 C 0.22708 0.90298 0.16573 0.0
C856 C 0.18775 0.88041 0.19722 0.0
C857 C 0.18102 0.88835 0.21079 0.0
C858 C 0.18894 0.89293 0.22988 0.0
C859 C 0.20376 0.88974 0.23556 0.0
C860 C 0.21009 0.88134 0.22197 0.0
C861 C 0.20211 0.87667 0.20301 0.0
C862 C 0.15073 0.84844 0.18576 0.0
C863 C 0.13598 0.85056 0.19224 0.0
C864 C 0.12496 0.83892 0.20607 0.0
C865 C 0.12836 0.82478 0.2133 0.0
C866 C 0.14313 0.8227 0.20669 0.0
C867 C 0.15431 0.83453 0.19314 0.0
C868 C 0.14206 0.8451 0.05638 0.0
C869 C 0.26501 0.95206 0.18658 0.0
H870 H 0.2862 0.17515 0.02436 0.0
H871 H 0.31328 0.04261 0.88781 0.0
H872 H 0.27313 0.17076 0.92233 0.0
H873 H 0.27894 0.20288 0.93264 0.0
H874 H 0.33347 0.22753 0.91064 0.0
H875 H 0.3278 0.1956 0.90087 0.0
H876 H 0.27078 0.13588 0.94752 0.0
H877 H 0.27202 0.14803 0.98065 0.0
H878 H 0.32817 0.19427 0.97548 0.0
H879 H 0.32682 0.18182 0.94248 0.0
H880 H 0.27415 0.09856 0.93231 0.0
H881 H 0.28405 0.07987 0.95191 0.0
H882 H 0.3401 0.12814 0.95982 0.0
H883 H 0.33022 0.14674 0.94047 0.0
H884 H 0.26829 0.09244 0.88448 0.0
H885 H 0.26819 0.06227 0.8783 0.0
H886 H 0.32636 0.08973 0.90044 0.0
H887 H 0.32634 0.11983 0.9062 0.0
H888 H 0.27275 0.12159 0.85223 0.0
H889 H 0.27762 0.10855 0.82183 0.0
H890 H 0.33463 0.12722 0.84336 0.0
H891 H 0.32969 0.14008 0.87339 0.0
H892 H 0.27273 0.16528 0.87396 0.0
H893 H 0.27637 0.1866 0.84825 0.0
H894 H 0.33058 0.19297 0.8395 0.0
H895 H 0.32727 0.17246 0.86561 0.0
O896 O 0.28605 0.17052 0.01127 0.0
O897 O 0.31482 0.1941 0.00781 0.0
O898 O 0.28318 0.04101 0.87833 0.0
O899 O 0.31295 0.05436 0.88999 0.0
C900 C 0.29772 0.16153 0.90676 0.0
C901 C 0.29764 0.15074 0.92237 0.0
C902 C 0.29755 0.13334 0.91887 0.0
C903 C 0.29713 0.12647 0.89978 0.0
C904 C 0.29772 0.13743 0.88426 0.0
C905 C 0.2979 0.15493 0.88765 0.0
C906 C 0.3 0.18085 0.91075 0.0
C907 C 0.2862 0.18314 0.9195 0.0
C908 C 0.28953 0.20143 0.92538 0.0
C909 C 0.30661 0.21766 0.92234 0.0
C910 C 0.32005 0.21531 0.91286 0.0
C911 C 0.31683 0.19707 0.90726 0.0
C912 C 0.29862 0.15808 0.94255 0.0
C913 C 0.28334 0.14861 0.9536 0.0
C914 C 0.28408 0.1556 0.9725 0.0
C915 C 0.30017 0.17217 0.98069 0.0
C916 C 0.31554 0.18151 0.9696 0.0
C917 C 0.31479 0.17447 0.95073 0.0
C918 C 0.30147 0.124 0.935 0.0
C919 C 0.28835 0.10532 0.93896 0.0
C920 C 0.29401 0.09467 0.95004 0.0
C921 C 0.31284 0.10261 0.9571 0.0
C922 C 0.32553 0.12177 0.95442 0.0
C923 C 0.31986 0.13244 0.94356 0.0
C924 C 0.29723 0.10823 0.896 0.0
C925 C 0.28098 0.09188 0.88797 0.0
C926 C 0.28097 0.07469 0.88447 0.0
C927 C 0.29726 0.07357 0.88896 0.0
C928 C 0.31357 0.09006 0.89688 0.0
C929 C 0.31357 0.10726 0.90026 0.0
C930 C 0.30084 0.13161 0.86498 0.0
C931 C 0.28632 0.12306 0.85017 0.0
C932 C 0.28912 0.11564 0.83291 0.0
C933 C 0.3064 0.11662 0.83044 0.0
C934 C 0.32106 0.12592 0.84505 0.0
C935 C 0.31831 0.13336 0.86212 0.0
C936 C 0.29956 0.16696 0.87141 0.0
C937 C 0.28534 0.17122 0.86641 0.0
C938 C 0.28744 0.18339 0.85182 0.0
C939 C 0.30367 0.19121 0.84182 0.0
C940 C 0.3178 0.18684 0.84677 0.0
C941 C 0.31586 0.17502 0.86158 0.0
C942 C 0.30086 0.17964 0.00073 0.0
C943 C 0.29729 0.05531 0.8854 0.0
H944 H 0.86215 0.1914 0.02854 0.0
H945 H 0.72513 0.02447 0.87092 0.0
H946 H 0.84739 0.19187 0.91109 0.0
H947 H 0.87529 0.2213 0.92392 0.0
H948 H 0.90227 0.18873 0.93948 0.0
H949 H 0.87379 0.15922 0.92734 0.0
H950 H 0.83316 0.17699 0.94751 0.0
H951 H 0.84471 0.18776 0.98131 0.0
H952 H 0.85142 0.13824 0.98739 0.0
H953 H 0.84008 0.12777 0.95348 0.0
H954 H 0.79531 0.1448 0.94307 0.0
H955 H 0.77205 0.12997 0.96632 0.0
H956 H 0.77485 0.07803 0.95806 0.0
H957 H 0.79879 0.09335 0.9353 0.0
H958 H 0.77029 0.11557 0.90659 0.0
H959 H 0.74089 0.08576 0.89819 0.0
H960 H 0.77194 0.05901 0.8782 0.0
H961 H 0.80126 0.08884 0.88692 0.0
H962 H 0.78477 0.12773 0.86966 0.0
H963 H 0.77258 0.11609 0.83672 0.0
H964 H 0.824 0.11619 0.82567 0.0
H965 H 0.83415 0.12417 0.85962 0.0
H966 H 0.82818 0.1725 0.87009 0.0
H967 H 0.84719 0.19094 0.84458 0.0
H968 H 0.88599 0.17064 0.85725 0.0
H969 H 0.86711 0.1525 0.88292 0.0
O970 O 0.85758 0.18686 0.01521 0.0
O971 O 0.86056 0.16105 0.01764 0.0
O972 O 0.72126 0.0508 0.88503 0.0
O973 O 0.73656 0.03642 0.87445 0.0
C974 C 0.84073 0.15562 0.91287 0.0
C975 C 0.82936 0.14536 0.92739 0.0
C976 C 0.81173 0.12904 0.92232 0.0
C977 C 0.80584 0.12238 0.9027 0.0
C978 C 0.81714 0.13281 0.88806 0.0
C979 C 0.83454 0.14958 0.89326 0.0
C980 C 0.85862 0.17349 0.91834 0.0
C981 C 0.85945 0.19117 0.91702 0.0
C982 C 0.87548 0.20798 0.92429 0.0
C983 C 0.89109 0.20745 0.93281 0.0
C984 C 0.89042 0.18967 0.93334 0.0
C985 C 0.87426 0.17282 0.92627 0.0
C986 C 0.83595 0.1517 0.94803 0.0
C987 C 0.83725 0.16856 0.95614 0.0
C988 C 0.84378 0.17464 0.97547 0.0
C989 C 0.84904 0.16389 0.98705 0.0
C990 C 0.84753 0.14688 0.97887 0.0
C991 C 0.84103 0.14085 0.95953 0.0
C992 C 0.7987 0.12013 0.93747 0.0
C993 C 0.79115 0.13033 0.94655 0.0
C994 C 0.77774 0.12178 0.95969 0.0
C995 C 0.77147 0.10276 0.9639 0.0
C996 C 0.77951 0.09276 0.95525 0.0
C997 C 0.79307 0.10141 0.94216 0.0
C998 C 0.78792 0.10433 0.8975 0.0
C999 C 0.77072 0.10322 0.90054 0.0
C1000 C 0.75394 0.08619 0.89565 0.0
C1001 C 0.75406 0.06998 0.88754 0.0
C1002 C 0.77134 0.0712 0.88444 0.0
C1003 C 0.78811 0.08822 0.88938 0.0
C1004 C 0.81033 0.12669 0.86729 0.0
C1005 C 0.79315 0.12469 0.86021 0.0
C1006 C 0.78641 0.11847 0.84098 0.0
C1007 C 0.7972 0.11521 0.82783 0.0
C1008 C 0.81477 0.11789 0.83499 0.0
C1009 C 0.82095 0.12298 0.85452 0.0
C1010 C 0.84626 0.16112 0.87822 0.0
C1011 C 0.84084 0.17215 0.8674 0.0
C1012 C 0.85169 0.18268 0.85294 0.0
C1013 C 0.86796 0.1821 0.84898 0.0
C1014 C 0.87343 0.17118 0.85997 0.0
C1015 C 0.86274 0.16091 0.87462 0.0
C1016 C 0.85607 0.17044 0.00755 0.0
C1017 C 0.73627 0.05187 0.88229 0.0
H1018 H 0.85161 0.6895 0.04272 0.0
H1019 H 0.7226 0.69148 0.88347 0.0
H1020 H 0.87423 0.71395 0.94681 0.0
H1021 H 0.89831 0.70864 0.9624 0.0
H1022 H 0.87678 0.65554 0.92704 0.0
H1023 H 0.85177 0.66023 0.91287 0.0
H1024 H 0.84075 0.71302 0.96698 0.0
H1025 H 0.84623 0.70842 0.00072 0.0
H1026 H 0.83581 0.65156 0.98384 0.0
H1027 H 0.83013 0.65627 0.95019 0.0
H1028 H 0.80799 0.71435 0.94874 0.0
H1029 H 0.78283 0.70666 0.97033 0.0
H1030 H 0.76608 0.64681 0.96208 0.0
H1031 H 0.79127 0.65456 0.94094 0.0
H1032 H 0.81444 0.72396 0.89815 0.0
H1033 H 0.7886 0.72941 0.88824 0.0
H1034 H 0.74898 0.67122 0.89918 0.0
H1035 H 0.77491 0.66588 0.90875 0.0
H1036 H 0.84394 0.71578 0.8691 0.0
H1037 H 0.83485 0.71313 0.83491 0.0
H1038 H 0.7813 0.6637 0.84339 0.0
H1039 H 0.79209 0.66461 0.87642 0.0
H1040 H 0.87484 0.71887 0.895 0.0
H1041 H 0.8939 0.71863 0.86906 0.0
H1042 H 0.85261 0.65994 0.85183 0.0
H1043 H 0.83342 0.66042 0.87734 0.0
O1044 O 0.84929 0.69098 0.02929 0.0
O1045 O 0.84393 0.6619 0.01985 0.0
O1046 O 0.75403 0.71947 0.88179 0.0
O1047 O 0.73308 0.68971 0.88731 0.0
C1048 C 0.84452 0.689 0.92212 0.0
C1049 C 0.83191 0.68794 0.93568 0.0
C1050 C 0.81585 0.68902 0.9297 0.0
C1051 C 0.81247 0.69153 0.91026 0.0
C1052 C 0.82434 0.69134 0.89638 0.0
C1053 C 0.84049 0.69025 0.90241 0.0
C1054 C 0.86122 0.6875 0.92867 0.0
C1055 C 0.87487 0.70128 0.9423 0.0
C1056 C 0.88873 0.69825 0.95111 0.0
C1057 C 0.88948 0.68153 0.94617 0.0
C1058 C 0.87642 0.66835 0.9316 0.0
C1059 C 0.86231 0.67118 0.92314 0.0
C1060 C 0.83512 0.68502 0.95616 0.0
C1061 C 0.83959 0.69956 0.97063 0.0
C1062 C 0.84276 0.6969 0.98987 0.0
C1063 C 0.8415 0.67963 0.99497 0.0
C1064 C 0.83693 0.66505 0.9804 0.0
C1065 C 0.83371 0.66771 0.96118 0.0
C1066 C 0.80136 0.68498 0.94332 0.0
C1067 C 0.79894 0.69963 0.95176 0.0
C1068 C 0.78467 0.69525 0.96404 0.0
C1069 C 0.77254 0.67615 0.96768 0.0
C1070 C 0.77517 0.6616 0.95933 0.0
C1071 C 0.78955 0.66601 0.94737 0.0
C1072 C 0.79658 0.69462 0.90441 0.0
C1073 C 0.80017 0.71242 0.89842 0.0
C1074 C 0.78539 0.71549 0.89277 0.0
C1075 C 0.76671 0.70076 0.89299 0.0
C1076 C 0.76318 0.6829 0.89893 0.0
C1077 C 0.77798 0.67984 0.90453 0.0
C1078 C 0.81873 0.6904 0.87543 0.0
C1079 C 0.83047 0.70406 0.86336 0.0
C1080 C 0.82497 0.70271 0.84373 0.0
C1081 C 0.80712 0.68821 0.83583 0.0
C1082 C 0.79535 0.67478 0.84825 0.0
C1083 C 0.80131 0.67555 0.86753 0.0
C1084 C 0.85277 0.68967 0.88794 0.0
C1085 C 0.87004 0.70594 0.88571 0.0
C1086 C 0.88083 0.70581 0.87094 0.0
C1087 C 0.87467 0.68925 0.85859 0.0
C1088 C 0.85768 0.6728 0.8613 0.0
C1089 C 0.84673 0.67307 0.87577 0.0
C1090 C 0.84496 0.67689 0.01542 0.0
C1091 C 0.75095 0.70395 0.88701 0.0
H1092 H 0.82241 0.66417 0.35221 0.0
H1093 H 0.93942 0.64644 0.51789 0.0
H1094 H 0.81978 0.6798 0.4545 0.0
H1095 H 0.79278 0.68081 0.4397 0.0
H1096 H 0.75617 0.62364 0.45563 0.0
H1097 H 0.78356 0.62246 0.47008 0.0
H1098 H 0.84932 0.68061 0.4339 0.0
H1099 H 0.84196 0.6793 0.39921 0.0
H1100 H 0.80057 0.61947 0.39967 0.0
H1101 H 0.80826 0.62093 0.43435 0.0
H1102 H 0.88051 0.6882 0.45974 0.0
H1103 H 0.90575 0.69566 0.43892 0.0
H1104 H 0.88091 0.63557 0.42071 0.0
H1105 H 0.85517 0.62843 0.44106 0.0
H1106 H 0.88496 0.68524 0.50296 0.0
H1107 H 0.91466 0.68831 0.51579 0.0
H1108 H 0.89475 0.62934 0.49611 0.0
H1109 H 0.86507 0.62646 0.48351 0.0
H1110 H 0.85451 0.68375 0.52204 0.0
H1111 H 0.86478 0.68752 0.55648 0.0
H1112 H 0.84925 0.62786 0.55459 0.0
H1113 H 0.8394 0.6243 0.52004 0.0
H1114 H 0.81529 0.67767 0.50044 0.0
H1115 H 0.79645 0.67775 0.52645 0.0
H1116 H 0.78467 0.62088 0.53842 0.0
H1117 H 0.80346 0.6209 0.51231 0.0
O1118 O 0.82519 0.66433 0.36593 0.0
O1119 O 0.80404 0.63362 0.36695 0.0
O1120 O 0.93739 0.67586 0.5228 0.0
O1121 O 0.92783 0.64563 0.51294 0.0
C1122 C 0.82049 0.65028 0.47056 0.0
C1123 C 0.83377 0.6516 0.45768 0.0
C1124 C 0.85107 0.6537 0.46491 0.0
C1125 C 0.85481 0.65368 0.48487 0.0
C1126 C 0.84146 0.65203 0.49767 0.0
C1127 C 0.82424 0.65026 0.49059 0.0
C1128 C 0.80365 0.65096 0.46308 0.0
C1129 C 0.80597 0.66744 0.45474 0.0
C1130 C 0.79058 0.66799 0.44629 0.0
C1131 C 0.77251 0.65218 0.44631 0.0
C1132 C 0.77002 0.63593 0.45538 0.0
C1133 C 0.78557 0.63527 0.46362 0.0
C1134 C 0.82949 0.65081 0.43657 0.0
C1135 C 0.83884 0.66719 0.42644 0.0
C1136 C 0.83452 0.66642 0.40664 0.0
C1137 C 0.8207 0.64927 0.39665 0.0
C1138 C 0.81131 0.63289 0.40691 0.0
C1139 C 0.81568 0.63368 0.4267 0.0
C1140 C 0.86607 0.6578 0.45188 0.0
C1141 C 0.8805 0.67668 0.45116 0.0
C1142 C 0.89499 0.68087 0.43935 0.0
C1143 C 0.89552 0.66621 0.42821 0.0
C1144 C 0.88087 0.64725 0.42888 0.0
C1145 C 0.86621 0.6431 0.44058 0.0
C1146 C 0.87288 0.6556 0.49244 0.0
C1147 C 0.88704 0.673 0.50152 0.0
C1148 C 0.90399 0.67471 0.50878 0.0
C1149 C 0.90707 0.65905 0.507 0.0
C1150 C 0.89284 0.64167 0.49775 0.0
C1151 C 0.87589 0.63998 0.49053 0.0
C1152 C 0.84627 0.65377 0.51868 0.0
C1153 C 0.8532 0.67149 0.52914 0.0
C1154 C 0.85906 0.67362 0.54869 0.0
C1155 C 0.85772 0.65796 0.55805 0.0
C1156 C 0.85023 0.64008 0.54765 0.0
C1157 C 0.84469 0.63804 0.52801 0.0
C1158 C 0.81073 0.64927 0.50446 0.0
C1159 C 0.80829 0.66507 0.50839 0.0
C1160 C 0.79753 0.66508 0.52326 0.0
C1161 C 0.78915 0.64935 0.53457 0.0
C1162 C 0.79111 0.63329 0.53012 0.0
C1163 C 0.80174 0.63323 0.51516 0.0
C1164 C 0.81609 0.64852 0.37563 0.0
C1165 C 0.92502 0.66077 0.51474 0.0
H1166 H 0.35135 0.14781 0.37311 0.0
H1167 H 0.3713 0.30477 0.52893 0.0
H1168 H 0.32604 0.13984 0.48694 0.0
H1169 H 0.32088 0.10827 0.47649 0.0
H1170 H 0.38035 0.13231 0.47184 0.0
H1171 H 0.3852 0.16412 0.48173 0.0
H1172 H 0.3329 0.15792 0.45105 0.0
H1173 H 0.33522 0.14933 0.41764 0.0
H1174 H 0.39322 0.19409 0.42183 0.0
H1175 H 0.39076 0.20239 0.45533 0.0
H1176 H 0.33314 0.19424 0.45266 0.0
H1177 H 0.32876 0.21651 0.43328 0.0
H1178 H 0.3827 0.26246 0.45673 0.0
H1179 H 0.38736 0.23988 0.47563 0.0
H1180 H 0.33015 0.21422 0.49198 0.0
H1181 H 0.32894 0.24362 0.49859 0.0
H1182 H 0.38523 0.27071 0.52629 0.0
H1183 H 0.38636 0.24131 0.51926 0.0
H1184 H 0.32582 0.18888 0.52968 0.0
H1185 H 0.3222 0.19978 0.56164 0.0
H1186 H 0.38189 0.22566 0.57587 0.0
H1187 H 0.38517 0.21407 0.54408 0.0
H1188 H 0.32638 0.15129 0.52436 0.0
H1189 H 0.32484 0.13162 0.55097 0.0
H1190 H 0.3852 0.1586 0.55607 0.0
H1191 H 0.38658 0.17808 0.5294 0.0
O1192 O 0.35076 0.15141 0.38639 0.0
O1193 O 0.38051 0.17464 0.38927 0.0
O1194 O 0.34266 0.27851 0.51135 0.0
O1195 O 0.37133 0.29291 0.52629 0.0
C1196 C 0.3585 0.17335 0.49041 0.0
C1197 C 0.36034 0.18582 0.47594 0.0
C1198 C 0.36074 0.2032 0.48082 0.0
C1199 C 0.35935 0.20811 0.50016 0.0
C1200 C 0.35802 0.19587 0.51461 0.0
C1201 C 0.35766 0.17857 0.50974 0.0
C1202 C 0.35597 0.15419 0.48513 0.0
C1203 C 0.33796 0.13823 0.48383 0.0
C1204 C 0.33508 0.12018 0.47796 0.0
C1205 C 0.35022 0.11767 0.47342 0.0
C1206 C 0.36835 0.13374 0.47502 0.0
C1207 C 0.37119 0.15189 0.48078 0.0
C1208 C 0.36171 0.18065 0.45564 0.0
C1209 C 0.34613 0.16574 0.44477 0.0
C1210 C 0.34748 0.16092 0.42567 0.0
C1211 C 0.36442 0.171 0.41707 0.0
C1212 C 0.37998 0.18602 0.42802 0.0
C1213 C 0.37861 0.1908 0.44713 0.0
C1214 C 0.36053 0.21546 0.4656 0.0
C1215 C 0.3444 0.2089 0.45295 0.0
C1216 C 0.34188 0.22166 0.44196 0.0
C1217 C 0.35535 0.24118 0.44369 0.0
C1218 C 0.37211 0.24747 0.45526 0.0
C1219 C 0.37479 0.23461 0.46597 0.0
C1220 C 0.35834 0.22566 0.50515 0.0
C1221 C 0.34218 0.22651 0.49952 0.0
C1222 C 0.34153 0.24332 0.50331 0.0
C1223 C 0.35701 0.25953 0.51295 0.0
C1224 C 0.37307 0.2585 0.51883 0.0
C1225 C 0.37373 0.24171 0.51492 0.0
C1226 C 0.35574 0.20073 0.53465 0.0
C1227 C 0.33803 0.19662 0.53987 0.0
C1228 C 0.33604 0.20301 0.55805 0.0
C1229 C 0.35179 0.21377 0.57127 0.0
C1230 C 0.36945 0.21725 0.56615 0.0
C1231 C 0.37139 0.21073 0.54799 0.0
C1232 C 0.35658 0.166 0.52504 0.0
C1233 C 0.33921 0.15275 0.53113 0.0
C1234 C 0.33836 0.14154 0.54622 0.0
C1235 C 0.35491 0.14366 0.55554 0.0
C1236 C 0.37227 0.15681 0.5492 0.0
C1237 C 0.37308 0.16786 0.53399 0.0
C1238 C 0.36579 0.16585 0.39675 0.0
C1239 C 0.35649 0.27751 0.51679 0.0
H1240 H 0.80109 0.17639 0.36036 0.0
H1241 H 0.96046 0.29509 0.51139 0.0
H1242 H 0.79187 0.17859 0.46445 0.0
H1243 H 0.76402 0.14825 0.45201 0.0
H1244 H 0.79241 0.11757 0.46901 0.0
H1245 H 0.81993 0.14771 0.48169 0.0
H1246 H 0.82529 0.21133 0.43935 0.0
H1247 H 0.81433 0.20121 0.4053 0.0
H1248 H 0.8228 0.15267 0.41063 0.0
H1249 H 0.83394 0.1631 0.44458 0.0
H1250 H 0.86528 0.24529 0.45678 0.0
H1251 H 0.88978 0.26213 0.43503 0.0
H1252 H 0.89819 0.21327 0.42976 0.0
H1253 H 0.87323 0.19644 0.45069 0.0
H1254 H 0.86705 0.25024 0.50587 0.0
H1255 H 0.89725 0.27901 0.51493 0.0
H1256 H 0.92572 0.24937 0.49518 0.0
H1257 H 0.89545 0.22064 0.48646 0.0
H1258 H 0.83823 0.21912 0.53433 0.0
H1259 H 0.85265 0.22834 0.56766 0.0
H1260 H 0.89289 0.21121 0.5531 0.0
H1261 H 0.87845 0.20206 0.52007 0.0
H1262 H 0.79749 0.18282 0.50819 0.0
H1263 H 0.77823 0.1629 0.53277 0.0
H1264 H 0.82115 0.14893 0.54899 0.0
H1265 H 0.84002 0.1683 0.52405 0.0
O1266 O 0.80555 0.18018 0.37381 0.0
O1267 O 0.81005 0.15541 0.37734 0.0
O1268 O 0.93303 0.29842 0.51822 0.0
O1269 O 0.94833 0.2839 0.50803 0.0
C1270 C 0.82538 0.18344 0.47958 0.0
C1271 C 0.8367 0.19401 0.46509 0.0
C1272 C 0.85442 0.21019 0.47024 0.0
C1273 C 0.86066 0.21607 0.48988 0.0
C1274 C 0.84954 0.20529 0.50438 0.0
C1275 C 0.8318 0.18899 0.49927 0.0
C1276 C 0.80783 0.16526 0.47397 0.0
C1277 C 0.79188 0.16526 0.46578 0.0
C1278 C 0.77607 0.14803 0.45874 0.0
C1279 C 0.77625 0.13075 0.45955 0.0
C1280 C 0.79205 0.13079 0.46821 0.0
C1281 C 0.80768 0.14791 0.4755 0.0
C1282 C 0.83024 0.18786 0.44442 0.0
C1283 C 0.82479 0.19854 0.4331 0.0
C1284 C 0.81852 0.19271 0.41368 0.0
C1285 C 0.81763 0.17609 0.40526 0.0
C1286 C 0.82325 0.1655 0.41667 0.0
C1287 C 0.82956 0.17139 0.43607 0.0
C1288 C 0.86745 0.21964 0.45522 0.0
C1289 C 0.87219 0.23815 0.45054 0.0
C1290 C 0.88633 0.24779 0.43827 0.0
C1291 C 0.89613 0.23916 0.43066 0.0
C1292 C 0.89081 0.22032 0.43498 0.0
C1293 C 0.87656 0.21065 0.44702 0.0
C1294 C 0.87907 0.23345 0.49534 0.0
C1295 C 0.87983 0.25001 0.50353 0.0
C1296 C 0.89709 0.26641 0.50867 0.0
C1297 C 0.91391 0.26651 0.50571 0.0
C1298 C 0.91306 0.24981 0.49759 0.0
C1299 C 0.89579 0.23341 0.49252 0.0
C1300 C 0.85746 0.21015 0.52477 0.0
C1301 C 0.8501 0.2173 0.53843 0.0
C1302 C 0.8583 0.22249 0.55741 0.0
C1303 C 0.87402 0.22069 0.56288 0.0
C1304 C 0.88103 0.21311 0.54921 0.0
C1305 C 0.87279 0.20785 0.53037 0.0
C1306 C 0.82027 0.1772 0.51444 0.0
C1307 C 0.8027 0.17541 0.51702 0.0
C1308 C 0.79173 0.16405 0.53103 0.0
C1309 C 0.79828 0.15451 0.54286 0.0
C1310 C 0.81589 0.15636 0.54026 0.0
C1311 C 0.82669 0.16743 0.52605 0.0
C1312 C 0.81086 0.16988 0.38465 0.0
C1313 C 0.93228 0.28393 0.51106 0.0
H1314 H 0.96875 0.50435 0.35688 0.0
H1315 H 0.0032 0.3874 0.20663 0.0
H1316 H 0.95489 0.5071 0.25604 0.0
H1317 H 0.96029 0.53882 0.26742 0.0
H1318 H 0.01393 0.56502 0.24342 0.0
H1319 H 0.00866 0.53345 0.23255 0.0
H1320 H 0.95262 0.47039 0.27754 0.0
H1321 H 0.95416 0.48025 0.31158 0.0
H1322 H 0.01008 0.5274 0.30763 0.0
H1323 H 0.00844 0.51725 0.27368 0.0
H1324 H 0.95405 0.43334 0.25448 0.0
H1325 H 0.96041 0.41204 0.27376 0.0
H1326 H 0.01524 0.45921 0.29279 0.0
H1327 H 0.00913 0.48022 0.27296 0.0
H1328 H 0.95142 0.42996 0.21161 0.0
H1329 H 0.95403 0.40178 0.20246 0.0
H1330 H 0.01269 0.43265 0.22298 0.0
H1331 H 0.00994 0.46082 0.23175 0.0
H1332 H 0.95005 0.45419 0.1859 0.0
H1333 H 0.95266 0.44016 0.15492 0.0
H1334 H 0.01287 0.47201 0.16484 0.0
H1335 H 0.01022 0.48525 0.19606 0.0
H1336 H 0.95044 0.50064 0.20779 0.0
H1337 H 0.95051 0.52202 0.18356 0.0
H1338 H 0.00611 0.53494 0.1709 0.0
H1339 H 0.00622 0.51421 0.19548 0.0
O1340 O 0.96846 0.50067 0.34342 0.0
O1341 O 0.99711 0.52477 0.34058 0.0
O1342 O 0.97174 0.38334 0.19905 0.0
O1343 O 0.00179 0.39836 0.21001 0.0
C1344 C 0.97908 0.49889 0.23793 0.0
C1345 C 0.97929 0.48716 0.25245 0.0
C1346 C 0.97914 0.46994 0.24728 0.0
C1347 C 0.97893 0.46457 0.22768 0.0
C1348 C 0.97858 0.47617 0.21323 0.0
C1349 C 0.97844 0.49323 0.21827 0.0
C1350 C 0.98135 0.51798 0.2434 0.0
C1351 C 0.96771 0.51973 0.25312 0.0
C1352 C 0.97081 0.53779 0.25959 0.0
C1353 C 0.98748 0.55435 0.25619 0.0
C1354 C 0.00082 0.55253 0.24595 0.0
C1355 C 0.99784 0.53452 0.23975 0.0
C1356 C 0.98035 0.49317 0.27312 0.0
C1357 C 0.96519 0.48282 0.28407 0.0
C1358 C 0.9661 0.4885 0.3035 0.0
C1359 C 0.98222 0.50465 0.31232 0.0
C1360 C 0.99744 0.51493 0.30128 0.0
C1361 C 0.99652 0.5092 0.28187 0.0
C1362 C 0.98115 0.45832 0.26228 0.0
C1363 C 0.96727 0.43916 0.26315 0.0
C1364 C 0.97092 0.42703 0.27408 0.0
C1365 C 0.98832 0.43403 0.28465 0.0
C1366 C 0.00165 0.45354 0.28489 0.0
C1367 C 0.99815 0.46556 0.27365 0.0
C1368 C 0.98049 0.4474 0.22228 0.0
C1369 C 0.96483 0.43062 0.21401 0.0
C1370 C 0.96635 0.41454 0.20885 0.0
C1371 C 0.98358 0.41496 0.21199 0.0
C1372 C 0.99923 0.43183 0.22036 0.0
C1373 C 0.9977 0.44793 0.2254 0.0
C1374 C 0.97996 0.47093 0.19301 0.0
C1375 C 0.96377 0.4585 0.18111 0.0
C1376 C 0.96526 0.45047 0.16357 0.0
C1377 C 0.98296 0.45521 0.15764 0.0
C1378 C 0.99912 0.46841 0.16911 0.0
C1379 C 0.99762 0.47602 0.18681 0.0
C1380 C 0.97814 0.50549 0.20306 0.0
C1381 C 0.96257 0.50802 0.19968 0.0
C1382 C 0.96265 0.52024 0.18594 0.0
C1383 C 0.97822 0.52991 0.17524 0.0
C1384 C 0.99378 0.52735 0.17869 0.0
C1385 C 0.99381 0.5154 0.1926 0.0
C1386 C 0.98312 0.51069 0.33294 0.0
C1387 C 0.98527 0.39791 0.2066 0.0
H1388 H 0.49926 0.52012 0.36391 0.0
H1389 H 0.39275 0.35926 0.20783 0.0
H1390 H 0.50611 0.52602 0.25993 0.0
H1391 H 0.53326 0.55617 0.27284 0.0
H1392 H 0.56909 0.53185 0.26444 0.0
H1393 H 0.54162 0.50148 0.25184 0.0
H1394 H 0.47422 0.49667 0.28225 0.0
H1395 H 0.48053 0.50784 0.31644 0.0
H1396 H 0.52533 0.49445 0.32109 0.0
H1397 H 0.51872 0.48313 0.28693 0.0
H1398 H 0.44104 0.46194 0.25341 0.0
H1399 H 0.41656 0.44572 0.27498 0.0
H1400 H 0.45293 0.43129 0.30861 0.0
H1401 H 0.47696 0.44653 0.28599 0.0
H1402 H 0.44146 0.45462 0.21289 0.0
H1403 H 0.41339 0.42466 0.20111 0.0
H1404 H 0.4359 0.39299 0.23008 0.0
H1405 H 0.46402 0.42307 0.24153 0.0
H1406 H 0.47241 0.48661 0.19625 0.0
H1407 H 0.46192 0.47661 0.16209 0.0
H1408 H 0.47601 0.43179 0.16609 0.0
H1409 H 0.48644 0.44187 0.20041 0.0
H1410 H 0.50567 0.51996 0.21492 0.0
H1411 H 0.52567 0.53823 0.19015 0.0
H1412 H 0.54701 0.49885 0.18632 0.0
H1413 H 0.52636 0.4803 0.21058 0.0
O1414 O 0.49696 0.51558 0.35042 0.0
O1415 O 0.5199 0.50853 0.35202 0.0
O1416 O 0.39281 0.38826 0.19755 0.0
O1417 O 0.40371 0.37131 0.21225 0.0
C1418 C 0.50517 0.49313 0.24824 0.0
C1419 C 0.49217 0.48229 0.2614 0.0
C1420 C 0.47545 0.46541 0.25468 0.0
C1421 C 0.47201 0.45915 0.23487 0.0
C1422 C 0.4849 0.47019 0.22173 0.0
C1423 C 0.50149 0.4871 0.22844 0.0
C1424 C 0.52193 0.5116 0.25506 0.0
C1425 C 0.51984 0.52725 0.26081 0.0
C1426 C 0.53538 0.54448 0.26803 0.0
C1427 C 0.55333 0.5464 0.2696 0.0
C1428 C 0.55541 0.53074 0.26353 0.0
C1429 C 0.53981 0.51347 0.25626 0.0
C1430 C 0.49595 0.48899 0.28217 0.0
C1431 C 0.48531 0.49606 0.29072 0.0
C1432 C 0.48899 0.50248 0.31023 0.0
C1433 C 0.50343 0.50202 0.32151 0.0
C1434 C 0.5141 0.49499 0.31283 0.0
C1435 C 0.51037 0.48853 0.29333 0.0
C1436 C 0.46072 0.45527 0.26801 0.0
C1437 C 0.44363 0.45504 0.26528 0.0
C1438 C 0.42976 0.44602 0.27785 0.0
C1439 C 0.4328 0.43734 0.29371 0.0
C1440 C 0.45002 0.43765 0.29645 0.0
C1441 C 0.46382 0.44645 0.28364 0.0
C1442 C 0.45485 0.44099 0.22789 0.0
C1443 C 0.44037 0.44119 0.21653 0.0
C1444 C 0.42432 0.42406 0.2099 0.0
C1445 C 0.42242 0.40642 0.21462 0.0
C1446 C 0.43692 0.40631 0.22614 0.0
C1447 C 0.45298 0.42346 0.23272 0.0
C1448 C 0.48016 0.46494 0.20073 0.0
C1449 C 0.47345 0.47479 0.18968 0.0
C1450 C 0.46738 0.46902 0.17026 0.0
C1451 C 0.4681 0.4534 0.16153 0.0
C1452 C 0.47543 0.44395 0.17248 0.0
C1453 C 0.48132 0.44963 0.19201 0.0
C1454 C 0.51463 0.49887 0.21448 0.0
C1455 C 0.51479 0.51541 0.20879 0.0
C1456 C 0.5263 0.52586 0.19472 0.0
C1457 C 0.53796 0.52001 0.1862 0.0
C1458 C 0.538 0.50359 0.19232 0.0
C1459 C 0.52635 0.49306 0.20627 0.0
C1460 C 0.50732 0.50889 0.34223 0.0
C1461 C 0.4054 0.38817 0.2076 0.0
H1462 H 0.51983 0.00664 0.37249 0.0
H1463 H 0.3826 0.98957 0.19339 0.0
H1464 H 0.5434 0.03283 0.26077 0.0
H1465 H 0.56936 0.02974 0.27579 0.0
H1466 H 0.5317 0.96939 0.27965 0.0
H1467 H 0.50609 0.97257 0.26437 0.0
H1468 H 0.51855 0.02938 0.29401 0.0
H1469 H 0.52338 0.02532 0.32807 0.0
H1470 H 0.47826 0.96672 0.31985 0.0
H1471 H 0.47373 0.97093 0.28576 0.0
H1472 H 0.47752 0.02782 0.28813 0.0
H1473 H 0.45268 0.02243 0.30917 0.0
H1474 H 0.41823 0.96566 0.28111 0.0
H1475 H 0.44293 0.97137 0.26 0.0
H1476 H 0.46513 0.03334 0.24566 0.0
H1477 H 0.43678 0.0333 0.23307 0.0
H1478 H 0.41646 0.97714 0.20449 0.0
H1479 H 0.44476 0.97729 0.21736 0.0
H1480 H 0.49105 0.03847 0.20962 0.0
H1481 H 0.48143 0.03927 0.17586 0.0
H1482 H 0.46672 0.9802 0.16493 0.0
H1483 H 0.47664 0.97959 0.19864 0.0
H1484 H 0.52734 0.03946 0.217 0.0
H1485 H 0.54861 0.04245 0.19239 0.0
H1486 H 0.53413 0.98354 0.19714 0.0
H1487 H 0.51291 0.98069 0.22169 0.0
O1488 O 0.51768 0.00793 0.35897 0.0
O1489 O 0.49431 0.97793 0.35401 0.0
O1490 O 0.4049 0.01875 0.21371 0.0
O1491 O 0.3939 0.98993 0.19862 0.0
C1492 C 0.50673 0.00489 0.25415 0.0
C1493 C 0.49308 0.00297 0.26675 0.0
C1494 C 0.47683 0.0032 0.25961 0.0
C1495 C 0.47427 0.0055 0.23991 0.0
C1496 C 0.488 0.0077 0.22737 0.0
C1497 C 0.50434 0.00758 0.23449 0.0
C1498 C 0.5229 0.00292 0.26151 0.0
C1499 C 0.54089 0.01892 0.26462 0.0
C1500 C 0.55563 0.01715 0.27332 0.0
C1501 C 0.55258 0.99932 0.27895 0.0
C1502 C 0.5346 0.98326 0.27528 0.0
C1503 C 0.51992 0.98506 0.26664 0.0
C1504 C 0.49575 0.00048 0.28747 0.0
C1505 C 0.50974 0.01569 0.29961 0.0
C1506 C 0.51245 0.01333 0.31905 0.0
C1507 C 0.50119 0.9957 0.3267 0.0
C1508 C 0.48716 0.98049 0.31444 0.0
C1509 C 0.48449 0.98286 0.29499 0.0
C1510 C 0.46195 1e-05 0.27252 0.0
C1511 C 0.46457 0.01426 0.28657 0.0
C1512 C 0.45041 0.01112 0.29859 0.0
C1513 C 0.43341 0.99365 0.29675 0.0
C1514 C 0.43097 0.9794 0.28268 0.0
C1515 C 0.44509 0.98258 0.27067 0.0
C1516 C 0.45701 0.00537 0.23233 0.0
C1517 C 0.45451 0.02104 0.23671 0.0
C1518 C 0.43832 0.02099 0.22948 0.0
C1519 C 0.42436 0.00523 0.21773 0.0
C1520 C 0.42693 0.98952 0.21345 0.0
C1521 C 0.4431 0.98958 0.22073 0.0
C1522 C 0.48456 0.00899 0.2065 0.0
C1523 C 0.48612 0.02585 0.19981 0.0
C1524 C 0.48066 0.02628 0.18058 0.0
C1525 C 0.47329 0.00977 0.16787 0.0
C1526 C 0.47228 0.99308 0.17449 0.0
C1527 C 0.47802 0.99274 0.19364 0.0
C1528 C 0.51861 0.00987 0.22113 0.0
C1529 C 0.52896 0.02729 0.21287 0.0
C1530 C 0.54102 0.02895 0.19879 0.0
C1531 C 0.54302 0.01323 0.19282 0.0
C1532 C 0.5331 0.99598 0.20162 0.0
C1533 C 0.52094 0.99431 0.21562 0.0
C1534 C 0.50412 0.99324 0.34736 0.0
C1535 C 0.40717 0.00512 0.20994 0.0
H1536 H 0.47372 0.01466 0.70058 0.0
H1537 H 0.61346 0.99479 0.85552 0.0
H1538 H 0.48145 0.02212 0.82043 0.0
H1539 H 0.45418 0.02281 0.80581 0.0
H1540 H 0.43472 0.96715 0.77653 0.0
H1541 H 0.4621 0.96657 0.79132 0.0
H1542 H 0.50007 0.02614 0.78222 0.0
H1543 H 0.48959 0.02664 0.74884 0.0
H1544 H 0.48649 0.97233 0.73484 0.0
H1545 H 0.4967 0.97187 0.76838 0.0
H1546 H 0.54091 0.03265 0.78478 0.0
H1547 H 0.56466 0.03969 0.76189 0.0
H1548 H 0.55805 0.98345 0.76663 0.0
H1549 H 0.5341 0.97644 0.78928 0.0
H1550 H 0.56143 0.03211 0.82368 0.0
H1551 H 0.59222 0.03599 0.83319 0.0
H1552 H 0.56591 0.97632 0.84473 0.0
H1553 H 0.53524 0.97261 0.83497 0.0
H1554 H 0.53971 0.02832 0.86099 0.0
H1555 H 0.55009 0.02877 0.8946 0.0
H1556 H 0.51482 0.96727 0.89237 0.0
H1557 H 0.50378 0.96725 0.85906 0.0
H1558 H 0.50409 0.02372 0.85965 0.0
H1559 H 0.48513 0.022 0.88614 0.0
H1560 H 0.44371 0.96446 0.86502 0.0
H1561 H 0.46314 0.96603 0.83876 0.0
O1562 O 0.47805 0.01426 0.71367 0.0
O1563 O 0.47734 0.98668 0.70703 0.0
O1564 O 0.61434 0.02418 0.84527 0.0
O1565 O 0.60148 0.99364 0.85158 0.0
C1566 C 0.49203 0.99577 0.81252 0.0
C1567 C 0.50449 0.9982 0.79821 0.0
C1568 C 0.52225 0.00034 0.80345 0.0
C1569 C 0.52748 0.99981 0.82295 0.0
C1570 C 0.51514 0.99761 0.83721 0.0
C1571 C 0.49748 0.99581 0.8321 0.0
C1572 C 0.47376 0.99434 0.80685 0.0
C1573 C 0.47099 0.00982 0.81136 0.0
C1574 C 0.4554 0.01017 0.80299 0.0
C1575 C 0.4424 0.99508 0.78991 0.0
C1576 C 0.44462 0.97905 0.7864 0.0
C1577 C 0.46016 0.97866 0.79488 0.0
C1578 C 0.49904 0.99892 0.77772 0.0
C1579 C 0.4971 0.01436 0.77192 0.0
C1580 C 0.49114 0.01461 0.75284 0.0
C1581 C 0.48715 0.99949 0.73918 0.0
C1582 C 0.48941 0.98419 0.745 0.0
C1583 C 0.4953 0.98391 0.76412 0.0
C1584 C 0.53578 0.00403 0.78867 0.0
C1585 C 0.54445 0.02178 0.78068 0.0
C1586 C 0.55808 0.02582 0.76773 0.0
C1587 C 0.56327 0.01215 0.76248 0.0
C1588 C 0.55423 0.9942 0.77021 0.0
C1589 C 0.54063 0.99021 0.78322 0.0
C1590 C 0.54615 0.00208 0.82859 0.0
C1591 C 0.56238 0.01989 0.82817 0.0
C1592 C 0.57993 0.02206 0.83366 0.0
C1593 C 0.58153 0.00645 0.83973 0.0
C1594 C 0.56519 0.98863 0.84014 0.0
C1595 C 0.54765 0.98647 0.83459 0.0
C1596 C 0.52106 0.99776 0.85768 0.0
C1597 C 0.53416 0.015 0.86788 0.0
C1598 C 0.54014 0.01518 0.88703 0.0
C1599 C 0.53341 0.99803 0.89621 0.0
C1600 C 0.52009 0.98078 0.8859 0.0
C1601 C 0.51388 0.98068 0.86683 0.0
C1602 C 0.48517 0.9949 0.84743 0.0
C1603 C 0.49102 0.01066 0.86081 0.0
C1604 C 0.48018 0.00967 0.87591 0.0
C1605 C 0.46306 0.99303 0.87772 0.0
C1606 C 0.45686 0.97745 0.86394 0.0
C1607 C 0.46792 0.97833 0.84897 0.0
C1608 C 0.48057 0.99969 0.71898 0.0
C1609 C 0.60013 0.0087 0.84567 0.0
H1610 H 0.97404 0.46989 0.71519 0.0
H1611 H 0.02829 0.63009 0.88261 0.0
H1612 H 0.98129 0.46343 0.8364 0.0
H1613 H 0.97741 0.43301 0.82372 0.0
H1614 H 0.02783 0.4632 0.7943 0.0
H1615 H 0.03244 0.49355 0.80861 0.0
H1616 H 0.97567 0.48245 0.79872 0.0
H1617 H 0.96968 0.47281 0.76416 0.0
H1618 H 0.02524 0.51816 0.75515 0.0
H1619 H 0.03111 0.5275 0.78978 0.0
H1620 H 0.97446 0.5235 0.81283 0.0
H1621 H 0.9677 0.54524 0.79494 0.0
H1622 H 0.02677 0.58165 0.78945 0.0
H1623 H 0.03348 0.55987 0.80769 0.0
H1624 H 0.98104 0.5368 0.85504 0.0
H1625 H 0.98128 0.56559 0.86809 0.0
H1626 H 0.041 0.59827 0.86344 0.0
H1627 H 0.04052 0.56931 0.85048 0.0
H1628 H 0.98252 0.50908 0.87942 0.0
H1629 H 0.98226 0.5222 0.91163 0.0
H1630 H 0.04236 0.55828 0.91436 0.0
H1631 H 0.04249 0.54486 0.88216 0.0
H1632 H 0.98438 0.478 0.8713 0.0
H1633 H 0.98798 0.45854 0.89547 0.0
H1634 H 0.04667 0.48386 0.88624 0.0
H1635 H 0.04289 0.50321 0.86193 0.0
O1636 O 0.97671 0.47394 0.72881 0.0
O1637 O 0.00537 0.49752 0.72494 0.0
O1638 O 0.99707 0.60106 0.87951 0.0
O1639 O 0.02776 0.61852 0.87734 0.0
C1640 C 0.00907 0.49918 0.83089 0.0
C1641 C 0.00745 0.51132 0.81771 0.0
C1642 C 0.00833 0.52845 0.82463 0.0
C1643 C 0.01064 0.53343 0.84458 0.0
C1644 C 0.01194 0.52123 0.85773 0.0
C1645 C 0.01134 0.50423 0.85093 0.0
C1646 C 0.00729 0.48072 0.82369 0.0
C1647 C 0.99179 0.46345 0.82769 0.0
C1648 C 0.98941 0.44605 0.82007 0.0
C1649 C 0.0022 0.44554 0.80779 0.0
C1650 C 0.01783 0.46294 0.80392 0.0
C1651 C 0.02042 0.48034 0.81194 0.0
C1652 C 0.00382 0.50564 0.79672 0.0
C1653 C 0.98653 0.49024 0.78925 0.0
C1654 C 0.98315 0.48479 0.76951 0.0
C1655 C 0.99699 0.49471 0.75688 0.0
C1656 C 0.01428 0.51021 0.76446 0.0
C1657 C 0.01765 0.51562 0.78422 0.0
C1658 C 0.00441 0.54011 0.81136 0.0
C1659 C 0.98589 0.53599 0.80746 0.0
C1660 C 0.98209 0.54845 0.79743 0.0
C1661 C 0.99676 0.56513 0.79102 0.0
C1662 C 0.01527 0.56883 0.79423 0.0
C1663 C 0.01909 0.55644 0.80453 0.0
C1664 C 0.01076 0.55105 0.85185 0.0
C1665 C 0.99413 0.55022 0.85681 0.0
C1666 C 0.99432 0.56667 0.86427 0.0
C1667 C 0.01118 0.58424 0.86683 0.0
C1668 C 0.0278 0.58499 0.86166 0.0
C1669 C 0.02757 0.56851 0.85423 0.0
C1670 C 0.01254 0.52593 0.8786 0.0
C1671 C 0.99568 0.51933 0.88727 0.0
C1672 C 0.99554 0.52698 0.90553 0.0
C1673 C 0.01227 0.54139 0.91538 0.0
C1674 C 0.02929 0.54709 0.90715 0.0
C1675 C 0.02941 0.53944 0.88882 0.0
C1676 C 0.01337 0.49193 0.86491 0.0
C1677 C 0.99796 0.47921 0.87441 0.0
C1678 C 1.00002 0.46807 0.88808 0.0
C1679 C 0.0176 0.4697 0.89263 0.0
C1680 C 0.033 0.48241 0.88301 0.0
C1681 C 0.03087 0.49339 0.86915 0.0
C1682 C 0.99335 0.48887 0.73592 0.0
C1683 C 0.0115 0.60173 0.87493 0.0
H1684 H 0.46912 0.50395 0.69641 0.0
H1685 H 0.63066 0.62541 0.84515 0.0
H1686 H 0.46208 0.51383 0.79627 0.0
H1687 H 0.43374 0.48397 0.78428 0.0
H1688 H 0.4557 0.45173 0.81288 0.0
H1689 H 0.48397 0.48145 0.82446 0.0
H1690 H 0.49648 0.54421 0.77306 0.0
H1691 H 0.48489 0.53214 0.73949 0.0
H1692 H 0.48691 0.48067 0.75012 0.0
H1693 H 0.49872 0.49303 0.78358 0.0
H1694 H 0.53748 0.57814 0.7923 0.0
H1695 H 0.56236 0.59261 0.77043 0.0
H1696 H 0.56269 0.53928 0.763 0.0
H1697 H 0.53834 0.5252 0.78536 0.0
H1698 H 0.53751 0.58487 0.8396 0.0
H1699 H 0.56843 0.61289 0.84794 0.0
H1700 H 0.59439 0.58007 0.83013 0.0
H1701 H 0.5634 0.55211 0.8221 0.0
H1702 H 0.50677 0.55634 0.8681 0.0
H1703 H 0.52088 0.56751 0.9014 0.0
H1704 H 0.56067 0.54865 0.89087 0.0
H1705 H 0.5465 0.53747 0.85791 0.0
H1706 H 0.46575 0.5191 0.84382 0.0
H1707 H 0.44602 0.5001 0.86865 0.0
H1708 H 0.48854 0.48638 0.88741 0.0
H1709 H 0.50785 0.50479 0.86231 0.0
O1710 O 0.47388 0.50853 0.7097 0.0
O1711 O 0.47501 0.48227 0.71597 0.0
O1712 O 0.60423 0.63075 0.85112 0.0
O1713 O 0.61827 0.61454 0.84201 0.0
C1714 C 0.49336 0.51751 0.81614 0.0
C1715 C 0.50494 0.5267 0.80124 0.0
C1716 C 0.52303 0.54255 0.80579 0.0
C1717 C 0.52937 0.54955 0.82523 0.0
C1718 C 0.51798 0.54019 0.84017 0.0
C1719 C 0.49994 0.52413 0.83566 0.0
C1720 C 0.47508 0.4998 0.81123 0.0
C1721 C 0.46059 0.50031 0.80018 0.0
C1722 C 0.44447 0.48329 0.79334 0.0
C1723 C 0.44252 0.46555 0.79768 0.0
C1724 C 0.45667 0.46518 0.80955 0.0
C1725 C 0.47284 0.48215 0.81617 0.0
C1726 C 0.49831 0.51945 0.78076 0.0
C1727 C 0.49448 0.53037 0.76807 0.0
C1728 C 0.48782 0.52342 0.74892 0.0
C1729 C 0.4849 0.50541 0.74214 0.0
C1730 C 0.48894 0.49457 0.75489 0.0
C1731 C 0.49565 0.50158 0.77401 0.0
C1732 C 0.53612 0.55063 0.79046 0.0
C1733 C 0.54277 0.56954 0.78573 0.0
C1734 C 0.55692 0.57774 0.77316 0.0
C1735 C 0.56461 0.56713 0.76507 0.0
C1736 C 0.55728 0.54793 0.7692 0.0
C1737 C 0.54322 0.53979 0.78181 0.0
C1738 C 0.54823 0.56653 0.83011 0.0
C1739 C 0.5499 0.58378 0.83752 0.0
C1740 C 0.56757 0.59975 0.84225 0.0
C1741 C 0.58389 0.59873 0.83965 0.0
C1742 C 0.58213 0.58137 0.83227 0.0
C1743 C 0.56445 0.56539 0.8276 0.0
C1744 C 0.52577 0.54632 0.86055 0.0
C1745 C 0.51848 0.55457 0.87308 0.0
C1746 C 0.52651 0.56089 0.89204 0.0
C1747 C 0.54201 0.55916 0.89861 0.0
C1748 C 0.54898 0.55053 0.88609 0.0
C1749 C 0.54089 0.54411 0.86729 0.0
C1750 C 0.48836 0.51354 0.85136 0.0
C1751 C 0.47081 0.51204 0.85335 0.0
C1752 C 0.45957 0.50118 0.86747 0.0
C1753 C 0.46583 0.4919 0.88002 0.0
C1754 C 0.48349 0.49363 0.87814 0.0
C1755 C 0.49455 0.50419 0.86384 0.0
C1756 C 0.47765 0.49798 0.72184 0.0
C1757 C 0.6027 0.61567 0.84463 0.0
H1758 H 0.60698 0.82308 0.69395 0.0
H1759 H 0.64763 0.71764 0.519 0.0
H1760 H 0.60277 0.83785 0.57551 0.0
H1761 H 0.60883 0.86972 0.58762 0.0
H1762 H 0.66397 0.88321 0.61092 0.0
H1763 H 0.6581 0.85188 0.5984 0.0
H1764 H 0.59646 0.80319 0.61078 0.0
H1765 H 0.5952 0.80937 0.64521 0.0
H1766 H 0.65505 0.83229 0.65415 0.0
H1767 H 0.65611 0.8262 0.61972 0.0
H1768 H 0.60219 0.75862 0.5965 0.0
H1769 H 0.61021 0.7373 0.61398 0.0
H1770 H 0.66825 0.78156 0.62027 0.0
H1771 H 0.6604 0.80226 0.60193 0.0
H1772 H 0.5977 0.75249 0.55899 0.0
H1773 H 0.59953 0.72525 0.54473 0.0
H1774 H 0.6586 0.76222 0.5392 0.0
H1775 H 0.65658 0.78926 0.55369 0.0
H1776 H 0.59734 0.77361 0.52751 0.0
H1777 H 0.60132 0.76159 0.49622 0.0
H1778 H 0.65758 0.80935 0.49804 0.0
H1779 H 0.65383 0.82088 0.52965 0.0
H1780 H 0.5993 0.81555 0.53099 0.0
H1781 H 0.60257 0.83791 0.50661 0.0
H1782 H 0.65886 0.87696 0.53117 0.0
H1783 H 0.6556 0.85449 0.55521 0.0
O1784 O 0.60778 0.82069 0.6804 0.0
O1785 O 0.63857 0.8323 0.68422 0.0
O1786 O 0.61647 0.70937 0.52935 0.0
O1787 O 0.64663 0.72801 0.5252 0.0
C1788 C 0.62683 0.82351 0.57886 0.0
C1789 C 0.62684 0.81047 0.59186 0.0
C1790 C 0.62682 0.79379 0.58486 0.0
C1791 C 0.62564 0.78955 0.56484 0.0
C1792 C 0.62484 0.80213 0.55175 0.0
C1793 C 0.62581 0.81933 0.55874 0.0
C1794 C 0.62985 0.8424 0.58647 0.0
C1795 C 0.6161 0.84771 0.58331 0.0
C1796 C 0.61957 0.86585 0.59017 0.0
C1797 C 0.63675 0.87876 0.60045 0.0
C1798 C 0.65046 0.87338 0.60343 0.0
C1799 C 0.6471 0.85547 0.59637 0.0
C1800 C 0.62632 0.81403 0.61281 0.0
C1801 C 0.60926 0.80948 0.62023 0.0
C1802 C 0.60859 0.81304 0.63989 0.0
C1803 C 0.62502 0.82128 0.65245 0.0
C1804 C 0.64212 0.82586 0.6449 0.0
C1805 C 0.64275 0.82228 0.62525 0.0
C1806 C 0.63069 0.78209 0.59825 0.0
C1807 C 0.61656 0.76378 0.60196 0.0
C1808 C 0.62112 0.75166 0.61186 0.0
C1809 C 0.63978 0.75796 0.61855 0.0
C1810 C 0.65373 0.77656 0.6155 0.0
C1811 C 0.64925 0.78841 0.60518 0.0
C1812 C 0.62703 0.77277 0.55747 0.0
C1813 C 0.61106 0.75459 0.55494 0.0
C1814 C 0.61213 0.7391 0.5467 0.0
C1815 C 0.62921 0.74158 0.54077 0.0
C1816 C 0.64523 0.75981 0.54358 0.0
C1817 C 0.64415 0.77526 0.5519 0.0
C1818 C 0.62533 0.79805 0.53088 0.0
C1819 C 0.61034 0.78175 0.5209 0.0
C1820 C 0.61263 0.77488 0.50313 0.0
C1821 C 0.62978 0.78452 0.49489 0.0
C1822 C 0.64419 0.80177 0.50409 0.0
C1823 C 0.64203 0.80841 0.52206 0.0
C1824 C 0.62715 0.83347 0.54498 0.0
C1825 C 0.61225 0.82902 0.53119 0.0
C1826 C 0.61416 0.84175 0.51728 0.0
C1827 C 0.63094 0.8592 0.51706 0.0
C1828 C 0.64566 0.86377 0.53118 0.0
C1829 C 0.64382 0.85097 0.54493 0.0
C1830 C 0.62428 0.82511 0.67331 0.0
C1831 C 0.63031 0.7253 0.53147 0.0
H1832 H 0.18518 0.86413 0.7019 0.0
H1833 H 0.05332 0.70126 0.53847 0.0
H1834 H 0.18151 0.86399 0.57844 0.0
H1835 H 0.20965 0.89375 0.58958 0.0
H1836 H 0.23009 0.86211 0.622 0.0
H1837 H 0.20257 0.83219 0.60914 0.0
H1838 H 0.16377 0.8501 0.61894 0.0
H1839 H 0.17251 0.86088 0.65315 0.0
H1840 H 0.17594 0.81008 0.66329 0.0
H1841 H 0.16739 0.79957 0.629 0.0
H1842 H 0.12407 0.81545 0.61497 0.0
H1843 H 0.09912 0.79862 0.63614 0.0
H1844 H 0.10425 0.7481 0.627 0.0
H1845 H 0.12965 0.7653 0.60629 0.0
H1846 H 0.10283 0.7919 0.57528 0.0
H1847 H 0.07252 0.76382 0.56478 0.0
H1848 H 0.10063 0.73241 0.54966 0.0
H1849 H 0.13081 0.76052 0.56041 0.0
H1850 H 0.12504 0.81198 0.54002 0.0
H1851 H 0.11379 0.80208 0.50607 0.0
H1852 H 0.14897 0.7764 0.50205 0.0
H1853 H 0.16056 0.78696 0.53596 0.0
H1854 H 0.1638 0.84649 0.54373 0.0
H1855 H 0.18424 0.86416 0.51885 0.0
H1856 H 0.21869 0.8388 0.53184 0.0
H1857 H 0.19836 0.82142 0.55702 0.0
O1858 O 0.18176 0.8596 0.68842 0.0
O1859 O 0.18322 0.83319 0.69289 0.0
O1860 O 0.05131 0.72928 0.55093 0.0
O1861 O 0.06511 0.71256 0.54279 0.0
C1862 C 0.17228 0.82796 0.58674 0.0
C1863 C 0.15992 0.81766 0.60068 0.0
C1864 C 0.14242 0.80136 0.59479 0.0
C1865 C 0.13737 0.79522 0.57502 0.0
C1866 C 0.14963 0.80558 0.56114 0.0
C1867 C 0.16708 0.82186 0.56696 0.0
C1868 C 0.19005 0.84588 0.59279 0.0
C1869 C 0.19233 0.86343 0.58746 0.0
C1870 C 0.20831 0.88049 0.59419 0.0
C1871 C 0.22212 0.88045 0.60697 0.0
C1872 C 0.21993 0.86276 0.61201 0.0
C1873 C 0.20411 0.84562 0.60483 0.0
C1874 C 0.16506 0.82412 0.62149 0.0
C1875 C 0.16651 0.84138 0.62856 0.0
C1876 C 0.17146 0.84747 0.64812 0.0
C1877 C 0.17495 0.83636 0.66096 0.0
C1878 C 0.17336 0.81899 0.6538 0.0
C1879 C 0.16846 0.81294 0.63423 0.0
C1880 C 0.12865 0.79159 0.60911 0.0
C1881 C 0.12005 0.80087 0.61786 0.0
C1882 C 0.10569 0.79118 0.62978 0.0
C1883 C 0.09961 0.77198 0.63311 0.0
C1884 C 0.10873 0.76293 0.62486 0.0
C1885 C 0.12315 0.77267 0.61295 0.0
C1886 C 0.11897 0.77818 0.56868 0.0
C1887 C 0.10238 0.7789 0.56979 0.0
C1888 C 0.08511 0.76286 0.56374 0.0
C1889 C 0.08415 0.74585 0.55639 0.0
C1890 C 0.10085 0.74526 0.55525 0.0
C1891 C 0.11811 0.76129 0.56136 0.0
C1892 C 0.14352 0.80009 0.54037 0.0
C1893 C 0.13037 0.80431 0.53173 0.0
C1894 C 0.1239 0.79854 0.51239 0.0
C1895 C 0.13036 0.78831 0.50137 0.0
C1896 C 0.14385 0.78443 0.51006 0.0
C1897 C 0.15041 0.79033 0.52942 0.0
C1898 C 0.17968 0.83276 0.55218 0.0
C1899 C 0.17584 0.84486 0.54127 0.0
C1900 C 0.18752 0.85497 0.52717 0.0
C1901 C 0.20303 0.85284 0.52352 0.0
C1902 C 0.20679 0.84063 0.5344 0.0
C1903 C 0.19527 0.83077 0.54875 0.0
C1904 C 0.18023 0.84288 0.68172 0.0
C1905 C 0.06584 0.72878 0.5499 0.0
H1906 H 0.18538 0.35377 0.71175 0.0
H1907 H 0.05038 0.32966 0.54107 0.0
H1908 H 0.20916 0.37707 0.61592 0.0
H1909 H 0.23405 0.37318 0.63191 0.0
H1910 H 0.21408 0.31971 0.59765 0.0
H1911 H 0.18828 0.32288 0.58334 0.0
H1912 H 0.17447 0.37484 0.63473 0.0
H1913 H 0.17979 0.37124 0.66883 0.0
H1914 H 0.17126 0.31473 0.65389 0.0
H1915 H 0.16575 0.31845 0.61987 0.0
H1916 H 0.1422 0.37422 0.61603 0.0
H1917 H 0.11666 0.36683 0.63693 0.0
H1918 H 0.09898 0.30674 0.62851 0.0
H1919 H 0.12461 0.31424 0.60799 0.0
H1920 H 0.14168 0.38011 0.56929 0.0
H1921 H 0.11274 0.37911 0.55709 0.0
H1922 H 0.08314 0.3175 0.55785 0.0
H1923 H 0.11222 0.31875 0.56995 0.0
H1924 H 0.16842 0.38108 0.5417 0.0
H1925 H 0.15734 0.37889 0.50778 0.0
H1926 H 0.1285 0.3172 0.50693 0.0
H1927 H 0.13928 0.31961 0.54088 0.0
H1928 H 0.20613 0.38435 0.56043 0.0
H1929 H 0.22665 0.38649 0.53507 0.0
H1930 H 0.19645 0.32496 0.52527 0.0
H1931 H 0.17572 0.32298 0.55008 0.0
O1932 O 0.18313 0.35485 0.6982 0.0
O1933 O 0.17872 0.32592 0.68975 0.0
O1934 O 0.07787 0.36217 0.54577 0.0
O1935 O 0.062 0.33048 0.54591 0.0
C1936 C 0.17999 0.35105 0.59114 0.0
C1937 C 0.1667 0.34926 0.60419 0.0
C1938 C 0.15003 0.34883 0.59743 0.0
C1939 C 0.14658 0.35023 0.5777 0.0
C1940 C 0.15958 0.35162 0.56461 0.0
C1941 C 0.17635 0.35221 0.5713 0.0
C1942 C 0.19699 0.35038 0.59826 0.0
C1943 C 0.21033 0.36463 0.61176 0.0
C1944 C 0.22464 0.36241 0.6208 0.0
C1945 C 0.2261 0.34603 0.61625 0.0
C1946 C 0.21323 0.33231 0.60193 0.0
C1947 C 0.19867 0.33431 0.59331 0.0
C1948 C 0.16978 0.34694 0.62487 0.0
C1949 C 0.17368 0.36168 0.63888 0.0
C1950 C 0.17675 0.35959 0.65833 0.0
C1951 C 0.17598 0.34271 0.66409 0.0
C1952 C 0.17198 0.32793 0.64996 0.0
C1953 C 0.16886 0.33002 0.63052 0.0
C1954 C 0.13518 0.34474 0.61059 0.0
C1955 C 0.13286 0.3595 0.61887 0.0
C1956 C 0.11836 0.35528 0.63076 0.0
C1957 C 0.10585 0.33622 0.6342 0.0
C1958 C 0.10834 0.32153 0.62593 0.0
C1959 C 0.12296 0.32577 0.61432 0.0
C1960 C 0.12895 0.34952 0.57056 0.0
C1961 C 0.1289 0.36644 0.56683 0.0
C1962 C 0.11237 0.36581 0.55986 0.0
C1963 C 0.09561 0.34821 0.55651 0.0
C1964 C 0.09578 0.33128 0.56029 0.0
C1965 C 0.11233 0.33194 0.56724 0.0
C1966 C 0.1546 0.35051 0.54365 0.0
C1967 C 0.15989 0.36714 0.53406 0.0
C1968 C 0.1536 0.36583 0.5147 0.0
C1969 C 0.14194 0.34785 0.50468 0.0
C1970 C 0.13721 0.33125 0.51429 0.0
C1971 C 0.14345 0.33258 0.53361 0.0
C1972 C 0.18971 0.35349 0.55727 0.0
C1973 C 0.20414 0.37136 0.55294 0.0
C1974 C 0.21575 0.37257 0.53848 0.0
C1975 C 0.2132 0.35587 0.52846 0.0
C1976 C 0.19888 0.338 0.53306 0.0
C1977 C 0.18708 0.33684 0.54719 0.0
C1978 C 0.17934 0.34058 0.68475 0.0
C1979 C 0.07801 0.34746 0.54908 0.0
C1980 C 0.99146 0.39867 0.06456 0.0
C1981 C 0.00972 0.40153 0.06568 0.0
C1982 C 0.98566 0.40681 0.07895 0.0
C1983 C 0.99831 0.41765 0.09503 0.0
C1984 C 0.01661 0.42015 0.09647 0.0
C1985 C 0.02218 0.41227 0.08164 0.0
C1986 C 0.96619 0.4042 0.07672 0.0
C1987 C 0.03036 0.43126 0.11363 0.0
C1988 C 0.99304 0.455 0.12463 0.0
C1989 C 0.98479 0.44508 0.14058 0.0
C1990 C 0.99677 0.44595 0.10925 0.0
C1991 C 0.99261 0.42674 0.11023 0.0
C1992 C 0.98396 0.4166 0.12624 0.0
C1993 C 0.97997 0.42587 0.14118 0.0
C1994 C 0.00565 0.4571 0.09224 0.0
C1995 C 0.97969 0.39626 0.128 0.0
H1996 H 0.98186 0.39055 0.05212 0.0
H1997 H 0.03627 0.41441 0.08259 0.0
H1998 H 0.95848 0.3975 0.08934 0.0
H1999 H 0.96706 0.41836 0.07619 0.0
H2000 H 0.958 0.3952 0.06344 0.0
H2001 H 0.04369 0.43101 0.11303 0.0
H2002 H 0.03357 0.44635 0.11431 0.0
H2003 H 0.02412 0.42526 0.12717 0.0
H2004 H 0.99681 0.46991 0.12437 0.0
H2005 H 0.97384 0.4184 0.15376 0.0
H2006 H 0.99757 0.44892 0.07858 0.0
H2007 H 0.02003 0.45936 0.09177 0.0
H2008 H 0.00645 0.47128 0.09292 0.0
H2009 H 0.97098 0.38705 0.11506 0.0
H2010 H 0.97225 0.39016 0.14099 0.0
H2011 H 0.99293 0.39576 0.12883 0.0
C2012 C 0.58172 0.57666 0.09433 0.0
C2013 C 0.60122 0.58503 0.09526 0.0
C2014 C 0.57146 0.56484 0.10849 0.0
C2015 C 0.58099 0.56135 0.12394 0.0
C2016 C 0.60068 0.56933 0.12459 0.0
C2017 C 0.61061 0.58143 0.11043 0.0
C2018 C 0.55054 0.55689 0.10743 0.0
C2019 C 0.61131 0.56565 0.1406 0.0
C2020 C 0.55846 0.55069 0.17139 0.0
C2021 C 0.54959 0.53066 0.17059 0.0
C2022 C 0.56878 0.56082 0.15634 0.0
C2023 C 0.57054 0.55072 0.14021 0.0
C2024 C 0.56186 0.53055 0.13946 0.0
C2025 C 0.55144 0.52077 0.15459 0.0
C2026 C 0.57756 0.58233 0.15758 0.0
C2027 C 0.56357 0.51928 0.12269 0.0
H2028 H 0.57455 0.57982 0.08278 0.0
H2029 H 0.62577 0.58858 0.11157 0.0
H2030 H 0.54321 0.54117 0.10833 0.0
H2031 H 0.54694 0.56312 0.11988 0.0
H2032 H 0.54514 0.56006 0.09393 0.0
H2033 H 0.6264 0.5719 0.13831 0.0
H2034 H 0.61009 0.57186 0.15458 0.0
H2035 H 0.60519 0.55004 0.14171 0.0
H2036 H 0.55735 0.55849 0.18381 0.0
H2037 H 0.54442 0.50528 0.15368 0.0
H2038 H 0.57205 0.58672 0.14507 0.0
H2039 H 0.59293 0.58906 0.15696 0.0
H2040 H 0.57475 0.588 0.17103 0.0
H2041 H 0.55876 0.52265 0.10898 0.0
H2042 H 0.55538 0.5036 0.12389 0.0
H2043 H 0.57848 0.52344 0.12199 0.0
C2044 C 0.41875 0.02049 0.07677 0.0
C2045 C 0.41733 0.0092 0.06028 0.0
C2046 C 0.43017 0.02216 0.09325 0.0
C2047 C 0.44008 0.01195 0.09334 0.0
C2048 C 0.43937 0.00126 0.07635 0.0
C2049 C 0.42775 0.99977 0.06008 0.0
C2050 C 0.43087 0.03406 0.11089 0.0
C2051 C 0.45029 0.99078 0.07565 0.0
C2052 C 0.47589 0.02396 0.1361 0.0
C2053 C 0.46547 0.00961 0.14818 0.0
C2054 C 0.46815 0.02452 0.11784 0.0
C2055 C 0.44935 0.01072 0.11177 0.0
C2056 C 0.4389 0.996 0.12386 0.0
C2057 C 0.44714 0.99554 0.14183 0.0
C2058 C 0.48001 0.04039 0.10559 0.0
C2059 C 0.41877 0.98106 0.11807 0.0
H2060 H 0.41028 0.02736 0.07706 0.0
H2061 H 0.42647 0.9909 0.04733 0.0
H2062 H 0.42456 0.02469 0.12273 0.0
H2063 H 0.44563 0.04449 0.11592 0.0
H2064 H 0.42327 0.04202 0.10808 0.0
H2065 H 0.44977 0.98477 0.06085 0.0
H2066 H 0.46514 0.00058 0.08095 0.0
H2067 H 0.44452 0.97891 0.08529 0.0
H2068 H 0.4901 0.03482 0.14099 0.0
H2069 H 0.439 0.98454 0.15127 0.0
H2070 H 0.47816 0.05283 0.1093 0.0
H2071 H 0.47602 0.03611 0.08999 0.0
H2072 H 0.4951 0.04506 0.10855 0.0
H2073 H 0.41014 0.98807 0.11625 0.0
H2074 H 0.41274 0.97033 0.12889 0.0
H2075 H 0.41774 0.9735 0.104 0.0
C2076 C 0.41734 0.0189 0.96177 0.0
C2077 C 0.40777 0.00457 0.97424 0.0
C2078 C 0.4244 0.01521 0.94525 0.0
C2079 C 0.42215 0.9968 0.9412 0.0
C2080 C 0.41192 0.98206 0.95335 0.0
C2081 C 0.40471 0.98609 0.96967 0.0
C2082 C 0.43492 0.03126 0.93252 0.0
C2083 C 0.40939 0.96232 0.94965 0.0
C2084 C 0.43294 0.98672 0.89096 0.0
C2085 C 0.45191 0.9921 0.89411 0.0
C2086 C 0.42281 0.98753 0.90626 0.0
C2087 C 0.43183 0.99361 0.92515 0.0
C2088 C 0.45075 0.9982 0.92849 0.0
C2089 C 0.46058 0.99752 0.91292 0.0
C2090 C 0.40273 0.98272 0.90206 0.0
C2091 C 0.46084 0.00446 0.94843 0.0
H2092 H 0.41959 0.03317 0.9651 0.0
H2093 H 0.39742 0.97498 0.9793 0.0
H2094 H 0.4499 0.03521 0.93347 0.0
H2095 H 0.42936 0.02656 0.91724 0.0
H2096 H 0.434 0.0442 0.93667 0.0
H2097 H 0.39965 0.95201 0.95932 0.0
H2098 H 0.40399 0.95682 0.93447 0.0
H2099 H 0.42315 0.96301 0.95195 0.0
H2100 H 0.42623 0.9826 0.87641 0.0
H2101 H 0.47519 0.00144 0.91542 0.0
H2102 H 0.40168 0.99585 0.90443 0.0
H2103 H 0.39365 0.97235 0.91206 0.0
H2104 H 0.39726 0.97663 0.887 0.0
H2105 H 0.46237 0.01846 0.95337 0.0
H2106 H 0.47498 0.00591 0.94887 0.0
H2107 H 0.45257 0.99405 0.95882 0.0
C2108 C 0.03099 0.40572 0.97064 0.0
C2109 C 0.01931 0.40377 0.98525 0.0
C2110 C 0.03325 0.41795 0.95598 0.0
C2111 C 0.02323 0.42805 0.95579 0.0
C2112 C 0.01195 0.4266 0.97098 0.0
C2113 C 0.00997 0.41429 0.98543 0.0
C2114 C 0.04558 0.41927 0.94018 0.0
C2115 C 0.00114 0.43723 0.97144 0.0
C2116 C 0.0342 0.46811 0.92288 0.0
C2117 C 0.01993 0.45874 0.90799 0.0
C2118 C 0.03575 0.45824 0.93835 0.0
C2119 C 0.02286 0.4385 0.9388 0.0
C2120 C 0.00875 0.42885 0.92345 0.0
C2121 C 0.00739 0.43913 0.90827 0.0
C2122 C 0.05076 0.4691 0.95449 0.0
C2123 C 0.99479 0.40778 0.9233 0.0
H2124 H 0.03775 0.39709 0.97027 0.0
H2125 H 0.00072 0.41249 0.99664 0.0
H2126 H 0.03677 0.41245 0.92647 0.0
H2127 H 0.05534 0.43445 0.93786 0.0
H2128 H 0.05387 0.41213 0.9435 0.0
H2129 H 0.99457 0.43607 0.9852 0.0
H2130 H 0.01047 0.45257 0.9694 0.0
H2131 H 0.98994 0.43134 0.95941 0.0
H2132 H 0.04377 0.48333 0.92277 0.0
H2133 H 0.99644 0.43186 0.89664 0.0
H2134 H 0.05883 0.46168 0.95726 0.0
H2135 H 0.04416 0.46948 0.96784 0.0
H2136 H 0.06059 0.48402 0.95129 0.0
H2137 H 0.00221 0.39951 0.92493 0.0
H2138 H 0.98532 0.40223 0.90981 0.0
H2139 H 0.98613 0.40516 0.93569 0.0
C2140 C 0.5943 0.60426 0.00414 0.0
C2141 C 0.59946 0.59159 0.01202 0.0
C2142 C 0.5839 0.59969 0.98618 0.0
C2143 C 0.57851 0.58202 0.97586 0.0
C2144 C 0.58322 0.56896 0.98393 0.0
C2145 C 0.59364 0.5739 0.00188 0.0
C2146 C 0.57912 0.61397 0.97801 0.0
C2147 C 0.57766 0.54993 0.97339 0.0
C2148 C 0.54045 0.56198 0.93436 0.0
C2149 C 0.55113 0.56635 0.91841 0.0
C2150 C 0.54915 0.56746 0.95322 0.0
C2151 C 0.56895 0.57759 0.9561 0.0
C2152 C 0.57976 0.58262 0.94 0.0
C2153 C 0.57071 0.57693 0.92136 0.0
C2154 C 0.53718 0.56184 0.97005 0.0
C2155 C 0.6009 0.59356 0.94245 0.0
H2156 H 0.59865 0.61794 0.01185 0.0
H2157 H 0.59738 0.56391 0.00786 0.0
H2158 H 0.58634 0.6191 0.96471 0.0
H2159 H 0.56386 0.60709 0.97394 0.0
H2160 H 0.58329 0.62652 0.98837 0.0
H2161 H 0.58153 0.54097 0.98209 0.0
H2162 H 0.56233 0.54191 0.96948 0.0
H2163 H 0.58462 0.5523 0.95976 0.0
H2164 H 0.52531 0.55372 0.93212 0.0
H2165 H 0.57899 0.5806 0.90903 0.0
H2166 H 0.54128 0.57453 0.98014 0.0
H2167 H 0.53944 0.55148 0.97816 0.0
H2168 H 0.52203 0.55522 0.96539 0.0
H2169 H 0.6059 0.60695 0.95173 0.0
H2170 H 0.6072 0.59724 0.92845 0.0
H2171 H 0.60609 0.58487 0.94974 0.0
C2172 C 0.01993 0.6167 0.99739 0.0
C2173 C 0.00777 0.60822 0.01172 0.0
C2174 C 0.02239 0.60546 0.9832 0.0
C2175 C 0.01199 0.58527 0.98307 0.0
C2176 C 1.0001 0.57669 0.99791 0.0
C2177 C 0.99801 0.5883 0.01198 0.0
C2178 C 0.03535 0.61519 0.96776 0.0
C2179 C 0.98873 0.55524 0.9983 0.0
C2180 C 0.99879 0.5582 0.93382 0.0
C2181 C 0.01172 0.55169 0.93321 0.0
C2182 C 0.99863 0.56892 0.95007 0.0
C2183 C 0.01171 0.57323 0.96615 0.0
C2184 C 0.02456 0.56638 0.96574 0.0
C2185 C 0.02451 0.55579 0.9492 0.0
C2186 C 0.98466 0.57593 0.94988 0.0
C2187 C 0.03855 0.57047 0.98262 0.0
H2188 H 0.02697 0.6321 0.99685 0.0
H2189 H 0.98836 0.5818 0.02294 0.0
H2190 H 0.0451 0.60954 0.96624 0.0
H2191 H 0.02705 0.61211 0.95369 0.0
H2192 H 0.04368 0.63094 0.97093 0.0
H2193 H 0.98202 0.55091 0.01201 0.0
H2194 H 0.9776 0.54935 0.98621 0.0
H2195 H 0.99767 0.54868 0.9963 0.0
H2196 H 0.98909 0.55533 0.92134 0.0
H2197 H 0.03446 0.55069 0.94877 0.0
H2198 H 0.99216 0.59179 0.95126 0.0
H2199 H 0.97609 0.57094 0.96236 0.0
H2200 H 0.97512 0.57088 0.93644 0.0
H2201 H 0.04836 0.58606 0.98466 0.0
H2202 H 0.04677 0.56309 0.98055 0.0
H2203 H 0.03128 0.56597 0.99598 0.0
C2204 C 0.40262 0.42866 0.96231 0.0
C2205 C 0.4062 0.41341 0.96371 0.0
C2206 C 0.41059 0.44192 0.94836 0.0
C2207 C 0.42218 0.43971 0.93538 0.0
C2208 C 0.42507 0.42383 0.93616 0.0
C2209 C 0.41716 0.41098 0.95036 0.0
C2210 C 0.4073 0.45874 0.94806 0.0
C2211 C 0.43709 0.42076 0.92241 0.0
C2212 C 0.43526 0.46575 0.8895 0.0
C2213 C 0.45387 0.4799 0.8947 0.0
C2214 C 0.42444 0.45297 0.90281 0.0
C2215 C 0.4324 0.45456 0.9218 0.0
C2216 C 0.45089 0.46944 0.92735 0.0
C2217 C 0.46144 0.48184 0.9137 0.0
C2218 C 0.40486 0.43721 0.89627 0.0
C2219 C 0.45982 0.47181 0.94752 0.0
H2220 H 0.39424 0.43069 0.97263 0.0
H2221 H 0.41984 0.39913 0.95121 0.0
H2222 H 0.42062 0.47212 0.95246 0.0
H2223 H 0.40263 0.46008 0.93326 0.0
H2224 H 0.39667 0.45753 0.95793 0.0
H2225 H 0.43676 0.40694 0.92395 0.0
H2226 H 0.43234 0.42109 0.9073 0.0
H2227 H 0.45181 0.43249 0.92511 0.0
H2228 H 0.42943 0.46414 0.87477 0.0
H2229 H 0.47576 0.49293 0.9178 0.0
H2230 H 0.39485 0.43666 0.9066 0.0
H2231 H 0.40443 0.42322 0.89589 0.0
H2232 H 0.40008 0.43905 0.8817 0.0
H2233 H 0.45052 0.47211 0.95831 0.0
H2234 H 0.47363 0.4851 0.95002 0.0
H2235 H 0.46185 0.45942 0.95005 0.0
C2236 C 0.57597 0.00804 0.00529 0.0
C2237 C 0.58538 0.99758 0.00592 0.0
C2238 C 0.5652 0.00708 0.98855 0.0
C2239 C 0.56395 0.99546 0.97213 0.0
C2240 C 0.57275 0.98419 0.97306 0.0
C2241 C 0.58374 0.98575 0.98982 0.0
C2242 C 0.55604 0.01932 0.98807 0.0
C2243 C 0.57132 0.97122 0.95602 0.0
C2244 C 0.52916 0.98558 0.92916 0.0
C2245 C 0.54083 0.99807 0.91616 0.0
C2246 C 0.53632 0.9848 0.94763 0.0
C2247 C 0.55558 0.9969 0.95329 0.0
C2248 C 0.5673 0.01001 0.94051 0.0
C2249 C 0.55984 0.01027 0.92206 0.0
C2250 C 0.52334 0.97039 0.96059 0.0
C2251 C 0.58786 0.02348 0.94615 0.0
H2252 H 0.57759 0.01746 0.01769 0.0
H2253 H 0.59167 0.97829 0.99007 0.0
H2254 H 0.56286 0.03055 0.97789 0.0
H2255 H 0.54105 0.01054 0.98276 0.0
H2256 H 0.55706 0.02636 0.00248 0.0
H2257 H 0.57776 0.96233 0.9596 0.0
H2258 H 0.5564 0.96165 0.95082 0.0
H2259 H 0.57843 0.97989 0.94399 0.0
H2260 H 0.51439 0.97629 0.92488 0.0
H2261 H 0.56909 0.01975 0.91208 0.0
H2262 H 0.52708 0.97577 0.97598 0.0
H2263 H 0.52445 0.95728 0.95873 0.0
H2264 H 0.50852 0.9664 0.9568 0.0
H2265 H 0.58971 0.03163 0.96009 0.0
H2266 H 0.59469 0.0338 0.93513 0.0
H2267 H 0.59522 0.01518 0.94812 0.0
C2268 C 0.57381 0.98763 0.09723 0.0
C2269 C 0.59142 0.00057 0.09126 0.0
C2270 C 0.56758 0.99144 0.11427 0.0
C2271 C 0.57923 0.0086 0.12582 0.0
C2272 C 0.59703 0.02177 0.11999 0.0
C2273 C 0.60291 0.01763 0.10272 0.0
C2274 C 0.54843 0.97705 0.11989 0.0
C2275 C 0.60984 0.04018 0.132 0.0
C2276 C 0.55258 0.0224 0.15966 0.0
C2277 C 0.55436 0.01431 0.17654 0.0
C2278 C 0.5615 0.02161 0.14332 0.0
C2279 C 0.57249 0.01255 0.1439 0.0
C2280 C 0.57513 0.00526 0.16123 0.0
C2281 C 0.56598 0.00617 0.17733 0.0
C2282 C 0.55823 0.02945 0.1251 0.0
C2283 C 0.58685 0.99562 0.16247 0.0
H2284 H 0.56472 0.97444 0.0885 0.0
H2285 H 0.61654 0.02771 0.09828 0.0
H2286 H 0.54973 0.972 0.13416 0.0
H2287 H 0.53964 0.98388 0.12121 0.0
H2288 H 0.54106 0.96444 0.10925 0.0
H2289 H 0.62329 0.04886 0.12555 0.0
H2290 H 0.60284 0.04884 0.13363 0.0
H2291 H 0.61289 0.03702 0.14668 0.0
H2292 H 0.54347 0.02854 0.15889 0.0
H2293 H 0.5676 0.00015 0.19044 0.0
H2294 H 0.54939 0.01746 0.11418 0.0
H2295 H 0.57169 0.03864 0.11893 0.0
H2296 H 0.55112 0.03792 0.12762 0.0
H2297 H 0.57966 0.98183 0.1535 0.0
H2298 H 0.58928 0.99272 0.17749 0.0
H2299 H 0.60059 0.00459 0.15671 0.0
C2300 C 0.97956 0.59738 0.09237 0.0
C2301 C 0.99831 0.61174 0.09219 0.0
C2302 C 0.97404 0.5841 0.1065 0.0
C2303 C 0.98757 0.58544 0.12086 0.0
C2304 C 0.00623 0.60068 0.12144 0.0
C2305 C 0.0114 0.61355 0.10703 0.0
C2306 C 0.95403 0.56798 0.10536 0.0
C2307 C 0.02102 0.60282 0.1367 0.0
C2308 C 0.97458 0.55754 0.16554 0.0
C2309 C 0.97859 0.54296 0.16072 0.0
C2310 C 0.97675 0.57115 0.15244 0.0
C2311 C 0.98287 0.56996 0.13409 0.0
C2312 C 0.98608 0.55472 0.12888 0.0
C2313 C 0.98402 0.54148 0.14231 0.0
C2314 C 0.97336 0.58729 0.15857 0.0
C2315 C 0.99241 0.5528 0.10936 0.0
H2316 H 0.9694 0.59586 0.08088 0.0
H2317 H 0.02587 0.62478 0.10709 0.0
H2318 H 0.95351 0.55436 0.10083 0.0
H2319 H 0.94842 0.56635 0.11971 0.0
H2320 H 0.94479 0.57025 0.09489 0.0
H2321 H 0.03433 0.61652 0.13634 0.0
H2322 H 0.01597 0.60207 0.15125 0.0
H2323 H 0.02398 0.59089 0.13446 0.0
H2324 H 0.97049 0.55875 0.17984 0.0
H2325 H 0.98691 0.53006 0.13852 0.0
H2326 H 0.96418 0.58882 0.1474 0.0
H2327 H 0.98687 0.60094 0.16018 0.0
H2328 H 0.96685 0.5851 0.17248 0.0
H2329 H 0.98292 0.55327 0.09775 0.0
H2330 H 0.99279 0.53929 0.10701 0.0
H2331 H 0.00664 0.56498 0.10803 0.0
C2332 C 0.41366 0.39642 0.06218 0.0
C2333 C 0.41348 0.40843 0.04832 0.0
C2334 C 0.42491 0.40398 0.07959 0.0
C2335 C 0.43592 0.42406 0.08335 0.0
C2336 C 0.43649 0.4362 0.06894 0.0
C2337 C 0.42501 0.42823 0.05167 0.0
C2338 C 0.42423 0.39054 0.09438 0.0
C2339 C 0.4486 0.45762 0.07215 0.0
C2340 C 0.44231 0.44305 0.13552 0.0
C2341 C 0.4603 0.44643 0.14134 0.0
C2342 C 0.43437 0.43591 0.11664 0.0
C2343 C 0.44476 0.43233 0.10316 0.0
C2344 C 0.46312 0.43615 0.10888 0.0
C2345 C 0.47057 0.44291 0.12801 0.0
C2346 C 0.41468 0.43188 0.11124 0.0
C2347 C 0.47483 0.43264 0.09517 0.0
H2348 H 0.40436 0.38111 0.05973 0.0
H2349 H 0.42471 0.43747 0.04094 0.0
H2350 H 0.41777 0.39253 0.10722 0.0
H2351 H 0.41605 0.37532 0.08867 0.0
H2352 H 0.43862 0.39382 0.09922 0.0
H2353 H 0.44908 0.46488 0.0588 0.0
H2354 H 0.44307 0.46312 0.08343 0.0
H2355 H 0.46309 0.46146 0.07737 0.0
H2356 H 0.43428 0.44557 0.1459 0.0
H2357 H 0.48452 0.44559 0.1325 0.0
H2358 H 0.40554 0.4165 0.10655 0.0
H2359 H 0.4146 0.44017 0.09894 0.0
H2360 H 0.40855 0.43558 0.1234 0.0
H2361 H 0.47182 0.41768 0.0959 0.0
H2362 H 0.49002 0.44219 0.09926 0.0
H2363 H 0.47168 0.43476 0.0801 0.0
C2364 C 0.67762 0.74993 0.42039 0.0
C2365 C 0.66581 0.73787 0.40461 0.0
C2366 C 0.67073 0.75682 0.43479 0.0
C2367 C 0.65163 0.75184 0.43319 0.0
C2368 C 0.63961 0.73968 0.41731 0.0
C2369 C 0.64681 0.73269 0.40328 0.0
C2370 C 0.6839 0.76945 0.45172 0.0
C2371 C 0.61924 0.73433 0.41498 0.0
C2372 C 0.63144 0.75723 0.47918 0.0
C2373 C 0.63354 0.77549 0.47814 0.0
C2374 C 0.63692 0.74915 0.46444 0.0
C2375 C 0.64435 0.7595 0.44817 0.0
C2376 C 0.64583 0.77768 0.44675 0.0
C2377 C 0.64061 0.78558 0.46191 0.0
C2378 C 0.63548 0.72993 0.4667 0.0
C2379 C 0.65341 0.78899 0.42947 0.0
H2380 H 0.69229 0.75389 0.42156 0.0
H2381 H 0.63765 0.7235 0.39103 0.0
H2382 H 0.68491 0.7837 0.45208 0.0
H2383 H 0.67839 0.76317 0.46541 0.0
H2384 H 0.6982 0.77145 0.45113 0.0
H2385 H 0.61177 0.72477 0.40177 0.0
H2386 H 0.61208 0.72703 0.42766 0.0
H2387 H 0.61807 0.74743 0.41428 0.0
H2388 H 0.62626 0.7496 0.49193 0.0
H2389 H 0.64222 0.79972 0.46119 0.0
H2390 H 0.64969 0.73155 0.4675 0.0
H2391 H 0.62736 0.71994 0.45397 0.0
H2392 H 0.6287 0.72343 0.47987 0.0
H2393 H 0.66837 0.79318 0.42891 0.0
H2394 H 0.65223 0.80215 0.42987 0.0
H2395 H 0.64579 0.78008 0.41598 0.0
C2396 C 0.24772 0.90616 0.4306 0.0
C2397 C 0.26726 0.91492 0.43188 0.0
C2398 C 0.23738 0.89451 0.44484 0.0
C2399 C 0.24689 0.89192 0.46098 0.0
C2400 C 0.26665 0.90031 0.46202 0.0
C2401 C 0.27663 0.91191 0.44753 0.0
C2402 C 0.21635 0.88572 0.44305 0.0
C2403 C 0.27733 0.8978 0.47886 0.0
C2404 C 0.2224 0.88273 0.50731 0.0
C2405 C 0.21491 0.86297 0.50801 0.0
C2406 C 0.23321 0.89237 0.49231 0.0
C2407 C 0.2363 0.88192 0.4775 0.0
C2408 C 0.22872 0.86194 0.47822 0.0
C2409 C 0.21829 0.85273 0.49358 0.0
C2410 C 0.24112 0.91371 0.4922 0.0
C2411 C 0.2313 0.85021 0.46261 0.0
H2412 H 0.24054 0.90878 0.4186 0.0
H2413 H 0.2918 0.9192 0.4488 0.0
H2414 H 0.20955 0.87023 0.44518 0.0
H2415 H 0.2121 0.89247 0.45444 0.0
H2416 H 0.21099 0.88758 0.42879 0.0
H2417 H 0.29242 0.90389 0.47669 0.0
H2418 H 0.27604 0.90495 0.49217 0.0
H2419 H 0.27133 0.88241 0.4812 0.0
H2420 H 0.21984 0.89064 0.51856 0.0
H2421 H 0.2123 0.8374 0.49404 0.0
H2422 H 0.2352 0.91699 0.47917 0.0
H2423 H 0.25653 0.92094 0.49157 0.0
H2424 H 0.23801 0.91981 0.50514 0.0
H2425 H 0.22496 0.85133 0.44862 0.0
H2426 H 0.22487 0.83488 0.46547 0.0
H2427 H 0.24643 0.85593 0.4613 0.0
C2428 C 0.09663 0.32909 0.39528 0.0
C2429 C 0.08699 0.33926 0.39336 0.0
C2430 C 0.10784 0.33155 0.41227 0.0
C2431 C 0.10911 0.3442 0.42774 0.0
C2432 C 0.09999 0.35507 0.42548 0.0
C2433 C 0.08877 0.35221 0.40844 0.0
C2434 C 0.11771 0.32006 0.41399 0.0
C2435 C 0.10143 0.36911 0.4414 0.0
C2436 C 0.11508 0.33314 0.47921 0.0
C2437 C 0.13396 0.34637 0.48461 0.0
C2438 C 0.10704 0.33202 0.4606 0.0
C2439 C 0.1181 0.34449 0.44699 0.0
C2440 C 0.13729 0.35758 0.45222 0.0
C2441 C 0.14495 0.35843 0.47098 0.0
C2442 C 0.08656 0.31773 0.45565 0.0
C2443 C 0.14975 0.37133 0.43848 0.0
H2444 H 0.09503 0.3189 0.38367 0.0
H2445 H 0.08081 0.35959 0.40719 0.0
H2446 H 0.13277 0.32966 0.41861 0.0
H2447 H 0.11165 0.30978 0.4252 0.0
H2448 H 0.11649 0.31196 0.4002 0.0
H2449 H 0.09454 0.37737 0.43688 0.0
H2450 H 0.0948 0.36138 0.4541 0.0
H2451 H 0.11637 0.37928 0.44602 0.0
H2452 H 0.1064 0.32395 0.48973 0.0
H2453 H 0.1596 0.36859 0.47498 0.0
H2454 H 0.08481 0.30853 0.44253 0.0
H2455 H 0.07875 0.32539 0.45242 0.0
H2456 H 0.08015 0.30844 0.46753 0.0
H2457 H 0.14495 0.36593 0.42319 0.0
H2458 H 0.16442 0.37441 0.44122 0.0
H2459 H 0.14975 0.385 0.44096 0.0
C2460 C 0.08425 0.34258 0.29205 0.0
C2461 C 0.07755 0.32994 0.30661 0.0
C2462 C 0.09051 0.3379 0.27545 0.0
C2463 C 0.0906 0.32039 0.27362 0.0
C2464 C 0.0834 0.30734 0.28808 0.0
C2465 C 0.07671 0.31218 0.30433 0.0
C2466 C 0.09763 0.35203 0.26017 0.0
C2467 C 0.08364 0.28873 0.28687 0.0
C2468 C 0.09819 0.30529 0.2239 0.0
C2469 C 0.1177 0.31341 0.22522 0.0
C2470 C 0.08902 0.30694 0.23973 0.0
C2471 C 0.09963 0.31661 0.25731 0.0
C2472 C 0.11926 0.32405 0.2589 0.0
C2473 C 0.12807 0.32252 0.24278 0.0
C2474 C 0.06812 0.29907 0.23737 0.0
C2475 C 0.13107 0.33413 0.27747 0.0
H2476 H 0.08476 0.35627 0.29374 0.0
H2477 H 0.07167 0.30247 0.31569 0.0
H2478 H 0.11295 0.35798 0.25977 0.0
H2479 H 0.09094 0.34478 0.24574 0.0
H2480 H 0.0949 0.36408 0.26285 0.0
H2481 H 0.07617 0.27948 0.29845 0.0
H2482 H 0.07712 0.28073 0.27269 0.0
H2483 H 0.09835 0.29174 0.28812 0.0
H2484 H 0.0902 0.2983 0.21028 0.0
H2485 H 0.14315 0.32858 0.24385 0.0
H2486 H 0.0651 0.31104 0.23838 0.0
H2487 H 0.0613 0.2898 0.24912 0.0
H2488 H 0.06172 0.29069 0.2233 0.0
H2489 H 0.13098 0.3477 0.28056 0.0
H2490 H 0.14582 0.3375 0.27686 0.0
H2491 H 0.12514 0.32518 0.28969 0.0
C2492 C 0.67307 0.75205 0.3213 0.0
C2493 C 0.68295 0.7423 0.32457 0.0
C2494 C 0.67696 0.76408 0.30618 0.0
C2495 C 0.69105 0.76634 0.29403 0.0
C2496 C 0.70144 0.75691 0.29765 0.0
C2497 C 0.69699 0.74469 0.31268 0.0
C2498 C 0.66541 0.77369 0.30269 0.0
C2499 C 0.71677 0.7592 0.28523 0.0
C2500 C 0.68559 0.7788 0.24298 0.0
C2501 C 0.69769 0.79864 0.24438 0.0
C2502 C 0.68354 0.76808 0.25896 0.0
C2503 C 0.6939 0.77742 0.27674 0.0
C2504 C 0.70634 0.79738 0.27811 0.0
C2505 C 0.70809 0.80775 0.26194 0.0
C2506 C 0.66996 0.74683 0.25694 0.0
C2507 C 0.71765 0.80786 0.2967 0.0
H2508 H 0.66194 0.74985 0.33031 0.0
H2509 H 0.70408 0.7365 0.31474 0.0
H2510 H 0.67467 0.78931 0.30208 0.0
H2511 H 0.65707 0.76809 0.28855 0.0
H2512 H 0.65569 0.77128 0.31406 0.0
H2513 H 0.72427 0.75184 0.29071 0.0
H2514 H 0.71074 0.75327 0.27028 0.0
H2515 H 0.72705 0.77459 0.2846 0.0
H2516 H 0.67764 0.77167 0.22939 0.0
H2517 H 0.71725 0.82312 0.26321 0.0
H2518 H 0.65888 0.74327 0.26697 0.0
H2519 H 0.67731 0.73889 0.2609 0.0
H2520 H 0.66319 0.74171 0.24204 0.0
H2521 H 0.70824 0.80543 0.30836 0.0
H2522 H 0.72637 0.8235 0.29555 0.0
H2523 H 0.72697 0.80214 0.30088 0.0
C2524 C 0.25571 0.90091 0.33866 0.0
C2525 C 0.26206 0.91878 0.34867 0.0
C2526 C 0.24501 0.896 0.32087 0.0
C2527 C 0.24056 0.90926 0.31284 0.0
C2528 C 0.2464 0.92706 0.3231 0.0
C2529 C 0.25706 0.9316 0.3409 0.0
C2530 C 0.23895 0.87682 0.31039 0.0
C2531 C 0.24192 0.94158 0.315 0.0
C2532 C 0.2326 0.90517 0.25835 0.0
C2533 C 0.213 0.89547 0.25544 0.0
C2534 C 0.2417 0.91002 0.27696 0.0
C2535 C 0.23095 0.90501 0.29311 0.0
C2536 C 0.21116 0.89555 0.2903 0.0
C2537 C 0.2024 0.89093 0.27147 0.0
C2538 C 0.26284 0.92027 0.27934 0.0
C2539 C 0.19925 0.88996 0.30718 0.0
H2540 H 0.25932 0.89081 0.34457 0.0
H2541 H 0.26181 0.94542 0.34849 0.0
H2542 H 0.22363 0.86916 0.30644 0.0
H2543 H 0.24592 0.87894 0.29679 0.0
H2544 H 0.24245 0.86763 0.31916 0.0
H2545 H 0.24633 0.95418 0.32537 0.0
H2546 H 0.24915 0.94661 0.30168 0.0
H2547 H 0.22667 0.93495 0.31097 0.0
H2548 H 0.24084 0.90899 0.24599 0.0
H2549 H 0.18724 0.88334 0.26926 0.0
H2550 H 0.26761 0.9113 0.28673 0.0
H2551 H 0.26827 0.93381 0.28851 0.0
H2552 H 0.26913 0.92363 0.26531 0.0
H2553 H 0.20151 0.87962 0.31531 0.0
H2554 H 0.18408 0.88338 0.30258 0.0
H2555 H 0.20342 0.90269 0.31724 0.0
C2556 C 0.67162 0.9185 0.3456 0.0
C2557 C 0.68031 0.93847 0.3468 0.0
C2558 C 0.67596 0.90864 0.33156 0.0
C2559 C 0.68902 0.91904 0.31821 0.0
C2560 C 0.69826 0.93928 0.31982 0.0
C2561 C 0.69361 0.94875 0.33397 0.0
C2562 C 0.66584 0.88707 0.3304 0.0
C2563 C 0.71234 0.95092 0.30596 0.0
C2564 C 0.70757 0.89459 0.28512 0.0
C2565 C 0.69581 0.89046 0.26826 0.0
C2566 C 0.7053 0.9035 0.30169 0.0
C2567 C 0.69123 0.90877 0.30119 0.0
C2568 C 0.67929 0.90454 0.28414 0.0
C2569 C 0.68167 0.89536 0.26793 0.0
C2570 C 0.71807 0.90744 0.31961 0.0
C2571 C 0.66416 0.90998 0.28291 0.0
H2572 H 0.66113 0.91059 0.3554 0.0
H2573 H 0.69987 0.96417 0.33456 0.0
H2574 H 0.65587 0.88134 0.31731 0.0
H2575 H 0.6759 0.88176 0.32913 0.0
H2576 H 0.65791 0.88127 0.34319 0.0
H2577 H 0.71949 0.9665 0.31025 0.0
H2578 H 0.72308 0.94649 0.30513 0.0
H2579 H 0.70518 0.94833 0.2913 0.0
H2580 H 0.71847 0.89075 0.28535 0.0
H2581 H 0.67275 0.89241 0.25476 0.0
H2582 H 0.70967 0.90141 0.33202 0.0
H2583 H 0.72677 0.92308 0.32287 0.0
H2584 H 0.72748 0.90135 0.31807 0.0
H2585 H 0.6559 0.90541 0.26866 0.0
H2586 H 0.67052 0.92571 0.28546 0.0
H2587 H 0.65446 0.90338 0.29427 0.0
C2588 C 0.06504 0.75526 0.29215 0.0
C2589 C 0.07734 0.75186 0.30386 0.0
C2590 C 0.07153 0.76744 0.27705 0.0
C2591 C 0.09079 0.77665 0.27384 0.0
C2592 C 0.10331 0.77369 0.28599 0.0
C2593 C 0.09642 0.76124 0.30068 0.0
C2594 C 0.05774 0.77007 0.26423 0.0
C2595 C 0.124 0.78345 0.28329 0.0
C2596 C 0.10919 0.79246 0.22527 0.0
C2597 C 0.11679 0.81231 0.22791 0.0
C2598 C 0.09966 0.78055 0.23969 0.0
C2599 C 0.09797 0.78873 0.25732 0.0
C2600 C 0.105 0.80872 0.25977 0.0
C2601 C 0.11422 0.82027 0.24494 0.0
C2602 C 0.09213 0.75929 0.23638 0.0
C2603 C 0.1037 0.81803 0.27842 0.0
H2604 H 0.05028 0.74803 0.29445 0.0
H2605 H 0.1061 0.75884 0.30969 0.0
H2606 H 0.06235 0.78549 0.26375 0.0
H2607 H 0.05718 0.7644 0.24928 0.0
H2608 H 0.04341 0.76264 0.26916 0.0
H2609 H 0.13201 0.78052 0.29468 0.0
H2610 H 0.1262 0.77849 0.26908 0.0
H2611 H 0.12984 0.79914 0.28339 0.0
H2612 H 0.11097 0.78628 0.21198 0.0
H2613 H 0.12018 0.83564 0.24703 0.0
H2614 H 0.07742 0.75127 0.24013 0.0
H2615 H 0.10045 0.755 0.24588 0.0
H2616 H 0.09271 0.75498 0.22119 0.0
H2617 H 0.0892 0.81049 0.28282 0.0
H2618 H 0.10806 0.83335 0.27731 0.0
H2619 H 0.11287 0.81701 0.29002 0.0
C2620 C 0.24769 0.31565 0.32541 0.0
C2621 C 0.24827 0.32808 0.34037 0.0
C2622 C 0.23642 0.31199 0.30824 0.0
C2623 C 0.22596 0.32148 0.30582 0.0
C2624 C 0.22589 0.33344 0.32125 0.0
C2625 C 0.23726 0.33679 0.33833 0.0
C2626 C 0.23649 0.29876 0.29233 0.0
C2627 C 0.21446 0.34333 0.31934 0.0
C2628 C 0.22052 0.33298 0.25455 0.0
C2629 C 0.2023 0.31853 0.24834 0.0
C2630 C 0.22812 0.33432 0.2734 0.0
C2631 C 0.21723 0.32089 0.28639 0.0
C2632 C 0.19864 0.30656 0.28035 0.0
C2633 C 0.19144 0.30546 0.26133 0.0
C2634 C 0.24802 0.34985 0.27923 0.0
C2635 C 0.18645 0.29184 0.2935 0.0
H2636 H 0.25665 0.30938 0.32682 0.0
H2637 H 0.23791 0.34655 0.34991 0.0
H2638 H 0.22191 0.2878 0.28725 0.0
H2639 H 0.24309 0.30702 0.27988 0.0
H2640 H 0.24424 0.2914 0.29705 0.0
H2641 H 0.21445 0.35058 0.33324 0.0
H2642 H 0.22023 0.35416 0.30859 0.0
H2643 H 0.19979 0.33284 0.31404 0.0
H2644 H 0.22905 0.34296 0.24449 0.0
H2645 H 0.17728 0.29435 0.25662 0.0
H2646 H 0.2568 0.34331 0.28283 0.0
H2647 H 0.24847 0.35842 0.29232 0.0
H2648 H 0.25431 0.35963 0.26765 0.0
H2649 H 0.18823 0.27914 0.29139 0.0
H2650 H 0.17142 0.28711 0.28989 0.0
H2651 H 0.19016 0.29723 0.30889 0.0
C2652 C 0.27051 0.35523 0.43807 0.0
C2653 C 0.25746 0.33905 0.42626 0.0
C2654 C 0.26554 0.36049 0.45535 0.0
C2655 C 0.24704 0.34947 0.46072 0.0
C2656 C 0.23372 0.33344 0.44859 0.0
C2657 C 0.23913 0.32834 0.43165 0.0
C2658 C 0.28016 0.37751 0.46808 0.0
C2659 C 0.21375 0.32148 0.45361 0.0
C2660 C 0.23341 0.34577 0.51199 0.0
C2661 C 0.22462 0.35685 0.51244 0.0
C2662 C 0.24205 0.3444 0.49568 0.0
C2663 C 0.24151 0.35402 0.47931 0.0
C2664 C 0.23348 0.36603 0.48008 0.0
C2665 C 0.22523 0.36741 0.49674 0.0
C2666 C 0.25075 0.33172 0.49556 0.0
C2667 C 0.23241 0.37633 0.46286 0.0
H2668 H 0.28472 0.36354 0.43405 0.0
H2669 H 0.2289 0.31589 0.42258 0.0
H2670 H 0.27516 0.38777 0.47111 0.0
H2671 H 0.28261 0.37276 0.48213 0.0
H2672 H 0.2937 0.38506 0.46148 0.0
H2673 H 0.20488 0.3101 0.44211 0.0
H2674 H 0.2135 0.31463 0.46717 0.0
H2675 H 0.20743 0.33068 0.4561 0.0
H2676 H 0.23305 0.33775 0.52424 0.0
H2677 H 0.21829 0.37587 0.49707 0.0
H2678 H 0.26474 0.33914 0.4899 0.0
H2679 H 0.24185 0.31863 0.48588 0.0
H2680 H 0.25225 0.32734 0.51016 0.0
H2681 H 0.24617 0.38381 0.45672 0.0
H2682 H 0.22791 0.38691 0.46655 0.0
H2683 H 0.22221 0.36576 0.45145 0.0
C2684 C 0.64561 0.92922 0.43185 0.0
C2685 C 0.66368 0.93521 0.42621 0.0
C2686 C 0.63856 0.91692 0.44674 0.0
C2687 C 0.64979 0.91036 0.45608 0.0
C2688 C 0.668 0.91633 0.45045 0.0
C2689 C 0.67473 0.92872 0.43568 0.0
C2690 C 0.61912 0.91093 0.45247 0.0
C2691 C 0.68037 0.90954 0.45996 0.0
C2692 C 0.64212 0.89195 0.5059 0.0
C2693 C 0.63365 0.87216 0.50153 0.0
C2694 C 0.64659 0.90453 0.49121 0.0
C2695 C 0.64264 0.89713 0.4717 0.0
C2696 C 0.6334 0.87711 0.46722 0.0
C2697 C 0.62896 0.86485 0.4822 0.0
C2698 C 0.65627 0.92578 0.49658 0.0
C2699 C 0.62907 0.86867 0.4466 0.0
H2700 H 0.63696 0.93418 0.42468 0.0
H2701 H 0.68867 0.93315 0.43144 0.0
H2702 H 0.61025 0.89515 0.45038 0.0
H2703 H 0.61975 0.91503 0.468 0.0
H2704 H 0.61228 0.91752 0.444 0.0
H2705 H 0.69415 0.91544 0.4538 0.0
H2706 H 0.68283 0.9138 0.47564 0.0
H2707 H 0.67331 0.8937 0.45825 0.0
H2708 H 0.64555 0.89761 0.52085 0.0
H2709 H 0.62258 0.84957 0.47877 0.0
H2710 H 0.64911 0.93233 0.4886 0.0
H2711 H 0.67087 0.9326 0.49243 0.0
H2712 H 0.65664 0.9291 0.51228 0.0
H2713 H 0.62163 0.87457 0.43802 0.0
H2714 H 0.62037 0.85283 0.44552 0.0
H2715 H 0.64234 0.87262 0.43998 0.0
C2716 C 0.08059 0.73108 0.40029 0.0
C2717 C 0.07861 0.74258 0.38693 0.0
C2718 C 0.09116 0.73909 0.41802 0.0
C2719 C 0.09923 0.75898 0.42279 0.0
C2720 C 0.09751 0.77071 0.40916 0.0
C2721 C 0.08715 0.76233 0.39138 0.0
C2722 C 0.09295 0.72615 0.43201 0.0
C2723 C 0.10564 0.79191 0.41379 0.0
C2724 C 0.10341 0.77361 0.47602 0.0
C2725 C 0.12261 0.78123 0.48109 0.0
C2726 C 0.09575 0.76666 0.45704 0.0
C2727 C 0.10752 0.76707 0.44276 0.0
C2728 C 0.12693 0.77487 0.44771 0.0
C2729 C 0.13425 0.78187 0.46682 0.0
C2730 C 0.07501 0.75872 0.45231 0.0
C2731 C 0.1399 0.77548 0.43296 0.0
H2732 H 0.0733 0.71571 0.39715 0.0
H2733 H 0.08525 0.77114 0.38115 0.0
H2734 H 0.10789 0.73176 0.43695 0.0
H2735 H 0.08551 0.72579 0.44492 0.0
H2736 H 0.08705 0.71128 0.42554 0.0
H2737 H 0.10459 0.79927 0.40103 0.0
H2738 H 0.09804 0.79431 0.4253 0.0
H2739 H 0.12056 0.7986 0.41934 0.0
H2740 H 0.09426 0.77278 0.487 0.0
H2741 H 0.14914 0.78794 0.47057 0.0
H2742 H 0.06827 0.74333 0.44739 0.0
H2743 H 0.07263 0.76616 0.44035 0.0
H2744 H 0.06797 0.76024 0.46488 0.0
H2745 H 0.13641 0.76068 0.42853 0.0
H2746 H 0.15485 0.78365 0.43863 0.0
H2747 H 0.13797 0.78196 0.41992 0.0
C2748 C 0.32065 0.06319 0.73821 0.0
C2749 C 0.33884 0.07507 0.73289 0.0
C2750 C 0.31357 0.06903 0.75334 0.0
C2751 C 0.32494 0.08716 0.76338 0.0
C2752 C 0.34317 0.09934 0.75791 0.0
C2753 C 0.3499 0.09315 0.74276 0.0
C2754 C 0.29406 0.05567 0.7588 0.0
C2755 C 0.35571 0.11879 0.7683 0.0
C2756 C 0.30453 0.11089 0.79456 0.0
C2757 C 0.30928 0.10755 0.81305 0.0
C2758 C 0.30898 0.10379 0.77812 0.0
C2759 C 0.31828 0.09307 0.78033 0.0
C2760 C 0.32233 0.08897 0.79895 0.0
C2761 C 0.31777 0.09626 0.81508 0.0
C2762 C 0.30441 0.10838 0.75846 0.0
C2763 C 0.33209 0.07747 0.80191 0.0
H2764 H 0.31194 0.04923 0.73065 0.0
H2765 H 0.36391 0.10252 0.73871 0.0
H2766 H 0.29476 0.05155 0.77369 0.0
H2767 H 0.28565 0.063 0.75865 0.0
H2768 H 0.28666 0.04246 0.74893 0.0
H2769 H 0.36921 0.12685 0.76175 0.0
H2770 H 0.34854 0.12738 0.76816 0.0
H2771 H 0.35873 0.11718 0.78361 0.0
H2772 H 0.298 0.11966 0.793 0.0
H2773 H 0.32113 0.09338 0.82938 0.0
H2774 H 0.29677 0.09515 0.74869 0.0
H2775 H 0.31758 0.11799 0.752 0.0
H2776 H 0.2958 0.11548 0.75909 0.0
H2777 H 0.32451 0.06364 0.79305 0.0
H2778 H 0.33315 0.07454 0.81723 0.0
H2779 H 0.34644 0.08535 0.79711 0.0
C2780 C 0.94145 0.24417 0.77504 0.0
C2781 C 0.93245 0.24671 0.75876 0.0
C2782 C 0.93108 0.23212 0.78903 0.0
C2783 C 0.91126 0.22279 0.78684 0.0
C2784 C 0.90214 0.22491 0.77007 0.0
C2785 C 0.91288 0.23702 0.75632 0.0
C2786 C 0.94135 0.23011 0.80657 0.0
C2787 C 0.88106 0.21512 0.76708 0.0
C2788 C 0.88331 0.18288 0.8189 0.0
C2789 C 0.87902 0.19253 0.83313 0.0
C2790 C 0.89362 0.19247 0.80363 0.0
C2791 C 0.90013 0.21226 0.80281 0.0
C2792 C 0.89585 0.22208 0.81724 0.0
C2793 C 0.8852 0.21204 0.83215 0.0
C2794 C 0.89748 0.1814 0.78838 0.0
C2795 C 0.90257 0.24319 0.81695 0.0
H2796 H 0.95661 0.2522 0.77719 0.0
H2797 H 0.90597 0.23927 0.74382 0.0
H2798 H 0.93885 0.23668 0.81957 0.0
H2799 H 0.93599 0.21478 0.80879 0.0
H2800 H 0.95669 0.23707 0.80535 0.0
H2801 H 0.87617 0.21668 0.75245 0.0
H2802 H 0.87479 0.19967 0.76926 0.0
H2803 H 0.87575 0.22135 0.77788 0.0
H2804 H 0.87833 0.16772 0.81957 0.0
H2805 H 0.88191 0.21949 0.84324 0.0
H2806 H 0.91278 0.18747 0.7882 0.0
H2807 H 0.892 0.18278 0.77401 0.0
H2808 H 0.89107 0.16598 0.79085 0.0
H2809 H 0.91807 0.25131 0.81728 0.0
H2810 H 0.89821 0.24873 0.82935 0.0
H2811 H 0.89696 0.24603 0.80341 0.0
C2812 C 0.76758 0.67394 0.72406 0.0
C2813 C 0.75351 0.67889 0.72345 0.0
C2814 C 0.77944 0.67797 0.74094 0.0
C2815 C 0.77619 0.68582 0.75791 0.0
C2816 C 0.76227 0.69131 0.7571 0.0
C2817 C 0.75129 0.68803 0.73977 0.0
C2818 C 0.79505 0.67329 0.74074 0.0
C2819 C 0.75809 0.69948 0.77482 0.0
C2820 C 0.78605 0.67006 0.80567 0.0
C2821 C 0.80048 0.68729 0.81505 0.0
C2822 C 0.77809 0.66944 0.78716 0.0
C2823 C 0.78559 0.68611 0.77693 0.0
C2824 C 0.80118 0.7031 0.78549 0.0
C2825 C 0.80797 0.7037 0.80459 0.0
C2826 C 0.76115 0.65104 0.77886 0.0
C2827 C 0.81053 0.72088 0.77475 0.0
H2828 H 0.76923 0.66685 0.71137 0.0
H2829 H 0.74019 0.6916 0.73926 0.0
H2830 H 0.80792 0.68473 0.74899 0.0
H2831 H 0.7909 0.65979 0.74767 0.0
H2832 H 0.79836 0.67149 0.72581 0.0
H2833 H 0.74668 0.70281 0.77175 0.0
H2834 H 0.75398 0.68914 0.78612 0.0
H2835 H 0.77079 0.71278 0.78077 0.0
H2836 H 0.78058 0.65692 0.81281 0.0
H2837 H 0.81893 0.71727 0.81127 0.0
H2838 H 0.76444 0.64562 0.76561 0.0
H2839 H 0.74944 0.65368 0.77478 0.0
H2840 H 0.7563 0.63971 0.78916 0.0
H2841 H 0.81068 0.71723 0.75927 0.0
H2842 H 0.82517 0.73059 0.78082 0.0
H2843 H 0.80272 0.72876 0.77598 0.0
C2844 C 0.73414 0.65055 0.6271 0.0
C2845 C 0.74499 0.66854 0.63725 0.0
C2846 C 0.73991 0.64582 0.61005 0.0
C2847 C 0.75697 0.65934 0.60305 0.0
C2848 C 0.76801 0.67744 0.61328 0.0
C2849 C 0.76188 0.68182 0.63015 0.0
C2850 C 0.72773 0.62641 0.59948 0.0
C2851 C 0.78636 0.69223 0.60642 0.0
C2852 C 0.7832 0.64455 0.56936 0.0
C2853 C 0.77944 0.65023 0.55167 0.0
C2854 C 0.7754 0.64675 0.58606 0.0
C2855 C 0.76348 0.65475 0.58506 0.0
C2856 C 0.75909 0.65986 0.56709 0.0
C2857 C 0.76719 0.65762 0.55063 0.0
C2858 C 0.78057 0.64126 0.60494 0.0
C2859 C 0.74634 0.66832 0.56537 0.0
H2860 H 0.72107 0.64018 0.63239 0.0
H2861 H 0.77049 0.69573 0.63784 0.0
H2862 H 0.72363 0.62806 0.58456 0.0
H2863 H 0.73569 0.61866 0.5984 0.0
H2864 H 0.71483 0.61753 0.60674 0.0
H2865 H 0.79338 0.70557 0.61612 0.0
H2866 H 0.79599 0.68635 0.60546 0.0
H2867 H 0.78397 0.6959 0.59175 0.0
H2868 H 0.79283 0.63905 0.57033 0.0
H2869 H 0.76407 0.66183 0.53696 0.0
H2870 H 0.76778 0.63175 0.61201 0.0
H2871 H 0.78897 0.65428 0.61486 0.0
H2872 H 0.78883 0.6339 0.60304 0.0
H2873 H 0.73304 0.65914 0.57181 0.0
H2874 H 0.74307 0.67002 0.55014 0.0
H2875 H 0.7531 0.68255 0.57349 0.0
C2876 C 0.33784 0.08675 0.65041 0.0
C2877 C 0.34898 0.07815 0.6519 0.0
C2878 C 0.3395 0.09854 0.6355 0.0
C2879 C 0.3525 0.10158 0.62167 0.0
C2880 C 0.36412 0.09327 0.62344 0.0
C2881 C 0.362 0.08138 0.63839 0.0
C2882 C 0.32686 0.10713 0.63413 0.0
C2883 C 0.37832 0.09638 0.60916 0.0
C2884 C 0.34204 0.113 0.57168 0.0
C2885 C 0.35418 0.13279 0.57237 0.0
C2886 C 0.34141 0.10266 0.58763 0.0
C2887 C 0.35305 0.11241 0.60469 0.0
C2888 C 0.36507 0.13244 0.60547 0.0
C2889 C 0.3656 0.14236 0.58927 0.0
C2890 C 0.32832 0.08131 0.58622 0.0
C2891 C 0.3775 0.14342 0.62334 0.0
H2892 H 0.32754 0.08392 0.66072 0.0
H2893 H 0.3701 0.07412 0.63917 0.0
H2894 H 0.33525 0.1228 0.63314 0.0
H2895 H 0.31721 0.10103 0.62082 0.0
H2896 H 0.31837 0.10437 0.64671 0.0
H2897 H 0.38702 0.08984 0.61324 0.0
H2898 H 0.37105 0.0901 0.59466 0.0
H2899 H 0.38771 0.11191 0.60805 0.0
H2900 H 0.33325 0.1056 0.55856 0.0
H2901 H 0.3748 0.15771 0.58988 0.0
H2902 H 0.31841 0.07751 0.59759 0.0
H2903 H 0.33643 0.07383 0.58866 0.0
H2904 H 0.32014 0.07592 0.57196 0.0
H2905 H 0.3692 0.13999 0.63607 0.0
H2906 H 0.38473 0.15913 0.62224 0.0
H2907 H 0.38823 0.13908 0.6257 0.0
C2908 C 0.92664 0.2646 0.66801 0.0
C2909 C 0.93249 0.2525 0.676 0.0
C2910 C 0.91623 0.25962 0.65004 0.0
C2911 C 0.91152 0.2421 0.63981 0.0
C2912 C 0.91702 0.22964 0.64793 0.0
C2913 C 0.92745 0.23498 0.66591 0.0
C2914 C 0.91061 0.27328 0.64182 0.0
C2915 C 0.91222 0.21081 0.63745 0.0
C2916 C 0.87296 0.22168 0.5988 0.0
C2917 C 0.8834 0.22689 0.58267 0.0
C2918 C 0.8819 0.22671 0.61755 0.0
C2919 C 0.90171 0.23725 0.62015 0.0
C2920 C 0.91227 0.2429 0.60391 0.0
C2921 C 0.90299 0.23764 0.58538 0.0
C2922 C 0.87019 0.22043 0.63455 0.0
C2923 C 0.93341 0.25428 0.60609 0.0
H2924 H 0.93039 0.27814 0.67566 0.0
H2925 H 0.93176 0.22545 0.67197 0.0
H2926 H 0.91744 0.27838 0.62831 0.0
H2927 H 0.89526 0.26587 0.63809 0.0
H2928 H 0.91457 0.2859 0.652 0.0
H2929 H 0.91675 0.20233 0.64614 0.0
H2930 H 0.8969 0.20217 0.63368 0.0
H2931 H 0.91908 0.21344 0.62375 0.0
H2932 H 0.85782 0.21325 0.59673 0.0
H2933 H 0.91109 0.24196 0.57293 0.0
H2934 H 0.87362 0.233 0.64454 0.0
H2935 H 0.87346 0.21075 0.6427 0.0
H2936 H 0.85494 0.21286 0.63009 0.0
H2937 H 0.93818 0.26773 0.6152 0.0
H2938 H 0.93951 0.25793 0.592 0.0
H2939 H 0.93903 0.246 0.61347 0.0
C2940 C 0.3571 0.28138 0.66025 0.0
C2941 C 0.34383 0.27201 0.6734 0.0
C2942 C 0.35947 0.27106 0.645 0.0
C2943 C 0.3477 0.25097 0.6424 0.0
C2944 C 0.3344 0.24141 0.65584 0.0
C2945 C 0.33261 0.25209 0.67118 0.0
C2946 C 0.37403 0.28176 0.6312 0.0
C2947 C 0.32138 0.22007 0.65343 0.0
C2948 C 0.33827 0.23029 0.59049 0.0
C2949 C 0.34995 0.22222 0.58985 0.0
C2950 C 0.33706 0.23919 0.60763 0.0
C2951 C 0.34797 0.24031 0.62456 0.0
C2952 C 0.35947 0.23184 0.62414 0.0
C2953 C 0.36033 0.2229 0.6068 0.0
C2954 C 0.32434 0.24774 0.60751 0.0
C2955 C 0.37132 0.23271 0.6418 0.0
H2956 H 0.3652 0.29686 0.6615 0.0
H2957 H 0.32207 0.24492 0.68117 0.0
H2958 H 0.38318 0.27537 0.6297 0.0
H2959 H 0.36708 0.28054 0.61671 0.0
H2960 H 0.38291 0.29717 0.636 0.0
H2961 H 0.313 0.21463 0.66601 0.0
H2962 H 0.31162 0.21643 0.64034 0.0
H2963 H 0.3294 0.2125 0.65138 0.0
H2964 H 0.33041 0.2301 0.57742 0.0
H2965 H 0.36921 0.2165 0.6065 0.0
H2966 H 0.33281 0.26349 0.61048 0.0
H2967 H 0.31467 0.24215 0.61907 0.0
H2968 H 0.31591 0.24459 0.59349 0.0
H2969 H 0.37758 0.22338 0.63981 0.0
H2970 H 0.36295 0.22851 0.65447 0.0
H2971 H 0.3828 0.24763 0.64499 0.0
C2972 C 0.73585 0.0938 0.62673 0.0
C2973 C 0.73857 0.07804 0.62846 0.0
C2974 C 0.74425 0.10669 0.61256 0.0
C2975 C 0.75537 0.10356 0.59966 0.0
C2976 C 0.75749 0.08723 0.60086 0.0
C2977 C 0.74921 0.07479 0.61531 0.0
C2978 C 0.74183 0.12404 0.61186 0.0
C2979 C 0.76897 0.08317 0.58721 0.0
C2980 C 0.76799 0.12845 0.55305 0.0
C2981 C 0.78676 0.14242 0.55776 0.0
C2982 C 0.75738 0.116 0.56669 0.0
C2983 C 0.76569 0.11777 0.58555 0.0
C2984 C 0.78443 0.13236 0.59056 0.0
C2985 C 0.79477 0.14441 0.57657 0.0
C2986 C 0.73755 0.10048 0.5607 0.0
C2987 C 0.79373 0.13493 0.61058 0.0
H2988 H 0.72774 0.09647 0.63691 0.0
H2989 H 0.75123 0.06254 0.61641 0.0
H2990 H 0.75555 0.13717 0.61553 0.0
H2991 H 0.7368 0.12501 0.59709 0.0
H2992 H 0.73181 0.12379 0.62206 0.0
H2993 H 0.76816 0.06919 0.58919 0.0
H2994 H 0.76412 0.08321 0.57205 0.0
H2995 H 0.78386 0.09458 0.58953 0.0
H2996 H 0.76181 0.12681 0.53847 0.0
H2997 H 0.80922 0.15536 0.5803 0.0
H2998 H 0.72786 0.10084 0.57096 0.0
H2999 H 0.73661 0.08629 0.56106 0.0
H3000 H 0.73272 0.10185 0.54596 0.0
H3001 H 0.78495 0.13604 0.62153 0.0
H3002 H 0.80784 0.14787 0.61258 0.0
H3003 H 0.79519 0.12225 0.61336 0.0
C3004 C 0.90228 0.67683 0.66772 0.0
C3005 C 0.91123 0.66595 0.66914 0.0
C3006 C 0.89124 0.67517 0.65089 0.0
C3007 C 0.88949 0.66261 0.63509 0.0
C3008 C 0.898 0.65111 0.63681 0.0
C3009 C 0.90901 0.65316 0.65372 0.0
C3010 C 0.88205 0.68734 0.64971 0.0
C3011 C 0.89617 0.63728 0.62045 0.0
C3012 C 0.85398 0.6485 0.59185 0.0
C3013 C 0.86515 0.66045 0.57833 0.0
C3014 C 0.86138 0.64978 0.6108 0.0
C3015 C 0.88054 0.66289 0.61609 0.0
C3016 C 0.89169 0.67544 0.60258 0.0
C3017 C 0.8838 0.67416 0.58387 0.0
C3018 C 0.84881 0.63638 0.62468 0.0
C3019 C 0.91217 0.68967 0.60761 0.0
H3020 H 0.90423 0.6869 0.67963 0.0
H3021 H 0.91648 0.64524 0.65463 0.0
H3022 H 0.88862 0.69804 0.63898 0.0
H3023 H 0.86698 0.67835 0.64475 0.0
H3024 H 0.88332 0.69503 0.6638 0.0
H3025 H 0.90271 0.62859 0.62453 0.0
H3026 H 0.88117 0.62747 0.61577 0.0
H3027 H 0.90292 0.64526 0.60791 0.0
H3028 H 0.83949 0.638 0.58753 0.0
H3029 H 0.89242 0.68334 0.57331 0.0
H3030 H 0.85279 0.64289 0.6397 0.0
H3031 H 0.85003 0.6233 0.62385 0.0
H3032 H 0.83391 0.63206 0.62087 0.0
H3033 H 0.91857 0.69916 0.59585 0.0
H3034 H 0.91994 0.68193 0.61055 0.0
H3035 H 0.91396 0.69867 0.6209 0.0
C3036 C 0.93067 0.68643 0.76805 0.0
C3037 C 0.91692 0.67262 0.75452 0.0
C3038 C 0.92581 0.69118 0.78566 0.0
C3039 C 0.90675 0.68219 0.78956 0.0
C3040 C 0.89279 0.66878 0.77564 0.0
C3041 C 0.89806 0.66399 0.75842 0.0
C3042 C 0.94109 0.7053 0.80031 0.0
C3043 C 0.87226 0.65917 0.77907 0.0
C3044 C 0.89055 0.67522 0.83992 0.0
C3045 C 0.88531 0.68921 0.84222 0.0
C3046 C 0.89871 0.67359 0.82331 0.0
C3047 C 0.90123 0.68597 0.80851 0.0
C3048 C 0.8966 0.70062 0.81112 0.0
C3049 C 0.88882 0.70217 0.82808 0.0
C3050 C 0.9038 0.65803 0.82123 0.0
C3051 C 0.89877 0.71388 0.79555 0.0
H3052 H 0.94528 0.69305 0.76516 0.0
H3053 H 0.88734 0.65338 0.74801 0.0
H3054 H 0.93824 0.71691 0.80483 0.0
H3055 H 0.94136 0.698 0.81339 0.0
H3056 H 0.95512 0.71176 0.79468 0.0
H3057 H 0.8631 0.65011 0.76623 0.0
H3058 H 0.86956 0.65005 0.79133 0.0
H3059 H 0.86825 0.67007 0.78297 0.0
H3060 H 0.8879 0.66529 0.85097 0.0
H3061 H 0.88459 0.71288 0.82987 0.0
H3062 H 0.91816 0.66392 0.81656 0.0
H3063 H 0.89407 0.64688 0.80997 0.0
H3064 H 0.90304 0.65113 0.8349 0.0
H3065 H 0.91296 0.72013 0.79036 0.0
H3066 H 0.89638 0.72569 0.8006 0.0
H3067 H 0.88855 0.70566 0.78304 0.0
C3068 C 0.31454 0.25884 0.75569 0.0
C3069 C 0.3337 0.27191 0.75539 0.0
C3070 C 0.30797 0.24572 0.76994 0.0
C3071 C 0.32086 0.24592 0.78438 0.0
C3072 C 0.3401 0.25966 0.78463 0.0
C3073 C 0.3463 0.27236 0.77005 0.0
C3074 C 0.28739 0.23113 0.76906 0.0
C3075 C 0.35425 0.26057 0.79997 0.0
C3076 C 0.30459 0.22062 0.83024 0.0
C3077 C 0.30625 0.20432 0.82653 0.0
C3078 C 0.30883 0.23411 0.81646 0.0
C3079 C 0.31456 0.23102 0.79848 0.0
C3080 C 0.31546 0.21415 0.79441 0.0
C3081 C 0.31145 0.20109 0.80855 0.0
C3082 C 0.30796 0.25204 0.82143 0.0
C3083 C 0.32121 0.21016 0.77531 0.0
H3084 H 0.30473 0.25833 0.74434 0.0
H3085 H 0.36111 0.28255 0.77001 0.0
H3086 H 0.28542 0.21662 0.76589 0.0
H3087 H 0.28183 0.23122 0.7832 0.0
H3088 H 0.27902 0.23375 0.75781 0.0
H3089 H 0.3684 0.27307 0.79904 0.0
H3090 H 0.34969 0.26136 0.81451 0.0
H3091 H 0.35526 0.24736 0.79846 0.0
H3092 H 0.30071 0.22317 0.84422 0.0
H3093 H 0.31257 0.18838 0.80565 0.0
H3094 H 0.29937 0.25413 0.81001 0.0
H3095 H 0.32226 0.26464 0.82222 0.0
H3096 H 0.302 0.25166 0.83544 0.0
H3097 H 0.31257 0.21135 0.76325 0.0
H3098 H 0.31978 0.19572 0.77386 0.0
H3099 H 0.33601 0.22095 0.77378 0.0
C3100 C 0.75868 0.09079 0.71544 0.0
C3101 C 0.74409 0.07184 0.71308 0.0
C3102 C 0.77013 0.09801 0.73282 0.0
C3103 C 0.76589 0.0864 0.74861 0.0
C3104 C 0.75138 0.06706 0.74603 0.0
C3105 C 0.74087 0.05993 0.72815 0.0
C3106 C 0.78634 0.11822 0.73446 0.0
C3107 C 0.74603 0.05425 0.76251 0.0
C3108 C 0.79678 0.09911 0.79554 0.0
C3109 C 0.79 0.1088 0.80699 0.0
C3110 C 0.78998 0.0929 0.77617 0.0
C3111 C 0.77498 0.09499 0.76829 0.0
C3112 C 0.76795 0.10461 0.77961 0.0
C3113 C 0.776 0.112 0.79844 0.0
C3114 C 0.7988 0.08393 0.7643 0.0
C3115 C 0.75157 0.10673 0.77204 0.0
H3116 H 0.76106 0.09998 0.70373 0.0
H3117 H 0.72934 0.04533 0.72631 0.0
H3118 H 0.78249 0.12776 0.74249 0.0
H3119 H 0.79875 0.11907 0.74252 0.0
H3120 H 0.79027 0.12367 0.72006 0.0
H3121 H 0.73439 0.03958 0.75807 0.0
H3122 H 0.75822 0.05319 0.7684 0.0
H3123 H 0.74171 0.06048 0.77433 0.0
H3124 H 0.80727 0.096 0.80155 0.0
H3125 H 0.77101 0.12015 0.80638 0.0
H3126 H 0.80015 0.0887 0.74947 0.0
H3127 H 0.78986 0.06817 0.76338 0.0
H3128 H 0.8129 0.08759 0.77077 0.0
H3129 H 0.7555 0.11587 0.75974 0.0
H3130 H 0.74679 0.11318 0.78321 0.0
H3131 H 0.73963 0.09254 0.76667 0.0
C3132 C 0.06445 0.36066 0.05507 0.0
C3133 C 0.04498 0.3528 0.05213 0.0
C3134 C 0.0723 0.35203 0.06639 0.0
C3135 C 0.06041 0.33511 0.0751 0.0
C3136 C 0.04074 0.32682 0.07192 0.0
C3137 C 0.03323 0.33575 0.06039 0.0
C3138 C 0.09337 0.36124 0.06928 0.0
C3139 C 0.02767 0.30878 0.08099 0.0
C3140 C 0.086 0.30938 0.09153 0.0
C3141 C 0.09232 0.31742 0.11052 0.0
C3142 C 0.07433 0.31386 0.08015 0.0
C3143 C 0.0689 0.32669 0.088 0.0
C3144 C 0.07407 0.33367 0.10761 0.0
C3145 C 0.08576 0.32897 0.11864 0.0
C3146 C 0.06909 0.3061 0.05931 0.0
C3147 C 0.06843 0.34724 0.11657 0.0
H3148 H 0.07368 0.3737 0.04859 0.0
H3149 H 0.01817 0.32957 0.05819 0.0
H3150 H 0.09808 0.3656 0.08479 0.0
H3151 H 0.09784 0.35085 0.06478 0.0
H3152 H 0.10061 0.37406 0.06099 0.0
H3153 H 0.01275 0.30354 0.07621 0.0
H3154 H 0.03103 0.29734 0.07738 0.0
H3155 H 0.02959 0.31147 0.09692 0.0
H3156 H 0.09114 0.30055 0.08515 0.0
H3157 H 0.09041 0.33497 0.13342 0.0
H3158 H 0.07745 0.31764 0.04995 0.0
H3159 H 0.0541 0.30112 0.05526 0.0
H3160 H 0.07179 0.29407 0.05631 0.0
H3161 H 0.07631 0.36139 0.11061 0.0
H3162 H 0.07136 0.34925 0.1325 0.0
H3163 H 0.05331 0.34197 0.113 0.0
C3164 C 0.64644 0.67827 0.10827 0.0
C3165 C 0.65059 0.67563 0.08958 0.0
C3166 C 0.65286 0.69673 0.11683 0.0
C3167 C 0.66433 0.7128 0.1067 0.0
C3168 C 0.66922 0.7101 0.08811 0.0
C3169 C 0.66191 0.69148 0.07958 0.0
C3170 C 0.64681 0.69903 0.13637 0.0
C3171 C 0.68198 0.72685 0.07717 0.0
C3172 C 0.66468 0.75924 0.11872 0.0
C3173 C 0.68065 0.76913 0.13176 0.0
C3174 C 0.65921 0.7409 0.11055 0.0
C3175 C 0.67026 0.73239 0.11507 0.0
C3176 C 0.68672 0.74247 0.12773 0.0
C3177 C 0.69161 0.76064 0.1361 0.0
C3178 C 0.64143 0.73051 0.09728 0.0
C3179 C 0.69907 0.734 0.13253 0.0
H3180 H 0.63757 0.66589 0.11586 0.0
H3181 H 0.6652 0.68927 0.06516 0.0
H3182 H 0.65923 0.70791 0.14665 0.0
H3183 H 0.63864 0.70658 0.13521 0.0
H3184 H 0.63807 0.68507 0.14243 0.0
H3185 H 0.68581 0.72226 0.06372 0.0
H3186 H 0.67501 0.73517 0.07333 0.0
H3187 H 0.695 0.73659 0.08636 0.0
H3188 H 0.65636 0.76583 0.11486 0.0
H3189 H 0.70386 0.76804 0.14628 0.0
H3190 H 0.63172 0.71665 0.10292 0.0
H3191 H 0.64464 0.7273 0.0828 0.0
H3192 H 0.63414 0.73893 0.09568 0.0
H3193 H 0.69127 0.72094 0.1403 0.0
H3194 H 0.712 0.74417 0.14165 0.0
H3195 H 0.7031 0.72966 0.11909 0.0
C3196 C 0.32592 0.97616 0.06285 0.0
C3197 C 0.32891 0.96958 0.04516 0.0
C3198 C 0.30888 0.96605 0.07111 0.0
C3199 C 0.29439 0.94887 0.06149 0.0
C3200 C 0.29716 0.94227 0.04347 0.0
C3201 C 0.31442 0.95271 0.0355 0.0
C3202 C 0.30651 0.9736 0.09035 0.0
C3203 C 0.28201 0.92401 0.03279 0.0
C3204 C 0.25955 0.91437 0.09386 0.0
C3205 C 0.24469 0.91816 0.09147 0.0
C3206 C 0.27552 0.92382 0.08371 0.0
C3207 C 0.27674 0.93747 0.07086 0.0
C3208 C 0.26165 0.94111 0.06807 0.0
C3209 C 0.24581 0.93144 0.07845 0.0
C3210 C 0.29135 0.91963 0.08723 0.0
C3211 C 0.26242 0.95553 0.05446 0.0
H3212 H 0.337 0.98923 0.0704 0.0
H3213 H 0.3166 0.94758 0.0218 0.0
H3214 H 0.29401 0.97543 0.08924 0.0
H3215 H 0.3042 0.96315 0.10125 0.0
H3216 H 0.31891 0.98752 0.09564 0.0
H3217 H 0.28602 0.9213 0.01852 0.0
H3218 H 0.27897 0.91173 0.04149 0.0
H3219 H 0.26888 0.92461 0.03062 0.0
H3220 H 0.25894 0.90436 0.10412 0.0
H3221 H 0.2343 0.93428 0.07639 0.0
H3222 H 0.30394 0.93261 0.09401 0.0
H3223 H 0.29514 0.91579 0.07336 0.0
H3224 H 0.28774 0.90779 0.09677 0.0
H3225 H 0.27384 0.97002 0.05978 0.0
H3226 H 0.24906 0.95582 0.05296 0.0
H3227 H 0.26564 0.95227 0.03999 0.0
C3228 C 0.37185 0.06137 0.00788 0.0
C3229 C 0.36502 0.04177 0.00365 0.0
C3230 C 0.362 0.07026 0.00095 0.0
C3231 C 0.34501 0.05937 0.98924 0.0
C3232 C 0.33788 0.03953 0.98509 0.0
C3233 C 0.3479 0.03093 0.99247 0.0
C3234 C 0.36996 0.09142 0.00589 0.0
C3235 C 0.31995 0.02752 0.97242 0.0
C3236 C 0.3139 0.08159 0.98206 0.0
C3237 C 0.31993 0.09046 0.96498 0.0
C3238 C 0.32166 0.07103 0.99001 0.0
C3239 C 0.33545 0.06909 0.98039 0.0
C3240 C 0.34095 0.07743 0.96269 0.0
C3241 C 0.33322 0.08815 0.95529 0.0
C3242 C 0.3156 0.06249 0.00899 0.0
C3243 C 0.35533 0.07543 0.95179 0.0
H3244 H 0.38495 0.06983 0.01669 0.0
H3245 H 0.34252 0.01578 0.98911 0.0
H3246 H 0.37373 0.09913 0.99258 0.0
H3247 H 0.3593 0.09408 0.01223 0.0
H3248 H 0.38263 0.09756 0.01622 0.0
H3249 H 0.3158 0.01212 0.97137 0.0
H3250 H 0.30839 0.02907 0.97807 0.0
H3251 H 0.3217 0.03259 0.9577 0.0
H3252 H 0.30357 0.08342 0.98945 0.0
H3253 H 0.33763 0.09485 0.94191 0.0
H3254 H 0.32765 0.06935 0.02009 0.0
H3255 H 0.31095 0.047 0.00766 0.0
H3256 H 0.30403 0.0644 0.0141 0.0
H3257 H 0.3691 0.08282 0.96038 0.0
H3258 H 0.35701 0.08158 0.93756 0.0
H3259 H 0.3513 0.06014 0.94947 0.0
C3260 C 0.98073 0.30482 0.98017 0.0
C3261 C 0.97408 0.31325 0.99329 0.0
C3262 C 0.96856 0.28703 0.97021 0.0
C3263 C 0.94926 0.27772 0.97313 0.0
C3264 C 0.94253 0.2861 0.9865 0.0
C3265 C 0.95507 0.30367 0.99657 0.0
C3266 C 0.9763 0.27829 0.95641 0.0
C3267 C 0.92198 0.27676 0.98979 0.0
C3268 C 0.91334 0.24281 0.9341 0.0
C3269 C 0.90745 0.22523 0.9421 0.0
C3270 C 0.92729 0.25997 0.94382 0.0
C3271 C 0.93588 0.25953 0.96179 0.0
C3272 C 0.93075 0.24179 0.96947 0.0
C3273 C 0.91646 0.22487 0.95964 0.0
C3274 C 0.93226 0.27864 0.93524 0.0
C3275 C 0.93985 0.24071 0.98842 0.0
H3276 H 0.99546 0.31214 0.9777 0.0
H3277 H 0.94986 0.31019 0.00663 0.0
H3278 H 0.97227 0.26355 0.96005 0.0
H3279 H 0.97024 0.27725 0.94151 0.0
H3280 H 0.9918 0.28678 0.95668 0.0
H3281 H 0.91905 0.28508 0.0008 0.0
H3282 H 0.9137 0.27524 0.97608 0.0
H3283 H 0.91702 0.26218 0.99454 0.0
H3284 H 0.90678 0.24323 0.92036 0.0
H3285 H 0.91191 0.21144 0.96612 0.0
H3286 H 0.94755 0.28702 0.93393 0.0
H3287 H 0.9286 0.28735 0.94493 0.0
H3288 H 0.92482 0.27648 0.92079 0.0
H3289 H 0.95532 0.24922 0.98857 0.0
H3290 H 0.93583 0.22577 0.99131 0.0
H3291 H 0.93564 0.24692 0.00036 0.0
C3292 C 0.68435 0.65118 0.02863 0.0
C3293 C 0.6796 0.63424 0.03754 0.0
C3294 C 0.70012 0.65969 0.01802 0.0
C3295 C 0.71155 0.65122 0.01654 0.0
C3296 C 0.70729 0.6346 0.02619 0.0
C3297 C 0.69129 0.62622 0.03645 0.0
C3298 C 0.70407 0.67726 0.00773 0.0
C3299 C 0.71933 0.62533 0.02519 0.0
C3300 C 0.73866 0.65732 0.97266 0.0
C3301 C 0.75684 0.67108 0.97983 0.0
C3302 C 0.72371 0.65119 0.98432 0.0
C3303 C 0.7271 0.65881 0.00372 0.0
C3304 C 0.7454 0.67304 0.01092 0.0
C3305 C 0.76008 0.67914 0.9988 0.0
C3306 C 0.70434 0.63627 0.97598 0.0
C3307 C 0.74957 0.68131 0.03158 0.0
H3308 H 0.67537 0.65745 0.02935 0.0
H3309 H 0.68783 0.61327 0.04348 0.0
H3310 H 0.71879 0.68872 0.0113 0.0
H3311 H 0.7022 0.67375 0.99191 0.0
H3312 H 0.69466 0.6829 0.01148 0.0
H3313 H 0.71504 0.61347 0.03482 0.0
H3314 H 0.71836 0.61954 0.01019 0.0
H3315 H 0.73423 0.63607 0.02922 0.0
H3316 H 0.73619 0.65124 0.95791 0.0
H3317 H 0.7742 0.68971 0.00432 0.0
H3318 H 0.69424 0.64138 0.97816 0.0
H3319 H 0.69957 0.623 0.98357 0.0
H3320 H 0.70389 0.63267 0.96033 0.0
H3321 H 0.7402 0.68706 0.03496 0.0
H3322 H 0.76433 0.69292 0.03467 0.0
H3323 H 0.74683 0.66987 0.04139 0.0
C3324 C 0.95154 0.65885 0.02133 0.0
C3325 C 0.96454 0.65542 0.01237 0.0
C3326 C 0.9399 0.66391 0.01066 0.0
C3327 C 0.94098 0.66507 0.99049 0.0
C3328 C 0.95408 0.66159 0.98139 0.0
C3329 C 0.96587 0.65704 0.99249 0.0
C3330 C 0.9264 0.66796 0.02094 0.0
C3331 C 0.95535 0.66222 0.95986 0.0
C3332 C 0.8978 0.6585 0.96102 0.0
C3333 C 0.90305 0.67734 0.95693 0.0
C3334 C 0.91013 0.65431 0.97161 0.0
C3335 C 0.928 0.66934 0.97881 0.0
C3336 C 0.93342 0.68839 0.97488 0.0
C3337 C 0.92099 0.69213 0.9638 0.0
C3338 C 0.90394 0.63376 0.97521 0.0
C3339 C 0.95226 0.70484 0.98257 0.0
H3340 H 0.95058 0.65774 0.03673 0.0
H3341 H 0.97584 0.65427 0.9855 0.0
H3342 H 0.92861 0.68229 0.01785 0.0
H3343 H 0.91179 0.65735 0.01558 0.0
H3344 H 0.92798 0.66743 0.03681 0.0
H3345 H 0.96637 0.65926 0.95503 0.0
H3346 H 0.9417 0.65151 0.95226 0.0
H3347 H 0.9584 0.67646 0.95541 0.0
H3348 H 0.88388 0.64697 0.95626 0.0
H3349 H 0.92537 0.70669 0.96053 0.0
H3350 H 0.90334 0.63194 0.99089 0.0
H3351 H 0.91425 0.62985 0.97015 0.0
H3352 H 0.88996 0.62364 0.9678 0.0
H3353 H 0.95387 0.7051 0.99851 0.0
H3354 H 0.95417 0.71887 0.97863 0.0
H3355 H 0.96361 0.70294 0.97689 0.0
C3356 C 0.36665 0.3182 0.97529 0.0
C3357 C 0.3589 0.33011 0.97809 0.0
C3358 C 0.35617 0.30002 0.96558 0.0
C3359 C 0.33746 0.29354 0.95836 0.0
C3360 C 0.32954 0.30548 0.96095 0.0
C3361 C 0.34034 0.32362 0.97085 0.0
C3362 C 0.36512 0.28767 0.96319 0.0
C3363 C 0.30966 0.29905 0.95334 0.0
C3364 C 0.32017 0.25282 0.91971 0.0
C3365 C 0.31136 0.23691 0.93057 0.0
C3366 C 0.32762 0.27143 0.9283 0.0
C3367 C 0.32636 0.27415 0.94826 0.0
C3368 C 0.31643 0.25809 0.959 0.0
C3369 C 0.309 0.23963 0.95 0.0
C3370 C 0.3379 0.28818 0.9163 0.0
C3371 C 0.31484 0.26038 0.98032 0.0
H3372 H 0.38092 0.32296 0.98087 0.0
H3373 H 0.33421 0.33271 0.9729 0.0
H3374 H 0.35695 0.27407 0.97003 0.0
H3375 H 0.36502 0.28397 0.94766 0.0
H3376 H 0.37981 0.29483 0.9697 0.0
H3377 H 0.30567 0.31016 0.95627 0.0
H3378 H 0.30789 0.29544 0.93755 0.0
H3379 H 0.29984 0.28589 0.96002 0.0
H3380 H 0.32181 0.2507 0.90462 0.0
H3381 H 0.30234 0.22736 0.95848 0.0
H3382 H 0.35316 0.29516 0.92046 0.0
H3383 H 0.33354 0.29902 0.91898 0.0
H3384 H 0.33543 0.28373 0.90063 0.0
H3385 H 0.32876 0.26573 0.98825 0.0
H3386 H 0.30476 0.24667 0.98602 0.0
H3387 H 0.31035 0.27106 0.98336 0.0
C3388 C 0.67672 0.03213 0.00589 0.0
C3389 C 0.673 0.03842 0.02331 0.0
C3390 C 0.6937 0.04303 0.9978 0.0
C3391 C 0.70735 0.06072 0.00733 0.0
C3392 C 0.7039 0.06699 0.02516 0.0
C3393 C 0.68673 0.05573 0.03297 0.0
C3394 C 0.69683 0.03582 0.97877 0.0
C3395 C 0.71816 0.08578 0.03571 0.0
C3396 C 0.75597 0.0808 0.98988 0.0
C3397 C 0.75576 0.09309 0.97629 0.0
C3398 C 0.74061 0.07075 0.00075 0.0
C3399 C 0.72467 0.07301 0.99789 0.0
C3400 C 0.72463 0.08582 0.98463 0.0
C3401 C 0.74014 0.09565 0.97397 0.0
C3402 C 0.74116 0.05723 0.0148 0.0
C3403 C 0.70787 0.08856 0.98108 0.0
H3404 H 0.66624 0.01871 0.99838 0.0
H3405 H 0.68395 0.06063 0.04647 0.0
H3406 H 0.69828 0.04581 0.96763 0.0
H3407 H 0.71002 0.03524 0.98008 0.0
H3408 H 0.68515 0.02136 0.97366 0.0
H3409 H 0.71388 0.08802 0.05 0.0
H3410 H 0.73192 0.08643 0.03782 0.0
H3411 H 0.72015 0.09772 0.02694 0.0
H3412 H 0.7681 0.07894 0.9919 0.0
H3413 H 0.73973 0.10489 0.96329 0.0
H3414 H 0.73067 0.0423 0.00964 0.0
H3415 H 0.73741 0.06016 0.0291 0.0
H3416 H 0.75516 0.05835 0.01658 0.0
H3417 H 0.69581 0.07509 0.97435 0.0
H3418 H 0.71065 0.10017 0.97145 0.0
H3419 H 0.70369 0.09196 0.99491 0.0
C3420 C 0.6275 0.94582 0.06846 0.0
C3421 C 0.63653 0.96539 0.06556 0.0
C3422 C 0.63727 0.93761 0.07721 0.0
C3423 C 0.65655 0.94922 0.08317 0.0
C3424 C 0.66591 0.96884 0.07981 0.0
C3425 C 0.65578 0.97671 0.07107 0.0
C3426 C 0.62681 0.9166 0.08059 0.0
C3427 C 0.68648 0.98162 0.08592 0.0
C3428 C 0.67311 0.93092 0.12457 0.0
C3429 C 0.68072 0.9211 0.11493 0.0
C3430 C 0.66595 0.94087 0.11446 0.0
C3431 C 0.66644 0.94101 0.0942 0.0
C3432 C 0.67506 0.93201 0.08449 0.0
C3433 C 0.68215 0.92213 0.09502 0.0
C3434 C 0.65702 0.95044 0.12536 0.0
C3435 C 0.67593 0.93198 0.06291 0.0
H3436 H 0.61268 0.93691 0.06416 0.0
H3437 H 0.66296 0.99182 0.06877 0.0
H3438 H 0.63397 0.90929 0.0744 0.0
H3439 H 0.62671 0.91485 0.09631 0.0
H3440 H 0.61209 0.90934 0.07416 0.0
H3441 H 0.69201 0.99618 0.08084 0.0
H3442 H 0.68876 0.98292 0.10187 0.0
H3443 H 0.6947 0.97527 0.08025 0.0
H3444 H 0.6723 0.93037 0.14004 0.0
H3445 H 0.688 0.91449 0.08757 0.0
H3446 H 0.64177 0.94303 0.12103 0.0
H3447 H 0.66294 0.96551 0.12175 0.0
H3448 H 0.65905 0.95023 0.14122 0.0
H3449 H 0.66162 0.92307 0.05571 0.0
H3450 H 0.6849 0.92624 0.05788 0.0
H3451 H 0.68141 0.94667 0.05826 0.0
C3452 C 0.03111 0.70735 0.06643 0.0
C3453 C 0.03464 0.6933 0.07348 0.0
C3454 C 0.04071 0.72617 0.07501 0.0
C3455 C 0.05374 0.73076 0.09122 0.0
C3456 C 0.05635 0.71624 0.09909 0.0
C3457 C 0.04696 0.69775 0.08996 0.0
C3458 C 0.03778 0.74132 0.06605 0.0
C3459 C 0.06979 0.72043 0.11661 0.0
C3460 C 0.09734 0.779 0.1012 0.0
C3461 C 0.09287 0.78669 0.11707 0.0
C3462 C 0.08421 0.76132 0.09183 0.0
C3463 C 0.06627 0.75096 0.09875 0.0
C3464 C 0.06138 0.75913 0.11423 0.0
C3465 C 0.07479 0.77706 0.12318 0.0
C3466 C 0.08991 0.75327 0.0752 0.0
C3467 C 0.04247 0.74845 0.12209 0.0
H3468 H 0.02161 0.70388 0.05362 0.0
H3469 H 0.04949 0.68679 0.09554 0.0
H3470 H 0.03572 0.75012 0.07726 0.0
H3471 H 0.05045 0.75105 0.05892 0.0
H3472 H 0.02555 0.73505 0.05513 0.0
H3473 H 0.06862 0.70718 0.12216 0.0
H3474 H 0.08437 0.72961 0.11287 0.0
H3475 H 0.0672 0.72836 0.12832 0.0
H3476 H 0.11136 0.78665 0.09647 0.0
H3477 H 0.07145 0.7831 0.13552 0.0
H3478 H 0.07906 0.748 0.06288 0.0
H3479 H 0.09125 0.74091 0.0797 0.0
H3480 H 0.1035 0.76401 0.07021 0.0
H3481 H 0.03113 0.74243 0.11021 0.0
H3482 H 0.03996 0.75774 0.1323 0.0
H3483 H 0.04159 0.73628 0.12977 0.0
C3484 C 0.30988 0.36342 0.02133 0.0
C3485 C 0.32595 0.36628 0.03228 0.0
C3486 C 0.29281 0.35701 0.02972 0.0
C3487 C 0.29202 0.35396 0.04962 0.0
C3488 C 0.30831 0.35706 0.06074 0.0
C3489 C 0.32498 0.36293 0.05188 0.0
C3490 C 0.27562 0.35336 0.0173 0.0
C3491 C 0.30822 0.35442 0.08209 0.0
C3492 C 0.25499 0.35621 0.07799 0.0
C3493 C 0.24345 0.33694 0.08151 0.0
C3494 C 0.27052 0.36188 0.06718 0.0
C3495 C 0.27437 0.34792 0.05911 0.0
C3496 C 0.26218 0.32835 0.06158 0.0
C3497 C 0.24702 0.32312 0.07293 0.0
C3498 C 0.28331 0.38293 0.06515 0.0
C3499 C 0.26557 0.31299 0.05286 0.0
H3500 H 0.31056 0.36585 0.00613 0.0
H3501 H 0.33741 0.36525 0.06043 0.0
H3502 H 0.26428 0.33841 0.01817 0.0
H3503 H 0.27039 0.36285 0.02267 0.0
H3504 H 0.27842 0.3558 0.00195 0.0
H3505 H 0.32218 0.35783 0.08874 0.0
H3506 H 0.30378 0.36377 0.08956 0.0
H3507 H 0.29797 0.33945 0.08462 0.0
H3508 H 0.25211 0.367 0.08401 0.0
H3509 H 0.23838 0.30822 0.0756 0.0
H3510 H 0.28521 0.38567 0.04974 0.0
H3511 H 0.29734 0.3875 0.07246 0.0
H3512 H 0.27789 0.39191 0.0715 0.0
H3513 H 0.26815 0.31508 0.03744 0.0
H3514 H 0.25357 0.29842 0.05398 0.0
H3515 H 0.27823 0.31391 0.06037 0.0
C3516 C 0.71818 0.69993 0.40773 0.0
C3517 C 0.70229 0.68973 0.39468 0.0
C3518 C 0.72661 0.6907 0.41704 0.0
C3519 C 0.71906 0.67077 0.41315 0.0
C3520 C 0.7024 0.66018 0.40088 0.0
C3521 C 0.69414 0.6698 0.39179 0.0
C3522 C 0.74427 0.70253 0.4302 0.0
C3523 C 0.69392 0.63891 0.39644 0.0
C3524 C 0.75761 0.65845 0.41772 0.0
C3525 C 0.75657 0.65304 0.43666 0.0
C3526 C 0.74447 0.66277 0.40931 0.0
C3527 C 0.73003 0.6618 0.42019 0.0
C3528 C 0.72809 0.65493 0.43881 0.0
C3529 C 0.74143 0.65057 0.44685 0.0
C3530 C 0.74694 0.66982 0.38933 0.0
C3531 C 0.71282 0.65359 0.45079 0.0
H3532 H 0.72439 0.71529 0.41028 0.0
H3533 H 0.68184 0.66182 0.38175 0.0
H3534 H 0.7431 0.69605 0.44417 0.0
H3535 H 0.75634 0.70284 0.42352 0.0
H3536 H 0.74733 0.7175 0.43308 0.0
H3537 H 0.67952 0.63234 0.38925 0.0
H3538 H 0.70274 0.63617 0.38676 0.0
H3539 H 0.69349 0.63173 0.40981 0.0
H3540 H 0.76922 0.66009 0.40979 0.0
H3541 H 0.74067 0.64637 0.46151 0.0
H3542 H 0.75173 0.68535 0.39031 0.0
H3543 H 0.73343 0.66247 0.38031 0.0
H3544 H 0.75738 0.66752 0.38197 0.0
H3545 H 0.71633 0.66817 0.45637 0.0
H3546 H 0.71116 0.64489 0.46327 0.0
H3547 H 0.69924 0.64729 0.44193 0.0
C3548 C 0.33121 0.01235 0.43831 0.0
C3549 C 0.31714 0.00532 0.42305 0.0
C3550 C 0.33836 0.03089 0.44709 0.0
C3551 C 0.33099 0.04249 0.44066 0.0
C3552 C 0.31687 0.03547 0.42518 0.0
C3553 C 0.31023 0.01704 0.41646 0.0
C3554 C 0.35367 0.03803 0.46332 0.0
C3555 C 0.30846 0.04728 0.41807 0.0
C3556 C 0.33315 0.08195 0.4741 0.0
C3557 C 0.3468 0.09844 0.46637 0.0
C3558 C 0.32827 0.06364 0.46623 0.0
C3559 C 0.3375 0.06172 0.45046 0.0
C3560 C 0.35197 0.07825 0.44322 0.0
C3561 C 0.35636 0.09641 0.45116 0.0
C3562 C 0.31267 0.04638 0.4743 0.0
C3563 C 0.36234 0.07676 0.4266 0.0
H3564 H 0.33668 0.00338 0.44336 0.0
H3565 H 0.2993 0.01166 0.40471 0.0
H3566 H 0.36579 0.05176 0.46 0.0
H3567 H 0.34855 0.04084 0.47679 0.0
H3568 H 0.35855 0.02763 0.46594 0.0
H3569 H 0.29768 0.03979 0.40578 0.0
H3570 H 0.30191 0.05074 0.42996 0.0
H3571 H 0.31958 0.06103 0.41346 0.0
H3572 H 0.32599 0.08335 0.48614 0.0
H3573 H 0.3668 0.10902 0.44495 0.0
H3574 H 0.31747 0.03622 0.47827 0.0
H3575 H 0.30075 0.03877 0.46312 0.0
H3576 H 0.30754 0.05028 0.4872 0.0
H3577 H 0.36732 0.06648 0.42931 0.0
H3578 H 0.37454 0.09078 0.42408 0.0
H3579 H 0.35272 0.07127 0.41325 0.0
C3580 C 0.98325 0.29799 0.36669 0.0
C3581 C 0.99902 0.29873 0.37617 0.0
C3582 C 0.96579 0.28873 0.37446 0.0
C3583 C 0.96409 0.27953 0.39176 0.0
C3584 C 0.98001 0.27992 0.40107 0.0
C3585 C 0.99739 0.28984 0.39333 0.0
C3586 C 0.94932 0.28918 0.36446 0.0
C3587 C 0.9787 0.26987 0.41924 0.0
C3588 C 0.92515 0.26949 0.42427 0.0
C3589 C 0.91258 0.25001 0.4193 0.0
C3590 C 0.94156 0.27948 0.41483 0.0
C3591 C 0.94577 0.26968 0.40034 0.0
C3592 C 0.93295 0.25018 0.39489 0.0
C3593 C 0.91644 0.24066 0.40426 0.0
C3594 C 0.95469 0.30038 0.42081 0.0
C3595 C 0.93702 0.23916 0.37968 0.0
H3596 H 0.98471 0.30515 0.35351 0.0
H3597 H 0.00971 0.29052 0.40058 0.0
H3598 H 0.93774 0.27441 0.36048 0.0
H3599 H 0.94396 0.29611 0.37441 0.0
H3600 H 0.95302 0.29707 0.35122 0.0
H3601 H 0.99217 0.27072 0.42413 0.0
H3602 H 0.97452 0.27632 0.43098 0.0
H3603 H 0.96775 0.25458 0.4168 0.0
H3604 H 0.92255 0.27686 0.43602 0.0
H3605 H 0.90667 0.22574 0.39998 0.0
H3606 H 0.95844 0.3088 0.40796 0.0
H3607 H 0.96786 0.30222 0.42807 0.0
H3608 H 0.9485 0.30637 0.43083 0.0
H3609 H 0.93975 0.24644 0.36608 0.0
H3610 H 0.92532 0.22426 0.3766 0.0
H3611 H 0.94984 0.23871 0.38453 0.0
C3612 C 0.04602 0.38652 0.32177 0.0
C3613 C 0.03646 0.36976 0.33128 0.0
C3614 C 0.03668 0.39566 0.31412 0.0
C3615 C 0.01737 0.38805 0.31636 0.0
C3616 C 0.00757 0.37105 0.32582 0.0
C3617 C 0.01721 0.36199 0.33302 0.0
C3618 C 0.04755 0.41356 0.30379 0.0
C3619 C 0.98704 0.36269 0.32871 0.0
C3620 C 0.00134 0.42467 0.31276 0.0
C3621 C 0.99347 0.42079 0.29368 0.0
C3622 C 0.00828 0.41342 0.32068 0.0
C3623 C 0.00766 0.39825 0.30907 0.0
C3624 C 0.99918 0.39393 0.28996 0.0
C3625 C 0.99205 0.40519 0.28254 0.0
C3626 C 0.01693 0.41826 0.34122 0.0
C3627 C 0.99855 0.3781 0.27702 0.0
H3628 H 0.06086 0.3925 0.32023 0.0
H3629 H 0.00977 0.3491 0.34048 0.0
H3630 H 0.04072 0.41181 0.28911 0.0
H3631 H 0.04761 0.42584 0.31165 0.0
H3632 H 0.06228 0.4171 0.30251 0.0
H3633 H 0.98137 0.34915 0.33598 0.0
H3634 H 0.98492 0.37312 0.33756 0.0
H3635 H 0.97884 0.35989 0.31463 0.0
H3636 H 0.00237 0.43672 0.32135 0.0
H3637 H 0.98618 0.40238 0.26767 0.0
H3638 H 0.03224 0.42387 0.34134 0.0
H3639 H 0.01106 0.40524 0.34931 0.0
H3640 H 0.01459 0.42916 0.34889 0.0
H3641 H 0.013 0.38178 0.27405 0.0
H3642 H 0.99025 0.37567 0.26305 0.0
H3643 H 0.99244 0.36455 0.28425 0.0
C3644 C 0.61787 0.63989 0.33631 0.0
C3645 C 0.6357 0.65202 0.33039 0.0
C3646 C 0.6057 0.62235 0.32599 0.0
C3647 C 0.61151 0.61678 0.30934 0.0
C3648 C 0.62967 0.62871 0.30356 0.0
C3649 C 0.64157 0.64623 0.31416 0.0
C3650 C 0.58643 0.61001 0.33262 0.0
C3651 C 0.63636 0.62318 0.28595 0.0
C3652 C 0.58236 0.56421 0.29216 0.0
C3653 C 0.56959 0.56451 0.27823 0.0
C3654 C 0.59664 0.58122 0.30187 0.0
C3655 C 0.59811 0.5989 0.29756 0.0
C3656 C 0.58576 0.59934 0.28291 0.0
C3657 C 0.57167 0.58214 0.27342 0.0
C3658 C 0.6096 0.5802 0.31734 0.0
C3659 C 0.58694 0.61791 0.27782 0.0
H3660 H 0.61326 0.64423 0.34887 0.0
H3661 H 0.65535 0.65552 0.30954 0.0
H3662 H 0.57563 0.60851 0.32137 0.0
H3663 H 0.58408 0.59545 0.33477 0.0
H3664 H 0.58436 0.61604 0.34629 0.0
H3665 H 0.65127 0.63345 0.28408 0.0
H3666 H 0.63469 0.60872 0.28694 0.0
H3667 H 0.62769 0.62253 0.27289 0.0
H3668 H 0.58074 0.55062 0.29604 0.0
H3669 H 0.56202 0.58246 0.26242 0.0
H3670 H 0.60675 0.58426 0.33165 0.0
H3671 H 0.6244 0.59048 0.31516 0.0
H3672 H 0.60787 0.56564 0.31759 0.0
H3673 H 0.58354 0.6243 0.2903 0.0
H3674 H 0.57715 0.61592 0.2652 0.0
H3675 H 0.60139 0.62831 0.27459 0.0
C3676 C 0.35201 0.94894 0.36608 0.0
C3677 C 0.343 0.9595 0.36988 0.0
C3678 C 0.36741 0.95595 0.35493 0.0
C3679 C 0.37402 0.97399 0.34737 0.0
C3680 C 0.3654 0.98501 0.3516 0.0
C3681 C 0.34999 0.97765 0.36282 0.0
C3682 C 0.37626 0.94377 0.35081 0.0
C3683 C 0.37213 0.00435 0.34383 0.0
C3684 C 0.42257 0.99572 0.32935 0.0
C3685 C 0.41831 0.99005 0.30957 0.0
C3686 C 0.40831 0.99123 0.34176 0.0
C3687 C 0.38935 0.98073 0.33422 0.0
C3688 C 0.38498 0.9755 0.31419 0.0
C3689 C 0.39949 0.98029 0.30212 0.0
C3690 C 0.41352 0.99714 0.36302 0.0
C3691 C 0.36493 0.96431 0.30559 0.0
H3692 H 0.34688 0.93498 0.37158 0.0
H3693 H 0.34318 0.98595 0.36569 0.0
H3694 H 0.37451 0.93977 0.3351 0.0
H3695 H 0.39151 0.95197 0.35511 0.0
H3696 H 0.37 0.93047 0.35851 0.0
H3697 H 0.36477 0.01169 0.3495 0.0
H3698 H 0.38739 0.01362 0.34758 0.0
H3699 H 0.36981 0.00267 0.32787 0.0
H3700 H 0.43705 0.00312 0.33526 0.0
H3701 H 0.39609 0.97621 0.28679 0.0
H3702 H 0.409 0.98424 0.37117 0.0
H3703 H 0.40618 0.00462 0.36829 0.0
H3704 H 0.42884 0.00666 0.36633 0.0
H3705 H 0.35786 0.95005 0.31146 0.0
H3706 H 0.36391 0.96223 0.28962 0.0
H3707 H 0.35717 0.97175 0.30961 0.0
C3708 C 0.61325 0.97395 0.35142 0.0
C3709 C 0.63162 0.98023 0.34669 0.0
C3710 C 0.60112 0.97794 0.34017 0.0
C3711 C 0.60753 0.98858 0.32385 0.0
C3712 C 0.62617 0.99527 0.31919 0.0
C3713 C 0.63798 0.99096 0.33063 0.0
C3714 C 0.58131 0.97048 0.34558 0.0
C3715 C 0.63355 0.00677 0.30198 0.0
C3716 C 0.57004 0.98162 0.28505 0.0
C3717 C 0.56777 0.99747 0.2894 0.0
C3718 C 0.58324 0.97881 0.29586 0.0
C3719 C 0.5945 0.99219 0.31138 0.0
C3720 C 0.59269 0.00852 0.31548 0.0
C3721 C 0.57934 0.01096 0.30445 0.0
C3722 C 0.58479 0.96124 0.29097 0.0
C3723 C 0.60446 0.02312 0.33189 0.0
H3724 H 0.60823 0.96563 0.36379 0.0
H3725 H 0.65218 0.99593 0.32691 0.0
H3726 H 0.57843 0.98247 0.3477 0.0
H3727 H 0.57127 0.96055 0.33369 0.0
H3728 H 0.57864 0.96281 0.35895 0.0
H3729 H 0.64857 0.01151 0.30072 0.0
H3730 H 0.62538 0.99809 0.28857 0.0
H3731 H 0.6318 0.01957 0.30302 0.0
H3732 H 0.56134 0.97129 0.27327 0.0
H3733 H 0.57752 0.02312 0.30804 0.0
H3734 H 0.58093 0.95208 0.30328 0.0
H3735 H 0.59946 0.96542 0.28847 0.0
H3736 H 0.57558 0.95265 0.27797 0.0
H3737 H 0.60097 0.01643 0.34578 0.0
H3738 H 0.60222 0.03564 0.3324 0.0
H3739 H 0.61953 0.02824 0.33054 0.0
C3740 C 0.04261 0.65662 0.30853 0.0
C3741 C 0.033 0.66668 0.31171 0.0
C3742 C 0.03368 0.6385 0.29855 0.0
C3743 C 0.01467 0.6302 0.29142 0.0
C3744 C 0.00497 0.64041 0.29413 0.0
C3745 C 0.01423 0.65852 0.3043 0.0
C3746 C 0.04451 0.62804 0.29602 0.0
C3747 C 0.98474 0.63206 0.28657 0.0
C3748 C 0.99948 0.58927 0.25333 0.0
C3749 C 0.99177 0.57344 0.26446 0.0
C3750 C 0.00601 0.60782 0.2617 0.0
C3751 C 0.00497 0.61058 0.28169 0.0
C3752 C 0.99634 0.59455 0.29278 0.0
C3753 C 0.98977 0.57615 0.284 0.0
C3754 C 0.0149 0.62452 0.24935 0.0
C3755 C 0.99506 0.5969 0.31416 0.0
H3756 H 0.05708 0.66271 0.31419 0.0
H3757 H 0.00667 0.66616 0.30662 0.0
H3758 H 0.03775 0.61446 0.3032 0.0
H3759 H 0.04436 0.62428 0.28049 0.0
H3760 H 0.0593 0.63663 0.30212 0.0
H3761 H 0.9795 0.64225 0.28894 0.0
H3762 H 0.983 0.62785 0.27091 0.0
H3763 H 0.97589 0.61894 0.29384 0.0
H3764 H 0.00084 0.58716 0.23816 0.0
H3765 H 0.98398 0.56395 0.29267 0.0
H3766 H 0.03021 0.6328 0.25336 0.0
H3767 H 0.00924 0.63431 0.25184 0.0
H3768 H 0.01257 0.61985 0.23374 0.0
H3769 H 0.00931 0.60391 0.32173 0.0
H3770 H 0.98639 0.58299 0.32032 0.0
H3771 H 0.989 0.60626 0.31715 0.0
C3772 C 0.33648 0.3716 0.33519 0.0
C3773 C 0.33554 0.37391 0.35506 0.0
C3774 C 0.35315 0.38262 0.3266 0.0
C3775 C 0.3694 0.396 0.33824 0.0
C3776 C 0.36862 0.39826 0.35838 0.0
C3777 C 0.35158 0.38732 0.36655 0.0
C3778 C 0.3533 0.38006 0.30502 0.0
C3779 C 0.38578 0.4121 0.37128 0.0
C3780 C 0.41436 0.41046 0.31441 0.0
C3781 C 0.41782 0.42774 0.307 0.0
C3782 C 0.39923 0.40048 0.32557 0.0
C3783 C 0.38706 0.40776 0.32909 0.0
C3784 C 0.39087 0.42553 0.3223 0.0
C3785 C 0.40631 0.43539 0.31155 0.0
C3786 C 0.3958 0.38173 0.33287 0.0
C3787 C 0.37812 0.43369 0.32558 0.0
H3788 H 0.32406 0.36132 0.32625 0.0
H3789 H 0.35091 0.38902 0.38195 0.0
H3790 H 0.35773 0.39388 0.2986 0.0
H3791 H 0.36357 0.37547 0.30164 0.0
H3792 H 0.33935 0.36929 0.298 0.0
H3793 H 0.38293 0.41187 0.3867 0.0
H3794 H 0.3971 0.40856 0.36975 0.0
H3795 H 0.3911 0.42685 0.36688 0.0
H3796 H 0.42304 0.40431 0.31091 0.0
H3797 H 0.40915 0.44898 0.30637 0.0
H3798 H 0.38309 0.36979 0.32492 0.0
H3799 H 0.39325 0.38134 0.34837 0.0
H3800 H 0.40776 0.37925 0.33101 0.0
H3801 H 0.36415 0.42414 0.31788 0.0
H3802 H 0.38367 0.44821 0.32039 0.0
H3803 H 0.37606 0.43443 0.34112 0.0
C3804 C 0.29469 0.28617 0.41172 0.0
C3805 C 0.30328 0.30335 0.40272 0.0
C3806 C 0.30509 0.27789 0.41871 0.0
C3807 C 0.32452 0.28687 0.41641 0.0
C3808 C 0.33337 0.30442 0.4077 0.0
C3809 C 0.32266 0.31253 0.40106 0.0
C3810 C 0.2952 0.2593 0.42821 0.0
C3811 C 0.35402 0.31429 0.40487 0.0
C3812 C 0.35129 0.26966 0.44789 0.0
C3813 C 0.35056 0.25505 0.43564 0.0
C3814 C 0.34363 0.28083 0.44156 0.0
C3815 C 0.33525 0.27735 0.42248 0.0
C3816 C 0.33553 0.26338 0.40971 0.0
C3817 C 0.34306 0.25226 0.41651 0.0
C3818 C 0.34343 0.29544 0.45566 0.0
C3819 C 0.32695 0.25946 0.38918 0.0
H3820 H 0.27976 0.27908 0.41319 0.0
H3821 H 0.32939 0.32576 0.39402 0.0
H3822 H 0.29588 0.24785 0.41951 0.0
H3823 H 0.30228 0.26073 0.44268 0.0
H3824 H 0.28026 0.25472 0.42982 0.0
H3825 H 0.35897 0.32834 0.39874 0.0
H3826 H 0.36228 0.31654 0.4188 0.0
H3827 H 0.35694 0.3051 0.395 0.0
H3828 H 0.35684 0.2716 0.46279 0.0
H3829 H 0.34255 0.24096 0.40707 0.0
H3830 H 0.32885 0.29049 0.45925 0.0
H3831 H 0.34844 0.3093 0.44915 0.0
H3832 H 0.35224 0.29781 0.46924 0.0
H3833 H 0.31152 0.25287 0.38912 0.0
H3834 H 0.33012 0.24966 0.38057 0.0
H3835 H 0.33212 0.27301 0.38203 0.0
C3836 C 0.71007 0.02279 0.42914 0.0
C3837 C 0.69853 0.01834 0.41204 0.0
C3838 C 0.71984 0.0415 0.43773 0.0
C3839 C 0.71838 0.05618 0.4287 0.0
C3840 C 0.70575 0.05153 0.41212 0.0
C3841 C 0.69579 0.03253 0.40405 0.0
C3842 C 0.73283 0.04576 0.45565 0.0
C3843 C 0.70392 0.06679 0.40199 0.0
C3844 C 0.7427 0.10485 0.45684 0.0
C3845 C 0.76062 0.11274 0.45031 0.0
C3846 C 0.72839 0.08666 0.44939 0.0
C3847 C 0.73217 0.07645 0.43494 0.0
C3848 C 0.75002 0.08494 0.42762 0.0
C3849 C 0.76407 0.10292 0.43554 0.0
C3850 C 0.70961 0.078 0.45766 0.0
C3851 C 0.75457 0.07468 0.41201 0.0
H3852 H 0.71203 0.01173 0.4354 0.0
H3853 H 0.68692 0.02908 0.39075 0.0
H3854 H 0.74756 0.05343 0.45189 0.0
H3855 H 0.73112 0.05517 0.46643 0.0
H3856 H 0.73033 0.03253 0.46237 0.0
H3857 H 0.69141 0.0606 0.39143 0.0
H3858 H 0.70303 0.07695 0.41252 0.0
H3859 H 0.71655 0.07509 0.39417 0.0
H3860 H 0.74014 0.11254 0.46833 0.0
H3861 H 0.77794 0.10922 0.43042 0.0
H3862 H 0.70792 0.06617 0.46647 0.0
H3863 H 0.6981 0.07181 0.44597 0.0
H3864 H 0.70813 0.08864 0.46693 0.0
H3865 H 0.75459 0.06202 0.41769 0.0
H3866 H 0.76847 0.084 0.40666 0.0
H3867 H 0.74375 0.06945 0.39966 0.0
C3868 C 0.98569 0.68111 0.37696 0.0
C3869 C 0.99189 0.69593 0.36454 0.0
C3870 C 0.969 0.67507 0.38586 0.0
C3871 C 0.9584 0.6843 0.38253 0.0
C3872 C 0.96425 0.69884 0.36949 0.0
C3873 C 0.98088 0.70438 0.36051 0.0
C3874 C 0.9631 0.65927 0.39938 0.0
C3875 C 0.95345 0.70918 0.36575 0.0
C3876 C 0.90871 0.66121 0.39807 0.0
C3877 C 0.91152 0.67075 0.4163 0.0
C3878 C 0.9238 0.66547 0.38685 0.0
C3879 C 0.94209 0.67978 0.39391 0.0
C3880 C 0.945 0.68954 0.41222 0.0
C3881 C 0.92976 0.68479 0.42323 0.0
C3882 C 0.92019 0.65459 0.3675 0.0
C3883 C 0.96428 0.70494 0.42027 0.0
H3884 H 0.99407 0.67439 0.37998 0.0
H3885 H 0.98564 0.71588 0.35097 0.0
H3886 H 0.96419 0.66517 0.41436 0.0
H3887 H 0.94825 0.6482 0.39566 0.0
H3888 H 0.97187 0.65235 0.39898 0.0
H3889 H 0.95904 0.71913 0.35417 0.0
H3890 H 0.93847 0.69879 0.36164 0.0
H3891 H 0.95412 0.71751 0.37915 0.0
H3892 H 0.89469 0.65051 0.39246 0.0
H3893 H 0.9322 0.69198 0.43745 0.0
H3894 H 0.92845 0.64711 0.36727 0.0
H3895 H 0.92484 0.66466 0.35597 0.0
H3896 H 0.90515 0.64387 0.36408 0.0
H3897 H 0.97363 0.69876 0.42222 0.0
H3898 H 0.96405 0.71174 0.43436 0.0
H3899 H 0.9705 0.71618 0.40999 0.0
C3900 C 0.36884 0.01291 0.7252 0.0
C3901 C 0.37944 0.03185 0.72024 0.0
C3902 C 0.377 0.00457 0.73666 0.0
C3903 C 0.39619 0.0154 0.74326 0.0
C3904 C 0.40698 0.03444 0.73821 0.0
C3905 C 0.39849 0.04241 0.72679 0.0
C3906 C 0.36511 0.98421 0.74176 0.0
C3907 C 0.42754 0.04645 0.74491 0.0
C3908 C 0.41795 0.00492 0.787 0.0
C3909 C 0.428 0.99722 0.77836 0.0
C3910 C 0.40653 0.00983 0.77576 0.0
C3911 C 0.40526 0.00704 0.75542 0.0
C3912 C 0.41451 0.99824 0.74669 0.0
C3913 C 0.42579 0.99344 0.75828 0.0
C3914 C 0.39677 0.01908 0.78559 0.0
C3915 C 0.41355 0.99507 0.72505 0.0
H3916 H 0.35411 0.00461 0.72023 0.0
H3917 H 0.40688 0.05701 0.72301 0.0
H3918 H 0.37113 0.97536 0.73659 0.0
H3919 H 0.36509 0.98375 0.75765 0.0
H3920 H 0.35041 0.97769 0.73542 0.0
H3921 H 0.43395 0.061 0.73965 0.0
H3922 H 0.42941 0.04786 0.76089 0.0
H3923 H 0.43528 0.03935 0.73974 0.0
H3924 H 0.4195 0.00768 0.80254 0.0
H3925 H 0.43374 0.98772 0.7515 0.0
H3926 H 0.3819 0.01225 0.77982 0.0
H3927 H 0.40353 0.03438 0.78262 0.0
H3928 H 0.39735 0.01816 0.80146 0.0
H3929 H 0.39884 0.98822 0.71873 0.0
H3930 H 0.41963 0.98601 0.72067 0.0
H3931 H 0.4214 0.00906 0.7188 0.0
C3932 C 0.98172 0.34041 0.77347 0.0
C3933 C 0.97899 0.33736 0.75334 0.0
C3934 C 0.98635 0.35819 0.78267 0.0
C3935 C 0.98876 0.37335 0.7714 0.0
C3936 C 0.98672 0.37052 0.75103 0.0
C3937 C 0.98162 0.35246 0.74224 0.0
C3938 C 0.988 0.36053 0.80442 0.0
C3939 C 0.98961 0.38647 0.73852 0.0
C3940 C 0.98058 0.41234 0.79281 0.0
C3941 C 0.99889 0.42699 0.79861 0.0
C3942 C 0.97712 0.39474 0.78426 0.0
C3943 C 0.99234 0.39182 0.78089 0.0
C3944 C 0.01087 0.40656 0.78643 0.0
C3945 C 0.01391 0.42388 0.79543 0.0
C3946 C 0.95712 0.37926 0.77878 0.0
C3947 C 0.02747 0.40407 0.78275 0.0
H3948 H 0.9796 0.32871 0.78208 0.0
H3949 H 0.97968 0.35016 0.72665 0.0
H3950 H 0.00178 0.37285 0.80982 0.0
H3951 H 0.97709 0.36361 0.80932 0.0
H3952 H 0.98637 0.34756 0.81107 0.0
H3953 H 0.98896 0.38238 0.72297 0.0
H3954 H 0.9787 0.39049 0.74062 0.0
H3955 H 0.00339 0.39935 0.74277 0.0
H3956 H 0.96887 0.41466 0.79472 0.0
H3957 H 0.02809 0.43494 0.80008 0.0
H3958 H 0.95425 0.36598 0.78561 0.0
H3959 H 0.95488 0.37583 0.76295 0.0
H3960 H 0.94684 0.38349 0.78321 0.0
H3961 H 0.02665 0.39194 0.79045 0.0
H3962 H 0.04102 0.4171 0.7875 0.0
H3963 H 0.02728 0.40058 0.76714 0.0
C3964 C 0.65189 0.61239 0.6987 0.0
C3965 C 0.66566 0.62976 0.70824 0.0
C3966 C 0.63471 0.6012 0.70655 0.0
C3967 C 0.63126 0.60756 0.72434 0.0
C3968 C 0.64511 0.6251 0.73397 0.0
C3969 C 0.6621 0.63595 0.72582 0.0
C3970 C 0.62027 0.58256 0.69589 0.0
C3971 C 0.64203 0.6324 0.75297 0.0
C3972 C 0.58206 0.58921 0.73982 0.0
C3973 C 0.58101 0.57639 0.75339 0.0
C3974 C 0.59806 0.59893 0.72969 0.0
C3975 C 0.6134 0.5958 0.73325 0.0
C3976 C 0.6122 0.58249 0.74653 0.0
C3977 C 0.59606 0.57299 0.75644 0.0
C3978 C 0.59878 0.61299 0.71562 0.0
C3979 C 0.62828 0.57882 0.75083 0.0
H3980 H 0.65453 0.60754 0.68509 0.0
H3981 H 0.67263 0.64937 0.7333 0.0
H3982 H 0.61719 0.57055 0.70501 0.0
H3983 H 0.60697 0.58269 0.69281 0.0
H3984 H 0.62496 0.57978 0.68207 0.0
H3985 H 0.65414 0.64643 0.7585 0.0
H3986 H 0.62937 0.63392 0.75135 0.0
H3987 H 0.63959 0.62196 0.76392 0.0
H3988 H 0.57039 0.59174 0.73721 0.0
H3989 H 0.59552 0.56334 0.76711 0.0
H3990 H 0.60262 0.60979 0.70147 0.0
H3991 H 0.60975 0.62766 0.721 0.0
H3992 H 0.58521 0.61276 0.71343 0.0
H3993 H 0.63273 0.57525 0.73726 0.0
H3994 H 0.62459 0.56698 0.76039 0.0
H3995 H 0.64047 0.59195 0.75795 0.0
C3996 C 0.70267 0.71525 0.6499 0.0
C3997 C 0.69511 0.69929 0.66083 0.0
C3998 C 0.69166 0.72281 0.64275 0.0
C3999 C 0.67271 0.71447 0.647 0.0
C4000 C 0.66488 0.69812 0.65772 0.0
C4001 C 0.67614 0.69059 0.66435 0.0
C4002 C 0.70043 0.74001 0.63101 0.0
C4003 C 0.64484 0.68906 0.66282 0.0
C4004 C 0.65493 0.74971 0.64551 0.0
C4005 C 0.64528 0.74487 0.6272 0.0
C4006 C 0.66289 0.73908 0.65268 0.0
C4007 C 0.66156 0.7236 0.64098 0.0
C4008 C 0.65112 0.71818 0.62278 0.0
C4009 C 0.64295 0.72883 0.61616 0.0
C4010 C 0.67355 0.74505 0.67234 0.0
C4011 C 0.64965 0.70198 0.60975 0.0
H4012 H 0.71729 0.72191 0.64701 0.0
H4013 H 0.67027 0.67833 0.67293 0.0
H4014 H 0.69183 0.73719 0.61719 0.0
H4015 H 0.70093 0.75248 0.63896 0.0
H4016 H 0.7149 0.74389 0.62779 0.0
H4017 H 0.64054 0.67575 0.67024 0.0
H4018 H 0.64311 0.69931 0.67242 0.0
H4019 H 0.63524 0.68567 0.64966 0.0
H4020 H 0.6567 0.76217 0.65398 0.0
H4021 H 0.63566 0.7253 0.60188 0.0
H4022 H 0.68874 0.7513 0.67073 0.0
H4023 H 0.66922 0.73246 0.68092 0.0
H4024 H 0.67136 0.75582 0.68049 0.0
H4025 H 0.66357 0.70611 0.60461 0.0
H4026 H 0.63947 0.69832 0.597 0.0
H4027 H 0.64538 0.68904 0.61774 0.0
C4028 C 0.29744 0.97302 0.67191 0.0
C4029 C 0.30901 0.98796 0.66098 0.0
C4030 C 0.28488 0.95481 0.66307 0.0
C4031 C 0.28351 0.9517 0.64276 0.0
C4032 C 0.29562 0.9666 0.63171 0.0
C4033 C 0.30844 0.98453 0.64102 0.0
C4034 C 0.27256 0.93915 0.6754 0.0
C4035 C 0.29429 0.96395 0.61 0.0
C4036 C 0.25598 0.90082 0.61965 0.0
C4037 C 0.23817 0.89882 0.61567 0.0
C4038 C 0.27093 0.91794 0.62847 0.0
C4039 C 0.26812 0.93356 0.63302 0.0
C4040 C 0.25032 0.93177 0.62874 0.0
C4041 C 0.23554 0.91438 0.62042 0.0
C4042 C 0.28965 0.91924 0.63318 0.0
C4043 C 0.24679 0.94818 0.63316 0.0
H4044 H 0.29805 0.97562 0.6874 0.0
H4045 H 0.31735 0.99612 0.63255 0.0
H4046 H 0.25786 0.93596 0.67281 0.0
H4047 H 0.27283 0.92581 0.67147 0.0
H4048 H 0.27694 0.94318 0.69102 0.0
H4049 H 0.30574 0.97636 0.60368 0.0
H4050 H 0.29473 0.95086 0.60539 0.0
H4051 H 0.28068 0.96208 0.60399 0.0
H4052 H 0.25827 0.88901 0.61585 0.0
H4053 H 0.22179 0.91293 0.61793 0.0
H4054 H 0.29357 0.92246 0.64893 0.0
H4055 H 0.30068 0.93113 0.62593 0.0
H4056 H 0.28955 0.9058 0.62872 0.0
H4057 H 0.2486 0.95172 0.64896 0.0
H4058 H 0.23247 0.94484 0.6278 0.0
H4059 H 0.2571 0.96112 0.62653 0.0
C4060 C 0.02421 0.2892 0.70306 0.0
C4061 C 0.01228 0.29698 0.70313 0.0
C4062 C 0.04028 0.29723 0.6929 0.0
C4063 C 0.04439 0.31327 0.68231 0.0
C4064 C 0.03275 0.32159 0.68281 0.0
C4065 C 0.01689 0.31342 0.69334 0.0
C4066 C 0.05252 0.28814 0.69297 0.0
C4067 C 0.03658 0.33857 0.67154 0.0
C4068 C 0.09307 0.34034 0.66471 0.0
C4069 C 0.09002 0.33145 0.64614 0.0
C4070 C 0.07827 0.33484 0.6766 0.0
C4071 C 0.06003 0.32035 0.66958 0.0
C4072 C 0.05682 0.31184 0.65057 0.0
C4073 C 0.07189 0.3174 0.63913 0.0
C4074 C 0.08226 0.34407 0.69687 0.0
C4075 C 0.03753 0.29655 0.64243 0.0
H4076 H 0.02086 0.27664 0.71077 0.0
H4077 H 0.00771 0.31948 0.69327 0.0
H4078 H 0.05167 0.28169 0.67831 0.0
H4079 H 0.06737 0.29912 0.69684 0.0
H4080 H 0.04831 0.2768 0.70323 0.0
H4081 H 0.02706 0.34426 0.67463 0.0
H4082 H 0.05126 0.3502 0.67488 0.0
H4083 H 0.03475 0.33434 0.65588 0.0
H4084 H 0.10713 0.35114 0.67014 0.0
H4085 H 0.06953 0.31071 0.62467 0.0
H4086 H 0.07954 0.33318 0.70736 0.0
H4087 H 0.07276 0.34985 0.69946 0.0
H4088 H 0.09697 0.35583 0.69976 0.0
H4089 H 0.03276 0.28371 0.65071 0.0
H4090 H 0.03721 0.29225 0.627 0.0
H4091 H 0.02736 0.30169 0.64385 0.0
C4092 C 0.30516 0.32433 0.66003 0.0
C4093 C 0.30399 0.32205 0.67984 0.0
C4094 C 0.2933 0.32925 0.64959 0.0
C4095 C 0.2803 0.33243 0.65931 0.0
C4096 C 0.27962 0.33092 0.67947 0.0
C4097 C 0.29131 0.32548 0.68946 0.0
C4098 C 0.29415 0.33026 0.62805 0.0
C4099 C 0.26629 0.33468 0.69042 0.0
C4100 C 0.25805 0.35799 0.63358 0.0
C4101 C 0.24027 0.3427 0.62704 0.0
C4102 C 0.27116 0.35494 0.6443 0.0
C4103 C 0.26659 0.33609 0.64819 0.0
C4104 C 0.24883 0.32059 0.64145 0.0
C4105 C 0.23582 0.32409 0.63126 0.0
C4106 C 0.28985 0.37187 0.65159 0.0
C4107 C 0.2435 0.30023 0.64503 0.0
H4108 H 0.3149 0.32158 0.65254 0.0
H4109 H 0.2905 0.32389 0.70481 0.0
H4110 H 0.28063 0.31911 0.6206 0.0
H4111 H 0.29633 0.3443 0.62387 0.0
H4112 H 0.30555 0.32814 0.62279 0.0
H4113 H 0.26866 0.33458 0.70625 0.0
H4114 H 0.26782 0.34873 0.68721 0.0
H4115 H 0.25164 0.32362 0.68576 0.0
H4116 H 0.2618 0.3724 0.63025 0.0
H4117 H 0.22202 0.31217 0.62682 0.0
H4118 H 0.30133 0.37057 0.64538 0.0
H4119 H 0.29198 0.37216 0.66749 0.0
H4120 H 0.29102 0.38567 0.64787 0.0
H4121 H 0.25398 0.2968 0.63949 0.0
H4122 H 0.22946 0.28971 0.63803 0.0
H4123 H 0.24349 0.2985 0.66074 0.0
C4124 C 0.66697 0.98534 0.64397 0.0
C4125 C 0.68631 0.99559 0.64215 0.0
C4126 C 0.65603 0.96634 0.63607 0.0
C4127 C 0.66465 0.95754 0.62601 0.0
C4128 C 0.68391 0.96828 0.62309 0.0
C4129 C 0.6945 0.9871 0.63127 0.0
C4130 C 0.63553 0.95536 0.63946 0.0
C4131 C 0.69362 0.95954 0.61224 0.0
C4132 C 0.64875 0.90488 0.62674 0.0
C4133 C 0.64089 0.89807 0.60779 0.0
C4134 C 0.65543 0.92399 0.63321 0.0
C4135 C 0.65432 0.93665 0.62038 0.0
C4136 C 0.64534 0.92957 0.60158 0.0
C4137 C 0.63867 0.91028 0.5955 0.0
C4138 C 0.66472 0.93089 0.65344 0.0
C4139 C 0.64387 0.94259 0.58749 0.0
H4140 H 0.66055 0.99181 0.65238 0.0
H4141 H 0.70939 0.99503 0.62957 0.0
H4142 H 0.62698 0.94738 0.62595 0.0
H4143 H 0.63331 0.94471 0.6501 0.0
H4144 H 0.6304 0.96488 0.64507 0.0
H4145 H 0.70818 0.97032 0.60964 0.0
H4146 H 0.6941 0.94835 0.6206 0.0
H4147 H 0.68571 0.95256 0.59814 0.0
H4148 H 0.65022 0.89535 0.63633 0.0
H4149 H 0.63265 0.90504 0.58081 0.0
H4150 H 0.65908 0.93915 0.66088 0.0
H4151 H 0.67997 0.9406 0.65282 0.0
H4152 H 0.66273 0.9189 0.66219 0.0
H4153 H 0.6391 0.95185 0.5945 0.0
H4154 H 0.63409 0.93444 0.57465 0.0
H4155 H 0.65789 0.95211 0.58256 0.0
C4156 C 0.01223 0.72199 0.69791 0.0
C4157 C 0.99866 0.70459 0.68826 0.0
C4158 C 0.02953 0.73324 0.69036 0.0
C4159 C 0.03331 0.72687 0.67279 0.0
C4160 C 0.01986 0.70907 0.66329 0.0
C4161 C 0.00271 0.69816 0.67113 0.0
C4162 C 0.04354 0.75215 0.70088 0.0
C4163 C 0.02339 0.70175 0.64456 0.0
C4164 C 0.06711 0.76296 0.64084 0.0
C4165 C 0.08308 0.76113 0.64418 0.0
C4166 C 0.051 0.75223 0.65041 0.0
C4167 C 0.05081 0.73928 0.66365 0.0
C4168 C 0.06697 0.73757 0.66736 0.0
C4169 C 0.08292 0.74851 0.65755 0.0
C4170 C 0.03401 0.75438 0.64597 0.0
C4171 C 0.06729 0.72394 0.68141 0.0
H4172 H 0.00921 0.72702 0.71118 0.0
H4173 H 0.99234 0.68468 0.66363 0.0
H4174 H 0.05733 0.75294 0.7034 0.0
H4175 H 0.04559 0.76398 0.69189 0.0
H4176 H 0.03898 0.75449 0.71496 0.0
H4177 H 0.01191 0.68716 0.63953 0.0
H4178 H 0.02482 0.71154 0.63321 0.0
H4179 H 0.03671 0.70145 0.64624 0.0
H4180 H 0.06701 0.77245 0.63029 0.0
H4181 H 0.09529 0.74717 0.66032 0.0
H4182 H 0.02941 0.75789 0.65946 0.0
H4183 H 0.02225 0.74066 0.63931 0.0
H4184 H 0.03674 0.76571 0.63599 0.0
H4185 H 0.06342 0.72689 0.69564 0.0
H4186 H 0.08124 0.72497 0.68337 0.0
H4187 H 0.05677 0.70904 0.6762 0.0
C4188 C 0.97498 0.6422 0.74335 0.0
C4189 C 0.95739 0.63166 0.73294 0.0
C4190 C 0.98335 0.63295 0.75289 0.0
C4191 C 0.97398 0.61272 0.75179 0.0
C4192 C 0.95647 0.60203 0.74092 0.0
C4193 C 0.94836 0.61162 0.73172 0.0
C4194 C 0.00196 0.64477 0.76452 0.0
C4195 C 0.94612 0.58043 0.73927 0.0
C4196 C 0.99891 0.585 0.76363 0.0
C4197 C 0.99261 0.57887 0.78167 0.0
C4198 C 0.99355 0.59671 0.75396 0.0
C4199 C 0.98186 0.60254 0.76273 0.0
C4200 C 0.97629 0.59715 0.78139 0.0
C4201 C 0.98164 0.58526 0.79058 0.0
C4202 C 0.99964 0.60207 0.73402 0.0
C4203 C 0.96404 0.60329 0.79133 0.0
H4204 H 0.98204 0.65769 0.74438 0.0
H4205 H 0.93487 0.60335 0.72353 0.0
H4206 H 0.00026 0.64205 0.77997 0.0
H4207 H 0.01218 0.64057 0.75986 0.0
H4208 H 0.00786 0.66034 0.76313 0.0
H4209 H 0.93312 0.57428 0.72942 0.0
H4210 H 0.95526 0.57507 0.73389 0.0
H4211 H 0.94232 0.57506 0.75369 0.0
H4212 H 0.0074 0.58001 0.75679 0.0
H4213 H 0.97704 0.58072 0.80469 0.0
H4214 H 0.0058 0.6177 0.73306 0.0
H4215 H 0.98726 0.59489 0.72333 0.0
H4216 H 0.01004 0.59786 0.72998 0.0
H4217 H 0.96999 0.61899 0.79121 0.0
H4218 H 0.96244 0.59939 0.8065 0.0
H4219 H 0.94994 0.5964 0.78343 0.0
C4220 C 0.36407 0.36396 0.74425 0.0
C4221 C 0.37454 0.35519 0.73934 0.0
C4222 C 0.37272 0.38221 0.75413 0.0
C4223 C 0.39228 0.39191 0.75911 0.0
C4224 C 0.40289 0.38315 0.75417 0.0
C4225 C 0.39392 0.36494 0.74441 0.0
C4226 C 0.36098 0.39112 0.75923 0.0
C4227 C 0.42382 0.39306 0.75914 0.0
C4228 C 0.42248 0.44557 0.76839 0.0
C4229 C 0.42686 0.44741 0.78837 0.0
C4230 C 0.41013 0.42768 0.75876 0.0
C4231 C 0.40196 0.41129 0.7694 0.0
C4232 C 0.40527 0.4133 0.78974 0.0
C4233 C 0.41775 0.43136 0.79898 0.0
C4234 C 0.40701 0.42614 0.73706 0.0
C4235 C 0.39666 0.39621 0.80162 0.0
H4236 H 0.34909 0.35656 0.74042 0.0
H4237 H 0.40221 0.35841 0.74064 0.0
H4238 H 0.36242 0.3944 0.77505 0.0
H4239 H 0.36603 0.40485 0.75245 0.0
H4240 H 0.34592 0.38165 0.75447 0.0
H4241 H 0.43003 0.3843 0.7542 0.0
H4242 H 0.43074 0.40688 0.75241 0.0
H4243 H 0.42702 0.39627 0.77496 0.0
H4244 H 0.42962 0.45792 0.7601 0.0
H4245 H 0.42094 0.4328 0.81447 0.0
H4246 H 0.39191 0.41707 0.7323 0.0
H4247 H 0.41447 0.41924 0.73069 0.0
H4248 H 0.41221 0.44036 0.73124 0.0
H4249 H 0.38151 0.38707 0.79716 0.0
H4250 H 0.39843 0.40049 0.81728 0.0
H4251 H 0.40341 0.38741 0.79919 0.0
C4252 C 0.64503 0.04201 0.68988 0.0
C4253 C 0.65767 0.03659 0.69755 0.0
C4254 C 0.62883 0.03808 0.69907 0.0
C4255 C 0.62527 0.02859 0.71633 0.0
C4256 C 0.63787 0.02288 0.72395 0.0
C4257 C 0.65386 0.02691 0.71446 0.0
C4258 C 0.61565 0.04429 0.69047 0.0
C4259 C 0.63465 0.01278 0.74234 0.0
C4260 C 0.59527 0.03446 0.7526 0.0
C4261 C 0.5786 0.01685 0.74965 0.0
C4262 C 0.61035 0.03871 0.74142 0.0
C4263 C 0.60871 0.02505 0.72688 0.0
C4264 C 0.59171 0.00747 0.72345 0.0
C4265 C 0.57689 0.00355 0.73492 0.0
C4266 C 0.62827 0.05754 0.74567 0.0
C4267 C 0.58937 0.99259 0.708 0.0
H4268 H 0.64787 0.04947 0.67681 0.0
H4269 H 0.66352 0.02264 0.7205 0.0
H4270 H 0.60127 0.03187 0.68804 0.0
H4271 H 0.61508 0.05487 0.70069 0.0
H4272 H 0.61999 0.0508 0.67657 0.0
H4273 H 0.6456 0.00896 0.74615 0.0
H4274 H 0.63448 0.02207 0.75444 0.0
H4275 H 0.62081 0.99952 0.74089 0.0
H4276 H 0.59678 0.04471 0.7641 0.0
H4277 H 0.56395 0.99002 0.73243 0.0
H4278 H 0.63259 0.06505 0.73229 0.0
H4279 H 0.63967 0.05492 0.75109 0.0
H4280 H 0.62689 0.0671 0.75659 0.0
H4281 H 0.59304 0.99903 0.694 0.0
H4282 H 0.57485 0.98029 0.70619 0.0
H4283 H 0.59907 0.98715 0.71175 0.0
loop_
_geom_bond_atom_site_label_1
_geom_bond_atom_site_label_2
_geom_bond_distance
_geom_bond_site_symmetry_2
_ccdc_geom_bond_type
Mn0 O5 2.095 1_655 S
Mn0 O15 2.162 . S
Mn0 O16 2.297 1_554 S
Mn0 O24 2.392 . S
Mn0 O25 2.209 1_655 S
Mn0 O26 2.094 . S
Mn1 O6 2.121 . S
Mn1 N8 2.257 . S
Mn1 N17 2.282 . S
Mn1 O25 2.215 . S
Mn1 O27 2.117 . S
C2 O24 1.232 1_456 S
C2 O25 1.283 1_556 S
C3 O15 1.281 . S
C3 O16 1.236 1_554 S
C4 O26 1.240 1_455 S
C4 O27 1.264 . S
O5 Mn0 2.095 1_455 S
O5 C14 1.250 . S
O6 Mn1 2.121 . S
O6 C14 1.258 . S
C7 N8 1.326 . S
C7 C11 1.444 1_554 S
C7 H13 0.929 . S
N8 Mn1 2.257 . S
N8 C7 1.326 . S
N8 C12 1.362 . S
C9 C10 1.258 . S
C9 C12 1.431 1_556 S
C9 C29 1.449 . S
C10 C9 1.258 . S
C10 C11 1.487 . S
C10 H30 0.931 . S
C11 C7 1.444 1_556 S
C11 C10 1.487 . S
C11 H31 0.936 . S
C12 N8 1.362 . S
C12 C9 1.431 1_554 S
C12 C22 1.476 . S
H13 C7 0.929 . S
C14 O5 1.250 . S
C14 O6 1.258 . S
O15 Mn0 2.162 . S
O15 C3 1.281 . S
O16 Mn0 2.297 1_556 S
O16 C3 1.236 1_556 S
N17 Mn1 2.282 . S
N17 C18 1.328 . S
N17 C22 1.318 . S
C18 N17 1.328 . S
C18 C19 1.457 . S
C18 H23 0.929 . S
C19 C18 1.457 . S
C19 C20 1.291 . S
C19 H32 0.931 . S
C20 C19 1.291 . S
C20 C21 1.373 . S
C20 H33 0.943 . S
C21 C20 1.373 . S
C21 C22 1.396 . S
C21 C28 1.403 1_554 S
C22 C12 1.476 . S
C22 N17 1.318 . S
C22 C21 1.396 . S
H23 C18 0.929 . S
O24 Mn0 2.392 . S
O24 C2 1.232 1_654 S
O25 Mn0 2.209 1_455 S
O25 Mn1 2.215 . S
O25 C2 1.283 1_554 S
O26 Mn0 2.094 . S
O26 C4 1.240 1_655 S
O27 Mn1 2.117 . S
O27 C4 1.264 . S
C28 C21 1.403 1_556 S
C28 C29 1.399 . S
C28 H34 0.929 . S
C29 C9 1.449 . S
C29 C28 1.399 . S
C29 H35 0.930 . S
H30 C10 0.931 . S
H31 C11 0.936 . S
H32 C19 0.931 . S
H33 C20 0.943 . S
H34 C28 0.929 . S
H35 C29 0.930 . S
Mn36 O41 2.095 . S
Mn36 O51 2.162 . S
Mn36 O52 2.297 . S
Mn36 O60 2.385 . S
Mn36 O61 2.209 . S
Mn36 O62 2.094 . S
Mn37 O42 2.121 . S
Mn37 N44 2.257 . S
Mn37 N53 2.282 . S
Mn37 O61 2.215 . S
Mn37 O63 2.117 . S
C38 O60 1.234 . S
C38 O61 1.283 . S
C39 O51 1.281 . S
C39 O52 1.236 . S
C40 O62 1.240 . S
C40 O63 1.264 . S
O41 Mn36 2.095 . S
O41 C50 1.250 . S
O42 Mn37 2.121 . S
O42 C50 1.258 . S
C43 N44 1.326 . S
C43 C47 1.460 . S
C43 H49 0.929 . S
N44 Mn37 2.257 . S
N44 C43 1.326 . S
N44 C48 1.362 . S
C45 C46 1.258 . S
C45 C48 1.431 . S
C45 C65 1.449 . S
C46 C45 1.258 . S
C46 C47 1.477 . S
C46 H66 0.931 . S
C47 C43 1.460 . S
C47 C46 1.477 . S
C47 H67 0.930 . S
C48 N44 1.362 . S
C48 C45 1.431 . S
C48 C58 1.476 . S
H49 C43 0.929 . S
C50 O41 1.250 . S
C50 O42 1.258 . S
O51 Mn36 2.162 . S
O51 C39 1.281 . S
O52 Mn36 2.297 . S
O52 C39 1.236 . S
N53 Mn37 2.282 . S
N53 C54 1.328 . S
N53 C58 1.318 . S
C54 N53 1.328 . S
C54 C55 1.457 . S
C54 H59 0.929 . S
C55 C54 1.457 . S
C55 C56 1.291 . S
C55 H68 0.931 . S
C56 C55 1.291 . S
C56 C57 1.373 . S
C56 H69 0.929 . S
C57 C56 1.373 . S
C57 C58 1.396 . S
C57 C64 1.403 . S
C58 C48 1.476 . S
C58 N53 1.318 . S
C58 C57 1.396 . S
H59 C54 0.929 . S
O60 Mn36 2.385 . S
O60 C38 1.234 . S
O61 Mn36 2.209 . S
O61 Mn37 2.215 . S
O61 C38 1.283 . S
O62 Mn36 2.094 . S
O62 C40 1.240 . S
O63 Mn37 2.117 . S
O63 C40 1.264 . S
C64 C57 1.403 . S
C64 C65 1.399 . S
C64 H70 0.929 . S
C65 C45 1.449 . S
C65 C64 1.399 . S
C65 H71 0.930 . S
H66 C46 0.931 . S
H67 C47 0.930 . S
H68 C55 0.931 . S
H69 C56 0.929 . S
H70 C64 0.929 . S
H71 C65 0.930 . S
Mn72 O77 2.095 1_565 S
Mn72 O87 2.162 . S
Mn72 O88 2.297 . S
Mn72 O96 2.385 . S
Mn72 O97 2.209 1_565 S
Mn72 O98 2.102 . S
Mn73 O78 2.121 . S
Mn73 N80 2.257 . S
Mn73 N89 2.282 . S
Mn73 O97 2.215 . S
Mn73 O99 2.133 . S
C74 O96 1.234 1_545 S
C74 O97 1.283 . S
C75 O87 1.281 . S
C75 O88 1.236 . S
C76 O98 1.235 1_556 S
C76 O99 1.256 1_566 S
O77 Mn72 2.095 1_545 S
O77 C86 1.250 . S
O78 Mn73 2.121 . S
O78 C86 1.258 . S
C79 N80 1.326 . S
C79 C83 1.460 . S
C79 H85 0.929 . S
N80 Mn73 2.257 . S
N80 C79 1.326 . S
N80 C84 1.362 . S
C81 C82 1.258 . S
C81 C84 1.431 . S
C81 C101 1.449 . S
C82 C81 1.258 . S
C82 C83 1.477 . S
C82 H102 0.931 . S
C83 C79 1.460 . S
C83 C82 1.477 . S
C83 H103 0.930 . S
C84 N80 1.362 . S
C84 C81 1.431 . S
C84 C94 1.476 . S
H85 C79 0.929 . S
C86 O77 1.250 . S
C86 O78 1.258 . S
O87 Mn72 2.162 . S
O87 C75 1.281 . S
O88 Mn72 2.297 . S
O88 C75 1.236 . S
N89 Mn73 2.282 . S
N89 C90 1.328 . S
N89 C94 1.318 . S
C90 N89 1.328 . S
C90 C91 1.457 . S
C90 H95 0.929 . S
C91 C90 1.457 . S
C91 C92 1.291 . S
C91 H104 0.931 . S
C92 C91 1.291 . S
C92 C93 1.373 . S
C92 H105 0.929 . S
C93 C92 1.373 . S
C93 C94 1.396 . S
C93 C100 1.403 . S
C94 C84 1.476 . S
C94 N89 1.318 . S
C94 C93 1.396 . S
H95 C90 0.929 . S
O96 Mn72 2.385 . S
O96 C74 1.234 1_565 S
O97 Mn72 2.209 1_545 S
O97 Mn73 2.215 . S
O97 C74 1.283 . S
O98 Mn72 2.102 . S
O98 C76 1.235 1_554 S
O99 Mn73 2.133 . S
O99 C76 1.256 1_544 S
C100 C93 1.403 . S
C100 C101 1.399 . S
C100 H106 0.929 . S
C101 C81 1.449 . S
C101 C100 1.399 . S
C101 H107 0.930 . S
H102 C82 0.931 . S
H103 C83 0.930 . S
H104 C91 0.931 . S
H105 C92 0.929 . S
H106 C100 0.929 . S
H107 C101 0.930 . S
Mn108 O113 2.095 1_655 S
Mn108 O123 2.162 . S
Mn108 O124 2.297 . S
Mn108 O132 2.385 . S
Mn108 O133 2.209 1_655 S
Mn108 O134 2.094 . S
Mn109 O114 2.121 . S
Mn109 N116 2.257 . S
Mn109 N125 2.282 . S
Mn109 O133 2.215 . S
Mn109 O135 2.117 . S
C110 O132 1.234 1_455 S
C110 O133 1.283 . S
C111 O123 1.281 . S
C111 O124 1.236 . S
C112 O134 1.240 . S
C112 O135 1.264 1_655 S
O113 Mn108 2.095 1_455 S
O113 C122 1.250 . S
O114 Mn109 2.121 . S
O114 C122 1.258 . S
C115 N116 1.326 . S
C115 C119 1.460 . S
C115 H121 0.929 . S
N116 Mn109 2.257 . S
N116 C115 1.326 . S
N116 C120 1.362 . S
C117 C118 1.258 . S
C117 C120 1.431 . S
C117 C137 1.449 . S
C118 C117 1.258 . S
C118 C119 1.477 . S
C118 H138 0.931 . S
C119 C115 1.460 . S
C119 C118 1.477 . S
C119 H139 0.930 . S
C120 N116 1.362 . S
C120 C117 1.431 . S
C120 C130 1.476 . S
H121 C115 0.929 . S
C122 O113 1.250 . S
C122 O114 1.258 . S
O123 Mn108 2.162 . S
O123 C111 1.281 . S
O124 Mn108 2.297 . S
O124 C111 1.236 . S
N125 Mn109 2.282 . S
N125 C126 1.328 . S
N125 C130 1.318 . S
C126 N125 1.328 . S
C126 C127 1.457 . S
C126 H131 0.929 . S
C127 C126 1.457 . S
C127 C128 1.291 . S
C127 H140 0.931 . S
C128 C127 1.291 . S
C128 C129 1.373 . S
C128 H141 0.929 . S
C129 C128 1.373 . S
C129 C130 1.396 . S
C129 C136 1.403 . S
C130 C120 1.476 . S
C130 N125 1.318 . S
C130 C129 1.396 . S
H131 C126 0.929 . S
O132 Mn108 2.385 . S
O132 C110 1.234 1_655 S
O133 Mn108 2.209 1_455 S
O133 Mn109 2.215 . S
O133 C110 1.283 . S
O134 Mn108 2.094 . S
O134 C112 1.240 . S
O135 Mn109 2.117 . S
O135 C112 1.264 1_455 S
C136 C129 1.403 . S
C136 C137 1.399 . S
C136 H142 0.920 1_554 S
C137 C117 1.449 . S
C137 C136 1.399 . S
C137 H143 0.930 1_554 S
H138 C118 0.931 . S
H139 C119 0.930 . S
H140 C127 0.931 . S
H141 C128 0.929 . S
H142 C136 0.920 1_556 S
H143 C137 0.930 1_556 S
Mn144 O149 2.095 1_554 S
Mn144 O159 2.162 . S
Mn144 O160 2.297 . S
Mn144 O168 2.385 . S
Mn144 O169 2.209 . S
Mn144 O170 2.094 1_554 S
Mn145 O150 2.121 . S
Mn145 N152 2.257 1_556 S
Mn145 N161 2.282 1_556 S
Mn145 O169 2.215 1_556 S
Mn145 O171 2.117 . S
C146 O168 1.234 . S
C146 O169 1.283 . S
C147 O159 1.281 . S
C147 O160 1.236 . S
C148 O170 1.240 . S
C148 O171 1.264 . S
O149 Mn144 2.095 1_556 S
O149 C158 1.250 . S
O150 Mn145 2.121 . S
O150 C158 1.258 . S
C151 N152 1.326 . S
C151 C155 1.460 . S
C151 H157 0.929 . S
N152 Mn145 2.257 1_554 S
N152 C151 1.326 . S
N152 C156 1.362 . S
C153 C154 1.258 . S
C153 C156 1.431 . S
C153 C173 1.449 . S
C154 C153 1.258 . S
C154 C155 1.477 . S
C154 H174 0.931 . S
C155 C151 1.460 . S
C155 C154 1.477 . S
C155 H175 0.930 . S
C156 N152 1.362 . S
C156 C153 1.431 . S
C156 C166 1.476 . S
H157 C151 0.929 . S
C158 O149 1.250 . S
C158 O150 1.258 . S
O159 Mn144 2.162 . S
O159 C147 1.281 . S
O160 Mn144 2.297 . S
O160 C147 1.236 . S
N161 Mn145 2.282 1_554 S
N161 C162 1.328 . S
N161 C166 1.318 . S
C162 N161 1.328 . S
C162 C163 1.457 . S
C162 H167 0.929 . S
C163 C162 1.457 . S
C163 C164 1.291 . S
C163 H176 0.931 . S
C164 C163 1.291 . S
C164 C165 1.373 . S
C164 H177 0.929 . S
C165 C164 1.373 . S
C165 C166 1.396 . S
C165 C172 1.403 . S
C166 C156 1.476 . S
C166 N161 1.318 . S
C166 C165 1.396 . S
H167 C162 0.929 . S
O168 Mn144 2.385 . S
O168 C146 1.234 . S
O169 Mn144 2.209 . S
O169 Mn145 2.215 1_554 S
O169 C146 1.283 . S
O170 Mn144 2.094 1_556 S
O170 C148 1.240 . S
O171 Mn145 2.117 . S
O171 C148 1.264 . S
C172 C165 1.403 . S
C172 C173 1.399 . S
C172 H178 0.929 . S
C173 C153 1.449 . S
C173 C172 1.399 . S
C173 H179 0.930 . S
H174 C154 0.931 . S
H175 C155 0.930 . S
H176 C163 0.931 . S
H177 C164 0.929 . S
H178 C172 0.929 . S
H179 C173 0.930 . S
Mn180 O185 2.095 1_545 S
Mn180 O195 2.162 . S
Mn180 O196 2.297 . S
Mn180 O204 2.385 . S
Mn180 O205 2.209 1_545 S
Mn180 O206 2.094 . S
Mn181 O186 2.121 . S
Mn181 N188 2.257 . S
Mn181 N197 2.282 . S
Mn181 O205 2.215 . S
Mn181 O207 2.117 . S
C182 O204 1.234 . S
C182 O205 1.283 1_545 S
C183 O195 1.281 . S
C183 O196 1.236 . S
C184 O206 1.240 . S
C184 O207 1.264 1_545 S
O185 Mn180 2.095 1_565 S
O185 C194 1.250 . S
O186 Mn181 2.121 . S
O186 C194 1.258 . S
C187 N188 1.326 . S
C187 C191 1.460 . S
C187 H193 0.929 . S
N188 Mn181 2.257 . S
N188 C187 1.326 . S
N188 C192 1.362 . S
C189 C190 1.258 . S
C189 C192 1.431 . S
C189 C209 1.449 1_554 S
C190 C189 1.258 . S
C190 C191 1.477 . S
C190 H210 0.931 1_554 S
C191 C187 1.460 . S
C191 C190 1.477 . S
C191 H211 0.930 . S
C192 N188 1.362 . S
C192 C189 1.431 . S
C192 C202 1.476 . S
H193 C187 0.929 . S
C194 O185 1.250 . S
C194 O186 1.258 . S
O195 Mn180 2.162 . S
O195 C183 1.281 . S
O196 Mn180 2.297 . S
O196 C183 1.236 . S
N197 Mn181 2.282 . S
N197 C198 1.328 . S
N197 C202 1.318 . S
C198 N197 1.328 . S
C198 C199 1.457 . S
C198 H203 0.929 . S
C199 C198 1.457 . S
C199 C200 1.291 . S
C199 H212 0.931 . S
C200 C199 1.291 . S
C200 C201 1.373 . S
C200 H213 0.929 . S
C201 C200 1.373 . S
C201 C202 1.396 . S
C201 C208 1.403 . S
C202 C192 1.476 . S
C202 N197 1.318 . S
C202 C201 1.396 . S
H203 C198 0.929 . S
O204 Mn180 2.385 . S
O204 C182 1.234 . S
O205 Mn180 2.209 1_565 S
O205 Mn181 2.215 . S
O205 C182 1.283 1_565 S
O206 Mn180 2.094 . S
O206 C184 1.240 . S
O207 Mn181 2.117 . S
O207 C184 1.264 1_565 S
C208 C201 1.403 . S
C208 C209 1.399 1_554 S
C208 H214 0.929 1_554 S
C209 C189 1.449 1_556 S
C209 C208 1.399 1_556 S
C209 H215 0.930 . S
H210 C190 0.931 1_556 S
H211 C191 0.930 . S
H212 C199 0.931 . S
H213 C200 0.929 . S
H214 C208 0.929 1_556 S
H215 C209 0.930 . S
Mn216 O221 2.095 . S
Mn216 O231 2.162 . S
Mn216 O232 2.297 . S
Mn216 O240 2.385 . S
Mn216 O241 2.209 . S
Mn216 O242 2.094 . S
Mn217 O222 2.121 . S
Mn217 N224 2.257 . S
Mn217 N233 2.282 . S
Mn217 O241 2.215 . S
Mn217 O243 2.117 . S
C218 O240 1.234 . S
C218 O241 1.283 . S
C219 O231 1.281 . S
C219 O232 1.236 . S
C220 O242 1.240 . S
C220 O243 1.264 . S
O221 Mn216 2.095 . S
O221 C230 1.250 . S
O222 Mn217 2.121 . S
O222 C230 1.258 . S
C223 N224 1.326 . S
C223 C227 1.460 . S
C223 H229 0.929 . S
N224 Mn217 2.257 . S
N224 C223 1.326 . S
N224 C228 1.362 . S
C225 C226 1.258 . S
C225 C228 1.431 . S
C225 C245 1.449 . S
C226 C225 1.258 . S
C226 C227 1.477 . S
C226 H246 0.931 . S
C227 C223 1.460 . S
C227 C226 1.477 . S
C227 H247 0.930 . S
C228 N224 1.362 . S
C228 C225 1.431 . S
C228 C238 1.476 . S
H229 C223 0.929 . S
C230 O221 1.250 . S
C230 O222 1.258 . S
O231 Mn216 2.162 . S
O231 C219 1.281 . S
O232 Mn216 2.297 . S
O232 C219 1.236 . S
N233 Mn217 2.282 . S
N233 C234 1.328 . S
N233 C238 1.318 . S
C234 N233 1.328 . S
C234 C235 1.457 . S
C234 H239 0.929 . S
C235 C234 1.457 . S
C235 C236 1.291 . S
C235 H248 0.931 . S
C236 C235 1.291 . S
C236 C237 1.373 . S
C236 H249 0.929 . S
C237 C236 1.373 . S
C237 C238 1.396 . S
C237 C244 1.403 . S
C238 C228 1.476 . S
C238 N233 1.318 . S
C238 C237 1.396 . S
H239 C234 0.929 . S
O240 Mn216 2.385 . S
O240 C218 1.234 . S
O241 Mn216 2.209 . S
O241 Mn217 2.215 . S
O241 C218 1.283 . S
O242 Mn216 2.094 . S
O242 C220 1.240 . S
O243 Mn217 2.117 . S
O243 C220 1.264 . S
C244 C237 1.403 . S
C244 C245 1.399 . S
C244 H250 0.929 . S
C245 C225 1.449 . S
C245 C244 1.399 . S
C245 H251 0.930 . S
H246 C226 0.931 . S
H247 C227 0.930 . S
H248 C235 0.931 . S
H249 C236 0.929 . S
H250 C244 0.929 . S
H251 C245 0.930 . S
Mn252 O257 2.095 . S
Mn252 O267 2.162 . S
Mn252 O268 2.297 . S
Mn252 O276 2.385 . S
Mn252 O277 2.209 . S
Mn252 O278 2.094 . S
Mn253 O258 2.121 . S
Mn253 N260 2.257 . S
Mn253 N269 2.282 . S
Mn253 O277 2.215 . S
Mn253 O279 2.117 . S
C254 O276 1.234 . S
C254 O277 1.283 . S
C255 O267 1.281 . S
C255 O268 1.236 . S
C256 O278 1.240 . S
C256 O279 1.264 . S
O257 Mn252 2.095 . S
O257 C266 1.250 . S
O258 Mn253 2.121 . S
O258 C266 1.258 . S
C259 N260 1.326 . S
C259 C263 1.460 . S
C259 H265 0.929 . S
N260 Mn253 2.257 . S
N260 C259 1.326 . S
N260 C264 1.362 . S
C261 C262 1.258 . S
C261 C264 1.431 . S
C261 C281 1.449 . S
C262 C261 1.258 . S
C262 C263 1.477 . S
C262 H282 0.931 . S
C263 C259 1.460 . S
C263 C262 1.477 . S
C263 H283 0.930 . S
C264 N260 1.362 . S
C264 C261 1.431 . S
C264 C274 1.476 . S
H265 C259 0.929 . S
C266 O257 1.250 . S
C266 O258 1.258 . S
O267 Mn252 2.162 . S
O267 C255 1.281 . S
O268 Mn252 2.297 . S
O268 C255 1.236 . S
N269 Mn253 2.282 . S
N269 C270 1.328 . S
N269 C274 1.318 . S
C270 N269 1.328 . S
C270 C271 1.457 . S
C270 H275 0.929 . S
C271 C270 1.457 . S
C271 C272 1.291 . S
C271 H284 0.931 . S
C272 C271 1.291 . S
C272 C273 1.373 . S
C272 H285 0.929 . S
C273 C272 1.373 . S
C273 C274 1.396 . S
C273 C280 1.403 . S
C274 C264 1.476 . S
C274 N269 1.318 . S
C274 C273 1.396 . S
H275 C270 0.929 . S
O276 Mn252 2.385 . S
O276 C254 1.234 . S
O277 Mn252 2.209 . S
O277 Mn253 2.215 . S
O277 C254 1.283 . S
O278 Mn252 2.094 . S
O278 C256 1.240 . S
O279 Mn253 2.117 . S
O279 C256 1.264 . S
C280 C273 1.403 . S
C280 C281 1.399 . S
C280 H286 0.929 . S
C281 C261 1.449 . S
C281 C280 1.399 . S
C281 H287 0.930 . S
H282 C262 0.931 . S
H283 C263 0.930 . S
H284 C271 0.931 . S
H285 C272 0.929 . S
H286 C280 0.929 . S
H287 C281 0.930 . S
Mn288 O293 2.095 . S
Mn288 O303 2.162 . S
Mn288 O304 2.297 . S
Mn288 O312 2.385 . S
Mn288 O313 2.209 . S
Mn288 O314 2.094 . S
Mn289 O294 2.121 . S
Mn289 N296 2.257 . S
Mn289 N305 2.282 . S
Mn289 O313 2.215 . S
Mn289 O315 2.117 . S
C290 O312 1.234 . S
C290 O313 1.283 . S
C291 O303 1.281 . S
C291 O304 1.236 . S
C292 O314 1.240 . S
C292 O315 1.264 . S
O293 Mn288 2.095 . S
O293 C302 1.250 . S
O294 Mn289 2.121 . S
O294 C302 1.258 . S
C295 N296 1.326 . S
C295 C299 1.460 . S
C295 H301 0.929 . S
N296 Mn289 2.257 . S
N296 C295 1.326 . S
N296 C300 1.362 . S
C297 C298 1.258 . S
C297 C300 1.431 . S
C297 C317 1.449 . S
C298 C297 1.258 . S
C298 C299 1.477 . S
C298 H318 0.931 . S
C299 C295 1.460 . S
C299 C298 1.477 . S
C299 H319 0.930 . S
C300 N296 1.362 . S
C300 C297 1.431 . S
C300 C310 1.476 . S
H301 C295 0.929 . S
C302 O293 1.250 . S
C302 O294 1.258 . S
O303 Mn288 2.162 . S
O303 C291 1.281 . S
O304 Mn288 2.297 . S
O304 C291 1.236 . S
N305 Mn289 2.282 . S
N305 C306 1.328 . S
N305 C310 1.318 . S
C306 N305 1.328 . S
C306 C307 1.457 . S
C306 H311 0.929 . S
C307 C306 1.457 . S
C307 C308 1.291 . S
C307 H320 0.931 . S
C308 C307 1.291 . S
C308 C309 1.373 . S
C308 H321 0.929 . S
C309 C308 1.373 . S
C309 C310 1.396 . S
C309 C316 1.403 . S
C310 C300 1.476 . S
C310 N305 1.318 . S
C310 C309 1.396 . S
H311 C306 0.929 . S
O312 Mn288 2.385 . S
O312 C290 1.234 . S
O313 Mn288 2.209 . S
O313 Mn289 2.215 . S
O313 C290 1.283 . S
O314 Mn288 2.094 . S
O314 C292 1.240 . S
O315 Mn289 2.117 . S
O315 C292 1.264 . S
C316 C309 1.403 . S
C316 C317 1.399 . S
C316 H322 0.929 . S
C317 C297 1.449 . S
C317 C316 1.399 . S
C317 H323 0.930 . S
H318 C298 0.931 . S
H319 C299 0.930 . S
H320 C307 0.931 . S
H321 C308 0.929 . S
H322 C316 0.929 . S
H323 C317 0.930 . S
Mn324 O329 2.095 . S
Mn324 O339 2.162 . S
Mn324 O340 2.297 . S
Mn324 O348 2.385 . S
Mn324 O349 2.209 . S
Mn324 O350 2.094 . S
Mn325 O330 2.121 . S
Mn325 N332 2.257 . S
Mn325 N341 2.282 . S
Mn325 O349 2.215 . S
Mn325 O351 2.117 . S
C326 O348 1.234 . S
C326 O349 1.283 . S
C327 O339 1.281 . S
C327 O340 1.236 . S
C328 O350 1.240 . S
C328 O351 1.264 . S
O329 Mn324 2.095 . S
O329 C338 1.250 . S
O330 Mn325 2.121 . S
O330 C338 1.258 . S
C331 N332 1.326 . S
C331 C335 1.468 1_565 S
C331 H337 0.929 1_565 S
N332 Mn325 2.257 . S
N332 C331 1.326 . S
N332 C336 1.362 . S
C333 C334 1.258 . S
C333 C336 1.431 . S
C333 C353 1.449 . S
C334 C333 1.258 . S
C334 C335 1.428 1_565 S
C334 H354 0.931 . S
C335 C331 1.468 1_545 S
C335 C334 1.428 1_545 S
C335 H355 0.971 . S
C336 N332 1.362 . S
C336 C333 1.431 . S
C336 C346 1.476 . S
H337 C331 0.929 1_545 S
C338 O329 1.250 . S
C338 O330 1.258 . S
O339 Mn324 2.162 . S
O339 C327 1.281 . S
O340 Mn324 2.297 . S
O340 C327 1.236 . S
N341 Mn325 2.282 . S
N341 C342 1.328 . S
N341 C346 1.318 . S
C342 N341 1.328 . S
C342 C343 1.457 . S
C342 H347 0.929 . S
C343 C342 1.457 . S
C343 C344 1.291 . S
C343 H356 0.931 . S
C344 C343 1.291 . S
C344 C345 1.373 . S
C344 H357 0.929 . S
C345 C344 1.373 . S
C345 C346 1.396 . S
C345 C352 1.403 . S
C346 C336 1.476 . S
C346 N341 1.318 . S
C346 C345 1.396 . S
H347 C342 0.929 . S
O348 Mn324 2.385 . S
O348 C326 1.234 . S
O349 Mn324 2.209 . S
O349 Mn325 2.215 . S
O349 C326 1.283 . S
O350 Mn324 2.094 . S
O350 C328 1.240 . S
O351 Mn325 2.117 . S
O351 C328 1.264 . S
C352 C345 1.403 . S
C352 C353 1.399 . S
C352 H358 0.929 . S
C353 C333 1.449 . S
C353 C352 1.399 . S
C353 H359 0.930 . S
H354 C334 0.931 . S
H355 C335 0.971 . S
H356 C343 0.931 . S
H357 C344 0.929 . S
H358 C352 0.929 . S
H359 C353 0.930 . S
Mn360 O365 2.095 . S
Mn360 O375 2.162 . S
Mn360 O376 2.297 . S
Mn360 O384 2.385 . S
Mn360 O385 2.209 . S
Mn360 O386 2.094 . S
Mn361 O366 2.121 . S
Mn361 N368 2.257 . S
Mn361 N377 2.282 . S
Mn361 O385 2.215 . S
Mn361 O387 2.117 . S
C362 O384 1.234 . S
C362 O385 1.283 . S
C363 O375 1.281 . S
C363 O376 1.236 . S
C364 O386 1.240 . S
C364 O387 1.264 . S
O365 Mn360 2.095 . S
O365 C374 1.250 . S
O366 Mn361 2.121 . S
O366 C374 1.258 . S
C367 N368 1.326 . S
C367 C371 1.460 . S
C367 H373 0.929 . S
N368 Mn361 2.257 . S
N368 C367 1.326 . S
N368 C372 1.362 . S
C369 C370 1.258 . S
C369 C372 1.431 . S
C369 C389 1.449 . S
C370 C369 1.258 . S
C370 C371 1.477 . S
C370 H390 0.931 . S
C371 C367 1.460 . S
C371 C370 1.477 . S
C371 H391 0.930 . S
C372 N368 1.362 . S
C372 C369 1.431 . S
C372 C382 1.476 . S
H373 C367 0.929 . S
C374 O365 1.250 . S
C374 O366 1.258 . S
O375 Mn360 2.162 . S
O375 C363 1.281 . S
O376 Mn360 2.297 . S
O376 C363 1.236 . S
N377 Mn361 2.282 . S
N377 C378 1.328 . S
N377 C382 1.318 . S
C378 N377 1.328 . S
C378 C379 1.457 . S
C378 H383 0.929 . S
C379 C378 1.457 . S
C379 C380 1.291 . S
C379 H392 0.931 . S
C380 C379 1.291 . S
C380 C381 1.373 . S
C380 H393 0.929 . S
C381 C380 1.373 . S
C381 C382 1.396 . S
C381 C388 1.403 . S
C382 C372 1.476 . S
C382 N377 1.318 . S
C382 C381 1.396 . S
H383 C378 0.929 . S
O384 Mn360 2.385 . S
O384 C362 1.234 . S
O385 Mn360 2.209 . S
O385 Mn361 2.215 . S
O385 C362 1.283 . S
O386 Mn360 2.094 . S
O386 C364 1.240 . S
O387 Mn361 2.117 . S
O387 C364 1.264 . S
C388 C381 1.403 . S
C388 C389 1.399 . S
C388 H394 0.929 . S
C389 C369 1.449 . S
C389 C388 1.399 . S
C389 H395 0.930 . S
H390 C370 0.931 . S
H391 C371 0.930 . S
H392 C379 0.931 . S
H393 C380 0.929 . S
H394 C388 0.929 . S
H395 C389 0.930 . S
Mn396 O401 2.095 . S
Mn396 O411 2.162 . S
Mn396 O412 2.297 . S
Mn396 O420 2.385 . S
Mn396 O421 2.209 . S
Mn396 O422 2.094 . S
Mn397 O402 2.121 . S
Mn397 N404 2.257 . S
Mn397 N413 2.282 . S
Mn397 O421 2.215 . S
Mn397 O423 2.117 . S
C398 O420 1.234 . S
C398 O421 1.283 . S
C399 O411 1.281 . S
C399 O412 1.236 . S
C400 O422 1.240 . S
C400 O423 1.264 . S
O401 Mn396 2.095 . S
O401 C410 1.250 . S
O402 Mn397 2.121 . S
O402 C410 1.258 . S
C403 N404 1.326 . S
C403 C407 1.460 . S
C403 H409 0.929 . S
N404 Mn397 2.257 . S
N404 C403 1.326 . S
N404 C408 1.362 . S
C405 C406 1.258 . S
C405 C408 1.431 . S
C405 C425 1.449 . S
C406 C405 1.258 . S
C406 C407 1.477 . S
C406 H426 0.931 . S
C407 C403 1.460 . S
C407 C406 1.477 . S
C407 H427 0.930 . S
C408 N404 1.362 . S
C408 C405 1.431 . S
C408 C418 1.476 . S
H409 C403 0.929 . S
C410 O401 1.250 . S
C410 O402 1.258 . S
O411 Mn396 2.162 . S
O411 C399 1.281 . S
O412 Mn396 2.297 . S
O412 C399 1.236 . S
N413 Mn397 2.282 . S
N413 C414 1.328 . S
N413 C418 1.318 . S
C414 N413 1.328 . S
C414 C415 1.457 . S
C414 H419 0.929 . S
C415 C414 1.457 . S
C415 C416 1.291 . S
C415 H428 0.931 . S
C416 C415 1.291 . S
C416 C417 1.373 . S
C416 H429 0.929 . S
C417 C416 1.373 . S
C417 C418 1.396 . S
C417 C424 1.403 . S
C418 C408 1.476 . S
C418 N413 1.318 . S
C418 C417 1.396 . S
H419 C414 0.929 . S
O420 Mn396 2.385 . S
O420 C398 1.234 . S
O421 Mn396 2.209 . S
O421 Mn397 2.215 . S
O421 C398 1.283 . S
O422 Mn396 2.094 . S
O422 C400 1.240 . S
O423 Mn397 2.117 . S
O423 C400 1.264 . S
C424 C417 1.403 . S
C424 C425 1.399 . S
C424 H430 0.929 . S
C425 C405 1.449 . S
C425 C424 1.399 . S
C425 H431 0.930 . S
H426 C406 0.931 . S
H427 C407 0.930 . S
H428 C415 0.931 . S
H429 C416 0.929 . S
H430 C424 0.929 . S
H431 C425 0.930 . S
Mn432 O437 2.095 . S
Mn432 O447 2.162 . S
Mn432 O448 2.297 . S
Mn432 O456 2.385 . S
Mn432 O457 2.209 . S
Mn432 O458 2.094 . S
Mn433 O438 2.121 . S
Mn433 N440 2.257 . S
Mn433 N449 2.282 . S
Mn433 O457 2.215 . S
Mn433 O459 2.117 . S
C434 O456 1.234 . S
C434 O457 1.283 . S
C435 O447 1.281 . S
C435 O448 1.236 . S
C436 O458 1.240 . S
C436 O459 1.264 . S
O437 Mn432 2.095 . S
O437 C446 1.250 . S
O438 Mn433 2.121 . S
O438 C446 1.258 . S
C439 N440 1.326 . S
C439 C443 1.460 . S
C439 H445 0.929 . S
N440 Mn433 2.257 . S
N440 C439 1.326 . S
N440 C444 1.362 . S
C441 C442 1.258 . S
C441 C444 1.431 . S
C441 C461 1.449 . S
C442 C441 1.258 . S
C442 C443 1.477 . S
C442 H462 0.931 . S
C443 C439 1.460 . S
C443 C442 1.477 . S
C443 H463 0.930 . S
C444 N440 1.362 . S
C444 C441 1.431 . S
C444 C454 1.476 . S
H445 C439 0.929 . S
C446 O437 1.250 . S
C446 O438 1.258 . S
O447 Mn432 2.162 . S
O447 C435 1.281 . S
O448 Mn432 2.297 . S
O448 C435 1.236 . S
N449 Mn433 2.282 . S
N449 C450 1.328 . S
N449 C454 1.318 . S
C450 N449 1.328 . S
C450 C451 1.457 . S
C450 H455 0.929 . S
C451 C450 1.457 . S
C451 C452 1.291 . S
C451 H464 0.931 . S
C452 C451 1.291 . S
C452 C453 1.373 . S
C452 H465 0.929 . S
C453 C452 1.373 . S
C453 C454 1.396 . S
C453 C460 1.403 . S
C454 C444 1.476 . S
C454 N449 1.318 . S
C454 C453 1.396 . S
H455 C450 0.929 . S
O456 Mn432 2.385 . S
O456 C434 1.234 . S
O457 Mn432 2.209 . S
O457 Mn433 2.215 . S
O457 C434 1.283 . S
O458 Mn432 2.094 . S
O458 C436 1.240 . S
O459 Mn433 2.117 . S
O459 C436 1.264 . S
C460 C453 1.403 . S
C460 C461 1.399 . S
C460 H466 0.929 . S
C461 C441 1.449 . S
C461 C460 1.399 . S
C461 H467 0.930 . S
H462 C442 0.931 . S
H463 C443 0.930 . S
H464 C451 0.931 . S
H465 C452 0.929 . S
H466 C460 0.929 . S
H467 C461 0.930 . S
Mn468 O473 2.095 . S
Mn468 O483 2.162 . S
Mn468 O484 2.297 . S
Mn468 O492 2.385 . S
Mn468 O493 2.209 . S
Mn468 O494 2.094 . S
Mn469 O474 2.121 . S
Mn469 N476 2.257 . S
Mn469 N485 2.282 . S
Mn469 O493 2.215 . S
Mn469 O495 2.117 . S
C470 O492 1.234 . S
C470 O493 1.283 . S
C471 O483 1.281 . S
C471 O484 1.236 . S
C472 O494 1.240 . S
C472 O495 1.264 . S
O473 Mn468 2.095 . S
O473 C482 1.250 . S
O474 Mn469 2.121 . S
O474 C482 1.258 . S
C475 N476 1.326 . S
C475 C479 1.460 . S
C475 H481 0.929 . S
N476 Mn469 2.257 . S
N476 C475 1.326 . S
N476 C480 1.362 . S
C477 C478 1.258 . S
C477 C480 1.431 . S
C477 C497 1.449 . S
C478 C477 1.258 . S
C478 C479 1.477 . S
C478 H498 0.931 . S
C479 C475 1.460 . S
C479 C478 1.477 . S
C479 H499 0.930 1_655 S
C480 N476 1.362 . S
C480 C477 1.431 . S
C480 C490 1.476 . S
H481 C475 0.929 . S
C482 O473 1.250 . S
C482 O474 1.258 . S
O483 Mn468 2.162 . S
O483 C471 1.281 . S
O484 Mn468 2.297 . S
O484 C471 1.236 . S
N485 Mn469 2.282 . S
N485 C486 1.328 . S
N485 C490 1.318 . S
C486 N485 1.328 . S
C486 C487 1.457 . S
C486 H491 0.929 . S
C487 C486 1.457 . S
C487 C488 1.291 . S
C487 H500 0.931 . S
C488 C487 1.291 . S
C488 C489 1.373 . S
C488 H501 0.929 . S
C489 C488 1.373 . S
C489 C490 1.396 . S
C489 C496 1.403 . S
C490 C480 1.476 . S
C490 N485 1.318 . S
C490 C489 1.396 . S
H491 C486 0.929 . S
O492 Mn468 2.385 . S
O492 C470 1.234 . S
O493 Mn468 2.209 . S
O493 Mn469 2.215 . S
O493 C470 1.283 . S
O494 Mn468 2.094 . S
O494 C472 1.240 . S
O495 Mn469 2.117 . S
O495 C472 1.264 . S
C496 C489 1.403 . S
C496 C497 1.399 . S
C496 H502 0.929 . S
C497 C477 1.449 . S
C497 C496 1.399 . S
C497 H503 0.930 . S
H498 C478 0.931 . S
H499 C479 0.930 1_455 S
H500 C487 0.931 . S
H501 C488 0.929 . S
H502 C496 0.929 . S
H503 C497 0.930 . S
Mn504 O509 2.095 . S
Mn504 O519 2.162 . S
Mn504 O520 2.297 . S
Mn504 O528 2.385 . S
Mn504 O529 2.209 . S
Mn504 O530 2.094 . S
Mn505 O510 2.121 . S
Mn505 N512 2.257 . S
Mn505 N521 2.282 . S
Mn505 O529 2.215 . S
Mn505 O531 2.117 . S
C506 O528 1.234 . S
C506 O529 1.283 . S
C507 O519 1.281 . S
C507 O520 1.236 . S
C508 O530 1.240 . S
C508 O531 1.264 . S
O509 Mn504 2.095 . S
O509 C518 1.250 . S
O510 Mn505 2.121 . S
O510 C518 1.258 . S
C511 N512 1.326 . S
C511 C515 1.460 . S
C511 H517 0.929 . S
N512 Mn505 2.257 . S
N512 C511 1.326 . S
N512 C516 1.362 . S
C513 C514 1.258 . S
C513 C516 1.431 . S
C513 C533 1.449 . S
C514 C513 1.258 . S
C514 C515 1.477 . S
C514 H534 0.931 . S
C515 C511 1.460 . S
C515 C514 1.477 . S
C515 H535 0.930 . S
C516 N512 1.362 . S
C516 C513 1.431 . S
C516 C526 1.476 . S
H517 C511 0.929 . S
C518 O509 1.250 . S
C518 O510 1.258 . S
O519 Mn504 2.162 . S
O519 C507 1.281 . S
O520 Mn504 2.297 . S
O520 C507 1.236 . S
N521 Mn505 2.282 . S
N521 C522 1.328 . S
N521 C526 1.318 . S
C522 N521 1.328 . S
C522 C523 1.457 . S
C522 H527 0.929 . S
C523 C522 1.457 . S
C523 C524 1.291 . S
C523 H536 0.931 . S
C524 C523 1.291 . S
C524 C525 1.373 . S
C524 H537 0.929 . S
C525 C524 1.373 . S
C525 C526 1.396 . S
C525 C532 1.403 . S
C526 C516 1.476 . S
C526 N521 1.318 . S
C526 C525 1.396 . S
H527 C522 0.929 . S
O528 Mn504 2.385 . S
O528 C506 1.234 . S
O529 Mn504 2.209 . S
O529 Mn505 2.215 . S
O529 C506 1.283 . S
O530 Mn504 2.094 . S
O530 C508 1.240 . S
O531 Mn505 2.117 . S
O531 C508 1.264 . S
C532 C525 1.403 . S
C532 C533 1.399 . S
C532 H538 0.929 . S
C533 C513 1.449 . S
C533 C532 1.399 . S
C533 H539 0.930 . S
H534 C514 0.931 . S
H535 C515 0.930 . S
H536 C523 0.931 . S
H537 C524 0.929 . S
H538 C532 0.929 . S
H539 C533 0.930 . S
Mn540 O545 2.095 . S
Mn540 O555 2.162 . S
Mn540 O556 2.297 . S
Mn540 O564 2.385 . S
Mn540 O565 2.209 . S
Mn540 O566 2.094 . S
Mn541 O546 2.121 . S
Mn541 N548 2.257 . S
Mn541 N557 2.282 . S
Mn541 O565 2.215 . S
Mn541 O567 2.117 . S
C542 O564 1.234 . S
C542 O565 1.283 . S
C543 O555 1.281 . S
C543 O556 1.236 . S
C544 O566 1.240 . S
C544 O567 1.264 . S
O545 Mn540 2.095 . S
O545 C554 1.250 . S
O546 Mn541 2.121 . S
O546 C554 1.258 . S
C547 N548 1.326 . S
C547 C551 1.460 . S
C547 H553 0.929 . S
N548 Mn541 2.257 . S
N548 C547 1.326 . S
N548 C552 1.362 . S
C549 C550 1.258 . S
C549 C552 1.431 . S
C549 C569 1.449 . S
C550 C549 1.258 . S
C550 C551 1.477 . S
C550 H570 0.931 . S
C551 C547 1.460 . S
C551 C550 1.477 . S
C551 H571 0.930 . S
C552 N548 1.362 . S
C552 C549 1.431 . S
C552 C562 1.476 . S
H553 C547 0.929 . S
C554 O545 1.250 . S
C554 O546 1.258 . S
O555 Mn540 2.162 . S
O555 C543 1.281 . S
O556 Mn540 2.297 . S
O556 C543 1.236 . S
N557 Mn541 2.282 . S
N557 C558 1.328 . S
N557 C562 1.318 . S
C558 N557 1.328 . S
C558 C559 1.457 . S
C558 H563 0.929 . S
C559 C558 1.457 . S
C559 C560 1.291 . S
C559 H572 0.931 . S
C560 C559 1.291 . S
C560 C561 1.373 . S
C560 H573 0.929 . S
C561 C560 1.373 . S
C561 C562 1.396 . S
C561 C568 1.403 . S
C562 C552 1.476 . S
C562 N557 1.318 . S
C562 C561 1.396 . S
H563 C558 0.929 . S
O564 Mn540 2.385 . S
O564 C542 1.234 . S
O565 Mn540 2.209 . S
O565 Mn541 2.215 . S
O565 C542 1.283 . S
O566 Mn540 2.094 . S
O566 C544 1.240 . S
O567 Mn541 2.117 . S
O567 C544 1.264 . S
C568 C561 1.403 . S
C568 C569 1.399 . S
C568 H574 0.929 . S
C569 C549 1.449 . S
C569 C568 1.399 . S
C569 H575 0.930 . S
H570 C550 0.931 . S
H571 C551 0.930 . S
H572 C559 0.931 . S
H573 C560 0.929 . S
H574 C568 0.929 . S
H575 C569 0.930 . S
Mn576 O581 2.095 . S
Mn576 O591 2.162 . S
Mn576 O592 2.297 . S
Mn576 O600 2.385 . S
Mn576 O601 2.209 . S
Mn576 O602 2.094 . S
Mn577 O582 2.121 . S
Mn577 N584 2.257 . S
Mn577 N593 2.282 . S
Mn577 O601 2.215 . S
Mn577 O603 2.117 . S
C578 O600 1.234 . S
C578 O601 1.283 . S
C579 O591 1.281 . S
C579 O592 1.236 . S
C580 O602 1.240 . S
C580 O603 1.264 . S
O581 Mn576 2.095 . S
O581 C590 1.250 . S
O582 Mn577 2.121 . S
O582 C590 1.258 . S
C583 N584 1.326 . S
C583 C587 1.460 . S
C583 H589 0.929 . S
N584 Mn577 2.257 . S
N584 C583 1.326 . S
N584 C588 1.362 . S
C585 C586 1.258 . S
C585 C588 1.431 . S
C585 C605 1.449 . S
C586 C585 1.258 . S
C586 C587 1.477 . S
C586 H606 0.931 . S
C587 C583 1.460 . S
C587 C586 1.477 . S
C587 H607 0.930 1_545 S
C588 N584 1.362 . S
C588 C585 1.431 . S
C588 C598 1.476 . S
H589 C583 0.929 . S
C590 O581 1.250 . S
C590 O582 1.258 . S
O591 Mn576 2.162 . S
O591 C579 1.281 . S
O592 Mn576 2.297 . S
O592 C579 1.236 . S
N593 Mn577 2.282 . S
N593 C594 1.328 . S
N593 C598 1.318 . S
C594 N593 1.328 . S
C594 C595 1.457 . S
C594 H599 0.929 . S
C595 C594 1.457 . S
C595 C596 1.291 . S
C595 H608 0.931 . S
C596 C595 1.291 . S
C596 C597 1.373 . S
C596 H609 0.929 . S
C597 C596 1.373 . S
C597 C598 1.396 . S
C597 C604 1.403 . S
C598 C588 1.476 . S
C598 N593 1.318 . S
C598 C597 1.396 . S
H599 C594 0.929 . S
O600 Mn576 2.385 . S
O600 C578 1.234 . S
O601 Mn576 2.209 . S
O601 Mn577 2.215 . S
O601 C578 1.283 . S
O602 Mn576 2.094 . S
O602 C580 1.240 . S
O603 Mn577 2.117 . S
O603 C580 1.264 . S
C604 C597 1.403 . S
C604 C605 1.399 . S
C604 H610 0.929 . S
C605 C585 1.449 . S
C605 C604 1.399 . S
C605 H611 0.930 . S
H606 C586 0.931 . S
H607 C587 0.930 1_565 S
H608 C595 0.931 . S
H609 C596 0.929 . S
H610 C604 0.929 . S
H611 C605 0.930 . S
Mn612 O617 2.095 . S
Mn612 O627 2.162 . S
Mn612 O628 2.297 . S
Mn612 O636 2.385 . S
Mn612 O637 2.209 . S
Mn612 O638 2.094 . S
Mn613 O618 2.121 . S
Mn613 N620 2.257 . S
Mn613 N629 2.282 . S
Mn613 O637 2.215 . S
Mn613 O639 2.117 . S
C614 O636 1.234 . S
C614 O637 1.283 . S
C615 O627 1.281 . S
C615 O628 1.236 . S
C616 O638 1.240 . S
C616 O639 1.264 . S
O617 Mn612 2.095 . S
O617 C626 1.250 . S
O618 Mn613 2.121 . S
O618 C626 1.258 . S
C619 N620 1.326 . S
C619 C623 1.460 . S
C619 H625 0.929 . S
N620 Mn613 2.257 . S
N620 C619 1.326 . S
N620 C624 1.362 . S
C621 C622 1.258 . S
C621 C624 1.431 . S
C621 C641 1.449 . S
C622 C621 1.258 . S
C622 C623 1.477 . S
C622 H642 0.931 . S
C623 C619 1.460 . S
C623 C622 1.477 . S
C623 H643 0.930 . S
C624 N620 1.362 . S
C624 C621 1.431 . S
C624 C634 1.476 . S
H625 C619 0.929 . S
C626 O617 1.250 . S
C626 O618 1.258 . S
O627 Mn612 2.162 . S
O627 C615 1.281 . S
O628 Mn612 2.297 . S
O628 C615 1.236 . S
N629 Mn613 2.282 . S
N629 C630 1.328 . S
N629 C634 1.318 . S
C630 N629 1.328 . S
C630 C631 1.457 . S
C630 H635 0.929 . S
C631 C630 1.457 . S
C631 C632 1.291 . S
C631 H644 0.931 . S
C632 C631 1.291 . S
C632 C633 1.373 . S
C632 H645 0.929 . S
C633 C632 1.373 . S
C633 C634 1.396 . S
C633 C640 1.403 . S
C634 C624 1.476 . S
C634 N629 1.318 . S
C634 C633 1.396 . S
H635 C630 0.929 . S
O636 Mn612 2.385 . S
O636 C614 1.234 . S
O637 Mn612 2.209 . S
O637 Mn613 2.215 . S
O637 C614 1.283 . S
O638 Mn612 2.094 . S
O638 C616 1.240 . S
O639 Mn613 2.117 . S
O639 C616 1.264 . S
C640 C633 1.403 . S
C640 C641 1.399 . S
C640 H646 0.929 . S
C641 C621 1.449 . S
C641 C640 1.399 . S
C641 H647 0.930 . S
H642 C622 0.931 . S
H643 C623 0.930 . S
H644 C631 0.931 . S
H645 C632 0.929 . S
H646 C640 0.929 . S
H647 C641 0.930 . S
H648 O674 0.856 . S
H649 O677 0.854 . S
H650 C685 0.930 . S
H651 C686 0.930 . S
H652 C688 0.930 . S
H653 C689 0.930 . S
H654 C691 0.931 . S
H655 C692 0.930 . S
H656 C694 0.930 . S
H657 C695 0.929 . S
H658 C697 0.930 . S
H659 C698 0.931 . S
H660 C700 0.930 . S
H661 C701 0.929 . S
H662 C703 0.931 . S
H663 C704 0.930 . S
H664 C706 0.930 . S
H665 C707 0.932 . S
H666 C709 0.930 . S
H667 C710 0.929 . S
H668 C712 0.931 . S
H669 C713 0.930 . S
H670 C715 0.929 . S
H671 C716 0.931 . S
H672 C718 0.930 . S
H673 C719 0.929 . S
O674 H648 0.856 . S
O674 C720 1.300 . S
O675 C720 1.209 . S
O676 C721 1.199 . S
O677 H649 0.854 . S
O677 C721 1.297 . S
C678 C679 1.404 . S
C678 C683 1.397 . S
C678 C684 1.492 . S
C679 C678 1.404 . S
C679 C680 1.396 . S
C679 C690 1.492 . S
C680 C679 1.396 . S
C680 C681 1.397 . S
C680 C696 1.509 . S
C681 C680 1.397 . S
C681 C682 1.412 . S
C681 C702 1.485 . S
C682 C681 1.412 . S
C682 C683 1.388 . S
C682 C708 1.490 . S
C683 C678 1.397 . S
C683 C682 1.388 . S
C683 C714 1.519 . S
C684 C678 1.492 . S
C684 C685 1.363 . S
C684 C689 1.390 . S
C685 H650 0.930 . S
C685 C684 1.363 . S
C685 C686 1.372 . S
C686 H651 0.930 . S
C686 C685 1.372 . S
C686 C687 1.383 . S
C687 C686 1.383 . S
C687 C688 1.395 . S
C688 H652 0.930 . S
C688 C687 1.395 . S
C688 C689 1.362 . S
C689 H653 0.930 . S
C689 C684 1.390 . S
C689 C688 1.362 . S
C690 C679 1.492 . S
C690 C691 1.377 . S
C690 C695 1.397 . S
C691 H654 0.931 . S
C691 C690 1.377 . S
C691 C692 1.376 . S
C692 H655 0.930 . S
C692 C691 1.376 . S
C692 C693 1.376 . S
C693 C692 1.376 . S
C693 C694 1.378 . S
C693 C720 1.486 . S
C694 H656 0.930 . S
C694 C693 1.378 . S
C694 C695 1.376 . S
C695 H657 0.929 . S
C695 C690 1.397 . S
C695 C694 1.376 . S
C696 C680 1.509 . S
C696 C697 1.391 . S
C696 C701 1.386 . S
C697 H658 0.930 . S
C697 C696 1.391 . S
C697 C698 1.375 . S
C698 H659 0.931 . S
C698 C697 1.375 . S
C698 C699 1.375 . S
C699 C698 1.375 . S
C699 C700 1.361 . S
C700 H660 0.930 . S
C700 C699 1.361 . S
C700 C701 1.399 . S
C701 H661 0.929 . S
C701 C696 1.386 . S
C701 C700 1.399 . S
C702 C681 1.485 . S
C702 C703 1.394 . S
C702 C707 1.360 . S
C703 H662 0.931 . S
C703 C702 1.394 . S
C703 C704 1.372 . S
C704 H663 0.930 . S
C704 C703 1.372 . S
C704 C705 1.397 . S
C705 C704 1.397 . S
C705 C706 1.390 . S
C705 C721 1.476 . S
C706 H664 0.930 . S
C706 C705 1.390 . S
C706 C707 1.366 . S
C707 H665 0.932 . S
C707 C702 1.360 . S
C707 C706 1.366 . S
C708 C682 1.490 . S
C708 C709 1.380 . S
C708 C713 1.386 . S
C709 H666 0.930 . S
C709 C708 1.380 . S
C709 C710 1.381 . S
C710 H667 0.929 . S
C710 C709 1.381 . S
C710 C711 1.371 . S
C711 C710 1.371 . S
C711 C712 1.380 . S
C712 H668 0.931 . S
C712 C711 1.380 . S
C712 C713 1.387 . S
C713 H669 0.930 . S
C713 C708 1.386 . S
C713 C712 1.387 . S
C714 C683 1.519 . S
C714 C715 1.377 . S
C714 C719 1.361 . S
C715 H670 0.929 . S
C715 C714 1.377 . S
C715 C716 1.386 . S
C716 H671 0.931 . S
C716 C715 1.386 . S
C716 C717 1.363 . S
C717 C716 1.363 . S
C717 C718 1.385 . S
C718 H672 0.930 . S
C718 C717 1.385 . S
C718 C719 1.396 . S
C719 H673 0.929 . S
C719 C714 1.361 . S
C719 C718 1.396 . S
C720 O674 1.300 . S
C720 O675 1.209 . S
C720 C693 1.486 . S
C721 O676 1.199 . S
C721 O677 1.297 . S
C721 C705 1.476 . S
H722 O748 0.856 . S
H723 O751 0.854 . S
H724 C759 0.930 . S
H725 C760 0.930 . S
H726 C762 0.930 . S
H727 C763 0.930 . S
H728 C765 0.931 . S
H729 C766 0.930 . S
H730 C768 0.930 . S
H731 C769 0.929 . S
H732 C771 0.930 . S
H733 C772 0.931 . S
H734 C774 0.930 . S
H735 C775 0.929 . S
H736 C777 0.931 . S
H737 C778 0.930 . S
H738 C780 0.930 . S
H739 C781 0.932 . S
H740 C783 0.930 . S
H741 C784 0.929 . S
H742 C786 0.931 . S
H743 C787 0.930 . S
H744 C789 0.929 . S
H745 C790 0.931 . S
H746 C792 0.930 . S
H747 C793 0.929 . S
O748 H722 0.856 . S
O748 C794 1.300 . S
O749 C794 1.209 . S
O750 C795 1.199 . S
O751 H723 0.854 . S
O751 C795 1.297 . S
C752 C753 1.404 . S
C752 C757 1.397 . S
C752 C758 1.492 . S
C753 C752 1.404 . S
C753 C754 1.396 . S
C753 C764 1.492 . S
C754 C753 1.396 . S
C754 C755 1.397 . S
C754 C770 1.509 . S
C755 C754 1.397 . S
C755 C756 1.412 . S
C755 C776 1.485 . S
C756 C755 1.412 . S
C756 C757 1.388 . S
C756 C782 1.490 . S
C757 C752 1.397 . S
C757 C756 1.388 . S
C757 C788 1.519 . S
C758 C752 1.492 . S
C758 C759 1.363 . S
C758 C763 1.390 . S
C759 H724 0.930 . S
C759 C758 1.363 . S
C759 C760 1.372 . S
C760 H725 0.930 . S
C760 C759 1.372 . S
C760 C761 1.383 . S
C761 C760 1.383 . S
C761 C762 1.395 . S
C762 H726 0.930 . S
C762 C761 1.395 . S
C762 C763 1.362 . S
C763 H727 0.930 . S
C763 C758 1.390 . S
C763 C762 1.362 . S
C764 C753 1.492 . S
C764 C765 1.377 . S
C764 C769 1.397 . S
C765 H728 0.931 . S
C765 C764 1.377 . S
C765 C766 1.376 . S
C766 H729 0.930 . S
C766 C765 1.376 . S
C766 C767 1.376 . S
C767 C766 1.376 . S
C767 C768 1.378 . S
C767 C794 1.486 . S
C768 H730 0.930 . S
C768 C767 1.378 . S
C768 C769 1.376 . S
C769 H731 0.929 . S
C769 C764 1.397 . S
C769 C768 1.376 . S
C770 C754 1.509 . S
C770 C771 1.391 . S
C770 C775 1.386 . S
C771 H732 0.930 . S
C771 C770 1.391 . S
C771 C772 1.375 . S
C772 H733 0.931 . S
C772 C771 1.375 . S
C772 C773 1.375 . S
C773 C772 1.375 . S
C773 C774 1.361 . S
C774 H734 0.930 . S
C774 C773 1.361 . S
C774 C775 1.399 . S
C775 H735 0.929 . S
C775 C770 1.386 . S
C775 C774 1.399 . S
C776 C755 1.485 . S
C776 C777 1.394 . S
C776 C781 1.360 . S
C777 H736 0.931 . S
C777 C776 1.394 . S
C777 C778 1.372 . S
C778 H737 0.930 . S
C778 C777 1.372 . S
C778 C779 1.397 . S
C779 C778 1.397 . S
C779 C780 1.390 . S
C779 C795 1.476 . S
C780 H738 0.930 . S
C780 C779 1.390 . S
C780 C781 1.366 . S
C781 H739 0.932 . S
C781 C776 1.360 . S
C781 C780 1.366 . S
C782 C756 1.490 . S
C782 C783 1.380 . S
C782 C787 1.386 . S
C783 H740 0.930 . S
C783 C782 1.380 . S
C783 C784 1.381 . S
C784 H741 0.929 . S
C784 C783 1.381 . S
C784 C785 1.371 . S
C785 C784 1.371 . S
C785 C786 1.380 . S
C786 H742 0.931 . S
C786 C785 1.380 . S
C786 C787 1.387 . S
C787 H743 0.930 . S
C787 C782 1.386 . S
C787 C786 1.387 . S
C788 C757 1.519 . S
C788 C789 1.377 . S
C788 C793 1.361 . S
C789 H744 0.929 . S
C789 C788 1.377 . S
C789 C790 1.386 . S
C790 H745 0.931 . S
C790 C789 1.386 . S
C790 C791 1.363 . S
C791 C790 1.363 . S
C791 C792 1.385 . S
C792 H746 0.930 . S
C792 C791 1.385 . S
C792 C793 1.396 . S
C793 H747 0.929 . S
C793 C788 1.361 . S
C793 C792 1.396 . S
C794 O748 1.300 . S
C794 O749 1.209 . S
C794 C767 1.486 . S
C795 O750 1.199 . S
C795 O751 1.297 . S
C795 C779 1.476 . S
H796 O822 0.856 . S
H797 O825 0.854 . S
H798 C833 0.930 . S
H799 C834 0.930 . S
H800 C836 0.930 . S
H801 C837 0.930 . S
H802 C839 0.931 . S
H803 C840 0.930 . S
H804 C842 0.930 . S
H805 C843 0.929 . S
H806 C845 0.930 . S
H807 C846 0.931 . S
H808 C848 0.930 . S
H809 C849 0.929 . S
H810 C851 0.931 . S
H811 C852 0.930 . S
H812 C854 0.930 . S
H813 C855 0.932 . S
H814 C857 0.930 . S
H815 C858 0.929 . S
H816 C860 0.931 . S
H817 C861 0.930 . S
H818 C863 0.929 . S
H819 C864 0.931 . S
H820 C866 0.930 . S
H821 C867 0.929 . S
O822 H796 0.856 . S
O822 C868 1.300 . S
O823 C868 1.209 . S
O824 C869 1.199 . S
O825 H797 0.854 . S
O825 C869 1.297 . S
C826 C827 1.404 . S
C826 C831 1.397 . S
C826 C832 1.492 . S
C827 C826 1.404 . S
C827 C828 1.396 . S
C827 C838 1.492 . S
C828 C827 1.396 . S
C828 C829 1.397 . S
C828 C844 1.509 . S
C829 C828 1.397 . S
C829 C830 1.412 . S
C829 C850 1.485 . S
C830 C829 1.412 . S
C830 C831 1.388 . S
C830 C856 1.490 . S
C831 C826 1.397 . S
C831 C830 1.388 . S
C831 C862 1.519 . S
C832 C826 1.492 . S
C832 C833 1.363 . S
C832 C837 1.390 . S
C833 H798 0.930 . S
C833 C832 1.363 . S
C833 C834 1.372 . S
C834 H799 0.930 . S
C834 C833 1.372 . S
C834 C835 1.383 . S
C835 C834 1.383 . S
C835 C836 1.395 . S
C836 H800 0.930 . S
C836 C835 1.395 . S
C836 C837 1.362 . S
C837 H801 0.930 . S
C837 C832 1.390 . S
C837 C836 1.362 . S
C838 C827 1.492 . S
C838 C839 1.377 . S
C838 C843 1.397 . S
C839 H802 0.931 . S
C839 C838 1.377 . S
C839 C840 1.376 . S
C840 H803 0.930 . S
C840 C839 1.376 . S
C840 C841 1.376 . S
C841 C840 1.376 . S
C841 C842 1.378 . S
C841 C868 1.486 . S
C842 H804 0.930 . S
C842 C841 1.378 . S
C842 C843 1.376 . S
C843 H805 0.929 . S
C843 C838 1.397 . S
C843 C842 1.376 . S
C844 C828 1.509 . S
C844 C845 1.391 . S
C844 C849 1.386 . S
C845 H806 0.930 . S
C845 C844 1.391 . S
C845 C846 1.375 . S
C846 H807 0.931 . S
C846 C845 1.375 . S
C846 C847 1.375 . S
C847 C846 1.375 . S
C847 C848 1.361 . S
C848 H808 0.930 . S
C848 C847 1.361 . S
C848 C849 1.399 . S
C849 H809 0.929 . S
C849 C844 1.386 . S
C849 C848 1.399 . S
C850 C829 1.485 . S
C850 C851 1.394 . S
C850 C855 1.360 . S
C851 H810 0.931 . S
C851 C850 1.394 . S
C851 C852 1.372 . S
C852 H811 0.930 . S
C852 C851 1.372 . S
C852 C853 1.397 . S
C853 C852 1.397 . S
C853 C854 1.390 . S
C853 C869 1.476 . S
C854 H812 0.930 . S
C854 C853 1.390 . S
C854 C855 1.366 . S
C855 H813 0.932 . S
C855 C850 1.360 . S
C855 C854 1.366 . S
C856 C830 1.490 . S
C856 C857 1.380 . S
C856 C861 1.386 . S
C857 H814 0.930 . S
C857 C856 1.380 . S
C857 C858 1.381 . S
C858 H815 0.929 . S
C858 C857 1.381 . S
C858 C859 1.371 . S
C859 C858 1.371 . S
C859 C860 1.380 . S
C860 H816 0.931 . S
C860 C859 1.380 . S
C860 C861 1.387 . S
C861 H817 0.930 . S
C861 C856 1.386 . S
C861 C860 1.387 . S
C862 C831 1.519 . S
C862 C863 1.377 . S
C862 C867 1.361 . S
C863 H818 0.929 . S
C863 C862 1.377 . S
C863 C864 1.386 . S
C864 H819 0.931 . S
C864 C863 1.386 . S
C864 C865 1.363 . S
C865 C864 1.363 . S
C865 C866 1.385 . S
C866 H820 0.930 . S
C866 C865 1.385 . S
C866 C867 1.396 . S
C867 H821 0.929 . S
C867 C862 1.361 . S
C867 C866 1.396 . S
C868 O822 1.300 . S
C868 O823 1.209 . S
C868 C841 1.486 . S
C869 O824 1.199 . S
C869 O825 1.297 . S
C869 C853 1.476 . S
H870 O896 0.856 . S
H871 O899 0.854 . S
H872 C907 0.930 . S
H873 C908 0.930 . S
H874 C910 0.930 . S
H875 C911 0.930 . S
H876 C913 0.931 . S
H877 C914 0.930 . S
H878 C916 0.930 . S
H879 C917 0.929 . S
H880 C919 0.930 . S
H881 C920 0.931 . S
H882 C922 0.930 . S
H883 C923 0.929 . S
H884 C925 0.931 . S
H885 C926 0.930 . S
H886 C928 0.930 . S
H887 C929 0.932 . S
H888 C931 0.930 . S
H889 C932 0.929 . S
H890 C934 0.931 . S
H891 C935 0.930 . S
H892 C937 0.929 . S
H893 C938 0.931 . S
H894 C940 0.930 . S
H895 C941 0.929 . S
O896 H870 0.856 . S
O896 C942 1.281 1_554 S
O897 C942 1.203 1_554 S
O898 C943 1.199 . S
O899 H871 0.854 . S
O899 C943 1.297 . S
C900 C901 1.404 . S
C900 C905 1.397 . S
C900 C906 1.492 . S
C901 C900 1.404 . S
C901 C902 1.396 . S
C901 C912 1.492 . S
C902 C901 1.396 . S
C902 C903 1.397 . S
C902 C918 1.509 . S
C903 C902 1.397 . S
C903 C904 1.412 . S
C903 C924 1.485 . S
C904 C903 1.412 . S
C904 C905 1.388 . S
C904 C930 1.490 . S
C905 C900 1.397 . S
C905 C904 1.388 . S
C905 C936 1.519 . S
C906 C900 1.492 . S
C906 C907 1.363 . S
C906 C911 1.390 . S
C907 H872 0.930 . S
C907 C906 1.363 . S
C907 C908 1.372 . S
C908 H873 0.930 . S
C908 C907 1.372 . S
C908 C909 1.383 . S
C909 C908 1.383 . S
C909 C910 1.395 . S
C910 H874 0.930 . S
C910 C909 1.395 . S
C910 C911 1.362 . S
C911 H875 0.930 . S
C911 C906 1.390 . S
C911 C910 1.362 . S
C912 C901 1.492 . S
C912 C913 1.377 . S
C912 C917 1.397 . S
C913 H876 0.931 . S
C913 C912 1.377 . S
C913 C914 1.376 . S
C914 H877 0.930 . S
C914 C913 1.376 . S
C914 C915 1.376 . S
C915 C914 1.376 . S
C915 C916 1.378 . S
C915 C942 1.513 . S
C916 H878 0.930 . S
C916 C915 1.378 . S
C916 C917 1.376 . S
C917 H879 0.929 . S
C917 C912 1.397 . S
C917 C916 1.376 . S
C918 C902 1.509 . S
C918 C919 1.391 . S
C918 C923 1.386 . S
C919 H880 0.930 . S
C919 C918 1.391 . S
C919 C920 1.375 . S
C920 H881 0.931 . S
C920 C919 1.375 . S
C920 C921 1.375 . S
C921 C920 1.375 . S
C921 C922 1.361 . S
C922 H882 0.930 . S
C922 C921 1.361 . S
C922 C923 1.399 . S
C923 H883 0.929 . S
C923 C918 1.386 . S
C923 C922 1.399 . S
C924 C903 1.485 . S
C924 C925 1.394 . S
C924 C929 1.360 . S
C925 H884 0.931 . S
C925 C924 1.394 . S
C925 C926 1.372 . S
C926 H885 0.930 . S
C926 C925 1.372 . S
C926 C927 1.397 . S
C927 C926 1.397 . S
C927 C928 1.390 . S
C927 C943 1.476 . S
C928 H886 0.930 . S
C928 C927 1.390 . S
C928 C929 1.366 . S
C929 H887 0.932 . S
C929 C924 1.360 . S
C929 C928 1.366 . S
C930 C904 1.490 . S
C930 C931 1.380 . S
C930 C935 1.386 . S
C931 H888 0.930 . S
C931 C930 1.380 . S
C931 C932 1.381 . S
C932 H889 0.929 . S
C932 C931 1.381 . S
C932 C933 1.371 . S
C933 C932 1.371 . S
C933 C934 1.380 . S
C934 H890 0.931 . S
C934 C933 1.380 . S
C934 C935 1.387 . S
C935 H891 0.930 . S
C935 C930 1.386 . S
C935 C934 1.387 . S
C936 C905 1.519 . S
C936 C937 1.377 . S
C936 C941 1.361 . S
C937 H892 0.929 . S
C937 C936 1.377 . S
C937 C938 1.386 . S
C938 H893 0.931 . S
C938 C937 1.386 . S
C938 C939 1.363 . S
C939 C938 1.363 . S
C939 C940 1.385 . S
C940 H894 0.930 . S
C940 C939 1.385 . S
C940 C941 1.396 . S
C941 H895 0.929 . S
C941 C936 1.361 . S
C941 C940 1.396 . S
C942 O896 1.281 1_556 S
C942 O897 1.203 1_556 S
C942 C915 1.513 . S
C943 O898 1.199 . S
C943 O899 1.297 . S
C943 C927 1.476 . S
H944 O970 0.856 . S
H945 O973 0.854 . S
H946 C981 0.930 . S
H947 C982 0.930 . S
H948 C984 0.930 . S
H949 C985 0.930 . S
H950 C987 0.931 . S
H951 C988 0.930 . S
H952 C990 0.930 . S
H953 C991 0.929 . S
H954 C993 0.930 . S
H955 C994 0.931 . S
H956 C996 0.930 . S
H957 C997 0.929 . S
H958 C999 0.931 . S
H959 C1000 0.930 . S
H960 C1002 0.930 . S
H961 C1003 0.932 . S
H962 C1005 0.930 . S
H963 C1006 0.929 . S
H964 C1008 0.931 . S
H965 C1009 0.930 . S
H966 C1011 0.929 . S
H967 C1012 0.931 . S
H968 C1014 0.930 . S
H969 C1015 0.929 . S
O970 H944 0.856 . S
O970 C1016 1.300 . S
O971 C1016 1.209 . S
O972 C1017 1.199 . S
O973 H945 0.854 . S
O973 C1017 1.297 . S
C974 C975 1.404 . S
C974 C979 1.397 . S
C974 C980 1.492 . S
C975 C974 1.404 . S
C975 C976 1.396 . S
C975 C986 1.492 . S
C976 C975 1.396 . S
C976 C977 1.397 . S
C976 C992 1.509 . S
C977 C976 1.397 . S
C977 C978 1.412 . S
C977 C998 1.485 . S
C978 C977 1.412 . S
C978 C979 1.388 . S
C978 C1004 1.490 . S
C979 C974 1.397 . S
C979 C978 1.388 . S
C979 C1010 1.519 . S
C980 C974 1.492 . S
C980 C981 1.363 . S
C980 C985 1.390 . S
C981 H946 0.930 . S
C981 C980 1.363 . S
C981 C982 1.372 . S
C982 H947 0.930 . S
C982 C981 1.372 . S
C982 C983 1.383 . S
C983 C982 1.383 . S
C983 C984 1.395 . S
C984 H948 0.930 . S
C984 C983 1.395 . S
C984 C985 1.362 . S
C985 H949 0.930 . S
C985 C980 1.390 . S
C985 C984 1.362 . S
C986 C975 1.492 . S
C986 C987 1.377 . S
C986 C991 1.397 . S
C987 H950 0.931 . S
C987 C986 1.377 . S
C987 C988 1.376 . S
C988 H951 0.930 . S
C988 C987 1.376 . S
C988 C989 1.376 . S
C989 C988 1.376 . S
C989 C990 1.378 . S
C989 C1016 1.486 1_556 S
C990 H952 0.930 . S
C990 C989 1.378 . S
C990 C991 1.376 . S
C991 H953 0.929 . S
C991 C986 1.397 . S
C991 C990 1.376 . S
C992 C976 1.509 . S
C992 C993 1.391 . S
C992 C997 1.386 . S
C993 H954 0.930 . S
C993 C992 1.391 . S
C993 C994 1.375 . S
C994 H955 0.931 . S
C994 C993 1.375 . S
C994 C995 1.375 . S
C995 C994 1.375 . S
C995 C996 1.361 . S
C996 H956 0.930 . S
C996 C995 1.361 . S
C996 C997 1.399 . S
C997 H957 0.929 . S
C997 C992 1.386 . S
C997 C996 1.399 . S
C998 C977 1.485 . S
C998 C999 1.394 . S
C998 C1003 1.360 . S
C999 H958 0.931 . S
C999 C998 1.394 . S
C999 C1000 1.372 . S
C1000 H959 0.930 . S
C1000 C999 1.372 . S
C1000 C1001 1.397 . S
C1001 C1000 1.397 . S
C1001 C1002 1.390 . S
C1001 C1017 1.476 . S
C1002 H960 0.930 . S
C1002 C1001 1.390 . S
C1002 C1003 1.366 . S
C1003 H961 0.932 . S
C1003 C998 1.360 . S
C1003 C1002 1.366 . S
C1004 C978 1.490 . S
C1004 C1005 1.380 . S
C1004 C1009 1.386 . S
C1005 H962 0.930 . S
C1005 C1004 1.380 . S
C1005 C1006 1.381 . S
C1006 H963 0.929 . S
C1006 C1005 1.381 . S
C1006 C1007 1.371 . S
C1007 C1006 1.371 . S
C1007 C1008 1.380 . S
C1008 H964 0.931 . S
C1008 C1007 1.380 . S
C1008 C1009 1.387 . S
C1009 H965 0.930 . S
C1009 C1004 1.386 . S
C1009 C1008 1.387 . S
C1010 C979 1.519 . S
C1010 C1011 1.377 . S
C1010 C1015 1.361 . S
C1011 H966 0.929 . S
C1011 C1010 1.377 . S
C1011 C1012 1.386 . S
C1012 H967 0.931 . S
C1012 C1011 1.386 . S
C1012 C1013 1.363 . S
C1013 C1012 1.363 . S
C1013 C1014 1.385 . S
C1014 H968 0.930 . S
C1014 C1013 1.385 . S
C1014 C1015 1.396 . S
C1015 H969 0.929 . S
C1015 C1010 1.361 . S
C1015 C1014 1.396 . S
C1016 O970 1.300 . S
C1016 O971 1.209 . S
C1016 C989 1.486 1_554 S
C1017 O972 1.199 . S
C1017 O973 1.297 . S
C1017 C1001 1.476 . S
H1018 O1044 0.856 . S
H1019 O1047 0.854 . S
H1020 C1055 0.930 . S
H1021 C1056 0.930 . S
H1022 C1058 0.930 . S
H1023 C1059 0.930 . S
H1024 C1061 0.931 . S
H1025 C1062 0.963 . S
H1026 C1064 0.930 . S
H1027 C1065 0.929 . S
H1028 C1067 0.930 . S
H1029 C1068 0.931 . S
H1030 C1070 0.930 . S
H1031 C1071 0.929 . S
H1032 C1073 0.931 . S
H1033 C1074 0.930 . S
H1034 C1076 0.930 . S
H1035 C1077 0.932 . S
H1036 C1079 0.930 . S
H1037 C1080 0.929 . S
H1038 C1082 0.931 . S
H1039 C1083 0.930 . S
H1040 C1085 0.929 . S
H1041 C1086 0.931 . S
H1042 C1088 0.930 . S
H1043 C1089 0.929 . S
O1044 H1018 0.856 . S
O1044 C1090 1.300 . S
O1045 C1090 1.209 . S
O1046 C1091 1.199 . S
O1047 H1019 0.854 . S
O1047 C1091 1.297 . S
C1048 C1049 1.404 . S
C1048 C1053 1.397 . S
C1048 C1054 1.492 . S
C1049 C1048 1.404 . S
C1049 C1050 1.396 . S
C1049 C1060 1.492 . S
C1050 C1049 1.396 . S
C1050 C1051 1.397 . S
C1050 C1066 1.509 . S
C1051 C1050 1.397 . S
C1051 C1052 1.412 . S
C1051 C1072 1.485 . S
C1052 C1051 1.412 . S
C1052 C1053 1.388 . S
C1052 C1078 1.490 . S
C1053 C1048 1.397 . S
C1053 C1052 1.388 . S
C1053 C1084 1.519 . S
C1054 C1048 1.492 . S
C1054 C1055 1.363 . S
C1054 C1059 1.390 . S
C1055 H1020 0.930 . S
C1055 C1054 1.363 . S
C1055 C1056 1.372 . S
C1056 H1021 0.930 . S
C1056 C1055 1.372 . S
C1056 C1057 1.383 . S
C1057 C1056 1.383 . S
C1057 C1058 1.395 . S
C1058 H1022 0.930 . S
C1058 C1057 1.395 . S
C1058 C1059 1.362 . S
C1059 H1023 0.930 . S
C1059 C1054 1.390 . S
C1059 C1058 1.362 . S
C1060 C1049 1.492 . S
C1060 C1061 1.377 . S
C1060 C1065 1.397 . S
C1061 H1024 0.931 . S
C1061 C1060 1.377 . S
C1061 C1062 1.376 . S
C1062 H1025 0.963 . S
C1062 C1061 1.376 . S
C1062 C1063 1.376 . S
C1063 C1062 1.376 . S
C1063 C1064 1.378 . S
C1063 C1090 1.486 1_556 S
C1064 H1026 0.930 . S
C1064 C1063 1.378 . S
C1064 C1065 1.376 . S
C1065 H1027 0.929 . S
C1065 C1060 1.397 . S
C1065 C1064 1.376 . S
C1066 C1050 1.509 . S
C1066 C1067 1.391 . S
C1066 C1071 1.386 . S
C1067 H1028 0.930 . S
C1067 C1066 1.391 . S
C1067 C1068 1.375 . S
C1068 H1029 0.931 . S
C1068 C1067 1.375 . S
C1068 C1069 1.375 . S
C1069 C1068 1.375 . S
C1069 C1070 1.361 . S
C1070 H1030 0.930 . S
C1070 C1069 1.361 . S
C1070 C1071 1.399 . S
C1071 H1031 0.929 . S
C1071 C1066 1.386 . S
C1071 C1070 1.399 . S
C1072 C1051 1.485 . S
C1072 C1073 1.394 . S
C1072 C1077 1.360 . S
C1073 H1032 0.931 . S
C1073 C1072 1.394 . S
C1073 C1074 1.372 . S
C1074 H1033 0.930 . S
C1074 C1073 1.372 . S
C1074 C1075 1.397 . S
C1075 C1074 1.397 . S
C1075 C1076 1.390 . S
C1075 C1091 1.476 . S
C1076 H1034 0.930 . S
C1076 C1075 1.390 . S
C1076 C1077 1.366 . S
C1077 H1035 0.932 . S
C1077 C1072 1.360 . S
C1077 C1076 1.366 . S
C1078 C1052 1.490 . S
C1078 C1079 1.380 . S
C1078 C1083 1.386 . S
C1079 H1036 0.930 . S
C1079 C1078 1.380 . S
C1079 C1080 1.381 . S
C1080 H1037 0.929 . S
C1080 C1079 1.381 . S
C1080 C1081 1.371 . S
C1081 C1080 1.371 . S
C1081 C1082 1.380 . S
C1082 H1038 0.931 . S
C1082 C1081 1.380 . S
C1082 C1083 1.387 . S
C1083 H1039 0.930 . S
C1083 C1078 1.386 . S
C1083 C1082 1.387 . S
C1084 C1053 1.519 . S
C1084 C1085 1.377 . S
C1084 C1089 1.361 . S
C1085 H1040 0.929 . S
C1085 C1084 1.377 . S
C1085 C1086 1.386 . S
C1086 H1041 0.931 . S
C1086 C1085 1.386 . S
C1086 C1087 1.363 . S
C1087 C1086 1.363 . S
C1087 C1088 1.385 . S
C1088 H1042 0.930 . S
C1088 C1087 1.385 . S
C1088 C1089 1.396 . S
C1089 H1043 0.929 . S
C1089 C1084 1.361 . S
C1089 C1088 1.396 . S
C1090 O1044 1.300 . S
C1090 O1045 1.209 . S
C1090 C1063 1.486 1_554 S
C1091 O1046 1.199 . S
C1091 O1047 1.297 . S
C1091 C1075 1.476 . S
H1092 O1118 0.856 . S
H1093 O1121 0.854 . S
H1094 C1129 0.930 . S
H1095 C1130 0.930 . S
H1096 C1132 0.930 . S
H1097 C1133 0.930 . S
H1098 C1135 0.931 . S
H1099 C1136 0.930 . S
H1100 C1138 0.930 . S
H1101 C1139 0.929 . S
H1102 C1141 0.930 . S
H1103 C1142 0.931 . S
H1104 C1144 0.930 . S
H1105 C1145 0.929 . S
H1106 C1147 0.931 . S
H1107 C1148 0.930 . S
H1108 C1150 0.930 . S
H1109 C1151 0.932 . S
H1110 C1153 0.930 . S
H1111 C1154 0.929 . S
H1112 C1156 0.931 . S
H1113 C1157 0.930 . S
H1114 C1159 0.929 . S
H1115 C1160 0.931 . S
H1116 C1162 0.930 . S
H1117 C1163 0.929 . S
O1118 H1092 0.856 . S
O1118 C1164 1.300 . S
O1119 C1164 1.209 . S
O1120 C1165 1.199 . S
O1121 H1093 0.854 . S
O1121 C1165 1.297 . S
C1122 C1123 1.404 . S
C1122 C1127 1.397 . S
C1122 C1128 1.492 . S
C1123 C1122 1.404 . S
C1123 C1124 1.396 . S
C1123 C1134 1.492 . S
C1124 C1123 1.396 . S
C1124 C1125 1.397 . S
C1124 C1140 1.509 . S
C1125 C1124 1.397 . S
C1125 C1126 1.412 . S
C1125 C1146 1.485 . S
C1126 C1125 1.412 . S
C1126 C1127 1.388 . S
C1126 C1152 1.490 . S
C1127 C1122 1.397 . S
C1127 C1126 1.388 . S
C1127 C1158 1.519 . S
C1128 C1122 1.492 . S
C1128 C1129 1.363 . S
C1128 C1133 1.390 . S
C1129 H1094 0.930 . S
C1129 C1128 1.363 . S
C1129 C1130 1.372 . S
C1130 H1095 0.930 . S
C1130 C1129 1.372 . S
C1130 C1131 1.383 . S
C1131 C1130 1.383 . S
C1131 C1132 1.395 . S
C1132 H1096 0.930 . S
C1132 C1131 1.395 . S
C1132 C1133 1.362 . S
C1133 H1097 0.930 . S
C1133 C1128 1.390 . S
C1133 C1132 1.362 . S
C1134 C1123 1.492 . S
C1134 C1135 1.377 . S
C1134 C1139 1.397 . S
C1135 H1098 0.931 . S
C1135 C1134 1.377 . S
C1135 C1136 1.376 . S
C1136 H1099 0.930 . S
C1136 C1135 1.376 . S
C1136 C1137 1.376 . S
C1137 C1136 1.376 . S
C1137 C1138 1.378 . S
C1137 C1164 1.486 . S
C1138 H1100 0.930 . S
C1138 C1137 1.378 . S
C1138 C1139 1.376 . S
C1139 H1101 0.929 . S
C1139 C1134 1.397 . S
C1139 C1138 1.376 . S
C1140 C1124 1.509 . S
C1140 C1141 1.391 . S
C1140 C1145 1.386 . S
C1141 H1102 0.930 . S
C1141 C1140 1.391 . S
C1141 C1142 1.375 . S
C1142 H1103 0.931 . S
C1142 C1141 1.375 . S
C1142 C1143 1.375 . S
C1143 C1142 1.375 . S
C1143 C1144 1.361 . S
C1144 H1104 0.930 . S
C1144 C1143 1.361 . S
C1144 C1145 1.399 . S
C1145 H1105 0.929 . S
C1145 C1140 1.386 . S
C1145 C1144 1.399 . S
C1146 C1125 1.485 . S
C1146 C1147 1.394 . S
C1146 C1151 1.360 . S
C1147 H1106 0.931 . S
C1147 C1146 1.394 . S
C1147 C1148 1.372 . S
C1148 H1107 0.930 . S
C1148 C1147 1.372 . S
C1148 C1149 1.397 . S
C1149 C1148 1.397 . S
C1149 C1150 1.390 . S
C1149 C1165 1.476 . S
C1150 H1108 0.930 . S
C1150 C1149 1.390 . S
C1150 C1151 1.366 . S
C1151 H1109 0.932 . S
C1151 C1146 1.360 . S
C1151 C1150 1.366 . S
C1152 C1126 1.490 . S
C1152 C1153 1.380 . S
C1152 C1157 1.386 . S
C1153 H1110 0.930 . S
C1153 C1152 1.380 . S
C1153 C1154 1.381 . S
C1154 H1111 0.929 . S
C1154 C1153 1.381 . S
C1154 C1155 1.371 . S
C1155 C1154 1.371 . S
C1155 C1156 1.380 . S
C1156 H1112 0.931 . S
C1156 C1155 1.380 . S
C1156 C1157 1.387 . S
C1157 H1113 0.930 . S
C1157 C1152 1.386 . S
C1157 C1156 1.387 . S
C1158 C1127 1.519 . S
C1158 C1159 1.377 . S
C1158 C1163 1.361 . S
C1159 H1114 0.929 . S
C1159 C1158 1.377 . S
C1159 C1160 1.386 . S
C1160 H1115 0.931 . S
C1160 C1159 1.386 . S
C1160 C1161 1.363 . S
C1161 C1160 1.363 . S
C1161 C1162 1.385 . S
C1162 H1116 0.930 . S
C1162 C1161 1.385 . S
C1162 C1163 1.396 . S
C1163 H1117 0.929 . S
C1163 C1158 1.361 . S
C1163 C1162 1.396 . S
C1164 O1118 1.300 . S
C1164 O1119 1.209 . S
C1164 C1137 1.486 . S
C1165 O1120 1.199 . S
C1165 O1121 1.297 . S
C1165 C1149 1.476 . S
H1166 O1192 0.856 . S
H1167 O1195 0.854 . S
H1168 C1203 0.930 . S
H1169 C1204 0.930 . S
H1170 C1206 0.930 . S
H1171 C1207 0.930 . S
H1172 C1209 0.931 . S
H1173 C1210 0.930 . S
H1174 C1212 0.930 . S
H1175 C1213 0.929 . S
H1176 C1215 0.930 . S
H1177 C1216 0.931 . S
H1178 C1218 0.930 . S
H1179 C1219 0.929 . S
H1180 C1221 0.931 . S
H1181 C1222 0.930 . S
H1182 C1224 0.930 . S
H1183 C1225 0.932 . S
H1184 C1227 0.930 . S
H1185 C1228 0.929 . S
H1186 C1230 0.931 . S
H1187 C1231 0.930 . S
H1188 C1233 0.929 . S
H1189 C1234 0.931 . S
H1190 C1236 0.930 . S
H1191 C1237 0.929 . S
O1192 H1166 0.856 . S
O1192 C1238 1.300 . S
O1193 C1238 1.209 . S
O1194 C1239 1.199 . S
O1195 H1167 0.854 . S
O1195 C1239 1.297 . S
C1196 C1197 1.404 . S
C1196 C1201 1.397 . S
C1196 C1202 1.492 . S
C1197 C1196 1.404 . S
C1197 C1198 1.396 . S
C1197 C1208 1.492 . S
C1198 C1197 1.396 . S
C1198 C1199 1.397 . S
C1198 C1214 1.509 . S
C1199 C1198 1.397 . S
C1199 C1200 1.412 . S
C1199 C1220 1.485 . S
C1200 C1199 1.412 . S
C1200 C1201 1.388 . S
C1200 C1226 1.490 . S
C1201 C1196 1.397 . S
C1201 C1200 1.388 . S
C1201 C1232 1.519 . S
C1202 C1196 1.492 . S
C1202 C1203 1.363 . S
C1202 C1207 1.390 . S
C1203 H1168 0.930 . S
C1203 C1202 1.363 . S
C1203 C1204 1.372 . S
C1204 H1169 0.930 . S
C1204 C1203 1.372 . S
C1204 C1205 1.383 . S
C1205 C1204 1.383 . S
C1205 C1206 1.395 . S
C1206 H1170 0.930 . S
C1206 C1205 1.395 . S
C1206 C1207 1.362 . S
C1207 H1171 0.930 . S
C1207 C1202 1.390 . S
C1207 C1206 1.362 . S
C1208 C1197 1.492 . S
C1208 C1209 1.377 . S
C1208 C1213 1.397 . S
C1209 H1172 0.931 . S
C1209 C1208 1.377 . S
C1209 C1210 1.376 . S
C1210 H1173 0.930 . S
C1210 C1209 1.376 . S
C1210 C1211 1.376 . S
C1211 C1210 1.376 . S
C1211 C1212 1.378 . S
C1211 C1238 1.486 . S
C1212 H1174 0.930 . S
C1212 C1211 1.378 . S
C1212 C1213 1.376 . S
C1213 H1175 0.929 . S
C1213 C1208 1.397 . S
C1213 C1212 1.376 . S
C1214 C1198 1.509 . S
C1214 C1215 1.391 . S
C1214 C1219 1.386 . S
C1215 H1176 0.930 . S
C1215 C1214 1.391 . S
C1215 C1216 1.375 . S
C1216 H1177 0.931 . S
C1216 C1215 1.375 . S
C1216 C1217 1.375 . S
C1217 C1216 1.375 . S
C1217 C1218 1.361 . S
C1218 H1178 0.930 . S
C1218 C1217 1.361 . S
C1218 C1219 1.399 . S
C1219 H1179 0.929 . S
C1219 C1214 1.386 . S
C1219 C1218 1.399 . S
C1220 C1199 1.485 . S
C1220 C1221 1.394 . S
C1220 C1225 1.360 . S
C1221 H1180 0.931 . S
C1221 C1220 1.394 . S
C1221 C1222 1.372 . S
C1222 H1181 0.930 . S
C1222 C1221 1.372 . S
C1222 C1223 1.397 . S
C1223 C1222 1.397 . S
C1223 C1224 1.390 . S
C1223 C1239 1.476 . S
C1224 H1182 0.930 . S
C1224 C1223 1.390 . S
C1224 C1225 1.366 . S
C1225 H1183 0.932 . S
C1225 C1220 1.360 . S
C1225 C1224 1.366 . S
C1226 C1200 1.490 . S
C1226 C1227 1.380 . S
C1226 C1231 1.386 . S
C1227 H1184 0.930 . S
C1227 C1226 1.380 . S
C1227 C1228 1.381 . S
C1228 H1185 0.929 . S
C1228 C1227 1.381 . S
C1228 C1229 1.371 . S
C1229 C1228 1.371 . S
C1229 C1230 1.380 . S
C1230 H1186 0.931 . S
C1230 C1229 1.380 . S
C1230 C1231 1.387 . S
C1231 H1187 0.930 . S
C1231 C1226 1.386 . S
C1231 C1230 1.387 . S
C1232 C1201 1.519 . S
C1232 C1233 1.377 . S
C1232 C1237 1.361 . S
C1233 H1188 0.929 . S
C1233 C1232 1.377 . S
C1233 C1234 1.386 . S
C1234 H1189 0.931 . S
C1234 C1233 1.386 . S
C1234 C1235 1.363 . S
C1235 C1234 1.363 . S
C1235 C1236 1.385 . S
C1236 H1190 0.930 . S
C1236 C1235 1.385 . S
C1236 C1237 1.396 . S
C1237 H1191 0.929 . S
C1237 C1232 1.361 . S
C1237 C1236 1.396 . S
C1238 O1192 1.300 . S
C1238 O1193 1.209 . S
C1238 C1211 1.486 . S
C1239 O1194 1.199 . S
C1239 O1195 1.297 . S
C1239 C1223 1.476 . S
H1240 O1266 0.856 . S
H1241 O1269 0.854 . S
H1242 C1277 0.930 . S
H1243 C1278 0.930 . S
H1244 C1280 0.930 . S
H1245 C1281 0.930 . S
H1246 C1283 0.931 . S
H1247 C1284 0.930 . S
H1248 C1286 0.930 . S
H1249 C1287 0.929 . S
H1250 C1289 0.930 . S
H1251 C1290 0.931 . S
H1252 C1292 0.930 . S
H1253 C1293 0.929 . S
H1254 C1295 0.931 . S
H1255 C1296 0.930 . S
H1256 C1298 0.930 . S
H1257 C1299 0.932 . S
H1258 C1301 0.930 . S
H1259 C1302 0.929 . S
H1260 C1304 0.931 . S
H1261 C1305 0.930 . S
H1262 C1307 0.929 . S
H1263 C1308 0.931 . S
H1264 C1310 0.930 . S
H1265 C1311 0.929 . S
O1266 H1240 0.856 . S
O1266 C1312 1.300 . S
O1267 C1312 1.209 . S
O1268 C1313 1.199 . S
O1269 H1241 0.854 . S
O1269 C1313 1.297 . S
C1270 C1271 1.404 . S
C1270 C1275 1.397 . S
C1270 C1276 1.492 . S
C1271 C1270 1.404 . S
C1271 C1272 1.396 . S
C1271 C1282 1.492 . S
C1272 C1271 1.396 . S
C1272 C1273 1.397 . S
C1272 C1288 1.509 . S
C1273 C1272 1.397 . S
C1273 C1274 1.412 . S
C1273 C1294 1.485 . S
C1274 C1273 1.412 . S
C1274 C1275 1.388 . S
C1274 C1300 1.490 . S
C1275 C1270 1.397 . S
C1275 C1274 1.388 . S
C1275 C1306 1.519 . S
C1276 C1270 1.492 . S
C1276 C1277 1.363 . S
C1276 C1281 1.390 . S
C1277 H1242 0.930 . S
C1277 C1276 1.363 . S
C1277 C1278 1.372 . S
C1278 H1243 0.930 . S
C1278 C1277 1.372 . S
C1278 C1279 1.383 . S
C1279 C1278 1.383 . S
C1279 C1280 1.395 . S
C1280 H1244 0.930 . S
C1280 C1279 1.395 . S
C1280 C1281 1.362 . S
C1281 H1245 0.930 . S
C1281 C1276 1.390 . S
C1281 C1280 1.362 . S
C1282 C1271 1.492 . S
C1282 C1283 1.377 . S
C1282 C1287 1.397 . S
C1283 H1246 0.931 . S
C1283 C1282 1.377 . S
C1283 C1284 1.376 . S
C1284 H1247 0.930 . S
C1284 C1283 1.376 . S
C1284 C1285 1.376 . S
C1285 C1284 1.376 . S
C1285 C1286 1.378 . S
C1285 C1312 1.486 . S
C1286 H1248 0.930 . S
C1286 C1285 1.378 . S
C1286 C1287 1.376 . S
C1287 H1249 0.929 . S
C1287 C1282 1.397 . S
C1287 C1286 1.376 . S
C1288 C1272 1.509 . S
C1288 C1289 1.391 . S
C1288 C1293 1.386 . S
C1289 H1250 0.930 . S
C1289 C1288 1.391 . S
C1289 C1290 1.375 . S
C1290 H1251 0.931 . S
C1290 C1289 1.375 . S
C1290 C1291 1.375 . S
C1291 C1290 1.375 . S
C1291 C1292 1.361 . S
C1292 H1252 0.930 . S
C1292 C1291 1.361 . S
C1292 C1293 1.399 . S
C1293 H1253 0.929 . S
C1293 C1288 1.386 . S
C1293 C1292 1.399 . S
C1294 C1273 1.485 . S
C1294 C1295 1.394 . S
C1294 C1299 1.360 . S
C1295 H1254 0.931 . S
C1295 C1294 1.394 . S
C1295 C1296 1.372 . S
C1296 H1255 0.930 . S
C1296 C1295 1.372 . S
C1296 C1297 1.397 . S
C1297 C1296 1.397 . S
C1297 C1298 1.390 . S
C1297 C1313 1.476 . S
C1298 H1256 0.930 . S
C1298 C1297 1.390 . S
C1298 C1299 1.366 . S
C1299 H1257 0.932 . S
C1299 C1294 1.360 . S
C1299 C1298 1.366 . S
C1300 C1274 1.490 . S
C1300 C1301 1.380 . S
C1300 C1305 1.386 . S
C1301 H1258 0.930 . S
C1301 C1300 1.380 . S
C1301 C1302 1.381 . S
C1302 H1259 0.929 . S
C1302 C1301 1.381 . S
C1302 C1303 1.371 . S
C1303 C1302 1.371 . S
C1303 C1304 1.380 . S
C1304 H1260 0.931 . S
C1304 C1303 1.380 . S
C1304 C1305 1.387 . S
C1305 H1261 0.930 . S
C1305 C1300 1.386 . S
C1305 C1304 1.387 . S
C1306 C1275 1.519 . S
C1306 C1307 1.377 . S
C1306 C1311 1.361 . S
C1307 H1262 0.929 . S
C1307 C1306 1.377 . S
C1307 C1308 1.386 . S
C1308 H1263 0.931 . S
C1308 C1307 1.386 . S
C1308 C1309 1.363 . S
C1309 C1308 1.363 . S
C1309 C1310 1.385 . S
C1310 H1264 0.930 . S
C1310 C1309 1.385 . S
C1310 C1311 1.396 . S
C1311 H1265 0.929 . S
C1311 C1306 1.361 . S
C1311 C1310 1.396 . S
C1312 O1266 1.300 . S
C1312 O1267 1.209 . S
C1312 C1285 1.486 . S
C1313 O1268 1.199 . S
C1313 O1269 1.297 . S
C1313 C1297 1.476 . S
H1314 O1340 0.856 . S
H1315 O1343 0.854 . S
H1316 C1351 0.930 . S
H1317 C1352 0.930 . S
H1318 C1354 0.930 . S
H1319 C1355 0.930 . S
H1320 C1357 0.931 . S
H1321 C1358 0.905 1_655 S
H1322 C1360 0.930 . S
H1323 C1361 0.929 . S
H1324 C1363 0.930 . S
H1325 C1364 0.929 . S
H1326 C1366 0.930 . S
H1327 C1367 0.929 . S
H1328 C1369 0.931 . S
H1329 C1370 0.930 . S
H1330 C1372 0.930 . S
H1331 C1373 0.932 . S
H1332 C1375 0.930 . S
H1333 C1376 0.929 . S
H1334 C1378 0.931 . S
H1335 C1379 0.930 . S
H1336 C1381 0.929 . S
H1337 C1382 0.931 . S
H1338 C1384 0.930 . S
H1339 C1385 0.929 . S
O1340 H1314 0.856 . S
O1340 C1386 1.300 . S
O1341 C1386 1.209 . S
O1342 C1387 1.199 1_655 S
O1343 H1315 0.854 . S
O1343 C1387 1.297 . S
C1344 C1345 1.404 . S
C1344 C1349 1.394 . S
C1344 C1350 1.492 . S
C1345 C1344 1.404 . S
C1345 C1346 1.396 . S
C1345 C1356 1.492 . S
C1346 C1345 1.396 . S
C1346 C1347 1.397 . S
C1346 C1362 1.509 . S
C1347 C1346 1.397 . S
C1347 C1348 1.420 . S
C1347 C1368 1.485 . S
C1348 C1347 1.420 . S
C1348 C1349 1.405 . S
C1348 C1374 1.491 1_455 S
C1349 C1344 1.394 . S
C1349 C1348 1.405 . S
C1349 C1380 1.495 1_455 S
C1350 C1344 1.492 . S
C1350 C1351 1.363 1_455 S
C1350 C1355 1.390 . S
C1351 H1316 0.930 . S
C1351 C1350 1.363 1_655 S
C1351 C1352 1.372 . S
C1352 H1317 0.930 . S
C1352 C1351 1.372 . S
C1352 C1353 1.383 . S
C1353 C1352 1.383 . S
C1353 C1354 1.395 1_655 S
C1354 H1318 0.930 . S
C1354 C1353 1.395 1_455 S
C1354 C1355 1.362 . S
C1355 H1319 0.930 . S
C1355 C1350 1.390 . S
C1355 C1354 1.362 . S
C1356 C1345 1.492 . S
C1356 C1357 1.377 1_455 S
C1356 C1361 1.397 . S
C1357 H1320 0.931 . S
C1357 C1356 1.377 1_655 S
C1357 C1358 1.380 1_655 S
C1358 H1321 0.905 1_455 S
C1358 C1357 1.380 1_455 S
C1358 C1359 1.398 . S
C1359 C1358 1.398 . S
C1359 C1360 1.378 . S
C1359 C1386 1.486 . S
C1360 H1322 0.930 . S
C1360 C1359 1.378 . S
C1360 C1361 1.376 . S
C1361 H1323 0.929 . S
C1361 C1356 1.397 . S
C1361 C1360 1.376 . S
C1362 C1346 1.509 . S
C1362 C1363 1.391 1_455 S
C1362 C1367 1.386 . S
C1363 H1324 0.930 . S
C1363 C1362 1.391 1_655 S
C1363 C1364 1.372 . S
C1364 H1325 0.929 . S
C1364 C1363 1.372 . S
C1364 C1365 1.380 1_655 S
C1365 C1364 1.380 1_455 S
C1365 C1366 1.361 . S
C1366 H1326 0.930 . S
C1366 C1365 1.361 . S
C1366 C1367 1.399 . S
C1367 H1327 0.929 . S
C1367 C1362 1.386 . S
C1367 C1366 1.399 . S
C1368 C1347 1.485 . S
C1368 C1369 1.394 1_455 S
C1368 C1373 1.360 . S
C1369 H1328 0.931 . S
C1369 C1368 1.394 1_655 S
C1369 C1370 1.372 . S
C1370 H1329 0.930 . S
C1370 C1369 1.372 . S
C1370 C1371 1.397 1_655 S
C1371 C1370 1.397 1_455 S
C1371 C1372 1.390 . S
C1371 C1387 1.476 . S
C1372 H1330 0.930 . S
C1372 C1371 1.390 . S
C1372 C1373 1.366 . S
C1373 H1331 0.932 . S
C1373 C1368 1.360 . S
C1373 C1372 1.366 . S
C1374 C1348 1.491 1_655 S
C1374 C1375 1.380 . S
C1374 C1379 1.386 1_655 S
C1375 H1332 0.930 . S
C1375 C1374 1.380 . S
C1375 C1376 1.381 . S
C1376 H1333 0.929 . S
C1376 C1375 1.381 . S
C1376 C1377 1.371 . S
C1377 C1376 1.371 . S
C1377 C1378 1.380 1_655 S
C1378 H1334 0.931 . S
C1378 C1377 1.380 1_455 S
C1378 C1379 1.387 . S
C1379 H1335 0.930 . S
C1379 C1374 1.386 1_455 S
C1379 C1378 1.387 . S
C1380 C1349 1.495 1_655 S
C1380 C1381 1.396 . S
C1380 C1385 1.348 1_655 S
C1381 H1336 0.929 . S
C1381 C1380 1.396 . S
C1381 C1382 1.386 . S
C1382 H1337 0.931 . S
C1382 C1381 1.386 . S
C1382 C1383 1.365 1_655 S
C1383 C1382 1.365 1_455 S
C1383 C1384 1.383 . S
C1384 H1338 0.930 . S
C1384 C1383 1.383 . S
C1384 C1385 1.396 . S
C1385 H1339 0.929 . S
C1385 C1380 1.348 1_455 S
C1385 C1384 1.396 . S
C1386 O1340 1.300 . S
C1386 O1341 1.209 . S
C1386 C1359 1.486 . S
C1387 O1342 1.199 1_455 S
C1387 O1343 1.297 . S
C1387 C1371 1.476 . S
H1388 O1414 0.856 . S
H1389 O1417 0.854 . S
H1390 C1425 0.930 . S
H1391 C1426 0.930 . S
H1392 C1428 0.930 . S
H1393 C1429 0.930 . S
H1394 C1431 0.931 . S
H1395 C1432 0.930 . S
H1396 C1434 0.930 . S
H1397 C1435 0.929 . S
H1398 C1437 0.930 . S
H1399 C1438 0.931 . S
H1400 C1440 0.930 . S
H1401 C1441 0.929 . S
H1402 C1443 0.931 . S
H1403 C1444 0.930 . S
H1404 C1446 0.930 . S
H1405 C1447 0.932 . S
H1406 C1449 0.930 . S
H1407 C1450 0.929 . S
H1408 C1452 0.931 . S
H1409 C1453 0.930 . S
H1410 C1455 0.929 . S
H1411 C1456 0.931 . S
H1412 C1458 0.930 . S
H1413 C1459 0.929 . S
O1414 H1388 0.856 . S
O1414 C1460 1.300 . S
O1415 C1460 1.209 . S
O1416 C1461 1.199 . S
O1417 H1389 0.854 . S
O1417 C1461 1.297 . S
C1418 C1419 1.404 . S
C1418 C1423 1.397 . S
C1418 C1424 1.492 . S
C1419 C1418 1.404 . S
C1419 C1420 1.396 . S
C1419 C1430 1.492 . S
C1420 C1419 1.396 . S
C1420 C1421 1.397 . S
C1420 C1436 1.509 . S
C1421 C1420 1.397 . S
C1421 C1422 1.412 . S
C1421 C1442 1.485 . S
C1422 C1421 1.412 . S
C1422 C1423 1.388 . S
C1422 C1448 1.490 . S
C1423 C1418 1.397 . S
C1423 C1422 1.388 . S
C1423 C1454 1.519 . S
C1424 C1418 1.492 . S
C1424 C1425 1.363 . S
C1424 C1429 1.390 . S
C1425 H1390 0.930 . S
C1425 C1424 1.363 . S
C1425 C1426 1.372 . S
C1426 H1391 0.930 . S
C1426 C1425 1.372 . S
C1426 C1427 1.383 . S
C1427 C1426 1.383 . S
C1427 C1428 1.395 . S
C1428 H1392 0.930 . S
C1428 C1427 1.395 . S
C1428 C1429 1.362 . S
C1429 H1393 0.930 . S
C1429 C1424 1.390 . S
C1429 C1428 1.362 . S
C1430 C1419 1.492 . S
C1430 C1431 1.377 . S
C1430 C1435 1.397 . S
C1431 H1394 0.931 . S
C1431 C1430 1.377 . S
C1431 C1432 1.376 . S
C1432 H1395 0.930 . S
C1432 C1431 1.376 . S
C1432 C1433 1.376 . S
C1433 C1432 1.376 . S
C1433 C1434 1.378 . S
C1433 C1460 1.486 . S
C1434 H1396 0.930 . S
C1434 C1433 1.378 . S
C1434 C1435 1.376 . S
C1435 H1397 0.929 . S
C1435 C1430 1.397 . S
C1435 C1434 1.376 . S
C1436 C1420 1.509 . S
C1436 C1437 1.391 . S
C1436 C1441 1.386 . S
C1437 H1398 0.930 . S
C1437 C1436 1.391 . S
C1437 C1438 1.375 . S
C1438 H1399 0.931 . S
C1438 C1437 1.375 . S
C1438 C1439 1.375 . S
C1439 C1438 1.375 . S
C1439 C1440 1.361 . S
C1440 H1400 0.930 . S
C1440 C1439 1.361 . S
C1440 C1441 1.399 . S
C1441 H1401 0.929 . S
C1441 C1436 1.386 . S
C1441 C1440 1.399 . S
C1442 C1421 1.485 . S
C1442 C1443 1.394 . S
C1442 C1447 1.360 . S
C1443 H1402 0.931 . S
C1443 C1442 1.394 . S
C1443 C1444 1.372 . S
C1444 H1403 0.930 . S
C1444 C1443 1.372 . S
C1444 C1445 1.397 . S
C1445 C1444 1.397 . S
C1445 C1446 1.390 . S
C1445 C1461 1.476 . S
C1446 H1404 0.930 . S
C1446 C1445 1.390 . S
C1446 C1447 1.366 . S
C1447 H1405 0.932 . S
C1447 C1442 1.360 . S
C1447 C1446 1.366 . S
C1448 C1422 1.490 . S
C1448 C1449 1.380 . S
C1448 C1453 1.386 . S
C1449 H1406 0.930 . S
C1449 C1448 1.380 . S
C1449 C1450 1.381 . S
C1450 H1407 0.929 . S
C1450 C1449 1.381 . S
C1450 C1451 1.371 . S
C1451 C1450 1.371 . S
C1451 C1452 1.380 . S
C1452 H1408 0.931 . S
C1452 C1451 1.380 . S
C1452 C1453 1.387 . S
C1453 H1409 0.930 . S
C1453 C1448 1.386 . S
C1453 C1452 1.387 . S
C1454 C1423 1.519 . S
C1454 C1455 1.377 . S
C1454 C1459 1.361 . S
C1455 H1410 0.929 . S
C1455 C1454 1.377 . S
C1455 C1456 1.386 . S
C1456 H1411 0.931 . S
C1456 C1455 1.386 . S
C1456 C1457 1.363 . S
C1457 C1456 1.363 . S
C1457 C1458 1.385 . S
C1458 H1412 0.930 . S
C1458 C1457 1.385 . S
C1458 C1459 1.396 . S
C1459 H1413 0.929 . S
C1459 C1454 1.361 . S
C1459 C1458 1.396 . S
C1460 O1414 1.300 . S
C1460 O1415 1.209 . S
C1460 C1433 1.486 . S
C1461 O1416 1.199 . S
C1461 O1417 1.297 . S
C1461 C1445 1.476 . S
H1462 O1488 0.856 . S
H1463 O1491 0.854 . S
H1464 C1499 0.930 . S
H1465 C1500 0.930 . S
H1466 C1502 0.930 . S
H1467 C1503 0.930 . S
H1468 C1505 0.931 . S
H1469 C1506 0.945 . S
H1470 C1508 0.930 . S
H1471 C1509 0.929 . S
H1472 C1511 0.930 . S
H1473 C1512 0.989 . S
H1474 C1514 0.930 . S
H1475 C1515 0.929 . S
H1476 C1517 0.931 . S
H1477 C1518 0.930 . S
H1478 C1520 0.930 . S
H1479 C1521 0.932 . S
H1480 C1523 0.930 . S
H1481 C1524 0.929 . S
H1482 C1526 0.931 . S
H1483 C1527 0.930 . S
H1484 C1529 0.929 . S
H1485 C1530 0.931 . S
H1486 C1532 0.930 . S
H1487 C1533 0.929 . S
O1488 H1462 0.856 . S
O1488 C1534 1.300 . S
O1489 C1534 1.209 . S
O1490 C1535 1.199 1_545 S
O1491 H1463 0.854 . S
O1491 C1535 1.297 . S
C1492 C1493 1.404 . S
C1492 C1497 1.413 . S
C1492 C1498 1.492 . S
C1493 C1492 1.404 . S
C1493 C1494 1.396 . S
C1493 C1504 1.492 . S
C1494 C1493 1.396 . S
C1494 C1495 1.397 . S
C1494 C1510 1.509 . S
C1495 C1494 1.397 . S
C1495 C1496 1.409 . S
C1495 C1516 1.485 . S
C1496 C1495 1.409 . S
C1496 C1497 1.373 . S
C1496 C1522 1.484 1_565 S
C1497 C1492 1.413 . S
C1497 C1496 1.373 . S
C1497 C1528 1.535 1_565 S
C1498 C1492 1.492 . S
C1498 C1499 1.363 1_565 S
C1498 C1503 1.390 . S
C1499 H1464 0.930 . S
C1499 C1498 1.363 1_545 S
C1499 C1500 1.372 . S
C1500 H1465 0.930 . S
C1500 C1499 1.372 . S
C1500 C1501 1.383 . S
C1501 C1500 1.383 . S
C1501 C1502 1.395 1_545 S
C1502 H1466 0.930 . S
C1502 C1501 1.395 1_565 S
C1502 C1503 1.362 . S
C1503 H1467 0.930 . S
C1503 C1498 1.390 . S
C1503 C1502 1.362 . S
C1504 C1493 1.492 . S
C1504 C1505 1.377 1_565 S
C1504 C1509 1.397 . S
C1505 H1468 0.931 . S
C1505 C1504 1.377 1_545 S
C1505 C1506 1.383 . S
C1506 H1469 0.945 . S
C1506 C1505 1.383 . S
C1506 C1507 1.354 1_545 S
C1507 C1506 1.354 1_565 S
C1507 C1508 1.378 . S
C1507 C1534 1.486 . S
C1508 H1470 0.930 . S
C1508 C1507 1.378 . S
C1508 C1509 1.376 . S
C1509 H1471 0.929 . S
C1509 C1504 1.397 . S
C1509 C1508 1.376 . S
C1510 C1494 1.509 . S
C1510 C1511 1.391 1_565 S
C1510 C1515 1.386 . S
C1511 H1472 0.930 . S
C1511 C1510 1.391 1_545 S
C1511 C1512 1.367 . S
C1512 H1473 0.989 . S
C1512 C1511 1.367 . S
C1512 C1513 1.329 1_545 S
C1513 C1512 1.329 1_565 S
C1513 C1514 1.361 . S
C1514 H1474 0.930 . S
C1514 C1513 1.361 . S
C1514 C1515 1.399 . S
C1515 H1475 0.929 . S
C1515 C1510 1.386 . S
C1515 C1514 1.399 . S
C1516 C1495 1.485 . S
C1516 C1517 1.394 1_565 S
C1516 C1521 1.360 . S
C1517 H1476 0.931 . S
C1517 C1516 1.394 1_545 S
C1517 C1518 1.372 . S
C1518 H1477 0.930 . S
C1518 C1517 1.372 . S
C1518 C1519 1.397 1_545 S
C1519 C1518 1.397 1_565 S
C1519 C1520 1.390 . S
C1519 C1535 1.476 . S
C1520 H1478 0.930 . S
C1520 C1519 1.390 . S
C1520 C1521 1.366 . S
C1521 H1479 0.932 . S
C1521 C1516 1.360 . S
C1521 C1520 1.366 . S
C1522 C1496 1.484 1_545 S
C1522 C1523 1.380 . S
C1522 C1527 1.386 1_545 S
C1523 H1480 0.930 . S
C1523 C1522 1.380 . S
C1523 C1524 1.381 . S
C1524 H1481 0.929 . S
C1524 C1523 1.381 . S
C1524 C1525 1.371 . S
C1525 C1524 1.371 . S
C1525 C1526 1.380 1_545 S
C1526 H1482 0.931 . S
C1526 C1525 1.380 1_565 S
C1526 C1527 1.387 . S
C1527 H1483 0.930 . S
C1527 C1522 1.386 1_565 S
C1527 C1526 1.387 . S
C1528 C1497 1.535 1_545 S
C1528 C1529 1.379 . S
C1528 C1533 1.357 1_545 S
C1529 H1484 0.929 . S
C1529 C1528 1.379 . S
C1529 C1530 1.386 . S
C1530 H1485 0.931 . S
C1530 C1529 1.386 . S
C1530 C1531 1.334 1_545 S
C1531 C1530 1.334 1_565 S
C1531 C1532 1.401 . S
C1532 H1486 0.930 . S
C1532 C1531 1.401 . S
C1532 C1533 1.396 . S
C1533 H1487 0.929 . S
C1533 C1528 1.357 1_565 S
C1533 C1532 1.396 . S
C1534 O1488 1.300 . S
C1534 O1489 1.209 . S
C1534 C1507 1.486 . S
C1535 O1490 1.199 1_565 S
C1535 O1491 1.297 . S
C1535 C1519 1.476 . S
H1536 O1562 0.856 . S
H1537 O1565 0.854 . S
H1538 C1573 0.930 . S
H1539 C1574 0.930 . S
H1540 C1576 0.930 . S
H1541 C1577 0.930 . S
H1542 C1579 0.931 . S
H1543 C1580 0.930 . S
H1544 C1582 0.930 . S
H1545 C1583 0.929 . S
H1546 C1585 0.930 . S
H1547 C1586 0.931 . S
H1548 C1588 0.930 . S
H1549 C1589 0.929 . S
H1550 C1591 0.931 . S
H1551 C1592 0.930 . S
H1552 C1594 0.930 . S
H1553 C1595 0.932 . S
H1554 C1597 0.930 . S
H1555 C1598 0.929 . S
H1556 C1600 0.931 . S
H1557 C1601 0.930 . S
H1558 C1603 0.929 . S
H1559 C1604 0.931 . S
H1560 C1606 0.930 . S
H1561 C1607 0.929 . S
O1562 H1536 0.856 . S
O1562 C1608 1.300 . S
O1563 C1608 1.209 1_565 S
O1564 C1609 1.199 1_545 S
O1565 H1537 0.854 . S
O1565 C1609 1.297 . S
C1566 C1567 1.404 . S
C1566 C1571 1.397 1_545 S
C1566 C1572 1.492 . S
C1567 C1566 1.404 . S
C1567 C1568 1.431 . S
C1567 C1578 1.492 . S
C1568 C1567 1.431 . S
C1568 C1569 1.382 1_545 S
C1568 C1584 1.505 . S
C1569 C1568 1.382 1_565 S
C1569 C1570 1.417 . S
C1569 C1590 1.489 . S
C1570 C1569 1.417 . S
C1570 C1571 1.375 . S
C1570 C1596 1.491 . S
C1571 C1566 1.397 1_565 S
C1571 C1570 1.375 . S
C1571 C1602 1.519 . S
C1572 C1566 1.492 . S
C1572 C1573 1.363 . S
C1572 C1577 1.390 1_545 S
C1573 H1538 0.930 . S
C1573 C1572 1.363 . S
C1573 C1574 1.372 . S
C1574 H1539 0.930 . S
C1574 C1573 1.372 . S
C1574 C1575 1.383 . S
C1575 C1574 1.383 . S
C1575 C1576 1.395 1_545 S
C1576 H1540 0.930 . S
C1576 C1575 1.395 1_565 S
C1576 C1577 1.362 . S
C1577 H1541 0.930 . S
C1577 C1572 1.390 1_565 S
C1577 C1576 1.362 . S
C1578 C1567 1.492 . S
C1578 C1579 1.377 . S
C1578 C1583 1.397 1_545 S
C1579 H1542 0.931 . S
C1579 C1578 1.377 . S
C1579 C1580 1.376 . S
C1580 H1543 0.930 . S
C1580 C1579 1.376 . S
C1580 C1581 1.376 . S
C1581 C1580 1.376 . S
C1581 C1582 1.378 1_545 S
C1581 C1608 1.486 . S
C1582 H1544 0.930 . S
C1582 C1581 1.378 1_565 S
C1582 C1583 1.376 . S
C1583 H1545 0.929 . S
C1583 C1578 1.397 1_565 S
C1583 C1582 1.376 . S
C1584 C1568 1.505 . S
C1584 C1585 1.415 . S
C1584 C1589 1.347 1_545 S
C1585 H1546 0.930 . S
C1585 C1584 1.415 . S
C1585 C1586 1.375 . S
C1586 H1547 0.931 . S
C1586 C1585 1.375 . S
C1586 C1587 1.394 . S
C1587 C1586 1.394 . S
C1587 C1588 1.351 1_545 S
C1588 H1548 0.930 . S
C1588 C1587 1.351 1_565 S
C1588 C1589 1.399 . S
C1589 H1549 0.929 . S
C1589 C1584 1.347 1_565 S
C1589 C1588 1.399 . S
C1590 C1569 1.489 . S
C1590 C1591 1.394 1_565 S
C1590 C1595 1.360 . S
C1591 H1550 0.931 . S
C1591 C1590 1.394 1_545 S
C1591 C1592 1.372 . S
C1592 H1551 0.930 . S
C1592 C1591 1.372 . S
C1592 C1593 1.397 1_545 S
C1593 C1592 1.397 1_565 S
C1593 C1594 1.390 . S
C1593 C1609 1.476 . S
C1594 H1552 0.930 . S
C1594 C1593 1.390 . S
C1594 C1595 1.366 . S
C1595 H1553 0.932 . S
C1595 C1590 1.360 . S
C1595 C1594 1.366 . S
C1596 C1570 1.491 . S
C1596 C1597 1.362 1_565 S
C1596 C1601 1.407 . S
C1597 H1554 0.930 . S
C1597 C1596 1.362 1_545 S
C1597 C1598 1.381 . S
C1598 H1555 0.929 . S
C1598 C1597 1.381 . S
C1598 C1599 1.435 . S
C1599 C1598 1.435 . S
C1599 C1600 1.327 1_545 S
C1600 H1556 0.931 . S
C1600 C1599 1.327 1_565 S
C1600 C1601 1.387 . S
C1601 H1557 0.930 . S
C1601 C1596 1.407 . S
C1601 C1600 1.387 . S
C1602 C1571 1.519 . S
C1602 C1603 1.377 1_565 S
C1602 C1607 1.361 . S
C1603 H1558 0.929 . S
C1603 C1602 1.377 1_545 S
C1603 C1604 1.386 . S
C1604 H1559 0.931 . S
C1604 C1603 1.386 . S
C1604 C1605 1.363 1_545 S
C1605 C1604 1.363 1_565 S
C1605 C1606 1.385 . S
C1606 H1560 0.930 . S
C1606 C1605 1.385 . S
C1606 C1607 1.396 . S
C1607 H1561 0.929 . S
C1607 C1602 1.361 . S
C1607 C1606 1.396 . S
C1608 O1562 1.300 . S
C1608 O1563 1.209 1_545 S
C1608 C1581 1.486 . S
C1609 O1564 1.199 1_565 S
C1609 O1565 1.297 . S
C1609 C1593 1.476 . S
H1610 O1636 0.856 . S
H1611 O1639 0.854 . S
H1612 C1647 0.930 . S
H1613 C1648 0.930 . S
H1614 C1650 0.930 . S
H1615 C1651 0.930 . S
H1616 C1653 0.931 . S
H1617 C1654 0.930 . S
H1618 C1656 0.930 . S
H1619 C1657 0.929 . S
H1620 C1659 0.930 . S
H1621 C1660 0.931 . S
H1622 C1662 0.930 . S
H1623 C1663 0.929 . S
H1624 C1665 0.931 . S
H1625 C1666 0.930 . S
H1626 C1668 0.930 . S
H1627 C1669 0.932 . S
H1628 C1671 0.930 . S
H1629 C1672 0.929 . S
H1630 C1674 0.931 . S
H1631 C1675 0.930 . S
H1632 C1677 0.929 . S
H1633 C1678 0.931 . S
H1634 C1680 0.930 . S
H1635 C1681 0.929 . S
O1636 H1610 0.856 . S
O1636 C1682 1.300 . S
O1637 C1682 1.209 1_455 S
O1638 C1683 1.199 1_655 S
O1639 H1611 0.854 . S
O1639 C1683 1.297 . S
C1640 C1641 1.404 . S
C1640 C1645 1.396 1_655 S
C1640 C1646 1.492 . S
C1641 C1640 1.404 . S
C1641 C1642 1.396 . S
C1641 C1652 1.492 . S
C1642 C1641 1.396 . S
C1642 C1643 1.397 1_655 S
C1642 C1658 1.509 . S
C1643 C1642 1.397 1_455 S
C1643 C1644 1.394 . S
C1643 C1664 1.487 . S
C1644 C1643 1.394 . S
C1644 C1645 1.417 . S
C1644 C1670 1.484 . S
C1645 C1640 1.396 1_455 S
C1645 C1644 1.417 . S
C1645 C1676 1.516 . S
C1646 C1640 1.492 . S
C1646 C1647 1.363 . S
C1646 C1651 1.390 1_655 S
C1647 H1612 0.930 . S
C1647 C1646 1.363 . S
C1647 C1648 1.372 . S
C1648 H1613 0.930 . S
C1648 C1647 1.372 . S
C1648 C1649 1.383 . S
C1649 C1648 1.383 . S
C1649 C1650 1.395 1_655 S
C1650 H1614 0.930 . S
C1650 C1649 1.395 1_455 S
C1650 C1651 1.362 . S
C1651 H1615 0.930 . S
C1651 C1646 1.390 1_455 S
C1651 C1650 1.362 . S
C1652 C1641 1.492 . S
C1652 C1653 1.377 . S
C1652 C1657 1.397 1_655 S
C1653 H1616 0.931 . S
C1653 C1652 1.377 . S
C1653 C1654 1.376 . S
C1654 H1617 0.930 . S
C1654 C1653 1.376 . S
C1654 C1655 1.376 . S
C1655 C1654 1.376 . S
C1655 C1656 1.378 1_655 S
C1655 C1682 1.486 . S
C1656 H1618 0.930 . S
C1656 C1655 1.378 1_455 S
C1656 C1657 1.376 . S
C1657 H1619 0.929 . S
C1657 C1652 1.397 1_455 S
C1657 C1656 1.376 . S
C1658 C1642 1.509 . S
C1658 C1659 1.391 . S
C1658 C1663 1.386 1_655 S
C1659 H1620 0.930 . S
C1659 C1658 1.391 . S
C1659 C1660 1.375 . S
C1660 H1621 0.931 . S
C1660 C1659 1.375 . S
C1660 C1661 1.375 . S
C1661 C1660 1.375 . S
C1661 C1662 1.361 1_655 S
C1662 H1622 0.930 . S
C1662 C1661 1.361 1_455 S
C1662 C1663 1.399 . S
C1663 H1623 0.929 . S
C1663 C1658 1.386 1_455 S
C1663 C1662 1.399 . S
C1664 C1643 1.487 . S
C1664 C1665 1.394 1_455 S
C1664 C1669 1.360 . S
C1665 H1624 0.931 . S
C1665 C1664 1.394 1_655 S
C1665 C1666 1.372 . S
C1666 H1625 0.930 . S
C1666 C1665 1.372 . S
C1666 C1667 1.397 1_655 S
C1667 C1666 1.397 1_455 S
C1667 C1668 1.390 . S
C1667 C1683 1.476 . S
C1668 H1626 0.930 . S
C1668 C1667 1.390 . S
C1668 C1669 1.366 . S
C1669 H1627 0.932 . S
C1669 C1664 1.360 . S
C1669 C1668 1.366 . S
C1670 C1644 1.484 . S
C1670 C1671 1.380 1_455 S
C1670 C1675 1.386 . S
C1671 H1628 0.930 . S
C1671 C1670 1.380 1_655 S
C1671 C1672 1.381 . S
C1672 H1629 0.929 . S
C1672 C1671 1.381 . S
C1672 C1673 1.371 1_655 S
C1673 C1672 1.371 1_455 S
C1673 C1674 1.380 . S
C1674 H1630 0.931 . S
C1674 C1673 1.380 . S
C1674 C1675 1.387 . S
C1675 H1631 0.930 . S
C1675 C1670 1.386 . S
C1675 C1674 1.387 . S
C1676 C1645 1.516 . S
C1676 C1677 1.377 1_455 S
C1676 C1681 1.361 . S
C1677 H1632 0.929 . S
C1677 C1676 1.377 1_655 S
C1677 C1678 1.386 . S
C1678 H1633 0.931 . S
C1678 C1677 1.386 . S
C1678 C1679 1.363 1_655 S
C1679 C1678 1.363 1_455 S
C1679 C1680 1.385 . S
C1680 H1634 0.930 . S
C1680 C1679 1.385 . S
C1680 C1681 1.396 . S
C1681 H1635 0.929 . S
C1681 C1676 1.361 . S
C1681 C1680 1.396 . S
C1682 O1636 1.300 . S
C1682 O1637 1.209 1_655 S
C1682 C1655 1.486 . S
C1683 O1638 1.199 1_455 S
C1683 O1639 1.297 . S
C1683 C1667 1.476 . S
H1684 O1710 0.856 . S
H1685 O1713 0.854 . S
H1686 C1721 0.930 . S
H1687 C1722 0.930 . S
H1688 C1724 0.930 . S
H1689 C1725 0.930 . S
H1690 C1727 0.931 . S
H1691 C1728 0.930 . S
H1692 C1730 0.930 . S
H1693 C1731 0.929 . S
H1694 C1733 0.930 . S
H1695 C1734 0.931 . S
H1696 C1736 0.930 . S
H1697 C1737 0.929 . S
H1698 C1739 0.931 . S
H1699 C1740 0.930 . S
H1700 C1742 0.930 . S
H1701 C1743 0.932 . S
H1702 C1745 0.930 . S
H1703 C1746 0.929 . S
H1704 C1748 0.931 . S
H1705 C1749 0.930 . S
H1706 C1751 0.929 . S
H1707 C1752 0.931 . S
H1708 C1754 0.930 . S
H1709 C1755 0.929 . S
O1710 H1684 0.856 . S
O1710 C1756 1.300 . S
O1711 C1756 1.209 . S
O1712 C1757 1.199 . S
O1713 H1685 0.854 . S
O1713 C1757 1.297 . S
C1714 C1715 1.404 . S
C1714 C1719 1.397 . S
C1714 C1720 1.492 . S
C1715 C1714 1.404 . S
C1715 C1716 1.396 . S
C1715 C1726 1.492 . S
C1716 C1715 1.396 . S
C1716 C1717 1.397 . S
C1716 C1732 1.509 . S
C1717 C1716 1.397 . S
C1717 C1718 1.412 . S
C1717 C1738 1.485 . S
C1718 C1717 1.412 . S
C1718 C1719 1.388 . S
C1718 C1744 1.490 . S
C1719 C1714 1.397 . S
C1719 C1718 1.388 . S
C1719 C1750 1.519 . S
C1720 C1714 1.492 . S
C1720 C1721 1.363 . S
C1720 C1725 1.390 . S
C1721 H1686 0.930 . S
C1721 C1720 1.363 . S
C1721 C1722 1.372 . S
C1722 H1687 0.930 . S
C1722 C1721 1.372 . S
C1722 C1723 1.383 . S
C1723 C1722 1.383 . S
C1723 C1724 1.395 . S
C1724 H1688 0.930 . S
C1724 C1723 1.395 . S
C1724 C1725 1.362 . S
C1725 H1689 0.930 . S
C1725 C1720 1.390 . S
C1725 C1724 1.362 . S
C1726 C1715 1.492 . S
C1726 C1727 1.377 . S
C1726 C1731 1.397 . S
C1727 H1690 0.931 . S
C1727 C1726 1.377 . S
C1727 C1728 1.376 . S
C1728 H1691 0.930 . S
C1728 C1727 1.376 . S
C1728 C1729 1.376 . S
C1729 C1728 1.376 . S
C1729 C1730 1.378 . S
C1729 C1756 1.486 . S
C1730 H1692 0.930 . S
C1730 C1729 1.378 . S
C1730 C1731 1.376 . S
C1731 H1693 0.929 . S
C1731 C1726 1.397 . S
C1731 C1730 1.376 . S
C1732 C1716 1.509 . S
C1732 C1733 1.391 . S
C1732 C1737 1.386 . S
C1733 H1694 0.930 . S
C1733 C1732 1.391 . S
C1733 C1734 1.375 . S
C1734 H1695 0.931 . S
C1734 C1733 1.375 . S
C1734 C1735 1.375 . S
C1735 C1734 1.375 . S
C1735 C1736 1.361 . S
C1736 H1696 0.930 . S
C1736 C1735 1.361 . S
C1736 C1737 1.399 . S
C1737 H1697 0.929 . S
C1737 C1732 1.386 . S
C1737 C1736 1.399 . S
C1738 C1717 1.485 . S
C1738 C1739 1.394 . S
C1738 C1743 1.360 . S
C1739 H1698 0.931 . S
C1739 C1738 1.394 . S
C1739 C1740 1.372 . S
C1740 H1699 0.930 . S
C1740 C1739 1.372 . S
C1740 C1741 1.397 . S
C1741 C1740 1.397 . S
C1741 C1742 1.390 . S
C1741 C1757 1.476 . S
C1742 H1700 0.930 . S
C1742 C1741 1.390 . S
C1742 C1743 1.366 . S
C1743 H1701 0.932 . S
C1743 C1738 1.360 . S
C1743 C1742 1.366 . S
C1744 C1718 1.490 . S
C1744 C1745 1.380 . S
C1744 C1749 1.386 . S
C1745 H1702 0.930 . S
C1745 C1744 1.380 . S
C1745 C1746 1.381 . S
C1746 H1703 0.929 . S
C1746 C1745 1.381 . S
C1746 C1747 1.371 . S
C1747 C1746 1.371 . S
C1747 C1748 1.380 . S
C1748 H1704 0.931 . S
C1748 C1747 1.380 . S
C1748 C1749 1.387 . S
C1749 H1705 0.930 . S
C1749 C1744 1.386 . S
C1749 C1748 1.387 . S
C1750 C1719 1.519 . S
C1750 C1751 1.377 . S
C1750 C1755 1.361 . S
C1751 H1706 0.929 . S
C1751 C1750 1.377 . S
C1751 C1752 1.386 . S
C1752 H1707 0.931 . S
C1752 C1751 1.386 . S
C1752 C1753 1.363 . S
C1753 C1752 1.363 . S
C1753 C1754 1.385 . S
C1754 H1708 0.930 . S
C1754 C1753 1.385 . S
C1754 C1755 1.396 . S
C1755 H1709 0.929 . S
C1755 C1750 1.361 . S
C1755 C1754 1.396 . S
C1756 O1710 1.300 . S
C1756 O1711 1.209 . S
C1756 C1729 1.486 . S
C1757 O1712 1.199 . S
C1757 O1713 1.297 . S
C1757 C1741 1.476 . S
H1758 O1784 0.856 . S
H1759 O1787 0.854 . S
H1760 C1795 0.930 . S
H1761 C1796 0.930 . S
H1762 C1798 0.930 . S
H1763 C1799 0.930 . S
H1764 C1801 0.931 . S
H1765 C1802 0.930 . S
H1766 C1804 0.930 . S
H1767 C1805 0.929 . S
H1768 C1807 0.930 . S
H1769 C1808 0.931 . S
H1770 C1810 0.930 . S
H1771 C1811 0.929 . S
H1772 C1813 0.931 . S
H1773 C1814 0.930 . S
H1774 C1816 0.930 . S
H1775 C1817 0.932 . S
H1776 C1819 0.930 . S
H1777 C1820 0.929 . S
H1778 C1822 0.931 . S
H1779 C1823 0.930 . S
H1780 C1825 0.929 . S
H1781 C1826 0.931 . S
H1782 C1828 0.930 . S
H1783 C1829 0.929 . S
O1784 H1758 0.856 . S
O1784 C1830 1.300 . S
O1785 C1830 1.209 . S
O1786 C1831 1.199 . S
O1787 H1759 0.854 . S
O1787 C1831 1.297 . S
C1788 C1789 1.404 . S
C1788 C1793 1.397 . S
C1788 C1794 1.492 . S
C1789 C1788 1.404 . S
C1789 C1790 1.396 . S
C1789 C1800 1.492 . S
C1790 C1789 1.396 . S
C1790 C1791 1.397 . S
C1790 C1806 1.509 . S
C1791 C1790 1.397 . S
C1791 C1792 1.412 . S
C1791 C1812 1.485 . S
C1792 C1791 1.412 . S
C1792 C1793 1.388 . S
C1792 C1818 1.490 . S
C1793 C1788 1.397 . S
C1793 C1792 1.388 . S
C1793 C1824 1.519 . S
C1794 C1788 1.492 . S
C1794 C1795 1.363 . S
C1794 C1799 1.390 . S
C1795 H1760 0.930 . S
C1795 C1794 1.363 . S
C1795 C1796 1.372 . S
C1796 H1761 0.930 . S
C1796 C1795 1.372 . S
C1796 C1797 1.383 . S
C1797 C1796 1.383 . S
C1797 C1798 1.395 . S
C1798 H1762 0.930 . S
C1798 C1797 1.395 . S
C1798 C1799 1.362 . S
C1799 H1763 0.930 . S
C1799 C1794 1.390 . S
C1799 C1798 1.362 . S
C1800 C1789 1.492 . S
C1800 C1801 1.377 . S
C1800 C1805 1.397 . S
C1801 H1764 0.931 . S
C1801 C1800 1.377 . S
C1801 C1802 1.376 . S
C1802 H1765 0.930 . S
C1802 C1801 1.376 . S
C1802 C1803 1.376 . S
C1803 C1802 1.376 . S
C1803 C1804 1.378 . S
C1803 C1830 1.486 . S
C1804 H1766 0.930 . S
C1804 C1803 1.378 . S
C1804 C1805 1.376 . S
C1805 H1767 0.929 . S
C1805 C1800 1.397 . S
C1805 C1804 1.376 . S
C1806 C1790 1.509 . S
C1806 C1807 1.391 . S
C1806 C1811 1.386 . S
C1807 H1768 0.930 . S
C1807 C1806 1.391 . S
C1807 C1808 1.375 . S
C1808 H1769 0.931 . S
C1808 C1807 1.375 . S
C1808 C1809 1.375 . S
C1809 C1808 1.375 . S
C1809 C1810 1.361 . S
C1810 H1770 0.930 . S
C1810 C1809 1.361 . S
C1810 C1811 1.399 . S
C1811 H1771 0.929 . S
C1811 C1806 1.386 . S
C1811 C1810 1.399 . S
C1812 C1791 1.485 . S
C1812 C1813 1.394 . S
C1812 C1817 1.360 . S
C1813 H1772 0.931 . S
C1813 C1812 1.394 . S
C1813 C1814 1.372 . S
C1814 H1773 0.930 . S
C1814 C1813 1.372 . S
C1814 C1815 1.397 . S
C1815 C1814 1.397 . S
C1815 C1816 1.390 . S
C1815 C1831 1.476 . S
C1816 H1774 0.930 . S
C1816 C1815 1.390 . S
C1816 C1817 1.366 . S
C1817 H1775 0.932 . S
C1817 C1812 1.360 . S
C1817 C1816 1.366 . S
C1818 C1792 1.490 . S
C1818 C1819 1.380 . S
C1818 C1823 1.386 . S
C1819 H1776 0.930 . S
C1819 C1818 1.380 . S
C1819 C1820 1.381 . S
C1820 H1777 0.929 . S
C1820 C1819 1.381 . S
C1820 C1821 1.371 . S
C1821 C1820 1.371 . S
C1821 C1822 1.380 . S
C1822 H1778 0.931 . S
C1822 C1821 1.380 . S
C1822 C1823 1.387 . S
C1823 H1779 0.930 . S
C1823 C1818 1.386 . S
C1823 C1822 1.387 . S
C1824 C1793 1.519 . S
C1824 C1825 1.377 . S
C1824 C1829 1.361 . S
C1825 H1780 0.929 . S
C1825 C1824 1.377 . S
C1825 C1826 1.386 . S
C1826 H1781 0.931 . S
C1826 C1825 1.386 . S
C1826 C1827 1.363 . S
C1827 C1826 1.363 . S
C1827 C1828 1.385 . S
C1828 H1782 0.930 . S
C1828 C1827 1.385 . S
C1828 C1829 1.396 . S
C1829 H1783 0.929 . S
C1829 C1824 1.361 . S
C1829 C1828 1.396 . S
C1830 O1784 1.300 . S
C1830 O1785 1.209 . S
C1830 C1803 1.486 . S
C1831 O1786 1.199 . S
C1831 O1787 1.297 . S
C1831 C1815 1.476 . S
H1832 O1858 0.856 . S
H1833 O1861 0.854 . S
H1834 C1869 0.930 . S
H1835 C1870 0.930 . S
H1836 C1872 0.930 . S
H1837 C1873 0.930 . S
H1838 C1875 0.931 . S
H1839 C1876 0.930 . S
H1840 C1878 0.930 . S
H1841 C1879 0.929 . S
H1842 C1881 0.930 . S
H1843 C1882 0.931 . S
H1844 C1884 0.930 . S
H1845 C1885 0.929 . S
H1846 C1887 0.931 . S
H1847 C1888 0.930 . S
H1848 C1890 0.930 . S
H1849 C1891 0.932 . S
H1850 C1893 0.930 . S
H1851 C1894 0.929 . S
H1852 C1896 0.931 . S
H1853 C1897 0.930 . S
H1854 C1899 0.929 . S
H1855 C1900 0.931 . S
H1856 C1902 0.930 . S
H1857 C1903 0.929 . S
O1858 H1832 0.856 . S
O1858 C1904 1.300 . S
O1859 C1904 1.209 . S
O1860 C1905 1.199 . S
O1861 H1833 0.854 . S
O1861 C1905 1.297 . S
C1862 C1863 1.404 . S
C1862 C1867 1.397 . S
C1862 C1868 1.492 . S
C1863 C1862 1.404 . S
C1863 C1864 1.396 . S
C1863 C1874 1.492 . S
C1864 C1863 1.396 . S
C1864 C1865 1.397 . S
C1864 C1880 1.509 . S
C1865 C1864 1.397 . S
C1865 C1866 1.412 . S
C1865 C1886 1.485 . S
C1866 C1865 1.412 . S
C1866 C1867 1.388 . S
C1866 C1892 1.490 . S
C1867 C1862 1.397 . S
C1867 C1866 1.388 . S
C1867 C1898 1.519 . S
C1868 C1862 1.492 . S
C1868 C1869 1.363 . S
C1868 C1873 1.390 . S
C1869 H1834 0.930 . S
C1869 C1868 1.363 . S
C1869 C1870 1.372 . S
C1870 H1835 0.930 . S
C1870 C1869 1.372 . S
C1870 C1871 1.383 . S
C1871 C1870 1.383 . S
C1871 C1872 1.395 . S
C1872 H1836 0.930 . S
C1872 C1871 1.395 . S
C1872 C1873 1.362 . S
C1873 H1837 0.930 . S
C1873 C1868 1.390 . S
C1873 C1872 1.362 . S
C1874 C1863 1.492 . S
C1874 C1875 1.377 . S
C1874 C1879 1.397 . S
C1875 H1838 0.931 . S
C1875 C1874 1.377 . S
C1875 C1876 1.376 . S
C1876 H1839 0.930 . S
C1876 C1875 1.376 . S
C1876 C1877 1.376 . S
C1877 C1876 1.376 . S
C1877 C1878 1.378 . S
C1877 C1904 1.486 . S
C1878 H1840 0.930 . S
C1878 C1877 1.378 . S
C1878 C1879 1.376 . S
C1879 H1841 0.929 . S
C1879 C1874 1.397 . S
C1879 C1878 1.376 . S
C1880 C1864 1.509 . S
C1880 C1881 1.391 . S
C1880 C1885 1.386 . S
C1881 H1842 0.930 . S
C1881 C1880 1.391 . S
C1881 C1882 1.375 . S
C1882 H1843 0.931 . S
C1882 C1881 1.375 . S
C1882 C1883 1.375 . S
C1883 C1882 1.375 . S
C1883 C1884 1.361 . S
C1884 H1844 0.930 . S
C1884 C1883 1.361 . S
C1884 C1885 1.399 . S
C1885 H1845 0.929 . S
C1885 C1880 1.386 . S
C1885 C1884 1.399 . S
C1886 C1865 1.485 . S
C1886 C1887 1.394 . S
C1886 C1891 1.360 . S
C1887 H1846 0.931 . S
C1887 C1886 1.394 . S
C1887 C1888 1.372 . S
C1888 H1847 0.930 . S
C1888 C1887 1.372 . S
C1888 C1889 1.397 . S
C1889 C1888 1.397 . S
C1889 C1890 1.390 . S
C1889 C1905 1.476 . S
C1890 H1848 0.930 . S
C1890 C1889 1.390 . S
C1890 C1891 1.366 . S
C1891 H1849 0.932 . S
C1891 C1886 1.360 . S
C1891 C1890 1.366 . S
C1892 C1866 1.490 . S
C1892 C1893 1.380 . S
C1892 C1897 1.386 . S
C1893 H1850 0.930 . S
C1893 C1892 1.380 . S
C1893 C1894 1.381 . S
C1894 H1851 0.929 . S
C1894 C1893 1.381 . S
C1894 C1895 1.371 . S
C1895 C1894 1.371 . S
C1895 C1896 1.380 . S
C1896 H1852 0.931 . S
C1896 C1895 1.380 . S
C1896 C1897 1.387 . S
C1897 H1853 0.930 . S
C1897 C1892 1.386 . S
C1897 C1896 1.387 . S
C1898 C1867 1.519 . S
C1898 C1899 1.377 . S
C1898 C1903 1.361 . S
C1899 H1854 0.929 . S
C1899 C1898 1.377 . S
C1899 C1900 1.386 . S
C1900 H1855 0.931 . S
C1900 C1899 1.386 . S
C1900 C1901 1.363 . S
C1901 C1900 1.363 . S
C1901 C1902 1.385 . S
C1902 H1856 0.930 . S
C1902 C1901 1.385 . S
C1902 C1903 1.396 . S
C1903 H1857 0.929 . S
C1903 C1898 1.361 . S
C1903 C1902 1.396 . S
C1904 O1858 1.300 . S
C1904 O1859 1.209 . S
C1904 C1877 1.486 . S
C1905 O1860 1.199 . S
C1905 O1861 1.297 . S
C1905 C1889 1.476 . S
H1906 O1932 0.856 . S
H1907 O1935 0.854 . S
H1908 C1943 0.930 . S
H1909 C1944 0.930 . S
H1910 C1946 0.930 . S
H1911 C1947 0.930 . S
H1912 C1949 0.931 . S
H1913 C1950 0.930 . S
H1914 C1952 0.930 . S
H1915 C1953 0.929 . S
H1916 C1955 0.930 . S
H1917 C1956 0.931 . S
H1918 C1958 0.930 . S
H1919 C1959 0.929 . S
H1920 C1961 0.931 . S
H1921 C1962 0.930 . S
H1922 C1964 0.930 . S
H1923 C1965 0.932 . S
H1924 C1967 0.930 . S
H1925 C1968 0.929 . S
H1926 C1970 0.931 . S
H1927 C1971 0.930 . S
H1928 C1973 0.929 . S
H1929 C1974 0.931 . S
H1930 C1976 0.930 . S
H1931 C1977 0.929 . S
O1932 H1906 0.856 . S
O1932 C1978 1.300 . S
O1933 C1978 1.209 . S
O1934 C1979 1.199 . S
O1935 H1907 0.854 . S
O1935 C1979 1.297 . S
C1936 C1937 1.404 . S
C1936 C1941 1.397 . S
C1936 C1942 1.492 . S
C1937 C1936 1.404 . S
C1937 C1938 1.396 . S
C1937 C1948 1.492 . S
C1938 C1937 1.396 . S
C1938 C1939 1.397 . S
C1938 C1954 1.509 . S
C1939 C1938 1.397 . S
C1939 C1940 1.412 . S
C1939 C1960 1.485 . S
C1940 C1939 1.412 . S
C1940 C1941 1.388 . S
C1940 C1966 1.490 . S
C1941 C1936 1.397 . S
C1941 C1940 1.388 . S
C1941 C1972 1.519 . S
C1942 C1936 1.492 . S
C1942 C1943 1.363 . S
C1942 C1947 1.390 . S
C1943 H1908 0.930 . S
C1943 C1942 1.363 . S
C1943 C1944 1.372 . S
C1944 H1909 0.930 . S
C1944 C1943 1.372 . S
C1944 C1945 1.383 . S
C1945 C1944 1.383 . S
C1945 C1946 1.395 . S
C1946 H1910 0.930 . S
C1946 C1945 1.395 . S
C1946 C1947 1.362 . S
C1947 H1911 0.930 . S
C1947 C1942 1.390 . S
C1947 C1946 1.362 . S
C1948 C1937 1.492 . S
C1948 C1949 1.377 . S
C1948 C1953 1.397 . S
C1949 H1912 0.931 . S
C1949 C1948 1.377 . S
C1949 C1950 1.376 . S
C1950 H1913 0.930 . S
C1950 C1949 1.376 . S
C1950 C1951 1.376 . S
C1951 C1950 1.376 . S
C1951 C1952 1.378 . S
C1951 C1978 1.486 . S
C1952 H1914 0.930 . S
C1952 C1951 1.378 . S
C1952 C1953 1.376 . S
C1953 H1915 0.929 . S
C1953 C1948 1.397 . S
C1953 C1952 1.376 . S
C1954 C1938 1.509 . S
C1954 C1955 1.391 . S
C1954 C1959 1.386 . S
C1955 H1916 0.930 . S
C1955 C1954 1.391 . S
C1955 C1956 1.375 . S
C1956 H1917 0.931 . S
C1956 C1955 1.375 . S
C1956 C1957 1.375 . S
C1957 C1956 1.375 . S
C1957 C1958 1.361 . S
C1958 H1918 0.930 . S
C1958 C1957 1.361 . S
C1958 C1959 1.399 . S
C1959 H1919 0.929 . S
C1959 C1954 1.386 . S
C1959 C1958 1.399 . S
C1960 C1939 1.485 . S
C1960 C1961 1.394 . S
C1960 C1965 1.360 . S
C1961 H1920 0.931 . S
C1961 C1960 1.394 . S
C1961 C1962 1.372 . S
C1962 H1921 0.930 . S
C1962 C1961 1.372 . S
C1962 C1963 1.397 . S
C1963 C1962 1.397 . S
C1963 C1964 1.390 . S
C1963 C1979 1.476 . S
C1964 H1922 0.930 . S
C1964 C1963 1.390 . S
C1964 C1965 1.366 . S
C1965 H1923 0.932 . S
C1965 C1960 1.360 . S
C1965 C1964 1.366 . S
C1966 C1940 1.490 . S
C1966 C1967 1.380 . S
C1966 C1971 1.386 . S
C1967 H1924 0.930 . S
C1967 C1966 1.380 . S
C1967 C1968 1.381 . S
C1968 H1925 0.929 . S
C1968 C1967 1.381 . S
C1968 C1969 1.371 . S
C1969 C1968 1.371 . S
C1969 C1970 1.380 . S
C1970 H1926 0.931 . S
C1970 C1969 1.380 . S
C1970 C1971 1.387 . S
C1971 H1927 0.930 . S
C1971 C1966 1.386 . S
C1971 C1970 1.387 . S
C1972 C1941 1.519 . S
C1972 C1973 1.377 . S
C1972 C1977 1.361 . S
C1973 H1928 0.929 . S
C1973 C1972 1.377 . S
C1973 C1974 1.386 . S
C1974 H1929 0.931 . S
C1974 C1973 1.386 . S
C1974 C1975 1.363 . S
C1975 C1974 1.363 . S
C1975 C1976 1.385 . S
C1976 H1930 0.930 . S
C1976 C1975 1.385 . S
C1976 C1977 1.396 . S
C1977 H1931 0.929 . S
C1977 C1972 1.361 . S
C1977 C1976 1.396 . S
C1978 O1932 1.300 . S
C1978 O1933 1.209 . S
C1978 C1951 1.486 . S
C1979 O1934 1.199 . S
C1979 O1935 1.297 . S
C1979 C1963 1.476 . S
C1980 C1981 1.391 . S
C1980 C1982 1.394 . S
C1980 H1996 0.934 . S
C1981 C1980 1.391 . S
C1981 C1985 1.376 . S
C1982 C1980 1.394 . S
C1982 C1983 1.369 . S
C1982 C1986 1.531 . S
C1983 C1982 1.369 . S
C1983 C1984 1.410 . S
C1983 C1991 1.503 . S
C1984 C1983 1.410 . S
C1984 C1985 1.392 . S
C1984 C1987 1.511 . S
C1985 C1981 1.376 . S
C1985 C1984 1.392 . S
C1985 H1997 0.929 . S
C1986 C1982 1.531 . S
C1986 H1998 0.960 . S
C1986 H1999 0.962 1_655 S
C1986 H2000 0.960 . S
C1987 C1984 1.511 . S
C1987 H2001 0.961 . S
C1987 H2002 0.961 . S
C1987 H2003 0.961 . S
C1988 C1989 1.344 1_455 S
C1988 C1990 1.376 . S
C1988 H2004 0.945 . S
C1989 C1988 1.344 1_655 S
C1989 C1993 1.408 . S
C1990 C1988 1.376 . S
C1990 C1991 1.370 1_455 S
C1990 C1994 1.524 . S
C1991 C1983 1.503 . S
C1991 C1990 1.370 1_655 S
C1991 C1992 1.403 . S
C1992 C1991 1.403 . S
C1992 C1993 1.404 . S
C1992 C1995 1.539 . S
C1993 C1989 1.408 . S
C1993 C1992 1.404 . S
C1993 H2005 0.930 . S
C1994 C1990 1.524 . S
C1994 H2006 0.956 . S
C1994 H2007 0.961 . S
C1994 H2008 0.961 . S
C1995 C1992 1.539 . S
C1995 H2009 0.958 . S
C1995 H2010 0.961 . S
C1995 H2011 0.960 . S
H1996 C1980 0.934 . S
H1997 C1985 0.929 . S
H1998 C1986 0.960 . S
H1999 C1986 0.962 1_455 S
H2000 C1986 0.960 . S
H2001 C1987 0.961 . S
H2002 C1987 0.961 . S
H2003 C1987 0.961 . S
H2004 C1988 0.945 . S
H2005 C1993 0.930 . S
H2006 C1994 0.956 . S
H2007 C1994 0.961 . S
H2008 C1994 0.961 . S
H2009 C1995 0.958 . S
H2010 C1995 0.961 . S
H2011 C1995 0.960 . S
C2012 C2013 1.391 . S
C2012 C2014 1.394 . S
C2012 H2028 0.931 . S
C2013 C2012 1.391 . S
C2013 C2017 1.376 . S
C2014 C2012 1.394 . S
C2014 C2015 1.369 . S
C2014 C2018 1.531 . S
C2015 C2014 1.369 . S
C2015 C2016 1.410 . S
C2015 C2023 1.503 . S
C2016 C2015 1.410 . S
C2016 C2017 1.392 . S
C2016 C2019 1.511 . S
C2017 C2013 1.376 . S
C2017 C2016 1.392 . S
C2017 H2029 0.929 . S
C2018 C2014 1.531 . S
C2018 H2030 0.960 . S
C2018 H2031 0.962 . S
C2018 H2032 0.960 . S
C2019 C2016 1.511 . S
C2019 H2033 0.961 . S
C2019 H2034 0.961 . S
C2019 H2035 0.961 . S
C2020 C2021 1.370 . S
C2020 C2022 1.363 . S
C2020 H2036 0.931 . S
C2021 C2020 1.370 . S
C2021 C2025 1.408 . S
C2022 C2020 1.363 . S
C2022 C2023 1.370 . S
C2022 C2026 1.524 . S
C2023 C2015 1.503 . S
C2023 C2022 1.370 . S
C2023 C2024 1.403 . S
C2024 C2023 1.403 . S
C2024 C2025 1.404 . S
C2024 C2027 1.539 . S
C2025 C2021 1.408 . S
C2025 C2024 1.404 . S
C2025 H2037 0.930 . S
C2026 C2022 1.524 . S
C2026 H2038 0.956 . S
C2026 H2039 0.961 . S
C2026 H2040 0.961 . S
C2027 C2024 1.539 . S
C2027 H2041 0.958 . S
C2027 H2042 0.961 . S
C2027 H2043 0.960 . S
H2028 C2012 0.931 . S
H2029 C2017 0.929 . S
H2030 C2018 0.960 . S
H2031 C2018 0.962 . S
H2032 C2018 0.960 . S
H2033 C2019 0.961 . S
H2034 C2019 0.961 . S
H2035 C2019 0.961 . S
H2036 C2020 0.931 . S
H2037 C2025 0.930 . S
H2038 C2026 0.956 . S
H2039 C2026 0.961 . S
H2040 C2026 0.961 . S
H2041 C2027 0.958 . S
H2042 C2027 0.961 . S
H2043 C2027 0.960 . S
C2044 C2045 1.391 . S
C2044 C2046 1.394 . S
C2044 H2060 0.931 . S
C2045 C2044 1.391 . S
C2045 C2049 1.376 1_545 S
C2046 C2044 1.394 . S
C2046 C2047 1.369 . S
C2046 C2050 1.531 . S
C2047 C2046 1.369 . S
C2047 C2048 1.408 1_545 S
C2047 C2055 1.503 . S
C2048 C2047 1.408 1_565 S
C2048 C2049 1.391 . S
C2048 C2051 1.515 . S
C2049 C2045 1.376 1_565 S
C2049 C2048 1.391 . S
C2049 H2061 0.929 . S
C2050 C2046 1.531 . S
C2050 H2062 0.960 . S
C2050 H2063 0.962 . S
C2050 H2064 0.960 . S
C2051 C2048 1.515 . S
C2051 H2065 0.961 . S
C2051 H2066 0.961 . S
C2051 H2067 0.961 . S
C2052 C2053 1.370 . S
C2052 C2054 1.363 . S
C2052 H2068 0.897 1_545 S
C2053 C2052 1.370 . S
C2053 C2057 1.408 . S
C2054 C2052 1.363 . S
C2054 C2055 1.370 . S
C2054 C2058 1.524 1_545 S
C2055 C2047 1.503 . S
C2055 C2054 1.370 . S
C2055 C2056 1.403 . S
C2056 C2055 1.403 . S
C2056 C2057 1.404 . S
C2056 C2059 1.539 . S
C2057 C2053 1.408 . S
C2057 C2056 1.404 . S
C2057 H2069 0.930 . S
C2058 C2054 1.524 1_565 S
C2058 H2070 0.956 1_565 S
C2058 H2071 0.961 . S
C2058 H2072 0.961 . S
C2059 C2056 1.539 . S
C2059 H2073 0.958 . S
C2059 H2074 0.961 . S
C2059 H2075 0.960 . S
H2060 C2044 0.931 . S
H2061 C2049 0.929 . S
H2062 C2050 0.960 . S
H2063 C2050 0.962 . S
H2064 C2050 0.960 . S
H2065 C2051 0.961 . S
H2066 C2051 0.961 . S
H2067 C2051 0.961 . S
H2068 C2052 0.897 1_565 S
H2069 C2057 0.930 . S
H2070 C2058 0.956 1_545 S
H2071 C2058 0.961 . S
H2072 C2058 0.961 . S
H2073 C2059 0.958 . S
H2074 C2059 0.961 . S
H2075 C2059 0.960 . S
C2076 C2077 1.391 1_545 S
C2076 C2078 1.394 . S
C2076 H2092 0.931 . S
C2077 C2076 1.391 1_565 S
C2077 C2081 1.376 . S
C2078 C2076 1.394 . S
C2078 C2079 1.369 1_545 S
C2078 C2082 1.531 . S
C2079 C2078 1.369 1_565 S
C2079 C2080 1.410 . S
C2079 C2087 1.503 . S
C2080 C2079 1.410 . S
C2080 C2081 1.392 . S
C2080 C2083 1.511 . S
C2081 C2077 1.376 . S
C2081 C2080 1.392 . S
C2081 H2093 0.929 . S
C2082 C2078 1.531 . S
C2082 H2094 0.960 . S
C2082 H2095 0.962 . S
C2082 H2096 0.960 . S
C2083 C2080 1.511 . S
C2083 H2097 0.961 . S
C2083 H2098 0.961 . S
C2083 H2099 0.961 . S
C2084 C2085 1.370 . S
C2084 C2086 1.363 . S
C2084 H2100 0.931 . S
C2085 C2084 1.370 . S
C2085 C2089 1.408 1_565 S
C2086 C2084 1.363 . S
C2086 C2087 1.370 . S
C2086 C2090 1.524 . S
C2087 C2079 1.503 . S
C2087 C2086 1.370 . S
C2087 C2088 1.403 1_565 S
C2088 C2087 1.403 1_545 S
C2088 C2089 1.404 . S
C2088 C2091 1.539 . S
C2089 C2085 1.408 1_545 S
C2089 C2088 1.404 . S
C2089 H2101 0.930 . S
C2090 C2086 1.524 . S
C2090 H2102 0.956 . S
C2090 H2103 0.961 . S
C2090 H2104 0.961 . S
C2091 C2088 1.539 . S
C2091 H2105 0.958 . S
C2091 H2106 0.961 . S
C2091 H2107 0.960 . S
H2092 C2076 0.931 . S
H2093 C2081 0.929 . S
H2094 C2082 0.960 . S
H2095 C2082 0.962 . S
H2096 C2082 0.960 . S
H2097 C2083 0.961 . S
H2098 C2083 0.961 . S
H2099 C2083 0.961 . S
H2100 C2084 0.931 . S
H2101 C2089 0.930 . S
H2102 C2090 0.956 . S
H2103 C2090 0.961 . S
H2104 C2090 0.961 . S
H2105 C2091 0.958 . S
H2106 C2091 0.961 . S
H2107 C2091 0.960 . S
C2108 C2109 1.391 . S
C2108 C2110 1.394 . S
C2108 H2124 0.931 . S
C2109 C2108 1.391 . S
C2109 C2113 1.376 1_455 S
C2110 C2108 1.394 . S
C2110 C2111 1.369 . S
C2110 C2114 1.531 . S
C2111 C2110 1.369 . S
C2111 C2112 1.410 1_455 S
C2111 C2119 1.503 . S
C2112 C2111 1.410 1_655 S
C2112 C2113 1.392 . S
C2112 C2115 1.511 . S
C2113 C2109 1.376 1_655 S
C2113 C2112 1.392 . S
C2113 H2125 0.929 . S
C2114 C2110 1.531 . S
C2114 H2126 0.960 . S
C2114 H2127 0.962 . S
C2114 H2128 0.960 . S
C2115 C2112 1.511 . S
C2115 H2129 0.961 . S
C2115 H2130 0.961 . S
C2115 H2131 0.961 . S
C2116 C2117 1.370 . S
C2116 C2118 1.363 . S
C2116 H2132 0.931 . S
C2117 C2116 1.370 . S
C2117 C2121 1.400 1_455 S
C2118 C2116 1.363 . S
C2118 C2119 1.370 . S
C2118 C2122 1.524 . S
C2119 C2111 1.503 . S
C2119 C2118 1.370 . S
C2119 C2120 1.403 1_455 S
C2120 C2119 1.403 1_655 S
C2120 C2121 1.393 . S
C2120 C2123 1.539 . S
C2121 C2117 1.400 1_655 S
C2121 C2120 1.393 . S
C2121 H2133 0.950 . S
C2122 C2118 1.524 . S
C2122 H2134 0.956 . S
C2122 H2135 0.961 . S
C2122 H2136 0.961 . S
C2123 C2120 1.539 . S
C2123 H2137 0.958 . S
C2123 H2138 0.961 . S
C2123 H2139 0.960 . S
H2124 C2108 0.931 . S
H2125 C2113 0.929 . S
H2126 C2114 0.960 . S
H2127 C2114 0.962 . S
H2128 C2114 0.960 . S
H2129 C2115 0.961 . S
H2130 C2115 0.961 . S
H2131 C2115 0.961 . S
H2132 C2116 0.931 . S
H2133 C2121 0.950 . S
H2134 C2122 0.956 . S
H2135 C2122 0.961 . S
H2136 C2122 0.961 . S
H2137 C2123 0.958 . S
H2138 C2123 0.961 . S
H2139 C2123 0.960 . S
C2140 C2141 1.391 1_556 S
C2140 C2142 1.394 . S
C2140 H2156 0.931 1_556 S
C2141 C2140 1.391 1_554 S
C2141 C2145 1.376 1_554 S
C2142 C2140 1.394 . S
C2142 C2143 1.369 . S
C2142 C2146 1.531 . S
C2143 C2142 1.369 . S
C2143 C2144 1.410 . S
C2143 C2151 1.503 . S
C2144 C2143 1.410 . S
C2144 C2145 1.392 . S
C2144 C2147 1.511 . S
C2145 C2141 1.376 1_556 S
C2145 C2144 1.392 . S
C2145 H2157 0.929 1_556 S
C2146 C2142 1.531 . S
C2146 H2158 0.960 . S
C2146 H2159 0.962 . S
C2146 H2160 0.960 . S
C2147 C2144 1.511 . S
C2147 H2161 0.961 . S
C2147 H2162 0.961 . S
C2147 H2163 0.961 . S
C2148 C2149 1.370 . S
C2148 C2150 1.363 . S
C2148 H2164 0.931 . S
C2149 C2148 1.370 . S
C2149 C2153 1.408 . S
C2150 C2148 1.363 . S
C2150 C2151 1.370 . S
C2150 C2154 1.524 . S
C2151 C2143 1.503 . S
C2151 C2150 1.370 . S
C2151 C2152 1.403 . S
C2152 C2151 1.403 . S
C2152 C2153 1.404 . S
C2152 C2155 1.539 . S
C2153 C2149 1.408 . S
C2153 C2152 1.404 . S
C2153 H2165 0.930 . S
C2154 C2150 1.524 . S
C2154 H2166 0.956 . S
C2154 H2167 0.961 . S
C2154 H2168 0.961 . S
C2155 C2152 1.539 . S
C2155 H2169 0.958 . S
C2155 H2170 0.961 . S
C2155 H2171 0.960 . S
H2156 C2140 0.931 1_554 S
H2157 C2145 0.929 1_554 S
H2158 C2146 0.960 . S
H2159 C2146 0.962 . S
H2160 C2146 0.960 . S
H2161 C2147 0.961 . S
H2162 C2147 0.961 . S
H2163 C2147 0.961 . S
H2164 C2148 0.931 . S
H2165 C2153 0.930 . S
H2166 C2154 0.956 . S
H2167 C2154 0.961 . S
H2168 C2154 0.961 . S
H2169 C2155 0.958 . S
H2170 C2155 0.961 . S
H2171 C2155 0.960 . S
C2172 C2173 1.391 1_556 S
C2172 C2174 1.394 . S
C2172 H2188 0.931 . S
C2173 C2172 1.391 1_554 S
C2173 C2177 1.376 1_455 S
C2174 C2172 1.394 . S
C2174 C2175 1.369 . S
C2174 C2178 1.531 . S
C2175 C2174 1.369 . S
C2175 C2176 1.410 1_455 S
C2175 C2183 1.503 . S
C2176 C2175 1.410 1_655 S
C2176 C2177 1.392 1_556 S
C2176 C2179 1.512 . S
C2177 C2173 1.376 1_655 S
C2177 C2176 1.392 1_554 S
C2177 H2189 0.929 . S
C2178 C2174 1.531 . S
C2178 H2190 0.960 . S
C2178 H2191 0.962 . S
C2178 H2192 0.960 . S
C2179 C2176 1.512 . S
C2179 H2193 0.958 1_556 S
C2179 H2194 0.964 . S
C2179 H2195 0.959 1_556 S
C2180 C2181 1.370 1_655 S
C2180 C2182 1.363 . S
C2180 H2196 0.931 . S
C2181 C2180 1.370 1_455 S
C2181 C2185 1.408 . S
C2182 C2180 1.363 . S
C2182 C2183 1.370 1_655 S
C2182 C2186 1.524 . S
C2183 C2175 1.503 . S
C2183 C2182 1.370 1_455 S
C2183 C2184 1.403 . S
C2184 C2183 1.403 . S
C2184 C2185 1.404 . S
C2184 C2187 1.539 . S
C2185 C2181 1.408 . S
C2185 C2184 1.404 . S
C2185 H2197 0.930 . S
C2186 C2182 1.524 . S
C2186 H2198 0.956 . S
C2186 H2199 0.961 . S
C2186 H2200 0.961 . S
C2187 C2184 1.539 . S
C2187 H2201 0.958 . S
C2187 H2202 0.961 . S
C2187 H2203 0.960 . S
H2188 C2172 0.931 . S
H2189 C2177 0.929 . S
H2190 C2178 0.960 . S
H2191 C2178 0.962 . S
H2192 C2178 0.960 . S
H2193 C2179 0.958 1_554 S
H2194 C2179 0.964 . S
H2195 C2179 0.959 1_554 S
H2196 C2180 0.931 . S
H2197 C2185 0.930 . S
H2198 C2186 0.956 . S
H2199 C2186 0.961 . S
H2200 C2186 0.961 . S
H2201 C2187 0.958 . S
H2202 C2187 0.961 . S
H2203 C2187 0.960 . S
C2204 C2205 1.391 . S
C2204 C2206 1.394 . S
C2204 H2220 0.931 . S
C2205 C2204 1.391 . S
C2205 C2209 1.376 . S
C2206 C2204 1.394 . S
C2206 C2207 1.369 . S
C2206 C2210 1.531 . S
C2207 C2206 1.369 . S
C2207 C2208 1.410 . S
C2207 C2215 1.503 . S
C2208 C2207 1.410 . S
C2208 C2209 1.392 . S
C2208 C2211 1.511 . S
C2209 C2205 1.376 . S
C2209 C2208 1.392 . S
C2209 H2221 0.929 . S
C2210 C2206 1.531 . S
C2210 H2222 0.960 . S
C2210 H2223 0.962 . S
C2210 H2224 0.960 . S
C2211 C2208 1.511 . S
C2211 H2225 0.961 . S
C2211 H2226 0.961 . S
C2211 H2227 0.961 . S
C2212 C2213 1.370 . S
C2212 C2214 1.363 . S
C2212 H2228 0.931 . S
C2213 C2212 1.370 . S
C2213 C2217 1.408 . S
C2214 C2212 1.363 . S
C2214 C2215 1.370 . S
C2214 C2218 1.524 . S
C2215 C2207 1.503 . S
C2215 C2214 1.370 . S
C2215 C2216 1.403 . S
C2216 C2215 1.403 . S
C2216 C2217 1.404 . S
C2216 C2219 1.539 . S
C2217 C2213 1.408 . S
C2217 C2216 1.404 . S
C2217 H2229 0.930 . S
C2218 C2214 1.524 . S
C2218 H2230 0.956 . S
C2218 H2231 0.961 . S
C2218 H2232 0.961 . S
C2219 C2216 1.539 . S
C2219 H2233 0.958 . S
C2219 H2234 0.961 . S
C2219 H2235 0.960 . S
H2220 C2204 0.931 . S
H2221 C2209 0.929 . S
H2222 C2210 0.960 . S
H2223 C2210 0.962 . S
H2224 C2210 0.960 . S
H2225 C2211 0.961 . S
H2226 C2211 0.961 . S
H2227 C2211 0.961 . S
H2228 C2212 0.931 . S
H2229 C2217 0.930 . S
H2230 C2218 0.956 . S
H2231 C2218 0.961 . S
H2232 C2218 0.961 . S
H2233 C2219 0.958 . S
H2234 C2219 0.961 . S
H2235 C2219 0.960 . S
C2236 C2237 1.391 . S
C2236 C2238 1.394 1_554 S
C2236 H2252 0.928 . S
C2237 C2236 1.391 . S
C2237 C2241 1.376 1_554 S
C2238 C2236 1.394 1_556 S
C2238 C2239 1.369 . S
C2238 C2242 1.531 . S
C2239 C2238 1.369 . S
C2239 C2240 1.410 . S
C2239 C2247 1.503 . S
C2240 C2239 1.410 . S
C2240 C2241 1.392 . S
C2240 C2243 1.511 . S
C2241 C2237 1.376 1_556 S
C2241 C2240 1.392 . S
C2241 H2253 0.929 . S
C2242 C2238 1.531 . S
C2242 H2254 0.960 . S
C2242 H2255 0.962 1_545 S
C2242 H2256 0.960 1_556 S
C2243 C2240 1.511 . S
C2243 H2257 0.961 . S
C2243 H2258 0.961 . S
C2243 H2259 0.961 . S
C2244 C2245 1.370 1_565 S
C2244 C2246 1.363 . S
C2244 H2260 0.931 . S
C2245 C2244 1.370 1_545 S
C2245 C2249 1.408 . S
C2246 C2244 1.363 . S
C2246 C2247 1.370 1_565 S
C2246 C2250 1.524 . S
C2247 C2239 1.503 . S
C2247 C2246 1.370 1_545 S
C2247 C2248 1.403 . S
C2248 C2247 1.403 . S
C2248 C2249 1.404 . S
C2248 C2251 1.539 . S
C2249 C2245 1.408 . S
C2249 C2248 1.404 . S
C2249 H2261 0.930 . S
C2250 C2246 1.524 . S
C2250 H2262 0.956 . S
C2250 H2263 0.961 . S
C2250 H2264 0.961 . S
C2251 C2248 1.539 . S
C2251 H2265 0.958 . S
C2251 H2266 0.961 . S
C2251 H2267 0.960 . S
H2252 C2236 0.928 . S
H2253 C2241 0.929 . S
H2254 C2242 0.960 . S
H2255 C2242 0.962 1_565 S
H2256 C2242 0.960 1_554 S
H2257 C2243 0.961 . S
H2258 C2243 0.961 . S
H2259 C2243 0.961 . S
H2260 C2244 0.931 . S
H2261 C2249 0.930 . S
H2262 C2250 0.956 . S
H2263 C2250 0.961 . S
H2264 C2250 0.961 . S
H2265 C2251 0.958 . S
H2266 C2251 0.961 . S
H2267 C2251 0.960 . S
C2268 C2269 1.393 . S
C2268 C2270 1.394 1_545 S
C2268 H2284 0.928 1_545 S
C2269 C2268 1.393 . S
C2269 C2273 1.376 . S
C2270 C2268 1.394 1_565 S
C2270 C2271 1.369 1_565 S
C2270 C2274 1.531 . S
C2271 C2270 1.369 1_545 S
C2271 C2272 1.410 . S
C2271 C2279 1.503 . S
C2272 C2271 1.410 . S
C2272 C2273 1.392 . S
C2272 C2275 1.511 . S
C2273 C2269 1.376 . S
C2273 C2272 1.392 . S
C2273 H2285 0.929 . S
C2274 C2270 1.531 . S
C2274 H2286 0.960 . S
C2274 H2287 0.962 . S
C2274 H2288 0.960 . S
C2275 C2272 1.511 . S
C2275 H2289 0.961 . S
C2275 H2290 0.961 . S
C2275 H2291 0.961 . S
C2276 C2277 1.404 . S
C2276 C2278 1.363 . S
C2276 H2292 0.931 . S
C2277 C2276 1.404 . S
C2277 C2281 1.365 1_545 S
C2278 C2276 1.363 . S
C2278 C2279 1.370 . S
C2278 C2282 1.524 . S
C2279 C2271 1.503 . S
C2279 C2278 1.370 . S
C2279 C2280 1.403 1_545 S
C2280 C2279 1.403 1_565 S
C2280 C2281 1.404 . S
C2280 C2283 1.539 . S
C2281 C2277 1.365 1_565 S
C2281 C2280 1.404 . S
C2281 H2293 0.930 . S
C2282 C2278 1.524 . S
C2282 H2294 0.956 . S
C2282 H2295 0.961 . S
C2282 H2296 0.961 . S
C2283 C2280 1.539 . S
C2283 H2297 0.958 . S
C2283 H2298 0.961 . S
C2283 H2299 0.960 . S
H2284 C2268 0.928 1_565 S
H2285 C2273 0.929 . S
H2286 C2274 0.960 . S
H2287 C2274 0.962 . S
H2288 C2274 0.960 . S
H2289 C2275 0.961 . S
H2290 C2275 0.961 . S
H2291 C2275 0.961 . S
H2292 C2276 0.931 . S
H2293 C2281 0.930 . S
H2294 C2282 0.956 . S
H2295 C2282 0.961 . S
H2296 C2282 0.961 . S
H2297 C2283 0.958 . S
H2298 C2283 0.961 . S
H2299 C2283 0.960 . S
C2300 C2301 1.391 . S
C2300 C2302 1.394 . S
C2300 H2316 0.931 . S
C2301 C2300 1.391 . S
C2301 C2305 1.376 1_655 S
C2302 C2300 1.394 . S
C2302 C2303 1.369 . S
C2302 C2306 1.531 . S
C2303 C2302 1.369 . S
C2303 C2304 1.410 1_655 S
C2303 C2311 1.503 . S
C2304 C2303 1.410 1_455 S
C2304 C2305 1.392 . S
C2304 C2307 1.511 . S
C2305 C2301 1.376 1_455 S
C2305 C2304 1.392 . S
C2305 H2317 0.929 . S
C2306 C2302 1.531 . S
C2306 H2318 0.960 . S
C2306 H2319 0.962 . S
C2306 H2320 0.960 . S
C2307 C2304 1.511 . S
C2307 H2321 0.961 . S
C2307 H2322 0.961 . S
C2307 H2323 0.961 . S
C2308 C2309 1.365 1_655 S
C2308 C2310 1.363 . S
C2308 H2324 0.931 . S
C2309 C2308 1.365 1_455 S
C2309 C2313 1.411 . S
C2310 C2308 1.363 . S
C2310 C2311 1.370 . S
C2310 C2314 1.524 . S
C2311 C2303 1.503 . S
C2311 C2310 1.370 . S
C2311 C2312 1.401 . S
C2312 C2311 1.401 . S
C2312 C2313 1.405 1_655 S
C2312 C2315 1.540 1_655 S
C2313 C2309 1.411 . S
C2313 C2312 1.405 1_455 S
C2313 H2325 0.930 . S
C2314 C2310 1.524 . S
C2314 H2326 0.956 . S
C2314 H2327 0.961 1_655 S
C2314 H2328 0.961 . S
C2315 C2312 1.540 1_455 S
C2315 H2329 0.958 1_455 S
C2315 H2330 0.961 . S
C2315 H2331 0.960 . S
H2316 C2300 0.931 . S
H2317 C2305 0.929 . S
H2318 C2306 0.960 . S
H2319 C2306 0.962 . S
H2320 C2306 0.960 . S
H2321 C2307 0.961 . S
H2322 C2307 0.961 . S
H2323 C2307 0.961 . S
H2324 C2308 0.931 . S
H2325 C2313 0.930 . S
H2326 C2314 0.956 . S
H2327 C2314 0.961 1_455 S
H2328 C2314 0.961 . S
H2329 C2315 0.958 1_655 S
H2330 C2315 0.961 . S
H2331 C2315 0.960 . S
C2332 C2333 1.391 . S
C2332 C2334 1.394 . S
C2332 H2348 0.931 . S
C2333 C2332 1.391 . S
C2333 C2337 1.376 . S
C2334 C2332 1.394 . S
C2334 C2335 1.369 . S
C2334 C2338 1.531 . S
C2335 C2334 1.369 . S
C2335 C2336 1.410 . S
C2335 C2343 1.503 . S
C2336 C2335 1.410 . S
C2336 C2337 1.392 . S
C2336 C2339 1.511 . S
C2337 C2333 1.376 . S
C2337 C2336 1.392 . S
C2337 H2349 0.929 . S
C2338 C2334 1.531 . S
C2338 H2350 0.960 . S
C2338 H2351 0.962 . S
C2338 H2352 0.960 . S
C2339 C2336 1.511 . S
C2339 H2353 0.961 . S
C2339 H2354 0.961 . S
C2339 H2355 0.961 . S
C2340 C2341 1.370 . S
C2340 C2342 1.363 . S
C2340 H2356 0.931 . S
C2341 C2340 1.370 . S
C2341 C2345 1.408 . S
C2342 C2340 1.363 . S
C2342 C2343 1.370 . S
C2342 C2346 1.524 . S
C2343 C2335 1.503 . S
C2343 C2342 1.370 . S
C2343 C2344 1.403 . S
C2344 C2343 1.403 . S
C2344 C2345 1.404 . S
C2344 C2347 1.539 . S
C2345 C2341 1.408 . S
C2345 C2344 1.404 . S
C2345 H2357 0.930 . S
C2346 C2342 1.524 . S
C2346 H2358 0.956 . S
C2346 H2359 0.961 . S
C2346 H2360 0.961 . S
C2347 C2344 1.539 . S
C2347 H2361 0.958 . S
C2347 H2362 0.961 . S
C2347 H2363 0.960 . S
H2348 C2332 0.931 . S
H2349 C2337 0.929 . S
H2350 C2338 0.960 . S
H2351 C2338 0.962 . S
H2352 C2338 0.960 . S
H2353 C2339 0.961 . S
H2354 C2339 0.961 . S
H2355 C2339 0.961 . S
H2356 C2340 0.931 . S
H2357 C2345 0.930 . S
H2358 C2346 0.956 . S
H2359 C2346 0.961 . S
H2360 C2346 0.961 . S
H2361 C2347 0.958 . S
H2362 C2347 0.961 . S
H2363 C2347 0.960 . S
C2364 C2365 1.391 . S
C2364 C2366 1.394 . S
C2364 H2380 0.931 . S
C2365 C2364 1.391 . S
C2365 C2369 1.376 . S
C2366 C2364 1.394 . S
C2366 C2367 1.369 . S
C2366 C2370 1.531 . S
C2367 C2366 1.369 . S
C2367 C2368 1.410 . S
C2367 C2375 1.503 . S
C2368 C2367 1.410 . S
C2368 C2369 1.392 . S
C2368 C2371 1.511 . S
C2369 C2365 1.376 . S
C2369 C2368 1.392 . S
C2369 H2381 0.929 . S
C2370 C2366 1.531 . S
C2370 H2382 0.960 . S
C2370 H2383 0.962 . S
C2370 H2384 0.960 . S
C2371 C2368 1.511 . S
C2371 H2385 0.961 . S
C2371 H2386 0.961 . S
C2371 H2387 0.961 . S
C2372 C2373 1.370 . S
C2372 C2374 1.363 . S
C2372 H2388 0.931 . S
C2373 C2372 1.370 . S
C2373 C2377 1.408 . S
C2374 C2372 1.363 . S
C2374 C2375 1.370 . S
C2374 C2378 1.524 . S
C2375 C2367 1.503 . S
C2375 C2374 1.370 . S
C2375 C2376 1.403 . S
C2376 C2375 1.403 . S
C2376 C2377 1.404 . S
C2376 C2379 1.539 . S
C2377 C2373 1.408 . S
C2377 C2376 1.404 . S
C2377 H2389 0.930 . S
C2378 C2374 1.524 . S
C2378 H2390 0.956 . S
C2378 H2391 0.961 . S
C2378 H2392 0.961 . S
C2379 C2376 1.539 . S
C2379 H2393 0.958 . S
C2379 H2394 0.961 . S
C2379 H2395 0.960 . S
H2380 C2364 0.931 . S
H2381 C2369 0.929 . S
H2382 C2370 0.960 . S
H2383 C2370 0.962 . S
H2384 C2370 0.960 . S
H2385 C2371 0.961 . S
H2386 C2371 0.961 . S
H2387 C2371 0.961 . S
H2388 C2372 0.931 . S
H2389 C2377 0.930 . S
H2390 C2378 0.956 . S
H2391 C2378 0.961 . S
H2392 C2378 0.961 . S
H2393 C2379 0.958 . S
H2394 C2379 0.961 . S
H2395 C2379 0.960 . S
C2396 C2397 1.391 . S
C2396 C2398 1.394 . S
C2396 H2412 0.931 . S
C2397 C2396 1.391 . S
C2397 C2401 1.376 . S
C2398 C2396 1.394 . S
C2398 C2399 1.369 . S
C2398 C2402 1.531 . S
C2399 C2398 1.369 . S
C2399 C2400 1.410 . S
C2399 C2407 1.503 . S
C2400 C2399 1.410 . S
C2400 C2401 1.392 . S
C2400 C2403 1.511 . S
C2401 C2397 1.376 . S
C2401 C2400 1.392 . S
C2401 H2413 0.929 . S
C2402 C2398 1.531 . S
C2402 H2414 0.960 . S
C2402 H2415 0.962 . S
C2402 H2416 0.960 . S
C2403 C2400 1.511 . S
C2403 H2417 0.961 . S
C2403 H2418 0.961 . S
C2403 H2419 0.961 . S
C2404 C2405 1.370 . S
C2404 C2406 1.363 . S
C2404 H2420 0.931 . S
C2405 C2404 1.370 . S
C2405 C2409 1.408 . S
C2406 C2404 1.363 . S
C2406 C2407 1.370 . S
C2406 C2410 1.524 . S
C2407 C2399 1.503 . S
C2407 C2406 1.370 . S
C2407 C2408 1.403 . S
C2408 C2407 1.403 . S
C2408 C2409 1.404 . S
C2408 C2411 1.539 . S
C2409 C2405 1.408 . S
C2409 C2408 1.404 . S
C2409 H2421 0.930 . S
C2410 C2406 1.524 . S
C2410 H2422 0.956 . S
C2410 H2423 0.961 . S
C2410 H2424 0.961 . S
C2411 C2408 1.539 . S
C2411 H2425 0.958 . S
C2411 H2426 0.961 . S
C2411 H2427 0.960 . S
H2412 C2396 0.931 . S
H2413 C2401 0.929 . S
H2414 C2402 0.960 . S
H2415 C2402 0.962 . S
H2416 C2402 0.960 . S
H2417 C2403 0.961 . S
H2418 C2403 0.961 . S
H2419 C2403 0.961 . S
H2420 C2404 0.931 . S
H2421 C2409 0.930 . S
H2422 C2410 0.956 . S
H2423 C2410 0.961 . S
H2424 C2410 0.961 . S
H2425 C2411 0.958 . S
H2426 C2411 0.961 . S
H2427 C2411 0.960 . S
C2428 C2429 1.391 . S
C2428 C2430 1.394 . S
C2428 H2444 0.931 . S
C2429 C2428 1.391 . S
C2429 C2433 1.376 . S
C2430 C2428 1.394 . S
C2430 C2431 1.369 . S
C2430 C2434 1.531 . S
C2431 C2430 1.369 . S
C2431 C2432 1.410 . S
C2431 C2439 1.503 . S
C2432 C2431 1.410 . S
C2432 C2433 1.392 . S
C2432 C2435 1.511 . S
C2433 C2429 1.376 . S
C2433 C2432 1.392 . S
C2433 H2445 0.929 . S
C2434 C2430 1.531 . S
C2434 H2446 0.960 . S
C2434 H2447 0.962 . S
C2434 H2448 0.960 . S
C2435 C2432 1.511 . S
C2435 H2449 0.961 . S
C2435 H2450 0.961 . S
C2435 H2451 0.961 . S
C2436 C2437 1.370 . S
C2436 C2438 1.363 . S
C2436 H2452 0.931 . S
C2437 C2436 1.370 . S
C2437 C2441 1.408 . S
C2438 C2436 1.363 . S
C2438 C2439 1.370 . S
C2438 C2442 1.524 . S
C2439 C2431 1.503 . S
C2439 C2438 1.370 . S
C2439 C2440 1.403 . S
C2440 C2439 1.403 . S
C2440 C2441 1.404 . S
C2440 C2443 1.539 . S
C2441 C2437 1.408 . S
C2441 C2440 1.404 . S
C2441 H2453 0.930 . S
C2442 C2438 1.524 . S
C2442 H2454 0.956 . S
C2442 H2455 0.961 . S
C2442 H2456 0.961 . S
C2443 C2440 1.539 . S
C2443 H2457 0.958 . S
C2443 H2458 0.961 . S
C2443 H2459 0.960 . S
H2444 C2428 0.931 . S
H2445 C2433 0.929 . S
H2446 C2434 0.960 . S
H2447 C2434 0.962 . S
H2448 C2434 0.960 . S
H2449 C2435 0.961 . S
H2450 C2435 0.961 . S
H2451 C2435 0.961 . S
H2452 C2436 0.931 . S
H2453 C2441 0.930 . S
H2454 C2442 0.956 . S
H2455 C2442 0.961 . S
H2456 C2442 0.961 . S
H2457 C2443 0.958 . S
H2458 C2443 0.961 . S
H2459 C2443 0.960 . S
C2460 C2461 1.391 . S
C2460 C2462 1.394 . S
C2460 H2476 0.931 . S
C2461 C2460 1.391 . S
C2461 C2465 1.376 . S
C2462 C2460 1.394 . S
C2462 C2463 1.369 . S
C2462 C2466 1.531 . S
C2463 C2462 1.369 . S
C2463 C2464 1.410 . S
C2463 C2471 1.503 . S
C2464 C2463 1.410 . S
C2464 C2465 1.392 . S
C2464 C2467 1.511 . S
C2465 C2461 1.376 . S
C2465 C2464 1.392 . S
C2465 H2477 0.929 . S
C2466 C2462 1.531 . S
C2466 H2478 0.960 . S
C2466 H2479 0.962 . S
C2466 H2480 0.960 . S
C2467 C2464 1.511 . S
C2467 H2481 0.961 . S
C2467 H2482 0.961 . S
C2467 H2483 0.961 . S
C2468 C2469 1.370 . S
C2468 C2470 1.363 . S
C2468 H2484 0.931 . S
C2469 C2468 1.370 . S
C2469 C2473 1.408 . S
C2470 C2468 1.363 . S
C2470 C2471 1.370 . S
C2470 C2474 1.524 . S
C2471 C2463 1.503 . S
C2471 C2470 1.370 . S
C2471 C2472 1.403 . S
C2472 C2471 1.403 . S
C2472 C2473 1.404 . S
C2472 C2475 1.539 . S
C2473 C2469 1.408 . S
C2473 C2472 1.404 . S
C2473 H2485 0.930 . S
C2474 C2470 1.524 . S
C2474 H2486 0.956 . S
C2474 H2487 0.961 . S
C2474 H2488 0.961 . S
C2475 C2472 1.539 . S
C2475 H2489 0.958 . S
C2475 H2490 0.961 . S
C2475 H2491 0.960 . S
H2476 C2460 0.931 . S
H2477 C2465 0.929 . S
H2478 C2466 0.960 . S
H2479 C2466 0.962 . S
H2480 C2466 0.960 . S
H2481 C2467 0.961 . S
H2482 C2467 0.961 . S
H2483 C2467 0.961 . S
H2484 C2468 0.931 . S
H2485 C2473 0.930 . S
H2486 C2474 0.956 . S
H2487 C2474 0.961 . S
H2488 C2474 0.961 . S
H2489 C2475 0.958 . S
H2490 C2475 0.961 . S
H2491 C2475 0.960 . S
C2492 C2493 1.391 . S
C2492 C2494 1.394 . S
C2492 H2508 0.931 . S
C2493 C2492 1.391 . S
C2493 C2497 1.376 . S
C2494 C2492 1.394 . S
C2494 C2495 1.369 . S
C2494 C2498 1.531 . S
C2495 C2494 1.369 . S
C2495 C2496 1.410 . S
C2495 C2503 1.503 . S
C2496 C2495 1.410 . S
C2496 C2497 1.392 . S
C2496 C2499 1.511 . S
C2497 C2493 1.376 . S
C2497 C2496 1.392 . S
C2497 H2509 0.929 . S
C2498 C2494 1.531 . S
C2498 H2510 0.960 . S
C2498 H2511 0.962 . S
C2498 H2512 0.960 . S
C2499 C2496 1.511 . S
C2499 H2513 0.961 . S
C2499 H2514 0.961 . S
C2499 H2515 0.961 . S
C2500 C2501 1.370 . S
C2500 C2502 1.363 . S
C2500 H2516 0.931 . S
C2501 C2500 1.370 . S
C2501 C2505 1.408 . S
C2502 C2500 1.363 . S
C2502 C2503 1.370 . S
C2502 C2506 1.524 . S
C2503 C2495 1.503 . S
C2503 C2502 1.370 . S
C2503 C2504 1.403 . S
C2504 C2503 1.403 . S
C2504 C2505 1.404 . S
C2504 C2507 1.539 . S
C2505 C2501 1.408 . S
C2505 C2504 1.404 . S
C2505 H2517 0.930 . S
C2506 C2502 1.524 . S
C2506 H2518 0.956 . S
C2506 H2519 0.961 . S
C2506 H2520 0.961 . S
C2507 C2504 1.539 . S
C2507 H2521 0.958 . S
C2507 H2522 0.961 . S
C2507 H2523 0.960 . S
H2508 C2492 0.931 . S
H2509 C2497 0.929 . S
H2510 C2498 0.960 . S
H2511 C2498 0.962 . S
H2512 C2498 0.960 . S
H2513 C2499 0.961 . S
H2514 C2499 0.961 . S
H2515 C2499 0.961 . S
H2516 C2500 0.931 . S
H2517 C2505 0.930 . S
H2518 C2506 0.956 . S
H2519 C2506 0.961 . S
H2520 C2506 0.961 . S
H2521 C2507 0.958 . S
H2522 C2507 0.961 . S
H2523 C2507 0.960 . S
C2524 C2525 1.391 . S
C2524 C2526 1.394 . S
C2524 H2540 0.931 . S
C2525 C2524 1.391 . S
C2525 C2529 1.376 . S
C2526 C2524 1.394 . S
C2526 C2527 1.369 . S
C2526 C2530 1.531 . S
C2527 C2526 1.369 . S
C2527 C2528 1.410 . S
C2527 C2535 1.503 . S
C2528 C2527 1.410 . S
C2528 C2529 1.392 . S
C2528 C2531 1.511 . S
C2529 C2525 1.376 . S
C2529 C2528 1.392 . S
C2529 H2541 0.929 . S
C2530 C2526 1.531 . S
C2530 H2542 0.960 . S
C2530 H2543 0.962 . S
C2530 H2544 0.960 . S
C2531 C2528 1.511 . S
C2531 H2545 0.961 . S
C2531 H2546 0.961 . S
C2531 H2547 0.961 . S
C2532 C2533 1.370 . S
C2532 C2534 1.363 . S
C2532 H2548 0.931 . S
C2533 C2532 1.370 . S
C2533 C2537 1.408 . S
C2534 C2532 1.363 . S
C2534 C2535 1.370 . S
C2534 C2538 1.524 . S
C2535 C2527 1.503 . S
C2535 C2534 1.370 . S
C2535 C2536 1.403 . S
C2536 C2535 1.403 . S
C2536 C2537 1.404 . S
C2536 C2539 1.539 . S
C2537 C2533 1.408 . S
C2537 C2536 1.404 . S
C2537 H2549 0.930 . S
C2538 C2534 1.524 . S
C2538 H2550 0.956 . S
C2538 H2551 0.961 . S
C2538 H2552 0.961 . S
C2539 C2536 1.539 . S
C2539 H2553 0.958 . S
C2539 H2554 0.961 . S
C2539 H2555 0.960 . S
H2540 C2524 0.931 . S
H2541 C2529 0.929 . S
H2542 C2530 0.960 . S
H2543 C2530 0.962 . S
H2544 C2530 0.960 . S
H2545 C2531 0.961 . S
H2546 C2531 0.961 . S
H2547 C2531 0.961 . S
H2548 C2532 0.931 . S
H2549 C2537 0.930 . S
H2550 C2538 0.956 . S
H2551 C2538 0.961 . S
H2552 C2538 0.961 . S
H2553 C2539 0.958 . S
H2554 C2539 0.961 . S
H2555 C2539 0.960 . S
C2556 C2557 1.391 . S
C2556 C2558 1.394 . S
C2556 H2572 0.931 . S
C2557 C2556 1.391 . S
C2557 C2561 1.376 . S
C2558 C2556 1.394 . S
C2558 C2559 1.369 . S
C2558 C2562 1.531 . S
C2559 C2558 1.369 . S
C2559 C2560 1.410 . S
C2559 C2567 1.503 . S
C2560 C2559 1.410 . S
C2560 C2561 1.392 . S
C2560 C2563 1.511 . S
C2561 C2557 1.376 . S
C2561 C2560 1.392 . S
C2561 H2573 0.929 . S
C2562 C2558 1.531 . S
C2562 H2574 0.960 . S
C2562 H2575 0.962 . S
C2562 H2576 0.960 . S
C2563 C2560 1.511 . S
C2563 H2577 0.961 . S
C2563 H2578 0.961 . S
C2563 H2579 0.961 . S
C2564 C2565 1.370 . S
C2564 C2566 1.363 . S
C2564 H2580 0.931 . S
C2565 C2564 1.370 . S
C2565 C2569 1.408 . S
C2566 C2564 1.363 . S
C2566 C2567 1.370 . S
C2566 C2570 1.524 . S
C2567 C2559 1.503 . S
C2567 C2566 1.370 . S
C2567 C2568 1.403 . S
C2568 C2567 1.403 . S
C2568 C2569 1.404 . S
C2568 C2571 1.539 . S
C2569 C2565 1.408 . S
C2569 C2568 1.404 . S
C2569 H2581 0.930 . S
C2570 C2566 1.524 . S
C2570 H2582 0.956 . S
C2570 H2583 0.961 . S
C2570 H2584 0.961 . S
C2571 C2568 1.539 . S
C2571 H2585 0.958 . S
C2571 H2586 0.961 . S
C2571 H2587 0.960 . S
H2572 C2556 0.931 . S
H2573 C2561 0.929 . S
H2574 C2562 0.960 . S
H2575 C2562 0.962 . S
H2576 C2562 0.960 . S
H2577 C2563 0.961 . S
H2578 C2563 0.961 . S
H2579 C2563 0.961 . S
H2580 C2564 0.931 . S
H2581 C2569 0.930 . S
H2582 C2570 0.956 . S
H2583 C2570 0.961 . S
H2584 C2570 0.961 . S
H2585 C2571 0.958 . S
H2586 C2571 0.961 . S
H2587 C2571 0.960 . S
C2588 C2589 1.391 . S
C2588 C2590 1.394 . S
C2588 H2604 0.931 . S
C2589 C2588 1.391 . S
C2589 C2593 1.376 . S
C2590 C2588 1.394 . S
C2590 C2591 1.369 . S
C2590 C2594 1.531 . S
C2591 C2590 1.369 . S
C2591 C2592 1.410 . S
C2591 C2599 1.503 . S
C2592 C2591 1.410 . S
C2592 C2593 1.392 . S
C2592 C2595 1.511 . S
C2593 C2589 1.376 . S
C2593 C2592 1.392 . S
C2593 H2605 0.929 . S
C2594 C2590 1.531 . S
C2594 H2606 0.960 . S
C2594 H2607 0.962 . S
C2594 H2608 0.960 . S
C2595 C2592 1.511 . S
C2595 H2609 0.961 . S
C2595 H2610 0.961 . S
C2595 H2611 0.961 . S
C2596 C2597 1.370 . S
C2596 C2598 1.363 . S
C2596 H2612 0.931 . S
C2597 C2596 1.370 . S
C2597 C2601 1.408 . S
C2598 C2596 1.363 . S
C2598 C2599 1.370 . S
C2598 C2602 1.524 . S
C2599 C2591 1.503 . S
C2599 C2598 1.370 . S
C2599 C2600 1.403 . S
C2600 C2599 1.403 . S
C2600 C2601 1.404 . S
C2600 C2603 1.539 . S
C2601 C2597 1.408 . S
C2601 C2600 1.404 . S
C2601 H2613 0.930 . S
C2602 C2598 1.524 . S
C2602 H2614 0.956 . S
C2602 H2615 0.961 . S
C2602 H2616 0.961 . S
C2603 C2600 1.539 . S
C2603 H2617 0.958 . S
C2603 H2618 0.961 . S
C2603 H2619 0.960 . S
H2604 C2588 0.931 . S
H2605 C2593 0.929 . S
H2606 C2594 0.960 . S
H2607 C2594 0.962 . S
H2608 C2594 0.960 . S
H2609 C2595 0.961 . S
H2610 C2595 0.961 . S
H2611 C2595 0.961 . S
H2612 C2596 0.931 . S
H2613 C2601 0.930 . S
H2614 C2602 0.956 . S
H2615 C2602 0.961 . S
H2616 C2602 0.961 . S
H2617 C2603 0.958 . S
H2618 C2603 0.961 . S
H2619 C2603 0.960 . S
C2620 C2621 1.391 . S
C2620 C2622 1.394 . S
C2620 H2636 0.931 . S
C2621 C2620 1.391 . S
C2621 C2625 1.376 . S
C2622 C2620 1.394 . S
C2622 C2623 1.369 . S
C2622 C2626 1.531 . S
C2623 C2622 1.369 . S
C2623 C2624 1.410 . S
C2623 C2631 1.503 . S
C2624 C2623 1.410 . S
C2624 C2625 1.392 . S
C2624 C2627 1.511 . S
C2625 C2621 1.376 . S
C2625 C2624 1.392 . S
C2625 H2637 0.929 . S
C2626 C2622 1.531 . S
C2626 H2638 0.960 . S
C2626 H2639 0.962 . S
C2626 H2640 0.960 . S
C2627 C2624 1.511 . S
C2627 H2641 0.961 . S
C2627 H2642 0.961 . S
C2627 H2643 0.961 . S
C2628 C2629 1.370 . S
C2628 C2630 1.363 . S
C2628 H2644 0.931 . S
C2629 C2628 1.370 . S
C2629 C2633 1.408 . S
C2630 C2628 1.363 . S
C2630 C2631 1.370 . S
C2630 C2634 1.524 . S
C2631 C2623 1.503 . S
C2631 C2630 1.370 . S
C2631 C2632 1.403 . S
C2632 C2631 1.403 . S
C2632 C2633 1.404 . S
C2632 C2635 1.539 . S
C2633 C2629 1.408 . S
C2633 C2632 1.404 . S
C2633 H2645 0.930 . S
C2634 C2630 1.524 . S
C2634 H2646 0.956 . S
C2634 H2647 0.961 . S
C2634 H2648 0.961 . S
C2635 C2632 1.539 . S
C2635 H2649 0.958 . S
C2635 H2650 0.961 . S
C2635 H2651 0.960 . S
H2636 C2620 0.931 . S
H2637 C2625 0.929 . S
H2638 C2626 0.960 . S
H2639 C2626 0.962 . S
H2640 C2626 0.960 . S
H2641 C2627 0.961 . S
H2642 C2627 0.961 . S
H2643 C2627 0.961 . S
H2644 C2628 0.931 . S
H2645 C2633 0.930 . S
H2646 C2634 0.956 . S
H2647 C2634 0.961 . S
H2648 C2634 0.961 . S
H2649 C2635 0.958 . S
H2650 C2635 0.961 . S
H2651 C2635 0.960 . S
C2652 C2653 1.391 . S
C2652 C2654 1.394 . S
C2652 H2668 0.931 . S
C2653 C2652 1.391 . S
C2653 C2657 1.376 . S
C2654 C2652 1.394 . S
C2654 C2655 1.369 . S
C2654 C2658 1.531 . S
C2655 C2654 1.369 . S
C2655 C2656 1.410 . S
C2655 C2663 1.503 . S
C2656 C2655 1.410 . S
C2656 C2657 1.392 . S
C2656 C2659 1.511 . S
C2657 C2653 1.376 . S
C2657 C2656 1.392 . S
C2657 H2669 0.929 . S
C2658 C2654 1.531 . S
C2658 H2670 0.960 . S
C2658 H2671 0.962 . S
C2658 H2672 0.960 . S
C2659 C2656 1.511 . S
C2659 H2673 0.961 . S
C2659 H2674 0.961 . S
C2659 H2675 0.961 . S
C2660 C2661 1.370 . S
C2660 C2662 1.363 . S
C2660 H2676 0.931 . S
C2661 C2660 1.370 . S
C2661 C2665 1.408 . S
C2662 C2660 1.363 . S
C2662 C2663 1.370 . S
C2662 C2666 1.524 . S
C2663 C2655 1.503 . S
C2663 C2662 1.370 . S
C2663 C2664 1.403 . S
C2664 C2663 1.403 . S
C2664 C2665 1.404 . S
C2664 C2667 1.539 . S
C2665 C2661 1.408 . S
C2665 C2664 1.404 . S
C2665 H2677 0.930 . S
C2666 C2662 1.524 . S
C2666 H2678 0.956 . S
C2666 H2679 0.961 . S
C2666 H2680 0.961 . S
C2667 C2664 1.539 . S
C2667 H2681 0.958 . S
C2667 H2682 0.961 . S
C2667 H2683 0.960 . S
H2668 C2652 0.931 . S
H2669 C2657 0.929 . S
H2670 C2658 0.960 . S
H2671 C2658 0.962 . S
H2672 C2658 0.960 . S
H2673 C2659 0.961 . S
H2674 C2659 0.961 . S
H2675 C2659 0.961 . S
H2676 C2660 0.931 . S
H2677 C2665 0.930 . S
H2678 C2666 0.956 . S
H2679 C2666 0.961 . S
H2680 C2666 0.961 . S
H2681 C2667 0.958 . S
H2682 C2667 0.961 . S
H2683 C2667 0.960 . S
C2684 C2685 1.391 . S
C2684 C2686 1.394 . S
C2684 H2700 0.931 . S
C2685 C2684 1.391 . S
C2685 C2689 1.376 . S
C2686 C2684 1.394 . S
C2686 C2687 1.369 . S
C2686 C2690 1.531 . S
C2687 C2686 1.369 . S
C2687 C2688 1.410 . S
C2687 C2695 1.503 . S
C2688 C2687 1.410 . S
C2688 C2689 1.392 . S
C2688 C2691 1.511 . S
C2689 C2685 1.376 . S
C2689 C2688 1.392 . S
C2689 H2701 0.929 . S
C2690 C2686 1.531 . S
C2690 H2702 0.960 . S
C2690 H2703 0.962 . S
C2690 H2704 0.960 . S
C2691 C2688 1.511 . S
C2691 H2705 0.961 . S
C2691 H2706 0.961 . S
C2691 H2707 0.961 . S
C2692 C2693 1.370 . S
C2692 C2694 1.363 . S
C2692 H2708 0.931 . S
C2693 C2692 1.370 . S
C2693 C2697 1.408 . S
C2694 C2692 1.363 . S
C2694 C2695 1.370 . S
C2694 C2698 1.524 . S
C2695 C2687 1.503 . S
C2695 C2694 1.370 . S
C2695 C2696 1.403 . S
C2696 C2695 1.403 . S
C2696 C2697 1.404 . S
C2696 C2699 1.539 . S
C2697 C2693 1.408 . S
C2697 C2696 1.404 . S
C2697 H2709 0.930 . S
C2698 C2694 1.524 . S
C2698 H2710 0.956 . S
C2698 H2711 0.961 . S
C2698 H2712 0.961 . S
C2699 C2696 1.539 . S
C2699 H2713 0.958 . S
C2699 H2714 0.961 . S
C2699 H2715 0.960 . S
H2700 C2684 0.931 . S
H2701 C2689 0.929 . S
H2702 C2690 0.960 . S
H2703 C2690 0.962 . S
H2704 C2690 0.960 . S
H2705 C2691 0.961 . S
H2706 C2691 0.961 . S
H2707 C2691 0.961 . S
H2708 C2692 0.931 . S
H2709 C2697 0.930 . S
H2710 C2698 0.956 . S
H2711 C2698 0.961 . S
H2712 C2698 0.961 . S
H2713 C2699 0.958 . S
H2714 C2699 0.961 . S
H2715 C2699 0.960 . S
C2716 C2717 1.391 . S
C2716 C2718 1.394 . S
C2716 H2732 0.931 . S
C2717 C2716 1.391 . S
C2717 C2721 1.376 . S
C2718 C2716 1.394 . S
C2718 C2719 1.369 . S
C2718 C2722 1.531 . S
C2719 C2718 1.369 . S
C2719 C2720 1.410 . S
C2719 C2727 1.503 . S
C2720 C2719 1.410 . S
C2720 C2721 1.392 . S
C2720 C2723 1.511 . S
C2721 C2717 1.376 . S
C2721 C2720 1.392 . S
C2721 H2733 0.929 . S
C2722 C2718 1.531 . S
C2722 H2734 0.960 . S
C2722 H2735 0.962 . S
C2722 H2736 0.960 . S
C2723 C2720 1.511 . S
C2723 H2737 0.961 . S
C2723 H2738 0.961 . S
C2723 H2739 0.961 . S
C2724 C2725 1.370 . S
C2724 C2726 1.363 . S
C2724 H2740 0.931 . S
C2725 C2724 1.370 . S
C2725 C2729 1.408 . S
C2726 C2724 1.363 . S
C2726 C2727 1.370 . S
C2726 C2730 1.524 . S
C2727 C2719 1.503 . S
C2727 C2726 1.370 . S
C2727 C2728 1.403 . S
C2728 C2727 1.403 . S
C2728 C2729 1.404 . S
C2728 C2731 1.539 . S
C2729 C2725 1.408 . S
C2729 C2728 1.404 . S
C2729 H2741 0.930 . S
C2730 C2726 1.524 . S
C2730 H2742 0.956 . S
C2730 H2743 0.961 . S
C2730 H2744 0.961 . S
C2731 C2728 1.539 . S
C2731 H2745 0.958 . S
C2731 H2746 0.961 . S
C2731 H2747 0.960 . S
H2732 C2716 0.931 . S
H2733 C2721 0.929 . S
H2734 C2722 0.960 . S
H2735 C2722 0.962 . S
H2736 C2722 0.960 . S
H2737 C2723 0.961 . S
H2738 C2723 0.961 . S
H2739 C2723 0.961 . S
H2740 C2724 0.931 . S
H2741 C2729 0.930 . S
H2742 C2730 0.956 . S
H2743 C2730 0.961 . S
H2744 C2730 0.961 . S
H2745 C2731 0.958 . S
H2746 C2731 0.961 . S
H2747 C2731 0.960 . S
C2748 C2749 1.391 . S
C2748 C2750 1.394 . S
C2748 H2764 0.931 . S
C2749 C2748 1.391 . S
C2749 C2753 1.376 . S
C2750 C2748 1.394 . S
C2750 C2751 1.369 . S
C2750 C2754 1.531 . S
C2751 C2750 1.369 . S
C2751 C2752 1.410 . S
C2751 C2759 1.503 . S
C2752 C2751 1.410 . S
C2752 C2753 1.392 . S
C2752 C2755 1.511 . S
C2753 C2749 1.376 . S
C2753 C2752 1.392 . S
C2753 H2765 0.929 . S
C2754 C2750 1.531 . S
C2754 H2766 0.960 . S
C2754 H2767 0.962 . S
C2754 H2768 0.960 . S
C2755 C2752 1.511 . S
C2755 H2769 0.961 . S
C2755 H2770 0.961 . S
C2755 H2771 0.961 . S
C2756 C2757 1.370 . S
C2756 C2758 1.363 . S
C2756 H2772 0.931 . S
C2757 C2756 1.370 . S
C2757 C2761 1.408 . S
C2758 C2756 1.363 . S
C2758 C2759 1.370 . S
C2758 C2762 1.524 . S
C2759 C2751 1.503 . S
C2759 C2758 1.370 . S
C2759 C2760 1.403 . S
C2760 C2759 1.403 . S
C2760 C2761 1.404 . S
C2760 C2763 1.539 . S
C2761 C2757 1.408 . S
C2761 C2760 1.404 . S
C2761 H2773 0.930 . S
C2762 C2758 1.524 . S
C2762 H2774 0.956 . S
C2762 H2775 0.961 . S
C2762 H2776 0.961 . S
C2763 C2760 1.539 . S
C2763 H2777 0.958 . S
C2763 H2778 0.961 . S
C2763 H2779 0.960 . S
H2764 C2748 0.931 . S
H2765 C2753 0.929 . S
H2766 C2754 0.960 . S
H2767 C2754 0.962 . S
H2768 C2754 0.960 . S
H2769 C2755 0.961 . S
H2770 C2755 0.961 . S
H2771 C2755 0.961 . S
H2772 C2756 0.931 . S
H2773 C2761 0.930 . S
H2774 C2762 0.956 . S
H2775 C2762 0.961 . S
H2776 C2762 0.961 . S
H2777 C2763 0.958 . S
H2778 C2763 0.961 . S
H2779 C2763 0.960 . S
C2780 C2781 1.391 . S
C2780 C2782 1.394 . S
C2780 H2796 0.931 . S
C2781 C2780 1.391 . S
C2781 C2785 1.376 . S
C2782 C2780 1.394 . S
C2782 C2783 1.369 . S
C2782 C2786 1.531 . S
C2783 C2782 1.369 . S
C2783 C2784 1.410 . S
C2783 C2791 1.503 . S
C2784 C2783 1.410 . S
C2784 C2785 1.392 . S
C2784 C2787 1.511 . S
C2785 C2781 1.376 . S
C2785 C2784 1.392 . S
C2785 H2797 0.929 . S
C2786 C2782 1.531 . S
C2786 H2798 0.960 . S
C2786 H2799 0.962 . S
C2786 H2800 0.960 . S
C2787 C2784 1.511 . S
C2787 H2801 0.961 . S
C2787 H2802 0.961 . S
C2787 H2803 0.961 . S
C2788 C2789 1.370 . S
C2788 C2790 1.363 . S
C2788 H2804 0.931 . S
C2789 C2788 1.370 . S
C2789 C2793 1.408 . S
C2790 C2788 1.363 . S
C2790 C2791 1.370 . S
C2790 C2794 1.524 . S
C2791 C2783 1.503 . S
C2791 C2790 1.370 . S
C2791 C2792 1.403 . S
C2792 C2791 1.403 . S
C2792 C2793 1.404 . S
C2792 C2795 1.539 . S
C2793 C2789 1.408 . S
C2793 C2792 1.404 . S
C2793 H2805 0.930 . S
C2794 C2790 1.524 . S
C2794 H2806 0.956 . S
C2794 H2807 0.961 . S
C2794 H2808 0.961 . S
C2795 C2792 1.539 . S
C2795 H2809 0.958 . S
C2795 H2810 0.961 . S
C2795 H2811 0.960 . S
H2796 C2780 0.931 . S
H2797 C2785 0.929 . S
H2798 C2786 0.960 . S
H2799 C2786 0.962 . S
H2800 C2786 0.960 . S
H2801 C2787 0.961 . S
H2802 C2787 0.961 . S
H2803 C2787 0.961 . S
H2804 C2788 0.931 . S
H2805 C2793 0.930 . S
H2806 C2794 0.956 . S
H2807 C2794 0.961 . S
H2808 C2794 0.961 . S
H2809 C2795 0.958 . S
H2810 C2795 0.961 . S
H2811 C2795 0.960 . S
C2812 C2813 1.391 . S
C2812 C2814 1.394 . S
C2812 H2828 0.931 . S
C2813 C2812 1.391 . S
C2813 C2817 1.376 . S
C2814 C2812 1.394 . S
C2814 C2815 1.369 . S
C2814 C2818 1.531 . S
C2815 C2814 1.369 . S
C2815 C2816 1.410 . S
C2815 C2823 1.503 . S
C2816 C2815 1.410 . S
C2816 C2817 1.392 . S
C2816 C2819 1.511 . S
C2817 C2813 1.376 . S
C2817 C2816 1.392 . S
C2817 H2829 0.929 . S
C2818 C2814 1.531 . S
C2818 H2830 0.960 . S
C2818 H2831 0.962 . S
C2818 H2832 0.960 . S
C2819 C2816 1.511 . S
C2819 H2833 0.961 . S
C2819 H2834 0.961 . S
C2819 H2835 0.961 . S
C2820 C2821 1.370 . S
C2820 C2822 1.363 . S
C2820 H2836 0.931 . S
C2821 C2820 1.370 . S
C2821 C2825 1.408 . S
C2822 C2820 1.363 . S
C2822 C2823 1.370 . S
C2822 C2826 1.524 . S
C2823 C2815 1.503 . S
C2823 C2822 1.370 . S
C2823 C2824 1.403 . S
C2824 C2823 1.403 . S
C2824 C2825 1.404 . S
C2824 C2827 1.539 . S
C2825 C2821 1.408 . S
C2825 C2824 1.404 . S
C2825 H2837 0.930 . S
C2826 C2822 1.524 . S
C2826 H2838 0.956 . S
C2826 H2839 0.961 . S
C2826 H2840 0.961 . S
C2827 C2824 1.539 . S
C2827 H2841 0.958 . S
C2827 H2842 0.961 . S
C2827 H2843 0.960 . S
H2828 C2812 0.931 . S
H2829 C2817 0.929 . S
H2830 C2818 0.960 . S
H2831 C2818 0.962 . S
H2832 C2818 0.960 . S
H2833 C2819 0.961 . S
H2834 C2819 0.961 . S
H2835 C2819 0.961 . S
H2836 C2820 0.931 . S
H2837 C2825 0.930 . S
H2838 C2826 0.956 . S
H2839 C2826 0.961 . S
H2840 C2826 0.961 . S
H2841 C2827 0.958 . S
H2842 C2827 0.961 . S
H2843 C2827 0.960 . S
C2844 C2845 1.391 . S
C2844 C2846 1.394 . S
C2844 H2860 0.931 . S
C2845 C2844 1.391 . S
C2845 C2849 1.376 . S
C2846 C2844 1.394 . S
C2846 C2847 1.369 . S
C2846 C2850 1.531 . S
C2847 C2846 1.369 . S
C2847 C2848 1.410 . S
C2847 C2855 1.503 . S
C2848 C2847 1.410 . S
C2848 C2849 1.392 . S
C2848 C2851 1.511 . S
C2849 C2845 1.376 . S
C2849 C2848 1.392 . S
C2849 H2861 0.929 . S
C2850 C2846 1.531 . S
C2850 H2862 0.960 . S
C2850 H2863 0.962 . S
C2850 H2864 0.960 . S
C2851 C2848 1.511 . S
C2851 H2865 0.961 . S
C2851 H2866 0.961 . S
C2851 H2867 0.961 . S
C2852 C2853 1.370 . S
C2852 C2854 1.363 . S
C2852 H2868 0.931 . S
C2853 C2852 1.370 . S
C2853 C2857 1.408 . S
C2854 C2852 1.363 . S
C2854 C2855 1.370 . S
C2854 C2858 1.524 . S
C2855 C2847 1.503 . S
C2855 C2854 1.370 . S
C2855 C2856 1.403 . S
C2856 C2855 1.403 . S
C2856 C2857 1.404 . S
C2856 C2859 1.539 . S
C2857 C2853 1.408 . S
C2857 C2856 1.404 . S
C2857 H2869 0.930 . S
C2858 C2854 1.524 . S
C2858 H2870 0.956 . S
C2858 H2871 0.961 . S
C2858 H2872 0.961 . S
C2859 C2856 1.539 . S
C2859 H2873 0.958 . S
C2859 H2874 0.961 . S
C2859 H2875 0.960 . S
H2860 C2844 0.931 . S
H2861 C2849 0.929 . S
H2862 C2850 0.960 . S
H2863 C2850 0.962 . S
H2864 C2850 0.960 . S
H2865 C2851 0.961 . S
H2866 C2851 0.961 . S
H2867 C2851 0.961 . S
H2868 C2852 0.931 . S
H2869 C2857 0.930 . S
H2870 C2858 0.956 . S
H2871 C2858 0.961 . S
H2872 C2858 0.961 . S
H2873 C2859 0.958 . S
H2874 C2859 0.961 . S
H2875 C2859 0.960 . S
C2876 C2877 1.391 . S
C2876 C2878 1.394 . S
C2876 H2892 0.931 . S
C2877 C2876 1.391 . S
C2877 C2881 1.376 . S
C2878 C2876 1.394 . S
C2878 C2879 1.369 . S
C2878 C2882 1.531 . S
C2879 C2878 1.369 . S
C2879 C2880 1.410 . S
C2879 C2887 1.503 . S
C2880 C2879 1.410 . S
C2880 C2881 1.392 . S
C2880 C2883 1.511 . S
C2881 C2877 1.376 . S
C2881 C2880 1.392 . S
C2881 H2893 0.929 . S
C2882 C2878 1.531 . S
C2882 H2894 0.960 . S
C2882 H2895 0.962 . S
C2882 H2896 0.960 . S
C2883 C2880 1.511 . S
C2883 H2897 0.961 . S
C2883 H2898 0.961 . S
C2883 H2899 0.961 . S
C2884 C2885 1.370 . S
C2884 C2886 1.363 . S
C2884 H2900 0.931 . S
C2885 C2884 1.370 . S
C2885 C2889 1.408 . S
C2886 C2884 1.363 . S
C2886 C2887 1.370 . S
C2886 C2890 1.524 . S
C2887 C2879 1.503 . S
C2887 C2886 1.370 . S
C2887 C2888 1.403 . S
C2888 C2887 1.403 . S
C2888 C2889 1.404 . S
C2888 C2891 1.539 . S
C2889 C2885 1.408 . S
C2889 C2888 1.404 . S
C2889 H2901 0.930 . S
C2890 C2886 1.524 . S
C2890 H2902 0.956 . S
C2890 H2903 0.961 . S
C2890 H2904 0.961 . S
C2891 C2888 1.539 . S
C2891 H2905 0.958 . S
C2891 H2906 0.961 . S
C2891 H2907 0.960 . S
H2892 C2876 0.931 . S
H2893 C2881 0.929 . S
H2894 C2882 0.960 . S
H2895 C2882 0.962 . S
H2896 C2882 0.960 . S
H2897 C2883 0.961 . S
H2898 C2883 0.961 . S
H2899 C2883 0.961 . S
H2900 C2884 0.931 . S
H2901 C2889 0.930 . S
H2902 C2890 0.956 . S
H2903 C2890 0.961 . S
H2904 C2890 0.961 . S
H2905 C2891 0.958 . S
H2906 C2891 0.961 . S
H2907 C2891 0.960 . S
C2908 C2909 1.391 . S
C2908 C2910 1.394 . S
C2908 H2924 0.931 . S
C2909 C2908 1.391 . S
C2909 C2913 1.376 . S
C2910 C2908 1.394 . S
C2910 C2911 1.369 . S
C2910 C2914 1.531 . S
C2911 C2910 1.369 . S
C2911 C2912 1.410 . S
C2911 C2919 1.503 . S
C2912 C2911 1.410 . S
C2912 C2913 1.392 . S
C2912 C2915 1.511 . S
C2913 C2909 1.376 . S
C2913 C2912 1.392 . S
C2913 H2925 0.929 . S
C2914 C2910 1.531 . S
C2914 H2926 0.960 . S
C2914 H2927 0.962 . S
C2914 H2928 0.960 . S
C2915 C2912 1.511 . S
C2915 H2929 0.961 . S
C2915 H2930 0.961 . S
C2915 H2931 0.961 . S
C2916 C2917 1.370 . S
C2916 C2918 1.363 . S
C2916 H2932 0.931 . S
C2917 C2916 1.370 . S
C2917 C2921 1.408 . S
C2918 C2916 1.363 . S
C2918 C2919 1.370 . S
C2918 C2922 1.524 . S
C2919 C2911 1.503 . S
C2919 C2918 1.370 . S
C2919 C2920 1.403 . S
C2920 C2919 1.403 . S
C2920 C2921 1.404 . S
C2920 C2923 1.539 . S
C2921 C2917 1.408 . S
C2921 C2920 1.404 . S
C2921 H2933 0.930 . S
C2922 C2918 1.524 . S
C2922 H2934 0.956 . S
C2922 H2935 0.961 . S
C2922 H2936 0.961 . S
C2923 C2920 1.539 . S
C2923 H2937 0.958 . S
C2923 H2938 0.961 . S
C2923 H2939 0.960 . S
H2924 C2908 0.931 . S
H2925 C2913 0.929 . S
H2926 C2914 0.960 . S
H2927 C2914 0.962 . S
H2928 C2914 0.960 . S
H2929 C2915 0.961 . S
H2930 C2915 0.961 . S
H2931 C2915 0.961 . S
H2932 C2916 0.931 . S
H2933 C2921 0.930 . S
H2934 C2922 0.956 . S
H2935 C2922 0.961 . S
H2936 C2922 0.961 . S
H2937 C2923 0.958 . S
H2938 C2923 0.961 . S
H2939 C2923 0.960 . S
C2940 C2941 1.391 . S
C2940 C2942 1.394 . S
C2940 H2956 0.931 . S
C2941 C2940 1.391 . S
C2941 C2945 1.376 . S
C2942 C2940 1.394 . S
C2942 C2943 1.369 . S
C2942 C2946 1.531 . S
C2943 C2942 1.369 . S
C2943 C2944 1.410 . S
C2943 C2951 1.503 . S
C2944 C2943 1.410 . S
C2944 C2945 1.392 . S
C2944 C2947 1.511 . S
C2945 C2941 1.376 . S
C2945 C2944 1.392 . S
C2945 H2957 0.929 . S
C2946 C2942 1.531 . S
C2946 H2958 0.960 . S
C2946 H2959 0.962 . S
C2946 H2960 0.960 . S
C2947 C2944 1.511 . S
C2947 H2961 0.961 . S
C2947 H2962 0.961 . S
C2947 H2963 0.961 . S
C2948 C2949 1.370 . S
C2948 C2950 1.363 . S
C2948 H2964 0.931 . S
C2949 C2948 1.370 . S
C2949 C2953 1.408 . S
C2950 C2948 1.363 . S
C2950 C2951 1.370 . S
C2950 C2954 1.524 . S
C2951 C2943 1.503 . S
C2951 C2950 1.370 . S
C2951 C2952 1.403 . S
C2952 C2951 1.403 . S
C2952 C2953 1.404 . S
C2952 C2955 1.539 . S
C2953 C2949 1.408 . S
C2953 C2952 1.404 . S
C2953 H2965 0.930 . S
C2954 C2950 1.524 . S
C2954 H2966 0.956 . S
C2954 H2967 0.961 . S
C2954 H2968 0.961 . S
C2955 C2952 1.539 . S
C2955 H2969 0.958 . S
C2955 H2970 0.961 . S
C2955 H2971 0.960 . S
H2956 C2940 0.931 . S
H2957 C2945 0.929 . S
H2958 C2946 0.960 . S
H2959 C2946 0.962 . S
H2960 C2946 0.960 . S
H2961 C2947 0.961 . S
H2962 C2947 0.961 . S
H2963 C2947 0.961 . S
H2964 C2948 0.931 . S
H2965 C2953 0.930 . S
H2966 C2954 0.956 . S
H2967 C2954 0.961 . S
H2968 C2954 0.961 . S
H2969 C2955 0.958 . S
H2970 C2955 0.961 . S
H2971 C2955 0.960 . S
C2972 C2973 1.391 . S
C2972 C2974 1.394 . S
C2972 H2988 0.931 . S
C2973 C2972 1.391 . S
C2973 C2977 1.376 . S
C2974 C2972 1.394 . S
C2974 C2975 1.369 . S
C2974 C2978 1.531 . S
C2975 C2974 1.369 . S
C2975 C2976 1.410 . S
C2975 C2983 1.503 . S
C2976 C2975 1.410 . S
C2976 C2977 1.392 . S
C2976 C2979 1.511 . S
C2977 C2973 1.376 . S
C2977 C2976 1.392 . S
C2977 H2989 0.929 . S
C2978 C2974 1.531 . S
C2978 H2990 0.960 . S
C2978 H2991 0.962 . S
C2978 H2992 0.960 . S
C2979 C2976 1.511 . S
C2979 H2993 0.961 . S
C2979 H2994 0.961 . S
C2979 H2995 0.961 . S
C2980 C2981 1.370 . S
C2980 C2982 1.363 . S
C2980 H2996 0.931 . S
C2981 C2980 1.370 . S
C2981 C2985 1.408 . S
C2982 C2980 1.363 . S
C2982 C2983 1.370 . S
C2982 C2986 1.524 . S
C2983 C2975 1.503 . S
C2983 C2982 1.370 . S
C2983 C2984 1.403 . S
C2984 C2983 1.403 . S
C2984 C2985 1.404 . S
C2984 C2987 1.539 . S
C2985 C2981 1.408 . S
C2985 C2984 1.404 . S
C2985 H2997 0.930 . S
C2986 C2982 1.524 . S
C2986 H2998 0.956 . S
C2986 H2999 0.961 . S
C2986 H3000 0.961 . S
C2987 C2984 1.539 . S
C2987 H3001 0.958 . S
C2987 H3002 0.961 . S
C2987 H3003 0.960 . S
H2988 C2972 0.931 . S
H2989 C2977 0.929 . S
H2990 C2978 0.960 . S
H2991 C2978 0.962 . S
H2992 C2978 0.960 . S
H2993 C2979 0.961 . S
H2994 C2979 0.961 . S
H2995 C2979 0.961 . S
H2996 C2980 0.931 . S
H2997 C2985 0.930 . S
H2998 C2986 0.956 . S
H2999 C2986 0.961 . S
H3000 C2986 0.961 . S
H3001 C2987 0.958 . S
H3002 C2987 0.961 . S
H3003 C2987 0.960 . S
C3004 C3005 1.391 . S
C3004 C3006 1.394 . S
C3004 H3020 0.931 . S
C3005 C3004 1.391 . S
C3005 C3009 1.376 . S
C3006 C3004 1.394 . S
C3006 C3007 1.369 . S
C3006 C3010 1.531 . S
C3007 C3006 1.369 . S
C3007 C3008 1.410 . S
C3007 C3015 1.503 . S
C3008 C3007 1.410 . S
C3008 C3009 1.392 . S
C3008 C3011 1.511 . S
C3009 C3005 1.376 . S
C3009 C3008 1.392 . S
C3009 H3021 0.929 . S
C3010 C3006 1.531 . S
C3010 H3022 0.960 . S
C3010 H3023 0.962 . S
C3010 H3024 0.960 . S
C3011 C3008 1.511 . S
C3011 H3025 0.961 . S
C3011 H3026 0.961 . S
C3011 H3027 0.961 . S
C3012 C3013 1.370 . S
C3012 C3014 1.363 . S
C3012 H3028 0.931 . S
C3013 C3012 1.370 . S
C3013 C3017 1.408 . S
C3014 C3012 1.363 . S
C3014 C3015 1.370 . S
C3014 C3018 1.524 . S
C3015 C3007 1.503 . S
C3015 C3014 1.370 . S
C3015 C3016 1.403 . S
C3016 C3015 1.403 . S
C3016 C3017 1.404 . S
C3016 C3019 1.539 . S
C3017 C3013 1.408 . S
C3017 C3016 1.404 . S
C3017 H3029 0.930 . S
C3018 C3014 1.524 . S
C3018 H3030 0.956 . S
C3018 H3031 0.961 . S
C3018 H3032 0.961 . S
C3019 C3016 1.539 . S
C3019 H3033 0.958 . S
C3019 H3034 0.961 . S
C3019 H3035 0.960 . S
H3020 C3004 0.931 . S
H3021 C3009 0.929 . S
H3022 C3010 0.960 . S
H3023 C3010 0.962 . S
H3024 C3010 0.960 . S
H3025 C3011 0.961 . S
H3026 C3011 0.961 . S
H3027 C3011 0.961 . S
H3028 C3012 0.931 . S
H3029 C3017 0.930 . S
H3030 C3018 0.956 . S
H3031 C3018 0.961 . S
H3032 C3018 0.961 . S
H3033 C3019 0.958 . S
H3034 C3019 0.961 . S
H3035 C3019 0.960 . S
C3036 C3037 1.391 . S
C3036 C3038 1.394 . S
C3036 H3052 0.931 . S
C3037 C3036 1.391 . S
C3037 C3041 1.376 . S
C3038 C3036 1.394 . S
C3038 C3039 1.369 . S
C3038 C3042 1.531 . S
C3039 C3038 1.369 . S
C3039 C3040 1.410 . S
C3039 C3047 1.503 . S
C3040 C3039 1.410 . S
C3040 C3041 1.392 . S
C3040 C3043 1.511 . S
C3041 C3037 1.376 . S
C3041 C3040 1.392 . S
C3041 H3053 0.929 . S
C3042 C3038 1.531 . S
C3042 H3054 0.960 . S
C3042 H3055 0.962 . S
C3042 H3056 0.960 . S
C3043 C3040 1.511 . S
C3043 H3057 0.961 . S
C3043 H3058 0.961 . S
C3043 H3059 0.961 . S
C3044 C3045 1.370 . S
C3044 C3046 1.363 . S
C3044 H3060 0.931 . S
C3045 C3044 1.370 . S
C3045 C3049 1.408 . S
C3046 C3044 1.363 . S
C3046 C3047 1.370 . S
C3046 C3050 1.524 . S
C3047 C3039 1.503 . S
C3047 C3046 1.370 . S
C3047 C3048 1.403 . S
C3048 C3047 1.403 . S
C3048 C3049 1.404 . S
C3048 C3051 1.539 . S
C3049 C3045 1.408 . S
C3049 C3048 1.404 . S
C3049 H3061 0.930 . S
C3050 C3046 1.524 . S
C3050 H3062 0.956 . S
C3050 H3063 0.961 . S
C3050 H3064 0.961 . S
C3051 C3048 1.539 . S
C3051 H3065 0.958 . S
C3051 H3066 0.961 . S
C3051 H3067 0.960 . S
H3052 C3036 0.931 . S
H3053 C3041 0.929 . S
H3054 C3042 0.960 . S
H3055 C3042 0.962 . S
H3056 C3042 0.960 . S
H3057 C3043 0.961 . S
H3058 C3043 0.961 . S
H3059 C3043 0.961 . S
H3060 C3044 0.931 . S
H3061 C3049 0.930 . S
H3062 C3050 0.956 . S
H3063 C3050 0.961 . S
H3064 C3050 0.961 . S
H3065 C3051 0.958 . S
H3066 C3051 0.961 . S
H3067 C3051 0.960 . S
C3068 C3069 1.391 . S
C3068 C3070 1.394 . S
C3068 H3084 0.931 . S
C3069 C3068 1.391 . S
C3069 C3073 1.376 . S
C3070 C3068 1.394 . S
C3070 C3071 1.369 . S
C3070 C3074 1.531 . S
C3071 C3070 1.369 . S
C3071 C3072 1.410 . S
C3071 C3079 1.503 . S
C3072 C3071 1.410 . S
C3072 C3073 1.392 . S
C3072 C3075 1.511 . S
C3073 C3069 1.376 . S
C3073 C3072 1.392 . S
C3073 H3085 0.929 . S
C3074 C3070 1.531 . S
C3074 H3086 0.960 . S
C3074 H3087 0.962 . S
C3074 H3088 0.960 . S
C3075 C3072 1.511 . S
C3075 H3089 0.961 . S
C3075 H3090 0.961 . S
C3075 H3091 0.961 . S
C3076 C3077 1.370 . S
C3076 C3078 1.363 . S
C3076 H3092 0.931 . S
C3077 C3076 1.370 . S
C3077 C3081 1.408 . S
C3078 C3076 1.363 . S
C3078 C3079 1.370 . S
C3078 C3082 1.524 . S
C3079 C3071 1.503 . S
C3079 C3078 1.370 . S
C3079 C3080 1.403 . S
C3080 C3079 1.403 . S
C3080 C3081 1.404 . S
C3080 C3083 1.539 . S
C3081 C3077 1.408 . S
C3081 C3080 1.404 . S
C3081 H3093 0.930 . S
C3082 C3078 1.524 . S
C3082 H3094 0.956 . S
C3082 H3095 0.961 . S
C3082 H3096 0.961 . S
C3083 C3080 1.539 . S
C3083 H3097 0.958 . S
C3083 H3098 0.961 . S
C3083 H3099 0.960 . S
H3084 C3068 0.931 . S
H3085 C3073 0.929 . S
H3086 C3074 0.960 . S
H3087 C3074 0.962 . S
H3088 C3074 0.960 . S
H3089 C3075 0.961 . S
H3090 C3075 0.961 . S
H3091 C3075 0.961 . S
H3092 C3076 0.931 . S
H3093 C3081 0.930 . S
H3094 C3082 0.956 . S
H3095 C3082 0.961 . S
H3096 C3082 0.961 . S
H3097 C3083 0.958 . S
H3098 C3083 0.961 . S
H3099 C3083 0.960 . S
C3100 C3101 1.391 . S
C3100 C3102 1.394 . S
C3100 H3116 0.931 . S
C3101 C3100 1.391 . S
C3101 C3105 1.376 . S
C3102 C3100 1.394 . S
C3102 C3103 1.369 . S
C3102 C3106 1.531 . S
C3103 C3102 1.369 . S
C3103 C3104 1.410 . S
C3103 C3111 1.503 . S
C3104 C3103 1.410 . S
C3104 C3105 1.392 . S
C3104 C3107 1.511 . S
C3105 C3101 1.376 . S
C3105 C3104 1.392 . S
C3105 H3117 0.929 . S
C3106 C3102 1.531 . S
C3106 H3118 0.960 . S
C3106 H3119 0.962 . S
C3106 H3120 0.960 . S
C3107 C3104 1.511 . S
C3107 H3121 0.961 . S
C3107 H3122 0.961 . S
C3107 H3123 0.961 . S
C3108 C3109 1.370 . S
C3108 C3110 1.363 . S
C3108 H3124 0.931 . S
C3109 C3108 1.370 . S
C3109 C3113 1.408 . S
C3110 C3108 1.363 . S
C3110 C3111 1.370 . S
C3110 C3114 1.524 . S
C3111 C3103 1.503 . S
C3111 C3110 1.370 . S
C3111 C3112 1.403 . S
C3112 C3111 1.403 . S
C3112 C3113 1.404 . S
C3112 C3115 1.539 . S
C3113 C3109 1.408 . S
C3113 C3112 1.404 . S
C3113 H3125 0.930 . S
C3114 C3110 1.524 . S
C3114 H3126 0.956 . S
C3114 H3127 0.961 . S
C3114 H3128 0.961 . S
C3115 C3112 1.539 . S
C3115 H3129 0.958 . S
C3115 H3130 0.961 . S
C3115 H3131 0.960 . S
H3116 C3100 0.931 . S
H3117 C3105 0.929 . S
H3118 C3106 0.960 . S
H3119 C3106 0.962 . S
H3120 C3106 0.960 . S
H3121 C3107 0.961 . S
H3122 C3107 0.961 . S
H3123 C3107 0.961 . S
H3124 C3108 0.931 . S
H3125 C3113 0.930 . S
H3126 C3114 0.956 . S
H3127 C3114 0.961 . S
H3128 C3114 0.961 . S
H3129 C3115 0.958 . S
H3130 C3115 0.961 . S
H3131 C3115 0.960 . S
C3132 C3133 1.391 . S
C3132 C3134 1.394 . S
C3132 H3148 0.931 . S
C3133 C3132 1.391 . S
C3133 C3137 1.376 . S
C3134 C3132 1.394 . S
C3134 C3135 1.369 . S
C3134 C3138 1.531 . S
C3135 C3134 1.369 . S
C3135 C3136 1.410 . S
C3135 C3143 1.503 . S
C3136 C3135 1.410 . S
C3136 C3137 1.392 . S
C3136 C3139 1.511 . S
C3137 C3133 1.376 . S
C3137 C3136 1.392 . S
C3137 H3149 0.929 . S
C3138 C3134 1.531 . S
C3138 H3150 0.960 . S
C3138 H3151 0.962 . S
C3138 H3152 0.960 . S
C3139 C3136 1.511 . S
C3139 H3153 0.961 . S
C3139 H3154 0.961 . S
C3139 H3155 0.961 . S
C3140 C3141 1.370 . S
C3140 C3142 1.363 . S
C3140 H3156 0.931 . S
C3141 C3140 1.370 . S
C3141 C3145 1.408 . S
C3142 C3140 1.363 . S
C3142 C3143 1.370 . S
C3142 C3146 1.524 . S
C3143 C3135 1.503 . S
C3143 C3142 1.370 . S
C3143 C3144 1.403 . S
C3144 C3143 1.403 . S
C3144 C3145 1.404 . S
C3144 C3147 1.539 . S
C3145 C3141 1.408 . S
C3145 C3144 1.404 . S
C3145 H3157 0.930 . S
C3146 C3142 1.524 . S
C3146 H3158 0.956 . S
C3146 H3159 0.961 . S
C3146 H3160 0.961 . S
C3147 C3144 1.539 . S
C3147 H3161 0.958 . S
C3147 H3162 0.961 . S
C3147 H3163 0.960 . S
H3148 C3132 0.931 . S
H3149 C3137 0.929 . S
H3150 C3138 0.960 . S
H3151 C3138 0.962 . S
H3152 C3138 0.960 . S
H3153 C3139 0.961 . S
H3154 C3139 0.961 . S
H3155 C3139 0.961 . S
H3156 C3140 0.931 . S
H3157 C3145 0.930 . S
H3158 C3146 0.956 . S
H3159 C3146 0.961 . S
H3160 C3146 0.961 . S
H3161 C3147 0.958 . S
H3162 C3147 0.961 . S
H3163 C3147 0.960 . S
C3164 C3165 1.391 . S
C3164 C3166 1.394 . S
C3164 H3180 0.931 . S
C3165 C3164 1.391 . S
C3165 C3169 1.376 . S
C3166 C3164 1.394 . S
C3166 C3167 1.369 . S
C3166 C3170 1.531 . S
C3167 C3166 1.369 . S
C3167 C3168 1.410 . S
C3167 C3175 1.503 . S
C3168 C3167 1.410 . S
C3168 C3169 1.392 . S
C3168 C3171 1.511 . S
C3169 C3165 1.376 . S
C3169 C3168 1.392 . S
C3169 H3181 0.929 . S
C3170 C3166 1.531 . S
C3170 H3182 0.960 . S
C3170 H3183 0.962 . S
C3170 H3184 0.960 . S
C3171 C3168 1.511 . S
C3171 H3185 0.961 . S
C3171 H3186 0.961 . S
C3171 H3187 0.961 . S
C3172 C3173 1.370 . S
C3172 C3174 1.363 . S
C3172 H3188 0.931 . S
C3173 C3172 1.370 . S
C3173 C3177 1.408 . S
C3174 C3172 1.363 . S
C3174 C3175 1.370 . S
C3174 C3178 1.524 . S
C3175 C3167 1.503 . S
C3175 C3174 1.370 . S
C3175 C3176 1.403 . S
C3176 C3175 1.403 . S
C3176 C3177 1.404 . S
C3176 C3179 1.539 . S
C3177 C3173 1.408 . S
C3177 C3176 1.404 . S
C3177 H3189 0.930 . S
C3178 C3174 1.524 . S
C3178 H3190 0.956 . S
C3178 H3191 0.961 . S
C3178 H3192 0.961 . S
C3179 C3176 1.539 . S
C3179 H3193 0.958 . S
C3179 H3194 0.961 . S
C3179 H3195 0.960 . S
H3180 C3164 0.931 . S
H3181 C3169 0.929 . S
H3182 C3170 0.960 . S
H3183 C3170 0.962 . S
H3184 C3170 0.960 . S
H3185 C3171 0.961 . S
H3186 C3171 0.961 . S
H3187 C3171 0.961 . S
H3188 C3172 0.931 . S
H3189 C3177 0.930 . S
H3190 C3178 0.956 . S
H3191 C3178 0.961 . S
H3192 C3178 0.961 . S
H3193 C3179 0.958 . S
H3194 C3179 0.961 . S
H3195 C3179 0.960 . S
C3196 C3197 1.391 . S
C3196 C3198 1.394 . S
C3196 H3212 0.931 . S
C3197 C3196 1.391 . S
C3197 C3201 1.376 . S
C3198 C3196 1.394 . S
C3198 C3199 1.369 . S
C3198 C3202 1.531 . S
C3199 C3198 1.369 . S
C3199 C3200 1.410 . S
C3199 C3207 1.503 . S
C3200 C3199 1.410 . S
C3200 C3201 1.392 . S
C3200 C3203 1.511 . S
C3201 C3197 1.376 . S
C3201 C3200 1.392 . S
C3201 H3213 0.929 . S
C3202 C3198 1.531 . S
C3202 H3214 0.960 . S
C3202 H3215 0.962 . S
C3202 H3216 0.960 . S
C3203 C3200 1.511 . S
C3203 H3217 0.961 . S
C3203 H3218 0.961 . S
C3203 H3219 0.961 . S
C3204 C3205 1.370 . S
C3204 C3206 1.363 . S
C3204 H3220 0.931 . S
C3205 C3204 1.370 . S
C3205 C3209 1.408 . S
C3206 C3204 1.363 . S
C3206 C3207 1.370 . S
C3206 C3210 1.524 . S
C3207 C3199 1.503 . S
C3207 C3206 1.370 . S
C3207 C3208 1.403 . S
C3208 C3207 1.403 . S
C3208 C3209 1.404 . S
C3208 C3211 1.539 . S
C3209 C3205 1.408 . S
C3209 C3208 1.404 . S
C3209 H3221 0.930 . S
C3210 C3206 1.524 . S
C3210 H3222 0.956 . S
C3210 H3223 0.961 . S
C3210 H3224 0.961 . S
C3211 C3208 1.539 . S
C3211 H3225 0.958 . S
C3211 H3226 0.961 . S
C3211 H3227 0.960 . S
H3212 C3196 0.931 . S
H3213 C3201 0.929 . S
H3214 C3202 0.960 . S
H3215 C3202 0.962 . S
H3216 C3202 0.960 . S
H3217 C3203 0.961 . S
H3218 C3203 0.961 . S
H3219 C3203 0.961 . S
H3220 C3204 0.931 . S
H3221 C3209 0.930 . S
H3222 C3210 0.956 . S
H3223 C3210 0.961 . S
H3224 C3210 0.961 . S
H3225 C3211 0.958 . S
H3226 C3211 0.961 . S
H3227 C3211 0.960 . S
C3228 C3229 1.391 . S
C3228 C3230 1.394 . S
C3228 H3244 0.931 . S
C3229 C3228 1.391 . S
C3229 C3233 1.376 1_554 S
C3230 C3228 1.394 . S
C3230 C3231 1.369 1_554 S
C3230 C3234 1.531 . S
C3231 C3230 1.369 1_556 S
C3231 C3232 1.410 . S
C3231 C3239 1.503 . S
C3232 C3231 1.410 . S
C3232 C3233 1.392 . S
C3232 C3235 1.511 . S
C3233 C3229 1.376 1_556 S
C3233 C3232 1.392 . S
C3233 H3245 0.929 . S
C3234 C3230 1.531 . S
C3234 H3246 0.959 . S
C3234 H3247 0.962 . S
C3234 H3248 0.960 . S
C3235 C3232 1.511 . S
C3235 H3249 0.961 . S
C3235 H3250 0.961 . S
C3235 H3251 0.961 . S
C3236 C3237 1.370 . S
C3236 C3238 1.363 . S
C3236 H3252 0.931 . S
C3237 C3236 1.370 . S
C3237 C3241 1.408 . S
C3238 C3236 1.363 . S
C3238 C3239 1.370 . S
C3238 C3242 1.524 1_556 S
C3239 C3231 1.503 . S
C3239 C3238 1.370 . S
C3239 C3240 1.403 . S
C3240 C3239 1.403 . S
C3240 C3241 1.404 . S
C3240 C3243 1.539 . S
C3241 C3237 1.408 . S
C3241 C3240 1.404 . S
C3241 H3253 0.930 . S
C3242 C3238 1.524 1_554 S
C3242 H3254 0.956 . S
C3242 H3255 0.948 1_554 S
C3242 H3256 0.961 . S
C3243 C3240 1.539 . S
C3243 H3257 0.958 . S
C3243 H3258 0.961 . S
C3243 H3259 0.960 . S
H3244 C3228 0.931 . S
H3245 C3233 0.929 . S
H3246 C3234 0.959 . S
H3247 C3234 0.962 . S
H3248 C3234 0.960 . S
H3249 C3235 0.961 . S
H3250 C3235 0.961 . S
H3251 C3235 0.961 . S
H3252 C3236 0.931 . S
H3253 C3241 0.930 . S
H3254 C3242 0.956 . S
H3255 C3242 0.948 1_556 S
H3256 C3242 0.961 . S
H3257 C3243 0.958 . S
H3258 C3243 0.961 . S
H3259 C3243 0.960 . S
C3260 C3261 1.391 . S
C3260 C3262 1.394 . S
C3260 H3276 0.931 . S
C3261 C3260 1.391 . S
C3261 C3265 1.376 . S
C3262 C3260 1.394 . S
C3262 C3263 1.369 . S
C3262 C3266 1.531 . S
C3263 C3262 1.369 . S
C3263 C3264 1.410 . S
C3263 C3271 1.503 . S
C3264 C3263 1.410 . S
C3264 C3265 1.392 . S
C3264 C3267 1.511 . S
C3265 C3261 1.376 . S
C3265 C3264 1.392 . S
C3265 H3277 0.929 . S
C3266 C3262 1.531 . S
C3266 H3278 0.960 . S
C3266 H3279 0.962 . S
C3266 H3280 0.960 . S
C3267 C3264 1.511 . S
C3267 H3281 0.961 . S
C3267 H3282 0.961 . S
C3267 H3283 0.961 . S
C3268 C3269 1.370 . S
C3268 C3270 1.363 . S
C3268 H3284 0.931 . S
C3269 C3268 1.370 . S
C3269 C3273 1.408 . S
C3270 C3268 1.363 . S
C3270 C3271 1.370 . S
C3270 C3274 1.524 . S
C3271 C3263 1.503 . S
C3271 C3270 1.370 . S
C3271 C3272 1.403 . S
C3272 C3271 1.403 . S
C3272 C3273 1.404 . S
C3272 C3275 1.539 . S
C3273 C3269 1.408 . S
C3273 C3272 1.404 . S
C3273 H3285 0.930 . S
C3274 C3270 1.524 . S
C3274 H3286 0.956 . S
C3274 H3287 0.961 . S
C3274 H3288 0.961 . S
C3275 C3272 1.539 . S
C3275 H3289 0.958 . S
C3275 H3290 0.961 . S
C3275 H3291 0.960 . S
H3276 C3260 0.931 . S
H3277 C3265 0.929 . S
H3278 C3266 0.960 . S
H3279 C3266 0.962 . S
H3280 C3266 0.960 . S
H3281 C3267 0.961 . S
H3282 C3267 0.961 . S
H3283 C3267 0.961 . S
H3284 C3268 0.931 . S
H3285 C3273 0.930 . S
H3286 C3274 0.956 . S
H3287 C3274 0.961 . S
H3288 C3274 0.961 . S
H3289 C3275 0.958 . S
H3290 C3275 0.961 . S
H3291 C3275 0.960 . S
C3292 C3293 1.391 . S
C3292 C3294 1.394 . S
C3292 H3308 0.931 . S
C3293 C3292 1.391 . S
C3293 C3297 1.376 . S
C3294 C3292 1.394 . S
C3294 C3295 1.369 . S
C3294 C3298 1.531 . S
C3295 C3294 1.369 . S
C3295 C3296 1.410 . S
C3295 C3303 1.503 . S
C3296 C3295 1.410 . S
C3296 C3297 1.392 . S
C3296 C3299 1.511 . S
C3297 C3293 1.376 . S
C3297 C3296 1.392 . S
C3297 H3309 0.929 . S
C3298 C3294 1.531 . S
C3298 H3310 0.960 . S
C3298 H3311 0.962 1_554 S
C3298 H3312 0.960 . S
C3299 C3296 1.511 . S
C3299 H3313 0.961 . S
C3299 H3314 0.961 . S
C3299 H3315 0.961 . S
C3300 C3301 1.370 . S
C3300 C3302 1.363 . S
C3300 H3316 0.931 . S
C3301 C3300 1.370 . S
C3301 C3305 1.408 1_556 S
C3302 C3300 1.363 . S
C3302 C3303 1.370 1_556 S
C3302 C3306 1.524 . S
C3303 C3295 1.503 . S
C3303 C3302 1.370 1_554 S
C3303 C3304 1.403 . S
C3304 C3303 1.403 . S
C3304 C3305 1.404 . S
C3304 C3307 1.539 . S
C3305 C3301 1.408 1_554 S
C3305 C3304 1.404 . S
C3305 H3317 0.930 . S
C3306 C3302 1.524 . S
C3306 H3318 0.956 . S
C3306 H3319 0.961 . S
C3306 H3320 0.961 . S
C3307 C3304 1.539 . S
C3307 H3321 0.958 . S
C3307 H3322 0.961 . S
C3307 H3323 0.960 . S
H3308 C3292 0.931 . S
H3309 C3297 0.929 . S
H3310 C3298 0.960 . S
H3311 C3298 0.962 1_556 S
H3312 C3298 0.960 . S
H3313 C3299 0.961 . S
H3314 C3299 0.961 . S
H3315 C3299 0.961 . S
H3316 C3300 0.931 . S
H3317 C3305 0.930 . S
H3318 C3306 0.956 . S
H3319 C3306 0.961 . S
H3320 C3306 0.961 . S
H3321 C3307 0.958 . S
H3322 C3307 0.961 . S
H3323 C3307 0.960 . S
C3324 C3325 1.391 . S
C3324 C3326 1.394 . S
C3324 H3340 0.931 . S
C3325 C3324 1.391 . S
C3325 C3329 1.376 1_554 S
C3326 C3324 1.394 . S
C3326 C3327 1.369 1_554 S
C3326 C3330 1.531 . S
C3327 C3326 1.369 1_556 S
C3327 C3328 1.410 . S
C3327 C3335 1.503 . S
C3328 C3327 1.410 . S
C3328 C3329 1.392 . S
C3328 C3331 1.511 . S
C3329 C3325 1.376 1_556 S
C3329 C3328 1.392 . S
C3329 H3341 0.929 . S
C3330 C3326 1.531 . S
C3330 H3342 0.960 . S
C3330 H3343 0.962 . S
C3330 H3344 0.960 . S
C3331 C3328 1.511 . S
C3331 H3345 0.961 . S
C3331 H3346 0.961 . S
C3331 H3347 0.961 . S
C3332 C3333 1.370 . S
C3332 C3334 1.363 . S
C3332 H3348 0.931 . S
C3333 C3332 1.370 . S
C3333 C3337 1.408 . S
C3334 C3332 1.363 . S
C3334 C3335 1.370 . S
C3334 C3338 1.524 . S
C3335 C3327 1.503 . S
C3335 C3334 1.370 . S
C3335 C3336 1.403 . S
C3336 C3335 1.403 . S
C3336 C3337 1.404 . S
C3336 C3339 1.539 . S
C3337 C3333 1.408 . S
C3337 C3336 1.404 . S
C3337 H3349 0.930 . S
C3338 C3334 1.524 . S
C3338 H3350 0.956 . S
C3338 H3351 0.961 . S
C3338 H3352 0.961 . S
C3339 C3336 1.539 . S
C3339 H3353 0.958 . S
C3339 H3354 0.961 . S
C3339 H3355 0.960 . S
H3340 C3324 0.931 . S
H3341 C3329 0.929 . S
H3342 C3330 0.960 . S
H3343 C3330 0.962 . S
H3344 C3330 0.960 . S
H3345 C3331 0.961 . S
H3346 C3331 0.961 . S
H3347 C3331 0.961 . S
H3348 C3332 0.931 . S
H3349 C3337 0.930 . S
H3350 C3338 0.956 . S
H3351 C3338 0.961 . S
H3352 C3338 0.961 . S
H3353 C3339 0.958 . S
H3354 C3339 0.961 . S
H3355 C3339 0.960 . S
C3356 C3357 1.391 . S
C3356 C3358 1.394 . S
C3356 H3372 0.931 . S
C3357 C3356 1.391 . S
C3357 C3361 1.376 . S
C3358 C3356 1.394 . S
C3358 C3359 1.369 . S
C3358 C3362 1.531 . S
C3359 C3358 1.369 . S
C3359 C3360 1.410 . S
C3359 C3367 1.503 . S
C3360 C3359 1.410 . S
C3360 C3361 1.392 . S
C3360 C3363 1.511 . S
C3361 C3357 1.376 . S
C3361 C3360 1.392 . S
C3361 H3373 0.929 . S
C3362 C3358 1.531 . S
C3362 H3374 0.960 . S
C3362 H3375 0.962 . S
C3362 H3376 0.960 . S
C3363 C3360 1.511 . S
C3363 H3377 0.961 . S
C3363 H3378 0.961 . S
C3363 H3379 0.961 . S
C3364 C3365 1.370 . S
C3364 C3366 1.363 . S
C3364 H3380 0.931 . S
C3365 C3364 1.370 . S
C3365 C3369 1.408 . S
C3366 C3364 1.363 . S
C3366 C3367 1.370 . S
C3366 C3370 1.524 . S
C3367 C3359 1.503 . S
C3367 C3366 1.370 . S
C3367 C3368 1.403 . S
C3368 C3367 1.403 . S
C3368 C3369 1.404 . S
C3368 C3371 1.539 . S
C3369 C3365 1.408 . S
C3369 C3368 1.404 . S
C3369 H3381 0.930 . S
C3370 C3366 1.524 . S
C3370 H3382 0.956 . S
C3370 H3383 0.961 . S
C3370 H3384 0.961 . S
C3371 C3368 1.539 . S
C3371 H3385 0.958 . S
C3371 H3386 0.961 . S
C3371 H3387 0.960 . S
H3372 C3356 0.931 . S
H3373 C3361 0.929 . S
H3374 C3362 0.960 . S
H3375 C3362 0.962 . S
H3376 C3362 0.960 . S
H3377 C3363 0.961 . S
H3378 C3363 0.961 . S
H3379 C3363 0.961 . S
H3380 C3364 0.931 . S
H3381 C3369 0.930 . S
H3382 C3370 0.956 . S
H3383 C3370 0.961 . S
H3384 C3370 0.961 . S
H3385 C3371 0.958 . S
H3386 C3371 0.961 . S
H3387 C3371 0.960 . S
C3388 C3389 1.391 . S
C3388 C3390 1.394 1_554 S
C3388 H3404 0.931 1_554 S
C3389 C3388 1.391 . S
C3389 C3393 1.376 . S
C3390 C3388 1.394 1_556 S
C3390 C3391 1.369 . S
C3390 C3394 1.531 . S
C3391 C3390 1.369 . S
C3391 C3392 1.410 1_556 S
C3391 C3399 1.503 . S
C3392 C3391 1.410 1_554 S
C3392 C3393 1.392 . S
C3392 C3395 1.511 . S
C3393 C3389 1.376 . S
C3393 C3392 1.392 . S
C3393 H3405 0.929 . S
C3394 C3390 1.531 . S
C3394 H3406 0.960 . S
C3394 H3407 0.962 . S
C3394 H3408 0.960 . S
C3395 C3392 1.511 . S
C3395 H3409 0.961 . S
C3395 H3410 0.961 . S
C3395 H3411 0.961 . S
C3396 C3397 1.370 . S
C3396 C3398 1.363 . S
C3396 H3412 0.931 . S
C3397 C3396 1.370 . S
C3397 C3401 1.408 . S
C3398 C3396 1.363 . S
C3398 C3399 1.370 . S
C3398 C3402 1.524 1_556 S
C3399 C3391 1.503 . S
C3399 C3398 1.370 . S
C3399 C3400 1.403 . S
C3400 C3399 1.403 . S
C3400 C3401 1.404 . S
C3400 C3403 1.539 . S
C3401 C3397 1.408 . S
C3401 C3400 1.404 . S
C3401 H3413 0.930 . S
C3402 C3398 1.524 1_554 S
C3402 H3414 0.956 . S
C3402 H3415 0.961 . S
C3402 H3416 0.961 . S
C3403 C3400 1.539 . S
C3403 H3417 0.958 . S
C3403 H3418 0.961 . S
C3403 H3419 0.960 . S
H3404 C3388 0.931 1_556 S
H3405 C3393 0.929 . S
H3406 C3394 0.960 . S
H3407 C3394 0.962 . S
H3408 C3394 0.960 . S
H3409 C3395 0.961 . S
H3410 C3395 0.961 . S
H3411 C3395 0.961 . S
H3412 C3396 0.931 . S
H3413 C3401 0.930 . S
H3414 C3402 0.956 . S
H3415 C3402 0.961 . S
H3416 C3402 0.961 . S
H3417 C3403 0.958 . S
H3418 C3403 0.961 . S
H3419 C3403 0.960 . S
C3420 C3421 1.391 . S
C3420 C3422 1.394 . S
C3420 H3436 0.931 . S
C3421 C3420 1.391 . S
C3421 C3425 1.376 . S
C3422 C3420 1.394 . S
C3422 C3423 1.369 . S
C3422 C3426 1.531 . S
C3423 C3422 1.369 . S
C3423 C3424 1.410 . S
C3423 C3431 1.503 . S
C3424 C3423 1.410 . S
C3424 C3425 1.392 . S
C3424 C3427 1.511 . S
C3425 C3421 1.376 . S
C3425 C3424 1.392 . S
C3425 H3437 0.929 . S
C3426 C3422 1.531 . S
C3426 H3438 0.960 . S
C3426 H3439 0.962 . S
C3426 H3440 0.960 . S
C3427 C3424 1.511 . S
C3427 H3441 0.954 . S
C3427 H3442 0.961 . S
C3427 H3443 0.961 . S
C3428 C3429 1.370 . S
C3428 C3430 1.363 . S
C3428 H3444 0.931 . S
C3429 C3428 1.370 . S
C3429 C3433 1.408 . S
C3430 C3428 1.363 . S
C3430 C3431 1.370 . S
C3430 C3434 1.524 . S
C3431 C3423 1.503 . S
C3431 C3430 1.370 . S
C3431 C3432 1.403 . S
C3432 C3431 1.403 . S
C3432 C3433 1.404 . S
C3432 C3435 1.539 . S
C3433 C3429 1.408 . S
C3433 C3432 1.404 . S
C3433 H3445 0.930 . S
C3434 C3430 1.524 . S
C3434 H3446 0.956 . S
C3434 H3447 0.961 . S
C3434 H3448 0.961 . S
C3435 C3432 1.539 . S
C3435 H3449 0.958 . S
C3435 H3450 0.961 . S
C3435 H3451 0.960 . S
H3436 C3420 0.931 . S
H3437 C3425 0.929 . S
H3438 C3426 0.960 . S
H3439 C3426 0.962 . S
H3440 C3426 0.960 . S
H3441 C3427 0.954 . S
H3442 C3427 0.961 . S
H3443 C3427 0.961 . S
H3444 C3428 0.931 . S
H3445 C3433 0.930 . S
H3446 C3434 0.956 . S
H3447 C3434 0.961 . S
H3448 C3434 0.961 . S
H3449 C3435 0.958 . S
H3450 C3435 0.961 . S
H3451 C3435 0.960 . S
C3452 C3453 1.391 . S
C3452 C3454 1.394 . S
C3452 H3468 0.931 . S
C3453 C3452 1.391 . S
C3453 C3457 1.376 . S
C3454 C3452 1.394 . S
C3454 C3455 1.369 . S
C3454 C3458 1.531 . S
C3455 C3454 1.369 . S
C3455 C3456 1.410 . S
C3455 C3463 1.503 . S
C3456 C3455 1.410 . S
C3456 C3457 1.392 . S
C3456 C3459 1.511 . S
C3457 C3453 1.376 . S
C3457 C3456 1.392 . S
C3457 H3469 0.929 . S
C3458 C3454 1.531 . S
C3458 H3470 0.960 . S
C3458 H3471 0.962 . S
C3458 H3472 0.960 . S
C3459 C3456 1.511 . S
C3459 H3473 0.961 . S
C3459 H3474 0.961 . S
C3459 H3475 0.961 . S
C3460 C3461 1.370 . S
C3460 C3462 1.363 . S
C3460 H3476 0.931 . S
C3461 C3460 1.370 . S
C3461 C3465 1.408 . S
C3462 C3460 1.363 . S
C3462 C3463 1.370 . S
C3462 C3466 1.524 . S
C3463 C3455 1.503 . S
C3463 C3462 1.370 . S
C3463 C3464 1.403 . S
C3464 C3463 1.403 . S
C3464 C3465 1.404 . S
C3464 C3467 1.539 . S
C3465 C3461 1.408 . S
C3465 C3464 1.404 . S
C3465 H3477 0.930 . S
C3466 C3462 1.524 . S
C3466 H3478 0.956 . S
C3466 H3479 0.961 . S
C3466 H3480 0.961 . S
C3467 C3464 1.539 . S
C3467 H3481 0.958 . S
C3467 H3482 0.961 . S
C3467 H3483 0.960 . S
H3468 C3452 0.931 . S
H3469 C3457 0.929 . S
H3470 C3458 0.960 . S
H3471 C3458 0.962 . S
H3472 C3458 0.960 . S
H3473 C3459 0.961 . S
H3474 C3459 0.961 . S
H3475 C3459 0.961 . S
H3476 C3460 0.931 . S
H3477 C3465 0.930 . S
H3478 C3466 0.956 . S
H3479 C3466 0.961 . S
H3480 C3466 0.961 . S
H3481 C3467 0.958 . S
H3482 C3467 0.961 . S
H3483 C3467 0.960 . S
C3484 C3485 1.391 . S
C3484 C3486 1.394 . S
C3484 H3500 0.931 . S
C3485 C3484 1.391 . S
C3485 C3489 1.376 . S
C3486 C3484 1.394 . S
C3486 C3487 1.369 . S
C3486 C3490 1.531 . S
C3487 C3486 1.369 . S
C3487 C3488 1.410 . S
C3487 C3495 1.503 . S
C3488 C3487 1.410 . S
C3488 C3489 1.392 . S
C3488 C3491 1.511 . S
C3489 C3485 1.376 . S
C3489 C3488 1.392 . S
C3489 H3501 0.929 . S
C3490 C3486 1.531 . S
C3490 H3502 0.960 . S
C3490 H3503 0.962 . S
C3490 H3504 0.960 . S
C3491 C3488 1.511 . S
C3491 H3505 0.961 . S
C3491 H3506 0.961 . S
C3491 H3507 0.961 . S
C3492 C3493 1.370 . S
C3492 C3494 1.363 . S
C3492 H3508 0.931 . S
C3493 C3492 1.370 . S
C3493 C3497 1.408 . S
C3494 C3492 1.363 . S
C3494 C3495 1.370 . S
C3494 C3498 1.524 . S
C3495 C3487 1.503 . S
C3495 C3494 1.370 . S
C3495 C3496 1.403 . S
C3496 C3495 1.403 . S
C3496 C3497 1.404 . S
C3496 C3499 1.539 . S
C3497 C3493 1.408 . S
C3497 C3496 1.404 . S
C3497 H3509 0.930 . S
C3498 C3494 1.524 . S
C3498 H3510 0.956 . S
C3498 H3511 0.961 . S
C3498 H3512 0.961 . S
C3499 C3496 1.539 . S
C3499 H3513 0.958 . S
C3499 H3514 0.961 . S
C3499 H3515 0.960 . S
H3500 C3484 0.931 . S
H3501 C3489 0.929 . S
H3502 C3490 0.960 . S
H3503 C3490 0.962 . S
H3504 C3490 0.960 . S
H3505 C3491 0.961 . S
H3506 C3491 0.961 . S
H3507 C3491 0.961 . S
H3508 C3492 0.931 . S
H3509 C3497 0.930 . S
H3510 C3498 0.956 . S
H3511 C3498 0.961 . S
H3512 C3498 0.961 . S
H3513 C3499 0.958 . S
H3514 C3499 0.961 . S
H3515 C3499 0.960 . S
C3516 C3517 1.391 . S
C3516 C3518 1.394 . S
C3516 H3532 0.931 . S
C3517 C3516 1.391 . S
C3517 C3521 1.376 . S
C3518 C3516 1.394 . S
C3518 C3519 1.369 . S
C3518 C3522 1.531 . S
C3519 C3518 1.369 . S
C3519 C3520 1.410 . S
C3519 C3527 1.503 . S
C3520 C3519 1.410 . S
C3520 C3521 1.392 . S
C3520 C3523 1.511 . S
C3521 C3517 1.376 . S
C3521 C3520 1.392 . S
C3521 H3533 0.929 . S
C3522 C3518 1.531 . S
C3522 H3534 0.960 . S
C3522 H3535 0.962 . S
C3522 H3536 0.960 . S
C3523 C3520 1.511 . S
C3523 H3537 0.961 . S
C3523 H3538 0.961 . S
C3523 H3539 0.961 . S
C3524 C3525 1.370 . S
C3524 C3526 1.363 . S
C3524 H3540 0.931 . S
C3525 C3524 1.370 . S
C3525 C3529 1.408 . S
C3526 C3524 1.363 . S
C3526 C3527 1.370 . S
C3526 C3530 1.524 . S
C3527 C3519 1.503 . S
C3527 C3526 1.370 . S
C3527 C3528 1.403 . S
C3528 C3527 1.403 . S
C3528 C3529 1.404 . S
C3528 C3531 1.539 . S
C3529 C3525 1.408 . S
C3529 C3528 1.404 . S
C3529 H3541 0.930 . S
C3530 C3526 1.524 . S
C3530 H3542 0.956 . S
C3530 H3543 0.961 . S
C3530 H3544 0.961 . S
C3531 C3528 1.539 . S
C3531 H3545 0.958 . S
C3531 H3546 0.961 . S
C3531 H3547 0.960 . S
H3532 C3516 0.931 . S
H3533 C3521 0.929 . S
H3534 C3522 0.960 . S
H3535 C3522 0.962 . S
H3536 C3522 0.960 . S
H3537 C3523 0.961 . S
H3538 C3523 0.961 . S
H3539 C3523 0.961 . S
H3540 C3524 0.931 . S
H3541 C3529 0.930 . S
H3542 C3530 0.956 . S
H3543 C3530 0.961 . S
H3544 C3530 0.961 . S
H3545 C3531 0.958 . S
H3546 C3531 0.961 . S
H3547 C3531 0.960 . S
C3548 C3549 1.391 . S
C3548 C3550 1.394 . S
C3548 H3564 0.931 . S
C3549 C3548 1.391 . S
C3549 C3553 1.376 . S
C3550 C3548 1.394 . S
C3550 C3551 1.369 . S
C3550 C3554 1.531 . S
C3551 C3550 1.369 . S
C3551 C3552 1.410 . S
C3551 C3559 1.503 . S
C3552 C3551 1.410 . S
C3552 C3553 1.392 . S
C3552 C3555 1.511 . S
C3553 C3549 1.376 . S
C3553 C3552 1.392 . S
C3553 H3565 0.929 . S
C3554 C3550 1.531 . S
C3554 H3566 0.960 . S
C3554 H3567 0.962 . S
C3554 H3568 0.960 . S
C3555 C3552 1.511 . S
C3555 H3569 0.961 . S
C3555 H3570 0.961 . S
C3555 H3571 0.961 . S
C3556 C3557 1.370 . S
C3556 C3558 1.363 . S
C3556 H3572 0.931 . S
C3557 C3556 1.370 . S
C3557 C3561 1.408 . S
C3558 C3556 1.363 . S
C3558 C3559 1.370 . S
C3558 C3562 1.524 . S
C3559 C3551 1.503 . S
C3559 C3558 1.370 . S
C3559 C3560 1.403 . S
C3560 C3559 1.403 . S
C3560 C3561 1.404 . S
C3560 C3563 1.539 . S
C3561 C3557 1.408 . S
C3561 C3560 1.404 . S
C3561 H3573 0.930 . S
C3562 C3558 1.524 . S
C3562 H3574 0.956 . S
C3562 H3575 0.961 . S
C3562 H3576 0.961 . S
C3563 C3560 1.539 . S
C3563 H3577 0.958 . S
C3563 H3578 0.961 . S
C3563 H3579 0.960 . S
H3564 C3548 0.931 . S
H3565 C3553 0.929 . S
H3566 C3554 0.960 . S
H3567 C3554 0.962 . S
H3568 C3554 0.960 . S
H3569 C3555 0.961 . S
H3570 C3555 0.961 . S
H3571 C3555 0.961 . S
H3572 C3556 0.931 . S
H3573 C3561 0.930 . S
H3574 C3562 0.956 . S
H3575 C3562 0.961 . S
H3576 C3562 0.961 . S
H3577 C3563 0.958 . S
H3578 C3563 0.961 . S
H3579 C3563 0.960 . S
C3580 C3581 1.391 . S
C3580 C3582 1.394 . S
C3580 H3596 0.931 . S
C3581 C3580 1.391 . S
C3581 C3585 1.376 . S
C3582 C3580 1.394 . S
C3582 C3583 1.369 . S
C3582 C3586 1.531 . S
C3583 C3582 1.369 . S
C3583 C3584 1.410 . S
C3583 C3591 1.503 . S
C3584 C3583 1.410 . S
C3584 C3585 1.392 . S
C3584 C3587 1.511 . S
C3585 C3581 1.376 . S
C3585 C3584 1.392 . S
C3585 H3597 0.929 . S
C3586 C3582 1.531 . S
C3586 H3598 0.960 . S
C3586 H3599 0.962 . S
C3586 H3600 0.960 . S
C3587 C3584 1.511 . S
C3587 H3601 0.961 . S
C3587 H3602 0.961 . S
C3587 H3603 0.961 . S
C3588 C3589 1.370 . S
C3588 C3590 1.363 . S
C3588 H3604 0.931 . S
C3589 C3588 1.370 . S
C3589 C3593 1.408 . S
C3590 C3588 1.363 . S
C3590 C3591 1.370 . S
C3590 C3594 1.524 . S
C3591 C3583 1.503 . S
C3591 C3590 1.370 . S
C3591 C3592 1.403 . S
C3592 C3591 1.403 . S
C3592 C3593 1.404 . S
C3592 C3595 1.539 . S
C3593 C3589 1.408 . S
C3593 C3592 1.404 . S
C3593 H3605 0.930 . S
C3594 C3590 1.524 . S
C3594 H3606 0.956 . S
C3594 H3607 0.961 . S
C3594 H3608 0.961 . S
C3595 C3592 1.539 . S
C3595 H3609 0.958 . S
C3595 H3610 0.961 . S
C3595 H3611 0.960 . S
H3596 C3580 0.931 . S
H3597 C3585 0.929 . S
H3598 C3586 0.960 . S
H3599 C3586 0.962 . S
H3600 C3586 0.960 . S
H3601 C3587 0.961 . S
H3602 C3587 0.961 . S
H3603 C3587 0.961 . S
H3604 C3588 0.931 . S
H3605 C3593 0.930 . S
H3606 C3594 0.956 . S
H3607 C3594 0.961 . S
H3608 C3594 0.961 . S
H3609 C3595 0.958 . S
H3610 C3595 0.961 . S
H3611 C3595 0.960 . S
C3612 C3613 1.391 . S
C3612 C3614 1.394 . S
C3612 H3628 0.931 . S
C3613 C3612 1.391 . S
C3613 C3617 1.376 . S
C3614 C3612 1.394 . S
C3614 C3615 1.369 . S
C3614 C3618 1.531 . S
C3615 C3614 1.369 . S
C3615 C3616 1.410 . S
C3615 C3623 1.503 . S
C3616 C3615 1.410 . S
C3616 C3617 1.392 . S
C3616 C3619 1.543 . S
C3617 C3613 1.376 . S
C3617 C3616 1.392 . S
C3617 H3629 0.929 . S
C3618 C3614 1.531 . S
C3618 H3630 0.960 . S
C3618 H3631 0.962 . S
C3618 H3632 0.960 . S
C3619 C3616 1.543 . S
C3619 H3633 0.962 1_455 S
C3619 H3634 0.952 . S
C3619 H3635 0.940 1_455 S
C3620 C3621 1.370 . S
C3620 C3622 1.363 . S
C3620 H3636 0.931 . S
C3621 C3620 1.370 . S
C3621 C3625 1.408 . S
C3622 C3620 1.363 . S
C3622 C3623 1.370 . S
C3622 C3626 1.524 . S
C3623 C3615 1.503 . S
C3623 C3622 1.370 . S
C3623 C3624 1.403 . S
C3624 C3623 1.403 . S
C3624 C3625 1.404 . S
C3624 C3627 1.539 1_455 S
C3625 C3621 1.408 . S
C3625 C3624 1.404 . S
C3625 H3637 0.933 . S
C3626 C3622 1.524 . S
C3626 H3638 0.956 . S
C3626 H3639 0.961 . S
C3626 H3640 0.961 . S
C3627 C3624 1.539 1_655 S
C3627 H3641 0.958 1_655 S
C3627 H3642 0.961 . S
C3627 H3643 0.960 . S
H3628 C3612 0.931 . S
H3629 C3617 0.929 . S
H3630 C3618 0.960 . S
H3631 C3618 0.962 . S
H3632 C3618 0.960 . S
H3633 C3619 0.962 1_655 S
H3634 C3619 0.952 . S
H3635 C3619 0.940 1_655 S
H3636 C3620 0.931 . S
H3637 C3625 0.933 . S
H3638 C3626 0.956 . S
H3639 C3626 0.961 . S
H3640 C3626 0.961 . S
H3641 C3627 0.958 1_455 S
H3642 C3627 0.961 . S
H3643 C3627 0.960 . S
C3644 C3645 1.391 . S
C3644 C3646 1.394 . S
C3644 H3660 0.931 . S
C3645 C3644 1.391 . S
C3645 C3649 1.376 . S
C3646 C3644 1.394 . S
C3646 C3647 1.369 . S
C3646 C3650 1.531 . S
C3647 C3646 1.369 . S
C3647 C3648 1.410 . S
C3647 C3655 1.503 . S
C3648 C3647 1.410 . S
C3648 C3649 1.392 . S
C3648 C3651 1.511 . S
C3649 C3645 1.376 . S
C3649 C3648 1.392 . S
C3649 H3661 0.929 . S
C3650 C3646 1.531 . S
C3650 H3662 0.960 . S
C3650 H3663 0.962 . S
C3650 H3664 0.960 . S
C3651 C3648 1.511 . S
C3651 H3665 0.961 . S
C3651 H3666 0.961 . S
C3651 H3667 0.961 . S
C3652 C3653 1.370 . S
C3652 C3654 1.363 . S
C3652 H3668 0.931 . S
C3653 C3652 1.370 . S
C3653 C3657 1.408 . S
C3654 C3652 1.363 . S
C3654 C3655 1.370 . S
C3654 C3658 1.524 . S
C3655 C3647 1.503 . S
C3655 C3654 1.370 . S
C3655 C3656 1.403 . S
C3656 C3655 1.403 . S
C3656 C3657 1.404 . S
C3656 C3659 1.539 . S
C3657 C3653 1.408 . S
C3657 C3656 1.404 . S
C3657 H3669 0.930 . S
C3658 C3654 1.524 . S
C3658 H3670 0.956 . S
C3658 H3671 0.961 . S
C3658 H3672 0.961 . S
C3659 C3656 1.539 . S
C3659 H3673 0.958 . S
C3659 H3674 0.961 . S
C3659 H3675 0.960 . S
H3660 C3644 0.931 . S
H3661 C3649 0.929 . S
H3662 C3650 0.960 . S
H3663 C3650 0.962 . S
H3664 C3650 0.960 . S
H3665 C3651 0.961 . S
H3666 C3651 0.961 . S
H3667 C3651 0.961 . S
H3668 C3652 0.931 . S
H3669 C3657 0.930 . S
H3670 C3658 0.956 . S
H3671 C3658 0.961 . S
H3672 C3658 0.961 . S
H3673 C3659 0.958 . S
H3674 C3659 0.961 . S
H3675 C3659 0.960 . S
C3676 C3677 1.391 . S
C3676 C3678 1.394 . S
C3676 H3692 0.931 . S
C3677 C3676 1.391 . S
C3677 C3681 1.376 . S
C3678 C3676 1.394 . S
C3678 C3679 1.369 . S
C3678 C3682 1.531 . S
C3679 C3678 1.369 . S
C3679 C3680 1.410 . S
C3679 C3687 1.503 . S
C3680 C3679 1.410 . S
C3680 C3681 1.392 . S
C3680 C3683 1.511 . S
C3681 C3677 1.376 . S
C3681 C3680 1.392 . S
C3681 H3693 0.929 . S
C3682 C3678 1.531 . S
C3682 H3694 0.960 . S
C3682 H3695 0.962 . S
C3682 H3696 0.960 . S
C3683 C3680 1.511 . S
C3683 H3697 0.961 . S
C3683 H3698 0.961 . S
C3683 H3699 0.961 . S
C3684 C3685 1.370 . S
C3684 C3686 1.363 . S
C3684 H3700 0.931 1_565 S
C3685 C3684 1.370 . S
C3685 C3689 1.408 . S
C3686 C3684 1.363 . S
C3686 C3687 1.370 . S
C3686 C3690 1.524 1_565 S
C3687 C3679 1.503 . S
C3687 C3686 1.370 . S
C3687 C3688 1.403 . S
C3688 C3687 1.403 . S
C3688 C3689 1.404 . S
C3688 C3691 1.539 . S
C3689 C3685 1.408 . S
C3689 C3688 1.404 . S
C3689 H3701 0.930 . S
C3690 C3686 1.524 1_545 S
C3690 H3702 0.956 . S
C3690 H3703 0.961 . S
C3690 H3704 0.961 . S
C3691 C3688 1.539 . S
C3691 H3705 0.958 . S
C3691 H3706 0.961 . S
C3691 H3707 0.960 . S
H3692 C3676 0.931 . S
H3693 C3681 0.929 . S
H3694 C3682 0.960 . S
H3695 C3682 0.962 . S
H3696 C3682 0.960 . S
H3697 C3683 0.961 . S
H3698 C3683 0.961 . S
H3699 C3683 0.961 . S
H3700 C3684 0.931 1_545 S
H3701 C3689 0.930 . S
H3702 C3690 0.956 . S
H3703 C3690 0.961 . S
H3704 C3690 0.961 . S
H3705 C3691 0.958 . S
H3706 C3691 0.961 . S
H3707 C3691 0.960 . S
C3708 C3709 1.391 . S
C3708 C3710 1.394 . S
C3708 H3724 0.931 . S
C3709 C3708 1.391 . S
C3709 C3713 1.376 . S
C3710 C3708 1.394 . S
C3710 C3711 1.369 . S
C3710 C3714 1.531 . S
C3711 C3710 1.369 . S
C3711 C3712 1.410 . S
C3711 C3719 1.503 . S
C3712 C3711 1.410 . S
C3712 C3713 1.392 . S
C3712 C3715 1.511 1_565 S
C3713 C3709 1.376 . S
C3713 C3712 1.392 . S
C3713 H3725 0.929 1_565 S
C3714 C3710 1.531 . S
C3714 H3726 0.960 . S
C3714 H3727 0.962 . S
C3714 H3728 0.960 . S
C3715 C3712 1.511 1_545 S
C3715 H3729 0.961 . S
C3715 H3730 0.961 . S
C3715 H3731 0.961 . S
C3716 C3717 1.366 . S
C3716 C3718 1.363 1_545 S
C3716 H3732 0.931 . S
C3717 C3716 1.366 . S
C3717 C3721 1.404 1_545 S
C3718 C3716 1.363 1_565 S
C3718 C3719 1.370 . S
C3718 C3722 1.524 1_565 S
C3719 C3711 1.503 . S
C3719 C3718 1.370 . S
C3719 C3720 1.403 . S
C3720 C3719 1.403 . S
C3720 C3721 1.404 . S
C3720 C3723 1.539 . S
C3721 C3717 1.404 1_565 S
C3721 C3720 1.404 . S
C3721 H3733 0.930 . S
C3722 C3718 1.524 1_545 S
C3722 H3734 0.956 1_545 S
C3722 H3735 0.961 . S
C3722 H3736 0.961 . S
C3723 C3720 1.539 . S
C3723 H3737 0.958 . S
C3723 H3738 0.961 . S
C3723 H3739 0.960 . S
H3724 C3708 0.931 . S
H3725 C3713 0.929 1_545 S
H3726 C3714 0.960 . S
H3727 C3714 0.962 . S
H3728 C3714 0.960 . S
H3729 C3715 0.961 . S
H3730 C3715 0.961 . S
H3731 C3715 0.961 . S
H3732 C3716 0.931 . S
H3733 C3721 0.930 . S
H3734 C3722 0.956 1_565 S
H3735 C3722 0.961 . S
H3736 C3722 0.961 . S
H3737 C3723 0.958 . S
H3738 C3723 0.961 . S
H3739 C3723 0.960 . S
C3740 C3741 1.391 . S
C3740 C3742 1.394 . S
C3740 H3756 0.931 . S
C3741 C3740 1.391 . S
C3741 C3745 1.376 . S
C3742 C3740 1.394 . S
C3742 C3743 1.369 . S
C3742 C3746 1.531 . S
C3743 C3742 1.369 . S
C3743 C3744 1.410 . S
C3743 C3751 1.503 . S
C3744 C3743 1.410 . S
C3744 C3745 1.392 . S
C3744 C3747 1.511 1_455 S
C3745 C3741 1.376 . S
C3745 C3744 1.392 . S
C3745 H3757 0.929 . S
C3746 C3742 1.531 . S
C3746 H3758 0.960 . S
C3746 H3759 0.962 . S
C3746 H3760 0.960 . S
C3747 C3744 1.511 1_655 S
C3747 H3761 0.961 . S
C3747 H3762 0.961 . S
C3747 H3763 0.961 . S
C3748 C3749 1.383 1_455 S
C3748 C3750 1.363 . S
C3748 H3764 0.931 . S
C3749 C3748 1.383 1_655 S
C3749 C3753 1.406 1_655 S
C3750 C3748 1.363 . S
C3750 C3751 1.370 . S
C3750 C3754 1.524 . S
C3751 C3743 1.503 . S
C3751 C3750 1.370 . S
C3751 C3752 1.403 . S
C3752 C3751 1.403 . S
C3752 C3753 1.404 . S
C3752 C3755 1.539 . S
C3753 C3749 1.406 1_455 S
C3753 C3752 1.404 . S
C3753 H3765 0.930 1_455 S
C3754 C3750 1.524 . S
C3754 H3766 0.956 . S
C3754 H3767 0.961 . S
C3754 H3768 0.961 . S
C3755 C3752 1.539 . S
C3755 H3769 0.958 . S
C3755 H3770 0.953 1_455 S
C3755 H3771 0.960 . S
H3756 C3740 0.931 . S
H3757 C3745 0.929 . S
H3758 C3746 0.960 . S
H3759 C3746 0.962 . S
H3760 C3746 0.960 . S
H3761 C3747 0.961 . S
H3762 C3747 0.961 . S
H3763 C3747 0.961 . S
H3764 C3748 0.931 . S
H3765 C3753 0.930 1_655 S
H3766 C3754 0.956 . S
H3767 C3754 0.961 . S
H3768 C3754 0.961 . S
H3769 C3755 0.958 . S
H3770 C3755 0.953 1_655 S
H3771 C3755 0.960 . S
C3772 C3773 1.391 . S
C3772 C3774 1.394 . S
C3772 H3788 0.931 . S
C3773 C3772 1.391 . S
C3773 C3777 1.376 . S
C3774 C3772 1.394 . S
C3774 C3775 1.369 . S
C3774 C3778 1.531 . S
C3775 C3774 1.369 . S
C3775 C3776 1.410 . S
C3775 C3783 1.503 . S
C3776 C3775 1.410 . S
C3776 C3777 1.392 . S
C3776 C3779 1.511 . S
C3777 C3773 1.376 . S
C3777 C3776 1.392 . S
C3777 H3789 0.929 . S
C3778 C3774 1.531 . S
C3778 H3790 0.960 . S
C3778 H3791 0.962 . S
C3778 H3792 0.960 . S
C3779 C3776 1.511 . S
C3779 H3793 0.961 . S
C3779 H3794 0.961 . S
C3779 H3795 0.961 . S
C3780 C3781 1.370 . S
C3780 C3782 1.363 . S
C3780 H3796 0.931 . S
C3781 C3780 1.370 . S
C3781 C3785 1.408 . S
C3782 C3780 1.363 . S
C3782 C3783 1.370 . S
C3782 C3786 1.524 . S
C3783 C3775 1.503 . S
C3783 C3782 1.370 . S
C3783 C3784 1.403 . S
C3784 C3783 1.403 . S
C3784 C3785 1.404 . S
C3784 C3787 1.539 . S
C3785 C3781 1.408 . S
C3785 C3784 1.404 . S
C3785 H3797 0.930 . S
C3786 C3782 1.524 . S
C3786 H3798 0.956 . S
C3786 H3799 0.961 . S
C3786 H3800 0.961 . S
C3787 C3784 1.539 . S
C3787 H3801 0.958 . S
C3787 H3802 0.961 . S
C3787 H3803 0.960 . S
H3788 C3772 0.931 . S
H3789 C3777 0.929 . S
H3790 C3778 0.960 . S
H3791 C3778 0.962 . S
H3792 C3778 0.960 . S
H3793 C3779 0.961 . S
H3794 C3779 0.961 . S
H3795 C3779 0.961 . S
H3796 C3780 0.931 . S
H3797 C3785 0.930 . S
H3798 C3786 0.956 . S
H3799 C3786 0.961 . S
H3800 C3786 0.961 . S
H3801 C3787 0.958 . S
H3802 C3787 0.961 . S
H3803 C3787 0.960 . S
C3804 C3805 1.391 . S
C3804 C3806 1.394 . S
C3804 H3820 0.931 . S
C3805 C3804 1.391 . S
C3805 C3809 1.376 . S
C3806 C3804 1.394 . S
C3806 C3807 1.369 . S
C3806 C3810 1.531 . S
C3807 C3806 1.369 . S
C3807 C3808 1.410 . S
C3807 C3815 1.503 . S
C3808 C3807 1.410 . S
C3808 C3809 1.392 . S
C3808 C3811 1.511 . S
C3809 C3805 1.376 . S
C3809 C3808 1.392 . S
C3809 H3821 0.929 . S
C3810 C3806 1.531 . S
C3810 H3822 0.960 . S
C3810 H3823 0.962 . S
C3810 H3824 0.960 . S
C3811 C3808 1.511 . S
C3811 H3825 0.961 . S
C3811 H3826 0.961 . S
C3811 H3827 0.961 . S
C3812 C3813 1.370 . S
C3812 C3814 1.363 . S
C3812 H3828 0.931 . S
C3813 C3812 1.370 . S
C3813 C3817 1.408 . S
C3814 C3812 1.363 . S
C3814 C3815 1.370 . S
C3814 C3818 1.524 . S
C3815 C3807 1.503 . S
C3815 C3814 1.370 . S
C3815 C3816 1.403 . S
C3816 C3815 1.403 . S
C3816 C3817 1.404 . S
C3816 C3819 1.539 . S
C3817 C3813 1.408 . S
C3817 C3816 1.404 . S
C3817 H3829 0.930 . S
C3818 C3814 1.524 . S
C3818 H3830 0.956 . S
C3818 H3831 0.961 . S
C3818 H3832 0.961 . S
C3819 C3816 1.539 . S
C3819 H3833 0.958 . S
C3819 H3834 0.961 . S
C3819 H3835 0.960 . S
H3820 C3804 0.931 . S
H3821 C3809 0.929 . S
H3822 C3810 0.960 . S
H3823 C3810 0.962 . S
H3824 C3810 0.960 . S
H3825 C3811 0.961 . S
H3826 C3811 0.961 . S
H3827 C3811 0.961 . S
H3828 C3812 0.931 . S
H3829 C3817 0.930 . S
H3830 C3818 0.956 . S
H3831 C3818 0.961 . S
H3832 C3818 0.961 . S
H3833 C3819 0.958 . S
H3834 C3819 0.961 . S
H3835 C3819 0.960 . S
C3836 C3837 1.391 . S
C3836 C3838 1.394 . S
C3836 H3852 0.931 . S
C3837 C3836 1.391 . S
C3837 C3841 1.376 . S
C3838 C3836 1.394 . S
C3838 C3839 1.369 . S
C3838 C3842 1.531 . S
C3839 C3838 1.369 . S
C3839 C3840 1.410 . S
C3839 C3847 1.503 . S
C3840 C3839 1.410 . S
C3840 C3841 1.392 . S
C3840 C3843 1.511 . S
C3841 C3837 1.376 . S
C3841 C3840 1.392 . S
C3841 H3853 0.929 . S
C3842 C3838 1.531 . S
C3842 H3854 0.960 . S
C3842 H3855 0.962 . S
C3842 H3856 0.960 . S
C3843 C3840 1.511 . S
C3843 H3857 0.961 . S
C3843 H3858 0.961 . S
C3843 H3859 0.961 . S
C3844 C3845 1.370 . S
C3844 C3846 1.363 . S
C3844 H3860 0.931 . S
C3845 C3844 1.370 . S
C3845 C3849 1.408 . S
C3846 C3844 1.363 . S
C3846 C3847 1.370 . S
C3846 C3850 1.524 . S
C3847 C3839 1.503 . S
C3847 C3846 1.370 . S
C3847 C3848 1.403 . S
C3848 C3847 1.403 . S
C3848 C3849 1.404 . S
C3848 C3851 1.539 . S
C3849 C3845 1.408 . S
C3849 C3848 1.404 . S
C3849 H3861 0.930 . S
C3850 C3846 1.524 . S
C3850 H3862 0.956 . S
C3850 H3863 0.961 . S
C3850 H3864 0.961 . S
C3851 C3848 1.539 . S
C3851 H3865 0.958 . S
C3851 H3866 0.961 . S
C3851 H3867 0.960 . S
H3852 C3836 0.931 . S
H3853 C3841 0.929 . S
H3854 C3842 0.960 . S
H3855 C3842 0.962 . S
H3856 C3842 0.960 . S
H3857 C3843 0.961 . S
H3858 C3843 0.961 . S
H3859 C3843 0.961 . S
H3860 C3844 0.931 . S
H3861 C3849 0.930 . S
H3862 C3850 0.956 . S
H3863 C3850 0.961 . S
H3864 C3850 0.961 . S
H3865 C3851 0.958 . S
H3866 C3851 0.961 . S
H3867 C3851 0.960 . S
C3868 C3869 1.391 . S
C3868 C3870 1.394 . S
C3868 H3884 0.931 . S
C3869 C3868 1.391 . S
C3869 C3873 1.376 . S
C3870 C3868 1.394 . S
C3870 C3871 1.369 . S
C3870 C3874 1.531 . S
C3871 C3870 1.369 . S
C3871 C3872 1.410 . S
C3871 C3879 1.503 . S
C3872 C3871 1.410 . S
C3872 C3873 1.392 . S
C3872 C3875 1.511 . S
C3873 C3869 1.376 . S
C3873 C3872 1.392 . S
C3873 H3885 0.929 . S
C3874 C3870 1.531 . S
C3874 H3886 0.960 . S
C3874 H3887 0.962 . S
C3874 H3888 0.960 . S
C3875 C3872 1.511 . S
C3875 H3889 0.961 . S
C3875 H3890 0.961 . S
C3875 H3891 0.961 . S
C3876 C3877 1.370 . S
C3876 C3878 1.363 . S
C3876 H3892 0.931 . S
C3877 C3876 1.370 . S
C3877 C3881 1.408 . S
C3878 C3876 1.363 . S
C3878 C3879 1.370 . S
C3878 C3882 1.524 . S
C3879 C3871 1.503 . S
C3879 C3878 1.370 . S
C3879 C3880 1.403 . S
C3880 C3879 1.403 . S
C3880 C3881 1.404 . S
C3880 C3883 1.539 . S
C3881 C3877 1.408 . S
C3881 C3880 1.404 . S
C3881 H3893 0.930 . S
C3882 C3878 1.524 . S
C3882 H3894 0.956 . S
C3882 H3895 0.961 . S
C3882 H3896 0.961 . S
C3883 C3880 1.539 . S
C3883 H3897 0.958 . S
C3883 H3898 0.961 . S
C3883 H3899 0.960 . S
H3884 C3868 0.931 . S
H3885 C3873 0.929 . S
H3886 C3874 0.960 . S
H3887 C3874 0.962 . S
H3888 C3874 0.960 . S
H3889 C3875 0.961 . S
H3890 C3875 0.961 . S
H3891 C3875 0.961 . S
H3892 C3876 0.931 . S
H3893 C3881 0.930 . S
H3894 C3882 0.956 . S
H3895 C3882 0.961 . S
H3896 C3882 0.961 . S
H3897 C3883 0.958 . S
H3898 C3883 0.961 . S
H3899 C3883 0.960 . S
C3900 C3901 1.391 . S
C3900 C3902 1.394 . S
C3900 H3916 0.931 . S
C3901 C3900 1.391 . S
C3901 C3905 1.376 . S
C3902 C3900 1.394 . S
C3902 C3903 1.369 . S
C3902 C3906 1.531 1_545 S
C3903 C3902 1.369 . S
C3903 C3904 1.410 . S
C3903 C3911 1.503 . S
C3904 C3903 1.410 . S
C3904 C3905 1.392 . S
C3904 C3907 1.511 . S
C3905 C3901 1.376 . S
C3905 C3904 1.392 . S
C3905 H3917 0.929 . S
C3906 C3902 1.531 1_565 S
C3906 H3918 0.960 . S
C3906 H3919 0.938 1_565 S
C3906 H3920 0.960 . S
C3907 C3904 1.511 . S
C3907 H3921 0.961 . S
C3907 H3922 0.961 . S
C3907 H3923 0.961 . S
C3908 C3909 1.370 . S
C3908 C3910 1.363 . S
C3908 H3924 0.931 . S
C3909 C3908 1.370 . S
C3909 C3913 1.431 . S
C3910 C3908 1.363 . S
C3910 C3911 1.370 . S
C3910 C3914 1.524 . S
C3911 C3903 1.503 . S
C3911 C3910 1.370 . S
C3911 C3912 1.403 . S
C3912 C3911 1.403 . S
C3912 C3913 1.428 . S
C3912 C3915 1.539 1_545 S
C3913 C3909 1.431 . S
C3913 C3912 1.428 . S
C3913 H3925 0.886 1_545 S
C3914 C3910 1.524 . S
C3914 H3926 0.956 . S
C3914 H3927 0.961 . S
C3914 H3928 0.961 . S
C3915 C3912 1.539 1_565 S
C3915 H3929 0.958 . S
C3915 H3930 0.961 . S
C3915 H3931 0.960 . S
H3916 C3900 0.931 . S
H3917 C3905 0.929 . S
H3918 C3906 0.960 . S
H3919 C3906 0.938 1_545 S
H3920 C3906 0.960 . S
H3921 C3907 0.961 . S
H3922 C3907 0.961 . S
H3923 C3907 0.961 . S
H3924 C3908 0.931 . S
H3925 C3913 0.886 1_565 S
H3926 C3914 0.956 . S
H3927 C3914 0.961 . S
H3928 C3914 0.961 . S
H3929 C3915 0.958 . S
H3930 C3915 0.961 . S
H3931 C3915 0.960 . S
C3932 C3933 1.391 . S
C3932 C3934 1.394 . S
C3932 H3948 0.931 . S
C3933 C3932 1.391 . S
C3933 C3937 1.376 . S
C3934 C3932 1.394 . S
C3934 C3935 1.369 . S
C3934 C3938 1.531 . S
C3935 C3934 1.369 . S
C3935 C3936 1.410 . S
C3935 C3943 1.503 . S
C3936 C3935 1.410 . S
C3936 C3937 1.392 . S
C3936 C3939 1.511 1_655 S
C3937 C3933 1.376 . S
C3937 C3936 1.392 . S
C3937 H3949 0.929 . S
C3938 C3934 1.531 . S
C3938 H3950 0.960 . S
C3938 H3951 0.962 . S
C3938 H3952 0.960 . S
C3939 C3936 1.511 1_455 S
C3939 H3953 0.961 . S
C3939 H3954 0.961 . S
C3939 H3955 0.961 . S
C3940 C3941 1.370 . S
C3940 C3942 1.363 . S
C3940 H3956 0.931 . S
C3941 C3940 1.370 . S
C3941 C3945 1.408 . S
C3942 C3940 1.363 . S
C3942 C3943 1.370 . S
C3942 C3946 1.524 . S
C3943 C3935 1.503 . S
C3943 C3942 1.370 . S
C3943 C3944 1.403 . S
C3944 C3943 1.403 . S
C3944 C3945 1.404 . S
C3944 C3947 1.539 1_655 S
C3945 C3941 1.408 . S
C3945 C3944 1.404 . S
C3945 H3957 0.930 1_655 S
C3946 C3942 1.524 . S
C3946 H3958 0.956 . S
C3946 H3959 0.961 . S
C3946 H3960 0.961 . S
C3947 C3944 1.539 1_455 S
C3947 H3961 0.959 1_455 S
C3947 H3962 0.961 . S
C3947 H3963 0.960 . S
H3948 C3932 0.931 . S
H3949 C3937 0.929 . S
H3950 C3938 0.960 . S
H3951 C3938 0.962 . S
H3952 C3938 0.960 . S
H3953 C3939 0.961 . S
H3954 C3939 0.961 . S
H3955 C3939 0.961 . S
H3956 C3940 0.931 . S
H3957 C3945 0.930 1_455 S
H3958 C3946 0.956 . S
H3959 C3946 0.961 . S
H3960 C3946 0.961 . S
H3961 C3947 0.959 1_655 S
H3962 C3947 0.961 . S
H3963 C3947 0.960 . S
C3964 C3965 1.391 . S
C3964 C3966 1.394 . S
C3964 H3980 0.931 . S
C3965 C3964 1.391 . S
C3965 C3969 1.376 . S
C3966 C3964 1.394 . S
C3966 C3967 1.369 . S
C3966 C3970 1.531 . S
C3967 C3966 1.369 . S
C3967 C3968 1.410 . S
C3967 C3975 1.503 . S
C3968 C3967 1.410 . S
C3968 C3969 1.392 . S
C3968 C3971 1.511 . S
C3969 C3965 1.376 . S
C3969 C3968 1.392 . S
C3969 H3981 0.929 . S
C3970 C3966 1.531 . S
C3970 H3982 0.960 . S
C3970 H3983 0.962 . S
C3970 H3984 0.960 . S
C3971 C3968 1.511 . S
C3971 H3985 0.961 . S
C3971 H3986 0.961 . S
C3971 H3987 0.961 . S
C3972 C3973 1.370 . S
C3972 C3974 1.363 . S
C3972 H3988 0.931 . S
C3973 C3972 1.370 . S
C3973 C3977 1.408 . S
C3974 C3972 1.363 . S
C3974 C3975 1.370 . S
C3974 C3978 1.524 . S
C3975 C3967 1.503 . S
C3975 C3974 1.370 . S
C3975 C3976 1.403 . S
C3976 C3975 1.403 . S
C3976 C3977 1.404 . S
C3976 C3979 1.539 . S
C3977 C3973 1.408 . S
C3977 C3976 1.404 . S
C3977 H3989 0.930 . S
C3978 C3974 1.524 . S
C3978 H3990 0.956 . S
C3978 H3991 0.961 . S
C3978 H3992 0.961 . S
C3979 C3976 1.539 . S
C3979 H3993 0.958 . S
C3979 H3994 0.961 . S
C3979 H3995 0.960 . S
H3980 C3964 0.931 . S
H3981 C3969 0.929 . S
H3982 C3970 0.960 . S
H3983 C3970 0.962 . S
H3984 C3970 0.960 . S
H3985 C3971 0.961 . S
H3986 C3971 0.961 . S
H3987 C3971 0.961 . S
H3988 C3972 0.931 . S
H3989 C3977 0.930 . S
H3990 C3978 0.956 . S
H3991 C3978 0.961 . S
H3992 C3978 0.961 . S
H3993 C3979 0.958 . S
H3994 C3979 0.961 . S
H3995 C3979 0.960 . S
C3996 C3997 1.391 . S
C3996 C3998 1.394 . S
C3996 H4012 0.931 . S
C3997 C3996 1.391 . S
C3997 C4001 1.376 . S
C3998 C3996 1.394 . S
C3998 C3999 1.369 . S
C3998 C4002 1.531 . S
C3999 C3998 1.369 . S
C3999 C4000 1.410 . S
C3999 C4007 1.503 . S
C4000 C3999 1.410 . S
C4000 C4001 1.392 . S
C4000 C4003 1.511 . S
C4001 C3997 1.376 . S
C4001 C4000 1.392 . S
C4001 H4013 0.929 . S
C4002 C3998 1.531 . S
C4002 H4014 0.960 . S
C4002 H4015 0.962 . S
C4002 H4016 0.960 . S
C4003 C4000 1.511 . S
C4003 H4017 0.961 . S
C4003 H4018 0.961 . S
C4003 H4019 0.961 . S
C4004 C4005 1.370 . S
C4004 C4006 1.363 . S
C4004 H4020 0.931 . S
C4005 C4004 1.370 . S
C4005 C4009 1.408 . S
C4006 C4004 1.363 . S
C4006 C4007 1.370 . S
C4006 C4010 1.524 . S
C4007 C3999 1.503 . S
C4007 C4006 1.370 . S
C4007 C4008 1.403 . S
C4008 C4007 1.403 . S
C4008 C4009 1.404 . S
C4008 C4011 1.539 . S
C4009 C4005 1.408 . S
C4009 C4008 1.404 . S
C4009 H4021 0.930 . S
C4010 C4006 1.524 . S
C4010 H4022 0.956 . S
C4010 H4023 0.961 . S
C4010 H4024 0.961 . S
C4011 C4008 1.539 . S
C4011 H4025 0.958 . S
C4011 H4026 0.961 . S
C4011 H4027 0.960 . S
H4012 C3996 0.931 . S
H4013 C4001 0.929 . S
H4014 C4002 0.960 . S
H4015 C4002 0.962 . S
H4016 C4002 0.960 . S
H4017 C4003 0.961 . S
H4018 C4003 0.961 . S
H4019 C4003 0.961 . S
H4020 C4004 0.931 . S
H4021 C4009 0.930 . S
H4022 C4010 0.956 . S
H4023 C4010 0.961 . S
H4024 C4010 0.961 . S
H4025 C4011 0.958 . S
H4026 C4011 0.961 . S
H4027 C4011 0.960 . S
C4028 C4029 1.391 . S
C4028 C4030 1.394 . S
C4028 H4044 0.931 . S
C4029 C4028 1.391 . S
C4029 C4033 1.376 . S
C4030 C4028 1.394 . S
C4030 C4031 1.369 . S
C4030 C4034 1.531 . S
C4031 C4030 1.369 . S
C4031 C4032 1.410 . S
C4031 C4039 1.503 . S
C4032 C4031 1.410 . S
C4032 C4033 1.392 . S
C4032 C4035 1.511 . S
C4033 C4029 1.376 . S
C4033 C4032 1.392 . S
C4033 H4045 0.929 . S
C4034 C4030 1.531 . S
C4034 H4046 0.960 . S
C4034 H4047 0.962 . S
C4034 H4048 0.960 . S
C4035 C4032 1.511 . S
C4035 H4049 0.961 . S
C4035 H4050 0.961 . S
C4035 H4051 0.961 . S
C4036 C4037 1.370 . S
C4036 C4038 1.363 . S
C4036 H4052 0.931 . S
C4037 C4036 1.370 . S
C4037 C4041 1.408 . S
C4038 C4036 1.363 . S
C4038 C4039 1.370 . S
C4038 C4042 1.524 . S
C4039 C4031 1.503 . S
C4039 C4038 1.370 . S
C4039 C4040 1.403 . S
C4040 C4039 1.403 . S
C4040 C4041 1.404 . S
C4040 C4043 1.539 . S
C4041 C4037 1.408 . S
C4041 C4040 1.404 . S
C4041 H4053 0.930 . S
C4042 C4038 1.524 . S
C4042 H4054 0.956 . S
C4042 H4055 0.961 . S
C4042 H4056 0.961 . S
C4043 C4040 1.539 . S
C4043 H4057 0.958 . S
C4043 H4058 0.961 . S
C4043 H4059 0.960 . S
H4044 C4028 0.931 . S
H4045 C4033 0.929 . S
H4046 C4034 0.960 . S
H4047 C4034 0.962 . S
H4048 C4034 0.960 . S
H4049 C4035 0.961 . S
H4050 C4035 0.961 . S
H4051 C4035 0.961 . S
H4052 C4036 0.931 . S
H4053 C4041 0.930 . S
H4054 C4042 0.956 . S
H4055 C4042 0.961 . S
H4056 C4042 0.961 . S
H4057 C4043 0.958 . S
H4058 C4043 0.961 . S
H4059 C4043 0.960 . S
C4060 C4061 1.391 . S
C4060 C4062 1.394 . S
C4060 H4076 0.931 . S
C4061 C4060 1.391 . S
C4061 C4065 1.376 . S
C4062 C4060 1.394 . S
C4062 C4063 1.369 . S
C4062 C4066 1.531 . S
C4063 C4062 1.369 . S
C4063 C4064 1.410 . S
C4063 C4071 1.503 . S
C4064 C4063 1.410 . S
C4064 C4065 1.392 . S
C4064 C4067 1.511 . S
C4065 C4061 1.376 . S
C4065 C4064 1.392 . S
C4065 H4077 0.929 . S
C4066 C4062 1.531 . S
C4066 H4078 0.960 . S
C4066 H4079 0.962 . S
C4066 H4080 0.960 . S
C4067 C4064 1.511 . S
C4067 H4081 0.961 . S
C4067 H4082 0.961 . S
C4067 H4083 0.961 . S
C4068 C4069 1.370 . S
C4068 C4070 1.363 . S
C4068 H4084 0.931 . S
C4069 C4068 1.370 . S
C4069 C4073 1.408 . S
C4070 C4068 1.363 . S
C4070 C4071 1.370 . S
C4070 C4074 1.524 . S
C4071 C4063 1.503 . S
C4071 C4070 1.370 . S
C4071 C4072 1.403 . S
C4072 C4071 1.403 . S
C4072 C4073 1.404 . S
C4072 C4075 1.539 . S
C4073 C4069 1.408 . S
C4073 C4072 1.404 . S
C4073 H4085 0.930 . S
C4074 C4070 1.524 . S
C4074 H4086 0.956 . S
C4074 H4087 0.961 . S
C4074 H4088 0.961 . S
C4075 C4072 1.539 . S
C4075 H4089 0.958 . S
C4075 H4090 0.961 . S
C4075 H4091 0.960 . S
H4076 C4060 0.931 . S
H4077 C4065 0.929 . S
H4078 C4066 0.960 . S
H4079 C4066 0.962 . S
H4080 C4066 0.960 . S
H4081 C4067 0.961 . S
H4082 C4067 0.961 . S
H4083 C4067 0.961 . S
H4084 C4068 0.931 . S
H4085 C4073 0.930 . S
H4086 C4074 0.956 . S
H4087 C4074 0.961 . S
H4088 C4074 0.961 . S
H4089 C4075 0.958 . S
H4090 C4075 0.961 . S
H4091 C4075 0.960 . S
C4092 C4093 1.391 . S
C4092 C4094 1.394 . S
C4092 H4108 0.931 . S
C4093 C4092 1.391 . S
C4093 C4097 1.376 . S
C4094 C4092 1.394 . S
C4094 C4095 1.369 . S
C4094 C4098 1.531 . S
C4095 C4094 1.369 . S
C4095 C4096 1.410 . S
C4095 C4103 1.503 . S
C4096 C4095 1.410 . S
C4096 C4097 1.392 . S
C4096 C4099 1.511 . S
C4097 C4093 1.376 . S
C4097 C4096 1.392 . S
C4097 H4109 0.929 . S
C4098 C4094 1.531 . S
C4098 H4110 0.960 . S
C4098 H4111 0.962 . S
C4098 H4112 0.960 . S
C4099 C4096 1.511 . S
C4099 H4113 0.961 . S
C4099 H4114 0.961 . S
C4099 H4115 0.961 . S
C4100 C4101 1.370 . S
C4100 C4102 1.363 . S
C4100 H4116 0.931 . S
C4101 C4100 1.370 . S
C4101 C4105 1.408 . S
C4102 C4100 1.363 . S
C4102 C4103 1.370 . S
C4102 C4106 1.524 . S
C4103 C4095 1.503 . S
C4103 C4102 1.370 . S
C4103 C4104 1.403 . S
C4104 C4103 1.403 . S
C4104 C4105 1.404 . S
C4104 C4107 1.539 . S
C4105 C4101 1.408 . S
C4105 C4104 1.404 . S
C4105 H4117 0.930 . S
C4106 C4102 1.524 . S
C4106 H4118 0.956 . S
C4106 H4119 0.961 . S
C4106 H4120 0.961 . S
C4107 C4104 1.539 . S
C4107 H4121 0.958 . S
C4107 H4122 0.961 . S
C4107 H4123 0.960 . S
H4108 C4092 0.931 . S
H4109 C4097 0.929 . S
H4110 C4098 0.960 . S
H4111 C4098 0.962 . S
H4112 C4098 0.960 . S
H4113 C4099 0.961 . S
H4114 C4099 0.961 . S
H4115 C4099 0.961 . S
H4116 C4100 0.931 . S
H4117 C4105 0.930 . S
H4118 C4106 0.956 . S
H4119 C4106 0.961 . S
H4120 C4106 0.961 . S
H4121 C4107 0.958 . S
H4122 C4107 0.961 . S
H4123 C4107 0.960 . S
C4124 C4125 1.391 . S
C4124 C4126 1.394 . S
C4124 H4140 0.931 . S
C4125 C4124 1.391 . S
C4125 C4129 1.376 . S
C4126 C4124 1.394 . S
C4126 C4127 1.369 . S
C4126 C4130 1.531 . S
C4127 C4126 1.369 . S
C4127 C4128 1.410 . S
C4127 C4135 1.503 . S
C4128 C4127 1.410 . S
C4128 C4129 1.392 . S
C4128 C4131 1.511 . S
C4129 C4125 1.376 . S
C4129 C4128 1.392 . S
C4129 H4141 0.929 . S
C4130 C4126 1.531 . S
C4130 H4142 0.960 . S
C4130 H4143 0.962 . S
C4130 H4144 0.960 . S
C4131 C4128 1.511 . S
C4131 H4145 0.961 . S
C4131 H4146 0.961 . S
C4131 H4147 0.961 . S
C4132 C4133 1.370 . S
C4132 C4134 1.363 . S
C4132 H4148 0.931 . S
C4133 C4132 1.370 . S
C4133 C4137 1.408 . S
C4134 C4132 1.363 . S
C4134 C4135 1.370 . S
C4134 C4138 1.524 . S
C4135 C4127 1.503 . S
C4135 C4134 1.370 . S
C4135 C4136 1.403 . S
C4136 C4135 1.403 . S
C4136 C4137 1.404 . S
C4136 C4139 1.539 . S
C4137 C4133 1.408 . S
C4137 C4136 1.404 . S
C4137 H4149 0.930 . S
C4138 C4134 1.524 . S
C4138 H4150 0.956 . S
C4138 H4151 0.961 . S
C4138 H4152 0.961 . S
C4139 C4136 1.539 . S
C4139 H4153 0.958 . S
C4139 H4154 0.961 . S
C4139 H4155 0.960 . S
H4140 C4124 0.931 . S
H4141 C4129 0.929 . S
H4142 C4130 0.960 . S
H4143 C4130 0.962 . S
H4144 C4130 0.960 . S
H4145 C4131 0.961 . S
H4146 C4131 0.961 . S
H4147 C4131 0.961 . S
H4148 C4132 0.931 . S
H4149 C4137 0.930 . S
H4150 C4138 0.956 . S
H4151 C4138 0.961 . S
H4152 C4138 0.961 . S
H4153 C4139 0.958 . S
H4154 C4139 0.961 . S
H4155 C4139 0.960 . S
C4156 C4157 1.391 . S
C4156 C4158 1.394 . S
C4156 H4172 0.931 . S
C4157 C4156 1.391 . S
C4157 C4161 1.376 . S
C4158 C4156 1.394 . S
C4158 C4159 1.369 . S
C4158 C4162 1.531 . S
C4159 C4158 1.369 . S
C4159 C4160 1.410 . S
C4159 C4167 1.503 . S
C4160 C4159 1.410 . S
C4160 C4161 1.392 . S
C4160 C4163 1.511 . S
C4161 C4157 1.376 . S
C4161 C4160 1.392 . S
C4161 H4173 0.929 . S
C4162 C4158 1.531 . S
C4162 H4174 0.960 . S
C4162 H4175 0.962 . S
C4162 H4176 0.960 . S
C4163 C4160 1.511 . S
C4163 H4177 0.961 . S
C4163 H4178 0.961 . S
C4163 H4179 0.961 . S
C4164 C4165 1.370 . S
C4164 C4166 1.363 . S
C4164 H4180 0.931 . S
C4165 C4164 1.370 . S
C4165 C4169 1.408 . S
C4166 C4164 1.363 . S
C4166 C4167 1.370 . S
C4166 C4170 1.524 . S
C4167 C4159 1.503 . S
C4167 C4166 1.370 . S
C4167 C4168 1.403 . S
C4168 C4167 1.403 . S
C4168 C4169 1.404 . S
C4168 C4171 1.539 . S
C4169 C4165 1.408 . S
C4169 C4168 1.404 . S
C4169 H4181 0.930 . S
C4170 C4166 1.524 . S
C4170 H4182 0.956 . S
C4170 H4183 0.961 . S
C4170 H4184 0.961 . S
C4171 C4168 1.539 . S
C4171 H4185 0.958 . S
C4171 H4186 0.961 . S
C4171 H4187 0.960 . S
H4172 C4156 0.931 . S
H4173 C4161 0.929 . S
H4174 C4162 0.960 . S
H4175 C4162 0.962 . S
H4176 C4162 0.960 . S
H4177 C4163 0.961 . S
H4178 C4163 0.961 . S
H4179 C4163 0.961 . S
H4180 C4164 0.931 . S
H4181 C4169 0.930 . S
H4182 C4170 0.956 . S
H4183 C4170 0.961 . S
H4184 C4170 0.961 . S
H4185 C4171 0.958 . S
H4186 C4171 0.961 . S
H4187 C4171 0.960 . S
C4188 C4189 1.391 . S
C4188 C4190 1.394 . S
C4188 H4204 0.931 . S
C4189 C4188 1.391 . S
C4189 C4193 1.376 . S
C4190 C4188 1.394 . S
C4190 C4191 1.369 . S
C4190 C4194 1.531 . S
C4191 C4190 1.369 . S
C4191 C4192 1.410 . S
C4191 C4199 1.503 . S
C4192 C4191 1.410 . S
C4192 C4193 1.392 . S
C4192 C4195 1.511 . S
C4193 C4189 1.376 . S
C4193 C4192 1.392 . S
C4193 H4205 0.929 . S
C4194 C4190 1.531 . S
C4194 H4206 0.960 . S
C4194 H4207 0.962 1_655 S
C4194 H4208 0.960 . S
C4195 C4192 1.511 . S
C4195 H4209 0.961 . S
C4195 H4210 0.961 . S
C4195 H4211 0.961 . S
C4196 C4197 1.370 1_455 S
C4196 C4198 1.363 1_455 S
C4196 H4212 0.931 . S
C4197 C4196 1.370 1_655 S
C4197 C4201 1.408 . S
C4198 C4196 1.363 1_655 S
C4198 C4199 1.370 . S
C4198 C4202 1.524 1_655 S
C4199 C4191 1.503 . S
C4199 C4198 1.370 . S
C4199 C4200 1.403 . S
C4200 C4199 1.403 . S
C4200 C4201 1.404 . S
C4200 C4203 1.539 . S
C4201 C4197 1.408 . S
C4201 C4200 1.404 . S
C4201 H4213 0.930 . S
C4202 C4198 1.524 1_455 S
C4202 H4214 0.956 . S
C4202 H4215 0.961 1_455 S
C4202 H4216 0.961 . S
C4203 C4200 1.539 . S
C4203 H4217 0.958 . S
C4203 H4218 0.961 . S
C4203 H4219 0.960 . S
H4204 C4188 0.931 . S
H4205 C4193 0.929 . S
H4206 C4194 0.960 . S
H4207 C4194 0.962 1_455 S
H4208 C4194 0.960 . S
H4209 C4195 0.961 . S
H4210 C4195 0.961 . S
H4211 C4195 0.961 . S
H4212 C4196 0.931 . S
H4213 C4201 0.930 . S
H4214 C4202 0.956 . S
H4215 C4202 0.961 1_655 S
H4216 C4202 0.961 . S
H4217 C4203 0.958 . S
H4218 C4203 0.961 . S
H4219 C4203 0.960 . S
C4220 C4221 1.391 . S
C4220 C4222 1.394 . S
C4220 H4236 0.931 . S
C4221 C4220 1.391 . S
C4221 C4225 1.376 . S
C4222 C4220 1.394 . S
C4222 C4223 1.369 . S
C4222 C4226 1.531 . S
C4223 C4222 1.369 . S
C4223 C4224 1.410 . S
C4223 C4231 1.503 . S
C4224 C4223 1.410 . S
C4224 C4225 1.392 . S
C4224 C4227 1.511 . S
C4225 C4221 1.376 . S
C4225 C4224 1.392 . S
C4225 H4237 0.929 . S
C4226 C4222 1.531 . S
C4226 H4238 0.960 . S
C4226 H4239 0.962 . S
C4226 H4240 0.960 . S
C4227 C4224 1.511 . S
C4227 H4241 0.961 . S
C4227 H4242 0.961 . S
C4227 H4243 0.961 . S
C4228 C4229 1.370 . S
C4228 C4230 1.363 . S
C4228 H4244 0.931 . S
C4229 C4228 1.370 . S
C4229 C4233 1.408 . S
C4230 C4228 1.363 . S
C4230 C4231 1.370 . S
C4230 C4234 1.524 . S
C4231 C4223 1.503 . S
C4231 C4230 1.370 . S
C4231 C4232 1.403 . S
C4232 C4231 1.403 . S
C4232 C4233 1.404 . S
C4232 C4235 1.539 . S
C4233 C4229 1.408 . S
C4233 C4232 1.404 . S
C4233 H4245 0.930 . S
C4234 C4230 1.524 . S
C4234 H4246 0.956 . S
C4234 H4247 0.961 . S
C4234 H4248 0.961 . S
C4235 C4232 1.539 . S
C4235 H4249 0.958 . S
C4235 H4250 0.961 . S
C4235 H4251 0.960 . S
H4236 C4220 0.931 . S
H4237 C4225 0.929 . S
H4238 C4226 0.960 . S
H4239 C4226 0.962 . S
H4240 C4226 0.960 . S
H4241 C4227 0.961 . S
H4242 C4227 0.961 . S
H4243 C4227 0.961 . S
H4244 C4228 0.931 . S
H4245 C4233 0.930 . S
H4246 C4234 0.956 . S
H4247 C4234 0.961 . S
H4248 C4234 0.961 . S
H4249 C4235 0.958 . S
H4250 C4235 0.961 . S
H4251 C4235 0.960 . S
C4252 C4253 1.391 . S
C4252 C4254 1.394 . S
C4252 H4268 0.931 . S
C4253 C4252 1.391 . S
C4253 C4257 1.376 . S
C4254 C4252 1.394 . S
C4254 C4255 1.369 . S
C4254 C4258 1.531 . S
C4255 C4254 1.369 . S
C4255 C4256 1.410 . S
C4255 C4263 1.503 . S
C4256 C4255 1.410 . S
C4256 C4257 1.392 . S
C4256 C4259 1.511 1_545 S
C4257 C4253 1.376 . S
C4257 C4256 1.392 . S
C4257 H4269 0.929 . S
C4258 C4254 1.531 . S
C4258 H4270 0.960 . S
C4258 H4271 0.962 . S
C4258 H4272 0.960 . S
C4259 C4256 1.511 1_565 S
C4259 H4273 0.961 . S
C4259 H4274 0.961 . S
C4259 H4275 0.961 . S
C4260 C4261 1.370 . S
C4260 C4262 1.363 . S
C4260 H4276 0.931 . S
C4261 C4260 1.370 . S
C4261 C4265 1.408 1_545 S
C4262 C4260 1.363 . S
C4262 C4263 1.370 . S
C4262 C4266 1.524 . S
C4263 C4255 1.503 . S
C4263 C4262 1.370 . S
C4263 C4264 1.403 1_545 S
C4264 C4263 1.403 1_565 S
C4264 C4265 1.404 . S
C4264 C4267 1.539 . S
C4265 C4261 1.408 1_565 S
C4265 C4264 1.404 . S
C4265 H4277 0.930 . S
C4266 C4262 1.524 . S
C4266 H4278 0.956 . S
C4266 H4279 0.961 . S
C4266 H4280 0.961 . S
C4267 C4264 1.539 . S
C4267 H4281 0.958 . S
C4267 H4282 0.961 . S
C4267 H4283 0.960 . S
H4268 C4252 0.931 . S
H4269 C4257 0.929 . S
H4270 C4258 0.960 . S
H4271 C4258 0.962 . S
H4272 C4258 0.960 . S
H4273 C4259 0.961 . S
H4274 C4259 0.961 . S
H4275 C4259 0.961 . S
H4276 C4260 0.931 . S
H4277 C4265 0.930 . S
H4278 C4266 0.956 . S
H4279 C4266 0.961 . S
H4280 C4266 0.961 . S
H4281 C4267 0.958 . S
H4282 C4267 0.961 . S
H4283 C4267 0.960 . S
C1981 C4 1.199 1_655 S
C1989 C1377 1.158 . S
C2013 C38 1.736 . S
C2021 C1457 1.696 . S
C2053 C1525 1.288 . S
C2045 C74 1.323 . S
C2077 C76 1.631 . S
C2085 C1605 1.643 . S
C2109 C2 1.531 . S
C2117 C1679 1.558 . S
C2141 C40 1.600 . S
C2149 C1747 1.505 . S
C2173 C110 1.157 . S
C2181 C1673 1.142 . S
C2213 C1753 1.427 . S
C2205 C148 1.412 . S
C2245 C1599 1.337 . S
C2237 C182 1.306 . S
C2269 C184 1.647 . S
C2277 C1531 1.732 1_545 S
C2309 C1383 1.439 . S
C2301 C112 1.406 . S
C2333 C146 1.478 . S
C2341 C1451 1.481 . S
C2365 C220 1.478 . S
C2373 C1821 1.382 . S
C2397 C254 1.796 . S
C2405 C1901 1.737 . S
C2437 C1969 1.558 . S
C2429 C290 1.642 . S
C2461 C292 1.819 . S
C2469 C717 1.765 . S
C2493 C218 1.802 . S
C2501 C791 1.755 . S
C2525 C256 1.624 . S
C2533 C859 1.544 . S
C2557 C326 1.266 . S
C2565 C785 1.210 . S
C2589 C364 1.505 . S
C2597 C865 1.501 . S
C2629 C711 1.490 . S
C2621 C398 1.504 . S
C2661 C1975 1.843 . S
C2653 C400 1.848 . S
C2693 C1827 1.468 . S
C2685 C328 1.471 . S
C2725 C1895 1.526 . S
C2717 C362 1.550 . S
C2749 C436 1.398 . S
C2757 C933 1.270 . S
C2781 C470 1.805 . S
C2789 C1013 1.741 . S
C2813 C506 1.664 . S
C2821 C1081 1.580 . S
C2845 C508 1.915 . S
C2853 C1161 1.860 . S
C2885 C1235 1.738 . S
C2877 C434 1.789 . S
C2917 C1303 1.552 . S
C2909 C472 1.659 . S
C2949 C1229 1.347 . S
C2941 C542 1.389 . S
C2981 C1309 1.471 . S
C2973 C580 1.472 . S
C3005 C614 1.439 . S
C3013 C1155 1.418 . S
C3045 C1087 1.736 . S
C3037 C616 1.740 . S
C3069 C544 1.501 . S
C3077 C939 1.507 . S
C3109 C1007 1.494 . S
C3101 C578 1.491 . S
C3141 C687 1.996 . S
C3133 C14 1.978 . S
C3165 C39 1.486 . S
C3173 C761 1.485 . S
C3205 C847 1.492 . S
C3197 C75 1.477 . S
C3237 C921 1.164 . S
C3229 C86 1.168 . S
C3269 C983 1.618 . S
C3261 C3 1.635 1_556 S
C3301 C1069 1.596 . S
C3293 C50 1.591 . S
C3325 C111 2.111 . S
C3333 C1057 2.044 . S
C3357 C158 1.662 . S
C3365 C909 1.578 . S
C3389 C183 1.853 . S
C3397 C995 1.784 . S
C3421 C194 1.602 . S
C3429 C773 1.525 . S
C3461 C835 1.724 . S
C3453 C122 1.805 . S
C3485 C147 1.702 . S
C3493 C699 1.664 . S
C3525 C1131 1.945 . S
C3517 C230 1.934 . S
C3549 C255 1.625 1_545 S
C3557 C1205 1.611 . S
C3581 C291 1.537 1_655 S
C3589 C1291 1.525 . S
C3621 C1365 1.012 . S
C3613 C302 1.034 . S
C3645 C219 1.565 . S
C3653 C1427 1.539 . S
C3677 C266 1.353 . S
C3685 C1513 1.456 . S
C3709 C327 1.756 . S
C3717 C1501 1.692 . S
C3741 C374 1.363 . S
C3749 C1353 1.318 . S
C3781 C1439 1.725 . S
C3773 C399 1.781 . S
C3805 C410 1.568 . S
C3813 C1217 1.481 . S
C3837 C338 1.800 1_545 S
C3845 C1279 1.736 . S
C3877 C1143 1.750 . S
C3869 C363 1.818 1_655 S
C3909 C1575 1.779 . S
C3901 C446 1.770 . S
C3933 C471 1.306 . S
C3941 C1649 1.300 . S
C3965 C507 1.440 . S
C3973 C1735 1.414 . S
C4005 C1809 1.168 . S
C3997 C518 1.197 . S
C4037 C1871 1.655 . S
C4029 C435 1.675 1_565 S
C4061 C482 1.635 1_455 S
C4069 C1957 1.685 . S
C4093 C543 2.066 . S
C4101 C1945 1.948 . S
C4125 C590 1.785 1_565 S
C4133 C1797 1.713 . S
C4165 C1883 1.814 . S
C4157 C615 1.865 1_455 S
C4197 C1661 1.140 . S
C4189 C626 1.136 . S
C4229 C1723 1.646 . S
C4221 C554 1.711 . S
C4253 C579 1.448 . S
C4261 C1587 1.443 . S
