# Generated by pormake.
# Topology zzz, (3,6)-cn, num edge types: 1
# Building blocks:
#     Node 0, Type 0, BuildingBlock: MIDCAF_clean_linker_0, # of connection points: 3
#     Node 1, Type 0, BuildingBlock: MIDCAF_clean_linker_0, # of connection points: 3
#     Node 2, Type 0, BuildingBlock: MIDCAF_clean_linker_0, # of connection points: 3
#     Node 3, Type 0, BuildingBlock: MIDCAF_clean_linker_0, # of connection points: 3
#     Node 4, Type 0, BuildingBlock: MIDCAF_clean_linker_0, # of connection points: 3
#     Node 5, Type 0, BuildingBlock: MIDCAF_clean_linker_0, # of connection points: 3
#     Node 6, Type 0, BuildingBlock: MIDCAF_clean_linker_0, # of connection points: 3
#     Node 7, Type 0, BuildingBlock: MIDCAF_clean_linker_0, # of connection points: 3
#     Node 8, Type 1, BuildingBlock: CUKXOW_clean_sbu_0, # of connection points: 6
#     Node 9, Type 1, BuildingBlock: CUKXOW_clean_sbu_0, # of connection points: 6
#     Node 10, Type 1, BuildingBlock: CUKXOW_clean_sbu_0, # of connection points: 6
#     Node 11, Type 1, BuildingBlock: CUKXOW_clean_sbu_0, # of connection points: 6
#     Edge 12, Type (0, 1), BuildingBlock: XIVTED_clean_linker_0, # of connection points: 2
#     Edge 13, Type (0, 1), BuildingBlock: XIVTED_clean_linker_0, # of connection points: 2
#     Edge 14, Type (0, 1), BuildingBlock: XIVTED_clean_linker_0, # of connection points: 2
#     Edge 15, Type (0, 1), BuildingBlock: XIVTED_clean_linker_0, # of connection points: 2
#     Edge 16, Type (0, 1), BuildingBlock: XIVTED_clean_linker_0, # of connection points: 2
#     Edge 17, Type (0, 1), BuildingBlock: XIVTED_clean_linker_0, # of connection points: 2
#     Edge 18, Type (0, 1), BuildingBlock: XIVTED_clean_linker_0, # of connection points: 2
#     Edge 19, Type (0, 1), BuildingBlock: XIVTED_clean_linker_0, # of connection points: 2
#     Edge 20, Type (0, 1), BuildingBlock: XIVTED_clean_linker_0, # of connection points: 2
#     Edge 21, Type (0, 1), BuildingBlock: XIVTED_clean_linker_0, # of connection points: 2
#     Edge 22, Type (0, 1), BuildingBlock: XIVTED_clean_linker_0, # of connection points: 2
#     Edge 23, Type (0, 1), BuildingBlock: XIVTED_clean_linker_0, # of connection points: 2
#     Edge 24, Type (0, 1), BuildingBlock: XIVTED_clean_linker_0, # of connection points: 2
#     Edge 25, Type (0, 1), BuildingBlock: XIVTED_clean_linker_0, # of connection points: 2
#     Edge 26, Type (0, 1), BuildingBlock: XIVTED_clean_linker_0, # of connection points: 2
#     Edge 27, Type (0, 1), BuildingBlock: XIVTED_clean_linker_0, # of connection points: 2
#     Edge 28, Type (0, 1), BuildingBlock: XIVTED_clean_linker_0, # of connection points: 2
#     Edge 29, Type (0, 1), BuildingBlock: XIVTED_clean_linker_0, # of connection points: 2
#     Edge 30, Type (0, 1), BuildingBlock: XIVTED_clean_linker_0, # of connection points: 2
#     Edge 31, Type (0, 1), BuildingBlock: XIVTED_clean_linker_0, # of connection points: 2
#     Edge 32, Type (0, 1), BuildingBlock: XIVTED_clean_linker_0, # of connection points: 2
#     Edge 33, Type (0, 1), BuildingBlock: XIVTED_clean_linker_0, # of connection points: 2
#     Edge 34, Type (0, 1), BuildingBlock: XIVTED_clean_linker_0, # of connection points: 2
#     Edge 35, Type (0, 1), BuildingBlock: XIVTED_clean_linker_0, # of connection points: 2
# Relax obj value: 0.217
# Max RMSD: 0.232
# Mean RMSD: 0.188
data_MOF--net-zzz--node1-CUKXOW_clean_sbu_0--node2-MIDCAF_clean_linker_0--edge1-XIVTED_clean_linker_0
_symmetry_space_group_name_H-M    P1
_symmetry_Int_Tables_number       1
_symmetry_cell_setting            triclinic
loop_
_symmetry_equiv_pos_as_xyz
'x, y, z'
_cell_length_a     58.311093
_cell_length_b     56.854258
_cell_length_c     20.503984
_cell_angle_alpha  92.439969
_cell_angle_beta   88.285205
_cell_angle_gamma 95.486606
loop_
_atom_site_label
_atom_site_type_symbol
_atom_site_fract_x
_atom_site_fract_y
_atom_site_fract_z
_atom_type_partial_charge
C0 C 0.80177 0.4228 0.32115 0.0
C1 C 0.7992 0.44402 0.35712 0.0
C2 C 0.78248 0.45852 0.33815 0.0
C3 C 0.76972 0.45264 0.28186 0.0
H4 H 0.71133 0.46658 0.15178 0.0
H5 H 0.67528 0.47866 0.11003 0.0
H6 H 0.67759 0.42573 0.95321 0.0
H7 H 0.71329 0.41393 0.99398 0.0
H8 H 0.77621 0.43554 0.94098 0.0
H9 H 0.81031 0.43847 0.86868 0.0
H10 H 0.84593 0.39869 0.00154 0.0
H11 H 0.81204 0.39606 0.0747 0.0
H12 H 0.79273 0.40136 0.23598 0.0
H13 H 0.8146 0.41133 0.33387 0.0
H14 H 0.77997 0.47488 0.36526 0.0
H15 H 0.75795 0.46477 0.26614 0.0
N16 N 0.74429 0.43533 0.15963 0.0
N17 N 0.75288 0.42579 0.04931 0.0
N18 N 0.77986 0.4214 0.12867 0.0
C19 C 0.73785 0.43316 0.09607 0.0
C20 C 0.77391 0.41993 0.06523 0.0
C21 C 0.76527 0.429 0.17609 0.0
C22 C 0.71512 0.43936 0.07602 0.0
C23 C 0.70391 0.4574 0.1089 0.0
C24 C 0.68344 0.46441 0.08483 0.0
C25 C 0.67367 0.45309 0.0285 0.0
C26 C 0.68459 0.43463 0.99705 0.0
C27 C 0.70512 0.42796 0.02025 0.0
C28 C 0.79162 0.41592 0.01406 0.0
C29 C 0.791 0.42671 0.95378 0.0
C30 C 0.8105 0.42845 0.91241 0.0
C31 C 0.83069 0.41897 0.93002 0.0
C32 C 0.8305 0.40603 0.98682 0.0
C33 C 0.81116 0.40467 0.02882 0.0
C34 C 0.77378 0.43238 0.24327 0.0
C35 C 0.78931 0.41713 0.26476 0.0
C36 C 0.88183 0.81648 0.26374 0.0
C37 C 0.89537 0.8093 0.31349 0.0
C38 C 0.90275 0.78639 0.30861 0.0
C39 C 0.89862 0.77196 0.25226 0.0
H40 H 0.90993 0.70518 0.14678 0.0
H41 H 0.92001 0.66497 0.11911 0.0
H42 H 0.89776 0.67127 0.92206 0.0
H43 H 0.88772 0.71101 0.94948 0.0
H44 H 0.93012 0.76976 0.92731 0.0
H45 H 0.94946 0.80109 0.86163 0.0
H46 H 0.90111 0.84912 0.93637 0.0
H47 H 0.8821 0.81807 0.00351 0.0
H48 H 0.86877 0.80899 0.16817 0.0
H49 H 0.87593 0.83399 0.26541 0.0
H50 H 0.91286 0.78016 0.34666 0.0
H51 H 0.90603 0.7552 0.24764 0.0
N52 N 0.89109 0.74565 0.12396 0.0
N53 N 0.89864 0.75145 0.01212 0.0
N54 N 0.89199 0.78359 0.08249 0.0
C55 C 0.8953 0.73662 0.06254 0.0
C56 C 0.89697 0.77494 0.0218 0.0
C57 C 0.88899 0.76921 0.13375 0.0
C58 C 0.89824 0.71129 0.05011 0.0
C59 C 0.90677 0.69772 0.09803 0.0
C60 C 0.91266 0.6748 0.0821 0.0
C61 C 0.90973 0.665 0.01838 0.0
C62 C 0.9 0.67817 0.97175 0.0
C63 C 0.89443 0.70106 0.98734 0.0
C64 C 0.90469 0.79158 0.9707 0.0
C65 C 0.92319 0.78679 0.92822 0.0
C66 C 0.93436 0.8047 0.89104 0.0
C67 C 0.92679 0.82742 0.89456 0.0
C68 C 0.90715 0.83166 0.93281 0.0
C69 C 0.89632 0.81394 0.97115 0.0
C70 C 0.88719 0.78034 0.19987 0.0
C71 C 0.87782 0.80217 0.20761 0.0
C72 C 0.70527 0.97839 0.39094 0.0
C73 C 0.70503 0.00178 0.416 0.0
C74 C 0.7194 0.01977 0.38617 0.0
C75 C 0.73165 0.01487 0.32817 0.0
H76 H 0.79915 0.00075 0.18296 0.0
H77 H 0.8362 0.00413 0.12265 0.0
H78 H 0.8007 0.98872 0.94179 0.0
H79 H 0.76414 0.98509 0.00084 0.0
H80 H 0.71208 0.98444 0.99317 0.0
H81 H 0.6778 0.98876 0.93153 0.0
H82 H 0.63641 0.98598 0.10978 0.0
H83 H 0.67047 0.98117 0.17144 0.0
H84 H 0.7151 0.9559 0.31061 0.0
H85 H 0.69427 0.96414 0.41226 0.0
H86 H 0.71973 0.03792 0.40476 0.0
H87 H 0.74069 0.02938 0.30245 0.0
N88 N 0.75406 0.9917 0.19849 0.0
N89 N 0.7364 0.98642 0.0966 0.0
N90 N 0.71374 0.98524 0.19219 0.0
C91 C 0.75588 0.99004 0.13197 0.0
C92 C 0.71528 0.98406 0.12624 0.0
C93 C 0.73288 0.98893 0.22845 0.0
C94 C 0.77859 0.99252 0.097 0.0
C95 C 0.79929 0.99806 0.13036 0.0
C96 C 0.82049 1.00012 0.09586 0.0
C97 C 0.82135 0.99646 0.02758 0.0
C98 C 0.80066 0.99121 0.99448 0.0
C99 C 0.77962 0.98927 0.02859 0.0
C100 C 0.69415 0.98287 0.08749 0.0
C101 C 0.69564 0.98434 0.01921 0.0
C102 C 0.67601 0.98695 0.98385 0.0
C103 C 0.65449 0.98812 0.01597 0.0
C104 C 0.65272 0.98507 0.08358 0.0
C105 C 0.67234 0.98246 0.11897 0.0
C106 C 0.72953 0.99199 0.29931 0.0
C107 C 0.71727 0.9736 0.33276 0.0
C108 C 0.60672 0.66363 0.01116 0.0
C109 C 0.58913 0.6653 0.9666 0.0
C110 C 0.58209 0.68773 0.95531 0.0
C111 C 0.591 0.70767 0.99179 0.0
H112 H 0.62286 0.787 0.01765 0.0
H113 H 0.61149 0.82438 0.98191 0.0
H114 H 0.57317 0.83362 0.16317 0.0
H115 H 0.58492 0.79602 0.19962 0.0
H116 H 0.59588 0.75212 0.31655 0.0
H117 H 0.59133 0.73136 0.41915 0.0
H118 H 0.63446 0.6789 0.33867 0.0
H119 H 0.63954 0.69994 0.23868 0.0
H120 H 0.62788 0.68133 0.08503 0.0
H121 H 0.61308 0.64677 0.01962 0.0
H122 H 0.56853 0.68973 0.92159 0.0
H123 H 0.58407 0.72439 0.98503 0.0
N124 N 0.60828 0.74735 0.07832 0.0
N125 N 0.6121 0.75829 0.18991 0.0
N126 N 0.61548 0.71912 0.15253 0.0
C127 C 0.6089 0.76429 0.12726 0.0
C128 C 0.61587 0.73561 0.20233 0.0
C129 C 0.61151 0.72471 0.09071 0.0
C130 C 0.60469 0.78859 0.11129 0.0
C131 C 0.61236 0.79721 0.05045 0.0
C132 C 0.60596 0.81869 0.03011 0.0
C133 C 0.5914 0.83189 0.06967 0.0
C134 C 0.58436 0.82373 0.13165 0.0
C135 C 0.59118 0.80235 0.15265 0.0
C136 C 0.61779 0.72746 0.26935 0.0
C137 C 0.60503 0.73665 0.32204 0.0
C138 C 0.60221 0.72455 0.38046 0.0
C139 C 0.61216 0.70314 0.3871 0.0
C140 C 0.62661 0.69533 0.33617 0.0
C141 C 0.6294 0.70735 0.27825 0.0
C142 C 0.60688 0.70548 0.04082 0.0
C143 C 0.61537 0.68347 0.04824 0.0
C144 C 0.20478 0.58252 0.08392 0.0
C145 C 0.20869 0.56196 0.04642 0.0
C146 C 0.2265 0.54858 0.064 0.0
C147 C 0.23905 0.5548 0.12043 0.0
H148 H 0.29802 0.54304 0.24349 0.0
H149 H 0.33486 0.53153 0.28084 0.0
H150 H 0.33042 0.57904 0.4497 0.0
H151 H 0.29388 0.59033 0.41322 0.0
H152 H 0.23164 0.56878 0.46187 0.0
H153 H 0.19761 0.56495 0.53443 0.0
H154 H 0.16152 0.60575 0.40528 0.0
H155 H 0.19533 0.6093 0.33192 0.0
H156 H 0.21266 0.6037 0.17038 0.0
H157 H 0.19109 0.59312 0.07225 0.0
H158 H 0.23004 0.53275 0.03568 0.0
H159 H 0.25174 0.54345 0.13497 0.0
N160 N 0.26352 0.57174 0.24331 0.0
N161 N 0.25497 0.5802 0.35424 0.0
N162 N 0.22765 0.58457 0.27574 0.0
C163 C 0.27008 0.57355 0.30674 0.0
C164 C 0.23373 0.58572 0.33907 0.0
C165 C 0.24233 0.57766 0.22764 0.0
C166 C 0.29305 0.56753 0.32551 0.0
C167 C 0.30508 0.55115 0.28821 0.0
C168 C 0.32603 0.54445 0.30972 0.0
C169 C 0.33547 0.55444 0.36804 0.0
C170 C 0.32367 0.57122 0.40426 0.0
C171 C 0.30266 0.57757 0.3835 0.0
C172 C 0.21599 0.58902 0.39069 0.0
C173 C 0.21674 0.57763 0.45 0.0
C174 C 0.19728 0.57536 0.49148 0.0
C175 C 0.17699 0.58489 0.47497 0.0
C176 C 0.17702 0.59835 0.41917 0.0
C177 C 0.19632 0.60025 0.37706 0.0
C178 C 0.23371 0.57427 0.16057 0.0
C179 C 0.21706 0.58852 0.14046 0.0
C180 C 0.11839 0.19619 0.08002 0.0
C181 C 0.09982 0.20259 0.0448 0.0
C182 C 0.08929 0.22302 0.06509 0.0
C183 C 0.0961 0.23577 0.12231 0.0
H184 H 0.08184 0.29324 0.26162 0.0
H185 H 0.06946 0.3303 0.30759 0.0
H186 H 0.12201 0.33214 0.45301 0.0
H187 H 0.13298 0.29423 0.40964 0.0
H188 H 0.10833 0.23237 0.47032 0.0
H189 H 0.09663 0.20009 0.54231 0.0
H190 H 0.11489 0.14976 0.38996 0.0
H191 H 0.12736 0.18176 0.31973 0.0
H192 H 0.13826 0.20235 0.16613 0.0
H193 H 0.12673 0.18045 0.0659 0.0
H194 H 0.075 0.2284 0.03854 0.0
H195 H 0.08674 0.25055 0.13907 0.0
N196 N 0.1125 0.25965 0.24708 0.0
N197 N 0.11647 0.25088 0.3571 0.0
N198 N 0.11955 0.22148 0.27497 0.0
C199 C 0.11324 0.26677 0.31129 0.0
C200 C 0.11953 0.2281 0.33927 0.0
C201 C 0.1162 0.23704 0.22866 0.0
C202 C 0.10819 0.29085 0.33256 0.0
C203 C 0.09085 0.3018 0.30297 0.0
C204 C 0.08385 0.32314 0.32932 0.0
C205 C 0.09444 0.33426 0.38493 0.0
C206 C 0.11283 0.32385 0.41169 0.0
C207 C 0.11935 0.30222 0.38646 0.0
C208 C 0.11826 0.20965 0.38856 0.0
C209 C 0.11053 0.21444 0.45299 0.0
C210 C 0.1036 0.1959 0.49413 0.0
C211 C 0.10426 0.17223 0.47163 0.0
C212 C 0.11414 0.16767 0.40948 0.0
C213 C 0.12115 0.18614 0.36866 0.0
C214 C 0.11323 0.22798 0.16062 0.0
C215 C 0.12492 0.20866 0.13762 0.0
C216 C 0.31188 0.9702 0.00602 0.0
C217 C 0.30971 0.98527 0.95432 0.0
C218 C 0.29342 0.00209 0.96122 0.0
C219 C 0.28172 0.00558 0.02111 0.0
H220 H 0.21668 0.98697 0.19392 0.0
H221 H 0.17964 0.98638 0.25264 0.0
H222 H 0.20821 0.04166 0.38633 0.0
H223 H 0.24535 0.04135 0.32955 0.0
H224 H 0.29812 0.01552 0.37755 0.0
H225 H 0.3318 0.01432 0.44516 0.0
H226 H 0.37581 0.01571 0.27177 0.0
H227 H 0.34253 0.01739 0.20476 0.0
H228 H 0.30398 0.96327 0.10614 0.0
H229 H 0.32428 0.95717 0.00342 0.0
H230 H 0.29094 0.01368 0.92199 0.0
H231 H 0.271 0.0201 0.02735 0.0
N232 N 0.26017 0.00424 0.16536 0.0
N233 N 0.27585 0.01634 0.26745 0.0
N234 N 0.29998 0.00545 0.18079 0.0
C235 C 0.25722 0.01198 0.22871 0.0
C236 C 0.29732 0.01322 0.24351 0.0
C237 C 0.2817 0.00101 0.14154 0.0
C238 C 0.23396 0.01401 0.25762 0.0
C239 C 0.2149 0.99919 0.23535 0.0
C240 C 0.19364 0.99891 0.26902 0.0
C241 C 0.19095 0.0137 0.32505 0.0
C242 C 0.20976 0.02949 0.34472 0.0
C243 C 0.23104 0.02948 0.31181 0.0
C244 C 0.3176 0.0162 0.28573 0.0
C245 C 0.31504 0.01607 0.35408 0.0
C246 C 0.3343 0.01521 0.39274 0.0
C247 C 0.35643 0.01467 0.36373 0.0
C248 C 0.35905 0.01628 0.29576 0.0
C249 C 0.33989 0.01703 0.25724 0.0
C250 C 0.28616 0.99224 0.07446 0.0
C251 C 0.30027 0.97371 0.06537 0.0
C252 C 0.4107 0.34964 0.3289 0.0
C253 C 0.41909 0.34675 0.39133 0.0
C254 C 0.41692 0.32399 0.41661 0.0
C255 C 0.40837 0.30436 0.37821 0.0
H256 H 0.38396 0.22715 0.35638 0.0
H257 H 0.39548 0.19231 0.4065 0.0
H258 H 0.43725 0.17702 0.23504 0.0
H259 H 0.42488 0.21175 0.18371 0.0
H260 H 0.41886 0.25377 0.05324 0.0
H261 H 0.42566 0.27254 0.94809 0.0
H262 H 0.37711 0.32295 0.00661 0.0
H263 H 0.3699 0.30375 0.10887 0.0
H264 H 0.39682 0.33302 0.24175 0.0
H265 H 0.41217 0.36681 0.30747 0.0
H266 H 0.42266 0.3212 0.46518 0.0
H267 H 0.40809 0.28696 0.39793 0.0
N268 N 0.39993 0.26426 0.28712 0.0
N269 N 0.39803 0.24956 0.17799 0.0
N270 N 0.39489 0.28979 0.20391 0.0
C271 C 0.39993 0.24575 0.24284 0.0
C272 C 0.39492 0.27168 0.15874 0.0
C273 C 0.39759 0.28639 0.26797 0.0
C274 C 0.40375 0.22228 0.2665 0.0
C275 C 0.39527 0.21611 0.32886 0.0
C276 C 0.40203 0.19623 0.35777 0.0
C277 C 0.41779 0.1822 0.32557 0.0
C278 C 0.42509 0.18744 0.26124 0.0
C279 C 0.41803 0.20731 0.23178 0.0
C280 C 0.3941 0.27753 0.08941 0.0
C281 C 0.40899 0.26823 0.04208 0.0
C282 C 0.4131 0.27923 0.98227 0.0
C283 C 0.40235 0.29967 0.96902 0.0
C284 C 0.3857 0.30726 0.01415 0.0
C285 C 0.38162 0.29632 0.07339 0.0
C286 C 0.40172 0.30712 0.31383 0.0
C287 C 0.40201 0.33011 0.29082 0.0
Tb288 Tb 0.99237 0.98768 0.618 0.0
C289 C 0.04576 0.0027 0.60243 0.0
Tb290 Tb 0.01651 0.02223 0.72386 0.0
O291 O 0.99647 0.01509 0.54576 0.0
O292 O 0.99454 0.02417 0.64456 0.0
O293 O 0.02809 0.9876 0.58391 0.0
C294 C 0.03614 0.06131 0.78388 0.0
O295 O 0.04476 0.01798 0.65321 0.0
C296 C 0.01239 0.97742 0.75331 0.0
C297 C 0.96407 0.00671 0.74014 0.0
O298 O 0.04047 0.05442 0.72407 0.0
O299 O 0.02111 0.046 0.81016 0.0
O300 O 0.01714 0.99458 0.79613 0.0
O301 O 0.01397 0.98603 0.6978 0.0
O302 O 0.98016 0.02469 0.74803 0.0
O303 O 0.96662 0.98889 0.69741 0.0
C304 C 0.97178 0.95006 0.55354 0.0
O305 O 0.96242 0.9695 0.56857 0.0
O306 O 0.99276 0.95199 0.57388 0.0
C307 C 0.99892 0.03244 0.58918 0.0
Tb308 Tb 0.50252 0.02722 0.65058 0.0
C309 C 0.5516 0.00894 0.63376 0.0
Tb310 Tb 0.51177 0.98189 0.72193 0.0
O311 O 0.52607 0.04854 0.71537 0.0
O312 O 0.50801 0.01768 0.74726 0.0
O313 O 0.53688 0.02275 0.61022 0.0
C314 C 0.52863 0.95264 0.80351 0.0
O315 O 0.54561 0.99292 0.67822 0.0
C316 C 0.4919 0.97432 0.60857 0.0
C317 C 0.46313 1.00015 0.73594 0.0
O318 O 0.53963 0.97157 0.78095 0.0
O319 O 0.50816 0.94995 0.77953 0.0
O320 O 0.49119 0.95866 0.6531 0.0
O321 O 0.50613 0.99124 0.62605 0.0
O322 O 0.47902 0.99 0.76708 0.0
O323 O 0.46823 0.01324 0.68448 0.0
C324 C 0.48622 0.05941 0.57767 0.0
O325 O 0.48773 0.06081 0.64076 0.0
O326 O 0.49416 0.04 0.55543 0.0
C327 C 0.52351 0.03377 0.7623 0.0
Tb328 Tb 0.52277 0.52364 0.65459 0.0
C329 C 0.47188 0.51278 0.60807 0.0
Tb330 Tb 0.49177 0.48192 0.71573 0.0
O331 O 0.52205 0.50434 0.55942 0.0
O332 O 0.51893 0.48643 0.64572 0.0
O333 O 0.48962 0.52908 0.61531 0.0
C334 C 0.46811 0.44038 0.73883 0.0
O335 O 0.47039 0.49213 0.63708 0.0
C336 C 0.49609 0.52186 0.78531 0.0
C337 C 0.54229 0.4934 0.76449 0.0
O338 O 0.46076 0.46097 0.75219 0.0
O339 O 0.48863 0.44329 0.71261 0.0
O340 O 0.49191 0.5013 0.81093 0.0
O341 O 0.49555 0.51904 0.72432 0.0
O342 O 0.52467 0.47698 0.75701 0.0
O343 O 0.5439 0.51386 0.73449 0.0
C344 C 0.5469 0.56474 0.62887 0.0
O345 O 0.55385 0.54394 0.61589 0.0
O346 O 0.52655 0.56226 0.65625 0.0
C347 C 0.51806 0.48373 0.58474 0.0
Tb348 Tb 0.983 0.49768 0.65871 0.0
C349 C 0.02459 0.46796 0.62646 0.0
Tb350 Tb 0.02512 0.50504 0.74889 0.0
O351 O 0.0041 0.513 0.57828 0.0
O352 O 0.01094 0.52346 0.67507 0.0
O353 O 0.00227 0.46942 0.61793 0.0
C354 C 0.06718 0.51535 0.79633 0.0
O355 O 0.03687 0.48146 0.66998 0.0
C356 C 0.99006 0.47703 0.79055 0.0
C357 C 0.98315 0.53377 0.78338 0.0
O358 O 0.05696 0.52855 0.7585 0.0
O359 O 0.05363 0.49643 0.80798 0.0
O360 O 0.00411 0.48958 0.82942 0.0
O361 O 0.99721 0.47933 0.73255 0.0
O362 O 0.00568 0.53309 0.78972 0.0
O363 O 0.97091 0.52 0.74029 0.0
C364 C 0.94109 0.48853 0.60921 0.0
O365 O 0.95454 0.50785 0.60204 0.0
O366 O 0.95132 0.47424 0.64383 0.0
C367 C 0.0181 0.52562 0.61701 0.0
H368 H 0.14626 0.00503 0.28317 0.0
H369 H 0.08849 0.02272 0.63657 0.0
H370 H 0.18568 0.01794 0.45837 0.0
H371 H 0.05236 0.98445 0.4782 0.0
H372 H 0.1237 0.02529 0.56864 0.0
H373 H 0.11092 0.00132 0.35087 0.0
C374 C 0.14757 0.00702 0.33571 0.0
C375 C 0.1691 0.01193 0.36485 0.0
C376 C 0.10809 0.0162 0.54894 0.0
C377 C 0.12865 0.0081 0.44238 0.0
C378 C 0.08797 0.01475 0.58764 0.0
C379 C 0.06747 0.00321 0.56319 0.0
C380 C 0.10765 0.00639 0.48495 0.0
C381 C 0.06783 0.99329 0.49928 0.0
C382 C 0.12736 0.00497 0.37426 0.0
C383 C 0.16955 0.01469 0.43332 0.0
N384 N 0.08758 0.99524 0.46217 0.0
N385 N 0.14966 0.01283 0.46961 0.0
H386 H 0.43077 0.18443 0.45263 0.0
H387 H 0.47739 0.05634 0.44685 0.0
H388 H 0.42841 0.1378 0.28068 0.0
H389 H 0.47244 0.10196 0.61914 0.0
H390 H 0.46056 0.0858 0.3833 0.0
H391 H 0.44702 0.15435 0.51248 0.0
C392 C 0.43342 0.16772 0.42749 0.0
C393 C 0.42785 0.16358 0.36156 0.0
C394 C 0.4632 0.08935 0.43497 0.0
C395 C 0.4471 0.12897 0.43011 0.0
C396 C 0.47284 0.0726 0.47114 0.0
C397 C 0.47638 0.07686 0.53816 0.0
C398 C 0.4572 0.11048 0.4662 0.0
C399 C 0.47005 0.09804 0.56752 0.0
C400 C 0.4429 0.15056 0.46174 0.0
C401 C 0.43246 0.14181 0.33135 0.0
N402 N 0.46083 0.11406 0.53136 0.0
N403 N 0.44178 0.12527 0.36591 0.0
H404 H 0.34766 0.50952 0.38153 0.0
H405 H 0.46584 0.55494 0.55505 0.0
H406 H 0.3725 0.58296 0.41205 0.0
H407 H 0.4348 0.48305 0.56516 0.0
H408 H 0.43424 0.56422 0.48886 0.0
H409 H 0.38208 0.49831 0.43435 0.0
C410 C 0.36054 0.52324 0.39849 0.0
C411 C 0.35723 0.54719 0.39285 0.0
C412 C 0.43432 0.54639 0.50543 0.0
C413 C 0.39638 0.53458 0.45337 0.0
C414 C 0.45241 0.54104 0.54328 0.0
C415 C 0.45291 0.51821 0.56638 0.0
C416 C 0.41652 0.52881 0.49008 0.0
C417 C 0.435 0.50096 0.54907 0.0
C418 C 0.38004 0.51686 0.42902 0.0
C419 C 0.37429 0.5643 0.4161 0.0
N420 N 0.41748 0.50663 0.51204 0.0
N421 N 0.39307 0.55767 0.44545 0.0
H422 H 0.07448 0.37054 0.32872 0.0
H423 H 0.06313 0.44774 0.65784 0.0
H424 H 0.09355 0.34709 0.51586 0.0
H425 H 0.01272 0.44706 0.50762 0.0
H426 H 0.08138 0.41646 0.59633 0.0
H427 H 0.05795 0.40408 0.38497 0.0
C428 C 0.07526 0.3723 0.38138 0.0
C429 C 0.08553 0.35572 0.41726 0.0
C430 C 0.06637 0.42325 0.57682 0.0
C431 C 0.06726 0.39455 0.48129 0.0
C432 C 0.05601 0.44115 0.61165 0.0
C433 C 0.03628 0.44987 0.58796 0.0
C434 C 0.05724 0.41433 0.51726 0.0
C435 C 0.02777 0.44063 0.52787 0.0
C436 C 0.06591 0.39155 0.41326 0.0
C437 C 0.08639 0.3595 0.48548 0.0
N438 N 0.03837 0.42337 0.49432 0.0
N439 N 0.07747 0.37852 0.5151 0.0
H440 H 0.85869 0.0297 0.03958 0.0
H441 H 0.9273 0.97315 0.73663 0.0
H442 H 0.83446 0.96621 0.92977 0.0
H443 H 0.95261 0.03786 0.83968 0.0
H444 H 0.89347 0.97044 0.80896 0.0
H445 H 0.89389 0.03267 0.97044 0.0
C446 C 0.86088 0.01629 0.00137 0.0
C447 C 0.84355 0.9978 0.99001 0.0
C448 C 0.90636 0.98529 0.81581 0.0
C449 C 0.88352 0.00119 0.91058 0.0
C450 C 0.92572 0.98691 0.77426 0.0
C451 C 0.94286 0.00582 0.78184 0.0
C452 C 0.904 0.00268 0.86567 0.0
C453 C 0.93979 0.02301 0.83183 0.0
C454 C 0.88087 0.01808 0.96167 0.0
C455 C 0.84718 0.98099 0.93956 0.0
N456 N 0.92074 0.02101 0.87196 0.0
N457 N 0.86668 0.98314 0.90172 0.0
H458 H 0.5466 0.84234 0.07043 0.0
H459 H 0.5723 0.95515 0.84922 0.0
H460 H 0.61507 0.86869 0.00675 0.0
H461 H 0.50601 0.9147 0.86278 0.0
H462 H 0.5877 0.92822 0.92351 0.0
H463 H 0.53096 0.87378 0.01237 0.0
C464 C 0.55837 0.85504 0.04531 0.0
C465 C 0.58216 0.85287 0.04314 0.0
C466 C 0.56978 0.92527 0.91029 0.0
C467 C 0.56439 0.88869 0.97612 0.0
C468 C 0.561 0.94061 0.86798 0.0
C469 C 0.53793 0.93693 0.84947 0.0
C470 C 0.55532 0.90626 0.93462 0.0
C471 C 0.52395 0.91799 0.8755 0.0
C472 C 0.54943 0.87282 0.01168 0.0
C473 C 0.59661 0.86963 0.00911 0.0
N474 N 0.53287 0.90332 0.91672 0.0
N475 N 0.5875 0.88678 0.97675 0.0
H476 H 0.66404 0.49804 0.00256 0.0
H477 H 0.5469 0.45218 0.82418 0.0
H478 H 0.63555 0.42521 0.98929 0.0
H479 H 0.57956 0.52317 0.80665 0.0
H480 H 0.57715 0.44362 0.89589 0.0
H481 H 0.63098 0.50917 0.94309 0.0
C482 C 0.65064 0.48448 0.98805 0.0
C483 C 0.65255 0.46066 0.00043 0.0
C484 C 0.57776 0.4611 0.87649 0.0
C485 C 0.61496 0.47316 0.9322 0.0
C486 C 0.56043 0.46604 0.83537 0.0
C487 C 0.56074 0.4884 0.80866 0.0
C488 C 0.59565 0.47861 0.8915 0.0
C489 C 0.57875 0.50561 0.82552 0.0
C490 C 0.63191 0.49079 0.9537 0.0
C491 C 0.63486 0.44374 0.98008 0.0
N492 N 0.59555 0.50033 0.86578 0.0
N493 N 0.61689 0.4503 0.94684 0.0
H494 H 0.95116 0.64948 0.04681 0.0
H495 H 0.93714 0.54029 0.78736 0.0
H496 H 0.8889 0.62886 0.94193 0.0
H497 H 0.00146 0.56543 0.8771 0.0
H498 H 0.91783 0.56923 0.8547 0.0
H499 H 0.96814 0.61498 0.99789 0.0
C500 C 0.94088 0.63742 0.01456 0.0
C501 C 0.91865 0.64216 0.99796 0.0
C502 C 0.93615 0.56835 0.85987 0.0
C503 C 0.93813 0.60291 0.94083 0.0
C504 C 0.94723 0.55184 0.82128 0.0
C505 C 0.97106 0.55059 0.82587 0.0
C506 C 0.94894 0.58375 0.9035 0.0
C507 C 0.98312 0.56588 0.87135 0.0
C508 C 0.95067 0.61785 0.98614 0.0
C509 C 0.90623 0.62607 0.95526 0.0
N510 N 0.97196 0.58191 0.9081 0.0
N511 N 0.9162 0.60728 0.92776 0.0
H512 H 0.11612 0.12674 0.48084 0.0
H513 H -1e-05 0.07477 0.65818 0.0
H514 H 0.06379 0.17224 0.54414 0.0
H515 H 0.03321 0.03874 0.49753 0.0
H516 H 0.02802 0.10961 0.64328 0.0
H517 H 0.09094 0.09272 0.51736 0.0
C518 C 0.09952 0.12969 0.50313 0.0
C519 C 0.0919 0.15243 0.50778 0.0
C520 C 0.02903 0.09402 0.61143 0.0
C521 C 0.0633 0.11358 0.5508 0.0
C522 C 0.01306 0.07432 0.61959 0.0
C523 C 0.01423 0.0541 0.57849 0.0
C524 C 0.04646 0.09309 0.56291 0.0
C525 C 0.03158 0.05413 0.5297 0.0
C526 C 0.08521 0.11026 0.52402 0.0
C527 C 0.07048 0.15513 0.53933 0.0
N528 N 0.04714 0.07326 0.5236 0.0
N529 N 0.0568 0.13589 0.55906 0.0
H530 H 0.40101 0.03501 0.35378 0.0
H531 H 0.44738 0.95623 0.62612 0.0
H532 H 0.35754 0.98361 0.46149 0.0
H533 H 0.49215 0.99867 0.49702 0.0
H534 H 0.4141 0.96657 0.56767 0.0
H535 H 0.43445 0.02371 0.41 0.0
C536 C 0.39848 0.02142 0.38944 0.0
C537 C 0.37644 0.01019 0.40281 0.0
C538 C 0.43119 0.97353 0.55171 0.0
C539 C 0.41461 0.99709 0.46696 0.0
C540 C 0.45019 0.96743 0.58463 0.0
C541 C 0.4724 0.97699 0.56669 0.0
C542 C 0.4345 0.98921 0.50041 0.0
C543 C 0.47515 0.99149 0.51306 0.0
C544 C 0.41758 0.01494 0.42137 0.0
C545 C 0.37414 0.99294 0.45017 0.0
N546 N 0.45637 0.99738 0.48202 0.0
N547 N 0.39299 0.98686 0.4803 0.0
H548 H 0.41084 0.39373 0.3972 0.0
H549 H 0.51941 0.43769 0.6123 0.0
H550 H 0.45772 0.34601 0.46409 0.0
H551 H 0.48827 0.48307 0.48451 0.0
H552 H 0.49429 0.40389 0.56915 0.0
H553 H 0.43592 0.42704 0.44198 0.0
C554 C 0.42632 0.39019 0.42147 0.0
C555 C 0.43221 0.36695 0.42628 0.0
C556 C 0.4931 0.4212 0.55013 0.0
C557 C 0.46083 0.40503 0.47812 0.0
C558 C 0.50741 0.4404 0.5746 0.0
C559 C 0.50573 0.46303 0.55196 0.0
C560 C 0.47689 0.42482 0.50317 0.0
C561 C 0.49011 0.46579 0.50289 0.0
C562 C 0.44061 0.40924 0.44695 0.0
C563 C 0.45225 0.36352 0.45974 0.0
N564 N 0.47605 0.44691 0.48056 0.0
N565 N 0.46586 0.38235 0.48422 0.0
H566 H 0.14434 0.61252 0.52748 0.0
H567 H 0.04601 0.50826 0.52232 0.0
H568 H 0.15914 0.54001 0.49469 0.0
H569 H 0.04313 0.56434 0.66983 0.0
H570 H 0.08588 0.52307 0.49534 0.0
H571 H 0.10534 0.59845 0.5675 0.0
C572 C 0.13946 0.5937 0.52977 0.0
C573 C 0.1549 0.57735 0.50839 0.0
C574 C 0.07648 0.53213 0.53355 0.0
C575 C 0.11058 0.56135 0.55143 0.0
C576 C 0.05376 0.52385 0.54847 0.0
C577 C 0.04148 0.5352 0.59817 0.0
C578 C 0.08667 0.55222 0.56745 0.0
C579 C 0.05223 0.55518 0.63121 0.0
C580 C 0.11734 0.58573 0.55242 0.0
C581 C 0.14781 0.55315 0.51157 0.0
N582 N 0.07427 0.56327 0.61486 0.0
N583 N 0.12602 0.54586 0.53167 0.0
H584 H 0.9131 0.85871 0.8096 0.0
H585 H 0.02071 0.95229 0.85902 0.0
H586 H 0.97187 0.84175 0.91488 0.0
H587 H 0.98034 0.9488 0.68626 0.0
H588 H 0.00139 0.91369 0.8888 0.0
H589 H 0.93584 0.89416 0.77045 0.0
C590 C 0.93088 0.86238 0.82374 0.0
C591 C 0.94078 0.84736 0.86489 0.0
C592 C 0.99709 0.9213 0.84372 0.0
C593 C 0.96656 0.88787 0.82213 0.0
C594 C 0.00802 0.94326 0.82687 0.0
C595 C 0.00236 0.95351 0.76923 0.0
C596 C 0.97997 0.91 0.80341 0.0
C597 C 0.9857 0.94127 0.72964 0.0
C598 C 0.94382 0.8825 0.80151 0.0
C599 C 0.9638 0.85286 0.88248 0.0
N600 N 0.97486 0.9203 0.74773 0.0
N601 N 0.97588 0.87289 0.86167 0.0
H602 H 0.60908 0.96999 0.02671 0.0
H603 H 0.56788 0.05327 0.75737 0.0
H604 H 0.65427 0.02173 0.92517 0.0
H605 H 0.52065 0.007 0.87005 0.0
H606 H 0.59952 0.04283 0.82205 0.0
H607 H 0.57625 0.9833 0.97142 0.0
C608 C 0.61209 0.98412 0.9928 0.0
C609 C 0.63447 0.99468 0.98025 0.0
C610 C 0.58223 0.03511 0.83328 0.0
C611 C 0.59708 0.01002 0.91719 0.0
C612 C 0.56414 0.04124 0.79668 0.0
C613 C 0.54176 0.03075 0.8082 0.0
C614 C 0.57787 0.0184 0.88176 0.0
C615 C 0.5378 0.01527 0.85956 0.0
C616 C 0.59337 0.99172 0.96134 0.0
C617 C 0.63741 0.01277 0.93546 0.0
N618 N 0.55577 0.00931 0.89413 0.0
N619 N 0.61895 0.01985 0.90564 0.0
H620 H 0.57118 0.65803 0.84366 0.0
H621 H 0.52155 0.52426 0.89544 0.0
H622 H 0.57763 0.62305 0.02433 0.0
H623 H 0.49634 0.56729 0.75032 0.0
H624 H 0.54492 0.55914 0.93965 0.0
H625 H 0.54717 0.62327 0.80235 0.0
C626 C 0.56763 0.64308 0.87462 0.0
C627 C 0.57649 0.64357 0.93766 0.0
C628 C 0.53417 0.56097 0.89836 0.0
C629 C 0.54913 0.60372 0.89052 0.0
C630 C 0.52072 0.54116 0.87357 0.0
C631 C 0.50737 0.54302 0.81871 0.0
C632 C 0.53422 0.58264 0.86776 0.0
C633 C 0.50693 0.56517 0.79175 0.0
C634 C 0.55392 0.62326 0.85101 0.0
C635 C 0.57158 0.62343 0.97505 0.0
N636 N 0.52038 0.58413 0.8161 0.0
N637 N 0.55824 0.60436 0.95093 0.0
H638 H 0.86321 0.39096 0.8787 0.0
H639 H 0.96242 0.49394 0.88665 0.0
H640 H 0.84884 0.46366 0.90978 0.0
H641 H 0.96467 0.43898 0.73569 0.0
H642 H 0.92241 0.47939 0.9129 0.0
H643 H 0.90239 0.40469 0.83925 0.0
C644 C 0.86822 0.40974 0.87612 0.0
C645 C 0.85287 0.42625 0.89682 0.0
C646 C 0.93173 0.47051 0.87414 0.0
C647 C 0.89735 0.44186 0.85457 0.0
C648 C 0.95451 0.47864 0.85964 0.0
C649 C 0.96665 0.46752 0.80918 0.0
C650 C 0.92134 0.45078 0.83909 0.0
C651 C 0.95569 0.44793 0.77495 0.0
C652 C 0.89043 0.41752 0.85382 0.0
C653 C 0.86012 0.45041 0.89338 0.0
N654 N 0.93359 0.43995 0.79095 0.0
N655 N 0.882 0.45751 0.8737 0.0
H656 H 0.05456 0.18674 0.03344 0.0
H657 H 0.07227 0.09187 0.74243 0.0
H658 H 0.12143 0.17968 0.94295 0.0
H659 H 0.02085 0.08178 0.89688 0.0
H660 H 0.08729 0.12923 0.79778 0.0
H661 H 0.0383 0.15396 0.96305 0.0
C662 C 0.06571 0.17868 0.99757 0.0
C663 C 0.08939 0.18589 0.99405 0.0
C664 C 0.0727 0.1188 0.81925 0.0
C665 C 0.07094 0.1482 0.91413 0.0
C666 C 0.06417 0.09756 0.7879 0.0
C667 C 0.04549 0.08372 0.81573 0.0
C668 C 0.06207 0.12635 0.8778 0.0
C669 C 0.03543 0.09186 0.87426 0.0
C670 C 0.05647 0.15981 0.95801 0.0
C671 C 0.10312 0.17452 0.94741 0.0
N672 N 0.04379 0.1127 0.90326 0.0
N673 N 0.0937 0.15612 0.90931 0.0
H674 H 0.32991 0.02435 0.893 0.0
H675 H 0.44234 0.96426 0.80759 0.0
H676 H 0.33075 0.94843 0.89337 0.0
H677 H 0.42852 0.02787 0.71428 0.0
H678 H 0.40189 0.95886 0.84421 0.0
H679 H 0.36549 0.02671 0.82743 0.0
C680 C 0.33709 0.00806 0.87788 0.0
C681 C 0.3274 0.98615 0.90023 0.0
C682 C 0.4077 0.97389 0.81524 0.0
C683 C 0.36879 0.98901 0.82721 0.0
C684 C 0.43081 0.97712 0.79501 0.0
C685 C 0.43883 0.99669 0.75859 0.0
C686 C 0.39265 0.99061 0.80007 0.0
C687 C 0.42306 0.01261 0.74266 0.0
C688 C 0.35762 0.0095 0.84088 0.0
C689 C 0.33793 0.96579 0.87927 0.0
N690 N 0.40077 0.00941 0.76432 0.0
N691 N 0.35834 0.96776 0.84533 0.0
H692 H 0.44659 0.30834 0.91966 0.0
H693 H 0.42389 0.43088 0.78557 0.0
H694 H 0.37744 0.32725 0.89491 0.0
H695 H 0.48571 0.39768 0.73355 0.0
H696 H 0.40625 0.39309 0.82556 0.0
H697 H 0.46116 0.34004 0.84902 0.0
C698 C 0.43433 0.31867 0.8982 0.0
C699 C 0.41069 0.3152 0.91458 0.0
C700 C 0.42356 0.394 0.80452 0.0
C701 C 0.42755 0.35228 0.83522 0.0
C702 C 0.43363 0.41556 0.78198 0.0
C703 C 0.45631 0.41737 0.75688 0.0
C704 C 0.43647 0.37432 0.80301 0.0
C705 C 0.4682 0.39702 0.753 0.0
C706 C 0.44275 0.33699 0.8582 0.0
C707 C 0.39586 0.32962 0.88553 0.0
N708 N 0.45827 0.37641 0.7768 0.0
N709 N 0.40457 0.34782 0.84845 0.0
H710 H 0.18917 0.51676 0.02404 0.0
H711 H 0.09631 0.55529 0.77941 0.0
H712 H 0.18998 0.58725 0.9533 0.0
H713 H 0.09063 0.48847 0.87339 0.0
H714 H 0.13391 0.56536 0.82898 0.0
H715 H 0.15694 0.50399 0.95354 0.0
C716 C 0.18294 0.52945 0.99254 0.0
C717 C 0.1922 0.55318 0.99499 0.0
C718 C 0.1245 0.54843 0.83845 0.0
C719 C 0.1549 0.53877 0.91517 0.0
C720 C 0.10306 0.54271 0.81026 0.0
C721 C 0.09032 0.52114 0.82302 0.0
C722 C 0.13325 0.53242 0.87948 0.0
C723 C 0.09987 0.50537 0.86282 0.0
C724 C 0.16434 0.52219 0.9528 0.0
C725 C 0.18315 0.56887 0.95368 0.0
N726 N 0.12071 0.51137 0.88992 0.0
N727 N 0.16487 0.56145 0.91594 0.0
H728 H 0.87306 0.84418 0.37929 0.0
H729 H 0.98996 0.90856 0.52343 0.0
H730 H 0.93899 0.81547 0.36099 0.0
H731 H 0.92677 0.94203 0.51776 0.0
H732 H 0.97023 0.87225 0.47608 0.0
H733 H 0.89097 0.87775 0.44409 0.0
C734 C 0.89122 0.84474 0.38959 0.0
C735 C 0.90455 0.82702 0.36397 0.0
C736 C 0.96063 0.8875 0.48521 0.0
C737 C 0.92515 0.86544 0.43802 0.0
C738 C 0.97191 0.90825 0.512 0.0
C739 C 0.95999 0.92833 0.52381 0.0
C740 C 0.93722 0.8868 0.47023 0.0
C741 C 0.93659 0.92695 0.50878 0.0
C742 C 0.90143 0.86394 0.42651 0.0
C743 C 0.92792 0.82853 0.37997 0.0
N744 N 0.92596 0.90652 0.48256 0.0
N745 N 0.9375 0.84751 0.41534 0.0
H746 H 0.68995 0.97851 0.52653 0.0
H747 H 0.57199 0.03921 0.54336 0.0
H748 H 0.67724 0.03768 0.41213 0.0
H749 H 0.58676 0.98384 0.66931 0.0
H750 H 0.61181 0.04135 0.50177 0.0
H751 H 0.65395 0.98306 0.58811 0.0
C752 C 0.67982 0.99274 0.51526 0.0
C753 C 0.68657 0.00761 0.46381 0.0
C754 C 0.60636 0.02883 0.53881 0.0
C755 C 0.64516 0.01271 0.53323 0.0
C756 C 0.58357 0.02753 0.56239 0.0
C757 C 0.57585 0.01108 0.60924 0.0
C758 C 0.62155 0.01352 0.56199 0.0
C759 C 0.59178 0.9966 0.63258 0.0
C760 C 0.65924 0.99531 0.55028 0.0
C761 C 0.67285 0.02589 0.45164 0.0
N762 N 0.61378 0.99803 0.60835 0.0
N763 N 0.65265 0.02769 0.48538 0.0
H764 H 0.63855 0.67353 0.4495 0.0
H765 H 0.53061 0.60804 0.63954 0.0
H766 H 0.56976 0.69578 0.44902 0.0
H767 H 0.59003 0.57316 0.57304 0.0
H768 H 0.54847 0.64495 0.59535 0.0
H769 H 0.62443 0.64151 0.52054 0.0
C770 C 0.62056 0.67194 0.46484 0.0
C771 C 0.60526 0.68722 0.44183 0.0
C772 C 0.5577 0.62928 0.59107 0.0
C773 C 0.58917 0.65079 0.52428 0.0
C774 C 0.54756 0.60824 0.61631 0.0
C775 C 0.55879 0.5875 0.6091 0.0
C776 C 0.57933 0.62964 0.559 0.0
C777 C 0.58075 0.58875 0.57903 0.0
C778 C 0.61256 0.65366 0.50553 0.0
C779 C 0.58229 0.6846 0.4653 0.0
N780 N 0.59029 0.60946 0.55469 0.0
N781 N 0.57491 0.6666 0.50464 0.0
H782 H 0.81583 0.41803 0.45226 0.0
H783 H 0.9181 0.51749 0.53738 0.0
H784 H 0.82146 0.48821 0.37747 0.0
H785 H 0.9118 0.44817 0.61735 0.0
H786 H 0.88074 0.50824 0.4865 0.0
H787 H 0.84857 0.42993 0.52203 0.0
C788 C 0.82376 0.43604 0.45118 0.0
C789 C 0.81598 0.45208 0.40851 0.0
C790 C 0.88741 0.49507 0.51549 0.0
C791 C 0.85362 0.46579 0.4879 0.0
C792 C 0.90876 0.50035 0.54442 0.0
C793 C 0.91808 0.48348 0.58104 0.0
C794 C 0.87533 0.4727 0.52298 0.0
C795 C 0.90525 0.4616 0.58903 0.0
C796 C 0.84246 0.44282 0.49101 0.0
C797 C 0.82673 0.47527 0.40981 0.0
N798 N 0.88459 0.45676 0.55982 0.0
N799 N 0.84515 0.48133 0.44817 0.0
loop_
_geom_bond_atom_site_label_1
_geom_bond_atom_site_label_2
_geom_bond_distance
_geom_bond_site_symmetry_2
_ccdc_geom_bond_type
C0 C1 1.384 . S
C0 H13 0.947 . S
C0 C35 1.382 . S
C1 C0 1.384 . S
C1 C2 1.378 . S
C2 C1 1.378 . S
C2 C3 1.378 . S
C2 H14 0.952 . S
C3 C2 1.378 . S
C3 H15 0.950 . S
C3 C34 1.383 . S
H4 C23 0.947 . S
H5 C24 0.946 . S
H6 C26 0.953 . S
H7 C27 0.945 . S
H8 C29 0.952 . S
H9 C30 0.949 . S
H10 C32 0.950 . S
H11 C33 0.948 1_554 S
H12 C35 0.951 . S
H13 C0 0.947 . S
H14 C2 0.952 . S
H15 C3 0.950 . S
N16 C19 1.382 . S
N16 C21 1.363 . S
N17 C19 1.371 1_556 S
N17 C20 1.372 1_556 S
N18 C20 1.361 . S
N18 C21 1.377 . S
C19 N16 1.382 . S
C19 N17 1.371 1_554 S
C19 C22 1.480 . S
C20 N17 1.372 1_554 S
C20 N18 1.361 . S
C20 C28 1.457 1_554 S
C21 N16 1.363 . S
C21 N18 1.377 . S
C21 C34 1.479 . S
C22 C19 1.480 . S
C22 C23 1.383 . S
C22 C27 1.385 1_554 S
C23 H4 0.947 . S
C23 C22 1.383 . S
C23 C24 1.388 . S
C24 H5 0.946 . S
C24 C23 1.388 . S
C24 C25 1.366 1_554 S
C25 C24 1.366 1_556 S
C25 C26 1.390 . S
C26 H6 0.953 . S
C26 C25 1.390 . S
C26 C27 1.369 . S
C27 H7 0.945 . S
C27 C22 1.385 1_556 S
C27 C26 1.369 . S
C28 C20 1.457 1_556 S
C28 C29 1.372 . S
C28 C33 1.364 . S
C29 H8 0.952 . S
C29 C28 1.372 . S
C29 C30 1.389 . S
C30 H9 0.949 . S
C30 C29 1.389 . S
C30 C31 1.387 . S
C31 C30 1.387 . S
C31 C32 1.372 . S
C32 H10 0.950 . S
C32 C31 1.372 . S
C32 C33 1.379 . S
C33 H11 0.948 1_556 S
C33 C28 1.364 . S
C33 C32 1.379 . S
C34 C3 1.383 . S
C34 C21 1.479 . S
C34 C35 1.398 . S
C35 C0 1.382 . S
C35 H12 0.951 . S
C35 C34 1.398 . S
C36 C37 1.384 . S
C36 H49 0.947 . S
C36 C71 1.382 . S
C37 C36 1.384 . S
C37 C38 1.378 . S
C38 C37 1.378 . S
C38 C39 1.378 . S
C38 H50 0.952 . S
C39 C38 1.378 . S
C39 H51 0.950 . S
C39 C70 1.383 . S
H40 C59 0.947 . S
H41 C60 0.946 . S
H42 C62 0.953 . S
H43 C63 0.945 . S
H44 C65 0.952 . S
H45 C66 0.949 . S
H46 C68 0.950 . S
H47 C69 0.948 . S
H48 C71 0.951 . S
H49 C36 0.947 . S
H50 C38 0.952 . S
H51 C39 0.950 . S
N52 C55 1.382 . S
N52 C57 1.363 . S
N53 C55 1.371 1_556 S
N53 C56 1.372 . S
N54 C56 1.361 1_554 S
N54 C57 1.377 . S
C55 N52 1.382 . S
C55 N53 1.371 1_554 S
C55 C58 1.480 1_554 S
C56 N53 1.372 . S
C56 N54 1.361 1_556 S
C56 C64 1.457 . S
C57 N52 1.363 . S
C57 N54 1.377 . S
C57 C70 1.479 . S
C58 C55 1.480 1_556 S
C58 C59 1.383 1_556 S
C58 C63 1.385 . S
C59 H40 0.947 . S
C59 C58 1.383 1_554 S
C59 C60 1.388 . S
C60 H41 0.946 . S
C60 C59 1.388 . S
C60 C61 1.384 1_554 S
C61 C60 1.384 1_556 S
C61 C62 1.377 . S
C62 H42 0.953 . S
C62 C61 1.377 . S
C62 C63 1.369 . S
C63 H43 0.945 . S
C63 C58 1.385 . S
C63 C62 1.369 . S
C64 C56 1.457 . S
C64 C65 1.372 . S
C64 C69 1.364 . S
C65 H44 0.952 . S
C65 C64 1.372 . S
C65 C66 1.389 . S
C66 H45 0.949 . S
C66 C65 1.389 . S
C66 C67 1.387 . S
C67 C66 1.387 . S
C67 C68 1.372 . S
C68 H46 0.950 . S
C68 C67 1.372 . S
C68 C69 1.379 . S
C69 H47 0.948 . S
C69 C64 1.364 . S
C69 C68 1.379 . S
C70 C39 1.383 . S
C70 C57 1.479 . S
C70 C71 1.398 . S
C71 C36 1.382 . S
C71 H48 0.951 . S
C71 C70 1.398 . S
C72 C73 1.384 1_565 S
C72 H85 0.947 . S
C72 C107 1.382 1_565 S
C73 C72 1.384 1_545 S
C73 C74 1.378 . S
C74 C73 1.378 . S
C74 C75 1.378 . S
C74 H86 0.952 . S
C75 C74 1.378 . S
C75 H87 0.950 . S
C75 C106 1.383 . S
H76 C95 0.947 . S
H77 C96 0.954 . S
H78 C98 0.953 . S
H79 C99 0.941 1_556 S
H80 C101 0.947 1_565 S
H81 C102 0.956 . S
H82 C104 0.950 . S
H83 C105 0.948 . S
H84 C107 0.951 1_565 S
H85 C72 0.947 . S
H86 C74 0.952 . S
H87 C75 0.950 . S
N88 C91 1.382 . S
N88 C93 1.363 . S
N89 C91 1.371 . S
N89 C92 1.372 . S
N90 C92 1.361 . S
N90 C93 1.377 . S
C91 N88 1.382 . S
C91 N89 1.371 . S
C91 C94 1.480 . S
C92 N89 1.372 . S
C92 N90 1.361 . S
C92 C100 1.457 . S
C93 N88 1.363 . S
C93 N90 1.377 . S
C93 C106 1.479 . S
C94 C91 1.480 . S
C94 C95 1.383 . S
C94 C99 1.390 . S
C95 H76 0.947 . S
C95 C94 1.383 . S
C95 C96 1.383 1_545 S
C96 H77 0.954 . S
C96 C95 1.383 1_565 S
C96 C97 1.381 1_565 S
C97 C96 1.381 1_545 S
C97 C98 1.377 1_554 S
C98 H78 0.953 . S
C98 C97 1.377 1_556 S
C98 C99 1.368 1_556 S
C99 H79 0.941 1_554 S
C99 C94 1.390 . S
C99 C98 1.368 1_554 S
C100 C92 1.457 . S
C100 C101 1.376 1_554 S
C100 C105 1.364 . S
C101 H80 0.947 1_545 S
C101 C100 1.376 1_556 S
C101 C102 1.393 1_545 S
C102 H81 0.956 . S
C102 C101 1.393 1_565 S
C102 C103 1.379 1_565 S
C103 C102 1.379 1_545 S
C103 C104 1.372 . S
C104 H82 0.950 . S
C104 C103 1.372 . S
C104 C105 1.379 1_556 S
C105 H83 0.948 . S
C105 C100 1.364 . S
C105 C104 1.379 1_554 S
C106 C75 1.383 . S
C106 C93 1.479 . S
C106 C107 1.398 . S
C107 C72 1.382 1_545 S
C107 H84 0.951 1_545 S
C107 C106 1.398 . S
C108 C109 1.384 . S
C108 H121 0.947 . S
C108 C143 1.382 . S
C109 C108 1.384 . S
C109 C110 1.378 . S
C110 C109 1.378 . S
C110 C111 1.378 . S
C110 H122 0.952 . S
C111 C110 1.378 . S
C111 H123 0.950 . S
C111 C142 1.383 . S
H112 C131 0.947 . S
H113 C132 0.946 . S
H114 C134 0.953 . S
H115 C135 0.945 . S
H116 C137 0.952 . S
H117 C138 0.949 . S
H118 C140 0.950 . S
H119 C141 0.948 . S
H120 C143 0.951 1_554 S
H121 C108 0.947 . S
H122 C110 0.952 . S
H123 C111 0.950 . S
N124 C127 1.382 . S
N124 C129 1.363 . S
N125 C127 1.371 . S
N125 C128 1.372 . S
N126 C128 1.361 . S
N126 C129 1.377 . S
C127 N124 1.382 . S
C127 N125 1.371 . S
C127 C130 1.480 . S
C128 N125 1.372 . S
C128 N126 1.361 . S
C128 C136 1.457 . S
C129 N124 1.363 . S
C129 N126 1.377 . S
C129 C142 1.479 1_554 S
C130 C127 1.480 . S
C130 C131 1.383 1_554 S
C130 C135 1.385 . S
C131 H112 0.947 . S
C131 C130 1.383 1_556 S
C131 C132 1.388 . S
C132 H113 0.946 . S
C132 C131 1.388 . S
C132 C133 1.384 1_556 S
C133 C132 1.384 1_554 S
C133 C134 1.377 . S
C134 H114 0.953 . S
C134 C133 1.377 . S
C134 C135 1.369 . S
C135 H115 0.945 . S
C135 C130 1.385 . S
C135 C134 1.369 . S
C136 C128 1.457 . S
C136 C137 1.372 . S
C136 C141 1.364 . S
C137 H116 0.952 . S
C137 C136 1.372 . S
C137 C138 1.389 . S
C138 H117 0.949 . S
C138 C137 1.389 . S
C138 C139 1.387 . S
C139 C138 1.387 . S
C139 C140 1.372 . S
C140 H118 0.950 . S
C140 C139 1.372 . S
C140 C141 1.379 . S
C141 H119 0.948 . S
C141 C136 1.364 . S
C141 C140 1.379 . S
C142 C111 1.383 . S
C142 C129 1.479 1_556 S
C142 C143 1.398 . S
C143 C108 1.382 . S
C143 H120 0.951 1_556 S
C143 C142 1.398 . S
C144 C145 1.384 . S
C144 H157 0.947 . S
C144 C179 1.382 . S
C145 C144 1.384 . S
C145 C146 1.378 . S
C146 C145 1.378 . S
C146 C147 1.378 . S
C146 H158 0.952 . S
C147 C146 1.378 . S
C147 H159 0.950 . S
C147 C178 1.383 . S
H148 C167 0.947 . S
H149 C168 0.946 . S
H150 C170 0.953 . S
H151 C171 0.945 . S
H152 C173 0.952 . S
H153 C174 0.949 . S
H154 C176 0.950 . S
H155 C177 0.948 . S
H156 C179 0.951 . S
H157 C144 0.947 . S
H158 C146 0.952 . S
H159 C147 0.950 . S
N160 C163 1.382 . S
N160 C165 1.363 . S
N161 C163 1.371 . S
N161 C164 1.372 . S
N162 C164 1.361 . S
N162 C165 1.377 . S
C163 N160 1.382 . S
C163 N161 1.371 . S
C163 C166 1.480 . S
C164 N161 1.372 . S
C164 N162 1.361 . S
C164 C172 1.457 . S
C165 N160 1.363 . S
C165 N162 1.377 . S
C165 C178 1.479 . S
C166 C163 1.480 . S
C166 C167 1.383 . S
C166 C171 1.385 . S
C167 H148 0.947 . S
C167 C166 1.383 . S
C167 C168 1.388 . S
C168 H149 0.946 . S
C168 C167 1.388 . S
C168 C169 1.384 . S
C169 C168 1.384 . S
C169 C170 1.377 . S
C170 H150 0.953 . S
C170 C169 1.377 . S
C170 C171 1.369 . S
C171 H151 0.945 . S
C171 C166 1.385 . S
C171 C170 1.369 . S
C172 C164 1.457 . S
C172 C173 1.372 . S
C172 C177 1.364 . S
C173 H152 0.952 . S
C173 C172 1.372 . S
C173 C174 1.389 . S
C174 H153 0.949 . S
C174 C173 1.389 . S
C174 C175 1.387 . S
C175 C174 1.387 . S
C175 C176 1.372 . S
C176 H154 0.950 . S
C176 C175 1.372 . S
C176 C177 1.379 . S
C177 H155 0.948 . S
C177 C172 1.364 . S
C177 C176 1.379 . S
C178 C147 1.383 . S
C178 C165 1.479 . S
C178 C179 1.398 . S
C179 C144 1.382 . S
C179 H156 0.951 . S
C179 C178 1.398 . S
C180 C181 1.384 . S
C180 H193 0.947 . S
C180 C215 1.382 . S
C181 C180 1.384 . S
C181 C182 1.378 . S
C182 C181 1.378 . S
C182 C183 1.378 . S
C182 H194 0.952 . S
C183 C182 1.378 . S
C183 H195 0.950 . S
C183 C214 1.383 . S
H184 C203 0.947 . S
H185 C204 0.946 . S
H186 C206 0.953 . S
H187 C207 0.945 . S
H188 C209 0.952 . S
H189 C210 0.949 . S
H190 C212 0.950 . S
H191 C213 0.948 . S
H192 C215 0.951 . S
H193 C180 0.947 . S
H194 C182 0.952 . S
H195 C183 0.950 . S
N196 C199 1.382 . S
N196 C201 1.363 . S
N197 C199 1.371 . S
N197 C200 1.372 . S
N198 C200 1.361 . S
N198 C201 1.377 . S
C199 N196 1.382 . S
C199 N197 1.371 . S
C199 C202 1.480 . S
C200 N197 1.372 . S
C200 N198 1.361 . S
C200 C208 1.457 . S
C201 N196 1.363 . S
C201 N198 1.377 . S
C201 C214 1.479 . S
C202 C199 1.480 . S
C202 C203 1.383 . S
C202 C207 1.385 . S
C203 H184 0.947 . S
C203 C202 1.383 . S
C203 C204 1.388 . S
C204 H185 0.946 . S
C204 C203 1.388 . S
C204 C205 1.384 . S
C205 C204 1.384 . S
C205 C206 1.377 . S
C206 H186 0.953 . S
C206 C205 1.377 . S
C206 C207 1.369 . S
C207 H187 0.945 . S
C207 C202 1.385 . S
C207 C206 1.369 . S
C208 C200 1.457 . S
C208 C209 1.372 . S
C208 C213 1.364 . S
C209 H188 0.952 . S
C209 C208 1.372 . S
C209 C210 1.389 . S
C210 H189 0.949 . S
C210 C209 1.389 . S
C210 C211 1.387 . S
C211 C210 1.387 . S
C211 C212 1.372 . S
C212 H190 0.950 . S
C212 C211 1.372 . S
C212 C213 1.379 . S
C213 H191 0.948 . S
C213 C208 1.364 . S
C213 C212 1.379 . S
C214 C183 1.383 . S
C214 C201 1.479 . S
C214 C215 1.398 . S
C215 C180 1.382 . S
C215 H192 0.951 . S
C215 C214 1.398 . S
C216 C217 1.384 . S
C216 H229 0.947 . S
C216 C251 1.382 . S
C217 C216 1.384 . S
C217 C218 1.378 . S
C218 C217 1.378 . S
C218 C219 1.378 . S
C218 H230 0.966 . S
C219 C218 1.378 . S
C219 H231 0.950 . S
C219 C250 1.383 . S
H220 C239 0.947 . S
H221 C240 0.946 . S
H222 C242 0.953 . S
H223 C243 0.945 . S
H224 C245 0.952 . S
H225 C246 0.949 . S
H226 C248 0.950 . S
H227 C249 0.948 . S
H228 C251 0.951 . S
H229 C216 0.947 . S
H230 C218 0.966 . S
H231 C219 0.950 . S
N232 C235 1.382 . S
N232 C237 1.363 . S
N233 C235 1.371 . S
N233 C236 1.372 . S
N234 C236 1.361 . S
N234 C237 1.377 . S
C235 N232 1.382 . S
C235 N233 1.371 . S
C235 C238 1.480 . S
C236 N233 1.372 . S
C236 N234 1.361 . S
C236 C244 1.457 . S
C237 N232 1.363 . S
C237 N234 1.377 . S
C237 C250 1.479 . S
C238 C235 1.480 . S
C238 C239 1.383 . S
C238 C243 1.385 . S
C239 H220 0.947 . S
C239 C238 1.383 . S
C239 C240 1.388 . S
C240 H221 0.946 . S
C240 C239 1.388 . S
C240 C241 1.384 . S
C241 C240 1.384 . S
C241 C242 1.377 . S
C242 H222 0.953 . S
C242 C241 1.377 . S
C242 C243 1.369 . S
C243 H223 0.945 . S
C243 C238 1.385 . S
C243 C242 1.369 . S
C244 C236 1.457 . S
C244 C245 1.372 . S
C244 C249 1.364 . S
C245 H224 0.952 . S
C245 C244 1.372 . S
C245 C246 1.389 . S
C246 H225 0.949 . S
C246 C245 1.389 . S
C246 C247 1.387 . S
C247 C246 1.387 . S
C247 C248 1.372 . S
C248 H226 0.950 . S
C248 C247 1.372 . S
C248 C249 1.379 . S
C249 H227 0.948 . S
C249 C244 1.364 . S
C249 C248 1.379 . S
C250 C219 1.383 . S
C250 C237 1.479 . S
C250 C251 1.398 . S
C251 C216 1.382 . S
C251 H228 0.951 . S
C251 C250 1.398 . S
C252 C253 1.384 . S
C252 H265 0.947 . S
C252 C287 1.382 . S
C253 C252 1.384 . S
C253 C254 1.378 . S
C254 C253 1.378 . S
C254 C255 1.378 . S
C254 H266 0.952 . S
C255 C254 1.378 . S
C255 H267 0.950 . S
C255 C286 1.383 . S
H256 C275 0.947 . S
H257 C276 0.946 . S
H258 C278 0.953 . S
H259 C279 0.945 . S
H260 C281 0.952 . S
H261 C282 0.949 . S
H262 C284 0.950 . S
H263 C285 0.948 . S
H264 C287 0.951 . S
H265 C252 0.947 . S
H266 C254 0.952 . S
H267 C255 0.950 . S
N268 C271 1.382 . S
N268 C273 1.363 . S
N269 C271 1.371 . S
N269 C272 1.372 . S
N270 C272 1.361 . S
N270 C273 1.377 . S
C271 N268 1.382 . S
C271 N269 1.371 . S
C271 C274 1.480 . S
C272 N269 1.372 . S
C272 N270 1.361 . S
C272 C280 1.457 . S
C273 N268 1.363 . S
C273 N270 1.377 . S
C273 C286 1.479 . S
C274 C271 1.480 . S
C274 C275 1.383 . S
C274 C279 1.385 . S
C275 H256 0.947 . S
C275 C274 1.383 . S
C275 C276 1.388 . S
C276 H257 0.946 . S
C276 C275 1.388 . S
C276 C277 1.384 . S
C277 C276 1.384 . S
C277 C278 1.377 . S
C278 H258 0.953 . S
C278 C277 1.377 . S
C278 C279 1.369 . S
C279 H259 0.945 . S
C279 C274 1.385 . S
C279 C278 1.369 . S
C280 C272 1.457 . S
C280 C281 1.372 . S
C280 C285 1.364 . S
C281 H260 0.952 . S
C281 C280 1.372 . S
C281 C282 1.389 . S
C282 H261 0.949 . S
C282 C281 1.389 . S
C282 C283 1.387 . S
C283 C282 1.387 . S
C283 C284 1.372 . S
C284 H262 0.950 . S
C284 C283 1.372 . S
C284 C285 1.379 . S
C285 H263 0.948 . S
C285 C280 1.364 . S
C285 C284 1.379 . S
C286 C255 1.383 . S
C286 C273 1.479 . S
C286 C287 1.398 . S
C287 C252 1.382 . S
C287 H264 0.951 . S
C287 C286 1.398 . S
Tb288 O291 2.453 1_665 S
Tb288 O292 2.596 1_665 S
Tb288 O293 2.374 1_655 S
Tb288 O301 2.343 . S
Tb288 O303 2.353 1_565 S
Tb288 O305 2.427 . S
Tb288 O306 2.513 . S
C289 O293 1.251 . S
C289 O295 1.263 . S
Tb290 O292 2.343 . S
Tb290 O295 2.353 1_545 S
Tb290 O298 2.427 . S
Tb290 O299 2.513 . S
Tb290 O300 2.453 1_545 S
Tb290 O301 2.596 1_445 S
Tb290 O302 2.374 1_455 S
O291 Tb288 2.453 1_445 S
O291 C307 1.245 . S
O292 Tb288 2.596 1_445 S
O292 Tb290 2.343 . S
O292 C307 1.259 . S
O293 Tb288 2.374 1_455 S
O293 C289 1.251 . S
C294 O298 1.275 . S
C294 O299 1.246 . S
O295 C289 1.263 . S
O295 Tb290 2.353 1_565 S
C296 O300 1.245 1_655 S
C296 O301 1.259 . S
C297 O302 1.250 . S
C297 O303 1.263 . S
O298 Tb290 2.427 . S
O298 C294 1.275 . S
O299 Tb290 2.513 . S
O299 C294 1.246 . S
O300 Tb290 2.453 1_565 S
O300 C296 1.245 1_455 S
O301 Tb288 2.343 . S
O301 Tb290 2.596 1_665 S
O301 C296 1.259 . S
O302 Tb290 2.374 1_655 S
O302 C297 1.250 . S
O303 Tb288 2.353 1_545 S
O303 C297 1.263 . S
C304 O305 1.275 . S
C304 O306 1.246 . S
O305 Tb288 2.427 . S
O305 C304 1.275 . S
O306 Tb288 2.513 . S
O306 C304 1.246 . S
C307 O291 1.245 . S
C307 O292 1.259 . S
Tb308 O311 2.453 . S
Tb308 O312 2.596 1_545 S
Tb308 O313 2.374 . S
Tb308 O321 2.343 . S
Tb308 O323 2.353 . S
Tb308 O325 2.427 . S
Tb308 O326 2.513 . S
C309 O313 1.251 . S
C309 O315 1.263 1_545 S
Tb310 O312 2.343 . S
Tb310 O315 2.353 . S
Tb310 O318 2.427 . S
Tb310 O319 2.513 . S
Tb310 O320 2.453 . S
Tb310 O321 2.596 1_565 S
Tb310 O322 2.374 . S
O311 Tb308 2.453 . S
O311 C327 1.245 . S
O312 Tb308 2.596 1_565 S
O312 Tb310 2.343 . S
O312 C327 1.259 1_565 S
O313 Tb308 2.374 . S
O313 C309 1.251 . S
C314 O318 1.275 . S
C314 O319 1.246 . S
O315 C309 1.263 1_565 S
O315 Tb310 2.353 . S
C316 O320 1.245 . S
C316 O321 1.259 1_565 S
C317 O322 1.250 1_545 S
C317 O323 1.263 . S
O318 Tb310 2.427 . S
O318 C314 1.275 . S
O319 Tb310 2.513 . S
O319 C314 1.246 . S
O320 Tb310 2.453 . S
O320 C316 1.245 . S
O321 Tb308 2.343 . S
O321 Tb310 2.596 1_545 S
O321 C316 1.259 1_545 S
O322 Tb310 2.374 . S
O322 C317 1.250 1_565 S
O323 Tb308 2.353 . S
O323 C317 1.263 . S
C324 O325 1.275 . S
C324 O326 1.246 . S
O325 Tb308 2.427 . S
O325 C324 1.275 . S
O326 Tb308 2.513 . S
O326 C324 1.246 . S
C327 O311 1.245 . S
C327 O312 1.259 1_545 S
Tb328 O331 2.453 . S
Tb328 O332 2.596 . S
Tb328 O333 2.374 . S
Tb328 O341 2.343 . S
Tb328 O343 2.353 . S
Tb328 O345 2.427 . S
Tb328 O346 2.513 . S
C329 O333 1.251 . S
C329 O335 1.263 . S
Tb330 O332 2.343 . S
Tb330 O335 2.353 . S
Tb330 O338 2.427 . S
Tb330 O339 2.513 . S
Tb330 O340 2.453 . S
Tb330 O341 2.596 . S
Tb330 O342 2.374 . S
O331 Tb328 2.453 . S
O331 C347 1.245 . S
O332 Tb328 2.596 . S
O332 Tb330 2.343 . S
O332 C347 1.259 . S
O333 Tb328 2.374 . S
O333 C329 1.251 . S
C334 O338 1.275 . S
C334 O339 1.246 . S
O335 C329 1.263 . S
O335 Tb330 2.353 . S
C336 O340 1.245 . S
C336 O341 1.259 . S
C337 O342 1.250 . S
C337 O343 1.263 . S
O338 Tb330 2.427 . S
O338 C334 1.275 . S
O339 Tb330 2.513 . S
O339 C334 1.246 . S
O340 Tb330 2.453 . S
O340 C336 1.245 . S
O341 Tb328 2.343 . S
O341 Tb330 2.596 . S
O341 C336 1.259 . S
O342 Tb330 2.374 . S
O342 C337 1.250 . S
O343 Tb328 2.353 . S
O343 C337 1.263 . S
C344 O345 1.275 . S
C344 O346 1.246 . S
O345 Tb328 2.427 . S
O345 C344 1.275 . S
O346 Tb328 2.513 . S
O346 C344 1.246 . S
C347 O331 1.245 . S
C347 O332 1.259 . S
Tb348 O351 2.453 1_655 S
Tb348 O352 2.596 1_655 S
Tb348 O353 2.374 1_655 S
Tb348 O361 2.343 . S
Tb348 O363 2.353 . S
Tb348 O365 2.427 . S
Tb348 O366 2.513 . S
C349 O353 1.251 . S
C349 O355 1.263 . S
Tb350 O352 2.343 . S
Tb350 O355 2.353 . S
Tb350 O358 2.427 . S
Tb350 O359 2.513 . S
Tb350 O360 2.453 1_455 S
Tb350 O361 2.596 1_455 S
Tb350 O362 2.374 . S
O351 Tb348 2.453 1_455 S
O351 C367 1.245 . S
O352 Tb348 2.596 1_455 S
O352 Tb350 2.343 . S
O352 C367 1.259 . S
O353 Tb348 2.374 1_455 S
O353 C349 1.251 . S
C354 O358 1.275 . S
C354 O359 1.246 . S
O355 C349 1.263 . S
O355 Tb350 2.353 . S
C356 O360 1.245 . S
C356 O361 1.259 . S
C357 O362 1.250 1_655 S
C357 O363 1.263 . S
O358 Tb350 2.427 . S
O358 C354 1.275 . S
O359 Tb350 2.513 . S
O359 C354 1.246 . S
O360 Tb350 2.453 1_655 S
O360 C356 1.245 . S
O361 Tb348 2.343 . S
O361 Tb350 2.596 1_655 S
O361 C356 1.259 . S
O362 Tb350 2.374 . S
O362 C357 1.250 1_455 S
O363 Tb348 2.353 . S
O363 C357 1.263 . S
C364 O365 1.275 . S
C364 O366 1.246 . S
O365 Tb348 2.427 . S
O365 C364 1.275 . S
O366 Tb348 2.513 . S
O366 C364 1.246 . S
C367 O351 1.245 . S
C367 O352 1.259 . S
H368 C374 0.930 . S
H369 C378 0.930 . S
H370 C383 0.929 . S
H371 C381 0.929 . S
H372 C376 0.929 . S
H373 C382 0.929 . S
C374 H368 0.930 . S
C374 C375 1.367 . S
C374 C382 1.378 . S
C375 C374 1.367 . S
C375 C383 1.433 1_545 S
C376 H372 0.929 . S
C376 C378 1.378 . S
C376 C380 1.339 1_565 S
C377 C380 1.463 . S
C377 C382 1.350 . S
C377 N385 1.427 1_545 S
C378 H369 0.930 . S
C378 C376 1.378 . S
C378 C379 1.367 . S
C379 C378 1.367 . S
C379 C381 1.433 1_565 S
C380 C376 1.339 1_545 S
C380 C377 1.463 . S
C380 N384 1.438 . S
C381 H371 0.929 . S
C381 C379 1.433 1_545 S
C381 N384 1.384 . S
C382 H373 0.929 . S
C382 C374 1.378 . S
C382 C377 1.350 . S
C383 H370 0.929 . S
C383 C375 1.433 1_565 S
C383 N385 1.384 . S
N384 C380 1.438 . S
N384 C381 1.384 . S
N385 C377 1.427 1_565 S
N385 C383 1.384 . S
H386 C392 0.930 . S
H387 C396 0.930 . S
H388 C401 0.929 . S
H389 C399 0.929 . S
H390 C394 0.929 . S
H391 C400 0.929 . S
C392 H386 0.930 . S
C392 C393 1.367 . S
C392 C400 1.378 . S
C393 C392 1.367 . S
C393 C401 1.433 . S
C394 H390 0.929 . S
C394 C396 1.378 . S
C394 C398 1.350 . S
C395 C398 1.463 . S
C395 C400 1.350 . S
C395 N403 1.427 . S
C396 H387 0.930 . S
C396 C394 1.378 . S
C396 C397 1.367 . S
C397 C396 1.367 . S
C397 C399 1.433 . S
C398 C394 1.350 . S
C398 C395 1.463 . S
C398 N402 1.427 . S
C399 H389 0.929 . S
C399 C397 1.433 . S
C399 N402 1.384 . S
C400 H391 0.929 . S
C400 C392 1.378 . S
C400 C395 1.350 . S
C401 H388 0.929 . S
C401 C393 1.433 . S
C401 N403 1.384 . S
N402 C398 1.427 . S
N402 C399 1.384 . S
N403 C395 1.427 . S
N403 C401 1.384 . S
H404 C410 0.930 . S
H405 C414 0.930 . S
H406 C419 0.929 . S
H407 C417 0.929 . S
H408 C412 0.929 . S
H409 C418 0.929 . S
C410 H404 0.930 . S
C410 C411 1.367 . S
C410 C418 1.378 . S
C411 C410 1.367 . S
C411 C419 1.433 . S
C412 H408 0.929 . S
C412 C414 1.378 . S
C412 C416 1.350 . S
C413 C416 1.463 . S
C413 C418 1.350 . S
C413 N421 1.427 . S
C414 H405 0.930 . S
C414 C412 1.378 . S
C414 C415 1.367 . S
C415 C414 1.367 . S
C415 C417 1.433 . S
C416 C412 1.350 . S
C416 C413 1.463 . S
C416 N420 1.427 . S
C417 H407 0.929 . S
C417 C415 1.433 . S
C417 N420 1.384 . S
C418 H409 0.929 . S
C418 C410 1.378 . S
C418 C413 1.350 . S
C419 H406 0.929 . S
C419 C411 1.433 . S
C419 N421 1.384 . S
N420 C416 1.427 . S
N420 C417 1.384 . S
N421 C413 1.427 . S
N421 C419 1.384 . S
H422 C428 0.930 . S
H423 C432 0.930 . S
H424 C437 0.929 . S
H425 C435 0.929 . S
H426 C430 0.929 . S
H427 C436 0.929 . S
C428 H422 0.930 . S
C428 C429 1.367 . S
C428 C436 1.378 . S
C429 C428 1.367 . S
C429 C437 1.433 . S
C430 H426 0.929 . S
C430 C432 1.378 . S
C430 C434 1.350 . S
C431 C434 1.463 . S
C431 C436 1.350 . S
C431 N439 1.427 . S
C432 H423 0.930 . S
C432 C430 1.378 . S
C432 C433 1.367 . S
C433 C432 1.367 . S
C433 C435 1.433 . S
C434 C430 1.350 . S
C434 C431 1.463 . S
C434 N438 1.427 . S
C435 H425 0.929 . S
C435 C433 1.433 . S
C435 N438 1.384 . S
C436 H427 0.929 . S
C436 C428 1.378 . S
C436 C431 1.350 . S
C437 H424 0.929 . S
C437 C429 1.433 . S
C437 N439 1.384 . S
N438 C434 1.427 . S
N438 C435 1.384 . S
N439 C431 1.427 . S
N439 C437 1.384 . S
H440 C446 0.930 . S
H441 C450 0.927 1_565 S
H442 C455 0.929 . S
H443 C453 0.929 . S
H444 C448 0.931 . S
H445 C454 0.929 . S
C446 H440 0.930 . S
C446 C447 1.372 . S
C446 C454 1.378 1_554 S
C447 C446 1.372 . S
C447 C455 1.429 1_544 S
C448 H444 0.931 . S
C448 C450 1.379 1_565 S
C448 C452 1.348 1_565 S
C449 C452 1.463 . S
C449 C454 1.350 . S
C449 N457 1.427 1_545 S
C450 H441 0.927 1_545 S
C450 C448 1.379 1_545 S
C450 C451 1.371 . S
C451 C450 1.371 . S
C451 C453 1.433 . S
C452 C448 1.348 1_545 S
C452 C449 1.463 . S
C452 N456 1.427 . S
C453 H443 0.929 . S
C453 C451 1.433 . S
C453 N456 1.384 . S
C454 H445 0.929 . S
C454 C446 1.378 1_556 S
C454 C449 1.350 . S
C455 H442 0.929 . S
C455 C447 1.429 1_566 S
C455 N457 1.384 . S
N456 C452 1.427 . S
N456 C453 1.384 . S
N457 C449 1.427 1_565 S
N457 C455 1.384 . S
H458 C464 0.930 . S
H459 C468 0.930 . S
H460 C473 0.929 . S
H461 C471 0.929 . S
H462 C466 0.929 . S
H463 C472 0.929 . S
C464 H458 0.930 . S
C464 C465 1.367 . S
C464 C472 1.378 . S
C465 C464 1.367 . S
C465 C473 1.433 . S
C466 H462 0.929 . S
C466 C468 1.378 . S
C466 C470 1.350 . S
C467 C470 1.463 . S
C467 C472 1.350 . S
C467 N475 1.427 . S
C468 H459 0.930 . S
C468 C466 1.378 . S
C468 C469 1.367 . S
C469 C468 1.367 . S
C469 C471 1.433 . S
C470 C466 1.350 . S
C470 C467 1.463 . S
C470 N474 1.427 . S
C471 H461 0.929 . S
C471 C469 1.433 . S
C471 N474 1.384 . S
C472 H463 0.929 . S
C472 C464 1.378 . S
C472 C467 1.350 . S
C473 H460 0.929 . S
C473 C465 1.433 . S
C473 N475 1.384 . S
N474 C470 1.427 . S
N474 C471 1.384 . S
N475 C467 1.427 . S
N475 C473 1.384 . S
H476 C482 0.930 . S
H477 C486 0.930 . S
H478 C491 0.929 . S
H479 C489 0.929 . S
H480 C484 0.929 . S
H481 C490 0.929 . S
C482 H476 0.930 . S
C482 C483 1.367 . S
C482 C490 1.378 . S
C483 C482 1.367 . S
C483 C491 1.433 . S
C484 H480 0.929 . S
C484 C486 1.378 . S
C484 C488 1.350 . S
C485 C488 1.463 . S
C485 C490 1.350 . S
C485 N493 1.427 . S
C486 H477 0.930 . S
C486 C484 1.378 . S
C486 C487 1.367 . S
C487 C486 1.367 . S
C487 C489 1.433 . S
C488 C484 1.350 . S
C488 C485 1.463 . S
C488 N492 1.427 . S
C489 H479 0.929 . S
C489 C487 1.433 . S
C489 N492 1.384 . S
C490 H481 0.929 . S
C490 C482 1.378 . S
C490 C485 1.350 . S
C491 H478 0.929 . S
C491 C483 1.433 . S
C491 N493 1.384 . S
N492 C488 1.427 . S
N492 C489 1.384 . S
N493 C485 1.427 . S
N493 C491 1.384 . S
H494 C500 0.930 1_554 S
H495 C504 0.930 . S
H496 C509 0.929 . S
H497 C507 0.929 . S
H498 C502 0.929 . S
H499 C508 0.929 . S
C500 H494 0.930 1_556 S
C500 C501 1.367 . S
C500 C508 1.378 . S
C501 C500 1.367 . S
C501 C509 1.433 . S
C502 H498 0.929 . S
C502 C504 1.378 . S
C502 C506 1.350 . S
C503 C506 1.463 . S
C503 C508 1.350 . S
C503 N511 1.427 . S
C504 H495 0.930 . S
C504 C502 1.378 . S
C504 C505 1.367 . S
C505 C504 1.367 . S
C505 C507 1.433 . S
C506 C502 1.350 . S
C506 C503 1.463 . S
C506 N510 1.427 . S
C507 H497 0.929 . S
C507 C505 1.433 . S
C507 N510 1.384 . S
C508 H499 0.929 . S
C508 C500 1.378 . S
C508 C503 1.350 . S
C509 H496 0.929 . S
C509 C501 1.433 . S
C509 N511 1.384 . S
N510 C506 1.427 . S
N510 C507 1.384 . S
N511 C503 1.427 . S
N511 C509 1.384 . S
H512 C518 0.930 . S
H513 C522 0.930 . S
H514 C527 0.929 . S
H515 C525 0.929 . S
H516 C520 0.929 . S
H517 C526 0.929 . S
C518 H512 0.930 . S
C518 C519 1.367 . S
C518 C526 1.378 . S
C519 C518 1.367 . S
C519 C527 1.433 . S
C520 H516 0.929 . S
C520 C522 1.378 . S
C520 C524 1.350 . S
C521 C524 1.463 . S
C521 C526 1.350 . S
C521 N529 1.427 . S
C522 H513 0.930 . S
C522 C520 1.378 . S
C522 C523 1.367 . S
C523 C522 1.367 . S
C523 C525 1.433 . S
C524 C520 1.350 . S
C524 C521 1.463 . S
C524 N528 1.427 . S
C525 H515 0.929 . S
C525 C523 1.433 . S
C525 N528 1.384 . S
C526 H517 0.929 . S
C526 C518 1.378 . S
C526 C521 1.350 . S
C527 H514 0.929 . S
C527 C519 1.433 . S
C527 N529 1.384 . S
N528 C524 1.427 . S
N528 C525 1.384 . S
N529 C521 1.427 . S
N529 C527 1.384 . S
H530 C536 0.930 . S
H531 C540 0.930 . S
H532 C545 0.928 1_565 S
H533 C543 0.929 . S
H534 C538 0.929 . S
H535 C544 0.929 . S
C536 H530 0.930 . S
C536 C537 1.367 . S
C536 C544 1.378 . S
C537 C536 1.367 . S
C537 C545 1.437 . S
C538 H534 0.929 . S
C538 C540 1.378 . S
C538 C542 1.350 1_565 S
C539 C542 1.463 . S
C539 C544 1.350 . S
C539 N547 1.425 1_545 S
C540 H531 0.930 . S
C540 C538 1.378 . S
C540 C541 1.367 1_565 S
C541 C540 1.367 1_545 S
C541 C543 1.433 . S
C542 C538 1.350 1_545 S
C542 C539 1.463 . S
C542 N546 1.427 . S
C543 H533 0.929 . S
C543 C541 1.433 . S
C543 N546 1.384 . S
C544 H535 0.929 . S
C544 C536 1.378 . S
C544 C539 1.350 . S
C545 H532 0.928 1_545 S
C545 C537 1.437 . S
C545 N547 1.378 1_545 S
N546 C542 1.427 . S
N546 C543 1.384 . S
N547 C539 1.425 1_565 S
N547 C545 1.378 1_565 S
H548 C554 0.930 . S
H549 C558 0.930 . S
H550 C563 0.929 . S
H551 C561 0.929 . S
H552 C556 0.929 . S
H553 C562 0.929 . S
C554 H548 0.930 . S
C554 C555 1.367 . S
C554 C562 1.378 . S
C555 C554 1.367 . S
C555 C563 1.433 . S
C556 H552 0.929 . S
C556 C558 1.378 . S
C556 C560 1.350 . S
C557 C560 1.463 . S
C557 C562 1.350 . S
C557 N565 1.427 . S
C558 H549 0.930 . S
C558 C556 1.378 . S
C558 C559 1.367 . S
C559 C558 1.367 . S
C559 C561 1.433 . S
C560 C556 1.350 . S
C560 C557 1.463 . S
C560 N564 1.427 . S
C561 H551 0.929 . S
C561 C559 1.433 . S
C561 N564 1.384 . S
C562 H553 0.929 . S
C562 C554 1.378 . S
C562 C557 1.350 . S
C563 H550 0.929 . S
C563 C555 1.433 . S
C563 N565 1.384 . S
N564 C560 1.427 . S
N564 C561 1.384 . S
N565 C557 1.427 . S
N565 C563 1.384 . S
H566 C572 0.930 . S
H567 C576 0.930 . S
H568 C581 0.929 . S
H569 C579 0.929 . S
H570 C574 0.929 . S
H571 C580 0.929 . S
C572 H566 0.930 . S
C572 C573 1.367 . S
C572 C580 1.378 . S
C573 C572 1.367 . S
C573 C581 1.433 . S
C574 H570 0.929 . S
C574 C576 1.378 . S
C574 C578 1.350 . S
C575 C578 1.463 . S
C575 C580 1.350 . S
C575 N583 1.427 . S
C576 H567 0.930 . S
C576 C574 1.378 . S
C576 C577 1.367 . S
C577 C576 1.367 . S
C577 C579 1.433 . S
C578 C574 1.350 . S
C578 C575 1.463 . S
C578 N582 1.427 . S
C579 H569 0.929 . S
C579 C577 1.433 . S
C579 N582 1.384 . S
C580 H571 0.929 . S
C580 C572 1.378 . S
C580 C575 1.350 . S
C581 H568 0.929 . S
C581 C573 1.433 . S
C581 N583 1.384 . S
N582 C578 1.427 . S
N582 C579 1.384 . S
N583 C575 1.427 . S
N583 C581 1.384 . S
H584 C590 0.930 . S
H585 C594 0.930 . S
H586 C599 0.929 . S
H587 C597 0.929 . S
H588 C592 0.929 . S
H589 C598 0.929 . S
C590 H584 0.930 . S
C590 C591 1.367 . S
C590 C598 1.378 . S
C591 C590 1.367 . S
C591 C599 1.433 . S
C592 H588 0.929 . S
C592 C594 1.378 . S
C592 C596 1.350 . S
C593 C596 1.463 . S
C593 C598 1.350 . S
C593 N601 1.427 . S
C594 H585 0.930 . S
C594 C592 1.378 . S
C594 C595 1.367 . S
C595 C594 1.367 . S
C595 C597 1.433 . S
C596 C592 1.350 . S
C596 C593 1.463 . S
C596 N600 1.427 . S
C597 H587 0.929 . S
C597 C595 1.433 . S
C597 N600 1.384 . S
C598 H589 0.929 . S
C598 C590 1.378 . S
C598 C593 1.350 . S
C599 H586 0.929 . S
C599 C591 1.433 . S
C599 N601 1.384 . S
N600 C596 1.427 . S
N600 C597 1.384 . S
N601 C593 1.427 . S
N601 C599 1.384 . S
H602 C608 0.930 . S
H603 C612 0.930 . S
H604 C617 0.929 . S
H605 C615 0.929 . S
H606 C610 0.929 . S
H607 C616 0.929 . S
C608 H602 0.930 . S
C608 C609 1.378 . S
C608 C616 1.378 . S
C609 C608 1.378 . S
C609 C617 1.419 1_565 S
C610 H606 0.929 . S
C610 C612 1.378 . S
C610 C614 1.350 . S
C611 C614 1.463 . S
C611 C616 1.350 1_545 S
C611 N619 1.427 . S
C612 H603 0.930 . S
C612 C610 1.378 . S
C612 C613 1.367 . S
C613 C612 1.367 . S
C613 C615 1.433 1_545 S
C614 C610 1.350 . S
C614 C611 1.463 . S
C614 N618 1.427 1_545 S
C615 H605 0.929 . S
C615 C613 1.433 1_565 S
C615 N618 1.384 . S
C616 H607 0.929 . S
C616 C608 1.378 . S
C616 C611 1.350 1_565 S
C617 H604 0.929 . S
C617 C609 1.419 1_545 S
C617 N619 1.384 . S
N618 C614 1.427 1_565 S
N618 C615 1.384 . S
N619 C611 1.427 . S
N619 C617 1.384 . S
H620 C626 0.930 . S
H621 C630 0.930 . S
H622 C635 0.929 . S
H623 C633 0.929 . S
H624 C628 0.929 . S
H625 C634 0.929 . S
C626 H620 0.930 . S
C626 C627 1.367 . S
C626 C634 1.378 . S
C627 C626 1.367 . S
C627 C635 1.433 . S
C628 H624 0.929 . S
C628 C630 1.378 . S
C628 C632 1.350 . S
C629 C632 1.463 . S
C629 C634 1.350 . S
C629 N637 1.427 . S
C630 H621 0.930 . S
C630 C628 1.378 . S
C630 C631 1.367 . S
C631 C630 1.367 . S
C631 C633 1.433 . S
C632 C628 1.350 . S
C632 C629 1.463 . S
C632 N636 1.427 . S
C633 H623 0.929 . S
C633 C631 1.433 . S
C633 N636 1.384 . S
C634 H625 0.929 . S
C634 C626 1.378 . S
C634 C629 1.350 . S
C635 H622 0.929 . S
C635 C627 1.433 . S
C635 N637 1.384 . S
N636 C632 1.427 . S
N636 C633 1.384 . S
N637 C629 1.427 . S
N637 C635 1.384 . S
H638 C644 0.930 . S
H639 C648 0.930 . S
H640 C653 0.929 . S
H641 C651 0.929 . S
H642 C646 0.929 . S
H643 C652 0.929 . S
C644 H638 0.930 . S
C644 C645 1.367 . S
C644 C652 1.378 . S
C645 C644 1.367 . S
C645 C653 1.433 . S
C646 H642 0.929 . S
C646 C648 1.378 . S
C646 C650 1.350 . S
C647 C650 1.463 . S
C647 C652 1.350 . S
C647 N655 1.427 . S
C648 H639 0.930 . S
C648 C646 1.378 . S
C648 C649 1.367 . S
C649 C648 1.367 . S
C649 C651 1.433 . S
C650 C646 1.350 . S
C650 C647 1.463 . S
C650 N654 1.427 . S
C651 H641 0.929 . S
C651 C649 1.433 . S
C651 N654 1.384 . S
C652 H643 0.929 . S
C652 C644 1.378 . S
C652 C647 1.350 . S
C653 H640 0.929 . S
C653 C645 1.433 . S
C653 N655 1.384 . S
N654 C650 1.427 . S
N654 C651 1.384 . S
N655 C647 1.427 . S
N655 C653 1.384 . S
H656 C662 0.930 . S
H657 C666 0.930 . S
H658 C671 0.929 . S
H659 C669 0.929 . S
H660 C664 0.929 . S
H661 C670 0.929 . S
C662 H656 0.930 . S
C662 C663 1.367 . S
C662 C670 1.378 . S
C663 C662 1.367 . S
C663 C671 1.433 1_554 S
C664 H660 0.929 . S
C664 C666 1.378 . S
C664 C668 1.350 . S
C665 C668 1.463 . S
C665 C670 1.350 1_556 S
C665 N673 1.427 . S
C666 H657 0.930 . S
C666 C664 1.378 . S
C666 C667 1.367 . S
C667 C666 1.367 . S
C667 C669 1.433 . S
C668 C664 1.350 . S
C668 C665 1.463 . S
C668 N672 1.427 . S
C669 H659 0.929 . S
C669 C667 1.433 . S
C669 N672 1.384 . S
C670 H661 0.929 . S
C670 C662 1.378 . S
C670 C665 1.350 1_554 S
C671 H658 0.929 . S
C671 C663 1.433 1_556 S
C671 N673 1.384 . S
N672 C668 1.427 . S
N672 C669 1.384 . S
N673 C665 1.427 . S
N673 C671 1.384 . S
H674 C680 0.924 1_554 S
H675 C684 0.930 . S
H676 C689 0.929 . S
H677 C687 0.929 . S
H678 C682 0.929 . S
H679 C688 0.929 . S
C680 H674 0.924 1_556 S
C680 C681 1.371 . S
C680 C688 1.380 . S
C681 C680 1.371 . S
C681 C689 1.433 1_545 S
C682 H678 0.929 . S
C682 C684 1.378 . S
C682 C686 1.350 1_565 S
C683 C686 1.463 . S
C683 C688 1.350 . S
C683 N691 1.427 1_545 S
C684 H675 0.930 . S
C684 C682 1.378 . S
C684 C685 1.367 1_565 S
C685 C684 1.367 1_545 S
C685 C687 1.433 . S
C686 C682 1.350 1_545 S
C686 C683 1.463 . S
C686 N690 1.427 . S
C687 H677 0.929 . S
C687 C685 1.433 . S
C687 N690 1.384 . S
C688 H679 0.929 . S
C688 C680 1.380 . S
C688 C683 1.350 . S
C689 H676 0.929 . S
C689 C681 1.433 1_565 S
C689 N691 1.384 . S
N690 C686 1.427 . S
N690 C687 1.384 . S
N691 C683 1.427 1_565 S
N691 C689 1.384 . S
H692 C698 0.930 . S
H693 C702 0.930 . S
H694 C707 0.929 1_554 S
H695 C705 0.929 . S
H696 C700 0.929 . S
H697 C706 0.929 . S
C698 H692 0.930 . S
C698 C699 1.367 . S
C698 C706 1.378 . S
C699 C698 1.367 . S
C699 C707 1.433 . S
C700 H696 0.929 . S
C700 C702 1.378 . S
C700 C704 1.350 . S
C701 C704 1.463 . S
C701 C706 1.350 . S
C701 N709 1.427 . S
C702 H693 0.930 . S
C702 C700 1.378 . S
C702 C703 1.367 . S
C703 C702 1.367 . S
C703 C705 1.433 . S
C704 C700 1.350 . S
C704 C701 1.463 . S
C704 N708 1.427 . S
C705 H695 0.929 . S
C705 C703 1.433 . S
C705 N708 1.384 . S
C706 H697 0.929 . S
C706 C698 1.378 . S
C706 C701 1.350 . S
C707 H694 0.929 1_556 S
C707 C699 1.433 . S
C707 N709 1.384 . S
N708 C704 1.427 . S
N708 C705 1.384 . S
N709 C701 1.427 . S
N709 C707 1.384 . S
H710 C716 0.930 . S
H711 C720 0.930 . S
H712 C725 0.929 . S
H713 C723 0.929 . S
H714 C718 0.929 . S
H715 C724 0.929 . S
C716 H710 0.930 . S
C716 C717 1.367 1_554 S
C716 C724 1.378 . S
C717 C716 1.367 1_556 S
C717 C725 1.433 . S
C718 H714 0.929 . S
C718 C720 1.378 . S
C718 C722 1.350 . S
C719 C722 1.463 . S
C719 C724 1.350 1_556 S
C719 N727 1.427 . S
C720 H711 0.930 . S
C720 C718 1.378 . S
C720 C721 1.367 . S
C721 C720 1.367 . S
C721 C723 1.433 . S
C722 C718 1.350 . S
C722 C719 1.463 . S
C722 N726 1.427 . S
C723 H713 0.929 . S
C723 C721 1.433 . S
C723 N726 1.384 . S
C724 H715 0.929 . S
C724 C716 1.378 . S
C724 C719 1.350 1_554 S
C725 H712 0.929 . S
C725 C717 1.433 . S
C725 N727 1.384 . S
N726 C722 1.427 . S
N726 C723 1.384 . S
N727 C719 1.427 . S
N727 C725 1.384 . S
H728 C734 0.930 . S
H729 C738 0.930 . S
H730 C743 0.929 . S
H731 C741 0.929 . S
H732 C736 0.929 . S
H733 C742 0.929 . S
C734 H728 0.930 . S
C734 C735 1.367 . S
C734 C742 1.378 . S
C735 C734 1.367 . S
C735 C743 1.433 . S
C736 H732 0.929 . S
C736 C738 1.378 . S
C736 C740 1.350 . S
C737 C740 1.463 . S
C737 C742 1.350 . S
C737 N745 1.427 . S
C738 H729 0.930 . S
C738 C736 1.378 . S
C738 C739 1.367 . S
C739 C738 1.367 . S
C739 C741 1.433 . S
C740 C736 1.350 . S
C740 C737 1.463 . S
C740 N744 1.427 . S
C741 H731 0.929 . S
C741 C739 1.433 . S
C741 N744 1.384 . S
C742 H733 0.929 . S
C742 C734 1.378 . S
C742 C737 1.350 . S
C743 H730 0.929 . S
C743 C735 1.433 . S
C743 N745 1.384 . S
N744 C740 1.427 . S
N744 C741 1.384 . S
N745 C737 1.427 . S
N745 C743 1.384 . S
H746 C752 0.930 . S
H747 C756 0.930 . S
H748 C761 0.929 . S
H749 C759 0.929 . S
H750 C754 0.929 . S
H751 C760 0.929 . S
C752 H746 0.930 . S
C752 C753 1.380 . S
C752 C760 1.378 . S
C753 C752 1.380 . S
C753 C761 1.418 1_565 S
C754 H750 0.929 . S
C754 C756 1.378 . S
C754 C758 1.350 . S
C755 C758 1.460 1_565 S
C755 C760 1.365 . S
C755 N763 1.413 1_565 S
C756 H747 0.930 . S
C756 C754 1.378 . S
C756 C757 1.367 . S
C757 C756 1.367 . S
C757 C759 1.433 1_545 S
C758 C754 1.350 . S
C758 C755 1.460 1_545 S
C758 N762 1.427 1_545 S
C759 H749 0.929 . S
C759 C757 1.433 1_565 S
C759 N762 1.384 . S
C760 H751 0.929 . S
C760 C752 1.378 . S
C760 C755 1.365 . S
C761 H748 0.929 . S
C761 C753 1.418 1_545 S
C761 N763 1.384 . S
N762 C758 1.427 1_565 S
N762 C759 1.384 . S
N763 C755 1.413 1_545 S
N763 C761 1.384 . S
H764 C770 0.930 . S
H765 C774 0.930 . S
H766 C779 0.929 . S
H767 C777 0.929 . S
H768 C772 0.929 . S
H769 C778 0.929 . S
C770 H764 0.930 . S
C770 C771 1.367 . S
C770 C778 1.378 . S
C771 C770 1.367 . S
C771 C779 1.433 . S
C772 H768 0.929 . S
C772 C774 1.378 . S
C772 C776 1.350 . S
C773 C776 1.463 . S
C773 C778 1.350 . S
C773 N781 1.427 . S
C774 H765 0.930 . S
C774 C772 1.378 . S
C774 C775 1.367 . S
C775 C774 1.367 . S
C775 C777 1.433 . S
C776 C772 1.350 . S
C776 C773 1.463 . S
C776 N780 1.427 . S
C777 H767 0.929 . S
C777 C775 1.433 . S
C777 N780 1.384 . S
C778 H769 0.929 . S
C778 C770 1.378 . S
C778 C773 1.350 . S
C779 H766 0.929 . S
C779 C771 1.433 . S
C779 N781 1.384 . S
N780 C776 1.427 . S
N780 C777 1.384 . S
N781 C773 1.427 . S
N781 C779 1.384 . S
H782 C788 0.930 . S
H783 C792 0.930 . S
H784 C797 0.929 . S
H785 C795 0.929 . S
H786 C790 0.929 . S
H787 C796 0.929 . S
C788 H782 0.930 . S
C788 C789 1.367 . S
C788 C796 1.378 . S
C789 C788 1.367 . S
C789 C797 1.433 . S
C790 H786 0.929 . S
C790 C792 1.378 . S
C790 C794 1.350 . S
C791 C794 1.463 . S
C791 C796 1.350 . S
C791 N799 1.427 . S
C792 H783 0.930 . S
C792 C790 1.378 . S
C792 C793 1.367 . S
C793 C792 1.367 . S
C793 C795 1.433 . S
C794 C790 1.350 . S
C794 C791 1.463 . S
C794 N798 1.427 . S
C795 H785 0.929 . S
C795 C793 1.433 . S
C795 N798 1.384 . S
C796 H787 0.929 . S
C796 C788 1.378 . S
C796 C791 1.350 . S
C797 H784 0.929 . S
C797 C789 1.433 . S
C797 N799 1.384 . S
N798 C794 1.427 . S
N798 C795 1.384 . S
N799 C791 1.427 . S
N799 C797 1.384 . S
C375 C241 1.507 . S
C379 C289 1.541 . S
C397 C324 2.244 . S
C393 C277 2.045 . S
C415 C329 1.415 . S
C411 C169 1.371 . S
C433 C349 1.950 . S
C429 C205 1.867 . S
C451 C297 1.545 . S
C447 C97 1.509 . S
C465 C133 2.138 1_556 S
C469 C314 2.245 . S
C483 C25 1.409 . S
C487 C337 1.413 . S
C501 C61 1.774 . S
C505 C357 1.949 . S
C523 C307 1.507 . S
C519 C211 1.391 . S
C541 C316 0.673 1_545 S
C537 C247 0.664 . S
C559 C347 1.645 . S
C555 C253 1.470 . S
C573 C175 0.896 . S
C577 C367 0.896 . S
C591 C67 1.324 . S
C595 C296 1.501 . S
C613 C327 0.665 . S
C609 C103 0.673 1_565 S
C631 C336 1.640 . S
C627 C109 1.546 . S
C645 C31 0.904 . S
C649 C356 0.893 . S
C663 C181 2.100 . S
C667 C294 2.221 . S
C681 C217 1.740 1_556 S
C685 C317 1.888 . S
C703 C334 2.375 . S
C699 C283 2.104 1_556 S
C721 C354 2.088 . S
C717 C145 1.936 1_556 S
C735 C37 2.058 . S
C739 C304 2.219 . S
C757 C309 1.889 . S
C753 C73 1.752 1_565 S
C775 C344 2.376 . S
C771 C139 2.180 . S
C789 C1 1.972 . S
C793 C364 2.085 . S
