# Generated by pormake.
# Topology ptr, (4,4)-cn, num edge types: 1
# Building blocks:
#     Node 0, Type 0, BuildingBlock: TATPOV_clean_sbu_0, # of connection points: 4
#     Node 1, Type 0, BuildingBlock: TATPOV_clean_sbu_0, # of connection points: 4
#     Node 2, Type 0, BuildingBlock: TATPOV_clean_sbu_0, # of connection points: 4
#     Node 3, Type 0, BuildingBlock: TATPOV_clean_sbu_0, # of connection points: 4
#     Node 4, Type 0, BuildingBlock: TATPOV_clean_sbu_0, # of connection points: 4
#     Node 5, Type 0, BuildingBlock: TATPOV_clean_sbu_0, # of connection points: 4
#     Node 6, Type 0, BuildingBlock: TATPOV_clean_sbu_0, # of connection points: 4
#     Node 7, Type 0, BuildingBlock: TATPOV_clean_sbu_0, # of connection points: 4
#     Node 8, Type 0, BuildingBlock: TATPOV_clean_sbu_0, # of connection points: 4
#     Node 9, Type 0, BuildingBlock: TATPOV_clean_sbu_0, # of connection points: 4
#     Node 10, Type 0, BuildingBlock: TATPOV_clean_sbu_0, # of connection points: 4
#     Node 11, Type 0, BuildingBlock: TATPOV_clean_sbu_0, # of connection points: 4
#     Node 12, Type 0, BuildingBlock: TATPOV_clean_sbu_0, # of connection points: 4
#     Node 13, Type 0, BuildingBlock: TATPOV_clean_sbu_0, # of connection points: 4
#     Node 14, Type 0, BuildingBlock: TATPOV_clean_sbu_0, # of connection points: 4
#     Node 15, Type 0, BuildingBlock: TATPOV_clean_sbu_0, # of connection points: 4
#     Node 16, Type 0, BuildingBlock: TATPOV_clean_sbu_0, # of connection points: 4
#     Node 17, Type 0, BuildingBlock: TATPOV_clean_sbu_0, # of connection points: 4
#     Node 18, Type 1, BuildingBlock: AZAVOO_clean_linker_0, # of connection points: 4
#     Node 19, Type 1, BuildingBlock: AZAVOO_clean_linker_0, # of connection points: 4
#     Node 20, Type 1, BuildingBlock: AZAVOO_clean_linker_0, # of connection points: 4
#     Node 21, Type 1, BuildingBlock: AZAVOO_clean_linker_0, # of connection points: 4
#     Node 22, Type 1, BuildingBlock: AZAVOO_clean_linker_0, # of connection points: 4
#     Node 23, Type 1, BuildingBlock: AZAVOO_clean_linker_0, # of connection points: 4
#     Node 24, Type 1, BuildingBlock: AZAVOO_clean_linker_0, # of connection points: 4
#     Node 25, Type 1, BuildingBlock: AZAVOO_clean_linker_0, # of connection points: 4
#     Node 26, Type 1, BuildingBlock: AZAVOO_clean_linker_0, # of connection points: 4
#     Node 27, Type 1, BuildingBlock: AZAVOO_clean_linker_0, # of connection points: 4
#     Node 28, Type 1, BuildingBlock: AZAVOO_clean_linker_0, # of connection points: 4
#     Node 29, Type 1, BuildingBlock: AZAVOO_clean_linker_0, # of connection points: 4
#     Node 30, Type 1, BuildingBlock: AZAVOO_clean_linker_0, # of connection points: 4
#     Node 31, Type 1, BuildingBlock: AZAVOO_clean_linker_0, # of connection points: 4
#     Node 32, Type 1, BuildingBlock: AZAVOO_clean_linker_0, # of connection points: 4
#     Node 33, Type 1, BuildingBlock: AZAVOO_clean_linker_0, # of connection points: 4
#     Node 34, Type 1, BuildingBlock: AZAVOO_clean_linker_0, # of connection points: 4
#     Node 35, Type 1, BuildingBlock: AZAVOO_clean_linker_0, # of connection points: 4
#     Edge 36, Type (0, 1), BuildingBlock: OJICUG_clean_linker_0, # of connection points: 2
#     Edge 37, Type (0, 1), BuildingBlock: OJICUG_clean_linker_0, # of connection points: 2
#     Edge 38, Type (0, 1), BuildingBlock: OJICUG_clean_linker_0, # of connection points: 2
#     Edge 39, Type (0, 1), BuildingBlock: OJICUG_clean_linker_0, # of connection points: 2
#     Edge 40, Type (0, 1), BuildingBlock: OJICUG_clean_linker_0, # of connection points: 2
#     Edge 41, Type (0, 1), BuildingBlock: OJICUG_clean_linker_0, # of connection points: 2
#     Edge 42, Type (0, 1), BuildingBlock: OJICUG_clean_linker_0, # of connection points: 2
#     Edge 43, Type (0, 1), BuildingBlock: OJICUG_clean_linker_0, # of connection points: 2
#     Edge 44, Type (0, 1), BuildingBlock: OJICUG_clean_linker_0, # of connection points: 2
#     Edge 45, Type (0, 1), BuildingBlock: OJICUG_clean_linker_0, # of connection points: 2
#     Edge 46, Type (0, 1), BuildingBlock: OJICUG_clean_linker_0, # of connection points: 2
#     Edge 47, Type (0, 1), BuildingBlock: OJICUG_clean_linker_0, # of connection points: 2
#     Edge 48, Type (0, 1), BuildingBlock: OJICUG_clean_linker_0, # of connection points: 2
#     Edge 49, Type (0, 1), BuildingBlock: OJICUG_clean_linker_0, # of connection points: 2
#     Edge 50, Type (0, 1), BuildingBlock: OJICUG_clean_linker_0, # of connection points: 2
#     Edge 51, Type (0, 1), BuildingBlock: OJICUG_clean_linker_0, # of connection points: 2
#     Edge 52, Type (0, 1), BuildingBlock: OJICUG_clean_linker_0, # of connection points: 2
#     Edge 53, Type (0, 1), BuildingBlock: OJICUG_clean_linker_0, # of connection points: 2
#     Edge 54, Type (0, 1), BuildingBlock: OJICUG_clean_linker_0, # of connection points: 2
#     Edge 55, Type (0, 1), BuildingBlock: OJICUG_clean_linker_0, # of connection points: 2
#     Edge 56, Type (0, 1), BuildingBlock: OJICUG_clean_linker_0, # of connection points: 2
#     Edge 57, Type (0, 1), BuildingBlock: OJICUG_clean_linker_0, # of connection points: 2
#     Edge 58, Type (0, 1), BuildingBlock: OJICUG_clean_linker_0, # of connection points: 2
#     Edge 59, Type (0, 1), BuildingBlock: OJICUG_clean_linker_0, # of connection points: 2
#     Edge 60, Type (0, 1), BuildingBlock: OJICUG_clean_linker_0, # of connection points: 2
#     Edge 61, Type (0, 1), BuildingBlock: OJICUG_clean_linker_0, # of connection points: 2
#     Edge 62, Type (0, 1), BuildingBlock: OJICUG_clean_linker_0, # of connection points: 2
#     Edge 63, Type (0, 1), BuildingBlock: OJICUG_clean_linker_0, # of connection points: 2
#     Edge 64, Type (0, 1), BuildingBlock: OJICUG_clean_linker_0, # of connection points: 2
#     Edge 65, Type (0, 1), BuildingBlock: OJICUG_clean_linker_0, # of connection points: 2
#     Edge 66, Type (0, 1), BuildingBlock: OJICUG_clean_linker_0, # of connection points: 2
#     Edge 67, Type (0, 1), BuildingBlock: OJICUG_clean_linker_0, # of connection points: 2
#     Edge 68, Type (0, 1), BuildingBlock: OJICUG_clean_linker_0, # of connection points: 2
#     Edge 69, Type (0, 1), BuildingBlock: OJICUG_clean_linker_0, # of connection points: 2
#     Edge 70, Type (0, 1), BuildingBlock: OJICUG_clean_linker_0, # of connection points: 2
#     Edge 71, Type (0, 1), BuildingBlock: OJICUG_clean_linker_0, # of connection points: 2
#     Edge 72, Type (0, 1), BuildingBlock: OJICUG_clean_linker_0, # of connection points: 2
#     Edge 73, Type (0, 1), BuildingBlock: OJICUG_clean_linker_0, # of connection points: 2
#     Edge 74, Type (0, 1), BuildingBlock: OJICUG_clean_linker_0, # of connection points: 2
#     Edge 75, Type (0, 1), BuildingBlock: OJICUG_clean_linker_0, # of connection points: 2
#     Edge 76, Type (0, 1), BuildingBlock: OJICUG_clean_linker_0, # of connection points: 2
#     Edge 77, Type (0, 1), BuildingBlock: OJICUG_clean_linker_0, # of connection points: 2
#     Edge 78, Type (0, 1), BuildingBlock: OJICUG_clean_linker_0, # of connection points: 2
#     Edge 79, Type (0, 1), BuildingBlock: OJICUG_clean_linker_0, # of connection points: 2
#     Edge 80, Type (0, 1), BuildingBlock: OJICUG_clean_linker_0, # of connection points: 2
#     Edge 81, Type (0, 1), BuildingBlock: OJICUG_clean_linker_0, # of connection points: 2
#     Edge 82, Type (0, 1), BuildingBlock: OJICUG_clean_linker_0, # of connection points: 2
#     Edge 83, Type (0, 1), BuildingBlock: OJICUG_clean_linker_0, # of connection points: 2
#     Edge 84, Type (0, 1), BuildingBlock: OJICUG_clean_linker_0, # of connection points: 2
#     Edge 85, Type (0, 1), BuildingBlock: OJICUG_clean_linker_0, # of connection points: 2
#     Edge 86, Type (0, 1), BuildingBlock: OJICUG_clean_linker_0, # of connection points: 2
#     Edge 87, Type (0, 1), BuildingBlock: OJICUG_clean_linker_0, # of connection points: 2
#     Edge 88, Type (0, 1), BuildingBlock: OJICUG_clean_linker_0, # of connection points: 2
#     Edge 89, Type (0, 1), BuildingBlock: OJICUG_clean_linker_0, # of connection points: 2
#     Edge 90, Type (0, 1), BuildingBlock: OJICUG_clean_linker_0, # of connection points: 2
#     Edge 91, Type (0, 1), BuildingBlock: OJICUG_clean_linker_0, # of connection points: 2
#     Edge 92, Type (0, 1), BuildingBlock: OJICUG_clean_linker_0, # of connection points: 2
#     Edge 93, Type (0, 1), BuildingBlock: OJICUG_clean_linker_0, # of connection points: 2
#     Edge 94, Type (0, 1), BuildingBlock: OJICUG_clean_linker_0, # of connection points: 2
#     Edge 95, Type (0, 1), BuildingBlock: OJICUG_clean_linker_0, # of connection points: 2
#     Edge 96, Type (0, 1), BuildingBlock: OJICUG_clean_linker_0, # of connection points: 2
#     Edge 97, Type (0, 1), BuildingBlock: OJICUG_clean_linker_0, # of connection points: 2
#     Edge 98, Type (0, 1), BuildingBlock: OJICUG_clean_linker_0, # of connection points: 2
#     Edge 99, Type (0, 1), BuildingBlock: OJICUG_clean_linker_0, # of connection points: 2
#     Edge 100, Type (0, 1), BuildingBlock: OJICUG_clean_linker_0, # of connection points: 2
#     Edge 101, Type (0, 1), BuildingBlock: OJICUG_clean_linker_0, # of connection points: 2
#     Edge 102, Type (0, 1), BuildingBlock: OJICUG_clean_linker_0, # of connection points: 2
#     Edge 103, Type (0, 1), BuildingBlock: OJICUG_clean_linker_0, # of connection points: 2
#     Edge 104, Type (0, 1), BuildingBlock: OJICUG_clean_linker_0, # of connection points: 2
#     Edge 105, Type (0, 1), BuildingBlock: OJICUG_clean_linker_0, # of connection points: 2
#     Edge 106, Type (0, 1), BuildingBlock: OJICUG_clean_linker_0, # of connection points: 2
#     Edge 107, Type (0, 1), BuildingBlock: OJICUG_clean_linker_0, # of connection points: 2
# Relax obj value: 0.100
# Max RMSD: 0.272
# Mean RMSD: 0.173
data_MOF--net-ptr--node1-TATPOV_clean_sbu_0--node2-AZAVOO_clean_linker_0--edge1-OJICUG_clean_linker_0
_symmetry_space_group_name_H-M    P1
_symmetry_Int_Tables_number       1
_symmetry_cell_setting            triclinic
loop_
_symmetry_equiv_pos_as_xyz
'x, y, z'
_cell_length_a     63.248605
_cell_length_b     63.385523
_cell_length_c     52.498847
_cell_angle_alpha  92.767608
_cell_angle_beta   93.795304
_cell_angle_gamma 121.48549
loop_
_atom_site_label
_atom_site_type_symbol
_atom_site_fract_x
_atom_site_fract_y
_atom_site_fract_z
_atom_type_partial_charge
Zn0 Zn 0.94503 0.3783 0.0181 0.0
Zn1 Zn 0.98874 0.38114 0.02487 0.0
O2 O 0.96321 0.34405 0.01394 0.0
O3 O 0.92756 0.34197 0.00595 0.0
O4 O 0.01973 0.38095 0.03656 0.0
O5 O 0.9467 0.3897 0.0551 0.0
O6 O 0.98456 0.39626 0.0584 0.0
C7 C 0.94 0.33152 0.00635 0.0
C8 C 0.98202 0.4102 0.98451 0.0
O9 O 0.99573 0.40288 0.99462 0.0
O10 O 0.96095 0.4032 0.99224 0.0
C11 C 0.0239 0.36422 0.02891 0.0
O12 O 0.00928 0.34777 0.00972 0.0
C13 C 0.96744 0.3978 0.06816 0.0
Zn14 Zn 0.60877 0.55116 0.05752 0.0
Zn15 Zn 0.61567 0.59595 0.0703 0.0
O16 O 0.65046 0.60423 0.0623 0.0
O17 O 0.64443 0.56767 0.04982 0.0
O18 O 0.62213 0.62963 0.08248 0.0
O19 O 0.6 0.54096 0.09291 0.0
O20 O 0.60168 0.57622 0.10144 0.0
C21 C 0.65871 0.59106 0.05371 0.0
C22 C 0.57946 0.56341 0.02362 0.0
O23 O 0.59107 0.58405 0.03763 0.0
O24 O 0.58275 0.54597 0.029 0.0
C25 C 0.61945 0.64379 0.06806 0.0
O26 O 0.61163 0.63635 0.04363 0.0
C27 C 0.59733 0.55535 0.10803 0.0
Zn28 Zn 0.40037 0.9642 0.03169 0.0
Zn29 Zn 0.40147 0.00698 0.03271 0.0
O30 O 0.36522 0.98113 0.03757 0.0
O31 O 0.36497 0.94656 0.04088 0.0
O32 O 0.40016 0.03795 0.03063 0.0
O33 O 0.40672 0.96598 0.99448 0.0
O34 O 0.41273 0.00354 0.99747 0.0
C35 C 0.3538 0.95829 0.04152 0.0
C36 C 0.43483 0.00097 0.07266 0.0
O37 O 0.42549 0.01341 0.06477 0.0
O38 O 0.42857 0.98037 0.06063 0.0
C39 C 0.3855 0.04164 0.04289 0.0
O40 O 0.3726 0.0261 0.05942 0.0
C41 C 0.41261 0.9859 0.98459 0.0
Zn42 Zn 0.05026 0.6156 0.0613 0.0
Zn43 Zn 0.00817 0.61597 0.05204 0.0
O44 O 0.03466 0.65196 0.06524 0.0
O45 O 0.06877 0.65167 0.07574 0.0
O46 O 0.97912 0.61944 0.04037 0.0
O47 O 0.04967 0.60533 0.02418 0.0
O48 O 0.01314 0.60175 0.01843 0.0
C49 C 0.05737 0.66317 0.07455 0.0
C50 C 0.00997 0.58324 0.09115 0.0
O51 O 0.99821 0.59266 0.08113 0.0
O52 O 0.03121 0.58915 0.08471 0.0
C53 C 0.98462 0.63634 0.02531 0.0
O54 O 0.00753 0.64915 0.01907 0.0
C55 C 0.03009 0.59917 0.00976 0.0
Zn56 Zn 0.39636 0.44399 0.03045 0.0
Zn57 Zn 0.38467 0.39824 0.01421 0.0
O58 O 0.35109 0.39232 0.02366 0.0
O59 O 0.36117 0.4296 0.03944 0.0
O60 O 0.37632 0.3645 0.99962 0.0
O61 O 0.4056 0.4561 0.99593 0.0
O62 O 0.39925 0.41931 0.98401 0.0
C63 C 0.34505 0.40666 0.03424 0.0
C64 C 0.42347 0.42691 0.06033 0.0
O65 O 0.40948 0.40666 0.04607 0.0
O66 O 0.42233 0.44591 0.05662 0.0
C67 C 0.36201 0.34467 0.00964 0.0
O68 O 0.35242 0.34602 0.03065 0.0
C69 C 0.40606 0.44137 0.97916 0.0
Zn70 Zn 0.60786 0.04547 0.05273 0.0
Zn71 Zn 0.60321 0.00042 0.05283 0.0
O72 O 0.63935 0.02361 0.04678 0.0
O73 O 0.6442 0.06054 0.04627 0.0
O74 O 0.60182 0.9683 0.05591 0.0
O75 O 0.59802 0.04323 0.08873 0.0
O76 O 0.59365 0.00639 0.08792 0.0
C77 C 0.65303 0.04667 0.04434 0.0
C78 C 0.57233 0.00847 0.01197 0.0
O79 O 0.57923 0.99452 0.02123 0.0
O80 O 0.58106 0.0303 0.0224 0.0
C81 C 0.61363 0.96169 0.04225 0.0
O82 O 0.62536 0.97508 0.02379 0.0
C83 C 0.59259 0.02386 0.09959 0.0
Zn84 Zn 0.60651 0.70087 0.35384 0.0
Zn85 Zn 0.65127 0.70542 0.36178 0.0
O86 O 0.626 0.66823 0.35266 0.0
O87 O 0.58897 0.6634 0.3529 0.0
O88 O 0.6822 0.70493 0.37253 0.0
O89 O 0.61299 0.72182 0.38722 0.0
O90 O 0.64771 0.72196 0.39446 0.0
C91 C 0.60239 0.65413 0.35089 0.0
C92 C 0.6414 0.72647 0.31561 0.0
O93 O 0.6575 0.72523 0.33033 0.0
O94 O 0.61914 0.71691 0.32104 0.0
C95 C 0.67916 0.69062 0.38999 0.0
O96 O 0.65737 0.67858 0.39898 0.0
C97 C 0.63243 0.72776 0.40177 0.0
Zn98 Zn 0.27989 0.88581 0.39505 0.0
Zn99 Zn 0.28431 0.93013 0.40481 0.0
O100 O 0.31986 0.93933 0.39888 0.0
O101 O 0.31645 0.90325 0.39058 0.0
O102 O 0.28833 0.96331 0.4141 0.0
O103 O 0.26896 0.87642 0.43004 0.0
O104 O 0.26991 0.91154 0.43652 0.0
C105 C 0.32964 0.92677 0.39312 0.0
C106 C 0.25126 0.89603 0.35741 0.0
O107 O 0.26101 0.91664 0.37127 0.0
O108 O 0.25556 0.87952 0.36403 0.0
C109 C 0.30348 0.98273 0.40395 0.0
O110 O 0.31643 0.98108 0.38626 0.0
C111 C 0.2656 0.89098 0.44408 0.0
Zn112 Zn 0.05816 0.29234 0.36242 0.0
Zn113 Zn 0.06856 0.33971 0.36682 0.0
O114 O 0.0313 0.31806 0.37059 0.0
O115 O 0.02191 0.27932 0.36624 0.0
O116 O 0.07272 0.37347 0.36708 0.0
O117 O 0.06901 0.29645 0.32685 0.0
O118 O 0.07903 0.33545 0.33139 0.0
C119 C 0.01535 0.2949 0.36988 0.0
C120 C 0.09365 0.32416 0.40665 0.0
O121 O 0.09024 0.34088 0.3984 0.0
O122 O 0.08279 0.30273 0.39444 0.0
C123 C 0.06134 0.37954 0.38204 0.0
O124 O 0.04931 0.36479 0.39951 0.0
C125 C 0.07751 0.3173 0.31798 0.0
Zn126 Zn 0.7259 0.96035 0.39384 0.0
Zn127 Zn 0.68089 0.95491 0.38571 0.0
O128 O 0.70596 0.99242 0.39376 0.0
O129 O 0.74323 0.99763 0.39575 0.0
O130 O 0.6498 0.95497 0.37433 0.0
O131 O 0.72066 0.94024 0.36048 0.0
O132 O 0.68443 0.93719 0.35386 0.0
C133 C 0.72959 0.00673 0.39655 0.0
C134 C 0.69123 0.93458 0.43226 0.0
O135 O 0.67507 0.93619 0.41804 0.0
O136 O 0.71318 0.94357 0.42607 0.0
C137 C 0.65248 0.96753 0.35528 0.0
O138 O 0.67385 0.97793 0.34536 0.0
C139 C 0.70048 0.93253 0.34643 0.0
Zn140 Zn 0.06897 0.77803 0.36727 0.0
Zn141 Zn 0.05837 0.73232 0.35288 0.0
O142 O 0.02426 0.72604 0.36114 0.0
O143 O 0.03344 0.7635 0.37503 0.0
O144 O 0.05131 0.69835 0.34079 0.0
O145 O 0.07889 0.78909 0.33264 0.0
O146 O 0.07286 0.75223 0.32182 0.0
C147 C 0.01765 0.74042 0.3704 0.0
C148 C 0.09622 0.763 0.3995 0.0
O149 O 0.08293 0.74247 0.38547 0.0
O150 O 0.09463 0.78157 0.39485 0.0
C151 C 0.03149 0.68254 0.3267 0.0
O152 O 0.01489 0.68832 0.31996 0.0
C153 C 0.0796 0.77413 0.31639 0.0
Zn154 Zn 0.28146 0.38216 0.38944 0.0
Zn155 Zn 0.26893 0.33414 0.3846 0.0
O156 O 0.30605 0.35446 0.38029 0.0
O157 O 0.31758 0.39374 0.38619 0.0
O158 O 0.2633 0.29986 0.38449 0.0
O159 O 0.26859 0.37779 0.42427 0.0
O160 O 0.25924 0.33906 0.42 0.0
C161 C 0.32292 0.37738 0.38147 0.0
C162 C 0.24614 0.35162 0.3446 0.0
O163 O 0.2474 0.33381 0.35329 0.0
O164 O 0.25848 0.37319 0.35654 0.0
C165 C 0.27369 0.2926 0.36943 0.0
O166 O 0.28581 0.3066 0.35151 0.0
C167 C 0.2601 0.35695 0.43318 0.0
Zn168 Zn 0.28488 0.04929 0.676 0.0
Zn169 Zn 0.32745 0.04951 0.6892 0.0
O170 O 0.3007 0.01265 0.68051 0.0
O171 O 0.26594 0.01171 0.67004 0.0
O172 O 0.35721 0.04827 0.70343 0.0
O173 O 0.28814 0.06676 0.71079 0.0
O174 O 0.3225 0.06673 0.7203 0.0
C175 C 0.27746 0.00045 0.6731 0.0
C176 C 0.32433 0.07483 0.64259 0.0
O177 O 0.33702 0.06897 0.65719 0.0
O178 O 0.30247 0.06884 0.6468 0.0
C179 C 0.36043 0.03062 0.697 0.0
O180 O 0.34539 0.01371 0.67832 0.0
C181 C 0.30672 0.07224 0.72654 0.0
Zn182 Zn 0.94156 0.22237 0.71894 0.0
Zn183 Zn 0.94875 0.2673 0.7313 0.0
O184 O 0.98384 0.27533 0.72462 0.0
O185 O 0.97746 0.23863 0.71213 0.0
O186 O 0.95403 0.30061 0.74284 0.0
O187 O 0.932 0.21221 0.75416 0.0
O188 O 0.93399 0.24767 0.76227 0.0
C189 C 0.99201 0.26196 0.71638 0.0
C190 C 0.91326 0.23503 0.68415 0.0
O191 O 0.92491 0.2557 0.69811 0.0
O192 O 0.91615 0.21742 0.68985 0.0
C193 C 0.97066 0.32091 0.73517 0.0
O194 O 0.9849 0.32048 0.7183 0.0
C195 C 0.92926 0.22673 0.76901 0.0
Zn196 Zn 0.72488 0.62331 0.69352 0.0
Zn197 Zn 0.73364 0.67006 0.69753 0.0
O198 O 0.69654 0.64736 0.7015 0.0
O199 O 0.6884 0.60906 0.6974 0.0
O200 O 0.73653 0.70321 0.69726 0.0
O201 O 0.73605 0.62765 0.65804 0.0
O202 O 0.74491 0.66626 0.66247 0.0
C203 C 0.68117 0.62409 0.70107 0.0
C204 C 0.75962 0.65608 0.73787 0.0
O205 O 0.75556 0.67229 0.72937 0.0
O206 O 0.74948 0.63467 0.72576 0.0
C207 C 0.7245 0.7088 0.71178 0.0
O208 O 0.71247 0.69396 0.72919 0.0
C209 C 0.74419 0.64847 0.6492 0.0
Zn210 Zn 0.39368 0.28974 0.72001 0.0
Zn211 Zn 0.34956 0.2867 0.71187 0.0
O212 O 0.37492 0.32361 0.72272 0.0
O213 O 0.41133 0.32693 0.72833 0.0
O214 O 0.31892 0.28727 0.69982 0.0
O215 O 0.39079 0.27489 0.68426 0.0
O216 O 0.35418 0.27118 0.67895 0.0
C217 C 0.39842 0.33687 0.72856 0.0
C218 C 0.35601 0.25936 0.75418 0.0
O219 O 0.34196 0.26543 0.74237 0.0
O220 O 0.37769 0.267 0.74779 0.0
C221 C 0.31347 0.30215 0.7101 0.0
O222 O 0.32645 0.31587 0.73146 0.0
C223 C 0.37069 0.26781 0.67036 0.0
Zn224 Zn 0.72524 0.1109 0.69017 0.0
Zn225 Zn 0.7173 0.06618 0.67526 0.0
O226 O 0.6828 0.05802 0.6842 0.0
O227 O 0.68919 0.09474 0.69667 0.0
O228 O 0.71099 0.03288 0.66174 0.0
O229 O 0.73573 0.1233 0.65615 0.0
O230 O 0.73137 0.08725 0.64477 0.0
C231 C 0.67471 0.07138 0.69269 0.0
C232 C 0.75386 0.09666 0.72229 0.0
O233 O 0.7419 0.0764 0.70768 0.0
O234 O 0.75075 0.11446 0.71819 0.0
C235 C 0.70002 0.01402 0.67429 0.0
O236 O 0.69307 0.0165 0.69672 0.0
C237 C 0.73733 0.10907 0.63974 0.0
Zn238 Zn 0.95195 0.71985 0.72446 0.0
Zn239 Zn 0.9397 0.67189 0.71963 0.0
O240 O 0.97714 0.69218 0.71693 0.0
O241 O 0.98832 0.73136 0.72309 0.0
O242 O 0.93359 0.63748 0.71943 0.0
O243 O 0.93749 0.71485 0.7585 0.0
O244 O 0.92868 0.6763 0.7543 0.0
C245 C 0.99397 0.71516 0.71884 0.0
C246 C 0.91825 0.68973 0.67864 0.0
O247 O 0.91927 0.67193 0.68767 0.0
O248 O 0.93023 0.71127 0.69066 0.0
C249 C 0.94393 0.63 0.70457 0.0
O250 O 0.95669 0.6441 0.68699 0.0
C251 C 0.92881 0.69391 0.76721 0.0
H252 H 0.13485 0.35929 0.97513 0.0
H253 H 0.30866 0.33921 0.18635 0.0
H254 H 0.14671 0.37919 0.12987 0.0
H255 H 0.11636 0.38576 0.10663 0.0
H256 H 0.07181 0.30737 0.08056 0.0
H257 H 0.10294 0.30122 0.10351 0.0
H258 H 0.16766 0.3779 0.08506 0.0
H259 H 0.15578 0.37735 0.03963 0.0
H260 H 0.13688 0.30124 0.02691 0.0
H261 H 0.14854 0.30197 0.0725 0.0
H262 H 0.21289 0.38547 0.09814 0.0
H263 H 0.24807 0.40008 0.07291 0.0
H264 H 0.24301 0.32946 0.07558 0.0
H265 H 0.20626 0.3143 0.09895 0.0
H266 H 0.23491 0.38367 0.16221 0.0
H267 H 0.2758 0.39085 0.1775 0.0
H268 H 0.24679 0.31222 0.16234 0.0
H269 H 0.20604 0.30537 0.14713 0.0
H270 H 0.1857 0.37186 0.20025 0.0
H271 H 0.19802 0.37353 0.24555 0.0
H272 H 0.19573 0.30451 0.231 0.0
H273 H 0.18088 0.30188 0.18613 0.0
H274 H 0.14211 0.3682 0.1745 0.0
H275 H 0.11953 0.36353 0.21184 0.0
H276 H 0.10501 0.28901 0.21477 0.0
H277 H 0.12588 0.29332 0.17642 0.0
O278 O 0.13955 0.35914 0.99301 0.0
O279 O 0.13042 0.32014 0.98743 0.0
O280 O 0.3067 0.37717 0.18791 0.0
O281 O 0.29271 0.33692 0.18044 0.0
C282 C 0.14826 0.33749 0.12761 0.0
C283 C 0.16499 0.33976 0.1098 0.0
C284 C 0.18755 0.34153 0.11821 0.0
C285 C 0.19294 0.33989 0.14431 0.0
C286 C 0.17579 0.33654 0.162 0.0
C287 C 0.15335 0.33528 0.15362 0.0
C288 C 0.12677 0.33965 0.11883 0.0
C289 C 0.12993 0.36327 0.11994 0.0
C290 C 0.11259 0.36701 0.10643 0.0
C291 C 0.09164 0.34713 0.09152 0.0
C292 C 0.08792 0.32318 0.09148 0.0
C293 C 0.10542 0.3195 0.10494 0.0
C294 C 0.15872 0.3399 0.08207 0.0
C295 C 0.16083 0.3611 0.07245 0.0
C296 C 0.1541 0.36075 0.04647 0.0
C297 C 0.14529 0.33922 0.02964 0.0
C298 C 0.14353 0.31811 0.03935 0.0
C299 C 0.15022 0.31848 0.06535 0.0
C300 C 0.20715 0.34891 0.10056 0.0
C301 C 0.21896 0.37293 0.09266 0.0
C302 C 0.23933 0.38136 0.07855 0.0
C303 C 0.24882 0.36618 0.07265 0.0
C304 C 0.23621 0.34166 0.07963 0.0
C305 C 0.21538 0.33303 0.09327 0.0
C306 C 0.21762 0.34404 0.15359 0.0
C307 C 0.23747 0.36806 0.16224 0.0
C308 C 0.26078 0.37208 0.17094 0.0
C309 C 0.26457 0.35209 0.17114 0.0
C310 C 0.24453 0.32802 0.16245 0.0
C311 C 0.22125 0.32404 0.15375 0.0
C312 C 0.18256 0.33685 0.1898 0.0
C313 C 0.18737 0.35685 0.20697 0.0
C314 C 0.19479 0.35792 0.23287 0.0
C315 C 0.19841 0.3394 0.2421 0.0
C316 C 0.19299 0.31905 0.22484 0.0
C317 C 0.18487 0.31767 0.19903 0.0
C318 C 0.1353 0.33095 0.17243 0.0
C319 C 0.13298 0.35047 0.18247 0.0
C320 C 0.12055 0.34794 0.20426 0.0
C321 C 0.11063 0.326 0.21669 0.0
C322 C 0.11196 0.30606 0.20567 0.0
C323 C 0.12396 0.30847 0.18368 0.0
C324 C 0.13796 0.33883 0.00209 0.0
C325 C 0.28928 0.35625 0.18035 0.0
H326 H 0.6133 0.77593 0.97911 0.0
H327 H 0.70082 0.99164 0.1854 0.0
H328 H 0.61282 0.77256 0.11686 0.0
H329 H 0.60379 0.73155 0.1005 0.0
H330 H 0.68035 0.75448 0.12275 0.0
H331 H 0.68941 0.79579 0.13859 0.0
H332 H 0.61179 0.80498 0.0861 0.0
H333 H 0.60503 0.79051 0.04057 0.0
H334 H 0.68284 0.81411 0.04221 0.0
H335 H 0.68938 0.82875 0.08771 0.0
H336 H 0.61155 0.83943 0.11299 0.0
H337 H 0.59843 0.86294 0.08813 0.0
H338 H 0.67489 0.91335 0.07403 0.0
H339 H 0.68761 0.8888 0.09806 0.0
H340 H 0.63085 0.86764 0.17049 0.0
H341 H 0.63556 0.90759 0.18374 0.0
H342 H 0.711 0.94581 0.16286 0.0
H343 H 0.70601 0.90571 0.14979 0.0
H344 H 0.63512 0.83254 0.20558 0.0
H345 H 0.64295 0.85186 0.24945 0.0
H346 H 0.72051 0.90133 0.2386 0.0
H347 H 0.71255 0.88137 0.19499 0.0
H348 H 0.62178 0.785 0.1793 0.0
H349 H 0.61843 0.76109 0.21527 0.0
H350 H 0.6989 0.7982 0.22675 0.0
H351 H 0.70188 0.82319 0.19134 0.0
O352 O 0.6164 0.78188 0.9971 0.0
O353 O 0.65653 0.79425 0.999 0.0
O354 O 0.65957 0.95506 0.19077 0.0
O355 O 0.69845 0.9756 0.18031 0.0
C356 C 0.6575 0.81258 0.13643 0.0
C357 C 0.65542 0.82692 0.11772 0.0
C358 C 0.65818 0.84992 0.12533 0.0
C359 C 0.66518 0.85966 0.15128 0.0
C360 C 0.66791 0.8457 0.1699 0.0
C361 C 0.66341 0.82186 0.1626 0.0
C362 C 0.65184 0.78721 0.12857 0.0
C363 C 0.62766 0.76875 0.11812 0.0
C364 C 0.62255 0.7454 0.10878 0.0
C365 C 0.64144 0.73997 0.11016 0.0
C366 C 0.66545 0.7582 0.12152 0.0
C367 C 0.67065 0.78172 0.13056 0.0
C368 C 0.65114 0.8182 0.09008 0.0
C369 C 0.6274 0.80728 0.07652 0.0
C370 C 0.62357 0.79889 0.05054 0.0
C371 C 0.64341 0.80122 0.03771 0.0
C372 C 0.66717 0.81209 0.05148 0.0
C373 C 0.67096 0.82048 0.07744 0.0
C374 C 0.65045 0.86233 0.10708 0.0
C375 C 0.62533 0.85513 0.10388 0.0
C376 C 0.61794 0.86876 0.08993 0.0
C377 C 0.63565 0.8902 0.07933 0.0
C378 C 0.66074 0.89678 0.08169 0.0
C379 C 0.66808 0.88289 0.09547 0.0
C380 C 0.66809 0.88389 0.15922 0.0
C381 C 0.64836 0.88469 0.16883 0.0
C382 C 0.65111 0.90751 0.17636 0.0
C383 C 0.67367 0.92991 0.17435 0.0
C384 C 0.69339 0.92894 0.16466 0.0
C385 C 0.6906 0.90609 0.15716 0.0
C386 C 0.67333 0.85544 0.19729 0.0
C387 C 0.65389 0.84719 0.21293 0.0
C388 C 0.65835 0.85844 0.23784 0.0
C389 C 0.68233 0.87823 0.24745 0.0
C390 C 0.70191 0.88595 0.23189 0.0
C391 C 0.69742 0.87464 0.20699 0.0
C392 C 0.66202 0.80565 0.18266 0.0
C393 C 0.63865 0.78772 0.18941 0.0
C394 C 0.63684 0.77394 0.20995 0.0
C395 C 0.65841 0.77744 0.22399 0.0
C396 C 0.68189 0.79514 0.21668 0.0
C397 C 0.68367 0.80926 0.19629 0.0
C398 C 0.63928 0.79227 0.01013 0.0
C399 C 0.6767 0.95422 0.18233 0.0
H400 H 0.12235 0.84224 0.98114 0.0
H401 H 0.33796 0.99533 0.18365 0.0
H402 H 0.10976 0.81984 0.11881 0.0
H403 H 0.08255 0.77508 0.10546 0.0
H404 H 0.14442 0.76564 0.12577 0.0
H405 H 0.17036 0.80941 0.14041 0.0
H406 H 0.15736 0.88218 0.0885 0.0
H407 H 0.1415 0.87115 0.04304 0.0
H408 H 0.15349 0.80993 0.04219 0.0
H409 H 0.16967 0.82137 0.08745 0.0
H410 H 0.22264 0.92953 0.11303 0.0
H411 H 0.25909 0.94786 0.08893 0.0
H412 H 0.24788 0.87495 0.07224 0.0
H413 H 0.21395 0.85768 0.09879 0.0
H414 H 0.21366 0.93393 0.1745 0.0
H415 H 0.2541 0.972 0.18753 0.0
H416 H 0.29132 0.93436 0.16415 0.0
H417 H 0.25078 0.89634 0.15156 0.0
H418 H 0.17313 0.89331 0.21005 0.0
H419 H 0.1854 0.89816 0.2565 0.0
H420 H 0.23777 0.87601 0.2416 0.0
H421 H 0.22549 0.87121 0.1956 0.0
H422 H 0.1231 0.84722 0.1761 0.0
H423 H 0.09885 0.82491 0.2107 0.0
H424 H 0.15125 0.80238 0.22997 0.0
H425 H 0.17507 0.82435 0.19496 0.0
O426 O 0.12875 0.84631 0.9991 0.0
O427 O 0.13519 0.81503 0.9997 0.0
O428 O 0.30178 0.998 0.19379 0.0
O429 O 0.32174 0.98032 0.17937 0.0
C430 C 0.15946 0.84454 0.13779 0.0
C431 C 0.17376 0.8595 0.11914 0.0
C432 C 0.19711 0.88145 0.12682 0.0
C433 C 0.2047 0.88975 0.15328 0.0
C434 C 0.1892 0.87577 0.17183 0.0
C435 C 0.16664 0.85311 0.16398 0.0
C436 C 0.14188 0.81767 0.13064 0.0
C437 C 0.11709 0.80784 0.12068 0.0
C438 C 0.10172 0.78234 0.11286 0.0
C439 C 0.11116 0.76654 0.11461 0.0
C440 C 0.1361 0.77682 0.12476 0.0
C441 C 0.15111 0.80196 0.13298 0.0
C442 C 0.16429 0.85237 0.09147 0.0
C443 C 0.15652 0.86637 0.07847 0.0
C444 C 0.14746 0.86002 0.0525 0.0
C445 C 0.14609 0.83956 0.039 0.0
C446 C 0.15413 0.82569 0.05205 0.0
C447 C 0.16322 0.83209 0.07801 0.0
C448 C 0.21558 0.89223 0.10782 0.0
C449 C 0.22802 0.91757 0.10397 0.0
C450 C 0.24874 0.92796 0.08997 0.0
C451 C 0.25686 0.91299 0.07903 0.0
C452 C 0.24282 0.88727 0.08106 0.0
C453 C 0.22288 0.87717 0.09577 0.0
C454 C 0.22932 0.91251 0.16181 0.0
C455 C 0.23058 0.93394 0.17232 0.0
C456 C 0.25369 0.95565 0.17971 0.0
C457 C 0.27595 0.95627 0.17671 0.0
C458 C 0.27456 0.93458 0.16657 0.0
C459 C 0.25144 0.91284 0.15934 0.0
C460 C 0.1986 0.88213 0.1995 0.0
C461 C 0.18756 0.88997 0.21689 0.0
C462 C 0.19451 0.89265 0.24331 0.0
C463 C 0.2123 0.88716 0.25258 0.0
C464 C 0.22376 0.88001 0.23499 0.0
C465 C 0.21701 0.87757 0.20873 0.0
C466 C 0.15095 0.83763 0.18335 0.0
C467 C 0.12911 0.83718 0.18761 0.0
C468 C 0.11539 0.82455 0.2074 0.0
C469 C 0.12329 0.81208 0.22315 0.0
C470 C 0.14461 0.81165 0.21804 0.0
C471 C 0.15833 0.82433 0.19824 0.0
C472 C 0.13638 0.83282 0.01143 0.0
C473 C 0.30054 0.97947 0.18389 0.0
H474 H 0.33029 0.19822 0.09738 0.0
H475 H 0.34638 0.02741 0.89715 0.0
H476 H 0.29701 0.18841 0.95424 0.0
H477 H 0.30284 0.2284 0.96994 0.0
H478 H 0.38031 0.26542 0.95592 0.0
H479 H 0.37421 0.22552 0.94021 0.0
H480 H 0.30064 0.14808 0.9933 0.0
H481 H 0.30605 0.16372 0.0383 0.0
H482 H 0.38186 0.22164 0.02993 0.0
H483 H 0.37626 0.20561 0.98506 0.0
H484 H 0.30362 0.09927 0.97143 0.0
H485 H 0.31759 0.07725 0.99813 0.0
H486 H 0.39308 0.14066 0.00429 0.0
H487 H 0.37905 0.1622 0.97709 0.0
H488 H 0.28718 0.088 0.91296 0.0
H489 H 0.28564 0.04918 0.90203 0.0
H490 H 0.36618 0.0889 0.9141 0.0
H491 H 0.36741 0.12759 0.92475 0.0
H492 H 0.28271 0.11611 0.87621 0.0
H493 H 0.27818 0.09875 0.83204 0.0
H494 H 0.35842 0.14061 0.83252 0.0
H495 H 0.36264 0.15717 0.8769 0.0
H496 H 0.29052 0.1673 0.88128 0.0
H497 H 0.29459 0.18822 0.84196 0.0
H498 H 0.3748 0.22847 0.85834 0.0
H499 H 0.37055 0.20702 0.89671 0.0
O500 O 0.3286 0.19228 0.0796 0.0
O501 O 0.36742 0.22174 0.07428 0.0
O502 O 0.30509 0.02298 0.89505 0.0
O503 O 0.34645 0.04249 0.90125 0.0
C504 C 0.33229 0.17984 0.9389 0.0
C505 C 0.33435 0.16637 0.9586 0.0
C506 C 0.33317 0.14385 0.95232 0.0
C507 C 0.3282 0.13393 0.92644 0.0
C508 C 0.32578 0.14719 0.90681 0.0
C509 C 0.32848 0.17046 0.91296 0.0
C510 C 0.33507 0.20418 0.94566 0.0
C511 C 0.31509 0.20527 0.95416 0.0
C512 C 0.31853 0.22805 0.96333 0.0
C513 C 0.34204 0.25009 0.96415 0.0
C514 C 0.36187 0.24888 0.95512 0.0
C515 C 0.35841 0.22612 0.94604 0.0
C516 C 0.33797 0.17588 0.98591 0.0
C517 C 0.3184 0.16413 0.00126 0.0
C518 C 0.32154 0.17312 0.02693 0.0
C519 C 0.34436 0.194 0.03769 0.0
C520 C 0.36401 0.20559 0.02223 0.0
C521 C 0.36085 0.19654 0.99658 0.0
C522 C 0.34033 0.13228 0.9723 0.0
C523 C 0.32306 0.10855 0.97902 0.0
C524 C 0.33107 0.09608 0.99435 0.0
C525 C 0.3565 0.10717 0.00314 0.0
C526 C 0.37345 0.13152 0.99754 0.0
C527 C 0.36543 0.14394 0.98224 0.0
C528 C 0.32738 0.11051 0.91965 0.0
C529 C 0.30444 0.08825 0.91313 0.0
C530 C 0.30364 0.06613 0.90695 0.0
C531 C 0.32581 0.06594 0.90722 0.0
C532 C 0.34877 0.08838 0.91372 0.0
C533 C 0.34954 0.11049 0.91982 0.0
C534 C 0.32298 0.13778 0.87964 0.0
C535 C 0.29924 0.12154 0.86665 0.0
C536 C 0.29672 0.11179 0.8414 0.0
C537 C 0.31795 0.11823 0.82874 0.0
C538 C 0.34171 0.13495 0.84181 0.0
C539 C 0.34418 0.14457 0.86706 0.0
C540 C 0.33026 0.18597 0.89201 0.0
C541 C 0.3089 0.18107 0.87657 0.0
C542 C 0.31125 0.19298 0.85417 0.0
C543 C 0.33501 0.20976 0.84693 0.0
C544 C 0.35624 0.21535 0.86317 0.0
C545 C 0.35388 0.20343 0.88534 0.0
C546 C 0.34758 0.20357 0.06493 0.0
C547 C 0.32505 0.04247 0.90079 0.0
H548 H 0.82697 0.16931 0.09899 0.0
H549 H 0.6936 0.97432 0.87446 0.0
H550 H 0.82653 0.18014 0.95969 0.0
H551 H 0.85181 0.22356 0.97587 0.0
H552 H 0.91864 0.22278 0.96522 0.0
H553 H 0.89271 0.17811 0.95055 0.0
H554 H 0.79769 0.14654 0.98845 0.0
H555 H 0.80421 0.15725 0.0348 0.0
H556 H 0.86568 0.14534 0.03989 0.0
H557 H 0.85873 0.13432 0.99348 0.0
H558 H 0.7607 0.11147 0.94143 0.0
H559 H 0.72671 0.09623 0.96834 0.0
H560 H 0.76146 0.06652 0.01595 0.0
H561 H 0.79563 0.08165 0.98831 0.0
H562 H 0.76026 0.09835 0.89031 0.0
H563 H 0.72303 0.05965 0.87126 0.0
H564 H 0.75035 0.0177 0.90835 0.0
H565 H 0.78766 0.05658 0.92708 0.0
H566 H 0.80533 0.1463 0.87618 0.0
H567 H 0.79474 0.14026 0.83002 0.0
H568 H 0.80518 0.07804 0.82558 0.0
H569 H 0.81579 0.08429 0.87245 0.0
H570 H 0.84981 0.18911 0.90567 0.0
H571 H 0.87629 0.21359 0.87373 0.0
H572 H 0.89185 0.1559 0.85597 0.0
H573 H 0.8676 0.13309 0.88973 0.0
O574 O 0.82466 0.16491 0.08067 0.0
O575 O 0.85618 0.15865 0.08224 0.0
O576 O 0.69494 0.01236 0.86314 0.0
O577 O 0.70822 0.98992 0.88166 0.0
C578 C 0.84111 0.14944 0.94383 0.0
C579 C 0.8237 0.13263 0.95943 0.0
C580 C 0.80236 0.11028 0.94812 0.0
C581 C 0.79946 0.10372 0.92147 0.0
C582 C 0.81737 0.12003 0.90598 0.0
C583 C 0.83849 0.14272 0.91723 0.0
C584 C 0.85775 0.17583 0.95428 0.0
C585 C 0.84664 0.18912 0.96137 0.0
C586 C 0.86117 0.21413 0.97021 0.0
C587 C 0.88729 0.22684 0.97144 0.0
C588 C 0.89857 0.21349 0.96462 0.0
C589 C 0.88384 0.18807 0.95612 0.0
C590 C 0.82747 0.13922 0.98764 0.0
C591 C 0.81237 0.14596 0.99962 0.0
C592 C 0.81623 0.15222 0.02611 0.0
C593 C 0.83541 0.15206 0.04109 0.0
C594 C 0.85068 0.14556 0.02894 0.0
C595 C 0.84676 0.13926 0.00245 0.0
C596 C 0.78047 0.09744 0.96277 0.0
C597 C 0.76073 0.10116 0.95729 0.0
C598 C 0.74157 0.09283 0.97294 0.0
C599 C 0.74175 0.08065 0.9945 0.0
C600 C 0.76099 0.07596 0.99947 0.0
C601 C 0.78037 0.08444 0.98371 0.0
C602 C 0.77684 0.08026 0.90976 0.0
C603 C 0.7583 0.08079 0.89407 0.0
C604 C 0.73699 0.05865 0.88332 0.0
C605 C 0.73375 0.03556 0.88821 0.0
C606 C 0.75229 0.03514 0.90413 0.0
C607 C 0.77361 0.05731 0.91485 0.0
C608 C 0.81162 0.11594 0.87762 0.0
C609 C 0.80571 0.13158 0.86524 0.0
C610 C 0.79978 0.12816 0.8388 0.0
C611 C 0.79951 0.1089 0.82402 0.0
C612 C 0.80529 0.09306 0.83645 0.0
C613 C 0.81137 0.0966 0.86313 0.0
C614 C 0.8571 0.15947 0.90042 0.0
C615 C 0.85984 0.18232 0.89563 0.0
C616 C 0.87458 0.19604 0.87686 0.0
C617 C 0.8862 0.18678 0.86186 0.0
C618 C 0.88383 0.16413 0.8673 0.0
C619 C 0.86973 0.15085 0.88655 0.0
C620 C 0.83946 0.15872 0.06923 0.0
C621 C 0.71111 0.01198 0.87687 0.0
H622 H 0.88082 0.68765 0.11448 0.0
H623 H 0.67594 0.63247 0.9048 0.0
H624 H 0.89758 0.70178 0.98136 0.0
H625 H 0.93024 0.69465 0.9983 0.0
H626 H 0.88875 0.62021 0.95995 0.0
H627 H 0.85631 0.6275 0.94303 0.0
H628 H 0.85076 0.70162 0.012 0.0
H629 H 0.8642 0.70247 0.05702 0.0
H630 H 0.85476 0.63029 0.04099 0.0
H631 H 0.841 0.62952 0.99613 0.0
H632 H 0.79263 0.68854 0.98441 0.0
H633 H 0.75682 0.67212 0.00932 0.0
H634 H 0.76015 0.60629 0.0176 0.0
H635 H 0.79395 0.62164 0.99063 0.0
H636 H 0.80019 0.70145 0.92564 0.0
H637 H 0.76051 0.69792 0.91254 0.0
H638 H 0.72117 0.62013 0.92557 0.0
H639 H 0.761 0.62387 0.93836 0.0
H640 H 0.84308 0.70711 0.89209 0.0
H641 H 0.83097 0.70626 0.8464 0.0
H642 H 0.77458 0.62827 0.84506 0.0
H643 H 0.78708 0.62922 0.89032 0.0
H644 H 0.89075 0.70921 0.92089 0.0
H645 H 0.91362 0.71508 0.88335 0.0
H646 H 0.85908 0.63946 0.85276 0.0
H647 H 0.83698 0.6336 0.89074 0.0
O648 O 0.87532 0.68686 0.09662 0.0
O649 O 0.87023 0.64977 0.08736 0.0
O650 O 0.71301 0.67446 0.90362 0.0
O651 O 0.69187 0.63438 0.90995 0.0
C652 C 0.85292 0.66759 0.95428 0.0
C653 C 0.83738 0.66561 0.97338 0.0
C654 C 0.81434 0.66357 0.96649 0.0
C655 C 0.80764 0.66522 0.94072 0.0
C656 C 0.82368 0.66824 0.92185 0.0
C657 C 0.8461 0.669 0.92858 0.0
C658 C 0.87468 0.66519 0.96091 0.0
C659 C 0.89588 0.68417 0.97618 0.0
C660 C 0.9144 0.68003 0.98588 0.0
C661 C 0.91183 0.65677 0.98065 0.0
C662 C 0.89101 0.63817 0.96455 0.0
C663 C 0.87267 0.64241 0.95463 0.0
C664 C 0.84518 0.66566 0.00074 0.0
C665 C 0.85157 0.686 0.01827 0.0
C666 C 0.85928 0.68645 0.04397 0.0
C667 C 0.86066 0.6665 0.05259 0.0
C668 C 0.85401 0.64601 0.03497 0.0
C669 C 0.84626 0.64557 0.0093 0.0
C670 C 0.7958 0.65622 0.98546 0.0
C671 C 0.78564 0.67064 0.99176 0.0
C672 C 0.76532 0.66131 0.00625 0.0
C673 C 0.75523 0.63762 0.01515 0.0
C674 C 0.76686 0.62424 0.01046 0.0
C675 C 0.78657 0.63321 0.9954 0.0
C676 C 0.78344 0.66297 0.93309 0.0
C677 C 0.78297 0.68368 0.92564 0.0
C678 C 0.76029 0.6816 0.91819 0.0
C679 C 0.73765 0.65873 0.91805 0.0
C680 C 0.73824 0.63801 0.9255 0.0
C681 C 0.76095 0.6401 0.93288 0.0
C682 C 0.81587 0.66825 0.8945 0.0
C683 C 0.82809 0.6899 0.88185 0.0
C684 C 0.82113 0.68939 0.85583 0.0
C685 C 0.80194 0.66716 0.84208 0.0
C686 C 0.7897 0.64559 0.85497 0.0
C687 C 0.79661 0.64614 0.88089 0.0
C688 C 0.86218 0.67106 0.90837 0.0
C689 C 0.88417 0.69377 0.90635 0.0
C690 C 0.89701 0.69715 0.88478 0.0
C691 C 0.88797 0.67784 0.86488 0.0
C692 C 0.86667 0.65465 0.86777 0.0
C693 C 0.85395 0.65128 0.8894 0.0
C694 C 0.869 0.66711 0.07987 0.0
C695 C 0.7135 0.65643 0.9101 0.0
H696 H 0.80491 0.6941 0.30883 0.0
H697 H 0.98281 0.67767 0.51668 0.0
H698 H 0.81836 0.71418 0.46068 0.0
H699 H 0.78398 0.71819 0.44303 0.0
H700 H 0.7382 0.63845 0.42575 0.0
H701 H 0.7729 0.63466 0.44356 0.0
H702 H 0.83899 0.71313 0.41849 0.0
H703 H 0.82657 0.71239 0.37316 0.0
H704 H 0.80611 0.63576 0.3608 0.0
H705 H 0.81837 0.63671 0.40627 0.0
H706 H 0.88392 0.72015 0.42936 0.0
H707 H 0.91915 0.73416 0.40429 0.0
H708 H 0.91404 0.66369 0.4091 0.0
H709 H 0.87723 0.64909 0.43219 0.0
H710 H 0.90739 0.72019 0.49239 0.0
H711 H 0.94889 0.72825 0.50645 0.0
H712 H 0.92018 0.64942 0.49517 0.0
H713 H 0.87884 0.64169 0.48111 0.0
H714 H 0.85849 0.70817 0.53279 0.0
H715 H 0.87128 0.7107 0.57816 0.0
H716 H 0.86973 0.64195 0.56483 0.0
H717 H 0.85459 0.63852 0.51988 0.0
H718 H 0.81254 0.70211 0.5078 0.0
H719 H 0.78886 0.6964 0.54449 0.0
H720 H 0.77804 0.62342 0.54881 0.0
H721 H 0.80002 0.62868 0.51112 0.0
O722 O 0.80974 0.69399 0.32669 0.0
O723 O 0.79966 0.65467 0.32132 0.0
O724 O 0.98046 0.71537 0.51663 0.0
O725 O 0.96661 0.67502 0.51124 0.0
C726 C 0.81996 0.67257 0.4615 0.0
C727 C 0.83635 0.67503 0.44322 0.0
C728 C 0.85911 0.67695 0.45104 0.0
C729 C 0.8652 0.67572 0.4771 0.0
C730 C 0.8484 0.6723 0.49523 0.0
C731 C 0.82559 0.67043 0.48736 0.0
C732 C 0.79797 0.67413 0.45358 0.0
C733 C 0.80077 0.69756 0.45342 0.0
C734 C 0.78125 0.69983 0.44308 0.0
C735 C 0.7585 0.67865 0.43283 0.0
C736 C 0.7555 0.65507 0.43366 0.0
C737 C 0.77519 0.65284 0.44385 0.0
C738 C 0.82935 0.6749 0.41565 0.0
C739 C 0.83167 0.69617 0.40598 0.0
C740 C 0.82465 0.69571 0.38007 0.0
C741 C 0.81528 0.67399 0.36336 0.0
C742 C 0.8132 0.65278 0.37314 0.0
C743 C 0.82021 0.65326 0.39908 0.0
C744 C 0.87813 0.68368 0.43278 0.0
C745 C 0.8899 0.70745 0.42427 0.0
C746 C 0.91033 0.71556 0.41028 0.0
C747 C 0.91993 0.70032 0.40518 0.0
C748 C 0.9072 0.67595 0.41254 0.0
C749 C 0.8863 0.66763 0.42601 0.0
C750 C 0.8902 0.68038 0.48583 0.0
C751 C 0.91015 0.70472 0.49303 0.0
C752 C 0.9338 0.70925 0.50102 0.0
C753 C 0.93785 0.68946 0.50194 0.0
C754 C 0.91772 0.66508 0.4947 0.0
C755 C 0.89409 0.66059 0.4867 0.0
C756 C 0.85587 0.67331 0.52295 0.0
C757 C 0.86056 0.69347 0.53978 0.0
C758 C 0.86818 0.69501 0.56571 0.0
C759 C 0.87201 0.67675 0.57529 0.0
C760 C 0.86681 0.65628 0.55836 0.0
C761 C 0.85855 0.65446 0.53251 0.0
C762 C 0.8077 0.66566 0.50652 0.0
C763 C 0.80412 0.68451 0.51603 0.0
C764 C 0.79101 0.68138 0.5374 0.0
C765 C 0.78165 0.65952 0.54993 0.0
C766 C 0.78449 0.64034 0.53957 0.0
C767 C 0.79718 0.64332 0.51801 0.0
C768 C 0.80774 0.67354 0.33585 0.0
C769 C 0.96294 0.69417 0.51039 0.0
H770 H 0.26727 0.09817 0.30754 0.0
H771 H 0.35544 0.32307 0.50162 0.0
H772 H 0.28312 0.10427 0.44727 0.0
H773 H 0.27778 0.06414 0.43378 0.0
H774 H 0.35772 0.09764 0.44431 0.0
H775 H 0.36288 0.13791 0.45751 0.0
H776 H 0.27472 0.13361 0.41467 0.0
H777 H 0.26412 0.11588 0.36988 0.0
H778 H 0.34222 0.14529 0.36278 0.0
H779 H 0.35255 0.16309 0.40755 0.0
H780 H 0.27442 0.17047 0.43801 0.0
H781 H 0.25916 0.19254 0.41349 0.0
H782 H 0.33389 0.24296 0.39446 0.0
H783 H 0.34867 0.21994 0.41817 0.0
H784 H 0.29494 0.1992 0.49491 0.0
H785 H 0.29647 0.23789 0.50663 0.0
H786 H 0.36942 0.27978 0.47999 0.0
H787 H 0.36763 0.24094 0.46847 0.0
H788 H 0.30574 0.16675 0.53087 0.0
H789 H 0.31457 0.18698 0.57451 0.0
H790 H 0.38844 0.24284 0.55787 0.0
H791 H 0.37954 0.22218 0.51442 0.0
H792 H 0.29734 0.11573 0.50163 0.0
H793 H 0.30007 0.09469 0.53818 0.0
H794 H 0.37847 0.1506 0.55466 0.0
H795 H 0.3756 0.1715 0.51753 0.0
O796 O 0.27188 0.10543 0.32517 0.0
O797 O 0.31226 0.12092 0.32254 0.0
O798 O 0.3168 0.28512 0.51063 0.0
O799 O 0.35434 0.30751 0.49722 0.0
C800 C 0.32637 0.14834 0.46033 0.0
C801 C 0.3209 0.16041 0.44137 0.0
C802 C 0.32207 0.18277 0.44824 0.0
C803 C 0.33012 0.19389 0.4737 0.0
C804 C 0.33582 0.18203 0.49262 0.0
C805 C 0.33352 0.15897 0.48611 0.0
C806 C 0.32338 0.12394 0.45323 0.0
C807 C 0.29946 0.1029 0.44666 0.0
C808 C 0.29645 0.08001 0.43913 0.0
C809 C 0.31734 0.07777 0.43797 0.0
C810 C 0.34131 0.09889 0.44477 0.0
C811 C 0.34429 0.1218 0.45245 0.0
C812 C 0.31441 0.14983 0.41419 0.0
C813 C 0.28951 0.13639 0.40331 0.0
C814 C 0.28351 0.12619 0.37777 0.0
C815 C 0.30233 0.12921 0.36272 0.0
C816 C 0.32728 0.14266 0.3738 0.0
C817 C 0.33324 0.15286 0.39934 0.0
C818 C 0.31258 0.19355 0.42967 0.0
C819 C 0.2873 0.1858 0.42783 0.0
C820 C 0.2787 0.19862 0.41408 0.0
C821 C 0.29534 0.21972 0.40224 0.0
C822 C 0.3205 0.22664 0.40307 0.0
C823 C 0.32903 0.2136 0.41666 0.0
C824 C 0.33117 0.21737 0.48087 0.0
C825 C 0.31122 0.21678 0.49168 0.0
C826 C 0.31215 0.23888 0.49832 0.0
C827 C 0.33308 0.26194 0.49423 0.0
C828 C 0.35304 0.26237 0.48339 0.0
C829 C 0.35208 0.24025 0.47678 0.0
C830 C 0.34206 0.19298 0.51964 0.0
C831 C 0.32394 0.18315 0.53684 0.0
C832 C 0.32893 0.19485 0.56161 0.0
C833 C 0.35215 0.21658 0.56954 0.0
C834 C 0.37048 0.22601 0.55239 0.0
C835 C 0.36543 0.21431 0.5276 0.0
C836 C 0.3363 0.14502 0.50672 0.0
C837 C 0.31527 0.1231 0.51267 0.0
C838 C 0.31689 0.1111 0.53361 0.0
C839 C 0.33954 0.1209 0.54926 0.0
C840 C 0.36076 0.14266 0.543 0.0
C841 C 0.35917 0.15454 0.5218 0.0
C842 C 0.29589 0.11832 0.33561 0.0
C843 C 0.33415 0.28548 0.50122 0.0
H844 H 0.80422 0.17171 0.30479 0.0
H845 H 0.99434 0.3431 0.52592 0.0
H846 H 0.7787 0.16408 0.43424 0.0
H847 H 0.75407 0.12063 0.41508 0.0
H848 H 0.80306 0.10466 0.45977 0.0
H849 H 0.82779 0.14775 0.47787 0.0
H850 H 0.82235 0.21781 0.40956 0.0
H851 H 0.81285 0.2035 0.36377 0.0
H852 H 0.83328 0.14942 0.37779 0.0
H853 H 0.84298 0.1641 0.42344 0.0
H854 H 0.87882 0.2674 0.43362 0.0
H855 H 0.91364 0.28573 0.40684 0.0
H856 H 0.92218 0.22287 0.4148 0.0
H857 H 0.88763 0.20488 0.44077 0.0
H858 H 0.87048 0.27569 0.49916 0.0
H859 H 0.90857 0.31531 0.51468 0.0
H860 H 0.95224 0.28208 0.50187 0.0
H861 H 0.91403 0.24257 0.48666 0.0
H862 H 0.83281 0.23391 0.53847 0.0
H863 H 0.84486 0.23862 0.58508 0.0
H864 H 0.89889 0.21868 0.57038 0.0
H865 H 0.88706 0.21422 0.52434 0.0
H866 H 0.78319 0.18554 0.50114 0.0
H867 H 0.75781 0.16172 0.53449 0.0
H868 H 0.81322 0.14422 0.55822 0.0
H869 H 0.83821 0.16772 0.52466 0.0
O870 O 0.80816 0.17712 0.32295 0.0
O871 O 0.81881 0.1496 0.33119 0.0
O872 O 0.95572 0.34397 0.52581 0.0
O873 O 0.97899 0.32769 0.51981 0.0
C874 C 0.82304 0.18573 0.46554 0.0
C875 C 0.83866 0.20068 0.44759 0.0
C876 C 0.86073 0.22355 0.45611 0.0
C877 C 0.86629 0.23242 0.48237 0.0
C878 C 0.8504 0.21776 0.5003 0.0
C879 C 0.82868 0.19449 0.49182 0.0
C880 C 0.80486 0.15899 0.45766 0.0
C881 C 0.78368 0.15098 0.44024 0.0
C882 C 0.76973 0.12626 0.4293 0.0
C883 C 0.77696 0.10944 0.43564 0.0
C884 C 0.79735 0.11732 0.45414 0.0
C885 C 0.81122 0.14184 0.4649 0.0
C886 C 0.83299 0.19176 0.41984 0.0
C887 C 0.82472 0.20286 0.40268 0.0
C888 C 0.81931 0.19464 0.37655 0.0
C889 C 0.82219 0.17523 0.36713 0.0
C890 C 0.83074 0.16433 0.38441 0.0
C891 C 0.8362 0.1726 0.41052 0.0
C892 C 0.88059 0.23471 0.43879 0.0
C893 C 0.8881 0.25758 0.42916 0.0
C894 C 0.90797 0.26799 0.414 0.0
C895 C 0.92047 0.25559 0.40838 0.0
C896 C 0.91257 0.2326 0.41803 0.0
C897 C 0.89289 0.22232 0.43303 0.0
C898 C 0.88955 0.2564 0.49147 0.0
C899 C 0.88831 0.27706 0.49966 0.0
C900 C 0.91008 0.29964 0.50852 0.0
C901 C 0.93348 0.30189 0.50942 0.0
C902 C 0.93457 0.28104 0.50132 0.0
C903 C 0.91278 0.25847 0.49251 0.0
C904 C 0.85926 0.22396 0.52808 0.0
C905 C 0.84757 0.23107 0.5454 0.0
C906 C 0.85438 0.23367 0.57188 0.0
C907 C 0.87259 0.22875 0.58115 0.0
C908 C 0.88464 0.22234 0.56367 0.0
C909 C 0.87809 0.22005 0.53741 0.0
C910 C 0.8126 0.17855 0.51073 0.0
C911 C 0.78965 0.17632 0.51339 0.0
C912 C 0.77528 0.16281 0.53245 0.0
C913 C 0.7836 0.15119 0.54898 0.0
C914 C 0.80621 0.15274 0.5456 0.0
C915 C 0.82059 0.16633 0.52663 0.0
C916 C 0.81632 0.16648 0.33938 0.0
C917 C 0.95666 0.32582 0.51885 0.0
H918 H 0.02081 0.55264 0.43503 0.0
H919 H 0.01401 0.35613 0.25705 0.0
H920 H 0.97355 0.52464 0.29758 0.0
H921 H 0.97913 0.56546 0.30827 0.0
H922 H 0.04974 0.6006 0.27636 0.0
H923 H 0.04406 0.55972 0.26591 0.0
H924 H 0.98191 0.48963 0.3377 0.0
H925 H 0.99168 0.51075 0.38097 0.0
H926 H 0.06294 0.56883 0.36053 0.0
H927 H 0.05304 0.54736 0.31744 0.0
H928 H 0.98091 0.44004 0.31874 0.0
H929 H 0.99602 0.41943 0.34613 0.0
H930 H 0.07167 0.48094 0.34495 0.0
H931 H 0.05641 0.50118 0.3172 0.0
H932 H 0.96087 0.42357 0.25668 0.0
H933 H 0.95701 0.38311 0.25079 0.0
H934 H 0.03688 0.41903 0.26808 0.0
H935 H 0.0405 0.45936 0.27347 0.0
H936 H 0.9576 0.46207 0.21418 0.0
H937 H 0.95022 0.44323 0.17035 0.0
H938 H 0.02149 0.44869 0.1803 0.0
H939 H 0.02957 0.46968 0.22306 0.0
H940 H 0.96399 0.51042 0.23392 0.0
H941 H 0.96109 0.5273 0.19343 0.0
H942 H 0.03336 0.54044 0.17916 0.0
H943 H 0.03587 0.52342 0.21907 0.0
O944 O 0.01738 0.54456 0.41786 0.0
O945 O 0.05375 0.57399 0.40636 0.0
O946 O 0.97407 0.35435 0.24997 0.0
O947 O 0.01501 0.37189 0.25909 0.0
C948 C 0.0062 0.51489 0.27693 0.0
C949 C 0.01053 0.50422 0.29818 0.0
C950 C 0.00947 0.48148 0.29442 0.0
C951 C 0.00304 0.46881 0.26956 0.0
C952 C -0.001 0.47959 0.24828 0.0
C953 C 0.00103 0.50288 0.25194 0.0
C954 C 0.00837 0.53928 0.28092 0.0
C955 C 0.99003 0.54116 0.2926 0.0
C956 C 0.99323 0.56444 0.29862 0.0
C957 C 0.01492 0.5862 0.29324 0.0
C958 C 0.03296 0.58416 0.28096 0.0
C959 C 0.02966 0.56087 0.27478 0.0
C960 C 0.01668 0.51707 0.32442 0.0
C961 C -0.00037 0.5069 0.34265 0.0
C962 C 0.00525 0.51902 0.36732 0.0
C963 C 0.02806 0.54153 0.37419 0.0
C964 C 0.04517 0.55157 0.35586 0.0
C965 C 0.03954 0.5394 0.33121 0.0
C966 C 0.01758 0.472 0.31587 0.0
C967 C 0.00066 0.44938 0.32506 0.0
C968 C 0.00934 0.43768 0.34074 0.0
C969 C 0.03509 0.44847 0.34745 0.0
C970 C 0.05178 0.47206 0.33982 0.0
C971 C 0.04308 0.48375 0.3242 0.0
C972 C 0.00092 0.44435 0.2657 0.0
C973 C 0.97749 0.42264 0.25911 0.0
C974 C 0.97535 0.39957 0.2558 0.0
C975 C 0.99664 0.39782 0.25905 0.0
C976 C 0.02011 0.41969 0.2655 0.0
C977 C 0.02223 0.44274 0.26869 0.0
C978 C 0.99405 0.46713 0.22191 0.0
C979 C 0.97167 0.45937 0.20674 0.0
C980 C 0.96739 0.4483 0.18175 0.0
C981 C 0.98518 0.44422 0.17159 0.0
C982 C 0.00749 0.45185 0.18709 0.0
C983 C 0.012 0.46349 0.2118 0.0
C984 C 6e-05 0.51554 0.22924 0.0
C985 C 0.97924 0.51723 0.22209 0.0
C986 C 0.9776 0.5268 0.19901 0.0
C987 C 0.99674 0.53469 0.18284 0.0
C988 C 0.01797 0.53388 0.19079 0.0
C989 C 0.01958 0.52439 0.2137 0.0
C990 C 0.03392 0.5544 0.40039 0.0
C991 C 0.99446 0.37335 0.25574 0.0
H992 H 0.4838 0.49613 0.43198 0.0
H993 H 0.36581 0.29851 0.2072 0.0
H994 H 0.49356 0.50731 0.2869 0.0
H995 H 0.51763 0.54998 0.30616 0.0
H996 H 0.58172 0.54306 0.32152 0.0
H997 H 0.55733 0.50016 0.30087 0.0
H998 H 0.46353 0.47349 0.32056 0.0
H999 H 0.46657 0.4846 0.36649 0.0
H1000 H 0.52479 0.46864 0.38012 0.0
H1001 H 0.52133 0.4573 0.3341 0.0
H1002 H 0.42716 0.43425 0.27721 0.0
H1003 H 0.39372 0.4193 0.30492 0.0
H1004 H 0.42956 0.3906 0.35232 0.0
H1005 H 0.46345 0.40581 0.32422 0.0
H1006 H 0.42852 0.42238 0.22592 0.0
H1007 H 0.39246 0.38336 0.20568 0.0
H1008 H 0.42119 0.34259 0.24282 0.0
H1009 H 0.45732 0.3818 0.26274 0.0
H1010 H 0.47424 0.47241 0.21335 0.0
H1011 H 0.4645 0.46725 0.16711 0.0
H1012 H 0.47451 0.4048 0.16191 0.0
H1013 H 0.48473 0.41041 0.20887 0.0
H1014 H 0.51641 0.51447 0.24307 0.0
H1015 H 0.54334 0.53987 0.21213 0.0
H1016 H 0.56163 0.48405 0.19505 0.0
H1017 H 0.53706 0.46046 0.2283 0.0
O1018 O 0.48287 0.4916 0.41389 0.0
O1019 O 0.51284 0.48329 0.41985 0.0
O1020 O 0.36592 0.33607 0.19634 0.0
O1021 O 0.37992 0.31423 0.21491 0.0
C1022 C 0.50787 0.47465 0.28125 0.0
C1023 C 0.49012 0.45742 0.29622 0.0
C1024 C 0.46967 0.43468 0.28443 0.0
C1025 C 0.46767 0.42857 0.2578 0.0
C1026 C 0.48573 0.4456 0.24286 0.0
C1027 C 0.50623 0.46844 0.25471 0.0
C1028 C 0.52381 0.50082 0.29231 0.0
C1029 C 0.51286 0.51507 0.29431 0.0
C1030 C 0.5266 0.53938 0.30565 0.0
C1031 C 0.55156 0.54993 0.31579 0.0
C1032 C 0.56259 0.53557 0.31375 0.0
C1033 C 0.54876 0.51111 0.30202 0.0
C1034 C 0.49198 0.46428 0.3241 0.0
C1035 C 0.47678 0.47222 0.33353 0.0
C1036 C 0.47863 0.47865 0.35976 0.0
C1037 C 0.49587 0.47744 0.377 0.0
C1038 C 0.51126 0.46971 0.36738 0.0
C1039 C 0.50933 0.46322 0.34114 0.0
C1040 C 0.44758 0.42089 0.29857 0.0
C1041 C 0.4275 0.4241 0.29311 0.0
C1042 C 0.40864 0.4159 0.30913 0.0
C1043 C 0.40943 0.40423 0.33088 0.0
C1044 C 0.42874 0.39967 0.33565 0.0
C1045 C 0.4479 0.40816 0.31962 0.0
C1046 C 0.4457 0.40492 0.24549 0.0
C1047 C 0.42711 0.40502 0.22947 0.0
C1048 C 0.40647 0.3827 0.21802 0.0
C1049 C 0.40399 0.35984 0.22256 0.0
C1050 C 0.42256 0.35984 0.23885 0.0
C1051 C 0.44321 0.3822 0.25026 0.0
C1052 C 0.48058 0.44205 0.21444 0.0
C1053 C 0.47484 0.4579 0.20225 0.0
C1054 C 0.46934 0.45495 0.17578 0.0
C1055 C 0.46915 0.43587 0.16081 0.0
C1056 C 0.47467 0.41975 0.173 0.0
C1057 C 0.48049 0.42291 0.1997 0.0
C1058 C 0.52523 0.48586 0.23861 0.0
C1059 C 0.52731 0.5084 0.23372 0.0
C1060 C 0.54224 0.5226 0.21531 0.0
C1061 C 0.55463 0.51407 0.2006 0.0
C1062 C 0.55297 0.49174 0.20614 0.0
C1063 C 0.53872 0.47801 0.22513 0.0
C1064 C 0.49778 0.48426 0.40487 0.0
C1065 C 0.3821 0.33606 0.21044 0.0
H1066 H 0.53688 0.98547 0.44214 0.0
H1067 H 0.35257 0.9821 0.2234 0.0
H1068 H 0.56748 0.03062 0.29708 0.0
H1069 H 0.60027 0.02343 0.31324 0.0
H1070 H 0.54557 0.94487 0.31112 0.0
H1071 H 0.51302 0.95225 0.29498 0.0
H1072 H 0.53492 0.02422 0.34371 0.0
H1073 H 0.54159 0.01503 0.38721 0.0
H1074 H 0.48027 0.93905 0.36885 0.0
H1075 H 0.47401 0.94845 0.32533 0.0
H1076 H 0.47829 0.0198 0.34022 0.0
H1077 H 0.44469 0.0053 0.36849 0.0
H1078 H 0.40175 0.93622 0.31972 0.0
H1079 H 0.43517 0.9507 0.29195 0.0
H1080 H 0.46625 0.03537 0.28675 0.0
H1081 H 0.42873 0.03634 0.27462 0.0
H1082 H 0.39769 0.96678 0.22737 0.0
H1083 H 0.43522 0.96599 0.23979 0.0
H1084 H 0.49909 0.04523 0.23448 0.0
H1085 H 0.49009 0.04949 0.18936 0.0
H1086 H 0.46674 0.97279 0.16963 0.0
H1087 H 0.47604 0.96896 0.21432 0.0
H1088 H 0.55117 0.04595 0.2487 0.0
H1089 H 0.57438 0.05219 0.21152 0.0
H1090 H 0.53841 0.9725 0.19568 0.0
H1091 H 0.51635 0.96667 0.23371 0.0
O1092 O 0.53391 0.9887 0.42486 0.0
O1093 O 0.50217 0.94988 0.41449 0.0
O1094 O 0.38545 0.01926 0.2508 0.0
O1095 O 0.36788 0.98254 0.22792 0.0
C1096 C 0.5176 0.99637 0.28752 0.0
C1097 C 0.50022 0.99276 0.30503 0.0
C1098 C 0.47921 0.99411 0.29722 0.0
C1099 C 0.47588 -0.0002 0.27216 0.0
C1100 C 0.49338 0.00373 0.25476 0.0
C1101 C 0.51434 0.00218 0.26253 0.0
C1102 C 0.53792 0.99197 0.29492 0.0
C1103 C 0.5627 0.01185 0.29979 0.0
C1104 C 0.58135 0.0077 0.30903 0.0
C1105 C 0.57544 0.98359 0.31364 0.0
C1106 C 0.55063 0.96368 0.30817 0.0
C1107 C 0.53208 0.96783 0.29879 0.0
C1108 C 0.50386 0.98707 0.33149 0.0
C1109 C 0.52294 0.00562 0.34916 0.0
C1110 C 0.5267 0.00031 0.37398 0.0
C1111 C 0.51142 0.97632 0.38154 0.0
C1112 C 0.49232 0.95774 0.36369 0.0
C1113 C 0.48863 0.96308 0.33887 0.0
C1114 C 0.45901 0.98628 0.31406 0.0
C1115 C 0.46155 0.00159 0.33574 0.0
C1116 C 0.44243 0.99332 0.35178 0.0
C1117 C 0.42079 0.96953 0.34643 0.0
C1118 C 0.41841 0.95443 0.32459 0.0
C1119 C 0.43732 0.96274 0.30857 0.0
C1120 C 0.4535 0.00074 0.26397 0.0
C1121 C 0.45136 0.02045 0.27368 0.0
C1122 C 0.42992 0.02094 0.26673 0.0
C1123 C 0.4102 0.00163 0.25 0.0
C1124 C 0.41251 0.98195 0.24025 0.0
C1125 C 0.43397 0.9815 0.2472 0.0
C1126 C 0.48842 0.00686 0.22756 0.0
C1127 C 0.49219 0.02948 0.22027 0.0
C1128 C 0.48699 0.03184 0.19455 0.0
C1129 C 0.47795 0.01157 0.17577 0.0
C1130 C 0.47427 0.98899 0.18336 0.0
C1131 C 0.47942 0.98668 0.20894 0.0
C1132 C 0.53216 0.00589 0.24379 0.0
C1133 C 0.54899 0.02993 0.23763 0.0
C1134 C 0.56194 0.0334 0.21617 0.0
C1135 C 0.55789 0.01283 0.20024 0.0
C1136 C 0.54216 0.98878 0.20754 0.0
C1137 C 0.52951 0.98537 0.22927 0.0
C1138 C 0.51547 0.97074 0.40791 0.0
C1139 C 0.38717 0.00179 0.24295 0.0
H1140 H 0.50278 0.05554 0.65041 0.0
H1141 H 0.62972 0.97776 0.84571 0.0
H1142 H 0.48897 0.04844 0.78935 0.0
H1143 H 0.45835 0.05494 0.76628 0.0
H1144 H 0.40539 0.97561 0.75789 0.0
H1145 H 0.43658 0.96932 0.78058 0.0
H1146 H 0.52904 0.05209 0.75843 0.0
H1147 H 0.52366 0.06084 0.71438 0.0
H1148 H 0.46441 0.98404 0.69557 0.0
H1149 H 0.4702 0.97551 0.73963 0.0
H1150 H 0.56868 0.04985 0.79409 0.0
H1151 H 0.60284 0.06387 0.76738 0.0
H1152 H 0.55971 0.99536 0.71772 0.0
H1153 H 0.5255 0.9812 0.74511 0.0
H1154 H 0.56669 0.03553 0.84692 0.0
H1155 H 0.60314 0.03386 0.86219 0.0
H1156 H 0.57348 0.9646 0.8148 0.0
H1157 H 0.53699 0.96638 0.79992 0.0
H1158 H 0.52362 0.03377 0.8695 0.0
H1159 H 0.53423 0.03213 0.91445 0.0
H1160 H 0.51513 0.95629 0.89753 0.0
H1161 H 0.5055 0.95866 0.85211 0.0
H1162 H 0.47847 0.03413 0.84105 0.0
H1163 H 0.45542 0.03079 0.87776 0.0
H1164 H 0.43651 0.9548 0.88106 0.0
H1165 H 0.45772 0.95786 0.84332 0.0
O1166 O 0.50469 0.05164 0.66769 0.0
O1167 O 0.47426 0.012 0.65905 0.0
O1168 O 0.62978 0.01438 0.86421 0.0
O1169 O 0.61545 0.97882 0.84007 0.0
C1170 C 0.48528 0.00467 0.79578 0.0
C1171 C 0.50311 0.00793 0.77896 0.0
C1172 C 0.5241 0.00694 0.78782 0.0
C1173 C 0.52694 0.00192 0.81329 0.0
C1174 C 0.50908 0.9985 0.83007 0.0
C1175 C 0.48807 -0.00034 0.82128 0.0
C1176 C 0.46491 0.00843 0.7867 0.0
C1177 C 0.47053 0.03253 0.78304 0.0
C1178 C 0.45301 0.03619 0.76984 0.0
C1179 C 0.42948 0.01578 0.76003 0.0
C1180 C 0.42349 0.99169 0.76484 0.0
C1181 C 0.4411 0.98805 0.77809 0.0
C1182 C 0.50011 0.01315 0.75212 0.0
C1183 C 0.51505 0.03716 0.7447 0.0
C1184 C 0.51187 0.04212 0.71956 0.0
C1185 C 0.49361 0.02313 0.70144 0.0
C1186 C 0.47865 -0.00092 0.70903 0.0
C1187 C 0.48191 0.99414 0.73416 0.0
C1188 C 0.54474 0.0145 0.77158 0.0
C1189 C 0.56666 0.0378 0.77754 0.0
C1190 C 0.58602 0.04587 0.76209 0.0
C1191 C 0.58382 0.03082 0.74027 0.0
C1192 C 0.5619 0.0073 0.73444 0.0
C1193 C 0.54241 -0.00077 0.74997 0.0
C1194 C 0.54911 0.00095 0.82253 0.0
C1195 C 0.56802 0.01992 0.84003 0.0
C1196 C 0.58886 0.01897 0.84863 0.0
C1197 C 0.59121 -0.00095 0.83975 0.0
C1198 C 0.57225 0.98016 0.82207 0.0
C1199 C 0.5514 0.98113 0.81352 0.0
C1200 C 0.51382 0.99636 0.85762 0.0
C1201 C 0.52151 0.01674 0.87558 0.0
C1202 C 0.52736 0.01563 0.90135 0.0
C1203 C 0.52541 0.99398 0.9098 0.0
C1204 C 0.51713 0.97334 0.89172 0.0
C1205 C 0.5115 0.97458 0.8658 0.0
C1206 C 0.46973 0.99622 0.83946 0.0
C1207 C 0.46842 0.01648 0.8491 0.0
C1208 C 0.45564 0.01465 0.87047 0.0
C1209 C 0.44435 0.99265 0.88289 0.0
C1210 C 0.44454 0.97197 0.87206 0.0
C1211 C 0.45681 0.97367 0.85043 0.0
C1212 C 0.4902 0.02848 0.67477 0.0
C1213 C 0.61333 0.99797 0.84881 0.0
H1214 H 0.93488 0.43213 0.64573 0.0
H1215 H 0.01467 0.65667 0.8359 0.0
H1216 H 0.94871 0.43959 0.78546 0.0
H1217 H 0.94405 0.40002 0.77084 0.0
H1218 H 0.02407 0.43426 0.78258 0.0
H1219 H 0.02853 0.474 0.79681 0.0
H1220 H 0.94088 0.46906 0.75187 0.0
H1221 H 0.93089 0.45077 0.70734 0.0
H1222 H 0.00915 0.47964 0.70189 0.0
H1223 H 0.01887 0.49803 0.74641 0.0
H1224 H 0.94007 0.50617 0.77388 0.0
H1225 H 0.92579 0.52846 0.74834 0.0
H1226 H 0.0013 0.5781 0.73089 0.0
H1227 H 0.0151 0.55485 0.7556 0.0
H1228 H 0.95812 0.53317 0.83108 0.0
H1229 H 0.95789 0.5711 0.84166 0.0
H1230 H 0.03129 0.61483 0.81646 0.0
H1231 H 0.03127 0.57672 0.8061 0.0
H1232 H 0.96849 0.50225 0.86777 0.0
H1233 H 0.97632 0.52213 0.9114 0.0
H1234 H 0.05091 0.57798 0.8967 0.0
H1235 H 0.04302 0.55762 0.85325 0.0
H1236 H 0.95958 0.45265 0.83951 0.0
H1237 H 0.95905 0.43287 0.87842 0.0
H1238 H 0.03803 0.48529 0.89681 0.0
H1239 H 0.03851 0.50503 0.85738 0.0
O1240 O 0.93926 0.43963 0.66326 0.0
O1241 O 0.9797 0.45482 0.66147 0.0
O1242 O 0.97665 0.61808 0.84489 0.0
O1243 O 0.01431 0.6414 0.83201 0.0
C1244 C 0.99163 0.4839 0.79873 0.0
C1245 C 0.98667 0.49589 0.77928 0.0
C1246 C 0.98745 0.51814 0.78565 0.0
C1247 C 0.99456 0.52921 0.81116 0.0
C1248 C -0.00018 0.51746 0.83055 0.0
C1249 C 0.99786 0.49449 0.82448 0.0
C1250 C 0.98895 0.45959 0.79208 0.0
C1251 C 0.9652 0.43846 0.78502 0.0
C1252 C 0.96258 0.41589 0.77681 0.0
C1253 C 0.98371 0.41405 0.7755 0.0
C1254 C 0.00748 0.4352 0.78311 0.0
C1255 C 0.01007 0.4578 0.79142 0.0
C1256 C 0.98061 0.48508 0.7522 0.0
C1257 C 0.95585 0.47162 0.74092 0.0
C1258 C 0.95019 0.46109 0.71553 0.0
C1259 C 0.96923 0.46379 0.70102 0.0
C1260 C 0.99405 0.47726 0.7125 0.0
C1261 C -0.00033 0.4878 0.73788 0.0
C1262 C 0.97855 0.52886 0.76641 0.0
C1263 C 0.95333 0.52136 0.76381 0.0
C1264 C 0.94529 0.5343 0.74946 0.0
C1265 C 0.96244 0.55527 0.73781 0.0
C1266 C 0.98753 0.56188 0.73934 0.0
C1267 C 0.9955 0.54871 0.75351 0.0
C1268 C 0.99471 0.55229 0.81787 0.0
C1269 C 0.97414 0.55099 0.82795 0.0
C1270 C 0.97406 0.57266 0.83393 0.0
C1271 C 0.99459 0.59601 0.82988 0.0
C1272 C 0.01519 0.59717 0.8198 0.0
C1273 C 0.01525 0.57547 0.81387 0.0
C1274 C 0.00527 0.52843 0.85752 0.0
C1275 C 0.98661 0.51858 0.87415 0.0
C1276 C 0.99104 0.5301 0.89891 0.0
C1277 C 0.01419 0.5517 0.90741 0.0
C1278 C 0.03298 0.56124 0.89078 0.0
C1279 C 0.02852 0.54971 0.866 0.0
C1280 C -0.00093 0.4802 0.84555 0.0
C1281 C 0.97693 0.45945 0.85149 0.0
C1282 C 0.97662 0.44834 0.87383 0.0
C1283 C 0.99846 0.45777 0.89071 0.0
C1284 C 0.02099 0.47765 0.88405 0.0
C1285 C 0.02126 0.4889 0.86162 0.0
C1286 C 0.96315 0.45252 0.67407 0.0
C1287 C 0.99455 0.61909 0.83608 0.0
H1288 H 0.4778 0.49718 0.64358 0.0
H1289 H 0.66421 0.66999 0.86785 0.0
H1290 H 0.44949 0.49351 0.77167 0.0
H1291 H 0.42481 0.45035 0.75191 0.0
H1292 H 0.4708 0.43244 0.7992 0.0
H1293 H 0.49582 0.47538 0.8177 0.0
H1294 H 0.49309 0.54497 0.74696 0.0
H1295 H 0.48474 0.52985 0.70143 0.0
H1296 H 0.50575 0.47681 0.71885 0.0
H1297 H 0.51431 0.49231 0.76424 0.0
H1298 H 0.54638 0.59421 0.77063 0.0
H1299 H 0.57977 0.61225 0.74213 0.0
H1300 H 0.59323 0.55294 0.75367 0.0
H1301 H 0.5599 0.53509 0.78126 0.0
H1302 H 0.54076 0.6045 0.83737 0.0
H1303 H 0.57896 0.64377 0.85359 0.0
H1304 H 0.62189 0.60941 0.84262 0.0
H1305 H 0.58357 0.57028 0.82666 0.0
H1306 H 0.50196 0.56332 0.87617 0.0
H1307 H 0.51282 0.56791 0.92301 0.0
H1308 H 0.56628 0.54666 0.91064 0.0
H1309 H 0.55563 0.54232 0.86437 0.0
H1310 H 0.4532 0.51606 0.83954 0.0
H1311 H 0.42747 0.49334 0.87322 0.0
H1312 H 0.48078 0.47321 0.89726 0.0
H1313 H 0.5062 0.49576 0.86353 0.0
O1314 O 0.48129 0.50293 0.66165 0.0
O1315 O 0.49221 0.47596 0.67163 0.0
O1316 O 0.62604 0.67179 0.86591 0.0
O1317 O 0.64884 0.65478 0.86131 0.0
C1318 C 0.49287 0.51418 0.80426 0.0
C1319 C 0.50897 0.52887 0.78647 0.0
C1320 C 0.5309 0.55184 0.79508 0.0
C1321 C 0.53614 0.56084 0.82128 0.0
C1322 C 0.51984 0.54639 0.83904 0.0
C1323 C 0.49809 0.52319 0.83045 0.0
C1324 C 0.47428 0.48753 0.79634 0.0
C1325 C 0.45377 0.48006 0.77812 0.0
C1326 C 0.43977 0.45547 0.76685 0.0
C1327 C 0.44618 0.43816 0.77371 0.0
C1328 C 0.46573 0.44546 0.79312 0.0
C1329 C 0.47974 0.4699 0.80414 0.0
C1330 C 0.50397 0.51952 0.75889 0.0
C1331 C 0.49585 0.53007 0.74087 0.0
C1332 C 0.49109 0.5214 0.7149 0.0
C1333 C 0.49447 0.50204 0.70651 0.0
C1334 C 0.50286 0.49167 0.72467 0.0
C1335 C 0.50767 0.50041 0.75061 0.0
C1336 C 0.55072 0.56331 0.77777 0.0
C1337 C 0.55652 0.58515 0.76672 0.0
C1338 C 0.57555 0.59538 0.75054 0.0
C1339 C 0.58893 0.58383 0.74532 0.0
C1340 C 0.58289 0.56195 0.7566 0.0
C1341 C 0.56399 0.55182 0.77258 0.0
C1342 C 0.55946 0.58469 0.83052 0.0
C1343 C 0.55846 0.60557 0.83838 0.0
C1344 C 0.5803 0.62794 0.84766 0.0
C1345 C 0.60351 0.62975 0.84933 0.0
C1346 C 0.60436 0.6087 0.8415 0.0
C1347 C 0.58252 0.58636 0.83224 0.0
C1348 C 0.5282 0.55272 0.86693 0.0
C1349 C 0.51636 0.56018 0.88366 0.0
C1350 C 0.52248 0.56271 0.91027 0.0
C1351 C 0.54016 0.55736 0.92026 0.0
C1352 C 0.55241 0.55064 0.90336 0.0
C1353 C 0.54656 0.54842 0.87698 0.0
C1354 C 0.48155 0.50761 0.84925 0.0
C1355 C 0.45908 0.50645 0.8519 0.0
C1356 C 0.44453 0.49359 0.87115 0.0
C1357 C 0.45217 0.48155 0.88783 0.0
C1358 C 0.47429 0.48206 0.88449 0.0
C1359 C 0.48888 0.49504 0.86538 0.0
C1360 C 0.48929 0.4928 0.67892 0.0
C1361 C 0.62674 0.65341 0.85935 0.0
H1362 H 0.67652 0.87195 0.76959 0.0
H1363 H 0.68285 0.69259 0.57463 0.0
H1364 H 0.63849 0.85625 0.63232 0.0
H1365 H 0.6443 0.89649 0.64648 0.0
H1366 H 0.71612 0.93382 0.61696 0.0
H1367 H 0.70994 0.89351 0.60262 0.0
H1368 H 0.64336 0.81677 0.66786 0.0
H1369 H 0.65059 0.83429 0.71241 0.0
H1370 H 0.7232 0.89494 0.69826 0.0
H1371 H 0.71584 0.87705 0.65385 0.0
H1372 H 0.64413 0.76903 0.64582 0.0
H1373 H 0.65852 0.74734 0.67248 0.0
H1374 H 0.73418 0.81001 0.6759 0.0
H1375 H 0.71967 0.83135 0.64892 0.0
H1376 H 0.62643 0.7565 0.5849 0.0
H1377 H 0.62385 0.71701 0.57511 0.0
H1378 H 0.70402 0.75453 0.59087 0.0
H1379 H 0.70633 0.79392 0.60028 0.0
H1380 H 0.62132 0.79058 0.54809 0.0
H1381 H 0.6133 0.76986 0.5049 0.0
H1382 H 0.69134 0.79406 0.50693 0.0
H1383 H 0.69872 0.81358 0.55051 0.0
H1384 H 0.63356 0.84944 0.56606 0.0
H1385 H 0.63741 0.87455 0.53023 0.0
H1386 H 0.70877 0.88356 0.51939 0.0
H1387 H 0.70515 0.85953 0.55535 0.0
O1388 O 0.67411 0.86528 0.75195 0.0
O1389 O 0.71125 0.8961 0.74367 0.0
O1390 O 0.6422 0.68959 0.57014 0.0
O1391 O 0.68333 0.70795 0.57828 0.0
C1392 C 0.67135 0.84768 0.61034 0.0
C1393 C 0.67428 0.83511 0.63055 0.0
C1394 C 0.67336 0.81262 0.62498 0.0
C1395 C 0.66795 0.80186 0.59938 0.0
C1396 C 0.66495 0.81433 0.57925 0.0
C1397 C 0.66743 0.83762 0.58462 0.0
C1398 C 0.67372 0.87199 0.61631 0.0
C1399 C 0.65529 0.87316 0.62861 0.0
C1400 C 0.65875 0.89614 0.63687 0.0
C1401 C 0.68075 0.91838 0.63299 0.0
C1402 C 0.69884 0.91708 0.61998 0.0
C1403 C 0.69536 0.89408 0.61174 0.0
C1404 C 0.67898 0.84575 0.65761 0.0
C1405 C 0.66083 0.83381 0.67446 0.0
C1406 C 0.665 0.84388 0.69987 0.0
C1407 C 0.68745 0.86607 0.70888 0.0
C1408 C 0.70568 0.87787 0.69193 0.0
C1409 C 0.7015 0.86775 0.66654 0.0
C1410 C 0.68087 0.80168 0.64538 0.0
C1411 C 0.6637 0.77829 0.65291 0.0
C1412 C 0.67196 0.766 0.66818 0.0
C1413 C 0.69753 0.77693 0.67609 0.0
C1414 C 0.71443 0.80105 0.66986 0.0
C1415 C 0.70615 0.81333 0.65466 0.0
C1416 C 0.66654 0.77798 0.59342 0.0
C1417 C 0.6434 0.75612 0.58617 0.0
C1418 C 0.64199 0.73361 0.58063 0.0
C1419 C 0.66374 0.7326 0.58227 0.0
C1420 C 0.68691 0.75463 0.58946 0.0
C1421 C 0.68829 0.77714 0.59491 0.0
C1422 C 0.66055 0.80348 0.55235 0.0
C1423 C 0.63663 0.79145 0.53906 0.0
C1424 C 0.63216 0.77975 0.51433 0.0
C1425 C 0.65165 0.78014 0.50236 0.0
C1426 C 0.67576 0.79287 0.51566 0.0
C1427 C 0.6801 0.80426 0.54047 0.0
C1428 C 0.66907 0.85266 0.5632 0.0
C1429 C 0.65002 0.85701 0.55593 0.0
C1430 C 0.65218 0.87119 0.53542 0.0
C1431 C 0.6735 0.88124 0.5221 0.0
C1432 C 0.69235 0.87658 0.52952 0.0
C1433 C 0.69022 0.86262 0.54991 0.0
C1434 C 0.69175 0.87679 0.73585 0.0
C1435 C 0.66234 0.70872 0.57651 0.0
H1436 H 0.16499 0.83409 0.77631 0.0
H1437 H 0.03898 0.63757 0.55279 0.0
H1438 H 0.16439 0.84538 0.63712 0.0
H1439 H 0.18845 0.88922 0.652 0.0
H1440 H 0.2565 0.89134 0.63989 0.0
H1441 H 0.23196 0.84641 0.6267 0.0
H1442 H 0.13645 0.81119 0.66567 0.0
H1443 H 0.1425 0.82172 0.71202 0.0
H1444 H 0.20614 0.81321 0.71738 0.0
H1445 H 0.19964 0.80233 0.67097 0.0
H1446 H 0.10065 0.77549 0.61937 0.0
H1447 H 0.06707 0.75976 0.64691 0.0
H1448 H 0.10334 0.73109 0.69369 0.0
H1449 H 0.13748 0.74718 0.66576 0.0
H1450 H 0.10009 0.7615 0.56806 0.0
H1451 H 0.06402 0.72181 0.54918 0.0
H1452 H 0.09485 0.68298 0.58664 0.0
H1453 H 0.13098 0.72285 0.60519 0.0
H1454 H 0.14408 0.81071 0.55334 0.0
H1455 H 0.13416 0.8046 0.50705 0.0
H1456 H 0.14715 0.74405 0.50337 0.0
H1457 H 0.15743 0.75057 0.55034 0.0
H1458 H 0.18722 0.85443 0.58172 0.0
H1459 H 0.21266 0.87872 0.54897 0.0
H1460 H 0.23196 0.82342 0.53353 0.0
H1461 H 0.20858 0.80084 0.56784 0.0
O1462 O 0.16291 0.82983 0.75798 0.0
O1463 O 0.1956 0.8254 0.75968 0.0
O1464 O 0.03803 0.6744 0.54116 0.0
O1465 O 0.05308 0.65354 0.55997 0.0
C1466 C 0.18056 0.81599 0.62104 0.0
C1467 C 0.16371 0.79884 0.63682 0.0
C1468 C 0.14308 0.77583 0.62576 0.0
C1469 C 0.1403 0.76911 0.59917 0.0
C1470 C 0.15766 0.78581 0.58351 0.0
C1471 C 0.17815 0.80905 0.59452 0.0
C1472 C 0.1964 0.84257 0.63116 0.0
C1473 C 0.18454 0.8551 0.6383 0.0
C1474 C 0.19835 0.88035 0.64637 0.0
C1475 C 0.22443 0.89399 0.64678 0.0
C1476 C 0.23645 0.88136 0.63999 0.0
C1477 C 0.2225 0.85576 0.63231 0.0
C1478 C 0.16737 0.80559 0.66499 0.0
C1479 C 0.15152 0.81134 0.67689 0.0
C1480 C 0.15511 0.81749 0.70338 0.0
C1481 C 0.17475 0.81821 0.71844 0.0
C1482 C 0.19078 0.81274 0.70637 0.0
C1483 C 0.18712 0.80653 0.67987 0.0
C1484 C 0.12137 0.7623 0.64047 0.0
C1485 C 0.10114 0.76531 0.63517 0.0
C1486 C 0.08218 0.75663 0.65107 0.0
C1487 C 0.08298 0.74465 0.67253 0.0
C1488 C 0.10254 0.74043 0.67724 0.0
C1489 C 0.12184 0.74943 0.66133 0.0
C1490 C 0.11832 0.74505 0.58768 0.0
C1491 C 0.09914 0.74442 0.57196 0.0
C1492 C 0.07849 0.72171 0.5613 0.0
C1493 C 0.07659 0.69921 0.56632 0.0
C1494 C 0.09576 0.69995 0.58231 0.0
C1495 C 0.11642 0.72268 0.59293 0.0
C1496 C 0.15183 0.78134 0.55516 0.0
C1497 C 0.14517 0.79635 0.54256 0.0
C1498 C 0.13961 0.79289 0.51608 0.0
C1499 C 0.14032 0.77412 0.50151 0.0
C1500 C 0.1466 0.75874 0.51414 0.0
C1501 C 0.15245 0.76241 0.54085 0.0
C1502 C 0.19634 0.82602 0.57752 0.0
C1503 C 0.19782 0.84817 0.57198 0.0
C1504 C 0.21199 0.86177 0.55279 0.0
C1505 C 0.22436 0.85308 0.53824 0.0
C1506 C 0.22331 0.83121 0.5445 0.0
C1507 C 0.20974 0.81806 0.56408 0.0
C1508 C 0.17847 0.82469 0.74659 0.0
C1509 C 0.05471 0.67503 0.55502 0.0
H1510 H 0.21626 0.35688 0.78275 0.0
H1511 H 0.01215 0.30017 0.57132 0.0
H1512 H 0.23262 0.36922 0.6508 0.0
H1513 H 0.26396 0.36179 0.67072 0.0
H1514 H 0.22324 0.28703 0.63281 0.0
H1515 H 0.1926 0.29499 0.61251 0.0
H1516 H 0.1865 0.36985 0.67964 0.0
H1517 H 0.19982 0.37115 0.72483 0.0
H1518 H 0.18929 0.29835 0.71015 0.0
H1519 H 0.17562 0.29713 0.66513 0.0
H1520 H 0.12888 0.3574 0.65066 0.0
H1521 H 0.09248 0.34182 0.67459 0.0
H1522 H 0.09437 0.27554 0.68529 0.0
H1523 H 0.12882 0.29005 0.65925 0.0
H1524 H 0.13642 0.36875 0.59194 0.0
H1525 H 0.09685 0.36525 0.57834 0.0
H1526 H 0.05718 0.2878 0.59268 0.0
H1527 H 0.09689 0.29149 0.60595 0.0
H1528 H 0.17957 0.37382 0.55958 0.0
H1529 H 0.16709 0.37308 0.51404 0.0
H1530 H 0.11026 0.29524 0.51292 0.0
H1531 H 0.12315 0.29609 0.55803 0.0
H1532 H 0.22682 0.37544 0.58839 0.0
H1533 H 0.24899 0.38034 0.55046 0.0
H1534 H 0.19387 0.30434 0.52164 0.0
H1535 H 0.1725 0.29945 0.56001 0.0
O1536 O 0.21072 0.35588 0.76485 0.0
O1537 O 0.20514 0.31849 0.75626 0.0
O1538 O 0.04935 0.34192 0.56936 0.0
O1539 O 0.02805 0.30206 0.57656 0.0
C1540 C 0.18865 0.3349 0.62274 0.0
C1541 C 0.17293 0.33332 0.64153 0.0
C1542 C 0.15005 0.33143 0.63417 0.0
C1543 C 0.1436 0.33267 0.60818 0.0
C1544 C 0.15972 0.33517 0.58959 0.0
C1545 C 0.182 0.3358 0.5968 0.0
C1546 C 0.2104 0.33267 0.63016 0.0
C1547 C 0.23095 0.35153 0.64626 0.0
C1548 C 0.24859 0.34707 0.65792 0.0
C1549 C 0.24594 0.32365 0.65374 0.0
C1550 C 0.22607 0.30534 0.63635 0.0
C1551 C 0.20854 0.30987 0.62462 0.0
C1552 C 0.18035 0.33353 0.66907 0.0
C1553 C 0.187 0.35417 0.68626 0.0
C1554 C 0.19465 0.35488 0.71204 0.0
C1555 C 0.19574 0.3349 0.72108 0.0
C1556 C 0.18877 0.3141 0.70381 0.0
C1557 C 0.18105 0.31339 0.67806 0.0
C1558 C 0.13139 0.32477 0.65293 0.0
C1559 C 0.12148 0.3396 0.65836 0.0
C1560 C 0.1008 0.33074 0.67229 0.0
C1561 C 0.0901 0.30715 0.68151 0.0
C1562 C 0.10156 0.29342 0.67785 0.0
C1563 C 0.12164 0.30192 0.66333 0.0
C1564 C 0.11949 0.33042 0.60006 0.0
C1565 C 0.11915 0.35105 0.59209 0.0
C1566 C 0.09653 0.349 0.58436 0.0
C1567 C 0.07383 0.32624 0.58447 0.0
C1568 C 0.07429 0.30559 0.59241 0.0
C1569 C 0.09693 0.30765 0.60005 0.0
C1570 C 0.15218 0.33503 0.56209 0.0
C1571 C 0.16447 0.35665 0.5494 0.0
C1572 C 0.15727 0.3562 0.52347 0.0
C1573 C 0.13776 0.33407 0.50984 0.0
C1574 C 0.1256 0.31249 0.52272 0.0
C1575 C 0.13276 0.31297 0.54856 0.0
C1576 C 0.19802 0.33715 0.5768 0.0
C1577 C 0.22001 0.35968 0.5742 0.0
C1578 C 0.23244 0.36251 0.55239 0.0
C1579 C 0.22298 0.34285 0.53281 0.0
C1580 C 0.20179 0.31981 0.53637 0.0
C1581 C 0.18949 0.31698 0.55824 0.0
C1582 C 0.20412 0.33583 0.74842 0.0
C1583 C 0.04974 0.32398 0.57633 0.0
C1584 C 0.952 0.40287 0.10926 0.0
C1585 C 0.97195 0.40938 0.09461 0.0
H1586 H 0.94051 0.40783 0.14523 0.0
C1587 C 0.99624 0.42733 0.1053 0.0
H1588 H 0.93308 0.38892 0.10153 0.0
C1589 C 0.00048 0.43882 0.13006 0.0
C1590 C 0.98058 0.43218 0.145 0.0
H1591 H 0.01195 0.43291 0.0943 0.0
H1592 H 0.01939 0.45319 0.13728 0.0
C1593 C 0.95628 0.41391 0.13427 0.0
C1594 C 0.59745 0.53519 0.14749 0.0
C1595 C 0.58834 0.54732 0.133 0.0
H1596 H 0.5953 0.51672 0.18099 0.0
C1597 C 0.5695 0.55026 0.14173 0.0
H1598 H 0.61223 0.53298 0.1412 0.0
C1599 C 0.55892 0.53997 0.16394 0.0
C1600 C 0.56754 0.52719 0.17835 0.0
H1601 H 0.56207 0.55939 0.13068 0.0
H1602 H 0.5433 0.54122 0.16908 0.0
C1603 C 0.58751 0.52565 0.17017 0.0
C1604 C 0.44783 0.02276 0.11719 0.0
C1605 C 0.45028 0.00842 0.09769 0.0
H1606 H 0.45434 0.03473 0.15734 0.0
C1607 C 0.46487 0.99818 0.10349 0.0
H1608 H 0.43661 0.03081 0.11333 0.0
C1609 C 0.47527 0.00067 0.12858 0.0
C1610 C 0.47103 0.01316 0.14857 0.0
H1611 H 0.46737 0.98728 0.08882 0.0
H1612 H 0.48581 0.99192 0.13249 0.0
C1613 C 0.45802 0.02502 0.14243 0.0
C1614 C 0.43784 0.01126 0.95069 0.0
C1615 C 0.41923 0.98839 0.95801 0.0
H1616 H 0.46099 0.03048 0.92167 0.0
C1617 C 0.40749 0.96746 0.93994 0.0
H1618 H 0.44722 0.02766 0.96434 0.0
C1619 C 0.41464 0.96917 0.91516 0.0
C1620 C 0.4343 0.99171 0.90806 0.0
H1621 H 0.39276 0.94967 0.945 0.0
H1622 H 0.40496 0.95264 0.90174 0.0
C1623 C 0.44553 0.01286 0.92609 0.0
C1624 C 0.00852 0.4284 0.94815 0.0
C1625 C 0.98913 0.42533 0.96236 0.0
H1626 H 0.02678 0.44123 0.91402 0.0
C1627 C 0.97467 0.43506 0.95387 0.0
H1628 H 0.02 0.42114 0.9542 0.0
C1629 C 0.97842 0.44623 0.93106 0.0
C1630 C 0.99679 0.44811 0.91612 0.0
H1631 H 0.95982 0.4334 0.96445 0.0
H1632 H 0.96653 0.45299 0.9248 0.0
C1633 C 0.01238 0.43982 0.92519 0.0
C1634 C 0.55339 0.53825 0.98316 0.0
C1635 C 0.56481 0.56069 0.9991 0.0
H1636 H 0.53648 0.51971 0.94569 0.0
C1637 C 0.56473 0.58115 0.98986 0.0
H1638 H 0.55286 0.52203 0.98968 0.0
C1639 C 0.55512 0.57968 0.96454 0.0
C1640 C 0.54564 0.55781 0.94815 0.0
H1641 H 0.57329 0.59868 0.00166 0.0
H1642 H 0.55652 0.59605 0.95734 0.0
C1643 C 0.54403 0.53688 0.95795 0.0
C1644 C 0.04504 0.58501 0.97346 0.0
C1645 C 0.02646 0.58798 0.98319 0.0
H1646 H 0.05563 0.57101 0.94203 0.0
C1647 C 0.00402 0.57937 0.96759 0.0
H1648 H 0.06253 0.5914 0.98498 0.0
C1649 C 0.00011 0.56769 0.94298 0.0
C1650 C 0.01855 0.56444 0.9334 0.0
H1651 H 0.98934 0.58141 0.97444 0.0
H1652 H 0.98266 0.56132 0.93138 0.0
C1653 C 0.04114 0.57341 0.94882 0.0
C1654 C 0.42222 0.43692 0.93817 0.0
C1655 C 0.4157 0.45037 0.9545 0.0
H1656 H 0.43886 0.43626 0.90409 0.0
C1657 C 0.41974 0.47329 0.94775 0.0
H1658 H 0.41933 0.4192 0.94283 0.0
C1659 C 0.43076 0.48294 0.92558 0.0
C1660 C 0.43815 0.46997 0.90978 0.0
H1661 H 0.41483 0.48408 0.95987 0.0
H1662 H 0.43436 0.50102 0.92134 0.0
C1663 C 0.43349 0.44671 0.91608 0.0
C1664 C 0.54187 0.01096 0.9816 0.0
C1665 C 0.55634 0.00062 0.98736 0.0
H1666 H 0.51968 0.01595 0.95296 0.0
C1667 C 0.55789 0.98535 0.96825 0.0
H1668 H 0.54012 0.02257 0.99609 0.0
C1669 C 0.54682 0.98216 0.94325 0.0
C1670 C 0.53362 0.99383 0.93703 0.0
H1671 H 0.56907 0.97727 0.97215 0.0
H1672 H 0.54991 0.97176 0.92857 0.0
C1673 C 0.53037 0.00735 0.95681 0.0
C1674 C 0.58387 0.0032 0.14046 0.0
C1675 C 0.58463 0.02145 0.12569 0.0
H1676 H 0.57566 0.98664 0.17592 0.0
C1677 C 0.57738 0.0373 0.13595 0.0
H1678 H 0.58952 0.99082 0.13313 0.0
C1679 C 0.56908 0.03467 0.16022 0.0
C1680 C 0.56818 0.01636 0.17505 0.0
H1681 H 0.57755 0.05142 0.12498 0.0
H1682 H 0.56273 0.04661 0.16702 0.0
C1683 C 0.57586 0.00077 0.16494 0.0
C1684 C 0.99007 0.57229 0.13216 0.0
C1685 C 0.00056 0.5669 0.11198 0.0
H1686 H 0.9809 0.56646 0.17091 0.0
C1687 C 0.00619 0.54833 0.11397 0.0
H1688 H 0.98577 0.5867 0.13112 0.0
C1689 C 0.00326 0.53671 0.13643 0.0
C1690 C 0.99502 0.54367 0.15762 0.0
H1691 H 0.01408 0.54367 0.09856 0.0
H1692 H 0.00857 0.52303 0.13762 0.0
C1693 C 0.98739 0.56079 0.15493 0.0
C1694 C 0.43214 0.40663 0.09596 0.0
C1695 C 0.43904 0.42794 0.08317 0.0
H1696 H 0.43632 0.39245 0.13099 0.0
C1697 C 0.45892 0.45107 0.09441 0.0
H1698 H 0.41687 0.38856 0.08772 0.0
C1699 C 0.4702 0.45323 0.1189 0.0
C1700 C 0.46163 0.43237 0.13283 0.0
H1701 H 0.4649 0.46775 0.08481 0.0
H1702 H 0.48471 0.47151 0.12755 0.0
C1703 C 0.44331 0.40885 0.1207 0.0
C1704 C 0.62463 0.75325 0.43338 0.0
C1705 C 0.63739 0.74129 0.42735 0.0
H1706 H 0.61962 0.77548 0.46136 0.0
C1707 C 0.6549 0.74227 0.44606 0.0
H1708 H 0.61115 0.75297 0.4193 0.0
C1709 C 0.65941 0.75476 0.47034 0.0
C1710 C 0.6468 0.7669 0.47641 0.0
H1711 H 0.66488 0.73306 0.44209 0.0
H1712 H 0.67253 0.75452 0.48447 0.0
C1713 C 0.6294 0.76604 0.45757 0.0
C1714 C 0.26667 0.87304 0.4848 0.0
C1715 C 0.25675 0.88387 0.4693 0.0
H1716 H 0.26553 0.85644 0.51944 0.0
C1717 C 0.23756 0.88654 0.47749 0.0
H1718 H 0.28177 0.87114 0.47899 0.0
C1719 C 0.22743 0.87716 0.50021 0.0
C1720 C 0.23682 0.86557 0.51555 0.0
H1721 H 0.22958 0.89476 0.4657 0.0
H1722 H 0.21158 0.87812 0.50508 0.0
C1723 C 0.25715 0.86442 0.50788 0.0
C1724 C 0.11582 0.34992 0.4486 0.0
C1725 C 0.10825 0.32867 0.43178 0.0
H1726 H 0.13094 0.36825 0.48657 0.0
C1727 C 0.11272 0.31047 0.44016 0.0
H1728 H 0.11264 0.36429 0.44278 0.0
C1729 C 0.12324 0.31278 0.46515 0.0
C1730 C 0.12953 0.33332 0.48243 0.0
H1731 H 0.10739 0.29397 0.42767 0.0
H1732 H 0.12595 0.29816 0.47112 0.0
C1733 C 0.12636 0.35222 0.47369 0.0
C1734 C 0.07389 0.29934 0.27344 0.0
C1735 C 0.08504 0.32012 0.29172 0.0
H1736 H 0.07214 0.2851 0.23518 0.0
C1737 C 0.10351 0.34325 0.28474 0.0
H1738 H 0.05927 0.28135 0.27817 0.0
C1739 C 0.11144 0.34532 0.26022 0.0
C1740 C 0.10066 0.32439 0.24197 0.0
H1741 H 0.11243 0.35956 0.2985 0.0
H1742 H 0.12663 0.36318 0.25595 0.0
C1743 C 0.08137 0.30151 0.24879 0.0
C1744 C 0.66956 0.76184 0.29093 0.0
C1745 C 0.64791 0.73842 0.29158 0.0
H1746 H 0.68957 0.793 0.26933 0.0
C1747 C 0.63112 0.727 0.26936 0.0
H1748 H 0.6827 0.77101 0.30794 0.0
C1749 C 0.63536 0.73909 0.24706 0.0
C1750 C 0.65609 0.76331 0.24667 0.0
H1751 H 0.61446 0.70876 0.26933 0.0
H1752 H 0.62198 0.72956 0.23029 0.0
C1753 C 0.67349 0.77432 0.26873 0.0
C1754 C 0.22886 0.8705 0.3158 0.0
C1755 C 0.23747 0.89237 0.332 0.0
H1756 H 0.214 0.85175 0.27808 0.0
C1757 C 0.23514 0.91156 0.32253 0.0
H1758 H 0.23014 0.85525 0.32245 0.0
C1759 C 0.22579 0.90946 0.29697 0.0
C1760 C 0.21881 0.88825 0.28044 0.0
H1761 H 0.24154 0.92863 0.33451 0.0
H1762 H 0.22521 0.92491 0.28981 0.0
C1763 C 0.21972 0.86851 0.29032 0.0
C1764 C 0.67377 0.91046 0.30505 0.0
C1765 C 0.69562 0.91822 0.32134 0.0
H1766 H 0.6526 0.89202 0.2689 0.0
C1767 C 0.71286 0.9123 0.31334 0.0
H1768 H 0.66014 0.91476 0.31058 0.0
C1769 C 0.70844 0.89909 0.28951 0.0
C1770 C 0.68668 0.8915 0.27315 0.0
H1771 H 0.72983 0.91791 0.32546 0.0
H1772 H 0.72201 0.89472 0.28395 0.0
C1773 C 0.66936 0.89726 0.28123 0.0
C1774 C 0.09496 0.76873 0.27509 0.0
C1775 C 0.08913 0.78269 0.29156 0.0
H1776 H 0.1103 0.76704 0.24034 0.0
C1777 C 0.09352 0.8057 0.28467 0.0
H1778 H 0.09179 0.75093 0.27987 0.0
C1779 C 0.10401 0.81483 0.26215 0.0
C1780 C 0.11045 0.80123 0.246 0.0
H1781 H 0.08921 0.81693 0.29688 0.0
H1782 H 0.10779 0.83294 0.25781 0.0
C1783 C 0.10565 0.77798 0.25255 0.0
C1784 C 0.21452 0.32424 0.30741 0.0
C1785 C 0.23226 0.34805 0.3193 0.0
H1786 H 0.18917 0.30274 0.27419 0.0
C1787 C 0.23797 0.36884 0.30607 0.0
H1788 H 0.20968 0.30786 0.31716 0.0
C1789 C 0.22683 0.36594 0.28129 0.0
C1790 C 0.2092 0.34217 0.26912 0.0
H1791 H 0.25179 0.38746 0.31448 0.0
H1792 H 0.23277 0.38246 0.27145 0.0
C1793 C 0.20294 0.32133 0.28267 0.0
C1794 C 0.24991 0.37236 0.47252 0.0
C1795 C 0.25129 0.35351 0.45898 0.0
H1796 H 0.23966 0.38366 0.50614 0.0
C1797 C 0.24419 0.33142 0.47035 0.0
H1798 H 0.25518 0.38959 0.46432 0.0
C1799 C 0.2356 0.32816 0.49459 0.0
C1800 C 0.23385 0.34687 0.50794 0.0
H1801 H 0.2452 0.3166 0.46053 0.0
H1802 H 0.23029 0.31095 0.50284 0.0
C1803 C 0.24123 0.36905 0.49665 0.0
C1804 C 0.6611 0.90283 0.45948 0.0
C1805 C 0.68519 0.92257 0.45638 0.0
H1806 H 0.63845 0.87384 0.48274 0.0
C1807 C 0.70447 0.93011 0.47618 0.0
H1808 H 0.64591 0.8967 0.44451 0.0
C1809 C 0.70018 0.91746 0.49802 0.0
C1810 C 0.67658 0.89662 0.50051 0.0
H1811 H 0.72312 0.9456 0.47458 0.0
H1812 H 0.71561 0.92366 0.51274 0.0
C1813 C 0.65685 0.88983 0.48137 0.0
C1814 C 0.10499 0.74376 0.43616 0.0
C1815 C 0.11145 0.76481 0.42304 0.0
H1816 H 0.10907 0.73023 0.47169 0.0
C1817 C 0.13049 0.7883 0.43444 0.0
H1818 H 0.09037 0.72542 0.42781 0.0
C1819 C 0.14134 0.791 0.4593 0.0
C1820 C 0.13318 0.7703 0.47343 0.0
H1821 H 0.13614 0.80481 0.42463 0.0
H1822 H 0.15521 0.8095 0.468 0.0
C1823 C 0.11573 0.7465 0.46125 0.0
C1824 C 0.32906 0.08845 0.77084 0.0
C1825 C 0.3099 0.08458 0.75243 0.0
H1826 H 0.34634 0.10162 0.80935 0.0
C1827 C 0.29361 0.09226 0.75916 0.0
H1828 H 0.34187 0.08266 0.76637 0.0
C1829 C 0.29634 0.10338 0.78381 0.0
C1830 C 0.31537 0.10703 0.8023 0.0
H1831 H 0.2787 0.08966 0.74541 0.0
H1832 H 0.28362 0.10928 0.78832 0.0
C1833 C 0.33173 0.09947 0.79548 0.0
C1834 C 0.90168 0.22259 0.80273 0.0
C1835 C 0.92009 0.21893 0.79397 0.0
H1836 H 0.8758 0.21453 0.83029 0.0
C1837 C 0.92875 0.20648 0.80856 0.0
H1838 H 0.89464 0.23204 0.79163 0.0
C1839 C 0.91877 0.19733 0.83133 0.0
C1840 C 0.89921 0.19957 0.83953 0.0
H1841 H 0.94321 0.20376 0.8023 0.0
H1842 H 0.92621 0.18812 0.84222 0.0
C1843 C 0.89107 0.2127 0.82507 0.0
C1844 C 0.78072 0.6822 0.77986 0.0
C1845 C 0.77393 0.66102 0.76328 0.0
H1846 H 0.79477 0.7007 0.8179 0.0
C1847 C 0.77876 0.64322 0.77219 0.0
H1848 H 0.77725 0.69627 0.77363 0.0
C1849 C 0.7888 0.64579 0.79745 0.0
C1850 C 0.79425 0.66621 0.81447 0.0
H1851 H 0.77403 0.6268 0.7599 0.0
H1852 H 0.79176 0.63145 0.80384 0.0
C1853 C 0.79079 0.68477 0.80522 0.0
C1854 C 0.77071 0.67534 0.61678 0.0
C1855 C 0.75264 0.65181 0.62332 0.0
H1856 H 0.79459 0.69619 0.58888 0.0
C1857 C 0.74296 0.63118 0.60504 0.0
H1858 H 0.77852 0.69156 0.63054 0.0
C1859 C 0.75154 0.63388 0.58088 0.0
C1860 C 0.77048 0.65721 0.57458 0.0
H1861 H 0.72868 0.61286 0.60941 0.0
H1862 H 0.74344 0.61756 0.56724 0.0
C1863 C 0.77973 0.67799 0.59276 0.0
C1864 C 0.32358 0.07197 0.59546 0.0
C1865 C 0.33355 0.08657 0.61905 0.0
H1866 H 0.31831 0.07143 0.5547 0.0
C1867 C 0.34816 0.11251 0.61947 0.0
H1868 H 0.31199 0.05191 0.59482 0.0
C1869 C 0.35157 0.12378 0.59652 0.0
C1870 C 0.34021 0.1092 0.57292 0.0
H1871 H 0.35558 0.12406 0.63757 0.0
H1872 H 0.36165 0.14387 0.59743 0.0
C1873 C 0.327 0.08316 0.57259 0.0
C1874 C 0.88763 0.20999 0.64345 0.0
C1875 C 0.89873 0.23231 0.65955 0.0
H1876 H 0.87052 0.19149 0.60601 0.0
C1877 C 0.89811 0.25259 0.65058 0.0
H1878 H 0.88753 0.19392 0.64974 0.0
C1879 C 0.88812 0.25105 0.62542 0.0
C1880 C 0.87881 0.2293 0.60889 0.0
H1881 H 0.90641 0.27002 0.66252 0.0
H1882 H 0.88899 0.26727 0.61845 0.0
C1883 C 0.8779 0.20856 0.61838 0.0
C1884 C 0.38441 0.25169 0.63457 0.0
C1885 C 0.36612 0.25508 0.64439 0.0
H1886 H 0.39423 0.23663 0.60335 0.0
C1887 C 0.34326 0.24578 0.62935 0.0
H1888 H 0.40221 0.25857 0.64568 0.0
C1889 C 0.33873 0.23323 0.60512 0.0
C1890 C 0.35697 0.22976 0.59535 0.0
H1891 H 0.32878 0.24811 0.63631 0.0
H1892 H 0.32102 0.22648 0.59388 0.0
C1893 C 0.37989 0.2392 0.61029 0.0
C1894 C 0.75008 0.14092 0.60838 0.0
C1895 C 0.74717 0.11845 0.61525 0.0
H1896 H 0.76384 0.16878 0.58211 0.0
C1897 C 0.75493 0.10594 0.59921 0.0
H1898 H 0.74422 0.15099 0.62025 0.0
C1899 C 0.76623 0.11622 0.57727 0.0
C1900 C 0.76972 0.13903 0.57085 0.0
H1901 H 0.75292 0.08859 0.60398 0.0
H1902 H 0.77251 0.10648 0.56548 0.0
C1903 C 0.76116 0.15105 0.5864 0.0
C1904 C 0.88726 0.66218 0.64123 0.0
C1905 C 0.9049 0.68607 0.65302 0.0
H1906 H 0.86231 0.64044 0.60788 0.0
C1907 C 0.91091 0.70674 0.63947 0.0
H1908 H 0.88218 0.64589 0.65123 0.0
C1909 C 0.90012 0.70364 0.61448 0.0
C1910 C 0.88258 0.67978 0.60243 0.0
H1911 H 0.92467 0.7254 0.64785 0.0
H1912 H 0.9062 0.72004 0.6044 0.0
C1913 C 0.87604 0.65908 0.61628 0.0
C1914 C 0.91692 0.7085 0.8058 0.0
C1915 C 0.91895 0.68997 0.79249 0.0
H1916 H 0.90532 0.71909 0.83883 0.0
C1917 C 0.91148 0.66767 0.80358 0.0
H1918 H 0.92245 0.72587 0.79778 0.0
C1919 C 0.90194 0.66392 0.82733 0.0
C1920 C 0.8996 0.68233 0.84047 0.0
H1921 H 0.91296 0.65308 0.79392 0.0
H1922 H 0.89641 0.64658 0.83541 0.0
C1923 C 0.90731 0.7047 0.82947 0.0
C1924 C 0.36116 0.23309 0.78461 0.0
C1925 C 0.34806 0.24424 0.77623 0.0
H1926 H 0.36687 0.21308 0.813 0.0
C1927 C 0.32895 0.24221 0.79021 0.0
H1928 H 0.3757 0.23391 0.77409 0.0
C1929 C 0.32403 0.23035 0.8129 0.0
C1930 C 0.33813 0.22037 0.82186 0.0
H1931 H 0.31853 0.25062 0.78419 0.0
H1932 H 0.3099 0.22984 0.8239 0.0
C1933 C 0.3562 0.22125 0.80703 0.0
C1934 C 0.7635 0.07804 0.75891 0.0
C1935 C 0.76937 0.09893 0.74578 0.0
H1936 H 0.76831 0.06481 0.79434 0.0
C1937 C 0.78807 0.1226 0.75708 0.0
H1938 H 0.74911 0.05957 0.75063 0.0
C1939 C 0.79931 0.12556 0.78182 0.0
C1940 C 0.79177 0.10497 0.796 0.0
H1941 H 0.79323 0.139 0.74723 0.0
H1942 H 0.81305 0.14418 0.79034 0.0
C1943 C 0.77454 0.08104 0.78392 0.0
C1944 C 0.04837 0.34361 0.03524 0.0
C1945 C 0.04247 0.36101 0.04408 0.0
H1946 H 0.06876 0.32587 0.04299 0.0
C1947 C 0.05301 0.37395 0.06851 0.0
H1948 H 0.04058 0.33333 0.01651 0.0
C1949 C 0.06869 0.36927 0.08394 0.0
C1950 C 0.07448 0.35171 0.07525 0.0
H1951 H 0.04865 0.38729 0.07607 0.0
H1952 H 0.07592 0.37914 0.10291 0.0
C1953 C 0.06429 0.3391 0.05059 0.0
C1954 C 0.618 0.68227 0.06448 0.0
C1955 C 0.62524 0.66847 0.07876 0.0
H1956 H 0.61746 0.71572 0.0633 0.0
C1957 C 0.63809 0.67849 0.1034 0.0
H1958 H 0.6081 0.67508 0.04545 0.0
C1959 C 0.64361 0.70183 0.11352 0.0
C1960 C 0.63609 0.71545 0.09934 0.0
H1961 H 0.644 0.66835 0.11486 0.0
H1962 H 0.65341 0.70906 0.13259 0.0
C1963 C 0.62324 0.70546 0.07473 0.0
C1964 C 0.31348 0.95642 0.04541 0.0
C1965 C 0.32824 0.946 0.04913 0.0
H1966 H 0.27899 0.95381 0.05116 0.0
C1967 C 0.31903 0.9244 0.06183 0.0
H1968 H 0.32014 0.97311 0.03567 0.0
C1969 C 0.29592 0.91379 0.07127 0.0
C1970 C 0.28102 0.92411 0.06774 0.0
H1971 H 0.33008 0.91612 0.06537 0.0
H1972 H 0.29019 0.89787 0.08207 0.0
C1973 C 0.29 0.94547 0.05447 0.0
C1974 C 0.39388 0.07735 0.01783 0.0
C1975 C 0.38009 0.06073 0.03552 0.0
H1976 H 0.39713 0.10489 0.99371 0.0
C1977 C 0.35965 0.06101 0.04417 0.0
H1978 H 0.40972 0.07762 0.01077 0.0
C1979 C 0.35241 0.07669 0.03435 0.0
C1980 C 0.3656 0.09255 0.01587 0.0
H1981 H 0.34863 0.04845 0.0578 0.0
H1982 H 0.3362 0.07605 0.04084 0.0
C1983 C 0.38673 0.09309 0.00815 0.0
C1984 C 0.93745 0.29051 0.00388 0.0
C1985 C 0.92753 0.305 0.99685 0.0
H1986 H 0.93229 0.25417 0.00173 0.0
C1987 C 0.90538 0.294 0.98028 0.0
H1988 H 0.95462 0.29859 0.01653 0.0
C1989 C 0.89304 0.26896 0.97135 0.0
C1990 C 0.90218 0.25403 0.97923 0.0
H1991 H 0.89757 0.3048 0.97403 0.0
H1992 H 0.87614 0.26126 0.95835 0.0
C1993 C 0.92478 0.26515 0.99526 0.0
C1994 C 0.70167 0.62852 0.05217 0.0
C1995 C 0.68428 0.60297 0.04605 0.0
H1996 H 0.73807 0.6595 0.04787 0.0
C1997 C 0.6909 0.58891 0.03088 0.0
H1998 H 0.69711 0.63985 0.06387 0.0
C1999 C 0.71397 0.60017 0.02131 0.0
C2000 C 0.73136 0.62578 0.02701 0.0
H2001 H 0.67789 0.56924 0.02555 0.0
H2002 H 0.71773 0.58879 0.00865 0.0
C2003 C 0.72505 0.6398 0.04284 0.0
C2004 C 0.94024 0.62487 0.0156 0.0
C2005 C 0.96583 0.64164 0.01457 0.0
H2006 H 0.90306 0.61651 0.00549 0.0
C2007 C 0.97351 0.66356 0.00262 0.0
H2008 H 0.93376 0.60784 0.02466 0.0
C2009 C 0.956 0.66859 0.99184 0.0
C2010 C 0.93043 0.65164 0.99247 0.0
H2011 H 0.99311 0.67692 0.00158 0.0
H2012 H 0.96246 0.68554 0.98262 0.0
C2013 C 0.92269 0.62976 0.0045 0.0
C2014 C 0.36617 0.31896 0.97489 0.0
C2015 C 0.35631 0.32036 0.99769 0.0
H2016 H 0.36903 0.29569 0.94619 0.0
C2017 C 0.34108 0.29836 0.00897 0.0
H2018 H 0.37784 0.33553 0.96559 0.0
C2019 C 0.33612 0.27551 0.99787 0.0
C2020 C 0.34626 0.27416 0.97524 0.0
H2021 H 0.3332 0.29878 0.02654 0.0
H2022 H 0.3248 0.25896 0.00735 0.0
C2023 C 0.3612 0.29613 0.9638 0.0
C2024 C 0.69253 0.0814 0.03067 0.0
C2025 C 0.67818 0.05654 0.03608 0.0
H2026 H 0.72425 0.10859 0.01362 0.0
C2027 C 0.68687 0.04053 0.03079 0.0
H2028 H 0.68655 0.09429 0.03475 0.0
C2029 C 0.70846 0.04874 0.01857 0.0
C2030 C 0.72167 0.07306 0.01142 0.0
H2031 H 0.67634 0.02129 0.0349 0.0
H2032 H 0.71398 0.03568 0.0134 0.0
C2033 C 0.71405 0.08956 0.01846 0.0
C2034 C 0.63306 0.93607 0.03719 0.0
C2035 C 0.61712 0.94139 0.04965 0.0
H2036 H 0.65123 0.91547 0.03659 0.0
C2037 C 0.60613 0.92854 0.07076 0.0
H2038 H 0.64181 0.94564 0.02085 0.0
C2039 C 0.6117 0.91151 0.07986 0.0
C2040 C 0.62828 0.90676 0.06801 0.0
H2041 H 0.59382 0.93222 0.08086 0.0
H2042 H 0.60371 0.9028 0.09687 0.0
C2043 C 0.63861 0.91894 0.04631 0.0
C2044 C 0.06507 0.70605 0.07381 0.0
C2045 C 0.07014 0.68933 0.08512 0.0
H2046 H 0.07457 0.74376 0.07367 0.0
C2047 C 0.08737 0.69765 0.107 0.0
H2048 H 0.05172 0.69995 0.05693 0.0
C2049 C 0.09966 0.72237 0.11724 0.0
C2050 C 0.0957 0.73963 0.10529 0.0
H2051 H 0.09115 0.68493 0.11642 0.0
H2052 H 0.11245 0.72793 0.13447 0.0
C2053 C 0.07798 0.73107 0.0836 0.0
C2054 C 0.31516 0.41123 0.05902 0.0
C2055 C 0.31978 0.39647 0.04229 0.0
H2056 H 0.28977 0.41313 0.08224 0.0
C2057 C 0.30052 0.37178 0.03467 0.0
H2058 H 0.32963 0.43024 0.06552 0.0
C2059 C 0.27722 0.362 0.04393 0.0
C2060 C 0.27283 0.37665 0.06119 0.0
H2061 H 0.30351 0.35996 0.02175 0.0
H2062 H 0.26273 0.34295 0.03765 0.0
C2063 C 0.29212 0.40141 0.0685 0.0
C2064 C 0.69452 0.66886 0.41689 0.0
C2065 C 0.69949 0.68732 0.40027 0.0
H2066 H 0.70925 0.65165 0.44015 0.0
C2067 C 0.72394 0.70257 0.39397 0.0
H2068 H 0.67586 0.65674 0.42208 0.0
C2069 C 0.74309 0.69965 0.40443 0.0
C2070 C 0.7381 0.6813 0.42121 0.0
H2071 H 0.72835 0.71691 0.38119 0.0
H2072 H 0.76179 0.71168 0.3993 0.0
C2073 C 0.71359 0.66581 0.42714 0.0
C2074 C 0.29199 0.00858 0.43023 0.0
C2075 C 0.30699 0.00704 0.41254 0.0
H2076 H 0.28369 0.03214 0.4523 0.0
C2077 C 0.32559 0.02899 0.40344 0.0
H2078 H 0.27755 0.99204 0.43768 0.0
C2079 C 0.32912 0.05198 0.41188 0.0
C2080 C 0.31403 0.05348 0.42946 0.0
H2081 H 0.33748 0.02846 0.38983 0.0
H2082 H 0.34342 0.06856 0.40434 0.0
C2083 C 0.29544 0.03154 0.43855 0.0
C2084 C 0.9846 0.30187 0.39028 0.0
C2085 C 0.9897 0.28618 0.37566 0.0
H2086 H 0.95867 0.3044 0.41245 0.0
C2087 C 0.97059 0.26137 0.36872 0.0
H2088 H -0.00101 0.32112 0.39586 0.0
C2089 C 0.94734 0.25196 0.37771 0.0
C2090 C 0.94289 0.26701 0.39427 0.0
H2091 H 0.97387 0.24898 0.35708 0.0
H2092 H 0.9332 0.23254 0.37261 0.0
C2093 C 0.96143 0.29232 0.39966 0.0
C2094 C 0.03938 0.40256 0.38782 0.0
C2095 C 0.05764 0.40014 0.37648 0.0
H2096 H 0.01799 0.41994 0.38765 0.0
C2097 C 0.07029 0.41579 0.35764 0.0
H2098 H 0.02929 0.39081 0.40243 0.0
C2099 C 0.06382 0.43246 0.34924 0.0
C2100 C 0.04451 0.4338 0.35945 0.0
H2101 H 0.08447 0.41443 0.34854 0.0
H2102 H 0.07303 0.44329 0.33373 0.0
C2103 C 0.03278 0.41914 0.37929 0.0
C2104 C 0.56596 0.61076 0.34992 0.0
C2105 C 0.59055 0.62709 0.34477 0.0
H2106 H 0.5348 0.57343 0.34598 0.0
C2107 C 0.60318 0.61749 0.33227 0.0
H2108 H 0.55591 0.61758 0.35991 0.0
C2109 C 0.59088 0.59223 0.32366 0.0
C2110 C 0.56583 0.57604 0.32773 0.0
H2111 H 0.62219 0.62969 0.32804 0.0
H2112 H 0.60066 0.58567 0.31281 0.0
C2113 C 0.55384 0.58549 0.34178 0.0
C2114 C 0.36827 0.96457 0.38156 0.0
C2115 C 0.35547 0.93934 0.38612 0.0
H2116 H 0.39918 0.994 0.36525 0.0
C2117 C 0.36633 0.92534 0.38085 0.0
H2118 H 0.36043 0.97587 0.3855 0.0
C2119 C 0.38845 0.93573 0.36937 0.0
C2120 C 0.40018 0.96031 0.36291 0.0
H2121 H 0.35715 0.90597 0.38445 0.0
H2122 H 0.39585 0.92418 0.36456 0.0
C2123 C 0.39048 0.97498 0.37002 0.0
C2124 C 0.63691 0.98683 0.32491 0.0
C2125 C 0.63248 0.9712 0.34463 0.0
H2126 H 0.6224 0.00285 0.29961 0.0
C2127 C 0.60906 0.95954 0.35404 0.0
H2128 H 0.65474 0.99611 0.31717 0.0
C2129 C 0.59049 0.96347 0.34391 0.0
C2130 C 0.59502 0.97923 0.32428 0.0
H2131 H 0.60508 0.94744 0.36925 0.0
H2132 H 0.57269 0.95446 0.35172 0.0
C2133 C 0.61843 0.99084 0.31491 0.0
C2134 C 0.00406 0.63916 0.3053 0.0
C2135 C 0.02724 0.65795 0.31791 0.0
H2136 H 0.982 0.60175 0.28755 0.0
C2137 C 0.04637 0.65301 0.32205 0.0
H2138 H 0.98894 0.64237 0.30181 0.0
C2139 C 0.04241 0.62982 0.31377 0.0
C2140 C 0.01919 0.61099 0.30133 0.0
H2141 H 0.06445 0.66706 0.33169 0.0
H2142 H 0.05742 0.62649 0.3175 0.0
C2143 C 4e-05 0.61588 0.29722 0.0
C2144 C 0.36498 0.40978 0.37057 0.0
C2145 C 0.34774 0.38476 0.37369 0.0
H2146 H 0.3983 0.43548 0.35459 0.0
C2147 C 0.35317 0.36662 0.36609 0.0
H2148 H 0.36151 0.42425 0.3764 0.0
C2149 C 0.37439 0.37316 0.3537 0.0
C2150 C 0.39031 0.39786 0.34864 0.0
H2151 H 0.34036 0.34719 0.36841 0.0
H2152 H 0.37745 0.35874 0.34659 0.0
C2153 C 0.386 0.41624 0.35805 0.0
C2154 C 0.26574 0.25827 0.39647 0.0
C2155 C 0.27609 0.27126 0.37522 0.0
H2156 H 0.264 0.23224 0.42183 0.0
C2157 C 0.29093 0.2654 0.36135 0.0
H2158 H 0.25424 0.26232 0.40761 0.0
C2159 C 0.2964 0.24789 0.36942 0.0
C2160 C 0.2871 0.23586 0.39149 0.0
H2161 H 0.29914 0.27501 0.34483 0.0
H2162 H 0.30838 0.2442 0.35873 0.0
C2163 C 0.27123 0.24085 0.40455 0.0
C2164 C 0.7267 0.04368 0.40974 0.0
C2165 C 0.74118 0.03374 0.40306 0.0
H2166 H 0.72673 0.0756 0.42549 0.0
C2167 C 0.7672 0.04957 0.40474 0.0
H2168 H 0.70657 0.03197 0.40855 0.0
C2169 C 0.7786 0.07441 0.41428 0.0
C2170 C 0.76429 0.08399 0.42248 0.0
H2171 H 0.77888 0.04262 0.39943 0.0
H2172 H 0.79876 0.08602 0.41584 0.0
C2173 C 0.73818 0.06864 0.41938 0.0
C2174 C 0.98687 0.74518 0.39323 0.0
C2175 C 0.99205 0.73025 0.37749 0.0
H2176 H 0.96068 0.74738 0.41483 0.0
C2177 C 0.97297 0.7055 0.36984 0.0
H2178 H 0.00118 0.76426 0.39972 0.0
C2179 C 0.94927 0.69584 0.37814 0.0
C2180 C 0.94431 0.71068 0.39445 0.0
H2181 H 0.97637 0.69354 0.35763 0.0
H2182 H 0.93493 0.67673 0.37188 0.0
C2183 C 0.96344 0.7355 0.40176 0.0
C2184 C 0.38198 0.00755 0.70602 0.0
C2185 C 0.37896 0.02755 0.7124 0.0
H2186 H 0.40037 0.98826 0.7159 0.0
C2187 C 0.39274 0.0437 0.73454 0.0
H2188 H 0.37166 0.99475 0.68911 0.0
C2189 C 0.40894 0.03977 0.75009 0.0
C2190 C 0.4118 0.01964 0.74385 0.0
H2191 H 0.39074 0.05918 0.74014 0.0
H2192 H 0.41897 0.05233 0.76723 0.0
C2193 C 0.39823 0.00366 0.72155 0.0
C2194 C 0.95856 0.34512 0.76324 0.0
C2195 C 0.97419 0.34478 0.7456 0.0
H2196 H 0.94955 0.36725 0.78677 0.0
C2197 C 0.9933 0.36744 0.73824 0.0
H2198 H 0.94373 0.32801 0.76941 0.0
C2199 C 0.99662 0.38995 0.74821 0.0
C2200 C 0.98084 0.39026 0.76567 0.0
H2201 H 0.00568 0.36783 0.72471 0.0
H2202 H 0.01124 0.4071 0.74186 0.0
C2203 C 0.96183 0.3676 0.77313 0.0
C2204 C 0.65028 0.63052 0.72193 0.0
C2205 C 0.65568 0.61474 0.70791 0.0
H2206 H 0.62497 0.63306 0.74512 0.0
C2207 C 0.63734 0.58938 0.70307 0.0
H2208 H 0.66403 0.65019 0.72592 0.0
C2209 C 0.61476 0.57966 0.71362 0.0
C2210 C 0.61025 0.59502 0.72965 0.0
H2211 H 0.64081 0.57684 0.69196 0.0
H2212 H 0.60129 0.55987 0.71018 0.0
C2213 C 0.62781 0.62072 0.73284 0.0
C2214 C 0.73347 0.74517 0.6876 0.0
C2215 C 0.72026 0.72897 0.70584 0.0
H2216 H 0.73659 0.77299 0.66395 0.0
C2217 C 0.7011 0.7305 0.7162 0.0
H2218 H 0.74834 0.74448 0.67926 0.0
C2219 C 0.6943 0.74683 0.70735 0.0
C2220 C 0.70673 0.76214 0.6882 0.0
H2221 H 0.69054 0.71828 0.73029 0.0
H2222 H 0.6789 0.74701 0.71499 0.0
C2223 C 0.72682 0.76161 0.67892 0.0
C2224 C 0.27472 0.95952 0.67451 0.0
C2225 C 0.2641 0.97323 0.66677 0.0
H2226 H 0.27038 0.92365 0.6747 0.0
C2227 C 0.24078 0.96082 0.65208 0.0
H2228 H 0.29273 0.96861 0.68581 0.0
C2229 C 0.2283 0.9353 0.64528 0.0
C2230 C 0.23857 0.92138 0.65338 0.0
H2231 H 0.23226 0.97088 0.64543 0.0
H2232 H 0.21062 0.92654 0.63342 0.0
C2233 C 0.26202 0.93381 0.66798 0.0
C2234 C 0.02475 0.2592 0.69538 0.0
C2235 C 0.01788 0.27357 0.70965 0.0
H2236 H 0.0522 0.2585 0.67473 0.0
C2237 C 0.03541 0.29908 0.71581 0.0
H2238 H 0.01168 0.23955 0.69004 0.0
C2239 C 0.05918 0.31001 0.70741 0.0
C2240 C 0.06577 0.29568 0.69249 0.0
H2241 H 0.03067 0.31065 0.72682 0.0
H2242 H 0.07229 0.3297 0.71243 0.0
C2243 C 0.04823 0.27011 0.68674 0.0
C2244 C 0.28755 0.3215 0.708 0.0
C2245 C 0.29507 0.30645 0.69624 0.0
H2246 H 0.26586 0.33833 0.70406 0.0
C2247 C 0.28616 0.29691 0.67047 0.0
H2248 H 0.29404 0.3291 0.72783 0.0
C2249 C 0.27045 0.30265 0.65665 0.0
C2250 C 0.26305 0.31788 0.66831 0.0
H2251 H 0.29179 0.28546 0.66072 0.0
H2252 H 0.26447 0.29547 0.63666 0.0
C2253 C 0.27162 0.32704 0.69425 0.0
C2254 C 0.70127 0.9866 0.6391 0.0
C2255 C 0.6949 0.98954 0.66362 0.0
H2256 H 0.70142 0.96181 0.61003 0.0
C2257 C 0.68354 0.96883 0.67781 0.0
H2258 H 0.70995 0.00215 0.6276 0.0
C2259 C 0.67878 0.94575 0.66779 0.0
C2260 C 0.68522 0.94281 0.6433 0.0
H2261 H 0.67845 0.97046 0.69678 0.0
H2262 H 0.67045 0.9303 0.67945 0.0
C2263 C 0.69647 0.9635 0.62906 0.0
C2264 C 0.03706 0.7482 0.71134 0.0
C2265 C 0.01933 0.72291 0.71254 0.0
H2266 H 0.0715 0.77485 0.69781 0.0
C2267 C 0.02499 0.70507 0.70439 0.0
H2268 H 0.03345 0.76244 0.71768 0.0
C2269 C 0.04694 0.71228 0.69314 0.0
C2270 C 0.0634 0.73737 0.68986 0.0
H2271 H 0.01179 0.68542 0.70524 0.0
H2272 H 0.05015 0.69816 0.68538 0.0
C2273 C 0.05884 0.75534 0.7 0.0
C2274 C 0.93429 0.59501 0.73117 0.0
C2275 C 0.94544 0.60816 0.71027 0.0
H2276 H 0.93122 0.56841 0.75643 0.0
C2277 C 0.96019 0.60192 0.69675 0.0
H2278 H 0.92282 0.59932 0.74203 0.0
C2279 C 0.96485 0.58389 0.70491 0.0
C2280 C 0.95483 0.57175 0.72672 0.0
H2281 H 0.96897 0.61163 0.68048 0.0
H2282 H 0.97683 0.57994 0.69454 0.0
C2283 C 0.939 0.5771 0.73935 0.0
C2284 C 0.39614 0.3739 0.74316 0.0
C2285 C 0.41048 0.36353 0.73749 0.0
H2286 H 0.39617 0.40566 0.75936 0.0
C2287 C 0.43656 0.3785 0.74207 0.0
H2288 H 0.37598 0.36285 0.73981 0.0
C2289 C 0.44803 0.40291 0.75307 0.0
C2290 C 0.4337 0.41293 0.75994 0.0
H2291 H 0.44818 0.37122 0.73764 0.0
H2292 H 0.46819 0.41388 0.75652 0.0
C2293 C 0.40767 0.39841 0.75431 0.0
C2294 C 0.63552 0.03434 0.70446 0.0
C2295 C 0.64925 0.05972 0.70058 0.0
H2296 H 0.60396 0.00524 0.72031 0.0
C2297 C 0.63958 0.07458 0.70699 0.0
H2298 H 0.64248 0.0224 0.69971 0.0
C2299 C 0.61757 0.06475 0.71859 0.0
C2300 C 0.60476 0.03986 0.72419 0.0
H2301 H 0.64952 0.09412 0.70393 0.0
H2302 H 0.61099 0.07688 0.72398 0.0
C2303 C 0.61344 0.02449 0.71621 0.0
loop_
_geom_bond_atom_site_label_1
_geom_bond_atom_site_label_2
_geom_bond_distance
_geom_bond_site_symmetry_2
_ccdc_geom_bond_type
Zn0 O3 2.031 1_554 S
Zn0 O5 2.049 . S
Zn0 O10 2.067 . S
Zn1 O2 1.962 1_455 S
Zn1 O4 1.986 . S
Zn1 O6 1.996 1_455 S
Zn1 O9 1.943 . S
O2 Zn1 1.962 1_655 S
O2 C7 1.254 . S
O3 Zn0 2.031 1_556 S
O3 C7 1.269 1_556 S
O4 Zn1 1.986 . S
O4 C11 1.262 . S
O5 Zn0 2.049 . S
O5 C13 1.260 . S
O6 Zn1 1.996 1_655 S
O6 C13 1.257 . S
C7 O2 1.254 . S
C7 O3 1.269 1_554 S
C8 O9 1.249 1_556 S
C8 O10 1.270 1_456 S
O9 Zn1 1.943 . S
O9 C8 1.249 1_554 S
O10 Zn0 2.067 . S
O10 C8 1.270 1_654 S
C11 O4 1.262 . S
C11 O12 1.232 . S
O12 C11 1.232 . S
C13 O5 1.260 . S
C13 O6 1.257 . S
Zn14 O17 2.031 . S
Zn14 O19 2.049 . S
Zn14 O24 2.067 . S
Zn15 O16 1.962 . S
Zn15 O18 1.986 . S
Zn15 O20 1.996 . S
Zn15 O23 1.943 . S
O16 Zn15 1.962 . S
O16 C21 1.254 . S
O17 Zn14 2.031 . S
O17 C21 1.269 . S
O18 Zn15 1.986 . S
O18 C25 1.262 . S
O19 Zn14 2.049 . S
O19 C27 1.260 . S
O20 Zn15 1.996 . S
O20 C27 1.257 . S
C21 O16 1.254 . S
C21 O17 1.269 . S
C22 O23 1.249 . S
C22 O24 1.270 . S
O23 Zn15 1.943 . S
O23 C22 1.249 . S
O24 Zn14 2.067 . S
O24 C22 1.270 . S
C25 O18 1.262 . S
C25 O26 1.232 . S
O26 C25 1.232 . S
C27 O19 1.260 . S
C27 O20 1.257 . S
Zn28 O31 2.031 . S
Zn28 O33 2.049 . S
Zn28 O38 2.067 . S
Zn29 O30 1.962 1_545 S
Zn29 O32 1.986 1_554 S
Zn29 O34 1.996 1_545 S
Zn29 O37 1.943 . S
O30 Zn29 1.962 1_565 S
O30 C35 1.254 . S
O31 Zn28 2.031 . S
O31 C35 1.269 . S
O32 Zn29 1.986 1_556 S
O32 C39 1.262 1_556 S
O33 Zn28 2.049 . S
O33 C41 1.260 1_554 S
O34 Zn29 1.996 1_565 S
O34 C41 1.257 1_554 S
C35 O30 1.254 . S
C35 O31 1.269 . S
C36 O37 1.249 . S
C36 O38 1.270 1_545 S
O37 Zn29 1.943 . S
O37 C36 1.249 . S
O38 Zn28 2.067 . S
O38 C36 1.270 1_565 S
C39 O32 1.262 1_554 S
C39 O40 1.232 . S
O40 C39 1.232 . S
C41 O33 1.260 1_556 S
C41 O34 1.257 1_556 S
Zn42 O45 2.031 . S
Zn42 O47 2.049 . S
Zn42 O52 2.067 . S
Zn43 O44 1.962 1_655 S
Zn43 O46 1.986 . S
Zn43 O48 1.996 1_655 S
Zn43 O51 1.943 . S
O44 Zn43 1.962 1_455 S
O44 C49 1.254 . S
O45 Zn42 2.031 . S
O45 C49 1.269 . S
O46 Zn43 1.986 . S
O46 C53 1.262 . S
O47 Zn42 2.049 . S
O47 C55 1.260 . S
O48 Zn43 1.996 1_455 S
O48 C55 1.257 . S
C49 O44 1.254 . S
C49 O45 1.269 . S
C50 O51 1.249 . S
C50 O52 1.270 1_655 S
O51 Zn43 1.943 . S
O51 C50 1.249 . S
O52 Zn42 2.067 . S
O52 C50 1.270 1_455 S
C53 O46 1.262 . S
C53 O54 1.232 . S
O54 C53 1.232 . S
C55 O47 1.260 . S
C55 O48 1.257 . S
Zn56 O59 2.031 . S
Zn56 O61 2.049 1_554 S
Zn56 O66 2.067 . S
Zn57 O58 1.962 . S
Zn57 O60 1.986 1_554 S
Zn57 O62 1.996 1_554 S
Zn57 O65 1.943 . S
O58 Zn57 1.962 . S
O58 C63 1.254 . S
O59 Zn56 2.031 . S
O59 C63 1.269 . S
O60 Zn57 1.986 1_556 S
O60 C67 1.262 . S
O61 Zn56 2.049 1_556 S
O61 C69 1.260 . S
O62 Zn57 1.996 1_556 S
O62 C69 1.257 . S
C63 O58 1.254 . S
C63 O59 1.269 . S
C64 O65 1.249 . S
C64 O66 1.270 . S
O65 Zn57 1.943 . S
O65 C64 1.249 . S
O66 Zn56 2.067 . S
O66 C64 1.270 . S
C67 O60 1.262 . S
C67 O68 1.232 1_556 S
O68 C67 1.232 1_554 S
C69 O61 1.260 . S
C69 O62 1.257 . S
Zn70 O73 2.031 . S
Zn70 O75 2.049 . S
Zn70 O80 2.067 . S
Zn71 O72 1.962 1_565 S
Zn71 O74 1.986 . S
Zn71 O76 1.996 1_565 S
Zn71 O79 1.943 . S
O72 Zn71 1.962 1_545 S
O72 C77 1.254 . S
O73 Zn70 2.031 . S
O73 C77 1.269 . S
O74 Zn71 1.986 . S
O74 C81 1.262 . S
O75 Zn70 2.049 . S
O75 C83 1.260 . S
O76 Zn71 1.996 1_545 S
O76 C83 1.257 . S
C77 O72 1.254 . S
C77 O73 1.269 . S
C78 O79 1.249 . S
C78 O80 1.270 1_565 S
O79 Zn71 1.943 . S
O79 C78 1.249 . S
O80 Zn70 2.067 . S
O80 C78 1.270 1_545 S
C81 O74 1.262 . S
C81 O82 1.232 . S
O82 C81 1.232 . S
C83 O75 1.260 . S
C83 O76 1.257 . S
Zn84 O87 2.031 . S
Zn84 O89 2.049 . S
Zn84 O94 2.067 . S
Zn85 O86 1.962 . S
Zn85 O88 1.986 . S
Zn85 O90 1.996 . S
Zn85 O93 1.943 . S
O86 Zn85 1.962 . S
O86 C91 1.254 . S
O87 Zn84 2.031 . S
O87 C91 1.269 . S
O88 Zn85 1.986 . S
O88 C95 1.262 . S
O89 Zn84 2.049 . S
O89 C97 1.260 . S
O90 Zn85 1.996 . S
O90 C97 1.257 . S
C91 O86 1.254 . S
C91 O87 1.269 . S
C92 O93 1.249 . S
C92 O94 1.270 . S
O93 Zn85 1.943 . S
O93 C92 1.249 . S
O94 Zn84 2.067 . S
O94 C92 1.270 . S
C95 O88 1.262 . S
C95 O96 1.232 . S
O96 C95 1.232 . S
C97 O89 1.260 . S
C97 O90 1.257 . S
Zn98 O101 2.031 . S
Zn98 O103 2.049 . S
Zn98 O108 2.067 . S
Zn99 O100 1.962 . S
Zn99 O102 1.986 . S
Zn99 O104 1.996 . S
Zn99 O107 1.943 . S
O100 Zn99 1.962 . S
O100 C105 1.254 . S
O101 Zn98 2.031 . S
O101 C105 1.269 . S
O102 Zn99 1.986 . S
O102 C109 1.262 1_565 S
O103 Zn98 2.049 . S
O103 C111 1.260 . S
O104 Zn99 1.996 . S
O104 C111 1.257 . S
C105 O100 1.254 . S
C105 O101 1.269 . S
C106 O107 1.249 . S
C106 O108 1.270 . S
O107 Zn99 1.943 . S
O107 C106 1.249 . S
O108 Zn98 2.067 . S
O108 C106 1.270 . S
C109 O102 1.262 1_545 S
C109 O110 1.232 . S
O110 C109 1.232 . S
C111 O103 1.260 . S
C111 O104 1.257 . S
Zn112 O115 2.031 . S
Zn112 O117 2.049 . S
Zn112 O122 2.067 . S
Zn113 O114 1.962 . S
Zn113 O116 1.986 . S
Zn113 O118 1.996 . S
Zn113 O121 1.943 . S
O114 Zn113 1.962 . S
O114 C119 1.254 . S
O115 Zn112 2.031 . S
O115 C119 1.269 . S
O116 Zn113 1.986 . S
O116 C123 1.262 . S
O117 Zn112 2.049 . S
O117 C125 1.260 . S
O118 Zn113 1.996 . S
O118 C125 1.257 . S
C119 O114 1.254 . S
C119 O115 1.269 . S
C120 O121 1.249 . S
C120 O122 1.270 . S
O121 Zn113 1.943 . S
O121 C120 1.249 . S
O122 Zn112 2.067 . S
O122 C120 1.270 . S
C123 O116 1.262 . S
C123 O124 1.232 . S
O124 C123 1.232 . S
C125 O117 1.260 . S
C125 O118 1.257 . S
Zn126 O129 2.031 . S
Zn126 O131 2.049 . S
Zn126 O136 2.067 . S
Zn127 O128 1.950 1_565 S
Zn127 O130 1.986 . S
Zn127 O132 1.996 . S
Zn127 O135 1.943 . S
O128 Zn127 1.950 1_545 S
O128 C133 1.248 . S
O129 Zn126 2.031 . S
O129 C133 1.269 1_565 S
O130 Zn127 1.986 . S
O130 C137 1.262 . S
O131 Zn126 2.049 . S
O131 C139 1.260 . S
O132 Zn127 1.996 . S
O132 C139 1.257 . S
C133 O128 1.248 . S
C133 O129 1.269 1_545 S
C134 O135 1.249 . S
C134 O136 1.270 . S
O135 Zn127 1.943 . S
O135 C134 1.249 . S
O136 Zn126 2.067 . S
O136 C134 1.270 . S
C137 O130 1.262 . S
C137 O138 1.232 . S
O138 C137 1.232 . S
C139 O131 1.260 . S
C139 O132 1.257 . S
Zn140 O143 2.031 . S
Zn140 O145 2.049 . S
Zn140 O150 2.067 . S
Zn141 O142 1.962 . S
Zn141 O144 1.986 . S
Zn141 O146 1.996 . S
Zn141 O149 1.943 . S
O142 Zn141 1.962 . S
O142 C147 1.254 . S
O143 Zn140 2.031 . S
O143 C147 1.269 . S
O144 Zn141 1.986 . S
O144 C151 1.262 . S
O145 Zn140 2.049 . S
O145 C153 1.260 . S
O146 Zn141 1.996 . S
O146 C153 1.257 . S
C147 O142 1.254 . S
C147 O143 1.269 . S
C148 O149 1.249 . S
C148 O150 1.270 . S
O149 Zn141 1.943 . S
O149 C148 1.249 . S
O150 Zn140 2.067 . S
O150 C148 1.270 . S
C151 O144 1.262 . S
C151 O152 1.232 . S
O152 C151 1.232 . S
C153 O145 1.260 . S
C153 O146 1.257 . S
Zn154 O157 2.031 . S
Zn154 O159 2.049 . S
Zn154 O164 2.067 . S
Zn155 O156 1.962 . S
Zn155 O158 1.986 . S
Zn155 O160 1.996 . S
Zn155 O163 1.943 . S
O156 Zn155 1.962 . S
O156 C161 1.254 . S
O157 Zn154 2.031 . S
O157 C161 1.269 . S
O158 Zn155 1.986 . S
O158 C165 1.262 . S
O159 Zn154 2.049 . S
O159 C167 1.260 . S
O160 Zn155 1.996 . S
O160 C167 1.257 . S
C161 O156 1.254 . S
C161 O157 1.269 . S
C162 O163 1.249 . S
C162 O164 1.270 . S
O163 Zn155 1.943 . S
O163 C162 1.249 . S
O164 Zn154 2.067 . S
O164 C162 1.270 . S
C165 O158 1.262 . S
C165 O166 1.232 . S
O166 C165 1.232 . S
C167 O159 1.260 . S
C167 O160 1.257 . S
Zn168 O171 2.031 . S
Zn168 O173 2.049 . S
Zn168 O178 2.067 . S
Zn169 O170 1.962 . S
Zn169 O172 1.986 . S
Zn169 O174 1.996 . S
Zn169 O177 1.943 . S
O170 Zn169 1.962 . S
O170 C175 1.263 1_545 S
O171 Zn168 2.031 . S
O171 C175 1.243 1_545 S
O172 Zn169 1.986 . S
O172 C179 1.262 . S
O173 Zn168 2.049 . S
O173 C181 1.260 . S
O174 Zn169 1.996 . S
O174 C181 1.257 . S
C175 O170 1.263 1_565 S
C175 O171 1.243 1_565 S
C176 O177 1.249 . S
C176 O178 1.270 . S
O177 Zn169 1.943 . S
O177 C176 1.249 . S
O178 Zn168 2.067 . S
O178 C176 1.270 . S
C179 O172 1.262 . S
C179 O180 1.232 . S
O180 C179 1.232 . S
C181 O173 1.260 . S
C181 O174 1.257 . S
Zn182 O185 2.031 . S
Zn182 O187 2.049 . S
Zn182 O192 2.067 . S
Zn183 O184 1.961 . S
Zn183 O186 1.986 . S
Zn183 O188 1.996 . S
Zn183 O191 1.943 . S
O184 Zn183 1.961 . S
O184 C189 1.243 1_655 S
O185 Zn182 2.031 . S
O185 C189 1.259 1_655 S
O186 Zn183 1.986 . S
O186 C193 1.262 . S
O187 Zn182 2.049 . S
O187 C195 1.260 . S
O188 Zn183 1.996 . S
O188 C195 1.257 . S
C189 O184 1.243 1_455 S
C189 O185 1.259 1_455 S
C190 O191 1.249 . S
C190 O192 1.270 . S
O191 Zn183 1.943 . S
O191 C190 1.249 . S
O192 Zn182 2.067 . S
O192 C190 1.270 . S
C193 O186 1.262 . S
C193 O194 1.232 . S
O194 C193 1.232 . S
C195 O187 1.260 . S
C195 O188 1.257 . S
Zn196 O199 2.031 . S
Zn196 O201 2.049 . S
Zn196 O206 2.067 . S
Zn197 O198 1.962 . S
Zn197 O200 1.986 . S
Zn197 O202 1.996 . S
Zn197 O205 1.943 . S
O198 Zn197 1.962 . S
O198 C203 1.254 . S
O199 Zn196 2.031 . S
O199 C203 1.269 . S
O200 Zn197 1.986 . S
O200 C207 1.262 . S
O201 Zn196 2.049 . S
O201 C209 1.260 . S
O202 Zn197 1.996 . S
O202 C209 1.257 . S
C203 O198 1.254 . S
C203 O199 1.269 . S
C204 O205 1.249 . S
C204 O206 1.270 . S
O205 Zn197 1.943 . S
O205 C204 1.249 . S
O206 Zn196 2.067 . S
O206 C204 1.270 . S
C207 O200 1.262 . S
C207 O208 1.232 . S
O208 C207 1.232 . S
C209 O201 1.260 . S
C209 O202 1.257 . S
Zn210 O213 2.031 . S
Zn210 O215 2.049 . S
Zn210 O220 2.067 . S
Zn211 O212 1.962 . S
Zn211 O214 1.986 . S
Zn211 O216 1.996 . S
Zn211 O219 1.943 . S
O212 Zn211 1.962 . S
O212 C217 1.254 . S
O213 Zn210 2.031 . S
O213 C217 1.269 . S
O214 Zn211 1.986 . S
O214 C221 1.262 . S
O215 Zn210 2.049 . S
O215 C223 1.260 . S
O216 Zn211 1.996 . S
O216 C223 1.257 . S
C217 O212 1.254 . S
C217 O213 1.269 . S
C218 O219 1.249 . S
C218 O220 1.270 . S
O219 Zn211 1.943 . S
O219 C218 1.249 . S
O220 Zn210 2.067 . S
O220 C218 1.270 . S
C221 O214 1.262 . S
C221 O222 1.232 . S
O222 C221 1.232 . S
C223 O215 1.260 . S
C223 O216 1.257 . S
Zn224 O227 2.031 . S
Zn224 O229 2.049 . S
Zn224 O234 2.067 . S
Zn225 O226 1.962 . S
Zn225 O228 1.986 . S
Zn225 O230 1.996 . S
Zn225 O233 1.943 . S
O226 Zn225 1.962 . S
O226 C231 1.254 . S
O227 Zn224 2.031 . S
O227 C231 1.269 . S
O228 Zn225 1.986 . S
O228 C235 1.262 1_545 S
O229 Zn224 2.049 . S
O229 C237 1.260 . S
O230 Zn225 1.996 . S
O230 C237 1.257 . S
C231 O226 1.254 . S
C231 O227 1.269 . S
C232 O233 1.249 . S
C232 O234 1.270 . S
O233 Zn225 1.943 . S
O233 C232 1.249 . S
O234 Zn224 2.067 . S
O234 C232 1.270 . S
C235 O228 1.262 1_565 S
C235 O236 1.232 . S
O236 C235 1.232 . S
C237 O229 1.260 . S
C237 O230 1.257 . S
Zn238 O241 2.031 . S
Zn238 O243 2.049 . S
Zn238 O248 2.067 . S
Zn239 O240 1.962 . S
Zn239 O242 1.986 . S
Zn239 O244 1.996 . S
Zn239 O247 1.943 . S
O240 Zn239 1.962 . S
O240 C245 1.254 . S
O241 Zn238 2.031 . S
O241 C245 1.269 . S
O242 Zn239 1.986 . S
O242 C249 1.262 . S
O243 Zn238 2.049 . S
O243 C251 1.260 . S
O244 Zn239 1.996 . S
O244 C251 1.257 . S
C245 O240 1.254 . S
C245 O241 1.269 . S
C246 O247 1.249 . S
C246 O248 1.270 . S
O247 Zn239 1.943 . S
O247 C246 1.249 . S
O248 Zn238 2.067 . S
O248 C246 1.270 . S
C249 O242 1.262 . S
C249 O250 1.232 . S
O250 C249 1.232 . S
C251 O243 1.260 . S
C251 O244 1.257 . S
H252 O278 0.856 1_556 S
H253 O281 0.854 . S
H254 C289 0.930 . S
H255 C290 0.930 . S
H256 C292 0.930 . S
H257 C293 0.930 . S
H258 C295 0.931 . S
H259 C296 0.930 . S
H260 C298 0.930 . S
H261 C299 0.929 . S
H262 C301 0.930 . S
H263 C302 0.931 . S
H264 C304 0.930 . S
H265 C305 0.929 . S
H266 C307 0.931 . S
H267 C308 0.930 . S
H268 C310 0.930 . S
H269 C311 0.932 . S
H270 C313 0.930 . S
H271 C314 0.929 . S
H272 C316 0.931 . S
H273 C317 0.930 . S
H274 C319 0.929 . S
H275 C320 0.931 . S
H276 C322 0.930 . S
H277 C323 0.929 . S
O278 H252 0.856 1_554 S
O278 C324 1.300 . S
O279 C324 1.209 . S
O280 C325 1.199 . S
O281 H253 0.854 . S
O281 C325 1.297 . S
C282 C283 1.404 . S
C282 C287 1.397 . S
C282 C288 1.492 . S
C283 C282 1.404 . S
C283 C284 1.396 . S
C283 C294 1.492 . S
C284 C283 1.396 . S
C284 C285 1.397 . S
C284 C300 1.509 . S
C285 C284 1.397 . S
C285 C286 1.412 . S
C285 C306 1.485 . S
C286 C285 1.412 . S
C286 C287 1.388 . S
C286 C312 1.490 . S
C287 C282 1.397 . S
C287 C286 1.388 . S
C287 C318 1.519 . S
C288 C282 1.492 . S
C288 C289 1.363 . S
C288 C293 1.390 . S
C289 H254 0.930 . S
C289 C288 1.363 . S
C289 C290 1.372 . S
C290 H255 0.930 . S
C290 C289 1.372 . S
C290 C291 1.383 . S
C291 C290 1.383 . S
C291 C292 1.395 . S
C292 H256 0.930 . S
C292 C291 1.395 . S
C292 C293 1.362 . S
C293 H257 0.930 . S
C293 C288 1.390 . S
C293 C292 1.362 . S
C294 C283 1.492 . S
C294 C295 1.377 . S
C294 C299 1.397 . S
C295 H258 0.931 . S
C295 C294 1.377 . S
C295 C296 1.376 . S
C296 H259 0.930 . S
C296 C295 1.376 . S
C296 C297 1.376 . S
C297 C296 1.376 . S
C297 C298 1.378 . S
C297 C324 1.486 . S
C298 H260 0.930 . S
C298 C297 1.378 . S
C298 C299 1.376 . S
C299 H261 0.929 . S
C299 C294 1.397 . S
C299 C298 1.376 . S
C300 C284 1.509 . S
C300 C301 1.391 . S
C300 C305 1.386 . S
C301 H262 0.930 . S
C301 C300 1.391 . S
C301 C302 1.375 . S
C302 H263 0.931 . S
C302 C301 1.375 . S
C302 C303 1.375 . S
C303 C302 1.375 . S
C303 C304 1.361 . S
C304 H264 0.930 . S
C304 C303 1.361 . S
C304 C305 1.399 . S
C305 H265 0.929 . S
C305 C300 1.386 . S
C305 C304 1.399 . S
C306 C285 1.485 . S
C306 C307 1.394 . S
C306 C311 1.360 . S
C307 H266 0.931 . S
C307 C306 1.394 . S
C307 C308 1.372 . S
C308 H267 0.930 . S
C308 C307 1.372 . S
C308 C309 1.397 . S
C309 C308 1.397 . S
C309 C310 1.390 . S
C309 C325 1.476 . S
C310 H268 0.930 . S
C310 C309 1.390 . S
C310 C311 1.366 . S
C311 H269 0.932 . S
C311 C306 1.360 . S
C311 C310 1.366 . S
C312 C286 1.490 . S
C312 C313 1.380 . S
C312 C317 1.386 . S
C313 H270 0.930 . S
C313 C312 1.380 . S
C313 C314 1.381 . S
C314 H271 0.929 . S
C314 C313 1.381 . S
C314 C315 1.371 . S
C315 C314 1.371 . S
C315 C316 1.380 . S
C316 H272 0.931 . S
C316 C315 1.380 . S
C316 C317 1.387 . S
C317 H273 0.930 . S
C317 C312 1.386 . S
C317 C316 1.387 . S
C318 C287 1.519 . S
C318 C319 1.377 . S
C318 C323 1.361 . S
C319 H274 0.929 . S
C319 C318 1.377 . S
C319 C320 1.386 . S
C320 H275 0.931 . S
C320 C319 1.386 . S
C320 C321 1.363 . S
C321 C320 1.363 . S
C321 C322 1.385 . S
C322 H276 0.930 . S
C322 C321 1.385 . S
C322 C323 1.396 . S
C323 H277 0.929 . S
C323 C318 1.361 . S
C323 C322 1.396 . S
C324 O278 1.300 . S
C324 O279 1.209 . S
C324 C297 1.486 . S
C325 O280 1.199 . S
C325 O281 1.297 . S
C325 C309 1.476 . S
H326 O352 0.856 . S
H327 O355 0.854 1_545 S
H328 C363 0.930 . S
H329 C364 0.930 . S
H330 C366 0.930 . S
H331 C367 0.930 . S
H332 C369 0.931 . S
H333 C370 0.930 . S
H334 C372 0.930 . S
H335 C373 0.929 . S
H336 C375 0.930 . S
H337 C376 0.931 . S
H338 C378 0.930 . S
H339 C379 0.929 . S
H340 C381 0.931 . S
H341 C382 0.930 . S
H342 C384 0.930 . S
H343 C385 0.932 . S
H344 C387 0.930 . S
H345 C388 0.929 . S
H346 C390 0.931 . S
H347 C391 0.930 . S
H348 C393 0.929 . S
H349 C394 0.931 . S
H350 C396 0.930 . S
H351 C397 0.929 . S
O352 H326 0.856 . S
O352 C398 1.300 . S
O353 C398 1.209 . S
O354 C399 1.199 . S
O355 H327 0.854 1_565 S
O355 C399 1.297 . S
C356 C357 1.404 . S
C356 C361 1.397 . S
C356 C362 1.492 . S
C357 C356 1.404 . S
C357 C358 1.396 . S
C357 C368 1.492 . S
C358 C357 1.396 . S
C358 C359 1.397 . S
C358 C374 1.509 . S
C359 C358 1.397 . S
C359 C360 1.412 . S
C359 C380 1.485 . S
C360 C359 1.412 . S
C360 C361 1.388 . S
C360 C386 1.490 . S
C361 C356 1.397 . S
C361 C360 1.388 . S
C361 C392 1.519 . S
C362 C356 1.492 . S
C362 C363 1.363 . S
C362 C367 1.390 . S
C363 H328 0.930 . S
C363 C362 1.363 . S
C363 C364 1.372 . S
C364 H329 0.930 . S
C364 C363 1.372 . S
C364 C365 1.383 . S
C365 C364 1.383 . S
C365 C366 1.395 . S
C366 H330 0.930 . S
C366 C365 1.395 . S
C366 C367 1.362 . S
C367 H331 0.930 . S
C367 C362 1.390 . S
C367 C366 1.362 . S
C368 C357 1.492 . S
C368 C369 1.377 . S
C368 C373 1.397 . S
C369 H332 0.931 . S
C369 C368 1.377 . S
C369 C370 1.376 . S
C370 H333 0.930 . S
C370 C369 1.376 . S
C370 C371 1.376 . S
C371 C370 1.376 . S
C371 C372 1.378 . S
C371 C398 1.486 . S
C372 H334 0.930 . S
C372 C371 1.378 . S
C372 C373 1.376 . S
C373 H335 0.929 . S
C373 C368 1.397 . S
C373 C372 1.376 . S
C374 C358 1.509 . S
C374 C375 1.391 . S
C374 C379 1.386 . S
C375 H336 0.930 . S
C375 C374 1.391 . S
C375 C376 1.375 . S
C376 H337 0.931 . S
C376 C375 1.375 . S
C376 C377 1.375 . S
C377 C376 1.375 . S
C377 C378 1.361 . S
C378 H338 0.930 . S
C378 C377 1.361 . S
C378 C379 1.399 . S
C379 H339 0.929 . S
C379 C374 1.386 . S
C379 C378 1.399 . S
C380 C359 1.485 . S
C380 C381 1.394 . S
C380 C385 1.360 . S
C381 H340 0.931 . S
C381 C380 1.394 . S
C381 C382 1.372 . S
C382 H341 0.930 . S
C382 C381 1.372 . S
C382 C383 1.397 . S
C383 C382 1.397 . S
C383 C384 1.390 . S
C383 C399 1.476 . S
C384 H342 0.930 . S
C384 C383 1.390 . S
C384 C385 1.366 . S
C385 H343 0.932 . S
C385 C380 1.360 . S
C385 C384 1.366 . S
C386 C360 1.490 . S
C386 C387 1.380 . S
C386 C391 1.386 . S
C387 H344 0.930 . S
C387 C386 1.380 . S
C387 C388 1.381 . S
C388 H345 0.929 . S
C388 C387 1.381 . S
C388 C389 1.371 . S
C389 C388 1.371 . S
C389 C390 1.380 . S
C390 H346 0.931 . S
C390 C389 1.380 . S
C390 C391 1.387 . S
C391 H347 0.930 . S
C391 C386 1.386 . S
C391 C390 1.387 . S
C392 C361 1.519 . S
C392 C393 1.377 . S
C392 C397 1.361 . S
C393 H348 0.929 . S
C393 C392 1.377 . S
C393 C394 1.386 . S
C394 H349 0.931 . S
C394 C393 1.386 . S
C394 C395 1.363 . S
C395 C394 1.363 . S
C395 C396 1.385 . S
C396 H350 0.930 . S
C396 C395 1.385 . S
C396 C397 1.396 . S
C397 H351 0.929 . S
C397 C392 1.361 . S
C397 C396 1.396 . S
C398 O352 1.300 . S
C398 O353 1.209 . S
C398 C371 1.486 . S
C399 O354 1.199 . S
C399 O355 1.297 . S
C399 C383 1.476 . S
H400 O426 0.856 . S
H401 O429 0.870 . S
H402 C437 0.930 . S
H403 C438 0.930 . S
H404 C440 0.930 . S
H405 C441 0.930 . S
H406 C443 0.931 . S
H407 C444 0.930 . S
H408 C446 0.930 . S
H409 C447 0.929 . S
H410 C449 0.930 . S
H411 C450 0.931 . S
H412 C452 0.930 . S
H413 C453 0.929 . S
H414 C455 0.931 . S
H415 C456 0.930 . S
H416 C458 0.930 . S
H417 C459 0.932 . S
H418 C461 0.930 . S
H419 C462 0.929 . S
H420 C464 0.931 . S
H421 C465 0.930 . S
H422 C467 0.929 . S
H423 C468 0.931 . S
H424 C470 0.930 . S
H425 C471 0.929 . S
O426 H400 0.856 . S
O426 C472 1.300 . S
O427 C472 1.209 . S
O428 C473 1.161 1_545 S
O429 H401 0.870 . S
O429 C473 1.297 . S
C430 C431 1.404 . S
C430 C435 1.397 . S
C430 C436 1.492 . S
C431 C430 1.404 . S
C431 C432 1.396 . S
C431 C442 1.492 . S
C432 C431 1.396 . S
C432 C433 1.397 . S
C432 C448 1.509 . S
C433 C432 1.397 . S
C433 C434 1.412 . S
C433 C454 1.485 . S
C434 C433 1.412 . S
C434 C435 1.388 . S
C434 C460 1.490 . S
C435 C430 1.397 . S
C435 C434 1.388 . S
C435 C466 1.519 . S
C436 C430 1.492 . S
C436 C437 1.363 . S
C436 C441 1.390 . S
C437 H402 0.930 . S
C437 C436 1.363 . S
C437 C438 1.372 . S
C438 H403 0.930 . S
C438 C437 1.372 . S
C438 C439 1.383 . S
C439 C438 1.383 . S
C439 C440 1.395 . S
C440 H404 0.930 . S
C440 C439 1.395 . S
C440 C441 1.362 . S
C441 H405 0.930 . S
C441 C436 1.390 . S
C441 C440 1.362 . S
C442 C431 1.492 . S
C442 C443 1.377 . S
C442 C447 1.397 . S
C443 H406 0.931 . S
C443 C442 1.377 . S
C443 C444 1.376 . S
C444 H407 0.930 . S
C444 C443 1.376 . S
C444 C445 1.376 . S
C445 C444 1.376 . S
C445 C446 1.378 . S
C445 C472 1.486 . S
C446 H408 0.930 . S
C446 C445 1.378 . S
C446 C447 1.376 . S
C447 H409 0.929 . S
C447 C442 1.397 . S
C447 C446 1.376 . S
C448 C432 1.509 . S
C448 C449 1.391 . S
C448 C453 1.386 . S
C449 H410 0.930 . S
C449 C448 1.391 . S
C449 C450 1.375 . S
C450 H411 0.931 . S
C450 C449 1.375 . S
C450 C451 1.375 . S
C451 C450 1.375 . S
C451 C452 1.361 . S
C452 H412 0.930 . S
C452 C451 1.361 . S
C452 C453 1.399 . S
C453 H413 0.929 . S
C453 C448 1.386 . S
C453 C452 1.399 . S
C454 C433 1.485 . S
C454 C455 1.394 . S
C454 C459 1.360 . S
C455 H414 0.931 . S
C455 C454 1.394 . S
C455 C456 1.372 . S
C456 H415 0.930 . S
C456 C455 1.372 . S
C456 C457 1.397 . S
C457 C456 1.397 . S
C457 C458 1.390 . S
C457 C473 1.476 . S
C458 H416 0.930 . S
C458 C457 1.390 . S
C458 C459 1.366 . S
C459 H417 0.932 . S
C459 C454 1.360 . S
C459 C458 1.366 . S
C460 C434 1.490 . S
C460 C461 1.380 . S
C460 C465 1.386 . S
C461 H418 0.930 . S
C461 C460 1.380 . S
C461 C462 1.381 . S
C462 H419 0.929 . S
C462 C461 1.381 . S
C462 C463 1.371 . S
C463 C462 1.371 . S
C463 C464 1.380 . S
C464 H420 0.931 . S
C464 C463 1.380 . S
C464 C465 1.387 . S
C465 H421 0.930 . S
C465 C460 1.386 . S
C465 C464 1.387 . S
C466 C435 1.519 . S
C466 C467 1.377 . S
C466 C471 1.361 . S
C467 H422 0.929 . S
C467 C466 1.377 . S
C467 C468 1.386 . S
C468 H423 0.931 . S
C468 C467 1.386 . S
C468 C469 1.363 . S
C469 C468 1.363 . S
C469 C470 1.385 . S
C470 H424 0.930 . S
C470 C469 1.385 . S
C470 C471 1.396 . S
C471 H425 0.929 . S
C471 C466 1.361 . S
C471 C470 1.396 . S
C472 O426 1.300 . S
C472 O427 1.209 . S
C472 C445 1.486 . S
C473 O428 1.161 1_565 S
C473 O429 1.297 . S
C473 C457 1.476 . S
H474 O500 0.856 . S
H475 O503 0.854 . S
H476 C511 0.930 . S
H477 C512 0.930 . S
H478 C514 0.930 . S
H479 C515 0.930 . S
H480 C517 0.931 . S
H481 C518 0.930 1_554 S
H482 C520 0.930 . S
H483 C521 0.929 . S
H484 C523 0.930 . S
H485 C524 0.931 . S
H486 C526 0.930 . S
H487 C527 0.929 . S
H488 C529 0.931 . S
H489 C530 0.930 . S
H490 C532 0.930 . S
H491 C533 0.932 . S
H492 C535 0.930 . S
H493 C536 0.929 . S
H494 C538 0.931 . S
H495 C539 0.930 . S
H496 C541 0.929 . S
H497 C542 0.931 . S
H498 C544 0.930 . S
H499 C545 0.929 . S
O500 H474 0.856 . S
O500 C546 1.300 . S
O501 C546 1.209 . S
O502 C547 1.199 . S
O503 H475 0.854 . S
O503 C547 1.297 . S
C504 C505 1.404 . S
C504 C509 1.397 . S
C504 C510 1.492 . S
C505 C504 1.404 . S
C505 C506 1.396 . S
C505 C516 1.492 . S
C506 C505 1.396 . S
C506 C507 1.397 . S
C506 C522 1.509 . S
C507 C506 1.397 . S
C507 C508 1.412 . S
C507 C528 1.485 . S
C508 C507 1.412 . S
C508 C509 1.388 . S
C508 C534 1.490 . S
C509 C504 1.397 . S
C509 C508 1.388 . S
C509 C540 1.519 . S
C510 C504 1.492 . S
C510 C511 1.363 . S
C510 C515 1.390 . S
C511 H476 0.930 . S
C511 C510 1.363 . S
C511 C512 1.372 . S
C512 H477 0.930 . S
C512 C511 1.372 . S
C512 C513 1.383 . S
C513 C512 1.383 . S
C513 C514 1.395 . S
C514 H478 0.930 . S
C514 C513 1.395 . S
C514 C515 1.362 . S
C515 H479 0.930 . S
C515 C510 1.390 . S
C515 C514 1.362 . S
C516 C505 1.492 . S
C516 C517 1.377 . S
C516 C521 1.397 . S
C517 H480 0.931 . S
C517 C516 1.377 . S
C517 C518 1.376 . S
C518 H481 0.930 1_556 S
C518 C517 1.376 . S
C518 C519 1.376 1_556 S
C519 C518 1.376 1_554 S
C519 C520 1.378 1_554 S
C519 C546 1.486 . S
C520 H482 0.930 . S
C520 C519 1.378 1_556 S
C520 C521 1.376 . S
C521 H483 0.929 . S
C521 C516 1.397 . S
C521 C520 1.376 . S
C522 C506 1.509 . S
C522 C523 1.391 . S
C522 C527 1.386 . S
C523 H484 0.930 . S
C523 C522 1.391 . S
C523 C524 1.375 . S
C524 H485 0.931 . S
C524 C523 1.375 . S
C524 C525 1.375 . S
C525 C524 1.375 . S
C525 C526 1.361 . S
C526 H486 0.930 . S
C526 C525 1.361 . S
C526 C527 1.399 . S
C527 H487 0.929 . S
C527 C522 1.386 . S
C527 C526 1.399 . S
C528 C507 1.485 . S
C528 C529 1.394 . S
C528 C533 1.360 . S
C529 H488 0.931 . S
C529 C528 1.394 . S
C529 C530 1.372 . S
C530 H489 0.930 . S
C530 C529 1.372 . S
C530 C531 1.397 . S
C531 C530 1.397 . S
C531 C532 1.390 . S
C531 C547 1.476 . S
C532 H490 0.930 . S
C532 C531 1.390 . S
C532 C533 1.366 . S
C533 H491 0.932 . S
C533 C528 1.360 . S
C533 C532 1.366 . S
C534 C508 1.490 . S
C534 C535 1.380 . S
C534 C539 1.386 . S
C535 H492 0.930 . S
C535 C534 1.380 . S
C535 C536 1.381 . S
C536 H493 0.929 . S
C536 C535 1.381 . S
C536 C537 1.371 . S
C537 C536 1.371 . S
C537 C538 1.380 . S
C538 H494 0.931 . S
C538 C537 1.380 . S
C538 C539 1.387 . S
C539 H495 0.930 . S
C539 C534 1.386 . S
C539 C538 1.387 . S
C540 C509 1.519 . S
C540 C541 1.377 . S
C540 C545 1.361 . S
C541 H496 0.929 . S
C541 C540 1.377 . S
C541 C542 1.386 . S
C542 H497 0.931 . S
C542 C541 1.386 . S
C542 C543 1.363 . S
C543 C542 1.363 . S
C543 C544 1.385 . S
C544 H498 0.930 . S
C544 C543 1.385 . S
C544 C545 1.396 . S
C545 H499 0.929 . S
C545 C540 1.361 . S
C545 C544 1.396 . S
C546 O500 1.300 . S
C546 O501 1.209 . S
C546 C519 1.486 . S
C547 O502 1.199 . S
C547 O503 1.297 . S
C547 C531 1.476 . S
H548 O574 0.856 . S
H549 O577 0.854 . S
H550 C585 0.930 . S
H551 C586 0.930 . S
H552 C588 0.930 . S
H553 C589 0.930 . S
H554 C591 0.931 . S
H555 C592 0.930 . S
H556 C594 0.930 . S
H557 C595 0.929 . S
H558 C597 0.930 . S
H559 C598 0.931 . S
H560 C600 0.930 . S
H561 C601 0.929 . S
H562 C603 0.931 . S
H563 C604 0.930 . S
H564 C606 0.930 . S
H565 C607 0.932 . S
H566 C609 0.930 . S
H567 C610 0.929 . S
H568 C612 0.931 . S
H569 C613 0.930 . S
H570 C615 0.929 . S
H571 C616 0.931 . S
H572 C618 0.930 . S
H573 C619 0.929 . S
O574 H548 0.856 . S
O574 C620 1.300 . S
O575 C620 1.209 . S
O576 C621 1.199 . S
O577 H549 0.854 . S
O577 C621 1.297 1_565 S
C578 C579 1.404 . S
C578 C583 1.397 . S
C578 C584 1.492 . S
C579 C578 1.404 . S
C579 C580 1.396 . S
C579 C590 1.492 . S
C580 C579 1.396 . S
C580 C581 1.397 . S
C580 C596 1.509 . S
C581 C580 1.397 . S
C581 C582 1.412 . S
C581 C602 1.485 . S
C582 C581 1.412 . S
C582 C583 1.388 . S
C582 C608 1.490 . S
C583 C578 1.397 . S
C583 C582 1.388 . S
C583 C614 1.519 . S
C584 C578 1.492 . S
C584 C585 1.363 . S
C584 C589 1.390 . S
C585 H550 0.930 . S
C585 C584 1.363 . S
C585 C586 1.372 . S
C586 H551 0.930 . S
C586 C585 1.372 . S
C586 C587 1.383 . S
C587 C586 1.383 . S
C587 C588 1.395 . S
C588 H552 0.930 . S
C588 C587 1.395 . S
C588 C589 1.362 . S
C589 H553 0.930 . S
C589 C584 1.390 . S
C589 C588 1.362 . S
C590 C579 1.492 . S
C590 C591 1.377 . S
C590 C595 1.397 . S
C591 H554 0.931 . S
C591 C590 1.377 . S
C591 C592 1.376 1_556 S
C592 H555 0.930 . S
C592 C591 1.376 1_554 S
C592 C593 1.376 . S
C593 C592 1.376 . S
C593 C594 1.378 . S
C593 C620 1.486 . S
C594 H556 0.930 . S
C594 C593 1.378 . S
C594 C595 1.376 1_554 S
C595 H557 0.929 . S
C595 C590 1.397 . S
C595 C594 1.376 1_556 S
C596 C580 1.509 . S
C596 C597 1.391 . S
C596 C601 1.386 . S
C597 H558 0.930 . S
C597 C596 1.391 . S
C597 C598 1.375 . S
C598 H559 0.931 . S
C598 C597 1.375 . S
C598 C599 1.375 . S
C599 C598 1.375 . S
C599 C600 1.361 . S
C600 H560 0.930 . S
C600 C599 1.361 . S
C600 C601 1.399 . S
C601 H561 0.929 . S
C601 C596 1.386 . S
C601 C600 1.399 . S
C602 C581 1.485 . S
C602 C603 1.394 . S
C602 C607 1.360 . S
C603 H562 0.931 . S
C603 C602 1.394 . S
C603 C604 1.372 . S
C604 H563 0.930 . S
C604 C603 1.372 . S
C604 C605 1.397 . S
C605 C604 1.397 . S
C605 C606 1.390 . S
C605 C621 1.476 . S
C606 H564 0.930 . S
C606 C605 1.390 . S
C606 C607 1.366 . S
C607 H565 0.932 . S
C607 C602 1.360 . S
C607 C606 1.366 . S
C608 C582 1.490 . S
C608 C609 1.380 . S
C608 C613 1.386 . S
C609 H566 0.930 . S
C609 C608 1.380 . S
C609 C610 1.381 . S
C610 H567 0.929 . S
C610 C609 1.381 . S
C610 C611 1.371 . S
C611 C610 1.371 . S
C611 C612 1.380 . S
C612 H568 0.931 . S
C612 C611 1.380 . S
C612 C613 1.387 . S
C613 H569 0.930 . S
C613 C608 1.386 . S
C613 C612 1.387 . S
C614 C583 1.519 . S
C614 C615 1.377 . S
C614 C619 1.361 . S
C615 H570 0.929 . S
C615 C614 1.377 . S
C615 C616 1.386 . S
C616 H571 0.931 . S
C616 C615 1.386 . S
C616 C617 1.363 . S
C617 C616 1.363 . S
C617 C618 1.385 . S
C618 H572 0.930 . S
C618 C617 1.385 . S
C618 C619 1.396 . S
C619 H573 0.929 . S
C619 C614 1.361 . S
C619 C618 1.396 . S
C620 O574 1.300 . S
C620 O575 1.209 . S
C620 C593 1.486 . S
C621 O576 1.199 . S
C621 O577 1.297 1_545 S
C621 C605 1.476 . S
H622 O648 0.856 . S
H623 O651 0.854 . S
H624 C659 0.930 . S
H625 C660 0.930 . S
H626 C662 0.930 . S
H627 C663 0.930 . S
H628 C665 0.931 . S
H629 C666 0.930 . S
H630 C668 0.930 . S
H631 C669 0.929 . S
H632 C671 0.930 . S
H633 C672 0.931 . S
H634 C674 0.930 . S
H635 C675 0.929 . S
H636 C677 0.931 . S
H637 C678 0.930 . S
H638 C680 0.930 . S
H639 C681 0.932 . S
H640 C683 0.930 . S
H641 C684 0.929 . S
H642 C686 0.931 . S
H643 C687 0.930 . S
H644 C689 0.929 . S
H645 C690 0.931 . S
H646 C692 0.930 . S
H647 C693 0.929 . S
O648 H622 0.856 . S
O648 C694 1.300 . S
O649 C694 1.209 . S
O650 C695 1.199 . S
O651 H623 0.854 . S
O651 C695 1.297 . S
C652 C653 1.404 . S
C652 C657 1.397 . S
C652 C658 1.492 . S
C653 C652 1.404 . S
C653 C654 1.396 . S
C653 C664 1.492 . S
C654 C653 1.396 . S
C654 C655 1.397 . S
C654 C670 1.509 . S
C655 C654 1.397 . S
C655 C656 1.412 . S
C655 C676 1.485 . S
C656 C655 1.412 . S
C656 C657 1.388 . S
C656 C682 1.490 . S
C657 C652 1.397 . S
C657 C656 1.388 . S
C657 C688 1.519 . S
C658 C652 1.492 . S
C658 C659 1.363 . S
C658 C663 1.390 . S
C659 H624 0.930 . S
C659 C658 1.363 . S
C659 C660 1.372 . S
C660 H625 0.930 . S
C660 C659 1.372 . S
C660 C661 1.383 . S
C661 C660 1.383 . S
C661 C662 1.395 . S
C662 H626 0.930 . S
C662 C661 1.395 . S
C662 C663 1.362 . S
C663 H627 0.930 . S
C663 C658 1.390 . S
C663 C662 1.362 . S
C664 C653 1.492 . S
C664 C665 1.377 . S
C664 C669 1.397 . S
C665 H628 0.931 . S
C665 C664 1.377 . S
C665 C666 1.376 1_556 S
C666 H629 0.930 . S
C666 C665 1.376 1_554 S
C666 C667 1.376 . S
C667 C666 1.376 . S
C667 C668 1.378 . S
C667 C694 1.486 . S
C668 H630 0.930 . S
C668 C667 1.378 . S
C668 C669 1.376 1_554 S
C669 H631 0.929 . S
C669 C664 1.397 . S
C669 C668 1.376 1_556 S
C670 C654 1.509 . S
C670 C671 1.391 . S
C670 C675 1.386 . S
C671 H632 0.930 . S
C671 C670 1.391 . S
C671 C672 1.375 . S
C672 H633 0.931 . S
C672 C671 1.375 . S
C672 C673 1.375 . S
C673 C672 1.375 . S
C673 C674 1.361 . S
C674 H634 0.930 . S
C674 C673 1.361 . S
C674 C675 1.399 . S
C675 H635 0.929 . S
C675 C670 1.386 . S
C675 C674 1.399 . S
C676 C655 1.485 . S
C676 C677 1.394 . S
C676 C681 1.360 . S
C677 H636 0.931 . S
C677 C676 1.394 . S
C677 C678 1.372 . S
C678 H637 0.930 . S
C678 C677 1.372 . S
C678 C679 1.397 . S
C679 C678 1.397 . S
C679 C680 1.390 . S
C679 C695 1.476 . S
C680 H638 0.930 . S
C680 C679 1.390 . S
C680 C681 1.366 . S
C681 H639 0.932 . S
C681 C676 1.360 . S
C681 C680 1.366 . S
C682 C656 1.490 . S
C682 C683 1.380 . S
C682 C687 1.386 . S
C683 H640 0.930 . S
C683 C682 1.380 . S
C683 C684 1.381 . S
C684 H641 0.929 . S
C684 C683 1.381 . S
C684 C685 1.371 . S
C685 C684 1.371 . S
C685 C686 1.380 . S
C686 H642 0.931 . S
C686 C685 1.380 . S
C686 C687 1.387 . S
C687 H643 0.930 . S
C687 C682 1.386 . S
C687 C686 1.387 . S
C688 C657 1.519 . S
C688 C689 1.377 . S
C688 C693 1.361 . S
C689 H644 0.929 . S
C689 C688 1.377 . S
C689 C690 1.386 . S
C690 H645 0.931 . S
C690 C689 1.386 . S
C690 C691 1.363 . S
C691 C690 1.363 . S
C691 C692 1.385 . S
C692 H646 0.930 . S
C692 C691 1.385 . S
C692 C693 1.396 . S
C693 H647 0.929 . S
C693 C688 1.361 . S
C693 C692 1.396 . S
C694 O648 1.300 . S
C694 O649 1.209 . S
C694 C667 1.486 . S
C695 O650 1.199 . S
C695 O651 1.297 . S
C695 C679 1.476 . S
H696 O722 0.856 . S
H697 O725 0.854 . S
H698 C733 0.930 . S
H699 C734 0.930 . S
H700 C736 0.930 . S
H701 C737 0.930 . S
H702 C739 0.931 . S
H703 C740 0.930 . S
H704 C742 0.930 . S
H705 C743 0.929 . S
H706 C745 0.930 . S
H707 C746 0.931 . S
H708 C748 0.930 . S
H709 C749 0.929 . S
H710 C751 0.931 . S
H711 C752 0.930 . S
H712 C754 0.930 . S
H713 C755 0.932 . S
H714 C757 0.930 . S
H715 C758 0.929 . S
H716 C760 0.931 . S
H717 C761 0.930 . S
H718 C763 0.929 . S
H719 C764 0.931 . S
H720 C766 0.930 . S
H721 C767 0.929 . S
O722 H696 0.856 . S
O722 C768 1.300 . S
O723 C768 1.209 . S
O724 C769 1.199 . S
O725 H697 0.854 . S
O725 C769 1.297 . S
C726 C727 1.404 . S
C726 C731 1.397 . S
C726 C732 1.492 . S
C727 C726 1.404 . S
C727 C728 1.396 . S
C727 C738 1.492 . S
C728 C727 1.396 . S
C728 C729 1.397 . S
C728 C744 1.509 . S
C729 C728 1.397 . S
C729 C730 1.412 . S
C729 C750 1.485 . S
C730 C729 1.412 . S
C730 C731 1.388 . S
C730 C756 1.490 . S
C731 C726 1.397 . S
C731 C730 1.388 . S
C731 C762 1.519 . S
C732 C726 1.492 . S
C732 C733 1.363 . S
C732 C737 1.390 . S
C733 H698 0.930 . S
C733 C732 1.363 . S
C733 C734 1.372 . S
C734 H699 0.930 . S
C734 C733 1.372 . S
C734 C735 1.383 . S
C735 C734 1.383 . S
C735 C736 1.395 . S
C736 H700 0.930 . S
C736 C735 1.395 . S
C736 C737 1.362 . S
C737 H701 0.930 . S
C737 C732 1.390 . S
C737 C736 1.362 . S
C738 C727 1.492 . S
C738 C739 1.377 . S
C738 C743 1.397 . S
C739 H702 0.931 . S
C739 C738 1.377 . S
C739 C740 1.376 . S
C740 H703 0.930 . S
C740 C739 1.376 . S
C740 C741 1.376 . S
C741 C740 1.376 . S
C741 C742 1.378 . S
C741 C768 1.486 . S
C742 H704 0.930 . S
C742 C741 1.378 . S
C742 C743 1.376 . S
C743 H705 0.929 . S
C743 C738 1.397 . S
C743 C742 1.376 . S
C744 C728 1.509 . S
C744 C745 1.391 . S
C744 C749 1.386 . S
C745 H706 0.930 . S
C745 C744 1.391 . S
C745 C746 1.375 . S
C746 H707 0.931 . S
C746 C745 1.375 . S
C746 C747 1.375 . S
C747 C746 1.375 . S
C747 C748 1.361 . S
C748 H708 0.930 . S
C748 C747 1.361 . S
C748 C749 1.399 . S
C749 H709 0.929 . S
C749 C744 1.386 . S
C749 C748 1.399 . S
C750 C729 1.485 . S
C750 C751 1.394 . S
C750 C755 1.360 . S
C751 H710 0.931 . S
C751 C750 1.394 . S
C751 C752 1.372 . S
C752 H711 0.930 . S
C752 C751 1.372 . S
C752 C753 1.397 . S
C753 C752 1.397 . S
C753 C754 1.390 . S
C753 C769 1.476 . S
C754 H712 0.930 . S
C754 C753 1.390 . S
C754 C755 1.366 . S
C755 H713 0.932 . S
C755 C750 1.360 . S
C755 C754 1.366 . S
C756 C730 1.490 . S
C756 C757 1.380 . S
C756 C761 1.386 . S
C757 H714 0.930 . S
C757 C756 1.380 . S
C757 C758 1.381 . S
C758 H715 0.929 . S
C758 C757 1.381 . S
C758 C759 1.371 . S
C759 C758 1.371 . S
C759 C760 1.380 . S
C760 H716 0.931 . S
C760 C759 1.380 . S
C760 C761 1.387 . S
C761 H717 0.930 . S
C761 C756 1.386 . S
C761 C760 1.387 . S
C762 C731 1.519 . S
C762 C763 1.377 . S
C762 C767 1.361 . S
C763 H718 0.929 . S
C763 C762 1.377 . S
C763 C764 1.386 . S
C764 H719 0.931 . S
C764 C763 1.386 . S
C764 C765 1.363 . S
C765 C764 1.363 . S
C765 C766 1.385 . S
C766 H720 0.930 . S
C766 C765 1.385 . S
C766 C767 1.396 . S
C767 H721 0.929 . S
C767 C762 1.361 . S
C767 C766 1.396 . S
C768 O722 1.300 . S
C768 O723 1.209 . S
C768 C741 1.486 . S
C769 O724 1.199 . S
C769 O725 1.297 . S
C769 C753 1.476 . S
H770 O796 0.856 . S
H771 O799 0.854 . S
H772 C807 0.930 . S
H773 C808 0.930 . S
H774 C810 0.930 . S
H775 C811 0.930 . S
H776 C813 0.931 . S
H777 C814 0.930 . S
H778 C816 0.930 . S
H779 C817 0.929 . S
H780 C819 0.930 . S
H781 C820 0.931 . S
H782 C822 0.930 . S
H783 C823 0.929 . S
H784 C825 0.931 . S
H785 C826 0.930 . S
H786 C828 0.930 . S
H787 C829 0.932 . S
H788 C831 0.930 . S
H789 C832 0.929 . S
H790 C834 0.931 . S
H791 C835 0.930 . S
H792 C837 0.929 . S
H793 C838 0.931 . S
H794 C840 0.930 . S
H795 C841 0.929 . S
O796 H770 0.856 . S
O796 C842 1.300 . S
O797 C842 1.209 . S
O798 C843 1.199 . S
O799 H771 0.854 . S
O799 C843 1.297 . S
C800 C801 1.404 . S
C800 C805 1.397 . S
C800 C806 1.492 . S
C801 C800 1.404 . S
C801 C802 1.396 . S
C801 C812 1.492 . S
C802 C801 1.396 . S
C802 C803 1.397 . S
C802 C818 1.509 . S
C803 C802 1.397 . S
C803 C804 1.412 . S
C803 C824 1.485 . S
C804 C803 1.412 . S
C804 C805 1.388 . S
C804 C830 1.490 . S
C805 C800 1.397 . S
C805 C804 1.388 . S
C805 C836 1.519 . S
C806 C800 1.492 . S
C806 C807 1.363 . S
C806 C811 1.390 . S
C807 H772 0.930 . S
C807 C806 1.363 . S
C807 C808 1.372 . S
C808 H773 0.930 . S
C808 C807 1.372 . S
C808 C809 1.383 . S
C809 C808 1.383 . S
C809 C810 1.395 . S
C810 H774 0.930 . S
C810 C809 1.395 . S
C810 C811 1.362 . S
C811 H775 0.930 . S
C811 C806 1.390 . S
C811 C810 1.362 . S
C812 C801 1.492 . S
C812 C813 1.377 . S
C812 C817 1.397 . S
C813 H776 0.931 . S
C813 C812 1.377 . S
C813 C814 1.376 . S
C814 H777 0.930 . S
C814 C813 1.376 . S
C814 C815 1.376 . S
C815 C814 1.376 . S
C815 C816 1.378 . S
C815 C842 1.486 . S
C816 H778 0.930 . S
C816 C815 1.378 . S
C816 C817 1.376 . S
C817 H779 0.929 . S
C817 C812 1.397 . S
C817 C816 1.376 . S
C818 C802 1.509 . S
C818 C819 1.391 . S
C818 C823 1.386 . S
C819 H780 0.930 . S
C819 C818 1.391 . S
C819 C820 1.375 . S
C820 H781 0.931 . S
C820 C819 1.375 . S
C820 C821 1.375 . S
C821 C820 1.375 . S
C821 C822 1.361 . S
C822 H782 0.930 . S
C822 C821 1.361 . S
C822 C823 1.399 . S
C823 H783 0.929 . S
C823 C818 1.386 . S
C823 C822 1.399 . S
C824 C803 1.485 . S
C824 C825 1.394 . S
C824 C829 1.360 . S
C825 H784 0.931 . S
C825 C824 1.394 . S
C825 C826 1.372 . S
C826 H785 0.930 . S
C826 C825 1.372 . S
C826 C827 1.397 . S
C827 C826 1.397 . S
C827 C828 1.390 . S
C827 C843 1.476 . S
C828 H786 0.930 . S
C828 C827 1.390 . S
C828 C829 1.366 . S
C829 H787 0.932 . S
C829 C824 1.360 . S
C829 C828 1.366 . S
C830 C804 1.490 . S
C830 C831 1.380 . S
C830 C835 1.386 . S
C831 H788 0.930 . S
C831 C830 1.380 . S
C831 C832 1.381 . S
C832 H789 0.929 . S
C832 C831 1.381 . S
C832 C833 1.371 . S
C833 C832 1.371 . S
C833 C834 1.380 . S
C834 H790 0.931 . S
C834 C833 1.380 . S
C834 C835 1.387 . S
C835 H791 0.930 . S
C835 C830 1.386 . S
C835 C834 1.387 . S
C836 C805 1.519 . S
C836 C837 1.377 . S
C836 C841 1.361 . S
C837 H792 0.929 . S
C837 C836 1.377 . S
C837 C838 1.386 . S
C838 H793 0.931 . S
C838 C837 1.386 . S
C838 C839 1.363 . S
C839 C838 1.363 . S
C839 C840 1.385 . S
C840 H794 0.930 . S
C840 C839 1.385 . S
C840 C841 1.396 . S
C841 H795 0.929 . S
C841 C836 1.361 . S
C841 C840 1.396 . S
C842 O796 1.300 . S
C842 O797 1.209 . S
C842 C815 1.486 . S
C843 O798 1.199 . S
C843 O799 1.297 . S
C843 C827 1.476 . S
H844 O870 0.856 . S
H845 O873 0.854 . S
H846 C881 0.930 . S
H847 C882 0.930 . S
H848 C884 0.930 . S
H849 C885 0.930 . S
H850 C887 0.931 . S
H851 C888 0.930 . S
H852 C890 0.930 . S
H853 C891 0.929 . S
H854 C893 0.930 . S
H855 C894 0.931 . S
H856 C896 0.930 . S
H857 C897 0.929 . S
H858 C899 0.931 . S
H859 C900 0.930 . S
H860 C902 0.930 . S
H861 C903 0.932 . S
H862 C905 0.930 . S
H863 C906 0.929 . S
H864 C908 0.931 . S
H865 C909 0.930 . S
H866 C911 0.929 . S
H867 C912 0.931 . S
H868 C914 0.930 . S
H869 C915 0.929 . S
O870 H844 0.856 . S
O870 C916 1.300 . S
O871 C916 1.209 . S
O872 C917 1.199 . S
O873 H845 0.854 . S
O873 C917 1.297 . S
C874 C875 1.404 . S
C874 C879 1.397 . S
C874 C880 1.492 . S
C875 C874 1.404 . S
C875 C876 1.396 . S
C875 C886 1.492 . S
C876 C875 1.396 . S
C876 C877 1.397 . S
C876 C892 1.509 . S
C877 C876 1.397 . S
C877 C878 1.412 . S
C877 C898 1.485 . S
C878 C877 1.412 . S
C878 C879 1.388 . S
C878 C904 1.490 . S
C879 C874 1.397 . S
C879 C878 1.388 . S
C879 C910 1.519 . S
C880 C874 1.492 . S
C880 C881 1.363 . S
C880 C885 1.390 . S
C881 H846 0.930 . S
C881 C880 1.363 . S
C881 C882 1.372 . S
C882 H847 0.930 . S
C882 C881 1.372 . S
C882 C883 1.383 . S
C883 C882 1.383 . S
C883 C884 1.395 . S
C884 H848 0.930 . S
C884 C883 1.395 . S
C884 C885 1.362 . S
C885 H849 0.930 . S
C885 C880 1.390 . S
C885 C884 1.362 . S
C886 C875 1.492 . S
C886 C887 1.377 . S
C886 C891 1.397 . S
C887 H850 0.931 . S
C887 C886 1.377 . S
C887 C888 1.376 . S
C888 H851 0.930 . S
C888 C887 1.376 . S
C888 C889 1.376 . S
C889 C888 1.376 . S
C889 C890 1.378 . S
C889 C916 1.486 . S
C890 H852 0.930 . S
C890 C889 1.378 . S
C890 C891 1.376 . S
C891 H853 0.929 . S
C891 C886 1.397 . S
C891 C890 1.376 . S
C892 C876 1.509 . S
C892 C893 1.391 . S
C892 C897 1.386 . S
C893 H854 0.930 . S
C893 C892 1.391 . S
C893 C894 1.375 . S
C894 H855 0.931 . S
C894 C893 1.375 . S
C894 C895 1.375 . S
C895 C894 1.375 . S
C895 C896 1.361 . S
C896 H856 0.930 . S
C896 C895 1.361 . S
C896 C897 1.399 . S
C897 H857 0.929 . S
C897 C892 1.386 . S
C897 C896 1.399 . S
C898 C877 1.485 . S
C898 C899 1.394 . S
C898 C903 1.360 . S
C899 H858 0.931 . S
C899 C898 1.394 . S
C899 C900 1.372 . S
C900 H859 0.930 . S
C900 C899 1.372 . S
C900 C901 1.397 . S
C901 C900 1.397 . S
C901 C902 1.390 . S
C901 C917 1.476 . S
C902 H860 0.930 . S
C902 C901 1.390 . S
C902 C903 1.366 . S
C903 H861 0.932 . S
C903 C898 1.360 . S
C903 C902 1.366 . S
C904 C878 1.490 . S
C904 C905 1.380 . S
C904 C909 1.386 . S
C905 H862 0.930 . S
C905 C904 1.380 . S
C905 C906 1.381 . S
C906 H863 0.929 . S
C906 C905 1.381 . S
C906 C907 1.371 . S
C907 C906 1.371 . S
C907 C908 1.380 . S
C908 H864 0.931 . S
C908 C907 1.380 . S
C908 C909 1.387 . S
C909 H865 0.930 . S
C909 C904 1.386 . S
C909 C908 1.387 . S
C910 C879 1.519 . S
C910 C911 1.377 . S
C910 C915 1.361 . S
C911 H866 0.929 . S
C911 C910 1.377 . S
C911 C912 1.386 . S
C912 H867 0.931 . S
C912 C911 1.386 . S
C912 C913 1.363 . S
C913 C912 1.363 . S
C913 C914 1.385 . S
C914 H868 0.930 . S
C914 C913 1.385 . S
C914 C915 1.396 . S
C915 H869 0.929 . S
C915 C910 1.361 . S
C915 C914 1.396 . S
C916 O870 1.300 . S
C916 O871 1.209 . S
C916 C889 1.486 . S
C917 O872 1.199 . S
C917 O873 1.297 . S
C917 C901 1.476 . S
H918 O944 0.856 . S
H919 O947 0.854 . S
H920 C955 0.930 . S
H921 C956 0.930 . S
H922 C958 0.930 . S
H923 C959 0.930 . S
H924 C961 0.931 . S
H925 C962 0.930 1_655 S
H926 C964 0.930 . S
H927 C965 0.929 . S
H928 C967 0.930 . S
H929 C968 0.931 1_655 S
H930 C970 0.930 . S
H931 C971 0.929 . S
H932 C973 0.931 . S
H933 C974 0.930 . S
H934 C976 0.930 . S
H935 C977 0.932 . S
H936 C979 0.930 . S
H937 C980 0.929 . S
H938 C982 0.931 . S
H939 C983 0.930 . S
H940 C985 0.929 . S
H941 C986 0.931 . S
H942 C988 0.930 . S
H943 C989 0.929 . S
O944 H918 0.856 . S
O944 C990 1.300 . S
O945 C990 1.209 . S
O946 C991 1.199 1_655 S
O947 H919 0.854 . S
O947 C991 1.297 . S
C948 C949 1.404 . S
C948 C953 1.397 . S
C948 C954 1.492 . S
C949 C948 1.404 . S
C949 C950 1.396 . S
C949 C960 1.492 . S
C950 C949 1.396 . S
C950 C951 1.397 . S
C950 C966 1.509 . S
C951 C950 1.397 . S
C951 C952 1.425 . S
C951 C972 1.485 . S
C952 C951 1.425 . S
C952 C953 1.375 . S
C952 C978 1.491 1_455 S
C953 C948 1.397 . S
C953 C952 1.375 . S
C953 C984 1.499 1_455 S
C954 C948 1.492 . S
C954 C955 1.363 1_455 S
C954 C959 1.390 . S
C955 H920 0.930 . S
C955 C954 1.363 1_655 S
C955 C956 1.372 . S
C956 H921 0.930 . S
C956 C955 1.372 . S
C956 C957 1.383 . S
C957 C956 1.383 . S
C957 C958 1.395 1_655 S
C958 H922 0.930 . S
C958 C957 1.395 1_455 S
C958 C959 1.362 . S
C959 H923 0.930 . S
C959 C954 1.390 . S
C959 C958 1.362 . S
C960 C949 1.492 . S
C960 C961 1.377 1_455 S
C960 C965 1.397 . S
C961 H924 0.931 . S
C961 C960 1.377 1_655 S
C961 C962 1.376 1_655 S
C962 H925 0.930 1_455 S
C962 C961 1.376 1_455 S
C962 C963 1.376 . S
C963 C962 1.376 . S
C963 C964 1.378 . S
C963 C990 1.486 . S
C964 H926 0.930 . S
C964 C963 1.378 . S
C964 C965 1.376 . S
C965 H927 0.929 . S
C965 C960 1.397 . S
C965 C964 1.376 . S
C966 C950 1.509 . S
C966 C967 1.391 1_455 S
C966 C971 1.386 . S
C967 H928 0.930 . S
C967 C966 1.391 1_655 S
C967 C968 1.375 1_655 S
C968 H929 0.931 1_455 S
C968 C967 1.375 1_455 S
C968 C969 1.375 . S
C969 C968 1.375 . S
C969 C970 1.361 . S
C970 H930 0.930 . S
C970 C969 1.361 . S
C970 C971 1.399 . S
C971 H931 0.929 . S
C971 C966 1.386 . S
C971 C970 1.399 . S
C972 C951 1.485 . S
C972 C973 1.394 1_455 S
C972 C977 1.360 . S
C973 H932 0.931 . S
C973 C972 1.394 1_655 S
C973 C974 1.372 . S
C974 H933 0.930 . S
C974 C973 1.372 . S
C974 C975 1.397 1_655 S
C975 C974 1.397 1_455 S
C975 C976 1.390 . S
C975 C991 1.476 . S
C976 H934 0.930 . S
C976 C975 1.390 . S
C976 C977 1.366 . S
C977 H935 0.932 . S
C977 C972 1.360 . S
C977 C976 1.366 . S
C978 C952 1.491 1_655 S
C978 C979 1.380 . S
C978 C983 1.386 1_655 S
C979 H936 0.930 . S
C979 C978 1.380 . S
C979 C980 1.381 . S
C980 H937 0.929 . S
C980 C979 1.381 . S
C980 C981 1.371 . S
C981 C980 1.371 . S
C981 C982 1.380 1_655 S
C982 H938 0.931 . S
C982 C981 1.380 1_455 S
C982 C983 1.387 . S
C983 H939 0.930 . S
C983 C978 1.386 1_455 S
C983 C982 1.387 . S
C984 C953 1.499 1_655 S
C984 C985 1.431 . S
C984 C989 1.327 1_655 S
C985 H940 0.929 . S
C985 C984 1.431 . S
C985 C986 1.386 . S
C986 H941 0.931 . S
C986 C985 1.386 . S
C986 C987 1.363 . S
C987 C986 1.363 . S
C987 C988 1.385 1_655 S
C988 H942 0.930 . S
C988 C987 1.385 1_455 S
C988 C989 1.396 . S
C989 H943 0.929 . S
C989 C984 1.327 1_455 S
C989 C988 1.396 . S
C990 O944 1.300 . S
C990 O945 1.209 . S
C990 C963 1.486 . S
C991 O946 1.199 1_455 S
C991 O947 1.297 . S
C991 C975 1.476 . S
H992 O1018 0.856 . S
H993 O1021 0.854 . S
H994 C1029 0.930 . S
H995 C1030 0.930 . S
H996 C1032 0.930 . S
H997 C1033 0.930 . S
H998 C1035 0.931 . S
H999 C1036 0.930 . S
H1000 C1038 0.930 . S
H1001 C1039 0.929 . S
H1002 C1041 0.930 . S
H1003 C1042 0.931 . S
H1004 C1044 0.930 . S
H1005 C1045 0.929 . S
H1006 C1047 0.931 . S
H1007 C1048 0.930 . S
H1008 C1050 0.930 . S
H1009 C1051 0.932 . S
H1010 C1053 0.930 . S
H1011 C1054 0.929 . S
H1012 C1056 0.931 . S
H1013 C1057 0.930 . S
H1014 C1059 0.929 . S
H1015 C1060 0.931 . S
H1016 C1062 0.930 . S
H1017 C1063 0.929 . S
O1018 H992 0.856 . S
O1018 C1064 1.300 . S
O1019 C1064 1.209 . S
O1020 C1065 1.199 . S
O1021 H993 0.854 . S
O1021 C1065 1.297 . S
C1022 C1023 1.404 . S
C1022 C1027 1.397 . S
C1022 C1028 1.492 . S
C1023 C1022 1.404 . S
C1023 C1024 1.396 . S
C1023 C1034 1.492 . S
C1024 C1023 1.396 . S
C1024 C1025 1.397 . S
C1024 C1040 1.509 . S
C1025 C1024 1.397 . S
C1025 C1026 1.412 . S
C1025 C1046 1.485 . S
C1026 C1025 1.412 . S
C1026 C1027 1.388 . S
C1026 C1052 1.490 . S
C1027 C1022 1.397 . S
C1027 C1026 1.388 . S
C1027 C1058 1.519 . S
C1028 C1022 1.492 . S
C1028 C1029 1.363 . S
C1028 C1033 1.390 . S
C1029 H994 0.930 . S
C1029 C1028 1.363 . S
C1029 C1030 1.372 . S
C1030 H995 0.930 . S
C1030 C1029 1.372 . S
C1030 C1031 1.383 . S
C1031 C1030 1.383 . S
C1031 C1032 1.395 . S
C1032 H996 0.930 . S
C1032 C1031 1.395 . S
C1032 C1033 1.362 . S
C1033 H997 0.930 . S
C1033 C1028 1.390 . S
C1033 C1032 1.362 . S
C1034 C1023 1.492 . S
C1034 C1035 1.377 . S
C1034 C1039 1.397 . S
C1035 H998 0.931 . S
C1035 C1034 1.377 . S
C1035 C1036 1.376 . S
C1036 H999 0.930 . S
C1036 C1035 1.376 . S
C1036 C1037 1.376 . S
C1037 C1036 1.376 . S
C1037 C1038 1.378 . S
C1037 C1064 1.486 . S
C1038 H1000 0.930 . S
C1038 C1037 1.378 . S
C1038 C1039 1.376 . S
C1039 H1001 0.929 . S
C1039 C1034 1.397 . S
C1039 C1038 1.376 . S
C1040 C1024 1.509 . S
C1040 C1041 1.391 . S
C1040 C1045 1.386 . S
C1041 H1002 0.930 . S
C1041 C1040 1.391 . S
C1041 C1042 1.375 . S
C1042 H1003 0.931 . S
C1042 C1041 1.375 . S
C1042 C1043 1.375 . S
C1043 C1042 1.375 . S
C1043 C1044 1.361 . S
C1044 H1004 0.930 . S
C1044 C1043 1.361 . S
C1044 C1045 1.399 . S
C1045 H1005 0.929 . S
C1045 C1040 1.386 . S
C1045 C1044 1.399 . S
C1046 C1025 1.485 . S
C1046 C1047 1.394 . S
C1046 C1051 1.360 . S
C1047 H1006 0.931 . S
C1047 C1046 1.394 . S
C1047 C1048 1.372 . S
C1048 H1007 0.930 . S
C1048 C1047 1.372 . S
C1048 C1049 1.397 . S
C1049 C1048 1.397 . S
C1049 C1050 1.390 . S
C1049 C1065 1.476 . S
C1050 H1008 0.930 . S
C1050 C1049 1.390 . S
C1050 C1051 1.366 . S
C1051 H1009 0.932 . S
C1051 C1046 1.360 . S
C1051 C1050 1.366 . S
C1052 C1026 1.490 . S
C1052 C1053 1.380 . S
C1052 C1057 1.386 . S
C1053 H1010 0.930 . S
C1053 C1052 1.380 . S
C1053 C1054 1.381 . S
C1054 H1011 0.929 . S
C1054 C1053 1.381 . S
C1054 C1055 1.371 . S
C1055 C1054 1.371 . S
C1055 C1056 1.380 . S
C1056 H1012 0.931 . S
C1056 C1055 1.380 . S
C1056 C1057 1.387 . S
C1057 H1013 0.930 . S
C1057 C1052 1.386 . S
C1057 C1056 1.387 . S
C1058 C1027 1.519 . S
C1058 C1059 1.377 . S
C1058 C1063 1.361 . S
C1059 H1014 0.929 . S
C1059 C1058 1.377 . S
C1059 C1060 1.386 . S
C1060 H1015 0.931 . S
C1060 C1059 1.386 . S
C1060 C1061 1.363 . S
C1061 C1060 1.363 . S
C1061 C1062 1.385 . S
C1062 H1016 0.930 . S
C1062 C1061 1.385 . S
C1062 C1063 1.396 . S
C1063 H1017 0.929 . S
C1063 C1058 1.361 . S
C1063 C1062 1.396 . S
C1064 O1018 1.300 . S
C1064 O1019 1.209 . S
C1064 C1037 1.486 . S
C1065 O1020 1.199 . S
C1065 O1021 1.297 . S
C1065 C1049 1.476 . S
H1066 O1092 0.856 . S
H1067 O1095 0.854 . S
H1068 C1103 0.930 . S
H1069 C1104 0.930 . S
H1070 C1106 0.930 . S
H1071 C1107 0.930 . S
H1072 C1109 0.931 . S
H1073 C1110 0.926 1_545 S
H1074 C1112 0.930 . S
H1075 C1113 0.929 . S
H1076 C1115 0.930 . S
H1077 C1116 0.931 . S
H1078 C1118 0.930 . S
H1079 C1119 0.929 . S
H1080 C1121 0.931 . S
H1081 C1122 0.930 . S
H1082 C1124 0.930 . S
H1083 C1125 0.932 . S
H1084 C1127 0.930 . S
H1085 C1128 0.929 . S
H1086 C1130 0.931 . S
H1087 C1131 0.930 . S
H1088 C1133 0.929 . S
H1089 C1134 0.931 . S
H1090 C1136 0.930 . S
H1091 C1137 0.929 . S
O1092 H1066 0.856 . S
O1092 C1138 1.300 . S
O1093 C1138 1.209 . S
O1094 C1139 1.199 1_545 S
O1095 H1067 0.854 . S
O1095 C1139 1.297 . S
C1096 C1097 1.404 . S
C1096 C1101 1.414 . S
C1096 C1102 1.492 . S
C1097 C1096 1.404 . S
C1097 C1098 1.396 . S
C1097 C1108 1.492 . S
C1098 C1097 1.396 . S
C1098 C1099 1.397 . S
C1098 C1114 1.509 . S
C1099 C1098 1.397 . S
C1099 C1100 1.413 1_565 S
C1099 C1120 1.485 . S
C1100 C1099 1.413 1_545 S
C1100 C1101 1.359 1_545 S
C1100 C1126 1.492 . S
C1101 C1096 1.414 . S
C1101 C1100 1.359 1_565 S
C1101 C1132 1.533 1_565 S
C1102 C1096 1.492 . S
C1102 C1103 1.363 1_565 S
C1102 C1107 1.390 . S
C1103 H1068 0.930 . S
C1103 C1102 1.363 1_545 S
C1103 C1104 1.372 . S
C1104 H1069 0.930 . S
C1104 C1103 1.372 . S
C1104 C1105 1.383 . S
C1105 C1104 1.383 . S
C1105 C1106 1.395 1_545 S
C1106 H1070 0.930 . S
C1106 C1105 1.395 1_565 S
C1106 C1107 1.362 . S
C1107 H1071 0.930 . S
C1107 C1102 1.390 . S
C1107 C1106 1.362 . S
C1108 C1097 1.492 . S
C1108 C1109 1.377 1_565 S
C1108 C1113 1.397 . S
C1109 H1072 0.931 . S
C1109 C1108 1.377 1_545 S
C1109 C1110 1.373 1_545 S
C1110 H1073 0.926 1_565 S
C1110 C1109 1.373 1_565 S
C1110 C1111 1.382 . S
C1111 C1110 1.382 . S
C1111 C1112 1.378 . S
C1111 C1138 1.486 . S
C1112 H1074 0.930 . S
C1112 C1111 1.378 . S
C1112 C1113 1.376 . S
C1113 H1075 0.929 . S
C1113 C1108 1.397 . S
C1113 C1112 1.376 . S
C1114 C1098 1.509 . S
C1114 C1115 1.391 1_565 S
C1114 C1119 1.386 . S
C1115 H1076 0.930 . S
C1115 C1114 1.391 1_545 S
C1115 C1116 1.375 . S
C1116 H1077 0.931 . S
C1116 C1115 1.375 . S
C1116 C1117 1.375 1_545 S
C1117 C1116 1.375 1_565 S
C1117 C1118 1.361 . S
C1118 H1078 0.930 . S
C1118 C1117 1.361 . S
C1118 C1119 1.399 . S
C1119 H1079 0.929 . S
C1119 C1114 1.386 . S
C1119 C1118 1.399 . S
C1120 C1099 1.485 . S
C1120 C1121 1.394 1_565 S
C1120 C1125 1.360 . S
C1121 H1080 0.931 . S
C1121 C1120 1.394 1_545 S
C1121 C1122 1.372 . S
C1122 H1081 0.930 . S
C1122 C1121 1.372 . S
C1122 C1123 1.397 1_545 S
C1123 C1122 1.397 1_565 S
C1123 C1124 1.390 . S
C1123 C1139 1.476 . S
C1124 H1082 0.930 . S
C1124 C1123 1.390 . S
C1124 C1125 1.366 . S
C1125 H1083 0.932 . S
C1125 C1120 1.360 . S
C1125 C1124 1.366 . S
C1126 C1100 1.492 . S
C1126 C1127 1.380 . S
C1126 C1131 1.386 1_545 S
C1127 H1084 0.930 . S
C1127 C1126 1.380 . S
C1127 C1128 1.381 . S
C1128 H1085 0.929 . S
C1128 C1127 1.381 . S
C1128 C1129 1.371 . S
C1129 C1128 1.371 . S
C1129 C1130 1.380 1_545 S
C1130 H1086 0.931 . S
C1130 C1129 1.380 1_565 S
C1130 C1131 1.387 . S
C1131 H1087 0.930 . S
C1131 C1126 1.386 1_565 S
C1131 C1130 1.387 . S
C1132 C1101 1.533 1_545 S
C1132 C1133 1.376 . S
C1132 C1137 1.363 1_545 S
C1133 H1088 0.929 . S
C1133 C1132 1.376 . S
C1133 C1134 1.386 . S
C1134 H1089 0.931 . S
C1134 C1133 1.386 . S
C1134 C1135 1.363 1_545 S
C1135 C1134 1.363 1_565 S
C1135 C1136 1.385 . S
C1136 H1090 0.930 . S
C1136 C1135 1.385 . S
C1136 C1137 1.396 . S
C1137 H1091 0.929 . S
C1137 C1132 1.363 1_565 S
C1137 C1136 1.396 . S
C1138 O1092 1.300 . S
C1138 O1093 1.209 . S
C1138 C1111 1.486 . S
C1139 O1094 1.199 1_565 S
C1139 O1095 1.297 . S
C1139 C1123 1.476 . S
H1140 O1166 0.856 . S
H1141 O1169 0.854 . S
H1142 C1177 0.930 . S
H1143 C1178 0.930 . S
H1144 C1180 0.930 . S
H1145 C1181 0.930 . S
H1146 C1183 0.931 . S
H1147 C1184 0.930 . S
H1148 C1186 0.930 . S
H1149 C1187 0.929 . S
H1150 C1189 0.930 . S
H1151 C1190 0.931 . S
H1152 C1192 0.930 . S
H1153 C1193 0.929 . S
H1154 C1195 0.931 . S
H1155 C1196 0.930 . S
H1156 C1198 0.930 . S
H1157 C1199 0.932 . S
H1158 C1201 0.930 . S
H1159 C1202 0.929 . S
H1160 C1204 0.931 . S
H1161 C1205 0.930 . S
H1162 C1207 0.929 . S
H1163 C1208 0.931 . S
H1164 C1210 0.930 . S
H1165 C1211 0.929 . S
O1166 H1140 0.856 . S
O1166 C1212 1.300 . S
O1167 C1212 1.209 1_565 S
O1168 C1213 1.199 1_545 S
O1169 H1141 0.854 . S
O1169 C1213 1.297 . S
C1170 C1171 1.404 . S
C1170 C1175 1.396 1_545 S
C1170 C1176 1.492 . S
C1171 C1170 1.404 . S
C1171 C1172 1.427 . S
C1171 C1182 1.492 . S
C1172 C1171 1.427 . S
C1172 C1173 1.372 1_545 S
C1172 C1188 1.503 . S
C1173 C1172 1.372 1_565 S
C1173 C1174 1.395 . S
C1173 C1194 1.518 . S
C1174 C1173 1.395 . S
C1174 C1175 1.391 . S
C1174 C1200 1.490 . S
C1175 C1170 1.396 1_565 S
C1175 C1174 1.391 . S
C1175 C1206 1.518 . S
C1176 C1170 1.492 . S
C1176 C1177 1.363 . S
C1176 C1181 1.390 1_545 S
C1177 H1142 0.930 . S
C1177 C1176 1.363 . S
C1177 C1178 1.372 . S
C1178 H1143 0.930 . S
C1178 C1177 1.372 . S
C1178 C1179 1.383 . S
C1179 C1178 1.383 . S
C1179 C1180 1.395 1_545 S
C1180 H1144 0.930 . S
C1180 C1179 1.395 1_565 S
C1180 C1181 1.362 . S
C1181 H1145 0.930 . S
C1181 C1176 1.390 1_565 S
C1181 C1180 1.362 . S
C1182 C1171 1.492 . S
C1182 C1183 1.377 . S
C1182 C1187 1.397 1_545 S
C1183 H1146 0.931 . S
C1183 C1182 1.377 . S
C1183 C1184 1.376 . S
C1184 H1147 0.930 . S
C1184 C1183 1.376 . S
C1184 C1185 1.376 . S
C1185 C1184 1.376 . S
C1185 C1186 1.378 1_545 S
C1185 C1212 1.486 . S
C1186 H1148 0.930 . S
C1186 C1185 1.378 1_565 S
C1186 C1187 1.376 . S
C1187 H1149 0.929 . S
C1187 C1182 1.397 1_565 S
C1187 C1186 1.376 . S
C1188 C1172 1.503 . S
C1188 C1189 1.405 . S
C1188 C1193 1.361 1_545 S
C1189 H1150 0.930 . S
C1189 C1188 1.405 . S
C1189 C1190 1.375 . S
C1190 H1151 0.931 . S
C1190 C1189 1.375 . S
C1190 C1191 1.373 . S
C1191 C1190 1.373 . S
C1191 C1192 1.363 1_545 S
C1192 H1152 0.930 . S
C1192 C1191 1.363 1_565 S
C1192 C1193 1.399 . S
C1193 H1153 0.929 . S
C1193 C1188 1.361 1_565 S
C1193 C1192 1.399 . S
C1194 C1173 1.518 . S
C1194 C1195 1.394 1_565 S
C1194 C1199 1.360 . S
C1195 H1154 0.931 . S
C1195 C1194 1.394 1_545 S
C1195 C1196 1.372 . S
C1196 H1155 0.930 . S
C1196 C1195 1.372 . S
C1196 C1197 1.397 1_545 S
C1197 C1196 1.397 1_565 S
C1197 C1198 1.390 . S
C1197 C1213 1.476 . S
C1198 H1156 0.930 . S
C1198 C1197 1.390 . S
C1198 C1199 1.366 . S
C1199 H1157 0.932 . S
C1199 C1194 1.360 . S
C1199 C1198 1.366 . S
C1200 C1174 1.490 . S
C1200 C1201 1.380 1_565 S
C1200 C1205 1.386 . S
C1201 H1158 0.930 . S
C1201 C1200 1.380 1_545 S
C1201 C1202 1.381 . S
C1202 H1159 0.929 . S
C1202 C1201 1.381 . S
C1202 C1203 1.327 1_545 S
C1203 C1202 1.327 1_565 S
C1203 C1204 1.415 . S
C1204 H1160 0.931 . S
C1204 C1203 1.415 . S
C1204 C1205 1.387 . S
C1205 H1161 0.930 . S
C1205 C1200 1.386 . S
C1205 C1204 1.387 . S
C1206 C1175 1.518 . S
C1206 C1207 1.377 1_565 S
C1206 C1211 1.361 . S
C1207 H1162 0.929 . S
C1207 C1206 1.377 1_545 S
C1207 C1208 1.386 . S
C1208 H1163 0.931 . S
C1208 C1207 1.386 . S
C1208 C1209 1.363 1_545 S
C1209 C1208 1.363 1_565 S
C1209 C1210 1.385 . S
C1210 H1164 0.930 . S
C1210 C1209 1.385 . S
C1210 C1211 1.396 . S
C1211 H1165 0.929 . S
C1211 C1206 1.361 . S
C1211 C1210 1.396 . S
C1212 O1166 1.300 . S
C1212 O1167 1.209 1_545 S
C1212 C1185 1.486 . S
C1213 O1168 1.199 1_565 S
C1213 O1169 1.297 . S
C1213 C1197 1.476 . S
H1214 O1240 0.856 . S
H1215 O1243 0.854 . S
H1216 C1251 0.930 . S
H1217 C1252 0.930 . S
H1218 C1254 0.930 . S
H1219 C1255 0.930 . S
H1220 C1257 0.931 . S
H1221 C1258 0.930 . S
H1222 C1260 0.930 . S
H1223 C1261 0.929 . S
H1224 C1263 0.930 . S
H1225 C1264 0.931 . S
H1226 C1266 0.930 . S
H1227 C1267 0.929 . S
H1228 C1269 0.931 . S
H1229 C1270 0.930 . S
H1230 C1272 0.930 . S
H1231 C1273 0.932 . S
H1232 C1275 0.930 . S
H1233 C1276 0.929 . S
H1234 C1278 0.931 . S
H1235 C1279 0.930 . S
H1236 C1281 0.929 . S
H1237 C1282 0.931 . S
H1238 C1284 0.930 . S
H1239 C1285 0.929 . S
O1240 H1214 0.856 . S
O1240 C1286 1.300 . S
O1241 C1286 1.209 1_455 S
O1242 C1287 1.199 1_655 S
O1243 H1215 0.854 . S
O1243 C1287 1.297 . S
C1244 C1245 1.404 . S
C1244 C1249 1.398 . S
C1244 C1250 1.492 . S
C1245 C1244 1.404 . S
C1245 C1246 1.396 . S
C1245 C1256 1.492 . S
C1246 C1245 1.396 . S
C1246 C1247 1.394 . S
C1246 C1262 1.509 . S
C1247 C1246 1.394 . S
C1247 C1248 1.387 1_655 S
C1247 C1268 1.500 1_655 S
C1248 C1247 1.387 1_455 S
C1248 C1249 1.407 1_455 S
C1248 C1274 1.484 . S
C1249 C1244 1.398 . S
C1249 C1248 1.407 1_655 S
C1249 C1280 1.521 1_655 S
C1250 C1244 1.492 . S
C1250 C1251 1.363 . S
C1250 C1255 1.390 1_655 S
C1251 H1216 0.930 . S
C1251 C1250 1.363 . S
C1251 C1252 1.372 . S
C1252 H1217 0.930 . S
C1252 C1251 1.372 . S
C1252 C1253 1.383 . S
C1253 C1252 1.383 . S
C1253 C1254 1.395 1_655 S
C1254 H1218 0.930 . S
C1254 C1253 1.395 1_455 S
C1254 C1255 1.362 . S
C1255 H1219 0.930 . S
C1255 C1250 1.390 1_455 S
C1255 C1254 1.362 . S
C1256 C1245 1.492 . S
C1256 C1257 1.377 . S
C1256 C1261 1.397 1_655 S
C1257 H1220 0.931 . S
C1257 C1256 1.377 . S
C1257 C1258 1.376 . S
C1258 H1221 0.930 . S
C1258 C1257 1.376 . S
C1258 C1259 1.376 . S
C1259 C1258 1.376 . S
C1259 C1260 1.378 1_655 S
C1259 C1286 1.486 . S
C1260 H1222 0.930 . S
C1260 C1259 1.378 1_455 S
C1260 C1261 1.376 . S
C1261 H1223 0.929 . S
C1261 C1256 1.397 1_455 S
C1261 C1260 1.376 . S
C1262 C1246 1.509 . S
C1262 C1263 1.391 . S
C1262 C1267 1.386 1_655 S
C1263 H1224 0.930 . S
C1263 C1262 1.391 . S
C1263 C1264 1.375 . S
C1264 H1225 0.931 . S
C1264 C1263 1.375 . S
C1264 C1265 1.375 . S
C1265 C1264 1.375 . S
C1265 C1266 1.361 1_655 S
C1266 H1226 0.930 . S
C1266 C1265 1.361 1_455 S
C1266 C1267 1.399 . S
C1267 H1227 0.929 . S
C1267 C1262 1.386 1_455 S
C1267 C1266 1.399 . S
C1268 C1247 1.500 1_455 S
C1268 C1269 1.394 1_455 S
C1268 C1273 1.360 . S
C1269 H1228 0.931 . S
C1269 C1268 1.394 1_655 S
C1269 C1270 1.372 . S
C1270 H1229 0.930 . S
C1270 C1269 1.372 . S
C1270 C1271 1.397 1_655 S
C1271 C1270 1.397 1_455 S
C1271 C1272 1.390 . S
C1271 C1287 1.476 . S
C1272 H1230 0.930 . S
C1272 C1271 1.390 . S
C1272 C1273 1.366 . S
C1273 H1231 0.932 . S
C1273 C1268 1.360 . S
C1273 C1272 1.366 . S
C1274 C1248 1.484 . S
C1274 C1275 1.380 1_455 S
C1274 C1279 1.386 . S
C1275 H1232 0.930 . S
C1275 C1274 1.380 1_655 S
C1275 C1276 1.381 . S
C1276 H1233 0.929 . S
C1276 C1275 1.381 . S
C1276 C1277 1.371 1_655 S
C1277 C1276 1.371 1_455 S
C1277 C1278 1.380 . S
C1278 H1234 0.931 . S
C1278 C1277 1.380 . S
C1278 C1279 1.387 . S
C1279 H1235 0.930 . S
C1279 C1274 1.386 . S
C1279 C1278 1.387 . S
C1280 C1249 1.521 1_455 S
C1280 C1281 1.377 1_455 S
C1280 C1285 1.361 . S
C1281 H1236 0.929 . S
C1281 C1280 1.377 1_655 S
C1281 C1282 1.386 . S
C1282 H1237 0.931 . S
C1282 C1281 1.386 . S
C1282 C1283 1.363 1_655 S
C1283 C1282 1.363 1_455 S
C1283 C1284 1.385 . S
C1284 H1238 0.930 . S
C1284 C1283 1.385 . S
C1284 C1285 1.396 . S
C1285 H1239 0.929 . S
C1285 C1280 1.361 . S
C1285 C1284 1.396 . S
C1286 O1240 1.300 . S
C1286 O1241 1.209 1_655 S
C1286 C1259 1.486 . S
C1287 O1242 1.199 1_455 S
C1287 O1243 1.297 . S
C1287 C1271 1.476 . S
H1288 O1314 0.856 . S
H1289 O1317 0.854 . S
H1290 C1325 0.930 . S
H1291 C1326 0.930 . S
H1292 C1328 0.930 . S
H1293 C1329 0.930 . S
H1294 C1331 0.931 . S
H1295 C1332 0.930 . S
H1296 C1334 0.930 . S
H1297 C1335 0.929 . S
H1298 C1337 0.930 . S
H1299 C1338 0.931 . S
H1300 C1340 0.930 . S
H1301 C1341 0.929 . S
H1302 C1343 0.931 . S
H1303 C1344 0.930 . S
H1304 C1346 0.930 . S
H1305 C1347 0.932 . S
H1306 C1349 0.930 . S
H1307 C1350 0.929 . S
H1308 C1352 0.931 . S
H1309 C1353 0.930 . S
H1310 C1355 0.929 . S
H1311 C1356 0.931 . S
H1312 C1358 0.930 . S
H1313 C1359 0.929 . S
O1314 H1288 0.856 . S
O1314 C1360 1.300 . S
O1315 C1360 1.209 . S
O1316 C1361 1.199 . S
O1317 H1289 0.854 . S
O1317 C1361 1.297 . S
C1318 C1319 1.404 . S
C1318 C1323 1.397 . S
C1318 C1324 1.492 . S
C1319 C1318 1.404 . S
C1319 C1320 1.396 . S
C1319 C1330 1.492 . S
C1320 C1319 1.396 . S
C1320 C1321 1.397 . S
C1320 C1336 1.509 . S
C1321 C1320 1.397 . S
C1321 C1322 1.412 . S
C1321 C1342 1.485 . S
C1322 C1321 1.412 . S
C1322 C1323 1.388 . S
C1322 C1348 1.490 . S
C1323 C1318 1.397 . S
C1323 C1322 1.388 . S
C1323 C1354 1.519 . S
C1324 C1318 1.492 . S
C1324 C1325 1.363 . S
C1324 C1329 1.390 . S
C1325 H1290 0.930 . S
C1325 C1324 1.363 . S
C1325 C1326 1.372 . S
C1326 H1291 0.930 . S
C1326 C1325 1.372 . S
C1326 C1327 1.383 . S
C1327 C1326 1.383 . S
C1327 C1328 1.395 . S
C1328 H1292 0.930 . S
C1328 C1327 1.395 . S
C1328 C1329 1.362 . S
C1329 H1293 0.930 . S
C1329 C1324 1.390 . S
C1329 C1328 1.362 . S
C1330 C1319 1.492 . S
C1330 C1331 1.377 . S
C1330 C1335 1.397 . S
C1331 H1294 0.931 . S
C1331 C1330 1.377 . S
C1331 C1332 1.376 . S
C1332 H1295 0.930 . S
C1332 C1331 1.376 . S
C1332 C1333 1.376 . S
C1333 C1332 1.376 . S
C1333 C1334 1.378 . S
C1333 C1360 1.486 . S
C1334 H1296 0.930 . S
C1334 C1333 1.378 . S
C1334 C1335 1.376 . S
C1335 H1297 0.929 . S
C1335 C1330 1.397 . S
C1335 C1334 1.376 . S
C1336 C1320 1.509 . S
C1336 C1337 1.391 . S
C1336 C1341 1.386 . S
C1337 H1298 0.930 . S
C1337 C1336 1.391 . S
C1337 C1338 1.375 . S
C1338 H1299 0.931 . S
C1338 C1337 1.375 . S
C1338 C1339 1.375 . S
C1339 C1338 1.375 . S
C1339 C1340 1.361 . S
C1340 H1300 0.930 . S
C1340 C1339 1.361 . S
C1340 C1341 1.399 . S
C1341 H1301 0.929 . S
C1341 C1336 1.386 . S
C1341 C1340 1.399 . S
C1342 C1321 1.485 . S
C1342 C1343 1.394 . S
C1342 C1347 1.360 . S
C1343 H1302 0.931 . S
C1343 C1342 1.394 . S
C1343 C1344 1.372 . S
C1344 H1303 0.930 . S
C1344 C1343 1.372 . S
C1344 C1345 1.397 . S
C1345 C1344 1.397 . S
C1345 C1346 1.390 . S
C1345 C1361 1.476 . S
C1346 H1304 0.930 . S
C1346 C1345 1.390 . S
C1346 C1347 1.366 . S
C1347 H1305 0.932 . S
C1347 C1342 1.360 . S
C1347 C1346 1.366 . S
C1348 C1322 1.490 . S
C1348 C1349 1.380 . S
C1348 C1353 1.386 . S
C1349 H1306 0.930 . S
C1349 C1348 1.380 . S
C1349 C1350 1.381 . S
C1350 H1307 0.929 . S
C1350 C1349 1.381 . S
C1350 C1351 1.371 . S
C1351 C1350 1.371 . S
C1351 C1352 1.380 . S
C1352 H1308 0.931 . S
C1352 C1351 1.380 . S
C1352 C1353 1.387 . S
C1353 H1309 0.930 . S
C1353 C1348 1.386 . S
C1353 C1352 1.387 . S
C1354 C1323 1.519 . S
C1354 C1355 1.377 . S
C1354 C1359 1.361 . S
C1355 H1310 0.929 . S
C1355 C1354 1.377 . S
C1355 C1356 1.386 . S
C1356 H1311 0.931 . S
C1356 C1355 1.386 . S
C1356 C1357 1.363 . S
C1357 C1356 1.363 . S
C1357 C1358 1.385 . S
C1358 H1312 0.930 . S
C1358 C1357 1.385 . S
C1358 C1359 1.396 . S
C1359 H1313 0.929 . S
C1359 C1354 1.361 . S
C1359 C1358 1.396 . S
C1360 O1314 1.300 . S
C1360 O1315 1.209 . S
C1360 C1333 1.486 . S
C1361 O1316 1.199 . S
C1361 O1317 1.297 . S
C1361 C1345 1.476 . S
H1362 O1388 0.856 . S
H1363 O1391 0.854 . S
H1364 C1399 0.930 . S
H1365 C1400 0.930 . S
H1366 C1402 0.930 . S
H1367 C1403 0.930 . S
H1368 C1405 0.931 . S
H1369 C1406 0.930 . S
H1370 C1408 0.930 . S
H1371 C1409 0.929 . S
H1372 C1411 0.930 . S
H1373 C1412 0.931 . S
H1374 C1414 0.930 . S
H1375 C1415 0.929 . S
H1376 C1417 0.931 . S
H1377 C1418 0.930 . S
H1378 C1420 0.930 . S
H1379 C1421 0.932 . S
H1380 C1423 0.930 . S
H1381 C1424 0.929 . S
H1382 C1426 0.931 . S
H1383 C1427 0.930 . S
H1384 C1429 0.929 . S
H1385 C1430 0.931 . S
H1386 C1432 0.930 . S
H1387 C1433 0.929 . S
O1388 H1362 0.856 . S
O1388 C1434 1.300 . S
O1389 C1434 1.209 . S
O1390 C1435 1.199 . S
O1391 H1363 0.854 . S
O1391 C1435 1.297 . S
C1392 C1393 1.404 . S
C1392 C1397 1.397 . S
C1392 C1398 1.492 . S
C1393 C1392 1.404 . S
C1393 C1394 1.396 . S
C1393 C1404 1.492 . S
C1394 C1393 1.396 . S
C1394 C1395 1.397 . S
C1394 C1410 1.509 . S
C1395 C1394 1.397 . S
C1395 C1396 1.412 . S
C1395 C1416 1.485 . S
C1396 C1395 1.412 . S
C1396 C1397 1.388 . S
C1396 C1422 1.490 . S
C1397 C1392 1.397 . S
C1397 C1396 1.388 . S
C1397 C1428 1.519 . S
C1398 C1392 1.492 . S
C1398 C1399 1.363 . S
C1398 C1403 1.390 . S
C1399 H1364 0.930 . S
C1399 C1398 1.363 . S
C1399 C1400 1.372 . S
C1400 H1365 0.930 . S
C1400 C1399 1.372 . S
C1400 C1401 1.383 . S
C1401 C1400 1.383 . S
C1401 C1402 1.395 . S
C1402 H1366 0.930 . S
C1402 C1401 1.395 . S
C1402 C1403 1.362 . S
C1403 H1367 0.930 . S
C1403 C1398 1.390 . S
C1403 C1402 1.362 . S
C1404 C1393 1.492 . S
C1404 C1405 1.377 . S
C1404 C1409 1.397 . S
C1405 H1368 0.931 . S
C1405 C1404 1.377 . S
C1405 C1406 1.376 . S
C1406 H1369 0.930 . S
C1406 C1405 1.376 . S
C1406 C1407 1.376 . S
C1407 C1406 1.376 . S
C1407 C1408 1.378 . S
C1407 C1434 1.486 . S
C1408 H1370 0.930 . S
C1408 C1407 1.378 . S
C1408 C1409 1.376 . S
C1409 H1371 0.929 . S
C1409 C1404 1.397 . S
C1409 C1408 1.376 . S
C1410 C1394 1.509 . S
C1410 C1411 1.391 . S
C1410 C1415 1.386 . S
C1411 H1372 0.930 . S
C1411 C1410 1.391 . S
C1411 C1412 1.375 . S
C1412 H1373 0.931 . S
C1412 C1411 1.375 . S
C1412 C1413 1.375 . S
C1413 C1412 1.375 . S
C1413 C1414 1.361 . S
C1414 H1374 0.930 . S
C1414 C1413 1.361 . S
C1414 C1415 1.399 . S
C1415 H1375 0.929 . S
C1415 C1410 1.386 . S
C1415 C1414 1.399 . S
C1416 C1395 1.485 . S
C1416 C1417 1.394 . S
C1416 C1421 1.360 . S
C1417 H1376 0.931 . S
C1417 C1416 1.394 . S
C1417 C1418 1.372 . S
C1418 H1377 0.930 . S
C1418 C1417 1.372 . S
C1418 C1419 1.397 . S
C1419 C1418 1.397 . S
C1419 C1420 1.390 . S
C1419 C1435 1.476 . S
C1420 H1378 0.930 . S
C1420 C1419 1.390 . S
C1420 C1421 1.366 . S
C1421 H1379 0.932 . S
C1421 C1416 1.360 . S
C1421 C1420 1.366 . S
C1422 C1396 1.490 . S
C1422 C1423 1.380 . S
C1422 C1427 1.386 . S
C1423 H1380 0.930 . S
C1423 C1422 1.380 . S
C1423 C1424 1.381 . S
C1424 H1381 0.929 . S
C1424 C1423 1.381 . S
C1424 C1425 1.371 . S
C1425 C1424 1.371 . S
C1425 C1426 1.380 . S
C1426 H1382 0.931 . S
C1426 C1425 1.380 . S
C1426 C1427 1.387 . S
C1427 H1383 0.930 . S
C1427 C1422 1.386 . S
C1427 C1426 1.387 . S
C1428 C1397 1.519 . S
C1428 C1429 1.377 . S
C1428 C1433 1.361 . S
C1429 H1384 0.929 . S
C1429 C1428 1.377 . S
C1429 C1430 1.386 . S
C1430 H1385 0.931 . S
C1430 C1429 1.386 . S
C1430 C1431 1.363 . S
C1431 C1430 1.363 . S
C1431 C1432 1.385 . S
C1432 H1386 0.930 . S
C1432 C1431 1.385 . S
C1432 C1433 1.396 . S
C1433 H1387 0.929 . S
C1433 C1428 1.361 . S
C1433 C1432 1.396 . S
C1434 O1388 1.300 . S
C1434 O1389 1.209 . S
C1434 C1407 1.486 . S
C1435 O1390 1.199 . S
C1435 O1391 1.297 . S
C1435 C1419 1.476 . S
H1436 O1462 0.856 . S
H1437 O1465 0.854 . S
H1438 C1473 0.930 . S
H1439 C1474 0.930 . S
H1440 C1476 0.930 . S
H1441 C1477 0.930 . S
H1442 C1479 0.931 . S
H1443 C1480 0.930 . S
H1444 C1482 0.930 . S
H1445 C1483 0.929 . S
H1446 C1485 0.930 . S
H1447 C1486 0.931 . S
H1448 C1488 0.930 . S
H1449 C1489 0.929 . S
H1450 C1491 0.931 . S
H1451 C1492 0.930 . S
H1452 C1494 0.930 . S
H1453 C1495 0.932 . S
H1454 C1497 0.930 . S
H1455 C1498 0.929 . S
H1456 C1500 0.931 . S
H1457 C1501 0.930 . S
H1458 C1503 0.929 . S
H1459 C1504 0.931 . S
H1460 C1506 0.930 . S
H1461 C1507 0.929 . S
O1462 H1436 0.856 . S
O1462 C1508 1.300 . S
O1463 C1508 1.209 . S
O1464 C1509 1.199 . S
O1465 H1437 0.854 . S
O1465 C1509 1.297 . S
C1466 C1467 1.404 . S
C1466 C1471 1.397 . S
C1466 C1472 1.492 . S
C1467 C1466 1.404 . S
C1467 C1468 1.396 . S
C1467 C1478 1.492 . S
C1468 C1467 1.396 . S
C1468 C1469 1.397 . S
C1468 C1484 1.509 . S
C1469 C1468 1.397 . S
C1469 C1470 1.412 . S
C1469 C1490 1.485 . S
C1470 C1469 1.412 . S
C1470 C1471 1.388 . S
C1470 C1496 1.490 . S
C1471 C1466 1.397 . S
C1471 C1470 1.388 . S
C1471 C1502 1.519 . S
C1472 C1466 1.492 . S
C1472 C1473 1.363 . S
C1472 C1477 1.390 . S
C1473 H1438 0.930 . S
C1473 C1472 1.363 . S
C1473 C1474 1.372 . S
C1474 H1439 0.930 . S
C1474 C1473 1.372 . S
C1474 C1475 1.383 . S
C1475 C1474 1.383 . S
C1475 C1476 1.395 . S
C1476 H1440 0.930 . S
C1476 C1475 1.395 . S
C1476 C1477 1.362 . S
C1477 H1441 0.930 . S
C1477 C1472 1.390 . S
C1477 C1476 1.362 . S
C1478 C1467 1.492 . S
C1478 C1479 1.377 . S
C1478 C1483 1.397 . S
C1479 H1442 0.931 . S
C1479 C1478 1.377 . S
C1479 C1480 1.376 . S
C1480 H1443 0.930 . S
C1480 C1479 1.376 . S
C1480 C1481 1.376 . S
C1481 C1480 1.376 . S
C1481 C1482 1.378 . S
C1481 C1508 1.486 . S
C1482 H1444 0.930 . S
C1482 C1481 1.378 . S
C1482 C1483 1.376 . S
C1483 H1445 0.929 . S
C1483 C1478 1.397 . S
C1483 C1482 1.376 . S
C1484 C1468 1.509 . S
C1484 C1485 1.391 . S
C1484 C1489 1.386 . S
C1485 H1446 0.930 . S
C1485 C1484 1.391 . S
C1485 C1486 1.375 . S
C1486 H1447 0.931 . S
C1486 C1485 1.375 . S
C1486 C1487 1.375 . S
C1487 C1486 1.375 . S
C1487 C1488 1.361 . S
C1488 H1448 0.930 . S
C1488 C1487 1.361 . S
C1488 C1489 1.399 . S
C1489 H1449 0.929 . S
C1489 C1484 1.386 . S
C1489 C1488 1.399 . S
C1490 C1469 1.485 . S
C1490 C1491 1.394 . S
C1490 C1495 1.360 . S
C1491 H1450 0.931 . S
C1491 C1490 1.394 . S
C1491 C1492 1.372 . S
C1492 H1451 0.930 . S
C1492 C1491 1.372 . S
C1492 C1493 1.397 . S
C1493 C1492 1.397 . S
C1493 C1494 1.390 . S
C1493 C1509 1.476 . S
C1494 H1452 0.930 . S
C1494 C1493 1.390 . S
C1494 C1495 1.366 . S
C1495 H1453 0.932 . S
C1495 C1490 1.360 . S
C1495 C1494 1.366 . S
C1496 C1470 1.490 . S
C1496 C1497 1.380 . S
C1496 C1501 1.386 . S
C1497 H1454 0.930 . S
C1497 C1496 1.380 . S
C1497 C1498 1.381 . S
C1498 H1455 0.929 . S
C1498 C1497 1.381 . S
C1498 C1499 1.371 . S
C1499 C1498 1.371 . S
C1499 C1500 1.380 . S
C1500 H1456 0.931 . S
C1500 C1499 1.380 . S
C1500 C1501 1.387 . S
C1501 H1457 0.930 . S
C1501 C1496 1.386 . S
C1501 C1500 1.387 . S
C1502 C1471 1.519 . S
C1502 C1503 1.377 . S
C1502 C1507 1.361 . S
C1503 H1458 0.929 . S
C1503 C1502 1.377 . S
C1503 C1504 1.386 . S
C1504 H1459 0.931 . S
C1504 C1503 1.386 . S
C1504 C1505 1.363 . S
C1505 C1504 1.363 . S
C1505 C1506 1.385 . S
C1506 H1460 0.930 . S
C1506 C1505 1.385 . S
C1506 C1507 1.396 . S
C1507 H1461 0.929 . S
C1507 C1502 1.361 . S
C1507 C1506 1.396 . S
C1508 O1462 1.300 . S
C1508 O1463 1.209 . S
C1508 C1481 1.486 . S
C1509 O1464 1.199 . S
C1509 O1465 1.297 . S
C1509 C1493 1.476 . S
H1510 O1536 0.856 . S
H1511 O1539 0.854 . S
H1512 C1547 0.930 . S
H1513 C1548 0.930 . S
H1514 C1550 0.930 . S
H1515 C1551 0.930 . S
H1516 C1553 0.931 . S
H1517 C1554 0.930 . S
H1518 C1556 0.930 . S
H1519 C1557 0.929 . S
H1520 C1559 0.930 . S
H1521 C1560 0.931 . S
H1522 C1562 0.930 . S
H1523 C1563 0.929 . S
H1524 C1565 0.931 . S
H1525 C1566 0.930 . S
H1526 C1568 0.930 . S
H1527 C1569 0.932 . S
H1528 C1571 0.930 . S
H1529 C1572 0.929 . S
H1530 C1574 0.931 . S
H1531 C1575 0.930 . S
H1532 C1577 0.929 . S
H1533 C1578 0.931 . S
H1534 C1580 0.930 . S
H1535 C1581 0.929 . S
O1536 H1510 0.856 . S
O1536 C1582 1.300 . S
O1537 C1582 1.209 . S
O1538 C1583 1.199 . S
O1539 H1511 0.854 . S
O1539 C1583 1.297 . S
C1540 C1541 1.404 . S
C1540 C1545 1.397 . S
C1540 C1546 1.492 . S
C1541 C1540 1.404 . S
C1541 C1542 1.396 . S
C1541 C1552 1.492 . S
C1542 C1541 1.396 . S
C1542 C1543 1.397 . S
C1542 C1558 1.509 . S
C1543 C1542 1.397 . S
C1543 C1544 1.412 . S
C1543 C1564 1.485 . S
C1544 C1543 1.412 . S
C1544 C1545 1.388 . S
C1544 C1570 1.490 . S
C1545 C1540 1.397 . S
C1545 C1544 1.388 . S
C1545 C1576 1.519 . S
C1546 C1540 1.492 . S
C1546 C1547 1.363 . S
C1546 C1551 1.390 . S
C1547 H1512 0.930 . S
C1547 C1546 1.363 . S
C1547 C1548 1.372 . S
C1548 H1513 0.930 . S
C1548 C1547 1.372 . S
C1548 C1549 1.383 . S
C1549 C1548 1.383 . S
C1549 C1550 1.395 . S
C1550 H1514 0.930 . S
C1550 C1549 1.395 . S
C1550 C1551 1.362 . S
C1551 H1515 0.930 . S
C1551 C1546 1.390 . S
C1551 C1550 1.362 . S
C1552 C1541 1.492 . S
C1552 C1553 1.377 . S
C1552 C1557 1.397 . S
C1553 H1516 0.931 . S
C1553 C1552 1.377 . S
C1553 C1554 1.376 . S
C1554 H1517 0.930 . S
C1554 C1553 1.376 . S
C1554 C1555 1.376 . S
C1555 C1554 1.376 . S
C1555 C1556 1.378 . S
C1555 C1582 1.486 . S
C1556 H1518 0.930 . S
C1556 C1555 1.378 . S
C1556 C1557 1.376 . S
C1557 H1519 0.929 . S
C1557 C1552 1.397 . S
C1557 C1556 1.376 . S
C1558 C1542 1.509 . S
C1558 C1559 1.391 . S
C1558 C1563 1.386 . S
C1559 H1520 0.930 . S
C1559 C1558 1.391 . S
C1559 C1560 1.375 . S
C1560 H1521 0.931 . S
C1560 C1559 1.375 . S
C1560 C1561 1.375 . S
C1561 C1560 1.375 . S
C1561 C1562 1.361 . S
C1562 H1522 0.930 . S
C1562 C1561 1.361 . S
C1562 C1563 1.399 . S
C1563 H1523 0.929 . S
C1563 C1558 1.386 . S
C1563 C1562 1.399 . S
C1564 C1543 1.485 . S
C1564 C1565 1.394 . S
C1564 C1569 1.360 . S
C1565 H1524 0.931 . S
C1565 C1564 1.394 . S
C1565 C1566 1.372 . S
C1566 H1525 0.930 . S
C1566 C1565 1.372 . S
C1566 C1567 1.397 . S
C1567 C1566 1.397 . S
C1567 C1568 1.390 . S
C1567 C1583 1.476 . S
C1568 H1526 0.930 . S
C1568 C1567 1.390 . S
C1568 C1569 1.366 . S
C1569 H1527 0.932 . S
C1569 C1564 1.360 . S
C1569 C1568 1.366 . S
C1570 C1544 1.490 . S
C1570 C1571 1.380 . S
C1570 C1575 1.386 . S
C1571 H1528 0.930 . S
C1571 C1570 1.380 . S
C1571 C1572 1.381 . S
C1572 H1529 0.929 . S
C1572 C1571 1.381 . S
C1572 C1573 1.371 . S
C1573 C1572 1.371 . S
C1573 C1574 1.380 . S
C1574 H1530 0.931 . S
C1574 C1573 1.380 . S
C1574 C1575 1.387 . S
C1575 H1531 0.930 . S
C1575 C1570 1.386 . S
C1575 C1574 1.387 . S
C1576 C1545 1.519 . S
C1576 C1577 1.377 . S
C1576 C1581 1.361 . S
C1577 H1532 0.929 . S
C1577 C1576 1.377 . S
C1577 C1578 1.386 . S
C1578 H1533 0.931 . S
C1578 C1577 1.386 . S
C1578 C1579 1.363 . S
C1579 C1578 1.363 . S
C1579 C1580 1.385 . S
C1580 H1534 0.930 . S
C1580 C1579 1.385 . S
C1580 C1581 1.396 . S
C1581 H1535 0.929 . S
C1581 C1576 1.361 . S
C1581 C1580 1.396 . S
C1582 O1536 1.300 . S
C1582 O1537 1.209 . S
C1582 C1555 1.486 . S
C1583 O1538 1.199 . S
C1583 O1539 1.297 . S
C1583 C1567 1.476 . S
C1584 C1585 1.387 . S
C1584 H1588 0.950 . S
C1584 C1593 1.390 . S
C1585 C1584 1.387 . S
C1585 C1587 1.387 1_655 S
H1586 C1593 0.950 . S
C1587 C1585 1.387 1_455 S
C1587 C1589 1.390 1_455 S
C1587 H1591 0.950 . S
H1588 C1584 0.950 . S
C1589 C1587 1.390 1_655 S
C1589 C1590 1.387 . S
C1589 H1592 0.950 1_655 S
C1590 C1589 1.387 . S
C1590 C1593 1.387 . S
H1591 C1587 0.950 . S
H1592 C1589 0.950 1_455 S
C1593 C1584 1.390 . S
C1593 H1586 0.950 . S
C1593 C1590 1.387 . S
C1594 C1595 1.387 . S
C1594 H1598 0.950 . S
C1594 C1603 1.390 . S
C1595 C1594 1.387 . S
C1595 C1597 1.387 . S
H1596 C1603 0.950 . S
C1597 C1595 1.387 . S
C1597 C1599 1.390 . S
C1597 H1601 0.950 . S
H1598 C1594 0.950 . S
C1599 C1597 1.390 . S
C1599 C1600 1.387 . S
C1599 H1602 0.950 . S
C1600 C1599 1.387 . S
C1600 C1603 1.387 . S
H1601 C1597 0.950 . S
H1602 C1599 0.950 . S
C1603 C1594 1.390 . S
C1603 H1596 0.950 . S
C1603 C1600 1.387 . S
C1604 C1605 1.387 . S
C1604 H1608 0.950 . S
C1604 C1613 1.390 . S
C1605 C1604 1.387 . S
C1605 C1607 1.387 1_545 S
H1606 C1613 0.950 . S
C1607 C1605 1.387 1_565 S
C1607 C1609 1.376 . S
C1607 H1611 0.950 . S
H1608 C1604 0.950 . S
C1609 C1607 1.376 . S
C1609 C1610 1.365 1_565 S
C1609 H1612 0.987 . S
C1610 C1609 1.365 1_545 S
C1610 C1613 1.387 . S
H1611 C1607 0.950 . S
H1612 C1609 0.987 . S
C1613 C1604 1.390 . S
C1613 H1606 0.950 . S
C1613 C1610 1.387 . S
C1614 C1615 1.387 1_545 S
C1614 H1618 0.950 . S
C1614 C1623 1.390 . S
C1615 C1614 1.387 1_565 S
C1615 C1617 1.387 . S
H1616 C1623 0.950 . S
C1617 C1615 1.387 . S
C1617 C1619 1.390 . S
C1617 H1621 0.950 . S
H1618 C1614 0.950 . S
C1619 C1617 1.390 . S
C1619 C1620 1.387 . S
C1619 H1622 0.950 . S
C1620 C1619 1.387 . S
C1620 C1623 1.387 1_565 S
H1621 C1617 0.950 . S
H1622 C1619 0.950 . S
C1623 C1614 1.390 . S
C1623 H1616 0.950 . S
C1623 C1620 1.387 1_545 S
C1624 C1625 1.387 1_655 S
C1624 H1628 0.950 . S
C1624 C1633 1.390 . S
C1625 C1624 1.387 1_455 S
C1625 C1627 1.387 . S
H1626 C1633 0.950 . S
C1627 C1625 1.387 . S
C1627 C1629 1.390 . S
C1627 H1631 0.950 . S
H1628 C1624 0.950 . S
C1629 C1627 1.390 . S
C1629 C1630 1.387 . S
C1629 H1632 0.950 . S
C1630 C1629 1.387 . S
C1630 C1633 1.387 1_455 S
H1631 C1627 0.950 . S
H1632 C1629 0.950 . S
C1633 C1624 1.390 . S
C1633 H1626 0.950 . S
C1633 C1630 1.387 1_655 S
C1634 C1635 1.387 . S
C1634 H1638 0.950 . S
C1634 C1643 1.390 1_554 S
C1635 C1634 1.387 . S
C1635 C1637 1.387 1_554 S
H1636 C1643 0.950 . S
C1637 C1635 1.387 1_556 S
C1637 C1639 1.390 . S
C1637 H1641 0.950 . S
H1638 C1634 0.950 . S
C1639 C1637 1.390 . S
C1639 C1640 1.387 . S
C1639 H1642 0.950 . S
C1640 C1639 1.387 . S
C1640 C1643 1.387 . S
H1641 C1637 0.950 . S
H1642 C1639 0.950 . S
C1643 C1634 1.390 1_556 S
C1643 H1636 0.950 . S
C1643 C1640 1.387 . S
C1644 C1645 1.387 1_554 S
C1644 H1648 0.950 . S
C1644 C1653 1.390 1_554 S
C1645 C1644 1.387 1_556 S
C1645 C1647 1.387 . S
H1646 C1653 0.949 1_654 S
C1647 C1645 1.387 . S
C1647 C1649 1.390 . S
C1647 H1651 0.950 . S
H1648 C1644 0.950 . S
C1649 C1647 1.390 . S
C1649 C1650 1.387 . S
C1649 H1652 0.950 . S
C1650 C1649 1.387 . S
C1650 C1653 1.387 . S
H1651 C1647 0.950 . S
H1652 C1649 0.950 . S
C1653 C1644 1.390 1_556 S
C1653 H1646 0.949 1_456 S
C1653 C1650 1.387 . S
C1654 C1655 1.387 . S
C1654 H1658 0.950 . S
C1654 C1663 1.390 . S
C1655 C1654 1.387 . S
C1655 C1657 1.387 . S
H1656 C1663 0.950 . S
C1657 C1655 1.387 . S
C1657 C1659 1.390 . S
C1657 H1661 0.950 . S
H1658 C1654 0.950 . S
C1659 C1657 1.390 . S
C1659 C1660 1.387 . S
C1659 H1662 0.950 . S
C1660 C1659 1.387 . S
C1660 C1663 1.387 . S
H1661 C1657 0.950 . S
H1662 C1659 0.950 . S
C1663 C1654 1.390 . S
C1663 H1656 0.950 . S
C1663 C1660 1.387 . S
C1664 C1665 1.387 1_544 S
C1664 H1668 0.953 . S
C1664 C1673 1.388 1_554 S
C1665 C1664 1.387 1_566 S
C1665 C1667 1.387 . S
H1666 C1673 0.950 . S
C1667 C1665 1.387 . S
C1667 C1669 1.390 . S
C1667 H1671 0.950 . S
H1668 C1664 0.953 . S
C1669 C1667 1.390 . S
C1669 C1670 1.387 . S
C1669 H1672 0.950 . S
C1670 C1669 1.387 . S
C1670 C1673 1.387 1_565 S
H1671 C1667 0.950 . S
H1672 C1669 0.950 . S
C1673 C1664 1.388 1_556 S
C1673 H1666 0.950 . S
C1673 C1670 1.387 1_545 S
C1674 C1675 1.387 1_565 S
C1674 H1678 0.950 . S
C1674 C1683 1.390 . S
C1675 C1674 1.387 1_545 S
C1675 C1677 1.387 . S
H1676 C1683 0.950 . S
C1677 C1675 1.387 . S
C1677 C1679 1.390 . S
C1677 H1681 0.950 . S
H1678 C1674 0.950 . S
C1679 C1677 1.390 . S
C1679 C1680 1.387 . S
C1679 H1682 0.950 . S
C1680 C1679 1.387 . S
C1680 C1683 1.387 1_545 S
H1681 C1677 0.950 . S
H1682 C1679 0.950 . S
C1683 C1674 1.390 . S
C1683 H1676 0.950 . S
C1683 C1680 1.387 1_565 S
C1684 C1685 1.387 . S
C1684 H1688 0.950 . S
C1684 C1693 1.390 . S
C1685 C1684 1.387 . S
C1685 C1687 1.396 . S
H1686 C1693 0.950 . S
C1687 C1685 1.396 . S
C1687 C1689 1.386 1_655 S
C1687 H1691 0.946 1_655 S
H1688 C1684 0.950 . S
C1689 C1687 1.386 1_455 S
C1689 C1690 1.387 1_455 S
C1689 H1692 0.950 . S
C1690 C1689 1.387 1_655 S
C1690 C1693 1.387 . S
H1691 C1687 0.946 1_455 S
H1692 C1689 0.950 . S
C1693 C1684 1.390 . S
C1693 H1686 0.950 . S
C1693 C1690 1.387 . S
C1694 C1695 1.387 . S
C1694 H1698 0.950 . S
C1694 C1703 1.390 . S
C1695 C1694 1.387 . S
C1695 C1697 1.387 . S
H1696 C1703 0.950 . S
C1697 C1695 1.387 . S
C1697 C1699 1.390 . S
C1697 H1701 0.950 . S
H1698 C1694 0.950 . S
C1699 C1697 1.390 . S
C1699 C1700 1.387 . S
C1699 H1702 0.950 . S
C1700 C1699 1.387 . S
C1700 C1703 1.387 . S
H1701 C1697 0.950 . S
H1702 C1699 0.950 . S
C1703 C1694 1.390 . S
C1703 H1696 0.950 . S
C1703 C1700 1.387 . S
C1704 C1705 1.387 . S
C1704 H1708 0.950 . S
C1704 C1713 1.390 . S
C1705 C1704 1.387 . S
C1705 C1707 1.387 . S
H1706 C1713 0.950 . S
C1707 C1705 1.387 . S
C1707 C1709 1.390 . S
C1707 H1711 0.950 . S
H1708 C1704 0.950 . S
C1709 C1707 1.390 . S
C1709 C1710 1.387 . S
C1709 H1712 0.950 . S
C1710 C1709 1.387 . S
C1710 C1713 1.387 . S
H1711 C1707 0.950 . S
H1712 C1709 0.950 . S
C1713 C1704 1.390 . S
C1713 H1706 0.950 . S
C1713 C1710 1.387 . S
C1714 C1715 1.387 . S
C1714 H1718 0.950 . S
C1714 C1723 1.390 . S
C1715 C1714 1.387 . S
C1715 C1717 1.387 . S
H1716 C1723 0.950 . S
C1717 C1715 1.387 . S
C1717 C1719 1.390 . S
C1717 H1721 0.950 . S
H1718 C1714 0.950 . S
C1719 C1717 1.390 . S
C1719 C1720 1.387 . S
C1719 H1722 0.950 . S
C1720 C1719 1.387 . S
C1720 C1723 1.387 . S
H1721 C1717 0.950 . S
H1722 C1719 0.950 . S
C1723 C1714 1.390 . S
C1723 H1716 0.950 . S
C1723 C1720 1.387 . S
C1724 C1725 1.387 . S
C1724 H1728 0.950 . S
C1724 C1733 1.390 . S
C1725 C1724 1.387 . S
C1725 C1727 1.387 . S
H1726 C1733 0.950 . S
C1727 C1725 1.387 . S
C1727 C1729 1.390 . S
C1727 H1731 0.950 . S
H1728 C1724 0.950 . S
C1729 C1727 1.390 . S
C1729 C1730 1.387 . S
C1729 H1732 0.950 . S
C1730 C1729 1.387 . S
C1730 C1733 1.387 . S
H1731 C1727 0.950 . S
H1732 C1729 0.950 . S
C1733 C1724 1.390 . S
C1733 H1726 0.950 . S
C1733 C1730 1.387 . S
C1734 C1735 1.387 . S
C1734 H1738 0.950 . S
C1734 C1743 1.390 . S
C1735 C1734 1.387 . S
C1735 C1737 1.387 . S
H1736 C1743 0.950 . S
C1737 C1735 1.387 . S
C1737 C1739 1.390 . S
C1737 H1741 0.950 . S
H1738 C1734 0.950 . S
C1739 C1737 1.390 . S
C1739 C1740 1.387 . S
C1739 H1742 0.950 . S
C1740 C1739 1.387 . S
C1740 C1743 1.387 . S
H1741 C1737 0.950 . S
H1742 C1739 0.950 . S
C1743 C1734 1.390 . S
C1743 H1736 0.950 . S
C1743 C1740 1.387 . S
C1744 C1745 1.387 . S
C1744 H1748 0.950 . S
C1744 C1753 1.390 . S
C1745 C1744 1.387 . S
C1745 C1747 1.387 . S
H1746 C1753 0.950 . S
C1747 C1745 1.387 . S
C1747 C1749 1.390 . S
C1747 H1751 0.950 . S
H1748 C1744 0.950 . S
C1749 C1747 1.390 . S
C1749 C1750 1.387 . S
C1749 H1752 0.950 . S
C1750 C1749 1.387 . S
C1750 C1753 1.387 . S
H1751 C1747 0.950 . S
H1752 C1749 0.950 . S
C1753 C1744 1.390 . S
C1753 H1746 0.950 . S
C1753 C1750 1.387 . S
C1754 C1755 1.387 . S
C1754 H1758 0.950 . S
C1754 C1763 1.390 . S
C1755 C1754 1.387 . S
C1755 C1757 1.387 . S
H1756 C1763 0.950 . S
C1757 C1755 1.387 . S
C1757 C1759 1.390 . S
C1757 H1761 0.950 . S
H1758 C1754 0.950 . S
C1759 C1757 1.390 . S
C1759 C1760 1.387 . S
C1759 H1762 0.950 . S
C1760 C1759 1.387 . S
C1760 C1763 1.387 . S
H1761 C1757 0.950 . S
H1762 C1759 0.950 . S
C1763 C1754 1.390 . S
C1763 H1756 0.950 . S
C1763 C1760 1.387 . S
C1764 C1765 1.387 . S
C1764 H1768 0.950 . S
C1764 C1773 1.390 . S
C1765 C1764 1.387 . S
C1765 C1767 1.387 . S
H1766 C1773 0.950 . S
C1767 C1765 1.387 . S
C1767 C1769 1.390 . S
C1767 H1771 0.950 . S
H1768 C1764 0.950 . S
C1769 C1767 1.390 . S
C1769 C1770 1.387 . S
C1769 H1772 0.950 . S
C1770 C1769 1.387 . S
C1770 C1773 1.387 . S
H1771 C1767 0.950 . S
H1772 C1769 0.950 . S
C1773 C1764 1.390 . S
C1773 H1766 0.950 . S
C1773 C1770 1.387 . S
C1774 C1775 1.387 . S
C1774 H1778 0.950 . S
C1774 C1783 1.390 . S
C1775 C1774 1.387 . S
C1775 C1777 1.387 . S
H1776 C1783 0.950 . S
C1777 C1775 1.387 . S
C1777 C1779 1.390 . S
C1777 H1781 0.950 . S
H1778 C1774 0.950 . S
C1779 C1777 1.390 . S
C1779 C1780 1.387 . S
C1779 H1782 0.950 . S
C1780 C1779 1.387 . S
C1780 C1783 1.387 . S
H1781 C1777 0.950 . S
H1782 C1779 0.950 . S
C1783 C1774 1.390 . S
C1783 H1776 0.950 . S
C1783 C1780 1.387 . S
C1784 C1785 1.387 . S
C1784 H1788 0.950 . S
C1784 C1793 1.390 . S
C1785 C1784 1.387 . S
C1785 C1787 1.387 . S
H1786 C1793 0.950 . S
C1787 C1785 1.387 . S
C1787 C1789 1.390 . S
C1787 H1791 0.950 . S
H1788 C1784 0.950 . S
C1789 C1787 1.390 . S
C1789 C1790 1.387 . S
C1789 H1792 0.950 . S
C1790 C1789 1.387 . S
C1790 C1793 1.387 . S
H1791 C1787 0.950 . S
H1792 C1789 0.950 . S
C1793 C1784 1.390 . S
C1793 H1786 0.950 . S
C1793 C1790 1.387 . S
C1794 C1795 1.387 . S
C1794 H1798 0.950 . S
C1794 C1803 1.390 . S
C1795 C1794 1.387 . S
C1795 C1797 1.387 . S
H1796 C1803 0.950 . S
C1797 C1795 1.387 . S
C1797 C1799 1.390 . S
C1797 H1801 0.950 . S
H1798 C1794 0.950 . S
C1799 C1797 1.390 . S
C1799 C1800 1.387 . S
C1799 H1802 0.950 . S
C1800 C1799 1.387 . S
C1800 C1803 1.387 . S
H1801 C1797 0.950 . S
H1802 C1799 0.950 . S
C1803 C1794 1.390 . S
C1803 H1796 0.950 . S
C1803 C1800 1.387 . S
C1804 C1805 1.387 . S
C1804 H1808 0.950 . S
C1804 C1813 1.390 . S
C1805 C1804 1.387 . S
C1805 C1807 1.387 . S
H1806 C1813 0.950 . S
C1807 C1805 1.387 . S
C1807 C1809 1.390 . S
C1807 H1811 0.950 . S
H1808 C1804 0.950 . S
C1809 C1807 1.390 . S
C1809 C1810 1.387 . S
C1809 H1812 0.950 . S
C1810 C1809 1.387 . S
C1810 C1813 1.387 . S
H1811 C1807 0.950 . S
H1812 C1809 0.950 . S
C1813 C1804 1.390 . S
C1813 H1806 0.950 . S
C1813 C1810 1.387 . S
C1814 C1815 1.387 . S
C1814 H1818 0.950 . S
C1814 C1823 1.390 . S
C1815 C1814 1.387 . S
C1815 C1817 1.387 . S
H1816 C1823 0.950 . S
C1817 C1815 1.387 . S
C1817 C1819 1.390 . S
C1817 H1821 0.950 . S
H1818 C1814 0.950 . S
C1819 C1817 1.390 . S
C1819 C1820 1.387 . S
C1819 H1822 0.950 . S
C1820 C1819 1.387 . S
C1820 C1823 1.387 . S
H1821 C1817 0.950 . S
H1822 C1819 0.950 . S
C1823 C1814 1.390 . S
C1823 H1816 0.950 . S
C1823 C1820 1.387 . S
C1824 C1825 1.387 . S
C1824 H1828 0.950 . S
C1824 C1833 1.390 . S
C1825 C1824 1.387 . S
C1825 C1827 1.387 . S
H1826 C1833 0.950 . S
C1827 C1825 1.387 . S
C1827 C1829 1.390 . S
C1827 H1831 0.950 . S
H1828 C1824 0.950 . S
C1829 C1827 1.390 . S
C1829 C1830 1.387 . S
C1829 H1832 0.950 . S
C1830 C1829 1.387 . S
C1830 C1833 1.387 . S
H1831 C1827 0.950 . S
H1832 C1829 0.950 . S
C1833 C1824 1.390 . S
C1833 H1826 0.950 . S
C1833 C1830 1.387 . S
C1834 C1835 1.387 . S
C1834 H1838 0.950 . S
C1834 C1843 1.390 . S
C1835 C1834 1.387 . S
C1835 C1837 1.387 . S
H1836 C1843 0.950 . S
C1837 C1835 1.387 . S
C1837 C1839 1.390 . S
C1837 H1841 0.950 . S
H1838 C1834 0.950 . S
C1839 C1837 1.390 . S
C1839 C1840 1.387 . S
C1839 H1842 0.950 . S
C1840 C1839 1.387 . S
C1840 C1843 1.387 . S
H1841 C1837 0.950 . S
H1842 C1839 0.950 . S
C1843 C1834 1.390 . S
C1843 H1836 0.950 . S
C1843 C1840 1.387 . S
C1844 C1845 1.387 . S
C1844 H1848 0.950 . S
C1844 C1853 1.390 . S
C1845 C1844 1.387 . S
C1845 C1847 1.387 . S
H1846 C1853 0.950 . S
C1847 C1845 1.387 . S
C1847 C1849 1.390 . S
C1847 H1851 0.950 . S
H1848 C1844 0.950 . S
C1849 C1847 1.390 . S
C1849 C1850 1.387 . S
C1849 H1852 0.950 . S
C1850 C1849 1.387 . S
C1850 C1853 1.387 . S
H1851 C1847 0.950 . S
H1852 C1849 0.950 . S
C1853 C1844 1.390 . S
C1853 H1846 0.950 . S
C1853 C1850 1.387 . S
C1854 C1855 1.387 . S
C1854 H1858 0.950 . S
C1854 C1863 1.390 . S
C1855 C1854 1.387 . S
C1855 C1857 1.387 . S
H1856 C1863 0.950 . S
C1857 C1855 1.387 . S
C1857 C1859 1.390 . S
C1857 H1861 0.950 . S
H1858 C1854 0.950 . S
C1859 C1857 1.390 . S
C1859 C1860 1.387 . S
C1859 H1862 0.950 . S
C1860 C1859 1.387 . S
C1860 C1863 1.387 . S
H1861 C1857 0.950 . S
H1862 C1859 0.950 . S
C1863 C1854 1.390 . S
C1863 H1856 0.950 . S
C1863 C1860 1.387 . S
C1864 C1865 1.387 . S
C1864 H1868 0.950 . S
C1864 C1873 1.390 . S
C1865 C1864 1.387 . S
C1865 C1867 1.387 . S
H1866 C1873 0.950 . S
C1867 C1865 1.387 . S
C1867 C1869 1.390 . S
C1867 H1871 0.950 . S
H1868 C1864 0.950 . S
C1869 C1867 1.390 . S
C1869 C1870 1.387 . S
C1869 H1872 0.950 . S
C1870 C1869 1.387 . S
C1870 C1873 1.387 . S
H1871 C1867 0.950 . S
H1872 C1869 0.950 . S
C1873 C1864 1.390 . S
C1873 H1866 0.950 . S
C1873 C1870 1.387 . S
C1874 C1875 1.387 . S
C1874 H1878 0.950 . S
C1874 C1883 1.390 . S
C1875 C1874 1.387 . S
C1875 C1877 1.387 . S
H1876 C1883 0.950 . S
C1877 C1875 1.387 . S
C1877 C1879 1.390 . S
C1877 H1881 0.950 . S
H1878 C1874 0.950 . S
C1879 C1877 1.390 . S
C1879 C1880 1.387 . S
C1879 H1882 0.950 . S
C1880 C1879 1.387 . S
C1880 C1883 1.387 . S
H1881 C1877 0.950 . S
H1882 C1879 0.950 . S
C1883 C1874 1.390 . S
C1883 H1876 0.950 . S
C1883 C1880 1.387 . S
C1884 C1885 1.387 . S
C1884 H1888 0.950 . S
C1884 C1893 1.390 . S
C1885 C1884 1.387 . S
C1885 C1887 1.387 . S
H1886 C1893 0.950 . S
C1887 C1885 1.387 . S
C1887 C1889 1.390 . S
C1887 H1891 0.950 . S
H1888 C1884 0.950 . S
C1889 C1887 1.390 . S
C1889 C1890 1.387 . S
C1889 H1892 0.950 . S
C1890 C1889 1.387 . S
C1890 C1893 1.387 . S
H1891 C1887 0.950 . S
H1892 C1889 0.950 . S
C1893 C1884 1.390 . S
C1893 H1886 0.950 . S
C1893 C1890 1.387 . S
C1894 C1895 1.387 . S
C1894 H1898 0.950 . S
C1894 C1903 1.390 . S
C1895 C1894 1.387 . S
C1895 C1897 1.387 . S
H1896 C1903 0.950 . S
C1897 C1895 1.387 . S
C1897 C1899 1.390 . S
C1897 H1901 0.950 . S
H1898 C1894 0.950 . S
C1899 C1897 1.390 . S
C1899 C1900 1.387 . S
C1899 H1902 0.950 . S
C1900 C1899 1.387 . S
C1900 C1903 1.387 . S
H1901 C1897 0.950 . S
H1902 C1899 0.950 . S
C1903 C1894 1.390 . S
C1903 H1896 0.950 . S
C1903 C1900 1.387 . S
C1904 C1905 1.387 . S
C1904 H1908 0.950 . S
C1904 C1913 1.390 . S
C1905 C1904 1.387 . S
C1905 C1907 1.387 . S
H1906 C1913 0.950 . S
C1907 C1905 1.387 . S
C1907 C1909 1.390 . S
C1907 H1911 0.950 . S
H1908 C1904 0.950 . S
C1909 C1907 1.390 . S
C1909 C1910 1.387 . S
C1909 H1912 0.950 . S
C1910 C1909 1.387 . S
C1910 C1913 1.387 . S
H1911 C1907 0.950 . S
H1912 C1909 0.950 . S
C1913 C1904 1.390 . S
C1913 H1906 0.950 . S
C1913 C1910 1.387 . S
C1914 C1915 1.387 . S
C1914 H1918 0.950 . S
C1914 C1923 1.390 . S
C1915 C1914 1.387 . S
C1915 C1917 1.387 . S
H1916 C1923 0.950 . S
C1917 C1915 1.387 . S
C1917 C1919 1.390 . S
C1917 H1921 0.950 . S
H1918 C1914 0.950 . S
C1919 C1917 1.390 . S
C1919 C1920 1.387 . S
C1919 H1922 0.950 . S
C1920 C1919 1.387 . S
C1920 C1923 1.387 . S
H1921 C1917 0.950 . S
H1922 C1919 0.950 . S
C1923 C1914 1.390 . S
C1923 H1916 0.950 . S
C1923 C1920 1.387 . S
C1924 C1925 1.387 . S
C1924 H1928 0.950 . S
C1924 C1933 1.390 . S
C1925 C1924 1.387 . S
C1925 C1927 1.387 . S
H1926 C1933 0.950 . S
C1927 C1925 1.387 . S
C1927 C1929 1.390 . S
C1927 H1931 0.950 . S
H1928 C1924 0.950 . S
C1929 C1927 1.390 . S
C1929 C1930 1.387 . S
C1929 H1932 0.950 . S
C1930 C1929 1.387 . S
C1930 C1933 1.387 . S
H1931 C1927 0.950 . S
H1932 C1929 0.950 . S
C1933 C1924 1.390 . S
C1933 H1926 0.950 . S
C1933 C1930 1.387 . S
C1934 C1935 1.387 . S
C1934 H1938 0.950 . S
C1934 C1943 1.390 . S
C1935 C1934 1.387 . S
C1935 C1937 1.387 . S
H1936 C1943 0.950 . S
C1937 C1935 1.387 . S
C1937 C1939 1.390 . S
C1937 H1941 0.950 . S
H1938 C1934 0.950 . S
C1939 C1937 1.390 . S
C1939 C1940 1.387 . S
C1939 H1942 0.950 . S
C1940 C1939 1.387 . S
C1940 C1943 1.387 . S
H1941 C1937 0.950 . S
H1942 C1939 0.950 . S
C1943 C1934 1.390 . S
C1943 H1936 0.950 . S
C1943 C1940 1.387 . S
C1944 C1945 1.387 . S
C1944 H1948 0.950 . S
C1944 C1953 1.390 . S
C1945 C1944 1.387 . S
C1945 C1947 1.387 . S
H1946 C1953 0.950 . S
C1947 C1945 1.387 . S
C1947 C1949 1.390 . S
C1947 H1951 0.950 . S
H1948 C1944 0.950 . S
C1949 C1947 1.390 . S
C1949 C1950 1.387 . S
C1949 H1952 0.950 . S
C1950 C1949 1.387 . S
C1950 C1953 1.387 . S
H1951 C1947 0.950 . S
H1952 C1949 0.950 . S
C1953 C1944 1.390 . S
C1953 H1946 0.950 . S
C1953 C1950 1.387 . S
C1954 C1955 1.387 . S
C1954 H1958 0.950 . S
C1954 C1963 1.390 . S
C1955 C1954 1.387 . S
C1955 C1957 1.387 . S
H1956 C1963 0.950 . S
C1957 C1955 1.387 . S
C1957 C1959 1.390 . S
C1957 H1961 0.950 . S
H1958 C1954 0.950 . S
C1959 C1957 1.390 . S
C1959 C1960 1.387 . S
C1959 H1962 0.950 . S
C1960 C1959 1.387 . S
C1960 C1963 1.387 . S
H1961 C1957 0.950 . S
H1962 C1959 0.950 . S
C1963 C1954 1.390 . S
C1963 H1956 0.950 . S
C1963 C1960 1.387 . S
C1964 C1965 1.387 . S
C1964 H1968 0.950 . S
C1964 C1973 1.390 . S
C1965 C1964 1.387 . S
C1965 C1967 1.387 . S
H1966 C1973 0.950 . S
C1967 C1965 1.387 . S
C1967 C1969 1.390 . S
C1967 H1971 0.950 . S
H1968 C1964 0.950 . S
C1969 C1967 1.390 . S
C1969 C1970 1.387 . S
C1969 H1972 0.950 . S
C1970 C1969 1.387 . S
C1970 C1973 1.387 . S
H1971 C1967 0.950 . S
H1972 C1969 0.950 . S
C1973 C1964 1.390 . S
C1973 H1966 0.950 . S
C1973 C1970 1.387 . S
C1974 C1975 1.387 1_556 S
C1974 H1978 0.950 . S
C1974 C1983 1.390 . S
C1975 C1974 1.387 1_554 S
C1975 C1977 1.387 . S
H1976 C1983 0.950 . S
C1977 C1975 1.387 . S
C1977 C1979 1.390 . S
C1977 H1981 0.950 . S
H1978 C1974 0.950 . S
C1979 C1977 1.390 . S
C1979 C1980 1.387 1_554 S
C1979 H1982 0.950 . S
C1980 C1979 1.387 1_556 S
C1980 C1983 1.387 . S
H1981 C1977 0.950 . S
H1982 C1979 0.950 . S
C1983 C1974 1.390 . S
C1983 H1976 0.950 . S
C1983 C1980 1.387 . S
C1984 C1985 1.387 . S
C1984 H1988 0.950 1_556 S
C1984 C1993 1.390 . S
C1985 C1984 1.387 . S
C1985 C1987 1.387 . S
H1986 C1993 0.950 . S
C1987 C1985 1.387 . S
C1987 C1989 1.390 . S
C1987 H1991 0.950 . S
H1988 C1984 0.950 1_554 S
C1989 C1987 1.390 . S
C1989 C1990 1.387 . S
C1989 H1992 0.950 . S
C1990 C1989 1.387 . S
C1990 C1993 1.387 . S
H1991 C1987 0.950 . S
H1992 C1989 0.950 . S
C1993 C1984 1.390 . S
C1993 H1986 0.950 . S
C1993 C1990 1.387 . S
C1994 C1995 1.387 . S
C1994 H1998 0.950 . S
C1994 C2003 1.390 . S
C1995 C1994 1.387 . S
C1995 C1997 1.387 . S
H1996 C2003 0.950 . S
C1997 C1995 1.387 . S
C1997 C1999 1.390 . S
C1997 H2001 0.950 . S
H1998 C1994 0.950 . S
C1999 C1997 1.390 . S
C1999 C2000 1.387 . S
C1999 H2002 0.950 1_554 S
C2000 C1999 1.387 . S
C2000 C2003 1.387 . S
H2001 C1997 0.950 . S
H2002 C1999 0.950 1_556 S
C2003 C1994 1.390 . S
C2003 H1996 0.950 . S
C2003 C2000 1.387 . S
C2004 C2005 1.387 1_556 S
C2004 H2008 0.950 . S
C2004 C2013 1.390 . S
C2005 C2004 1.387 1_554 S
C2005 C2007 1.387 . S
H2006 C2013 0.950 . S
C2007 C2005 1.387 . S
C2007 C2009 1.390 1_554 S
C2007 H2011 0.950 . S
H2008 C2004 0.950 . S
C2009 C2007 1.390 1_556 S
C2009 C2010 1.387 . S
C2009 H2012 0.950 . S
C2010 C2009 1.387 . S
C2010 C2013 1.387 . S
H2011 C2007 0.950 . S
H2012 C2009 0.950 . S
C2013 C2004 1.390 . S
C2013 H2006 0.950 . S
C2013 C2010 1.387 . S
C2014 C2015 1.387 . S
C2014 H2018 0.950 . S
C2014 C2023 1.390 . S
C2015 C2014 1.387 . S
C2015 C2017 1.387 . S
H2016 C2023 0.950 . S
C2017 C2015 1.387 . S
C2017 C2019 1.390 . S
C2017 H2021 0.950 1_556 S
H2018 C2014 0.950 . S
C2019 C2017 1.390 . S
C2019 C2020 1.387 . S
C2019 H2022 0.950 . S
C2020 C2019 1.387 . S
C2020 C2023 1.387 . S
H2021 C2017 0.950 1_554 S
H2022 C2019 0.950 . S
C2023 C2014 1.390 . S
C2023 H2016 0.950 . S
C2023 C2020 1.387 . S
C2024 C2025 1.387 . S
C2024 H2028 0.950 . S
C2024 C2033 1.390 . S
C2025 C2024 1.387 . S
C2025 C2027 1.387 . S
H2026 C2033 0.950 . S
C2027 C2025 1.387 . S
C2027 C2029 1.390 1_554 S
C2027 H2031 0.946 1_554 S
H2028 C2024 0.950 . S
C2029 C2027 1.390 1_556 S
C2029 C2030 1.387 1_556 S
C2029 H2032 0.950 . S
C2030 C2029 1.387 1_554 S
C2030 C2033 1.387 . S
H2031 C2027 0.946 1_556 S
H2032 C2029 0.950 . S
C2033 C2024 1.390 . S
C2033 H2026 0.950 . S
C2033 C2030 1.387 . S
C2034 C2035 1.387 . S
C2034 H2038 0.950 . S
C2034 C2043 1.390 . S
C2035 C2034 1.387 . S
C2035 C2037 1.387 . S
H2036 C2043 0.950 . S
C2037 C2035 1.387 . S
C2037 C2039 1.390 . S
C2037 H2041 0.950 . S
H2038 C2034 0.950 . S
C2039 C2037 1.390 . S
C2039 C2040 1.387 . S
C2039 H2042 0.950 . S
C2040 C2039 1.387 . S
C2040 C2043 1.387 . S
H2041 C2037 0.950 . S
H2042 C2039 0.950 . S
C2043 C2034 1.390 . S
C2043 H2036 0.950 . S
C2043 C2040 1.387 . S
C2044 C2045 1.387 . S
C2044 H2048 0.950 . S
C2044 C2053 1.390 . S
C2045 C2044 1.387 . S
C2045 C2047 1.387 . S
H2046 C2053 0.950 . S
C2047 C2045 1.387 . S
C2047 C2049 1.390 . S
C2047 H2051 0.950 . S
H2048 C2044 0.950 . S
C2049 C2047 1.390 . S
C2049 C2050 1.387 . S
C2049 H2052 0.950 . S
C2050 C2049 1.387 . S
C2050 C2053 1.387 . S
H2051 C2047 0.950 . S
H2052 C2049 0.950 . S
C2053 C2044 1.390 . S
C2053 H2046 0.950 . S
C2053 C2050 1.387 . S
C2054 C2055 1.387 . S
C2054 H2058 0.950 . S
C2054 C2063 1.390 . S
C2055 C2054 1.387 . S
C2055 C2057 1.387 . S
H2056 C2063 0.950 . S
C2057 C2055 1.387 . S
C2057 C2059 1.390 . S
C2057 H2061 0.950 . S
H2058 C2054 0.950 . S
C2059 C2057 1.390 . S
C2059 C2060 1.387 . S
C2059 H2062 0.950 . S
C2060 C2059 1.387 . S
C2060 C2063 1.387 . S
H2061 C2057 0.950 . S
H2062 C2059 0.950 . S
C2063 C2054 1.390 . S
C2063 H2056 0.950 . S
C2063 C2060 1.387 . S
C2064 C2065 1.387 . S
C2064 H2068 0.950 . S
C2064 C2073 1.390 . S
C2065 C2064 1.387 . S
C2065 C2067 1.387 . S
H2066 C2073 0.950 . S
C2067 C2065 1.387 . S
C2067 C2069 1.390 . S
C2067 H2071 0.950 . S
H2068 C2064 0.950 . S
C2069 C2067 1.390 . S
C2069 C2070 1.387 . S
C2069 H2072 0.950 . S
C2070 C2069 1.387 . S
C2070 C2073 1.387 . S
H2071 C2067 0.950 . S
H2072 C2069 0.950 . S
C2073 C2064 1.390 . S
C2073 H2066 0.950 . S
C2073 C2070 1.387 . S
C2074 C2075 1.387 . S
C2074 H2078 0.950 . S
C2074 C2083 1.390 . S
C2075 C2074 1.387 . S
C2075 C2077 1.387 . S
H2076 C2083 0.950 . S
C2077 C2075 1.387 . S
C2077 C2079 1.390 . S
C2077 H2081 0.950 . S
H2078 C2074 0.950 . S
C2079 C2077 1.390 . S
C2079 C2080 1.387 . S
C2079 H2082 0.950 . S
C2080 C2079 1.387 . S
C2080 C2083 1.387 . S
H2081 C2077 0.950 . S
H2082 C2079 0.950 . S
C2083 C2074 1.390 . S
C2083 H2076 0.950 . S
C2083 C2080 1.387 . S
C2084 C2085 1.387 . S
C2084 H2088 0.950 . S
C2084 C2093 1.390 . S
C2085 C2084 1.387 . S
C2085 C2087 1.387 . S
H2086 C2093 0.950 . S
C2087 C2085 1.387 . S
C2087 C2089 1.390 . S
C2087 H2091 0.950 . S
H2088 C2084 0.950 . S
C2089 C2087 1.390 . S
C2089 C2090 1.387 . S
C2089 H2092 0.950 . S
C2090 C2089 1.387 . S
C2090 C2093 1.387 . S
H2091 C2087 0.950 . S
H2092 C2089 0.950 . S
C2093 C2084 1.390 . S
C2093 H2086 0.950 . S
C2093 C2090 1.387 . S
C2094 C2095 1.387 . S
C2094 H2098 0.950 . S
C2094 C2103 1.390 . S
C2095 C2094 1.387 . S
C2095 C2097 1.387 . S
H2096 C2103 0.950 . S
C2097 C2095 1.387 . S
C2097 C2099 1.390 . S
C2097 H2101 0.950 . S
H2098 C2094 0.950 . S
C2099 C2097 1.390 . S
C2099 C2100 1.387 . S
C2099 H2102 0.950 . S
C2100 C2099 1.387 . S
C2100 C2103 1.387 . S
H2101 C2097 0.950 . S
H2102 C2099 0.950 . S
C2103 C2094 1.390 . S
C2103 H2096 0.950 . S
C2103 C2100 1.387 . S
C2104 C2105 1.387 . S
C2104 H2108 0.950 . S
C2104 C2113 1.390 . S
C2105 C2104 1.387 . S
C2105 C2107 1.387 . S
H2106 C2113 0.950 . S
C2107 C2105 1.387 . S
C2107 C2109 1.390 . S
C2107 H2111 0.950 . S
H2108 C2104 0.950 . S
C2109 C2107 1.390 . S
C2109 C2110 1.387 . S
C2109 H2112 0.950 . S
C2110 C2109 1.387 . S
C2110 C2113 1.387 . S
H2111 C2107 0.950 . S
H2112 C2109 0.950 . S
C2113 C2104 1.390 . S
C2113 H2106 0.950 . S
C2113 C2110 1.387 . S
C2114 C2115 1.387 . S
C2114 H2118 0.950 . S
C2114 C2123 1.390 . S
C2115 C2114 1.387 . S
C2115 C2117 1.387 . S
H2116 C2123 0.950 . S
C2117 C2115 1.387 . S
C2117 C2119 1.390 . S
C2117 H2121 0.950 . S
H2118 C2114 0.950 . S
C2119 C2117 1.390 . S
C2119 C2120 1.387 . S
C2119 H2122 0.950 . S
C2120 C2119 1.387 . S
C2120 C2123 1.387 . S
H2121 C2117 0.950 . S
H2122 C2119 0.950 . S
C2123 C2114 1.390 . S
C2123 H2116 0.950 . S
C2123 C2120 1.387 . S
C2124 C2125 1.411 . S
C2124 H2128 0.947 1_565 S
C2124 C2133 1.370 1_565 S
C2125 C2124 1.411 . S
C2125 C2127 1.387 . S
H2126 C2133 0.950 . S
C2127 C2125 1.387 . S
C2127 C2129 1.390 . S
C2127 H2131 0.950 . S
H2128 C2124 0.947 1_545 S
C2129 C2127 1.390 . S
C2129 C2130 1.387 . S
C2129 H2132 0.950 . S
C2130 C2129 1.387 . S
C2130 C2133 1.387 1_565 S
H2131 C2127 0.950 . S
H2132 C2129 0.950 . S
C2133 C2124 1.370 1_545 S
C2133 H2126 0.950 . S
C2133 C2130 1.387 1_545 S
C2134 C2135 1.387 . S
C2134 H2138 0.950 1_455 S
C2134 C2143 1.390 1_455 S
C2135 C2134 1.387 . S
C2135 C2137 1.387 . S
H2136 C2143 0.950 . S
C2137 C2135 1.387 . S
C2137 C2139 1.390 . S
C2137 H2141 0.950 . S
H2138 C2134 0.950 1_655 S
C2139 C2137 1.390 . S
C2139 C2140 1.387 . S
C2139 H2142 0.950 . S
C2140 C2139 1.387 . S
C2140 C2143 1.387 1_455 S
H2141 C2137 0.950 . S
H2142 C2139 0.950 . S
C2143 C2134 1.390 1_655 S
C2143 H2136 0.950 . S
C2143 C2140 1.387 1_655 S
C2144 C2145 1.387 . S
C2144 H2148 0.950 . S
C2144 C2153 1.390 . S
C2145 C2144 1.387 . S
C2145 C2147 1.387 . S
H2146 C2153 0.950 . S
C2147 C2145 1.387 . S
C2147 C2149 1.390 . S
C2147 H2151 0.950 . S
H2148 C2144 0.950 . S
C2149 C2147 1.390 . S
C2149 C2150 1.387 . S
C2149 H2152 0.950 . S
C2150 C2149 1.387 . S
C2150 C2153 1.387 . S
H2151 C2147 0.950 . S
H2152 C2149 0.950 . S
C2153 C2144 1.390 . S
C2153 H2146 0.950 . S
C2153 C2150 1.387 . S
C2154 C2155 1.387 . S
C2154 H2158 0.950 . S
C2154 C2163 1.390 . S
C2155 C2154 1.387 . S
C2155 C2157 1.387 . S
H2156 C2163 0.950 . S
C2157 C2155 1.387 . S
C2157 C2159 1.390 . S
C2157 H2161 0.950 . S
H2158 C2154 0.950 . S
C2159 C2157 1.390 . S
C2159 C2160 1.387 . S
C2159 H2162 0.950 . S
C2160 C2159 1.387 . S
C2160 C2163 1.387 . S
H2161 C2157 0.950 . S
H2162 C2159 0.950 . S
C2163 C2154 1.390 . S
C2163 H2156 0.950 . S
C2163 C2160 1.387 . S
C2164 C2165 1.387 . S
C2164 H2168 0.950 . S
C2164 C2173 1.390 . S
C2165 C2164 1.387 . S
C2165 C2167 1.387 . S
H2166 C2173 0.950 . S
C2167 C2165 1.387 . S
C2167 C2169 1.390 . S
C2167 H2171 0.950 . S
H2168 C2164 0.950 . S
C2169 C2167 1.390 . S
C2169 C2170 1.387 . S
C2169 H2172 0.950 . S
C2170 C2169 1.387 . S
C2170 C2173 1.387 . S
H2171 C2167 0.950 . S
H2172 C2169 0.950 . S
C2173 C2164 1.390 . S
C2173 H2166 0.950 . S
C2173 C2170 1.387 . S
C2174 C2175 1.387 . S
C2174 H2178 0.950 . S
C2174 C2183 1.390 . S
C2175 C2174 1.387 . S
C2175 C2177 1.387 . S
H2176 C2183 0.950 . S
C2177 C2175 1.387 . S
C2177 C2179 1.390 . S
C2177 H2181 0.950 . S
H2178 C2174 0.950 . S
C2179 C2177 1.390 . S
C2179 C2180 1.387 . S
C2179 H2182 0.950 . S
C2180 C2179 1.387 . S
C2180 C2183 1.387 . S
H2181 C2177 0.950 . S
H2182 C2179 0.950 . S
C2183 C2174 1.390 . S
C2183 H2176 0.950 . S
C2183 C2180 1.387 . S
C2184 C2185 1.387 . S
C2184 H2188 0.950 1_545 S
C2184 C2193 1.390 . S
C2185 C2184 1.387 . S
C2185 C2187 1.387 . S
H2186 C2193 0.950 1_565 S
C2187 C2185 1.387 . S
C2187 C2189 1.390 . S
C2187 H2191 0.950 . S
H2188 C2184 0.950 1_565 S
C2189 C2187 1.390 . S
C2189 C2190 1.387 . S
C2189 H2192 0.950 . S
C2190 C2189 1.387 . S
C2190 C2193 1.387 . S
H2191 C2187 0.950 . S
H2192 C2189 0.950 . S
C2193 C2184 1.390 . S
C2193 H2186 0.950 1_545 S
C2193 C2190 1.387 . S
C2194 C2195 1.387 . S
C2194 H2198 0.950 . S
C2194 C2203 1.390 . S
C2195 C2194 1.387 . S
C2195 C2197 1.387 . S
H2196 C2203 0.950 . S
C2197 C2195 1.387 . S
C2197 C2199 1.390 . S
C2197 H2201 0.950 . S
H2198 C2194 0.950 . S
C2199 C2197 1.390 . S
C2199 C2200 1.387 . S
C2199 H2202 0.950 . S
C2200 C2199 1.387 . S
C2200 C2203 1.387 . S
H2201 C2197 0.950 . S
H2202 C2199 0.950 . S
C2203 C2194 1.390 . S
C2203 H2196 0.950 . S
C2203 C2200 1.387 . S
C2204 C2205 1.387 . S
C2204 H2208 0.950 . S
C2204 C2213 1.390 . S
C2205 C2204 1.387 . S
C2205 C2207 1.387 . S
H2206 C2213 0.950 . S
C2207 C2205 1.387 . S
C2207 C2209 1.390 . S
C2207 H2211 0.950 . S
H2208 C2204 0.950 . S
C2209 C2207 1.390 . S
C2209 C2210 1.387 . S
C2209 H2212 0.950 . S
C2210 C2209 1.387 . S
C2210 C2213 1.387 . S
H2211 C2207 0.950 . S
H2212 C2209 0.950 . S
C2213 C2204 1.390 . S
C2213 H2206 0.950 . S
C2213 C2210 1.387 . S
C2214 C2215 1.387 . S
C2214 H2218 0.950 . S
C2214 C2223 1.390 . S
C2215 C2214 1.387 . S
C2215 C2217 1.387 . S
H2216 C2223 0.950 . S
C2217 C2215 1.387 . S
C2217 C2219 1.390 . S
C2217 H2221 0.950 . S
H2218 C2214 0.950 . S
C2219 C2217 1.390 . S
C2219 C2220 1.387 . S
C2219 H2222 0.950 . S
C2220 C2219 1.387 . S
C2220 C2223 1.387 . S
H2221 C2217 0.950 . S
H2222 C2219 0.950 . S
C2223 C2214 1.390 . S
C2223 H2216 0.950 . S
C2223 C2220 1.387 . S
C2224 C2225 1.387 . S
C2224 H2228 0.950 . S
C2224 C2233 1.390 . S
C2225 C2224 1.387 . S
C2225 C2227 1.387 . S
H2226 C2233 0.950 . S
C2227 C2225 1.387 . S
C2227 C2229 1.390 . S
C2227 H2231 0.950 . S
H2228 C2224 0.950 . S
C2229 C2227 1.390 . S
C2229 C2230 1.387 . S
C2229 H2232 0.950 . S
C2230 C2229 1.387 . S
C2230 C2233 1.387 . S
H2231 C2227 0.950 . S
H2232 C2229 0.950 . S
C2233 C2224 1.390 . S
C2233 H2226 0.950 . S
C2233 C2230 1.387 . S
C2234 C2235 1.387 . S
C2234 H2238 0.950 . S
C2234 C2243 1.390 . S
C2235 C2234 1.387 . S
C2235 C2237 1.387 . S
H2236 C2243 0.950 . S
C2237 C2235 1.387 . S
C2237 C2239 1.390 . S
C2237 H2241 0.950 . S
H2238 C2234 0.950 . S
C2239 C2237 1.390 . S
C2239 C2240 1.387 . S
C2239 H2242 0.950 . S
C2240 C2239 1.387 . S
C2240 C2243 1.387 . S
H2241 C2237 0.950 . S
H2242 C2239 0.950 . S
C2243 C2234 1.390 . S
C2243 H2236 0.950 . S
C2243 C2240 1.387 . S
C2244 C2245 1.387 . S
C2244 H2248 0.950 . S
C2244 C2253 1.390 . S
C2245 C2244 1.387 . S
C2245 C2247 1.387 . S
H2246 C2253 0.950 . S
C2247 C2245 1.387 . S
C2247 C2249 1.390 . S
C2247 H2251 0.950 . S
H2248 C2244 0.950 . S
C2249 C2247 1.390 . S
C2249 C2250 1.387 . S
C2249 H2252 0.950 . S
C2250 C2249 1.387 . S
C2250 C2253 1.387 . S
H2251 C2247 0.950 . S
H2252 C2249 0.950 . S
C2253 C2244 1.390 . S
C2253 H2246 0.950 . S
C2253 C2250 1.387 . S
C2254 C2255 1.387 . S
C2254 H2258 0.950 . S
C2254 C2263 1.390 . S
C2255 C2254 1.387 . S
C2255 C2257 1.387 . S
H2256 C2263 0.950 . S
C2257 C2255 1.387 . S
C2257 C2259 1.390 . S
C2257 H2261 0.950 . S
H2258 C2254 0.950 . S
C2259 C2257 1.390 . S
C2259 C2260 1.387 . S
C2259 H2262 0.950 . S
C2260 C2259 1.387 . S
C2260 C2263 1.387 . S
H2261 C2257 0.950 . S
H2262 C2259 0.950 . S
C2263 C2254 1.390 . S
C2263 H2256 0.950 . S
C2263 C2260 1.387 . S
C2264 C2265 1.387 . S
C2264 H2268 0.950 . S
C2264 C2273 1.390 . S
C2265 C2264 1.387 . S
C2265 C2267 1.387 . S
H2266 C2273 0.950 . S
C2267 C2265 1.387 . S
C2267 C2269 1.390 . S
C2267 H2271 0.950 . S
H2268 C2264 0.950 . S
C2269 C2267 1.390 . S
C2269 C2270 1.387 . S
C2269 H2272 0.950 . S
C2270 C2269 1.387 . S
C2270 C2273 1.387 . S
H2271 C2267 0.950 . S
H2272 C2269 0.950 . S
C2273 C2264 1.390 . S
C2273 H2266 0.950 . S
C2273 C2270 1.387 . S
C2274 C2275 1.387 . S
C2274 H2278 0.950 . S
C2274 C2283 1.390 . S
C2275 C2274 1.387 . S
C2275 C2277 1.387 . S
H2276 C2283 0.950 . S
C2277 C2275 1.387 . S
C2277 C2279 1.390 . S
C2277 H2281 0.950 . S
H2278 C2274 0.950 . S
C2279 C2277 1.390 . S
C2279 C2280 1.387 . S
C2279 H2282 0.950 . S
C2280 C2279 1.387 . S
C2280 C2283 1.387 . S
H2281 C2277 0.950 . S
H2282 C2279 0.950 . S
C2283 C2274 1.390 . S
C2283 H2276 0.950 . S
C2283 C2280 1.387 . S
C2284 C2285 1.387 . S
C2284 H2288 0.950 . S
C2284 C2293 1.390 . S
C2285 C2284 1.387 . S
C2285 C2287 1.387 . S
H2286 C2293 0.950 . S
C2287 C2285 1.387 . S
C2287 C2289 1.390 . S
C2287 H2291 0.950 . S
H2288 C2284 0.950 . S
C2289 C2287 1.390 . S
C2289 C2290 1.387 . S
C2289 H2292 0.950 . S
C2290 C2289 1.387 . S
C2290 C2293 1.387 . S
H2291 C2287 0.950 . S
H2292 C2289 0.950 . S
C2293 C2284 1.390 . S
C2293 H2286 0.950 . S
C2293 C2290 1.387 . S
C2294 C2295 1.387 . S
C2294 H2298 0.950 1_545 S
C2294 C2303 1.390 1_545 S
C2295 C2294 1.387 . S
C2295 C2297 1.387 . S
H2296 C2303 0.950 . S
C2297 C2295 1.387 . S
C2297 C2299 1.390 . S
C2297 H2301 0.950 . S
H2298 C2294 0.950 1_565 S
C2299 C2297 1.390 . S
C2299 C2300 1.387 . S
C2299 H2302 0.950 . S
C2300 C2299 1.387 . S
C2300 C2303 1.387 1_545 S
H2301 C2297 0.950 . S
H2302 C2299 0.950 . S
C2303 C2294 1.390 1_565 S
C2303 H2296 0.950 . S
C2303 C2300 1.387 1_565 S
C1585 C13 1.265 . S
C1590 C981 1.280 . S
C1595 C27 1.398 . S
C1600 C1061 1.445 . S
C1610 C1129 1.328 . S
C1605 C36 1.302 . S
C1615 C41 1.673 . S
C1620 C1209 1.683 . S
C1625 C8 1.509 . S
C1630 C1283 1.581 . S
C1635 C22 1.548 . S
C1640 C1351 1.493 . S
C1645 C55 1.255 1_556 S
C1650 C1277 1.247 . S
C1660 C1357 1.376 . S
C1655 C69 1.326 . S
C1670 C1203 1.353 . S
C1665 C78 1.255 1_556 S
C1675 C83 1.699 . S
C1680 C1135 1.687 1_545 S
C1690 C987 1.571 . S
C1685 C50 1.454 . S
C1695 C64 1.360 . S
C1700 C1055 1.400 . S
C1705 C97 1.454 . S
C1710 C1425 1.463 . S
C1715 C111 1.450 . S
C1720 C1505 1.488 . S
C1730 C1573 1.502 . S
C1725 C120 1.607 . S
C1735 C125 1.814 . S
C1740 C321 1.804 . S
C1745 C92 1.801 . S
C1750 C395 1.756 . S
C1755 C106 1.602 . S
C1760 C463 1.521 . S
C1765 C139 1.214 . S
C1770 C389 1.253 . S
C1775 C153 1.365 . S
C1780 C469 1.404 . S
C1790 C315 1.395 . S
C1785 C162 1.364 . S
C1800 C1579 1.773 . S
C1795 C167 1.752 . S
C1810 C1431 1.617 . S
C1805 C134 1.575 . S
C1820 C1499 1.429 . S
C1815 C148 1.409 . S
C1825 C181 1.393 . S
C1830 C537 1.393 . S
C1835 C195 1.462 . S
C1840 C617 1.488 . S
C1845 C204 1.619 . S
C1850 C685 1.524 . S
C1855 C209 1.872 . S
C1860 C765 1.861 . S
C1870 C839 1.745 . S
C1865 C176 1.804 . S
C1880 C907 1.551 . S
C1875 C190 1.647 . S
C1890 C833 1.327 . S
C1885 C223 1.274 . S
C1900 C913 1.391 . S
C1895 C237 1.337 . S
C1905 C246 1.331 . S
C1910 C759 1.351 . S
C1920 C691 1.705 . S
C1915 C251 1.692 . S
C1925 C218 1.587 . S
C1930 C543 1.642 . S
C1940 C611 1.410 . S
C1935 C232 1.380 . S
C1950 C291 1.935 . S
C1945 C11 1.923 . S
C1955 C25 1.381 . S
C1960 C365 1.399 . S
C1970 C451 1.509 . S
C1965 C35 1.525 . S
C1980 C525 1.353 . S
C1975 C39 1.349 . S
C1990 C587 1.634 . S
C1985 C7 1.667 1_556 S
C2000 C673 1.571 1_554 S
C1995 C21 1.595 . S
C2005 C53 2.120 . S
C2010 C661 2.066 . S
C2015 C67 1.641 . S
C2020 C513 1.575 . S
C2025 C77 1.822 . S
C2030 C599 1.737 1_554 S
C2035 C81 1.668 . S
C2040 C377 1.629 . S
C2050 C439 1.788 . S
C2045 C49 1.923 . S
C2055 C63 1.910 . S
C2060 C303 1.804 . S
C2070 C735 1.862 . S
C2065 C95 1.866 . S
C2075 C109 1.459 . S
C2080 C809 1.465 . S
C2085 C119 1.557 1_655 S
C2090 C895 1.529 . S
C2100 C969 1.149 . S
C2095 C123 1.168 . S
C2105 C91 1.570 . S
C2110 C1031 1.544 . S
C2115 C105 1.381 . S
C2120 C1117 1.385 . S
C2125 C137 1.824 . S
C2130 C1105 1.775 1_565 S
C2135 C151 1.328 . S
C2140 C957 1.298 1_455 S
C2150 C1043 1.635 . S
C2145 C161 1.715 . S
C2155 C165 1.659 . S
C2160 C821 1.601 . S
C2165 C133 1.915 . S
C2170 C883 1.787 . S
C2180 C747 1.833 . S
C2175 C147 1.945 1_655 S
C2190 C1179 1.731 . S
C2185 C179 1.757 . S
C2195 C193 1.180 . S
C2200 C1253 1.174 . S
C2205 C203 1.450 . S
C2210 C1339 1.434 . S
C2220 C1413 1.337 . S
C2215 C207 1.350 . S
C2230 C1475 1.647 . S
C2225 C175 1.696 . S
C2235 C189 1.662 . S
C2240 C1561 1.610 . S
C2245 C221 2.071 . S
C2250 C1549 2.002 . S
C2255 C235 1.707 . S
C2260 C1401 1.630 . S
C2270 C1487 1.734 . S
C2265 C245 1.836 1_455 S
C2280 C1265 1.268 . S
C2275 C249 1.297 . S
C2290 C1327 1.690 . S
C2285 C217 1.807 . S
C2295 C231 1.558 . S
C2300 C1191 1.514 . S
