# Generated by pormake.
# Topology rtl, (3,6)-cn, num edge types: 1
# Building blocks:
#     Node 0, Type 0, BuildingBlock: VETTIZ_charged_linker_0, # of connection points: 3
#     Node 1, Type 0, BuildingBlock: VETTIZ_charged_linker_0, # of connection points: 3
#     Node 2, Type 0, BuildingBlock: VETTIZ_charged_linker_0, # of connection points: 3
#     Node 3, Type 0, BuildingBlock: VETTIZ_charged_linker_0, # of connection points: 3
#     Node 4, Type 1, BuildingBlock: KUMBOL_clean_sbu_1, # of connection points: 6
#     Node 5, Type 1, BuildingBlock: KUMBOL_clean_sbu_1, # of connection points: 6
#     Edge 6, Type (0, 1), BuildingBlock: ZUJKAS_clean_linker_0, # of connection points: 2
#     Edge 7, Type (0, 1), BuildingBlock: ZUJKAS_clean_linker_0, # of connection points: 2
#     Edge 8, Type (0, 1), BuildingBlock: ZUJKAS_clean_linker_0, # of connection points: 2
#     Edge 9, Type (0, 1), BuildingBlock: ZUJKAS_clean_linker_0, # of connection points: 2
#     Edge 10, Type (0, 1), BuildingBlock: ZUJKAS_clean_linker_0, # of connection points: 2
#     Edge 11, Type (0, 1), BuildingBlock: ZUJKAS_clean_linker_0, # of connection points: 2
#     Edge 12, Type (0, 1), BuildingBlock: ZUJKAS_clean_linker_0, # of connection points: 2
#     Edge 13, Type (0, 1), BuildingBlock: ZUJKAS_clean_linker_0, # of connection points: 2
#     Edge 14, Type (0, 1), BuildingBlock: ZUJKAS_clean_linker_0, # of connection points: 2
#     Edge 15, Type (0, 1), BuildingBlock: ZUJKAS_clean_linker_0, # of connection points: 2
#     Edge 16, Type (0, 1), BuildingBlock: ZUJKAS_clean_linker_0, # of connection points: 2
#     Edge 17, Type (0, 1), BuildingBlock: ZUJKAS_clean_linker_0, # of connection points: 2
# Relax obj value: 0.017
# Max RMSD: 0.086
# Mean RMSD: 0.052
data_MOF--net-rtl--node1-KUMBOL_clean_sbu_1--node2-VETTIZ_charged_linker_0--edge1-ZUJKAS_clean_linker_0
_symmetry_space_group_name_H-M    P1
_symmetry_Int_Tables_number       1
_symmetry_cell_setting            triclinic
loop_
_symmetry_equiv_pos_as_xyz
'x, y, z'
_cell_length_a     49.024007
_cell_length_b     49.570841
_cell_length_c     42.843978
_cell_angle_alpha  81.970073
_cell_angle_beta   99.545272
_cell_angle_gamma 90.273939
loop_
_atom_site_label
_atom_site_type_symbol
_atom_site_fract_x
_atom_site_fract_y
_atom_site_fract_z
_atom_type_partial_charge
C0 C 0.17446 0.87865 0.91313 0.0
C1 C 0.15323 0.89864 0.90675 0.0
C2 C 0.14346 0.90788 0.93263 0.0
C3 C 0.17515 0.8768 0.97022 0.0
C4 C 0.18501 0.86804 0.94487 0.0
C5 C 0.207 0.84612 0.95571 0.0
H6 H 0.28108 0.7594 0.07546 0.0
C7 C 0.18977 0.86094 1.00007 0.0
C8 C 0.20845 0.84292 0.99173 0.0
H9 H 0.2847 0.76861 0.97437 0.0
H10 H 0.25088 0.80517 0.9644 0.0
H11 H 0.28011 0.82432 0.07948 0.0
H12 H 0.21464 0.76632 0.06823 0.0
H13 H 0.20735 0.78733 0.09577 0.0
H14 H 0.23827 0.76621 0.10506 0.0
H15 H 0.27417 0.79879 0.11161 0.0
H16 H 0.25599 0.83122 0.10357 0.0
C17 C 0.23431 0.8571 0.94542 0.0
C18 C 0.19637 0.82007 0.94175 0.0
C19 C 0.16526 0.87667 0.1068 0.0
C20 C 0.17398 0.86422 0.13843 0.0
C21 C 0.19413 0.84308 0.14437 0.0
C22 C 0.20537 0.83451 0.11923 0.0
C23 C 0.19629 0.84707 0.08771 0.0
C24 C 0.17655 0.86778 0.08197 0.0
C25 C 0.16875 0.87833 0.04699 0.0
C26 C 0.18731 0.86082 0.03265 0.0
C27 C 0.20344 0.84253 0.05657 0.0
C28 C 0.17637 0.90882 0.04184 0.0
C29 C 0.13766 0.87267 0.03657 0.0
C30 C 0.27443 0.76925 0.05119 0.0
C31 C 0.28554 0.76107 0.02565 0.0
C32 C 0.27667 0.77468 0.99448 0.0
C33 C 0.25688 0.79583 0.9887 0.0
C34 C 0.24576 0.80362 0.01435 0.0
C35 C 0.25477 0.79064 0.04503 0.0
C36 C 0.24115 0.80232 0.06935 0.0
C37 C 0.22227 0.82416 0.04812 0.0
C38 C 0.22493 0.82461 0.01591 0.0
C39 C 0.26389 0.8147 0.09248 0.0
C40 C 0.22457 0.77946 0.08577 0.0
H41 H 0.14592 0.90497 0.98283 0.0
H42 H 0.18226 0.87089 0.89383 0.0
H43 H 0.17389 0.81756 0.94239 0.0
H44 H 0.2063 0.80117 0.95551 0.0
H45 H 0.19934 0.82111 0.91647 0.0
H46 H 0.23551 0.87958 0.94499 0.0
H47 H 0.23601 0.85267 0.92111 0.0
H48 H 0.25288 0.84889 0.96234 0.0
H49 H 0.14947 0.89262 0.10132 0.0
H50 H 0.20132 0.83328 0.16854 0.0
H51 H 0.22061 0.81834 0.12531 0.0
H52 H 0.19616 0.91248 0.05745 0.0
H53 H 0.16012 0.92188 0.04771 0.0
H54 H 0.17987 0.91599 0.01727 0.0
H55 H 0.13141 0.85365 0.05048 0.0
H56 H 0.1326 0.86917 0.01138 0.0
H57 H 0.12438 0.88957 0.04043 0.0
H58 H 0.12742 0.92353 0.92842 0.0
C59 C 0.15432 0.89713 0.96426 0.0
C60 C 0.64897 0.66354 0.69607 0.0
C61 C 0.62883 0.64319 0.69712 0.0
C62 C 0.61819 0.63266 0.6687 0.0
C63 C 0.64717 0.66263 0.63916 0.0
C64 C 0.65776 0.67293 0.66696 0.0
C65 C 0.6789 0.69452 0.66157 0.0
H66 H 0.74889 0.77153 0.55829 0.0
C67 C 0.66043 0.67678 0.61299 0.0
C68 C 0.67905 0.69558 0.62598 0.0
H69 H 0.75616 0.77252 0.66002 0.0
H70 H 0.72211 0.73704 0.66323 0.0
H71 H 0.74951 0.70838 0.56197 0.0
H72 H 0.68285 0.76731 0.5439 0.0
H73 H 0.67386 0.74354 0.51734 0.0
H74 H 0.70476 0.76313 0.5152 0.0
H75 H 0.73997 0.72908 0.5239 0.0
H76 H 0.72426 0.69659 0.53331 0.0
C77 C 0.70702 0.68432 0.68184 0.0
C78 C 0.66808 0.72157 0.66964 0.0
C79 C 0.63519 0.65271 0.49982 0.0
C80 C 0.64407 0.6628 0.47082 0.0
C81 C 0.66364 0.68374 0.47067 0.0
C82 C 0.67413 0.6945 0.49862 0.0
C83 C 0.66512 0.68428 0.52734 0.0
C84 C 0.64593 0.66378 0.52769 0.0
C85 C 0.63884 0.65563 0.5606 0.0
C86 C 0.65719 0.67444 0.57985 0.0
C87 C 0.67246 0.69112 0.56014 0.0
C88 C 0.6473 0.62528 0.57149 0.0
C89 C 0.6077 0.66199 0.55906 0.0
C90 C 0.74293 0.76437 0.58123 0.0
C91 C 0.75502 0.77504 0.60887 0.0
C92 C 0.74718 0.76458 0.63838 0.0
C93 C 0.72734 0.74406 0.64015 0.0
C94 C 0.71535 0.73371 0.61216 0.0
C95 C 0.7234 0.74384 0.58342 0.0
C96 C 0.70927 0.73013 0.5562 0.0
C97 C 0.69116 0.71019 0.57314 0.0
C98 C 0.69461 0.71237 0.6059 0.0
C99 C 0.73174 0.71538 0.54283 0.0
C100 C 0.69187 0.75202 0.53161 0.0
H101 H 0.61829 0.63331 0.61918 0.0
H102 H 0.65746 0.67227 0.71733 0.0
H103 H 0.64547 0.72425 0.66074 0.0
H104 H 0.67758 0.73971 0.65814 0.0
H105 H 0.67153 0.72185 0.69588 0.0
H106 H 0.70965 0.66192 0.68268 0.0
H107 H 0.70856 0.6886 0.70683 0.0
H108 H 0.7249 0.69322 0.67174 0.0
H109 H 0.62008 0.63673 0.50078 0.0
H110 H 0.67131 0.69156 0.44893 0.0
H111 H 0.68901 0.71031 0.49672 0.0
H112 H 0.66687 0.62043 0.56332 0.0
H113 H 0.63112 0.61166 0.56141 0.0
H114 H 0.65162 0.61988 0.59773 0.0
H115 H 0.6011 0.68081 0.54209 0.0
H116 H 0.60265 0.66617 0.58212 0.0
H117 H 0.59473 0.64509 0.55082 0.0
H118 H 0.60306 0.61666 0.6688 0.0
C119 C 0.6272 0.64224 0.63985 0.0
C120 C 0.84167 0.1224 0.13817 0.0
C121 C 0.86237 0.10195 0.14359 0.0
C122 C 0.8707 0.09241 0.11702 0.0
C123 C 0.83834 0.12394 0.08074 0.0
C124 C 0.83007 0.13302 0.10682 0.0
C125 C 0.80812 0.15503 0.09728 0.0
H126 H 0.72517 0.23789 0.98178 0.0
C127 C 0.82222 0.1395 0.0515 0.0
C128 C 0.80446 0.15767 0.06113 0.0
H129 H 0.73336 0.23419 0.08435 0.0
H130 H 0.76712 0.19781 0.09196 0.0
H131 H 0.79033 0.23253 0.98093 0.0
H132 H 0.72695 0.17196 0.981 0.0
H133 H 0.74834 0.16503 0.95384 0.0
H134 H 0.72902 0.19681 0.94676 0.0
H135 H 0.76419 0.23038 0.9467 0.0
H136 H 0.79583 0.21045 0.9538 0.0
C137 C 0.8199 0.18128 0.10999 0.0
C138 C 0.78168 0.14439 0.11004 0.0
C139 C 0.83996 0.12352 0.94183 0.0
C140 C 0.82859 0.13506 0.91049 0.0
C141 C 0.8069 0.15454 0.90603 0.0
C142 C 0.79712 0.16277 0.93228 0.0
C143 C 0.80911 0.15147 0.96344 0.0
C144 C 0.82995 0.13195 0.96779 0.0
C145 C 0.84007 0.12192 1.00257 0.0
C146 C 0.82223 0.13897 0.01841 0.0
C147 C 0.80416 0.15633 0.99538 0.0
C148 C 0.87112 0.12873 0.01031 0.0
C149 C 0.8338 0.09117 0.00891 0.0
C150 C 0.73413 0.22902 0.00583 0.0
C151 C 0.72669 0.23898 0.03253 0.0
C152 C 0.73901 0.22711 0.06343 0.0
C153 C 0.75857 0.20589 0.0678 0.0
C154 C 0.76615 0.19639 0.04099 0.0
C155 C 0.75401 0.20787 0.01063 0.0
C156 C 0.76532 0.1955 0.98508 0.0
C157 C 0.78612 0.1747 0.00519 0.0
C158 C 0.78638 0.17534 0.03789 0.0
C159 C 0.77955 0.21827 0.9653 0.0
C160 C 0.74126 0.1817 0.96534 0.0
H161 H 0.86617 0.0953 0.06651 0.0
H162 H 0.83441 0.12992 0.15794 0.0
H163 H 0.77917 0.12227 0.10852 0.0
H164 H 0.76248 0.15414 0.09592 0.0
H165 H 0.78267 0.14719 0.13547 0.0
H166 H 0.84268 0.18228 0.11072 0.0
H167 H 0.81588 0.18209 0.1346 0.0
H168 H 0.81166 0.20013 0.09442 0.0
H169 H 0.85634 0.1082 0.94613 0.0
H170 H 0.79791 0.16395 0.88222 0.0
H171 H 0.78078 0.17786 0.92728 0.0
H172 H 0.87531 0.14902 0.99744 0.0
H173 H 0.88427 0.1134 0.00291 0.0
H174 H 0.87816 0.13021 0.03584 0.0
H175 H 0.81402 0.0864 0.994 0.0
H176 H 0.83088 0.08438 0.03379 0.0
H177 H 0.85042 0.07854 0.0031 0.0
H178 H 0.88675 0.07683 0.12046 0.0
C179 C 0.85881 0.10328 0.08568 0.0
C180 C 0.36187 0.32804 0.35442 0.0
C181 C 0.38306 0.34719 0.35181 0.0
C182 C 0.39737 0.35583 0.37997 0.0
C183 C 0.3684 0.32825 0.41187 0.0
C184 C 0.35502 0.31878 0.38464 0.0
C185 C 0.33333 0.29824 0.39202 0.0
H186 H 0.26305 0.23053 0.50196 0.0
C187 C 0.35588 0.31556 0.43927 0.0
C188 C 0.33543 0.29771 0.42796 0.0
H189 H 0.25516 0.22209 0.40173 0.0
H190 H 0.29024 0.25589 0.39529 0.0
H191 H 0.32935 0.23077 0.51521 0.0
H192 H 0.26736 0.29482 0.49326 0.0
H193 H 0.2937 0.30512 0.5219 0.0
H194 H 0.27488 0.27463 0.53192 0.0
H195 H 0.3082 0.23838 0.5434 0.0
H196 H 0.34022 0.25566 0.5398 0.0
C197 C 0.34197 0.27054 0.38344 0.0
C198 C 0.30489 0.30946 0.37366 0.0
C199 C 0.38594 0.34544 0.54834 0.0
C200 C 0.37708 0.33874 0.57802 0.0
C201 C 0.35653 0.31895 0.58087 0.0
C202 C 0.34475 0.3064 0.55458 0.0
C203 C 0.35352 0.31368 0.52496 0.0
C204 C 0.37388 0.33281 0.52228 0.0
C205 C 0.38043 0.33828 0.48894 0.0
C206 C 0.36045 0.31943 0.47194 0.0
C207 C 0.34477 0.30509 0.49314 0.0
C208 C 0.41104 0.32977 0.49011 0.0
C209 C 0.37352 0.3687 0.47605 0.0
C210 C 0.26904 0.23561 0.47866 0.0
C211 C 0.25625 0.2234 0.45239 0.0
C212 C 0.2644 0.2313 0.42236 0.0
C213 C 0.28496 0.2508 0.4187 0.0
C214 C 0.29763 0.2626 0.44533 0.0
C215 C 0.28959 0.25487 0.47466 0.0
C216 C 0.3053 0.26927 0.50046 0.0
C217 C 0.32439 0.28669 0.48194 0.0
C218 C 0.31976 0.2829 0.44957 0.0
C219 C 0.32155 0.24756 0.52632 0.0
C220 C 0.28439 0.28679 0.51286 0.0
H221 H 0.40174 0.35419 0.4301 0.0
H222 H 0.35048 0.32078 0.33343 0.0
H223 H 0.30269 0.33157 0.37509 0.0
H224 H 0.28733 0.29974 0.38363 0.0
H225 H 0.30254 0.30696 0.348 0.0
H226 H 0.36487 0.26783 0.38807 0.0
H227 H 0.33468 0.26908 0.35777 0.0
H228 H 0.33437 0.25294 0.39819 0.0
H229 H 0.40195 0.36025 0.54536 0.0
H230 H 0.34904 0.31359 0.6033 0.0
H231 H 0.32905 0.29171 0.55828 0.0
H232 H 0.41788 0.31311 0.51012 0.0
H233 H 0.42507 0.34715 0.49359 0.0
H234 H 0.41439 0.32131 0.46845 0.0
H235 H 0.35413 0.37515 0.48346 0.0
H236 H 0.36967 0.37305 0.44973 0.0
H237 H 0.39033 0.38197 0.48549 0.0
H238 H 0.41438 0.36978 0.37906 0.0
C239 C 0.39014 0.34657 0.4098 0.0
C240 C 0.94055 0.06627 0.48132 0.0
C241 C 0.89523 0.0463 0.47897 0.0
C242 C 0.92312 0.0471 0.49368 0.0
C243 C 0.8857 0.06402 0.4507 0.0
C244 C 0.93084 0.08496 0.45385 0.0
C245 C 0.90348 0.08333 0.43817 0.0
N246 N 0.96705 0.06688 0.4966 0.0
C247 C 0.98428 0.08714 0.48757 0.0
C248 C 0.94884 0.10495 0.44331 0.0
C249 C 0.97554 0.1063 0.46055 0.0
Gd250 Gd 0.02024 0.97047 0.51303 0.0
Gd251 Gd 0.98083 0.03302 0.54031 0.0
N252 N 0.93301 0.03038 0.52114 0.0
C253 C 0.87755 0.02836 0.4937 0.0
C254 C 0.91524 0.01472 0.53702 0.0
C255 C 0.88749 0.01292 0.5232 0.0
H256 H 0.92224 0.00377 0.56056 0.0
H257 H 0.87369 0.9999 0.53553 0.0
H258 H 0.08666 0.98639 0.52663 0.0
H259 H 0.005 0.08796 0.50079 0.0
H260 H 0.12934 0.97044 0.56443 0.0
H261 H 0.85598 0.02711 0.48319 0.0
H262 H 0.86444 0.06347 0.43883 0.0
H263 H 0.97724 0.91719 0.51588 0.0
H264 H 0.94216 0.1197 0.42229 0.0
H265 H 0.98944 0.12196 0.45293 0.0
H266 H 0.10036 0.89217 0.62966 0.0
H267 H 0.89569 0.09727 0.41675 0.0
H268 H 0.00894 0.85995 0.59809 0.0
H269 H 0.972 0.87488 0.55213 0.0
N270 N 0.01485 0.92793 0.54338 0.0
C271 C 0.03628 0.91902 0.56689 0.0
C272 C 0.99273 0.91162 0.53682 0.0
C273 C 0.0109 0.87897 0.58281 0.0
C274 C 0.98999 0.88733 0.55693 0.0
C275 C 0.03485 0.8944 0.58744 0.0
H276 H 0.057 0.86669 0.62708 0.0
N277 N 0.06157 0.9562 0.54726 0.0
C278 C 0.06061 0.93337 0.56853 0.0
C279 C 0.10911 0.93745 0.58941 0.0
C280 C 0.08425 0.92358 0.59058 0.0
C281 C 0.08602 0.96892 0.54467 0.0
C282 C 0.1101 0.95995 0.56598 0.0
O283 O 0.9863 0.03159 0.48903 0.0
O284 O 0.97954 0.9869 0.48476 0.0
O285 O 0.03776 0.97858 0.46938 0.0
O286 O 0.02829 0.93739 0.48723 0.0
O287 O 0.96874 0.98996 0.55801 0.0
O288 O 0.97458 0.96628 0.51683 0.0
O289 O 0.03744 0.98761 0.55859 0.0
O290 O 0.99886 0.99865 0.5781 0.0
O291 O 0.9577 0.05461 0.56944 0.0
O292 O 1.00153 0.0625 0.56832 0.0
O293 O 0.03772 0.01238 0.50096 0.0
O294 O 0.02592 0.04018 0.53655 0.0
C295 C 0.97663 0.0125 0.47221 0.0
C296 C 0.96278 0.96948 0.54161 0.0
C297 C 0.02299 0.94954 0.4314 0.0
C298 C 0.02723 0.94154 0.37739 0.0
C299 C 0.98185 0.94817 0.39155 0.0
C300 C 0.99413 0.95104 0.42267 0.0
C301 C 0.99821 0.94343 0.36903 0.0
C302 C 0.03945 0.94482 0.40878 0.0
C303 C 0.03611 0.95347 0.46381 0.0
C304 C 0.0825 0.89989 0.61229 0.0
C305 C 0.0578 0.88539 0.61083 0.0
H306 H 0.12775 0.93057 0.60594 0.0
C307 C 0.02434 0.98911 0.58264 0.0
C308 C 0.04122 0.03417 0.51572 0.0
C309 C 0.97964 0.0889 0.60099 0.0
C310 C 0.96429 0.10595 0.64621 0.0
C311 C 0.99904 0.1302 0.61928 0.0
C312 C 0.99779 0.11079 0.59851 0.0
C313 C 0.98252 0.1278 0.64303 0.0
C314 C 0.96261 0.08671 0.62465 0.0
C315 C 0.97944 0.06814 0.57945 0.0
H316 H 0.95955 0.94943 0.38491 0.0
H317 H 0.98116 0.95437 0.43993 0.0
H318 H 0.98807 0.94071 0.34526 0.0
H319 H 0.06177 0.94398 0.41561 0.0
H320 H 0.01299 0.14709 0.6171 0.0
H321 H 0.011 0.11293 0.58043 0.0
H322 H 0.98393 0.14315 0.65889 0.0
H323 H 0.94888 0.06961 0.62699 0.0
C324 C 0.57929 0.54823 0.01948 0.0
C325 C 0.56297 0.59514 0.00502 0.0
C326 C 0.55937 0.5682 0.01923 0.0
C327 C 0.58604 0.60135 0.98995 0.0
C328 C 0.60276 0.5545 0.005 0.0
C329 C 0.60588 0.5811 0.98995 0.0
N330 N 0.57537 0.52243 0.03339 0.0
C331 C 0.59461 0.50225 0.03505 0.0
C332 C 0.62233 0.53378 0.00593 0.0
C333 C 0.61831 0.50759 0.0212 0.0
Gd334 Gd 0.47433 0.48847 0.99119 0.0
Gd335 Gd 0.53488 0.51529 0.0554 0.0
N336 N 0.53698 0.56151 0.03361 0.0
C337 C 0.54365 0.61521 0.0071 0.0
C338 C 0.5198 0.58155 0.03847 0.0
C339 C 0.52233 0.60848 0.02452 0.0
H340 H 0.50466 0.57719 0.05393 0.0
H341 H 0.50817 0.62413 0.02779 0.0
H342 H 0.48784 0.42271 0.02116 0.0
H343 H 0.59144 0.48201 0.04681 0.0
H344 H 0.46259 0.38275 0.0418 0.0
H345 H 0.54569 0.63613 0.99653 0.0
H346 H 0.58895 0.62187 0.97863 0.0
H347 H 0.42682 0.53807 0.96365 0.0
H348 H 0.64064 0.5378 0.99504 0.0
H349 H 0.63342 0.49152 0.0222 0.0
H350 H 0.36907 0.41576 0.03104 0.0
H351 H 0.62366 0.58626 0.97845 0.0
H352 H 0.3488 0.50891 0.9854 0.0
H353 H 0.37702 0.54613 0.96342 0.0
N354 N 0.42706 0.49766 0.98779 0.0
C355 C 0.41182 0.47668 0.9991 0.0
C356 C 0.41484 0.52214 0.97439 0.0
C357 C 0.37072 0.50548 0.9861 0.0
C358 C 0.38659 0.52657 0.97374 0.0
C359 C 0.38321 0.48004 0.99862 0.0
H360 H 0.34599 0.46016 0.01032 0.0
N361 N 0.4526 0.44925 0.01168 0.0
C362 C 0.42483 0.4516 0.0108 0.0
C363 C 0.42345 0.40435 0.03382 0.0
C364 C 0.40958 0.42929 0.0223 0.0
C365 C 0.46606 0.42475 0.02174 0.0
C366 C 0.45177 0.40204 0.03332 0.0
O367 O 0.53914 0.51206 0.00397 0.0
O368 O 0.49689 0.52667 0.97726 0.0
O369 O 0.4889 0.46872 0.9547 0.0
O370 O 0.44842 0.48825 0.94496 0.0
O371 O 0.49064 0.53 0.05282 0.0
O372 O 0.47363 0.5323 0.99932 0.0
O373 O 0.46914 0.4771 0.04296 0.0
O374 O 0.51052 0.48133 0.07756 0.0
O375 O 0.53874 0.53556 0.09771 0.0
O376 O 0.56952 0.50571 0.09427 0.0
O377 O 0.51467 0.46401 0.00394 0.0
O378 O 0.53917 0.47039 0.05388 0.0
C379 C 0.52374 0.52587 0.97904 0.0
C380 C 0.47246 0.53938 0.02747 0.0
C381 C 0.47166 0.48717 0.90135 0.0
C382 C 0.46949 0.48226 0.84508 0.0
C383 C 0.48615 0.52414 0.86474 0.0
C384 C 0.48159 0.51359 0.89536 0.0
C385 C 0.48014 0.50863 0.8397 0.0
C386 C 0.46566 0.47158 0.87625 0.0
C387 C 0.46692 0.47572 0.93345 0.0
C388 C 0.38112 0.43263 0.02214 0.0
C389 C 0.36798 0.45794 0.01039 0.0
H390 H 0.41248 0.38674 0.04293 0.0
C391 C 0.48493 0.47288 0.07132 0.0
C392 C 0.5338 0.45674 0.02932 0.0
C393 C 0.58406 0.54204 0.12334 0.0
C394 C 0.60371 0.56826 0.16567 0.0
C395 C 0.62409 0.57006 0.11737 0.0
C396 C 0.60439 0.55205 0.10546 0.0
C397 C 0.62377 0.5782 0.14721 0.0
C398 C 0.58389 0.55008 0.1535 0.0
C399 C 0.56238 0.52391 0.11065 0.0
H400 H 0.49395 0.54454 0.86029 0.0
H401 H 0.48548 0.52608 0.91427 0.0
H402 H 0.48311 0.51756 0.81598 0.0
H403 H 0.45794 0.45114 0.88105 0.0
H404 H 0.63971 0.57771 0.10344 0.0
H405 H 0.60512 0.546 0.08236 0.0
H406 H 0.63946 0.59198 0.15607 0.0
H407 H 0.56806 0.54253 0.16723 0.0
H408 H 0.25493 0.18333 0.50316 0.0
H409 H 0.21834 0.15097 0.51137 0.0
H410 H 0.17231 0.18286 0.41893 0.0
H411 H 0.20827 0.21636 0.41116 0.0
H412 H 0.13957 0.17675 0.4639 0.0
H413 H 0.20128 0.08192 0.47315 0.0
H414 H 0.21632 0.1037 0.50122 0.0
H415 H 0.21372 0.11495 0.45899 0.0
C416 C 0.23698 0.18364 0.48459 0.0
C417 C 0.23459 0.20259 0.45649 0.0
C418 C 0.21622 0.16479 0.48915 0.0
C419 C 0.19277 0.1641 0.46554 0.0
C420 C 0.19033 0.18285 0.43739 0.0
H421 H 0.07361 0.03293 0.46955 0.0
H422 H 0.10939 0.06485 0.45618 0.0
C423 C 0.21103 0.20186 0.43287 0.0
C424 C 0.17031 0.1446 0.4709 0.0
H425 H 0.15749 0.07713 0.49084 0.0
C426 C 0.14345 0.15494 0.46954 0.0
C427 C 0.17524 0.1161 0.47781 0.0
C428 C 0.20314 0.10347 0.47756 0.0
C429 C 0.12158 0.13767 0.47569 0.0
C430 C 0.12684 0.10931 0.48422 0.0
C431 C 0.15353 0.0989 0.48475 0.0
C432 C 0.10494 0.09005 0.49246 0.0
C433 C 0.09298 0.14997 0.47254 0.0
C434 C 0.09075 0.09332 0.51764 0.0
C435 C 0.07011 0.07519 0.52525 0.0
C436 C 0.06347 0.05315 0.5081 0.0
C437 C 0.07811 0.04964 0.48329 0.0
C438 C 0.09861 0.06789 0.47558 0.0
H439 H 0.09083 0.16996 0.45687 0.0
H440 H 0.07686 0.13623 0.46265 0.0
H441 H 0.08912 0.15341 0.49649 0.0
H442 H 0.09575 0.10983 0.53158 0.0
H443 H 0.05945 0.07844 0.54466 0.0
H444 H 0.28343 0.71122 0.06166 0.0
H445 H 0.31562 0.67237 0.06734 0.0
H446 H 0.36542 0.72024 0.00706 0.0
H447 H 0.3335 0.75912 1.00141 0.0
H448 H 0.32949 0.64789 0.01306 0.0
H449 H 0.42104 0.68602 0.08812 0.0
H450 H 0.38642 0.69935 0.08595 0.0
H451 H 0.40549 0.70952 0.05404 0.0
C452 C 0.30149 0.71356 0.05005 0.0
C453 C 0.30595 0.73818 0.03107 0.0
C454 C 0.31974 0.69135 0.05319 0.0
C455 C 0.34296 0.69355 0.03781 0.0
C456 C 0.34777 0.71825 0.01939 0.0
H457 H 0.44776 0.5785 0.98003 0.0
H458 H 0.41509 0.61439 0.98432 0.0
C459 C 0.32943 0.74035 0.01601 0.0
C460 C 0.36142 0.66966 0.0395 0.0
H461 H 0.42809 0.64657 0.0643 0.0
C462 C 0.35098 0.64745 0.02451 0.0
C463 C 0.38938 0.66916 0.0546 0.0
C464 C 0.40131 0.69216 0.07185 0.0
C465 C 0.36806 0.62509 0.02332 0.0
C466 C 0.39624 0.62504 0.03746 0.0
C467 C 0.40648 0.64681 0.05336 0.0
C468 C 0.41558 0.60292 0.035 0.0
C469 C 0.35601 0.60173 0.00676 0.0
C470 C 0.42687 0.58483 0.06219 0.0
C471 C 0.44521 0.56399 0.05972 0.0
C472 C 0.45267 0.56109 0.03004 0.0
C473 C 0.44172 0.57963 0.00301 0.0
C474 C 0.42322 0.60027 0.00544 0.0
H475 H 0.33303 0.60229 0.00273 0.0
H476 H 0.36286 0.60289 0.98319 0.0
H477 H 0.36347 0.5819 0.02098 0.0
H478 H 0.42132 0.58672 0.08524 0.0
H479 H 0.45349 0.55012 0.08099 0.0
H480 H 0.80487 0.77849 0.64793 0.0
H481 H 0.84065 0.81267 0.64133 0.0
H482 H 0.78849 0.85413 0.55756 0.0
H483 H 0.75262 0.82039 0.56422 0.0
H484 H 0.86678 0.82441 0.58612 0.0
H485 H 0.81373 0.91573 0.61112 0.0
H486 H 0.80308 0.88143 0.62315 0.0
H487 H 0.79338 0.89736 0.58248 0.0
C488 C 0.80086 0.79517 0.62846 0.0
C489 C 0.77594 0.79674 0.60658 0.0
C490 C 0.82136 0.81457 0.62461 0.0
C491 C 0.81711 0.83606 0.59913 0.0
C492 C 0.79205 0.83795 0.57765 0.0
H493 H 0.92984 0.93809 0.50373 0.0
H494 H 0.89554 0.90511 0.51958 0.0
C495 C 0.77167 0.81851 0.58133 0.0
C496 C 0.83935 0.85573 0.59379 0.0
H497 H 0.85392 0.92358 0.58665 0.0
C498 C 0.86409 0.84606 0.5865 0.0
C499 C 0.83586 0.88394 0.59455 0.0
C500 C 0.81019 0.89528 0.60353 0.0
C501 C 0.88506 0.86399 0.57893 0.0
C502 C 0.88108 0.89228 0.57843 0.0
C503 C 0.85676 0.90188 0.58674 0.0
C504 C 0.90184 0.91224 0.56893 0.0
C505 C 0.91138 0.8526 0.57153 0.0
C506 C 0.91635 0.92749 0.59129 0.0
C507 C 0.93611 0.94615 0.58237 0.0
C508 C 0.94154 0.95002 0.55085 0.0
C509 C 0.9265 0.93515 0.52833 0.0
C510 C 0.90689 0.91635 0.53733 0.0
H511 H 0.91356 0.83025 0.57914 0.0
H512 H 0.91128 0.85665 0.54537 0.0
H513 H 0.92971 0.86265 0.58353 0.0
H514 H 0.9126 0.9247 0.61575 0.0
H515 H 0.94735 0.95736 0.60024 0.0
H516 H 0.67605 0.24538 0.99384 0.0
H517 H 0.64163 0.28211 0.99022 0.0
H518 H 0.69721 0.3206 0.05888 0.0
H519 H 0.73157 0.28409 0.06269 0.0
H520 H 0.62144 0.29886 0.05092 0.0
H521 H 0.66944 0.38 0.97528 0.0
H522 H 0.67505 0.34414 0.9742 0.0
H523 H 0.69194 0.35968 0.00743 0.0
C524 C 0.681 0.26185 0.00786 0.0
C525 C 0.70643 0.26186 0.02862 0.0
C526 C 0.66132 0.28268 0.0059 0.0
C527 C 0.66699 0.304 0.02425 0.0
C528 C 0.69254 0.30433 0.04448 0.0
H529 H 0.57062 0.42958 0.07893 0.0
H530 H 0.60163 0.39141 0.07715 0.0
C531 C 0.71206 0.28343 0.04672 0.0
C532 C 0.64599 0.32557 0.02321 0.0
H533 H 0.63137 0.39309 0.99764 0.0
C534 C 0.62345 0.31943 0.03913 0.0
C535 C 0.64879 0.35229 0.00776 0.0
C536 C 0.67249 0.35959 0.98998 0.0
C537 C 0.60385 0.33962 0.04056 0.0
C538 C 0.60697 0.36648 0.0257 0.0
C539 C 0.62917 0.37246 0.00915 0.0
C540 C 0.58742 0.38874 0.02714 0.0
C541 C 0.57991 0.3322 0.05791 0.0
C542 C 0.56923 0.39979 0.9996 0.0
C543 C 0.55137 0.42144 1.00054 0.0
C544 C 0.55163 0.43271 0.029 0.0
C545 C 0.56985 0.42143 0.05663 0.0
C546 C 0.58754 0.39959 0.0557 0.0
H547 H 0.57802 0.30979 0.06377 0.0
H548 H 0.58294 0.34118 0.08054 0.0
H549 H 0.56022 0.34072 0.04322 0.0
H550 H 0.56895 0.39172 0.97732 0.0
H551 H 0.53777 0.42965 0.97874 0.0
H552 H 0.15611 0.83176 0.18785 0.0
H553 H 0.13315 0.84602 0.22967 0.0
H554 H 0.14023 0.9302 0.19038 0.0
H555 H 0.16348 0.91615 0.14868 0.0
H556 H 0.1551 0.91661 0.26075 0.0
H557 H 0.05225 0.87943 0.20994 0.0
H558 H 0.08076 0.85554 0.21568 0.0
H559 H 0.07988 0.88565 0.18687 0.0
C560 C 0.15309 0.85332 0.18835 0.0
C561 C 0.16149 0.87283 0.16487 0.0
C562 C 0.1398 0.86141 0.21209 0.0
C563 C 0.13477 0.88913 0.21285 0.0
C564 C 0.14382 0.9087 0.19007 0.0
H565 H 0.02055 0.96154 0.3135 0.0
H566 H 0.04757 0.94975 0.27399 0.0
C567 C 0.15695 0.90063 0.16619 0.0
C568 C 0.11945 0.89771 0.23695 0.0
H569 H 0.05579 0.89603 0.25953 0.0
C570 C 0.1334 0.91214 0.26055 0.0
C571 C 0.09107 0.89211 0.2363 0.0
C572 C 0.07493 0.87752 0.21074 0.0
C573 C 0.11975 0.92074 0.28391 0.0
C574 C 0.09151 0.91462 0.28366 0.0
C575 C 0.07749 0.90056 0.25974 0.0
C576 C 0.07603 0.92258 0.30798 0.0
C577 C 0.1355 0.93662 0.30843 0.0
C578 C 0.08304 0.91113 0.34016 0.0
C579 C 0.06749 0.9176 0.36277 0.0
C580 C 0.04455 0.93563 0.3536 0.0
C581 C 0.03782 0.94729 0.32133 0.0
C582 C 0.05332 0.94072 0.29874 0.0
H583 H 0.15494 0.94489 0.30111 0.0
H584 H 0.12261 0.95376 0.31248 0.0
H585 H 0.14099 0.92298 0.33147 0.0
H586 H 0.10019 0.8967 0.34767 0.0
H587 H 0.073 0.90788 0.38727 0.0
H588 H 0.65926 0.63226 0.75755 0.0
H589 H 0.64295 0.61338 0.80701 0.0
H590 H 0.55988 0.61151 0.75519 0.0
H591 H 0.57585 0.63065 0.7058 0.0
H592 H 0.6017 0.63297 0.83828 0.0
H593 H 0.57502 0.53247 0.79947 0.0
H594 H 0.59645 0.55642 0.77932 0.0
H595 H 0.55948 0.56112 0.77205 0.0
C596 C 0.63747 0.6281 0.75671 0.0
C597 C 0.61893 0.63275 0.72758 0.0
C598 C 0.62821 0.6172 0.78499 0.0
C599 C 0.6003 0.61059 0.78467 0.0
C600 C 0.58162 0.61587 0.75585 0.0
H601 H 0.50633 0.57251 0.93925 0.0
H602 H 0.52647 0.59389 0.89332 0.0
C603 C 0.59082 0.62678 0.72762 0.0
C604 C 0.59065 0.59807 0.81439 0.0
H605 H 0.56041 0.54119 0.84733 0.0
C606 C 0.59278 0.61287 0.84033 0.0
C607 C 0.57929 0.5717 0.81715 0.0
C608 C 0.57761 0.55434 0.79066 0.0
C609 C 0.58324 0.60223 0.86868 0.0
C610 C 0.57116 0.57623 0.87101 0.0
C611 C 0.56955 0.5612 0.84536 0.0
C612 C 0.55989 0.56422 0.8998 0.0
C613 C 0.58641 0.61867 0.89611 0.0
C614 C 0.57193 0.54041 0.91852 0.0
C615 C 0.56043 0.52817 0.94465 0.0
C616 C 0.53651 0.53938 0.95223 0.0
C617 C 0.52468 0.5634 0.93373 0.0
C618 C 0.53627 0.57571 0.9077 0.0
H619 H 0.60076 0.63586 0.89287 0.0
H620 H 0.56592 0.62716 0.89794 0.0
H621 H 0.59421 0.60551 0.91898 0.0
H622 H 0.59012 0.5312 0.91275 0.0
H623 H 0.56992 0.50965 0.95855 0.0
H624 H 0.87623 0.04872 0.16847 0.0
H625 H 0.89544 0.03063 0.22397 0.0
H626 H 0.89648 0.11184 0.24931 0.0
H627 H 0.87769 0.13011 0.19402 0.0
H628 H 0.94531 0.0438 0.26345 0.0
H629 H 0.85176 0.06815 0.31227 0.0
H630 H 0.85138 0.06765 0.27013 0.0
H631 H 0.86465 0.09656 0.28849 0.0
C632 C 0.88081 0.06275 0.18579 0.0
C633 C 0.87515 0.09084 0.17686 0.0
C634 C 0.89165 0.05237 0.2175 0.0
C635 C 0.89687 0.06985 0.24082 0.0
C636 C 0.89198 0.09793 0.23182 0.0
H637 H 0.98906 0.05602 0.43113 0.0
H638 H 0.96935 0.068 0.37444 0.0
C639 C 0.8812 0.10832 0.2002 0.0
C640 C 0.90748 0.0589 0.27464 0.0
H641 H 0.89254 0.05543 0.35021 0.0
C642 C 0.93371 0.04613 0.28239 0.0
C643 C 0.89213 0.0617 0.29927 0.0
C644 C 0.8633 0.07402 0.29219 0.0
C645 C 0.94539 0.03698 0.31432 0.0
C646 C 0.93048 0.04084 0.33892 0.0
C647 C 0.90394 0.05276 0.33117 0.0
C648 C 0.94249 0.0333 0.37298 0.0
C649 C 0.97365 0.02342 0.32177 0.0
C650 C 0.9336 0.01002 0.39082 0.0
C651 C 0.9448 0.00316 0.42316 0.0
C652 C 0.96483 0.01965 0.43811 0.0
C653 C 0.9735 0.04308 0.42021 0.0
C654 C 0.96244 0.04983 0.38786 0.0
H655 H 0.98091 0.0186 0.29991 0.0
H656 H 0.98874 0.03715 0.33354 0.0
H657 H 0.97337 0.0043 0.33866 0.0
H658 H 0.91809 0.99714 0.37968 0.0
H659 H 0.93761 0.98512 0.43655 0.0
H660 H 0.389 0.39277 0.57741 0.0
H661 H 0.40727 0.41621 0.62274 0.0
H662 H 0.40824 0.34067 0.68655 0.0
H663 H 0.39094 0.31681 0.64116 0.0
H664 H 0.38321 0.42122 0.67503 0.0
H665 H 0.48571 0.36912 0.71251 0.0
H666 H 0.46444 0.36695 0.67431 0.0
H667 H 0.45712 0.34631 0.70982 0.0
C668 C 0.39358 0.381 0.60099 0.0
C669 C 0.38865 0.35286 0.6056 0.0
C670 C 0.40383 0.39449 0.6269 0.0
C671 C 0.40946 0.38013 0.65795 0.0
C672 C 0.40454 0.35206 0.66272 0.0
H673 H 0.42371 0.45102 0.83373 0.0
H674 H 0.40988 0.42581 0.78876 0.0
C675 C 0.39432 0.33852 0.63678 0.0
C676 C 0.41931 0.39484 0.68543 0.0
H677 H 0.47206 0.3975 0.7479 0.0
C678 C 0.40269 0.4161 0.6909 0.0
C679 C 0.44487 0.38833 0.70588 0.0
C680 C 0.46423 0.36661 0.70024 0.0
C681 C 0.41071 0.43077 0.71654 0.0
C682 C 0.43582 0.42365 0.73763 0.0
C683 C 0.45269 0.40271 0.73188 0.0
C684 C 0.44495 0.43789 0.76567 0.0
C685 C 0.39244 0.45404 0.72053 0.0
C686 C 0.46974 0.4523 0.76815 0.0
C687 C 0.47792 0.46647 0.79408 0.0
C688 C 0.46151 0.46635 0.81811 0.0
C689 C 0.43697 0.45136 0.81583 0.0
C690 C 0.42885 0.43719 0.78994 0.0
H691 H 0.37813 0.46141 0.69803 0.0
H692 H 0.37974 0.44701 0.73916 0.0
H693 H 0.40499 0.47139 0.7282 0.0
H694 H 0.48256 0.4529 0.74977 0.0
H695 H 0.49712 0.47747 0.79535 0.0
H696 H 0.62954 0.69071 0.41066 0.0
H697 H 0.61858 0.67194 0.36037 0.0
H698 H 0.62401 0.59058 0.41217 0.0
H699 H 0.63561 0.60918 0.4628 0.0
H700 H 0.65723 0.63248 0.34341 0.0
H701 H 0.55017 0.59439 0.34362 0.0
H702 H 0.56381 0.621 0.36633 0.0
H703 H 0.57515 0.58636 0.37965 0.0
C704 C 0.62829 0.66881 0.41144 0.0
C705 C 0.63379 0.65143 0.44076 0.0
C706 C 0.62185 0.65815 0.38268 0.0
C707 C 0.62042 0.62992 0.3826 0.0
C708 C 0.6247 0.61246 0.4118 0.0
H709 H 0.59788 0.5363 0.22171 0.0
H710 H 0.60129 0.55029 0.27492 0.0
C711 C 0.63128 0.62313 0.44069 0.0
C712 C 0.61698 0.61893 0.35179 0.0
H713 H 0.57158 0.58723 0.29991 0.0
C714 C 0.63852 0.62255 0.33388 0.0
C715 C 0.5927 0.60574 0.33971 0.0
C716 C 0.56897 0.60165 0.35811 0.0
C717 C 0.63642 0.61346 0.30403 0.0
C718 C 0.61174 0.60108 0.29131 0.0
C719 C 0.59038 0.5969 0.30958 0.0
C720 C 0.60772 0.59284 0.25886 0.0
C721 C 0.66086 0.61689 0.28662 0.0
C722 C 0.6094 0.61223 0.23206 0.0
C723 C 0.60763 0.60429 0.20177 0.0
C724 C 0.60374 0.57684 0.19756 0.0
C725 C 0.60082 0.55761 0.2242 0.0
C726 C 0.60282 0.56556 0.2546 0.0
H727 H 0.68044 0.61897 0.30329 0.0
H728 H 0.66316 0.59935 0.27367 0.0
H729 H 0.65773 0.63568 0.26893 0.0
H730 H 0.61241 0.63352 0.23463 0.0
H731 H 0.60937 0.61966 0.18161 0.0
H732 H 0.80001 0.12547 0.85241 0.0
H733 H 0.8191 0.1146 0.80618 0.0
H734 H 0.9017 0.11732 0.85913 0.0
H735 H 0.88285 0.12808 0.9053 0.0
H736 H 0.8532 0.14477 0.77175 0.0
H737 H 0.90468 0.04595 0.82421 0.0
H738 H 0.87972 0.06177 0.84287 0.0
H739 H 0.9152 0.07231 0.84813 0.0
C740 C 0.82224 0.12368 0.85422 0.0
C741 C 0.8399 0.1275 0.88264 0.0
C742 C 0.83311 0.11734 0.82783 0.0
C743 C 0.86182 0.1146 0.82935 0.0
C744 C 0.87946 0.11851 0.85765 0.0
H745 H 0.9821 0.11142 0.70867 0.0
H746 H 0.95452 0.1109 0.7513 0.0
C747 C 0.86864 0.12473 0.88405 0.0
C748 C 0.87354 0.10929 0.80089 0.0
H749 H 0.91963 0.06851 0.77665 0.0
C750 C 0.86735 0.12783 0.77262 0.0
C751 C 0.89191 0.0871 0.80197 0.0
C752 C 0.89805 0.0655 0.83083 0.0
C753 C 0.88016 0.12561 0.74604 0.0
C754 C 0.89945 0.10413 0.7477 0.0
C755 C 0.90488 0.08502 0.7755 0.0
C756 C 0.91596 0.10256 0.72193 0.0
C757 C 0.87398 0.14698 0.71694 0.0
C758 C 0.9035 0.09745 0.69141 0.0
C759 C 0.91927 0.09773 0.66689 0.0
C760 C 0.94769 0.1033 0.67252 0.0
C761 C 0.96017 0.10752 0.70343 0.0
C762 C 0.94448 0.10707 0.72787 0.0
H763 H 0.8618 0.1645 0.72134 0.0
H764 H 0.89349 0.15468 0.70929 0.0
H765 H 0.86192 0.13776 0.69694 0.0
H766 H 0.88155 0.0936 0.68646 0.0
H767 H 0.9091 0.09444 0.64332 0.0
H768 H 0.39828 0.39928 0.33238 0.0
H769 H 0.41301 0.41738 0.28231 0.0
H770 H 0.39746 0.34006 0.24804 0.0
H771 H 0.38441 0.32105 0.29928 0.0
H772 H 0.44503 0.3592 0.23441 0.0
H773 H 0.36709 0.44243 0.19777 0.0
H774 H 0.38626 0.44507 0.23658 0.0
H775 H 0.36492 0.41589 0.2306 0.0
C776 C 0.3982 0.38592 0.31442 0.0
C777 C 0.39029 0.35856 0.32013 0.0
C778 C 0.40618 0.39652 0.28545 0.0
C779 C 0.4058 0.38032 0.26103 0.0
C780 C 0.39771 0.35306 0.26642 0.0
H781 H 0.43058 0.46075 0.07332 0.0
H782 H 0.41111 0.43499 0.11677 0.0
C783 C 0.39001 0.34227 0.29566 0.0
C784 C 0.41508 0.39167 0.23058 0.0
H785 H 0.4075 0.44695 0.1724 0.0
C786 C 0.43657 0.37821 0.2206 0.0
C787 C 0.40372 0.41619 0.21209 0.0
C788 C 0.37902 0.43053 0.21964 0.0
C789 C 0.44772 0.38913 0.19346 0.0
C790 C 0.43776 0.4147 0.17642 0.0
C791 C 0.41554 0.42759 0.18568 0.0
C792 C 0.45014 0.42867 0.14915 0.0
C793 C 0.46984 0.37293 0.18323 0.0
C794 C 0.47861 0.43388 0.15268 0.0
C795 C 0.48998 0.44792 0.12734 0.0
C796 C 0.47304 0.45751 0.09808 0.0
C797 C 0.44445 0.45281 0.09493 0.0
C798 C 0.43319 0.43836 0.12002 0.0
H799 H 0.46821 0.35078 0.19133 0.0
H800 H 0.46856 0.37615 0.15685 0.0
H801 H 0.49048 0.3794 0.19427 0.0
H802 H 0.49205 0.42751 0.17521 0.0
H803 H 0.51203 0.45142 0.13085 0.0
H804 H 0.17982 0.91271 0.85551 0.0
H805 H 0.15898 0.92932 0.80017 0.0
H806 H 0.07789 0.92478 0.82691 0.0
H807 H 0.09849 0.90818 0.88216 0.0
H808 H 0.12079 0.90405 0.75886 0.0
H809 H 0.07803 0.00209 0.77986 0.0
H810 H 0.10336 0.98196 0.80917 0.0
H811 H 0.06745 0.97303 0.80467 0.0
C812 C 0.15754 0.91524 0.84958 0.0
C813 C 0.14082 0.9093 0.87328 0.0
C814 C 0.14569 0.92481 0.818 0.0
C815 C 0.11694 0.92871 0.80955 0.0
C816 C 0.10018 0.92258 0.83307 0.0
H817 H 1.00061 0.9716 0.63483 0.0
H818 H 0.02401 0.95673 0.68962 0.0
C819 C 0.11199 0.91309 0.86464 0.0
C820 C 0.10433 0.93837 0.77596 0.0
H821 H 0.06274 0.98837 0.7288 0.0
C822 C 0.10831 0.92261 0.75221 0.0
C823 C 0.08804 0.96259 0.76738 0.0
C824 C 0.08414 0.98106 0.79154 0.0
C825 C 0.09581 0.93008 0.72023 0.0
C826 C 0.0792 0.95404 0.71181 0.0
C827 C 0.07543 0.96994 0.73544 0.0
C828 C 0.06527 0.96283 0.6786 0.0
C829 C 0.09973 0.91191 0.69579 0.0
C830 C 0.08078 0.97151 0.65444 0.0
C831 C 0.06747 0.98024 0.62323 0.0
C832 C 0.03848 0.98022 0.61564 0.0
C833 C 0.023 0.9718 0.63998 0.0
C834 C 0.03631 0.96323 0.67122 0.0
H835 H 0.10913 0.89182 0.70707 0.0
H836 H 0.07958 0.90855 0.68081 0.0
H837 H 0.11353 0.92195 0.67978 0.0
H838 H 0.10315 0.97186 0.65983 0.0
H839 H 0.07984 0.98741 0.60518 0.0
loop_
_geom_bond_atom_site_label_1
_geom_bond_atom_site_label_2
_geom_bond_distance
_geom_bond_site_symmetry_2
_ccdc_geom_bond_type
C0 C1 1.391 . S
C0 C4 1.391 . S
C0 H42 0.948 . S
C1 C0 1.391 . S
C1 C2 1.391 . S
C2 C1 1.391 . S
C2 H58 0.947 . S
C2 C59 1.392 . S
C3 C4 1.391 . S
C3 C7 1.397 . S
C3 C59 1.419 . S
C4 C0 1.391 . S
C4 C3 1.391 . S
C4 C5 1.399 . S
C5 C4 1.399 . S
C5 C8 1.396 . S
C5 C17 1.453 . S
C5 C18 1.684 . S
H6 C30 0.948 . S
C7 C3 1.397 . S
C7 C8 1.394 . S
C7 C26 1.723 1_556 S
C8 C5 1.396 . S
C8 C7 1.394 . S
C8 C38 1.723 1_556 S
H9 C32 0.947 . S
H10 C33 0.948 . S
H11 C39 0.982 . S
H12 C40 0.979 . S
H13 C40 0.980 . S
H14 C40 0.983 . S
H15 C39 0.979 . S
H16 C39 0.977 . S
C17 C5 1.453 . S
C17 H46 0.982 . S
C17 H47 0.979 . S
C17 H48 0.977 . S
C18 C5 1.684 . S
C18 H43 0.979 . S
C18 H44 0.980 . S
C18 H45 0.983 . S
C19 C20 1.391 . S
C19 C24 1.391 . S
C19 H49 0.948 . S
C20 C19 1.391 . S
C20 C21 1.391 . S
C21 C20 1.391 . S
C21 C22 1.392 . S
C21 H50 0.947 . S
C22 C21 1.392 . S
C22 C23 1.419 . S
C22 H51 0.948 . S
C23 C22 1.419 . S
C23 C24 1.391 . S
C23 C27 1.397 . S
C24 C19 1.391 . S
C24 C23 1.391 . S
C24 C25 1.399 . S
C25 C24 1.399 . S
C25 C26 1.396 . S
C25 C28 1.453 . S
C25 C29 1.684 . S
C26 C7 1.723 1_554 S
C26 C25 1.396 . S
C26 C27 1.394 . S
C27 C23 1.397 . S
C27 C26 1.394 . S
C27 C37 1.723 . S
C28 C25 1.453 . S
C28 H52 0.982 . S
C28 H53 0.979 . S
C28 H54 0.977 . S
C29 C25 1.684 . S
C29 H55 0.979 . S
C29 H56 0.976 1_554 S
C29 H57 0.983 . S
C30 H6 0.948 . S
C30 C31 1.391 . S
C30 C35 1.391 . S
C31 C30 1.391 . S
C31 C32 1.391 1_554 S
C32 H9 0.947 . S
C32 C31 1.391 1_556 S
C32 C33 1.392 . S
C33 H10 0.948 . S
C33 C32 1.392 . S
C33 C34 1.419 1_556 S
C34 C33 1.419 1_554 S
C34 C35 1.391 . S
C34 C38 1.397 . S
C35 C30 1.391 . S
C35 C34 1.391 . S
C35 C36 1.399 . S
C36 C35 1.399 . S
C36 C37 1.396 . S
C36 C39 1.453 . S
C36 C40 1.684 . S
C37 C27 1.723 . S
C37 C36 1.396 . S
C37 C38 1.394 . S
C38 C8 1.723 1_554 S
C38 C34 1.397 . S
C38 C37 1.394 . S
C39 H11 0.982 . S
C39 H15 0.979 . S
C39 H16 0.977 . S
C39 C36 1.453 . S
C40 H12 0.979 . S
C40 H13 0.980 . S
C40 H14 0.983 . S
C40 C36 1.684 . S
H41 C59 0.948 . S
H42 C0 0.948 . S
H43 C18 0.979 . S
H44 C18 0.980 . S
H45 C18 0.983 . S
H46 C17 0.982 . S
H47 C17 0.979 . S
H48 C17 0.977 . S
H49 C19 0.948 . S
H50 C21 0.947 . S
H51 C22 0.948 . S
H52 C28 0.982 . S
H53 C28 0.979 . S
H54 C28 0.977 . S
H55 C29 0.979 . S
H56 C29 0.976 1_556 S
H57 C29 0.983 . S
H58 C2 0.947 . S
C59 C2 1.392 . S
C59 C3 1.419 . S
C59 H41 0.948 . S
C60 C61 1.391 . S
C60 C64 1.391 . S
C60 H102 0.948 . S
C61 C60 1.391 . S
C61 C62 1.391 . S
C62 C61 1.391 . S
C62 H118 0.947 . S
C62 C119 1.392 . S
C63 C64 1.391 . S
C63 C67 1.397 . S
C63 C119 1.419 . S
C64 C60 1.391 . S
C64 C63 1.391 . S
C64 C65 1.399 . S
C65 C64 1.399 . S
C65 C68 1.396 . S
C65 C77 1.453 . S
C65 C78 1.684 . S
H66 C90 0.948 . S
C67 C63 1.397 . S
C67 C68 1.394 . S
C67 C86 1.723 . S
C68 C65 1.396 . S
C68 C67 1.394 . S
C68 C98 1.723 . S
H69 C92 0.947 . S
H70 C93 0.948 . S
H71 C99 0.982 . S
H72 C100 0.979 . S
H73 C100 0.980 . S
H74 C100 0.983 . S
H75 C99 0.979 . S
H76 C99 0.977 . S
C77 C65 1.453 . S
C77 H106 0.982 . S
C77 H107 0.979 . S
C77 H108 0.977 . S
C78 C65 1.684 . S
C78 H103 0.979 . S
C78 H104 0.980 . S
C78 H105 0.983 . S
C79 C80 1.391 . S
C79 C84 1.391 . S
C79 H109 0.948 . S
C80 C79 1.391 . S
C80 C81 1.391 . S
C81 C80 1.391 . S
C81 C82 1.392 . S
C81 H110 0.947 . S
C82 C81 1.392 . S
C82 C83 1.419 . S
C82 H111 0.948 . S
C83 C82 1.419 . S
C83 C84 1.391 . S
C83 C87 1.397 . S
C84 C79 1.391 . S
C84 C83 1.391 . S
C84 C85 1.399 . S
C85 C84 1.399 . S
C85 C86 1.396 . S
C85 C88 1.453 . S
C85 C89 1.684 . S
C86 C67 1.723 . S
C86 C85 1.396 . S
C86 C87 1.394 . S
C87 C83 1.397 . S
C87 C86 1.394 . S
C87 C97 1.723 . S
C88 C85 1.453 . S
C88 H112 0.982 . S
C88 H113 0.979 . S
C88 H114 0.977 . S
C89 C85 1.684 . S
C89 H115 0.979 . S
C89 H116 0.980 . S
C89 H117 0.983 . S
C90 H66 0.948 . S
C90 C91 1.391 . S
C90 C95 1.391 . S
C91 C90 1.391 . S
C91 C92 1.391 . S
C92 H69 0.947 . S
C92 C91 1.391 . S
C92 C93 1.392 . S
C93 H70 0.948 . S
C93 C92 1.392 . S
C93 C94 1.419 . S
C94 C93 1.419 . S
C94 C95 1.391 . S
C94 C98 1.397 . S
C95 C90 1.391 . S
C95 C94 1.391 . S
C95 C96 1.399 . S
C96 C95 1.399 . S
C96 C97 1.396 . S
C96 C99 1.453 . S
C96 C100 1.684 . S
C97 C87 1.723 . S
C97 C96 1.396 . S
C97 C98 1.394 . S
C98 C68 1.723 . S
C98 C94 1.397 . S
C98 C97 1.394 . S
C99 H71 0.982 . S
C99 H75 0.979 . S
C99 H76 0.977 . S
C99 C96 1.453 . S
C100 H72 0.979 . S
C100 H73 0.980 . S
C100 H74 0.983 . S
C100 C96 1.684 . S
H101 C119 0.948 . S
H102 C60 0.948 . S
H103 C78 0.979 . S
H104 C78 0.980 . S
H105 C78 0.983 . S
H106 C77 0.982 . S
H107 C77 0.979 . S
H108 C77 0.977 . S
H109 C79 0.948 . S
H110 C81 0.947 . S
H111 C82 0.948 . S
H112 C88 0.982 . S
H113 C88 0.979 . S
H114 C88 0.977 . S
H115 C89 0.979 . S
H116 C89 0.980 . S
H117 C89 0.983 . S
H118 C62 0.947 . S
C119 C62 1.392 . S
C119 C63 1.419 . S
C119 H101 0.948 . S
C120 C121 1.391 . S
C120 C124 1.391 . S
C120 H162 0.948 . S
C121 C120 1.391 . S
C121 C122 1.391 . S
C122 C121 1.391 . S
C122 H178 0.947 . S
C122 C179 1.392 . S
C123 C124 1.391 . S
C123 C127 1.397 . S
C123 C179 1.419 . S
C124 C120 1.391 . S
C124 C123 1.391 . S
C124 C125 1.399 . S
C125 C124 1.399 . S
C125 C128 1.396 . S
C125 C137 1.453 . S
C125 C138 1.684 . S
H126 C150 0.948 . S
C127 C123 1.397 . S
C127 C128 1.394 . S
C127 C146 1.723 . S
C128 C125 1.396 . S
C128 C127 1.394 . S
C128 C158 1.723 . S
H129 C152 0.947 . S
H130 C153 0.948 . S
H131 C159 0.982 . S
H132 C160 0.979 . S
H133 C160 0.980 . S
H134 C160 0.983 . S
H135 C159 0.979 . S
H136 C159 0.977 . S
C137 C125 1.453 . S
C137 H166 0.982 . S
C137 H167 0.979 . S
C137 H168 0.977 . S
C138 C125 1.684 . S
C138 H163 0.979 . S
C138 H164 0.980 . S
C138 H165 0.983 . S
C139 C140 1.391 . S
C139 C144 1.391 . S
C139 H169 0.948 . S
C140 C139 1.391 . S
C140 C141 1.391 . S
C141 C140 1.391 . S
C141 C142 1.392 . S
C141 H170 0.947 . S
C142 C141 1.392 . S
C142 C143 1.419 . S
C142 H171 0.948 . S
C143 C142 1.419 . S
C143 C144 1.391 . S
C143 C147 1.397 . S
C144 C139 1.391 . S
C144 C143 1.391 . S
C144 C145 1.399 1_556 S
C145 C144 1.399 1_554 S
C145 C146 1.396 . S
C145 C148 1.453 . S
C145 C149 1.684 . S
C146 C127 1.723 . S
C146 C145 1.396 . S
C146 C147 1.394 1_554 S
C147 C143 1.397 . S
C147 C146 1.394 1_556 S
C147 C157 1.723 . S
C148 C145 1.453 . S
C148 H172 0.982 . S
C148 H173 0.979 . S
C148 H174 0.977 . S
C149 C145 1.684 . S
C149 H175 0.979 . S
C149 H176 0.980 . S
C149 H177 0.983 . S
C150 H126 0.948 . S
C150 C151 1.391 1_556 S
C150 C155 1.391 . S
C151 C150 1.391 1_554 S
C151 C152 1.391 . S
C152 H129 0.947 . S
C152 C151 1.391 . S
C152 C153 1.392 . S
C153 H130 0.948 . S
C153 C152 1.392 . S
C153 C154 1.419 . S
C154 C153 1.419 . S
C154 C155 1.391 1_554 S
C154 C158 1.397 . S
C155 C150 1.391 . S
C155 C154 1.391 1_556 S
C155 C156 1.399 . S
C156 C155 1.399 . S
C156 C157 1.396 . S
C156 C159 1.453 . S
C156 C160 1.684 . S
C157 C147 1.723 . S
C157 C156 1.396 . S
C157 C158 1.394 1_556 S
C158 C128 1.723 . S
C158 C154 1.397 . S
C158 C157 1.394 1_554 S
C159 H131 0.982 . S
C159 H135 0.979 . S
C159 H136 0.977 . S
C159 C156 1.453 . S
C160 H132 0.979 . S
C160 H133 0.980 . S
C160 H134 0.983 . S
C160 C156 1.684 . S
H161 C179 0.948 . S
H162 C120 0.948 . S
H163 C138 0.979 . S
H164 C138 0.980 . S
H165 C138 0.983 . S
H166 C137 0.982 . S
H167 C137 0.979 . S
H168 C137 0.977 . S
H169 C139 0.948 . S
H170 C141 0.947 . S
H171 C142 0.948 . S
H172 C148 0.982 . S
H173 C148 0.979 . S
H174 C148 0.977 . S
H175 C149 0.979 . S
H176 C149 0.980 . S
H177 C149 0.983 . S
H178 C122 0.947 . S
C179 C122 1.392 . S
C179 C123 1.419 . S
C179 H161 0.948 . S
C180 C181 1.391 . S
C180 C184 1.391 . S
C180 H222 0.948 . S
C181 C180 1.391 . S
C181 C182 1.391 . S
C182 C181 1.391 . S
C182 H238 0.947 . S
C182 C239 1.392 . S
C183 C184 1.391 . S
C183 C187 1.397 . S
C183 C239 1.419 . S
C184 C180 1.391 . S
C184 C183 1.391 . S
C184 C185 1.399 . S
C185 C184 1.399 . S
C185 C188 1.396 . S
C185 C197 1.453 . S
C185 C198 1.684 . S
H186 C210 0.948 . S
C187 C183 1.397 . S
C187 C188 1.394 . S
C187 C206 1.723 . S
C188 C185 1.396 . S
C188 C187 1.394 . S
C188 C218 1.723 . S
H189 C212 0.947 . S
H190 C213 0.948 . S
H191 C219 0.982 . S
H192 C220 0.979 . S
H193 C220 0.980 . S
H194 C220 0.983 . S
H195 C219 0.979 . S
H196 C219 0.977 . S
C197 C185 1.453 . S
C197 H226 0.982 . S
C197 H227 0.979 . S
C197 H228 0.977 . S
C198 C185 1.684 . S
C198 H223 0.979 . S
C198 H224 0.980 . S
C198 H225 0.983 . S
C199 C200 1.391 . S
C199 C204 1.391 . S
C199 H229 0.948 . S
C200 C199 1.391 . S
C200 C201 1.391 . S
C201 C200 1.391 . S
C201 C202 1.392 . S
C201 H230 0.947 . S
C202 C201 1.392 . S
C202 C203 1.419 . S
C202 H231 0.948 . S
C203 C202 1.419 . S
C203 C204 1.391 . S
C203 C207 1.397 . S
C204 C199 1.391 . S
C204 C203 1.391 . S
C204 C205 1.399 . S
C205 C204 1.399 . S
C205 C206 1.396 . S
C205 C208 1.453 . S
C205 C209 1.684 . S
C206 C187 1.723 . S
C206 C205 1.396 . S
C206 C207 1.394 . S
C207 C203 1.397 . S
C207 C206 1.394 . S
C207 C217 1.723 . S
C208 C205 1.453 . S
C208 H232 0.982 . S
C208 H233 0.979 . S
C208 H234 0.977 . S
C209 C205 1.684 . S
C209 H235 0.979 . S
C209 H236 0.980 . S
C209 H237 0.983 . S
C210 H186 0.948 . S
C210 C211 1.391 . S
C210 C215 1.391 . S
C211 C210 1.391 . S
C211 C212 1.391 . S
C212 H189 0.947 . S
C212 C211 1.391 . S
C212 C213 1.392 . S
C213 H190 0.948 . S
C213 C212 1.392 . S
C213 C214 1.419 . S
C214 C213 1.419 . S
C214 C215 1.391 . S
C214 C218 1.397 . S
C215 C210 1.391 . S
C215 C214 1.391 . S
C215 C216 1.399 . S
C216 C215 1.399 . S
C216 C217 1.396 . S
C216 C219 1.453 . S
C216 C220 1.684 . S
C217 C207 1.723 . S
C217 C216 1.396 . S
C217 C218 1.394 . S
C218 C188 1.723 . S
C218 C214 1.397 . S
C218 C217 1.394 . S
C219 H191 0.982 . S
C219 H195 0.979 . S
C219 H196 0.977 . S
C219 C216 1.453 . S
C220 H192 0.979 . S
C220 H193 0.980 . S
C220 H194 0.983 . S
C220 C216 1.684 . S
H221 C239 0.948 . S
H222 C180 0.948 . S
H223 C198 0.979 . S
H224 C198 0.980 . S
H225 C198 0.983 . S
H226 C197 0.982 . S
H227 C197 0.979 . S
H228 C197 0.977 . S
H229 C199 0.948 . S
H230 C201 0.947 . S
H231 C202 0.948 . S
H232 C208 0.982 . S
H233 C208 0.979 . S
H234 C208 0.977 . S
H235 C209 0.979 . S
H236 C209 0.980 . S
H237 C209 0.983 . S
H238 C182 0.947 . S
C239 C182 1.392 . S
C239 C183 1.419 . S
C239 H221 0.948 . S
C240 C242 1.422 . S
C240 C244 1.415 . S
C240 N246 1.369 . S
C241 C242 1.421 . S
C241 C243 1.417 . S
C241 C253 1.422 . S
C242 C240 1.422 . S
C242 C241 1.421 . S
C242 N252 1.359 . S
C243 C241 1.417 . S
C243 C245 1.329 . S
C243 H262 0.930 . S
C244 C240 1.415 . S
C244 C245 1.437 . S
C244 C248 1.413 . S
C245 C243 1.329 . S
C245 C244 1.437 . S
C245 H267 0.929 . S
N246 C240 1.369 . S
N246 C247 1.338 1_655 S
N246 Gd251 2.622 . S
C247 N246 1.338 1_455 S
C247 C249 1.378 1_455 S
C247 H259 0.929 . S
C248 C244 1.413 . S
C248 C249 1.362 . S
C248 H264 0.931 . S
C249 C247 1.378 1_655 S
C249 C248 1.362 . S
C249 H265 0.915 1_655 S
Gd250 N270 2.622 . S
Gd250 N277 2.570 . S
Gd250 O284 2.353 1_455 S
Gd250 O285 2.468 . S
Gd250 O286 2.427 . S
Gd250 O288 2.388 1_455 S
Gd250 O289 2.386 . S
Gd250 O293 2.307 1_565 S
Gd250 C303 2.805 . S
Gd251 N246 2.622 . S
Gd251 N252 2.570 . S
Gd251 O283 2.386 . S
Gd251 O287 2.307 1_545 S
Gd251 O290 2.353 1_655 S
Gd251 O291 2.468 . S
Gd251 O292 2.427 . S
Gd251 O294 2.388 1_655 S
Gd251 C315 2.805 . S
N252 C242 1.359 . S
N252 Gd251 2.570 . S
N252 C254 1.343 . S
C253 C241 1.422 . S
C253 C255 1.321 . S
C253 H261 0.931 . S
C254 N252 1.343 . S
C254 C255 1.390 . S
C254 H256 0.931 . S
C255 C253 1.321 . S
C255 C254 1.390 . S
C255 H257 0.930 . S
H256 C254 0.931 . S
H257 C255 0.930 . S
H258 C281 0.931 . S
H259 C247 0.929 . S
H260 C282 0.930 . S
H261 C253 0.931 . S
H262 C243 0.930 . S
H263 C272 0.929 1_655 S
H264 C248 0.931 . S
H265 C249 0.915 1_455 S
H266 C304 0.930 . S
H267 C245 0.929 . S
H268 C273 0.931 . S
H269 C274 0.930 1_655 S
N270 Gd250 2.622 . S
N270 C271 1.369 . S
N270 C272 1.338 . S
C271 N270 1.369 . S
C271 C275 1.415 . S
C271 C278 1.422 . S
C272 H263 0.929 1_455 S
C272 N270 1.338 . S
C272 C274 1.378 . S
C273 H268 0.931 . S
C273 C274 1.348 . S
C273 C275 1.413 . S
C274 H269 0.930 1_455 S
C274 C272 1.378 . S
C274 C273 1.348 . S
C275 C271 1.415 . S
C275 C273 1.413 . S
C275 C305 1.437 . S
H276 C305 0.929 . S
N277 Gd250 2.570 . S
N277 C278 1.359 . S
N277 C281 1.343 . S
C278 C271 1.422 . S
C278 N277 1.359 . S
C278 C280 1.421 . S
C279 C280 1.422 . S
C279 C282 1.321 . S
C279 H306 0.931 . S
C280 C278 1.421 . S
C280 C279 1.422 . S
C280 C304 1.417 . S
C281 H258 0.931 . S
C281 N277 1.343 . S
C281 C282 1.390 . S
C282 H260 0.930 . S
C282 C279 1.321 . S
C282 C281 1.390 . S
O283 Gd251 2.386 . S
O283 C295 1.265 . S
O284 Gd250 2.353 1_655 S
O284 C295 1.242 1_565 S
O285 Gd250 2.468 . S
O285 C303 1.263 . S
O286 Gd250 2.427 . S
O286 C303 1.252 . S
O287 Gd251 2.307 1_565 S
O287 C296 1.261 . S
O288 Gd250 2.388 1_655 S
O288 C296 1.252 . S
O289 Gd250 2.386 . S
O289 C307 1.265 . S
O290 Gd251 2.353 1_455 S
O290 C307 1.242 1_545 S
O291 Gd251 2.468 . S
O291 C315 1.263 . S
O292 Gd251 2.427 . S
O292 C315 1.252 . S
O293 Gd250 2.307 1_545 S
O293 C308 1.261 . S
O294 Gd251 2.388 1_455 S
O294 C308 1.252 . S
C295 O283 1.265 . S
C295 O284 1.242 1_545 S
C296 O287 1.261 . S
C296 O288 1.252 . S
C297 C300 1.394 . S
C297 C302 1.370 . S
C297 C303 1.500 . S
C298 C301 1.383 . S
C298 C302 1.395 . S
C299 C300 1.396 . S
C299 C301 1.365 . S
C299 H316 0.929 . S
C300 C297 1.394 . S
C300 C299 1.396 . S
C300 H317 0.930 . S
C301 C298 1.383 . S
C301 C299 1.365 . S
C301 H318 0.931 . S
C302 C297 1.370 . S
C302 C298 1.395 . S
C302 H319 0.930 . S
C303 Gd250 2.805 . S
C303 O285 1.263 . S
C303 O286 1.252 . S
C303 C297 1.500 . S
C304 H266 0.930 . S
C304 C280 1.417 . S
C304 C305 1.329 . S
C305 C275 1.437 . S
C305 H276 0.929 . S
C305 C304 1.329 . S
H306 C279 0.931 . S
C307 O289 1.265 . S
C307 O290 1.242 1_565 S
C308 O293 1.261 . S
C308 O294 1.252 . S
C309 C312 1.394 . S
C309 C314 1.370 . S
C309 C315 1.500 . S
C310 C313 1.383 . S
C310 C314 1.395 . S
C311 C312 1.396 . S
C311 C313 1.365 . S
C311 H320 0.929 . S
C312 C309 1.394 . S
C312 C311 1.396 . S
C312 H321 0.930 . S
C313 C310 1.383 . S
C313 C311 1.365 . S
C313 H322 0.931 . S
C314 C309 1.370 . S
C314 C310 1.395 . S
C314 H323 0.930 . S
C315 Gd251 2.805 . S
C315 O291 1.263 . S
C315 O292 1.252 . S
C315 C309 1.500 . S
H316 C299 0.929 . S
H317 C300 0.930 . S
H318 C301 0.931 . S
H319 C302 0.930 . S
H320 C311 0.929 . S
H321 C312 0.930 . S
H322 C313 0.931 . S
H323 C314 0.930 . S
C324 C326 1.422 . S
C324 C328 1.415 . S
C324 N330 1.369 . S
C325 C326 1.421 . S
C325 C327 1.417 . S
C325 C337 1.422 . S
C326 C324 1.422 . S
C326 C325 1.421 . S
C326 N336 1.359 . S
C327 C325 1.417 . S
C327 C329 1.329 . S
C327 H346 0.930 . S
C328 C324 1.415 . S
C328 C329 1.437 . S
C328 C332 1.413 . S
C329 C327 1.329 . S
C329 C328 1.437 . S
C329 H351 0.929 . S
N330 C324 1.369 . S
N330 C331 1.338 . S
N330 Gd335 2.622 . S
C331 N330 1.338 . S
C331 C333 1.378 . S
C331 H343 0.929 . S
C332 C328 1.413 . S
C332 C333 1.348 . S
C332 H348 0.931 . S
C333 C331 1.378 . S
C333 C332 1.348 . S
C333 H349 0.930 . S
Gd334 N354 2.622 . S
Gd334 N361 2.570 1_556 S
Gd334 O368 2.353 . S
Gd334 O369 2.468 . S
Gd334 O370 2.427 . S
Gd334 O372 2.388 . S
Gd334 O373 2.386 1_556 S
Gd334 O377 2.307 1_556 S
Gd334 C387 2.805 . S
Gd335 N330 2.622 . S
Gd335 N336 2.570 . S
Gd335 O367 2.386 1_554 S
Gd335 O371 2.307 . S
Gd335 O374 2.353 . S
Gd335 O375 2.468 . S
Gd335 O376 2.427 . S
Gd335 O378 2.388 . S
Gd335 C399 2.805 . S
N336 C326 1.359 . S
N336 Gd335 2.570 . S
N336 C338 1.343 . S
C337 C325 1.422 . S
C337 C339 1.321 . S
C337 H345 0.931 . S
C338 N336 1.343 . S
C338 C339 1.390 . S
C338 H340 0.931 . S
C339 C337 1.321 . S
C339 C338 1.390 . S
C339 H341 0.930 . S
H340 C338 0.931 . S
H341 C339 0.930 . S
H342 C365 0.931 . S
H343 C331 0.929 . S
H344 C366 0.930 . S
H345 C337 0.931 . S
H346 C327 0.930 . S
H347 C356 0.929 . S
H348 C332 0.931 . S
H349 C333 0.930 . S
H350 C388 0.930 . S
H351 C329 0.929 . S
H352 C357 0.931 . S
H353 C358 0.930 . S
N354 Gd334 2.622 . S
N354 C355 1.369 1_556 S
N354 C356 1.338 . S
C355 N354 1.369 1_554 S
C355 C359 1.415 . S
C355 C362 1.422 . S
C356 H347 0.929 . S
C356 N354 1.338 . S
C356 C358 1.378 . S
C357 H352 0.931 . S
C357 C358 1.348 1_554 S
C357 C359 1.413 . S
C358 H353 0.930 . S
C358 C356 1.378 . S
C358 C357 1.348 1_556 S
C359 C355 1.415 . S
C359 C357 1.413 . S
C359 C389 1.437 . S
H360 C389 0.929 . S
N361 Gd334 2.570 1_554 S
N361 C362 1.359 . S
N361 C365 1.343 . S
C362 C355 1.422 . S
C362 N361 1.359 . S
C362 C364 1.421 . S
C363 C364 1.422 . S
C363 C366 1.321 . S
C363 H390 0.931 . S
C364 C362 1.421 . S
C364 C363 1.422 . S
C364 C388 1.417 . S
C365 H342 0.931 . S
C365 N361 1.343 . S
C365 C366 1.390 . S
C366 H344 0.930 . S
C366 C363 1.321 . S
C366 C365 1.390 . S
O367 Gd335 2.386 1_556 S
O367 C379 1.265 . S
O368 Gd334 2.353 . S
O368 C379 1.242 . S
O369 Gd334 2.468 . S
O369 C387 1.263 . S
O370 Gd334 2.427 . S
O370 C387 1.252 . S
O371 Gd335 2.307 . S
O371 C380 1.261 . S
O372 Gd334 2.388 . S
O372 C380 1.252 1_556 S
O373 Gd334 2.386 1_554 S
O373 C391 1.265 . S
O374 Gd335 2.353 . S
O374 C391 1.242 . S
O375 Gd335 2.468 . S
O375 C399 1.263 . S
O376 Gd335 2.427 . S
O376 C399 1.252 . S
O377 Gd334 2.307 1_554 S
O377 C392 1.261 . S
O378 Gd335 2.388 . S
O378 C392 1.252 . S
C379 O367 1.265 . S
C379 O368 1.242 . S
C380 O371 1.261 . S
C380 O372 1.252 1_554 S
C381 C384 1.394 . S
C381 C386 1.370 . S
C381 C387 1.500 . S
C382 C385 1.383 . S
C382 C386 1.395 . S
C383 C384 1.396 . S
C383 C385 1.365 . S
C383 H400 0.929 . S
C384 C381 1.394 . S
C384 C383 1.396 . S
C384 H401 0.930 . S
C385 C382 1.383 . S
C385 C383 1.365 . S
C385 H402 0.931 . S
C386 C381 1.370 . S
C386 C382 1.395 . S
C386 H403 0.930 . S
C387 Gd334 2.805 . S
C387 O369 1.263 . S
C387 O370 1.252 . S
C387 C381 1.500 . S
C388 H350 0.930 . S
C388 C364 1.417 . S
C388 C389 1.329 . S
C389 C359 1.437 . S
C389 H360 0.929 . S
C389 C388 1.329 . S
H390 C363 0.931 . S
C391 O373 1.265 . S
C391 O374 1.242 . S
C392 O377 1.261 . S
C392 O378 1.252 . S
C393 C396 1.394 . S
C393 C398 1.370 . S
C393 C399 1.500 . S
C394 C397 1.383 . S
C394 C398 1.395 . S
C395 C396 1.396 . S
C395 C397 1.365 . S
C395 H404 0.929 . S
C396 C393 1.394 . S
C396 C395 1.396 . S
C396 H405 0.930 . S
C397 C394 1.383 . S
C397 C395 1.365 . S
C397 H406 0.931 . S
C398 C393 1.370 . S
C398 C394 1.395 . S
C398 H407 0.930 . S
C399 Gd335 2.805 . S
C399 O375 1.263 . S
C399 O376 1.252 . S
C399 C393 1.500 . S
H400 C383 0.929 . S
H401 C384 0.930 . S
H402 C385 0.931 . S
H403 C386 0.930 . S
H404 C395 0.929 . S
H405 C396 0.930 . S
H406 C397 0.931 . S
H407 C398 0.930 . S
H408 C416 0.929 . S
H409 C418 0.930 . S
H410 C420 0.930 . S
H411 C423 0.929 . S
H412 C426 0.930 . S
H413 C428 0.960 . S
H414 C428 0.960 . S
H415 C428 0.960 . S
C416 H408 0.929 . S
C416 C417 1.377 . S
C416 C418 1.384 . S
C417 C416 1.377 . S
C417 C423 1.390 . S
C418 H409 0.930 . S
C418 C416 1.384 . S
C418 C419 1.372 . S
C419 C418 1.372 . S
C419 C420 1.400 . S
C419 C424 1.490 . S
C420 H410 0.930 . S
C420 C419 1.400 . S
C420 C423 1.386 . S
H421 C437 0.930 . S
H422 C438 0.931 . S
C423 H411 0.929 . S
C423 C417 1.390 . S
C423 C420 1.386 . S
C424 C419 1.490 . S
C424 C426 1.395 . S
C424 C427 1.403 . S
H425 C431 0.930 . S
C426 H412 0.930 . S
C426 C424 1.395 . S
C426 C429 1.403 . S
C427 C424 1.403 . S
C427 C428 1.524 . S
C427 C431 1.400 . S
C428 H413 0.960 . S
C428 H414 0.960 . S
C428 H415 0.960 . S
C428 C427 1.524 . S
C429 C426 1.403 . S
C429 C430 1.392 . S
C429 C433 1.495 . S
C430 C429 1.392 . S
C430 C431 1.385 . S
C430 C432 1.478 . S
C431 H425 0.930 . S
C431 C427 1.400 . S
C431 C430 1.385 . S
C432 C430 1.478 . S
C432 C434 1.381 . S
C432 C438 1.383 . S
C433 C429 1.495 . S
C433 H439 0.959 . S
C433 H440 0.961 . S
C433 H441 0.960 . S
C434 C432 1.381 . S
C434 C435 1.394 . S
C434 H442 0.930 . S
C435 C434 1.394 . S
C435 C436 1.383 . S
C435 H443 0.929 . S
C436 C435 1.383 . S
C436 C437 1.377 . S
C437 H421 0.930 . S
C437 C436 1.377 . S
C437 C438 1.379 . S
C438 H422 0.931 . S
C438 C432 1.383 . S
C438 C437 1.379 . S
H439 C433 0.959 . S
H440 C433 0.961 . S
H441 C433 0.960 . S
H442 C434 0.930 . S
H443 C435 0.929 . S
H444 C452 0.929 . S
H445 C454 0.930 . S
H446 C456 0.930 1_556 S
H447 C459 0.929 1_556 S
H448 C462 0.930 . S
H449 C464 0.960 . S
H450 C464 0.960 . S
H451 C464 0.960 1_556 S
C452 H444 0.929 . S
C452 C453 1.377 . S
C452 C454 1.384 . S
C453 C452 1.377 . S
C453 C459 1.390 . S
C454 H445 0.930 . S
C454 C452 1.384 . S
C454 C455 1.372 . S
C455 C454 1.372 . S
C455 C456 1.400 . S
C455 C460 1.490 . S
C456 H446 0.930 1_554 S
C456 C455 1.400 . S
C456 C459 1.386 . S
H457 C473 0.930 . S
H458 C474 0.924 1_556 S
C459 H447 0.929 1_554 S
C459 C453 1.390 . S
C459 C456 1.386 . S
C460 C455 1.490 . S
C460 C462 1.395 . S
C460 C463 1.403 . S
H461 C467 0.930 . S
C462 H448 0.930 . S
C462 C460 1.395 . S
C462 C465 1.403 . S
C463 C460 1.403 . S
C463 C464 1.524 . S
C463 C467 1.400 . S
C464 H449 0.960 . S
C464 H450 0.960 . S
C464 H451 0.960 1_554 S
C464 C463 1.524 . S
C465 C462 1.403 . S
C465 C466 1.392 . S
C465 C469 1.495 . S
C466 C465 1.392 . S
C466 C467 1.385 . S
C466 C468 1.478 . S
C467 H461 0.930 . S
C467 C463 1.400 . S
C467 C466 1.385 . S
C468 C466 1.478 . S
C468 C470 1.381 . S
C468 C474 1.393 . S
C469 C465 1.495 . S
C469 H475 0.959 . S
C469 H476 0.961 . S
C469 H477 0.960 . S
C470 C468 1.381 . S
C470 C471 1.394 . S
C470 H478 0.930 . S
C471 C470 1.394 . S
C471 C472 1.383 . S
C471 H479 0.929 . S
C472 C471 1.383 . S
C472 C473 1.377 1_554 S
C473 H457 0.930 . S
C473 C472 1.377 1_556 S
C473 C474 1.377 1_556 S
C474 H458 0.924 1_554 S
C474 C468 1.393 . S
C474 C473 1.377 1_554 S
H475 C469 0.959 . S
H476 C469 0.961 . S
H477 C469 0.960 . S
H478 C470 0.930 . S
H479 C471 0.929 . S
H480 C488 0.929 . S
H481 C490 0.930 . S
H482 C492 0.930 . S
H483 C495 0.929 . S
H484 C498 0.930 . S
H485 C500 0.960 . S
H486 C500 0.960 . S
H487 C500 0.960 . S
C488 H480 0.929 . S
C488 C489 1.377 . S
C488 C490 1.384 . S
C489 C488 1.377 . S
C489 C495 1.390 . S
C490 H481 0.930 . S
C490 C488 1.384 . S
C490 C491 1.372 . S
C491 C490 1.372 . S
C491 C492 1.400 . S
C491 C496 1.490 . S
C492 H482 0.930 . S
C492 C491 1.400 . S
C492 C495 1.386 . S
H493 C509 0.930 . S
H494 C510 0.931 . S
C495 H483 0.929 . S
C495 C489 1.390 . S
C495 C492 1.386 . S
C496 C491 1.490 . S
C496 C498 1.395 . S
C496 C499 1.403 . S
H497 C503 0.930 . S
C498 H484 0.930 . S
C498 C496 1.395 . S
C498 C501 1.403 . S
C499 C496 1.403 . S
C499 C500 1.524 . S
C499 C503 1.400 . S
C500 H485 0.960 . S
C500 H486 0.960 . S
C500 H487 0.960 . S
C500 C499 1.524 . S
C501 C498 1.403 . S
C501 C502 1.392 . S
C501 C505 1.495 . S
C502 C501 1.392 . S
C502 C503 1.385 . S
C502 C504 1.478 . S
C503 H497 0.930 . S
C503 C499 1.400 . S
C503 C502 1.385 . S
C504 C502 1.478 . S
C504 C506 1.381 . S
C504 C510 1.383 . S
C505 C501 1.495 . S
C505 H511 0.959 . S
C505 H512 0.961 . S
C505 H513 0.960 . S
C506 C504 1.381 . S
C506 C507 1.394 . S
C506 H514 0.930 . S
C507 C506 1.394 . S
C507 C508 1.383 . S
C507 H515 0.929 . S
C508 C507 1.383 . S
C508 C509 1.377 . S
C509 H493 0.930 . S
C509 C508 1.377 . S
C509 C510 1.379 . S
C510 H494 0.931 . S
C510 C504 1.383 . S
C510 C509 1.379 . S
H511 C505 0.959 . S
H512 C505 0.961 . S
H513 C505 0.960 . S
H514 C506 0.930 . S
H515 C507 0.929 . S
H516 C524 0.921 1_556 S
H517 C526 0.930 1_556 S
H518 C528 0.930 . S
H519 C531 0.929 . S
H520 C534 0.930 . S
H521 C536 0.960 . S
H522 C536 0.960 . S
H523 C536 0.960 . S
C524 H516 0.921 1_554 S
C524 C525 1.378 . S
C524 C526 1.392 . S
C525 C524 1.378 . S
C525 C531 1.390 . S
C526 H517 0.930 1_554 S
C526 C524 1.392 . S
C526 C527 1.372 . S
C527 C526 1.372 . S
C527 C528 1.400 . S
C527 C532 1.490 . S
C528 H518 0.930 . S
C528 C527 1.400 . S
C528 C531 1.386 . S
H529 C545 0.930 . S
H530 C546 0.931 . S
C531 H519 0.929 . S
C531 C525 1.390 . S
C531 C528 1.386 . S
C532 C527 1.490 . S
C532 C534 1.395 . S
C532 C535 1.403 1_554 S
H533 C539 0.930 . S
C534 H520 0.930 . S
C534 C532 1.395 . S
C534 C537 1.403 . S
C535 C532 1.403 1_556 S
C535 C536 1.524 . S
C535 C539 1.400 . S
C536 H521 0.960 . S
C536 H522 0.960 . S
C536 H523 0.960 . S
C536 C535 1.524 . S
C537 C534 1.403 . S
C537 C538 1.392 . S
C537 C541 1.495 . S
C538 C537 1.392 . S
C538 C539 1.385 1_554 S
C538 C540 1.478 . S
C539 H533 0.930 . S
C539 C535 1.400 . S
C539 C538 1.385 1_556 S
C540 C538 1.478 . S
C540 C542 1.381 . S
C540 C546 1.383 . S
C541 C537 1.495 . S
C541 H547 0.959 . S
C541 H548 0.961 . S
C541 H549 0.960 . S
C542 C540 1.381 . S
C542 C543 1.394 . S
C542 H550 0.930 . S
C543 C542 1.394 . S
C543 C544 1.383 . S
C543 H551 0.929 . S
C544 C543 1.383 . S
C544 C545 1.377 . S
C545 H529 0.930 . S
C545 C544 1.377 . S
C545 C546 1.379 . S
C546 H530 0.931 . S
C546 C540 1.383 . S
C546 C545 1.379 . S
H547 C541 0.959 . S
H548 C541 0.961 . S
H549 C541 0.960 . S
H550 C542 0.930 . S
H551 C543 0.929 . S
H552 C560 0.929 . S
H553 C562 0.930 . S
H554 C564 0.930 . S
H555 C567 0.929 . S
H556 C570 0.930 . S
H557 C572 0.960 . S
H558 C572 0.960 . S
H559 C572 0.960 . S
C560 H552 0.929 . S
C560 C561 1.377 . S
C560 C562 1.384 . S
C561 C560 1.377 . S
C561 C567 1.390 . S
C562 H553 0.930 . S
C562 C560 1.384 . S
C562 C563 1.372 . S
C563 C562 1.372 . S
C563 C564 1.400 . S
C563 C568 1.490 . S
C564 H554 0.930 . S
C564 C563 1.400 . S
C564 C567 1.386 . S
H565 C581 0.930 . S
H566 C582 0.931 . S
C567 H555 0.929 . S
C567 C561 1.390 . S
C567 C564 1.386 . S
C568 C563 1.490 . S
C568 C570 1.395 . S
C568 C571 1.403 . S
H569 C575 0.930 . S
C570 H556 0.930 . S
C570 C568 1.395 . S
C570 C573 1.403 . S
C571 C568 1.403 . S
C571 C572 1.524 . S
C571 C575 1.400 . S
C572 H557 0.960 . S
C572 H558 0.960 . S
C572 H559 0.960 . S
C572 C571 1.524 . S
C573 C570 1.403 . S
C573 C574 1.392 . S
C573 C577 1.495 . S
C574 C573 1.392 . S
C574 C575 1.385 . S
C574 C576 1.478 . S
C575 H569 0.930 . S
C575 C571 1.400 . S
C575 C574 1.385 . S
C576 C574 1.478 . S
C576 C578 1.381 . S
C576 C582 1.383 . S
C577 C573 1.495 . S
C577 H583 0.959 . S
C577 H584 0.961 . S
C577 H585 0.960 . S
C578 C576 1.381 . S
C578 C579 1.394 . S
C578 H586 0.930 . S
C579 C578 1.394 . S
C579 C580 1.383 . S
C579 H587 0.929 . S
C580 C579 1.383 . S
C580 C581 1.377 . S
C581 H565 0.930 . S
C581 C580 1.377 . S
C581 C582 1.379 . S
C582 H566 0.931 . S
C582 C576 1.383 . S
C582 C581 1.379 . S
H583 C577 0.959 . S
H584 C577 0.961 . S
H585 C577 0.960 . S
H586 C578 0.930 . S
H587 C579 0.929 . S
H588 C596 0.929 . S
H589 C598 0.930 . S
H590 C600 0.930 . S
H591 C603 0.929 . S
H592 C606 0.930 . S
H593 C608 0.960 . S
H594 C608 0.960 . S
H595 C608 0.960 . S
C596 H588 0.929 . S
C596 C597 1.377 . S
C596 C598 1.384 . S
C597 C596 1.377 . S
C597 C603 1.390 . S
C598 H589 0.930 . S
C598 C596 1.384 . S
C598 C599 1.372 . S
C599 C598 1.372 . S
C599 C600 1.400 . S
C599 C604 1.490 . S
C600 H590 0.930 . S
C600 C599 1.400 . S
C600 C603 1.386 . S
H601 C617 0.930 . S
H602 C618 0.931 . S
C603 H591 0.929 . S
C603 C597 1.390 . S
C603 C600 1.386 . S
C604 C599 1.490 . S
C604 C606 1.395 . S
C604 C607 1.403 . S
H605 C611 0.930 . S
C606 H592 0.930 . S
C606 C604 1.395 . S
C606 C609 1.403 . S
C607 C604 1.403 . S
C607 C608 1.524 . S
C607 C611 1.400 . S
C608 H593 0.960 . S
C608 H594 0.960 . S
C608 H595 0.960 . S
C608 C607 1.524 . S
C609 C606 1.403 . S
C609 C610 1.392 . S
C609 C613 1.495 . S
C610 C609 1.392 . S
C610 C611 1.385 . S
C610 C612 1.478 . S
C611 H605 0.930 . S
C611 C607 1.400 . S
C611 C610 1.385 . S
C612 C610 1.478 . S
C612 C614 1.381 . S
C612 C618 1.383 . S
C613 C609 1.495 . S
C613 H619 0.959 . S
C613 H620 0.961 . S
C613 H621 0.960 . S
C614 C612 1.381 . S
C614 C615 1.394 . S
C614 H622 0.930 . S
C615 C614 1.394 . S
C615 C616 1.383 . S
C615 H623 0.929 . S
C616 C615 1.383 . S
C616 C617 1.377 . S
C617 H601 0.930 . S
C617 C616 1.377 . S
C617 C618 1.379 . S
C618 H602 0.931 . S
C618 C612 1.383 . S
C618 C617 1.379 . S
H619 C613 0.959 . S
H620 C613 0.961 . S
H621 C613 0.960 . S
H622 C614 0.930 . S
H623 C615 0.929 . S
H624 C632 0.929 . S
H625 C634 0.930 . S
H626 C636 0.930 . S
H627 C639 0.929 . S
H628 C642 0.930 . S
H629 C644 0.960 . S
H630 C644 0.960 . S
H631 C644 0.960 . S
C632 H624 0.929 . S
C632 C633 1.377 . S
C632 C634 1.384 . S
C633 C632 1.377 . S
C633 C639 1.390 . S
C634 H625 0.930 . S
C634 C632 1.384 . S
C634 C635 1.372 . S
C635 C634 1.372 . S
C635 C636 1.400 . S
C635 C640 1.490 . S
C636 H626 0.930 . S
C636 C635 1.400 . S
C636 C639 1.386 . S
H637 C653 0.930 . S
H638 C654 0.931 . S
C639 H627 0.929 . S
C639 C633 1.390 . S
C639 C636 1.386 . S
C640 C635 1.490 . S
C640 C642 1.395 . S
C640 C643 1.403 . S
H641 C647 0.930 . S
C642 H628 0.930 . S
C642 C640 1.395 . S
C642 C645 1.403 . S
C643 C640 1.403 . S
C643 C644 1.524 . S
C643 C647 1.400 . S
C644 H629 0.960 . S
C644 H630 0.960 . S
C644 H631 0.960 . S
C644 C643 1.524 . S
C645 C642 1.403 . S
C645 C646 1.392 . S
C645 C649 1.495 . S
C646 C645 1.392 . S
C646 C647 1.385 . S
C646 C648 1.478 . S
C647 H641 0.930 . S
C647 C643 1.400 . S
C647 C646 1.385 . S
C648 C646 1.478 . S
C648 C650 1.381 . S
C648 C654 1.383 . S
C649 C645 1.495 . S
C649 H655 0.959 . S
C649 H656 0.961 . S
C649 H657 0.960 1_545 S
C650 C648 1.381 . S
C650 C651 1.394 . S
C650 H658 0.930 1_545 S
C651 C650 1.394 . S
C651 C652 1.383 . S
C651 H659 0.929 1_545 S
C652 C651 1.383 . S
C652 C653 1.377 . S
C653 H637 0.930 . S
C653 C652 1.377 . S
C653 C654 1.379 . S
C654 H638 0.931 . S
C654 C648 1.383 . S
C654 C653 1.379 . S
H655 C649 0.959 . S
H656 C649 0.961 . S
H657 C649 0.960 1_565 S
H658 C650 0.930 1_565 S
H659 C651 0.929 1_565 S
H660 C668 0.929 . S
H661 C670 0.930 . S
H662 C672 0.930 . S
H663 C675 0.929 . S
H664 C678 0.930 . S
H665 C680 0.960 . S
H666 C680 0.960 . S
H667 C680 0.960 . S
C668 H660 0.929 . S
C668 C669 1.377 . S
C668 C670 1.384 . S
C669 C668 1.377 . S
C669 C675 1.390 . S
C670 H661 0.930 . S
C670 C668 1.384 . S
C670 C671 1.372 . S
C671 C670 1.372 . S
C671 C672 1.400 . S
C671 C676 1.490 . S
C672 H662 0.930 . S
C672 C671 1.400 . S
C672 C675 1.386 . S
H673 C689 0.930 . S
H674 C690 0.931 . S
C675 H663 0.929 . S
C675 C669 1.390 . S
C675 C672 1.386 . S
C676 C671 1.490 . S
C676 C678 1.395 . S
C676 C679 1.403 . S
H677 C683 0.930 . S
C678 H664 0.930 . S
C678 C676 1.395 . S
C678 C681 1.403 . S
C679 C676 1.403 . S
C679 C680 1.524 . S
C679 C683 1.400 . S
C680 H665 0.960 . S
C680 H666 0.960 . S
C680 H667 0.960 . S
C680 C679 1.524 . S
C681 C678 1.403 . S
C681 C682 1.392 . S
C681 C685 1.495 . S
C682 C681 1.392 . S
C682 C683 1.385 . S
C682 C684 1.478 . S
C683 H677 0.930 . S
C683 C679 1.400 . S
C683 C682 1.385 . S
C684 C682 1.478 . S
C684 C686 1.381 . S
C684 C690 1.383 . S
C685 C681 1.495 . S
C685 H691 0.959 . S
C685 H692 0.961 . S
C685 H693 0.960 . S
C686 C684 1.381 . S
C686 C687 1.394 . S
C686 H694 0.930 . S
C687 C686 1.394 . S
C687 C688 1.383 . S
C687 H695 0.929 . S
C688 C687 1.383 . S
C688 C689 1.377 . S
C689 H673 0.930 . S
C689 C688 1.377 . S
C689 C690 1.379 . S
C690 H674 0.931 . S
C690 C684 1.383 . S
C690 C689 1.379 . S
H691 C685 0.959 . S
H692 C685 0.961 . S
H693 C685 0.960 . S
H694 C686 0.930 . S
H695 C687 0.929 . S
H696 C704 0.929 . S
H697 C706 0.930 . S
H698 C708 0.930 . S
H699 C711 0.929 . S
H700 C714 0.930 . S
H701 C716 0.960 . S
H702 C716 0.960 . S
H703 C716 0.960 . S
C704 H696 0.929 . S
C704 C705 1.377 . S
C704 C706 1.384 . S
C705 C704 1.377 . S
C705 C711 1.390 . S
C706 H697 0.930 . S
C706 C704 1.384 . S
C706 C707 1.372 . S
C707 C706 1.372 . S
C707 C708 1.400 . S
C707 C712 1.490 . S
C708 H698 0.930 . S
C708 C707 1.400 . S
C708 C711 1.386 . S
H709 C725 0.930 . S
H710 C726 0.931 . S
C711 H699 0.929 . S
C711 C705 1.390 . S
C711 C708 1.386 . S
C712 C707 1.490 . S
C712 C714 1.395 . S
C712 C715 1.403 . S
H713 C719 0.930 . S
C714 H700 0.930 . S
C714 C712 1.395 . S
C714 C717 1.403 . S
C715 C712 1.403 . S
C715 C716 1.524 . S
C715 C719 1.400 . S
C716 H701 0.960 . S
C716 H702 0.960 . S
C716 H703 0.960 . S
C716 C715 1.524 . S
C717 C714 1.403 . S
C717 C718 1.392 . S
C717 C721 1.495 . S
C718 C717 1.392 . S
C718 C719 1.385 . S
C718 C720 1.478 . S
C719 H713 0.930 . S
C719 C715 1.400 . S
C719 C718 1.385 . S
C720 C718 1.478 . S
C720 C722 1.381 . S
C720 C726 1.383 . S
C721 C717 1.495 . S
C721 H727 0.959 . S
C721 H728 0.961 . S
C721 H729 0.960 . S
C722 C720 1.381 . S
C722 C723 1.394 . S
C722 H730 0.930 . S
C723 C722 1.394 . S
C723 C724 1.383 . S
C723 H731 0.929 . S
C724 C723 1.383 . S
C724 C725 1.377 . S
C725 H709 0.930 . S
C725 C724 1.377 . S
C725 C726 1.379 . S
C726 H710 0.931 . S
C726 C720 1.383 . S
C726 C725 1.379 . S
H727 C721 0.959 . S
H728 C721 0.961 . S
H729 C721 0.960 . S
H730 C722 0.930 . S
H731 C723 0.929 . S
H732 C740 0.929 . S
H733 C742 0.930 . S
H734 C744 0.930 . S
H735 C747 0.929 . S
H736 C750 0.930 . S
H737 C752 0.960 . S
H738 C752 0.960 . S
H739 C752 0.960 . S
C740 H732 0.929 . S
C740 C741 1.377 . S
C740 C742 1.384 . S
C741 C740 1.377 . S
C741 C747 1.390 . S
C742 H733 0.930 . S
C742 C740 1.384 . S
C742 C743 1.372 . S
C743 C742 1.372 . S
C743 C744 1.400 . S
C743 C748 1.490 . S
C744 H734 0.930 . S
C744 C743 1.400 . S
C744 C747 1.386 . S
H745 C761 0.930 . S
H746 C762 0.931 . S
C747 H735 0.929 . S
C747 C741 1.390 . S
C747 C744 1.386 . S
C748 C743 1.490 . S
C748 C750 1.395 . S
C748 C751 1.403 . S
H749 C755 0.930 . S
C750 H736 0.930 . S
C750 C748 1.395 . S
C750 C753 1.403 . S
C751 C748 1.403 . S
C751 C752 1.524 . S
C751 C755 1.400 . S
C752 H737 0.960 . S
C752 H738 0.960 . S
C752 H739 0.960 . S
C752 C751 1.524 . S
C753 C750 1.403 . S
C753 C754 1.392 . S
C753 C757 1.495 . S
C754 C753 1.392 . S
C754 C755 1.385 . S
C754 C756 1.478 . S
C755 H749 0.930 . S
C755 C751 1.400 . S
C755 C754 1.385 . S
C756 C754 1.478 . S
C756 C758 1.381 . S
C756 C762 1.383 . S
C757 C753 1.495 . S
C757 H763 0.959 . S
C757 H764 0.961 . S
C757 H765 0.960 . S
C758 C756 1.381 . S
C758 C759 1.394 . S
C758 H766 0.930 . S
C759 C758 1.394 . S
C759 C760 1.383 . S
C759 H767 0.929 . S
C760 C759 1.383 . S
C760 C761 1.377 . S
C761 H745 0.930 . S
C761 C760 1.377 . S
C761 C762 1.379 . S
C762 H746 0.931 . S
C762 C756 1.383 . S
C762 C761 1.379 . S
H763 C757 0.959 . S
H764 C757 0.961 . S
H765 C757 0.960 . S
H766 C758 0.930 . S
H767 C759 0.929 . S
H768 C776 0.929 . S
H769 C778 0.930 . S
H770 C780 0.930 . S
H771 C783 0.929 . S
H772 C786 0.930 . S
H773 C788 0.960 . S
H774 C788 0.960 . S
H775 C788 0.960 . S
C776 H768 0.929 . S
C776 C777 1.377 . S
C776 C778 1.384 . S
C777 C776 1.377 . S
C777 C783 1.390 . S
C778 H769 0.930 . S
C778 C776 1.384 . S
C778 C779 1.372 . S
C779 C778 1.372 . S
C779 C780 1.400 . S
C779 C784 1.490 . S
C780 H770 0.930 . S
C780 C779 1.400 . S
C780 C783 1.386 . S
H781 C797 0.930 . S
H782 C798 0.931 . S
C783 H771 0.929 . S
C783 C777 1.390 . S
C783 C780 1.386 . S
C784 C779 1.490 . S
C784 C786 1.395 . S
C784 C787 1.403 . S
H785 C791 0.930 . S
C786 H772 0.930 . S
C786 C784 1.395 . S
C786 C789 1.403 . S
C787 C784 1.403 . S
C787 C788 1.524 . S
C787 C791 1.400 . S
C788 H773 0.960 . S
C788 H774 0.960 . S
C788 H775 0.960 . S
C788 C787 1.524 . S
C789 C786 1.403 . S
C789 C790 1.392 . S
C789 C793 1.495 . S
C790 C789 1.392 . S
C790 C791 1.385 . S
C790 C792 1.478 . S
C791 H785 0.930 . S
C791 C787 1.400 . S
C791 C790 1.385 . S
C792 C790 1.478 . S
C792 C794 1.381 . S
C792 C798 1.383 . S
C793 C789 1.495 . S
C793 H799 0.959 . S
C793 H800 0.961 . S
C793 H801 0.960 . S
C794 C792 1.381 . S
C794 C795 1.394 . S
C794 H802 0.930 . S
C795 C794 1.394 . S
C795 C796 1.383 . S
C795 H803 0.929 . S
C796 C795 1.383 . S
C796 C797 1.377 . S
C797 H781 0.930 . S
C797 C796 1.377 . S
C797 C798 1.379 . S
C798 H782 0.931 . S
C798 C792 1.383 . S
C798 C797 1.379 . S
H799 C793 0.959 . S
H800 C793 0.961 . S
H801 C793 0.960 . S
H802 C794 0.930 . S
H803 C795 0.929 . S
H804 C812 0.929 . S
H805 C814 0.930 . S
H806 C816 0.930 . S
H807 C819 0.929 . S
H808 C822 0.930 . S
H809 C824 0.960 . S
H810 C824 0.960 . S
H811 C824 0.960 . S
C812 H804 0.929 . S
C812 C813 1.377 . S
C812 C814 1.384 . S
C813 C812 1.377 . S
C813 C819 1.390 . S
C814 H805 0.930 . S
C814 C812 1.384 . S
C814 C815 1.372 . S
C815 C814 1.372 . S
C815 C816 1.400 . S
C815 C820 1.490 . S
C816 H806 0.930 . S
C816 C815 1.400 . S
C816 C819 1.386 . S
H817 C833 0.930 . S
H818 C834 0.931 . S
C819 H807 0.929 . S
C819 C813 1.390 . S
C819 C816 1.386 . S
C820 C815 1.490 . S
C820 C822 1.395 . S
C820 C823 1.403 . S
H821 C827 0.930 . S
C822 H808 0.930 . S
C822 C820 1.395 . S
C822 C825 1.403 . S
C823 C820 1.403 . S
C823 C824 1.524 . S
C823 C827 1.400 . S
C824 H809 0.960 . S
C824 H810 0.960 . S
C824 H811 0.960 . S
C824 C823 1.524 . S
C825 C822 1.403 . S
C825 C826 1.392 . S
C825 C829 1.495 . S
C826 C825 1.392 . S
C826 C827 1.385 . S
C826 C828 1.478 . S
C827 H821 0.930 . S
C827 C823 1.400 . S
C827 C826 1.385 . S
C828 C826 1.478 . S
C828 C830 1.381 . S
C828 C834 1.383 . S
C829 C825 1.495 . S
C829 H835 0.959 . S
C829 H836 0.961 . S
C829 H837 0.960 . S
C830 C828 1.381 . S
C830 C831 1.394 . S
C830 H838 0.930 . S
C831 C830 1.394 . S
C831 C832 1.383 . S
C831 H839 0.929 . S
C832 C831 1.383 . S
C832 C833 1.377 . S
C833 H817 0.930 . S
C833 C832 1.377 . S
C833 C834 1.379 . S
C834 H818 0.931 . S
C834 C828 1.383 . S
C834 C833 1.379 . S
H835 C829 0.959 . S
H836 C829 0.961 . S
H837 C829 0.960 . S
H838 C830 0.930 . S
H839 C831 0.929 . S
C436 C308 1.601 . S
C417 C211 1.609 . S
C453 C31 1.551 . S
C472 C380 1.604 . S
C489 C91 1.631 . S
C508 C296 1.606 . S
C525 C151 1.587 . S
C544 C392 1.584 . S
C580 C298 1.395 . S
C561 C20 1.526 . S
C616 C379 1.600 . S
C597 C61 1.564 . S
C633 C121 1.587 . S
C652 C295 1.591 . S
C669 C200 1.503 . S
C688 C382 1.352 . S
C724 C394 1.391 . S
C705 C80 1.515 . S
C760 C310 1.381 . S
C741 C140 1.552 . S
C796 C391 1.601 . S
C777 C181 1.534 . S
C813 C1 1.552 . S
C832 C307 1.597 . S
