# Generated by pormake.
# Topology pyr, (3,6)-cn, num edge types: 1
# Building blocks:
#     Node 0, Type 0, BuildingBlock: QEWDON_clean_linker_0, # of connection points: 3
#     Node 1, Type 0, BuildingBlock: QEWDON_clean_linker_0, # of connection points: 3
#     Node 2, Type 0, BuildingBlock: QEWDON_clean_linker_0, # of connection points: 3
#     Node 3, Type 0, BuildingBlock: QEWDON_clean_linker_0, # of connection points: 3
#     Node 4, Type 0, BuildingBlock: QEWDON_clean_linker_0, # of connection points: 3
#     Node 5, Type 0, BuildingBlock: QEWDON_clean_linker_0, # of connection points: 3
#     Node 6, Type 0, BuildingBlock: QEWDON_clean_linker_0, # of connection points: 3
#     Node 7, Type 0, BuildingBlock: QEWDON_clean_linker_0, # of connection points: 3
#     Node 8, Type 1, BuildingBlock: MIDCAF_clean_sbu_0, # of connection points: 6
#     Node 9, Type 1, BuildingBlock: MIDCAF_clean_sbu_0, # of connection points: 6
#     Node 10, Type 1, BuildingBlock: MIDCAF_clean_sbu_0, # of connection points: 6
#     Node 11, Type 1, BuildingBlock: MIDCAF_clean_sbu_0, # of connection points: 6
#     Edge 12, Type (0, 1), BuildingBlock: EZIPEK_clean_linker_0, # of connection points: 2
#     Edge 13, Type (0, 1), BuildingBlock: EZIPEK_clean_linker_0, # of connection points: 2
#     Edge 14, Type (0, 1), BuildingBlock: EZIPEK_clean_linker_0, # of connection points: 2
#     Edge 15, Type (0, 1), BuildingBlock: EZIPEK_clean_linker_0, # of connection points: 2
#     Edge 16, Type (0, 1), BuildingBlock: EZIPEK_clean_linker_0, # of connection points: 2
#     Edge 17, Type (0, 1), BuildingBlock: EZIPEK_clean_linker_0, # of connection points: 2
#     Edge 18, Type (0, 1), BuildingBlock: EZIPEK_clean_linker_0, # of connection points: 2
#     Edge 19, Type (0, 1), BuildingBlock: EZIPEK_clean_linker_0, # of connection points: 2
#     Edge 20, Type (0, 1), BuildingBlock: EZIPEK_clean_linker_0, # of connection points: 2
#     Edge 21, Type (0, 1), BuildingBlock: EZIPEK_clean_linker_0, # of connection points: 2
#     Edge 22, Type (0, 1), BuildingBlock: EZIPEK_clean_linker_0, # of connection points: 2
#     Edge 23, Type (0, 1), BuildingBlock: EZIPEK_clean_linker_0, # of connection points: 2
#     Edge 24, Type (0, 1), BuildingBlock: EZIPEK_clean_linker_0, # of connection points: 2
#     Edge 25, Type (0, 1), BuildingBlock: EZIPEK_clean_linker_0, # of connection points: 2
#     Edge 26, Type (0, 1), BuildingBlock: EZIPEK_clean_linker_0, # of connection points: 2
#     Edge 27, Type (0, 1), BuildingBlock: EZIPEK_clean_linker_0, # of connection points: 2
#     Edge 28, Type (0, 1), BuildingBlock: EZIPEK_clean_linker_0, # of connection points: 2
#     Edge 29, Type (0, 1), BuildingBlock: EZIPEK_clean_linker_0, # of connection points: 2
#     Edge 30, Type (0, 1), BuildingBlock: EZIPEK_clean_linker_0, # of connection points: 2
#     Edge 31, Type (0, 1), BuildingBlock: EZIPEK_clean_linker_0, # of connection points: 2
#     Edge 32, Type (0, 1), BuildingBlock: EZIPEK_clean_linker_0, # of connection points: 2
#     Edge 33, Type (0, 1), BuildingBlock: EZIPEK_clean_linker_0, # of connection points: 2
#     Edge 34, Type (0, 1), BuildingBlock: EZIPEK_clean_linker_0, # of connection points: 2
#     Edge 35, Type (0, 1), BuildingBlock: EZIPEK_clean_linker_0, # of connection points: 2
# Relax obj value: 0.153
# Max RMSD: 0.263
# Mean RMSD: 0.189
data_MOF--net-pyr--node1-MIDCAF_clean_sbu_0--node2-QEWDON_clean_linker_0--edge1-EZIPEK_clean_linker_0
_symmetry_space_group_name_H-M    P1
_symmetry_Int_Tables_number       1
_symmetry_cell_setting            triclinic
loop_
_symmetry_equiv_pos_as_xyz
'x, y, z'
_cell_length_a     25.798622
_cell_length_b     25.864371
_cell_length_c     27.933335
_cell_angle_alpha  90.623594
_cell_angle_beta   90.816415
_cell_angle_gamma 99.59713
loop_
_atom_site_label
_atom_site_type_symbol
_atom_site_fract_x
_atom_site_fract_y
_atom_site_fract_z
_atom_type_partial_charge
H0 H 0.32028 0.29053 0.21497 0.0
C1 C 0.29847 0.27044 0.24415 0.0
C2 C 0.3112 0.22265 0.26043 0.0
C3 C 0.2584 0.29292 0.26579 0.0
H4 H 0.29301 0.16109 0.31228 0.0
C5 C 0.28348 0.19776 0.29927 0.0
C6 C 0.24273 0.21942 0.3207 0.0
C7 C 0.23051 0.26704 0.30379 0.0
C8 C 0.2504 0.34655 0.25295 0.0
H9 H 0.20005 0.28447 0.321 0.0
C10 C 0.20357 0.35646 0.23057 0.0
C11 C 0.19701 0.40854 0.22076 0.0
C12 C 0.29021 0.38877 0.26502 0.0
H13 H 0.32631 0.38196 0.28228 0.0
C14 C 0.28346 0.44011 0.25592 0.0
H15 H 0.17284 0.32412 0.22058 0.0
C16 C 0.2372 0.44999 0.23416 0.0
H17 H 0.23308 0.49017 0.22723 0.0
H18 H 0.31424 0.47243 0.26574 0.0
H19 H 0.30075 0.90136 0.88434 0.0
C20 C 0.31965 0.87425 0.86364 0.0
C21 C 0.3724 0.87052 0.87353 0.0
C22 C 0.29149 0.84475 0.82643 0.0
H23 H 0.43761 0.8325 0.85301 0.0
C24 C 0.39682 0.83551 0.84591 0.0
C25 C 0.36903 0.80579 0.80803 0.0
C26 C 0.31632 0.81071 0.79875 0.0
C27 C 0.23629 0.85064 0.81621 0.0
H28 H 0.29472 0.78815 0.76975 0.0
C29 C 0.22148 0.86796 0.77123 0.0
C30 C 0.16969 0.87648 0.7628 0.0
C31 C 0.19866 0.84139 0.85235 0.0
H32 H 0.20934 0.82833 0.8873 0.0
C33 C 0.14696 0.84885 0.84362 0.0
H34 H 0.25042 0.8763 0.74339 0.0
C35 C 0.13247 0.86642 0.79908 0.0
H36 H 0.09251 0.87291 0.79306 0.0
H37 H 0.11817 0.84155 0.87163 0.0
H38 H 0.77362 0.39368 0.821 0.0
C39 C 0.76459 0.36373 0.84782 0.0
C40 C 0.79253 0.36957 0.89156 0.0
C41 C 0.72274 0.32175 0.84047 0.0
H42 H 0.80224 0.33651 0.96108 0.0
C43 C 0.78139 0.33138 0.92692 0.0
C44 C 0.73891 0.29035 0.92069 0.0
C45 C 0.71029 0.28556 0.87742 0.0
C46 C 0.68716 0.31905 0.79771 0.0
H47 H 0.67601 0.25512 0.87399 0.0
C48 C 0.67446 0.36517 0.77771 0.0
C49 C 0.63543 0.36246 0.74194 0.0
C50 C 0.66152 0.27023 0.77948 0.0
H51 H 0.67125 0.23386 0.79292 0.0
C52 C 0.62174 0.26771 0.74468 0.0
H53 H 0.69296 0.40338 0.79105 0.0
C54 C 0.60775 0.3137 0.72688 0.0
H55 H 0.57577 0.31137 0.70097 0.0
H56 H 0.60127 0.23002 0.73194 0.0
H57 H 0.81195 0.86196 0.31707 0.0
C58 C 0.78057 0.84438 0.34011 0.0
C59 C 0.78471 0.85471 0.38959 0.0
C60 C 0.7372 0.80987 0.32074 0.0
H61 H 0.74965 0.83687 0.45826 0.0
C62 C 0.74535 0.83048 0.41986 0.0
C63 C 0.70218 0.7956 0.40127 0.0
C64 C 0.69746 0.78663 0.35162 0.0
C65 C 0.73588 0.79306 0.26956 0.0
H66 H 0.66462 0.75857 0.33767 0.0
C67 C 0.78103 0.77929 0.24827 0.0
C68 C 0.77752 0.75335 0.2034 0.0
C69 C 0.68818 0.78498 0.24342 0.0
H70 H 0.65301 0.79581 0.25855 0.0
C71 C 0.68506 0.76162 0.19798 0.0
H72 H 0.81803 0.78483 0.26804 0.0
C73 C 0.72906 0.74494 0.17846 0.0
H74 H 0.7251 0.72475 0.14408 0.0
H75 H 0.64797 0.75495 0.17843 0.0
H76 H 0.88878 0.89677 0.94399 0.0
C77 C 0.91467 0.90705 0.91414 0.0
C78 C 0.95432 0.87694 0.90474 0.0
C79 C 0.9069 0.94831 0.8837 0.0
H80 H 0.01543 0.86393 0.85571 0.0
C81 C 0.98611 0.88798 0.86414 0.0
C82 C 0.97887 0.92942 0.83385 0.0
C83 C 0.94073 0.96005 0.84493 0.0
C84 C 0.86115 0.97657 0.88883 0.0
H85 H 0.93635 0.99242 0.82171 0.0
C86 C 0.84172 0.98829 0.93401 0.0
C87 C 0.79702 0.01296 0.937 0.0
C88 C 0.83531 0.99077 0.84728 0.0
H89 H 0.8475 0.98093 0.81187 0.0
C90 C 0.79226 0.01662 0.85051 0.0
H91 H 0.86003 0.97714 0.96658 0.0
C92 C 0.77302 0.02745 0.89506 0.0
H93 H 0.73818 0.04563 0.89684 0.0
H94 H 0.77287 0.02707 0.81827 0.0
H95 H 0.74976 0.19064 0.51568 0.0
C96 C 0.72601 0.18155 0.4834 0.0
C97 C 0.74478 0.15207 0.44741 0.0
C98 C 0.67648 0.19737 0.4792 0.0
H99 H 0.73149 0.11984 0.3766 0.0
C100 C 0.71589 0.14185 0.40464 0.0
C101 C 0.66515 0.15538 0.39951 0.0
C102 C 0.64561 0.18309 0.43743 0.0
C103 C 0.65668 0.22451 0.521 0.0
H104 H 0.606 0.19177 0.43522 0.0
C105 C 0.63187 0.26917 0.51605 0.0
C106 C 0.61939 0.29667 0.55729 0.0
C107 C 0.66602 0.20688 0.56743 0.0
H108 H 0.68323 0.17188 0.5727 0.0
C109 C 0.65438 0.2345 0.60775 0.0
H110 H 0.62338 0.283 0.48079 0.0
C111 C 0.63211 0.27946 0.60262 0.0
H112 H 0.62387 0.30077 0.63411 0.0
H113 H 0.66286 0.22111 0.64315 0.0
H114 H 0.46764 0.73418 0.14964 0.0
C115 C 0.42614 0.71787 0.15135 0.0
C116 C 0.38969 0.74254 0.1269 0.0
C117 C 0.40909 0.67797 0.18372 0.0
H118 H 0.30818 0.74337 0.11148 0.0
C119 C 0.33598 0.72344 0.13038 0.0
C120 C 0.31784 0.6835 0.16267 0.0
C121 C 0.35472 0.66169 0.19018 0.0
C122 C 0.4483 0.65988 0.21574 0.0
H123 H 0.34117 0.63295 0.21714 0.0
C124 C 0.44125 0.66059 0.26531 0.0
C125 C 0.47888 0.64566 0.29652 0.0
C126 C 0.49453 0.64554 0.19756 0.0
H127 H 0.50119 0.64542 0.15936 0.0
C128 C 0.53245 0.63111 0.22871 0.0
H129 H 0.40628 0.67259 0.27989 0.0
C130 C 0.52458 0.6308 0.27813 0.0
H131 H 0.55371 0.61867 0.30191 0.0
H132 H 0.56782 0.61986 0.2145 0.0
H133 H 0.19679 0.43865 0.76965 0.0
C134 C 0.19057 0.41342 0.73812 0.0
C135 C 0.21903 0.42871 0.69696 0.0
C136 C 0.15785 0.36429 0.73997 0.0
H137 H 0.23518 0.40726 0.62428 0.0
C138 C 0.21296 0.39581 0.6562 0.0
C139 C 0.1793 0.34734 0.65728 0.0
C140 C 0.15216 0.33164 0.69926 0.0
C141 C 0.13396 0.34604 0.78596 0.0
H142 H 0.127 0.29364 0.70027 0.0
C143 C 0.1139 0.38159 0.81574 0.0
C144 C 0.10474 0.3706 0.86419 0.0
C145 C 0.13806 0.29606 0.80337 0.0
H146 H 0.15352 0.26775 0.7812 0.0
C147 C 0.1255 0.28349 0.85085 0.0
H148 H 0.10965 0.4199 0.80233 0.0
C149 C 0.11045 0.32111 0.88164 0.0
H150 H 0.10416 0.31201 0.91909 0.0
H151 H 0.12988 0.24539 0.8644 0.0
Zn152 Zn 0.99452 0.10909 0.60615 0.0
Zn153 Zn 0.08877 0.98484 0.49016 0.0
Zn154 Zn 0.04129 0.05385 0.54414 0.0
C155 C 0.12997 0.09109 0.46584 0.0
C156 C 0.9772 0.9714 0.47106 0.0
O157 O 0.0424 0.02219 0.61865 0.0
O158 O 0.99056 0.06236 0.66306 0.0
C159 C 0.08781 0.17071 0.56942 0.0
O160 O 0.10276 0.10245 0.50167 0.0
O161 O 0.12909 0.04392 0.45298 0.0
O162 O 0.01778 0.95068 0.46484 0.0
O163 O 0.97931 0.01306 0.49711 0.0
O164 O 0.0542 0.16847 0.60214 0.0
O165 O 0.08787 0.13204 0.54016 0.0
O166 O 0.96057 0.05679 0.51601 0.0
O167 O 0.93168 0.11315 0.56513 0.0
C168 C 0.92602 0.08537 0.52739 0.0
O169 O 0.07442 0.99815 0.58953 0.0
O170 O 0.12197 0.95223 0.54557 0.0
C171 C 0.01915 0.0275 0.6586 0.0
C172 C 0.1056 0.96423 0.58596 0.0
Zn173 Zn 0.49574 0.12854 0.04922 0.0
Zn174 Zn 0.57909 0.99954 0.14942 0.0
Zn175 Zn 0.54237 0.06873 0.10502 0.0
C176 C 0.65897 0.04348 0.09052 0.0
C177 C 0.50075 0.94178 0.10293 0.0
O178 O 0.50506 0.11713 0.15589 0.0
O179 O 0.45163 0.14592 0.10334 0.0
C180 C 0.60386 0.1567 0.03868 0.0
O181 O 0.6228 0.07012 0.079 0.0
O182 O 0.65228 0.01205 0.12501 0.0
O183 O 0.53822 0.93277 0.12903 0.0
O184 O 0.49668 0.98915 0.0916 0.0
O185 O 0.56219 0.17586 0.03366 0.0
O186 O 0.60344 0.11361 0.06126 0.0
O187 O 0.48326 0.02044 0.05557 0.0
O188 O 0.46587 0.07491 0.99953 0.0
C189 C 0.46295 0.02861 0.01435 0.0
O190 O 0.55063 0.09513 0.18362 0.0
O191 O 0.56447 0.02104 0.21483 0.0
C192 C 0.46571 0.1405 0.14627 0.0
C193 C 0.5626 0.06906 0.22034 0.0
Zn194 Zn 0.57582 0.65758 0.64961 0.0
Zn195 Zn 0.43183 0.52848 0.5587 0.0
Zn196 Zn 0.49656 0.59684 0.59859 0.0
C197 C 0.50874 0.47413 0.56834 0.0
C198 C 0.44814 0.61052 0.49494 0.0
O199 O 0.46051 0.63873 0.65739 0.0
O200 O 0.52763 0.69548 0.68704 0.0
C201 C 0.58524 0.55289 0.66186 0.0
O202 O 0.52306 0.51704 0.59287 0.0
O203 O 0.46632 0.4678 0.54453 0.0
O204 O 0.41661 0.56941 0.50418 0.0
O205 O 0.48663 0.62611 0.5245 0.0
O206 O 0.6028 0.5972 0.68038 0.0
O207 O 0.54931 0.54775 0.62887 0.0
O208 O 0.5343 0.65284 0.54689 0.0
O209 O 0.60611 0.68798 0.58807 0.0
C210 C 0.57962 0.68253 0.54934 0.0
O211 O 0.42418 0.59578 0.63969 0.0
O212 O 0.38004 0.52181 0.60915 0.0
C213 C 0.47896 0.67758 0.68569 0.0
C214 C 0.38373 0.55917 0.63901 0.0
Zn215 Zn 0.08228 0.64396 0.0217 0.0
Zn216 Zn 0.94135 0.53387 0.09712 0.0
Zn217 Zn 0.00993 0.59532 0.05815 0.0
C218 C 0.03454 0.5036 0.12763 0.0
C219 C 0.91927 0.52258 0.9988 0.0
O220 O 0.99121 0.67527 0.04649 0.0
O221 O 0.04015 0.68619 0.98211 0.0
C222 C 0.11061 0.64361 0.11481 0.0
O223 O 0.0501 0.5503 0.1115 0.0
O224 O 0.9866 0.48334 0.12336 0.0
O225 O 0.89716 0.51383 0.03864 0.0
O226 O 0.96729 0.54641 0.99828 0.0
O227 O 0.11395 0.67734 0.08224 0.0
O228 O 0.0786 0.60007 0.10825 0.0
O229 O 0.02006 0.55374 0.99264 0.0
O230 O 0.10555 0.5779 0.99689 0.0
C231 C 0.06627 0.54614 0.98124 0.0
O232 O 0.95842 0.64794 0.08416 0.0
O233 O 0.91867 0.59165 0.13611 0.0
C234 C 1.00476 0.70021 1.00763 0.0
C235 C 0.92677 0.63753 0.1192 0.0
C236 C 0.15902 0.16769 0.35256 0.0
C237 C 0.21214 0.19168 0.36064 0.0
C238 C 0.20955 0.1555 0.4419 0.0
C239 C 0.15626 0.13262 0.43392 0.0
N240 N 0.07646 0.12751 0.3871 0.0
N241 N 0.28431 0.21844 0.41614 0.0
C242 C 0.12978 0.14241 0.391 0.0
C243 C 0.23631 0.1887 0.4064 0.0
N244 N 0.13733 0.16644 0.30751 0.0
N245 N 0.23501 0.14399 0.48263 0.0
H246 H 0.30474 0.24329 0.39106 0.0
H247 H 0.30184 0.22199 0.45007 0.0
H248 H 0.21592 0.12113 0.50973 0.0
H249 H 0.27537 0.15449 0.4884 0.0
H250 H 0.10088 0.14451 0.2983 0.0
H251 H 0.15754 0.18365 0.27811 0.0
H252 H 0.054 0.13813 0.35872 0.0
H253 H 0.05395 0.10876 0.41461 0.0
C254 C 0.44304 0.9466 0.89941 0.0
C255 C 0.40149 0.90582 0.91167 0.0
C256 C 0.40005 0.94496 0.99242 0.0
C257 C 0.44339 0.98389 0.98083 0.0
N258 N 0.51587 0.01143 0.92812 0.0
N259 N 0.35048 0.85867 0.97384 0.0
C260 C 0.46794 0.98142 0.93582 0.0
C261 C 0.38324 0.90262 0.95957 0.0
N262 N 0.45693 0.95433 0.85267 0.0
N263 N 0.37328 0.94963 0.03363 0.0
H264 H 0.33842 0.82665 0.95092 0.0
H265 H 0.33989 0.85186 1.00936 0.0
H266 H 0.38406 0.9804 0.05813 0.0
H267 H 0.33822 0.92525 0.04171 0.0
H268 H 0.4829 0.98704 0.84142 0.0
H269 H 0.43906 0.93096 0.82447 0.0
H270 H 0.53789 0.00735 0.89774 0.0
H271 H 0.53621 0.03627 0.95429 0.0
C272 C 0.5821 0.43479 0.7415 0.0
C273 C 0.62259 0.41124 0.72114 0.0
C274 C 0.64202 0.48332 0.66434 0.0
C275 C 0.59954 0.50514 0.68294 0.0
N276 N 0.52419 0.49911 0.73407 0.0
N277 N 0.68758 0.40842 0.66043 0.0
C278 C 0.56815 0.48014 0.7201 0.0
C279 C 0.65162 0.43421 0.68169 0.0
N280 N 0.55802 0.41454 0.78212 0.0
N281 N 0.67345 0.51009 0.63066 0.0
H282 H 0.69629 0.3729 0.67285 0.0
H283 H 0.70666 0.42024 0.62887 0.0
H284 H 0.66652 0.54557 0.61659 0.0
H285 H 0.70802 0.49909 0.61854 0.0
H286 H 0.53263 0.43329 0.80202 0.0
H287 H 0.56619 0.38048 0.79813 0.0
H288 H 0.49609 0.47914 0.75659 0.0
H289 H 0.5137 0.53347 0.72064 0.0
C290 C 0.84816 0.6962 0.21084 0.0
C291 C 0.82306 0.73135 0.18362 0.0
C292 C 0.87038 0.70949 0.11252 0.0
C293 C 0.8981 0.67735 0.14084 0.0
N294 N 0.9266 0.65751 0.22024 0.0
N295 N 0.82448 0.7839 0.11256 0.0
C296 C 0.89155 0.67681 0.19117 0.0
C297 C 0.83907 0.7423 0.13578 0.0
N298 N 0.82857 0.67776 0.25373 0.0
N299 N 0.87011 0.70611 0.0637 0.0
H300 H 0.80293 0.80961 0.12912 0.0
H301 H 0.83875 0.79594 0.07904 0.0
H302 H 0.88876 0.67983 0.04481 0.0
H303 H 0.84648 0.72553 0.04209 0.0
H304 H 0.84342 0.64856 0.27235 0.0
H305 H 0.79395 0.68662 0.26796 0.0
H306 H 0.92542 0.6599 0.25749 0.0
H307 H 0.96018 0.64502 0.20706 0.0
C308 C 0.34087 0.14899 0.21279 0.0
C309 C 0.35343 0.19865 0.23635 0.0
C310 C 0.44334 0.20817 0.20505 0.0
C311 C 0.43145 0.15737 0.18397 0.0
N312 N 0.37304 0.07478 0.1769 0.0
N313 N 0.42054 0.26913 0.26469 0.0
C314 C 0.38157 0.12623 0.19117 0.0
C315 C 0.40595 0.22634 0.23545 0.0
N316 N 0.28962 0.12501 0.20813 0.0
N317 N 0.48982 0.23958 0.19507 0.0
H318 H 0.39468 0.28265 0.28832 0.0
H319 H 0.45933 0.28793 0.26895 0.0
H320 H 0.51889 0.22657 0.17476 0.0
H321 H 0.49825 0.27913 0.20476 0.0
H322 H 0.27769 0.0916 0.187 0.0
H323 H 0.25822 0.14113 0.22143 0.0
H324 H 0.33935 0.04848 0.18529 0.0
H325 H 0.40203 0.05727 0.16066 0.0
C326 C 0.16534 0.95355 0.70999 0.0
C327 C 0.15472 0.89853 0.7167 0.0
C328 C 0.10917 0.88661 0.63864 0.0
C329 C 0.12377 0.94106 0.6302 0.0
N330 N 0.17275 0.02537 0.65411 0.0
N331 N 0.12309 0.81158 0.6856 0.0
C332 C 0.15379 0.97431 0.66489 0.0
C333 C 0.12856 0.8647 0.68043 0.0
N334 N 0.1851 0.98608 0.7472 0.0
N335 N 0.07479 0.85632 0.6079 0.0
H336 H 0.136 0.79422 0.7161 0.0
H337 H 0.10955 0.78479 0.65829 0.0
H338 H 0.05948 0.87103 0.57711 0.0
H339 H 0.05792 0.81777 0.61491 0.0
H340 H 0.18798 0.02669 0.74637 0.0
H341 H 0.19484 0.97235 0.78056 0.0
H342 H 0.19924 0.05017 0.67593 0.0
H343 H 0.16565 0.04191 0.62127 0.0
C344 C 0.87907 0.43144 0.89538 0.0
C345 C 0.8246 0.42077 0.90511 0.0
C346 C 0.8333 0.49935 0.95602 0.0
C347 C 0.88848 0.50229 0.95486 0.0
N348 N 0.95913 0.49558 0.90149 0.0
N349 N 0.74716 0.4499 0.93575 0.0
C350 C 0.91051 0.47576 0.9178 0.0
C351 C 0.80066 0.45724 0.93183 0.0
N352 N 0.90067 0.39856 0.866 0.0
N353 N 0.81305 0.53773 0.9798 0.0
H354 H 0.72216 0.42099 0.91639 0.0
H355 H 0.72723 0.47149 0.95859 0.0
H356 H 0.8374 0.57004 0.9954 0.0
H357 H 0.7733 0.54035 0.98073 0.0
H358 H 0.94091 0.40187 0.86056 0.0
H359 H 0.87806 0.36668 0.84822 0.0
H360 H 0.97642 0.47977 0.87255 0.0
H361 H 0.97845 0.53244 0.91255 0.0
C362 C 0.63479 0.79261 0.46573 0.0
C363 C 0.66452 0.7654 0.43484 0.0
C364 C 0.62571 0.68215 0.47119 0.0
C365 C 0.6029 0.71033 0.50671 0.0
N366 N 0.58738 0.79265 0.54005 0.0
N367 N 0.69494 0.68477 0.4134 0.0
C368 C 0.60807 0.76574 0.5047 0.0
C369 C 0.66131 0.71014 0.43846 0.0
N370 N 0.63084 0.84369 0.45684 0.0
N371 N 0.61421 0.62863 0.4692 0.0
H372 H 0.72349 0.70379 0.39071 0.0
H373 H 0.69816 0.64562 0.41869 0.0
H374 H 0.58968 0.60666 0.49354 0.0
H375 H 0.6252 0.6064 0.44093 0.0
H376 H 0.60574 0.86423 0.47524 0.0
H377 H 0.64893 0.86408 0.42787 0.0
H378 H 0.59521 0.83333 0.54372 0.0
H379 H 0.56435 0.77404 0.56729 0.0
C380 C 0.10394 0.42717 0.21926 0.0
C381 C 0.15007 0.42142 0.19409 0.0
C382 C 0.11552 0.46023 0.12273 0.0
C383 C 0.07265 0.47241 0.14982 0.0
N384 N 0.0277 0.47064 0.22511 0.0
N385 N 0.20017 0.43068 0.12183 0.0
C386 C 0.06665 0.45568 0.19816 0.0
C387 C 0.1555 0.43677 0.14554 0.0
N388 N 0.09614 0.40574 0.26361 0.0
N389 N 0.11765 0.47055 0.07491 0.0
H390 H 0.22837 0.41042 0.13624 0.0
H391 H 0.21068 0.44737 0.08891 0.0
H392 H 0.09053 0.4896 0.05763 0.0
H393 H 0.14391 0.45746 0.0516 0.0
H394 H 0.06111 0.40349 0.28208 0.0
H395 H 0.12332 0.38603 0.28042 0.0
H396 H 0.02462 0.46519 0.26187 0.0
H397 H 1.00046 0.49251 0.21158 0.0
C398 C 0.69595 0.27461 1.00121 0.0
C399 C 0.71926 0.25491 0.96048 0.0
C400 C 0.67686 0.16559 0.97894 0.0
C401 C 0.65272 0.18579 0.01869 0.0
N402 N 0.65443 0.25444 0.07758 0.0
N403 N 0.74585 0.1812 0.92007 0.0
C404 C 0.668 0.23862 0.03334 0.0
C405 C 0.71476 0.19999 0.95295 0.0
N406 N 0.69604 0.32713 1.0072 0.0
N407 N 0.66097 0.11493 0.96386 0.0
H408 H 0.77418 0.20595 0.901 0.0
H409 H 0.74712 0.14147 0.91527 0.0
H410 H 0.6334 0.08852 0.982 0.0
H411 H 0.67287 0.09998 0.93184 0.0
H412 H 0.67415 0.34244 0.03326 0.0
H413 H 0.71408 0.35543 0.98396 0.0
H414 H 0.66827 0.29162 0.09193 0.0
H415 H 0.63393 0.22834 0.10172 0.0
C416 C 0.8677 0.8599 0.43823 0.0
C417 C 0.8334 0.88583 0.41076 0.0
C418 C 0.89438 0.96885 0.42106 0.0
C419 C 0.92606 0.94359 0.45208 0.0
N420 N 0.93451 0.86854 0.50057 0.0
N421 N 0.80843 0.96672 0.38401 0.0
C422 C 0.91025 0.8901 0.46375 0.0
C423 C 0.84498 0.94093 0.40456 0.0
N424 N 0.8608 0.80633 0.43873 0.0
N425 N 0.91243 0.01837 0.40548 0.0
H426 H 0.77195 0.94741 0.37142 0.0
H427 H 0.81246 0.00747 0.38336 0.0
H428 H 0.94897 0.03951 0.41578 0.0
H429 H 0.89314 0.03675 0.37929 0.0
H430 H 0.88798 0.7857 0.45427 0.0
H431 H 0.8308 0.78245 0.41959 0.0
H432 H 0.921 0.83114 0.51349 0.0
H433 H 0.96441 0.88993 0.52175 0.0
C434 C 0.40293 0.78296 0.72718 0.0
C435 C 0.39518 0.77077 0.7764 0.0
C436 C 0.4395 0.69422 0.76547 0.0
C437 C 0.4439 0.70453 0.71572 0.0
N438 N 0.42109 0.75266 0.6475 0.0
N439 N 0.39636 0.70863 0.83999 0.0
C440 C 0.4225 0.74684 0.69606 0.0
C441 C 0.41063 0.72452 0.79486 0.0
N442 N 0.39432 0.83041 0.71064 0.0
N443 N 0.46427 0.65649 0.78497 0.0
H444 H 0.37499 0.7295 0.86237 0.0
H445 H 0.4016 0.67252 0.85365 0.0
H446 H 0.48465 0.63281 0.76444 0.0
H447 H 0.46766 0.65107 0.8217 0.0
H448 H 0.40447 0.84392 0.67649 0.0
H449 H 0.38167 0.85867 0.73246 0.0
H450 H 0.40122 0.77944 0.63058 0.0
H451 H 0.43576 0.7274 0.62379 0.0
C452 C 0.98414 0.91609 0.745 0.0
C453 C 1.00703 0.94056 0.78775 0.0
C454 C 0.05275 0.01409 0.74168 0.0
C455 C 0.02481 0.99279 0.69991 0.0
N456 N 0.97767 0.91709 0.65804 0.0
N457 N 0.07527 1.00224 0.82548 0.0
C458 C 0.99556 0.94124 0.70026 0.0
C459 C 0.04593 0.98596 0.78539 0.0
N460 N 0.94855 0.87081 0.74781 0.0
N461 N 0.08413 0.06208 0.73967 0.0
H462 H 0.07041 0.98141 0.85738 0.0
H463 H 0.10687 0.03303 0.82619 0.0
H464 H 0.09194 0.08191 0.70753 0.0
H465 H 0.10152 0.08274 0.76953 0.0
H466 H 0.92518 0.85407 0.71918 0.0
H467 H 0.94119 0.85064 0.77979 0.0
H468 H 0.9602 0.87789 0.65519 0.0
H469 H 0.98426 0.93515 0.62499 0.0
C470 C 0.63264 0.08201 0.34148 0.0
C471 C 0.63175 0.13422 0.35657 0.0
C472 C 0.5733 0.14107 0.28717 0.0
C473 C 0.58568 0.09393 0.26699 0.0
N474 N 0.65005 0.03462 0.2716 0.0
N475 N 0.60673 0.2177 0.33605 0.0
C476 C 0.62187 0.0684 0.29312 0.0
C477 C 0.60349 0.16528 0.32734 0.0
N478 N 0.64429 0.04533 0.37274 0.0
N479 N 0.53149 0.16131 0.27023 0.0
H480 H 0.63088 0.23763 0.36283 0.0
H481 H 0.58961 0.24194 0.31322 0.0
H482 H 0.50559 0.14068 0.2453 0.0
H483 H 0.5189 0.19367 0.28604 0.0
H484 H 0.64338 0.00627 0.36239 0.0
H485 H 0.64823 0.05281 0.40948 0.0
H486 H 0.67796 0.01756 0.29045 0.0
H487 H 0.65227 0.03067 0.23453 0.0
C488 C 0.42552 0.60356 0.36342 0.0
C489 C 0.46747 0.64211 0.3482 0.0
C490 C 0.48044 0.67634 0.43056 0.0
C491 C 0.44477 0.63256 0.4459 0.0
N492 N 0.3607 0.58109 0.42421 0.0
N493 N 0.53296 0.71842 0.36602 0.0
C494 C 0.41006 0.60406 0.41155 0.0
C495 C 0.49411 0.67998 0.38133 0.0
N496 N 0.40179 0.56506 0.33261 0.0
N497 N 0.49539 0.71712 0.46171 0.0
H498 H 0.54248 0.72354 0.33003 0.0
H499 H 0.55735 0.7436 0.38925 0.0
H500 H 0.48137 0.71651 0.49661 0.0
H501 H 0.51516 0.75353 0.45119 0.0
H502 H 0.37456 0.53324 0.34379 0.0
H503 H 0.41283 0.562 0.29705 0.0
H504 H 0.33255 0.56307 0.3995 0.0
H505 H 0.34556 0.58736 0.45784 0.0
C506 C 0.1306 0.46187 0.89681 0.0
C507 C 0.09516 0.41363 0.89686 0.0
C508 C 0.04424 0.44955 0.9583 0.0
C509 C 0.07427 0.50038 0.95133 0.0
N510 N 0.13714 0.55558 0.9024 0.0
N511 N 0.01164 0.36518 0.92139 0.0
C512 C 0.11493 0.50682 0.91721 0.0
C513 C 0.04997 0.40836 0.92582 0.0
N514 N 0.17982 0.46468 0.87851 0.0
N515 N 0.01187 0.43956 0.99655 0.0
H516 H 0.01323 0.33508 0.89662 0.0
H517 H 0.97575 0.36209 0.93872 0.0
H518 H 0.00834 0.46717 0.02309 0.0
H519 H 0.99313 0.40194 1.00492 0.0
H520 H 0.2081 0.49851 0.88115 0.0
H521 H 0.19428 0.43177 0.86602 0.0
H522 H 0.16411 0.56126 0.87471 0.0
H523 H 0.12384 0.58973 0.91321 0.0
C524 C 0.73147 0.97685 0.99742 0.0
C525 C 0.7703 0.01879 0.98301 0.0
C526 C 0.74148 0.07603 0.04467 0.0
C527 C 0.69886 0.03575 0.05477 0.0
N528 N 0.64683 0.95159 0.03356 0.0
N529 N 0.81236 0.10889 0.99074 0.0
C530 C 0.69235 0.98696 0.02957 0.0
C531 C 0.77563 0.06858 1.00632 0.0
N532 N 0.73143 0.9273 0.97981 0.0
N533 N 0.7492 0.121 0.07182 0.0
H534 H 0.83937 0.10374 0.96436 0.0
H535 H 0.81471 0.14764 1.0022 0.0
H536 H 0.72403 0.12755 0.09933 0.0
H537 H 0.78185 0.15038 0.06912 0.0
H538 H 0.70772 0.89422 0.9932 0.0
H539 H 0.75847 0.91836 0.95495 0.0
H540 H 0.63741 0.91832 0.01177 0.0
H541 H 0.61566 0.95779 0.05502 0.0
C542 C 0.78558 0.07974 0.48427 0.0
C543 C 0.79182 0.12693 0.4576 0.0
C544 C 0.8877 0.13239 0.46178 0.0
C545 C 0.88129 0.09072 0.4949 0.0
N546 N 0.82635 0.0207 0.53447 0.0
N547 N 0.8477 0.19733 0.4187 0.0
C548 C 0.83077 0.06253 0.50444 0.0
C549 C 0.84265 0.15246 0.44488 0.0
N550 N 0.73631 0.05194 0.49065 0.0
N551 N 0.93711 0.15278 0.447 0.0
H552 H 0.81543 0.21194 0.40467 0.0
H553 H 0.8834 0.22139 0.41244 0.0
H554 H 0.9705 0.13859 0.45903 0.0
H555 H 0.94491 0.1804 0.42013 0.0
H556 H 0.72874 0.01502 0.50592 0.0
H557 H 0.7024 0.06462 0.47808 0.0
H558 H 0.79098 1.00121 0.54759 0.0
H559 H 0.85912 1.00592 0.54724 0.0
C560 C 0.2308 0.71121 0.1787 0.0
C561 C 0.26013 0.67 0.17047 0.0
C562 C 0.17711 0.61021 0.16588 0.0
C563 C 0.15151 0.65191 0.15351 0.0
N564 N 0.14968 0.74408 0.16164 0.0
N565 N 0.25756 0.57642 0.157 0.0
C566 C 0.17686 0.70331 0.165 0.0
C567 C 0.23249 0.61795 0.16527 0.0
N568 N 0.25428 0.75676 0.20027 0.0
N569 N 0.14902 0.56577 0.1832 0.0
H570 H 0.29807 0.58 0.15319 0.0
H571 H 0.23667 0.53892 0.14988 0.0
H572 H 0.1093 0.56432 0.1907 0.0
H573 H 0.16713 0.53602 0.19721 0.0
H574 H 0.23429 0.78722 0.20929 0.0
H575 H 0.29219 0.76056 0.21459 0.0
H576 H 0.16744 0.78327 0.16429 0.0
H577 H 0.10914 0.73782 0.15503 0.0
C578 C 0.24829 0.52074 0.66969 0.0
C579 C 0.25816 0.47768 0.69741 0.0
C580 C 0.34808 0.52225 0.71296 0.0
C581 C 0.34213 0.55559 0.67463 0.0
N582 N 0.28667 0.59721 0.62415 0.0
N583 N 0.31665 0.43858 0.74919 0.0
C584 C 0.29154 0.55936 0.65676 0.0
C585 C 0.30737 0.4795 0.72159 0.0
N586 N 0.19811 0.52353 0.65502 0.0
N587 N 0.39445 0.52959 0.73806 0.0
H588 H 0.28824 0.40592 0.75574 0.0
H589 H 0.35348 0.43545 0.76344 0.0
H590 H 0.42459 0.56025 0.72989 0.0
H591 H 0.40098 0.50893 0.76874 0.0
H592 H 0.18766 0.55513 0.63667 0.0
H593 H 0.1661 0.4954 0.6644 0.0
H594 H 0.25213 0.59996 0.60539 0.0
H595 H 0.31882 0.62573 0.61569 0.0
C596 C 0.99664 0.84011 0.97604 0.0
C597 C 0.96088 0.83205 0.93641 0.0
C598 C 0.94357 0.73733 0.95228 0.0
C599 C 0.98056 0.74528 0.99084 0.0
N600 N 0.03338 0.8037 0.04647 0.0
N601 N 0.8925 0.77548 0.89235 0.0
C602 C 1.00397 0.79672 1.0051 0.0
C603 C 0.93167 0.78136 0.92646 0.0
N604 N 0.02499 0.88897 0.98469 0.0
N605 N 0.92149 0.68727 0.93931 0.0
H606 H 0.8839 0.8065 0.8718 0.0
H607 H 0.86615 0.74085 0.88641 0.0
H608 H 0.92709 0.65472 0.95931 0.0
H609 H 0.89922 0.67756 0.90818 0.0
H610 H 0.05582 0.89681 1.00951 0.0
H611 H 0.01954 0.92176 0.96502 0.0
H612 H 0.04835 0.8402 0.06151 0.0
H613 H 0.03909 0.77243 0.06812 0.0
C614 C 0.40102 0.8383 0.14366 0.0
C615 C 0.40688 0.79687 0.11144 0.0
C616 C 0.46297 0.85842 0.06101 0.0
C617 C 0.45718 0.89874 0.09407 0.0
N618 N 0.4054 0.93161 0.15453 0.0
N619 N 0.43236 0.76861 0.03412 0.0
C620 C 0.41976 0.89018 0.13042 0.0
C621 C 0.43384 0.8074 0.06786 0.0
N622 N 0.38334 0.82812 0.18904 0.0
N623 N 0.49793 0.86876 0.02475 0.0
H624 H 0.41151 0.7309 0.0391 0.0
H625 H 0.44815 0.77485 1.00017 0.0
H626 H 0.51768 0.90668 0.01853 0.0
H627 H 0.50815 0.84006 1.00202 0.0
H628 H 0.38285 0.85729 0.21498 0.0
H629 H 0.37579 0.79047 0.20285 0.0
H630 H 0.37514 0.9273 0.17925 0.0
H631 H 0.41997 0.97033 0.14578 0.0
C632 C 0.13201 0.31196 0.58206 0.0
C633 C 0.17318 0.31046 0.61584 0.0
C634 C 0.17481 0.21864 0.59579 0.0
C635 C 0.12824 0.21809 0.56832 0.0
N636 N 0.07365 0.26453 0.52103 0.0
N637 N 0.24568 0.27034 0.64266 0.0
C638 C 0.11128 0.26542 0.55601 0.0
C639 C 0.19915 0.26644 0.61789 0.0
N640 N 0.11064 0.3566 0.57773 0.0
N641 N 0.19257 0.1726 0.60398 0.0
H642 H 0.26345 0.30538 0.65917 0.0
H643 H 0.26855 0.24081 0.64356 0.0
H644 H 0.17553 0.13755 0.58713 0.0
H645 H 0.22286 0.1687 0.62797 0.0
H646 H 0.07705 0.35905 0.55742 0.0
H647 H 0.12645 0.39141 0.59563 0.0
H648 H 0.06069 0.29783 0.50813 0.0
H649 H 0.05854 0.22998 0.50228 0.0
C650 C 0.53874 0.33583 0.57296 0.0
C651 C 0.59075 0.34234 0.55535 0.0
C652 C 0.59035 0.43694 0.54705 0.0
C653 C 0.54009 0.43071 0.56849 0.0
N654 N 0.47184 0.37632 0.61157 0.0
N655 N 0.66947 0.4001 0.53256 0.0
C656 C 0.51587 0.38068 0.58424 0.0
C657 C 0.61756 0.39324 0.54424 0.0
N658 N 0.51073 0.28649 0.57795 0.0
N659 N 0.61128 0.48403 0.52781 0.0
H660 H 0.69026 0.36899 0.52919 0.0
H661 H 0.69286 0.43682 0.52965 0.0
H662 H 0.59314 0.51708 0.53002 0.0
H663 H 0.64487 0.48948 0.507 0.0
H664 H 0.47093 0.27919 0.5861 0.0
H665 H 0.52592 0.25269 0.5693 0.0
H666 H 0.45541 0.34178 0.6283 0.0
H667 H 0.45488 0.40863 0.62165 0.0
loop_
_geom_bond_atom_site_label_1
_geom_bond_atom_site_label_2
_geom_bond_distance
_geom_bond_site_symmetry_2
_ccdc_geom_bond_type
H0 C1 0.949 . S
C1 H0 0.949 . S
C1 C2 1.395 . S
C1 C3 1.391 . S
C2 C1 1.395 . S
C2 C5 1.390 . S
C3 C1 1.391 . S
C3 C7 1.387 . S
C3 C8 1.491 . S
H4 C5 0.950 . S
C5 C2 1.390 . S
C5 H4 0.950 . S
C5 C6 1.378 . S
C6 C5 1.378 . S
C6 C7 1.409 . S
C7 C3 1.387 . S
C7 C6 1.409 . S
C7 H9 0.951 . S
C8 C3 1.491 . S
C8 C10 1.382 . S
C8 C12 1.404 . S
H9 C7 0.951 . S
C10 C8 1.382 . S
C10 C11 1.390 . S
C10 H15 0.949 . S
C11 C10 1.390 . S
C11 C16 1.399 . S
C12 C8 1.404 . S
C12 H13 0.950 . S
C12 C14 1.375 . S
H13 C12 0.950 . S
C14 C12 1.375 . S
C14 C16 1.382 . S
C14 H18 0.950 . S
H15 C10 0.949 . S
C16 C11 1.399 . S
C16 C14 1.382 . S
C16 H17 0.952 . S
H17 C16 0.952 . S
H18 C14 0.950 . S
H19 C20 0.949 . S
C20 H19 0.949 . S
C20 C21 1.395 . S
C20 C22 1.391 . S
C21 C20 1.395 . S
C21 C24 1.390 . S
C22 C20 1.391 . S
C22 C26 1.387 . S
C22 C27 1.491 . S
H23 C24 0.950 . S
C24 C21 1.390 . S
C24 H23 0.950 . S
C24 C25 1.378 . S
C25 C24 1.378 . S
C25 C26 1.409 . S
C26 C22 1.387 . S
C26 C25 1.409 . S
C26 H28 0.951 . S
C27 C22 1.491 . S
C27 C29 1.382 . S
C27 C31 1.404 . S
H28 C26 0.951 . S
C29 C27 1.382 . S
C29 C30 1.390 . S
C29 H34 0.949 . S
C30 C29 1.390 . S
C30 C35 1.399 . S
C31 C27 1.404 . S
C31 H32 0.950 . S
C31 C33 1.375 . S
H32 C31 0.950 . S
C33 C31 1.375 . S
C33 C35 1.382 . S
C33 H37 0.950 . S
H34 C29 0.949 . S
C35 C30 1.399 . S
C35 C33 1.382 . S
C35 H36 0.952 . S
H36 C35 0.952 . S
H37 C33 0.950 . S
H38 C39 0.949 . S
C39 H38 0.949 . S
C39 C40 1.395 . S
C39 C41 1.391 . S
C40 C39 1.395 . S
C40 C43 1.390 . S
C41 C39 1.391 . S
C41 C45 1.387 . S
C41 C46 1.491 . S
H42 C43 0.950 . S
C43 C40 1.390 . S
C43 H42 0.950 . S
C43 C44 1.378 . S
C44 C43 1.378 . S
C44 C45 1.409 . S
C45 C41 1.387 . S
C45 C44 1.409 . S
C45 H47 0.951 . S
C46 C41 1.491 . S
C46 C48 1.382 . S
C46 C50 1.404 . S
H47 C45 0.951 . S
C48 C46 1.382 . S
C48 C49 1.390 . S
C48 H53 0.949 . S
C49 C48 1.390 . S
C49 C54 1.399 . S
C50 C46 1.404 . S
C50 H51 0.950 . S
C50 C52 1.375 . S
H51 C50 0.950 . S
C52 C50 1.375 . S
C52 C54 1.382 . S
C52 H56 0.950 . S
H53 C48 0.949 . S
C54 C49 1.399 . S
C54 C52 1.382 . S
C54 H55 0.952 . S
H55 C54 0.952 . S
H56 C52 0.950 . S
H57 C58 0.949 . S
C58 H57 0.949 . S
C58 C59 1.395 . S
C58 C60 1.391 . S
C59 C58 1.395 . S
C59 C62 1.390 . S
C60 C58 1.391 . S
C60 C64 1.387 . S
C60 C65 1.491 . S
H61 C62 0.950 . S
C62 C59 1.390 . S
C62 H61 0.950 . S
C62 C63 1.378 . S
C63 C62 1.378 . S
C63 C64 1.409 . S
C64 C60 1.387 . S
C64 C63 1.409 . S
C64 H66 0.951 . S
C65 C60 1.491 . S
C65 C67 1.382 . S
C65 C69 1.404 . S
H66 C64 0.951 . S
C67 C65 1.382 . S
C67 C68 1.390 . S
C67 H72 0.949 . S
C68 C67 1.390 . S
C68 C73 1.399 . S
C69 C65 1.404 . S
C69 H70 0.950 . S
C69 C71 1.375 . S
H70 C69 0.950 . S
C71 C69 1.375 . S
C71 C73 1.382 . S
C71 H75 0.950 . S
H72 C67 0.949 . S
C73 C68 1.399 . S
C73 C71 1.382 . S
C73 H74 0.952 . S
H74 C73 0.952 . S
H75 C71 0.950 . S
H76 C77 0.969 . S
C77 H76 0.969 . S
C77 C78 1.395 . S
C77 C79 1.391 . S
C78 C77 1.395 . S
C78 C81 1.390 1_655 S
C79 C77 1.391 . S
C79 C83 1.387 1_565 S
C79 C84 1.491 1_565 S
H80 C81 0.950 . S
C81 C78 1.390 1_455 S
C81 H80 0.950 . S
C81 C82 1.378 1_455 S
C82 C81 1.378 1_655 S
C82 C83 1.409 1_565 S
C83 C79 1.387 1_545 S
C83 C82 1.409 1_545 S
C83 H85 0.951 . S
C84 C79 1.491 1_545 S
C84 C86 1.382 1_556 S
C84 C88 1.404 . S
H85 C83 0.951 . S
C86 C84 1.382 1_554 S
C86 C87 1.390 . S
C86 H91 0.949 . S
C87 C86 1.390 . S
C87 C92 1.399 1_554 S
C88 C84 1.404 . S
C88 H89 0.950 . S
C88 C90 1.375 . S
H89 C88 0.950 . S
C90 C88 1.375 . S
C90 C92 1.382 . S
C90 H94 0.950 . S
H91 C86 0.949 . S
C92 C87 1.399 1_556 S
C92 C90 1.382 . S
C92 H93 0.952 . S
H93 C92 0.952 . S
H94 C90 0.950 . S
H95 C96 0.949 . S
C96 H95 0.949 . S
C96 C97 1.395 . S
C96 C98 1.391 . S
C97 C96 1.395 . S
C97 C100 1.390 . S
C98 C96 1.391 . S
C98 C102 1.387 . S
C98 C103 1.491 . S
H99 C100 0.950 . S
C100 C97 1.390 . S
C100 H99 0.950 . S
C100 C101 1.378 . S
C101 C100 1.378 . S
C101 C102 1.409 . S
C102 C98 1.387 . S
C102 C101 1.409 . S
C102 H104 0.951 . S
C103 C98 1.491 . S
C103 C105 1.382 . S
C103 C107 1.404 . S
H104 C102 0.951 . S
C105 C103 1.382 . S
C105 C106 1.390 . S
C105 H110 0.949 . S
C106 C105 1.390 . S
C106 C111 1.399 . S
C107 C103 1.404 . S
C107 H108 0.950 . S
C107 C109 1.375 . S
H108 C107 0.950 . S
C109 C107 1.375 . S
C109 C111 1.382 . S
C109 H113 0.950 . S
H110 C105 0.949 . S
C111 C106 1.399 . S
C111 C109 1.382 . S
C111 H112 0.952 . S
H112 C111 0.952 . S
H113 C109 0.950 . S
H114 C115 0.949 . S
C115 H114 0.949 . S
C115 C116 1.395 . S
C115 C117 1.391 . S
C116 C115 1.395 . S
C116 C119 1.390 . S
C117 C115 1.391 . S
C117 C121 1.387 . S
C117 C122 1.491 . S
H118 C119 0.950 . S
C119 C116 1.390 . S
C119 H118 0.950 . S
C119 C120 1.378 . S
C120 C119 1.378 . S
C120 C121 1.409 . S
C121 C117 1.387 . S
C121 C120 1.409 . S
C121 H123 0.951 . S
C122 C117 1.491 . S
C122 C124 1.382 . S
C122 C126 1.404 . S
H123 C121 0.951 . S
C124 C122 1.382 . S
C124 C125 1.390 . S
C124 H129 0.949 . S
C125 C124 1.390 . S
C125 C130 1.399 . S
C126 C122 1.404 . S
C126 H127 0.950 . S
C126 C128 1.375 . S
H127 C126 0.950 . S
C128 C126 1.375 . S
C128 C130 1.382 . S
C128 H132 0.950 . S
H129 C124 0.949 . S
C130 C125 1.399 . S
C130 C128 1.382 . S
C130 H131 0.952 . S
H131 C130 0.952 . S
H132 C128 0.950 . S
H133 C134 0.949 . S
C134 H133 0.949 . S
C134 C135 1.395 . S
C134 C136 1.391 . S
C135 C134 1.395 . S
C135 C138 1.390 . S
C136 C134 1.391 . S
C136 C140 1.387 . S
C136 C141 1.491 . S
H137 C138 0.950 . S
C138 C135 1.390 . S
C138 H137 0.950 . S
C138 C139 1.378 . S
C139 C138 1.378 . S
C139 C140 1.409 . S
C140 C136 1.387 . S
C140 C139 1.409 . S
C140 H142 0.951 . S
C141 C136 1.491 . S
C141 C143 1.382 . S
C141 C145 1.404 . S
H142 C140 0.951 . S
C143 C141 1.382 . S
C143 C144 1.390 . S
C143 H148 0.949 . S
C144 C143 1.390 . S
C144 C149 1.399 . S
C145 C141 1.404 . S
C145 H146 0.950 . S
C145 C147 1.375 . S
H146 C145 0.950 . S
C147 C145 1.375 . S
C147 C149 1.382 . S
C147 H151 0.950 . S
H148 C143 0.949 . S
C149 C144 1.399 . S
C149 C147 1.382 . S
C149 H150 0.952 . S
H150 C149 0.952 . S
H151 C147 0.950 . S
Zn152 O158 1.920 . S
Zn152 O164 1.898 . S
Zn152 O167 1.905 . S
Zn153 O161 1.905 1_565 S
Zn153 O162 1.898 . S
Zn153 O170 1.920 . S
Zn154 O157 2.080 1_455 S
Zn154 O160 2.114 . S
Zn154 O163 2.120 1_445 S
Zn154 O165 2.120 . S
Zn154 O166 2.114 1_455 S
Zn154 O169 2.080 . S
C155 O160 1.166 . S
C155 O161 1.182 . S
C156 O162 1.167 1_655 S
C156 O163 1.299 . S
O157 Zn154 2.080 1_655 S
O157 C171 1.305 . S
O158 Zn152 1.920 . S
O158 C171 1.234 . S
C159 O164 1.167 1_455 S
C159 O165 1.299 . S
O160 Zn154 2.114 . S
O160 C155 1.166 . S
O161 Zn153 1.905 1_545 S
O161 C155 1.182 . S
O162 Zn153 1.898 . S
O162 C156 1.167 1_455 S
O163 Zn154 2.120 1_665 S
O163 C156 1.299 . S
O164 Zn152 1.898 . S
O164 C159 1.167 1_655 S
O165 Zn154 2.120 . S
O165 C159 1.299 . S
O166 Zn154 2.114 1_655 S
O166 C168 1.166 . S
O167 Zn152 1.905 . S
O167 C168 1.182 . S
C168 O166 1.166 . S
C168 O167 1.182 . S
O169 Zn154 2.080 . S
O169 C172 1.305 1_545 S
O170 Zn153 1.920 . S
O170 C172 1.234 . S
C171 O157 1.305 . S
C171 O158 1.234 . S
C172 O169 1.305 1_565 S
C172 O170 1.234 . S
Zn173 O179 1.920 . S
Zn173 O185 1.898 . S
Zn173 O188 1.905 1_554 S
Zn174 O182 1.905 . S
Zn174 O183 1.898 . S
Zn174 O191 1.920 1_565 S
Zn175 O178 2.080 . S
Zn175 O181 2.114 . S
Zn175 O184 2.120 1_545 S
Zn175 O186 2.120 . S
Zn175 O187 2.114 . S
Zn175 O190 2.080 . S
C176 O181 1.166 . S
C176 O182 1.182 1_545 S
C177 O183 1.167 . S
C177 O184 1.299 . S
O178 Zn175 2.080 . S
O178 C192 1.305 . S
O179 Zn173 1.920 . S
O179 C192 1.234 . S
C180 O185 1.167 . S
C180 O186 1.299 . S
O181 Zn175 2.114 . S
O181 C176 1.166 . S
O182 Zn174 1.905 . S
O182 C176 1.182 1_565 S
O183 Zn174 1.898 . S
O183 C177 1.167 . S
O184 Zn175 2.120 1_565 S
O184 C177 1.299 . S
O185 Zn173 1.898 . S
O185 C180 1.167 . S
O186 Zn175 2.120 . S
O186 C180 1.299 . S
O187 Zn175 2.114 . S
O187 C189 1.165 . S
O188 Zn173 1.905 1_556 S
O188 C189 1.198 1_556 S
C189 O187 1.165 . S
C189 O188 1.198 1_554 S
O190 Zn175 2.080 . S
O190 C193 1.305 . S
O191 Zn174 1.920 1_545 S
O191 C193 1.234 . S
C192 O178 1.305 . S
C192 O179 1.234 . S
C193 O190 1.305 . S
C193 O191 1.234 . S
Zn194 O200 1.920 . S
Zn194 O206 1.898 . S
Zn194 O209 1.905 . S
Zn195 O203 1.905 . S
Zn195 O204 1.898 . S
Zn195 O212 1.920 . S
Zn196 O199 2.080 . S
Zn196 O202 2.114 . S
Zn196 O205 2.120 . S
Zn196 O207 2.120 . S
Zn196 O208 2.114 . S
Zn196 O211 2.080 . S
C197 O202 1.166 . S
C197 O203 1.182 . S
C198 O204 1.167 . S
C198 O205 1.299 . S
O199 Zn196 2.080 . S
O199 C213 1.305 . S
O200 Zn194 1.920 . S
O200 C213 1.234 . S
C201 O206 1.167 . S
C201 O207 1.299 . S
O202 Zn196 2.114 . S
O202 C197 1.166 . S
O203 Zn195 1.905 . S
O203 C197 1.182 . S
O204 Zn195 1.898 . S
O204 C198 1.167 . S
O205 Zn196 2.120 . S
O205 C198 1.299 . S
O206 Zn194 1.898 . S
O206 C201 1.167 . S
O207 Zn196 2.120 . S
O207 C201 1.299 . S
O208 Zn196 2.114 . S
O208 C210 1.166 . S
O209 Zn194 1.905 . S
O209 C210 1.182 . S
C210 O208 1.166 . S
C210 O209 1.182 . S
O211 Zn196 2.080 . S
O211 C214 1.305 . S
O212 Zn195 1.920 . S
O212 C214 1.234 . S
C213 O199 1.305 . S
C213 O200 1.234 . S
C214 O211 1.305 . S
C214 O212 1.234 . S
Zn215 O221 1.920 . S
Zn215 O227 1.898 . S
Zn215 O230 1.905 . S
Zn216 O224 1.905 1_655 S
Zn216 O225 1.898 . S
Zn216 O233 1.920 . S
Zn217 O220 2.080 1_554 S
Zn217 O223 2.114 . S
Zn217 O226 2.120 1_455 S
Zn217 O228 2.120 . S
Zn217 O229 2.114 1_554 S
Zn217 O232 2.080 . S
C218 O223 1.166 . S
C218 O224 1.182 . S
C219 O225 1.167 1_556 S
C219 O226 1.299 1_556 S
O220 Zn217 2.080 1_556 S
O220 C234 1.305 . S
O221 Zn215 1.920 . S
O221 C234 1.234 . S
C222 O227 1.167 1_554 S
C222 O228 1.299 . S
O223 Zn217 2.114 . S
O223 C218 1.166 . S
O224 Zn216 1.905 1_455 S
O224 C218 1.182 . S
O225 Zn216 1.898 . S
O225 C219 1.167 1_554 S
O226 Zn217 2.120 1_655 S
O226 C219 1.299 1_554 S
O227 Zn215 1.898 . S
O227 C222 1.167 1_556 S
O228 Zn217 2.120 . S
O228 C222 1.299 . S
O229 Zn217 2.114 1_556 S
O229 C231 1.166 . S
O230 Zn215 1.905 . S
O230 C231 1.182 . S
C231 O229 1.166 . S
C231 O230 1.182 . S
O232 Zn217 2.080 . S
O232 C235 1.305 1_455 S
O233 Zn216 1.920 . S
O233 C235 1.234 . S
C234 O220 1.305 . S
C234 O221 1.234 . S
C235 O232 1.305 1_655 S
C235 O233 1.234 . S
C236 C237 1.363 . S
C236 C242 1.379 . S
C236 N244 1.356 . S
C237 C236 1.363 . S
C237 C243 1.363 . S
C238 C239 1.363 . S
C238 C243 1.379 . S
C238 N245 1.356 . S
C239 C238 1.363 . S
C239 C242 1.363 . S
N240 C242 1.356 . S
N240 H252 0.984 . S
N240 H253 0.985 . S
N241 C243 1.356 . S
N241 H246 0.984 . S
N241 H247 0.985 . S
C242 C236 1.379 . S
C242 C239 1.363 . S
C242 N240 1.356 . S
C243 C237 1.363 . S
C243 C238 1.379 . S
C243 N241 1.356 . S
N244 C236 1.356 . S
N244 H250 0.984 . S
N244 H251 0.984 . S
N245 C238 1.356 . S
N245 H248 0.984 . S
N245 H249 0.985 . S
H246 N241 0.984 . S
H247 N241 0.985 . S
H248 N245 0.984 . S
H249 N245 0.985 . S
H250 N244 0.984 . S
H251 N244 0.984 . S
H252 N240 0.984 . S
H253 N240 0.985 . S
C254 C255 1.363 . S
C254 C260 1.379 . S
C254 N262 1.356 . S
C255 C254 1.363 . S
C255 C261 1.363 . S
C256 C257 1.363 . S
C256 C261 1.379 . S
C256 N263 1.356 . S
C257 C256 1.363 . S
C257 C260 1.363 . S
N258 C260 1.356 1_545 S
N258 H270 0.984 . S
N258 H271 0.985 . S
N259 C261 1.356 . S
N259 H264 0.984 . S
N259 H265 0.985 . S
C260 C254 1.379 . S
C260 C257 1.363 . S
C260 N258 1.356 1_565 S
C261 C255 1.363 . S
C261 C256 1.379 . S
C261 N259 1.356 . S
N262 C254 1.356 . S
N262 H268 0.984 1_565 S
N262 H269 0.984 . S
N263 C256 1.356 . S
N263 H266 0.984 1_556 S
N263 H267 0.985 1_556 S
H264 N259 0.984 . S
H265 N259 0.985 . S
H266 N263 0.984 1_554 S
H267 N263 0.985 1_554 S
H268 N262 0.984 1_545 S
H269 N262 0.984 . S
H270 N258 0.984 . S
H271 N258 0.985 . S
C272 C273 1.363 . S
C272 C278 1.379 . S
C272 N280 1.356 . S
C273 C272 1.363 . S
C273 C279 1.363 . S
C274 C275 1.363 . S
C274 C279 1.379 . S
C274 N281 1.356 . S
C275 C274 1.363 . S
C275 C278 1.363 . S
N276 C278 1.356 . S
N276 H288 0.984 . S
N276 H289 0.985 . S
N277 C279 1.356 . S
N277 H282 0.984 . S
N277 H283 0.985 . S
C278 C272 1.379 . S
C278 C275 1.363 . S
C278 N276 1.356 . S
C279 C273 1.363 . S
C279 C274 1.379 . S
C279 N277 1.356 . S
N280 C272 1.356 . S
N280 H286 0.984 . S
N280 H287 0.984 . S
N281 C274 1.356 . S
N281 H284 0.984 . S
N281 H285 0.985 . S
H282 N277 0.984 . S
H283 N277 0.985 . S
H284 N281 0.984 . S
H285 N281 0.985 . S
H286 N280 0.984 . S
H287 N280 0.984 . S
H288 N276 0.984 . S
H289 N276 0.985 . S
C290 C291 1.363 . S
C290 C296 1.379 . S
C290 N298 1.356 . S
C291 C290 1.363 . S
C291 C297 1.363 . S
C292 C293 1.363 . S
C292 C297 1.379 . S
C292 N299 1.356 . S
C293 C292 1.363 . S
C293 C296 1.363 . S
N294 C296 1.356 . S
N294 H306 0.984 . S
N294 H307 0.985 1_655 S
N295 C297 1.356 . S
N295 H300 0.984 . S
N295 H301 0.985 . S
C296 C290 1.379 . S
C296 C293 1.363 . S
C296 N294 1.356 . S
C297 C291 1.363 . S
C297 C292 1.379 . S
C297 N295 1.356 . S
N298 C290 1.356 . S
N298 H304 0.984 . S
N298 H305 0.984 . S
N299 C292 1.356 . S
N299 H302 0.984 . S
N299 H303 0.985 . S
H300 N295 0.984 . S
H301 N295 0.985 . S
H302 N299 0.984 . S
H303 N299 0.985 . S
H304 N298 0.984 . S
H305 N298 0.984 . S
H306 N294 0.984 . S
H307 N294 0.985 1_455 S
C308 C309 1.363 . S
C308 C314 1.379 . S
C308 N316 1.356 . S
C309 C308 1.363 . S
C309 C315 1.363 . S
C310 C311 1.363 . S
C310 C315 1.379 . S
C310 N317 1.356 . S
C311 C310 1.363 . S
C311 C314 1.363 . S
N312 C314 1.356 . S
N312 H324 0.984 . S
N312 H325 0.985 . S
N313 C315 1.356 . S
N313 H318 0.984 . S
N313 H319 0.985 . S
C314 C308 1.379 . S
C314 C311 1.363 . S
C314 N312 1.356 . S
C315 C309 1.363 . S
C315 C310 1.379 . S
C315 N313 1.356 . S
N316 C308 1.356 . S
N316 H322 0.984 . S
N316 H323 0.984 . S
N317 C310 1.356 . S
N317 H320 0.984 . S
N317 H321 0.985 . S
H318 N313 0.984 . S
H319 N313 0.985 . S
H320 N317 0.984 . S
H321 N317 0.985 . S
H322 N316 0.984 . S
H323 N316 0.984 . S
H324 N312 0.984 . S
H325 N312 0.985 . S
C326 C327 1.363 . S
C326 C332 1.379 . S
C326 N334 1.356 . S
C327 C326 1.363 . S
C327 C333 1.363 . S
C328 C329 1.363 . S
C328 C333 1.379 . S
C328 N335 1.356 . S
C329 C328 1.363 . S
C329 C332 1.363 . S
N330 C332 1.356 1_545 S
N330 H342 0.984 . S
N330 H343 0.985 . S
N331 C333 1.356 . S
N331 H336 0.984 . S
N331 H337 0.985 . S
C332 C326 1.379 . S
C332 C329 1.363 . S
C332 N330 1.356 1_565 S
C333 C327 1.363 . S
C333 C328 1.379 . S
C333 N331 1.356 . S
N334 C326 1.356 . S
N334 H340 0.984 . S
N334 H341 0.984 . S
N335 C328 1.356 . S
N335 H338 0.984 . S
N335 H339 0.985 . S
H336 N331 0.984 . S
H337 N331 0.985 . S
H338 N335 0.984 . S
H339 N335 0.985 . S
H340 N334 0.984 . S
H341 N334 0.984 . S
H342 N330 0.984 . S
H343 N330 0.985 . S
C344 C345 1.363 . S
C344 C350 1.379 . S
C344 N352 1.356 . S
C345 C344 1.363 . S
C345 C351 1.363 . S
C346 C347 1.355 1_554 S
C346 C351 1.376 1_554 S
C346 N353 1.365 . S
C347 C346 1.355 1_556 S
C347 C350 1.363 . S
N348 C350 1.356 . S
N348 H360 0.984 . S
N348 H361 0.985 . S
N349 C351 1.356 1_554 S
N349 H354 0.984 1_554 S
N349 H355 0.985 . S
C350 C344 1.379 . S
C350 C347 1.363 . S
C350 N348 1.356 . S
C351 C345 1.363 . S
C351 C346 1.376 1_556 S
C351 N349 1.356 1_556 S
N352 C344 1.356 . S
N352 H358 0.984 . S
N352 H359 0.984 . S
N353 C346 1.365 . S
N353 H356 0.984 . S
N353 H357 0.985 . S
H354 N349 0.984 1_556 S
H355 N349 0.985 . S
H356 N353 0.984 . S
H357 N353 0.985 . S
H358 N352 0.984 . S
H359 N352 0.984 . S
H360 N348 0.984 . S
H361 N348 0.985 . S
C362 C363 1.363 . S
C362 C368 1.379 . S
C362 N370 1.356 . S
C363 C362 1.363 . S
C363 C369 1.363 . S
C364 C365 1.363 . S
C364 C369 1.379 . S
C364 N371 1.356 . S
C365 C364 1.363 . S
C365 C368 1.363 . S
N366 C368 1.356 . S
N366 H378 0.984 . S
N366 H379 0.985 . S
N367 C369 1.356 . S
N367 H372 0.984 . S
N367 H373 0.985 . S
C368 C362 1.379 . S
C368 C365 1.363 . S
C368 N366 1.356 . S
C369 C363 1.363 . S
C369 C364 1.379 . S
C369 N367 1.356 . S
N370 C362 1.356 . S
N370 H376 0.984 . S
N370 H377 0.984 . S
N371 C364 1.356 . S
N371 H374 0.984 . S
N371 H375 0.985 . S
H372 N367 0.984 . S
H373 N367 0.985 . S
H374 N371 0.984 . S
H375 N371 0.985 . S
H376 N370 0.984 . S
H377 N370 0.984 . S
H378 N366 0.984 . S
H379 N366 0.985 . S
C380 C381 1.363 . S
C380 C386 1.379 . S
C380 N388 1.356 . S
C381 C380 1.363 . S
C381 C387 1.363 . S
C382 C383 1.363 . S
C382 C387 1.379 . S
C382 N389 1.356 . S
C383 C382 1.363 . S
C383 C386 1.363 . S
N384 C386 1.356 . S
N384 H396 0.984 . S
N384 H397 0.985 . S
N385 C387 1.356 . S
N385 H390 0.984 . S
N385 H391 0.985 . S
C386 C380 1.379 . S
C386 C383 1.363 . S
C386 N384 1.356 . S
C387 C381 1.363 . S
C387 C382 1.379 . S
C387 N385 1.356 . S
N388 C380 1.356 . S
N388 H394 0.984 . S
N388 H395 0.984 . S
N389 C382 1.356 . S
N389 H392 0.984 . S
N389 H393 0.985 . S
H390 N385 0.984 . S
H391 N385 0.985 . S
H392 N389 0.984 . S
H393 N389 0.985 . S
H394 N388 0.984 . S
H395 N388 0.984 . S
H396 N384 0.984 . S
H397 N384 0.985 . S
C398 C399 1.363 1_554 S
C398 C404 1.379 . S
C398 N406 1.356 . S
C399 C398 1.363 1_556 S
C399 C405 1.363 . S
C400 C401 1.363 1_556 S
C400 C405 1.379 . S
C400 N407 1.356 . S
C401 C400 1.363 1_554 S
C401 C404 1.363 . S
N402 C404 1.356 . S
N402 H414 0.984 . S
N402 H415 0.985 . S
N403 C405 1.356 . S
N403 H408 0.984 . S
N403 H409 0.985 . S
C404 C398 1.379 . S
C404 C401 1.363 . S
C404 N402 1.356 . S
C405 C399 1.363 . S
C405 C400 1.379 . S
C405 N403 1.356 . S
N406 C398 1.356 . S
N406 H412 0.984 . S
N406 H413 0.984 . S
N407 C400 1.356 . S
N407 H410 0.984 . S
N407 H411 0.985 . S
H408 N403 0.984 . S
H409 N403 0.985 . S
H410 N407 0.984 . S
H411 N407 0.985 . S
H412 N406 0.984 . S
H413 N406 0.984 . S
H414 N402 0.984 . S
H415 N402 0.985 . S
C416 C417 1.363 . S
C416 C422 1.379 . S
C416 N424 1.356 . S
C417 C416 1.363 . S
C417 C423 1.363 . S
C418 C419 1.363 . S
C418 C423 1.379 . S
C418 N425 1.356 . S
C419 C418 1.363 . S
C419 C422 1.363 . S
N420 C422 1.356 . S
N420 H432 0.984 . S
N420 H433 0.985 . S
N421 C423 1.356 . S
N421 H426 0.984 . S
N421 H427 0.985 . S
C422 C416 1.379 . S
C422 C419 1.363 . S
C422 N420 1.356 . S
C423 C417 1.363 . S
C423 C418 1.379 . S
C423 N421 1.356 . S
N424 C416 1.356 . S
N424 H430 0.984 . S
N424 H431 0.984 . S
N425 C418 1.356 . S
N425 H428 0.984 . S
N425 H429 0.985 . S
H426 N421 0.984 . S
H427 N421 0.985 . S
H428 N425 0.984 . S
H429 N425 0.985 . S
H430 N424 0.984 . S
H431 N424 0.984 . S
H432 N420 0.984 . S
H433 N420 0.985 . S
C434 C435 1.363 . S
C434 C440 1.379 . S
C434 N442 1.356 . S
C435 C434 1.363 . S
C435 C441 1.363 . S
C436 C437 1.363 . S
C436 C441 1.379 . S
C436 N443 1.356 . S
C437 C436 1.363 . S
C437 C440 1.363 . S
N438 C440 1.356 . S
N438 H450 0.984 . S
N438 H451 0.985 . S
N439 C441 1.356 . S
N439 H444 0.984 . S
N439 H445 0.985 . S
C440 C434 1.379 . S
C440 C437 1.363 . S
C440 N438 1.356 . S
C441 C435 1.363 . S
C441 C436 1.379 . S
C441 N439 1.356 . S
N442 C434 1.356 . S
N442 H448 0.984 . S
N442 H449 0.984 . S
N443 C436 1.356 . S
N443 H446 0.984 . S
N443 H447 0.985 . S
H444 N439 0.984 . S
H445 N439 0.985 . S
H446 N443 0.984 . S
H447 N443 0.985 . S
H448 N442 0.984 . S
H449 N442 0.984 . S
H450 N438 0.984 . S
H451 N438 0.985 . S
C452 C453 1.363 1_565 S
C452 C458 1.379 . S
C452 N460 1.356 . S
C453 C452 1.363 1_545 S
C453 C459 1.363 1_455 S
C454 C455 1.363 . S
C454 C459 1.379 . S
C454 N461 1.356 . S
C455 C454 1.363 . S
C455 C458 1.363 1_645 S
N456 C458 1.356 . S
N456 H468 0.984 . S
N456 H469 0.985 . S
N457 C459 1.356 . S
N457 H462 0.984 . S
N457 H463 0.985 . S
C458 C452 1.379 . S
C458 C455 1.363 1_465 S
C458 N456 1.356 . S
C459 C453 1.363 1_655 S
C459 C454 1.379 . S
C459 N457 1.356 . S
N460 C452 1.356 . S
N460 H466 0.984 . S
N460 H467 0.984 . S
N461 C454 1.356 . S
N461 H464 0.984 . S
N461 H465 0.985 . S
H462 N457 0.984 . S
H463 N457 0.985 . S
H464 N461 0.984 . S
H465 N461 0.985 . S
H466 N460 0.984 . S
H467 N460 0.984 . S
H468 N456 0.984 . S
H469 N456 0.985 . S
C470 C471 1.363 . S
C470 C476 1.379 . S
C470 N478 1.355 . S
C471 C470 1.363 . S
C471 C477 1.363 . S
C472 C473 1.363 . S
C472 C477 1.379 . S
C472 N479 1.356 . S
C473 C472 1.363 . S
C473 C476 1.363 . S
N474 C476 1.356 . S
N474 H486 0.984 1_545 S
N474 H487 0.985 . S
N475 C477 1.356 . S
N475 H480 0.984 . S
N475 H481 0.985 . S
C476 C470 1.379 . S
C476 C473 1.363 . S
C476 N474 1.356 . S
C477 C471 1.363 . S
C477 C472 1.379 . S
C477 N475 1.356 . S
N478 C470 1.355 . S
N478 H484 0.986 1_545 S
N478 H485 0.984 . S
N479 C472 1.356 . S
N479 H482 0.984 . S
N479 H483 0.985 . S
H480 N475 0.984 . S
H481 N475 0.985 . S
H482 N479 0.984 . S
H483 N479 0.985 . S
H484 N478 0.986 1_565 S
H485 N478 0.984 . S
H486 N474 0.984 1_565 S
H487 N474 0.985 . S
C488 C489 1.363 . S
C488 C494 1.379 . S
C488 N496 1.356 . S
C489 C488 1.363 . S
C489 C495 1.363 . S
C490 C491 1.363 . S
C490 C495 1.379 . S
C490 N497 1.356 . S
C491 C490 1.363 . S
C491 C494 1.363 . S
N492 C494 1.356 . S
N492 H504 0.984 . S
N492 H505 0.985 . S
N493 C495 1.356 . S
N493 H498 0.984 . S
N493 H499 0.985 . S
C494 C488 1.379 . S
C494 C491 1.363 . S
C494 N492 1.356 . S
C495 C489 1.363 . S
C495 C490 1.379 . S
C495 N493 1.356 . S
N496 C488 1.356 . S
N496 H502 0.984 . S
N496 H503 0.984 . S
N497 C490 1.356 . S
N497 H500 0.984 . S
N497 H501 0.985 . S
H498 N493 0.984 . S
H499 N493 0.985 . S
H500 N497 0.984 . S
H501 N497 0.985 . S
H502 N496 0.984 . S
H503 N496 0.984 . S
H504 N492 0.984 . S
H505 N492 0.985 . S
C506 C507 1.363 . S
C506 C512 1.379 . S
C506 N514 1.356 . S
C507 C506 1.363 . S
C507 C513 1.363 . S
C508 C509 1.363 . S
C508 C513 1.379 . S
C508 N515 1.356 . S
C509 C508 1.363 . S
C509 C512 1.363 . S
N510 C512 1.356 . S
N510 H522 0.984 . S
N510 H523 0.985 . S
N511 C513 1.356 . S
N511 H516 0.984 . S
N511 H517 0.985 1_455 S
C512 C506 1.379 . S
C512 C509 1.363 . S
C512 N510 1.356 . S
C513 C507 1.363 . S
C513 C508 1.379 . S
C513 N511 1.356 . S
N514 C506 1.356 . S
N514 H520 0.984 . S
N514 H521 0.984 . S
N515 C508 1.356 . S
N515 H518 0.984 . S
N515 H519 0.985 1_455 S
H516 N511 0.984 . S
H517 N511 0.985 1_655 S
H518 N515 0.984 . S
H519 N515 0.985 1_655 S
H520 N514 0.984 . S
H521 N514 0.984 . S
H522 N510 0.984 . S
H523 N510 0.985 . S
C524 C525 1.363 1_565 S
C524 C530 1.379 . S
C524 N532 1.356 . S
C525 C524 1.363 1_545 S
C525 C531 1.363 . S
C526 C527 1.363 . S
C526 C531 1.379 . S
C526 N533 1.356 . S
C527 C526 1.363 . S
C527 C530 1.363 1_545 S
N528 C530 1.356 . S
N528 H540 0.984 . S
N528 H541 0.985 . S
N529 C531 1.356 . S
N529 H534 0.984 . S
N529 H535 0.985 . S
C530 C524 1.379 . S
C530 C527 1.363 1_565 S
C530 N528 1.356 . S
C531 C525 1.363 . S
C531 C526 1.379 . S
C531 N529 1.356 . S
N532 C524 1.356 . S
N532 H538 0.984 1_554 S
N532 H539 0.986 . S
N533 C526 1.356 . S
N533 H536 0.984 . S
N533 H537 0.985 . S
H534 N529 0.984 . S
H535 N529 0.985 . S
H536 N533 0.984 . S
H537 N533 0.985 . S
H538 N532 0.984 1_556 S
H539 N532 0.986 . S
H540 N528 0.984 . S
H541 N528 0.985 . S
C542 C543 1.363 . S
C542 C548 1.379 . S
C542 N550 1.356 . S
C543 C542 1.363 . S
C543 C549 1.363 . S
C544 C545 1.363 . S
C544 C549 1.379 . S
C544 N551 1.356 . S
C545 C544 1.363 . S
C545 C548 1.363 . S
N546 C548 1.356 1_565 S
N546 H558 0.984 . S
N546 H559 0.984 . S
N547 C549 1.356 . S
N547 H552 0.984 . S
N547 H553 0.985 . S
C548 C542 1.379 . S
C548 C545 1.363 . S
C548 N546 1.356 1_545 S
C549 C543 1.363 . S
C549 C544 1.379 . S
C549 N547 1.356 . S
N550 C542 1.356 . S
N550 H556 0.984 1_545 S
N550 H557 0.984 . S
N551 C544 1.356 . S
N551 H554 0.984 . S
N551 H555 0.985 . S
H552 N547 0.984 . S
H553 N547 0.985 . S
H554 N551 0.984 . S
H555 N551 0.985 . S
H556 N550 0.984 1_565 S
H557 N550 0.984 . S
H558 N546 0.984 . S
H559 N546 0.984 . S
C560 C561 1.363 . S
C560 C566 1.379 . S
C560 N568 1.356 . S
C561 C560 1.363 . S
C561 C567 1.363 . S
C562 C563 1.363 . S
C562 C567 1.379 . S
C562 N569 1.356 . S
C563 C562 1.363 . S
C563 C566 1.363 . S
N564 C566 1.356 . S
N564 H576 0.984 . S
N564 H577 0.985 . S
N565 C567 1.356 . S
N565 H570 0.984 . S
N565 H571 0.985 . S
C566 C560 1.379 . S
C566 C563 1.363 . S
C566 N564 1.356 . S
C567 C561 1.363 . S
C567 C562 1.379 . S
C567 N565 1.356 . S
N568 C560 1.356 . S
N568 H574 0.984 . S
N568 H575 0.984 . S
N569 C562 1.356 . S
N569 H572 0.984 . S
N569 H573 0.985 . S
H570 N565 0.984 . S
H571 N565 0.985 . S
H572 N569 0.984 . S
H573 N569 0.985 . S
H574 N568 0.984 . S
H575 N568 0.984 . S
H576 N564 0.984 . S
H577 N564 0.985 . S
C578 C579 1.363 . S
C578 C584 1.379 . S
C578 N586 1.356 . S
C579 C578 1.363 . S
C579 C585 1.363 . S
C580 C581 1.363 . S
C580 C585 1.379 . S
C580 N587 1.356 . S
C581 C580 1.363 . S
C581 C584 1.363 . S
N582 C584 1.356 . S
N582 H594 0.984 . S
N582 H595 0.985 . S
N583 C585 1.356 . S
N583 H588 0.984 . S
N583 H589 0.985 . S
C584 C578 1.379 . S
C584 C581 1.363 . S
C584 N582 1.356 . S
C585 C579 1.363 . S
C585 C580 1.379 . S
C585 N583 1.356 . S
N586 C578 1.356 . S
N586 H592 0.984 . S
N586 H593 0.984 . S
N587 C580 1.356 . S
N587 H590 0.984 . S
N587 H591 0.985 . S
H588 N583 0.984 . S
H589 N583 0.985 . S
H590 N587 0.984 . S
H591 N587 0.985 . S
H592 N586 0.984 . S
H593 N586 0.984 . S
H594 N582 0.984 . S
H595 N582 0.985 . S
C596 C597 1.363 1_554 S
C596 C602 1.379 . S
C596 N604 1.356 . S
C597 C596 1.363 1_556 S
C597 C603 1.363 1_455 S
C598 C599 1.363 1_655 S
C598 C603 1.379 . S
C598 N605 1.356 . S
C599 C598 1.363 1_455 S
C599 C602 1.363 1_556 S
N600 C602 1.356 . S
N600 H612 0.984 . S
N600 H613 0.985 . S
N601 C603 1.356 . S
N601 H606 0.984 . S
N601 H607 0.985 . S
C602 C596 1.379 . S
C602 C599 1.363 1_554 S
C602 N600 1.356 . S
C603 C597 1.363 1_655 S
C603 C598 1.379 . S
C603 N601 1.356 . S
N604 C596 1.356 . S
N604 H610 0.984 . S
N604 H611 0.984 . S
N605 C598 1.356 . S
N605 H608 0.984 . S
N605 H609 0.985 . S
H606 N601 0.984 . S
H607 N601 0.985 . S
H608 N605 0.984 . S
H609 N605 0.985 . S
H610 N604 0.984 . S
H611 N604 0.984 . S
H612 N600 0.984 . S
H613 N600 0.985 . S
C614 C615 1.363 . S
C614 C620 1.379 . S
C614 N622 1.356 . S
C615 C614 1.363 . S
C615 C621 1.363 . S
C616 C617 1.363 . S
C616 C621 1.379 . S
C616 N623 1.356 . S
C617 C616 1.363 . S
C617 C620 1.363 . S
N618 C620 1.356 . S
N618 H630 0.984 . S
N618 H631 0.985 . S
N619 C621 1.356 . S
N619 H624 0.984 . S
N619 H625 0.985 . S
C620 C614 1.379 . S
C620 C617 1.363 . S
C620 N618 1.356 . S
C621 C615 1.363 . S
C621 C616 1.379 . S
C621 N619 1.356 . S
N622 C614 1.356 . S
N622 H628 0.984 . S
N622 H629 0.984 . S
N623 C616 1.356 . S
N623 H626 0.984 . S
N623 H627 0.985 . S
H624 N619 0.984 . S
H625 N619 0.985 . S
H626 N623 0.984 . S
H627 N623 0.985 . S
H628 N622 0.984 . S
H629 N622 0.984 . S
H630 N618 0.984 . S
H631 N618 0.985 . S
C632 C633 1.363 . S
C632 C638 1.379 . S
C632 N640 1.356 . S
C633 C632 1.363 . S
C633 C639 1.363 . S
C634 C635 1.363 . S
C634 C639 1.379 . S
C634 N641 1.356 . S
C635 C634 1.363 . S
C635 C638 1.363 . S
N636 C638 1.356 . S
N636 H648 0.984 1_455 S
N636 H649 0.985 . S
N637 C639 1.356 . S
N637 H642 0.984 . S
N637 H643 0.985 . S
C638 C632 1.379 . S
C638 C635 1.363 . S
C638 N636 1.356 . S
C639 C633 1.363 . S
C639 C634 1.379 . S
C639 N637 1.356 . S
N640 C632 1.356 . S
N640 H646 0.984 . S
N640 H647 0.984 . S
N641 C634 1.356 . S
N641 H644 0.984 . S
N641 H645 0.985 . S
H642 N637 0.984 . S
H643 N637 0.985 . S
H644 N641 0.984 . S
H645 N641 0.985 . S
H646 N640 0.984 . S
H647 N640 0.984 . S
H648 N636 0.984 1_655 S
H649 N636 0.985 . S
C650 C651 1.363 . S
C650 C656 1.379 . S
C650 N658 1.356 . S
C651 C650 1.363 . S
C651 C657 1.363 . S
C652 C653 1.363 . S
C652 C657 1.379 . S
C652 N659 1.356 . S
C653 C652 1.363 . S
C653 C656 1.363 . S
N654 C656 1.356 . S
N654 H666 0.984 . S
N654 H667 0.985 . S
N655 C657 1.356 . S
N655 H660 0.984 . S
N655 H661 0.985 . S
C656 C650 1.379 . S
C656 C653 1.363 . S
C656 N654 1.356 . S
C657 C651 1.363 . S
C657 C652 1.379 . S
C657 N655 1.356 . S
N658 C650 1.356 . S
N658 H664 0.984 . S
N658 H665 0.984 . S
N659 C652 1.356 . S
N659 H662 0.984 . S
N659 H663 0.985 . S
H660 N655 0.984 . S
H661 N655 0.985 . S
H662 N659 0.984 . S
H663 N659 0.985 . S
H664 N658 0.984 . S
H665 N658 0.984 . S
H666 N654 0.984 . S
H667 N654 0.985 . S
C237 C6 1.789 . S
C239 C155 1.631 . S
C255 C21 1.993 . S
C257 C189 1.831 1_566 S
C275 C201 1.055 . S
C273 C49 1.030 . S
C291 C68 1.259 . S
C293 C235 1.244 . S
C311 C192 1.962 . S
C309 C2 2.115 . S
C329 C172 1.326 . S
C327 C30 1.213 . S
C347 C219 1.266 . S
C345 C40 1.462 . S
C365 C210 1.385 . S
C363 C63 1.428 . S
C381 C11 1.433 . S
C383 C218 1.545 . S
C401 C180 1.602 . S
C399 C44 1.683 . S
C417 C59 1.237 . S
C419 C156 1.158 . S
C435 C25 1.779 . S
C437 C213 1.677 . S
C455 C171 1.964 . S
C453 C82 2.005 1_445 S
C471 C101 1.821 . S
C473 C193 1.662 . S
C489 C125 1.503 . S
C491 C198 1.415 . S
C507 C144 1.138 . S
C509 C231 1.286 . S
C525 C87 1.263 . S
C527 C176 1.420 . S
C545 C168 1.961 . S
C543 C97 2.096 . S
C563 C222 1.448 . S
C561 C120 1.473 . S
C581 C214 1.406 . S
C579 C135 1.555 . S
C597 C78 1.880 1_455 S
C599 C234 1.779 . S
C617 C177 1.282 . S
C615 C116 1.352 . S
C635 C159 1.658 . S
C633 C139 1.721 . S
C651 C106 1.528 . S
C653 C197 1.549 . S
