# Generated by pormake.
# Topology ssa, (4,4)-cn, num edge types: 1
# Building blocks:
#     Node 0, Type 0, BuildingBlock: ESEHIV_clean_sbu_0, # of connection points: 4
#     Node 1, Type 0, BuildingBlock: ESEHIV_clean_sbu_0, # of connection points: 4
#     Node 2, Type 0, BuildingBlock: ESEHIV_clean_sbu_0, # of connection points: 4
#     Node 3, Type 0, BuildingBlock: ESEHIV_clean_sbu_0, # of connection points: 4
#     Node 4, Type 0, BuildingBlock: ESEHIV_clean_sbu_0, # of connection points: 4
#     Node 5, Type 0, BuildingBlock: ESEHIV_clean_sbu_0, # of connection points: 4
#     Node 6, Type 1, BuildingBlock: MIFKUJ_clean_linker_1, # of connection points: 4
#     Node 7, Type 1, BuildingBlock: MIFKUJ_clean_linker_1, # of connection points: 4
#     Node 8, Type 1, BuildingBlock: MIFKUJ_clean_linker_1, # of connection points: 4
#     Node 9, Type 1, BuildingBlock: MIFKUJ_clean_linker_1, # of connection points: 4
#     Node 10, Type 1, BuildingBlock: MIFKUJ_clean_linker_1, # of connection points: 4
#     Node 11, Type 1, BuildingBlock: MIFKUJ_clean_linker_1, # of connection points: 4
#     Edge 12, Type (0, 1), BuildingBlock: UVAHIK_clean_linker_0, # of connection points: 2
#     Edge 13, Type (0, 1), BuildingBlock: UVAHIK_clean_linker_0, # of connection points: 2
#     Edge 14, Type (0, 1), BuildingBlock: UVAHIK_clean_linker_0, # of connection points: 2
#     Edge 15, Type (0, 1), BuildingBlock: UVAHIK_clean_linker_0, # of connection points: 2
#     Edge 16, Type (0, 1), BuildingBlock: UVAHIK_clean_linker_0, # of connection points: 2
#     Edge 17, Type (0, 1), BuildingBlock: UVAHIK_clean_linker_0, # of connection points: 2
#     Edge 18, Type (0, 1), BuildingBlock: UVAHIK_clean_linker_0, # of connection points: 2
#     Edge 19, Type (0, 1), BuildingBlock: UVAHIK_clean_linker_0, # of connection points: 2
#     Edge 20, Type (0, 1), BuildingBlock: UVAHIK_clean_linker_0, # of connection points: 2
#     Edge 21, Type (0, 1), BuildingBlock: UVAHIK_clean_linker_0, # of connection points: 2
#     Edge 22, Type (0, 1), BuildingBlock: UVAHIK_clean_linker_0, # of connection points: 2
#     Edge 23, Type (0, 1), BuildingBlock: UVAHIK_clean_linker_0, # of connection points: 2
#     Edge 24, Type (0, 1), BuildingBlock: UVAHIK_clean_linker_0, # of connection points: 2
#     Edge 25, Type (0, 1), BuildingBlock: UVAHIK_clean_linker_0, # of connection points: 2
#     Edge 26, Type (0, 1), BuildingBlock: UVAHIK_clean_linker_0, # of connection points: 2
#     Edge 27, Type (0, 1), BuildingBlock: UVAHIK_clean_linker_0, # of connection points: 2
#     Edge 28, Type (0, 1), BuildingBlock: UVAHIK_clean_linker_0, # of connection points: 2
#     Edge 29, Type (0, 1), BuildingBlock: UVAHIK_clean_linker_0, # of connection points: 2
#     Edge 30, Type (0, 1), BuildingBlock: UVAHIK_clean_linker_0, # of connection points: 2
#     Edge 31, Type (0, 1), BuildingBlock: UVAHIK_clean_linker_0, # of connection points: 2
#     Edge 32, Type (0, 1), BuildingBlock: UVAHIK_clean_linker_0, # of connection points: 2
#     Edge 33, Type (0, 1), BuildingBlock: UVAHIK_clean_linker_0, # of connection points: 2
#     Edge 34, Type (0, 1), BuildingBlock: UVAHIK_clean_linker_0, # of connection points: 2
#     Edge 35, Type (0, 1), BuildingBlock: UVAHIK_clean_linker_0, # of connection points: 2
# Relax obj value: 0.006
# Max RMSD: 0.106
# Mean RMSD: 0.056
data_MOF--net-ssa--node1-ESEHIV_clean_sbu_0--node2-MIFKUJ_clean_linker_1--edge1-UVAHIK_clean_linker_0
_symmetry_space_group_name_H-M    P1
_symmetry_Int_Tables_number       1
_symmetry_cell_setting            triclinic
loop_
_symmetry_equiv_pos_as_xyz
'x, y, z'
_cell_length_a     74.897003
_cell_length_b     78.517936
_cell_length_c     49.213017
_cell_angle_alpha  88.732387
_cell_angle_beta   90.67621
_cell_angle_gamma 121.6286
loop_
_atom_site_label
_atom_site_type_symbol
_atom_site_fract_x
_atom_site_fract_y
_atom_site_fract_z
_atom_type_partial_charge
Cu0 Cu 0.0244 0.52923 0.98936 0.0
N1 N 0.02427 0.51472 0.95995 0.0
N2 N 0.01066 0.489 0.93174 0.0
C3 C 0.0068 0.49813 0.95166 0.0
C4 C 0.03149 0.50045 0.92707 0.0
C5 C 0.03991 0.5163 0.94473 0.0
O6 O 0.99795 0.5285 0.9876 0.0
C7 C 0.04728 0.52081 0.02475 0.0
O8 O 0.06117 0.53136 0.00578 0.0
H9 H 0.99153 0.49275 0.9605 0.0
H10 H 0.0563 0.5277 0.94692 0.0
N11 N 0.04648 0.55589 0.98822 0.0
N12 N 0.07056 0.58546 0.00494 0.0
C13 C 0.05275 0.56779 0.0099 0.0
C14 C 0.0607 0.56644 0.96863 0.0
C15 C 0.07568 0.58472 0.97898 0.0
C16 C 0.9969 0.53955 0.96905 0.0
O17 O 0.0135 0.55084 0.95389 0.0
H18 H 0.04502 0.56305 0.02948 0.0
H19 H 0.06058 0.56101 0.94859 0.0
O20 O 0.02865 0.5172 0.02202 0.0
H21 H 0.04011 0.49719 0.91275 0.0
H22 H 0.08947 0.59635 0.96845 0.0
Cu23 Cu 0.5276 0.01994 0.50526 0.0
N24 N 0.54017 0.01647 0.4749 0.0
N25 N 0.54904 1.00078 0.44557 0.0
C26 C 0.53885 0.9992 0.46882 0.0
C27 C 0.55712 0.01982 0.43667 0.0
C28 C 0.55171 0.0295 0.45488 0.0
O29 O 0.49895 0.9974 0.5062 0.0
C30 C 0.56321 0.03223 0.5364 0.0
O31 O 0.57203 0.03995 0.51276 0.0
H32 H 0.53029 0.98566 0.48108 0.0
H33 H 0.55615 0.04499 0.45371 0.0
N34 N 0.5268 0.04337 0.50365 0.0
N35 N 0.5219 0.06739 0.51852 0.0
C36 C 0.52323 0.05132 0.52535 0.0
C37 C 0.52777 0.05477 0.48221 0.0
C38 C 0.5248 0.06961 0.49132 0.0
C39 C 0.4878 0.99665 0.48602 0.0
O40 O 0.49629 0.01096 0.46739 0.0
H41 H 0.52088 0.04488 0.54563 0.0
H42 H 0.52979 0.05215 0.46133 0.0
O43 O 0.5433 0.02171 0.53785 0.0
H44 H 0.56658 0.02637 0.41858 0.0
H45 H 0.52461 0.081 0.47877 0.0
Cu46 Cu 0.50167 0.49583 0.03486 0.0
N47 N 0.49384 0.46895 0.03697 0.0
N48 N 0.48675 0.43915 0.02282 0.0
C49 C 0.49467 0.45857 0.01611 0.0
C50 C 0.48062 0.43719 0.04898 0.0
C51 C 0.48509 0.45565 0.0577 0.0
O52 O 0.52082 0.50803 0.00457 0.0
C53 C 0.45863 0.48333 0.02795 0.0
O54 O 0.45576 0.46587 0.02185 0.0
H55 H 0.50034 0.46503 0.99607 0.0
H56 H 0.4818 0.45907 0.07752 0.0
N57 N 0.51548 0.50979 0.06601 0.0
N58 N 0.5287 0.53473 0.09567 0.0
C59 C 0.518 0.5275 0.07225 0.0
C60 C 0.52483 0.50546 0.08617 0.0
C61 C 0.53299 0.52084 0.10457 0.0
C62 C 0.53676 0.50628 0.00589 0.0
O63 O 0.53918 0.49748 0.02742 0.0
H64 H 0.51176 0.53475 0.05986 0.0
H65 H 0.52573 0.49216 0.08733 0.0
O66 O 0.47716 0.49809 0.03162 0.0
H67 H 0.47341 0.42343 0.06092 0.0
H68 H 0.54163 0.52179 0.12284 0.0
Cu69 Cu 0.98914 0.49116 0.49488 0.0
N70 N 0.98559 0.4774 0.46316 0.0
N71 N 0.99348 0.46266 0.43127 0.0
C72 C 0.99925 0.47242 0.45497 0.0
C73 C 0.97542 0.46153 0.42415 0.0
C74 C 0.97051 0.47059 0.44405 0.0
O75 O 0.01791 0.51368 0.4933 0.0
C76 C 0.9837 0.4746 0.54971 0.0
O77 O 0.9921 0.49287 0.55874 0.0
H78 H 0.01344 0.47635 0.46603 0.0
H79 H 0.957 0.47214 0.44448 0.0
N80 N 0.97082 0.50044 0.49555 0.0
N81 N 0.94955 0.50976 0.51161 0.0
C82 C 0.96048 0.5009 0.51738 0.0
C83 C 0.96627 0.50926 0.47517 0.0
C84 C 0.95302 0.51495 0.485 0.0
C85 C 0.0241 0.53115 0.50163 0.0
O86 O 0.0115 0.53404 0.51652 0.0
H87 H 0.96101 0.49492 0.53715 0.0
H88 H 0.97251 0.51175 0.45479 0.0
O89 O 0.98243 0.47175 0.52424 0.0
H90 H 0.96637 0.45458 0.40603 0.0
H91 H 0.94696 0.52283 0.47369 0.0
Cu92 Cu 0.49799 0.99264 0.00817 0.0
N93 N 0.47959 0.9918 0.98166 0.0
N94 N 0.4657 0.00344 0.95189 0.0
C95 C 0.47934 0.0079 0.97251 0.0
C96 C 0.45664 0.98361 0.94818 0.0
C97 C 0.46536 0.97644 0.96659 0.0
O98 O 0.5237 0.01904 0.00591 0.0
C99 C 0.46844 0.9673 0.04545 0.0
O100 O 0.46393 0.95544 0.02472 0.0
H101 H 0.48946 0.02277 0.98037 0.0
H102 H 0.46205 0.9613 0.96827 0.0
N103 N 0.50555 0.97397 1.00169 0.0
N104 N 0.51483 0.95179 0.01118 0.0
C105 C 0.50877 0.96374 0.02134 0.0
C106 C 0.50986 0.96842 0.97816 0.0
C107 C 0.51573 0.95472 0.984 0.0
C108 C 0.5311 0.02501 0.98201 0.0
O109 O 0.52132 0.01339 0.96136 0.0
H110 H 0.507 0.96527 0.04279 0.0
H111 H 0.50889 0.97397 0.95824 0.0
O112 O 0.48337 0.98551 0.04309 0.0
H113 H 0.4453 0.97514 0.93253 0.0
H114 H 0.52004 0.94732 0.96949 0.0
Cu115 Cu 0.50589 0.50175 0.49793 0.0
N116 N 0.52489 0.51536 0.46997 0.0
N117 N 0.54124 0.53869 0.43748 0.0
C118 C 0.52428 0.529 0.45374 0.0
C119 C 0.55303 0.53076 0.44373 0.0
C120 C 0.54282 0.51626 0.46382 0.0
O121 O 0.48228 0.50498 0.4906 0.0
C122 C 0.53603 0.5291 0.53565 0.0
O123 O 0.54163 0.54243 0.51583 0.0
H124 H 0.51223 0.53262 0.45516 0.0
H125 H 0.54849 0.50766 0.47405 0.0
N126 N 0.49673 0.47475 0.49753 0.0
N127 N 0.48736 0.44449 0.5141 0.0
C128 C 0.49671 0.46416 0.51932 0.0
C129 C 0.48721 0.46148 0.47758 0.0
C130 C 0.48144 0.44274 0.48774 0.0
C131 C 0.46334 0.49225 0.49694 0.0
O132 O 0.45916 0.47707 0.51312 0.0
H133 H 0.50322 0.47085 0.53874 0.0
H134 H 0.48412 0.4651 0.45742 0.0
O135 O 0.51997 0.51168 0.5326 0.0
H136 H 0.56817 0.53546 0.435 0.0
H137 H 0.47291 0.42887 0.47683 0.0
H138 H 0.19222 0.44637 0.19705 0.0
H139 H 0.16585 0.45034 0.17248 0.0
H140 H 0.17729 0.49775 0.22638 0.0
H141 H 0.20372 0.49394 0.25043 0.0
H142 H 0.23443 0.4723 0.20615 0.0
H143 H 0.17349 0.43359 0.25758 0.0
H144 H 0.14088 0.42734 0.27776 0.0
H145 H 0.17648 0.47482 0.33447 0.0
H146 H 0.20916 0.48127 0.31388 0.0
H147 H 0.2653 0.49028 0.31576 0.0
H148 H 0.29257 0.4924 0.34578 0.0
H149 H 0.29783 0.45083 0.29575 0.0
H150 H 0.26959 0.44777 0.26638 0.0
H151 H 0.22821 0.46125 0.30607 0.0
H152 H 0.29133 0.49836 0.24649 0.0
H153 H 0.31992 0.50207 0.21814 0.0
H154 H 0.27519 0.45021 0.17278 0.0
H155 H 0.24711 0.44611 0.20183 0.0
C156 C 0.19987 0.46979 0.22564 0.0
C157 C 0.1891 0.45769 0.20341 0.0
C158 C 0.17392 0.45985 0.18957 0.0
C159 C 0.16946 0.47435 0.19751 0.0
C160 C 0.18048 0.48658 0.21958 0.0
C161 C 0.19552 0.48434 0.23345 0.0
C162 C 0.21537 0.46712 0.24127 0.0
C163 C 0.23305 0.46967 0.22797 0.0
C164 C 0.2133 0.46327 0.2696 0.0
C165 C 0.19374 0.45812 0.28394 0.0
C166 C 0.17428 0.44265 0.27439 0.0
C167 C 0.15568 0.43909 0.28589 0.0
C168 C 0.15618 0.45073 0.30747 0.0
C169 C 0.17567 0.46558 0.31791 0.0
C170 C 0.19432 0.46926 0.3062 0.0
C171 C 0.26543 0.46904 0.28848 0.0
C172 C 0.27216 0.48148 0.31122 0.0
C173 C 0.28776 0.48272 0.32839 0.0
C174 C 0.29728 0.47181 0.32301 0.0
C175 C 0.29082 0.45952 0.30016 0.0
C176 C 0.27479 0.4579 0.28327 0.0
C177 C 0.24812 0.46747 0.27121 0.0
C178 C 0.22981 0.46391 0.28426 0.0
C179 C 0.24936 0.46965 0.24244 0.0
C180 C 0.26712 0.47183 0.22646 0.0
C181 C 0.28781 0.48763 0.23072 0.0
C182 C 0.30408 0.48984 0.2143 0.0
C183 C 0.29989 0.4764 0.19319 0.0
C184 C 0.27912 0.46062 0.18913 0.0
C185 C 0.26298 0.45835 0.20559 0.0
H186 H 0.73352 0.22663 0.81853 0.0
H187 H 0.70527 0.2029 0.84886 0.0
H188 H 0.72128 0.15857 0.83335 0.0
H189 H 0.74954 0.18243 0.80282 0.0
H190 H 0.77731 0.2408 0.82293 0.0
H191 H 0.7189 0.20379 0.75955 0.0
H192 H 0.6914 0.17355 0.73762 0.0
H193 H 0.73761 0.15951 0.71394 0.0
H194 H 0.76504 0.19004 0.73536 0.0
H195 H 0.82007 0.25046 0.7199 0.0
H196 H 0.84739 0.2791 0.69358 0.0
H197 H 0.82632 0.31642 0.72557 0.0
H198 H 0.79929 0.28792 0.75174 0.0
H199 H 0.77643 0.23033 0.72365 0.0
H200 H 0.83479 0.26631 0.78107 0.0
H201 H 0.8644 0.29678 0.79971 0.0
H202 H 0.82133 0.31043 0.8365 0.0
H203 H 0.79174 0.27989 0.81771 0.0
C204 C 0.74355 0.20626 0.80834 0.0
C205 C 0.73094 0.2118 0.82166 0.0
C206 C 0.71476 0.19821 0.83886 0.0
C207 C 0.71106 0.17888 0.84344 0.0
C208 C 0.72386 0.17341 0.83033 0.0
C209 C 0.73991 0.18696 0.81279 0.0
C210 C 0.76061 0.22088 0.79007 0.0
C211 C 0.77702 0.23857 0.80121 0.0
C212 C 0.76076 0.21759 0.76193 0.0
C213 C 0.74398 0.19909 0.74913 0.0
C214 C 0.72304 0.1941 0.74976 0.0
C215 C 0.70733 0.17674 0.73733 0.0
C216 C 0.71226 0.16404 0.72401 0.0
C217 C 0.73328 0.16907 0.72365 0.0
C218 C 0.74898 0.18648 0.73596 0.0
C219 C 0.80781 0.2671 0.73806 0.0
C220 C 0.8212 0.26476 0.72092 0.0
C221 C 0.83682 0.28116 0.70593 0.0
C222 C 0.83926 0.30015 0.70778 0.0
C223 C 0.82523 0.30216 0.72415 0.0
C224 C 0.80967 0.28583 0.739 0.0
C225 C 0.79271 0.25053 0.75642 0.0
C226 C 0.77681 0.23248 0.74539 0.0
C227 C 0.79328 0.25319 0.78483 0.0
C228 C 0.81108 0.27095 0.79778 0.0
C229 C 0.83173 0.27588 0.79314 0.0
C230 C 0.84863 0.29332 0.80371 0.0
C231 C 0.84519 0.30606 0.81941 0.0
C232 C 0.82446 0.30081 0.82466 0.0
C233 C 0.80755 0.28339 0.81396 0.0
H234 H 0.59425 0.82421 0.31682 0.0
H235 H 0.59254 0.85087 0.33934 0.0
H236 H 0.53526 0.83415 0.29619 0.0
H237 H 0.53663 0.8072 0.27444 0.0
H238 H 0.56873 0.7843 0.31728 0.0
H239 H 0.59334 0.83627 0.24289 0.0
H240 H 0.58915 0.85893 0.21177 0.0
H241 H 0.52851 0.80969 0.18758 0.0
H242 H 0.53282 0.78722 0.21831 0.0
H243 H 0.5382 0.7406 0.2176 0.0
H244 H 0.5359 0.71163 0.19649 0.0
H245 H 0.59198 0.72352 0.23899 0.0
H246 H 0.59446 0.75275 0.25971 0.0
H247 H 0.56511 0.77911 0.21678 0.0
H248 H 0.53586 0.72837 0.28455 0.0
H249 H 0.53538 0.70024 0.30691 0.0
H250 H 0.59522 0.7409 0.34429 0.0
H251 H 0.596 0.76906 0.32047 0.0
C252 C 0.56584 0.81394 0.29342 0.0
C253 C 0.58127 0.82622 0.31229 0.0
C254 C 0.58028 0.84144 0.32517 0.0
C255 C 0.56388 0.84473 0.31931 0.0
C256 C 0.5483 0.83222 0.30073 0.0
C257 C 0.54913 0.81686 0.28818 0.0
C258 C 0.56705 0.79791 0.2795 0.0
C259 C 0.56837 0.78345 0.29529 0.0
C260 C 0.56571 0.79613 0.25086 0.0
C261 C 0.56335 0.81014 0.23286 0.0
C262 C 0.57915 0.83045 0.2309 0.0
C263 C 0.57679 0.84331 0.21312 0.0
C264 C 0.55848 0.83601 0.19744 0.0
C265 C 0.54267 0.81571 0.19967 0.0
C266 C 0.54516 0.80286 0.21705 0.0
C267 C 0.56639 0.74879 0.24047 0.0
C268 C 0.55018 0.73715 0.22212 0.0
C269 C 0.54886 0.72058 0.21007 0.0
C270 C 0.56371 0.71524 0.21617 0.0
C271 C 0.58015 0.7271 0.23418 0.0
C272 C 0.58158 0.74382 0.24601 0.0
C273 C 0.5669 0.76567 0.25446 0.0
C274 C 0.56589 0.78022 0.23875 0.0
C275 C 0.56772 0.7671 0.28314 0.0
C276 C 0.56611 0.75073 0.30054 0.0
C277 C 0.54878 0.73124 0.29778 0.0
C278 C 0.54848 0.71516 0.3108 0.0
C279 C 0.56533 0.71824 0.32734 0.0
C280 C 0.58216 0.73796 0.33131 0.0
C281 C 0.58253 0.75409 0.31801 0.0
H282 H 0.72096 0.51526 0.7177 0.0
H283 H 0.69274 0.51538 0.69228 0.0
H284 H 0.70981 0.57177 0.72793 0.0
H285 H 0.73831 0.57179 0.75277 0.0
H286 H 0.76272 0.53982 0.7178 0.0
H287 H 0.70869 0.51459 0.78249 0.0
H288 H 0.67964 0.51313 0.8066 0.0
H289 H 0.72236 0.57097 0.84086 0.0
H290 H 0.75151 0.57249 0.81612 0.0
H291 H 0.80875 0.57006 0.81808 0.0
H292 H 0.83461 0.5681 0.84653 0.0
H293 H 0.8155 0.51064 0.81277 0.0
H294 H 0.78929 0.51248 0.78481 0.0
H295 H 0.76644 0.54571 0.81813 0.0
H296 H 0.82253 0.56444 0.75259 0.0
H297 H 0.84662 0.56135 0.72268 0.0
H298 H 0.79429 0.50779 0.68902 0.0
H299 H 0.77039 0.51079 0.719 0.0
C300 C 0.7317 0.54346 0.73727 0.0
C301 C 0.71872 0.52772 0.71987 0.0
C302 C 0.70246 0.52772 0.70557 0.0
C303 C 0.69894 0.54354 0.70818 0.0
C304 C 0.71218 0.55943 0.7253 0.0
C305 C 0.72839 0.55939 0.73967 0.0
C306 C 0.74841 0.54301 0.75333 0.0
C307 C 0.76348 0.54093 0.73977 0.0
C308 C 0.74943 0.54453 0.78193 0.0
C309 C 0.73219 0.5437 0.79744 0.0
C310 C 0.7118 0.52699 0.79513 0.0
C311 C 0.69525 0.52613 0.80902 0.0
C312 C 0.69876 0.54193 0.82563 0.0
C313 C 0.71921 0.55867 0.82799 0.0
C314 C 0.73585 0.55948 0.81412 0.0
C315 C 0.79721 0.54154 0.79906 0.0
C316 C 0.81015 0.55705 0.81676 0.0
C317 C 0.82503 0.55596 0.83291 0.0
C318 C 0.8272 0.53923 0.83189 0.0
C319 C 0.81414 0.52365 0.81422 0.0
C320 C 0.7993 0.52479 0.79799 0.0
C321 C 0.78102 0.5426 0.78258 0.0
C322 C 0.76595 0.54481 0.79615 0.0
C323 C 0.77962 0.54046 0.75398 0.0
C324 C 0.79465 0.53784 0.73803 0.0
C325 C 0.81632 0.55183 0.73914 0.0
C326 C 0.83005 0.55008 0.72203 0.0
C327 C 0.82227 0.53445 0.70335 0.0
C328 C 0.80067 0.52018 0.70289 0.0
C329 C 0.78702 0.52184 0.72007 0.0
H330 H 0.26245 0.81927 0.25076 0.0
H331 H 0.29186 0.84699 0.22578 0.0
H332 H 0.33432 0.83243 0.26467 0.0
H333 H 0.30492 0.80463 0.28912 0.0
H334 H 0.24792 0.77983 0.24775 0.0
H335 H 0.27103 0.82667 0.32024 0.0
H336 H 0.29626 0.8522 0.35087 0.0
H337 H 0.31549 0.81162 0.37911 0.0
H338 H 0.28955 0.78593 0.34915 0.0
H339 H 0.23699 0.73324 0.34709 0.0
H340 H 0.21045 0.70393 0.37277 0.0
H341 H 0.16156 0.70594 0.32849 0.0
H342 H 0.18804 0.73608 0.30387 0.0
H343 H 0.24655 0.76873 0.34743 0.0
H344 H 0.22394 0.72208 0.27167 0.0
H345 H 0.20121 0.69882 0.23681 0.0
H346 H 0.18112 0.73964 0.21353 0.0
H347 H 0.20442 0.76302 0.24775 0.0
C348 C 0.28146 0.80993 0.27199 0.0
C349 C 0.27813 0.82216 0.25404 0.0
C350 C 0.29496 0.83807 0.23991 0.0
C351 C 0.31543 0.84189 0.24318 0.0
C352 C 0.31873 0.82979 0.26149 0.0
C353 C 0.30195 0.81399 0.2757 0.0
C354 C 0.2635 0.79219 0.28566 0.0
C355 C 0.24741 0.7775 0.26961 0.0
C356 C 0.26297 0.78896 0.31407 0.0
C357 C 0.27855 0.80449 0.33235 0.0
C358 C 0.28073 0.82333 0.33303 0.0
C359 C 0.29524 0.83793 0.35049 0.0
C360 C 0.30803 0.83405 0.36746 0.0
C361 C 0.30571 0.81507 0.36671 0.0
C362 C 0.291 0.80039 0.34946 0.0
C363 C 0.21468 0.73694 0.32321 0.0
C364 C 0.22058 0.72749 0.34285 0.0
C365 C 0.20544 0.71071 0.35751 0.0
C366 C 0.18404 0.70274 0.35253 0.0
C367 C 0.17801 0.71176 0.33249 0.0
C368 C 0.19318 0.72888 0.31824 0.0
C369 C 0.2311 0.75583 0.30946 0.0
C370 C 0.24692 0.77089 0.32555 0.0
C371 C 0.23131 0.75936 0.28105 0.0
C372 C 0.21582 0.74423 0.26226 0.0
C373 C 0.21441 0.72584 0.25926 0.0
C374 C 0.20136 0.71255 0.23935 0.0
C375 C 0.18944 0.71741 0.22214 0.0
C376 C 0.1904 0.73558 0.22596 0.0
C377 C 0.20357 0.74891 0.24566 0.0
H378 H 0.49309 0.26965 0.8176 0.0
H379 H 0.49547 0.29527 0.84747 0.0
H380 H 0.43467 0.28213 0.81978 0.0
H381 H 0.4324 0.25648 0.78972 0.0
H382 H 0.46192 0.22827 0.81788 0.0
H383 H 0.48819 0.28687 0.75721 0.0
H384 H 0.48865 0.31301 0.72859 0.0
H385 H 0.43091 0.26852 0.69055 0.0
H386 H 0.43044 0.24251 0.7193 0.0
H387 H 0.43779 0.19456 0.7084 0.0
H388 H 0.44365 0.17341 0.6786 0.0
H389 H 0.49923 0.18763 0.72448 0.0
H390 H 0.49312 0.20849 0.75427 0.0
H391 H 0.46059 0.23329 0.71734 0.0
H392 H 0.43312 0.17522 0.77073 0.0
H393 H 0.43165 0.14608 0.79158 0.0
H394 H 0.48405 0.18489 0.84317 0.0
H395 H 0.48614 0.21408 0.82113 0.0
C396 C 0.46261 0.26122 0.80137 0.0
C397 C 0.48028 0.27231 0.81791 0.0
C398 C 0.48168 0.28702 0.83484 0.0
C399 C 0.46528 0.29074 0.83591 0.0
C400 C 0.44749 0.27952 0.81947 0.0
C401 C 0.44623 0.26495 0.80221 0.0
C402 C 0.46141 0.24559 0.78366 0.0
C403 C 0.4618 0.22944 0.79589 0.0
C404 C 0.46009 0.2465 0.75503 0.0
C405 C 0.45921 0.26276 0.74048 0.0
C406 C 0.47536 0.28283 0.74321 0.0
C407 C 0.47563 0.29774 0.72681 0.0
C408 C 0.4599 0.29275 0.70721 0.0
C409 C 0.44339 0.27274 0.70522 0.0
C410 C 0.44306 0.2579 0.72169 0.0
C411 C 0.46488 0.20297 0.73377 0.0
C412 C 0.4512 0.19307 0.71206 0.0
C413 C 0.45463 0.18103 0.69497 0.0
C414 C 0.4719 0.17876 0.69913 0.0
C415 C 0.48555 0.18871 0.72094 0.0
C416 C 0.4821 0.2007 0.738 0.0
C417 C 0.46173 0.21631 0.75147 0.0
C418 C 0.46045 0.23195 0.73934 0.0
C419 C 0.46146 0.21454 0.78017 0.0
C420 C 0.45997 0.19687 0.79403 0.0
C421 C 0.44442 0.17747 0.78637 0.0
C422 C 0.44343 0.16079 0.79857 0.0
C423 C 0.45777 0.16312 0.819 0.0
C424 C 0.47298 0.18256 0.82717 0.0
C425 C 0.47407 0.19927 0.81479 0.0
C426 C 0.07427 0.52763 0.05949 0.0
C427 C 0.0542 0.51446 0.04902 0.0
C428 C 0.08266 0.52135 0.07996 0.0
C429 C 0.08264 0.47769 0.10409 0.0
H430 H 0.11437 0.51163 0.16419 0.0
C431 C 0.13411 0.46044 0.17522 0.0
C432 C 0.15361 0.47701 0.18273 0.0
C433 C 0.11912 0.46316 0.16187 0.0
C434 C 0.10571 0.50202 0.14742 0.0
H435 H 0.0269 0.48449 0.052 0.0
H436 H 0.04195 0.47317 0.08772 0.0
H437 H 0.09242 0.51964 0.13655 0.0
H438 H 0.17287 0.50939 0.18138 0.0
H439 H 0.14707 0.51415 0.15782 0.0
H440 H 0.09674 0.46064 0.11402 0.0
C441 C 0.05099 0.48848 0.08019 0.0
C442 C 0.093 0.50654 0.13174 0.0
C443 C 0.04234 0.49496 0.05999 0.0
C444 C 0.15787 0.49632 0.17632 0.0
C445 C 0.14299 0.49903 0.1629 0.0
C446 C 0.09554 0.47325 0.11965 0.0
C447 C 0.07136 0.5016 0.09012 0.0
C448 C 0.08175 0.49473 0.10949 0.0
C449 C 0.12334 0.48252 0.15563 0.0
C450 C 0.1077 0.4857 0.14105 0.0
H451 H 0.08373 0.54274 0.05134 0.0
H452 H 0.09845 0.53174 0.08697 0.0
H453 H 0.0743 0.46844 0.08689 0.0
H454 H 0.13029 0.44538 0.18012 0.0
H455 H 0.10412 0.4501 0.1568 0.0
C456 C 0.56775 0.03692 0.5869 0.0
C457 C 0.57639 0.03836 0.56113 0.0
C458 C 0.58086 0.04585 0.60936 0.0
C459 C 0.63621 0.0694 0.63307 0.0
H460 H 0.62387 0.10404 0.67303 0.0
C461 C 0.69995 0.14077 0.68456 0.0
C462 C 0.6957 0.14601 0.70975 0.0
C463 C 0.6843 0.12432 0.67058 0.0
C464 C 0.62738 0.09418 0.66246 0.0
H465 H 0.60539 0.04906 0.53906 0.0
H466 H 0.62809 0.06456 0.57791 0.0
H467 H 0.59796 0.08003 0.64154 0.0
H468 H 0.67167 0.13762 0.7403 0.0
H469 H 0.64419 0.10904 0.71555 0.0
H470 H 0.666 0.08417 0.65318 0.0
C471 C 0.61128 0.05655 0.58099 0.0
C472 C 0.6125 0.08037 0.64444 0.0
C473 C 0.59824 0.04777 0.55861 0.0
C474 C 0.67541 0.1342 0.72075 0.0
C475 C 0.65968 0.11779 0.70664 0.0
C476 C 0.6511 0.08324 0.651 0.0
C477 C 0.6028 0.05619 0.60647 0.0
C478 C 0.617 0.06823 0.62894 0.0
C479 C 0.66394 0.11274 0.68133 0.0
C480 C 0.64708 0.09618 0.6653 0.0
H481 H 0.55096 0.02977 0.58946 0.0
H482 H 0.57384 0.04513 0.6288 0.0
H483 H 0.64001 0.06 0.62182 0.0
H484 H 0.71525 0.14971 0.6752 0.0
H485 H 0.68798 0.12107 0.65087 0.0
C486 C 0.53813 0.55602 0.13636 0.0
C487 C 0.53404 0.55329 0.10829 0.0
C488 C 0.54234 0.57371 0.14859 0.0
C489 C 0.53332 0.61524 0.1386 0.0
H490 H 0.57783 0.64278 0.19142 0.0
C491 C 0.5568 0.69313 0.17639 0.0
C492 C 0.56179 0.69718 0.20403 0.0
C493 C 0.5542 0.67578 0.16512 0.0
C494 C 0.56516 0.63515 0.17696 0.0
H495 H 0.53227 0.56766 0.071 0.0
H496 H 0.53928 0.59816 0.09231 0.0
H497 H 0.57179 0.61198 0.17138 0.0
H498 H 0.56803 0.68621 0.24153 0.0
H499 H 0.56322 0.65575 0.22198 0.0
H500 H 0.52642 0.63809 0.14429 0.0
C501 C 0.53886 0.58648 0.10495 0.0
C502 C 0.56174 0.61751 0.16546 0.0
C503 C 0.53478 0.56891 0.09273 0.0
C504 C 0.56441 0.68361 0.22008 0.0
C505 C 0.56168 0.66616 0.20885 0.0
C506 C 0.53665 0.63275 0.15019 0.0
C507 C 0.54246 0.58902 0.13305 0.0
C508 C 0.54588 0.60745 0.14598 0.0
C509 C 0.55637 0.66194 0.18125 0.0
C510 C 0.55271 0.64306 0.16936 0.0
H511 H 0.53756 0.54431 0.14903 0.0
H512 H 0.54493 0.57518 0.17033 0.0
H513 H 0.52072 0.60764 0.12403 0.0
H514 H 0.555 0.70345 0.16339 0.0
H515 H 0.55058 0.67328 0.14368 0.0
C516 C 0.94299 0.51654 0.55802 0.0
C517 C 0.93748 0.51357 0.53036 0.0
C518 C 0.93113 0.51988 0.57638 0.0
C519 C 0.87847 0.51077 0.58648 0.0
H520 H 0.90521 0.5517 0.64102 0.0
C521 C 0.83041 0.52966 0.65606 0.0
C522 C 0.83635 0.53338 0.6835 0.0
C523 C 0.84326 0.52813 0.63725 0.0
C524 C 0.89751 0.54004 0.62613 0.0
H525 H 0.9153 0.51188 0.50026 0.0
H526 H 0.89451 0.51774 0.5324 0.0
H527 H 0.92671 0.54746 0.60818 0.0
H528 H 0.86048 0.53862 0.71274 0.0
H529 H 0.88288 0.5356 0.67991 0.0
H530 H 0.84931 0.50305 0.60458 0.0
C531 C 0.90799 0.5174 0.53983 0.0
C532 C 0.90982 0.53767 0.60728 0.0
C533 C 0.91997 0.51421 0.52141 0.0
C534 C 0.85559 0.53586 0.69168 0.0
C535 C 0.86842 0.53418 0.67285 0.0
C536 C 0.86617 0.51305 0.6054 0.0
C537 C 0.91342 0.5202 0.56752 0.0
C538 C 0.90041 0.52302 0.58725 0.0
C539 C 0.86231 0.53015 0.64543 0.0
C540 C 0.87552 0.52774 0.62543 0.0
H541 H 0.95657 0.51641 0.56548 0.0
H542 H 0.93561 0.52185 0.59761 0.0
H543 H 0.87079 0.49913 0.57156 0.0
H544 H 0.81586 0.52808 0.64908 0.0
H545 H 0.83829 0.52548 0.61621 0.0
C546 C 0.45098 0.96932 0.08772 0.0
C547 C 0.45684 0.9587 0.07116 0.0
C548 C 0.43776 0.95976 0.11019 0.0
C549 C 0.41904 0.91681 0.15769 0.0
H550 H 0.36623 0.91483 0.15864 0.0
C551 C 0.34746 0.85388 0.21447 0.0
C552 C 0.33314 0.85778 0.22669 0.0
C553 C 0.36391 0.8685 0.1985 0.0
C554 C 0.38104 0.9155 0.15911 0.0
H555 H 0.45444 0.93026 0.06574 0.0
H556 H 0.43209 0.91391 0.10515 0.0
H557 H 0.39358 0.93723 0.12644 0.0
H558 H 0.32504 0.88025 0.23193 0.0
H559 H 0.35402 0.90599 0.20435 0.0
H560 H 0.4067 0.89511 0.19011 0.0
C561 C 0.43738 0.92944 0.10075 0.0
C562 C 0.3967 0.92836 0.14062 0.0
C563 C 0.45009 0.93878 0.0781 0.0
C564 C 0.33572 0.87673 0.22261 0.0
C565 C 0.35233 0.89147 0.20675 0.0
C566 C 0.40353 0.90416 0.17635 0.0
C567 C 0.43074 0.93966 0.11678 0.0
C568 C 0.41562 0.92871 0.13923 0.0
C569 C 0.36665 0.88754 0.19444 0.0
C570 C 0.38405 0.90285 0.17678 0.0
H571 H 0.45588 0.98466 0.08266 0.0
H572 H 0.43288 0.96798 0.12227 0.0
H573 H 0.43358 0.91696 0.15727 0.0
H574 H 0.34569 0.83932 0.21674 0.0
H575 H 0.37421 0.86465 0.18884 0.0
C576 C 0.4799 0.41028 0.52425 0.0
C577 C 0.48362 0.42876 0.53323 0.0
C578 C 0.47661 0.39523 0.54297 0.0
C579 C 0.48742 0.3878 0.61373 0.0
H580 H 0.44213 0.33289 0.60417 0.0
C581 C 0.46673 0.32708 0.69647 0.0
C582 C 0.46138 0.30808 0.68768 0.0
C583 C 0.4687 0.34162 0.67773 0.0
C584 C 0.45501 0.34811 0.60698 0.0
H585 H 0.486 0.44545 0.56916 0.0
H586 H 0.48068 0.41945 0.60151 0.0
H587 H 0.44731 0.35849 0.57067 0.0
H588 H 0.45422 0.28947 0.65242 0.0
H589 H 0.45797 0.31485 0.61974 0.0
H590 H 0.49541 0.3775 0.64972 0.0
C591 C 0.4806 0.41673 0.58 0.0
C592 C 0.45794 0.36275 0.5878 0.0
C593 C 0.48372 0.43169 0.56137 0.0
C594 C 0.458 0.30388 0.65984 0.0
C595 C 0.46012 0.31843 0.64112 0.0
C596 C 0.4846 0.37315 0.63279 0.0
C597 C 0.4771 0.39839 0.57103 0.0
C598 C 0.47414 0.38274 0.59104 0.0
C599 C 0.46556 0.33751 0.6498 0.0
C600 C 0.46834 0.35313 0.62969 0.0
H601 H 0.47989 0.40754 0.5028 0.0
H602 H 0.4741 0.38126 0.5355 0.0
H603 H 0.50022 0.40306 0.61655 0.0
H604 H 0.46924 0.33065 0.71784 0.0
H605 H 0.47258 0.35605 0.68518 0.0
C606 C 0.55145 0.97056 0.44897 0.0
C607 C 0.55092 0.98535 0.43301 0.0
C608 C 0.55328 0.95559 0.43684 0.0
C609 C 0.56802 0.9427 0.37159 0.0
H610 H 0.53913 0.88923 0.40352 0.0
C611 C 0.55881 0.8739 0.31696 0.0
C612 C 0.56297 0.86112 0.33247 0.0
C613 C 0.5578 0.88926 0.3293 0.0
C614 C 0.54743 0.90414 0.3945 0.0
H615 H 0.5515 0.99581 0.39178 0.0
H616 H 0.55409 0.96945 0.37047 0.0
H617 H 0.5361 0.91541 0.42459 0.0
H618 H 0.56916 0.85431 0.37313 0.0
H619 H 0.56718 0.88104 0.39478 0.0
H620 H 0.57885 0.93114 0.3411 0.0
C621 C 0.55372 0.96967 0.39244 0.0
C622 C 0.54577 0.91921 0.40662 0.0
C623 C 0.55216 0.98478 0.40462 0.0
C624 C 0.56607 0.864 0.36063 0.0
C625 C 0.56477 0.8792 0.37304 0.0
C626 C 0.56945 0.92756 0.3593 0.0
C627 C 0.55435 0.95486 0.40837 0.0
C628 C 0.55608 0.93874 0.39538 0.0
C629 C 0.56065 0.89201 0.3575 0.0
C630 C 0.55921 0.90812 0.37064 0.0
H631 H 0.55084 0.97077 0.47092 0.0
H632 H 0.55414 0.94476 0.44987 0.0
H633 H 0.57653 0.95759 0.36258 0.0
H634 H 0.55651 0.87213 0.29519 0.0
H635 H 0.55446 0.8988 0.31682 0.0
C636 C 0.55516 0.52756 0.9646 0.0
C637 C 0.55121 0.5119 0.98277 0.0
C638 C 0.5695 0.53287 0.94327 0.0
C639 C 0.59236 0.51272 0.89971 0.0
H640 H 0.64471 0.56402 0.9008 0.0
C641 C 0.66672 0.5226 0.85434 0.0
C642 C 0.68106 0.54053 0.84081 0.0
C643 C 0.6496 0.52078 0.86797 0.0
C644 C 0.63002 0.5498 0.89977 0.0
H645 H 0.55851 0.48913 0.99252 0.0
H646 H 0.58293 0.49801 0.95502 0.0
H647 H 0.6159 0.55786 0.93069 0.0
H648 H 0.68883 0.57072 0.83107 0.0
H649 H 0.65865 0.56752 0.85495 0.0
H650 H 0.60633 0.50436 0.86936 0.0
C651 C 0.57524 0.50635 0.95742 0.0
C652 C 0.61357 0.54631 0.91685 0.0
C653 C 0.56139 0.50137 0.97895 0.0
C654 C 0.67807 0.55676 0.8415 0.0
C655 C 0.6608 0.55491 0.85511 0.0
C656 C 0.60863 0.51625 0.88248 0.0
C657 C 0.57952 0.52218 0.93952 0.0
C658 C 0.59494 0.52749 0.91761 0.0
C659 C 0.64628 0.53681 0.8683 0.0
C660 C 0.62796 0.53452 0.88312 0.0
H661 H 0.5475 0.5359 0.96721 0.0
H662 H 0.57267 0.54518 0.92965 0.0
H663 H 0.57802 0.49813 0.89987 0.0
H664 H 0.66885 0.50997 0.85462 0.0
H665 H 0.6391 0.50682 0.87859 0.0
C666 C 0.05177 0.54664 0.46562 0.0
C667 C 0.04346 0.54854 0.49003 0.0
C668 C 0.06812 0.56345 0.45234 0.0
C669 C 0.09469 0.61927 0.44975 0.0
H670 H 0.13277 0.61483 0.4019 0.0
C671 C 0.16795 0.68648 0.39728 0.0
C672 C 0.16812 0.68537 0.36884 0.0
C673 C 0.15313 0.67005 0.41286 0.0
C674 C 0.12218 0.61622 0.41515 0.0
H675 H 0.04658 0.56949 0.52037 0.0
H676 H 0.07592 0.5987 0.49814 0.0
H677 H 0.10773 0.58592 0.42926 0.0
H678 H 0.1532 0.66634 0.33433 0.0
H679 H 0.12764 0.63723 0.36176 0.0
H680 H 0.10999 0.64994 0.43617 0.0
C681 C 0.06927 0.58435 0.48852 0.0
C682 C 0.10768 0.59963 0.43077 0.0
C683 C 0.05257 0.56755 0.50152 0.0
C684 C 0.1533 0.66753 0.35622 0.0
C685 C 0.1388 0.65093 0.37187 0.0
C686 C 0.10954 0.63598 0.43459 0.0
C687 C 0.07698 0.58265 0.46336 0.0
C688 C 0.09348 0.60078 0.44806 0.0
C689 C 0.13856 0.65208 0.40032 0.0
C690 C 0.12322 0.63453 0.41691 0.0
H691 H 0.04498 0.53226 0.456 0.0
H692 H 0.07318 0.56137 0.43286 0.0
H693 H 0.08386 0.62082 0.46226 0.0
H694 H 0.17921 0.70012 0.40742 0.0
H695 H 0.15328 0.67127 0.43476 0.0
C696 C 0.44362 0.01254 0.92525 0.0
C697 C 0.46331 0.01752 0.93558 0.0
C698 C 0.44139 0.02671 0.91033 0.0
C699 C 0.47116 0.07302 0.86961 0.0
H700 H 0.42925 0.0846 0.89218 0.0
C701 C 0.47582 0.14589 0.83726 0.0
C702 C 0.45713 0.14535 0.83132 0.0
C703 C 0.47528 0.12912 0.84832 0.0
C704 C 0.44081 0.08135 0.88527 0.0
H705 H 0.49618 0.04082 0.93757 0.0
H706 H 0.49235 0.06543 0.91148 0.0
H707 H 0.4302 0.05669 0.91346 0.0
H708 H 0.42317 0.12671 0.83274 0.0
H709 H 0.42225 0.09723 0.85127 0.0
H710 H 0.48185 0.09757 0.84147 0.0
C711 C 0.47862 0.05069 0.915 0.0
C712 C 0.44134 0.06537 0.89749 0.0
C713 C 0.48078 0.03668 0.93016 0.0
C714 C 0.43787 0.12759 0.83677 0.0
C715 C 0.43734 0.11075 0.84769 0.0
C716 C 0.47053 0.08886 0.85724 0.0
C717 C 0.4589 0.04592 0.90511 0.0
C718 C 0.45679 0.06133 0.89014 0.0
C719 C 0.45605 0.11129 0.85355 0.0
C720 C 0.45563 0.09348 0.8653 0.0
H721 H 0.42994 0.99787 0.92924 0.0
H722 H 0.42602 0.02267 0.90283 0.0
H723 H 0.48306 0.07003 0.86332 0.0
H724 H 0.49092 0.15922 0.83302 0.0
H725 H 0.49001 0.1302 0.853 0.0
C726 C 0.42528 0.48078 0.49111 0.0
C727 C 0.44613 0.49258 0.48218 0.0
C728 C 0.40887 0.47943 0.47539 0.0
C729 C 0.39792 0.50232 0.41434 0.0
H730 H 0.34519 0.45135 0.41424 0.0
C731 C 0.33377 0.47924 0.33142 0.0
C732 C 0.3138 0.47328 0.34146 0.0
C733 C 0.34971 0.48182 0.34921 0.0
C734 C 0.35983 0.46568 0.41417 0.0
H735 H 0.46613 0.51243 0.44982 0.0
H736 H 0.43775 0.50946 0.42205 0.0
H737 H 0.37335 0.45595 0.4445 0.0
H738 H 0.29461 0.4648 0.37767 0.0
H739 H 0.32231 0.46863 0.40868 0.0
H740 H 0.38447 0.51158 0.38298 0.0
C741 C 0.43387 0.50171 0.44155 0.0
C742 C 0.37596 0.46844 0.4317 0.0
C743 C 0.45026 0.50336 0.4575 0.0
C744 C 0.3099 0.46945 0.36947 0.0
C745 C 0.32568 0.47158 0.38715 0.0
C746 C 0.38194 0.49939 0.39642 0.0
C747 C 0.41286 0.48953 0.45005 0.0
C748 C 0.3953 0.48681 0.43206 0.0
C749 C 0.34581 0.47802 0.37724 0.0
C750 C 0.36276 0.48105 0.39616 0.0
H751 H 0.42159 0.47237 0.5101 0.0
H752 H 0.39303 0.47029 0.48308 0.0
H753 H 0.41229 0.51684 0.41431 0.0
H754 H 0.33716 0.48238 0.30993 0.0
H755 H 0.36508 0.4867 0.34107 0.0
C756 C 0.99802 0.46618 0.89262 0.0
C757 C 0.9956 0.47031 0.91951 0.0
C758 C 0.98258 0.44844 0.8805 0.0
C759 C 0.9264 0.41019 0.88686 0.0
H760 H 0.93932 0.37747 0.8433 0.0
C761 C 0.86284 0.33071 0.85669 0.0
C762 C 0.86316 0.32487 0.83003 0.0
C763 C 0.87958 0.34858 0.86657 0.0
C764 C 0.93548 0.38658 0.85516 0.0
H765 H 0.97577 0.45849 0.95527 0.0
H766 H 0.94903 0.42781 0.93426 0.0
H767 H 0.96787 0.40863 0.86219 0.0
H768 H 0.88126 0.33323 0.79275 0.0
H769 H 0.91053 0.36451 0.81003 0.0
H770 H 0.89411 0.38828 0.87998 0.0
C771 C 0.9625 0.43844 0.92225 0.0
C772 C 0.95182 0.4044 0.86595 0.0
C773 C 0.97784 0.45606 0.93429 0.0
C774 C 0.88068 0.33721 0.81352 0.0
C775 C 0.89744 0.35512 0.8234 0.0
C776 C 0.91013 0.39245 0.87609 0.0
C777 C 0.9645 0.43456 0.8951 0.0
C778 C 0.94741 0.41624 0.88222 0.0
C779 C 0.897 0.36106 0.84999 0.0
C780 C 0.91446 0.38031 0.86041 0.0
H781 H 0.0115 0.4769 0.88073 0.0
H782 H 0.98451 0.44586 0.8595 0.0
H783 H 0.9225 0.41921 0.89883 0.0
H784 H 0.84972 0.32136 0.87004 0.0
H785 H 0.87894 0.35255 0.88732 0.0
C786 C 0.97838 0.5554 0.94881 0.0
C787 C 0.97724 0.53901 0.96262 0.0
C788 C 0.96027 0.55447 0.93935 0.0
C789 C 0.9074 0.51893 0.91542 0.0
H790 H 0.90114 0.56487 0.91775 0.0
C791 C 0.83813 0.52015 0.86268 0.0
C792 C 0.84302 0.53811 0.84926 0.0
C793 C 0.85295 0.51928 0.87935 0.0
C794 C 0.90271 0.55195 0.91669 0.0
H795 H 0.95612 0.50888 0.97795 0.0
H796 H 0.92417 0.50713 0.96103 0.0
H797 H 0.92936 0.56508 0.94317 0.0
H798 H 0.86757 0.56908 0.84238 0.0
H799 H 0.89338 0.56756 0.8711 0.0
H800 H 0.88115 0.50606 0.88822 0.0
C801 C 0.93922 0.52074 0.95766 0.0
C802 C 0.91884 0.55204 0.93141 0.0
C803 C 0.95744 0.5218 0.96754 0.0
C804 C 0.86313 0.55511 0.85277 0.0
C805 C 0.87793 0.55423 0.86934 0.0
C806 C 0.89129 0.51888 0.90056 0.0
C807 C 0.94049 0.53702 0.94317 0.0
C808 C 0.92166 0.53572 0.93051 0.0
C809 C 0.87304 0.53634 0.88298 0.0
C810 C 0.88901 0.53558 0.90054 0.0
H811 H 0.99341 0.56888 0.94471 0.0
H812 H 0.96186 0.56719 0.92803 0.0
H813 H 0.90928 0.5062 0.91408 0.0
H814 H 0.8227 0.50683 0.86069 0.0
H815 H 0.84853 0.50531 0.88973 0.0
C816 C 0.4539 0.98059 0.46105 0.0
C817 C 0.46619 0.97956 0.48204 0.0
C818 C 0.43425 0.96408 0.4551 0.0
C819 C 0.40465 0.90943 0.45966 0.0
H820 H 0.36009 0.91604 0.43115 0.0
C821 C 0.3283 0.84494 0.41143 0.0
C822 C 0.32391 0.84983 0.3855 0.0
C823 C 0.34359 0.85981 0.428 0.0
C824 C 0.37237 0.91396 0.43916 0.0
H825 H 0.46716 0.9606 0.51399 0.0
H826 H 0.4325 0.93154 0.50358 0.0
H827 H 0.39021 0.94395 0.45333 0.0
H828 H 0.33246 0.87429 0.35671 0.0
H829 H 0.35861 0.90015 0.38587 0.0
H830 H 0.38684 0.87948 0.44492 0.0
C831 C 0.43828 0.94517 0.49161 0.0
C832 C 0.38963 0.92993 0.45182 0.0
C833 C 0.45804 0.96182 0.49766 0.0
C834 C 0.33503 0.86997 0.37673 0.0
C835 C 0.35008 0.88482 0.39342 0.0
C836 C 0.38725 0.89338 0.44718 0.0
C837 C 0.4263 0.94606 0.46999 0.0
C838 C 0.40633 0.92808 0.46133 0.0
C839 C 0.35457 0.87989 0.41915 0.0
C840 C 0.37131 0.89573 0.43601 0.0
H841 H 0.45965 0.99404 0.44866 0.0
H842 H 0.42567 0.96524 0.43802 0.0
H843 H 0.4173 0.90755 0.46656 0.0
H844 H 0.31983 0.82965 0.41905 0.0
H845 H 0.3467 0.85565 0.44782 0.0
C846 C 0.49944 0.42852 0.98445 0.0
C847 C 0.48468 0.42379 0.00515 0.0
C848 C 0.49717 0.41384 0.9667 0.0
C849 C 0.45787 0.36588 0.93735 0.0
H850 H 0.50565 0.36144 0.92031 0.0
C851 C 0.44997 0.30188 0.87154 0.0
C852 C 0.46676 0.30615 0.85443 0.0
C853 C 0.45184 0.31606 0.89001 0.0
C854 C 0.49219 0.36263 0.92444 0.0
H855 H 0.45593 0.39994 0.02338 0.0
H856 H 0.45185 0.37424 0.99217 0.0
H857 H 0.50962 0.38636 0.95243 0.0
H858 H 0.49838 0.32886 0.84252 0.0
H859 H 0.50149 0.35379 0.874 0.0
H860 H 0.44051 0.34254 0.90892 0.0
C861 C 0.4652 0.38935 0.98977 0.0
C862 C 0.49447 0.37688 0.94301 0.0
C863 C 0.46763 0.40399 0.00778 0.0
C864 C 0.48528 0.32504 0.85573 0.0
C865 C 0.48707 0.3393 0.87393 0.0
C866 C 0.45562 0.35177 0.91851 0.0
C867 C 0.47995 0.39412 0.96902 0.0
C868 C 0.47735 0.37868 0.94966 0.0
C869 C 0.47048 0.33495 0.8916 0.0
C870 C 0.47277 0.34995 0.91174 0.0
H871 H 0.51283 0.44359 0.98206 0.0
H872 H 0.50872 0.41802 0.95083 0.0
H873 H 0.44445 0.36708 0.94183 0.0
H874 H 0.43558 0.28736 0.87119 0.0
H875 H 0.43882 0.31199 0.90348 0.0
C876 C 0.00432 0.45513 0.38804 0.0
C877 C 0.00505 0.45588 0.41656 0.0
C878 C 0.0174 0.45063 0.37386 0.0
C879 C 0.0528 0.43081 0.38315 0.0
H880 H 0.08263 0.46602 0.3219 0.0
C881 C 0.13316 0.4472 0.34645 0.0
C882 C 0.13642 0.4479 0.31831 0.0
C883 C 0.11477 0.44517 0.35654 0.0
C884 C 0.07421 0.45587 0.33871 0.0
H885 H 0.01899 0.45116 0.45257 0.0
H886 H 0.04208 0.44395 0.42807 0.0
H887 H 0.05389 0.46716 0.34259 0.0
H888 H 0.1231 0.44709 0.27865 0.0
H889 H 0.09097 0.44364 0.29633 0.0
H890 H 0.07381 0.42018 0.37989 0.0
C891 C 0.03139 0.44666 0.41651 0.0
C892 C 0.05768 0.45645 0.35052 0.0
C893 C 0.01834 0.4511 0.4306 0.0
C894 C 0.12089 0.44639 0.30045 0.0
C895 C 0.1026 0.44457 0.31054 0.0
C896 C 0.06945 0.43036 0.37148 0.0
C897 C 0.03139 0.44674 0.38796 0.0
C898 C 0.04705 0.44422 0.37324 0.0
C899 C 0.09941 0.44403 0.33868 0.0
C900 C 0.08056 0.44315 0.34948 0.0
H901 H 0.99427 0.45876 0.37666 0.0
H902 H 0.01682 0.45056 0.35187 0.0
H903 H 0.04469 0.42091 0.40029 0.0
H904 H 0.14483 0.44822 0.36065 0.0
H905 H 0.11282 0.44501 0.37834 0.0
C906 C 0.5503 0.05608 0.95408 0.0
C907 C 0.55017 0.04464 0.97648 0.0
C908 C 0.56895 0.07297 0.94524 0.0
C909 C 0.62388 0.09115 0.93943 0.0
H910 H 0.62894 0.14125 0.91764 0.0
C911 C 0.69718 0.15359 0.88194 0.0
C912 C 0.69378 0.16452 0.86174 0.0
C913 C 0.68095 0.14044 0.89954 0.0
C914 C 0.62775 0.12729 0.9233 0.0
H915 H 0.56923 0.04197 0.00764 0.0
H916 H 0.60231 0.07146 0.99158 0.0
H917 H 0.59824 0.11625 0.94317 0.0
H918 H 0.67063 0.16987 0.84367 0.0
H919 H 0.64218 0.14654 0.87354 0.0
H920 H 0.6527 0.10153 0.9183 0.0
C921 C 0.58782 0.06746 0.98124 0.0
C922 C 0.61023 0.11306 0.93818 0.0
C923 C 0.56894 0.05076 0.99054 0.0
C924 C 0.67378 0.16186 0.8593 0.0
C925 C 0.6575 0.14854 0.87661 0.0
C926 C 0.64128 0.10525 0.92416 0.0
C927 C 0.588 0.07852 0.95821 0.0
C928 C 0.60794 0.09472 0.94601 0.0
C929 C 0.66084 0.13772 0.89713 0.0
C930 C 0.64327 0.12338 0.9154 0.0
H931 H 0.53601 0.05155 0.94282 0.0
H932 H 0.56864 0.08107 0.92731 0.0
H933 H 0.62237 0.07701 0.94489 0.0
H934 H 0.71251 0.1555 0.88446 0.0
H935 H 0.68427 0.13262 0.91525 0.0
C936 C 0.53034 0.55778 0.40888 0.0
C937 C 0.54642 0.55568 0.42013 0.0
C938 C 0.53495 0.57539 0.39534 0.0
C939 C 0.57566 0.629 0.3922 0.0
H940 H 0.53971 0.62921 0.33499 0.0
C941 C 0.58437 0.70059 0.33984 0.0
C942 C 0.56566 0.70077 0.33904 0.0
C943 C 0.5842 0.6834 0.3484 0.0
C944 C 0.54988 0.62935 0.35095 0.0
H945 H 0.5801 0.57007 0.42462 0.0
H946 H 0.58827 0.60078 0.40016 0.0
H947 H 0.53617 0.59771 0.34955 0.0
H948 H 0.53235 0.68328 0.34809 0.0
H949 H 0.53204 0.6532 0.36216 0.0
H950 H 0.58937 0.66081 0.3933 0.0
C951 C 0.57201 0.58889 0.40241 0.0
C952 C 0.54783 0.61133 0.35936 0.0
C953 C 0.56736 0.5712 0.41613 0.0
C954 C 0.54695 0.68356 0.3478 0.0
C955 C 0.54675 0.66633 0.35593 0.0
C956 C 0.57791 0.64711 0.38346 0.0
C957 C 0.55581 0.59136 0.39241 0.0
C958 C 0.56025 0.61083 0.38066 0.0
C959 C 0.5653 0.66601 0.35593 0.0
C960 C 0.56462 0.64732 0.3633 0.0
H961 H 0.51407 0.54598 0.41123 0.0
H962 H 0.522 0.57675 0.38824 0.0
H963 H 0.58535 0.62919 0.40884 0.0
H964 H 0.59902 0.71347 0.33292 0.0
H965 H 0.5987 0.68346 0.34823 0.0
C966 C 0.52101 0.0792 0.56451 0.0
C967 C 0.51723 0.07893 0.5364 0.0
C968 C 0.51596 0.08988 0.58195 0.0
C969 C 0.483 0.11219 0.58653 0.0
H970 H 0.51985 0.1408 0.64671 0.0
C971 C 0.47288 0.16689 0.65233 0.0
C972 C 0.47601 0.16645 0.68052 0.0
C973 C 0.47745 0.1559 0.63478 0.0
C974 C 0.50927 0.13271 0.63018 0.0
H975 H 0.5051 0.08985 0.50476 0.0
H976 H 0.49681 0.10886 0.53503 0.0
H977 H 0.52907 0.12271 0.61593 0.0
H978 H 0.48581 0.15352 0.71235 0.0
H979 H 0.49391 0.13449 0.68173 0.0
H980 H 0.4633 0.12237 0.60073 0.0
C981 C 0.50341 0.10054 0.54365 0.0
C982 C 0.51455 0.12231 0.61252 0.0
C983 C 0.50844 0.08982 0.5262 0.0
C984 C 0.48357 0.15452 0.69072 0.0
C985 C 0.48821 0.14359 0.67317 0.0
C986 C 0.47776 0.12266 0.60415 0.0
C987 C 0.50703 0.10065 0.57179 0.0
C988 C 0.50148 0.11188 0.59047 0.0
C989 C 0.48533 0.14423 0.64496 0.0
C990 C 0.49082 0.13302 0.62622 0.0
H991 H 0.52798 0.07123 0.57313 0.0
H992 H 0.51878 0.08944 0.60352 0.0
H993 H 0.47237 0.10407 0.57006 0.0
H994 H 0.46738 0.17614 0.64369 0.0
H995 H 0.47529 0.15693 0.61313 0.0
C996 C 0.44363 0.50336 0.04391 0.0
C997 C 0.44063 0.48483 0.03651 0.0
C998 C 0.42766 0.50429 0.05686 0.0
C999 C 0.37098 0.47401 0.07595 0.0
H1000 H 0.38965 0.50875 0.13822 0.0
C1001 C 0.31666 0.46209 0.16534 0.0
C1002 C 0.31682 0.47893 0.17487 0.0
C1003 C 0.33156 0.46424 0.14657 0.0
C1004 C 0.38421 0.49916 0.12071 0.0
H1005 H 0.41803 0.45291 0.03536 0.0
H1006 H 0.39044 0.45446 0.05835 0.0
H1007 H 0.41544 0.51015 0.10703 0.0
H1008 H 0.33319 0.51134 0.17241 0.0
H1009 H 0.35964 0.51509 0.14013 0.0
H1010 H 0.33975 0.46249 0.09042 0.0
C1011 C 0.40498 0.46834 0.05391 0.0
C1012 C 0.39897 0.50001 0.10271 0.0
C1013 C 0.42088 0.46743 0.04076 0.0
C1014 C 0.33272 0.49806 0.16577 0.0
C1015 C 0.3478 0.50022 0.14717 0.0
C1016 C 0.35625 0.47303 0.0941 0.0
C1017 C 0.40838 0.48671 0.06288 0.0
C1018 C 0.39256 0.48724 0.08031 0.0
C1019 C 0.34717 0.48331 0.13711 0.0
C1020 C 0.36274 0.48538 0.11688 0.0
H1021 H 0.45861 0.51708 0.04071 0.0
H1022 H 0.43066 0.51875 0.06289 0.0
H1023 H 0.36544 0.46423 0.05866 0.0
H1024 H 0.30496 0.44716 0.17235 0.0
H1025 H 0.33097 0.45097 0.1396 0.0
C1026 C 0.96377 0.43753 0.55845 0.0
C1027 C 0.97303 0.45701 0.56855 0.0
C1028 C 0.95162 0.42082 0.57528 0.0
C1029 C 0.91986 0.40597 0.63787 0.0
H1030 H 0.91858 0.3563 0.63002 0.0
C1031 C 0.86759 0.33659 0.70597 0.0
C1032 C 0.85651 0.31796 0.69318 0.0
C1033 C 0.88326 0.35356 0.69211 0.0
C1034 C 0.91863 0.37001 0.63231 0.0
H1035 H 0.97741 0.47408 0.60471 0.0
H1036 H 0.95641 0.44486 0.63423 0.0
H1037 H 0.94397 0.38603 0.60414 0.0
H1038 H 0.85352 0.30259 0.65578 0.0
H1039 H 0.88086 0.33222 0.63154 0.0
H1040 H 0.89438 0.38993 0.66579 0.0
C1041 C 0.95829 0.44255 0.6131 0.0
C1042 C 0.93321 0.38708 0.61749 0.0
C1043 C 0.97049 0.45932 0.59622 0.0
C1044 C 0.86185 0.31665 0.66633 0.0
C1045 C 0.87755 0.33365 0.65244 0.0
C1046 C 0.90531 0.38892 0.65271 0.0
C1047 C 0.94839 0.42309 0.60271 0.0
C1048 C 0.9339 0.40525 0.61988 0.0
C1049 C 0.88832 0.35237 0.66508 0.0
C1050 C 0.90438 0.37067 0.64996 0.0
H1051 H 0.96537 0.43515 0.53724 0.0
H1052 H 0.9441 0.40612 0.56645 0.0
H1053 H 0.91965 0.41957 0.6399 0.0
H1054 H 0.86423 0.33807 0.72684 0.0
H1055 H 0.89149 0.36762 0.70267 0.0
C1056 C 0.5361 0.93659 0.0199 0.0
C1057 C 0.51919 0.93868 0.02668 0.0
C1058 C 0.54118 0.925 0.03647 0.0
C1059 C 0.51911 0.88411 0.08694 0.0
H1060 H 0.5756 0.90852 0.11563 0.0
C1061 C 0.53695 0.84915 0.17828 0.0
C1062 C 0.55574 0.84927 0.17834 0.0
C1063 C 0.53345 0.86026 0.15882 0.0
C1064 C 0.55984 0.90135 0.10749 0.0
H1065 H 0.49386 0.9298 0.0552 0.0
H1066 H 0.50246 0.90932 0.08384 0.0
H1067 H 0.56743 0.92661 0.08161 0.0
H1068 H 0.58581 0.86133 0.15859 0.0
H1069 H 0.57957 0.88052 0.12406 0.0
H1070 H 0.5114 0.85882 0.11242 0.0
C1071 C 0.5119 0.91673 0.06595 0.0
C1072 C 0.55519 0.91172 0.08803 0.0
C1073 C 0.50707 0.92853 0.04971 0.0
C1074 C 0.57125 0.86114 0.15904 0.0
C1075 C 0.56766 0.87211 0.13932 0.0
C1076 C 0.52378 0.87366 0.1061 0.0
C1077 C 0.52914 0.91504 0.05968 0.0
C1078 C 0.53469 0.90332 0.07799 0.0
C1079 C 0.54856 0.87155 0.13873 0.0
C1080 C 0.5441 0.88231 0.11706 0.0
H1081 H 0.54572 0.94441 0.00232 0.0
H1082 H 0.5545 0.92385 0.0312 0.0
H1083 H 0.50324 0.87721 0.07923 0.0
H1084 H 0.52487 0.84033 0.19321 0.0
H1085 H 0.51882 0.85992 0.15948 0.0
C1086 C 0.54712 0.51726 0.5766 0.0
C1087 C 0.55051 0.53294 0.55877 0.0
C1088 C 0.56243 0.51997 0.59555 0.0
C1089 C 0.61969 0.55158 0.60609 0.0
H1090 H 0.60678 0.52444 0.67637 0.0
C1091 C 0.68458 0.561 0.6804 0.0
C1092 C 0.68153 0.54345 0.6931 0.0
C1093 C 0.66832 0.56082 0.66581 0.0
C1094 C 0.61062 0.53201 0.65672 0.0
H1095 H 0.57216 0.56415 0.54815 0.0
H1096 H 0.59862 0.569 0.5816 0.0
H1097 H 0.57862 0.52268 0.64867 0.0
H1098 H 0.65878 0.51203 0.70094 0.0
H1099 H 0.63051 0.51165 0.67525 0.0
H1100 H 0.65165 0.56077 0.61403 0.0
C1101 C 0.58435 0.55444 0.58046 0.0
C1102 C 0.59448 0.53101 0.64083 0.0
C1103 C 0.56907 0.55171 0.56142 0.0
C1104 C 0.66174 0.52576 0.69115 0.0
C1105 C 0.64545 0.5256 0.67669 0.0
C1106 C 0.63582 0.55264 0.62201 0.0
C1107 C 0.58149 0.53845 0.59726 0.0
C1108 C 0.59876 0.54062 0.61517 0.0
C1109 C 0.64858 0.5431 0.6637 0.0
C1110 C 0.63148 0.54271 0.64741 0.0
H1111 H 0.53303 0.50258 0.57511 0.0
H1112 H 0.5597 0.50725 0.60795 0.0
H1113 H 0.62359 0.55885 0.58624 0.0
H1114 H 0.69966 0.57485 0.68133 0.0
H1115 H 0.67121 0.5746 0.65626 0.0
C1116 C 0.07237 0.60398 0.04569 0.0
C1117 C 0.08257 0.60062 0.02462 0.0
C1118 C 0.08389 0.61736 0.06625 0.0
C1119 C 0.13738 0.6587 0.08463 0.0
H1120 H 0.11556 0.64349 0.15801 0.0
C1121 C 0.17584 0.71224 0.17424 0.0
C1122 C 0.17677 0.70407 0.19957 0.0
C1123 C 0.16427 0.69984 0.15282 0.0
C1124 C 0.122 0.64789 0.1377 0.0
H1125 H 0.11284 0.60882 0.00832 0.0
H1126 H 0.13306 0.63198 0.04446 0.0
H1127 H 0.09597 0.62175 0.12058 0.0
H1128 H 0.16605 0.67632 0.22215 0.0
H1129 H 0.14644 0.65467 0.1845 0.0
H1130 H 0.1638 0.68447 0.10191 0.0
C1131 C 0.11614 0.62458 0.04487 0.0
C1132 C 0.11059 0.63556 0.11613 0.0
C1133 C 0.10458 0.61131 0.02413 0.0
C1134 C 0.16585 0.68314 0.20288 0.0
C1135 C 0.15437 0.67072 0.18136 0.0
C1136 C 0.14887 0.67097 0.10624 0.0
C1137 C 0.10592 0.62757 0.0664 0.0
C1138 C 0.11809 0.64082 0.0893 0.0
C1139 C 0.15345 0.67892 0.15604 0.0
C1140 C 0.1413 0.66575 0.13305 0.0
H1141 H 0.05542 0.59615 0.04632 0.0
H1142 H 0.07549 0.61964 0.08212 0.0
H1143 H 0.14356 0.66334 0.06423 0.0
H1144 H 0.18431 0.72827 0.17076 0.0
H1145 H 0.1637 0.7067 0.13376 0.0
loop_
_geom_bond_atom_site_label_1
_geom_bond_atom_site_label_2
_geom_bond_distance
_geom_bond_site_symmetry_2
_ccdc_geom_bond_type
Cu0 N1 1.999 1_454 S
Cu0 O6 1.974 1_454 S
Cu0 N11 1.985 . S
Cu0 O20 1.959 . S
N1 Cu0 1.999 1_656 S
N1 C3 1.263 . S
N1 C5 1.389 1_556 S
N2 C3 1.358 . S
N2 C4 1.400 . S
C3 N1 1.263 . S
C3 N2 1.358 . S
C3 H9 0.930 . S
C4 N2 1.400 . S
C4 C5 1.351 1_556 S
C4 H21 0.930 . S
C5 N1 1.389 1_554 S
C5 C4 1.351 1_554 S
C5 H10 0.930 . S
O6 Cu0 1.974 1_656 S
O6 C16 1.282 . S
C7 O8 1.261 1_554 S
C7 O20 1.251 . S
O8 C7 1.261 1_556 S
H9 C3 0.930 . S
H10 C5 0.930 . S
N11 Cu0 1.985 . S
N11 C13 1.335 . S
N11 C14 1.390 . S
N12 C13 1.345 . S
N12 C15 1.336 . S
C13 N11 1.335 . S
C13 N12 1.345 . S
C13 H18 0.930 . S
C14 N11 1.390 . S
C14 C15 1.346 . S
C14 H19 0.930 1_554 S
C15 N12 1.336 . S
C15 C14 1.346 . S
C15 H22 0.929 . S
C16 O6 1.282 . S
C16 O17 1.216 1_655 S
O17 C16 1.216 1_455 S
H18 C13 0.930 . S
H19 C14 0.930 1_556 S
O20 Cu0 1.959 . S
O20 C7 1.251 . S
H21 C4 0.930 . S
H22 C15 0.929 . S
Cu23 N24 1.999 . S
Cu23 O29 1.974 . S
Cu23 N34 1.985 1_565 S
Cu23 O43 1.959 1_565 S
N24 Cu23 1.999 . S
N24 C26 1.263 . S
N24 C28 1.389 . S
N25 C26 1.358 . S
N25 C27 1.400 . S
C26 N24 1.263 . S
C26 N25 1.358 . S
C26 H32 0.930 . S
C27 N25 1.400 . S
C27 C28 1.351 . S
C27 H44 0.930 . S
C28 N24 1.389 . S
C28 C27 1.351 . S
C28 H33 0.930 . S
O29 Cu23 1.974 . S
O29 C39 1.282 . S
C30 O31 1.261 . S
C30 O43 1.251 . S
O31 C30 1.261 . S
H32 C26 0.930 . S
H33 C28 0.930 . S
N34 Cu23 1.985 1_545 S
N34 C36 1.335 . S
N34 C37 1.390 . S
N35 C36 1.345 . S
N35 C38 1.336 . S
C36 N34 1.335 . S
C36 N35 1.345 . S
C36 H41 0.930 . S
C37 N34 1.390 . S
C37 C38 1.346 . S
C37 H42 0.930 . S
C38 N35 1.336 . S
C38 C37 1.346 . S
C38 H45 0.929 . S
C39 O29 1.282 . S
C39 O40 1.216 . S
O40 C39 1.216 . S
H41 C36 0.930 . S
H42 C37 0.930 . S
O43 Cu23 1.959 1_545 S
O43 C30 1.251 . S
H44 C27 0.930 . S
H45 C38 0.929 . S
Cu46 N47 1.999 1_554 S
Cu46 O52 1.974 1_554 S
Cu46 N57 1.985 . S
Cu46 O66 1.959 . S
N47 Cu46 1.999 1_556 S
N47 C49 1.263 . S
N47 C51 1.389 . S
N48 C49 1.358 . S
N48 C50 1.400 . S
C49 N47 1.263 . S
C49 N48 1.358 . S
C49 H55 0.930 . S
C50 N48 1.400 . S
C50 C51 1.351 . S
C50 H67 0.930 . S
C51 N47 1.389 . S
C51 C50 1.351 . S
C51 H56 0.930 . S
O52 Cu46 1.974 1_556 S
O52 C62 1.282 . S
C53 O54 1.261 . S
C53 O66 1.251 . S
O54 C53 1.261 . S
H55 C49 0.930 . S
H56 C51 0.930 . S
N57 Cu46 1.985 . S
N57 C59 1.335 . S
N57 C60 1.390 . S
N58 C59 1.345 . S
N58 C61 1.336 . S
C59 N57 1.335 . S
C59 N58 1.345 . S
C59 H64 0.930 . S
C60 N57 1.390 . S
C60 C61 1.346 . S
C60 H65 0.930 . S
C61 N58 1.336 . S
C61 C60 1.346 . S
C61 H68 0.929 . S
C62 O52 1.282 . S
C62 O63 1.216 1_556 S
O63 C62 1.216 1_554 S
H64 C59 0.930 . S
H65 C60 0.930 . S
O66 Cu46 1.959 . S
O66 C53 1.251 . S
H67 C50 0.930 . S
H68 C61 0.929 . S
Cu69 N70 1.999 1_655 S
Cu69 O75 1.974 1_655 S
Cu69 N80 1.985 . S
Cu69 O89 1.959 . S
N70 Cu69 1.999 1_455 S
N70 C72 1.263 . S
N70 C74 1.389 1_455 S
N71 C72 1.358 . S
N71 C73 1.400 . S
C72 N70 1.263 . S
C72 N71 1.358 . S
C72 H78 0.930 . S
C73 N71 1.400 . S
C73 C74 1.351 1_455 S
C73 H90 0.930 . S
C74 N70 1.389 1_655 S
C74 C73 1.351 1_655 S
C74 H79 0.930 . S
O75 Cu69 1.974 1_455 S
O75 C85 1.282 . S
C76 O77 1.261 . S
C76 O89 1.251 . S
O77 C76 1.261 . S
H78 C72 0.930 . S
H79 C74 0.930 . S
N80 Cu69 1.985 . S
N80 C82 1.335 . S
N80 C83 1.390 . S
N81 C82 1.345 . S
N81 C84 1.336 . S
C82 N80 1.335 . S
C82 N81 1.345 . S
C82 H87 0.930 . S
C83 N80 1.390 . S
C83 C84 1.346 . S
C83 H88 0.930 1_655 S
C84 N81 1.336 . S
C84 C83 1.346 . S
C84 H91 0.929 . S
C85 O75 1.282 . S
C85 O86 1.216 . S
O86 C85 1.216 . S
H87 C82 0.930 . S
H88 C83 0.930 1_455 S
O89 Cu69 1.959 . S
O89 C76 1.251 . S
H90 C73 0.930 . S
H91 C84 0.929 . S
Cu92 N93 1.999 . S
Cu92 O98 1.974 . S
Cu92 N103 1.985 1_545 S
Cu92 O112 1.959 1_545 S
N93 Cu92 1.999 . S
N93 C95 1.263 1_554 S
N93 C97 1.389 . S
N94 C95 1.358 . S
N94 C96 1.400 1_556 S
C95 N93 1.263 1_556 S
C95 N94 1.358 . S
C95 H101 0.930 . S
C96 N94 1.400 1_554 S
C96 C97 1.351 . S
C96 H113 0.930 . S
C97 N93 1.389 . S
C97 C96 1.351 . S
C97 H102 0.930 . S
O98 Cu92 1.974 . S
O98 C108 1.282 1_554 S
C99 O100 1.261 . S
C99 O112 1.251 . S
O100 C99 1.261 . S
H101 C95 0.930 . S
H102 C97 0.930 . S
N103 Cu92 1.985 1_565 S
N103 C105 1.335 . S
N103 C106 1.390 . S
N104 C105 1.345 . S
N104 C107 1.336 . S
C105 N103 1.335 . S
C105 N104 1.345 . S
C105 H110 0.930 . S
C106 N103 1.390 . S
C106 C107 1.346 . S
C106 H111 0.930 1_565 S
C107 N104 1.336 . S
C107 C106 1.346 . S
C107 H114 0.929 . S
C108 O98 1.282 1_556 S
C108 O109 1.216 . S
O109 C108 1.216 . S
H110 C105 0.930 . S
H111 C106 0.930 1_545 S
O112 Cu92 1.959 1_565 S
O112 C99 1.251 . S
H113 C96 0.930 . S
H114 C107 0.929 . S
Cu115 N116 1.999 . S
Cu115 O121 1.974 . S
Cu115 N126 1.985 . S
Cu115 O135 1.959 . S
N116 Cu115 1.999 . S
N116 C118 1.263 . S
N116 C120 1.389 . S
N117 C118 1.358 . S
N117 C119 1.400 . S
C118 N116 1.263 . S
C118 N117 1.358 . S
C118 H124 0.930 . S
C119 N117 1.400 . S
C119 C120 1.351 . S
C119 H136 0.930 . S
C120 N116 1.389 . S
C120 C119 1.351 . S
C120 H125 0.930 . S
O121 Cu115 1.974 . S
O121 C131 1.282 . S
C122 O123 1.261 . S
C122 O135 1.251 . S
O123 C122 1.261 . S
H124 C118 0.930 . S
H125 C120 0.930 . S
N126 Cu115 1.985 . S
N126 C128 1.335 . S
N126 C129 1.390 . S
N127 C128 1.345 . S
N127 C130 1.336 . S
C128 N126 1.335 . S
C128 N127 1.345 . S
C128 H133 0.930 . S
C129 N126 1.390 . S
C129 C130 1.346 . S
C129 H134 0.930 . S
C130 N127 1.336 . S
C130 C129 1.346 . S
C130 H137 0.929 . S
C131 O121 1.282 . S
C131 O132 1.216 . S
O132 C131 1.216 . S
H133 C128 0.930 . S
H134 C129 0.930 . S
O135 Cu115 1.959 . S
O135 C122 1.251 . S
H136 C119 0.930 . S
H137 C130 0.929 . S
H138 C157 0.949 . S
H139 C158 0.950 . S
H140 C160 0.950 . S
H141 C161 0.950 . S
H142 C163 0.950 . S
H143 C166 0.950 . S
H144 C167 0.950 . S
H145 C169 0.951 . S
H146 C170 0.949 . S
H147 C172 0.949 . S
H148 C173 0.950 . S
H149 C175 0.950 . S
H150 C176 0.950 . S
H151 C178 0.950 . S
H152 C181 0.950 . S
H153 C182 0.950 . S
H154 C184 0.951 . S
H155 C185 0.949 . S
C156 C157 1.376 . S
C156 C161 1.386 . S
C156 C162 1.483 . S
C157 H138 0.949 . S
C157 C156 1.376 . S
C157 C158 1.397 . S
C158 H139 0.950 . S
C158 C157 1.397 . S
C158 C159 1.391 . S
C159 C158 1.391 . S
C159 C160 1.405 . S
C160 H140 0.950 . S
C160 C159 1.405 . S
C160 C161 1.367 . S
C161 H141 0.950 . S
C161 C156 1.386 . S
C161 C160 1.367 . S
C162 C156 1.483 . S
C162 C163 1.382 . S
C162 C164 1.403 . S
C163 H142 0.950 . S
C163 C162 1.382 . S
C163 C179 1.411 . S
C164 C162 1.403 . S
C164 C165 1.489 . S
C164 C178 1.411 . S
C165 C164 1.489 . S
C165 C166 1.383 . S
C165 C170 1.382 . S
C166 H143 0.950 . S
C166 C165 1.383 . S
C166 C167 1.395 . S
C167 H144 0.950 . S
C167 C166 1.395 . S
C167 C168 1.288 . S
C168 C167 1.288 . S
C168 C169 1.392 . S
C169 H145 0.951 . S
C169 C168 1.392 . S
C169 C170 1.392 . S
C170 H146 0.949 . S
C170 C165 1.382 . S
C170 C169 1.392 . S
C171 C172 1.376 . S
C171 C176 1.386 . S
C171 C177 1.483 . S
C172 H147 0.949 . S
C172 C171 1.376 . S
C172 C173 1.397 . S
C173 H148 0.950 . S
C173 C172 1.397 . S
C173 C174 1.391 . S
C174 C173 1.391 . S
C174 C175 1.405 . S
C175 H149 0.950 . S
C175 C174 1.405 . S
C175 C176 1.367 . S
C176 H150 0.950 . S
C176 C171 1.386 . S
C176 C175 1.367 . S
C177 C171 1.483 . S
C177 C178 1.382 . S
C177 C179 1.403 . S
C178 H151 0.950 . S
C178 C164 1.411 . S
C178 C177 1.382 . S
C179 C163 1.411 . S
C179 C177 1.403 . S
C179 C180 1.489 . S
C180 C179 1.489 . S
C180 C181 1.383 . S
C180 C185 1.382 . S
C181 H152 0.950 . S
C181 C180 1.383 . S
C181 C182 1.395 . S
C182 H153 0.950 . S
C182 C181 1.395 . S
C182 C183 1.288 . S
C183 C182 1.288 . S
C183 C184 1.392 . S
C184 H154 0.951 . S
C184 C183 1.392 . S
C184 C185 1.392 . S
C185 H155 0.949 . S
C185 C180 1.382 . S
C185 C184 1.392 . S
H186 C205 0.949 . S
H187 C206 0.950 . S
H188 C208 0.950 . S
H189 C209 0.950 . S
H190 C211 0.950 . S
H191 C214 0.950 . S
H192 C215 0.950 . S
H193 C217 0.951 . S
H194 C218 0.949 . S
H195 C220 0.949 . S
H196 C221 0.950 . S
H197 C223 0.950 . S
H198 C224 0.950 . S
H199 C226 0.950 . S
H200 C229 0.950 . S
H201 C230 0.950 . S
H202 C232 0.951 . S
H203 C233 0.949 . S
C204 C205 1.376 . S
C204 C209 1.386 . S
C204 C210 1.483 . S
C205 H186 0.949 . S
C205 C204 1.376 . S
C205 C206 1.397 . S
C206 H187 0.950 . S
C206 C205 1.397 . S
C206 C207 1.391 . S
C207 C206 1.391 . S
C207 C208 1.405 . S
C208 H188 0.950 . S
C208 C207 1.405 . S
C208 C209 1.367 . S
C209 H189 0.950 . S
C209 C204 1.386 . S
C209 C208 1.367 . S
C210 C204 1.483 . S
C210 C211 1.382 . S
C210 C212 1.403 . S
C211 H190 0.950 . S
C211 C210 1.382 . S
C211 C227 1.411 . S
C212 C210 1.403 . S
C212 C213 1.489 . S
C212 C226 1.411 . S
C213 C212 1.489 . S
C213 C214 1.383 . S
C213 C218 1.382 . S
C214 H191 0.950 . S
C214 C213 1.383 . S
C214 C215 1.395 . S
C215 H192 0.950 . S
C215 C214 1.395 . S
C215 C216 1.288 . S
C216 C215 1.288 . S
C216 C217 1.392 . S
C217 H193 0.951 . S
C217 C216 1.392 . S
C217 C218 1.392 . S
C218 H194 0.949 . S
C218 C213 1.382 . S
C218 C217 1.392 . S
C219 C220 1.376 . S
C219 C224 1.386 . S
C219 C225 1.483 . S
C220 H195 0.949 . S
C220 C219 1.376 . S
C220 C221 1.397 . S
C221 H196 0.950 . S
C221 C220 1.397 . S
C221 C222 1.391 . S
C222 C221 1.391 . S
C222 C223 1.405 . S
C223 H197 0.950 . S
C223 C222 1.405 . S
C223 C224 1.367 . S
C224 H198 0.950 . S
C224 C219 1.386 . S
C224 C223 1.367 . S
C225 C219 1.483 . S
C225 C226 1.382 . S
C225 C227 1.403 . S
C226 H199 0.950 . S
C226 C212 1.411 . S
C226 C225 1.382 . S
C227 C211 1.411 . S
C227 C225 1.403 . S
C227 C228 1.489 . S
C228 C227 1.489 . S
C228 C229 1.383 . S
C228 C233 1.382 . S
C229 H200 0.950 . S
C229 C228 1.383 . S
C229 C230 1.395 . S
C230 H201 0.950 . S
C230 C229 1.395 . S
C230 C231 1.288 . S
C231 C230 1.288 . S
C231 C232 1.392 . S
C232 H202 0.951 . S
C232 C231 1.392 . S
C232 C233 1.392 . S
C233 H203 0.949 . S
C233 C228 1.382 . S
C233 C232 1.392 . S
H234 C253 0.949 . S
H235 C254 0.950 . S
H236 C256 0.950 . S
H237 C257 0.950 . S
H238 C259 0.950 . S
H239 C262 0.950 . S
H240 C263 0.950 . S
H241 C265 0.951 . S
H242 C266 0.949 . S
H243 C268 0.949 . S
H244 C269 0.950 . S
H245 C271 0.950 . S
H246 C272 0.950 . S
H247 C274 0.950 . S
H248 C277 0.950 . S
H249 C278 0.950 . S
H250 C280 0.951 . S
H251 C281 0.949 . S
C252 C253 1.376 . S
C252 C257 1.386 . S
C252 C258 1.483 . S
C253 H234 0.949 . S
C253 C252 1.376 . S
C253 C254 1.397 . S
C254 H235 0.950 . S
C254 C253 1.397 . S
C254 C255 1.391 . S
C255 C254 1.391 . S
C255 C256 1.405 . S
C256 H236 0.950 . S
C256 C255 1.405 . S
C256 C257 1.367 . S
C257 H237 0.950 . S
C257 C252 1.386 . S
C257 C256 1.367 . S
C258 C252 1.483 . S
C258 C259 1.382 . S
C258 C260 1.403 . S
C259 H238 0.950 . S
C259 C258 1.382 . S
C259 C275 1.411 . S
C260 C258 1.403 . S
C260 C261 1.489 . S
C260 C274 1.411 . S
C261 C260 1.489 . S
C261 C262 1.383 . S
C261 C266 1.382 . S
C262 H239 0.950 . S
C262 C261 1.383 . S
C262 C263 1.395 . S
C263 H240 0.950 . S
C263 C262 1.395 . S
C263 C264 1.288 . S
C264 C263 1.288 . S
C264 C265 1.392 . S
C265 H241 0.951 . S
C265 C264 1.392 . S
C265 C266 1.392 . S
C266 H242 0.949 . S
C266 C261 1.382 . S
C266 C265 1.392 . S
C267 C268 1.376 . S
C267 C272 1.386 . S
C267 C273 1.483 . S
C268 H243 0.949 . S
C268 C267 1.376 . S
C268 C269 1.397 . S
C269 H244 0.950 . S
C269 C268 1.397 . S
C269 C270 1.391 . S
C270 C269 1.391 . S
C270 C271 1.405 . S
C271 H245 0.950 . S
C271 C270 1.405 . S
C271 C272 1.367 . S
C272 H246 0.950 . S
C272 C267 1.386 . S
C272 C271 1.367 . S
C273 C267 1.483 . S
C273 C274 1.382 . S
C273 C275 1.403 . S
C274 H247 0.950 . S
C274 C260 1.411 . S
C274 C273 1.382 . S
C275 C259 1.411 . S
C275 C273 1.403 . S
C275 C276 1.489 . S
C276 C275 1.489 . S
C276 C277 1.383 . S
C276 C281 1.382 . S
C277 H248 0.950 . S
C277 C276 1.383 . S
C277 C278 1.395 . S
C278 H249 0.950 . S
C278 C277 1.395 . S
C278 C279 1.288 . S
C279 C278 1.288 . S
C279 C280 1.392 . S
C280 H250 0.951 . S
C280 C279 1.392 . S
C280 C281 1.392 . S
C281 H251 0.949 . S
C281 C276 1.382 . S
C281 C280 1.392 . S
H282 C301 0.949 . S
H283 C302 0.950 . S
H284 C304 0.950 . S
H285 C305 0.950 . S
H286 C307 0.950 . S
H287 C310 0.950 . S
H288 C311 0.950 . S
H289 C313 0.951 . S
H290 C314 0.949 . S
H291 C316 0.949 . S
H292 C317 0.950 . S
H293 C319 0.950 . S
H294 C320 0.950 . S
H295 C322 0.950 . S
H296 C325 0.950 . S
H297 C326 0.950 . S
H298 C328 0.951 . S
H299 C329 0.949 . S
C300 C301 1.376 . S
C300 C305 1.386 . S
C300 C306 1.483 . S
C301 H282 0.949 . S
C301 C300 1.376 . S
C301 C302 1.397 . S
C302 H283 0.950 . S
C302 C301 1.397 . S
C302 C303 1.391 . S
C303 C302 1.391 . S
C303 C304 1.405 . S
C304 H284 0.950 . S
C304 C303 1.405 . S
C304 C305 1.367 . S
C305 H285 0.950 . S
C305 C300 1.386 . S
C305 C304 1.367 . S
C306 C300 1.483 . S
C306 C307 1.382 . S
C306 C308 1.403 . S
C307 H286 0.950 . S
C307 C306 1.382 . S
C307 C323 1.411 . S
C308 C306 1.403 . S
C308 C309 1.489 . S
C308 C322 1.411 . S
C309 C308 1.489 . S
C309 C310 1.383 . S
C309 C314 1.382 . S
C310 H287 0.950 . S
C310 C309 1.383 . S
C310 C311 1.395 . S
C311 H288 0.950 . S
C311 C310 1.395 . S
C311 C312 1.288 . S
C312 C311 1.288 . S
C312 C313 1.392 . S
C313 H289 0.951 . S
C313 C312 1.392 . S
C313 C314 1.392 . S
C314 H290 0.949 . S
C314 C309 1.382 . S
C314 C313 1.392 . S
C315 C316 1.376 . S
C315 C320 1.386 . S
C315 C321 1.483 . S
C316 H291 0.949 . S
C316 C315 1.376 . S
C316 C317 1.397 . S
C317 H292 0.950 . S
C317 C316 1.397 . S
C317 C318 1.391 . S
C318 C317 1.391 . S
C318 C319 1.405 . S
C319 H293 0.950 . S
C319 C318 1.405 . S
C319 C320 1.367 . S
C320 H294 0.950 . S
C320 C315 1.386 . S
C320 C319 1.367 . S
C321 C315 1.483 . S
C321 C322 1.382 . S
C321 C323 1.403 . S
C322 H295 0.950 . S
C322 C308 1.411 . S
C322 C321 1.382 . S
C323 C307 1.411 . S
C323 C321 1.403 . S
C323 C324 1.489 . S
C324 C323 1.489 . S
C324 C325 1.383 . S
C324 C329 1.382 . S
C325 H296 0.950 . S
C325 C324 1.383 . S
C325 C326 1.395 . S
C326 H297 0.950 . S
C326 C325 1.395 . S
C326 C327 1.288 . S
C327 C326 1.288 . S
C327 C328 1.392 . S
C328 H298 0.951 . S
C328 C327 1.392 . S
C328 C329 1.392 . S
C329 H299 0.949 . S
C329 C324 1.382 . S
C329 C328 1.392 . S
H330 C349 0.949 . S
H331 C350 0.950 . S
H332 C352 0.950 . S
H333 C353 0.950 . S
H334 C355 0.950 . S
H335 C358 0.950 . S
H336 C359 0.950 . S
H337 C361 0.951 . S
H338 C362 0.949 . S
H339 C364 0.949 . S
H340 C365 0.950 . S
H341 C367 0.950 . S
H342 C368 0.950 . S
H343 C370 0.950 . S
H344 C373 0.950 . S
H345 C374 0.950 . S
H346 C376 0.951 . S
H347 C377 0.949 . S
C348 C349 1.376 . S
C348 C353 1.386 . S
C348 C354 1.483 . S
C349 H330 0.949 . S
C349 C348 1.376 . S
C349 C350 1.397 . S
C350 H331 0.950 . S
C350 C349 1.397 . S
C350 C351 1.391 . S
C351 C350 1.391 . S
C351 C352 1.405 . S
C352 H332 0.950 . S
C352 C351 1.405 . S
C352 C353 1.367 . S
C353 H333 0.950 . S
C353 C348 1.386 . S
C353 C352 1.367 . S
C354 C348 1.483 . S
C354 C355 1.382 . S
C354 C356 1.403 . S
C355 H334 0.950 . S
C355 C354 1.382 . S
C355 C371 1.411 . S
C356 C354 1.403 . S
C356 C357 1.489 . S
C356 C370 1.411 . S
C357 C356 1.489 . S
C357 C358 1.383 . S
C357 C362 1.382 . S
C358 H335 0.950 . S
C358 C357 1.383 . S
C358 C359 1.395 . S
C359 H336 0.950 . S
C359 C358 1.395 . S
C359 C360 1.288 . S
C360 C359 1.288 . S
C360 C361 1.392 . S
C361 H337 0.951 . S
C361 C360 1.392 . S
C361 C362 1.392 . S
C362 H338 0.949 . S
C362 C357 1.382 . S
C362 C361 1.392 . S
C363 C364 1.376 . S
C363 C368 1.386 . S
C363 C369 1.483 . S
C364 H339 0.949 . S
C364 C363 1.376 . S
C364 C365 1.397 . S
C365 H340 0.950 . S
C365 C364 1.397 . S
C365 C366 1.391 . S
C366 C365 1.391 . S
C366 C367 1.405 . S
C367 H341 0.950 . S
C367 C366 1.405 . S
C367 C368 1.367 . S
C368 H342 0.950 . S
C368 C363 1.386 . S
C368 C367 1.367 . S
C369 C363 1.483 . S
C369 C370 1.382 . S
C369 C371 1.403 . S
C370 H343 0.950 . S
C370 C356 1.411 . S
C370 C369 1.382 . S
C371 C355 1.411 . S
C371 C369 1.403 . S
C371 C372 1.489 . S
C372 C371 1.489 . S
C372 C373 1.383 . S
C372 C377 1.382 . S
C373 H344 0.950 . S
C373 C372 1.383 . S
C373 C374 1.395 . S
C374 H345 0.950 . S
C374 C373 1.395 . S
C374 C375 1.288 . S
C375 C374 1.288 . S
C375 C376 1.392 . S
C376 H346 0.951 . S
C376 C375 1.392 . S
C376 C377 1.392 . S
C377 H347 0.949 . S
C377 C372 1.382 . S
C377 C376 1.392 . S
H378 C397 0.949 . S
H379 C398 0.950 . S
H380 C400 0.950 . S
H381 C401 0.950 . S
H382 C403 0.950 . S
H383 C406 0.950 . S
H384 C407 0.950 . S
H385 C409 0.951 . S
H386 C410 0.949 . S
H387 C412 0.949 . S
H388 C413 0.950 . S
H389 C415 0.950 . S
H390 C416 0.950 . S
H391 C418 0.950 . S
H392 C421 0.950 . S
H393 C422 0.950 . S
H394 C424 0.951 . S
H395 C425 0.949 . S
C396 C397 1.376 . S
C396 C401 1.386 . S
C396 C402 1.483 . S
C397 H378 0.949 . S
C397 C396 1.376 . S
C397 C398 1.397 . S
C398 H379 0.950 . S
C398 C397 1.397 . S
C398 C399 1.391 . S
C399 C398 1.391 . S
C399 C400 1.405 . S
C400 H380 0.950 . S
C400 C399 1.405 . S
C400 C401 1.367 . S
C401 H381 0.950 . S
C401 C396 1.386 . S
C401 C400 1.367 . S
C402 C396 1.483 . S
C402 C403 1.382 . S
C402 C404 1.403 . S
C403 H382 0.950 . S
C403 C402 1.382 . S
C403 C419 1.411 . S
C404 C402 1.403 . S
C404 C405 1.489 . S
C404 C418 1.411 . S
C405 C404 1.489 . S
C405 C406 1.383 . S
C405 C410 1.382 . S
C406 H383 0.950 . S
C406 C405 1.383 . S
C406 C407 1.395 . S
C407 H384 0.950 . S
C407 C406 1.395 . S
C407 C408 1.288 . S
C408 C407 1.288 . S
C408 C409 1.392 . S
C409 H385 0.951 . S
C409 C408 1.392 . S
C409 C410 1.392 . S
C410 H386 0.949 . S
C410 C405 1.382 . S
C410 C409 1.392 . S
C411 C412 1.376 . S
C411 C416 1.386 . S
C411 C417 1.483 . S
C412 H387 0.949 . S
C412 C411 1.376 . S
C412 C413 1.397 . S
C413 H388 0.950 . S
C413 C412 1.397 . S
C413 C414 1.391 . S
C414 C413 1.391 . S
C414 C415 1.405 . S
C415 H389 0.950 . S
C415 C414 1.405 . S
C415 C416 1.367 . S
C416 H390 0.950 . S
C416 C411 1.386 . S
C416 C415 1.367 . S
C417 C411 1.483 . S
C417 C418 1.382 . S
C417 C419 1.403 . S
C418 H391 0.950 . S
C418 C404 1.411 . S
C418 C417 1.382 . S
C419 C403 1.411 . S
C419 C417 1.403 . S
C419 C420 1.489 . S
C420 C419 1.489 . S
C420 C421 1.383 . S
C420 C425 1.382 . S
C421 H392 0.950 . S
C421 C420 1.383 . S
C421 C422 1.395 . S
C422 H393 0.950 . S
C422 C421 1.395 . S
C422 C423 1.288 . S
C423 C422 1.288 . S
C423 C424 1.392 . S
C424 H394 0.951 . S
C424 C423 1.392 . S
C424 C425 1.392 . S
C425 H395 0.949 . S
C425 C420 1.382 . S
C425 C424 1.392 . S
C426 C427 1.349 . S
C426 C428 1.327 . S
C426 H451 0.950 . S
C427 C426 1.349 . S
C427 C443 1.349 . S
C428 C426 1.327 . S
C428 C447 1.429 . S
C428 H452 0.950 . S
C429 C446 1.574 . S
C429 C448 1.368 . S
C429 H453 0.949 . S
H430 C434 0.949 . S
C431 C432 1.349 . S
C431 C433 1.327 . S
C431 H454 0.950 . S
C432 C431 1.349 . S
C432 C444 1.349 . S
C433 C431 1.327 . S
C433 C449 1.429 . S
C433 H455 0.950 . S
C434 H430 0.949 . S
C434 C442 1.574 . S
C434 C450 1.368 . S
H435 C443 0.950 . S
H436 C441 0.950 . S
H437 C442 0.949 . S
H438 C444 0.950 . S
H439 C445 0.950 . S
H440 C446 0.949 . S
C441 H436 0.950 . S
C441 C443 1.327 . S
C441 C447 1.429 . S
C442 C434 1.574 . S
C442 H437 0.949 . S
C442 C448 1.368 . S
C443 C427 1.349 . S
C443 H435 0.950 . S
C443 C441 1.327 . S
C444 C432 1.349 . S
C444 H438 0.950 . S
C444 C445 1.327 . S
C445 H439 0.950 . S
C445 C444 1.327 . S
C445 C449 1.429 . S
C446 C429 1.574 . S
C446 H440 0.949 . S
C446 C450 1.368 . S
C447 C428 1.429 . S
C447 C441 1.429 . S
C447 C448 1.523 . S
C448 C429 1.368 . S
C448 C442 1.368 . S
C448 C447 1.523 . S
C449 C433 1.429 . S
C449 C445 1.429 . S
C449 C450 1.523 . S
C450 C434 1.368 . S
C450 C446 1.368 . S
C450 C449 1.523 . S
H451 C426 0.950 . S
H452 C428 0.950 . S
H453 C429 0.949 . S
H454 C431 0.950 . S
H455 C433 0.950 . S
C456 C457 1.349 . S
C456 C458 1.327 . S
C456 H481 0.950 . S
C457 C456 1.349 . S
C457 C473 1.349 . S
C458 C456 1.327 . S
C458 C477 1.429 . S
C458 H482 0.950 . S
C459 C476 1.574 . S
C459 C478 1.368 . S
C459 H483 0.949 . S
H460 C464 0.949 . S
C461 C462 1.349 . S
C461 C463 1.327 . S
C461 H484 0.950 . S
C462 C461 1.349 . S
C462 C474 1.349 . S
C463 C461 1.327 . S
C463 C479 1.429 . S
C463 H485 0.950 . S
C464 H460 0.949 . S
C464 C472 1.574 . S
C464 C480 1.368 . S
H465 C473 0.950 . S
H466 C471 0.950 . S
H467 C472 0.949 . S
H468 C474 0.950 . S
H469 C475 0.950 . S
H470 C476 0.949 . S
C471 H466 0.950 . S
C471 C473 1.327 . S
C471 C477 1.429 . S
C472 C464 1.574 . S
C472 H467 0.949 . S
C472 C478 1.368 . S
C473 C457 1.349 . S
C473 H465 0.950 . S
C473 C471 1.327 . S
C474 C462 1.349 . S
C474 H468 0.950 . S
C474 C475 1.327 . S
C475 H469 0.950 . S
C475 C474 1.327 . S
C475 C479 1.429 . S
C476 C459 1.574 . S
C476 H470 0.949 . S
C476 C480 1.368 . S
C477 C458 1.429 . S
C477 C471 1.429 . S
C477 C478 1.523 . S
C478 C459 1.368 . S
C478 C472 1.368 . S
C478 C477 1.523 . S
C479 C463 1.429 . S
C479 C475 1.429 . S
C479 C480 1.523 . S
C480 C464 1.368 . S
C480 C476 1.368 . S
C480 C479 1.523 . S
H481 C456 0.950 . S
H482 C458 0.950 . S
H483 C459 0.949 . S
H484 C461 0.950 . S
H485 C463 0.950 . S
C486 C487 1.349 . S
C486 C488 1.327 . S
C486 H511 0.950 . S
C487 C486 1.349 . S
C487 C503 1.349 . S
C488 C486 1.327 . S
C488 C507 1.429 . S
C488 H512 0.950 . S
C489 C506 1.574 . S
C489 C508 1.368 . S
C489 H513 0.949 . S
H490 C494 0.949 . S
C491 C492 1.349 . S
C491 C493 1.327 . S
C491 H514 0.950 . S
C492 C491 1.349 . S
C492 C504 1.349 . S
C493 C491 1.327 . S
C493 C509 1.429 . S
C493 H515 0.950 . S
C494 H490 0.949 . S
C494 C502 1.574 . S
C494 C510 1.368 . S
H495 C503 0.950 . S
H496 C501 0.950 . S
H497 C502 0.949 . S
H498 C504 0.950 . S
H499 C505 0.950 . S
H500 C506 0.949 . S
C501 H496 0.950 . S
C501 C503 1.327 . S
C501 C507 1.429 . S
C502 C494 1.574 . S
C502 H497 0.949 . S
C502 C508 1.368 . S
C503 C487 1.349 . S
C503 H495 0.950 . S
C503 C501 1.327 . S
C504 C492 1.349 . S
C504 H498 0.950 . S
C504 C505 1.327 . S
C505 H499 0.950 . S
C505 C504 1.327 . S
C505 C509 1.429 . S
C506 C489 1.574 . S
C506 H500 0.949 . S
C506 C510 1.368 . S
C507 C488 1.429 . S
C507 C501 1.429 . S
C507 C508 1.523 . S
C508 C489 1.368 . S
C508 C502 1.368 . S
C508 C507 1.523 . S
C509 C493 1.429 . S
C509 C505 1.429 . S
C509 C510 1.523 . S
C510 C494 1.368 . S
C510 C506 1.368 . S
C510 C509 1.523 . S
H511 C486 0.950 . S
H512 C488 0.950 . S
H513 C489 0.949 . S
H514 C491 0.950 . S
H515 C493 0.950 . S
C516 C517 1.349 . S
C516 C518 1.327 . S
C516 H541 0.950 . S
C517 C516 1.349 . S
C517 C533 1.349 . S
C518 C516 1.327 . S
C518 C537 1.429 . S
C518 H542 0.950 . S
C519 C536 1.574 . S
C519 C538 1.368 . S
C519 H543 0.949 . S
H520 C524 0.949 . S
C521 C522 1.349 . S
C521 C523 1.327 . S
C521 H544 0.950 . S
C522 C521 1.349 . S
C522 C534 1.349 . S
C523 C521 1.327 . S
C523 C539 1.429 . S
C523 H545 0.950 . S
C524 H520 0.949 . S
C524 C532 1.574 . S
C524 C540 1.368 . S
H525 C533 0.950 . S
H526 C531 0.950 . S
H527 C532 0.949 . S
H528 C534 0.950 . S
H529 C535 0.950 . S
H530 C536 0.949 . S
C531 H526 0.950 . S
C531 C533 1.327 . S
C531 C537 1.429 . S
C532 C524 1.574 . S
C532 H527 0.949 . S
C532 C538 1.368 . S
C533 C517 1.349 . S
C533 H525 0.950 . S
C533 C531 1.327 . S
C534 C522 1.349 . S
C534 H528 0.950 . S
C534 C535 1.327 . S
C535 H529 0.950 . S
C535 C534 1.327 . S
C535 C539 1.429 . S
C536 C519 1.574 . S
C536 H530 0.949 . S
C536 C540 1.368 . S
C537 C518 1.429 . S
C537 C531 1.429 . S
C537 C538 1.523 . S
C538 C519 1.368 . S
C538 C532 1.368 . S
C538 C537 1.523 . S
C539 C523 1.429 . S
C539 C535 1.429 . S
C539 C540 1.523 . S
C540 C524 1.368 . S
C540 C536 1.368 . S
C540 C539 1.523 . S
H541 C516 0.950 . S
H542 C518 0.950 . S
H543 C519 0.949 . S
H544 C521 0.950 . S
H545 C523 0.950 . S
C546 C547 1.349 . S
C546 C548 1.327 . S
C546 H571 0.950 . S
C547 C546 1.349 . S
C547 C563 1.349 . S
C548 C546 1.327 . S
C548 C567 1.429 . S
C548 H572 0.950 . S
C549 C566 1.574 . S
C549 C568 1.368 . S
C549 H573 0.949 . S
H550 C554 0.949 . S
C551 C552 1.349 . S
C551 C553 1.327 . S
C551 H574 0.950 . S
C552 C551 1.349 . S
C552 C564 1.349 . S
C553 C551 1.327 . S
C553 C569 1.429 . S
C553 H575 0.950 . S
C554 H550 0.949 . S
C554 C562 1.574 . S
C554 C570 1.368 . S
H555 C563 0.950 . S
H556 C561 0.950 . S
H557 C562 0.949 . S
H558 C564 0.950 . S
H559 C565 0.950 . S
H560 C566 0.949 . S
C561 H556 0.950 . S
C561 C563 1.327 . S
C561 C567 1.429 . S
C562 C554 1.574 . S
C562 H557 0.949 . S
C562 C568 1.368 . S
C563 C547 1.349 . S
C563 H555 0.950 . S
C563 C561 1.327 . S
C564 C552 1.349 . S
C564 H558 0.950 . S
C564 C565 1.327 . S
C565 H559 0.950 . S
C565 C564 1.327 . S
C565 C569 1.429 . S
C566 C549 1.574 . S
C566 H560 0.949 . S
C566 C570 1.368 . S
C567 C548 1.429 . S
C567 C561 1.429 . S
C567 C568 1.523 . S
C568 C549 1.368 . S
C568 C562 1.368 . S
C568 C567 1.523 . S
C569 C553 1.429 . S
C569 C565 1.429 . S
C569 C570 1.523 . S
C570 C554 1.368 . S
C570 C566 1.368 . S
C570 C569 1.523 . S
H571 C546 0.950 . S
H572 C548 0.950 . S
H573 C549 0.949 . S
H574 C551 0.950 . S
H575 C553 0.950 . S
C576 C577 1.349 . S
C576 C578 1.327 . S
C576 H601 0.950 . S
C577 C576 1.349 . S
C577 C593 1.349 . S
C578 C576 1.327 . S
C578 C597 1.429 . S
C578 H602 0.950 . S
C579 C596 1.574 . S
C579 C598 1.368 . S
C579 H603 0.949 . S
H580 C584 0.949 . S
C581 C582 1.349 . S
C581 C583 1.327 . S
C581 H604 0.950 . S
C582 C581 1.349 . S
C582 C594 1.349 . S
C583 C581 1.327 . S
C583 C599 1.429 . S
C583 H605 0.950 . S
C584 H580 0.949 . S
C584 C592 1.574 . S
C584 C600 1.368 . S
H585 C593 0.950 . S
H586 C591 0.950 . S
H587 C592 0.949 . S
H588 C594 0.950 . S
H589 C595 0.950 . S
H590 C596 0.949 . S
C591 H586 0.950 . S
C591 C593 1.327 . S
C591 C597 1.429 . S
C592 C584 1.574 . S
C592 H587 0.949 . S
C592 C598 1.368 . S
C593 C577 1.349 . S
C593 H585 0.950 . S
C593 C591 1.327 . S
C594 C582 1.349 . S
C594 H588 0.950 . S
C594 C595 1.327 . S
C595 H589 0.950 . S
C595 C594 1.327 . S
C595 C599 1.429 . S
C596 C579 1.574 . S
C596 H590 0.949 . S
C596 C600 1.368 . S
C597 C578 1.429 . S
C597 C591 1.429 . S
C597 C598 1.523 . S
C598 C579 1.368 . S
C598 C592 1.368 . S
C598 C597 1.523 . S
C599 C583 1.429 . S
C599 C595 1.429 . S
C599 C600 1.523 . S
C600 C584 1.368 . S
C600 C596 1.368 . S
C600 C599 1.523 . S
H601 C576 0.950 . S
H602 C578 0.950 . S
H603 C579 0.949 . S
H604 C581 0.950 . S
H605 C583 0.950 . S
C606 C607 1.349 . S
C606 C608 1.327 . S
C606 H631 0.950 . S
C607 C606 1.349 . S
C607 C623 1.349 . S
C608 C606 1.327 . S
C608 C627 1.429 . S
C608 H632 0.950 . S
C609 C626 1.574 . S
C609 C628 1.368 . S
C609 H633 0.949 . S
H610 C614 0.949 . S
C611 C612 1.349 . S
C611 C613 1.327 . S
C611 H634 0.950 . S
C612 C611 1.349 . S
C612 C624 1.349 . S
C613 C611 1.327 . S
C613 C629 1.429 . S
C613 H635 0.950 . S
C614 H610 0.949 . S
C614 C622 1.574 . S
C614 C630 1.368 . S
H615 C623 0.950 . S
H616 C621 0.950 . S
H617 C622 0.949 . S
H618 C624 0.950 . S
H619 C625 0.950 . S
H620 C626 0.949 . S
C621 H616 0.950 . S
C621 C623 1.327 . S
C621 C627 1.429 . S
C622 C614 1.574 . S
C622 H617 0.949 . S
C622 C628 1.368 . S
C623 C607 1.349 . S
C623 H615 0.950 . S
C623 C621 1.327 . S
C624 C612 1.349 . S
C624 H618 0.950 . S
C624 C625 1.327 . S
C625 H619 0.950 . S
C625 C624 1.327 . S
C625 C629 1.429 . S
C626 C609 1.574 . S
C626 H620 0.949 . S
C626 C630 1.368 . S
C627 C608 1.429 . S
C627 C621 1.429 . S
C627 C628 1.523 . S
C628 C609 1.368 . S
C628 C622 1.368 . S
C628 C627 1.523 . S
C629 C613 1.429 . S
C629 C625 1.429 . S
C629 C630 1.523 . S
C630 C614 1.368 . S
C630 C626 1.368 . S
C630 C629 1.523 . S
H631 C606 0.950 . S
H632 C608 0.950 . S
H633 C609 0.949 . S
H634 C611 0.950 . S
H635 C613 0.950 . S
C636 C637 1.349 . S
C636 C638 1.327 . S
C636 H661 0.950 . S
C637 C636 1.349 . S
C637 C653 1.349 . S
C638 C636 1.327 . S
C638 C657 1.429 . S
C638 H662 0.950 . S
C639 C656 1.574 . S
C639 C658 1.368 . S
C639 H663 0.949 . S
H640 C644 0.949 . S
C641 C642 1.349 . S
C641 C643 1.327 . S
C641 H664 0.950 . S
C642 C641 1.349 . S
C642 C654 1.349 . S
C643 C641 1.327 . S
C643 C659 1.429 . S
C643 H665 0.950 . S
C644 H640 0.949 . S
C644 C652 1.574 . S
C644 C660 1.368 . S
H645 C653 0.950 . S
H646 C651 0.950 . S
H647 C652 0.949 . S
H648 C654 0.950 . S
H649 C655 0.950 . S
H650 C656 0.949 . S
C651 H646 0.950 . S
C651 C653 1.327 . S
C651 C657 1.429 . S
C652 C644 1.574 . S
C652 H647 0.949 . S
C652 C658 1.368 . S
C653 C637 1.349 . S
C653 H645 0.950 . S
C653 C651 1.327 . S
C654 C642 1.349 . S
C654 H648 0.950 . S
C654 C655 1.327 . S
C655 H649 0.950 . S
C655 C654 1.327 . S
C655 C659 1.429 . S
C656 C639 1.574 . S
C656 H650 0.949 . S
C656 C660 1.368 . S
C657 C638 1.429 . S
C657 C651 1.429 . S
C657 C658 1.523 . S
C658 C639 1.368 . S
C658 C652 1.368 . S
C658 C657 1.523 . S
C659 C643 1.429 . S
C659 C655 1.429 . S
C659 C660 1.523 . S
C660 C644 1.368 . S
C660 C656 1.368 . S
C660 C659 1.523 . S
H661 C636 0.950 . S
H662 C638 0.950 . S
H663 C639 0.949 . S
H664 C641 0.950 . S
H665 C643 0.950 . S
C666 C667 1.349 . S
C666 C668 1.327 . S
C666 H691 0.950 . S
C667 C666 1.349 . S
C667 C683 1.349 . S
C668 C666 1.327 . S
C668 C687 1.429 . S
C668 H692 0.950 . S
C669 C686 1.574 . S
C669 C688 1.368 . S
C669 H693 0.949 . S
H670 C674 0.949 . S
C671 C672 1.349 . S
C671 C673 1.327 . S
C671 H694 0.950 . S
C672 C671 1.349 . S
C672 C684 1.349 . S
C673 C671 1.327 . S
C673 C689 1.429 . S
C673 H695 0.950 . S
C674 H670 0.949 . S
C674 C682 1.574 . S
C674 C690 1.368 . S
H675 C683 0.950 . S
H676 C681 0.950 . S
H677 C682 0.949 . S
H678 C684 0.950 . S
H679 C685 0.950 . S
H680 C686 0.949 . S
C681 H676 0.950 . S
C681 C683 1.327 . S
C681 C687 1.429 . S
C682 C674 1.574 . S
C682 H677 0.949 . S
C682 C688 1.368 . S
C683 C667 1.349 . S
C683 H675 0.950 . S
C683 C681 1.327 . S
C684 C672 1.349 . S
C684 H678 0.950 . S
C684 C685 1.327 . S
C685 H679 0.950 . S
C685 C684 1.327 . S
C685 C689 1.429 . S
C686 C669 1.574 . S
C686 H680 0.949 . S
C686 C690 1.368 . S
C687 C668 1.429 . S
C687 C681 1.429 . S
C687 C688 1.523 . S
C688 C669 1.368 . S
C688 C682 1.368 . S
C688 C687 1.523 . S
C689 C673 1.429 . S
C689 C685 1.429 . S
C689 C690 1.523 . S
C690 C674 1.368 . S
C690 C686 1.368 . S
C690 C689 1.523 . S
H691 C666 0.950 . S
H692 C668 0.950 . S
H693 C669 0.949 . S
H694 C671 0.950 . S
H695 C673 0.950 . S
C696 C697 1.349 . S
C696 C698 1.327 . S
C696 H721 0.950 . S
C697 C696 1.349 . S
C697 C713 1.349 . S
C698 C696 1.327 . S
C698 C717 1.429 . S
C698 H722 0.950 . S
C699 C716 1.574 . S
C699 C718 1.368 . S
C699 H723 0.949 . S
H700 C704 0.949 . S
C701 C702 1.349 . S
C701 C703 1.327 . S
C701 H724 0.950 . S
C702 C701 1.349 . S
C702 C714 1.349 . S
C703 C701 1.327 . S
C703 C719 1.429 . S
C703 H725 0.950 . S
C704 H700 0.949 . S
C704 C712 1.574 . S
C704 C720 1.368 . S
H705 C713 0.950 . S
H706 C711 0.950 . S
H707 C712 0.949 . S
H708 C714 0.950 . S
H709 C715 0.950 . S
H710 C716 0.949 . S
C711 H706 0.950 . S
C711 C713 1.327 . S
C711 C717 1.429 . S
C712 C704 1.574 . S
C712 H707 0.949 . S
C712 C718 1.368 . S
C713 C697 1.349 . S
C713 H705 0.950 . S
C713 C711 1.327 . S
C714 C702 1.349 . S
C714 H708 0.950 . S
C714 C715 1.327 . S
C715 H709 0.950 . S
C715 C714 1.327 . S
C715 C719 1.429 . S
C716 C699 1.574 . S
C716 H710 0.949 . S
C716 C720 1.368 . S
C717 C698 1.429 . S
C717 C711 1.429 . S
C717 C718 1.523 . S
C718 C699 1.368 . S
C718 C712 1.368 . S
C718 C717 1.523 . S
C719 C703 1.429 . S
C719 C715 1.429 . S
C719 C720 1.523 . S
C720 C704 1.368 . S
C720 C716 1.368 . S
C720 C719 1.523 . S
H721 C696 0.950 . S
H722 C698 0.950 . S
H723 C699 0.949 . S
H724 C701 0.950 . S
H725 C703 0.950 . S
C726 C727 1.349 . S
C726 C728 1.327 . S
C726 H751 0.950 . S
C727 C726 1.349 . S
C727 C743 1.349 . S
C728 C726 1.327 . S
C728 C747 1.429 . S
C728 H752 0.950 . S
C729 C746 1.574 . S
C729 C748 1.368 . S
C729 H753 0.949 . S
H730 C734 0.949 . S
C731 C732 1.349 . S
C731 C733 1.327 . S
C731 H754 0.950 . S
C732 C731 1.349 . S
C732 C744 1.349 . S
C733 C731 1.327 . S
C733 C749 1.429 . S
C733 H755 0.950 . S
C734 H730 0.949 . S
C734 C742 1.574 . S
C734 C750 1.368 . S
H735 C743 0.950 . S
H736 C741 0.950 . S
H737 C742 0.949 . S
H738 C744 0.950 . S
H739 C745 0.950 . S
H740 C746 0.949 . S
C741 H736 0.950 . S
C741 C743 1.327 . S
C741 C747 1.429 . S
C742 C734 1.574 . S
C742 H737 0.949 . S
C742 C748 1.368 . S
C743 C727 1.349 . S
C743 H735 0.950 . S
C743 C741 1.327 . S
C744 C732 1.349 . S
C744 H738 0.950 . S
C744 C745 1.327 . S
C745 H739 0.950 . S
C745 C744 1.327 . S
C745 C749 1.429 . S
C746 C729 1.574 . S
C746 H740 0.949 . S
C746 C750 1.368 . S
C747 C728 1.429 . S
C747 C741 1.429 . S
C747 C748 1.523 . S
C748 C729 1.368 . S
C748 C742 1.368 . S
C748 C747 1.523 . S
C749 C733 1.429 . S
C749 C745 1.429 . S
C749 C750 1.523 . S
C750 C734 1.368 . S
C750 C746 1.368 . S
C750 C749 1.523 . S
H751 C726 0.950 . S
H752 C728 0.950 . S
H753 C729 0.949 . S
H754 C731 0.950 . S
H755 C733 0.950 . S
C756 C757 1.349 . S
C756 C758 1.327 . S
C756 H781 0.950 . S
C757 C756 1.349 . S
C757 C773 1.349 . S
C758 C756 1.327 . S
C758 C777 1.429 . S
C758 H782 0.950 . S
C759 C776 1.574 . S
C759 C778 1.368 . S
C759 H783 0.949 . S
H760 C764 0.949 . S
C761 C762 1.349 . S
C761 C763 1.327 . S
C761 H784 0.950 . S
C762 C761 1.349 . S
C762 C774 1.349 . S
C763 C761 1.327 . S
C763 C779 1.429 . S
C763 H785 0.950 . S
C764 H760 0.949 . S
C764 C772 1.574 . S
C764 C780 1.368 . S
H765 C773 0.950 . S
H766 C771 0.950 . S
H767 C772 0.949 . S
H768 C774 0.950 . S
H769 C775 0.950 . S
H770 C776 0.949 . S
C771 H766 0.950 . S
C771 C773 1.327 . S
C771 C777 1.429 . S
C772 C764 1.574 . S
C772 H767 0.949 . S
C772 C778 1.368 . S
C773 C757 1.349 . S
C773 H765 0.950 . S
C773 C771 1.327 . S
C774 C762 1.349 . S
C774 H768 0.950 . S
C774 C775 1.327 . S
C775 H769 0.950 . S
C775 C774 1.327 . S
C775 C779 1.429 . S
C776 C759 1.574 . S
C776 H770 0.949 . S
C776 C780 1.368 . S
C777 C758 1.429 . S
C777 C771 1.429 . S
C777 C778 1.523 . S
C778 C759 1.368 . S
C778 C772 1.368 . S
C778 C777 1.523 . S
C779 C763 1.429 . S
C779 C775 1.429 . S
C779 C780 1.523 . S
C780 C764 1.368 . S
C780 C776 1.368 . S
C780 C779 1.523 . S
H781 C756 0.950 . S
H782 C758 0.950 . S
H783 C759 0.949 . S
H784 C761 0.950 . S
H785 C763 0.950 . S
C786 C787 1.349 . S
C786 C788 1.327 . S
C786 H811 0.950 . S
C787 C786 1.349 . S
C787 C803 1.349 . S
C788 C786 1.327 . S
C788 C807 1.429 . S
C788 H812 0.950 . S
C789 C806 1.574 . S
C789 C808 1.368 . S
C789 H813 0.949 . S
H790 C794 0.949 . S
C791 C792 1.349 . S
C791 C793 1.327 . S
C791 H814 0.950 . S
C792 C791 1.349 . S
C792 C804 1.349 . S
C793 C791 1.327 . S
C793 C809 1.429 . S
C793 H815 0.950 . S
C794 H790 0.949 . S
C794 C802 1.574 . S
C794 C810 1.368 . S
H795 C803 0.950 . S
H796 C801 0.950 . S
H797 C802 0.949 . S
H798 C804 0.950 . S
H799 C805 0.950 . S
H800 C806 0.949 . S
C801 H796 0.950 . S
C801 C803 1.327 . S
C801 C807 1.429 . S
C802 C794 1.574 . S
C802 H797 0.949 . S
C802 C808 1.368 . S
C803 C787 1.349 . S
C803 H795 0.950 . S
C803 C801 1.327 . S
C804 C792 1.349 . S
C804 H798 0.950 . S
C804 C805 1.327 . S
C805 H799 0.950 . S
C805 C804 1.327 . S
C805 C809 1.429 . S
C806 C789 1.574 . S
C806 H800 0.949 . S
C806 C810 1.368 . S
C807 C788 1.429 . S
C807 C801 1.429 . S
C807 C808 1.523 . S
C808 C789 1.368 . S
C808 C802 1.368 . S
C808 C807 1.523 . S
C809 C793 1.429 . S
C809 C805 1.429 . S
C809 C810 1.523 . S
C810 C794 1.368 . S
C810 C806 1.368 . S
C810 C809 1.523 . S
H811 C786 0.950 . S
H812 C788 0.950 . S
H813 C789 0.949 . S
H814 C791 0.950 . S
H815 C793 0.950 . S
C816 C817 1.349 . S
C816 C818 1.327 . S
C816 H841 0.950 . S
C817 C816 1.349 . S
C817 C833 1.349 . S
C818 C816 1.327 . S
C818 C837 1.429 . S
C818 H842 0.950 . S
C819 C836 1.574 . S
C819 C838 1.368 . S
C819 H843 0.949 . S
H820 C824 0.949 . S
C821 C822 1.349 . S
C821 C823 1.327 . S
C821 H844 0.950 . S
C822 C821 1.349 . S
C822 C834 1.349 . S
C823 C821 1.327 . S
C823 C839 1.429 . S
C823 H845 0.950 . S
C824 H820 0.949 . S
C824 C832 1.574 . S
C824 C840 1.368 . S
H825 C833 0.950 . S
H826 C831 0.950 . S
H827 C832 0.949 . S
H828 C834 0.950 . S
H829 C835 0.950 . S
H830 C836 0.949 . S
C831 H826 0.950 . S
C831 C833 1.327 . S
C831 C837 1.429 . S
C832 C824 1.574 . S
C832 H827 0.949 . S
C832 C838 1.368 . S
C833 C817 1.349 . S
C833 H825 0.950 . S
C833 C831 1.327 . S
C834 C822 1.349 . S
C834 H828 0.950 . S
C834 C835 1.327 . S
C835 H829 0.950 . S
C835 C834 1.327 . S
C835 C839 1.429 . S
C836 C819 1.574 . S
C836 H830 0.949 . S
C836 C840 1.368 . S
C837 C818 1.429 . S
C837 C831 1.429 . S
C837 C838 1.523 . S
C838 C819 1.368 . S
C838 C832 1.368 . S
C838 C837 1.523 . S
C839 C823 1.429 . S
C839 C835 1.429 . S
C839 C840 1.523 . S
C840 C824 1.368 . S
C840 C836 1.368 . S
C840 C839 1.523 . S
H841 C816 0.950 . S
H842 C818 0.950 . S
H843 C819 0.949 . S
H844 C821 0.950 . S
H845 C823 0.950 . S
C846 C847 1.349 . S
C846 C848 1.327 . S
C846 H871 0.950 . S
C847 C846 1.349 . S
C847 C863 1.349 . S
C848 C846 1.327 . S
C848 C867 1.429 . S
C848 H872 0.950 . S
C849 C866 1.574 . S
C849 C868 1.368 . S
C849 H873 0.949 . S
H850 C854 0.949 . S
C851 C852 1.349 . S
C851 C853 1.327 . S
C851 H874 0.950 . S
C852 C851 1.349 . S
C852 C864 1.349 . S
C853 C851 1.327 . S
C853 C869 1.429 . S
C853 H875 0.950 . S
C854 H850 0.949 . S
C854 C862 1.574 . S
C854 C870 1.368 . S
H855 C863 0.950 . S
H856 C861 0.950 . S
H857 C862 0.949 . S
H858 C864 0.950 . S
H859 C865 0.950 . S
H860 C866 0.949 . S
C861 H856 0.950 . S
C861 C863 1.327 . S
C861 C867 1.429 . S
C862 C854 1.574 . S
C862 H857 0.949 . S
C862 C868 1.368 . S
C863 C847 1.349 . S
C863 H855 0.950 . S
C863 C861 1.327 . S
C864 C852 1.349 . S
C864 H858 0.950 . S
C864 C865 1.327 . S
C865 H859 0.950 . S
C865 C864 1.327 . S
C865 C869 1.429 . S
C866 C849 1.574 . S
C866 H860 0.949 . S
C866 C870 1.368 . S
C867 C848 1.429 . S
C867 C861 1.429 . S
C867 C868 1.523 . S
C868 C849 1.368 . S
C868 C862 1.368 . S
C868 C867 1.523 . S
C869 C853 1.429 . S
C869 C865 1.429 . S
C869 C870 1.523 . S
C870 C854 1.368 . S
C870 C866 1.368 . S
C870 C869 1.523 . S
H871 C846 0.950 . S
H872 C848 0.950 . S
H873 C849 0.949 . S
H874 C851 0.950 . S
H875 C853 0.950 . S
C876 C877 1.349 . S
C876 C878 1.327 . S
C876 H901 0.950 . S
C877 C876 1.349 . S
C877 C893 1.349 . S
C878 C876 1.327 . S
C878 C897 1.429 . S
C878 H902 0.950 . S
C879 C896 1.574 . S
C879 C898 1.368 . S
C879 H903 0.949 . S
H880 C884 0.949 . S
C881 C882 1.349 . S
C881 C883 1.327 . S
C881 H904 0.950 . S
C882 C881 1.349 . S
C882 C894 1.349 . S
C883 C881 1.327 . S
C883 C899 1.429 . S
C883 H905 0.950 . S
C884 H880 0.949 . S
C884 C892 1.574 . S
C884 C900 1.368 . S
H885 C893 0.950 . S
H886 C891 0.950 . S
H887 C892 0.949 . S
H888 C894 0.950 . S
H889 C895 0.950 . S
H890 C896 0.949 . S
C891 H886 0.950 . S
C891 C893 1.327 . S
C891 C897 1.429 . S
C892 C884 1.574 . S
C892 H887 0.949 . S
C892 C898 1.368 . S
C893 C877 1.349 . S
C893 H885 0.950 . S
C893 C891 1.327 . S
C894 C882 1.349 . S
C894 H888 0.950 . S
C894 C895 1.327 . S
C895 H889 0.950 . S
C895 C894 1.327 . S
C895 C899 1.429 . S
C896 C879 1.574 . S
C896 H890 0.949 . S
C896 C900 1.368 . S
C897 C878 1.429 . S
C897 C891 1.429 . S
C897 C898 1.523 . S
C898 C879 1.368 . S
C898 C892 1.368 . S
C898 C897 1.523 . S
C899 C883 1.429 . S
C899 C895 1.429 . S
C899 C900 1.523 . S
C900 C884 1.368 . S
C900 C896 1.368 . S
C900 C899 1.523 . S
H901 C876 0.950 . S
H902 C878 0.950 . S
H903 C879 0.949 . S
H904 C881 0.950 . S
H905 C883 0.950 . S
C906 C907 1.349 . S
C906 C908 1.327 . S
C906 H931 0.950 . S
C907 C906 1.349 . S
C907 C923 1.349 . S
C908 C906 1.327 . S
C908 C927 1.429 . S
C908 H932 0.950 . S
C909 C926 1.574 . S
C909 C928 1.368 . S
C909 H933 0.949 . S
H910 C914 0.949 . S
C911 C912 1.349 . S
C911 C913 1.327 . S
C911 H934 0.950 . S
C912 C911 1.349 . S
C912 C924 1.349 . S
C913 C911 1.327 . S
C913 C929 1.429 . S
C913 H935 0.950 . S
C914 H910 0.949 . S
C914 C922 1.574 . S
C914 C930 1.368 . S
H915 C923 0.950 . S
H916 C921 0.950 . S
H917 C922 0.949 . S
H918 C924 0.950 . S
H919 C925 0.950 . S
H920 C926 0.949 . S
C921 H916 0.950 . S
C921 C923 1.327 . S
C921 C927 1.429 . S
C922 C914 1.574 . S
C922 H917 0.949 . S
C922 C928 1.368 . S
C923 C907 1.349 . S
C923 H915 0.950 . S
C923 C921 1.327 . S
C924 C912 1.349 . S
C924 H918 0.950 . S
C924 C925 1.327 . S
C925 H919 0.950 . S
C925 C924 1.327 . S
C925 C929 1.429 . S
C926 C909 1.574 . S
C926 H920 0.949 . S
C926 C930 1.368 . S
C927 C908 1.429 . S
C927 C921 1.429 . S
C927 C928 1.523 . S
C928 C909 1.368 . S
C928 C922 1.368 . S
C928 C927 1.523 . S
C929 C913 1.429 . S
C929 C925 1.429 . S
C929 C930 1.523 . S
C930 C914 1.368 . S
C930 C926 1.368 . S
C930 C929 1.523 . S
H931 C906 0.950 . S
H932 C908 0.950 . S
H933 C909 0.949 . S
H934 C911 0.950 . S
H935 C913 0.950 . S
C936 C937 1.349 . S
C936 C938 1.327 . S
C936 H961 0.950 . S
C937 C936 1.349 . S
C937 C953 1.349 . S
C938 C936 1.327 . S
C938 C957 1.429 . S
C938 H962 0.950 . S
C939 C956 1.574 . S
C939 C958 1.368 . S
C939 H963 0.949 . S
H940 C944 0.949 . S
C941 C942 1.349 . S
C941 C943 1.327 . S
C941 H964 0.950 . S
C942 C941 1.349 . S
C942 C954 1.349 . S
C943 C941 1.327 . S
C943 C959 1.429 . S
C943 H965 0.950 . S
C944 H940 0.949 . S
C944 C952 1.574 . S
C944 C960 1.368 . S
H945 C953 0.950 . S
H946 C951 0.950 . S
H947 C952 0.949 . S
H948 C954 0.950 . S
H949 C955 0.950 . S
H950 C956 0.949 . S
C951 H946 0.950 . S
C951 C953 1.327 . S
C951 C957 1.429 . S
C952 C944 1.574 . S
C952 H947 0.949 . S
C952 C958 1.368 . S
C953 C937 1.349 . S
C953 H945 0.950 . S
C953 C951 1.327 . S
C954 C942 1.349 . S
C954 H948 0.950 . S
C954 C955 1.327 . S
C955 H949 0.950 . S
C955 C954 1.327 . S
C955 C959 1.429 . S
C956 C939 1.574 . S
C956 H950 0.949 . S
C956 C960 1.368 . S
C957 C938 1.429 . S
C957 C951 1.429 . S
C957 C958 1.523 . S
C958 C939 1.368 . S
C958 C952 1.368 . S
C958 C957 1.523 . S
C959 C943 1.429 . S
C959 C955 1.429 . S
C959 C960 1.523 . S
C960 C944 1.368 . S
C960 C956 1.368 . S
C960 C959 1.523 . S
H961 C936 0.950 . S
H962 C938 0.950 . S
H963 C939 0.949 . S
H964 C941 0.950 . S
H965 C943 0.950 . S
C966 C967 1.349 . S
C966 C968 1.327 . S
C966 H991 0.950 . S
C967 C966 1.349 . S
C967 C983 1.349 . S
C968 C966 1.327 . S
C968 C987 1.429 . S
C968 H992 0.950 . S
C969 C986 1.574 . S
C969 C988 1.368 . S
C969 H993 0.949 . S
H970 C974 0.949 . S
C971 C972 1.349 . S
C971 C973 1.327 . S
C971 H994 0.950 . S
C972 C971 1.349 . S
C972 C984 1.349 . S
C973 C971 1.327 . S
C973 C989 1.429 . S
C973 H995 0.950 . S
C974 H970 0.949 . S
C974 C982 1.574 . S
C974 C990 1.368 . S
H975 C983 0.950 . S
H976 C981 0.950 . S
H977 C982 0.949 . S
H978 C984 0.950 . S
H979 C985 0.950 . S
H980 C986 0.949 . S
C981 H976 0.950 . S
C981 C983 1.327 . S
C981 C987 1.429 . S
C982 C974 1.574 . S
C982 H977 0.949 . S
C982 C988 1.368 . S
C983 C967 1.349 . S
C983 H975 0.950 . S
C983 C981 1.327 . S
C984 C972 1.349 . S
C984 H978 0.950 . S
C984 C985 1.327 . S
C985 H979 0.950 . S
C985 C984 1.327 . S
C985 C989 1.429 . S
C986 C969 1.574 . S
C986 H980 0.949 . S
C986 C990 1.368 . S
C987 C968 1.429 . S
C987 C981 1.429 . S
C987 C988 1.523 . S
C988 C969 1.368 . S
C988 C982 1.368 . S
C988 C987 1.523 . S
C989 C973 1.429 . S
C989 C985 1.429 . S
C989 C990 1.523 . S
C990 C974 1.368 . S
C990 C986 1.368 . S
C990 C989 1.523 . S
H991 C966 0.950 . S
H992 C968 0.950 . S
H993 C969 0.949 . S
H994 C971 0.950 . S
H995 C973 0.950 . S
C996 C997 1.349 . S
C996 C998 1.327 . S
C996 H1021 0.950 . S
C997 C996 1.349 . S
C997 C1013 1.349 . S
C998 C996 1.327 . S
C998 C1017 1.429 . S
C998 H1022 0.950 . S
C999 C1016 1.574 . S
C999 C1018 1.368 . S
C999 H1023 0.949 . S
H1000 C1004 0.949 . S
C1001 C1002 1.349 . S
C1001 C1003 1.327 . S
C1001 H1024 0.950 . S
C1002 C1001 1.349 . S
C1002 C1014 1.349 . S
C1003 C1001 1.327 . S
C1003 C1019 1.429 . S
C1003 H1025 0.950 . S
C1004 H1000 0.949 . S
C1004 C1012 1.574 . S
C1004 C1020 1.368 . S
H1005 C1013 0.950 . S
H1006 C1011 0.950 . S
H1007 C1012 0.949 . S
H1008 C1014 0.950 . S
H1009 C1015 0.950 . S
H1010 C1016 0.949 . S
C1011 H1006 0.950 . S
C1011 C1013 1.327 . S
C1011 C1017 1.429 . S
C1012 C1004 1.574 . S
C1012 H1007 0.949 . S
C1012 C1018 1.368 . S
C1013 C997 1.349 . S
C1013 H1005 0.950 . S
C1013 C1011 1.327 . S
C1014 C1002 1.349 . S
C1014 H1008 0.950 . S
C1014 C1015 1.327 . S
C1015 H1009 0.950 . S
C1015 C1014 1.327 . S
C1015 C1019 1.429 . S
C1016 C999 1.574 . S
C1016 H1010 0.949 . S
C1016 C1020 1.368 . S
C1017 C998 1.429 . S
C1017 C1011 1.429 . S
C1017 C1018 1.523 . S
C1018 C999 1.368 . S
C1018 C1012 1.368 . S
C1018 C1017 1.523 . S
C1019 C1003 1.429 . S
C1019 C1015 1.429 . S
C1019 C1020 1.523 . S
C1020 C1004 1.368 . S
C1020 C1016 1.368 . S
C1020 C1019 1.523 . S
H1021 C996 0.950 . S
H1022 C998 0.950 . S
H1023 C999 0.949 . S
H1024 C1001 0.950 . S
H1025 C1003 0.950 . S
C1026 C1027 1.349 . S
C1026 C1028 1.327 . S
C1026 H1051 0.950 . S
C1027 C1026 1.349 . S
C1027 C1043 1.349 . S
C1028 C1026 1.327 . S
C1028 C1047 1.429 . S
C1028 H1052 0.950 . S
C1029 C1046 1.574 . S
C1029 C1048 1.368 . S
C1029 H1053 0.949 . S
H1030 C1034 0.949 . S
C1031 C1032 1.349 . S
C1031 C1033 1.327 . S
C1031 H1054 0.950 . S
C1032 C1031 1.349 . S
C1032 C1044 1.349 . S
C1033 C1031 1.327 . S
C1033 C1049 1.429 . S
C1033 H1055 0.950 . S
C1034 H1030 0.949 . S
C1034 C1042 1.574 . S
C1034 C1050 1.368 . S
H1035 C1043 0.950 . S
H1036 C1041 0.950 . S
H1037 C1042 0.949 . S
H1038 C1044 0.950 . S
H1039 C1045 0.950 . S
H1040 C1046 0.949 . S
C1041 H1036 0.950 . S
C1041 C1043 1.327 . S
C1041 C1047 1.429 . S
C1042 C1034 1.574 . S
C1042 H1037 0.949 . S
C1042 C1048 1.368 . S
C1043 C1027 1.349 . S
C1043 H1035 0.950 . S
C1043 C1041 1.327 . S
C1044 C1032 1.349 . S
C1044 H1038 0.950 . S
C1044 C1045 1.327 . S
C1045 H1039 0.950 . S
C1045 C1044 1.327 . S
C1045 C1049 1.429 . S
C1046 C1029 1.574 . S
C1046 H1040 0.949 . S
C1046 C1050 1.368 . S
C1047 C1028 1.429 . S
C1047 C1041 1.429 . S
C1047 C1048 1.523 . S
C1048 C1029 1.368 . S
C1048 C1042 1.368 . S
C1048 C1047 1.523 . S
C1049 C1033 1.429 . S
C1049 C1045 1.429 . S
C1049 C1050 1.523 . S
C1050 C1034 1.368 . S
C1050 C1046 1.368 . S
C1050 C1049 1.523 . S
H1051 C1026 0.950 . S
H1052 C1028 0.950 . S
H1053 C1029 0.949 . S
H1054 C1031 0.950 . S
H1055 C1033 0.950 . S
C1056 C1057 1.349 . S
C1056 C1058 1.327 . S
C1056 H1081 0.950 . S
C1057 C1056 1.349 . S
C1057 C1073 1.349 . S
C1058 C1056 1.327 . S
C1058 C1077 1.429 . S
C1058 H1082 0.950 . S
C1059 C1076 1.574 . S
C1059 C1078 1.368 . S
C1059 H1083 0.949 . S
H1060 C1064 0.949 . S
C1061 C1062 1.349 . S
C1061 C1063 1.327 . S
C1061 H1084 0.950 . S
C1062 C1061 1.349 . S
C1062 C1074 1.349 . S
C1063 C1061 1.327 . S
C1063 C1079 1.429 . S
C1063 H1085 0.950 . S
C1064 H1060 0.949 . S
C1064 C1072 1.574 . S
C1064 C1080 1.368 . S
H1065 C1073 0.950 . S
H1066 C1071 0.950 . S
H1067 C1072 0.949 . S
H1068 C1074 0.950 . S
H1069 C1075 0.950 . S
H1070 C1076 0.949 . S
C1071 H1066 0.950 . S
C1071 C1073 1.327 . S
C1071 C1077 1.429 . S
C1072 C1064 1.574 . S
C1072 H1067 0.949 . S
C1072 C1078 1.368 . S
C1073 C1057 1.349 . S
C1073 H1065 0.950 . S
C1073 C1071 1.327 . S
C1074 C1062 1.349 . S
C1074 H1068 0.950 . S
C1074 C1075 1.327 . S
C1075 H1069 0.950 . S
C1075 C1074 1.327 . S
C1075 C1079 1.429 . S
C1076 C1059 1.574 . S
C1076 H1070 0.949 . S
C1076 C1080 1.368 . S
C1077 C1058 1.429 . S
C1077 C1071 1.429 . S
C1077 C1078 1.523 . S
C1078 C1059 1.368 . S
C1078 C1072 1.368 . S
C1078 C1077 1.523 . S
C1079 C1063 1.429 . S
C1079 C1075 1.429 . S
C1079 C1080 1.523 . S
C1080 C1064 1.368 . S
C1080 C1076 1.368 . S
C1080 C1079 1.523 . S
H1081 C1056 0.950 . S
H1082 C1058 0.950 . S
H1083 C1059 0.949 . S
H1084 C1061 0.950 . S
H1085 C1063 0.950 . S
C1086 C1087 1.349 . S
C1086 C1088 1.327 . S
C1086 H1111 0.950 . S
C1087 C1086 1.349 . S
C1087 C1103 1.349 . S
C1088 C1086 1.327 . S
C1088 C1107 1.429 . S
C1088 H1112 0.950 . S
C1089 C1106 1.574 . S
C1089 C1108 1.368 . S
C1089 H1113 0.949 . S
H1090 C1094 0.949 . S
C1091 C1092 1.349 . S
C1091 C1093 1.327 . S
C1091 H1114 0.950 . S
C1092 C1091 1.349 . S
C1092 C1104 1.349 . S
C1093 C1091 1.327 . S
C1093 C1109 1.429 . S
C1093 H1115 0.950 . S
C1094 H1090 0.949 . S
C1094 C1102 1.574 . S
C1094 C1110 1.368 . S
H1095 C1103 0.950 . S
H1096 C1101 0.950 . S
H1097 C1102 0.949 . S
H1098 C1104 0.950 . S
H1099 C1105 0.950 . S
H1100 C1106 0.949 . S
C1101 H1096 0.950 . S
C1101 C1103 1.327 . S
C1101 C1107 1.429 . S
C1102 C1094 1.574 . S
C1102 H1097 0.949 . S
C1102 C1108 1.368 . S
C1103 C1087 1.349 . S
C1103 H1095 0.950 . S
C1103 C1101 1.327 . S
C1104 C1092 1.349 . S
C1104 H1098 0.950 . S
C1104 C1105 1.327 . S
C1105 H1099 0.950 . S
C1105 C1104 1.327 . S
C1105 C1109 1.429 . S
C1106 C1089 1.574 . S
C1106 H1100 0.949 . S
C1106 C1110 1.368 . S
C1107 C1088 1.429 . S
C1107 C1101 1.429 . S
C1107 C1108 1.523 . S
C1108 C1089 1.368 . S
C1108 C1102 1.368 . S
C1108 C1107 1.523 . S
C1109 C1093 1.429 . S
C1109 C1105 1.429 . S
C1109 C1110 1.523 . S
C1110 C1094 1.368 . S
C1110 C1106 1.368 . S
C1110 C1109 1.523 . S
H1111 C1086 0.950 . S
H1112 C1088 0.950 . S
H1113 C1089 0.949 . S
H1114 C1091 0.950 . S
H1115 C1093 0.950 . S
C1116 C1117 1.349 . S
C1116 C1118 1.327 . S
C1116 H1141 0.950 . S
C1117 C1116 1.349 . S
C1117 C1133 1.349 . S
C1118 C1116 1.327 . S
C1118 C1137 1.429 . S
C1118 H1142 0.950 . S
C1119 C1136 1.574 . S
C1119 C1138 1.368 . S
C1119 H1143 0.949 . S
H1120 C1124 0.949 . S
C1121 C1122 1.349 . S
C1121 C1123 1.327 . S
C1121 H1144 0.950 . S
C1122 C1121 1.349 . S
C1122 C1134 1.349 . S
C1123 C1121 1.327 . S
C1123 C1139 1.429 . S
C1123 H1145 0.950 . S
C1124 H1120 0.949 . S
C1124 C1132 1.574 . S
C1124 C1140 1.368 . S
H1125 C1133 0.950 . S
H1126 C1131 0.950 . S
H1127 C1132 0.949 . S
H1128 C1134 0.950 . S
H1129 C1135 0.950 . S
H1130 C1136 0.949 . S
C1131 H1126 0.950 . S
C1131 C1133 1.327 . S
C1131 C1137 1.429 . S
C1132 C1124 1.574 . S
C1132 H1127 0.949 . S
C1132 C1138 1.368 . S
C1133 C1117 1.349 . S
C1133 H1125 0.950 . S
C1133 C1131 1.327 . S
C1134 C1122 1.349 . S
C1134 H1128 0.950 . S
C1134 C1135 1.327 . S
C1135 H1129 0.950 . S
C1135 C1134 1.327 . S
C1135 C1139 1.429 . S
C1136 C1119 1.574 . S
C1136 H1130 0.949 . S
C1136 C1140 1.368 . S
C1137 C1118 1.429 . S
C1137 C1131 1.429 . S
C1137 C1138 1.523 . S
C1138 C1119 1.368 . S
C1138 C1132 1.368 . S
C1138 C1137 1.523 . S
C1139 C1123 1.429 . S
C1139 C1135 1.429 . S
C1139 C1140 1.523 . S
C1140 C1124 1.368 . S
C1140 C1136 1.368 . S
C1140 C1139 1.523 . S
H1141 C1116 0.950 . S
H1142 C1118 0.950 . S
H1143 C1119 0.949 . S
H1144 C1121 0.950 . S
H1145 C1123 0.950 . S
C427 C7 1.858 . S
C432 C159 1.848 . S
C457 C30 1.619 . S
C462 C216 1.620 . S
C492 C270 1.722 . S
C487 N58 1.701 . S
C522 C327 1.452 . S
C517 N81 1.447 . S
C552 C351 1.747 . S
C547 C99 1.754 . S
C582 C408 1.527 . S
C577 N127 1.482 . S
C607 N25 1.704 . S
C612 C255 1.733 . S
C637 C62 1.603 . S
C642 C312 1.606 . S
C672 C366 1.778 . S
C667 C85 1.796 . S
C702 C423 1.487 . S
C697 N94 1.496 . S
C727 C131 1.792 . S
C732 C174 1.769 . S
C762 C231 1.460 . S
C757 N2 1.458 . S
C792 C318 1.797 . S
C787 C16 1.802 . S
C817 C39 1.578 . S
C822 C360 1.549 . S
C852 C399 1.709 . S
C847 N48 1.691 . S
C877 N71 1.449 . S
C882 C168 1.452 . S
C907 C108 1.762 . S
C912 C207 1.748 . S
C937 N117 1.477 . S
C942 C279 1.524 . S
C967 N35 1.695 . S
C972 C414 1.729 . S
C1002 C183 1.619 . S
C997 C53 1.618 . S
C1027 C76 1.840 . S
C1032 C222 1.830 . S
C1057 N104 1.475 . S
C1062 C264 1.475 . S
C1087 C122 1.750 . S
C1092 C303 1.728 . S
C1117 N12 1.429 . S
C1122 C375 1.473 . S
