# Generated by pormake.
# Topology tsx, (6,3)-cn, num edge types: 1
# Building blocks:
#     Node 0, Type 0, BuildingBlock: FUNLAD_clean_sbu_0, # of connection points: 6
#     Node 1, Type 0, BuildingBlock: FUNLAD_clean_sbu_0, # of connection points: 6
#     Node 2, Type 1, BuildingBlock: ESEHIV_clean_linker_0, # of connection points: 3
#     Node 3, Type 1, BuildingBlock: ESEHIV_clean_linker_0, # of connection points: 3
#     Node 4, Type 1, BuildingBlock: ESEHIV_clean_linker_0, # of connection points: 3
#     Node 5, Type 1, BuildingBlock: ESEHIV_clean_linker_0, # of connection points: 3
#     Edge 6, Type (0, 1), BuildingBlock: MIFKUJ_clean_linker_0, # of connection points: 2
#     Edge 7, Type (0, 1), BuildingBlock: MIFKUJ_clean_linker_0, # of connection points: 2
#     Edge 8, Type (0, 1), BuildingBlock: MIFKUJ_clean_linker_0, # of connection points: 2
#     Edge 9, Type (0, 1), BuildingBlock: MIFKUJ_clean_linker_0, # of connection points: 2
#     Edge 10, Type (0, 1), BuildingBlock: MIFKUJ_clean_linker_0, # of connection points: 2
#     Edge 11, Type (0, 1), BuildingBlock: MIFKUJ_clean_linker_0, # of connection points: 2
#     Edge 12, Type (0, 1), BuildingBlock: MIFKUJ_clean_linker_0, # of connection points: 2
#     Edge 13, Type (0, 1), BuildingBlock: MIFKUJ_clean_linker_0, # of connection points: 2
#     Edge 14, Type (0, 1), BuildingBlock: MIFKUJ_clean_linker_0, # of connection points: 2
#     Edge 15, Type (0, 1), BuildingBlock: MIFKUJ_clean_linker_0, # of connection points: 2
#     Edge 16, Type (0, 1), BuildingBlock: MIFKUJ_clean_linker_0, # of connection points: 2
#     Edge 17, Type (0, 1), BuildingBlock: MIFKUJ_clean_linker_0, # of connection points: 2
# Relax obj value: 0.165
# Max RMSD: 0.155
# Mean RMSD: 0.089
data_MOF--net-tsx--node1-FUNLAD_clean_sbu_0--node2-ESEHIV_clean_linker_0--edge1-MIFKUJ_clean_linker_0
_symmetry_space_group_name_H-M    P1
_symmetry_Int_Tables_number       1
_symmetry_cell_setting            triclinic
loop_
_symmetry_equiv_pos_as_xyz
'x, y, z'
_cell_length_a     23.543357
_cell_length_b     26.07779
_cell_length_c     50.736444
_cell_angle_alpha  91.339591
_cell_angle_beta   92.122936
_cell_angle_gamma 90.153405
loop_
_atom_site_label
_atom_site_type_symbol
_atom_site_fract_x
_atom_site_fract_y
_atom_site_fract_z
_atom_type_partial_charge
C0 C 0.93983 0.91832 0.99589 0.0
N1 N 0.01326 -0.00196 0.06191 0.0
C2 C 0.96595 0.98315 0.07442 0.0
C3 C 0.96618 0.98186 0.10198 0.0
C4 C 0.01513 -0.00293 0.11677 0.0
C5 C 0.06323 0.01239 0.10342 0.0
C6 C 0.06157 0.01207 0.07586 0.0
Zn7 Zn 0.01194 0.00059 0.02137 0.0
C8 C 0.10284 0.93784 0.9984 0.0
N9 N 0.00935 0.00648 0.93699 0.0
C10 C 0.96026 -0.00066 0.92231 0.0
C11 C 0.05957 0.01479 0.92529 0.0
C12 C 0.06173 0.01639 0.89787 0.0
C13 C 0.01191 0.00864 0.88224 0.0
C14 C 0.96066 -9e-05 0.89475 0.0
Zn15 Zn 0.00946 0.00383 0.97741 0.0
O16 O 0.96064 0.93379 0.01816 0.0
C17 C 0.91857 0.06647 0.00056 0.0
O18 O 0.952 0.94172 0.97517 0.0
H19 H 0.09825 0.01984 0.93724 0.0
H20 H 0.92779 0.97254 0.06305 0.0
H21 H 0.92075 0.99296 0.93197 0.0
O22 O 0.93852 0.04708 0.0217 0.0
O23 O 0.9411 0.05554 0.97873 0.0
H24 H 0.09895 0.02327 0.06563 0.0
O25 O 0.06629 0.06619 0.98016 0.0
O26 O 0.06293 0.06775 0.02333 0.0
O27 O 0.07792 0.95202 0.97716 0.0
O28 O 0.08526 0.95408 0.02045 0.0
C29 C 0.08066 0.08679 0.00231 0.0
H30 H 0.92817 0.9701 0.11164 0.0
H31 H 0.10191 0.02395 0.11421 0.0
H32 H 0.10221 0.02258 0.88895 0.0
H33 H 0.92126 0.99406 0.88336 0.0
C34 C 0.41839 0.41599 0.49977 0.0
N35 N 0.4943 0.50012 0.56327 0.0
C36 C 0.44677 0.48877 0.57646 0.0
C37 C 0.44892 0.48716 0.60395 0.0
C38 C 0.50026 0.49804 0.6179 0.0
C39 C 0.54853 0.51001 0.60384 0.0
C40 C 0.54468 0.51047 0.57635 0.0
Zn41 Zn 0.49028 0.5015 0.52316 0.0
C42 C 0.57935 0.43904 0.49939 0.0
N43 N 0.48077 0.5042 0.43939 0.0
C44 C 0.43214 0.49426 0.4248 0.0
C45 C 0.53045 0.5148 0.42772 0.0
C46 C 0.53247 0.51637 0.4004 0.0
C47 C 0.48314 0.50612 0.38488 0.0
C48 C 0.4325 0.49461 0.39727 0.0
Zn49 Zn 0.4825 0.5028 0.47947 0.0
O50 O 0.43815 0.43501 0.52152 0.0
C51 C 0.3936 0.56564 0.50311 0.0
O52 O 0.42922 0.43758 0.47834 0.0
H53 H 0.56883 0.52182 0.43963 0.0
H54 H 0.40711 0.48099 0.56566 0.0
H55 H 0.39316 0.48595 0.43451 0.0
O56 O 0.41816 0.55004 0.52417 0.0
O57 O 0.41151 0.55088 0.48088 0.0
H58 H 0.58204 0.51899 0.56546 0.0
O59 O 0.53581 0.5684 0.48095 0.0
O60 O 0.54277 0.5671 0.52408 0.0
O61 O 0.55361 0.45428 0.4786 0.0
O62 O 0.56233 0.45377 0.52176 0.0
C63 C 0.55529 0.5877 0.50263 0.0
H64 H 0.41072 0.47821 0.61421 0.0
H65 H 0.58896 0.51816 0.61398 0.0
H66 H 0.57245 0.52471 0.39145 0.0
H67 H 0.39362 0.48663 0.38579 0.0
H68 H 0.95598 0.06963 0.39935 0.0
H69 H 0.08073 0.95093 0.4093 0.0
H70 H 0.99507 0.01057 0.47655 0.0
C71 C 0.97964 0.0439 0.41208 0.0
C72 C 0.97093 0.0449 0.43939 0.0
C73 C 0.01832 0.00951 0.40093 0.0
C74 C 0.05 0.9771 0.41755 0.0
C75 C 0.04224 0.97841 0.44485 0.0
C76 C 0.00205 0.01134 0.45558 0.0
H77 H 0.95859 0.93567 0.59648 0.0
H78 H 0.10969 0.02755 0.59383 0.0
H79 H 0.03543 0.96083 0.5223 0.0
C80 C 0.9926 0.95155 0.58538 0.0
C81 C 0.99243 0.94357 0.55787 0.0
C82 C 0.03552 0.98048 0.59875 0.0
C83 C 0.07702 0.00415 0.5839 0.0
C84 C 0.07633 -0.00181 0.55624 0.0
C85 C 0.03465 0.96699 0.54347 0.0
H86 H 0.45432 0.55624 0.90168 0.0
H87 H 0.57049 0.43017 0.90572 0.0
H88 H 0.5038 0.4945 0.97709 0.0
C89 C 0.47812 0.52878 0.91336 0.0
C90 C 0.4739 0.52915 0.94091 0.0
C91 C 0.51258 0.49306 0.90064 0.0
C92 C 0.54392 0.45791 0.91562 0.0
C93 C 0.54153 0.45859 0.94324 0.0
C94 C 0.50609 0.49407 0.9558 0.0
H95 H 0.44302 0.4631 0.10149 0.0
H96 H 0.58838 0.5628 0.09948 0.0
H97 H 0.48829 0.5303 0.02852 0.0
C98 C 0.47076 0.48727 0.09056 0.0
C99 C 0.46035 0.49299 0.06335 0.0
C100 C 0.51641 0.51262 0.10388 0.0
C101 C 0.55272 0.54322 0.08952 0.0
C102 C 0.54252 0.54972 0.06241 0.0
C103 C 0.49618 0.52488 0.04945 0.0
H104 H 0.09479 0.15584 0.04322 0.0
H105 H 0.15335 0.23362 0.04467 0.0
H106 H 0.20629 0.20009 0.96567 0.0
H107 H 0.14703 0.12262 0.96381 0.0
H108 H 0.29602 0.22165 0.00513 0.0
H109 H 0.12237 0.29253 0.97053 0.0
H110 H 0.01921 0.30878 0.96884 0.0
H111 H 0.03258 0.38373 0.04507 0.0
H112 H 0.13573 0.36718 0.04744 0.0
H113 H 0.46106 0.44639 0.01463 0.0
H114 H 0.39048 0.38677 0.99493 0.0
H115 H 0.28484 0.41177 0.06175 0.0
H116 H 0.35364 0.47346 0.08066 0.0
H117 H 0.2202 0.39711 0.01937 0.0
H118 H 0.38293 0.31232 0.05918 0.0
H119 H 0.48392 0.28945 0.06597 0.0
H120 H 0.48969 0.23647 0.98536 0.0
H121 H 0.38872 0.25955 0.97801 0.0
C122 C 0.11883 0.16507 0.02615 0.0
C123 C 0.11651 0.1332 0.00343 0.0
C124 C 0.15184 0.20961 0.02694 0.0
C125 C 0.18349 0.22259 0.00517 0.0
C126 C 0.18173 0.19069 0.98255 0.0
C127 C 0.14798 0.14656 0.98156 0.0
C128 C 0.22079 0.2681 0.00678 0.0
C129 C 0.27964 0.26027 0.00757 0.0
C130 C 0.19889 0.318 0.01063 0.0
C131 C 0.13682 0.32826 0.00924 0.0
C132 C 0.10328 0.31208 0.98705 0.0
C133 C 0.04479 0.32143 0.98594 0.0
C134 C 0.01933 0.3472 0.00685 0.0
C135 C 0.05235 0.36376 0.02889 0.0
C136 C 0.11085 0.35445 0.03011 0.0
C137 C 0.42212 0.44021 0.02472 0.0
C138 C 0.4137 0.46357 0.0495 0.0
C139 C 0.38201 0.40582 0.01357 0.0
C140 C 0.33315 0.39376 0.02723 0.0
C141 C 0.32254 0.42007 0.05097 0.0
C142 C 0.3623 0.45485 0.06194 0.0
C143 C 0.29567 0.35059 0.01835 0.0
C144 C 0.23675 0.35875 0.01624 0.0
C145 C 0.31741 0.30066 0.01385 0.0
C146 C 0.3785 0.28819 0.01797 0.0
C147 C 0.40588 0.29626 0.04283 0.0
C148 C 0.46303 0.28309 0.04681 0.0
C149 C 0.4931 0.26136 0.02614 0.0
C150 C 0.46624 0.25315 0.00137 0.0
C151 C 0.40908 0.2663 0.99728 0.0
H152 H 0.53727 0.251 0.02929 0.0
H153 H 0.97404 0.35442 0.00596 0.0
H154 H 0.13278 0.87959 0.95603 0.0
H155 H 0.20199 0.81019 0.95522 0.0
H156 H 0.24708 0.84034 0.03724 0.0
H157 H 0.17669 0.90967 0.03851 0.0
H158 H 0.34233 0.82033 0.99428 0.0
H159 H 0.17813 0.75104 0.0358 0.0
H160 H 0.07496 0.73832 0.03966 0.0
H161 H 0.06501 0.66551 0.96283 0.0
H162 H 0.168 0.67866 0.95832 0.0
H163 H 0.49574 0.58627 0.98608 0.0
H164 H 0.43595 0.65392 0.0049 0.0
H165 H 0.3094 0.62609 0.94263 0.0
H166 H 0.36689 0.55698 0.92474 0.0
H167 H 0.25917 0.64526 0.98622 0.0
H168 H 0.41566 0.72169 0.9414 0.0
H169 H 0.51689 0.73762 0.93361 0.0
H170 H 0.54075 0.80009 0.0123 0.0
H171 H 0.43979 0.78346 0.02076 0.0
C172 C 0.15782 0.87203 0.97386 0.0
C173 C 0.14905 0.89985 0.9974 0.0
C174 C 0.19728 0.83238 0.97333 0.0
C175 C 0.22914 0.8203 0.99619 0.0
C176 C 0.22267 0.84939 0.01945 0.0
C177 C 0.18242 0.88871 0.02012 0.0
C178 C 0.26617 0.77491 0.99573 0.0
C179 C 0.32469 0.78182 0.9932 0.0
C180 C 0.24244 0.72514 0.9938 0.0
C181 C 0.1807 0.71622 0.99665 0.0
C182 C 0.15386 0.7327 0.01964 0.0
C183 C 0.09543 0.72535 0.02196 0.0
C184 C 0.06342 0.70123 0.00148 0.0
C185 C 0.08984 0.68423 0.97867 0.0
C186 C 0.14826 0.69158 0.97624 0.0
C187 C 0.45454 0.59384 0.97687 0.0
C188 C 0.43626 0.5668 0.9538 0.0
C189 C 0.42085 0.63269 0.98745 0.0
C190 C 0.36891 0.6456 0.97492 0.0
C191 C 0.3495 0.61702 0.9526 0.0
C192 C 0.3827 0.57789 0.94221 0.0
C193 C 0.33567 0.69038 0.984 0.0
C194 C 0.27753 0.68344 0.98806 0.0
C195 C 0.35983 0.7402 0.98698 0.0
C196 C 0.42035 0.75072 0.98182 0.0
C197 C 0.44257 0.73847 0.95711 0.0
C198 C 0.49989 0.74764 0.95258 0.0
C199 C 0.53524 0.76973 0.97247 0.0
C200 C 0.51329 0.78295 0.99692 0.0
C201 C 0.45606 0.77353 0.00162 0.0
H202 H 0.57965 0.7765 0.96895 0.0
H203 H 0.01818 0.69562 0.0033 0.0
H204 H 0.85411 0.90103 0.9592 0.0
H205 H 0.78086 0.83386 0.95959 0.0
H206 H 0.86283 0.77046 0.02883 0.0
H207 H 0.93499 0.83835 0.02916 0.0
H208 H 0.8113 0.69951 0.97725 0.0
H209 H 0.77564 0.83251 0.04938 0.0
H210 H 0.76236 0.92391 0.06131 0.0
H211 H 0.63096 0.9354 0.00074 0.0
H212 H 0.64432 0.84434 0.98822 0.0
H213 H 0.65787 0.54757 0.06054 0.0
H214 H 0.71886 0.60676 0.03761 0.0
H215 H 0.57035 0.68733 0.00836 0.0
H216 H 0.50989 0.62945 0.03245 0.0
H217 H 0.64311 0.75312 0.02715 0.0
H218 H 0.64951 0.61716 0.96744 0.0
H219 H 0.65702 0.52948 0.94915 0.0
H220 H 0.83325 0.5249 0.97395 0.0
H221 H 0.82629 0.61184 0.99353 0.0
C222 C 0.85692 0.87225 0.97425 0.0
C223 C 0.89977 0.87492 0.99429 0.0
C224 C 0.81529 0.83399 0.97437 0.0
C225 C 0.81699 0.79741 0.99414 0.0
C226 C 0.86138 0.79837 0.01333 0.0
C227 C 0.90216 0.83725 0.01361 0.0
C228 C 0.76925 0.76173 0.99693 0.0
C229 C 0.77445 0.71068 0.9882 0.0
C230 C 0.72 0.77766 0.00977 0.0
C231 C 0.71123 0.83191 0.01776 0.0
C232 C 0.74419 0.85469 0.03854 0.0
C233 C 0.73665 0.90641 0.0454 0.0
C234 C 0.69593 0.93552 0.03175 0.0
C235 C 0.66254 0.91289 0.01128 0.0
C236 C 0.67006 0.86124 0.0043 0.0
C237 C 0.63851 0.5778 0.04905 0.0
C238 C 0.57934 0.58381 0.04775 0.0
C239 C 0.67316 0.61124 0.03575 0.0
C240 C 0.64907 0.6511 0.02092 0.0
C241 C 0.58982 0.65678 0.01952 0.0
C242 C 0.55531 0.62351 0.03297 0.0
C243 C 0.6863 0.68923 0.00893 0.0
C244 C 0.6791 0.74123 0.01576 0.0
C245 C 0.73262 0.67418 0.99349 0.0
C246 C 0.73719 0.62116 0.98225 0.0
C247 C 0.68971 0.59725 0.96944 0.0
C248 C 0.69384 0.54751 0.95886 0.0
C249 C 0.7455 0.52136 0.96058 0.0
C250 C 0.79314 0.54504 0.97281 0.0
C251 C 0.78907 0.59455 0.98375 0.0
H252 H 0.74872 0.48287 0.95234 0.0
H253 H 0.69018 0.97557 0.03706 0.0
H254 H 0.84299 0.08194 0.03974 0.0
H255 H 0.77028 0.14932 0.04216 0.0
H256 H 0.81917 0.20442 0.96679 0.0
H257 H 0.89047 0.13698 0.96385 0.0
H258 H 0.81408 0.27922 0.0161 0.0
H259 H 0.71277 0.14207 0.96287 0.0
H260 H 0.67166 0.05504 0.95865 0.0
H261 H 0.56913 0.08601 0.02541 0.0
H262 H 0.61048 0.17296 0.03029 0.0
H263 H 0.65273 0.43542 0.93692 0.0
H264 H 0.70968 0.37198 0.96015 0.0
H265 H 0.56786 0.33714 0.00825 0.0
H266 H 0.50938 0.39885 0.98376 0.0
H267 H 0.61087 0.25212 0.99001 0.0
H268 H 0.68642 0.39415 0.03576 0.0
H269 H 0.72583 0.48037 0.04547 0.0
H270 H 0.87391 0.44278 0.00221 0.0
H271 H 0.8349 0.35676 0.99155 0.0
C272 C 0.83778 0.10822 0.02361 0.0
C273 C 0.87228 0.10429 0.00158 0.0
C274 C 0.79643 0.14653 0.02506 0.0
C275 C 0.78996 0.18167 0.00472 0.0
C276 C 0.82395 0.17753 0.98269 0.0
C277 C 0.86435 0.13885 0.98098 0.0
C278 C 0.74865 0.22381 0.00606 0.0
C279 C 0.76953 0.27372 0.0105 0.0
C280 C 0.69016 0.21578 0.00035 0.0
C281 C 0.66535 0.16366 0.9972 0.0
C282 C 0.68201 0.13009 0.97684 0.0
C283 C 0.65855 0.08083 0.97429 0.0
C284 C 0.61799 0.06493 0.99182 0.0
C285 C 0.60068 0.09832 0.01189 0.0
C286 C 0.62411 0.14757 0.01456 0.0
C287 C 0.63373 0.4145 0.95256 0.0
C288 C 0.5768 0.42249 0.95877 0.0
C289 C 0.66653 0.37864 0.96607 0.0
C290 C 0.64326 0.35026 0.98625 0.0
C291 C 0.58666 0.35876 0.99285 0.0
C292 C 0.55358 0.3945 0.97914 0.0
C293 C 0.67701 0.30842 0.99824 0.0
C294 C 0.65485 0.25832 0.99646 0.0
C295 C 0.73412 0.31639 0.00713 0.0
C296 C 0.75754 0.36873 0.01282 0.0
C297 C 0.72713 0.40434 0.02804 0.0
C298 C 0.74943 0.45324 0.03375 0.0
C299 C 0.8024 0.46697 0.02456 0.0
C300 C 0.83297 0.43199 0.00943 0.0
C301 C 0.81074 0.38313 0.00352 0.0
H302 H 0.81967 0.50479 0.0291 0.0
H303 H 0.59976 0.02685 0.98977 0.0
H304 H 0.58744 0.64317 0.46047 0.0
H305 H 0.65478 0.71493 0.46093 0.0
H306 H 0.67703 0.70481 0.54546 0.0
H307 H 0.60932 0.63399 0.54526 0.0
H308 H 0.67019 0.80258 0.53112 0.0
H309 H 0.77073 0.64867 0.50305 0.0
H310 H 0.78671 0.57398 0.47352 0.0
H311 H 0.80218 0.67382 0.40802 0.0
H312 H 0.78566 0.74907 0.43715 0.0
H313 H 0.94477 0.85611 0.576 0.0
H314 H 0.8652 0.8074 0.55653 0.0
H315 H 0.85987 0.9056 0.48934 0.0
H316 H 0.93862 0.95666 0.50924 0.0
H317 H 0.85009 0.77978 0.48421 0.0
H318 H 0.76808 0.93557 0.51727 0.0
H319 H 0.75786 0.0067 0.54964 0.0
H320 H 0.71109 0.89964 0.60817 0.0
H321 H 0.72196 0.82787 0.57623 0.0
C322 C 0.6064 0.65652 0.47918 0.0
C323 C 0.59342 0.63271 0.50284 0.0
C324 C 0.64487 0.69744 0.47938 0.0
C325 C 0.67122 0.71483 0.50319 0.0
C326 C 0.65702 0.69205 0.52687 0.0
C327 C 0.61849 0.6514 0.52671 0.0
C328 C 0.71565 0.75508 0.50376 0.0
C329 C 0.70929 0.79782 0.52067 0.0
C330 C 0.76611 0.74951 0.48961 0.0
C331 C 0.77624 0.70436 0.47217 0.0
C332 C 0.77712 0.65462 0.4823 0.0
C333 C 0.78634 0.61221 0.46566 0.0
C334 C 0.79523 0.61913 0.43889 0.0
C335 C 0.79513 0.6685 0.42874 0.0
C336 C 0.78587 0.71104 0.44531 0.0
C337 C 0.92693 0.86775 0.55713 0.0
C338 C 0.94777 0.91094 0.54445 0.0
C339 C 0.88172 0.83948 0.54594 0.0
C340 C 0.85673 0.85334 0.52171 0.0
C341 C 0.87894 0.89454 0.50811 0.0
C342 C 0.92401 0.92346 0.5195 0.0
C343 C 0.80494 0.82609 0.5121 0.0
C344 C 0.81003 0.78559 0.49374 0.0
C345 C 0.75344 0.83338 0.52509 0.0
C346 C 0.74615 0.87638 0.54436 0.0
C347 C 0.75601 0.92723 0.53709 0.0
C348 C 0.75005 0.96765 0.55535 0.0
C349 C 0.7339 0.95769 0.58096 0.0
C350 C 0.72359 0.9073 0.58832 0.0
C351 C 0.72957 0.86675 0.57012 0.0
H352 H 0.72931 0.98901 0.59509 0.0
H353 H 0.80236 0.58626 0.42603 0.0
H354 H 0.65207 0.40576 0.53881 0.0
H355 H 0.72258 0.33685 0.5355 0.0
H356 H 0.67965 0.31755 0.4525 0.0
H357 H 0.61024 0.38641 0.45539 0.0
H358 H 0.67502 0.22546 0.48517 0.0
H359 H 0.79452 0.37331 0.46673 0.0
H360 H 0.83972 0.45665 0.47828 0.0
H361 H 0.92176 0.39142 0.54661 0.0
H362 H 0.87622 0.30787 0.53569 0.0
H363 H 0.8675 0.0741 0.41838 0.0
H364 H 0.80352 0.1384 0.43572 0.0
H365 H 0.91409 0.15941 0.50496 0.0
H366 H 0.98103 0.09839 0.48655 0.0
H367 H 0.88455 0.24702 0.48947 0.0
H368 H 0.77896 0.09721 0.50614 0.0
H369 H 0.73328 0.01312 0.49739 0.0
H370 H 0.62382 0.07831 0.43763 0.0
H371 H 0.66937 0.16274 0.44566 0.0
C372 C 0.65821 0.38719 0.51981 0.0
C373 C 0.62553 0.4013 0.49738 0.0
C374 C 0.69836 0.34797 0.518 0.0
C375 C 0.70572 0.32224 0.49381 0.0
C376 C 0.67414 0.33701 0.47134 0.0
C377 C 0.63473 0.37649 0.47303 0.0
C378 C 0.74459 0.27838 0.49171 0.0
C379 C 0.7209 0.22988 0.48603 0.0
C380 C 0.80415 0.28428 0.49409 0.0
C381 C 0.83132 0.33456 0.50061 0.0
C382 C 0.82165 0.37689 0.48439 0.0
C383 C 0.84745 0.42414 0.49078 0.0
C384 C 0.88342 0.42938 0.51322 0.0
C385 C 0.89377 0.38735 0.52928 0.0
C386 C 0.86797 0.34006 0.52299 0.0
C387 C 0.87861 0.09267 0.43718 0.0
C388 C 0.92968 0.08116 0.45097 0.0
C389 C 0.84132 0.12879 0.44737 0.0
C390 C 0.85332 0.15308 0.47195 0.0
C391 C 0.90369 0.14093 0.48605 0.0
C392 C 0.94166 0.10555 0.4756 0.0
C393 C 0.81515 0.19374 0.48182 0.0
C394 C 0.8388 0.2418 0.48912 0.0
C395 C 0.75538 0.18718 0.48141 0.0
C396 C 0.72787 0.13634 0.47643 0.0
C397 C 0.74543 0.09359 0.491 0.0
C398 C 0.71951 0.04584 0.48619 0.0
C399 C 0.67574 0.04032 0.46698 0.0
C400 C 0.65773 0.08262 0.45252 0.0
C401 C 0.68354 0.13047 0.45722 0.0
H402 H 0.65574 0.00329 0.46331 0.0
H403 H 0.9034 0.46597 0.51813 0.0
H404 H 0.34202 0.38107 0.4616 0.0
H405 H 0.28622 0.30135 0.46154 0.0
H406 H 0.36591 0.26237 0.53626 0.0
H407 H 0.42051 0.34241 0.53688 0.0
H408 H 0.35568 0.17863 0.49312 0.0
H409 H 0.25015 0.30922 0.54206 0.0
H410 H 0.20304 0.39318 0.54644 0.0
H411 H 0.0931 0.35576 0.47928 0.0
H412 H 0.14032 0.27184 0.47425 0.0
H413 H 0.19045 0.01319 0.56615 0.0
H414 H 0.2515 0.07462 0.54506 0.0
H415 H 0.11476 0.10966 0.48939 0.0
H416 H 0.0529 0.05021 0.51133 0.0
H417 H 0.15132 0.19322 0.51262 0.0
H418 H 0.24123 0.05811 0.46748 0.0
H419 H 0.28698 0.97433 0.46015 0.0
H420 H 0.42247 0.01709 0.51534 0.0
H421 H 0.37767 0.10128 0.52295 0.0
C422 C 0.34766 0.35539 0.47796 0.0
C423 C 0.38513 0.36802 0.49937 0.0
C424 C 0.31605 0.30993 0.47783 0.0
C425 C 0.32244 0.27612 0.49881 0.0
C426 C 0.36088 0.28797 0.51983 0.0
C427 C 0.39153 0.33386 0.52026 0.0
C428 C 0.28618 0.2301 0.49998 0.0
C429 C 0.31099 0.18149 0.49742 0.0
C430 C 0.22758 0.23426 0.50452 0.0
C431 C 0.19932 0.28466 0.50754 0.0
C432 C 0.2164 0.31916 0.52804 0.0
C433 C 0.18958 0.36667 0.53068 0.0
C434 C 0.14526 0.37989 0.51308 0.0
C435 C 0.12756 0.34554 0.49284 0.0
C436 C 0.15434 0.29802 0.49009 0.0
C437 C 0.17371 0.03354 0.54921 0.0
C438 C 0.11667 0.02748 0.54059 0.0
C439 C 0.20887 0.06811 0.5369 0.0
C440 C 0.18776 0.09677 0.51558 0.0
C441 C 0.13198 0.08802 0.5058 0.0
C442 C 0.09676 0.05374 0.51822 0.0
C443 C 0.22084 0.14098 0.50645 0.0
C444 C 0.19558 0.18967 0.50762 0.0
C445 C 0.27873 0.13666 0.50019 0.0
C446 C 0.30585 0.08595 0.49591 0.0
C447 C 0.28058 0.04954 0.47821 0.0
C448 C 0.30642 0.00202 0.47395 0.0
C449 C 0.35741 0.99027 0.48739 0.0
C450 C 0.38291 0.02621 0.50497 0.0
C451 C 0.35745 0.07395 0.50917 0.0
H452 H 0.37725 0.95339 0.48411 0.0
H453 H 0.1245 0.41666 0.51517 0.0
H454 H 0.32031 0.59444 0.46343 0.0
H455 H 0.25869 0.66953 0.46312 0.0
H456 H 0.30658 0.7029 0.54465 0.0
H457 H 0.36719 0.62682 0.54535 0.0
H458 H 0.1987 0.72833 0.53533 0.0
H459 H 0.37453 0.76258 0.49733 0.0
H460 H 0.45521 0.74803 0.46848 0.0
H461 H 0.34412 0.76249 0.40003 0.0
H462 H 0.26254 0.77626 0.42848 0.0
H463 H 0.15132 0.99309 0.46217 0.0
H464 H 0.21215 0.9317 0.48578 0.0
H465 H 0.07009 0.82732 0.48902 0.0
H466 H 0.00897 0.88964 0.46642 0.0
H467 H 0.23853 0.84741 0.46338 0.0
H468 H 0.08323 0.74523 0.53199 0.0
H469 H 0.02242 0.76494 0.56954 0.0
H470 H 0.12014 0.90116 0.58794 0.0
H471 H 0.17958 0.88365 0.54982 0.0
C472 C 0.31688 0.61718 0.48145 0.0
C473 C 0.34912 0.60521 0.50431 0.0
C474 C 0.28185 0.66016 0.48122 0.0
C475 C 0.27929 0.69245 0.50367 0.0
C476 C 0.30829 0.67863 0.52708 0.0
C477 C 0.34289 0.63518 0.52742 0.0
C478 C 0.2499 0.7424 0.50191 0.0
C479 C 0.20726 0.7544 0.5196 0.0
C480 C 0.26332 0.77778 0.48233 0.0
C481 C 0.31232 0.77006 0.46506 0.0
C482 C 0.36723 0.76233 0.47613 0.0
C483 C 0.41313 0.75424 0.45985 0.0
C484 C 0.40478 0.75424 0.43244 0.0
C485 C 0.35051 0.76246 0.42126 0.0
C486 C 0.30442 0.77045 0.43746 0.0
C487 C 0.13315 0.95743 0.46853 0.0
C488 C 0.07626 0.94509 0.46217 0.0
C489 C 0.16767 0.9226 0.48203 0.0
C490 C 0.14594 0.8747 0.48893 0.0
C491 C 0.0878 0.86416 0.48421 0.0
C492 C 0.05307 0.89934 0.47101 0.0
C493 C 0.18528 0.83256 0.4961 0.0
C494 C 0.23003 0.82177 0.47931 0.0
C495 C 0.17552 0.79965 0.5172 0.0
C496 C 0.13555 0.81324 0.53804 0.0
C497 C 0.09104 0.77982 0.54383 0.0
C498 C 0.05671 0.79072 0.56514 0.0
C499 C 0.06734 0.83437 0.58108 0.0
C500 C 0.11145 0.86779 0.57539 0.0
C501 C 0.14502 0.85772 0.55375 0.0
H502 H 0.04151 0.84223 0.59789 0.0
H503 H 0.44037 0.74797 0.41986 0.0
H504 H 0.0438 0.07646 0.15049 0.0
H505 H 0.04572 0.07734 0.19873 0.0
H506 H 0.99281 0.91857 0.19711 0.0
H507 H 0.98802 0.91867 0.14876 0.0
H508 H 0.94011 0.96479 0.23337 0.0
H509 H 0.13633 0.96123 0.21185 0.0
H510 H 0.22295 0.98969 0.19045 0.0
H511 H 0.2137 0.13606 0.2306 0.0
H512 H 0.12658 0.1087 0.25198 0.0
H513 H 0.0171 0.92401 0.36876 0.0
H514 H 0.0192 0.92018 0.32045 0.0
H515 H 0.03382 0.08498 0.31926 0.0
H516 H 0.03175 0.08903 0.36753 0.0
H517 H 0.10782 0.03308 0.28507 0.0
H518 H 0.90937 0.0335 0.30613 0.0
H519 H 0.82478 0.00147 0.3279 0.0
H520 H 0.84231 0.85489 0.28876 0.0
H521 H 0.92756 0.88584 0.26706 0.0
C522 C 0.03266 0.04181 0.16051 0.0
C523 C 0.01608 -0.00259 0.14599 0.0
C524 C 0.03409 0.04217 0.18808 0.0
C525 C 0.02073 -0.00236 0.20173 0.0
C526 C 0.00351 0.9534 0.18715 0.0
C527 C 0.00084 0.9534 0.15954 0.0
C528 C 0.02403 -0.0026 0.23115 0.0
C529 C 0.97726 0.97897 0.24458 0.0
C530 C 0.07203 0.01662 0.24602 0.0
C531 C 0.12466 0.03305 0.23334 0.0
C532 C 0.15258 -0.00041 0.21599 0.0
C533 C 0.20179 0.01552 0.20388 0.0
C534 C 0.22374 0.06469 0.20912 0.0
C535 C 0.19662 0.098 0.22654 0.0
C536 C 0.14736 0.08228 0.23869 0.0
C537 C 0.0215 0.95933 0.35819 0.0
C538 C 0.0241 0.00684 0.37187 0.0
C539 C 0.0223 0.95712 0.33062 0.0
C540 C 0.02616 0.00234 0.31629 0.0
C541 C 0.03068 0.04966 0.32995 0.0
C542 C 0.02923 0.05194 0.35748 0.0
C543 C 0.02409 0.00052 0.287 0.0
C544 C 0.071 0.01863 0.2737 0.0
C545 C 0.97663 0.98034 0.27226 0.0
C546 C 0.9252 0.96182 0.2852 0.0
C547 C 0.89548 0.9943 0.30235 0.0
C548 C 0.84736 0.97637 0.31464 0.0
C549 C 0.82827 0.92613 0.30978 0.0
C550 C 0.85719 0.89377 0.29255 0.0
C551 C 0.90539 0.91149 0.28023 0.0
H552 H 0.791 0.91233 0.31931 0.0
H553 H 0.26183 0.07695 0.19971 0.0
H554 H 0.96493 0.93869 0.84688 0.0
H555 H 0.97189 0.93688 0.79877 0.0
H556 H 0.0702 0.07675 0.80361 0.0
H557 H 0.06366 0.07864 0.85177 0.0
H558 H 0.9811 0.0741 0.76313 0.0
H559 H 0.13926 0.97289 0.79482 0.0
H560 H 0.18465 0.90384 0.82035 0.0
H561 H 0.08294 0.79152 0.77693 0.0
H562 H 0.0363 0.86001 0.75139 0.0
H563 H 0.06585 0.06445 0.63033 0.0
H564 H 0.06652 0.07146 0.67841 0.0
H565 H 0.00514 0.91577 0.68178 0.0
H566 H 0.00856 0.90716 0.63404 0.0
H567 H 0.07934 0.92955 0.71896 0.0
H568 H 0.91724 0.02644 0.6889 0.0
H569 H 0.86635 0.09303 0.66374 0.0
H570 H 0.96728 0.21005 0.70399 0.0
H571 H 0.01929 0.14405 0.72916 0.0
C572 C 0.98759 0.96927 0.83765 0.0
C573 C 0.01388 0.00875 0.85304 0.0
C574 C 0.99178 0.96805 0.81023 0.0
C575 C 0.02186 0.00652 0.7977 0.0
C576 C 0.04691 0.04669 0.81294 0.0
C577 C 0.04339 0.04756 0.8404 0.0
C578 C 0.02796 0.00424 0.76873 0.0
C579 C 0.00321 0.04293 0.75342 0.0
C580 C 0.05565 0.96289 0.75614 0.0
C581 C 0.0839 0.92163 0.77137 0.0
C582 C 0.12622 0.93351 0.79087 0.0
C583 C 0.15224 0.89446 0.80531 0.0
C584 C 0.13659 0.84334 0.80031 0.0
C585 C 0.09498 0.83114 0.7808 0.0
C586 C 0.06877 0.87006 0.76632 0.0
C587 C 0.05336 0.03139 0.64128 0.0
C588 C 0.03665 0.98535 0.62813 0.0
C589 C 0.05297 0.03572 0.66883 0.0
C590 C 0.03471 0.99451 0.68381 0.0
C591 C 0.01907 0.94828 0.67075 0.0
C592 C 0.02036 0.94364 0.64332 0.0
C593 C 0.03175 -0.00084 0.71305 0.0
C594 C 0.05724 0.96091 0.72851 0.0
C595 C 0.0039 0.04053 0.72574 0.0
C596 C 0.97255 0.08028 0.71071 0.0
C597 C 0.92885 0.06635 0.69225 0.0
C598 C 0.89976 0.10398 0.67801 0.0
C599 C 0.91368 0.15572 0.68221 0.0
C600 C 0.95661 0.16995 0.70073 0.0
C601 C 0.98588 0.13245 0.715 0.0
H602 H 0.89112 0.18481 0.67117 0.0
H603 H 0.15679 0.81316 0.81152 0.0
H604 H 0.46287 0.42251 0.64915 0.0
H605 H 0.4679 0.42059 0.69735 0.0
H606 H 0.54863 0.5696 0.70034 0.0
H607 H 0.54532 0.57074 0.65206 0.0
H608 H 0.59873 0.51171 0.7348 0.0
H609 H 0.40517 0.55258 0.71331 0.0
H610 H 0.31086 0.54222 0.69101 0.0
H611 H 0.29058 0.39597 0.72675 0.0
H612 H 0.38518 0.40514 0.74899 0.0
H613 H 0.53524 0.57309 0.86913 0.0
H614 H 0.53658 0.57219 0.82078 0.0
H615 H 0.49606 0.41069 0.81862 0.0
H616 H 0.49534 0.41129 0.867 0.0
H617 H 0.42604 0.47486 0.78437 0.0
H618 H 0.62275 0.43897 0.80684 0.0
H619 H 0.71519 0.45561 0.82992 0.0
H620 H 0.72625 0.60159 0.79298 0.0
H621 H 0.63338 0.58615 0.76997 0.0
C622 C 0.48151 0.45485 0.66016 0.0
C623 C 0.50344 0.49688 0.647 0.0
C624 C 0.48426 0.45382 0.68766 0.0
C625 C 0.50776 0.49537 0.70249 0.0
C626 C 0.53029 0.53714 0.68932 0.0
C627 C 0.52835 0.5378 0.66179 0.0
C628 C 0.50887 0.49522 0.73172 0.0
C629 C 0.56077 0.50429 0.74561 0.0
C630 C 0.45951 0.48492 0.74588 0.0
C631 C 0.4025 0.47933 0.73261 0.0
C632 C 0.38078 0.51804 0.71626 0.0
C633 C 0.32725 0.51241 0.70365 0.0
C634 C 0.29481 0.46841 0.7074 0.0
C635 C 0.31579 0.43 0.72383 0.0
C636 C 0.36934 0.43542 0.73646 0.0
C637 C 0.52681 0.53745 0.85827 0.0
C638 C 0.51523 0.49224 0.87162 0.0
C639 C 0.52777 0.53694 0.83078 0.0
C640 C 0.51655 0.49134 0.8163 0.0
C641 C 0.50488 0.44617 0.82957 0.0
C642 C 0.50477 0.44649 0.85708 0.0
C643 C 0.51573 0.49113 0.78721 0.0
C644 C 0.46386 0.48215 0.77343 0.0
C645 C 0.56481 0.50244 0.77321 0.0
C646 C 0.62083 0.51162 0.78689 0.0
C647 C 0.64464 0.47482 0.80382 0.0
C648 C 0.69717 0.48399 0.81685 0.0
C649 C 0.72651 0.52968 0.81297 0.0
C650 C 0.70344 0.56624 0.79599 0.0
C651 C 0.65088 0.55728 0.78293 0.0
H652 H 0.76717 0.53671 0.82308 0.0
H653 H 0.25337 0.46412 0.69763 0.0
H654 H 0.44706 0.43198 0.34934 0.0
H655 H 0.45689 0.43161 0.3013 0.0
H656 H 0.53399 0.58187 0.30742 0.0
H657 H 0.52481 0.58219 0.35539 0.0
H658 H 0.44631 0.5688 0.26669 0.0
H659 H 0.61799 0.48821 0.30017 0.0
H660 H 0.67223 0.42431 0.32572 0.0
H661 H 0.59273 0.30252 0.27926 0.0
H662 H 0.53732 0.36574 0.25368 0.0
H663 H 0.54514 0.58975 0.13937 0.0
H664 H 0.54605 0.58662 0.18737 0.0
H665 H 0.50143 0.42601 0.18233 0.0
H666 H 0.50396 0.428 0.13429 0.0
H667 H 0.57224 0.44319 0.22294 0.0
H668 H 0.39973 0.51914 0.19003 0.0
H669 H 0.34101 0.57992 0.16446 0.0
H670 H 0.41486 0.70608 0.20972 0.0
H671 H 0.47466 0.64605 0.23531 0.0
C672 C 0.46558 0.46503 0.34032 0.0
C673 C 0.48529 0.50708 0.35589 0.0
C674 C 0.47148 0.46465 0.31303 0.0
C675 C 0.49652 0.50657 0.30101 0.0
C676 C 0.51471 0.54918 0.31645 0.0
C677 C 0.50961 0.54925 0.34374 0.0
C678 C 0.50422 0.50598 0.2723 0.0
C679 C 0.47434 0.54182 0.2571 0.0
C680 C 0.53959 0.46971 0.25991 0.0
C681 C 0.57304 0.43169 0.27521 0.0
C682 C 0.61166 0.44779 0.29557 0.0
C683 C 0.64271 0.4117 0.31002 0.0
C684 C 0.63581 0.35938 0.30417 0.0
C685 C 0.59796 0.34306 0.2838 0.0
C686 C 0.56675 0.379 0.26931 0.0
C687 C 0.53703 0.5534 0.14844 0.0
C688 C 0.5237 0.50927 0.13297 0.0
C689 C 0.53687 0.55184 0.17589 0.0
C690 C 0.5223 0.50642 0.18837 0.0
C691 C 0.51218 0.46161 0.17308 0.0
C692 C 0.51306 0.46296 0.14563 0.0
C693 C 0.51455 0.50635 0.21719 0.0
C694 C 0.54423 0.47029 0.23245 0.0
C695 C 0.47825 0.54195 0.22963 0.0
C696 C 0.44206 0.57814 0.21441 0.0
C697 C 0.40373 0.55987 0.1944 0.0
C698 C 0.37022 0.59418 0.17992 0.0
C699 C 0.37431 0.64684 0.18542 0.0
C700 C 0.41181 0.66528 0.20546 0.0
C701 C 0.44549 0.63114 0.21997 0.0
H702 H 0.34833 0.67334 0.17419 0.0
H703 H 0.6599 0.33149 0.31538 0.0
loop_
_geom_bond_atom_site_label_1
_geom_bond_atom_site_label_2
_geom_bond_distance
_geom_bond_site_symmetry_2
_ccdc_geom_bond_type
C0 O16 1.251 . S
C0 O18 1.254 1_554 S
N1 C2 1.333 1_445 S
N1 C6 1.307 . S
N1 Zn7 2.020 . S
C2 N1 1.333 1_665 S
C2 C3 1.379 . S
C2 H20 0.952 . S
C3 C2 1.379 . S
C3 C4 1.390 1_665 S
C3 H30 0.949 . S
C4 C3 1.390 1_445 S
C4 C5 1.357 . S
C5 C4 1.357 . S
C5 C6 1.370 . S
C5 H31 0.950 . S
C6 N1 1.307 . S
C6 C5 1.370 . S
C6 H24 0.948 . S
Zn7 N1 2.020 . S
Zn7 O16 2.039 1_445 S
Zn7 O22 2.034 1_455 S
Zn7 O26 2.025 . S
Zn7 O28 2.024 1_545 S
C8 O27 1.246 1_554 S
C8 O28 1.249 . S
N9 C10 1.307 1_445 S
N9 C11 1.333 . S
N9 Zn15 2.020 . S
C10 N9 1.307 1_665 S
C10 C14 1.370 . S
C10 H21 0.948 . S
C11 N9 1.333 . S
C11 C12 1.379 . S
C11 H19 0.952 . S
C12 C11 1.379 . S
C12 C13 1.390 . S
C12 H32 0.949 . S
C13 C12 1.390 . S
C13 C14 1.357 1_445 S
C14 C10 1.370 . S
C14 C13 1.357 1_665 S
C14 H33 0.950 . S
Zn15 N9 2.020 . S
Zn15 O18 2.025 1_445 S
Zn15 O23 2.024 1_455 S
Zn15 O25 2.039 . S
Zn15 O27 2.034 1_545 S
O16 C0 1.251 . S
O16 Zn7 2.039 1_665 S
C17 O22 1.246 . S
C17 O23 1.249 1_554 S
O18 C0 1.254 1_556 S
O18 Zn15 2.025 1_665 S
H19 C11 0.952 . S
H20 C2 0.952 . S
H21 C10 0.948 . S
O22 Zn7 2.034 1_655 S
O22 C17 1.246 . S
O23 Zn15 2.024 1_655 S
O23 C17 1.249 1_556 S
H24 C6 0.948 . S
O25 Zn15 2.039 . S
O25 C29 1.251 1_556 S
O26 Zn7 2.025 . S
O26 C29 1.254 . S
O27 C8 1.246 1_556 S
O27 Zn15 2.034 1_565 S
O28 Zn7 2.024 1_565 S
O28 C8 1.249 . S
C29 O25 1.251 1_554 S
C29 O26 1.254 . S
H30 C3 0.949 . S
H31 C5 0.950 . S
H32 C12 0.949 . S
H33 C14 0.950 . S
C34 O50 1.251 . S
C34 O52 1.254 . S
N35 C36 1.333 . S
N35 C40 1.307 . S
N35 Zn41 2.020 . S
C36 N35 1.333 . S
C36 C37 1.379 . S
C36 H54 0.952 . S
C37 C36 1.379 . S
C37 C38 1.390 . S
C37 H64 0.949 . S
C38 C37 1.390 . S
C38 C39 1.357 . S
C39 C38 1.357 . S
C39 C40 1.370 . S
C39 H65 0.950 . S
C40 N35 1.307 . S
C40 C39 1.370 . S
C40 H58 0.948 . S
Zn41 N35 2.020 . S
Zn41 O50 2.039 . S
Zn41 O56 2.034 . S
Zn41 O60 2.025 . S
Zn41 O62 2.024 . S
C42 O61 1.246 . S
C42 O62 1.249 . S
N43 C44 1.307 . S
N43 C45 1.333 . S
N43 Zn49 2.020 . S
C44 N43 1.307 . S
C44 C48 1.370 . S
C44 H55 0.948 . S
C45 N43 1.333 . S
C45 C46 1.379 . S
C45 H53 0.952 . S
C46 C45 1.379 . S
C46 C47 1.390 . S
C46 H66 0.949 . S
C47 C46 1.390 . S
C47 C48 1.357 . S
C48 C44 1.370 . S
C48 C47 1.357 . S
C48 H67 0.950 . S
Zn49 N43 2.020 . S
Zn49 O52 2.025 . S
Zn49 O57 2.024 . S
Zn49 O59 2.039 . S
Zn49 O61 2.034 . S
O50 C34 1.251 . S
O50 Zn41 2.039 . S
C51 O56 1.246 . S
C51 O57 1.249 . S
O52 C34 1.254 . S
O52 Zn49 2.025 . S
H53 C45 0.952 . S
H54 C36 0.952 . S
H55 C44 0.948 . S
O56 Zn41 2.034 . S
O56 C51 1.246 . S
O57 Zn49 2.024 . S
O57 C51 1.249 . S
H58 C40 0.948 . S
O59 Zn49 2.039 . S
O59 C63 1.251 . S
O60 Zn41 2.025 . S
O60 C63 1.254 . S
O61 C42 1.246 . S
O61 Zn49 2.034 . S
O62 Zn41 2.024 . S
O62 C42 1.249 . S
C63 O59 1.251 . S
C63 O60 1.254 . S
H64 C37 0.949 . S
H65 C39 0.950 . S
H66 C46 0.949 . S
H67 C48 0.950 . S
H68 C71 0.931 . S
H69 C74 0.928 . S
H70 C76 0.930 . S
C71 H68 0.931 . S
C71 C72 1.413 . S
C71 C73 1.369 1_545 S
C72 C71 1.413 . S
C72 C76 1.416 1_645 S
C73 C71 1.369 1_565 S
C73 C74 1.364 1_655 S
C74 H69 0.928 . S
C74 C73 1.364 1_455 S
C74 C75 1.404 . S
C75 C74 1.404 . S
C75 C76 1.404 . S
C76 H70 0.930 . S
C76 C72 1.416 1_465 S
C76 C75 1.404 . S
H77 C80 0.931 . S
H78 C83 0.928 . S
H79 C85 0.930 . S
C80 H77 0.931 . S
C80 C81 1.413 . S
C80 C82 1.360 1_665 S
C81 C80 1.413 . S
C81 C85 1.429 1_665 S
C82 C80 1.360 1_445 S
C82 C83 1.372 . S
C83 H78 0.928 . S
C83 C82 1.372 . S
C83 C84 1.404 . S
C84 C83 1.404 . S
C84 C85 1.391 . S
C85 H79 0.930 . S
C85 C81 1.429 1_445 S
C85 C84 1.391 . S
H86 C89 0.931 . S
H87 C92 0.928 . S
H88 C94 0.930 . S
C89 H86 0.931 . S
C89 C90 1.413 . S
C89 C91 1.360 . S
C90 C89 1.413 . S
C90 C94 1.429 . S
C91 C89 1.360 . S
C91 C92 1.372 . S
C92 H87 0.928 . S
C92 C91 1.372 . S
C92 C93 1.404 . S
C93 C92 1.404 . S
C93 C94 1.391 . S
C94 H88 0.930 . S
C94 C90 1.429 . S
C94 C93 1.391 . S
H95 C98 0.931 . S
H96 C101 0.928 . S
H97 C103 0.930 . S
C98 H95 0.931 . S
C98 C99 1.413 . S
C98 C100 1.360 . S
C99 C98 1.413 . S
C99 C103 1.429 . S
C100 C98 1.360 . S
C100 C101 1.372 . S
C101 H96 0.928 . S
C101 C100 1.372 . S
C101 C102 1.404 . S
C102 C101 1.404 . S
C102 C103 1.391 . S
C103 H97 0.930 . S
C103 C99 1.429 . S
C103 C102 1.391 . S
H104 C122 0.951 . S
H105 C124 0.951 . S
H106 C126 0.950 . S
H107 C127 0.950 . S
H108 C129 0.950 . S
H109 C132 0.950 1_556 S
H110 C133 0.951 1_556 S
H111 C135 0.950 . S
H112 C136 0.950 . S
H113 C137 0.951 . S
H114 C139 0.943 1_556 S
H115 C141 0.950 . S
H116 C142 0.950 . S
H117 C144 0.950 . S
H118 C147 0.950 . S
H119 C148 0.950 . S
H120 C150 0.950 . S
H121 C151 0.950 . S
C122 H104 0.951 . S
C122 C123 1.366 . S
C122 C124 1.388 . S
C123 C122 1.366 . S
C123 C127 1.385 1_554 S
C124 H105 0.951 . S
C124 C122 1.388 . S
C124 C125 1.366 . S
C125 C124 1.366 . S
C125 C126 1.414 1_554 S
C125 C128 1.499 . S
C126 H106 0.950 . S
C126 C125 1.414 1_556 S
C126 C127 1.374 . S
C127 H107 0.950 . S
C127 C123 1.385 1_556 S
C127 C126 1.374 . S
C128 C125 1.499 . S
C128 C129 1.373 . S
C128 C130 1.389 . S
C129 H108 0.950 . S
C129 C128 1.373 . S
C129 C145 1.377 . S
C130 C128 1.389 . S
C130 C131 1.524 . S
C130 C144 1.377 . S
C131 C130 1.524 . S
C131 C132 1.397 . S
C131 C136 1.363 . S
C132 H109 0.950 1_554 S
C132 C131 1.397 . S
C132 C133 1.334 . S
C133 H110 0.951 1_554 S
C133 C132 1.334 . S
C133 C134 1.287 . S
C134 C133 1.287 . S
C134 C135 1.524 . S
C134 H153 0.913 . S
C135 H111 0.950 . S
C135 C134 1.524 . S
C135 C136 1.415 . S
C136 H112 0.950 . S
C136 C131 1.363 . S
C136 C135 1.415 . S
C137 H113 0.951 . S
C137 C138 1.366 . S
C137 C139 1.388 . S
C138 C137 1.366 . S
C138 C142 1.385 . S
C139 H114 0.943 1_554 S
C139 C137 1.388 . S
C139 C140 1.366 . S
C140 C139 1.366 . S
C140 C141 1.414 . S
C140 C143 1.499 . S
C141 H115 0.950 . S
C141 C140 1.414 . S
C141 C142 1.374 . S
C142 H116 0.950 . S
C142 C138 1.385 . S
C142 C141 1.374 . S
C143 C140 1.499 . S
C143 C144 1.373 . S
C143 C145 1.389 . S
C144 H117 0.950 . S
C144 C130 1.377 . S
C144 C143 1.373 . S
C145 C129 1.377 . S
C145 C143 1.389 . S
C145 C146 1.524 . S
C146 C145 1.524 . S
C146 C147 1.397 . S
C146 C151 1.363 1_554 S
C147 H118 0.950 . S
C147 C146 1.397 . S
C147 C148 1.334 . S
C148 H119 0.950 . S
C148 C147 1.334 . S
C148 C149 1.287 . S
C149 C148 1.287 . S
C149 C150 1.524 1_554 S
C149 H152 0.999 . S
C150 H120 0.950 . S
C150 C149 1.524 1_556 S
C150 C151 1.415 . S
C151 H121 0.950 . S
C151 C146 1.363 1_556 S
C151 C150 1.415 . S
H152 C149 0.999 . S
H153 C134 0.913 . S
H154 C172 0.951 . S
H155 C174 0.951 . S
H156 C176 0.950 . S
H157 C177 0.950 . S
H158 C179 0.950 1_554 S
H159 C182 0.950 1_554 S
H160 C183 0.950 . S
H161 C185 0.950 . S
H162 C186 0.950 . S
H163 C187 0.951 . S
H164 C189 0.951 1_554 S
H165 C191 0.950 . S
H166 C192 0.950 . S
H167 C194 0.950 . S
H168 C197 0.950 . S
H169 C198 0.950 . S
H170 C200 0.950 . S
H171 C201 0.950 . S
C172 H154 0.951 . S
C172 C173 1.362 . S
C172 C174 1.388 . S
C173 C172 1.362 . S
C173 C177 1.388 1_556 S
C174 H155 0.951 . S
C174 C172 1.388 . S
C174 C175 1.366 . S
C175 C174 1.366 . S
C175 C176 1.414 1_556 S
C175 C178 1.499 . S
C176 H156 0.950 . S
C176 C175 1.414 1_554 S
C176 C177 1.374 . S
C177 H157 0.950 . S
C177 C173 1.388 1_554 S
C177 C176 1.374 . S
C178 C175 1.499 . S
C178 C179 1.373 . S
C178 C180 1.389 . S
C179 H158 0.950 1_556 S
C179 C178 1.373 . S
C179 C195 1.377 . S
C180 C178 1.389 . S
C180 C181 1.524 . S
C180 C194 1.377 . S
C181 C180 1.524 . S
C181 C182 1.397 . S
C181 C186 1.363 . S
C182 H159 0.950 1_556 S
C182 C181 1.397 . S
C182 C183 1.334 . S
C183 H160 0.950 . S
C183 C182 1.334 . S
C183 C184 1.287 . S
C184 C183 1.287 . S
C184 C185 1.524 . S
C184 H203 0.913 . S
C185 H161 0.950 . S
C185 C184 1.524 . S
C185 C186 1.415 . S
C186 H162 0.950 . S
C186 C181 1.363 . S
C186 C185 1.415 . S
C187 H163 0.951 . S
C187 C188 1.366 . S
C187 C189 1.388 . S
C188 C187 1.366 . S
C188 C192 1.385 . S
C189 H164 0.951 1_556 S
C189 C187 1.388 . S
C189 C190 1.366 . S
C190 C189 1.366 . S
C190 C191 1.414 . S
C190 C193 1.499 . S
C191 H165 0.950 . S
C191 C190 1.414 . S
C191 C192 1.374 . S
C192 H166 0.950 . S
C192 C188 1.385 . S
C192 C191 1.374 . S
C193 C190 1.499 . S
C193 C194 1.373 . S
C193 C195 1.389 . S
C194 H167 0.950 . S
C194 C180 1.377 . S
C194 C193 1.373 . S
C195 C179 1.377 . S
C195 C193 1.389 . S
C195 C196 1.524 . S
C196 C195 1.524 . S
C196 C197 1.397 . S
C196 C201 1.363 1_556 S
C197 H168 0.950 . S
C197 C196 1.397 . S
C197 C198 1.334 . S
C198 H169 0.950 . S
C198 C197 1.334 . S
C198 C199 1.287 . S
C199 C198 1.287 . S
C199 C200 1.524 1_556 S
C199 H202 0.999 1_556 S
C200 H170 0.950 . S
C200 C199 1.524 1_554 S
C200 C201 1.415 . S
C201 H171 0.950 . S
C201 C196 1.363 1_554 S
C201 C200 1.415 . S
H202 C199 0.999 1_554 S
H203 C184 0.913 . S
H204 C222 0.951 . S
H205 C224 0.951 . S
H206 C226 0.950 . S
H207 C227 0.950 . S
H208 C229 0.950 1_556 S
H209 C232 0.950 . S
H210 C233 0.950 . S
H211 C235 0.950 . S
H212 C236 0.950 . S
H213 C237 0.951 . S
H214 C239 0.951 . S
H215 C241 0.950 . S
H216 C242 0.950 . S
H217 C244 0.950 . S
H218 C247 0.950 . S
H219 C248 0.950 . S
H220 C250 0.950 . S
H221 C251 0.950 . S
C222 H204 0.951 . S
C222 C223 1.366 . S
C222 C224 1.388 . S
C223 C222 1.366 . S
C223 C227 1.385 . S
C224 H205 0.951 . S
C224 C222 1.388 . S
C224 C225 1.366 . S
C225 C224 1.366 . S
C225 C226 1.414 . S
C225 C228 1.499 . S
C226 H206 0.950 . S
C226 C225 1.414 . S
C226 C227 1.374 . S
C227 H207 0.950 . S
C227 C223 1.385 . S
C227 C226 1.374 . S
C228 C225 1.499 . S
C228 C229 1.373 . S
C228 C230 1.389 . S
C229 H208 0.950 1_554 S
C229 C228 1.373 . S
C229 C245 1.377 . S
C230 C228 1.389 . S
C230 C231 1.524 . S
C230 C244 1.377 . S
C231 C230 1.524 . S
C231 C232 1.397 . S
C231 C236 1.363 . S
C232 H209 0.950 . S
C232 C231 1.397 . S
C232 C233 1.334 . S
C233 H210 0.950 . S
C233 C232 1.334 . S
C233 C234 1.287 . S
C234 C233 1.287 . S
C234 C235 1.524 . S
C234 H253 0.913 . S
C235 H211 0.950 . S
C235 C234 1.524 . S
C235 C236 1.415 . S
C236 H212 0.950 . S
C236 C231 1.363 . S
C236 C235 1.415 . S
C237 H213 0.951 . S
C237 C238 1.366 . S
C237 C239 1.388 . S
C238 C237 1.366 . S
C238 C242 1.385 . S
C239 H214 0.951 . S
C239 C237 1.388 . S
C239 C240 1.366 . S
C240 C239 1.366 . S
C240 C241 1.414 . S
C240 C243 1.499 . S
C241 H215 0.950 . S
C241 C240 1.414 . S
C241 C242 1.374 . S
C242 H216 0.950 . S
C242 C238 1.385 . S
C242 C241 1.374 . S
C243 C240 1.499 . S
C243 C244 1.373 . S
C243 C245 1.389 . S
C244 H217 0.950 . S
C244 C230 1.377 . S
C244 C243 1.373 . S
C245 C229 1.377 . S
C245 C243 1.389 . S
C245 C246 1.524 1_554 S
C246 C245 1.524 1_556 S
C246 C247 1.397 . S
C246 C251 1.363 . S
C247 H218 0.950 . S
C247 C246 1.397 . S
C247 C248 1.334 . S
C248 H219 0.950 . S
C248 C247 1.334 . S
C248 C249 1.287 . S
C249 C248 1.287 . S
C249 C250 1.524 . S
C249 H252 0.999 . S
C250 H220 0.950 . S
C250 C249 1.524 . S
C250 C251 1.415 . S
C251 H221 0.950 . S
C251 C246 1.363 . S
C251 C250 1.415 . S
H252 C249 0.999 . S
H253 C234 0.913 . S
H254 C272 0.951 . S
H255 C274 0.951 . S
H256 C276 0.950 . S
H257 C277 0.950 . S
H258 C279 0.950 . S
H259 C282 0.950 . S
H260 C283 0.950 . S
H261 C285 0.950 . S
H262 C286 0.950 . S
H263 C287 0.951 . S
H264 C289 0.951 . S
H265 C291 0.950 . S
H266 C292 0.950 . S
H267 C294 0.950 . S
H268 C297 0.950 . S
H269 C298 0.950 . S
H270 C300 0.950 . S
H271 C301 0.950 . S
C272 H254 0.951 . S
C272 C273 1.378 . S
C272 C274 1.388 . S
C273 C272 1.378 . S
C273 C277 1.367 1_554 S
C274 H255 0.951 . S
C274 C272 1.388 . S
C274 C275 1.366 1_554 S
C275 C274 1.366 1_556 S
C275 C276 1.414 . S
C275 C278 1.499 . S
C276 H256 0.950 . S
C276 C275 1.414 . S
C276 C277 1.374 . S
C277 H257 0.950 . S
C277 C273 1.367 1_556 S
C277 C276 1.374 . S
C278 C275 1.499 . S
C278 C279 1.373 . S
C278 C280 1.389 . S
C279 H258 0.950 . S
C279 C278 1.373 . S
C279 C295 1.377 . S
C280 C278 1.389 . S
C280 C281 1.524 . S
C280 C294 1.377 . S
C281 C280 1.524 . S
C281 C282 1.397 . S
C281 C286 1.363 . S
C282 H259 0.950 . S
C282 C281 1.397 . S
C282 C283 1.334 . S
C283 H260 0.950 . S
C283 C282 1.334 . S
C283 C284 1.287 . S
C284 C283 1.287 . S
C284 C285 1.524 . S
C284 H303 0.913 . S
C285 H261 0.950 . S
C285 C284 1.524 . S
C285 C286 1.415 . S
C286 H262 0.950 . S
C286 C281 1.363 . S
C286 C285 1.415 . S
C287 H263 0.951 . S
C287 C288 1.366 . S
C287 C289 1.388 . S
C288 C287 1.366 . S
C288 C292 1.385 . S
C289 H264 0.951 . S
C289 C287 1.388 . S
C289 C290 1.366 . S
C290 C289 1.366 . S
C290 C291 1.414 . S
C290 C293 1.499 . S
C291 H265 0.950 . S
C291 C290 1.414 . S
C291 C292 1.374 . S
C292 H266 0.950 . S
C292 C288 1.385 . S
C292 C291 1.374 . S
C293 C290 1.499 . S
C293 C294 1.373 . S
C293 C295 1.389 . S
C294 H267 0.950 . S
C294 C280 1.377 . S
C294 C293 1.373 . S
C295 C279 1.377 . S
C295 C293 1.389 . S
C295 C296 1.524 . S
C296 C295 1.524 . S
C296 C297 1.397 1_556 S
C296 C301 1.363 . S
C297 H268 0.950 . S
C297 C296 1.397 1_554 S
C297 C298 1.334 . S
C298 H269 0.950 . S
C298 C297 1.334 . S
C298 C299 1.287 . S
C299 C298 1.287 . S
C299 C300 1.524 1_554 S
C299 H302 0.999 . S
C300 H270 0.950 . S
C300 C299 1.524 1_556 S
C300 C301 1.415 . S
C301 H271 0.950 . S
C301 C296 1.363 . S
C301 C300 1.415 . S
H302 C299 0.999 . S
H303 C284 0.913 . S
H304 C322 0.951 . S
H305 C324 0.951 . S
H306 C326 0.950 . S
H307 C327 0.950 . S
H308 C329 0.950 . S
H309 C332 0.950 . S
H310 C333 0.950 . S
H311 C335 0.950 . S
H312 C336 0.950 . S
H313 C337 0.951 . S
H314 C339 0.951 . S
H315 C341 0.950 . S
H316 C342 0.950 . S
H317 C344 0.950 . S
H318 C347 0.950 . S
H319 C348 0.950 . S
H320 C350 0.950 . S
H321 C351 0.950 . S
C322 H304 0.951 . S
C322 C323 1.366 . S
C322 C324 1.388 . S
C323 C322 1.366 . S
C323 C327 1.385 . S
C324 H305 0.951 . S
C324 C322 1.388 . S
C324 C325 1.366 . S
C325 C324 1.366 . S
C325 C326 1.414 . S
C325 C328 1.499 . S
C326 H306 0.950 . S
C326 C325 1.414 . S
C326 C327 1.374 . S
C327 H307 0.950 . S
C327 C323 1.385 . S
C327 C326 1.374 . S
C328 C325 1.499 . S
C328 C329 1.373 . S
C328 C330 1.389 . S
C329 H308 0.950 . S
C329 C328 1.373 . S
C329 C345 1.377 . S
C330 C328 1.389 . S
C330 C331 1.524 . S
C330 C344 1.377 . S
C331 C330 1.524 . S
C331 C332 1.397 . S
C331 C336 1.363 . S
C332 H309 0.950 . S
C332 C331 1.397 . S
C332 C333 1.334 . S
C333 H310 0.950 . S
C333 C332 1.334 . S
C333 C334 1.287 . S
C334 C333 1.287 . S
C334 C335 1.524 . S
C334 H353 0.913 . S
C335 H311 0.950 . S
C335 C334 1.524 . S
C335 C336 1.415 . S
C336 H312 0.950 . S
C336 C331 1.363 . S
C336 C335 1.415 . S
C337 H313 0.951 . S
C337 C338 1.366 . S
C337 C339 1.388 . S
C338 C337 1.366 . S
C338 C342 1.385 . S
C339 H314 0.951 . S
C339 C337 1.388 . S
C339 C340 1.366 . S
C340 C339 1.366 . S
C340 C341 1.414 . S
C340 C343 1.499 . S
C341 H315 0.950 . S
C341 C340 1.414 . S
C341 C342 1.374 . S
C342 H316 0.950 . S
C342 C338 1.385 . S
C342 C341 1.374 . S
C343 C340 1.499 . S
C343 C344 1.373 . S
C343 C345 1.389 . S
C344 H317 0.950 . S
C344 C330 1.377 . S
C344 C343 1.373 . S
C345 C329 1.377 . S
C345 C343 1.389 . S
C345 C346 1.524 . S
C346 C345 1.524 . S
C346 C347 1.397 . S
C346 C351 1.363 . S
C347 H318 0.950 . S
C347 C346 1.397 . S
C347 C348 1.334 . S
C348 H319 0.950 . S
C348 C347 1.334 . S
C348 C349 1.287 . S
C349 C348 1.287 . S
C349 C350 1.524 . S
C349 H352 0.999 . S
C350 H320 0.950 . S
C350 C349 1.524 . S
C350 C351 1.415 . S
C351 H321 0.950 . S
C351 C346 1.363 . S
C351 C350 1.415 . S
H352 C349 0.999 . S
H353 C334 0.913 . S
H354 C372 0.951 . S
H355 C374 0.951 . S
H356 C376 0.950 . S
H357 C377 0.950 . S
H358 C379 0.950 . S
H359 C382 0.950 . S
H360 C383 0.950 . S
H361 C385 0.950 . S
H362 C386 0.950 . S
H363 C387 0.951 . S
H364 C389 0.951 . S
H365 C391 0.950 . S
H366 C392 0.950 . S
H367 C394 0.950 . S
H368 C397 0.950 . S
H369 C398 0.950 . S
H370 C400 0.950 . S
H371 C401 0.950 . S
C372 H354 0.951 . S
C372 C373 1.366 . S
C372 C374 1.388 . S
C373 C372 1.366 . S
C373 C377 1.385 . S
C374 H355 0.951 . S
C374 C372 1.388 . S
C374 C375 1.366 . S
C375 C374 1.366 . S
C375 C376 1.414 . S
C375 C378 1.499 . S
C376 H356 0.950 . S
C376 C375 1.414 . S
C376 C377 1.374 . S
C377 H357 0.950 . S
C377 C373 1.385 . S
C377 C376 1.374 . S
C378 C375 1.499 . S
C378 C379 1.373 . S
C378 C380 1.389 . S
C379 H358 0.950 . S
C379 C378 1.373 . S
C379 C395 1.377 . S
C380 C378 1.389 . S
C380 C381 1.524 . S
C380 C394 1.377 . S
C381 C380 1.524 . S
C381 C382 1.397 . S
C381 C386 1.363 . S
C382 H359 0.950 . S
C382 C381 1.397 . S
C382 C383 1.334 . S
C383 H360 0.950 . S
C383 C382 1.334 . S
C383 C384 1.287 . S
C384 C383 1.287 . S
C384 C385 1.524 . S
C384 H403 0.913 . S
C385 H361 0.950 . S
C385 C384 1.524 . S
C385 C386 1.415 . S
C386 H362 0.950 . S
C386 C381 1.363 . S
C386 C385 1.415 . S
C387 H363 0.951 . S
C387 C388 1.366 . S
C387 C389 1.388 . S
C388 C387 1.366 . S
C388 C392 1.385 . S
C389 H364 0.951 . S
C389 C387 1.388 . S
C389 C390 1.366 . S
C390 C389 1.366 . S
C390 C391 1.414 . S
C390 C393 1.499 . S
C391 H365 0.950 . S
C391 C390 1.414 . S
C391 C392 1.374 . S
C392 H366 0.950 . S
C392 C388 1.385 . S
C392 C391 1.374 . S
C393 C390 1.499 . S
C393 C394 1.373 . S
C393 C395 1.389 . S
C394 H367 0.950 . S
C394 C380 1.377 . S
C394 C393 1.373 . S
C395 C379 1.377 . S
C395 C393 1.389 . S
C395 C396 1.524 . S
C396 C395 1.524 . S
C396 C397 1.397 . S
C396 C401 1.363 . S
C397 H368 0.950 . S
C397 C396 1.397 . S
C397 C398 1.334 . S
C398 H369 0.950 . S
C398 C397 1.334 . S
C398 C399 1.287 . S
C399 C398 1.287 . S
C399 C400 1.524 . S
C399 H402 0.999 . S
C400 H370 0.950 . S
C400 C399 1.524 . S
C400 C401 1.415 . S
C401 H371 0.950 . S
C401 C396 1.363 . S
C401 C400 1.415 . S
H402 C399 0.999 . S
H403 C384 0.913 . S
H404 C422 0.951 . S
H405 C424 0.951 . S
H406 C426 0.950 . S
H407 C427 0.950 . S
H408 C429 0.950 . S
H409 C432 0.950 . S
H410 C433 0.950 . S
H411 C435 0.950 . S
H412 C436 0.950 . S
H413 C437 0.951 . S
H414 C439 0.951 . S
H415 C441 0.950 . S
H416 C442 0.950 . S
H417 C444 0.950 . S
H418 C447 0.950 . S
H419 C448 0.950 . S
H420 C450 0.950 . S
H421 C451 0.950 . S
C422 H404 0.951 . S
C422 C423 1.366 . S
C422 C424 1.388 . S
C423 C422 1.366 . S
C423 C427 1.385 . S
C424 H405 0.951 . S
C424 C422 1.388 . S
C424 C425 1.366 . S
C425 C424 1.366 . S
C425 C426 1.414 . S
C425 C428 1.499 . S
C426 H406 0.950 . S
C426 C425 1.414 . S
C426 C427 1.374 . S
C427 H407 0.950 . S
C427 C423 1.385 . S
C427 C426 1.374 . S
C428 C425 1.499 . S
C428 C429 1.373 . S
C428 C430 1.389 . S
C429 H408 0.950 . S
C429 C428 1.373 . S
C429 C445 1.377 . S
C430 C428 1.389 . S
C430 C431 1.524 . S
C430 C444 1.377 . S
C431 C430 1.524 . S
C431 C432 1.397 . S
C431 C436 1.363 . S
C432 H409 0.950 . S
C432 C431 1.397 . S
C432 C433 1.334 . S
C433 H410 0.950 . S
C433 C432 1.334 . S
C433 C434 1.287 . S
C434 C433 1.287 . S
C434 C435 1.524 . S
C434 H453 0.913 . S
C435 H411 0.950 . S
C435 C434 1.524 . S
C435 C436 1.415 . S
C436 H412 0.950 . S
C436 C431 1.363 . S
C436 C435 1.415 . S
C437 H413 0.951 . S
C437 C438 1.366 . S
C437 C439 1.388 . S
C438 C437 1.366 . S
C438 C442 1.385 . S
C439 H414 0.951 . S
C439 C437 1.388 . S
C439 C440 1.366 . S
C440 C439 1.366 . S
C440 C441 1.414 . S
C440 C443 1.499 . S
C441 H415 0.950 . S
C441 C440 1.414 . S
C441 C442 1.374 . S
C442 H416 0.950 . S
C442 C438 1.385 . S
C442 C441 1.374 . S
C443 C440 1.499 . S
C443 C444 1.373 . S
C443 C445 1.389 . S
C444 H417 0.950 . S
C444 C430 1.377 . S
C444 C443 1.373 . S
C445 C429 1.377 . S
C445 C443 1.389 . S
C445 C446 1.524 . S
C446 C445 1.524 . S
C446 C447 1.397 . S
C446 C451 1.363 . S
C447 H418 0.950 . S
C447 C446 1.397 . S
C447 C448 1.334 . S
C448 H419 0.950 . S
C448 C447 1.334 . S
C448 C449 1.287 . S
C449 C448 1.287 . S
C449 C450 1.524 . S
C449 H452 0.999 . S
C450 H420 0.950 . S
C450 C449 1.524 . S
C450 C451 1.415 . S
C451 H421 0.950 . S
C451 C446 1.363 . S
C451 C450 1.415 . S
H452 C449 0.999 . S
H453 C434 0.913 . S
H454 C472 0.951 . S
H455 C474 0.951 . S
H456 C476 0.950 . S
H457 C477 0.950 . S
H458 C479 0.950 . S
H459 C482 0.950 . S
H460 C483 0.950 . S
H461 C485 0.950 . S
H462 C486 0.950 . S
H463 C487 0.951 . S
H464 C489 0.951 . S
H465 C491 0.950 . S
H466 C492 0.950 . S
H467 C494 0.950 . S
H468 C497 0.950 . S
H469 C498 0.950 . S
H470 C500 0.950 . S
H471 C501 0.950 . S
C472 H454 0.951 . S
C472 C473 1.366 . S
C472 C474 1.388 . S
C473 C472 1.366 . S
C473 C477 1.385 . S
C474 H455 0.951 . S
C474 C472 1.388 . S
C474 C475 1.366 . S
C475 C474 1.366 . S
C475 C476 1.414 . S
C475 C478 1.499 . S
C476 H456 0.950 . S
C476 C475 1.414 . S
C476 C477 1.374 . S
C477 H457 0.950 . S
C477 C473 1.385 . S
C477 C476 1.374 . S
C478 C475 1.499 . S
C478 C479 1.373 . S
C478 C480 1.389 . S
C479 H458 0.950 . S
C479 C478 1.373 . S
C479 C495 1.377 . S
C480 C478 1.389 . S
C480 C481 1.524 . S
C480 C494 1.377 . S
C481 C480 1.524 . S
C481 C482 1.397 . S
C481 C486 1.363 . S
C482 H459 0.950 . S
C482 C481 1.397 . S
C482 C483 1.334 . S
C483 H460 0.950 . S
C483 C482 1.334 . S
C483 C484 1.287 . S
C484 C483 1.287 . S
C484 C485 1.524 . S
C484 H503 0.913 . S
C485 H461 0.950 . S
C485 C484 1.524 . S
C485 C486 1.415 . S
C486 H462 0.950 . S
C486 C481 1.363 . S
C486 C485 1.415 . S
C487 H463 0.951 . S
C487 C488 1.366 . S
C487 C489 1.388 . S
C488 C487 1.366 . S
C488 C492 1.385 . S
C489 H464 0.951 . S
C489 C487 1.388 . S
C489 C490 1.366 . S
C490 C489 1.366 . S
C490 C491 1.414 . S
C490 C493 1.499 . S
C491 H465 0.950 . S
C491 C490 1.414 . S
C491 C492 1.374 . S
C492 H466 0.950 . S
C492 C488 1.385 . S
C492 C491 1.374 . S
C493 C490 1.499 . S
C493 C494 1.373 . S
C493 C495 1.389 . S
C494 H467 0.950 . S
C494 C480 1.377 . S
C494 C493 1.373 . S
C495 C479 1.377 . S
C495 C493 1.389 . S
C495 C496 1.524 . S
C496 C495 1.524 . S
C496 C497 1.397 . S
C496 C501 1.363 . S
C497 H468 0.950 . S
C497 C496 1.397 . S
C497 C498 1.334 . S
C498 H469 0.950 . S
C498 C497 1.334 . S
C498 C499 1.287 . S
C499 C498 1.287 . S
C499 C500 1.524 . S
C499 H502 0.999 . S
C500 H470 0.950 . S
C500 C499 1.524 . S
C500 C501 1.415 . S
C501 H471 0.950 . S
C501 C496 1.363 . S
C501 C500 1.415 . S
H502 C499 0.999 . S
H503 C484 0.913 . S
H504 C522 0.951 1_655 S
H505 C524 0.949 1_655 S
H506 C526 0.950 . S
H507 C527 0.950 . S
H508 C529 0.950 . S
H509 C532 0.950 . S
H510 C533 0.950 . S
H511 C535 0.950 . S
H512 C536 0.950 . S
H513 C537 0.951 . S
H514 C539 0.951 . S
H515 C541 0.950 . S
H516 C542 0.950 . S
H517 C544 0.950 . S
H518 C547 0.950 . S
H519 C548 0.950 . S
H520 C550 0.950 . S
H521 C551 0.950 . S
C522 H504 0.951 1_455 S
C522 C523 1.366 . S
C522 C524 1.388 . S
C523 C522 1.366 . S
C523 C527 1.385 1_545 S
C524 H505 0.949 1_455 S
C524 C522 1.388 . S
C524 C525 1.366 . S
C525 C524 1.366 . S
C525 C526 1.414 1_545 S
C525 C528 1.499 . S
C526 H506 0.950 . S
C526 C525 1.414 1_565 S
C526 C527 1.374 . S
C527 H507 0.950 . S
C527 C523 1.385 1_565 S
C527 C526 1.374 . S
C528 C525 1.499 . S
C528 C529 1.373 1_445 S
C528 C530 1.389 . S
C529 H508 0.950 . S
C529 C528 1.373 1_665 S
C529 C545 1.377 . S
C530 C528 1.389 . S
C530 C531 1.524 . S
C530 C544 1.377 . S
C531 C530 1.524 . S
C531 C532 1.397 . S
C531 C536 1.363 . S
C532 H509 0.950 . S
C532 C531 1.397 . S
C532 C533 1.334 . S
C533 H510 0.950 . S
C533 C532 1.334 . S
C533 C534 1.287 . S
C534 C533 1.287 . S
C534 C535 1.524 . S
C534 H553 0.913 . S
C535 H511 0.950 . S
C535 C534 1.524 . S
C535 C536 1.415 . S
C536 H512 0.950 . S
C536 C531 1.363 . S
C536 C535 1.415 . S
C537 H513 0.951 . S
C537 C538 1.366 1_465 S
C537 C539 1.388 . S
C538 C537 1.366 1_645 S
C538 C542 1.385 . S
C539 H514 0.951 . S
C539 C537 1.388 . S
C539 C540 1.366 1_465 S
C540 C539 1.366 1_645 S
C540 C541 1.414 . S
C540 C543 1.499 . S
C541 H515 0.950 . S
C541 C540 1.414 . S
C541 C542 1.374 . S
C542 H516 0.950 . S
C542 C538 1.385 . S
C542 C541 1.374 . S
C543 C540 1.499 . S
C543 C544 1.373 1_655 S
C543 C545 1.389 1_545 S
C544 H517 0.950 . S
C544 C530 1.377 . S
C544 C543 1.373 1_455 S
C545 C529 1.377 . S
C545 C543 1.389 1_565 S
C545 C546 1.524 . S
C546 C545 1.524 . S
C546 C547 1.397 . S
C546 C551 1.363 . S
C547 H518 0.950 . S
C547 C546 1.397 . S
C547 C548 1.334 . S
C548 H519 0.950 . S
C548 C547 1.334 . S
C548 C549 1.287 . S
C549 C548 1.287 . S
C549 C550 1.524 . S
C549 H552 0.999 . S
C550 H520 0.950 . S
C550 C549 1.524 . S
C550 C551 1.415 . S
C551 H521 0.950 . S
C551 C546 1.363 . S
C551 C550 1.415 . S
H552 C549 0.999 . S
H553 C534 0.913 . S
H554 C572 0.951 . S
H555 C574 0.951 . S
H556 C576 0.950 . S
H557 C577 0.950 . S
H558 C579 0.950 . S
H559 C582 0.950 . S
H560 C583 0.950 . S
H561 C585 0.941 1_655 S
H562 C586 0.950 . S
H563 C587 0.951 . S
H564 C589 0.951 . S
H565 C591 0.950 . S
H566 C592 0.950 . S
H567 C594 0.950 . S
H568 C597 0.950 . S
H569 C598 0.950 . S
H570 C600 0.950 . S
H571 C601 0.950 . S
C572 H554 0.951 . S
C572 C573 1.366 1_665 S
C572 C574 1.388 . S
C573 C572 1.366 1_445 S
C573 C577 1.385 . S
C574 H555 0.951 . S
C574 C572 1.388 . S
C574 C575 1.366 1_665 S
C575 C574 1.366 1_445 S
C575 C576 1.414 . S
C575 C578 1.499 . S
C576 H556 0.950 . S
C576 C575 1.414 . S
C576 C577 1.374 . S
C577 H557 0.950 . S
C577 C573 1.385 . S
C577 C576 1.374 . S
C578 C575 1.499 . S
C578 C579 1.373 . S
C578 C580 1.389 1_545 S
C579 H558 0.950 . S
C579 C578 1.373 . S
C579 C595 1.377 . S
C580 C578 1.389 1_565 S
C580 C581 1.524 . S
C580 C594 1.377 . S
C581 C580 1.524 . S
C581 C582 1.397 . S
C581 C586 1.363 1_455 S
C582 H559 0.950 . S
C582 C581 1.397 . S
C582 C583 1.334 . S
C583 H560 0.950 . S
C583 C582 1.334 . S
C583 C584 1.287 . S
C584 C583 1.287 . S
C584 C585 1.536 . S
C584 H603 0.913 . S
C585 H561 0.941 1_455 S
C585 C584 1.536 . S
C585 C586 1.413 1_455 S
C586 H562 0.950 . S
C586 C581 1.363 1_655 S
C586 C585 1.413 1_655 S
C587 H563 0.951 . S
C587 C588 1.366 . S
C587 C589 1.388 . S
C588 C587 1.366 . S
C588 C592 1.385 1_445 S
C589 H564 0.951 . S
C589 C587 1.388 . S
C589 C590 1.366 . S
C590 C589 1.366 . S
C590 C591 1.414 1_445 S
C590 C593 1.499 . S
C591 H565 0.950 . S
C591 C590 1.414 1_665 S
C591 C592 1.374 . S
C592 H566 0.950 . S
C592 C588 1.385 1_665 S
C592 C591 1.374 . S
C593 C590 1.499 . S
C593 C594 1.373 1_545 S
C593 C595 1.389 . S
C594 H567 0.950 . S
C594 C580 1.377 . S
C594 C593 1.373 1_565 S
C595 C579 1.377 . S
C595 C593 1.389 . S
C595 C596 1.524 . S
C596 C595 1.524 . S
C596 C597 1.397 1_455 S
C596 C601 1.363 . S
C597 H568 0.950 . S
C597 C596 1.397 1_655 S
C597 C598 1.334 . S
C598 H569 0.950 . S
C598 C597 1.334 . S
C598 C599 1.287 . S
C599 C598 1.287 . S
C599 C600 1.524 1_655 S
C599 H602 0.999 . S
C600 H570 0.950 . S
C600 C599 1.524 1_455 S
C600 C601 1.415 . S
C601 H571 0.950 . S
C601 C596 1.363 . S
C601 C600 1.415 . S
H602 C599 0.999 . S
H603 C584 0.913 . S
H604 C622 0.951 . S
H605 C624 0.951 . S
H606 C626 0.950 . S
H607 C627 0.950 . S
H608 C629 0.950 . S
H609 C632 0.950 . S
H610 C633 0.950 . S
H611 C635 0.950 . S
H612 C636 0.950 . S
H613 C637 0.951 . S
H614 C639 0.951 . S
H615 C641 0.950 . S
H616 C642 0.950 . S
H617 C644 0.950 . S
H618 C647 0.950 . S
H619 C648 0.950 . S
H620 C650 0.950 . S
H621 C651 0.950 . S
C622 H604 0.951 . S
C622 C623 1.366 . S
C622 C624 1.388 . S
C623 C622 1.366 . S
C623 C627 1.385 . S
C624 H605 0.951 . S
C624 C622 1.388 . S
C624 C625 1.366 . S
C625 C624 1.366 . S
C625 C626 1.414 . S
C625 C628 1.499 . S
C626 H606 0.950 . S
C626 C625 1.414 . S
C626 C627 1.374 . S
C627 H607 0.950 . S
C627 C623 1.385 . S
C627 C626 1.374 . S
C628 C625 1.499 . S
C628 C629 1.373 . S
C628 C630 1.389 . S
C629 H608 0.950 . S
C629 C628 1.373 . S
C629 C645 1.377 . S
C630 C628 1.389 . S
C630 C631 1.524 . S
C630 C644 1.377 . S
C631 C630 1.524 . S
C631 C632 1.397 . S
C631 C636 1.363 . S
C632 H609 0.950 . S
C632 C631 1.397 . S
C632 C633 1.334 . S
C633 H610 0.950 . S
C633 C632 1.334 . S
C633 C634 1.287 . S
C634 C633 1.287 . S
C634 C635 1.524 . S
C634 H653 0.913 . S
C635 H611 0.950 . S
C635 C634 1.524 . S
C635 C636 1.415 . S
C636 H612 0.950 . S
C636 C631 1.363 . S
C636 C635 1.415 . S
C637 H613 0.951 . S
C637 C638 1.366 . S
C637 C639 1.388 . S
C638 C637 1.366 . S
C638 C642 1.385 . S
C639 H614 0.951 . S
C639 C637 1.388 . S
C639 C640 1.366 . S
C640 C639 1.366 . S
C640 C641 1.414 . S
C640 C643 1.499 . S
C641 H615 0.950 . S
C641 C640 1.414 . S
C641 C642 1.374 . S
C642 H616 0.950 . S
C642 C638 1.385 . S
C642 C641 1.374 . S
C643 C640 1.499 . S
C643 C644 1.373 . S
C643 C645 1.389 . S
C644 H617 0.950 . S
C644 C630 1.377 . S
C644 C643 1.373 . S
C645 C629 1.377 . S
C645 C643 1.389 . S
C645 C646 1.524 . S
C646 C645 1.524 . S
C646 C647 1.397 . S
C646 C651 1.363 . S
C647 H618 0.950 . S
C647 C646 1.397 . S
C647 C648 1.334 . S
C648 H619 0.950 . S
C648 C647 1.334 . S
C648 C649 1.287 . S
C649 C648 1.287 . S
C649 C650 1.524 . S
C649 H652 0.999 . S
C650 H620 0.950 . S
C650 C649 1.524 . S
C650 C651 1.415 . S
C651 H621 0.950 . S
C651 C646 1.363 . S
C651 C650 1.415 . S
H652 C649 0.999 . S
H653 C634 0.913 . S
H654 C672 0.951 . S
H655 C674 0.951 . S
H656 C676 0.950 . S
H657 C677 0.950 . S
H658 C679 0.950 . S
H659 C682 0.950 . S
H660 C683 0.950 . S
H661 C685 0.950 . S
H662 C686 0.950 . S
H663 C687 0.951 . S
H664 C689 0.951 . S
H665 C691 0.950 . S
H666 C692 0.950 . S
H667 C694 0.950 . S
H668 C697 0.950 . S
H669 C698 0.950 . S
H670 C700 0.950 . S
H671 C701 0.950 . S
C672 H654 0.951 . S
C672 C673 1.366 . S
C672 C674 1.388 . S
C673 C672 1.366 . S
C673 C677 1.385 . S
C674 H655 0.951 . S
C674 C672 1.388 . S
C674 C675 1.366 . S
C675 C674 1.366 . S
C675 C676 1.414 . S
C675 C678 1.499 . S
C676 H656 0.950 . S
C676 C675 1.414 . S
C676 C677 1.374 . S
C677 H657 0.950 . S
C677 C673 1.385 . S
C677 C676 1.374 . S
C678 C675 1.499 . S
C678 C679 1.373 . S
C678 C680 1.389 . S
C679 H658 0.950 . S
C679 C678 1.373 . S
C679 C695 1.377 . S
C680 C678 1.389 . S
C680 C681 1.524 . S
C680 C694 1.377 . S
C681 C680 1.524 . S
C681 C682 1.397 . S
C681 C686 1.363 . S
C682 H659 0.950 . S
C682 C681 1.397 . S
C682 C683 1.334 . S
C683 H660 0.950 . S
C683 C682 1.334 . S
C683 C684 1.287 . S
C684 C683 1.287 . S
C684 C685 1.524 . S
C684 H703 0.913 . S
C685 H661 0.950 . S
C685 C684 1.524 . S
C685 C686 1.415 . S
C686 H662 0.950 . S
C686 C681 1.363 . S
C686 C685 1.415 . S
C687 H663 0.951 . S
C687 C688 1.366 . S
C687 C689 1.388 . S
C688 C687 1.366 . S
C688 C692 1.385 . S
C689 H664 0.951 . S
C689 C687 1.388 . S
C689 C690 1.366 . S
C690 C689 1.366 . S
C690 C691 1.414 . S
C690 C693 1.499 . S
C691 H665 0.950 . S
C691 C690 1.414 . S
C691 C692 1.374 . S
C692 H666 0.950 . S
C692 C688 1.385 . S
C692 C691 1.374 . S
C693 C690 1.499 . S
C693 C694 1.373 . S
C693 C695 1.389 . S
C694 H667 0.950 . S
C694 C680 1.377 . S
C694 C693 1.373 . S
C695 C679 1.377 . S
C695 C693 1.389 . S
C695 C696 1.524 . S
C696 C695 1.524 . S
C696 C697 1.397 . S
C696 C701 1.363 . S
C697 H668 0.950 . S
C697 C696 1.397 . S
C697 C698 1.334 . S
C698 H669 0.950 . S
C698 C697 1.334 . S
C698 C699 1.287 . S
C699 C698 1.287 . S
C699 C700 1.524 . S
C699 H702 0.999 . S
C700 H670 0.950 . S
C700 C699 1.524 . S
C700 C701 1.415 . S
C701 H671 0.950 . S
C701 C696 1.363 . S
C701 C700 1.415 . S
H702 C699 0.999 . S
H703 C684 0.913 . S
C138 C99 1.291 . S
C123 C29 1.302 . S
C173 C8 1.311 1_556 S
C188 C90 1.298 . S
C223 C0 1.308 . S
C238 C102 1.294 . S
C273 C17 1.301 . S
C288 C93 1.289 . S
C323 C63 1.302 . S
C338 C81 1.291 . S
C373 C42 1.310 . S
C388 C72 1.298 . S
C438 C84 1.294 . S
C423 C34 1.308 . S
C488 C75 1.289 . S
C473 C51 1.300 . S
C523 C4 1.485 . S
C538 C73 1.485 1_545 S
C573 C13 1.483 . S
C588 C82 1.485 . S
C638 C91 1.486 . S
C623 C38 1.484 . S
C673 C47 1.483 . S
C688 C100 1.485 . S
