# Generated by pormake.
# Topology ptr, (4,4)-cn, num edge types: 1
# Building blocks:
#     Node 0, Type 0, BuildingBlock: GALJAG_clean_sbu_0, # of connection points: 4
#     Node 1, Type 0, BuildingBlock: GALJAG_clean_sbu_0, # of connection points: 4
#     Node 2, Type 0, BuildingBlock: GALJAG_clean_sbu_0, # of connection points: 4
#     Node 3, Type 0, BuildingBlock: GALJAG_clean_sbu_0, # of connection points: 4
#     Node 4, Type 0, BuildingBlock: GALJAG_clean_sbu_0, # of connection points: 4
#     Node 5, Type 0, BuildingBlock: GALJAG_clean_sbu_0, # of connection points: 4
#     Node 6, Type 0, BuildingBlock: GALJAG_clean_sbu_0, # of connection points: 4
#     Node 7, Type 0, BuildingBlock: GALJAG_clean_sbu_0, # of connection points: 4
#     Node 8, Type 0, BuildingBlock: GALJAG_clean_sbu_0, # of connection points: 4
#     Node 9, Type 0, BuildingBlock: GALJAG_clean_sbu_0, # of connection points: 4
#     Node 10, Type 0, BuildingBlock: GALJAG_clean_sbu_0, # of connection points: 4
#     Node 11, Type 0, BuildingBlock: GALJAG_clean_sbu_0, # of connection points: 4
#     Node 12, Type 0, BuildingBlock: GALJAG_clean_sbu_0, # of connection points: 4
#     Node 13, Type 0, BuildingBlock: GALJAG_clean_sbu_0, # of connection points: 4
#     Node 14, Type 0, BuildingBlock: GALJAG_clean_sbu_0, # of connection points: 4
#     Node 15, Type 0, BuildingBlock: GALJAG_clean_sbu_0, # of connection points: 4
#     Node 16, Type 0, BuildingBlock: GALJAG_clean_sbu_0, # of connection points: 4
#     Node 17, Type 0, BuildingBlock: GALJAG_clean_sbu_0, # of connection points: 4
#     Node 18, Type 1, BuildingBlock: AZAVOO_clean_linker_0, # of connection points: 4
#     Node 19, Type 1, BuildingBlock: AZAVOO_clean_linker_0, # of connection points: 4
#     Node 20, Type 1, BuildingBlock: AZAVOO_clean_linker_0, # of connection points: 4
#     Node 21, Type 1, BuildingBlock: AZAVOO_clean_linker_0, # of connection points: 4
#     Node 22, Type 1, BuildingBlock: AZAVOO_clean_linker_0, # of connection points: 4
#     Node 23, Type 1, BuildingBlock: AZAVOO_clean_linker_0, # of connection points: 4
#     Node 24, Type 1, BuildingBlock: AZAVOO_clean_linker_0, # of connection points: 4
#     Node 25, Type 1, BuildingBlock: AZAVOO_clean_linker_0, # of connection points: 4
#     Node 26, Type 1, BuildingBlock: AZAVOO_clean_linker_0, # of connection points: 4
#     Node 27, Type 1, BuildingBlock: AZAVOO_clean_linker_0, # of connection points: 4
#     Node 28, Type 1, BuildingBlock: AZAVOO_clean_linker_0, # of connection points: 4
#     Node 29, Type 1, BuildingBlock: AZAVOO_clean_linker_0, # of connection points: 4
#     Node 30, Type 1, BuildingBlock: AZAVOO_clean_linker_0, # of connection points: 4
#     Node 31, Type 1, BuildingBlock: AZAVOO_clean_linker_0, # of connection points: 4
#     Node 32, Type 1, BuildingBlock: AZAVOO_clean_linker_0, # of connection points: 4
#     Node 33, Type 1, BuildingBlock: AZAVOO_clean_linker_0, # of connection points: 4
#     Node 34, Type 1, BuildingBlock: AZAVOO_clean_linker_0, # of connection points: 4
#     Node 35, Type 1, BuildingBlock: AZAVOO_clean_linker_0, # of connection points: 4
#     Edge 36, Type (0, 1), BuildingBlock: TEMPAE_clean_linker_10, # of connection points: 2
#     Edge 37, Type (0, 1), BuildingBlock: TEMPAE_clean_linker_10, # of connection points: 2
#     Edge 38, Type (0, 1), BuildingBlock: TEMPAE_clean_linker_10, # of connection points: 2
#     Edge 39, Type (0, 1), BuildingBlock: TEMPAE_clean_linker_10, # of connection points: 2
#     Edge 40, Type (0, 1), BuildingBlock: TEMPAE_clean_linker_10, # of connection points: 2
#     Edge 41, Type (0, 1), BuildingBlock: TEMPAE_clean_linker_10, # of connection points: 2
#     Edge 42, Type (0, 1), BuildingBlock: TEMPAE_clean_linker_10, # of connection points: 2
#     Edge 43, Type (0, 1), BuildingBlock: TEMPAE_clean_linker_10, # of connection points: 2
#     Edge 44, Type (0, 1), BuildingBlock: TEMPAE_clean_linker_10, # of connection points: 2
#     Edge 45, Type (0, 1), BuildingBlock: TEMPAE_clean_linker_10, # of connection points: 2
#     Edge 46, Type (0, 1), BuildingBlock: TEMPAE_clean_linker_10, # of connection points: 2
#     Edge 47, Type (0, 1), BuildingBlock: TEMPAE_clean_linker_10, # of connection points: 2
#     Edge 48, Type (0, 1), BuildingBlock: TEMPAE_clean_linker_10, # of connection points: 2
#     Edge 49, Type (0, 1), BuildingBlock: TEMPAE_clean_linker_10, # of connection points: 2
#     Edge 50, Type (0, 1), BuildingBlock: TEMPAE_clean_linker_10, # of connection points: 2
#     Edge 51, Type (0, 1), BuildingBlock: TEMPAE_clean_linker_10, # of connection points: 2
#     Edge 52, Type (0, 1), BuildingBlock: TEMPAE_clean_linker_10, # of connection points: 2
#     Edge 53, Type (0, 1), BuildingBlock: TEMPAE_clean_linker_10, # of connection points: 2
#     Edge 54, Type (0, 1), BuildingBlock: TEMPAE_clean_linker_10, # of connection points: 2
#     Edge 55, Type (0, 1), BuildingBlock: TEMPAE_clean_linker_10, # of connection points: 2
#     Edge 56, Type (0, 1), BuildingBlock: TEMPAE_clean_linker_10, # of connection points: 2
#     Edge 57, Type (0, 1), BuildingBlock: TEMPAE_clean_linker_10, # of connection points: 2
#     Edge 58, Type (0, 1), BuildingBlock: TEMPAE_clean_linker_10, # of connection points: 2
#     Edge 59, Type (0, 1), BuildingBlock: TEMPAE_clean_linker_10, # of connection points: 2
#     Edge 60, Type (0, 1), BuildingBlock: TEMPAE_clean_linker_10, # of connection points: 2
#     Edge 61, Type (0, 1), BuildingBlock: TEMPAE_clean_linker_10, # of connection points: 2
#     Edge 62, Type (0, 1), BuildingBlock: TEMPAE_clean_linker_10, # of connection points: 2
#     Edge 63, Type (0, 1), BuildingBlock: TEMPAE_clean_linker_10, # of connection points: 2
#     Edge 64, Type (0, 1), BuildingBlock: TEMPAE_clean_linker_10, # of connection points: 2
#     Edge 65, Type (0, 1), BuildingBlock: TEMPAE_clean_linker_10, # of connection points: 2
#     Edge 66, Type (0, 1), BuildingBlock: TEMPAE_clean_linker_10, # of connection points: 2
#     Edge 67, Type (0, 1), BuildingBlock: TEMPAE_clean_linker_10, # of connection points: 2
#     Edge 68, Type (0, 1), BuildingBlock: TEMPAE_clean_linker_10, # of connection points: 2
#     Edge 69, Type (0, 1), BuildingBlock: TEMPAE_clean_linker_10, # of connection points: 2
#     Edge 70, Type (0, 1), BuildingBlock: TEMPAE_clean_linker_10, # of connection points: 2
#     Edge 71, Type (0, 1), BuildingBlock: TEMPAE_clean_linker_10, # of connection points: 2
#     Edge 72, Type (0, 1), BuildingBlock: TEMPAE_clean_linker_10, # of connection points: 2
#     Edge 73, Type (0, 1), BuildingBlock: TEMPAE_clean_linker_10, # of connection points: 2
#     Edge 74, Type (0, 1), BuildingBlock: TEMPAE_clean_linker_10, # of connection points: 2
#     Edge 75, Type (0, 1), BuildingBlock: TEMPAE_clean_linker_10, # of connection points: 2
#     Edge 76, Type (0, 1), BuildingBlock: TEMPAE_clean_linker_10, # of connection points: 2
#     Edge 77, Type (0, 1), BuildingBlock: TEMPAE_clean_linker_10, # of connection points: 2
#     Edge 78, Type (0, 1), BuildingBlock: TEMPAE_clean_linker_10, # of connection points: 2
#     Edge 79, Type (0, 1), BuildingBlock: TEMPAE_clean_linker_10, # of connection points: 2
#     Edge 80, Type (0, 1), BuildingBlock: TEMPAE_clean_linker_10, # of connection points: 2
#     Edge 81, Type (0, 1), BuildingBlock: TEMPAE_clean_linker_10, # of connection points: 2
#     Edge 82, Type (0, 1), BuildingBlock: TEMPAE_clean_linker_10, # of connection points: 2
#     Edge 83, Type (0, 1), BuildingBlock: TEMPAE_clean_linker_10, # of connection points: 2
#     Edge 84, Type (0, 1), BuildingBlock: TEMPAE_clean_linker_10, # of connection points: 2
#     Edge 85, Type (0, 1), BuildingBlock: TEMPAE_clean_linker_10, # of connection points: 2
#     Edge 86, Type (0, 1), BuildingBlock: TEMPAE_clean_linker_10, # of connection points: 2
#     Edge 87, Type (0, 1), BuildingBlock: TEMPAE_clean_linker_10, # of connection points: 2
#     Edge 88, Type (0, 1), BuildingBlock: TEMPAE_clean_linker_10, # of connection points: 2
#     Edge 89, Type (0, 1), BuildingBlock: TEMPAE_clean_linker_10, # of connection points: 2
#     Edge 90, Type (0, 1), BuildingBlock: TEMPAE_clean_linker_10, # of connection points: 2
#     Edge 91, Type (0, 1), BuildingBlock: TEMPAE_clean_linker_10, # of connection points: 2
#     Edge 92, Type (0, 1), BuildingBlock: TEMPAE_clean_linker_10, # of connection points: 2
#     Edge 93, Type (0, 1), BuildingBlock: TEMPAE_clean_linker_10, # of connection points: 2
#     Edge 94, Type (0, 1), BuildingBlock: TEMPAE_clean_linker_10, # of connection points: 2
#     Edge 95, Type (0, 1), BuildingBlock: TEMPAE_clean_linker_10, # of connection points: 2
#     Edge 96, Type (0, 1), BuildingBlock: TEMPAE_clean_linker_10, # of connection points: 2
#     Edge 97, Type (0, 1), BuildingBlock: TEMPAE_clean_linker_10, # of connection points: 2
#     Edge 98, Type (0, 1), BuildingBlock: TEMPAE_clean_linker_10, # of connection points: 2
#     Edge 99, Type (0, 1), BuildingBlock: TEMPAE_clean_linker_10, # of connection points: 2
#     Edge 100, Type (0, 1), BuildingBlock: TEMPAE_clean_linker_10, # of connection points: 2
#     Edge 101, Type (0, 1), BuildingBlock: TEMPAE_clean_linker_10, # of connection points: 2
#     Edge 102, Type (0, 1), BuildingBlock: TEMPAE_clean_linker_10, # of connection points: 2
#     Edge 103, Type (0, 1), BuildingBlock: TEMPAE_clean_linker_10, # of connection points: 2
#     Edge 104, Type (0, 1), BuildingBlock: TEMPAE_clean_linker_10, # of connection points: 2
#     Edge 105, Type (0, 1), BuildingBlock: TEMPAE_clean_linker_10, # of connection points: 2
#     Edge 106, Type (0, 1), BuildingBlock: TEMPAE_clean_linker_10, # of connection points: 2
#     Edge 107, Type (0, 1), BuildingBlock: TEMPAE_clean_linker_10, # of connection points: 2
# Relax obj value: 0.032
# Max RMSD: 0.163
# Mean RMSD: 0.100
data_MOF--net-ptr--node1-GALJAG_clean_sbu_0--node2-AZAVOO_clean_linker_0--edge1-TEMPAE_clean_linker_10
_symmetry_space_group_name_H-M    P1
_symmetry_Int_Tables_number       1
_symmetry_cell_setting            triclinic
loop_
_symmetry_equiv_pos_as_xyz
'x, y, z'
_cell_length_a     81.325043
_cell_length_b     79.812886
_cell_length_c     73.03493
_cell_angle_alpha  92.646698
_cell_angle_beta   92.435181
_cell_angle_gamma 120.17636
loop_
_atom_site_label
_atom_site_type_symbol
_atom_site_fract_x
_atom_site_fract_y
_atom_site_fract_z
_atom_type_partial_charge
In0 In 0.00371 0.36127 0.01454 0.0
O1 O 0.98362 0.36434 0.03361 0.0
O2 O 0.0116 0.38851 0.03268 0.0
C3 C 0.98006 0.32644 0.99654 0.0
C4 C 0.02631 0.35273 0.03535 0.0
C5 C 0.01146 0.38392 0.98624 0.0
O6 O 0.9744 0.33441 0.00802 0.0
O7 O 0.99767 0.33601 0.99427 0.0
O8 O 0.02451 0.38374 0.99613 0.0
O9 O 0.99476 0.37272 0.99067 0.0
C10 C 0.99568 0.3816 0.03947 0.0
O11 O 0.03229 0.36319 0.02195 0.0
O12 O 0.00909 0.34668 0.03809 0.0
In13 In 0.62553 0.61631 0.05473 0.0
O14 O 0.6251 0.59449 0.07445 0.0
O15 O 0.60123 0.59856 0.07227 0.0
C16 C 0.65679 0.62523 0.03675 0.0
C17 C 0.63669 0.64968 0.07533 0.0
C18 C 0.60059 0.60202 0.02482 0.0
O19 O 0.65079 0.6124 0.04824 0.0
O20 O 0.64705 0.63336 0.03452 0.0
O21 O 0.60573 0.61836 0.03306 0.0
O22 O 0.60777 0.59279 0.0319 0.0
C23 C 0.60885 0.58993 0.07969 0.0
O24 O 0.62089 0.64069 0.06589 0.0
O25 O 0.64671 0.64176 0.07451 0.0
In26 In 0.38334 0.9983 0.01528 0.0
O27 O 0.38575 0.02816 0.01575 0.0
O28 O 0.36703 0.00634 0.99509 0.0
C29 C 0.40769 0.00285 0.04378 0.0
C30 C 0.39948 0.99179 0.98634 0.0
C31 C 0.35055 0.97546 0.03058 0.0
O32 O 0.40819 0.01719 0.03659 0.0
O33 O 0.3953 0.98641 0.0363 0.0
O34 O 0.35605 0.96902 0.01748 0.0
O35 O 0.36152 0.99318 0.03569 0.0
C36 C 0.37381 0.02348 0.00208 0.0
O37 O 0.38321 0.97915 0.9908 0.0
O38 O 0.40755 0.00731 0.99668 0.0
In39 In 0.99504 0.63484 0.04163 0.0
O40 O 0.01606 0.63028 0.02532 0.0
O41 O 0.98645 0.60935 0.0208 0.0
C42 C 0.01882 0.67083 0.05745 0.0
C43 C 0.97236 0.64293 0.0205 0.0
C44 C 0.98712 0.61213 0.0701 0.0
O45 O 0.02451 0.66184 0.04725 0.0
O46 O 0.00115 0.66174 0.05944 0.0
O47 O 0.97409 0.61095 0.05912 0.0
O48 O 0.00376 0.62464 0.06667 0.0
C49 C 0.00321 0.61478 0.01663 0.0
O50 O 0.96776 0.63609 0.03597 0.0
O51 O 0.98827 0.64572 0.01592 0.0
In52 In 0.37191 0.38069 0.99913 0.0
O53 O 0.37533 0.40509 0.98125 0.0
O54 O 0.39528 0.39539 0.97981 0.0
C55 C 0.33955 0.37059 0.0156 0.0
C56 C 0.35977 0.34739 0.97828 0.0
C57 C 0.39661 0.3947 0.02933 0.0
O58 O 0.34721 0.38529 0.00629 0.0
O59 O 0.34815 0.36115 0.01637 0.0
O60 O 0.39392 0.38011 0.01929 0.0
O61 O 0.38717 0.40236 0.0239 0.0
C62 C 0.38989 0.40665 0.97413 0.0
O63 O 0.37338 0.35377 0.99057 0.0
O64 O 0.35236 0.3579 0.97646 0.0
In65 In 0.61606 0.00272 0.03973 0.0
O66 O 0.61233 0.02231 0.0612 0.0
O67 O 0.59814 0.9919 0.06408 0.0
C68 C 0.64626 0.02918 0.02294 0.0
C69 C 0.62951 0.97981 0.05073 0.0
C70 C 0.5881 0.9923 0.01293 0.0
O71 O 0.64416 0.03188 0.03967 0.0
O72 O 0.63307 0.01355 0.01489 0.0
O73 O 0.59605 0.98243 0.01574 0.0
O74 O 0.59381 0.00706 0.02407 0.0
C75 C 0.60159 0.00839 0.07047 0.0
O76 O 0.61322 0.97296 0.04241 0.0
O77 O 0.63889 0.99808 0.05336 0.0
In78 In 0.66786 0.69659 0.34714 0.0
O79 O 0.64745 0.69875 0.36631 0.0
O80 O 0.6759 0.72256 0.3673 0.0
C81 C 0.64383 0.66265 0.32773 0.0
C82 C 0.69008 0.68734 0.36774 0.0
C83 C 0.67681 0.72088 0.32004 0.0
O84 O 0.63832 0.67029 0.33968 0.0
O85 O 0.66145 0.67215 0.32558 0.0
O86 O 0.68847 0.7164 0.32695 0.0
O87 O 0.66085 0.71314 0.32684 0.0
C88 C 0.65966 0.71542 0.37349 0.0
O89 O 0.69678 0.69996 0.35614 0.0
O90 O 0.67232 0.67945 0.36879 0.0
In91 In 0.29219 0.94924 0.38894 0.0
O92 O 0.29233 0.92903 0.41029 0.0
O93 O 0.2678 0.93181 0.40651 0.0
C94 C 0.32245 0.95523 0.37058 0.0
C95 C 0.30389 0.98354 0.40819 0.0
C96 C 0.26695 0.93489 0.35923 0.0
O97 O 0.31615 0.94313 0.38272 0.0
O98 O 0.3136 0.96423 0.368 0.0
O99 O 0.27319 0.95179 0.3667 0.0
O100 O 0.27315 0.92513 0.36701 0.0
C101 C 0.27584 0.92416 0.41501 0.0
O102 O 0.28744 0.97355 0.40013 0.0
O103 O 0.3144 0.97623 0.40661 0.0
In104 In 0.05615 0.33015 0.34936 0.0
O105 O 0.0681 0.36043 0.33864 0.0
O106 O 0.03919 0.34527 0.34523 0.0
C107 C 0.08307 0.33912 0.37693 0.0
C108 C 0.06379 0.31723 0.3177 0.0
C109 C 0.02421 0.30526 0.36512 0.0
O110 O 0.07981 0.35171 0.37057 0.0
O111 O 0.07319 0.32228 0.36898 0.0
O112 O 0.02882 0.30037 0.35036 0.0
O113 O 0.03571 0.32233 0.37171 0.0
C114 C 0.05253 0.36031 0.33929 0.0
O115 O 0.04974 0.31974 0.31878 0.0
O116 O 0.07364 0.32067 0.33266 0.0
In117 In 0.66207 0.96302 0.37166 0.0
O118 O 0.68424 0.95882 0.35733 0.0
O119 O 0.65488 0.93985 0.3486 0.0
C120 C 0.68665 0.99756 0.39029 0.0
C121 C 0.63845 0.97071 0.35134 0.0
C122 C 0.65144 0.93624 0.39657 0.0
O123 O 0.68908 0.99312 0.37426 0.0
O124 O 0.67192 0.98465 0.39688 0.0
O125 O 0.64087 0.94277 0.3913 0.0
O126 O 0.66709 0.94316 0.38924 0.0
C127 C 0.67204 0.94474 0.34654 0.0
O128 O 0.63379 0.96257 0.3662 0.0
O129 O 0.65487 0.97506 0.34702 0.0
In130 In 0.03918 0.71598 0.33493 0.0
O131 O 0.04555 0.74295 0.31962 0.0
O132 O 0.05727 0.72581 0.31057 0.0
C133 C 0.00841 0.71244 0.3512 0.0
C134 C 0.02734 0.6802 0.31891 0.0
C135 C 0.06578 0.72883 0.36349 0.0
O136 O 0.00992 0.71408 0.33415 0.0
O137 O 0.02243 0.71302 0.35982 0.0
O138 O 0.05457 0.71099 0.35893 0.0
O139 O 0.06387 0.74025 0.35336 0.0
C140 C 0.05563 0.74047 0.30835 0.0
O141 O 0.04352 0.6905 0.32745 0.0
O142 O 0.01706 0.68787 0.31862 0.0
In143 In 0.28267 0.33922 0.37515 0.0
O144 O 0.28131 0.30988 0.37321 0.0
O145 O 0.29133 0.32702 0.39874 0.0
C146 C 0.25841 0.33134 0.34538 0.0
C147 C 0.26853 0.35 0.4032 0.0
C148 C 0.31694 0.36211 0.36202 0.0
O149 O 0.25716 0.31826 0.3553 0.0
O150 O 0.2716 0.3483 0.35071 0.0
O151 O 0.30749 0.36907 0.36901 0.0
O152 O 0.30926 0.34394 0.36206 0.0
C153 C 0.28781 0.31161 0.38964 0.0
O154 O 0.2861 0.35882 0.40064 0.0
O155 O 0.25815 0.3362 0.39133 0.0
In156 In 0.33578 0.03192 0.68095 0.0
O157 O 0.36663 0.04126 0.69093 0.0
O158 O 0.34396 0.01691 0.70201 0.0
C159 C 0.34405 0.05465 0.65273 0.0
C160 C 0.32455 0.0485 0.70684 0.0
C161 C 0.31202 0.99733 0.66231 0.0
O162 O 0.35624 0.05135 0.66051 0.0
O163 O 0.32788 0.04643 0.65919 0.0
O164 O 0.30619 0.006 0.6727 0.0
O165 O 0.32984 0.00613 0.66128 0.0
C166 C 0.3617 0.02806 0.70192 0.0
O167 O 0.3187 0.03055 0.70543 0.0
O168 O 0.33595 0.05812 0.69518 0.0
In169 In 0.96071 0.28158 0.71928 0.0
O170 O 0.96101 0.31024 0.72256 0.0
O171 O 0.97066 0.30132 0.74573 0.0
C172 C 0.93783 0.26891 0.68777 0.0
C173 C 0.94183 0.25505 0.74354 0.0
C174 C 0.99499 0.29055 0.70703 0.0
O175 O 0.94151 0.28425 0.69711 0.0
O176 O 0.94552 0.25999 0.69442 0.0
O177 O 0.98237 0.27333 0.70937 0.0
O178 O 0.9905 0.3031 0.71129 0.0
C179 C 0.96764 0.31398 0.73916 0.0
O180 O 0.95921 0.26129 0.74116 0.0
O181 O 0.93407 0.26202 0.73355 0.0
In182 In 0.71747 0.6621 0.6808 0.0
O183 O 0.72641 0.69386 0.67681 0.0
O184 O 0.70076 0.67149 0.66267 0.0
C185 C 0.74229 0.6719 0.71038 0.0
C186 C 0.73004 0.65208 0.651 0.0
C187 C 0.68581 0.63676 0.69676 0.0
O188 O 0.73295 0.68034 0.70739 0.0
O189 O 0.7395 0.65877 0.69824 0.0
O190 O 0.69446 0.63098 0.68661 0.0
O191 O 0.69302 0.6549 0.6985 0.0
C192 C 0.71203 0.68946 0.66603 0.0
O193 O 0.71252 0.64517 0.65309 0.0
O194 O 0.74119 0.66363 0.6641 0.0
In195 In 0.33109 0.29991 0.70577 0.0
O196 O 0.353 0.29744 0.68895 0.0
O197 O 0.32382 0.27586 0.68346 0.0
C198 C 0.354 0.33406 0.72524 0.0
C199 C 0.30949 0.31003 0.68541 0.0
C200 C 0.3216 0.27551 0.73294 0.0
O201 O 0.36026 0.32611 0.71445 0.0
O202 O 0.33612 0.32483 0.72612 0.0
O203 O 0.30915 0.27661 0.72298 0.0
O204 O 0.33852 0.28656 0.72911 0.0
C205 C 0.34079 0.28215 0.67957 0.0
O206 O 0.30247 0.29697 0.69658 0.0
O207 O 0.32731 0.31794 0.68463 0.0
In208 In 0.70607 0.0501 0.66494 0.0
O209 O 0.70615 0.06873 0.6419 0.0
O210 O 0.73231 0.07065 0.65077 0.0
C211 C 0.67502 0.04461 0.68183 0.0
C212 C 0.69615 0.01732 0.6439 0.0
C213 C 0.72973 0.06082 0.69562 0.0
O214 O 0.68571 0.06024 0.67463 0.0
O215 O 0.67988 0.03195 0.68017 0.0
O216 O 0.72132 0.04369 0.68815 0.0
O217 O 0.72638 0.07252 0.68749 0.0
C218 C 0.72379 0.0762 0.64003 0.0
O219 O 0.71096 0.02558 0.65483 0.0
O220 O 0.68653 0.02573 0.64347 0.0
In221 In 0.94552 0.66896 0.70696 0.0
O222 O 0.93734 0.63743 0.71031 0.0
O223 O 0.96052 0.65977 0.72753 0.0
C224 C 0.92172 0.66108 0.67684 0.0
C225 C 0.93162 0.67883 0.73581 0.0
C226 C 0.97879 0.6918 0.69205 0.0
O227 O 0.92709 0.64954 0.6818 0.0
O228 O 0.92802 0.67641 0.68729 0.0
O229 O 0.96986 0.6988 0.70006 0.0
O230 O 0.97105 0.67361 0.69186 0.0
C231 C 0.95025 0.64182 0.72296 0.0
O232 O 0.94897 0.68849 0.7325 0.0
O233 O 0.92131 0.6646 0.72433 0.0
H234 H 0.16887 0.355 0.03394 0.0
H235 H 0.27176 0.30137 0.17663 0.0
H236 H 0.15891 0.35263 0.13377 0.0
H237 H 0.13406 0.35678 0.1185 0.0
H238 H 0.09495 0.29485 0.11727 0.0
H239 H 0.12019 0.29082 0.13239 0.0
H240 H 0.19048 0.35509 0.11137 0.0
H241 H 0.18571 0.36074 0.07944 0.0
H242 H 0.14057 0.30075 0.06958 0.0
H243 H 0.14567 0.29525 0.10149 0.0
H244 H 0.22196 0.35419 0.13531 0.0
H245 H 0.24686 0.36289 0.11395 0.0
H246 H 0.2126 0.30678 0.08375 0.0
H247 H 0.18754 0.29844 0.10502 0.0
H248 H 0.21953 0.34448 0.17639 0.0
H249 H 0.24811 0.344 0.18747 0.0
H250 H 0.22873 0.29025 0.1542 0.0
H251 H 0.20011 0.29079 0.14341 0.0
H252 H 0.18268 0.34022 0.19442 0.0
H253 H 0.19124 0.33826 0.22644 0.0
H254 H 0.18677 0.28297 0.2118 0.0
H255 H 0.17783 0.28486 0.17978 0.0
H256 H 0.15051 0.34237 0.17084 0.0
H257 H 0.12981 0.33993 0.19502 0.0
H258 H 0.11793 0.28153 0.20257 0.0
H259 H 0.13756 0.28366 0.1774 0.0
O260 O 0.1706 0.35242 0.04647 0.0
O261 O 0.14741 0.32149 0.04216 0.0
O262 O 0.26988 0.32953 0.18938 0.0
O263 O 0.26061 0.30194 0.17244 0.0
C264 C 0.15743 0.31896 0.14055 0.0
C265 C 0.17121 0.32139 0.12814 0.0
C266 C 0.18769 0.32105 0.1343 0.0
C267 C 0.1902 0.31773 0.15274 0.0
C268 C 0.17624 0.3149 0.16511 0.0
C269 C 0.15977 0.31548 0.15901 0.0
C270 C 0.1413 0.32144 0.13417 0.0
C271 C 0.14485 0.34001 0.13053 0.0
C272 C 0.13063 0.34235 0.12186 0.0
C273 C 0.11256 0.32613 0.11663 0.0
C274 C 0.1088 0.30758 0.12099 0.0
C275 C 0.12309 0.30526 0.12975 0.0
C276 C 0.16849 0.32474 0.10868 0.0
C277 C 0.17968 0.34317 0.10224 0.0
C278 C 0.17687 0.34636 0.08402 0.0
C279 C 0.16276 0.33119 0.07195 0.0
C280 C 0.15156 0.31274 0.0785 0.0
C281 C 0.15443 0.30956 0.09671 0.0
C282 C 0.20303 0.32568 0.12173 0.0
C283 C 0.21993 0.34375 0.12414 0.0
C284 C 0.23414 0.34866 0.11195 0.0
C285 C 0.23174 0.33552 0.09714 0.0
C286 C 0.21479 0.31733 0.09486 0.0
C287 C 0.20053 0.31247 0.10705 0.0
C288 C 0.20773 0.31762 0.15918 0.0
C289 C 0.22147 0.33259 0.17157 0.0
C290 C 0.23779 0.3323 0.17784 0.0
C291 C 0.24069 0.31706 0.17174 0.0
C292 C 0.22693 0.30218 0.15919 0.0
C293 C 0.2106 0.30247 0.15297 0.0
C294 C 0.17964 0.31269 0.18478 0.0
C295 C 0.18314 0.32749 0.1982 0.0
C296 C 0.188 0.32633 0.21646 0.0
C297 C 0.18969 0.31047 0.22157 0.0
C298 C 0.18569 0.29541 0.20819 0.0
C299 C 0.18058 0.29646 0.18995 0.0
C300 C 0.14548 0.31316 0.17224 0.0
C301 C 0.14296 0.32884 0.17731 0.0
C302 C 0.13137 0.32751 0.19139 0.0
C303 C 0.12236 0.31062 0.20099 0.0
C304 C 0.12442 0.29469 0.19541 0.0
C305 C 0.13575 0.29592 0.18109 0.0
C306 C 0.15974 0.33466 0.05263 0.0
C307 C 0.25796 0.31663 0.17842 0.0
H308 H 0.65489 0.81734 0.04529 0.0
H309 H 0.71079 0.97236 0.20214 0.0
H310 H 0.65558 0.80727 0.14185 0.0
H311 H 0.64947 0.77557 0.12907 0.0
H312 H 0.70715 0.79126 0.14627 0.0
H313 H 0.71359 0.8235 0.15841 0.0
H314 H 0.65431 0.83751 0.12317 0.0
H315 H 0.64912 0.82809 0.09017 0.0
H316 H 0.70673 0.83865 0.08982 0.0
H317 H 0.71182 0.84828 0.12281 0.0
H318 H 0.65454 0.86695 0.15053 0.0
H319 H 0.64536 0.88534 0.13098 0.0
H320 H 0.69963 0.90961 0.10691 0.0
H321 H 0.7085 0.89063 0.12635 0.0
H322 H 0.66602 0.87546 0.192 0.0
H323 H 0.66766 0.90516 0.20485 0.0
H324 H 0.71995 0.93958 0.17872 0.0
H325 H 0.7183 0.90974 0.1662 0.0
H326 H 0.67007 0.8431 0.20987 0.0
H327 H 0.67211 0.85646 0.24125 0.0
H328 H 0.72726 0.90567 0.23296 0.0
H329 H 0.72533 0.89198 0.20166 0.0
H330 H 0.6642 0.80746 0.18472 0.0
H331 H 0.6654 0.78668 0.20767 0.0
H332 H 0.72483 0.82878 0.22204 0.0
H333 H 0.72357 0.84945 0.19881 0.0
O334 O 0.6573 0.82125 0.05832 0.0
O335 O 0.687 0.8268 0.05891 0.0
O336 O 0.68304 0.94201 0.21061 0.0
O337 O 0.70973 0.96038 0.19713 0.0
C338 C 0.68872 0.83722 0.15778 0.0
C339 C 0.68668 0.84933 0.14543 0.0
C340 C 0.68751 0.86659 0.15224 0.0
C341 C 0.69154 0.8724 0.17119 0.0
C342 C 0.69439 0.86074 0.18347 0.0
C343 C 0.69265 0.84295 0.17683 0.0
C344 C 0.68511 0.8178 0.15081 0.0
C345 C 0.66698 0.80399 0.14271 0.0
C346 C 0.66346 0.78593 0.13553 0.0
C347 C 0.67788 0.78122 0.13673 0.0
C348 C 0.69588 0.79474 0.14527 0.0
C349 C 0.69954 0.81303 0.15217 0.0
C350 C 0.68351 0.84378 0.12534 0.0
C351 C 0.66586 0.83799 0.11591 0.0
C352 C 0.6629 0.83251 0.09707 0.0
C353 C 0.67752 0.83265 0.08734 0.0
C354 C 0.69518 0.83841 0.09689 0.0
C355 C 0.69813 0.84392 0.11571 0.0
C356 C 0.6822 0.87759 0.13989 0.0
C357 C 0.66442 0.87622 0.141 0.0
C358 C 0.65926 0.88681 0.1299 0.0
C359 C 0.67185 0.89908 0.11752 0.0
C360 C 0.68958 0.90017 0.11621 0.0
C361 C 0.69471 0.88946 0.12733 0.0
C362 C 0.69212 0.89047 0.17829 0.0
C363 C 0.67783 0.88943 0.1891 0.0
C364 C 0.67879 0.90642 0.1964 0.0
C365 C 0.69398 0.92476 0.19286 0.0
C366 C 0.70809 0.9257 0.18175 0.0
C367 C 0.70716 0.9087 0.17453 0.0
C368 C 0.69753 0.8666 0.20348 0.0
C369 C 0.68291 0.85638 0.21506 0.0
C370 C 0.68408 0.86404 0.23295 0.0
C371 C 0.69978 0.88215 0.23942 0.0
C372 C 0.71496 0.89174 0.22821 0.0
C373 C 0.71391 0.88393 0.21041 0.0
C374 C 0.69383 0.8299 0.19001 0.0
C375 C 0.67757 0.81204 0.19258 0.0
C376 C 0.67829 0.80019 0.20568 0.0
C377 C 0.69523 0.8061 0.2166 0.0
C378 C 0.71157 0.82393 0.21388 0.0
C379 C 0.71088 0.83569 0.20062 0.0
C380 C 0.6743 0.82674 0.06735 0.0
C381 C 0.69518 0.94285 0.20075 0.0
H382 H 0.14303 0.83449 0.03578 0.0
H383 H 0.30205 0.95904 0.1826 0.0
H384 H 0.13131 0.84612 0.13189 0.0
H385 H 0.10314 0.81621 0.11848 0.0
H386 H 0.12554 0.78246 0.14234 0.0
H387 H 0.15328 0.81236 0.15602 0.0
H388 H 0.16688 0.87551 0.10903 0.0
H389 H 0.15659 0.86305 0.07685 0.0
H390 H 0.16052 0.81236 0.08797 0.0
H391 H 0.17103 0.82512 0.12003 0.0
H392 H 0.20706 0.91008 0.1273 0.0
H393 H 0.23168 0.92469 0.10539 0.0
H394 H 0.23583 0.87276 0.10192 0.0
H395 H 0.21147 0.85843 0.12398 0.0
H396 H 0.20728 0.918 0.17291 0.0
H397 H 0.23866 0.94649 0.18178 0.0
H398 H 0.2653 0.91296 0.16749 0.0
H399 H 0.23383 0.88454 0.15889 0.0
H400 H 0.17318 0.88893 0.19816 0.0
H401 H 0.18441 0.89992 0.2306 0.0
H402 H 0.22585 0.88153 0.22558 0.0
H403 H 0.21454 0.87057 0.19336 0.0
H404 H 0.13413 0.8528 0.17537 0.0
H405 H 0.11333 0.83574 0.19968 0.0
H406 H 0.15345 0.81884 0.21902 0.0
H407 H 0.17398 0.83569 0.19466 0.0
O408 O 0.14727 0.83922 0.04851 0.0
O409 O 0.14936 0.81337 0.05499 0.0
O410 O 0.27507 0.96459 0.18641 0.0
O411 O 0.28947 0.94801 0.17919 0.0
C412 C 0.16275 0.84929 0.15018 0.0
C413 C 0.17537 0.8586 0.13646 0.0
C414 C 0.19365 0.87479 0.14137 0.0
C415 C 0.19919 0.882 0.15997 0.0
C416 C 0.18665 0.87258 0.17373 0.0
C417 C 0.16842 0.85615 0.16884 0.0
C418 C 0.14427 0.83135 0.1449 0.0
C419 C 0.12983 0.83221 0.13456 0.0
C420 C 0.11388 0.81514 0.12678 0.0
C421 C 0.11219 0.79695 0.12917 0.0
C422 C 0.12625 0.79617 0.14039 0.0
C423 C 0.14213 0.81323 0.14822 0.0
C424 C 0.16957 0.85116 0.11685 0.0
C425 C 0.16558 0.86176 0.10445 0.0
C426 C 0.15967 0.85459 0.0861 0.0
C427 C 0.15766 0.83667 0.07985 0.0
C428 C 0.16186 0.82617 0.09233 0.0
C429 C 0.16782 0.8334 0.11066 0.0
C430 C 0.20753 0.88324 0.1272 0.0
C431 C 0.21321 0.90185 0.12167 0.0
C432 C 0.22715 0.91009 0.10911 0.0
C433 C 0.23568 0.89985 0.10199 0.0
C434 C 0.22964 0.88104 0.10731 0.0
C435 C 0.21567 0.87281 0.11979 0.0
C436 C 0.21831 0.89927 0.16514 0.0
C437 C 0.21992 0.91686 0.17171 0.0
C438 C 0.23785 0.9331 0.17675 0.0
C439 C 0.2545 0.93201 0.17531 0.0
C440 C 0.25279 0.91432 0.16874 0.0
C441 C 0.23484 0.89808 0.16374 0.0
C442 C 0.19319 0.87916 0.19339 0.0
C443 C 0.18465 0.88727 0.20413 0.0
C444 C 0.19103 0.89346 0.22262 0.0
C445 C 0.20611 0.89172 0.23056 0.0
C446 C 0.21444 0.88337 0.21976 0.0
C447 C 0.208 0.8771 0.20137 0.0
C448 C 0.15563 0.8456 0.18335 0.0
C449 C 0.13836 0.84535 0.18484 0.0
C450 C 0.12652 0.83561 0.19869 0.0
C451 C 0.13186 0.82612 0.21134 0.0
C452 C 0.14912 0.82632 0.20969 0.0
C453 C 0.16083 0.83588 0.19576 0.0
C454 C 0.1512 0.82899 0.06039 0.0
C455 C 0.27358 0.94922 0.18065 0.0
H456 H 0.30492 0.17933 0.00842 0.0
H457 H 0.32505 0.04198 0.87502 0.0
H458 H 0.28276 0.16912 0.91033 0.0
H459 H 0.28734 0.20098 0.92052 0.0
H460 H 0.34324 0.22877 0.89949 0.0
H461 H 0.33826 0.19698 0.88899 0.0
H462 H 0.28533 0.13696 0.93592 0.0
H463 H 0.28838 0.15027 0.96757 0.0
H464 H 0.34414 0.19833 0.95859 0.0
H465 H 0.34101 0.18472 0.92707 0.0
H466 H 0.28917 0.09946 0.92033 0.0
H467 H 0.30007 0.08325 0.94124 0.0
H468 H 0.35613 0.13467 0.94736 0.0
H469 H 0.34531 0.15049 0.92607 0.0
H470 H 0.27949 0.09204 0.87423 0.0
H471 H 0.27914 0.06146 0.86799 0.0
H472 H 0.33871 0.08983 0.88746 0.0
H473 H 0.33893 0.12034 0.89335 0.0
H474 H 0.28005 0.1245 0.84464 0.0
H475 H 0.28124 0.11295 0.81336 0.0
H476 H 0.33687 0.12082 0.82866 0.0
H477 H 0.33627 0.13412 0.85894 0.0
H478 H 0.27859 0.1614 0.86745 0.0
H479 H 0.27701 0.18009 0.84234 0.0
H480 H 0.3316 0.19014 0.8264 0.0
H481 H 0.33333 0.17193 0.85175 0.0
O482 O 0.30406 0.17426 0.9959 0.0
O483 O 0.33258 0.19876 0.99052 0.0
O484 O 0.29425 0.04005 0.86722 0.0
O485 O 0.3248 0.05389 0.87731 0.0
C486 C 0.3087 0.16168 0.89512 0.0
C487 C 0.31077 0.15191 0.90991 0.0
C488 C 0.31129 0.13466 0.90641 0.0
C489 C 0.30922 0.12687 0.88812 0.0
C490 C 0.30752 0.13684 0.87328 0.0
C491 C 0.30716 0.15423 0.87679 0.0
C492 C 0.31018 0.18081 0.89895 0.0
C493 C 0.2958 0.18215 0.90762 0.0
C494 C 0.29852 0.20033 0.91353 0.0
C495 C 0.31572 0.21742 0.91094 0.0
C496 C 0.32972 0.21596 0.90149 0.0
C497 C 0.32694 0.19781 0.89551 0.0
C498 C 0.31287 0.15996 0.92918 0.0
C499 C 0.2982 0.15033 0.94085 0.0
C500 C 0.29998 0.15799 0.9589 0.0
C501 C 0.31648 0.17541 0.96559 0.0
C502 C 0.33122 0.18493 0.95386 0.0
C503 C 0.32945 0.17722 0.93584 0.0
C504 C 0.31647 0.1261 0.92165 0.0
C505 C 0.30367 0.10733 0.92651 0.0
C506 C 0.30991 0.09814 0.93849 0.0
C507 C 0.32902 0.10765 0.94577 0.0
C508 C 0.34142 0.1269 0.94175 0.0
C509 C 0.3352 0.13602 0.92976 0.0
C510 C 0.30917 0.10835 0.88441 0.0
C511 C 0.29244 0.0916 0.87713 0.0
C512 C 0.29228 0.07417 0.87359 0.0
C513 C 0.30889 0.07318 0.87729 0.0
C514 C 0.32566 0.09005 0.88451 0.0
C515 C 0.32581 0.10748 0.88798 0.0
C516 C 0.30798 0.12992 0.85415 0.0
C517 C 0.29258 0.12397 0.84105 0.0
C518 C 0.29322 0.11717 0.82323 0.0
C519 C 0.30914 0.11584 0.81832 0.0
C520 C 0.32453 0.12198 0.8316 0.0
C521 C 0.32409 0.12926 0.84913 0.0
C522 C 0.306 0.16517 0.86133 0.0
C523 C 0.2902 0.16766 0.85853 0.0
C524 C 0.28932 0.17831 0.84424 0.0
C525 C 0.30412 0.1864 0.83238 0.0
C526 C 0.31987 0.1838 0.83518 0.0
C527 C 0.32088 0.17342 0.84962 0.0
C528 C 0.31827 0.18357 0.98473 0.0
C529 C 0.30879 0.05468 0.87361 0.0
H530 H 0.82921 0.18297 0.01231 0.0
H531 H 0.71612 0.01306 0.86955 0.0
H532 H 0.8362 0.18293 0.91215 0.0
H533 H 0.86397 0.21335 0.92504 0.0
H534 H 0.89862 0.18645 0.92243 0.0
H535 H 0.87057 0.15589 0.90955 0.0
H536 H 0.80378 0.15546 0.93508 0.0
H537 H 0.8104 0.16861 0.96719 0.0
H538 H 0.85342 0.15224 0.97413 0.0
H539 H 0.84649 0.13895 0.94204 0.0
H540 H 0.76952 0.1201 0.90951 0.0
H541 H 0.74489 0.10678 0.93123 0.0
H542 H 0.77919 0.09005 0.96382 0.0
H543 H 0.80342 0.10263 0.9414 0.0
H544 H 0.76915 0.10972 0.87117 0.0
H545 H 0.73979 0.07947 0.86084 0.0
H546 H 0.76064 0.04703 0.88993 0.0
H547 H 0.79005 0.07739 0.89996 0.0
H548 H 0.80179 0.14091 0.85424 0.0
H549 H 0.79013 0.12924 0.8221 0.0
H550 H 0.80127 0.08218 0.82787 0.0
H551 H 0.81277 0.09385 0.86025 0.0
H552 H 0.83758 0.17629 0.87351 0.0
H553 H 0.85887 0.19466 0.8502 0.0
H554 H 0.87431 0.15043 0.84257 0.0
H555 H 0.85282 0.13207 0.86593 0.0
O556 O 0.82676 0.17761 0.99968 0.0
O557 O 0.8488 0.169 0.00249 0.0
O558 O 0.71758 0.04259 0.85864 0.0
O559 O 0.7276 0.02524 0.87342 0.0
C560 C 0.83411 0.14853 0.90391 0.0
C561 C 0.82068 0.13837 0.91675 0.0
C562 C 0.80336 0.12127 0.91085 0.0
C563 C 0.79976 0.11402 0.89222 0.0
C564 C 0.81313 0.12433 0.87936 0.0
C565 C 0.83032 0.14159 0.88521 0.0
C566 C 0.85144 0.16729 0.90999 0.0
C567 C 0.84985 0.1837 0.91415 0.0
C568 C 0.86572 0.20105 0.92141 0.0
C569 C 0.88343 0.20223 0.92471 0.0
C570 C 0.88509 0.18586 0.92011 0.0
C571 C 0.86918 0.1685 0.9127 0.0
C572 C 0.82457 0.14616 0.9363 0.0
C573 C 0.81453 0.15462 0.9436 0.0
C574 C 0.81839 0.16217 0.96193 0.0
C575 C 0.83243 0.16146 0.97324 0.0
C576 C 0.8425 0.153 0.96581 0.0
C577 C 0.83859 0.14541 0.9475 0.0
C578 C 0.78817 0.11217 0.92378 0.0
C579 C 0.77158 0.11328 0.92119 0.0
C580 C 0.75766 0.10593 0.93379 0.0
C581 C 0.76014 0.09752 0.9494 0.0
C582 C 0.77676 0.09629 0.95189 0.0
C583 C 0.79064 0.10352 0.93914 0.0
C584 C 0.7818 0.0957 0.88614 0.0
C585 C 0.76741 0.09605 0.87517 0.0
C586 C 0.75062 0.07876 0.86936 0.0
C587 C 0.74788 0.06081 0.87452 0.0
C588 C 0.76229 0.06058 0.88567 0.0
C589 C 0.7791 0.07789 0.89143 0.0
C590 C 0.80809 0.1182 0.8595 0.0
C591 C 0.80196 0.12824 0.84849 0.0
C592 C 0.79523 0.12152 0.83024 0.0
C593 C 0.79474 0.10478 0.82264 0.0
C594 C 0.80161 0.09516 0.83346 0.0
C595 C 0.80812 0.10176 0.85186 0.0
C596 C 0.84382 0.15297 0.87152 0.0
C597 C 0.84575 0.17071 0.86697 0.0
C598 C 0.85794 0.18118 0.85368 0.0
C599 C 0.86836 0.17405 0.84461 0.0
C600 C 0.86638 0.15623 0.84923 0.0
C601 C 0.85421 0.14579 0.8626 0.0
C602 C 0.83654 0.16955 0.99268 0.0
C603 C 0.73009 0.04238 0.86835 0.0
H604 H 0.85203 0.6764 0.02965 0.0
H605 H 0.71347 0.66955 0.88154 0.0
H606 H 0.87244 0.70473 0.93882 0.0
H607 H 0.89671 0.69995 0.9543 0.0
H608 H 0.87708 0.64691 0.91972 0.0
H609 H 0.85186 0.6511 0.90538 0.0
H610 H 0.83748 0.70028 0.95913 0.0
H611 H 0.84415 0.69538 0.99081 0.0
H612 H 0.83662 0.63946 0.97255 0.0
H613 H 0.8297 0.64442 0.94098 0.0
H614 H 0.8025 0.70035 0.94037 0.0
H615 H 0.77716 0.69169 0.96148 0.0
H616 H 0.76487 0.63226 0.9573 0.0
H617 H 0.79001 0.64098 0.93615 0.0
H618 H 0.80806 0.71071 0.89472 0.0
H619 H 0.78006 0.71328 0.88604 0.0
H620 H 0.74346 0.65264 0.89511 0.0
H621 H 0.77157 0.6502 0.9035 0.0
H622 H 0.8407 0.70895 0.86804 0.0
H623 H 0.83204 0.70854 0.83556 0.0
H624 H 0.7805 0.65313 0.8393 0.0
H625 H 0.79062 0.65266 0.87084 0.0
H626 H 0.87294 0.71133 0.89015 0.0
H627 H 0.89232 0.71387 0.86432 0.0
H628 H 0.85201 0.65411 0.84568 0.0
H629 H 0.83264 0.65178 0.8713 0.0
O630 O 0.84918 0.67796 0.01706 0.0
O631 O 0.84531 0.64939 0.00694 0.0
O632 O 0.74424 0.70001 0.8803 0.0
O633 O 0.72479 0.66893 0.88488 0.0
C634 C 0.84274 0.6786 0.9153 0.0
C635 C 0.82955 0.67599 0.9285 0.0
C636 C 0.81265 0.67602 0.92333 0.0
C637 C 0.80899 0.67895 0.90504 0.0
C638 C 0.82166 0.68058 0.8916 0.0
C639 C 0.83857 0.68042 0.89677 0.0
C640 C 0.8603 0.67823 0.92104 0.0
C641 C 0.87365 0.69228 0.93435 0.0
C642 C 0.88759 0.68954 0.94315 0.0
C643 C 0.88874 0.67285 0.9385 0.0
C644 C 0.87632 0.65965 0.92402 0.0
C645 C 0.86211 0.66221 0.91551 0.0
C646 C 0.83318 0.67275 0.94777 0.0
C647 C 0.83717 0.68694 0.96203 0.0
C648 C 0.84103 0.68412 0.9801 0.0
C649 C 0.84097 0.66705 0.98421 0.0
C650 C 0.83682 0.65279 0.96986 0.0
C651 C 0.83289 0.6556 0.95182 0.0
C652 C 0.79802 0.67127 0.93675 0.0
C653 C 0.79437 0.68551 0.94413 0.0
C654 C 0.78 0.68057 0.95621 0.0
C655 C 0.76903 0.66129 0.96097 0.0
C656 C 0.77296 0.64717 0.95372 0.0
C657 C 0.78736 0.65214 0.94176 0.0
C658 C 0.79185 0.68033 0.8999 0.0
C659 C 0.79398 0.698 0.89482 0.0
C660 C 0.77797 0.69943 0.88989 0.0
C661 C 0.75951 0.68317 0.88994 0.0
C662 C 0.75745 0.66546 0.89498 0.0
C663 C 0.77348 0.66404 0.89987 0.0
C664 C 0.81632 0.68083 0.87188 0.0
C665 C 0.82776 0.69656 0.86167 0.0
C666 C 0.82258 0.6964 0.84311 0.0
C667 C 0.80549 0.68079 0.83453 0.0
C668 C 0.79402 0.66521 0.84502 0.0
C669 C 0.79958 0.66506 0.86329 0.0
C670 C 0.85142 0.68137 0.88254 0.0
C671 C 0.86849 0.69874 0.88062 0.0
C672 C 0.87943 0.7002 0.86585 0.0
C673 C 0.87361 0.68419 0.85304 0.0
C674 C 0.85688 0.66661 0.85545 0.0
C675 C 0.84582 0.66526 0.87002 0.0
C676 C 0.84526 0.66419 0.00338 0.0
C677 C 0.74245 0.68462 0.88474 0.0
H678 H 0.8254 0.68868 0.36512 0.0
H679 H 0.93862 0.63911 0.50116 0.0
H680 H 0.82207 0.6885 0.46679 0.0
H681 H 0.79633 0.69165 0.4521 0.0
H682 H 0.75954 0.62923 0.44901 0.0
H683 H 0.78557 0.62623 0.46382 0.0
H684 H 0.85234 0.69124 0.44132 0.0
H685 H 0.84518 0.69592 0.40971 0.0
H686 H 0.80188 0.63506 0.40164 0.0
H687 H 0.80936 0.63055 0.43321 0.0
H688 H 0.88655 0.6914 0.46442 0.0
H689 H 0.91073 0.70045 0.44224 0.0
H690 H 0.87518 0.6453 0.41088 0.0
H691 H 0.85125 0.63612 0.43358 0.0
H692 H 0.88742 0.68329 0.5035 0.0
H693 H 0.91655 0.68298 0.51268 0.0
H694 H 0.8941 0.62726 0.48197 0.0
H695 H 0.86494 0.62766 0.47308 0.0
H696 H 0.85559 0.68172 0.52287 0.0
H697 H 0.86635 0.6815 0.55474 0.0
H698 H 0.85251 0.62202 0.54398 0.0
H699 H 0.84222 0.62248 0.51191 0.0
H700 H 0.81547 0.67876 0.50236 0.0
H701 H 0.79527 0.67589 0.52702 0.0
H702 H 0.78862 0.61981 0.53702 0.0
H703 H 0.80677 0.62186 0.51078 0.0
O704 O 0.82812 0.68648 0.37751 0.0
O705 O 0.80594 0.65512 0.37412 0.0
O706 O 0.93811 0.66822 0.51338 0.0
O707 O 0.92725 0.6396 0.49775 0.0
C708 C 0.82237 0.65543 0.47204 0.0
C709 C 0.83544 0.65781 0.45881 0.0
C710 C 0.85249 0.65813 0.46403 0.0
C711 C 0.85624 0.65547 0.48238 0.0
C712 C 0.84314 0.65297 0.4956 0.0
C713 C 0.82608 0.65284 0.49046 0.0
C714 C 0.8056 0.65716 0.46646 0.0
C715 C 0.80828 0.67555 0.4634 0.0
C716 C 0.79357 0.67731 0.45502 0.0
C717 C 0.77594 0.66067 0.44938 0.0
C718 C 0.77303 0.64227 0.45313 0.0
C719 C 0.78776 0.64054 0.46172 0.0
C720 C 0.83141 0.66055 0.43949 0.0
C721 C 0.84142 0.67892 0.43264 0.0
C722 C 0.83725 0.68156 0.41461 0.0
C723 C 0.82295 0.66586 0.40315 0.0
C724 C 0.81298 0.64745 0.4101 0.0
C725 C 0.81721 0.64483 0.42811 0.0
C726 C 0.86723 0.66307 0.45066 0.0
C727 C 0.88407 0.68121 0.45284 0.0
C728 C 0.89774 0.68644 0.44003 0.0
C729 C 0.89481 0.67366 0.42471 0.0
C730 C 0.87792 0.65541 0.4226 0.0
C731 C 0.86423 0.65016 0.43549 0.0
C732 C 0.87403 0.65542 0.48777 0.0
C733 C 0.88878 0.67098 0.49888 0.0
C734 C 0.90542 0.67079 0.50405 0.0
C735 C 0.90763 0.65506 0.49809 0.0
C736 C 0.89285 0.63958 0.48683 0.0
C737 C 0.8762 0.63977 0.48171 0.0
C738 C 0.84815 0.65212 0.51516 0.0
C739 C 0.85474 0.66861 0.52745 0.0
C740 C 0.86089 0.66848 0.54555 0.0
C741 C 0.86019 0.65174 0.55167 0.0
C742 C 0.85304 0.63503 0.53952 0.0
C743 C 0.84723 0.63529 0.52129 0.0
C744 C 0.81255 0.65048 0.5046 0.0
C745 C 0.80907 0.66556 0.50945 0.0
C746 C 0.79783 0.66405 0.52393 0.0
C747 C 0.79041 0.64773 0.53444 0.0
C748 C 0.79369 0.63249 0.52925 0.0
C749 C 0.80434 0.63372 0.51432 0.0
C750 C 0.81844 0.66874 0.38405 0.0
C751 C 0.92527 0.65477 0.50357 0.0
H752 H 0.31202 0.14687 0.38017 0.0
H753 H 0.37573 0.30549 0.53591 0.0
H754 H 0.31876 0.13891 0.47618 0.0
H755 H 0.31356 0.10775 0.46287 0.0
H756 H 0.37216 0.12555 0.47843 0.0
H757 H 0.37767 0.15729 0.49102 0.0
H758 H 0.31537 0.16882 0.45834 0.0
H759 H 0.30851 0.15858 0.42549 0.0
H760 H 0.36602 0.16951 0.42225 0.0
H761 H 0.37277 0.17995 0.45507 0.0
H762 H 0.31786 0.20123 0.48792 0.0
H763 H 0.30706 0.21842 0.46859 0.0
H764 H 0.35579 0.23564 0.43645 0.0
H765 H 0.36703 0.21916 0.45664 0.0
H766 H 0.33061 0.20855 0.52746 0.0
H767 H 0.33319 0.23853 0.54077 0.0
H768 H 0.38292 0.27212 0.51087 0.0
H769 H 0.38039 0.242 0.49793 0.0
H770 H 0.33569 0.17649 0.5446 0.0
H771 H 0.33878 0.19107 0.57571 0.0
H772 H 0.39253 0.24059 0.56448 0.0
H773 H 0.38968 0.22565 0.53354 0.0
H774 H 0.32884 0.14014 0.5185 0.0
H775 H 0.33112 0.11958 0.54106 0.0
H776 H 0.39036 0.16275 0.55468 0.0
H777 H 0.38809 0.18315 0.53169 0.0
O778 O 0.31508 0.15108 0.39312 0.0
O779 O 0.34476 0.15682 0.39222 0.0
O780 O 0.34895 0.27545 0.54613 0.0
O781 O 0.37426 0.2934 0.53067 0.0
C782 C 0.35183 0.16975 0.49128 0.0
C783 C 0.34882 0.18138 0.47905 0.0
C784 C 0.34956 0.19861 0.48589 0.0
C785 C 0.35455 0.20489 0.50472 0.0
C786 C 0.35828 0.19367 0.51686 0.0
C787 C 0.3565 0.17586 0.51023 0.0
C788 C 0.34867 0.1505 0.48429 0.0
C789 C 0.33055 0.13621 0.47657 0.0
C790 C 0.32756 0.11844 0.46908 0.0
C791 C 0.34251 0.11448 0.46963 0.0
C792 C 0.36049 0.12843 0.47791 0.0
C793 C 0.36361 0.14645 0.48507 0.0
C794 C 0.34462 0.1753 0.45905 0.0
C795 C 0.32652 0.16916 0.45047 0.0
C796 C 0.32261 0.16323 0.43172 0.0
C797 C 0.33673 0.16325 0.42123 0.0
C798 C 0.35484 0.16935 0.42991 0.0
C799 C 0.35873 0.17531 0.44865 0.0
C800 C 0.34329 0.20909 0.47377 0.0
C801 C 0.32628 0.20886 0.47679 0.0
C802 C 0.32001 0.21847 0.46555 0.0
C803 C 0.33047 0.2283 0.45085 0.0
C804 C 0.34749 0.22838 0.44776 0.0
C805 C 0.35389 0.2189 0.45919 0.0
C806 C 0.35542 0.22311 0.51186 0.0
C807 C 0.34206 0.2224 0.52382 0.0
C808 C 0.34355 0.23955 0.53138 0.0
C809 C 0.35832 0.25774 0.52694 0.0
C810 C 0.37142 0.25837 0.51462 0.0
C811 C 0.36997 0.24119 0.50715 0.0
C812 C 0.36242 0.20006 0.53678 0.0
C813 C 0.34852 0.19008 0.5491 0.0
C814 C 0.35027 0.19845 0.56682 0.0
C815 C 0.3658 0.217 0.57234 0.0
C816 C 0.38038 0.22632 0.56046 0.0
C817 C 0.3788 0.21779 0.54286 0.0
C818 C 0.35833 0.16309 0.52335 0.0
C819 C 0.34241 0.14502 0.52609 0.0
C820 C 0.34374 0.13329 0.53897 0.0
C821 C 0.36094 0.13956 0.54955 0.0
C822 C 0.37692 0.15762 0.54673 0.0
C823 C 0.37565 0.16925 0.53364 0.0
C824 C 0.33251 0.15688 0.40132 0.0
C825 C 0.36015 0.27601 0.53518 0.0
H826 H 0.81908 0.1594 0.36499 0.0
H827 H 0.96968 0.29283 0.51331 0.0
H828 H 0.8026 0.17291 0.45743 0.0
H829 H 0.77569 0.14203 0.44432 0.0
H830 H 0.7949 0.11125 0.47829 0.0
H831 H 0.82253 0.14211 0.49011 0.0
H832 H 0.83872 0.20297 0.43687 0.0
H833 H 0.83026 0.18934 0.40489 0.0
H834 H 0.83307 0.13915 0.42043 0.0
H835 H 0.84177 0.15307 0.45231 0.0
H836 H 0.87762 0.23908 0.4566 0.0
H837 H 0.90296 0.25335 0.43544 0.0
H838 H 0.9067 0.20116 0.43358 0.0
H839 H 0.88187 0.18734 0.45518 0.0
H840 H 0.87469 0.24757 0.50133 0.0
H841 H 0.90523 0.27712 0.51028 0.0
H842 H 0.93466 0.24575 0.49873 0.0
H843 H 0.90402 0.21626 0.49004 0.0
H844 H 0.84133 0.21872 0.52708 0.0
H845 H 0.85279 0.2313 0.55925 0.0
H846 H 0.89571 0.21481 0.55553 0.0
H847 H 0.88401 0.20197 0.5237 0.0
H848 H 0.8046 0.18454 0.5054 0.0
H849 H 0.78282 0.16686 0.52894 0.0
H850 H 0.8203 0.1462 0.54692 0.0
H851 H 0.84205 0.16405 0.5236 0.0
O852 O 0.82254 0.16457 0.3777 0.0
O853 O 0.82407 0.13903 0.38643 0.0
O854 O 0.94158 0.29678 0.5157 0.0
O855 O 0.95741 0.28135 0.50986 0.0
C856 C 0.83275 0.17818 0.4799 0.0
C857 C 0.84571 0.18725 0.46633 0.0
C858 C 0.86364 0.20398 0.47128 0.0
C859 C 0.86851 0.21191 0.48972 0.0
C860 C 0.85576 0.20262 0.50337 0.0
C861 C 0.83785 0.18581 0.49844 0.0
C862 C 0.81454 0.15978 0.47472 0.0
C863 C 0.80082 0.15948 0.46219 0.0
C864 C 0.78537 0.14178 0.4548 0.0
C865 C 0.78319 0.12407 0.46008 0.0
C866 C 0.79634 0.12456 0.47357 0.0
C867 C 0.81198 0.14222 0.48063 0.0
C868 C 0.84074 0.17896 0.4469 0.0
C869 C 0.83756 0.18907 0.43331 0.0
C870 C 0.83269 0.18122 0.41507 0.0
C871 C 0.83093 0.16313 0.41011 0.0
C872 C 0.83426 0.15309 0.42378 0.0
C873 C 0.83918 0.16098 0.44201 0.0
C874 C 0.87795 0.21221 0.45742 0.0
C875 C 0.88387 0.23073 0.45152 0.0
C876 C 0.89823 0.23878 0.43934 0.0
C877 C 0.90686 0.22838 0.43286 0.0
C878 C 0.90051 0.20962 0.43849 0.0
C879 C 0.88623 0.20164 0.4507 0.0
C880 C 0.88716 0.22983 0.49491 0.0
C881 C 0.88776 0.24713 0.50074 0.0
C882 C 0.90522 0.26398 0.50583 0.0
C883 C 0.92241 0.26381 0.50518 0.0
C884 C 0.92172 0.24641 0.49935 0.0
C885 C 0.90424 0.22956 0.49431 0.0
C886 C 0.86197 0.20962 0.52302 0.0
C887 C 0.8531 0.2177 0.5333 0.0
C888 C 0.85964 0.22486 0.55161 0.0
C889 C 0.87527 0.22422 0.55975 0.0
C890 C 0.88386 0.21579 0.54948 0.0
C891 C 0.87718 0.20844 0.53134 0.0
C892 C 0.82486 0.17554 0.51285 0.0
C893 C 0.8081 0.17625 0.5145 0.0
C894 C 0.79575 0.16624 0.52792 0.0
C895 C 0.79988 0.15513 0.53963 0.0
C896 C 0.81672 0.15452 0.53794 0.0
C897 C 0.82917 0.16475 0.52473 0.0
C898 C 0.82565 0.15479 0.39073 0.0
C899 C 0.94099 0.28167 0.51057 0.0
H900 H 0.99406 0.51332 0.34414 0.0
H901 H 0.02129 0.3927 0.19444 0.0
H902 H 0.96543 0.50444 0.24804 0.0
H903 H 0.96724 0.53422 0.26106 0.0
H904 H 0.02072 0.56847 0.23674 0.0
H905 H 0.01861 0.53868 0.22361 0.0
H906 H 0.97274 0.4741 0.2701 0.0
H907 H 0.97678 0.48578 0.30248 0.0
H908 H 0.02991 0.53702 0.29249 0.0
H909 H 0.0258 0.52505 0.26021 0.0
H910 H 0.97613 0.43894 0.24912 0.0
H911 H 0.98657 0.42166 0.26906 0.0
H912 H 0.04236 0.47318 0.27807 0.0
H913 H 0.03184 0.49032 0.25801 0.0
H914 H 0.96729 0.43306 0.20525 0.0
H915 H 0.97018 0.40498 0.1954 0.0
H916 H 0.03066 0.43809 0.21142 0.0
H917 H 0.02762 0.46613 0.22096 0.0
H918 H 0.96051 0.4607 0.18113 0.0
H919 H 0.95833 0.4453 0.15046 0.0
H920 H 0.01891 0.46679 0.1561 0.0
H921 H 0.02101 0.48221 0.18649 0.0
H922 H 0.95924 0.4993 0.20418 0.0
H923 H 0.95411 0.51712 0.18017 0.0
H924 H 0.0092 0.53296 0.16089 0.0
H925 H 0.01435 0.5155 0.18503 0.0
O926 O 0.9928 0.50892 0.33131 0.0
O927 O 0.01993 0.53508 0.32541 0.0
O928 O 0.98861 0.38723 0.19008 0.0
O929 O 0.01973 0.40355 0.19829 0.0
C930 C 0.99236 0.50158 0.22944 0.0
C931 C 0.99623 0.49175 0.24312 0.0
C932 C 0.99785 0.47541 0.23804 0.0
C933 C 0.99547 0.46878 0.21933 0.0
C934 C 0.99188 0.47876 0.20565 0.0
C935 C 0.99026 0.49514 0.21067 0.0
C936 C 0.99189 0.51945 0.23491 0.0
C937 C 0.97732 0.51841 0.24525 0.0
C938 C 0.97846 0.5354 0.25277 0.0
C939 C 0.9942 0.55369 0.25005 0.0
C940 C 0.0083 0.55464 0.23892 0.0
C941 C 0.00714 0.53765 0.23141 0.0
C942 C 0.99892 0.49878 0.26282 0.0
C943 C 0.98527 0.48781 0.27497 0.0
C944 C 0.9876 0.49454 0.29344 0.0
C945 C 0.00365 0.51237 0.30007 0.0
C946 C 0.01737 0.52326 0.28783 0.0
C947 C 0.01504 0.51648 0.26939 0.0
C948 C 0.00324 0.46585 0.25211 0.0
C949 C 0.99051 0.44655 0.25562 0.0
C950 C 0.99652 0.4367 0.2669 0.0
C951 C 0.01532 0.44605 0.27497 0.0
C952 C 0.02776 0.46567 0.27213 0.0
C953 C 0.02178 0.47547 0.26072 0.0
C954 C 0.99722 0.45158 0.21389 0.0
C955 C 0.98114 0.43419 0.20663 0.0
C956 C 0.98283 0.41819 0.20102 0.0
C957 C 0.00066 0.41929 0.20264 0.0
C958 C 0.01672 0.43673 0.21001 0.0
C959 C 0.01502 0.45275 0.21554 0.0
C960 C 0.99088 0.47237 0.18604 0.0
C961 C 0.97334 0.46244 0.17551 0.0
C962 C 0.97212 0.45366 0.15807 0.0
C963 C 0.98841 0.45464 0.15112 0.0
C964 C 0.0061 0.46558 0.1613 0.0
C965 C 0.00734 0.47444 0.17857 0.0
C966 C 0.98709 0.50596 0.19624 0.0
C967 C 0.9702 0.50668 0.19479 0.0
C968 C 0.9673 0.51684 0.18111 0.0
C969 C 0.98118 0.52624 0.16857 0.0
C970 C 0.99811 0.52556 0.17016 0.0
C971 C 0.00109 0.51562 0.18393 0.0
C972 C 0.00602 0.51954 0.31967 0.0
C973 C 0.00255 0.40236 0.19661 0.0
H974 H 0.48917 0.51324 0.34516 0.0
H975 H 0.37974 0.34881 0.19821 0.0
H976 H 0.50059 0.51559 0.24585 0.0
H977 H 0.52782 0.54653 0.25849 0.0
H978 H 0.56399 0.52133 0.25634 0.0
H979 H 0.53646 0.49022 0.24373 0.0
H980 H 0.46745 0.48762 0.26715 0.0
H981 H 0.47247 0.4999 0.29942 0.0
H982 H 0.51606 0.48454 0.30799 0.0
H983 H 0.51072 0.4721 0.27573 0.0
H984 H 0.43456 0.45319 0.24191 0.0
H985 H 0.40979 0.43912 0.26357 0.0
H986 H 0.44336 0.42015 0.29416 0.0
H987 H 0.46813 0.43437 0.27239 0.0
H988 H 0.43724 0.44504 0.20099 0.0
H989 H 0.40757 0.41573 0.18933 0.0
H990 H 0.42357 0.38098 0.22103 0.0
H991 H 0.4533 0.41038 0.2324 0.0
H992 H 0.47562 0.47716 0.18423 0.0
H993 H 0.46678 0.46588 0.15171 0.0
H994 H 0.46539 0.4125 0.16267 0.0
H995 H 0.47499 0.4242 0.19522 0.0
H996 H 0.50683 0.51075 0.20763 0.0
H997 H 0.52986 0.52904 0.18557 0.0
H998 H 0.54214 0.48254 0.17783 0.0
H999 H 0.51909 0.46433 0.20019 0.0
O1000 O 0.48737 0.50824 0.33247 0.0
O1001 O 0.50975 0.5002 0.33612 0.0
O1002 O 0.38386 0.37914 0.18649 0.0
O1003 O 0.39136 0.36063 0.20262 0.0
C1004 C 0.49967 0.48183 0.23732 0.0
C1005 C 0.48561 0.47146 0.24954 0.0
C1006 C 0.46851 0.45443 0.243 0.0
C1007 C 0.46562 0.44757 0.22428 0.0
C1008 C 0.47981 0.45787 0.21205 0.0
C1009 C 0.49689 0.47501 0.21861 0.0
C1010 C 0.51661 0.50073 0.24396 0.0
C1011 C 0.51443 0.51681 0.248 0.0
C1012 C 0.53 0.53447 0.25508 0.0
C1013 C 0.54801 0.53632 0.25833 0.0
C1014 C 0.55022 0.52023 0.25404 0.0
C1015 C 0.53461 0.50255 0.2468 0.0
C1016 C 0.48863 0.47887 0.26916 0.0
C1017 C 0.47798 0.48681 0.27606 0.0
C1018 C 0.48093 0.49387 0.29448 0.0
C1019 C 0.49465 0.49318 0.3063 0.0
C1020 C 0.50536 0.48527 0.29928 0.0
C1021 C 0.50236 0.47817 0.28086 0.0
C1022 C 0.45306 0.44468 0.25553 0.0
C1023 C 0.43643 0.44577 0.25316 0.0
C1024 C 0.42234 0.43776 0.26555 0.0
C1025 C 0.42466 0.42857 0.28059 0.0
C1026 C 0.44129 0.42736 0.28284 0.0
C1027 C 0.45536 0.43532 0.27037 0.0
C1028 C 0.44746 0.42981 0.21744 0.0
C1029 C 0.43434 0.43107 0.20533 0.0
C1030 C 0.41739 0.41431 0.19873 0.0
C1031 C 0.41321 0.39599 0.20423 0.0
C1032 C 0.42635 0.39484 0.2165 0.0
C1033 C 0.44332 0.41161 0.22305 0.0
C1034 C 0.47605 0.45156 0.1921 0.0
C1035 C 0.47392 0.46326 0.17956 0.0
C1036 C 0.46886 0.4568 0.16101 0.0
C1037 C 0.46546 0.43836 0.15474 0.0
C1038 C 0.46792 0.42677 0.16722 0.0
C1039 C 0.47337 0.43342 0.18575 0.0
C1040 C 0.51146 0.48632 0.20569 0.0
C1041 C 0.51475 0.50466 0.20145 0.0
C1042 C 0.5279 0.51508 0.18884 0.0
C1043 C 0.5379 0.50727 0.18008 0.0
C1044 C 0.53459 0.48887 0.18434 0.0
C1045 C 0.52151 0.47851 0.19711 0.0
C1046 C 0.49777 0.50073 0.32586 0.0
C1047 C 0.39525 0.37814 0.19721 0.0
H1048 H 0.50918 0.9925 0.35997 0.0
H1049 H 0.3712 0.97741 0.2047 0.0
H1050 H 0.53227 0.02601 0.27099 0.0
H1051 H 0.55715 0.0224 0.28675 0.0
H1052 H 0.54166 0.97156 0.25026 0.0
H1053 H 0.51577 0.9745 0.23557 0.0
H1054 H 0.49635 0.01883 0.2902 0.0
H1055 H 0.50206 0.01275 0.32171 0.0
H1056 H 0.49718 0.95846 0.3017 0.0
H1057 H 0.49122 0.9646 0.27029 0.0
H1058 H 0.4631 0.01994 0.26978 0.0
H1059 H 0.43838 0.01196 0.29139 0.0
H1060 H 0.42539 0.95228 0.2878 0.0
H1061 H 0.45001 0.96037 0.26606 0.0
H1062 H 0.46487 0.02918 0.22786 0.0
H1063 H 0.43518 0.02793 0.21763 0.0
H1064 H 0.40484 0.96535 0.2188 0.0
H1065 H 0.43467 0.96682 0.22884 0.0
H1066 H 0.49581 0.03637 0.2062 0.0
H1067 H 0.48783 0.04049 0.17442 0.0
H1068 H 0.45511 0.97817 0.16333 0.0
H1069 H 0.46248 0.97411 0.19523 0.0
H1070 H 0.53532 0.03458 0.22311 0.0
H1071 H 0.55538 0.03943 0.19726 0.0
H1072 H 0.51572 0.98084 0.17479 0.0
H1073 H 0.49611 0.97596 0.20073 0.0
O1074 O 0.50674 0.99454 0.34742 0.0
O1075 O 0.50425 0.96684 0.33641 0.0
O1076 O 0.39941 0.01052 0.20827 0.0
O1077 O 0.38313 0.97833 0.20874 0.0
C1078 C 0.50422 -5e-05 0.24609 0.0
C1079 C 0.49028 0.9961 0.25882 0.0
C1080 C 0.47316 0.99551 0.25325 0.0
C1081 C 0.46995 0.9989 0.23502 0.0
C1082 C 0.48364 0.00237 0.22225 0.0
C1083 C 0.50068 0.00266 0.22767 0.0
C1084 C 0.52211 0.00045 0.25223 0.0
C1085 C 0.53449 0.0143 0.2662 0.0
C1086 C 0.5488 0.01224 0.27515 0.0
C1087 C 0.55131 0.9965 0.27 0.0
C1088 C 0.53984 0.98356 0.25495 0.0
C1089 C 0.52525 0.98541 0.24626 0.0
C1090 C 0.4934 0.99217 0.27798 0.0
C1091 C 0.4964 0.00558 0.29268 0.0
C1092 C 0.49972 0.00209 0.31065 0.0
C1093 C 0.50012 0.98513 0.31423 0.0
C1094 C 0.49699 0.97167 0.29943 0.0
C1095 C 0.49361 0.97515 0.28148 0.0
C1096 C 0.45829 0.99073 0.26639 0.0
C1097 C 0.4549 0.00517 0.27369 0.0
C1098 C 0.4409 0.00061 0.2861 0.0
C1099 C 0.43001 0.98151 0.2913 0.0
C1100 C 0.43347 0.96708 0.28393 0.0
C1101 C 0.44754 0.97168 0.2716 0.0
C1102 C 0.45187 0.99809 0.22907 0.0
C1103 C 0.45179 0.01522 0.22585 0.0
C1104 C 0.43482 0.01446 0.22004 0.0
C1105 C 0.41763 0.99652 0.21739 0.0
C1106 C 0.41781 0.97939 0.2207 0.0
C1107 C 0.4348 0.98018 0.22647 0.0
C1108 C 0.47971 0.00495 0.20291 0.0
C1109 C 0.48699 0.02365 0.19686 0.0
C1110 C 0.48249 0.02598 0.17881 0.0
C1111 C 0.47105 0.00962 0.16658 0.0
C1112 C 0.46413 0.99094 0.17256 0.0
C1113 C 0.46826 0.98862 0.19068 0.0
C1114 C 0.51421 0.00498 0.21367 0.0
C1115 C 0.53121 0.02272 0.21276 0.0
C1116 C 0.54257 0.02548 0.19802 0.0
C1117 C 0.53688 0.01059 0.18394 0.0
C1118 C 0.52023 0.99264 0.18531 0.0
C1119 C 0.50909 0.98981 0.20012 0.0
C1120 C 0.50381 0.98155 0.33332 0.0
C1121 C 0.39956 0.99563 0.21119 0.0
H1122 H 0.5111 0.04807 0.70707 0.0
H1123 H 0.60935 0.98107 0.84234 0.0
H1124 H 0.49783 0.03783 0.80657 0.0
H1125 H 0.47304 0.04164 0.79049 0.0
H1126 H 0.4366 0.97918 0.78382 0.0
H1127 H 0.46162 0.97552 0.79989 0.0
H1128 H 0.53152 0.04248 0.7834 0.0
H1129 H 0.52726 0.05049 0.75226 0.0
H1130 H 0.48218 0.991 0.7389 0.0
H1131 H 0.48678 0.98314 0.77 0.0
H1132 H 0.56358 0.03841 0.80541 0.0
H1133 H 0.58816 0.0465 0.78369 0.0
H1134 H 0.55076 0.99259 0.75117 0.0
H1135 H 0.52622 0.98473 0.77293 0.0
H1136 H 0.56068 0.02793 0.84509 0.0
H1137 H 0.58866 0.02587 0.85516 0.0
H1138 H 0.56641 0.97197 0.82129 0.0
H1139 H 0.5384 0.97411 0.81151 0.0
H1140 H 0.52796 0.02542 0.86344 0.0
H1141 H 0.53601 0.02183 0.89522 0.0
H1142 H 0.52023 0.96239 0.88018 0.0
H1143 H 0.51251 0.96619 0.84825 0.0
H1144 H 0.49183 0.02597 0.8444 0.0
H1145 H 0.47094 0.02096 0.86929 0.0
H1146 H 0.45527 0.9605 0.86759 0.0
H1147 H 0.47614 0.96565 0.84263 0.0
O1148 O 0.51263 0.04456 0.71926 0.0
O1149 O 0.48942 0.01385 0.71316 0.0
O1150 O 0.60919 0.00994 0.85586 0.0
O1151 O 0.59842 0.98224 0.83861 0.0
C1152 C 0.49788 0.00431 0.81042 0.0
C1153 C 0.51183 0.00752 0.79793 0.0
C1154 C 0.52812 0.00656 0.80361 0.0
C1155 C 0.53042 0.00225 0.82174 0.0
C1156 C 0.51646 0.999 0.83419 0.0
C1157 C 0.50005 -0.00022 0.82848 0.0
C1158 C 0.48145 0.00641 0.80439 0.0
C1159 C 0.48427 0.025 0.80208 0.0
C1160 C 0.47013 0.02714 0.79289 0.0
C1161 C 0.45297 0.0107 0.78576 0.0
C1162 C 0.44979 0.99209 0.78899 0.0
C1163 C 0.46393 0.98997 0.79832 0.0
C1164 C 0.50946 0.01225 0.77892 0.0
C1165 C 0.52082 0.03119 0.77368 0.0
C1166 C 0.51831 0.03572 0.7559 0.0
C1167 C 0.50436 0.02139 0.74309 0.0
C1168 C 0.49304 0.00239 0.74842 0.0
C1169 C 0.49562 0.99786 0.76617 0.0
C1170 C 0.54319 0.01096 0.79076 0.0
C1171 C 0.56079 0.02831 0.79366 0.0
C1172 C 0.57478 0.03288 0.78126 0.0
C1173 C 0.57138 0.0202 0.7657 0.0
C1174 C 0.55371 0.00278 0.76289 0.0
C1175 C 0.53974 0.9982 0.77533 0.0
C1176 C 0.54749 0.00111 0.82768 0.0
C1177 C 0.56184 0.01564 0.83995 0.0
C1178 C 0.57782 0.01445 0.84563 0.0
C1179 C 0.57976 0.99873 0.83905 0.0
C1180 C 0.56537 0.98426 0.82665 0.0
C1181 C 0.54937 0.98545 0.82102 0.0
C1182 C 0.51973 0.99608 0.85361 0.0
C1183 C 0.52607 0.01158 0.86706 0.0
C1184 C 0.53068 0.00953 0.88512 0.0
C1185 C 0.52873 0.99185 0.89004 0.0
C1186 C 0.52171 0.97611 0.87669 0.0
C1187 C 0.51739 0.97826 0.85853 0.0
C1188 C 0.48546 0.99617 0.84169 0.0
C1189 C 0.48354 0.01156 0.84911 0.0
C1190 C 0.47162 0.00866 0.86333 0.0
C1191 C 0.46155 0.99035 0.87045 0.0
C1192 C 0.46302 0.97481 0.86252 0.0
C1193 C 0.47482 0.97769 0.84822 0.0
C1194 C 0.50163 0.02629 0.72426 0.0
C1195 C 0.5967 0.99738 0.84505 0.0
H1196 H 0.96043 0.44894 0.7227 0.0
H1197 H 0.01946 0.62707 0.86961 0.0
H1198 H 0.97953 0.45844 0.83908 0.0
H1199 H 0.97511 0.42714 0.82755 0.0
H1200 H 0.02192 0.45672 0.7931 0.0
H1201 H 0.02705 0.48797 0.80577 0.0
H1202 H 0.96838 0.47089 0.80147 0.0
H1203 H 0.95996 0.45705 0.76957 0.0
H1204 H 0.0124 0.50534 0.75365 0.0
H1205 H 0.02076 0.5189 0.78566 0.0
H1206 H 0.96485 0.50861 0.80558 0.0
H1207 H 0.95428 0.52575 0.78555 0.0
H1208 H 0.01256 0.57286 0.78567 0.0
H1209 H 0.02301 0.55548 0.80548 0.0
H1210 H 0.97388 0.53211 0.84375 0.0
H1211 H 0.9728 0.56132 0.85341 0.0
H1212 H 0.03445 0.59494 0.85663 0.0
H1213 H 0.03528 0.56565 0.84677 0.0
H1214 H 0.9827 0.51158 0.87659 0.0
H1215 H 0.98737 0.52696 0.90769 0.0
H1216 H 0.04796 0.5608 0.90225 0.0
H1217 H 0.0433 0.54464 0.87133 0.0
H1218 H 0.98608 0.48195 0.87366 0.0
H1219 H 0.99204 0.46485 0.8976 0.0
H1220 H 0.04596 0.47959 0.87608 0.0
H1221 H 0.04014 0.49733 0.85235 0.0
O1222 O 0.96401 0.4547 0.73522 0.0
O1223 O 0.99105 0.47995 0.72771 0.0
O1224 O 0.98779 0.59746 0.86347 0.0
O1225 O 0.01947 0.61533 0.86564 0.0
C1226 C 0.00482 0.49425 0.82871 0.0
C1227 C 0.00049 0.50402 0.81531 0.0
C1228 C 0.00064 0.52135 0.82051 0.0
C1229 C 0.00522 0.52902 0.83899 0.0
C1230 C 0.00938 0.51924 0.85238 0.0
C1231 C 0.00918 0.50184 0.84729 0.0
C1232 C 0.00364 0.47549 0.8233 0.0
C1233 C 0.98917 0.45816 0.82945 0.0
C1234 C 0.98648 0.44026 0.82261 0.0
C1235 C 0.99798 0.43933 0.80919 0.0
C1236 C 0.01292 0.45682 0.80356 0.0
C1237 C 0.01581 0.47472 0.81068 0.0
C1238 C 0.99521 0.49584 0.79587 0.0
C1239 C 0.97805 0.47842 0.79108 0.0
C1240 C 0.97326 0.47057 0.77284 0.0
C1241 C 0.98552 0.48007 0.75906 0.0
C1242 C 0.00265 0.49764 0.76392 0.0
C1243 C 0.00744 0.50544 0.78217 0.0
C1244 C 0.99467 0.53084 0.80691 0.0
C1245 C 0.97534 0.52248 0.801 0.0
C1246 C 0.96933 0.53232 0.7897 0.0
C1247 C 0.9826 0.55065 0.78412 0.0
C1248 C 0.00205 0.55867 0.78959 0.0
C1249 C 0.00804 0.54884 0.80095 0.0
C1250 C 0.00465 0.54682 0.84458 0.0
C1251 C 0.98711 0.54583 0.84648 0.0
C1252 C 0.98655 0.56251 0.85203 0.0
C1253 C 0.00355 0.58047 0.85583 0.0
C1254 C 0.0211 0.58136 0.85384 0.0
C1255 C 0.02163 0.56467 0.84823 0.0
C1256 C 0.0127 0.52679 0.8719 0.0
C1257 C 0.99704 0.52183 0.88235 0.0
C1258 C -0.00029 0.53061 0.90001 0.0
C1259 C 0.01802 0.54488 0.90726 0.0
C1260 C 0.03376 0.54968 0.89691 0.0
C1261 C 0.03112 0.54049 0.87937 0.0
C1262 C 0.01288 0.49126 0.86156 0.0
C1263 C 0.99936 0.48186 0.87433 0.0
C1264 C 0.00275 0.47205 0.88793 0.0
C1265 C 0.01957 0.47114 0.88879 0.0
C1266 C 0.03292 0.48017 0.87571 0.0
C1267 C 0.02964 0.49027 0.86223 0.0
C1268 C 0.98043 0.47164 0.73971 0.0
C1269 C 0.00305 0.59821 0.86186 0.0
H1270 H 0.48136 0.48973 0.70245 0.0
H1271 H 0.63591 0.62709 0.84709 0.0
H1272 H 0.4673 0.50933 0.79737 0.0
H1273 H 0.43867 0.4793 0.78501 0.0
H1274 H 0.45987 0.4458 0.81158 0.0
H1275 H 0.48805 0.4759 0.82431 0.0
H1276 H 0.50274 0.53548 0.77329 0.0
H1277 H 0.49338 0.52082 0.74165 0.0
H1278 H 0.49813 0.47194 0.75803 0.0
H1279 H 0.50771 0.48689 0.78954 0.0
H1280 H 0.5412 0.57045 0.78947 0.0
H1281 H 0.56606 0.5835 0.76759 0.0
H1282 H 0.57396 0.53423 0.77259 0.0
H1283 H 0.54908 0.52128 0.79435 0.0
H1284 H 0.54091 0.58217 0.83555 0.0
H1285 H 0.5716 0.61187 0.84353 0.0
H1286 H 0.60059 0.57963 0.83433 0.0
H1287 H 0.56981 0.55 0.82662 0.0
H1288 H 0.50721 0.55376 0.86284 0.0
H1289 H 0.51802 0.56601 0.89517 0.0
H1290 H 0.56143 0.55012 0.89211 0.0
H1291 H 0.55041 0.53767 0.86013 0.0
H1292 H 0.46842 0.51605 0.83933 0.0
H1293 H 0.44694 0.4995 0.86339 0.0
H1294 H 0.4886 0.4872 0.8879 0.0
H1295 H 0.50964 0.50302 0.86352 0.0
O1296 O 0.48521 0.49533 0.71502 0.0
O1297 O 0.48771 0.47046 0.72418 0.0
O1298 O 0.60798 0.63145 0.84863 0.0
O1299 O 0.62358 0.61556 0.844 0.0
C1300 C 0.49826 0.51266 0.81666 0.0
C1301 C 0.51114 0.52101 0.80291 0.0
C1302 C 0.52927 0.53751 0.80749 0.0
C1303 C 0.53442 0.54601 0.82572 0.0
C1304 C 0.52176 0.53737 0.83961 0.0
C1305 C 0.50364 0.52062 0.83508 0.0
C1306 C 0.47968 0.49473 0.8117 0.0
C1307 C 0.46548 0.49547 0.80084 0.0
C1308 C 0.44925 0.47832 0.79367 0.0
C1309 C 0.44707 0.46013 0.79713 0.0
C1310 C 0.46095 0.45952 0.8088 0.0
C1311 C 0.4771 0.47669 0.81607 0.0
C1312 C 0.50579 0.51219 0.78368 0.0
C1313 C 0.50181 0.52165 0.76997 0.0
C1314 C 0.49643 0.51322 0.75194 0.0
C1315 C 0.49495 0.49518 0.74732 0.0
C1316 C 0.49909 0.48582 0.76112 0.0
C1317 C 0.50452 0.4943 0.77913 0.0
C1318 C 0.54342 0.54497 0.79346 0.0
C1319 C 0.54819 0.56243 0.78567 0.0
C1320 C 0.56228 0.56977 0.77316 0.0
C1321 C 0.5719 0.55984 0.76844 0.0
C1322 C 0.56683 0.5422 0.77608 0.0
C1323 C 0.55263 0.53478 0.78841 0.0
C1324 C 0.55315 0.56399 0.83036 0.0
C1325 C 0.55392 0.58157 0.83526 0.0
C1326 C 0.57146 0.5985 0.8398 0.0
C1327 C 0.58857 0.59814 0.83952 0.0
C1328 C 0.58771 0.58045 0.83463 0.0
C1329 C 0.57015 0.56352 0.83014 0.0
C1330 C 0.52818 0.54504 0.85909 0.0
C1331 C 0.51904 0.55294 0.8692 0.0
C1332 C 0.52517 0.55986 0.88761 0.0
C1333 C 0.54067 0.55917 0.89605 0.0
C1334 C 0.54968 0.55115 0.88586 0.0
C1335 C 0.54342 0.54406 0.86761 0.0
C1336 C 0.49066 0.51086 0.84973 0.0
C1337 C 0.47285 0.5097 0.84985 0.0
C1338 C 0.46065 0.50032 0.86357 0.0
C1339 C 0.46624 0.49229 0.87754 0.0
C1340 C 0.4841 0.49355 0.87743 0.0
C1341 C 0.4961 0.50257 0.86353 0.0
C1342 C 0.48908 0.48619 0.72817 0.0
C1343 C 0.60724 0.61608 0.84433 0.0
H1344 H 0.65051 0.85072 0.67662 0.0
H1345 H 0.67102 0.71594 0.5382 0.0
H1346 H 0.62355 0.83866 0.57884 0.0
H1347 H 0.62796 0.87043 0.58919 0.0
H1348 H 0.68318 0.89868 0.56683 0.0
H1349 H 0.6785 0.867 0.5564 0.0
H1350 H 0.62823 0.8075 0.6044 0.0
H1351 H 0.6325 0.82117 0.63612 0.0
H1352 H 0.68758 0.86916 0.62522 0.0
H1353 H 0.68322 0.85519 0.59362 0.0
H1354 H 0.63181 0.77073 0.58886 0.0
H1355 H 0.64357 0.75467 0.60908 0.0
H1356 H 0.70028 0.80489 0.61112 0.0
H1357 H 0.68846 0.82077 0.59088 0.0
H1358 H 0.62109 0.76137 0.54346 0.0
H1359 H 0.62217 0.73167 0.53634 0.0
H1360 H 0.68298 0.76326 0.55083 0.0
H1361 H 0.68174 0.79289 0.55763 0.0
H1362 H 0.61728 0.78847 0.51501 0.0
H1363 H 0.61656 0.77338 0.48458 0.0
H1364 H 0.67679 0.79396 0.49354 0.0
H1365 H 0.67745 0.80912 0.52364 0.0
H1366 H 0.61487 0.82363 0.53191 0.0
H1367 H 0.6117 0.84171 0.50692 0.0
H1368 H 0.6714 0.86577 0.49831 0.0
H1369 H 0.67437 0.84745 0.52301 0.0
O1370 O 0.64917 0.84551 0.66406 0.0
O1371 O 0.67733 0.86994 0.65771 0.0
O1372 O 0.63895 0.71195 0.53337 0.0
O1373 O 0.67019 0.72747 0.54089 0.0
C1374 C 0.64938 0.83159 0.56283 0.0
C1375 C 0.65248 0.8222 0.57742 0.0
C1376 C 0.65327 0.80515 0.57362 0.0
C1377 C 0.65053 0.79721 0.55531 0.0
C1378 C 0.64764 0.80672 0.54073 0.0
C1379 C 0.64696 0.82383 0.5445 0.0
C1380 C 0.65065 0.85059 0.56677 0.0
C1381 C 0.63639 0.85177 0.57587 0.0
C1382 C 0.63901 0.86989 0.58187 0.0
C1383 C 0.65595 0.88708 0.57889 0.0
C1384 C 0.66984 0.88577 0.5691 0.0
C1385 C 0.6672 0.86769 0.56312 0.0
C1386 C 0.65534 0.83044 0.59671 0.0
C1387 C 0.64122 0.82093 0.60893 0.0
C1388 C 0.64369 0.8288 0.62701 0.0
C1389 C 0.66035 0.8463 0.63319 0.0
C1390 C 0.67455 0.85569 0.6209 0.0
C1391 C 0.67208 0.84779 0.60284 0.0
C1392 C 0.6593 0.79687 0.58844 0.0
C1393 C 0.64665 0.77841 0.59407 0.0
C1394 C 0.65338 0.76931 0.60561 0.0
C1395 C 0.67286 0.77853 0.61152 0.0
C1396 C 0.68525 0.79744 0.60662 0.0
C1397 C 0.6785 0.80656 0.59522 0.0
C1398 C 0.65129 0.7792 0.55123 0.0
C1399 C 0.63462 0.76182 0.5451 0.0
C1400 C 0.63528 0.74489 0.54104 0.0
C1401 C 0.65266 0.74508 0.54307 0.0
C1402 C 0.66935 0.76259 0.54917 0.0
C1403 C 0.66868 0.77951 0.55315 0.0
C1404 C 0.64738 0.7997 0.52152 0.0
C1405 C 0.63035 0.78998 0.5102 0.0
C1406 C 0.62996 0.7814 0.49291 0.0
C1407 C 0.64657 0.78232 0.4869 0.0
C1408 C 0.66374 0.7928 0.49799 0.0
C1409 C 0.66415 0.8015 0.5151 0.0
C1410 C 0.64484 0.83429 0.52919 0.0
C1411 C 0.6272 0.83274 0.52453 0.0
C1412 C 0.62541 0.843 0.5103 0.0
C1413 C 0.64134 0.85518 0.50083 0.0
C1414 C 0.65896 0.85662 0.50555 0.0
C1415 C 0.66066 0.84614 0.51954 0.0
C1416 C 0.66287 0.85469 0.65237 0.0
C1417 C 0.65344 0.72714 0.5388 0.0
H1418 H 0.15668 0.84399 0.68286 0.0
H1419 H 0.04567 0.68568 0.5305 0.0
H1420 H 0.16833 0.85049 0.58233 0.0
H1421 H 0.19604 0.88113 0.59495 0.0
H1422 H 0.23082 0.85434 0.59346 0.0
H1423 H 0.20287 0.82359 0.58067 0.0
H1424 H 0.13512 0.82231 0.60424 0.0
H1425 H 0.14026 0.83319 0.63693 0.0
H1426 H 0.18198 0.81508 0.6438 0.0
H1427 H 0.17655 0.80407 0.61112 0.0
H1428 H 0.10206 0.78999 0.57788 0.0
H1429 H 0.07641 0.77514 0.59852 0.0
H1430 H 0.10706 0.75177 0.62727 0.0
H1431 H 0.1328 0.76692 0.60658 0.0
H1432 H 0.10342 0.78201 0.53786 0.0
H1433 H 0.07353 0.75333 0.52557 0.0
H1434 H 0.08995 0.71656 0.55316 0.0
H1435 H 0.1199 0.74538 0.56517 0.0
H1436 H 0.13858 0.81305 0.52242 0.0
H1437 H 0.12887 0.80333 0.48968 0.0
H1438 H 0.1352 0.75317 0.49514 0.0
H1439 H 0.14491 0.76301 0.52803 0.0
H1440 H 0.17359 0.84627 0.54413 0.0
H1441 H 0.19669 0.86485 0.52218 0.0
H1442 H 0.20928 0.81858 0.51418 0.0
H1443 H 0.1861 0.80008 0.5363 0.0
O1444 O 0.15483 0.83954 0.66998 0.0
O1445 O 0.17624 0.83009 0.67276 0.0
O1446 O 0.04967 0.71681 0.52116 0.0
O1447 O 0.0574 0.69727 0.53515 0.0
C1448 C 0.16654 0.81638 0.57356 0.0
C1449 C 0.15229 0.80573 0.58552 0.0
C1450 C 0.13496 0.78923 0.5785 0.0
C1451 C 0.13209 0.78313 0.55959 0.0
C1452 C 0.14639 0.79379 0.54764 0.0
C1453 C 0.16366 0.81038 0.55464 0.0
C1454 C 0.18366 0.83491 0.58064 0.0
C1455 C 0.18196 0.85129 0.58463 0.0
C1456 C 0.19779 0.86875 0.59172 0.0
C1457 C 0.21555 0.87007 0.59508 0.0
C1458 C 0.21725 0.85364 0.59102 0.0
C1459 C 0.20139 0.83617 0.5837 0.0
C1460 C 0.15537 0.81229 0.60537 0.0
C1461 C 0.14527 0.8206 0.61287 0.0
C1462 C 0.14828 0.82685 0.63152 0.0
C1463 C 0.16151 0.82498 0.64299 0.0
C1464 C 0.17167 0.81672 0.63537 0.0
C1465 C 0.16861 0.81043 0.61672 0.0
C1466 C 0.11918 0.77939 0.59067 0.0
C1467 C 0.10313 0.78151 0.58854 0.0
C1468 C 0.08851 0.77302 0.60033 0.0
C1469 C 0.0897 0.76226 0.61452 0.0
C1470 C 0.10584 0.76016 0.6166 0.0
C1471 C 0.12047 0.76865 0.60475 0.0
C1472 C 0.11387 0.76574 0.55226 0.0
C1473 C 0.10058 0.76774 0.54112 0.0
C1474 C 0.0835 0.75134 0.53418 0.0
C1475 C 0.07936 0.73263 0.53835 0.0
C1476 C 0.09269 0.73073 0.54965 0.0
C1477 C 0.10979 0.74716 0.55654 0.0
C1478 C 0.14242 0.78872 0.52754 0.0
C1479 C 0.13815 0.80013 0.51648 0.0
C1480 C 0.13252 0.79452 0.49787 0.0
C1481 C 0.13122 0.77747 0.48997 0.0
C1482 C 0.13623 0.76644 0.50091 0.0
C1483 C 0.14169 0.77198 0.51963 0.0
C1484 C 0.17834 0.82194 0.54194 0.0
C1485 C 0.18157 0.8403 0.53788 0.0
C1486 C 0.19479 0.85089 0.52536 0.0
C1487 C 0.20489 0.84322 0.51654 0.0
C1488 C 0.20165 0.82482 0.5207 0.0
C1489 C 0.18849 0.81428 0.53334 0.0
C1490 C 0.16469 0.83167 0.6628 0.0
C1491 C 0.06124 0.71516 0.531 0.0
H1492 H 0.19921 0.3596 0.69742 0.0
H1493 H 0.04314 0.31881 0.54938 0.0
H1494 H 0.21208 0.37595 0.60216 0.0
H1495 H 0.23803 0.37287 0.6167 0.0
H1496 H 0.21211 0.3141 0.59177 0.0
H1497 H 0.18666 0.3176 0.57693 0.0
H1498 H 0.1763 0.37238 0.62479 0.0
H1499 H 0.18633 0.37223 0.65683 0.0
H1500 H 0.18 0.31565 0.64461 0.0
H1501 H 0.1697 0.31586 0.61271 0.0
H1502 H 0.13477 0.3656 0.60404 0.0
H1503 H 0.10991 0.35731 0.62563 0.0
H1504 H 0.10771 0.30287 0.63291 0.0
H1505 H 0.13193 0.31081 0.6108 0.0
H1506 H 0.13811 0.37244 0.56119 0.0
H1507 H 0.10747 0.36963 0.55204 0.0
H1508 H 0.07838 0.30929 0.56428 0.0
H1509 H 0.10913 0.31224 0.57316 0.0
H1510 H 0.1733 0.37766 0.53848 0.0
H1511 H 0.16393 0.37854 0.50629 0.0
H1512 H 0.11987 0.31814 0.50524 0.0
H1513 H 0.12951 0.31729 0.53724 0.0
H1514 H 0.20757 0.38038 0.55688 0.0
H1515 H 0.22681 0.38376 0.53074 0.0
H1516 H 0.18981 0.32274 0.51406 0.0
H1517 H 0.1707 0.31954 0.54011 0.0
O1518 O 0.19498 0.35926 0.68475 0.0
O1519 O 0.19175 0.33029 0.67769 0.0
O1520 O 0.07111 0.35135 0.54665 0.0
O1521 O 0.05546 0.32032 0.55287 0.0
C1522 C 0.17979 0.34711 0.58327 0.0
C1523 C 0.16704 0.34478 0.59685 0.0
C1524 C 0.14926 0.34307 0.59184 0.0
C1525 C 0.14449 0.34433 0.5733 0.0
C1526 C 0.15736 0.34693 0.55978 0.0
C1527 C 0.17492 0.34811 0.56476 0.0
C1528 C 0.19754 0.347 0.58851 0.0
C1529 C 0.2124 0.36266 0.59941 0.0
C1530 C 0.22705 0.36077 0.60788 0.0
C1531 C 0.227 0.34313 0.60565 0.0
C1532 C 0.21273 0.32795 0.59368 0.0
C1533 C 0.19816 0.32991 0.58514 0.0
C1534 C 0.17241 0.34421 0.61642 0.0
C1535 C 0.17699 0.35993 0.6291 0.0
C1536 C 0.18276 0.35982 0.64737 0.0
C1537 C 0.18406 0.34396 0.65326 0.0
C1538 C 0.17923 0.32811 0.64052 0.0
C1539 C 0.17339 0.32822 0.62228 0.0
C1540 C 0.13519 0.33883 0.60585 0.0
C1541 C 0.12892 0.35189 0.6103 0.0
C1542 C 0.11478 0.34717 0.6226 0.0
C1543 C 0.107 0.32948 0.63091 0.0
C1544 C 0.11364 0.31667 0.62681 0.0
C1545 C 0.12748 0.32121 0.61424 0.0
C1546 C 0.12582 0.34257 0.56789 0.0
C1547 C 0.1251 0.35862 0.56184 0.0
C1548 C 0.10758 0.35698 0.55666 0.0
C1549 C 0.09046 0.33923 0.55746 0.0
C1550 C 0.09128 0.32317 0.56352 0.0
C1551 C 0.10881 0.32483 0.56865 0.0
C1552 C 0.15201 0.34744 0.5402 0.0
C1553 C 0.16174 0.36459 0.53122 0.0
C1554 C 0.15641 0.36507 0.51288 0.0
C1555 C 0.14111 0.34844 0.50334 0.0
C1556 C 0.13155 0.33123 0.51234 0.0
C1557 C 0.13703 0.33071 0.53058 0.0
C1558 C 0.18781 0.34972 0.55035 0.0
C1559 C 0.20384 0.36772 0.54771 0.0
C1560 C 0.21469 0.36965 0.53275 0.0
C1561 C 0.20976 0.35352 0.52038 0.0
C1562 C 0.19404 0.33537 0.52347 0.0
C1563 C 0.18312 0.33351 0.53829 0.0
C1564 C 0.19047 0.34401 0.67261 0.0
C1565 C 0.07181 0.33741 0.55199 0.0
C1566 C 0.97544 0.38343 0.06344 0.0
C1567 C 0.99198 0.3926 0.05392 0.0
C1568 C 0.97281 0.39328 0.07844 0.0
C1569 C 0.98701 0.41274 0.0839 0.0
C1570 C 0.00327 0.42233 0.07374 0.0
C1571 C 0.00559 0.41211 0.05891 0.0
C1572 C 0.9553 0.38258 0.08897 0.0
C1573 C 0.01869 0.4431 0.07907 0.0
C1574 C 0.97779 0.44423 0.11774 0.0
C1575 C 0.98694 0.4432 0.13398 0.0
C1576 C 0.97729 0.43405 0.10131 0.0
C1577 C 0.98597 0.42246 0.10129 0.0
C1578 C 0.99464 0.4209 0.11784 0.0
C1579 C 0.99507 0.43134 0.13395 0.0
C1580 C 0.96801 0.43611 0.08389 0.0
C1581 C 0.00386 0.40854 0.11846 0.0
H1582 H 0.96486 0.36835 0.05959 0.0
H1583 H 0.01833 0.41931 0.05149 0.0
H1584 H 0.95952 0.3801 0.10278 0.0
H1585 H 0.94839 0.39141 0.09104 0.0
H1586 H 0.94469 0.36828 0.08184 0.0
H1587 H 0.02948 0.44901 0.06875 0.0
H1588 H 0.01236 0.45253 0.08071 0.0
H1589 H 0.02605 0.44391 0.0925 0.0
H1590 H 0.9715 0.45342 0.1178 0.0
H1591 H 0.00183 0.43027 0.14662 0.0
H1592 H 0.95734 0.42157 0.07732 0.0
H1593 H 0.97894 0.44347 0.07396 0.0
H1594 H 0.96084 0.44464 0.08645 0.0
H1595 H 0.99355 0.39345 0.11286 0.0
H1596 H 0.00908 0.40809 0.13263 0.0
H1597 H 0.01611 0.41436 0.10972 0.0
C1598 C 0.58087 0.5708 0.0977 0.0
C1599 C 0.59951 0.57608 0.09377 0.0
C1600 C 0.57194 0.55854 0.11164 0.0
C1601 C 0.58192 0.55144 0.12199 0.0
C1602 C 0.60061 0.55635 0.11785 0.0
C1603 C 0.6092 0.56862 0.10372 0.0
C1604 C 0.55195 0.55357 0.11556 0.0
C1605 C 0.61166 0.54903 0.12861 0.0
C1606 C 0.56376 0.53815 0.1691 0.0
C1607 C 0.5511 0.51809 0.16598 0.0
C1608 C 0.57472 0.54903 0.15516 0.0
C1609 C 0.57292 0.53961 0.13766 0.0
C1610 C 0.5609 0.5192 0.13472 0.0
C1611 C 0.55012 0.50866 0.14894 0.0
C1612 C 0.58747 0.57075 0.15889 0.0
C1613 C 0.55858 0.50864 0.11625 0.0
H1614 H 0.57326 0.57644 0.09 0.0
H1615 H 0.62362 0.57268 0.10072 0.0
H1616 H 0.5424 0.53757 0.11486 0.0
H1617 H 0.552 0.55936 0.12968 0.0
H1618 H 0.54588 0.55963 0.10573 0.0
H1619 H 0.62558 0.55322 0.12298 0.0
H1620 H 0.61434 0.55501 0.14314 0.0
H1621 H 0.60322 0.53296 0.12859 0.0
H1622 H 0.56477 0.54543 0.18236 0.0
H1623 H 0.54026 0.49317 0.14643 0.0
H1624 H 0.58162 0.57828 0.1508 0.0
H1625 H 0.60195 0.57546 0.15448 0.0
H1626 H 0.58871 0.57554 0.17366 0.0
H1627 H 0.55077 0.5126 0.10615 0.0
H1628 H 0.55056 0.4926 0.11683 0.0
H1629 H 0.57271 0.51305 0.11107 0.0
C1630 C 0.43615 0.02263 0.06608 0.0
C1631 C 0.41955 0.00493 0.06056 0.0
C1632 C 0.4468 0.02489 0.08263 0.0
C1633 C 0.44033 0.00926 0.09408 0.0
C1634 C 0.42369 0.9913 0.0884 0.0
C1635 C 0.41365 0.98929 0.0716 0.0
C1636 C 0.46476 0.04406 0.088 0.0
C1637 C 0.41608 0.97441 0.10038 0.0
C1638 C 0.471 0.00564 0.13253 0.0
C1639 C 0.46519 0.01182 0.14791 0.0
C1640 C 0.46389 0.00584 0.11474 0.0
C1641 C 0.45025 0.0118 0.11245 0.0
C1642 C 0.44478 0.01857 0.12801 0.0
C1643 C 0.45251 0.01869 0.14558 0.0
C1644 C 0.47044 0.99899 0.09848 0.0
C1645 C 0.43 0.02466 0.1262 0.0
H1646 H 0.44078 0.0347 0.05749 0.0
H1647 H 0.40074 0.97563 0.06742 0.0
H1648 H 0.46276 0.05115 0.10044 0.0
H1649 H 0.47679 0.04165 0.09148 0.0
H1650 H 0.46873 0.05415 0.07688 0.0
H1651 H 0.40303 0.96139 0.09388 0.0
H1652 H 0.42707 0.97038 0.10339 0.0
H1653 H 0.41264 0.97866 0.11373 0.0
H1654 H 0.48087 0.00037 0.13448 0.0
H1655 H 0.44797 0.0233 0.1576 0.0
H1656 H 0.47433 0.00935 0.08762 0.0
H1657 H 0.45863 0.98472 0.09246 0.0
H1658 H 0.48289 0.99736 0.10237 0.0
H1659 H 0.43405 0.03588 0.11619 0.0
H1660 H 0.4281 0.03053 0.13953 0.0
H1661 H 0.41608 0.01197 0.12088 0.0
C1662 C 0.42652 0.00373 0.96619 0.0
C1663 C 0.40809 0.9893 0.96975 0.0
C1664 C 0.43456 0.00247 0.94995 0.0
C1665 C 0.42389 0.98642 0.93689 0.0
C1666 C 0.40543 0.97156 0.94058 0.0
C1667 C 0.39775 0.97316 0.95701 0.0
C1668 C 0.45434 0.01857 0.9466 0.0
C1669 C 0.39365 0.95423 0.92698 0.0
C1670 C 0.4387 0.99586 0.88811 0.0
C1671 C 0.4505 0.98782 0.8868 0.0
C1672 C 0.42934 0.99483 0.9041 0.0
C1673 C 0.43196 0.98565 0.91917 0.0
C1674 C 0.44342 0.97701 0.91773 0.0
C1675 C 0.45254 0.97817 0.90154 0.0
C1676 C 0.41713 0.00412 0.90506 0.0
C1677 C 0.44668 0.96721 0.93353 0.0
H1678 H 0.43462 0.01622 0.97601 0.0
H1679 H 0.38348 0.96198 0.9597 0.0
H1680 H 0.46368 0.01247 0.94385 0.0
H1681 H 0.45368 0.02588 0.93426 0.0
H1682 H 0.46103 0.02967 0.95845 0.0
H1683 H 0.37991 0.94352 0.93225 0.0
H1684 H 0.39057 0.95913 0.91397 0.0
H1685 H 0.40175 0.94684 0.92363 0.0
H1686 H 0.43692 0.00313 0.87666 0.0
H1687 H 0.46184 0.97214 0.90069 0.0
H1688 H 0.42366 0.01656 0.91566 0.0
H1689 H 0.40277 0.99355 0.90922 0.0
H1690 H 0.41548 0.00947 0.89173 0.0
H1691 H 0.45477 0.97815 0.94523 0.0
H1692 H 0.45478 0.95993 0.92972 0.0
H1693 H 0.43285 0.95625 0.93841 0.0
C1694 C -1e-05 0.39373 0.95894 0.0
C1695 C 0.0152 0.39661 0.97101 0.0
C1696 C 0.00283 0.40627 0.94508 0.0
C1697 C 0.02131 0.42222 0.94337 0.0
C1698 C 0.03686 0.42493 0.95519 0.0
C1699 C 0.03362 0.41199 0.96886 0.0
C1700 C 0.9859 0.40276 0.93263 0.0
C1701 C 0.05673 0.44185 0.95382 0.0
C1702 C 0.02706 0.44588 0.89838 0.0
C1703 C 0.02272 0.46035 0.90314 0.0
C1704 C 0.02761 0.43388 0.91157 0.0
C1705 C 0.02391 0.43661 0.92991 0.0
C1706 C 0.02063 0.45197 0.93496 0.0
C1707 C 0.01997 0.46359 0.92148 0.0
C1708 C 0.03104 0.41759 0.90564 0.0
C1709 C 0.01684 0.45551 0.95441 0.0
H1710 H 0.98574 0.38176 0.96046 0.0
H1711 H 0.04541 0.41426 0.97819 0.0
H1712 H 0.98317 0.41496 0.93494 0.0
H1713 H 0.98893 0.4022 0.91801 0.0
H1714 H 0.97273 0.389 0.93501 0.0
H1715 H 0.06748 0.44108 0.96309 0.0
H1716 H 0.06089 0.44234 0.9395 0.0
H1717 H 0.05705 0.45566 0.95747 0.0
H1718 H 0.0291 0.44333 0.88416 0.0
H1719 H 0.01685 0.47496 0.92518 0.0
H1720 H 0.01763 0.40345 0.90599 0.0
H1721 H 0.04187 0.41741 0.91526 0.0
H1722 H 0.03587 0.41882 0.89151 0.0
H1723 H 0.00288 0.44329 0.95773 0.0
H1724 H 0.01656 0.46924 0.95648 0.0
H1725 H 0.02791 0.45613 0.9643 0.0
C1726 C 0.58385 0.57703 0.9985 0.0
C1727 C 0.58841 0.59495 0.00739 0.0
C1728 C 0.57418 0.57106 0.98097 0.0
C1729 C 0.56898 0.58332 0.97213 0.0
C1730 C 0.57273 0.601 0.98141 0.0
C1731 C 0.58243 0.60661 0.99896 0.0
C1732 C 0.57037 0.55206 0.97156 0.0
C1733 C 0.56735 0.61442 0.97245 0.0
C1734 C 0.56716 0.5786 0.92016 0.0
C1735 C 0.54757 0.56668 0.91543 0.0
C1736 C 0.57422 0.58461 0.93854 0.0
C1737 C 0.56136 0.57848 0.95256 0.0
C1738 C 0.54148 0.56694 0.94784 0.0
C1739 C 0.5348 0.56121 0.92927 0.0
C1740 C 0.59551 0.59706 0.94299 0.0
C1741 C 0.52737 0.56011 0.96243 0.0
H1742 H 0.58835 0.56791 0.005 0.0
H1743 H 0.58587 0.62045 0.00581 0.0
H1744 H 0.55519 0.54316 0.96626 0.0
H1745 H 0.57913 0.55499 0.95959 0.0
H1746 H 0.57377 0.54344 0.98089 0.0
H1747 H 0.56939 0.62653 0.98219 0.0
H1748 H 0.57626 0.62069 0.96076 0.0
H1749 H 0.55225 0.60624 0.9668 0.0
H1750 H 0.57702 0.58307 0.90943 0.0
H1751 H 0.51964 0.55188 0.92563 0.0
H1752 H 0.6007 0.58897 0.95107 0.0
H1753 H 0.59888 0.6104 0.95156 0.0
H1754 H 0.60347 0.60139 0.93043 0.0
H1755 H 0.52943 0.55001 0.97087 0.0
H1756 H 0.51236 0.5525 0.95643 0.0
H1757 H 0.5298 0.57261 0.97181 0.0
C1758 C 0.02538 0.60664 0.00097 0.0
C1759 C 0.00719 0.60436 0.00188 0.0
C1760 C 0.02923 0.59704 0.98663 0.0
C1761 C 0.01468 0.58541 0.97268 0.0
C1762 C 0.99632 0.58315 0.97356 0.0
C1763 C 0.99274 0.59244 0.98829 0.0
C1764 C 0.04881 0.59935 0.98638 0.0
C1765 C 0.98053 0.57123 0.95875 0.0
C1766 C 0.02606 0.57569 0.92495 0.0
C1767 C 0.02018 0.55592 0.92481 0.0
C1768 C 0.02514 0.58576 0.94075 0.0
C1769 C 0.01855 0.57586 0.95685 0.0
C1770 C 0.01375 0.55617 0.95706 0.0
C1771 C 0.01434 0.54633 0.94091 0.0
C1772 C 0.02997 0.6066 0.93982 0.0
C1773 C 0.0071 0.54525 0.97407 0.0
H1774 H 0.03654 0.61579 0.01154 0.0
H1775 H 0.97871 0.5908 0.9889 0.0
H1776 H 0.04762 0.58486 0.98564 0.0
H1777 H 0.05566 0.60652 0.97397 0.0
H1778 H 0.05824 0.60811 0.99873 0.0
H1779 H 0.96717 0.57125 0.96133 0.0
H1780 H 0.98513 0.57702 0.94521 0.0
H1781 H 0.97737 0.55597 0.95781 0.0
H1782 H 0.03033 0.58296 0.91236 0.0
H1783 H 0.00979 0.531 0.94069 0.0
H1784 H 0.04014 0.61589 0.95152 0.0
H1785 H 0.01683 0.60745 0.94088 0.0
H1786 H 0.03627 0.61263 0.9268 0.0
H1787 H 0.01674 0.55399 0.98629 0.0
H1788 H 0.00648 0.53101 0.97275 0.0
H1789 H 0.99265 0.54258 0.97657 0.0
C1790 C 0.41304 0.41797 0.95002 0.0
C1791 C 0.39981 0.42019 0.95998 0.0
C1792 C 0.42277 0.43052 0.93654 0.0
C1793 C 0.41943 0.44591 0.93309 0.0
C1794 C 0.40609 0.44827 0.9431 0.0
C1795 C 0.39629 0.43525 0.95637 0.0
C1796 C 0.43669 0.42733 0.926 0.0
C1797 C 0.40237 0.46467 0.93995 0.0
C1798 C 0.46011 0.48655 0.91052 0.0
C1799 C 0.45335 0.482 0.89195 0.0
C1800 C 0.44871 0.47564 0.92422 0.0
C1801 C 0.43026 0.45958 0.91917 0.0
C1802 C 0.42309 0.45542 0.90049 0.0
C1803 C 0.4347 0.4668 0.88709 0.0
C1804 C 0.45675 0.48076 0.94401 0.0
C1805 C 0.40362 0.43827 0.89451 0.0
H1806 H 0.41572 0.40626 0.95267 0.0
H1807 H 0.3861 0.43702 0.96408 0.0
H1808 H 0.43274 0.42561 0.91102 0.0
H1809 H 0.45124 0.44019 0.92855 0.0
H1810 H 0.43716 0.41428 0.92992 0.0
H1811 H 0.39142 0.46439 0.94874 0.0
H1812 H 0.41578 0.47882 0.9429 0.0
H1813 H 0.39753 0.46385 0.92534 0.0
H1814 H 0.47447 0.49847 0.91427 0.0
H1815 H 0.42953 0.46323 0.87271 0.0
H1816 H 0.45955 0.46935 0.94875 0.0
H1817 H 0.44632 0.48131 0.95294 0.0
H1818 H 0.4703 0.49496 0.94588 0.0
H1819 H 0.40362 0.42458 0.8966 0.0
H1820 H 0.39943 0.43814 0.8798 0.0
H1821 H 0.39267 0.43837 0.90299 0.0
C1822 C 0.5742 0.97618 0.98159 0.0
C1823 C 0.57516 0.98847 0.99646 0.0
C1824 C 0.56464 0.97495 0.96469 0.0
C1825 C 0.55557 0.98603 0.96275 0.0
C1826 C 0.55535 0.99739 0.97811 0.0
C1827 C 0.56532 0.99862 0.99476 0.0
C1828 C 0.56539 0.96285 0.94858 0.0
C1829 C 0.54551 0.0091 0.97669 0.0
C1830 C 0.55386 0.00374 0.91582 0.0
C1831 C 0.53522 0.99033 0.90877 0.0
C1832 C 0.56061 0.00241 0.93334 0.0
C1833 C 0.54829 0.9875 0.94422 0.0
C1834 C 0.52934 0.97405 0.93725 0.0
C1835 C 0.52307 0.97549 0.91947 0.0
C1836 C 0.58103 0.01684 0.94012 0.0
C1837 C 0.51571 0.95822 0.94859 0.0
H1838 H 0.58182 0.96833 0.98283 0.0
H1839 H 0.56592 0.00803 0.00628 0.0
H1840 H 0.55095 0.95332 0.94167 0.0
H1841 H 0.57444 0.97258 0.93833 0.0
H1842 H 0.57136 0.95365 0.95278 0.0
H1843 H 0.54442 0.01499 0.99038 0.0
H1844 H 0.55362 0.02146 0.96819 0.0
H1845 H 0.53096 6e-05 0.9698 0.0
H1846 H 0.56328 0.01507 0.90742 0.0
H1847 H 0.50862 0.9652 0.91398 0.0
H1848 H 0.58873 0.00905 0.94345 0.0
H1849 H 0.58139 0.02509 0.95292 0.0
H1850 H 0.58881 0.02736 0.92982 0.0
H1851 H 0.52131 0.9485 0.95189 0.0
H1852 H 0.50127 0.94932 0.9414 0.0
H1853 H 0.51443 0.96471 0.96184 0.0
C1854 C 0.59499 0.02868 0.09291 0.0
C1855 C 0.59359 0.0109 0.0875 0.0
C1856 C 0.58683 0.03077 0.10883 0.0
C1857 C 0.57725 0.01475 0.11963 0.0
C1858 C 0.57618 0.99691 0.11439 0.0
C1859 C 0.58427 0.99518 0.09837 0.0
C1860 C 0.5881 0.04996 0.1139 0.0
C1861 C 0.56625 0.97951 0.1256 0.0
C1862 C 0.56743 0.02046 0.16927 0.0
C1863 C 0.54783 0.01372 0.16749 0.0
C1864 C 0.57745 0.02163 0.15371 0.0
C1865 C 0.56762 0.01617 0.13601 0.0
C1866 C 0.54802 0.01031 0.13414 0.0
C1867 C 0.53834 0.00903 0.14992 0.0
C1868 C 0.5983 0.02779 0.15627 0.0
C1869 C 0.53706 0.00462 0.11553 0.0
H1870 H 0.60218 0.04087 0.08453 0.0
H1871 H 0.58325 0.98143 0.09433 0.0
H1872 H 0.57356 0.04795 0.11352 0.0
H1873 H 0.59461 0.05536 0.12814 0.0
H1874 H 0.59664 0.0612 0.10446 0.0
H1875 H 0.56743 0.96697 0.1201 0.0
H1876 H 0.57241 0.98343 0.14006 0.0
H1877 H 0.55091 0.97487 0.12574 0.0
H1878 H 0.57475 0.02405 0.18288 0.0
H1879 H 0.52321 0.0041 0.14855 0.0
H1880 H 0.60672 0.03934 0.14708 0.0
H1881 H 0.60012 0.01523 0.15246 0.0
H1882 H 0.60424 0.03323 0.17068 0.0
H1883 H 0.54474 0.01601 0.10595 0.0
H1884 H 0.52244 0.0023 0.11631 0.0
H1885 H 0.53587 0.99098 0.10958 0.0
C1886 C 0.99869 0.60367 0.0983 0.0
C1887 C 0.9836 0.59953 0.08541 0.0
C1888 C 0.99629 0.59131 0.11221 0.0
C1889 C 0.9784 0.57426 0.11321 0.0
C1890 C 0.96292 0.57026 0.10058 0.0
C1891 C 0.96569 0.58302 0.08683 0.0
C1892 C 0.01313 0.59621 0.1255 0.0
C1893 C 0.94365 0.55219 0.10121 0.0
C1894 C 0.98244 0.53464 0.13593 0.0
C1895 C 0.9783 0.53703 0.15397 0.0
C1896 C 0.98152 0.54598 0.12228 0.0
C1897 C 0.97647 0.56017 0.1268 0.0
C1898 C 0.97148 0.56208 0.14481 0.0
C1899 C 0.9724 0.55042 0.15819 0.0
C1900 C 0.98677 0.54335 0.1032 0.0
C1901 C 0.96613 0.57711 0.15019 0.0
H1902 H 0.01253 0.61651 0.09736 0.0
H1903 H 0.954 0.57977 0.07688 0.0
H1904 H 0.00923 0.59623 0.13987 0.0
H1905 H 0.01727 0.58498 0.12364 0.0
H1906 H 0.02572 0.61062 0.12356 0.0
H1907 H 0.93273 0.55194 0.09136 0.0
H1908 H 0.94481 0.53914 0.09787 0.0
H1909 H 0.9387 0.5511 0.11526 0.0
H1910 H 0.98672 0.52407 0.13258 0.0
H1911 H 0.96927 0.55236 0.17215 0.0
H1912 H 0.00031 0.55648 0.1004 0.0
H1913 H 0.97563 0.54165 0.09275 0.0
H1914 H 0.98863 0.53051 0.10147 0.0
H1915 H 0.97884 0.59186 0.15018 0.0
H1916 H 0.96064 0.57533 0.16407 0.0
H1917 H 0.95513 0.57627 0.14007 0.0
C1918 C 0.40736 0.41434 0.05943 0.0
C1919 C 0.40885 0.40158 0.04669 0.0
C1920 C 0.41783 0.42003 0.07656 0.0
C1921 C 0.43035 0.41308 0.08092 0.0
C1922 C 0.43236 0.40065 0.0679 0.0
C1923 C 0.42142 0.39488 0.05096 0.0
C1924 C 0.41508 0.4331 0.09017 0.0
C1925 C 0.44584 0.39325 0.07196 0.0
C1926 C 0.46666 0.44206 0.12094 0.0
C1927 C 0.45791 0.43077 0.13553 0.0
C1928 C 0.45838 0.43596 0.10286 0.0
C1929 C 0.44074 0.41835 0.09942 0.0
C1930 C 0.4322 0.40658 0.11405 0.0
C1931 C 0.44098 0.41288 0.13193 0.0
C1932 C 0.4681 0.44871 0.08757 0.0
C1933 C 0.41326 0.38786 0.11101 0.0
H1934 H 0.39759 0.41947 0.05622 0.0
H1935 H 0.42266 0.38507 0.0411 0.0
H1936 H 0.40964 0.42557 0.10284 0.0
H1937 H 0.42893 0.44648 0.09421 0.0
H1938 H 0.40491 0.43736 0.08457 0.0
H1939 H 0.44664 0.38469 0.05994 0.0
H1940 H 0.46037 0.40561 0.0761 0.0
H1941 H 0.44111 0.38391 0.08364 0.0
H1942 H 0.47984 0.45585 0.12374 0.0
H1943 H 0.4341 0.40426 0.14326 0.0
H1944 H 0.45958 0.45512 0.0825 0.0
H1945 H 0.469 0.43997 0.07581 0.0
H1946 H 0.4827 0.46074 0.09215 0.0
H1947 H 0.40196 0.3911 0.10674 0.0
H1948 H 0.40918 0.37977 0.12358 0.0
H1949 H 0.41373 0.37831 0.09977 0.0
C1950 C 0.66925 0.74461 0.3949 0.0
C1951 C 0.65559 0.7255 0.38853 0.0
C1952 C 0.66628 0.75395 0.41004 0.0
C1953 C 0.6493 0.74386 0.41912 0.0
C1954 C 0.63516 0.72479 0.41237 0.0
C1955 C 0.63845 0.71585 0.39708 0.0
C1956 C 0.68164 0.77435 0.41675 0.0
C1957 C 0.61692 0.71355 0.42175 0.0
C1958 C 0.65403 0.75963 0.46967 0.0
C1959 C 0.64603 0.77161 0.4696 0.0
C1960 C 0.65463 0.75006 0.45338 0.0
C1961 C 0.64719 0.75267 0.43658 0.0
C1962 C 0.63866 0.76438 0.43646 0.0
C1963 C 0.63808 0.77366 0.45305 0.0
C1964 C 0.66363 0.7375 0.45413 0.0
C1965 C 0.6307 0.76758 0.41878 0.0
H1966 H 0.68247 0.75219 0.38824 0.0
H1967 H 0.62784 0.70108 0.39218 0.0
H1968 H 0.67545 0.78391 0.41832 0.0
H1969 H 0.68795 0.77422 0.43047 0.0
H1970 H 0.69324 0.78075 0.40727 0.0
H1971 H 0.60669 0.69956 0.41389 0.0
H1972 H 0.62024 0.7104 0.43563 0.0
H1973 H 0.60993 0.72231 0.42363 0.0
H1974 H 0.65989 0.7578 0.48253 0.0
H1975 H 0.63193 0.78297 0.45302 0.0
H1976 H 0.67654 0.74379 0.44627 0.0
H1977 H 0.65358 0.72273 0.44761 0.0
H1978 H 0.66781 0.73617 0.46843 0.0
H1979 H 0.64239 0.77542 0.40969 0.0
H1980 H 0.62354 0.77614 0.42117 0.0
H1981 H 0.62031 0.75342 0.41134 0.0
C1982 C 0.27644 0.90401 0.44012 0.0
C1983 C 0.26665 0.911 0.42963 0.0
C1984 C 0.26789 0.89219 0.45454 0.0
C1985 C 0.24915 0.88729 0.45847 0.0
C1986 C 0.23912 0.89405 0.44769 0.0
C1987 C 0.24799 0.90582 0.43343 0.0
C1988 C 0.27898 0.88523 0.46576 0.0
C1989 C 0.21909 0.8891 0.45139 0.0
C1990 C 0.21732 0.84464 0.48551 0.0
C1991 C 0.21806 0.85411 0.50245 0.0
C1992 C 0.22817 0.85515 0.47132 0.0
C1993 C 0.24001 0.87559 0.47416 0.0
C1994 C 0.24154 0.88508 0.49155 0.0
C1995 C 0.23053 0.87423 0.50548 0.0
C1996 C 0.22614 0.84451 0.45297 0.0
C1997 C 0.2541 0.90684 0.49516 0.0
H1998 H 0.29086 0.90799 0.43722 0.0
H1999 H 0.24033 0.91113 0.42534 0.0
H2000 H 0.28124 0.89121 0.48026 0.0
H2001 H 0.27075 0.86915 0.46575 0.0
H2002 H 0.2931 0.88966 0.46048 0.0
H2003 H 0.21308 0.89507 0.4414 0.0
H2004 H 0.20956 0.8731 0.45078 0.0
H2005 H 0.21902 0.89499 0.46544 0.0
H2006 H 0.2076 0.82912 0.48306 0.0
H2007 H 0.23137 0.88155 0.51866 0.0
H2008 H 0.24037 0.84891 0.44805 0.0
H2009 H 0.21847 0.8484 0.44264 0.0
H2010 H 0.21811 0.82847 0.45362 0.0
H2011 H 0.26867 0.91165 0.49096 0.0
H2012 H 0.25513 0.91173 0.50988 0.0
H2013 H 0.24823 0.9142 0.48684 0.0
C2014 C 0.10282 0.36047 0.40471 0.0
C2015 C 0.09579 0.3431 0.39362 0.0
C2016 C 0.11237 0.36309 0.42201 0.0
C2017 C 0.11504 0.34802 0.42825 0.0
C2018 C 0.10905 0.33098 0.41659 0.0
C2019 C 0.09942 0.32869 0.39944 0.0
C2020 C 0.11854 0.38146 0.43405 0.0
C2021 C 0.11181 0.31467 0.42265 0.0
C2022 C 0.1479 0.35705 0.47083 0.0
C2023 C 0.13473 0.34905 0.4842 0.0
C2024 C 0.14178 0.35706 0.45254 0.0
C2025 C 0.12208 0.34905 0.44763 0.0
C2026 C 0.1088 0.34134 0.4612 0.0
C2027 C 0.11528 0.34138 0.47929 0.0
C2028 C 0.15632 0.36525 0.43842 0.0
C2029 C 0.08767 0.33282 0.45657 0.0
H2030 H 0.10006 0.37166 0.40026 0.0
H2031 H 0.09414 0.31529 0.39086 0.0
H2032 H 0.10939 0.37802 0.44577 0.0
H2033 H 0.13346 0.38768 0.43987 0.0
H2034 H 0.11745 0.39264 0.42644 0.0
H2035 H 0.10834 0.30344 0.41124 0.0
H2036 H 0.12674 0.32041 0.42818 0.0
H2037 H 0.10245 0.3076 0.43386 0.0
H2038 H 0.16294 0.36289 0.4746 0.0
H2039 H 0.10511 0.33546 0.48967 0.0
H2040 H 0.15508 0.37665 0.43141 0.0
H2041 H 0.15355 0.35361 0.42774 0.0
H2042 H 0.17116 0.37161 0.44461 0.0
H2043 H 0.08502 0.34371 0.45027 0.0
H2044 H 0.07932 0.32803 0.46885 0.0
H2045 H 0.08229 0.32014 0.44635 0.0
C2046 C 0.06199 0.31502 0.28339 0.0
C2047 C 0.06942 0.31257 0.30007 0.0
C2048 C 0.06906 0.31318 0.26667 0.0
C2049 C 0.08368 0.30845 0.26663 0.0
C2050 C 0.09046 0.3049 0.28334 0.0
C2051 C 0.08337 0.30718 0.29989 0.0
C2052 C 0.06164 0.31734 0.24919 0.0
C2053 C 0.10578 0.29947 0.28384 0.0
C2054 C 0.0954 0.29289 0.2213 0.0
C2055 C 0.11184 0.31007 0.2174 0.0
C2056 C 0.08602 0.29209 0.23725 0.0
C2057 C 0.09307 0.30895 0.24945 0.0
C2058 C 0.10943 0.3264 0.24545 0.0
C2059 C 0.1187 0.32669 0.22962 0.0
C2060 C 0.06875 0.27317 0.24119 0.0
C2061 C 0.11732 0.34476 0.25803 0.0
H2062 H 0.05124 0.31925 0.28347 0.0
H2063 H 0.08907 0.30515 0.31275 0.0
H2064 H 0.07312 0.33083 0.244 0.0
H2065 H 0.0574 0.3054 0.23836 0.0
H2066 H 0.0492 0.31924 0.2513 0.0
H2067 H 0.10803 0.29519 0.29757 0.0
H2068 H 0.10201 0.28727 0.27344 0.0
H2069 H 0.11945 0.31201 0.28036 0.0
H2070 H 0.08982 0.28002 0.21188 0.0
H2071 H 0.13162 0.33992 0.22705 0.0
H2072 H 0.05628 0.27517 0.24244 0.0
H2073 H 0.07142 0.2685 0.25451 0.0
H2074 H 0.06503 0.26138 0.23029 0.0
H2075 H 0.10604 0.34844 0.26018 0.0
H2076 H 0.1296 0.35735 0.2525 0.0
H2077 H 0.12204 0.34247 0.27169 0.0
C2078 C 0.69826 0.74068 0.29632 0.0
C2079 C 0.68126 0.73399 0.30504 0.0
C2080 C 0.70225 0.75277 0.28176 0.0
C2081 C 0.68896 0.75833 0.27593 0.0
C2082 C 0.6719 0.75178 0.28486 0.0
C2083 C 0.66823 0.73964 0.29926 0.0
C2084 C 0.72054 0.75941 0.27249 0.0
C2085 C 0.65743 0.75749 0.27913 0.0
C2086 C 0.70329 0.80266 0.24913 0.0
C2087 C 0.69547 0.79407 0.23137 0.0
C2088 C 0.70194 0.79124 0.26368 0.0
C2089 C 0.69262 0.77078 0.26033 0.0
C2090 C 0.68541 0.76211 0.24227 0.0
C2091 C 0.68687 0.77387 0.22801 0.0
C2092 C 0.70969 0.80101 0.28277 0.0
C2093 C 0.67553 0.74036 0.23813 0.0
H2094 H 0.70835 0.73632 0.30074 0.0
H2095 H 0.6551 0.73456 0.30599 0.0
H2096 H 0.71725 0.7542 0.25772 0.0
H2097 H 0.72894 0.77553 0.27323 0.0
H2098 H 0.72949 0.75402 0.27882 0.0
H2099 H 0.64507 0.75149 0.28776 0.0
H2100 H 0.66423 0.77356 0.28008 0.0
H2101 H 0.65206 0.75221 0.26459 0.0
H2102 H 0.70979 0.81826 0.25182 0.0
H2103 H 0.68102 0.76722 0.21424 0.0
H2104 H 0.71905 0.79607 0.28898 0.0
H2105 H 0.69772 0.79688 0.29168 0.0
H2106 H 0.71792 0.81711 0.2828 0.0
H2107 H 0.68457 0.73469 0.24359 0.0
H2108 H 0.67217 0.73607 0.22315 0.0
H2109 H 0.66202 0.73325 0.24504 0.0
C2110 C 0.24909 0.90918 0.33367 0.0
C2111 C 0.25471 0.92769 0.34185 0.0
C2112 C 0.2394 0.90298 0.31616 0.0
C2113 C 0.23525 0.91561 0.30661 0.0
C2114 C 0.24006 0.93395 0.31517 0.0
C2115 C 0.24976 0.93978 0.33271 0.0
C2116 C 0.23444 0.88329 0.30752 0.0
C2117 C 0.2358 0.94778 0.30544 0.0
C2118 C 0.23306 0.90943 0.25466 0.0
C2119 C 0.21336 0.89867 0.24999 0.0
C2120 C 0.24031 0.91533 0.27302 0.0
C2121 C 0.22754 0.91036 0.28707 0.0
C2122 C 0.20762 0.89987 0.28244 0.0
C2123 C 0.20074 0.89416 0.26391 0.0
C2124 C 0.26167 0.9266 0.27738 0.0
C2125 C 0.19359 0.8943 0.29707 0.0
H2126 H 0.25281 0.89974 0.34071 0.0
H2127 H 0.25401 0.95409 0.339 0.0
H2128 H 0.21923 0.87501 0.30221 0.0
H2129 H 0.24313 0.88517 0.29564 0.0
H2130 H 0.23709 0.87454 0.31736 0.0
H2131 H 0.23869 0.96059 0.31465 0.0
H2132 H 0.24474 0.95301 0.29361 0.0
H2133 H 0.22067 0.94024 0.2999 0.0
H2134 H 0.24285 0.91321 0.2439 0.0
H2135 H 0.1855 0.88573 0.26035 0.0
H2136 H 0.266 0.9182 0.28604 0.0
H2137 H 0.26597 0.94054 0.28534 0.0
H2138 H 0.26963 0.9298 0.2648 0.0
H2139 H 0.19516 0.88431 0.3061 0.0
H2140 H 0.17858 0.88704 0.29113 0.0
H2141 H 0.19662 0.90739 0.30587 0.0
C2142 C 0.69617 0.93891 0.33193 0.0
C2143 C 0.67736 0.93504 0.33223 0.0
C2144 C 0.70143 0.93024 0.31796 0.0
C2145 C 0.68758 0.91767 0.30387 0.0
C2146 C 0.66852 0.91355 0.30426 0.0
C2147 C 0.66362 0.92219 0.31851 0.0
C2148 C 0.72182 0.93475 0.31811 0.0
C2149 C 0.65339 0.90039 0.28936 0.0
C2150 C 0.70206 0.91092 0.25674 0.0
C2151 C 0.6991 0.89204 0.25676 0.0
C2152 C 0.69902 0.91972 0.27225 0.0
C2153 C 0.69306 0.90944 0.28821 0.0
C2154 C 0.6909 0.89071 0.2886 0.0
C2155 C 0.69379 0.88214 0.27277 0.0
C2156 C 0.70122 0.93959 0.27119 0.0
C2157 C 0.68482 0.87943 0.30546 0.0
H2158 H 0.70681 0.94877 0.34259 0.0
H2159 H 0.64906 0.9192 0.31867 0.0
H2160 H 0.72226 0.92106 0.3173 0.0
H2161 H 0.72843 0.94254 0.30587 0.0
H2162 H 0.73056 0.94385 0.33064 0.0
H2163 H 0.63916 0.8984 0.29188 0.0
H2164 H 0.65746 0.90656 0.27587 0.0
H2165 H 0.65221 0.88591 0.28835 0.0
H2166 H 0.70587 0.91846 0.24426 0.0
H2167 H 0.69155 0.86755 0.27277 0.0
H2168 H 0.7108 0.94958 0.28291 0.0
H2169 H 0.68714 0.9385 0.27218 0.0
H2170 H 0.70705 0.9461 0.25818 0.0
H2171 H 0.69385 0.88858 0.31782 0.0
H2172 H 0.68571 0.86599 0.30419 0.0
H2173 H 0.66988 0.8753 0.30772 0.0
C2174 C 0.075 0.74901 0.28117 0.0
C2175 C 0.06523 0.75372 0.29388 0.0
C2176 C 0.08487 0.76157 0.26772 0.0
C2177 C 0.08507 0.77936 0.26699 0.0
C2178 C 0.07499 0.7841 0.2796 0.0
C2179 C 0.06513 0.77118 0.29291 0.0
C2180 C 0.09535 0.75591 0.25448 0.0
C2181 C 0.07493 0.80296 0.27923 0.0
C2182 C 0.12731 0.81766 0.24401 0.0
C2183 C 0.1194 0.81566 0.22605 0.0
C2184 C 0.11607 0.8066 0.25773 0.0
C2185 C 0.09644 0.79315 0.25335 0.0
C2186 C 0.0882 0.79165 0.23544 0.0
C2187 C 0.09978 0.80297 0.22199 0.0
C2188 C 0.12537 0.80875 0.2767 0.0
C2189 C 0.06735 0.77743 0.23022 0.0
H2190 H 0.07506 0.7355 0.28179 0.0
H2191 H 0.05759 0.77487 0.30271 0.0
H2192 H 0.09045 0.75605 0.2401 0.0
H2193 H 0.11086 0.76665 0.25628 0.0
H2194 H 0.09322 0.74125 0.25648 0.0
H2195 H 0.06576 0.80412 0.28947 0.0
H2196 H 0.08967 0.8154 0.28214 0.0
H2197 H 0.06981 0.80431 0.26536 0.0
H2198 H 0.14242 0.8277 0.24727 0.0
H2199 H 0.09363 0.8013 0.2081 0.0
H2200 H 0.1254 0.79519 0.27939 0.0
H2201 H 0.11716 0.81103 0.28729 0.0
H2202 H 0.14033 0.82107 0.27832 0.0
H2203 H 0.06465 0.76236 0.23034 0.0
H2204 H 0.06274 0.77941 0.21635 0.0
H2205 H 0.05838 0.77904 0.24039 0.0
C2206 C 0.23081 0.30834 0.32337 0.0
C2207 C 0.24613 0.32714 0.32831 0.0
C2208 C 0.2198 0.30408 0.30663 0.0
C2209 C 0.2244 0.31893 0.29453 0.0
C2210 C 0.23964 0.338 0.29963 0.0
C2211 C 0.25025 0.34189 0.3165 0.0
C2212 C 0.20351 0.28363 0.30172 0.0
C2213 C 0.24509 0.35421 0.28704 0.0
C2214 C 0.2121 0.30685 0.24319 0.0
C2215 C 0.19704 0.31047 0.24048 0.0
C2216 C 0.22069 0.30886 0.26083 0.0
C2217 C 0.21394 0.31449 0.27613 0.0
C2218 C 0.19819 0.31734 0.27357 0.0
C2219 C 0.18999 0.31542 0.25573 0.0
C2220 C 0.23758 0.30588 0.26297 0.0
C2221 C 0.19043 0.32309 0.28957 0.0
H2222 H 0.22754 0.29691 0.33249 0.0
H2223 H 0.26209 0.35645 0.32024 0.0
H2224 H 0.19021 0.28379 0.29809 0.0
H2225 H 0.2066 0.27723 0.28947 0.0
H2226 H 0.20099 0.27408 0.31314 0.0
H2227 H 0.25701 0.36834 0.29327 0.0
H2228 H 0.24945 0.35053 0.27397 0.0
H2229 H 0.23265 0.35595 0.28358 0.0
H2230 H 0.21772 0.30325 0.2314 0.0
H2231 H 0.17822 0.31805 0.25365 0.0
H2232 H 0.23529 0.29551 0.27352 0.0
H2233 H 0.25056 0.31988 0.26776 0.0
H2234 H 0.24026 0.3003 0.24989 0.0
H2235 H 0.18772 0.31318 0.30067 0.0
H2236 H 0.17699 0.32286 0.28551 0.0
H2237 H 0.20114 0.33798 0.29536 0.0
C2238 C 0.24107 0.34478 0.42104 0.0
C2239 C 0.26083 0.35409 0.41971 0.0
C2240 C 0.23347 0.34659 0.43741 0.0
C2241 C 0.24595 0.35783 0.45287 0.0
C2242 C 0.26592 0.36792 0.45138 0.0
C2243 C 0.27313 0.36599 0.43477 0.0
C2244 C 0.21208 0.33581 0.43836 0.0
C2245 C 0.27968 0.38001 0.46758 0.0
C2246 C 0.22425 0.37061 0.4924 0.0
C2247 C 0.22043 0.35563 0.50385 0.0
C2248 C 0.23296 0.37182 0.47592 0.0
C2249 C 0.23808 0.35779 0.4709 0.0
C2250 C 0.23479 0.343 0.48272 0.0
C2251 C 0.22593 0.34205 0.49901 0.0
C2252 C 0.23609 0.38769 0.46361 0.0
C2253 C 0.2402 0.32787 0.47795 0.0
H2254 H 0.2315 0.33565 0.40941 0.0
H2255 H 0.28843 0.37319 0.43381 0.0
H2256 H 0.20792 0.32421 0.44799 0.0
H2257 H 0.20738 0.34581 0.44375 0.0
H2258 H 0.20435 0.32901 0.42473 0.0
H2259 H 0.29465 0.38821 0.46376 0.0
H2260 H 0.27579 0.39046 0.47357 0.0
H2261 H 0.27883 0.3704 0.47846 0.0
H2262 H 0.21982 0.381 0.49601 0.0
H2263 H 0.22316 0.33058 0.50795 0.0
H2264 H 0.22707 0.38115 0.45054 0.0
H2265 H 0.25115 0.39568 0.46007 0.0
H2266 H 0.23253 0.39823 0.47008 0.0
H2267 H 0.23181 0.319 0.46522 0.0
H2268 H 0.23761 0.31799 0.48908 0.0
H2269 H 0.25549 0.33502 0.4752 0.0
C2270 C 0.63328 0.92013 0.42348 0.0
C2271 C 0.64656 0.92228 0.41081 0.0
C2272 C 0.6302 0.90842 0.43822 0.0
C2273 C 0.6404 0.89843 0.44005 0.0
C2274 C 0.6531 0.89984 0.42674 0.0
C2275 C 0.65616 0.9119 0.41239 0.0
C2276 C 0.61673 0.90745 0.45227 0.0
C2277 C 0.664 0.88915 0.428 0.0
C2278 C 0.65276 0.88647 0.48637 0.0
C2279 C 0.63977 0.86648 0.48606 0.0
C2280 C 0.65245 0.89722 0.47186 0.0
C2281 C 0.63904 0.88766 0.45653 0.0
C2282 C 0.62549 0.86758 0.45642 0.0
C2283 C 0.62593 0.85723 0.4713 0.0
C2284 C 0.66695 0.91868 0.47265 0.0
C2285 C 0.61113 0.85685 0.44023 0.0
H2286 H 0.6259 0.92822 0.4223 0.0
H2287 H 0.6663 0.9134 0.4025 0.0
H2288 H 0.60637 0.89211 0.45456 0.0
H2289 H 0.62493 0.9146 0.46562 0.0
H2290 H 0.60872 0.91472 0.44807 0.0
H2291 H 0.67204 0.89046 0.41571 0.0
H2292 H 0.67427 0.89506 0.44033 0.0
H2293 H 0.65409 0.8735 0.42957 0.0
H2294 H 0.6633 0.89364 0.49793 0.0
H2295 H 0.61595 0.84174 0.47106 0.0
H2296 H 0.65977 0.92708 0.46979 0.0
H2297 H 0.67708 0.92145 0.46191 0.0
H2298 H 0.67521 0.92422 0.48622 0.0
H2299 H 0.60344 0.86458 0.43662 0.0
H2300 H 0.60053 0.8417 0.44297 0.0
H2301 H 0.61867 0.85638 0.42807 0.0
C2302 C 0.09196 0.75555 0.38426 0.0
C2303 C 0.07855 0.73575 0.38052 0.0
C2304 C 0.10251 0.76258 0.40136 0.0
C2305 C 0.09931 0.74952 0.41509 0.0
C2306 C 0.08638 0.72939 0.41108 0.0
C2307 C 0.07626 0.72273 0.39378 0.0
C2308 C 0.11643 0.7841 0.40503 0.0
C2309 C 0.08239 0.71503 0.42542 0.0
C2310 C 0.13294 0.76512 0.45832 0.0
C2311 C 0.12346 0.77062 0.47067 0.0
C2312 C 0.12545 0.75852 0.44004 0.0
C2313 C 0.10794 0.75708 0.43416 0.0
C2314 C 0.09829 0.76254 0.44666 0.0
C2315 C 0.10624 0.76936 0.46472 0.0
C2316 C 0.13625 0.75309 0.42702 0.0
C2317 C 0.07943 0.76094 0.44103 0.0
H2318 H 0.09386 0.76564 0.374 0.0
H2319 H 0.06589 0.7074 0.39095 0.0
H2320 H 0.11078 0.79045 0.41504 0.0
H2321 H 0.13028 0.78665 0.41119 0.0
H2322 H 0.11896 0.79192 0.39231 0.0
H2323 H 0.07316 0.69974 0.41966 0.0
H2324 H 0.09591 0.71677 0.43158 0.0
H2325 H 0.07517 0.71789 0.43668 0.0
H2326 H 0.14632 0.76621 0.46293 0.0
H2327 H 0.09878 0.77336 0.47435 0.0
H2328 H 0.13928 0.76171 0.41483 0.0
H2329 H 0.12742 0.73755 0.42198 0.0
H2330 H 0.14995 0.75558 0.43359 0.0
H2331 H 0.08106 0.76995 0.42936 0.0
H2332 H 0.07374 0.76569 0.45245 0.0
H2333 H 0.06877 0.74566 0.43627 0.0
C2334 C 0.31761 0.05102 0.73927 0.0
C2335 C 0.31951 0.05775 0.7217 0.0
C2336 C 0.31471 0.06081 0.75407 0.0
C2337 C 0.31289 0.07723 0.751 0.0
C2338 C 0.31378 0.08343 0.73303 0.0
C2339 C 0.31753 0.07385 0.71863 0.0
C2340 C 0.31448 0.05413 0.77313 0.0
C2341 C 0.3111 0.10034 0.72908 0.0
C2342 C 0.29292 0.09213 0.7905 0.0
C2343 C 0.30961 0.10746 0.79979 0.0
C2344 C 0.29361 0.08291 0.77394 0.0
C2345 C 0.31146 0.08863 0.76687 0.0
C2346 C 0.32825 0.10447 0.77579 0.0
C2347 C 0.32705 0.11396 0.79185 0.0
C2348 C 0.2753 0.06657 0.76439 0.0
C2349 C 0.34764 0.1108 0.76891 0.0
H2350 H 0.3193 0.03863 0.7416 0.0
H2351 H 0.31886 0.0789 0.70494 0.0
H2352 H 0.32634 0.06597 0.78218 0.0
H2353 H 0.30099 0.05074 0.77921 0.0
H2354 H 0.31598 0.04104 0.77313 0.0
H2355 H 0.3098 0.10173 0.7141 0.0
H2356 H 0.29814 0.09864 0.7352 0.0
H2357 H 0.32342 0.11405 0.73545 0.0
H2358 H 0.27935 0.0868 0.79643 0.0
H2359 H 0.33996 0.12623 0.79845 0.0
H2360 H 0.27455 0.05249 0.76615 0.0
H2361 H 0.27485 0.06828 0.74941 0.0
H2362 H 0.26251 0.06593 0.76996 0.0
H2363 H 0.35052 0.0986 0.7691 0.0
H2364 H 0.35929 0.1235 0.77737 0.0
H2365 H 0.34799 0.11464 0.75449 0.0
C2366 C 0.9409 0.23494 0.76926 0.0
C2367 C 0.93154 0.24149 0.75758 0.0
C2368 C 0.93149 0.22304 0.78337 0.0
C2369 C 0.91231 0.21765 0.78583 0.0
C2370 C 0.90269 0.22387 0.77378 0.0
C2371 C 0.91242 0.23569 0.75981 0.0
C2372 C 0.94217 0.21662 0.79589 0.0
C2373 C 0.88224 0.21843 0.77595 0.0
C2374 C 0.88064 0.17533 0.81345 0.0
C2375 C 0.88085 0.18501 0.83007 0.0
C2376 C 0.89134 0.18571 0.79911 0.0
C2377 C 0.90245 0.20625 0.80145 0.0
C2378 C 0.90319 0.21604 0.8184 0.0
C2379 C 0.8924 0.20531 0.8325 0.0
C2380 C 0.89021 0.17476 0.78125 0.0
C2381 C 0.91493 0.23793 0.82146 0.0
H2382 H 0.95568 0.23936 0.76758 0.0
H2383 H 0.90509 0.24068 0.75081 0.0
H2384 H 0.94361 0.22294 0.81013 0.0
H2385 H 0.93408 0.20057 0.79624 0.0
H2386 H 0.95665 0.22113 0.79152 0.0
H2387 H 0.87658 0.2238 0.76499 0.0
H2388 H 0.87302 0.2024 0.77565 0.0
H2389 H 0.88117 0.2246 0.78947 0.0
H2390 H 0.87161 0.15967 0.81142 0.0
H2391 H 0.89286 0.21284 0.84543 0.0
H2392 H 0.90474 0.17916 0.77718 0.0
H2393 H 0.88305 0.17841 0.77016 0.0
H2394 H 0.88217 0.15876 0.78214 0.0
H2395 H 0.92992 0.24311 0.81845 0.0
H2396 H 0.9148 0.24322 0.83576 0.0
H2397 H 0.90927 0.24457 0.81191 0.0
C2398 C 0.77111 0.67549 0.72779 0.0
C2399 C 0.75402 0.67573 0.72765 0.0
C2400 C 0.78175 0.6781 0.74443 0.0
C2401 C 0.77456 0.68 0.76125 0.0
C2402 C 0.75729 0.68031 0.76108 0.0
C2403 C 0.74745 0.6786 0.74423 0.0
C2404 C 0.80053 0.67859 0.74402 0.0
C2405 C 0.74875 0.68158 0.77869 0.0
C2406 C 0.78796 0.66323 0.80417 0.0
C2407 C 0.79925 0.68083 0.81496 0.0
C2408 C 0.78006 0.66278 0.7866 0.0
C2409 C 0.78433 0.68043 0.7791 0.0
C2410 C 0.79679 0.69833 0.78928 0.0
C2411 C 0.80375 0.69832 0.80721 0.0
C2412 C 0.76644 0.64334 0.7764 0.0
C2413 C 0.8023 0.71749 0.78145 0.0
H2414 H 0.7762 0.67338 0.71488 0.0
H2415 H 0.73409 0.67857 0.74405 0.0
H2416 H 0.81177 0.69133 0.75275 0.0
H2417 H 0.79924 0.66538 0.74972 0.0
H2418 H 0.80521 0.67932 0.72986 0.0
H2419 H 0.73514 0.68151 0.77614 0.0
H2420 H 0.74599 0.66911 0.78679 0.0
H2421 H 0.7589 0.69504 0.78725 0.0
H2422 H 0.78491 0.64963 0.80956 0.0
H2423 H 0.81226 0.71206 0.81527 0.0
H2424 H 0.77164 0.64219 0.76288 0.0
H2425 H 0.75228 0.64202 0.77372 0.0
H2426 H 0.76457 0.63094 0.78419 0.0
H2427 H 0.80639 0.71743 0.76715 0.0
H2428 H 0.81435 0.72994 0.7898 0.0
H2429 H 0.78993 0.71979 0.78099 0.0
C2430 C 0.75415 0.64807 0.63441 0.0
C2431 C 0.73707 0.64836 0.63391 0.0
C2432 C 0.76179 0.64613 0.6181 0.0
C2433 C 0.75252 0.64532 0.60093 0.0
C2434 C 0.73511 0.64536 0.6004 0.0
C2435 C 0.7274 0.64651 0.61693 0.0
C2436 C 0.78 0.6454 0.61925 0.0
C2437 C 0.72514 0.64523 0.58242 0.0
C2438 C 0.78481 0.66421 0.56177 0.0
C2439 C 0.78008 0.64702 0.55116 0.0
C2440 C 0.77555 0.66385 0.57763 0.0
C2441 C 0.76174 0.6458 0.58362 0.0
C2442 C 0.75699 0.62836 0.57322 0.0
C2443 C 0.7659 0.62919 0.55695 0.0
C2444 C 0.78067 0.68284 0.58807 0.0
C2445 C 0.74272 0.6088 0.57945 0.0
H2446 H 0.76155 0.6494 0.64758 0.0
H2447 H 0.71429 0.64697 0.61658 0.0
H2448 H 0.77834 0.633 0.61022 0.0
H2449 H 0.79176 0.65887 0.61436 0.0
H2450 H 0.7842 0.64395 0.63351 0.0
H2451 H 0.71132 0.6445 0.58434 0.0
H2452 H 0.73445 0.65863 0.5756 0.0
H2453 H 0.72249 0.6327 0.57298 0.0
H2454 H 0.79603 0.67808 0.55792 0.0
H2455 H 0.76171 0.61578 0.54881 0.0
H2456 H 0.78757 0.68386 0.60183 0.0
H2457 H 0.76759 0.68352 0.59024 0.0
H2458 H 0.79054 0.69565 0.58079 0.0
H2459 H 0.74731 0.60724 0.59349 0.0
H2460 H 0.74104 0.59655 0.57012 0.0
H2461 H 0.7286 0.60764 0.58017 0.0
C2462 C 0.36556 0.07468 0.62913 0.0
C2463 C 0.34825 0.06734 0.63741 0.0
C2464 C 0.36946 0.08669 0.61451 0.0
C2465 C 0.3558 0.09157 0.60821 0.0
C2466 C 0.33837 0.08427 0.61663 0.0
C2467 C 0.33478 0.07219 0.63105 0.0
C2468 C 0.38813 0.09409 0.60576 0.0
C2469 C 0.32348 0.08925 0.6104 0.0
C2470 C 0.36916 0.13607 0.58198 0.0
C2471 C 0.36177 0.12762 0.56411 0.0
C2472 C 0.36804 0.12458 0.59639 0.0
C2473 C 0.35949 0.10421 0.59276 0.0
C2474 C 0.35286 0.09574 0.57455 0.0
C2475 C 0.35399 0.10755 0.56045 0.0
C2476 C 0.37511 0.13413 0.61564 0.0
C2477 C 0.34386 0.07411 0.57009 0.0
H2478 H 0.37599 0.07094 0.63399 0.0
H2479 H 0.3214 0.06662 0.63745 0.0
H2480 H 0.38537 0.08923 0.5909 0.0
H2481 H 0.39616 0.11022 0.60686 0.0
H2482 H 0.39722 0.08893 0.61223 0.0
H2483 H 0.3108 0.08263 0.6186 0.0
H2484 H 0.3297 0.10525 0.61154 0.0
H2485 H 0.3187 0.08411 0.59574 0.0
H2486 H 0.37503 0.15156 0.58486 0.0
H2487 H 0.34847 0.10104 0.54658 0.0
H2488 H 0.3847 0.12956 0.62205 0.0
H2489 H 0.36282 0.12942 0.62423 0.0
H2490 H 0.3829 0.15025 0.6159 0.0
H2491 H 0.35313 0.06887 0.57591 0.0
H2492 H 0.3412 0.0701 0.55505 0.0
H2493 H 0.33005 0.06638 0.57645 0.0
C2494 C 0.92 0.27386 0.66179 0.0
C2495 C 0.92619 0.26226 0.67003 0.0
C2496 C 0.91022 0.26829 0.64426 0.0
C2497 C 0.90653 0.25069 0.63484 0.0
C2498 C 0.91213 0.2386 0.64341 0.0
C2499 C 0.92194 0.24456 0.66087 0.0
C2500 C 0.90449 0.28157 0.63554 0.0
C2501 C 0.90836 0.21967 0.63387 0.0
C2502 C 0.87074 0.22733 0.59322 0.0
C2503 C 0.88289 0.2324 0.57886 0.0
C2504 C 0.87815 0.23369 0.61155 0.0
C2505 C 0.89813 0.24551 0.61551 0.0
C2506 C 0.91035 0.25133 0.60095 0.0
C2507 C 0.90258 0.24464 0.58282 0.0
C2508 C 0.8647 0.22712 0.62672 0.0
C2509 C 0.93171 0.2641 0.60456 0.0
H2510 H 0.92323 0.28755 0.66884 0.0
H2511 H 0.92659 0.23548 0.66722 0.0
H2512 H 0.9128 0.28752 0.62343 0.0
H2513 H 0.88919 0.27333 0.63055 0.0
H2514 H 0.90699 0.2939 0.64523 0.0
H2515 H 0.91243 0.21132 0.64292 0.0
H2516 H 0.89303 0.21048 0.62918 0.0
H2517 H 0.91657 0.22263 0.62149 0.0
H2518 H 0.85552 0.21779 0.59016 0.0
H2519 H 0.91195 0.24881 0.57168 0.0
H2520 H 0.86744 0.23975 0.63606 0.0
H2521 H 0.8672 0.21722 0.63506 0.0
H2522 H 0.84951 0.21936 0.62129 0.0
H2523 H 0.93523 0.27745 0.61319 0.0
H2524 H 0.93906 0.26841 0.59166 0.0
H2525 H 0.93745 0.25625 0.61227 0.0
C2526 C 0.36487 0.27777 0.66308 0.0
C2527 C 0.34582 0.27257 0.66487 0.0
C2528 C 0.36974 0.26894 0.6489 0.0
C2529 C 0.35524 0.25486 0.63611 0.0
C2530 C 0.33598 0.24952 0.63793 0.0
C2531 C 0.3315 0.25834 0.65239 0.0
C2532 C 0.39039 0.27477 0.64753 0.0
C2533 C 0.32014 0.23478 0.6244 0.0
C2534 C 0.36688 0.24577 0.58828 0.0
C2535 C 0.36542 0.22759 0.58931 0.0
C2536 C 0.36414 0.25509 0.60359 0.0
C2537 C 0.36013 0.24611 0.62038 0.0
C2538 C 0.35946 0.22813 0.6217 0.0
C2539 C 0.3619 0.21895 0.60604 0.0
C2540 C 0.36463 0.27407 0.60151 0.0
C2541 C 0.35552 0.21828 0.63945 0.0
H2542 H 0.37597 0.28871 0.67278 0.0
H2543 H 0.31676 0.25433 0.6537 0.0
H2544 H 0.39193 0.26172 0.64738 0.0
H2545 H 0.39536 0.28154 0.63443 0.0
H2546 H 0.39982 0.28522 0.6591 0.0
H2547 H 0.3059 0.23217 0.62783 0.0
H2548 H 0.32271 0.23986 0.61036 0.0
H2549 H 0.3199 0.22075 0.62407 0.0
H2550 H 0.36927 0.25228 0.57523 0.0
H2551 H 0.36079 0.20488 0.60679 0.0
H2552 H 0.37472 0.28528 0.61224 0.0
H2553 H 0.3503 0.27207 0.60343 0.0
H2554 H 0.3689 0.2796 0.5878 0.0
H2555 H 0.36521 0.22861 0.65094 0.0
H2556 H 0.3573 0.20535 0.63868 0.0
H2557 H 0.3407 0.21356 0.6428 0.0
C2558 C 0.75368 0.10069 0.6272 0.0
C2559 C 0.7337 0.08968 0.62585 0.0
C2560 C 0.76355 0.11238 0.61321 0.0
C2561 C 0.75319 0.11279 0.59732 0.0
C2562 C 0.73299 0.10213 0.59611 0.0
C2563 C 0.72345 0.09079 0.6105 0.0
C2564 C 0.78509 0.12379 0.61517 0.0
C2565 C 0.72148 0.10204 0.5793 0.0
C2566 C 0.78062 0.15322 0.56611 0.0
C2567 C 0.78669 0.14403 0.55355 0.0
C2568 C 0.76926 0.14311 0.58022 0.0
C2569 C 0.76366 0.12331 0.58154 0.0
C2570 C 0.76916 0.11381 0.56841 0.0
C2571 C 0.78074 0.12434 0.55465 0.0
C2572 C 0.76389 0.15378 0.59411 0.0
C2573 C 0.76325 0.09265 0.56917 0.0
H2574 H 0.76164 0.09998 0.63913 0.0
H2575 H 0.70801 0.08223 0.60941 0.0
H2576 H 0.79078 0.11794 0.6047 0.0
H2577 H 0.7904 0.13924 0.61271 0.0
H2578 H 0.79092 0.12316 0.62899 0.0
H2579 H 0.70592 0.09415 0.58105 0.0
H2580 H 0.72596 0.11713 0.5761 0.0
H2581 H 0.72415 0.09497 0.56727 0.0
H2582 H 0.78532 0.16849 0.56529 0.0
H2583 H 0.78527 0.1172 0.54478 0.0
H2584 H 0.77086 0.15476 0.60783 0.0
H2585 H 0.74826 0.14569 0.59535 0.0
H2586 H 0.76824 0.16873 0.59043 0.0
H2587 H 0.76993 0.09072 0.58184 0.0
H2588 H 0.76749 0.08708 0.55712 0.0
H2589 H 0.74756 0.08367 0.56973 0.0
C2590 C 0.90865 0.64403 0.64566 0.0
C2591 C 0.91012 0.65761 0.65946 0.0
C2592 C 0.89937 0.64199 0.62836 0.0
C2593 C 0.89106 0.65355 0.62495 0.0
C2594 C 0.89173 0.66664 0.63914 0.0
C2595 C 0.90145 0.66866 0.65618 0.0
C2596 C 0.89924 0.62812 0.61349 0.0
C2597 C 0.8827 0.67892 0.63613 0.0
C2598 C 0.88692 0.66568 0.57599 0.0
C2599 C 0.86786 0.6521 0.57045 0.0
C2600 C 0.89467 0.66615 0.59364 0.0
C2601 C 0.88291 0.653 0.60617 0.0
C2602 C 0.86355 0.63938 0.60068 0.0
C2603 C 0.85629 0.63893 0.58274 0.0
C2604 C 0.91548 0.68062 0.59883 0.0
C2605 C 0.8505 0.62543 0.61378 0.0
H2606 H 0.91541 0.63551 0.64814 0.0
H2607 H 0.90246 0.67909 0.66688 0.0
H2608 H 0.88446 0.61801 0.60761 0.0
H2609 H 0.90756 0.63643 0.60214 0.0
H2610 H 0.90545 0.61945 0.61864 0.0
H2611 H 0.88289 0.68696 0.64904 0.0
H2612 H 0.89046 0.68961 0.626 0.0
H2613 H 0.8677 0.66967 0.63038 0.0
H2614 H 0.89584 0.67572 0.56634 0.0
H2615 H 0.84151 0.62851 0.57839 0.0
H2616 H 0.92298 0.67289 0.60312 0.0
H2617 H 0.91688 0.69055 0.6107 0.0
H2618 H 0.92275 0.68949 0.58731 0.0
H2619 H 0.85604 0.61599 0.61828 0.0
H2620 H 0.83571 0.61605 0.60749 0.0
H2621 H 0.85011 0.63364 0.62627 0.0
C2622 C 0.90444 0.67368 0.75405 0.0
C2623 C 0.92417 0.68277 0.75257 0.0
C2624 C 0.89705 0.6757 0.77048 0.0
C2625 C 0.90971 0.68682 0.78589 0.0
C2626 C 0.92965 0.69651 0.78431 0.0
C2627 C 0.93665 0.69449 0.76759 0.0
C2628 C 0.87568 0.6654 0.77151 0.0
C2629 C 0.94359 0.70834 0.80049 0.0
C2630 C 0.8889 0.70102 0.82526 0.0
C2631 C 0.8844 0.6859 0.83672 0.0
C2632 C 0.89754 0.70179 0.80883 0.0
C2633 C 0.90198 0.68723 0.80391 0.0
C2634 C 0.89809 0.67233 0.8158 0.0
C2635 C 0.8892 0.67177 0.83199 0.0
C2636 C 0.90124 0.71774 0.79641 0.0
C2637 C 0.90286 0.6567 0.81119 0.0
H2638 H 0.89474 0.6647 0.74242 0.0
H2639 H 0.95192 0.70147 0.76652 0.0
H2640 H 0.87128 0.65387 0.78124 0.0
H2641 H 0.87135 0.67575 0.77682 0.0
H2642 H 0.86783 0.65861 0.75793 0.0
H2643 H 0.95859 0.71601 0.79668 0.0
H2644 H 0.94024 0.71924 0.80639 0.0
H2645 H 0.94229 0.69865 0.81144 0.0
H2646 H 0.885 0.71184 0.82882 0.0
H2647 H 0.88585 0.66017 0.84093 0.0
H2648 H 0.89226 0.71133 0.7833 0.0
H2649 H 0.91634 0.72532 0.79296 0.0
H2650 H 0.89805 0.72861 0.80274 0.0
H2651 H 0.89421 0.64776 0.79859 0.0
H2652 H 0.9001 0.64694 0.82247 0.0
H2653 H 0.91809 0.66337 0.8083 0.0
C2654 C 0.33165 0.26471 0.76048 0.0
C2655 C 0.31702 0.26228 0.74784 0.0
C2656 C 0.32796 0.252 0.77437 0.0
C2657 C 0.3092 0.2363 0.7755 0.0
C2658 C 0.29428 0.23389 0.76293 0.0
C2659 C 0.29835 0.24703 0.74928 0.0
C2660 C 0.34422 0.25524 0.78766 0.0
C2661 C 0.27415 0.2172 0.76362 0.0
C2662 C 0.30752 0.19449 0.79962 0.0
C2663 C 0.30348 0.19797 0.81738 0.0
C2664 C 0.30846 0.20629 0.78558 0.0
C2665 C 0.30555 0.22211 0.7895 0.0
C2666 C 0.30084 0.2253 0.80728 0.0
C2667 C 0.29976 0.2131 0.821 0.0
C2668 C 0.31327 0.20225 0.76675 0.0
C2669 C 0.29786 0.24214 0.81204 0.0
H2670 H 0.34608 0.27657 0.7595 0.0
H2671 H 0.28702 0.2451 0.73949 0.0
H2672 H 0.34066 0.25624 0.80202 0.0
H2673 H 0.34654 0.2427 0.78612 0.0
H2674 H 0.35777 0.26868 0.78545 0.0
H2675 H 0.26405 0.21778 0.75331 0.0
H2676 H 0.27382 0.20322 0.76105 0.0
H2677 H 0.26914 0.21726 0.7775 0.0
H2678 H 0.31017 0.18263 0.79677 0.0
H2679 H 0.29676 0.21588 0.83477 0.0
H2680 H 0.32757 0.21423 0.7639 0.0
H2681 H 0.30286 0.20166 0.75604 0.0
H2682 H 0.31334 0.18836 0.76549 0.0
H2683 H 0.31152 0.25602 0.81157 0.0
H2684 H 0.29269 0.24163 0.82596 0.0
H2685 H 0.28744 0.24228 0.80183 0.0
C2686 C 0.74038 0.05239 0.72457 0.0
C2687 C 0.74165 0.06655 0.71313 0.0
C2688 C 0.75008 0.05771 0.74212 0.0
C2689 C 0.76151 0.07765 0.74817 0.0
C2690 C 0.7636 0.09199 0.73625 0.0
C2691 C 0.75349 0.08626 0.71893 0.0
C2692 C 0.7473 0.04201 0.75452 0.0
C2693 C 0.77592 0.1134 0.74209 0.0
C2694 C 0.76775 0.09342 0.7989 0.0
C2695 C 0.78612 0.09693 0.80376 0.0
C2696 C 0.75942 0.08663 0.78096 0.0
C2697 C 0.76985 0.08357 0.76748 0.0
C2698 C 0.78834 0.08686 0.77238 0.0
C2699 C 0.79621 0.09335 0.79057 0.0
C2700 C 0.73954 0.08299 0.77638 0.0
C2701 C 0.79996 0.08401 0.75831 0.0
H2702 H 0.7312 0.03713 0.72013 0.0
H2703 H 0.75462 0.09724 0.71003 0.0
H2704 H 0.76128 0.04452 0.76024 0.0
H2705 H 0.73931 0.04244 0.7663 0.0
H2706 H 0.73928 0.02726 0.74724 0.0
H2707 H 0.77757 0.12263 0.73058 0.0
H2708 H 0.76945 0.1174 0.7533 0.0
H2709 H 0.79027 0.11674 0.74754 0.0
H2710 H 0.75988 0.09598 0.80922 0.0
H2711 H 0.81046 0.09616 0.79439 0.0
H2712 H 0.7302 0.06794 0.7701 0.0
H2713 H 0.73998 0.09302 0.76614 0.0
H2714 H 0.733 0.08509 0.78867 0.0
H2715 H 0.79185 0.06907 0.7515 0.0
H2716 H 0.81379 0.08647 0.76449 0.0
H2717 H 0.80285 0.09423 0.74746 0.0
C2718 C 0.03064 0.3359 0.06146 0.0
C2719 C 0.03844 0.34802 0.04712 0.0
C2720 C 0.04192 0.3315 0.07304 0.0
C2721 C 0.06148 0.33946 0.07022 0.0
C2722 C 0.06942 0.35159 0.05568 0.0
C2723 C 0.05778 0.35572 0.04427 0.0
C2724 C 0.03295 0.31846 0.08836 0.0
C2725 C 0.09025 0.36036 0.0523 0.0
C2726 C 0.09552 0.34426 0.11 0.0
C2727 C 0.09827 0.32858 0.10561 0.0
C2728 C 0.08339 0.34781 0.09872 0.0
C2729 C 0.07374 0.33536 0.0827 0.0
C2730 C 0.07606 0.31923 0.07844 0.0
C2731 C 0.08832 0.31604 0.08995 0.0
C2732 C 0.08118 0.36511 0.10376 0.0
C2733 C 0.06597 0.30561 0.06149 0.0
H2734 H 0.01567 0.32988 0.06371 0.0
H2735 H 0.06386 0.36509 0.03321 0.0
H2736 H 0.03496 0.30572 0.08695 0.0
H2737 H 0.04006 0.32643 0.10183 0.0
H2738 H 0.01744 0.31316 0.08848 0.0
H2739 H 0.09414 0.36925 0.04024 0.0
H2740 H 0.09924 0.3697 0.06459 0.0
H2741 H 0.09373 0.34869 0.04997 0.0
H2742 H 0.10302 0.35387 0.1222 0.0
H2743 H 0.0906 0.30407 0.08635 0.0
H2744 H 0.06592 0.36032 0.10495 0.0
H2745 H 0.08623 0.37531 0.09275 0.0
H2746 H 0.08932 0.37309 0.11693 0.0
H2747 H 0.05036 0.29969 0.06145 0.0
H2748 H 0.06868 0.29328 0.06055 0.0
H2749 H 0.0708 0.3137 0.04901 0.0
C2750 C 0.66279 0.68085 0.09087 0.0
C2751 C 0.6433 0.66843 0.08589 0.0
C2752 C 0.66947 0.69927 0.09989 0.0
C2753 C 0.65628 0.70516 0.10436 0.0
C2754 C 0.63652 0.69239 0.09992 0.0
C2755 C 0.63028 0.67423 0.09052 0.0
C2756 C 0.69067 0.71265 0.10408 0.0
C2757 C 0.62199 0.69803 0.10481 0.0
C2758 C 0.6713 0.74754 0.13989 0.0
C2759 C 0.67402 0.76229 0.12862 0.0
C2760 C 0.66572 0.72883 0.13219 0.0
C2761 C 0.66316 0.72507 0.11282 0.0
C2762 C 0.66655 0.74021 0.10143 0.0
C2763 C 0.67175 0.75863 0.10951 0.0
C2764 C 0.66194 0.71297 0.14475 0.0
C2765 C 0.66431 0.73686 0.08072 0.0
H2766 H 0.67289 0.67641 0.08721 0.0
H2767 H 0.61519 0.66457 0.08679 0.0
H2768 H 0.69558 0.72584 0.09641 0.0
H2769 H 0.6939 0.71753 0.11892 0.0
H2770 H 0.69898 0.7056 0.10029 0.0
H2771 H 0.60711 0.6859 0.10157 0.0
H2772 H 0.62394 0.70269 0.11967 0.0
H2773 H 0.62409 0.71054 0.09712 0.0
H2774 H 0.67293 0.7505 0.1547 0.0
H2775 H 0.67386 0.77018 0.10091 0.0
H2776 H 0.67059 0.70623 0.14134 0.0
H2777 H 0.64672 0.70135 0.14269 0.0
H2778 H 0.66523 0.71846 0.15947 0.0
H2779 H 0.673 0.73057 0.07603 0.0
H2780 H 0.66867 0.75048 0.07388 0.0
H2781 H 0.6492 0.72625 0.07616 0.0
C2782 C 0.31996 0.94412 0.03296 0.0
C2783 C 0.33288 0.96335 0.03968 0.0
C2784 C 0.3033 0.93264 0.04184 0.0
C2785 C 0.29964 0.94058 0.05784 0.0
C2786 C 0.31263 0.96 0.06461 0.0
C2787 C 0.32903 0.97116 0.0554 0.0
C2788 C 0.28968 0.91202 0.03418 0.0
C2789 C 0.30933 0.96896 0.08172 0.0
C2790 C 0.25022 0.91936 0.07518 0.0
C2791 C 0.25146 0.90911 0.08974 0.0
C2792 C 0.26553 0.92903 0.06415 0.0
C2793 C 0.28252 0.92857 0.06793 0.0
C2794 C 0.28367 0.91785 0.08234 0.0
C2795 C 0.26811 0.90821 0.09304 0.0
C2796 C 0.26373 0.94018 0.04881 0.0
C2797 C 0.30161 0.9172 0.08693 0.0
H2798 H 0.32287 0.93806 0.02078 0.0
H2799 H 0.33897 0.986 0.06069 0.0
H2800 H 0.28855 0.90175 0.04446 0.0
H2801 H 0.2752 0.90989 0.03137 0.0
H2802 H 0.29427 0.90824 0.02129 0.0
H2803 H 0.32076 0.98432 0.08508 0.0
H2804 H 0.29546 0.96843 0.07994 0.0
H2805 H 0.30864 0.96051 0.0936 0.0
H2806 H 0.23728 0.91988 0.07247 0.0
H2807 H 0.26921 0.90049 0.10442 0.0
H2808 H 0.26758 0.93584 0.03575 0.0
H2809 H 0.27382 0.95596 0.05197 0.0
H2810 H 0.24907 0.9378 0.04671 0.0
H2811 H 0.30606 0.9125 0.07448 0.0
H2812 H 0.29976 0.90717 0.09775 0.0
H2813 H 0.31339 0.93197 0.0918 0.0
C2814 C 0.3552 0.03076 0.97911 0.0
C2815 C 0.36776 0.03671 0.99493 0.0
C2816 C 0.34905 0.0429 0.97212 0.0
C2817 C 0.35556 0.06144 0.98123 0.0
C2818 C 0.36816 0.06751 0.99728 0.0
C2819 C 0.37417 0.05507 0.00393 0.0
C2820 C 0.33571 0.03595 0.95489 0.0
C2821 C 0.37534 0.08717 0.00735 0.0
C2822 C 0.35366 0.09827 0.95168 0.0
C2823 C 0.33646 0.09698 0.95609 0.0
C2824 C 0.36035 0.08725 0.96021 0.0
C2825 C 0.34957 0.0746 0.97349 0.0
C2826 C 0.33246 0.0736 0.9784 0.0
C2827 C 0.32605 0.08477 0.96957 0.0
C2828 C 0.37858 0.08859 0.95449 0.0
C2829 C 0.32065 0.06034 0.99257 0.0
H2830 H 0.3502 0.01657 0.97211 0.0
H2831 H 0.38382 0.05969 0.01621 0.0
H2832 H 0.32246 0.03608 0.95764 0.0
H2833 H 0.3425 0.04594 0.94397 0.0
H2834 H 0.33179 0.02103 0.94962 0.0
H2835 H 0.38464 0.08949 0.01992 0.0
H2836 H 0.38353 0.09881 0.99816 0.0
H2837 H 0.36312 0.08871 0.01132 0.0
H2838 H 0.3616 0.10743 0.94104 0.0
H2839 H 0.31282 0.08385 0.9731 0.0
H2840 H 0.37538 0.07444 0.94769 0.0
H2841 H 0.38853 0.09172 0.96672 0.0
H2842 H 0.3859 0.10004 0.94484 0.0
H2843 H 0.31498 0.04497 0.98747 0.0
H2844 H 0.30846 0.06229 0.99579 0.0
H2845 H 0.32964 0.06306 0.00546 0.0
C2846 C 0.94775 0.29712 0.98984 0.0
C2847 C 0.96699 0.30766 0.98614 0.0
C2848 C 0.93502 0.27961 0.97962 0.0
C2849 C 0.94169 0.27257 0.96529 0.0
C2850 C 0.96116 0.28302 0.96165 0.0
C2851 C 0.97361 0.30045 0.97216 0.0
C2852 C 0.91436 0.26879 0.98397 0.0
C2853 C 0.96875 0.27598 0.94644 0.0
C2854 C 0.91035 0.21925 0.94903 0.0
C2855 C 0.89975 0.22023 0.93389 0.0
C2856 C 0.92448 0.23623 0.95909 0.0
C2857 C 0.92809 0.25455 0.95382 0.0
C2858 C 0.91794 0.25563 0.93812 0.0
C2859 C 0.90385 0.23844 0.92837 0.0
C2860 C 0.93499 0.23452 0.97579 0.0
C2861 C 0.92153 0.27493 0.93198 0.0
H2862 H 0.9426 0.30262 0.00067 0.0
H2863 H 0.98848 0.30857 0.96925 0.0
H2864 H 0.90514 0.26793 0.97189 0.0
H2865 H 0.91005 0.25367 0.98692 0.0
H2866 H 0.91161 0.27588 0.99595 0.0
H2867 H 0.98438 0.2855 0.94574 0.0
H2868 H 0.96562 0.26099 0.94847 0.0
H2869 H 0.9615 0.27543 0.93302 0.0
H2870 H 0.90705 0.20518 0.95344 0.0
H2871 H 0.8958 0.23921 0.91654 0.0
H2872 H 0.93126 0.23985 0.98835 0.0
H2873 H 0.95062 0.24374 0.975 0.0
H2874 H 0.93147 0.2193 0.97728 0.0
H2875 H 0.91751 0.28226 0.94267 0.0
H2876 H 0.91329 0.27329 0.91883 0.0
H2877 H 0.93693 0.2846 0.93024 0.0
C2878 C 0.68546 0.62257 0.03032 0.0
C2879 C 0.6738 0.63044 0.0265 0.0
C2880 C 0.70156 0.6275 0.02046 0.0
C2881 C 0.70594 0.64045 0.00641 0.0
C2882 C 0.69422 0.64846 0.00258 0.0
C2883 C 0.67835 0.64341 0.01271 0.0
C2884 C 0.71383 0.61878 0.02499 0.0
C2885 C 0.69832 0.6622 0.98761 0.0
C2886 C 0.75559 0.66698 0.98927 0.0
C2887 C 0.75311 0.65571 0.97298 0.0
C2888 C 0.74048 0.66191 0.00057 0.0
C2889 C 0.72245 0.64529 0.99532 0.0
C2890 C 0.71993 0.63379 0.97894 0.0
C2891 C 0.73531 0.63911 0.96801 0.0
C2892 C 0.74373 0.67444 0.018 0.0
C2893 C 0.70087 0.61611 0.97276 0.0
H2894 H 0.68203 0.61259 0.04101 0.0
H2895 H 0.66936 0.64953 0.00968 0.0
H2896 H 0.71378 0.60991 0.01282 0.0
H2897 H 0.72882 0.6305 0.02848 0.0
H2898 H 0.70883 0.60944 0.03669 0.0
H2899 H 0.6879 0.66731 0.98649 0.0
H2900 H 0.71285 0.67505 0.9903 0.0
H2901 H 0.69793 0.65487 0.97417 0.0
H2902 H 0.7694 0.67971 0.99323 0.0
H2903 H 0.73329 0.6305 0.9553 0.0
H2904 H 0.73969 0.66543 0.02995 0.0
H2905 H 0.73452 0.681 0.01716 0.0
H2906 H 0.75881 0.68633 0.02058 0.0
H2907 H 0.69588 0.60584 0.98371 0.0
H2908 H 0.70146 0.60835 0.96 0.0
H2909 H 0.69008 0.62052 0.9702 0.0
C2910 C 0.96273 0.64854 0.98962 0.0
C2911 C 0.96013 0.64724 0.00846 0.0
C2912 C 0.95131 0.6526 0.97785 0.0
C2913 C 0.93726 0.65589 0.98519 0.0
C2914 C 0.9347 0.65479 0.00426 0.0
C2915 C 0.94603 0.65023 0.01566 0.0
C2916 C 0.95415 0.65316 0.95754 0.0
C2917 C 0.92012 0.65859 0.01264 0.0
C2918 C 0.9196 0.68351 0.95722 0.0
C2919 C 0.90173 0.6685 0.94967 0.0
C2920 C 0.93124 0.67965 0.96893 0.0
C2921 C 0.9251 0.66025 0.97285 0.0
C2922 C 0.90733 0.64498 0.96494 0.0
C2923 C 0.89578 0.6493 0.95366 0.0
C2924 C 0.95001 0.69635 0.9773 0.0
C2925 C 0.90042 0.62406 0.96854 0.0
H2926 H 0.97355 0.6461 0.98401 0.0
H2927 H 0.9441 0.64934 0.03025 0.0
H2928 H 0.94064 0.64241 0.94961 0.0
H2929 H 0.95804 0.6677 0.95304 0.0
H2930 H 0.96548 0.64994 0.95399 0.0
H2931 H 0.92028 0.6577 0.02777 0.0
H2932 H 0.92288 0.67325 0.00961 0.0
H2933 H 0.90562 0.6479 0.00645 0.0
H2934 H 0.92451 0.69835 0.95406 0.0
H2935 H 0.88185 0.63759 0.94831 0.0
H2936 H 0.96194 0.69445 0.97305 0.0
H2937 H 0.95034 0.69654 0.99252 0.0
H2938 H 0.95253 0.71064 0.97321 0.0
H2939 H 0.91123 0.62013 0.96484 0.0
H2940 H 0.88668 0.6138 0.96063 0.0
H2941 H 0.89851 0.62211 0.98338 0.0
C2942 C 0.3354 0.32042 0.95643 0.0
C2943 C 0.35274 0.32881 0.96721 0.0
C2944 C 0.32821 0.30239 0.9464 0.0
C2945 C 0.33878 0.29272 0.94702 0.0
C2946 C 0.35648 0.30133 0.95761 0.0
C2947 C 0.36319 0.31923 0.96768 0.0
C2948 C 0.30918 0.29353 0.93543 0.0
C2949 C 0.36826 0.29154 0.95844 0.0
C2950 C 0.31479 0.23812 0.93722 0.0
C2951 C 0.3198 0.23656 0.91934 0.0
C2952 C 0.32024 0.25629 0.94612 0.0
C2953 C 0.33117 0.27334 0.93701 0.0
C2954 C 0.33576 0.27187 0.91876 0.0
C2955 C 0.32992 0.25348 0.9101 0.0
C2956 C 0.31493 0.25728 0.96555 0.0
C2957 C 0.34745 0.28974 0.90863 0.0
H2958 H 0.32725 0.32777 0.95609 0.0
H2959 H 0.37665 0.32573 0.97594 0.0
H2960 H 0.31073 0.29045 0.92084 0.0
H2961 H 0.29899 0.27945 0.94075 0.0
H2962 H 0.30296 0.30314 0.93603 0.0
H2963 H 0.38203 0.30051 0.96679 0.0
H2964 H 0.36015 0.27736 0.96448 0.0
H2965 H 0.37126 0.28855 0.94436 0.0
H2966 H 0.30724 0.22519 0.94459 0.0
H2967 H 0.33359 0.25236 0.89618 0.0
H2968 H 0.3081 0.26627 0.9667 0.0
H2969 H 0.328 0.26433 0.97509 0.0
H2970 H 0.30505 0.24266 0.97011 0.0
H2971 H 0.34088 0.29901 0.90871 0.0
H2972 H 0.34887 0.28606 0.89415 0.0
H2973 H 0.36193 0.29851 0.91572 0.0
C2974 C 0.68052 0.0555 0.02364 0.0
C2975 C 0.66335 0.04228 0.01358 0.0
C2976 C 0.69734 0.06618 0.01472 0.0
C2977 C 0.69681 0.0637 0.99533 0.0
C2978 C 0.67929 0.05099 0.9851 0.0
C2979 C 0.66281 0.04035 0.99437 0.0
C2980 C 0.7158 0.07951 0.02606 0.0
C2981 C 0.67804 0.04814 0.96438 0.0
C2982 C 0.73567 0.09981 0.96744 0.0
C2983 C 0.74522 0.08983 0.96278 0.0
C2984 C 0.72035 0.09186 0.97867 0.0
C2985 C 0.71458 0.0736 0.98559 0.0
C2986 C 0.72475 0.06391 0.98172 0.0
C2987 C 0.7399 0.0721 0.97029 0.0
C2988 C 0.70983 0.10261 0.98246 0.0
C2989 C 0.7191 0.04446 0.98896 0.0
H2990 H 0.68098 0.05692 0.03852 0.0
H2991 H 0.64952 0.03022 0.98654 0.0
H2992 H 0.72565 0.07377 0.02487 0.0
H2993 H 0.72293 0.09417 0.02082 0.0
H2994 H 0.71357 0.08093 0.04082 0.0
H2995 H 0.66313 0.03862 0.95844 0.0
H2996 H 0.68406 0.06238 0.95834 0.0
H2997 H 0.68661 0.04153 0.96021 0.0
H2998 H 0.73997 0.11373 0.96203 0.0
H2999 H 0.74708 0.06422 0.96667 0.0
H3000 H 0.70837 0.10391 0.99741 0.0
H3001 H 0.69521 0.09429 0.97558 0.0
H3002 H 0.71712 0.1174 0.97744 0.0
H3003 H 0.71768 0.04505 0.00398 0.0
H3004 H 0.7296 0.03979 0.98626 0.0
H3005 H 0.705 0.03326 0.98233 0.0
C3006 C 0.62483 0.94728 0.05724 0.0
C3007 C 0.63673 0.9675 0.05784 0.0
C3008 C 0.63103 0.93569 0.06552 0.0
C3009 C 0.64957 0.94458 0.07451 0.0
C3010 C 0.66193 0.96489 0.07442 0.0
C3011 C 0.65533 0.97612 0.06613 0.0
C3012 C 0.61744 0.91407 0.06538 0.0
C3013 C 0.68185 0.97488 0.08375 0.0
C3014 C 0.65744 0.92015 0.11444 0.0
C3015 C 0.66651 0.91097 0.1064 0.0
C3016 C 0.65178 0.93101 0.10415 0.0
C3017 C 0.65545 0.93294 0.08538 0.0
C3018 C 0.66482 0.92394 0.07718 0.0
C3019 C 0.67022 0.91301 0.0878 0.0
C3020 C 0.64187 0.94044 0.11341 0.0
C3021 C 0.66906 0.92579 0.05721 0.0
H3022 H 0.61045 0.94056 0.0508 0.0
H3023 H 0.66463 0.99175 0.06651 0.0
H3024 H 0.62438 0.90595 0.06046 0.0
H3025 H 0.61356 0.91016 0.07958 0.0
H3026 H 0.60414 0.90921 0.05652 0.0
H3027 H 0.69022 0.99046 0.08101 0.0
H3028 H 0.68107 0.97389 0.09882 0.0
H3029 H 0.68961 0.96753 0.07906 0.0
H3030 H 0.65486 0.91895 0.12889 0.0
H3031 H 0.67708 0.9058 0.08147 0.0
H3032 H 0.62769 0.93525 0.10613 0.0
H3033 H 0.6503 0.95643 0.11271 0.0
H3034 H 0.63984 0.93729 0.12807 0.0
H3035 H 0.65557 0.91975 0.04839 0.0
H3036 H 0.67666 0.91811 0.05298 0.0
H3037 H 0.67792 0.94135 0.05462 0.0
C3038 C 0.02459 0.70047 0.07623 0.0
C3039 C 0.03189 0.6901 0.06703 0.0
C3040 C 0.0368 0.71837 0.08615 0.0
C3041 C 0.05674 0.72589 0.08707 0.0
C3042 C 0.06419 0.71558 0.07763 0.0
C3043 C 0.05167 0.69784 0.06762 0.0
C3044 C 0.02836 0.72911 0.09582 0.0
C3045 C 0.08538 0.72307 0.07843 0.0
C3046 C 0.09149 0.77933 0.10039 0.0
C3047 C 0.0967 0.77901 0.1189 0.0
C3048 C 0.07807 0.76222 0.09001 0.0
C3049 C 0.06984 0.74433 0.09825 0.0
C3050 C 0.07468 0.74395 0.11701 0.0
C3051 C 0.08797 0.76132 0.12714 0.0
C3052 C 0.07313 0.76322 0.07007 0.0
C3053 C 0.06622 0.72513 0.12626 0.0
H3054 H 0.0093 0.69456 0.07574 0.0
H3055 H 0.05735 0.68982 0.06057 0.0
H3056 H 0.03178 0.73042 0.11087 0.0
H3057 H 0.03474 0.74407 0.09133 0.0
H3058 H 0.01262 0.72168 0.0931 0.0
H3059 H 0.08888 0.71344 0.0701 0.0
H3060 H 0.09298 0.73781 0.07338 0.0
H3061 H 0.09091 0.72434 0.09288 0.0
H3062 H 0.09839 0.79286 0.09381 0.0
H3063 H 0.09172 0.761 0.14148 0.0
H3064 H 0.05744 0.75607 0.06729 0.0
H3065 H 0.07808 0.75525 0.06115 0.0
H3066 H 0.07976 0.77842 0.06611 0.0
H3067 H 0.05042 0.71772 0.12492 0.0
H3068 H 0.07107 0.7274 0.14108 0.0
H3069 H 0.0703 0.7152 0.11938 0.0
C3070 C 0.31317 0.34713 0.03328 0.0
C3071 C 0.32232 0.36509 0.02555 0.0
C3072 C 0.29762 0.34206 0.04391 0.0
C3073 C 0.29119 0.35538 0.04705 0.0
C3074 C 0.30005 0.37334 0.03889 0.0
C3075 C 0.31549 0.37796 0.02813 0.0
C3076 C 0.28842 0.32267 0.0522 0.0
C3077 C 0.29365 0.38795 0.04204 0.0
C3078 C 0.24225 0.33603 0.06522 0.0
C3079 C 0.24693 0.34082 0.08419 0.0
C3080 C 0.2565 0.34088 0.05291 0.0
C3081 C 0.2759 0.35087 0.05972 0.0
C3082 C 0.28073 0.35593 0.07881 0.0
C3083 C 0.2662 0.35076 0.09081 0.0
C3084 C 0.25082 0.33515 0.03264 0.0
C3085 C 0.30125 0.36657 0.08661 0.0
H3086 H 0.31832 0.33706 0.03121 0.0
H3087 H 0.32256 0.39187 0.0222 0.0
H3088 H 0.29062 0.32499 0.06741 0.0
H3089 H 0.2728 0.31462 0.04859 0.0
H3090 H 0.29433 0.31348 0.04747 0.0
H3091 H 0.30129 0.40075 0.03389 0.0
H3092 H 0.2781 0.38106 0.03841 0.0
H3093 H 0.29621 0.39308 0.05683 0.0
H3094 H 0.22741 0.3286 0.05996 0.0
H3095 H 0.26994 0.35426 0.10546 0.0
H3096 H 0.25584 0.32524 0.02776 0.0
H3097 H 0.25772 0.34821 0.02472 0.0
H3098 H 0.23513 0.32777 0.02952 0.0
H3099 H 0.30781 0.35751 0.08384 0.0
H3100 H 0.30264 0.37018 0.10168 0.0
H3101 H 0.30954 0.38024 0.07981 0.0
C3102 C 0.69364 0.66866 0.39255 0.0
C3103 C 0.702 0.68234 0.37949 0.0
C3104 C 0.70474 0.66407 0.40418 0.0
C3105 C 0.72466 0.67337 0.4027 0.0
C3106 C 0.73316 0.68702 0.38939 0.0
C3107 C 0.72171 0.69137 0.37795 0.0
C3108 C 0.69519 0.64944 0.4182 0.0
C3109 C 0.75436 0.69719 0.38738 0.0
C3110 C 0.7572 0.67718 0.44347 0.0
C3111 C 0.76135 0.66263 0.43837 0.0
C3112 C 0.74495 0.68055 0.43216 0.0
C3113 C 0.73672 0.66914 0.41532 0.0
C3114 C 0.74044 0.65407 0.41033 0.0
C3115 C 0.7527 0.65097 0.42195 0.0
C3116 C 0.74119 0.69663 0.43803 0.0
C3117 C 0.73194 0.64162 0.39247 0.0
H3118 H 0.6784 0.66162 0.39379 0.0
H3119 H 0.72822 0.70193 0.36787 0.0
H3120 H 0.69817 0.63739 0.41621 0.0
H3121 H 0.70108 0.65643 0.43226 0.0
H3122 H 0.67948 0.64323 0.41734 0.0
H3123 H 0.75867 0.70707 0.37608 0.0
H3124 H 0.76223 0.7058 0.40039 0.0
H3125 H 0.75882 0.68631 0.38465 0.0
H3126 H 0.76376 0.68611 0.45623 0.0
H3127 H 0.75609 0.6399 0.41783 0.0
H3128 H 0.72561 0.69084 0.43817 0.0
H3129 H 0.74665 0.70791 0.42799 0.0
H3130 H 0.74806 0.70364 0.45188 0.0
H3131 H 0.7162 0.63489 0.39147 0.0
H3132 H 0.73551 0.62991 0.39104 0.0
H3133 H 0.73732 0.65082 0.38074 0.0
C3134 C 0.33004 0.01602 0.4213 0.0
C3135 C 0.31049 0.0025 0.4183 0.0
C3136 C 0.3365 0.03449 0.43011 0.0
C3137 C 0.32307 0.03932 0.43643 0.0
C3138 C 0.30332 0.02547 0.43392 0.0
C3139 C 0.29726 0.0073 0.42466 0.0
C3140 C 0.35764 0.04903 0.43216 0.0
C3141 C 0.28859 0.02995 0.44082 0.0
C3142 C 0.33909 0.08187 0.47201 0.0
C3143 C 0.33921 0.09588 0.46111 0.0
C3144 C 0.3341 0.06338 0.46414 0.0
C3145 C 0.32955 0.05912 0.44492 0.0
C3146 C 0.33038 0.07358 0.43382 0.0
C3147 C 0.33498 0.09175 0.44211 0.0
C3148 C 0.33303 0.04823 0.47643 0.0
C3149 C 0.32601 0.06974 0.41324 0.0
H3150 H 0.34028 0.01234 0.4163 0.0
H3151 H 0.28213 0.99679 0.42246 0.0
H3152 H 0.36069 0.06187 0.42452 0.0
H3153 H 0.36235 0.05428 0.44681 0.0
H3154 H 0.36623 0.04282 0.42692 0.0
H3155 H 0.27392 0.01715 0.43888 0.0
H3156 H 0.29192 0.03491 0.45565 0.0
H3157 H 0.28892 0.04193 0.43344 0.0
H3158 H 0.34224 0.08517 0.48675 0.0
H3159 H 0.33515 0.10273 0.43379 0.0
H3160 H 0.34204 0.04238 0.47161 0.0
H3161 H 0.31814 0.03586 0.47578 0.0
H3162 H 0.33769 0.05409 0.49099 0.0
H3163 H 0.33484 0.06422 0.4072 0.0
H3164 H 0.32867 0.08298 0.40648 0.0
H3165 H 0.31084 0.05835 0.41005 0.0
C3166 C 0.9935 0.27369 0.36624 0.0
C3167 C 0.00657 0.29248 0.37397 0.0
C3168 C 0.97657 0.26183 0.3746 0.0
C3169 C 0.97272 0.26899 0.39099 0.0
C3170 C 0.98592 0.28793 0.39883 0.0
C3171 C 0.00266 0.29941 0.39023 0.0
C3172 C 0.96281 0.24168 0.36591 0.0
C3173 C 0.98237 0.29611 0.41631 0.0
C3174 C 0.92274 0.24843 0.40669 0.0
C3175 C 0.92305 0.23744 0.421 0.0
C3176 C 0.93854 0.25812 0.39624 0.0
C3177 C 0.95502 0.25679 0.40022 0.0
C3178 C 0.95517 0.24519 0.41423 0.0
C3179 C 0.93921 0.23569 0.42447 0.0
C3180 C 0.93785 0.27035 0.38139 0.0
C3181 C 0.97251 0.24348 0.41894 0.0
H3182 H 0.99646 0.2683 0.35366 0.0
H3183 H 0.0127 0.31393 0.39627 0.0
H3184 H 0.96068 0.23071 0.37577 0.0
H3185 H 0.94869 0.24021 0.36255 0.0
H3186 H 0.96789 0.23828 0.35315 0.0
H3187 H 0.99407 0.31114 0.42058 0.0
H3188 H 0.96883 0.29624 0.41441 0.0
H3189 H 0.98084 0.28675 0.42764 0.0
H3190 H 0.91019 0.2496 0.40378 0.0
H3191 H 0.93965 0.22742 0.43566 0.0
H3192 H 0.94199 0.26644 0.36829 0.0
H3193 H 0.94824 0.28591 0.38533 0.0
H3194 H 0.92346 0.26859 0.37899 0.0
H3195 H 0.97732 0.23945 0.40637 0.0
H3196 H 0.96971 0.23251 0.42903 0.0
H3197 H 0.98441 0.25775 0.42485 0.0
C3198 C 0.06261 0.3896 0.32153 0.0
C3199 C 0.04946 0.37569 0.33238 0.0
C3200 C 0.05853 0.4027 0.31307 0.0
C3201 C 0.04099 0.40189 0.31569 0.0
C3202 C 0.02814 0.38852 0.3274 0.0
C3203 C 0.0325 0.37553 0.33554 0.0
C3204 C 0.07256 0.41673 0.30063 0.0
C3205 C 0.00937 0.38731 0.33067 0.0
C3206 C 0.03299 0.44285 0.30232 0.0
C3207 C 0.02222 0.43502 0.28542 0.0
C3208 C 0.0395 0.43239 0.31225 0.0
C3209 C 0.03524 0.41376 0.30501 0.0
C3210 C 0.02467 0.40596 0.2878 0.0
C3211 C 0.01825 0.41667 0.27824 0.0
C3212 C 0.05062 0.44108 0.33062 0.0
C3213 C 0.01995 0.3862 0.27954 0.0
H3214 H 0.07573 0.38975 0.31905 0.0
H3215 H 0.02235 0.36488 0.34404 0.0
H3216 H 0.06631 0.41267 0.2862 0.0
H3217 H 0.07552 0.43169 0.30426 0.0
H3218 H 0.08626 0.41679 0.30139 0.0
H3219 H 0.00178 0.37734 0.34141 0.0
H3220 H 0.01169 0.40192 0.33488 0.0
H3221 H 1e-05 0.382 0.31772 0.0
H3222 H 0.03602 0.45702 0.30791 0.0
H3223 H 0.01025 0.41075 0.26501 0.0
H3224 H 0.06444 0.44146 0.33074 0.0
H3225 H 0.04257 0.43185 0.34162 0.0
H3226 H 0.05343 0.45606 0.33395 0.0
H3227 H 0.03322 0.38563 0.27838 0.0
H3228 H 0.01226 0.38259 0.2657 0.0
H3229 H 0.01094 0.37485 0.28866 0.0
C3230 C 0.61152 0.63337 0.32093 0.0
C3231 C 0.63071 0.64404 0.31709 0.0
C3232 C 0.59887 0.61569 0.31091 0.0
C3233 C 0.60558 0.60861 0.29666 0.0
C3234 C 0.62495 0.6193 0.29273 0.0
C3235 C 0.63731 0.6369 0.30304 0.0
C3236 C 0.5783 0.60464 0.31554 0.0
C3237 C 0.63256 0.61222 0.27757 0.0
C3238 C 0.57526 0.55475 0.28209 0.0
C3239 C 0.56412 0.55482 0.26695 0.0
C3240 C 0.58924 0.57221 0.2916 0.0
C3241 C 0.59216 0.59011 0.28574 0.0
C3242 C 0.58147 0.59027 0.27002 0.0
C3243 C 0.56753 0.5726 0.26083 0.0
C3244 C 0.60034 0.57148 0.30835 0.0
C3245 C 0.58431 0.60908 0.26325 0.0
H3246 H 0.60637 0.63882 0.3318 0.0
H3247 H 0.65215 0.64512 0.30002 0.0
H3248 H 0.5688 0.60302 0.3034 0.0
H3249 H 0.57447 0.58979 0.31908 0.0
H3250 H 0.57545 0.61198 0.32724 0.0
H3251 H 0.64804 0.62219 0.27636 0.0
H3252 H 0.63019 0.5976 0.28013 0.0
H3253 H 0.62474 0.61078 0.26423 0.0
H3254 H 0.57252 0.541 0.28695 0.0
H3255 H 0.55908 0.57267 0.24898 0.0
H3256 H 0.59669 0.57708 0.32078 0.0
H3257 H 0.61588 0.58095 0.30718 0.0
H3258 H 0.59728 0.55649 0.31036 0.0
H3259 H 0.58014 0.61649 0.27372 0.0
H3260 H 0.57576 0.60674 0.25012 0.0
H3261 H 0.59958 0.61903 0.2612 0.0
C3262 C 0.34327 0.97045 0.34515 0.0
C3263 C 0.33869 0.95854 0.35985 0.0
C3264 C 0.35839 0.97368 0.33454 0.0
C3265 C 0.36935 0.96492 0.33881 0.0
C3266 C 0.36491 0.95298 0.35372 0.0
C3267 C 0.34954 0.94985 0.36404 0.0
C3268 C 0.36258 0.98639 0.31867 0.0
C3269 C 0.37638 0.94352 0.35873 0.0
C3270 C 0.39673 0.96008 0.3001 0.0
C3271 C 0.41482 0.97659 0.30411 0.0
C3272 C 0.38192 0.95579 0.31158 0.0
C3273 C 0.38534 0.96825 0.32749 0.0
C3274 C 0.40374 0.98463 0.33189 0.0
C3275 C 0.41825 0.98865 0.32009 0.0
C3276 C 0.36244 0.93829 0.30634 0.0
C3277 C 0.40797 0.99816 0.34881 0.0
H3278 H 0.33489 0.97716 0.34181 0.0
H3279 H 0.34607 0.94067 0.37541 0.0
H3280 H 0.37737 0.99891 0.32068 0.0
H3281 H 0.36152 0.97803 0.30567 0.0
H3282 H 0.35263 0.99204 0.31713 0.0
H3283 H 0.37128 0.9349 0.37088 0.0
H3284 H 0.3756 0.93379 0.34695 0.0
H3285 H 0.39162 0.95479 0.36173 0.0
H3286 H 0.39398 0.95083 0.28766 0.0
H3287 H 0.4323 0.00127 0.32335 0.0
H3288 H 0.35206 0.94312 0.30324 0.0
H3289 H 0.35736 0.92892 0.31798 0.0
H3290 H 0.36243 0.92944 0.29413 0.0
H3291 H 0.39949 0.00549 0.34757 0.0
H3292 H 0.42331 0.00947 0.35094 0.0
H3293 H 0.40373 0.98981 0.36118 0.0
C3294 C 0.61058 0.97567 0.3467 0.0
C3295 C 0.62568 0.97448 0.33952 0.0
C3296 C 0.59866 0.97962 0.33547 0.0
C3297 C 0.60168 0.98188 0.31655 0.0
C3298 C 0.61675 0.98039 0.30921 0.0
C3299 C 0.62872 0.97695 0.32085 0.0
C3300 C 0.58298 0.98154 0.34385 0.0
C3301 C 0.62012 0.98221 0.28903 0.0
C3302 C 0.55994 0.97369 0.28442 0.0
C3303 C 0.56478 0.9928 0.28118 0.0
C3304 C 0.57194 0.96994 0.29568 0.0
C3305 C 0.58898 0.98567 0.30435 0.0
C3306 C 0.59399 0.00497 0.30121 0.0
C3307 C 0.58197 0.0083 0.28949 0.0
C3308 C 0.56629 0.94912 0.29841 0.0
C3309 C 0.61196 0.02213 0.31041 0.0
H3310 H 0.60829 0.97387 0.36117 0.0
H3311 H 0.64031 0.97587 0.31523 0.0
H3312 H 0.58473 0.99596 0.34144 0.0
H3313 H 0.56891 0.97036 0.33716 0.0
H3314 H 0.58286 0.97991 0.35887 0.0
H3315 H 0.63224 0.98027 0.28545 0.0
H3316 H 0.6071 0.97117 0.28063 0.0
H3317 H 0.62311 0.9967 0.28516 0.0
H3318 H 0.54653 0.96159 0.27846 0.0
H3319 H 0.58604 0.0231 0.28691 0.0
H3320 H 0.56411 0.94635 0.3131 0.0
H3321 H 0.5779 0.94645 0.29466 0.0
H3322 H 0.55299 0.93854 0.29005 0.0
H3323 H 0.6119 0.02149 0.32555 0.0
H3324 H 0.61351 0.03625 0.30698 0.0
H3325 H 0.62463 0.02161 0.30617 0.0
C3326 C 0.03404 0.65419 0.30841 0.0
C3327 C 0.02123 0.66102 0.3094 0.0
C3328 C 0.02873 0.63639 0.29876 0.0
C3329 C 0.01012 0.62513 0.29 0.0
C3330 C 0.99701 0.6318 0.29121 0.0
C3331 C 0.00275 0.64973 0.30086 0.0
C3332 C 0.04313 0.62977 0.29771 0.0
C3333 C 0.977 0.62009 0.28217 0.0
C3334 C 0.00378 0.5889 0.25091 0.0
C3335 C 0.99667 0.57164 0.25979 0.0
C3336 C 0.0078 0.60635 0.26048 0.0
C3337 C 0.00454 0.6065 0.27936 0.0
C3338 C 0.9968 0.58901 0.28826 0.0
C3339 C 0.99302 0.5718 0.27839 0.0
C3340 C 0.01605 0.62472 0.25053 0.0
C3341 C 0.99308 0.5886 0.30837 0.0
H3342 H 0.04835 0.66288 0.31497 0.0
H3343 H 0.99278 0.65495 0.30163 0.0
H3344 H 0.03742 0.61533 0.30328 0.0
H3345 H 0.04582 0.62813 0.28316 0.0
H3346 H 0.05693 0.64012 0.30547 0.0
H3347 H 0.96839 0.62709 0.28482 0.0
H3348 H 0.97751 0.61822 0.2671 0.0
H3349 H 0.96965 0.60536 0.28726 0.0
H3350 H 0.00641 0.58881 0.23649 0.0
H3351 H 0.98781 0.55859 0.28542 0.0
H3352 H 0.03057 0.6353 0.25677 0.0
H3353 H 0.00719 0.63161 0.25198 0.0
H3354 H 0.01698 0.62199 0.23566 0.0
H3355 H 0.00678 0.5974 0.31683 0.0
H3356 H 0.98583 0.5736 0.31291 0.0
H3357 H 0.98414 0.59517 0.31113 0.0
C3358 C 0.34098 0.39316 0.34959 0.0
C3359 C 0.33477 0.37382 0.35302 0.0
C3360 C 0.35662 0.4035 0.33907 0.0
C3361 C 0.36622 0.39424 0.33192 0.0
C3362 C 0.36053 0.37502 0.33609 0.0
C3363 C 0.34486 0.36504 0.34657 0.0
C3364 C 0.36234 0.424 0.33493 0.0
C3365 C 0.37045 0.36467 0.32882 0.0
C3366 C 0.39042 0.40942 0.2875 0.0
C3367 C 0.40973 0.42025 0.29385 0.0
C3368 C 0.37612 0.40126 0.29979 0.0
C3369 C 0.38125 0.40397 0.31893 0.0
C3370 C 0.4007 0.41511 0.32546 0.0
C3371 C 0.41473 0.4231 0.31283 0.0
C3372 C 0.35553 0.38937 0.29228 0.0
C3373 C 0.40669 0.41836 0.34577 0.0
H3374 H 0.33322 0.39999 0.35456 0.0
H3375 H 0.34019 0.35012 0.34928 0.0
H3376 H 0.3779 0.43383 0.33808 0.0
H3377 H 0.35923 0.42437 0.32006 0.0
H3378 H 0.35462 0.42973 0.34288 0.0
H3379 H 0.36519 0.35028 0.33444 0.0
H3380 H 0.36811 0.36244 0.31361 0.0
H3381 H 0.38606 0.37365 0.33227 0.0
H3382 H 0.3865 0.407 0.27284 0.0
H3383 H 0.42963 0.4317 0.31782 0.0
H3384 H 0.34702 0.39517 0.29853 0.0
H3385 H 0.34942 0.37413 0.29594 0.0
H3386 H 0.35389 0.38931 0.27709 0.0
H3387 H 0.39928 0.4248 0.35314 0.0
H3388 H 0.42233 0.42809 0.34864 0.0
H3389 H 0.40246 0.40423 0.35149 0.0
C3390 C 0.29458 0.28446 0.38576 0.0
C3391 C 0.29224 0.29747 0.39736 0.0
C3392 C 0.30049 0.27217 0.39299 0.0
C3393 C 0.30376 0.27273 0.41226 0.0
C3394 C 0.3008 0.28541 0.42404 0.0
C3395 C 0.29525 0.29777 0.41642 0.0
C3396 C 0.30379 0.25905 0.38001 0.0
C3397 C 0.30379 0.28616 0.44468 0.0
C3398 C 0.30424 0.231 0.43451 0.0
C3399 C 0.32379 0.23884 0.43922 0.0
C3400 C 0.29753 0.24163 0.42523 0.0
C3401 C 0.31071 0.26043 0.42024 0.0
C3402 C 0.33051 0.26805 0.4241 0.0
C3403 C 0.33682 0.25722 0.43366 0.0
C3404 C 0.27629 0.23306 0.42144 0.0
C3405 C 0.34502 0.28797 0.41878 0.0
H3406 H 0.2924 0.28434 0.37099 0.0
H3407 H 0.29336 0.30777 0.42542 0.0
H3408 H 0.31903 0.26318 0.38146 0.0
H3409 H 0.29531 0.24375 0.38355 0.0
H3410 H 0.29994 0.25985 0.36543 0.0
H3411 H 0.29998 0.29615 0.45192 0.0
H3412 H 0.29505 0.27142 0.4495 0.0
H3413 H 0.31895 0.29108 0.44868 0.0
H3414 H 0.2941 0.21663 0.43839 0.0
H3415 H 0.35193 0.26348 0.43736 0.0
H3416 H 0.27279 0.23349 0.40669 0.0
H3417 H 0.27161 0.24188 0.42943 0.0
H3418 H 0.26801 0.21779 0.42517 0.0
H3419 H 0.34236 0.28941 0.40406 0.0
H3420 H 0.35987 0.29097 0.42115 0.0
H3421 H 0.34366 0.29922 0.42694 0.0
C3422 C 0.71329 0.03199 0.39151 0.0
C3423 C 0.70003 0.01626 0.40064 0.0
C3424 C 0.72617 0.04979 0.40125 0.0
C3425 C 0.726 0.0517 0.42061 0.0
C3426 C 0.71261 0.03585 0.42988 0.0
C3427 C 0.69964 0.01836 0.41975 0.0
C3428 C 0.74003 0.06651 0.39086 0.0
C3429 C 0.71226 0.03721 0.45054 0.0
C3430 C 0.77208 0.09032 0.4465 0.0
C3431 C 0.76811 0.10522 0.45066 0.0
C3432 C 0.75837 0.07272 0.43706 0.0
C3433 C 0.74035 0.07005 0.43122 0.0
C3434 C 0.73618 0.08497 0.43532 0.0
C3435 C 0.75005 0.10231 0.44514 0.0
C3436 C 0.76327 0.05704 0.43314 0.0
C3437 C 0.71718 0.08271 0.42911 0.0
H3438 H 0.71352 0.03043 0.37671 0.0
H3439 H 0.68943 0.00616 0.42685 0.0
H3440 H 0.73873 0.0795 0.39411 0.0
H3441 H 0.75486 0.07047 0.39519 0.0
H3442 H 0.73763 0.06296 0.37574 0.0
H3443 H 0.70073 0.02365 0.45562 0.0
H3444 H 0.72615 0.04022 0.45708 0.0
H3445 H 0.71025 0.04947 0.4551 0.0
H3446 H 0.7861 0.09252 0.45028 0.0
H3447 H 0.74673 0.1136 0.44847 0.0
H3448 H 0.76301 0.05424 0.41809 0.0
H3449 H 0.75248 0.04325 0.43847 0.0
H3450 H 0.77758 0.06104 0.43943 0.0
H3451 H 0.71481 0.08009 0.41392 0.0
H3452 H 0.71622 0.09574 0.4333 0.0
H3453 H 0.70547 0.0699 0.43494 0.0
C3454 C 0.99187 0.71003 0.37966 0.0
C3455 C 0.9912 0.70874 0.36041 0.0
C3456 C 0.97542 0.70485 0.38888 0.0
C3457 C 0.95778 0.69804 0.37861 0.0
C3458 C 0.95707 0.69719 0.35915 0.0
C3459 C 0.97385 0.70266 0.35025 0.0
C3460 C 0.97684 0.7062 0.40965 0.0
C3461 C 0.9385 0.68992 0.34775 0.0
C3462 C 0.91483 0.66602 0.40465 0.0
C3463 C 0.9096 0.67932 0.41127 0.0
C3464 C 0.92994 0.6717 0.39325 0.0
C3465 C 0.94009 0.69116 0.3884 0.0
C3466 C 0.93436 0.70444 0.3944 0.0
C3467 C 0.91916 0.69835 0.40573 0.0
C3468 C 0.93559 0.65709 0.38708 0.0
C3469 C 0.9448 0.7253 0.3895 0.0
H3470 H 0.00528 0.71482 0.38758 0.0
H3471 H 0.97328 0.70156 0.33536 0.0
H3472 H 0.97093 0.71515 0.41502 0.0
H3473 H 0.96826 0.69149 0.41456 0.0
H3474 H 0.99178 0.71266 0.41558 0.0
H3475 H 0.94055 0.69132 0.33284 0.0
H3476 H 0.92867 0.67439 0.34988 0.0
H3477 H 0.93143 0.69807 0.35219 0.0
H3478 H 0.90761 0.65134 0.40897 0.0
H3479 H 0.91495 0.7086 0.4105 0.0
H3480 H 0.94977 0.66131 0.3938 0.0
H3481 H 0.93684 0.65694 0.37202 0.0
H3482 H 0.92518 0.64215 0.39055 0.0
H3483 H 0.95946 0.7329 0.3963 0.0
H3484 H 0.93751 0.73328 0.39383 0.0
H3485 H 0.94613 0.72594 0.37446 0.0
C3486 C 0.39505 0.03714 0.71262 0.0
C3487 C 0.37535 0.02583 0.7141 0.0
C3488 C 0.40796 0.03497 0.72425 0.0
C3489 C 0.40096 0.02129 0.73773 0.0
C3490 C 0.38108 0.00993 0.73933 0.0
C3491 C 0.36853 0.01229 0.72745 0.0
C3492 C 0.42907 0.04723 0.72208 0.0
C3493 C 0.37306 0.99528 0.7536 0.0
C3494 C 0.43166 0.00187 0.75699 0.0
C3495 C 0.43913 0.01301 0.77384 0.0
C3496 C 0.41936 0.00455 0.74503 0.0
C3497 C 0.41434 0.01864 0.75009 0.0
C3498 C 0.42176 0.02987 0.76713 0.0
C3499 C 0.43413 0.02696 0.77879 0.0
C3500 C 0.41182 0.99238 0.72693 0.0
C3501 C 0.41658 0.0449 0.77308 0.0
H3502 H 0.40037 0.04762 0.70231 0.0
H3503 H 0.3533 0.00355 0.72871 0.0
H3504 H 0.43655 0.05603 0.73513 0.0
H3505 H 0.43507 0.03772 0.719 0.0
H3506 H 0.4322 0.05719 0.71092 0.0
H3507 H 0.35725 0.98782 0.75323 0.0
H3508 H 0.37727 0.98414 0.75137 0.0
H3509 H 0.37905 0.00259 0.76754 0.0
H3510 H 0.43578 0.99133 0.75296 0.0
H3511 H 0.43983 0.03553 0.79184 0.0
H3512 H 0.4159 0.00195 0.7154 0.0
H3513 H 0.39601 0.98379 0.72616 0.0
H3514 H 0.4173 0.98222 0.72495 0.0
H3515 H 0.4207 0.05587 0.76279 0.0
H3516 H 0.42367 0.05249 0.7867 0.0
H3517 H 0.40092 0.03787 0.7738 0.0
C3518 C 0.97505 0.33357 0.76915 0.0
C3519 C 0.97198 0.332 0.74996 0.0
C3520 C 0.9793 0.35066 0.77958 0.0
C3521 C 0.98086 0.36666 0.77054 0.0
C3522 C 0.97794 0.3652 0.75114 0.0
C3523 C 0.97334 0.3478 0.74109 0.0
C3524 C 0.98196 0.35156 0.80026 0.0
C3525 C 0.97977 0.38206 0.741 0.0
C3526 C 0.97472 0.40534 0.79617 0.0
C3527 C 0.99371 0.42027 0.80028 0.0
C3528 C 0.97036 0.38763 0.78695 0.0
C3529 C 0.98533 0.38488 0.78134 0.0
C3530 C 0.00452 0.39976 0.78557 0.0
C3531 C 0.00848 0.4172 0.79513 0.0
C3532 C 0.94971 0.372 0.78288 0.0
C3533 C 0.02087 0.3974 0.77966 0.0
H3534 H 0.97392 0.32133 0.77604 0.0
H3535 H 0.9711 0.34667 0.72624 0.0
H3536 H 0.99642 0.36358 0.80519 0.0
H3537 H 0.97154 0.3547 0.80661 0.0
H3538 H 0.9801 0.33779 0.80517 0.0
H3539 H 0.97752 0.37872 0.72585 0.0
H3540 H 0.96921 0.38601 0.74548 0.0
H3541 H 0.99415 0.395 0.74432 0.0
H3542 H 0.96316 0.40763 0.79974 0.0
H3543 H 0.02319 0.42849 0.79848 0.0
H3544 H 0.94724 0.35811 0.78802 0.0
H3545 H 0.94615 0.36941 0.76781 0.0
H3546 H 0.93981 0.37593 0.78923 0.0
H3547 H 0.02006 0.38438 0.78532 0.0
H3548 H 0.03499 0.41027 0.78421 0.0
H3549 H 0.01985 0.39511 0.76445 0.0
C3550 C 0.65861 0.6036 0.70181 0.0
C3551 C 0.66881 0.62372 0.7063 0.0
C3552 C 0.64225 0.59145 0.71082 0.0
C3553 C 0.63624 0.59965 0.72477 0.0
C3554 C 0.64666 0.61994 0.72945 0.0
C3555 C 0.66272 0.63171 0.72008 0.0
C3556 C 0.63133 0.56989 0.70537 0.0
C3557 C 0.6409 0.62925 0.74441 0.0
C3558 C 0.58575 0.57548 0.7397 0.0
C3559 C 0.58781 0.56837 0.7563 0.0
C3560 C 0.60117 0.58476 0.72873 0.0
C3561 C 0.61912 0.58724 0.73469 0.0
C3562 C 0.6211 0.57956 0.75119 0.0
C3563 C 0.60538 0.57011 0.76175 0.0
C3564 C 0.59844 0.59254 0.71111 0.0
C3565 C 0.64006 0.58218 0.75817 0.0
H3566 H 0.66327 0.5974 0.69113 0.0
H3567 H 0.67062 0.64725 0.72369 0.0
H3568 H 0.63086 0.56172 0.71741 0.0
H3569 H 0.61637 0.56525 0.70076 0.0
H3570 H 0.63777 0.56582 0.69415 0.0
H3571 H 0.65078 0.64521 0.74659 0.0
H3572 H 0.62631 0.62652 0.74086 0.0
H3573 H 0.64057 0.62269 0.75755 0.0
H3574 H 0.57211 0.57394 0.7354 0.0
H3575 H 0.60702 0.56475 0.77467 0.0
H3576 H 0.60409 0.58787 0.6996 0.0
H3577 H 0.60656 0.60866 0.71259 0.0
H3578 H 0.58321 0.5876 0.70743 0.0
H3579 H 0.64621 0.5774 0.74724 0.0
H3580 H 0.63884 0.57395 0.77039 0.0
H3581 H 0.65026 0.59783 0.76199 0.0
C3582 C 0.71772 0.72331 0.66578 0.0
C3583 C 0.70808 0.70396 0.65834 0.0
C3584 C 0.71307 0.7368 0.65918 0.0
C3585 C 0.69869 0.73078 0.64466 0.0
C3586 C 0.68924 0.71135 0.63687 0.0
C3587 C 0.69396 0.69815 0.64389 0.0
C3588 C 0.72331 0.75736 0.6679 0.0
C3589 C 0.67403 0.70444 0.62117 0.0
C3590 C 0.67159 0.75725 0.6362 0.0
C3591 C 0.68052 0.76777 0.62126 0.0
C3592 C 0.67794 0.7458 0.64453 0.0
C3593 C 0.69335 0.74466 0.63752 0.0
C3594 C 0.7027 0.75564 0.62272 0.0
C3595 C 0.69621 0.76714 0.61482 0.0
C3596 C 0.66777 0.73446 0.66043 0.0
C3597 C 0.71898 0.75456 0.61468 0.0
H3598 H 0.72857 0.7278 0.67702 0.0
H3599 H 0.68655 0.68321 0.63806 0.0
H3600 H 0.73036 0.76777 0.65735 0.0
H3601 H 0.71286 0.76074 0.67381 0.0
H3602 H 0.73425 0.75977 0.67896 0.0
H3603 H 0.66845 0.689 0.61633 0.0
H3604 H 0.66195 0.70603 0.62554 0.0
H3605 H 0.67984 0.71353 0.60944 0.0
H3606 H 0.65953 0.75784 0.64124 0.0
H3607 H 0.70295 0.77506 0.60308 0.0
H3608 H 0.67822 0.7372 0.67211 0.0
H3609 H 0.66023 0.71866 0.65623 0.0
H3610 H 0.65718 0.73825 0.66525 0.0
H3611 H 0.73017 0.75753 0.62565 0.0
H3612 H 0.72555 0.76503 0.60403 0.0
H3613 H 0.71371 0.73967 0.60834 0.0
C3614 C 0.27961 0.96826 0.6554 0.0
C3615 C 0.29899 0.9784 0.65213 0.0
C3616 C 0.267 0.95033 0.64577 0.0
C3617 C 0.27392 0.94246 0.63244 0.0
C3618 C 0.29349 0.95259 0.62912 0.0
C3619 C 0.30583 0.97043 0.63908 0.0
C3620 C 0.24623 0.93987 0.64978 0.0
C3621 C 0.30133 0.94469 0.61491 0.0
C3622 C 0.24256 0.88843 0.61908 0.0
C3623 C 0.23197 0.88846 0.60345 0.0
C3624 C 0.25674 0.90594 0.62836 0.0
C3625 C 0.26047 0.92382 0.62172 0.0
C3626 C 0.25041 0.92389 0.60546 0.0
C3627 C 0.23619 0.90618 0.59657 0.0
C3628 C 0.26712 0.90531 0.64572 0.0
C3629 C 0.25416 0.94266 0.59782 0.0
H3630 H 0.27429 0.97433 0.66552 0.0
H3631 H 0.32081 0.97825 0.6365 0.0
H3632 H 0.23723 0.93823 0.63721 0.0
H3633 H 0.24186 0.92505 0.6538 0.0
H3634 H 0.24327 0.94769 0.66094 0.0
H3635 H 0.31696 0.9542 0.6142 0.0
H3636 H 0.29832 0.93 0.61808 0.0
H3637 H 0.29415 0.94317 0.60116 0.0
H3638 H 0.23918 0.87472 0.62448 0.0
H3639 H 0.22814 0.90618 0.58435 0.0
H3640 H 0.26327 0.91141 0.65765 0.0
H3641 H 0.28277 0.91441 0.64497 0.0
H3642 H 0.26357 0.89028 0.64828 0.0
H3643 H 0.24988 0.95061 0.60756 0.0
H3644 H 0.24619 0.94017 0.58429 0.0
H3645 H 0.26962 0.95217 0.59625 0.0
C3646 C 0.01452 0.2815 0.68792 0.0
C3647 C 0.01287 0.29564 0.69844 0.0
C3648 C 0.03045 0.28669 0.67774 0.0
C3649 C 0.04517 0.30641 0.67841 0.0
C3650 C 0.04398 0.32057 0.68975 0.0
C3651 C 0.02775 0.31504 0.69949 0.0
C3652 C 0.03108 0.27122 0.6656 0.0
C3653 C 0.05956 0.34168 0.69112 0.0
C3654 C 0.0928 0.31799 0.66074 0.0
C3655 C 0.09145 0.32402 0.64331 0.0
C3656 C 0.07793 0.31239 0.67244 0.0
C3657 C 0.0612 0.31246 0.66634 0.0
C3658 C 0.05976 0.31844 0.64867 0.0
C3659 C 0.075 0.32433 0.63743 0.0
C3660 C 0.08014 0.30651 0.69132 0.0
C3661 C 0.04204 0.31841 0.64155 0.0
H3662 H 0.00298 0.26651 0.687 0.0
H3663 H 0.02655 0.32599 0.7077 0.0
H3664 H 0.03049 0.27423 0.65098 0.0
H3665 H 0.04469 0.27145 0.66858 0.0
H3666 H 0.01905 0.25642 0.66742 0.0
H3667 H 0.0573 0.35051 0.70183 0.0
H3668 H 0.07365 0.34302 0.69433 0.0
H3669 H 0.06009 0.34786 0.67772 0.0
H3670 H 0.1056 0.31786 0.66529 0.0
H3671 H 0.0739 0.32878 0.62384 0.0
H3672 H 0.06872 0.29133 0.69278 0.0
H3673 H 0.0786 0.31591 0.70196 0.0
H3674 H 0.09419 0.30757 0.69409 0.0
H3675 H 0.02941 0.30363 0.64171 0.0
H3676 H 0.04303 0.32304 0.62733 0.0
H3677 H 0.03957 0.32834 0.65063 0.0
C3678 C 0.30669 0.33232 0.66427 0.0
C3679 C 0.29783 0.31554 0.6739 0.0
C3680 C 0.29589 0.33767 0.65309 0.0
C3681 C 0.27578 0.32581 0.65131 0.0
C3682 C 0.26676 0.30883 0.66098 0.0
C3683 C 0.2779 0.30397 0.67228 0.0
C3684 C 0.306 0.35604 0.64322 0.0
C3685 C 0.24535 0.2957 0.65926 0.0
C3686 C 0.2452 0.34674 0.63555 0.0
C3687 C 0.2407 0.33991 0.61692 0.0
C3688 C 0.25693 0.34261 0.6468 0.0
C3689 C 0.26414 0.33114 0.63932 0.0
C3690 C 0.25989 0.32441 0.62049 0.0
C3691 C 0.24832 0.32897 0.60949 0.0
C3692 C 0.26127 0.3502 0.66678 0.0
C3693 C 0.26725 0.31205 0.61204 0.0
H3694 H 0.3221 0.34136 0.66555 0.0
H3695 H 0.27101 0.29095 0.67965 0.0
H3696 H 0.30284 0.35253 0.62816 0.0
H3697 H 0.30071 0.36597 0.64723 0.0
H3698 H 0.32171 0.36383 0.6463 0.0
H3699 H 0.24057 0.28295 0.66757 0.0
H3700 H 0.2384 0.30394 0.66378 0.0
H3701 H 0.24031 0.29039 0.64466 0.0
H3702 H 0.23908 0.35486 0.64154 0.0
H3703 H 0.2451 0.32382 0.59507 0.0
H3704 H 0.27692 0.35849 0.67021 0.0
H3705 H 0.25515 0.33785 0.67564 0.0
H3706 H 0.2554 0.35977 0.67022 0.0
H3707 H 0.28305 0.31984 0.61391 0.0
H3708 H 0.26285 0.30818 0.59713 0.0
H3709 H 0.26184 0.29843 0.61912 0.0
C3710 C 0.67227 0.98906 0.62292 0.0
C3711 C 0.69007 0.99883 0.63301 0.0
C3712 C 0.66586 0.97099 0.61326 0.0
C3713 C 0.6776 0.96261 0.61361 0.0
C3714 C 0.69575 0.97261 0.62345 0.0
C3715 C 0.70175 0.99058 0.6331 0.0
C3716 C 0.64638 0.9607 0.603 0.0
C3717 C 0.70873 0.96417 0.62402 0.0
C3718 C 0.65568 0.90804 0.60527 0.0
C3719 C 0.6599 0.90621 0.58712 0.0
C3720 C 0.66091 0.92628 0.61388 0.0
C3721 C 0.67071 0.9431 0.60415 0.0
C3722 C 0.67457 0.94132 0.58568 0.0
C3723 C 0.66906 0.92288 0.57736 0.0
C3724 C 0.65646 0.92759 0.63359 0.0
C3725 C 0.68499 0.95894 0.57488 0.0
H3726 H 0.66318 0.99537 0.62284 0.0
H3727 H 0.71553 0.99812 0.64084 0.0
H3728 H 0.64754 0.95729 0.58838 0.0
H3729 H 0.63715 0.94668 0.60893 0.0
H3730 H 0.63927 0.96949 0.60359 0.0
H3731 H 0.72268 0.97411 0.63174 0.0
H3732 H 0.70176 0.95021 0.6306 0.0
H3733 H 0.71135 0.96099 0.60984 0.0
H3734 H 0.64887 0.89528 0.613 0.0
H3735 H 0.67215 0.92152 0.56325 0.0
H3736 H 0.64865 0.93562 0.63486 0.0
H3737 H 0.66994 0.93583 0.64248 0.0
H3738 H 0.64776 0.91305 0.63884 0.0
H3739 H 0.67756 0.9674 0.57492 0.0
H3740 H 0.68615 0.95499 0.5604 0.0
H3741 H 0.69958 0.96862 0.58146 0.0
C3742 C 0.00342 0.72338 0.68087 0.0
C3743 C 0.99642 0.70357 0.68277 0.0
C3744 C 0.01933 0.73414 0.67079 0.0
C3745 C 0.02839 0.72483 0.6625 0.0
C3746 C 0.02171 0.70499 0.66489 0.0
C3747 C 0.0058 0.69461 0.67498 0.0
C3748 C 0.02609 0.75528 0.66853 0.0
C3749 C 0.03101 0.69455 0.65633 0.0
C3750 C 0.05496 0.74369 0.61984 0.0
C3751 C 0.07405 0.75318 0.62698 0.0
C3752 C 0.03998 0.73483 0.63134 0.0
C3753 C 0.04417 0.73541 0.65045 0.0
C3754 C 0.06339 0.74516 0.65779 0.0
C3755 C 0.07811 0.75393 0.64596 0.0
C3756 C 0.01966 0.72449 0.62296 0.0
C3757 C 0.06839 0.74607 0.6781 0.0
H3758 H 0.99621 0.73036 0.68689 0.0
H3759 H 0.00051 0.67932 0.67647 0.0
H3760 H 0.04157 0.76434 0.67262 0.0
H3761 H 0.024 0.75729 0.65385 0.0
H3762 H 0.01832 0.76069 0.67682 0.0
H3763 H 0.02471 0.67938 0.66032 0.0
H3764 H 0.0294 0.69417 0.64113 0.0
H3765 H 0.04652 0.70247 0.66049 0.0
H3766 H 0.05173 0.74285 0.60516 0.0
H3767 H 0.09283 0.76148 0.65158 0.0
H3768 H 0.01138 0.73018 0.62988 0.0
H3769 H 0.01272 0.70875 0.62506 0.0
H3770 H 0.01882 0.72616 0.608 0.0
H3771 H 0.06119 0.75233 0.68611 0.0
H3772 H 0.08401 0.75494 0.68173 0.0
H3773 H 0.06321 0.73118 0.68239 0.0
C3774 C 0.96696 0.63302 0.74661 0.0
C3775 C 0.95358 0.62727 0.73149 0.0
C3776 C 0.97082 0.61963 0.75462 0.0
C3777 C 0.96116 0.60005 0.74724 0.0
C3778 C 0.94754 0.59411 0.73203 0.0
C3779 C 0.94384 0.60781 0.72436 0.0
C3780 C 0.98534 0.62648 0.77093 0.0
C3781 C 0.93704 0.57335 0.72376 0.0
C3782 C 0.98585 0.57183 0.75866 0.0
C3783 C 0.97608 0.56194 0.77358 0.0
C3784 C 0.98068 0.58375 0.74949 0.0
C3785 C 0.96546 0.5859 0.7555 0.0
C3786 C 0.95521 0.57552 0.77022 0.0
C3787 C 0.96063 0.56363 0.77907 0.0
C3788 C 0.99184 0.59448 0.73374 0.0
C3789 C 0.93901 0.57757 0.77711 0.0
H3790 H 0.97449 0.64804 0.7522 0.0
H3791 H 0.93353 0.60334 0.71263 0.0
H3792 H 0.9787 0.6179 0.78277 0.0
H3793 H 0.99723 0.62412 0.76755 0.0
H3794 H 0.99134 0.64213 0.77521 0.0
H3795 H 0.92679 0.57105 0.71203 0.0
H3796 H 0.94739 0.56928 0.71889 0.0
H3797 H 0.92913 0.56337 0.73435 0.0
H3798 H 0.99767 0.57038 0.75427 0.0
H3799 H 0.9532 0.5562 0.79075 0.0
H3800 H 0.99962 0.61036 0.73757 0.0
H3801 H 0.98202 0.59174 0.72149 0.0
H3802 H 0.00235 0.59016 0.72992 0.0
H3803 H 0.94456 0.59269 0.78296 0.0
H3804 H 0.93167 0.56749 0.78785 0.0
H3805 H 0.92838 0.57471 0.76558 0.0
C3806 C 0.35909 0.36282 0.74517 0.0
C3807 C 0.36667 0.35261 0.73617 0.0
C3808 C 0.37105 0.38051 0.75554 0.0
C3809 C 0.39098 0.38795 0.75712 0.0
C3810 C 0.39866 0.37758 0.74819 0.0
C3811 C 0.38641 0.3601 0.7377 0.0
C3812 C 0.3624 0.39133 0.76464 0.0
C3813 C 0.41983 0.38495 0.74974 0.0
C3814 C 0.42605 0.44157 0.76879 0.0
C3815 C 0.43127 0.44196 0.78744 0.0
C3816 C 0.4124 0.4242 0.75894 0.0
C3817 C 0.40394 0.40673 0.76787 0.0
C3818 C 0.40873 0.40707 0.7868 0.0
C3819 C 0.42227 0.4247 0.79639 0.0
C3820 C 0.40753 0.42445 0.7388 0.0
C3821 C 0.40007 0.38869 0.79676 0.0
H3822 H 0.34382 0.35708 0.74395 0.0
H3823 H 0.3923 0.35219 0.73084 0.0
H3824 H 0.36607 0.39347 0.77969 0.0
H3825 H 0.3684 0.40597 0.75943 0.0
H3826 H 0.34662 0.38354 0.7621 0.0
H3827 H 0.42345 0.37489 0.74233 0.0
H3828 H 0.42763 0.39935 0.74405 0.0
H3829 H 0.42505 0.38692 0.76441 0.0
H3830 H 0.43314 0.45474 0.76166 0.0
H3831 H 0.42603 0.42493 0.81085 0.0
H3832 H 0.39185 0.41719 0.73589 0.0
H3833 H 0.41258 0.41623 0.7304 0.0
H3834 H 0.41414 0.43945 0.73431 0.0
H3835 H 0.38427 0.38119 0.79504 0.0
H3836 H 0.40458 0.39157 0.81169 0.0
H3837 H 0.40436 0.37857 0.79073 0.0
C3838 C 0.64712 0.02336 0.69914 0.0
C3839 C 0.65867 0.04149 0.69229 0.0
C3840 C 0.6324 0.02033 0.71028 0.0
C3841 C 0.62916 0.03582 0.71471 0.0
C3842 C 0.64042 0.05402 0.70743 0.0
C3843 C 0.65506 0.05664 0.69626 0.0
C3844 C 0.62066 0.00067 0.7177 0.0
C3845 C 0.63733 0.07085 0.71187 0.0
C3846 C 0.58146 0.02187 0.73353 0.0
C3847 C 0.5863 0.02502 0.75255 0.0
C3848 C 0.59536 0.02583 0.721 0.0
C3849 C 0.61453 0.03308 0.72766 0.0
C3850 C 0.61955 0.03664 0.74682 0.0
C3851 C 0.60538 0.03256 0.75903 0.0
C3852 C 0.58947 0.02187 0.70066 0.0
C3853 C 0.63983 0.04429 0.75446 0.0
H3854 H 0.64979 0.01156 0.69606 0.0
H3855 H 0.66397 0.07068 0.69099 0.0
H3856 H 0.62285 0.00212 0.73292 0.0
H3857 H 0.60526 0.99491 0.71412 0.0
H3858 H 0.62445 0.98991 0.71227 0.0
H3859 H 0.64653 0.08368 0.70427 0.0
H3860 H 0.6222 0.06645 0.70849 0.0
H3861 H 0.64048 0.07521 0.72682 0.0
H3862 H 0.56679 0.01632 0.72844 0.0
H3863 H 0.60917 0.03482 0.77371 0.0
H3864 H 0.59196 0.0103 0.69489 0.0
H3865 H 0.5983 0.03509 0.69341 0.0
H3866 H 0.5742 0.01722 0.69769 0.0
H3867 H 0.64425 0.03353 0.75091 0.0
H3868 H 0.64156 0.04727 0.76964 0.0
H3869 H 0.64965 0.05788 0.7482 0.0
loop_
_geom_bond_atom_site_label_1
_geom_bond_atom_site_label_2
_geom_bond_distance
_geom_bond_site_symmetry_2
_ccdc_geom_bond_type
In0 O1 2.252 1_455 S
In0 O2 2.329 . S
In0 O6 2.224 1_455 S
In0 O7 2.339 1_454 S
In0 O8 2.285 1_554 S
In0 O9 2.280 1_454 S
In0 O11 2.361 . S
In0 O12 2.360 . S
O1 In0 2.252 1_655 S
O1 C10 1.234 1_655 S
O2 In0 2.329 . S
O2 C10 1.264 . S
C3 O6 1.252 1_556 S
C3 O7 1.260 . S
C4 O11 1.240 . S
C4 O12 1.252 . S
C5 O8 1.252 . S
C5 O9 1.260 1_455 S
O6 In0 2.224 1_655 S
O6 C3 1.252 1_554 S
O7 In0 2.339 1_656 S
O7 C3 1.260 . S
O8 In0 2.285 1_556 S
O8 C5 1.252 . S
O9 In0 2.280 1_656 S
O9 C5 1.260 1_655 S
C10 O1 1.234 1_455 S
C10 O2 1.264 . S
O11 In0 2.361 . S
O11 C4 1.240 . S
O12 In0 2.360 . S
O12 C4 1.252 . S
In13 O14 2.294 . S
In13 O15 2.326 . S
In13 O19 2.266 . S
In13 O20 2.326 . S
In13 O21 2.266 . S
In13 O22 2.326 . S
In13 O24 2.294 . S
In13 O25 2.326 . S
O14 In13 2.294 . S
O14 C23 1.240 . S
O15 In13 2.326 . S
O15 C23 1.252 . S
C16 O19 1.252 . S
C16 O20 1.260 . S
C17 O24 1.240 . S
C17 O25 1.252 . S
C18 O21 1.252 . S
C18 O22 1.260 . S
O19 In13 2.266 . S
O19 C16 1.252 . S
O20 In13 2.326 . S
O20 C16 1.260 . S
O21 In13 2.266 . S
O21 C18 1.252 . S
O22 In13 2.326 . S
O22 C18 1.260 . S
C23 O14 1.240 . S
C23 O15 1.252 . S
O24 In13 2.294 . S
O24 C17 1.240 . S
O25 In13 2.326 . S
O25 C17 1.252 . S
In26 O27 2.308 . S
In26 O28 2.334 1_554 S
In26 O32 2.269 . S
In26 O33 2.316 1_545 S
In26 O34 2.258 1_545 S
In26 O35 2.328 1_545 S
In26 O37 2.285 1_544 S
In26 O38 2.287 1_554 S
O27 In26 2.308 . S
O27 C36 1.239 . S
O28 In26 2.334 1_556 S
O28 C36 1.253 1_556 S
C29 O32 1.252 . S
C29 O33 1.260 1_545 S
C30 O37 1.240 . S
C30 O38 1.282 1_565 S
C31 O34 1.252 . S
C31 O35 1.260 . S
O32 In26 2.269 . S
O32 C29 1.252 . S
O33 In26 2.316 1_565 S
O33 C29 1.260 1_565 S
O34 In26 2.258 1_565 S
O34 C31 1.252 . S
O35 In26 2.328 1_565 S
O35 C31 1.260 . S
C36 O27 1.239 . S
C36 O28 1.253 1_554 S
O37 In26 2.285 1_566 S
O37 C30 1.240 . S
O38 In26 2.287 1_556 S
O38 C30 1.282 1_545 S
In39 O40 2.292 . S
In39 O41 2.326 1_455 S
In39 O45 2.265 . S
In39 O46 2.326 . S
In39 O47 2.267 1_455 S
In39 O48 2.324 . S
In39 O50 2.296 1_455 S
In39 O51 2.327 1_455 S
O40 In39 2.292 . S
O40 C49 1.260 . S
O41 In39 2.326 1_655 S
O41 C49 1.214 1_655 S
C42 O45 1.252 . S
C42 O46 1.260 . S
C43 O50 1.240 . S
C43 O51 1.252 . S
C44 O47 1.317 . S
C44 O48 1.211 1_655 S
O45 In39 2.265 . S
O45 C42 1.252 . S
O46 In39 2.326 . S
O46 C42 1.260 . S
O47 In39 2.267 1_655 S
O47 C44 1.317 . S
O48 In39 2.324 . S
O48 C44 1.211 1_455 S
C49 O40 1.260 . S
C49 O41 1.214 1_455 S
O50 In39 2.296 1_655 S
O50 C43 1.240 . S
O51 In39 2.327 1_655 S
O51 C43 1.252 . S
In52 O53 2.294 1_554 S
In52 O54 2.326 1_554 S
In52 O58 2.266 . S
In52 O59 2.326 . S
In52 O60 2.266 . S
In52 O61 2.326 . S
In52 O63 2.294 1_554 S
In52 O64 2.326 1_554 S
O53 In52 2.294 1_556 S
O53 C62 1.240 . S
O54 In52 2.326 1_556 S
O54 C62 1.252 . S
C55 O58 1.252 . S
C55 O59 1.260 . S
C56 O63 1.240 . S
C56 O64 1.252 . S
C57 O60 1.252 . S
C57 O61 1.260 . S
O58 In52 2.266 . S
O58 C55 1.252 . S
O59 In52 2.326 . S
O59 C55 1.260 . S
O60 In52 2.266 . S
O60 C57 1.252 . S
O61 In52 2.326 . S
O61 C57 1.260 . S
C62 O53 1.240 . S
C62 O54 1.252 . S
O63 In52 2.294 1_556 S
O63 C56 1.240 . S
O64 In52 2.326 1_556 S
O64 C56 1.252 . S
In65 O66 2.293 . S
In65 O67 2.326 1_545 S
In65 O71 2.265 . S
In65 O72 2.326 . S
In65 O73 2.267 1_545 S
In65 O74 2.324 . S
In65 O76 2.296 1_545 S
In65 O77 2.327 1_545 S
O66 In65 2.293 . S
O66 C75 1.240 . S
O67 In65 2.326 1_565 S
O67 C75 1.252 1_565 S
C68 O71 1.252 . S
C68 O72 1.260 . S
C69 O76 1.240 . S
C69 O77 1.252 . S
C70 O73 1.252 . S
C70 O74 1.260 1_565 S
O71 In65 2.265 . S
O71 C68 1.252 . S
O72 In65 2.326 . S
O72 C68 1.260 . S
O73 In65 2.267 1_565 S
O73 C70 1.252 . S
O74 In65 2.324 . S
O74 C70 1.260 1_545 S
C75 O66 1.240 . S
C75 O67 1.252 1_545 S
O76 In65 2.296 1_565 S
O76 C69 1.240 . S
O77 In65 2.327 1_565 S
O77 C69 1.252 . S
In78 O79 2.294 . S
In78 O80 2.326 . S
In78 O84 2.266 . S
In78 O85 2.326 . S
In78 O86 2.266 . S
In78 O87 2.326 . S
In78 O89 2.294 . S
In78 O90 2.326 . S
O79 In78 2.294 . S
O79 C88 1.240 . S
O80 In78 2.326 . S
O80 C88 1.252 . S
C81 O84 1.252 . S
C81 O85 1.260 . S
C82 O89 1.240 . S
C82 O90 1.252 . S
C83 O86 1.252 . S
C83 O87 1.260 . S
O84 In78 2.266 . S
O84 C81 1.252 . S
O85 In78 2.326 . S
O85 C81 1.260 . S
O86 In78 2.266 . S
O86 C83 1.252 . S
O87 In78 2.326 . S
O87 C83 1.260 . S
C88 O79 1.240 . S
C88 O80 1.252 . S
O89 In78 2.294 . S
O89 C82 1.240 . S
O90 In78 2.326 . S
O90 C82 1.252 . S
In91 O92 2.294 . S
In91 O93 2.326 . S
In91 O97 2.266 . S
In91 O98 2.326 . S
In91 O99 2.266 . S
In91 O100 2.326 . S
In91 O102 2.294 . S
In91 O103 2.326 . S
O92 In91 2.294 . S
O92 C101 1.240 . S
O93 In91 2.326 . S
O93 C101 1.252 . S
C94 O97 1.252 . S
C94 O98 1.260 . S
C95 O102 1.240 . S
C95 O103 1.252 . S
C96 O99 1.252 . S
C96 O100 1.260 . S
O97 In91 2.266 . S
O97 C94 1.252 . S
O98 In91 2.326 . S
O98 C94 1.260 . S
O99 In91 2.266 . S
O99 C96 1.252 . S
O100 In91 2.326 . S
O100 C96 1.260 . S
C101 O92 1.240 . S
C101 O93 1.252 . S
O102 In91 2.294 . S
O102 C95 1.240 . S
O103 In91 2.326 . S
O103 C95 1.252 . S
In104 O105 2.294 . S
In104 O106 2.326 . S
In104 O110 2.266 . S
In104 O111 2.326 . S
In104 O112 2.266 . S
In104 O113 2.326 . S
In104 O115 2.294 . S
In104 O116 2.326 . S
O105 In104 2.294 . S
O105 C114 1.240 . S
O106 In104 2.326 . S
O106 C114 1.252 . S
C107 O110 1.252 . S
C107 O111 1.260 . S
C108 O115 1.240 . S
C108 O116 1.252 . S
C109 O112 1.252 . S
C109 O113 1.260 . S
O110 In104 2.266 . S
O110 C107 1.252 . S
O111 In104 2.326 . S
O111 C107 1.260 . S
O112 In104 2.266 . S
O112 C109 1.252 . S
O113 In104 2.326 . S
O113 C109 1.260 . S
C114 O105 1.240 . S
C114 O106 1.252 . S
O115 In104 2.294 . S
O115 C108 1.240 . S
O116 In104 2.326 . S
O116 C108 1.252 . S
In117 O118 2.294 . S
In117 O119 2.326 . S
In117 O123 2.266 . S
In117 O124 2.326 . S
In117 O125 2.266 . S
In117 O126 2.326 . S
In117 O128 2.294 . S
In117 O129 2.326 . S
O118 In117 2.294 . S
O118 C127 1.240 . S
O119 In117 2.326 . S
O119 C127 1.252 . S
C120 O123 1.252 . S
C120 O124 1.260 . S
C121 O128 1.240 . S
C121 O129 1.252 . S
C122 O125 1.252 . S
C122 O126 1.260 . S
O123 In117 2.266 . S
O123 C120 1.252 . S
O124 In117 2.326 . S
O124 C120 1.260 . S
O125 In117 2.266 . S
O125 C122 1.252 . S
O126 In117 2.326 . S
O126 C122 1.260 . S
C127 O118 1.240 . S
C127 O119 1.252 . S
O128 In117 2.294 . S
O128 C121 1.240 . S
O129 In117 2.326 . S
O129 C121 1.252 . S
In130 O131 2.294 . S
In130 O132 2.326 . S
In130 O136 2.266 . S
In130 O137 2.326 . S
In130 O138 2.266 . S
In130 O139 2.326 . S
In130 O141 2.294 . S
In130 O142 2.326 . S
O131 In130 2.294 . S
O131 C140 1.240 . S
O132 In130 2.326 . S
O132 C140 1.252 . S
C133 O136 1.252 . S
C133 O137 1.260 . S
C134 O141 1.240 . S
C134 O142 1.252 . S
C135 O138 1.252 . S
C135 O139 1.260 . S
O136 In130 2.266 . S
O136 C133 1.252 . S
O137 In130 2.326 . S
O137 C133 1.260 . S
O138 In130 2.266 . S
O138 C135 1.252 . S
O139 In130 2.326 . S
O139 C135 1.260 . S
C140 O131 1.240 . S
C140 O132 1.252 . S
O141 In130 2.294 . S
O141 C134 1.240 . S
O142 In130 2.326 . S
O142 C134 1.252 . S
In143 O144 2.294 . S
In143 O145 2.326 . S
In143 O149 2.266 . S
In143 O150 2.326 . S
In143 O151 2.266 . S
In143 O152 2.326 . S
In143 O154 2.294 . S
In143 O155 2.326 . S
O144 In143 2.294 . S
O144 C153 1.240 . S
O145 In143 2.326 . S
O145 C153 1.252 . S
C146 O149 1.252 . S
C146 O150 1.260 . S
C147 O154 1.240 . S
C147 O155 1.252 . S
C148 O151 1.252 . S
C148 O152 1.260 . S
O149 In143 2.266 . S
O149 C146 1.252 . S
O150 In143 2.326 . S
O150 C146 1.260 . S
O151 In143 2.266 . S
O151 C148 1.252 . S
O152 In143 2.326 . S
O152 C148 1.260 . S
C153 O144 1.240 . S
C153 O145 1.252 . S
O154 In143 2.294 . S
O154 C147 1.240 . S
O155 In143 2.326 . S
O155 C147 1.252 . S
In156 O157 2.294 . S
In156 O158 2.326 . S
In156 O162 2.266 . S
In156 O163 2.326 . S
In156 O164 2.266 . S
In156 O165 2.326 . S
In156 O167 2.294 . S
In156 O168 2.326 . S
O157 In156 2.294 . S
O157 C166 1.240 . S
O158 In156 2.326 . S
O158 C166 1.252 . S
C159 O162 1.252 . S
C159 O163 1.260 . S
C160 O167 1.240 . S
C160 O168 1.252 . S
C161 O164 1.252 . S
C161 O165 1.260 . S
O162 In156 2.266 . S
O162 C159 1.252 . S
O163 In156 2.326 . S
O163 C159 1.260 . S
O164 In156 2.266 . S
O164 C161 1.252 . S
O165 In156 2.326 . S
O165 C161 1.260 . S
C166 O157 1.240 . S
C166 O158 1.252 . S
O167 In156 2.294 . S
O167 C160 1.240 . S
O168 In156 2.326 . S
O168 C160 1.252 . S
In169 O170 2.294 . S
In169 O171 2.326 . S
In169 O175 2.266 . S
In169 O176 2.326 . S
In169 O177 2.266 . S
In169 O178 2.326 . S
In169 O180 2.294 . S
In169 O181 2.326 . S
O170 In169 2.294 . S
O170 C179 1.240 . S
O171 In169 2.326 . S
O171 C179 1.252 . S
C172 O175 1.252 . S
C172 O176 1.260 . S
C173 O180 1.240 . S
C173 O181 1.252 . S
C174 O177 1.252 . S
C174 O178 1.260 . S
O175 In169 2.266 . S
O175 C172 1.252 . S
O176 In169 2.326 . S
O176 C172 1.260 . S
O177 In169 2.266 . S
O177 C174 1.252 . S
O178 In169 2.326 . S
O178 C174 1.260 . S
C179 O170 1.240 . S
C179 O171 1.252 . S
O180 In169 2.294 . S
O180 C173 1.240 . S
O181 In169 2.326 . S
O181 C173 1.252 . S
In182 O183 2.294 . S
In182 O184 2.326 . S
In182 O188 2.266 . S
In182 O189 2.326 . S
In182 O190 2.266 . S
In182 O191 2.326 . S
In182 O193 2.294 . S
In182 O194 2.326 . S
O183 In182 2.294 . S
O183 C192 1.240 . S
O184 In182 2.326 . S
O184 C192 1.252 . S
C185 O188 1.252 . S
C185 O189 1.260 . S
C186 O193 1.240 . S
C186 O194 1.252 . S
C187 O190 1.252 . S
C187 O191 1.260 . S
O188 In182 2.266 . S
O188 C185 1.252 . S
O189 In182 2.326 . S
O189 C185 1.260 . S
O190 In182 2.266 . S
O190 C187 1.252 . S
O191 In182 2.326 . S
O191 C187 1.260 . S
C192 O183 1.240 . S
C192 O184 1.252 . S
O193 In182 2.294 . S
O193 C186 1.240 . S
O194 In182 2.326 . S
O194 C186 1.252 . S
In195 O196 2.294 . S
In195 O197 2.326 . S
In195 O201 2.266 . S
In195 O202 2.326 . S
In195 O203 2.266 . S
In195 O204 2.326 . S
In195 O206 2.294 . S
In195 O207 2.326 . S
O196 In195 2.294 . S
O196 C205 1.240 . S
O197 In195 2.326 . S
O197 C205 1.252 . S
C198 O201 1.252 . S
C198 O202 1.260 . S
C199 O206 1.240 . S
C199 O207 1.252 . S
C200 O203 1.252 . S
C200 O204 1.260 . S
O201 In195 2.266 . S
O201 C198 1.252 . S
O202 In195 2.326 . S
O202 C198 1.260 . S
O203 In195 2.266 . S
O203 C200 1.252 . S
O204 In195 2.326 . S
O204 C200 1.260 . S
C205 O196 1.240 . S
C205 O197 1.252 . S
O206 In195 2.294 . S
O206 C199 1.240 . S
O207 In195 2.326 . S
O207 C199 1.252 . S
In208 O209 2.294 . S
In208 O210 2.326 . S
In208 O214 2.266 . S
In208 O215 2.326 . S
In208 O216 2.266 . S
In208 O217 2.326 . S
In208 O219 2.294 . S
In208 O220 2.326 . S
O209 In208 2.294 . S
O209 C218 1.240 . S
O210 In208 2.326 . S
O210 C218 1.252 . S
C211 O214 1.252 . S
C211 O215 1.260 . S
C212 O219 1.240 . S
C212 O220 1.252 . S
C213 O216 1.252 . S
C213 O217 1.260 . S
O214 In208 2.266 . S
O214 C211 1.252 . S
O215 In208 2.326 . S
O215 C211 1.260 . S
O216 In208 2.266 . S
O216 C213 1.252 . S
O217 In208 2.326 . S
O217 C213 1.260 . S
C218 O209 1.240 . S
C218 O210 1.252 . S
O219 In208 2.294 . S
O219 C212 1.240 . S
O220 In208 2.326 . S
O220 C212 1.252 . S
In221 O222 2.294 . S
In221 O223 2.326 . S
In221 O227 2.266 . S
In221 O228 2.326 . S
In221 O229 2.266 . S
In221 O230 2.326 . S
In221 O232 2.294 . S
In221 O233 2.326 . S
O222 In221 2.294 . S
O222 C231 1.240 . S
O223 In221 2.326 . S
O223 C231 1.252 . S
C224 O227 1.252 . S
C224 O228 1.260 . S
C225 O232 1.240 . S
C225 O233 1.252 . S
C226 O229 1.252 . S
C226 O230 1.260 . S
O227 In221 2.266 . S
O227 C224 1.252 . S
O228 In221 2.326 . S
O228 C224 1.260 . S
O229 In221 2.266 . S
O229 C226 1.252 . S
O230 In221 2.326 . S
O230 C226 1.260 . S
C231 O222 1.240 . S
C231 O223 1.252 . S
O232 In221 2.294 . S
O232 C225 1.240 . S
O233 In221 2.326 . S
O233 C225 1.252 . S
H234 O260 0.856 . S
H235 O263 0.854 . S
H236 C271 0.930 . S
H237 C272 0.930 . S
H238 C274 0.930 . S
H239 C275 0.930 . S
H240 C277 0.931 . S
H241 C278 0.930 . S
H242 C280 0.930 . S
H243 C281 0.929 . S
H244 C283 0.930 . S
H245 C284 0.931 . S
H246 C286 0.930 . S
H247 C287 0.929 . S
H248 C289 0.931 . S
H249 C290 0.930 . S
H250 C292 0.930 . S
H251 C293 0.932 . S
H252 C295 0.930 . S
H253 C296 0.929 . S
H254 C298 0.931 . S
H255 C299 0.930 . S
H256 C301 0.929 . S
H257 C302 0.931 . S
H258 C304 0.930 . S
H259 C305 0.929 . S
O260 H234 0.856 . S
O260 C306 1.300 . S
O261 C306 1.209 . S
O262 C307 1.199 . S
O263 H235 0.854 . S
O263 C307 1.297 . S
C264 C265 1.404 . S
C264 C269 1.397 . S
C264 C270 1.492 . S
C265 C264 1.404 . S
C265 C266 1.396 . S
C265 C276 1.492 . S
C266 C265 1.396 . S
C266 C267 1.397 . S
C266 C282 1.509 . S
C267 C266 1.397 . S
C267 C268 1.412 . S
C267 C288 1.485 . S
C268 C267 1.412 . S
C268 C269 1.388 . S
C268 C294 1.490 . S
C269 C264 1.397 . S
C269 C268 1.388 . S
C269 C300 1.519 . S
C270 C264 1.492 . S
C270 C271 1.363 . S
C270 C275 1.390 . S
C271 H236 0.930 . S
C271 C270 1.363 . S
C271 C272 1.372 . S
C272 H237 0.930 . S
C272 C271 1.372 . S
C272 C273 1.383 . S
C273 C272 1.383 . S
C273 C274 1.395 . S
C274 H238 0.930 . S
C274 C273 1.395 . S
C274 C275 1.362 . S
C275 H239 0.930 . S
C275 C270 1.390 . S
C275 C274 1.362 . S
C276 C265 1.492 . S
C276 C277 1.377 . S
C276 C281 1.397 . S
C277 H240 0.931 . S
C277 C276 1.377 . S
C277 C278 1.376 . S
C278 H241 0.930 . S
C278 C277 1.376 . S
C278 C279 1.376 . S
C279 C278 1.376 . S
C279 C280 1.378 . S
C279 C306 1.486 . S
C280 H242 0.930 . S
C280 C279 1.378 . S
C280 C281 1.376 . S
C281 H243 0.929 . S
C281 C276 1.397 . S
C281 C280 1.376 . S
C282 C266 1.509 . S
C282 C283 1.391 . S
C282 C287 1.386 . S
C283 H244 0.930 . S
C283 C282 1.391 . S
C283 C284 1.375 . S
C284 H245 0.931 . S
C284 C283 1.375 . S
C284 C285 1.375 . S
C285 C284 1.375 . S
C285 C286 1.361 . S
C286 H246 0.930 . S
C286 C285 1.361 . S
C286 C287 1.399 . S
C287 H247 0.929 . S
C287 C282 1.386 . S
C287 C286 1.399 . S
C288 C267 1.485 . S
C288 C289 1.394 . S
C288 C293 1.360 . S
C289 H248 0.931 . S
C289 C288 1.394 . S
C289 C290 1.372 . S
C290 H249 0.930 . S
C290 C289 1.372 . S
C290 C291 1.397 . S
C291 C290 1.397 . S
C291 C292 1.390 . S
C291 C307 1.476 . S
C292 H250 0.930 . S
C292 C291 1.390 . S
C292 C293 1.366 . S
C293 H251 0.932 . S
C293 C288 1.360 . S
C293 C292 1.366 . S
C294 C268 1.490 . S
C294 C295 1.380 . S
C294 C299 1.386 . S
C295 H252 0.930 . S
C295 C294 1.380 . S
C295 C296 1.381 . S
C296 H253 0.929 . S
C296 C295 1.381 . S
C296 C297 1.371 . S
C297 C296 1.371 . S
C297 C298 1.380 . S
C298 H254 0.931 . S
C298 C297 1.380 . S
C298 C299 1.387 . S
C299 H255 0.930 . S
C299 C294 1.386 . S
C299 C298 1.387 . S
C300 C269 1.519 . S
C300 C301 1.377 . S
C300 C305 1.361 . S
C301 H256 0.929 . S
C301 C300 1.377 . S
C301 C302 1.386 . S
C302 H257 0.931 . S
C302 C301 1.386 . S
C302 C303 1.363 . S
C303 C302 1.363 . S
C303 C304 1.385 . S
C304 H258 0.930 . S
C304 C303 1.385 . S
C304 C305 1.396 . S
C305 H259 0.929 . S
C305 C300 1.361 . S
C305 C304 1.396 . S
C306 O260 1.300 . S
C306 O261 1.209 . S
C306 C279 1.486 . S
C307 O262 1.199 . S
C307 O263 1.297 . S
C307 C291 1.476 . S
H308 O334 0.856 . S
H309 O337 0.854 . S
H310 C345 0.930 . S
H311 C346 0.930 . S
H312 C348 0.930 . S
H313 C349 0.930 . S
H314 C351 0.931 . S
H315 C352 0.930 . S
H316 C354 0.930 . S
H317 C355 0.929 . S
H318 C357 0.930 . S
H319 C358 0.931 . S
H320 C360 0.930 . S
H321 C361 0.929 . S
H322 C363 0.931 . S
H323 C364 0.930 . S
H324 C366 0.930 . S
H325 C367 0.932 . S
H326 C369 0.930 . S
H327 C370 0.929 . S
H328 C372 0.931 . S
H329 C373 0.930 . S
H330 C375 0.929 . S
H331 C376 0.931 . S
H332 C378 0.930 . S
H333 C379 0.929 . S
O334 H308 0.856 . S
O334 C380 1.300 . S
O335 C380 1.209 . S
O336 C381 1.199 . S
O337 H309 0.854 . S
O337 C381 1.297 . S
C338 C339 1.404 . S
C338 C343 1.397 . S
C338 C344 1.492 . S
C339 C338 1.404 . S
C339 C340 1.396 . S
C339 C350 1.492 . S
C340 C339 1.396 . S
C340 C341 1.397 . S
C340 C356 1.509 . S
C341 C340 1.397 . S
C341 C342 1.412 . S
C341 C362 1.485 . S
C342 C341 1.412 . S
C342 C343 1.388 . S
C342 C368 1.490 . S
C343 C338 1.397 . S
C343 C342 1.388 . S
C343 C374 1.519 . S
C344 C338 1.492 . S
C344 C345 1.363 . S
C344 C349 1.390 . S
C345 H310 0.930 . S
C345 C344 1.363 . S
C345 C346 1.372 . S
C346 H311 0.930 . S
C346 C345 1.372 . S
C346 C347 1.383 . S
C347 C346 1.383 . S
C347 C348 1.395 . S
C348 H312 0.930 . S
C348 C347 1.395 . S
C348 C349 1.362 . S
C349 H313 0.930 . S
C349 C344 1.390 . S
C349 C348 1.362 . S
C350 C339 1.492 . S
C350 C351 1.377 . S
C350 C355 1.397 . S
C351 H314 0.931 . S
C351 C350 1.377 . S
C351 C352 1.376 . S
C352 H315 0.930 . S
C352 C351 1.376 . S
C352 C353 1.376 . S
C353 C352 1.376 . S
C353 C354 1.378 . S
C353 C380 1.486 . S
C354 H316 0.930 . S
C354 C353 1.378 . S
C354 C355 1.376 . S
C355 H317 0.929 . S
C355 C350 1.397 . S
C355 C354 1.376 . S
C356 C340 1.509 . S
C356 C357 1.391 . S
C356 C361 1.386 . S
C357 H318 0.930 . S
C357 C356 1.391 . S
C357 C358 1.375 . S
C358 H319 0.931 . S
C358 C357 1.375 . S
C358 C359 1.375 . S
C359 C358 1.375 . S
C359 C360 1.361 . S
C360 H320 0.930 . S
C360 C359 1.361 . S
C360 C361 1.399 . S
C361 H321 0.929 . S
C361 C356 1.386 . S
C361 C360 1.399 . S
C362 C341 1.485 . S
C362 C363 1.394 . S
C362 C367 1.360 . S
C363 H322 0.931 . S
C363 C362 1.394 . S
C363 C364 1.372 . S
C364 H323 0.930 . S
C364 C363 1.372 . S
C364 C365 1.397 . S
C365 C364 1.397 . S
C365 C366 1.390 . S
C365 C381 1.476 . S
C366 H324 0.930 . S
C366 C365 1.390 . S
C366 C367 1.366 . S
C367 H325 0.932 . S
C367 C362 1.360 . S
C367 C366 1.366 . S
C368 C342 1.490 . S
C368 C369 1.380 . S
C368 C373 1.386 . S
C369 H326 0.930 . S
C369 C368 1.380 . S
C369 C370 1.381 . S
C370 H327 0.929 . S
C370 C369 1.381 . S
C370 C371 1.371 . S
C371 C370 1.371 . S
C371 C372 1.380 . S
C372 H328 0.931 . S
C372 C371 1.380 . S
C372 C373 1.387 . S
C373 H329 0.930 . S
C373 C368 1.386 . S
C373 C372 1.387 . S
C374 C343 1.519 . S
C374 C375 1.377 . S
C374 C379 1.361 . S
C375 H330 0.929 . S
C375 C374 1.377 . S
C375 C376 1.386 . S
C376 H331 0.931 . S
C376 C375 1.386 . S
C376 C377 1.363 . S
C377 C376 1.363 . S
C377 C378 1.385 . S
C378 H332 0.930 . S
C378 C377 1.385 . S
C378 C379 1.396 . S
C379 H333 0.929 . S
C379 C374 1.361 . S
C379 C378 1.396 . S
C380 O334 1.300 . S
C380 O335 1.209 . S
C380 C353 1.486 . S
C381 O336 1.199 . S
C381 O337 1.297 . S
C381 C365 1.476 . S
H382 O408 0.856 . S
H383 O411 0.854 . S
H384 C419 0.930 . S
H385 C420 0.930 . S
H386 C422 0.930 . S
H387 C423 0.930 . S
H388 C425 0.931 . S
H389 C426 0.930 . S
H390 C428 0.930 . S
H391 C429 0.929 . S
H392 C431 0.930 . S
H393 C432 0.931 . S
H394 C434 0.930 . S
H395 C435 0.929 . S
H396 C437 0.931 . S
H397 C438 0.930 . S
H398 C440 0.930 . S
H399 C441 0.932 . S
H400 C443 0.930 . S
H401 C444 0.929 . S
H402 C446 0.931 . S
H403 C447 0.930 . S
H404 C449 0.929 . S
H405 C450 0.931 . S
H406 C452 0.930 . S
H407 C453 0.929 . S
O408 H382 0.856 . S
O408 C454 1.300 . S
O409 C454 1.209 . S
O410 C455 1.199 . S
O411 H383 0.854 . S
O411 C455 1.297 . S
C412 C413 1.404 . S
C412 C417 1.397 . S
C412 C418 1.492 . S
C413 C412 1.404 . S
C413 C414 1.396 . S
C413 C424 1.492 . S
C414 C413 1.396 . S
C414 C415 1.397 . S
C414 C430 1.509 . S
C415 C414 1.397 . S
C415 C416 1.412 . S
C415 C436 1.485 . S
C416 C415 1.412 . S
C416 C417 1.388 . S
C416 C442 1.490 . S
C417 C412 1.397 . S
C417 C416 1.388 . S
C417 C448 1.519 . S
C418 C412 1.492 . S
C418 C419 1.363 . S
C418 C423 1.390 . S
C419 H384 0.930 . S
C419 C418 1.363 . S
C419 C420 1.372 . S
C420 H385 0.930 . S
C420 C419 1.372 . S
C420 C421 1.383 . S
C421 C420 1.383 . S
C421 C422 1.395 . S
C422 H386 0.930 . S
C422 C421 1.395 . S
C422 C423 1.362 . S
C423 H387 0.930 . S
C423 C418 1.390 . S
C423 C422 1.362 . S
C424 C413 1.492 . S
C424 C425 1.377 . S
C424 C429 1.397 . S
C425 H388 0.931 . S
C425 C424 1.377 . S
C425 C426 1.376 . S
C426 H389 0.930 . S
C426 C425 1.376 . S
C426 C427 1.376 . S
C427 C426 1.376 . S
C427 C428 1.378 . S
C427 C454 1.486 . S
C428 H390 0.930 . S
C428 C427 1.378 . S
C428 C429 1.376 . S
C429 H391 0.929 . S
C429 C424 1.397 . S
C429 C428 1.376 . S
C430 C414 1.509 . S
C430 C431 1.391 . S
C430 C435 1.386 . S
C431 H392 0.930 . S
C431 C430 1.391 . S
C431 C432 1.375 . S
C432 H393 0.931 . S
C432 C431 1.375 . S
C432 C433 1.375 . S
C433 C432 1.375 . S
C433 C434 1.361 . S
C434 H394 0.930 . S
C434 C433 1.361 . S
C434 C435 1.399 . S
C435 H395 0.929 . S
C435 C430 1.386 . S
C435 C434 1.399 . S
C436 C415 1.485 . S
C436 C437 1.394 . S
C436 C441 1.360 . S
C437 H396 0.931 . S
C437 C436 1.394 . S
C437 C438 1.372 . S
C438 H397 0.930 . S
C438 C437 1.372 . S
C438 C439 1.397 . S
C439 C438 1.397 . S
C439 C440 1.390 . S
C439 C455 1.476 . S
C440 H398 0.930 . S
C440 C439 1.390 . S
C440 C441 1.366 . S
C441 H399 0.932 . S
C441 C436 1.360 . S
C441 C440 1.366 . S
C442 C416 1.490 . S
C442 C443 1.380 . S
C442 C447 1.386 . S
C443 H400 0.930 . S
C443 C442 1.380 . S
C443 C444 1.381 . S
C444 H401 0.929 . S
C444 C443 1.381 . S
C444 C445 1.371 . S
C445 C444 1.371 . S
C445 C446 1.380 . S
C446 H402 0.931 . S
C446 C445 1.380 . S
C446 C447 1.387 . S
C447 H403 0.930 . S
C447 C442 1.386 . S
C447 C446 1.387 . S
C448 C417 1.519 . S
C448 C449 1.377 . S
C448 C453 1.361 . S
C449 H404 0.929 . S
C449 C448 1.377 . S
C449 C450 1.386 . S
C450 H405 0.931 . S
C450 C449 1.386 . S
C450 C451 1.363 . S
C451 C450 1.363 . S
C451 C452 1.385 . S
C452 H406 0.930 . S
C452 C451 1.385 . S
C452 C453 1.396 . S
C453 H407 0.929 . S
C453 C448 1.361 . S
C453 C452 1.396 . S
C454 O408 1.300 . S
C454 O409 1.209 . S
C454 C427 1.486 . S
C455 O410 1.199 . S
C455 O411 1.297 . S
C455 C439 1.476 . S
H456 O482 0.856 1_554 S
H457 O485 0.854 . S
H458 C493 0.930 . S
H459 C494 0.930 . S
H460 C496 0.930 . S
H461 C497 0.930 . S
H462 C499 0.931 . S
H463 C500 0.930 . S
H464 C502 0.930 . S
H465 C503 0.929 . S
H466 C505 0.930 . S
H467 C506 0.931 . S
H468 C508 0.930 . S
H469 C509 0.929 . S
H470 C511 0.931 . S
H471 C512 0.930 . S
H472 C514 0.930 . S
H473 C515 0.932 . S
H474 C517 0.930 . S
H475 C518 0.929 . S
H476 C520 0.931 . S
H477 C521 0.930 . S
H478 C523 0.929 . S
H479 C524 0.931 . S
H480 C526 0.930 . S
H481 C527 0.929 . S
O482 H456 0.856 1_556 S
O482 C528 1.300 . S
O483 C528 1.209 . S
O484 C529 1.199 . S
O485 H457 0.854 . S
O485 C529 1.297 . S
C486 C487 1.404 . S
C486 C491 1.397 . S
C486 C492 1.492 . S
C487 C486 1.404 . S
C487 C488 1.396 . S
C487 C498 1.492 . S
C488 C487 1.396 . S
C488 C489 1.397 . S
C488 C504 1.509 . S
C489 C488 1.397 . S
C489 C490 1.412 . S
C489 C510 1.485 . S
C490 C489 1.412 . S
C490 C491 1.388 . S
C490 C516 1.490 . S
C491 C486 1.397 . S
C491 C490 1.388 . S
C491 C522 1.519 . S
C492 C486 1.492 . S
C492 C493 1.363 . S
C492 C497 1.390 . S
C493 H458 0.930 . S
C493 C492 1.363 . S
C493 C494 1.372 . S
C494 H459 0.930 . S
C494 C493 1.372 . S
C494 C495 1.383 . S
C495 C494 1.383 . S
C495 C496 1.395 . S
C496 H460 0.930 . S
C496 C495 1.395 . S
C496 C497 1.362 . S
C497 H461 0.930 . S
C497 C492 1.390 . S
C497 C496 1.362 . S
C498 C487 1.492 . S
C498 C499 1.377 . S
C498 C503 1.397 . S
C499 H462 0.931 . S
C499 C498 1.377 . S
C499 C500 1.376 . S
C500 H463 0.930 . S
C500 C499 1.376 . S
C500 C501 1.376 . S
C501 C500 1.376 . S
C501 C502 1.378 . S
C501 C528 1.486 . S
C502 H464 0.930 . S
C502 C501 1.378 . S
C502 C503 1.376 . S
C503 H465 0.929 . S
C503 C498 1.397 . S
C503 C502 1.376 . S
C504 C488 1.509 . S
C504 C505 1.391 . S
C504 C509 1.386 . S
C505 H466 0.930 . S
C505 C504 1.391 . S
C505 C506 1.375 . S
C506 H467 0.931 . S
C506 C505 1.375 . S
C506 C507 1.375 . S
C507 C506 1.375 . S
C507 C508 1.361 . S
C508 H468 0.930 . S
C508 C507 1.361 . S
C508 C509 1.399 . S
C509 H469 0.929 . S
C509 C504 1.386 . S
C509 C508 1.399 . S
C510 C489 1.485 . S
C510 C511 1.394 . S
C510 C515 1.360 . S
C511 H470 0.931 . S
C511 C510 1.394 . S
C511 C512 1.372 . S
C512 H471 0.930 . S
C512 C511 1.372 . S
C512 C513 1.397 . S
C513 C512 1.397 . S
C513 C514 1.390 . S
C513 C529 1.476 . S
C514 H472 0.930 . S
C514 C513 1.390 . S
C514 C515 1.366 . S
C515 H473 0.932 . S
C515 C510 1.360 . S
C515 C514 1.366 . S
C516 C490 1.490 . S
C516 C517 1.380 . S
C516 C521 1.386 . S
C517 H474 0.930 . S
C517 C516 1.380 . S
C517 C518 1.381 . S
C518 H475 0.929 . S
C518 C517 1.381 . S
C518 C519 1.371 . S
C519 C518 1.371 . S
C519 C520 1.380 . S
C520 H476 0.931 . S
C520 C519 1.380 . S
C520 C521 1.387 . S
C521 H477 0.930 . S
C521 C516 1.386 . S
C521 C520 1.387 . S
C522 C491 1.519 . S
C522 C523 1.377 . S
C522 C527 1.361 . S
C523 H478 0.929 . S
C523 C522 1.377 . S
C523 C524 1.386 . S
C524 H479 0.931 . S
C524 C523 1.386 . S
C524 C525 1.363 . S
C525 C524 1.363 . S
C525 C526 1.385 . S
C526 H480 0.930 . S
C526 C525 1.385 . S
C526 C527 1.396 . S
C527 H481 0.929 . S
C527 C522 1.361 . S
C527 C526 1.396 . S
C528 O482 1.300 . S
C528 O483 1.209 . S
C528 C501 1.486 . S
C529 O484 1.199 . S
C529 O485 1.297 . S
C529 C513 1.476 . S
H530 O556 0.856 . S
H531 O559 0.854 . S
H532 C567 0.930 . S
H533 C568 0.930 . S
H534 C570 0.930 . S
H535 C571 0.930 . S
H536 C573 0.931 . S
H537 C574 0.930 . S
H538 C576 0.930 . S
H539 C577 0.929 . S
H540 C579 0.930 . S
H541 C580 0.931 . S
H542 C582 0.930 . S
H543 C583 0.929 . S
H544 C585 0.931 . S
H545 C586 0.930 . S
H546 C588 0.930 . S
H547 C589 0.932 . S
H548 C591 0.930 . S
H549 C592 0.929 . S
H550 C594 0.931 . S
H551 C595 0.930 . S
H552 C597 0.929 . S
H553 C598 0.931 . S
H554 C600 0.930 . S
H555 C601 0.929 . S
O556 H530 0.856 . S
O556 C602 1.300 1_554 S
O557 C602 1.206 1_554 S
O558 C603 1.199 . S
O559 H531 0.854 . S
O559 C603 1.297 . S
C560 C561 1.404 . S
C560 C565 1.397 . S
C560 C566 1.492 . S
C561 C560 1.404 . S
C561 C562 1.396 . S
C561 C572 1.492 . S
C562 C561 1.396 . S
C562 C563 1.397 . S
C562 C578 1.509 . S
C563 C562 1.397 . S
C563 C564 1.412 . S
C563 C584 1.485 . S
C564 C563 1.412 . S
C564 C565 1.388 . S
C564 C590 1.490 . S
C565 C560 1.397 . S
C565 C564 1.388 . S
C565 C596 1.519 . S
C566 C560 1.492 . S
C566 C567 1.363 . S
C566 C571 1.390 . S
C567 H532 0.930 . S
C567 C566 1.363 . S
C567 C568 1.372 . S
C568 H533 0.930 . S
C568 C567 1.372 . S
C568 C569 1.383 . S
C569 C568 1.383 . S
C569 C570 1.395 . S
C570 H534 0.930 . S
C570 C569 1.395 . S
C570 C571 1.362 . S
C571 H535 0.930 . S
C571 C566 1.390 . S
C571 C570 1.362 . S
C572 C561 1.492 . S
C572 C573 1.377 . S
C572 C577 1.397 . S
C573 H536 0.931 . S
C573 C572 1.377 . S
C573 C574 1.376 . S
C574 H537 0.930 . S
C574 C573 1.376 . S
C574 C575 1.376 . S
C575 C574 1.376 . S
C575 C576 1.378 . S
C575 C602 1.486 . S
C576 H538 0.930 . S
C576 C575 1.378 . S
C576 C577 1.376 . S
C577 H539 0.929 . S
C577 C572 1.397 . S
C577 C576 1.376 . S
C578 C562 1.509 . S
C578 C579 1.391 . S
C578 C583 1.386 . S
C579 H540 0.930 . S
C579 C578 1.391 . S
C579 C580 1.375 . S
C580 H541 0.931 . S
C580 C579 1.375 . S
C580 C581 1.375 . S
C581 C580 1.375 . S
C581 C582 1.361 . S
C582 H542 0.930 . S
C582 C581 1.361 . S
C582 C583 1.399 . S
C583 H543 0.929 . S
C583 C578 1.386 . S
C583 C582 1.399 . S
C584 C563 1.485 . S
C584 C585 1.394 . S
C584 C589 1.360 . S
C585 H544 0.931 . S
C585 C584 1.394 . S
C585 C586 1.372 . S
C586 H545 0.930 . S
C586 C585 1.372 . S
C586 C587 1.397 . S
C587 C586 1.397 . S
C587 C588 1.390 . S
C587 C603 1.476 . S
C588 H546 0.930 . S
C588 C587 1.390 . S
C588 C589 1.366 . S
C589 H547 0.932 . S
C589 C584 1.360 . S
C589 C588 1.366 . S
C590 C564 1.490 . S
C590 C591 1.380 . S
C590 C595 1.386 . S
C591 H548 0.930 . S
C591 C590 1.380 . S
C591 C592 1.381 . S
C592 H549 0.929 . S
C592 C591 1.381 . S
C592 C593 1.371 . S
C593 C592 1.371 . S
C593 C594 1.380 . S
C594 H550 0.931 . S
C594 C593 1.380 . S
C594 C595 1.387 . S
C595 H551 0.930 . S
C595 C590 1.386 . S
C595 C594 1.387 . S
C596 C565 1.519 . S
C596 C597 1.377 . S
C596 C601 1.361 . S
C597 H552 0.929 . S
C597 C596 1.377 . S
C597 C598 1.386 . S
C598 H553 0.931 . S
C598 C597 1.386 . S
C598 C599 1.363 . S
C599 C598 1.363 . S
C599 C600 1.385 . S
C600 H554 0.930 . S
C600 C599 1.385 . S
C600 C601 1.396 . S
C601 H555 0.929 . S
C601 C596 1.361 . S
C601 C600 1.396 . S
C602 O556 1.300 1_556 S
C602 O557 1.206 1_556 S
C602 C575 1.486 . S
C603 O558 1.199 . S
C603 O559 1.297 . S
C603 C587 1.476 . S
H604 O630 0.856 . S
H605 O633 0.854 . S
H606 C641 0.930 . S
H607 C642 0.930 . S
H608 C644 0.930 . S
H609 C645 0.930 . S
H610 C647 0.931 . S
H611 C648 0.930 . S
H612 C650 0.930 . S
H613 C651 0.929 . S
H614 C653 0.930 . S
H615 C654 0.931 . S
H616 C656 0.930 . S
H617 C657 0.929 . S
H618 C659 0.931 . S
H619 C660 0.930 . S
H620 C662 0.930 . S
H621 C663 0.932 . S
H622 C665 0.930 . S
H623 C666 0.929 . S
H624 C668 0.931 . S
H625 C669 0.930 . S
H626 C671 0.929 . S
H627 C672 0.931 . S
H628 C674 0.930 . S
H629 C675 0.929 . S
O630 H604 0.856 . S
O630 C676 1.289 1_554 S
O631 C676 1.205 1_554 S
O632 C677 1.199 . S
O633 H605 0.854 . S
O633 C677 1.297 . S
C634 C635 1.404 . S
C634 C639 1.397 . S
C634 C640 1.492 . S
C635 C634 1.404 . S
C635 C636 1.396 . S
C635 C646 1.492 . S
C636 C635 1.396 . S
C636 C637 1.397 . S
C636 C652 1.509 . S
C637 C636 1.397 . S
C637 C638 1.412 . S
C637 C658 1.485 . S
C638 C637 1.412 . S
C638 C639 1.388 . S
C638 C664 1.490 . S
C639 C634 1.397 . S
C639 C638 1.388 . S
C639 C670 1.519 . S
C640 C634 1.492 . S
C640 C641 1.363 . S
C640 C645 1.390 . S
C641 H606 0.930 . S
C641 C640 1.363 . S
C641 C642 1.372 . S
C642 H607 0.930 . S
C642 C641 1.372 . S
C642 C643 1.383 . S
C643 C642 1.383 . S
C643 C644 1.395 . S
C644 H608 0.930 . S
C644 C643 1.395 . S
C644 C645 1.362 . S
C645 H609 0.930 . S
C645 C640 1.390 . S
C645 C644 1.362 . S
C646 C635 1.492 . S
C646 C647 1.377 . S
C646 C651 1.397 . S
C647 H610 0.931 . S
C647 C646 1.377 . S
C647 C648 1.376 . S
C648 H611 0.930 . S
C648 C647 1.376 . S
C648 C649 1.376 . S
C649 C648 1.376 . S
C649 C650 1.378 . S
C649 C676 1.502 . S
C650 H612 0.930 . S
C650 C649 1.378 . S
C650 C651 1.376 . S
C651 H613 0.929 . S
C651 C646 1.397 . S
C651 C650 1.376 . S
C652 C636 1.509 . S
C652 C653 1.391 . S
C652 C657 1.386 . S
C653 H614 0.930 . S
C653 C652 1.391 . S
C653 C654 1.375 . S
C654 H615 0.931 . S
C654 C653 1.375 . S
C654 C655 1.375 . S
C655 C654 1.375 . S
C655 C656 1.361 . S
C656 H616 0.930 . S
C656 C655 1.361 . S
C656 C657 1.399 . S
C657 H617 0.929 . S
C657 C652 1.386 . S
C657 C656 1.399 . S
C658 C637 1.485 . S
C658 C659 1.394 . S
C658 C663 1.360 . S
C659 H618 0.931 . S
C659 C658 1.394 . S
C659 C660 1.372 . S
C660 H619 0.930 . S
C660 C659 1.372 . S
C660 C661 1.397 . S
C661 C660 1.397 . S
C661 C662 1.390 . S
C661 C677 1.476 . S
C662 H620 0.930 . S
C662 C661 1.390 . S
C662 C663 1.366 . S
C663 H621 0.932 . S
C663 C658 1.360 . S
C663 C662 1.366 . S
C664 C638 1.490 . S
C664 C665 1.380 . S
C664 C669 1.386 . S
C665 H622 0.930 . S
C665 C664 1.380 . S
C665 C666 1.381 . S
C666 H623 0.929 . S
C666 C665 1.381 . S
C666 C667 1.371 . S
C667 C666 1.371 . S
C667 C668 1.380 . S
C668 H624 0.931 . S
C668 C667 1.380 . S
C668 C669 1.387 . S
C669 H625 0.930 . S
C669 C664 1.386 . S
C669 C668 1.387 . S
C670 C639 1.519 . S
C670 C671 1.377 . S
C670 C675 1.361 . S
C671 H626 0.929 . S
C671 C670 1.377 . S
C671 C672 1.386 . S
C672 H627 0.931 . S
C672 C671 1.386 . S
C672 C673 1.363 . S
C673 C672 1.363 . S
C673 C674 1.385 . S
C674 H628 0.930 . S
C674 C673 1.385 . S
C674 C675 1.396 . S
C675 H629 0.929 . S
C675 C670 1.361 . S
C675 C674 1.396 . S
C676 O630 1.289 1_556 S
C676 O631 1.205 1_556 S
C676 C649 1.502 . S
C677 O632 1.199 . S
C677 O633 1.297 . S
C677 C661 1.476 . S
H678 O704 0.856 . S
H679 O707 0.854 . S
H680 C715 0.930 . S
H681 C716 0.930 . S
H682 C718 0.930 . S
H683 C719 0.930 . S
H684 C721 0.931 . S
H685 C722 0.930 . S
H686 C724 0.930 . S
H687 C725 0.929 . S
H688 C727 0.930 . S
H689 C728 0.931 . S
H690 C730 0.930 . S
H691 C731 0.929 . S
H692 C733 0.931 . S
H693 C734 0.930 . S
H694 C736 0.930 . S
H695 C737 0.932 . S
H696 C739 0.930 . S
H697 C740 0.929 . S
H698 C742 0.931 . S
H699 C743 0.930 . S
H700 C745 0.929 . S
H701 C746 0.931 . S
H702 C748 0.930 . S
H703 C749 0.929 . S
O704 H678 0.856 . S
O704 C750 1.300 . S
O705 C750 1.209 . S
O706 C751 1.199 . S
O707 H679 0.854 . S
O707 C751 1.297 . S
C708 C709 1.404 . S
C708 C713 1.397 . S
C708 C714 1.492 . S
C709 C708 1.404 . S
C709 C710 1.396 . S
C709 C720 1.492 . S
C710 C709 1.396 . S
C710 C711 1.397 . S
C710 C726 1.509 . S
C711 C710 1.397 . S
C711 C712 1.412 . S
C711 C732 1.485 . S
C712 C711 1.412 . S
C712 C713 1.388 . S
C712 C738 1.490 . S
C713 C708 1.397 . S
C713 C712 1.388 . S
C713 C744 1.519 . S
C714 C708 1.492 . S
C714 C715 1.363 . S
C714 C719 1.390 . S
C715 H680 0.930 . S
C715 C714 1.363 . S
C715 C716 1.372 . S
C716 H681 0.930 . S
C716 C715 1.372 . S
C716 C717 1.383 . S
C717 C716 1.383 . S
C717 C718 1.395 . S
C718 H682 0.930 . S
C718 C717 1.395 . S
C718 C719 1.362 . S
C719 H683 0.930 . S
C719 C714 1.390 . S
C719 C718 1.362 . S
C720 C709 1.492 . S
C720 C721 1.377 . S
C720 C725 1.397 . S
C721 H684 0.931 . S
C721 C720 1.377 . S
C721 C722 1.376 . S
C722 H685 0.930 . S
C722 C721 1.376 . S
C722 C723 1.376 . S
C723 C722 1.376 . S
C723 C724 1.378 . S
C723 C750 1.486 . S
C724 H686 0.930 . S
C724 C723 1.378 . S
C724 C725 1.376 . S
C725 H687 0.929 . S
C725 C720 1.397 . S
C725 C724 1.376 . S
C726 C710 1.509 . S
C726 C727 1.391 . S
C726 C731 1.386 . S
C727 H688 0.930 . S
C727 C726 1.391 . S
C727 C728 1.375 . S
C728 H689 0.931 . S
C728 C727 1.375 . S
C728 C729 1.375 . S
C729 C728 1.375 . S
C729 C730 1.361 . S
C730 H690 0.930 . S
C730 C729 1.361 . S
C730 C731 1.399 . S
C731 H691 0.929 . S
C731 C726 1.386 . S
C731 C730 1.399 . S
C732 C711 1.485 . S
C732 C733 1.394 . S
C732 C737 1.360 . S
C733 H692 0.931 . S
C733 C732 1.394 . S
C733 C734 1.372 . S
C734 H693 0.930 . S
C734 C733 1.372 . S
C734 C735 1.397 . S
C735 C734 1.397 . S
C735 C736 1.390 . S
C735 C751 1.476 . S
C736 H694 0.930 . S
C736 C735 1.390 . S
C736 C737 1.366 . S
C737 H695 0.932 . S
C737 C732 1.360 . S
C737 C736 1.366 . S
C738 C712 1.490 . S
C738 C739 1.380 . S
C738 C743 1.386 . S
C739 H696 0.930 . S
C739 C738 1.380 . S
C739 C740 1.381 . S
C740 H697 0.929 . S
C740 C739 1.381 . S
C740 C741 1.371 . S
C741 C740 1.371 . S
C741 C742 1.380 . S
C742 H698 0.931 . S
C742 C741 1.380 . S
C742 C743 1.387 . S
C743 H699 0.930 . S
C743 C738 1.386 . S
C743 C742 1.387 . S
C744 C713 1.519 . S
C744 C745 1.377 . S
C744 C749 1.361 . S
C745 H700 0.929 . S
C745 C744 1.377 . S
C745 C746 1.386 . S
C746 H701 0.931 . S
C746 C745 1.386 . S
C746 C747 1.363 . S
C747 C746 1.363 . S
C747 C748 1.385 . S
C748 H702 0.930 . S
C748 C747 1.385 . S
C748 C749 1.396 . S
C749 H703 0.929 . S
C749 C744 1.361 . S
C749 C748 1.396 . S
C750 O704 1.300 . S
C750 O705 1.209 . S
C750 C723 1.486 . S
C751 O706 1.199 . S
C751 O707 1.297 . S
C751 C735 1.476 . S
H752 O778 0.856 . S
H753 O781 0.854 . S
H754 C789 0.930 . S
H755 C790 0.930 . S
H756 C792 0.930 . S
H757 C793 0.930 . S
H758 C795 0.931 . S
H759 C796 0.930 . S
H760 C798 0.930 . S
H761 C799 0.929 . S
H762 C801 0.930 . S
H763 C802 0.931 . S
H764 C804 0.930 . S
H765 C805 0.929 . S
H766 C807 0.931 . S
H767 C808 0.930 . S
H768 C810 0.930 . S
H769 C811 0.932 . S
H770 C813 0.930 . S
H771 C814 0.929 . S
H772 C816 0.931 . S
H773 C817 0.930 . S
H774 C819 0.929 . S
H775 C820 0.931 . S
H776 C822 0.930 . S
H777 C823 0.929 . S
O778 H752 0.856 . S
O778 C824 1.300 . S
O779 C824 1.209 . S
O780 C825 1.199 . S
O781 H753 0.854 . S
O781 C825 1.297 . S
C782 C783 1.404 . S
C782 C787 1.397 . S
C782 C788 1.492 . S
C783 C782 1.404 . S
C783 C784 1.396 . S
C783 C794 1.492 . S
C784 C783 1.396 . S
C784 C785 1.397 . S
C784 C800 1.509 . S
C785 C784 1.397 . S
C785 C786 1.412 . S
C785 C806 1.485 . S
C786 C785 1.412 . S
C786 C787 1.388 . S
C786 C812 1.490 . S
C787 C782 1.397 . S
C787 C786 1.388 . S
C787 C818 1.519 . S
C788 C782 1.492 . S
C788 C789 1.363 . S
C788 C793 1.390 . S
C789 H754 0.930 . S
C789 C788 1.363 . S
C789 C790 1.372 . S
C790 H755 0.930 . S
C790 C789 1.372 . S
C790 C791 1.383 . S
C791 C790 1.383 . S
C791 C792 1.395 . S
C792 H756 0.930 . S
C792 C791 1.395 . S
C792 C793 1.362 . S
C793 H757 0.930 . S
C793 C788 1.390 . S
C793 C792 1.362 . S
C794 C783 1.492 . S
C794 C795 1.377 . S
C794 C799 1.397 . S
C795 H758 0.931 . S
C795 C794 1.377 . S
C795 C796 1.376 . S
C796 H759 0.930 . S
C796 C795 1.376 . S
C796 C797 1.376 . S
C797 C796 1.376 . S
C797 C798 1.378 . S
C797 C824 1.486 . S
C798 H760 0.930 . S
C798 C797 1.378 . S
C798 C799 1.376 . S
C799 H761 0.929 . S
C799 C794 1.397 . S
C799 C798 1.376 . S
C800 C784 1.509 . S
C800 C801 1.391 . S
C800 C805 1.386 . S
C801 H762 0.930 . S
C801 C800 1.391 . S
C801 C802 1.375 . S
C802 H763 0.931 . S
C802 C801 1.375 . S
C802 C803 1.375 . S
C803 C802 1.375 . S
C803 C804 1.361 . S
C804 H764 0.930 . S
C804 C803 1.361 . S
C804 C805 1.399 . S
C805 H765 0.929 . S
C805 C800 1.386 . S
C805 C804 1.399 . S
C806 C785 1.485 . S
C806 C807 1.394 . S
C806 C811 1.360 . S
C807 H766 0.931 . S
C807 C806 1.394 . S
C807 C808 1.372 . S
C808 H767 0.930 . S
C808 C807 1.372 . S
C808 C809 1.397 . S
C809 C808 1.397 . S
C809 C810 1.390 . S
C809 C825 1.476 . S
C810 H768 0.930 . S
C810 C809 1.390 . S
C810 C811 1.366 . S
C811 H769 0.932 . S
C811 C806 1.360 . S
C811 C810 1.366 . S
C812 C786 1.490 . S
C812 C813 1.380 . S
C812 C817 1.386 . S
C813 H770 0.930 . S
C813 C812 1.380 . S
C813 C814 1.381 . S
C814 H771 0.929 . S
C814 C813 1.381 . S
C814 C815 1.371 . S
C815 C814 1.371 . S
C815 C816 1.380 . S
C816 H772 0.931 . S
C816 C815 1.380 . S
C816 C817 1.387 . S
C817 H773 0.930 . S
C817 C812 1.386 . S
C817 C816 1.387 . S
C818 C787 1.519 . S
C818 C819 1.377 . S
C818 C823 1.361 . S
C819 H774 0.929 . S
C819 C818 1.377 . S
C819 C820 1.386 . S
C820 H775 0.931 . S
C820 C819 1.386 . S
C820 C821 1.363 . S
C821 C820 1.363 . S
C821 C822 1.385 . S
C822 H776 0.930 . S
C822 C821 1.385 . S
C822 C823 1.396 . S
C823 H777 0.929 . S
C823 C818 1.361 . S
C823 C822 1.396 . S
C824 O778 1.300 . S
C824 O779 1.209 . S
C824 C797 1.486 . S
C825 O780 1.199 . S
C825 O781 1.297 . S
C825 C809 1.476 . S
H826 O852 0.856 . S
H827 O855 0.854 . S
H828 C863 0.930 . S
H829 C864 0.930 . S
H830 C866 0.930 . S
H831 C867 0.930 . S
H832 C869 0.931 . S
H833 C870 0.930 . S
H834 C872 0.930 . S
H835 C873 0.929 . S
H836 C875 0.930 . S
H837 C876 0.931 . S
H838 C878 0.930 . S
H839 C879 0.929 . S
H840 C881 0.931 . S
H841 C882 0.930 . S
H842 C884 0.930 . S
H843 C885 0.932 . S
H844 C887 0.930 . S
H845 C888 0.929 . S
H846 C890 0.931 . S
H847 C891 0.930 . S
H848 C893 0.929 . S
H849 C894 0.931 . S
H850 C896 0.930 . S
H851 C897 0.929 . S
O852 H826 0.856 . S
O852 C898 1.300 . S
O853 C898 1.209 . S
O854 C899 1.199 . S
O855 H827 0.854 . S
O855 C899 1.297 . S
C856 C857 1.404 . S
C856 C861 1.397 . S
C856 C862 1.492 . S
C857 C856 1.404 . S
C857 C858 1.396 . S
C857 C868 1.492 . S
C858 C857 1.396 . S
C858 C859 1.397 . S
C858 C874 1.509 . S
C859 C858 1.397 . S
C859 C860 1.412 . S
C859 C880 1.485 . S
C860 C859 1.412 . S
C860 C861 1.388 . S
C860 C886 1.490 . S
C861 C856 1.397 . S
C861 C860 1.388 . S
C861 C892 1.519 . S
C862 C856 1.492 . S
C862 C863 1.363 . S
C862 C867 1.390 . S
C863 H828 0.930 . S
C863 C862 1.363 . S
C863 C864 1.372 . S
C864 H829 0.930 . S
C864 C863 1.372 . S
C864 C865 1.383 . S
C865 C864 1.383 . S
C865 C866 1.395 . S
C866 H830 0.930 . S
C866 C865 1.395 . S
C866 C867 1.362 . S
C867 H831 0.930 . S
C867 C862 1.390 . S
C867 C866 1.362 . S
C868 C857 1.492 . S
C868 C869 1.377 . S
C868 C873 1.397 . S
C869 H832 0.931 . S
C869 C868 1.377 . S
C869 C870 1.376 . S
C870 H833 0.930 . S
C870 C869 1.376 . S
C870 C871 1.376 . S
C871 C870 1.376 . S
C871 C872 1.378 . S
C871 C898 1.486 . S
C872 H834 0.930 . S
C872 C871 1.378 . S
C872 C873 1.376 . S
C873 H835 0.929 . S
C873 C868 1.397 . S
C873 C872 1.376 . S
C874 C858 1.509 . S
C874 C875 1.391 . S
C874 C879 1.386 . S
C875 H836 0.930 . S
C875 C874 1.391 . S
C875 C876 1.375 . S
C876 H837 0.931 . S
C876 C875 1.375 . S
C876 C877 1.375 . S
C877 C876 1.375 . S
C877 C878 1.361 . S
C878 H838 0.930 . S
C878 C877 1.361 . S
C878 C879 1.399 . S
C879 H839 0.929 . S
C879 C874 1.386 . S
C879 C878 1.399 . S
C880 C859 1.485 . S
C880 C881 1.394 . S
C880 C885 1.360 . S
C881 H840 0.931 . S
C881 C880 1.394 . S
C881 C882 1.372 . S
C882 H841 0.930 . S
C882 C881 1.372 . S
C882 C883 1.397 . S
C883 C882 1.397 . S
C883 C884 1.390 . S
C883 C899 1.476 . S
C884 H842 0.930 . S
C884 C883 1.390 . S
C884 C885 1.366 . S
C885 H843 0.932 . S
C885 C880 1.360 . S
C885 C884 1.366 . S
C886 C860 1.490 . S
C886 C887 1.380 . S
C886 C891 1.386 . S
C887 H844 0.930 . S
C887 C886 1.380 . S
C887 C888 1.381 . S
C888 H845 0.929 . S
C888 C887 1.381 . S
C888 C889 1.371 . S
C889 C888 1.371 . S
C889 C890 1.380 . S
C890 H846 0.931 . S
C890 C889 1.380 . S
C890 C891 1.387 . S
C891 H847 0.930 . S
C891 C886 1.386 . S
C891 C890 1.387 . S
C892 C861 1.519 . S
C892 C893 1.377 . S
C892 C897 1.361 . S
C893 H848 0.929 . S
C893 C892 1.377 . S
C893 C894 1.386 . S
C894 H849 0.931 . S
C894 C893 1.386 . S
C894 C895 1.363 . S
C895 C894 1.363 . S
C895 C896 1.385 . S
C896 H850 0.930 . S
C896 C895 1.385 . S
C896 C897 1.396 . S
C897 H851 0.929 . S
C897 C892 1.361 . S
C897 C896 1.396 . S
C898 O852 1.300 . S
C898 O853 1.209 . S
C898 C871 1.486 . S
C899 O854 1.199 . S
C899 O855 1.297 . S
C899 C883 1.476 . S
H900 O926 0.856 . S
H901 O929 0.854 . S
H902 C937 0.930 . S
H903 C938 0.930 . S
H904 C940 0.930 . S
H905 C941 0.930 . S
H906 C943 0.931 . S
H907 C944 0.930 1_655 S
H908 C946 0.930 . S
H909 C947 0.929 . S
H910 C949 0.930 . S
H911 C950 0.917 1_655 S
H912 C952 0.930 . S
H913 C953 0.929 . S
H914 C955 0.931 . S
H915 C956 0.930 . S
H916 C958 0.930 . S
H917 C959 0.932 . S
H918 C961 0.930 . S
H919 C962 0.929 . S
H920 C964 0.931 . S
H921 C965 0.930 . S
H922 C967 0.929 . S
H923 C968 0.931 . S
H924 C970 0.930 . S
H925 C971 0.929 . S
O926 H900 0.856 . S
O926 C972 1.300 . S
O927 C972 1.209 . S
O928 C973 1.199 1_655 S
O929 H901 0.854 . S
O929 C973 1.297 . S
C930 C931 1.404 . S
C930 C935 1.394 . S
C930 C936 1.492 . S
C931 C930 1.404 . S
C931 C932 1.396 . S
C931 C942 1.492 . S
C932 C931 1.396 . S
C932 C933 1.397 . S
C932 C948 1.509 . S
C933 C932 1.397 . S
C933 C934 1.421 . S
C933 C954 1.485 . S
C934 C933 1.421 . S
C934 C935 1.406 . S
C934 C960 1.490 1_455 S
C935 C930 1.394 . S
C935 C934 1.406 . S
C935 C966 1.490 1_455 S
C936 C930 1.492 . S
C936 C937 1.363 1_455 S
C936 C941 1.390 . S
C937 H902 0.930 . S
C937 C936 1.363 1_655 S
C937 C938 1.372 . S
C938 H903 0.930 . S
C938 C937 1.372 . S
C938 C939 1.383 . S
C939 C938 1.383 . S
C939 C940 1.395 1_655 S
C940 H904 0.930 . S
C940 C939 1.395 1_455 S
C940 C941 1.362 . S
C941 H905 0.930 . S
C941 C936 1.390 . S
C941 C940 1.362 . S
C942 C931 1.492 . S
C942 C943 1.377 1_455 S
C942 C947 1.397 . S
C943 H906 0.931 . S
C943 C942 1.377 1_655 S
C943 C944 1.376 1_655 S
C944 H907 0.930 1_455 S
C944 C943 1.376 1_455 S
C944 C945 1.376 . S
C945 C944 1.376 . S
C945 C946 1.378 . S
C945 C972 1.486 . S
C946 H908 0.930 . S
C946 C945 1.378 . S
C946 C947 1.376 . S
C947 H909 0.929 . S
C947 C942 1.397 . S
C947 C946 1.376 . S
C948 C932 1.509 . S
C948 C949 1.391 1_455 S
C948 C953 1.386 . S
C949 H910 0.930 . S
C949 C948 1.391 1_655 S
C949 C950 1.356 1_655 S
C950 H911 0.917 1_455 S
C950 C949 1.356 1_455 S
C950 C951 1.409 . S
C951 C950 1.409 . S
C951 C952 1.361 . S
C952 H912 0.930 . S
C952 C951 1.361 . S
C952 C953 1.399 . S
C953 H913 0.929 . S
C953 C948 1.386 . S
C953 C952 1.399 . S
C954 C933 1.485 . S
C954 C955 1.394 1_455 S
C954 C959 1.360 . S
C955 H914 0.931 . S
C955 C954 1.394 1_655 S
C955 C956 1.372 . S
C956 H915 0.930 . S
C956 C955 1.372 . S
C956 C957 1.397 1_655 S
C957 C956 1.397 1_455 S
C957 C958 1.390 . S
C957 C973 1.476 . S
C958 H916 0.930 . S
C958 C957 1.390 . S
C958 C959 1.366 . S
C959 H917 0.932 . S
C959 C954 1.360 . S
C959 C958 1.366 . S
C960 C934 1.490 1_655 S
C960 C961 1.380 . S
C960 C965 1.386 1_655 S
C961 H918 0.930 . S
C961 C960 1.380 . S
C961 C962 1.381 . S
C962 H919 0.929 . S
C962 C961 1.381 . S
C962 C963 1.371 . S
C963 C962 1.371 . S
C963 C964 1.380 1_655 S
C964 H920 0.931 . S
C964 C963 1.380 1_455 S
C964 C965 1.387 . S
C965 H921 0.930 . S
C965 C960 1.386 1_455 S
C965 C964 1.387 . S
C966 C935 1.490 1_655 S
C966 C967 1.406 . S
C966 C971 1.342 1_655 S
C967 H922 0.929 . S
C967 C966 1.406 . S
C967 C968 1.386 . S
C968 H923 0.931 . S
C968 C967 1.386 . S
C968 C969 1.375 . S
C969 C968 1.375 . S
C969 C970 1.368 1_655 S
C970 H924 0.930 . S
C970 C969 1.368 1_455 S
C970 C971 1.396 . S
C971 H925 0.929 . S
C971 C966 1.342 1_455 S
C971 C970 1.396 . S
C972 O926 1.300 . S
C972 O927 1.209 . S
C972 C945 1.486 . S
C973 O928 1.199 1_455 S
C973 O929 1.297 . S
C973 C957 1.476 . S
H974 O1000 0.856 . S
H975 O1003 0.854 . S
H976 C1011 0.930 . S
H977 C1012 0.930 . S
H978 C1014 0.930 . S
H979 C1015 0.930 . S
H980 C1017 0.931 . S
H981 C1018 0.930 . S
H982 C1020 0.930 . S
H983 C1021 0.929 . S
H984 C1023 0.930 . S
H985 C1024 0.931 . S
H986 C1026 0.930 . S
H987 C1027 0.929 . S
H988 C1029 0.931 . S
H989 C1030 0.930 . S
H990 C1032 0.930 . S
H991 C1033 0.932 . S
H992 C1035 0.930 . S
H993 C1036 0.929 . S
H994 C1038 0.931 . S
H995 C1039 0.930 . S
H996 C1041 0.929 . S
H997 C1042 0.931 . S
H998 C1044 0.930 . S
H999 C1045 0.929 . S
O1000 H974 0.856 . S
O1000 C1046 1.300 . S
O1001 C1046 1.209 . S
O1002 C1047 1.199 . S
O1003 H975 0.854 . S
O1003 C1047 1.297 . S
C1004 C1005 1.404 . S
C1004 C1009 1.397 . S
C1004 C1010 1.492 . S
C1005 C1004 1.404 . S
C1005 C1006 1.396 . S
C1005 C1016 1.492 . S
C1006 C1005 1.396 . S
C1006 C1007 1.397 . S
C1006 C1022 1.509 . S
C1007 C1006 1.397 . S
C1007 C1008 1.412 . S
C1007 C1028 1.485 . S
C1008 C1007 1.412 . S
C1008 C1009 1.388 . S
C1008 C1034 1.490 . S
C1009 C1004 1.397 . S
C1009 C1008 1.388 . S
C1009 C1040 1.519 . S
C1010 C1004 1.492 . S
C1010 C1011 1.363 . S
C1010 C1015 1.390 . S
C1011 H976 0.930 . S
C1011 C1010 1.363 . S
C1011 C1012 1.372 . S
C1012 H977 0.930 . S
C1012 C1011 1.372 . S
C1012 C1013 1.383 . S
C1013 C1012 1.383 . S
C1013 C1014 1.395 . S
C1014 H978 0.930 . S
C1014 C1013 1.395 . S
C1014 C1015 1.362 . S
C1015 H979 0.930 . S
C1015 C1010 1.390 . S
C1015 C1014 1.362 . S
C1016 C1005 1.492 . S
C1016 C1017 1.377 . S
C1016 C1021 1.397 . S
C1017 H980 0.931 . S
C1017 C1016 1.377 . S
C1017 C1018 1.376 . S
C1018 H981 0.930 . S
C1018 C1017 1.376 . S
C1018 C1019 1.376 . S
C1019 C1018 1.376 . S
C1019 C1020 1.378 . S
C1019 C1046 1.486 . S
C1020 H982 0.930 . S
C1020 C1019 1.378 . S
C1020 C1021 1.376 . S
C1021 H983 0.929 . S
C1021 C1016 1.397 . S
C1021 C1020 1.376 . S
C1022 C1006 1.509 . S
C1022 C1023 1.391 . S
C1022 C1027 1.386 . S
C1023 H984 0.930 . S
C1023 C1022 1.391 . S
C1023 C1024 1.375 . S
C1024 H985 0.931 . S
C1024 C1023 1.375 . S
C1024 C1025 1.375 . S
C1025 C1024 1.375 . S
C1025 C1026 1.361 . S
C1026 H986 0.930 . S
C1026 C1025 1.361 . S
C1026 C1027 1.399 . S
C1027 H987 0.929 . S
C1027 C1022 1.386 . S
C1027 C1026 1.399 . S
C1028 C1007 1.485 . S
C1028 C1029 1.394 . S
C1028 C1033 1.360 . S
C1029 H988 0.931 . S
C1029 C1028 1.394 . S
C1029 C1030 1.372 . S
C1030 H989 0.930 . S
C1030 C1029 1.372 . S
C1030 C1031 1.397 . S
C1031 C1030 1.397 . S
C1031 C1032 1.390 . S
C1031 C1047 1.476 . S
C1032 H990 0.930 . S
C1032 C1031 1.390 . S
C1032 C1033 1.366 . S
C1033 H991 0.932 . S
C1033 C1028 1.360 . S
C1033 C1032 1.366 . S
C1034 C1008 1.490 . S
C1034 C1035 1.380 . S
C1034 C1039 1.386 . S
C1035 H992 0.930 . S
C1035 C1034 1.380 . S
C1035 C1036 1.381 . S
C1036 H993 0.929 . S
C1036 C1035 1.381 . S
C1036 C1037 1.371 . S
C1037 C1036 1.371 . S
C1037 C1038 1.380 . S
C1038 H994 0.931 . S
C1038 C1037 1.380 . S
C1038 C1039 1.387 . S
C1039 H995 0.930 . S
C1039 C1034 1.386 . S
C1039 C1038 1.387 . S
C1040 C1009 1.519 . S
C1040 C1041 1.377 . S
C1040 C1045 1.361 . S
C1041 H996 0.929 . S
C1041 C1040 1.377 . S
C1041 C1042 1.386 . S
C1042 H997 0.931 . S
C1042 C1041 1.386 . S
C1042 C1043 1.363 . S
C1043 C1042 1.363 . S
C1043 C1044 1.385 . S
C1044 H998 0.930 . S
C1044 C1043 1.385 . S
C1044 C1045 1.396 . S
C1045 H999 0.929 . S
C1045 C1040 1.361 . S
C1045 C1044 1.396 . S
C1046 O1000 1.300 . S
C1046 O1001 1.209 . S
C1046 C1019 1.486 . S
C1047 O1002 1.199 . S
C1047 O1003 1.297 . S
C1047 C1031 1.476 . S
H1048 O1074 0.856 . S
H1049 O1077 0.854 . S
H1050 C1085 0.930 . S
H1051 C1086 0.930 . S
H1052 C1088 0.930 . S
H1053 C1089 0.930 . S
H1054 C1091 0.931 . S
H1055 C1092 0.972 . S
H1056 C1094 0.930 . S
H1057 C1095 0.929 . S
H1058 C1097 0.930 . S
H1059 C1098 0.931 . S
H1060 C1100 0.930 . S
H1061 C1101 0.929 . S
H1062 C1103 0.931 . S
H1063 C1104 0.930 . S
H1064 C1106 0.930 . S
H1065 C1107 0.932 . S
H1066 C1109 0.930 . S
H1067 C1110 0.929 . S
H1068 C1112 0.931 . S
H1069 C1113 0.930 . S
H1070 C1115 0.929 . S
H1071 C1116 0.931 . S
H1072 C1118 0.930 . S
H1073 C1119 0.929 . S
O1074 H1048 0.856 . S
O1074 C1120 1.300 . S
O1075 C1120 1.209 . S
O1076 C1121 1.199 1_545 S
O1077 H1049 0.854 . S
O1077 C1121 1.297 . S
C1078 C1079 1.404 . S
C1078 C1083 1.413 . S
C1078 C1084 1.492 . S
C1079 C1078 1.404 . S
C1079 C1080 1.396 . S
C1079 C1090 1.492 . S
C1080 C1079 1.396 . S
C1080 C1081 1.397 . S
C1080 C1096 1.509 . S
C1081 C1080 1.397 . S
C1081 C1082 1.410 . S
C1081 C1102 1.485 . S
C1082 C1081 1.410 . S
C1082 C1083 1.369 . S
C1082 C1108 1.487 1_565 S
C1083 C1078 1.413 . S
C1083 C1082 1.369 . S
C1083 C1114 1.531 1_565 S
C1084 C1078 1.492 . S
C1084 C1085 1.363 1_565 S
C1084 C1089 1.390 . S
C1085 H1050 0.930 . S
C1085 C1084 1.363 1_545 S
C1085 C1086 1.372 . S
C1086 H1051 0.930 . S
C1086 C1085 1.372 . S
C1086 C1087 1.383 . S
C1087 C1086 1.383 . S
C1087 C1088 1.395 1_545 S
C1088 H1052 0.930 . S
C1088 C1087 1.395 1_565 S
C1088 C1089 1.362 . S
C1089 H1053 0.930 . S
C1089 C1084 1.390 . S
C1089 C1088 1.362 . S
C1090 C1079 1.492 . S
C1090 C1091 1.377 1_565 S
C1090 C1095 1.397 . S
C1091 H1054 0.931 . S
C1091 C1090 1.377 1_545 S
C1091 C1092 1.397 . S
C1092 H1055 0.972 . S
C1092 C1091 1.397 . S
C1092 C1093 1.315 1_545 S
C1093 C1092 1.315 1_565 S
C1093 C1094 1.378 . S
C1093 C1120 1.486 . S
C1094 H1056 0.930 . S
C1094 C1093 1.378 . S
C1094 C1095 1.376 . S
C1095 H1057 0.929 . S
C1095 C1090 1.397 . S
C1095 C1094 1.376 . S
C1096 C1080 1.509 . S
C1096 C1097 1.391 1_565 S
C1096 C1101 1.386 . S
C1097 H1058 0.930 . S
C1097 C1096 1.391 1_545 S
C1097 C1098 1.375 . S
C1098 H1059 0.931 . S
C1098 C1097 1.375 . S
C1098 C1099 1.375 1_545 S
C1099 C1098 1.375 1_565 S
C1099 C1100 1.361 . S
C1100 H1060 0.930 . S
C1100 C1099 1.361 . S
C1100 C1101 1.399 . S
C1101 H1061 0.929 . S
C1101 C1096 1.386 . S
C1101 C1100 1.399 . S
C1102 C1081 1.485 . S
C1102 C1103 1.394 1_565 S
C1102 C1107 1.360 . S
C1103 H1062 0.931 . S
C1103 C1102 1.394 1_545 S
C1103 C1104 1.372 . S
C1104 H1063 0.930 . S
C1104 C1103 1.372 . S
C1104 C1105 1.397 1_545 S
C1105 C1104 1.397 1_565 S
C1105 C1106 1.390 . S
C1105 C1121 1.476 . S
C1106 H1064 0.930 . S
C1106 C1105 1.390 . S
C1106 C1107 1.366 . S
C1107 H1065 0.932 . S
C1107 C1102 1.360 . S
C1107 C1106 1.366 . S
C1108 C1082 1.487 1_545 S
C1108 C1109 1.380 . S
C1108 C1113 1.386 1_545 S
C1109 H1066 0.930 . S
C1109 C1108 1.380 . S
C1109 C1110 1.381 . S
C1110 H1067 0.929 . S
C1110 C1109 1.381 . S
C1110 C1111 1.371 . S
C1111 C1110 1.371 . S
C1111 C1112 1.380 1_545 S
C1112 H1068 0.931 . S
C1112 C1111 1.380 1_565 S
C1112 C1113 1.387 . S
C1113 H1069 0.930 . S
C1113 C1108 1.386 1_565 S
C1113 C1112 1.387 . S
C1114 C1083 1.531 1_545 S
C1114 C1115 1.375 . S
C1114 C1119 1.365 1_545 S
C1115 H1070 0.929 . S
C1115 C1114 1.375 . S
C1115 C1116 1.386 . S
C1116 H1071 0.931 . S
C1116 C1115 1.386 . S
C1116 C1117 1.363 1_545 S
C1117 C1116 1.363 1_565 S
C1117 C1118 1.385 . S
C1118 H1072 0.930 . S
C1118 C1117 1.385 . S
C1118 C1119 1.396 . S
C1119 H1073 0.929 . S
C1119 C1114 1.365 1_565 S
C1119 C1118 1.396 . S
C1120 O1074 1.300 . S
C1120 O1075 1.209 . S
C1120 C1093 1.486 . S
C1121 O1076 1.199 1_565 S
C1121 O1077 1.297 . S
C1121 C1105 1.476 . S
H1122 O1148 0.856 . S
H1123 O1151 0.854 . S
H1124 C1159 0.930 . S
H1125 C1160 0.930 . S
H1126 C1162 0.930 . S
H1127 C1163 0.930 . S
H1128 C1165 0.931 . S
H1129 C1166 0.930 . S
H1130 C1168 0.930 . S
H1131 C1169 0.929 . S
H1132 C1171 0.930 . S
H1133 C1172 0.931 . S
H1134 C1174 0.930 . S
H1135 C1175 0.929 . S
H1136 C1177 0.931 . S
H1137 C1178 0.930 . S
H1138 C1180 0.930 . S
H1139 C1181 0.932 . S
H1140 C1183 0.930 . S
H1141 C1184 0.929 . S
H1142 C1186 0.931 . S
H1143 C1187 0.930 . S
H1144 C1189 0.929 . S
H1145 C1190 0.931 . S
H1146 C1192 0.930 . S
H1147 C1193 0.929 . S
O1148 H1122 0.856 . S
O1148 C1194 1.300 . S
O1149 C1194 1.209 1_565 S
O1150 C1195 1.199 1_545 S
O1151 H1123 0.854 . S
O1151 C1195 1.297 . S
C1152 C1153 1.404 . S
C1152 C1157 1.397 1_545 S
C1152 C1158 1.492 . S
C1153 C1152 1.404 . S
C1153 C1154 1.396 . S
C1153 C1164 1.492 . S
C1154 C1153 1.396 . S
C1154 C1155 1.395 1_545 S
C1154 C1170 1.531 . S
C1155 C1154 1.395 1_565 S
C1155 C1156 1.419 . S
C1155 C1176 1.491 . S
C1156 C1155 1.419 . S
C1156 C1157 1.371 . S
C1156 C1182 1.489 . S
C1157 C1152 1.397 1_565 S
C1157 C1156 1.371 . S
C1157 C1188 1.519 . S
C1158 C1152 1.492 . S
C1158 C1159 1.363 . S
C1158 C1163 1.390 1_545 S
C1159 H1124 0.930 . S
C1159 C1158 1.363 . S
C1159 C1160 1.372 . S
C1160 H1125 0.930 . S
C1160 C1159 1.372 . S
C1160 C1161 1.383 . S
C1161 C1160 1.383 . S
C1161 C1162 1.395 1_545 S
C1162 H1126 0.930 . S
C1162 C1161 1.395 1_565 S
C1162 C1163 1.362 . S
C1163 H1127 0.930 . S
C1163 C1158 1.390 1_565 S
C1163 C1162 1.362 . S
C1164 C1153 1.492 . S
C1164 C1165 1.377 . S
C1164 C1169 1.397 1_545 S
C1165 H1128 0.931 . S
C1165 C1164 1.377 . S
C1165 C1166 1.376 . S
C1166 H1129 0.930 . S
C1166 C1165 1.376 . S
C1166 C1167 1.376 . S
C1167 C1166 1.376 . S
C1167 C1168 1.378 1_545 S
C1167 C1194 1.486 . S
C1168 H1130 0.930 . S
C1168 C1167 1.378 1_565 S
C1168 C1169 1.376 . S
C1169 H1131 0.929 . S
C1169 C1164 1.397 1_565 S
C1169 C1168 1.376 . S
C1170 C1154 1.531 . S
C1170 C1171 1.421 . S
C1170 C1175 1.338 1_545 S
C1171 H1132 0.930 . S
C1171 C1170 1.421 . S
C1171 C1172 1.375 . S
C1172 H1133 0.931 . S
C1172 C1171 1.375 . S
C1172 C1173 1.411 . S
C1173 C1172 1.411 . S
C1173 C1174 1.342 1_545 S
C1174 H1134 0.930 . S
C1174 C1173 1.342 1_565 S
C1174 C1175 1.399 . S
C1175 H1135 0.929 . S
C1175 C1170 1.338 1_565 S
C1175 C1174 1.399 . S
C1176 C1155 1.491 . S
C1176 C1177 1.394 1_565 S
C1176 C1181 1.360 . S
C1177 H1136 0.931 . S
C1177 C1176 1.394 1_545 S
C1177 C1178 1.372 . S
C1178 H1137 0.930 . S
C1178 C1177 1.372 . S
C1178 C1179 1.397 1_545 S
C1179 C1178 1.397 1_565 S
C1179 C1180 1.390 . S
C1179 C1195 1.476 . S
C1180 H1138 0.930 . S
C1180 C1179 1.390 . S
C1180 C1181 1.366 . S
C1181 H1139 0.932 . S
C1181 C1176 1.360 . S
C1181 C1180 1.366 . S
C1182 C1156 1.489 . S
C1182 C1183 1.349 1_565 S
C1182 C1187 1.425 . S
C1183 H1140 0.930 . S
C1183 C1182 1.349 1_545 S
C1183 C1184 1.381 . S
C1184 H1141 0.929 . S
C1184 C1183 1.381 . S
C1184 C1185 1.398 . S
C1185 C1184 1.398 . S
C1185 C1186 1.357 1_545 S
C1186 H1142 0.931 . S
C1186 C1185 1.357 1_565 S
C1186 C1187 1.387 . S
C1187 H1143 0.930 . S
C1187 C1182 1.425 . S
C1187 C1186 1.387 . S
C1188 C1157 1.519 . S
C1188 C1189 1.377 1_565 S
C1188 C1193 1.361 . S
C1189 H1144 0.929 . S
C1189 C1188 1.377 1_545 S
C1189 C1190 1.386 . S
C1190 H1145 0.931 . S
C1190 C1189 1.386 . S
C1190 C1191 1.363 1_545 S
C1191 C1190 1.363 1_565 S
C1191 C1192 1.385 . S
C1192 H1146 0.930 . S
C1192 C1191 1.385 . S
C1192 C1193 1.396 . S
C1193 H1147 0.929 . S
C1193 C1188 1.361 . S
C1193 C1192 1.396 . S
C1194 O1148 1.300 . S
C1194 O1149 1.209 1_545 S
C1194 C1167 1.486 . S
C1195 O1150 1.199 1_565 S
C1195 O1151 1.297 . S
C1195 C1179 1.476 . S
H1196 O1222 0.856 . S
H1197 O1225 0.854 . S
H1198 C1233 0.930 . S
H1199 C1234 0.930 . S
H1200 C1236 0.930 . S
H1201 C1237 0.930 . S
H1202 C1239 0.931 . S
H1203 C1240 0.930 . S
H1204 C1242 0.930 . S
H1205 C1243 0.929 . S
H1206 C1245 0.930 . S
H1207 C1246 0.931 . S
H1208 C1248 0.930 . S
H1209 C1249 0.929 . S
H1210 C1251 0.931 . S
H1211 C1252 0.930 . S
H1212 C1254 0.930 . S
H1213 C1255 0.932 . S
H1214 C1257 0.930 . S
H1215 C1258 0.929 . S
H1216 C1260 0.931 . S
H1217 C1261 0.930 . S
H1218 C1263 0.929 . S
H1219 C1264 0.931 . S
H1220 C1266 0.930 . S
H1221 C1267 0.929 . S
O1222 H1196 0.856 . S
O1222 C1268 1.300 . S
O1223 C1268 1.209 1_455 S
O1224 C1269 1.199 1_655 S
O1225 H1197 0.854 . S
O1225 C1269 1.297 . S
C1226 C1227 1.404 . S
C1226 C1231 1.396 1_655 S
C1226 C1232 1.492 . S
C1227 C1226 1.404 . S
C1227 C1228 1.396 . S
C1227 C1238 1.492 . S
C1228 C1227 1.396 . S
C1228 C1229 1.397 . S
C1228 C1244 1.509 . S
C1229 C1228 1.397 . S
C1229 C1230 1.399 1_655 S
C1229 C1250 1.485 1_655 S
C1230 C1229 1.399 1_455 S
C1230 C1231 1.410 . S
C1230 C1256 1.485 . S
C1231 C1226 1.396 1_455 S
C1231 C1230 1.410 . S
C1231 C1262 1.516 . S
C1232 C1226 1.492 . S
C1232 C1233 1.363 . S
C1232 C1237 1.390 1_655 S
C1233 H1198 0.930 . S
C1233 C1232 1.363 . S
C1233 C1234 1.372 . S
C1234 H1199 0.930 . S
C1234 C1233 1.372 . S
C1234 C1235 1.383 . S
C1235 C1234 1.383 . S
C1235 C1236 1.395 1_655 S
C1236 H1200 0.930 . S
C1236 C1235 1.395 1_455 S
C1236 C1237 1.362 . S
C1237 H1201 0.930 . S
C1237 C1232 1.390 1_455 S
C1237 C1236 1.362 . S
C1238 C1227 1.492 . S
C1238 C1239 1.377 . S
C1238 C1243 1.397 1_655 S
C1239 H1202 0.931 . S
C1239 C1238 1.377 . S
C1239 C1240 1.376 . S
C1240 H1203 0.930 . S
C1240 C1239 1.376 . S
C1240 C1241 1.376 . S
C1241 C1240 1.376 . S
C1241 C1242 1.378 1_655 S
C1241 C1268 1.486 . S
C1242 H1204 0.930 . S
C1242 C1241 1.378 1_455 S
C1242 C1243 1.376 . S
C1243 H1205 0.929 . S
C1243 C1238 1.397 1_455 S
C1243 C1242 1.376 . S
C1244 C1228 1.509 . S
C1244 C1245 1.391 . S
C1244 C1249 1.386 1_655 S
C1245 H1206 0.930 . S
C1245 C1244 1.391 . S
C1245 C1246 1.375 . S
C1246 H1207 0.931 . S
C1246 C1245 1.375 . S
C1246 C1247 1.375 . S
C1247 C1246 1.375 . S
C1247 C1248 1.361 1_655 S
C1248 H1208 0.930 . S
C1248 C1247 1.361 1_455 S
C1248 C1249 1.399 . S
C1249 H1209 0.929 . S
C1249 C1244 1.386 1_455 S
C1249 C1248 1.399 . S
C1250 C1229 1.485 1_455 S
C1250 C1251 1.394 1_455 S
C1250 C1255 1.360 . S
C1251 H1210 0.931 . S
C1251 C1250 1.394 1_655 S
C1251 C1252 1.372 . S
C1252 H1211 0.930 . S
C1252 C1251 1.372 . S
C1252 C1253 1.397 1_655 S
C1253 C1252 1.397 1_455 S
C1253 C1254 1.390 . S
C1253 C1269 1.476 . S
C1254 H1212 0.930 . S
C1254 C1253 1.390 . S
C1254 C1255 1.366 . S
C1255 H1213 0.932 . S
C1255 C1250 1.360 . S
C1255 C1254 1.366 . S
C1256 C1230 1.485 . S
C1256 C1257 1.380 1_455 S
C1256 C1261 1.386 . S
C1257 H1214 0.930 . S
C1257 C1256 1.380 1_655 S
C1257 C1258 1.381 . S
C1258 H1215 0.929 . S
C1258 C1257 1.381 . S
C1258 C1259 1.371 1_655 S
C1259 C1258 1.371 1_455 S
C1259 C1260 1.380 . S
C1260 H1216 0.931 . S
C1260 C1259 1.380 . S
C1260 C1261 1.387 . S
C1261 H1217 0.930 . S
C1261 C1256 1.386 . S
C1261 C1260 1.387 . S
C1262 C1231 1.516 . S
C1262 C1263 1.377 1_455 S
C1262 C1267 1.361 . S
C1263 H1218 0.929 . S
C1263 C1262 1.377 1_655 S
C1263 C1264 1.386 . S
C1264 H1219 0.931 . S
C1264 C1263 1.386 . S
C1264 C1265 1.363 1_655 S
C1265 C1264 1.363 1_455 S
C1265 C1266 1.385 . S
C1266 H1220 0.930 . S
C1266 C1265 1.385 . S
C1266 C1267 1.396 . S
C1267 H1221 0.929 . S
C1267 C1262 1.361 . S
C1267 C1266 1.396 . S
C1268 O1222 1.300 . S
C1268 O1223 1.209 1_655 S
C1268 C1241 1.486 . S
C1269 O1224 1.199 1_455 S
C1269 O1225 1.297 . S
C1269 C1253 1.476 . S
H1270 O1296 0.856 . S
H1271 O1299 0.854 . S
H1272 C1307 0.930 . S
H1273 C1308 0.930 . S
H1274 C1310 0.930 . S
H1275 C1311 0.930 . S
H1276 C1313 0.931 . S
H1277 C1314 0.930 . S
H1278 C1316 0.930 . S
H1279 C1317 0.929 . S
H1280 C1319 0.930 . S
H1281 C1320 0.931 . S
H1282 C1322 0.930 . S
H1283 C1323 0.929 . S
H1284 C1325 0.931 . S
H1285 C1326 0.930 . S
H1286 C1328 0.930 . S
H1287 C1329 0.932 . S
H1288 C1331 0.930 . S
H1289 C1332 0.929 . S
H1290 C1334 0.931 . S
H1291 C1335 0.930 . S
H1292 C1337 0.929 . S
H1293 C1338 0.931 . S
H1294 C1340 0.930 . S
H1295 C1341 0.929 . S
O1296 H1270 0.856 . S
O1296 C1342 1.300 . S
O1297 C1342 1.209 . S
O1298 C1343 1.199 . S
O1299 H1271 0.854 . S
O1299 C1343 1.297 . S
C1300 C1301 1.404 . S
C1300 C1305 1.397 . S
C1300 C1306 1.492 . S
C1301 C1300 1.404 . S
C1301 C1302 1.396 . S
C1301 C1312 1.492 . S
C1302 C1301 1.396 . S
C1302 C1303 1.397 . S
C1302 C1318 1.509 . S
C1303 C1302 1.397 . S
C1303 C1304 1.412 . S
C1303 C1324 1.485 . S
C1304 C1303 1.412 . S
C1304 C1305 1.388 . S
C1304 C1330 1.490 . S
C1305 C1300 1.397 . S
C1305 C1304 1.388 . S
C1305 C1336 1.519 . S
C1306 C1300 1.492 . S
C1306 C1307 1.363 . S
C1306 C1311 1.390 . S
C1307 H1272 0.930 . S
C1307 C1306 1.363 . S
C1307 C1308 1.372 . S
C1308 H1273 0.930 . S
C1308 C1307 1.372 . S
C1308 C1309 1.383 . S
C1309 C1308 1.383 . S
C1309 C1310 1.395 . S
C1310 H1274 0.930 . S
C1310 C1309 1.395 . S
C1310 C1311 1.362 . S
C1311 H1275 0.930 . S
C1311 C1306 1.390 . S
C1311 C1310 1.362 . S
C1312 C1301 1.492 . S
C1312 C1313 1.377 . S
C1312 C1317 1.397 . S
C1313 H1276 0.931 . S
C1313 C1312 1.377 . S
C1313 C1314 1.376 . S
C1314 H1277 0.930 . S
C1314 C1313 1.376 . S
C1314 C1315 1.376 . S
C1315 C1314 1.376 . S
C1315 C1316 1.378 . S
C1315 C1342 1.486 . S
C1316 H1278 0.930 . S
C1316 C1315 1.378 . S
C1316 C1317 1.376 . S
C1317 H1279 0.929 . S
C1317 C1312 1.397 . S
C1317 C1316 1.376 . S
C1318 C1302 1.509 . S
C1318 C1319 1.391 . S
C1318 C1323 1.386 . S
C1319 H1280 0.930 . S
C1319 C1318 1.391 . S
C1319 C1320 1.375 . S
C1320 H1281 0.931 . S
C1320 C1319 1.375 . S
C1320 C1321 1.375 . S
C1321 C1320 1.375 . S
C1321 C1322 1.361 . S
C1322 H1282 0.930 . S
C1322 C1321 1.361 . S
C1322 C1323 1.399 . S
C1323 H1283 0.929 . S
C1323 C1318 1.386 . S
C1323 C1322 1.399 . S
C1324 C1303 1.485 . S
C1324 C1325 1.394 . S
C1324 C1329 1.360 . S
C1325 H1284 0.931 . S
C1325 C1324 1.394 . S
C1325 C1326 1.372 . S
C1326 H1285 0.930 . S
C1326 C1325 1.372 . S
C1326 C1327 1.397 . S
C1327 C1326 1.397 . S
C1327 C1328 1.390 . S
C1327 C1343 1.476 . S
C1328 H1286 0.930 . S
C1328 C1327 1.390 . S
C1328 C1329 1.366 . S
C1329 H1287 0.932 . S
C1329 C1324 1.360 . S
C1329 C1328 1.366 . S
C1330 C1304 1.490 . S
C1330 C1331 1.380 . S
C1330 C1335 1.386 . S
C1331 H1288 0.930 . S
C1331 C1330 1.380 . S
C1331 C1332 1.381 . S
C1332 H1289 0.929 . S
C1332 C1331 1.381 . S
C1332 C1333 1.371 . S
C1333 C1332 1.371 . S
C1333 C1334 1.380 . S
C1334 H1290 0.931 . S
C1334 C1333 1.380 . S
C1334 C1335 1.387 . S
C1335 H1291 0.930 . S
C1335 C1330 1.386 . S
C1335 C1334 1.387 . S
C1336 C1305 1.519 . S
C1336 C1337 1.377 . S
C1336 C1341 1.361 . S
C1337 H1292 0.929 . S
C1337 C1336 1.377 . S
C1337 C1338 1.386 . S
C1338 H1293 0.931 . S
C1338 C1337 1.386 . S
C1338 C1339 1.363 . S
C1339 C1338 1.363 . S
C1339 C1340 1.385 . S
C1340 H1294 0.930 . S
C1340 C1339 1.385 . S
C1340 C1341 1.396 . S
C1341 H1295 0.929 . S
C1341 C1336 1.361 . S
C1341 C1340 1.396 . S
C1342 O1296 1.300 . S
C1342 O1297 1.209 . S
C1342 C1315 1.486 . S
C1343 O1298 1.199 . S
C1343 O1299 1.297 . S
C1343 C1327 1.476 . S
H1344 O1370 0.856 . S
H1345 O1373 0.854 . S
H1346 C1381 0.930 . S
H1347 C1382 0.930 . S
H1348 C1384 0.930 . S
H1349 C1385 0.930 . S
H1350 C1387 0.931 . S
H1351 C1388 0.930 . S
H1352 C1390 0.930 . S
H1353 C1391 0.929 . S
H1354 C1393 0.930 . S
H1355 C1394 0.931 . S
H1356 C1396 0.930 . S
H1357 C1397 0.929 . S
H1358 C1399 0.931 . S
H1359 C1400 0.930 . S
H1360 C1402 0.930 . S
H1361 C1403 0.932 . S
H1362 C1405 0.930 . S
H1363 C1406 0.929 . S
H1364 C1408 0.931 . S
H1365 C1409 0.930 . S
H1366 C1411 0.929 . S
H1367 C1412 0.931 . S
H1368 C1414 0.930 . S
H1369 C1415 0.929 . S
O1370 H1344 0.856 . S
O1370 C1416 1.300 . S
O1371 C1416 1.209 . S
O1372 C1417 1.199 . S
O1373 H1345 0.854 . S
O1373 C1417 1.297 . S
C1374 C1375 1.404 . S
C1374 C1379 1.397 . S
C1374 C1380 1.492 . S
C1375 C1374 1.404 . S
C1375 C1376 1.396 . S
C1375 C1386 1.492 . S
C1376 C1375 1.396 . S
C1376 C1377 1.397 . S
C1376 C1392 1.509 . S
C1377 C1376 1.397 . S
C1377 C1378 1.412 . S
C1377 C1398 1.485 . S
C1378 C1377 1.412 . S
C1378 C1379 1.388 . S
C1378 C1404 1.490 . S
C1379 C1374 1.397 . S
C1379 C1378 1.388 . S
C1379 C1410 1.519 . S
C1380 C1374 1.492 . S
C1380 C1381 1.363 . S
C1380 C1385 1.390 . S
C1381 H1346 0.930 . S
C1381 C1380 1.363 . S
C1381 C1382 1.372 . S
C1382 H1347 0.930 . S
C1382 C1381 1.372 . S
C1382 C1383 1.383 . S
C1383 C1382 1.383 . S
C1383 C1384 1.395 . S
C1384 H1348 0.930 . S
C1384 C1383 1.395 . S
C1384 C1385 1.362 . S
C1385 H1349 0.930 . S
C1385 C1380 1.390 . S
C1385 C1384 1.362 . S
C1386 C1375 1.492 . S
C1386 C1387 1.377 . S
C1386 C1391 1.397 . S
C1387 H1350 0.931 . S
C1387 C1386 1.377 . S
C1387 C1388 1.376 . S
C1388 H1351 0.930 . S
C1388 C1387 1.376 . S
C1388 C1389 1.376 . S
C1389 C1388 1.376 . S
C1389 C1390 1.378 . S
C1389 C1416 1.486 . S
C1390 H1352 0.930 . S
C1390 C1389 1.378 . S
C1390 C1391 1.376 . S
C1391 H1353 0.929 . S
C1391 C1386 1.397 . S
C1391 C1390 1.376 . S
C1392 C1376 1.509 . S
C1392 C1393 1.391 . S
C1392 C1397 1.386 . S
C1393 H1354 0.930 . S
C1393 C1392 1.391 . S
C1393 C1394 1.375 . S
C1394 H1355 0.931 . S
C1394 C1393 1.375 . S
C1394 C1395 1.375 . S
C1395 C1394 1.375 . S
C1395 C1396 1.361 . S
C1396 H1356 0.930 . S
C1396 C1395 1.361 . S
C1396 C1397 1.399 . S
C1397 H1357 0.929 . S
C1397 C1392 1.386 . S
C1397 C1396 1.399 . S
C1398 C1377 1.485 . S
C1398 C1399 1.394 . S
C1398 C1403 1.360 . S
C1399 H1358 0.931 . S
C1399 C1398 1.394 . S
C1399 C1400 1.372 . S
C1400 H1359 0.930 . S
C1400 C1399 1.372 . S
C1400 C1401 1.397 . S
C1401 C1400 1.397 . S
C1401 C1402 1.390 . S
C1401 C1417 1.476 . S
C1402 H1360 0.930 . S
C1402 C1401 1.390 . S
C1402 C1403 1.366 . S
C1403 H1361 0.932 . S
C1403 C1398 1.360 . S
C1403 C1402 1.366 . S
C1404 C1378 1.490 . S
C1404 C1405 1.380 . S
C1404 C1409 1.386 . S
C1405 H1362 0.930 . S
C1405 C1404 1.380 . S
C1405 C1406 1.381 . S
C1406 H1363 0.929 . S
C1406 C1405 1.381 . S
C1406 C1407 1.371 . S
C1407 C1406 1.371 . S
C1407 C1408 1.380 . S
C1408 H1364 0.931 . S
C1408 C1407 1.380 . S
C1408 C1409 1.387 . S
C1409 H1365 0.930 . S
C1409 C1404 1.386 . S
C1409 C1408 1.387 . S
C1410 C1379 1.519 . S
C1410 C1411 1.377 . S
C1410 C1415 1.361 . S
C1411 H1366 0.929 . S
C1411 C1410 1.377 . S
C1411 C1412 1.386 . S
C1412 H1367 0.931 . S
C1412 C1411 1.386 . S
C1412 C1413 1.363 . S
C1413 C1412 1.363 . S
C1413 C1414 1.385 . S
C1414 H1368 0.930 . S
C1414 C1413 1.385 . S
C1414 C1415 1.396 . S
C1415 H1369 0.929 . S
C1415 C1410 1.361 . S
C1415 C1414 1.396 . S
C1416 O1370 1.300 . S
C1416 O1371 1.209 . S
C1416 C1389 1.486 . S
C1417 O1372 1.199 . S
C1417 O1373 1.297 . S
C1417 C1401 1.476 . S
H1418 O1444 0.856 . S
H1419 O1447 0.854 . S
H1420 C1455 0.930 . S
H1421 C1456 0.930 . S
H1422 C1458 0.930 . S
H1423 C1459 0.930 . S
H1424 C1461 0.931 . S
H1425 C1462 0.930 . S
H1426 C1464 0.930 . S
H1427 C1465 0.929 . S
H1428 C1467 0.930 . S
H1429 C1468 0.931 . S
H1430 C1470 0.930 . S
H1431 C1471 0.929 . S
H1432 C1473 0.931 . S
H1433 C1474 0.930 . S
H1434 C1476 0.930 . S
H1435 C1477 0.932 . S
H1436 C1479 0.930 . S
H1437 C1480 0.929 . S
H1438 C1482 0.931 . S
H1439 C1483 0.930 . S
H1440 C1485 0.929 . S
H1441 C1486 0.931 . S
H1442 C1488 0.930 . S
H1443 C1489 0.929 . S
O1444 H1418 0.856 . S
O1444 C1490 1.300 . S
O1445 C1490 1.209 . S
O1446 C1491 1.199 . S
O1447 H1419 0.854 . S
O1447 C1491 1.297 . S
C1448 C1449 1.404 . S
C1448 C1453 1.397 . S
C1448 C1454 1.492 . S
C1449 C1448 1.404 . S
C1449 C1450 1.396 . S
C1449 C1460 1.492 . S
C1450 C1449 1.396 . S
C1450 C1451 1.397 . S
C1450 C1466 1.509 . S
C1451 C1450 1.397 . S
C1451 C1452 1.412 . S
C1451 C1472 1.485 . S
C1452 C1451 1.412 . S
C1452 C1453 1.388 . S
C1452 C1478 1.490 . S
C1453 C1448 1.397 . S
C1453 C1452 1.388 . S
C1453 C1484 1.519 . S
C1454 C1448 1.492 . S
C1454 C1455 1.363 . S
C1454 C1459 1.390 . S
C1455 H1420 0.930 . S
C1455 C1454 1.363 . S
C1455 C1456 1.372 . S
C1456 H1421 0.930 . S
C1456 C1455 1.372 . S
C1456 C1457 1.383 . S
C1457 C1456 1.383 . S
C1457 C1458 1.395 . S
C1458 H1422 0.930 . S
C1458 C1457 1.395 . S
C1458 C1459 1.362 . S
C1459 H1423 0.930 . S
C1459 C1454 1.390 . S
C1459 C1458 1.362 . S
C1460 C1449 1.492 . S
C1460 C1461 1.377 . S
C1460 C1465 1.397 . S
C1461 H1424 0.931 . S
C1461 C1460 1.377 . S
C1461 C1462 1.376 . S
C1462 H1425 0.930 . S
C1462 C1461 1.376 . S
C1462 C1463 1.376 . S
C1463 C1462 1.376 . S
C1463 C1464 1.378 . S
C1463 C1490 1.486 . S
C1464 H1426 0.930 . S
C1464 C1463 1.378 . S
C1464 C1465 1.376 . S
C1465 H1427 0.929 . S
C1465 C1460 1.397 . S
C1465 C1464 1.376 . S
C1466 C1450 1.509 . S
C1466 C1467 1.391 . S
C1466 C1471 1.386 . S
C1467 H1428 0.930 . S
C1467 C1466 1.391 . S
C1467 C1468 1.375 . S
C1468 H1429 0.931 . S
C1468 C1467 1.375 . S
C1468 C1469 1.375 . S
C1469 C1468 1.375 . S
C1469 C1470 1.361 . S
C1470 H1430 0.930 . S
C1470 C1469 1.361 . S
C1470 C1471 1.399 . S
C1471 H1431 0.929 . S
C1471 C1466 1.386 . S
C1471 C1470 1.399 . S
C1472 C1451 1.485 . S
C1472 C1473 1.394 . S
C1472 C1477 1.360 . S
C1473 H1432 0.931 . S
C1473 C1472 1.394 . S
C1473 C1474 1.372 . S
C1474 H1433 0.930 . S
C1474 C1473 1.372 . S
C1474 C1475 1.397 . S
C1475 C1474 1.397 . S
C1475 C1476 1.390 . S
C1475 C1491 1.476 . S
C1476 H1434 0.930 . S
C1476 C1475 1.390 . S
C1476 C1477 1.366 . S
C1477 H1435 0.932 . S
C1477 C1472 1.360 . S
C1477 C1476 1.366 . S
C1478 C1452 1.490 . S
C1478 C1479 1.380 . S
C1478 C1483 1.386 . S
C1479 H1436 0.930 . S
C1479 C1478 1.380 . S
C1479 C1480 1.381 . S
C1480 H1437 0.929 . S
C1480 C1479 1.381 . S
C1480 C1481 1.371 . S
C1481 C1480 1.371 . S
C1481 C1482 1.380 . S
C1482 H1438 0.931 . S
C1482 C1481 1.380 . S
C1482 C1483 1.387 . S
C1483 H1439 0.930 . S
C1483 C1478 1.386 . S
C1483 C1482 1.387 . S
C1484 C1453 1.519 . S
C1484 C1485 1.377 . S
C1484 C1489 1.361 . S
C1485 H1440 0.929 . S
C1485 C1484 1.377 . S
C1485 C1486 1.386 . S
C1486 H1441 0.931 . S
C1486 C1485 1.386 . S
C1486 C1487 1.363 . S
C1487 C1486 1.363 . S
C1487 C1488 1.385 . S
C1488 H1442 0.930 . S
C1488 C1487 1.385 . S
C1488 C1489 1.396 . S
C1489 H1443 0.929 . S
C1489 C1484 1.361 . S
C1489 C1488 1.396 . S
C1490 O1444 1.300 . S
C1490 O1445 1.209 . S
C1490 C1463 1.486 . S
C1491 O1446 1.199 . S
C1491 O1447 1.297 . S
C1491 C1475 1.476 . S
H1492 O1518 0.856 . S
H1493 O1521 0.854 . S
H1494 C1529 0.930 . S
H1495 C1530 0.930 . S
H1496 C1532 0.930 . S
H1497 C1533 0.930 . S
H1498 C1535 0.931 . S
H1499 C1536 0.930 . S
H1500 C1538 0.930 . S
H1501 C1539 0.929 . S
H1502 C1541 0.930 . S
H1503 C1542 0.931 . S
H1504 C1544 0.930 . S
H1505 C1545 0.929 . S
H1506 C1547 0.931 . S
H1507 C1548 0.930 . S
H1508 C1550 0.930 . S
H1509 C1551 0.932 . S
H1510 C1553 0.930 . S
H1511 C1554 0.929 . S
H1512 C1556 0.931 . S
H1513 C1557 0.930 . S
H1514 C1559 0.929 . S
H1515 C1560 0.931 . S
H1516 C1562 0.930 . S
H1517 C1563 0.929 . S
O1518 H1492 0.856 . S
O1518 C1564 1.300 . S
O1519 C1564 1.209 . S
O1520 C1565 1.199 . S
O1521 H1493 0.854 . S
O1521 C1565 1.297 . S
C1522 C1523 1.404 . S
C1522 C1527 1.397 . S
C1522 C1528 1.492 . S
C1523 C1522 1.404 . S
C1523 C1524 1.396 . S
C1523 C1534 1.492 . S
C1524 C1523 1.396 . S
C1524 C1525 1.397 . S
C1524 C1540 1.509 . S
C1525 C1524 1.397 . S
C1525 C1526 1.412 . S
C1525 C1546 1.485 . S
C1526 C1525 1.412 . S
C1526 C1527 1.388 . S
C1526 C1552 1.490 . S
C1527 C1522 1.397 . S
C1527 C1526 1.388 . S
C1527 C1558 1.519 . S
C1528 C1522 1.492 . S
C1528 C1529 1.363 . S
C1528 C1533 1.390 . S
C1529 H1494 0.930 . S
C1529 C1528 1.363 . S
C1529 C1530 1.372 . S
C1530 H1495 0.930 . S
C1530 C1529 1.372 . S
C1530 C1531 1.383 . S
C1531 C1530 1.383 . S
C1531 C1532 1.395 . S
C1532 H1496 0.930 . S
C1532 C1531 1.395 . S
C1532 C1533 1.362 . S
C1533 H1497 0.930 . S
C1533 C1528 1.390 . S
C1533 C1532 1.362 . S
C1534 C1523 1.492 . S
C1534 C1535 1.377 . S
C1534 C1539 1.397 . S
C1535 H1498 0.931 . S
C1535 C1534 1.377 . S
C1535 C1536 1.376 . S
C1536 H1499 0.930 . S
C1536 C1535 1.376 . S
C1536 C1537 1.376 . S
C1537 C1536 1.376 . S
C1537 C1538 1.378 . S
C1537 C1564 1.486 . S
C1538 H1500 0.930 . S
C1538 C1537 1.378 . S
C1538 C1539 1.376 . S
C1539 H1501 0.929 . S
C1539 C1534 1.397 . S
C1539 C1538 1.376 . S
C1540 C1524 1.509 . S
C1540 C1541 1.391 . S
C1540 C1545 1.386 . S
C1541 H1502 0.930 . S
C1541 C1540 1.391 . S
C1541 C1542 1.375 . S
C1542 H1503 0.931 . S
C1542 C1541 1.375 . S
C1542 C1543 1.375 . S
C1543 C1542 1.375 . S
C1543 C1544 1.361 . S
C1544 H1504 0.930 . S
C1544 C1543 1.361 . S
C1544 C1545 1.399 . S
C1545 H1505 0.929 . S
C1545 C1540 1.386 . S
C1545 C1544 1.399 . S
C1546 C1525 1.485 . S
C1546 C1547 1.394 . S
C1546 C1551 1.360 . S
C1547 H1506 0.931 . S
C1547 C1546 1.394 . S
C1547 C1548 1.372 . S
C1548 H1507 0.930 . S
C1548 C1547 1.372 . S
C1548 C1549 1.397 . S
C1549 C1548 1.397 . S
C1549 C1550 1.390 . S
C1549 C1565 1.476 . S
C1550 H1508 0.930 . S
C1550 C1549 1.390 . S
C1550 C1551 1.366 . S
C1551 H1509 0.932 . S
C1551 C1546 1.360 . S
C1551 C1550 1.366 . S
C1552 C1526 1.490 . S
C1552 C1553 1.380 . S
C1552 C1557 1.386 . S
C1553 H1510 0.930 . S
C1553 C1552 1.380 . S
C1553 C1554 1.381 . S
C1554 H1511 0.929 . S
C1554 C1553 1.381 . S
C1554 C1555 1.371 . S
C1555 C1554 1.371 . S
C1555 C1556 1.380 . S
C1556 H1512 0.931 . S
C1556 C1555 1.380 . S
C1556 C1557 1.387 . S
C1557 H1513 0.930 . S
C1557 C1552 1.386 . S
C1557 C1556 1.387 . S
C1558 C1527 1.519 . S
C1558 C1559 1.377 . S
C1558 C1563 1.361 . S
C1559 H1514 0.929 . S
C1559 C1558 1.377 . S
C1559 C1560 1.386 . S
C1560 H1515 0.931 . S
C1560 C1559 1.386 . S
C1560 C1561 1.363 . S
C1561 C1560 1.363 . S
C1561 C1562 1.385 . S
C1562 H1516 0.930 . S
C1562 C1561 1.385 . S
C1562 C1563 1.396 . S
C1563 H1517 0.929 . S
C1563 C1558 1.361 . S
C1563 C1562 1.396 . S
C1564 O1518 1.300 . S
C1564 O1519 1.209 . S
C1564 C1537 1.486 . S
C1565 O1520 1.199 . S
C1565 O1521 1.297 . S
C1565 C1549 1.476 . S
C1566 C1567 1.391 . S
C1566 C1568 1.394 . S
C1566 H1582 0.931 . S
C1567 C1566 1.391 . S
C1567 C1571 1.376 1_655 S
C1568 C1566 1.394 . S
C1568 C1569 1.369 . S
C1568 C1572 1.531 . S
C1569 C1568 1.369 . S
C1569 C1570 1.410 1_655 S
C1569 C1577 1.503 . S
C1570 C1569 1.410 1_455 S
C1570 C1571 1.392 . S
C1570 C1573 1.511 . S
C1571 C1567 1.376 1_455 S
C1571 C1570 1.392 . S
C1571 H1583 0.929 . S
C1572 C1568 1.531 . S
C1572 H1584 0.960 . S
C1572 H1585 0.962 . S
C1572 H1586 0.960 . S
C1573 C1570 1.511 . S
C1573 H1587 0.961 . S
C1573 H1588 0.961 . S
C1573 H1589 0.961 . S
C1574 C1575 1.370 . S
C1574 C1576 1.363 . S
C1574 H1590 0.931 . S
C1575 C1574 1.370 . S
C1575 C1579 1.408 . S
C1576 C1574 1.363 . S
C1576 C1577 1.370 . S
C1576 C1580 1.524 . S
C1577 C1569 1.503 . S
C1577 C1576 1.370 . S
C1577 C1578 1.403 . S
C1578 C1577 1.403 . S
C1578 C1579 1.404 . S
C1578 C1581 1.539 . S
C1579 C1575 1.408 . S
C1579 C1578 1.404 . S
C1579 H1591 0.930 . S
C1580 C1576 1.524 . S
C1580 H1592 0.956 . S
C1580 H1593 0.961 1_655 S
C1580 H1594 0.961 . S
C1581 C1578 1.539 . S
C1581 H1595 0.958 . S
C1581 H1596 0.961 . S
C1581 H1597 0.960 . S
H1582 C1566 0.931 . S
H1583 C1571 0.929 . S
H1584 C1572 0.960 . S
H1585 C1572 0.962 . S
H1586 C1572 0.960 . S
H1587 C1573 0.961 . S
H1588 C1573 0.961 . S
H1589 C1573 0.961 . S
H1590 C1574 0.931 . S
H1591 C1579 0.930 . S
H1592 C1580 0.956 . S
H1593 C1580 0.961 1_455 S
H1594 C1580 0.961 . S
H1595 C1581 0.958 . S
H1596 C1581 0.961 . S
H1597 C1581 0.960 . S
C1598 C1599 1.391 . S
C1598 C1600 1.394 . S
C1598 H1614 0.931 . S
C1599 C1598 1.391 . S
C1599 C1603 1.376 . S
C1600 C1598 1.394 . S
C1600 C1601 1.369 . S
C1600 C1604 1.531 . S
C1601 C1600 1.369 . S
C1601 C1602 1.410 . S
C1601 C1609 1.503 . S
C1602 C1601 1.410 . S
C1602 C1603 1.392 . S
C1602 C1605 1.511 . S
C1603 C1599 1.376 . S
C1603 C1602 1.392 . S
C1603 H1615 0.929 . S
C1604 C1600 1.531 . S
C1604 H1616 0.960 . S
C1604 H1617 0.962 . S
C1604 H1618 0.960 . S
C1605 C1602 1.511 . S
C1605 H1619 0.961 . S
C1605 H1620 0.961 . S
C1605 H1621 0.961 . S
C1606 C1607 1.370 . S
C1606 C1608 1.363 . S
C1606 H1622 0.931 . S
C1607 C1606 1.370 . S
C1607 C1611 1.408 . S
C1608 C1606 1.363 . S
C1608 C1609 1.370 . S
C1608 C1612 1.524 . S
C1609 C1601 1.503 . S
C1609 C1608 1.370 . S
C1609 C1610 1.403 . S
C1610 C1609 1.403 . S
C1610 C1611 1.404 . S
C1610 C1613 1.539 . S
C1611 C1607 1.408 . S
C1611 C1610 1.404 . S
C1611 H1623 0.930 . S
C1612 C1608 1.524 . S
C1612 H1624 0.956 . S
C1612 H1625 0.961 . S
C1612 H1626 0.961 . S
C1613 C1610 1.539 . S
C1613 H1627 0.958 . S
C1613 H1628 0.961 . S
C1613 H1629 0.960 . S
H1614 C1598 0.931 . S
H1615 C1603 0.929 . S
H1616 C1604 0.960 . S
H1617 C1604 0.962 . S
H1618 C1604 0.960 . S
H1619 C1605 0.961 . S
H1620 C1605 0.961 . S
H1621 C1605 0.961 . S
H1622 C1606 0.931 . S
H1623 C1611 0.930 . S
H1624 C1612 0.956 . S
H1625 C1612 0.961 . S
H1626 C1612 0.961 . S
H1627 C1613 0.958 . S
H1628 C1613 0.961 . S
H1629 C1613 0.960 . S
C1630 C1631 1.391 . S
C1630 C1632 1.394 . S
C1630 H1646 0.931 . S
C1631 C1630 1.391 . S
C1631 C1635 1.373 1_545 S
C1632 C1630 1.394 . S
C1632 C1633 1.369 . S
C1632 C1636 1.531 . S
C1633 C1632 1.369 . S
C1633 C1634 1.410 . S
C1633 C1641 1.503 . S
C1634 C1633 1.410 . S
C1634 C1635 1.395 1_545 S
C1634 C1637 1.511 1_545 S
C1635 C1631 1.373 1_565 S
C1635 C1634 1.395 1_565 S
C1635 H1647 0.929 . S
C1636 C1632 1.531 . S
C1636 H1648 0.960 . S
C1636 H1649 0.962 . S
C1636 H1650 0.960 . S
C1637 C1634 1.511 1_565 S
C1637 H1651 0.961 . S
C1637 H1652 0.961 . S
C1637 H1653 0.961 1_565 S
C1638 C1639 1.370 . S
C1638 C1640 1.363 1_545 S
C1638 H1654 0.931 1_545 S
C1639 C1638 1.370 . S
C1639 C1643 1.408 . S
C1640 C1638 1.363 1_565 S
C1640 C1641 1.370 1_565 S
C1640 C1644 1.524 . S
C1641 C1633 1.503 . S
C1641 C1640 1.370 1_545 S
C1641 C1642 1.403 . S
C1642 C1641 1.403 . S
C1642 C1643 1.404 . S
C1642 C1645 1.539 . S
C1643 C1639 1.408 . S
C1643 C1642 1.404 . S
C1643 H1655 0.930 . S
C1644 C1640 1.524 . S
C1644 H1656 0.956 . S
C1644 H1657 0.961 . S
C1644 H1658 0.961 . S
C1645 C1642 1.539 . S
C1645 H1659 0.958 . S
C1645 H1660 0.961 . S
C1645 H1661 0.960 . S
H1646 C1630 0.931 . S
H1647 C1635 0.929 . S
H1648 C1636 0.960 . S
H1649 C1636 0.962 . S
H1650 C1636 0.960 . S
H1651 C1637 0.961 . S
H1652 C1637 0.961 . S
H1653 C1637 0.961 1_545 S
H1654 C1638 0.931 1_565 S
H1655 C1643 0.930 . S
H1656 C1644 0.956 . S
H1657 C1644 0.961 . S
H1658 C1644 0.961 . S
H1659 C1645 0.958 . S
H1660 C1645 0.961 . S
H1661 C1645 0.960 . S
C1662 C1663 1.391 1_545 S
C1662 C1664 1.394 . S
C1662 H1678 0.931 . S
C1663 C1662 1.391 1_565 S
C1663 C1667 1.376 . S
C1664 C1662 1.394 . S
C1664 C1665 1.369 1_545 S
C1664 C1668 1.531 . S
C1665 C1664 1.369 1_565 S
C1665 C1666 1.410 . S
C1665 C1673 1.503 . S
C1666 C1665 1.410 . S
C1666 C1667 1.392 . S
C1666 C1669 1.511 . S
C1667 C1663 1.376 . S
C1667 C1666 1.392 . S
C1667 H1679 0.929 . S
C1668 C1664 1.531 . S
C1668 H1680 0.960 . S
C1668 H1681 0.962 . S
C1668 H1682 0.960 . S
C1669 C1666 1.511 . S
C1669 H1683 0.961 . S
C1669 H1684 0.961 . S
C1669 H1685 0.961 . S
C1670 C1671 1.370 . S
C1670 C1672 1.363 . S
C1670 H1686 0.931 . S
C1671 C1670 1.370 . S
C1671 C1675 1.408 . S
C1672 C1670 1.363 . S
C1672 C1673 1.370 . S
C1672 C1676 1.524 . S
C1673 C1665 1.503 . S
C1673 C1672 1.370 . S
C1673 C1674 1.403 . S
C1674 C1673 1.403 . S
C1674 C1675 1.404 . S
C1674 C1677 1.539 1_565 S
C1675 C1671 1.408 . S
C1675 C1674 1.404 . S
C1675 H1687 0.930 . S
C1676 C1672 1.524 . S
C1676 H1688 0.956 . S
C1676 H1689 0.961 . S
C1676 H1690 0.961 . S
C1677 C1674 1.539 1_545 S
C1677 H1691 0.958 . S
C1677 H1692 0.961 1_545 S
C1677 H1693 0.960 1_545 S
H1678 C1662 0.931 . S
H1679 C1667 0.929 . S
H1680 C1668 0.960 . S
H1681 C1668 0.962 . S
H1682 C1668 0.960 . S
H1683 C1669 0.961 . S
H1684 C1669 0.961 . S
H1685 C1669 0.961 . S
H1686 C1670 0.931 . S
H1687 C1675 0.930 . S
H1688 C1676 0.956 . S
H1689 C1676 0.961 . S
H1690 C1676 0.961 . S
H1691 C1677 0.958 . S
H1692 C1677 0.961 1_565 S
H1693 C1677 0.960 1_565 S
C1694 C1695 1.391 1_655 S
C1694 C1696 1.394 . S
C1694 H1710 0.931 . S
C1695 C1694 1.391 1_455 S
C1695 C1699 1.376 . S
C1696 C1694 1.394 . S
C1696 C1697 1.369 1_655 S
C1696 C1700 1.531 . S
C1697 C1696 1.369 1_455 S
C1697 C1698 1.410 . S
C1697 C1705 1.503 . S
C1698 C1697 1.410 . S
C1698 C1699 1.392 . S
C1698 C1701 1.511 . S
C1699 C1695 1.376 . S
C1699 C1698 1.392 . S
C1699 H1711 0.929 . S
C1700 C1696 1.531 . S
C1700 H1712 0.960 . S
C1700 H1713 0.962 . S
C1700 H1714 0.960 . S
C1701 C1698 1.511 . S
C1701 H1715 0.961 . S
C1701 H1716 0.961 . S
C1701 H1717 0.961 . S
C1702 C1703 1.370 . S
C1702 C1704 1.363 . S
C1702 H1718 0.931 . S
C1703 C1702 1.370 . S
C1703 C1707 1.408 . S
C1704 C1702 1.363 . S
C1704 C1705 1.370 . S
C1704 C1708 1.524 . S
C1705 C1697 1.503 . S
C1705 C1704 1.370 . S
C1705 C1706 1.403 . S
C1706 C1705 1.403 . S
C1706 C1707 1.404 . S
C1706 C1709 1.539 . S
C1707 C1703 1.408 . S
C1707 C1706 1.404 . S
C1707 H1719 0.930 . S
C1708 C1704 1.524 . S
C1708 H1720 0.956 1_455 S
C1708 H1721 0.961 . S
C1708 H1722 0.961 . S
C1709 C1706 1.539 . S
C1709 H1723 0.958 1_455 S
C1709 H1724 0.961 . S
C1709 H1725 0.960 . S
H1710 C1694 0.931 . S
H1711 C1699 0.929 . S
H1712 C1700 0.960 . S
H1713 C1700 0.962 . S
H1714 C1700 0.960 . S
H1715 C1701 0.961 . S
H1716 C1701 0.961 . S
H1717 C1701 0.961 . S
H1718 C1702 0.931 . S
H1719 C1707 0.930 . S
H1720 C1708 0.956 1_655 S
H1721 C1708 0.961 . S
H1722 C1708 0.961 . S
H1723 C1709 0.958 1_655 S
H1724 C1709 0.961 . S
H1725 C1709 0.960 . S
C1726 C1727 1.391 1_556 S
C1726 C1728 1.394 . S
C1726 H1742 0.931 . S
C1727 C1726 1.391 1_554 S
C1727 C1731 1.376 . S
C1728 C1726 1.394 . S
C1728 C1729 1.369 . S
C1728 C1732 1.531 . S
C1729 C1728 1.369 . S
C1729 C1730 1.410 . S
C1729 C1737 1.503 . S
C1730 C1729 1.410 . S
C1730 C1731 1.392 1_556 S
C1730 C1733 1.511 . S
C1731 C1727 1.376 . S
C1731 C1730 1.392 1_554 S
C1731 H1743 0.929 . S
C1732 C1728 1.531 . S
C1732 H1744 0.960 . S
C1732 H1745 0.962 . S
C1732 H1746 0.960 . S
C1733 C1730 1.511 . S
C1733 H1747 0.961 . S
C1733 H1748 0.961 . S
C1733 H1749 0.961 . S
C1734 C1735 1.370 . S
C1734 C1736 1.363 . S
C1734 H1750 0.931 . S
C1735 C1734 1.370 . S
C1735 C1739 1.408 . S
C1736 C1734 1.363 . S
C1736 C1737 1.370 . S
C1736 C1740 1.524 . S
C1737 C1729 1.503 . S
C1737 C1736 1.370 . S
C1737 C1738 1.403 . S
C1738 C1737 1.403 . S
C1738 C1739 1.404 . S
C1738 C1741 1.539 . S
C1739 C1735 1.408 . S
C1739 C1738 1.404 . S
C1739 H1751 0.930 . S
C1740 C1736 1.524 . S
C1740 H1752 0.956 . S
C1740 H1753 0.961 . S
C1740 H1754 0.961 . S
C1741 C1738 1.539 . S
C1741 H1755 0.958 . S
C1741 H1756 0.961 . S
C1741 H1757 0.960 . S
H1742 C1726 0.931 . S
H1743 C1731 0.929 . S
H1744 C1732 0.960 . S
H1745 C1732 0.962 . S
H1746 C1732 0.960 . S
H1747 C1733 0.961 . S
H1748 C1733 0.961 . S
H1749 C1733 0.961 . S
H1750 C1734 0.931 . S
H1751 C1739 0.930 . S
H1752 C1740 0.956 . S
H1753 C1740 0.961 . S
H1754 C1740 0.961 . S
H1755 C1741 0.958 . S
H1756 C1741 0.961 . S
H1757 C1741 0.960 . S
C1758 C1759 1.390 1_455 S
C1758 C1760 1.394 . S
C1758 H1774 0.931 1_556 S
C1759 C1758 1.390 1_655 S
C1759 C1763 1.376 . S
C1760 C1758 1.394 . S
C1760 C1761 1.369 1_455 S
C1760 C1764 1.531 . S
C1761 C1760 1.369 1_655 S
C1761 C1762 1.410 . S
C1761 C1769 1.503 . S
C1762 C1761 1.410 . S
C1762 C1763 1.392 . S
C1762 C1765 1.511 . S
C1763 C1759 1.376 . S
C1763 C1762 1.392 . S
C1763 H1775 0.929 . S
C1764 C1760 1.531 . S
C1764 H1776 0.960 . S
C1764 H1777 0.962 . S
C1764 H1778 0.900 1_556 S
C1765 C1762 1.511 . S
C1765 H1779 0.961 . S
C1765 H1780 0.961 . S
C1765 H1781 0.961 . S
C1766 C1767 1.376 . S
C1766 C1768 1.363 . S
C1766 H1782 0.931 . S
C1767 C1766 1.376 . S
C1767 C1771 1.393 1_455 S
C1768 C1766 1.363 . S
C1768 C1769 1.370 1_455 S
C1768 C1772 1.524 . S
C1769 C1761 1.503 . S
C1769 C1768 1.370 1_655 S
C1769 C1770 1.403 . S
C1770 C1769 1.403 . S
C1770 C1771 1.404 . S
C1770 C1773 1.539 . S
C1771 C1767 1.393 1_655 S
C1771 C1770 1.404 . S
C1771 H1783 0.930 . S
C1772 C1768 1.524 . S
C1772 H1784 0.956 . S
C1772 H1785 0.961 . S
C1772 H1786 0.961 . S
C1773 C1770 1.539 . S
C1773 H1787 0.958 . S
C1773 H1788 0.961 . S
C1773 H1789 0.960 . S
H1774 C1758 0.931 1_554 S
H1775 C1763 0.929 . S
H1776 C1764 0.960 . S
H1777 C1764 0.962 . S
H1778 C1764 0.900 1_554 S
H1779 C1765 0.961 . S
H1780 C1765 0.961 . S
H1781 C1765 0.961 . S
H1782 C1766 0.931 . S
H1783 C1771 0.930 . S
H1784 C1772 0.956 . S
H1785 C1772 0.961 . S
H1786 C1772 0.961 . S
H1787 C1773 0.958 . S
H1788 C1773 0.961 . S
H1789 C1773 0.960 . S
C1790 C1791 1.391 . S
C1790 C1792 1.394 . S
C1790 H1806 0.931 . S
C1791 C1790 1.391 . S
C1791 C1795 1.376 . S
C1792 C1790 1.394 . S
C1792 C1793 1.369 . S
C1792 C1796 1.531 . S
C1793 C1792 1.369 . S
C1793 C1794 1.410 . S
C1793 C1801 1.503 . S
C1794 C1793 1.410 . S
C1794 C1795 1.392 . S
C1794 C1797 1.511 . S
C1795 C1791 1.376 . S
C1795 C1794 1.392 . S
C1795 H1807 0.929 . S
C1796 C1792 1.531 . S
C1796 H1808 0.960 . S
C1796 H1809 0.962 . S
C1796 H1810 0.960 . S
C1797 C1794 1.511 . S
C1797 H1811 0.961 . S
C1797 H1812 0.961 . S
C1797 H1813 0.961 . S
C1798 C1799 1.370 . S
C1798 C1800 1.363 . S
C1798 H1814 0.931 . S
C1799 C1798 1.370 . S
C1799 C1803 1.408 . S
C1800 C1798 1.363 . S
C1800 C1801 1.370 . S
C1800 C1804 1.524 . S
C1801 C1793 1.503 . S
C1801 C1800 1.370 . S
C1801 C1802 1.403 . S
C1802 C1801 1.403 . S
C1802 C1803 1.404 . S
C1802 C1805 1.539 . S
C1803 C1799 1.408 . S
C1803 C1802 1.404 . S
C1803 H1815 0.930 . S
C1804 C1800 1.524 . S
C1804 H1816 0.956 . S
C1804 H1817 0.961 . S
C1804 H1818 0.961 . S
C1805 C1802 1.539 . S
C1805 H1819 0.958 . S
C1805 H1820 0.961 . S
C1805 H1821 0.960 . S
H1806 C1790 0.931 . S
H1807 C1795 0.929 . S
H1808 C1796 0.960 . S
H1809 C1796 0.962 . S
H1810 C1796 0.960 . S
H1811 C1797 0.961 . S
H1812 C1797 0.961 . S
H1813 C1797 0.961 . S
H1814 C1798 0.931 . S
H1815 C1803 0.930 . S
H1816 C1804 0.956 . S
H1817 C1804 0.961 . S
H1818 C1804 0.961 . S
H1819 C1805 0.958 . S
H1820 C1805 0.961 . S
H1821 C1805 0.960 . S
C1822 C1823 1.391 . S
C1822 C1824 1.394 . S
C1822 H1838 0.931 . S
C1823 C1822 1.391 . S
C1823 C1827 1.376 1_565 S
C1824 C1822 1.394 . S
C1824 C1825 1.369 . S
C1824 C1828 1.531 . S
C1825 C1824 1.369 . S
C1825 C1826 1.410 1_565 S
C1825 C1833 1.503 . S
C1826 C1825 1.410 1_545 S
C1826 C1827 1.392 . S
C1826 C1829 1.511 . S
C1827 C1823 1.376 1_545 S
C1827 C1826 1.392 . S
C1827 H1839 0.929 1_556 S
C1828 C1824 1.531 . S
C1828 H1840 0.960 . S
C1828 H1841 0.962 . S
C1828 H1842 0.960 . S
C1829 C1826 1.511 . S
C1829 H1843 0.961 . S
C1829 H1844 0.961 . S
C1829 H1845 0.961 . S
C1830 C1831 1.374 . S
C1830 C1832 1.363 . S
C1830 H1846 0.931 . S
C1831 C1830 1.374 . S
C1831 C1835 1.394 1_545 S
C1832 C1830 1.363 . S
C1832 C1833 1.370 1_545 S
C1832 C1836 1.524 . S
C1833 C1825 1.503 . S
C1833 C1832 1.370 1_565 S
C1833 C1834 1.403 . S
C1834 C1833 1.403 . S
C1834 C1835 1.404 . S
C1834 C1837 1.539 . S
C1835 C1831 1.394 1_565 S
C1835 C1834 1.404 . S
C1835 H1847 0.930 . S
C1836 C1832 1.524 . S
C1836 H1848 0.956 . S
C1836 H1849 0.961 . S
C1836 H1850 0.961 . S
C1837 C1834 1.539 . S
C1837 H1851 0.958 . S
C1837 H1852 0.961 . S
C1837 H1853 0.960 . S
H1838 C1822 0.931 . S
H1839 C1827 0.929 1_554 S
H1840 C1828 0.960 . S
H1841 C1828 0.962 . S
H1842 C1828 0.960 . S
H1843 C1829 0.961 . S
H1844 C1829 0.961 . S
H1845 C1829 0.961 . S
H1846 C1830 0.931 . S
H1847 C1835 0.930 . S
H1848 C1836 0.956 . S
H1849 C1836 0.961 . S
H1850 C1836 0.961 . S
H1851 C1837 0.958 . S
H1852 C1837 0.961 . S
H1853 C1837 0.960 . S
C1854 C1855 1.391 . S
C1854 C1856 1.394 . S
C1854 H1870 0.931 . S
C1855 C1854 1.391 . S
C1855 C1859 1.376 1_545 S
C1856 C1854 1.394 . S
C1856 C1857 1.369 . S
C1856 C1860 1.531 . S
C1857 C1856 1.369 . S
C1857 C1858 1.410 1_545 S
C1857 C1865 1.503 . S
C1858 C1857 1.410 1_565 S
C1858 C1859 1.392 . S
C1858 C1861 1.511 . S
C1859 C1855 1.376 1_565 S
C1859 C1858 1.392 . S
C1859 H1871 0.929 . S
C1860 C1856 1.531 . S
C1860 H1872 0.960 . S
C1860 H1873 0.962 . S
C1860 H1874 0.960 . S
C1861 C1858 1.511 . S
C1861 H1875 0.961 . S
C1861 H1876 0.961 . S
C1861 H1877 0.961 . S
C1862 C1863 1.402 . S
C1862 C1864 1.363 . S
C1862 H1878 0.931 . S
C1863 C1862 1.402 . S
C1863 C1867 1.383 1_565 S
C1864 C1862 1.363 . S
C1864 C1865 1.370 1_565 S
C1864 C1868 1.524 . S
C1865 C1857 1.503 . S
C1865 C1864 1.370 1_545 S
C1865 C1866 1.403 . S
C1866 C1865 1.403 . S
C1866 C1867 1.404 . S
C1866 C1869 1.539 . S
C1867 C1863 1.383 1_545 S
C1867 C1866 1.404 . S
C1867 H1879 0.930 . S
C1868 C1864 1.524 . S
C1868 H1880 0.956 1_565 S
C1868 H1881 0.961 . S
C1868 H1882 0.961 . S
C1869 C1866 1.539 . S
C1869 H1883 0.958 . S
C1869 H1884 0.960 . S
C1869 H1885 0.960 . S
H1870 C1854 0.931 . S
H1871 C1859 0.929 . S
H1872 C1860 0.960 . S
H1873 C1860 0.962 . S
H1874 C1860 0.960 . S
H1875 C1861 0.961 . S
H1876 C1861 0.961 . S
H1877 C1861 0.961 . S
H1878 C1862 0.931 . S
H1879 C1867 0.930 . S
H1880 C1868 0.956 1_545 S
H1881 C1868 0.961 . S
H1882 C1868 0.961 . S
H1883 C1869 0.958 . S
H1884 C1869 0.960 . S
H1885 C1869 0.960 . S
C1886 C1887 1.391 1_455 S
C1886 C1888 1.394 . S
C1886 H1902 0.931 . S
C1887 C1886 1.391 1_655 S
C1887 C1891 1.376 . S
C1888 C1886 1.394 . S
C1888 C1889 1.355 1_455 S
C1888 C1892 1.531 . S
C1889 C1888 1.355 1_655 S
C1889 C1890 1.430 . S
C1889 C1897 1.502 . S
C1890 C1889 1.430 . S
C1890 C1891 1.392 . S
C1890 C1893 1.511 . S
C1891 C1887 1.376 . S
C1891 C1890 1.392 . S
C1891 H1903 0.929 . S
C1892 C1888 1.531 . S
C1892 H1904 0.960 . S
C1892 H1905 0.962 . S
C1892 H1906 0.960 . S
C1893 C1890 1.511 . S
C1893 H1907 0.961 . S
C1893 H1908 0.961 . S
C1893 H1909 0.961 . S
C1894 C1895 1.369 . S
C1894 C1896 1.363 . S
C1894 H1910 0.931 . S
C1895 C1894 1.369 . S
C1895 C1899 1.411 1_655 S
C1896 C1894 1.363 . S
C1896 C1897 1.363 . S
C1896 C1900 1.524 . S
C1897 C1889 1.502 . S
C1897 C1896 1.363 . S
C1897 C1898 1.405 1_655 S
C1898 C1897 1.405 1_455 S
C1898 C1899 1.404 . S
C1898 C1901 1.539 . S
C1899 C1895 1.411 1_455 S
C1899 C1898 1.404 . S
C1899 H1911 0.930 . S
C1900 C1896 1.524 . S
C1900 H1912 0.956 1_655 S
C1900 H1913 0.961 . S
C1900 H1914 0.961 . S
C1901 C1898 1.539 . S
C1901 H1915 0.958 . S
C1901 H1916 0.961 1_455 S
C1901 H1917 0.960 1_455 S
H1902 C1886 0.931 . S
H1903 C1891 0.929 . S
H1904 C1892 0.960 . S
H1905 C1892 0.962 . S
H1906 C1892 0.960 . S
H1907 C1893 0.961 . S
H1908 C1893 0.961 . S
H1909 C1893 0.961 . S
H1910 C1894 0.931 . S
H1911 C1899 0.930 . S
H1912 C1900 0.956 1_455 S
H1913 C1900 0.961 . S
H1914 C1900 0.961 . S
H1915 C1901 0.958 . S
H1916 C1901 0.961 1_655 S
H1917 C1901 0.960 1_655 S
C1918 C1919 1.391 . S
C1918 C1920 1.394 . S
C1918 H1934 0.931 . S
C1919 C1918 1.391 . S
C1919 C1923 1.376 . S
C1920 C1918 1.394 . S
C1920 C1921 1.369 . S
C1920 C1924 1.531 . S
C1921 C1920 1.369 . S
C1921 C1922 1.410 . S
C1921 C1929 1.503 . S
C1922 C1921 1.410 . S
C1922 C1923 1.392 . S
C1922 C1925 1.511 . S
C1923 C1919 1.376 . S
C1923 C1922 1.392 . S
C1923 H1935 0.929 . S
C1924 C1920 1.531 . S
C1924 H1936 0.960 . S
C1924 H1937 0.962 . S
C1924 H1938 0.960 . S
C1925 C1922 1.511 . S
C1925 H1939 0.961 . S
C1925 H1940 0.961 . S
C1925 H1941 0.961 . S
C1926 C1927 1.370 . S
C1926 C1928 1.363 . S
C1926 H1942 0.931 . S
C1927 C1926 1.370 . S
C1927 C1931 1.408 . S
C1928 C1926 1.363 . S
C1928 C1929 1.370 . S
C1928 C1932 1.524 . S
C1929 C1921 1.503 . S
C1929 C1928 1.370 . S
C1929 C1930 1.403 . S
C1930 C1929 1.403 . S
C1930 C1931 1.404 . S
C1930 C1933 1.539 . S
C1931 C1927 1.408 . S
C1931 C1930 1.404 . S
C1931 H1943 0.930 . S
C1932 C1928 1.524 . S
C1932 H1944 0.956 . S
C1932 H1945 0.961 . S
C1932 H1946 0.961 . S
C1933 C1930 1.539 . S
C1933 H1947 0.958 . S
C1933 H1948 0.961 . S
C1933 H1949 0.960 . S
H1934 C1918 0.931 . S
H1935 C1923 0.929 . S
H1936 C1924 0.960 . S
H1937 C1924 0.962 . S
H1938 C1924 0.960 . S
H1939 C1925 0.961 . S
H1940 C1925 0.961 . S
H1941 C1925 0.961 . S
H1942 C1926 0.931 . S
H1943 C1931 0.930 . S
H1944 C1932 0.956 . S
H1945 C1932 0.961 . S
H1946 C1932 0.961 . S
H1947 C1933 0.958 . S
H1948 C1933 0.961 . S
H1949 C1933 0.960 . S
C1950 C1951 1.391 . S
C1950 C1952 1.394 . S
C1950 H1966 0.931 . S
C1951 C1950 1.391 . S
C1951 C1955 1.376 . S
C1952 C1950 1.394 . S
C1952 C1953 1.369 . S
C1952 C1956 1.531 . S
C1953 C1952 1.369 . S
C1953 C1954 1.410 . S
C1953 C1961 1.503 . S
C1954 C1953 1.410 . S
C1954 C1955 1.392 . S
C1954 C1957 1.511 . S
C1955 C1951 1.376 . S
C1955 C1954 1.392 . S
C1955 H1967 0.929 . S
C1956 C1952 1.531 . S
C1956 H1968 0.960 . S
C1956 H1969 0.962 . S
C1956 H1970 0.960 . S
C1957 C1954 1.511 . S
C1957 H1971 0.961 . S
C1957 H1972 0.961 . S
C1957 H1973 0.961 . S
C1958 C1959 1.370 . S
C1958 C1960 1.363 . S
C1958 H1974 0.931 . S
C1959 C1958 1.370 . S
C1959 C1963 1.408 . S
C1960 C1958 1.363 . S
C1960 C1961 1.370 . S
C1960 C1964 1.524 . S
C1961 C1953 1.503 . S
C1961 C1960 1.370 . S
C1961 C1962 1.403 . S
C1962 C1961 1.403 . S
C1962 C1963 1.404 . S
C1962 C1965 1.539 . S
C1963 C1959 1.408 . S
C1963 C1962 1.404 . S
C1963 H1975 0.930 . S
C1964 C1960 1.524 . S
C1964 H1976 0.956 . S
C1964 H1977 0.961 . S
C1964 H1978 0.961 . S
C1965 C1962 1.539 . S
C1965 H1979 0.958 . S
C1965 H1980 0.961 . S
C1965 H1981 0.960 . S
H1966 C1950 0.931 . S
H1967 C1955 0.929 . S
H1968 C1956 0.960 . S
H1969 C1956 0.962 . S
H1970 C1956 0.960 . S
H1971 C1957 0.961 . S
H1972 C1957 0.961 . S
H1973 C1957 0.961 . S
H1974 C1958 0.931 . S
H1975 C1963 0.930 . S
H1976 C1964 0.956 . S
H1977 C1964 0.961 . S
H1978 C1964 0.961 . S
H1979 C1965 0.958 . S
H1980 C1965 0.961 . S
H1981 C1965 0.960 . S
C1982 C1983 1.391 . S
C1982 C1984 1.394 . S
C1982 H1998 0.931 . S
C1983 C1982 1.391 . S
C1983 C1987 1.376 . S
C1984 C1982 1.394 . S
C1984 C1985 1.369 . S
C1984 C1988 1.531 . S
C1985 C1984 1.369 . S
C1985 C1986 1.410 . S
C1985 C1993 1.503 . S
C1986 C1985 1.410 . S
C1986 C1987 1.392 . S
C1986 C1989 1.511 . S
C1987 C1983 1.376 . S
C1987 C1986 1.392 . S
C1987 H1999 0.929 . S
C1988 C1984 1.531 . S
C1988 H2000 0.960 . S
C1988 H2001 0.962 . S
C1988 H2002 0.960 . S
C1989 C1986 1.511 . S
C1989 H2003 0.961 . S
C1989 H2004 0.961 . S
C1989 H2005 0.961 . S
C1990 C1991 1.370 . S
C1990 C1992 1.363 . S
C1990 H2006 0.931 . S
C1991 C1990 1.370 . S
C1991 C1995 1.408 . S
C1992 C1990 1.363 . S
C1992 C1993 1.370 . S
C1992 C1996 1.524 . S
C1993 C1985 1.503 . S
C1993 C1992 1.370 . S
C1993 C1994 1.403 . S
C1994 C1993 1.403 . S
C1994 C1995 1.404 . S
C1994 C1997 1.539 . S
C1995 C1991 1.408 . S
C1995 C1994 1.404 . S
C1995 H2007 0.930 . S
C1996 C1992 1.524 . S
C1996 H2008 0.956 . S
C1996 H2009 0.961 . S
C1996 H2010 0.961 . S
C1997 C1994 1.539 . S
C1997 H2011 0.958 . S
C1997 H2012 0.961 . S
C1997 H2013 0.960 . S
H1998 C1982 0.931 . S
H1999 C1987 0.929 . S
H2000 C1988 0.960 . S
H2001 C1988 0.962 . S
H2002 C1988 0.960 . S
H2003 C1989 0.961 . S
H2004 C1989 0.961 . S
H2005 C1989 0.961 . S
H2006 C1990 0.931 . S
H2007 C1995 0.930 . S
H2008 C1996 0.956 . S
H2009 C1996 0.961 . S
H2010 C1996 0.961 . S
H2011 C1997 0.958 . S
H2012 C1997 0.961 . S
H2013 C1997 0.960 . S
C2014 C2015 1.391 . S
C2014 C2016 1.394 . S
C2014 H2030 0.931 . S
C2015 C2014 1.391 . S
C2015 C2019 1.376 . S
C2016 C2014 1.394 . S
C2016 C2017 1.369 . S
C2016 C2020 1.531 . S
C2017 C2016 1.369 . S
C2017 C2018 1.410 . S
C2017 C2025 1.503 . S
C2018 C2017 1.410 . S
C2018 C2019 1.392 . S
C2018 C2021 1.511 . S
C2019 C2015 1.376 . S
C2019 C2018 1.392 . S
C2019 H2031 0.929 . S
C2020 C2016 1.531 . S
C2020 H2032 0.960 . S
C2020 H2033 0.962 . S
C2020 H2034 0.960 . S
C2021 C2018 1.511 . S
C2021 H2035 0.961 . S
C2021 H2036 0.961 . S
C2021 H2037 0.961 . S
C2022 C2023 1.370 . S
C2022 C2024 1.363 . S
C2022 H2038 0.931 . S
C2023 C2022 1.370 . S
C2023 C2027 1.408 . S
C2024 C2022 1.363 . S
C2024 C2025 1.370 . S
C2024 C2028 1.524 . S
C2025 C2017 1.503 . S
C2025 C2024 1.370 . S
C2025 C2026 1.403 . S
C2026 C2025 1.403 . S
C2026 C2027 1.404 . S
C2026 C2029 1.539 . S
C2027 C2023 1.408 . S
C2027 C2026 1.404 . S
C2027 H2039 0.930 . S
C2028 C2024 1.524 . S
C2028 H2040 0.956 . S
C2028 H2041 0.961 . S
C2028 H2042 0.961 . S
C2029 C2026 1.539 . S
C2029 H2043 0.958 . S
C2029 H2044 0.961 . S
C2029 H2045 0.960 . S
H2030 C2014 0.931 . S
H2031 C2019 0.929 . S
H2032 C2020 0.960 . S
H2033 C2020 0.962 . S
H2034 C2020 0.960 . S
H2035 C2021 0.961 . S
H2036 C2021 0.961 . S
H2037 C2021 0.961 . S
H2038 C2022 0.931 . S
H2039 C2027 0.930 . S
H2040 C2028 0.956 . S
H2041 C2028 0.961 . S
H2042 C2028 0.961 . S
H2043 C2029 0.958 . S
H2044 C2029 0.961 . S
H2045 C2029 0.960 . S
C2046 C2047 1.391 . S
C2046 C2048 1.394 . S
C2046 H2062 0.931 . S
C2047 C2046 1.391 . S
C2047 C2051 1.376 . S
C2048 C2046 1.394 . S
C2048 C2049 1.369 . S
C2048 C2052 1.531 . S
C2049 C2048 1.369 . S
C2049 C2050 1.410 . S
C2049 C2057 1.503 . S
C2050 C2049 1.410 . S
C2050 C2051 1.392 . S
C2050 C2053 1.511 . S
C2051 C2047 1.376 . S
C2051 C2050 1.392 . S
C2051 H2063 0.929 . S
C2052 C2048 1.531 . S
C2052 H2064 0.960 . S
C2052 H2065 0.962 . S
C2052 H2066 0.960 . S
C2053 C2050 1.511 . S
C2053 H2067 0.961 . S
C2053 H2068 0.961 . S
C2053 H2069 0.961 . S
C2054 C2055 1.370 . S
C2054 C2056 1.363 . S
C2054 H2070 0.931 . S
C2055 C2054 1.370 . S
C2055 C2059 1.408 . S
C2056 C2054 1.363 . S
C2056 C2057 1.370 . S
C2056 C2060 1.524 . S
C2057 C2049 1.503 . S
C2057 C2056 1.370 . S
C2057 C2058 1.403 . S
C2058 C2057 1.403 . S
C2058 C2059 1.404 . S
C2058 C2061 1.539 . S
C2059 C2055 1.408 . S
C2059 C2058 1.404 . S
C2059 H2071 0.930 . S
C2060 C2056 1.524 . S
C2060 H2072 0.956 . S
C2060 H2073 0.961 . S
C2060 H2074 0.961 . S
C2061 C2058 1.539 . S
C2061 H2075 0.958 . S
C2061 H2076 0.961 . S
C2061 H2077 0.960 . S
H2062 C2046 0.931 . S
H2063 C2051 0.929 . S
H2064 C2052 0.960 . S
H2065 C2052 0.962 . S
H2066 C2052 0.960 . S
H2067 C2053 0.961 . S
H2068 C2053 0.961 . S
H2069 C2053 0.961 . S
H2070 C2054 0.931 . S
H2071 C2059 0.930 . S
H2072 C2060 0.956 . S
H2073 C2060 0.961 . S
H2074 C2060 0.961 . S
H2075 C2061 0.958 . S
H2076 C2061 0.961 . S
H2077 C2061 0.960 . S
C2078 C2079 1.391 . S
C2078 C2080 1.394 . S
C2078 H2094 0.931 . S
C2079 C2078 1.391 . S
C2079 C2083 1.376 . S
C2080 C2078 1.394 . S
C2080 C2081 1.369 . S
C2080 C2084 1.531 . S
C2081 C2080 1.369 . S
C2081 C2082 1.410 . S
C2081 C2089 1.503 . S
C2082 C2081 1.410 . S
C2082 C2083 1.392 . S
C2082 C2085 1.511 . S
C2083 C2079 1.376 . S
C2083 C2082 1.392 . S
C2083 H2095 0.929 . S
C2084 C2080 1.531 . S
C2084 H2096 0.960 . S
C2084 H2097 0.962 . S
C2084 H2098 0.960 . S
C2085 C2082 1.511 . S
C2085 H2099 0.961 . S
C2085 H2100 0.961 . S
C2085 H2101 0.961 . S
C2086 C2087 1.370 . S
C2086 C2088 1.363 . S
C2086 H2102 0.931 . S
C2087 C2086 1.370 . S
C2087 C2091 1.408 . S
C2088 C2086 1.363 . S
C2088 C2089 1.370 . S
C2088 C2092 1.524 . S
C2089 C2081 1.503 . S
C2089 C2088 1.370 . S
C2089 C2090 1.403 . S
C2090 C2089 1.403 . S
C2090 C2091 1.404 . S
C2090 C2093 1.539 . S
C2091 C2087 1.408 . S
C2091 C2090 1.404 . S
C2091 H2103 0.930 . S
C2092 C2088 1.524 . S
C2092 H2104 0.956 . S
C2092 H2105 0.961 . S
C2092 H2106 0.961 . S
C2093 C2090 1.539 . S
C2093 H2107 0.958 . S
C2093 H2108 0.961 . S
C2093 H2109 0.960 . S
H2094 C2078 0.931 . S
H2095 C2083 0.929 . S
H2096 C2084 0.960 . S
H2097 C2084 0.962 . S
H2098 C2084 0.960 . S
H2099 C2085 0.961 . S
H2100 C2085 0.961 . S
H2101 C2085 0.961 . S
H2102 C2086 0.931 . S
H2103 C2091 0.930 . S
H2104 C2092 0.956 . S
H2105 C2092 0.961 . S
H2106 C2092 0.961 . S
H2107 C2093 0.958 . S
H2108 C2093 0.961 . S
H2109 C2093 0.960 . S
C2110 C2111 1.391 . S
C2110 C2112 1.394 . S
C2110 H2126 0.931 . S
C2111 C2110 1.391 . S
C2111 C2115 1.376 . S
C2112 C2110 1.394 . S
C2112 C2113 1.369 . S
C2112 C2116 1.531 . S
C2113 C2112 1.369 . S
C2113 C2114 1.410 . S
C2113 C2121 1.503 . S
C2114 C2113 1.410 . S
C2114 C2115 1.392 . S
C2114 C2117 1.511 . S
C2115 C2111 1.376 . S
C2115 C2114 1.392 . S
C2115 H2127 0.929 . S
C2116 C2112 1.531 . S
C2116 H2128 0.960 . S
C2116 H2129 0.962 . S
C2116 H2130 0.960 . S
C2117 C2114 1.511 . S
C2117 H2131 0.961 . S
C2117 H2132 0.961 . S
C2117 H2133 0.961 . S
C2118 C2119 1.370 . S
C2118 C2120 1.363 . S
C2118 H2134 0.931 . S
C2119 C2118 1.370 . S
C2119 C2123 1.408 . S
C2120 C2118 1.363 . S
C2120 C2121 1.370 . S
C2120 C2124 1.524 . S
C2121 C2113 1.503 . S
C2121 C2120 1.370 . S
C2121 C2122 1.403 . S
C2122 C2121 1.403 . S
C2122 C2123 1.404 . S
C2122 C2125 1.539 . S
C2123 C2119 1.408 . S
C2123 C2122 1.404 . S
C2123 H2135 0.930 . S
C2124 C2120 1.524 . S
C2124 H2136 0.956 . S
C2124 H2137 0.961 . S
C2124 H2138 0.961 . S
C2125 C2122 1.539 . S
C2125 H2139 0.958 . S
C2125 H2140 0.961 . S
C2125 H2141 0.960 . S
H2126 C2110 0.931 . S
H2127 C2115 0.929 . S
H2128 C2116 0.960 . S
H2129 C2116 0.962 . S
H2130 C2116 0.960 . S
H2131 C2117 0.961 . S
H2132 C2117 0.961 . S
H2133 C2117 0.961 . S
H2134 C2118 0.931 . S
H2135 C2123 0.930 . S
H2136 C2124 0.956 . S
H2137 C2124 0.961 . S
H2138 C2124 0.961 . S
H2139 C2125 0.958 . S
H2140 C2125 0.961 . S
H2141 C2125 0.960 . S
C2142 C2143 1.391 . S
C2142 C2144 1.394 . S
C2142 H2158 0.931 . S
C2143 C2142 1.391 . S
C2143 C2147 1.376 . S
C2144 C2142 1.394 . S
C2144 C2145 1.369 . S
C2144 C2148 1.531 . S
C2145 C2144 1.369 . S
C2145 C2146 1.410 . S
C2145 C2153 1.503 . S
C2146 C2145 1.410 . S
C2146 C2147 1.392 . S
C2146 C2149 1.511 . S
C2147 C2143 1.376 . S
C2147 C2146 1.392 . S
C2147 H2159 0.929 . S
C2148 C2144 1.531 . S
C2148 H2160 0.960 . S
C2148 H2161 0.962 . S
C2148 H2162 0.960 . S
C2149 C2146 1.511 . S
C2149 H2163 0.961 . S
C2149 H2164 0.961 . S
C2149 H2165 0.961 . S
C2150 C2151 1.370 . S
C2150 C2152 1.363 . S
C2150 H2166 0.931 . S
C2151 C2150 1.370 . S
C2151 C2155 1.408 . S
C2152 C2150 1.363 . S
C2152 C2153 1.370 . S
C2152 C2156 1.524 . S
C2153 C2145 1.503 . S
C2153 C2152 1.370 . S
C2153 C2154 1.403 . S
C2154 C2153 1.403 . S
C2154 C2155 1.404 . S
C2154 C2157 1.539 . S
C2155 C2151 1.408 . S
C2155 C2154 1.404 . S
C2155 H2167 0.930 . S
C2156 C2152 1.524 . S
C2156 H2168 0.956 . S
C2156 H2169 0.961 . S
C2156 H2170 0.961 . S
C2157 C2154 1.539 . S
C2157 H2171 0.958 . S
C2157 H2172 0.961 . S
C2157 H2173 0.960 . S
H2158 C2142 0.931 . S
H2159 C2147 0.929 . S
H2160 C2148 0.960 . S
H2161 C2148 0.962 . S
H2162 C2148 0.960 . S
H2163 C2149 0.961 . S
H2164 C2149 0.961 . S
H2165 C2149 0.961 . S
H2166 C2150 0.931 . S
H2167 C2155 0.930 . S
H2168 C2156 0.956 . S
H2169 C2156 0.961 . S
H2170 C2156 0.961 . S
H2171 C2157 0.958 . S
H2172 C2157 0.961 . S
H2173 C2157 0.960 . S
C2174 C2175 1.391 . S
C2174 C2176 1.394 . S
C2174 H2190 0.931 . S
C2175 C2174 1.391 . S
C2175 C2179 1.376 . S
C2176 C2174 1.394 . S
C2176 C2177 1.369 . S
C2176 C2180 1.531 . S
C2177 C2176 1.369 . S
C2177 C2178 1.410 . S
C2177 C2185 1.503 . S
C2178 C2177 1.410 . S
C2178 C2179 1.392 . S
C2178 C2181 1.511 . S
C2179 C2175 1.376 . S
C2179 C2178 1.392 . S
C2179 H2191 0.929 . S
C2180 C2176 1.531 . S
C2180 H2192 0.960 . S
C2180 H2193 0.962 . S
C2180 H2194 0.960 . S
C2181 C2178 1.511 . S
C2181 H2195 0.961 . S
C2181 H2196 0.961 . S
C2181 H2197 0.961 . S
C2182 C2183 1.370 . S
C2182 C2184 1.363 . S
C2182 H2198 0.931 . S
C2183 C2182 1.370 . S
C2183 C2187 1.408 . S
C2184 C2182 1.363 . S
C2184 C2185 1.370 . S
C2184 C2188 1.524 . S
C2185 C2177 1.503 . S
C2185 C2184 1.370 . S
C2185 C2186 1.403 . S
C2186 C2185 1.403 . S
C2186 C2187 1.404 . S
C2186 C2189 1.539 . S
C2187 C2183 1.408 . S
C2187 C2186 1.404 . S
C2187 H2199 0.930 . S
C2188 C2184 1.524 . S
C2188 H2200 0.956 . S
C2188 H2201 0.961 . S
C2188 H2202 0.961 . S
C2189 C2186 1.539 . S
C2189 H2203 0.958 . S
C2189 H2204 0.961 . S
C2189 H2205 0.960 . S
H2190 C2174 0.931 . S
H2191 C2179 0.929 . S
H2192 C2180 0.960 . S
H2193 C2180 0.962 . S
H2194 C2180 0.960 . S
H2195 C2181 0.961 . S
H2196 C2181 0.961 . S
H2197 C2181 0.961 . S
H2198 C2182 0.931 . S
H2199 C2187 0.930 . S
H2200 C2188 0.956 . S
H2201 C2188 0.961 . S
H2202 C2188 0.961 . S
H2203 C2189 0.958 . S
H2204 C2189 0.961 . S
H2205 C2189 0.960 . S
C2206 C2207 1.391 . S
C2206 C2208 1.394 . S
C2206 H2222 0.931 . S
C2207 C2206 1.391 . S
C2207 C2211 1.376 . S
C2208 C2206 1.394 . S
C2208 C2209 1.369 . S
C2208 C2212 1.531 . S
C2209 C2208 1.369 . S
C2209 C2210 1.410 . S
C2209 C2217 1.503 . S
C2210 C2209 1.410 . S
C2210 C2211 1.392 . S
C2210 C2213 1.511 . S
C2211 C2207 1.376 . S
C2211 C2210 1.392 . S
C2211 H2223 0.929 . S
C2212 C2208 1.531 . S
C2212 H2224 0.960 . S
C2212 H2225 0.962 . S
C2212 H2226 0.960 . S
C2213 C2210 1.511 . S
C2213 H2227 0.961 . S
C2213 H2228 0.961 . S
C2213 H2229 0.961 . S
C2214 C2215 1.370 . S
C2214 C2216 1.363 . S
C2214 H2230 0.931 . S
C2215 C2214 1.370 . S
C2215 C2219 1.408 . S
C2216 C2214 1.363 . S
C2216 C2217 1.370 . S
C2216 C2220 1.524 . S
C2217 C2209 1.503 . S
C2217 C2216 1.370 . S
C2217 C2218 1.403 . S
C2218 C2217 1.403 . S
C2218 C2219 1.404 . S
C2218 C2221 1.539 . S
C2219 C2215 1.408 . S
C2219 C2218 1.404 . S
C2219 H2231 0.930 . S
C2220 C2216 1.524 . S
C2220 H2232 0.956 . S
C2220 H2233 0.961 . S
C2220 H2234 0.961 . S
C2221 C2218 1.539 . S
C2221 H2235 0.958 . S
C2221 H2236 0.961 . S
C2221 H2237 0.960 . S
H2222 C2206 0.931 . S
H2223 C2211 0.929 . S
H2224 C2212 0.960 . S
H2225 C2212 0.962 . S
H2226 C2212 0.960 . S
H2227 C2213 0.961 . S
H2228 C2213 0.961 . S
H2229 C2213 0.961 . S
H2230 C2214 0.931 . S
H2231 C2219 0.930 . S
H2232 C2220 0.956 . S
H2233 C2220 0.961 . S
H2234 C2220 0.961 . S
H2235 C2221 0.958 . S
H2236 C2221 0.961 . S
H2237 C2221 0.960 . S
C2238 C2239 1.391 . S
C2238 C2240 1.394 . S
C2238 H2254 0.931 . S
C2239 C2238 1.391 . S
C2239 C2243 1.376 . S
C2240 C2238 1.394 . S
C2240 C2241 1.369 . S
C2240 C2244 1.531 . S
C2241 C2240 1.369 . S
C2241 C2242 1.410 . S
C2241 C2249 1.503 . S
C2242 C2241 1.410 . S
C2242 C2243 1.392 . S
C2242 C2245 1.511 . S
C2243 C2239 1.376 . S
C2243 C2242 1.392 . S
C2243 H2255 0.929 . S
C2244 C2240 1.531 . S
C2244 H2256 0.960 . S
C2244 H2257 0.962 . S
C2244 H2258 0.960 . S
C2245 C2242 1.511 . S
C2245 H2259 0.961 . S
C2245 H2260 0.961 . S
C2245 H2261 0.961 . S
C2246 C2247 1.370 . S
C2246 C2248 1.363 . S
C2246 H2262 0.931 . S
C2247 C2246 1.370 . S
C2247 C2251 1.408 . S
C2248 C2246 1.363 . S
C2248 C2249 1.370 . S
C2248 C2252 1.524 . S
C2249 C2241 1.503 . S
C2249 C2248 1.370 . S
C2249 C2250 1.403 . S
C2250 C2249 1.403 . S
C2250 C2251 1.404 . S
C2250 C2253 1.539 . S
C2251 C2247 1.408 . S
C2251 C2250 1.404 . S
C2251 H2263 0.930 . S
C2252 C2248 1.524 . S
C2252 H2264 0.956 . S
C2252 H2265 0.961 . S
C2252 H2266 0.961 . S
C2253 C2250 1.539 . S
C2253 H2267 0.958 . S
C2253 H2268 0.961 . S
C2253 H2269 0.960 . S
H2254 C2238 0.931 . S
H2255 C2243 0.929 . S
H2256 C2244 0.960 . S
H2257 C2244 0.962 . S
H2258 C2244 0.960 . S
H2259 C2245 0.961 . S
H2260 C2245 0.961 . S
H2261 C2245 0.961 . S
H2262 C2246 0.931 . S
H2263 C2251 0.930 . S
H2264 C2252 0.956 . S
H2265 C2252 0.961 . S
H2266 C2252 0.961 . S
H2267 C2253 0.958 . S
H2268 C2253 0.961 . S
H2269 C2253 0.960 . S
C2270 C2271 1.391 . S
C2270 C2272 1.394 . S
C2270 H2286 0.931 . S
C2271 C2270 1.391 . S
C2271 C2275 1.376 . S
C2272 C2270 1.394 . S
C2272 C2273 1.369 . S
C2272 C2276 1.531 . S
C2273 C2272 1.369 . S
C2273 C2274 1.410 . S
C2273 C2281 1.503 . S
C2274 C2273 1.410 . S
C2274 C2275 1.392 . S
C2274 C2277 1.511 . S
C2275 C2271 1.376 . S
C2275 C2274 1.392 . S
C2275 H2287 0.929 . S
C2276 C2272 1.531 . S
C2276 H2288 0.960 . S
C2276 H2289 0.962 . S
C2276 H2290 0.960 . S
C2277 C2274 1.511 . S
C2277 H2291 0.961 . S
C2277 H2292 0.961 . S
C2277 H2293 0.961 . S
C2278 C2279 1.370 . S
C2278 C2280 1.363 . S
C2278 H2294 0.931 . S
C2279 C2278 1.370 . S
C2279 C2283 1.408 . S
C2280 C2278 1.363 . S
C2280 C2281 1.370 . S
C2280 C2284 1.524 . S
C2281 C2273 1.503 . S
C2281 C2280 1.370 . S
C2281 C2282 1.403 . S
C2282 C2281 1.403 . S
C2282 C2283 1.404 . S
C2282 C2285 1.539 . S
C2283 C2279 1.408 . S
C2283 C2282 1.404 . S
C2283 H2295 0.930 . S
C2284 C2280 1.524 . S
C2284 H2296 0.956 . S
C2284 H2297 0.961 . S
C2284 H2298 0.961 . S
C2285 C2282 1.539 . S
C2285 H2299 0.958 . S
C2285 H2300 0.961 . S
C2285 H2301 0.960 . S
H2286 C2270 0.931 . S
H2287 C2275 0.929 . S
H2288 C2276 0.960 . S
H2289 C2276 0.962 . S
H2290 C2276 0.960 . S
H2291 C2277 0.961 . S
H2292 C2277 0.961 . S
H2293 C2277 0.961 . S
H2294 C2278 0.931 . S
H2295 C2283 0.930 . S
H2296 C2284 0.956 . S
H2297 C2284 0.961 . S
H2298 C2284 0.961 . S
H2299 C2285 0.958 . S
H2300 C2285 0.961 . S
H2301 C2285 0.960 . S
C2302 C2303 1.391 . S
C2302 C2304 1.394 . S
C2302 H2318 0.931 . S
C2303 C2302 1.391 . S
C2303 C2307 1.376 . S
C2304 C2302 1.394 . S
C2304 C2305 1.369 . S
C2304 C2308 1.531 . S
C2305 C2304 1.369 . S
C2305 C2306 1.410 . S
C2305 C2313 1.503 . S
C2306 C2305 1.410 . S
C2306 C2307 1.392 . S
C2306 C2309 1.511 . S
C2307 C2303 1.376 . S
C2307 C2306 1.392 . S
C2307 H2319 0.929 . S
C2308 C2304 1.531 . S
C2308 H2320 0.960 . S
C2308 H2321 0.962 . S
C2308 H2322 0.960 . S
C2309 C2306 1.511 . S
C2309 H2323 0.961 . S
C2309 H2324 0.961 . S
C2309 H2325 0.961 . S
C2310 C2311 1.370 . S
C2310 C2312 1.363 . S
C2310 H2326 0.931 . S
C2311 C2310 1.370 . S
C2311 C2315 1.408 . S
C2312 C2310 1.363 . S
C2312 C2313 1.370 . S
C2312 C2316 1.524 . S
C2313 C2305 1.503 . S
C2313 C2312 1.370 . S
C2313 C2314 1.403 . S
C2314 C2313 1.403 . S
C2314 C2315 1.404 . S
C2314 C2317 1.539 . S
C2315 C2311 1.408 . S
C2315 C2314 1.404 . S
C2315 H2327 0.930 . S
C2316 C2312 1.524 . S
C2316 H2328 0.956 . S
C2316 H2329 0.961 . S
C2316 H2330 0.961 . S
C2317 C2314 1.539 . S
C2317 H2331 0.958 . S
C2317 H2332 0.961 . S
C2317 H2333 0.960 . S
H2318 C2302 0.931 . S
H2319 C2307 0.929 . S
H2320 C2308 0.960 . S
H2321 C2308 0.962 . S
H2322 C2308 0.960 . S
H2323 C2309 0.961 . S
H2324 C2309 0.961 . S
H2325 C2309 0.961 . S
H2326 C2310 0.931 . S
H2327 C2315 0.930 . S
H2328 C2316 0.956 . S
H2329 C2316 0.961 . S
H2330 C2316 0.961 . S
H2331 C2317 0.958 . S
H2332 C2317 0.961 . S
H2333 C2317 0.960 . S
C2334 C2335 1.391 . S
C2334 C2336 1.394 . S
C2334 H2350 0.931 . S
C2335 C2334 1.391 . S
C2335 C2339 1.376 . S
C2336 C2334 1.394 . S
C2336 C2337 1.369 . S
C2336 C2340 1.531 . S
C2337 C2336 1.369 . S
C2337 C2338 1.410 . S
C2337 C2345 1.503 . S
C2338 C2337 1.410 . S
C2338 C2339 1.392 . S
C2338 C2341 1.511 . S
C2339 C2335 1.376 . S
C2339 C2338 1.392 . S
C2339 H2351 0.929 . S
C2340 C2336 1.531 . S
C2340 H2352 0.960 . S
C2340 H2353 0.962 . S
C2340 H2354 0.960 . S
C2341 C2338 1.511 . S
C2341 H2355 0.961 . S
C2341 H2356 0.961 . S
C2341 H2357 0.961 . S
C2342 C2343 1.370 . S
C2342 C2344 1.363 . S
C2342 H2358 0.931 . S
C2343 C2342 1.370 . S
C2343 C2347 1.408 . S
C2344 C2342 1.363 . S
C2344 C2345 1.370 . S
C2344 C2348 1.524 . S
C2345 C2337 1.503 . S
C2345 C2344 1.370 . S
C2345 C2346 1.403 . S
C2346 C2345 1.403 . S
C2346 C2347 1.404 . S
C2346 C2349 1.539 . S
C2347 C2343 1.408 . S
C2347 C2346 1.404 . S
C2347 H2359 0.930 . S
C2348 C2344 1.524 . S
C2348 H2360 0.956 . S
C2348 H2361 0.961 . S
C2348 H2362 0.961 . S
C2349 C2346 1.539 . S
C2349 H2363 0.958 . S
C2349 H2364 0.961 . S
C2349 H2365 0.960 . S
H2350 C2334 0.931 . S
H2351 C2339 0.929 . S
H2352 C2340 0.960 . S
H2353 C2340 0.962 . S
H2354 C2340 0.960 . S
H2355 C2341 0.961 . S
H2356 C2341 0.961 . S
H2357 C2341 0.961 . S
H2358 C2342 0.931 . S
H2359 C2347 0.930 . S
H2360 C2348 0.956 . S
H2361 C2348 0.961 . S
H2362 C2348 0.961 . S
H2363 C2349 0.958 . S
H2364 C2349 0.961 . S
H2365 C2349 0.960 . S
C2366 C2367 1.391 . S
C2366 C2368 1.394 . S
C2366 H2382 0.931 . S
C2367 C2366 1.391 . S
C2367 C2371 1.376 . S
C2368 C2366 1.394 . S
C2368 C2369 1.369 . S
C2368 C2372 1.531 . S
C2369 C2368 1.369 . S
C2369 C2370 1.410 . S
C2369 C2377 1.503 . S
C2370 C2369 1.410 . S
C2370 C2371 1.392 . S
C2370 C2373 1.511 . S
C2371 C2367 1.376 . S
C2371 C2370 1.392 . S
C2371 H2383 0.929 . S
C2372 C2368 1.531 . S
C2372 H2384 0.960 . S
C2372 H2385 0.962 . S
C2372 H2386 0.960 . S
C2373 C2370 1.511 . S
C2373 H2387 0.961 . S
C2373 H2388 0.961 . S
C2373 H2389 0.961 . S
C2374 C2375 1.370 . S
C2374 C2376 1.363 . S
C2374 H2390 0.931 . S
C2375 C2374 1.370 . S
C2375 C2379 1.408 . S
C2376 C2374 1.363 . S
C2376 C2377 1.370 . S
C2376 C2380 1.524 . S
C2377 C2369 1.503 . S
C2377 C2376 1.370 . S
C2377 C2378 1.403 . S
C2378 C2377 1.403 . S
C2378 C2379 1.404 . S
C2378 C2381 1.539 . S
C2379 C2375 1.408 . S
C2379 C2378 1.404 . S
C2379 H2391 0.930 . S
C2380 C2376 1.524 . S
C2380 H2392 0.956 . S
C2380 H2393 0.961 . S
C2380 H2394 0.961 . S
C2381 C2378 1.539 . S
C2381 H2395 0.958 . S
C2381 H2396 0.961 . S
C2381 H2397 0.960 . S
H2382 C2366 0.931 . S
H2383 C2371 0.929 . S
H2384 C2372 0.960 . S
H2385 C2372 0.962 . S
H2386 C2372 0.960 . S
H2387 C2373 0.961 . S
H2388 C2373 0.961 . S
H2389 C2373 0.961 . S
H2390 C2374 0.931 . S
H2391 C2379 0.930 . S
H2392 C2380 0.956 . S
H2393 C2380 0.961 . S
H2394 C2380 0.961 . S
H2395 C2381 0.958 . S
H2396 C2381 0.961 . S
H2397 C2381 0.960 . S
C2398 C2399 1.391 . S
C2398 C2400 1.394 . S
C2398 H2414 0.931 . S
C2399 C2398 1.391 . S
C2399 C2403 1.376 . S
C2400 C2398 1.394 . S
C2400 C2401 1.369 . S
C2400 C2404 1.531 . S
C2401 C2400 1.369 . S
C2401 C2402 1.410 . S
C2401 C2409 1.503 . S
C2402 C2401 1.410 . S
C2402 C2403 1.392 . S
C2402 C2405 1.511 . S
C2403 C2399 1.376 . S
C2403 C2402 1.392 . S
C2403 H2415 0.929 . S
C2404 C2400 1.531 . S
C2404 H2416 0.960 . S
C2404 H2417 0.962 . S
C2404 H2418 0.960 . S
C2405 C2402 1.511 . S
C2405 H2419 0.961 . S
C2405 H2420 0.961 . S
C2405 H2421 0.961 . S
C2406 C2407 1.370 . S
C2406 C2408 1.363 . S
C2406 H2422 0.931 . S
C2407 C2406 1.370 . S
C2407 C2411 1.408 . S
C2408 C2406 1.363 . S
C2408 C2409 1.370 . S
C2408 C2412 1.524 . S
C2409 C2401 1.503 . S
C2409 C2408 1.370 . S
C2409 C2410 1.403 . S
C2410 C2409 1.403 . S
C2410 C2411 1.404 . S
C2410 C2413 1.539 . S
C2411 C2407 1.408 . S
C2411 C2410 1.404 . S
C2411 H2423 0.930 . S
C2412 C2408 1.524 . S
C2412 H2424 0.956 . S
C2412 H2425 0.961 . S
C2412 H2426 0.961 . S
C2413 C2410 1.539 . S
C2413 H2427 0.958 . S
C2413 H2428 0.961 . S
C2413 H2429 0.960 . S
H2414 C2398 0.931 . S
H2415 C2403 0.929 . S
H2416 C2404 0.960 . S
H2417 C2404 0.962 . S
H2418 C2404 0.960 . S
H2419 C2405 0.961 . S
H2420 C2405 0.961 . S
H2421 C2405 0.961 . S
H2422 C2406 0.931 . S
H2423 C2411 0.930 . S
H2424 C2412 0.956 . S
H2425 C2412 0.961 . S
H2426 C2412 0.961 . S
H2427 C2413 0.958 . S
H2428 C2413 0.961 . S
H2429 C2413 0.960 . S
C2430 C2431 1.391 . S
C2430 C2432 1.394 . S
C2430 H2446 0.931 . S
C2431 C2430 1.391 . S
C2431 C2435 1.376 . S
C2432 C2430 1.394 . S
C2432 C2433 1.369 . S
C2432 C2436 1.531 . S
C2433 C2432 1.369 . S
C2433 C2434 1.410 . S
C2433 C2441 1.503 . S
C2434 C2433 1.410 . S
C2434 C2435 1.392 . S
C2434 C2437 1.511 . S
C2435 C2431 1.376 . S
C2435 C2434 1.392 . S
C2435 H2447 0.929 . S
C2436 C2432 1.531 . S
C2436 H2448 0.960 . S
C2436 H2449 0.962 . S
C2436 H2450 0.960 . S
C2437 C2434 1.511 . S
C2437 H2451 0.961 . S
C2437 H2452 0.961 . S
C2437 H2453 0.961 . S
C2438 C2439 1.370 . S
C2438 C2440 1.363 . S
C2438 H2454 0.931 . S
C2439 C2438 1.370 . S
C2439 C2443 1.408 . S
C2440 C2438 1.363 . S
C2440 C2441 1.370 . S
C2440 C2444 1.524 . S
C2441 C2433 1.503 . S
C2441 C2440 1.370 . S
C2441 C2442 1.403 . S
C2442 C2441 1.403 . S
C2442 C2443 1.404 . S
C2442 C2445 1.539 . S
C2443 C2439 1.408 . S
C2443 C2442 1.404 . S
C2443 H2455 0.930 . S
C2444 C2440 1.524 . S
C2444 H2456 0.956 . S
C2444 H2457 0.961 . S
C2444 H2458 0.961 . S
C2445 C2442 1.539 . S
C2445 H2459 0.958 . S
C2445 H2460 0.961 . S
C2445 H2461 0.960 . S
H2446 C2430 0.931 . S
H2447 C2435 0.929 . S
H2448 C2436 0.960 . S
H2449 C2436 0.962 . S
H2450 C2436 0.960 . S
H2451 C2437 0.961 . S
H2452 C2437 0.961 . S
H2453 C2437 0.961 . S
H2454 C2438 0.931 . S
H2455 C2443 0.930 . S
H2456 C2444 0.956 . S
H2457 C2444 0.961 . S
H2458 C2444 0.961 . S
H2459 C2445 0.958 . S
H2460 C2445 0.961 . S
H2461 C2445 0.960 . S
C2462 C2463 1.391 . S
C2462 C2464 1.394 . S
C2462 H2478 0.931 . S
C2463 C2462 1.391 . S
C2463 C2467 1.376 . S
C2464 C2462 1.394 . S
C2464 C2465 1.369 . S
C2464 C2468 1.531 . S
C2465 C2464 1.369 . S
C2465 C2466 1.410 . S
C2465 C2473 1.503 . S
C2466 C2465 1.410 . S
C2466 C2467 1.392 . S
C2466 C2469 1.511 . S
C2467 C2463 1.376 . S
C2467 C2466 1.392 . S
C2467 H2479 0.929 . S
C2468 C2464 1.531 . S
C2468 H2480 0.960 . S
C2468 H2481 0.962 . S
C2468 H2482 0.960 . S
C2469 C2466 1.511 . S
C2469 H2483 0.961 . S
C2469 H2484 0.961 . S
C2469 H2485 0.961 . S
C2470 C2471 1.370 . S
C2470 C2472 1.363 . S
C2470 H2486 0.931 . S
C2471 C2470 1.370 . S
C2471 C2475 1.408 . S
C2472 C2470 1.363 . S
C2472 C2473 1.370 . S
C2472 C2476 1.524 . S
C2473 C2465 1.503 . S
C2473 C2472 1.370 . S
C2473 C2474 1.403 . S
C2474 C2473 1.403 . S
C2474 C2475 1.404 . S
C2474 C2477 1.539 . S
C2475 C2471 1.408 . S
C2475 C2474 1.404 . S
C2475 H2487 0.930 . S
C2476 C2472 1.524 . S
C2476 H2488 0.956 . S
C2476 H2489 0.961 . S
C2476 H2490 0.961 . S
C2477 C2474 1.539 . S
C2477 H2491 0.958 . S
C2477 H2492 0.961 . S
C2477 H2493 0.960 . S
H2478 C2462 0.931 . S
H2479 C2467 0.929 . S
H2480 C2468 0.960 . S
H2481 C2468 0.962 . S
H2482 C2468 0.960 . S
H2483 C2469 0.961 . S
H2484 C2469 0.961 . S
H2485 C2469 0.961 . S
H2486 C2470 0.931 . S
H2487 C2475 0.930 . S
H2488 C2476 0.956 . S
H2489 C2476 0.961 . S
H2490 C2476 0.961 . S
H2491 C2477 0.958 . S
H2492 C2477 0.961 . S
H2493 C2477 0.960 . S
C2494 C2495 1.391 . S
C2494 C2496 1.394 . S
C2494 H2510 0.931 . S
C2495 C2494 1.391 . S
C2495 C2499 1.376 . S
C2496 C2494 1.394 . S
C2496 C2497 1.369 . S
C2496 C2500 1.531 . S
C2497 C2496 1.369 . S
C2497 C2498 1.410 . S
C2497 C2505 1.503 . S
C2498 C2497 1.410 . S
C2498 C2499 1.392 . S
C2498 C2501 1.511 . S
C2499 C2495 1.376 . S
C2499 C2498 1.392 . S
C2499 H2511 0.929 . S
C2500 C2496 1.531 . S
C2500 H2512 0.960 . S
C2500 H2513 0.962 . S
C2500 H2514 0.960 . S
C2501 C2498 1.511 . S
C2501 H2515 0.961 . S
C2501 H2516 0.961 . S
C2501 H2517 0.961 . S
C2502 C2503 1.370 . S
C2502 C2504 1.363 . S
C2502 H2518 0.931 . S
C2503 C2502 1.370 . S
C2503 C2507 1.408 . S
C2504 C2502 1.363 . S
C2504 C2505 1.370 . S
C2504 C2508 1.524 . S
C2505 C2497 1.503 . S
C2505 C2504 1.370 . S
C2505 C2506 1.403 . S
C2506 C2505 1.403 . S
C2506 C2507 1.404 . S
C2506 C2509 1.539 . S
C2507 C2503 1.408 . S
C2507 C2506 1.404 . S
C2507 H2519 0.930 . S
C2508 C2504 1.524 . S
C2508 H2520 0.956 . S
C2508 H2521 0.961 . S
C2508 H2522 0.961 . S
C2509 C2506 1.539 . S
C2509 H2523 0.958 . S
C2509 H2524 0.961 . S
C2509 H2525 0.960 . S
H2510 C2494 0.931 . S
H2511 C2499 0.929 . S
H2512 C2500 0.960 . S
H2513 C2500 0.962 . S
H2514 C2500 0.960 . S
H2515 C2501 0.961 . S
H2516 C2501 0.961 . S
H2517 C2501 0.961 . S
H2518 C2502 0.931 . S
H2519 C2507 0.930 . S
H2520 C2508 0.956 . S
H2521 C2508 0.961 . S
H2522 C2508 0.961 . S
H2523 C2509 0.958 . S
H2524 C2509 0.961 . S
H2525 C2509 0.960 . S
C2526 C2527 1.391 . S
C2526 C2528 1.394 . S
C2526 H2542 0.931 . S
C2527 C2526 1.391 . S
C2527 C2531 1.376 . S
C2528 C2526 1.394 . S
C2528 C2529 1.369 . S
C2528 C2532 1.531 . S
C2529 C2528 1.369 . S
C2529 C2530 1.410 . S
C2529 C2537 1.503 . S
C2530 C2529 1.410 . S
C2530 C2531 1.392 . S
C2530 C2533 1.511 . S
C2531 C2527 1.376 . S
C2531 C2530 1.392 . S
C2531 H2543 0.929 . S
C2532 C2528 1.531 . S
C2532 H2544 0.960 . S
C2532 H2545 0.962 . S
C2532 H2546 0.960 . S
C2533 C2530 1.511 . S
C2533 H2547 0.961 . S
C2533 H2548 0.961 . S
C2533 H2549 0.961 . S
C2534 C2535 1.370 . S
C2534 C2536 1.363 . S
C2534 H2550 0.931 . S
C2535 C2534 1.370 . S
C2535 C2539 1.408 . S
C2536 C2534 1.363 . S
C2536 C2537 1.370 . S
C2536 C2540 1.524 . S
C2537 C2529 1.503 . S
C2537 C2536 1.370 . S
C2537 C2538 1.403 . S
C2538 C2537 1.403 . S
C2538 C2539 1.404 . S
C2538 C2541 1.539 . S
C2539 C2535 1.408 . S
C2539 C2538 1.404 . S
C2539 H2551 0.930 . S
C2540 C2536 1.524 . S
C2540 H2552 0.956 . S
C2540 H2553 0.961 . S
C2540 H2554 0.961 . S
C2541 C2538 1.539 . S
C2541 H2555 0.958 . S
C2541 H2556 0.961 . S
C2541 H2557 0.960 . S
H2542 C2526 0.931 . S
H2543 C2531 0.929 . S
H2544 C2532 0.960 . S
H2545 C2532 0.962 . S
H2546 C2532 0.960 . S
H2547 C2533 0.961 . S
H2548 C2533 0.961 . S
H2549 C2533 0.961 . S
H2550 C2534 0.931 . S
H2551 C2539 0.930 . S
H2552 C2540 0.956 . S
H2553 C2540 0.961 . S
H2554 C2540 0.961 . S
H2555 C2541 0.958 . S
H2556 C2541 0.961 . S
H2557 C2541 0.960 . S
C2558 C2559 1.391 . S
C2558 C2560 1.394 . S
C2558 H2574 0.931 . S
C2559 C2558 1.391 . S
C2559 C2563 1.376 . S
C2560 C2558 1.394 . S
C2560 C2561 1.369 . S
C2560 C2564 1.531 . S
C2561 C2560 1.369 . S
C2561 C2562 1.410 . S
C2561 C2569 1.503 . S
C2562 C2561 1.410 . S
C2562 C2563 1.392 . S
C2562 C2565 1.511 . S
C2563 C2559 1.376 . S
C2563 C2562 1.392 . S
C2563 H2575 0.929 . S
C2564 C2560 1.531 . S
C2564 H2576 0.960 . S
C2564 H2577 0.962 . S
C2564 H2578 0.960 . S
C2565 C2562 1.511 . S
C2565 H2579 0.961 . S
C2565 H2580 0.961 . S
C2565 H2581 0.961 . S
C2566 C2567 1.370 . S
C2566 C2568 1.363 . S
C2566 H2582 0.931 . S
C2567 C2566 1.370 . S
C2567 C2571 1.408 . S
C2568 C2566 1.363 . S
C2568 C2569 1.370 . S
C2568 C2572 1.524 . S
C2569 C2561 1.503 . S
C2569 C2568 1.370 . S
C2569 C2570 1.403 . S
C2570 C2569 1.403 . S
C2570 C2571 1.404 . S
C2570 C2573 1.539 . S
C2571 C2567 1.408 . S
C2571 C2570 1.404 . S
C2571 H2583 0.930 . S
C2572 C2568 1.524 . S
C2572 H2584 0.956 . S
C2572 H2585 0.961 . S
C2572 H2586 0.961 . S
C2573 C2570 1.539 . S
C2573 H2587 0.958 . S
C2573 H2588 0.961 . S
C2573 H2589 0.960 . S
H2574 C2558 0.931 . S
H2575 C2563 0.929 . S
H2576 C2564 0.960 . S
H2577 C2564 0.962 . S
H2578 C2564 0.960 . S
H2579 C2565 0.961 . S
H2580 C2565 0.961 . S
H2581 C2565 0.961 . S
H2582 C2566 0.931 . S
H2583 C2571 0.930 . S
H2584 C2572 0.956 . S
H2585 C2572 0.961 . S
H2586 C2572 0.961 . S
H2587 C2573 0.958 . S
H2588 C2573 0.961 . S
H2589 C2573 0.960 . S
C2590 C2591 1.391 . S
C2590 C2592 1.394 . S
C2590 H2606 0.931 . S
C2591 C2590 1.391 . S
C2591 C2595 1.376 . S
C2592 C2590 1.394 . S
C2592 C2593 1.369 . S
C2592 C2596 1.531 . S
C2593 C2592 1.369 . S
C2593 C2594 1.410 . S
C2593 C2601 1.503 . S
C2594 C2593 1.410 . S
C2594 C2595 1.392 . S
C2594 C2597 1.511 . S
C2595 C2591 1.376 . S
C2595 C2594 1.392 . S
C2595 H2607 0.929 . S
C2596 C2592 1.531 . S
C2596 H2608 0.960 . S
C2596 H2609 0.962 . S
C2596 H2610 0.960 . S
C2597 C2594 1.511 . S
C2597 H2611 0.961 . S
C2597 H2612 0.961 . S
C2597 H2613 0.961 . S
C2598 C2599 1.370 . S
C2598 C2600 1.363 . S
C2598 H2614 0.931 . S
C2599 C2598 1.370 . S
C2599 C2603 1.408 . S
C2600 C2598 1.363 . S
C2600 C2601 1.370 . S
C2600 C2604 1.524 . S
C2601 C2593 1.503 . S
C2601 C2600 1.370 . S
C2601 C2602 1.403 . S
C2602 C2601 1.403 . S
C2602 C2603 1.404 . S
C2602 C2605 1.539 . S
C2603 C2599 1.408 . S
C2603 C2602 1.404 . S
C2603 H2615 0.930 . S
C2604 C2600 1.524 . S
C2604 H2616 0.956 . S
C2604 H2617 0.961 . S
C2604 H2618 0.961 . S
C2605 C2602 1.539 . S
C2605 H2619 0.958 . S
C2605 H2620 0.961 . S
C2605 H2621 0.960 . S
H2606 C2590 0.931 . S
H2607 C2595 0.929 . S
H2608 C2596 0.960 . S
H2609 C2596 0.962 . S
H2610 C2596 0.960 . S
H2611 C2597 0.961 . S
H2612 C2597 0.961 . S
H2613 C2597 0.961 . S
H2614 C2598 0.931 . S
H2615 C2603 0.930 . S
H2616 C2604 0.956 . S
H2617 C2604 0.961 . S
H2618 C2604 0.961 . S
H2619 C2605 0.958 . S
H2620 C2605 0.961 . S
H2621 C2605 0.960 . S
C2622 C2623 1.391 . S
C2622 C2624 1.394 . S
C2622 H2638 0.931 . S
C2623 C2622 1.391 . S
C2623 C2627 1.376 . S
C2624 C2622 1.394 . S
C2624 C2625 1.369 . S
C2624 C2628 1.531 . S
C2625 C2624 1.369 . S
C2625 C2626 1.410 . S
C2625 C2633 1.503 . S
C2626 C2625 1.410 . S
C2626 C2627 1.392 . S
C2626 C2629 1.511 . S
C2627 C2623 1.376 . S
C2627 C2626 1.392 . S
C2627 H2639 0.929 . S
C2628 C2624 1.531 . S
C2628 H2640 0.960 . S
C2628 H2641 0.962 . S
C2628 H2642 0.960 . S
C2629 C2626 1.511 . S
C2629 H2643 0.961 . S
C2629 H2644 0.961 . S
C2629 H2645 0.961 . S
C2630 C2631 1.370 . S
C2630 C2632 1.363 . S
C2630 H2646 0.931 . S
C2631 C2630 1.370 . S
C2631 C2635 1.408 . S
C2632 C2630 1.363 . S
C2632 C2633 1.370 . S
C2632 C2636 1.524 . S
C2633 C2625 1.503 . S
C2633 C2632 1.370 . S
C2633 C2634 1.403 . S
C2634 C2633 1.403 . S
C2634 C2635 1.404 . S
C2634 C2637 1.539 . S
C2635 C2631 1.408 . S
C2635 C2634 1.404 . S
C2635 H2647 0.930 . S
C2636 C2632 1.524 . S
C2636 H2648 0.956 . S
C2636 H2649 0.961 . S
C2636 H2650 0.961 . S
C2637 C2634 1.539 . S
C2637 H2651 0.958 . S
C2637 H2652 0.961 . S
C2637 H2653 0.960 . S
H2638 C2622 0.931 . S
H2639 C2627 0.929 . S
H2640 C2628 0.960 . S
H2641 C2628 0.962 . S
H2642 C2628 0.960 . S
H2643 C2629 0.961 . S
H2644 C2629 0.961 . S
H2645 C2629 0.961 . S
H2646 C2630 0.931 . S
H2647 C2635 0.930 . S
H2648 C2636 0.956 . S
H2649 C2636 0.961 . S
H2650 C2636 0.961 . S
H2651 C2637 0.958 . S
H2652 C2637 0.961 . S
H2653 C2637 0.960 . S
C2654 C2655 1.391 . S
C2654 C2656 1.394 . S
C2654 H2670 0.931 . S
C2655 C2654 1.391 . S
C2655 C2659 1.376 . S
C2656 C2654 1.394 . S
C2656 C2657 1.369 . S
C2656 C2660 1.531 . S
C2657 C2656 1.369 . S
C2657 C2658 1.410 . S
C2657 C2665 1.503 . S
C2658 C2657 1.410 . S
C2658 C2659 1.392 . S
C2658 C2661 1.511 . S
C2659 C2655 1.376 . S
C2659 C2658 1.392 . S
C2659 H2671 0.929 . S
C2660 C2656 1.531 . S
C2660 H2672 0.960 . S
C2660 H2673 0.962 . S
C2660 H2674 0.960 . S
C2661 C2658 1.511 . S
C2661 H2675 0.961 . S
C2661 H2676 0.961 . S
C2661 H2677 0.961 . S
C2662 C2663 1.370 . S
C2662 C2664 1.363 . S
C2662 H2678 0.931 . S
C2663 C2662 1.370 . S
C2663 C2667 1.408 . S
C2664 C2662 1.363 . S
C2664 C2665 1.370 . S
C2664 C2668 1.524 . S
C2665 C2657 1.503 . S
C2665 C2664 1.370 . S
C2665 C2666 1.403 . S
C2666 C2665 1.403 . S
C2666 C2667 1.404 . S
C2666 C2669 1.539 . S
C2667 C2663 1.408 . S
C2667 C2666 1.404 . S
C2667 H2679 0.930 . S
C2668 C2664 1.524 . S
C2668 H2680 0.956 . S
C2668 H2681 0.961 . S
C2668 H2682 0.961 . S
C2669 C2666 1.539 . S
C2669 H2683 0.958 . S
C2669 H2684 0.961 . S
C2669 H2685 0.960 . S
H2670 C2654 0.931 . S
H2671 C2659 0.929 . S
H2672 C2660 0.960 . S
H2673 C2660 0.962 . S
H2674 C2660 0.960 . S
H2675 C2661 0.961 . S
H2676 C2661 0.961 . S
H2677 C2661 0.961 . S
H2678 C2662 0.931 . S
H2679 C2667 0.930 . S
H2680 C2668 0.956 . S
H2681 C2668 0.961 . S
H2682 C2668 0.961 . S
H2683 C2669 0.958 . S
H2684 C2669 0.961 . S
H2685 C2669 0.960 . S
C2686 C2687 1.391 . S
C2686 C2688 1.394 . S
C2686 H2702 0.931 . S
C2687 C2686 1.391 . S
C2687 C2691 1.376 . S
C2688 C2686 1.394 . S
C2688 C2689 1.369 . S
C2688 C2692 1.531 . S
C2689 C2688 1.369 . S
C2689 C2690 1.410 . S
C2689 C2697 1.503 . S
C2690 C2689 1.410 . S
C2690 C2691 1.392 . S
C2690 C2693 1.511 . S
C2691 C2687 1.376 . S
C2691 C2690 1.392 . S
C2691 H2703 0.929 . S
C2692 C2688 1.531 . S
C2692 H2704 0.960 . S
C2692 H2705 0.962 . S
C2692 H2706 0.960 . S
C2693 C2690 1.511 . S
C2693 H2707 0.961 . S
C2693 H2708 0.961 . S
C2693 H2709 0.961 . S
C2694 C2695 1.370 . S
C2694 C2696 1.363 . S
C2694 H2710 0.931 . S
C2695 C2694 1.370 . S
C2695 C2699 1.408 . S
C2696 C2694 1.363 . S
C2696 C2697 1.370 . S
C2696 C2700 1.524 . S
C2697 C2689 1.503 . S
C2697 C2696 1.370 . S
C2697 C2698 1.403 . S
C2698 C2697 1.403 . S
C2698 C2699 1.404 . S
C2698 C2701 1.539 . S
C2699 C2695 1.408 . S
C2699 C2698 1.404 . S
C2699 H2711 0.930 . S
C2700 C2696 1.524 . S
C2700 H2712 0.956 . S
C2700 H2713 0.961 . S
C2700 H2714 0.961 . S
C2701 C2698 1.539 . S
C2701 H2715 0.958 . S
C2701 H2716 0.961 . S
C2701 H2717 0.960 . S
H2702 C2686 0.931 . S
H2703 C2691 0.929 . S
H2704 C2692 0.960 . S
H2705 C2692 0.962 . S
H2706 C2692 0.960 . S
H2707 C2693 0.961 . S
H2708 C2693 0.961 . S
H2709 C2693 0.961 . S
H2710 C2694 0.931 . S
H2711 C2699 0.930 . S
H2712 C2700 0.956 . S
H2713 C2700 0.961 . S
H2714 C2700 0.961 . S
H2715 C2701 0.958 . S
H2716 C2701 0.961 . S
H2717 C2701 0.960 . S
C2718 C2719 1.391 . S
C2718 C2720 1.394 . S
C2718 H2734 0.931 . S
C2719 C2718 1.391 . S
C2719 C2723 1.376 . S
C2720 C2718 1.394 . S
C2720 C2721 1.369 . S
C2720 C2724 1.531 . S
C2721 C2720 1.369 . S
C2721 C2722 1.410 . S
C2721 C2729 1.503 . S
C2722 C2721 1.410 . S
C2722 C2723 1.392 . S
C2722 C2725 1.511 . S
C2723 C2719 1.376 . S
C2723 C2722 1.392 . S
C2723 H2735 0.929 . S
C2724 C2720 1.531 . S
C2724 H2736 0.960 . S
C2724 H2737 0.962 . S
C2724 H2738 0.960 . S
C2725 C2722 1.511 . S
C2725 H2739 0.961 . S
C2725 H2740 0.961 . S
C2725 H2741 0.961 . S
C2726 C2727 1.370 . S
C2726 C2728 1.363 . S
C2726 H2742 0.931 . S
C2727 C2726 1.370 . S
C2727 C2731 1.408 . S
C2728 C2726 1.363 . S
C2728 C2729 1.370 . S
C2728 C2732 1.524 . S
C2729 C2721 1.503 . S
C2729 C2728 1.370 . S
C2729 C2730 1.403 . S
C2730 C2729 1.403 . S
C2730 C2731 1.404 . S
C2730 C2733 1.539 . S
C2731 C2727 1.408 . S
C2731 C2730 1.404 . S
C2731 H2743 0.930 . S
C2732 C2728 1.524 . S
C2732 H2744 0.956 . S
C2732 H2745 0.961 . S
C2732 H2746 0.961 . S
C2733 C2730 1.539 . S
C2733 H2747 0.958 . S
C2733 H2748 0.961 . S
C2733 H2749 0.960 . S
H2734 C2718 0.931 . S
H2735 C2723 0.929 . S
H2736 C2724 0.960 . S
H2737 C2724 0.962 . S
H2738 C2724 0.960 . S
H2739 C2725 0.961 . S
H2740 C2725 0.961 . S
H2741 C2725 0.961 . S
H2742 C2726 0.931 . S
H2743 C2731 0.930 . S
H2744 C2732 0.956 . S
H2745 C2732 0.961 . S
H2746 C2732 0.961 . S
H2747 C2733 0.958 . S
H2748 C2733 0.961 . S
H2749 C2733 0.960 . S
C2750 C2751 1.391 . S
C2750 C2752 1.394 . S
C2750 H2766 0.931 . S
C2751 C2750 1.391 . S
C2751 C2755 1.376 . S
C2752 C2750 1.394 . S
C2752 C2753 1.369 . S
C2752 C2756 1.531 . S
C2753 C2752 1.369 . S
C2753 C2754 1.410 . S
C2753 C2761 1.503 . S
C2754 C2753 1.410 . S
C2754 C2755 1.392 . S
C2754 C2757 1.511 . S
C2755 C2751 1.376 . S
C2755 C2754 1.392 . S
C2755 H2767 0.929 . S
C2756 C2752 1.531 . S
C2756 H2768 0.960 . S
C2756 H2769 0.962 . S
C2756 H2770 0.960 . S
C2757 C2754 1.511 . S
C2757 H2771 0.961 . S
C2757 H2772 0.961 . S
C2757 H2773 0.961 . S
C2758 C2759 1.370 . S
C2758 C2760 1.363 . S
C2758 H2774 0.931 . S
C2759 C2758 1.370 . S
C2759 C2763 1.408 . S
C2760 C2758 1.363 . S
C2760 C2761 1.370 . S
C2760 C2764 1.524 . S
C2761 C2753 1.503 . S
C2761 C2760 1.370 . S
C2761 C2762 1.403 . S
C2762 C2761 1.403 . S
C2762 C2763 1.404 . S
C2762 C2765 1.539 . S
C2763 C2759 1.408 . S
C2763 C2762 1.404 . S
C2763 H2775 0.930 . S
C2764 C2760 1.524 . S
C2764 H2776 0.956 . S
C2764 H2777 0.961 . S
C2764 H2778 0.961 . S
C2765 C2762 1.539 . S
C2765 H2779 0.958 . S
C2765 H2780 0.961 . S
C2765 H2781 0.960 . S
H2766 C2750 0.931 . S
H2767 C2755 0.929 . S
H2768 C2756 0.960 . S
H2769 C2756 0.962 . S
H2770 C2756 0.960 . S
H2771 C2757 0.961 . S
H2772 C2757 0.961 . S
H2773 C2757 0.961 . S
H2774 C2758 0.931 . S
H2775 C2763 0.930 . S
H2776 C2764 0.956 . S
H2777 C2764 0.961 . S
H2778 C2764 0.961 . S
H2779 C2765 0.958 . S
H2780 C2765 0.961 . S
H2781 C2765 0.960 . S
C2782 C2783 1.391 . S
C2782 C2784 1.394 . S
C2782 H2798 0.931 . S
C2783 C2782 1.391 . S
C2783 C2787 1.376 . S
C2784 C2782 1.394 . S
C2784 C2785 1.369 . S
C2784 C2788 1.531 . S
C2785 C2784 1.369 . S
C2785 C2786 1.410 . S
C2785 C2793 1.503 . S
C2786 C2785 1.410 . S
C2786 C2787 1.392 . S
C2786 C2789 1.511 . S
C2787 C2783 1.376 . S
C2787 C2786 1.392 . S
C2787 H2799 0.929 . S
C2788 C2784 1.531 . S
C2788 H2800 0.960 . S
C2788 H2801 0.962 . S
C2788 H2802 0.960 . S
C2789 C2786 1.511 . S
C2789 H2803 0.961 . S
C2789 H2804 0.961 . S
C2789 H2805 0.961 . S
C2790 C2791 1.370 . S
C2790 C2792 1.363 . S
C2790 H2806 0.931 . S
C2791 C2790 1.370 . S
C2791 C2795 1.408 . S
C2792 C2790 1.363 . S
C2792 C2793 1.370 . S
C2792 C2796 1.524 . S
C2793 C2785 1.503 . S
C2793 C2792 1.370 . S
C2793 C2794 1.403 . S
C2794 C2793 1.403 . S
C2794 C2795 1.404 . S
C2794 C2797 1.539 . S
C2795 C2791 1.408 . S
C2795 C2794 1.404 . S
C2795 H2807 0.930 . S
C2796 C2792 1.524 . S
C2796 H2808 0.956 . S
C2796 H2809 0.961 . S
C2796 H2810 0.961 . S
C2797 C2794 1.539 . S
C2797 H2811 0.958 . S
C2797 H2812 0.961 . S
C2797 H2813 0.960 . S
H2798 C2782 0.931 . S
H2799 C2787 0.929 . S
H2800 C2788 0.960 . S
H2801 C2788 0.962 . S
H2802 C2788 0.960 . S
H2803 C2789 0.961 . S
H2804 C2789 0.961 . S
H2805 C2789 0.961 . S
H2806 C2790 0.931 . S
H2807 C2795 0.930 . S
H2808 C2796 0.956 . S
H2809 C2796 0.961 . S
H2810 C2796 0.961 . S
H2811 C2797 0.958 . S
H2812 C2797 0.961 . S
H2813 C2797 0.960 . S
C2814 C2815 1.391 . S
C2814 C2816 1.394 . S
C2814 H2830 0.931 . S
C2815 C2814 1.391 . S
C2815 C2819 1.376 1_556 S
C2816 C2814 1.394 . S
C2816 C2817 1.369 . S
C2816 C2820 1.531 . S
C2817 C2816 1.369 . S
C2817 C2818 1.410 . S
C2817 C2825 1.503 . S
C2818 C2817 1.410 . S
C2818 C2819 1.392 1_556 S
C2818 C2821 1.511 1_556 S
C2819 C2815 1.376 1_554 S
C2819 C2818 1.392 1_554 S
C2819 H2831 0.929 . S
C2820 C2816 1.531 . S
C2820 H2832 0.960 . S
C2820 H2833 0.962 . S
C2820 H2834 0.960 . S
C2821 C2818 1.511 1_554 S
C2821 H2835 0.961 . S
C2821 H2836 0.923 1_554 S
C2821 H2837 0.961 . S
C2822 C2823 1.370 . S
C2822 C2824 1.363 . S
C2822 H2838 0.931 . S
C2823 C2822 1.370 . S
C2823 C2827 1.408 . S
C2824 C2822 1.363 . S
C2824 C2825 1.370 . S
C2824 C2828 1.524 . S
C2825 C2817 1.503 . S
C2825 C2824 1.370 . S
C2825 C2826 1.403 . S
C2826 C2825 1.403 . S
C2826 C2827 1.404 . S
C2826 C2829 1.539 . S
C2827 C2823 1.408 . S
C2827 C2826 1.404 . S
C2827 H2839 0.930 . S
C2828 C2824 1.524 . S
C2828 H2840 0.956 . S
C2828 H2841 0.961 . S
C2828 H2842 0.961 . S
C2829 C2826 1.539 . S
C2829 H2843 0.958 . S
C2829 H2844 0.961 . S
C2829 H2845 0.960 . S
H2830 C2814 0.931 . S
H2831 C2819 0.929 . S
H2832 C2820 0.960 . S
H2833 C2820 0.962 . S
H2834 C2820 0.960 . S
H2835 C2821 0.961 . S
H2836 C2821 0.923 1_556 S
H2837 C2821 0.961 . S
H2838 C2822 0.931 . S
H2839 C2827 0.930 . S
H2840 C2828 0.956 . S
H2841 C2828 0.961 . S
H2842 C2828 0.961 . S
H2843 C2829 0.958 . S
H2844 C2829 0.961 . S
H2845 C2829 0.960 . S
C2846 C2847 1.391 . S
C2846 C2848 1.394 . S
C2846 H2862 0.931 1_556 S
C2847 C2846 1.391 . S
C2847 C2851 1.376 . S
C2848 C2846 1.394 . S
C2848 C2849 1.369 . S
C2848 C2852 1.531 . S
C2849 C2848 1.369 . S
C2849 C2850 1.410 . S
C2849 C2857 1.503 . S
C2850 C2849 1.410 . S
C2850 C2851 1.392 . S
C2850 C2853 1.511 . S
C2851 C2847 1.376 . S
C2851 C2850 1.392 . S
C2851 H2863 0.929 . S
C2852 C2848 1.531 . S
C2852 H2864 0.960 . S
C2852 H2865 0.962 . S
C2852 H2866 0.960 1_556 S
C2853 C2850 1.511 . S
C2853 H2867 0.961 . S
C2853 H2868 0.961 . S
C2853 H2869 0.961 . S
C2854 C2855 1.370 . S
C2854 C2856 1.363 . S
C2854 H2870 0.931 . S
C2855 C2854 1.370 . S
C2855 C2859 1.408 . S
C2856 C2854 1.363 . S
C2856 C2857 1.370 . S
C2856 C2860 1.524 . S
C2857 C2849 1.503 . S
C2857 C2856 1.370 . S
C2857 C2858 1.403 . S
C2858 C2857 1.403 . S
C2858 C2859 1.404 . S
C2858 C2861 1.539 . S
C2859 C2855 1.408 . S
C2859 C2858 1.404 . S
C2859 H2871 0.930 . S
C2860 C2856 1.524 . S
C2860 H2872 0.956 . S
C2860 H2873 0.961 . S
C2860 H2874 0.961 . S
C2861 C2858 1.539 . S
C2861 H2875 0.958 . S
C2861 H2876 0.961 . S
C2861 H2877 0.960 . S
H2862 C2846 0.931 1_554 S
H2863 C2851 0.929 . S
H2864 C2852 0.960 . S
H2865 C2852 0.962 . S
H2866 C2852 0.960 1_554 S
H2867 C2853 0.961 . S
H2868 C2853 0.961 . S
H2869 C2853 0.961 . S
H2870 C2854 0.931 . S
H2871 C2859 0.930 . S
H2872 C2860 0.956 . S
H2873 C2860 0.961 . S
H2874 C2860 0.961 . S
H2875 C2861 0.958 . S
H2876 C2861 0.961 . S
H2877 C2861 0.960 . S
C2878 C2879 1.391 . S
C2878 C2880 1.394 . S
C2878 H2894 0.931 . S
C2879 C2878 1.391 . S
C2879 C2883 1.376 . S
C2880 C2878 1.394 . S
C2880 C2881 1.409 . S
C2880 C2884 1.531 . S
C2881 C2880 1.409 . S
C2881 C2882 1.408 1_554 S
C2881 C2889 1.471 1_554 S
C2882 C2881 1.408 1_556 S
C2882 C2883 1.393 1_556 S
C2882 C2885 1.511 . S
C2883 C2879 1.376 . S
C2883 C2882 1.393 1_554 S
C2883 H2895 0.929 . S
C2884 C2880 1.531 . S
C2884 H2896 0.960 . S
C2884 H2897 0.962 . S
C2884 H2898 0.960 . S
C2885 C2882 1.511 . S
C2885 H2899 0.961 . S
C2885 H2900 0.961 . S
C2885 H2901 0.961 . S
C2886 C2887 1.370 . S
C2886 C2888 1.397 . S
C2886 H2902 0.931 . S
C2887 C2886 1.370 . S
C2887 C2891 1.408 . S
C2888 C2886 1.397 . S
C2888 C2889 1.393 . S
C2888 C2892 1.469 1_556 S
C2889 C2881 1.471 1_556 S
C2889 C2888 1.393 . S
C2889 C2890 1.403 . S
C2890 C2889 1.403 . S
C2890 C2891 1.404 . S
C2890 C2893 1.539 . S
C2891 C2887 1.408 . S
C2891 C2890 1.404 . S
C2891 H2903 0.930 . S
C2892 C2888 1.469 1_554 S
C2892 H2904 0.956 . S
C2892 H2905 0.961 . S
C2892 H2906 0.961 . S
C2893 C2890 1.539 . S
C2893 H2907 0.958 . S
C2893 H2908 0.961 . S
C2893 H2909 0.960 . S
H2894 C2878 0.931 . S
H2895 C2883 0.929 . S
H2896 C2884 0.960 . S
H2897 C2884 0.962 . S
H2898 C2884 0.960 . S
H2899 C2885 0.961 . S
H2900 C2885 0.961 . S
H2901 C2885 0.961 . S
H2902 C2886 0.931 . S
H2903 C2891 0.930 . S
H2904 C2892 0.956 . S
H2905 C2892 0.961 . S
H2906 C2892 0.961 . S
H2907 C2893 0.958 . S
H2908 C2893 0.961 . S
H2909 C2893 0.960 . S
C2910 C2911 1.341 1_556 S
C2910 C2912 1.394 . S
C2910 H2926 0.931 . S
C2911 C2910 1.341 1_554 S
C2911 C2915 1.397 . S
C2912 C2910 1.394 . S
C2912 C2913 1.369 . S
C2912 C2916 1.531 . S
C2913 C2912 1.369 . S
C2913 C2914 1.410 . S
C2913 C2921 1.503 . S
C2914 C2913 1.410 . S
C2914 C2915 1.392 1_556 S
C2914 C2917 1.511 1_556 S
C2915 C2911 1.397 . S
C2915 C2914 1.392 1_554 S
C2915 H2927 0.929 . S
C2916 C2912 1.531 . S
C2916 H2928 0.960 . S
C2916 H2929 0.962 . S
C2916 H2930 0.960 . S
C2917 C2914 1.511 1_554 S
C2917 H2931 0.961 . S
C2917 H2932 0.961 1_554 S
C2917 H2933 0.961 . S
C2918 C2919 1.370 . S
C2918 C2920 1.363 . S
C2918 H2934 0.931 . S
C2919 C2918 1.370 . S
C2919 C2923 1.408 . S
C2920 C2918 1.363 . S
C2920 C2921 1.370 . S
C2920 C2924 1.524 . S
C2921 C2913 1.503 . S
C2921 C2920 1.370 . S
C2921 C2922 1.403 . S
C2922 C2921 1.403 . S
C2922 C2923 1.404 . S
C2922 C2925 1.539 . S
C2923 C2919 1.408 . S
C2923 C2922 1.404 . S
C2923 H2935 0.930 . S
C2924 C2920 1.524 . S
C2924 H2936 0.956 . S
C2924 H2937 0.961 . S
C2924 H2938 0.961 . S
C2925 C2922 1.539 . S
C2925 H2939 0.958 . S
C2925 H2940 0.961 . S
C2925 H2941 0.960 . S
H2926 C2910 0.931 . S
H2927 C2915 0.929 . S
H2928 C2916 0.960 . S
H2929 C2916 0.962 . S
H2930 C2916 0.960 . S
H2931 C2917 0.961 . S
H2932 C2917 0.961 1_556 S
H2933 C2917 0.961 . S
H2934 C2918 0.931 . S
H2935 C2923 0.930 . S
H2936 C2924 0.956 . S
H2937 C2924 0.961 . S
H2938 C2924 0.961 . S
H2939 C2925 0.958 . S
H2940 C2925 0.961 . S
H2941 C2925 0.960 . S
C2942 C2943 1.391 . S
C2942 C2944 1.394 . S
C2942 H2958 0.931 . S
C2943 C2942 1.391 . S
C2943 C2947 1.376 . S
C2944 C2942 1.394 . S
C2944 C2945 1.369 . S
C2944 C2948 1.531 . S
C2945 C2944 1.369 . S
C2945 C2946 1.410 . S
C2945 C2953 1.503 . S
C2946 C2945 1.410 . S
C2946 C2947 1.392 . S
C2946 C2949 1.511 . S
C2947 C2943 1.376 . S
C2947 C2946 1.392 . S
C2947 H2959 0.929 . S
C2948 C2944 1.531 . S
C2948 H2960 0.960 . S
C2948 H2961 0.962 . S
C2948 H2962 0.960 . S
C2949 C2946 1.511 . S
C2949 H2963 0.961 . S
C2949 H2964 0.961 . S
C2949 H2965 0.961 . S
C2950 C2951 1.370 . S
C2950 C2952 1.363 . S
C2950 H2966 0.931 . S
C2951 C2950 1.370 . S
C2951 C2955 1.408 . S
C2952 C2950 1.363 . S
C2952 C2953 1.370 . S
C2952 C2956 1.524 . S
C2953 C2945 1.503 . S
C2953 C2952 1.370 . S
C2953 C2954 1.403 . S
C2954 C2953 1.403 . S
C2954 C2955 1.404 . S
C2954 C2957 1.539 . S
C2955 C2951 1.408 . S
C2955 C2954 1.404 . S
C2955 H2967 0.930 . S
C2956 C2952 1.524 . S
C2956 H2968 0.956 . S
C2956 H2969 0.961 . S
C2956 H2970 0.961 . S
C2957 C2954 1.539 . S
C2957 H2971 0.958 . S
C2957 H2972 0.961 . S
C2957 H2973 0.960 . S
H2958 C2942 0.931 . S
H2959 C2947 0.929 . S
H2960 C2948 0.960 . S
H2961 C2948 0.962 . S
H2962 C2948 0.960 . S
H2963 C2949 0.961 . S
H2964 C2949 0.961 . S
H2965 C2949 0.961 . S
H2966 C2950 0.931 . S
H2967 C2955 0.930 . S
H2968 C2956 0.956 . S
H2969 C2956 0.961 . S
H2970 C2956 0.961 . S
H2971 C2957 0.958 . S
H2972 C2957 0.961 . S
H2973 C2957 0.960 . S
C2974 C2975 1.391 . S
C2974 C2976 1.394 . S
C2974 H2990 0.931 . S
C2975 C2974 1.391 . S
C2975 C2979 1.376 1_554 S
C2976 C2974 1.394 . S
C2976 C2977 1.369 1_554 S
C2976 C2980 1.531 . S
C2977 C2976 1.369 1_556 S
C2977 C2978 1.410 . S
C2977 C2985 1.503 . S
C2978 C2977 1.410 . S
C2978 C2979 1.392 . S
C2978 C2981 1.511 . S
C2979 C2975 1.376 1_556 S
C2979 C2978 1.392 . S
C2979 H2991 0.929 . S
C2980 C2976 1.531 . S
C2980 H2992 0.960 . S
C2980 H2993 0.962 . S
C2980 H2994 0.960 . S
C2981 C2978 1.511 . S
C2981 H2995 0.961 . S
C2981 H2996 0.961 . S
C2981 H2997 0.961 . S
C2982 C2983 1.370 . S
C2982 C2984 1.363 . S
C2982 H2998 0.931 . S
C2983 C2982 1.370 . S
C2983 C2987 1.408 . S
C2984 C2982 1.363 . S
C2984 C2985 1.370 . S
C2984 C2988 1.524 . S
C2985 C2977 1.503 . S
C2985 C2984 1.370 . S
C2985 C2986 1.403 . S
C2986 C2985 1.403 . S
C2986 C2987 1.404 . S
C2986 C2989 1.539 . S
C2987 C2983 1.408 . S
C2987 C2986 1.404 . S
C2987 H2999 0.930 . S
C2988 C2984 1.524 . S
C2988 H3000 0.956 . S
C2988 H3001 0.961 . S
C2988 H3002 0.961 . S
C2989 C2986 1.539 . S
C2989 H3003 0.958 1_556 S
C2989 H3004 0.961 . S
C2989 H3005 0.960 . S
H2990 C2974 0.931 . S
H2991 C2979 0.929 . S
H2992 C2980 0.960 . S
H2993 C2980 0.962 . S
H2994 C2980 0.960 . S
H2995 C2981 0.961 . S
H2996 C2981 0.961 . S
H2997 C2981 0.961 . S
H2998 C2982 0.931 . S
H2999 C2987 0.930 . S
H3000 C2988 0.956 . S
H3001 C2988 0.961 . S
H3002 C2988 0.961 . S
H3003 C2989 0.958 1_554 S
H3004 C2989 0.961 . S
H3005 C2989 0.960 . S
C3006 C3007 1.391 . S
C3006 C3008 1.394 . S
C3006 H3022 0.931 . S
C3007 C3006 1.391 . S
C3007 C3011 1.376 . S
C3008 C3006 1.394 . S
C3008 C3009 1.369 . S
C3008 C3012 1.531 . S
C3009 C3008 1.369 . S
C3009 C3010 1.410 . S
C3009 C3017 1.503 . S
C3010 C3009 1.410 . S
C3010 C3011 1.392 . S
C3010 C3013 1.511 . S
C3011 C3007 1.376 . S
C3011 C3010 1.392 . S
C3011 H3023 0.929 . S
C3012 C3008 1.531 . S
C3012 H3024 0.960 . S
C3012 H3025 0.962 . S
C3012 H3026 0.960 . S
C3013 C3010 1.511 . S
C3013 H3027 0.961 . S
C3013 H3028 0.961 . S
C3013 H3029 0.961 . S
C3014 C3015 1.370 . S
C3014 C3016 1.363 . S
C3014 H3030 0.931 . S
C3015 C3014 1.370 . S
C3015 C3019 1.408 . S
C3016 C3014 1.363 . S
C3016 C3017 1.370 . S
C3016 C3020 1.524 . S
C3017 C3009 1.503 . S
C3017 C3016 1.370 . S
C3017 C3018 1.403 . S
C3018 C3017 1.403 . S
C3018 C3019 1.404 . S
C3018 C3021 1.539 . S
C3019 C3015 1.408 . S
C3019 C3018 1.404 . S
C3019 H3031 0.930 . S
C3020 C3016 1.524 . S
C3020 H3032 0.956 . S
C3020 H3033 0.961 . S
C3020 H3034 0.961 . S
C3021 C3018 1.539 . S
C3021 H3035 0.958 . S
C3021 H3036 0.961 . S
C3021 H3037 0.960 . S
H3022 C3006 0.931 . S
H3023 C3011 0.929 . S
H3024 C3012 0.960 . S
H3025 C3012 0.962 . S
H3026 C3012 0.960 . S
H3027 C3013 0.961 . S
H3028 C3013 0.961 . S
H3029 C3013 0.961 . S
H3030 C3014 0.931 . S
H3031 C3019 0.930 . S
H3032 C3020 0.956 . S
H3033 C3020 0.961 . S
H3034 C3020 0.961 . S
H3035 C3021 0.958 . S
H3036 C3021 0.961 . S
H3037 C3021 0.960 . S
C3038 C3039 1.391 . S
C3038 C3040 1.394 . S
C3038 H3054 0.931 . S
C3039 C3038 1.391 . S
C3039 C3043 1.376 . S
C3040 C3038 1.394 . S
C3040 C3041 1.369 . S
C3040 C3044 1.531 . S
C3041 C3040 1.369 . S
C3041 C3042 1.410 . S
C3041 C3049 1.503 . S
C3042 C3041 1.410 . S
C3042 C3043 1.392 . S
C3042 C3045 1.511 . S
C3043 C3039 1.376 . S
C3043 C3042 1.392 . S
C3043 H3055 0.929 . S
C3044 C3040 1.531 . S
C3044 H3056 0.960 . S
C3044 H3057 0.962 . S
C3044 H3058 0.960 . S
C3045 C3042 1.511 . S
C3045 H3059 0.961 . S
C3045 H3060 0.961 . S
C3045 H3061 0.961 . S
C3046 C3047 1.370 . S
C3046 C3048 1.363 . S
C3046 H3062 0.931 . S
C3047 C3046 1.370 . S
C3047 C3051 1.408 . S
C3048 C3046 1.363 . S
C3048 C3049 1.370 . S
C3048 C3052 1.524 . S
C3049 C3041 1.503 . S
C3049 C3048 1.370 . S
C3049 C3050 1.403 . S
C3050 C3049 1.403 . S
C3050 C3051 1.404 . S
C3050 C3053 1.539 . S
C3051 C3047 1.408 . S
C3051 C3050 1.404 . S
C3051 H3063 0.930 . S
C3052 C3048 1.524 . S
C3052 H3064 0.956 . S
C3052 H3065 0.961 . S
C3052 H3066 0.961 . S
C3053 C3050 1.539 . S
C3053 H3067 0.958 . S
C3053 H3068 0.961 . S
C3053 H3069 0.960 . S
H3054 C3038 0.931 . S
H3055 C3043 0.929 . S
H3056 C3044 0.960 . S
H3057 C3044 0.962 . S
H3058 C3044 0.960 . S
H3059 C3045 0.961 . S
H3060 C3045 0.961 . S
H3061 C3045 0.961 . S
H3062 C3046 0.931 . S
H3063 C3051 0.930 . S
H3064 C3052 0.956 . S
H3065 C3052 0.961 . S
H3066 C3052 0.961 . S
H3067 C3053 0.958 . S
H3068 C3053 0.961 . S
H3069 C3053 0.960 . S
C3070 C3071 1.391 . S
C3070 C3072 1.394 . S
C3070 H3086 0.931 . S
C3071 C3070 1.391 . S
C3071 C3075 1.376 . S
C3072 C3070 1.394 . S
C3072 C3073 1.369 . S
C3072 C3076 1.531 . S
C3073 C3072 1.369 . S
C3073 C3074 1.410 . S
C3073 C3081 1.503 . S
C3074 C3073 1.410 . S
C3074 C3075 1.392 . S
C3074 C3077 1.511 . S
C3075 C3071 1.376 . S
C3075 C3074 1.392 . S
C3075 H3087 0.929 . S
C3076 C3072 1.531 . S
C3076 H3088 0.960 . S
C3076 H3089 0.962 . S
C3076 H3090 0.960 . S
C3077 C3074 1.511 . S
C3077 H3091 0.961 . S
C3077 H3092 0.961 . S
C3077 H3093 0.961 . S
C3078 C3079 1.370 . S
C3078 C3080 1.363 . S
C3078 H3094 0.931 . S
C3079 C3078 1.370 . S
C3079 C3083 1.408 . S
C3080 C3078 1.363 . S
C3080 C3081 1.370 . S
C3080 C3084 1.524 . S
C3081 C3073 1.503 . S
C3081 C3080 1.370 . S
C3081 C3082 1.403 . S
C3082 C3081 1.403 . S
C3082 C3083 1.404 . S
C3082 C3085 1.539 . S
C3083 C3079 1.408 . S
C3083 C3082 1.404 . S
C3083 H3095 0.930 . S
C3084 C3080 1.524 . S
C3084 H3096 0.956 . S
C3084 H3097 0.961 . S
C3084 H3098 0.961 . S
C3085 C3082 1.539 . S
C3085 H3099 0.958 . S
C3085 H3100 0.961 . S
C3085 H3101 0.960 . S
H3086 C3070 0.931 . S
H3087 C3075 0.929 . S
H3088 C3076 0.960 . S
H3089 C3076 0.962 . S
H3090 C3076 0.960 . S
H3091 C3077 0.961 . S
H3092 C3077 0.961 . S
H3093 C3077 0.961 . S
H3094 C3078 0.931 . S
H3095 C3083 0.930 . S
H3096 C3084 0.956 . S
H3097 C3084 0.961 . S
H3098 C3084 0.961 . S
H3099 C3085 0.958 . S
H3100 C3085 0.961 . S
H3101 C3085 0.960 . S
C3102 C3103 1.391 . S
C3102 C3104 1.394 . S
C3102 H3118 0.931 . S
C3103 C3102 1.391 . S
C3103 C3107 1.376 . S
C3104 C3102 1.394 . S
C3104 C3105 1.369 . S
C3104 C3108 1.531 . S
C3105 C3104 1.369 . S
C3105 C3106 1.410 . S
C3105 C3113 1.503 . S
C3106 C3105 1.410 . S
C3106 C3107 1.392 . S
C3106 C3109 1.511 . S
C3107 C3103 1.376 . S
C3107 C3106 1.392 . S
C3107 H3119 0.929 . S
C3108 C3104 1.531 . S
C3108 H3120 0.960 . S
C3108 H3121 0.962 . S
C3108 H3122 0.960 . S
C3109 C3106 1.511 . S
C3109 H3123 0.961 . S
C3109 H3124 0.961 . S
C3109 H3125 0.961 . S
C3110 C3111 1.370 . S
C3110 C3112 1.363 . S
C3110 H3126 0.931 . S
C3111 C3110 1.370 . S
C3111 C3115 1.408 . S
C3112 C3110 1.363 . S
C3112 C3113 1.370 . S
C3112 C3116 1.524 . S
C3113 C3105 1.503 . S
C3113 C3112 1.370 . S
C3113 C3114 1.403 . S
C3114 C3113 1.403 . S
C3114 C3115 1.404 . S
C3114 C3117 1.539 . S
C3115 C3111 1.408 . S
C3115 C3114 1.404 . S
C3115 H3127 0.930 . S
C3116 C3112 1.524 . S
C3116 H3128 0.956 . S
C3116 H3129 0.961 . S
C3116 H3130 0.961 . S
C3117 C3114 1.539 . S
C3117 H3131 0.958 . S
C3117 H3132 0.961 . S
C3117 H3133 0.960 . S
H3118 C3102 0.931 . S
H3119 C3107 0.929 . S
H3120 C3108 0.960 . S
H3121 C3108 0.962 . S
H3122 C3108 0.960 . S
H3123 C3109 0.961 . S
H3124 C3109 0.961 . S
H3125 C3109 0.961 . S
H3126 C3110 0.931 . S
H3127 C3115 0.930 . S
H3128 C3116 0.956 . S
H3129 C3116 0.961 . S
H3130 C3116 0.961 . S
H3131 C3117 0.958 . S
H3132 C3117 0.961 . S
H3133 C3117 0.960 . S
C3134 C3135 1.391 . S
C3134 C3136 1.394 . S
C3134 H3150 0.931 . S
C3135 C3134 1.391 . S
C3135 C3139 1.376 . S
C3136 C3134 1.394 . S
C3136 C3137 1.369 . S
C3136 C3140 1.531 . S
C3137 C3136 1.369 . S
C3137 C3138 1.410 . S
C3137 C3145 1.503 . S
C3138 C3137 1.410 . S
C3138 C3139 1.392 . S
C3138 C3141 1.511 . S
C3139 C3135 1.376 . S
C3139 C3138 1.392 . S
C3139 H3151 0.929 1_545 S
C3140 C3136 1.531 . S
C3140 H3152 0.960 . S
C3140 H3153 0.962 . S
C3140 H3154 0.960 . S
C3141 C3138 1.511 . S
C3141 H3155 0.961 . S
C3141 H3156 0.961 . S
C3141 H3157 0.961 . S
C3142 C3143 1.370 . S
C3142 C3144 1.363 . S
C3142 H3158 0.931 . S
C3143 C3142 1.370 . S
C3143 C3147 1.408 . S
C3144 C3142 1.363 . S
C3144 C3145 1.370 . S
C3144 C3148 1.524 . S
C3145 C3137 1.503 . S
C3145 C3144 1.370 . S
C3145 C3146 1.403 . S
C3146 C3145 1.403 . S
C3146 C3147 1.404 . S
C3146 C3149 1.539 . S
C3147 C3143 1.408 . S
C3147 C3146 1.404 . S
C3147 H3159 0.930 . S
C3148 C3144 1.524 . S
C3148 H3160 0.956 . S
C3148 H3161 0.961 . S
C3148 H3162 0.961 . S
C3149 C3146 1.539 . S
C3149 H3163 0.958 . S
C3149 H3164 0.961 . S
C3149 H3165 0.960 . S
H3150 C3134 0.931 . S
H3151 C3139 0.929 1_565 S
H3152 C3140 0.960 . S
H3153 C3140 0.962 . S
H3154 C3140 0.960 . S
H3155 C3141 0.961 . S
H3156 C3141 0.961 . S
H3157 C3141 0.961 . S
H3158 C3142 0.931 . S
H3159 C3147 0.930 . S
H3160 C3148 0.956 . S
H3161 C3148 0.961 . S
H3162 C3148 0.961 . S
H3163 C3149 0.958 . S
H3164 C3149 0.961 . S
H3165 C3149 0.960 . S
C3166 C3167 1.391 1_655 S
C3166 C3168 1.394 . S
C3166 H3182 0.931 . S
C3167 C3166 1.391 1_455 S
C3167 C3171 1.376 1_455 S
C3168 C3166 1.394 . S
C3168 C3169 1.369 . S
C3168 C3172 1.531 . S
C3169 C3168 1.369 . S
C3169 C3170 1.410 . S
C3169 C3177 1.503 . S
C3170 C3169 1.410 . S
C3170 C3171 1.392 . S
C3170 C3173 1.511 . S
C3171 C3167 1.376 1_655 S
C3171 C3170 1.392 . S
C3171 H3183 0.929 1_655 S
C3172 C3168 1.531 . S
C3172 H3184 0.960 . S
C3172 H3185 0.962 . S
C3172 H3186 0.960 . S
C3173 C3170 1.511 . S
C3173 H3187 0.961 . S
C3173 H3188 0.961 . S
C3173 H3189 0.961 . S
C3174 C3175 1.370 . S
C3174 C3176 1.363 . S
C3174 H3190 0.931 . S
C3175 C3174 1.370 . S
C3175 C3179 1.408 . S
C3176 C3174 1.363 . S
C3176 C3177 1.370 . S
C3176 C3180 1.524 . S
C3177 C3169 1.503 . S
C3177 C3176 1.370 . S
C3177 C3178 1.403 . S
C3178 C3177 1.403 . S
C3178 C3179 1.404 . S
C3178 C3181 1.539 . S
C3179 C3175 1.408 . S
C3179 C3178 1.404 . S
C3179 H3191 0.930 . S
C3180 C3176 1.524 . S
C3180 H3192 0.956 . S
C3180 H3193 0.961 . S
C3180 H3194 0.961 . S
C3181 C3178 1.539 . S
C3181 H3195 0.958 . S
C3181 H3196 0.961 . S
C3181 H3197 0.960 . S
H3182 C3166 0.931 . S
H3183 C3171 0.929 1_455 S
H3184 C3172 0.960 . S
H3185 C3172 0.962 . S
H3186 C3172 0.960 . S
H3187 C3173 0.961 . S
H3188 C3173 0.961 . S
H3189 C3173 0.961 . S
H3190 C3174 0.931 . S
H3191 C3179 0.930 . S
H3192 C3180 0.956 . S
H3193 C3180 0.961 . S
H3194 C3180 0.961 . S
H3195 C3181 0.958 . S
H3196 C3181 0.961 . S
H3197 C3181 0.960 . S
C3198 C3199 1.391 . S
C3198 C3200 1.394 . S
C3198 H3214 0.931 . S
C3199 C3198 1.391 . S
C3199 C3203 1.376 . S
C3200 C3198 1.394 . S
C3200 C3201 1.369 . S
C3200 C3204 1.531 . S
C3201 C3200 1.369 . S
C3201 C3202 1.410 . S
C3201 C3209 1.503 . S
C3202 C3201 1.410 . S
C3202 C3203 1.392 . S
C3202 C3205 1.511 1_455 S
C3203 C3199 1.376 . S
C3203 C3202 1.392 . S
C3203 H3215 0.929 . S
C3204 C3200 1.531 . S
C3204 H3216 0.960 . S
C3204 H3217 0.962 . S
C3204 H3218 0.960 . S
C3205 C3202 1.511 1_655 S
C3205 H3219 0.961 . S
C3205 H3220 0.984 1_655 S
C3205 H3221 0.961 . S
C3206 C3207 1.370 . S
C3206 C3208 1.363 . S
C3206 H3222 0.931 . S
C3207 C3206 1.370 . S
C3207 C3211 1.408 . S
C3208 C3206 1.363 . S
C3208 C3209 1.370 . S
C3208 C3212 1.524 . S
C3209 C3201 1.503 . S
C3209 C3208 1.370 . S
C3209 C3210 1.403 . S
C3210 C3209 1.403 . S
C3210 C3211 1.404 . S
C3210 C3213 1.539 . S
C3211 C3207 1.408 . S
C3211 C3210 1.404 . S
C3211 H3223 0.930 . S
C3212 C3208 1.524 . S
C3212 H3224 0.956 . S
C3212 H3225 0.961 . S
C3212 H3226 0.961 . S
C3213 C3210 1.539 . S
C3213 H3227 0.958 . S
C3213 H3228 0.961 1_455 S
C3213 H3229 0.960 . S
H3214 C3198 0.931 . S
H3215 C3203 0.929 . S
H3216 C3204 0.960 . S
H3217 C3204 0.962 . S
H3218 C3204 0.960 . S
H3219 C3205 0.961 . S
H3220 C3205 0.984 1_455 S
H3221 C3205 0.961 . S
H3222 C3206 0.931 . S
H3223 C3211 0.930 . S
H3224 C3212 0.956 . S
H3225 C3212 0.961 . S
H3226 C3212 0.961 . S
H3227 C3213 0.958 . S
H3228 C3213 0.961 1_655 S
H3229 C3213 0.960 . S
C3230 C3231 1.391 . S
C3230 C3232 1.394 . S
C3230 H3246 0.931 . S
C3231 C3230 1.391 . S
C3231 C3235 1.376 . S
C3232 C3230 1.394 . S
C3232 C3233 1.369 . S
C3232 C3236 1.531 . S
C3233 C3232 1.369 . S
C3233 C3234 1.410 . S
C3233 C3241 1.503 . S
C3234 C3233 1.410 . S
C3234 C3235 1.392 . S
C3234 C3237 1.511 . S
C3235 C3231 1.376 . S
C3235 C3234 1.392 . S
C3235 H3247 0.929 . S
C3236 C3232 1.531 . S
C3236 H3248 0.960 . S
C3236 H3249 0.962 . S
C3236 H3250 0.960 . S
C3237 C3234 1.511 . S
C3237 H3251 0.961 . S
C3237 H3252 0.961 . S
C3237 H3253 0.961 . S
C3238 C3239 1.370 . S
C3238 C3240 1.363 . S
C3238 H3254 0.931 . S
C3239 C3238 1.370 . S
C3239 C3243 1.408 . S
C3240 C3238 1.363 . S
C3240 C3241 1.370 . S
C3240 C3244 1.524 . S
C3241 C3233 1.503 . S
C3241 C3240 1.370 . S
C3241 C3242 1.403 . S
C3242 C3241 1.403 . S
C3242 C3243 1.404 . S
C3242 C3245 1.539 . S
C3243 C3239 1.408 . S
C3243 C3242 1.404 . S
C3243 H3255 0.930 . S
C3244 C3240 1.524 . S
C3244 H3256 0.956 . S
C3244 H3257 0.961 . S
C3244 H3258 0.961 . S
C3245 C3242 1.539 . S
C3245 H3259 0.958 . S
C3245 H3260 0.961 . S
C3245 H3261 0.960 . S
H3246 C3230 0.931 . S
H3247 C3235 0.929 . S
H3248 C3236 0.960 . S
H3249 C3236 0.962 . S
H3250 C3236 0.960 . S
H3251 C3237 0.961 . S
H3252 C3237 0.961 . S
H3253 C3237 0.961 . S
H3254 C3238 0.931 . S
H3255 C3243 0.930 . S
H3256 C3244 0.956 . S
H3257 C3244 0.961 . S
H3258 C3244 0.961 . S
H3259 C3245 0.958 . S
H3260 C3245 0.961 . S
H3261 C3245 0.960 . S
C3262 C3263 1.391 . S
C3262 C3264 1.394 . S
C3262 H3278 0.931 . S
C3263 C3262 1.391 . S
C3263 C3267 1.376 . S
C3264 C3262 1.394 . S
C3264 C3265 1.369 . S
C3264 C3268 1.531 . S
C3265 C3264 1.369 . S
C3265 C3266 1.410 . S
C3265 C3273 1.503 . S
C3266 C3265 1.410 . S
C3266 C3267 1.392 . S
C3266 C3269 1.511 . S
C3267 C3263 1.376 . S
C3267 C3266 1.392 . S
C3267 H3279 0.929 . S
C3268 C3264 1.531 . S
C3268 H3280 0.960 . S
C3268 H3281 0.962 . S
C3268 H3282 0.960 . S
C3269 C3266 1.511 . S
C3269 H3283 0.961 . S
C3269 H3284 0.961 . S
C3269 H3285 0.961 . S
C3270 C3271 1.370 . S
C3270 C3272 1.363 . S
C3270 H3286 0.931 . S
C3271 C3270 1.370 . S
C3271 C3275 1.408 . S
C3272 C3270 1.363 . S
C3272 C3273 1.370 . S
C3272 C3276 1.524 . S
C3273 C3265 1.503 . S
C3273 C3272 1.370 . S
C3273 C3274 1.403 . S
C3274 C3273 1.403 . S
C3274 C3275 1.404 . S
C3274 C3277 1.539 1_565 S
C3275 C3271 1.408 . S
C3275 C3274 1.404 . S
C3275 H3287 0.930 1_565 S
C3276 C3272 1.524 . S
C3276 H3288 0.956 . S
C3276 H3289 0.961 . S
C3276 H3290 0.961 . S
C3277 C3274 1.539 1_545 S
C3277 H3291 0.958 . S
C3277 H3292 0.961 . S
C3277 H3293 0.960 . S
H3278 C3262 0.931 . S
H3279 C3267 0.929 . S
H3280 C3268 0.960 . S
H3281 C3268 0.962 . S
H3282 C3268 0.960 . S
H3283 C3269 0.961 . S
H3284 C3269 0.961 . S
H3285 C3269 0.961 . S
H3286 C3270 0.931 . S
H3287 C3275 0.930 1_545 S
H3288 C3276 0.956 . S
H3289 C3276 0.961 . S
H3290 C3276 0.961 . S
H3291 C3277 0.958 . S
H3292 C3277 0.961 . S
H3293 C3277 0.960 . S
C3294 C3295 1.391 . S
C3294 C3296 1.394 . S
C3294 H3310 0.931 . S
C3295 C3294 1.391 . S
C3295 C3299 1.376 . S
C3296 C3294 1.394 . S
C3296 C3297 1.369 . S
C3296 C3300 1.531 1_565 S
C3297 C3296 1.369 . S
C3297 C3298 1.410 . S
C3297 C3305 1.503 . S
C3298 C3297 1.410 . S
C3298 C3299 1.392 . S
C3298 C3301 1.511 . S
C3299 C3295 1.376 . S
C3299 C3298 1.392 . S
C3299 H3311 0.929 . S
C3300 C3296 1.531 1_545 S
C3300 H3312 0.960 . S
C3300 H3313 0.966 . S
C3300 H3314 0.960 . S
C3301 C3298 1.511 . S
C3301 H3315 0.961 . S
C3301 H3316 0.961 . S
C3301 H3317 0.961 . S
C3302 C3303 1.367 1_565 S
C3302 C3304 1.363 . S
C3302 H3318 0.931 . S
C3303 C3302 1.367 1_545 S
C3303 C3307 1.409 . S
C3304 C3302 1.363 . S
C3304 C3305 1.370 . S
C3304 C3308 1.524 . S
C3305 C3297 1.503 . S
C3305 C3304 1.370 . S
C3305 C3306 1.403 1_565 S
C3306 C3305 1.403 1_545 S
C3306 C3307 1.404 . S
C3306 C3309 1.539 . S
C3307 C3303 1.409 . S
C3307 C3306 1.404 . S
C3307 H3319 0.930 . S
C3308 C3304 1.524 . S
C3308 H3320 0.956 . S
C3308 H3321 0.961 . S
C3308 H3322 0.961 . S
C3309 C3306 1.539 . S
C3309 H3323 0.958 . S
C3309 H3324 0.961 . S
C3309 H3325 0.960 . S
H3310 C3294 0.931 . S
H3311 C3299 0.929 . S
H3312 C3300 0.960 . S
H3313 C3300 0.966 . S
H3314 C3300 0.960 . S
H3315 C3301 0.961 . S
H3316 C3301 0.961 . S
H3317 C3301 0.961 . S
H3318 C3302 0.931 . S
H3319 C3307 0.930 . S
H3320 C3308 0.956 . S
H3321 C3308 0.961 . S
H3322 C3308 0.961 . S
H3323 C3309 0.958 . S
H3324 C3309 0.961 . S
H3325 C3309 0.960 . S
C3326 C3327 1.391 . S
C3326 C3328 1.394 . S
C3326 H3342 0.931 . S
C3327 C3326 1.391 . S
C3327 C3331 1.376 . S
C3328 C3326 1.394 . S
C3328 C3329 1.369 . S
C3328 C3332 1.531 . S
C3329 C3328 1.369 . S
C3329 C3330 1.410 . S
C3329 C3337 1.503 . S
C3330 C3329 1.410 . S
C3330 C3331 1.392 . S
C3330 C3333 1.511 1_455 S
C3331 C3327 1.376 . S
C3331 C3330 1.392 . S
C3331 H3343 0.944 . S
C3332 C3328 1.531 . S
C3332 H3344 0.960 . S
C3332 H3345 0.962 . S
C3332 H3346 0.960 . S
C3333 C3330 1.511 1_655 S
C3333 H3347 0.961 . S
C3333 H3348 0.961 . S
C3333 H3349 0.961 . S
C3334 C3335 1.368 1_455 S
C3334 C3336 1.363 . S
C3334 H3350 0.931 . S
C3335 C3334 1.368 1_655 S
C3335 C3339 1.420 . S
C3336 C3334 1.363 . S
C3336 C3337 1.370 . S
C3336 C3340 1.524 . S
C3337 C3329 1.503 . S
C3337 C3336 1.370 . S
C3337 C3338 1.403 1_455 S
C3338 C3337 1.403 1_655 S
C3338 C3339 1.404 . S
C3338 C3341 1.538 . S
C3339 C3335 1.420 . S
C3339 C3338 1.404 . S
C3339 H3351 0.930 . S
C3340 C3336 1.524 . S
C3340 H3352 0.956 . S
C3340 H3353 0.961 . S
C3340 H3354 0.961 . S
C3341 C3338 1.538 . S
C3341 H3355 0.958 1_655 S
C3341 H3356 0.961 . S
C3341 H3357 0.960 . S
H3342 C3326 0.931 . S
H3343 C3331 0.944 . S
H3344 C3332 0.960 . S
H3345 C3332 0.962 . S
H3346 C3332 0.960 . S
H3347 C3333 0.961 . S
H3348 C3333 0.961 . S
H3349 C3333 0.961 . S
H3350 C3334 0.931 . S
H3351 C3339 0.930 . S
H3352 C3340 0.956 . S
H3353 C3340 0.961 . S
H3354 C3340 0.961 . S
H3355 C3341 0.958 1_455 S
H3356 C3341 0.961 . S
H3357 C3341 0.960 . S
C3358 C3359 1.391 . S
C3358 C3360 1.394 . S
C3358 H3374 0.931 . S
C3359 C3358 1.391 . S
C3359 C3363 1.376 . S
C3360 C3358 1.394 . S
C3360 C3361 1.369 . S
C3360 C3364 1.531 . S
C3361 C3360 1.369 . S
C3361 C3362 1.410 . S
C3361 C3369 1.503 . S
C3362 C3361 1.410 . S
C3362 C3363 1.392 . S
C3362 C3365 1.511 . S
C3363 C3359 1.376 . S
C3363 C3362 1.392 . S
C3363 H3375 0.929 . S
C3364 C3360 1.531 . S
C3364 H3376 0.960 . S
C3364 H3377 0.962 . S
C3364 H3378 0.960 . S
C3365 C3362 1.511 . S
C3365 H3379 0.961 . S
C3365 H3380 0.961 . S
C3365 H3381 0.961 . S
C3366 C3367 1.370 . S
C3366 C3368 1.363 . S
C3366 H3382 0.931 . S
C3367 C3366 1.370 . S
C3367 C3371 1.408 . S
C3368 C3366 1.363 . S
C3368 C3369 1.370 . S
C3368 C3372 1.524 . S
C3369 C3361 1.503 . S
C3369 C3368 1.370 . S
C3369 C3370 1.403 . S
C3370 C3369 1.403 . S
C3370 C3371 1.404 . S
C3370 C3373 1.539 . S
C3371 C3367 1.408 . S
C3371 C3370 1.404 . S
C3371 H3383 0.930 . S
C3372 C3368 1.524 . S
C3372 H3384 0.956 . S
C3372 H3385 0.961 . S
C3372 H3386 0.961 . S
C3373 C3370 1.539 . S
C3373 H3387 0.958 . S
C3373 H3388 0.961 . S
C3373 H3389 0.960 . S
H3374 C3358 0.931 . S
H3375 C3363 0.929 . S
H3376 C3364 0.960 . S
H3377 C3364 0.962 . S
H3378 C3364 0.960 . S
H3379 C3365 0.961 . S
H3380 C3365 0.961 . S
H3381 C3365 0.961 . S
H3382 C3366 0.931 . S
H3383 C3371 0.930 . S
H3384 C3372 0.956 . S
H3385 C3372 0.961 . S
H3386 C3372 0.961 . S
H3387 C3373 0.958 . S
H3388 C3373 0.961 . S
H3389 C3373 0.960 . S
C3390 C3391 1.391 . S
C3390 C3392 1.394 . S
C3390 H3406 0.931 . S
C3391 C3390 1.391 . S
C3391 C3395 1.376 . S
C3392 C3390 1.394 . S
C3392 C3393 1.369 . S
C3392 C3396 1.531 . S
C3393 C3392 1.369 . S
C3393 C3394 1.410 . S
C3393 C3401 1.503 . S
C3394 C3393 1.410 . S
C3394 C3395 1.392 . S
C3394 C3397 1.511 . S
C3395 C3391 1.376 . S
C3395 C3394 1.392 . S
C3395 H3407 0.929 . S
C3396 C3392 1.531 . S
C3396 H3408 0.960 . S
C3396 H3409 0.962 . S
C3396 H3410 0.960 . S
C3397 C3394 1.511 . S
C3397 H3411 0.961 . S
C3397 H3412 0.961 . S
C3397 H3413 0.961 . S
C3398 C3399 1.370 . S
C3398 C3400 1.363 . S
C3398 H3414 0.931 . S
C3399 C3398 1.370 . S
C3399 C3403 1.408 . S
C3400 C3398 1.363 . S
C3400 C3401 1.370 . S
C3400 C3404 1.524 . S
C3401 C3393 1.503 . S
C3401 C3400 1.370 . S
C3401 C3402 1.403 . S
C3402 C3401 1.403 . S
C3402 C3403 1.404 . S
C3402 C3405 1.539 . S
C3403 C3399 1.408 . S
C3403 C3402 1.404 . S
C3403 H3415 0.930 . S
C3404 C3400 1.524 . S
C3404 H3416 0.956 . S
C3404 H3417 0.961 . S
C3404 H3418 0.961 . S
C3405 C3402 1.539 . S
C3405 H3419 0.958 . S
C3405 H3420 0.961 . S
C3405 H3421 0.960 . S
H3406 C3390 0.931 . S
H3407 C3395 0.929 . S
H3408 C3396 0.960 . S
H3409 C3396 0.962 . S
H3410 C3396 0.960 . S
H3411 C3397 0.961 . S
H3412 C3397 0.961 . S
H3413 C3397 0.961 . S
H3414 C3398 0.931 . S
H3415 C3403 0.930 . S
H3416 C3404 0.956 . S
H3417 C3404 0.961 . S
H3418 C3404 0.961 . S
H3419 C3405 0.958 . S
H3420 C3405 0.961 . S
H3421 C3405 0.960 . S
C3422 C3423 1.391 . S
C3422 C3424 1.394 . S
C3422 H3438 0.931 . S
C3423 C3422 1.391 . S
C3423 C3427 1.376 . S
C3424 C3422 1.394 . S
C3424 C3425 1.369 . S
C3424 C3428 1.531 . S
C3425 C3424 1.369 . S
C3425 C3426 1.410 . S
C3425 C3433 1.503 . S
C3426 C3425 1.410 . S
C3426 C3427 1.392 . S
C3426 C3429 1.511 . S
C3427 C3423 1.376 . S
C3427 C3426 1.392 . S
C3427 H3439 0.929 . S
C3428 C3424 1.531 . S
C3428 H3440 0.960 . S
C3428 H3441 0.962 . S
C3428 H3442 0.960 . S
C3429 C3426 1.511 . S
C3429 H3443 0.961 . S
C3429 H3444 0.961 . S
C3429 H3445 0.961 . S
C3430 C3431 1.370 . S
C3430 C3432 1.363 . S
C3430 H3446 0.931 . S
C3431 C3430 1.370 . S
C3431 C3435 1.408 . S
C3432 C3430 1.363 . S
C3432 C3433 1.370 . S
C3432 C3436 1.524 . S
C3433 C3425 1.503 . S
C3433 C3432 1.370 . S
C3433 C3434 1.403 . S
C3434 C3433 1.403 . S
C3434 C3435 1.404 . S
C3434 C3437 1.539 . S
C3435 C3431 1.408 . S
C3435 C3434 1.404 . S
C3435 H3447 0.930 . S
C3436 C3432 1.524 . S
C3436 H3448 0.956 . S
C3436 H3449 0.961 . S
C3436 H3450 0.961 . S
C3437 C3434 1.539 . S
C3437 H3451 0.958 . S
C3437 H3452 0.961 . S
C3437 H3453 0.960 . S
H3438 C3422 0.931 . S
H3439 C3427 0.929 . S
H3440 C3428 0.960 . S
H3441 C3428 0.962 . S
H3442 C3428 0.960 . S
H3443 C3429 0.961 . S
H3444 C3429 0.961 . S
H3445 C3429 0.961 . S
H3446 C3430 0.931 . S
H3447 C3435 0.930 . S
H3448 C3436 0.956 . S
H3449 C3436 0.961 . S
H3450 C3436 0.961 . S
H3451 C3437 0.958 . S
H3452 C3437 0.961 . S
H3453 C3437 0.960 . S
C3454 C3455 1.391 . S
C3454 C3456 1.394 . S
C3454 H3470 0.953 . S
C3455 C3454 1.391 . S
C3455 C3459 1.376 . S
C3456 C3454 1.394 . S
C3456 C3457 1.369 . S
C3456 C3460 1.531 . S
C3457 C3456 1.369 . S
C3457 C3458 1.410 . S
C3457 C3465 1.503 . S
C3458 C3457 1.410 . S
C3458 C3459 1.392 . S
C3458 C3461 1.511 . S
C3459 C3455 1.376 . S
C3459 C3458 1.392 . S
C3459 H3471 0.929 . S
C3460 C3456 1.531 . S
C3460 H3472 0.960 . S
C3460 H3473 0.962 . S
C3460 H3474 0.960 . S
C3461 C3458 1.511 . S
C3461 H3475 0.961 . S
C3461 H3476 0.961 . S
C3461 H3477 0.961 . S
C3462 C3463 1.370 . S
C3462 C3464 1.363 . S
C3462 H3478 0.931 . S
C3463 C3462 1.370 . S
C3463 C3467 1.408 . S
C3464 C3462 1.363 . S
C3464 C3465 1.370 . S
C3464 C3468 1.524 . S
C3465 C3457 1.503 . S
C3465 C3464 1.370 . S
C3465 C3466 1.403 . S
C3466 C3465 1.403 . S
C3466 C3467 1.404 . S
C3466 C3469 1.539 . S
C3467 C3463 1.408 . S
C3467 C3466 1.404 . S
C3467 H3479 0.930 . S
C3468 C3464 1.524 . S
C3468 H3480 0.956 . S
C3468 H3481 0.961 . S
C3468 H3482 0.961 . S
C3469 C3466 1.539 . S
C3469 H3483 0.958 . S
C3469 H3484 0.961 . S
C3469 H3485 0.960 . S
H3470 C3454 0.953 . S
H3471 C3459 0.929 . S
H3472 C3460 0.960 . S
H3473 C3460 0.962 . S
H3474 C3460 0.960 . S
H3475 C3461 0.961 . S
H3476 C3461 0.961 . S
H3477 C3461 0.961 . S
H3478 C3462 0.931 . S
H3479 C3467 0.930 . S
H3480 C3468 0.956 . S
H3481 C3468 0.961 . S
H3482 C3468 0.961 . S
H3483 C3469 0.958 . S
H3484 C3469 0.961 . S
H3485 C3469 0.960 . S
C3486 C3487 1.391 . S
C3486 C3488 1.394 . S
C3486 H3502 0.931 . S
C3487 C3486 1.391 . S
C3487 C3491 1.376 . S
C3488 C3486 1.394 . S
C3488 C3489 1.369 . S
C3488 C3492 1.531 . S
C3489 C3488 1.369 . S
C3489 C3490 1.410 . S
C3489 C3497 1.503 . S
C3490 C3489 1.410 . S
C3490 C3491 1.392 . S
C3490 C3493 1.511 . S
C3491 C3487 1.376 . S
C3491 C3490 1.392 . S
C3491 H3503 0.929 . S
C3492 C3488 1.531 . S
C3492 H3504 0.960 . S
C3492 H3505 0.962 . S
C3492 H3506 0.960 . S
C3493 C3490 1.511 . S
C3493 H3507 0.970 . S
C3493 H3508 0.961 . S
C3493 H3509 0.961 . S
C3494 C3495 1.393 . S
C3494 C3496 1.395 . S
C3494 H3510 0.877 1_545 S
C3495 C3494 1.393 . S
C3495 C3499 1.408 . S
C3496 C3494 1.395 . S
C3496 C3497 1.370 . S
C3496 C3500 1.524 1_545 S
C3497 C3489 1.503 . S
C3497 C3496 1.370 . S
C3497 C3498 1.403 . S
C3498 C3497 1.403 . S
C3498 C3499 1.404 . S
C3498 C3501 1.539 . S
C3499 C3495 1.408 . S
C3499 C3498 1.404 . S
C3499 H3511 0.930 . S
C3500 C3496 1.524 1_565 S
C3500 H3512 0.956 . S
C3500 H3513 0.961 . S
C3500 H3514 0.961 . S
C3501 C3498 1.539 . S
C3501 H3515 0.958 . S
C3501 H3516 0.961 . S
C3501 H3517 0.960 . S
H3502 C3486 0.931 . S
H3503 C3491 0.929 . S
H3504 C3492 0.960 . S
H3505 C3492 0.962 . S
H3506 C3492 0.960 . S
H3507 C3493 0.970 . S
H3508 C3493 0.961 . S
H3509 C3493 0.961 . S
H3510 C3494 0.877 1_565 S
H3511 C3499 0.930 . S
H3512 C3500 0.956 . S
H3513 C3500 0.961 . S
H3514 C3500 0.961 . S
H3515 C3501 0.958 . S
H3516 C3501 0.961 . S
H3517 C3501 0.960 . S
C3518 C3519 1.391 . S
C3518 C3520 1.394 . S
C3518 H3534 0.931 . S
C3519 C3518 1.391 . S
C3519 C3523 1.376 . S
C3520 C3518 1.394 . S
C3520 C3521 1.369 . S
C3520 C3524 1.531 . S
C3521 C3520 1.369 . S
C3521 C3522 1.410 . S
C3521 C3529 1.503 . S
C3522 C3521 1.410 . S
C3522 C3523 1.392 . S
C3522 C3525 1.511 . S
C3523 C3519 1.376 . S
C3523 C3522 1.392 . S
C3523 H3535 0.929 . S
C3524 C3520 1.531 . S
C3524 H3536 0.960 . S
C3524 H3537 0.962 . S
C3524 H3538 0.960 . S
C3525 C3522 1.511 . S
C3525 H3539 0.961 . S
C3525 H3540 0.961 . S
C3525 H3541 0.961 1_655 S
C3526 C3527 1.370 . S
C3526 C3528 1.363 . S
C3526 H3542 0.931 . S
C3527 C3526 1.370 . S
C3527 C3531 1.408 1_655 S
C3528 C3526 1.363 . S
C3528 C3529 1.370 . S
C3528 C3532 1.524 . S
C3529 C3521 1.503 . S
C3529 C3528 1.370 . S
C3529 C3530 1.403 1_655 S
C3530 C3529 1.403 1_455 S
C3530 C3531 1.404 . S
C3530 C3533 1.539 . S
C3531 C3527 1.408 1_455 S
C3531 C3530 1.404 . S
C3531 H3543 0.930 . S
C3532 C3528 1.524 . S
C3532 H3544 0.956 . S
C3532 H3545 0.961 . S
C3532 H3546 0.961 . S
C3533 C3530 1.539 . S
C3533 H3547 0.958 . S
C3533 H3548 0.961 . S
C3533 H3549 0.960 . S
H3534 C3518 0.931 . S
H3535 C3523 0.929 . S
H3536 C3524 0.960 . S
H3537 C3524 0.962 . S
H3538 C3524 0.960 . S
H3539 C3525 0.961 . S
H3540 C3525 0.961 . S
H3541 C3525 0.961 1_455 S
H3542 C3526 0.931 . S
H3543 C3531 0.930 . S
H3544 C3532 0.956 . S
H3545 C3532 0.961 . S
H3546 C3532 0.961 . S
H3547 C3533 0.958 . S
H3548 C3533 0.961 . S
H3549 C3533 0.960 . S
C3550 C3551 1.391 . S
C3550 C3552 1.394 . S
C3550 H3566 0.931 . S
C3551 C3550 1.391 . S
C3551 C3555 1.376 . S
C3552 C3550 1.394 . S
C3552 C3553 1.369 . S
C3552 C3556 1.531 . S
C3553 C3552 1.369 . S
C3553 C3554 1.410 . S
C3553 C3561 1.503 . S
C3554 C3553 1.410 . S
C3554 C3555 1.392 . S
C3554 C3557 1.511 . S
C3555 C3551 1.376 . S
C3555 C3554 1.392 . S
C3555 H3567 0.929 . S
C3556 C3552 1.531 . S
C3556 H3568 0.960 . S
C3556 H3569 0.962 . S
C3556 H3570 0.960 . S
C3557 C3554 1.511 . S
C3557 H3571 0.961 . S
C3557 H3572 0.961 . S
C3557 H3573 0.961 . S
C3558 C3559 1.370 . S
C3558 C3560 1.363 . S
C3558 H3574 0.931 . S
C3559 C3558 1.370 . S
C3559 C3563 1.408 . S
C3560 C3558 1.363 . S
C3560 C3561 1.370 . S
C3560 C3564 1.524 . S
C3561 C3553 1.503 . S
C3561 C3560 1.370 . S
C3561 C3562 1.403 . S
C3562 C3561 1.403 . S
C3562 C3563 1.404 . S
C3562 C3565 1.539 . S
C3563 C3559 1.408 . S
C3563 C3562 1.404 . S
C3563 H3575 0.930 . S
C3564 C3560 1.524 . S
C3564 H3576 0.956 . S
C3564 H3577 0.961 . S
C3564 H3578 0.961 . S
C3565 C3562 1.539 . S
C3565 H3579 0.958 . S
C3565 H3580 0.961 . S
C3565 H3581 0.960 . S
H3566 C3550 0.931 . S
H3567 C3555 0.929 . S
H3568 C3556 0.960 . S
H3569 C3556 0.962 . S
H3570 C3556 0.960 . S
H3571 C3557 0.961 . S
H3572 C3557 0.961 . S
H3573 C3557 0.961 . S
H3574 C3558 0.931 . S
H3575 C3563 0.930 . S
H3576 C3564 0.956 . S
H3577 C3564 0.961 . S
H3578 C3564 0.961 . S
H3579 C3565 0.958 . S
H3580 C3565 0.961 . S
H3581 C3565 0.960 . S
C3582 C3583 1.391 . S
C3582 C3584 1.394 . S
C3582 H3598 0.931 . S
C3583 C3582 1.391 . S
C3583 C3587 1.376 . S
C3584 C3582 1.394 . S
C3584 C3585 1.369 . S
C3584 C3588 1.531 . S
C3585 C3584 1.369 . S
C3585 C3586 1.410 . S
C3585 C3593 1.503 . S
C3586 C3585 1.410 . S
C3586 C3587 1.392 . S
C3586 C3589 1.511 . S
C3587 C3583 1.376 . S
C3587 C3586 1.392 . S
C3587 H3599 0.929 . S
C3588 C3584 1.531 . S
C3588 H3600 0.960 . S
C3588 H3601 0.962 . S
C3588 H3602 0.960 . S
C3589 C3586 1.511 . S
C3589 H3603 0.961 . S
C3589 H3604 0.961 . S
C3589 H3605 0.961 . S
C3590 C3591 1.370 . S
C3590 C3592 1.363 . S
C3590 H3606 0.931 . S
C3591 C3590 1.370 . S
C3591 C3595 1.408 . S
C3592 C3590 1.363 . S
C3592 C3593 1.370 . S
C3592 C3596 1.524 . S
C3593 C3585 1.503 . S
C3593 C3592 1.370 . S
C3593 C3594 1.403 . S
C3594 C3593 1.403 . S
C3594 C3595 1.404 . S
C3594 C3597 1.539 . S
C3595 C3591 1.408 . S
C3595 C3594 1.404 . S
C3595 H3607 0.930 . S
C3596 C3592 1.524 . S
C3596 H3608 0.956 . S
C3596 H3609 0.961 . S
C3596 H3610 0.961 . S
C3597 C3594 1.539 . S
C3597 H3611 0.958 . S
C3597 H3612 0.961 . S
C3597 H3613 0.960 . S
H3598 C3582 0.931 . S
H3599 C3587 0.929 . S
H3600 C3588 0.960 . S
H3601 C3588 0.962 . S
H3602 C3588 0.960 . S
H3603 C3589 0.961 . S
H3604 C3589 0.961 . S
H3605 C3589 0.961 . S
H3606 C3590 0.931 . S
H3607 C3595 0.930 . S
H3608 C3596 0.956 . S
H3609 C3596 0.961 . S
H3610 C3596 0.961 . S
H3611 C3597 0.958 . S
H3612 C3597 0.961 . S
H3613 C3597 0.960 . S
C3614 C3615 1.391 . S
C3614 C3616 1.394 . S
C3614 H3630 0.931 . S
C3615 C3614 1.391 . S
C3615 C3619 1.376 . S
C3616 C3614 1.394 . S
C3616 C3617 1.369 . S
C3616 C3620 1.531 . S
C3617 C3616 1.369 . S
C3617 C3618 1.410 . S
C3617 C3625 1.503 . S
C3618 C3617 1.410 . S
C3618 C3619 1.392 . S
C3618 C3621 1.511 . S
C3619 C3615 1.376 . S
C3619 C3618 1.392 . S
C3619 H3631 0.929 . S
C3620 C3616 1.531 . S
C3620 H3632 0.960 . S
C3620 H3633 0.962 . S
C3620 H3634 0.960 . S
C3621 C3618 1.511 . S
C3621 H3635 0.961 . S
C3621 H3636 0.961 . S
C3621 H3637 0.961 . S
C3622 C3623 1.370 . S
C3622 C3624 1.363 . S
C3622 H3638 0.931 . S
C3623 C3622 1.370 . S
C3623 C3627 1.408 . S
C3624 C3622 1.363 . S
C3624 C3625 1.370 . S
C3624 C3628 1.524 . S
C3625 C3617 1.503 . S
C3625 C3624 1.370 . S
C3625 C3626 1.403 . S
C3626 C3625 1.403 . S
C3626 C3627 1.404 . S
C3626 C3629 1.539 . S
C3627 C3623 1.408 . S
C3627 C3626 1.404 . S
C3627 H3639 0.930 . S
C3628 C3624 1.524 . S
C3628 H3640 0.956 . S
C3628 H3641 0.961 . S
C3628 H3642 0.961 . S
C3629 C3626 1.539 . S
C3629 H3643 0.958 . S
C3629 H3644 0.961 . S
C3629 H3645 0.960 . S
H3630 C3614 0.931 . S
H3631 C3619 0.929 . S
H3632 C3620 0.960 . S
H3633 C3620 0.962 . S
H3634 C3620 0.960 . S
H3635 C3621 0.961 . S
H3636 C3621 0.961 . S
H3637 C3621 0.961 . S
H3638 C3622 0.931 . S
H3639 C3627 0.930 . S
H3640 C3628 0.956 . S
H3641 C3628 0.961 . S
H3642 C3628 0.961 . S
H3643 C3629 0.958 . S
H3644 C3629 0.961 . S
H3645 C3629 0.960 . S
C3646 C3647 1.391 . S
C3646 C3648 1.394 . S
C3646 H3662 0.931 . S
C3647 C3646 1.391 . S
C3647 C3651 1.376 . S
C3648 C3646 1.394 . S
C3648 C3649 1.369 . S
C3648 C3652 1.531 . S
C3649 C3648 1.369 . S
C3649 C3650 1.410 . S
C3649 C3657 1.503 . S
C3650 C3649 1.410 . S
C3650 C3651 1.392 . S
C3650 C3653 1.511 . S
C3651 C3647 1.376 . S
C3651 C3650 1.392 . S
C3651 H3663 0.929 . S
C3652 C3648 1.531 . S
C3652 H3664 0.960 . S
C3652 H3665 0.962 . S
C3652 H3666 0.960 . S
C3653 C3650 1.511 . S
C3653 H3667 0.961 . S
C3653 H3668 0.961 . S
C3653 H3669 0.961 . S
C3654 C3655 1.370 . S
C3654 C3656 1.363 . S
C3654 H3670 0.931 . S
C3655 C3654 1.370 . S
C3655 C3659 1.408 . S
C3656 C3654 1.363 . S
C3656 C3657 1.370 . S
C3656 C3660 1.524 . S
C3657 C3649 1.503 . S
C3657 C3656 1.370 . S
C3657 C3658 1.403 . S
C3658 C3657 1.403 . S
C3658 C3659 1.404 . S
C3658 C3661 1.539 . S
C3659 C3655 1.408 . S
C3659 C3658 1.404 . S
C3659 H3671 0.930 . S
C3660 C3656 1.524 . S
C3660 H3672 0.956 . S
C3660 H3673 0.961 . S
C3660 H3674 0.961 . S
C3661 C3658 1.539 . S
C3661 H3675 0.958 . S
C3661 H3676 0.961 . S
C3661 H3677 0.960 . S
H3662 C3646 0.931 . S
H3663 C3651 0.929 . S
H3664 C3652 0.960 . S
H3665 C3652 0.962 . S
H3666 C3652 0.960 . S
H3667 C3653 0.961 . S
H3668 C3653 0.961 . S
H3669 C3653 0.961 . S
H3670 C3654 0.931 . S
H3671 C3659 0.930 . S
H3672 C3660 0.956 . S
H3673 C3660 0.961 . S
H3674 C3660 0.961 . S
H3675 C3661 0.958 . S
H3676 C3661 0.961 . S
H3677 C3661 0.960 . S
C3678 C3679 1.391 . S
C3678 C3680 1.394 . S
C3678 H3694 0.931 . S
C3679 C3678 1.391 . S
C3679 C3683 1.376 . S
C3680 C3678 1.394 . S
C3680 C3681 1.369 . S
C3680 C3684 1.531 . S
C3681 C3680 1.369 . S
C3681 C3682 1.410 . S
C3681 C3689 1.503 . S
C3682 C3681 1.410 . S
C3682 C3683 1.392 . S
C3682 C3685 1.511 . S
C3683 C3679 1.376 . S
C3683 C3682 1.392 . S
C3683 H3695 0.929 . S
C3684 C3680 1.531 . S
C3684 H3696 0.960 . S
C3684 H3697 0.962 . S
C3684 H3698 0.960 . S
C3685 C3682 1.511 . S
C3685 H3699 0.961 . S
C3685 H3700 0.961 . S
C3685 H3701 0.961 . S
C3686 C3687 1.370 . S
C3686 C3688 1.363 . S
C3686 H3702 0.931 . S
C3687 C3686 1.370 . S
C3687 C3691 1.408 . S
C3688 C3686 1.363 . S
C3688 C3689 1.370 . S
C3688 C3692 1.524 . S
C3689 C3681 1.503 . S
C3689 C3688 1.370 . S
C3689 C3690 1.403 . S
C3690 C3689 1.403 . S
C3690 C3691 1.404 . S
C3690 C3693 1.539 . S
C3691 C3687 1.408 . S
C3691 C3690 1.404 . S
C3691 H3703 0.930 . S
C3692 C3688 1.524 . S
C3692 H3704 0.956 . S
C3692 H3705 0.961 . S
C3692 H3706 0.961 . S
C3693 C3690 1.539 . S
C3693 H3707 0.958 . S
C3693 H3708 0.961 . S
C3693 H3709 0.960 . S
H3694 C3678 0.931 . S
H3695 C3683 0.929 . S
H3696 C3684 0.960 . S
H3697 C3684 0.962 . S
H3698 C3684 0.960 . S
H3699 C3685 0.961 . S
H3700 C3685 0.961 . S
H3701 C3685 0.961 . S
H3702 C3686 0.931 . S
H3703 C3691 0.930 . S
H3704 C3692 0.956 . S
H3705 C3692 0.961 . S
H3706 C3692 0.961 . S
H3707 C3693 0.958 . S
H3708 C3693 0.961 . S
H3709 C3693 0.960 . S
C3710 C3711 1.391 . S
C3710 C3712 1.394 . S
C3710 H3726 0.931 . S
C3711 C3710 1.391 . S
C3711 C3715 1.376 . S
C3712 C3710 1.394 . S
C3712 C3713 1.369 . S
C3712 C3716 1.531 . S
C3713 C3712 1.369 . S
C3713 C3714 1.410 . S
C3713 C3721 1.503 . S
C3714 C3713 1.410 . S
C3714 C3715 1.392 . S
C3714 C3717 1.511 . S
C3715 C3711 1.376 . S
C3715 C3714 1.392 . S
C3715 H3727 0.929 . S
C3716 C3712 1.531 . S
C3716 H3728 0.960 . S
C3716 H3729 0.962 . S
C3716 H3730 0.960 . S
C3717 C3714 1.511 . S
C3717 H3731 0.961 . S
C3717 H3732 0.961 . S
C3717 H3733 0.961 . S
C3718 C3719 1.370 . S
C3718 C3720 1.363 . S
C3718 H3734 0.931 . S
C3719 C3718 1.370 . S
C3719 C3723 1.408 . S
C3720 C3718 1.363 . S
C3720 C3721 1.370 . S
C3720 C3724 1.524 . S
C3721 C3713 1.503 . S
C3721 C3720 1.370 . S
C3721 C3722 1.403 . S
C3722 C3721 1.403 . S
C3722 C3723 1.404 . S
C3722 C3725 1.539 . S
C3723 C3719 1.408 . S
C3723 C3722 1.404 . S
C3723 H3735 0.930 . S
C3724 C3720 1.524 . S
C3724 H3736 0.956 . S
C3724 H3737 0.961 . S
C3724 H3738 0.961 . S
C3725 C3722 1.539 . S
C3725 H3739 0.958 . S
C3725 H3740 0.961 . S
C3725 H3741 0.960 . S
H3726 C3710 0.931 . S
H3727 C3715 0.929 . S
H3728 C3716 0.960 . S
H3729 C3716 0.962 . S
H3730 C3716 0.960 . S
H3731 C3717 0.961 . S
H3732 C3717 0.961 . S
H3733 C3717 0.961 . S
H3734 C3718 0.931 . S
H3735 C3723 0.930 . S
H3736 C3724 0.956 . S
H3737 C3724 0.961 . S
H3738 C3724 0.961 . S
H3739 C3725 0.958 . S
H3740 C3725 0.961 . S
H3741 C3725 0.960 . S
C3742 C3743 1.391 . S
C3742 C3744 1.394 . S
C3742 H3758 0.931 . S
C3743 C3742 1.391 . S
C3743 C3747 1.376 . S
C3744 C3742 1.394 . S
C3744 C3745 1.369 . S
C3744 C3748 1.531 . S
C3745 C3744 1.369 . S
C3745 C3746 1.410 . S
C3745 C3753 1.503 . S
C3746 C3745 1.410 . S
C3746 C3747 1.392 . S
C3746 C3749 1.511 . S
C3747 C3743 1.376 . S
C3747 C3746 1.392 . S
C3747 H3759 0.929 . S
C3748 C3744 1.531 . S
C3748 H3760 0.960 . S
C3748 H3761 0.962 . S
C3748 H3762 0.960 . S
C3749 C3746 1.511 . S
C3749 H3763 0.961 . S
C3749 H3764 0.961 . S
C3749 H3765 0.961 . S
C3750 C3751 1.370 . S
C3750 C3752 1.363 . S
C3750 H3766 0.931 . S
C3751 C3750 1.370 . S
C3751 C3755 1.408 . S
C3752 C3750 1.363 . S
C3752 C3753 1.370 . S
C3752 C3756 1.524 . S
C3753 C3745 1.503 . S
C3753 C3752 1.370 . S
C3753 C3754 1.403 . S
C3754 C3753 1.403 . S
C3754 C3755 1.404 . S
C3754 C3757 1.539 . S
C3755 C3751 1.408 . S
C3755 C3754 1.404 . S
C3755 H3767 0.930 . S
C3756 C3752 1.524 . S
C3756 H3768 0.956 . S
C3756 H3769 0.961 . S
C3756 H3770 0.961 . S
C3757 C3754 1.539 . S
C3757 H3771 0.958 . S
C3757 H3772 0.961 . S
C3757 H3773 0.960 . S
H3758 C3742 0.931 . S
H3759 C3747 0.929 . S
H3760 C3748 0.960 . S
H3761 C3748 0.962 . S
H3762 C3748 0.960 . S
H3763 C3749 0.961 . S
H3764 C3749 0.961 . S
H3765 C3749 0.961 . S
H3766 C3750 0.931 . S
H3767 C3755 0.930 . S
H3768 C3756 0.956 . S
H3769 C3756 0.961 . S
H3770 C3756 0.961 . S
H3771 C3757 0.958 . S
H3772 C3757 0.961 . S
H3773 C3757 0.960 . S
C3774 C3775 1.391 . S
C3774 C3776 1.394 . S
C3774 H3790 0.931 . S
C3775 C3774 1.391 . S
C3775 C3779 1.376 . S
C3776 C3774 1.394 . S
C3776 C3777 1.369 . S
C3776 C3780 1.531 . S
C3777 C3776 1.369 . S
C3777 C3778 1.410 . S
C3777 C3785 1.503 . S
C3778 C3777 1.410 . S
C3778 C3779 1.392 . S
C3778 C3781 1.511 . S
C3779 C3775 1.376 . S
C3779 C3778 1.392 . S
C3779 H3791 0.929 . S
C3780 C3776 1.531 . S
C3780 H3792 0.960 . S
C3780 H3793 0.962 1_655 S
C3780 H3794 0.960 . S
C3781 C3778 1.511 . S
C3781 H3795 0.961 . S
C3781 H3796 0.961 . S
C3781 H3797 0.961 . S
C3782 C3783 1.370 1_455 S
C3782 C3784 1.363 1_455 S
C3782 H3798 0.931 . S
C3783 C3782 1.370 1_655 S
C3783 C3787 1.408 . S
C3784 C3782 1.363 1_655 S
C3784 C3785 1.370 . S
C3784 C3788 1.524 1_655 S
C3785 C3777 1.503 . S
C3785 C3784 1.370 . S
C3785 C3786 1.403 . S
C3786 C3785 1.403 . S
C3786 C3787 1.404 . S
C3786 C3789 1.539 . S
C3787 C3783 1.408 . S
C3787 C3786 1.404 . S
C3787 H3799 0.930 . S
C3788 C3784 1.524 1_455 S
C3788 H3800 0.956 . S
C3788 H3801 0.974 . S
C3788 H3802 0.961 . S
C3789 C3786 1.539 . S
C3789 H3803 0.958 . S
C3789 H3804 0.961 . S
C3789 H3805 0.960 . S
H3790 C3774 0.931 . S
H3791 C3779 0.929 . S
H3792 C3780 0.960 . S
H3793 C3780 0.962 1_455 S
H3794 C3780 0.960 . S
H3795 C3781 0.961 . S
H3796 C3781 0.961 . S
H3797 C3781 0.961 . S
H3798 C3782 0.931 . S
H3799 C3787 0.930 . S
H3800 C3788 0.956 . S
H3801 C3788 0.974 . S
H3802 C3788 0.961 . S
H3803 C3789 0.958 . S
H3804 C3789 0.961 . S
H3805 C3789 0.960 . S
C3806 C3807 1.391 . S
C3806 C3808 1.394 . S
C3806 H3822 0.931 . S
C3807 C3806 1.391 . S
C3807 C3811 1.376 . S
C3808 C3806 1.394 . S
C3808 C3809 1.369 . S
C3808 C3812 1.531 . S
C3809 C3808 1.369 . S
C3809 C3810 1.410 . S
C3809 C3817 1.503 . S
C3810 C3809 1.410 . S
C3810 C3811 1.392 . S
C3810 C3813 1.511 . S
C3811 C3807 1.376 . S
C3811 C3810 1.392 . S
C3811 H3823 0.929 . S
C3812 C3808 1.531 . S
C3812 H3824 0.960 . S
C3812 H3825 0.962 . S
C3812 H3826 0.960 . S
C3813 C3810 1.511 . S
C3813 H3827 0.961 . S
C3813 H3828 0.961 . S
C3813 H3829 0.961 . S
C3814 C3815 1.370 . S
C3814 C3816 1.363 . S
C3814 H3830 0.931 . S
C3815 C3814 1.370 . S
C3815 C3819 1.408 . S
C3816 C3814 1.363 . S
C3816 C3817 1.370 . S
C3816 C3820 1.524 . S
C3817 C3809 1.503 . S
C3817 C3816 1.370 . S
C3817 C3818 1.403 . S
C3818 C3817 1.403 . S
C3818 C3819 1.404 . S
C3818 C3821 1.539 . S
C3819 C3815 1.408 . S
C3819 C3818 1.404 . S
C3819 H3831 0.930 . S
C3820 C3816 1.524 . S
C3820 H3832 0.956 . S
C3820 H3833 0.961 . S
C3820 H3834 0.961 . S
C3821 C3818 1.539 . S
C3821 H3835 0.958 . S
C3821 H3836 0.961 . S
C3821 H3837 0.960 . S
H3822 C3806 0.931 . S
H3823 C3811 0.929 . S
H3824 C3812 0.960 . S
H3825 C3812 0.962 . S
H3826 C3812 0.960 . S
H3827 C3813 0.961 . S
H3828 C3813 0.961 . S
H3829 C3813 0.961 . S
H3830 C3814 0.931 . S
H3831 C3819 0.930 . S
H3832 C3820 0.956 . S
H3833 C3820 0.961 . S
H3834 C3820 0.961 . S
H3835 C3821 0.958 . S
H3836 C3821 0.961 . S
H3837 C3821 0.960 . S
C3838 C3839 1.391 . S
C3838 C3840 1.394 . S
C3838 H3854 0.931 . S
C3839 C3838 1.391 . S
C3839 C3843 1.376 . S
C3840 C3838 1.394 . S
C3840 C3841 1.369 . S
C3840 C3844 1.531 1_545 S
C3841 C3840 1.369 . S
C3841 C3842 1.410 . S
C3841 C3849 1.503 . S
C3842 C3841 1.410 . S
C3842 C3843 1.392 . S
C3842 C3845 1.511 . S
C3843 C3839 1.376 . S
C3843 C3842 1.392 . S
C3843 H3855 0.929 . S
C3844 C3840 1.531 1_565 S
C3844 H3856 0.960 . S
C3844 H3857 0.962 . S
C3844 H3858 0.960 . S
C3845 C3842 1.511 . S
C3845 H3859 0.961 . S
C3845 H3860 0.961 . S
C3845 H3861 0.961 . S
C3846 C3847 1.370 . S
C3846 C3848 1.363 . S
C3846 H3862 0.931 . S
C3847 C3846 1.370 . S
C3847 C3851 1.408 1_545 S
C3848 C3846 1.363 . S
C3848 C3849 1.370 . S
C3848 C3852 1.524 . S
C3849 C3841 1.503 . S
C3849 C3848 1.370 . S
C3849 C3850 1.403 . S
C3850 C3849 1.403 . S
C3850 C3851 1.404 1_545 S
C3850 C3853 1.521 1_545 S
C3851 C3847 1.408 1_565 S
C3851 C3850 1.404 1_565 S
C3851 H3863 0.930 . S
C3852 C3848 1.524 . S
C3852 H3864 0.956 . S
C3852 H3865 0.961 . S
C3852 H3866 0.961 . S
C3853 C3850 1.521 1_565 S
C3853 H3867 0.985 . S
C3853 H3868 0.962 1_565 S
C3853 H3869 0.952 1_565 S
H3854 C3838 0.931 . S
H3855 C3843 0.929 . S
H3856 C3844 0.960 . S
H3857 C3844 0.962 . S
H3858 C3844 0.960 . S
H3859 C3845 0.961 . S
H3860 C3845 0.961 . S
H3861 C3845 0.961 . S
H3862 C3846 0.931 . S
H3863 C3851 0.930 . S
H3864 C3852 0.956 . S
H3865 C3852 0.961 . S
H3866 C3852 0.961 . S
H3867 C3853 0.985 . S
H3868 C3853 0.962 1_545 S
H3869 C3853 0.952 1_545 S
C1567 C10 1.223 1_655 S
C1575 C963 1.154 . S
C1599 C23 1.603 . S
C1607 C1043 1.578 . S
C1639 C1111 1.385 . S
C1631 C29 1.418 . S
C1663 C30 1.831 . S
C1671 C1191 1.790 . S
C1695 C5 1.598 . S
C1703 C1265 1.579 . S
C1727 C18 1.615 . S
C1735 C1333 1.552 . S
C1759 C49 1.132 1_656 S
C1767 C1259 1.109 . S
C1799 C1339 1.499 . S
C1791 C62 1.494 . S
C1831 C1185 1.340 . S
C1823 C70 1.356 1_556 S
C1855 C75 1.778 . S
C1863 C1117 1.744 . S
C1895 C969 1.542 . S
C1887 C44 1.522 . S
C1919 C57 1.457 . S
C1927 C1037 1.445 . S
C1951 C88 1.358 . S
C1959 C1407 1.309 . S
C1983 C101 1.642 . S
C1991 C1487 1.594 . S
C2023 C1555 1.477 . S
C2015 C107 1.554 . S
C2047 C108 1.939 . S
C2055 C303 1.875 . S
C2079 C83 1.716 . S
C2087 C377 1.662 . S
C2111 C96 1.633 . S
C2119 C445 1.571 . S
C2143 C127 1.141 . S
C2151 C371 1.128 . S
C2175 C140 1.521 . S
C2183 C451 1.524 . S
C2215 C297 1.393 . S
C2207 C146 1.397 . S
C2247 C1561 1.859 . S
C2239 C147 1.859 . S
C2279 C1413 1.576 . S
C2271 C122 1.577 . S
C2311 C1481 1.485 . S
C2303 C135 1.499 . S
C2335 C160 1.317 . S
C2343 C519 1.228 . S
C2367 C173 1.642 . S
C2375 C599 1.595 . S
C2399 C185 1.547 . S
C2407 C667 1.505 . S
C2431 C186 1.982 . S
C2439 C747 1.940 . S
C2471 C821 1.666 . S
C2463 C159 1.711 . S
C2503 C889 1.590 . S
C2495 C172 1.656 . S
C2535 C815 1.189 . S
C2527 C205 1.195 . S
C2567 C895 1.514 . S
C2559 C218 1.514 . S
C2591 C224 1.391 . S
C2599 C741 1.385 . S
C2631 C673 1.810 . S
C2623 C225 1.810 . S
C2655 C200 1.589 . S
C2663 C525 1.589 . S
C2695 C593 1.458 . S
C2687 C213 1.465 . S
C2727 C273 1.907 . S
C2719 C4 1.945 . S
C2751 C17 1.454 . S
C2759 C347 1.436 . S
C2791 C433 1.456 . S
C2783 C31 1.466 . S
C2823 C507 1.212 . S
C2815 C36 1.213 1_556 S
C2855 C569 1.587 . S
C2847 C3 1.608 . S
C2887 C655 1.524 . S
C2879 C16 1.527 . S
C2911 C43 2.105 . S
C2919 C643 1.982 . S
C2943 C56 1.594 . S
C2951 C495 1.546 . S
C2975 C68 1.606 . S
C2983 C581 1.601 . S
C3007 C69 1.391 . S
C3015 C359 1.378 . S
C3047 C421 1.686 . S
C3039 C42 1.743 . S
C3071 C55 1.684 . S
C3079 C285 1.659 . S
C3111 C717 1.894 . S
C3103 C82 1.939 . S
C3135 C95 1.536 1_545 S
C3143 C791 1.520 . S
C3167 C109 1.490 . S
C3175 C877 1.481 . S
C3207 C951 1.121 . S
C3199 C114 1.146 . S
C3231 C81 1.586 . S
C3239 C1013 1.572 . S
C3263 C94 1.479 . S
C3271 C1099 1.481 . S
C3295 C121 1.921 . S
C3303 C1087 1.876 . S
C3327 C134 1.497 . S
C3335 C939 1.448 . S
C3367 C1025 1.571 . S
C3359 C148 1.597 . S
C3391 C153 1.397 . S
C3399 C803 1.354 . S
C3423 C120 1.773 1_545 S
C3431 C865 1.728 . S
C3463 C729 1.710 . S
C3455 C133 1.755 1_655 S
C3495 C1161 1.839 . S
C3487 C166 1.857 . S
C3519 C179 1.420 . S
C3527 C1235 1.407 . S
C3551 C187 1.445 . S
C3559 C1321 1.439 . S
C3591 C1395 1.193 . S
C3583 C192 1.224 . S
C3623 C1457 1.629 . S
C3615 C161 1.641 1_565 S
C3647 C174 1.578 1_455 S
C3655 C1543 1.578 . S
C3679 C199 2.052 . S
C3687 C1531 1.982 . S
C3711 C212 1.677 1_565 S
C3719 C1383 1.618 . S
C3751 C1469 1.623 . S
C3743 C226 1.641 1_455 S
C3783 C1247 1.207 . S
C3775 C231 1.256 . S
C3815 C1309 1.671 . S
C3807 C198 1.713 . S
C3839 C211 1.552 . S
C3847 C1173 1.535 . S
