# Generated by pormake.
# Topology ptr, (4,4)-cn, num edge types: 1
# Building blocks:
#     Node 0, Type 0, BuildingBlock: QUQFOY_clean_sbu_3, # of connection points: 4
#     Node 1, Type 0, BuildingBlock: QUQFOY_clean_sbu_3, # of connection points: 4
#     Node 2, Type 0, BuildingBlock: QUQFOY_clean_sbu_3, # of connection points: 4
#     Node 3, Type 0, BuildingBlock: QUQFOY_clean_sbu_3, # of connection points: 4
#     Node 4, Type 0, BuildingBlock: QUQFOY_clean_sbu_3, # of connection points: 4
#     Node 5, Type 0, BuildingBlock: QUQFOY_clean_sbu_3, # of connection points: 4
#     Node 6, Type 0, BuildingBlock: QUQFOY_clean_sbu_3, # of connection points: 4
#     Node 7, Type 0, BuildingBlock: QUQFOY_clean_sbu_3, # of connection points: 4
#     Node 8, Type 0, BuildingBlock: QUQFOY_clean_sbu_3, # of connection points: 4
#     Node 9, Type 0, BuildingBlock: QUQFOY_clean_sbu_3, # of connection points: 4
#     Node 10, Type 0, BuildingBlock: QUQFOY_clean_sbu_3, # of connection points: 4
#     Node 11, Type 0, BuildingBlock: QUQFOY_clean_sbu_3, # of connection points: 4
#     Node 12, Type 0, BuildingBlock: QUQFOY_clean_sbu_3, # of connection points: 4
#     Node 13, Type 0, BuildingBlock: QUQFOY_clean_sbu_3, # of connection points: 4
#     Node 14, Type 0, BuildingBlock: QUQFOY_clean_sbu_3, # of connection points: 4
#     Node 15, Type 0, BuildingBlock: QUQFOY_clean_sbu_3, # of connection points: 4
#     Node 16, Type 0, BuildingBlock: QUQFOY_clean_sbu_3, # of connection points: 4
#     Node 17, Type 0, BuildingBlock: QUQFOY_clean_sbu_3, # of connection points: 4
#     Node 18, Type 1, BuildingBlock: NAWXER_clean_linker_0, # of connection points: 4
#     Node 19, Type 1, BuildingBlock: NAWXER_clean_linker_0, # of connection points: 4
#     Node 20, Type 1, BuildingBlock: NAWXER_clean_linker_0, # of connection points: 4
#     Node 21, Type 1, BuildingBlock: NAWXER_clean_linker_0, # of connection points: 4
#     Node 22, Type 1, BuildingBlock: NAWXER_clean_linker_0, # of connection points: 4
#     Node 23, Type 1, BuildingBlock: NAWXER_clean_linker_0, # of connection points: 4
#     Node 24, Type 1, BuildingBlock: NAWXER_clean_linker_0, # of connection points: 4
#     Node 25, Type 1, BuildingBlock: NAWXER_clean_linker_0, # of connection points: 4
#     Node 26, Type 1, BuildingBlock: NAWXER_clean_linker_0, # of connection points: 4
#     Node 27, Type 1, BuildingBlock: NAWXER_clean_linker_0, # of connection points: 4
#     Node 28, Type 1, BuildingBlock: NAWXER_clean_linker_0, # of connection points: 4
#     Node 29, Type 1, BuildingBlock: NAWXER_clean_linker_0, # of connection points: 4
#     Node 30, Type 1, BuildingBlock: NAWXER_clean_linker_0, # of connection points: 4
#     Node 31, Type 1, BuildingBlock: NAWXER_clean_linker_0, # of connection points: 4
#     Node 32, Type 1, BuildingBlock: NAWXER_clean_linker_0, # of connection points: 4
#     Node 33, Type 1, BuildingBlock: NAWXER_clean_linker_0, # of connection points: 4
#     Node 34, Type 1, BuildingBlock: NAWXER_clean_linker_0, # of connection points: 4
#     Node 35, Type 1, BuildingBlock: NAWXER_clean_linker_0, # of connection points: 4
#     Edge 36, Type (0, 1), BuildingBlock: XIVTED_clean_linker_0, # of connection points: 2
#     Edge 37, Type (0, 1), BuildingBlock: XIVTED_clean_linker_0, # of connection points: 2
#     Edge 38, Type (0, 1), BuildingBlock: XIVTED_clean_linker_0, # of connection points: 2
#     Edge 39, Type (0, 1), BuildingBlock: XIVTED_clean_linker_0, # of connection points: 2
#     Edge 40, Type (0, 1), BuildingBlock: XIVTED_clean_linker_0, # of connection points: 2
#     Edge 41, Type (0, 1), BuildingBlock: XIVTED_clean_linker_0, # of connection points: 2
#     Edge 42, Type (0, 1), BuildingBlock: XIVTED_clean_linker_0, # of connection points: 2
#     Edge 43, Type (0, 1), BuildingBlock: XIVTED_clean_linker_0, # of connection points: 2
#     Edge 44, Type (0, 1), BuildingBlock: XIVTED_clean_linker_0, # of connection points: 2
#     Edge 45, Type (0, 1), BuildingBlock: XIVTED_clean_linker_0, # of connection points: 2
#     Edge 46, Type (0, 1), BuildingBlock: XIVTED_clean_linker_0, # of connection points: 2
#     Edge 47, Type (0, 1), BuildingBlock: XIVTED_clean_linker_0, # of connection points: 2
#     Edge 48, Type (0, 1), BuildingBlock: XIVTED_clean_linker_0, # of connection points: 2
#     Edge 49, Type (0, 1), BuildingBlock: XIVTED_clean_linker_0, # of connection points: 2
#     Edge 50, Type (0, 1), BuildingBlock: XIVTED_clean_linker_0, # of connection points: 2
#     Edge 51, Type (0, 1), BuildingBlock: XIVTED_clean_linker_0, # of connection points: 2
#     Edge 52, Type (0, 1), BuildingBlock: XIVTED_clean_linker_0, # of connection points: 2
#     Edge 53, Type (0, 1), BuildingBlock: XIVTED_clean_linker_0, # of connection points: 2
#     Edge 54, Type (0, 1), BuildingBlock: XIVTED_clean_linker_0, # of connection points: 2
#     Edge 55, Type (0, 1), BuildingBlock: XIVTED_clean_linker_0, # of connection points: 2
#     Edge 56, Type (0, 1), BuildingBlock: XIVTED_clean_linker_0, # of connection points: 2
#     Edge 57, Type (0, 1), BuildingBlock: XIVTED_clean_linker_0, # of connection points: 2
#     Edge 58, Type (0, 1), BuildingBlock: XIVTED_clean_linker_0, # of connection points: 2
#     Edge 59, Type (0, 1), BuildingBlock: XIVTED_clean_linker_0, # of connection points: 2
#     Edge 60, Type (0, 1), BuildingBlock: XIVTED_clean_linker_0, # of connection points: 2
#     Edge 61, Type (0, 1), BuildingBlock: XIVTED_clean_linker_0, # of connection points: 2
#     Edge 62, Type (0, 1), BuildingBlock: XIVTED_clean_linker_0, # of connection points: 2
#     Edge 63, Type (0, 1), BuildingBlock: XIVTED_clean_linker_0, # of connection points: 2
#     Edge 64, Type (0, 1), BuildingBlock: XIVTED_clean_linker_0, # of connection points: 2
#     Edge 65, Type (0, 1), BuildingBlock: XIVTED_clean_linker_0, # of connection points: 2
#     Edge 66, Type (0, 1), BuildingBlock: XIVTED_clean_linker_0, # of connection points: 2
#     Edge 67, Type (0, 1), BuildingBlock: XIVTED_clean_linker_0, # of connection points: 2
#     Edge 68, Type (0, 1), BuildingBlock: XIVTED_clean_linker_0, # of connection points: 2
#     Edge 69, Type (0, 1), BuildingBlock: XIVTED_clean_linker_0, # of connection points: 2
#     Edge 70, Type (0, 1), BuildingBlock: XIVTED_clean_linker_0, # of connection points: 2
#     Edge 71, Type (0, 1), BuildingBlock: XIVTED_clean_linker_0, # of connection points: 2
#     Edge 72, Type (0, 1), BuildingBlock: XIVTED_clean_linker_0, # of connection points: 2
#     Edge 73, Type (0, 1), BuildingBlock: XIVTED_clean_linker_0, # of connection points: 2
#     Edge 74, Type (0, 1), BuildingBlock: XIVTED_clean_linker_0, # of connection points: 2
#     Edge 75, Type (0, 1), BuildingBlock: XIVTED_clean_linker_0, # of connection points: 2
#     Edge 76, Type (0, 1), BuildingBlock: XIVTED_clean_linker_0, # of connection points: 2
#     Edge 77, Type (0, 1), BuildingBlock: XIVTED_clean_linker_0, # of connection points: 2
#     Edge 78, Type (0, 1), BuildingBlock: XIVTED_clean_linker_0, # of connection points: 2
#     Edge 79, Type (0, 1), BuildingBlock: XIVTED_clean_linker_0, # of connection points: 2
#     Edge 80, Type (0, 1), BuildingBlock: XIVTED_clean_linker_0, # of connection points: 2
#     Edge 81, Type (0, 1), BuildingBlock: XIVTED_clean_linker_0, # of connection points: 2
#     Edge 82, Type (0, 1), BuildingBlock: XIVTED_clean_linker_0, # of connection points: 2
#     Edge 83, Type (0, 1), BuildingBlock: XIVTED_clean_linker_0, # of connection points: 2
#     Edge 84, Type (0, 1), BuildingBlock: XIVTED_clean_linker_0, # of connection points: 2
#     Edge 85, Type (0, 1), BuildingBlock: XIVTED_clean_linker_0, # of connection points: 2
#     Edge 86, Type (0, 1), BuildingBlock: XIVTED_clean_linker_0, # of connection points: 2
#     Edge 87, Type (0, 1), BuildingBlock: XIVTED_clean_linker_0, # of connection points: 2
#     Edge 88, Type (0, 1), BuildingBlock: XIVTED_clean_linker_0, # of connection points: 2
#     Edge 89, Type (0, 1), BuildingBlock: XIVTED_clean_linker_0, # of connection points: 2
#     Edge 90, Type (0, 1), BuildingBlock: XIVTED_clean_linker_0, # of connection points: 2
#     Edge 91, Type (0, 1), BuildingBlock: XIVTED_clean_linker_0, # of connection points: 2
#     Edge 92, Type (0, 1), BuildingBlock: XIVTED_clean_linker_0, # of connection points: 2
#     Edge 93, Type (0, 1), BuildingBlock: XIVTED_clean_linker_0, # of connection points: 2
#     Edge 94, Type (0, 1), BuildingBlock: XIVTED_clean_linker_0, # of connection points: 2
#     Edge 95, Type (0, 1), BuildingBlock: XIVTED_clean_linker_0, # of connection points: 2
#     Edge 96, Type (0, 1), BuildingBlock: XIVTED_clean_linker_0, # of connection points: 2
#     Edge 97, Type (0, 1), BuildingBlock: XIVTED_clean_linker_0, # of connection points: 2
#     Edge 98, Type (0, 1), BuildingBlock: XIVTED_clean_linker_0, # of connection points: 2
#     Edge 99, Type (0, 1), BuildingBlock: XIVTED_clean_linker_0, # of connection points: 2
#     Edge 100, Type (0, 1), BuildingBlock: XIVTED_clean_linker_0, # of connection points: 2
#     Edge 101, Type (0, 1), BuildingBlock: XIVTED_clean_linker_0, # of connection points: 2
#     Edge 102, Type (0, 1), BuildingBlock: XIVTED_clean_linker_0, # of connection points: 2
#     Edge 103, Type (0, 1), BuildingBlock: XIVTED_clean_linker_0, # of connection points: 2
#     Edge 104, Type (0, 1), BuildingBlock: XIVTED_clean_linker_0, # of connection points: 2
#     Edge 105, Type (0, 1), BuildingBlock: XIVTED_clean_linker_0, # of connection points: 2
#     Edge 106, Type (0, 1), BuildingBlock: XIVTED_clean_linker_0, # of connection points: 2
#     Edge 107, Type (0, 1), BuildingBlock: XIVTED_clean_linker_0, # of connection points: 2
# Relax obj value: 0.029
# Max RMSD: 0.135
# Mean RMSD: 0.051
data_MOF--net-ptr--node1-QUQFOY_clean_sbu_3--node2-NAWXER_clean_linker_0--edge1-XIVTED_clean_linker_0
_symmetry_space_group_name_H-M    P1
_symmetry_Int_Tables_number       1
_symmetry_cell_setting            triclinic
loop_
_symmetry_equiv_pos_as_xyz
'x, y, z'
_cell_length_a     88.866496
_cell_length_b     89.226859
_cell_length_c     65.685307
_cell_angle_alpha  90.389249
_cell_angle_beta   89.474584
_cell_angle_gamma 120.69523
loop_
_atom_site_label
_atom_site_type_symbol
_atom_site_fract_x
_atom_site_fract_y
_atom_site_fract_z
_atom_type_partial_charge
C0 C 0.96614 0.31124 0.9905 0.0
O1 O 0.95731 0.31718 -0.00114 0.0
Cd2 Cd 0.97098 0.34646 0.01123 0.0
O3 O 0.98281 0.31992 0.99094 0.0
Cd4 Cd 0.00684 0.34672 0.00705 0.0
C5 C -0.00032 0.36865 0.97094 0.0
O6 O -0.00826 0.35038 0.03643 0.0
O7 O 0.01627 0.37288 0.02737 0.0
O8 O 0.01403 0.32687 0.02298 0.0
C9 C 0.00354 0.36606 0.03985 0.0
O10 O 0.98594 0.36434 0.98145 0.0
C11 C 0.03027 0.33534 0.0189 0.0
O12 O 0.01026 0.36366 0.97604 0.0
O13 O 0.03589 0.34925 0.0086 0.0
C14 C 0.63258 0.68566 0.01479 0.0
O15 O 0.6167 0.67891 0.00957 0.0
Cd16 Cd 0.60076 0.65028 -0.00463 0.0
O17 O 0.64096 0.6779 0.01082 0.0
Cd18 Cd 0.63645 0.65136 0.99285 0.0
C19 C 0.61019 0.6282 0.03153 0.0
O20 O 0.61606 0.64846 0.96612 0.0
O21 O 0.61744 0.62551 0.97267 0.0
O22 O 0.66378 0.67048 0.97524 0.0
C23 C 0.61165 0.63293 0.96146 0.0
O24 O 0.59935 0.6316 0.02329 0.0
C25 C 0.67071 0.66134 0.97851 0.0
O26 O 0.62553 0.63431 0.02417 0.0
O27 O 0.66175 0.64746 0.98877 0.0
C28 C 0.30219 0.95392 0.01566 0.0
O29 O 0.30628 0.94331 0.00816 0.0
Cd30 Cd 0.33458 0.95403 0.99257 0.0
O31 O 0.31212 0.97024 0.01313 0.0
Cd32 Cd 0.33881 0.9914 -0.00501 0.0
C33 C 0.36161 0.98345 0.02919 0.0
O34 O 0.33784 0.97357 0.9658 0.0
O35 O 0.36176 -0.00177 0.97045 0.0
O36 O 0.32007 0.00151 0.98288 0.0
C37 C 0.35308 0.98474 0.95956 0.0
O38 O 0.35575 0.96899 0.01981 0.0
C39 C 0.33068 0.01756 0.98618 0.0
O40 O 0.35707 -0.0057 0.02396 0.0
O41 O 0.3453 0.02164 -0.00589 0.0
C42 C 0.95628 0.64699 0.99233 0.0
O43 O 0.94732 0.63211 0.00055 0.0
Cd44 Cd 0.96083 0.61705 0.01437 0.0
O45 O 0.97292 0.65527 0.99305 0.0
Cd46 Cd -0.0028 0.65348 0.0084 0.0
C47 C 0.98892 0.62194 0.97429 0.0
O48 O 0.9819 0.63615 0.03843 0.0
O49 O 0.00737 0.63968 0.03182 0.0
O50 O 0.0053 0.68208 0.02086 0.0
C51 C -0.00589 0.63352 0.04348 0.0
O52 O 0.97532 0.61265 0.98515 0.0
C53 C 0.02143 0.68933 0.0164 0.0
O54 O -0.00058 0.63793 0.97863 0.0
O55 O 0.02649 0.67995 0.00747 0.0
C56 C 0.3154 0.35579 0.02687 0.0
O57 O 0.32455 0.372 0.02316 0.0
Cd58 Cd 0.35073 0.38483 0.00267 0.0
O59 O 0.31974 0.34529 0.01952 0.0
Cd60 Cd 0.34259 0.34583 -0.00232 0.0
C61 C 0.3751 0.37187 0.02967 0.0
O62 O 0.3445 0.36707 0.97308 0.0
O63 O 0.36468 0.36045 0.97106 0.0
O64 O 0.32037 0.31956 0.98081 0.0
C65 C 0.35776 0.36863 0.96374 0.0
O66 O 0.37336 0.38417 0.02264 0.0
C67 C 0.32738 0.31057 0.98461 0.0
O68 O 0.3646 0.35607 0.02468 0.0
O69 O 0.34144 0.31793 -0.00517 0.0
C70 C 0.68246 0.03201 0.99201 0.0
O71 O 0.67623 0.04098 -0.00085 0.0
Cd72 Cd 0.64677 0.0277 0.01158 0.0
O73 O 0.674 0.01547 0.99372 0.0
Cd74 Cd 0.64712 0.99221 0.01084 0.0
C75 C 0.6245 -0.00296 0.97342 0.0
O76 O 0.64281 0.00832 0.03849 0.0
O77 O 0.62078 0.98292 0.03112 0.0
O78 O 0.6657 0.98571 0.03071 0.0
C79 C 0.62727 -0.00372 0.04253 0.0
O80 O 0.62881 0.01127 0.98265 0.0
C81 C 0.6587 0.96979 0.02572 0.0
O82 O 0.62963 0.98691 0.97979 0.0
O83 O 0.64625 0.964 0.01296 0.0
C84 C 0.61765 0.64281 0.32553 0.0
O85 O 0.6097 0.65059 0.33118 0.0
Cd86 Cd 0.62397 0.67809 0.34872 0.0
O87 O 0.63372 0.64913 0.32982 0.0
Cd88 Cd 0.65716 0.67433 0.3486 0.0
C89 C 0.65766 0.70263 0.31492 0.0
O90 O 0.64024 0.67701 0.3768 0.0
O91 O 0.66587 0.69927 0.37097 0.0
O92 O 0.66362 0.65367 0.3643 0.0
C93 C 0.65233 0.69206 0.3822 0.0
O94 O 0.64392 0.69992 0.32441 0.0
C95 C 0.67996 0.66227 0.36079 0.0
O96 O 0.66487 0.69379 0.31899 0.0
O97 O 0.68582 0.6765 0.35113 0.0
C98 C 0.31013 0.02234 0.36289 0.0
O99 O 0.29439 0.01723 0.35835 0.0
Cd100 Cd 0.27508 0.9882 0.34648 0.0
O101 O 0.31661 0.01275 0.35913 0.0
Cd102 Cd 0.30778 0.98492 0.34113 0.0
C103 C 0.28215 0.96303 0.38066 0.0
O104 O 0.28683 0.98358 0.31575 0.0
O105 O 0.28603 0.95955 0.32256 0.0
O106 O 0.33425 0.00104 0.32083 0.0
C107 C 0.2808 0.96761 0.3116 0.0
O108 O 0.2722 0.96813 0.37362 0.0
C109 C 0.33974 0.99058 0.3235 0.0
O110 O 0.29698 0.96791 0.37243 0.0
O111 O 0.33051 0.97749 0.33485 0.0
C112 C 0.97903 0.29527 0.359 0.0
O113 O 0.98768 0.28777 0.35557 0.0
Cd114 Cd 0.01426 0.30061 0.33576 0.0
O115 O 0.98436 0.31053 0.35231 0.0
Cd116 Cd 0.00945 0.33307 0.33317 0.0
C117 C 0.03947 0.33592 0.36609 0.0
O118 O 0.01128 0.31464 0.30647 0.0
O119 O 0.03308 0.34096 0.30908 0.0
O120 O 0.98951 0.34033 0.31704 0.0
C121 C 0.02576 0.32666 0.2994 0.0
O122 O 0.03727 0.32213 0.35746 0.0
C123 C -0.00139 0.35655 0.32073 0.0
O124 O 0.02969 0.34206 0.36193 0.0
O125 O 0.01257 0.3618 0.33079 0.0
C126 C 0.61495 0.9671 0.32775 0.0
O127 O 0.60703 0.9515 0.33416 0.0
Cd128 Cd 0.62263 0.93854 0.34756 0.0
O129 O 0.63135 0.97701 0.33038 0.0
Cd130 Cd 0.65625 0.97739 0.3476 0.0
C131 C 0.65487 0.95095 0.31015 0.0
O132 O 0.63992 0.95691 0.37471 0.0
O133 O 0.66667 0.96322 0.37069 0.0
O134 O 0.66113 0.00355 0.36463 0.0
C135 C 0.65248 0.9552 0.38075 0.0
O136 O 0.64076 0.9395 0.31881 0.0
C137 C 0.67697 0.01309 0.35914 0.0
O138 O 0.66356 0.96643 0.31712 0.0
O139 O 0.68341 0.00605 0.34793 0.0
C140 C 0.97945 0.68338 0.35875 0.0
O141 O 0.98647 0.69943 0.35445 0.0
Cd142 Cd 0.01564 0.71574 0.34147 0.0
O143 O 0.98715 0.67502 0.35442 0.0
Cd144 Cd 0.01364 0.67956 0.33615 0.0
C145 C 0.03797 0.70453 0.37514 0.0
O146 O 0.01591 0.70077 0.31122 0.0
O147 O 0.03796 0.69687 0.31291 0.0
O148 O -0.00561 0.65405 0.3164 0.0
C149 C 0.03048 0.70384 0.30395 0.0
O150 O 0.03395 0.7155 0.36886 0.0
C151 C 0.00199 0.64563 0.32021 0.0
O152 O 0.03232 0.68994 0.36619 0.0
O153 O 0.01505 0.65283 0.33208 0.0
C154 C 0.35422 0.37059 0.32573 0.0
O155 O 0.34886 0.38037 0.33266 0.0
Cd156 Cd 0.32047 0.36868 0.348 0.0
O157 O 0.34548 0.35421 0.32886 0.0
Cd158 Cd 0.31933 0.33246 0.34845 0.0
C159 C 0.29466 0.33646 0.31286 0.0
O160 O 0.31856 0.35092 0.37599 0.0
O161 O 0.29546 0.32554 0.37213 0.0
O162 O 0.33908 0.32469 0.36389 0.0
C163 C 0.30339 0.33961 0.38224 0.0
O164 O 0.29986 0.35121 0.32128 0.0
C165 C 0.32958 0.30838 0.3611 0.0
O166 O 0.30004 0.3265 0.31906 0.0
O167 O 0.31521 0.30306 0.35182 0.0
C168 C 0.29048 0.97939 0.65905 0.0
O169 O 0.28201 0.98664 0.66477 0.0
Cd170 Cd 0.29455 0.01423 0.68153 0.0
O171 O 0.30672 0.98631 0.66307 0.0
Cd172 Cd 0.33027 0.01215 0.68152 0.0
C173 C 0.32763 0.03856 0.64658 0.0
O174 O 0.31156 0.01289 0.70833 0.0
O175 O 0.33809 0.03452 0.70807 0.0
O176 O 0.33818 0.99184 0.69524 0.0
C177 C 0.3231 0.02701 0.71642 0.0
O178 O 0.31306 0.0343 0.65511 0.0
C179 C 0.3545 0.00139 0.69196 0.0
O180 O 0.33684 0.03221 0.6526 0.0
O181 O 0.35962 0.01588 0.68318 0.0
C182 C 0.96966 0.34571 0.68258 0.0
O183 O 0.95431 0.33923 0.67557 0.0
Cd184 Cd 0.93917 0.31085 0.66056 0.0
O185 O 0.9784 0.33816 0.67964 0.0
Cd186 Cd 0.97593 0.31294 0.66016 0.0
C187 C 0.94769 0.2873 0.69612 0.0
O188 O 0.95637 0.3106 0.63275 0.0
O189 O 0.95857 0.28795 0.63797 0.0
O190 O 0.00346 0.33392 0.64429 0.0
C191 C 0.95249 0.29539 0.62726 0.0
O192 O 0.93727 0.29109 0.68749 0.0
C193 C 0.01098 0.32522 0.64664 0.0
O194 O 0.9635 0.29401 0.69001 0.0
O195 O 0.00233 0.31072 0.65587 0.0
C196 C 0.64289 0.62094 0.6858 0.0
O197 O 0.64868 0.61121 0.67996 0.0
Cd198 Cd 0.67718 0.62257 0.66524 0.0
O199 O 0.65159 0.63728 0.68255 0.0
Cd200 Cd 0.67847 0.65919 0.66488 0.0
C201 C 0.7025 0.65448 0.70067 0.0
O202 O 0.67849 0.64045 0.63771 0.0
O203 O 0.70186 0.66575 0.64051 0.0
O204 O 0.65916 0.66794 0.65065 0.0
C205 C 0.69352 0.65147 0.63089 0.0
O206 O 0.6977 0.63987 0.69212 0.0
C207 C 0.66922 0.68414 0.65363 0.0
O208 O 0.69688 0.66423 0.69448 0.0
O209 O 0.68372 0.6889 0.6623 0.0
C210 C 0.2721 0.30127 0.66151 0.0
O211 O 0.26324 0.28514 0.66569 0.0
Cd212 Cd 0.27672 0.26957 0.67753 0.0
O213 O 0.28847 0.30999 0.66498 0.0
Cd214 Cd 0.31156 0.30602 0.68028 0.0
C215 C 0.30875 0.28094 0.64051 0.0
O216 O 0.29432 0.28467 0.70642 0.0
O217 O 0.3194 0.2875 0.69911 0.0
O218 O 0.31983 0.33136 0.70134 0.0
C219 C 0.30589 0.28085 0.71043 0.0
O220 O 0.29431 0.26964 0.64866 0.0
C221 C 0.33562 0.34001 0.69535 0.0
O222 O 0.31793 0.29604 0.64835 0.0
O223 O 0.34042 0.3329 0.68199 0.0
C224 C 0.64888 0.02634 0.68722 0.0
O225 O 0.65617 0.04207 0.68138 0.0
Cd226 Cd 0.68285 0.05614 0.66215 0.0
O227 O 0.65532 0.0169 0.68236 0.0
Cd228 Cd 0.67994 0.01883 0.66229 0.0
C229 C 0.70917 0.04928 0.69457 0.0
O230 O 0.67916 0.03668 0.63502 0.0
O231 O 0.70145 0.03315 0.63495 0.0
O232 O 0.65908 0.99078 0.64803 0.0
C233 C 0.69293 0.03907 0.62614 0.0
O234 O 0.7051 0.05955 0.68619 0.0
C235 C 0.66762 0.98335 0.65209 0.0
O236 O 0.70151 0.03323 0.68955 0.0
O237 O 0.68192 0.99231 0.66162 0.0
C238 C 0.00501 0.69752 0.65047 0.0
O239 O -0.00305 0.70566 0.65365 0.0
Cd240 Cd 0.9684 0.69291 0.6683 0.0
O241 O -0.0017 0.6817 0.65608 0.0
Cd242 Cd 0.97137 0.65924 0.6745 0.0
C243 C 0.9458 0.65804 0.63574 0.0
O244 O 0.969 0.67888 0.69899 0.0
O245 O 0.94717 0.65251 0.69793 0.0
O246 O -0.00896 0.65238 0.6925 0.0
C247 C 0.9544 0.66738 0.70636 0.0
O248 O 0.94937 0.67303 0.64198 0.0
C249 C 0.98172 0.63599 0.69024 0.0
O250 O 0.95228 0.64988 0.64437 0.0
O251 O 0.96768 0.63032 0.68019 0.0
C252 C 0.20789 0.31788 0.13145 0.0
C253 C 0.20768 0.30827 0.11432 0.0
C254 C 0.19266 0.31271 0.14267 0.0
C255 C 0.17696 0.2976 0.13729 0.0
C256 C 0.19203 0.29298 0.10911 0.0
C257 C 0.17675 0.28776 0.12044 0.0
C258 C 0.16047 0.29355 0.14753 0.0
C259 C 0.19478 0.28916 0.19407 0.0
C260 C 0.20002 0.30169 0.20967 0.0
C261 C 0.1811 0.2861 0.181 0.0
C262 C 0.17249 0.29558 0.1833 0.0
C263 C 0.19085 0.31055 0.21242 0.0
C264 C 0.17725 0.30751 0.19944 0.0
C265 C 0.15879 0.29368 0.16896 0.0
C266 C 0.08987 0.28663 0.18805 0.0
C267 C 0.09586 0.30238 0.1988 0.0
C268 C 0.10152 0.28396 0.17625 0.0
C269 C 0.11926 0.29692 0.17528 0.0
C270 C 0.11351 0.31561 0.19672 0.0
C271 C 0.12511 0.31277 0.18539 0.0
C272 C 0.13226 0.29391 0.16509 0.0
C273 C 0.11217 0.31462 0.11664 0.0
C274 C 0.10292 0.30253 0.10112 0.0
C275 C 0.12177 0.31137 0.13078 0.0
C276 C 0.12225 0.29589 0.12981 0.0
C277 C 0.10337 0.287 0.10018 0.0
C278 C 0.11311 0.2838 0.1143 0.0
C279 C 0.13363 0.29325 0.14378 0.0
H280 H 0.21978 0.32963 0.13596 0.0
H281 H 0.19305 0.32091 0.15513 0.0
H282 H 0.19143 0.28544 0.09583 0.0
H283 H 0.16468 0.27627 0.11579 0.0
H284 H 0.20156 0.28208 0.19164 0.0
H285 H 0.17742 0.27653 0.16896 0.0
H286 H 0.19428 0.32 0.22457 0.0
H287 H 0.17076 0.3149 0.20171 0.0
H288 H 0.0764 0.27614 0.18937 0.0
H289 H 0.09685 0.2716 0.16854 0.0
H290 H 0.1185 0.32812 0.20414 0.0
H291 H 0.13877 0.32297 0.18461 0.0
H292 H 0.11198 0.32664 0.11789 0.0
H293 H 0.12919 0.32117 0.14218 0.0
H294 H 0.09651 0.27752 0.08826 0.0
H295 H 0.11359 0.27194 0.11306 0.0
N296 N 0.14769 0.29307 0.13578 0.0
N297 N 0.14479 0.29401 0.17683 0.0
C298 C 0.67768 0.88595 0.12359 0.0
C299 C 0.68793 0.89319 0.10603 0.0
C300 C 0.68043 0.87502 0.13612 0.0
C301 C 0.69396 0.87166 0.13181 0.0
C302 C 0.70093 0.88922 0.10111 0.0
C303 C 0.70394 0.87856 0.11395 0.0
C304 C 0.69675 0.85983 0.14492 0.0
C305 C 0.70258 0.90345 0.18631 0.0
C306 C 0.68884 0.89717 0.20062 0.0
C307 C 0.70551 0.89174 0.17506 0.0
C308 C 0.69483 0.87369 0.17822 0.0
C309 C 0.67849 0.87916 0.20396 0.0
C310 C 0.68153 0.86758 0.19299 0.0
C311 C 0.69695 0.86072 0.16642 0.0
C312 C 0.70396 0.79971 0.19342 0.0
C313 C 0.69248 0.79511 0.2102 0.0
C314 C 0.70534 0.81212 0.17931 0.0
C315 C 0.69513 0.81995 0.18173 0.0
C316 C 0.68204 0.80269 0.21217 0.0
C317 C 0.68342 0.81499 0.19821 0.0
C318 C 0.69686 0.83394 0.16812 0.0
C319 C 0.67304 0.78673 0.12733 0.0
C320 C 0.68247 0.78823 0.10942 0.0
C321 C 0.67823 0.80108 0.14006 0.0
C322 C 0.6931 0.8172 0.13529 0.0
C323 C 0.69772 0.80419 0.10502 0.0
C324 C 0.7029 0.8186 0.11778 0.0
C325 C 0.69671 0.83302 0.14665 0.0
H326 H 0.66734 0.88853 0.12744 0.0
H327 H 0.67179 0.86907 0.14905 0.0
H328 H 0.70893 0.89462 0.08757 0.0
H329 H 0.71415 0.8758 0.11001 0.0
H330 H 0.71078 0.91731 0.18358 0.0
H331 H 0.716 0.89672 0.1639 0.0
H332 H 0.66802 0.874 0.21516 0.0
H333 H 0.67317 0.85373 0.19576 0.0
H334 H 0.7122 0.7941 0.19153 0.0
H335 H 0.71464 0.81589 0.16687 0.0
H336 H 0.67274 0.79914 0.22461 0.0
H337 H 0.67526 0.82068 0.20035 0.0
H338 H 0.66129 0.77456 0.13117 0.0
H339 H 0.67008 0.79976 0.15308 0.0
H340 H 0.70514 0.80576 0.09121 0.0
H341 H 0.71423 0.831 0.11362 0.0
N342 N 0.69683 0.84609 0.13591 0.0
N343 N 0.697 0.84776 0.17704 0.0
C344 C 0.10829 0.79447 0.10972 0.0
C345 C 0.09896 0.79712 0.0944 0.0
C346 C 0.11776 0.80744 0.12411 0.0
C347 C 0.11797 0.82327 0.12358 0.0
C348 C 0.09925 0.81302 0.09383 0.0
C349 C 0.10881 0.82604 0.10821 0.0
C350 C 0.12899 0.83746 0.13788 0.0
C351 C 0.08709 0.79507 0.17777 0.0
C352 C 0.0939 0.7885 0.19213 0.0
C353 C 0.09831 0.81002 0.16651 0.0
C354 C 0.11647 0.81858 0.16952 0.0
C355 C 0.1121 0.79702 0.19482 0.0
C356 C 0.12323 0.81191 0.1837 0.0
C357 C 0.12866 0.83506 0.1591 0.0
C358 C 0.18308 0.90551 0.19181 0.0
C359 C 0.19031 0.89946 0.2063 0.0
C360 C 0.17123 0.89407 0.1773 0.0
C361 C 0.16651 0.87645 0.17709 0.0
C362 C 0.18575 0.88188 0.20565 0.0
C363 C 0.17389 0.87051 0.19137 0.0
C364 C 0.15344 0.8637 0.16277 0.0
C365 C 0.19991 0.8974 0.1228 0.0
C366 C 0.19652 0.90345 0.10478 0.0
C367 C 0.18617 0.88589 0.13539 0.0
C368 C 0.16878 0.8807 0.13056 0.0
C369 C 0.17925 0.89865 0.10011 0.0
C370 C 0.1655 0.88743 0.11297 0.0
C371 C 0.15398 0.86606 0.14147 0.0
H372 H 0.1082 0.78231 0.11067 0.0
H373 H 0.12517 0.8052 0.13543 0.0
H374 H 0.09234 0.81551 0.08207 0.0
H375 H 0.10909 0.8383 0.10731 0.0
H376 H 0.07311 0.78876 0.17538 0.0
H377 H 0.09278 0.8151 0.15588 0.0
H378 H 0.11775 0.79251 0.20602 0.0
H379 H 0.13719 0.81836 0.18634 0.0
H380 H 0.18626 0.91896 0.19197 0.0
H381 H 0.16551 0.89888 0.16656 0.0
H382 H 0.19139 0.87684 0.21619 0.0
H383 H 0.17056 0.85701 0.19139 0.0
H384 H 0.2131 0.90062 0.12645 0.0
H385 H 0.18916 0.88025 0.14811 0.0
H386 H 0.17636 0.90311 0.08619 0.0
H387 H 0.15221 0.88339 0.1087 0.0
N388 N 0.14158 0.85289 0.12992 0.0
N389 N 0.14085 0.84828 0.17064 0.0
C390 C 0.31104 0.10765 0.82962 0.0
C391 C 0.29682 0.09434 0.81879 0.0
C392 C 0.3088 0.11903 0.84222 0.0
C393 C 0.29237 0.11754 0.84406 0.0
C394 C 0.28027 0.09277 0.82103 0.0
C395 C 0.27815 0.10444 0.8333 0.0
C396 C 0.29034 0.13025 0.8564 0.0
C397 C 0.29167 0.0925 0.90029 0.0
C398 C 0.30533 0.10015 0.91452 0.0
C399 C 0.28787 0.10287 0.88807 0.0
C400 C 0.29785 0.12111 0.88961 0.0
C401 C 0.31518 0.1184 0.91615 0.0
C402 C 0.31144 0.12876 0.90385 0.0
C403 C 0.29366 0.13238 0.87747 0.0
C404 C 0.27854 0.18894 0.90099 0.0
C405 C 0.29288 0.19856 0.91399 0.0
C406 C 0.27749 0.1754 0.88902 0.0
C407 C 0.29082 0.17137 0.8898 0.0
C408 C 0.30605 0.19428 0.91481 0.0
C409 C 0.30495 0.18077 0.90297 0.0
C410 C 0.29019 0.15716 0.87748 0.0
C411 C 0.29775 0.19817 0.83238 0.0
C412 C 0.28622 0.19237 0.81587 0.0
C413 C 0.29787 0.1862 0.84583 0.0
C414 C 0.28598 0.16823 0.84347 0.0
C415 C 0.27439 0.17448 0.81337 0.0
C416 C 0.27422 0.16251 0.82713 0.0
C417 C 0.28717 0.15525 0.85626 0.0
H418 H 0.32407 0.10966 0.828 0.0
H419 H 0.32 0.12928 0.85018 0.0
H420 H 0.26891 0.08254 0.81332 0.0
H421 H 0.26537 0.10314 0.83455 0.0
H422 H 0.28392 0.07848 0.89853 0.0
H423 H 0.27694 0.0966 0.8777 0.0
H424 H 0.3256 0.12471 0.92717 0.0
H425 H 0.31918 0.1428 0.90549 0.0
H426 H 0.26808 0.19177 0.90018 0.0
H427 H 0.26628 0.16806 0.87925 0.0
H428 H 0.31745 0.20162 0.9243 0.0
H429 H 0.31538 0.17787 0.90382 0.0
H430 H 0.30724 0.21191 0.83429 0.0
H431 H 0.30777 0.19102 0.85753 0.0
H432 H 0.26548 0.16976 0.80062 0.0
H433 H 0.26514 0.14873 0.82473 0.0
N434 N 0.2872 0.14173 0.8466 0.0
N435 N 0.29343 0.14573 0.88715 0.0
C436 C 0.90513 0.19507 0.89439 0.0
C437 C 0.89842 0.20233 0.90829 0.0
C438 C 0.89383 0.18092 0.88208 0.0
C439 C 0.87566 0.17382 0.88347 0.0
C440 C 0.8802 0.19518 0.90944 0.0
C441 C 0.86898 0.18103 0.89733 0.0
C442 C 0.86322 0.15866 0.87111 0.0
C443 C 0.88944 0.20237 0.82596 0.0
C444 C 0.89757 0.19945 0.8092 0.0
C445 C 0.87933 0.189 0.83964 0.0
C446 C 0.8774 0.17245 0.83716 0.0
C447 C 0.89607 0.18305 0.80702 0.0
C448 C 0.88596 0.16963 0.82081 0.0
C449 C 0.86454 0.15761 0.84976 0.0
C450 C 0.79306 0.10609 0.82456 0.0
C451 C 0.79637 0.09795 0.80817 0.0
C452 C 0.80611 0.11597 0.83866 0.0
C453 C 0.82269 0.11769 0.8369 0.0
C454 C 0.81274 0.09913 0.8068 0.0
C455 C 0.82583 0.10905 0.82097 0.0
C456 C 0.83733 0.1305 0.84964 0.0
C457 C 0.79877 0.09039 0.89453 0.0
C458 C 0.79151 0.09737 0.90805 0.0
C459 C 0.81313 0.1014 0.88214 0.0
C460 C 0.82043 0.11954 0.88312 0.0
C461 C 0.79877 0.11554 0.90864 0.0
C462 C 0.81313 0.12646 0.89649 0.0
C463 C 0.83598 0.13172 0.87096 0.0
H464 H 0.91908 0.20013 0.89325 0.0
H465 H 0.89925 0.17539 0.87169 0.0
H466 H 0.87454 0.20066 0.91954 0.0
H467 H 0.85501 0.17585 0.89859 0.0
H468 H 0.89044 0.21489 0.82815 0.0
H469 H 0.87238 0.19142 0.8516 0.0
H470 H 0.902 0.18032 0.79414 0.0
H471 H 0.8844 0.15689 0.81836 0.0
H472 H 0.78054 0.10534 0.82608 0.0
H473 H 0.80347 0.12297 0.85032 0.0
H474 H 0.81572 0.09316 0.79421 0.0
H475 H 0.83862 0.11045 0.8191 0.0
H476 H 0.7936 0.07647 0.89379 0.0
H477 H 0.8187 0.09579 0.8721 0.0
H478 H 0.79328 0.1214 0.9184 0.0
H479 H 0.81845 0.14041 0.89739 0.0
N480 N 0.84899 0.14572 0.88076 0.0
N481 N 0.85162 0.14346 0.83992 0.0
C482 C 0.79114 0.70387 0.89527 0.0
C483 C 0.78413 0.69103 0.91054 0.0
C484 C 0.80614 0.70719 0.8844 0.0
C485 C 0.81422 0.69747 0.8883 0.0
C486 C 0.79277 0.68194 0.91501 0.0
C487 C 0.80759 0.6851 0.90401 0.0
C488 C 0.82955 0.69988 0.87633 0.0
C489 C 0.78651 0.6806 0.83023 0.0
C490 C 0.78969 0.69179 0.81372 0.0
C491 C 0.79975 0.68412 0.84403 0.0
C492 C 0.81636 0.69912 0.84188 0.0
C493 C 0.8062 0.70702 0.81182 0.0
C494 C 0.81947 0.71057 0.82571 0.0
C495 C 0.83094 0.70164 0.85491 0.0
C496 C 0.88395 0.68321 0.83224 0.0
C497 C 0.89282 0.69498 0.81628 0.0
C498 C 0.87313 0.68578 0.84555 0.0
C499 C 0.87116 0.70034 0.84343 0.0
C500 C 0.89111 0.70974 0.81443 0.0
C501 C 0.88028 0.71232 0.8278 0.0
C502 C 0.85794 0.70187 0.85568 0.0
C503 C 0.8972 0.70449 0.90116 0.0
C504 C 0.88983 0.69011 0.91447 0.0
C505 C 0.88646 0.70779 0.88881 0.0
C506 C 0.86821 0.69676 0.8896 0.0
C507 C 0.87154 0.67915 0.91509 0.0
C508 C 0.86088 0.68254 0.90294 0.0
C509 C 0.85636 0.6998 0.87703 0.0
H510 H 0.78483 0.71112 0.89137 0.0
H511 H 0.81129 0.71721 0.87282 0.0
H512 H 0.78806 0.6723 0.92701 0.0
H513 H 0.81368 0.67757 0.90756 0.0
H514 H 0.77389 0.66883 0.8322 0.0
H515 H 0.79715 0.67478 0.85597 0.0
H516 H 0.80911 0.71577 0.7991 0.0
H517 H 0.83229 0.72205 0.82357 0.0
H518 H 0.88507 0.67178 0.83419 0.0
H519 H 0.86578 0.67599 0.857 0.0
H520 H 0.89755 0.71892 0.80213 0.0
H521 H 0.8787 0.72346 0.82563 0.0
H522 H 0.91122 0.71329 0.90047 0.0
H523 H 0.89236 0.719 0.87882 0.0
H524 H 0.8654 0.66773 0.92474 0.0
H525 H 0.84683 0.6738 0.90371 0.0
N526 N 0.84229 0.69897 0.88644 0.0
N527 N 0.84519 0.70279 0.84549 0.0
C528 C 0.74917 0.61181 0.44367 0.0
C529 C 0.75614 0.62489 0.42867 0.0
C530 C 0.76012 0.60801 0.4549 0.0
C531 C 0.77833 0.61748 0.45166 0.0
C532 C 0.77425 0.63369 0.4248 0.0
C533 C 0.78518 0.63006 0.43617 0.0
C534 C 0.79053 0.61471 0.4642 0.0
C535 C 0.7657 0.63404 0.50856 0.0
C536 C 0.75597 0.62243 0.52429 0.0
C537 C 0.77612 0.63061 0.49567 0.0
C538 C 0.77676 0.61531 0.49797 0.0
C539 C 0.75648 0.60702 0.52647 0.0
C540 C 0.76691 0.60356 0.51349 0.0
C541 C 0.78915 0.61264 0.4856 0.0
C542 C 0.85937 0.63305 0.51279 0.0
C543 C 0.85759 0.61936 0.52511 0.0
C544 C 0.84599 0.63054 0.49972 0.0
C545 C 0.83043 0.61436 0.49873 0.0
C546 C 0.84199 0.60304 0.52385 0.0
C547 C 0.82846 0.60064 0.51093 0.0
C548 C 0.81588 0.6124 0.48607 0.0
C549 C 0.85634 0.61348 0.44282 0.0
C550 C 0.86415 0.62861 0.43071 0.0
C551 C 0.84115 0.60891 0.45412 0.0
C552 C 0.8336 0.61939 0.4534 0.0
C553 C 0.85653 0.63906 0.43028 0.0
C554 C 0.84136 0.63441 0.44133 0.0
C555 C 0.81755 0.61507 0.46486 0.0
H556 H 0.73529 0.60476 0.44711 0.0
H557 H 0.75437 0.59784 0.46628 0.0
H558 H 0.78007 0.64349 0.413 0.0
H559 H 0.79913 0.63743 0.43311 0.0
H560 H 0.76548 0.64596 0.50639 0.0
H561 H 0.78404 0.64017 0.48423 0.0
H562 H 0.74932 0.59795 0.53865 0.0
H563 H 0.7675 0.59186 0.51574 0.0
H564 H 0.87087 0.64594 0.51365 0.0
H565 H 0.8476 0.64143 0.49077 0.0
H566 H 0.84016 0.59212 0.53286 0.0
H567 H 0.81646 0.58808 0.51047 0.0
H568 H 0.8618 0.60507 0.44336 0.0
H569 H 0.83522 0.59714 0.46319 0.0
H570 H 0.86241 0.65105 0.42163 0.0
H571 H 0.83583 0.64278 0.44072 0.0
N572 N 0.80477 0.61596 0.45478 0.0
N573 N 0.80174 0.61132 0.49567 0.0
C574 C 0.34468 0.21939 0.45436 0.0
C575 C 0.35714 0.22975 0.43953 0.0
C576 C 0.34799 0.20935 0.46776 0.0
C577 C 0.36389 0.20957 0.46676 0.0
C578 C 0.37301 0.22983 0.43843 0.0
C579 C 0.37627 0.21969 0.45182 0.0
C580 C 0.36698 0.19825 0.48028 0.0
C581 C 0.36502 0.23847 0.52084 0.0
C582 C 0.35071 0.2309 0.53441 0.0
C583 C 0.36986 0.22798 0.50999 0.0
C584 C 0.36051 0.20981 0.5127 0.0
C585 C 0.34158 0.21275 0.53719 0.0
C586 C 0.34647 0.20236 0.52653 0.0
C587 C 0.3651 0.19819 0.50163 0.0
C588 C 0.37606 0.1392 0.52845 0.0
C589 C 0.36202 0.13156 0.5424 0.0
C590 C 0.37846 0.15301 0.51603 0.0
C591 C 0.36685 0.15932 0.51745 0.0
C592 C 0.35094 0.13842 0.54428 0.0
C593 C 0.35337 0.15215 0.53202 0.0
C594 C 0.36814 0.17315 0.50388 0.0
C595 C 0.35399 0.12731 0.46293 0.0
C596 C 0.36434 0.13073 0.44538 0.0
C597 C 0.356 0.14097 0.47529 0.0
C598 C 0.36891 0.15828 0.47084 0.0
C599 C 0.37717 0.14798 0.44076 0.0
C600 C 0.3795 0.16164 0.45346 0.0
C601 C 0.3697 0.17298 0.48242 0.0
H602 H 0.3324 0.21914 0.45571 0.0
H603 H 0.33801 0.20125 0.47878 0.0
H604 H 0.38277 0.23751 0.42702 0.0
H605 H 0.38848 0.21978 0.45056 0.0
H606 H 0.37232 0.25244 0.51848 0.0
H607 H 0.38093 0.23404 0.49962 0.0
H608 H 0.33073 0.20657 0.54784 0.0
H609 H 0.33912 0.1884 0.52897 0.0
H610 H 0.38485 0.13421 0.52678 0.0
H611 H 0.38918 0.15857 0.50517 0.0
H612 H 0.34026 0.13308 0.55521 0.0
H613 H 0.34432 0.15685 0.53358 0.0
H614 H 0.34369 0.11415 0.46647 0.0
H615 H 0.3469 0.13796 0.4878 0.0
H616 H 0.38516 0.15089 0.42715 0.0
H617 H 0.38925 0.17489 0.44942 0.0
N618 N 0.36931 0.18571 0.47153 0.0
N619 N 0.3658 0.18569 0.51251 0.0
C620 C 0.77186 0.13804 0.41779 0.0
C621 C 0.75371 0.13126 0.41938 0.0
C622 C 0.78345 0.15191 0.4301 0.0
C623 C 0.77715 0.15907 0.44449 0.0
C624 C 0.74755 0.13927 0.43292 0.0
C625 C 0.75916 0.15302 0.44542 0.0
C626 C 0.78939 0.1719 0.45934 0.0
C627 C 0.75137 0.1401 0.51746 0.0
C628 C 0.74901 0.12368 0.5125 0.0
C629 C 0.76308 0.15484 0.50633 0.0
C630 C 0.77246 0.15342 0.48992 0.0
C631 C 0.75794 0.12219 0.49555 0.0
C632 C 0.76966 0.13694 0.48447 0.0
C633 C 0.78691 0.16935 0.4806 0.0
C634 C 0.84929 0.2339 0.51533 0.0
C635 C 0.85562 0.22597 0.52849 0.0
C636 C 0.8359 0.22386 0.50156 0.0
C637 C 0.82845 0.20572 0.50088 0.0
C638 C 0.84807 0.20774 0.52759 0.0
C639 C 0.83451 0.19773 0.5141 0.0
C640 C 0.81458 0.1949 0.48618 0.0
C641 C 0.86417 0.21752 0.44866 0.0
C642 C 0.86688 0.23223 0.43776 0.0
C643 C 0.84809 0.20645 0.45791 0.0
C644 C 0.83434 0.20972 0.45626 0.0
C645 C 0.85306 0.23563 0.43652 0.0
C646 C 0.83684 0.22432 0.44552 0.0
C647 C 0.8172 0.19725 0.46502 0.0
H648 H 0.77712 0.13213 0.40777 0.0
H649 H 0.7973 0.15639 0.42916 0.0
H650 H 0.73371 0.13469 0.43421 0.0
H651 H 0.75407 0.15861 0.45619 0.0
H652 H 0.74491 0.14174 0.53062 0.0
H653 H 0.76527 0.16748 0.51099 0.0
H654 H 0.75632 0.1097 0.49129 0.0
H655 H 0.77714 0.13555 0.47227 0.0
H656 H 0.85452 0.24782 0.51579 0.0
H657 H 0.83127 0.23024 0.49156 0.0
H658 H 0.8528 0.20115 0.53706 0.0
H659 H 0.82902 0.18375 0.51365 0.0
H660 H 0.87427 0.21418 0.44957 0.0
H661 H 0.84623 0.19506 0.46596 0.0
H662 H 0.85473 0.24695 0.42853 0.0
H663 H 0.82627 0.22696 0.44415 0.0
N664 N 0.80455 0.1857 0.45232 0.0
N665 N 0.79957 0.181 0.49321 0.0
C666 C 0.96651 0.53548 0.15875 0.0
C667 C 0.97977 0.54377 0.14396 0.0
C668 C 0.96509 0.52158 0.17004 0.0
C669 C 0.97704 0.51589 0.16692 0.0
C670 C -0.00862 0.53768 0.14052 0.0
C671 C -0.01 0.52388 0.15184 0.0
C672 C 0.9761 0.50147 0.17894 0.0
C673 C 0.9895 0.54492 0.22287 0.0
C674 C 0.97815 0.54081 0.23959 0.0
C675 C 0.98824 0.53177 0.21014 0.0
C676 C 0.97514 0.51431 0.21342 0.0
C677 C 0.96549 0.52335 0.24342 0.0
C678 C 0.96395 0.51019 0.23037 0.0
C679 C 0.97405 0.50019 0.20036 0.0
C680 C -0.00979 0.44607 0.22353 0.0
C681 C 0.97689 0.43643 0.23782 0.0
C682 C 0.98901 0.45769 0.21051 0.0
C683 C 0.97442 0.4598 0.2115 0.0
C684 C 0.96215 0.43833 0.23856 0.0
C685 C 0.96101 0.45007 0.22561 0.0
C686 C 0.97402 0.47345 0.19947 0.0
C687 C 0.96955 0.4337 0.15279 0.0
C688 C 0.98455 0.44017 0.14028 0.0
C689 C 0.96707 0.44493 0.1655 0.0
C690 C 0.97948 0.46283 0.1658 0.0
C691 C -0.00291 0.45809 0.14109 0.0
C692 C -0.00553 0.4693 0.1535 0.0
C693 C 0.97681 0.47512 0.17824 0.0
H694 H 0.95736 0.53986 0.16176 0.0
H695 H 0.95469 0.51533 0.18125 0.0
H696 H 0.00148 0.54348 0.12891 0.0
H697 H -0.00076 0.51957 0.14898 0.0
H698 H -0.00041 0.5583 0.21991 0.0
H699 H -0.0023 0.53529 0.19792 0.0
H700 H 0.95667 0.51993 0.25633 0.0
H701 H 0.95401 0.49679 0.2335 0.0
H702 H 0.00166 0.44476 0.22255 0.0
H703 H -0.00026 0.46542 0.20013 0.0
H704 H 0.95178 0.43117 0.24957 0.0
H705 H 0.94978 0.45174 0.2268 0.0
H706 H 0.95949 0.42005 0.15241 0.0
H707 H 0.9553 0.43972 0.17472 0.0
H708 H 0.00902 0.46354 0.13214 0.0
H709 H 0.00425 0.48307 0.15362 0.0
N710 N 0.97766 0.48901 0.16879 0.0
N711 N 0.9728 0.48606 0.20971 0.0
C712 C 0.47265 0.4197 0.14946 0.0
C713 C 0.46739 0.42512 0.13225 0.0
C714 C 0.48405 0.43204 0.16366 0.0
C715 C 0.48994 0.44985 0.16099 0.0
C716 C 0.47318 0.44286 0.12983 0.0
C717 C 0.48428 0.45503 0.14399 0.0
C718 C 0.50271 0.46363 0.17476 0.0
C719 C 0.45562 0.43172 0.21504 0.0
C720 C 0.45891 0.42669 0.2339 0.0
C721 C 0.46948 0.44304 0.20238 0.0
C722 C 0.4869 0.44907 0.20799 0.0
C723 C 0.47627 0.43256 0.23949 0.0
C724 C 0.49012 0.44359 0.22661 0.0
C725 C 0.50172 0.46304 0.19628 0.0
C726 C 0.54487 0.5371 0.22051 0.0
C727 C 0.55455 0.5365 0.23697 0.0
C728 C 0.53597 0.52278 0.20759 0.0
C729 C 0.53675 0.50764 0.21066 0.0
C730 C 0.55531 0.52132 0.24004 0.0
C731 C 0.54635 0.50694 0.22708 0.0
C732 C 0.52638 0.49211 0.19776 0.0
C733 C 0.56715 0.53374 0.15606 0.0
C734 C 0.55946 0.53882 0.14107 0.0
C735 C 0.55679 0.51878 0.1678 0.0
C736 C 0.53866 0.50869 0.16452 0.0
C737 C 0.54136 0.52856 0.13778 0.0
C738 C 0.53112 0.51365 0.14928 0.0
C739 C 0.52714 0.49274 0.17632 0.0
H740 H 0.46831 0.40605 0.15162 0.0
H741 H 0.48847 0.42773 0.17645 0.0
H742 H 0.46906 0.44735 0.11692 0.0
H743 H 0.48849 0.46863 0.14159 0.0
H744 H 0.44237 0.42768 0.21061 0.0
H745 H 0.4665 0.44771 0.18871 0.0
H746 H 0.47912 0.4289 0.25401 0.0
H747 H 0.50342 0.4483 0.2315 0.0
H748 H 0.54412 0.54864 0.21764 0.0
H749 H 0.52821 0.52345 0.19539 0.0
H750 H 0.56248 0.52039 0.25274 0.0
H751 H 0.54684 0.49525 0.22992 0.0
H752 H 0.58109 0.54141 0.15884 0.0
H753 H 0.56292 0.51504 0.17927 0.0
H754 H 0.5351 0.53194 0.12607 0.0
H755 H 0.51718 0.50604 0.14639 0.0
N756 N 0.51536 0.47847 0.1658 0.0
N757 N 0.51379 0.47726 0.20689 0.0
C758 C 0.44933 0.019 0.22483 0.0
C759 C 0.44212 0.00648 0.24043 0.0
C760 C 0.4633 0.02079 0.21296 0.0
C761 C 0.47012 0.00985 0.21619 0.0
C762 C 0.44923 -0.0042 0.24385 0.0
C763 C 0.46304 -0.00253 0.23187 0.0
C764 C 0.48512 0.01159 0.20415 0.0
C765 C 0.4428 -0.00425 0.15775 0.0
C766 C 0.44671 0.00761 0.14177 0.0
C767 C 0.45572 -0.00188 0.17148 0.0
C768 C 0.47276 0.01255 0.16973 0.0
C769 C 0.46368 0.02223 0.14024 0.0
C770 C 0.47663 0.0246 0.15403 0.0
C771 C 0.48689 0.01402 0.18282 0.0
C772 C 0.54236 -0.00177 0.16062 0.0
C773 C 0.55206 0.01119 0.14607 0.0
C774 C 0.53025 -0.00059 0.1732 0.0
C775 C 0.52773 0.01367 0.17168 0.0
C776 C 0.54965 0.02555 0.14469 0.0
C777 C 0.53749 0.0267 0.15728 0.0
C778 C 0.51385 0.0142 0.1837 0.0
C779 C 0.55286 0.01789 0.23039 0.0
C780 C 0.5459 0.00301 0.24288 0.0
C781 C 0.54192 0.02064 0.21773 0.0
C782 C 0.52387 0.0086 0.21744 0.0
C783 C 0.52782 0.99094 0.24226 0.0
C784 C 0.51692 0.99381 0.22986 0.0
C785 C 0.51184 0.01137 0.2049 0.0
H786 H 0.44413 0.02739 0.22167 0.0
H787 H 0.46884 0.03082 0.2014 0.0
H788 H 0.44432 0.98629 0.25599 0.0
H789 H 0.46818 0.989 0.23487 0.0
H790 H 0.42982 0.98442 0.15942 0.0
H791 H 0.45251 0.98834 0.18307 0.0
H792 H 0.46715 0.03146 0.12793 0.0
H793 H 0.48976 0.03567 0.15221 0.0
H794 H 0.54397 0.98706 0.16214 0.0
H795 H 0.52251 0.98889 0.18372 0.0
H796 H 0.55673 0.03562 0.13343 0.0
H797 H 0.53555 0.03767 0.15563 0.0
H798 H 0.56668 0.02756 0.23065 0.0
H799 H 0.54748 0.03229 0.20846 0.0
H800 H 0.52202 0.97912 0.25123 0.0
H801 H 0.50302 0.98433 0.22978 0.0
N802 N 0.49763 0.01024 0.21425 0.0
N803 N 0.5013 0.01545 0.17348 0.0
C804 C 0.54107 0.98807 0.79198 0.0
C805 C 0.54101 0.97896 0.77443 0.0
C806 C 0.52576 0.98251 0.8032 0.0
C807 C 0.51011 0.96756 0.7973 0.0
C808 C 0.52542 0.96382 0.76871 0.0
C809 C 0.51005 0.95825 0.77998 0.0
C810 C 0.49355 0.96303 0.80771 0.0
C811 C 0.52724 0.95594 0.85254 0.0
C812 C 0.53266 0.9679 0.86877 0.0
C813 C 0.51366 0.95363 0.83976 0.0
C814 C 0.5053 0.96324 0.84305 0.0
C815 C 0.5238 0.97697 0.87243 0.0
C816 C 0.51024 0.9746 0.85978 0.0
C817 C 0.49165 0.96198 0.82913 0.0
C818 C 0.4202 0.95413 0.84208 0.0
C819 C 0.42501 0.96685 0.85736 0.0
C820 C 0.433 0.95213 0.83194 0.0
C821 C 0.45073 0.9628 0.83702 0.0
C822 C 0.44273 0.97721 0.86264 0.0
C823 C 0.45543 0.97514 0.85265 0.0
C824 C 0.46469 0.96155 0.82619 0.0
C825 C 0.44315 0.98334 0.7812 0.0
C826 C 0.43401 0.97181 0.76517 0.0
C827 C 0.45355 0.98013 0.79415 0.0
C828 C 0.45496 0.96528 0.79141 0.0
C829 C 0.43555 0.95699 0.76235 0.0
C830 C 0.4461 0.95386 0.77525 0.0
C831 C 0.46644 0.96228 0.80479 0.0
H832 H 0.55291 -0.0003 0.79684 0.0
H833 H 0.52603 0.99026 0.81611 0.0
H834 H 0.52495 0.95667 0.7551 0.0
H835 H 0.49803 0.94688 0.77497 0.0
H836 H 0.5338 0.94874 0.8494 0.0
H837 H 0.50984 0.94449 0.82721 0.0
H838 H 0.52743 0.98601 0.88506 0.0
H839 H 0.50393 0.98206 0.86277 0.0
H840 H 0.40662 0.94594 0.83779 0.0
H841 H 0.42906 0.94231 0.82014 0.0
H842 H 0.44678 0.98686 0.87466 0.0
H843 H 0.46902 0.98344 0.85689 0.0
H844 H 0.44212 -0.00522 0.78387 0.0
H845 H 0.46059 0.98933 0.80626 0.0
H846 H 0.42879 0.94797 0.74999 0.0
H847 H 0.44724 0.94247 0.77272 0.0
N848 N 0.48078 0.96294 0.79635 0.0
N849 N 0.47734 0.96141 0.8375 0.0
C850 C 0.00034 0.53789 0.76337 0.0
C851 C 0.00965 0.55603 0.76654 0.0
C852 C 0.00336 0.52694 0.77555 0.0
C853 C 0.01578 0.53381 0.79119 0.0
C854 C 0.02253 0.56296 0.78178 0.0
C855 C 0.02568 0.55198 0.79383 0.0
C856 C 0.01811 0.52171 0.80441 0.0
C857 C 0.0276 0.55749 0.86529 0.0
C858 C 0.01289 0.55931 0.86303 0.0
C859 C 0.02988 0.54606 0.85278 0.0
C860 C 0.01764 0.53641 0.83762 0.0
C861 C 0.00078 0.5498 0.84762 0.0
C862 C 0.00307 0.53838 0.83512 0.0
C863 C 0.01934 0.52317 0.82585 0.0
C864 C 0.03049 0.46377 0.84989 0.0
C865 C 0.01821 0.45701 0.86593 0.0
C866 C 0.03167 0.47707 0.83749 0.0
C867 C 0.02057 0.48378 0.84098 0.0
C868 C 0.00767 0.46427 0.86979 0.0
C869 C 0.0089 0.47753 0.85753 0.0
C870 C 0.02059 0.49707 0.82753 0.0
C871 C 0.00181 0.44884 0.78847 0.0
C872 C 0.01059 0.45161 0.76976 0.0
C873 C 0.0047 0.46299 0.8006 0.0
C874 C 0.01691 0.48013 0.79456 0.0
C875 C 0.02271 0.46869 0.76367 0.0
C876 C 0.02588 0.48281 0.77599 0.0
C877 C 0.01896 0.49537 0.80612 0.0
H878 H -0.00933 0.53209 0.75146 0.0
H879 H -0.00429 0.513 0.77295 0.0
H880 H 0.02994 0.57684 0.78474 0.0
H881 H 0.03576 0.55771 0.80532 0.0
H882 H 0.03701 0.5644 0.87722 0.0
H883 H 0.04107 0.54454 0.85516 0.0
H884 H 0.98936 0.55098 0.84542 0.0
H885 H -0.00678 0.53076 0.82387 0.0
H886 H 0.03883 0.45846 0.84661 0.0
H887 H 0.04103 0.48193 0.82504 0.0
H888 H -0.00165 0.4596 0.88229 0.0
H889 H 0.00032 0.4826 0.86066 0.0
H890 H -0.00787 0.43578 0.79327 0.0
H891 H -0.00306 0.4605 0.81431 0.0
H892 H 0.0296 0.47112 0.74926 0.0
H893 H 0.03513 0.49589 0.77082 0.0
N894 N 0.01794 0.50784 0.79547 0.0
N895 N 0.02063 0.51087 0.83649 0.0
C896 C 0.52012 0.56746 0.77002 0.0
C897 C 0.52769 0.56017 0.75748 0.0
C898 C 0.50543 0.55671 0.78207 0.0
C899 C 0.49827 0.53857 0.78182 0.0
C900 C 0.52031 0.542 0.75728 0.0
C901 C 0.50572 0.53135 0.76918 0.0
C902 C 0.48293 0.52665 0.79429 0.0
C903 C 0.52633 0.55848 0.83897 0.0
C904 C 0.52171 0.56552 0.85535 0.0
C905 C 0.51351 0.5466 0.82571 0.0
C906 C 0.49593 0.54208 0.82813 0.0
C907 C 0.50419 0.56098 0.8579 0.0
C908 C 0.49144 0.54943 0.84435 0.0
C909 C 0.48184 0.52819 0.81562 0.0
C910 C 0.4296 0.45604 0.83951 0.0
C911 C 0.42111 0.45886 0.85595 0.0
C912 C 0.44021 0.46958 0.82628 0.0
C913 C 0.44226 0.48616 0.82889 0.0
C914 C 0.42303 0.47542 0.85846 0.0
C915 C 0.43361 0.48898 0.8451 0.0
C916 C 0.45491 0.50089 0.81612 0.0
C917 C 0.41257 0.4633 0.77457 0.0
C918 C 0.41818 0.45468 0.76122 0.0
C919 C 0.42472 0.4781 0.7853 0.0
C920 C 0.44271 0.48458 0.78285 0.0
C921 C 0.43625 0.46154 0.75844 0.0
C922 C 0.44837 0.47641 0.76902 0.0
C923 C 0.45579 0.49969 0.79476 0.0
H924 H 0.52544 0.58141 0.77038 0.0
H925 H 0.49969 0.56251 0.79152 0.0
H926 H 0.52603 0.53595 0.74822 0.0
H927 H 0.50044 0.51739 0.76882 0.0
H928 H 0.53972 0.56153 0.83702 0.0
H929 H 0.51731 0.54047 0.81412 0.0
H930 H 0.50035 0.56618 0.87055 0.0
H931 H 0.47796 0.54593 0.8468 0.0
H932 H 0.4283 0.44342 0.83705 0.0
H933 H 0.44724 0.46718 0.81438 0.0
H934 H 0.41686 0.47807 0.87115 0.0
H935 H 0.43528 0.50176 0.84762 0.0
H936 H 0.39878 0.45861 0.77676 0.0
H937 H 0.42008 0.48443 0.79559 0.0
H938 H 0.44108 0.45515 0.74854 0.0
H939 H 0.46221 0.48121 0.76689 0.0
N940 N 0.46983 0.5125 0.78476 0.0
N941 N 0.46781 0.51522 0.82566 0.0
C942 C 0.64614 0.77107 0.50246 0.0
C943 C 0.63433 0.76387 0.48629 0.0
C944 C 0.6454 0.783 0.51573 0.0
C945 C 0.63238 0.78739 0.5135 0.0
C946 C 0.62146 0.76837 0.48386 0.0
C947 C 0.62044 0.77995 0.49742 0.0
C948 C 0.63214 0.80101 0.52633 0.0
C949 C 0.62898 0.7606 0.56979 0.0
C950 C 0.64273 0.76725 0.58396 0.0
C951 C 0.62601 0.77188 0.55813 0.0
C952 C 0.63697 0.79 0.56011 0.0
C953 C 0.65316 0.7854 0.58647 0.0
C954 C 0.65032 0.79662 0.57466 0.0
C955 C 0.63461 0.8024 0.54768 0.0
C956 C 0.62446 0.86217 0.57049 0.0
C957 C 0.6389 0.8716 0.58343 0.0
C958 C 0.62287 0.84829 0.55882 0.0
C959 C 0.63561 0.8435 0.55997 0.0
C960 C 0.6515 0.86655 0.58466 0.0
C961 C 0.64976 0.85253 0.57321 0.0
C962 C 0.63422 0.82892 0.54772 0.0
C963 C 0.6487 0.87212 0.50303 0.0
C964 C 0.63654 0.86827 0.4874 0.0
C965 C 0.64695 0.85905 0.51608 0.0
C966 C 0.63287 0.84189 0.51397 0.0
C967 C 0.62234 0.85113 0.48545 0.0
C968 C 0.6206 0.83803 0.49854 0.0
C969 C 0.63195 0.8277 0.52644 0.0
H970 H 0.6564 0.76803 0.50431 0.0
H971 H 0.65533 0.78913 0.52732 0.0
H972 H 0.61232 0.76304 0.47135 0.0
H973 H 0.61048 0.78334 0.49513 0.0
H974 H 0.62072 0.74669 0.56742 0.0
H975 H 0.61527 0.76644 0.54745 0.0
H976 H 0.66355 0.79099 0.59759 0.0
H977 H 0.65878 0.81055 0.57673 0.0
H978 H 0.61431 0.86543 0.56945 0.0
H979 H 0.61164 0.84123 0.54898 0.0
H980 H 0.66296 0.87364 0.59413 0.0
H981 H 0.65971 0.849 0.57433 0.0
H982 H 0.65972 0.88521 0.50501 0.0
H983 H 0.65693 0.86228 0.52742 0.0
H984 H 0.6129 0.8477 0.47338 0.0
H985 H 0.60981 0.82482 0.49643 0.0
N986 N 0.63082 0.81372 0.51662 0.0
N987 N 0.63557 0.81632 0.55745 0.0
C988 C 0.14014 0.75552 0.48824 0.0
C989 C 0.12471 0.75626 0.48686 0.0
C990 C 0.15408 0.76751 0.50026 0.0
C991 C 0.15267 0.78012 0.51154 0.0
C992 C 0.12338 0.76887 0.49851 0.0
C993 C 0.13718 0.7806 0.51077 0.0
C994 C 0.16789 0.7939 0.52251 0.0
C995 C 0.13143 0.78235 0.58216 0.0
C996 C 0.12167 0.76417 0.57955 0.0
C997 C 0.14679 0.7925 0.57108 0.0
C998 C 0.15283 0.78475 0.55711 0.0
C999 C 0.12826 0.75627 0.56649 0.0
C1000 C 0.14377 0.76647 0.55545 0.0
C1001 C 0.168 0.79619 0.54381 0.0
C1002 C 0.21693 0.87097 0.55676 0.0
C1003 C 0.22672 0.87116 0.57356 0.0
C1004 C 0.20685 0.85566 0.54568 0.0
C1005 C 0.20654 0.8403 0.55099 0.0
C1006 C 0.22657 0.85581 0.57869 0.0
C1007 C 0.21644 0.84047 0.56759 0.0
C1008 C 0.19448 0.82372 0.54065 0.0
C1009 C 0.23444 0.86032 0.49571 0.0
C1010 C 0.22667 0.8648 0.48016 0.0
C1011 C 0.22416 0.84583 0.50814 0.0
C1012 C 0.20597 0.83566 0.50519 0.0
C1013 C 0.20866 0.85403 0.47663 0.0
C1014 C 0.19846 0.83963 0.48895 0.0
C1015 C 0.19425 0.82148 0.51931 0.0
H1016 H 0.14158 0.74586 0.47983 0.0
H1017 H 0.16603 0.76706 0.50062 0.0
H1018 H 0.11198 0.77022 0.49757 0.0
H1019 H 0.13602 0.79049 0.51911 0.0
H1020 H 0.12699 0.78883 0.59251 0.0
H1021 H 0.15358 0.80653 0.57288 0.0
H1022 H 0.12112 0.74229 0.56421 0.0
H1023 H 0.14844 0.76008 0.54531 0.0
H1024 H 0.21687 0.88261 0.55233 0.0
H1025 H 0.19893 0.85573 0.53327 0.0
H1026 H 0.23378 0.8555 0.59172 0.0
H1027 H 0.21611 0.82866 0.57215 0.0
H1028 H 0.24832 0.86834 0.4987 0.0
H1029 H 0.23033 0.84284 0.52031 0.0
H1030 H 0.20236 0.8569 0.46448 0.0
H1031 H 0.1845 0.83195 0.48623 0.0
N1032 N 0.18096 0.8066 0.51113 0.0
N1033 N 0.1814 0.81099 0.55203 0.0
C1034 C 0.23718 0.37493 0.49703 0.0
C1035 C 0.23138 0.36292 0.48081 0.0
C1036 C 0.22533 0.37793 0.50794 0.0
C1037 C 0.20751 0.36898 0.50274 0.0
C1038 C 0.21362 0.3543 0.47545 0.0
C1039 C 0.20186 0.35735 0.48622 0.0
C1040 C 0.19444 0.37144 0.51411 0.0
C1041 C 0.211 0.34467 0.55843 0.0
C1042 C 0.21921 0.35439 0.576 0.0
C1043 C 0.20294 0.35032 0.54494 0.0
C1044 C 0.20309 0.3659 0.54862 0.0
C1045 C 0.21961 0.37015 0.57954 0.0
C1046 C 0.21144 0.37577 0.56603 0.0
C1047 C 0.19285 0.37073 0.53552 0.0
C1048 C 0.11993 0.35109 0.55095 0.0
C1049 C 0.12136 0.36109 0.56823 0.0
C1050 C 0.13464 0.35525 0.53904 0.0
C1051 C 0.15107 0.36955 0.54411 0.0
C1052 C 0.13775 0.37562 0.57307 0.0
C1053 C 0.15252 0.37969 0.56122 0.0
C1054 C 0.16697 0.37246 0.53322 0.0
C1055 C 0.13643 0.3835 0.48667 0.0
C1056 C 0.13209 0.37298 0.46915 0.0
C1057 C 0.14817 0.3836 0.50089 0.0
C1058 C 0.15544 0.37296 0.49788 0.0
C1059 C 0.13922 0.36223 0.46643 0.0
C1060 C 0.15076 0.36226 0.48057 0.0
C1061 C 0.16858 0.37322 0.51179 0.0
H1062 H 0.25081 0.38178 0.50147 0.0
H1063 H 0.23008 0.38722 0.52038 0.0
H1064 H 0.20879 0.34525 0.46277 0.0
H1065 H 0.18822 0.35036 0.48181 0.0
H1066 H 0.21062 0.33255 0.55524 0.0
H1067 H 0.19613 0.34221 0.53193 0.0
H1068 H 0.22572 0.37779 0.59308 0.0
H1069 H 0.2114 0.38767 0.56929 0.0
H1070 H 0.10746 0.3399 0.54677 0.0
H1071 H 0.13327 0.34691 0.52627 0.0
H1072 H 0.13927 0.38346 0.58641 0.0
H1073 H 0.16514 0.39057 0.56562 0.0
H1074 H 0.13112 0.39192 0.48908 0.0
H1075 H 0.15182 0.39223 0.51392 0.0
H1076 H 0.13581 0.35368 0.45332 0.0
H1077 H 0.15606 0.35383 0.47793 0.0
N1078 N 0.18226 0.3727 0.50318 0.0
N1079 N 0.17927 0.37139 0.54425 0.0
H1080 H 0.02222 0.4014 0.044 0.0
H1081 H 0.97526 0.40579 0.14572 0.0
H1082 H 0.97997 0.35498 0.07158 0.0
H1083 H -0.00064 0.4478 0.10211 0.0
H1084 H 0.97985 0.38724 0.12186 0.0
H1085 H 0.01759 0.41907 0.06894 0.0
C1086 C 0.01203 0.39491 0.05539 0.0
C1087 C 0.0014 0.37669 0.05566 0.0
C1088 C 0.98411 0.40054 0.11762 0.0
C1089 C -0.00391 0.39687 0.0843 0.0
C1090 C 0.98143 0.41113 0.13116 0.0
C1091 C 0.98703 0.42851 0.12606 0.0
C1092 C -0.00734 0.40743 0.099 0.0
C1093 C -0.0048 0.43469 0.10704 0.0
C1094 C 0.00935 0.40501 0.06956 0.0
C1095 C 0.9884 0.369 0.07079 0.0
N1096 N -0.00215 0.42422 0.0943 0.0
N1097 N 0.98612 0.37914 0.08458 0.0
H1098 H 0.58198 0.6195 0.05593 0.0
H1099 H 0.59068 0.54934 0.12124 0.0
H1100 H 0.62577 0.61154 0.04903 0.0
H1101 H 0.55196 0.56402 0.13202 0.0
H1102 H 0.60519 0.57316 0.09645 0.0
H1103 H 0.57192 0.60009 0.08507 0.0
C1104 C 0.58952 0.61368 0.06057 0.0
C1105 C 0.60466 0.61704 0.04988 0.0
C1106 C 0.59364 0.57127 0.10444 0.0
C1107 C 0.59312 0.59461 0.08341 0.0
C1108 C 0.58543 0.55777 0.11865 0.0
C1109 C 0.56996 0.55458 0.12844 0.0
C1110 C 0.58627 0.58158 0.10007 0.0
C1111 C 0.56365 0.56581 0.12449 0.0
C1112 C 0.5838 0.60262 0.07732 0.0
C1113 C 0.61399 0.60926 0.0568 0.0
N1114 N 0.57172 0.57867 0.1105 0.0
N1115 N 0.60797 0.59824 0.07303 0.0
H1116 H 0.37969 0.01406 0.05087 0.0
H1117 H 0.42438 0.97645 0.12368 0.0
H1118 H 0.37125 0.96199 0.04673 0.0
H1119 H 0.43901 0.03062 0.12368 0.0
H1120 H 0.40316 0.97067 0.09711 0.0
H1121 H 0.4 0.02019 0.07899 0.0
C1122 C 0.38207 0.00391 0.05587 0.0
C1123 C 0.37377 0.98749 0.04637 0.0
C1124 C 0.41096 0.98383 0.10292 0.0
C1125 C 0.39691 -0.0056 0.0785 0.0
C1126 C 0.42299 0.98712 0.11823 0.0
C1127 C 0.43344 0.00404 0.12599 0.0
C1128 C 0.40928 -0.00246 0.09523 0.0
C1129 C 0.43131 0.0174 0.11801 0.0
C1130 C 0.39367 0.00743 0.0719 0.0
C1131 C 0.37736 0.97485 0.0535 0.0
N1132 N 0.41945 0.01387 0.10305 0.0
N1133 N 0.38863 0.97858 0.06911 0.0
H1134 H 0.342 0.95426 0.93836 0.0
H1135 H 0.4267 -0.00245 0.86617 0.0
H1136 H 0.38221 0.00867 0.93921 0.0
H1137 H 0.39332 0.94194 0.87318 0.0
H1138 H 0.40692 0.0019 0.888 0.0
H1139 H 0.35727 0.94964 0.90986 0.0
C1140 C 0.35391 0.96525 0.93239 0.0
C1141 C 0.36099 0.98183 0.94127 0.0
C1142 C 0.40381 0.98873 0.88466 0.0
C1143 C 0.37837 0.97668 0.9088 0.0
C1144 C 0.41512 0.98624 0.87223 0.0
C1145 C 0.41179 0.96937 0.86819 0.0
C1146 C 0.38907 0.97424 0.89321 0.0
C1147 C 0.39638 0.95516 0.87601 0.0
C1148 C 0.36262 0.9626 0.9162 0.0
C1149 C 0.37642 -0.00437 0.93298 0.0
N1150 N 0.38566 0.95792 0.88839 0.0
N1151 N 0.38462 0.99272 0.91729 0.0
H1152 H 0.03096 0.38947 0.95065 0.0
H1153 H 0.98757 0.42826 0.87727 0.0
H1154 H 0.97616 0.37332 0.95005 0.0
H1155 H 0.04348 0.45186 0.88302 0.0
H1156 H 0.98342 0.40527 0.90042 0.0
H1157 H 0.03604 0.40973 0.92258 0.0
C1158 C 0.01999 0.39003 0.94449 0.0
C1159 C 0.00314 0.37981 0.95284 0.0
C1160 C -0.00337 0.41541 0.89662 0.0
C1161 C 0.00883 0.4028 0.92086 0.0
C1162 C -0.001 0.42859 0.88344 0.0
C1163 C 0.01589 0.44217 0.87849 0.0
C1164 C 0.01125 0.41573 0.90509 0.0
C1165 C 0.03023 0.44165 0.8865 0.0
C1166 C 0.02291 0.40163 0.92855 0.0
C1167 C 0.98941 0.38108 0.9443 0.0
N1168 N 0.02759 0.42873 0.89961 0.0
N1169 N -0.00742 0.39236 0.92889 0.0
H1170 H 0.58998 0.59777 0.95849 0.0
H1171 H 0.55232 0.5964 0.84953 0.0
H1172 H 0.60369 0.64594 0.92829 0.0
H1173 H 0.52103 0.55903 0.89574 0.0
H1174 H 0.57455 0.61354 0.87542 0.0
H1175 H 0.56782 0.58176 0.93249 0.0
C1176 C 0.58839 0.60496 0.94631 0.0
C1177 C 0.59862 0.62319 0.94551 0.0
C1178 C 0.56275 0.60163 0.87983 0.0
C1179 C 0.57352 0.60497 0.91571 0.0
C1180 C 0.55017 0.59189 0.86515 0.0
C1181 C 0.53489 0.57642 0.87067 0.0
C1182 C 0.56017 0.59553 0.89994 0.0
C1183 C 0.53261 0.571 0.89101 0.0
C1184 C 0.5757 0.59583 0.93159 0.0
C1185 C 0.59597 0.63188 0.92946 0.0
N1186 N 0.54522 0.58045 0.9049 0.0
N1187 N 0.58374 0.62266 0.91503 0.0
H1188 H 0.96651 0.59043 0.95712 0.0
H1189 H 0.03633 0.59162 0.8787 0.0
H1190 H 0.0189 0.63467 0.9509 0.0
H1191 H 0.98182 0.55132 0.88098 0.0
H1192 H 0.03057 0.60794 0.90471 0.0
H1193 H 0.97221 0.57629 0.92886 0.0
C1194 C 0.97925 0.59722 0.94979 0.0
C1195 C -0.00771 0.61376 0.95651 0.0
C1196 C 0.01987 0.5956 0.89937 0.0
C1197 C -0.00107 0.5975 0.92396 0.0
C1198 C 0.02315 0.58624 0.88461 0.0
C1199 C 0.00954 0.57007 0.87765 0.0
C1200 C 0.00288 0.58864 0.90734 0.0
C1201 C -0.00732 0.56382 0.88567 0.0
C1202 C 0.98247 0.58912 0.93356 0.0
C1203 C 0.00847 0.62192 0.94624 0.0
N1204 N -0.01013 0.57305 0.90014 0.0
N1205 N 0.01139 0.61364 0.93054 0.0
H1206 H 0.34719 0.38963 0.94669 0.0
H1207 H 0.42992 0.43613 0.87177 0.0
H1208 H 0.38713 0.37584 0.94218 0.0
H1209 H 0.38978 0.44973 0.87466 0.0
H1210 H 0.41377 0.41334 0.8968 0.0
H1211 H 0.36194 0.41107 0.91963 0.0
C1212 C 0.35902 0.39105 0.93994 0.0
C1213 C 0.366 0.38099 0.94674 0.0
C1214 C 0.40842 0.42125 0.89194 0.0
C1215 C 0.38294 0.40551 0.91586 0.0
C1216 C 0.4176 0.43421 0.87752 0.0
C1217 C 0.41115 0.44482 0.87101 0.0
C1218 C 0.39268 0.41885 0.90003 0.0
C1219 C 0.39531 0.44196 0.87938 0.0
C1220 C 0.36743 0.4033 0.92451 0.0
C1221 C 0.38133 0.38335 0.93745 0.0
N1222 N 0.38661 0.42925 0.89348 0.0
N1223 N 0.38931 0.39541 0.92254 0.0
H1224 H 0.61964 0.0191 0.94992 0.0
H1225 H 0.5404 0.94449 0.88586 0.0
H1226 H 0.60337 0.96473 0.95579 0.0
H1227 H 0.55945 -0.00048 0.8809 0.0
H1228 H 0.56451 0.95116 0.90922 0.0
H1229 H 0.59899 0.01178 0.92241 0.0
C1230 C 0.61175 0.00557 0.94535 0.0
C1231 C 0.61312 0.99248 0.95535 0.0
C1232 C 0.56345 0.96175 0.90289 0.0
C1233 C 0.58914 0.98391 0.92372 0.0
C1234 C 0.54974 0.95796 0.88952 0.0
C1235 C 0.54778 0.97146 0.88167 0.0
C1236 C 0.57526 0.97916 0.90831 0.0
C1237 C 0.56022 0.98867 0.88693 0.0
C1238 C 0.59993 0.00138 0.92956 0.0
C1239 C 0.6027 0.97522 0.94852 0.0
N1240 N 0.57332 0.99199 0.89996 0.0
N1241 N 0.59097 0.97138 0.93324 0.0
H1242 H 0.59454 0.97193 0.05562 0.0
H1243 H 0.58488 0.03627 0.13304 0.0
H1244 H 0.63585 0.02499 0.06622 0.0
H1245 H 0.54627 0.9817 0.12619 0.0
H1246 H 0.60376 0.0327 0.1085 0.0
H1247 H 0.57672 0.97549 0.08147 0.0
C1248 C 0.59989 0.98433 0.06343 0.0
C1249 C 0.61669 -0.0018 0.05872 0.0
C1250 C 0.59119 0.0215 0.11245 0.0
C1251 C 0.5963 0.0024 0.08835 0.0
C1252 C 0.58038 0.02354 0.12638 0.0
C1253 C 0.56398 0.00925 0.13171 0.0
C1254 C 0.5855 0.00506 0.10369 0.0
C1255 C 0.55889 0.99303 0.12276 0.0
C1256 C 0.5897 0.98636 0.07822 0.0
C1257 C 0.62295 0.01395 0.06938 0.0
N1258 N 0.56957 0.9914 0.10916 0.0
N1259 N 0.61272 0.01566 0.08365 0.0
H1260 H 0.01964 0.62969 0.06088 0.0
H1261 H 0.95363 0.54775 0.12769 0.0
H1262 H 0.96449 0.61169 0.06534 0.0
H1263 H 0.00984 0.57355 0.13268 0.0
H1264 H 0.95707 0.57128 0.10559 0.0
H1265 H 0.01617 0.60938 0.08768 0.0
C1266 C 0.00681 0.62152 0.06761 0.0
C1267 C -0.00769 0.62228 0.0608 0.0
C1268 C 0.96863 0.57184 0.11167 0.0
C1269 C 0.98819 0.59887 0.0914 0.0
C1270 C 0.96668 0.55846 0.12435 0.0
C1271 C 0.98148 0.55856 0.13186 0.0
C1272 C 0.9855 0.58536 0.10637 0.0
C1273 C -0.00193 0.5727 0.12686 0.0
C1274 C 0.00484 0.60995 0.08295 0.0
C1275 C 0.976 0.61148 0.07014 0.0
N1276 N -0.00037 0.58543 0.11431 0.0
N1277 N 0.97434 0.60007 0.08484 0.0
H1278 H 0.37605 0.35297 0.06203 0.0
H1279 H 0.47298 0.42752 0.09144 0.0
H1280 H 0.40725 0.40094 0.02902 0.0
H1281 H 0.43563 0.3949 0.13719 0.0
H1282 H 0.45143 0.41126 0.06512 0.0
H1283 H 0.40007 0.36248 0.08666 0.0
C1284 C 0.38803 0.36535 0.05983 0.0
C1285 C 0.38968 0.3763 0.04365 0.0
C1286 C 0.44802 0.40747 0.08088 0.0
C1287 C 0.41703 0.38696 0.07125 0.0
C1288 C 0.46031 0.41669 0.09588 0.0
C1289 C 0.45591 0.41273 0.11648 0.0
C1290 C 0.43118 0.39418 0.08649 0.0
C1291 C 0.43944 0.39839 0.12144 0.0
C1292 C 0.40164 0.37075 0.07386 0.0
C1293 C 0.40539 0.39221 0.04143 0.0
N1294 N 0.42748 0.38974 0.10651 0.0
N1295 N 0.41844 0.39705 0.05506 0.0
H1296 H 0.63017 0.67936 0.41514 0.0
H1297 H 0.64111 0.77024 0.44595 0.0
H1298 H 0.6681 0.72729 0.38587 0.0
H1299 H 0.63208 0.73246 0.4922 0.0
H1300 H 0.64546 0.75231 0.42081 0.0
H1301 H 0.6254 0.6965 0.44123 0.0
C1302 C 0.63748 0.69346 0.41424 0.0
C1303 C 0.64958 0.70196 0.39841 0.0
C1304 C 0.64248 0.74794 0.43645 0.0
C1305 C 0.64392 0.72142 0.4277 0.0
C1306 C 0.63992 0.75808 0.45071 0.0
C1307 C 0.63627 0.75274 0.47105 0.0
C1308 C 0.641 0.73219 0.44253 0.0
C1309 C 0.63494 0.73696 0.4766 0.0
C1310 C 0.6348 0.70318 0.4291 0.0
C1311 C 0.65873 0.72023 0.3979 0.0
N1312 N 0.63718 0.7271 0.46235 0.0
N1313 N 0.65558 0.72936 0.4122 0.0
H1314 H 0.25356 0.9535 0.40488 0.0
H1315 H 0.25919 0.87771 0.46238 0.0
H1316 H 0.29625 0.94412 0.39568 0.0
H1317 H 0.2175 0.88866 0.47037 0.0
H1318 H 0.27452 0.90336 0.44021 0.0
H1319 H 0.24172 0.93123 0.43115 0.0
C1320 C 0.26053 0.94682 0.40846 0.0
C1321 C 0.27586 0.95061 0.3979 0.0
C1322 C 0.26206 0.90018 0.44693 0.0
C1323 C 0.26222 0.92486 0.42804 0.0
C1324 C 0.25336 0.8856 0.45962 0.0
C1325 C 0.23693 0.88091 0.46797 0.0
C1326 C 0.25429 0.91014 0.44269 0.0
C1327 C 0.22995 0.89157 0.46389 0.0
C1328 C 0.25374 0.93407 0.42351 0.0
C1329 C 0.28436 0.9416 0.40339 0.0
N1330 N 0.2386 0.90558 0.45149 0.0
N1331 N 0.27734 0.92901 0.41796 0.0
H1332 H 0.04139 0.35551 0.39959 0.0
H1333 H 0.13678 0.37467 0.42809 0.0
H1334 H 0.07037 0.33683 0.36563 0.0
H1335 H 0.10037 0.37107 0.47445 0.0
H1336 H 0.11507 0.36912 0.40216 0.0
H1337 H 0.06532 0.3687 0.42459 0.0
C1338 C 0.05285 0.35436 0.39731 0.0
C1339 C 0.05389 0.34494 0.3807 0.0
C1340 C 0.11189 0.36973 0.41799 0.0
C1341 C 0.08116 0.36016 0.40871 0.0
C1342 C 0.12425 0.37288 0.43278 0.0
C1343 C 0.12018 0.3729 0.45346 0.0
C1344 C 0.09533 0.36663 0.42385 0.0
C1345 C 0.10394 0.37101 0.45866 0.0
C1346 C 0.0664 0.36182 0.41154 0.0
C1347 C 0.06895 0.34379 0.37837 0.0
N1348 N 0.09194 0.3677 0.44392 0.0
N1349 N 0.08199 0.35132 0.39219 0.0
H1350 H 0.05999 0.34698 0.2887 0.0
H1351 H 0.06058 0.2909 0.19501 0.0
H1352 H 0.013 0.29891 0.27288 0.0
H1353 H 0.10447 0.3194 0.23537 0.0
H1354 H 0.04238 0.29645 0.21874 0.0
H1355 H 0.07617 0.3406 0.2634 0.0
C1356 C 0.05303 0.33514 0.27978 0.0
C1357 C 0.03516 0.32337 0.283 0.0
C1358 C 0.05602 0.30144 0.22223 0.0
C1359 C 0.05363 0.31607 0.25398 0.0
C1360 C 0.0664 0.29825 0.2088 0.0
C1361 C 0.08421 0.30495 0.21297 0.0
C1362 C 0.06363 0.3116 0.23969 0.0
C1363 C 0.09102 0.31446 0.23106 0.0
C1364 C 0.0623 0.33148 0.26543 0.0
C1365 C 0.02682 0.30824 0.27095 0.0
N1366 N 0.08078 0.31763 0.2436 0.0
N1367 N 0.03615 0.30499 0.25687 0.0
H1368 H 0.6779 0.70578 0.28123 0.0
H1369 H 0.69087 0.79825 0.25132 0.0
H1370 H 0.65505 0.73156 0.31385 0.0
H1371 H 0.69163 0.76389 0.2053 0.0
H1372 H 0.68482 0.77635 0.27707 0.0
H1373 H 0.68934 0.72923 0.25557 0.0
C1374 C 0.67541 0.7164 0.28306 0.0
C1375 C 0.66541 0.71669 0.29958 0.0
C1376 C 0.6864 0.77361 0.26135 0.0
C1377 C 0.67863 0.74346 0.27075 0.0
C1378 C 0.68981 0.78609 0.24662 0.0
C1379 C 0.69132 0.78273 0.22604 0.0
C1380 C 0.6846 0.75762 0.2556 0.0
C1381 C 0.69043 0.76695 0.22099 0.0
C1382 C 0.68188 0.72969 0.26844 0.0
C1383 C 0.66253 0.7307 0.30125 0.0
N1384 N 0.68694 0.75485 0.23568 0.0
N1385 N 0.66915 0.74352 0.2871 0.0
H1386 H 0.25901 0.93261 0.30806 0.0
H1387 H 0.21682 0.93382 0.20293 0.0
H1388 H 0.27118 0.98132 0.28042 0.0
H1389 H 0.19149 0.89172 0.24621 0.0
H1390 H 0.23835 0.95151 0.22906 0.0
H1391 H 0.23612 0.91705 0.28296 0.0
C1392 C 0.25688 0.94004 0.29666 0.0
C1393 C 0.267 0.95828 0.2963 0.0
C1394 C 0.22797 0.93843 0.23277 0.0
C1395 C 0.24083 0.94051 0.26743 0.0
C1396 C 0.21565 0.92836 0.21794 0.0
C1397 C 0.2025 0.91113 0.22225 0.0
C1398 C 0.22718 0.93111 0.2519 0.0
C1399 C 0.20168 0.90473 0.24195 0.0
C1400 C 0.24373 0.93115 0.28241 0.0
C1401 C 0.26361 0.96724 0.28122 0.0
N1402 N 0.21396 0.91463 0.25592 0.0
N1403 N 0.25086 0.95824 0.26722 0.0
H1404 H 0.68801 0.96657 0.29336 0.0
H1405 H 0.65733 0.89482 0.20506 0.0
H1406 H 0.63513 0.92403 0.28454 0.0
H1407 H 0.71132 0.92613 0.22301 0.0
H1408 H 0.64962 0.91071 0.22923 0.0
H1409 H 0.69727 0.95653 0.26336 0.0
C1410 C 0.67835 0.95524 0.28503 0.0
C1411 C 0.66081 0.94599 0.29157 0.0
C1412 C 0.6632 0.91427 0.22779 0.0
C1413 C 0.67122 0.93468 0.25731 0.0
C1414 C 0.6676 0.90523 0.21397 0.0
C1415 C 0.68492 0.909 0.21235 0.0
C1416 C 0.6762 0.92714 0.24022 0.0
C1417 C 0.6978 0.92281 0.22393 0.0
C1418 C 0.68364 0.94953 0.26798 0.0
C1419 C 0.64882 0.93142 0.28024 0.0
N1420 N 0.69314 0.93126 0.23766 0.0
N1421 N 0.65425 0.92623 0.26372 0.0
H1422 H 0.01914 0.72305 0.28401 0.0
H1423 H 0.09784 0.76119 0.20311 0.0
H1424 H 0.05964 0.70991 0.28272 0.0
H1425 H 0.06362 0.78185 0.21145 0.0
H1426 H 0.08109 0.73912 0.22884 0.0
H1427 H 0.0327 0.74179 0.25435 0.0
C1428 C 0.03086 0.72408 0.27746 0.0
C1429 C 0.03836 0.71502 0.28592 0.0
C1430 C 0.07715 0.74839 0.22494 0.0
C1431 C 0.05383 0.7363 0.25196 0.0
C1432 C 0.08671 0.76099 0.21026 0.0
C1433 C 0.08226 0.77352 0.20533 0.0
C1434 C 0.06301 0.74828 0.23477 0.0
C1435 C 0.06748 0.77242 0.21475 0.0
C1436 C 0.03857 0.73476 0.26053 0.0
C1437 C 0.0535 0.71676 0.27678 0.0
N1438 N 0.05847 0.76012 0.22918 0.0
N1439 N 0.06075 0.72722 0.26032 0.0
H1440 H 0.2863 0.35703 0.29115 0.0
H1441 H 0.20887 0.27952 0.22801 0.0
H1442 H 0.27437 0.30381 0.29567 0.0
H1443 H 0.22604 0.33401 0.22109 0.0
H1444 H 0.23318 0.2876 0.25162 0.0
H1445 H 0.26464 0.34836 0.26454 0.0
C1446 C 0.27913 0.34348 0.28651 0.0
C1447 C 0.2821 0.33112 0.29581 0.0
C1448 C 0.23164 0.29776 0.24482 0.0
C1449 C 0.25702 0.32099 0.26514 0.0
C1450 C 0.21783 0.29316 0.2313 0.0
C1451 C 0.21527 0.3061 0.22281 0.0
C1452 C 0.24295 0.31539 0.24977 0.0
C1453 C 0.22724 0.32357 0.22763 0.0
C1454 C 0.26675 0.33852 0.27122 0.0
C1455 C 0.27249 0.31377 0.28895 0.0
N1456 N 0.24044 0.32766 0.24083 0.0
N1457 N 0.26024 0.30917 0.27411 0.0
H1458 H 0.31432 0.37046 0.40263 0.0
H1459 H 0.22602 0.33127 0.4686 0.0
H1460 H 0.27226 0.31684 0.40033 0.0
H1461 H 0.26452 0.38618 0.46669 0.0
H1462 H 0.24476 0.32547 0.44671 0.0
H1463 H 0.29818 0.37619 0.42905 0.0
C1464 C 0.30177 0.35987 0.40779 0.0
C1465 C 0.29456 0.34317 0.39917 0.0
C1466 C 0.24919 0.3388 0.45112 0.0
C1467 C 0.27608 0.34962 0.42932 0.0
C1468 C 0.23846 0.34212 0.46358 0.0
C1469 C 0.2436 0.35926 0.46924 0.0
C1470 C 0.26524 0.35271 0.44415 0.0
C1471 C 0.26005 0.37277 0.46269 0.0
C1472 C 0.29256 0.36316 0.42283 0.0
C1473 C 0.27827 0.32994 0.40643 0.0
N1474 N 0.27024 0.36922 0.45032 0.0
N1475 N 0.26958 0.33346 0.42101 0.0
H1476 H 0.62263 0.93409 0.40245 0.0
H1477 H 0.66717 0.8927 0.46935 0.0
H1478 H 0.67693 0.94889 0.39703 0.0
H1479 H 0.61196 0.8748 0.47154 0.0
H1480 H 0.67128 0.91462 0.4444 0.0
H1481 H 0.61877 0.91351 0.42921 0.0
C1482 C 0.63376 0.93306 0.40695 0.0
C1483 C 0.65013 0.94319 0.39746 0.0
C1484 C 0.65827 0.90594 0.45036 0.0
C1485 C 0.64578 0.91963 0.42806 0.0
C1486 C 0.65592 0.89349 0.46473 0.0
C1487 C 0.63919 0.88191 0.47259 0.0
C1488 C 0.64379 0.90688 0.44377 0.0
C1489 C 0.62505 0.88334 0.46573 0.0
C1490 C 0.63153 0.92128 0.42221 0.0
C1491 C 0.66409 0.94131 0.40389 0.0
N1492 N 0.62768 0.8956 0.45171 0.0
N1493 N 0.66158 0.92974 0.41877 0.0
H1494 H 0.06256 0.6955 0.38289 0.0
H1495 H 0.08911 0.74257 0.49092 0.0
H1496 H 0.03924 0.72379 0.408 0.0
H1497 H 0.1278 0.74383 0.44942 0.0
H1498 H 0.06685 0.72757 0.46486 0.0
H1499 H 0.0829 0.7053 0.41181 0.0
C1500 C 0.06159 0.70356 0.39462 0.0
C1501 C 0.04936 0.709 0.39306 0.0
C1502 C 0.08022 0.731 0.46166 0.0
C1503 C 0.07213 0.71982 0.42607 0.0
C1504 C 0.09299 0.73968 0.47644 0.0
C1505 C 0.11055 0.74487 0.47235 0.0
C1506 C 0.08489 0.7271 0.44279 0.0
C1507 C 0.11451 0.74008 0.45346 0.0
C1508 C 0.07318 0.70916 0.411 0.0
C1509 C 0.04862 0.71948 0.40858 0.0
N1510 N 0.10179 0.73153 0.43935 0.0
N1511 N 0.05982 0.72452 0.42449 0.0
H1512 H 0.34535 0.0509 0.74401 0.0
H1513 H 0.2798 0.07941 0.78279 0.0
H1514 H 0.29109 0.02241 0.72628 0.0
H1515 H 0.31989 0.08242 0.82237 0.0
H1516 H 0.28522 0.06134 0.75937 0.0
H1517 H 0.3381 0.0659 0.77032 0.0
C1518 C 0.33191 0.04777 0.74573 0.0
C1519 C 0.31878 0.03542 0.73302 0.0
C1520 C 0.29272 0.06591 0.77328 0.0
C1521 C 0.31053 0.05268 0.76267 0.0
C1522 C 0.28958 0.07616 0.78679 0.0
C1523 C 0.29941 0.08262 0.80473 0.0
C1524 C 0.30604 0.06239 0.77742 0.0
C1525 C 0.31223 0.0782 0.80859 0.0
C1526 C 0.32779 0.05626 0.76075 0.0
C1527 C 0.30157 0.0318 0.73587 0.0
N1528 N 0.31532 0.06854 0.79494 0.0
N1529 N 0.29796 0.04057 0.75023 0.0
H1530 H 0.91651 0.27453 0.71607 0.0
H1531 H 0.92849 0.20967 0.78848 0.0
H1532 H 0.96362 0.27174 0.71559 0.0
H1533 H 0.886 0.21981 0.79309 0.0
H1534 H 0.94153 0.23153 0.76127 0.0
H1535 H 0.90512 0.25373 0.74383 0.0
C1536 C 0.92451 0.26955 0.72181 0.0
C1537 C 0.94107 0.27491 0.71341 0.0
C1538 C 0.92942 0.22901 0.76837 0.0
C1539 C 0.92797 0.25087 0.74541 0.0
C1540 C 0.92194 0.21651 0.78381 0.0
C1541 C 0.90619 0.21299 0.79319 0.0
C1542 C 0.92097 0.23789 0.76215 0.0
C1543 C 0.8983 0.22228 0.7866 0.0
C1544 C 0.91798 0.25766 0.73775 0.0
C1545 C 0.9508 0.268 0.72162 0.0
N1546 N 0.90573 0.23421 0.7715 0.0
N1547 N 0.94407 0.25626 0.73713 0.0
H1548 H 0.7141 0.63543 0.7202 0.0
H1549 H 0.77986 0.71256 0.79396 0.0
H1550 H 0.71902 0.68616 0.72048 0.0
H1551 H 0.76919 0.65969 0.79682 0.0
H1552 H 0.75818 0.70375 0.76672 0.0
H1553 H 0.73477 0.64466 0.74806 0.0
C1554 C 0.71952 0.64854 0.72613 0.0
C1555 C 0.71481 0.66005 0.71793 0.0
C1556 C 0.76054 0.69409 0.77343 0.0
C1557 C 0.73865 0.67076 0.74998 0.0
C1558 C 0.77294 0.69912 0.78888 0.0
C1559 C 0.77626 0.68682 0.79775 0.0
C1560 C 0.75154 0.67668 0.76672 0.0
C1561 C 0.76686 0.66955 0.79069 0.0
C1562 C 0.73133 0.6538 0.74211 0.0
C1563 C 0.72226 0.67685 0.72634 0.0
N1564 N 0.75501 0.66504 0.77559 0.0
N1565 N 0.73388 0.68174 0.74189 0.0
H1566 H 0.68033 0.62059 0.61016 0.0
H1567 H 0.76655 0.65411 0.54175 0.0
H1568 H 0.72535 0.67262 0.61311 0.0
H1569 H 0.72323 0.60104 0.54061 0.0
H1570 H 0.75067 0.66143 0.56641 0.0
H1571 H 0.69489 0.61348 0.58322 0.0
C1572 C 0.69323 0.63054 0.60506 0.0
C1573 C 0.70169 0.6472 0.61393 0.0
C1574 C 0.74458 0.64819 0.56075 0.0
C1575 C 0.7184 0.63916 0.58321 0.0
C1576 C 0.7536 0.64402 0.54655 0.0
C1577 C 0.74617 0.62694 0.53904 0.0
C1578 C 0.72799 0.63519 0.56758 0.0
C1579 C 0.7295 0.61433 0.54614 0.0
C1580 C 0.70154 0.62646 0.58973 0.0
C1581 C 0.71839 0.65959 0.60676 0.0
N1582 N 0.72096 0.61871 0.56004 0.0
N1583 N 0.7262 0.6553 0.59186 0.0
H1584 H 0.3072 0.04526 0.62242 0.0
H1585 H 0.38508 0.1261 0.56448 0.0
H1586 H 0.36102 0.05957 0.63103 0.0
H1587 H 0.33058 0.10206 0.54854 0.0
H1588 H 0.37749 0.10192 0.58813 0.0
H1589 H 0.31626 0.06622 0.59499 0.0
C1590 C 0.32098 0.05283 0.61851 0.0
C1591 C 0.33339 0.05075 0.62917 0.0
C1592 C 0.36726 0.10189 0.57927 0.0
C1593 C 0.34395 0.07503 0.59757 0.0
C1594 C 0.37158 0.11562 0.56574 0.0
C1595 C 0.35838 0.11622 0.55483 0.0
C1596 C 0.34964 0.08877 0.58181 0.0
C1597 C 0.34112 0.10235 0.55702 0.0
C1598 C 0.32615 0.06478 0.60271 0.0
C1599 C 0.35104 0.06079 0.6232 0.0
N1600 N 0.33725 0.08933 0.57036 0.0
N1601 N 0.35585 0.07269 0.60791 0.0
H1602 H 0.94135 0.30857 0.59727 0.0
H1603 H 0.86019 0.21698 0.56695 0.0
H1604 H 0.93313 0.26018 0.6218 0.0
H1605 H 0.88398 0.25924 0.5236 0.0
H1606 H 0.88442 0.23392 0.59003 0.0
H1607 H 0.91793 0.29192 0.5726 0.0
C1608 C 0.93467 0.29447 0.5974 0.0
C1609 C 0.93916 0.28572 0.61156 0.0
C1610 C 0.88431 0.23944 0.57543 0.0
C1611 C 0.91232 0.26673 0.5838 0.0
C1612 C 0.87052 0.22974 0.56214 0.0
C1613 C 0.87002 0.23654 0.54308 0.0
C1614 C 0.89759 0.25623 0.5699 0.0
C1615 C 0.88361 0.25347 0.53817 0.0
C1616 C 0.92138 0.28501 0.58333 0.0
C1617 C 0.93013 0.26744 0.6111 0.0
N1618 N 0.89681 0.26277 0.55153 0.0
N1619 N 0.917 0.25854 0.59758 0.0
H1620 H 0.28937 0.25412 0.61448 0.0
H1621 H 0.37139 0.26139 0.55535 0.0
H1622 H 0.34208 0.2966 0.62443 0.0
H1623 H 0.3176 0.22463 0.54036 0.0
H1624 H 0.36139 0.27615 0.57874 0.0
H1625 H 0.29975 0.24453 0.58569 0.0
C1626 C 0.30315 0.26149 0.61054 0.0
C1627 C 0.31491 0.27608 0.62201 0.0
C1628 C 0.35181 0.26499 0.57012 0.0
C1629 C 0.32698 0.26507 0.58901 0.0
C1630 C 0.35751 0.25663 0.55671 0.0
C1631 C 0.34528 0.24161 0.54618 0.0
C1632 C 0.33377 0.25822 0.57297 0.0
C1633 C 0.32746 0.23594 0.54854 0.0
C1634 C 0.30908 0.25605 0.59401 0.0
C1635 C 0.33258 0.28525 0.61602 0.0
N1636 N 0.32225 0.24413 0.56182 0.0
N1637 N 0.33814 0.27945 0.60005 0.0
H1638 H 0.67888 0.05575 0.60602 0.0
H1639 H 0.75737 0.09975 0.52524 0.0
H1640 H 0.72182 0.04615 0.60355 0.0
H1641 H 0.71754 0.11357 0.53139 0.0
H1642 H 0.74219 0.0771 0.55077 0.0
H1643 H 0.69079 0.07428 0.57597 0.0
C1644 C 0.69077 0.05747 0.59909 0.0
C1645 C 0.69947 0.04953 0.60739 0.0
C1646 C 0.73667 0.08498 0.54642 0.0
C1647 C 0.71313 0.07068 0.57301 0.0
C1648 C 0.74525 0.09782 0.53169 0.0
C1649 C 0.73875 0.10863 0.52621 0.0
C1650 C 0.72149 0.08293 0.55582 0.0
C1651 C 0.72314 0.1057 0.53537 0.0
C1652 C 0.69755 0.06804 0.58193 0.0
C1653 C 0.71476 0.05213 0.59774 0.0
N1654 N 0.7151 0.09319 0.54983 0.0
N1655 N 0.72115 0.06256 0.58111 0.0
H1656 H 0.9205 0.62383 0.62937 0.0
H1657 H 0.89326 0.64093 0.52071 0.0
H1658 H 0.94434 0.67489 0.60229 0.0
H1659 H 0.85429 0.60501 0.56326 0.0
H1660 H 0.91559 0.64889 0.54665 0.0
H1661 H 0.89942 0.61225 0.60109 0.0
C1662 C 0.92144 0.63251 0.61733 0.0
C1663 C 0.93405 0.65034 0.61814 0.0
C1664 C 0.90214 0.63914 0.55015 0.0
C1665 C 0.91044 0.63722 0.58587 0.0
C1666 C 0.88932 0.63466 0.53543 0.0
C1667 C 0.87166 0.62253 0.53983 0.0
C1668 C 0.89745 0.6312 0.56932 0.0
C1669 C 0.86765 0.61438 0.55902 0.0
C1670 C 0.90942 0.62594 0.60133 0.0
C1671 C 0.9347 0.66109 0.60228 0.0
N1672 N 0.88043 0.61892 0.5731 0.0
N1673 N 0.92311 0.65436 0.58674 0.0
H1674 H 0.92351 0.64499 0.72539 0.0
H1675 H 0.92448 0.71784 0.79833 0.0
H1676 H 0.96555 0.69867 0.72562 0.0
H1677 H 0.88385 0.66358 0.79888 0.0
H1678 H 0.93997 0.71127 0.77197 0.0
H1679 H 0.90907 0.6517 0.75268 0.0
C1680 C 0.92972 0.6582 0.73121 0.0
C1681 C 0.94575 0.6713 0.72318 0.0
C1682 C 0.9277 0.7008 0.77794 0.0
C1683 C 0.92924 0.67911 0.75449 0.0
C1684 C 0.91882 0.70456 0.79292 0.0
C1685 C 0.90285 0.69124 0.80089 0.0
C1686 C 0.92052 0.68362 0.77078 0.0
C1687 C 0.89624 0.67423 0.79345 0.0
C1688 C 0.92147 0.66203 0.74682 0.0
C1689 C 0.9532 0.68818 0.73135 0.0
N1690 N 0.90506 0.67094 0.77881 0.0
N1691 N 0.94486 0.69162 0.74653 0.0
H1692 H 0.32078 0.26071 0.71271 0.0
H1693 H 0.28335 0.22118 0.82144 0.0
H1694 H 0.28419 0.27142 0.74357 0.0
H1695 H 0.29273 0.19216 0.77544 0.0
H1696 H 0.28765 0.24286 0.79555 0.0
H1697 H 0.31505 0.23858 0.73838 0.0
C1698 C 0.31162 0.25846 0.72495 0.0
C1699 C 0.30291 0.26784 0.72606 0.0
C1700 C 0.28863 0.23166 0.79116 0.0
C1701 C 0.29649 0.2428 0.75543 0.0
C1702 C 0.28622 0.21938 0.80586 0.0
C1703 C 0.2876 0.20492 0.80041 0.0
C1704 C 0.29291 0.22962 0.77112 0.0
C1705 C 0.2914 0.20309 0.78011 0.0
C1706 C 0.30829 0.24579 0.73947 0.0
C1707 C 0.2911 0.26438 0.74217 0.0
N1708 N 0.29413 0.21543 0.76619 0.0
N1709 N 0.28832 0.25221 0.75638 0.0
H1710 H 0.72574 0.08201 0.71077 0.0
H1711 H 0.78566 0.06686 0.78813 0.0
H1712 H 0.72311 0.03246 0.71551 0.0
H1713 H 0.77784 0.11077 0.79012 0.0
H1714 H 0.76466 0.0545 0.75998 0.0
H1715 H 0.74694 0.09332 0.7381 0.0
C1716 C 0.72964 0.07348 0.71751 0.0
C1717 C 0.72254 0.0562 0.71082 0.0
C1718 C 0.76751 0.06679 0.76669 0.0
C1719 C 0.74697 0.06919 0.74238 0.0
C1720 C 0.77951 0.07386 0.78267 0.0
C1721 C 0.78338 0.08978 0.79159 0.0
C1722 C 0.75956 0.07586 0.75947 0.0
C1723 C 0.77503 0.09831 0.78398 0.0
C1724 C 0.74175 0.07996 0.73322 0.0
C1725 C 0.72819 0.04584 0.72022 0.0
N1726 N 0.7636 0.09129 0.76836 0.0
N1727 N 0.7401 0.0525 0.73555 0.0
H1728 H 0.06619 0.35374 0.02082 0.0
H1729 H 0.06996 0.28032 0.08656 0.0
H1730 H 0.02096 0.304 0.036 0.0
H1731 H 0.11308 0.33322 0.0813 0.0
H1732 H 0.05301 0.28735 0.06343 0.0
H1733 H 0.08475 0.34496 0.03829 0.0
C1734 C 0.0602 0.3409 0.02757 0.0
C1735 C 0.042 0.32964 0.02711 0.0
C1736 C 0.06622 0.2974 0.06725 0.0
C1737 C 0.06308 0.31954 0.04714 0.0
C1738 C 0.07593 0.29336 0.08037 0.0
C1739 C 0.09289 0.30625 0.08603 0.0
C1740 C 0.07356 0.31442 0.05963 0.0
C1741 C 0.09993 0.32297 0.07763 0.0
C1742 C 0.07077 0.33592 0.03762 0.0
C1743 C 0.03492 0.31316 0.03614 0.0
N1744 N 0.09022 0.3266 0.06492 0.0
N1745 N 0.04545 0.30865 0.04586 0.0
H1746 H 0.66659 0.70453 0.02793 0.0
H1747 H 0.64885 0.76822 0.09651 0.0
H1748 H 0.61776 0.70408 0.02904 0.0
H1749 H 0.70032 0.77527 0.08842 0.0
H1750 H 0.63731 0.7442 0.07223 0.0
H1751 H 0.6794 0.73024 0.05004 0.0
C1752 C 0.6586 0.70989 0.03268 0.0
C1753 C 0.64103 0.70206 0.02669 0.0
C1754 C 0.65114 0.75098 0.0757 0.0
C1755 C 0.65558 0.73137 0.0521 0.0
C1756 C 0.65771 0.7646 0.08971 0.0
C1757 C 0.67554 0.77362 0.09465 0.0
C1758 C 0.66243 0.74621 0.06656 0.0
C1759 C 0.68649 0.76865 0.08501 0.0
C1760 C 0.66593 0.72457 0.04531 0.0
C1761 C 0.63133 0.70962 0.03329 0.0
N1762 N 0.67974 0.75518 0.07149 0.0
N1763 N 0.6387 0.72376 0.04574 0.0
H1764 H 0.29465 0.97193 0.04356 0.0
H1765 H 0.1972 0.89493 0.06513 0.0
H1766 H 0.2728 0.92138 0.015 0.0
H1767 H 0.22829 0.93288 0.11089 0.0
H1768 H 0.22247 0.90812 0.04191 0.0
H1769 H 0.26794 0.961 0.06401 0.0
C1770 C 0.28419 0.95856 0.0415 0.0
C1771 C 0.28595 0.94748 0.02766 0.0
C1772 C 0.22366 0.91365 0.05696 0.0
C1773 C 0.25539 0.93508 0.05075 0.0
C1774 C 0.20926 0.90628 0.07009 0.0
C1775 C 0.21077 0.9129 0.08986 0.0
C1776 C 0.23953 0.92788 0.06359 0.0
C1777 C 0.2267 0.92743 0.09574 0.0
C1778 C 0.26901 0.95236 0.0532 0.0
C1779 C 0.27201 0.93029 0.02563 0.0
N1780 N 0.24052 0.93447 0.08263 0.0
N1781 N 0.25725 0.9246 0.03703 0.0
H1782 H 0.29874 0.01238 0.97613 0.0
H1783 H 0.33747 0.10587 0.92602 0.0
H1784 H 0.35306 0.05265 0.98109 0.0
H1785 H 0.28211 0.06937 0.93316 0.0
H1786 H 0.34354 0.08703 0.94687 0.0
H1787 H 0.29236 0.03347 0.96127 0.0
C1788 C 0.3093 0.02574 0.97427 0.0
C1789 C 0.32648 0.03077 0.97968 0.0
C1790 C 0.33007 0.08322 0.94399 0.0
C1791 C 0.31932 0.05494 0.96243 0.0
C1792 C 0.32658 0.09399 0.93213 0.0
C1793 C 0.30924 0.08914 0.92768 0.0
C1794 C 0.31613 0.06742 0.95134 0.0
C1795 C 0.29568 0.07347 0.93581 0.0
C1796 C 0.30565 0.03778 0.9658 0.0
C1797 C 0.33965 0.04825 0.97708 0.0
N1798 N 0.29942 0.06313 0.94712 0.0
N1799 N 0.33583 0.05969 0.96838 0.0
H1800 H 0.93215 0.28515 -0.00472 0.0
H1801 H 0.93068 0.23074 0.89885 0.0
H1802 H 0.97923 0.2988 0.9613 0.0
H1803 H 0.89297 0.20835 0.94791 0.0
H1804 H 0.94832 0.2565 0.92005 0.0
H1805 H 0.91679 0.25775 0.97637 0.0
C1806 C 0.93927 0.28235 0.98388 0.0
C1807 C 0.95698 0.29428 0.97982 0.0
C1808 C 0.93624 0.24586 0.92616 0.0
C1809 C 0.93944 0.26303 0.958 0.0
C1810 C 0.92619 0.23111 0.91412 0.0
C1811 C 0.91015 0.21741 0.92145 0.0
C1812 C 0.93009 0.24699 0.94555 0.0
C1813 C 0.90496 0.21876 0.94134 0.0
C1814 C 0.93052 0.26668 0.97316 0.0
C1815 C 0.96558 0.28993 0.96493 0.0
N1816 N 0.91479 0.23335 0.95257 0.0
N1817 N 0.95667 0.27472 0.95438 0.0
H1818 H 0.69451 0.69236 0.96114 0.0
H1819 H 0.75759 0.65891 0.92288 0.0
H1820 H 0.68648 0.64182 0.97652 0.0
H1821 H 0.773 0.71333 0.9231 0.0
H1822 H 0.73076 0.65208 0.9409 0.0
H1823 H 0.72259 0.69999 0.94551 0.0
C1824 C 0.6987 0.68289 0.96131 0.0
C1825 C 0.68813 0.6664 0.97009 0.0
C1826 C 0.74005 0.66553 0.9371 0.0
C1827 C 0.72017 0.67501 0.95208 0.0
C1828 C 0.75545 0.66948 0.92688 0.0
C1829 C 0.7677 0.68677 0.92151 0.0
C1830 C 0.73669 0.6789 0.94182 0.0
C1831 C 0.76389 0.6998 0.92667 0.0
C1832 C 0.71474 0.68727 0.95241 0.0
C1833 C 0.69422 0.65467 0.96993 0.0
N1834 N 0.74869 0.69558 0.93647 0.0
N1835 N 0.70979 0.65916 0.96091 0.0
H1836 H 0.97021 0.67324 0.96425 0.0
H1837 H 0.8834 0.67769 0.95358 0.0
H1838 H 0.92218 0.63862 -0.00374 0.0
H1839 H 0.9217 0.69354 0.90511 0.0
H1840 H 0.90018 0.66825 0.97332 0.0
H1841 H 0.95504 0.68559 0.9462 0.0
C1842 C 0.95651 0.66831 0.96756 0.0
C1843 C 0.9474 0.65483 0.9817 0.0
C1844 C 0.90491 0.67386 0.95839 0.0
C1845 C 0.93013 0.66901 0.96133 0.0
C1846 C 0.89533 0.67919 0.94705 0.0
C1847 C 0.90096 0.68615 0.92745 0.0
C1848 C 0.9204 0.67571 0.95025 0.0
C1849 C 0.91686 0.68831 0.92014 0.0
C1850 C 0.94788 0.67532 0.95722 0.0
C1851 C 0.92966 0.6489 0.98537 0.0
N1852 N 0.926 0.68304 0.93153 0.0
N1853 N 0.92161 0.65608 0.97529 0.0
H1854 H 0.33633 0.28644 -0.00537 0.0
H1855 H 0.28461 0.22314 0.90297 0.0
H1856 H 0.30164 0.29412 0.95628 0.0
H1857 H 0.30514 0.2079 0.95294 0.0
H1858 H 0.29054 0.24916 0.92209 0.0
H1859 H 0.32532 0.25769 0.97926 0.0
C1860 C 0.32631 0.28202 0.98307 0.0
C1861 C 0.31996 0.2927 0.97663 0.0
C1862 C 0.29358 0.24002 0.92894 0.0
C1863 C 0.30743 0.25994 0.95888 0.0
C1864 C 0.29011 0.2251 0.91807 0.0
C1865 C 0.29458 0.2134 0.92623 0.0
C1866 C 0.30175 0.24334 0.94799 0.0
C1867 C 0.30188 0.21677 0.94581 0.0
C1868 C 0.31999 0.2656 0.97436 0.0
C1869 C 0.30692 0.28631 0.96167 0.0
N1870 N 0.30542 0.23152 0.9559 0.0
N1871 N 0.30122 0.27041 0.95312 0.0
H1872 H 0.70848 0.06608 -0.0049 0.0
H1873 H 0.76289 0.065 0.89967 0.0
H1874 H 0.69505 0.01809 0.96405 0.0
H1875 H 0.78558 0.10371 0.94734 0.0
H1876 H 0.73709 0.04794 0.92135 0.0
H1877 H 0.73588 0.08087 0.97578 0.0
C1878 C 0.71133 0.05864 0.98426 0.0
C1879 C 0.69947 0.04084 0.98115 0.0
C1880 C 0.74782 0.06012 0.92704 0.0
C1881 C 0.73071 0.05773 0.95883 0.0
C1882 C 0.76258 0.06984 0.91473 0.0
C1883 C 0.77637 0.08599 0.92151 0.0
C1884 C 0.74676 0.06671 0.94614 0.0
C1885 C 0.7751 0.09162 0.94116 0.0
C1886 C 0.727 0.06707 0.9733 0.0
C1887 C 0.70388 0.03183 0.96696 0.0
N1888 N 0.76049 0.08211 0.95265 0.0
N1889 N 0.71908 0.04042 0.95612 0.0
H1890 H 0.64977 0.93613 0.01581 0.0
H1891 H 0.68823 0.92252 0.11791 0.0
H1892 H 0.68025 0.97784 0.05819 0.0
H1893 H 0.68091 0.89055 0.06515 0.0
H1894 H 0.68216 0.94143 0.09709 0.0
H1895 H 0.65813 0.91758 0.03431 0.0
C1896 C 0.65828 0.94141 0.02889 0.0
C1897 C 0.66428 0.95853 0.0355 0.0
C1898 C 0.68198 0.93035 0.09001 0.0
C1899 C 0.67361 0.93743 0.05675 0.0
C1900 C 0.68537 0.91955 0.10189 0.0
C1901 C 0.68507 0.90503 0.09316 0.0
C1902 C 0.67791 0.92642 0.06932 0.0
C1903 C 0.68135 0.90172 0.07234 0.0
C1904 C 0.66306 0.93086 0.03937 0.0
C1905 C 0.67529 0.96473 0.05252 0.0
N1906 N 0.67772 0.91225 0.06111 0.0
N1907 N 0.67943 0.95414 0.06265 0.0
H1908 H 0.01353 0.71346 0.02984 0.0
H1909 H 0.10883 0.77654 0.07409 0.0
H1910 H 0.05726 0.70613 0.01842 0.0
H1911 H 0.066 0.78602 0.08026 0.0
H1912 H 0.09096 0.75209 0.05135 0.0
H1913 H 0.03333 0.74156 0.04552 0.0
C1914 C 0.02736 0.71787 0.03041 0.0
C1915 C 0.03374 0.70737 0.02301 0.0
C1916 C 0.08552 0.75961 0.05751 0.0
C1917 C 0.05649 0.73948 0.04122 0.0
C1918 C 0.09567 0.7735 0.07061 0.0
C1919 C 0.08881 0.7832 0.07927 0.0
C1920 C 0.06833 0.75531 0.05316 0.0
C1921 C 0.07183 0.77892 0.07389 0.0
C1922 C 0.03867 0.73393 0.03939 0.0
C1923 C 0.05179 0.7138 0.02401 0.0
N1924 N 0.06211 0.76518 0.06136 0.0
N1925 N 0.06252 0.72936 0.03323 0.0
H1926 H 0.30181 0.37403 0.04518 0.0
H1927 H 0.22119 0.2897 0.09646 0.0
H1928 H 0.29284 0.32193 0.03795 0.0
H1929 H 0.23006 0.34181 0.10241 0.0
H1930 H 0.24738 0.30113 0.07492 0.0
H1931 H 0.27555 0.36235 0.06639 0.0
C1932 C 0.29433 0.36014 0.04804 0.0
C1933 C 0.29955 0.34895 0.03976 0.0
C1934 C 0.2436 0.31005 0.08098 0.0
C1935 C 0.26945 0.33549 0.06405 0.0
C1936 C 0.22862 0.30352 0.09319 0.0
C1937 C 0.22351 0.31484 0.10134 0.0
C1938 C 0.25347 0.32801 0.07687 0.0
C1939 C 0.23369 0.33266 0.09677 0.0
C1940 C 0.27932 0.35347 0.06016 0.0
C1941 C 0.28932 0.33105 0.04401 0.0
N1942 N 0.24817 0.33868 0.08485 0.0
N1943 N 0.27476 0.32488 0.05586 0.0
H1944 H 0.71578 0.68044 0.36228 0.0
H1945 H 0.72237 0.60348 0.41521 0.0
H1946 H 0.67059 0.63056 0.37712 0.0
H1947 H 0.76387 0.65745 0.41644 0.0
H1948 H 0.70396 0.61208 0.3973 0.0
H1949 H 0.73454 0.67094 0.3776 0.0
C1950 C 0.70982 0.66745 0.3686 0.0
C1951 C 0.6916 0.65631 0.36853 0.0
C1952 C 0.71713 0.622 0.40146 0.0
C1953 C 0.71294 0.64537 0.38607 0.0
C1954 C 0.72763 0.61713 0.4118 0.0
C1955 C 0.74476 0.62973 0.41739 0.0
C1956 C 0.72382 0.63959 0.39652 0.0
C1957 C 0.7509 0.64719 0.41217 0.0
C1958 C 0.72052 0.66206 0.37742 0.0
C1959 C 0.68457 0.6396 0.37696 0.0
N1960 N 0.74046 0.65158 0.40203 0.0
N1961 N 0.69525 0.63464 0.38541 0.0
H1962 H 0.33781 0.03227 0.38843 0.0
H1963 H 0.35602 0.12871 0.40534 0.0
H1964 H 0.30678 0.05102 0.36043 0.0
H1965 H 0.36306 0.10007 0.45319 0.0
H1966 H 0.34507 0.10304 0.38311 0.0
H1967 H 0.35406 0.05999 0.40698 0.0
C1968 C 0.33457 0.04229 0.38601 0.0
C1969 C 0.32085 0.03934 0.37303 0.0
C1970 C 0.34927 0.1025 0.39839 0.0
C1971 C 0.3395 0.07097 0.39381 0.0
C1972 C 0.35561 0.11713 0.41096 0.0
C1973 C 0.36038 0.11638 0.43105 0.0
C1974 C 0.34799 0.08721 0.40589 0.0
C1975 C 0.35943 0.10104 0.43778 0.0
C1976 C 0.34379 0.05802 0.39662 0.0
C1977 C 0.31715 0.05272 0.37046 0.0
N1978 N 0.35331 0.087 0.42521 0.0
N1979 N 0.32645 0.068 0.38074 0.0
H1980 H 0.96934 0.26941 0.38707 0.0
H1981 H 0.87246 0.24893 0.40099 0.0
H1982 H 0.95173 0.30107 0.35833 0.0
H1983 H 0.89997 0.24097 0.44976 0.0
H1984 H 0.9001 0.26531 0.38245 0.0
H1985 H 0.94228 0.25524 0.40729 0.0
C1986 C 0.95975 0.27331 0.38497 0.0
C1987 C 0.96272 0.2864 0.37104 0.0
C1988 C 0.90002 0.26004 0.39728 0.0
C1989 C 0.93187 0.27024 0.39389 0.0
C1990 C 0.88428 0.25078 0.40798 0.0
C1991 C 0.88377 0.2434 0.42699 0.0
C1992 C 0.91529 0.26163 0.40544 0.0
C1993 C 0.89957 0.246 0.43497 0.0
C1994 C 0.94442 0.26534 0.39658 0.0
C1995 C 0.94994 0.29107 0.36898 0.0
N1996 N 0.91465 0.25472 0.42405 0.0
N1997 N 0.93496 0.28288 0.38017 0.0
H1998 H 0.01768 0.39215 0.32171 0.0
H1999 H 0.95231 0.40308 0.2487 0.0
H2000 H 0.96889 0.34891 0.3002 0.0
H2001 H 0.00559 0.44366 0.2601 0.0
H2002 H 0.95616 0.38395 0.27196 0.0
H2003 H 0.01125 0.41215 0.30386 0.0
C2004 C 0.00551 0.38688 0.31344 0.0
C2005 C -0.00612 0.36884 0.31225 0.0
C2006 C 0.96697 0.39706 0.26942 0.0
C2007 C 0.98651 0.39161 0.29172 0.0
C2008 C 0.96476 0.40798 0.25622 0.0
C2009 C 0.97872 0.42487 0.25234 0.0
C2010 C 0.9832 0.40318 0.27888 0.0
C2011 C -0.00539 0.4306 0.26241 0.0
C2012 C 0.00189 0.3983 0.30319 0.0
C2013 C 0.97829 0.36273 0.30136 0.0
N2014 N -0.00357 0.41975 0.27518 0.0
N2015 N 0.9751 0.37409 0.29139 0.0
H2016 H 0.63019 0.62222 0.31139 0.0
H2017 H 0.54193 0.55643 0.25273 0.0
H2018 H 0.58374 0.62617 0.31224 0.0
H2019 H 0.5874 0.55087 0.25338 0.0
H2020 H 0.55703 0.58179 0.27497 0.0
H2021 H 0.61469 0.5958 0.29072 0.0
C2022 C 0.61673 0.61752 0.30729 0.0
C2023 C 0.60828 0.62649 0.31354 0.0
C2024 C 0.56372 0.57503 0.2703 0.0
C2025 C 0.59048 0.59625 0.28982 0.0
C2026 C 0.55514 0.5606 0.25749 0.0
C2027 C 0.56347 0.55159 0.25105 0.0
C2028 C 0.58081 0.58058 0.27673 0.0
C2029 C 0.58045 0.55737 0.25807 0.0
C2030 C 0.60788 0.60243 0.29548 0.0
C2031 C 0.5908 0.61974 0.30777 0.0
N2032 N 0.5886 0.57155 0.27045 0.0
N2033 N 0.58252 0.60508 0.2962 0.0
H2034 H 0.35133 0.96753 0.31977 0.0
H2035 H 0.43637 0.03222 0.25469 0.0
H2036 H 0.36433 0.01956 0.30326 0.0
H2037 H 0.41417 0.97641 0.25563 0.0
H2038 H 0.41206 0.02869 0.2759 0.0
H2039 H 0.37674 0.97159 0.30021 0.0
C2040 C 0.35961 0.97985 0.31217 0.0
C2041 C 0.35569 0.9932 0.31306 0.0
C2042 C 0.41254 0.01723 0.27144 0.0
C2043 C 0.3847 -0.00208 0.29071 0.0
C2044 C 0.42636 0.01921 0.25921 0.0
C2045 C 0.42737 0.00459 0.25327 0.0
C2046 C 0.39969 0.00053 0.27797 0.0
C2047 C 0.41414 0.9881 0.26004 0.0
C2048 C 0.37404 0.98212 0.30094 0.0
C2049 C 0.36683 0.00889 0.30289 0.0
N2050 N 0.40089 0.98653 0.27205 0.0
N2051 N 0.38083 0.01082 0.29214 0.0
H2052 H 0.57973 0.95441 0.32871 0.0
H2053 H 0.57952 0.01012 0.23576 0.0
H2054 H 0.62784 -0.00535 0.30149 0.0
H2055 H 0.53833 0.98878 0.28115 0.0
H2056 H 0.59708 0.00297 0.25767 0.0
H2057 H 0.56358 0.96477 0.30909 0.0
C2058 C 0.58689 0.96545 0.31864 0.0
C2059 C 0.60513 0.97368 0.31669 0.0
C2060 C 0.58423 -2e-05 0.26282 0.0
C2061 C 0.58675 0.98544 0.2941 0.0
C2062 C 0.57422 0.00412 0.25038 0.0
C2063 C 0.55729 -0.00012 0.25647 0.0
C2064 C 0.57718 0.99132 0.28131 0.0
C2065 C 0.55108 0.99188 0.27551 0.0
C2066 C 0.57769 0.97139 0.30753 0.0
C2067 C 0.61377 0.98798 0.30348 0.0
N2068 N 0.56094 0.9877 0.28714 0.0
N2069 N 0.60448 0.99331 0.2925 0.0
H2070 H 0.97964 0.63133 0.28839 0.0
H2071 H 0.98388 0.54444 0.28061 0.0
H2072 H 0.01169 0.62165 0.32896 0.0
H2073 H 0.97615 0.56902 0.22873 0.0
H2074 H 0.98831 0.56913 0.302 0.0
H2075 H 0.97216 0.60462 0.26992 0.0
C2076 C 0.98497 0.62349 0.29355 0.0
C2077 C -0.00359 0.62877 0.31015 0.0
C2078 C 0.98555 0.56902 0.28596 0.0
C2079 C 0.9878 0.59816 0.28912 0.0
C2080 C 0.98294 0.55496 0.27384 0.0
C2081 C 0.97971 0.55485 0.25297 0.0
C2082 C 0.98453 0.58275 0.27713 0.0
C2083 C 0.97871 0.56876 0.24477 0.0
C2084 C 0.98074 0.6083 0.28294 0.0
C2085 C 0.00292 0.61809 0.31614 0.0
N2086 N 0.98104 0.58214 0.25689 0.0
N2087 N -0.00149 0.60323 0.30561 0.0
H2088 H 0.38154 0.40424 0.32617 0.0
H2089 H 0.42812 0.39617 0.22722 0.0
H2090 H 0.36394 0.35439 0.29745 0.0
H2091 H 0.45649 0.435 0.27327 0.0
H2092 H 0.4031 0.3815 0.25075 0.0
H2093 H 0.40792 0.41695 0.30483 0.0
C2094 C 0.38325 0.39597 0.31541 0.0
C2095 C 0.37054 0.37825 0.31355 0.0
C2096 C 0.41489 0.39312 0.25574 0.0
C2097 C 0.40052 0.39273 0.28897 0.0
C2098 C 0.42909 0.40148 0.24235 0.0
C2099 C 0.44434 0.41674 0.2484 0.0
C2100 C 0.41584 0.40035 0.27508 0.0
C2101 C 0.44501 0.42316 0.26813 0.0
C2102 C 0.39832 0.4032 0.30332 0.0
C2103 C 0.37345 0.3681 0.29941 0.0
N2104 N 0.43086 0.41506 0.28069 0.0
N2105 N 0.38806 0.37554 0.28746 0.0
H2106 H 0.36093 0.31655 0.37763 0.0
H2107 H 0.32666 0.22053 0.41949 0.0
H2108 H 0.30981 0.27271 0.36398 0.0
H2109 H 0.37945 0.26344 0.42746 0.0
H2110 H 0.32052 0.23903 0.39802 0.0
H2111 H 0.36834 0.29692 0.3945 0.0
C2112 C 0.3513 0.30275 0.37803 0.0
C2113 C 0.33468 0.29627 0.36948 0.0
C2114 C 0.33348 0.24437 0.40434 0.0
C2115 C 0.34304 0.2737 0.38899 0.0
C2116 C 0.33697 0.23385 0.41671 0.0
C2117 C 0.35357 0.24049 0.42543 0.0
C2118 C 0.34664 0.26172 0.40075 0.0
C2119 C 0.36651 0.25774 0.42098 0.0
C2120 C 0.35554 0.29154 0.38768 0.0
C2121 C 0.32276 0.27827 0.37039 0.0
N2122 N 0.36273 0.26779 0.4091 0.0
N2123 N 0.32712 0.26762 0.38015 0.0
H2124 H 0.66748 0.02957 0.38697 0.0
H2125 H 0.75719 0.12087 0.3808 0.0
H2126 H 0.71016 0.03817 0.3473 0.0
H2127 H 0.72196 0.10444 0.43252 0.0
H2128 H 0.73797 0.0927 0.36457 0.0
H2129 H 0.68521 0.05925 0.39985 0.0
C2130 C 0.68056 0.03774 0.38087 0.0
C2131 C 0.68742 0.03135 0.36614 0.0
C2132 C 0.73445 0.09538 0.37941 0.0
C2133 C 0.70775 0.06538 0.3808 0.0
C2134 C 0.74542 0.11143 0.38874 0.0
C2135 C 0.7413 0.11508 0.40818 0.0
C2136 C 0.71915 0.08297 0.38947 0.0
C2137 C 0.72563 0.10242 0.41745 0.0
C2138 C 0.69068 0.05467 0.38827 0.0
C2139 C 0.70443 0.04255 0.35876 0.0
N2140 N 0.71518 0.08694 0.40804 0.0
N2141 N 0.71405 0.05906 0.3662 0.0
H2142 H 0.95419 0.69206 0.35757 0.0
H2143 H 0.89262 0.62593 0.44131 0.0
H2144 H 0.96521 0.65394 0.38212 0.0
H2145 H 0.87272 0.64336 0.39281 0.0
H2146 H 0.9204 0.63778 0.42268 0.0
H2147 H 0.92537 0.67676 0.37391 0.0
C2148 C 0.95055 0.68049 0.36644 0.0
C2149 C 0.96206 0.67423 0.36853 0.0
C2150 C 0.90984 0.63883 0.41613 0.0
C2151 C 0.92927 0.65681 0.38732 0.0
C2152 C 0.89396 0.63201 0.42667 0.0
C2153 C 0.88037 0.6339 0.41879 0.0
C2154 C 0.91217 0.6478 0.39782 0.0
C2155 C 0.88297 0.64206 0.39981 0.0
C2156 C 0.93409 0.67172 0.37562 0.0
C2157 C 0.95665 0.65912 0.3801 0.0
N2158 N 0.89864 0.64892 0.39012 0.0
N2159 N 0.94066 0.65098 0.38928 0.0
H2160 H 0.39031 0.02117 0.69296 0.0
H2161 H 0.40091 0.94869 0.75176 0.0
H2162 H 0.34703 0.9701 0.70798 0.0
H2163 H 0.44164 0.00275 0.74782 0.0
H2164 H 0.38204 0.95509 0.73117 0.0
H2165 H 0.41033 0.01335 0.70842 0.0
C2166 C 0.38504 0.00825 0.6993 0.0
C2167 C 0.36696 -0.00369 0.69931 0.0
C2168 C 0.39514 0.96554 0.73473 0.0
C2169 C 0.38977 0.98731 0.71707 0.0
C2170 C 0.40594 0.96187 0.74638 0.0
C2171 C 0.42282 0.97524 0.75163 0.0
C2172 C 0.4013 0.98268 0.72816 0.0
C2173 C 0.42862 0.99211 0.74438 0.0
C2174 C 0.39646 0.00382 0.7082 0.0
C2175 C 0.36086 0.97975 0.70776 0.0
N2176 N 0.41787 -0.00464 0.73307 0.0
N2177 N 0.37223 0.97577 0.71637 0.0
H2178 H -0.00492 0.3571 0.71166 0.0
H2179 H 0.0006 0.448 0.73016 0.0
H2180 H 0.96145 0.37127 0.68084 0.0
H2181 H 0.01044 0.42156 0.77831 0.0
H2182 H -0.00824 0.42265 0.70799 0.0
H2183 H 0.00636 0.38356 0.73257 0.0
C2184 C -0.00981 0.36585 0.70918 0.0
C2185 C 0.97727 0.36199 0.69457 0.0
C2186 C -0.00405 0.42246 0.72338 0.0
C2187 C -0.00977 0.3922 0.71815 0.0
C2188 C 0.00107 0.43691 0.73595 0.0
C2189 C 0.00621 0.43677 0.75602 0.0
C2190 C -0.00371 0.40795 0.73085 0.0
C2191 C 0.00646 0.42206 0.76292 0.0
C2192 C -0.00344 0.38084 0.72116 0.0
C2193 C 0.97132 0.37371 0.69203 0.0
N2194 N 0.00162 0.40821 0.7503 0.0
N2195 N 0.97792 0.38835 0.70364 0.0
H2196 H 0.63062 0.63701 0.71089 0.0
H2197 H 0.53486 0.55388 0.71885 0.0
H2198 H 0.61591 0.58731 0.68343 0.0
H2199 H 0.55666 0.59161 0.76762 0.0
H2200 H 0.56268 0.56968 0.70061 0.0
H2201 H 0.60169 0.62369 0.72727 0.0
C2202 C 0.62129 0.62333 0.70827 0.0
C2203 C 0.62565 0.61319 0.69588 0.0
C2204 C 0.56131 0.57454 0.71525 0.0
C2205 C 0.59266 0.59813 0.71416 0.0
C2206 C 0.54547 0.56553 0.7257 0.0
C2207 C 0.54355 0.57121 0.74502 0.0
C2208 C 0.57527 0.58949 0.72399 0.0
C2209 C 0.55757 0.58675 0.75279 0.0
C2210 C 0.60486 0.61578 0.71763 0.0
C2211 C 0.61313 0.59555 0.693 0.0
N2212 N 0.57294 0.59532 0.74229 0.0
N2213 N 0.59715 0.58859 0.70199 0.0
H2214 H 0.6374 0.67751 0.64034 0.0
H2215 H 0.67477 0.77218 0.5943 0.0
H2216 H 0.69047 0.71947 0.64973 0.0
H2217 H 0.61938 0.73533 0.60058 0.0
H2218 H 0.68084 0.75272 0.61368 0.0
H2219 H 0.63052 0.69815 0.62499 0.0
C2220 C 0.64757 0.69111 0.63931 0.0
C2221 C 0.66456 0.6968 0.6462 0.0
C2222 C 0.66736 0.74895 0.61094 0.0
C2223 C 0.65682 0.7204 0.62847 0.0
C2224 C 0.66385 0.76009 0.59993 0.0
C2225 C 0.6465 0.75545 0.59582 0.0
C2226 C 0.65346 0.73291 0.61772 0.0
C2227 C 0.63296 0.73936 0.60311 0.0
C2228 C 0.64363 0.70287 0.63058 0.0
C2229 C 0.67721 0.71455 0.64459 0.0
N2230 N 0.63673 0.72863 0.61362 0.0
N2231 N 0.67313 0.72571 0.63568 0.0
H2232 H 0.30357 0.95917 0.64488 0.0
H2233 H 0.21535 0.89288 0.58643 0.0
H2234 H 0.25661 0.96225 0.64592 0.0
H2235 H 0.25965 0.88556 0.5899 0.0
H2236 H 0.23091 0.91893 0.60745 0.0
H2237 H 0.28824 0.9326 0.62426 0.0
C2238 C 0.29004 0.95426 0.64084 0.0
C2239 C 0.28139 0.963 0.64714 0.0
C2240 C 0.23727 0.91166 0.60364 0.0
C2241 C 0.26383 0.93268 0.6235 0.0
C2242 C 0.22843 0.89684 0.59149 0.0
C2243 C 0.23625 0.88708 0.58628 0.0
C2244 C 0.25413 0.91687 0.61065 0.0
C2245 C 0.2531 0.89265 0.59366 0.0
C2246 C 0.28131 0.93909 0.62907 0.0
C2247 C 0.26385 0.956 0.64144 0.0
N2248 N 0.26151 0.90722 0.60543 0.0
N2249 N 0.25571 0.94132 0.62993 0.0
H2250 H 0.03406 0.35751 0.63166 0.0
H2251 H 0.09746 0.32852 0.58201 0.0
H2252 H 0.02778 0.30682 0.64132 0.0
H2253 H 0.11015 0.38205 0.58474 0.0
H2254 H 0.07157 0.32016 0.60314 0.0
H2255 H 0.06182 0.36672 0.61423 0.0
C2256 C 0.0386 0.34835 0.63025 0.0
C2257 C 0.02856 0.33134 0.63788 0.0
C2258 C 0.08006 0.33375 0.59922 0.0
C2259 C 0.06025 0.34175 0.61771 0.0
C2260 C 0.09476 0.33851 0.58702 0.0
C2261 C 0.10589 0.356 0.58149 0.0
C2262 C 0.07634 0.34653 0.60577 0.0
C2263 C 0.10194 0.36844 0.58871 0.0
C2264 C 0.05446 0.35363 0.62031 0.0
C2265 C 0.03511 0.32006 0.63568 0.0
N2266 N 0.08741 0.36345 0.60035 0.0
N2267 N 0.05047 0.32541 0.62561 0.0
H2268 H 0.23774 0.2865 0.65066 0.0
H2269 H 0.25091 0.37211 0.59532 0.0
H2270 H 0.28689 0.33541 0.64976 0.0
H2271 H 0.20437 0.32129 0.5906 0.0
H2272 H 0.26335 0.35995 0.6186 0.0
H2273 H 0.22433 0.30016 0.63202 0.0
C2274 C 0.2457 0.30015 0.64667 0.0
C2275 C 0.26352 0.30977 0.65164 0.0
C2276 C 0.25039 0.3515 0.61252 0.0
C2277 C 0.24822 0.32549 0.63018 0.0
C2278 C 0.24328 0.35844 0.59932 0.0
C2279 C 0.22669 0.34763 0.59087 0.0
C2280 C 0.24077 0.33367 0.61736 0.0
C2281 C 0.21735 0.33 0.59648 0.0
C2282 C 0.23803 0.30794 0.63598 0.0
C2283 C 0.27313 0.32745 0.64614 0.0
N2284 N 0.22454 0.32357 0.60931 0.0
N2285 N 0.26538 0.33472 0.63559 0.0
H2286 H 0.68076 0.96227 0.66134 0.0
H2287 H 0.63039 0.89587 0.57179 0.0
H2288 H 0.64111 0.96401 0.62568 0.0
H2289 H 0.65271 0.88259 0.62176 0.0
H2290 H 0.63552 0.92173 0.59044 0.0
H2291 H 0.67215 0.93382 0.64619 0.0
C2292 C 0.67016 0.95661 0.65048 0.0
C2293 C 0.66169 0.96554 0.64468 0.0
C2294 C 0.63917 0.91307 0.59737 0.0
C2295 C 0.65198 0.93325 0.62718 0.0
C2296 C 0.63615 0.89821 0.58678 0.0
C2297 C 0.64115 0.88696 0.59513 0.0
C2298 C 0.6475 0.91692 0.61634 0.0
C2299 C 0.64896 0.89102 0.61447 0.0
C2300 C 0.66524 0.94038 0.64188 0.0
C2301 C 0.64802 0.9576 0.63057 0.0
N2302 N 0.65204 0.90575 0.62433 0.0
N2303 N 0.64373 0.942 0.62213 0.0
H2304 H 0.02764 0.68557 0.64262 0.0
H2305 H 0.09649 0.77281 0.58417 0.0
H2306 H 0.02172 0.73026 0.63433 0.0
H2307 H 0.10705 0.73177 0.59762 0.0
H2308 H 0.06834 0.75635 0.60129 0.0
H2309 H 0.05604 0.70124 0.62504 0.0
C2310 C 0.03228 0.69864 0.63713 0.0
C2311 C 0.02225 0.7066 0.64 0.0
C2312 C 0.07678 0.75091 0.60059 0.0
C2313 C 0.05465 0.72452 0.61986 0.0
C2314 C 0.09296 0.76037 0.59089 0.0
C2315 C 0.1043 0.7538 0.58968 0.0
C2316 C 0.07173 0.73461 0.60913 0.0
C2317 C 0.09871 0.73733 0.59816 0.0
C2318 C 0.04849 0.70757 0.62711 0.0
C2319 C 0.02895 0.72357 0.63255 0.0
N2320 N 0.08282 0.72831 0.6076 0.0
N2321 N 0.04466 0.73191 0.62284 0.0
H2322 H 0.01278 0.64446 0.70813 0.0
H2323 H 0.97767 0.54934 0.75281 0.0
H2324 H 0.9618 0.60051 0.69422 0.0
H2325 H 0.03245 0.58914 0.7522 0.0
H2326 H 0.97132 0.56832 0.73277 0.0
H2327 H 0.01998 0.62488 0.72574 0.0
C2328 C 0.00313 0.63067 0.70868 0.0
C2329 C 0.98664 0.62411 0.69972 0.0
C2330 C 0.98474 0.57287 0.73694 0.0
C2331 C -0.00526 0.60166 0.72004 0.0
C2332 C 0.98843 0.56199 0.74833 0.0
C2333 C 0.00567 0.56756 0.75422 0.0
C2334 C -0.00165 0.58957 0.73154 0.0
C2335 C 0.01893 0.58433 0.74831 0.0
C2336 C 0.00726 0.6195 0.71872 0.0
C2337 C 0.97467 0.60612 0.70089 0.0
N2338 N 0.01498 0.59475 0.73737 0.0
N2339 N 0.97891 0.59555 0.711 0.0
H2340 H 0.36904 0.36375 0.68277 0.0
H2341 H 0.38707 0.4281 0.77623 0.0
H2342 H 0.32982 0.3558 0.7276 0.0
H2343 H 0.41998 0.44363 0.7225 0.0
H2344 H 0.36672 0.40075 0.75947 0.0
H2345 H 0.38892 0.39226 0.69808 0.0
C2346 C 0.36461 0.36801 0.69579 0.0
C2347 C 0.34777 0.3574 0.70395 0.0
C2348 C 0.37835 0.41019 0.75131 0.0
C2349 C 0.3704 0.38984 0.72154 0.0
C2350 C 0.38995 0.42589 0.76082 0.0
C2351 C 0.40532 0.43827 0.75079 0.0
C2352 C 0.38218 0.40668 0.73168 0.0
C2353 C 0.40847 0.43439 0.73098 0.0
C2354 C 0.37592 0.38428 0.70447 0.0
C2355 C 0.34268 0.36356 0.7208 0.0
N2356 N 0.39705 0.4189 0.72212 0.0
N2357 N 0.35398 0.37932 0.7291 0.0
H2358 H 0.62845 0.99267 0.70051 0.0
H2359 H 0.56308 0.01271 0.76314 0.0
H2360 H 0.6327 0.04309 0.70272 0.0
H2361 H 0.55503 0.96098 0.75621 0.0
H2362 H 0.58928 0.02413 0.74196 0.0
H2363 H 0.60207 0.98085 0.72166 0.0
C2364 C 0.62385 0.00126 0.70543 0.0
C2365 C 0.63282 0.01891 0.69983 0.0
C2366 C 0.58182 0.01027 0.74505 0.0
C2367 C 0.60267 0.00545 0.72406 0.0
C2368 C 0.56692 0.00376 0.75727 0.0
C2369 C 0.55694 0.98588 0.76156 0.0
C2370 C 0.58685 -0.00115 0.73704 0.0
C2371 C 0.56231 0.97484 0.75318 0.0
C2372 C 0.60877 -0.00552 0.71748 0.0
C2373 C 0.62622 0.0294 0.70663 0.0
N2374 N 0.57696 0.98152 0.74136 0.0
N2375 N 0.61158 0.02252 0.71841 0.0
loop_
_geom_bond_atom_site_label_1
_geom_bond_atom_site_label_2
_geom_bond_distance
_geom_bond_site_symmetry_2
_ccdc_geom_bond_type
C0 O1 1.306 1_556 S
C0 O3 1.160 . S
O1 C0 1.306 1_554 S
O1 Cd2 2.228 . S
Cd2 O1 2.228 . S
Cd2 O6 2.273 . S
Cd2 O10 2.277 1_554 S
O3 C0 1.160 . S
O3 Cd4 2.203 1_656 S
Cd4 O3 2.203 1_454 S
Cd4 O6 2.411 1_455 S
Cd4 O7 2.333 . S
Cd4 O8 2.352 . S
Cd4 O12 2.277 1_554 S
Cd4 O13 2.356 . S
C5 O10 1.209 1_455 S
C5 O12 1.226 . S
O6 Cd2 2.273 . S
O6 Cd4 2.411 1_655 S
O6 C9 1.305 1_655 S
O7 Cd4 2.333 . S
O7 C9 1.254 . S
O8 Cd4 2.352 . S
O8 C11 1.258 . S
C9 O6 1.305 1_455 S
C9 O7 1.254 . S
O10 Cd2 2.277 1_556 S
O10 C5 1.209 1_655 S
C11 O8 1.258 . S
C11 O13 1.282 . S
O12 Cd4 2.277 1_556 S
O12 C5 1.226 . S
O13 Cd4 2.356 . S
O13 C11 1.282 . S
C14 O15 1.306 . S
C14 O17 1.160 . S
O15 C14 1.306 . S
O15 Cd16 2.228 . S
Cd16 O15 2.228 . S
Cd16 O20 2.273 1_554 S
Cd16 O24 2.277 . S
O17 C14 1.160 . S
O17 Cd18 2.203 . S
Cd18 O17 2.203 . S
Cd18 O20 2.411 1_554 S
Cd18 O21 2.333 1_554 S
Cd18 O22 2.352 1_554 S
Cd18 O26 2.277 . S
Cd18 O27 2.362 . S
C19 O24 1.209 . S
C19 O26 1.226 . S
O20 Cd16 2.273 1_556 S
O20 Cd18 2.411 1_556 S
O20 C23 1.320 . S
O21 Cd18 2.333 1_556 S
O21 C23 1.214 . S
O22 Cd18 2.352 1_556 S
O22 C25 1.258 . S
C23 O20 1.320 . S
C23 O21 1.214 . S
O24 Cd16 2.277 . S
O24 C19 1.209 . S
C25 O22 1.258 . S
C25 O27 1.271 1_556 S
O26 Cd18 2.277 . S
O26 C19 1.226 . S
O27 Cd18 2.362 . S
O27 C25 1.271 1_554 S
C28 O29 1.306 . S
C28 O31 1.160 . S
O29 C28 1.306 . S
O29 Cd30 2.228 . S
Cd30 O29 2.228 . S
Cd30 O34 2.273 1_554 S
Cd30 O38 2.277 . S
O31 C28 1.160 . S
O31 Cd32 2.203 1_565 S
Cd32 O31 2.203 1_545 S
Cd32 O34 2.411 1_544 S
Cd32 O35 2.333 1_554 S
Cd32 O36 2.352 1_554 S
Cd32 O40 2.277 . S
Cd32 O41 2.356 . S
C33 O38 1.209 1_545 S
C33 O40 1.226 . S
O34 Cd30 2.273 1_556 S
O34 Cd32 2.411 1_566 S
O34 C37 1.320 1_565 S
O35 Cd32 2.333 1_556 S
O35 C37 1.214 . S
O36 Cd32 2.352 1_556 S
O36 C39 1.258 . S
C37 O34 1.320 1_545 S
C37 O35 1.214 . S
O38 Cd30 2.277 . S
O38 C33 1.209 1_565 S
C39 O36 1.258 . S
C39 O41 1.282 1_556 S
O40 Cd32 2.277 . S
O40 C33 1.226 . S
O41 Cd32 2.356 . S
O41 C39 1.282 1_554 S
C42 O43 1.310 . S
C42 O45 1.160 . S
O43 C42 1.310 . S
O43 Cd44 2.226 1_556 S
Cd44 O43 2.226 1_554 S
Cd44 O48 2.273 . S
Cd44 O52 2.277 1_554 S
O45 C42 1.160 . S
O45 Cd46 2.203 1_656 S
Cd46 O45 2.203 1_454 S
Cd46 O48 2.411 1_455 S
Cd46 O49 2.333 . S
Cd46 O50 2.352 . S
Cd46 O54 2.277 1_554 S
Cd46 O55 2.356 . S
C47 O52 1.209 1_455 S
C47 O54 1.226 . S
O48 Cd44 2.273 . S
O48 Cd46 2.411 1_655 S
O48 C51 1.320 . S
O49 Cd46 2.333 . S
O49 C51 1.214 1_455 S
O50 Cd46 2.352 . S
O50 C53 1.258 . S
C51 O48 1.320 . S
C51 O49 1.214 1_655 S
O52 Cd44 2.277 1_556 S
O52 C47 1.209 1_655 S
C53 O50 1.258 . S
C53 O55 1.282 . S
O54 Cd46 2.277 1_556 S
O54 C47 1.226 . S
O55 Cd46 2.356 . S
O55 C53 1.282 . S
C56 O57 1.306 . S
C56 O59 1.160 . S
O57 C56 1.306 . S
O57 Cd58 2.228 . S
Cd58 O57 2.228 . S
Cd58 O62 2.273 1_554 S
Cd58 O66 2.277 . S
O59 C56 1.160 . S
O59 Cd60 2.203 . S
Cd60 O59 2.203 . S
Cd60 O62 2.411 1_554 S
Cd60 O63 2.333 1_554 S
Cd60 O64 2.352 1_554 S
Cd60 O68 2.277 . S
Cd60 O69 2.344 1_554 S
C61 O66 1.209 . S
C61 O68 1.226 . S
O62 Cd58 2.273 1_556 S
O62 Cd60 2.411 1_556 S
O62 C65 1.320 . S
O63 Cd60 2.333 1_556 S
O63 C65 1.214 . S
O64 Cd60 2.352 1_556 S
O64 C67 1.258 . S
C65 O62 1.320 . S
C65 O63 1.214 . S
O66 Cd58 2.277 . S
O66 C61 1.209 . S
C67 O64 1.258 . S
C67 O69 1.310 . S
O68 Cd60 2.277 . S
O68 C61 1.226 . S
O69 Cd60 2.344 1_556 S
O69 C67 1.310 . S
C70 O71 1.291 1_556 S
C70 O73 1.160 . S
O71 C70 1.291 1_554 S
O71 Cd72 2.238 . S
Cd72 O71 2.238 . S
Cd72 O76 2.273 . S
Cd72 O80 2.277 1_554 S
O73 C70 1.160 . S
O73 Cd74 2.203 1_546 S
Cd74 O73 2.203 1_564 S
Cd74 O76 2.411 1_565 S
Cd74 O77 2.333 . S
Cd74 O78 2.352 . S
Cd74 O82 2.277 1_554 S
Cd74 O83 2.356 . S
C75 O80 1.209 1_565 S
C75 O82 1.226 . S
O76 Cd72 2.273 . S
O76 Cd74 2.411 1_545 S
O76 C79 1.320 . S
O77 Cd74 2.333 . S
O77 C79 1.214 1_565 S
O78 Cd74 2.352 . S
O78 C81 1.258 . S
C79 O76 1.320 . S
C79 O77 1.214 1_545 S
O80 Cd72 2.277 1_556 S
O80 C75 1.209 1_545 S
C81 O78 1.258 . S
C81 O83 1.282 . S
O82 Cd74 2.277 1_556 S
O82 C75 1.226 . S
O83 Cd74 2.356 . S
O83 C81 1.282 . S
C84 O85 1.306 . S
C84 O87 1.160 . S
O85 C84 1.306 . S
O85 Cd86 2.228 . S
Cd86 O85 2.228 . S
Cd86 O90 2.273 . S
Cd86 O94 2.277 . S
O87 C84 1.160 . S
O87 Cd88 2.203 . S
Cd88 O87 2.203 . S
Cd88 O90 2.411 . S
Cd88 O91 2.333 . S
Cd88 O92 2.352 . S
Cd88 O96 2.277 . S
Cd88 O97 2.356 . S
C89 O94 1.209 . S
C89 O96 1.226 . S
O90 Cd86 2.273 . S
O90 Cd88 2.411 . S
O90 C93 1.320 . S
O91 Cd88 2.333 . S
O91 C93 1.214 . S
O92 Cd88 2.352 . S
O92 C95 1.258 . S
C93 O90 1.320 . S
C93 O91 1.214 . S
O94 Cd86 2.277 . S
O94 C89 1.209 . S
C95 O92 1.258 . S
C95 O97 1.282 . S
O96 Cd88 2.277 . S
O96 C89 1.226 . S
O97 Cd88 2.356 . S
O97 C95 1.282 . S
C98 O99 1.306 . S
C98 O101 1.160 . S
O99 C98 1.306 . S
O99 Cd100 2.228 1_545 S
Cd100 O99 2.228 1_565 S
Cd100 O104 2.273 . S
Cd100 O108 2.277 . S
O101 C98 1.160 . S
O101 Cd102 2.203 1_545 S
Cd102 O101 2.203 1_565 S
Cd102 O104 2.411 . S
Cd102 O105 2.333 . S
Cd102 O106 2.353 1_565 S
Cd102 O110 2.277 . S
Cd102 O111 2.356 . S
C103 O108 1.209 . S
C103 O110 1.226 . S
O104 Cd100 2.273 . S
O104 Cd102 2.411 . S
O104 C107 1.320 . S
O105 Cd102 2.333 . S
O105 C107 1.214 . S
O106 Cd102 2.353 1_545 S
O106 C109 1.264 1_545 S
C107 O104 1.320 . S
C107 O105 1.214 . S
O108 Cd100 2.277 . S
O108 C103 1.209 . S
C109 O106 1.264 1_565 S
C109 O111 1.282 . S
O110 Cd102 2.277 . S
O110 C103 1.226 . S
O111 Cd102 2.356 . S
O111 C109 1.282 . S
C112 O113 1.306 . S
C112 O115 1.160 1_655 S
O113 C112 1.306 . S
O113 Cd114 2.228 1_655 S
Cd114 O113 2.228 1_455 S
Cd114 O118 2.273 . S
Cd114 O122 2.277 . S
O115 C112 1.160 1_455 S
O115 Cd116 2.231 . S
Cd116 O115 2.231 . S
Cd116 O118 2.411 . S
Cd116 O119 2.333 . S
Cd116 O120 2.352 . S
Cd116 O124 2.277 . S
Cd116 O125 2.356 . S
C117 O122 1.209 . S
C117 O124 1.226 . S
O118 Cd114 2.273 . S
O118 Cd116 2.411 . S
O118 C121 1.320 . S
O119 Cd116 2.333 . S
O119 C121 1.214 . S
O120 Cd116 2.352 . S
O120 C123 1.258 . S
C121 O118 1.320 . S
C121 O119 1.214 . S
O122 Cd114 2.277 . S
O122 C117 1.209 . S
C123 O120 1.258 . S
C123 O125 1.282 . S
O124 Cd116 2.277 . S
O124 C117 1.226 . S
O125 Cd116 2.356 . S
O125 C123 1.282 . S
C126 O127 1.306 . S
C126 O129 1.160 . S
O127 C126 1.306 . S
O127 Cd128 2.228 . S
Cd128 O127 2.228 . S
Cd128 O132 2.273 . S
Cd128 O136 2.277 . S
O129 C126 1.160 . S
O129 Cd130 2.203 . S
Cd130 O129 2.203 . S
Cd130 O132 2.411 . S
Cd130 O133 2.333 . S
Cd130 O134 2.352 1_565 S
Cd130 O138 2.277 . S
Cd130 O139 2.356 1_565 S
C131 O136 1.209 . S
C131 O138 1.226 . S
O132 Cd128 2.273 . S
O132 Cd130 2.411 . S
O132 C135 1.320 . S
O133 Cd130 2.333 . S
O133 C135 1.214 . S
O134 Cd130 2.352 1_545 S
O134 C137 1.258 . S
C135 O132 1.320 . S
C135 O133 1.214 . S
O136 Cd128 2.277 . S
O136 C131 1.209 . S
C137 O134 1.258 . S
C137 O139 1.282 . S
O138 Cd130 2.277 . S
O138 C131 1.226 . S
O139 Cd130 2.356 1_545 S
O139 C137 1.282 . S
C140 O141 1.306 . S
C140 O143 1.160 . S
O141 C140 1.306 . S
O141 Cd142 2.228 1_655 S
Cd142 O141 2.228 1_455 S
Cd142 O146 2.273 . S
Cd142 O150 2.277 . S
O143 C140 1.160 . S
O143 Cd144 2.203 1_655 S
Cd144 O143 2.203 1_455 S
Cd144 O146 2.411 . S
Cd144 O147 2.333 . S
Cd144 O148 2.352 . S
Cd144 O152 2.277 . S
Cd144 O153 2.356 . S
C145 O150 1.209 . S
C145 O152 1.226 . S
O146 Cd142 2.273 . S
O146 Cd144 2.411 . S
O146 C149 1.320 . S
O147 Cd144 2.333 . S
O147 C149 1.214 . S
O148 Cd144 2.352 . S
O148 C151 1.258 . S
C149 O146 1.320 . S
C149 O147 1.214 . S
O150 Cd142 2.277 . S
O150 C145 1.209 . S
C151 O148 1.258 . S
C151 O153 1.282 . S
O152 Cd144 2.277 . S
O152 C145 1.226 . S
O153 Cd144 2.356 . S
O153 C151 1.282 . S
C154 O155 1.306 . S
C154 O157 1.160 . S
O155 C154 1.306 . S
O155 Cd156 2.228 . S
Cd156 O155 2.228 . S
Cd156 O160 2.273 . S
Cd156 O164 2.277 . S
O157 C154 1.160 . S
O157 Cd158 2.203 . S
Cd158 O157 2.203 . S
Cd158 O160 2.411 . S
Cd158 O161 2.333 . S
Cd158 O162 2.352 . S
Cd158 O166 2.277 . S
Cd158 O167 2.356 . S
C159 O164 1.209 . S
C159 O166 1.226 . S
O160 Cd156 2.273 . S
O160 Cd158 2.411 . S
O160 C163 1.320 . S
O161 Cd158 2.333 . S
O161 C163 1.214 . S
O162 Cd158 2.352 . S
O162 C165 1.258 . S
C163 O160 1.320 . S
C163 O161 1.214 . S
O164 Cd156 2.277 . S
O164 C159 1.209 . S
C165 O162 1.258 . S
C165 O167 1.282 . S
O166 Cd158 2.277 . S
O166 C159 1.226 . S
O167 Cd158 2.356 . S
O167 C165 1.282 . S
C168 O169 1.306 . S
C168 O171 1.160 . S
O169 C168 1.306 . S
O169 Cd170 2.228 1_565 S
Cd170 O169 2.228 1_545 S
Cd170 O174 2.273 . S
Cd170 O178 2.277 . S
O171 C168 1.160 . S
O171 Cd172 2.203 1_565 S
Cd172 O171 2.203 1_545 S
Cd172 O174 2.411 . S
Cd172 O175 2.333 . S
Cd172 O176 2.352 . S
Cd172 O180 2.277 . S
Cd172 O181 2.356 . S
C173 O178 1.209 . S
C173 O180 1.226 . S
O174 Cd170 2.273 . S
O174 Cd172 2.411 . S
O174 C177 1.320 . S
O175 Cd172 2.333 . S
O175 C177 1.214 . S
O176 Cd172 2.352 . S
O176 C179 1.258 . S
C177 O174 1.320 . S
C177 O175 1.214 . S
O178 Cd170 2.277 . S
O178 C173 1.209 . S
C179 O176 1.258 . S
C179 O181 1.282 . S
O180 Cd172 2.277 . S
O180 C173 1.226 . S
O181 Cd172 2.356 . S
O181 C179 1.282 . S
C182 O183 1.306 . S
C182 O185 1.177 . S
O183 C182 1.306 . S
O183 Cd184 2.228 . S
Cd184 O183 2.228 . S
Cd184 O188 2.273 . S
Cd184 O192 2.277 . S
O185 C182 1.177 . S
O185 Cd186 2.201 . S
Cd186 O185 2.201 . S
Cd186 O188 2.411 . S
Cd186 O189 2.333 . S
Cd186 O190 2.352 1_655 S
Cd186 O194 2.277 . S
Cd186 O195 2.356 1_655 S
C187 O192 1.209 . S
C187 O194 1.226 . S
O188 Cd184 2.273 . S
O188 Cd186 2.411 . S
O188 C191 1.320 . S
O189 Cd186 2.333 . S
O189 C191 1.214 . S
O190 Cd186 2.352 1_455 S
O190 C193 1.258 . S
C191 O188 1.320 . S
C191 O189 1.214 . S
O192 Cd184 2.277 . S
O192 C187 1.209 . S
C193 O190 1.258 . S
C193 O195 1.282 . S
O194 Cd186 2.277 . S
O194 C187 1.226 . S
O195 Cd186 2.356 1_455 S
O195 C193 1.282 . S
C196 O197 1.306 . S
C196 O199 1.160 . S
O197 C196 1.306 . S
O197 Cd198 2.228 . S
Cd198 O197 2.228 . S
Cd198 O202 2.273 . S
Cd198 O206 2.277 . S
O199 C196 1.160 . S
O199 Cd200 2.203 . S
Cd200 O199 2.203 . S
Cd200 O202 2.411 . S
Cd200 O203 2.333 . S
Cd200 O204 2.352 . S
Cd200 O208 2.277 . S
Cd200 O209 2.356 . S
C201 O206 1.209 . S
C201 O208 1.226 . S
O202 Cd198 2.273 . S
O202 Cd200 2.411 . S
O202 C205 1.320 . S
O203 Cd200 2.333 . S
O203 C205 1.214 . S
O204 Cd200 2.352 . S
O204 C207 1.258 . S
C205 O202 1.320 . S
C205 O203 1.214 . S
O206 Cd198 2.277 . S
O206 C201 1.209 . S
C207 O204 1.258 . S
C207 O209 1.282 . S
O208 Cd200 2.277 . S
O208 C201 1.226 . S
O209 Cd200 2.356 . S
O209 C207 1.282 . S
C210 O211 1.306 . S
C210 O213 1.160 . S
O211 C210 1.306 . S
O211 Cd212 2.228 . S
Cd212 O211 2.228 . S
Cd212 O216 2.273 . S
Cd212 O220 2.277 . S
O213 C210 1.160 . S
O213 Cd214 2.203 . S
Cd214 O213 2.203 . S
Cd214 O216 2.411 . S
Cd214 O217 2.333 . S
Cd214 O218 2.352 . S
Cd214 O222 2.277 . S
Cd214 O223 2.356 . S
C215 O220 1.209 . S
C215 O222 1.226 . S
O216 Cd212 2.273 . S
O216 Cd214 2.411 . S
O216 C219 1.320 . S
O217 Cd214 2.333 . S
O217 C219 1.214 . S
O218 Cd214 2.352 . S
O218 C221 1.258 . S
C219 O216 1.320 . S
C219 O217 1.214 . S
O220 Cd212 2.277 . S
O220 C215 1.209 . S
C221 O218 1.258 . S
C221 O223 1.282 . S
O222 Cd214 2.277 . S
O222 C215 1.226 . S
O223 Cd214 2.356 . S
O223 C221 1.282 . S
C224 O225 1.306 . S
C224 O227 1.160 . S
O225 C224 1.306 . S
O225 Cd226 2.228 . S
Cd226 O225 2.228 . S
Cd226 O230 2.273 . S
Cd226 O234 2.277 . S
O227 C224 1.160 . S
O227 Cd228 2.203 . S
Cd228 O227 2.203 . S
Cd228 O230 2.411 . S
Cd228 O231 2.333 . S
Cd228 O232 2.352 1_545 S
Cd228 O236 2.277 . S
Cd228 O237 2.356 1_545 S
C229 O234 1.209 . S
C229 O236 1.226 . S
O230 Cd226 2.273 . S
O230 Cd228 2.411 . S
O230 C233 1.320 . S
O231 Cd228 2.333 . S
O231 C233 1.214 . S
O232 Cd228 2.352 1_565 S
O232 C235 1.258 . S
C233 O230 1.320 . S
C233 O231 1.214 . S
O234 Cd226 2.277 . S
O234 C229 1.209 . S
C235 O232 1.258 . S
C235 O237 1.282 . S
O236 Cd228 2.277 . S
O236 C229 1.226 . S
O237 Cd228 2.356 1_565 S
O237 C235 1.282 . S
C238 O239 1.306 . S
C238 O241 1.160 . S
O239 C238 1.306 . S
O239 Cd240 2.228 1_455 S
Cd240 O239 2.228 1_655 S
Cd240 O244 2.273 . S
Cd240 O248 2.277 . S
O241 C238 1.160 . S
O241 Cd242 2.203 1_455 S
Cd242 O241 2.203 1_655 S
Cd242 O244 2.411 . S
Cd242 O245 2.333 . S
Cd242 O246 2.366 . S
Cd242 O250 2.277 . S
Cd242 O251 2.356 . S
C243 O248 1.209 . S
C243 O250 1.226 . S
O244 Cd240 2.273 . S
O244 Cd242 2.411 . S
O244 C247 1.320 . S
O245 Cd242 2.333 . S
O245 C247 1.214 . S
O246 Cd242 2.366 . S
O246 C249 1.259 . S
C247 O244 1.320 . S
C247 O245 1.214 . S
O248 Cd240 2.277 . S
O248 C243 1.209 . S
C249 O246 1.259 . S
C249 O251 1.282 . S
O250 Cd242 2.277 . S
O250 C243 1.226 . S
O251 Cd242 2.356 . S
O251 C249 1.282 . S
C252 C253 1.384 . S
C252 C254 1.384 . S
C252 H280 0.931 . S
C253 C252 1.384 . S
C253 C256 1.382 . S
C254 C252 1.384 . S
C254 C255 1.381 . S
C254 H281 0.930 . S
C255 C254 1.381 . S
C255 C257 1.381 . S
C255 C258 1.487 . S
C256 C253 1.382 . S
C256 C257 1.387 . S
C256 H282 0.930 . S
C257 C255 1.381 . S
C257 C256 1.387 . S
C257 H283 0.931 . S
C258 C255 1.487 . S
C258 C265 1.399 . S
C258 N296 1.343 . S
C259 C260 1.384 . S
C259 C261 1.384 . S
C259 H284 0.931 . S
C260 C259 1.384 . S
C260 C263 1.382 . S
C261 C259 1.384 . S
C261 C262 1.381 . S
C261 H285 0.930 . S
C262 C261 1.381 . S
C262 C264 1.381 . S
C262 C265 1.487 . S
C263 C260 1.382 . S
C263 C264 1.387 . S
C263 H286 0.930 . S
C264 C262 1.381 . S
C264 C263 1.387 . S
C264 H287 0.931 . S
C265 C258 1.399 . S
C265 C262 1.487 . S
C265 N297 1.343 . S
C266 C267 1.384 . S
C266 C268 1.384 . S
C266 H288 0.931 . S
C267 C266 1.384 . S
C267 C270 1.382 . S
C268 C266 1.384 . S
C268 C269 1.381 . S
C268 H289 0.930 . S
C269 C268 1.381 . S
C269 C271 1.381 . S
C269 C272 1.487 . S
C270 C267 1.382 . S
C270 C271 1.387 . S
C270 H290 0.930 . S
C271 C269 1.381 . S
C271 C270 1.387 . S
C271 H291 0.931 . S
C272 C269 1.487 . S
C272 C279 1.399 . S
C272 N297 1.343 . S
C273 C274 1.384 . S
C273 C275 1.384 . S
C273 H292 0.931 . S
C274 C273 1.384 . S
C274 C277 1.382 . S
C275 C273 1.384 . S
C275 C276 1.381 . S
C275 H293 0.930 . S
C276 C275 1.381 . S
C276 C278 1.381 . S
C276 C279 1.487 . S
C277 C274 1.382 . S
C277 C278 1.387 . S
C277 H294 0.930 . S
C278 C276 1.381 . S
C278 C277 1.387 . S
C278 H295 0.931 . S
C279 C272 1.399 . S
C279 C276 1.487 . S
C279 N296 1.343 . S
H280 C252 0.931 . S
H281 C254 0.930 . S
H282 C256 0.930 . S
H283 C257 0.931 . S
H284 C259 0.931 . S
H285 C261 0.930 . S
H286 C263 0.930 . S
H287 C264 0.931 . S
H288 C266 0.931 . S
H289 C268 0.930 . S
H290 C270 0.930 . S
H291 C271 0.931 . S
H292 C273 0.931 . S
H293 C275 0.930 . S
H294 C277 0.930 . S
H295 C278 0.931 . S
N296 C258 1.343 . S
N296 C279 1.343 . S
N297 C265 1.343 . S
N297 C272 1.343 . S
C298 C299 1.384 . S
C298 C300 1.384 . S
C298 H326 0.931 . S
C299 C298 1.384 . S
C299 C302 1.382 . S
C300 C298 1.384 . S
C300 C301 1.381 . S
C300 H327 0.930 . S
C301 C300 1.381 . S
C301 C303 1.381 . S
C301 C304 1.487 . S
C302 C299 1.382 . S
C302 C303 1.387 . S
C302 H328 0.930 . S
C303 C301 1.381 . S
C303 C302 1.387 . S
C303 H329 0.931 . S
C304 C301 1.487 . S
C304 C311 1.399 . S
C304 N342 1.343 . S
C305 C306 1.384 . S
C305 C307 1.384 . S
C305 H330 0.931 . S
C306 C305 1.384 . S
C306 C309 1.382 . S
C307 C305 1.384 . S
C307 C308 1.381 . S
C307 H331 0.930 . S
C308 C307 1.381 . S
C308 C310 1.381 . S
C308 C311 1.487 . S
C309 C306 1.382 . S
C309 C310 1.387 . S
C309 H332 0.930 . S
C310 C308 1.381 . S
C310 C309 1.387 . S
C310 H333 0.931 . S
C311 C304 1.399 . S
C311 C308 1.487 . S
C311 N343 1.343 . S
C312 C313 1.384 . S
C312 C314 1.384 . S
C312 H334 0.931 . S
C313 C312 1.384 . S
C313 C316 1.382 . S
C314 C312 1.384 . S
C314 C315 1.381 . S
C314 H335 0.930 . S
C315 C314 1.381 . S
C315 C317 1.381 . S
C315 C318 1.487 . S
C316 C313 1.382 . S
C316 C317 1.387 . S
C316 H336 0.930 . S
C317 C315 1.381 . S
C317 C316 1.387 . S
C317 H337 0.931 . S
C318 C315 1.487 . S
C318 C325 1.399 . S
C318 N343 1.343 . S
C319 C320 1.384 . S
C319 C321 1.384 . S
C319 H338 0.931 . S
C320 C319 1.384 . S
C320 C323 1.382 . S
C321 C319 1.384 . S
C321 C322 1.381 . S
C321 H339 0.930 . S
C322 C321 1.381 . S
C322 C324 1.381 . S
C322 C325 1.487 . S
C323 C320 1.382 . S
C323 C324 1.387 . S
C323 H340 0.930 . S
C324 C322 1.381 . S
C324 C323 1.387 . S
C324 H341 0.931 . S
C325 C318 1.399 . S
C325 C322 1.487 . S
C325 N342 1.343 . S
H326 C298 0.931 . S
H327 C300 0.930 . S
H328 C302 0.930 . S
H329 C303 0.931 . S
H330 C305 0.931 . S
H331 C307 0.930 . S
H332 C309 0.930 . S
H333 C310 0.931 . S
H334 C312 0.931 . S
H335 C314 0.930 . S
H336 C316 0.930 . S
H337 C317 0.931 . S
H338 C319 0.931 . S
H339 C321 0.930 . S
H340 C323 0.930 . S
H341 C324 0.931 . S
N342 C304 1.343 . S
N342 C325 1.343 . S
N343 C311 1.343 . S
N343 C318 1.343 . S
C344 C345 1.384 . S
C344 C346 1.384 . S
C344 H372 0.931 . S
C345 C344 1.384 . S
C345 C348 1.382 . S
C346 C344 1.384 . S
C346 C347 1.381 . S
C346 H373 0.930 . S
C347 C346 1.381 . S
C347 C349 1.381 . S
C347 C350 1.487 . S
C348 C345 1.382 . S
C348 C349 1.387 . S
C348 H374 0.930 . S
C349 C347 1.381 . S
C349 C348 1.387 . S
C349 H375 0.931 . S
C350 C347 1.487 . S
C350 C357 1.399 . S
C350 N388 1.343 . S
C351 C352 1.384 . S
C351 C353 1.384 . S
C351 H376 0.931 . S
C352 C351 1.384 . S
C352 C355 1.382 . S
C353 C351 1.384 . S
C353 C354 1.381 . S
C353 H377 0.930 . S
C354 C353 1.381 . S
C354 C356 1.381 . S
C354 C357 1.487 . S
C355 C352 1.382 . S
C355 C356 1.387 . S
C355 H378 0.930 . S
C356 C354 1.381 . S
C356 C355 1.387 . S
C356 H379 0.931 . S
C357 C350 1.399 . S
C357 C354 1.487 . S
C357 N389 1.343 . S
C358 C359 1.384 . S
C358 C360 1.384 . S
C358 H380 0.931 . S
C359 C358 1.384 . S
C359 C362 1.382 . S
C360 C358 1.384 . S
C360 C361 1.381 . S
C360 H381 0.930 . S
C361 C360 1.381 . S
C361 C363 1.381 . S
C361 C364 1.487 . S
C362 C359 1.382 . S
C362 C363 1.387 . S
C362 H382 0.930 . S
C363 C361 1.381 . S
C363 C362 1.387 . S
C363 H383 0.931 . S
C364 C361 1.487 . S
C364 C371 1.399 . S
C364 N389 1.343 . S
C365 C366 1.384 . S
C365 C367 1.384 . S
C365 H384 0.931 . S
C366 C365 1.384 . S
C366 C369 1.382 . S
C367 C365 1.384 . S
C367 C368 1.381 . S
C367 H385 0.930 . S
C368 C367 1.381 . S
C368 C370 1.381 . S
C368 C371 1.487 . S
C369 C366 1.382 . S
C369 C370 1.387 . S
C369 H386 0.930 . S
C370 C368 1.381 . S
C370 C369 1.387 . S
C370 H387 0.931 . S
C371 C364 1.399 . S
C371 C368 1.487 . S
C371 N388 1.343 . S
H372 C344 0.931 . S
H373 C346 0.930 . S
H374 C348 0.930 . S
H375 C349 0.931 . S
H376 C351 0.931 . S
H377 C353 0.930 . S
H378 C355 0.930 . S
H379 C356 0.931 . S
H380 C358 0.931 . S
H381 C360 0.930 . S
H382 C362 0.930 . S
H383 C363 0.931 . S
H384 C365 0.931 . S
H385 C367 0.930 . S
H386 C369 0.930 . S
H387 C370 0.931 . S
N388 C350 1.343 . S
N388 C371 1.343 . S
N389 C357 1.343 . S
N389 C364 1.343 . S
C390 C391 1.384 . S
C390 C392 1.384 . S
C390 H418 0.931 . S
C391 C390 1.384 . S
C391 C394 1.382 . S
C392 C390 1.384 . S
C392 C393 1.381 . S
C392 H419 0.930 . S
C393 C392 1.381 . S
C393 C395 1.381 . S
C393 C396 1.487 . S
C394 C391 1.382 . S
C394 C395 1.387 . S
C394 H420 0.930 . S
C395 C393 1.381 . S
C395 C394 1.387 . S
C395 H421 0.931 . S
C396 C393 1.487 . S
C396 C403 1.399 . S
C396 N434 1.343 . S
C397 C398 1.384 . S
C397 C399 1.384 . S
C397 H422 0.931 . S
C398 C397 1.384 . S
C398 C401 1.382 . S
C399 C397 1.384 . S
C399 C400 1.381 . S
C399 H423 0.930 . S
C400 C399 1.381 . S
C400 C402 1.381 . S
C400 C403 1.487 . S
C401 C398 1.382 . S
C401 C402 1.387 . S
C401 H424 0.930 . S
C402 C400 1.381 . S
C402 C401 1.387 . S
C402 H425 0.931 . S
C403 C396 1.399 . S
C403 C400 1.487 . S
C403 N435 1.343 . S
C404 C405 1.384 . S
C404 C406 1.384 . S
C404 H426 0.931 . S
C405 C404 1.384 . S
C405 C408 1.382 . S
C406 C404 1.384 . S
C406 C407 1.381 . S
C406 H427 0.930 . S
C407 C406 1.381 . S
C407 C409 1.381 . S
C407 C410 1.487 . S
C408 C405 1.382 . S
C408 C409 1.387 . S
C408 H428 0.930 . S
C409 C407 1.381 . S
C409 C408 1.387 . S
C409 H429 0.931 . S
C410 C407 1.487 . S
C410 C417 1.399 . S
C410 N435 1.343 . S
C411 C412 1.384 . S
C411 C413 1.384 . S
C411 H430 0.931 . S
C412 C411 1.384 . S
C412 C415 1.382 . S
C413 C411 1.384 . S
C413 C414 1.381 . S
C413 H431 0.930 . S
C414 C413 1.381 . S
C414 C416 1.381 . S
C414 C417 1.487 . S
C415 C412 1.382 . S
C415 C416 1.387 . S
C415 H432 0.930 . S
C416 C414 1.381 . S
C416 C415 1.387 . S
C416 H433 0.931 . S
C417 C410 1.399 . S
C417 C414 1.487 . S
C417 N434 1.343 . S
H418 C390 0.931 . S
H419 C392 0.930 . S
H420 C394 0.930 . S
H421 C395 0.931 . S
H422 C397 0.931 . S
H423 C399 0.930 . S
H424 C401 0.930 . S
H425 C402 0.931 . S
H426 C404 0.931 . S
H427 C406 0.930 . S
H428 C408 0.930 . S
H429 C409 0.931 . S
H430 C411 0.931 . S
H431 C413 0.930 . S
H432 C415 0.930 . S
H433 C416 0.931 . S
N434 C396 1.343 . S
N434 C417 1.343 . S
N435 C403 1.343 . S
N435 C410 1.343 . S
C436 C437 1.384 . S
C436 C438 1.384 . S
C436 H464 0.931 . S
C437 C436 1.384 . S
C437 C440 1.382 . S
C438 C436 1.384 . S
C438 C439 1.381 . S
C438 H465 0.930 . S
C439 C438 1.381 . S
C439 C441 1.381 . S
C439 C442 1.487 . S
C440 C437 1.382 . S
C440 C441 1.387 . S
C440 H466 0.930 . S
C441 C439 1.381 . S
C441 C440 1.387 . S
C441 H467 0.931 . S
C442 C439 1.487 . S
C442 C449 1.399 . S
C442 N480 1.343 . S
C443 C444 1.384 . S
C443 C445 1.384 . S
C443 H468 0.931 . S
C444 C443 1.384 . S
C444 C447 1.382 . S
C445 C443 1.384 . S
C445 C446 1.381 . S
C445 H469 0.930 . S
C446 C445 1.381 . S
C446 C448 1.381 . S
C446 C449 1.487 . S
C447 C444 1.382 . S
C447 C448 1.387 . S
C447 H470 0.930 . S
C448 C446 1.381 . S
C448 C447 1.387 . S
C448 H471 0.931 . S
C449 C442 1.399 . S
C449 C446 1.487 . S
C449 N481 1.343 . S
C450 C451 1.384 . S
C450 C452 1.384 . S
C450 H472 0.931 . S
C451 C450 1.384 . S
C451 C454 1.382 . S
C452 C450 1.384 . S
C452 C453 1.381 . S
C452 H473 0.930 . S
C453 C452 1.381 . S
C453 C455 1.381 . S
C453 C456 1.487 . S
C454 C451 1.382 . S
C454 C455 1.387 . S
C454 H474 0.930 . S
C455 C453 1.381 . S
C455 C454 1.387 . S
C455 H475 0.931 . S
C456 C453 1.487 . S
C456 C463 1.399 . S
C456 N481 1.343 . S
C457 C458 1.384 . S
C457 C459 1.384 . S
C457 H476 0.931 . S
C458 C457 1.384 . S
C458 C461 1.382 . S
C459 C457 1.384 . S
C459 C460 1.381 . S
C459 H477 0.930 . S
C460 C459 1.381 . S
C460 C462 1.381 . S
C460 C463 1.487 . S
C461 C458 1.382 . S
C461 C462 1.387 . S
C461 H478 0.930 . S
C462 C460 1.381 . S
C462 C461 1.387 . S
C462 H479 0.931 . S
C463 C456 1.399 . S
C463 C460 1.487 . S
C463 N480 1.343 . S
H464 C436 0.931 . S
H465 C438 0.930 . S
H466 C440 0.930 . S
H467 C441 0.931 . S
H468 C443 0.931 . S
H469 C445 0.930 . S
H470 C447 0.930 . S
H471 C448 0.931 . S
H472 C450 0.931 . S
H473 C452 0.930 . S
H474 C454 0.930 . S
H475 C455 0.931 . S
H476 C457 0.931 . S
H477 C459 0.930 . S
H478 C461 0.930 . S
H479 C462 0.931 . S
N480 C442 1.343 . S
N480 C463 1.343 . S
N481 C449 1.343 . S
N481 C456 1.343 . S
C482 C483 1.384 . S
C482 C484 1.384 . S
C482 H510 0.931 . S
C483 C482 1.384 . S
C483 C486 1.382 . S
C484 C482 1.384 . S
C484 C485 1.381 . S
C484 H511 0.930 . S
C485 C484 1.381 . S
C485 C487 1.381 . S
C485 C488 1.487 . S
C486 C483 1.382 . S
C486 C487 1.387 . S
C486 H512 0.930 . S
C487 C485 1.381 . S
C487 C486 1.387 . S
C487 H513 0.931 . S
C488 C485 1.487 . S
C488 C495 1.399 . S
C488 N526 1.343 . S
C489 C490 1.384 . S
C489 C491 1.384 . S
C489 H514 0.931 . S
C490 C489 1.384 . S
C490 C493 1.382 . S
C491 C489 1.384 . S
C491 C492 1.381 . S
C491 H515 0.930 . S
C492 C491 1.381 . S
C492 C494 1.381 . S
C492 C495 1.487 . S
C493 C490 1.382 . S
C493 C494 1.387 . S
C493 H516 0.930 . S
C494 C492 1.381 . S
C494 C493 1.387 . S
C494 H517 0.931 . S
C495 C488 1.399 . S
C495 C492 1.487 . S
C495 N527 1.343 . S
C496 C497 1.384 . S
C496 C498 1.384 . S
C496 H518 0.931 . S
C497 C496 1.384 . S
C497 C500 1.382 . S
C498 C496 1.384 . S
C498 C499 1.381 . S
C498 H519 0.930 . S
C499 C498 1.381 . S
C499 C501 1.381 . S
C499 C502 1.487 . S
C500 C497 1.382 . S
C500 C501 1.387 . S
C500 H520 0.930 . S
C501 C499 1.381 . S
C501 C500 1.387 . S
C501 H521 0.931 . S
C502 C499 1.487 . S
C502 C509 1.399 . S
C502 N527 1.343 . S
C503 C504 1.384 . S
C503 C505 1.384 . S
C503 H522 0.931 . S
C504 C503 1.384 . S
C504 C507 1.382 . S
C505 C503 1.384 . S
C505 C506 1.381 . S
C505 H523 0.930 . S
C506 C505 1.381 . S
C506 C508 1.381 . S
C506 C509 1.487 . S
C507 C504 1.382 . S
C507 C508 1.387 . S
C507 H524 0.930 . S
C508 C506 1.381 . S
C508 C507 1.387 . S
C508 H525 0.931 . S
C509 C502 1.399 . S
C509 C506 1.487 . S
C509 N526 1.343 . S
H510 C482 0.931 . S
H511 C484 0.930 . S
H512 C486 0.930 . S
H513 C487 0.931 . S
H514 C489 0.931 . S
H515 C491 0.930 . S
H516 C493 0.930 . S
H517 C494 0.931 . S
H518 C496 0.931 . S
H519 C498 0.930 . S
H520 C500 0.930 . S
H521 C501 0.931 . S
H522 C503 0.931 . S
H523 C505 0.930 . S
H524 C507 0.930 . S
H525 C508 0.931 . S
N526 C488 1.343 . S
N526 C509 1.343 . S
N527 C495 1.343 . S
N527 C502 1.343 . S
C528 C529 1.384 . S
C528 C530 1.384 . S
C528 H556 0.931 . S
C529 C528 1.384 . S
C529 C532 1.382 . S
C530 C528 1.384 . S
C530 C531 1.381 . S
C530 H557 0.930 . S
C531 C530 1.381 . S
C531 C533 1.381 . S
C531 C534 1.487 . S
C532 C529 1.382 . S
C532 C533 1.387 . S
C532 H558 0.930 . S
C533 C531 1.381 . S
C533 C532 1.387 . S
C533 H559 0.931 . S
C534 C531 1.487 . S
C534 C541 1.399 . S
C534 N572 1.343 . S
C535 C536 1.384 . S
C535 C537 1.384 . S
C535 H560 0.931 . S
C536 C535 1.384 . S
C536 C539 1.382 . S
C537 C535 1.384 . S
C537 C538 1.381 . S
C537 H561 0.930 . S
C538 C537 1.381 . S
C538 C540 1.381 . S
C538 C541 1.487 . S
C539 C536 1.382 . S
C539 C540 1.387 . S
C539 H562 0.930 . S
C540 C538 1.381 . S
C540 C539 1.387 . S
C540 H563 0.931 . S
C541 C534 1.399 . S
C541 C538 1.487 . S
C541 N573 1.343 . S
C542 C543 1.384 . S
C542 C544 1.384 . S
C542 H564 0.931 . S
C543 C542 1.384 . S
C543 C546 1.382 . S
C544 C542 1.384 . S
C544 C545 1.381 . S
C544 H565 0.930 . S
C545 C544 1.381 . S
C545 C547 1.381 . S
C545 C548 1.487 . S
C546 C543 1.382 . S
C546 C547 1.387 . S
C546 H566 0.930 . S
C547 C545 1.381 . S
C547 C546 1.387 . S
C547 H567 0.931 . S
C548 C545 1.487 . S
C548 C555 1.399 . S
C548 N573 1.343 . S
C549 C550 1.384 . S
C549 C551 1.384 . S
C549 H568 0.931 . S
C550 C549 1.384 . S
C550 C553 1.382 . S
C551 C549 1.384 . S
C551 C552 1.381 . S
C551 H569 0.930 . S
C552 C551 1.381 . S
C552 C554 1.381 . S
C552 C555 1.487 . S
C553 C550 1.382 . S
C553 C554 1.387 . S
C553 H570 0.930 . S
C554 C552 1.381 . S
C554 C553 1.387 . S
C554 H571 0.931 . S
C555 C548 1.399 . S
C555 C552 1.487 . S
C555 N572 1.343 . S
H556 C528 0.931 . S
H557 C530 0.930 . S
H558 C532 0.930 . S
H559 C533 0.931 . S
H560 C535 0.931 . S
H561 C537 0.930 . S
H562 C539 0.930 . S
H563 C540 0.931 . S
H564 C542 0.931 . S
H565 C544 0.930 . S
H566 C546 0.930 . S
H567 C547 0.931 . S
H568 C549 0.931 . S
H569 C551 0.930 . S
H570 C553 0.930 . S
H571 C554 0.931 . S
N572 C534 1.343 . S
N572 C555 1.343 . S
N573 C541 1.343 . S
N573 C548 1.343 . S
C574 C575 1.384 . S
C574 C576 1.384 . S
C574 H602 0.931 . S
C575 C574 1.384 . S
C575 C578 1.382 . S
C576 C574 1.384 . S
C576 C577 1.381 . S
C576 H603 0.930 . S
C577 C576 1.381 . S
C577 C579 1.381 . S
C577 C580 1.487 . S
C578 C575 1.382 . S
C578 C579 1.387 . S
C578 H604 0.930 . S
C579 C577 1.381 . S
C579 C578 1.387 . S
C579 H605 0.931 . S
C580 C577 1.487 . S
C580 C587 1.399 . S
C580 N618 1.343 . S
C581 C582 1.384 . S
C581 C583 1.384 . S
C581 H606 0.931 . S
C582 C581 1.384 . S
C582 C585 1.382 . S
C583 C581 1.384 . S
C583 C584 1.381 . S
C583 H607 0.930 . S
C584 C583 1.381 . S
C584 C586 1.381 . S
C584 C587 1.487 . S
C585 C582 1.382 . S
C585 C586 1.387 . S
C585 H608 0.930 . S
C586 C584 1.381 . S
C586 C585 1.387 . S
C586 H609 0.931 . S
C587 C580 1.399 . S
C587 C584 1.487 . S
C587 N619 1.343 . S
C588 C589 1.384 . S
C588 C590 1.384 . S
C588 H610 0.931 . S
C589 C588 1.384 . S
C589 C592 1.382 . S
C590 C588 1.384 . S
C590 C591 1.381 . S
C590 H611 0.930 . S
C591 C590 1.381 . S
C591 C593 1.381 . S
C591 C594 1.487 . S
C592 C589 1.382 . S
C592 C593 1.387 . S
C592 H612 0.930 . S
C593 C591 1.381 . S
C593 C592 1.387 . S
C593 H613 0.931 . S
C594 C591 1.487 . S
C594 C601 1.399 . S
C594 N619 1.343 . S
C595 C596 1.384 . S
C595 C597 1.384 . S
C595 H614 0.931 . S
C596 C595 1.384 . S
C596 C599 1.382 . S
C597 C595 1.384 . S
C597 C598 1.381 . S
C597 H615 0.930 . S
C598 C597 1.381 . S
C598 C600 1.381 . S
C598 C601 1.487 . S
C599 C596 1.382 . S
C599 C600 1.387 . S
C599 H616 0.930 . S
C600 C598 1.381 . S
C600 C599 1.387 . S
C600 H617 0.931 . S
C601 C594 1.399 . S
C601 C598 1.487 . S
C601 N618 1.343 . S
H602 C574 0.931 . S
H603 C576 0.930 . S
H604 C578 0.930 . S
H605 C579 0.931 . S
H606 C581 0.931 . S
H607 C583 0.930 . S
H608 C585 0.930 . S
H609 C586 0.931 . S
H610 C588 0.931 . S
H611 C590 0.930 . S
H612 C592 0.930 . S
H613 C593 0.931 . S
H614 C595 0.931 . S
H615 C597 0.930 . S
H616 C599 0.930 . S
H617 C600 0.931 . S
N618 C580 1.343 . S
N618 C601 1.343 . S
N619 C587 1.343 . S
N619 C594 1.343 . S
C620 C621 1.384 . S
C620 C622 1.384 . S
C620 H648 0.931 . S
C621 C620 1.384 . S
C621 C624 1.382 . S
C622 C620 1.384 . S
C622 C623 1.381 . S
C622 H649 0.930 . S
C623 C622 1.381 . S
C623 C625 1.381 . S
C623 C626 1.487 . S
C624 C621 1.382 . S
C624 C625 1.387 . S
C624 H650 0.930 . S
C625 C623 1.381 . S
C625 C624 1.387 . S
C625 H651 0.931 . S
C626 C623 1.487 . S
C626 C633 1.399 . S
C626 N664 1.343 . S
C627 C628 1.384 . S
C627 C629 1.384 . S
C627 H652 0.931 . S
C628 C627 1.384 . S
C628 C631 1.382 . S
C629 C627 1.384 . S
C629 C630 1.381 . S
C629 H653 0.930 . S
C630 C629 1.381 . S
C630 C632 1.381 . S
C630 C633 1.487 . S
C631 C628 1.382 . S
C631 C632 1.387 . S
C631 H654 0.930 . S
C632 C630 1.381 . S
C632 C631 1.387 . S
C632 H655 0.931 . S
C633 C626 1.399 . S
C633 C630 1.487 . S
C633 N665 1.343 . S
C634 C635 1.384 . S
C634 C636 1.384 . S
C634 H656 0.931 . S
C635 C634 1.384 . S
C635 C638 1.382 . S
C636 C634 1.384 . S
C636 C637 1.381 . S
C636 H657 0.930 . S
C637 C636 1.381 . S
C637 C639 1.381 . S
C637 C640 1.487 . S
C638 C635 1.382 . S
C638 C639 1.387 . S
C638 H658 0.930 . S
C639 C637 1.381 . S
C639 C638 1.387 . S
C639 H659 0.931 . S
C640 C637 1.487 . S
C640 C647 1.399 . S
C640 N665 1.343 . S
C641 C642 1.384 . S
C641 C643 1.384 . S
C641 H660 0.931 . S
C642 C641 1.384 . S
C642 C645 1.382 . S
C643 C641 1.384 . S
C643 C644 1.381 . S
C643 H661 0.930 . S
C644 C643 1.381 . S
C644 C646 1.381 . S
C644 C647 1.487 . S
C645 C642 1.382 . S
C645 C646 1.387 . S
C645 H662 0.930 . S
C646 C644 1.381 . S
C646 C645 1.387 . S
C646 H663 0.931 . S
C647 C640 1.399 . S
C647 C644 1.487 . S
C647 N664 1.343 . S
H648 C620 0.931 . S
H649 C622 0.930 . S
H650 C624 0.930 . S
H651 C625 0.931 . S
H652 C627 0.931 . S
H653 C629 0.930 . S
H654 C631 0.930 . S
H655 C632 0.931 . S
H656 C634 0.931 . S
H657 C636 0.930 . S
H658 C638 0.930 . S
H659 C639 0.931 . S
H660 C641 0.931 . S
H661 C643 0.930 . S
H662 C645 0.930 . S
H663 C646 0.931 . S
N664 C626 1.343 . S
N664 C647 1.343 . S
N665 C633 1.343 . S
N665 C640 1.343 . S
C666 C667 1.384 . S
C666 C668 1.384 . S
C666 H694 0.931 . S
C667 C666 1.384 . S
C667 C670 1.382 1_655 S
C668 C666 1.384 . S
C668 C669 1.404 . S
C668 H695 0.930 . S
C669 C668 1.404 . S
C669 C671 1.370 1_655 S
C669 C672 1.473 1_655 S
C670 C667 1.382 1_455 S
C670 C671 1.387 . S
C670 H696 0.930 . S
C671 C669 1.370 1_455 S
C671 C670 1.387 . S
C671 H697 0.931 . S
C672 C669 1.473 1_455 S
C672 C679 1.399 1_455 S
C672 N710 1.316 . S
C673 C674 1.384 . S
C673 C675 1.384 . S
C673 H698 0.931 . S
C674 C673 1.384 . S
C674 C677 1.382 1_455 S
C675 C673 1.384 . S
C675 C676 1.382 . S
C675 H699 0.930 . S
C676 C675 1.382 . S
C676 C678 1.379 1_455 S
C676 C679 1.492 1_455 S
C677 C674 1.382 1_655 S
C677 C678 1.387 . S
C677 H700 0.930 . S
C678 C676 1.379 1_655 S
C678 C677 1.387 . S
C678 H701 0.931 . S
C679 C672 1.399 1_655 S
C679 C676 1.492 1_655 S
C679 N711 1.361 . S
C680 C681 1.384 . S
C680 C682 1.384 . S
C680 H702 0.931 . S
C681 C680 1.384 . S
C681 C684 1.382 1_455 S
C682 C680 1.384 . S
C682 C683 1.420 . S
C682 H703 0.930 . S
C683 C682 1.420 . S
C683 C685 1.362 1_455 S
C683 C686 1.466 . S
C684 C681 1.382 1_655 S
C684 C685 1.387 . S
C684 H704 0.930 . S
C685 C683 1.362 1_655 S
C685 C684 1.387 . S
C685 H705 0.931 . S
C686 C683 1.466 . S
C686 C693 1.399 . S
C686 N711 1.323 1_455 S
C687 C688 1.384 . S
C687 C689 1.384 . S
C687 H706 0.931 . S
C688 C687 1.384 . S
C688 C691 1.382 1_655 S
C689 C687 1.384 . S
C689 C690 1.382 1_655 S
C689 H707 0.930 . S
C690 C689 1.382 1_455 S
C690 C692 1.379 . S
C690 C693 1.499 . S
C691 C688 1.382 1_455 S
C691 C692 1.387 . S
C691 H708 0.930 . S
C692 C690 1.379 . S
C692 C691 1.387 . S
C692 H709 0.931 . S
C693 C686 1.399 . S
C693 C690 1.499 . S
C693 N710 1.361 . S
H694 C666 0.931 . S
H695 C668 0.930 . S
H696 C670 0.930 . S
H697 C671 0.931 . S
H698 C673 0.931 . S
H699 C675 0.930 . S
H700 C677 0.930 . S
H701 C678 0.931 . S
H702 C680 0.931 . S
H703 C682 0.930 . S
H704 C684 0.930 . S
H705 C685 0.931 . S
H706 C687 0.931 . S
H707 C689 0.930 . S
H708 C691 0.930 . S
H709 C692 0.931 . S
N710 C672 1.316 . S
N710 C693 1.361 . S
N711 C679 1.361 . S
N711 C686 1.323 1_655 S
C712 C713 1.384 . S
C712 C714 1.384 . S
C712 H740 0.931 . S
C713 C712 1.384 . S
C713 C716 1.382 . S
C714 C712 1.384 . S
C714 C715 1.381 . S
C714 H741 0.930 . S
C715 C714 1.381 . S
C715 C717 1.381 . S
C715 C718 1.487 . S
C716 C713 1.382 . S
C716 C717 1.387 . S
C716 H742 0.930 . S
C717 C715 1.381 . S
C717 C716 1.387 . S
C717 H743 0.931 . S
C718 C715 1.487 . S
C718 C725 1.399 . S
C718 N756 1.343 . S
C719 C720 1.384 . S
C719 C721 1.384 . S
C719 H744 0.931 . S
C720 C719 1.384 . S
C720 C723 1.382 . S
C721 C719 1.384 . S
C721 C722 1.381 . S
C721 H745 0.930 . S
C722 C721 1.381 . S
C722 C724 1.381 . S
C722 C725 1.487 . S
C723 C720 1.382 . S
C723 C724 1.387 . S
C723 H746 0.930 . S
C724 C722 1.381 . S
C724 C723 1.387 . S
C724 H747 0.931 . S
C725 C718 1.399 . S
C725 C722 1.487 . S
C725 N757 1.343 . S
C726 C727 1.384 . S
C726 C728 1.384 . S
C726 H748 0.931 . S
C727 C726 1.384 . S
C727 C730 1.382 . S
C728 C726 1.384 . S
C728 C729 1.381 . S
C728 H749 0.930 . S
C729 C728 1.381 . S
C729 C731 1.381 . S
C729 C732 1.487 . S
C730 C727 1.382 . S
C730 C731 1.387 . S
C730 H750 0.930 . S
C731 C729 1.381 . S
C731 C730 1.387 . S
C731 H751 0.931 . S
C732 C729 1.487 . S
C732 C739 1.399 . S
C732 N757 1.343 . S
C733 C734 1.384 . S
C733 C735 1.384 . S
C733 H752 0.931 . S
C734 C733 1.384 . S
C734 C737 1.382 . S
C735 C733 1.384 . S
C735 C736 1.381 . S
C735 H753 0.930 . S
C736 C735 1.381 . S
C736 C738 1.381 . S
C736 C739 1.487 . S
C737 C734 1.382 . S
C737 C738 1.387 . S
C737 H754 0.930 . S
C738 C736 1.381 . S
C738 C737 1.387 . S
C738 H755 0.931 . S
C739 C732 1.399 . S
C739 C736 1.487 . S
C739 N756 1.343 . S
H740 C712 0.931 . S
H741 C714 0.930 . S
H742 C716 0.930 . S
H743 C717 0.931 . S
H744 C719 0.931 . S
H745 C721 0.930 . S
H746 C723 0.930 . S
H747 C724 0.931 . S
H748 C726 0.931 . S
H749 C728 0.930 . S
H750 C730 0.930 . S
H751 C731 0.931 . S
H752 C733 0.931 . S
H753 C735 0.930 . S
H754 C737 0.930 . S
H755 C738 0.931 . S
N756 C718 1.343 . S
N756 C739 1.343 . S
N757 C725 1.343 . S
N757 C732 1.343 . S
C758 C759 1.384 1_545 S
C758 C760 1.384 . S
C758 H786 0.931 . S
C759 C758 1.384 1_565 S
C759 C762 1.382 . S
C760 C758 1.384 . S
C760 C761 1.381 1_545 S
C760 H787 0.930 . S
C761 C760 1.381 1_565 S
C761 C763 1.381 . S
C761 C764 1.487 . S
C762 C759 1.382 . S
C762 C763 1.387 . S
C762 H788 0.930 . S
C763 C761 1.381 . S
C763 C762 1.387 . S
C763 H789 0.931 . S
C764 C761 1.487 . S
C764 C771 1.399 1_565 S
C764 N802 1.343 . S
C765 C766 1.384 1_565 S
C765 C767 1.384 . S
C765 H790 0.931 . S
C766 C765 1.384 1_545 S
C766 C769 1.382 . S
C767 C765 1.384 . S
C767 C768 1.381 1_565 S
C767 H791 0.930 . S
C768 C767 1.381 1_545 S
C768 C770 1.381 . S
C768 C771 1.487 . S
C769 C766 1.382 . S
C769 C770 1.387 . S
C769 H792 0.930 . S
C770 C768 1.381 . S
C770 C769 1.387 . S
C770 H793 0.931 . S
C771 C764 1.399 1_545 S
C771 C768 1.487 . S
C771 N803 1.343 . S
C772 C773 1.384 1_565 S
C772 C774 1.384 . S
C772 H794 0.931 . S
C773 C772 1.384 1_545 S
C773 C776 1.382 . S
C774 C772 1.384 . S
C774 C775 1.381 1_565 S
C774 H795 0.930 . S
C775 C774 1.381 1_545 S
C775 C777 1.381 . S
C775 C778 1.487 . S
C776 C773 1.382 . S
C776 C777 1.387 . S
C776 H796 0.930 . S
C777 C775 1.381 . S
C777 C776 1.387 . S
C777 H797 0.931 . S
C778 C775 1.487 . S
C778 C785 1.399 1_545 S
C778 N803 1.343 . S
C779 C780 1.384 1_545 S
C779 C781 1.384 . S
C779 H798 0.931 . S
C780 C779 1.384 1_565 S
C780 C783 1.382 . S
C781 C779 1.384 . S
C781 C782 1.381 1_545 S
C781 H799 0.930 . S
C782 C781 1.381 1_565 S
C782 C784 1.381 . S
C782 C785 1.487 . S
C783 C780 1.382 . S
C783 C784 1.387 . S
C783 H800 0.930 . S
C784 C782 1.381 . S
C784 C783 1.387 . S
C784 H801 0.931 . S
C785 C778 1.399 1_565 S
C785 C782 1.487 . S
C785 N802 1.343 . S
H786 C758 0.931 . S
H787 C760 0.930 . S
H788 C762 0.930 . S
H789 C763 0.931 . S
H790 C765 0.931 . S
H791 C767 0.930 . S
H792 C769 0.930 . S
H793 C770 0.931 . S
H794 C772 0.931 . S
H795 C774 0.930 . S
H796 C776 0.930 . S
H797 C777 0.931 . S
H798 C779 0.931 . S
H799 C781 0.930 . S
H800 C783 0.930 . S
H801 C784 0.931 . S
N802 C764 1.343 . S
N802 C785 1.343 . S
N803 C771 1.343 . S
N803 C778 1.343 . S
C804 C805 1.384 . S
C804 C806 1.384 . S
C804 H832 0.931 . S
C805 C804 1.384 . S
C805 C808 1.382 1_545 S
C806 C804 1.384 . S
C806 C807 1.381 . S
C806 H833 0.930 . S
C807 C806 1.381 . S
C807 C809 1.383 1_545 S
C807 C810 1.490 1_545 S
C808 C805 1.382 1_565 S
C808 C809 1.387 . S
C808 H834 0.930 . S
C809 C807 1.383 1_565 S
C809 C808 1.387 . S
C809 H835 0.931 . S
C810 C807 1.490 1_565 S
C810 C817 1.399 1_565 S
C810 N848 1.363 . S
C811 C812 1.384 . S
C811 C813 1.384 . S
C811 H836 0.931 . S
C812 C811 1.384 . S
C812 C815 1.382 1_565 S
C813 C811 1.384 . S
C813 C814 1.394 . S
C813 H837 0.930 . S
C814 C813 1.394 . S
C814 C816 1.375 1_565 S
C814 C817 1.475 1_565 S
C815 C812 1.382 1_545 S
C815 C816 1.387 . S
C815 H838 0.930 . S
C816 C814 1.375 1_545 S
C816 C815 1.387 . S
C816 H839 0.931 . S
C817 C810 1.399 1_545 S
C817 C814 1.475 1_545 S
C817 N849 1.314 . S
C818 C819 1.384 . S
C818 C820 1.384 . S
C818 H840 0.931 . S
C819 C818 1.384 . S
C819 C822 1.382 1_565 S
C820 C818 1.384 . S
C820 C821 1.381 1_565 S
C820 H841 0.930 . S
C821 C820 1.381 1_545 S
C821 C823 1.383 . S
C821 C824 1.498 . S
C822 C819 1.382 1_545 S
C822 C823 1.387 . S
C822 H842 0.930 . S
C823 C821 1.383 . S
C823 C822 1.387 . S
C823 H843 0.931 . S
C824 C821 1.498 . S
C824 C831 1.399 1_545 S
C824 N849 1.363 . S
C825 C826 1.384 . S
C825 C827 1.384 . S
C825 H844 0.931 . S
C826 C825 1.384 . S
C826 C829 1.382 1_545 S
C827 C825 1.384 . S
C827 C828 1.411 . S
C827 H845 0.930 . S
C828 C827 1.411 . S
C828 C830 1.366 1_545 S
C828 C831 1.475 1_545 S
C829 C826 1.382 1_565 S
C829 C830 1.387 . S
C829 H846 0.930 . S
C830 C828 1.366 1_565 S
C830 C829 1.387 . S
C830 H847 0.931 . S
C831 C824 1.399 1_565 S
C831 C828 1.475 1_565 S
C831 N848 1.314 . S
H832 C804 0.931 . S
H833 C806 0.930 . S
H834 C808 0.930 . S
H835 C809 0.931 . S
H836 C811 0.931 . S
H837 C813 0.930 . S
H838 C815 0.930 . S
H839 C816 0.931 . S
H840 C818 0.931 . S
H841 C820 0.930 . S
H842 C822 0.930 . S
H843 C823 0.931 . S
H844 C825 0.931 . S
H845 C827 0.930 . S
H846 C829 0.930 . S
H847 C830 0.931 . S
N848 C810 1.363 . S
N848 C831 1.314 . S
N849 C817 1.314 . S
N849 C824 1.363 . S
C850 C851 1.384 . S
C850 C852 1.384 . S
C850 H878 0.931 . S
C851 C850 1.384 . S
C851 C854 1.382 1_655 S
C852 C850 1.384 . S
C852 C853 1.412 . S
C852 H879 0.930 . S
C853 C852 1.412 . S
C853 C855 1.366 1_655 S
C853 C856 1.475 1_655 S
C854 C851 1.382 1_455 S
C854 C855 1.387 . S
C854 H880 0.930 . S
C855 C853 1.366 1_455 S
C855 C854 1.387 . S
C855 H881 0.931 . S
C856 C853 1.475 1_455 S
C856 C863 1.399 1_455 S
C856 N894 1.315 . S
C857 C858 1.384 . S
C857 C859 1.384 . S
C857 H882 0.931 . S
C858 C857 1.384 . S
C858 C861 1.382 1_455 S
C859 C857 1.384 . S
C859 C860 1.382 1_455 S
C859 H883 0.930 . S
C860 C859 1.382 1_655 S
C860 C862 1.380 . S
C860 C863 1.499 . S
C861 C858 1.382 1_655 S
C861 C862 1.387 . S
C861 H884 0.930 . S
C862 C860 1.380 . S
C862 C861 1.387 . S
C862 H885 0.931 . S
C863 C856 1.399 1_655 S
C863 C860 1.499 . S
C863 N895 1.363 . S
C864 C865 1.384 . S
C864 C866 1.384 . S
C864 H886 0.931 . S
C865 C864 1.384 . S
C865 C868 1.382 1_455 S
C866 C864 1.384 . S
C866 C867 1.396 . S
C866 H887 0.930 . S
C867 C866 1.396 . S
C867 C869 1.374 1_455 S
C867 C870 1.475 1_455 S
C868 C865 1.382 1_655 S
C868 C869 1.387 . S
C868 H888 0.930 . S
C869 C867 1.374 1_655 S
C869 C868 1.387 . S
C869 H889 0.931 . S
C870 C867 1.475 1_655 S
C870 C877 1.399 1_655 S
C870 N895 1.315 . S
C871 C872 1.384 . S
C871 C873 1.384 . S
C871 H890 0.931 . S
C872 C871 1.384 . S
C872 C875 1.382 1_655 S
C873 C871 1.384 . S
C873 C874 1.382 . S
C873 H891 0.930 . S
C874 C873 1.382 . S
C874 C876 1.380 1_655 S
C874 C877 1.492 1_655 S
C875 C872 1.382 1_455 S
C875 C876 1.387 . S
C875 H892 0.930 . S
C876 C874 1.380 1_455 S
C876 C875 1.387 . S
C876 H893 0.931 . S
C877 C870 1.399 1_455 S
C877 C874 1.492 1_455 S
C877 N894 1.363 . S
H878 C850 0.931 . S
H879 C852 0.930 . S
H880 C854 0.930 . S
H881 C855 0.931 . S
H882 C857 0.931 . S
H883 C859 0.930 . S
H884 C861 0.930 . S
H885 C862 0.931 . S
H886 C864 0.931 . S
H887 C866 0.930 . S
H888 C868 0.930 . S
H889 C869 0.931 . S
H890 C871 0.931 . S
H891 C873 0.930 . S
H892 C875 0.930 . S
H893 C876 0.931 . S
N894 C856 1.315 . S
N894 C877 1.363 . S
N895 C863 1.363 . S
N895 C870 1.315 . S
C896 C897 1.384 . S
C896 C898 1.384 . S
C896 H924 0.931 . S
C897 C896 1.384 . S
C897 C900 1.382 . S
C898 C896 1.384 . S
C898 C899 1.381 . S
C898 H925 0.930 . S
C899 C898 1.381 . S
C899 C901 1.381 . S
C899 C902 1.487 . S
C900 C897 1.382 . S
C900 C901 1.387 . S
C900 H926 0.930 . S
C901 C899 1.381 . S
C901 C900 1.387 . S
C901 H927 0.931 . S
C902 C899 1.487 . S
C902 C909 1.399 . S
C902 N940 1.343 . S
C903 C904 1.384 . S
C903 C905 1.384 . S
C903 H928 0.931 . S
C904 C903 1.384 . S
C904 C907 1.382 . S
C905 C903 1.384 . S
C905 C906 1.381 . S
C905 H929 0.930 . S
C906 C905 1.381 . S
C906 C908 1.381 . S
C906 C909 1.487 . S
C907 C904 1.382 . S
C907 C908 1.387 . S
C907 H930 0.930 . S
C908 C906 1.381 . S
C908 C907 1.387 . S
C908 H931 0.931 . S
C909 C902 1.399 . S
C909 C906 1.487 . S
C909 N941 1.343 . S
C910 C911 1.384 . S
C910 C912 1.384 . S
C910 H932 0.931 . S
C911 C910 1.384 . S
C911 C914 1.382 . S
C912 C910 1.384 . S
C912 C913 1.381 . S
C912 H933 0.930 . S
C913 C912 1.381 . S
C913 C915 1.381 . S
C913 C916 1.487 . S
C914 C911 1.382 . S
C914 C915 1.387 . S
C914 H934 0.930 . S
C915 C913 1.381 . S
C915 C914 1.387 . S
C915 H935 0.931 . S
C916 C913 1.487 . S
C916 C923 1.399 . S
C916 N941 1.343 . S
C917 C918 1.384 . S
C917 C919 1.384 . S
C917 H936 0.931 . S
C918 C917 1.384 . S
C918 C921 1.382 . S
C919 C917 1.384 . S
C919 C920 1.381 . S
C919 H937 0.930 . S
C920 C919 1.381 . S
C920 C922 1.381 . S
C920 C923 1.487 . S
C921 C918 1.382 . S
C921 C922 1.387 . S
C921 H938 0.930 . S
C922 C920 1.381 . S
C922 C921 1.387 . S
C922 H939 0.931 . S
C923 C916 1.399 . S
C923 C920 1.487 . S
C923 N940 1.343 . S
H924 C896 0.931 . S
H925 C898 0.930 . S
H926 C900 0.930 . S
H927 C901 0.931 . S
H928 C903 0.931 . S
H929 C905 0.930 . S
H930 C907 0.930 . S
H931 C908 0.931 . S
H932 C910 0.931 . S
H933 C912 0.930 . S
H934 C914 0.930 . S
H935 C915 0.931 . S
H936 C917 0.931 . S
H937 C919 0.930 . S
H938 C921 0.930 . S
H939 C922 0.931 . S
N940 C902 1.343 . S
N940 C923 1.343 . S
N941 C909 1.343 . S
N941 C916 1.343 . S
C942 C943 1.384 . S
C942 C944 1.384 . S
C942 H970 0.931 . S
C943 C942 1.384 . S
C943 C946 1.382 . S
C944 C942 1.384 . S
C944 C945 1.381 . S
C944 H971 0.930 . S
C945 C944 1.381 . S
C945 C947 1.381 . S
C945 C948 1.487 . S
C946 C943 1.382 . S
C946 C947 1.387 . S
C946 H972 0.930 . S
C947 C945 1.381 . S
C947 C946 1.387 . S
C947 H973 0.931 . S
C948 C945 1.487 . S
C948 C955 1.399 . S
C948 N986 1.343 . S
C949 C950 1.384 . S
C949 C951 1.384 . S
C949 H974 0.931 . S
C950 C949 1.384 . S
C950 C953 1.382 . S
C951 C949 1.384 . S
C951 C952 1.381 . S
C951 H975 0.930 . S
C952 C951 1.381 . S
C952 C954 1.381 . S
C952 C955 1.487 . S
C953 C950 1.382 . S
C953 C954 1.387 . S
C953 H976 0.930 . S
C954 C952 1.381 . S
C954 C953 1.387 . S
C954 H977 0.931 . S
C955 C948 1.399 . S
C955 C952 1.487 . S
C955 N987 1.343 . S
C956 C957 1.384 . S
C956 C958 1.384 . S
C956 H978 0.931 . S
C957 C956 1.384 . S
C957 C960 1.382 . S
C958 C956 1.384 . S
C958 C959 1.381 . S
C958 H979 0.930 . S
C959 C958 1.381 . S
C959 C961 1.381 . S
C959 C962 1.487 . S
C960 C957 1.382 . S
C960 C961 1.387 . S
C960 H980 0.930 . S
C961 C959 1.381 . S
C961 C960 1.387 . S
C961 H981 0.931 . S
C962 C959 1.487 . S
C962 C969 1.399 . S
C962 N987 1.343 . S
C963 C964 1.384 . S
C963 C965 1.384 . S
C963 H982 0.931 . S
C964 C963 1.384 . S
C964 C967 1.382 . S
C965 C963 1.384 . S
C965 C966 1.381 . S
C965 H983 0.930 . S
C966 C965 1.381 . S
C966 C968 1.381 . S
C966 C969 1.487 . S
C967 C964 1.382 . S
C967 C968 1.387 . S
C967 H984 0.930 . S
C968 C966 1.381 . S
C968 C967 1.387 . S
C968 H985 0.931 . S
C969 C962 1.399 . S
C969 C966 1.487 . S
C969 N986 1.343 . S
H970 C942 0.931 . S
H971 C944 0.930 . S
H972 C946 0.930 . S
H973 C947 0.931 . S
H974 C949 0.931 . S
H975 C951 0.930 . S
H976 C953 0.930 . S
H977 C954 0.931 . S
H978 C956 0.931 . S
H979 C958 0.930 . S
H980 C960 0.930 . S
H981 C961 0.931 . S
H982 C963 0.931 . S
H983 C965 0.930 . S
H984 C967 0.930 . S
H985 C968 0.931 . S
N986 C948 1.343 . S
N986 C969 1.343 . S
N987 C955 1.343 . S
N987 C962 1.343 . S
C988 C989 1.384 . S
C988 C990 1.384 . S
C988 H1016 0.931 . S
C989 C988 1.384 . S
C989 C992 1.382 . S
C990 C988 1.384 . S
C990 C991 1.381 . S
C990 H1017 0.930 . S
C991 C990 1.381 . S
C991 C993 1.381 . S
C991 C994 1.487 . S
C992 C989 1.382 . S
C992 C993 1.387 . S
C992 H1018 0.930 . S
C993 C991 1.381 . S
C993 C992 1.387 . S
C993 H1019 0.931 . S
C994 C991 1.487 . S
C994 C1001 1.399 . S
C994 N1032 1.343 . S
C995 C996 1.384 . S
C995 C997 1.384 . S
C995 H1020 0.931 . S
C996 C995 1.384 . S
C996 C999 1.382 . S
C997 C995 1.384 . S
C997 C998 1.381 . S
C997 H1021 0.930 . S
C998 C997 1.381 . S
C998 C1000 1.381 . S
C998 C1001 1.487 . S
C999 C996 1.382 . S
C999 C1000 1.387 . S
C999 H1022 0.930 . S
C1000 C998 1.381 . S
C1000 C999 1.387 . S
C1000 H1023 0.931 . S
C1001 C994 1.399 . S
C1001 C998 1.487 . S
C1001 N1033 1.343 . S
C1002 C1003 1.384 . S
C1002 C1004 1.384 . S
C1002 H1024 0.931 . S
C1003 C1002 1.384 . S
C1003 C1006 1.382 . S
C1004 C1002 1.384 . S
C1004 C1005 1.381 . S
C1004 H1025 0.930 . S
C1005 C1004 1.381 . S
C1005 C1007 1.381 . S
C1005 C1008 1.487 . S
C1006 C1003 1.382 . S
C1006 C1007 1.387 . S
C1006 H1026 0.930 . S
C1007 C1005 1.381 . S
C1007 C1006 1.387 . S
C1007 H1027 0.931 . S
C1008 C1005 1.487 . S
C1008 C1015 1.399 . S
C1008 N1033 1.343 . S
C1009 C1010 1.384 . S
C1009 C1011 1.384 . S
C1009 H1028 0.931 . S
C1010 C1009 1.384 . S
C1010 C1013 1.382 . S
C1011 C1009 1.384 . S
C1011 C1012 1.381 . S
C1011 H1029 0.930 . S
C1012 C1011 1.381 . S
C1012 C1014 1.381 . S
C1012 C1015 1.487 . S
C1013 C1010 1.382 . S
C1013 C1014 1.387 . S
C1013 H1030 0.930 . S
C1014 C1012 1.381 . S
C1014 C1013 1.387 . S
C1014 H1031 0.931 . S
C1015 C1008 1.399 . S
C1015 C1012 1.487 . S
C1015 N1032 1.343 . S
H1016 C988 0.931 . S
H1017 C990 0.930 . S
H1018 C992 0.930 . S
H1019 C993 0.931 . S
H1020 C995 0.931 . S
H1021 C997 0.930 . S
H1022 C999 0.930 . S
H1023 C1000 0.931 . S
H1024 C1002 0.931 . S
H1025 C1004 0.930 . S
H1026 C1006 0.930 . S
H1027 C1007 0.931 . S
H1028 C1009 0.931 . S
H1029 C1011 0.930 . S
H1030 C1013 0.930 . S
H1031 C1014 0.931 . S
N1032 C994 1.343 . S
N1032 C1015 1.343 . S
N1033 C1001 1.343 . S
N1033 C1008 1.343 . S
C1034 C1035 1.384 . S
C1034 C1036 1.384 . S
C1034 H1062 0.931 . S
C1035 C1034 1.384 . S
C1035 C1038 1.382 . S
C1036 C1034 1.384 . S
C1036 C1037 1.381 . S
C1036 H1063 0.930 . S
C1037 C1036 1.381 . S
C1037 C1039 1.381 . S
C1037 C1040 1.487 . S
C1038 C1035 1.382 . S
C1038 C1039 1.387 . S
C1038 H1064 0.930 . S
C1039 C1037 1.381 . S
C1039 C1038 1.387 . S
C1039 H1065 0.931 . S
C1040 C1037 1.487 . S
C1040 C1047 1.399 . S
C1040 N1078 1.343 . S
C1041 C1042 1.384 . S
C1041 C1043 1.384 . S
C1041 H1066 0.931 . S
C1042 C1041 1.384 . S
C1042 C1045 1.382 . S
C1043 C1041 1.384 . S
C1043 C1044 1.381 . S
C1043 H1067 0.930 . S
C1044 C1043 1.381 . S
C1044 C1046 1.381 . S
C1044 C1047 1.487 . S
C1045 C1042 1.382 . S
C1045 C1046 1.387 . S
C1045 H1068 0.930 . S
C1046 C1044 1.381 . S
C1046 C1045 1.387 . S
C1046 H1069 0.931 . S
C1047 C1040 1.399 . S
C1047 C1044 1.487 . S
C1047 N1079 1.343 . S
C1048 C1049 1.384 . S
C1048 C1050 1.384 . S
C1048 H1070 0.931 . S
C1049 C1048 1.384 . S
C1049 C1052 1.382 . S
C1050 C1048 1.384 . S
C1050 C1051 1.381 . S
C1050 H1071 0.930 . S
C1051 C1050 1.381 . S
C1051 C1053 1.381 . S
C1051 C1054 1.487 . S
C1052 C1049 1.382 . S
C1052 C1053 1.387 . S
C1052 H1072 0.930 . S
C1053 C1051 1.381 . S
C1053 C1052 1.387 . S
C1053 H1073 0.931 . S
C1054 C1051 1.487 . S
C1054 C1061 1.399 . S
C1054 N1079 1.343 . S
C1055 C1056 1.384 . S
C1055 C1057 1.384 . S
C1055 H1074 0.931 . S
C1056 C1055 1.384 . S
C1056 C1059 1.382 . S
C1057 C1055 1.384 . S
C1057 C1058 1.381 . S
C1057 H1075 0.930 . S
C1058 C1057 1.381 . S
C1058 C1060 1.381 . S
C1058 C1061 1.487 . S
C1059 C1056 1.382 . S
C1059 C1060 1.387 . S
C1059 H1076 0.930 . S
C1060 C1058 1.381 . S
C1060 C1059 1.387 . S
C1060 H1077 0.931 . S
C1061 C1054 1.399 . S
C1061 C1058 1.487 . S
C1061 N1078 1.343 . S
H1062 C1034 0.931 . S
H1063 C1036 0.930 . S
H1064 C1038 0.930 . S
H1065 C1039 0.931 . S
H1066 C1041 0.931 . S
H1067 C1043 0.930 . S
H1068 C1045 0.930 . S
H1069 C1046 0.931 . S
H1070 C1048 0.931 . S
H1071 C1050 0.930 . S
H1072 C1052 0.930 . S
H1073 C1053 0.931 . S
H1074 C1055 0.931 . S
H1075 C1057 0.930 . S
H1076 C1059 0.930 . S
H1077 C1060 0.931 . S
N1078 C1040 1.343 . S
N1078 C1061 1.343 . S
N1079 C1047 1.343 . S
N1079 C1054 1.343 . S
H1080 C1086 0.930 . S
H1081 C1090 0.930 . S
H1082 C1095 0.929 . S
H1083 C1093 0.929 . S
H1084 C1088 0.929 . S
H1085 C1094 0.929 . S
C1086 H1080 0.930 . S
C1086 C1087 1.367 . S
C1086 C1094 1.378 . S
C1087 C1086 1.367 . S
C1087 C1095 1.433 . S
C1088 H1084 0.929 . S
C1088 C1090 1.378 . S
C1088 C1092 1.350 . S
C1089 C1092 1.463 . S
C1089 C1094 1.350 . S
C1089 N1097 1.427 . S
C1090 H1081 0.930 . S
C1090 C1088 1.378 . S
C1090 C1091 1.367 . S
C1091 C1090 1.367 . S
C1091 C1093 1.433 . S
C1092 C1088 1.350 . S
C1092 C1089 1.463 . S
C1092 N1096 1.427 . S
C1093 H1083 0.929 . S
C1093 C1091 1.433 . S
C1093 N1096 1.384 . S
C1094 H1085 0.929 . S
C1094 C1086 1.378 . S
C1094 C1089 1.350 . S
C1095 H1082 0.929 . S
C1095 C1087 1.433 . S
C1095 N1097 1.384 . S
N1096 C1092 1.427 . S
N1096 C1093 1.384 . S
N1097 C1089 1.427 . S
N1097 C1095 1.384 . S
H1098 C1104 0.930 . S
H1099 C1108 0.930 . S
H1100 C1113 0.929 . S
H1101 C1111 0.929 . S
H1102 C1106 0.929 . S
H1103 C1112 0.929 . S
C1104 H1098 0.930 . S
C1104 C1105 1.367 . S
C1104 C1112 1.378 . S
C1105 C1104 1.367 . S
C1105 C1113 1.433 . S
C1106 H1102 0.929 . S
C1106 C1108 1.378 . S
C1106 C1110 1.350 . S
C1107 C1110 1.463 . S
C1107 C1112 1.350 . S
C1107 N1115 1.427 . S
C1108 H1099 0.930 . S
C1108 C1106 1.378 . S
C1108 C1109 1.367 . S
C1109 C1108 1.367 . S
C1109 C1111 1.433 . S
C1110 C1106 1.350 . S
C1110 C1107 1.463 . S
C1110 N1114 1.427 . S
C1111 H1101 0.929 . S
C1111 C1109 1.433 . S
C1111 N1114 1.384 . S
C1112 H1103 0.929 . S
C1112 C1104 1.378 . S
C1112 C1107 1.350 . S
C1113 H1100 0.929 . S
C1113 C1105 1.433 . S
C1113 N1115 1.384 . S
N1114 C1110 1.427 . S
N1114 C1111 1.384 . S
N1115 C1107 1.427 . S
N1115 C1113 1.384 . S
H1116 C1122 0.930 . S
H1117 C1126 0.930 . S
H1118 C1131 0.929 . S
H1119 C1129 0.929 . S
H1120 C1124 0.929 . S
H1121 C1130 0.929 . S
C1122 H1116 0.930 . S
C1122 C1123 1.367 . S
C1122 C1130 1.378 . S
C1123 C1122 1.367 . S
C1123 C1131 1.433 1_545 S
C1124 H1120 0.929 . S
C1124 C1126 1.378 . S
C1124 C1128 1.350 1_565 S
C1125 C1128 1.463 . S
C1125 C1130 1.350 . S
C1125 N1133 1.427 1_545 S
C1126 H1117 0.930 . S
C1126 C1124 1.378 . S
C1126 C1127 1.367 1_565 S
C1127 C1126 1.367 1_545 S
C1127 C1129 1.433 . S
C1128 C1124 1.350 1_545 S
C1128 C1125 1.463 . S
C1128 N1132 1.427 . S
C1129 H1119 0.929 . S
C1129 C1127 1.433 . S
C1129 N1132 1.384 . S
C1130 H1121 0.929 . S
C1130 C1122 1.378 . S
C1130 C1125 1.350 . S
C1131 H1118 0.929 . S
C1131 C1123 1.433 1_565 S
C1131 N1133 1.384 . S
N1132 C1128 1.427 . S
N1132 C1129 1.384 . S
N1133 C1125 1.427 1_565 S
N1133 C1131 1.384 . S
H1134 C1140 0.930 . S
H1135 C1144 0.930 . S
H1136 C1149 0.929 . S
H1137 C1147 0.929 . S
H1138 C1142 0.929 . S
H1139 C1148 0.929 . S
C1140 H1134 0.930 . S
C1140 C1141 1.367 . S
C1140 C1148 1.378 . S
C1141 C1140 1.367 . S
C1141 C1149 1.433 1_565 S
C1142 H1138 0.929 . S
C1142 C1144 1.378 . S
C1142 C1146 1.350 1_545 S
C1143 C1146 1.463 . S
C1143 C1148 1.350 . S
C1143 N1151 1.427 1_565 S
C1144 H1135 0.930 . S
C1144 C1142 1.378 . S
C1144 C1145 1.367 1_545 S
C1145 C1144 1.367 1_565 S
C1145 C1147 1.433 . S
C1146 C1142 1.350 1_565 S
C1146 C1143 1.463 . S
C1146 N1150 1.427 . S
C1147 H1137 0.929 . S
C1147 C1145 1.433 . S
C1147 N1150 1.384 . S
C1148 H1139 0.929 . S
C1148 C1140 1.378 . S
C1148 C1143 1.350 . S
C1149 H1136 0.929 . S
C1149 C1141 1.433 1_545 S
C1149 N1151 1.384 . S
N1150 C1146 1.427 . S
N1150 C1147 1.384 . S
N1151 C1143 1.427 1_545 S
N1151 C1149 1.384 . S
H1152 C1158 0.930 . S
H1153 C1162 0.930 . S
H1154 C1167 0.929 . S
H1155 C1165 0.929 . S
H1156 C1160 0.929 . S
H1157 C1166 0.929 . S
C1158 H1152 0.930 . S
C1158 C1159 1.367 . S
C1158 C1166 1.378 . S
C1159 C1158 1.367 . S
C1159 C1167 1.433 1_455 S
C1160 H1156 0.929 . S
C1160 C1162 1.378 . S
C1160 C1164 1.350 1_655 S
C1161 C1164 1.463 . S
C1161 C1166 1.350 . S
C1161 N1169 1.427 1_455 S
C1162 H1153 0.930 . S
C1162 C1160 1.378 . S
C1162 C1163 1.367 1_655 S
C1163 C1162 1.367 1_455 S
C1163 C1165 1.433 . S
C1164 C1160 1.350 1_455 S
C1164 C1161 1.463 . S
C1164 N1168 1.427 . S
C1165 H1155 0.929 . S
C1165 C1163 1.433 . S
C1165 N1168 1.384 . S
C1166 H1157 0.929 . S
C1166 C1158 1.378 . S
C1166 C1161 1.350 . S
C1167 H1154 0.929 . S
C1167 C1159 1.433 1_655 S
C1167 N1169 1.384 . S
N1168 C1164 1.427 . S
N1168 C1165 1.384 . S
N1169 C1161 1.427 1_655 S
N1169 C1167 1.384 . S
H1170 C1176 0.930 . S
H1171 C1180 0.930 . S
H1172 C1185 0.929 . S
H1173 C1183 0.929 . S
H1174 C1178 0.929 . S
H1175 C1184 0.929 . S
C1176 H1170 0.930 . S
C1176 C1177 1.367 . S
C1176 C1184 1.378 . S
C1177 C1176 1.367 . S
C1177 C1185 1.433 . S
C1178 H1174 0.929 . S
C1178 C1180 1.378 . S
C1178 C1182 1.350 . S
C1179 C1182 1.463 . S
C1179 C1184 1.350 . S
C1179 N1187 1.427 . S
C1180 H1171 0.930 . S
C1180 C1178 1.378 . S
C1180 C1181 1.367 . S
C1181 C1180 1.367 . S
C1181 C1183 1.433 . S
C1182 C1178 1.350 . S
C1182 C1179 1.463 . S
C1182 N1186 1.427 . S
C1183 H1173 0.929 . S
C1183 C1181 1.433 . S
C1183 N1186 1.384 . S
C1184 H1175 0.929 . S
C1184 C1176 1.378 . S
C1184 C1179 1.350 . S
C1185 H1172 0.929 . S
C1185 C1177 1.433 . S
C1185 N1187 1.384 . S
N1186 C1182 1.427 . S
N1186 C1183 1.384 . S
N1187 C1179 1.427 . S
N1187 C1185 1.384 . S
H1188 C1194 0.925 1_655 S
H1189 C1198 0.930 . S
H1190 C1203 0.929 . S
H1191 C1201 0.929 . S
H1192 C1196 0.929 . S
H1193 C1202 0.930 1_655 S
C1194 H1188 0.925 1_455 S
C1194 C1195 1.354 . S
C1194 C1202 1.398 . S
C1195 C1194 1.354 . S
C1195 C1203 1.433 . S
C1196 H1192 0.929 . S
C1196 C1198 1.378 . S
C1196 C1200 1.350 . S
C1197 C1200 1.463 . S
C1197 C1202 1.351 . S
C1197 N1205 1.427 . S
C1198 H1189 0.930 . S
C1198 C1196 1.378 . S
C1198 C1199 1.367 . S
C1199 C1198 1.367 . S
C1199 C1201 1.433 1_455 S
C1200 C1196 1.350 . S
C1200 C1197 1.463 . S
C1200 N1204 1.427 1_455 S
C1201 H1191 0.929 . S
C1201 C1199 1.433 1_655 S
C1201 N1204 1.384 . S
C1202 H1193 0.930 1_455 S
C1202 C1194 1.398 . S
C1202 C1197 1.351 . S
C1203 H1190 0.929 . S
C1203 C1195 1.433 . S
C1203 N1205 1.384 . S
N1204 C1200 1.427 1_655 S
N1204 C1201 1.384 . S
N1205 C1197 1.427 . S
N1205 C1203 1.384 . S
H1206 C1212 0.930 . S
H1207 C1216 0.930 . S
H1208 C1221 0.929 . S
H1209 C1219 0.929 . S
H1210 C1214 0.929 . S
H1211 C1220 0.929 . S
C1212 H1206 0.930 . S
C1212 C1213 1.367 . S
C1212 C1220 1.378 . S
C1213 C1212 1.367 . S
C1213 C1221 1.433 . S
C1214 H1210 0.929 . S
C1214 C1216 1.378 . S
C1214 C1218 1.350 . S
C1215 C1218 1.463 . S
C1215 C1220 1.350 . S
C1215 N1223 1.427 . S
C1216 H1207 0.930 . S
C1216 C1214 1.378 . S
C1216 C1217 1.367 . S
C1217 C1216 1.367 . S
C1217 C1219 1.433 . S
C1218 C1214 1.350 . S
C1218 C1215 1.463 . S
C1218 N1222 1.427 . S
C1219 H1209 0.929 . S
C1219 C1217 1.433 . S
C1219 N1222 1.384 . S
C1220 H1211 0.929 . S
C1220 C1212 1.378 . S
C1220 C1215 1.350 . S
C1221 H1208 0.929 . S
C1221 C1213 1.433 . S
C1221 N1223 1.384 . S
N1222 C1218 1.427 . S
N1222 C1219 1.384 . S
N1223 C1215 1.427 . S
N1223 C1221 1.384 . S
H1224 C1230 0.930 . S
H1225 C1234 0.930 . S
H1226 C1239 0.929 . S
H1227 C1237 0.929 . S
H1228 C1232 0.929 . S
H1229 C1238 0.929 . S
C1230 H1224 0.930 . S
C1230 C1231 1.367 1_545 S
C1230 C1238 1.378 . S
C1231 C1230 1.367 1_565 S
C1231 C1239 1.433 . S
C1232 H1228 0.929 . S
C1232 C1234 1.378 . S
C1232 C1236 1.350 . S
C1233 C1236 1.463 . S
C1233 C1238 1.350 1_565 S
C1233 N1241 1.427 . S
C1234 H1225 0.930 . S
C1234 C1232 1.378 . S
C1234 C1235 1.367 . S
C1235 C1234 1.367 . S
C1235 C1237 1.433 1_565 S
C1236 C1232 1.350 . S
C1236 C1233 1.463 . S
C1236 N1240 1.427 1_565 S
C1237 H1227 0.929 . S
C1237 C1235 1.433 1_545 S
C1237 N1240 1.384 . S
C1238 H1229 0.929 . S
C1238 C1230 1.378 . S
C1238 C1233 1.350 1_545 S
C1239 H1226 0.929 . S
C1239 C1231 1.433 . S
C1239 N1241 1.384 . S
N1240 C1236 1.427 1_545 S
N1240 C1237 1.384 . S
N1241 C1233 1.427 . S
N1241 C1239 1.384 . S
H1242 C1248 0.930 . S
H1243 C1252 0.930 . S
H1244 C1257 0.929 . S
H1245 C1255 0.929 . S
H1246 C1250 0.929 . S
H1247 C1256 0.929 . S
C1248 H1242 0.930 . S
C1248 C1249 1.367 1_565 S
C1248 C1256 1.378 . S
C1249 C1248 1.367 1_545 S
C1249 C1257 1.433 . S
C1250 H1246 0.929 . S
C1250 C1252 1.378 . S
C1250 C1254 1.350 . S
C1251 C1254 1.463 . S
C1251 C1256 1.350 1_545 S
C1251 N1259 1.427 . S
C1252 H1243 0.930 . S
C1252 C1250 1.378 . S
C1252 C1253 1.367 . S
C1253 C1252 1.367 . S
C1253 C1255 1.433 1_545 S
C1254 C1250 1.350 . S
C1254 C1251 1.463 . S
C1254 N1258 1.427 1_545 S
C1255 H1245 0.929 . S
C1255 C1253 1.433 1_565 S
C1255 N1258 1.384 . S
C1256 H1247 0.929 . S
C1256 C1248 1.378 . S
C1256 C1251 1.350 1_565 S
C1257 H1244 0.929 . S
C1257 C1249 1.433 . S
C1257 N1259 1.384 . S
N1258 C1254 1.427 1_565 S
N1258 C1255 1.384 . S
N1259 C1251 1.427 . S
N1259 C1257 1.384 . S
H1260 C1266 0.930 . S
H1261 C1270 0.930 . S
H1262 C1275 0.929 . S
H1263 C1273 0.929 . S
H1264 C1268 0.929 . S
H1265 C1274 0.929 . S
C1266 H1260 0.930 . S
C1266 C1267 1.367 1_455 S
C1266 C1274 1.378 . S
C1267 C1266 1.367 1_655 S
C1267 C1275 1.433 . S
C1268 H1264 0.929 . S
C1268 C1270 1.378 . S
C1268 C1272 1.350 . S
C1269 C1272 1.463 . S
C1269 C1274 1.350 1_655 S
C1269 N1277 1.427 . S
C1270 H1261 0.930 . S
C1270 C1268 1.378 . S
C1270 C1271 1.367 . S
C1271 C1270 1.367 . S
C1271 C1273 1.433 1_655 S
C1272 C1268 1.350 . S
C1272 C1269 1.463 . S
C1272 N1276 1.427 1_655 S
C1273 H1263 0.929 . S
C1273 C1271 1.433 1_455 S
C1273 N1276 1.384 . S
C1274 H1265 0.929 . S
C1274 C1266 1.378 . S
C1274 C1269 1.350 1_455 S
C1275 H1262 0.929 . S
C1275 C1267 1.433 . S
C1275 N1277 1.384 . S
N1276 C1272 1.427 1_455 S
N1276 C1273 1.384 . S
N1277 C1269 1.427 . S
N1277 C1275 1.384 . S
H1278 C1284 0.930 . S
H1279 C1288 0.930 . S
H1280 C1293 0.929 . S
H1281 C1291 0.929 . S
H1282 C1286 0.929 . S
H1283 C1292 0.929 . S
C1284 H1278 0.930 . S
C1284 C1285 1.367 . S
C1284 C1292 1.378 . S
C1285 C1284 1.367 . S
C1285 C1293 1.433 . S
C1286 H1282 0.929 . S
C1286 C1288 1.378 . S
C1286 C1290 1.350 . S
C1287 C1290 1.463 . S
C1287 C1292 1.350 . S
C1287 N1295 1.427 . S
C1288 H1279 0.930 . S
C1288 C1286 1.378 . S
C1288 C1289 1.367 . S
C1289 C1288 1.367 . S
C1289 C1291 1.433 . S
C1290 C1286 1.350 . S
C1290 C1287 1.463 . S
C1290 N1294 1.427 . S
C1291 H1281 0.929 . S
C1291 C1289 1.433 . S
C1291 N1294 1.384 . S
C1292 H1283 0.929 . S
C1292 C1284 1.378 . S
C1292 C1287 1.350 . S
C1293 H1280 0.929 . S
C1293 C1285 1.433 . S
C1293 N1295 1.384 . S
N1294 C1290 1.427 . S
N1294 C1291 1.384 . S
N1295 C1287 1.427 . S
N1295 C1293 1.384 . S
H1296 C1302 0.930 . S
H1297 C1306 0.930 . S
H1298 C1311 0.929 . S
H1299 C1309 0.929 . S
H1300 C1304 0.929 . S
H1301 C1310 0.929 . S
C1302 H1296 0.930 . S
C1302 C1303 1.367 . S
C1302 C1310 1.378 . S
C1303 C1302 1.367 . S
C1303 C1311 1.433 . S
C1304 H1300 0.929 . S
C1304 C1306 1.378 . S
C1304 C1308 1.350 . S
C1305 C1308 1.463 . S
C1305 C1310 1.350 . S
C1305 N1313 1.427 . S
C1306 H1297 0.930 . S
C1306 C1304 1.378 . S
C1306 C1307 1.367 . S
C1307 C1306 1.367 . S
C1307 C1309 1.433 . S
C1308 C1304 1.350 . S
C1308 C1305 1.463 . S
C1308 N1312 1.427 . S
C1309 H1299 0.929 . S
C1309 C1307 1.433 . S
C1309 N1312 1.384 . S
C1310 H1301 0.929 . S
C1310 C1302 1.378 . S
C1310 C1305 1.350 . S
C1311 H1298 0.929 . S
C1311 C1303 1.433 . S
C1311 N1313 1.384 . S
N1312 C1308 1.427 . S
N1312 C1309 1.384 . S
N1313 C1305 1.427 . S
N1313 C1311 1.384 . S
H1314 C1320 0.930 . S
H1315 C1324 0.930 . S
H1316 C1329 0.929 . S
H1317 C1327 0.929 . S
H1318 C1322 0.929 . S
H1319 C1328 0.929 . S
C1320 H1314 0.930 . S
C1320 C1321 1.367 . S
C1320 C1328 1.378 . S
C1321 C1320 1.367 . S
C1321 C1329 1.433 . S
C1322 H1318 0.929 . S
C1322 C1324 1.378 . S
C1322 C1326 1.350 . S
C1323 C1326 1.463 . S
C1323 C1328 1.350 . S
C1323 N1331 1.427 . S
C1324 H1315 0.930 . S
C1324 C1322 1.378 . S
C1324 C1325 1.367 . S
C1325 C1324 1.367 . S
C1325 C1327 1.433 . S
C1326 C1322 1.350 . S
C1326 C1323 1.463 . S
C1326 N1330 1.427 . S
C1327 H1317 0.929 . S
C1327 C1325 1.433 . S
C1327 N1330 1.384 . S
C1328 H1319 0.929 . S
C1328 C1320 1.378 . S
C1328 C1323 1.350 . S
C1329 H1316 0.929 . S
C1329 C1321 1.433 . S
C1329 N1331 1.384 . S
N1330 C1326 1.427 . S
N1330 C1327 1.384 . S
N1331 C1323 1.427 . S
N1331 C1329 1.384 . S
H1332 C1338 0.930 . S
H1333 C1342 0.930 . S
H1334 C1347 0.929 . S
H1335 C1345 0.929 . S
H1336 C1340 0.929 . S
H1337 C1346 0.929 . S
C1338 H1332 0.930 . S
C1338 C1339 1.367 . S
C1338 C1346 1.378 . S
C1339 C1338 1.367 . S
C1339 C1347 1.433 . S
C1340 H1336 0.929 . S
C1340 C1342 1.378 . S
C1340 C1344 1.350 . S
C1341 C1344 1.463 . S
C1341 C1346 1.350 . S
C1341 N1349 1.427 . S
C1342 H1333 0.930 . S
C1342 C1340 1.378 . S
C1342 C1343 1.367 . S
C1343 C1342 1.367 . S
C1343 C1345 1.433 . S
C1344 C1340 1.350 . S
C1344 C1341 1.463 . S
C1344 N1348 1.427 . S
C1345 H1335 0.929 . S
C1345 C1343 1.433 . S
C1345 N1348 1.384 . S
C1346 H1337 0.929 . S
C1346 C1338 1.378 . S
C1346 C1341 1.350 . S
C1347 H1334 0.929 . S
C1347 C1339 1.433 . S
C1347 N1349 1.384 . S
N1348 C1344 1.427 . S
N1348 C1345 1.384 . S
N1349 C1341 1.427 . S
N1349 C1347 1.384 . S
H1350 C1356 0.930 . S
H1351 C1360 0.930 . S
H1352 C1365 0.929 . S
H1353 C1363 0.929 . S
H1354 C1358 0.929 . S
H1355 C1364 0.929 . S
C1356 H1350 0.930 . S
C1356 C1357 1.367 . S
C1356 C1364 1.378 . S
C1357 C1356 1.367 . S
C1357 C1365 1.433 . S
C1358 H1354 0.929 . S
C1358 C1360 1.378 . S
C1358 C1362 1.350 . S
C1359 C1362 1.463 . S
C1359 C1364 1.350 . S
C1359 N1367 1.427 . S
C1360 H1351 0.930 . S
C1360 C1358 1.378 . S
C1360 C1361 1.367 . S
C1361 C1360 1.367 . S
C1361 C1363 1.433 . S
C1362 C1358 1.350 . S
C1362 C1359 1.463 . S
C1362 N1366 1.427 . S
C1363 H1353 0.929 . S
C1363 C1361 1.433 . S
C1363 N1366 1.384 . S
C1364 H1355 0.929 . S
C1364 C1356 1.378 . S
C1364 C1359 1.350 . S
C1365 H1352 0.929 . S
C1365 C1357 1.433 . S
C1365 N1367 1.384 . S
N1366 C1362 1.427 . S
N1366 C1363 1.384 . S
N1367 C1359 1.427 . S
N1367 C1365 1.384 . S
H1368 C1374 0.930 . S
H1369 C1378 0.930 . S
H1370 C1383 0.929 . S
H1371 C1381 0.929 . S
H1372 C1376 0.929 . S
H1373 C1382 0.929 . S
C1374 H1368 0.930 . S
C1374 C1375 1.367 . S
C1374 C1382 1.378 . S
C1375 C1374 1.367 . S
C1375 C1383 1.433 . S
C1376 H1372 0.929 . S
C1376 C1378 1.378 . S
C1376 C1380 1.350 . S
C1377 C1380 1.463 . S
C1377 C1382 1.350 . S
C1377 N1385 1.427 . S
C1378 H1369 0.930 . S
C1378 C1376 1.378 . S
C1378 C1379 1.367 . S
C1379 C1378 1.367 . S
C1379 C1381 1.433 . S
C1380 C1376 1.350 . S
C1380 C1377 1.463 . S
C1380 N1384 1.427 . S
C1381 H1371 0.929 . S
C1381 C1379 1.433 . S
C1381 N1384 1.384 . S
C1382 H1373 0.929 . S
C1382 C1374 1.378 . S
C1382 C1377 1.350 . S
C1383 H1370 0.929 . S
C1383 C1375 1.433 . S
C1383 N1385 1.384 . S
N1384 C1380 1.427 . S
N1384 C1381 1.384 . S
N1385 C1377 1.427 . S
N1385 C1383 1.384 . S
H1386 C1392 0.930 . S
H1387 C1396 0.930 . S
H1388 C1401 0.929 . S
H1389 C1399 0.929 . S
H1390 C1394 0.929 . S
H1391 C1400 0.929 . S
C1392 H1386 0.930 . S
C1392 C1393 1.367 . S
C1392 C1400 1.378 . S
C1393 C1392 1.367 . S
C1393 C1401 1.433 . S
C1394 H1390 0.929 . S
C1394 C1396 1.378 . S
C1394 C1398 1.350 . S
C1395 C1398 1.463 . S
C1395 C1400 1.350 . S
C1395 N1403 1.427 . S
C1396 H1387 0.930 . S
C1396 C1394 1.378 . S
C1396 C1397 1.367 . S
C1397 C1396 1.367 . S
C1397 C1399 1.433 . S
C1398 C1394 1.350 . S
C1398 C1395 1.463 . S
C1398 N1402 1.427 . S
C1399 H1389 0.929 . S
C1399 C1397 1.433 . S
C1399 N1402 1.384 . S
C1400 H1391 0.929 . S
C1400 C1392 1.378 . S
C1400 C1395 1.350 . S
C1401 H1388 0.929 . S
C1401 C1393 1.433 . S
C1401 N1403 1.384 . S
N1402 C1398 1.427 . S
N1402 C1399 1.384 . S
N1403 C1395 1.427 . S
N1403 C1401 1.384 . S
H1404 C1410 0.930 . S
H1405 C1414 0.930 . S
H1406 C1419 0.929 . S
H1407 C1417 0.929 . S
H1408 C1412 0.929 . S
H1409 C1418 0.929 . S
C1410 H1404 0.930 . S
C1410 C1411 1.367 . S
C1410 C1418 1.378 . S
C1411 C1410 1.367 . S
C1411 C1419 1.433 . S
C1412 H1408 0.929 . S
C1412 C1414 1.378 . S
C1412 C1416 1.350 . S
C1413 C1416 1.463 . S
C1413 C1418 1.350 . S
C1413 N1421 1.427 . S
C1414 H1405 0.930 . S
C1414 C1412 1.378 . S
C1414 C1415 1.367 . S
C1415 C1414 1.367 . S
C1415 C1417 1.433 . S
C1416 C1412 1.350 . S
C1416 C1413 1.463 . S
C1416 N1420 1.427 . S
C1417 H1407 0.929 . S
C1417 C1415 1.433 . S
C1417 N1420 1.384 . S
C1418 H1409 0.929 . S
C1418 C1410 1.378 . S
C1418 C1413 1.350 . S
C1419 H1406 0.929 . S
C1419 C1411 1.433 . S
C1419 N1421 1.384 . S
N1420 C1416 1.427 . S
N1420 C1417 1.384 . S
N1421 C1413 1.427 . S
N1421 C1419 1.384 . S
H1422 C1428 0.930 . S
H1423 C1432 0.930 . S
H1424 C1437 0.929 . S
H1425 C1435 0.929 . S
H1426 C1430 0.929 . S
H1427 C1436 0.929 . S
C1428 H1422 0.930 . S
C1428 C1429 1.367 . S
C1428 C1436 1.378 . S
C1429 C1428 1.367 . S
C1429 C1437 1.433 . S
C1430 H1426 0.929 . S
C1430 C1432 1.378 . S
C1430 C1434 1.350 . S
C1431 C1434 1.463 . S
C1431 C1436 1.350 . S
C1431 N1439 1.427 . S
C1432 H1423 0.930 . S
C1432 C1430 1.378 . S
C1432 C1433 1.367 . S
C1433 C1432 1.367 . S
C1433 C1435 1.433 . S
C1434 C1430 1.350 . S
C1434 C1431 1.463 . S
C1434 N1438 1.427 . S
C1435 H1425 0.929 . S
C1435 C1433 1.433 . S
C1435 N1438 1.384 . S
C1436 H1427 0.929 . S
C1436 C1428 1.378 . S
C1436 C1431 1.350 . S
C1437 H1424 0.929 . S
C1437 C1429 1.433 . S
C1437 N1439 1.384 . S
N1438 C1434 1.427 . S
N1438 C1435 1.384 . S
N1439 C1431 1.427 . S
N1439 C1437 1.384 . S
H1440 C1446 0.930 . S
H1441 C1450 0.930 . S
H1442 C1455 0.929 . S
H1443 C1453 0.929 . S
H1444 C1448 0.929 . S
H1445 C1454 0.929 . S
C1446 H1440 0.930 . S
C1446 C1447 1.367 . S
C1446 C1454 1.378 . S
C1447 C1446 1.367 . S
C1447 C1455 1.433 . S
C1448 H1444 0.929 . S
C1448 C1450 1.378 . S
C1448 C1452 1.350 . S
C1449 C1452 1.463 . S
C1449 C1454 1.350 . S
C1449 N1457 1.427 . S
C1450 H1441 0.930 . S
C1450 C1448 1.378 . S
C1450 C1451 1.367 . S
C1451 C1450 1.367 . S
C1451 C1453 1.433 . S
C1452 C1448 1.350 . S
C1452 C1449 1.463 . S
C1452 N1456 1.427 . S
C1453 H1443 0.929 . S
C1453 C1451 1.433 . S
C1453 N1456 1.384 . S
C1454 H1445 0.929 . S
C1454 C1446 1.378 . S
C1454 C1449 1.350 . S
C1455 H1442 0.929 . S
C1455 C1447 1.433 . S
C1455 N1457 1.384 . S
N1456 C1452 1.427 . S
N1456 C1453 1.384 . S
N1457 C1449 1.427 . S
N1457 C1455 1.384 . S
H1458 C1464 0.930 . S
H1459 C1468 0.930 . S
H1460 C1473 0.929 . S
H1461 C1471 0.929 . S
H1462 C1466 0.929 . S
H1463 C1472 0.929 . S
C1464 H1458 0.930 . S
C1464 C1465 1.367 . S
C1464 C1472 1.378 . S
C1465 C1464 1.367 . S
C1465 C1473 1.433 . S
C1466 H1462 0.929 . S
C1466 C1468 1.378 . S
C1466 C1470 1.350 . S
C1467 C1470 1.463 . S
C1467 C1472 1.350 . S
C1467 N1475 1.427 . S
C1468 H1459 0.930 . S
C1468 C1466 1.378 . S
C1468 C1469 1.367 . S
C1469 C1468 1.367 . S
C1469 C1471 1.433 . S
C1470 C1466 1.350 . S
C1470 C1467 1.463 . S
C1470 N1474 1.427 . S
C1471 H1461 0.929 . S
C1471 C1469 1.433 . S
C1471 N1474 1.384 . S
C1472 H1463 0.929 . S
C1472 C1464 1.378 . S
C1472 C1467 1.350 . S
C1473 H1460 0.929 . S
C1473 C1465 1.433 . S
C1473 N1475 1.384 . S
N1474 C1470 1.427 . S
N1474 C1471 1.384 . S
N1475 C1467 1.427 . S
N1475 C1473 1.384 . S
H1476 C1482 0.930 . S
H1477 C1486 0.930 . S
H1478 C1491 0.929 . S
H1479 C1489 0.929 . S
H1480 C1484 0.929 . S
H1481 C1490 0.929 . S
C1482 H1476 0.930 . S
C1482 C1483 1.367 . S
C1482 C1490 1.378 . S
C1483 C1482 1.367 . S
C1483 C1491 1.433 . S
C1484 H1480 0.929 . S
C1484 C1486 1.378 . S
C1484 C1488 1.350 . S
C1485 C1488 1.463 . S
C1485 C1490 1.350 . S
C1485 N1493 1.427 . S
C1486 H1477 0.930 . S
C1486 C1484 1.378 . S
C1486 C1487 1.367 . S
C1487 C1486 1.367 . S
C1487 C1489 1.433 . S
C1488 C1484 1.350 . S
C1488 C1485 1.463 . S
C1488 N1492 1.427 . S
C1489 H1479 0.929 . S
C1489 C1487 1.433 . S
C1489 N1492 1.384 . S
C1490 H1481 0.929 . S
C1490 C1482 1.378 . S
C1490 C1485 1.350 . S
C1491 H1478 0.929 . S
C1491 C1483 1.433 . S
C1491 N1493 1.384 . S
N1492 C1488 1.427 . S
N1492 C1489 1.384 . S
N1493 C1485 1.427 . S
N1493 C1491 1.384 . S
H1494 C1500 0.930 . S
H1495 C1504 0.930 . S
H1496 C1509 0.929 . S
H1497 C1507 0.929 . S
H1498 C1502 0.929 . S
H1499 C1508 0.929 . S
C1500 H1494 0.930 . S
C1500 C1501 1.367 . S
C1500 C1508 1.378 . S
C1501 C1500 1.367 . S
C1501 C1509 1.433 . S
C1502 H1498 0.929 . S
C1502 C1504 1.378 . S
C1502 C1506 1.350 . S
C1503 C1506 1.463 . S
C1503 C1508 1.350 . S
C1503 N1511 1.427 . S
C1504 H1495 0.930 . S
C1504 C1502 1.378 . S
C1504 C1505 1.367 . S
C1505 C1504 1.367 . S
C1505 C1507 1.433 . S
C1506 C1502 1.350 . S
C1506 C1503 1.463 . S
C1506 N1510 1.427 . S
C1507 H1497 0.929 . S
C1507 C1505 1.433 . S
C1507 N1510 1.384 . S
C1508 H1499 0.929 . S
C1508 C1500 1.378 . S
C1508 C1503 1.350 . S
C1509 H1496 0.929 . S
C1509 C1501 1.433 . S
C1509 N1511 1.384 . S
N1510 C1506 1.427 . S
N1510 C1507 1.384 . S
N1511 C1503 1.427 . S
N1511 C1509 1.384 . S
H1512 C1518 0.930 . S
H1513 C1522 0.930 . S
H1514 C1527 0.929 . S
H1515 C1525 0.929 . S
H1516 C1520 0.929 . S
H1517 C1526 0.929 . S
C1518 H1512 0.930 . S
C1518 C1519 1.367 . S
C1518 C1526 1.378 . S
C1519 C1518 1.367 . S
C1519 C1527 1.433 . S
C1520 H1516 0.929 . S
C1520 C1522 1.378 . S
C1520 C1524 1.350 . S
C1521 C1524 1.463 . S
C1521 C1526 1.350 . S
C1521 N1529 1.427 . S
C1522 H1513 0.930 . S
C1522 C1520 1.378 . S
C1522 C1523 1.367 . S
C1523 C1522 1.367 . S
C1523 C1525 1.433 . S
C1524 C1520 1.350 . S
C1524 C1521 1.463 . S
C1524 N1528 1.427 . S
C1525 H1515 0.929 . S
C1525 C1523 1.433 . S
C1525 N1528 1.384 . S
C1526 H1517 0.929 . S
C1526 C1518 1.378 . S
C1526 C1521 1.350 . S
C1527 H1514 0.929 . S
C1527 C1519 1.433 . S
C1527 N1529 1.384 . S
N1528 C1524 1.427 . S
N1528 C1525 1.384 . S
N1529 C1521 1.427 . S
N1529 C1527 1.384 . S
H1530 C1536 0.930 . S
H1531 C1540 0.930 . S
H1532 C1545 0.929 . S
H1533 C1543 0.929 . S
H1534 C1538 0.929 . S
H1535 C1544 0.929 . S
C1536 H1530 0.930 . S
C1536 C1537 1.367 . S
C1536 C1544 1.378 . S
C1537 C1536 1.367 . S
C1537 C1545 1.433 . S
C1538 H1534 0.929 . S
C1538 C1540 1.378 . S
C1538 C1542 1.350 . S
C1539 C1542 1.463 . S
C1539 C1544 1.350 . S
C1539 N1547 1.427 . S
C1540 H1531 0.930 . S
C1540 C1538 1.378 . S
C1540 C1541 1.367 . S
C1541 C1540 1.367 . S
C1541 C1543 1.433 . S
C1542 C1538 1.350 . S
C1542 C1539 1.463 . S
C1542 N1546 1.427 . S
C1543 H1533 0.929 . S
C1543 C1541 1.433 . S
C1543 N1546 1.384 . S
C1544 H1535 0.929 . S
C1544 C1536 1.378 . S
C1544 C1539 1.350 . S
C1545 H1532 0.929 . S
C1545 C1537 1.433 . S
C1545 N1547 1.384 . S
N1546 C1542 1.427 . S
N1546 C1543 1.384 . S
N1547 C1539 1.427 . S
N1547 C1545 1.384 . S
H1548 C1554 0.930 . S
H1549 C1558 0.930 . S
H1550 C1563 0.929 . S
H1551 C1561 0.929 . S
H1552 C1556 0.929 . S
H1553 C1562 0.929 . S
C1554 H1548 0.930 . S
C1554 C1555 1.367 . S
C1554 C1562 1.378 . S
C1555 C1554 1.367 . S
C1555 C1563 1.433 . S
C1556 H1552 0.929 . S
C1556 C1558 1.378 . S
C1556 C1560 1.350 . S
C1557 C1560 1.463 . S
C1557 C1562 1.350 . S
C1557 N1565 1.427 . S
C1558 H1549 0.930 . S
C1558 C1556 1.378 . S
C1558 C1559 1.367 . S
C1559 C1558 1.367 . S
C1559 C1561 1.433 . S
C1560 C1556 1.350 . S
C1560 C1557 1.463 . S
C1560 N1564 1.427 . S
C1561 H1551 0.929 . S
C1561 C1559 1.433 . S
C1561 N1564 1.384 . S
C1562 H1553 0.929 . S
C1562 C1554 1.378 . S
C1562 C1557 1.350 . S
C1563 H1550 0.929 . S
C1563 C1555 1.433 . S
C1563 N1565 1.384 . S
N1564 C1560 1.427 . S
N1564 C1561 1.384 . S
N1565 C1557 1.427 . S
N1565 C1563 1.384 . S
H1566 C1572 0.930 . S
H1567 C1576 0.930 . S
H1568 C1581 0.929 . S
H1569 C1579 0.929 . S
H1570 C1574 0.929 . S
H1571 C1580 0.929 . S
C1572 H1566 0.930 . S
C1572 C1573 1.367 . S
C1572 C1580 1.378 . S
C1573 C1572 1.367 . S
C1573 C1581 1.433 . S
C1574 H1570 0.929 . S
C1574 C1576 1.378 . S
C1574 C1578 1.350 . S
C1575 C1578 1.463 . S
C1575 C1580 1.350 . S
C1575 N1583 1.427 . S
C1576 H1567 0.930 . S
C1576 C1574 1.378 . S
C1576 C1577 1.367 . S
C1577 C1576 1.367 . S
C1577 C1579 1.433 . S
C1578 C1574 1.350 . S
C1578 C1575 1.463 . S
C1578 N1582 1.427 . S
C1579 H1569 0.929 . S
C1579 C1577 1.433 . S
C1579 N1582 1.384 . S
C1580 H1571 0.929 . S
C1580 C1572 1.378 . S
C1580 C1575 1.350 . S
C1581 H1568 0.929 . S
C1581 C1573 1.433 . S
C1581 N1583 1.384 . S
N1582 C1578 1.427 . S
N1582 C1579 1.384 . S
N1583 C1575 1.427 . S
N1583 C1581 1.384 . S
H1584 C1590 0.930 . S
H1585 C1594 0.930 . S
H1586 C1599 0.929 . S
H1587 C1597 0.929 . S
H1588 C1592 0.929 . S
H1589 C1598 0.929 . S
C1590 H1584 0.930 . S
C1590 C1591 1.367 . S
C1590 C1598 1.378 . S
C1591 C1590 1.367 . S
C1591 C1599 1.433 . S
C1592 H1588 0.929 . S
C1592 C1594 1.378 . S
C1592 C1596 1.350 . S
C1593 C1596 1.463 . S
C1593 C1598 1.350 . S
C1593 N1601 1.427 . S
C1594 H1585 0.930 . S
C1594 C1592 1.378 . S
C1594 C1595 1.367 . S
C1595 C1594 1.367 . S
C1595 C1597 1.433 . S
C1596 C1592 1.350 . S
C1596 C1593 1.463 . S
C1596 N1600 1.427 . S
C1597 H1587 0.929 . S
C1597 C1595 1.433 . S
C1597 N1600 1.384 . S
C1598 H1589 0.929 . S
C1598 C1590 1.378 . S
C1598 C1593 1.350 . S
C1599 H1586 0.929 . S
C1599 C1591 1.433 . S
C1599 N1601 1.384 . S
N1600 C1596 1.427 . S
N1600 C1597 1.384 . S
N1601 C1593 1.427 . S
N1601 C1599 1.384 . S
H1602 C1608 0.930 . S
H1603 C1612 0.930 . S
H1604 C1617 0.929 . S
H1605 C1615 0.929 . S
H1606 C1610 0.929 . S
H1607 C1616 0.929 . S
C1608 H1602 0.930 . S
C1608 C1609 1.367 . S
C1608 C1616 1.378 . S
C1609 C1608 1.367 . S
C1609 C1617 1.433 . S
C1610 H1606 0.929 . S
C1610 C1612 1.378 . S
C1610 C1614 1.350 . S
C1611 C1614 1.463 . S
C1611 C1616 1.350 . S
C1611 N1619 1.427 . S
C1612 H1603 0.930 . S
C1612 C1610 1.378 . S
C1612 C1613 1.367 . S
C1613 C1612 1.367 . S
C1613 C1615 1.433 . S
C1614 C1610 1.350 . S
C1614 C1611 1.463 . S
C1614 N1618 1.427 . S
C1615 H1605 0.929 . S
C1615 C1613 1.433 . S
C1615 N1618 1.384 . S
C1616 H1607 0.929 . S
C1616 C1608 1.378 . S
C1616 C1611 1.350 . S
C1617 H1604 0.929 . S
C1617 C1609 1.433 . S
C1617 N1619 1.384 . S
N1618 C1614 1.427 . S
N1618 C1615 1.384 . S
N1619 C1611 1.427 . S
N1619 C1617 1.384 . S
H1620 C1626 0.930 . S
H1621 C1630 0.930 . S
H1622 C1635 0.929 . S
H1623 C1633 0.929 . S
H1624 C1628 0.929 . S
H1625 C1634 0.929 . S
C1626 H1620 0.930 . S
C1626 C1627 1.367 . S
C1626 C1634 1.378 . S
C1627 C1626 1.367 . S
C1627 C1635 1.433 . S
C1628 H1624 0.929 . S
C1628 C1630 1.378 . S
C1628 C1632 1.350 . S
C1629 C1632 1.463 . S
C1629 C1634 1.350 . S
C1629 N1637 1.427 . S
C1630 H1621 0.930 . S
C1630 C1628 1.378 . S
C1630 C1631 1.367 . S
C1631 C1630 1.367 . S
C1631 C1633 1.433 . S
C1632 C1628 1.350 . S
C1632 C1629 1.463 . S
C1632 N1636 1.427 . S
C1633 H1623 0.929 . S
C1633 C1631 1.433 . S
C1633 N1636 1.384 . S
C1634 H1625 0.929 . S
C1634 C1626 1.378 . S
C1634 C1629 1.350 . S
C1635 H1622 0.929 . S
C1635 C1627 1.433 . S
C1635 N1637 1.384 . S
N1636 C1632 1.427 . S
N1636 C1633 1.384 . S
N1637 C1629 1.427 . S
N1637 C1635 1.384 . S
H1638 C1644 0.930 . S
H1639 C1648 0.930 . S
H1640 C1653 0.929 . S
H1641 C1651 0.929 . S
H1642 C1646 0.929 . S
H1643 C1652 0.929 . S
C1644 H1638 0.930 . S
C1644 C1645 1.367 . S
C1644 C1652 1.378 . S
C1645 C1644 1.367 . S
C1645 C1653 1.433 . S
C1646 H1642 0.929 . S
C1646 C1648 1.378 . S
C1646 C1650 1.350 . S
C1647 C1650 1.463 . S
C1647 C1652 1.350 . S
C1647 N1655 1.427 . S
C1648 H1639 0.930 . S
C1648 C1646 1.378 . S
C1648 C1649 1.367 . S
C1649 C1648 1.367 . S
C1649 C1651 1.433 . S
C1650 C1646 1.350 . S
C1650 C1647 1.463 . S
C1650 N1654 1.427 . S
C1651 H1641 0.929 . S
C1651 C1649 1.433 . S
C1651 N1654 1.384 . S
C1652 H1643 0.929 . S
C1652 C1644 1.378 . S
C1652 C1647 1.350 . S
C1653 H1640 0.929 . S
C1653 C1645 1.433 . S
C1653 N1655 1.384 . S
N1654 C1650 1.427 . S
N1654 C1651 1.384 . S
N1655 C1647 1.427 . S
N1655 C1653 1.384 . S
H1656 C1662 0.930 . S
H1657 C1666 0.930 . S
H1658 C1671 0.929 . S
H1659 C1669 0.929 . S
H1660 C1664 0.929 . S
H1661 C1670 0.929 . S
C1662 H1656 0.930 . S
C1662 C1663 1.367 . S
C1662 C1670 1.378 . S
C1663 C1662 1.367 . S
C1663 C1671 1.433 . S
C1664 H1660 0.929 . S
C1664 C1666 1.378 . S
C1664 C1668 1.350 . S
C1665 C1668 1.463 . S
C1665 C1670 1.350 . S
C1665 N1673 1.427 . S
C1666 H1657 0.930 . S
C1666 C1664 1.378 . S
C1666 C1667 1.367 . S
C1667 C1666 1.367 . S
C1667 C1669 1.433 . S
C1668 C1664 1.350 . S
C1668 C1665 1.463 . S
C1668 N1672 1.427 . S
C1669 H1659 0.929 . S
C1669 C1667 1.433 . S
C1669 N1672 1.384 . S
C1670 H1661 0.929 . S
C1670 C1662 1.378 . S
C1670 C1665 1.350 . S
C1671 H1658 0.929 . S
C1671 C1663 1.433 . S
C1671 N1673 1.384 . S
N1672 C1668 1.427 . S
N1672 C1669 1.384 . S
N1673 C1665 1.427 . S
N1673 C1671 1.384 . S
H1674 C1680 0.930 . S
H1675 C1684 0.930 . S
H1676 C1689 0.929 . S
H1677 C1687 0.929 . S
H1678 C1682 0.929 . S
H1679 C1688 0.929 . S
C1680 H1674 0.930 . S
C1680 C1681 1.367 . S
C1680 C1688 1.378 . S
C1681 C1680 1.367 . S
C1681 C1689 1.433 . S
C1682 H1678 0.929 . S
C1682 C1684 1.378 . S
C1682 C1686 1.350 . S
C1683 C1686 1.463 . S
C1683 C1688 1.350 . S
C1683 N1691 1.427 . S
C1684 H1675 0.930 . S
C1684 C1682 1.378 . S
C1684 C1685 1.367 . S
C1685 C1684 1.367 . S
C1685 C1687 1.433 . S
C1686 C1682 1.350 . S
C1686 C1683 1.463 . S
C1686 N1690 1.427 . S
C1687 H1677 0.929 . S
C1687 C1685 1.433 . S
C1687 N1690 1.384 . S
C1688 H1679 0.929 . S
C1688 C1680 1.378 . S
C1688 C1683 1.350 . S
C1689 H1676 0.929 . S
C1689 C1681 1.433 . S
C1689 N1691 1.384 . S
N1690 C1686 1.427 . S
N1690 C1687 1.384 . S
N1691 C1683 1.427 . S
N1691 C1689 1.384 . S
H1692 C1698 0.930 . S
H1693 C1702 0.930 . S
H1694 C1707 0.929 . S
H1695 C1705 0.929 . S
H1696 C1700 0.929 . S
H1697 C1706 0.929 . S
C1698 H1692 0.930 . S
C1698 C1699 1.367 . S
C1698 C1706 1.378 . S
C1699 C1698 1.367 . S
C1699 C1707 1.433 . S
C1700 H1696 0.929 . S
C1700 C1702 1.378 . S
C1700 C1704 1.350 . S
C1701 C1704 1.463 . S
C1701 C1706 1.350 . S
C1701 N1709 1.427 . S
C1702 H1693 0.930 . S
C1702 C1700 1.378 . S
C1702 C1703 1.367 . S
C1703 C1702 1.367 . S
C1703 C1705 1.433 . S
C1704 C1700 1.350 . S
C1704 C1701 1.463 . S
C1704 N1708 1.427 . S
C1705 H1695 0.929 . S
C1705 C1703 1.433 . S
C1705 N1708 1.384 . S
C1706 H1697 0.929 . S
C1706 C1698 1.378 . S
C1706 C1701 1.350 . S
C1707 H1694 0.929 . S
C1707 C1699 1.433 . S
C1707 N1709 1.384 . S
N1708 C1704 1.427 . S
N1708 C1705 1.384 . S
N1709 C1701 1.427 . S
N1709 C1707 1.384 . S
H1710 C1716 0.930 . S
H1711 C1720 0.930 . S
H1712 C1725 0.929 . S
H1713 C1723 0.929 . S
H1714 C1718 0.929 . S
H1715 C1724 0.929 . S
C1716 H1710 0.930 . S
C1716 C1717 1.367 . S
C1716 C1724 1.378 . S
C1717 C1716 1.367 . S
C1717 C1725 1.433 . S
C1718 H1714 0.929 . S
C1718 C1720 1.378 . S
C1718 C1722 1.350 . S
C1719 C1722 1.463 . S
C1719 C1724 1.350 . S
C1719 N1727 1.427 . S
C1720 H1711 0.930 . S
C1720 C1718 1.378 . S
C1720 C1721 1.367 . S
C1721 C1720 1.367 . S
C1721 C1723 1.433 . S
C1722 C1718 1.350 . S
C1722 C1719 1.463 . S
C1722 N1726 1.427 . S
C1723 H1713 0.929 . S
C1723 C1721 1.433 . S
C1723 N1726 1.384 . S
C1724 H1715 0.929 . S
C1724 C1716 1.378 . S
C1724 C1719 1.350 . S
C1725 H1712 0.929 . S
C1725 C1717 1.433 . S
C1725 N1727 1.384 . S
N1726 C1722 1.427 . S
N1726 C1723 1.384 . S
N1727 C1719 1.427 . S
N1727 C1725 1.384 . S
H1728 C1734 0.930 . S
H1729 C1738 0.930 . S
H1730 C1743 0.929 . S
H1731 C1741 0.929 . S
H1732 C1736 0.929 . S
H1733 C1742 0.929 . S
C1734 H1728 0.930 . S
C1734 C1735 1.367 . S
C1734 C1742 1.378 . S
C1735 C1734 1.367 . S
C1735 C1743 1.433 . S
C1736 H1732 0.929 . S
C1736 C1738 1.378 . S
C1736 C1740 1.350 . S
C1737 C1740 1.463 . S
C1737 C1742 1.350 . S
C1737 N1745 1.427 . S
C1738 H1729 0.930 . S
C1738 C1736 1.378 . S
C1738 C1739 1.367 . S
C1739 C1738 1.367 . S
C1739 C1741 1.433 . S
C1740 C1736 1.350 . S
C1740 C1737 1.463 . S
C1740 N1744 1.427 . S
C1741 H1731 0.929 . S
C1741 C1739 1.433 . S
C1741 N1744 1.384 . S
C1742 H1733 0.929 . S
C1742 C1734 1.378 . S
C1742 C1737 1.350 . S
C1743 H1730 0.929 . S
C1743 C1735 1.433 . S
C1743 N1745 1.384 . S
N1744 C1740 1.427 . S
N1744 C1741 1.384 . S
N1745 C1737 1.427 . S
N1745 C1743 1.384 . S
H1746 C1752 0.930 . S
H1747 C1756 0.930 . S
H1748 C1761 0.929 . S
H1749 C1759 0.929 . S
H1750 C1754 0.929 . S
H1751 C1760 0.929 . S
C1752 H1746 0.930 . S
C1752 C1753 1.367 . S
C1752 C1760 1.378 . S
C1753 C1752 1.367 . S
C1753 C1761 1.433 . S
C1754 H1750 0.929 . S
C1754 C1756 1.378 . S
C1754 C1758 1.350 . S
C1755 C1758 1.463 . S
C1755 C1760 1.350 . S
C1755 N1763 1.427 . S
C1756 H1747 0.930 . S
C1756 C1754 1.378 . S
C1756 C1757 1.367 . S
C1757 C1756 1.367 . S
C1757 C1759 1.433 . S
C1758 C1754 1.350 . S
C1758 C1755 1.463 . S
C1758 N1762 1.427 . S
C1759 H1749 0.929 . S
C1759 C1757 1.433 . S
C1759 N1762 1.384 . S
C1760 H1751 0.929 . S
C1760 C1752 1.378 . S
C1760 C1755 1.350 . S
C1761 H1748 0.929 . S
C1761 C1753 1.433 . S
C1761 N1763 1.384 . S
N1762 C1758 1.427 . S
N1762 C1759 1.384 . S
N1763 C1755 1.427 . S
N1763 C1761 1.384 . S
H1764 C1770 0.930 . S
H1765 C1774 0.930 . S
H1766 C1779 0.929 . S
H1767 C1777 0.929 . S
H1768 C1772 0.929 . S
H1769 C1778 0.929 . S
C1770 H1764 0.930 . S
C1770 C1771 1.367 . S
C1770 C1778 1.378 . S
C1771 C1770 1.367 . S
C1771 C1779 1.433 . S
C1772 H1768 0.929 . S
C1772 C1774 1.378 . S
C1772 C1776 1.350 . S
C1773 C1776 1.463 . S
C1773 C1778 1.350 . S
C1773 N1781 1.427 . S
C1774 H1765 0.930 . S
C1774 C1772 1.378 . S
C1774 C1775 1.367 . S
C1775 C1774 1.367 . S
C1775 C1777 1.433 . S
C1776 C1772 1.350 . S
C1776 C1773 1.463 . S
C1776 N1780 1.427 . S
C1777 H1767 0.929 . S
C1777 C1775 1.433 . S
C1777 N1780 1.384 . S
C1778 H1769 0.929 . S
C1778 C1770 1.378 . S
C1778 C1773 1.350 . S
C1779 H1766 0.929 . S
C1779 C1771 1.433 . S
C1779 N1781 1.384 . S
N1780 C1776 1.427 . S
N1780 C1777 1.384 . S
N1781 C1773 1.427 . S
N1781 C1779 1.384 . S
H1782 C1788 0.930 . S
H1783 C1792 0.930 . S
H1784 C1797 0.929 . S
H1785 C1795 0.929 . S
H1786 C1790 0.929 . S
H1787 C1796 0.929 . S
C1788 H1782 0.930 . S
C1788 C1789 1.367 . S
C1788 C1796 1.378 . S
C1789 C1788 1.367 . S
C1789 C1797 1.433 . S
C1790 H1786 0.929 . S
C1790 C1792 1.378 . S
C1790 C1794 1.350 . S
C1791 C1794 1.463 . S
C1791 C1796 1.350 . S
C1791 N1799 1.427 . S
C1792 H1783 0.930 . S
C1792 C1790 1.378 . S
C1792 C1793 1.367 . S
C1793 C1792 1.367 . S
C1793 C1795 1.433 . S
C1794 C1790 1.350 . S
C1794 C1791 1.463 . S
C1794 N1798 1.427 . S
C1795 H1785 0.929 . S
C1795 C1793 1.433 . S
C1795 N1798 1.384 . S
C1796 H1787 0.929 . S
C1796 C1788 1.378 . S
C1796 C1791 1.350 . S
C1797 H1784 0.929 . S
C1797 C1789 1.433 . S
C1797 N1799 1.384 . S
N1798 C1794 1.427 . S
N1798 C1795 1.384 . S
N1799 C1791 1.427 . S
N1799 C1797 1.384 . S
H1800 C1806 0.930 . S
H1801 C1810 0.930 . S
H1802 C1815 0.929 . S
H1803 C1813 0.929 . S
H1804 C1808 0.929 . S
H1805 C1814 0.929 . S
C1806 H1800 0.930 . S
C1806 C1807 1.367 . S
C1806 C1814 1.378 . S
C1807 C1806 1.367 . S
C1807 C1815 1.433 . S
C1808 H1804 0.929 . S
C1808 C1810 1.378 . S
C1808 C1812 1.350 . S
C1809 C1812 1.463 . S
C1809 C1814 1.350 . S
C1809 N1817 1.427 . S
C1810 H1801 0.930 . S
C1810 C1808 1.378 . S
C1810 C1811 1.367 . S
C1811 C1810 1.367 . S
C1811 C1813 1.433 . S
C1812 C1808 1.350 . S
C1812 C1809 1.463 . S
C1812 N1816 1.427 . S
C1813 H1803 0.929 . S
C1813 C1811 1.433 . S
C1813 N1816 1.384 . S
C1814 H1805 0.929 . S
C1814 C1806 1.378 . S
C1814 C1809 1.350 . S
C1815 H1802 0.929 . S
C1815 C1807 1.433 . S
C1815 N1817 1.384 . S
N1816 C1812 1.427 . S
N1816 C1813 1.384 . S
N1817 C1809 1.427 . S
N1817 C1815 1.384 . S
H1818 C1824 0.930 . S
H1819 C1828 0.930 . S
H1820 C1833 0.929 . S
H1821 C1831 0.929 . S
H1822 C1826 0.929 . S
H1823 C1832 0.929 . S
C1824 H1818 0.930 . S
C1824 C1825 1.367 . S
C1824 C1832 1.378 . S
C1825 C1824 1.367 . S
C1825 C1833 1.433 . S
C1826 H1822 0.929 . S
C1826 C1828 1.378 . S
C1826 C1830 1.350 . S
C1827 C1830 1.463 . S
C1827 C1832 1.350 . S
C1827 N1835 1.427 . S
C1828 H1819 0.930 . S
C1828 C1826 1.378 . S
C1828 C1829 1.367 . S
C1829 C1828 1.367 . S
C1829 C1831 1.433 . S
C1830 C1826 1.350 . S
C1830 C1827 1.463 . S
C1830 N1834 1.427 . S
C1831 H1821 0.929 . S
C1831 C1829 1.433 . S
C1831 N1834 1.384 . S
C1832 H1823 0.929 . S
C1832 C1824 1.378 . S
C1832 C1827 1.350 . S
C1833 H1820 0.929 . S
C1833 C1825 1.433 . S
C1833 N1835 1.384 . S
N1834 C1830 1.427 . S
N1834 C1831 1.384 . S
N1835 C1827 1.427 . S
N1835 C1833 1.384 . S
H1836 C1842 0.930 . S
H1837 C1846 0.930 . S
H1838 C1851 0.929 1_554 S
H1839 C1849 0.929 . S
H1840 C1844 0.929 . S
H1841 C1850 0.929 . S
C1842 H1836 0.930 . S
C1842 C1843 1.367 . S
C1842 C1850 1.378 . S
C1843 C1842 1.367 . S
C1843 C1851 1.433 . S
C1844 H1840 0.929 . S
C1844 C1846 1.378 . S
C1844 C1848 1.350 . S
C1845 C1848 1.463 . S
C1845 C1850 1.350 . S
C1845 N1853 1.427 . S
C1846 H1837 0.930 . S
C1846 C1844 1.378 . S
C1846 C1847 1.367 . S
C1847 C1846 1.367 . S
C1847 C1849 1.433 . S
C1848 C1844 1.350 . S
C1848 C1845 1.463 . S
C1848 N1852 1.427 . S
C1849 H1839 0.929 . S
C1849 C1847 1.433 . S
C1849 N1852 1.384 . S
C1850 H1841 0.929 . S
C1850 C1842 1.378 . S
C1850 C1845 1.350 . S
C1851 H1838 0.929 1_556 S
C1851 C1843 1.433 . S
C1851 N1853 1.384 . S
N1852 C1848 1.427 . S
N1852 C1849 1.384 . S
N1853 C1845 1.427 . S
N1853 C1851 1.384 . S
H1854 C1860 0.930 1_554 S
H1855 C1864 0.930 . S
H1856 C1869 0.929 . S
H1857 C1867 0.929 . S
H1858 C1862 0.929 . S
H1859 C1868 0.929 . S
C1860 H1854 0.930 1_556 S
C1860 C1861 1.367 . S
C1860 C1868 1.378 . S
C1861 C1860 1.367 . S
C1861 C1869 1.433 . S
C1862 H1858 0.929 . S
C1862 C1864 1.378 . S
C1862 C1866 1.350 . S
C1863 C1866 1.463 . S
C1863 C1868 1.350 . S
C1863 N1871 1.427 . S
C1864 H1855 0.930 . S
C1864 C1862 1.378 . S
C1864 C1865 1.367 . S
C1865 C1864 1.367 . S
C1865 C1867 1.433 . S
C1866 C1862 1.350 . S
C1866 C1863 1.463 . S
C1866 N1870 1.427 . S
C1867 H1857 0.929 . S
C1867 C1865 1.433 . S
C1867 N1870 1.384 . S
C1868 H1859 0.929 . S
C1868 C1860 1.378 . S
C1868 C1863 1.350 . S
C1869 H1856 0.929 . S
C1869 C1861 1.433 . S
C1869 N1871 1.384 . S
N1870 C1866 1.427 . S
N1870 C1867 1.384 . S
N1871 C1863 1.427 . S
N1871 C1869 1.384 . S
H1872 C1878 0.930 1_554 S
H1873 C1882 0.930 . S
H1874 C1887 0.929 . S
H1875 C1885 0.929 . S
H1876 C1880 0.929 . S
H1877 C1886 0.929 . S
C1878 H1872 0.930 1_556 S
C1878 C1879 1.367 . S
C1878 C1886 1.378 . S
C1879 C1878 1.367 . S
C1879 C1887 1.433 . S
C1880 H1876 0.929 . S
C1880 C1882 1.378 . S
C1880 C1884 1.350 . S
C1881 C1884 1.463 . S
C1881 C1886 1.350 . S
C1881 N1889 1.427 . S
C1882 H1873 0.930 . S
C1882 C1880 1.378 . S
C1882 C1883 1.367 . S
C1883 C1882 1.367 . S
C1883 C1885 1.433 . S
C1884 C1880 1.350 . S
C1884 C1881 1.463 . S
C1884 N1888 1.427 . S
C1885 H1875 0.929 . S
C1885 C1883 1.433 . S
C1885 N1888 1.384 . S
C1886 H1877 0.929 . S
C1886 C1878 1.378 . S
C1886 C1881 1.350 . S
C1887 H1874 0.929 . S
C1887 C1879 1.433 . S
C1887 N1889 1.384 . S
N1888 C1884 1.427 . S
N1888 C1885 1.384 . S
N1889 C1881 1.427 . S
N1889 C1887 1.384 . S
H1890 C1896 0.930 . S
H1891 C1900 0.930 . S
H1892 C1905 0.929 . S
H1893 C1903 0.929 . S
H1894 C1898 0.929 . S
H1895 C1904 0.929 . S
C1896 H1890 0.930 . S
C1896 C1897 1.367 . S
C1896 C1904 1.378 . S
C1897 C1896 1.367 . S
C1897 C1905 1.433 . S
C1898 H1894 0.929 . S
C1898 C1900 1.378 . S
C1898 C1902 1.350 . S
C1899 C1902 1.463 . S
C1899 C1904 1.350 . S
C1899 N1907 1.427 . S
C1900 H1891 0.930 . S
C1900 C1898 1.378 . S
C1900 C1901 1.367 . S
C1901 C1900 1.367 . S
C1901 C1903 1.433 . S
C1902 C1898 1.350 . S
C1902 C1899 1.463 . S
C1902 N1906 1.427 . S
C1903 H1893 0.929 . S
C1903 C1901 1.433 . S
C1903 N1906 1.384 . S
C1904 H1895 0.929 . S
C1904 C1896 1.378 . S
C1904 C1899 1.350 . S
C1905 H1892 0.929 . S
C1905 C1897 1.433 . S
C1905 N1907 1.384 . S
N1906 C1902 1.427 . S
N1906 C1903 1.384 . S
N1907 C1899 1.427 . S
N1907 C1905 1.384 . S
H1908 C1914 0.930 . S
H1909 C1918 0.930 . S
H1910 C1923 0.929 . S
H1911 C1921 0.929 . S
H1912 C1916 0.929 . S
H1913 C1922 0.929 . S
C1914 H1908 0.930 . S
C1914 C1915 1.367 . S
C1914 C1922 1.378 . S
C1915 C1914 1.367 . S
C1915 C1923 1.433 . S
C1916 H1912 0.929 . S
C1916 C1918 1.378 . S
C1916 C1920 1.350 . S
C1917 C1920 1.463 . S
C1917 C1922 1.350 . S
C1917 N1925 1.427 . S
C1918 H1909 0.930 . S
C1918 C1916 1.378 . S
C1918 C1919 1.367 . S
C1919 C1918 1.367 . S
C1919 C1921 1.433 . S
C1920 C1916 1.350 . S
C1920 C1917 1.463 . S
C1920 N1924 1.427 . S
C1921 H1911 0.929 . S
C1921 C1919 1.433 . S
C1921 N1924 1.384 . S
C1922 H1913 0.929 . S
C1922 C1914 1.378 . S
C1922 C1917 1.350 . S
C1923 H1910 0.929 . S
C1923 C1915 1.433 . S
C1923 N1925 1.384 . S
N1924 C1920 1.427 . S
N1924 C1921 1.384 . S
N1925 C1917 1.427 . S
N1925 C1923 1.384 . S
H1926 C1932 0.930 . S
H1927 C1936 0.930 . S
H1928 C1941 0.929 . S
H1929 C1939 0.929 . S
H1930 C1934 0.929 . S
H1931 C1940 0.929 . S
C1932 H1926 0.930 . S
C1932 C1933 1.367 . S
C1932 C1940 1.378 . S
C1933 C1932 1.367 . S
C1933 C1941 1.433 . S
C1934 H1930 0.929 . S
C1934 C1936 1.378 . S
C1934 C1938 1.350 . S
C1935 C1938 1.463 . S
C1935 C1940 1.350 . S
C1935 N1943 1.427 . S
C1936 H1927 0.930 . S
C1936 C1934 1.378 . S
C1936 C1937 1.367 . S
C1937 C1936 1.367 . S
C1937 C1939 1.433 . S
C1938 C1934 1.350 . S
C1938 C1935 1.463 . S
C1938 N1942 1.427 . S
C1939 H1929 0.929 . S
C1939 C1937 1.433 . S
C1939 N1942 1.384 . S
C1940 H1931 0.929 . S
C1940 C1932 1.378 . S
C1940 C1935 1.350 . S
C1941 H1928 0.929 . S
C1941 C1933 1.433 . S
C1941 N1943 1.384 . S
N1942 C1938 1.427 . S
N1942 C1939 1.384 . S
N1943 C1935 1.427 . S
N1943 C1941 1.384 . S
H1944 C1950 0.930 . S
H1945 C1954 0.930 . S
H1946 C1959 0.929 . S
H1947 C1957 0.929 . S
H1948 C1952 0.929 . S
H1949 C1958 0.929 . S
C1950 H1944 0.930 . S
C1950 C1951 1.367 . S
C1950 C1958 1.378 . S
C1951 C1950 1.367 . S
C1951 C1959 1.433 . S
C1952 H1948 0.929 . S
C1952 C1954 1.378 . S
C1952 C1956 1.350 . S
C1953 C1956 1.463 . S
C1953 C1958 1.350 . S
C1953 N1961 1.427 . S
C1954 H1945 0.930 . S
C1954 C1952 1.378 . S
C1954 C1955 1.367 . S
C1955 C1954 1.367 . S
C1955 C1957 1.433 . S
C1956 C1952 1.350 . S
C1956 C1953 1.463 . S
C1956 N1960 1.427 . S
C1957 H1947 0.929 . S
C1957 C1955 1.433 . S
C1957 N1960 1.384 . S
C1958 H1949 0.929 . S
C1958 C1950 1.378 . S
C1958 C1953 1.350 . S
C1959 H1946 0.929 . S
C1959 C1951 1.433 . S
C1959 N1961 1.384 . S
N1960 C1956 1.427 . S
N1960 C1957 1.384 . S
N1961 C1953 1.427 . S
N1961 C1959 1.384 . S
H1962 C1968 0.930 . S
H1963 C1972 0.930 . S
H1964 C1977 0.929 . S
H1965 C1975 0.929 . S
H1966 C1970 0.929 . S
H1967 C1976 0.929 . S
C1968 H1962 0.930 . S
C1968 C1969 1.367 . S
C1968 C1976 1.378 . S
C1969 C1968 1.367 . S
C1969 C1977 1.433 . S
C1970 H1966 0.929 . S
C1970 C1972 1.378 . S
C1970 C1974 1.350 . S
C1971 C1974 1.463 . S
C1971 C1976 1.350 . S
C1971 N1979 1.427 . S
C1972 H1963 0.930 . S
C1972 C1970 1.378 . S
C1972 C1973 1.367 . S
C1973 C1972 1.367 . S
C1973 C1975 1.433 . S
C1974 C1970 1.350 . S
C1974 C1971 1.463 . S
C1974 N1978 1.427 . S
C1975 H1965 0.929 . S
C1975 C1973 1.433 . S
C1975 N1978 1.384 . S
C1976 H1967 0.929 . S
C1976 C1968 1.378 . S
C1976 C1971 1.350 . S
C1977 H1964 0.929 . S
C1977 C1969 1.433 . S
C1977 N1979 1.384 . S
N1978 C1974 1.427 . S
N1978 C1975 1.384 . S
N1979 C1971 1.427 . S
N1979 C1977 1.384 . S
H1980 C1986 0.930 . S
H1981 C1990 0.930 . S
H1982 C1995 0.929 . S
H1983 C1993 0.929 . S
H1984 C1988 0.929 . S
H1985 C1994 0.929 . S
C1986 H1980 0.930 . S
C1986 C1987 1.367 . S
C1986 C1994 1.378 . S
C1987 C1986 1.367 . S
C1987 C1995 1.433 . S
C1988 H1984 0.929 . S
C1988 C1990 1.378 . S
C1988 C1992 1.350 . S
C1989 C1992 1.463 . S
C1989 C1994 1.350 . S
C1989 N1997 1.427 . S
C1990 H1981 0.930 . S
C1990 C1988 1.378 . S
C1990 C1991 1.367 . S
C1991 C1990 1.367 . S
C1991 C1993 1.433 . S
C1992 C1988 1.350 . S
C1992 C1989 1.463 . S
C1992 N1996 1.427 . S
C1993 H1983 0.929 . S
C1993 C1991 1.433 . S
C1993 N1996 1.384 . S
C1994 H1985 0.929 . S
C1994 C1986 1.378 . S
C1994 C1989 1.350 . S
C1995 H1982 0.929 . S
C1995 C1987 1.433 . S
C1995 N1997 1.384 . S
N1996 C1992 1.427 . S
N1996 C1993 1.384 . S
N1997 C1989 1.427 . S
N1997 C1995 1.384 . S
H1998 C2004 0.930 . S
H1999 C2008 0.930 . S
H2000 C2013 0.929 . S
H2001 C2011 0.929 . S
H2002 C2006 0.929 . S
H2003 C2012 0.929 . S
C2004 H1998 0.930 . S
C2004 C2005 1.367 . S
C2004 C2012 1.378 . S
C2005 C2004 1.367 . S
C2005 C2013 1.433 1_455 S
C2006 H2002 0.929 . S
C2006 C2008 1.378 . S
C2006 C2010 1.350 1_655 S
C2007 C2010 1.463 . S
C2007 C2012 1.350 . S
C2007 N2015 1.427 1_455 S
C2008 H1999 0.930 . S
C2008 C2006 1.378 . S
C2008 C2009 1.367 1_655 S
C2009 C2008 1.367 1_455 S
C2009 C2011 1.433 . S
C2010 C2006 1.350 1_455 S
C2010 C2007 1.463 . S
C2010 N2014 1.427 . S
C2011 H2001 0.929 . S
C2011 C2009 1.433 . S
C2011 N2014 1.384 . S
C2012 H2003 0.929 . S
C2012 C2004 1.378 . S
C2012 C2007 1.350 . S
C2013 H2000 0.929 . S
C2013 C2005 1.433 1_655 S
C2013 N2015 1.384 . S
N2014 C2010 1.427 . S
N2014 C2011 1.384 . S
N2015 C2007 1.427 1_655 S
N2015 C2013 1.384 . S
H2016 C2022 0.930 . S
H2017 C2026 0.930 . S
H2018 C2031 0.929 . S
H2019 C2029 0.929 . S
H2020 C2024 0.929 . S
H2021 C2030 0.929 . S
C2022 H2016 0.930 . S
C2022 C2023 1.367 . S
C2022 C2030 1.378 . S
C2023 C2022 1.367 . S
C2023 C2031 1.433 . S
C2024 H2020 0.929 . S
C2024 C2026 1.378 . S
C2024 C2028 1.350 . S
C2025 C2028 1.463 . S
C2025 C2030 1.350 . S
C2025 N2033 1.427 . S
C2026 H2017 0.930 . S
C2026 C2024 1.378 . S
C2026 C2027 1.367 . S
C2027 C2026 1.367 . S
C2027 C2029 1.433 . S
C2028 C2024 1.350 . S
C2028 C2025 1.463 . S
C2028 N2032 1.427 . S
C2029 H2019 0.929 . S
C2029 C2027 1.433 . S
C2029 N2032 1.384 . S
C2030 H2021 0.929 . S
C2030 C2022 1.378 . S
C2030 C2025 1.350 . S
C2031 H2018 0.929 . S
C2031 C2023 1.433 . S
C2031 N2033 1.384 . S
N2032 C2028 1.427 . S
N2032 C2029 1.384 . S
N2033 C2025 1.427 . S
N2033 C2031 1.384 . S
H2034 C2040 0.930 . S
H2035 C2044 0.930 . S
H2036 C2049 0.929 . S
H2037 C2047 0.929 . S
H2038 C2042 0.929 . S
H2039 C2048 0.929 . S
C2040 H2034 0.930 . S
C2040 C2041 1.367 . S
C2040 C2048 1.378 . S
C2041 C2040 1.367 . S
C2041 C2049 1.433 1_565 S
C2042 H2038 0.929 . S
C2042 C2044 1.378 . S
C2042 C2046 1.350 1_545 S
C2043 C2046 1.463 . S
C2043 C2048 1.350 . S
C2043 N2051 1.427 1_565 S
C2044 H2035 0.930 . S
C2044 C2042 1.378 . S
C2044 C2045 1.367 1_545 S
C2045 C2044 1.367 1_565 S
C2045 C2047 1.433 . S
C2046 C2042 1.350 1_565 S
C2046 C2043 1.463 . S
C2046 N2050 1.427 . S
C2047 H2037 0.929 . S
C2047 C2045 1.433 . S
C2047 N2050 1.384 . S
C2048 H2039 0.929 . S
C2048 C2040 1.378 . S
C2048 C2043 1.350 . S
C2049 H2036 0.929 . S
C2049 C2041 1.433 1_545 S
C2049 N2051 1.384 . S
N2050 C2046 1.427 . S
N2050 C2047 1.384 . S
N2051 C2043 1.427 1_545 S
N2051 C2049 1.384 . S
H2052 C2058 0.930 . S
H2053 C2062 0.930 . S
H2054 C2067 0.929 1_545 S
H2055 C2065 0.929 . S
H2056 C2060 0.929 . S
H2057 C2066 0.929 . S
C2058 H2052 0.930 . S
C2058 C2059 1.367 . S
C2058 C2066 1.378 . S
C2059 C2058 1.367 . S
C2059 C2067 1.433 . S
C2060 H2056 0.929 . S
C2060 C2062 1.378 . S
C2060 C2064 1.350 1_545 S
C2061 C2064 1.463 . S
C2061 C2066 1.350 . S
C2061 N2069 1.423 . S
C2062 H2053 0.930 . S
C2062 C2060 1.378 . S
C2062 C2063 1.367 1_545 S
C2063 C2062 1.367 1_565 S
C2063 C2065 1.433 . S
C2064 C2060 1.350 1_565 S
C2064 C2061 1.463 . S
C2064 N2068 1.427 . S
C2065 H2055 0.929 . S
C2065 C2063 1.433 . S
C2065 N2068 1.384 . S
C2066 H2057 0.929 . S
C2066 C2058 1.378 . S
C2066 C2061 1.350 . S
C2067 H2054 0.929 1_565 S
C2067 C2059 1.433 . S
C2067 N2069 1.402 . S
N2068 C2064 1.427 . S
N2068 C2065 1.384 . S
N2069 C2061 1.423 . S
N2069 C2067 1.402 . S
H2070 C2076 0.930 . S
H2071 C2080 0.930 . S
H2072 C2085 0.929 . S
H2073 C2083 0.945 . S
H2074 C2078 0.929 . S
H2075 C2084 0.923 1_655 S
C2076 H2070 0.930 . S
C2076 C2077 1.367 . S
C2076 C2084 1.378 . S
C2077 C2076 1.367 . S
C2077 C2085 1.433 . S
C2078 H2074 0.929 . S
C2078 C2080 1.378 . S
C2078 C2082 1.350 . S
C2079 C2082 1.463 . S
C2079 C2084 1.350 . S
C2079 N2087 1.427 . S
C2080 H2071 0.930 . S
C2080 C2078 1.378 . S
C2080 C2081 1.367 . S
C2081 C2080 1.367 . S
C2081 C2083 1.398 1_455 S
C2082 C2078 1.350 . S
C2082 C2079 1.463 . S
C2082 N2086 1.438 . S
C2083 H2073 0.945 . S
C2083 C2081 1.398 1_655 S
C2083 N2086 1.421 1_655 S
C2084 H2075 0.923 1_455 S
C2084 C2076 1.378 . S
C2084 C2079 1.350 . S
C2085 H2072 0.929 . S
C2085 C2077 1.433 . S
C2085 N2087 1.384 . S
N2086 C2082 1.438 . S
N2086 C2083 1.421 1_455 S
N2087 C2079 1.427 . S
N2087 C2085 1.384 . S
H2088 C2094 0.930 . S
H2089 C2098 0.930 . S
H2090 C2103 0.929 . S
H2091 C2101 0.929 . S
H2092 C2096 0.929 . S
H2093 C2102 0.929 . S
C2094 H2088 0.930 . S
C2094 C2095 1.367 . S
C2094 C2102 1.378 . S
C2095 C2094 1.367 . S
C2095 C2103 1.433 . S
C2096 H2092 0.929 . S
C2096 C2098 1.378 . S
C2096 C2100 1.350 . S
C2097 C2100 1.463 . S
C2097 C2102 1.350 . S
C2097 N2105 1.427 . S
C2098 H2089 0.930 . S
C2098 C2096 1.378 . S
C2098 C2099 1.367 . S
C2099 C2098 1.367 . S
C2099 C2101 1.433 . S
C2100 C2096 1.350 . S
C2100 C2097 1.463 . S
C2100 N2104 1.427 . S
C2101 H2091 0.929 . S
C2101 C2099 1.433 . S
C2101 N2104 1.384 . S
C2102 H2093 0.929 . S
C2102 C2094 1.378 . S
C2102 C2097 1.350 . S
C2103 H2090 0.929 . S
C2103 C2095 1.433 . S
C2103 N2105 1.384 . S
N2104 C2100 1.427 . S
N2104 C2101 1.384 . S
N2105 C2097 1.427 . S
N2105 C2103 1.384 . S
H2106 C2112 0.930 . S
H2107 C2116 0.930 . S
H2108 C2121 0.929 . S
H2109 C2119 0.929 . S
H2110 C2114 0.929 . S
H2111 C2120 0.929 . S
C2112 H2106 0.930 . S
C2112 C2113 1.367 . S
C2112 C2120 1.378 . S
C2113 C2112 1.367 . S
C2113 C2121 1.433 . S
C2114 H2110 0.929 . S
C2114 C2116 1.378 . S
C2114 C2118 1.350 . S
C2115 C2118 1.463 . S
C2115 C2120 1.350 . S
C2115 N2123 1.427 . S
C2116 H2107 0.930 . S
C2116 C2114 1.378 . S
C2116 C2117 1.367 . S
C2117 C2116 1.367 . S
C2117 C2119 1.433 . S
C2118 C2114 1.350 . S
C2118 C2115 1.463 . S
C2118 N2122 1.427 . S
C2119 H2109 0.929 . S
C2119 C2117 1.433 . S
C2119 N2122 1.384 . S
C2120 H2111 0.929 . S
C2120 C2112 1.378 . S
C2120 C2115 1.350 . S
C2121 H2108 0.929 . S
C2121 C2113 1.433 . S
C2121 N2123 1.384 . S
N2122 C2118 1.427 . S
N2122 C2119 1.384 . S
N2123 C2115 1.427 . S
N2123 C2121 1.384 . S
H2124 C2130 0.930 . S
H2125 C2134 0.930 . S
H2126 C2139 0.929 . S
H2127 C2137 0.929 . S
H2128 C2132 0.929 . S
H2129 C2138 0.929 . S
C2130 H2124 0.930 . S
C2130 C2131 1.367 . S
C2130 C2138 1.378 . S
C2131 C2130 1.367 . S
C2131 C2139 1.433 . S
C2132 H2128 0.929 . S
C2132 C2134 1.378 . S
C2132 C2136 1.350 . S
C2133 C2136 1.463 . S
C2133 C2138 1.350 . S
C2133 N2141 1.427 . S
C2134 H2125 0.930 . S
C2134 C2132 1.378 . S
C2134 C2135 1.367 . S
C2135 C2134 1.367 . S
C2135 C2137 1.433 . S
C2136 C2132 1.350 . S
C2136 C2133 1.463 . S
C2136 N2140 1.427 . S
C2137 H2127 0.929 . S
C2137 C2135 1.433 . S
C2137 N2140 1.384 . S
C2138 H2129 0.929 . S
C2138 C2130 1.378 . S
C2138 C2133 1.350 . S
C2139 H2126 0.929 . S
C2139 C2131 1.433 . S
C2139 N2141 1.384 . S
N2140 C2136 1.427 . S
N2140 C2137 1.384 . S
N2141 C2133 1.427 . S
N2141 C2139 1.384 . S
H2142 C2148 0.930 . S
H2143 C2152 0.930 . S
H2144 C2157 0.929 . S
H2145 C2155 0.929 . S
H2146 C2150 0.929 . S
H2147 C2156 0.929 . S
C2148 H2142 0.930 . S
C2148 C2149 1.367 . S
C2148 C2156 1.378 . S
C2149 C2148 1.367 . S
C2149 C2157 1.433 . S
C2150 H2146 0.929 . S
C2150 C2152 1.378 . S
C2150 C2154 1.350 . S
C2151 C2154 1.463 . S
C2151 C2156 1.350 . S
C2151 N2159 1.427 . S
C2152 H2143 0.930 . S
C2152 C2150 1.378 . S
C2152 C2153 1.367 . S
C2153 C2152 1.367 . S
C2153 C2155 1.433 . S
C2154 C2150 1.350 . S
C2154 C2151 1.463 . S
C2154 N2158 1.427 . S
C2155 H2145 0.929 . S
C2155 C2153 1.433 . S
C2155 N2158 1.384 . S
C2156 H2147 0.929 . S
C2156 C2148 1.378 . S
C2156 C2151 1.350 . S
C2157 H2144 0.929 . S
C2157 C2149 1.433 . S
C2157 N2159 1.384 . S
N2158 C2154 1.427 . S
N2158 C2155 1.384 . S
N2159 C2151 1.427 . S
N2159 C2157 1.384 . S
H2160 C2166 0.930 . S
H2161 C2170 0.930 . S
H2162 C2175 0.929 . S
H2163 C2173 0.929 . S
H2164 C2168 0.929 . S
H2165 C2174 0.929 . S
C2166 H2160 0.930 . S
C2166 C2167 1.367 . S
C2166 C2174 1.378 . S
C2167 C2166 1.367 . S
C2167 C2175 1.433 1_545 S
C2168 H2164 0.929 . S
C2168 C2170 1.378 . S
C2168 C2172 1.350 1_565 S
C2169 C2172 1.463 . S
C2169 C2174 1.350 . S
C2169 N2177 1.427 1_545 S
C2170 H2161 0.930 . S
C2170 C2168 1.378 . S
C2170 C2171 1.367 1_565 S
C2171 C2170 1.367 1_545 S
C2171 C2173 1.433 . S
C2172 C2168 1.350 1_545 S
C2172 C2169 1.463 . S
C2172 N2176 1.427 . S
C2173 H2163 0.929 . S
C2173 C2171 1.433 . S
C2173 N2176 1.384 . S
C2174 H2165 0.929 . S
C2174 C2166 1.378 . S
C2174 C2169 1.350 . S
C2175 H2162 0.929 . S
C2175 C2167 1.433 1_565 S
C2175 N2177 1.384 . S
N2176 C2172 1.427 . S
N2176 C2173 1.384 . S
N2177 C2169 1.427 1_565 S
N2177 C2175 1.384 . S
H2178 C2184 0.933 1_455 S
H2179 C2188 0.930 . S
H2180 C2193 0.929 . S
H2181 C2191 0.931 . S
H2182 C2186 0.929 . S
H2183 C2192 0.919 1_455 S
C2184 H2178 0.933 1_655 S
C2184 C2185 1.367 . S
C2184 C2192 1.378 . S
C2185 C2184 1.367 . S
C2185 C2193 1.433 . S
C2186 H2182 0.929 . S
C2186 C2188 1.378 . S
C2186 C2190 1.350 . S
C2187 C2190 1.463 . S
C2187 C2192 1.350 . S
C2187 N2195 1.427 . S
C2188 H2179 0.930 . S
C2188 C2186 1.378 . S
C2188 C2189 1.367 . S
C2189 C2188 1.367 . S
C2189 C2191 1.426 1_655 S
C2190 C2186 1.350 . S
C2190 C2187 1.463 . S
C2190 N2194 1.431 . S
C2191 H2181 0.931 . S
C2191 C2189 1.426 1_455 S
C2191 N2194 1.397 1_455 S
C2192 H2183 0.919 1_655 S
C2192 C2184 1.378 . S
C2192 C2187 1.350 . S
C2193 H2180 0.929 . S
C2193 C2185 1.433 . S
C2193 N2195 1.384 . S
N2194 C2190 1.431 . S
N2194 C2191 1.397 1_655 S
N2195 C2187 1.427 . S
N2195 C2193 1.384 . S
H2196 C2202 0.930 . S
H2197 C2206 0.930 . S
H2198 C2211 0.929 . S
H2199 C2209 0.929 . S
H2200 C2204 0.929 . S
H2201 C2210 0.929 . S
C2202 H2196 0.930 . S
C2202 C2203 1.367 . S
C2202 C2210 1.378 . S
C2203 C2202 1.367 . S
C2203 C2211 1.433 . S
C2204 H2200 0.929 . S
C2204 C2206 1.378 . S
C2204 C2208 1.350 . S
C2205 C2208 1.463 . S
C2205 C2210 1.350 . S
C2205 N2213 1.427 . S
C2206 H2197 0.930 . S
C2206 C2204 1.378 . S
C2206 C2207 1.367 . S
C2207 C2206 1.367 . S
C2207 C2209 1.433 . S
C2208 C2204 1.350 . S
C2208 C2205 1.463 . S
C2208 N2212 1.427 . S
C2209 H2199 0.929 . S
C2209 C2207 1.433 . S
C2209 N2212 1.384 . S
C2210 H2201 0.929 . S
C2210 C2202 1.378 . S
C2210 C2205 1.350 . S
C2211 H2198 0.929 . S
C2211 C2203 1.433 . S
C2211 N2213 1.384 . S
N2212 C2208 1.427 . S
N2212 C2209 1.384 . S
N2213 C2205 1.427 . S
N2213 C2211 1.384 . S
H2214 C2220 0.930 . S
H2215 C2224 0.930 . S
H2216 C2229 0.929 . S
H2217 C2227 0.929 . S
H2218 C2222 0.929 . S
H2219 C2228 0.929 . S
C2220 H2214 0.930 . S
C2220 C2221 1.367 . S
C2220 C2228 1.378 . S
C2221 C2220 1.367 . S
C2221 C2229 1.433 . S
C2222 H2218 0.929 . S
C2222 C2224 1.378 . S
C2222 C2226 1.350 . S
C2223 C2226 1.463 . S
C2223 C2228 1.350 . S
C2223 N2231 1.427 . S
C2224 H2215 0.930 . S
C2224 C2222 1.378 . S
C2224 C2225 1.367 . S
C2225 C2224 1.367 . S
C2225 C2227 1.433 . S
C2226 C2222 1.350 . S
C2226 C2223 1.463 . S
C2226 N2230 1.427 . S
C2227 H2217 0.929 . S
C2227 C2225 1.433 . S
C2227 N2230 1.384 . S
C2228 H2219 0.929 . S
C2228 C2220 1.378 . S
C2228 C2223 1.350 . S
C2229 H2216 0.929 . S
C2229 C2221 1.433 . S
C2229 N2231 1.384 . S
N2230 C2226 1.427 . S
N2230 C2227 1.384 . S
N2231 C2223 1.427 . S
N2231 C2229 1.384 . S
H2232 C2238 0.930 . S
H2233 C2242 0.930 . S
H2234 C2247 0.929 . S
H2235 C2245 0.929 . S
H2236 C2240 0.929 . S
H2237 C2246 0.929 . S
C2238 H2232 0.930 . S
C2238 C2239 1.367 . S
C2238 C2246 1.378 . S
C2239 C2238 1.367 . S
C2239 C2247 1.433 . S
C2240 H2236 0.929 . S
C2240 C2242 1.378 . S
C2240 C2244 1.350 . S
C2241 C2244 1.463 . S
C2241 C2246 1.350 . S
C2241 N2249 1.427 . S
C2242 H2233 0.930 . S
C2242 C2240 1.378 . S
C2242 C2243 1.367 . S
C2243 C2242 1.367 . S
C2243 C2245 1.433 . S
C2244 C2240 1.350 . S
C2244 C2241 1.463 . S
C2244 N2248 1.427 . S
C2245 H2235 0.929 . S
C2245 C2243 1.433 . S
C2245 N2248 1.384 . S
C2246 H2237 0.929 . S
C2246 C2238 1.378 . S
C2246 C2241 1.350 . S
C2247 H2234 0.929 . S
C2247 C2239 1.433 . S
C2247 N2249 1.384 . S
N2248 C2244 1.427 . S
N2248 C2245 1.384 . S
N2249 C2241 1.427 . S
N2249 C2247 1.384 . S
H2250 C2256 0.930 . S
H2251 C2260 0.930 . S
H2252 C2265 0.929 . S
H2253 C2263 0.929 . S
H2254 C2258 0.929 . S
H2255 C2264 0.929 . S
C2256 H2250 0.930 . S
C2256 C2257 1.367 . S
C2256 C2264 1.378 . S
C2257 C2256 1.367 . S
C2257 C2265 1.433 . S
C2258 H2254 0.929 . S
C2258 C2260 1.378 . S
C2258 C2262 1.350 . S
C2259 C2262 1.463 . S
C2259 C2264 1.350 . S
C2259 N2267 1.427 . S
C2260 H2251 0.930 . S
C2260 C2258 1.378 . S
C2260 C2261 1.367 . S
C2261 C2260 1.367 . S
C2261 C2263 1.433 . S
C2262 C2258 1.350 . S
C2262 C2259 1.463 . S
C2262 N2266 1.427 . S
C2263 H2253 0.929 . S
C2263 C2261 1.433 . S
C2263 N2266 1.384 . S
C2264 H2255 0.929 . S
C2264 C2256 1.378 . S
C2264 C2259 1.350 . S
C2265 H2252 0.929 . S
C2265 C2257 1.433 . S
C2265 N2267 1.384 . S
N2266 C2262 1.427 . S
N2266 C2263 1.384 . S
N2267 C2259 1.427 . S
N2267 C2265 1.384 . S
H2268 C2274 0.930 . S
H2269 C2278 0.930 . S
H2270 C2283 0.929 . S
H2271 C2281 0.929 . S
H2272 C2276 0.929 . S
H2273 C2282 0.929 . S
C2274 H2268 0.930 . S
C2274 C2275 1.367 . S
C2274 C2282 1.378 . S
C2275 C2274 1.367 . S
C2275 C2283 1.433 . S
C2276 H2272 0.929 . S
C2276 C2278 1.378 . S
C2276 C2280 1.350 . S
C2277 C2280 1.463 . S
C2277 C2282 1.350 . S
C2277 N2285 1.427 . S
C2278 H2269 0.930 . S
C2278 C2276 1.378 . S
C2278 C2279 1.367 . S
C2279 C2278 1.367 . S
C2279 C2281 1.433 . S
C2280 C2276 1.350 . S
C2280 C2277 1.463 . S
C2280 N2284 1.427 . S
C2281 H2271 0.929 . S
C2281 C2279 1.433 . S
C2281 N2284 1.384 . S
C2282 H2273 0.929 . S
C2282 C2274 1.378 . S
C2282 C2277 1.350 . S
C2283 H2270 0.929 . S
C2283 C2275 1.433 . S
C2283 N2285 1.384 . S
N2284 C2280 1.427 . S
N2284 C2281 1.384 . S
N2285 C2277 1.427 . S
N2285 C2283 1.384 . S
H2286 C2292 0.930 . S
H2287 C2296 0.930 . S
H2288 C2301 0.929 . S
H2289 C2299 0.929 . S
H2290 C2294 0.929 . S
H2291 C2300 0.929 . S
C2292 H2286 0.930 . S
C2292 C2293 1.367 . S
C2292 C2300 1.378 . S
C2293 C2292 1.367 . S
C2293 C2301 1.433 . S
C2294 H2290 0.929 . S
C2294 C2296 1.378 . S
C2294 C2298 1.350 . S
C2295 C2298 1.463 . S
C2295 C2300 1.350 . S
C2295 N2303 1.427 . S
C2296 H2287 0.930 . S
C2296 C2294 1.378 . S
C2296 C2297 1.367 . S
C2297 C2296 1.367 . S
C2297 C2299 1.433 . S
C2298 C2294 1.350 . S
C2298 C2295 1.463 . S
C2298 N2302 1.427 . S
C2299 H2289 0.929 . S
C2299 C2297 1.433 . S
C2299 N2302 1.384 . S
C2300 H2291 0.929 . S
C2300 C2292 1.378 . S
C2300 C2295 1.350 . S
C2301 H2288 0.929 . S
C2301 C2293 1.433 . S
C2301 N2303 1.384 . S
N2302 C2298 1.427 . S
N2302 C2299 1.384 . S
N2303 C2295 1.427 . S
N2303 C2301 1.384 . S
H2304 C2310 0.930 . S
H2305 C2314 0.930 . S
H2306 C2319 0.929 . S
H2307 C2317 0.929 . S
H2308 C2312 0.929 . S
H2309 C2318 0.929 . S
C2310 H2304 0.930 . S
C2310 C2311 1.367 . S
C2310 C2318 1.378 . S
C2311 C2310 1.367 . S
C2311 C2319 1.433 . S
C2312 H2308 0.929 . S
C2312 C2314 1.378 . S
C2312 C2316 1.350 . S
C2313 C2316 1.463 . S
C2313 C2318 1.350 . S
C2313 N2321 1.427 . S
C2314 H2305 0.930 . S
C2314 C2312 1.378 . S
C2314 C2315 1.367 . S
C2315 C2314 1.367 . S
C2315 C2317 1.433 . S
C2316 C2312 1.350 . S
C2316 C2313 1.463 . S
C2316 N2320 1.427 . S
C2317 H2307 0.929 . S
C2317 C2315 1.433 . S
C2317 N2320 1.384 . S
C2318 H2309 0.929 . S
C2318 C2310 1.378 . S
C2318 C2313 1.350 . S
C2319 H2306 0.929 . S
C2319 C2311 1.433 . S
C2319 N2321 1.384 . S
N2320 C2316 1.427 . S
N2320 C2317 1.384 . S
N2321 C2313 1.427 . S
N2321 C2319 1.384 . S
H2322 C2328 0.930 . S
H2323 C2332 0.930 . S
H2324 C2337 0.929 . S
H2325 C2335 0.929 . S
H2326 C2330 0.929 . S
H2327 C2336 0.929 . S
C2328 H2322 0.930 . S
C2328 C2329 1.367 1_455 S
C2328 C2336 1.378 . S
C2329 C2328 1.367 1_655 S
C2329 C2337 1.433 . S
C2330 H2326 0.929 . S
C2330 C2332 1.378 . S
C2330 C2334 1.350 . S
C2331 C2334 1.463 . S
C2331 C2336 1.350 1_655 S
C2331 N2339 1.427 . S
C2332 H2323 0.930 . S
C2332 C2330 1.378 . S
C2332 C2333 1.367 . S
C2333 C2332 1.367 . S
C2333 C2335 1.433 1_655 S
C2334 C2330 1.350 . S
C2334 C2331 1.463 . S
C2334 N2338 1.427 1_655 S
C2335 H2325 0.929 . S
C2335 C2333 1.433 1_455 S
C2335 N2338 1.384 . S
C2336 H2327 0.929 . S
C2336 C2328 1.378 . S
C2336 C2331 1.350 1_455 S
C2337 H2324 0.929 . S
C2337 C2329 1.433 . S
C2337 N2339 1.384 . S
N2338 C2334 1.427 1_455 S
N2338 C2335 1.384 . S
N2339 C2331 1.427 . S
N2339 C2337 1.384 . S
H2340 C2346 0.930 . S
H2341 C2350 0.930 . S
H2342 C2355 0.929 . S
H2343 C2353 0.929 . S
H2344 C2348 0.929 . S
H2345 C2354 0.929 . S
C2346 H2340 0.930 . S
C2346 C2347 1.367 . S
C2346 C2354 1.378 . S
C2347 C2346 1.367 . S
C2347 C2355 1.433 . S
C2348 H2344 0.929 . S
C2348 C2350 1.378 . S
C2348 C2352 1.350 . S
C2349 C2352 1.463 . S
C2349 C2354 1.350 . S
C2349 N2357 1.427 . S
C2350 H2341 0.930 . S
C2350 C2348 1.378 . S
C2350 C2351 1.367 . S
C2351 C2350 1.367 . S
C2351 C2353 1.433 . S
C2352 C2348 1.350 . S
C2352 C2349 1.463 . S
C2352 N2356 1.427 . S
C2353 H2343 0.929 . S
C2353 C2351 1.433 . S
C2353 N2356 1.384 . S
C2354 H2345 0.929 . S
C2354 C2346 1.378 . S
C2354 C2349 1.350 . S
C2355 H2342 0.929 . S
C2355 C2347 1.433 . S
C2355 N2357 1.384 . S
N2356 C2352 1.427 . S
N2356 C2353 1.384 . S
N2357 C2349 1.427 . S
N2357 C2355 1.384 . S
H2358 C2364 0.930 . S
H2359 C2368 0.930 . S
H2360 C2373 0.929 . S
H2361 C2371 0.929 . S
H2362 C2366 0.929 . S
H2363 C2372 0.929 . S
C2364 H2358 0.930 . S
C2364 C2365 1.367 1_565 S
C2364 C2372 1.378 . S
C2365 C2364 1.367 1_545 S
C2365 C2373 1.433 . S
C2366 H2362 0.929 . S
C2366 C2368 1.378 . S
C2366 C2370 1.350 . S
C2367 C2370 1.463 . S
C2367 C2372 1.350 1_545 S
C2367 N2375 1.427 . S
C2368 H2359 0.930 . S
C2368 C2366 1.378 . S
C2368 C2369 1.367 . S
C2369 C2368 1.367 . S
C2369 C2371 1.433 1_545 S
C2370 C2366 1.350 . S
C2370 C2367 1.463 . S
C2370 N2374 1.427 1_545 S
C2371 H2361 0.929 . S
C2371 C2369 1.433 1_565 S
C2371 N2374 1.384 . S
C2372 H2363 0.929 . S
C2372 C2364 1.378 . S
C2372 C2367 1.350 1_565 S
C2373 H2360 0.929 . S
C2373 C2365 1.433 . S
C2373 N2375 1.384 . S
N2374 C2370 1.427 1_565 S
N2374 C2371 1.384 . S
N2375 C2367 1.427 . S
N2375 C2373 1.384 . S
C1087 C9 1.421 1_655 S
C1091 C688 1.456 . S
C1105 C19 1.579 . S
C1109 C734 1.563 . S
C1127 C766 1.504 . S
C1123 C33 1.499 . S
C1141 C37 1.466 1_565 S
C1145 C819 1.471 . S
C1159 C5 1.446 . S
C1163 C865 1.457 . S
C1177 C23 1.616 . S
C1181 C904 1.605 . S
C1195 C47 1.458 . S
C1199 C858 1.468 . S
C1217 C911 1.617 . S
C1213 C65 1.633 . S
C1235 C812 1.471 . S
C1231 C75 1.460 . S
C1249 C79 1.396 . S
C1253 C773 1.410 . S
C1271 C667 1.493 . S
C1267 C51 1.473 . S
C1285 C61 1.602 . S
C1289 C713 1.579 . S
C1303 C93 1.719 . S
C1307 C943 1.703 . S
C1321 C103 1.651 . S
C1325 C1010 1.626 . S
C1343 C1056 1.641 . S
C1339 C117 1.666 . S
C1357 C121 1.621 . S
C1361 C267 1.599 . S
C1375 C89 1.647 . S
C1379 C313 1.620 . S
C1393 C107 1.667 . S
C1397 C359 1.635 . S
C1411 C131 1.602 . S
C1415 C306 1.573 . S
C1429 C149 1.675 . S
C1433 C352 1.640 . S
C1451 C260 1.617 . S
C1447 C159 1.637 . S
C1469 C1035 1.656 . S
C1465 C163 1.689 . S
C1487 C964 1.669 . S
C1483 C135 1.692 . S
C1505 C989 1.642 . S
C1501 C145 1.673 . S
C1519 C177 1.621 . S
C1523 C391 1.606 . S
C1537 C187 1.617 . S
C1541 C444 1.604 . S
C1555 C201 1.674 . S
C1559 C490 1.665 . S
C1573 C205 1.722 . S
C1577 C536 1.702 . S
C1595 C589 1.619 . S
C1591 C173 1.642 . S
C1613 C635 1.669 . S
C1609 C191 1.702 . S
C1631 C582 1.688 . S
C1627 C215 1.710 . S
C1649 C628 1.678 . S
C1645 C233 1.712 . S
C1663 C243 1.622 . S
C1667 C543 1.611 . S
C1685 C497 1.567 . S
C1681 C247 1.579 . S
C1699 C219 1.699 . S
C1703 C412 1.685 . S
C1721 C451 1.639 . S
C1717 C229 1.652 . S
C1739 C274 1.590 . S
C1735 C11 1.604 . S
C1753 C14 1.537 . S
C1757 C320 1.514 . S
C1775 C366 1.668 . S
C1771 C28 1.687 . S
C1793 C398 1.639 . S
C1789 C39 1.674 . S
C1811 C437 1.596 . S
C1807 C0 1.624 . S
C1829 C483 1.462 . S
C1825 C25 1.499 . S
C1843 C42 1.675 . S
C1847 C504 1.647 . S
C1861 C67 1.554 . S
C1865 C405 1.517 . S
C1879 C70 1.573 . S
C1883 C458 1.539 . S
C1897 C81 1.596 . S
C1901 C299 1.582 . S
C1919 C345 1.636 . S
C1915 C53 1.655 . S
C1933 C56 1.574 . S
C1937 C253 1.558 . S
C1955 C529 1.533 . S
C1951 C95 1.557 . S
C1969 C98 1.663 . S
C1973 C596 1.646 . S
C1987 C112 1.730 . S
C1991 C642 1.715 . S
C2009 C681 1.427 . S
C2005 C123 1.414 . S
C2023 C84 1.587 . S
C2027 C727 1.569 . S
C2041 C109 1.353 . S
C2045 C759 1.369 . S
C2059 C126 1.440 . S
C2063 C780 1.446 . S
C2077 C151 1.400 . S
C2081 C674 1.409 . S
C2099 C720 1.542 . S
C2095 C154 1.555 . S
C2113 C165 1.546 . S
C2117 C575 1.525 . S
C2131 C137 1.684 . S
C2135 C621 1.661 . S
C2153 C550 1.667 . S
C2149 C140 1.699 . S
C2171 C826 1.399 . S
C2167 C179 1.385 . S
C2185 C182 1.389 . S
C2189 C872 1.407 . S
C2203 C196 1.648 . S
C2207 C897 1.615 . S
C2225 C950 1.587 . S
C2221 C207 1.626 . S
C2243 C1003 1.637 . S
C2239 C168 1.660 . S
C2257 C193 1.633 . S
C2261 C1049 1.611 . S
C2275 C210 1.639 . S
C2279 C1042 1.624 . S
C2293 C235 1.681 . S
C2297 C957 1.646 . S
C2315 C996 1.605 . S
C2311 C238 1.624 . S
C2333 C851 1.359 . S
C2329 C249 1.351 . S
C2351 C918 1.574 . S
C2347 C221 1.609 . S
C2365 C224 1.422 . S
C2369 C805 1.431 . S
