# Generated by pormake.
# Topology zzz, (3,6)-cn, num edge types: 1
# Building blocks:
#     Node 0, Type 0, BuildingBlock: VETTIZ_charged_linker_0, # of connection points: 3
#     Node 1, Type 0, BuildingBlock: VETTIZ_charged_linker_0, # of connection points: 3
#     Node 2, Type 0, BuildingBlock: VETTIZ_charged_linker_0, # of connection points: 3
#     Node 3, Type 0, BuildingBlock: VETTIZ_charged_linker_0, # of connection points: 3
#     Node 4, Type 0, BuildingBlock: VETTIZ_charged_linker_0, # of connection points: 3
#     Node 5, Type 0, BuildingBlock: VETTIZ_charged_linker_0, # of connection points: 3
#     Node 6, Type 0, BuildingBlock: VETTIZ_charged_linker_0, # of connection points: 3
#     Node 7, Type 0, BuildingBlock: VETTIZ_charged_linker_0, # of connection points: 3
#     Node 8, Type 1, BuildingBlock: PAMTOO_clean_sbu_0, # of connection points: 6
#     Node 9, Type 1, BuildingBlock: PAMTOO_clean_sbu_0, # of connection points: 6
#     Node 10, Type 1, BuildingBlock: PAMTOO_clean_sbu_0, # of connection points: 6
#     Node 11, Type 1, BuildingBlock: PAMTOO_clean_sbu_0, # of connection points: 6
#     Edge 12, Type (0, 1), BuildingBlock: XUDNAN_clean_linker_2, # of connection points: 2
#     Edge 13, Type (0, 1), BuildingBlock: XUDNAN_clean_linker_2, # of connection points: 2
#     Edge 14, Type (0, 1), BuildingBlock: XUDNAN_clean_linker_2, # of connection points: 2
#     Edge 15, Type (0, 1), BuildingBlock: XUDNAN_clean_linker_2, # of connection points: 2
#     Edge 16, Type (0, 1), BuildingBlock: XUDNAN_clean_linker_2, # of connection points: 2
#     Edge 17, Type (0, 1), BuildingBlock: XUDNAN_clean_linker_2, # of connection points: 2
#     Edge 18, Type (0, 1), BuildingBlock: XUDNAN_clean_linker_2, # of connection points: 2
#     Edge 19, Type (0, 1), BuildingBlock: XUDNAN_clean_linker_2, # of connection points: 2
#     Edge 20, Type (0, 1), BuildingBlock: XUDNAN_clean_linker_2, # of connection points: 2
#     Edge 21, Type (0, 1), BuildingBlock: XUDNAN_clean_linker_2, # of connection points: 2
#     Edge 22, Type (0, 1), BuildingBlock: XUDNAN_clean_linker_2, # of connection points: 2
#     Edge 23, Type (0, 1), BuildingBlock: XUDNAN_clean_linker_2, # of connection points: 2
#     Edge 24, Type (0, 1), BuildingBlock: XUDNAN_clean_linker_2, # of connection points: 2
#     Edge 25, Type (0, 1), BuildingBlock: XUDNAN_clean_linker_2, # of connection points: 2
#     Edge 26, Type (0, 1), BuildingBlock: XUDNAN_clean_linker_2, # of connection points: 2
#     Edge 27, Type (0, 1), BuildingBlock: XUDNAN_clean_linker_2, # of connection points: 2
#     Edge 28, Type (0, 1), BuildingBlock: XUDNAN_clean_linker_2, # of connection points: 2
#     Edge 29, Type (0, 1), BuildingBlock: XUDNAN_clean_linker_2, # of connection points: 2
#     Edge 30, Type (0, 1), BuildingBlock: XUDNAN_clean_linker_2, # of connection points: 2
#     Edge 31, Type (0, 1), BuildingBlock: XUDNAN_clean_linker_2, # of connection points: 2
#     Edge 32, Type (0, 1), BuildingBlock: XUDNAN_clean_linker_2, # of connection points: 2
#     Edge 33, Type (0, 1), BuildingBlock: XUDNAN_clean_linker_2, # of connection points: 2
#     Edge 34, Type (0, 1), BuildingBlock: XUDNAN_clean_linker_2, # of connection points: 2
#     Edge 35, Type (0, 1), BuildingBlock: XUDNAN_clean_linker_2, # of connection points: 2
# Relax obj value: 0.356
# Max RMSD: 0.281
# Mean RMSD: 0.222
data_MOF--net-zzz--node1-PAMTOO_clean_sbu_0--node2-VETTIZ_charged_linker_0--edge1-XUDNAN_clean_linker_2
_symmetry_space_group_name_H-M    P1
_symmetry_Int_Tables_number       1
_symmetry_cell_setting            triclinic
loop_
_symmetry_equiv_pos_as_xyz
'x, y, z'
_cell_length_a     63.326839
_cell_length_b     55.365598
_cell_length_c     20.797397
_cell_angle_alpha  90.960895
_cell_angle_beta   81.314244
_cell_angle_gamma 84.6347
loop_
_atom_site_label
_atom_site_type_symbol
_atom_site_fract_x
_atom_site_fract_y
_atom_site_fract_z
_atom_type_partial_charge
C0 C 0.83475 0.53341 0.4773 0.0
C1 C 0.85045 0.54635 0.50124 0.0
C2 C 0.84991 0.57151 0.49253 0.0
C3 C 0.82264 0.56964 0.4238 0.0
C4 C 0.82065 0.54573 0.43892 0.0
C5 C 0.80229 0.53644 0.40885 0.0
H6 H 0.73659 0.55564 0.17496 0.0
C7 C 0.80921 0.57649 0.37398 0.0
C8 C 0.79641 0.55751 0.36564 0.0
H9 H 0.73281 0.49882 0.31479 0.0
H10 H 0.76251 0.51378 0.36142 0.0
H11 H 0.74131 0.59972 0.2705 0.0
H12 H 0.78387 0.54997 0.14174 0.0
H13 H 0.79919 0.57444 0.14784 0.0
H14 H 0.77441 0.57883 0.11442 0.0
H15 H 0.74403 0.59899 0.18321 0.0
H16 H 0.7605 0.61652 0.22542 0.0
C17 C 0.78385 0.53309 0.46452 0.0
C18 C 0.81036 0.51286 0.36872 0.0
C19 C 0.83678 0.63857 0.21663 0.0
C20 C 0.8366 0.63732 0.14906 0.0
C21 C 0.81759 0.63108 0.12781 0.0
C22 C 0.80197 0.62066 0.17061 0.0
C23 C 0.80596 0.61539 0.23379 0.0
C24 C 0.82268 0.62525 0.25699 0.0
C25 C 0.82721 0.61428 0.31988 0.0
C26 C 0.81088 0.59552 0.32905 0.0
C27 C 0.79846 0.59647 0.27879 0.0
C28 C 0.82275 0.63447 0.37421 0.0
C29 C 0.85074 0.60224 0.3081 0.0
C30 C 0.74152 0.54666 0.2169 0.0
C31 C 0.7317 0.52642 0.24199 0.0
C32 C 0.73982 0.51465 0.29449 0.0
C33 C 0.75689 0.5235 0.32212 0.0
C34 C 0.76596 0.54438 0.29724 0.0
C35 C 0.75812 0.55535 0.24517 0.0
C36 C 0.76968 0.57663 0.22202 0.0
C37 C 0.78429 0.57848 0.27273 0.0
C38 C 0.78283 0.55916 0.31612 0.0
C39 C 0.7531 0.59923 0.22491 0.0
C40 C 0.78238 0.56984 0.15297 0.0
H41 H 0.83642 0.60233 0.44937 0.0
H42 H 0.83405 0.51428 0.48623 0.0
H43 H 0.82473 0.51568 0.33277 0.0
H44 H 0.79808 0.50675 0.34135 0.0
H45 H 0.81485 0.498 0.40079 0.0
H46 H 0.78113 0.54903 0.49907 0.0
H47 H 0.78771 0.51669 0.49224 0.0
H48 H 0.76845 0.53159 0.44699 0.0
H49 H 0.85022 0.64526 0.23555 0.0
H50 H 0.81585 0.63115 0.0769 0.0
H51 H 0.78855 0.61492 0.15075 0.0
H52 H 0.81404 0.65124 0.35872 0.0
H53 H 0.8379 0.63975 0.38871 0.0
H54 H 0.81232 0.62875 0.41799 0.0
H55 H 0.85378 0.59099 0.2622 0.0
H56 H 0.85493 0.59002 0.34609 0.0
H57 H 0.86236 0.61616 0.30414 0.0
H58 H 0.86104 0.58203 0.51294 0.0
C59 C 0.83577 0.58325 0.45537 0.0
C60 C 0.89002 0.81967 0.14796 0.0
C61 C 0.88692 0.8442 0.16988 0.0
C62 C 0.88716 0.84911 0.23663 0.0
C63 C 0.90487 0.80906 0.24534 0.0
C64 C 0.90027 0.80259 0.18503 0.0
C65 C 0.912 0.77847 0.16037 0.0
H66 H 0.9943 0.69269 0.16869 0.0
C67 C 0.92212 0.79142 0.2614 0.0
C68 C 0.9261 0.77312 0.2127 0.0
H69 H 0.94636 0.69819 0.03914 0.0
H70 H 0.92793 0.73197 0.10111 0.0
H71 H 1.00173 0.76049 0.2482 0.0
H72 H 0.96204 0.70954 0.30939 0.0
H73 H 0.97753 0.72919 0.34657 0.0
H74 H 0.99086 0.70525 0.29133 0.0
H75 H 0.99798 0.75301 0.16826 0.0
H76 H 1.01125 0.73069 0.21412 0.0
C77 C 0.92561 0.78216 0.09317 0.0
C78 C 0.8952 0.75986 0.15923 0.0
C79 C 0.96614 0.82032 0.42477 0.0
C80 C 0.98644 0.81299 0.44049 0.0
C81 C 0.99692 0.79044 0.41488 0.0
C82 C 0.98768 0.77629 0.37113 0.0
C83 C 0.96787 0.7849 0.35254 0.0
C84 C 0.9574 0.80643 0.38066 0.0
C85 C 0.93695 0.81378 0.3554 0.0
C86 C 0.93682 0.79342 0.30591 0.0
C87 C 0.95487 0.77628 0.30401 0.0
C88 C 0.93868 0.83908 0.32397 0.0
C89 C 0.91821 0.81316 0.41247 0.0
C90 C 0.97998 0.70117 0.15281 0.0
C91 C 0.97189 0.69165 0.09844 0.0
C92 C 0.95292 0.70372 0.08145 0.0
C93 C 0.94219 0.72395 0.11719 0.0
C94 C 0.95077 0.73349 0.16922 0.0
C95 C 0.9693 0.72222 0.1869 0.0
C96 C 0.97618 0.73601 0.24269 0.0
C97 C 0.95813 0.7566 0.25688 0.0
C98 C 0.94357 0.75502 0.21242 0.0
C99 C 0.998 0.74552 0.21757 0.0
C100 C 0.97683 0.71915 0.30079 0.0
H101 H 0.89737 0.83665 0.32356 0.0
H102 H 0.88836 0.81488 0.09843 0.0
H103 H 0.88004 0.7656 0.19258 0.0
H104 H 0.90081 0.74191 0.17657 0.0
H105 H 0.891 0.75754 0.1097 0.0
H106 H 0.93353 0.79924 0.09408 0.0
H107 H 0.91543 0.78335 0.05406 0.0
H108 H 0.93881 0.76782 0.07878 0.0
H109 H 0.95739 0.83722 0.44475 0.0
H110 H 1.0125 0.78416 0.42704 0.0
H111 H 0.99642 0.75944 0.35255 0.0
H112 H 0.93626 0.83871 0.2723 0.0
H113 H 0.95483 0.8456 0.3226 0.0
H114 H 0.92707 0.85331 0.3512 0.0
H115 H 0.92106 0.79741 0.44367 0.0
H116 H 0.90274 0.81081 0.39572 0.0
H117 H 0.91642 0.82991 0.44377 0.0
H118 H 0.88366 0.86735 0.25739 0.0
C119 C 0.8959 0.8314 0.27481 0.0
C120 C 0.82492 0.99825 0.12419 0.0
C121 C 0.8376 0.00492 0.06593 0.0
C122 C 0.82786 0.0209 0.02467 0.0
C123 C 0.79408 0.02371 0.0978 0.0
C124 C 0.80302 0.00776 0.13888 0.0
C125 C 0.78633 0.00255 0.19667 0.0
H126 H 0.68276 0.03137 0.35603 0.0
C127 C 0.77168 0.03158 0.12667 0.0
C128 C 0.76673 0.01958 0.18558 0.0
H129 H 0.72803 0.97449 0.40734 0.0
H130 H 0.75506 0.98573 0.31904 0.0
H131 H 0.71497 0.07158 0.32795 0.0
H132 H 0.69146 0.01893 0.21035 0.0
H133 H 0.69142 0.04559 0.16638 0.0
H134 H 0.67545 0.0457 0.24555 0.0
H135 H 0.68917 0.07651 0.3023 0.0
H136 H 0.71309 0.08577 0.25395 0.0
C137 C 0.7944 0.0091 0.26039 0.0
C138 C 0.78214 0.97565 0.19136 0.0
C139 C 0.72639 0.08915 1.00204 0.0
C140 C 0.70559 0.10096 0.0182 0.0
C141 C 0.69479 0.10008 0.08232 0.0
C142 C 0.70389 0.08618 0.12846 0.0
C143 C 0.72403 0.07297 0.11042 0.0
C144 C 0.73541 0.07559 0.04931 0.0
C145 C 0.75727 0.06171 0.04097 0.0
C146 C 0.75637 0.04883 0.10542 0.0
C147 C 0.7367 0.05512 0.14498 0.0
C148 C 0.77425 0.08042 0.03323 0.0
C149 C 0.75901 0.04344 0.98263 0.0
C150 C 0.69857 0.02151 0.3497 0.0
C151 C 0.70309 0.00216 0.38963 0.0
C152 C 0.72389 0.98946 0.37731 0.0
C153 C 0.73957 0.99591 0.32582 0.0
C154 C 0.73436 0.01498 0.28514 0.0
C155 C 0.71405 0.02734 0.29831 0.0
C156 C 0.71016 0.04603 0.2494 0.0
C157 C 0.73125 0.04291 0.20364 0.0
C158 C 0.74587 0.02491 0.22424 0.0
C159 C 0.70649 0.07133 0.28485 0.0
C160 C 0.69109 0.039 0.21616 0.0
H161 H 0.80036 0.04217 1.00595 0.0
H162 H 0.83182 0.98589 0.15691 0.0
H163 H 0.77985 0.97078 0.14093 0.0
H164 H 0.76746 0.97155 0.22323 0.0
H165 H 0.79593 0.96363 0.20362 0.0
H166 H 0.79932 0.02787 0.25899 0.0
H167 H 0.80848 0.99649 0.26773 0.0
H168 H 0.78187 0.00841 0.30324 0.0
H169 H 0.73511 0.08981 0.9532 0.0
H170 H 0.67868 0.10891 0.09571 0.0
H171 H 0.69441 0.0854 0.17551 0.0
H172 H 0.76727 0.09888 0.05174 0.0
H173 H 0.78126 0.08205 0.98141 0.0
H174 H 0.78736 0.07583 0.062 0.0
H175 H 0.74373 0.03496 0.98325 0.0
H176 H 0.77143 0.02813 0.98361 0.0
H177 H 0.76235 0.05264 0.93562 0.0
H178 H 0.83704 0.02681 0.98048 0.0
C179 C 0.80643 0.03018 0.04009 0.0
C180 C 0.53143 0.70531 0.39274 0.0
C181 C 0.53755 0.68001 0.39541 0.0
C182 C 0.54506 0.66678 0.3365 0.0
C183 C 0.53456 0.70132 0.27576 0.0
C184 C 0.53093 0.71584 0.33138 0.0
C185 C 0.52493 0.74204 0.31514 0.0
H186 H 0.49208 0.81822 0.08715 0.0
C187 C 0.52708 0.71501 0.22264 0.0
C188 C 0.52451 0.7397 0.24153 0.0
H189 H 0.54642 0.83006 0.18322 0.0
H190 H 0.54449 0.7901 0.2313 0.0
H191 H 0.51354 0.76692 0.03402 0.0
H192 H 0.46421 0.78507 0.19989 0.0
H193 H 0.45887 0.75797 0.16296 0.0
H194 H 0.45828 0.78568 0.1182 0.0
H195 H 0.48759 0.78205 0.02742 0.0
H196 H 0.49145 0.74983 0.0311 0.0
C197 C 0.542 0.75803 0.33223 0.0
C198 C 0.50258 0.75111 0.35221 0.0
C199 C 0.48589 0.66675 0.08351 0.0
C200 C 0.46763 0.67279 0.05386 0.0
C201 C 0.45964 0.69743 0.05313 0.0
C202 C 0.4697 0.71555 0.08168 0.0
C203 C 0.48787 0.70896 0.1113 0.0
C204 C 0.49512 0.6848 0.11399 0.0
C205 C 0.51289 0.68062 0.15416 0.0
C206 C 0.51503 0.70658 0.17584 0.0
C207 C 0.50095 0.72304 0.14822 0.0
C208 C 0.53333 0.66968 0.10917 0.0
C209 C 0.50561 0.66399 0.21127 0.0
C210 C 0.5032 0.81287 0.1202 0.0
C211 C 0.51912 0.82785 0.13194 0.0
C212 C 0.5334 0.81962 0.1751 0.0
C213 C 0.53205 0.79686 0.20437 0.0
C214 C 0.51597 0.78245 0.19198 0.0
C215 C 0.50252 0.79002 0.14807 0.0
C216 C 0.49096 0.76952 0.12584 0.0
C217 C 0.50131 0.7483 0.15909 0.0
C218 C 0.51414 0.75644 0.20259 0.0
C219 C 0.49601 0.76684 0.05064 0.0
C220 C 0.46677 0.77476 0.15253 0.0
H221 H 0.54936 0.66679 0.23281 0.0
H222 H 0.52646 0.71624 0.43702 0.0
H223 H 0.49039 0.73902 0.34146 0.0
H224 H 0.49757 0.76975 0.33768 0.0
H225 H 0.50271 0.75158 0.40558 0.0
H226 H 0.55726 0.75421 0.29795 0.0
H227 H 0.54538 0.7546 0.38236 0.0
H228 H 0.53624 0.77754 0.33137 0.0
H229 H 0.49298 0.64819 0.08366 0.0
H230 H 0.44553 0.7027 0.03114 0.0
H231 H 0.46295 0.73398 0.07988 0.0
H232 H 0.53564 0.67949 0.06276 0.0
H233 H 0.53221 0.65024 0.09725 0.0
H234 H 0.54798 0.67115 0.13126 0.0
H235 H 0.49866 0.67482 0.25624 0.0
H236 H 0.5189 0.65094 0.22172 0.0
H237 H 0.49311 0.65241 0.20043 0.0
H238 H 0.55046 0.64763 0.33645 0.0
C239 C 0.54381 0.67748 0.27667 0.0
C240 C 0.30378 0.47597 0.17994 0.0
C241 C 0.31871 0.46301 0.21487 0.0
C242 C 0.31811 0.43764 0.21967 0.0
C243 C 0.2866 0.43924 0.16759 0.0
C244 C 0.28808 0.46336 0.15501 0.0
C245 C 0.27193 0.47211 0.11072 0.0
H246 H 0.18742 0.44173 0.96034 0.0
C247 C 0.26846 0.43095 0.14084 0.0
C248 C 0.2602 0.44932 0.10317 0.0
H249 H 0.214 0.51087 0.9508 0.0
H250 H 0.24084 0.49542 0.01659 0.0
H251 H 0.23075 0.40566 0.9506 0.0
H252 H 0.18052 0.43712 0.08565 0.0
H253 H 0.19434 0.42193 0.14283 0.0
H254 H 0.18386 0.40517 0.08104 0.0
H255 H 0.20345 0.39849 0.97049 0.0
H256 H 0.22452 0.38376 0.0096 0.0
C257 C 0.2844 0.47919 0.04543 0.0
C258 C 0.25675 0.49324 0.14567 0.0
C259 C 0.22191 0.37643 0.27251 0.0
C260 C 0.20076 0.37248 0.26451 0.0
C261 C 0.19655 0.36877 0.20045 0.0
C262 C 0.21089 0.37562 0.14751 0.0
C263 C 0.22874 0.38703 0.1598 0.0
C264 C 0.23544 0.38487 0.21961 0.0
C265 C 0.25559 0.39711 0.22203 0.0
C266 C 0.25721 0.4105 0.15757 0.0
C267 C 0.24056 0.40547 0.12366 0.0
C268 C 0.2742 0.37709 0.22466 0.0
C269 C 0.2524 0.41496 0.2816 0.0
C270 C 0.19878 0.45388 0.97236 0.0
C271 C 0.19814 0.4777 0.95035 0.0
C272 C 0.21394 0.49234 0.96658 0.0
C273 C 0.2295 0.4834 1.00507 0.0
C274 C 0.22927 0.45963 0.02824 0.0
C275 C 0.2138 0.44557 0.01188 0.0
C276 C 0.21399 0.42169 0.04437 0.0
C277 C 0.23309 0.42274 0.08025 0.0
C278 C 0.24225 0.44502 0.07113 0.0
C279 C 0.21827 0.4012 0.99116 0.0
C280 C 0.19221 0.42127 0.09082 0.0
H281 H 0.30363 0.40634 0.19446 0.0
H282 H 0.30445 0.49517 0.17198 0.0
H283 H 0.24985 0.48802 0.19529 0.0
H284 H 0.24313 0.49842 0.1197 0.0
H285 H 0.26553 0.50948 0.15055 0.0
H286 H 0.29726 0.46462 0.02665 0.0
H287 H 0.29206 0.49618 0.05147 0.0
H288 H 0.27406 0.4818 1.00747 0.0
H289 H 0.22628 0.37716 0.32078 0.0
H290 H 0.18106 0.36405 0.19119 0.0
H291 H 0.20665 0.37402 0.09976 0.0
H292 H 0.26831 0.36019 0.24587 0.0
H293 H 0.28548 0.3826 0.25686 0.0
H294 H 0.28313 0.37218 0.17527 0.0
H295 H 0.23815 0.42826 0.2808 0.0
H296 H 0.26653 0.42519 0.28274 0.0
H297 H 0.25015 0.40515 0.32787 0.0
H298 H 0.32947 0.42684 0.24405 0.0
C299 C 0.30257 0.42574 0.19443 0.0
C300 C 0.07834 0.21282 0.48561 0.0
C301 C 0.07141 0.18993 0.49945 0.0
C302 C 0.0734 0.17234 0.44846 0.0
C303 C 0.08304 0.20279 0.3701 0.0
C304 C 0.08376 0.21906 0.42066 0.0
C305 C 0.08732 0.24409 0.39751 0.0
H306 H 0.05061 0.3302 0.24684 0.0
C307 C 0.08369 0.21639 0.30945 0.0
C308 C 0.08725 0.2403 0.32438 0.0
H309 H 0.09952 0.33104 0.37167 0.0
H310 H 0.11129 0.28848 0.34043 0.0
H311 H 0.09187 0.28932 0.13782 0.0
H312 H 0.03231 0.27696 0.26156 0.0
H313 H 0.03433 0.26595 0.1794 0.0
H314 H 0.03274 0.29797 0.19627 0.0
H315 H 0.06636 0.30191 0.11929 0.0
H316 H 0.07604 0.27063 0.09978 0.0
C317 C 0.10909 0.25074 0.41465 0.0
C318 C 0.06822 0.26201 0.42982 0.0
C319 C 0.05951 0.17728 0.11392 0.0
C320 C 0.05183 0.18625 0.05812 0.0
C321 C 0.04943 0.2117 0.05099 0.0
C322 C 0.05502 0.22773 0.09788 0.0
C323 C 0.06303 0.2183 0.15275 0.0
C324 C 0.06482 0.19342 0.16031 0.0
C325 C 0.07173 0.18646 0.22402 0.0
C326 C 0.07616 0.21096 0.25024 0.0
C327 C 0.07082 0.22979 0.20886 0.0
C328 C 0.0925 0.16895 0.21053 0.0
C329 C 0.05272 0.17556 0.26652 0.0
C330 C 0.06348 0.3211 0.26886 0.0
C331 C 0.07286 0.33327 0.31662 0.0
C332 C 0.09094 0.32155 0.33938 0.0
C333 C 0.09726 0.29711 0.32394 0.0
C334 C 0.08478 0.28436 0.28832 0.0
C335 C 0.07034 0.29628 0.25406 0.0
C336 C 0.06411 0.27875 0.20437 0.0
C337 C 0.07397 0.25424 0.22563 0.0
C338 C 0.08471 0.25841 0.27836 0.0
C339 C 0.07502 0.28545 0.13643 0.0
C340 C 0.03949 0.27995 0.21048 0.0
H341 H 0.08004 0.16491 0.34639 0.0
H342 H 0.07751 0.22631 0.52445 0.0
H343 H 0.05277 0.25637 0.41827 0.0
H344 H 0.06955 0.28079 0.41392 0.0
H345 H 0.06736 0.26288 0.48351 0.0
H346 H 0.11425 0.23984 0.45496 0.0
H347 H 0.10808 0.26988 0.43239 0.0
H348 H 0.12207 0.24758 0.37219 0.0
H349 H 0.06077 0.15799 0.1225 0.0
H350 H 0.04332 0.21922 0.00892 0.0
H351 H 0.0525 0.24683 0.09058 0.0
H352 H 0.10416 0.17586 0.17132 0.0
H353 H 0.08901 0.15066 0.19475 0.0
H354 H 0.10075 0.16703 0.25365 0.0
H355 H 0.03792 0.17667 0.24349 0.0
H356 H 0.04785 0.18546 0.31402 0.0
H357 H 0.05668 0.15604 0.27532 0.0
H358 H 0.06842 0.15438 0.45791 0.0
C359 C 0.07949 0.17863 0.38371 0.0
C360 C 0.32528 0.99025 0.11259 0.0
C361 C 0.34745 0.98227 0.09433 0.0
C362 C 0.35688 0.96457 0.13158 0.0
C363 C 0.32335 0.96336 0.20448 0.0
C364 C 0.31352 0.98064 0.16871 0.0
C365 C 0.29006 0.98696 0.19899 0.0
H366 H 0.2093 0.964 0.44765 0.0
C367 C 0.30763 0.95694 0.26 0.0
C368 C 0.28781 0.97061 0.25824 0.0
H369 H 0.20315 0.01564 0.29645 0.0
H370 H 0.24059 0.00458 0.24953 0.0
H371 H 0.23727 0.92159 0.36053 0.0
H372 H 0.25157 0.9803 0.47912 0.0
H373 H 0.27143 0.95669 0.4863 0.0
H374 H 0.24358 0.95253 0.51375 0.0
H375 H 0.23116 0.92313 0.44775 0.0
H376 H 0.25672 0.90972 0.40658 0.0
C377 C 0.27561 0.98027 0.14945 0.0
C378 C 0.28677 0.01407 0.21956 0.0
C379 C 0.3338 0.89677 0.41851 0.0
C380 C 0.32461 0.88934 0.47965 0.0
C381 C 0.30294 0.89676 0.50312 0.0
C382 C 0.29064 0.91177 0.46608 0.0
C383 C 0.30034 0.91998 0.4059 0.0
C384 C 0.32156 0.91233 0.38322 0.0
C385 C 0.32989 0.92435 0.32171 0.0
C386 C 0.3101 0.94045 0.31047 0.0
C387 C 0.29287 0.93767 0.35941 0.0
C388 C 0.33648 0.9042 0.26768 0.0
C389 C 0.34831 0.93941 0.33601 0.0
C390 C 0.21578 0.97347 0.40515 0.0
C391 C 0.20286 0.99098 0.37689 0.0
C392 C 0.21243 0.00194 0.3198 0.0
C393 C 0.23426 0.99563 0.29261 0.0
C394 C 0.24689 0.97821 0.32268 0.0
C395 C 0.23733 0.96767 0.37826 0.0
C396 C 0.25254 0.95017 0.40653 0.0
C397 C 0.27281 0.95115 0.35834 0.0
C398 C 0.2699 0.96761 0.3084 0.0
C399 C 0.24405 0.92478 0.40593 0.0
C400 C 0.2549 0.96018 0.47511 0.0
H401 H 0.35359 0.94162 0.21074 0.0
H402 H 0.3175 0.00377 0.08471 0.0
H403 H 0.2993 0.01866 0.24865 0.0
H404 H 0.27113 0.01903 0.25021 0.0
H405 H 0.28787 0.0256 0.17617 0.0
H406 H 0.28026 0.96134 0.13033 0.0
H407 H 0.27715 0.99256 0.10763 0.0
H408 H 0.25855 0.98127 0.17129 0.0
H409 H 0.35068 0.89195 0.40052 0.0
H410 H 0.29574 0.89147 0.55077 0.0
H411 H 0.27423 0.91691 0.48666 0.0
H412 H 0.32572 0.88937 0.27458 0.0
H413 H 0.35313 0.89597 0.26817 0.0
H414 H 0.33502 0.91071 0.21844 0.0
H415 H 0.34651 0.94492 0.38842 0.0
H416 H 0.34843 0.95681 0.31062 0.0
H417 H 0.36424 0.92888 0.32307 0.0
H418 H 0.3736 0.95771 0.11828 0.0
C419 C 0.34508 0.9551 0.18563 0.0
C420 C 0.49704 0.29023 0.0858 0.0
C421 C 0.48956 0.31482 0.07707 0.0
C422 C 0.47507 0.32723 0.12751 0.0
C423 C 0.48039 0.29399 0.19866 0.0
C424 C 0.4914 0.27981 0.14713 0.0
C425 C 0.49535 0.25367 0.16788 0.0
H426 H 0.50504 0.18175 0.43154 0.0
C427 C 0.48103 0.28067 0.25878 0.0
C428 C 0.48898 0.25636 0.24209 0.0
H429 H 0.50466 0.15462 0.23585 0.0
H430 H 0.50034 0.19642 0.19933 0.0
H431 H 0.5325 0.22292 0.39474 0.0
H432 H 0.4649 0.21861 0.4398 0.0
H433 H 0.47017 0.24496 0.48054 0.0
H434 H 0.48315 0.21601 0.49809 0.0
H435 H 0.51899 0.22622 0.47681 0.0
H436 H 0.52278 0.2521 0.42596 0.0
C437 C 0.5191 0.24412 0.14805 0.0
C438 C 0.48006 0.23854 0.13687 0.0
C439 C 0.48381 0.33179 0.46121 0.0
C440 C 0.49319 0.3262 0.51718 0.0
C441 C 0.49666 0.30157 0.53266 0.0
C442 C 0.49264 0.28314 0.49075 0.0
C443 C 0.48604 0.28913 0.43104 0.0
C444 C 0.48137 0.31313 0.41749 0.0
C445 C 0.47677 0.31629 0.34898 0.0
C446 C 0.47997 0.28996 0.32337 0.0
C447 C 0.48529 0.27436 0.37183 0.0
C448 C 0.49378 0.33193 0.31361 0.0
C449 C 0.45334 0.32776 0.35143 0.0
C450 C 0.50338 0.18438 0.381 0.0
C451 C 0.50443 0.16454 0.33757 0.0
C452 C 0.50356 0.16944 0.27118 0.0
C453 C 0.5007 0.19366 0.25009 0.0
C454 C 0.49838 0.21317 0.29585 0.0
C455 C 0.49988 0.20799 0.35997 0.0
C456 C 0.49692 0.23007 0.40355 0.0
C457 C 0.49128 0.24941 0.35703 0.0
C458 C 0.49286 0.24 0.29287 0.0
C459 C 0.51878 0.23305 0.42698 0.0
C460 C 0.47791 0.22738 0.45882 0.0
H461 H 0.45976 0.32729 0.22558 0.0
H462 H 0.50729 0.27981 0.04669 0.0
H463 H 0.46351 0.24791 0.14413 0.0
H464 H 0.47873 0.22066 0.1586 0.0
H465 H 0.4855 0.23583 0.08366 0.0
H466 H 0.52961 0.25628 0.16849 0.0
H467 H 0.52353 0.24323 0.09425 0.0
H468 H 0.52249 0.22571 0.16615 0.0
H469 H 0.47973 0.35037 0.44902 0.0
H470 H 0.50374 0.29618 0.57499 0.0
H471 H 0.49597 0.26489 0.50527 0.0
H472 H 0.51026 0.32323 0.31496 0.0
H473 H 0.49241 0.35029 0.33709 0.0
H474 H 0.49229 0.33488 0.26235 0.0
H475 H 0.44419 0.32887 0.40164 0.0
H476 H 0.44414 0.31679 0.3224 0.0
H477 H 0.45283 0.34653 0.33324 0.0
H478 H 0.46863 0.34577 0.12173 0.0
C479 C 0.4703 0.31681 0.18798 0.0
Dy480 Dy 1.00651 0.01191 0.69185 0.0
Dy481 Dy 0.03613 0.988 0.79243 0.0
C482 C 0.05902 0.00263 0.65032 0.0
O483 O 0.01539 0.97448 0.65006 0.0
O484 O 0.0221 0.95748 0.7453 0.0
O485 O 1.00131 0.0375 0.61747 0.0
O486 O 0.97556 0.01687 0.65895 0.0
O487 O 1.00309 0.99747 0.84894 0.0
O488 O 0.9839 0.99422 0.76616 0.0
O489 O 0.04188 0.02714 0.79512 0.0
O490 O 1.00937 0.04052 0.76774 0.0
O491 O 0.04413 0.9878 0.88992 0.0
O492 O 0.05762 0.95872 0.82093 0.0
C493 C 0.01844 0.9553 0.6849 0.0
O494 O 0.04011 0.01138 0.63665 0.0
O495 O 0.06123 0.9926 0.70626 0.0
C496 C 0.96775 0.05873 0.64483 0.0
C497 C 0.96447 0.10742 0.68508 0.0
C498 C 0.96491 0.10121 0.61906 0.0
C499 C 0.96678 0.07682 0.59884 0.0
C500 C 0.96282 0.06523 0.71146 0.0
C501 C 0.96107 0.0896 0.73153 0.0
C502 C 0.98071 0.03568 0.62537 0.0
C503 C 0.98484 0.99459 0.82863 0.0
C504 C 0.02645 0.04456 0.79382 0.0
C505 C 0.0389 0.94833 0.92252 0.0
C506 C 1.00077 0.92953 0.98017 0.0
C507 C 1.01152 0.92059 0.91902 0.0
C508 C 0.03049 0.92955 0.89117 0.0
C509 C 0.02952 0.95548 0.98642 0.0
C510 C 1.01068 0.94609 0.01512 0.0
C511 C 0.05186 0.96507 0.88241 0.0
H512 H 0.96756 0.11475 0.58241 0.0
H513 H 0.97053 0.07218 0.54729 0.0
H514 H 0.9634 0.05154 0.74798 0.0
H515 H 0.96049 0.09411 0.78269 0.0
H516 H 1.00458 0.90797 0.88993 0.0
H517 H 0.03727 0.92342 0.84206 0.0
H518 H 0.03564 0.9699 0.01188 0.0
H519 H 1.00337 0.95276 0.06332 0.0
Dy520 Dy 0.51558 0.97011 0.67374 0.0
Dy521 Dy 0.525 0.01519 0.76416 0.0
C522 C 0.51598 0.02339 0.61902 0.0
O523 O 0.55157 0.96848 0.66381 0.0
O524 O 0.55484 0.00814 0.68985 0.0
O525 O 0.49994 0.95691 0.59685 0.0
O526 O 0.52091 0.9322 0.6441 0.0
O527 O 0.53326 0.98149 0.81803 0.0
O528 O 0.51321 0.95528 0.77341 0.0
O529 O 0.49228 0.00632 0.80976 0.0
O530 O 0.48292 0.98678 0.72165 0.0
O531 O 0.54178 0.02915 0.8371 0.0
O532 O 0.51932 0.05323 0.794 0.0
C533 C 0.56318 0.98703 0.66305 0.0
O534 O 0.52249 1.00041 0.60585 0.0
O535 O 0.51096 0.03145 0.67969 0.0
C536 C 0.49022 0.91749 0.61298 0.0
C537 C 0.45506 0.88951 0.62368 0.0
C538 C 0.47011 0.88841 0.56622 0.0
C539 C 0.48755 0.90233 0.56097 0.0
C540 C 0.47591 0.91779 0.67156 0.0
C541 C 0.45847 0.90386 0.67693 0.0
C542 C 0.50686 0.93433 0.60419 0.0
C543 C 0.52411 0.96108 0.81927 0.0
C544 C 0.47774 0.99714 0.78022 0.0
C545 C 0.5502 0.06901 0.82203 0.0
C546 C 0.58535 0.09689 0.8165 0.0
C547 C 0.5682 0.10024 0.86849 0.0
C548 C 0.5508 0.08635 0.87123 0.0
C549 C 0.56649 0.06671 0.76784 0.0
C550 C 0.58396 0.08056 0.76508 0.0
C551 C 0.53408 0.05152 0.83151 0.0
H552 H 0.46778 0.87792 0.52389 0.0
H553 H 0.49843 0.902 0.51538 0.0
H554 H 0.47781 0.92946 0.71226 0.0
H555 H 0.44724 0.90497 0.72191 0.0
H556 H 0.56889 0.11235 0.90939 0.0
H557 H 0.53839 0.08824 0.91351 0.0
H558 H 0.56623 0.05338 0.72932 0.0
H559 H 0.59683 0.07769 0.72423 0.0
Dy560 Dy 0.53818 0.50857 0.79116 0.0
Dy561 Dy 0.50047 0.49131 0.69858 0.0
C562 C 0.5149 0.4585 0.81914 0.0
O563 O 0.55207 0.47419 0.73786 0.0
O564 O 0.53505 0.48591 0.656 0.0
O565 O 0.57042 0.51882 0.79305 0.0
O566 O 0.54725 0.52042 0.88182 0.0
O567 O 0.50233 0.53103 0.6842 0.0
O568 O 0.53678 0.53357 0.70627 0.0
O569 O 0.48041 0.51496 0.77604 0.0
O570 O 0.50646 0.52846 0.83283 0.0
O571 O 0.47266 0.47395 0.67842 0.0
O572 O 0.49517 0.48598 0.59904 0.0
C573 C 0.54773 0.46964 0.67979 0.0
O574 O 0.52658 0.47507 0.8382 0.0
O575 O 0.50511 0.46062 0.76728 0.0
C576 C 0.58447 0.51696 0.89422 0.0
C577 C 0.61663 0.50931 0.97579 0.0
C578 C 0.59965 0.49434 0.97915 0.0
C579 C 0.58369 0.49818 0.93901 0.0
C580 C 0.60168 0.5314 0.88956 0.0
C581 C 0.61751 0.52767 0.92969 0.0
C582 C 0.56688 0.52347 0.85578 0.0
C583 C 0.51969 0.5426 0.68199 0.0
C584 C 0.48642 0.52807 0.82226 0.0
C585 C 0.45974 0.48066 0.57672 0.0
C586 C 0.42735 0.48758 0.4956 0.0
C587 C 0.43706 0.50749 0.51761 0.0
C588 C 0.45317 0.50405 0.55748 0.0
C589 C 0.44983 0.46094 0.55582 0.0
C590 C 0.43393 0.4643 0.51581 0.0
C591 C 0.47748 0.47573 0.61552 0.0
H592 H 0.59833 0.4801 0.01417 0.0
H593 H 0.57055 0.48683 0.94394 0.0
H594 H 0.60264 0.54604 0.85562 0.0
H595 H 0.63047 0.53928 0.92462 0.0
H596 H 0.43252 0.52567 0.50291 0.0
H597 H 0.46061 0.51958 0.57268 0.0
H598 H 0.45455 0.44272 0.57001 0.0
H599 H 0.42665 0.44857 0.50113 0.0
Dy600 Dy 0.03556 0.53219 0.64496 0.0
Dy601 Dy 0.02001 0.49609 0.76046 0.0
C602 C 0.0382 0.47516 0.61588 0.0
O603 O 1.00258 0.524 0.62965 0.0
O604 O 0.99021 0.5165 0.73514 0.0
O605 O 0.03497 0.54381 0.54649 0.0
O606 O 0.05534 0.56004 0.60589 0.0
O607 O 0.02405 0.53205 0.80622 0.0
O608 O 0.0177 0.55741 0.72409 0.0
O609 O 0.05575 0.48932 0.75031 0.0
O610 O 0.06304 0.52521 0.70201 0.0
O611 O 0.01995 0.48383 0.85874 0.0
O612 O 0.99847 0.46994 0.79907 0.0
C613 C 0.98657 0.52099 0.67584 0.0
O614 O 0.04779 0.49501 0.60587 0.0
O615 O 0.02503 0.47228 0.66981 0.0
C616 C 0.0712 0.54332 0.50215 0.0
C617 C 0.09933 0.50401 0.44282 0.0
C618 C 0.10385 0.51612 0.49837 0.0
C619 C 0.09003 0.53567 0.52741 0.0
C620 C 0.06821 0.53331 0.44198 0.0
C621 C 0.08212 0.51377 0.41266 0.0
C622 C 0.05233 0.55474 0.54669 0.0
C623 C 0.01885 0.55376 0.78568 0.0
C624 C 0.06893 0.50597 0.73392 0.0
C625 C 0.98312 0.48653 0.90258 0.0
C626 C 0.95042 0.52336 0.95021 0.0
C627 C 0.97028 0.52209 0.97291 0.0
C628 C 0.98642 0.50376 0.9497 0.0
C629 C 0.96239 0.48615 0.88612 0.0
C630 C 0.94625 0.50449 0.90935 0.0
C631 C 1.00181 0.47444 0.85833 0.0
H632 H 0.11696 0.50925 0.52298 0.0
H633 H 0.09301 0.543 0.57346 0.0
H634 H 0.05391 0.53888 0.42114 0.0
H635 H 0.07859 0.50535 0.36863 0.0
H636 H 0.97396 0.53627 1.00479 0.0
H637 H 1.0021 0.50452 0.96407 0.0
H638 H 0.95916 0.47298 0.85061 0.0
H639 H 0.93084 0.50459 0.89265 0.0
H640 H 0.18487 0.99094 0.50754 0.0
H641 H 0.16759 0.00444 0.31608 0.0
H642 H 0.12939 0.01087 0.36544 0.0
H643 H 0.14171 0.95572 0.56082 0.0
H644 H 0.1381 0.96687 0.64407 0.0
H645 H 0.16411 0.96573 0.59464 0.0
H646 H 0.16541 0.01159 0.61833 0.0
H647 H 0.1394 0.01288 0.66794 0.0
H648 H 0.14388 0.03295 0.60095 0.0
H649 H 0.09231 0.01417 0.43669 0.0
H650 H 0.06046 0.01328 0.52107 0.0
H651 H 0.10199 0.99466 0.66445 0.0
C652 C 0.1732 0.99509 0.47534 0.0
C653 C 0.17965 0.997 0.40715 0.0
C654 C 0.16346 0.00314 0.36824 0.0
C655 C 0.14158 0.00666 0.39594 0.0
C656 C 0.1359 0.00394 0.46286 0.0
C657 C 0.15132 0.99827 0.50196 0.0
C658 C 0.14108 0.99525 0.57201 0.0
C659 C 0.14658 0.96935 0.59417 0.0
C660 C 0.14785 0.01431 0.61748 0.0
C661 C 0.11742 0.99987 0.56638 0.0
C662 C 0.11475 0.00512 0.50316 0.0
C663 C 0.09432 0.01008 0.48623 0.0
C664 C 0.07625 0.00955 0.53476 0.0
C665 C 0.07851 0.00384 0.59985 0.0
C666 C 0.09953 0.999 0.61539 0.0
H667 H 0.48593 0.14931 0.45669 0.0
H668 H 0.52714 0.12243 0.27909 0.0
H669 H 0.53285 0.08246 0.32906 0.0
H670 H 0.51872 0.12199 0.56354 0.0
H671 H 0.49658 0.11592 0.62446 0.0
H672 H 0.49374 0.14111 0.5718 0.0
H673 H 0.46042 0.12429 0.53553 0.0
H674 H 0.46311 0.09906 0.58826 0.0
H675 H 0.46255 0.09365 0.50285 0.0
H676 H 0.53546 0.04565 0.40288 0.0
H677 H 0.53542 0.01655 0.49188 0.0
H678 H 0.49488 0.06943 0.62308 0.0
C679 C 0.49626 0.13516 0.42785 0.0
C680 C 0.50624 0.13936 0.36366 0.0
C681 C 0.51911 0.11983 0.32788 0.0
C682 C 0.52256 0.09706 0.35616 0.0
C683 C 0.51307 0.094 0.4204 0.0
C684 C 0.50017 0.11263 0.45562 0.0
C685 C 0.49283 0.1055 0.52498 0.0
C686 C 0.50096 0.12212 0.57407 0.0
C687 C 0.46827 0.10563 0.53869 0.0
C688 C 0.50376 0.07994 0.52392 0.0
C689 C 0.51514 0.07345 0.46298 0.0
C690 C 0.52655 0.05063 0.45058 0.0
C691 C 0.52639 0.03417 0.50156 0.0
C692 C 0.51516 0.04062 0.56474 0.0
C693 C 0.50368 0.06387 0.57557 0.0
H694 H 0.36066 0.44623 0.22245 0.0
H695 H 0.31267 0.50631 0.28622 0.0
H696 H 0.33655 0.52146 0.35876 0.0
H697 H 0.37379 0.43374 0.37534 0.0
H698 H 0.40195 0.42539 0.34785 0.0
H699 H 0.38278 0.42168 0.29371 0.0
H700 H 0.40336 0.44816 0.20889 0.0
H701 H 0.42277 0.45176 0.26254 0.0
H702 H 0.40883 0.47813 0.23273 0.0
H703 H 0.3647 0.52732 0.43421 0.0
H704 H 0.39377 0.52363 0.50189 0.0
H705 H 0.42225 0.45859 0.39077 0.0
C706 C 0.35519 0.46279 0.25089 0.0
C707 C 0.3346 0.475 0.24843 0.0
C708 C 0.32839 0.49676 0.28625 0.0
C709 C 0.34183 0.50539 0.3281 0.0
C710 C 0.36156 0.49218 0.3315 0.0
C711 C 0.36825 0.47144 0.29324 0.0
C712 C 0.38933 0.45941 0.30889 0.0
C713 C 0.3868 0.43353 0.33288 0.0
C714 C 0.40713 0.45937 0.24974 0.0
C715 C 0.39332 0.47622 0.36315 0.0
C716 C 0.37731 0.49523 0.3751 0.0
C717 C 0.37737 0.51261 0.42456 0.0
C718 C 0.39404 0.51041 0.46274 0.0
C719 C 0.41042 0.4908 0.45209 0.0
C720 C 0.40997 0.4737 0.40092 0.0
H721 H 0.06197 0.34295 0.44607 0.0
H722 H 0.06347 0.37695 0.25953 0.0
H723 H 0.05273 0.41708 0.3166 0.0
H724 H 0.01621 0.38192 0.53474 0.0
H725 H 0.02787 0.3819 0.60864 0.0
H726 H 0.03363 0.35608 0.55272 0.0
H727 H 0.07436 0.35981 0.54676 0.0
H728 H 0.06877 0.38576 0.60206 0.0
H729 H 0.08485 0.3881 0.52355 0.0
H730 H 0.04512 0.45372 0.3953 0.0
H731 H 0.04048 0.48365 0.48709 0.0
H732 H 0.04261 0.42519 0.62271 0.0
C733 C 0.05966 0.35881 0.41719 0.0
C734 C 0.06349 0.35693 0.34835 0.0
C735 C 0.06038 0.37802 0.3122 0.0
C736 C 0.05439 0.40082 0.34431 0.0
C737 C 0.05131 0.40207 0.41242 0.0
C738 C 0.05362 0.38152 0.44834 0.0
C739 C 0.05039 0.38765 0.52075 0.0
C740 C 0.03086 0.37621 0.5563 0.0
C741 C 0.07081 0.37987 0.54997 0.0
C742 C 0.04623 0.41502 0.52041 0.0
C743 C 0.04681 0.42299 0.45745 0.0
C744 C 0.0445 0.44761 0.44464 0.0
C745 C 0.04198 0.46448 0.4971 0.0
C746 C 0.04114 0.45671 0.56196 0.0
C747 C 0.04301 0.43162 0.57369 0.0
H748 H 0.85894 0.98942 0.94507 0.0
H749 H 0.86967 0.00333 0.1427 0.0
H750 H 0.90897 0.99876 0.10513 0.0
H751 H 0.90776 0.9459 0.89497 0.0
H752 H 0.91177 0.95752 0.81403 0.0
H753 H 0.88502 0.95793 0.85868 0.0
H754 H 0.87895 0.00422 0.8424 0.0
H755 H 0.90573 0.00404 0.79862 0.0
H756 H 0.89724 0.02392 0.86916 0.0
H757 H 0.9471 0.9986 0.04183 0.0
H758 H 0.98021 0.99909 0.96213 0.0
H759 H 0.94414 0.98655 0.80521 0.0
C760 C 0.86954 0.99098 0.98088 0.0
C761 C 0.86108 0.99679 0.0471 0.0
C762 C 0.87563 0.9986 0.09206 0.0
C763 C 0.89802 0.99622 0.07091 0.0
C764 C 0.90571 0.99179 1.00465 0.0
C765 C 0.89184 0.98876 0.96055 0.0
C766 C 0.90388 0.98562 0.8915 0.0
C767 C 0.90199 0.96023 0.86313 0.0
C768 C 0.89598 0.00564 0.84788 0.0
C769 C 0.92665 0.9883 0.90298 0.0
C770 C 0.92745 0.99159 0.96861 0.0
C771 C 0.94663 0.99561 0.99053 0.0
C772 C 0.96541 0.99595 0.94466 0.0
C773 C 0.96497 0.99284 0.87699 0.0
C774 C 0.94521 0.98884 0.85638 0.0
H775 H 0.51213 0.83682 1.00583 0.0
H776 H 0.53255 0.87103 0.17252 0.0
H777 H 0.53708 0.90838 0.11038 0.0
H778 H 0.54679 0.86353 0.88137 0.0
H779 H 0.52703 0.86727 0.82745 0.0
H780 H 0.52613 0.84309 0.88435 0.0
H781 H 0.4869 0.85859 0.93178 0.0
H782 H 0.48766 0.88275 0.87481 0.0
H783 H 0.48071 0.88969 0.96082 0.0
H784 H 0.53935 0.94249 0.0281 0.0
H785 H 0.53783 0.97011 0.93616 0.0
H786 H 0.51388 0.91388 0.82699 0.0
C787 C 0.51722 0.85218 0.03021 0.0
C788 C 0.52183 0.85075 0.09485 0.0
C789 C 0.5291 0.87134 0.12312 0.0
C790 C 0.53162 0.89276 0.08821 0.0
C791 C 0.52673 0.89349 0.02495 0.0
C792 C 0.51957 0.87373 0.99647 0.0
C793 C 0.51498 0.87915 0.92838 0.0
C794 C 0.52961 0.86225 0.87739 0.0
C795 C 0.49115 0.87745 0.9237 0.0
C796 C 0.52064 0.90511 0.92278 0.0
C797 C 0.52755 0.91306 0.97871 0.0
C798 C 0.53389 0.9364 0.98425 0.0
C799 C 0.53302 0.95197 0.93161 0.0
C800 C 0.52568 0.9443 0.87416 0.0
C801 C 0.51947 0.92046 0.87014 0.0
H802 H 0.69945 0.55465 0.19566 0.0
H803 H 0.72237 0.4794 0.21829 0.0
H804 H 0.69431 0.46643 0.1577 0.0
H805 H 0.64265 0.54684 0.20671 0.0
H806 H 0.63864 0.56883 0.14568 0.0
H807 H 0.65913 0.57175 0.19594 0.0
H808 H 0.68761 0.57239 0.09264 0.0
H809 H 0.66725 0.56935 0.04208 0.0
H810 H 0.69074 0.54779 0.03304 0.0
H811 H 0.66444 0.46207 0.08715 0.0
H812 H 0.63642 0.46675 0.01584 0.0
H813 H 0.63446 0.54502 0.03757 0.0
C814 C 0.69867 0.53538 0.18816 0.0
C815 C 0.71338 0.51808 0.21183 0.0
C816 C 0.71128 0.49308 0.20155 0.0
C817 C 0.69542 0.48554 0.16669 0.0
C818 C 0.68167 0.50318 0.14241 0.0
C819 C 0.68316 0.5276 0.15313 0.0
C820 C 0.66725 0.54312 0.11983 0.0
C821 C 0.65095 0.55854 0.17004 0.0
C822 C 0.67891 0.5591 0.06888 0.0
C823 C 0.65666 0.52369 0.0878 0.0
C824 C 0.66501 0.50073 0.10168 0.0
C825 C 0.65778 0.48 0.07647 0.0
C826 C 0.64175 0.48285 0.0361 0.0
C827 C 0.63316 0.50626 0.02058 0.0
C828 C 0.64078 0.52684 0.04749 0.0
H829 H 0.95473 0.65995 0.01858 0.0
H830 H 0.01499 0.67329 0.08348 0.0
H831 H 0.03319 0.63914 0.01302 0.0
H832 H 0.96231 0.59683 0.99601 0.0
H833 H 0.95172 0.59589 0.92043 0.0
H834 H 0.94221 0.62022 0.97903 0.0
H835 H 0.95226 0.65225 0.89502 0.0
H836 H 0.96101 0.62835 0.83436 0.0
H837 H 0.97906 0.65031 0.85005 0.0
H838 H 0.04479 0.60231 0.93562 0.0
H839 H 0.04902 0.56872 0.85281 0.0
H840 H 0.98272 0.58461 0.82601 0.0
C841 C 0.97183 0.65643 0.01781 0.0
C842 C 0.98314 0.67 0.05775 0.0
C843 C 1.00549 0.6633 0.05535 0.0
C844 C 0.01615 0.64395 0.01459 0.0
C845 C 1.0045 0.63168 0.9749 0.0
C846 C 0.9829 0.63797 0.9755 0.0
C847 C 0.97424 0.62314 0.92511 0.0
C848 C 0.95658 0.60813 0.95722 0.0
C849 C 0.96617 0.63949 0.87305 0.0
C850 C 0.99423 0.60701 0.897 0.0
C851 C 1.01151 0.61202 0.92684 0.0
C852 C 0.03144 0.59855 0.91136 0.0
C853 C 0.03371 0.57955 0.86438 0.0
C854 C 0.01631 0.57454 0.83245 0.0
C855 C 0.99638 0.58852 0.84876 0.0
H856 H 0.07216 0.15057 0.57737 0.0
H857 H 0.03817 0.22096 0.55799 0.0
H858 H 1.00828 0.21067 0.63873 0.0
H859 H 0.03413 0.11822 0.57083 0.0
H860 H 0.03883 0.09613 0.63115 0.0
H861 H 0.06048 0.11195 0.59334 0.0
H862 H 0.06737 0.12763 0.70657 0.0
H863 H 0.04611 0.11055 0.74317 0.0
H864 H 0.04533 0.1425 0.76273 0.0
H865 H 0.97818 0.18821 0.68134 0.0
H866 H 0.9527 0.1567 0.69343 0.0
H867 H 1.00548 0.10173 0.69737 0.0
C868 C 0.0589 0.16418 0.59318 0.0
C869 C 0.0575 0.18648 0.56183 0.0
C870 C 0.03979 0.20388 0.58226 0.0
C871 C 0.02265 0.19818 0.62827 0.0
C872 C 0.02367 0.17526 0.65481 0.0
C873 C 0.04174 0.15879 0.63988 0.0
C874 C 0.03748 0.1341 0.666 0.0
C875 C 0.04302 0.11397 0.61209 0.0
C876 C 0.04978 0.1284 0.72306 0.0
C877 C 0.01355 0.13841 0.68942 0.0
C878 C 1.00592 0.16247 0.68464 0.0
C879 C 0.98393 0.16962 0.68899 0.0
C880 C 0.96951 0.1517 0.69574 0.0
C881 C 0.97723 0.12714 0.69916 0.0
C882 C 0.99929 0.12067 0.6989 0.0
H883 H 0.33518 0.90873 0.58823 0.0
H884 H 0.34787 0.84518 0.4598 0.0
H885 H 0.37989 0.83207 0.50972 0.0
H886 H 0.38353 0.92404 0.56373 0.0
H887 H 0.38536 0.93561 0.64406 0.0
H888 H 0.35963 0.93513 0.61869 0.0
H889 H 0.34669 0.90977 0.71797 0.0
H890 H 0.3725 0.91041 0.74432 0.0
H891 H 0.36197 0.88179 0.7324 0.0
H892 H 0.41458 0.83187 0.54957 0.0
H893 H 0.44888 0.84496 0.57301 0.0
H894 H 0.41489 0.91005 0.67145 0.0
C895 C 0.34399 0.89128 0.57397 0.0
C896 C 0.3389 0.87752 0.52188 0.0
C897 C 0.35133 0.8555 0.50104 0.0
C898 C 0.36951 0.84797 0.52921 0.0
C899 C 0.37503 0.86277 0.57784 0.0
C900 C 0.36246 0.88391 0.60064 0.0
C901 C 0.37407 0.89928 0.64215 0.0
C902 C 0.37576 0.92499 0.61548 0.0
C903 C 0.36316 0.90036 0.71345 0.0
C904 C 0.39575 0.88462 0.63439 0.0
C905 C 0.39574 0.86316 0.59937 0.0
C906 C 0.41464 0.84827 0.57854 0.0
C907 C 0.43409 0.85595 0.59158 0.0
C908 C 0.43454 0.8785 0.62421 0.0
C909 C 0.415 0.8924 0.64814 0.0
H910 H 0.50648 0.36975 0.47135 0.0
H911 H 0.50035 0.32707 0.64614 0.0
H912 H 0.51993 0.35616 0.69853 0.0
H913 H 0.55674 0.39168 0.47725 0.0
H914 H 0.54845 0.4219 0.45393 0.0
H915 H 0.53606 0.39639 0.42667 0.0
H916 H 0.49841 0.41643 0.477 0.0
H917 H 0.51052 0.44228 0.50307 0.0
H918 H 0.49363 0.42607 0.56154 0.0
H919 H 0.54207 0.3891 0.72952 0.0
H920 H 0.55489 0.42885 0.74966 0.0
H921 H 0.53993 0.45272 0.56275 0.0
C922 C 0.50867 0.36639 0.52106 0.0
C923 C 0.50207 0.34544 0.55345 0.0
C924 C 0.50585 0.34227 0.61859 0.0
C925 C 0.51698 0.35876 0.64908 0.0
C926 C 0.52376 0.37867 0.61453 0.0
C927 C 0.51899 0.38299 0.55296 0.0
C928 C 0.52557 0.40723 0.52919 0.0
C929 C 0.54273 0.40409 0.46814 0.0
C930 C 0.50587 0.424 0.51699 0.0
C931 C 0.5348 0.41594 0.58723 0.0
C932 C 0.5343 0.39886 0.63504 0.0
C933 C 0.54219 0.40277 0.69289 0.0
C934 C 0.54945 0.42539 0.70385 0.0
C935 C 0.54761 0.4441 0.65878 0.0
C936 C 0.54126 0.43884 0.59839 0.0
H937 H 0.20067 0.40927 0.3536 0.0
H938 H 0.15911 0.35888 0.2883 0.0
H939 H 0.12753 0.38599 0.33833 0.0
H940 H 0.16342 0.43279 0.50817 0.0
H941 H 0.17209 0.46264 0.49487 0.0
H942 H 0.19058 0.43612 0.47111 0.0
H943 H 0.19783 0.45242 0.35477 0.0
H944 H 0.17872 0.47834 0.37654 0.0
H945 H 0.17579 0.45836 0.30979 0.0
H946 H 0.10147 0.42316 0.37041 0.0
H947 H 0.08293 0.46404 0.39748 0.0
H948 H 0.14223 0.48949 0.43932 0.0
C949 C 0.18509 0.40288 0.35272 0.0
C950 C 0.18259 0.38188 0.31579 0.0
C951 C 0.16159 0.375 0.31528 0.0
C952 C 0.14351 0.39031 0.34367 0.0
C953 C 0.14674 0.41211 0.37369 0.0
C954 C 0.16706 0.41797 0.3802 0.0
C955 C 0.16667 0.44369 0.40647 0.0
C956 C 0.17359 0.44381 0.4742 0.0
C957 C 0.18056 0.45907 0.35904 0.0
C958 C 0.14312 0.45192 0.41039 0.0
C959 C 0.13179 0.43343 0.39219 0.0
C960 C 0.11012 0.43752 0.38645 0.0
C961 C 0.09976 0.4609 0.4012 0.0
C962 C 0.11098 0.47996 0.42149 0.0
C963 C 0.13301 0.47526 0.42556 0.0
H964 H 0.91334 0.8387 0.05276 0.0
H965 H 0.87474 0.89408 0.18114 0.0
H966 H 0.89766 0.92466 0.13226 0.0
H967 H 0.95852 0.85257 0.07739 0.0
H968 H 0.97372 0.84738 0.997 0.0
H969 H 0.9505 0.83161 0.02039 0.0
H970 H 0.9327 0.84819 0.9242 0.0
H971 H 0.95644 0.8631 0.89709 0.0
H972 H 0.93049 0.88034 0.91056 0.0
H973 H 0.93062 0.94605 0.09286 0.0
H974 H 0.96718 0.95721 0.05602 0.0
H975 H 0.98433 0.88621 0.9609 0.0
C976 C 0.9086 0.85736 0.06856 0.0
C977 C 0.89246 0.8636 0.12268 0.0
C978 C 0.88735 0.88852 0.14106 0.0
C979 C 0.90029 0.90611 0.11334 0.0
C980 C 0.91784 0.89858 0.06599 0.0
C981 C 0.92152 0.87486 0.04219 0.0
C982 C 0.94319 0.87009 0.99984 0.0
C983 C 0.95728 0.84921 0.02528 0.0
C984 C 0.94054 0.86515 0.92869 0.0
C985 C 0.9519 0.89419 1.00783 0.0
C986 C 0.93692 0.9107 0.04437 0.0
C987 C 0.94223 0.93342 0.06276 0.0
C988 C 0.96321 0.93946 0.04236 0.0
C989 C 0.97878 0.92276 1.00453 0.0
C990 C 0.97283 0.89982 0.98769 0.0
H991 H 0.69887 0.07703 0.91025 0.0
H992 H 0.68349 0.14579 0.01656 0.0
H993 H 0.65521 0.157 0.94971 0.0
H994 H 0.68143 0.0981 0.7465 0.0
H995 H 0.67046 0.06959 0.73705 0.0
H996 H 0.69412 0.07071 0.77522 0.0
H997 H 0.67526 0.05014 0.87618 0.0
H998 H 0.65166 0.04913 0.83887 0.0
H999 H 0.6498 0.06389 0.91774 0.0
H1000 H 0.6234 0.15612 0.89454 0.0
H1001 H 0.59078 0.14294 0.85863 0.0
H1002 H 0.62574 0.07394 0.79079 0.0
C1003 C 0.69039 0.09503 0.91646 0.0
C1004 C 0.69355 0.11079 0.96733 0.0
C1005 C 0.68148 0.13371 0.97689 0.0
C1006 C 0.66545 0.14021 0.93897 0.0
C1007 C 0.66171 0.12359 0.89173 0.0
C1008 C 0.67406 0.10151 0.87979 0.0
C1009 C 0.66422 0.08486 0.83657 0.0
C1010 C 0.6784 0.08057 0.76986 0.0
C1011 C 0.65997 0.06062 0.86936 0.0
C1012 C 0.64353 0.10015 0.83073 0.0
C1013 C 0.64274 0.12277 0.86073 0.0
C1014 C 0.62407 0.13874 0.86934 0.0
C1015 C 0.60556 0.13105 0.84921 0.0
C1016 C 0.60576 0.10745 0.82167 0.0
C1017 C 0.62526 0.09233 0.80985 0.0
H1018 H 0.46425 0.62641 0.09452 0.0
H1019 H 0.44941 0.67441 0.94133 0.0
H1020 H 0.44118 0.63941 0.87821 0.0
H1021 H 0.49676 0.58864 0.99454 0.0
H1022 H 0.49141 0.56102 0.03608 0.0
H1023 H 0.48699 0.58942 0.0807 0.0
H1024 H 0.4475 0.58143 0.12034 0.0
H1025 H 0.45187 0.5528 0.07536 0.0
H1026 H 0.43036 0.5749 0.06179 0.0
H1027 H 0.44302 0.59943 0.8208 0.0
H1028 H 0.45948 0.56021 0.76975 0.0
H1029 H 0.4796 0.53871 0.95182 0.0
C1030 C 0.45879 0.62971 0.04831 0.0
C1031 C 0.45772 0.6532 0.02273 0.0
C1032 C 0.45011 0.6567 0.96264 0.0
C1033 C 0.44537 0.63683 0.92635 0.0
C1034 C 0.44842 0.6136 0.95062 0.0
C1035 C 0.45506 0.61001 0.01042 0.0
C1036 C 0.46247 0.58363 0.01894 0.0
C1037 C 0.48577 0.58053 0.0333 0.0
C1038 C 0.44712 0.57254 0.07226 0.0
C1039 C 0.46071 0.57324 0.95253 0.0
C1040 C 0.45134 0.59045 0.91522 0.0
C1041 C 0.44993 0.58571 0.84999 0.0
C1042 C 0.45931 0.5634 0.82136 0.0
C1043 C 0.47069 0.54668 0.85732 0.0
C1044 C 0.47062 0.5512 0.9241 0.0
H1045 H 0.87578 0.61981 0.18027 0.0
H1046 H 0.84528 0.64272 0.01454 0.0
H1047 H 0.87441 0.61882 0.94193 0.0
H1048 H 0.93309 0.61564 0.0956 0.0
H1049 H 0.93996 0.58896 0.13947 0.0
H1050 H 0.92017 0.61244 0.1777 0.0
H1051 H 0.89278 0.58153 0.20339 0.0
H1052 H 0.91149 0.55735 0.16522 0.0
H1053 H 0.88576 0.56332 0.13854 0.0
H1054 H 0.90119 0.58439 0.89215 0.0
H1055 H 0.92691 0.54786 0.86709 0.0
H1056 H 0.93879 0.5481 0.06712 0.0
C1057 C 0.87543 0.62125 0.12876 0.0
C1058 C 0.85751 0.63283 0.10407 0.0
C1059 C 0.85831 0.63349 0.03554 0.0
C1060 C 0.87492 0.62002 0.99366 0.0
C1061 C 0.89094 0.60663 0.02088 0.0
C1062 C 0.89171 0.60791 0.0868 0.0
C1063 C 0.90877 0.58958 0.10583 0.0
C1064 C 0.92657 0.60241 0.13104 0.0
C1065 C 0.8991 0.57192 0.15614 0.0
C1066 C 0.91672 0.57682 0.04086 0.0
C1067 C 0.90642 0.58699 0.99224 0.0
C1068 C 0.90967 0.57666 0.92954 0.0
C1069 C 0.92406 0.5557 0.91606 0.0
C1070 C 0.93484 0.54515 0.96528 0.0
C1071 C 0.9311 0.556 0.02825 0.0
H1072 H 0.07333 0.14251 0.00955 0.0
H1073 H 0.01592 0.1905 0.99791 0.0
H1074 H 1.00398 0.16035 0.92551 0.0
H1075 H 0.08066 0.11879 0.84008 0.0
H1076 H 0.0902 0.08876 0.86155 0.0
H1077 H 0.09481 0.11481 0.90877 0.0
H1078 H 0.07628 0.09603 0.01335 0.0
H1079 H 0.0715 0.07004 0.96638 0.0
H1080 H 0.04938 0.08748 0.01634 0.0
H1081 H 0.9968 0.12322 0.86197 0.0
H1082 H 0.99607 0.08353 0.80721 0.0
H1083 H 0.0587 0.06001 0.85656 0.0
C1084 C 0.0583 0.14677 0.99145 0.0
C1085 C 0.04556 0.16898 0.00968 0.0
C1086 C 0.0261 0.17384 0.98426 0.0
C1087 C 0.01912 0.15672 0.94334 0.0
C1088 C 0.03187 0.13485 0.92747 0.0
C1089 C 0.0512 0.12999 0.95004 0.0
C1090 C 0.06176 0.10498 0.92643 0.0
C1091 C 0.08313 0.10696 0.88154 0.0
C1092 C 0.06491 0.08867 0.98406 0.0
C1093 C 0.04508 0.09621 0.88865 0.0
C1094 C 0.02798 0.11375 0.88972 0.0
C1095 C 1.01025 0.10952 0.8603 0.0
C1096 C 1.01 0.08687 0.82897 0.0
C1097 C 0.02742 0.06865 0.82631 0.0
C1098 C 0.0452 0.07355 0.85678 0.0
H1099 H 0.38622 1.0005 0.0925 0.0
H1100 H 0.34166 0.98157 0.96557 0.0
H1101 H 0.3694 0.98596 0.86949 0.0
H1102 H 0.41402 0.04456 0.98366 0.0
H1103 H 0.43962 0.0349 1.00744 0.0
H1104 H 0.41529 0.03355 0.06421 0.0
H1105 H 0.42583 0.98788 0.07901 0.0
H1106 H 0.44999 0.98897 0.02164 0.0
H1107 H 0.43122 0.96751 0.00867 0.0
H1108 H 0.40444 0.98676 0.78797 0.0
H1109 H 0.44142 0.98768 0.7295 0.0
H1110 H 0.46272 0.00682 0.91068 0.0
C1111 C 0.38204 0.99811 0.04434 0.0
C1112 C 0.36158 0.99102 0.03662 0.0
C1113 C 0.35696 0.98754 0.97278 0.0
C1114 C 0.37276 0.98975 0.91795 0.0
C1115 C 0.39309 0.99574 0.92756 0.0
C1116 C 0.39756 1.00033 0.98937 0.0
C1117 C 0.4209 0.00509 0.98747 0.0
C1118 C 0.42255 0.03107 0.01215 0.0
C1119 C 0.43267 0.98624 0.0265 0.0
C1120 C 0.42912 0.00197 0.9151 0.0
C1121 C 0.41288 0.99658 0.88117 0.0
C1122 C 0.41709 0.99143 0.81418 0.0
C1123 C 0.43824 0.99192 0.78128 0.0
C1124 C 0.45512 0.99763 0.81497 0.0
C1125 C 0.45025 0.00283 0.8829 0.0
H1126 H 0.46816 0.34154 0.9914 0.0
H1127 H 0.53124 0.32313 0.04357 0.0
H1128 H 0.54503 0.35672 0.978 0.0
H1129 H 0.48896 0.3608 0.81904 0.0
H1130 H 0.46715 0.38436 0.82218 0.0
H1131 H 0.46313 0.35677 0.86529 0.0
H1132 H 0.44994 0.3823 0.9717 0.0
H1133 H 0.45443 0.40988 0.92942 0.0
H1134 H 0.46716 0.40304 0.99972 0.0
H1135 H 0.54981 0.39712 0.92724 0.0
H1136 H 0.54769 0.43662 0.87448 0.0
H1137 H 0.48277 0.42729 0.84267 0.0
C1138 C 0.4851 0.34392 0.98641 0.0
C1139 C 0.49874 0.32941 0.02182 0.0
C1140 C 0.52066 0.33354 0.0157 0.0
C1141 C 0.52856 0.3528 0.9791 0.0
C1142 C 0.5145 0.36745 0.9473 0.0
C1143 C 0.49341 0.36271 0.94845 0.0
C1144 C 0.48156 0.38177 0.91143 0.0
C1145 C 0.4748 0.37023 0.85089 0.0
C1146 C 0.46213 0.39502 0.95573 0.0
C1147 C 0.49893 0.39864 0.89232 0.0
C1148 C 0.51775 0.39006 0.91399 0.0
C1149 C 0.53537 0.40361 0.90834 0.0
C1150 C 0.53392 0.42621 0.87881 0.0
C1151 C 0.51518 0.43502 0.85353 0.0
C1152 C 0.49747 0.42088 0.86029 0.0
H1153 H 0.15609 0.46612 0.96409 0.0
H1154 H 0.20037 0.50963 0.84858 0.0
H1155 H 0.17234 0.52173 0.78111 0.0
H1156 H 0.1336 0.44296 0.83066 0.0
H1157 H 0.10696 0.44329 0.87599 0.0
H1158 H 0.12997 0.43945 0.91754 0.0
H1159 H 0.11463 0.47639 0.99399 0.0
H1160 H 0.09152 0.48027 0.95292 0.0
H1161 H 0.10761 0.50513 0.95942 0.0
H1162 H 0.13901 0.52837 0.72428 0.0
H1163 H 0.10401 0.52926 0.6849 0.0
H1164 H 0.08263 0.47913 0.83349 0.0
C1165 C 0.16015 0.47803 0.92432 0.0
C1166 C 0.18078 0.48669 0.91179 0.0
C1167 C 0.1848 0.50284 0.86007 0.0
C1168 C 0.16896 0.50968 0.82102 0.0
C1169 C 0.14909 0.50022 0.83389 0.0
C1170 C 0.14468 0.48476 0.88448 0.0
C1171 C 0.12229 0.47662 0.88766 0.0
C1172 C 0.12328 0.44894 0.87734 0.0
C1173 C 0.10818 0.48512 0.95233 0.0
C1174 C 0.1147 0.48982 0.83072 0.0
C1175 C 0.13032 0.50349 0.80053 0.0
C1176 C 0.12676 0.51765 0.7476 0.0
C1177 C 0.10678 0.51802 0.72548 0.0
C1178 C 0.09051 0.50413 0.75557 0.0
C1179 C 0.09474 0.48971 0.80867 0.0
H1180 H 0.98897 0.86145 0.42465 0.0
H1181 H 1.00578 0.80288 0.54882 0.0
H1182 H 0.0175 0.83267 0.62355 0.0
H1183 H 0.0326 0.89839 0.44769 0.0
H1184 H 0.01574 0.92643 0.44655 0.0
H1185 H 1.01073 0.90013 0.40108 0.0
H1186 H 0.97156 0.90355 0.46108 0.0
H1187 H 0.97649 0.92968 0.50715 0.0
H1188 H 0.96665 0.90373 0.54878 0.0
H1189 H 0.02406 0.87017 0.68989 0.0
H1190 H 0.02708 0.91073 0.73727 0.0
H1191 H 1.00594 0.94417 0.56775 0.0
C1192 C 0.99538 0.85481 0.46717 0.0
C1193 C 0.9964 0.82983 0.4811 0.0
C1194 C 1.00501 0.82188 0.53696 0.0
C1195 C 1.01158 0.83872 0.57978 0.0
C1196 C 1.00965 0.86336 0.56555 0.0
C1197 C 1.002 0.87127 0.50998 0.0
C1198 C 1.00072 0.89866 0.50637 0.0
C1199 C 0.01585 0.90635 0.4469 0.0
C1200 C 0.97748 0.90953 0.50583 0.0
C1201 C 1.00848 0.90515 0.56922 0.0
C1202 C 0.0136 0.8846 0.60281 0.0
C1203 C 0.02031 0.88629 0.66348 0.0
C1204 C 0.02192 0.90948 0.69016 0.0
C1205 C 0.01686 0.93077 0.6563 0.0
C1206 C 1.01012 0.92836 0.59488 0.0
H1207 H 0.67188 0.03147 0.47087 0.0
H1208 H 0.69339 0.95586 0.42073 0.0
H1209 H 0.66125 0.94368 0.49082 0.0
H1210 H 0.64736 0.02236 0.64096 0.0
H1211 H 0.62544 0.0453 0.63761 0.0
H1212 H 0.65121 0.04788 0.58924 0.0
H1213 H 0.63324 0.05094 0.48537 0.0
H1214 H 0.60747 0.04824 0.53333 0.0
H1215 H 0.61727 0.02735 0.46568 0.0
H1216 H 0.62454 0.93996 0.55746 0.0
H1217 H 0.58784 0.94482 0.61926 0.0
H1218 H 0.59003 0.02291 0.62689 0.0
C1219 C 0.67004 0.01229 0.47519 0.0
C1220 C 0.6854 0.99463 0.4399 0.0
C1221 C 0.68221 0.96977 0.44766 0.0
C1222 C 0.66385 0.96268 0.48713 0.0
C1223 C 0.64876 0.98059 0.51942 0.0
C1224 C 0.65182 0.00491 0.51455 0.0
C1225 C 0.63277 0.02064 0.552 0.0
C1226 C 0.63961 0.03488 0.60829 0.0
C1227 C 0.62206 0.0378 0.50636 0.0
C1228 C 0.61824 1.00145 0.5774 0.0
C1229 C 0.62781 0.97845 0.55828 0.0
C1230 C 0.61708 0.95789 0.57328 0.0
C1231 C 0.59612 0.96085 0.60839 0.0
C1232 C 0.5859 0.98423 0.62863 0.0
C1233 C 0.59735 0.00474 0.6131 0.0
H1234 H 0.56409 0.64363 0.44018 0.0
H1235 H 0.50134 0.68391 0.48621 0.0
H1236 H 0.49091 0.65469 0.57098 0.0
H1237 H 0.54715 0.58642 0.45116 0.0
H1238 H 0.56902 0.57244 0.4881 0.0
H1239 H 0.57293 0.59837 0.43824 0.0
H1240 H 0.58544 0.62141 0.53283 0.0
H1241 H 0.58192 0.59537 0.58284 0.0
H1242 H 0.56855 0.62464 0.61102 0.0
H1243 H 0.48513 0.61722 0.6362 0.0
H1244 H 0.48608 0.57741 0.68809 0.0
H1245 H 0.55312 0.56202 0.60528 0.0
C1246 C 0.54838 0.64674 0.46954 0.0
C1247 C 0.53358 0.66626 0.45668 0.0
C1248 C 0.51311 0.66947 0.49581 0.0
C1249 C 0.50697 0.65279 0.54373 0.0
C1250 C 0.52159 0.63314 0.55296 0.0
C1251 C 0.54208 0.63036 0.51807 0.0
C1252 C 0.55433 0.60697 0.53504 0.0
C1253 C 0.56126 0.59006 0.47453 0.0
C1254 C 0.57371 0.61243 0.56737 0.0
C1255 C 0.53729 0.59657 0.58318 0.0
C1256 C 0.5185 0.61195 0.59265 0.0
C1257 C 0.49991 0.60535 0.63033 0.0
C1258 C 0.50056 0.5826 0.65934 0.0
C1259 C 0.51971 0.56672 0.6515 0.0
C1260 C 0.53837 0.57398 0.61331 0.0
H1261 H 0.89314 0.54557 0.45772 0.0
H1262 H 0.84808 0.52311 0.61805 0.0
H1263 H 0.87821 0.51283 0.68003 0.0
H1264 H 0.93836 0.49954 0.47579 0.0
H1265 H 0.958 0.52069 0.45366 0.0
H1266 H 0.9332 0.52338 0.42061 0.0
H1267 H 0.92575 0.56792 0.46426 0.0
H1268 H 0.95028 0.56527 0.49852 0.0
H1269 H 0.92513 0.57448 0.54977 0.0
H1270 H 0.91341 0.50972 0.72882 0.0
H1271 H 0.95015 0.50992 0.75542 0.0
H1272 H 0.97204 0.53401 0.56134 0.0
C1273 C 0.88972 0.53773 0.50509 0.0
C1274 C 0.86832 0.53474 0.53278 0.0
C1275 C 0.86438 0.52501 0.59544 0.0
C1276 C 0.8814 0.51937 0.63111 0.0
C1277 C 0.90228 0.52338 0.60316 0.0
C1278 C 0.90648 0.53193 0.54093 0.0
C1279 C 0.93004 0.53568 0.52256 0.0
C1280 C 0.94052 0.51881 0.46473 0.0
C1281 C 0.93296 0.56243 0.50794 0.0
C1282 C 0.93852 0.5284 0.58455 0.0
C1283 C 0.9223 0.52138 0.63061 0.0
C1284 C 0.92621 0.51487 0.69261 0.0
C1285 C 0.94719 0.51517 0.70743 0.0
C1286 C 0.96417 0.52189 0.66053 0.0
C1287 C 0.95957 0.52863 0.59834 0.0
loop_
_geom_bond_atom_site_label_1
_geom_bond_atom_site_label_2
_geom_bond_distance
_geom_bond_site_symmetry_2
_ccdc_geom_bond_type
C0 C1 1.391 . S
C0 C4 1.391 . S
C0 H42 0.948 . S
C1 C0 1.391 . S
C1 C2 1.391 . S
C2 C1 1.391 . S
C2 H58 0.947 . S
C2 C59 1.392 . S
C3 C4 1.391 . S
C3 C7 1.397 . S
C3 C59 1.419 . S
C4 C0 1.391 . S
C4 C3 1.391 . S
C4 C5 1.399 . S
C5 C4 1.399 . S
C5 C8 1.396 . S
C5 C17 1.453 . S
C5 C18 1.684 . S
H6 C30 0.948 . S
C7 C3 1.397 . S
C7 C8 1.394 . S
C7 C26 1.723 . S
C8 C5 1.396 . S
C8 C7 1.394 . S
C8 C38 1.723 . S
H9 C32 0.947 . S
H10 C33 0.948 . S
H11 C39 0.982 . S
H12 C40 0.979 . S
H13 C40 0.980 . S
H14 C40 0.983 . S
H15 C39 0.979 . S
H16 C39 0.977 . S
C17 C5 1.453 . S
C17 H46 0.982 . S
C17 H47 0.979 . S
C17 H48 0.977 . S
C18 C5 1.684 . S
C18 H43 0.979 . S
C18 H44 0.980 . S
C18 H45 0.983 . S
C19 C20 1.391 . S
C19 C24 1.391 . S
C19 H49 0.948 . S
C20 C19 1.391 . S
C20 C21 1.391 . S
C21 C20 1.391 . S
C21 C22 1.392 . S
C21 H50 0.947 . S
C22 C21 1.392 . S
C22 C23 1.419 . S
C22 H51 0.948 . S
C23 C22 1.419 . S
C23 C24 1.391 . S
C23 C27 1.397 . S
C24 C19 1.391 . S
C24 C23 1.391 . S
C24 C25 1.399 . S
C25 C24 1.399 . S
C25 C26 1.396 . S
C25 C28 1.453 . S
C25 C29 1.684 . S
C26 C7 1.723 . S
C26 C25 1.396 . S
C26 C27 1.394 . S
C27 C23 1.397 . S
C27 C26 1.394 . S
C27 C37 1.723 . S
C28 C25 1.453 . S
C28 H52 0.982 . S
C28 H53 0.979 . S
C28 H54 0.977 . S
C29 C25 1.684 . S
C29 H55 0.979 . S
C29 H56 0.980 . S
C29 H57 0.983 . S
C30 H6 0.948 . S
C30 C31 1.391 . S
C30 C35 1.391 . S
C31 C30 1.391 . S
C31 C32 1.391 . S
C32 H9 0.947 . S
C32 C31 1.391 . S
C32 C33 1.392 . S
C33 H10 0.948 . S
C33 C32 1.392 . S
C33 C34 1.419 . S
C34 C33 1.419 . S
C34 C35 1.391 . S
C34 C38 1.397 . S
C35 C30 1.391 . S
C35 C34 1.391 . S
C35 C36 1.399 . S
C36 C35 1.399 . S
C36 C37 1.396 . S
C36 C39 1.453 . S
C36 C40 1.684 . S
C37 C27 1.723 . S
C37 C36 1.396 . S
C37 C38 1.394 . S
C38 C8 1.723 . S
C38 C34 1.397 . S
C38 C37 1.394 . S
C39 H11 0.982 . S
C39 H15 0.979 . S
C39 H16 0.977 . S
C39 C36 1.453 . S
C40 H12 0.979 . S
C40 H13 0.980 . S
C40 H14 0.983 . S
C40 C36 1.684 . S
H41 C59 0.948 . S
H42 C0 0.948 . S
H43 C18 0.979 . S
H44 C18 0.980 . S
H45 C18 0.983 . S
H46 C17 0.982 . S
H47 C17 0.979 . S
H48 C17 0.977 . S
H49 C19 0.948 . S
H50 C21 0.947 . S
H51 C22 0.948 . S
H52 C28 0.982 . S
H53 C28 0.979 . S
H54 C28 0.977 . S
H55 C29 0.979 . S
H56 C29 0.980 . S
H57 C29 0.983 . S
H58 C2 0.947 . S
C59 C2 1.392 . S
C59 C3 1.419 . S
C59 H41 0.948 . S
C60 C61 1.391 . S
C60 C64 1.391 . S
C60 H102 0.948 . S
C61 C60 1.391 . S
C61 C62 1.391 . S
C62 C61 1.391 . S
C62 H118 0.947 . S
C62 C119 1.392 . S
C63 C64 1.391 . S
C63 C67 1.397 . S
C63 C119 1.419 . S
C64 C60 1.391 . S
C64 C63 1.391 . S
C64 C65 1.399 . S
C65 C64 1.399 . S
C65 C68 1.396 . S
C65 C77 1.453 1_655 S
C65 C78 1.684 . S
H66 C90 0.948 . S
C67 C63 1.397 . S
C67 C68 1.394 . S
C67 C86 1.723 . S
C68 C65 1.396 . S
C68 C67 1.394 . S
C68 C98 1.723 . S
H69 C92 0.947 . S
H70 C93 0.948 . S
H71 C99 0.982 . S
H72 C100 0.979 . S
H73 C100 0.980 . S
H74 C100 0.983 . S
H75 C99 0.979 . S
H76 C99 0.977 . S
C77 C65 1.453 1_455 S
C77 H106 0.982 . S
C77 H107 0.979 . S
C77 H108 0.977 . S
C78 C65 1.684 . S
C78 H103 0.979 . S
C78 H104 0.980 . S
C78 H105 0.983 . S
C79 C80 1.391 . S
C79 C84 1.391 . S
C79 H109 0.948 . S
C80 C79 1.391 . S
C80 C81 1.391 . S
C81 C80 1.391 . S
C81 C82 1.392 . S
C81 H110 0.947 . S
C82 C81 1.392 . S
C82 C83 1.419 . S
C82 H111 0.948 . S
C83 C82 1.419 . S
C83 C84 1.391 . S
C83 C87 1.397 . S
C84 C79 1.391 . S
C84 C83 1.391 . S
C84 C85 1.399 . S
C85 C84 1.399 . S
C85 C86 1.396 . S
C85 C88 1.453 1_655 S
C85 C89 1.684 . S
C86 C67 1.723 . S
C86 C85 1.396 . S
C86 C87 1.394 . S
C87 C83 1.397 . S
C87 C86 1.394 . S
C87 C97 1.723 . S
C88 C85 1.453 1_455 S
C88 H112 0.982 . S
C88 H113 0.979 . S
C88 H114 0.977 . S
C89 C85 1.684 . S
C89 H115 0.979 . S
C89 H116 0.980 . S
C89 H117 0.983 . S
C90 H66 0.948 . S
C90 C91 1.391 . S
C90 C95 1.391 . S
C91 C90 1.391 . S
C91 C92 1.391 . S
C92 H69 0.947 . S
C92 C91 1.391 . S
C92 C93 1.392 . S
C93 H70 0.948 . S
C93 C92 1.392 . S
C93 C94 1.419 . S
C94 C93 1.419 . S
C94 C95 1.391 . S
C94 C98 1.397 . S
C95 C90 1.391 . S
C95 C94 1.391 . S
C95 C96 1.399 . S
C96 C95 1.399 . S
C96 C97 1.396 . S
C96 C99 1.453 1_655 S
C96 C100 1.684 . S
C97 C87 1.723 . S
C97 C96 1.396 . S
C97 C98 1.394 . S
C98 C68 1.723 . S
C98 C94 1.397 . S
C98 C97 1.394 . S
C99 H71 0.982 . S
C99 H75 0.979 . S
C99 H76 0.977 . S
C99 C96 1.453 1_455 S
C100 H72 0.979 . S
C100 H73 0.980 . S
C100 H74 0.983 . S
C100 C96 1.684 . S
H101 C119 0.948 . S
H102 C60 0.948 . S
H103 C78 0.979 . S
H104 C78 0.980 . S
H105 C78 0.983 . S
H106 C77 0.982 . S
H107 C77 0.979 . S
H108 C77 0.977 . S
H109 C79 0.948 . S
H110 C81 0.947 . S
H111 C82 0.948 . S
H112 C88 0.982 . S
H113 C88 0.979 . S
H114 C88 0.977 . S
H115 C89 0.979 . S
H116 C89 0.980 . S
H117 C89 0.983 . S
H118 C62 0.947 . S
C119 C62 1.392 . S
C119 C63 1.419 . S
C119 H101 0.948 . S
C120 C121 1.391 . S
C120 C124 1.391 . S
C120 H162 0.948 . S
C121 C120 1.391 . S
C121 C122 1.391 . S
C122 C121 1.391 . S
C122 H178 0.947 . S
C122 C179 1.392 . S
C123 C124 1.391 . S
C123 C127 1.397 1_565 S
C123 C179 1.419 . S
C124 C120 1.391 . S
C124 C123 1.391 . S
C124 C125 1.399 . S
C125 C124 1.399 . S
C125 C128 1.396 1_565 S
C125 C137 1.453 1_565 S
C125 C138 1.684 . S
H126 C150 0.948 . S
C127 C123 1.397 1_545 S
C127 C128 1.394 . S
C127 C146 1.723 . S
C128 C125 1.396 1_545 S
C128 C127 1.394 . S
C128 C158 1.722 . S
H129 C152 0.947 . S
H130 C153 0.948 . S
H131 C159 0.982 . S
H132 C160 0.979 . S
H133 C160 0.980 . S
H134 C160 0.983 . S
H135 C159 0.979 . S
H136 C159 0.977 . S
C137 C125 1.453 1_545 S
C137 H166 0.982 . S
C137 H167 0.979 . S
C137 H168 0.977 . S
C138 C125 1.684 . S
C138 H163 0.979 . S
C138 H164 0.980 . S
C138 H165 0.983 . S
C139 C140 1.391 . S
C139 C144 1.391 . S
C139 H169 0.948 . S
C140 C139 1.391 . S
C140 C141 1.391 . S
C141 C140 1.391 . S
C141 C142 1.392 . S
C141 H170 0.947 . S
C142 C141 1.392 . S
C142 C143 1.419 . S
C142 H171 0.948 . S
C143 C142 1.419 . S
C143 C144 1.391 . S
C143 C147 1.397 1_565 S
C144 C139 1.391 . S
C144 C143 1.391 . S
C144 C145 1.399 . S
C145 C144 1.399 . S
C145 C146 1.396 1_565 S
C145 C148 1.453 1_565 S
C145 C149 1.684 . S
C146 C127 1.723 . S
C146 C145 1.396 1_545 S
C146 C147 1.394 . S
C147 C143 1.397 1_545 S
C147 C146 1.394 . S
C147 C157 1.723 . S
C148 C145 1.453 1_545 S
C148 H172 0.982 . S
C148 H173 0.979 . S
C148 H174 0.977 . S
C149 C145 1.684 . S
C149 H175 0.979 . S
C149 H176 0.980 . S
C149 H177 0.983 . S
C150 H126 0.948 . S
C150 C151 1.391 . S
C150 C155 1.391 . S
C151 C150 1.391 . S
C151 C152 1.391 . S
C152 H129 0.947 . S
C152 C151 1.391 . S
C152 C153 1.392 . S
C153 H130 0.948 . S
C153 C152 1.392 . S
C153 C154 1.419 . S
C154 C153 1.419 . S
C154 C155 1.391 . S
C154 C158 1.397 1_565 S
C155 C150 1.391 . S
C155 C154 1.391 . S
C155 C156 1.399 . S
C156 C155 1.399 . S
C156 C157 1.396 1_565 S
C156 C159 1.453 1_565 S
C156 C160 1.684 . S
C157 C147 1.723 . S
C157 C156 1.396 1_545 S
C157 C158 1.394 . S
C158 C128 1.722 . S
C158 C154 1.397 1_545 S
C158 C157 1.394 . S
C159 H131 0.982 . S
C159 H135 0.979 . S
C159 H136 0.977 . S
C159 C156 1.453 1_545 S
C160 H132 0.979 . S
C160 H133 0.980 . S
C160 H134 0.983 . S
C160 C156 1.684 . S
H161 C179 0.948 . S
H162 C120 0.948 . S
H163 C138 0.979 . S
H164 C138 0.980 . S
H165 C138 0.983 . S
H166 C137 0.982 . S
H167 C137 0.979 . S
H168 C137 0.977 . S
H169 C139 0.948 . S
H170 C141 0.947 . S
H171 C142 0.948 . S
H172 C148 0.982 . S
H173 C148 0.979 . S
H174 C148 0.977 . S
H175 C149 0.979 . S
H176 C149 0.980 . S
H177 C149 0.983 . S
H178 C122 0.947 . S
C179 C122 1.392 . S
C179 C123 1.419 . S
C179 H161 0.948 . S
C180 C181 1.391 . S
C180 C184 1.391 . S
C180 H222 0.948 . S
C181 C180 1.391 . S
C181 C182 1.391 . S
C182 C181 1.391 . S
C182 H238 0.947 . S
C182 C239 1.392 . S
C183 C184 1.391 . S
C183 C187 1.397 . S
C183 C239 1.419 . S
C184 C180 1.391 . S
C184 C183 1.391 . S
C184 C185 1.399 . S
C185 C184 1.399 . S
C185 C188 1.396 . S
C185 C197 1.453 . S
C185 C198 1.684 . S
H186 C210 0.948 1_556 S
C187 C183 1.397 . S
C187 C188 1.394 . S
C187 C206 1.723 . S
C188 C185 1.396 . S
C188 C187 1.394 . S
C188 C218 1.723 . S
H189 C212 0.947 . S
H190 C213 0.948 . S
H191 C219 0.982 . S
H192 C220 0.979 . S
H193 C220 0.980 . S
H194 C220 0.983 . S
H195 C219 0.979 . S
H196 C219 0.977 . S
C197 C185 1.453 . S
C197 H226 0.982 . S
C197 H227 0.979 . S
C197 H228 0.977 . S
C198 C185 1.684 . S
C198 H223 0.979 . S
C198 H224 0.980 . S
C198 H225 0.983 . S
C199 C200 1.391 . S
C199 C204 1.391 1_556 S
C199 H229 0.948 . S
C200 C199 1.391 . S
C200 C201 1.391 . S
C201 C200 1.391 . S
C201 C202 1.392 . S
C201 H230 0.947 . S
C202 C201 1.392 . S
C202 C203 1.419 1_556 S
C202 H231 0.948 . S
C203 C202 1.419 1_554 S
C203 C204 1.391 . S
C203 C207 1.397 . S
C204 C199 1.391 1_554 S
C204 C203 1.391 . S
C204 C205 1.399 . S
C205 C204 1.399 . S
C205 C206 1.396 . S
C205 C208 1.453 . S
C205 C209 1.684 . S
C206 C187 1.723 . S
C206 C205 1.396 . S
C206 C207 1.394 . S
C207 C203 1.397 . S
C207 C206 1.394 . S
C207 C217 1.723 . S
C208 C205 1.453 . S
C208 H232 0.982 . S
C208 H233 0.979 . S
C208 H234 0.977 . S
C209 C205 1.684 . S
C209 H235 0.979 . S
C209 H236 0.980 . S
C209 H237 0.983 . S
C210 H186 0.948 1_554 S
C210 C211 1.391 . S
C210 C215 1.391 . S
C211 C210 1.391 . S
C211 C212 1.391 . S
C212 H189 0.947 . S
C212 C211 1.391 . S
C212 C213 1.392 . S
C213 H190 0.948 . S
C213 C212 1.392 . S
C213 C214 1.419 . S
C214 C213 1.419 . S
C214 C215 1.391 . S
C214 C218 1.397 . S
C215 C210 1.391 . S
C215 C214 1.391 . S
C215 C216 1.399 . S
C216 C215 1.399 . S
C216 C217 1.396 . S
C216 C219 1.453 1_554 S
C216 C220 1.684 1_554 S
C217 C207 1.723 . S
C217 C216 1.396 . S
C217 C218 1.394 . S
C218 C188 1.723 . S
C218 C214 1.397 . S
C218 C217 1.394 . S
C219 H191 0.982 . S
C219 H195 0.979 . S
C219 H196 0.977 . S
C219 C216 1.453 1_556 S
C220 H192 0.979 . S
C220 H193 0.980 . S
C220 H194 0.983 . S
C220 C216 1.684 1_556 S
H221 C239 0.948 . S
H222 C180 0.948 . S
H223 C198 0.979 . S
H224 C198 0.980 . S
H225 C198 0.983 . S
H226 C197 0.982 . S
H227 C197 0.979 . S
H228 C197 0.977 . S
H229 C199 0.948 . S
H230 C201 0.947 . S
H231 C202 0.948 . S
H232 C208 0.982 . S
H233 C208 0.979 . S
H234 C208 0.977 . S
H235 C209 0.979 . S
H236 C209 0.980 . S
H237 C209 0.983 . S
H238 C182 0.947 . S
C239 C182 1.392 . S
C239 C183 1.419 . S
C239 H221 0.948 . S
C240 C241 1.391 1_556 S
C240 C244 1.391 . S
C240 H282 0.948 . S
C241 C240 1.391 1_554 S
C241 C242 1.391 . S
C242 C241 1.391 . S
C242 H298 0.947 . S
C242 C299 1.392 . S
C243 C244 1.391 1_554 S
C243 C247 1.397 . S
C243 C299 1.419 . S
C244 C240 1.391 . S
C244 C243 1.391 1_556 S
C244 C245 1.399 . S
C245 C244 1.399 . S
C245 C248 1.396 . S
C245 C257 1.453 . S
C245 C258 1.684 . S
H246 C270 0.948 . S
C247 C243 1.397 . S
C247 C248 1.394 1_554 S
C247 C266 1.723 . S
C248 C245 1.396 . S
C248 C247 1.394 1_556 S
C248 C278 1.723 . S
H249 C272 0.947 . S
H250 C273 0.948 . S
H251 C279 0.982 . S
H252 C280 0.979 . S
H253 C280 0.980 . S
H254 C280 0.983 . S
H255 C279 0.979 . S
H256 C279 0.977 . S
C257 C245 1.453 . S
C257 H286 0.982 . S
C257 H287 0.979 . S
C257 H288 0.977 . S
C258 C245 1.684 . S
C258 H283 0.979 . S
C258 H284 0.980 . S
C258 H285 0.983 . S
C259 C260 1.391 . S
C259 C264 1.391 . S
C259 H289 0.948 . S
C260 C259 1.391 . S
C260 C261 1.391 . S
C261 C260 1.391 . S
C261 C262 1.392 . S
C261 H290 0.947 . S
C262 C261 1.392 . S
C262 C263 1.419 . S
C262 H291 0.948 . S
C263 C262 1.419 . S
C263 C264 1.391 . S
C263 C267 1.397 . S
C264 C259 1.391 . S
C264 C263 1.391 . S
C264 C265 1.399 . S
C265 C264 1.399 . S
C265 C266 1.396 . S
C265 C268 1.453 . S
C265 C269 1.684 . S
C266 C247 1.723 . S
C266 C265 1.396 . S
C266 C267 1.394 . S
C267 C263 1.397 . S
C267 C266 1.394 . S
C267 C277 1.723 1_554 S
C268 C265 1.453 . S
C268 H292 0.982 . S
C268 H293 0.979 . S
C268 H294 0.977 . S
C269 C265 1.684 . S
C269 H295 0.979 . S
C269 H296 0.980 . S
C269 H297 0.983 . S
C270 H246 0.948 . S
C270 C271 1.391 . S
C270 C275 1.391 . S
C271 C270 1.391 . S
C271 C272 1.391 . S
C272 H249 0.947 . S
C272 C271 1.391 . S
C272 C273 1.392 . S
C273 H250 0.948 . S
C273 C272 1.392 . S
C273 C274 1.419 . S
C274 C273 1.419 . S
C274 C275 1.391 . S
C274 C278 1.397 . S
C275 C270 1.391 . S
C275 C274 1.391 . S
C275 C276 1.399 . S
C276 C275 1.399 . S
C276 C277 1.396 . S
C276 C279 1.453 . S
C276 C280 1.684 . S
C277 C267 1.723 1_556 S
C277 C276 1.396 . S
C277 C278 1.394 . S
C278 C248 1.723 . S
C278 C274 1.397 . S
C278 C277 1.394 . S
C279 H251 0.982 . S
C279 H255 0.979 . S
C279 H256 0.977 . S
C279 C276 1.453 . S
C280 H252 0.979 . S
C280 H253 0.980 . S
C280 H254 0.983 . S
C280 C276 1.684 . S
H281 C299 0.948 . S
H282 C240 0.948 . S
H283 C258 0.979 . S
H284 C258 0.980 . S
H285 C258 0.983 . S
H286 C257 0.982 . S
H287 C257 0.979 . S
H288 C257 0.977 . S
H289 C259 0.948 . S
H290 C261 0.947 . S
H291 C262 0.948 . S
H292 C268 0.982 . S
H293 C268 0.979 . S
H294 C268 0.977 . S
H295 C269 0.979 . S
H296 C269 0.980 . S
H297 C269 0.983 . S
H298 C242 0.947 . S
C299 C242 1.392 . S
C299 C243 1.419 . S
C299 H281 0.948 . S
C300 C301 1.391 . S
C300 C304 1.391 . S
C300 H342 0.948 . S
C301 C300 1.391 . S
C301 C302 1.391 . S
C302 C301 1.391 . S
C302 H358 0.947 . S
C302 C359 1.392 . S
C303 C304 1.391 . S
C303 C307 1.397 . S
C303 C359 1.419 . S
C304 C300 1.391 . S
C304 C303 1.391 . S
C304 C305 1.399 . S
C305 C304 1.399 . S
C305 C308 1.396 . S
C305 C317 1.453 . S
C305 C318 1.684 1_455 S
H306 C330 0.948 . S
C307 C303 1.397 . S
C307 C308 1.394 . S
C307 C326 1.723 . S
C308 C305 1.396 . S
C308 C307 1.394 . S
C308 C338 1.723 . S
H309 C332 0.947 . S
H310 C333 0.948 . S
H311 C339 0.982 . S
H312 C340 0.979 . S
H313 C340 0.980 1_556 S
H314 C340 0.983 . S
H315 C339 0.979 . S
H316 C339 0.977 1_556 S
C317 C305 1.453 . S
C317 H346 0.982 . S
C317 H347 0.979 . S
C317 H348 0.977 . S
C318 C305 1.684 1_655 S
C318 H343 0.979 . S
C318 H344 0.980 . S
C318 H345 0.983 . S
C319 C320 1.391 . S
C319 C324 1.391 . S
C319 H349 0.948 . S
C320 C319 1.391 . S
C320 C321 1.391 . S
C321 C320 1.391 . S
C321 C322 1.392 . S
C321 H350 0.947 . S
C322 C321 1.392 . S
C322 C323 1.419 . S
C322 H351 0.948 . S
C323 C322 1.419 . S
C323 C324 1.391 . S
C323 C327 1.397 1_556 S
C324 C319 1.391 . S
C324 C323 1.391 . S
C324 C325 1.399 1_556 S
C325 C324 1.399 1_554 S
C325 C326 1.396 . S
C325 C328 1.453 . S
C325 C329 1.684 1_455 S
C326 C307 1.723 . S
C326 C325 1.396 . S
C326 C327 1.394 . S
C327 C323 1.397 1_554 S
C327 C326 1.394 . S
C327 C337 1.723 . S
C328 C325 1.453 . S
C328 H352 0.982 . S
C328 H353 0.979 . S
C328 H354 0.977 . S
C329 C325 1.684 1_655 S
C329 H355 0.979 . S
C329 H356 0.980 . S
C329 H357 0.983 . S
C330 H306 0.948 . S
C330 C331 1.391 . S
C330 C335 1.391 . S
C331 C330 1.391 . S
C331 C332 1.391 . S
C332 H309 0.947 . S
C332 C331 1.391 . S
C332 C333 1.392 . S
C333 H310 0.948 . S
C333 C332 1.392 . S
C333 C334 1.419 . S
C334 C333 1.419 . S
C334 C335 1.391 . S
C334 C338 1.397 . S
C335 C330 1.391 . S
C335 C334 1.391 . S
C335 C336 1.399 . S
C336 C335 1.399 . S
C336 C337 1.396 . S
C336 C339 1.453 . S
C336 C340 1.684 1_455 S
C337 C327 1.723 . S
C337 C336 1.396 . S
C337 C338 1.394 . S
C338 C308 1.723 . S
C338 C334 1.397 . S
C338 C337 1.394 . S
C339 H311 0.982 . S
C339 H315 0.979 . S
C339 H316 0.977 1_554 S
C339 C336 1.453 . S
C340 H312 0.979 . S
C340 H313 0.980 1_554 S
C340 H314 0.983 . S
C340 C336 1.684 1_655 S
H341 C359 0.948 . S
H342 C300 0.948 . S
H343 C318 0.979 . S
H344 C318 0.980 . S
H345 C318 0.983 . S
H346 C317 0.982 . S
H347 C317 0.979 . S
H348 C317 0.977 . S
H349 C319 0.948 . S
H350 C321 0.947 . S
H351 C322 0.948 . S
H352 C328 0.982 . S
H353 C328 0.979 . S
H354 C328 0.977 . S
H355 C329 0.979 . S
H356 C329 0.980 . S
H357 C329 0.983 . S
H358 C302 0.947 . S
C359 C302 1.392 . S
C359 C303 1.419 . S
C359 H341 0.948 . S
C360 C361 1.391 . S
C360 C364 1.391 1_556 S
C360 H402 0.948 . S
C361 C360 1.391 . S
C361 C362 1.391 . S
C362 C361 1.391 . S
C362 H418 0.947 . S
C362 C419 1.392 1_556 S
C363 C364 1.391 . S
C363 C367 1.397 1_545 S
C363 C419 1.419 . S
C364 C360 1.391 1_554 S
C364 C363 1.391 . S
C364 C365 1.399 . S
C365 C364 1.399 . S
C365 C368 1.396 1_545 S
C365 C377 1.453 1_545 S
C365 C378 1.684 . S
H366 C390 0.948 . S
C367 C363 1.397 1_565 S
C367 C368 1.394 . S
C367 C386 1.723 . S
C368 C365 1.396 1_565 S
C368 C367 1.394 . S
C368 C398 1.723 . S
H369 C392 0.947 . S
H370 C393 0.948 . S
H371 C399 0.982 . S
H372 C400 0.979 . S
H373 C400 0.980 . S
H374 C400 0.983 . S
H375 C399 0.979 . S
H376 C399 0.977 . S
C377 C365 1.453 1_565 S
C377 H406 0.982 . S
C377 H407 0.979 1_554 S
C377 H408 0.977 . S
C378 C365 1.684 . S
C378 H403 0.979 . S
C378 H404 0.980 . S
C378 H405 0.983 1_554 S
C379 C380 1.391 . S
C379 C384 1.391 . S
C379 H409 0.948 . S
C380 C379 1.391 . S
C380 C381 1.391 . S
C381 C380 1.391 . S
C381 C382 1.392 . S
C381 H410 0.947 . S
C382 C381 1.392 . S
C382 C383 1.419 . S
C382 H411 0.948 . S
C383 C382 1.419 . S
C383 C384 1.391 . S
C383 C387 1.397 1_545 S
C384 C379 1.391 . S
C384 C383 1.391 . S
C384 C385 1.399 . S
C385 C384 1.399 . S
C385 C386 1.396 1_545 S
C385 C388 1.453 1_545 S
C385 C389 1.684 . S
C386 C367 1.723 . S
C386 C385 1.396 1_565 S
C386 C387 1.394 . S
C387 C383 1.397 1_565 S
C387 C386 1.394 . S
C387 C397 1.722 . S
C388 C385 1.453 1_565 S
C388 H412 0.982 . S
C388 H413 0.979 . S
C388 H414 0.977 . S
C389 C385 1.684 . S
C389 H415 0.979 . S
C389 H416 0.980 . S
C389 H417 0.983 . S
C390 H366 0.948 . S
C390 C391 1.391 . S
C390 C395 1.391 . S
C391 C390 1.391 . S
C391 C392 1.391 . S
C392 H369 0.947 . S
C392 C391 1.391 . S
C392 C393 1.392 . S
C393 H370 0.948 . S
C393 C392 1.392 . S
C393 C394 1.419 . S
C394 C393 1.419 . S
C394 C395 1.391 . S
C394 C398 1.397 1_545 S
C395 C390 1.391 . S
C395 C394 1.391 . S
C395 C396 1.399 . S
C396 C395 1.399 . S
C396 C397 1.396 1_545 S
C396 C399 1.453 1_545 S
C396 C400 1.684 . S
C397 C387 1.722 . S
C397 C396 1.396 1_565 S
C397 C398 1.394 . S
C398 C368 1.723 . S
C398 C394 1.397 1_565 S
C398 C397 1.394 . S
C399 H371 0.982 . S
C399 H375 0.979 . S
C399 H376 0.977 . S
C399 C396 1.453 1_565 S
C400 H372 0.979 . S
C400 H373 0.980 . S
C400 H374 0.983 . S
C400 C396 1.684 . S
H401 C419 0.948 . S
H402 C360 0.948 . S
H403 C378 0.979 . S
H404 C378 0.980 . S
H405 C378 0.983 1_556 S
H406 C377 0.982 . S
H407 C377 0.979 1_556 S
H408 C377 0.977 . S
H409 C379 0.948 . S
H410 C381 0.947 . S
H411 C382 0.948 . S
H412 C388 0.982 . S
H413 C388 0.979 . S
H414 C388 0.977 . S
H415 C389 0.979 . S
H416 C389 0.980 . S
H417 C389 0.983 . S
H418 C362 0.947 . S
C419 C362 1.392 1_554 S
C419 C363 1.419 . S
C419 H401 0.948 . S
C420 C421 1.391 . S
C420 C424 1.391 . S
C420 H462 0.948 . S
C421 C420 1.391 . S
C421 C422 1.391 . S
C422 C421 1.391 . S
C422 H478 0.947 . S
C422 C479 1.392 . S
C423 C424 1.391 . S
C423 C427 1.397 . S
C423 C479 1.419 . S
C424 C420 1.391 . S
C424 C423 1.391 . S
C424 C425 1.399 . S
C425 C424 1.399 . S
C425 C428 1.396 . S
C425 C437 1.453 . S
C425 C438 1.684 . S
H426 C450 0.948 . S
C427 C423 1.397 . S
C427 C428 1.394 . S
C427 C446 1.723 . S
C428 C425 1.396 . S
C428 C427 1.394 . S
C428 C458 1.723 . S
H429 C452 0.947 . S
H430 C453 0.948 . S
H431 C459 0.982 . S
H432 C460 0.979 . S
H433 C460 0.980 . S
H434 C460 0.983 . S
H435 C459 0.979 . S
H436 C459 0.977 . S
C437 C425 1.453 . S
C437 H466 0.982 . S
C437 H467 0.979 . S
C437 H468 0.977 . S
C438 C425 1.684 . S
C438 H463 0.979 . S
C438 H464 0.980 . S
C438 H465 0.983 . S
C439 C440 1.391 . S
C439 C444 1.391 . S
C439 H469 0.948 . S
C440 C439 1.391 . S
C440 C441 1.391 . S
C441 C440 1.391 . S
C441 C442 1.392 . S
C441 H470 0.947 . S
C442 C441 1.392 . S
C442 C443 1.419 . S
C442 H471 0.948 . S
C443 C442 1.419 . S
C443 C444 1.391 . S
C443 C447 1.397 . S
C444 C439 1.391 . S
C444 C443 1.391 . S
C444 C445 1.399 . S
C445 C444 1.399 . S
C445 C446 1.396 . S
C445 C448 1.453 . S
C445 C449 1.684 . S
C446 C427 1.723 . S
C446 C445 1.396 . S
C446 C447 1.394 . S
C447 C443 1.397 . S
C447 C446 1.394 . S
C447 C457 1.723 . S
C448 C445 1.453 . S
C448 H472 0.982 . S
C448 H473 0.979 . S
C448 H474 0.977 . S
C449 C445 1.684 . S
C449 H475 0.979 . S
C449 H476 0.980 . S
C449 H477 0.983 . S
C450 H426 0.948 . S
C450 C451 1.391 . S
C450 C455 1.391 . S
C451 C450 1.391 . S
C451 C452 1.391 . S
C452 H429 0.947 . S
C452 C451 1.391 . S
C452 C453 1.392 . S
C453 H430 0.948 . S
C453 C452 1.392 . S
C453 C454 1.419 . S
C454 C453 1.419 . S
C454 C455 1.391 . S
C454 C458 1.397 . S
C455 C450 1.391 . S
C455 C454 1.391 . S
C455 C456 1.399 . S
C456 C455 1.399 . S
C456 C457 1.396 . S
C456 C459 1.453 . S
C456 C460 1.684 . S
C457 C447 1.723 . S
C457 C456 1.396 . S
C457 C458 1.394 . S
C458 C428 1.723 . S
C458 C454 1.397 . S
C458 C457 1.394 . S
C459 H431 0.982 . S
C459 H435 0.979 . S
C459 H436 0.977 . S
C459 C456 1.453 . S
C460 H432 0.979 . S
C460 H433 0.980 . S
C460 H434 0.983 . S
C460 C456 1.684 . S
H461 C479 0.948 . S
H462 C420 0.948 . S
H463 C438 0.979 . S
H464 C438 0.980 . S
H465 C438 0.983 . S
H466 C437 0.982 . S
H467 C437 0.979 . S
H468 C437 0.977 . S
H469 C439 0.948 . S
H470 C441 0.947 . S
H471 C442 0.948 . S
H472 C448 0.982 . S
H473 C448 0.979 . S
H474 C448 0.977 . S
H475 C449 0.979 . S
H476 C449 0.980 . S
H477 C449 0.983 . S
H478 C422 0.947 . S
C479 C422 1.392 . S
C479 C423 1.419 . S
C479 H461 0.948 . S
Dy480 O483 2.307 1_545 S
Dy480 O485 2.395 1_655 S
Dy480 O486 2.379 . S
Dy480 O488 2.339 . S
Dy480 O490 2.298 . S
Dy480 O494 2.275 1_655 S
Dy480 C502 2.738 . S
Dy481 O484 2.298 . S
Dy481 O487 2.275 1_455 S
Dy481 O489 2.307 1_565 S
Dy481 O491 2.400 . S
Dy481 O492 2.379 . S
Dy481 O495 2.339 . S
Dy481 C511 2.738 . S
C482 O494 1.254 1_565 S
C482 O495 1.257 . S
O483 Dy480 2.307 1_565 S
O483 C493 1.266 . S
O484 Dy481 2.298 . S
O484 C493 1.236 1_455 S
O485 Dy480 2.395 1_455 S
O485 C502 1.255 1_455 S
O486 Dy480 2.379 . S
O486 C502 1.249 . S
O487 Dy481 2.275 1_655 S
O487 C503 1.254 1_565 S
O488 Dy480 2.339 . S
O488 C503 1.257 . S
O489 Dy481 2.307 1_545 S
O489 C504 1.266 . S
O490 Dy480 2.298 . S
O490 C504 1.236 1_655 S
O491 Dy481 2.400 . S
O491 C511 1.265 . S
O492 Dy481 2.379 . S
O492 C511 1.249 . S
C493 O483 1.266 . S
C493 O484 1.236 1_655 S
O494 Dy480 2.275 1_455 S
O494 C482 1.254 1_545 S
O495 Dy481 2.339 . S
O495 C482 1.257 . S
C496 C499 1.344 1_655 S
C496 C500 1.328 . S
C496 C502 1.516 . S
C497 C498 1.304 1_655 S
C497 C501 1.323 . S
C498 C497 1.304 1_455 S
C498 C499 1.371 . S
C498 H512 0.930 . S
C499 C496 1.344 1_455 S
C499 C498 1.371 . S
C499 H513 0.931 . S
C500 C496 1.328 . S
C500 C501 1.433 . S
C500 H514 0.931 . S
C501 C497 1.323 . S
C501 C500 1.433 . S
C501 H515 0.933 . S
C502 Dy480 2.738 . S
C502 O485 1.255 1_655 S
C502 O486 1.249 . S
C502 C496 1.516 . S
C503 O487 1.254 1_545 S
C503 O488 1.257 . S
C504 O489 1.266 . S
C504 O490 1.236 1_455 S
C505 C508 1.344 . S
C505 C509 1.328 . S
C505 C511 1.516 . S
C506 C507 1.304 . S
C506 C510 1.323 . S
C507 C506 1.304 . S
C507 C508 1.371 . S
C507 H516 0.930 1_455 S
C508 C505 1.344 . S
C508 C507 1.371 . S
C508 H517 0.931 1_455 S
C509 C505 1.328 . S
C509 C510 1.433 . S
C509 H518 0.931 . S
C510 C506 1.323 . S
C510 C509 1.433 . S
C510 H519 0.933 . S
C511 Dy481 2.738 . S
C511 O491 1.265 . S
C511 O492 1.249 . S
C511 C505 1.516 . S
H512 C498 0.930 . S
H513 C499 0.931 . S
H514 C500 0.931 . S
H515 C501 0.933 . S
H516 C507 0.930 1_655 S
H517 C508 0.931 1_655 S
H518 C509 0.931 . S
H519 C510 0.933 . S
Dy520 O523 2.307 . S
Dy520 O525 2.395 1_565 S
Dy520 O526 2.379 . S
Dy520 O528 2.339 . S
Dy520 O530 2.298 . S
Dy520 O534 2.275 1_565 S
Dy520 C542 2.738 . S
Dy521 O524 2.298 . S
Dy521 O527 2.275 1_545 S
Dy521 O529 2.307 . S
Dy521 O531 2.395 1_545 S
Dy521 O532 2.379 . S
Dy521 O535 2.339 . S
Dy521 C551 2.738 . S
C522 O534 1.254 . S
C522 O535 1.257 . S
O523 Dy520 2.307 . S
O523 C533 1.266 . S
O524 Dy521 2.298 . S
O524 C533 1.236 1_545 S
O525 Dy520 2.395 1_545 S
O525 C542 1.255 1_545 S
O526 Dy520 2.379 . S
O526 C542 1.249 . S
O527 Dy521 2.275 1_565 S
O527 C543 1.254 . S
O528 Dy520 2.339 . S
O528 C543 1.257 . S
O529 Dy521 2.307 . S
O529 C544 1.266 . S
O530 Dy520 2.298 . S
O530 C544 1.236 1_565 S
O531 Dy521 2.395 1_565 S
O531 C551 1.255 1_565 S
O532 Dy521 2.379 . S
O532 C551 1.249 . S
C533 O523 1.266 . S
C533 O524 1.236 1_565 S
O534 Dy520 2.275 1_545 S
O534 C522 1.254 . S
O535 Dy521 2.339 . S
O535 C522 1.257 . S
C536 C539 1.338 1_565 S
C536 C540 1.328 . S
C536 C542 1.516 . S
C537 C538 1.304 . S
C537 C541 1.323 . S
C538 C537 1.304 . S
C538 C539 1.370 1_565 S
C538 H552 0.930 1_565 S
C539 C536 1.338 1_545 S
C539 C538 1.370 1_545 S
C539 H553 0.938 . S
C540 C536 1.328 . S
C540 C541 1.433 . S
C540 H554 0.931 . S
C541 C537 1.323 . S
C541 C540 1.433 . S
C541 H555 0.933 . S
C542 Dy520 2.738 . S
C542 O525 1.255 1_565 S
C542 O526 1.249 . S
C542 C536 1.516 . S
C543 O527 1.254 . S
C543 O528 1.257 . S
C544 O529 1.266 . S
C544 O530 1.236 1_545 S
C545 C548 1.346 1_545 S
C545 C549 1.328 . S
C545 C551 1.516 . S
C546 C547 1.304 . S
C546 C550 1.323 . S
C547 C546 1.304 . S
C547 C548 1.371 1_545 S
C547 H556 0.930 1_545 S
C548 C545 1.346 1_565 S
C548 C547 1.371 1_565 S
C548 H557 0.928 . S
C549 C545 1.328 . S
C549 C550 1.433 . S
C549 H558 0.931 . S
C550 C546 1.323 . S
C550 C549 1.433 . S
C550 H559 0.933 . S
C551 Dy521 2.738 . S
C551 O531 1.255 1_545 S
C551 O532 1.249 . S
C551 C545 1.516 . S
H552 C538 0.930 1_545 S
H553 C539 0.938 . S
H554 C540 0.931 . S
H555 C541 0.933 . S
H556 C547 0.930 1_565 S
H557 C548 0.928 . S
H558 C549 0.931 . S
H559 C550 0.933 . S
Dy560 O563 2.307 . S
Dy560 O565 2.395 . S
Dy560 O566 2.379 . S
Dy560 O568 2.339 . S
Dy560 O570 2.298 . S
Dy560 O574 2.275 . S
Dy560 C582 2.738 . S
Dy561 O564 2.298 . S
Dy561 O567 2.275 . S
Dy561 O569 2.307 . S
Dy561 O571 2.395 . S
Dy561 O572 2.379 . S
Dy561 O575 2.339 . S
Dy561 C591 2.738 . S
C562 O574 1.254 . S
C562 O575 1.257 . S
O563 Dy560 2.307 . S
O563 C573 1.266 . S
O564 Dy561 2.298 . S
O564 C573 1.236 . S
O565 Dy560 2.395 . S
O565 C582 1.255 . S
O566 Dy560 2.379 . S
O566 C582 1.249 . S
O567 Dy561 2.275 . S
O567 C583 1.254 . S
O568 Dy560 2.339 . S
O568 C583 1.257 . S
O569 Dy561 2.307 . S
O569 C584 1.266 . S
O570 Dy560 2.298 . S
O570 C584 1.236 . S
O571 Dy561 2.395 . S
O571 C591 1.255 . S
O572 Dy561 2.379 . S
O572 C591 1.249 . S
C573 O563 1.266 . S
C573 O564 1.236 . S
O574 Dy560 2.275 . S
O574 C562 1.254 . S
O575 Dy561 2.339 . S
O575 C562 1.257 . S
C576 C579 1.344 . S
C576 C580 1.328 . S
C576 C582 1.516 . S
C577 C578 1.304 . S
C577 C581 1.323 . S
C578 C577 1.304 . S
C578 C579 1.371 . S
C578 H592 0.930 . S
C579 C576 1.344 . S
C579 C578 1.371 . S
C579 H593 0.931 . S
C580 C576 1.328 . S
C580 C581 1.433 . S
C580 H594 0.931 . S
C581 C577 1.323 . S
C581 C580 1.433 . S
C581 H595 0.933 . S
C582 Dy560 2.738 . S
C582 O565 1.255 . S
C582 O566 1.249 . S
C582 C576 1.516 . S
C583 O567 1.254 . S
C583 O568 1.257 . S
C584 O569 1.266 . S
C584 O570 1.236 . S
C585 C588 1.344 . S
C585 C589 1.328 . S
C585 C591 1.516 . S
C586 C587 1.304 . S
C586 C590 1.323 . S
C587 C586 1.304 . S
C587 C588 1.371 . S
C587 H596 0.930 . S
C588 C585 1.344 . S
C588 C587 1.371 . S
C588 H597 0.931 . S
C589 C585 1.328 . S
C589 C590 1.433 . S
C589 H598 0.931 . S
C590 C586 1.323 . S
C590 C589 1.433 . S
C590 H599 0.933 . S
C591 Dy561 2.738 . S
C591 O571 1.255 . S
C591 O572 1.249 . S
C591 C585 1.516 . S
H592 C578 0.930 . S
H593 C579 0.931 . S
H594 C580 0.931 . S
H595 C581 0.933 . S
H596 C587 0.930 . S
H597 C588 0.931 . S
H598 C589 0.931 . S
H599 C590 0.933 . S
Dy600 O603 2.307 1_455 S
Dy600 O605 2.395 . S
Dy600 O606 2.379 . S
Dy600 O608 2.339 . S
Dy600 O610 2.298 . S
Dy600 O614 2.275 . S
Dy600 C622 2.738 . S
Dy601 O604 2.298 . S
Dy601 O607 2.275 . S
Dy601 O609 2.307 1_655 S
Dy601 O611 2.395 . S
Dy601 O612 2.379 . S
Dy601 O615 2.339 . S
Dy601 C631 2.738 . S
C602 O614 1.254 . S
C602 O615 1.257 1_455 S
O603 Dy600 2.307 1_655 S
O603 C613 1.266 . S
O604 Dy601 2.298 . S
O604 C613 1.236 . S
O605 Dy600 2.395 . S
O605 C622 1.255 . S
O606 Dy600 2.379 . S
O606 C622 1.249 . S
O607 Dy601 2.275 . S
O607 C623 1.254 1_655 S
O608 Dy600 2.339 . S
O608 C623 1.257 . S
O609 Dy601 2.307 1_455 S
O609 C624 1.266 . S
O610 Dy600 2.298 . S
O610 C624 1.236 . S
O611 Dy601 2.395 . S
O611 C631 1.255 . S
O612 Dy601 2.379 . S
O612 C631 1.249 . S
C613 O603 1.266 . S
C613 O604 1.236 . S
O614 Dy600 2.275 . S
O614 C602 1.254 . S
O615 Dy601 2.339 . S
O615 C602 1.257 1_655 S
C616 C619 1.344 . S
C616 C620 1.328 . S
C616 C622 1.516 . S
C617 C618 1.304 . S
C617 C621 1.323 . S
C618 C617 1.304 . S
C618 C619 1.371 . S
C618 H632 0.930 . S
C619 C616 1.344 . S
C619 C618 1.371 . S
C619 H633 0.931 . S
C620 C616 1.328 . S
C620 C621 1.433 . S
C620 H634 0.931 . S
C621 C617 1.323 . S
C621 C620 1.433 . S
C621 H635 0.933 . S
C622 Dy600 2.738 . S
C622 O605 1.255 . S
C622 O606 1.249 . S
C622 C616 1.516 . S
C623 O607 1.254 1_455 S
C623 O608 1.257 . S
C624 O609 1.266 . S
C624 O610 1.236 . S
C625 C628 1.344 . S
C625 C629 1.328 . S
C625 C631 1.516 . S
C626 C627 1.304 1_554 S
C626 C630 1.323 1_554 S
C627 C626 1.304 1_556 S
C627 C628 1.371 . S
C627 H636 0.930 1_556 S
C628 C625 1.344 . S
C628 C627 1.371 . S
C628 H637 0.931 . S
C629 C625 1.328 . S
C629 C630 1.433 . S
C629 H638 0.931 . S
C630 C626 1.323 1_556 S
C630 C629 1.433 . S
C630 H639 0.933 . S
C631 Dy601 2.738 . S
C631 O611 1.255 . S
C631 O612 1.249 . S
C631 C625 1.516 . S
H632 C618 0.930 . S
H633 C619 0.931 . S
H634 C620 0.931 . S
H635 C621 0.933 . S
H636 C627 0.930 1_554 S
H637 C628 0.931 . S
H638 C629 0.931 . S
H639 C630 0.933 . S
H640 C652 0.930 . S
H641 C654 0.930 . S
H642 C655 0.930 . S
H643 C659 0.959 . S
H644 C659 0.959 . S
H645 C659 0.961 . S
H646 C660 0.960 . S
H647 C660 0.961 . S
H648 C660 0.959 . S
H649 C663 0.929 . S
H650 C664 0.931 . S
H651 C666 0.930 . S
C652 H640 0.930 . S
C652 C653 1.399 1_545 S
C652 C657 1.399 . S
C653 C652 1.399 1_565 S
C653 C654 1.376 . S
C654 H641 0.930 . S
C654 C653 1.376 . S
C654 C655 1.388 . S
C655 H642 0.930 . S
C655 C654 1.388 . S
C655 C656 1.390 . S
C656 C655 1.390 . S
C656 C657 1.394 1_565 S
C656 C662 1.465 . S
C657 C652 1.399 . S
C657 C656 1.394 1_545 S
C657 C658 1.516 . S
C658 C657 1.516 . S
C658 C659 1.502 . S
C658 C660 1.561 . S
C658 C661 1.526 . S
C659 H643 0.959 . S
C659 H644 0.959 . S
C659 H645 0.961 . S
C659 C658 1.502 . S
C660 H646 0.960 . S
C660 H647 0.961 . S
C660 H648 0.959 . S
C660 C658 1.561 . S
C661 C658 1.526 . S
C661 C662 1.396 1_545 S
C661 C666 1.390 . S
C662 C656 1.465 . S
C662 C661 1.396 1_565 S
C662 C663 1.399 . S
C663 H649 0.929 . S
C663 C662 1.399 . S
C663 C664 1.385 . S
C664 H650 0.931 . S
C664 C663 1.385 . S
C664 C665 1.389 . S
C665 C664 1.389 . S
C665 C666 1.387 1_565 S
C666 H651 0.930 . S
C666 C661 1.390 . S
C666 C665 1.387 1_545 S
H667 C679 0.930 . S
H668 C681 0.930 . S
H669 C682 0.930 . S
H670 C686 0.959 . S
H671 C686 0.959 . S
H672 C686 0.961 . S
H673 C687 0.960 . S
H674 C687 0.961 . S
H675 C687 0.959 . S
H676 C690 0.929 . S
H677 C691 0.931 . S
H678 C693 0.930 . S
C679 H667 0.930 . S
C679 C680 1.399 . S
C679 C684 1.399 . S
C680 C679 1.399 . S
C680 C681 1.376 . S
C681 H668 0.930 . S
C681 C680 1.376 . S
C681 C682 1.388 . S
C682 H669 0.930 . S
C682 C681 1.388 . S
C682 C683 1.390 . S
C683 C682 1.390 . S
C683 C684 1.394 . S
C683 C689 1.465 . S
C684 C679 1.399 . S
C684 C683 1.394 . S
C684 C685 1.516 . S
C685 C684 1.516 . S
C685 C686 1.502 . S
C685 C687 1.561 . S
C685 C688 1.526 . S
C686 H670 0.959 . S
C686 H671 0.959 . S
C686 H672 0.961 . S
C686 C685 1.502 . S
C687 H673 0.960 . S
C687 H674 0.961 . S
C687 H675 0.959 . S
C687 C685 1.561 . S
C688 C685 1.526 . S
C688 C689 1.396 . S
C688 C693 1.390 . S
C689 C683 1.465 . S
C689 C688 1.396 . S
C689 C690 1.399 . S
C690 H676 0.929 . S
C690 C689 1.399 . S
C690 C691 1.385 . S
C691 H677 0.931 . S
C691 C690 1.385 . S
C691 C692 1.389 . S
C692 C691 1.389 . S
C692 C693 1.387 . S
C693 H678 0.930 . S
C693 C688 1.390 . S
C693 C692 1.387 . S
H694 C706 0.930 . S
H695 C708 0.930 . S
H696 C709 0.930 . S
H697 C713 0.959 . S
H698 C713 0.959 . S
H699 C713 0.961 . S
H700 C714 0.960 . S
H701 C714 0.961 . S
H702 C714 0.959 . S
H703 C717 0.929 . S
H704 C718 0.931 . S
H705 C720 0.930 . S
C706 H694 0.930 . S
C706 C707 1.399 . S
C706 C711 1.399 . S
C707 C706 1.399 . S
C707 C708 1.376 . S
C708 H695 0.930 . S
C708 C707 1.376 . S
C708 C709 1.388 . S
C709 H696 0.930 . S
C709 C708 1.388 . S
C709 C710 1.390 . S
C710 C709 1.390 . S
C710 C711 1.394 . S
C710 C716 1.465 . S
C711 C706 1.399 . S
C711 C710 1.394 . S
C711 C712 1.516 . S
C712 C711 1.516 . S
C712 C713 1.502 . S
C712 C714 1.561 . S
C712 C715 1.526 . S
C713 H697 0.959 . S
C713 H698 0.959 . S
C713 H699 0.961 . S
C713 C712 1.502 . S
C714 H700 0.960 . S
C714 H701 0.961 . S
C714 H702 0.959 . S
C714 C712 1.561 . S
C715 C712 1.526 . S
C715 C716 1.396 . S
C715 C720 1.390 . S
C716 C710 1.465 . S
C716 C715 1.396 . S
C716 C717 1.399 . S
C717 H703 0.929 . S
C717 C716 1.399 . S
C717 C718 1.385 . S
C718 H704 0.931 . S
C718 C717 1.385 . S
C718 C719 1.389 . S
C719 C718 1.389 . S
C719 C720 1.387 . S
C720 H705 0.930 . S
C720 C715 1.390 . S
C720 C719 1.387 . S
H721 C733 0.930 1_655 S
H722 C735 0.930 . S
H723 C736 0.930 . S
H724 C740 0.959 . S
H725 C740 0.959 . S
H726 C740 0.961 . S
H727 C741 0.960 . S
H728 C741 0.961 . S
H729 C741 0.959 . S
H730 C744 0.929 . S
H731 C745 0.931 . S
H732 C747 0.930 1_655 S
C733 H721 0.930 1_455 S
C733 C734 1.399 . S
C733 C738 1.399 . S
C734 C733 1.399 . S
C734 C735 1.376 . S
C735 H722 0.930 . S
C735 C734 1.376 . S
C735 C736 1.388 . S
C736 H723 0.930 . S
C736 C735 1.388 . S
C736 C737 1.390 . S
C737 C736 1.390 . S
C737 C738 1.394 . S
C737 C743 1.465 . S
C738 C733 1.399 . S
C738 C737 1.394 . S
C738 C739 1.518 . S
C739 C738 1.518 . S
C739 C740 1.493 1_455 S
C739 C741 1.566 . S
C739 C742 1.529 . S
C740 H724 0.959 . S
C740 H725 0.959 . S
C740 H726 0.961 . S
C740 C739 1.493 1_655 S
C741 H727 0.960 . S
C741 H728 0.961 . S
C741 H729 0.959 . S
C741 C739 1.566 . S
C742 C739 1.529 . S
C742 C743 1.396 . S
C742 C747 1.390 . S
C743 C737 1.465 . S
C743 C742 1.396 . S
C743 C744 1.399 . S
C744 H730 0.929 . S
C744 C743 1.399 . S
C744 C745 1.385 . S
C745 H731 0.931 . S
C745 C744 1.385 . S
C745 C746 1.389 . S
C746 C745 1.389 . S
C746 C747 1.387 . S
C747 H732 0.930 1_455 S
C747 C742 1.390 . S
C747 C746 1.387 . S
H748 C760 0.930 . S
H749 C762 0.930 . S
H750 C763 0.930 . S
H751 C767 0.959 . S
H752 C767 0.965 . S
H753 C767 0.961 . S
H754 C768 0.959 . S
H755 C768 0.961 . S
H756 C768 0.959 . S
H757 C771 0.929 . S
H758 C772 0.931 . S
H759 C774 0.930 . S
C760 H748 0.930 . S
C760 C761 1.399 1_565 S
C760 C765 1.399 . S
C761 C760 1.399 1_545 S
C761 C762 1.376 . S
C762 H749 0.930 . S
C762 C761 1.376 . S
C762 C763 1.388 . S
C763 H750 0.930 . S
C763 C762 1.388 . S
C763 C764 1.390 . S
C764 C763 1.390 . S
C764 C765 1.394 1_545 S
C764 C770 1.465 1_554 S
C765 C760 1.399 . S
C765 C764 1.394 1_565 S
C765 C766 1.516 . S
C766 C765 1.516 . S
C766 C767 1.502 . S
C766 C768 1.561 1_554 S
C766 C769 1.526 1_554 S
C767 H751 0.959 . S
C767 H752 0.965 . S
C767 H753 0.961 . S
C767 C766 1.502 . S
C768 H754 0.959 . S
C768 H755 0.961 . S
C768 H756 0.959 . S
C768 C766 1.561 1_556 S
C769 C766 1.526 1_556 S
C769 C770 1.396 1_565 S
C769 C774 1.390 . S
C770 C764 1.465 1_556 S
C770 C769 1.396 1_545 S
C770 C771 1.399 . S
C771 H757 0.929 . S
C771 C770 1.399 . S
C771 C772 1.385 . S
C772 H758 0.931 . S
C772 C771 1.385 . S
C772 C773 1.389 . S
C773 C772 1.389 . S
C773 C774 1.387 1_545 S
C774 H759 0.930 . S
C774 C769 1.390 . S
C774 C773 1.387 1_565 S
H775 C787 0.930 . S
H776 C789 0.930 . S
H777 C790 0.930 . S
H778 C794 0.959 . S
H779 C794 0.959 . S
H780 C794 0.961 . S
H781 C795 0.960 . S
H782 C795 0.961 . S
H783 C795 0.959 . S
H784 C798 0.929 . S
H785 C799 0.931 . S
H786 C801 0.930 . S
C787 H775 0.930 . S
C787 C788 1.399 1_556 S
C787 C792 1.399 . S
C788 C787 1.399 1_554 S
C788 C789 1.376 . S
C789 H776 0.930 . S
C789 C788 1.376 . S
C789 C790 1.388 . S
C790 H777 0.930 . S
C790 C789 1.388 . S
C790 C791 1.390 1_554 S
C791 C790 1.390 1_556 S
C791 C792 1.394 . S
C791 C797 1.465 . S
C792 C787 1.399 . S
C792 C791 1.394 . S
C792 C793 1.516 . S
C793 C792 1.516 . S
C793 C794 1.502 . S
C793 C795 1.561 . S
C793 C796 1.526 . S
C794 H778 0.959 . S
C794 H779 0.959 . S
C794 H780 0.961 . S
C794 C793 1.502 . S
C795 H781 0.960 . S
C795 H782 0.961 . S
C795 H783 0.959 . S
C795 C793 1.561 . S
C796 C793 1.526 . S
C796 C797 1.396 . S
C796 C801 1.390 . S
C797 C791 1.465 . S
C797 C796 1.396 . S
C797 C798 1.399 . S
C798 H784 0.929 . S
C798 C797 1.399 . S
C798 C799 1.385 . S
C799 H785 0.931 . S
C799 C798 1.385 . S
C799 C800 1.389 . S
C800 C799 1.389 . S
C800 C801 1.387 . S
C801 H786 0.930 . S
C801 C796 1.390 . S
C801 C800 1.387 . S
H802 C814 0.930 . S
H803 C816 0.930 . S
H804 C817 0.930 . S
H805 C821 0.959 . S
H806 C821 0.959 . S
H807 C821 0.961 . S
H808 C822 0.960 . S
H809 C822 0.961 . S
H810 C822 0.959 . S
H811 C825 0.929 . S
H812 C826 0.931 . S
H813 C828 0.930 . S
C814 H802 0.930 . S
C814 C815 1.399 . S
C814 C819 1.399 . S
C815 C814 1.399 . S
C815 C816 1.376 . S
C816 H803 0.930 . S
C816 C815 1.376 . S
C816 C817 1.388 . S
C817 H804 0.930 . S
C817 C816 1.388 . S
C817 C818 1.390 . S
C818 C817 1.390 . S
C818 C819 1.394 . S
C818 C824 1.465 . S
C819 C814 1.399 . S
C819 C818 1.394 . S
C819 C820 1.516 . S
C820 C819 1.516 . S
C820 C821 1.502 . S
C820 C822 1.561 . S
C820 C823 1.526 . S
C821 H805 0.959 . S
C821 H806 0.959 . S
C821 H807 0.961 . S
C821 C820 1.502 . S
C822 H808 0.960 . S
C822 H809 0.961 . S
C822 H810 0.959 . S
C822 C820 1.561 . S
C823 C820 1.526 . S
C823 C824 1.396 . S
C823 C828 1.390 . S
C824 C818 1.465 . S
C824 C823 1.396 . S
C824 C825 1.399 . S
C825 H811 0.929 . S
C825 C824 1.399 . S
C825 C826 1.385 . S
C826 H812 0.931 . S
C826 C825 1.385 . S
C826 C827 1.389 . S
C827 C826 1.389 . S
C827 C828 1.387 . S
C828 H813 0.930 . S
C828 C823 1.390 . S
C828 C827 1.387 . S
H829 C841 0.930 . S
H830 C843 0.930 . S
H831 C844 0.930 . S
H832 C848 0.959 . S
H833 C848 0.959 1_556 S
H834 C848 0.961 . S
H835 C849 0.960 . S
H836 C849 0.961 1_556 S
H837 C849 0.959 . S
H838 C852 0.929 1_554 S
H839 C853 0.931 . S
H840 C855 0.930 . S
C841 H829 0.930 . S
C841 C842 1.399 . S
C841 C846 1.399 . S
C842 C841 1.399 . S
C842 C843 1.376 1_655 S
C843 H830 0.930 . S
C843 C842 1.376 1_455 S
C843 C844 1.388 . S
C844 H831 0.930 . S
C844 C843 1.388 . S
C844 C845 1.390 . S
C845 C844 1.390 . S
C845 C846 1.394 1_455 S
C845 C851 1.465 . S
C846 C841 1.399 . S
C846 C845 1.394 1_655 S
C846 C847 1.516 . S
C847 C846 1.516 . S
C847 C848 1.502 . S
C847 C849 1.561 1_655 S
C847 C850 1.526 1_554 S
C848 H832 0.959 . S
C848 H833 0.959 1_554 S
C848 H834 0.961 . S
C848 C847 1.502 . S
C849 H835 0.960 . S
C849 H836 0.961 1_554 S
C849 H837 0.959 . S
C849 C847 1.561 1_455 S
C850 C847 1.526 1_556 S
C850 C851 1.396 1_656 S
C850 C855 1.390 . S
C851 C845 1.465 . S
C851 C850 1.396 1_454 S
C851 C852 1.399 1_554 S
C852 H838 0.929 1_556 S
C852 C851 1.399 1_556 S
C852 C853 1.385 . S
C853 H839 0.931 . S
C853 C852 1.385 . S
C853 C854 1.389 1_455 S
C854 C853 1.389 1_655 S
C854 C855 1.387 . S
C855 H840 0.930 . S
C855 C850 1.390 . S
C855 C854 1.387 . S
H856 C868 0.930 . S
H857 C870 0.930 . S
H858 C871 0.930 . S
H859 C875 0.959 . S
H860 C875 0.959 . S
H861 C875 0.961 . S
H862 C876 0.960 . S
H863 C876 0.961 . S
H864 C876 0.959 . S
H865 C879 0.929 . S
H866 C880 0.931 . S
H867 C882 0.930 1_455 S
C868 H856 0.930 . S
C868 C869 1.399 . S
C868 C873 1.399 . S
C869 C868 1.399 . S
C869 C870 1.376 1_455 S
C870 H857 0.930 . S
C870 C869 1.376 1_655 S
C870 C871 1.388 . S
C871 H858 0.930 . S
C871 C870 1.388 . S
C871 C872 1.390 . S
C872 C871 1.390 . S
C872 C873 1.394 1_655 S
C872 C878 1.465 . S
C873 C868 1.399 . S
C873 C872 1.394 1_455 S
C873 C874 1.516 . S
C874 C873 1.516 . S
C874 C875 1.502 . S
C874 C876 1.561 . S
C874 C877 1.506 1_455 S
C875 H859 0.959 . S
C875 H860 0.959 . S
C875 H861 0.961 . S
C875 C874 1.502 . S
C876 H862 0.960 . S
C876 H863 0.961 . S
C876 H864 0.959 . S
C876 C874 1.561 . S
C877 C874 1.506 1_655 S
C877 C878 1.415 . S
C877 C882 1.393 . S
C878 C872 1.465 . S
C878 C877 1.415 . S
C878 C879 1.399 . S
C879 H865 0.929 . S
C879 C878 1.399 . S
C879 C880 1.385 . S
C880 H866 0.931 . S
C880 C879 1.385 . S
C880 C881 1.389 . S
C881 C880 1.389 . S
C881 C882 1.387 . S
C882 H867 0.930 1_655 S
C882 C877 1.393 . S
C882 C881 1.387 . S
H883 C895 0.930 1_545 S
H884 C897 0.930 . S
H885 C898 0.930 . S
H886 C902 0.959 . S
H887 C902 0.959 . S
H888 C902 0.961 . S
H889 C903 0.960 . S
H890 C903 0.961 . S
H891 C903 0.959 . S
H892 C906 0.929 . S
H893 C907 0.931 . S
H894 C909 0.930 . S
C895 H883 0.930 1_565 S
C895 C896 1.400 . S
C895 C900 1.399 . S
C896 C895 1.400 . S
C896 C897 1.379 . S
C897 H884 0.930 . S
C897 C896 1.379 . S
C897 C898 1.388 . S
C898 H885 0.930 . S
C898 C897 1.388 . S
C898 C899 1.390 . S
C899 C898 1.390 . S
C899 C900 1.394 . S
C899 C905 1.465 . S
C900 C895 1.399 . S
C900 C899 1.394 . S
C900 C901 1.516 . S
C901 C900 1.516 . S
C901 C902 1.502 1_565 S
C901 C903 1.561 . S
C901 C904 1.526 . S
C902 H886 0.959 . S
C902 H887 0.959 . S
C902 H888 0.961 . S
C902 C901 1.502 1_545 S
C903 H889 0.960 . S
C903 H890 0.961 . S
C903 H891 0.959 . S
C903 C901 1.561 . S
C904 C901 1.526 . S
C904 C905 1.396 . S
C904 C909 1.390 . S
C905 C899 1.465 . S
C905 C904 1.396 . S
C905 C906 1.399 . S
C906 H892 0.929 . S
C906 C905 1.399 . S
C906 C907 1.385 . S
C907 H893 0.931 . S
C907 C906 1.385 . S
C907 C908 1.389 . S
C908 C907 1.389 . S
C908 C909 1.387 . S
C909 H894 0.930 . S
C909 C904 1.390 . S
C909 C908 1.387 . S
H910 C922 0.930 . S
H911 C924 0.930 . S
H912 C925 0.930 . S
H913 C929 0.959 . S
H914 C929 0.959 . S
H915 C929 0.961 . S
H916 C930 0.960 . S
H917 C930 0.961 . S
H918 C930 0.959 . S
H919 C933 0.929 . S
H920 C934 0.931 . S
H921 C936 0.930 . S
C922 H910 0.930 . S
C922 C923 1.399 . S
C922 C927 1.399 . S
C923 C922 1.399 . S
C923 C924 1.376 . S
C924 H911 0.930 . S
C924 C923 1.376 . S
C924 C925 1.388 . S
C925 H912 0.930 . S
C925 C924 1.388 . S
C925 C926 1.390 . S
C926 C925 1.390 . S
C926 C927 1.394 . S
C926 C932 1.465 . S
C927 C922 1.399 . S
C927 C926 1.394 . S
C927 C928 1.516 . S
C928 C927 1.516 . S
C928 C929 1.502 . S
C928 C930 1.561 . S
C928 C931 1.526 . S
C929 H913 0.959 . S
C929 H914 0.959 . S
C929 H915 0.961 . S
C929 C928 1.502 . S
C930 H916 0.960 . S
C930 H917 0.961 . S
C930 H918 0.959 . S
C930 C928 1.561 . S
C931 C928 1.526 . S
C931 C932 1.396 . S
C931 C936 1.390 . S
C932 C926 1.465 . S
C932 C931 1.396 . S
C932 C933 1.399 . S
C933 H919 0.929 . S
C933 C932 1.399 . S
C933 C934 1.385 . S
C934 H920 0.931 . S
C934 C933 1.385 . S
C934 C935 1.389 . S
C935 C934 1.389 . S
C935 C936 1.387 . S
C936 H921 0.930 . S
C936 C931 1.390 . S
C936 C935 1.387 . S
H937 C949 0.930 . S
H938 C951 0.930 . S
H939 C952 0.930 . S
H940 C956 0.959 . S
H941 C956 0.959 . S
H942 C956 0.961 . S
H943 C957 0.960 . S
H944 C957 0.961 . S
H945 C957 0.959 . S
H946 C960 0.929 . S
H947 C961 0.931 . S
H948 C963 0.930 . S
C949 H937 0.930 . S
C949 C950 1.399 . S
C949 C954 1.399 . S
C950 C949 1.399 . S
C950 C951 1.376 . S
C951 H938 0.930 . S
C951 C950 1.376 . S
C951 C952 1.388 . S
C952 H939 0.930 . S
C952 C951 1.388 . S
C952 C953 1.390 . S
C953 C952 1.390 . S
C953 C954 1.394 . S
C953 C959 1.465 . S
C954 C949 1.399 . S
C954 C953 1.394 . S
C954 C955 1.516 . S
C955 C954 1.516 . S
C955 C956 1.502 . S
C955 C957 1.561 . S
C955 C958 1.526 . S
C956 H940 0.959 . S
C956 H941 0.959 . S
C956 H942 0.961 . S
C956 C955 1.502 . S
C957 H943 0.960 . S
C957 H944 0.961 . S
C957 H945 0.959 . S
C957 C955 1.561 . S
C958 C955 1.526 . S
C958 C959 1.396 . S
C958 C963 1.390 . S
C959 C953 1.465 . S
C959 C958 1.396 . S
C959 C960 1.399 . S
C960 H946 0.929 . S
C960 C959 1.399 . S
C960 C961 1.385 . S
C961 H947 0.931 . S
C961 C960 1.385 . S
C961 C962 1.389 . S
C962 C961 1.389 . S
C962 C963 1.387 . S
C963 H948 0.930 . S
C963 C958 1.390 . S
C963 C962 1.387 . S
H964 C976 0.930 . S
H965 C978 0.930 . S
H966 C979 0.930 . S
H967 C983 0.959 . S
H968 C983 0.959 . S
H969 C983 0.961 . S
H970 C984 0.960 . S
H971 C984 0.961 . S
H972 C984 0.959 . S
H973 C987 0.929 . S
H974 C988 0.931 . S
H975 C990 0.930 . S
C976 H964 0.930 . S
C976 C977 1.399 . S
C976 C981 1.400 . S
C977 C976 1.399 . S
C977 C978 1.376 . S
C978 H965 0.930 . S
C978 C977 1.376 . S
C978 C979 1.388 1_655 S
C979 H966 0.930 . S
C979 C978 1.388 1_455 S
C979 C980 1.390 . S
C980 C979 1.390 . S
C980 C981 1.393 1_455 S
C980 C986 1.465 . S
C981 C976 1.400 . S
C981 C980 1.393 1_655 S
C981 C982 1.516 1_654 S
C982 C981 1.516 1_456 S
C982 C983 1.502 . S
C982 C984 1.561 1_455 S
C982 C985 1.527 . S
C983 H967 0.959 . S
C983 H968 0.959 . S
C983 H969 0.961 . S
C983 C982 1.502 . S
C984 H970 0.960 . S
C984 H971 0.961 . S
C984 H972 0.959 . S
C984 C982 1.561 1_655 S
C985 C982 1.527 . S
C985 C986 1.384 1_556 S
C985 C990 1.398 . S
C986 C980 1.465 . S
C986 C985 1.384 1_554 S
C986 C987 1.399 . S
C987 H973 0.929 . S
C987 C986 1.399 . S
C987 C988 1.385 . S
C988 H974 0.931 . S
C988 C987 1.385 . S
C988 C989 1.389 1_554 S
C989 C988 1.389 1_556 S
C989 C990 1.387 . S
C990 H975 0.930 . S
C990 C985 1.398 . S
C990 C989 1.387 . S
H991 C1003 0.930 . S
H992 C1005 0.930 . S
H993 C1006 0.930 . S
H994 C1010 0.959 1_545 S
H995 C1010 0.959 . S
H996 C1010 0.961 . S
H997 C1011 0.960 . S
H998 C1011 0.961 . S
H999 C1011 0.959 1_554 S
H1000 C1014 0.929 . S
H1001 C1015 0.931 . S
H1002 C1017 0.930 1_565 S
C1003 H991 0.930 . S
C1003 C1004 1.393 1_565 S
C1003 C1008 1.399 . S
C1004 C1003 1.393 1_545 S
C1004 C1005 1.386 . S
C1005 H992 0.930 . S
C1005 C1004 1.386 . S
C1005 C1006 1.388 . S
C1006 H993 0.930 . S
C1006 C1005 1.388 . S
C1006 C1007 1.390 . S
C1007 C1006 1.390 . S
C1007 C1008 1.394 1_545 S
C1007 C1013 1.465 . S
C1008 C1003 1.399 . S
C1008 C1007 1.394 1_565 S
C1008 C1009 1.516 1_554 S
C1009 C1008 1.516 1_556 S
C1009 C1010 1.502 . S
C1009 C1011 1.561 . S
C1009 C1012 1.526 1_565 S
C1010 H994 0.959 1_565 S
C1010 H995 0.959 . S
C1010 H996 0.961 . S
C1010 C1009 1.502 . S
C1011 H997 0.960 . S
C1011 H998 0.961 . S
C1011 H999 0.959 1_556 S
C1011 C1009 1.561 . S
C1012 C1009 1.526 1_545 S
C1012 C1013 1.396 1_556 S
C1012 C1017 1.390 . S
C1013 C1007 1.465 . S
C1013 C1012 1.396 1_554 S
C1013 C1014 1.399 . S
C1014 H1000 0.929 . S
C1014 C1013 1.399 . S
C1014 C1015 1.385 . S
C1015 H1001 0.931 . S
C1015 C1014 1.385 . S
C1015 C1016 1.389 1_554 S
C1016 C1015 1.389 1_556 S
C1016 C1017 1.387 . S
C1017 H1002 0.930 1_545 S
C1017 C1012 1.390 . S
C1017 C1016 1.387 . S
H1018 C1030 0.930 . S
H1019 C1032 0.930 . S
H1020 C1033 0.930 . S
H1021 C1037 0.959 . S
H1022 C1037 0.959 . S
H1023 C1037 0.961 . S
H1024 C1038 0.960 . S
H1025 C1038 0.961 . S
H1026 C1038 0.959 1_556 S
H1027 C1041 0.929 . S
H1028 C1042 0.931 . S
H1029 C1044 0.930 . S
C1030 H1018 0.930 . S
C1030 C1031 1.399 . S
C1030 C1035 1.399 . S
C1031 C1030 1.399 . S
C1031 C1032 1.376 . S
C1032 H1019 0.930 . S
C1032 C1031 1.376 . S
C1032 C1033 1.388 . S
C1033 H1020 0.930 . S
C1033 C1032 1.388 . S
C1033 C1034 1.390 . S
C1034 C1033 1.390 . S
C1034 C1035 1.394 . S
C1034 C1040 1.465 . S
C1035 C1030 1.399 . S
C1035 C1034 1.394 . S
C1035 C1036 1.516 . S
C1036 C1035 1.516 . S
C1036 C1037 1.502 . S
C1036 C1038 1.561 1_556 S
C1036 C1039 1.526 . S
C1037 H1021 0.959 . S
C1037 H1022 0.959 . S
C1037 H1023 0.961 . S
C1037 C1036 1.502 . S
C1038 H1024 0.960 . S
C1038 H1025 0.961 . S
C1038 H1026 0.959 1_554 S
C1038 C1036 1.561 1_554 S
C1039 C1036 1.526 . S
C1039 C1040 1.396 . S
C1039 C1044 1.390 . S
C1040 C1034 1.465 . S
C1040 C1039 1.396 . S
C1040 C1041 1.399 . S
C1041 H1027 0.929 . S
C1041 C1040 1.399 . S
C1041 C1042 1.385 . S
C1042 H1028 0.931 . S
C1042 C1041 1.385 . S
C1042 C1043 1.389 . S
C1043 C1042 1.389 . S
C1043 C1044 1.387 . S
C1044 H1029 0.930 . S
C1044 C1039 1.390 . S
C1044 C1043 1.387 . S
H1045 C1057 0.930 . S
H1046 C1059 0.930 . S
H1047 C1060 0.930 . S
H1048 C1064 0.959 . S
H1049 C1064 0.959 . S
H1050 C1064 0.961 . S
H1051 C1065 0.960 . S
H1052 C1065 0.961 . S
H1053 C1065 0.959 . S
H1054 C1068 0.929 . S
H1055 C1069 0.931 . S
H1056 C1071 0.930 . S
C1057 H1045 0.930 . S
C1057 C1058 1.399 . S
C1057 C1062 1.399 . S
C1058 C1057 1.399 . S
C1058 C1059 1.376 . S
C1059 H1046 0.930 . S
C1059 C1058 1.376 . S
C1059 C1060 1.388 . S
C1060 H1047 0.930 . S
C1060 C1059 1.388 . S
C1060 C1061 1.390 . S
C1061 C1060 1.390 . S
C1061 C1062 1.394 . S
C1061 C1067 1.465 . S
C1062 C1057 1.399 . S
C1062 C1061 1.394 . S
C1062 C1063 1.516 . S
C1063 C1062 1.516 . S
C1063 C1064 1.502 . S
C1063 C1065 1.561 . S
C1063 C1066 1.526 . S
C1064 H1048 0.959 . S
C1064 H1049 0.959 . S
C1064 H1050 0.961 . S
C1064 C1063 1.502 . S
C1065 H1051 0.960 . S
C1065 H1052 0.961 . S
C1065 H1053 0.959 . S
C1065 C1063 1.561 . S
C1066 C1063 1.526 . S
C1066 C1067 1.396 . S
C1066 C1071 1.390 . S
C1067 C1061 1.465 . S
C1067 C1066 1.396 . S
C1067 C1068 1.399 . S
C1068 H1054 0.929 . S
C1068 C1067 1.399 . S
C1068 C1069 1.385 1_554 S
C1069 H1055 0.931 . S
C1069 C1068 1.385 1_556 S
C1069 C1070 1.389 1_556 S
C1070 C1069 1.389 1_554 S
C1070 C1071 1.387 . S
C1071 H1056 0.930 . S
C1071 C1066 1.390 . S
C1071 C1070 1.387 . S
H1072 C1084 0.930 . S
H1073 C1086 0.927 1_655 S
H1074 C1087 0.930 1_655 S
H1075 C1091 0.959 . S
H1076 C1091 0.959 . S
H1077 C1091 0.961 . S
H1078 C1092 0.960 . S
H1079 C1092 0.961 . S
H1080 C1092 0.959 . S
H1081 C1095 0.929 1_655 S
H1082 C1096 0.931 . S
H1083 C1098 0.930 . S
C1084 H1072 0.930 . S
C1084 C1085 1.399 . S
C1084 C1089 1.399 . S
C1085 C1084 1.399 . S
C1085 C1086 1.376 . S
C1086 H1073 0.927 1_455 S
C1086 C1085 1.376 . S
C1086 C1087 1.388 . S
C1087 H1074 0.930 1_455 S
C1087 C1086 1.388 . S
C1087 C1088 1.390 . S
C1088 C1087 1.390 . S
C1088 C1089 1.394 . S
C1088 C1094 1.465 . S
C1089 C1084 1.399 . S
C1089 C1088 1.394 . S
C1089 C1090 1.516 . S
C1090 C1089 1.516 . S
C1090 C1091 1.502 . S
C1090 C1092 1.561 1_455 S
C1090 C1093 1.526 . S
C1091 H1075 0.959 . S
C1091 H1076 0.959 . S
C1091 H1077 0.961 . S
C1091 C1090 1.502 . S
C1092 H1078 0.960 . S
C1092 H1079 0.961 . S
C1092 H1080 0.959 . S
C1092 C1090 1.561 1_655 S
C1093 C1090 1.526 . S
C1093 C1094 1.396 . S
C1093 C1098 1.390 . S
C1094 C1088 1.465 . S
C1094 C1093 1.396 . S
C1094 C1095 1.399 . S
C1095 H1081 0.929 1_455 S
C1095 C1094 1.399 . S
C1095 C1096 1.385 . S
C1096 H1082 0.931 . S
C1096 C1095 1.385 . S
C1096 C1097 1.389 . S
C1097 C1096 1.389 . S
C1097 C1098 1.387 . S
C1098 H1083 0.930 . S
C1098 C1093 1.390 . S
C1098 C1097 1.387 . S
H1099 C1111 0.930 . S
H1100 C1113 0.930 . S
H1101 C1114 0.930 . S
H1102 C1118 0.959 . S
H1103 C1118 0.959 . S
H1104 C1118 0.961 . S
H1105 C1119 0.960 . S
H1106 C1119 0.961 . S
H1107 C1119 0.959 . S
H1108 C1122 0.929 . S
H1109 C1123 0.931 . S
H1110 C1125 0.930 . S
C1111 H1099 0.930 . S
C1111 C1112 1.367 1_545 S
C1111 C1116 1.399 . S
C1112 C1111 1.367 1_565 S
C1112 C1113 1.410 . S
C1113 H1100 0.930 . S
C1113 C1112 1.410 . S
C1113 C1114 1.388 . S
C1114 H1101 0.930 . S
C1114 C1113 1.388 . S
C1114 C1115 1.390 . S
C1115 C1114 1.390 . S
C1115 C1116 1.394 1_565 S
C1115 C1121 1.465 . S
C1116 C1111 1.399 . S
C1116 C1115 1.394 1_545 S
C1116 C1117 1.516 . S
C1117 C1116 1.516 . S
C1117 C1118 1.502 . S
C1117 C1119 1.561 . S
C1117 C1120 1.526 . S
C1118 H1102 0.959 . S
C1118 H1103 0.959 . S
C1118 H1104 0.961 . S
C1118 C1117 1.502 . S
C1119 H1105 0.960 . S
C1119 H1106 0.961 . S
C1119 H1107 0.959 . S
C1119 C1117 1.561 . S
C1120 C1117 1.526 . S
C1120 C1121 1.396 1_545 S
C1120 C1125 1.390 . S
C1121 C1115 1.465 . S
C1121 C1120 1.396 1_565 S
C1121 C1122 1.399 . S
C1122 H1108 0.929 . S
C1122 C1121 1.399 . S
C1122 C1123 1.385 . S
C1123 H1109 0.931 . S
C1123 C1122 1.385 . S
C1123 C1124 1.389 1_565 S
C1124 C1123 1.389 1_545 S
C1124 C1125 1.387 . S
C1125 H1110 0.930 . S
C1125 C1120 1.390 . S
C1125 C1124 1.387 . S
H1126 C1138 0.930 . S
H1127 C1140 0.930 . S
H1128 C1141 0.930 . S
H1129 C1145 0.959 . S
H1130 C1145 0.959 . S
H1131 C1145 0.961 . S
H1132 C1146 0.960 . S
H1133 C1146 0.961 . S
H1134 C1146 0.959 . S
H1135 C1149 0.929 1_554 S
H1136 C1150 0.931 . S
H1137 C1152 0.930 . S
C1138 H1126 0.930 . S
C1138 C1139 1.399 1_556 S
C1138 C1143 1.399 . S
C1139 C1138 1.399 1_554 S
C1139 C1140 1.376 . S
C1140 H1127 0.930 . S
C1140 C1139 1.376 . S
C1140 C1141 1.388 . S
C1141 H1128 0.930 . S
C1141 C1140 1.388 . S
C1141 C1142 1.390 . S
C1142 C1141 1.390 . S
C1142 C1143 1.394 1_554 S
C1142 C1148 1.465 1_554 S
C1143 C1138 1.399 . S
C1143 C1142 1.394 1_556 S
C1143 C1144 1.516 . S
C1144 C1143 1.516 . S
C1144 C1145 1.502 . S
C1144 C1146 1.561 . S
C1144 C1147 1.526 . S
C1145 H1129 0.959 . S
C1145 H1130 0.959 . S
C1145 H1131 0.961 . S
C1145 C1144 1.502 . S
C1146 H1132 0.960 . S
C1146 H1133 0.961 . S
C1146 H1134 0.959 . S
C1146 C1144 1.561 . S
C1147 C1144 1.526 . S
C1147 C1148 1.396 . S
C1147 C1152 1.390 . S
C1148 C1142 1.465 1_556 S
C1148 C1147 1.396 . S
C1148 C1149 1.399 . S
C1149 H1135 0.929 1_556 S
C1149 C1148 1.399 . S
C1149 C1150 1.385 . S
C1150 H1136 0.931 . S
C1150 C1149 1.385 . S
C1150 C1151 1.389 . S
C1151 C1150 1.389 . S
C1151 C1152 1.387 . S
C1152 H1137 0.930 . S
C1152 C1147 1.390 . S
C1152 C1151 1.387 . S
H1153 C1165 0.930 . S
H1154 C1167 0.930 . S
H1155 C1168 0.930 . S
H1156 C1172 0.959 . S
H1157 C1172 0.959 . S
H1158 C1172 0.961 . S
H1159 C1173 0.960 . S
H1160 C1173 0.961 . S
H1161 C1173 0.959 . S
H1162 C1176 0.929 . S
H1163 C1177 0.931 . S
H1164 C1179 0.930 . S
C1165 H1153 0.930 . S
C1165 C1166 1.399 . S
C1165 C1170 1.399 . S
C1166 C1165 1.399 . S
C1166 C1167 1.376 . S
C1167 H1154 0.930 . S
C1167 C1166 1.376 . S
C1167 C1168 1.388 . S
C1168 H1155 0.930 . S
C1168 C1167 1.388 . S
C1168 C1169 1.390 . S
C1169 C1168 1.390 . S
C1169 C1170 1.394 . S
C1169 C1175 1.465 . S
C1170 C1165 1.399 . S
C1170 C1169 1.394 . S
C1170 C1171 1.516 . S
C1171 C1170 1.516 . S
C1171 C1172 1.502 . S
C1171 C1173 1.561 . S
C1171 C1174 1.526 . S
C1172 H1156 0.959 . S
C1172 H1157 0.959 . S
C1172 H1158 0.961 . S
C1172 C1171 1.502 . S
C1173 H1159 0.960 . S
C1173 H1160 0.961 . S
C1173 H1161 0.959 . S
C1173 C1171 1.561 . S
C1174 C1171 1.526 . S
C1174 C1175 1.396 . S
C1174 C1179 1.390 . S
C1175 C1169 1.465 . S
C1175 C1174 1.396 . S
C1175 C1176 1.399 . S
C1176 H1162 0.929 . S
C1176 C1175 1.399 . S
C1176 C1177 1.385 . S
C1177 H1163 0.931 . S
C1177 C1176 1.385 . S
C1177 C1178 1.389 . S
C1178 C1177 1.389 . S
C1178 C1179 1.387 . S
C1179 H1164 0.930 . S
C1179 C1174 1.390 . S
C1179 C1178 1.387 . S
H1180 C1192 0.918 1_455 S
H1181 C1194 0.930 . S
H1182 C1195 0.930 . S
H1183 C1199 0.959 . S
H1184 C1199 0.959 . S
H1185 C1199 0.961 . S
H1186 C1200 0.960 . S
H1187 C1200 0.961 . S
H1188 C1200 0.959 . S
H1189 C1203 0.929 . S
H1190 C1204 0.931 . S
H1191 C1206 0.930 1_455 S
C1192 H1180 0.918 1_655 S
C1192 C1193 1.413 . S
C1192 C1197 1.400 . S
C1193 C1192 1.413 . S
C1193 C1194 1.376 . S
C1194 H1181 0.930 . S
C1194 C1193 1.376 . S
C1194 C1195 1.388 . S
C1195 H1182 0.930 . S
C1195 C1194 1.388 . S
C1195 C1196 1.390 . S
C1196 C1195 1.390 . S
C1196 C1197 1.394 . S
C1196 C1202 1.465 . S
C1197 C1192 1.400 . S
C1197 C1196 1.394 . S
C1197 C1198 1.516 1_655 S
C1198 C1197 1.516 1_455 S
C1198 C1199 1.502 . S
C1198 C1200 1.561 1_455 S
C1198 C1201 1.526 1_455 S
C1199 H1183 0.959 . S
C1199 H1184 0.959 . S
C1199 H1185 0.961 . S
C1199 C1198 1.502 . S
C1200 H1186 0.960 . S
C1200 H1187 0.961 . S
C1200 H1188 0.959 . S
C1200 C1198 1.561 1_655 S
C1201 C1198 1.526 1_655 S
C1201 C1202 1.396 . S
C1201 C1206 1.390 . S
C1202 C1196 1.465 . S
C1202 C1201 1.396 . S
C1202 C1203 1.399 . S
C1203 H1189 0.929 . S
C1203 C1202 1.399 . S
C1203 C1204 1.385 . S
C1204 H1190 0.931 . S
C1204 C1203 1.385 . S
C1204 C1205 1.389 . S
C1205 C1204 1.389 . S
C1205 C1206 1.387 . S
C1206 H1191 0.930 1_655 S
C1206 C1201 1.390 . S
C1206 C1205 1.387 . S
H1207 C1219 0.930 . S
H1208 C1221 0.930 . S
H1209 C1222 0.930 . S
H1210 C1226 0.959 . S
H1211 C1226 0.959 . S
H1212 C1226 0.961 . S
H1213 C1227 0.960 . S
H1214 C1227 0.961 . S
H1215 C1227 0.959 . S
H1216 C1230 0.929 . S
H1217 C1231 0.931 . S
H1218 C1233 0.930 . S
C1219 H1207 0.930 . S
C1219 C1220 1.399 1_545 S
C1219 C1224 1.399 . S
C1220 C1219 1.399 1_565 S
C1220 C1221 1.376 . S
C1221 H1208 0.930 . S
C1221 C1220 1.376 . S
C1221 C1222 1.388 . S
C1222 H1209 0.930 . S
C1222 C1221 1.388 . S
C1222 C1223 1.390 . S
C1223 C1222 1.390 . S
C1223 C1224 1.394 1_565 S
C1223 C1229 1.465 . S
C1224 C1219 1.399 . S
C1224 C1223 1.394 1_545 S
C1224 C1225 1.516 . S
C1225 C1224 1.516 . S
C1225 C1226 1.502 . S
C1225 C1227 1.561 . S
C1225 C1228 1.526 . S
C1226 H1210 0.959 . S
C1226 H1211 0.959 . S
C1226 H1212 0.961 . S
C1226 C1225 1.502 . S
C1227 H1213 0.960 . S
C1227 H1214 0.961 . S
C1227 H1215 0.959 . S
C1227 C1225 1.561 . S
C1228 C1225 1.526 . S
C1228 C1229 1.396 1_545 S
C1228 C1233 1.390 . S
C1229 C1223 1.465 . S
C1229 C1228 1.396 1_565 S
C1229 C1230 1.399 . S
C1230 H1216 0.929 . S
C1230 C1229 1.399 . S
C1230 C1231 1.385 . S
C1231 H1217 0.931 . S
C1231 C1230 1.385 . S
C1231 C1232 1.389 . S
C1232 C1231 1.389 . S
C1232 C1233 1.387 1_565 S
C1233 H1218 0.930 . S
C1233 C1228 1.390 . S
C1233 C1232 1.387 1_545 S
H1234 C1246 0.930 . S
H1235 C1248 0.930 . S
H1236 C1249 0.930 . S
H1237 C1253 0.959 . S
H1238 C1253 0.959 . S
H1239 C1253 0.961 . S
H1240 C1254 0.960 . S
H1241 C1254 0.961 . S
H1242 C1254 0.959 . S
H1243 C1257 0.929 . S
H1244 C1258 0.931 . S
H1245 C1260 0.930 . S
C1246 H1234 0.930 . S
C1246 C1247 1.399 . S
C1246 C1251 1.399 . S
C1247 C1246 1.399 . S
C1247 C1248 1.376 . S
C1248 H1235 0.930 . S
C1248 C1247 1.376 . S
C1248 C1249 1.388 . S
C1249 H1236 0.930 . S
C1249 C1248 1.388 . S
C1249 C1250 1.390 . S
C1250 C1249 1.390 . S
C1250 C1251 1.394 . S
C1250 C1256 1.465 . S
C1251 C1246 1.399 . S
C1251 C1250 1.394 . S
C1251 C1252 1.516 . S
C1252 C1251 1.516 . S
C1252 C1253 1.502 . S
C1252 C1254 1.561 . S
C1252 C1255 1.526 . S
C1253 H1237 0.959 . S
C1253 H1238 0.959 . S
C1253 H1239 0.961 . S
C1253 C1252 1.502 . S
C1254 H1240 0.960 . S
C1254 H1241 0.961 . S
C1254 H1242 0.959 . S
C1254 C1252 1.561 . S
C1255 C1252 1.526 . S
C1255 C1256 1.396 . S
C1255 C1260 1.390 . S
C1256 C1250 1.465 . S
C1256 C1255 1.396 . S
C1256 C1257 1.399 . S
C1257 H1243 0.929 . S
C1257 C1256 1.399 . S
C1257 C1258 1.385 . S
C1258 H1244 0.931 . S
C1258 C1257 1.385 . S
C1258 C1259 1.389 . S
C1259 C1258 1.389 . S
C1259 C1260 1.387 . S
C1260 H1245 0.930 . S
C1260 C1255 1.390 . S
C1260 C1259 1.387 . S
H1261 C1273 0.930 . S
H1262 C1275 0.930 . S
H1263 C1276 0.930 . S
H1264 C1280 0.959 . S
H1265 C1280 0.959 . S
H1266 C1280 0.961 . S
H1267 C1281 0.960 . S
H1268 C1281 0.961 . S
H1269 C1281 0.959 . S
H1270 C1284 0.929 . S
H1271 C1285 0.931 . S
H1272 C1287 0.930 . S
C1273 H1261 0.930 . S
C1273 C1274 1.399 . S
C1273 C1278 1.399 . S
C1274 C1273 1.399 . S
C1274 C1275 1.376 . S
C1275 H1262 0.930 . S
C1275 C1274 1.376 . S
C1275 C1276 1.388 . S
C1276 H1263 0.930 . S
C1276 C1275 1.388 . S
C1276 C1277 1.390 . S
C1277 C1276 1.390 . S
C1277 C1278 1.394 . S
C1277 C1283 1.465 . S
C1278 C1273 1.399 . S
C1278 C1277 1.394 . S
C1278 C1279 1.516 . S
C1279 C1278 1.516 . S
C1279 C1280 1.502 . S
C1279 C1281 1.561 . S
C1279 C1282 1.526 . S
C1280 H1264 0.959 . S
C1280 H1265 0.959 . S
C1280 H1266 0.961 . S
C1280 C1279 1.502 . S
C1281 H1267 0.960 . S
C1281 H1268 0.961 . S
C1281 H1269 0.959 . S
C1281 C1279 1.561 . S
C1282 C1279 1.526 . S
C1282 C1283 1.396 . S
C1282 C1287 1.390 . S
C1283 C1277 1.465 . S
C1283 C1282 1.396 . S
C1283 C1284 1.399 . S
C1284 H1270 0.929 . S
C1284 C1283 1.399 . S
C1284 C1285 1.385 . S
C1285 H1271 0.931 . S
C1285 C1284 1.385 . S
C1285 C1286 1.389 . S
C1286 C1285 1.389 . S
C1286 C1287 1.387 . S
C1287 H1272 0.930 . S
C1287 C1282 1.390 . S
C1287 C1286 1.387 . S
C653 C391 2.136 1_565 S
C665 C482 2.122 . S
C692 C522 2.137 . S
C680 C451 2.132 . S
C719 C586 2.497 . S
C707 C241 2.227 . S
C746 C602 2.167 . S
C734 C331 1.823 . S
C773 C503 2.127 . S
C761 C121 1.886 1_545 S
C788 C211 2.078 . S
C800 C543 2.141 . S
C815 C31 2.483 . S
C827 C577 2.521 1_554 S
C842 C91 1.837 . S
C854 C623 2.154 1_655 S
C881 C497 0.547 . S
C869 C301 0.473 . S
C908 C537 0.619 . S
C896 C380 0.506 1_565 S
C935 C573 0.396 . S
C923 C440 0.510 . S
C950 C260 0.740 . S
C962 C617 0.557 . S
C977 C61 0.277 . S
C989 C506 0.449 . S
C1016 C546 0.645 . S
C1004 C140 0.490 1_545 S
C1043 C584 0.484 . S
C1031 C200 0.497 . S
C1058 C20 0.716 . S
C1070 C626 0.605 . S
C1085 C320 2.767 . S
C1097 C504 2.916 . S
C1112 C361 2.227 1_565 S
C1124 C544 2.716 . S
C1151 C562 1.996 . S
C1139 C421 1.734 . S
C1178 C624 3.327 . S
C1166 C271 3.095 . S
C1193 C80 2.761 . S
C1205 C493 2.935 . S
C1232 C533 2.743 . S
C1220 C151 2.538 . S
C1259 C583 1.995 . S
C1247 C181 1.682 . S
C1274 C1 2.740 . S
C1286 C613 3.341 . S
