# Generated by pormake.
# Topology zzz, (3,6)-cn, num edge types: 1
# Building blocks:
#     Node 0, Type 0, BuildingBlock: PAMTOO_clean_linker_0, # of connection points: 3
#     Node 1, Type 0, BuildingBlock: PAMTOO_clean_linker_0, # of connection points: 3
#     Node 2, Type 0, BuildingBlock: PAMTOO_clean_linker_0, # of connection points: 3
#     Node 3, Type 0, BuildingBlock: PAMTOO_clean_linker_0, # of connection points: 3
#     Node 4, Type 0, BuildingBlock: PAMTOO_clean_linker_0, # of connection points: 3
#     Node 5, Type 0, BuildingBlock: PAMTOO_clean_linker_0, # of connection points: 3
#     Node 6, Type 0, BuildingBlock: PAMTOO_clean_linker_0, # of connection points: 3
#     Node 7, Type 0, BuildingBlock: PAMTOO_clean_linker_0, # of connection points: 3
#     Node 8, Type 1, BuildingBlock: KUMJIN_clean_sbu_1, # of connection points: 6
#     Node 9, Type 1, BuildingBlock: KUMJIN_clean_sbu_1, # of connection points: 6
#     Node 10, Type 1, BuildingBlock: KUMJIN_clean_sbu_1, # of connection points: 6
#     Node 11, Type 1, BuildingBlock: KUMJIN_clean_sbu_1, # of connection points: 6
#     Edge 12, Type (0, 1), None
#     Edge 13, Type (0, 1), None
#     Edge 14, Type (0, 1), None
#     Edge 15, Type (0, 1), None
#     Edge 16, Type (0, 1), None
#     Edge 17, Type (0, 1), None
#     Edge 18, Type (0, 1), None
#     Edge 19, Type (0, 1), None
#     Edge 20, Type (0, 1), None
#     Edge 21, Type (0, 1), None
#     Edge 22, Type (0, 1), None
#     Edge 23, Type (0, 1), None
#     Edge 24, Type (0, 1), None
#     Edge 25, Type (0, 1), None
#     Edge 26, Type (0, 1), None
#     Edge 27, Type (0, 1), None
#     Edge 28, Type (0, 1), None
#     Edge 29, Type (0, 1), None
#     Edge 30, Type (0, 1), None
#     Edge 31, Type (0, 1), None
#     Edge 32, Type (0, 1), None
#     Edge 33, Type (0, 1), None
#     Edge 34, Type (0, 1), None
#     Edge 35, Type (0, 1), None
# Relax obj value: 0.436
# Max RMSD: 0.167
# Mean RMSD: 0.087
data_MOF--net-zzz--node1-KUMJIN_clean_sbu_1--node2-PAMTOO_clean_linker_0--edge1-none
_symmetry_space_group_name_H-M    P1
_symmetry_Int_Tables_number       1
_symmetry_cell_setting            triclinic
loop_
_symmetry_equiv_pos_as_xyz
'x, y, z'
_cell_length_a     24.021358
_cell_length_b     24.290385
_cell_length_c     7.3459082
_cell_angle_alpha  89.321852
_cell_angle_beta   91.54738
_cell_angle_gamma 92.32411
loop_
_atom_site_label
_atom_site_type_symbol
_atom_site_fract_x
_atom_site_fract_y
_atom_site_fract_z
_atom_type_partial_charge
H0 H 0.86598 0.41746 0.58534 0.0
H1 H 0.74321 0.47655 0.14108 0.0
H2 H 0.73396 0.53006 0.89504 0.0
H3 H 0.55348 0.45178 0.4529 0.0
C4 C 0.58635 0.47666 0.39781 0.0
O5 O 0.63701 0.51605 0.55195 0.0
H6 H 0.59463 0.43471 0.38209 0.0
C7 C 0.83198 0.44464 0.56951 0.0
C8 C 0.81257 0.47823 0.75564 0.0
C9 C 0.80929 0.44648 0.35344 0.0
C10 C 0.75827 0.48654 0.27903 0.0
C11 C 0.7034 0.53197 0.56171 0.0
C12 C 0.74678 0.51473 0.76699 0.0
H13 H 0.08136 0.86423 0.61357 0.0
H14 H 0.01727 0.74907 0.15275 0.0
H15 H 0.96158 0.72522 0.90127 0.0
H16 H 0.02982 0.55855 0.46166 0.0
C17 C 0.00639 0.5883 0.39584 0.0
O18 O 0.96684 0.63531 0.54639 0.0
H19 H 0.04985 0.59971 0.36333 0.0
C20 C 0.05108 0.83091 0.59015 0.0
C21 C 0.01444 0.80914 0.76831 0.0
C22 C 0.0498 0.81145 0.37543 0.0
C23 C 0.00723 0.76092 0.29114 0.0
C24 C 0.95578 0.70099 0.56199 0.0
C25 C 0.97408 0.74213 0.77266 0.0
H26 H 0.61545 0.01282 0.52943 0.0
H27 H 0.73964 0.97362 0.11238 0.0
H28 H 0.76882 0.93606 0.87314 0.0
H29 H 0.93272 0.02243 0.4379 0.0
C30 C 0.90239 -0.00416 0.37449 0.0
O31 O 0.85763 0.95086 0.52657 0.0
H32 H 0.88721 0.03573 0.32948 0.0
C33 C 0.65594 -0.00061 0.52402 0.0
C34 C 0.68393 0.97735 0.71923 0.0
C35 C 0.6751 -0.00398 0.31142 0.0
C36 C 0.72829 0.96283 0.25127 0.0
C37 C 0.79296 0.92921 0.54021 0.0
C38 C 0.75199 0.94635 0.74152 0.0
H39 H 0.43066 0.67914 0.59356 0.0
H40 H 0.39791 0.79454 0.45544 0.0
H41 H 0.61524 0.71742 0.64602 0.0
H42 H 0.59147 0.81676 0.15043 0.0
C43 C 0.58487 0.85319 0.23551 0.0
O44 O 0.57513 0.83209 0.43305 0.0
H45 H 0.62704 0.872 0.24158 0.0
C46 C 0.45576 0.6537 0.63698 0.0
C47 C 0.525 0.65985 0.67642 0.0
C48 C 0.40906 0.70265 0.55567 0.0
C49 C 0.43026 0.76796 0.50397 0.0
C50 C 0.54304 0.78622 0.53393 0.0
C51 C 0.57067 0.7207 0.62733 0.0
H52 H 0.12847 0.57243 0.09662 0.0
H53 H 0.25091 0.51269 0.54165 0.0
H54 H 0.26006 0.45923 0.78752 0.0
H55 H 0.44046 0.53787 0.23054 0.0
C56 C 0.40782 0.51241 0.28524 0.0
O57 O 0.35719 0.47305 0.13084 0.0
H58 H 0.39983 0.55446 0.29924 0.0
C59 C 0.16233 0.54508 0.11291 0.0
C60 C 0.18169 0.51149 0.9267 0.0
C61 C 0.18495 0.54307 0.32917 0.0
C62 C 0.23589 0.50284 0.40357 0.0
C63 C 0.2907 0.45736 0.12084 0.0
C64 C 0.24739 0.47479 0.91544 0.0
H65 H 0.91197 0.1256 0.0627 0.0
H66 H 0.97534 0.24079 0.52721 0.0
H67 H 0.03184 0.2648 0.77937 0.0
H68 H 0.96369 0.43137 0.21854 0.0
C69 C 0.98728 0.40162 0.28446 0.0
O70 O 0.02689 0.35453 0.13401 0.0
H71 H 0.94382 0.39032 0.31735 0.0
C72 C 0.94205 0.15909 0.08806 0.0
C73 C 0.97947 0.18056 0.91133 0.0
C74 C 0.94259 0.17877 0.30292 0.0
C75 C 0.98544 0.22899 0.38883 0.0
C76 C 0.0378 0.28875 0.11881 0.0
C77 C 0.01987 0.24756 0.90798 0.0
H78 H 0.37822 0.9761 0.15676 0.0
H79 H 0.25266 0.01981 0.56998 0.0
H80 H 0.22633 0.05579 0.80837 0.0
H81 H 0.06097 0.96781 0.23769 0.0
C82 C 0.09182 -0.0066 0.30008 0.0
O83 O 0.1362 0.03936 0.14989 0.0
H84 H 0.10717 0.95263 0.33478 0.0
C85 C 0.33864 -0.00743 0.16424 0.0
C86 C 0.31082 0.01387 0.9659 0.0
C87 C 0.31821 -0.00311 0.37699 0.0
C88 C 0.26457 0.03007 0.4316 0.0
C89 C 0.2007 0.06184 0.13849 0.0
C90 C 0.24249 0.04444 0.93974 0.0
H91 H 0.56251 0.30956 0.0952 0.0
H92 H 0.59296 0.19376 0.23741 0.0
H93 H 0.37805 0.27212 1.02788 0.0
H94 H 0.4 0.17022 0.52734 0.0
C95 C 0.40755 0.13455 0.43988 0.0
O96 O 0.41616 0.15753 0.24323 0.0
H97 H 0.36595 0.11435 0.43689 0.0
C98 C 0.5378 0.33525 0.05019 0.0
C99 C 0.46866 0.32954 1.00516 0.0
C100 C 0.58355 0.28561 0.13435 0.0
C101 C 0.56115 0.22036 0.18484 0.0
C102 C 0.44938 0.2031 0.1447 0.0
C103 C 0.42249 0.26872 0.04968 0.0
Eu104 Eu 0.91459 0.9883 0.66603 0.0
C105 C 0.17184 0.0523 0.43808 0.0
N106 N 0.18465 -0.00874 0.31701 0.0
C107 C 0.29072 0.07683 0.19411 0.0
C108 C 0.21319 0.11034 0.43386 0.0
C109 C 0.23838 0.98447 0.1916 0.0
C110 C 0.2652 0.12302 0.31167 0.0
C111 C 0.11694 0.12497 0.57367 0.0
C112 C 0.12202 0.08983 0.42302 0.0
C113 C 0.16327 0.14293 0.6763 0.0
C114 C 0.21181 0.14419 0.58447 0.0
Eu115 Eu 0.0798 0.00124 1.00953 0.0
N116 N 0.07622 0.08561 0.28894 0.0
C117 C 0.06781 0.14692 0.60111 0.0
C118 C 0.02559 0.09688 0.35011 0.0
C119 C 0.02181 0.12594 0.50945 0.0
H120 H 0.24458 0.94716 0.11411 0.0
H121 H 0.98365 0.13744 0.55999 0.0
H122 H 0.75056 0.04449 0.56988 0.0
H123 H 0.00602 0.84846 0.1148 0.0
H124 H 0.98874 0.08295 0.2772 0.0
H125 H 0.06483 0.17827 0.7014 0.0
H126 H 0.00294 0.90506 0.39358 0.0
H127 H 0.32906 0.09272 0.13096 0.0
H128 H 0.15991 0.16797 0.79646 0.0
H129 H 0.24617 0.17215 0.62397 0.0
H130 H 0.66442 0.89926 0.55089 0.0
H131 H 0.28745 0.1626 0.32125 0.0
H132 H 0.9245 0.81138 0.96793 0.0
N133 N 0.80927 0.0001 0.36324 0.0
C134 C 0.82055 0.9391 0.23928 0.0
C135 C 0.70277 0.91508 0.48748 0.0
C136 C 0.77832 0.88169 0.24325 0.0
C137 C 0.75619 0.00724 0.49169 0.0
C138 C 0.72708 0.86923 0.36746 0.0
N139 N 0.91558 0.90323 0.38544 0.0
C140 C 0.96569 0.89105 0.32287 0.0
C141 C 0.87348 0.86474 0.10118 0.0
C142 C 0.86945 0.90015 0.25231 0.0
C143 C 0.92205 0.84193 0.07148 0.0
C144 C 0.9684 0.86135 0.16449 0.0
H145 H 0.7047 0.82969 0.35894 0.0
H146 H 0.74334 0.82034 0.0546 0.0
H147 H 0.82912 0.82179 0.88098 0.0
O148 O 0.91035 0.06779 0.78396 0.0
O149 O 0.94362 0.8965 0.75803 0.0
O150 O 0.03191 0.91532 0.88609 0.0
O151 O 0.83438 0.02622 0.72285 0.0
O152 O 0.00781 -0.00785 0.53018 0.0
O153 O 0.09256 0.01641 0.67918 0.0
O154 O 0.08615 0.92423 0.87228 0.0
O155 O 0.05121 0.09359 0.92119 0.0
O156 O 0.96303 0.07376 0.79429 0.0
O157 O 0.16043 0.96287 0.9648 0.0
O158 O 0.98617 -0.00413 0.14192 0.0
O159 O 0.90105 0.97322 0.9957 0.0
C160 C -0.00537 0.87627 0.80802 0.0
C161 C 0.84614 0.12233 0.6434 0.0
C162 C 0.88938 0.17402 0.39695 0.0
C163 C 0.8609 0.22063 0.44157 0.0
C164 C 0.82249 0.17071 0.7023 0.0
C165 C 0.8292 0.21931 0.59701 0.0
C166 C 0.87868 0.12645 0.49081 0.0
C167 C 0.06361 0.00052 0.51995 0.0
C168 C 0.85756 0.07395 0.76133 0.0
C169 C 0.7784 0.84764 0.09276 0.0
C170 C 0.82664 0.84732 1.00041 0.0
C171 C -0.00013 0.11339 0.87299 0.0
C172 C 0.14536 0.86704 1.02832 0.0
C173 C 0.10217 0.81701 0.27824 0.0
C174 C 0.13256 0.77095 0.24154 0.0
C175 C 0.17093 0.81893 0.977 0.0
C176 C 0.11046 0.86324 0.17491 0.0
C177 C 0.16454 0.77126 0.0868 0.0
C178 C 0.93053 0.98782 0.15484 0.0
C179 C 0.13789 0.9164 0.91174 0.0
H180 H 0.86782 0.25946 0.3705 0.0
H181 H 0.80353 0.17244 0.83345 0.0
H182 H 0.81225 0.25744 0.63603 0.0
H183 H 0.90954 0.09843 0.47957 0.0
H184 H 0.12685 0.73289 0.31799 0.0
H185 H 0.19156 0.81671 0.84878 0.0
H186 H 0.07898 0.89121 0.18049 0.0
H187 H 0.18184 0.73299 0.05169 0.0
Eu188 Eu 0.51172 0.03872 0.96743 0.0
C189 C 0.47541 0.81852 0.73293 0.0
N190 N 0.47775 0.85401 0.55561 0.0
C191 C 0.49215 0.77011 0.26406 0.0
C192 C 0.48571 0.74949 0.73149 0.0
C193 C 0.47997 0.83383 0.34031 0.0
C194 C 0.49649 0.71734 0.41389 0.0
C195 C 0.39748 0.79023 0.907 0.0
C196 C 0.43297 0.83322 0.84523 0.0
C197 C 0.41918 0.74188 0.96298 0.0
C198 C 0.46769 0.72466 0.89481 0.0
Eu199 Eu 0.48151 0.95031 0.71097 0.0
N200 N 0.41375 0.88479 0.83303 0.0
C201 C 0.34026 0.79558 0.89436 0.0
C202 C 0.35767 0.89118 0.85884 0.0
C203 C 0.32014 0.84677 0.86319 0.0
H204 H 0.47683 0.86098 0.22874 0.0
H205 H 0.27612 0.85308 0.85349 0.0
H206 H 0.50313 0.18473 0.39791 0.0
H207 H 0.71897 0.13733 0.8535 0.0
H208 H 0.33828 0.92857 0.84585 0.0
H209 H 0.31147 0.7608 0.89925 0.0
H210 H 0.65681 0.06128 0.85382 0.0
H211 H 0.51319 0.768 0.13944 0.0
H212 H 0.40085 0.7208 0.07193 0.0
H213 H 0.48151 0.687 0.94713 0.0
H214 H 0.47251 0.23042 0.55095 0.0
H215 H 0.52109 0.68765 0.3713 0.0
H216 H 0.68353 0.22961 0.79941 0.0
N217 N 0.51421 0.13461 0.12091 0.0
C218 C 0.51811 0.17121 0.94801 0.0
C219 C 0.4975 0.21827 0.42227 0.0
C220 C 0.5082 0.24007 0.95176 0.0
C221 C 0.51049 0.15132 0.33704 0.0
C222 C 0.49494 0.27197 0.26924 0.0
N223 N 0.58125 0.10516 0.85988 0.0
C224 C 0.63756 0.09882 0.83855 0.0
C225 C 0.59769 0.19933 0.7822 0.0
C226 C 0.56193 0.15661 0.84271 0.0
C227 C 0.65485 0.19462 0.80436 0.0
C228 C 0.67499 0.14344 0.83846 0.0
H229 H 0.4694 0.30136 0.30998 0.0
H230 H 0.51464 0.30312 0.73802 0.0
H231 H 0.59493 0.26822 0.61471 0.0
O232 O 0.53604 -0.00547 0.22295 0.0
O233 O 0.46047 0.09821 0.75152 0.0
O234 O 0.44764 0.03354 0.54262 0.0
O235 O 0.48647 0.0635 0.22051 0.0
O236 O 0.57605 0.98788 0.79146 0.0
O237 O 0.57556 0.98701 0.78871 0.0
O238 O 0.45226 -0.00802 0.45583 0.0
O239 O 0.53604 0.89156 0.91971 0.0
O240 O 0.54588 0.95515 0.13499 0.0
O241 O 0.5013 0.92289 0.45671 0.0
O242 O 0.41787 0.00173 0.88932 0.0
O243 O 0.41808 0.00248 0.89131 0.0
C244 C 0.44369 0.08808 0.57839 0.0
C245 C 0.58591 0.07289 0.30031 0.0
C246 C 0.67453 0.05044 0.22007 0.0
C247 C 0.69887 0.09694 0.30864 0.0
C248 C 0.60894 0.10913 0.43234 0.0
C249 C 0.665 0.12683 0.41895 0.0
C250 C 0.62147 0.05581 0.17286 0.0
C251 C 0.62657 0.9656 0.83307 0.0
C252 C 0.53146 0.04229 0.29418 0.0
C253 C 0.52764 0.26507 0.78986 0.0
C254 C 0.57584 0.24711 0.72172 0.0
C255 C 0.55288 0.90149 0.09311 0.0
C256 C 0.40051 0.91281 0.39137 0.0
C257 C 0.31542 0.94284 0.47396 0.0
C258 C 0.28642 0.89727 0.39402 0.0
C259 C 0.37348 0.87637 0.26578 0.0
C260 C 0.36735 0.93252 0.52072 0.0
C261 C 0.31631 0.86383 0.28243 0.0
C262 C 0.36754 0.02468 0.84932 0.0
C263 C 0.45557 0.94366 0.38699 0.0
H264 H 0.74342 0.10556 0.31071 0.0
H265 H 0.58411 0.12343 0.53613 0.0
H266 H 0.68301 0.16002 0.49693 0.0
H267 H 0.60711 0.02892 0.0712 0.0
H268 H 0.24145 0.89265 0.39546 0.0
H269 H 0.39445 0.85779 0.16148 0.0
H270 H 0.38431 0.95905 0.61875 0.0
H271 H 0.29469 0.83282 0.20195 0.0
Eu272 Eu 0.57848 0.4802 0.68527 0.0
C273 C 0.32351 0.46515 0.41929 0.0
N274 N 0.3169 0.52806 0.28527 0.0
C275 C 0.20107 0.45508 0.17903 0.0
C276 C 0.27468 0.41427 0.42722 0.0
C277 C 0.26274 0.53935 0.1501 0.0
C278 C 0.22131 0.4079 0.30517 0.0
C279 C 0.37165 0.37854 0.5457 0.0
C280 C 0.36847 0.41927 0.40446 0.0
C281 C 0.32546 0.361 0.63963 0.0
C282 C 0.27591 0.37351 0.56237 0.0
Eu283 Eu 0.41579 0.5091 0.99795 0.0
N284 N 0.41268 0.41918 0.27163 0.0
C285 C 0.42005 0.35219 0.57642 0.0
C286 C 0.46186 0.39974 0.32976 0.0
C287 C 0.46684 0.37264 0.494 0.0
H288 H 0.25883 0.5743 0.05866 0.0
H289 H 0.50431 0.35308 0.51917 0.0
H290 H 0.73562 0.41504 0.62381 0.0
H291 H 0.4898 0.63563 0.16381 0.0
H292 H 0.49807 0.40517 0.25184 0.0
H293 H 0.42215 0.31751 0.66969 0.0
H294 H 0.49611 0.584 0.43207 0.0
H295 H 0.16515 0.43759 0.11161 0.0
H296 H 0.32713 0.32905 0.74386 0.0
H297 H 0.24004 0.34704 0.59237 0.0
H298 H 0.82894 0.55205 0.57002 0.0
H299 H 0.19631 0.36977 0.3087 0.0
H300 H 0.57189 0.67159 1.01363 0.0
N301 N 0.67736 0.46119 0.39736 0.0
C302 C 0.67056 0.52404 0.26335 0.0
C303 C 0.793 0.5345 0.50322 0.0
C304 C 0.71928 0.57502 0.25519 0.0
C305 C 0.73153 0.45005 0.53268 0.0
C306 C 0.77261 0.58157 0.37713 0.0
N307 N 0.5815 0.56996 0.41162 0.0
C308 C 0.53232 0.58943 0.35397 0.0
C309 C 0.62232 0.61057 0.13719 0.0
C310 C 0.62563 0.56988 0.27854 0.0
C311 C 0.57398 0.63692 0.10695 0.0
C312 C 0.52734 0.61635 0.1895 0.0
H313 H 0.79749 0.61978 0.37359 0.0
H314 H 0.75369 0.64241 0.09022 0.0
H315 H 0.6666 0.66004 0.93851 0.0
O316 O 0.57289 0.3908 0.68275 0.0
O317 O 0.58157 0.57382 0.75505 0.0
O318 O 0.49126 0.56663 0.8508 0.0
O319 O 0.65148 0.43067 0.75533 0.0
O320 O 0.4871 0.49482 0.5374 0.0
O321 O 0.40002 0.50137 0.66526 0.0
O322 O 0.4218 0.59852 0.99985 0.0
O323 O 0.41258 0.41573 0.92612 0.0
O324 O 0.50317 0.4224 0.83194 0.0
O325 O 0.34305 0.55889 0.92844 0.0
O326 O 0.50689 0.49423 0.14678 0.0
O327 O 0.594 0.48823 1.01792 0.0
C328 C 0.53359 0.59878 0.76845 0.0
C329 C 0.65101 0.35011 0.55602 0.0
C330 C 0.63327 0.30068 0.26892 0.0
C331 C 0.67494 0.26475 0.31353 0.0
C332 C 0.69582 0.31598 0.59303 0.0
C333 C 0.70597 0.27265 0.47391 0.0
C334 C 0.6207 0.34045 0.39293 0.0
C335 C 0.43224 0.50207 0.51182 0.0
C336 C 0.62627 0.3847 0.69998 0.0
C337 C 0.71795 0.61577 0.12004 0.0
C338 C 0.66839 0.62812 0.04283 0.0
C339 C 0.46051 0.39062 0.91363 0.0
C340 C 0.34387 0.63917 0.12803 0.0
C341 C 0.36007 0.68728 0.41854 0.0
C342 C 0.31811 0.72289 0.37391 0.0
C343 C 0.29882 0.67288 0.09147 0.0
C344 C 0.37375 0.64847 0.2923 0.0
C345 C 0.2877 0.71535 0.21245 0.0
C346 C 0.56181 0.4871 0.17151 0.0
C347 C 0.36846 0.60477 0.98354 0.0
H348 H 0.68201 0.22965 0.22883 0.0
H349 H 0.71919 0.31937 0.72037 0.0
H350 H 0.73367 0.24141 0.51114 0.0
H351 H 0.57963 0.35493 0.37788 0.0
H352 H 0.31018 0.75749 0.45985 0.0
H353 H 0.27582 0.66978 0.96345 0.0
H354 H 0.41494 0.6343 0.30783 0.0
H355 H 0.25954 0.74616 0.17639 0.0
Eu356 Eu -0.00451 0.57557 0.6842 0.0
C357 C 0.0277 0.31627 0.41812 0.0
N358 N 0.96586 0.3109 0.27063 0.0
C359 C 0.03459 0.19917 0.17226 0.0
C360 C 0.07717 0.26929 0.428 0.0
C361 C 0.95281 0.25879 0.13143 0.0
C362 C 0.08223 0.21894 0.30366 0.0
C363 C 0.11523 0.36246 0.57001 0.0
C364 C 0.07686 0.36156 0.41821 0.0
C365 C 0.12895 0.3154 0.66058 0.0
C366 C 0.11873 0.26966 0.56368 0.0
Eu367 Eu -0.00168 0.41434 0.99628 0.0
N368 N 0.08233 0.40759 0.28989 0.0
C369 C 0.14499 0.40908 0.61099 0.0
C370 C 0.10094 0.45584 0.36107 0.0
C371 C 0.13223 0.45607 0.52111 0.0
H372 H 0.91678 0.25547 1.03879 0.0
H373 H 0.15041 0.49198 0.57712 0.0
H374 H 0.07705 0.73459 0.63889 0.0
H375 H 0.84311 0.49769 0.10399 0.0
H376 H 0.08958 0.49357 0.29727 0.0
H377 H 0.17544 0.41006 0.72187 0.0
H378 H 0.90453 0.49608 0.38323 0.0
H379 H 0.05177 0.16561 0.10587 0.0
H380 H 0.15994 0.31525 0.77082 0.0
H381 H 0.14818 0.23816 0.57833 0.0
H382 H 0.94163 0.82433 0.5754 0.0
H383 H 0.12061 0.19707 0.30388 0.0
H384 H 0.8179 0.57947 0.95972 0.0
N385 N 0.02745 0.67911 0.4084 0.0
C386 C 0.96535 0.67349 0.2623 0.0
C387 C 0.95847 0.79057 0.50906 0.0
C388 C 0.91564 0.72034 0.25366 0.0
C389 C 0.04066 0.73122 0.54754 0.0
C390 C 0.91064 0.77073 0.37814 0.0
N391 N 0.91135 0.58207 0.39098 0.0
C392 C 0.89292 0.53377 0.31972 0.0
C393 C 0.87796 0.62718 0.11132 0.0
C394 C 0.91649 0.6281 0.26269 0.0
C395 C 0.84838 0.58049 0.07041 0.0
C396 C 0.86137 0.53354 0.16009 0.0
H397 H 0.87241 0.79288 0.37716 0.0
H398 H 0.8449 0.75189 0.1022 0.0
H399 H 0.83302 0.67432 0.9107 0.0
O400 O 0.07223 0.57792 0.83371 0.0
O401 O 0.9008 0.5522 0.76453 0.0
O402 O 0.91924 0.46724 0.87837 0.0
O403 O 0.03799 0.65385 0.77305 0.0
O404 O -0.00869 0.48447 0.52595 0.0
O405 O 0.0132 0.40158 0.66741 0.0
O406 O 0.92136 0.41198 0.84844 0.0
O407 O 0.0931 0.43795 0.91688 0.0
O408 O 0.07524 0.52323 0.80265 0.0
O409 O 0.95593 0.33609 0.90629 0.0
O410 O 0.00299 0.50543 0.15482 0.0
O411 O 0.97973 0.58795 1.01293 0.0
C412 C 0.87899 0.5016 0.81058 0.0
C413 C 0.13045 0.63748 0.67691 0.0
C414 C 0.18092 0.59317 0.44031 0.0
C415 C 0.22684 0.62861 0.47886 0.0
C416 C 0.17348 0.67681 0.69837 0.0
C417 C 0.22286 0.67084 0.60662 0.0
C418 C 0.13579 0.59717 0.54603 0.0
C419 C -0.00195 0.42975 0.50865 0.0
C420 C 0.0841 0.62927 0.8032 0.0
C421 C 0.87408 0.72004 0.11794 0.0
C422 C 0.86394 0.67426 1.02112 0.0
C423 C 0.11516 0.4885 0.87103 0.0
C424 C 0.86351 0.3521 1.00542 0.0
C425 C 0.81334 0.39626 0.24294 0.0
C426 C 0.76787 0.35988 0.20822 0.0
C427 C 0.82122 0.31175 0.98837 0.0
C428 C 0.85796 0.39275 0.13486 0.0
C429 C 0.77215 0.31713 0.08249 0.0
C430 C -0.00423 0.56014 0.17157 0.0
C431 C 0.90964 0.36056 0.87808 0.0
H432 H 0.26598 0.62131 0.41837 0.0
H433 H 0.16969 0.71055 0.78694 0.0
H434 H 0.25824 0.69734 0.64347 0.0
H435 H 0.10791 0.56333 0.5398 0.0
H436 H 0.72887 0.36665 0.27036 0.0
H437 H 0.82548 0.27734 0.90283 0.0
H438 H 0.88562 0.42677 0.13971 0.0
H439 H 0.73726 0.28957 0.04951 0.0
loop_
_geom_bond_atom_site_label_1
_geom_bond_atom_site_label_2
_geom_bond_distance
_geom_bond_site_symmetry_2
_ccdc_geom_bond_type
H0 C7 0.929 . S
H1 C10 0.930 . S
H2 C12 0.929 . S
H3 C4 0.969 . S
C4 H3 0.969 . S
C4 O5 1.550 . S
C4 H6 0.973 . S
O5 C4 1.550 . S
O5 C11 1.412 . S
H6 C4 0.973 . S
C7 H0 0.929 . S
C7 C8 1.400 . S
C7 C9 1.364 . S
C8 C7 1.400 . S
C8 C12 1.377 . S
C9 C7 1.364 . S
C9 C10 1.374 . S
C10 H1 0.930 . S
C10 C9 1.374 . S
C10 C11 1.383 . S
C11 O5 1.412 . S
C11 C10 1.383 . S
C11 C12 1.394 . S
C12 H2 0.929 . S
C12 C8 1.377 . S
C12 C11 1.394 . S
H13 C20 0.929 . S
H14 C23 0.930 . S
H15 C25 0.929 . S
H16 C17 0.969 . S
C17 H16 0.969 . S
C17 O18 1.550 1_455 S
C17 H19 0.973 1_455 S
O18 C17 1.550 1_655 S
O18 C24 1.412 . S
H19 C17 0.973 1_655 S
C20 H13 0.929 . S
C20 C21 1.400 . S
C20 C22 1.364 . S
C21 C20 1.400 . S
C21 C25 1.377 . S
C22 C20 1.364 . S
C22 C23 1.374 . S
C23 H14 0.930 . S
C23 C22 1.374 . S
C23 C24 1.383 . S
C24 O18 1.412 . S
C24 C23 1.383 . S
C24 C25 1.394 . S
C25 H15 0.929 . S
C25 C21 1.377 . S
C25 C24 1.394 . S
H26 C33 0.929 . S
H27 C36 0.930 . S
H28 C38 0.929 . S
H29 C30 0.969 . S
C30 H29 0.969 . S
C30 O31 1.550 1_545 S
C30 H32 0.973 1_545 S
O31 C30 1.550 1_565 S
O31 C37 1.412 . S
H32 C30 0.973 1_565 S
C33 H26 0.929 . S
C33 C34 1.400 . S
C33 C35 1.364 . S
C34 C33 1.400 . S
C34 C38 1.377 . S
C35 C33 1.364 . S
C35 C36 1.374 . S
C36 H27 0.930 . S
C36 C35 1.374 . S
C36 C37 1.383 . S
C37 O31 1.412 . S
C37 C36 1.383 . S
C37 C38 1.394 . S
C38 H28 0.929 . S
C38 C34 1.377 . S
C38 C37 1.394 . S
H39 C46 0.929 . S
H40 C49 0.930 . S
H41 C51 0.929 . S
H42 C43 0.969 . S
C43 H42 0.969 . S
C43 O44 1.550 . S
C43 H45 0.973 . S
O44 C43 1.550 . S
O44 C50 1.412 . S
H45 C43 0.973 . S
C46 H39 0.929 . S
C46 C47 1.400 . S
C46 C48 1.364 . S
C47 C46 1.400 . S
C47 C51 1.377 . S
C48 C46 1.364 . S
C48 C49 1.374 . S
C49 H40 0.930 . S
C49 C48 1.374 . S
C49 C50 1.383 . S
C50 O44 1.412 . S
C50 C49 1.383 . S
C50 C51 1.394 . S
C51 H41 0.929 . S
C51 C47 1.377 . S
C51 C50 1.394 . S
H52 C59 0.929 . S
H53 C62 0.930 . S
H54 C64 0.929 . S
H55 C56 0.969 . S
C56 H55 0.969 . S
C56 O57 1.550 . S
C56 H58 0.973 . S
O57 C56 1.550 . S
O57 C63 1.412 . S
H58 C56 0.973 . S
C59 H52 0.929 . S
C59 C60 1.400 . S
C59 C61 1.364 1_556 S
C60 C59 1.400 . S
C60 C64 1.377 . S
C61 C59 1.364 1_554 S
C61 C62 1.374 . S
C62 H53 0.930 . S
C62 C61 1.374 . S
C62 C63 1.383 . S
C63 O57 1.412 . S
C63 C62 1.383 . S
C63 C64 1.394 1_554 S
C64 H54 0.929 . S
C64 C60 1.377 . S
C64 C63 1.394 1_556 S
H65 C72 0.929 . S
H66 C75 0.930 . S
H67 C77 0.929 . S
H68 C69 0.969 . S
C69 H68 0.969 . S
C69 O70 1.550 . S
C69 H71 0.973 . S
O70 C69 1.550 . S
O70 C76 1.412 . S
H71 C69 0.973 . S
C72 H65 0.929 . S
C72 C73 1.400 . S
C72 C74 1.364 1_556 S
C73 C72 1.400 . S
C73 C77 1.377 . S
C74 C72 1.364 1_554 S
C74 C75 1.374 . S
C75 H66 0.930 . S
C75 C74 1.374 . S
C75 C76 1.383 . S
C76 O70 1.412 . S
C76 C75 1.383 . S
C76 C77 1.394 1_554 S
C77 H67 0.929 . S
C77 C73 1.377 . S
C77 C76 1.394 1_556 S
H78 C85 0.929 . S
H79 C88 0.930 . S
H80 C90 0.929 . S
H81 C82 0.969 . S
C82 H81 0.969 . S
C82 O83 1.550 . S
C82 H84 0.973 . S
O83 C82 1.550 . S
O83 C89 1.412 . S
H84 C82 0.973 . S
C85 H78 0.929 . S
C85 C86 1.400 . S
C85 C87 1.364 1_556 S
C86 C85 1.400 . S
C86 C90 1.377 . S
C87 C85 1.364 1_554 S
C87 C88 1.374 . S
C88 H79 0.930 . S
C88 C87 1.374 . S
C88 C89 1.383 . S
C89 O83 1.412 . S
C89 C88 1.383 . S
C89 C90 1.394 1_554 S
C90 H80 0.929 . S
C90 C86 1.377 . S
C90 C89 1.394 1_556 S
H91 C98 0.929 . S
H92 C101 0.930 . S
H93 C103 0.929 . S
H94 C95 0.969 . S
C95 H94 0.969 . S
C95 O96 1.550 . S
C95 H97 0.973 . S
O96 C95 1.550 . S
O96 C102 1.412 . S
H97 C95 0.973 . S
C98 H91 0.929 . S
C98 C99 1.400 . S
C98 C100 1.364 1_556 S
C99 C98 1.400 . S
C99 C103 1.377 . S
C100 C98 1.364 1_554 S
C100 C101 1.374 . S
C101 H92 0.930 . S
C101 C100 1.374 . S
C101 C102 1.383 . S
C102 O96 1.412 . S
C102 C101 1.383 . S
C102 C103 1.394 1_554 S
C103 H93 0.929 . S
C103 C99 1.377 . S
C103 C102 1.394 1_556 S
Eu104 N133 2.600 . S
Eu104 N139 2.562 1_545 S
Eu104 O148 2.462 . S
Eu104 O149 2.373 1_545 S
Eu104 O151 2.432 . S
Eu104 O152 2.291 1_655 S
Eu104 O156 2.335 . S
Eu104 O159 2.372 . S
Eu104 C168 2.787 . S
C105 N106 1.365 . S
C105 C108 1.405 . S
C105 C112 1.448 . S
N106 C105 1.365 . S
N106 C109 1.319 1_554 S
N106 Eu115 2.600 1_544 S
C107 C109 1.397 . S
C107 C110 1.367 1_556 S
C107 H127 0.931 . S
C108 C105 1.405 . S
C108 C110 1.403 . S
C108 C114 1.439 . S
C109 N106 1.319 1_556 S
C109 C107 1.397 . S
C109 H120 0.930 1_545 S
C110 C107 1.367 1_554 S
C110 C108 1.403 . S
C110 H131 0.929 . S
C111 C112 1.430 . S
C111 C113 1.387 . S
C111 C117 1.404 . S
C112 C105 1.448 . S
C112 C111 1.430 . S
C112 N116 1.351 . S
C113 C111 1.387 . S
C113 C114 1.374 . S
C113 H128 0.931 . S
C114 C108 1.439 . S
C114 C113 1.374 . S
C114 H129 0.931 . S
Eu115 N106 2.600 1_566 S
Eu115 N116 2.562 1_566 S
Eu115 O150 2.335 . S
Eu115 O153 2.372 . S
Eu115 O154 2.462 1_556 S
Eu115 O155 2.373 1_565 S
Eu115 O157 2.432 1_556 S
Eu115 O158 2.294 1_456 S
Eu115 C179 2.787 1_556 S
N116 C112 1.351 . S
N116 Eu115 2.562 1_544 S
N116 C118 1.325 . S
C117 C111 1.404 . S
C117 C119 1.366 . S
C117 H125 0.930 . S
C118 N116 1.325 . S
C118 C119 1.416 . S
C118 H124 0.929 . S
C119 C117 1.366 . S
C119 C118 1.416 . S
C119 H121 0.930 . S
H120 C109 0.930 1_565 S
H121 C119 0.930 . S
H122 C137 0.930 . S
H123 C144 0.930 . S
H124 C118 0.929 . S
H125 C117 0.930 . S
H126 C140 0.929 1_455 S
H127 C107 0.931 . S
H128 C113 0.931 . S
H129 C114 0.931 . S
H130 C135 0.931 . S
H131 C110 0.929 . S
H132 C143 0.930 1_556 S
N133 Eu104 2.600 . S
N133 C134 1.365 1_545 S
N133 C137 1.319 . S
C134 N133 1.365 1_565 S
C134 C136 1.405 . S
C134 C142 1.448 . S
C135 H130 0.931 . S
C135 C137 1.397 1_565 S
C135 C138 1.367 . S
C136 C134 1.405 . S
C136 C138 1.403 . S
C136 C169 1.439 . S
C137 H122 0.930 . S
C137 N133 1.319 . S
C137 C135 1.397 1_545 S
C138 C135 1.367 . S
C138 C136 1.403 . S
C138 H145 0.929 . S
N139 Eu104 2.562 1_565 S
N139 C140 1.325 . S
N139 C142 1.351 . S
C140 H126 0.929 1_655 S
C140 N139 1.325 . S
C140 C144 1.416 . S
C141 C142 1.430 . S
C141 C143 1.404 . S
C141 C170 1.387 . S
C142 C134 1.448 . S
C142 N139 1.351 . S
C142 C141 1.430 . S
C143 H132 0.930 1_554 S
C143 C141 1.404 . S
C143 C144 1.366 . S
C144 H123 0.930 . S
C144 C140 1.416 . S
C144 C143 1.366 . S
H145 C138 0.929 . S
H146 C169 0.931 . S
H147 C170 0.931 . S
O148 Eu104 2.462 . S
O148 C168 1.252 . S
O149 Eu104 2.373 1_565 S
O149 C160 1.249 . S
O150 Eu115 2.335 . S
O150 C160 1.264 1_455 S
O151 Eu104 2.432 . S
O151 C168 1.268 . S
O152 Eu104 2.291 1_455 S
O152 C167 1.255 . S
O153 Eu115 2.372 . S
O153 C167 1.257 1_565 S
O154 Eu115 2.462 1_554 S
O154 C179 1.252 . S
O155 Eu115 2.373 1_545 S
O155 C171 1.249 . S
O156 Eu104 2.335 . S
O156 C171 1.264 1_655 S
O157 Eu115 2.432 1_554 S
O157 C179 1.268 . S
O158 Eu115 2.294 1_654 S
O158 C178 1.254 1_565 S
O159 Eu104 2.372 . S
O159 C178 1.257 1_556 S
C160 O149 1.249 . S
C160 O150 1.264 1_655 S
C161 C164 1.382 . S
C161 C166 1.390 . S
C161 C168 1.506 . S
C162 C163 1.398 . S
C162 C166 1.392 . S
C163 C162 1.398 . S
C163 C165 1.372 . S
C163 H180 0.931 . S
C164 C161 1.382 . S
C164 C165 1.390 . S
C164 H181 0.931 . S
C165 C163 1.372 . S
C165 C164 1.390 . S
C165 H182 0.929 . S
C166 C161 1.390 . S
C166 C162 1.392 . S
C166 H183 0.930 . S
C167 O152 1.255 . S
C167 O153 1.257 1_545 S
C168 Eu104 2.787 . S
C168 O148 1.252 . S
C168 O151 1.268 . S
C168 C161 1.506 . S
C169 C136 1.439 . S
C169 H146 0.931 . S
C169 C170 1.374 . S
C170 C141 1.387 . S
C170 H147 0.931 . S
C170 C169 1.374 . S
C171 O155 1.249 . S
C171 O156 1.264 1_455 S
C172 C175 1.382 . S
C172 C176 1.390 . S
C172 C179 1.506 . S
C173 C174 1.398 . S
C173 C176 1.392 . S
C174 C173 1.398 . S
C174 C177 1.372 . S
C174 H184 0.931 . S
C175 C172 1.382 . S
C175 C177 1.390 . S
C175 H185 0.931 . S
C176 C172 1.390 . S
C176 C173 1.392 . S
C176 H186 0.930 . S
C177 C174 1.372 . S
C177 C175 1.390 . S
C177 H187 0.929 . S
C178 O158 1.254 1_545 S
C178 O159 1.257 1_554 S
C179 Eu115 2.787 1_554 S
C179 O154 1.252 . S
C179 O157 1.268 . S
C179 C172 1.506 . S
H180 C163 0.931 . S
H181 C164 0.931 . S
H182 C165 0.929 . S
H183 C166 0.930 . S
H184 C174 0.931 . S
H185 C175 0.931 . S
H186 C176 0.930 . S
H187 C177 0.929 . S
Eu188 N217 2.600 1_556 S
Eu188 N223 2.562 . S
Eu188 O232 2.462 1_556 S
Eu188 O233 2.373 . S
Eu188 O235 2.432 1_556 S
Eu188 O236 2.291 . S
Eu188 O240 2.335 1_546 S
Eu188 O243 2.372 1_556 S
Eu188 C252 2.787 1_556 S
C189 N190 1.365 . S
C189 C192 1.405 . S
C189 C196 1.448 . S
N190 C189 1.365 . S
N190 C193 1.319 . S
N190 Eu199 2.600 . S
C191 C193 1.397 . S
C191 C194 1.367 . S
C191 H211 0.931 . S
C192 C189 1.405 . S
C192 C194 1.403 . S
C192 C198 1.439 . S
C193 N190 1.319 . S
C193 C191 1.397 . S
C193 H204 0.930 . S
C194 C191 1.367 . S
C194 C192 1.403 . S
C194 H215 0.929 . S
C195 C196 1.430 . S
C195 C197 1.387 . S
C195 C201 1.404 . S
C196 C189 1.448 . S
C196 C195 1.430 . S
C196 N200 1.351 . S
C197 C195 1.387 . S
C197 C198 1.374 . S
C197 H212 0.931 . S
C198 C192 1.439 . S
C198 C197 1.374 . S
C198 H213 0.931 . S
Eu199 N190 2.600 . S
Eu199 N200 2.562 . S
Eu199 O234 2.335 1_565 S
Eu199 O237 2.372 . S
Eu199 O238 2.462 . S
Eu199 O239 2.373 . S
Eu199 O241 2.432 . S
Eu199 O242 2.291 . S
Eu199 C263 2.787 . S
N200 C196 1.351 . S
N200 Eu199 2.562 . S
N200 C202 1.325 . S
C201 C195 1.404 . S
C201 C203 1.366 . S
C201 H209 0.930 . S
C202 N200 1.325 . S
C202 C203 1.416 . S
C202 H208 0.929 . S
C203 C201 1.366 . S
C203 C202 1.416 . S
C203 H205 0.930 . S
H204 C193 0.930 . S
H205 C203 0.930 . S
H206 C221 0.930 . S
H207 C228 0.930 . S
H208 C202 0.929 . S
H209 C201 0.930 . S
H210 C224 0.929 . S
H211 C191 0.931 . S
H212 C197 0.931 . S
H213 C198 0.931 . S
H214 C219 0.931 . S
H215 C194 0.929 . S
H216 C227 0.930 . S
N217 Eu188 2.600 1_554 S
N217 C218 1.365 . S
N217 C221 1.319 . S
C218 N217 1.365 . S
C218 C220 1.405 . S
C218 C226 1.448 1_554 S
C219 H214 0.931 . S
C219 C221 1.397 . S
C219 C222 1.367 . S
C220 C218 1.405 . S
C220 C222 1.403 . S
C220 C253 1.439 1_554 S
C221 H206 0.930 . S
C221 N217 1.319 . S
C221 C219 1.397 . S
C222 C219 1.367 . S
C222 C220 1.403 . S
C222 H229 0.929 . S
N223 Eu188 2.562 . S
N223 C224 1.325 . S
N223 C226 1.351 . S
C224 H210 0.929 . S
C224 N223 1.325 . S
C224 C228 1.416 . S
C225 C226 1.430 . S
C225 C227 1.404 . S
C225 C254 1.387 . S
C226 C218 1.448 1_556 S
C226 N223 1.351 . S
C226 C225 1.430 . S
C227 H216 0.930 . S
C227 C225 1.404 . S
C227 C228 1.366 . S
C228 H207 0.930 . S
C228 C224 1.416 . S
C228 C227 1.366 . S
H229 C222 0.929 . S
H230 C253 0.931 . S
H231 C254 0.931 . S
O232 Eu188 2.462 1_554 S
O232 C252 1.252 . S
O233 Eu188 2.373 . S
O233 C244 1.249 . S
O234 Eu199 2.335 1_545 S
O234 C244 1.264 . S
O235 Eu188 2.432 1_554 S
O235 C252 1.268 . S
O236 Eu188 2.291 . S
O236 C251 1.255 1_545 S
O237 Eu199 2.372 . S
O237 C251 1.257 . S
O238 Eu199 2.462 . S
O238 C263 1.252 . S
O239 Eu199 2.373 . S
O239 C255 1.249 1_556 S
O240 Eu188 2.335 1_564 S
O240 C255 1.264 . S
O241 Eu199 2.432 . S
O241 C263 1.268 . S
O242 Eu199 2.291 . S
O242 C262 1.255 1_565 S
O243 Eu188 2.372 1_554 S
O243 C262 1.257 1_554 S
C244 O233 1.249 . S
C244 O234 1.264 . S
C245 C248 1.382 . S
C245 C250 1.390 . S
C245 C252 1.506 . S
C246 C247 1.398 . S
C246 C250 1.392 . S
C247 C246 1.398 . S
C247 C249 1.372 . S
C247 H264 0.931 . S
C248 C245 1.382 . S
C248 C249 1.390 . S
C248 H265 0.931 . S
C249 C247 1.372 . S
C249 C248 1.390 . S
C249 H266 0.929 . S
C250 C245 1.390 . S
C250 C246 1.392 . S
C250 H267 0.930 . S
C251 O236 1.255 1_565 S
C251 O237 1.257 . S
C252 Eu188 2.787 1_554 S
C252 O232 1.252 . S
C252 O235 1.268 . S
C252 C245 1.506 . S
C253 C220 1.439 1_556 S
C253 H230 0.931 . S
C253 C254 1.374 . S
C254 C225 1.387 . S
C254 H231 0.931 . S
C254 C253 1.374 . S
C255 O239 1.249 1_554 S
C255 O240 1.264 . S
C256 C259 1.382 . S
C256 C260 1.390 . S
C256 C263 1.506 . S
C257 C258 1.398 1_554 S
C257 C260 1.392 . S
C258 C257 1.398 1_556 S
C258 C261 1.372 . S
C258 H268 0.931 . S
C259 C256 1.382 . S
C259 C261 1.390 1_554 S
C259 H269 0.931 . S
C260 C256 1.390 . S
C260 C257 1.392 . S
C260 H270 0.930 . S
C261 C258 1.372 . S
C261 C259 1.390 1_556 S
C261 H271 0.929 . S
C262 O242 1.255 1_545 S
C262 O243 1.257 1_556 S
C263 Eu199 2.787 . S
C263 O238 1.252 . S
C263 O241 1.268 . S
C263 C256 1.506 . S
H264 C247 0.931 . S
H265 C248 0.931 . S
H266 C249 0.929 . S
H267 C250 0.930 . S
H268 C258 0.931 . S
H269 C259 0.931 . S
H270 C260 0.930 . S
H271 C261 0.929 . S
Eu272 N301 2.600 . S
Eu272 N307 2.562 . S
Eu272 O316 2.462 . S
Eu272 O317 2.373 . S
Eu272 O319 2.432 . S
Eu272 O320 2.291 . S
Eu272 O324 2.335 . S
Eu272 O327 2.372 . S
Eu272 C336 2.787 . S
C273 N274 1.365 . S
C273 C276 1.405 . S
C273 C280 1.448 . S
N274 C273 1.365 . S
N274 C277 1.319 1_554 S
N274 Eu283 2.600 1_554 S
C275 C277 1.397 . S
C275 C278 1.367 1_556 S
C275 H295 0.931 . S
C276 C273 1.405 . S
C276 C278 1.403 . S
C276 C282 1.439 . S
C277 N274 1.319 1_556 S
C277 C275 1.397 . S
C277 H288 0.930 . S
C278 C275 1.367 1_554 S
C278 C276 1.403 . S
C278 H299 0.929 . S
C279 C280 1.430 . S
C279 C281 1.387 . S
C279 C285 1.404 . S
C280 C273 1.448 . S
C280 C279 1.430 . S
C280 N284 1.351 . S
C281 C279 1.387 . S
C281 C282 1.374 . S
C281 H296 0.931 . S
C282 C276 1.439 . S
C282 C281 1.374 . S
C282 H297 0.931 . S
Eu283 N274 2.600 1_556 S
Eu283 N284 2.562 1_556 S
Eu283 O318 2.335 . S
Eu283 O321 2.372 . S
Eu283 O322 2.462 1_556 S
Eu283 O323 2.373 . S
Eu283 O325 2.432 1_556 S
Eu283 O326 2.291 1_556 S
Eu283 C347 2.787 1_556 S
N284 C280 1.351 . S
N284 Eu283 2.562 1_554 S
N284 C286 1.325 . S
C285 C279 1.404 . S
C285 C287 1.366 . S
C285 H293 0.930 . S
C286 N284 1.325 . S
C286 C287 1.416 . S
C286 H292 0.929 . S
C287 C285 1.366 . S
C287 C286 1.416 . S
C287 H289 0.930 . S
H288 C277 0.930 . S
H289 C287 0.930 . S
H290 C305 0.930 . S
H291 C312 0.930 . S
H292 C286 0.929 . S
H293 C285 0.930 . S
H294 C308 0.929 . S
H295 C275 0.931 . S
H296 C281 0.931 . S
H297 C282 0.931 . S
H298 C303 0.931 . S
H299 C278 0.929 . S
H300 C311 0.930 1_556 S
N301 Eu272 2.600 . S
N301 C302 1.365 . S
N301 C305 1.319 . S
C302 N301 1.365 . S
C302 C304 1.405 . S
C302 C310 1.448 . S
C303 H298 0.931 . S
C303 C305 1.397 . S
C303 C306 1.367 . S
C304 C302 1.405 . S
C304 C306 1.403 . S
C304 C337 1.439 . S
C305 H290 0.930 . S
C305 N301 1.319 . S
C305 C303 1.397 . S
C306 C303 1.367 . S
C306 C304 1.403 . S
C306 H313 0.929 . S
N307 Eu272 2.562 . S
N307 C308 1.325 . S
N307 C310 1.351 . S
C308 H294 0.929 . S
C308 N307 1.325 . S
C308 C312 1.416 . S
C309 C310 1.430 . S
C309 C311 1.404 . S
C309 C338 1.387 . S
C310 C302 1.448 . S
C310 N307 1.351 . S
C310 C309 1.430 . S
C311 H300 0.930 1_554 S
C311 C309 1.404 . S
C311 C312 1.366 . S
C312 H291 0.930 . S
C312 C308 1.416 . S
C312 C311 1.366 . S
H313 C306 0.929 . S
H314 C337 0.931 . S
H315 C338 0.931 . S
O316 Eu272 2.462 . S
O316 C336 1.252 . S
O317 Eu272 2.373 . S
O317 C328 1.249 . S
O318 Eu283 2.335 . S
O318 C328 1.264 . S
O319 Eu272 2.432 . S
O319 C336 1.268 . S
O320 Eu272 2.291 . S
O320 C335 1.255 . S
O321 Eu283 2.372 . S
O321 C335 1.257 . S
O322 Eu283 2.462 1_554 S
O322 C347 1.252 . S
O323 Eu283 2.373 . S
O323 C339 1.249 . S
O324 Eu272 2.335 . S
O324 C339 1.264 . S
O325 Eu283 2.432 1_554 S
O325 C347 1.268 . S
O326 Eu283 2.291 1_554 S
O326 C346 1.255 . S
O327 Eu272 2.372 . S
O327 C346 1.257 1_556 S
C328 O317 1.249 . S
C328 O318 1.264 . S
C329 C332 1.382 . S
C329 C334 1.390 . S
C329 C336 1.506 . S
C330 C331 1.398 . S
C330 C334 1.392 . S
C331 C330 1.398 . S
C331 C333 1.372 . S
C331 H348 0.931 . S
C332 C329 1.382 . S
C332 C333 1.390 . S
C332 H349 0.931 . S
C333 C331 1.372 . S
C333 C332 1.390 . S
C333 H350 0.929 . S
C334 C329 1.390 . S
C334 C330 1.392 . S
C334 H351 0.930 . S
C335 O320 1.255 . S
C335 O321 1.257 . S
C336 Eu272 2.787 . S
C336 O316 1.252 . S
C336 O319 1.268 . S
C336 C329 1.506 . S
C337 C304 1.439 . S
C337 H314 0.931 . S
C337 C338 1.374 . S
C338 C309 1.387 . S
C338 H315 0.931 . S
C338 C337 1.374 . S
C339 O323 1.249 . S
C339 O324 1.264 . S
C340 C343 1.382 . S
C340 C344 1.390 . S
C340 C347 1.506 . S
C341 C342 1.398 . S
C341 C344 1.392 . S
C342 C341 1.398 . S
C342 C345 1.372 . S
C342 H352 0.931 . S
C343 C340 1.382 . S
C343 C345 1.390 . S
C343 H353 0.931 . S
C344 C340 1.390 . S
C344 C341 1.392 . S
C344 H354 0.930 . S
C345 C342 1.372 . S
C345 C343 1.390 . S
C345 H355 0.929 . S
C346 O326 1.255 . S
C346 O327 1.257 1_554 S
C347 Eu283 2.787 1_554 S
C347 O322 1.252 . S
C347 O325 1.268 . S
C347 C340 1.506 . S
H348 C331 0.931 . S
H349 C332 0.931 . S
H350 C333 0.929 . S
H351 C334 0.930 . S
H352 C342 0.931 . S
H353 C343 0.931 . S
H354 C344 0.930 . S
H355 C345 0.929 . S
Eu356 N385 2.600 . S
Eu356 N391 2.562 1_455 S
Eu356 O400 2.462 . S
Eu356 O401 2.373 1_455 S
Eu356 O403 2.432 . S
Eu356 O404 2.291 . S
Eu356 O408 2.335 . S
Eu356 O411 2.372 . S
Eu356 C420 2.787 . S
C357 N358 1.365 . S
C357 C360 1.405 . S
C357 C364 1.448 . S
N358 C357 1.365 . S
N358 C361 1.319 1_554 S
N358 Eu367 2.600 1_454 S
C359 C361 1.397 . S
C359 C362 1.367 1_556 S
C359 H379 0.931 . S
C360 C357 1.405 . S
C360 C362 1.403 . S
C360 C366 1.439 . S
C361 N358 1.319 1_556 S
C361 C359 1.397 . S
C361 H372 0.930 1_455 S
C362 C359 1.367 1_554 S
C362 C360 1.403 . S
C362 H383 0.929 . S
C363 C364 1.430 . S
C363 C365 1.387 . S
C363 C369 1.404 . S
C364 C357 1.448 . S
C364 C363 1.430 . S
C364 N368 1.351 . S
C365 C363 1.387 . S
C365 C366 1.374 . S
C365 H380 0.931 . S
C366 C360 1.439 . S
C366 C365 1.374 . S
C366 H381 0.931 . S
Eu367 N358 2.600 1_656 S
Eu367 N368 2.562 1_656 S
Eu367 O402 2.335 . S
Eu367 O405 2.372 . S
Eu367 O406 2.462 1_556 S
Eu367 O407 2.373 1_655 S
Eu367 O409 2.432 1_556 S
Eu367 O410 2.294 1_556 S
Eu367 C431 2.787 1_556 S
N368 C364 1.351 . S
N368 Eu367 2.562 1_454 S
N368 C370 1.325 . S
C369 C363 1.404 . S
C369 C371 1.366 . S
C369 H377 0.930 . S
C370 N368 1.325 . S
C370 C371 1.416 . S
C370 H376 0.929 . S
C371 C369 1.366 . S
C371 C370 1.416 . S
C371 H373 0.930 . S
H372 C361 0.930 1_655 S
H373 C371 0.930 . S
H374 C389 0.930 . S
H375 C396 0.930 . S
H376 C370 0.929 . S
H377 C369 0.930 . S
H378 C392 0.934 . S
H379 C359 0.931 . S
H380 C365 0.931 . S
H381 C366 0.931 . S
H382 C387 0.931 . S
H383 C362 0.929 . S
H384 C395 0.930 1_556 S
N385 Eu356 2.600 . S
N385 C386 1.365 1_455 S
N385 C389 1.319 . S
C386 N385 1.365 1_655 S
C386 C388 1.405 . S
C386 C394 1.448 . S
C387 H382 0.931 . S
C387 C389 1.397 1_655 S
C387 C390 1.367 . S
C388 C386 1.405 . S
C388 C390 1.403 . S
C388 C421 1.439 . S
C389 H374 0.930 . S
C389 N385 1.319 . S
C389 C387 1.397 1_455 S
C390 C387 1.367 . S
C390 C388 1.403 . S
C390 H397 0.929 . S
N391 Eu356 2.562 1_655 S
N391 C392 1.325 . S
N391 C394 1.351 . S
C392 H378 0.934 . S
C392 N391 1.325 . S
C392 C396 1.416 . S
C393 C394 1.430 . S
C393 C395 1.404 . S
C393 C422 1.387 . S
C394 C386 1.448 . S
C394 N391 1.351 . S
C394 C393 1.430 . S
C395 H384 0.930 1_554 S
C395 C393 1.404 . S
C395 C396 1.366 . S
C396 H375 0.930 . S
C396 C392 1.416 . S
C396 C395 1.366 . S
H397 C390 0.929 . S
H398 C421 0.931 . S
H399 C422 0.931 . S
O400 Eu356 2.462 . S
O400 C420 1.252 . S
O401 Eu356 2.373 1_655 S
O401 C412 1.249 . S
O402 Eu367 2.335 . S
O402 C412 1.264 . S
O403 Eu356 2.432 . S
O403 C420 1.268 . S
O404 Eu356 2.291 . S
O404 C419 1.255 . S
O405 Eu367 2.372 . S
O405 C419 1.257 1_655 S
O406 Eu367 2.462 1_554 S
O406 C431 1.252 . S
O407 Eu367 2.373 1_455 S
O407 C423 1.249 . S
O408 Eu356 2.335 . S
O408 C423 1.264 . S
O409 Eu367 2.432 1_554 S
O409 C431 1.268 . S
O410 Eu367 2.294 1_554 S
O410 C430 1.254 1_655 S
O411 Eu356 2.372 . S
O411 C430 1.257 1_556 S
C412 O401 1.249 . S
C412 O402 1.264 . S
C413 C416 1.382 . S
C413 C418 1.390 . S
C413 C420 1.506 . S
C414 C415 1.398 . S
C414 C418 1.392 . S
C415 C414 1.398 . S
C415 C417 1.372 . S
C415 H432 0.931 . S
C416 C413 1.382 . S
C416 C417 1.390 . S
C416 H433 0.931 . S
C417 C415 1.372 . S
C417 C416 1.390 . S
C417 H434 0.929 . S
C418 C413 1.390 . S
C418 C414 1.392 . S
C418 H435 0.930 . S
C419 O404 1.255 . S
C419 O405 1.257 1_455 S
C420 Eu356 2.787 . S
C420 O400 1.252 . S
C420 O403 1.268 . S
C420 C413 1.506 . S
C421 C388 1.439 . S
C421 H398 0.931 . S
C421 C422 1.374 . S
C422 C393 1.387 . S
C422 H399 0.931 . S
C422 C421 1.374 . S
C423 O407 1.249 . S
C423 O408 1.264 . S
C424 C427 1.382 . S
C424 C428 1.390 . S
C424 C431 1.506 . S
C425 C426 1.398 . S
C425 C428 1.392 . S
C426 C425 1.398 . S
C426 C429 1.372 . S
C426 H436 0.931 . S
C427 C424 1.382 . S
C427 C429 1.390 . S
C427 H437 0.931 . S
C428 C424 1.390 . S
C428 C425 1.392 . S
C428 H438 0.930 . S
C429 C426 1.372 . S
C429 C427 1.390 . S
C429 H439 0.929 . S
C430 O410 1.254 1_455 S
C430 O411 1.257 1_554 S
C431 Eu367 2.787 1_554 S
C431 O406 1.252 . S
C431 O409 1.268 . S
C431 C424 1.506 . S
H432 C415 0.931 . S
H433 C416 0.931 . S
H434 C417 0.929 . S
H435 C418 0.930 . S
H436 C426 0.931 . S
H437 C427 0.931 . S
H438 C428 0.930 . S
H439 C429 0.929 . S
C82 C167 3.154 . S
C244 C95 3.110 . S
C335 C56 3.169 . S
C419 C69 3.135 . S
C178 C30 3.113 . S
C43 C255 3.111 . S
C4 C346 3.129 . S
C17 C430 3.093 . S
C162 C74 1.957 1_655 S
C257 C87 1.819 1_565 S
C330 C100 2.000 . S
C61 C414 1.957 . S
C22 C173 1.935 1_655 S
C246 C35 1.800 1_545 S
C341 C48 1.979 . S
C9 C425 1.935 . S
C73 C171 3.372 . S
C86 C262 3.499 . S
C339 C99 3.391 . S
C423 C60 3.396 . S
C21 C160 3.376 . S
C251 C34 3.501 . S
C328 C47 3.395 . S
C8 C412 3.400 . S
