# Generated by pormake.
# Topology tsx, (6,3)-cn, num edge types: 1
# Building blocks:
#     Node 0, Type 0, BuildingBlock: CIFDUS_clean_sbu_1, # of connection points: 6
#     Node 1, Type 0, BuildingBlock: CIFDUS_clean_sbu_1, # of connection points: 6
#     Node 2, Type 1, BuildingBlock: INOVEN_clean_linker_0, # of connection points: 3
#     Node 3, Type 1, BuildingBlock: INOVEN_clean_linker_0, # of connection points: 3
#     Node 4, Type 1, BuildingBlock: INOVEN_clean_linker_0, # of connection points: 3
#     Node 5, Type 1, BuildingBlock: INOVEN_clean_linker_0, # of connection points: 3
#     Edge 6, Type (0, 1), BuildingBlock: FUNLAD_clean_linker_0, # of connection points: 2
#     Edge 7, Type (0, 1), BuildingBlock: FUNLAD_clean_linker_0, # of connection points: 2
#     Edge 8, Type (0, 1), BuildingBlock: FUNLAD_clean_linker_0, # of connection points: 2
#     Edge 9, Type (0, 1), BuildingBlock: FUNLAD_clean_linker_0, # of connection points: 2
#     Edge 10, Type (0, 1), BuildingBlock: FUNLAD_clean_linker_0, # of connection points: 2
#     Edge 11, Type (0, 1), BuildingBlock: FUNLAD_clean_linker_0, # of connection points: 2
#     Edge 12, Type (0, 1), BuildingBlock: FUNLAD_clean_linker_0, # of connection points: 2
#     Edge 13, Type (0, 1), BuildingBlock: FUNLAD_clean_linker_0, # of connection points: 2
#     Edge 14, Type (0, 1), BuildingBlock: FUNLAD_clean_linker_0, # of connection points: 2
#     Edge 15, Type (0, 1), BuildingBlock: FUNLAD_clean_linker_0, # of connection points: 2
#     Edge 16, Type (0, 1), BuildingBlock: FUNLAD_clean_linker_0, # of connection points: 2
#     Edge 17, Type (0, 1), BuildingBlock: FUNLAD_clean_linker_0, # of connection points: 2
# Relax obj value: 0.087
# Max RMSD: 0.138
# Mean RMSD: 0.103
data_MOF--net-tsx--node1-CIFDUS_clean_sbu_1--node2-INOVEN_clean_linker_0--edge1-FUNLAD_clean_linker_0
_symmetry_space_group_name_H-M    P1
_symmetry_Int_Tables_number       1
_symmetry_cell_setting            triclinic
loop_
_symmetry_equiv_pos_as_xyz
'x, y, z'
_cell_length_a     20.810845
_cell_length_b     26.603515
_cell_length_c     39.811373
_cell_angle_alpha  98.061597
_cell_angle_beta   105.27234
_cell_angle_gamma 92.347193
loop_
_atom_site_label
_atom_site_type_symbol
_atom_site_fract_x
_atom_site_fract_y
_atom_site_fract_z
_atom_type_partial_charge
O0 O 1.01843 0.0739 0.00964 0.0
Mn1 Mn 0.07319 0.00926 0.01137 0.0
O2 O 0.91875 0.05006 0.96983 0.0
Mn3 Mn 0.94128 0.98795 0.95054 0.0
O4 O 0.1269 0.9445 0.01269 0.0
O5 O 0.15699 0.05396 0.03533 0.0
Mn6 Mn 0.20684 0.02889 0.07112 0.0
O7 O 0.05609 0.00178 0.05998 0.0
O8 O 0.22733 0.96595 0.05189 0.0
O9 O 0.09159 0.01654 0.96308 0.0
O10 O 0.99583 0.99024 0.92072 0.0
O11 O 0.25202 0.08927 0.06859 0.0
O12 O 0.15343 0.02698 0.10159 0.0
C13 C 0.94679 0.92517 0.97955 0.0
C14 C 0.95851 0.08268 0.99361 0.0
C15 C 0.18605 0.934 0.02839 0.0
C16 C 0.20125 0.09184 0.04213 0.0
C17 C 0.09133 0.01222 0.09227 0.0
C18 C 0.05782 0.00517 0.93063 0.0
O19 O 0.98992 0.96396 0.98709 0.0
O20 O 0.89739 0.92667 0.95218 0.0
O21 O 0.52857 0.59086 0.50906 0.0
Mn22 Mn 0.58167 0.52534 0.51239 0.0
O23 O 0.42814 0.56637 0.47002 0.0
Mn24 Mn 0.44806 0.50215 0.45304 0.0
O25 O 0.63332 0.45967 0.51536 0.0
O26 O 0.66734 0.5693 0.53349 0.0
Mn27 Mn 0.71742 0.54662 0.57029 0.0
O28 O 0.56768 0.52282 0.56265 0.0
O29 O 0.73429 0.48105 0.55409 0.0
O30 O 0.59746 0.52749 0.46273 0.0
O31 O 0.5006 0.49877 0.42201 0.0
O32 O 0.76505 0.60347 0.56423 0.0
O33 O 0.66645 0.55117 0.60209 0.0
C34 C 0.45151 0.44343 0.48501 0.0
C35 C 0.46876 0.59964 0.49281 0.0
C36 C 0.69168 0.44859 0.53177 0.0
C37 C 0.71346 0.60536 0.53805 0.0
C38 C 0.60445 0.53652 0.59453 0.0
C39 C 0.56264 0.51325 0.43069 0.0
O40 O 0.49676 0.48047 0.49063 0.0
O41 O 0.4016 0.44397 0.45771 0.0
H42 H 0.11029 0.99344 0.49509 0.0
H43 H 0.16011 0.94089 0.39814 0.0
H44 H 1.01672 0.05156 0.4002 0.0
N45 N 1.02143 0.05647 0.46856 0.0
N46 N 0.97176 0.07637 0.4523 0.0
C47 C 0.10375 0.99375 0.46722 0.0
C48 C 0.14073 0.96281 0.44882 0.0
C49 C 0.05828 0.02526 0.44975 0.0
C50 C 0.05106 0.02677 0.41382 0.0
C51 C 0.08817 -0.00301 0.39524 0.0
C52 C 0.13221 0.96455 0.4127 0.0
H53 H 1.03311 0.01753 0.53058 0.0
H54 H 0.98476 0.96468 0.61917 0.0
H55 H 0.12997 0.09117 0.6363 0.0
N56 N 0.12124 0.09439 0.56849 0.0
N57 N 0.14454 0.13618 0.58716 0.0
C58 C 0.04033 0.02034 0.55871 0.0
C59 C 1.00294 0.98664 0.57203 0.0
C60 C 0.08513 0.05896 0.58176 0.0
C61 C 0.09395 0.06251 0.61829 0.0
C62 C 0.05835 0.02861 0.63198 0.0
C63 C 1.0127 0.99092 0.6087 0.0
H64 H 0.60528 0.48032 0.99187 0.0
H65 H 0.66699 0.42553 0.89902 0.0
H66 H 0.52222 0.53627 0.8947 0.0
N67 N 0.51894 0.5426 0.96226 0.0
N68 N 0.4741 0.56577 0.94486 0.0
C69 C 0.60191 0.48001 0.96424 0.0
C70 C 0.64169 0.44897 0.94787 0.0
C71 C 0.55799 0.51096 0.94513 0.0
C72 C 0.55455 0.51132 0.90938 0.0
C73 C 0.59441 0.48124 0.89273 0.0
C74 C 0.6376 0.44999 0.91211 0.0
H75 H 0.52779 0.49628 0.0269 0.0
H76 H 0.4827 0.45727 0.12008 0.0
H77 H 0.64284 0.56971 0.12973 0.0
N78 N 0.62988 0.56426 0.0602 0.0
N79 N 0.68239 0.58965 0.07831 0.0
C80 C 0.53774 0.50125 0.05531 0.0
C81 C 0.4987 0.47242 0.07088 0.0
C82 C 0.58994 0.53628 0.07634 0.0
C83 C 0.60236 0.54302 0.11326 0.0
C84 C 0.56379 0.51485 0.12921 0.0
C85 C 0.51208 0.47965 0.10784 0.0
C86 C 0.23228 0.14091 0.99949 0.0
C87 C 0.19573 0.13644 0.02405 0.0
C88 C 0.24767 0.18884 0.99154 0.0
C89 C 0.22732 0.23303 0.0085 0.0
C90 C 0.18526 0.22757 0.0304 0.0
C91 C 0.17057 0.17977 0.03857 0.0
C92 C 0.25544 0.28523 0.00802 0.0
C93 C 0.31814 0.29481 1.00556 0.0
C94 C 0.35661 0.34569 0.01709 0.0
C95 C 0.41641 0.35332 0.00766 0.0
C96 C 0.46077 0.39632 0.02338 0.0
C97 C 0.44656 0.43236 0.04924 0.0
H98 H 0.29593 0.37928 0.05004 0.0
C99 C 0.38498 0.42643 0.05711 0.0
C100 C 0.34053 0.38364 0.04132 0.0
H101 H 0.3724 0.45388 0.0767 0.0
H102 H 0.25312 0.10791 0.98847 0.0
H103 H 0.27837 0.19132 0.97362 0.0
H104 H 0.16854 0.26081 0.04369 0.0
H105 H 0.14412 0.17729 0.05844 0.0
H106 H 0.22745 0.31666 0.01506 0.0
H107 H 0.34585 0.26327 0.99836 0.0
H108 H 0.43044 0.32471 0.98929 0.0
H109 H 0.50798 0.39969 0.0169 0.0
C110 C 0.27377 0.87165 0.03455 0.0
C111 C 0.2082 0.88293 0.01885 0.0
C112 C 0.29624 0.8245 0.02494 0.0
C113 C 0.25347 0.78701 0.99955 0.0
C114 C 0.1877 0.798 0.98412 0.0
C115 C 0.16515 0.84534 0.99372 0.0
C116 C 0.27756 0.73818 0.98634 0.0
C117 C 0.33285 0.71846 1.0041 0.0
C118 C 0.36386 0.67484 0.98852 0.0
C119 C 0.41205 0.65014 0.01097 0.0
C120 C 0.44762 0.61279 0.99709 0.0
C121 C 0.43556 0.59977 0.9604 0.0
H122 H 0.31638 0.67945 0.93339 0.0
C123 C 0.38666 0.62336 0.93806 0.0
C124 C 0.35126 0.66062 0.9518 0.0
H125 H 0.37742 0.61396 0.90973 0.0
H126 H 0.30857 0.89966 0.05387 0.0
H127 H 0.34789 0.81859 0.0367 0.0
H128 H 0.15384 0.77009 0.96421 0.0
H129 H 0.11429 0.85262 0.98112 0.0
H130 H 0.2488 0.71844 0.96071 0.0
H131 H 0.35778 0.73543 0.03108 0.0
H132 H 0.42332 0.66061 0.03933 0.0
H133 H 0.48549 0.59525 0.01495 0.0
C134 C 0.93817 0.83255 0.97979 0.0
C135 C 0.9505 0.88196 0.99898 0.0
C136 C 0.92253 0.79151 0.99529 0.0
C137 C 0.91718 0.79946 0.0301 0.0
C138 C 0.93543 0.84829 0.05021 0.0
C139 C 0.95171 0.88941 0.03468 0.0
C140 C 0.88785 0.7589 0.04514 0.0
C141 C 0.84178 0.72196 0.02488 0.0
C142 C 0.80331 0.68539 0.03886 0.0
C143 C 0.74437 0.65906 0.01606 0.0
C144 C 0.70446 0.62649 0.02841 0.0
C145 C 0.72311 0.61959 0.06391 0.0
H146 H 0.86863 0.69471 0.09238 0.0
C147 C 0.78271 0.64441 0.08639 0.0
C148 C 0.82279 0.67675 0.07409 0.0
H149 H 0.79786 0.63903 0.11376 0.0
H150 H 0.93719 0.82608 0.95216 0.0
H151 H 0.91196 0.75409 0.97942 0.0
H152 H 0.93258 0.85538 0.07723 0.0
H153 H 0.95952 0.92741 0.04967 0.0
H154 H 0.89908 0.76335 0.07363 0.0
H155 H 0.82701 0.72084 0.9965 0.0
H156 H 0.72831 0.66454 0.98872 0.0
H157 H 0.65869 0.6076 0.01042 0.0
C158 C 0.86451 0.13779 0.99397 0.0
C159 C 0.93369 0.13313 1.00166 0.0
C160 C 0.83956 0.18555 0.99719 0.0
C161 C 0.88325 0.23012 0.00833 0.0
C162 C 0.95252 0.22539 0.01714 0.0
C163 C 0.97752 0.17732 0.0141 0.0
C164 C 0.8579 0.28152 0.00671 0.0
C165 C 0.79504 0.29112 0.0074 0.0
C166 C 0.76244 0.33747 0.99686 0.0
C167 C 0.70043 0.34638 1.00345 0.0
C168 C 0.66256 0.38424 0.98899 0.0
C169 C 0.68574 0.41392 0.96738 0.0
H170 H 0.83396 0.3633 0.97036 0.0
C171 C 0.74929 0.40689 0.96229 0.0
C172 C 0.78715 0.36904 0.97671 0.0
H173 H 0.76898 0.42967 0.94619 0.0
H174 H 0.82929 0.10446 0.98435 0.0
H175 H 0.78593 0.18717 0.98909 0.0
H176 H 0.98738 0.25903 0.02536 0.0
H177 H 1.03088 0.17494 0.01981 0.0
H178 H 0.89152 0.31144 1.00328 0.0
H179 H 0.7642 0.26247 0.01428 0.0
H180 H 0.67985 0.32256 0.01867 0.0
H181 H 0.61364 0.38844 0.99326 0.0
C182 C 0.75156 0.6518 0.49622 0.0
C183 C 0.70914 0.64788 0.51803 0.0
C184 C 0.76721 0.69905 0.48739 0.0
C185 C 0.74138 0.74325 0.50085 0.0
C186 C 0.69387 0.73805 0.5198 0.0
C187 C 0.67875 0.69089 0.5288 0.0
C188 C 0.76896 0.79558 0.50022 0.0
C189 C 0.83325 0.80635 0.50071 0.0
C190 C 0.86934 0.85799 0.51321 0.0
C191 C 0.93128 0.86751 0.50631 0.0
C192 C 0.9731 0.91134 0.52352 0.0
C193 C 0.95415 0.94605 0.54842 0.0
H194 H 0.80229 0.88892 0.54323 0.0
C195 C 0.89059 0.93825 0.55369 0.0
C196 C 0.84865 0.89481 0.53637 0.0
H197 H 0.87456 0.96468 0.57258 0.0
H198 H 0.7765 0.61911 0.4882 0.0
H199 H 0.80228 0.70116 0.47173 0.0
H200 H 0.67299 0.7713 0.53044 0.0
H201 H 0.64821 0.68903 0.54689 0.0
H202 H 0.73846 0.82653 0.5049 0.0
H203 H 0.86366 0.77549 0.49567 0.0
H204 H 0.94883 0.83977 0.48883 0.0
H205 H 1.02192 0.91638 0.51907 0.0
C206 C 0.76801 0.38032 0.54754 0.0
C207 C 0.71124 0.39606 0.52476 0.0
C208 C 0.78929 0.33192 0.5404 0.0
C209 C 0.75473 0.29804 0.50991 0.0
C210 C 0.69638 0.3131 0.48791 0.0
C211 C 0.67472 0.36151 0.49525 0.0
C212 C 0.77905 0.24799 0.49903 0.0
C213 C 0.84055 0.23376 0.51349 0.0
C214 C 0.86867 0.18819 0.4984 0.0
C215 C 0.92444 0.16891 0.51969 0.0
C216 C 0.95753 0.13033 0.50526 0.0
C217 C 0.93545 0.11069 0.46914 0.0
H218 H 0.80458 0.18169 0.44474 0.0
C219 C 0.87893 0.12873 0.44815 0.0
C220 C 0.84579 0.16712 0.46246 0.0
H221 H 0.86196 0.11428 0.42018 0.0
H222 H 0.79656 0.40557 0.57096 0.0
H223 H 0.83308 0.32198 0.55893 0.0
H224 H 0.66828 0.28781 0.46439 0.0
H225 H 0.63041 0.37225 0.47731 0.0
H226 H 0.74572 0.22313 0.47678 0.0
H227 H 0.87385 0.25716 0.53639 0.0
H228 H 0.94362 0.18475 0.54735 0.0
H229 H 1.00151 0.11733 0.52197 0.0
C230 C 0.43017 0.4143 0.53743 0.0
C231 C 0.45224 0.40384 0.50709 0.0
C232 C 0.40706 0.37451 0.55182 0.0
C233 C 0.40404 0.32363 0.53534 0.0
C234 C 0.43208 0.31323 0.50692 0.0
C235 C 0.45532 0.3531 0.49264 0.0
C236 C 0.36672 0.28135 0.54484 0.0
C237 C 0.31348 0.28898 0.55763 0.0
C238 C 0.27077 0.24754 0.56426 0.0
C239 C 0.23811 0.25878 0.59069 0.0
C240 C 0.19605 0.22168 0.59745 0.0
C241 C 0.18437 0.173 0.57744 0.0
H242 H 0.2818 0.18911 0.52258 0.0
C243 C 0.2156 0.16151 0.55031 0.0
C244 C 0.25884 0.19858 0.54384 0.0
H245 H 0.20746 0.12396 0.5346 0.0
H246 H 0.42562 0.45327 0.54827 0.0
H247 H 0.38846 0.384 0.57468 0.0
H248 H 0.4312 0.27444 0.49401 0.0
H249 H 0.47093 0.34438 0.4687 0.0
H250 H 0.38007 0.24281 0.53851 0.0
H251 H 0.29964 0.32744 0.56359 0.0
H252 H 0.2458 0.29627 0.60651 0.0
H253 H 0.17252 0.23086 0.61855 0.0
C254 C 0.37565 0.65447 0.49555 0.0
C255 C 0.44434 0.65042 0.49986 0.0
C256 C 0.34992 0.70201 0.49778 0.0
C257 C 0.39238 0.74696 0.50454 0.0
C258 C 0.4614 0.74293 0.50985 0.0
C259 C 0.48719 0.69509 0.50772 0.0
C260 C 0.36521 0.79763 0.50193 0.0
C261 C 0.30393 0.80738 0.50538 0.0
C262 C 0.26858 0.85263 0.49476 0.0
C263 C 0.20835 0.86114 0.50352 0.0
C264 C 0.16808 0.89824 0.48977 0.0
C265 C 0.18704 0.92769 0.46678 0.0
H266 H 0.33423 0.87833 0.46491 0.0
C267 C 0.24875 0.9209 0.45929 0.0
C268 C 0.28896 0.88372 0.47294 0.0
H269 H 0.26531 0.94355 0.44209 0.0
H270 H 0.34125 0.62067 0.48938 0.0
H271 H 0.2963 0.70288 0.49236 0.0
H272 H 0.49522 0.77681 0.51456 0.0
H273 H 0.5399 0.69304 0.51033 0.0
H274 H 0.39604 0.82677 0.49559 0.0
H275 H 0.27638 0.77969 0.51501 0.0
H276 H 0.19102 0.83767 0.52005 0.0
H277 H 0.12065 0.90218 0.49585 0.0
C278 C 0.05854 0.04892 0.14518 0.0
C279 C 0.06053 0.00617 0.1207 0.0
C280 C 0.04496 0.04301 0.17694 0.0
C281 C 0.03518 0.99399 0.18522 0.0
C282 C 1.03207 0.95139 0.15943 0.0
C283 C 0.045 0.95741 0.12739 0.0
C284 C 1.03264 0.98607 0.22111 0.0
C285 C 0.06433 0.01933 0.25015 0.0
C286 C 0.06775 0.01167 0.28674 0.0
C287 C 0.07874 0.05484 0.3128 0.0
C288 C 0.08528 0.04986 0.3479 0.0
C289 C 0.08192 0.00146 0.35786 0.0
H290 H 0.05818 0.92883 0.27745 0.0
C291 C 0.07192 0.95802 0.33198 0.0
C292 C 0.06464 0.96302 0.29664 0.0
H293 H 0.06918 0.92028 0.33904 0.0
H294 H 0.07042 0.08685 0.14037 0.0
H295 H 0.04448 0.07694 0.19533 0.0
H296 H 1.02376 0.91326 0.16491 0.0
H297 H 0.0475 0.92392 0.109 0.0
H298 H 1.00777 0.95072 0.22372 0.0
H299 H 0.09 0.05424 0.24743 0.0
H300 H 0.08224 0.0927 0.30598 0.0
H301 H 0.09383 0.08397 0.3674 0.0
C302 C 0.10751 0.05487 0.89392 0.0
C303 C 0.09126 0.00777 0.90282 0.0
C304 C 0.12411 0.05679 0.86223 0.0
C305 C 0.12493 0.01148 0.83934 0.0
C306 C 0.11422 0.9645 0.84998 0.0
C307 C 0.09651 0.96264 0.88124 0.0
C308 C 0.13068 0.01136 0.80303 0.0
C309 C 0.10284 0.04585 0.78309 0.0
C310 C 0.0946 0.04047 0.74452 0.0
C311 C 0.08572 0.08408 0.72819 0.0
C312 C 0.07386 0.08024 0.69169 0.0
C313 C 0.0698 0.03252 0.67066 0.0
H314 H 0.09417 0.95781 0.73471 0.0
C315 C 0.07792 0.98875 0.68688 0.0
C316 C 0.09009 0.9926 0.72341 0.0
H317 H 0.0753 0.95151 0.67134 0.0
H318 H 0.10338 0.09005 0.91032 0.0
H319 H 0.13398 0.09361 0.85518 0.0
H320 H 0.11509 0.92912 0.83296 0.0
H321 H 0.08378 0.92597 0.88774 0.0
H322 H 0.15141 0.97876 0.79133 0.0
H323 H 0.08206 0.07831 0.79497 0.0
H324 H 0.08775 0.12127 0.74372 0.0
H325 H 0.06694 0.11458 0.67985 0.0
C326 C 0.60169 0.5674 0.6559 0.0
C327 C 0.57688 0.53247 0.6247 0.0
C328 C 0.58771 0.55867 0.68705 0.0
C329 C 0.54911 0.51444 0.68779 0.0
C330 C 0.52003 0.48145 0.65607 0.0
C331 C 0.53426 0.4902 0.62476 0.0
C332 C 0.54183 0.50115 0.72169 0.0
C333 C 0.59317 0.51048 0.75121 0.0
C334 C 0.5908 0.49834 0.78619 0.0
C335 C 0.65149 0.49578 0.81154 0.0
C336 C 0.65248 0.48857 0.84572 0.0
C337 C 0.59266 0.48423 0.85551 0.0
H338 H 0.48293 0.49539 0.77715 0.0
C339 C 0.53168 0.48575 0.83 0.0
C340 C 0.53066 0.49273 0.79567 0.0
H341 H 0.48472 0.48221 0.83673 0.0
H342 H 0.63424 0.60058 0.65653 0.0
H343 H 0.60885 0.58585 0.71079 0.0
H344 H 0.4896 0.44734 0.65592 0.0
H345 H 0.51594 0.46213 0.60136 0.0
H346 H 0.49578 0.4804 0.72161 0.0
H347 H 0.64086 0.52667 0.74956 0.0
H348 H 0.6986 0.50028 0.80505 0.0
H349 H 0.70029 0.4882 0.86485 0.0
C350 C 0.61779 0.55664 0.39275 0.0
C351 C 0.59477 0.51164 0.40197 0.0
C352 C 0.63431 0.55534 0.36073 0.0
C353 C 0.62867 0.50883 0.33791 0.0
C354 C 0.6108 0.4636 0.34876 0.0
C355 C 0.59297 0.46506 0.38024 0.0
C356 C 0.63571 0.50586 0.3016 0.0
C357 C 0.61459 0.54153 0.28121 0.0
C358 C 0.60592 0.53361 0.24248 0.0
C359 C 0.60425 0.57624 0.2252 0.0
C360 C 0.59121 0.57024 0.1885 0.0
C361 C 0.57866 0.52136 0.16823 0.0
H362 H 0.59198 0.45075 0.23412 0.0
C363 C 0.58029 0.47868 0.18547 0.0
C364 C 0.59357 0.48465 0.22213 0.0
H365 H 0.57123 0.44052 0.1706 0.0
H366 H 0.61919 0.59295 0.40923 0.0
H367 H 0.6496 0.59073 0.35347 0.0
H368 H 0.60655 0.4273 0.33181 0.0
H369 H 0.57513 0.42997 0.38697 0.0
H370 H 0.65124 0.47049 0.2902 0.0
H371 H 0.59925 0.57693 0.29274 0.0
H372 H 0.61249 0.61437 0.24011 0.0
H373 H 0.58956 0.6039 0.17591 0.0
loop_
_geom_bond_atom_site_label_1
_geom_bond_atom_site_label_2
_geom_bond_distance
_geom_bond_site_symmetry_2
_ccdc_geom_bond_type
O0 Mn1 2.163 . S
O0 C14 1.244 1_454 S
Mn1 O0 2.163 . S
Mn1 O4 2.158 1_544 S
Mn1 O5 2.221 . S
Mn1 O7 2.163 . S
Mn1 O9 2.160 1_554 S
Mn1 O19 2.221 1_444 S
O2 Mn3 2.087 1_545 S
O2 C14 1.256 . S
Mn3 O2 2.087 1_565 S
Mn3 O10 2.089 1_565 S
Mn3 O19 2.290 . S
Mn3 O20 2.251 . S
O4 Mn1 2.158 1_566 S
O4 C15 1.227 1_556 S
O5 Mn1 2.221 . S
O5 Mn6 2.290 . S
O5 C16 1.278 . S
Mn6 O5 2.290 . S
Mn6 O8 2.089 1_545 S
Mn6 O11 2.251 . S
Mn6 O12 2.087 . S
O7 Mn1 2.163 . S
O7 C17 1.244 . S
O8 Mn6 2.089 1_565 S
O8 C15 1.256 . S
O9 Mn1 2.160 1_556 S
O9 C18 1.239 . S
O10 Mn3 2.089 1_545 S
O10 C18 1.256 1_655 S
O11 Mn6 2.251 . S
O11 C16 1.241 . S
O12 Mn6 2.087 . S
O12 C17 1.256 . S
C13 O19 1.278 . S
C13 O20 1.241 . S
C14 O0 1.244 1_656 S
C14 O2 1.256 . S
C15 O4 1.227 1_554 S
C15 O8 1.256 . S
C16 O5 1.278 . S
C16 O11 1.241 . S
C17 O7 1.244 . S
C17 O12 1.256 . S
C18 O9 1.239 . S
C18 O10 1.256 1_455 S
O19 Mn1 2.221 1_666 S
O19 Mn3 2.290 . S
O19 C13 1.278 . S
O20 Mn3 2.251 . S
O20 C13 1.241 . S
O21 Mn22 2.163 . S
O21 C35 1.244 . S
Mn22 O21 2.163 . S
Mn22 O25 2.160 . S
Mn22 O26 2.221 . S
Mn22 O28 2.163 . S
Mn22 O30 2.160 . S
Mn22 O40 2.221 . S
O23 Mn24 2.087 . S
O23 C35 1.256 . S
Mn24 O23 2.087 . S
Mn24 O31 2.089 . S
Mn24 O40 2.290 . S
Mn24 O41 2.251 . S
O25 Mn22 2.160 . S
O25 C36 1.239 . S
O26 Mn22 2.221 . S
O26 Mn27 2.290 . S
O26 C37 1.278 . S
Mn27 O26 2.290 . S
Mn27 O29 2.089 . S
Mn27 O32 2.251 . S
Mn27 O33 2.087 . S
O28 Mn22 2.163 . S
O28 C38 1.244 . S
O29 Mn27 2.089 . S
O29 C36 1.256 . S
O30 Mn22 2.160 . S
O30 C39 1.239 . S
O31 Mn24 2.089 . S
O31 C39 1.256 . S
O32 Mn27 2.251 . S
O32 C37 1.241 . S
O33 Mn27 2.087 . S
O33 C38 1.256 . S
C34 O40 1.278 . S
C34 O41 1.241 . S
C35 O21 1.244 . S
C35 O23 1.256 . S
C36 O25 1.239 . S
C36 O29 1.256 . S
C37 O26 1.278 . S
C37 O32 1.241 . S
C38 O28 1.244 . S
C38 O33 1.256 . S
C39 O30 1.239 . S
C39 O31 1.256 . S
O40 Mn22 2.221 . S
O40 Mn24 2.290 . S
O40 C34 1.278 . S
O41 Mn24 2.251 . S
O41 C34 1.241 . S
H42 C47 0.929 . S
H43 C52 0.931 . S
H44 C50 0.930 . S
N45 N46 1.234 1_455 S
N45 C49 1.453 . S
N46 N45 1.234 1_655 S
C47 H42 0.929 . S
C47 C48 1.373 . S
C47 C49 1.368 1_565 S
C48 C47 1.373 . S
C48 C52 1.397 . S
C49 N45 1.453 . S
C49 C47 1.368 1_545 S
C49 C50 1.373 . S
C50 H44 0.930 . S
C50 C49 1.373 . S
C50 C51 1.371 1_545 S
C51 C50 1.371 1_565 S
C51 C52 1.383 . S
C52 H43 0.931 . S
C52 C48 1.397 . S
C52 C51 1.383 . S
H53 C58 0.929 . S
H54 C63 0.929 1_565 S
H55 C61 0.930 . S
N56 N57 1.234 . S
N56 C60 1.453 . S
N57 N56 1.234 . S
C58 H53 0.929 . S
C58 C59 1.373 . S
C58 C60 1.368 1_655 S
C59 C58 1.373 . S
C59 C63 1.397 . S
C60 N56 1.453 . S
C60 C58 1.368 1_455 S
C60 C61 1.373 . S
C61 H55 0.930 . S
C61 C60 1.373 . S
C61 C62 1.371 1_455 S
C62 C61 1.371 1_655 S
C62 C63 1.383 . S
C63 H54 0.929 1_545 S
C63 C59 1.397 . S
C63 C62 1.383 . S
H64 C69 0.929 . S
H65 C74 0.931 . S
H66 C72 0.930 . S
N67 N68 1.234 . S
N67 C71 1.453 . S
N68 N67 1.234 . S
C69 H64 0.929 . S
C69 C70 1.373 . S
C69 C71 1.368 . S
C70 C69 1.373 . S
C70 C74 1.397 . S
C71 N67 1.453 . S
C71 C69 1.368 . S
C71 C72 1.373 . S
C72 H66 0.930 . S
C72 C71 1.373 . S
C72 C73 1.371 . S
C73 C72 1.371 . S
C73 C74 1.383 . S
C74 H65 0.931 . S
C74 C70 1.397 . S
C74 C73 1.383 . S
H75 C80 0.929 . S
H76 C85 0.931 . S
H77 C83 0.930 . S
N78 N79 1.234 . S
N78 C82 1.453 . S
N79 N78 1.234 . S
C80 H75 0.929 . S
C80 C81 1.373 . S
C80 C82 1.368 . S
C81 C80 1.373 . S
C81 C85 1.397 . S
C82 N78 1.453 . S
C82 C80 1.368 . S
C82 C83 1.373 . S
C83 H77 0.930 . S
C83 C82 1.373 . S
C83 C84 1.371 . S
C84 C83 1.371 . S
C84 C85 1.383 . S
C85 H76 0.931 . S
C85 C81 1.397 . S
C85 C84 1.383 . S
C86 C87 1.386 . S
C86 C88 1.383 . S
C86 H102 0.951 . S
C87 C86 1.386 . S
C87 C91 1.383 . S
C88 C86 1.383 . S
C88 C89 1.402 . S
C88 H103 0.951 . S
C89 C88 1.402 . S
C89 C90 1.375 . S
C89 C92 1.481 . S
C90 C89 1.375 . S
C90 C91 1.367 . S
C90 H104 0.951 . S
C91 C87 1.383 . S
C91 C90 1.367 . S
C91 H105 0.950 . S
C92 C89 1.481 . S
C92 C93 1.297 . S
C92 H106 0.950 . S
C93 C92 1.297 . S
C93 C94 1.479 . S
C93 H107 0.950 . S
C94 C93 1.479 . S
C94 C95 1.375 . S
C94 C100 1.404 . S
C95 C94 1.375 . S
C95 C96 1.369 . S
C95 H108 0.950 . S
C96 C95 1.369 . S
C96 C97 1.392 . S
C96 H109 0.951 . S
C97 C96 1.392 . S
C97 C99 1.384 . S
H98 C100 0.949 . S
C99 C97 1.384 . S
C99 C100 1.385 . S
C99 H101 0.950 . S
C100 C94 1.404 . S
C100 H98 0.949 . S
C100 C99 1.385 . S
H101 C99 0.950 . S
H102 C86 0.951 . S
H103 C88 0.951 . S
H104 C90 0.951 . S
H105 C91 0.950 . S
H106 C92 0.950 . S
H107 C93 0.950 . S
H108 C95 0.950 . S
H109 C96 0.951 . S
C110 C111 1.386 . S
C110 C112 1.383 . S
C110 H126 0.951 . S
C111 C110 1.386 . S
C111 C115 1.383 1_554 S
C112 C110 1.383 . S
C112 C113 1.402 1_554 S
C112 H127 0.951 . S
C113 C112 1.402 1_556 S
C113 C114 1.375 . S
C113 C116 1.481 . S
C114 C113 1.375 . S
C114 C115 1.367 . S
C114 H128 0.951 . S
C115 C111 1.383 1_556 S
C115 C114 1.367 . S
C115 H129 0.950 . S
C116 C113 1.481 . S
C116 C117 1.297 1_556 S
C116 H130 0.950 . S
C117 C116 1.297 1_554 S
C117 C118 1.479 1_554 S
C117 H131 0.950 . S
C118 C117 1.479 1_556 S
C118 C119 1.375 1_556 S
C118 C124 1.404 . S
C119 C118 1.375 1_554 S
C119 C120 1.369 . S
C119 H132 0.950 . S
C120 C119 1.369 . S
C120 C121 1.392 1_554 S
C120 H133 0.951 . S
C121 C120 1.392 1_556 S
C121 C123 1.384 . S
H122 C124 0.949 . S
C123 C121 1.384 . S
C123 C124 1.385 . S
C123 H125 0.950 . S
C124 C118 1.404 . S
C124 H122 0.949 . S
C124 C123 1.385 . S
H125 C123 0.950 . S
H126 C110 0.951 . S
H127 C112 0.951 . S
H128 C114 0.951 . S
H129 C115 0.950 . S
H130 C116 0.950 . S
H131 C117 0.950 . S
H132 C119 0.950 . S
H133 C120 0.951 . S
C134 C135 1.386 1_556 S
C134 C136 1.383 1_556 S
C134 H150 0.951 . S
C135 C134 1.386 1_554 S
C135 C139 1.383 . S
C136 C134 1.383 1_554 S
C136 C137 1.402 . S
C136 H151 0.951 1_554 S
C137 C136 1.402 . S
C137 C138 1.375 . S
C137 C140 1.481 . S
C138 C137 1.375 . S
C138 C139 1.367 . S
C138 H152 0.951 . S
C139 C135 1.383 . S
C139 C138 1.367 . S
C139 H153 0.950 . S
C140 C137 1.481 . S
C140 C141 1.297 . S
C140 H154 0.950 . S
C141 C140 1.297 . S
C141 C142 1.479 . S
C141 H155 0.950 . S
C142 C141 1.479 . S
C142 C143 1.375 . S
C142 C148 1.404 . S
C143 C142 1.375 . S
C143 C144 1.369 . S
C143 H156 0.950 . S
C144 C143 1.369 . S
C144 C145 1.392 . S
C144 H157 0.951 . S
C145 C144 1.392 . S
C145 C147 1.384 . S
H146 C148 0.949 . S
C147 C145 1.384 . S
C147 C148 1.385 . S
C147 H149 0.950 . S
C148 C142 1.404 . S
C148 H146 0.949 . S
C148 C147 1.385 . S
H149 C147 0.950 . S
H150 C134 0.951 . S
H151 C136 0.951 1_556 S
H152 C138 0.951 . S
H153 C139 0.950 . S
H154 C140 0.950 . S
H155 C141 0.950 . S
H156 C143 0.950 . S
H157 C144 0.951 . S
C158 C159 1.386 . S
C158 C160 1.383 . S
C158 H174 0.951 . S
C159 C158 1.386 . S
C159 C163 1.383 1_556 S
C160 C158 1.383 . S
C160 C161 1.402 . S
C160 H175 0.951 . S
C161 C160 1.402 . S
C161 C162 1.375 1_556 S
C161 C164 1.481 . S
C162 C161 1.375 1_554 S
C162 C163 1.367 . S
C162 H176 0.951 . S
C163 C159 1.383 1_554 S
C163 C162 1.367 . S
C163 H177 0.950 . S
C164 C161 1.481 . S
C164 C165 1.297 . S
C164 H178 0.950 1_556 S
C165 C164 1.297 . S
C165 C166 1.479 . S
C165 H179 0.950 . S
C166 C165 1.479 . S
C166 C167 1.375 . S
C166 C172 1.404 . S
C167 C166 1.375 . S
C167 C168 1.369 . S
C167 H180 0.950 . S
C168 C167 1.369 . S
C168 C169 1.392 . S
C168 H181 0.951 . S
C169 C168 1.392 . S
C169 C171 1.384 . S
H170 C172 0.949 1_554 S
C171 C169 1.384 . S
C171 C172 1.385 . S
C171 H173 0.950 . S
C172 C166 1.404 . S
C172 H170 0.949 1_556 S
C172 C171 1.385 . S
H173 C171 0.950 . S
H174 C158 0.951 . S
H175 C160 0.951 . S
H176 C162 0.951 . S
H177 C163 0.950 . S
H178 C164 0.950 1_554 S
H179 C165 0.950 . S
H180 C167 0.950 . S
H181 C168 0.951 . S
C182 C183 1.386 . S
C182 C184 1.383 . S
C182 H198 0.951 . S
C183 C182 1.386 . S
C183 C187 1.383 . S
C184 C182 1.383 . S
C184 C185 1.402 . S
C184 H199 0.951 . S
C185 C184 1.402 . S
C185 C186 1.375 . S
C185 C188 1.481 . S
C186 C185 1.375 . S
C186 C187 1.367 . S
C186 H200 0.951 . S
C187 C183 1.383 . S
C187 C186 1.367 . S
C187 H201 0.950 . S
C188 C185 1.481 . S
C188 C189 1.297 . S
C188 H202 0.950 . S
C189 C188 1.297 . S
C189 C190 1.479 . S
C189 H203 0.950 . S
C190 C189 1.479 . S
C190 C191 1.375 . S
C190 C196 1.404 . S
C191 C190 1.375 . S
C191 C192 1.369 . S
C191 H204 0.950 . S
C192 C191 1.369 . S
C192 C193 1.392 . S
C192 H205 0.951 . S
C193 C192 1.392 . S
C193 C195 1.384 . S
H194 C196 0.949 . S
C195 C193 1.384 . S
C195 C196 1.385 . S
C195 H197 0.950 . S
C196 C190 1.404 . S
C196 H194 0.949 . S
C196 C195 1.385 . S
H197 C195 0.950 . S
H198 C182 0.951 . S
H199 C184 0.951 . S
H200 C186 0.951 . S
H201 C187 0.950 . S
H202 C188 0.950 . S
H203 C189 0.950 . S
H204 C191 0.950 . S
H205 C192 0.951 . S
C206 C207 1.386 . S
C206 C208 1.383 . S
C206 H222 0.951 . S
C207 C206 1.386 . S
C207 C211 1.383 . S
C208 C206 1.383 . S
C208 C209 1.402 . S
C208 H223 0.951 . S
C209 C208 1.402 . S
C209 C210 1.375 . S
C209 C212 1.481 . S
C210 C209 1.375 . S
C210 C211 1.367 . S
C210 H224 0.951 . S
C211 C207 1.383 . S
C211 C210 1.367 . S
C211 H225 0.950 . S
C212 C209 1.481 . S
C212 C213 1.297 . S
C212 H226 0.950 . S
C213 C212 1.297 . S
C213 C214 1.479 . S
C213 H227 0.950 . S
C214 C213 1.479 . S
C214 C215 1.375 . S
C214 C220 1.404 . S
C215 C214 1.375 . S
C215 C216 1.369 . S
C215 H228 0.950 . S
C216 C215 1.369 . S
C216 C217 1.392 . S
C216 H229 0.951 . S
C217 C216 1.392 . S
C217 C219 1.384 . S
H218 C220 0.949 . S
C219 C217 1.384 . S
C219 C220 1.385 . S
C219 H221 0.950 . S
C220 C214 1.404 . S
C220 H218 0.949 . S
C220 C219 1.385 . S
H221 C219 0.950 . S
H222 C206 0.951 . S
H223 C208 0.951 . S
H224 C210 0.951 . S
H225 C211 0.950 . S
H226 C212 0.950 . S
H227 C213 0.950 . S
H228 C215 0.950 . S
H229 C216 0.951 . S
C230 C231 1.386 . S
C230 C232 1.383 . S
C230 H246 0.951 . S
C231 C230 1.386 . S
C231 C235 1.383 . S
C232 C230 1.383 . S
C232 C233 1.402 . S
C232 H247 0.951 . S
C233 C232 1.402 . S
C233 C234 1.375 . S
C233 C236 1.481 . S
C234 C233 1.375 . S
C234 C235 1.367 . S
C234 H248 0.951 . S
C235 C231 1.383 . S
C235 C234 1.367 . S
C235 H249 0.950 . S
C236 C233 1.481 . S
C236 C237 1.297 . S
C236 H250 0.950 . S
C237 C236 1.297 . S
C237 C238 1.479 . S
C237 H251 0.950 . S
C238 C237 1.479 . S
C238 C239 1.375 . S
C238 C244 1.404 . S
C239 C238 1.375 . S
C239 C240 1.369 . S
C239 H252 0.950 . S
C240 C239 1.369 . S
C240 C241 1.392 . S
C240 H253 0.951 . S
C241 C240 1.392 . S
C241 C243 1.384 . S
H242 C244 0.949 . S
C243 C241 1.384 . S
C243 C244 1.385 . S
C243 H245 0.950 . S
C244 C238 1.404 . S
C244 H242 0.949 . S
C244 C243 1.385 . S
H245 C243 0.950 . S
H246 C230 0.951 . S
H247 C232 0.951 . S
H248 C234 0.951 . S
H249 C235 0.950 . S
H250 C236 0.950 . S
H251 C237 0.950 . S
H252 C239 0.950 . S
H253 C240 0.951 . S
C254 C255 1.386 . S
C254 C256 1.383 . S
C254 H270 0.951 . S
C255 C254 1.386 . S
C255 C259 1.383 . S
C256 C254 1.383 . S
C256 C257 1.402 . S
C256 H271 0.951 . S
C257 C256 1.402 . S
C257 C258 1.375 . S
C257 C260 1.481 . S
C258 C257 1.375 . S
C258 C259 1.367 . S
C258 H272 0.951 . S
C259 C255 1.383 . S
C259 C258 1.367 . S
C259 H273 0.950 . S
C260 C257 1.481 . S
C260 C261 1.297 . S
C260 H274 0.950 . S
C261 C260 1.297 . S
C261 C262 1.479 . S
C261 H275 0.950 . S
C262 C261 1.479 . S
C262 C263 1.375 . S
C262 C268 1.404 . S
C263 C262 1.375 . S
C263 C264 1.369 . S
C263 H276 0.950 . S
C264 C263 1.369 . S
C264 C265 1.392 . S
C264 H277 0.951 . S
C265 C264 1.392 . S
C265 C267 1.384 . S
H266 C268 0.949 . S
C267 C265 1.384 . S
C267 C268 1.385 . S
C267 H269 0.950 . S
C268 C262 1.404 . S
C268 H266 0.949 . S
C268 C267 1.385 . S
H269 C267 0.950 . S
H270 C254 0.951 . S
H271 C256 0.951 . S
H272 C258 0.951 . S
H273 C259 0.950 . S
H274 C260 0.950 . S
H275 C261 0.950 . S
H276 C263 0.950 . S
H277 C264 0.951 . S
C278 C279 1.386 1_545 S
C278 C280 1.383 . S
C278 H294 0.951 . S
C279 C278 1.386 1_565 S
C279 C283 1.383 . S
C280 C278 1.383 . S
C280 C281 1.402 1_545 S
C280 H295 0.951 . S
C281 C280 1.402 1_565 S
C281 C282 1.375 . S
C281 C284 1.481 . S
C282 C281 1.375 . S
C282 C283 1.367 . S
C282 H296 0.951 . S
C283 C279 1.383 . S
C283 C282 1.367 . S
C283 H297 0.950 . S
C284 C281 1.481 . S
C284 C285 1.297 . S
C284 H298 0.950 . S
C285 C284 1.297 . S
C285 C286 1.479 . S
C285 H299 0.950 1_565 S
C286 C285 1.479 . S
C286 C287 1.375 1_565 S
C286 C292 1.404 . S
C287 C286 1.375 1_545 S
C287 C288 1.369 . S
C287 H300 0.950 1_455 S
C288 C287 1.369 . S
C288 C289 1.392 1_545 S
C288 H301 0.951 . S
C289 C288 1.392 1_565 S
C289 C291 1.384 . S
H290 C292 0.949 . S
C291 C289 1.384 . S
C291 C292 1.385 . S
C291 H293 0.950 . S
C292 C286 1.404 . S
C292 H290 0.949 . S
C292 C291 1.385 . S
H293 C291 0.950 . S
H294 C278 0.951 . S
H295 C280 0.951 . S
H296 C282 0.951 . S
H297 C283 0.950 . S
H298 C284 0.950 . S
H299 C285 0.950 1_545 S
H300 C287 0.950 1_655 S
H301 C288 0.951 . S
C302 C303 1.386 . S
C302 C304 1.383 . S
C302 H318 0.951 . S
C303 C302 1.386 . S
C303 C307 1.383 1_445 S
C304 C302 1.383 . S
C304 C305 1.402 . S
C304 H319 0.951 . S
C305 C304 1.402 . S
C305 C306 1.375 1_445 S
C305 C308 1.481 . S
C306 C305 1.375 1_665 S
C306 C307 1.367 . S
C306 H320 0.951 . S
C307 C303 1.383 1_665 S
C307 C306 1.367 . S
C307 H321 0.950 . S
C308 C305 1.481 . S
C308 C309 1.297 . S
C308 H322 0.950 1_445 S
C309 C308 1.297 . S
C309 C310 1.479 . S
C309 H323 0.950 . S
C310 C309 1.479 . S
C310 C311 1.375 . S
C310 C316 1.404 1_455 S
C311 C310 1.375 . S
C311 C312 1.369 . S
C311 H324 0.950 . S
C312 C311 1.369 . S
C312 C313 1.392 . S
C312 H325 0.951 . S
C313 C312 1.392 . S
C313 C315 1.384 1_455 S
H314 C316 0.949 1_565 S
C315 C313 1.384 1_655 S
C315 C316 1.385 . S
C315 H317 0.950 1_545 S
C316 C310 1.404 1_655 S
C316 H314 0.949 1_545 S
C316 C315 1.385 . S
H317 C315 0.950 1_565 S
H318 C302 0.951 . S
H319 C304 0.951 . S
H320 C306 0.951 . S
H321 C307 0.950 . S
H322 C308 0.950 1_665 S
H323 C309 0.950 . S
H324 C311 0.950 . S
H325 C312 0.951 . S
C326 C327 1.386 . S
C326 C328 1.383 . S
C326 H342 0.951 . S
C327 C326 1.386 . S
C327 C331 1.383 . S
C328 C326 1.383 . S
C328 C329 1.402 . S
C328 H343 0.951 . S
C329 C328 1.402 . S
C329 C330 1.375 . S
C329 C332 1.481 . S
C330 C329 1.375 . S
C330 C331 1.367 . S
C330 H344 0.951 . S
C331 C327 1.383 . S
C331 C330 1.367 . S
C331 H345 0.950 . S
C332 C329 1.481 . S
C332 C333 1.297 . S
C332 H346 0.950 . S
C333 C332 1.297 . S
C333 C334 1.479 . S
C333 H347 0.950 . S
C334 C333 1.479 . S
C334 C335 1.375 . S
C334 C340 1.404 . S
C335 C334 1.375 . S
C335 C336 1.369 . S
C335 H348 0.950 . S
C336 C335 1.369 . S
C336 C337 1.392 . S
C336 H349 0.951 . S
C337 C336 1.392 . S
C337 C339 1.384 . S
H338 C340 0.949 . S
C339 C337 1.384 . S
C339 C340 1.385 . S
C339 H341 0.950 . S
C340 C334 1.404 . S
C340 H338 0.949 . S
C340 C339 1.385 . S
H341 C339 0.950 . S
H342 C326 0.951 . S
H343 C328 0.951 . S
H344 C330 0.951 . S
H345 C331 0.950 . S
H346 C332 0.950 . S
H347 C333 0.950 . S
H348 C335 0.950 . S
H349 C336 0.951 . S
C350 C351 1.386 . S
C350 C352 1.383 . S
C350 H366 0.951 . S
C351 C350 1.386 . S
C351 C355 1.383 . S
C352 C350 1.383 . S
C352 C353 1.402 . S
C352 H367 0.951 . S
C353 C352 1.402 . S
C353 C354 1.375 . S
C353 C356 1.481 . S
C354 C353 1.375 . S
C354 C355 1.367 . S
C354 H368 0.951 . S
C355 C351 1.383 . S
C355 C354 1.367 . S
C355 H369 0.950 . S
C356 C353 1.481 . S
C356 C357 1.297 . S
C356 H370 0.950 . S
C357 C356 1.297 . S
C357 C358 1.479 . S
C357 H371 0.950 . S
C358 C357 1.479 . S
C358 C359 1.375 . S
C358 C364 1.404 . S
C359 C358 1.375 . S
C359 C360 1.369 . S
C359 H372 0.950 . S
C360 C359 1.369 . S
C360 C361 1.392 . S
C360 H373 0.951 . S
C361 C360 1.392 . S
C361 C363 1.384 . S
H362 C364 0.949 . S
C363 C361 1.384 . S
C363 C364 1.385 . S
C363 H365 0.950 . S
C364 C358 1.404 . S
C364 H362 0.949 . S
C364 C363 1.385 . S
H365 C363 0.950 . S
H366 C350 0.951 . S
H367 C352 0.951 . S
H368 C354 0.951 . S
H369 C355 0.950 . S
H370 C356 0.950 . S
H371 C357 0.950 . S
H372 C359 0.950 . S
H373 C360 0.951 . S
C97 C81 1.465 . S
C87 C16 1.341 . S
C111 C15 1.424 . S
C121 N68 1.404 . S
C135 C13 1.292 1_554 S
C145 N79 1.365 . S
C159 C14 1.431 . S
C169 C70 1.457 . S
C183 C37 1.341 . S
C193 C59 1.446 1_565 S
C207 C36 1.416 . S
C217 N46 1.371 . S
C241 N57 1.436 . S
C231 C34 1.295 . S
C265 C48 1.453 . S
C255 C35 1.428 . S
C279 C17 1.586 1_565 S
C289 C51 1.601 . S
C303 C18 1.375 . S
C313 C62 1.384 1_455 S
C337 C73 1.611 . S
C327 C38 1.588 . S
C351 C39 1.389 . S
C361 C84 1.398 . S
