# Generated by pormake.
# Topology pts, (4,4)-cn, num edge types: 1
# Building blocks:
#     Node 0, Type 0, BuildingBlock: MUDLON_clean_linker_0, # of connection points: 4
#     Node 1, Type 0, BuildingBlock: MUDLON_clean_linker_0, # of connection points: 4
#     Node 2, Type 1, BuildingBlock: AZAVOO_clean_sbu_0, # of connection points: 4
#     Node 3, Type 1, BuildingBlock: AZAVOO_clean_sbu_0, # of connection points: 4
#     Edge 4, Type (0, 1), BuildingBlock: CIFDUS_clean_linker_0, # of connection points: 2
#     Edge 5, Type (0, 1), BuildingBlock: CIFDUS_clean_linker_0, # of connection points: 2
#     Edge 6, Type (0, 1), BuildingBlock: CIFDUS_clean_linker_0, # of connection points: 2
#     Edge 7, Type (0, 1), BuildingBlock: CIFDUS_clean_linker_0, # of connection points: 2
#     Edge 8, Type (0, 1), BuildingBlock: CIFDUS_clean_linker_0, # of connection points: 2
#     Edge 9, Type (0, 1), BuildingBlock: CIFDUS_clean_linker_0, # of connection points: 2
#     Edge 10, Type (0, 1), BuildingBlock: CIFDUS_clean_linker_0, # of connection points: 2
#     Edge 11, Type (0, 1), BuildingBlock: CIFDUS_clean_linker_0, # of connection points: 2
# Relax obj value: 0.018
# Max RMSD: 0.069
# Mean RMSD: 0.066
data_MOF--net-pts--node1-AZAVOO_clean_sbu_0--node2-MUDLON_clean_linker_0--edge1-CIFDUS_clean_linker_0
_symmetry_space_group_name_H-M    P1
_symmetry_Int_Tables_number       1
_symmetry_cell_setting            triclinic
loop_
_symmetry_equiv_pos_as_xyz
'x, y, z'
_cell_length_a     30.729393
_cell_length_b     31.662716
_cell_length_c     40.468187
_cell_angle_alpha  90.096702
_cell_angle_beta   96.246103
_cell_angle_gamma 89.710162
loop_
_atom_site_label
_atom_site_type_symbol
_atom_site_fract_x
_atom_site_fract_y
_atom_site_fract_z
_atom_type_partial_charge
H0 H 0.70054 0.12146 0.05026 0.0
N1 N 0.68776 0.07413 0.99572 0.0
H2 H 0.74844 0.10625 0.10151 0.0
H3 H 0.73634 0.00182 0.00952 0.0
H4 H 0.78449 0.98695 0.06013 0.0
H5 H 0.68159 0.00332 0.95607 0.0
H6 H 0.72054 0.99032 0.9077 0.0
H7 H 0.73988 0.12679 0.96773 0.0
H8 H 0.77898 0.11403 0.91894 0.0
H9 H 0.61934 0.12285 0.97558 0.0
H10 H 0.65348 -0.0013 0.01388 0.0
H11 H 0.54152 0.10551 0.97375 0.0
H12 H 0.57634 0.98173 0.01349 0.0
H13 H 0.33512 0.06818 0.02218 0.0
H14 H 0.30063 0.07252 0.07353 0.0
H15 H 0.33369 0.94168 0.09404 0.0
H16 H 0.36864 0.93775 0.04253 0.0
H17 H 0.33087 0.93597 0.96202 0.0
H18 H 0.2743 0.94286 0.91458 0.0
H19 H 0.28653 0.07851 0.91964 0.0
H20 H 0.34435 0.07134 0.96615 0.0
H21 H 0.40836 0.07544 0.00987 0.0
H22 H 0.48526 0.09377 0.009 0.0
H23 H 0.51238 0.96676 0.97722 0.0
N24 N 0.37189 -0.00255 0.99703 0.0
H25 H 0.43557 0.94842 0.97956 0.0
C26 C 0.7152 0.0633 0.02584 0.0
C27 C 0.71866 0.09199 0.05239 0.0
C28 C 0.74583 0.0832 0.08159 0.0
C29 C 0.77038 0.04557 0.08461 0.0
C30 C 0.76639 0.01646 0.05825 0.0
C31 C 0.73882 0.02501 0.02925 0.0
C32 C 0.7075 0.06641 0.96545 0.0
C33 C 0.70217 0.02798 0.94795 0.0
C34 C 0.72453 0.02054 0.92022 0.0
C35 C 0.75289 0.05113 0.9095 0.0
C36 C 0.75774 0.08966 0.92678 0.0
C37 C 0.73521 0.09715 0.95444 0.0
C38 C 0.64229 0.06244 0.99507 0.0
C39 C 0.60999 0.09198 0.98379 0.0
C40 C 0.56558 0.08207 0.98298 0.0
C41 C 0.55252 0.04224 0.99358 0.0
C42 C 0.58506 0.01251 0.00471 0.0
C43 C 0.62941 0.02237 0.00529 0.0
C44 C 0.35443 0.00239 0.02843 0.0
C45 C 0.33543 0.04051 0.03774 0.0
C46 C 0.31545 0.04293 0.06711 0.0
C47 C 0.31425 0.00742 0.08778 0.0
C48 C 0.33446 0.96975 0.07886 0.0
C49 C 0.35428 0.96735 0.04944 0.0
C50 C 0.34137 0.00298 0.96778 0.0
C51 C 0.32168 0.9671 0.95256 0.0
C52 C 0.28949 0.97109 0.92561 0.0
C53 C 0.27596 0.01123 0.91377 0.0
C54 C 0.29615 0.04727 0.92865 0.0
C55 C 0.32907 0.04318 0.95522 0.0
C56 C 0.4164 0.01028 0.99513 0.0
C57 C 0.43079 0.05154 0.00279 0.0
C58 C 0.47486 0.06207 0.00201 0.0
C59 C 0.50526 0.03167 0.99326 0.0
C60 C 0.49024 0.99075 0.98477 0.0
C61 C 0.44633 0.98025 0.98581 0.0
H62 H 0.97344 0.70307 0.51315 0.0
N63 N 0.04957 0.66599 0.49753 0.0
H64 H 0.96388 0.74387 0.56284 0.0
H65 H 0.10849 0.67952 0.54956 0.0
H66 H 0.09902 0.7206 0.59987 0.0
H67 H 0.10753 0.71005 0.46822 0.0
H68 H 0.09405 0.75484 0.41881 0.0
H69 H 0.97129 0.67546 0.45888 0.0
H70 H 0.95724 0.72126 0.40993 0.0
H71 H 0.98004 0.62612 0.52236 0.0
H72 H 0.08977 0.60663 0.46588 0.0
H73 H 0.96363 0.55166 0.51897 0.0
H74 H 0.07124 0.53204 0.45989 0.0
H75 H 0.92657 0.30334 0.51719 0.0
H76 H 0.94149 0.26055 0.56744 0.0
H77 H 0.06197 0.32854 0.5929 0.0
H78 H 0.04755 0.37034 0.54281 0.0
H79 H 0.061 0.31973 0.49377 0.0
H80 H 0.08162 0.26544 0.45564 0.0
H81 H 0.95652 0.27947 0.39687 0.0
H82 H 0.93566 0.334 0.4355 0.0
H83 H 0.92225 0.4201 0.48936 0.0
H84 H 0.93619 0.49585 0.48667 0.0
H85 H 0.07494 0.46976 0.48909 0.0
N86 N 0.98017 0.35755 0.49258 0.0
H87 H 0.06011 0.39475 0.48901 0.0
C88 C 0.04195 0.68827 0.52754 0.0
C89 C 0.00104 0.70638 0.5319 0.0
C90 C 0.99544 0.7294 0.56057 0.0
C91 C 0.03066 0.73526 0.5853 0.0
C92 C 0.07134 0.71666 0.58115 0.0
C93 C 0.07679 0.69322 0.55256 0.0
C94 C 0.04046 0.6901 0.46743 0.0
C95 C 0.0748 0.71204 0.45533 0.0
C96 C 0.06708 0.73727 0.42707 0.0
C97 C 0.02461 0.74136 0.4106 0.0
C98 C 0.99022 0.71869 0.4223 0.0
C99 C 0.99815 0.69281 0.45032 0.0
C100 C 0.03704 0.62215 0.49492 0.0
C101 C 1.00058 0.60609 0.50895 0.0
C102 C 0.99071 0.56314 0.50655 0.0
C103 C 0.01617 0.5354 0.48928 0.0
C104 C 0.05152 0.55198 0.47418 0.0
C105 C 0.06201 0.59471 0.47731 0.0
C106 C 0.98576 0.33991 0.52574 0.0
C107 C 0.95554 0.3098 0.53413 0.0
C108 C 0.96407 0.28552 0.56293 0.0
C109 C 0.00318 0.29093 0.58395 0.0
C110 C 0.03184 0.3233 0.57693 0.0
C111 C 0.02336 0.34749 0.54813 0.0
C112 C 0.99626 0.33059 0.46775 0.0
C113 C 0.03819 0.31195 0.47242 0.0
C114 C 0.05005 0.28087 0.45058 0.0
C115 C 0.02053 0.26814 0.42351 0.0
C116 C 0.97998 0.28895 0.41744 0.0
C117 C 0.96795 0.31985 0.43951 0.0
C118 C 0.98994 0.40177 0.48983 0.0
C119 C 0.95554 0.43098 0.48893 0.0
C120 C 0.96372 0.47426 0.48773 0.0
C121 C 0.00683 0.48927 0.48805 0.0
C122 C 0.04123 0.4597 0.48828 0.0
C123 C 0.03284 0.41647 0.48866 0.0
Mg124 Mg 0.06702 -0.00516 0.26161 0.0
O125 O 0.00394 -0.00309 0.22592 0.0
O126 O 0.94794 0.98978 0.25636 0.0
Mg127 Mg 0.97532 0.97605 0.31031 0.0
C128 C 0.96292 -0.0043 0.22851 0.0
C129 C 0.14596 0.0097 0.22441 0.0
O130 O 0.16111 0.98676 0.2502 0.0
O131 O 0.0518 0.06047 0.28158 0.0
O132 O 0.00199 0.04336 0.31583 0.0
O133 O 0.07349 0.92477 0.25582 0.0
O134 O 0.03752 0.95547 0.29361 0.0
C135 C 0.02724 0.07003 0.30404 0.0
C136 C 0.04998 0.92117 0.28032 0.0
O137 O 0.10602 0.02115 0.22171 0.0
Mg138 Mg 0.99379 0.00029 0.72996 0.0
O139 O 0.06235 0.00182 0.75977 0.0
O140 O 0.11141 -0.00335 0.72282 0.0
Mg141 Mg 0.07575 -0.0049 0.67045 0.0
C142 C 0.10188 -0.00053 0.75268 0.0
C143 C 0.92001 0.01262 0.77398 0.0
O144 O 0.90045 -0.00546 0.74716 0.0
O145 O 1.00073 0.06878 0.71415 0.0
O146 O 0.04927 0.06215 0.6771 0.0
O147 O 0.99343 0.92933 0.73048 0.0
O148 O 0.01985 0.96799 0.69196 0.0
C149 C 0.02372 0.08465 0.69288 0.0
C150 C 0.01356 0.93128 0.70404 0.0
O151 O 0.96078 0.0201 0.77537 0.0
H152 H 0.23439 0.04255 0.09333 0.0
H153 H 0.34021 0.97509 0.14937 0.0
H154 H 0.29836 0.97224 0.19729 0.0
H155 H 0.23038 0.98543 0.22209 0.0
H156 H 0.12391 0.05202 0.16594 0.0
H157 H 0.16779 0.05944 0.11943 0.0
C158 C 0.24859 0.02787 0.11622 0.0
C159 C 0.29029 0.00887 0.11772 0.0
C160 C 0.22423 0.02611 0.1436 0.0
C161 C 0.30796 0.98944 0.14742 0.0
C162 C 0.28412 0.98793 0.17486 0.0
C163 C 0.21682 0.00192 0.19981 0.0
C164 C 0.17378 0.0179 0.19746 0.0
C165 C 0.24197 0.00558 0.17304 0.0
C166 C 0.15688 0.03929 0.16841 0.0
C167 C 0.18192 0.04346 0.14175 0.0
H168 H 0.95402 0.25565 0.6291 0.0
H169 H 0.08312 0.2538 0.59636 0.0
H170 H 0.10309 0.19305 0.63158 0.0
H171 H 0.08074 0.13469 0.66518 0.0
H172 H 0.95144 0.13439 0.69733 0.0
H173 H 0.93493 0.20191 0.6693 0.0
C174 C 0.98669 0.24225 0.63009 0.0
C175 C 0.01687 0.25907 0.60993 0.0
C176 C 0.99784 0.2067 0.65007 0.0
C177 C 0.05932 0.24178 0.61181 0.0
C178 C 0.07071 0.20674 0.63173 0.0
C179 C 0.04921 0.14978 0.66656 0.0
C180 C 0.01713 0.12927 0.68279 0.0
C181 C 0.03977 0.18812 0.65003 0.0
C182 C 0.97669 0.1495 0.6849 0.0
C183 C 0.9671 0.18794 0.66864 0.0
H184 H 0.85502 0.02 0.08775 0.0
H185 H 0.75372 0.05241 0.14928 0.0
H186 H 0.80401 0.03869 0.19932 0.0
H187 H 0.87695 0.01811 0.22544 0.0
H188 H 0.97905 0.98832 0.1637 0.0
H189 H 0.92819 0.00013 0.11387 0.0
C190 C 0.84394 0.02372 0.11214 0.0
C191 C 0.80075 0.037 0.1149 0.0
C192 C 0.87314 0.01627 0.14071 0.0
C193 C 0.78693 0.04242 0.1466 0.0
C194 C 0.8156 0.03445 0.17517 0.0
C195 C 0.88804 0.01396 0.20109 0.0
C196 C 0.93173 0.00218 0.19835 0.0
C197 C 0.85881 0.02144 0.17251 0.0
C198 C 0.94565 -0.00255 0.16657 0.0
C199 C 0.91657 0.00415 0.13803 0.0
H200 H 0.0852 0.79766 0.60913 0.0
H201 H 0.96399 0.73675 0.6249 0.0
H202 H 0.95068 0.78967 0.66685 0.0
H203 H 0.96987 0.8576 0.6945 0.0
H204 H 0.08932 0.91978 0.67618 0.0
H205 H 0.10747 0.86176 0.64028 0.0
C206 C 0.05639 0.79542 0.62231 0.0
C207 C 0.02553 0.76352 0.61387 0.0
C208 C 0.04852 0.82641 0.64576 0.0
C209 C 0.98798 0.76135 0.63077 0.0
C210 C 0.9804 0.79153 0.65475 0.0
C211 C 1.00027 0.85787 0.68315 0.0
C212 C 0.02794 0.89305 0.68747 0.0
C213 C 0.00988 0.82485 0.66181 0.0
C214 C 0.06708 0.89342 0.67255 0.0
C215 C 0.07753 0.86019 0.65212 0.0
H216 H 0.27175 0.97444 0.85323 0.0
H217 H 0.2004 0.0567 0.91319 0.0
H218 H 0.13926 0.05977 0.86894 0.0
H219 H 0.10569 0.03774 0.81333 0.0
H220 H 0.17971 0.95884 0.75249 0.0
H221 H 0.24009 0.95558 0.79686 0.0
C222 C 0.24279 0.99307 0.85646 0.0
C223 C 0.24028 0.01515 0.8863 0.0
C224 C 0.20823 -0.00487 0.83083 0.0
C225 C 0.20295 0.03962 0.89025 0.0
C226 C 0.16799 0.0412 0.86507 0.0
C227 C 0.13504 0.01982 0.80991 0.0
C228 C 0.13817 -0.00162 0.7798 0.0
C229 C 0.17015 0.01885 0.8353 0.0
C230 C 0.1766 0.97573 0.77543 0.0
C231 C 0.21111 0.97377 0.8008 0.0
H232 H 0.01473 0.25709 0.35604 0.0
H233 H 0.04509 0.1922 0.44945 0.0
H234 H 0.05224 0.12562 0.42028 0.0
H235 H 0.0445 0.08491 0.3688 0.0
H236 H 0.01742 0.14801 0.2746 0.0
H237 H 0.01455 0.21646 0.30329 0.0
C238 C 0.02336 0.22836 0.36982 0.0
C239 C 0.02934 0.22942 0.4048 0.0
C240 C 0.02774 0.19002 0.3528 0.0
C241 C 0.04077 0.19217 0.42252 0.0
C242 C 0.04459 0.15406 0.40589 0.0
C243 C 0.03843 0.11381 0.35461 0.0
C244 C 0.03073 0.11182 0.31988 0.0
C245 C 0.03738 0.15253 0.37116 0.0
C246 C 0.02344 0.14916 0.30146 0.0
C247 C 0.02161 0.18808 0.31786 0.0
H248 H 0.83883 0.06767 0.90455 0.0
H249 H 0.72325 0.0147 0.85013 0.0
H250 H 0.76475 -0.00168 0.80353 0.0
H251 H 0.83377 -0.00149 0.77845 0.0
H252 H 0.94962 0.05142 0.83265 0.0
H253 H 0.90792 0.06876 0.879 0.0
C254 C 0.82262 0.05298 0.88233 0.0
C255 C 0.77799 0.04242 0.88083 0.0
C256 C 0.8467 0.0436 0.85563 0.0
C257 C 0.75765 0.02274 0.85208 0.0
C258 C 0.78131 0.01353 0.82537 0.0
C259 C 0.84997 0.0139 0.80035 0.0
C260 C 0.8948 0.0236 0.80203 0.0
C261 C 0.82587 0.02365 0.82693 0.0
C262 C 0.91518 0.04354 0.83067 0.0
C263 C 0.89135 0.05348 0.8572 0.0
H264 H 0.06794 0.74853 0.35588 0.0
H265 H 0.96277 0.80326 0.40428 0.0
H266 H 0.95712 0.86178 0.36471 0.0
H267 H 0.98885 0.90171 0.32152 0.0
H268 H 0.09431 0.84756 0.27305 0.0
H269 H 0.09257 0.78401 0.30704 0.0
C270 C 0.04336 0.77299 0.35733 0.0
C271 C 0.01616 0.77202 0.38309 0.0
C272 C 0.04056 0.80666 0.33467 0.0
C273 C 0.98398 0.8034 0.38457 0.0
C274 C 0.98095 0.83697 0.36211 0.0
C275 C 0.01095 0.87579 0.31796 0.0
C276 C 0.04217 0.8797 0.29523 0.0
C277 C 0.01007 0.83962 0.33781 0.0
C278 C 0.07005 0.84542 0.29049 0.0
C279 C 0.0693 0.80918 0.31009 0.0
loop_
_geom_bond_atom_site_label_1
_geom_bond_atom_site_label_2
_geom_bond_distance
_geom_bond_site_symmetry_2
_ccdc_geom_bond_type
H0 C27 0.929 . S
N1 C26 1.433 1_556 S
N1 C32 1.435 . S
N1 C38 1.423 . S
H2 C28 0.930 . S
H3 C31 0.940 . S
H4 C30 0.929 . S
H5 C33 0.930 . S
H6 C34 0.932 . S
H7 C37 0.929 . S
H8 C36 0.931 . S
H9 C39 0.929 . S
H10 C43 0.932 1_565 S
H11 C40 0.931 . S
H12 C42 0.929 . S
H13 C45 0.929 . S
H14 C46 0.930 . S
H15 C48 0.929 . S
H16 C49 0.940 . S
H17 C51 0.930 . S
H18 C52 0.932 . S
H19 C54 0.931 . S
H20 C55 0.929 . S
H21 C57 0.929 . S
H22 C58 0.931 . S
H23 C60 0.929 . S
N24 C44 1.433 1_556 S
N24 C50 1.435 . S
N24 C56 1.423 . S
H25 C61 0.932 1_565 S
C26 N1 1.433 1_554 S
C26 C27 1.363 . S
C26 C31 1.358 1_545 S
C27 H0 0.929 . S
C27 C26 1.363 . S
C27 C28 1.385 . S
C28 H2 0.930 . S
C28 C27 1.385 . S
C28 C29 1.357 . S
C29 C28 1.357 . S
C29 C30 1.406 1_545 S
C30 H4 0.929 . S
C30 C29 1.406 1_565 S
C30 C31 1.394 . S
C31 H3 0.940 . S
C31 C26 1.358 1_565 S
C31 C30 1.394 . S
C32 N1 1.435 . S
C32 C33 1.358 1_545 S
C32 C37 1.371 . S
C33 H5 0.930 . S
C33 C32 1.358 1_565 S
C33 C34 1.405 . S
C34 H6 0.932 . S
C34 C33 1.405 . S
C34 C35 1.383 1_565 S
C35 C34 1.383 1_545 S
C35 C36 1.393 . S
C36 H8 0.931 . S
C36 C35 1.393 . S
C36 C37 1.382 . S
C37 H7 0.929 . S
C37 C32 1.371 . S
C37 C36 1.382 . S
C38 N1 1.423 . S
C38 C39 1.362 1_556 S
C38 C43 1.388 . S
C39 H9 0.929 . S
C39 C38 1.362 1_554 S
C39 C40 1.376 . S
C40 H11 0.931 . S
C40 C39 1.376 . S
C40 C41 1.396 1_554 S
C41 C40 1.396 1_556 S
C41 C42 1.348 . S
C41 C59 1.472 . S
C42 H12 0.929 . S
C42 C41 1.348 . S
C42 C43 1.443 . S
C43 H10 0.932 1_545 S
C43 C38 1.388 . S
C43 C42 1.443 . S
C44 N24 1.433 1_554 S
C44 C45 1.363 . S
C44 C49 1.358 1_545 S
C45 H13 0.929 . S
C45 C44 1.363 . S
C45 C46 1.385 . S
C46 H14 0.930 . S
C46 C45 1.385 . S
C46 C47 1.357 . S
C47 C46 1.357 . S
C47 C48 1.406 1_545 S
C48 H15 0.929 . S
C48 C47 1.406 1_565 S
C48 C49 1.394 . S
C49 H16 0.940 . S
C49 C44 1.358 1_565 S
C49 C48 1.394 . S
C50 N24 1.435 . S
C50 C51 1.358 1_545 S
C50 C55 1.371 . S
C51 H17 0.930 . S
C51 C50 1.358 1_565 S
C51 C52 1.405 . S
C52 H18 0.932 . S
C52 C51 1.405 . S
C52 C53 1.383 1_565 S
C53 C52 1.383 1_545 S
C53 C54 1.393 . S
C54 H19 0.931 . S
C54 C53 1.393 . S
C54 C55 1.382 . S
C55 H20 0.929 . S
C55 C50 1.371 . S
C55 C54 1.382 . S
C56 N24 1.423 . S
C56 C57 1.362 1_556 S
C56 C61 1.388 . S
C57 H21 0.929 . S
C57 C56 1.362 1_554 S
C57 C58 1.376 . S
C58 H22 0.931 . S
C58 C57 1.376 . S
C58 C59 1.396 1_554 S
C59 C41 1.472 . S
C59 C58 1.396 1_556 S
C59 C60 1.348 . S
C60 H23 0.929 . S
C60 C59 1.348 . S
C60 C61 1.443 . S
C61 H25 0.932 1_545 S
C61 C56 1.388 . S
C61 C60 1.443 . S
H62 C89 0.929 . S
N63 C88 1.433 . S
N63 C94 1.435 . S
N63 C100 1.423 . S
H64 C90 0.930 . S
H65 C93 0.931 . S
H66 C92 0.929 . S
H67 C95 0.930 . S
H68 C96 0.932 . S
H69 C99 0.929 . S
H70 C98 0.931 1_655 S
H71 C101 0.929 . S
H72 C105 0.932 . S
H73 C102 0.931 . S
H74 C104 0.929 . S
H75 C107 0.929 . S
H76 C108 0.930 . S
H77 C110 0.929 . S
H78 C111 0.931 . S
H79 C113 0.930 . S
H80 C114 0.932 . S
H81 C116 0.931 1_655 S
H82 C117 0.929 . S
H83 C119 0.929 . S
H84 C120 0.931 . S
H85 C122 0.929 . S
N86 C106 1.433 . S
N86 C112 1.435 . S
N86 C118 1.423 . S
H87 C123 0.932 . S
C88 N63 1.433 . S
C88 C89 1.363 1_455 S
C88 C93 1.370 . S
C89 H62 0.929 . S
C89 C88 1.363 1_655 S
C89 C90 1.385 . S
C90 H64 0.930 . S
C90 C89 1.385 . S
C90 C91 1.357 1_655 S
C91 C90 1.357 1_455 S
C91 C92 1.406 . S
C92 H66 0.929 . S
C92 C91 1.406 . S
C92 C93 1.391 . S
C93 H65 0.931 . S
C93 C88 1.370 . S
C93 C92 1.391 . S
C94 N63 1.435 . S
C94 C95 1.358 . S
C94 C99 1.371 1_455 S
C95 H67 0.930 . S
C95 C94 1.358 . S
C95 C96 1.405 . S
C96 H68 0.932 . S
C96 C95 1.405 . S
C96 C97 1.383 . S
C97 C96 1.383 . S
C97 C98 1.393 . S
C98 H70 0.931 1_455 S
C98 C97 1.393 . S
C98 C99 1.382 1_455 S
C99 H69 0.929 . S
C99 C94 1.371 1_655 S
C99 C98 1.382 1_655 S
C100 N63 1.423 . S
C100 C101 1.362 1_455 S
C100 C105 1.388 . S
C101 H71 0.929 . S
C101 C100 1.362 1_655 S
C101 C102 1.376 . S
C102 H73 0.931 . S
C102 C101 1.376 . S
C102 C103 1.396 . S
C103 C102 1.396 . S
C103 C104 1.348 1_655 S
C103 C121 1.472 . S
C104 H74 0.929 . S
C104 C103 1.348 1_455 S
C104 C105 1.443 . S
C105 H72 0.932 . S
C105 C100 1.388 . S
C105 C104 1.443 . S
C106 N86 1.433 . S
C106 C107 1.363 1_455 S
C106 C111 1.370 . S
C107 H75 0.929 . S
C107 C106 1.363 1_655 S
C107 C108 1.385 . S
C108 H76 0.930 . S
C108 C107 1.385 . S
C108 C109 1.357 1_655 S
C109 C108 1.357 1_455 S
C109 C110 1.406 . S
C110 H77 0.929 . S
C110 C109 1.406 . S
C110 C111 1.391 . S
C111 H78 0.931 . S
C111 C106 1.370 . S
C111 C110 1.391 . S
C112 N86 1.435 . S
C112 C113 1.358 . S
C112 C117 1.371 1_455 S
C113 H79 0.930 . S
C113 C112 1.358 . S
C113 C114 1.405 . S
C114 H80 0.932 . S
C114 C113 1.405 . S
C114 C115 1.383 . S
C115 C114 1.383 . S
C115 C116 1.393 . S
C116 H81 0.931 1_455 S
C116 C115 1.393 . S
C116 C117 1.382 1_455 S
C117 H82 0.929 . S
C117 C112 1.371 1_655 S
C117 C116 1.382 1_655 S
C118 N86 1.423 . S
C118 C119 1.362 1_455 S
C118 C123 1.388 . S
C119 H83 0.929 . S
C119 C118 1.362 1_655 S
C119 C120 1.376 . S
C120 H84 0.931 . S
C120 C119 1.376 . S
C120 C121 1.396 . S
C121 C103 1.472 . S
C121 C120 1.396 . S
C121 C122 1.348 1_655 S
C122 H85 0.929 . S
C122 C121 1.348 1_455 S
C122 C123 1.443 . S
C123 H87 0.932 . S
C123 C118 1.388 . S
C123 C122 1.443 . S
Mg124 O125 2.028 . S
Mg124 O131 1.986 . S
Mg124 O133 2.114 1_545 S
Mg124 O134 2.251 1_545 S
Mg124 O137 2.010 . S
O125 Mg124 2.028 . S
O125 C128 1.250 1_455 S
O126 Mg127 2.028 . S
O126 C128 1.248 . S
Mg127 O126 2.028 . S
Mg127 O132 2.032 1_655 S
Mg127 O134 2.079 1_645 S
C128 O125 1.250 1_655 S
C128 O126 1.248 . S
C129 O130 1.264 . S
C129 O137 1.249 . S
O130 C129 1.264 . S
O131 Mg124 1.986 . S
O131 C135 1.246 . S
O132 Mg127 2.032 1_455 S
O132 C135 1.259 . S
O133 Mg124 2.114 1_565 S
O133 C136 1.252 . S
O134 Mg124 2.251 1_565 S
O134 Mg127 2.079 1_465 S
O134 C136 1.273 . S
C135 O131 1.246 . S
C135 O132 1.259 . S
C136 O133 1.252 . S
C136 O134 1.273 . S
O137 Mg124 2.010 . S
O137 C129 1.249 . S
Mg138 O139 2.028 1_655 S
Mg138 O145 1.986 . S
Mg138 O147 2.114 1_545 S
Mg138 O148 2.251 1_645 S
Mg138 O151 2.010 . S
O139 Mg138 2.028 1_455 S
O139 C142 1.250 . S
O140 Mg141 2.028 . S
O140 C142 1.248 . S
Mg141 O140 2.028 . S
Mg141 O146 2.032 . S
Mg141 O148 2.079 1_545 S
C142 O139 1.250 . S
C142 O140 1.248 . S
C143 O144 1.264 . S
C143 O151 1.249 . S
O144 C143 1.264 . S
O145 Mg138 1.986 . S
O145 C149 1.246 1_655 S
O146 Mg141 2.032 . S
O146 C149 1.259 . S
O147 Mg138 2.114 1_565 S
O147 C150 1.252 1_655 S
O148 Mg138 2.251 1_465 S
O148 Mg141 2.079 1_565 S
O148 C150 1.273 . S
C149 O145 1.246 1_455 S
C149 O146 1.259 . S
C150 O147 1.252 1_455 S
C150 O148 1.273 . S
O151 Mg138 2.010 . S
O151 C143 1.249 . S
H152 C158 0.930 . S
H153 C161 0.930 . S
H154 C162 0.930 . S
H155 C163 0.930 1_565 S
H156 C166 0.930 . S
H157 C167 0.930 . S
C158 H152 0.930 . S
C158 C159 1.355 . S
C158 C160 1.415 . S
C159 C158 1.355 . S
C159 C161 1.419 1_545 S
C160 C158 1.415 . S
C160 C165 1.425 . S
C160 C167 1.409 . S
C161 H153 0.930 . S
C161 C159 1.419 1_565 S
C161 C162 1.362 . S
C162 H154 0.930 . S
C162 C161 1.362 . S
C162 C165 1.409 1_565 S
C163 H155 0.930 1_545 S
C163 C164 1.355 . S
C163 C165 1.415 . S
C164 C163 1.355 . S
C164 C166 1.419 . S
C165 C160 1.425 . S
C165 C162 1.409 1_545 S
C165 C163 1.415 . S
C166 H156 0.930 . S
C166 C164 1.419 . S
C166 C167 1.362 . S
C167 H157 0.930 . S
C167 C160 1.409 . S
C167 C166 1.362 . S
H168 C174 0.930 . S
H169 C177 0.930 . S
H170 C178 0.930 . S
H171 C179 0.930 . S
H172 C182 0.930 . S
H173 C183 0.930 . S
C174 H168 0.930 . S
C174 C175 1.355 . S
C174 C176 1.415 . S
C175 C174 1.355 . S
C175 C177 1.419 . S
C176 C174 1.415 . S
C176 C181 1.425 . S
C176 C183 1.409 . S
C177 H169 0.930 . S
C177 C175 1.419 . S
C177 C178 1.362 . S
C178 H170 0.930 . S
C178 C177 1.362 . S
C178 C181 1.409 . S
C179 H171 0.930 . S
C179 C180 1.355 . S
C179 C181 1.415 . S
C180 C179 1.355 . S
C180 C182 1.419 . S
C181 C176 1.425 . S
C181 C178 1.409 . S
C181 C179 1.415 . S
C182 H172 0.930 . S
C182 C180 1.419 . S
C182 C183 1.362 . S
C183 H173 0.930 . S
C183 C176 1.409 . S
C183 C182 1.362 . S
H184 C190 0.930 . S
H185 C193 0.930 . S
H186 C194 0.930 . S
H187 C195 0.930 . S
H188 C198 0.930 . S
H189 C199 0.930 . S
C190 H184 0.930 . S
C190 C191 1.355 1_565 S
C190 C192 1.415 . S
C191 C190 1.355 1_545 S
C191 C193 1.419 . S
C192 C190 1.415 . S
C192 C197 1.425 1_565 S
C192 C199 1.409 . S
C193 H185 0.930 . S
C193 C191 1.419 . S
C193 C194 1.362 . S
C194 H186 0.930 . S
C194 C193 1.362 . S
C194 C197 1.409 . S
C195 H187 0.930 . S
C195 C196 1.355 . S
C195 C197 1.415 . S
C196 C195 1.355 . S
C196 C198 1.419 1_545 S
C197 C192 1.425 1_545 S
C197 C194 1.409 . S
C197 C195 1.415 . S
C198 H188 0.930 . S
C198 C196 1.419 1_565 S
C198 C199 1.362 . S
C199 H189 0.930 . S
C199 C192 1.409 . S
C199 C198 1.362 . S
H200 C206 0.930 . S
H201 C209 0.929 1_655 S
H202 C210 0.930 1_655 S
H203 C211 0.930 1_655 S
H204 C214 0.930 . S
H205 C215 0.930 . S
C206 H200 0.930 . S
C206 C207 1.355 . S
C206 C208 1.415 . S
C207 C206 1.355 . S
C207 C209 1.419 . S
C208 C206 1.415 . S
C208 C213 1.425 . S
C208 C215 1.409 . S
C209 H201 0.929 1_455 S
C209 C207 1.419 . S
C209 C210 1.362 . S
C210 H202 0.930 1_455 S
C210 C209 1.362 . S
C210 C213 1.409 . S
C211 H203 0.930 1_455 S
C211 C212 1.355 . S
C211 C213 1.415 . S
C212 C211 1.355 . S
C212 C214 1.419 . S
C213 C208 1.425 . S
C213 C210 1.409 . S
C213 C211 1.415 . S
C214 H204 0.930 . S
C214 C212 1.419 . S
C214 C215 1.362 . S
C215 H205 0.930 . S
C215 C208 1.409 . S
C215 C214 1.362 . S
H216 C222 0.930 . S
H217 C225 0.930 . S
H218 C226 0.930 . S
H219 C227 0.930 . S
H220 C230 0.930 . S
H221 C231 0.930 . S
C222 H216 0.930 . S
C222 C223 1.355 1_565 S
C222 C224 1.415 . S
C223 C222 1.355 1_545 S
C223 C225 1.419 . S
C224 C222 1.415 . S
C224 C229 1.425 1_565 S
C224 C231 1.409 . S
C225 H217 0.930 . S
C225 C223 1.419 . S
C225 C226 1.362 . S
C226 H218 0.930 . S
C226 C225 1.362 . S
C226 C229 1.409 . S
C227 H219 0.930 . S
C227 C228 1.355 . S
C227 C229 1.415 . S
C228 C227 1.355 . S
C228 C230 1.419 1_545 S
C229 C224 1.425 1_545 S
C229 C226 1.409 . S
C229 C227 1.415 . S
C230 H220 0.930 . S
C230 C228 1.419 1_565 S
C230 C231 1.362 . S
C231 H221 0.930 . S
C231 C224 1.409 . S
C231 C230 1.362 . S
H232 C238 0.930 . S
H233 C241 0.930 . S
H234 C242 0.930 . S
H235 C243 0.930 . S
H236 C246 0.930 . S
H237 C247 0.930 1_655 S
C238 H232 0.930 . S
C238 C239 1.355 . S
C238 C240 1.415 . S
C239 C238 1.355 . S
C239 C241 1.419 . S
C240 C238 1.415 . S
C240 C245 1.425 . S
C240 C247 1.409 . S
C241 H233 0.930 . S
C241 C239 1.419 . S
C241 C242 1.362 . S
C242 H234 0.930 . S
C242 C241 1.362 . S
C242 C245 1.409 . S
C243 H235 0.930 . S
C243 C244 1.355 . S
C243 C245 1.415 . S
C244 C243 1.355 . S
C244 C246 1.419 . S
C245 C240 1.425 . S
C245 C242 1.409 . S
C245 C243 1.415 . S
C246 H236 0.930 . S
C246 C244 1.419 . S
C246 C247 1.362 . S
C247 H237 0.930 1_455 S
C247 C240 1.409 . S
C247 C246 1.362 . S
H248 C254 0.930 . S
H249 C257 0.930 . S
H250 C258 0.930 . S
H251 C259 0.930 . S
H252 C262 0.930 . S
H253 C263 0.930 . S
C254 H248 0.930 . S
C254 C255 1.355 . S
C254 C256 1.415 . S
C255 C254 1.355 . S
C255 C257 1.419 1_545 S
C256 C254 1.415 . S
C256 C261 1.422 1_545 S
C256 C263 1.409 . S
C257 H249 0.930 . S
C257 C255 1.419 1_565 S
C257 C258 1.362 . S
C258 H250 0.930 . S
C258 C257 1.362 . S
C258 C261 1.412 . S
C259 H251 0.930 . S
C259 C260 1.355 1_565 S
C259 C261 1.415 . S
C260 C259 1.355 1_545 S
C260 C262 1.419 . S
C261 C256 1.422 1_565 S
C261 C258 1.412 . S
C261 C259 1.415 . S
C262 H252 0.930 . S
C262 C260 1.419 . S
C262 C263 1.362 . S
C263 H253 0.930 . S
C263 C256 1.409 . S
C263 C262 1.362 . S
H264 C270 0.930 . S
H265 C273 0.930 . S
H266 C274 0.930 . S
H267 C275 0.930 1_655 S
H268 C278 0.930 . S
H269 C279 0.930 . S
C270 H264 0.930 . S
C270 C271 1.355 . S
C270 C272 1.415 . S
C271 C270 1.355 . S
C271 C273 1.419 1_455 S
C272 C270 1.415 . S
C272 C277 1.425 . S
C272 C279 1.409 . S
C273 H265 0.930 . S
C273 C271 1.419 1_655 S
C273 C274 1.362 . S
C274 H266 0.930 . S
C274 C273 1.362 . S
C274 C277 1.409 1_655 S
C275 H267 0.930 1_455 S
C275 C276 1.355 . S
C275 C277 1.415 . S
C276 C275 1.355 . S
C276 C278 1.419 . S
C277 C272 1.425 . S
C277 C274 1.409 1_455 S
C277 C275 1.415 . S
C278 H268 0.930 . S
C278 C276 1.419 . S
C278 C279 1.362 . S
C279 H269 0.930 . S
C279 C272 1.409 . S
C279 C278 1.362 . S
C164 C129 1.476 . S
C159 C47 1.657 . S
C180 C149 1.720 . S
C175 C109 1.566 . S
C196 C128 1.672 . S
C191 C29 1.612 . S
C212 C150 1.741 . S
C207 C91 1.656 . S
C228 C142 1.395 . S
C223 C53 1.397 . S
C244 C135 1.383 . S
C239 C115 1.374 . S
C260 C143 1.293 . S
C255 C35 1.430 . S
C271 C97 1.378 . S
C276 C136 1.407 . S
