# Generated by pormake.
# Topology apo, (3,6)-cn, num edge types: 1
# Building blocks:
#     Node 0, Type 0, BuildingBlock: QEWDON_clean_linker_0, # of connection points: 3
#     Node 1, Type 0, BuildingBlock: QEWDON_clean_linker_0, # of connection points: 3
#     Node 2, Type 0, BuildingBlock: QEWDON_clean_linker_0, # of connection points: 3
#     Node 3, Type 0, BuildingBlock: QEWDON_clean_linker_0, # of connection points: 3
#     Node 4, Type 0, BuildingBlock: QEWDON_clean_linker_0, # of connection points: 3
#     Node 5, Type 0, BuildingBlock: QEWDON_clean_linker_0, # of connection points: 3
#     Node 6, Type 0, BuildingBlock: QEWDON_clean_linker_0, # of connection points: 3
#     Node 7, Type 0, BuildingBlock: QEWDON_clean_linker_0, # of connection points: 3
#     Node 8, Type 1, BuildingBlock: KUMBUR_clean_sbu_1, # of connection points: 6
#     Node 9, Type 1, BuildingBlock: KUMBUR_clean_sbu_1, # of connection points: 6
#     Node 10, Type 1, BuildingBlock: KUMBUR_clean_sbu_1, # of connection points: 6
#     Node 11, Type 1, BuildingBlock: KUMBUR_clean_sbu_1, # of connection points: 6
#     Edge 12, Type (0, 1), BuildingBlock: XIVTED_clean_linker_0, # of connection points: 2
#     Edge 13, Type (0, 1), BuildingBlock: XIVTED_clean_linker_0, # of connection points: 2
#     Edge 14, Type (0, 1), BuildingBlock: XIVTED_clean_linker_0, # of connection points: 2
#     Edge 15, Type (0, 1), BuildingBlock: XIVTED_clean_linker_0, # of connection points: 2
#     Edge 16, Type (0, 1), BuildingBlock: XIVTED_clean_linker_0, # of connection points: 2
#     Edge 17, Type (0, 1), BuildingBlock: XIVTED_clean_linker_0, # of connection points: 2
#     Edge 18, Type (0, 1), BuildingBlock: XIVTED_clean_linker_0, # of connection points: 2
#     Edge 19, Type (0, 1), BuildingBlock: XIVTED_clean_linker_0, # of connection points: 2
#     Edge 20, Type (0, 1), BuildingBlock: XIVTED_clean_linker_0, # of connection points: 2
#     Edge 21, Type (0, 1), BuildingBlock: XIVTED_clean_linker_0, # of connection points: 2
#     Edge 22, Type (0, 1), BuildingBlock: XIVTED_clean_linker_0, # of connection points: 2
#     Edge 23, Type (0, 1), BuildingBlock: XIVTED_clean_linker_0, # of connection points: 2
#     Edge 24, Type (0, 1), BuildingBlock: XIVTED_clean_linker_0, # of connection points: 2
#     Edge 25, Type (0, 1), BuildingBlock: XIVTED_clean_linker_0, # of connection points: 2
#     Edge 26, Type (0, 1), BuildingBlock: XIVTED_clean_linker_0, # of connection points: 2
#     Edge 27, Type (0, 1), BuildingBlock: XIVTED_clean_linker_0, # of connection points: 2
#     Edge 28, Type (0, 1), BuildingBlock: XIVTED_clean_linker_0, # of connection points: 2
#     Edge 29, Type (0, 1), BuildingBlock: XIVTED_clean_linker_0, # of connection points: 2
#     Edge 30, Type (0, 1), BuildingBlock: XIVTED_clean_linker_0, # of connection points: 2
#     Edge 31, Type (0, 1), BuildingBlock: XIVTED_clean_linker_0, # of connection points: 2
#     Edge 32, Type (0, 1), BuildingBlock: XIVTED_clean_linker_0, # of connection points: 2
#     Edge 33, Type (0, 1), BuildingBlock: XIVTED_clean_linker_0, # of connection points: 2
#     Edge 34, Type (0, 1), BuildingBlock: XIVTED_clean_linker_0, # of connection points: 2
#     Edge 35, Type (0, 1), BuildingBlock: XIVTED_clean_linker_0, # of connection points: 2
# Relax obj value: 0.074
# Max RMSD: 0.260
# Mean RMSD: 0.207
data_MOF--net-apo--node1-KUMBUR_clean_sbu_1--node2-QEWDON_clean_linker_0--edge1-XIVTED_clean_linker_0
_symmetry_space_group_name_H-M    P1
_symmetry_Int_Tables_number       1
_symmetry_cell_setting            triclinic
loop_
_symmetry_equiv_pos_as_xyz
'x, y, z'
_cell_length_a     29.693301
_cell_length_b     42.768639
_cell_length_c     51.964877
_cell_angle_alpha  89.922007
_cell_angle_beta   89.793339
_cell_angle_gamma 91.057631
loop_
_atom_site_label
_atom_site_type_symbol
_atom_site_fract_x
_atom_site_fract_y
_atom_site_fract_z
_atom_type_partial_charge
H0 H 0.27811 0.38424 0.38178 0.0
C1 C 0.29292 0.38602 0.40077 0.0
C2 C 0.33172 0.40486 0.40444 0.0
C3 C 0.27194 0.37078 0.42176 0.0
H4 H 0.37908 0.42303 0.43213 0.0
C5 C 0.34966 0.40808 0.42931 0.0
C6 C 0.32856 0.39385 0.4507 0.0
C7 C 0.29037 0.37462 0.44657 0.0
C8 C 0.22769 0.35423 0.41862 0.0
H9 H 0.27341 0.36384 0.4629 0.0
C10 C 0.21935 0.33292 0.39829 0.0
C11 C 0.17644 0.31848 0.39563 0.0
C12 C 0.1927 0.36064 0.43606 0.0
H13 H 0.19764 0.37731 0.45152 0.0
C14 C 0.1506 0.34616 0.43358 0.0
H15 H 0.24583 0.32778 0.38462 0.0
C16 C 0.14245 0.32529 0.41356 0.0
H17 H 0.10942 0.31423 0.41216 0.0
H18 H 0.12404 0.35128 0.44718 0.0
H19 H 0.2468 0.13875 0.88335 0.0
C20 C 0.23372 0.14052 0.90279 0.0
C21 C 0.19598 0.12221 0.91032 0.0
C22 C 0.25748 0.15853 0.92103 0.0
H23 H 0.15305 0.10854 0.94219 0.0
C24 C 0.18132 0.12318 0.93611 0.0
C25 C 0.20491 0.14088 0.95454 0.0
C26 C 0.24226 0.15906 0.94664 0.0
C27 C 0.30275 0.1718 0.915 0.0
H28 H 0.2612 0.17245 0.96077 0.0
C29 C 0.31006 0.19371 0.89503 0.0
C30 C 0.35393 0.20559 0.8901 0.0
C31 C 0.33947 0.16197 0.92977 0.0
H32 H 0.33471 0.14497 0.94507 0.0
C33 C 0.38268 0.17367 0.92491 0.0
H34 H 0.28198 0.20147 0.88355 0.0
C35 C 0.38993 0.19532 0.90526 0.0
H36 H 0.42381 0.20441 0.90212 0.0
H37 H 0.41065 0.16599 0.93646 0.0
H38 H 0.77285 0.13933 0.65087 0.0
C39 C 0.78783 0.14222 0.63194 0.0
C40 C 0.82752 0.12641 0.62553 0.0
C41 C 0.76541 0.15975 0.61324 0.0
H42 H 0.87599 0.11764 0.59537 0.0
C43 C 0.84544 0.12965 0.60051 0.0
C44 C 0.82311 0.14694 0.58167 0.0
C45 C 0.78314 0.16197 0.58824 0.0
C46 C 0.72066 0.17281 0.61847 0.0
H47 H 0.76533 0.17519 0.57378 0.0
C48 C 0.71528 0.19821 0.63533 0.0
C49 C 0.67302 0.21236 0.63763 0.0
C50 C 0.68336 0.16101 0.6048 0.0
H51 H 0.687 0.14151 0.59171 0.0
C52 C 0.64128 0.17447 0.60765 0.0
H53 H 0.74411 0.20778 0.64559 0.0
C54 C 0.63614 0.20016 0.62378 0.0
H55 H 0.6033 0.21063 0.62541 0.0
H56 H 0.61271 0.16527 0.59701 0.0
H57 H 0.75308 0.39102 0.14979 0.0
C58 C 0.73618 0.38915 0.13138 0.0
C59 C 0.69562 0.40484 0.12734 0.0
C60 C 0.75614 0.3725 0.11124 0.0
H61 H 0.64393 0.41604 0.09985 0.0
C62 C 0.67449 0.40317 0.1032 0.0
C63 C 0.69476 0.3871 0.08281 0.0
C64 C 0.73537 0.37172 0.08704 0.0
C65 C 0.80074 0.35825 0.11435 0.0
H66 H 0.75126 0.35939 0.07131 0.0
C67 C 0.80761 0.33409 0.13228 0.0
C68 C 0.84918 0.31879 0.13297 0.0
C69 C 0.83617 0.36777 0.09798 0.0
H70 H 0.83153 0.38637 0.08412 0.0
C71 C 0.87771 0.35324 0.09919 0.0
H72 H 0.7802 0.32627 0.14468 0.0
C73 C 0.88414 0.32873 0.1164 0.0
H74 H 0.91649 0.31743 0.11675 0.0
H75 H 0.90482 0.3607 0.08648 0.0
H76 H 0.71945 0.66093 0.64897 0.0
C77 C 0.71705 0.65281 0.62928 0.0
C78 C 0.70302 0.62176 0.62418 0.0
C79 C 0.72568 0.67385 0.60892 0.0
H80 H 0.6839 0.58904 0.59438 0.0
C81 C 0.69772 0.61212 0.59846 0.0
C82 C 0.7065 0.63275 0.578 0.0
C83 C 0.72184 0.66319 0.58344 0.0
C84 C 0.73289 0.70784 0.61371 0.0
H85 H 0.7292 0.67915 0.56769 0.0
C86 C 0.76203 0.71913 0.63314 0.0
C87 C 0.76691 0.75158 0.63734 0.0
C88 C 0.70906 0.72941 0.59871 0.0
H89 H 0.68564 0.72152 0.58405 0.0
C90 C 0.71445 0.7614 0.60262 0.0
H91 H 0.78046 0.70291 0.64497 0.0
C92 C 0.74313 0.77246 0.62177 0.0
H93 H 0.74684 0.79751 0.6244 0.0
H94 H 0.69608 0.77771 0.59087 0.0
H95 H 0.80763 0.87037 0.14684 0.0
C96 C 0.81265 0.8783 0.12721 0.0
C97 C 0.82692 0.90938 0.12231 0.0
C98 C 0.80731 0.85694 0.10683 0.0
H99 H 0.84792 0.94219 0.09275 0.0
C100 C 0.83521 0.91876 0.09674 0.0
C101 C 0.82969 0.8978 0.07623 0.0
C102 C 0.81487 0.86714 0.08138 0.0
C103 C 0.80021 0.82304 0.11187 0.0
H104 H 0.81176 0.85061 0.06565 0.0
C105 C 0.76431 0.81148 0.12727 0.0
C106 C 0.75744 0.77892 0.13018 0.0
C107 C 0.82992 0.80183 0.10049 0.0
H108 H 0.85818 0.81012 0.08895 0.0
C109 C 0.82374 0.76977 0.10388 0.0
H110 H 0.74102 0.82755 0.13604 0.0
C111 C 0.78766 0.75834 0.11846 0.0
H112 H 0.78342 0.73326 0.12069 0.0
H113 H 0.84685 0.75369 0.09502 0.0
H114 H 0.192 0.8628 0.37565 0.0
C115 C 0.19331 0.86939 0.39577 0.0
C116 C 0.17877 0.89909 0.40353 0.0
C117 C 0.20591 0.84722 0.41427 0.0
H118 H 0.16772 0.92945 0.43598 0.0
C119 C 0.17902 0.90668 0.42988 0.0
C120 C 0.19136 0.88476 0.44855 0.0
C121 C 0.20508 0.85513 0.4405 0.0
C122 C 0.21423 0.81443 0.40696 0.0
H123 H 0.21447 0.83783 0.45468 0.0
C124 C 0.25063 0.80632 0.39098 0.0
C125 C 0.25972 0.77458 0.38648 0.0
C126 C 0.18636 0.79073 0.41748 0.0
H127 H 0.15813 0.79653 0.42974 0.0
C128 C 0.19481 0.75939 0.41248 0.0
H129 H 0.27271 0.8244 0.38307 0.0
C130 C 0.23147 0.75131 0.39726 0.0
H131 H 0.238 0.72679 0.39396 0.0
H132 H 0.17324 0.7413 0.42073 0.0
H133 H 0.32729 0.66524 0.87684 0.0
C134 C 0.32445 0.65998 0.89719 0.0
C135 C 0.33464 0.62996 0.90645 0.0
C136 C 0.31434 0.68413 0.9144 0.0
H137 H 0.34047 0.60136 0.94067 0.0
C138 C 0.33274 0.62429 0.9332 0.0
C139 C 0.32353 0.64849 0.95057 0.0
C140 C 0.31401 0.67826 0.94093 0.0
C141 C 0.31094 0.71668 0.90536 0.0
H142 H 0.30737 0.69726 0.95413 0.0
C143 C 0.2723 0.72724 0.89263 0.0
C144 C 0.26834 0.75922 0.88665 0.0
C145 C 0.34597 0.73792 0.91127 0.0
H146 H 0.37582 0.73013 0.92115 0.0
C147 C 0.34258 0.76938 0.90476 0.0
H148 H 0.24485 0.711 0.88844 0.0
C149 C 0.30396 0.78005 0.89269 0.0
H150 H 0.30186 0.80468 0.88804 0.0
H151 H 0.36973 0.78563 0.90939 0.0
Tb152 Tb 0.05916 0.10626 0.23783 0.0
C153 C 0.86618 0.08 0.26973 0.0
N154 N 0.8896 0.10739 0.27247 0.0
C155 C 0.82755 0.13513 0.25439 0.0
C156 C 0.8235 0.07887 0.25795 0.0
C157 C 0.86946 0.13499 0.26661 0.0
C158 C 0.80487 0.10687 0.24953 0.0
C159 C 0.85963 0.02469 0.27968 0.0
C160 C 0.88374 0.05333 0.28046 0.0
C161 C 0.81813 0.02305 0.26682 0.0
C162 C 0.80012 0.0501 0.25592 0.0
Tb163 Tb 0.95947 0.10364 0.29098 0.0
N164 N 0.9244 0.05573 0.29217 0.0
C165 C 0.87769 0.9988 0.29224 0.0
C166 C 0.94094 0.03114 0.30578 0.0
C167 C 0.91821 1.00218 0.30568 0.0
H168 H 0.8851 0.15706 0.27174 0.0
H169 H 0.93193 0.98251 0.31595 0.0
H170 H 0.14193 0.0706 0.26711 0.0
H171 H 0.0506 0.22172 0.19474 0.0
H172 H 0.97203 0.03381 0.31629 0.0
H173 H 0.8602 0.97634 0.29213 0.0
H174 H 0.02748 0.16684 0.20082 0.0
H175 H 0.81241 0.15706 0.24918 0.0
H176 H 0.79927 1.00117 0.26569 0.0
H177 H 0.7675 0.04869 0.24667 0.0
H178 H 0.21661 0.08457 0.28494 0.0
H179 H 0.77215 0.10706 0.24038 0.0
H180 H 0.11978 0.2423 0.21558 0.0
N181 N 0.12847 0.11682 0.25462 0.0
C182 C 0.14498 0.14634 0.25125 0.0
C183 C 0.1966 0.10226 0.27574 0.0
C184 C 0.18739 0.15543 0.26105 0.0
C185 C 0.15412 0.09446 0.26583 0.0
C186 C 0.21312 0.13297 0.27361 0.0
N187 N 0.07901 0.15708 0.22799 0.0
C188 C 0.05587 0.1758 0.21151 0.0
C189 C 0.13472 0.19829 0.23402 0.0
C190 C 0.1189 0.16737 0.23797 0.0
C191 C 0.10888 0.21834 0.21906 0.0
C192 C 0.0697 0.20685 0.20737 0.0
H193 H 0.24597 0.13898 0.28137 0.0
H194 H 0.235 0.19405 0.2655 0.0
H195 H 0.18885 0.23163 0.24182 0.0
O196 O 0.08818 0.11015 0.20072 0.0
O197 O 0.07002 0.12509 0.27675 0.0
O198 O 1.00214 0.14588 0.28779 0.0
O199 O 0.08507 0.06548 0.22102 0.0
O200 O 0.99444 0.12737 0.22746 0.0
O201 O 0.96273 0.14496 0.26557 0.0
O202 O 0.97365 0.10038 0.33048 0.0
O203 O 0.97002 0.06496 0.26392 0.0
O204 O 0.99242 0.08878 0.22659 0.0
O205 O 0.91144 0.11938 0.31769 0.0
O206 O 0.02395 0.08313 0.30137 0.0
O207 O 0.05768 0.06536 0.26373 0.0
C208 C 0.04643 0.14717 0.28751 0.0
C209 C 0.11936 0.06531 0.17827 0.0
C210 C 0.14843 0.06684 0.13422 0.0
C211 C 0.16286 0.03593 0.13709 0.0
C212 C 0.1338 0.03436 0.1806 0.0
C213 C 0.15537 0.0198 0.16009 0.0
C214 C 0.12637 0.08142 0.15486 0.0
C215 C 0.96762 0.14613 0.24034 0.0
C216 C 0.09709 0.08054 0.20024 0.0
C217 C 0.20267 0.18648 0.2579 0.0
C218 C 0.17632 0.20789 0.24448 0.0
C219 C 0.9688 0.06723 0.23883 0.0
C220 C 0.94255 0.13982 0.35579 0.0
C221 C 0.9359 0.15952 0.39962 0.0
C222 C 0.95663 0.18778 0.39171 0.0
C223 C 0.9625 0.16833 0.34816 0.0
C224 C 0.929 0.13555 0.38146 0.0
C225 C 0.96968 0.19214 0.36609 0.0
C226 C 0.05006 0.06362 0.28882 0.0
C227 C 0.93689 0.11406 0.33739 0.0
H228 H 0.17962 0.02414 0.1214 0.0
H229 H 0.12864 0.0214 0.19833 0.0
H230 H 0.16643 0.99594 0.16206 0.0
H231 H 0.11536 0.10532 0.1528 0.0
H232 H 0.96203 0.20672 0.40524 0.0
H233 H 0.97252 0.17216 0.3284 0.0
H234 H 0.91373 0.11343 0.38735 0.0
H235 H 0.98528 0.21405 0.3601 0.0
Tb236 Tb 0.46104 0.42595 0.73863 0.0
C237 C 0.653 0.45625 0.77024 0.0
N238 N 0.63082 0.42835 0.77293 0.0
C239 C 0.6942 0.40214 0.75461 0.0
C240 C 0.69568 0.4584 0.75835 0.0
C241 C 0.65222 0.40126 0.76693 0.0
C242 C 0.71563 0.4309 0.74979 0.0
C243 C 0.65694 0.51158 0.78028 0.0
C244 C 0.63413 0.48244 0.78106 0.0
C245 C 0.69844 0.51422 0.76733 0.0
C246 C 0.71775 0.48767 0.75633 0.0
Tb247 Tb 0.56079 0.43046 0.79169 0.0
N248 N 0.59345 0.47911 0.79282 0.0
C249 C 0.63754 0.537 0.79285 0.0
C250 C 0.57558 0.50326 0.8064 0.0
C251 C 0.59699 0.53269 0.80628 0.0
H252 H 0.63756 0.37884 0.77204 0.0
H253 H 0.58225 0.552 0.81655 0.0
H254 H 0.37696 0.46162 0.767 0.0
H255 H 0.47342 0.30891 0.69915 0.0
H256 H 0.54446 0.49987 0.81692 0.0
H257 H 0.654 0.55982 0.79272 0.0
H258 H 0.49482 0.36431 0.70344 0.0
H259 H 0.71037 0.3806 0.7493 0.0
H260 H 0.71629 0.53651 0.76618 0.0
H261 H 0.75034 0.48986 0.74699 0.0
H262 H 0.30261 0.44733 0.78539 0.0
H263 H 0.7484 0.4315 0.74055 0.0
H264 H 0.40454 0.2883 0.72061 0.0
N265 N 0.39177 0.41517 0.75571 0.0
C266 C 0.37605 0.38535 0.75315 0.0
C267 C 0.32314 0.42959 0.77661 0.0
C268 C 0.33383 0.37607 0.7633 0.0
C269 C 0.36548 0.43757 0.76641 0.0
C270 C 0.30743 0.39862 0.77532 0.0
N271 N 0.44267 0.37453 0.73027 0.0
C272 C 0.46658 0.35543 0.71442 0.0
C273 C 0.38801 0.33286 0.73756 0.0
C274 C 0.40286 0.36415 0.74049 0.0
C275 C 0.41467 0.31254 0.72329 0.0
C276 C 0.4537 0.32404 0.71128 0.0
H277 H 0.27471 0.39248 0.78334 0.0
H278 H 0.28732 0.33701 0.76902 0.0
H279 H 0.3348 0.29912 0.74648 0.0
O280 O 0.43319 0.42031 0.70141 0.0
O281 O 0.45136 0.40717 0.77769 0.0
O282 O 0.51987 0.38745 0.78878 0.0
O283 O 0.43274 0.46537 0.721 0.0
O284 O 0.52659 0.40589 0.72816 0.0
O285 O 0.55928 0.38929 0.76628 0.0
O286 O 0.54596 0.43251 0.83126 0.0
O287 O 0.54814 0.46876 0.76462 0.0
O288 O 0.52694 0.445 0.72717 0.0
O289 O 0.60989 0.41639 0.81819 0.0
O290 O 0.49553 0.44968 0.80218 0.0
O291 O 0.46074 0.46687 0.76469 0.0
C292 C 0.47563 0.38544 0.78838 0.0
C293 C 0.39915 0.46362 0.67821 0.0
C294 C 0.37904 0.46384 0.63253 0.0
C295 C 0.35781 0.49264 0.63624 0.0
C296 C 0.3779 0.49243 0.68125 0.0
C297 C 0.35718 0.5067 0.66041 0.0
C298 C 0.39918 0.44912 0.65379 0.0
C299 C 0.55443 0.38793 0.74107 0.0
C300 C 0.42212 0.44952 0.70046 0.0
C301 C 0.31947 0.34472 0.76112 0.0
C302 C 0.34658 0.32313 0.74835 0.0
C303 C 0.55039 0.46638 0.73957 0.0
C304 C 0.5807 0.39423 0.85629 0.0
C305 C 0.58911 0.3746 0.90012 0.0
C306 C 0.57392 0.34495 0.89177 0.0
C307 C 0.56594 0.36448 0.8483 0.0
C308 C 0.59226 0.39921 0.88213 0.0
C309 C 0.56246 0.34 0.86602 0.0
C310 C 0.4682 0.4685 0.78981 0.0
C311 C 0.58388 0.42035 0.83798 0.0
H312 H 0.3414 0.50428 0.6204 0.0
H313 H 0.37727 0.50398 0.69979 0.0
H314 H 0.34073 0.52886 0.66297 0.0
H315 H 0.41597 0.42706 0.65115 0.0
H316 H 0.57169 0.32543 0.90503 0.0
H317 H 0.55728 0.36017 0.8284 0.0
H318 H 0.60332 0.42233 0.88824 0.0
H319 H 0.5511 0.31706 0.85975 0.0
Tb320 Tb 0.06065 0.92581 0.74191 0.0
C321 C 0.86733 0.89345 0.77723 0.0
N322 N 0.88723 0.92209 0.7746 0.0
C323 C 0.82198 0.94095 0.75294 0.0
C324 C 0.82445 0.887 0.76679 0.0
C325 C 0.86478 0.94611 0.76346 0.0
C326 C 0.80189 0.91118 0.75436 0.0
C327 C 0.87096 0.84055 0.79352 0.0
C328 C 0.89038 0.87065 0.7904 0.0
C329 C 0.8289 0.83355 0.78237 0.0
C330 C 0.80562 0.85677 0.76911 0.0
Tb331 Tb 0.95651 0.92844 0.79253 0.0
N332 N 0.93084 0.87844 0.80108 0.0
C333 C 0.89374 0.81869 0.8084 0.0
C334 C 0.95098 0.85801 0.81751 0.0
C335 C 0.93349 0.82767 0.82084 0.0
H336 H 0.87971 0.96927 0.76276 0.0
H337 H 0.95023 0.81142 0.83342 0.0
H338 H 0.13013 0.87283 0.76631 0.0
H339 H 0.09553 0.04479 0.71293 0.0
H340 H 0.97978 0.865 0.82879 0.0
H341 H 0.88002 0.79529 0.81126 0.0
H342 H 0.05311 0.99445 0.71369 0.0
H343 H 0.80447 0.95995 0.74382 0.0
H344 H 0.81364 0.81047 0.78439 0.0
H345 H 0.77291 0.8512 0.76096 0.0
H346 H 0.20009 0.8728 0.79158 0.0
H347 H 0.76882 0.90721 0.74611 0.0
H348 H 0.16523 0.05112 0.73859 0.0
N349 N 0.1276 0.92236 0.76364 0.0
C350 C 0.15192 0.94946 0.76594 0.0
C351 C 0.18644 0.89467 0.78497 0.0
C352 C 0.19345 0.95052 0.77899 0.0
C353 C 0.14589 0.89484 0.77135 0.0
C354 C 0.2099 0.92276 0.78929 0.0
N355 N 0.0973 0.97321 0.74034 0.0
C356 C 0.08313 0.99721 0.72519 0.0
C357 C 0.16214 1.00381 0.75351 0.0
C358 C 0.13672 0.9757 0.75341 0.0
C359 C 0.14663 0.02909 0.73909 0.0
C360 C 0.10724 0.02563 0.7246 0.0
H361 H 0.24168 0.92252 0.79946 0.0
H362 H 0.24984 0.98024 0.79045 0.0
H363 H 0.22232 0.02697 0.76812 0.0
O364 O 0.05539 0.92897 0.70142 0.0
O365 O 0.05142 0.96534 0.76853 0.0
O366 O 0.02388 0.94235 0.80506 0.0
O367 O 0.10851 0.90346 0.71888 0.0
O368 O 0.99951 0.94912 0.72923 0.0
O369 O 0.9643 0.96866 0.76599 0.0
O370 O 0.92326 0.92588 0.82834 0.0
O371 O 0.94696 0.91086 0.75342 0.0
O372 O 0.01237 0.88617 0.74278 0.0
O373 O 0.93364 0.96999 0.80921 0.0
O374 O 0.01782 0.90416 0.80438 0.0
O375 O 0.05084 0.88481 0.76725 0.0
C376 C 0.04884 0.96379 0.79368 0.0
C377 C 0.1256 0.92869 0.67972 0.0
C378 C 0.1556 0.93563 0.63616 0.0
C379 C 0.19017 0.95497 0.64616 0.0
C380 C 0.16099 0.94754 0.68919 0.0
C381 C 0.19271 0.96086 0.67248 0.0
C382 C 0.12307 0.92272 0.65315 0.0
C383 C 0.97348 0.96947 0.74099 0.0
C384 C 0.09251 0.91408 0.69746 0.0
C385 C 0.21804 0.97888 0.78031 0.0
C386 C 0.20246 1.00548 0.76753 0.0
C387 C 0.96817 0.88772 0.74255 0.0
C388 C 0.93799 0.96949 0.85487 0.0
C389 C 0.93863 0.96911 0.90202 0.0
C390 C 0.97051 0.99391 0.90149 0.0
C391 C 0.97 0.99412 0.85495 0.0
C392 C 0.92238 0.95715 0.87848 0.0
C393 C 0.98606 1.00618 0.87814 0.0
C394 C 0.04324 0.8838 0.79227 0.0
C395 C 0.92114 0.95607 0.83044 0.0
H396 H 0.21613 0.96484 0.63374 0.0
H397 H 0.16482 0.95147 0.70953 0.0
H398 H 0.21989 0.97531 0.68002 0.0
H399 H 0.09605 0.90791 0.6458 0.0
H400 H 0.98315 1.00414 0.91916 0.0
H401 H 0.98279 1.00407 0.83713 0.0
H402 H 0.89822 0.93784 0.87844 0.0
H403 H 0.01067 0.02518 0.87803 0.0
Tb404 Tb 0.46667 0.60246 0.23633 0.0
C405 C 0.65909 0.62928 0.27026 0.0
N406 N 0.63427 0.60241 0.27289 0.0
C407 C 0.69644 0.57303 0.25657 0.0
C408 C 0.70277 0.62923 0.25952 0.0
C409 C 0.65372 0.57426 0.26791 0.0
C410 C 0.72073 0.6007 0.25185 0.0
C411 C 0.66803 0.68445 0.28022 0.0
C412 C 0.64212 0.65654 0.28039 0.0
C413 C 0.71059 0.68491 0.26834 0.0
C414 C 0.72787 0.65736 0.25792 0.0
Tb415 Tb 0.56382 0.60821 0.29064 0.0
N416 N 0.60053 0.65536 0.29128 0.0
C417 C 0.65075 0.71078 0.29255 0.0
C418 C 0.58449 0.68035 0.30461 0.0
C419 C 0.60907 0.70857 0.30514 0.0
H420 H 0.63699 0.55248 0.27301 0.0
H421 H 0.5959 0.72857 0.31522 0.0
H422 H 0.38285 0.63577 0.26709 0.0
H423 H 0.48136 0.48756 0.1935 0.0
H424 H 0.55242 0.6785 0.31444 0.0
H425 H 0.66968 0.73267 0.29294 0.0
H426 H 0.50276 0.54263 0.20043 0.0
H427 H 0.71099 0.55069 0.252 0.0
H428 H 0.73086 0.70623 0.26769 0.0
H429 H 0.76132 0.65783 0.24951 0.0
H430 H 0.30786 0.62048 0.28401 0.0
H431 H 0.75414 0.59964 0.24348 0.0
H432 H 0.41126 0.46589 0.2129 0.0
N433 N 0.39752 0.59035 0.25326 0.0
C434 C 0.3818 0.56078 0.24924 0.0
C435 C 0.32849 0.60336 0.27449 0.0
C436 C 0.33914 0.55096 0.25845 0.0
C437 C 0.37123 0.6119 0.26516 0.0
C438 C 0.31246 0.5727 0.27128 0.0
N439 N 0.44919 0.55128 0.22676 0.0
C440 C 0.47386 0.53311 0.21054 0.0
C441 C 0.39416 0.50935 0.23152 0.0
C442 C 0.40901 0.54036 0.23604 0.0
C443 C 0.42138 0.48988 0.21678 0.0
C444 C 0.46106 0.50199 0.2059 0.0
H445 H 0.2794 0.56612 0.27858 0.0
H446 H 0.2921 0.51179 0.26168 0.0
H447 H 0.34029 0.47531 0.23806 0.0
O448 O 0.44757 0.59769 0.19766 0.0
O449 O 0.45456 0.58418 0.27562 0.0
O450 O 0.52249 0.56535 0.28909 0.0
O451 O 0.43444 0.6401 0.21812 0.0
O452 O 0.5332 0.58304 0.22781 0.0
O453 O 0.56112 0.56569 0.26668 0.0
O454 O 0.54688 0.6123 0.32981 0.0
O455 O 0.55577 0.64675 0.26294 0.0
O456 O 0.53368 0.62103 0.22655 0.0
O457 O 0.61144 0.59541 0.31842 0.0
O458 O 0.49869 0.6295 0.29902 0.0
O459 O 0.46683 0.64489 0.2602 0.0
C460 C 0.47828 0.56333 0.28798 0.0
C461 C 0.38591 0.6262 0.1833 0.0
C462 C 0.34469 0.62702 0.14267 0.0
C463 C 0.30397 0.62551 0.15656 0.0
C464 C 0.34495 0.62496 0.19679 0.0
C465 C 0.30422 0.62459 0.18343 0.0
C466 C 0.38558 0.62735 0.15628 0.0
C467 C 0.55722 0.56357 0.2415 0.0
C468 C 0.42958 0.62502 0.19654 0.0
C469 C 0.32464 0.51989 0.25459 0.0
C470 C 0.35216 0.4991 0.24122 0.0
C471 C 0.55425 0.64463 0.23781 0.0
C472 C 0.5831 0.57835 0.35841 0.0
C473 C 0.59914 0.56544 0.40316 0.0
C474 C 0.58054 0.53534 0.39912 0.0
C475 C 0.56474 0.54831 0.35465 0.0
C476 C 0.60034 0.58675 0.38252 0.0
C477 C 0.56346 0.52691 0.37499 0.0
C478 C 0.47283 0.64797 0.28529 0.0
C479 C 0.58505 0.60148 0.33761 0.0
H480 H 0.27194 0.62555 0.14666 0.0
H481 H 0.34428 0.62422 0.21751 0.0
H482 H 0.2727 0.62362 0.19396 0.0
H483 H 0.41729 0.62796 0.14585 0.0
H484 H 0.57859 0.51849 0.41468 0.0
H485 H 0.55162 0.54151 0.33607 0.0
H486 H 0.61519 0.60989 0.38507 0.0
H487 H 0.54907 0.50375 0.37208 0.0
H488 H 0.10371 0.93401 0.40977 0.0
H489 H 0.10371 1.01539 0.27203 0.0
H490 H 0.2082 0.9145 0.35439 0.0
H491 H 0.04583 0.05511 0.34076 0.0
H492 H 0.1361 0.97381 0.29862 0.0
H493 H 0.07422 0.97325 0.38096 0.0
C494 C 0.12079 0.93816 0.3916 0.0
C495 C 0.15931 0.92145 0.38483 0.0
C496 C 0.11638 0.99179 0.30771 0.0
C497 C 0.12474 0.96616 0.35128 0.0
C498 C 0.09791 1.0155 0.29261 0.0
C499 C 0.07173 0.03878 0.3041 0.0
C500 C 0.10794 0.99121 0.33432 0.0
C501 C 0.06538 0.03768 0.33087 0.0
C502 C 0.10372 0.96051 0.37507 0.0
C503 C 0.17864 0.927 0.36046 0.0
N504 N 0.08301 1.01425 0.34494 0.0
N505 N 0.16123 0.94905 0.34452 0.0
H506 H 0.40203 0.58862 0.91543 0.0
H507 H 0.41391 0.51701 0.77409 0.0
H508 H 0.30845 0.61624 0.85652 0.0
H509 H 0.46893 0.4738 0.84201 0.0
H510 H 0.37873 0.55638 0.80187 0.0
H511 H 0.43139 0.5494 0.88662 0.0
C512 C 0.38702 0.58617 0.89657 0.0
C513 C 0.35197 0.60555 0.88869 0.0
C514 C 0.3984 0.5381 0.81053 0.0
C515 C 0.38682 0.56085 0.855 0.0
C516 C 0.41846 0.51565 0.79473 0.0
C517 C 0.4447 0.49207 0.80563 0.0
C518 C 0.40514 0.53703 0.83728 0.0
C519 C 0.44943 0.49154 0.83253 0.0
C520 C 0.40418 0.56384 0.87998 0.0
C521 C 0.33548 0.6019 0.86347 0.0
N522 N 0.43017 0.5137 0.84728 0.0
N523 N 0.3531 0.57999 0.84747 0.0
H524 H 0.65529 0.63465 0.66834 0.0
H525 H 0.59859 0.45539 0.69612 0.0
H526 H 0.71833 0.55893 0.62781 0.0
H527 H 0.56454 0.52853 0.74935 0.0
H528 H 0.64281 0.49336 0.67086 0.0
H529 H 0.62345 0.59682 0.69904 0.0
C530 C 0.66322 0.61018 0.66615 0.0
C531 C 0.68919 0.59996 0.64524 0.0
C532 C 0.62601 0.50113 0.68818 0.0
C533 C 0.65184 0.55648 0.67996 0.0
C534 C 0.60055 0.47951 0.70245 0.0
C535 C 0.57798 0.48899 0.72473 0.0
C536 C 0.62822 0.53256 0.69601 0.0
C537 C 0.58177 0.52037 0.73231 0.0
C538 C 0.64472 0.58856 0.6836 0.0
C539 C 0.69774 0.56784 0.64329 0.0
N540 N 0.60613 0.54116 0.71784 0.0
N541 N 0.67867 0.54726 0.66019 0.0
H542 H 0.87012 0.89734 0.16796 0.0
H543 H 0.92512 0.07702 0.19375 0.0
H544 H 0.81024 0.97216 0.12485 0.0
H545 H 0.95267 1.00543 0.24969 0.0
H546 H 0.88312 0.03848 0.16815 0.0
H547 H 0.89912 0.93582 0.19884 0.0
C548 C 0.86222 0.92174 0.16524 0.0
C549 C 0.83809 0.93152 0.14355 0.0
C550 C 0.89796 0.0312 0.18614 0.0
C551 C 0.87225 0.97573 0.17849 0.0
C552 C 0.92217 0.05314 0.20063 0.0
C553 C 0.94228 0.04429 0.22379 0.0
C554 C 0.89452 1.00003 0.19465 0.0
C555 C 0.93728 1.01316 0.232 0.0
C556 C 0.87913 0.94373 0.1828 0.0
C557 C 0.82949 0.96357 0.14095 0.0
N558 N 0.91421 0.99202 0.21732 0.0
N559 N 0.84704 0.98451 0.15797 0.0
H560 H 0.84086 0.13292 0.67789 0.0
H561 H 0.9668 0.96969 0.68876 0.0
H562 H 0.8601 0.06859 0.61503 0.0
H563 H 0.93012 0.02313 0.75585 0.0
H564 H 0.93101 1.00806 0.66167 0.0
H565 H 0.87556 0.09505 0.70707 0.0
C566 C 0.8523 0.11089 0.67023 0.0
C567 C 0.84814 0.10415 0.64387 0.0
C568 C 0.93061 1.0115 0.68231 0.0
C569 C 0.88788 0.06097 0.67701 0.0
C570 C 0.95127 0.98957 0.69786 0.0
C571 C 0.95151 0.99312 0.72469 0.0
C572 C 0.91005 0.03748 0.6935 0.0
C573 C 0.93055 0.01939 0.73526 0.0
C574 C 0.87216 0.08937 0.68686 0.0
C575 C 0.86361 0.07526 0.63501 0.0
N576 N 0.9107 0.04067 0.71961 0.0
N577 N 0.88282 0.0549 0.65148 0.0
H578 H 0.73457 0.45917 0.14299 0.0
H579 H 0.55633 0.5009 0.25123 0.0
H580 H 0.61778 0.39978 0.15563 0.0
H581 H 0.61265 0.57114 0.20037 0.0
H582 H 0.59203 0.46014 0.22496 0.0
H583 H 0.70354 0.49751 0.1731 0.0
C584 C 0.70268 0.45411 0.15245 0.0
C585 C 0.67858 0.42645 0.14704 0.0
C586 C 0.59681 0.48452 0.2198 0.0
C587 C 0.64342 0.46969 0.18145 0.0
C588 C 0.57689 0.50764 0.2348 0.0
C589 C 0.58179 0.53916 0.22777 0.0
C590 C 0.62284 0.49329 0.19828 0.0
C591 C 0.60811 0.54696 0.20621 0.0
C592 C 0.685 0.47594 0.16944 0.0
C593 C 0.63722 0.42091 0.15947 0.0
N594 N 0.62801 0.52416 0.19229 0.0
N595 N 0.62091 0.44235 0.17629 0.0
H596 H 0.28779 0.44343 0.37117 0.0
H597 H 0.51328 0.50762 0.30286 0.0
H598 H 0.42022 0.41087 0.39005 0.0
H599 H 0.39122 0.56058 0.30617 0.0
H600 H 0.47663 0.4665 0.32857 0.0
H601 H 0.32199 0.48044 0.34029 0.0
C602 C 0.32397 0.44365 0.36843 0.0
C603 C 0.35125 0.42406 0.38316 0.0
C604 C 0.45772 0.487 0.32347 0.0
C605 C 0.39052 0.46642 0.34813 0.0
C606 C 0.47864 0.51056 0.30888 0.0
C607 C 0.45524 0.53763 0.30231 0.0
C608 C 0.41278 0.49025 0.33133 0.0
C609 C 0.41024 0.5399 0.31036 0.0
C610 C 0.34347 0.46496 0.35103 0.0
C611 C 0.39802 0.42565 0.37915 0.0
N612 N 0.39043 0.51652 0.32444 0.0
N613 N 0.41616 0.44648 0.36206 0.0
H614 H 0.17236 0.06149 0.92057 0.0
H615 H 0.07467 0.02364 0.78042 0.0
H616 H 0.1738 0.12946 0.8591 0.0
H617 H 0.07461 0.9582 0.84362 0.0
H618 H 0.11267 0.06249 0.80785 0.0
H619 H 0.13759 0.02345 0.89185 0.0
C620 C 0.16491 0.06856 0.90105 0.0
C621 C 0.1753 0.09898 0.8924 0.0
C622 C 0.10448 0.0396 0.81567 0.0
C623 C 0.13608 0.05498 0.859 0.0
C624 C 0.08315 0.01735 0.79997 0.0
C625 C 0.07204 0.98756 0.80968 0.0
C626 C 0.11439 0.032 0.84132 0.0
C627 C 0.08262 0.98089 0.83534 0.0
C628 C 0.14534 0.04667 0.88455 0.0
C629 C 0.16622 0.10632 0.86659 0.0
N630 N 0.10315 1.00291 0.85023 0.0
N631 N 0.14692 0.0845 0.8508 0.0
H632 H 0.12231 0.13754 0.97908 0.0
H633 H 0.22835 0.07361 0.10904 0.0
H634 H 0.26512 0.13291 0.99344 0.0
H635 H 0.08836 0.09763 0.10356 0.0
H636 H 0.24177 0.0965 0.06662 0.0
H637 H 0.10798 0.12407 0.02438 0.0
C638 C 0.15061 0.13406 0.9918 0.0
C639 C 0.19499 0.13647 0.98242 0.0
C640 C 0.20813 0.09708 0.07469 0.0
C641 C 0.17887 0.12092 0.0341 0.0
C642 C 0.20049 0.08392 0.09888 0.0
C643 C 0.15718 0.08356 0.10966 0.0
C644 C 0.17205 0.1096 0.0609 0.0
C645 C 0.12228 0.09751 0.09585 0.0
C646 C 0.14242 0.12649 0.01764 0.0
C647 C 0.23037 0.13182 0.99979 0.0
N648 N 0.13033 0.10965 0.07198 0.0
N649 N 0.22152 0.12403 0.02464 0.0
H650 H 0.35862 0.45071 0.46862 0.0
H651 H 0.35993 0.40314 0.61743 0.0
H652 H 0.33073 0.35616 0.49417 0.0
H653 H 0.40093 0.49345 0.58765 0.0
H654 H 0.3533 0.38371 0.57299 0.0
H655 H 0.37813 0.4651 0.51231 0.0
C656 C 0.35734 0.43271 0.48329 0.0
C657 C 0.34326 0.402 0.47741 0.0
C658 C 0.36414 0.40768 0.57624 0.0
C659 C 0.36447 0.41883 0.52827 0.0
C660 C 0.36814 0.41872 0.60158 0.0
C661 C 0.3803 0.45011 0.60622 0.0
C662 C 0.37251 0.42821 0.55551 0.0
C663 C 0.3905 0.46929 0.58498 0.0
C664 C 0.36816 0.44109 0.50844 0.0
C665 C 0.34098 0.38017 0.49771 0.0
N666 N 0.38605 0.45813 0.56067 0.0
N667 N 0.3512 0.38904 0.52225 0.0
H668 H 0.60937 0.37106 0.06709 0.0
H669 H 0.66202 0.40774 0.91852 0.0
H670 H 0.73757 0.40578 0.03895 0.0
H671 H 0.54671 0.35284 0.94384 0.0
H672 H 0.68516 0.41385 0.96333 0.0
H673 H 0.58099 0.37047 0.02268 0.0
C674 C 0.63131 0.3788 0.05155 0.0
C675 C 0.67589 0.38822 0.05652 0.0
C676 C 0.65473 0.40052 0.95909 0.0
C677 C 0.64388 0.38783 1.00597 0.0
C678 C 0.64133 0.3972 0.93351 0.0
C679 C 0.60247 0.3796 0.92737 0.0
C680 C 0.62903 0.38628 0.97876 0.0
C681 C 0.57727 0.3662 0.94765 0.0
C682 C 0.61526 0.37835 0.02627 0.0
C683 C 0.70313 0.39797 0.0358 0.0
N684 N 0.591 0.36978 0.97242 0.0
N685 N 0.68672 0.39754 1.01145 0.0
H686 H 0.77467 0.13852 0.53748 0.0
H687 H 0.98279 0.17373 0.44342 0.0
H688 H 0.90985 0.15638 0.56463 0.0
H689 H 0.8553 0.13583 0.41735 0.0
H690 H 0.9562 0.16922 0.48791 0.0
H691 H 0.80281 0.13955 0.49322 0.0
C692 C 0.81026 0.14286 0.5341 0.0
C693 C 0.83994 0.14764 0.55475 0.0
C694 C 0.9341 0.16174 0.47248 0.0
C695 C 0.87245 0.14856 0.50415 0.0
C696 C 0.94918 0.16446 0.4471 0.0
C697 C 0.92109 0.15531 0.4267 0.0
C698 C 0.8904 0.15014 0.4775 0.0
C699 C 0.8781 0.14302 0.43253 0.0
C700 C 0.82636 0.14317 0.50885 0.0
C701 C 0.88585 0.15252 0.54928 0.0
N702 N 0.86392 0.14103 0.45739 0.0
N703 N 0.90067 0.15304 0.52449 0.0
H704 H 0.78459 0.88921 0.03053 0.0
H705 H 0.98805 0.95931 0.94566 0.0
H706 H 0.90836 0.92675 0.06204 0.0
H707 H 0.85322 0.94831 0.91572 0.0
H708 H 0.96115 0.94085 0.9874 0.0
H709 H 0.81083 0.90447 0.98724 0.0
C710 C 0.81722 0.90065 0.0283 0.0
C711 C 0.84416 0.90705 0.04988 0.0
C712 C 0.9374 0.94247 0.97171 0.0
C713 C 0.8745 0.92415 1.00066 0.0
C714 C 0.9527 0.95318 0.94784 0.0
C715 C 0.9228 0.9559 0.92711 0.0
C716 C 0.89182 0.93409 0.97503 0.0
C717 C 0.8776 0.94654 0.93105 0.0
C718 C 0.8321 0.9094 1.00368 0.0
C719 C 0.88619 0.92187 0.04599 0.0
N720 N 0.86344 0.93615 0.95457 0.0
N721 N 0.90006 0.92981 0.02191 0.0
H722 H 0.66521 0.66812 0.5414 0.0
H723 H 0.64863 0.53079 0.43715 0.0
H724 H 0.71992 0.57647 0.55368 0.0
H725 H 0.59027 0.62177 0.42756 0.0
H726 H 0.67762 0.5473 0.47912 0.0
H727 H 0.64174 0.65215 0.4985 0.0
C728 C 0.67293 0.64474 0.53495 0.0
C729 C 0.69484 0.62365 0.5512 0.0
C730 C 0.65854 0.56365 0.46778 0.0
C731 C 0.66689 0.60491 0.50209 0.0
C732 C 0.64171 0.55417 0.4439 0.0
C733 C 0.61693 0.5749 0.42876 0.0
C734 C 0.65051 0.59407 0.47662 0.0
C735 C 0.60969 0.60509 0.43834 0.0
C736 C 0.65907 0.63553 0.51049 0.0
C737 C 0.70282 0.59342 0.54191 0.0
N738 N 0.62633 0.61372 0.46162 0.0
N739 N 0.68874 0.58492 0.51799 0.0
H740 H 0.28977 0.59978 0.97984 0.0
H741 H 0.39632 0.66476 0.11124 0.0
H742 H 0.36773 0.68562 0.98532 0.0
H743 H 0.2926 0.59282 0.10902 0.0
H744 H 0.3935 0.66834 0.0643 0.0
H745 H 0.29736 0.59269 0.02651 0.0
C746 C 0.30852 0.61707 0.99086 0.0
C747 C 0.32767 0.64351 0.97875 0.0
C748 C 0.37138 0.65174 0.07408 0.0
C749 C 0.33669 0.63551 0.03198 0.0
C750 C 0.37318 0.64954 0.10086 0.0
C751 C 0.34445 0.62859 0.11409 0.0
C752 C 0.34085 0.63269 0.06034 0.0
C753 C 0.31487 0.60963 0.09962 0.0
C754 C 0.31271 0.61309 0.01746 0.0
C755 C 0.35166 0.66521 0.99394 0.0
N756 N 0.31382 0.61212 0.07354 0.0
N757 N 0.35551 0.66072 0.01971 0.0
H758 H 0.21194 0.93993 0.4732 0.0
H759 H 0.13798 0.87895 0.61302 0.0
H760 H 0.15901 0.84676 0.48738 0.0
H761 H 0.17291 0.97511 0.5956 0.0
H762 H 0.14519 0.86632 0.56728 0.0
H763 H 0.19919 0.95268 0.51835 0.0
C764 C 0.19761 0.92213 0.48579 0.0
C765 C 0.18656 0.89221 0.47639 0.0
C766 C 0.15104 0.89021 0.57347 0.0
C767 C 0.17215 0.90662 0.52832 0.0
C768 C 0.14657 0.8975 0.59956 0.0
C769 C 0.15522 0.92811 0.60823 0.0
C770 C 0.16439 0.91368 0.55593 0.0
C771 C 0.16677 0.95108 0.5899 0.0
C772 C 0.19039 0.92942 0.51161 0.0
C773 C 0.16871 0.86998 0.49379 0.0
N774 N 0.17128 0.94336 0.5647 0.0
N775 N 0.16207 0.87763 0.51889 0.0
H776 H 0.22161 0.26556 0.38114 0.0
H777 H 0.01521 0.20603 0.29397 0.0
H778 H 0.10572 0.32037 0.36266 0.0
H779 H 0.13039 0.14921 0.30964 0.0
H780 H 0.05186 0.2496 0.3163 0.0
H781 H 0.19401 0.22459 0.35156 0.0
C782 C 0.19092 0.26923 0.37044 0.0
C783 C 0.16565 0.29621 0.3745 0.0
C784 C 0.06946 0.22773 0.31473 0.0
C785 C 0.13358 0.2495 0.34108 0.0
C786 C 0.04836 0.20278 0.30209 0.0
C787 C 0.0697 0.17394 0.30006 0.0
C788 C 0.11229 0.22392 0.32564 0.0
C789 C 0.11291 0.17116 0.31065 0.0
C790 C 0.17498 0.24578 0.35375 0.0
C791 C 0.12593 0.29974 0.36033 0.0
N792 N 0.13271 0.19578 0.32315 0.0
N793 N 0.11099 0.27661 0.34449 0.0
H794 H 0.41858 0.20377 0.85301 0.0
H795 H 0.39182 0.38247 0.81064 0.0
H796 H 0.31187 0.26142 0.88155 0.0
H797 H 0.50809 0.32681 0.79433 0.0
H798 H 0.35548 0.33686 0.83126 0.0
H799 H 0.44418 0.24663 0.8253 0.0
C800 C 0.40016 0.22541 0.85314 0.0
C801 C 0.36342 0.22923 0.86979 0.0
C802 C 0.38885 0.33462 0.82307 0.0
C803 C 0.39289 0.27867 0.83833 0.0
C804 C 0.4095 0.36056 0.81122 0.0
C805 C 0.45295 0.35832 0.80075 0.0
C806 C 0.41194 0.3063 0.82444 0.0
C807 C 0.47469 0.3296 0.80234 0.0
C808 C 0.41487 0.24992 0.83739 0.0
C809 C 0.34037 0.25757 0.86897 0.0
N810 N 0.45399 0.30477 0.81397 0.0
N811 N 0.35585 0.28144 0.85372 0.0
H812 H 0.68752 0.21991 0.68937 0.0
H813 H 0.57945 0.39029 0.69059 0.0
H814 H 0.6434 0.26868 0.62164 0.0
H815 H 0.58775 0.33231 0.75836 0.0
H816 H 0.61715 0.34986 0.66583 0.0
H817 H 0.66582 0.2651 0.71571 0.0
C818 C 0.67403 0.24038 0.68007 0.0
C819 C 0.66678 0.24066 0.65343 0.0
C820 C 0.61103 0.34605 0.68616 0.0
C821 C 0.64201 0.29201 0.68313 0.0
C822 C 0.58945 0.36909 0.70028 0.0
C823 C 0.58013 0.3645 0.72649 0.0
C824 C 0.62354 0.31819 0.69832 0.0
C825 C 0.59435 0.33677 0.73817 0.0
C826 C 0.66142 0.26599 0.69505 0.0
C827 C 0.64906 0.26756 0.64219 0.0
N828 N 0.61516 0.31453 0.72396 0.0
N829 N 0.6371 0.29209 0.65709 0.0
H830 H 0.83945 0.3148 0.18547 0.0
H831 H 0.94116 0.14256 0.19035 0.0
H832 H 0.87589 0.26104 0.11872 0.0
H833 H 0.93679 0.20297 0.25669 0.0
H834 H 0.90417 0.18266 0.16505 0.0
H835 H 0.8616 0.27082 0.21307 0.0
C836 C 0.85144 0.29354 0.17668 0.0
C837 C 0.85638 0.29151 0.14989 0.0
C838 C 0.91102 0.18714 0.18518 0.0
C839 C 0.8816 0.24148 0.18104 0.0
C840 C 0.93222 0.16427 0.19961 0.0
C841 C 0.94243 0.1696 0.22557 0.0
C842 C 0.89985 0.21565 0.19674 0.0
C843 C 0.9295 0.19797 0.2367 0.0
C844 C 0.86429 0.26861 0.19237 0.0
C845 C 0.87214 0.2636 0.13934 0.0
N846 N 0.90909 0.22008 0.22217 0.0
N847 N 0.88434 0.23977 0.15492 0.0
H848 H 0.74354 0.79288 0.67425 0.0
H849 H 0.99009 0.82748 0.72908 0.0
H850 H 0.85661 0.7406 0.64657 0.0
H851 H 0.88566 0.89567 0.72163 0.0
H852 H 0.94126 0.78916 0.70646 0.0
H853 H 0.7941 0.82297 0.70203 0.0
C854 C 0.77905 0.78746 0.67435 0.0
C855 C 0.79614 0.76465 0.65784 0.0
C856 C 0.92921 0.8125 0.71003 0.0
C857 C 0.85432 0.79927 0.68931 0.0
C858 C 0.95698 0.83435 0.72276 0.0
C859 C 0.9414 0.86457 0.72776 0.0
C860 C 0.88565 0.82104 0.70266 0.0
C861 C 0.89847 0.87237 0.71903 0.0
C862 C 0.80789 0.80472 0.69008 0.0
C863 C 0.84229 0.75815 0.65899 0.0
N864 N 0.87203 0.85072 0.70717 0.0
N865 N 0.87011 0.77574 0.67426 0.0
H866 H 0.69634 0.73586 0.11329 0.0
H867 H 0.58359 0.70375 0.25113 0.0
H868 H 0.73132 0.79055 0.18014 0.0
H869 H 0.57937 0.63923 0.18747 0.0
H870 H 0.6283 0.74046 0.22469 0.0
H871 H 0.64164 0.70614 0.13901 0.0
C872 C 0.69198 0.74184 0.13339 0.0
C873 C 0.71869 0.76539 0.14471 0.0
C874 C 0.61746 0.71829 0.21654 0.0
C875 C 0.65651 0.73113 0.17447 0.0
C876 C 0.59239 0.6972 0.2317 0.0
C877 C 0.57875 0.66803 0.22176 0.0
C878 C 0.62808 0.71038 0.19105 0.0
C879 C 0.58938 0.66132 0.19606 0.0
C880 C 0.66092 0.72478 0.1481 0.0
C881 C 0.71135 0.77251 0.17074 0.0
N882 N 0.61346 0.68226 0.18167 0.0
N883 N 0.68125 0.75514 0.18489 0.0
H884 H 0.33268 0.74512 0.40484 0.0
H885 H 0.41724 0.69296 0.26545 0.0
H886 H 0.27553 0.78024 0.3347 0.0
H887 H 0.47038 0.65858 0.33718 0.0
H888 H 0.37157 0.72996 0.28969 0.0
H889 H 0.3908 0.71918 0.37977 0.0
C890 C 0.33311 0.74783 0.3841 0.0
C891 C 0.29955 0.76473 0.37172 0.0
C892 C 0.39354 0.71447 0.30006 0.0
C893 C 0.365 0.7344 0.34274 0.0
C894 C 0.41957 0.69326 0.28624 0.0
C895 C 0.4473 0.67221 0.29926 0.0
C896 C 0.39538 0.71471 0.32707 0.0
C897 C 0.44926 0.67403 0.32622 0.0
C898 C 0.36606 0.7329 0.36976 0.0
C899 C 0.30115 0.76748 0.34486 0.0
N900 N 0.42347 0.69467 0.33916 0.0
N901 N 0.33304 0.75207 0.33116 0.0
H902 H 0.22486 0.73973 0.84272 0.0
H903 H 0.06739 0.88964 0.84252 0.0
H904 H 0.21844 0.80747 0.9039 0.0
H905 H 0.07616 0.82661 0.77803 0.0
H906 H 0.11483 0.8551 0.86739 0.0
H907 H 0.16293 0.76639 0.82086 0.0
C908 C 0.20984 0.75987 0.85172 0.0
C909 C 0.22701 0.77174 0.87492 0.0
C910 C 0.10623 0.8486 0.84786 0.0
C911 C 0.15673 0.8023 0.85019 0.0
C912 C 0.07893 0.8683 0.83367 0.0
C913 C 0.06835 0.8612 0.80804 0.0
C914 C 0.12332 0.82153 0.8364 0.0
C915 C 0.08418 0.83316 0.79762 0.0
C916 C 0.17476 0.77517 0.83922 0.0
C917 C 0.20659 0.79791 0.88581 0.0
N918 N 0.11134 0.81448 0.81175 0.0
N919 N 0.17283 0.8124 0.87328 0.0
loop_
_geom_bond_atom_site_label_1
_geom_bond_atom_site_label_2
_geom_bond_distance
_geom_bond_site_symmetry_2
_ccdc_geom_bond_type
H0 C1 0.949 . S
C1 H0 0.949 . S
C1 C2 1.395 . S
C1 C3 1.391 . S
C2 C1 1.395 . S
C2 C5 1.390 . S
C3 C1 1.391 . S
C3 C7 1.387 . S
C3 C8 1.491 . S
H4 C5 0.950 . S
C5 C2 1.390 . S
C5 H4 0.950 . S
C5 C6 1.378 . S
C6 C5 1.378 . S
C6 C7 1.409 . S
C7 C3 1.387 . S
C7 C6 1.409 . S
C7 H9 0.951 . S
C8 C3 1.491 . S
C8 C10 1.382 . S
C8 C12 1.404 . S
H9 C7 0.951 . S
C10 C8 1.382 . S
C10 C11 1.390 . S
C10 H15 0.949 . S
C11 C10 1.390 . S
C11 C16 1.399 . S
C12 C8 1.404 . S
C12 H13 0.950 . S
C12 C14 1.375 . S
H13 C12 0.950 . S
C14 C12 1.375 . S
C14 C16 1.382 . S
C14 H18 0.950 . S
H15 C10 0.949 . S
C16 C11 1.399 . S
C16 C14 1.382 . S
C16 H17 0.952 . S
H17 C16 0.952 . S
H18 C14 0.950 . S
H19 C20 0.949 . S
C20 H19 0.949 . S
C20 C21 1.395 . S
C20 C22 1.391 . S
C21 C20 1.395 . S
C21 C24 1.390 . S
C22 C20 1.391 . S
C22 C26 1.387 . S
C22 C27 1.491 . S
H23 C24 0.950 . S
C24 C21 1.390 . S
C24 H23 0.950 . S
C24 C25 1.378 . S
C25 C24 1.378 . S
C25 C26 1.409 . S
C26 C22 1.387 . S
C26 C25 1.409 . S
C26 H28 0.951 . S
C27 C22 1.491 . S
C27 C29 1.382 . S
C27 C31 1.404 . S
H28 C26 0.951 . S
C29 C27 1.382 . S
C29 C30 1.390 . S
C29 H34 0.949 . S
C30 C29 1.390 . S
C30 C35 1.399 . S
C31 C27 1.404 . S
C31 H32 0.950 . S
C31 C33 1.375 . S
H32 C31 0.950 . S
C33 C31 1.375 . S
C33 C35 1.382 . S
C33 H37 0.950 . S
H34 C29 0.949 . S
C35 C30 1.399 . S
C35 C33 1.382 . S
C35 H36 0.952 . S
H36 C35 0.952 . S
H37 C33 0.950 . S
H38 C39 0.949 . S
C39 H38 0.949 . S
C39 C40 1.395 . S
C39 C41 1.391 . S
C40 C39 1.395 . S
C40 C43 1.390 . S
C41 C39 1.391 . S
C41 C45 1.387 . S
C41 C46 1.491 . S
H42 C43 0.950 . S
C43 C40 1.390 . S
C43 H42 0.950 . S
C43 C44 1.378 . S
C44 C43 1.378 . S
C44 C45 1.409 . S
C45 C41 1.387 . S
C45 C44 1.409 . S
C45 H47 0.951 . S
C46 C41 1.491 . S
C46 C48 1.382 . S
C46 C50 1.404 . S
H47 C45 0.951 . S
C48 C46 1.382 . S
C48 C49 1.390 . S
C48 H53 0.949 . S
C49 C48 1.390 . S
C49 C54 1.399 . S
C50 C46 1.404 . S
C50 H51 0.950 . S
C50 C52 1.375 . S
H51 C50 0.950 . S
C52 C50 1.375 . S
C52 C54 1.382 . S
C52 H56 0.950 . S
H53 C48 0.949 . S
C54 C49 1.399 . S
C54 C52 1.382 . S
C54 H55 0.952 . S
H55 C54 0.952 . S
H56 C52 0.950 . S
H57 C58 0.949 . S
C58 H57 0.949 . S
C58 C59 1.395 . S
C58 C60 1.391 . S
C59 C58 1.395 . S
C59 C62 1.390 . S
C60 C58 1.391 . S
C60 C64 1.387 . S
C60 C65 1.491 . S
H61 C62 0.950 . S
C62 C59 1.390 . S
C62 H61 0.950 . S
C62 C63 1.378 . S
C63 C62 1.378 . S
C63 C64 1.409 . S
C64 C60 1.387 . S
C64 C63 1.409 . S
C64 H66 0.951 . S
C65 C60 1.491 . S
C65 C67 1.382 . S
C65 C69 1.404 . S
H66 C64 0.951 . S
C67 C65 1.382 . S
C67 C68 1.390 . S
C67 H72 0.949 . S
C68 C67 1.390 . S
C68 C73 1.399 . S
C69 C65 1.404 . S
C69 H70 0.950 . S
C69 C71 1.375 . S
H70 C69 0.950 . S
C71 C69 1.375 . S
C71 C73 1.382 . S
C71 H75 0.950 . S
H72 C67 0.949 . S
C73 C68 1.399 . S
C73 C71 1.382 . S
C73 H74 0.952 . S
H74 C73 0.952 . S
H75 C71 0.950 . S
H76 C77 0.949 . S
C77 H76 0.949 . S
C77 C78 1.395 . S
C77 C79 1.391 . S
C78 C77 1.395 . S
C78 C81 1.390 . S
C79 C77 1.391 . S
C79 C83 1.387 . S
C79 C84 1.491 . S
H80 C81 0.950 . S
C81 C78 1.390 . S
C81 H80 0.950 . S
C81 C82 1.378 . S
C82 C81 1.378 . S
C82 C83 1.409 . S
C83 C79 1.387 . S
C83 C82 1.409 . S
C83 H85 0.951 . S
C84 C79 1.491 . S
C84 C86 1.382 . S
C84 C88 1.404 . S
H85 C83 0.951 . S
C86 C84 1.382 . S
C86 C87 1.390 . S
C86 H91 0.949 . S
C87 C86 1.390 . S
C87 C92 1.399 . S
C88 C84 1.404 . S
C88 H89 0.950 . S
C88 C90 1.375 . S
H89 C88 0.950 . S
C90 C88 1.375 . S
C90 C92 1.382 . S
C90 H94 0.950 . S
H91 C86 0.949 . S
C92 C87 1.399 . S
C92 C90 1.382 . S
C92 H93 0.952 . S
H93 C92 0.952 . S
H94 C90 0.950 . S
H95 C96 0.949 . S
C96 H95 0.949 . S
C96 C97 1.395 . S
C96 C98 1.391 . S
C97 C96 1.395 . S
C97 C100 1.390 . S
C98 C96 1.391 . S
C98 C102 1.387 . S
C98 C103 1.491 . S
H99 C100 0.950 . S
C100 C97 1.390 . S
C100 H99 0.950 . S
C100 C101 1.378 . S
C101 C100 1.378 . S
C101 C102 1.409 . S
C102 C98 1.387 . S
C102 C101 1.409 . S
C102 H104 0.951 . S
C103 C98 1.491 . S
C103 C105 1.382 . S
C103 C107 1.404 . S
H104 C102 0.951 . S
C105 C103 1.382 . S
C105 C106 1.390 . S
C105 H110 0.949 . S
C106 C105 1.390 . S
C106 C111 1.399 . S
C107 C103 1.404 . S
C107 H108 0.950 . S
C107 C109 1.375 . S
H108 C107 0.950 . S
C109 C107 1.375 . S
C109 C111 1.382 . S
C109 H113 0.950 . S
H110 C105 0.949 . S
C111 C106 1.399 . S
C111 C109 1.382 . S
C111 H112 0.952 . S
H112 C111 0.952 . S
H113 C109 0.950 . S
H114 C115 0.949 . S
C115 H114 0.949 . S
C115 C116 1.395 . S
C115 C117 1.391 . S
C116 C115 1.395 . S
C116 C119 1.390 . S
C117 C115 1.391 . S
C117 C121 1.387 . S
C117 C122 1.491 . S
H118 C119 0.950 . S
C119 C116 1.390 . S
C119 H118 0.950 . S
C119 C120 1.378 . S
C120 C119 1.378 . S
C120 C121 1.409 . S
C121 C117 1.387 . S
C121 C120 1.409 . S
C121 H123 0.951 . S
C122 C117 1.491 . S
C122 C124 1.382 . S
C122 C126 1.404 . S
H123 C121 0.951 . S
C124 C122 1.382 . S
C124 C125 1.390 . S
C124 H129 0.949 . S
C125 C124 1.390 . S
C125 C130 1.399 . S
C126 C122 1.404 . S
C126 H127 0.950 . S
C126 C128 1.375 . S
H127 C126 0.950 . S
C128 C126 1.375 . S
C128 C130 1.382 . S
C128 H132 0.950 . S
H129 C124 0.949 . S
C130 C125 1.399 . S
C130 C128 1.382 . S
C130 H131 0.952 . S
H131 C130 0.952 . S
H132 C128 0.950 . S
H133 C134 0.949 . S
C134 H133 0.949 . S
C134 C135 1.395 . S
C134 C136 1.391 . S
C135 C134 1.395 . S
C135 C138 1.390 . S
C136 C134 1.391 . S
C136 C140 1.387 . S
C136 C141 1.491 . S
H137 C138 0.950 . S
C138 C135 1.390 . S
C138 H137 0.950 . S
C138 C139 1.378 . S
C139 C138 1.378 . S
C139 C140 1.409 . S
C140 C136 1.387 . S
C140 C139 1.409 . S
C140 H142 0.951 . S
C141 C136 1.491 . S
C141 C143 1.382 . S
C141 C145 1.404 . S
H142 C140 0.951 . S
C143 C141 1.382 . S
C143 C144 1.390 . S
C143 H148 0.949 . S
C144 C143 1.390 . S
C144 C149 1.399 . S
C145 C141 1.404 . S
C145 H146 0.950 . S
C145 C147 1.375 . S
H146 C145 0.950 . S
C147 C145 1.375 . S
C147 C149 1.382 . S
C147 H151 0.950 . S
H148 C143 0.949 . S
C149 C144 1.399 . S
C149 C147 1.382 . S
C149 H150 0.952 . S
H150 C149 0.952 . S
H151 C147 0.950 . S
Tb152 N181 2.617 . S
Tb152 N187 2.572 . S
Tb152 O196 2.465 . S
Tb152 O197 2.387 . S
Tb152 O199 2.428 . S
Tb152 O200 2.308 1_455 S
Tb152 O204 2.336 1_455 S
Tb152 O207 2.393 . S
Tb152 C216 2.802 . S
C153 N154 1.379 . S
C153 C156 1.416 . S
C153 C160 1.424 . S
N154 C153 1.379 . S
N154 C157 1.334 . S
N154 Tb163 2.617 . S
C155 C157 1.390 . S
C155 C158 1.339 . S
C155 H175 0.930 . S
C156 C153 1.416 . S
C156 C158 1.416 . S
C156 C162 1.448 . S
C157 N154 1.334 . S
C157 C155 1.390 . S
C157 H168 0.930 . S
C158 C155 1.339 . S
C158 C156 1.416 . S
C158 H179 0.930 . S
C159 C160 1.413 . S
C159 C161 1.427 . S
C159 C165 1.416 1_545 S
C160 C153 1.424 . S
C160 C159 1.413 . S
C160 N164 1.361 . S
C161 C159 1.427 . S
C161 C162 1.328 . S
C161 H176 0.929 1_545 S
C162 C156 1.448 . S
C162 C161 1.328 . S
C162 H177 0.930 . S
Tb163 N154 2.617 . S
Tb163 N164 2.572 . S
Tb163 O198 2.349 1_655 S
Tb163 O201 2.393 . S
Tb163 O202 2.465 . S
Tb163 O203 2.387 . S
Tb163 O205 2.428 . S
Tb163 O206 2.308 1_655 S
Tb163 C227 2.802 . S
N164 C160 1.361 . S
N164 Tb163 2.572 . S
N164 C166 1.340 . S
C165 C159 1.416 1_565 S
C165 C167 1.332 . S
C165 H173 0.931 . S
C166 N164 1.340 . S
C166 C167 1.407 1_545 S
C166 H172 0.930 . S
C167 C165 1.332 . S
C167 C166 1.407 1_565 S
C167 H169 0.929 . S
H168 C157 0.930 . S
H169 C167 0.929 . S
H170 C185 0.930 . S
H171 C192 0.929 . S
H172 C166 0.930 . S
H173 C165 0.931 . S
H174 C188 0.930 . S
H175 C155 0.930 . S
H176 C161 0.929 1_565 S
H177 C162 0.930 . S
H178 C183 0.930 . S
H179 C158 0.930 . S
H180 C191 0.931 . S
N181 Tb152 2.617 . S
N181 C182 1.379 . S
N181 C185 1.334 . S
C182 N181 1.379 . S
C182 C184 1.416 . S
C182 C190 1.424 . S
C183 H178 0.930 . S
C183 C185 1.390 . S
C183 C186 1.339 . S
C184 C182 1.416 . S
C184 C186 1.416 . S
C184 C217 1.448 . S
C185 H170 0.930 . S
C185 N181 1.334 . S
C185 C183 1.390 . S
C186 C183 1.339 . S
C186 C184 1.416 . S
C186 H193 0.930 . S
N187 Tb152 2.572 . S
N187 C188 1.340 . S
N187 C190 1.361 . S
C188 H174 0.930 . S
C188 N187 1.340 . S
C188 C192 1.407 . S
C189 C190 1.413 . S
C189 C191 1.416 . S
C189 C218 1.427 . S
C190 C182 1.424 . S
C190 N187 1.361 . S
C190 C189 1.413 . S
C191 H180 0.931 . S
C191 C189 1.416 . S
C191 C192 1.332 . S
C192 H171 0.929 . S
C192 C188 1.407 . S
C192 C191 1.332 . S
H193 C186 0.930 . S
H194 C217 0.930 . S
H195 C218 0.929 . S
O196 Tb152 2.465 . S
O196 C216 1.264 . S
O197 Tb152 2.387 . S
O197 C208 1.264 . S
O198 Tb163 2.349 1_455 S
O198 C208 1.243 . S
O199 Tb152 2.428 . S
O199 C216 1.256 . S
O200 Tb152 2.308 1_655 S
O200 C215 1.266 . S
O201 Tb163 2.393 . S
O201 C215 1.248 . S
O202 Tb163 2.465 . S
O202 C227 1.264 . S
O203 Tb163 2.387 . S
O203 C219 1.264 . S
O204 Tb152 2.336 1_655 S
O204 C219 1.260 . S
O205 Tb163 2.428 . S
O205 C227 1.256 . S
O206 Tb163 2.308 1_455 S
O206 C226 1.266 . S
O207 Tb152 2.393 . S
O207 C226 1.248 . S
C208 O197 1.264 . S
C208 O198 1.243 . S
C209 C212 1.399 . S
C209 C214 1.383 . S
C209 C216 1.496 . S
C210 C211 1.399 . S
C210 C214 1.389 . S
C211 C210 1.399 . S
C211 C213 1.380 . S
C211 H228 0.929 . S
C212 C209 1.399 . S
C212 C213 1.392 . S
C212 H229 0.929 . S
C213 C211 1.380 . S
C213 C212 1.392 . S
C213 H230 0.929 . S
C214 C209 1.383 . S
C214 C210 1.389 . S
C214 H231 0.931 . S
C215 O200 1.266 . S
C215 O201 1.248 . S
C216 Tb152 2.802 . S
C216 O196 1.264 . S
C216 O199 1.256 . S
C216 C209 1.496 . S
C217 C184 1.448 . S
C217 H194 0.930 . S
C217 C218 1.328 . S
C218 C189 1.427 . S
C218 H195 0.929 . S
C218 C217 1.328 . S
C219 O203 1.264 . S
C219 O204 1.260 . S
C220 C223 1.399 . S
C220 C224 1.383 . S
C220 C227 1.496 . S
C221 C222 1.399 . S
C221 C224 1.389 . S
C222 C221 1.399 . S
C222 C225 1.380 . S
C222 H232 0.929 . S
C223 C220 1.399 . S
C223 C225 1.392 . S
C223 H233 0.929 . S
C224 C220 1.383 . S
C224 C221 1.389 . S
C224 H234 0.931 . S
C225 C222 1.380 . S
C225 C223 1.392 . S
C225 H235 0.929 . S
C226 O206 1.266 . S
C226 O207 1.248 . S
C227 Tb163 2.802 . S
C227 O202 1.264 . S
C227 O205 1.256 . S
C227 C220 1.496 . S
H228 C211 0.929 . S
H229 C212 0.929 . S
H230 C213 0.929 . S
H231 C214 0.931 . S
H232 C222 0.929 . S
H233 C223 0.929 . S
H234 C224 0.931 . S
H235 C225 0.929 . S
Tb236 N265 2.617 . S
Tb236 N271 2.572 . S
Tb236 O280 2.465 . S
Tb236 O281 2.387 . S
Tb236 O283 2.428 . S
Tb236 O284 2.308 . S
Tb236 O288 2.349 . S
Tb236 O291 2.393 . S
Tb236 C300 2.802 . S
C237 N238 1.379 . S
C237 C240 1.416 . S
C237 C244 1.424 . S
N238 C237 1.379 . S
N238 C241 1.334 . S
N238 Tb247 2.617 . S
C239 C241 1.390 . S
C239 C242 1.339 . S
C239 H259 0.930 . S
C240 C237 1.416 . S
C240 C242 1.416 . S
C240 C246 1.448 . S
C241 N238 1.334 . S
C241 C239 1.390 . S
C241 H252 0.930 . S
C242 C239 1.339 . S
C242 C240 1.416 . S
C242 H263 0.930 . S
C243 C244 1.413 . S
C243 C245 1.427 . S
C243 C249 1.416 . S
C244 C237 1.424 . S
C244 C243 1.413 . S
C244 N248 1.361 . S
C245 C243 1.427 . S
C245 C246 1.328 . S
C245 H260 0.929 . S
C246 C240 1.448 . S
C246 C245 1.328 . S
C246 H261 0.930 . S
Tb247 N238 2.617 . S
Tb247 N248 2.572 . S
Tb247 O282 2.349 . S
Tb247 O285 2.393 . S
Tb247 O286 2.465 . S
Tb247 O287 2.387 . S
Tb247 O289 2.428 . S
Tb247 O290 2.308 . S
Tb247 C311 2.802 . S
N248 C244 1.361 . S
N248 Tb247 2.572 . S
N248 C250 1.340 . S
C249 C243 1.416 . S
C249 C251 1.332 . S
C249 H257 0.931 . S
C250 N248 1.340 . S
C250 C251 1.407 . S
C250 H256 0.930 . S
C251 C249 1.332 . S
C251 C250 1.407 . S
C251 H253 0.929 . S
H252 C241 0.930 . S
H253 C251 0.929 . S
H254 C269 0.930 . S
H255 C276 0.929 . S
H256 C250 0.930 . S
H257 C249 0.931 . S
H258 C272 0.930 . S
H259 C239 0.930 . S
H260 C245 0.929 . S
H261 C246 0.930 . S
H262 C267 0.930 . S
H263 C242 0.930 . S
H264 C275 0.931 . S
N265 Tb236 2.617 . S
N265 C266 1.379 . S
N265 C269 1.334 . S
C266 N265 1.379 . S
C266 C268 1.416 . S
C266 C274 1.424 . S
C267 H262 0.930 . S
C267 C269 1.390 . S
C267 C270 1.339 . S
C268 C266 1.416 . S
C268 C270 1.416 . S
C268 C301 1.448 . S
C269 H254 0.930 . S
C269 N265 1.334 . S
C269 C267 1.390 . S
C270 C267 1.339 . S
C270 C268 1.416 . S
C270 H277 0.930 . S
N271 Tb236 2.572 . S
N271 C272 1.340 . S
N271 C274 1.361 . S
C272 H258 0.930 . S
C272 N271 1.340 . S
C272 C276 1.407 . S
C273 C274 1.413 . S
C273 C275 1.416 . S
C273 C302 1.427 . S
C274 C266 1.424 . S
C274 N271 1.361 . S
C274 C273 1.413 . S
C275 H264 0.931 . S
C275 C273 1.416 . S
C275 C276 1.332 . S
C276 H255 0.929 . S
C276 C272 1.407 . S
C276 C275 1.332 . S
H277 C270 0.930 . S
H278 C301 0.930 . S
H279 C302 0.929 . S
O280 Tb236 2.465 . S
O280 C300 1.264 . S
O281 Tb236 2.387 . S
O281 C292 1.264 . S
O282 Tb247 2.349 . S
O282 C292 1.243 . S
O283 Tb236 2.428 . S
O283 C300 1.256 . S
O284 Tb236 2.308 . S
O284 C299 1.266 . S
O285 Tb247 2.393 . S
O285 C299 1.248 . S
O286 Tb247 2.465 . S
O286 C311 1.264 . S
O287 Tb247 2.387 . S
O287 C303 1.264 . S
O288 Tb236 2.349 . S
O288 C303 1.243 . S
O289 Tb247 2.428 . S
O289 C311 1.256 . S
O290 Tb247 2.308 . S
O290 C310 1.266 . S
O291 Tb236 2.393 . S
O291 C310 1.248 . S
C292 O281 1.264 . S
C292 O282 1.243 . S
C293 C296 1.399 . S
C293 C298 1.383 . S
C293 C300 1.496 . S
C294 C295 1.399 . S
C294 C298 1.389 . S
C295 C294 1.399 . S
C295 C297 1.380 . S
C295 H312 0.929 . S
C296 C293 1.399 . S
C296 C297 1.392 . S
C296 H313 0.929 . S
C297 C295 1.380 . S
C297 C296 1.392 . S
C297 H314 0.929 . S
C298 C293 1.383 . S
C298 C294 1.389 . S
C298 H315 0.931 . S
C299 O284 1.266 . S
C299 O285 1.248 . S
C300 Tb236 2.802 . S
C300 O280 1.264 . S
C300 O283 1.256 . S
C300 C293 1.496 . S
C301 C268 1.448 . S
C301 H278 0.930 . S
C301 C302 1.328 . S
C302 C273 1.427 . S
C302 H279 0.929 . S
C302 C301 1.328 . S
C303 O287 1.264 . S
C303 O288 1.243 . S
C304 C307 1.399 . S
C304 C308 1.383 . S
C304 C311 1.496 . S
C305 C306 1.399 . S
C305 C308 1.389 . S
C306 C305 1.399 . S
C306 C309 1.380 . S
C306 H316 0.929 . S
C307 C304 1.399 . S
C307 C309 1.392 . S
C307 H317 0.929 . S
C308 C304 1.383 . S
C308 C305 1.389 . S
C308 H318 0.931 . S
C309 C306 1.380 . S
C309 C307 1.392 . S
C309 H319 0.929 . S
C310 O290 1.266 . S
C310 O291 1.248 . S
C311 Tb247 2.802 . S
C311 O286 1.264 . S
C311 O289 1.256 . S
C311 C304 1.496 . S
H312 C295 0.929 . S
H313 C296 0.929 . S
H314 C297 0.929 . S
H315 C298 0.931 . S
H316 C306 0.929 . S
H317 C307 0.929 . S
H318 C308 0.931 . S
H319 C309 0.929 . S
Tb320 N349 2.617 . S
Tb320 N355 2.572 . S
Tb320 O364 2.465 . S
Tb320 O365 2.387 . S
Tb320 O367 2.428 . S
Tb320 O368 2.324 . S
Tb320 O372 2.349 . S
Tb320 O375 2.393 . S
Tb320 C384 2.802 . S
C321 N322 1.379 . S
C321 C324 1.416 . S
C321 C328 1.424 . S
N322 C321 1.379 . S
N322 C325 1.334 . S
N322 Tb331 2.617 . S
C323 C325 1.390 . S
C323 C326 1.339 . S
C323 H343 0.930 . S
C324 C321 1.416 . S
C324 C326 1.416 . S
C324 C330 1.448 . S
C325 N322 1.334 . S
C325 C323 1.390 . S
C325 H336 0.930 . S
C326 C323 1.339 . S
C326 C324 1.416 . S
C326 H347 0.930 . S
C327 C328 1.413 . S
C327 C329 1.427 . S
C327 C333 1.416 . S
C328 C321 1.424 . S
C328 C327 1.413 . S
C328 N332 1.361 . S
C329 C327 1.427 . S
C329 C330 1.328 . S
C329 H344 0.929 . S
C330 C324 1.448 . S
C330 C329 1.328 . S
C330 H345 0.930 . S
Tb331 N322 2.617 . S
Tb331 N332 2.572 . S
Tb331 O366 2.349 1_655 S
Tb331 O369 2.393 . S
Tb331 O370 2.465 . S
Tb331 O371 2.387 . S
Tb331 O373 2.428 . S
Tb331 O374 2.308 1_655 S
Tb331 C395 2.802 . S
N332 C328 1.361 . S
N332 Tb331 2.572 . S
N332 C334 1.340 . S
C333 C327 1.416 . S
C333 C335 1.332 . S
C333 H341 0.931 . S
C334 N332 1.340 . S
C334 C335 1.407 . S
C334 H340 0.930 . S
C335 C333 1.332 . S
C335 C334 1.407 . S
C335 H337 0.929 . S
H336 C325 0.930 . S
H337 C335 0.929 . S
H338 C353 0.930 . S
H339 C360 0.929 . S
H340 C334 0.930 . S
H341 C333 0.931 . S
H342 C356 0.930 . S
H343 C323 0.930 . S
H344 C329 0.929 . S
H345 C330 0.930 . S
H346 C351 0.930 . S
H347 C326 0.930 . S
H348 C359 0.931 . S
N349 Tb320 2.617 . S
N349 C350 1.379 . S
N349 C353 1.334 . S
C350 N349 1.379 . S
C350 C352 1.416 . S
C350 C358 1.424 . S
C351 H346 0.930 . S
C351 C353 1.390 . S
C351 C354 1.339 . S
C352 C350 1.416 . S
C352 C354 1.416 . S
C352 C385 1.448 . S
C353 H338 0.930 . S
C353 N349 1.334 . S
C353 C351 1.390 . S
C354 C351 1.339 . S
C354 C352 1.416 . S
C354 H361 0.930 . S
N355 Tb320 2.572 . S
N355 C356 1.340 . S
N355 C358 1.361 . S
C356 H342 0.930 . S
C356 N355 1.340 . S
C356 C360 1.407 1_565 S
C357 C358 1.413 . S
C357 C359 1.416 1_565 S
C357 C386 1.427 . S
C358 C350 1.424 . S
C358 N355 1.361 . S
C358 C357 1.413 . S
C359 H348 0.931 . S
C359 C357 1.416 1_545 S
C359 C360 1.332 . S
C360 H339 0.929 . S
C360 C356 1.407 1_545 S
C360 C359 1.332 . S
H361 C354 0.930 . S
H362 C385 0.930 . S
H363 C386 0.929 1_545 S
O364 Tb320 2.465 . S
O364 C384 1.264 . S
O365 Tb320 2.387 . S
O365 C376 1.264 . S
O366 Tb331 2.349 1_455 S
O366 C376 1.243 . S
O367 Tb320 2.428 . S
O367 C384 1.256 . S
O368 Tb320 2.324 . S
O368 C383 1.247 1_455 S
O369 Tb331 2.393 . S
O369 C383 1.248 . S
O370 Tb331 2.465 . S
O370 C395 1.264 . S
O371 Tb331 2.387 . S
O371 C387 1.264 . S
O372 Tb320 2.349 . S
O372 C387 1.243 1_455 S
O373 Tb331 2.428 . S
O373 C395 1.256 . S
O374 Tb331 2.308 1_455 S
O374 C394 1.266 . S
O375 Tb320 2.393 . S
O375 C394 1.248 . S
C376 O365 1.264 . S
C376 O366 1.243 . S
C377 C380 1.399 . S
C377 C382 1.383 . S
C377 C384 1.496 . S
C378 C379 1.399 . S
C378 C382 1.389 . S
C379 C378 1.399 . S
C379 C381 1.380 . S
C379 H396 0.929 . S
C380 C377 1.399 . S
C380 C381 1.392 . S
C380 H397 0.929 . S
C381 C379 1.380 . S
C381 C380 1.392 . S
C381 H398 0.929 . S
C382 C377 1.383 . S
C382 C378 1.389 . S
C382 H399 0.931 . S
C383 O368 1.247 1_655 S
C383 O369 1.248 . S
C384 Tb320 2.802 . S
C384 O364 1.264 . S
C384 O367 1.256 . S
C384 C377 1.496 . S
C385 C352 1.448 . S
C385 H362 0.930 . S
C385 C386 1.328 . S
C386 C357 1.427 . S
C386 H363 0.929 1_565 S
C386 C385 1.328 . S
C387 O371 1.264 . S
C387 O372 1.243 1_655 S
C388 C391 1.399 . S
C388 C392 1.383 . S
C388 C395 1.496 . S
C389 C390 1.399 . S
C389 C392 1.389 . S
C390 C389 1.399 . S
C390 C393 1.380 . S
C390 H400 0.929 . S
C391 C388 1.399 . S
C391 C393 1.392 . S
C391 H401 0.929 . S
C392 C388 1.383 . S
C392 C389 1.389 . S
C392 H402 0.931 . S
C393 C390 1.380 . S
C393 C391 1.392 . S
C393 H403 0.929 . S
C394 O374 1.266 . S
C394 O375 1.248 . S
C395 Tb331 2.802 . S
C395 O370 1.264 . S
C395 O373 1.256 . S
C395 C388 1.496 . S
H396 C379 0.929 . S
H397 C380 0.929 . S
H398 C381 0.929 . S
H399 C382 0.931 . S
H400 C390 0.929 . S
H401 C391 0.929 . S
H402 C392 0.931 . S
H403 C393 0.929 . S
Tb404 N433 2.617 . S
Tb404 N439 2.572 . S
Tb404 O448 2.465 . S
Tb404 O449 2.387 . S
Tb404 O451 2.428 . S
Tb404 O452 2.308 . S
Tb404 O456 2.349 . S
Tb404 O459 2.393 . S
Tb404 C468 2.802 . S
C405 N406 1.379 . S
C405 C408 1.416 . S
C405 C412 1.424 . S
N406 C405 1.379 . S
N406 C409 1.334 . S
N406 Tb415 2.617 . S
C407 C409 1.390 . S
C407 C410 1.339 . S
C407 H427 0.930 . S
C408 C405 1.416 . S
C408 C410 1.416 . S
C408 C414 1.448 . S
C409 N406 1.334 . S
C409 C407 1.390 . S
C409 H420 0.930 . S
C410 C407 1.339 . S
C410 C408 1.416 . S
C410 H431 0.930 . S
C411 C412 1.413 . S
C411 C413 1.427 . S
C411 C417 1.416 . S
C412 C405 1.424 . S
C412 C411 1.413 . S
C412 N416 1.361 . S
C413 C411 1.427 . S
C413 C414 1.328 . S
C413 H428 0.929 . S
C414 C408 1.448 . S
C414 C413 1.328 . S
C414 H429 0.930 . S
Tb415 N406 2.617 . S
Tb415 N416 2.572 . S
Tb415 O450 2.349 . S
Tb415 O453 2.393 . S
Tb415 O454 2.465 . S
Tb415 O455 2.387 . S
Tb415 O457 2.428 . S
Tb415 O458 2.308 . S
Tb415 C479 2.802 . S
N416 C412 1.361 . S
N416 Tb415 2.572 . S
N416 C418 1.340 . S
C417 C411 1.416 . S
C417 C419 1.332 . S
C417 H425 0.931 . S
C418 N416 1.340 . S
C418 C419 1.407 . S
C418 H424 0.930 . S
C419 C417 1.332 . S
C419 C418 1.407 . S
C419 H421 0.929 . S
H420 C409 0.930 . S
H421 C419 0.929 . S
H422 C437 0.930 . S
H423 C444 0.929 . S
H424 C418 0.930 . S
H425 C417 0.931 . S
H426 C440 0.930 . S
H427 C407 0.930 . S
H428 C413 0.929 . S
H429 C414 0.930 . S
H430 C435 0.930 . S
H431 C410 0.930 . S
H432 C443 0.931 . S
N433 Tb404 2.617 . S
N433 C434 1.379 . S
N433 C437 1.334 . S
C434 N433 1.379 . S
C434 C436 1.416 . S
C434 C442 1.424 . S
C435 H430 0.930 . S
C435 C437 1.390 . S
C435 C438 1.339 . S
C436 C434 1.416 . S
C436 C438 1.416 . S
C436 C469 1.448 . S
C437 H422 0.930 . S
C437 N433 1.334 . S
C437 C435 1.390 . S
C438 C435 1.339 . S
C438 C436 1.416 . S
C438 H445 0.930 . S
N439 Tb404 2.572 . S
N439 C440 1.340 . S
N439 C442 1.361 . S
C440 H426 0.930 . S
C440 N439 1.340 . S
C440 C444 1.407 . S
C441 C442 1.413 . S
C441 C443 1.416 . S
C441 C470 1.427 . S
C442 C434 1.424 . S
C442 N439 1.361 . S
C442 C441 1.413 . S
C443 H432 0.931 . S
C443 C441 1.416 . S
C443 C444 1.332 . S
C444 H423 0.929 . S
C444 C440 1.407 . S
C444 C443 1.332 . S
H445 C438 0.930 . S
H446 C469 0.930 . S
H447 C470 0.929 . S
O448 Tb404 2.465 . S
O448 C468 1.264 . S
O449 Tb404 2.387 . S
O449 C460 1.264 . S
O450 Tb415 2.349 . S
O450 C460 1.243 . S
O451 Tb404 2.428 . S
O451 C468 1.256 . S
O452 Tb404 2.308 . S
O452 C467 1.266 . S
O453 Tb415 2.393 . S
O453 C467 1.248 . S
O454 Tb415 2.465 . S
O454 C479 1.264 . S
O455 Tb415 2.387 . S
O455 C471 1.264 . S
O456 Tb404 2.349 . S
O456 C471 1.243 . S
O457 Tb415 2.428 . S
O457 C479 1.256 . S
O458 Tb415 2.308 . S
O458 C478 1.266 . S
O459 Tb404 2.393 . S
O459 C478 1.248 . S
C460 O449 1.264 . S
C460 O450 1.243 . S
C461 C464 1.399 . S
C461 C466 1.383 . S
C461 C468 1.496 . S
C462 C463 1.399 . S
C462 C466 1.389 . S
C463 C462 1.399 . S
C463 C465 1.380 . S
C463 H480 0.929 . S
C464 C461 1.399 . S
C464 C465 1.392 . S
C464 H481 0.929 . S
C465 C463 1.380 . S
C465 C464 1.392 . S
C465 H482 0.929 . S
C466 C461 1.383 . S
C466 C462 1.389 . S
C466 H483 0.931 . S
C467 O452 1.266 . S
C467 O453 1.248 . S
C468 Tb404 2.802 . S
C468 O448 1.264 . S
C468 O451 1.256 . S
C468 C461 1.496 . S
C469 C436 1.448 . S
C469 H446 0.930 . S
C469 C470 1.328 . S
C470 C441 1.427 . S
C470 H447 0.929 . S
C470 C469 1.328 . S
C471 O455 1.264 . S
C471 O456 1.243 . S
C472 C475 1.399 . S
C472 C476 1.383 . S
C472 C479 1.496 . S
C473 C474 1.399 . S
C473 C476 1.389 . S
C474 C473 1.399 . S
C474 C477 1.380 . S
C474 H484 0.929 . S
C475 C472 1.399 . S
C475 C477 1.392 . S
C475 H485 0.929 . S
C476 C472 1.383 . S
C476 C473 1.389 . S
C476 H486 0.931 . S
C477 C474 1.380 . S
C477 C475 1.392 . S
C477 H487 0.929 . S
C478 O458 1.266 . S
C478 O459 1.248 . S
C479 Tb415 2.802 . S
C479 O454 1.264 . S
C479 O457 1.256 . S
C479 C472 1.496 . S
H480 C463 0.929 . S
H481 C464 0.929 . S
H482 C465 0.929 . S
H483 C466 0.931 . S
H484 C474 0.929 . S
H485 C475 0.929 . S
H486 C476 0.931 . S
H487 C477 0.929 . S
H488 C494 0.930 . S
H489 C498 0.930 . S
H490 C503 0.929 . S
H491 C501 0.935 . S
H492 C496 0.929 . S
H493 C502 0.929 . S
C494 H488 0.930 . S
C494 C495 1.367 . S
C494 C502 1.378 . S
C495 C494 1.367 . S
C495 C503 1.433 . S
C496 H492 0.929 . S
C496 C498 1.378 1_565 S
C496 C500 1.350 . S
C497 C500 1.463 . S
C497 C502 1.350 . S
C497 N505 1.427 . S
C498 H489 0.930 . S
C498 C496 1.378 1_545 S
C498 C499 1.367 . S
C499 C498 1.367 . S
C499 C501 1.442 . S
C500 C496 1.350 . S
C500 C497 1.463 . S
C500 N504 1.427 . S
C501 H491 0.935 . S
C501 C499 1.442 . S
C501 N504 1.369 1_545 S
C502 H493 0.929 . S
C502 C494 1.378 . S
C502 C497 1.350 . S
C503 H490 0.929 . S
C503 C495 1.433 . S
C503 N505 1.384 . S
N504 C500 1.427 . S
N504 C501 1.369 1_565 S
N505 C497 1.427 . S
N505 C503 1.384 . S
H506 C512 0.930 . S
H507 C516 0.930 . S
H508 C521 0.929 . S
H509 C519 0.929 . S
H510 C514 0.929 . S
H511 C520 0.929 . S
C512 H506 0.930 . S
C512 C513 1.367 . S
C512 C520 1.378 . S
C513 C512 1.367 . S
C513 C521 1.433 . S
C514 H510 0.929 . S
C514 C516 1.378 . S
C514 C518 1.350 . S
C515 C518 1.463 . S
C515 C520 1.350 . S
C515 N523 1.427 . S
C516 H507 0.930 . S
C516 C514 1.378 . S
C516 C517 1.367 . S
C517 C516 1.367 . S
C517 C519 1.433 . S
C518 C514 1.350 . S
C518 C515 1.463 . S
C518 N522 1.427 . S
C519 H509 0.929 . S
C519 C517 1.433 . S
C519 N522 1.384 . S
C520 H511 0.929 . S
C520 C512 1.378 . S
C520 C515 1.350 . S
C521 H508 0.929 . S
C521 C513 1.433 . S
C521 N523 1.384 . S
N522 C518 1.427 . S
N522 C519 1.384 . S
N523 C515 1.427 . S
N523 C521 1.384 . S
H524 C530 0.930 . S
H525 C534 0.930 . S
H526 C539 0.929 . S
H527 C537 0.929 . S
H528 C532 0.929 . S
H529 C538 0.929 . S
C530 H524 0.930 . S
C530 C531 1.367 . S
C530 C538 1.378 . S
C531 C530 1.367 . S
C531 C539 1.433 . S
C532 H528 0.929 . S
C532 C534 1.378 . S
C532 C536 1.350 . S
C533 C536 1.463 . S
C533 C538 1.350 . S
C533 N541 1.427 . S
C534 H525 0.930 . S
C534 C532 1.378 . S
C534 C535 1.367 . S
C535 C534 1.367 . S
C535 C537 1.433 . S
C536 C532 1.350 . S
C536 C533 1.463 . S
C536 N540 1.427 . S
C537 H527 0.929 . S
C537 C535 1.433 . S
C537 N540 1.384 . S
C538 H529 0.929 . S
C538 C530 1.378 . S
C538 C533 1.350 . S
C539 H526 0.929 . S
C539 C531 1.433 . S
C539 N541 1.384 . S
N540 C536 1.427 . S
N540 C537 1.384 . S
N541 C533 1.427 . S
N541 C539 1.384 . S
H542 C548 0.930 . S
H543 C552 0.930 . S
H544 C557 0.929 . S
H545 C555 0.929 . S
H546 C550 0.929 . S
H547 C556 0.929 . S
C548 H542 0.930 . S
C548 C549 1.367 . S
C548 C556 1.378 . S
C549 C548 1.367 . S
C549 C557 1.433 . S
C550 H546 0.929 . S
C550 C552 1.378 . S
C550 C554 1.350 1_545 S
C551 C554 1.463 . S
C551 C556 1.350 . S
C551 N559 1.427 . S
C552 H543 0.930 . S
C552 C550 1.378 . S
C552 C553 1.367 . S
C553 C552 1.367 . S
C553 C555 1.433 1_545 S
C554 C550 1.350 1_565 S
C554 C551 1.463 . S
C554 N558 1.427 . S
C555 H545 0.929 . S
C555 C553 1.433 1_565 S
C555 N558 1.384 . S
C556 H547 0.929 . S
C556 C548 1.378 . S
C556 C551 1.350 . S
C557 H544 0.929 . S
C557 C549 1.433 . S
C557 N559 1.384 . S
N558 C554 1.427 . S
N558 C555 1.384 . S
N559 C551 1.427 . S
N559 C557 1.384 . S
H560 C566 0.930 . S
H561 C570 0.930 . S
H562 C575 0.929 . S
H563 C573 0.929 . S
H564 C568 0.929 . S
H565 C574 0.929 . S
C566 H560 0.930 . S
C566 C567 1.367 . S
C566 C574 1.378 . S
C567 C566 1.367 . S
C567 C575 1.433 . S
C568 H564 0.929 . S
C568 C570 1.378 . S
C568 C572 1.350 1_565 S
C569 C572 1.463 . S
C569 C574 1.350 . S
C569 N577 1.427 . S
C570 H561 0.930 . S
C570 C568 1.378 . S
C570 C571 1.367 . S
C571 C570 1.367 . S
C571 C573 1.433 1_565 S
C572 C568 1.350 1_545 S
C572 C569 1.463 . S
C572 N576 1.427 . S
C573 H563 0.929 . S
C573 C571 1.433 1_545 S
C573 N576 1.384 . S
C574 H565 0.929 . S
C574 C566 1.378 . S
C574 C569 1.350 . S
C575 H562 0.929 . S
C575 C567 1.433 . S
C575 N577 1.384 . S
N576 C572 1.427 . S
N576 C573 1.384 . S
N577 C569 1.427 . S
N577 C575 1.384 . S
H578 C584 0.930 . S
H579 C588 0.930 . S
H580 C593 0.929 . S
H581 C591 0.929 . S
H582 C586 0.929 . S
H583 C592 0.929 . S
C584 H578 0.930 . S
C584 C585 1.367 . S
C584 C592 1.378 . S
C585 C584 1.367 . S
C585 C593 1.433 . S
C586 H582 0.929 . S
C586 C588 1.378 . S
C586 C590 1.350 . S
C587 C590 1.463 . S
C587 C592 1.350 . S
C587 N595 1.427 . S
C588 H579 0.930 . S
C588 C586 1.378 . S
C588 C589 1.367 . S
C589 C588 1.367 . S
C589 C591 1.433 . S
C590 C586 1.350 . S
C590 C587 1.463 . S
C590 N594 1.427 . S
C591 H581 0.929 . S
C591 C589 1.433 . S
C591 N594 1.384 . S
C592 H583 0.929 . S
C592 C584 1.378 . S
C592 C587 1.350 . S
C593 H580 0.929 . S
C593 C585 1.433 . S
C593 N595 1.384 . S
N594 C590 1.427 . S
N594 C591 1.384 . S
N595 C587 1.427 . S
N595 C593 1.384 . S
H596 C602 0.930 . S
H597 C606 0.930 . S
H598 C611 0.929 . S
H599 C609 0.929 . S
H600 C604 0.929 . S
H601 C610 0.929 . S
C602 H596 0.930 . S
C602 C603 1.367 . S
C602 C610 1.378 . S
C603 C602 1.367 . S
C603 C611 1.433 . S
C604 H600 0.929 . S
C604 C606 1.378 . S
C604 C608 1.350 . S
C605 C608 1.463 . S
C605 C610 1.350 . S
C605 N613 1.427 . S
C606 H597 0.930 . S
C606 C604 1.378 . S
C606 C607 1.367 . S
C607 C606 1.367 . S
C607 C609 1.433 . S
C608 C604 1.350 . S
C608 C605 1.463 . S
C608 N612 1.427 . S
C609 H599 0.929 . S
C609 C607 1.433 . S
C609 N612 1.384 . S
C610 H601 0.929 . S
C610 C602 1.378 . S
C610 C605 1.350 . S
C611 H598 0.929 . S
C611 C603 1.433 . S
C611 N613 1.384 . S
N612 C608 1.427 . S
N612 C609 1.384 . S
N613 C605 1.427 . S
N613 C611 1.384 . S
H614 C620 0.930 . S
H615 C624 0.930 . S
H616 C629 0.929 . S
H617 C627 0.929 . S
H618 C622 0.929 . S
H619 C628 0.929 . S
C620 H614 0.930 . S
C620 C621 1.367 . S
C620 C628 1.378 . S
C621 C620 1.367 . S
C621 C629 1.433 . S
C622 H618 0.929 . S
C622 C624 1.378 . S
C622 C626 1.350 . S
C623 C626 1.463 . S
C623 C628 1.350 . S
C623 N631 1.427 . S
C624 H615 0.930 . S
C624 C622 1.378 . S
C624 C625 1.367 1_545 S
C625 C624 1.367 1_565 S
C625 C627 1.433 . S
C626 C622 1.350 . S
C626 C623 1.463 . S
C626 N630 1.427 . S
C627 H617 0.929 . S
C627 C625 1.433 . S
C627 N630 1.384 1_565 S
C628 H619 0.929 . S
C628 C620 1.378 . S
C628 C623 1.350 . S
C629 H616 0.929 . S
C629 C621 1.433 . S
C629 N631 1.384 . S
N630 C626 1.427 . S
N630 C627 1.384 1_545 S
N631 C623 1.427 . S
N631 C629 1.384 . S
H632 C638 0.930 . S
H633 C642 0.930 . S
H634 C647 0.929 . S
H635 C645 0.929 . S
H636 C640 0.929 . S
H637 C646 0.929 1_554 S
C638 H632 0.930 . S
C638 C639 1.367 . S
C638 C646 1.378 . S
C639 C638 1.367 . S
C639 C647 1.433 . S
C640 H636 0.929 . S
C640 C642 1.378 . S
C640 C644 1.350 . S
C641 C644 1.463 . S
C641 C646 1.350 1_554 S
C641 N649 1.427 . S
C642 H633 0.930 . S
C642 C640 1.378 . S
C642 C643 1.367 . S
C643 C642 1.367 . S
C643 C645 1.433 . S
C644 C640 1.350 . S
C644 C641 1.463 . S
C644 N648 1.427 . S
C645 H635 0.929 . S
C645 C643 1.433 . S
C645 N648 1.384 . S
C646 H637 0.929 1_556 S
C646 C638 1.378 . S
C646 C641 1.350 1_556 S
C647 H634 0.929 . S
C647 C639 1.433 . S
C647 N649 1.384 1_556 S
N648 C644 1.427 . S
N648 C645 1.384 . S
N649 C641 1.427 . S
N649 C647 1.384 1_554 S
H650 C656 0.930 . S
H651 C660 0.930 . S
H652 C665 0.929 . S
H653 C663 0.929 . S
H654 C658 0.929 . S
H655 C664 0.929 . S
C656 H650 0.930 . S
C656 C657 1.367 . S
C656 C664 1.378 . S
C657 C656 1.367 . S
C657 C665 1.433 . S
C658 H654 0.929 . S
C658 C660 1.378 . S
C658 C662 1.350 . S
C659 C662 1.463 . S
C659 C664 1.350 . S
C659 N667 1.427 . S
C660 H651 0.930 . S
C660 C658 1.378 . S
C660 C661 1.367 . S
C661 C660 1.367 . S
C661 C663 1.433 . S
C662 C658 1.350 . S
C662 C659 1.463 . S
C662 N666 1.427 . S
C663 H653 0.929 . S
C663 C661 1.433 . S
C663 N666 1.384 . S
C664 H655 0.929 . S
C664 C656 1.378 . S
C664 C659 1.350 . S
C665 H652 0.929 . S
C665 C657 1.433 . S
C665 N667 1.384 . S
N666 C662 1.427 . S
N666 C663 1.384 . S
N667 C659 1.427 . S
N667 C665 1.384 . S
H668 C674 0.930 . S
H669 C678 0.930 . S
H670 C683 0.929 . S
H671 C681 0.929 . S
H672 C676 0.929 . S
H673 C682 0.929 1_556 S
C674 H668 0.930 . S
C674 C675 1.367 . S
C674 C682 1.378 . S
C675 C674 1.367 . S
C675 C683 1.433 . S
C676 H672 0.929 . S
C676 C678 1.378 . S
C676 C680 1.350 . S
C677 C680 1.463 . S
C677 C682 1.350 1_556 S
C677 N685 1.428 1_556 S
C678 H669 0.930 . S
C678 C676 1.378 . S
C678 C679 1.367 . S
C679 C678 1.367 . S
C679 C681 1.433 . S
C680 C676 1.350 . S
C680 C677 1.463 . S
C680 N684 1.427 . S
C681 H671 0.929 . S
C681 C679 1.433 . S
C681 N684 1.384 . S
C682 H673 0.929 1_554 S
C682 C674 1.378 . S
C682 C677 1.350 1_554 S
C683 H670 0.929 . S
C683 C675 1.433 . S
C683 N685 1.382 . S
N684 C680 1.427 . S
N684 C681 1.384 . S
N685 C677 1.428 1_554 S
N685 C683 1.382 . S
H686 C692 0.930 . S
H687 C696 0.930 . S
H688 C701 0.929 . S
H689 C699 0.929 . S
H690 C694 0.929 . S
H691 C700 0.929 . S
C692 H686 0.930 . S
C692 C693 1.367 . S
C692 C700 1.378 . S
C693 C692 1.367 . S
C693 C701 1.433 . S
C694 H690 0.929 . S
C694 C696 1.378 . S
C694 C698 1.350 . S
C695 C698 1.463 . S
C695 C700 1.350 . S
C695 N703 1.427 . S
C696 H687 0.930 . S
C696 C694 1.378 . S
C696 C697 1.367 . S
C697 C696 1.367 . S
C697 C699 1.433 . S
C698 C694 1.350 . S
C698 C695 1.463 . S
C698 N702 1.427 . S
C699 H689 0.929 . S
C699 C697 1.433 . S
C699 N702 1.384 . S
C700 H691 0.929 . S
C700 C692 1.378 . S
C700 C695 1.350 . S
C701 H688 0.929 . S
C701 C693 1.433 . S
C701 N703 1.384 . S
N702 C698 1.427 . S
N702 C699 1.384 . S
N703 C695 1.427 . S
N703 C701 1.384 . S
H704 C710 0.930 . S
H705 C714 0.930 . S
H706 C719 0.929 . S
H707 C717 0.929 . S
H708 C712 0.929 . S
H709 C718 0.929 . S
C710 H704 0.930 . S
C710 C711 1.367 . S
C710 C718 1.378 1_554 S
C711 C710 1.367 . S
C711 C719 1.433 . S
C712 H708 0.929 . S
C712 C714 1.378 . S
C712 C716 1.350 . S
C713 C716 1.463 . S
C713 C718 1.350 . S
C713 N721 1.427 1_556 S
C714 H705 0.930 . S
C714 C712 1.378 . S
C714 C715 1.367 . S
C715 C714 1.367 . S
C715 C717 1.433 . S
C716 C712 1.350 . S
C716 C713 1.463 . S
C716 N720 1.427 . S
C717 H707 0.929 . S
C717 C715 1.433 . S
C717 N720 1.384 . S
C718 H709 0.929 . S
C718 C710 1.378 1_556 S
C718 C713 1.350 . S
C719 H706 0.929 . S
C719 C711 1.433 . S
C719 N721 1.384 . S
N720 C716 1.427 . S
N720 C717 1.384 . S
N721 C713 1.427 1_554 S
N721 C719 1.384 . S
H722 C728 0.930 . S
H723 C732 0.930 . S
H724 C737 0.929 . S
H725 C735 0.929 . S
H726 C730 0.929 . S
H727 C736 0.929 . S
C728 H722 0.930 . S
C728 C729 1.367 . S
C728 C736 1.378 . S
C729 C728 1.367 . S
C729 C737 1.433 . S
C730 H726 0.929 . S
C730 C732 1.378 . S
C730 C734 1.350 . S
C731 C734 1.463 . S
C731 C736 1.350 . S
C731 N739 1.427 . S
C732 H723 0.930 . S
C732 C730 1.378 . S
C732 C733 1.367 . S
C733 C732 1.367 . S
C733 C735 1.433 . S
C734 C730 1.350 . S
C734 C731 1.463 . S
C734 N738 1.427 . S
C735 H725 0.929 . S
C735 C733 1.433 . S
C735 N738 1.384 . S
C736 H727 0.929 . S
C736 C728 1.378 . S
C736 C731 1.350 . S
C737 H724 0.929 . S
C737 C729 1.433 . S
C737 N739 1.384 . S
N738 C734 1.427 . S
N738 C735 1.384 . S
N739 C731 1.427 . S
N739 C737 1.384 . S
H740 C746 0.930 . S
H741 C750 0.930 . S
H742 C755 0.929 . S
H743 C753 0.929 . S
H744 C748 0.929 . S
H745 C754 0.951 . S
C746 H740 0.930 . S
C746 C747 1.367 . S
C746 C754 1.343 1_556 S
C747 C746 1.367 . S
C747 C755 1.433 . S
C748 H744 0.929 . S
C748 C750 1.378 . S
C748 C752 1.350 . S
C749 C752 1.463 . S
C749 C754 1.363 . S
C749 N757 1.427 1_554 S
C750 H741 0.930 . S
C750 C748 1.378 . S
C750 C751 1.367 . S
C751 C750 1.367 . S
C751 C753 1.433 . S
C752 C748 1.350 . S
C752 C749 1.463 . S
C752 N756 1.427 . S
C753 H743 0.929 . S
C753 C751 1.433 . S
C753 N756 1.384 . S
C754 H745 0.951 . S
C754 C746 1.343 1_554 S
C754 C749 1.363 . S
C755 H742 0.929 . S
C755 C747 1.433 . S
C755 N757 1.384 . S
N756 C752 1.427 . S
N756 C753 1.384 . S
N757 C749 1.427 1_556 S
N757 C755 1.384 . S
H758 C764 0.930 . S
H759 C768 0.930 . S
H760 C773 0.929 . S
H761 C771 0.929 . S
H762 C766 0.929 . S
H763 C772 0.929 . S
C764 H758 0.930 . S
C764 C765 1.367 . S
C764 C772 1.378 . S
C765 C764 1.367 . S
C765 C773 1.433 . S
C766 H762 0.929 . S
C766 C768 1.378 . S
C766 C770 1.350 . S
C767 C770 1.463 . S
C767 C772 1.350 . S
C767 N775 1.427 . S
C768 H759 0.930 . S
C768 C766 1.378 . S
C768 C769 1.367 . S
C769 C768 1.367 . S
C769 C771 1.433 . S
C770 C766 1.350 . S
C770 C767 1.463 . S
C770 N774 1.427 . S
C771 H761 0.929 . S
C771 C769 1.433 . S
C771 N774 1.384 . S
C772 H763 0.929 . S
C772 C764 1.378 . S
C772 C767 1.350 . S
C773 H760 0.929 . S
C773 C765 1.433 . S
C773 N775 1.384 . S
N774 C770 1.427 . S
N774 C771 1.384 . S
N775 C767 1.427 . S
N775 C773 1.384 . S
H776 C782 0.930 . S
H777 C786 0.930 . S
H778 C791 0.929 . S
H779 C789 0.929 . S
H780 C784 0.929 . S
H781 C790 0.929 . S
C782 H776 0.930 . S
C782 C783 1.367 . S
C782 C790 1.378 . S
C783 C782 1.367 . S
C783 C791 1.433 . S
C784 H780 0.929 . S
C784 C786 1.378 . S
C784 C788 1.350 . S
C785 C788 1.463 . S
C785 C790 1.350 . S
C785 N793 1.427 . S
C786 H777 0.930 . S
C786 C784 1.378 . S
C786 C787 1.367 . S
C787 C786 1.367 . S
C787 C789 1.433 . S
C788 C784 1.350 . S
C788 C785 1.463 . S
C788 N792 1.427 . S
C789 H779 0.929 . S
C789 C787 1.433 . S
C789 N792 1.384 . S
C790 H781 0.929 . S
C790 C782 1.378 . S
C790 C785 1.350 . S
C791 H778 0.929 . S
C791 C783 1.433 . S
C791 N793 1.384 . S
N792 C788 1.427 . S
N792 C789 1.384 . S
N793 C785 1.427 . S
N793 C791 1.384 . S
H794 C800 0.930 . S
H795 C804 0.930 . S
H796 C809 0.929 . S
H797 C807 0.929 . S
H798 C802 0.929 . S
H799 C808 0.929 . S
C800 H794 0.930 . S
C800 C801 1.367 . S
C800 C808 1.378 . S
C801 C800 1.367 . S
C801 C809 1.433 . S
C802 H798 0.929 . S
C802 C804 1.378 . S
C802 C806 1.350 . S
C803 C806 1.463 . S
C803 C808 1.350 . S
C803 N811 1.427 . S
C804 H795 0.930 . S
C804 C802 1.378 . S
C804 C805 1.367 . S
C805 C804 1.367 . S
C805 C807 1.433 . S
C806 C802 1.350 . S
C806 C803 1.463 . S
C806 N810 1.427 . S
C807 H797 0.929 . S
C807 C805 1.433 . S
C807 N810 1.384 . S
C808 H799 0.929 . S
C808 C800 1.378 . S
C808 C803 1.350 . S
C809 H796 0.929 . S
C809 C801 1.433 . S
C809 N811 1.384 . S
N810 C806 1.427 . S
N810 C807 1.384 . S
N811 C803 1.427 . S
N811 C809 1.384 . S
H812 C818 0.930 . S
H813 C822 0.930 . S
H814 C827 0.929 . S
H815 C825 0.929 . S
H816 C820 0.929 . S
H817 C826 0.929 . S
C818 H812 0.930 . S
C818 C819 1.367 . S
C818 C826 1.378 . S
C819 C818 1.367 . S
C819 C827 1.433 . S
C820 H816 0.929 . S
C820 C822 1.378 . S
C820 C824 1.350 . S
C821 C824 1.463 . S
C821 C826 1.350 . S
C821 N829 1.427 . S
C822 H813 0.930 . S
C822 C820 1.378 . S
C822 C823 1.367 . S
C823 C822 1.367 . S
C823 C825 1.433 . S
C824 C820 1.350 . S
C824 C821 1.463 . S
C824 N828 1.427 . S
C825 H815 0.929 . S
C825 C823 1.433 . S
C825 N828 1.384 . S
C826 H817 0.929 . S
C826 C818 1.378 . S
C826 C821 1.350 . S
C827 H814 0.929 . S
C827 C819 1.433 . S
C827 N829 1.384 . S
N828 C824 1.427 . S
N828 C825 1.384 . S
N829 C821 1.427 . S
N829 C827 1.384 . S
H830 C836 0.930 . S
H831 C840 0.930 . S
H832 C845 0.929 . S
H833 C843 0.929 . S
H834 C838 0.929 . S
H835 C844 0.929 . S
C836 H830 0.930 . S
C836 C837 1.367 . S
C836 C844 1.378 . S
C837 C836 1.367 . S
C837 C845 1.433 . S
C838 H834 0.929 . S
C838 C840 1.378 . S
C838 C842 1.350 . S
C839 C842 1.463 . S
C839 C844 1.350 . S
C839 N847 1.427 . S
C840 H831 0.930 . S
C840 C838 1.378 . S
C840 C841 1.367 . S
C841 C840 1.367 . S
C841 C843 1.433 . S
C842 C838 1.350 . S
C842 C839 1.463 . S
C842 N846 1.427 . S
C843 H833 0.929 . S
C843 C841 1.433 . S
C843 N846 1.384 . S
C844 H835 0.929 . S
C844 C836 1.378 . S
C844 C839 1.350 . S
C845 H832 0.929 . S
C845 C837 1.433 . S
C845 N847 1.384 . S
N846 C842 1.427 . S
N846 C843 1.384 . S
N847 C839 1.427 . S
N847 C845 1.384 . S
H848 C854 0.930 . S
H849 C858 0.930 . S
H850 C863 0.929 . S
H851 C861 0.929 . S
H852 C856 0.929 . S
H853 C862 0.929 . S
C854 H848 0.930 . S
C854 C855 1.367 . S
C854 C862 1.378 . S
C855 C854 1.367 . S
C855 C863 1.433 . S
C856 H852 0.929 . S
C856 C858 1.378 . S
C856 C860 1.350 . S
C857 C860 1.463 . S
C857 C862 1.350 . S
C857 N865 1.427 . S
C858 H849 0.930 . S
C858 C856 1.378 . S
C858 C859 1.367 . S
C859 C858 1.367 . S
C859 C861 1.433 . S
C860 C856 1.350 . S
C860 C857 1.463 . S
C860 N864 1.427 . S
C861 H851 0.929 . S
C861 C859 1.433 . S
C861 N864 1.384 . S
C862 H853 0.929 . S
C862 C854 1.378 . S
C862 C857 1.350 . S
C863 H850 0.929 . S
C863 C855 1.433 . S
C863 N865 1.384 . S
N864 C860 1.427 . S
N864 C861 1.384 . S
N865 C857 1.427 . S
N865 C863 1.384 . S
H866 C872 0.930 . S
H867 C876 0.930 . S
H868 C881 0.929 . S
H869 C879 0.929 . S
H870 C874 0.929 . S
H871 C880 0.929 . S
C872 H866 0.930 . S
C872 C873 1.367 . S
C872 C880 1.378 . S
C873 C872 1.367 . S
C873 C881 1.433 . S
C874 H870 0.929 . S
C874 C876 1.378 . S
C874 C878 1.350 . S
C875 C878 1.463 . S
C875 C880 1.350 . S
C875 N883 1.427 . S
C876 H867 0.930 . S
C876 C874 1.378 . S
C876 C877 1.367 . S
C877 C876 1.367 . S
C877 C879 1.433 . S
C878 C874 1.350 . S
C878 C875 1.463 . S
C878 N882 1.427 . S
C879 H869 0.929 . S
C879 C877 1.433 . S
C879 N882 1.384 . S
C880 H871 0.929 . S
C880 C872 1.378 . S
C880 C875 1.350 . S
C881 H868 0.929 . S
C881 C873 1.433 . S
C881 N883 1.384 . S
N882 C878 1.427 . S
N882 C879 1.384 . S
N883 C875 1.427 . S
N883 C881 1.384 . S
H884 C890 0.930 . S
H885 C894 0.930 . S
H886 C899 0.929 . S
H887 C897 0.929 . S
H888 C892 0.929 . S
H889 C898 0.929 . S
C890 H884 0.930 . S
C890 C891 1.367 . S
C890 C898 1.378 . S
C891 C890 1.367 . S
C891 C899 1.433 . S
C892 H888 0.929 . S
C892 C894 1.378 . S
C892 C896 1.350 . S
C893 C896 1.463 . S
C893 C898 1.350 . S
C893 N901 1.427 . S
C894 H885 0.930 . S
C894 C892 1.378 . S
C894 C895 1.367 . S
C895 C894 1.367 . S
C895 C897 1.433 . S
C896 C892 1.350 . S
C896 C893 1.463 . S
C896 N900 1.427 . S
C897 H887 0.929 . S
C897 C895 1.433 . S
C897 N900 1.384 . S
C898 H889 0.929 . S
C898 C890 1.378 . S
C898 C893 1.350 . S
C899 H886 0.929 . S
C899 C891 1.433 . S
C899 N901 1.384 . S
N900 C896 1.427 . S
N900 C897 1.384 . S
N901 C893 1.427 . S
N901 C899 1.384 . S
H902 C908 0.930 . S
H903 C912 0.930 . S
H904 C917 0.929 . S
H905 C915 0.929 . S
H906 C910 0.929 . S
H907 C916 0.929 . S
C908 H902 0.930 . S
C908 C909 1.367 . S
C908 C916 1.378 . S
C909 C908 1.367 . S
C909 C917 1.433 . S
C910 H906 0.929 . S
C910 C912 1.378 . S
C910 C914 1.350 . S
C911 C914 1.463 . S
C911 C916 1.350 . S
C911 N919 1.427 . S
C912 H903 0.930 . S
C912 C910 1.378 . S
C912 C913 1.367 . S
C913 C912 1.367 . S
C913 C915 1.433 . S
C914 C910 1.350 . S
C914 C911 1.463 . S
C914 N918 1.427 . S
C915 H905 0.929 . S
C915 C913 1.433 . S
C915 N918 1.384 . S
C916 H907 0.929 . S
C916 C908 1.378 . S
C916 C911 1.350 . S
C917 H904 0.929 . S
C917 C909 1.433 . S
C917 N919 1.384 . S
N918 C914 1.427 . S
N918 C915 1.384 . S
N919 C911 1.427 . S
N919 C917 1.384 . S
C495 C116 1.812 . S
C499 C226 1.805 . S
C517 C310 1.804 . S
C513 C135 1.812 . S
C535 C303 1.812 . S
C531 C78 1.812 . S
C549 C97 1.813 . S
C553 C219 1.813 . S
C571 C383 1.809 . S
C567 C40 1.816 . S
C589 C467 1.810 . S
C585 C59 1.818 . S
C603 C2 1.816 . S
C607 C460 1.816 . S
C621 C21 1.810 . S
C625 C376 1.816 . S
C643 C210 1.560 . S
C639 C25 1.740 . S
C661 C294 1.573 . S
C657 C6 1.739 . S
C679 C305 1.475 . S
C675 C63 1.741 . S
C697 C221 1.474 . S
C693 C44 1.741 . S
C715 C389 1.580 . S
C711 C101 1.740 . S
C729 C82 1.737 . S
C733 C473 1.559 . S
C751 C462 1.473 . S
C747 C139 1.740 . S
C765 C120 1.738 . S
C769 C378 1.463 . S
C787 C208 1.524 . S
C783 C11 1.456 . S
C805 C292 1.522 . S
C801 C30 1.442 . S
C819 C49 1.450 . S
C823 C299 1.492 . S
C841 C215 1.493 . S
C837 C68 1.450 . S
C859 C387 1.524 . S
C855 C87 1.390 . S
C873 C106 1.392 . S
C877 C471 1.523 . S
C891 C125 1.389 . S
C895 C478 1.483 . S
C909 C144 1.409 . S
C913 C394 1.492 . S
