# Generated by pormake.
# Topology tsx, (6,3)-cn, num edge types: 1
# Building blocks:
#     Node 0, Type 0, BuildingBlock: JUFBIX_clean_sbu_0, # of connection points: 6
#     Node 1, Type 0, BuildingBlock: JUFBIX_clean_sbu_0, # of connection points: 6
#     Node 2, Type 1, BuildingBlock: BETDIP_clean_linker_0, # of connection points: 3
#     Node 3, Type 1, BuildingBlock: BETDIP_clean_linker_0, # of connection points: 3
#     Node 4, Type 1, BuildingBlock: BETDIP_clean_linker_0, # of connection points: 3
#     Node 5, Type 1, BuildingBlock: BETDIP_clean_linker_0, # of connection points: 3
#     Edge 6, Type (0, 1), BuildingBlock: UVAHIK_clean_linker_0, # of connection points: 2
#     Edge 7, Type (0, 1), BuildingBlock: UVAHIK_clean_linker_0, # of connection points: 2
#     Edge 8, Type (0, 1), BuildingBlock: UVAHIK_clean_linker_0, # of connection points: 2
#     Edge 9, Type (0, 1), BuildingBlock: UVAHIK_clean_linker_0, # of connection points: 2
#     Edge 10, Type (0, 1), BuildingBlock: UVAHIK_clean_linker_0, # of connection points: 2
#     Edge 11, Type (0, 1), BuildingBlock: UVAHIK_clean_linker_0, # of connection points: 2
#     Edge 12, Type (0, 1), BuildingBlock: UVAHIK_clean_linker_0, # of connection points: 2
#     Edge 13, Type (0, 1), BuildingBlock: UVAHIK_clean_linker_0, # of connection points: 2
#     Edge 14, Type (0, 1), BuildingBlock: UVAHIK_clean_linker_0, # of connection points: 2
#     Edge 15, Type (0, 1), BuildingBlock: UVAHIK_clean_linker_0, # of connection points: 2
#     Edge 16, Type (0, 1), BuildingBlock: UVAHIK_clean_linker_0, # of connection points: 2
#     Edge 17, Type (0, 1), BuildingBlock: UVAHIK_clean_linker_0, # of connection points: 2
# Relax obj value: 0.106
# Max RMSD: 0.130
# Mean RMSD: 0.117
data_MOF--net-tsx--node1-JUFBIX_clean_sbu_0--node2-BETDIP_clean_linker_0--edge1-UVAHIK_clean_linker_0
_symmetry_space_group_name_H-M    P1
_symmetry_Int_Tables_number       1
_symmetry_cell_setting            triclinic
loop_
_symmetry_equiv_pos_as_xyz
'x, y, z'
_cell_length_a     25.850938
_cell_length_b     30.758182
_cell_length_c     42.26273
_cell_angle_alpha  92.353393
_cell_angle_beta   98.708585
_cell_angle_gamma 97.294856
loop_
_atom_site_label
_atom_site_type_symbol
_atom_site_fract_x
_atom_site_fract_y
_atom_site_fract_z
_atom_type_partial_charge
Co0 Co 0.05676 0.97872 -0.00266 0.0
C1 C 0.9898 0.00074 0.94269 0.0
Co2 Co 0.99908 0.02334 0.00621 0.0
C3 C 0.13043 0.91289 -0.00034 0.0
C4 C 0.13297 0.95527 0.96077 0.0
N5 N 0.1074 0.946 0.98575 0.0
N6 N 0.16977 0.90194 0.98442 0.0
C7 C 0.1712 0.92845 0.95995 0.0
H8 H 0.12016 0.89846 0.02119 0.0
H9 H 0.12538 0.98096 0.94465 0.0
C10 C 0.06622 0.00238 0.06079 0.0
N11 N 0.94947 0.05655 0.01821 0.0
C12 C 0.93038 0.09175 0.00512 0.0
C13 C 0.92629 0.05057 0.04455 0.0
N14 N 0.8969 0.10814 0.02264 0.0
C15 C 0.89427 0.08233 0.04743 0.0
C16 C 0.96429 0.93269 0.00736 0.0
O17 O 0.0853 0.97809 0.04172 0.0
O18 O 0.02968 0.02408 0.04979 0.0
O19 O 0.95328 0.97158 0.01067 0.0
O20 O 0.00948 0.92688 0.00081 0.0
O21 O 0.96942 0.02304 0.96234 0.0
H22 H 0.93271 0.0249 0.06088 0.0
H23 H 0.94169 0.10567 0.98365 0.0
O24 O 0.02723 0.97949 0.95323 0.0
O25 O 0.1037 0.03146 0.99392 0.0
O26 O 0.04476 0.07445 0.00166 0.0
C27 C 0.09073 0.06989 0.99612 0.0
H28 H 0.19857 0.92876 0.9429 0.0
H29 H 0.87045 0.08598 0.0661 0.0
Co30 Co 0.55824 0.47645 0.49722 0.0
C31 C 0.49256 0.49853 0.44215 0.0
Co32 Co 0.5006 0.52144 0.50561 0.0
C33 C 0.63018 0.40939 0.50074 0.0
C34 C 0.63538 0.45117 0.46171 0.0
N35 N 0.60872 0.44291 0.48637 0.0
N36 N 0.66958 0.39709 0.48611 0.0
C37 C 0.67266 0.42327 0.46153 0.0
H38 H 0.61858 0.39547 0.52214 0.0
H39 H 0.62902 0.47676 0.44531 0.0
C40 C 0.56651 0.50043 0.56062 0.0
N41 N 0.45105 0.5553 0.51701 0.0
C42 C 0.43284 0.59084 0.50386 0.0
C43 C 0.42713 0.5495 0.54309 0.0
N44 N 0.39923 0.6076 0.52113 0.0
C45 C 0.39559 0.58167 0.54577 0.0
C46 C 0.46482 0.43109 0.50678 0.0
O47 O 0.58576 0.47599 0.54175 0.0
O48 O 0.53029 0.5223 0.54936 0.0
O49 O 0.45407 0.47008 0.50992 0.0
O50 O 0.51012 0.425 0.50054 0.0
O51 O 0.47194 0.52097 0.46159 0.0
H52 H 0.43277 0.5237 0.5594 0.0
H53 H 0.44493 0.60476 0.48259 0.0
O54 O 0.52973 0.47712 0.45294 0.0
O55 O 0.60598 0.52883 0.49394 0.0
O56 O 0.54706 0.57211 0.5012 0.0
C57 C 0.59316 0.56735 0.49599 0.0
H58 H 0.70033 0.42251 0.44473 0.0
H59 H 0.37146 0.58556 0.56425 0.0
H60 H 0.05671 0.97277 0.48808 0.0
H61 H 0.02531 0.04645 0.40448 0.0
H62 H 0.10875 0.93479 0.40032 0.0
H63 H 0.04903 0.10363 0.4491 0.0
C64 C 0.01875 0.08851 0.46198 0.0
C65 C 0.05977 0.9778 0.46317 0.0
C66 C 0.08409 0.94873 0.44561 0.0
C67 C 0.03982 0.0138 0.44866 0.0
C68 C 0.04278 0.01985 0.41607 0.0
C69 C 0.0664 0.99069 0.39816 0.0
C70 C 0.08789 0.95601 0.41345 0.0
N71 N 0.01542 0.04287 0.46681 0.0
H72 H 0.97291 0.9887 0.51283 0.0
H73 H 0.01194 0.06154 0.60442 0.0
H74 H 0.90241 0.94256 0.59318 0.0
H75 H 0.00952 0.11912 0.56678 0.0
C76 C 0.03688 0.10615 0.55288 0.0
C77 C 0.96836 0.99257 0.53781 0.0
C78 C 0.93397 0.96173 0.55076 0.0
C79 C 0.99519 0.02945 0.55676 0.0
C80 C 0.98946 0.03419 0.5893 0.0
C81 C 0.95684 0.00247 0.60277 0.0
C82 C 0.92854 0.96681 0.58315 0.0
N83 N 0.02893 0.0608 0.543 0.0
H84 H 0.55373 0.47236 0.98775 0.0
H85 H 0.52608 0.54639 0.90407 0.0
H86 H 0.60502 0.43204 0.90027 0.0
H87 H 0.55762 0.60297 0.95104 0.0
C88 C 0.52449 0.58961 0.96238 0.0
C89 C 0.55705 0.47699 0.96282 0.0
C90 C 0.58047 0.44709 0.94542 0.0
C91 C 0.53872 0.51346 0.94818 0.0
C92 C 0.54222 0.5192 0.91564 0.0
C93 C 0.56484 0.48918 0.89784 0.0
C94 C 0.58476 0.45393 0.91325 0.0
N95 N 0.51586 0.54375 0.96619 0.0
H96 H 0.47105 0.49068 0.0115 0.0
H97 H 0.51237 0.56182 0.10368 0.0
H98 H 0.40257 0.44301 0.09215 0.0
H99 H 0.50935 0.62017 0.06658 0.0
C100 C 0.53649 0.60732 0.05245 0.0
C101 C 0.46716 0.49408 0.03661 0.0
C102 C 0.4331 0.46298 0.04956 0.0
C103 C 0.49451 0.53059 0.05575 0.0
C104 C 0.48953 0.53474 0.08844 0.0
C105 C 0.45719 0.50278 0.10187 0.0
C106 C 0.42846 0.46744 0.08211 0.0
N107 N 0.52804 0.56215 0.04204 0.0
C108 C 0.17987 0.10438 0.98643 0.0
C109 C 0.12864 0.10887 0.99232 0.0
C110 C 0.21583 0.14149 0.98354 0.0
C111 C 0.22419 0.26095 0.97078 0.0
H112 H 0.3646 0.26709 0.01991 0.0
C113 C 0.34629 0.42013 0.02753 0.0
C114 C 0.40139 0.42562 0.02965 0.0
C115 C 0.31608 0.38142 0.0136 0.0
C116 C 0.32601 0.26561 0.00542 0.0
H117 H 0.07476 0.15579 -0.00074 0.0
H118 H 0.13746 0.22024 0.99475 0.0
H119 H 0.30532 0.198 0.01393 0.0
H120 H 0.46835 0.39637 0.01772 0.0
H121 H 0.41526 0.32772 0.99355 0.0
H122 H 0.2441 0.32922 0.96371 0.0
C123 C 0.14974 0.18813 0.99183 0.0
C124 C 0.29195 0.22601 0.00203 0.0
C125 C 0.11389 0.15114 0.99473 0.0
C126 C 0.42578 0.39274 0.01615 0.0
C127 C 0.39552 0.35355 0.00256 0.0
C128 C 0.25815 0.30055 0.97428 0.0
C129 C 0.20123 0.18382 0.98639 0.0
C130 C 0.24004 0.22364 0.9856 0.0
C131 C 0.34047 0.34716 0.00187 0.0
C132 C 0.30877 0.30364 0.99253 0.0
H133 H 0.19236 0.07222 0.98427 0.0
H134 H 0.25507 0.13704 0.97912 0.0
H135 H 0.18487 0.25994 0.95732 0.0
H136 H 0.32681 0.44515 0.03789 0.0
H137 H 0.27388 0.37733 0.0138 0.0
C138 C 0.25951 0.88225 0.99046 0.0
C139 C 0.20598 0.87089 0.99274 0.0
C140 C 0.29387 0.85074 0.99306 0.0
C141 C 0.31386 0.7388 0.01623 0.0
H142 H 0.39997 0.74593 0.94853 0.0
C143 C 0.44097 0.60439 0.98242 0.0
C144 C 0.48958 0.61983 0.97304 0.0
C145 C 0.40646 0.63394 0.98922 0.0
C146 C 0.37685 0.74374 0.96789 0.0
H147 H 0.14683 0.81845 0.00156 0.0
H148 H 0.20724 0.76237 0.00572 0.0
H149 H 0.33942 0.79904 0.95303 0.0
H150 H 0.54194 0.67786 0.96556 0.0
H151 H 0.48247 0.72935 0.97786 0.0
H152 H 0.35165 0.68287 0.03078 0.0
C153 C 0.22257 0.79593 0.00213 0.0
C154 C 0.34201 0.77422 0.97045 0.0
C155 C 0.18804 0.82786 -0.00022 0.0
C156 C 0.50428 0.66515 0.9722 0.0
C157 C 0.47013 0.69456 0.97915 0.0
C158 C 0.34904 0.70804 0.01365 0.0
C159 C 0.27545 0.80684 -0.00236 0.0
C160 C 0.31067 0.77265 0.99491 0.0
C161 C 0.42012 0.6793 0.98676 0.0
C162 C 0.38149 0.71066 0.98968 0.0
H163 H 0.27441 0.91543 0.98562 0.0
H164 H 0.33467 0.86051 0.99039 0.0
H165 H 0.29012 0.73671 0.03528 0.0
H166 H 0.42882 0.56953 0.98346 0.0
H167 H 0.36826 0.62114 0.99501 0.0
C168 C 0.87822 0.90365 0.02332 0.0
C169 C 0.92416 0.89535 0.01142 0.0
C170 C 0.83953 0.86932 0.0272 0.0
C171 C 0.78371 0.75674 -0.00061 0.0
H172 H 0.72172 0.76057 0.07732 0.0
C173 C 0.62089 0.6223 0.02948 0.0
C174 C 0.58096 0.63758 0.04433 0.0
C175 C 0.66449 0.65148 0.02419 0.0
C176 C 0.73819 0.75922 0.05527 0.0
H177 H 0.9653 0.84431 0.99403 0.0
H178 H 0.89681 0.78377 0.00072 0.0
H179 H 0.7962 0.8147 0.0713 0.0
H180 H 0.55373 0.6951 0.06387 0.0
H181 H 0.62917 0.74608 0.05431 0.0
H182 H 0.72477 0.70152 0.98319 0.0
C183 C 0.89116 0.81715 0.007 0.0
C184 C 0.78103 0.79014 0.05189 0.0
C185 C 0.93039 0.85171 0.00334 0.0
C186 C 0.58437 0.6825 0.05275 0.0
C187 C 0.62771 0.71158 0.04743 0.0
C188 C 0.74053 0.72572 0.00274 0.0
C189 C 0.8455 0.8257 0.01919 0.0
C190 C 0.80364 0.78981 0.0237 0.0
C191 C 0.66886 0.69633 0.03371 0.0
C192 C 0.71666 0.72721 0.03049 0.0
H193 H 0.87199 0.93683 0.02977 0.0
H194 H 0.80445 0.87704 0.03618 0.0
H195 H 0.80019 0.75587 0.97733 0.0
H196 H 0.61911 0.58777 0.02262 0.0
H197 H 0.69553 0.63869 0.01361 0.0
C198 C 0.86231 0.17345 0.04205 0.0
C199 C 0.86888 0.1451 0.01652 0.0
C200 C 0.83185 0.20756 0.03663 0.0
C201 C 0.76758 0.27001 0.9713 0.0
H202 H 0.68195 0.29859 0.03519 0.0
C203 C 0.59602 0.36871 0.9428 0.0
C204 C 0.6031 0.40946 0.96033 0.0
C205 C 0.62637 0.33606 0.95282 0.0
C206 C 0.70592 0.29098 0.01732 0.0
H207 H 0.84936 0.13003 0.96538 0.0
H208 H 0.79428 0.18842 0.95577 0.0
H209 H 0.74111 0.24295 0.04529 0.0
H210 H 0.64394 0.44642 0.00366 0.0
H211 H 0.6962 0.38818 0.02181 0.0
H212 H 0.73034 0.31677 0.94286 0.0
C213 C 0.81387 0.18544 0.97995 0.0
C214 C 0.74012 0.25938 0.02308 0.0
C215 C 0.84525 0.15185 0.98535 0.0
C216 C 0.6376 0.41532 0.98973 0.0
C217 C 0.66763 0.38221 1e-05 0.0
C218 C 0.73272 0.30087 0.96535 0.0
C219 C 0.80638 0.21358 0.00558 0.0
C220 C 0.77124 0.24829 4e-05 0.0
C221 C 0.66367 0.34313 0.98088 0.0
C222 C 0.70143 0.31138 0.98819 0.0
H223 H 0.88082 0.16913 0.06626 0.0
H224 H 0.82826 0.22911 0.05686 0.0
H225 H 0.79171 0.26332 0.95333 0.0
H226 H 0.5689 0.36295 0.92038 0.0
H227 H 0.62216 0.30584 0.93799 0.0
C228 C 0.68288 0.60182 0.48718 0.0
C229 C 0.63132 0.60628 0.49243 0.0
C230 C 0.719 0.63897 0.48457 0.0
C231 C 0.72743 0.75836 0.4714 0.0
H232 H 0.86679 0.76517 0.52199 0.0
C233 C 0.84763 0.91823 0.52848 0.0
C234 C 0.9028 0.92397 0.531 0.0
C235 C 0.81787 0.87929 0.51461 0.0
C236 C 0.8285 0.7635 0.50712 0.0
H237 H 0.57704 0.65319 0.49853 0.0
H238 H 0.63994 0.71763 0.4945 0.0
H239 H 0.80779 0.69588 0.51563 0.0
H240 H 0.97036 0.89486 0.51989 0.0
H241 H 0.91806 0.82581 0.49584 0.0
H242 H 0.74729 0.82663 0.46432 0.0
C243 C 0.6524 0.68554 0.49186 0.0
C244 C 0.79462 0.72378 0.5035 0.0
C245 C 0.61642 0.64854 0.49449 0.0
C246 C 0.92774 0.89105 0.518 0.0
C247 C 0.89793 0.85163 0.50448 0.0
C248 C 0.76119 0.79807 0.47514 0.0
C249 C 0.70421 0.68128 0.48705 0.0
C250 C 0.74304 0.72118 0.48651 0.0
C251 C 0.84278 0.84504 0.50334 0.0
C252 C 0.81141 0.8014 0.49391 0.0
H253 H 0.6955 0.56968 0.48532 0.0
H254 H 0.75849 0.63456 0.48065 0.0
H255 H 0.68839 0.75717 0.45753 0.0
H256 H 0.82774 0.94327 0.53844 0.0
H257 H 0.77559 0.87506 0.51445 0.0
C258 C 0.7574 0.37289 0.49153 0.0
C259 C 0.704 0.36483 0.49516 0.0
C260 C 0.79028 0.34051 0.49705 0.0
C261 C 0.7864 0.22154 0.49369 0.0
H262 H 0.93456 0.25112 0.52963 0.0
C263 C 0.93756 0.09853 0.48636 0.0
C264 C 0.98339 0.11653 0.47487 0.0
C265 C 0.90297 0.12597 0.49631 0.0
C266 C 0.89328 0.24228 0.51955 0.0
H267 H 0.6434 0.31702 0.50841 0.0
H268 H 0.70115 0.25955 0.51788 0.0
H269 H 0.8739 0.30479 0.53438 0.0
H270 H 0.03008 0.1769 0.46582 0.0
H271 H 0.97006 0.22472 0.48306 0.0
H272 H 0.80627 0.1596 0.47776 0.0
C273 C 0.7174 0.29118 0.51074 0.0
C274 C 0.85851 0.273 0.52231 0.0
C275 C 0.68449 0.32403 0.50556 0.0
C276 C 0.99487 0.16225 0.47446 0.0
C277 C 0.96069 0.18962 0.48463 0.0
C278 C 0.82126 0.19073 0.49092 0.0
C279 C 0.77057 0.29897 0.50616 0.0
C280 C 0.80502 0.26357 0.50846 0.0
C281 C 0.91389 0.17185 0.49521 0.0
C282 C 0.87544 0.20134 0.50288 0.0
H283 H 0.7736 0.4042 0.48387 0.0
H284 H 0.83075 0.34752 0.4929 0.0
H285 H 0.74553 0.21334 0.48256 0.0
H286 H 0.92781 0.06331 0.48701 0.0
H287 H 0.86746 0.11131 0.50458 0.0
C288 C 0.43055 0.35018 0.50302 0.0
C289 C 0.42433 0.39394 0.51071 0.0
C290 C 0.39109 0.31579 0.50666 0.0
C291 C 0.28017 0.28969 0.55106 0.0
H292 H 0.22489 0.19996 0.48298 0.0
C293 C 0.08404 0.18146 0.55245 0.0
C294 C 0.08097 0.13648 0.54438 0.0
C295 C 0.12717 0.21062 0.5469 0.0
C296 C 0.24035 0.22447 0.50236 0.0
H297 H 0.37187 0.43581 0.5283 0.0
H298 H 0.30393 0.37632 0.53468 0.0
H299 H 0.30031 0.25422 0.47699 0.0
H300 H 0.11939 0.08663 0.52291 0.0
H301 H 0.19549 0.13767 0.51359 0.0
H302 H 0.22065 0.26049 0.57648 0.0
C303 C 0.33918 0.36838 0.52603 0.0
C304 C 0.28354 0.25545 0.49894 0.0
C305 C 0.37811 0.40253 0.52217 0.0
C306 C 0.12094 0.12121 0.52955 0.0
C307 C 0.16436 0.15046 0.52407 0.0
C308 C 0.23735 0.2588 0.55452 0.0
C309 C 0.34518 0.32463 0.51843 0.0
C310 C 0.30315 0.2889 0.52302 0.0
C311 C 0.16847 0.19539 0.53332 0.0
C312 C 0.21616 0.22636 0.52998 0.0
H313 H 0.46566 0.34254 0.49407 0.0
H314 H 0.39677 0.28232 0.50072 0.0
H315 H 0.29509 0.31455 0.5703 0.0
H316 H 0.05332 0.19407 0.5635 0.0
H317 H 0.12838 0.24517 0.55354 0.0
C318 C 0.36593 0.67353 0.5406 0.0
C319 C 0.37211 0.64509 0.51502 0.0
C320 C 0.33603 0.70802 0.53527 0.0
C321 C 0.27213 0.77116 0.47012 0.0
H322 H 0.18753 0.80043 0.53441 0.0
C323 C 0.1009 0.87068 0.44233 0.0
C324 C 0.10754 0.91118 0.46016 0.0
C325 C 0.13163 0.83813 0.45204 0.0
C326 C 0.21124 0.79267 0.51643 0.0
H327 H 0.35252 0.63032 0.46386 0.0
H328 H 0.29836 0.6894 0.45439 0.0
H329 H 0.24612 0.74436 0.54424 0.0
H330 H 0.14815 0.94775 0.50369 0.0
H331 H 0.2011 0.88965 0.52133 0.0
H332 H 0.23511 0.8182 0.44183 0.0
C333 C 0.31785 0.68619 0.47855 0.0
C334 C 0.24512 0.76079 0.52204 0.0
C335 C 0.34871 0.65219 0.48387 0.0
C336 C 0.14215 0.91686 0.48952 0.0
C337 C 0.17258 0.88383 0.49951 0.0
C338 C 0.23757 0.80232 0.46432 0.0
C339 C 0.31066 0.71437 0.50426 0.0
C340 C 0.27587 0.74941 0.49886 0.0
C341 C 0.16893 0.845 0.48011 0.0
C342 C 0.20665 0.81312 0.48731 0.0
H343 H 0.38426 0.66895 0.5648 0.0
H344 H 0.33273 0.72958 0.55556 0.0
H345 H 0.29595 0.76427 0.45202 0.0
H346 H 0.0737 0.86501 0.41994 0.0
H347 H 0.12757 0.8081 0.43702 0.0
C348 C 0.08411 0.04458 0.11337 0.0
C349 C 0.08352 0.00485 0.0957 0.0
C350 C 0.09101 0.0462 0.14676 0.0
C351 C 0.12392 0.98125 0.21819 0.0
H352 H 0.03385 0.05454 0.25502 0.0
C353 C 0.06258 0.95796 0.34237 0.0
C354 C 0.06892 0.99554 0.36349 0.0
C355 C 0.06887 0.96163 0.31037 0.0
C356 C 0.05965 0.03435 0.24513 0.0
H357 H 0.09176 0.93599 0.09879 0.0
H358 H 0.10177 0.93813 0.15733 0.0
H359 H 0.03915 0.05578 0.19809 0.0
H360 H 0.0852 0.06668 0.367 0.0
H361 H 0.09427 0.0731 0.31045 0.0
H362 H 0.14212 0.95838 0.26531 0.0
C363 C 0.09835 0.96845 0.14554 0.0
C364 C 0.06303 0.03514 0.21249 0.0
C365 C 0.09258 0.96709 0.11199 0.0
C366 C 0.07968 0.0371 0.35139 0.0
C367 C 0.08521 0.04079 0.31911 0.0
C368 C 0.11988 0.98 0.25077 0.0
C369 C 0.09606 0.00783 0.1633 0.0
C370 C 0.09502 0.00845 0.1985 0.0
C371 C 0.08067 0.003 0.29848 0.0
C372 C 0.08742 0.00631 0.26446 0.0
H373 H 0.07766 0.07427 0.10126 0.0
H374 H 0.09077 0.0774 0.15954 0.0
H375 H 0.14959 0.9608 0.20848 0.0
H376 H 0.05284 0.92547 0.35058 0.0
H377 H 0.06399 0.93205 0.29479 0.0
C378 C 0.98336 0.96715 0.88734 0.0
C379 C 0.9728 0.00101 0.90775 0.0
C380 C 0.97208 0.96895 0.85413 0.0
C381 C 0.96531 0.04598 0.79196 0.0
H382 H 0.89832 0.94422 0.7368 0.0
C383 C 0.94563 0.04443 0.65312 0.0
C384 C 0.9536 0.00518 0.63752 0.0
C385 C 0.94137 0.04605 0.68579 0.0
C386 C 0.91757 0.97284 0.75182 0.0
H387 H 0.94144 0.06303 0.90947 0.0
H388 H 0.92274 0.06663 0.85099 0.0
H389 H 0.90125 0.94259 0.79464 0.0
H390 H 0.96526 0.9374 0.64399 0.0
H391 H 0.95928 0.94036 0.70082 0.0
H392 H 0.98401 0.07555 0.7494 0.0
C393 C 0.93928 0.03856 0.86091 0.0
C394 C 0.91885 0.97195 0.78492 0.0
C395 C 0.94967 0.03635 0.89427 0.0
C396 C 0.95812 0.96788 0.65526 0.0
C397 C 0.95438 0.96957 0.68784 0.0
C398 C 0.96462 0.04671 0.75881 0.0
C399 C 0.95081 0.005 0.84058 0.0
C400 C 0.94359 0.00817 0.80535 0.0
C401 C 0.94549 0.00853 0.70353 0.0
C402 C 0.94175 0.00975 0.73838 0.0
H403 H 1.00116 0.93951 0.89706 0.0
H404 H 0.98179 0.94285 0.83901 0.0
H405 H 0.98505 0.07422 0.80725 0.0
H406 H 0.94171 0.0736 0.63992 0.0
H407 H 0.93412 0.07651 0.697 0.0
C408 C 0.5924 0.46517 0.61189 0.0
C409 C 0.58333 0.50292 0.59556 0.0
C410 C 0.59809 0.46656 0.64543 0.0
C411 C 0.56298 0.53342 0.71239 0.0
H412 H 0.64171 0.45637 0.76515 0.0
C413 C 0.57996 0.53543 0.85126 0.0
C414 C 0.56814 0.49394 0.86325 0.0
C415 C 0.58578 0.53904 0.81902 0.0
C416 C 0.6196 0.47807 0.75062 0.0
H417 H 0.57736 0.57232 0.60107 0.0
H418 H 0.59039 0.57551 0.65934 0.0
H419 H 0.64918 0.45878 0.70831 0.0
H420 H 0.55074 0.42393 0.85018 0.0
H421 H 0.56255 0.43038 0.79449 0.0
H422 H 0.534 0.55295 0.75496 0.0
C423 C 0.59065 0.5443 0.64659 0.0
C424 C 0.62362 0.47932 0.71804 0.0
C425 C 0.58379 0.54264 0.6132 0.0
C426 C 0.56128 0.45635 0.84208 0.0
C427 C 0.56792 0.45995 0.81013 0.0
C428 C 0.55967 0.53266 0.74503 0.0
C429 C 0.59577 0.50596 0.66316 0.0
C430 C 0.59481 0.50661 0.69836 0.0
C431 C 0.58056 0.50124 0.79834 0.0
C432 C 0.58732 0.50453 0.76433 0.0
H433 H 0.59171 0.43408 0.59871 0.0
H434 H 0.60154 0.43625 0.65722 0.0
H435 H 0.53916 0.55412 0.69802 0.0
H436 H 0.58598 0.56501 0.86689 0.0
H437 H 0.59551 0.5713 0.81042 0.0
C438 C 0.45251 0.53395 0.39364 0.0
C439 C 0.47607 0.49884 0.40716 0.0
C440 C 0.44228 0.53618 0.36029 0.0
C441 C 0.42279 0.46979 0.28431 0.0
H442 H 0.48614 0.57421 0.2489 0.0
C443 C 0.45977 0.46749 0.15414 0.0
C444 C 0.45462 0.50498 0.1367 0.0
C445 C 0.45666 0.46873 0.1868 0.0
C446 C 0.46726 0.54513 0.25827 0.0
H447 H 0.50542 0.43776 0.39654 0.0
H448 H 0.48634 0.44114 0.33847 0.0
H449 H 0.48774 0.57245 0.30675 0.0
H450 H 0.44218 0.57324 0.13968 0.0
H451 H 0.43559 0.57533 0.19688 0.0
H452 H 0.4021 0.44229 0.23614 0.0
C453 C 0.47617 0.46705 0.35357 0.0
C454 C 0.46828 0.54416 0.29143 0.0
C455 C 0.48729 0.46523 0.38679 0.0
C456 C 0.4466 0.54394 0.15265 0.0
C457 C 0.44293 0.54509 0.1854 0.0
C458 C 0.42115 0.47093 0.2512 0.0
C459 C 0.45441 0.50287 0.33999 0.0
C460 C 0.44717 0.50608 0.30478 0.0
C461 C 0.44774 0.5074 0.20286 0.0
C462 C 0.44462 0.50817 0.23779 0.0
H463 H 0.44374 0.56044 0.4088 0.0
H464 H 0.42532 0.56407 0.35035 0.0
H465 H 0.40566 0.44023 0.29401 0.0
H466 H 0.46691 0.43722 0.14256 0.0
H467 H 0.46206 0.4394 0.19955 0.0
loop_
_geom_bond_atom_site_label_1
_geom_bond_atom_site_label_2
_geom_bond_distance
_geom_bond_site_symmetry_2
_ccdc_geom_bond_type
Co0 N5 2.057 . S
Co0 O17 2.021 . S
Co0 O20 2.062 1_455 S
Co0 O24 2.117 1_554 S
Co0 O25 2.020 1_565 S
C1 O21 1.259 1_455 S
C1 O24 1.258 1_545 S
Co2 N11 2.066 . S
Co2 O18 2.146 1_655 S
Co2 O19 2.024 1_544 S
Co2 O21 1.989 1_554 S
Co2 O26 2.059 1_655 S
C3 N5 1.316 . S
C3 N6 1.347 . S
C3 H8 0.931 . S
C4 N5 1.375 1_556 S
C4 C7 1.350 . S
C4 H9 0.930 . S
N5 Co0 2.057 . S
N5 C3 1.316 . S
N5 C4 1.375 1_554 S
N6 C3 1.347 . S
N6 C7 1.373 1_554 S
C7 C4 1.350 . S
C7 N6 1.373 1_556 S
C7 H28 0.931 . S
H8 C3 0.931 . S
H9 C4 0.930 . S
C10 O17 1.259 1_545 S
C10 O18 1.258 . S
N11 Co2 2.066 . S
N11 C12 1.316 1_554 S
N11 C13 1.375 . S
C12 N11 1.316 1_556 S
C12 N14 1.347 1_556 S
C12 H23 0.931 . S
C13 N11 1.375 . S
C13 C15 1.350 . S
C13 H22 0.930 . S
N14 C12 1.347 1_554 S
N14 C15 1.373 . S
C15 C13 1.350 . S
C15 N14 1.373 . S
C15 H29 0.931 . S
C16 O19 1.255 1_554 S
C16 O20 1.255 . S
O17 Co0 2.021 . S
O17 C10 1.259 1_565 S
O18 Co2 2.146 1_455 S
O18 C10 1.258 . S
O19 Co2 2.024 1_566 S
O19 C16 1.255 1_556 S
O20 Co0 2.062 1_655 S
O20 C16 1.255 . S
O21 C1 1.259 1_655 S
O21 Co2 1.989 1_556 S
H22 C13 0.930 . S
H23 C12 0.931 . S
O24 Co0 2.117 1_556 S
O24 C1 1.258 1_565 S
O25 Co0 2.020 1_545 S
O25 C27 1.256 . S
O26 Co2 2.059 1_455 S
O26 C27 1.255 . S
C27 O25 1.256 . S
C27 O26 1.255 . S
H28 C7 0.931 . S
H29 C15 0.931 . S
Co30 N35 2.057 . S
Co30 O47 2.021 . S
Co30 O50 2.062 . S
Co30 O54 2.117 . S
Co30 O55 2.020 . S
C31 O51 1.259 . S
C31 O54 1.258 . S
Co32 N41 2.057 . S
Co32 O48 2.117 . S
Co32 O49 2.020 . S
Co32 O51 2.021 . S
Co32 O56 2.062 . S
C33 N35 1.316 . S
C33 N36 1.347 . S
C33 H38 0.931 . S
C34 N35 1.375 . S
C34 C37 1.350 . S
C34 H39 0.930 . S
N35 Co30 2.057 . S
N35 C33 1.316 . S
N35 C34 1.375 . S
N36 C33 1.347 . S
N36 C37 1.373 . S
C37 C34 1.350 . S
C37 N36 1.373 . S
C37 H58 0.931 . S
H38 C33 0.931 . S
H39 C34 0.930 . S
C40 O47 1.259 . S
C40 O48 1.258 . S
N41 Co32 2.057 . S
N41 C42 1.316 . S
N41 C43 1.375 . S
C42 N41 1.316 . S
C42 N44 1.347 . S
C42 H53 0.931 . S
C43 N41 1.375 . S
C43 C45 1.350 . S
C43 H52 0.930 . S
N44 C42 1.347 . S
N44 C45 1.373 . S
C45 C43 1.350 . S
C45 N44 1.373 . S
C45 H59 0.931 . S
C46 O49 1.256 . S
C46 O50 1.255 . S
O47 Co30 2.021 . S
O47 C40 1.259 . S
O48 Co32 2.117 . S
O48 C40 1.258 . S
O49 Co32 2.020 . S
O49 C46 1.256 . S
O50 Co30 2.062 . S
O50 C46 1.255 . S
O51 C31 1.259 . S
O51 Co32 2.021 . S
H52 C43 0.930 . S
H53 C42 0.931 . S
O54 Co30 2.117 . S
O54 C31 1.258 . S
O55 Co30 2.020 . S
O55 C57 1.256 . S
O56 Co32 2.062 . S
O56 C57 1.255 . S
C57 O55 1.256 . S
C57 O56 1.255 . S
H58 C37 0.931 . S
H59 C45 0.931 . S
H60 C65 0.930 . S
H61 C68 0.930 1_655 S
H62 C70 0.930 . S
H63 C64 1.016 . S
C64 H63 1.016 . S
C64 N71 1.286 . S
C65 H60 0.930 . S
C65 C66 1.397 . S
C65 C67 1.361 1_565 S
C66 C65 1.397 . S
C66 C70 1.390 . S
C67 C65 1.361 1_545 S
C67 C68 1.393 . S
C67 N71 1.413 1_455 S
C68 H61 0.930 1_455 S
C68 C67 1.393 . S
C68 C69 1.399 1_545 S
C69 C68 1.399 1_565 S
C69 C70 1.381 . S
C70 H62 0.930 . S
C70 C66 1.390 . S
C70 C69 1.381 . S
N71 C64 1.286 . S
N71 C67 1.413 1_655 S
H72 C77 0.930 . S
H73 C80 0.930 . S
H74 C82 0.930 . S
H75 C76 1.016 . S
C76 H75 1.016 . S
C76 N83 1.286 . S
C77 H72 0.930 . S
C77 C78 1.397 . S
C77 C79 1.361 1_665 S
C78 C77 1.397 . S
C78 C82 1.390 . S
C79 C77 1.361 1_445 S
C79 C80 1.393 . S
C79 N83 1.413 . S
C80 H73 0.930 . S
C80 C79 1.393 . S
C80 C81 1.399 1_455 S
C81 C80 1.399 1_655 S
C81 C82 1.381 1_545 S
C82 H74 0.930 . S
C82 C78 1.390 . S
C82 C81 1.381 1_565 S
N83 C76 1.286 . S
N83 C79 1.413 . S
H84 C89 0.930 . S
H85 C92 0.930 . S
H86 C94 0.930 . S
H87 C88 1.016 . S
C88 H87 1.016 . S
C88 N95 1.286 . S
C89 H84 0.930 . S
C89 C90 1.397 . S
C89 C91 1.361 . S
C90 C89 1.397 . S
C90 C94 1.390 . S
C91 C89 1.361 . S
C91 C92 1.393 . S
C91 N95 1.413 . S
C92 H85 0.930 . S
C92 C91 1.393 . S
C92 C93 1.399 . S
C93 C92 1.399 . S
C93 C94 1.381 . S
C94 H86 0.930 . S
C94 C90 1.390 . S
C94 C93 1.381 . S
N95 C88 1.286 . S
N95 C91 1.413 . S
H96 C101 0.930 . S
H97 C104 0.930 . S
H98 C106 0.930 . S
H99 C100 1.016 . S
C100 H99 1.016 . S
C100 N107 1.286 . S
C101 H96 0.930 . S
C101 C102 1.397 . S
C101 C103 1.361 . S
C102 C101 1.397 . S
C102 C106 1.390 . S
C103 C101 1.361 . S
C103 C104 1.393 . S
C103 N107 1.413 . S
C104 H97 0.930 . S
C104 C103 1.393 . S
C104 C105 1.399 . S
C105 C104 1.399 . S
C105 C106 1.381 . S
C106 H98 0.930 . S
C106 C102 1.390 . S
C106 C105 1.381 . S
N107 C100 1.286 . S
N107 C103 1.413 . S
C108 C109 1.349 . S
C108 C110 1.327 . S
C108 H133 0.950 . S
C109 C108 1.349 . S
C109 C125 1.349 1_554 S
C110 C108 1.327 . S
C110 C129 1.429 . S
C110 H134 0.950 . S
C111 C128 1.574 1_556 S
C111 C130 1.356 1_556 S
C111 H135 0.960 . S
H112 C116 0.949 . S
C113 C114 1.349 . S
C113 C115 1.327 . S
C113 H136 0.950 . S
C114 C113 1.349 . S
C114 C126 1.349 . S
C115 C113 1.327 . S
C115 C131 1.429 . S
C115 H137 0.950 1_554 S
C116 H112 0.949 . S
C116 C124 1.574 . S
C116 C132 1.368 . S
H117 C125 0.950 . S
H118 C123 0.950 . S
H119 C124 0.949 . S
H120 C126 0.950 . S
H121 C127 0.950 . S
H122 C128 0.949 1_556 S
C123 H118 0.950 . S
C123 C125 1.327 . S
C123 C129 1.429 1_556 S
C124 C116 1.574 . S
C124 H119 0.949 . S
C124 C130 1.368 . S
C125 C109 1.349 1_556 S
C125 H117 0.950 . S
C125 C123 1.327 . S
C126 C114 1.349 . S
C126 H120 0.950 . S
C126 C127 1.327 . S
C127 H121 0.950 . S
C127 C126 1.327 . S
C127 C131 1.429 . S
C128 C111 1.574 1_554 S
C128 H122 0.949 1_554 S
C128 C132 1.368 . S
C129 C110 1.429 . S
C129 C123 1.429 1_554 S
C129 C130 1.523 . S
C130 C111 1.356 1_554 S
C130 C124 1.368 . S
C130 C129 1.523 . S
C131 C115 1.429 . S
C131 C127 1.429 . S
C131 C132 1.523 . S
C132 C116 1.368 . S
C132 C128 1.368 . S
C132 C131 1.523 . S
H133 C108 0.950 . S
H134 C110 0.950 . S
H135 C111 0.960 . S
H136 C113 0.950 . S
H137 C115 0.950 1_556 S
C138 C139 1.349 1_556 S
C138 C140 1.327 . S
C138 H163 0.950 . S
C139 C138 1.349 1_554 S
C139 C155 1.349 . S
C140 C138 1.327 . S
C140 C159 1.429 1_556 S
C140 H164 0.950 . S
C141 C158 1.574 . S
C141 C160 1.368 . S
C141 H165 0.949 . S
H142 C146 0.949 . S
C143 C144 1.349 1_554 S
C143 C145 1.327 . S
C143 H166 0.950 . S
C144 C143 1.349 1_556 S
C144 C156 1.349 . S
C145 C143 1.327 . S
C145 C161 1.429 1_554 S
C145 H167 0.950 . S
C146 H142 0.949 . S
C146 C154 1.574 . S
C146 C162 1.368 . S
H147 C155 0.950 . S
H148 C153 0.950 . S
H149 C154 0.949 . S
H150 C156 0.950 . S
H151 C157 0.950 . S
H152 C158 0.949 . S
C153 H148 0.950 . S
C153 C155 1.327 . S
C153 C159 1.429 . S
C154 C146 1.574 . S
C154 H149 0.949 . S
C154 C160 1.368 1_556 S
C155 C139 1.349 . S
C155 H147 0.950 . S
C155 C153 1.327 . S
C156 C144 1.349 . S
C156 H150 0.950 . S
C156 C157 1.327 . S
C157 H151 0.950 . S
C157 C156 1.327 . S
C157 C161 1.429 . S
C158 C141 1.574 . S
C158 H152 0.949 . S
C158 C162 1.368 1_554 S
C159 C140 1.429 1_554 S
C159 C153 1.429 . S
C159 C160 1.523 . S
C160 C141 1.368 . S
C160 C154 1.368 1_554 S
C160 C159 1.523 . S
C161 C145 1.429 1_556 S
C161 C157 1.429 . S
C161 C162 1.523 . S
C162 C146 1.368 . S
C162 C158 1.368 1_556 S
C162 C161 1.523 . S
H163 C138 0.950 . S
H164 C140 0.950 . S
H165 C141 0.949 . S
H166 C143 0.950 . S
H167 C145 0.950 . S
C168 C169 1.349 . S
C168 C170 1.327 . S
C168 H193 0.950 . S
C169 C168 1.349 . S
C169 C185 1.349 1_554 S
C170 C168 1.327 . S
C170 C189 1.429 . S
C170 H194 0.950 . S
C171 C188 1.574 . S
C171 C190 1.368 1_556 S
C171 H195 0.949 . S
H172 C176 0.949 . S
C173 C174 1.349 . S
C173 C175 1.327 . S
C173 H196 0.950 1_554 S
C174 C173 1.349 . S
C174 C186 1.349 . S
C175 C173 1.327 . S
C175 C191 1.429 . S
C175 H197 0.950 1_554 S
C176 H172 0.949 . S
C176 C184 1.574 . S
C176 C192 1.368 . S
H177 C185 0.950 . S
H178 C183 0.950 . S
H179 C184 0.949 . S
H180 C186 0.950 . S
H181 C187 0.950 . S
H182 C188 0.949 . S
C183 H178 0.950 . S
C183 C185 1.327 . S
C183 C189 1.429 1_556 S
C184 C176 1.574 . S
C184 H179 0.949 . S
C184 C190 1.368 . S
C185 C169 1.349 1_556 S
C185 H177 0.950 . S
C185 C183 1.327 . S
C186 C174 1.349 . S
C186 H180 0.950 . S
C186 C187 1.327 . S
C187 H181 0.950 . S
C187 C186 1.327 . S
C187 C191 1.429 . S
C188 C171 1.574 . S
C188 H182 0.949 . S
C188 C192 1.368 1_556 S
C189 C170 1.429 . S
C189 C183 1.429 1_554 S
C189 C190 1.523 . S
C190 C171 1.368 1_554 S
C190 C184 1.368 . S
C190 C189 1.523 . S
C191 C175 1.429 . S
C191 C187 1.429 . S
C191 C192 1.523 . S
C192 C176 1.368 . S
C192 C188 1.368 1_554 S
C192 C191 1.523 . S
H193 C168 0.950 . S
H194 C170 0.950 . S
H195 C171 0.949 . S
H196 C173 0.950 1_556 S
H197 C175 0.950 1_556 S
C198 C199 1.349 1_554 S
C198 C200 1.327 . S
C198 H223 0.950 . S
C199 C198 1.349 1_556 S
C199 C215 1.349 . S
C200 C198 1.327 . S
C200 C219 1.429 1_554 S
C200 H224 0.950 . S
C201 C218 1.574 . S
C201 C220 1.368 . S
C201 H225 0.949 . S
H202 C206 0.949 . S
C203 C204 1.349 . S
C203 C205 1.327 . S
C203 H226 0.950 . S
C204 C203 1.349 . S
C204 C216 1.349 . S
C205 C203 1.327 . S
C205 C221 1.429 . S
C205 H227 0.950 . S
C206 H202 0.949 . S
C206 C214 1.574 . S
C206 C222 1.368 1_554 S
H207 C215 0.950 . S
H208 C213 0.950 . S
H209 C214 0.949 . S
H210 C216 0.950 1_554 S
H211 C217 0.950 1_554 S
H212 C218 0.949 . S
C213 H208 0.950 . S
C213 C215 1.327 . S
C213 C219 1.429 . S
C214 C206 1.574 . S
C214 H209 0.949 . S
C214 C220 1.368 1_554 S
C215 C199 1.349 . S
C215 H207 0.950 . S
C215 C213 1.327 . S
C216 C204 1.349 . S
C216 H210 0.950 1_556 S
C216 C217 1.327 . S
C217 H211 0.950 1_556 S
C217 C216 1.327 . S
C217 C221 1.429 . S
C218 C201 1.574 . S
C218 H212 0.949 . S
C218 C222 1.368 . S
C219 C200 1.429 1_556 S
C219 C213 1.429 . S
C219 C220 1.523 . S
C220 C201 1.368 . S
C220 C214 1.368 1_556 S
C220 C219 1.523 . S
C221 C205 1.429 . S
C221 C217 1.429 . S
C221 C222 1.523 . S
C222 C206 1.368 1_556 S
C222 C218 1.368 . S
C222 C221 1.523 . S
H223 C198 0.950 . S
H224 C200 0.950 . S
H225 C201 0.949 . S
H226 C203 0.950 . S
H227 C205 0.950 . S
C228 C229 1.349 . S
C228 C230 1.327 . S
C228 H253 0.950 . S
C229 C228 1.349 . S
C229 C245 1.349 . S
C230 C228 1.327 . S
C230 C249 1.429 . S
C230 H254 0.950 . S
C231 C248 1.574 . S
C231 C250 1.368 . S
C231 H255 0.949 . S
H232 C236 0.949 . S
C233 C234 1.349 . S
C233 C235 1.327 . S
C233 H256 0.950 . S
C234 C233 1.349 . S
C234 C246 1.349 . S
C235 C233 1.327 . S
C235 C251 1.429 . S
C235 H257 0.950 . S
C236 H232 0.949 . S
C236 C244 1.574 . S
C236 C252 1.368 . S
H237 C245 0.950 . S
H238 C243 0.950 . S
H239 C244 0.949 . S
H240 C246 0.950 . S
H241 C247 0.950 . S
H242 C248 0.949 . S
C243 H238 0.950 . S
C243 C245 1.327 . S
C243 C249 1.429 . S
C244 C236 1.574 . S
C244 H239 0.949 . S
C244 C250 1.368 . S
C245 C229 1.349 . S
C245 H237 0.950 . S
C245 C243 1.327 . S
C246 C234 1.349 . S
C246 H240 0.950 . S
C246 C247 1.327 . S
C247 H241 0.950 . S
C247 C246 1.327 . S
C247 C251 1.429 . S
C248 C231 1.574 . S
C248 H242 0.949 . S
C248 C252 1.368 . S
C249 C230 1.429 . S
C249 C243 1.429 . S
C249 C250 1.523 . S
C250 C231 1.368 . S
C250 C244 1.368 . S
C250 C249 1.523 . S
C251 C235 1.429 . S
C251 C247 1.429 . S
C251 C252 1.523 . S
C252 C236 1.368 . S
C252 C248 1.368 . S
C252 C251 1.523 . S
H253 C228 0.950 . S
H254 C230 0.950 . S
H255 C231 0.949 . S
H256 C233 0.950 . S
H257 C235 0.950 . S
C258 C259 1.349 . S
C258 C260 1.327 . S
C258 H283 0.950 . S
C259 C258 1.349 . S
C259 C275 1.349 . S
C260 C258 1.327 . S
C260 C279 1.429 . S
C260 H284 0.950 . S
C261 C278 1.574 . S
C261 C280 1.368 . S
C261 H285 0.949 . S
H262 C266 0.949 . S
C263 C264 1.349 . S
C263 C265 1.327 . S
C263 H286 0.950 . S
C264 C263 1.349 . S
C264 C276 1.349 . S
C265 C263 1.327 . S
C265 C281 1.429 . S
C265 H287 0.950 . S
C266 H262 0.949 . S
C266 C274 1.574 . S
C266 C282 1.368 . S
H267 C275 0.950 . S
H268 C273 0.950 . S
H269 C274 0.949 . S
H270 C276 0.950 . S
H271 C277 0.950 . S
H272 C278 0.949 . S
C273 H268 0.950 . S
C273 C275 1.327 . S
C273 C279 1.429 . S
C274 C266 1.574 . S
C274 H269 0.949 . S
C274 C280 1.368 . S
C275 C259 1.349 . S
C275 H267 0.950 . S
C275 C273 1.327 . S
C276 C264 1.349 . S
C276 H270 0.950 . S
C276 C277 1.327 . S
C277 H271 0.950 . S
C277 C276 1.327 . S
C277 C281 1.429 . S
C278 C261 1.574 . S
C278 H272 0.949 . S
C278 C282 1.368 . S
C279 C260 1.429 . S
C279 C273 1.429 . S
C279 C280 1.523 . S
C280 C261 1.368 . S
C280 C274 1.368 . S
C280 C279 1.523 . S
C281 C265 1.429 . S
C281 C277 1.429 . S
C281 C282 1.523 . S
C282 C266 1.368 . S
C282 C278 1.368 . S
C282 C281 1.523 . S
H283 C258 0.950 . S
H284 C260 0.950 . S
H285 C261 0.949 . S
H286 C263 0.950 . S
H287 C265 0.950 . S
C288 C289 1.349 . S
C288 C290 1.327 . S
C288 H313 0.950 . S
C289 C288 1.349 . S
C289 C305 1.349 . S
C290 C288 1.327 . S
C290 C309 1.429 . S
C290 H314 0.950 . S
C291 C308 1.574 . S
C291 C310 1.368 . S
C291 H315 0.949 . S
H292 C296 0.949 . S
C293 C294 1.349 . S
C293 C295 1.327 . S
C293 H316 0.950 . S
C294 C293 1.349 . S
C294 C306 1.349 . S
C295 C293 1.327 . S
C295 C311 1.429 . S
C295 H317 0.950 . S
C296 H292 0.949 . S
C296 C304 1.574 . S
C296 C312 1.368 . S
H297 C305 0.950 . S
H298 C303 0.950 . S
H299 C304 0.949 . S
H300 C306 0.950 . S
H301 C307 0.950 . S
H302 C308 0.949 . S
C303 H298 0.950 . S
C303 C305 1.327 . S
C303 C309 1.429 . S
C304 C296 1.574 . S
C304 H299 0.949 . S
C304 C310 1.368 . S
C305 C289 1.349 . S
C305 H297 0.950 . S
C305 C303 1.327 . S
C306 C294 1.349 . S
C306 H300 0.950 . S
C306 C307 1.327 . S
C307 H301 0.950 . S
C307 C306 1.327 . S
C307 C311 1.429 . S
C308 C291 1.574 . S
C308 H302 0.949 . S
C308 C312 1.368 . S
C309 C290 1.429 . S
C309 C303 1.429 . S
C309 C310 1.523 . S
C310 C291 1.368 . S
C310 C304 1.368 . S
C310 C309 1.523 . S
C311 C295 1.429 . S
C311 C307 1.429 . S
C311 C312 1.523 . S
C312 C296 1.368 . S
C312 C308 1.368 . S
C312 C311 1.523 . S
H313 C288 0.950 . S
H314 C290 0.950 . S
H315 C291 0.949 . S
H316 C293 0.950 . S
H317 C295 0.950 . S
C318 C319 1.349 . S
C318 C320 1.327 . S
C318 H343 0.950 . S
C319 C318 1.349 . S
C319 C335 1.349 . S
C320 C318 1.327 . S
C320 C339 1.429 . S
C320 H344 0.950 . S
C321 C338 1.574 . S
C321 C340 1.368 . S
C321 H345 0.949 . S
H322 C326 0.949 . S
C323 C324 1.349 . S
C323 C325 1.327 . S
C323 H346 0.950 . S
C324 C323 1.349 . S
C324 C336 1.349 . S
C325 C323 1.327 . S
C325 C341 1.429 . S
C325 H347 0.950 . S
C326 H322 0.949 . S
C326 C334 1.574 . S
C326 C342 1.368 . S
H327 C335 0.950 . S
H328 C333 0.950 . S
H329 C334 0.949 . S
H330 C336 0.950 . S
H331 C337 0.950 . S
H332 C338 0.949 . S
C333 H328 0.950 . S
C333 C335 1.327 . S
C333 C339 1.429 . S
C334 C326 1.574 . S
C334 H329 0.949 . S
C334 C340 1.368 . S
C335 C319 1.349 . S
C335 H327 0.950 . S
C335 C333 1.327 . S
C336 C324 1.349 . S
C336 H330 0.950 . S
C336 C337 1.327 . S
C337 H331 0.950 . S
C337 C336 1.327 . S
C337 C341 1.429 . S
C338 C321 1.574 . S
C338 H332 0.949 . S
C338 C342 1.368 . S
C339 C320 1.429 . S
C339 C333 1.429 . S
C339 C340 1.523 . S
C340 C321 1.368 . S
C340 C334 1.368 . S
C340 C339 1.523 . S
C341 C325 1.429 . S
C341 C337 1.429 . S
C341 C342 1.523 . S
C342 C326 1.368 . S
C342 C338 1.368 . S
C342 C341 1.523 . S
H343 C318 0.950 . S
H344 C320 0.950 . S
H345 C321 0.949 . S
H346 C323 0.950 . S
H347 C325 0.950 . S
C348 C349 1.349 . S
C348 C350 1.327 . S
C348 H373 0.950 1_455 S
C349 C348 1.349 . S
C349 C365 1.349 1_545 S
C350 C348 1.327 . S
C350 C369 1.429 . S
C350 H374 0.950 1_455 S
C351 C368 1.574 . S
C351 C370 1.368 1_565 S
C351 H375 0.949 . S
H352 C356 0.949 1_655 S
C353 C354 1.349 1_565 S
C353 C355 1.327 . S
C353 H376 0.950 . S
C354 C353 1.349 1_545 S
C354 C366 1.349 . S
C355 C353 1.327 . S
C355 C371 1.429 1_565 S
C355 H377 0.950 . S
C356 H352 0.949 1_455 S
C356 C364 1.574 . S
C356 C372 1.368 . S
H357 C365 0.950 . S
H358 C363 0.950 . S
H359 C364 0.949 1_655 S
H360 C366 0.950 1_655 S
H361 C367 0.950 1_655 S
H362 C368 0.949 . S
C363 H358 0.950 . S
C363 C365 1.327 . S
C363 C369 1.429 1_565 S
C364 C356 1.574 . S
C364 H359 0.949 1_455 S
C364 C370 1.368 . S
C365 C349 1.349 1_565 S
C365 H357 0.950 . S
C365 C363 1.327 . S
C366 C354 1.349 . S
C366 H360 0.950 1_455 S
C366 C367 1.327 . S
C367 H361 0.950 1_455 S
C367 C366 1.327 . S
C367 C371 1.429 . S
C368 C351 1.574 . S
C368 H362 0.949 . S
C368 C372 1.368 1_565 S
C369 C350 1.429 . S
C369 C363 1.429 1_545 S
C369 C370 1.523 . S
C370 C351 1.368 1_545 S
C370 C364 1.368 . S
C370 C369 1.523 . S
C371 C355 1.429 1_545 S
C371 C367 1.429 . S
C371 C372 1.523 . S
C372 C356 1.368 . S
C372 C368 1.368 1_545 S
C372 C371 1.523 . S
H373 C348 0.950 1_655 S
H374 C350 0.950 1_655 S
H375 C351 0.949 . S
H376 C353 0.950 . S
H377 C355 0.950 . S
C378 C379 1.349 1_665 S
C378 C380 1.327 . S
C378 H403 0.950 . S
C379 C378 1.349 1_445 S
C379 C395 1.349 . S
C380 C378 1.327 . S
C380 C399 1.429 1_665 S
C380 H404 0.950 . S
C381 C398 1.574 . S
C381 C400 1.368 . S
C381 H405 0.949 . S
H382 C386 0.949 . S
C383 C384 1.349 1_455 S
C383 C385 1.327 . S
C383 H406 0.950 . S
C384 C383 1.349 1_655 S
C384 C396 1.349 1_545 S
C385 C383 1.327 . S
C385 C401 1.429 1_455 S
C385 H407 0.950 . S
C386 H382 0.949 . S
C386 C394 1.574 . S
C386 C402 1.373 1_565 S
H387 C395 0.950 . S
H388 C393 0.950 . S
H389 C394 0.949 . S
H390 C396 0.950 . S
H391 C397 0.950 . S
H392 C398 0.949 . S
C393 H388 0.950 . S
C393 C395 1.327 . S
C393 C399 1.429 . S
C394 C386 1.574 . S
C394 H389 0.949 . S
C394 C400 1.368 1_665 S
C395 C379 1.349 . S
C395 H387 0.950 . S
C395 C393 1.327 . S
C396 C384 1.349 1_565 S
C396 H390 0.950 . S
C396 C397 1.327 . S
C397 H391 0.950 . S
C397 C396 1.327 . S
C397 C401 1.429 1_565 S
C398 C381 1.574 . S
C398 H392 0.949 . S
C398 C402 1.365 1_455 S
C399 C380 1.429 1_445 S
C399 C393 1.429 . S
C399 C400 1.523 . S
C400 C381 1.368 . S
C400 C394 1.368 1_445 S
C400 C399 1.523 . S
C401 C385 1.429 1_655 S
C401 C397 1.429 1_545 S
C401 C402 1.522 . S
C402 C386 1.373 1_545 S
C402 C398 1.365 1_655 S
C402 C401 1.522 . S
H403 C378 0.950 . S
H404 C380 0.950 . S
H405 C381 0.949 . S
H406 C383 0.950 . S
H407 C385 0.950 . S
C408 C409 1.349 . S
C408 C410 1.327 . S
C408 H433 0.950 . S
C409 C408 1.349 . S
C409 C425 1.349 . S
C410 C408 1.327 . S
C410 C429 1.429 . S
C410 H434 0.950 . S
C411 C428 1.574 . S
C411 C430 1.368 . S
C411 H435 0.949 . S
H412 C416 0.949 . S
C413 C414 1.349 . S
C413 C415 1.327 . S
C413 H436 0.950 . S
C414 C413 1.349 . S
C414 C426 1.349 . S
C415 C413 1.327 . S
C415 C431 1.429 . S
C415 H437 0.950 . S
C416 H412 0.949 . S
C416 C424 1.574 . S
C416 C432 1.368 . S
H417 C425 0.950 . S
H418 C423 0.950 . S
H419 C424 0.949 . S
H420 C426 0.950 . S
H421 C427 0.950 . S
H422 C428 0.949 . S
C423 H418 0.950 . S
C423 C425 1.327 . S
C423 C429 1.429 . S
C424 C416 1.574 . S
C424 H419 0.949 . S
C424 C430 1.368 . S
C425 C409 1.349 . S
C425 H417 0.950 . S
C425 C423 1.327 . S
C426 C414 1.349 . S
C426 H420 0.950 . S
C426 C427 1.327 . S
C427 H421 0.950 . S
C427 C426 1.327 . S
C427 C431 1.429 . S
C428 C411 1.574 . S
C428 H422 0.949 . S
C428 C432 1.368 . S
C429 C410 1.429 . S
C429 C423 1.429 . S
C429 C430 1.523 . S
C430 C411 1.368 . S
C430 C424 1.368 . S
C430 C429 1.523 . S
C431 C415 1.429 . S
C431 C427 1.429 . S
C431 C432 1.523 . S
C432 C416 1.368 . S
C432 C428 1.368 . S
C432 C431 1.523 . S
H433 C408 0.950 . S
H434 C410 0.950 . S
H435 C411 0.949 . S
H436 C413 0.950 . S
H437 C415 0.950 . S
C438 C439 1.349 . S
C438 C440 1.327 . S
C438 H463 0.950 . S
C439 C438 1.349 . S
C439 C455 1.349 . S
C440 C438 1.327 . S
C440 C459 1.429 . S
C440 H464 0.950 . S
C441 C458 1.574 . S
C441 C460 1.368 . S
C441 H465 0.949 . S
H442 C446 0.949 . S
C443 C444 1.349 . S
C443 C445 1.327 . S
C443 H466 0.950 . S
C444 C443 1.349 . S
C444 C456 1.349 . S
C445 C443 1.327 . S
C445 C461 1.429 . S
C445 H467 0.950 . S
C446 H442 0.949 . S
C446 C454 1.574 . S
C446 C462 1.368 . S
H447 C455 0.950 . S
H448 C453 0.950 . S
H449 C454 0.949 . S
H450 C456 0.950 . S
H451 C457 0.950 . S
H452 C458 0.949 . S
C453 H448 0.950 . S
C453 C455 1.327 . S
C453 C459 1.429 . S
C454 C446 1.574 . S
C454 H449 0.949 . S
C454 C460 1.368 . S
C455 C439 1.349 . S
C455 H447 0.950 . S
C455 C453 1.327 . S
C456 C444 1.349 . S
C456 H450 0.950 . S
C456 C457 1.327 . S
C457 H451 0.950 . S
C457 C456 1.327 . S
C457 C461 1.429 . S
C458 C441 1.574 . S
C458 H452 0.949 . S
C458 C462 1.368 . S
C459 C440 1.429 . S
C459 C453 1.429 . S
C459 C460 1.523 . S
C460 C441 1.368 . S
C460 C454 1.368 . S
C460 C459 1.523 . S
C461 C445 1.429 . S
C461 C457 1.429 . S
C461 C462 1.523 . S
C462 C446 1.368 . S
C462 C458 1.368 . S
C462 C461 1.523 . S
H463 C438 0.950 . S
H464 C440 0.950 . S
H465 C441 0.949 . S
H466 C443 0.950 . S
H467 C445 0.950 . S
C114 C102 1.439 . S
C109 C27 1.466 . S
C139 N6 1.297 . S
C144 C88 1.312 . S
C169 C16 1.374 . S
C174 C100 1.332 . S
C199 N14 1.424 1_556 S
C204 C90 1.425 . S
C229 C57 1.466 . S
C234 C78 1.439 . S
C259 N36 1.297 . S
C264 C64 1.312 . S
C294 C76 1.332 . S
C289 C46 1.374 . S
C324 C66 1.425 . S
C319 N44 1.424 . S
C349 C10 1.475 . S
C354 C69 1.473 1_545 S
C379 C1 1.543 . S
C384 C81 1.539 . S
C414 C93 1.473 . S
C409 C40 1.475 . S
C439 C31 1.543 . S
C444 C105 1.539 . S
