# Generated by pormake.
# Topology ssa, (4,4)-cn, num edge types: 1
# Building blocks:
#     Node 0, Type 0, BuildingBlock: NAWXER_clean_sbu_0, # of connection points: 4
#     Node 1, Type 0, BuildingBlock: NAWXER_clean_sbu_0, # of connection points: 4
#     Node 2, Type 0, BuildingBlock: NAWXER_clean_sbu_0, # of connection points: 4
#     Node 3, Type 0, BuildingBlock: NAWXER_clean_sbu_0, # of connection points: 4
#     Node 4, Type 0, BuildingBlock: NAWXER_clean_sbu_0, # of connection points: 4
#     Node 5, Type 0, BuildingBlock: NAWXER_clean_sbu_0, # of connection points: 4
#     Node 6, Type 1, BuildingBlock: GIZVER_clean_linker_0, # of connection points: 4
#     Node 7, Type 1, BuildingBlock: GIZVER_clean_linker_0, # of connection points: 4
#     Node 8, Type 1, BuildingBlock: GIZVER_clean_linker_0, # of connection points: 4
#     Node 9, Type 1, BuildingBlock: GIZVER_clean_linker_0, # of connection points: 4
#     Node 10, Type 1, BuildingBlock: GIZVER_clean_linker_0, # of connection points: 4
#     Node 11, Type 1, BuildingBlock: GIZVER_clean_linker_0, # of connection points: 4
#     Edge 12, Type (0, 1), BuildingBlock: ZUJKAS_clean_linker_0, # of connection points: 2
#     Edge 13, Type (0, 1), BuildingBlock: ZUJKAS_clean_linker_0, # of connection points: 2
#     Edge 14, Type (0, 1), BuildingBlock: ZUJKAS_clean_linker_0, # of connection points: 2
#     Edge 15, Type (0, 1), BuildingBlock: ZUJKAS_clean_linker_0, # of connection points: 2
#     Edge 16, Type (0, 1), BuildingBlock: ZUJKAS_clean_linker_0, # of connection points: 2
#     Edge 17, Type (0, 1), BuildingBlock: ZUJKAS_clean_linker_0, # of connection points: 2
#     Edge 18, Type (0, 1), BuildingBlock: ZUJKAS_clean_linker_0, # of connection points: 2
#     Edge 19, Type (0, 1), BuildingBlock: ZUJKAS_clean_linker_0, # of connection points: 2
#     Edge 20, Type (0, 1), BuildingBlock: ZUJKAS_clean_linker_0, # of connection points: 2
#     Edge 21, Type (0, 1), BuildingBlock: ZUJKAS_clean_linker_0, # of connection points: 2
#     Edge 22, Type (0, 1), BuildingBlock: ZUJKAS_clean_linker_0, # of connection points: 2
#     Edge 23, Type (0, 1), BuildingBlock: ZUJKAS_clean_linker_0, # of connection points: 2
#     Edge 24, Type (0, 1), BuildingBlock: ZUJKAS_clean_linker_0, # of connection points: 2
#     Edge 25, Type (0, 1), BuildingBlock: ZUJKAS_clean_linker_0, # of connection points: 2
#     Edge 26, Type (0, 1), BuildingBlock: ZUJKAS_clean_linker_0, # of connection points: 2
#     Edge 27, Type (0, 1), BuildingBlock: ZUJKAS_clean_linker_0, # of connection points: 2
#     Edge 28, Type (0, 1), BuildingBlock: ZUJKAS_clean_linker_0, # of connection points: 2
#     Edge 29, Type (0, 1), BuildingBlock: ZUJKAS_clean_linker_0, # of connection points: 2
#     Edge 30, Type (0, 1), BuildingBlock: ZUJKAS_clean_linker_0, # of connection points: 2
#     Edge 31, Type (0, 1), BuildingBlock: ZUJKAS_clean_linker_0, # of connection points: 2
#     Edge 32, Type (0, 1), BuildingBlock: ZUJKAS_clean_linker_0, # of connection points: 2
#     Edge 33, Type (0, 1), BuildingBlock: ZUJKAS_clean_linker_0, # of connection points: 2
#     Edge 34, Type (0, 1), BuildingBlock: ZUJKAS_clean_linker_0, # of connection points: 2
#     Edge 35, Type (0, 1), BuildingBlock: ZUJKAS_clean_linker_0, # of connection points: 2
# Relax obj value: 0.007
# Max RMSD: 0.038
# Mean RMSD: 0.029
data_MOF--net-ssa--node1-NAWXER_clean_sbu_0--node2-GIZVER_clean_linker_0--edge1-ZUJKAS_clean_linker_0
_symmetry_space_group_name_H-M    P1
_symmetry_Int_Tables_number       1
_symmetry_cell_setting            triclinic
loop_
_symmetry_equiv_pos_as_xyz
'x, y, z'
_cell_length_a     68.499252
_cell_length_b     68.458587
_cell_length_c     36.243571
_cell_angle_alpha  89.7804
_cell_angle_beta   89.968462
_cell_angle_gamma 119.92854
loop_
_atom_site_label
_atom_site_type_symbol
_atom_site_fract_x
_atom_site_fract_y
_atom_site_fract_z
_atom_type_partial_charge
C0 C 0.04148 0.528 0.99806 0.0
C1 C 0.98726 0.45192 0.95794 0.0
O2 O 0.02765 0.5161 0.02368 0.0
Zn3 Zn 0.99943 0.48256 0.03072 0.0
O4 O 0.03982 0.51951 0.96631 0.0
Zn5 Zn 0.01474 0.48997 0.97799 0.0
O6 O 0.98761 0.49703 0.9848 0.0
O7 O 0.97488 0.48795 0.04182 0.0
O8 O 0.00344 0.46753 0.9398 0.0
O9 O 0.98418 0.45535 0.99168 0.0
O10 O 0.01012 0.471 0.06942 0.0
O11 O 0.0292 0.47712 0.01749 0.0
C12 C 0.97387 0.4955 0.01023 0.0
C13 C 0.02593 0.4708 0.05142 0.0
C14 C 0.49502 0.02661 0.52866 0.0
C15 C 0.51684 0.97218 0.48846 0.0
O16 O 0.49604 0.01157 0.54786 0.0
Zn17 Zn 0.50573 0.9991 0.50894 0.0
O18 O 0.49986 0.02839 0.49418 0.0
Zn19 Zn 0.51066 0.01242 0.45471 0.0
O20 O 0.48646 1.00026 0.4196 0.0
O21 O 0.47664 0.98282 0.47345 0.0
O22 O 0.51711 0.98493 0.46217 0.0
O23 O 0.51147 0.97483 0.52086 0.0
O24 O 0.53903 0.02642 0.49695 0.0
O25 O 0.53961 0.03706 0.43924 0.0
C26 C 0.47163 0.98492 0.44009 0.0
C27 C 0.54974 0.03939 0.46968 0.0
C28 C 0.49367 0.46945 0.97644 0.0
C29 C 0.51283 0.54491 0.01704 0.0
O30 O 0.49287 0.48477 0.9577 0.0
Zn31 Zn 0.50286 0.50726 0.99616 0.0
O32 O 0.49955 0.47302 0.01041 0.0
Zn33 Zn 0.50973 0.49954 0.04982 0.0
O34 O 0.48615 0.48667 0.08649 0.0
O35 O 0.47478 0.4936 0.03362 0.0
O36 O 0.5145 0.53286 0.04273 0.0
O37 O 0.50678 0.5367 0.98491 0.0
O38 O 0.53696 0.515 0.00558 0.0
O39 O 0.53954 0.50526 0.06276 0.0
C40 C 0.47061 0.4865 0.06708 0.0
C41 C 0.54872 0.51342 0.03174 0.0
C42 C 0.0251 0.55738 0.45027 0.0
C43 C 0.97434 0.48028 0.49111 0.0
O44 O 0.02862 0.55421 0.48394 0.0
Zn45 Zn 0.01448 0.52706 0.52342 0.0
O46 O 0.0093 0.54132 0.43251 0.0
Zn47 Zn 0.99918 0.51882 0.47094 0.0
O48 O 0.98308 0.52975 0.51028 0.0
O49 O 0.0029 0.53802 0.56153 0.0
O50 O 0.97523 0.48885 0.45955 0.0
O51 O 0.98783 0.4926 0.51662 0.0
O52 O 0.03985 0.52335 0.53524 0.0
O53 O 0.02761 0.51365 0.47822 0.0
C54 C 0.98623 0.53654 0.54383 0.0
C55 C 0.04149 0.51598 0.50394 0.0
C56 C 0.52438 0.98664 0.04153 0.0
C57 C 0.50187 0.0399 0.99667 0.0
O58 O 0.52339 0.00201 0.05958 0.0
Zn59 Zn 0.51348 0.01365 0.01957 0.0
O60 O 0.51922 0.984 0.00718 0.0
Zn61 Zn 0.50773 0.99889 0.96645 0.0
O62 O 0.53146 0.01031 0.93021 0.0
O63 O 0.54204 0.02875 0.98285 0.0
O64 O 0.50094 0.02619 0.97178 0.0
O65 O 0.5084 0.03867 0.02898 0.0
O66 O 0.48005 0.98598 0.00998 0.0
O67 O 0.47853 0.97411 0.95294 0.0
C68 C 0.54659 0.02597 0.9496 0.0
C69 C 0.46893 0.97243 0.98374 0.0
C70 C 0.55437 0.51706 0.5609 0.0
C71 C 0.47892 0.49663 0.51832 0.0
O72 O 0.53869 0.51771 0.57859 0.0
Zn73 Zn 0.51654 0.50707 0.53972 0.0
O74 O 0.55121 0.51079 0.52708 0.0
Zn75 Zn 0.52468 0.4998 0.48706 0.0
O76 O 0.5372 0.523 0.44935 0.0
O77 O 0.52978 0.5347 0.50127 0.0
O78 O 0.49096 0.49455 0.49313 0.0
O79 O 0.48724 0.50339 0.55021 0.0
O80 O 0.50878 0.47273 0.53171 0.0
O81 O 0.51926 0.46996 0.47526 0.0
C82 C 0.53685 0.53857 0.46781 0.0
C83 C 0.51067 0.46085 0.50614 0.0
H84 H 0.22744 0.48433 0.23951 0.0
H85 H 0.23256 0.49107 0.35766 0.0
H86 H 0.16765 0.46019 0.305 0.0
H87 H 0.26286 0.51136 0.26856 0.0
H88 H 0.26459 0.51542 0.31721 0.0
H89 H 0.26989 0.48318 0.24057 0.0
H90 H 0.30586 0.45965 0.30717 0.0
H91 H 0.27264 0.49165 0.35847 0.0
C92 C 0.21946 0.48087 0.26644 0.0
C93 C 0.19593 0.47026 0.26899 0.0
C94 C 0.23276 0.48811 0.29849 0.0
C95 C 0.22226 0.48474 0.33313 0.0
C96 C 0.19871 0.47469 0.33594 0.0
C97 C 0.18572 0.46694 0.30368 0.0
C98 C 0.25804 0.50223 0.29546 0.0
C99 C 0.26926 0.48816 0.29924 0.0
C100 C 0.27477 0.48014 0.2675 0.0
C101 C 0.28784 0.46963 0.27019 0.0
C102 C 0.29456 0.46641 0.30518 0.0
C103 C 0.28924 0.47426 0.33722 0.0
C104 C 0.27631 0.48493 0.33408 0.0
H105 H 0.75001 0.2293 0.64392 0.0
H106 H 0.73883 0.21707 0.76073 0.0
H107 H 0.70854 0.16185 0.68501 0.0
H108 H 0.75211 0.25868 0.68958 0.0
H109 H 0.75378 0.25442 0.73764 0.0
H110 H 0.78377 0.26653 0.64762 0.0
H111 H 0.84864 0.29985 0.69963 0.0
H112 H 0.78905 0.26199 0.76528 0.0
C113 C 0.74318 0.2176 0.66687 0.0
C114 C 0.72957 0.19443 0.65999 0.0
C115 C 0.74695 0.22587 0.70323 0.0
C116 C 0.73699 0.21069 0.73286 0.0
C117 C 0.72291 0.1876 0.72628 0.0
C118 C 0.71989 0.17962 0.69 0.0
C119 C 0.75838 0.25091 0.70998 0.0
C120 C 0.78367 0.2622 0.70662 0.0
C121 C 0.79408 0.26992 0.67203 0.0
C122 C 0.8176 0.2833 0.66915 0.0
C123 C 0.83066 0.28828 0.70128 0.0
C124 C 0.82062 0.28078 0.73609 0.0
C125 C 0.79706 0.26739 0.73848 0.0
H126 H 0.51651 0.74204 0.19543 0.0
H127 H 0.52657 0.73592 0.31127 0.0
H128 H 0.55103 0.70745 0.23026 0.0
H129 H 0.49437 0.74837 0.24165 0.0
H130 H 0.49725 0.74421 0.2895 0.0
H131 H 0.52157 0.78439 0.21034 0.0
H132 H 0.55346 0.84207 0.28128 0.0
H133 H 0.52192 0.7755 0.32807 0.0
C134 C 0.52387 0.73703 0.21737 0.0
C135 C 0.53511 0.72524 0.20875 0.0
C136 C 0.52111 0.74132 0.25438 0.0
C137 C 0.52946 0.73339 0.28272 0.0
C138 C 0.54041 0.72119 0.27433 0.0
C139 C 0.54365 0.71778 0.23719 0.0
C140 C 0.50698 0.75189 0.26374 0.0
C141 C 0.52135 0.77706 0.26847 0.0
C142 C 0.52714 0.79146 0.2376 0.0
C143 C 0.53894 0.81496 0.24209 0.0
C144 C 0.54548 0.82397 0.27753 0.0
C145 C 0.53919 0.80987 0.30861 0.0
C146 C 0.52737 0.78641 0.30399 0.0
H147 H 0.77532 0.57843 0.75347 0.0
H148 H 0.77688 0.57551 0.87231 0.0
H149 H 0.71393 0.53996 0.81483 0.0
H150 H 0.80951 0.60463 0.78802 0.0
H151 H 0.81007 0.60352 0.83733 0.0
H152 H 0.81977 0.58166 0.75075 0.0
H153 H 0.84433 0.54226 0.80503 0.0
H154 H 0.81507 0.57377 0.8692 0.0
C155 C 0.76671 0.57201 0.77959 0.0
C156 C 0.7432 0.55809 0.78027 0.0
C157 C 0.77908 0.57791 0.81272 0.0
C158 C 0.76762 0.57032 0.84661 0.0
C159 C 0.74415 0.55638 0.84736 0.0
C160 C 0.73218 0.54999 0.81414 0.0
C161 C 0.80432 0.59293 0.81208 0.0
C162 C 0.81562 0.57887 0.8101 0.0
C163 C 0.82228 0.57449 0.77579 0.0
C164 C 0.83252 0.56116 0.77384 0.0
C165 C 0.83575 0.55196 0.80627 0.0
C166 C 0.82971 0.55659 0.84063 0.0
C167 C 0.81958 0.57001 0.84256 0.0
H168 H 0.26637 0.77907 0.14691 0.0
H169 H 0.27666 0.79322 0.26319 0.0
H170 H 0.30392 0.84742 0.18392 0.0
H171 H 0.26429 0.75061 0.19596 0.0
H172 H 0.26061 0.75533 0.24312 0.0
H173 H 0.23397 0.74044 0.15047 0.0
H174 H 0.16722 0.7122 0.19452 0.0
H175 H 0.22437 0.74893 0.26553 0.0
C176 C 0.27228 0.79106 0.16937 0.0
C177 C 0.28472 0.81416 0.16146 0.0
C178 C 0.26856 0.7834 0.20618 0.0
C179 C 0.27817 0.79914 0.23499 0.0
C180 C 0.29141 0.8223 0.22715 0.0
C181 C 0.29362 0.82962 0.19039 0.0
C182 C 0.25713 0.75846 0.21436 0.0
C183 C 0.23202 0.74707 0.20829 0.0
C184 C 0.22293 0.73854 0.17331 0.0
C185 C 0.19954 0.72647 0.16821 0.0
C186 C 0.18524 0.72292 0.1982 0.0
C187 C 0.19394 0.73052 0.23362 0.0
C188 C 0.21743 0.74316 0.23827 0.0
H189 H 0.44182 0.24411 0.80837 0.0
H190 H 0.43978 0.23856 0.68962 0.0
H191 H 0.46954 0.30366 0.74088 0.0
H192 H 0.41533 0.20826 0.77708 0.0
H193 H 0.4162 0.20562 0.72822 0.0
H194 H 0.44266 0.2051 0.81752 0.0
H195 H 0.47793 0.17408 0.7706 0.0
H196 H 0.44406 0.19809 0.6995 0.0
C197 C 0.44615 0.25193 0.78129 0.0
C198 C 0.45704 0.27545 0.77815 0.0
C199 C 0.44027 0.23846 0.74942 0.0
C200 C 0.44508 0.24882 0.71429 0.0
C201 C 0.45536 0.27236 0.71117 0.0
C202 C 0.46179 0.28548 0.74318 0.0
C203 C 0.42695 0.21313 0.75299 0.0
C204 C 0.44226 0.20337 0.75783 0.0
C205 C 0.44858 0.20025 0.7934 0.0
C206 C 0.46186 0.1901 0.79783 0.0
C207 C 0.46879 0.18308 0.7667 0.0
C208 C 0.46224 0.18555 0.73112 0.0
C209 C 0.4493 0.19614 0.72683 0.0
H210 H 0.0521 0.45564 0.0198 0.0
H211 H 0.08008 0.44877 0.05009 0.0
H212 H 0.06453 0.46809 0.15446 0.0
H213 H 0.03575 0.47366 0.12471 0.0
H214 H 0.11695 0.47572 0.08132 0.0
H215 H 0.06526 0.41375 0.18774 0.0
H216 H 0.05278 0.42145 0.15077 0.0
H217 H 0.06235 0.43819 0.19218 0.0
C218 C 0.05438 0.45797 0.04935 0.0
C219 C 0.04159 0.46496 0.06997 0.0
C220 C 0.07041 0.4541 0.06664 0.0
C221 C 0.07421 0.45746 0.1048 0.0
C222 C 0.06143 0.46452 0.12531 0.0
H223 H 0.19646 0.50153 0.22269 0.0
H224 H 0.16764 0.49602 0.17776 0.0
C225 C 0.04505 0.46788 0.1082 0.0
C226 C 0.09257 0.45523 0.12275 0.0
H227 H 0.10522 0.43581 0.20075 0.0
C228 C 0.11427 0.46662 0.10711 0.0
C229 C 0.08917 0.44288 0.15587 0.0
C230 C 0.06605 0.42818 0.17229 0.0
C231 C 0.13276 0.46704 0.12466 0.0
C232 C 0.12972 0.45661 0.15967 0.0
C233 C 0.10781 0.44418 0.17425 0.0
C234 C 0.14897 0.45959 0.1829 0.0
C235 C 0.15527 0.47861 0.10525 0.0
C236 C 0.14816 0.44106 0.2013 0.0
C237 C 0.16434 0.44432 0.22784 0.0
C238 C 0.18186 0.46612 0.23586 0.0
C239 C 0.1834 0.48452 0.21619 0.0
C240 C 0.16695 0.48133 0.19034 0.0
H241 H 0.15308 0.47716 0.07482 0.0
H242 H 0.16416 0.49683 0.112 0.0
H243 H 0.16601 0.47143 0.11355 0.0
H244 H 0.13447 0.42413 0.19627 0.0
H245 H 0.16267 0.42995 0.24318 0.0
H246 H 0.57744 0.04433 0.52699 0.0
H247 H 0.61462 0.07635 0.53987 0.0
H248 H 0.6128 0.10803 0.43798 0.0
H249 H 0.57534 0.07581 0.42452 0.0
H250 H 0.65881 0.10491 0.47386 0.0
H251 H 0.61647 0.14431 0.54935 0.0
H252 H 0.60411 0.11413 0.5522 0.0
H253 H 0.60421 0.12703 0.50901 0.0
C254 C 0.585 0.05791 0.50696 0.0
C255 C 0.57333 0.05761 0.47486 0.0
C256 C 0.6063 0.07613 0.51432 0.0
C257 C 0.61635 0.09443 0.48985 0.0
C258 C 0.60528 0.09391 0.45701 0.0
H259 H 0.71633 0.21277 0.60493 0.0
H260 H 0.69397 0.19313 0.55088 0.0
C261 C 0.58391 0.07554 0.44946 0.0
C262 C 0.63724 0.11484 0.50117 0.0
H263 H 0.65496 0.15831 0.5616 0.0
C264 C 0.65816 0.11699 0.49236 0.0
C265 C 0.63626 0.13065 0.52481 0.0
C266 C 0.61411 0.12914 0.53442 0.0
C267 C 0.67811 0.13388 0.50856 0.0
C268 C 0.67689 0.14848 0.53489 0.0
C269 C 0.65606 0.14721 0.54149 0.0
C270 C 0.69587 0.16284 0.55992 0.0
C271 C 0.70016 0.13549 0.49793 0.0
C272 C 0.70551 0.15293 0.58185 0.0
C273 C 0.71869 0.16432 0.61234 0.0
C274 C 0.72206 0.18565 0.62207 0.0
C275 C 0.71419 0.19642 0.59816 0.0
C276 C 0.70123 0.18512 0.56733 0.0
H277 H 0.69991 0.13077 0.46857 0.0
H278 H 0.71461 0.15274 0.50217 0.0
H279 H 0.70273 0.12346 0.51495 0.0
H280 H 0.70135 0.13565 0.57739 0.0
H281 H 0.72477 0.15569 0.62997 0.0
H282 H 0.51873 0.57869 0.96885 0.0
H283 H 0.52744 0.61712 0.98467 0.0
H284 H 0.52537 0.60105 0.10031 0.0
H285 H 0.5174 0.56328 0.08493 0.0
H286 H 0.50475 0.63299 0.02379 0.0
H287 H 0.585 0.65814 0.09388 0.0
H288 H 0.57132 0.63333 0.06537 0.0
H289 H 0.56352 0.63211 0.11324 0.0
C290 C 0.52028 0.58347 0.99762 0.0
C291 C 0.51766 0.56803 0.02562 0.0
C292 C 0.52526 0.6054 0.00659 0.0
C293 C 0.52767 0.61216 0.04365 0.0
C294 C 0.52439 0.59651 0.07149 0.0
H295 H 0.49875 0.6929 0.17366 0.0
H296 H 0.49905 0.67022 0.12235 0.0
C297 C 0.51967 0.57481 0.06262 0.0
C298 C 0.53284 0.6352 0.0541 0.0
H299 H 0.56454 0.6766 0.1153 0.0
C300 C 0.51815 0.64286 0.04313 0.0
C301 C 0.55082 0.6486 0.07818 0.0
C302 C 0.5687 0.64271 0.08793 0.0
C303 C 0.5197 0.66244 0.05842 0.0
C304 C 0.53583 0.67413 0.08632 0.0
C305 C 0.55182 0.66758 0.0945 0.0
C306 C 0.53478 0.691 0.11088 0.0
C307 C 0.50371 0.67003 0.04494 0.0
C308 C 0.55466 0.71053 0.12168 0.0
C309 C 0.55455 0.72311 0.15195 0.0
C310 C 0.53448 0.7167 0.17123 0.0
C311 C 0.51431 0.69843 0.15856 0.0
C312 C 0.51449 0.68552 0.12897 0.0
H313 H 0.5005 0.66672 0.01494 0.0
H314 H 0.48729 0.66019 0.05934 0.0
H315 H 0.51034 0.68826 0.04992 0.0
H316 H 0.57055 0.71515 0.10834 0.0
H317 H 0.57034 0.73697 0.16171 0.0
H318 H 0.9901 0.55628 0.611 0.0
H319 H 0.96154 0.56129 0.64324 0.0
H320 H 0.91628 0.53184 0.55132 0.0
H321 H 0.94495 0.52735 0.51843 0.0
H322 H 0.91444 0.56776 0.5794 0.0
H323 H 0.90713 0.5094 0.69184 0.0
H324 H 0.93529 0.53253 0.68637 0.0
H325 H 0.92249 0.51232 0.64982 0.0
C326 C 0.97413 0.55102 0.59753 0.0
C327 C 0.96972 0.54123 0.5623 0.0
C328 C 0.95777 0.55378 0.61607 0.0
C329 C 0.93659 0.54646 0.60003 0.0
C330 C 0.93246 0.53748 0.5643 0.0
H331 H 0.82411 0.52213 0.74079 0.0
H332 H 0.84657 0.51793 0.69218 0.0
C333 C 0.94888 0.53491 0.54557 0.0
C334 C 0.91852 0.54751 0.62097 0.0
H335 H 0.88895 0.53079 0.70167 0.0
C336 C 0.90872 0.55957 0.60604 0.0
C337 C 0.91071 0.53637 0.6553 0.0
C338 C 0.91927 0.52173 0.67162 0.0
C339 C 0.89178 0.56134 0.62509 0.0
C340 C 0.88485 0.55119 0.66033 0.0
C341 C 0.89429 0.53868 0.67473 0.0
C342 C 0.86847 0.55379 0.68371 0.0
C343 C 0.88134 0.57381 0.60703 0.0
C344 C 0.87269 0.57532 0.6941 0.0
C345 C 0.85955 0.57769 0.72134 0.0
C346 C 0.84229 0.55859 0.73908 0.0
C347 C 0.83728 0.53708 0.72731 0.0
C348 C 0.85016 0.5347 0.69971 0.0
H349 H 0.88263 0.57367 0.57648 0.0
H350 H 0.86333 0.5664 0.61478 0.0
H351 H 0.8905 0.59166 0.61602 0.0
H352 H 0.88702 0.59031 0.68294 0.0
H353 H 0.86397 0.59445 0.73047 0.0
H354 H 0.43665 0.94682 0.93246 0.0
H355 H 0.39722 0.91811 0.94452 0.0
H356 H 0.40899 0.92894 0.06153 0.0
H357 H 0.44773 0.95791 0.04976 0.0
H358 H 0.37845 0.87897 0.97979 0.0
H359 H 0.35337 0.9333 0.05229 0.0
H360 H 0.3793 0.94477 0.02634 0.0
H361 H 0.37818 0.93622 0.07385 0.0
C362 C 0.4307 0.94315 0.96071 0.0
C363 C 0.44521 0.95482 0.99014 0.0
C364 C 0.40819 0.92678 0.96755 0.0
C365 C 0.39993 0.92182 0.00389 0.0
C366 C 0.41466 0.93306 0.03319 0.0
H367 H 0.31596 0.80959 0.12383 0.0
H368 H 0.3389 0.8335 0.07333 0.0
C369 C 0.43692 0.94953 0.02641 0.0
C370 C 0.37634 0.90423 0.0121 0.0
H371 H 0.33372 0.89368 0.0716 0.0
C372 C 0.36835 0.88223 -0.00085 0.0
C373 C 0.3626 0.90851 0.03603 0.0
C374 C 0.36874 0.93207 0.04748 0.0
C375 C 0.34812 0.8641 0.01261 0.0
C376 C 0.33612 0.86799 0.04078 0.0
C377 C 0.34297 0.89034 0.05066 0.0
C378 C 0.31882 0.84954 0.06427 0.0
C379 C 0.34022 0.84096 0.99699 0.0
C380 C 0.29954 0.85013 0.07614 0.0
C381 C 0.28684 0.83691 0.10607 0.0
C382 C 0.29285 0.82244 0.12383 0.0
C383 C 0.31073 0.82025 0.10987 0.0
C384 C 0.32379 0.83388 0.08071 0.0
H385 H 0.3438 0.84208 0.96691 0.0
H386 H 0.34965 0.83354 0.01023 0.0
H387 H 0.32189 0.82952 0.00142 0.0
H388 H 0.2953 0.86203 0.06407 0.0
H389 H 0.2733 0.83908 0.11689 0.0
H390 H 0.52316 0.4335 0.47007 0.0
H391 H 0.51251 0.39447 0.48622 0.0
H392 H 0.47064 0.39517 0.57445 0.0
H393 H 0.48134 0.43396 0.55901 0.0
H394 H 0.51941 0.38141 0.56218 0.0
H395 H 0.4306 0.33474 0.51611 0.0
H396 H 0.45114 0.36163 0.4966 0.0
H397 H 0.43801 0.36043 0.54016 0.0
C398 C 0.51146 0.42519 0.49259 0.0
C399 C 0.50313 0.43681 0.51336 0.0
C400 C 0.50542 0.40295 0.50175 0.0
C401 C 0.49059 0.3919 0.53121 0.0
C402 C 0.48185 0.4033 0.55127 0.0
H403 H 0.43766 0.2986 0.69389 0.0
H404 H 0.4462 0.32324 0.64044 0.0
C405 C 0.48811 0.42553 0.54255 0.0
C406 C 0.48547 0.36921 0.54369 0.0
H407 H 0.44083 0.3176 0.56497 0.0
C408 C 0.5024 0.36713 0.56191 0.0
C409 C 0.46329 0.35071 0.5431 0.0
C410 C 0.44472 0.35185 0.52264 0.0
C411 C 0.49726 0.34777 0.58272 0.0
C412 C 0.47465 0.32991 0.58459 0.0
C413 C 0.45814 0.33127 0.56358 0.0
C414 C 0.46714 0.31212 0.61344 0.0
C415 C 0.51568 0.34747 0.60513 0.0
C416 C 0.47537 0.29698 0.61546 0.0
C417 C 0.47051 0.28281 0.64635 0.0
C418 C 0.4574 0.28372 0.67539 0.0
C419 C 0.448 0.29777 0.67198 0.0
C420 C 0.4528 0.31179 0.64138 0.0
H421 H 0.53169 0.36386 0.60403 0.0
H422 H 0.51041 0.34339 0.63444 0.0
H423 H 0.51901 0.33427 0.59433 0.0
H424 H 0.48615 0.29668 0.59387 0.0
H425 H 0.47788 0.27206 0.64841 0.0
H426 H 0.52819 0.94851 0.53715 0.0
H427 H 0.53848 0.91981 0.52207 0.0
H428 H 0.52722 0.92637 0.40671 0.0
H429 H 0.5178 0.95532 0.42128 0.0
H430 H 0.51623 0.87934 0.49081 0.0
H431 H 0.58858 0.93336 0.40193 0.0
H432 H 0.57551 0.9448 0.43134 0.0
H433 H 0.56445 0.9345 0.38592 0.0
C434 C 0.52806 0.94388 0.50858 0.0
C435 C 0.52249 0.9544 0.48035 0.0
C436 C 0.53395 0.92751 0.50001 0.0
C437 C 0.53426 0.92139 0.46314 0.0
C438 C 0.52794 0.93138 0.43521 0.0
H439 H 0.50478 0.8052 0.35092 0.0
H440 H 0.50687 0.83078 0.39912 0.0
C441 C 0.52239 0.94786 0.44364 0.0
C442 C 0.54038 0.90409 0.45321 0.0
H443 H 0.56938 0.89324 0.38788 0.0
C444 C 0.52823 0.88245 0.46887 0.0
C445 C 0.55668 0.90825 0.4257 0.0
C446 C 0.57222 0.93159 0.41066 0.0
C447 C 0.53046 0.86444 0.45528 0.0
C448 C 0.54454 0.86802 0.42432 0.0
C449 C 0.55819 0.89013 0.4111 0.0
C450 C 0.54337 0.84919 0.40208 0.0
C451 C 0.51738 0.84177 0.47396 0.0
C452 C 0.56311 0.8506 0.38756 0.0
C453 C 0.56187 0.83636 0.35894 0.0
C454 C 0.54086 0.82009 0.34511 0.0
C455 C 0.52115 0.81729 0.36179 0.0
C456 C 0.52238 0.8319 0.38963 0.0
H457 H 0.5165 0.84382 0.5042 0.0
H458 H 0.49983 0.833 0.4635 0.0
H459 H 0.52503 0.83103 0.46896 0.0
H460 H 0.57952 0.86374 0.39655 0.0
H461 H 0.57727 0.83897 0.34606 0.0
H462 H 0.57484 0.49927 0.06754 0.0
H463 H 0.61215 0.50616 0.04843 0.0
H464 H 0.61334 0.54948 0.96064 0.0
H465 H 0.57605 0.54222 0.97884 0.0
H466 H 0.62006 0.51609 0.93614 0.0
H467 H 0.67658 0.55936 0.05466 0.0
H468 H 0.6513 0.53344 0.06558 0.0
H469 H 0.64938 0.55728 0.0496 0.0
C470 C 0.58331 0.51063 0.04467 0.0
C471 C 0.57247 0.52005 0.02446 0.0
C472 C 0.60466 0.51463 0.03389 0.0
C473 C 0.61558 0.52841 0.00319 0.0
C474 C 0.60521 0.53875 0.98435 0.0
H475 H 0.74292 0.58548 0.89654 0.0
H476 H 0.71295 0.57645 0.94173 0.0
C477 C 0.58388 0.53455 0.99475 0.0
C478 C 0.63648 0.53024 0.98775 0.0
H479 H 0.69227 0.54959 0.00454 0.0
C480 C 0.63583 0.52332 0.95118 0.0
C481 C 0.65701 0.53972 0.00743 0.0
C482 C 0.65879 0.54807 0.0464 0.0
C483 C 0.65519 0.52619 0.93328 0.0
C484 C 0.67576 0.53553 0.95292 0.0
C485 C 0.67641 0.54211 0.98978 0.0
C486 C 0.69693 0.54036 0.93409 0.0
C487 C 0.65359 0.52014 0.89289 0.0
C488 C 0.69868 0.523 0.9167 0.0
C489 C 0.71556 0.52816 0.89051 0.0
C490 C 0.73126 0.55071 0.8822 0.0
C491 C 0.73108 0.56796 0.90277 0.0
C492 C 0.71395 0.56281 0.92851 0.0
H493 H 0.63798 0.51817 0.88004 0.0
H494 H 0.66828 0.53322 0.87723 0.0
H495 H 0.65335 0.50389 0.89006 0.0
H496 H 0.68596 0.50555 0.9212 0.0
H497 H 0.71542 0.51462 0.8749 0.0
H498 H 0.06089 0.59463 0.48022 0.0
H499 H 0.08839 0.6289 0.44821 0.0
H500 H 0.05155 0.60379 0.34668 0.0
H501 H 0.02405 0.56928 0.37835 0.0
H502 H 0.09657 0.61674 0.34077 0.0
H503 H 0.08667 0.68404 0.4078 0.0
H504 H 0.0902 0.66581 0.4395 0.0
H505 H 0.06553 0.65456 0.41094 0.0
C506 C 0.0584 0.59652 0.4512 0.0
C507 C 0.0403 0.57915 0.4318 0.0
C508 C 0.07408 0.61622 0.43302 0.0
C509 C 0.07188 0.61902 0.39518 0.0
C510 C 0.05347 0.60202 0.37597 0.0
H511 H 0.15254 0.72706 0.2424 0.0
H512 H 0.12318 0.70227 0.28613 0.0
C513 C 0.03778 0.5823 0.39412 0.0
C514 C 0.08997 0.63849 0.37487 0.0
H515 H 0.11929 0.69607 0.36988 0.0
C516 C 0.10144 0.63407 0.34703 0.0
C517 C 0.09624 0.66108 0.38303 0.0
C518 C 0.0839 0.66674 0.41172 0.0
C519 C 0.11923 0.6516 0.32745 0.0
C520 C 0.12595 0.67419 0.33629 0.0
C521 C 0.11427 0.67871 0.36364 0.0
C522 C 0.14469 0.69306 0.31613 0.0
C523 C 0.13063 0.64582 0.29717 0.0
C524 C 0.16673 0.69696 0.3199 0.0
C525 C 0.18349 0.71103 0.29495 0.0
C526 C 0.17843 0.72139 0.2658 0.0
C527 C 0.15686 0.71911 0.26435 0.0
C528 C 0.1401 0.70503 0.28934 0.0
H529 H 0.12073 0.62779 0.28917 0.0
H530 H 0.13323 0.6564 0.27232 0.0
H531 H 0.1474 0.64922 0.30686 0.0
H532 H 0.17057 0.68792 0.34058 0.0
H533 H 0.19984 0.71223 0.2967 0.0
H534 H 0.51311 0.07939 0.0329 0.0
H535 H 0.50695 0.10995 0.01126 0.0
H536 H 0.47122 0.07016 0.91661 0.0
H537 H 0.47773 0.04003 0.93742 0.0
H538 H 0.50508 0.11178 0.89786 0.0
H539 H 0.45163 0.11816 0.00728 0.0
H540 H 0.47723 0.11953 0.02267 0.0
H541 H 0.45534 0.09394 0.00287 0.0
C542 C 0.50363 0.07707 0.00781 0.0
C543 C 0.49607 0.05739 0.98671 0.0
C544 C 0.50003 0.09449 0.99557 0.0
C545 C 0.48852 0.09229 0.96239 0.0
C546 C 0.48019 0.07225 0.94224 0.0
H547 H 0.43133 0.1582 0.84378 0.0
H548 H 0.43974 0.13805 0.8915 0.0
C549 C 0.48396 0.05504 0.95417 0.0
C550 C 0.48676 0.11135 0.94637 0.0
H551 H 0.46288 0.14445 0.9581 0.0
C552 C 0.496 0.11905 0.91118 0.0
C553 C 0.47483 0.12073 0.96376 0.0
C554 C 0.46401 0.11261 0.00112 0.0
C555 C 0.49302 0.13524 0.89224 0.0
C556 C 0.4811 0.14469 0.90952 0.0
C557 C 0.47228 0.13743 0.94516 0.0
C558 C 0.47584 0.16035 0.88911 0.0
C559 C 0.50169 0.14114 0.85309 0.0
C560 C 0.4932 0.18043 0.8738 0.0
C561 C 0.48842 0.19174 0.8462 0.0
C562 C 0.46616 0.1835 0.83442 0.0
C563 C 0.44859 0.165 0.85282 0.0
C564 C 0.4534 0.15345 0.87996 0.0
H565 H 0.50581 0.12867 0.84127 0.0
H566 H 0.48911 0.14204 0.83494 0.0
H567 H 0.5173 0.15784 0.85271 0.0
H568 H 0.5106 0.18631 0.88102 0.0
H569 H 0.50222 0.2059 0.83214 0.0
H570 H 0.45035 0.50451 0.56097 0.0
H571 H 0.41394 0.50027 0.54269 0.0
H572 H 0.41935 0.47459 0.43704 0.0
H573 H 0.45563 0.47896 0.45474 0.0
H574 H 0.4112 0.51079 0.43309 0.0
H575 H 0.35102 0.44349 0.52805 0.0
H576 H 0.37523 0.46694 0.54868 0.0
H577 H 0.37896 0.44809 0.51912 0.0
C578 C 0.44362 0.49767 0.53405 0.0
C579 C 0.45596 0.49218 0.50925 0.0
C580 C 0.42277 0.49517 0.52372 0.0
C581 C 0.4139 0.48699 0.48859 0.0
C582 C 0.4259 0.48092 0.4643 0.0
H583 H 0.29392 0.44015 0.36744 0.0
H584 H 0.32234 0.44442 0.41243 0.0
C585 C 0.44666 0.48345 0.47449 0.0
C586 C 0.39304 0.48629 0.47555 0.0
H587 H 0.33582 0.45878 0.48604 0.0
C588 C 0.39473 0.49961 0.44491 0.0
C589 C 0.37162 0.47161 0.491 0.0
C590 C 0.36891 0.45656 0.52339 0.0
C591 C 0.37555 0.49815 0.42842 0.0
C592 C 0.35403 0.48331 0.44357 0.0
C593 C 0.35234 0.47036 0.47484 0.0
C594 C 0.33322 0.4793 0.42443 0.0
C595 C 0.37845 0.51165 0.39372 0.0
C596 C 0.32891 0.49705 0.41809 0.0
C597 C 0.31282 0.49473 0.39204 0.0
C598 C 0.30071 0.47454 0.37221 0.0
C599 C 0.30326 0.45601 0.38188 0.0
C600 C 0.31943 0.4584 0.4077 0.0
H601 H 0.39563 0.51876 0.38178 0.0
H602 H 0.36602 0.50106 0.37246 0.0
H603 H 0.37565 0.52589 0.40021 0.0
H604 H 0.33912 0.51321 0.43126 0.0
H605 H 0.31131 0.50933 0.38523 0.0
H606 H 0.98603 0.44056 0.88524 0.0
H607 H 0.95677 0.40697 0.85425 0.0
H608 H 0.92232 0.38149 0.95799 0.0
H609 H 0.95151 0.41495 0.98934 0.0
H610 H 0.92466 0.34814 0.90987 0.0
H611 H 0.8925 0.39902 0.84057 0.0
H612 H 0.92215 0.40938 0.83485 0.0
H613 H 0.91108 0.40917 0.87988 0.0
C614 C 0.9724 0.4277 0.90159 0.0
C615 C 0.97102 0.43055 0.93973 0.0
C616 C 0.95566 0.40856 0.88381 0.0
C617 C 0.93728 0.39194 0.9038 0.0
C618 C 0.93636 0.39419 0.94209 0.0
H619 H 0.81174 0.29902 0.79624 0.0
H620 H 0.83856 0.32281 0.84327 0.0
C621 C 0.95305 0.41335 0.95991 0.0
C622 C 0.91835 0.37292 0.88442 0.0
H623 H 0.87683 0.36109 0.82174 0.0
C624 C 0.9141 0.35088 0.89071 0.0
C625 C 0.90439 0.37656 0.86 0.0
C626 C 0.90755 0.39977 0.85355 0.0
C627 C 0.8966 0.33242 0.87221 0.0
C628 C 0.8832 0.3362 0.8467 0.0
C629 C 0.88712 0.35819 0.84129 0.0
C630 C 0.86571 0.31799 0.82373 0.0
C631 C 0.89255 0.30905 0.88022 0.0
C632 C 0.87179 0.30669 0.79798 0.0
C633 C 0.85642 0.29291 0.77125 0.0
C634 C 0.83473 0.29035 0.76956 0.0
C635 C 0.82818 0.3004 0.79701 0.0
C636 C 0.84357 0.31416 0.82375 0.0
H637 H 0.89946 0.30818 0.90752 0.0
H638 H 0.87429 0.29643 0.87962 0.0
H639 H 0.90112 0.30442 0.85884 0.0
H640 H 0.88886 0.30965 0.79702 0.0
H641 H 0.86191 0.28531 0.75055 0.0
H642 H 0.93689 0.4874 0.05171 0.0
H643 H 0.90683 0.49528 0.03432 0.0
H644 H 0.94202 0.5261 0.93304 0.0
H645 H 0.97171 0.518 0.9497 0.0
H646 H 0.9064 0.53515 0.0162 0.0
H647 H 0.88038 0.47706 0.89746 0.0
H648 H 0.89884 0.4772 0.93307 0.0
H649 H 0.90986 0.49746 0.89596 0.0
C650 C 0.93825 0.49597 0.02584 0.0
C651 C 0.95654 0.5018 0.00185 0.0
C652 C 0.92108 0.50046 0.01597 0.0
C653 C 0.92197 0.51083 0.98203 0.0
C654 C 0.94072 0.51758 0.95894 0.0
H655 H 0.86393 0.58259 0.88658 0.0
H656 H 0.88259 0.56945 0.92925 0.0
C657 C 0.95774 0.51299 0.9686 0.0
C658 C 0.90319 0.51419 0.96979 0.0
H659 H 0.86826 0.5044 0.89674 0.0
C660 C 0.89775 0.52817 0.99038 0.0
C661 C 0.89149 0.50459 0.93664 0.0
C662 C 0.89525 0.48804 0.91472 0.0
C663 C 0.88189 0.53391 0.97743 0.0
C664 C 0.87162 0.52584 0.94265 0.0
C665 C 0.87616 0.5108 0.92327 0.0
C666 C 0.85771 0.53404 0.92393 0.0
C667 C 0.87645 0.54866 0.00107 0.0
C668 C 0.83729 0.51865 0.90698 0.0
C669 C 0.82693 0.52617 0.88195 0.0
C670 C 0.83657 0.54922 0.87402 0.0
C671 C 0.85596 0.56476 0.89302 0.0
C672 C 0.86657 0.55723 0.91754 0.0
H673 H 0.87825 0.54596 0.03084 0.0
H674 H 0.88851 0.56661 0.99464 0.0
H675 H 0.85908 0.54538 0.99612 0.0
H676 H 0.83014 0.50069 0.9113 0.0
H677 H 0.81216 0.51392 0.86709 0.0
H678 H 0.43617 0.95022 0.47651 0.0
H679 H 0.40015 0.9218 0.4505 0.0
H680 H 0.42015 0.95435 0.34412 0.0
H681 H 0.45606 0.98301 0.3699 0.0
H682 H 0.37464 0.93987 0.36338 0.0
H683 H 0.39634 0.87211 0.38219 0.0
H684 H 0.39731 0.88754 0.42281 0.0
H685 H 0.41707 0.90161 0.38605 0.0
C686 C 0.43285 0.95147 0.44763 0.0
C687 C 0.44911 0.96879 0.42518 0.0
C688 C 0.41227 0.93515 0.43282 0.0
C689 C 0.40764 0.93579 0.39529 0.0
C690 C 0.42344 0.95354 0.37316 0.0
H691 H 0.33557 0.85422 0.22088 0.0
H692 H 0.36007 0.88069 0.26726 0.0
C693 C 0.44399 0.96987 0.38793 0.0
C694 C 0.38693 0.91745 0.37831 0.0
H695 H 0.36242 0.86235 0.35194 0.0
C696 C 0.37172 0.92281 0.36145 0.0
C697 C 0.38323 0.89522 0.37574 0.0
C698 C 0.39938 0.88868 0.39238 0.0
C699 C 0.35337 0.9067 0.34094 0.0
C700 C 0.35024 0.8848 0.33724 0.0
C701 C 0.36482 0.87914 0.35535 0.0
C702 C 0.3345 0.86892 0.30973 0.0
C703 C 0.33808 0.91337 0.32161 0.0
C704 C 0.31194 0.8535 0.31846 0.0
C705 C 0.29767 0.8383 0.29171 0.0
C706 C 0.30582 0.8385 0.25596 0.0
C707 C 0.32852 0.85399 0.24775 0.0
C708 C 0.34264 0.86902 0.2743 0.0
H709 H 0.34153 0.93043 0.32977 0.0
H710 H 0.34041 0.91322 0.29131 0.0
H711 H 0.32021 0.90095 0.32791 0.0
H712 H 0.30547 0.85318 0.34586 0.0
H713 H 0.2803 0.82653 0.29886 0.0
H714 H 0.50271 0.43789 0.00467 0.0
H715 H 0.49651 0.40315 0.97583 0.0
H716 H 0.46674 0.41683 0.88151 0.0
H717 H 0.47364 0.45217 0.90972 0.0
H718 H 0.45966 0.36585 0.95465 0.0
H719 H 0.51379 0.4071 0.83267 0.0
H720 H 0.51318 0.42285 0.87197 0.0
H721 H 0.49154 0.41353 0.83735 0.0
C722 C 0.49482 0.43355 0.97777 0.0
C723 C 0.48882 0.4479 0.95932 0.0
C724 C 0.49127 0.41363 0.96135 0.0
C725 C 0.48153 0.40755 0.92623 0.0
C726 C 0.47484 0.42147 0.90821 0.0
H727 H 0.42585 0.27724 0.82169 0.0
H728 H 0.43221 0.30823 0.86258 0.0
C729 C 0.47866 0.4416 0.92444 0.0
C730 C 0.4786 0.38672 0.90857 0.0
H731 H 0.4913 0.36721 0.831 0.0
C732 C 0.46668 0.36614 0.92769 0.0
C733 C 0.48816 0.38717 0.87374 0.0
C734 C 0.50258 0.40887 0.8529 0.0
C735 C 0.46371 0.34595 0.91264 0.0
C736 C 0.47238 0.34626 0.87707 0.0
C737 C 0.48457 0.36691 0.85824 0.0
C738 C 0.46861 0.32548 0.85802 0.0
C739 C 0.45166 0.32463 0.93532 0.0
C740 C 0.4869 0.32463 0.84216 0.0
C741 C 0.48321 0.30713 0.81834 0.0
C742 C 0.46121 0.29003 0.81044 0.0
C743 C 0.44298 0.29 0.82818 0.0
C744 C 0.44664 0.30771 0.85154 0.0
H745 H 0.45307 0.32838 0.96532 0.0
H746 H 0.4335 0.31567 0.92818 0.0
H747 H 0.45847 0.3132 0.92992 0.0
H748 H 0.50399 0.33814 0.84668 0.0
H749 H 0.49746 0.30761 0.80444 0.0
H750 H 0.07431 0.51908 0.55119 0.0
H751 H 0.10519 0.51184 0.53687 0.0
H752 H 0.08011 0.49327 0.42601 0.0
H753 H 0.04942 0.50044 0.4398 0.0
H754 H 0.1037 0.47048 0.5056 0.0
H755 H 0.14688 0.54665 0.41681 0.0
H756 H 0.12586 0.54282 0.45063 0.0
H757 H 0.11747 0.52898 0.4067 0.0
C758 C 0.07532 0.51334 0.52383 0.0
C759 C 0.05951 0.51055 0.49653 0.0
C760 C 0.09291 0.50916 0.51577 0.0
C761 C 0.09499 0.50227 0.48031 0.0
C762 C 0.07889 0.49883 0.45343 0.0
H763 H 0.15786 0.44304 0.3647 0.0
H764 H 0.13559 0.4499 0.40981 0.0
C765 C 0.06135 0.50294 0.46141 0.0
C766 C 0.11437 0.49947 0.47034 0.0
H767 H 0.15802 0.519 0.40939 0.0
C768 C 0.11587 0.48127 0.48505 0.0
C769 C 0.13044 0.51384 0.44411 0.0
C770 C 0.13029 0.53431 0.42885 0.0
C771 C 0.1323 0.47627 0.47238 0.0
C772 C 0.14729 0.48965 0.44399 0.0
C773 C 0.14654 0.50864 0.43106 0.0
C774 C 0.16232 0.48331 0.42431 0.0
C775 C 0.13319 0.45654 0.48912 0.0
C776 C 0.18498 0.49951 0.41803 0.0
C777 C 0.19759 0.49585 0.39147 0.0
C778 C 0.18778 0.47586 0.37074 0.0
C779 C 0.16581 0.45876 0.37977 0.0
C780 C 0.15312 0.46255 0.40601 0.0
H781 H 0.12726 0.45373 0.51822 0.0
H782 H 0.12186 0.44106 0.47347 0.0
H783 H 0.15051 0.45906 0.48826 0.0
H784 H 0.19244 0.51568 0.43177 0.0
H785 H 0.21437 0.5095 0.38515 0.0
H786 H 0.58221 0.06155 0.98339 0.0
H787 H 0.61751 0.09002 0.95502 0.0
H788 H 0.59674 0.05517 0.85112 0.0
H789 H 0.56145 0.02648 0.87924 0.0
H790 H 0.64369 0.07224 0.87011 0.0
H791 H 0.61674 0.1365 0.88197 0.0
H792 H 0.61671 0.12225 0.92376 0.0
H793 H 0.59728 0.10673 0.88758 0.0
C794 C 0.58523 0.05977 0.95459 0.0
C795 C 0.56889 0.04185 0.93346 0.0
C796 C 0.6054 0.0761 0.93845 0.0
C797 C 0.60956 0.07483 0.90091 0.0
C798 C 0.59379 0.05644 0.88016 0.0
H799 H 0.67784 0.15918 0.72408 0.0
H800 H 0.65357 0.13317 0.77174 0.0
C801 C 0.57361 0.0401 0.89625 0.0
C802 C 0.62953 0.09336 0.88242 0.0
H803 H 0.65085 0.14739 0.85135 0.0
C804 C 0.64552 0.08882 0.86652 0.0
C805 C 0.63173 0.1149 0.8777 0.0
C806 C 0.61468 0.12049 0.89337 0.0
C807 C 0.6633 0.10508 0.84493 0.0
C808 C 0.66501 0.12629 0.83921 0.0
C809 C 0.64954 0.13113 0.85624 0.0
C810 C 0.6804 0.14227 0.81116 0.0
C811 C 0.67945 0.09918 0.82664 0.0
C812 C 0.70354 0.15612 0.8178 0.0
C813 C 0.71757 0.17112 0.79042 0.0
C814 C 0.70858 0.17218 0.75607 0.0
C815 C 0.68534 0.1584 0.74995 0.0
C816 C 0.67142 0.14364 0.7772 0.0
H817 H 0.6757 0.08182 0.83358 0.0
H818 H 0.67868 0.10067 0.79622 0.0
H819 H 0.69693 0.11127 0.83538 0.0
H820 H 0.71067 0.15533 0.84405 0.0
H821 H 0.73541 0.18163 0.79583 0.0
H822 H 0.5396 0.57559 0.50104 0.0
H823 H 0.54462 0.60992 0.47147 0.0
H824 H 0.55241 0.58578 0.3659 0.0
H825 H 0.54719 0.55116 0.39519 0.0
H826 H 0.5795 0.64372 0.42582 0.0
H827 H 0.49758 0.59535 0.35321 0.0
H828 H 0.50566 0.58361 0.39093 0.0
H829 H 0.51725 0.58562 0.34568 0.0
C830 C 0.54262 0.57763 0.47156 0.0
C831 C 0.54275 0.56049 0.45041 0.0
C832 C 0.54555 0.59732 0.45475 0.0
C833 C 0.54855 0.60023 0.41647 0.0
C834 C 0.54979 0.58369 0.39545 0.0
H835 H 0.57768 0.71638 0.28103 0.0
H836 H 0.58122 0.68884 0.31942 0.0
C837 C 0.5469 0.56396 0.41226 0.0
C838 C 0.54893 0.61989 0.39845 0.0
H839 H 0.51914 0.63419 0.33967 0.0
C840 C 0.56635 0.6417 0.40693 0.0
C841 C 0.53152 0.61717 0.37437 0.0
C842 C 0.51181 0.59422 0.36565 0.0
C843 C 0.56697 0.66088 0.39145 0.0
C844 C 0.54981 0.6581 0.36674 0.0
C845 C 0.5323 0.63629 0.35863 0.0
C846 C 0.54964 0.67739 0.34823 0.0
C847 C 0.58575 0.68393 0.40211 0.0
C848 C 0.53093 0.68042 0.35213 0.0
C849 C 0.52878 0.69602 0.33003 0.0
C850 C 0.54525 0.70878 0.30338 0.0
C851 C 0.56466 0.70671 0.30118 0.0
C852 C 0.56679 0.69109 0.32329 0.0
H853 H 0.59396 0.68341 0.42824 0.0
H854 H 0.59874 0.69046 0.38003 0.0
H855 H 0.57942 0.69594 0.40533 0.0
H856 H 0.51747 0.66996 0.37112 0.0
H857 H 0.51348 0.69693 0.33212 0.0
H858 H 0.49022 0.03254 0.60221 0.0
H859 H 0.48314 0.06094 0.63004 0.0
H860 H 0.47962 0.08537 0.52177 0.0
H861 H 0.48718 0.05742 0.49378 0.0
H862 H 0.50614 0.11949 0.56728 0.0
H863 H 0.42511 0.0627 0.63688 0.0
H864 H 0.44699 0.05685 0.64961 0.0
H865 H 0.43725 0.05281 0.60264 0.0
C866 C 0.4877 0.0438 0.58432 0.0
C867 C 0.48922 0.04268 0.54578 0.0
C868 C 0.48354 0.05996 0.60026 0.0
C869 C 0.48052 0.07508 0.57796 0.0
C870 C 0.48182 0.07384 0.5395 0.0
H871 H 0.43287 0.15972 0.67717 0.0
H872 H 0.43752 0.13509 0.63372 0.0
C873 C 0.48611 0.05781 0.52356 0.0
C874 C 0.47704 0.09285 0.59473 0.0
H875 H 0.44397 0.10129 0.65557 0.0
C876 C 0.4924 0.11551 0.58631 0.0
C877 C 0.4589 0.08766 0.61901 0.0
C878 C 0.44098 0.06368 0.62729 0.0
C879 C 0.49059 0.13313 0.60254 0.0
C880 C 0.47321 0.12796 0.62846 0.0
C881 C 0.45739 0.10529 0.63587 0.0
C882 C 0.47177 0.14562 0.64992 0.0
C883 C 0.50729 0.15709 0.59169 0.0
C884 C 0.4897 0.16024 0.67265 0.0
C885 C 0.4872 0.17456 0.6971 0.0
C886 C 0.46658 0.17431 0.69973 0.0
C887 C 0.44905 0.16055 0.67552 0.0
C888 C 0.45161 0.14629 0.65092 0.0
H889 H 0.5142 0.15794 0.56361 0.0
H890 H 0.49952 0.16796 0.59234 0.0
H891 H 0.52161 0.164 0.61131 0.0
H892 H 0.50526 0.15976 0.67293 0.0
H893 H 0.50105 0.18506 0.71523 0.0
H894 H 0.43372 0.48304 0.03206 0.0
H895 H 0.39826 0.47592 0.05993 0.0
H896 H 0.42115 0.46728 0.16629 0.0
H897 H 0.45683 0.47456 0.13876 0.0
H898 H 0.36443 0.439 0.10429 0.0
H899 H 0.40883 0.52066 0.17852 0.0
H900 H 0.42159 0.5138 0.14089 0.0
H901 H 0.42006 0.50221 0.18607 0.0
C902 C 0.43117 0.4794 0.06134 0.0
C903 C 0.44824 0.47964 0.08329 0.0
C904 C 0.41085 0.47526 0.07715 0.0
C905 C 0.40725 0.47138 0.11517 0.0
C906 C 0.42377 0.47053 0.13691 0.0
H907 H 0.29288 0.43317 0.25537 0.0
H908 H 0.31925 0.43204 0.2112 0.0
C909 C 0.44411 0.47463 0.12113 0.0
C910 C 0.38693 0.4698 0.13245 0.0
H911 H 0.37034 0.49681 0.19276 0.0
C912 C 0.36563 0.45164 0.12356 0.0
C913 C 0.3886 0.48657 0.15694 0.0
C914 C 0.41095 0.50704 0.16601 0.0
C915 C 0.34592 0.4495 0.13947 0.0
C916 C 0.34769 0.46587 0.16501 0.0
C917 C 0.36898 0.48428 0.17313 0.0
C918 C 0.32803 0.46396 0.18539 0.0
C919 C 0.32342 0.42987 0.12866 0.0
C920 C 0.32369 0.48195 0.18488 0.0
C921 C 0.30882 0.48277 0.2104 0.0
C922 C 0.29813 0.46564 0.23703 0.0
C923 C 0.30101 0.44669 0.23534 0.0
C924 C 0.31595 0.44593 0.20989 0.0
H925 H 0.32429 0.42295 0.10141 0.0
H926 H 0.31822 0.41623 0.14949 0.0
H927 H 0.31027 0.43483 0.12756 0.0
H928 H 0.33289 0.49607 0.16625 0.0
H929 H 0.30719 0.4977 0.21116 0.0
H930 H 0.97128 0.45636 0.55311 0.0
H931 H 0.9417 0.4185 0.5697 0.0
H932 H 0.90909 0.41247 0.46525 0.0
H933 H 0.93894 0.45053 0.44806 0.0
H934 H 0.89609 0.40729 0.57429 0.0
H935 H 0.90857 0.35145 0.47753 0.0
H936 H 0.93062 0.37983 0.48751 0.0
H937 H 0.90771 0.37524 0.45803 0.0
C938 C 0.95801 0.44695 0.53338 0.0
C939 C 0.95739 0.45654 0.49934 0.0
C940 C 0.94113 0.42527 0.5429 0.0
C941 C 0.9233 0.41267 0.51864 0.0
C942 C 0.9229 0.42183 0.48413 0.0
H943 H 0.80264 0.30379 0.62081 0.0
H944 H 0.82521 0.33225 0.57462 0.0
C945 C 0.9399 0.4436 0.47446 0.0
C946 C 0.90426 0.3909 0.53141 0.0
H947 H 0.87857 0.33384 0.52021 0.0
C948 C 0.89206 0.39122 0.56223 0.0
C949 C 0.89921 0.37005 0.51563 0.0
C950 C 0.91224 0.36892 0.48297 0.0
C951 C 0.87543 0.37124 0.57859 0.0
C952 C 0.87043 0.3503 0.5631 0.0
C953 C 0.88225 0.34993 0.53166 0.0
C954 C 0.85472 0.32886 0.58192 0.0
C955 C 0.86419 0.37277 0.6135 0.0
C956 C 0.86323 0.31625 0.59897 0.0
C957 C 0.85022 0.29963 0.6249 0.0
C958 C 0.82856 0.29551 0.63441 0.0
C959 C 0.81923 0.30647 0.61422 0.0
C960 C 0.83219 0.32293 0.58801 0.0
H961 H 0.87318 0.38991 0.62569 0.0
H962 H 0.84673 0.36873 0.60715 0.0
H963 H 0.86336 0.36052 0.6345 0.0
H964 H 0.88053 0.32043 0.5944 0.0
H965 H 0.8577 0.29113 0.63943 0.0
H966 H 0.54337 0.96383 0.01071 0.0
H967 H 0.55018 0.93555 0.04002 0.0
H968 H 0.52377 0.94458 0.1427 0.0
H969 H 0.51818 0.97383 0.11397 0.0
H970 H 0.55789 0.93949 0.15641 0.0
H971 H 0.50321 0.87226 0.05877 0.0
H972 H 0.52629 0.89566 0.03596 0.0
H973 H 0.50508 0.89946 0.05894 0.0
C974 C 0.5392 0.95988 0.03963 0.0
C975 C 0.53012 0.9709 0.06003 0.0
C976 C 0.54288 0.94355 0.05627 0.0
C977 C 0.53683 0.93735 0.0933 0.0
C978 C 0.52843 0.94891 0.11401 0.0
H979 H 0.50486 0.81318 0.2017 0.0
H980 H 0.50627 0.84305 0.16269 0.0
C981 C 0.52526 0.96565 0.09761 0.0
C982 C 0.53905 0.91878 0.11055 0.0
H983 H 0.524 0.86336 0.10107 0.0
C984 C 0.55046 0.92284 0.1443 0.0
C985 C 0.52909 0.8969 0.09504 0.0
C986 C 0.51504 0.89072 0.06041 0.0
C987 C 0.55191 0.90567 0.16325 0.0
C988 C 0.54258 0.88399 0.14717 0.0
C989 C 0.53145 0.88002 0.11315 0.0
C990 C 0.54244 0.86474 0.16665 0.0
C991 C 0.56248 0.91078 0.2011 0.0
C992 C 0.56239 0.86641 0.18046 0.0
C993 C 0.56153 0.84947 0.20333 0.0
C994 C 0.54078 0.83025 0.21165 0.0
C995 C 0.52109 0.82772 0.1953 0.0
C996 C 0.52189 0.84486 0.17317 0.0
H997 H 0.56291 0.92583 0.2134 0.0
H998 H 0.55318 0.89631 0.22023 0.0
H999 H 0.58012 0.91434 0.19889 0.0
H1000 H 0.57855 0.88119 0.17478 0.0
H1001 H 0.57693 0.85176 0.21567 0.0
H1002 H 0.58759 0.50957 0.53535 0.0
H1003 H 0.6219 0.51654 0.5672 0.0
H1004 H 0.60452 0.54474 0.65922 0.0
H1005 H 0.56978 0.53716 0.62804 0.0
H1006 H 0.65832 0.55391 0.59204 0.0
H1007 H 0.61333 0.49732 0.70981 0.0
H1008 H 0.59898 0.4981 0.66863 0.0
H1009 H 0.60619 0.51902 0.70396 0.0
C1010 C 0.59106 0.51729 0.56236 0.0
C1011 C 0.57582 0.5226 0.57934 0.0
C1012 C 0.61072 0.52129 0.58051 0.0
C1013 C 0.61558 0.53074 0.61592 0.0
C1014 C 0.60083 0.53686 0.63234 0.0
H1015 H 0.74133 0.5891 0.73567 0.0
H1016 H 0.71178 0.58205 0.69097 0.0
C1017 C 0.58103 0.53263 0.61439 0.0
C1018 C 0.63589 0.53386 0.63586 0.0
H1019 H 0.65288 0.52114 0.71642 0.0
C1020 C 0.65715 0.54663 0.61915 0.0
C1021 C 0.63434 0.52396 0.67087 0.0
C1022 C 0.61197 0.50864 0.68921 0.0
C1023 C 0.67692 0.55024 0.63692 0.0
C1024 C 0.67543 0.54128 0.67275 0.0
C1025 C 0.65411 0.52813 0.68903 0.0
C1026 C 0.69558 0.54566 0.69463 0.0
C1027 C 0.6991 0.5633 0.61685 0.0
C1028 C 0.69657 0.52762 0.71138 0.0
C1029 C 0.71321 0.53166 0.73737 0.0
C1030 C 0.72935 0.55382 0.74676 0.0
C1031 C 0.72932 0.57187 0.72829 0.0
C1032 C 0.71244 0.56783 0.70269 0.0
H1033 H 0.69669 0.56218 0.58645 0.0
H1034 H 0.70706 0.58134 0.62451 0.0
H1035 H 0.71081 0.5571 0.62415 0.0
H1036 H 0.68379 0.51037 0.70566 0.0
H1037 H 0.71282 0.5175 0.75152 0.0
H1038 H 0.06588 0.56282 0.94946 0.0
H1039 H 0.09468 0.60161 0.96469 0.0
H1040 H 0.08677 0.5839 0.08031 0.0
H1041 H 0.05758 0.54571 0.06548 0.0
H1042 H 0.08675 0.62187 0.06994 0.0
H1043 H 0.15932 0.62617 0.99395 0.0
H1044 H 0.13523 0.61993 0.96613 0.0
H1045 H 0.13324 0.60009 0.00066 0.0
C1046 C 0.07041 0.56726 0.97808 0.0
C1047 C 0.05944 0.55126 0.00629 0.0
C1048 C 0.08696 0.58937 0.98673 0.0
C1049 C 0.09311 0.59564 0.02364 0.0
C1050 C 0.08229 0.57953 0.05164 0.0
H1051 H 0.2048 0.69276 0.14073 0.0
H1052 H 0.17985 0.6641 0.09692 0.0
C1053 C 0.06558 0.55767 0.04311 0.0
C1054 C 0.11021 0.61902 0.03404 0.0
H1055 H 0.1661 0.65838 0.02738 0.0
C1056 C 0.10407 0.62995 0.06039 0.0
C1057 C 0.13281 0.62953 0.02154 0.0
C1058 C 0.14068 0.61831 0.99425 0.0
C1059 C 0.12004 0.65037 0.07629 0.0
C1060 C 0.14275 0.66083 0.06418 0.0
C1061 C 0.14869 0.65047 0.03638 0.0
C1062 C 0.16087 0.68074 0.08352 0.0
C1063 C 0.11258 0.6596 0.10774 0.0
C1064 C 0.15947 0.70033 0.08886 0.0
C1065 C 0.17343 0.71647 0.11456 0.0
C1066 C 0.18954 0.71364 0.1341 0.0
C1067 C 0.19262 0.69537 0.12567 0.0
C1068 C 0.17832 0.67898 0.1007 0.0
H1069 H 0.09595 0.64681 0.11909 0.0
H1070 H 0.12501 0.66551 0.13056 0.0
H1071 H 0.11098 0.67406 0.09768 0.0
H1072 H 0.14663 0.70243 0.07501 0.0
H1073 H 0.17079 0.73045 0.12075 0.0
loop_
_geom_bond_atom_site_label_1
_geom_bond_atom_site_label_2
_geom_bond_distance
_geom_bond_site_symmetry_2
_ccdc_geom_bond_type
C0 O2 1.247 . S
C0 O4 1.258 . S
C1 O8 1.282 . S
C1 O9 1.258 1_556 S
O2 C0 1.247 . S
O2 Zn3 2.028 1_455 S
Zn3 O2 2.028 1_655 S
Zn3 O7 2.035 . S
Zn3 O9 2.035 . S
Zn3 O10 2.028 1_655 S
O4 C0 1.258 . S
O4 Zn5 2.035 1_554 S
Zn5 O4 2.035 1_556 S
Zn5 O6 1.972 1_455 S
Zn5 O8 2.015 1_455 S
Zn5 O11 2.035 1_556 S
O6 Zn5 1.972 1_655 S
O6 C12 1.298 . S
O7 Zn3 2.035 . S
O7 C12 1.258 1_554 S
O8 C1 1.282 . S
O8 Zn5 2.015 1_655 S
O9 C1 1.258 1_554 S
O9 Zn3 2.035 . S
O10 Zn3 2.028 1_455 S
O10 C13 1.247 . S
O11 Zn5 2.035 1_554 S
O11 C13 1.258 . S
C12 O6 1.298 . S
C12 O7 1.258 1_556 S
C13 O10 1.247 . S
C13 O11 1.258 . S
C14 O16 1.247 . S
C14 O18 1.258 . S
C15 O22 1.247 . S
C15 O23 1.258 . S
O16 C14 1.247 . S
O16 Zn17 2.028 1_545 S
Zn17 O16 2.028 1_565 S
Zn17 O21 2.035 . S
Zn17 O23 2.035 . S
Zn17 O24 2.028 1_565 S
O18 C14 1.258 . S
O18 Zn19 2.035 . S
Zn19 O18 2.035 . S
Zn19 O20 2.028 1_545 S
Zn19 O22 2.028 1_545 S
Zn19 O25 2.035 . S
O20 Zn19 2.028 1_565 S
O20 C26 1.247 . S
O21 Zn17 2.035 . S
O21 C26 1.258 . S
O22 C15 1.247 . S
O22 Zn19 2.028 1_565 S
O23 C15 1.258 . S
O23 Zn17 2.035 . S
O24 Zn17 2.028 1_545 S
O24 C27 1.247 . S
O25 Zn19 2.035 . S
O25 C27 1.258 . S
C26 O20 1.247 . S
C26 O21 1.258 . S
C27 O24 1.247 . S
C27 O25 1.258 . S
C28 O30 1.247 . S
C28 O32 1.258 1_556 S
C29 O36 1.247 . S
C29 O37 1.258 . S
O30 C28 1.247 . S
O30 Zn31 2.028 . S
Zn31 O30 2.028 . S
Zn31 O35 2.035 1_556 S
Zn31 O37 2.035 1_556 S
Zn31 O38 2.028 . S
O32 C28 1.258 1_554 S
O32 Zn33 2.035 . S
Zn33 O32 2.035 . S
Zn33 O34 2.028 . S
Zn33 O36 2.028 . S
Zn33 O39 2.035 . S
O34 Zn33 2.028 . S
O34 C40 1.247 . S
O35 Zn31 2.035 1_554 S
O35 C40 1.258 . S
O36 C29 1.247 . S
O36 Zn33 2.028 . S
O37 C29 1.258 . S
O37 Zn31 2.035 1_554 S
O38 Zn31 2.028 . S
O38 C41 1.247 . S
O39 Zn33 2.035 . S
O39 C41 1.258 1_554 S
C40 O34 1.247 . S
C40 O35 1.258 . S
C41 O38 1.247 . S
C41 O39 1.258 1_556 S
C42 O44 1.247 . S
C42 O46 1.258 . S
C43 O50 1.247 . S
C43 O51 1.258 . S
O44 C42 1.247 . S
O44 Zn45 2.028 . S
Zn45 O44 2.028 . S
Zn45 O49 2.035 1_455 S
Zn45 O51 2.035 1_455 S
Zn45 O52 2.028 . S
O46 C42 1.258 . S
O46 Zn47 2.035 1_455 S
Zn47 O46 2.035 1_655 S
Zn47 O48 2.028 . S
Zn47 O50 2.028 . S
Zn47 O53 2.035 1_655 S
O48 Zn47 2.028 . S
O48 C54 1.247 . S
O49 Zn45 2.035 1_655 S
O49 C54 1.258 . S
O50 C43 1.247 . S
O50 Zn47 2.028 . S
O51 C43 1.258 . S
O51 Zn45 2.035 1_655 S
O52 Zn45 2.028 . S
O52 C55 1.247 . S
O53 Zn47 2.035 1_455 S
O53 C55 1.258 . S
C54 O48 1.247 . S
C54 O49 1.258 . S
C55 O52 1.247 . S
C55 O53 1.258 . S
C56 O58 1.247 . S
C56 O60 1.277 . S
C57 O64 1.247 . S
C57 O65 1.258 1_556 S
O58 C56 1.247 . S
O58 Zn59 2.028 1_565 S
Zn59 O58 2.028 1_545 S
Zn59 O63 2.035 . S
Zn59 O65 2.035 . S
Zn59 O66 2.028 1_545 S
O60 C56 1.277 . S
O60 Zn61 2.024 1_554 S
Zn61 O60 2.024 1_556 S
Zn61 O62 2.028 1_565 S
Zn61 O64 2.028 1_565 S
Zn61 O67 2.022 1_556 S
O62 Zn61 2.028 1_545 S
O62 C68 1.247 . S
O63 Zn59 2.035 . S
O63 C68 1.258 1_554 S
O64 C57 1.247 . S
O64 Zn61 2.028 1_545 S
O65 C57 1.258 1_554 S
O65 Zn59 2.035 . S
O66 Zn59 2.028 1_565 S
O66 C69 1.247 . S
O67 Zn61 2.022 1_554 S
O67 C69 1.280 . S
C68 O62 1.247 . S
C68 O63 1.258 1_556 S
C69 O66 1.247 . S
C69 O67 1.280 . S
C70 O72 1.247 . S
C70 O74 1.258 . S
C71 O78 1.247 . S
C71 O79 1.258 . S
O72 C70 1.247 . S
O72 Zn73 2.028 . S
Zn73 O72 2.028 . S
Zn73 O77 2.035 . S
Zn73 O79 2.035 . S
Zn73 O80 2.028 . S
O74 C70 1.258 . S
O74 Zn75 2.035 . S
Zn75 O74 2.035 . S
Zn75 O76 2.028 . S
Zn75 O78 2.028 . S
Zn75 O81 2.035 . S
O76 Zn75 2.028 . S
O76 C82 1.247 . S
O77 Zn73 2.035 . S
O77 C82 1.258 . S
O78 C71 1.247 . S
O78 Zn75 2.028 . S
O79 C71 1.258 . S
O79 Zn73 2.035 . S
O80 Zn73 2.028 . S
O80 C83 1.247 . S
O81 Zn75 2.035 . S
O81 C83 1.258 . S
C82 O76 1.247 . S
C82 O77 1.258 . S
C83 O80 1.247 . S
C83 O81 1.258 . S
H84 C92 0.930 . S
H85 C95 0.930 . S
H86 C97 0.930 . S
H87 C98 0.970 . S
H88 C98 0.970 . S
H89 C100 0.930 . S
H90 C102 0.930 . S
H91 C104 0.930 . S
C92 H84 0.930 . S
C92 C93 1.382 . S
C92 C94 1.426 . S
C93 C92 1.382 . S
C93 C97 1.389 . S
C94 C92 1.426 . S
C94 C95 1.375 . S
C94 C98 1.532 . S
C95 H85 0.930 . S
C95 C94 1.375 . S
C95 C96 1.416 . S
C96 C95 1.416 . S
C96 C97 1.371 . S
C97 H86 0.930 . S
C97 C93 1.389 . S
C97 C96 1.371 . S
C98 H87 0.970 . S
C98 H88 0.970 . S
C98 C94 1.532 . S
C98 C99 1.499 . S
C99 C98 1.499 . S
C99 C100 1.370 . S
C99 C104 1.415 . S
C100 H89 0.930 . S
C100 C99 1.370 . S
C100 C101 1.407 . S
C101 C100 1.407 . S
C101 C102 1.365 . S
C102 H90 0.930 . S
C102 C101 1.365 . S
C102 C103 1.393 . S
C103 C102 1.393 . S
C103 C104 1.387 . S
C104 H91 0.930 . S
C104 C99 1.415 . S
C104 C103 1.387 . S
H105 C113 0.930 . S
H106 C116 0.930 . S
H107 C118 0.930 . S
H108 C119 0.970 . S
H109 C119 0.970 . S
H110 C121 0.930 . S
H111 C123 0.930 . S
H112 C125 0.930 . S
C113 H105 0.930 . S
C113 C114 1.382 . S
C113 C115 1.426 . S
C114 C113 1.382 . S
C114 C118 1.389 . S
C115 C113 1.426 . S
C115 C116 1.375 . S
C115 C119 1.532 . S
C116 H106 0.930 . S
C116 C115 1.375 . S
C116 C117 1.416 . S
C117 C116 1.416 . S
C117 C118 1.371 . S
C118 H107 0.930 . S
C118 C114 1.389 . S
C118 C117 1.371 . S
C119 H108 0.970 . S
C119 H109 0.970 . S
C119 C115 1.532 . S
C119 C120 1.499 . S
C120 C119 1.499 . S
C120 C121 1.370 . S
C120 C125 1.415 . S
C121 H110 0.930 . S
C121 C120 1.370 . S
C121 C122 1.407 . S
C122 C121 1.407 . S
C122 C123 1.365 . S
C123 H111 0.930 . S
C123 C122 1.365 . S
C123 C124 1.393 . S
C124 C123 1.393 . S
C124 C125 1.387 . S
C125 H112 0.930 . S
C125 C120 1.415 . S
C125 C124 1.387 . S
H126 C134 0.930 . S
H127 C137 0.930 . S
H128 C139 0.930 . S
H129 C140 0.970 . S
H130 C140 0.970 . S
H131 C142 0.930 . S
H132 C144 0.930 . S
H133 C146 0.930 . S
C134 H126 0.930 . S
C134 C135 1.382 . S
C134 C136 1.426 . S
C135 C134 1.382 . S
C135 C139 1.389 . S
C136 C134 1.426 . S
C136 C137 1.375 . S
C136 C140 1.532 . S
C137 H127 0.930 . S
C137 C136 1.375 . S
C137 C138 1.416 . S
C138 C137 1.416 . S
C138 C139 1.371 . S
C139 H128 0.930 . S
C139 C135 1.389 . S
C139 C138 1.371 . S
C140 H129 0.970 . S
C140 H130 0.970 . S
C140 C136 1.532 . S
C140 C141 1.499 . S
C141 C140 1.499 . S
C141 C142 1.370 . S
C141 C146 1.415 . S
C142 H131 0.930 . S
C142 C141 1.370 . S
C142 C143 1.407 . S
C143 C142 1.407 . S
C143 C144 1.365 . S
C144 H132 0.930 . S
C144 C143 1.365 . S
C144 C145 1.393 . S
C145 C144 1.393 . S
C145 C146 1.387 . S
C146 H133 0.930 . S
C146 C141 1.415 . S
C146 C145 1.387 . S
H147 C155 0.930 . S
H148 C158 0.930 . S
H149 C160 0.930 . S
H150 C161 0.970 . S
H151 C161 0.970 . S
H152 C163 0.930 . S
H153 C165 0.930 . S
H154 C167 0.930 . S
C155 H147 0.930 . S
C155 C156 1.382 . S
C155 C157 1.426 . S
C156 C155 1.382 . S
C156 C160 1.389 . S
C157 C155 1.426 . S
C157 C158 1.375 . S
C157 C161 1.532 . S
C158 H148 0.930 . S
C158 C157 1.375 . S
C158 C159 1.416 . S
C159 C158 1.416 . S
C159 C160 1.371 . S
C160 H149 0.930 . S
C160 C156 1.389 . S
C160 C159 1.371 . S
C161 H150 0.970 . S
C161 H151 0.970 . S
C161 C157 1.532 . S
C161 C162 1.499 . S
C162 C161 1.499 . S
C162 C163 1.370 . S
C162 C167 1.415 . S
C163 H152 0.930 . S
C163 C162 1.370 . S
C163 C164 1.407 . S
C164 C163 1.407 . S
C164 C165 1.365 . S
C165 H153 0.930 . S
C165 C164 1.365 . S
C165 C166 1.393 . S
C166 C165 1.393 . S
C166 C167 1.387 . S
C167 H154 0.930 . S
C167 C162 1.415 . S
C167 C166 1.387 . S
H168 C176 0.930 . S
H169 C179 0.930 . S
H170 C181 0.930 . S
H171 C182 0.970 . S
H172 C182 0.970 . S
H173 C184 0.930 . S
H174 C186 0.930 . S
H175 C188 0.930 . S
C176 H168 0.930 . S
C176 C177 1.382 . S
C176 C178 1.426 . S
C177 C176 1.382 . S
C177 C181 1.389 . S
C178 C176 1.426 . S
C178 C179 1.375 . S
C178 C182 1.532 . S
C179 H169 0.930 . S
C179 C178 1.375 . S
C179 C180 1.416 . S
C180 C179 1.416 . S
C180 C181 1.371 . S
C181 H170 0.930 . S
C181 C177 1.389 . S
C181 C180 1.371 . S
C182 H171 0.970 . S
C182 H172 0.970 . S
C182 C178 1.532 . S
C182 C183 1.499 . S
C183 C182 1.499 . S
C183 C184 1.370 . S
C183 C188 1.415 . S
C184 H173 0.930 . S
C184 C183 1.370 . S
C184 C185 1.407 . S
C185 C184 1.407 . S
C185 C186 1.365 . S
C186 H174 0.930 . S
C186 C185 1.365 . S
C186 C187 1.393 . S
C187 C186 1.393 . S
C187 C188 1.387 . S
C188 H175 0.930 . S
C188 C183 1.415 . S
C188 C187 1.387 . S
H189 C197 0.930 . S
H190 C200 0.930 . S
H191 C202 0.930 . S
H192 C203 0.970 . S
H193 C203 0.970 . S
H194 C205 0.930 . S
H195 C207 0.930 . S
H196 C209 0.930 . S
C197 H189 0.930 . S
C197 C198 1.382 . S
C197 C199 1.426 . S
C198 C197 1.382 . S
C198 C202 1.389 . S
C199 C197 1.426 . S
C199 C200 1.375 . S
C199 C203 1.532 . S
C200 H190 0.930 . S
C200 C199 1.375 . S
C200 C201 1.416 . S
C201 C200 1.416 . S
C201 C202 1.371 . S
C202 H191 0.930 . S
C202 C198 1.389 . S
C202 C201 1.371 . S
C203 H192 0.970 . S
C203 H193 0.970 . S
C203 C199 1.532 . S
C203 C204 1.499 . S
C204 C203 1.499 . S
C204 C205 1.370 . S
C204 C209 1.415 . S
C205 H194 0.930 . S
C205 C204 1.370 . S
C205 C206 1.407 . S
C206 C205 1.407 . S
C206 C207 1.365 . S
C207 H195 0.930 . S
C207 C206 1.365 . S
C207 C208 1.393 . S
C208 C207 1.393 . S
C208 C209 1.387 . S
C209 H196 0.930 . S
C209 C204 1.415 . S
C209 C208 1.387 . S
H210 C218 0.929 . S
H211 C220 0.930 . S
H212 C222 0.930 . S
H213 C225 0.929 . S
H214 C228 0.930 . S
H215 C230 0.960 . S
H216 C230 0.960 . S
H217 C230 0.960 . S
C218 H210 0.929 . S
C218 C219 1.377 . S
C218 C220 1.384 . S
C219 C218 1.377 . S
C219 C225 1.390 . S
C220 H211 0.930 . S
C220 C218 1.384 . S
C220 C221 1.372 . S
C221 C220 1.372 . S
C221 C222 1.400 . S
C221 C226 1.490 . S
C222 H212 0.930 . S
C222 C221 1.400 . S
C222 C225 1.386 . S
H223 C239 0.930 . S
H224 C240 0.931 . S
C225 H213 0.929 . S
C225 C219 1.390 . S
C225 C222 1.386 . S
C226 C221 1.490 . S
C226 C228 1.395 . S
C226 C229 1.403 . S
H227 C233 0.930 . S
C228 H214 0.930 . S
C228 C226 1.395 . S
C228 C231 1.403 . S
C229 C226 1.403 . S
C229 C230 1.524 . S
C229 C233 1.400 . S
C230 H215 0.960 . S
C230 H216 0.960 . S
C230 H217 0.960 . S
C230 C229 1.524 . S
C231 C228 1.403 . S
C231 C232 1.392 . S
C231 C235 1.495 . S
C232 C231 1.392 . S
C232 C233 1.385 . S
C232 C234 1.478 . S
C233 H227 0.930 . S
C233 C229 1.400 . S
C233 C232 1.385 . S
C234 C232 1.478 . S
C234 C236 1.381 . S
C234 C240 1.383 . S
C235 C231 1.495 . S
C235 H241 0.959 . S
C235 H242 0.961 . S
C235 H243 0.960 . S
C236 C234 1.381 . S
C236 C237 1.394 . S
C236 H244 0.930 . S
C237 C236 1.394 . S
C237 C238 1.383 . S
C237 H245 0.929 . S
C238 C237 1.383 . S
C238 C239 1.377 . S
C239 H223 0.930 . S
C239 C238 1.377 . S
C239 C240 1.379 . S
C240 H224 0.931 . S
C240 C234 1.383 . S
C240 C239 1.379 . S
H241 C235 0.959 . S
H242 C235 0.961 . S
H243 C235 0.960 . S
H244 C236 0.930 . S
H245 C237 0.929 . S
H246 C254 0.929 . S
H247 C256 0.930 . S
H248 C258 0.930 . S
H249 C261 0.929 . S
H250 C264 0.930 . S
H251 C266 0.960 . S
H252 C266 0.960 . S
H253 C266 0.960 . S
C254 H246 0.929 . S
C254 C255 1.377 . S
C254 C256 1.384 . S
C255 C254 1.377 . S
C255 C261 1.390 . S
C256 H247 0.930 . S
C256 C254 1.384 . S
C256 C257 1.372 . S
C257 C256 1.372 . S
C257 C258 1.400 . S
C257 C262 1.490 . S
C258 H248 0.930 . S
C258 C257 1.400 . S
C258 C261 1.386 . S
H259 C275 0.930 . S
H260 C276 0.931 . S
C261 H249 0.929 . S
C261 C255 1.390 . S
C261 C258 1.386 . S
C262 C257 1.490 . S
C262 C264 1.395 . S
C262 C265 1.403 . S
H263 C269 0.930 . S
C264 H250 0.930 . S
C264 C262 1.395 . S
C264 C267 1.403 . S
C265 C262 1.403 . S
C265 C266 1.524 . S
C265 C269 1.400 . S
C266 H251 0.960 . S
C266 H252 0.960 . S
C266 H253 0.960 . S
C266 C265 1.524 . S
C267 C264 1.403 . S
C267 C268 1.392 . S
C267 C271 1.495 . S
C268 C267 1.392 . S
C268 C269 1.385 . S
C268 C270 1.478 . S
C269 H263 0.930 . S
C269 C265 1.400 . S
C269 C268 1.385 . S
C270 C268 1.478 . S
C270 C272 1.381 . S
C270 C276 1.383 . S
C271 C267 1.495 . S
C271 H277 0.959 . S
C271 H278 0.961 . S
C271 H279 0.960 . S
C272 C270 1.381 . S
C272 C273 1.394 . S
C272 H280 0.930 . S
C273 C272 1.394 . S
C273 C274 1.383 . S
C273 H281 0.929 . S
C274 C273 1.383 . S
C274 C275 1.377 . S
C275 H259 0.930 . S
C275 C274 1.377 . S
C275 C276 1.379 . S
C276 H260 0.931 . S
C276 C270 1.383 . S
C276 C275 1.379 . S
H277 C271 0.959 . S
H278 C271 0.961 . S
H279 C271 0.960 . S
H280 C272 0.930 . S
H281 C273 0.929 . S
H282 C290 0.929 . S
H283 C292 0.930 . S
H284 C294 0.930 . S
H285 C297 0.929 . S
H286 C300 0.930 . S
H287 C302 0.960 . S
H288 C302 0.960 . S
H289 C302 0.960 . S
C290 H282 0.929 . S
C290 C291 1.377 . S
C290 C292 1.384 . S
C291 C290 1.377 . S
C291 C297 1.390 . S
C292 H283 0.930 . S
C292 C290 1.384 . S
C292 C293 1.372 . S
C293 C292 1.372 . S
C293 C294 1.400 . S
C293 C298 1.490 . S
C294 H284 0.930 . S
C294 C293 1.400 . S
C294 C297 1.386 . S
H295 C311 0.930 . S
H296 C312 0.931 . S
C297 H285 0.929 . S
C297 C291 1.390 . S
C297 C294 1.386 . S
C298 C293 1.490 . S
C298 C300 1.395 . S
C298 C301 1.403 . S
H299 C305 0.930 . S
C300 H286 0.930 . S
C300 C298 1.395 . S
C300 C303 1.403 . S
C301 C298 1.403 . S
C301 C302 1.524 . S
C301 C305 1.400 . S
C302 H287 0.960 . S
C302 H288 0.960 . S
C302 H289 0.960 . S
C302 C301 1.524 . S
C303 C300 1.403 . S
C303 C304 1.392 . S
C303 C307 1.495 . S
C304 C303 1.392 . S
C304 C305 1.385 . S
C304 C306 1.478 . S
C305 H299 0.930 . S
C305 C301 1.400 . S
C305 C304 1.385 . S
C306 C304 1.478 . S
C306 C308 1.381 . S
C306 C312 1.383 . S
C307 C303 1.495 . S
C307 H313 0.959 . S
C307 H314 0.961 . S
C307 H315 0.960 . S
C308 C306 1.381 . S
C308 C309 1.394 . S
C308 H316 0.930 . S
C309 C308 1.394 . S
C309 C310 1.383 . S
C309 H317 0.929 . S
C310 C309 1.383 . S
C310 C311 1.377 . S
C311 H295 0.930 . S
C311 C310 1.377 . S
C311 C312 1.379 . S
C312 H296 0.931 . S
C312 C306 1.383 . S
C312 C311 1.379 . S
H313 C307 0.959 . S
H314 C307 0.961 . S
H315 C307 0.960 . S
H316 C308 0.930 . S
H317 C309 0.929 . S
H318 C326 0.929 . S
H319 C328 0.930 . S
H320 C330 0.930 . S
H321 C333 0.929 . S
H322 C336 0.930 . S
H323 C338 0.960 . S
H324 C338 0.960 . S
H325 C338 0.960 . S
C326 H318 0.929 . S
C326 C327 1.377 . S
C326 C328 1.384 . S
C327 C326 1.377 . S
C327 C333 1.390 . S
C328 H319 0.930 . S
C328 C326 1.384 . S
C328 C329 1.372 . S
C329 C328 1.372 . S
C329 C330 1.400 . S
C329 C334 1.490 . S
C330 H320 0.930 . S
C330 C329 1.400 . S
C330 C333 1.386 . S
H331 C347 0.930 . S
H332 C348 0.931 . S
C333 H321 0.929 . S
C333 C327 1.390 . S
C333 C330 1.386 . S
C334 C329 1.490 . S
C334 C336 1.395 . S
C334 C337 1.403 . S
H335 C341 0.930 . S
C336 H322 0.930 . S
C336 C334 1.395 . S
C336 C339 1.403 . S
C337 C334 1.403 . S
C337 C338 1.524 . S
C337 C341 1.400 . S
C338 H323 0.960 . S
C338 H324 0.960 . S
C338 H325 0.960 . S
C338 C337 1.524 . S
C339 C336 1.403 . S
C339 C340 1.392 . S
C339 C343 1.495 . S
C340 C339 1.392 . S
C340 C341 1.385 . S
C340 C342 1.478 . S
C341 H335 0.930 . S
C341 C337 1.400 . S
C341 C340 1.385 . S
C342 C340 1.478 . S
C342 C344 1.381 . S
C342 C348 1.383 . S
C343 C339 1.495 . S
C343 H349 0.959 . S
C343 H350 0.961 . S
C343 H351 0.960 . S
C344 C342 1.381 . S
C344 C345 1.394 . S
C344 H352 0.930 . S
C345 C344 1.394 . S
C345 C346 1.383 . S
C345 H353 0.929 . S
C346 C345 1.383 . S
C346 C347 1.377 . S
C347 H331 0.930 . S
C347 C346 1.377 . S
C347 C348 1.379 . S
C348 H332 0.931 . S
C348 C342 1.383 . S
C348 C347 1.379 . S
H349 C343 0.959 . S
H350 C343 0.961 . S
H351 C343 0.960 . S
H352 C344 0.930 . S
H353 C345 0.929 . S
H354 C362 0.929 . S
H355 C364 0.930 . S
H356 C366 0.930 . S
H357 C369 0.929 . S
H358 C372 0.930 . S
H359 C374 0.960 . S
H360 C374 0.960 . S
H361 C374 0.960 . S
C362 H354 0.929 . S
C362 C363 1.377 . S
C362 C364 1.384 . S
C363 C362 1.377 . S
C363 C369 1.390 . S
C364 H355 0.930 . S
C364 C362 1.384 . S
C364 C365 1.372 . S
C365 C364 1.372 . S
C365 C366 1.400 . S
C365 C370 1.490 . S
C366 H356 0.930 . S
C366 C365 1.400 . S
C366 C369 1.386 . S
H367 C383 0.930 . S
H368 C384 0.931 . S
C369 H357 0.929 . S
C369 C363 1.390 . S
C369 C366 1.386 . S
C370 C365 1.490 . S
C370 C372 1.395 . S
C370 C373 1.403 . S
H371 C377 0.930 . S
C372 H358 0.930 . S
C372 C370 1.395 . S
C372 C375 1.403 . S
C373 C370 1.403 . S
C373 C374 1.524 . S
C373 C377 1.400 . S
C374 H359 0.960 . S
C374 H360 0.960 . S
C374 H361 0.960 . S
C374 C373 1.524 . S
C375 C372 1.403 . S
C375 C376 1.392 . S
C375 C379 1.495 . S
C376 C375 1.392 . S
C376 C377 1.385 . S
C376 C378 1.478 . S
C377 H371 0.930 . S
C377 C373 1.400 . S
C377 C376 1.385 . S
C378 C376 1.478 . S
C378 C380 1.381 . S
C378 C384 1.383 . S
C379 C375 1.495 . S
C379 H385 0.959 . S
C379 H386 0.961 . S
C379 H387 0.960 . S
C380 C378 1.381 . S
C380 C381 1.394 . S
C380 H388 0.930 . S
C381 C380 1.394 . S
C381 C382 1.383 . S
C381 H389 0.929 . S
C382 C381 1.383 . S
C382 C383 1.377 . S
C383 H367 0.930 . S
C383 C382 1.377 . S
C383 C384 1.379 . S
C384 H368 0.931 . S
C384 C378 1.383 . S
C384 C383 1.379 . S
H385 C379 0.959 . S
H386 C379 0.961 . S
H387 C379 0.960 . S
H388 C380 0.930 . S
H389 C381 0.929 . S
H390 C398 0.929 . S
H391 C400 0.930 . S
H392 C402 0.930 . S
H393 C405 0.929 . S
H394 C408 0.930 . S
H395 C410 0.960 . S
H396 C410 0.960 . S
H397 C410 0.960 . S
C398 H390 0.929 . S
C398 C399 1.377 . S
C398 C400 1.384 . S
C399 C398 1.377 . S
C399 C405 1.390 . S
C400 H391 0.930 . S
C400 C398 1.384 . S
C400 C401 1.372 . S
C401 C400 1.372 . S
C401 C402 1.400 . S
C401 C406 1.490 . S
C402 H392 0.930 . S
C402 C401 1.400 . S
C402 C405 1.386 . S
H403 C419 0.930 . S
H404 C420 0.931 . S
C405 H393 0.929 . S
C405 C399 1.390 . S
C405 C402 1.386 . S
C406 C401 1.490 . S
C406 C408 1.395 . S
C406 C409 1.403 . S
H407 C413 0.930 . S
C408 H394 0.930 . S
C408 C406 1.395 . S
C408 C411 1.403 . S
C409 C406 1.403 . S
C409 C410 1.524 . S
C409 C413 1.400 . S
C410 H395 0.960 . S
C410 H396 0.960 . S
C410 H397 0.960 . S
C410 C409 1.524 . S
C411 C408 1.403 . S
C411 C412 1.392 . S
C411 C415 1.495 . S
C412 C411 1.392 . S
C412 C413 1.385 . S
C412 C414 1.478 . S
C413 H407 0.930 . S
C413 C409 1.400 . S
C413 C412 1.385 . S
C414 C412 1.478 . S
C414 C416 1.381 . S
C414 C420 1.383 . S
C415 C411 1.495 . S
C415 H421 0.959 . S
C415 H422 0.961 . S
C415 H423 0.960 . S
C416 C414 1.381 . S
C416 C417 1.394 . S
C416 H424 0.930 . S
C417 C416 1.394 . S
C417 C418 1.383 . S
C417 H425 0.929 . S
C418 C417 1.383 . S
C418 C419 1.377 . S
C419 H403 0.930 . S
C419 C418 1.377 . S
C419 C420 1.379 . S
C420 H404 0.931 . S
C420 C414 1.383 . S
C420 C419 1.379 . S
H421 C415 0.959 . S
H422 C415 0.961 . S
H423 C415 0.960 . S
H424 C416 0.930 . S
H425 C417 0.929 . S
H426 C434 0.929 . S
H427 C436 0.930 . S
H428 C438 0.930 . S
H429 C441 0.929 . S
H430 C444 0.930 . S
H431 C446 0.960 . S
H432 C446 0.960 . S
H433 C446 0.960 . S
C434 H426 0.929 . S
C434 C435 1.377 . S
C434 C436 1.384 . S
C435 C434 1.377 . S
C435 C441 1.390 . S
C436 H427 0.930 . S
C436 C434 1.384 . S
C436 C437 1.372 . S
C437 C436 1.372 . S
C437 C438 1.400 . S
C437 C442 1.490 . S
C438 H428 0.930 . S
C438 C437 1.400 . S
C438 C441 1.386 . S
H439 C455 0.930 . S
H440 C456 0.931 . S
C441 H429 0.929 . S
C441 C435 1.390 . S
C441 C438 1.386 . S
C442 C437 1.490 . S
C442 C444 1.395 . S
C442 C445 1.403 . S
H443 C449 0.930 . S
C444 H430 0.930 . S
C444 C442 1.395 . S
C444 C447 1.403 . S
C445 C442 1.403 . S
C445 C446 1.524 . S
C445 C449 1.400 . S
C446 H431 0.960 . S
C446 H432 0.960 . S
C446 H433 0.960 . S
C446 C445 1.524 . S
C447 C444 1.403 . S
C447 C448 1.392 . S
C447 C451 1.495 . S
C448 C447 1.392 . S
C448 C449 1.385 . S
C448 C450 1.478 . S
C449 H443 0.930 . S
C449 C445 1.400 . S
C449 C448 1.385 . S
C450 C448 1.478 . S
C450 C452 1.381 . S
C450 C456 1.383 . S
C451 C447 1.495 . S
C451 H457 0.959 . S
C451 H458 0.961 . S
C451 H459 0.960 . S
C452 C450 1.381 . S
C452 C453 1.394 . S
C452 H460 0.930 . S
C453 C452 1.394 . S
C453 C454 1.383 . S
C453 H461 0.929 . S
C454 C453 1.383 . S
C454 C455 1.377 . S
C455 H439 0.930 . S
C455 C454 1.377 . S
C455 C456 1.379 . S
C456 H440 0.931 . S
C456 C450 1.383 . S
C456 C455 1.379 . S
H457 C451 0.959 . S
H458 C451 0.961 . S
H459 C451 0.960 . S
H460 C452 0.930 . S
H461 C453 0.929 . S
H462 C470 0.929 . S
H463 C472 0.930 . S
H464 C474 0.930 . S
H465 C477 0.929 . S
H466 C480 0.930 . S
H467 C482 0.960 . S
H468 C482 0.960 . S
H469 C482 0.960 . S
C470 H462 0.929 . S
C470 C471 1.377 . S
C470 C472 1.384 . S
C471 C470 1.377 . S
C471 C477 1.390 . S
C472 H463 0.930 . S
C472 C470 1.384 . S
C472 C473 1.372 . S
C473 C472 1.372 . S
C473 C474 1.400 . S
C473 C478 1.490 . S
C474 H464 0.930 . S
C474 C473 1.400 . S
C474 C477 1.386 . S
H475 C491 0.930 . S
H476 C492 0.931 . S
C477 H465 0.929 . S
C477 C471 1.390 . S
C477 C474 1.386 . S
C478 C473 1.490 . S
C478 C480 1.395 . S
C478 C481 1.403 . S
H479 C485 0.930 . S
C480 H466 0.930 . S
C480 C478 1.395 . S
C480 C483 1.403 . S
C481 C478 1.403 . S
C481 C482 1.524 . S
C481 C485 1.400 . S
C482 H467 0.960 . S
C482 H468 0.960 . S
C482 H469 0.960 . S
C482 C481 1.524 . S
C483 C480 1.403 . S
C483 C484 1.392 . S
C483 C487 1.495 . S
C484 C483 1.392 . S
C484 C485 1.385 . S
C484 C486 1.478 . S
C485 H479 0.930 . S
C485 C481 1.400 . S
C485 C484 1.385 . S
C486 C484 1.478 . S
C486 C488 1.381 . S
C486 C492 1.383 . S
C487 C483 1.495 . S
C487 H493 0.959 . S
C487 H494 0.961 . S
C487 H495 0.960 . S
C488 C486 1.381 . S
C488 C489 1.394 . S
C488 H496 0.930 . S
C489 C488 1.394 . S
C489 C490 1.383 . S
C489 H497 0.929 . S
C490 C489 1.383 . S
C490 C491 1.377 . S
C491 H475 0.930 . S
C491 C490 1.377 . S
C491 C492 1.379 . S
C492 H476 0.931 . S
C492 C486 1.383 . S
C492 C491 1.379 . S
H493 C487 0.959 . S
H494 C487 0.961 . S
H495 C487 0.960 . S
H496 C488 0.930 . S
H497 C489 0.929 . S
H498 C506 0.929 . S
H499 C508 0.930 . S
H500 C510 0.930 . S
H501 C513 0.929 . S
H502 C516 0.930 . S
H503 C518 0.960 . S
H504 C518 0.960 . S
H505 C518 0.960 . S
C506 H498 0.929 . S
C506 C507 1.377 . S
C506 C508 1.384 . S
C507 C506 1.377 . S
C507 C513 1.390 . S
C508 H499 0.930 . S
C508 C506 1.384 . S
C508 C509 1.372 . S
C509 C508 1.372 . S
C509 C510 1.400 . S
C509 C514 1.490 . S
C510 H500 0.930 . S
C510 C509 1.400 . S
C510 C513 1.386 . S
H511 C527 0.930 . S
H512 C528 0.931 . S
C513 H501 0.929 . S
C513 C507 1.390 . S
C513 C510 1.386 . S
C514 C509 1.490 . S
C514 C516 1.395 . S
C514 C517 1.403 . S
H515 C521 0.930 . S
C516 H502 0.930 . S
C516 C514 1.395 . S
C516 C519 1.403 . S
C517 C514 1.403 . S
C517 C518 1.524 . S
C517 C521 1.400 . S
C518 H503 0.960 . S
C518 H504 0.960 . S
C518 H505 0.960 . S
C518 C517 1.524 . S
C519 C516 1.403 . S
C519 C520 1.392 . S
C519 C523 1.495 . S
C520 C519 1.392 . S
C520 C521 1.385 . S
C520 C522 1.478 . S
C521 H515 0.930 . S
C521 C517 1.400 . S
C521 C520 1.385 . S
C522 C520 1.478 . S
C522 C524 1.381 . S
C522 C528 1.383 . S
C523 C519 1.495 . S
C523 H529 0.959 . S
C523 H530 0.961 . S
C523 H531 0.960 . S
C524 C522 1.381 . S
C524 C525 1.394 . S
C524 H532 0.930 . S
C525 C524 1.394 . S
C525 C526 1.383 . S
C525 H533 0.929 . S
C526 C525 1.383 . S
C526 C527 1.377 . S
C527 H511 0.930 . S
C527 C526 1.377 . S
C527 C528 1.379 . S
C528 H512 0.931 . S
C528 C522 1.383 . S
C528 C527 1.379 . S
H529 C523 0.959 . S
H530 C523 0.961 . S
H531 C523 0.960 . S
H532 C524 0.930 . S
H533 C525 0.929 . S
H534 C542 0.929 . S
H535 C544 0.930 . S
H536 C546 0.930 . S
H537 C549 0.929 . S
H538 C552 0.930 . S
H539 C554 0.960 . S
H540 C554 0.960 . S
H541 C554 0.960 . S
C542 H534 0.929 . S
C542 C543 1.377 . S
C542 C544 1.384 . S
C543 C542 1.377 . S
C543 C549 1.390 . S
C544 H535 0.930 . S
C544 C542 1.384 . S
C544 C545 1.372 . S
C545 C544 1.372 . S
C545 C546 1.400 . S
C545 C550 1.490 . S
C546 H536 0.930 . S
C546 C545 1.400 . S
C546 C549 1.386 . S
H547 C563 0.930 . S
H548 C564 0.931 . S
C549 H537 0.929 . S
C549 C543 1.390 . S
C549 C546 1.386 . S
C550 C545 1.490 . S
C550 C552 1.395 . S
C550 C553 1.403 . S
H551 C557 0.930 . S
C552 H538 0.930 . S
C552 C550 1.395 . S
C552 C555 1.403 . S
C553 C550 1.403 . S
C553 C554 1.524 . S
C553 C557 1.400 . S
C554 H539 0.960 . S
C554 H540 0.960 . S
C554 H541 0.960 . S
C554 C553 1.524 . S
C555 C552 1.403 . S
C555 C556 1.392 . S
C555 C559 1.495 . S
C556 C555 1.392 . S
C556 C557 1.385 . S
C556 C558 1.478 . S
C557 H551 0.930 . S
C557 C553 1.400 . S
C557 C556 1.385 . S
C558 C556 1.478 . S
C558 C560 1.381 . S
C558 C564 1.383 . S
C559 C555 1.495 . S
C559 H565 0.959 . S
C559 H566 0.961 . S
C559 H567 0.960 . S
C560 C558 1.381 . S
C560 C561 1.394 . S
C560 H568 0.930 . S
C561 C560 1.394 . S
C561 C562 1.383 . S
C561 H569 0.929 . S
C562 C561 1.383 . S
C562 C563 1.377 . S
C563 H547 0.930 . S
C563 C562 1.377 . S
C563 C564 1.379 . S
C564 H548 0.931 . S
C564 C558 1.383 . S
C564 C563 1.379 . S
H565 C559 0.959 . S
H566 C559 0.961 . S
H567 C559 0.960 . S
H568 C560 0.930 . S
H569 C561 0.929 . S
H570 C578 0.929 . S
H571 C580 0.930 . S
H572 C582 0.930 . S
H573 C585 0.929 . S
H574 C588 0.930 . S
H575 C590 0.960 . S
H576 C590 0.960 . S
H577 C590 0.960 . S
C578 H570 0.929 . S
C578 C579 1.377 . S
C578 C580 1.384 . S
C579 C578 1.377 . S
C579 C585 1.390 . S
C580 H571 0.930 . S
C580 C578 1.384 . S
C580 C581 1.372 . S
C581 C580 1.372 . S
C581 C582 1.400 . S
C581 C586 1.490 . S
C582 H572 0.930 . S
C582 C581 1.400 . S
C582 C585 1.386 . S
H583 C599 0.930 . S
H584 C600 0.931 . S
C585 H573 0.929 . S
C585 C579 1.390 . S
C585 C582 1.386 . S
C586 C581 1.490 . S
C586 C588 1.395 . S
C586 C589 1.403 . S
H587 C593 0.930 . S
C588 H574 0.930 . S
C588 C586 1.395 . S
C588 C591 1.403 . S
C589 C586 1.403 . S
C589 C590 1.524 . S
C589 C593 1.400 . S
C590 H575 0.960 . S
C590 H576 0.960 . S
C590 H577 0.960 . S
C590 C589 1.524 . S
C591 C588 1.403 . S
C591 C592 1.392 . S
C591 C595 1.495 . S
C592 C591 1.392 . S
C592 C593 1.385 . S
C592 C594 1.478 . S
C593 H587 0.930 . S
C593 C589 1.400 . S
C593 C592 1.385 . S
C594 C592 1.478 . S
C594 C596 1.381 . S
C594 C600 1.383 . S
C595 C591 1.495 . S
C595 H601 0.959 . S
C595 H602 0.961 . S
C595 H603 0.960 . S
C596 C594 1.381 . S
C596 C597 1.394 . S
C596 H604 0.930 . S
C597 C596 1.394 . S
C597 C598 1.383 . S
C597 H605 0.929 . S
C598 C597 1.383 . S
C598 C599 1.377 . S
C599 H583 0.930 . S
C599 C598 1.377 . S
C599 C600 1.379 . S
C600 H584 0.931 . S
C600 C594 1.383 . S
C600 C599 1.379 . S
H601 C595 0.959 . S
H602 C595 0.961 . S
H603 C595 0.960 . S
H604 C596 0.930 . S
H605 C597 0.929 . S
H606 C614 0.929 . S
H607 C616 0.930 . S
H608 C618 0.930 . S
H609 C621 0.929 . S
H610 C624 0.930 . S
H611 C626 0.960 . S
H612 C626 0.960 . S
H613 C626 0.960 . S
C614 H606 0.929 . S
C614 C615 1.377 . S
C614 C616 1.384 . S
C615 C614 1.377 . S
C615 C621 1.390 . S
C616 H607 0.930 . S
C616 C614 1.384 . S
C616 C617 1.372 . S
C617 C616 1.372 . S
C617 C618 1.400 . S
C617 C622 1.490 . S
C618 H608 0.930 . S
C618 C617 1.400 . S
C618 C621 1.386 . S
H619 C635 0.930 . S
H620 C636 0.931 . S
C621 H609 0.929 . S
C621 C615 1.390 . S
C621 C618 1.386 . S
C622 C617 1.490 . S
C622 C624 1.395 . S
C622 C625 1.403 . S
H623 C629 0.930 . S
C624 H610 0.930 . S
C624 C622 1.395 . S
C624 C627 1.403 . S
C625 C622 1.403 . S
C625 C626 1.524 . S
C625 C629 1.400 . S
C626 H611 0.960 . S
C626 H612 0.960 . S
C626 H613 0.960 . S
C626 C625 1.524 . S
C627 C624 1.403 . S
C627 C628 1.392 . S
C627 C631 1.495 . S
C628 C627 1.392 . S
C628 C629 1.385 . S
C628 C630 1.478 . S
C629 H623 0.930 . S
C629 C625 1.400 . S
C629 C628 1.385 . S
C630 C628 1.478 . S
C630 C632 1.381 . S
C630 C636 1.383 . S
C631 C627 1.495 . S
C631 H637 0.959 . S
C631 H638 0.961 . S
C631 H639 0.960 . S
C632 C630 1.381 . S
C632 C633 1.394 . S
C632 H640 0.930 . S
C633 C632 1.394 . S
C633 C634 1.383 . S
C633 H641 0.929 . S
C634 C633 1.383 . S
C634 C635 1.377 . S
C635 H619 0.930 . S
C635 C634 1.377 . S
C635 C636 1.379 . S
C636 H620 0.931 . S
C636 C630 1.383 . S
C636 C635 1.379 . S
H637 C631 0.959 . S
H638 C631 0.961 . S
H639 C631 0.960 . S
H640 C632 0.930 . S
H641 C633 0.929 . S
H642 C650 0.929 . S
H643 C652 0.930 . S
H644 C654 0.930 . S
H645 C657 0.929 . S
H646 C660 0.930 . S
H647 C662 0.960 . S
H648 C662 0.960 . S
H649 C662 0.960 . S
C650 H642 0.929 . S
C650 C651 1.377 . S
C650 C652 1.384 . S
C651 C650 1.377 . S
C651 C657 1.390 . S
C652 H643 0.930 . S
C652 C650 1.384 . S
C652 C653 1.372 . S
C653 C652 1.372 . S
C653 C654 1.400 . S
C653 C658 1.490 . S
C654 H644 0.930 . S
C654 C653 1.400 . S
C654 C657 1.386 . S
H655 C671 0.930 . S
H656 C672 0.931 . S
C657 H645 0.929 . S
C657 C651 1.390 . S
C657 C654 1.386 . S
C658 C653 1.490 . S
C658 C660 1.395 . S
C658 C661 1.403 . S
H659 C665 0.930 . S
C660 H646 0.930 . S
C660 C658 1.395 . S
C660 C663 1.403 . S
C661 C658 1.403 . S
C661 C662 1.524 . S
C661 C665 1.400 . S
C662 H647 0.960 . S
C662 H648 0.960 . S
C662 H649 0.960 . S
C662 C661 1.524 . S
C663 C660 1.403 . S
C663 C664 1.392 . S
C663 C667 1.495 . S
C664 C663 1.392 . S
C664 C665 1.385 . S
C664 C666 1.478 . S
C665 H659 0.930 . S
C665 C661 1.400 . S
C665 C664 1.385 . S
C666 C664 1.478 . S
C666 C668 1.381 . S
C666 C672 1.383 . S
C667 C663 1.495 . S
C667 H673 0.959 . S
C667 H674 0.961 . S
C667 H675 0.960 . S
C668 C666 1.381 . S
C668 C669 1.394 . S
C668 H676 0.930 . S
C669 C668 1.394 . S
C669 C670 1.383 . S
C669 H677 0.929 . S
C670 C669 1.383 . S
C670 C671 1.377 . S
C671 H655 0.930 . S
C671 C670 1.377 . S
C671 C672 1.379 . S
C672 H656 0.931 . S
C672 C666 1.383 . S
C672 C671 1.379 . S
H673 C667 0.959 . S
H674 C667 0.961 . S
H675 C667 0.960 . S
H676 C668 0.930 . S
H677 C669 0.929 . S
H678 C686 0.929 . S
H679 C688 0.930 . S
H680 C690 0.930 . S
H681 C693 0.929 . S
H682 C696 0.930 . S
H683 C698 0.960 . S
H684 C698 0.960 . S
H685 C698 0.960 . S
C686 H678 0.929 . S
C686 C687 1.377 . S
C686 C688 1.384 . S
C687 C686 1.377 . S
C687 C693 1.390 . S
C688 H679 0.930 . S
C688 C686 1.384 . S
C688 C689 1.372 . S
C689 C688 1.372 . S
C689 C690 1.400 . S
C689 C694 1.490 . S
C690 H680 0.930 . S
C690 C689 1.400 . S
C690 C693 1.386 . S
H691 C707 0.930 . S
H692 C708 0.931 . S
C693 H681 0.929 . S
C693 C687 1.390 . S
C693 C690 1.386 . S
C694 C689 1.490 . S
C694 C696 1.395 . S
C694 C697 1.403 . S
H695 C701 0.930 . S
C696 H682 0.930 . S
C696 C694 1.395 . S
C696 C699 1.403 . S
C697 C694 1.403 . S
C697 C698 1.524 . S
C697 C701 1.400 . S
C698 H683 0.960 . S
C698 H684 0.960 . S
C698 H685 0.960 . S
C698 C697 1.524 . S
C699 C696 1.403 . S
C699 C700 1.392 . S
C699 C703 1.495 . S
C700 C699 1.392 . S
C700 C701 1.385 . S
C700 C702 1.478 . S
C701 H695 0.930 . S
C701 C697 1.400 . S
C701 C700 1.385 . S
C702 C700 1.478 . S
C702 C704 1.381 . S
C702 C708 1.383 . S
C703 C699 1.495 . S
C703 H709 0.959 . S
C703 H710 0.961 . S
C703 H711 0.960 . S
C704 C702 1.381 . S
C704 C705 1.394 . S
C704 H712 0.930 . S
C705 C704 1.394 . S
C705 C706 1.383 . S
C705 H713 0.929 . S
C706 C705 1.383 . S
C706 C707 1.377 . S
C707 H691 0.930 . S
C707 C706 1.377 . S
C707 C708 1.379 . S
C708 H692 0.931 . S
C708 C702 1.383 . S
C708 C707 1.379 . S
H709 C703 0.959 . S
H710 C703 0.961 . S
H711 C703 0.960 . S
H712 C704 0.930 . S
H713 C705 0.929 . S
H714 C722 0.929 . S
H715 C724 0.930 . S
H716 C726 0.930 . S
H717 C729 0.929 . S
H718 C732 0.930 . S
H719 C734 0.960 . S
H720 C734 0.960 . S
H721 C734 0.960 . S
C722 H714 0.929 . S
C722 C723 1.377 . S
C722 C724 1.384 . S
C723 C722 1.377 . S
C723 C729 1.390 . S
C724 H715 0.930 . S
C724 C722 1.384 . S
C724 C725 1.372 . S
C725 C724 1.372 . S
C725 C726 1.400 . S
C725 C730 1.490 . S
C726 H716 0.930 . S
C726 C725 1.400 . S
C726 C729 1.386 . S
H727 C743 0.930 . S
H728 C744 0.931 . S
C729 H717 0.929 . S
C729 C723 1.390 . S
C729 C726 1.386 . S
C730 C725 1.490 . S
C730 C732 1.395 . S
C730 C733 1.403 . S
H731 C737 0.930 . S
C732 H718 0.930 . S
C732 C730 1.395 . S
C732 C735 1.403 . S
C733 C730 1.403 . S
C733 C734 1.524 . S
C733 C737 1.400 . S
C734 H719 0.960 . S
C734 H720 0.960 . S
C734 H721 0.960 . S
C734 C733 1.524 . S
C735 C732 1.403 . S
C735 C736 1.392 . S
C735 C739 1.495 . S
C736 C735 1.392 . S
C736 C737 1.385 . S
C736 C738 1.478 . S
C737 H731 0.930 . S
C737 C733 1.400 . S
C737 C736 1.385 . S
C738 C736 1.478 . S
C738 C740 1.381 . S
C738 C744 1.383 . S
C739 C735 1.495 . S
C739 H745 0.959 . S
C739 H746 0.961 . S
C739 H747 0.960 . S
C740 C738 1.381 . S
C740 C741 1.394 . S
C740 H748 0.930 . S
C741 C740 1.394 . S
C741 C742 1.383 . S
C741 H749 0.929 . S
C742 C741 1.383 . S
C742 C743 1.377 . S
C743 H727 0.930 . S
C743 C742 1.377 . S
C743 C744 1.379 . S
C744 H728 0.931 . S
C744 C738 1.383 . S
C744 C743 1.379 . S
H745 C739 0.959 . S
H746 C739 0.961 . S
H747 C739 0.960 . S
H748 C740 0.930 . S
H749 C741 0.929 . S
H750 C758 0.929 . S
H751 C760 0.930 . S
H752 C762 0.930 . S
H753 C765 0.929 . S
H754 C768 0.930 . S
H755 C770 0.960 . S
H756 C770 0.960 . S
H757 C770 0.960 . S
C758 H750 0.929 . S
C758 C759 1.377 . S
C758 C760 1.384 . S
C759 C758 1.377 . S
C759 C765 1.390 . S
C760 H751 0.930 . S
C760 C758 1.384 . S
C760 C761 1.372 . S
C761 C760 1.372 . S
C761 C762 1.400 . S
C761 C766 1.490 . S
C762 H752 0.930 . S
C762 C761 1.400 . S
C762 C765 1.386 . S
H763 C779 0.930 . S
H764 C780 0.931 . S
C765 H753 0.929 . S
C765 C759 1.390 . S
C765 C762 1.386 . S
C766 C761 1.490 . S
C766 C768 1.395 . S
C766 C769 1.403 . S
H767 C773 0.930 . S
C768 H754 0.930 . S
C768 C766 1.395 . S
C768 C771 1.403 . S
C769 C766 1.403 . S
C769 C770 1.524 . S
C769 C773 1.400 . S
C770 H755 0.960 . S
C770 H756 0.960 . S
C770 H757 0.960 . S
C770 C769 1.524 . S
C771 C768 1.403 . S
C771 C772 1.392 . S
C771 C775 1.495 . S
C772 C771 1.392 . S
C772 C773 1.385 . S
C772 C774 1.478 . S
C773 H767 0.930 . S
C773 C769 1.400 . S
C773 C772 1.385 . S
C774 C772 1.478 . S
C774 C776 1.381 . S
C774 C780 1.383 . S
C775 C771 1.495 . S
C775 H781 0.959 . S
C775 H782 0.961 . S
C775 H783 0.960 . S
C776 C774 1.381 . S
C776 C777 1.394 . S
C776 H784 0.930 . S
C777 C776 1.394 . S
C777 C778 1.383 . S
C777 H785 0.929 . S
C778 C777 1.383 . S
C778 C779 1.377 . S
C779 H763 0.930 . S
C779 C778 1.377 . S
C779 C780 1.379 . S
C780 H764 0.931 . S
C780 C774 1.383 . S
C780 C779 1.379 . S
H781 C775 0.959 . S
H782 C775 0.961 . S
H783 C775 0.960 . S
H784 C776 0.930 . S
H785 C777 0.929 . S
H786 C794 0.929 . S
H787 C796 0.930 . S
H788 C798 0.930 . S
H789 C801 0.929 . S
H790 C804 0.930 . S
H791 C806 0.960 . S
H792 C806 0.960 . S
H793 C806 0.960 . S
C794 H786 0.929 . S
C794 C795 1.377 . S
C794 C796 1.384 . S
C795 C794 1.377 . S
C795 C801 1.390 . S
C796 H787 0.930 . S
C796 C794 1.384 . S
C796 C797 1.372 . S
C797 C796 1.372 . S
C797 C798 1.400 . S
C797 C802 1.490 . S
C798 H788 0.930 . S
C798 C797 1.400 . S
C798 C801 1.386 . S
H799 C815 0.930 . S
H800 C816 0.931 . S
C801 H789 0.929 . S
C801 C795 1.390 . S
C801 C798 1.386 . S
C802 C797 1.490 . S
C802 C804 1.395 . S
C802 C805 1.403 . S
H803 C809 0.930 . S
C804 H790 0.930 . S
C804 C802 1.395 . S
C804 C807 1.403 . S
C805 C802 1.403 . S
C805 C806 1.524 . S
C805 C809 1.400 . S
C806 H791 0.960 . S
C806 H792 0.960 . S
C806 H793 0.960 . S
C806 C805 1.524 . S
C807 C804 1.403 . S
C807 C808 1.392 . S
C807 C811 1.495 . S
C808 C807 1.392 . S
C808 C809 1.385 . S
C808 C810 1.478 . S
C809 H803 0.930 . S
C809 C805 1.400 . S
C809 C808 1.385 . S
C810 C808 1.478 . S
C810 C812 1.381 . S
C810 C816 1.383 . S
C811 C807 1.495 . S
C811 H817 0.959 . S
C811 H818 0.961 . S
C811 H819 0.960 . S
C812 C810 1.381 . S
C812 C813 1.394 . S
C812 H820 0.930 . S
C813 C812 1.394 . S
C813 C814 1.383 . S
C813 H821 0.929 . S
C814 C813 1.383 . S
C814 C815 1.377 . S
C815 H799 0.930 . S
C815 C814 1.377 . S
C815 C816 1.379 . S
C816 H800 0.931 . S
C816 C810 1.383 . S
C816 C815 1.379 . S
H817 C811 0.959 . S
H818 C811 0.961 . S
H819 C811 0.960 . S
H820 C812 0.930 . S
H821 C813 0.929 . S
H822 C830 0.929 . S
H823 C832 0.930 . S
H824 C834 0.930 . S
H825 C837 0.929 . S
H826 C840 0.930 . S
H827 C842 0.960 . S
H828 C842 0.960 . S
H829 C842 0.960 . S
C830 H822 0.929 . S
C830 C831 1.377 . S
C830 C832 1.384 . S
C831 C830 1.377 . S
C831 C837 1.390 . S
C832 H823 0.930 . S
C832 C830 1.384 . S
C832 C833 1.372 . S
C833 C832 1.372 . S
C833 C834 1.400 . S
C833 C838 1.490 . S
C834 H824 0.930 . S
C834 C833 1.400 . S
C834 C837 1.386 . S
H835 C851 0.930 . S
H836 C852 0.931 . S
C837 H825 0.929 . S
C837 C831 1.390 . S
C837 C834 1.386 . S
C838 C833 1.490 . S
C838 C840 1.395 . S
C838 C841 1.403 . S
H839 C845 0.930 . S
C840 H826 0.930 . S
C840 C838 1.395 . S
C840 C843 1.403 . S
C841 C838 1.403 . S
C841 C842 1.524 . S
C841 C845 1.400 . S
C842 H827 0.960 . S
C842 H828 0.960 . S
C842 H829 0.960 . S
C842 C841 1.524 . S
C843 C840 1.403 . S
C843 C844 1.392 . S
C843 C847 1.495 . S
C844 C843 1.392 . S
C844 C845 1.385 . S
C844 C846 1.478 . S
C845 H839 0.930 . S
C845 C841 1.400 . S
C845 C844 1.385 . S
C846 C844 1.478 . S
C846 C848 1.381 . S
C846 C852 1.383 . S
C847 C843 1.495 . S
C847 H853 0.959 . S
C847 H854 0.961 . S
C847 H855 0.960 . S
C848 C846 1.381 . S
C848 C849 1.394 . S
C848 H856 0.930 . S
C849 C848 1.394 . S
C849 C850 1.383 . S
C849 H857 0.929 . S
C850 C849 1.383 . S
C850 C851 1.377 . S
C851 H835 0.930 . S
C851 C850 1.377 . S
C851 C852 1.379 . S
C852 H836 0.931 . S
C852 C846 1.383 . S
C852 C851 1.379 . S
H853 C847 0.959 . S
H854 C847 0.961 . S
H855 C847 0.960 . S
H856 C848 0.930 . S
H857 C849 0.929 . S
H858 C866 0.929 . S
H859 C868 0.930 . S
H860 C870 0.930 . S
H861 C873 0.929 . S
H862 C876 0.930 . S
H863 C878 0.960 . S
H864 C878 0.960 . S
H865 C878 0.960 . S
C866 H858 0.929 . S
C866 C867 1.377 . S
C866 C868 1.384 . S
C867 C866 1.377 . S
C867 C873 1.390 . S
C868 H859 0.930 . S
C868 C866 1.384 . S
C868 C869 1.372 . S
C869 C868 1.372 . S
C869 C870 1.400 . S
C869 C874 1.490 . S
C870 H860 0.930 . S
C870 C869 1.400 . S
C870 C873 1.386 . S
H871 C887 0.930 . S
H872 C888 0.931 . S
C873 H861 0.929 . S
C873 C867 1.390 . S
C873 C870 1.386 . S
C874 C869 1.490 . S
C874 C876 1.395 . S
C874 C877 1.403 . S
H875 C881 0.930 . S
C876 H862 0.930 . S
C876 C874 1.395 . S
C876 C879 1.403 . S
C877 C874 1.403 . S
C877 C878 1.524 . S
C877 C881 1.400 . S
C878 H863 0.960 . S
C878 H864 0.960 . S
C878 H865 0.960 . S
C878 C877 1.524 . S
C879 C876 1.403 . S
C879 C880 1.392 . S
C879 C883 1.495 . S
C880 C879 1.392 . S
C880 C881 1.385 . S
C880 C882 1.478 . S
C881 H875 0.930 . S
C881 C877 1.400 . S
C881 C880 1.385 . S
C882 C880 1.478 . S
C882 C884 1.381 . S
C882 C888 1.383 . S
C883 C879 1.495 . S
C883 H889 0.959 . S
C883 H890 0.961 . S
C883 H891 0.960 . S
C884 C882 1.381 . S
C884 C885 1.394 . S
C884 H892 0.930 . S
C885 C884 1.394 . S
C885 C886 1.383 . S
C885 H893 0.929 . S
C886 C885 1.383 . S
C886 C887 1.377 . S
C887 H871 0.930 . S
C887 C886 1.377 . S
C887 C888 1.379 . S
C888 H872 0.931 . S
C888 C882 1.383 . S
C888 C887 1.379 . S
H889 C883 0.959 . S
H890 C883 0.961 . S
H891 C883 0.960 . S
H892 C884 0.930 . S
H893 C885 0.929 . S
H894 C902 0.929 . S
H895 C904 0.930 . S
H896 C906 0.930 . S
H897 C909 0.929 . S
H898 C912 0.930 . S
H899 C914 0.960 . S
H900 C914 0.960 . S
H901 C914 0.960 . S
C902 H894 0.929 . S
C902 C903 1.377 . S
C902 C904 1.384 . S
C903 C902 1.377 . S
C903 C909 1.390 . S
C904 H895 0.930 . S
C904 C902 1.384 . S
C904 C905 1.372 . S
C905 C904 1.372 . S
C905 C906 1.400 . S
C905 C910 1.490 . S
C906 H896 0.930 . S
C906 C905 1.400 . S
C906 C909 1.386 . S
H907 C923 0.930 . S
H908 C924 0.931 . S
C909 H897 0.929 . S
C909 C903 1.390 . S
C909 C906 1.386 . S
C910 C905 1.490 . S
C910 C912 1.395 . S
C910 C913 1.403 . S
H911 C917 0.930 . S
C912 H898 0.930 . S
C912 C910 1.395 . S
C912 C915 1.403 . S
C913 C910 1.403 . S
C913 C914 1.524 . S
C913 C917 1.400 . S
C914 H899 0.960 . S
C914 H900 0.960 . S
C914 H901 0.960 . S
C914 C913 1.524 . S
C915 C912 1.403 . S
C915 C916 1.392 . S
C915 C919 1.495 . S
C916 C915 1.392 . S
C916 C917 1.385 . S
C916 C918 1.478 . S
C917 H911 0.930 . S
C917 C913 1.400 . S
C917 C916 1.385 . S
C918 C916 1.478 . S
C918 C920 1.381 . S
C918 C924 1.383 . S
C919 C915 1.495 . S
C919 H925 0.959 . S
C919 H926 0.961 . S
C919 H927 0.960 . S
C920 C918 1.381 . S
C920 C921 1.394 . S
C920 H928 0.930 . S
C921 C920 1.394 . S
C921 C922 1.383 . S
C921 H929 0.929 . S
C922 C921 1.383 . S
C922 C923 1.377 . S
C923 H907 0.930 . S
C923 C922 1.377 . S
C923 C924 1.379 . S
C924 H908 0.931 . S
C924 C918 1.383 . S
C924 C923 1.379 . S
H925 C919 0.959 . S
H926 C919 0.961 . S
H927 C919 0.960 . S
H928 C920 0.930 . S
H929 C921 0.929 . S
H930 C938 0.929 . S
H931 C940 0.930 . S
H932 C942 0.930 . S
H933 C945 0.929 . S
H934 C948 0.930 . S
H935 C950 0.960 . S
H936 C950 0.960 . S
H937 C950 0.960 . S
C938 H930 0.929 . S
C938 C939 1.377 . S
C938 C940 1.384 . S
C939 C938 1.377 . S
C939 C945 1.390 . S
C940 H931 0.930 . S
C940 C938 1.384 . S
C940 C941 1.372 . S
C941 C940 1.372 . S
C941 C942 1.400 . S
C941 C946 1.490 . S
C942 H932 0.930 . S
C942 C941 1.400 . S
C942 C945 1.386 . S
H943 C959 0.930 . S
H944 C960 0.931 . S
C945 H933 0.929 . S
C945 C939 1.390 . S
C945 C942 1.386 . S
C946 C941 1.490 . S
C946 C948 1.395 . S
C946 C949 1.403 . S
H947 C953 0.930 . S
C948 H934 0.930 . S
C948 C946 1.395 . S
C948 C951 1.403 . S
C949 C946 1.403 . S
C949 C950 1.524 . S
C949 C953 1.400 . S
C950 H935 0.960 . S
C950 H936 0.960 . S
C950 H937 0.960 . S
C950 C949 1.524 . S
C951 C948 1.403 . S
C951 C952 1.392 . S
C951 C955 1.495 . S
C952 C951 1.392 . S
C952 C953 1.385 . S
C952 C954 1.478 . S
C953 H947 0.930 . S
C953 C949 1.400 . S
C953 C952 1.385 . S
C954 C952 1.478 . S
C954 C956 1.381 . S
C954 C960 1.383 . S
C955 C951 1.495 . S
C955 H961 0.959 . S
C955 H962 0.961 . S
C955 H963 0.960 . S
C956 C954 1.381 . S
C956 C957 1.394 . S
C956 H964 0.930 . S
C957 C956 1.394 . S
C957 C958 1.383 . S
C957 H965 0.929 . S
C958 C957 1.383 . S
C958 C959 1.377 . S
C959 H943 0.930 . S
C959 C958 1.377 . S
C959 C960 1.379 . S
C960 H944 0.931 . S
C960 C954 1.383 . S
C960 C959 1.379 . S
H961 C955 0.959 . S
H962 C955 0.961 . S
H963 C955 0.960 . S
H964 C956 0.930 . S
H965 C957 0.929 . S
H966 C974 0.929 . S
H967 C976 0.930 . S
H968 C978 0.930 . S
H969 C981 0.929 . S
H970 C984 0.930 . S
H971 C986 0.960 . S
H972 C986 0.960 . S
H973 C986 0.960 . S
C974 H966 0.929 . S
C974 C975 1.377 . S
C974 C976 1.384 . S
C975 C974 1.377 . S
C975 C981 1.390 . S
C976 H967 0.930 . S
C976 C974 1.384 . S
C976 C977 1.372 . S
C977 C976 1.372 . S
C977 C978 1.400 . S
C977 C982 1.490 . S
C978 H968 0.930 . S
C978 C977 1.400 . S
C978 C981 1.386 . S
H979 C995 0.930 . S
H980 C996 0.931 . S
C981 H969 0.929 . S
C981 C975 1.390 . S
C981 C978 1.386 . S
C982 C977 1.490 . S
C982 C984 1.395 . S
C982 C985 1.403 . S
H983 C989 0.930 . S
C984 H970 0.930 . S
C984 C982 1.395 . S
C984 C987 1.403 . S
C985 C982 1.403 . S
C985 C986 1.524 . S
C985 C989 1.400 . S
C986 H971 0.960 . S
C986 H972 0.960 . S
C986 H973 0.960 . S
C986 C985 1.524 . S
C987 C984 1.403 . S
C987 C988 1.392 . S
C987 C991 1.495 . S
C988 C987 1.392 . S
C988 C989 1.385 . S
C988 C990 1.478 . S
C989 H983 0.930 . S
C989 C985 1.400 . S
C989 C988 1.385 . S
C990 C988 1.478 . S
C990 C992 1.381 . S
C990 C996 1.383 . S
C991 C987 1.495 . S
C991 H997 0.959 . S
C991 H998 0.961 . S
C991 H999 0.960 . S
C992 C990 1.381 . S
C992 C993 1.394 . S
C992 H1000 0.930 . S
C993 C992 1.394 . S
C993 C994 1.383 . S
C993 H1001 0.929 . S
C994 C993 1.383 . S
C994 C995 1.377 . S
C995 H979 0.930 . S
C995 C994 1.377 . S
C995 C996 1.379 . S
C996 H980 0.931 . S
C996 C990 1.383 . S
C996 C995 1.379 . S
H997 C991 0.959 . S
H998 C991 0.961 . S
H999 C991 0.960 . S
H1000 C992 0.930 . S
H1001 C993 0.929 . S
H1002 C1010 0.929 . S
H1003 C1012 0.930 . S
H1004 C1014 0.930 . S
H1005 C1017 0.929 . S
H1006 C1020 0.930 . S
H1007 C1022 0.960 . S
H1008 C1022 0.960 . S
H1009 C1022 0.960 . S
C1010 H1002 0.929 . S
C1010 C1011 1.377 . S
C1010 C1012 1.384 . S
C1011 C1010 1.377 . S
C1011 C1017 1.390 . S
C1012 H1003 0.930 . S
C1012 C1010 1.384 . S
C1012 C1013 1.372 . S
C1013 C1012 1.372 . S
C1013 C1014 1.400 . S
C1013 C1018 1.490 . S
C1014 H1004 0.930 . S
C1014 C1013 1.400 . S
C1014 C1017 1.386 . S
H1015 C1031 0.930 . S
H1016 C1032 0.931 . S
C1017 H1005 0.929 . S
C1017 C1011 1.390 . S
C1017 C1014 1.386 . S
C1018 C1013 1.490 . S
C1018 C1020 1.395 . S
C1018 C1021 1.403 . S
H1019 C1025 0.930 . S
C1020 H1006 0.930 . S
C1020 C1018 1.395 . S
C1020 C1023 1.403 . S
C1021 C1018 1.403 . S
C1021 C1022 1.524 . S
C1021 C1025 1.400 . S
C1022 H1007 0.960 . S
C1022 H1008 0.960 . S
C1022 H1009 0.960 . S
C1022 C1021 1.524 . S
C1023 C1020 1.403 . S
C1023 C1024 1.392 . S
C1023 C1027 1.495 . S
C1024 C1023 1.392 . S
C1024 C1025 1.385 . S
C1024 C1026 1.478 . S
C1025 H1019 0.930 . S
C1025 C1021 1.400 . S
C1025 C1024 1.385 . S
C1026 C1024 1.478 . S
C1026 C1028 1.381 . S
C1026 C1032 1.383 . S
C1027 C1023 1.495 . S
C1027 H1033 0.959 . S
C1027 H1034 0.961 . S
C1027 H1035 0.960 . S
C1028 C1026 1.381 . S
C1028 C1029 1.394 . S
C1028 H1036 0.930 . S
C1029 C1028 1.394 . S
C1029 C1030 1.383 . S
C1029 H1037 0.929 . S
C1030 C1029 1.383 . S
C1030 C1031 1.377 . S
C1031 H1015 0.930 . S
C1031 C1030 1.377 . S
C1031 C1032 1.379 . S
C1032 H1016 0.931 . S
C1032 C1026 1.383 . S
C1032 C1031 1.379 . S
H1033 C1027 0.959 . S
H1034 C1027 0.961 . S
H1035 C1027 0.960 . S
H1036 C1028 0.930 . S
H1037 C1029 0.929 . S
H1038 C1046 0.929 . S
H1039 C1048 0.930 . S
H1040 C1050 0.930 . S
H1041 C1053 0.929 . S
H1042 C1056 0.930 . S
H1043 C1058 0.960 . S
H1044 C1058 0.960 . S
H1045 C1058 0.960 . S
C1046 H1038 0.929 . S
C1046 C1047 1.377 . S
C1046 C1048 1.384 . S
C1047 C1046 1.377 . S
C1047 C1053 1.390 . S
C1048 H1039 0.930 . S
C1048 C1046 1.384 . S
C1048 C1049 1.372 . S
C1049 C1048 1.372 . S
C1049 C1050 1.400 . S
C1049 C1054 1.490 . S
C1050 H1040 0.930 . S
C1050 C1049 1.400 . S
C1050 C1053 1.386 . S
H1051 C1067 0.930 . S
H1052 C1068 0.931 . S
C1053 H1041 0.929 . S
C1053 C1047 1.390 . S
C1053 C1050 1.386 . S
C1054 C1049 1.490 . S
C1054 C1056 1.395 . S
C1054 C1057 1.403 . S
H1055 C1061 0.930 . S
C1056 H1042 0.930 . S
C1056 C1054 1.395 . S
C1056 C1059 1.403 . S
C1057 C1054 1.403 . S
C1057 C1058 1.524 . S
C1057 C1061 1.400 . S
C1058 H1043 0.960 . S
C1058 H1044 0.960 . S
C1058 H1045 0.960 . S
C1058 C1057 1.524 . S
C1059 C1056 1.403 . S
C1059 C1060 1.392 . S
C1059 C1063 1.495 . S
C1060 C1059 1.392 . S
C1060 C1061 1.385 . S
C1060 C1062 1.478 . S
C1061 H1055 0.930 . S
C1061 C1057 1.400 . S
C1061 C1060 1.385 . S
C1062 C1060 1.478 . S
C1062 C1064 1.381 . S
C1062 C1068 1.383 . S
C1063 C1059 1.495 . S
C1063 H1069 0.959 . S
C1063 H1070 0.961 . S
C1063 H1071 0.960 . S
C1064 C1062 1.381 . S
C1064 C1065 1.394 . S
C1064 H1072 0.930 . S
C1065 C1064 1.394 . S
C1065 C1066 1.383 . S
C1065 H1073 0.929 . S
C1066 C1065 1.383 . S
C1066 C1067 1.377 . S
C1067 H1051 0.930 . S
C1067 C1066 1.377 . S
C1067 C1068 1.379 . S
C1068 H1052 0.931 . S
C1068 C1062 1.383 . S
C1068 C1067 1.379 . S
H1069 C1063 0.959 . S
H1070 C1063 0.961 . S
H1071 C1063 0.960 . S
H1072 C1064 0.930 . S
H1073 C1065 0.929 . S
C219 C13 1.590 . S
C238 C93 1.445 . S
C255 C27 1.628 . S
C274 C114 1.506 . S
C310 C135 1.446 . S
C291 C29 1.595 . S
C346 C164 1.580 . S
C327 C54 1.639 . S
C382 C177 1.428 . S
C363 C69 1.590 . S
C418 C201 1.545 . S
C399 C83 1.628 . S
C435 C15 1.582 . S
C454 C145 1.449 . S
C471 C41 1.634 . S
C490 C159 1.534 . S
C526 C187 1.414 . S
C507 C42 1.588 . S
C562 C206 1.529 . S
C543 C57 1.642 . S
C579 C71 1.590 . S
C598 C103 1.417 . S
C634 C124 1.525 . S
C615 C1 1.625 . S
C670 C166 1.566 . S
C651 C12 1.617 . S
C687 C26 1.668 . S
C706 C180 1.506 . S
C742 C198 1.576 . S
C723 C28 1.630 . S
C759 C55 1.669 . S
C778 C96 1.499 . S
C795 C68 1.631 . S
C814 C117 1.461 . S
C831 C82 1.666 . S
C850 C138 1.498 . S
C867 C14 1.614 . S
C886 C208 1.555 . S
C922 C101 1.506 . S
C903 C40 1.667 . S
C939 C43 1.629 . S
C958 C122 1.441 . S
C975 C56 1.672 . S
C994 C143 1.492 . S
C1011 C70 1.626 . S
C1030 C156 1.576 . S
C1047 C0 1.665 . S
C1066 C185 1.493 . S
