# Generated by pormake.
# Topology apo, (3,6)-cn, num edge types: 1
# Building blocks:
#     Node 0, Type 0, BuildingBlock: VETTIZ_charged_linker_0, # of connection points: 3
#     Node 1, Type 0, BuildingBlock: VETTIZ_charged_linker_0, # of connection points: 3
#     Node 2, Type 0, BuildingBlock: VETTIZ_charged_linker_0, # of connection points: 3
#     Node 3, Type 0, BuildingBlock: VETTIZ_charged_linker_0, # of connection points: 3
#     Node 4, Type 0, BuildingBlock: VETTIZ_charged_linker_0, # of connection points: 3
#     Node 5, Type 0, BuildingBlock: VETTIZ_charged_linker_0, # of connection points: 3
#     Node 6, Type 0, BuildingBlock: VETTIZ_charged_linker_0, # of connection points: 3
#     Node 7, Type 0, BuildingBlock: VETTIZ_charged_linker_0, # of connection points: 3
#     Node 8, Type 1, BuildingBlock: KUMJIN_clean_sbu_1, # of connection points: 6
#     Node 9, Type 1, BuildingBlock: KUMJIN_clean_sbu_1, # of connection points: 6
#     Node 10, Type 1, BuildingBlock: KUMJIN_clean_sbu_1, # of connection points: 6
#     Node 11, Type 1, BuildingBlock: KUMJIN_clean_sbu_1, # of connection points: 6
#     Edge 12, Type (0, 1), BuildingBlock: TEMPAE_clean_linker_10, # of connection points: 2
#     Edge 13, Type (0, 1), BuildingBlock: TEMPAE_clean_linker_10, # of connection points: 2
#     Edge 14, Type (0, 1), BuildingBlock: TEMPAE_clean_linker_10, # of connection points: 2
#     Edge 15, Type (0, 1), BuildingBlock: TEMPAE_clean_linker_10, # of connection points: 2
#     Edge 16, Type (0, 1), BuildingBlock: TEMPAE_clean_linker_10, # of connection points: 2
#     Edge 17, Type (0, 1), BuildingBlock: TEMPAE_clean_linker_10, # of connection points: 2
#     Edge 18, Type (0, 1), BuildingBlock: TEMPAE_clean_linker_10, # of connection points: 2
#     Edge 19, Type (0, 1), BuildingBlock: TEMPAE_clean_linker_10, # of connection points: 2
#     Edge 20, Type (0, 1), BuildingBlock: TEMPAE_clean_linker_10, # of connection points: 2
#     Edge 21, Type (0, 1), BuildingBlock: TEMPAE_clean_linker_10, # of connection points: 2
#     Edge 22, Type (0, 1), BuildingBlock: TEMPAE_clean_linker_10, # of connection points: 2
#     Edge 23, Type (0, 1), BuildingBlock: TEMPAE_clean_linker_10, # of connection points: 2
#     Edge 24, Type (0, 1), BuildingBlock: TEMPAE_clean_linker_10, # of connection points: 2
#     Edge 25, Type (0, 1), BuildingBlock: TEMPAE_clean_linker_10, # of connection points: 2
#     Edge 26, Type (0, 1), BuildingBlock: TEMPAE_clean_linker_10, # of connection points: 2
#     Edge 27, Type (0, 1), BuildingBlock: TEMPAE_clean_linker_10, # of connection points: 2
#     Edge 28, Type (0, 1), BuildingBlock: TEMPAE_clean_linker_10, # of connection points: 2
#     Edge 29, Type (0, 1), BuildingBlock: TEMPAE_clean_linker_10, # of connection points: 2
#     Edge 30, Type (0, 1), BuildingBlock: TEMPAE_clean_linker_10, # of connection points: 2
#     Edge 31, Type (0, 1), BuildingBlock: TEMPAE_clean_linker_10, # of connection points: 2
#     Edge 32, Type (0, 1), BuildingBlock: TEMPAE_clean_linker_10, # of connection points: 2
#     Edge 33, Type (0, 1), BuildingBlock: TEMPAE_clean_linker_10, # of connection points: 2
#     Edge 34, Type (0, 1), BuildingBlock: TEMPAE_clean_linker_10, # of connection points: 2
#     Edge 35, Type (0, 1), BuildingBlock: TEMPAE_clean_linker_10, # of connection points: 2
# Relax obj value: 0.010
# Max RMSD: 0.095
# Mean RMSD: 0.076
data_MOF--net-apo--node1-KUMJIN_clean_sbu_1--node2-VETTIZ_charged_linker_0--edge1-TEMPAE_clean_linker_10
_symmetry_space_group_name_H-M    P1
_symmetry_Int_Tables_number       1
_symmetry_cell_setting            triclinic
loop_
_symmetry_equiv_pos_as_xyz
'x, y, z'
_cell_length_a     29.163088
_cell_length_b     52.694998
_cell_length_c     64.80455
_cell_angle_alpha  89.963977
_cell_angle_beta   89.988579
_cell_angle_gamma 90.272436
loop_
_atom_site_label
_atom_site_type_symbol
_atom_site_fract_x
_atom_site_fract_y
_atom_site_fract_z
_atom_type_partial_charge
C0 C 0.28833 0.36225 0.48039 0.0
C1 C 0.31391 0.37937 0.49255 0.0
C2 C 0.33064 0.40185 0.48331 0.0
C3 C 0.29658 0.39004 0.4506 0.0
C4 C 0.28015 0.36796 0.45952 0.0
C5 C 0.25469 0.35164 0.44419 0.0
H6 H 0.18707 0.33135 0.34529 0.0
C7 C 0.28329 0.39009 0.42857 0.0
C8 C 0.25884 0.36755 0.42465 0.0
H9 H 0.1658 0.28251 0.39813 0.0
H10 H 0.20309 0.31326 0.42013 0.0
H11 H 0.16047 0.38423 0.36953 0.0
H12 H 0.28722 0.34666 0.35529 0.0
H13 H 0.29741 0.37927 0.35229 0.0
H14 H 0.25537 0.36377 0.33616 0.0
H15 H 0.1834 0.38261 0.34386 0.0
H16 H 0.19974 0.40761 0.36143 0.0
C17 C 0.20428 0.34921 0.45143 0.0
C18 C 0.28022 0.32603 0.44232 0.0
C19 C 0.33332 0.4633 0.38209 0.0
C20 C 0.32885 0.46756 0.36078 0.0
C21 C 0.30379 0.45015 0.34873 0.0
C22 C 0.28382 0.42854 0.35769 0.0
C23 C 0.2895 0.42404 0.37893 0.0
C24 C 0.31364 0.44136 0.3908 0.0
C25 C 0.31745 0.43292 0.41294 0.0
C26 C 0.29158 0.40778 0.41239 0.0
C27 C 0.27529 0.4027 0.39243 0.0
C28 C 0.29281 0.45274 0.4266 0.0
C29 C 0.36899 0.42928 0.41803 0.0
C30 C 0.1898 0.32737 0.36164 0.0
C31 C 0.17354 0.30429 0.36987 0.0
C32 C 0.17862 0.29988 0.39125 0.0
C33 C 0.20014 0.31785 0.40405 0.0
C34 C 0.21702 0.34056 0.39547 0.0
C35 C 0.21121 0.3451 0.37462 0.0
C36 C 0.23149 0.37015 0.36809 0.0
C37 C 0.25086 0.37982 0.38838 0.0
C38 C 0.24238 0.36241 0.4044 0.0
C39 C 0.19203 0.38714 0.36014 0.0
C40 C 0.26968 0.36493 0.35201 0.0
H41 H 0.33582 0.42469 0.45655 0.0
H42 H 0.27471 0.34489 0.48696 0.0
H43 H 0.31794 0.32885 0.44367 0.0
H44 H 0.2753 0.31679 0.42721 0.0
H45 H 0.2695 0.31268 0.45471 0.0
H46 H 0.19181 0.36756 0.45773 0.0
H47 H 0.20079 0.3347 0.46379 0.0
H48 H 0.18044 0.34449 0.43876 0.0
H49 H 0.35289 0.47631 0.39161 0.0
H50 H 0.3001 0.4532 0.33228 0.0
H51 H 0.26539 0.41595 0.34764 0.0
H52 H 0.26113 0.45967 0.41891 0.0
H53 H 0.31524 0.46945 0.42953 0.0
H54 H 0.2811 0.4449 0.44151 0.0
H55 H 0.3885 0.42316 0.40416 0.0
H56 H 0.37503 0.41412 0.42948 0.0
H57 H 0.38476 0.44721 0.42365 0.0
H58 H 0.3512 0.41518 0.49208 0.0
C59 C 0.32197 0.4073 0.46254 0.0
C60 C 0.32108 0.17108 0.86275 0.0
C61 C 0.33409 0.19463 0.87091 0.0
C62 C 0.32543 0.1999 0.89185 0.0
C63 C 0.29032 0.1583 0.89611 0.0
C64 C 0.29892 0.15342 0.87548 0.0
C65 C 0.28001 0.12829 0.86866 0.0
H66 H 0.15067 0.02496 0.88844 0.0
C67 C 0.26547 0.13607 0.90476 0.0
C68 C 0.25949 0.1185 0.88864 0.0
H69 H 0.21742 0.04627 0.83126 0.0
H70 H 0.25182 0.08226 0.84787 0.0
H71 H 0.23941 0.03369 0.91558 0.0
H72 H 0.12211 0.08029 0.90362 0.0
H73 H 0.13321 0.08114 0.93031 0.0
H74 H 0.12055 0.05128 0.9182 0.0
H75 H 0.18779 0.03036 0.93036 0.0
H76 H 0.23275 0.05222 0.93787 0.0
C77 C 0.32044 0.11161 0.86121 0.0
C78 C 0.24278 0.13342 0.85207 0.0
C79 C 0.21041 0.13473 0.97973 0.0
C80 C 0.18562 0.1165 0.99127 0.0
C81 C 0.17553 0.09289 0.98207 0.0
C82 C 0.18763 0.08789 0.96162 0.0
C83 C 0.21014 0.10664 0.95001 0.0
C84 C 0.22252 0.12932 0.95918 0.0
C85 C 0.248 0.14647 0.94435 0.0
C86 C 0.24769 0.13049 0.92476 0.0
C87 C 0.2249 0.10731 0.92825 0.0
C88 C 0.29718 0.15047 0.95268 0.0
C89 C 0.22036 0.17127 0.94183 0.0
C90 C 0.17304 0.03719 0.87951 0.0
C91 C 0.18014 0.03297 0.85828 0.0
C92 C 0.20984 0.04945 0.84741 0.0
C93 C 0.23024 0.07031 0.85715 0.0
C94 C 0.22134 0.07482 0.8781 0.0
C95 C 0.19422 0.05803 0.88907 0.0
C96 C 0.19034 0.06534 0.91145 0.0
C97 C 0.21773 0.08998 0.91177 0.0
C98 C 0.23549 0.09544 0.89218 0.0
C99 C 0.2134 0.04435 0.92462 0.0
C100 C 0.13895 0.06965 0.91635 0.0
H101 H 0.29834 0.18675 0.92042 0.0
H102 H 0.32683 0.1668 0.84661 0.0
H103 H 0.22352 0.15107 0.85564 0.0
H104 H 0.21621 0.11848 0.8513 0.0
H105 H 0.25835 0.13581 0.83655 0.0
H106 H 0.35243 0.11611 0.86985 0.0
H107 H 0.3276 0.11469 0.84456 0.0
H108 H 0.31456 0.09114 0.86399 0.0
H109 H 0.21922 0.15297 0.98635 0.0
H110 H 0.15816 0.07812 0.99073 0.0
H111 H 0.17835 0.06966 0.95556 0.0
H112 H 0.31156 0.13224 0.95837 0.0
H113 H 0.29741 0.16412 0.96574 0.0
H114 H 0.32132 0.15722 0.94075 0.0
H115 H 0.18286 0.16729 0.94206 0.0
H116 H 0.22665 0.1808 0.92693 0.0
H117 H 0.22799 0.18477 0.95455 0.0
H118 H 0.33525 0.21808 0.89832 0.0
C119 C 0.304 0.18174 0.90458 0.0
C120 C 0.79949 0.13773 0.5254 0.0
C121 C 0.82499 0.11984 0.51391 0.0
C122 C 0.83656 0.09664 0.52337 0.0
C123 C 0.80148 0.11004 0.55539 0.0
C124 C 0.78792 0.13236 0.54607 0.0
C125 C 0.76109 0.14895 0.56078 0.0
H126 H 0.68967 0.16931 0.65978 0.0
C127 C 0.78661 0.11054 0.57714 0.0
C128 C 0.76256 0.13325 0.58055 0.0
H129 H 0.66516 0.21763 0.60723 0.0
H130 H 0.70368 0.18734 0.58478 0.0
H131 H 0.66146 0.11876 0.63739 0.0
H132 H 0.79078 0.15492 0.64932 0.0
H133 H 0.79964 0.1224 0.65334 0.0
H134 H 0.75812 0.1389 0.66889 0.0
H135 H 0.68908 0.11691 0.66205 0.0
H136 H 0.69977 0.09387 0.642 0.0
C137 C 0.71169 0.15151 0.55243 0.0
C138 C 0.78664 0.17454 0.56312 0.0
C139 C 0.83671 0.03978 0.62552 0.0
C140 C 0.82868 0.03537 0.64658 0.0
C141 C 0.80156 0.05236 0.6579 0.0
C142 C 0.78315 0.07387 0.64847 0.0
C143 C 0.79158 0.07828 0.6274 0.0
C144 C 0.81737 0.06121 0.61621 0.0
C145 C 0.82135 0.06869 0.59387 0.0
C146 C 0.79463 0.0934 0.59367 0.0
C147 C 0.77763 0.09888 0.61335 0.0
C148 C 0.79758 0.04787 0.58069 0.0
C149 C 0.87289 0.07285 0.58899 0.0
C150 C 0.69263 0.17335 0.64343 0.0
C151 C 0.67504 0.19583 0.63521 0.0
C152 C 0.6787 0.20032 0.61382 0.0
C153 C 0.70114 0.1828 0.60089 0.0
C154 C 0.71957 0.1605 0.60949 0.0
C155 C 0.71421 0.15604 0.63041 0.0
C156 C 0.73412 0.13127 0.63711 0.0
C157 C 0.75322 0.1216 0.61691 0.0
C158 C 0.74517 0.13872 0.60066 0.0
C159 C 0.69439 0.11425 0.64522 0.0
C160 C 0.77249 0.13692 0.6531 0.0
H161 H 0.83555 0.07379 0.55012 0.0
H162 H 0.7896 0.15568 0.51864 0.0
H163 H 0.82409 0.17138 0.56504 0.0
H164 H 0.77573 0.18531 0.57683 0.0
H165 H 0.78165 0.18663 0.54926 0.0
H166 H 0.69923 0.13307 0.54617 0.0
H167 H 0.71013 0.16574 0.5398 0.0
H168 H 0.68682 0.15672 0.56452 0.0
H169 H 0.8572 0.02674 0.61653 0.0
H170 H 0.79529 0.04917 0.67419 0.0
H171 H 0.76343 0.0863 0.65804 0.0
H172 H 0.76948 0.03835 0.58942 0.0
H173 H 0.82225 0.03298 0.57594 0.0
H174 H 0.78056 0.05565 0.56682 0.0
H175 H 0.89064 0.08217 0.60218 0.0
H176 H 0.87894 0.0856 0.57575 0.0
H177 H 0.8903 0.05451 0.58603 0.0
H178 H 0.85456 0.08209 0.51485 0.0
C179 C 0.8251 0.09171 0.54392 0.0
C180 C 0.81757 0.32438 0.14022 0.0
C181 C 0.83188 0.30136 0.13158 0.0
C182 C 0.82274 0.29644 0.1106 0.0
C183 C 0.78519 0.3373 0.1073 0.0
C184 C 0.79409 0.34184 0.12794 0.0
C185 C 0.77428 0.36644 0.13528 0.0
H186 H 0.65531 0.47336 0.11581 0.0
C187 C 0.75946 0.35933 0.09911 0.0
C188 C 0.75329 0.37644 0.11551 0.0
H189 H 0.70878 0.44693 0.17407 0.0
H190 H 0.74153 0.41036 0.15736 0.0
H191 H 0.74279 0.45904 0.08792 0.0
H192 H 0.61754 0.41926 0.10187 0.0
H193 H 0.62844 0.41478 0.0755 0.0
H194 H 0.61975 0.44644 0.08518 0.0
H195 H 0.68936 0.46708 0.07592 0.0
H196 H 0.72664 0.44317 0.06522 0.0
C197 C 0.81418 0.3835 0.14301 0.0
C198 C 0.73725 0.3603 0.1518 0.0
C199 C 0.70469 0.36158 0.02421 0.0
C200 C 0.67974 0.37969 0.01274 0.0
C201 C 0.6684 0.40288 0.02229 0.0
C202 C 0.68014 0.40768 0.04286 0.0
C203 C 0.70363 0.38917 0.05425 0.0
C204 C 0.71641 0.36677 0.04484 0.0
C205 C 0.74226 0.34965 0.05943 0.0
C206 C 0.74159 0.36521 0.07921 0.0
C207 C 0.71876 0.38831 0.07601 0.0
C208 C 0.79156 0.34645 0.05105 0.0
C209 C 0.71523 0.32444 0.06168 0.0
C210 C 0.67452 0.45973 0.12481 0.0
C211 C 0.67974 0.46284 0.14619 0.0
C212 C 0.70431 0.44469 0.15757 0.0
C213 C 0.72318 0.42348 0.14782 0.0
C214 C 0.71675 0.42017 0.12649 0.0
C215 C 0.69285 0.43813 0.11534 0.0
C216 C 0.68769 0.4308 0.09302 0.0
C217 C 0.71244 0.40549 0.09265 0.0
C218 C 0.7295 0.39949 0.11227 0.0
C219 C 0.71252 0.45106 0.07968 0.0
C220 C 0.63576 0.42778 0.08843 0.0
H221 H 0.79387 0.30964 0.08247 0.0
H222 H 0.82335 0.3284 0.15642 0.0
H223 H 0.72057 0.34163 0.14877 0.0
H224 H 0.70861 0.37395 0.15178 0.0
H225 H 0.75242 0.35948 0.1675 0.0
H226 H 0.84532 0.38089 0.13333 0.0
H227 H 0.82354 0.37878 0.15917 0.0
H228 H 0.80651 0.40396 0.14199 0.0
H229 H 0.71406 0.34355 0.01747 0.0
H230 H 0.65052 0.4175 0.01379 0.0
H231 H 0.67013 0.42564 0.04915 0.0
H232 H 0.80512 0.36485 0.04516 0.0
H233 H 0.79233 0.33261 0.03812 0.0
H234 H 0.81612 0.34038 0.063 0.0
H235 H 0.67764 0.32793 0.06144 0.0
H236 H 0.72166 0.31479 0.07651 0.0
H237 H 0.72331 0.31122 0.04886 0.0
H238 H 0.83347 0.27871 0.1037 0.0
C239 C 0.7998 0.31439 0.09835 0.0
C240 C 0.69867 0.54802 0.64302 0.0
C241 C 0.66878 0.52842 0.63627 0.0
C242 C 0.65569 0.52873 0.61515 0.0
C243 C 0.69982 0.56707 0.60888 0.0
C244 C 0.71262 0.56718 0.62934 0.0
C245 C 0.74059 0.59031 0.63478 0.0
H246 H 0.82525 0.70548 0.60855 0.0
C247 C 0.71921 0.59005 0.59895 0.0
C248 C 0.74325 0.60372 0.61404 0.0
H249 H 0.83039 0.66703 0.66751 0.0
H250 H 0.79578 0.63001 0.65262 0.0
H251 H 0.85561 0.65295 0.58149 0.0
H252 H 0.72503 0.68752 0.59513 0.0
H253 H 0.72683 0.67922 0.56883 0.0
H254 H 0.76677 0.70236 0.57861 0.0
H255 H 0.83856 0.68251 0.5701 0.0
H256 H 0.82151 0.65245 0.5591 0.0
C257 C 0.78838 0.5815 0.64236 0.0
C258 C 0.71287 0.60585 0.65081 0.0
C259 C 0.68385 0.60777 0.52364 0.0
C260 C 0.69521 0.62776 0.51027 0.0
C261 C 0.72407 0.64742 0.51731 0.0
C262 C 0.74029 0.64757 0.53774 0.0
C263 C 0.72767 0.62777 0.55121 0.0
C264 C 0.70068 0.60805 0.54389 0.0
C265 C 0.6911 0.58839 0.56014 0.0
C266 C 0.7161 0.59966 0.57852 0.0
C267 C 0.73739 0.62283 0.57332 0.0
C268 C 0.71303 0.56308 0.55316 0.0
C269 C 0.63847 0.58706 0.56359 0.0
C270 C 0.81919 0.68895 0.61814 0.0
C271 C 0.82941 0.68948 0.63942 0.0
C272 C 0.82154 0.66746 0.65127 0.0
C273 C 0.80152 0.64587 0.64257 0.0
C274 C 0.78897 0.64606 0.62169 0.0
C275 C 0.79894 0.667 0.60961 0.0
C276 C 0.78368 0.66313 0.58754 0.0
C277 C 0.76113 0.63699 0.58876 0.0
C278 C 0.76442 0.62724 0.60889 0.0
C279 C 0.82686 0.66289 0.57367 0.0
C280 C 0.74891 0.68417 0.58204 0.0
H281 H 0.66058 0.54619 0.58577 0.0
H282 H 0.71142 0.54906 0.6586 0.0
H283 H 0.67554 0.60511 0.64728 0.0
H284 H 0.72146 0.62625 0.6508 0.0
H285 H 0.71766 0.59822 0.66664 0.0
H286 H 0.79844 0.5633 0.63496 0.0
H287 H 0.78863 0.57848 0.65932 0.0
H288 H 0.8161 0.59495 0.63817 0.0
H289 H 0.66213 0.59231 0.51844 0.0
H290 H 0.73345 0.66284 0.50706 0.0
H291 H 0.7616 0.66323 0.54235 0.0
H292 H 0.7468 0.56657 0.54565 0.0
H293 H 0.69081 0.55307 0.54185 0.0
H294 H 0.72037 0.55016 0.56616 0.0
H295 H 0.62207 0.60569 0.56043 0.0
H296 H 0.62904 0.58276 0.57973 0.0
H297 H 0.62224 0.57283 0.55324 0.0
H298 H 0.63224 0.51498 0.60874 0.0
C299 C 0.67167 0.54746 0.60152 0.0
C300 C 0.68388 0.82685 0.14014 0.0
C301 C 0.67013 0.80328 0.13196 0.0
C302 C 0.67624 0.79904 0.11059 0.0
C303 C 0.71169 0.84066 0.10653 0.0
C304 C 0.70463 0.84499 0.12732 0.0
C305 C 0.72325 0.87025 0.13415 0.0
H306 H 0.8456 0.97656 0.1138 0.0
C307 C 0.73612 0.8631 0.09786 0.0
C308 C 0.74267 0.88048 0.11407 0.0
H309 H 0.78657 0.95266 0.17174 0.0
H310 H 0.75222 0.91613 0.15523 0.0
H311 H 0.87892 0.92178 0.09948 0.0
H312 H 0.75595 0.96338 0.08599 0.0
H313 H 0.7706 0.94705 0.06334 0.0
H314 H 0.80953 0.97061 0.07366 0.0
H315 H 0.87824 0.9495 0.08338 0.0
H316 H 0.86762 0.91835 0.07301 0.0
C317 C 0.76131 0.86531 0.15038 0.0
C318 C 0.68269 0.88649 0.14205 0.0
C319 C 0.79097 0.86403 0.02292 0.0
C320 C 0.81569 0.88204 0.0113 0.0
C321 C 0.82692 0.90556 0.02026 0.0
C322 C 0.81514 0.91087 0.04077 0.0
C323 C 0.79167 0.89247 0.0525 0.0
C324 C 0.77892 0.86975 0.04343 0.0
C325 C 0.75298 0.85286 0.05825 0.0
C326 C 0.75369 0.86881 0.07783 0.0
C327 C 0.77661 0.89198 0.07431 0.0
C328 C 0.77993 0.82781 0.06074 0.0
C329 C 0.70366 0.84933 0.04993 0.0
C330 C 0.82491 0.96345 0.12275 0.0
C331 C 0.8186 0.9672 0.14401 0.0
C332 C 0.79167 0.94993 0.15533 0.0
C333 C 0.77196 0.92874 0.1457 0.0
C334 C 0.7796 0.92464 0.12454 0.0
C335 C 0.80505 0.94207 0.11334 0.0
C336 C 0.80951 0.93449 0.09102 0.0
C337 C 0.78341 0.90941 0.09081 0.0
C338 C 0.76619 0.90374 0.1105 0.0
C339 C 0.86117 0.93095 0.08626 0.0
C340 C 0.78555 0.95492 0.07766 0.0
H341 H 0.7007 0.8131 0.08182 0.0
H342 H 0.67896 0.83118 0.15632 0.0
H343 H 0.65087 0.88235 0.13317 0.0
H344 H 0.68849 0.90708 0.13999 0.0
H345 H 0.67535 0.88254 0.15856 0.0
H346 H 0.78042 0.84763 0.14675 0.0
H347 H 0.74655 0.86311 0.16608 0.0
H348 H 0.7879 0.88027 0.15072 0.0
H349 H 0.78147 0.84594 0.01622 0.0
H350 H 0.84559 0.9197 0.01143 0.0
H351 H 0.82534 0.92899 0.04678 0.0
H352 H 0.81752 0.83152 0.06075 0.0
H353 H 0.77234 0.81454 0.04786 0.0
H354 H 0.77298 0.81812 0.0755 0.0
H355 H 0.69018 0.86757 0.04383 0.0
H356 H 0.67913 0.84339 0.06199 0.0
H357 H 0.70278 0.83526 0.03717 0.0
H358 H 0.66632 0.7811 0.10375 0.0
C359 C 0.69666 0.81759 0.09786 0.0
C360 C 0.20035 0.94986 0.35899 0.0
C361 C 0.17141 0.96968 0.3655 0.0
C362 C 0.15278 0.9684 0.38565 0.0
C363 C 0.19325 0.9293 0.39236 0.0
C364 C 0.20974 0.92974 0.37242 0.0
C365 C 0.23647 0.90628 0.36727 0.0
H366 H 0.32777 0.79433 0.3964 0.0
C367 C 0.21047 0.90612 0.40248 0.0
C368 C 0.23558 0.89249 0.38785 0.0
H369 H 0.32787 0.8299 0.3362 0.0
H370 H 0.28646 0.8653 0.34964 0.0
H371 H 0.34849 0.84727 0.42206 0.0
H372 H 0.22042 0.809 0.40854 0.0
H373 H 0.22288 0.81725 0.43492 0.0
H374 H 0.26374 0.79513 0.42466 0.0
H375 H 0.33341 0.81758 0.43394 0.0
H376 H 0.31361 0.84739 0.44421 0.0
C377 C 0.2857 0.91444 0.36096 0.0
C378 C 0.20954 0.89152 0.35039 0.0
C379 C 0.17736 0.89213 0.47837 0.0
C380 C 0.19027 0.87345 0.4926 0.0
C381 C 0.21863 0.85341 0.48597 0.0
C382 C 0.23303 0.85175 0.46529 0.0
C383 C 0.21944 0.87052 0.45115 0.0
C384 C 0.19262 0.89046 0.45794 0.0
C385 C 0.18241 0.90916 0.44113 0.0
C386 C 0.20692 0.89712 0.42303 0.0
C387 C 0.2285 0.87438 0.42883 0.0
C388 C 0.20443 0.93491 0.44724 0.0
C389 C 0.12969 0.91001 0.43789 0.0
C390 C 0.31865 0.80981 0.38622 0.0
C391 C 0.33155 0.80948 0.36525 0.0
C392 C 0.3192 0.82994 0.35247 0.0
C393 C 0.2947 0.85044 0.36028 0.0
C394 C 0.28216 0.85067 0.38117 0.0
C395 C 0.29407 0.83069 0.39387 0.0
C396 C 0.27772 0.83475 0.41575 0.0
C397 C 0.25298 0.86006 0.41379 0.0
C398 C 0.2562 0.86918 0.39345 0.0
C399 C 0.3203 0.83671 0.42989 0.0
C400 C 0.24457 0.81287 0.42146 0.0
H401 H 0.14916 0.9491 0.41423 0.0
H402 H 0.21571 0.94974 0.34381 0.0
H403 H 0.17198 0.89485 0.35166 0.0
H404 H 0.21303 0.8707 0.35181 0.0
H405 H 0.22024 0.89747 0.33466 0.0
H406 H 0.29721 0.93123 0.37002 0.0
H407 H 0.2873 0.91965 0.34437 0.0
H408 H 0.31164 0.89975 0.36414 0.0
H409 H 0.15602 0.90787 0.4831 0.0
H410 H 0.22889 0.83876 0.49673 0.0
H411 H 0.25397 0.83588 0.46108 0.0
H412 H 0.23923 0.93199 0.45386 0.0
H413 H 0.18341 0.94475 0.45905 0.0
H414 H 0.20959 0.94782 0.43404 0.0
H415 H 0.11294 0.89196 0.44278 0.0
H416 H 0.1201 0.91212 0.42146 0.0
H417 H 0.11393 0.92559 0.44695 0.0
H418 H 0.12872 0.98242 0.39112 0.0
C419 C 0.16406 0.94864 0.39912 0.0
C420 C 0.18373 0.67087 0.86241 0.0
C421 C 0.16911 0.6943 0.87011 0.0
C422 C 0.17419 0.69934 0.89139 0.0
C423 C 0.21125 0.6585 0.89636 0.0
C424 C 0.2046 0.65348 0.87562 0.0
C425 C 0.22279 0.62818 0.86926 0.0
H426 H 0.35943 0.52943 0.88814 0.0
C427 C 0.23634 0.63666 0.90539 0.0
C428 C 0.24284 0.61893 0.88945 0.0
H429 H 0.27693 0.54444 0.83381 0.0
H430 H 0.24379 0.58017 0.85043 0.0
H431 H 0.38481 0.58358 0.9017 0.0
H432 H 0.26874 0.53723 0.91795 0.0
H433 H 0.28318 0.55435 0.94023 0.0
H434 H 0.3242 0.53259 0.92925 0.0
H435 H 0.38877 0.55694 0.91888 0.0
H436 H 0.37492 0.5882 0.92817 0.0
C437 C 0.26025 0.63278 0.85265 0.0
C438 C 0.18186 0.61146 0.86196 0.0
C439 C 0.29181 0.63719 0.98039 0.0
C440 C 0.32017 0.62047 0.99155 0.0
C441 C 0.33569 0.59816 0.98197 0.0
C442 C 0.32391 0.59263 0.96154 0.0
C443 C 0.29681 0.60976 0.95033 0.0
C444 C 0.28086 0.63156 0.95972 0.0
C445 C 0.25369 0.64781 0.94491 0.0
C446 C 0.25534 0.63187 0.92532 0.0
C447 C 0.28094 0.60967 0.92871 0.0
C448 C 0.27917 0.67342 0.94232 0.0
C449 C 0.20427 0.65035 0.95322 0.0
C450 C 0.33386 0.5401 0.87979 0.0
C451 C 0.3229 0.53449 0.85905 0.0
C452 C 0.28851 0.54893 0.84925 0.0
C453 C 0.26843 0.5696 0.85909 0.0
C454 C 0.28165 0.57576 0.87925 0.0
C455 C 0.31204 0.56042 0.88964 0.0
C456 C 0.31779 0.56847 0.91179 0.0
C457 C 0.28824 0.59219 0.91238 0.0
C458 C 0.26796 0.59647 0.89314 0.0
C459 C 0.36919 0.5745 0.91554 0.0
C460 C 0.29787 0.5471 0.92567 0.0
H461 H 0.19852 0.68646 0.92057 0.0
H462 H 0.17923 0.66614 0.84626 0.0
H463 H 0.14844 0.61861 0.86778 0.0
H464 H 0.18394 0.59178 0.86795 0.0
H465 H 0.17963 0.61091 0.84485 0.0
H466 H 0.28315 0.64875 0.85725 0.0
H467 H 0.24458 0.63773 0.83755 0.0
H468 H 0.28305 0.61645 0.85028 0.0
H469 H 0.27963 0.65455 0.9874 0.0
H470 H 0.3571 0.58495 0.99037 0.0
H471 H 0.33712 0.57539 0.95517 0.0
H472 H 0.31689 0.67045 0.9416 0.0
H473 H 0.27204 0.68625 0.95552 0.0
H474 H 0.27041 0.68329 0.92786 0.0
H475 H 0.19147 0.63175 0.95903 0.0
H476 H 0.1797 0.65624 0.94121 0.0
H477 H 0.20287 0.66413 0.96617 0.0
H478 H 0.16297 0.71728 0.89773 0.0
C479 C 0.19517 0.68154 0.90457 0.0
Eu480 Eu 0.05209 0.13617 0.23187 0.0
C481 C 0.84324 0.1211 0.25965 0.0
N482 N 0.86855 0.1428 0.25868 0.0
C483 C 0.80576 0.16442 0.24264 0.0
C484 C 0.79845 0.12003 0.2515 0.0
C485 C 0.84995 0.16451 0.251 0.0
C486 C 0.78007 0.14199 0.24265 0.0
C487 C 0.83592 0.07755 0.27144 0.0
C488 C 0.86188 0.10005 0.26934 0.0
C489 C 0.79186 0.07613 0.26275 0.0
C490 C 0.77319 0.09732 0.25278 0.0
Eu491 Eu 0.94327 0.14096 0.27288 0.0
N492 N 0.90512 0.10177 0.2771 0.0
C493 C 0.85493 0.05728 0.28243 0.0
C494 C 0.92211 0.08299 0.28924 0.0
C495 C 0.89792 0.06019 0.29169 0.0
H496 H 0.86852 0.18209 0.25196 0.0
H497 H 0.91202 0.04509 0.30103 0.0
H498 H 0.12617 0.09085 0.24623 0.0
H499 H 0.08074 0.23725 0.21763 0.0
H500 H 0.95342 0.08608 0.29765 0.0
H501 H 0.83617 0.03964 0.28438 0.0
H502 H 0.03584 0.19776 0.21993 0.0
H503 H 0.79134 0.18172 0.23647 0.0
H504 H 0.77166 0.05888 0.26395 0.0
H505 H 0.73886 0.09609 0.24645 0.0
H506 H 0.20774 0.08737 0.256 0.0
H507 H 0.74572 0.142 0.23628 0.0
H508 H 0.16342 0.23698 0.22613 0.0
N509 N 0.12941 0.13072 0.24134 0.0
C510 C 0.15638 0.1518 0.24052 0.0
C511 C 0.19369 0.10562 0.25175 0.0
C512 C 0.20335 0.15058 0.2456 0.0
C513 C 0.1474 0.1077 0.24641 0.0
C514 C 0.22174 0.12717 0.25145 0.0
N515 N 0.09134 0.17544 0.2303 0.0
C516 C 0.07132 0.19742 0.22402 0.0
C517 C 0.16436 0.19681 0.2332 0.0
C518 C 0.13706 0.17467 0.23442 0.0
C519 C 0.14367 0.21956 0.22722 0.0
C520 C 0.09697 0.21983 0.22252 0.0
H521 H 0.25762 0.12547 0.25555 0.0
H522 H 0.26659 0.17207 0.24847 0.0
H523 H 0.23247 0.21252 0.2376 0.0
O524 O 0.05072 0.14359 0.19845 0.0
O525 O 0.06524 0.15875 0.26149 0.0
O526 O 0.99369 0.17342 0.27023 0.0
O527 O 0.08466 0.11029 0.21033 0.0
O528 O 0.98349 0.15311 0.22287 0.0
O529 O 0.95224 0.17411 0.25057 0.0
O530 O 0.94519 0.13884 0.3071 0.0
O531 O 0.93336 0.11675 0.24396 0.0
O532 O 0.00553 0.10232 0.23585 0.0
O533 O 0.89681 0.16371 0.29127 0.0
O534 O 0.00741 0.11975 0.28365 0.0
O535 O 0.04651 0.1042 0.25488 0.0
C536 C 0.0381 0.17254 0.27324 0.0
C537 C 0.11333 0.12697 0.17908 0.0
C538 C 0.14057 0.12607 0.14345 0.0
C539 C 0.18594 0.12698 0.15068 0.0
C540 C 0.15902 0.1281 0.18591 0.0
C541 C 0.19501 0.12819 0.17176 0.0
C542 C 0.10415 0.12635 0.15772 0.0
C543 C 0.96201 0.17268 0.2307 0.0
C544 C 0.07558 0.12381 0.19404 0.0
C545 C 0.23049 0.17264 0.24455 0.0
C546 C 0.21109 0.19566 0.23831 0.0
C547 C 0.96104 0.10201 0.23341 0.0
C548 C 0.89214 0.16389 0.32865 0.0
C549 C 0.88245 0.16138 0.36616 0.0
C550 C 0.85171 0.18177 0.36516 0.0
C551 C 0.86114 0.18425 0.32826 0.0
C552 C 0.9026 0.15225 0.34778 0.0
C553 C 0.84111 0.19304 0.34637 0.0
C554 C 0.0387 0.10524 0.27485 0.0
C555 C 0.91156 0.15493 0.3088 0.0
H556 H 0.21442 0.1267 0.13994 0.0
H557 H 0.16707 0.12823 0.20217 0.0
H558 H 0.23011 0.12875 0.17718 0.0
H559 H 0.06906 0.12508 0.15228 0.0
H560 H 0.83545 0.18886 0.37904 0.0
H561 H 0.8521 0.19345 0.31389 0.0
H562 H 0.92606 0.13638 0.34839 0.0
H563 H 0.81713 0.20864 0.34583 0.0
Eu564 Eu 0.45026 0.35835 0.73278 0.0
C565 C 0.65864 0.37527 0.75611 0.0
N566 N 0.63204 0.354 0.75684 0.0
C567 C 0.69094 0.3303 0.73976 0.0
C568 C 0.70192 0.37502 0.74637 0.0
C569 C 0.64839 0.33144 0.74965 0.0
C570 C 0.71759 0.35225 0.73787 0.0
C571 C 0.67072 0.41928 0.76588 0.0
C572 C 0.64322 0.39717 0.76575 0.0
C573 C 0.71304 0.41934 0.75554 0.0
C574 C 0.72863 0.39727 0.74584 0.0
Eu575 Eu 0.56016 0.35813 0.77354 0.0
N576 N 0.60226 0.39652 0.77577 0.0
C577 C 0.65555 0.44042 0.77697 0.0
C578 C 0.58919 0.41634 0.78789 0.0
C579 C 0.61499 0.43877 0.78834 0.0
H580 H 0.62928 0.31408 0.75181 0.0
H581 H 0.60405 0.45457 0.79777 0.0
H582 H 0.37143 0.4019 0.74836 0.0
H583 H 0.4222 0.26022 0.71003 0.0
H584 H 0.55978 0.41456 0.79784 0.0
H585 H 0.67574 0.45772 0.7775 0.0
H586 H 0.46499 0.30075 0.71294 0.0
H587 H 0.70342 0.31242 0.73383 0.0
H588 H 0.73449 0.43619 0.7554 0.0
H589 H 0.76183 0.39745 0.73833 0.0
H590 H 0.29296 0.40217 0.76217 0.0
H591 H 0.75071 0.35126 0.73034 0.0
H592 H 0.34464 0.25637 0.72526 0.0
N593 N 0.37482 0.36154 0.74611 0.0
C594 C 0.35042 0.33943 0.74646 0.0
C595 C 0.30892 0.38435 0.75812 0.0
C596 C 0.30449 0.33896 0.75337 0.0
C597 C 0.35391 0.38402 0.7507 0.0
C598 C 0.28432 0.36168 0.75976 0.0
N599 N 0.41365 0.31862 0.73094 0.0
C600 C 0.43178 0.29884 0.72013 0.0
C601 C 0.34407 0.29496 0.73676 0.0
C602 C 0.37 0.31754 0.73832 0.0
C603 C 0.36359 0.27399 0.72685 0.0
C604 C 0.40741 0.27605 0.71827 0.0
H605 H 0.24916 0.36208 0.76516 0.0
H606 H 0.24421 0.31546 0.75812 0.0
H607 H 0.2788 0.277 0.74354 0.0
O608 O 0.46409 0.35774 0.69928 0.0
O609 O 0.45782 0.32533 0.75498 0.0
O610 O 0.48795 0.34645 0.78246 0.0
O611 O 0.39839 0.37008 0.71075 0.0
O612 O 0.5197 0.34274 0.72416 0.0
O613 O 0.54848 0.32336 0.75325 0.0
O614 O 0.58177 0.36496 0.80556 0.0
O615 O 0.56616 0.37856 0.74257 0.0
O616 O 0.49368 0.39391 0.73533 0.0
O617 O 0.59046 0.32738 0.79184 0.0
O618 O 0.504 0.38543 0.78264 0.0
O619 O 0.44743 0.38983 0.75692 0.0
C620 C 0.46635 0.32678 0.77479 0.0
C621 C 0.41583 0.38153 0.6764 0.0
C622 C 0.3961 0.38446 0.63992 0.0
C623 C 0.38864 0.41058 0.64231 0.0
C624 C 0.4085 0.40771 0.67853 0.0
C625 C 0.395 0.42213 0.6615 0.0
C626 C 0.40991 0.36998 0.65699 0.0
C627 C 0.54107 0.3239 0.73317 0.0
C628 C 0.42298 0.3653 0.69454 0.0
C629 C 0.27942 0.31615 0.7528 0.0
C630 C 0.2991 0.29424 0.74447 0.0
C631 C 0.53865 0.39522 0.73384 0.0
C632 C 0.61644 0.33266 0.82753 0.0
C633 C 0.62772 0.33534 0.86497 0.0
C634 C 0.65702 0.31431 0.86385 0.0
C635 C 0.64576 0.31163 0.82698 0.0
C636 C 0.60788 0.34481 0.84665 0.0
C637 C 0.66611 0.30268 0.845 0.0
C638 C 0.46693 0.39591 0.77472 0.0
C639 C 0.5961 0.34186 0.80799 0.0
H640 H 0.37736 0.42195 0.62935 0.0
H641 H 0.41195 0.41682 0.69344 0.0
H642 H 0.3886 0.44223 0.66326 0.0
H643 H 0.41451 0.34967 0.65532 0.0
H644 H 0.67319 0.30695 0.87766 0.0
H645 H 0.65343 0.30225 0.81252 0.0
H646 H 0.58538 0.36109 0.84735 0.0
H647 H 0.68902 0.2866 0.84437 0.0
Eu648 Eu 0.05768 0.85788 0.73186 0.0
C649 C 0.84841 0.84137 0.75685 0.0
N650 N 0.87319 0.86328 0.75668 0.0
C651 C 0.8099 0.88566 0.74188 0.0
C652 C 0.80307 0.8408 0.74931 0.0
C653 C 0.8547 0.88532 0.74953 0.0
C654 C 0.78396 0.8633 0.74175 0.0
C655 C 0.8436 0.79644 0.76494 0.0
C656 C 0.86863 0.8194 0.76448 0.0
C657 C 0.79845 0.7958 0.7574 0.0
C658 C 0.77825 0.8179 0.74962 0.0
Eu659 Eu 0.94753 0.86102 0.77069 0.0
N660 N 0.91257 0.82052 0.77158 0.0
C661 C 0.86447 0.77488 0.77328 0.0
C662 C 0.93198 0.79997 0.78078 0.0
C663 C 0.90869 0.77673 0.78142 0.0
H664 H 0.8741 0.90277 0.75019 0.0
H665 H 0.92453 0.76039 0.78855 0.0
H666 H 0.13105 0.81621 0.7527 0.0
H667 H 0.07779 0.95969 0.71709 0.0
H668 H 0.96467 0.80158 0.78827 0.0
H669 H 0.84636 0.7569 0.77395 0.0
H670 H 0.03741 0.91875 0.71729 0.0
H671 H 0.79528 0.90319 0.73626 0.0
H672 H 0.77871 0.77832 0.75766 0.0
H673 H 0.74332 0.81711 0.74395 0.0
H674 H 0.21058 0.8158 0.76576 0.0
H675 H 0.74917 0.86365 0.73589 0.0
H676 H 0.15755 0.96253 0.72983 0.0
N677 N 0.13211 0.85561 0.74567 0.0
C678 C 0.15704 0.87748 0.7451 0.0
C679 C 0.19587 0.83328 0.76009 0.0
C680 C 0.20274 0.87802 0.7522 0.0
C681 C 0.15069 0.83363 0.7529 0.0
C682 C 0.22204 0.85555 0.75971 0.0
N683 N 0.09164 0.89874 0.73178 0.0
C684 C 0.07113 0.91978 0.72382 0.0
C685 C 0.16123 0.92263 0.73764 0.0
C686 C 0.13631 0.89961 0.73797 0.0
C687 C 0.13955 0.94451 0.73035 0.0
C688 C 0.09443 0.94302 0.72328 0.0
H689 H 0.25707 0.85519 0.76527 0.0
H690 H 0.26277 0.90165 0.75708 0.0
H691 H 0.22652 0.94064 0.74432 0.0
O692 O 0.06151 0.86355 0.69778 0.0
O693 O 0.06836 0.87726 0.76304 0.0
O694 O 0.99725 0.89368 0.76871 0.0
O695 O 0.10436 0.83564 0.71344 0.0
O696 O 0.99316 0.87761 0.72041 0.0
O697 O 0.96032 0.89461 0.74973 0.0
O698 O 0.94553 0.85731 0.80494 0.0
O699 O 0.93714 0.84173 0.7394 0.0
O700 O 0.00813 0.82484 0.73305 0.0
O701 O 0.90156 0.88421 0.78877 0.0
O702 O 0.01182 0.84069 0.78183 0.0
O703 O 0.04549 0.82373 0.75251 0.0
C704 C 0.0408 0.89233 0.77331 0.0
C705 C 0.11705 0.8392 0.67669 0.0
C706 C 0.12878 0.84151 0.63923 0.0
C707 C 0.16602 0.82482 0.64131 0.0
C708 C 0.15419 0.82234 0.67801 0.0
C709 C 0.17845 0.81533 0.66049 0.0
C710 C 0.10451 0.84905 0.65712 0.0
C711 C 0.96519 0.89364 0.72955 0.0
C712 C 0.09386 0.84666 0.69614 0.0
C713 C 0.22758 0.9009 0.75175 0.0
C714 C 0.20689 0.92312 0.7445 0.0
C715 C 0.96412 0.82621 0.72925 0.0
C716 C 0.89276 0.8836 0.82592 0.0
C717 C 0.8837 0.88338 0.86352 0.0
C718 C 0.85065 0.90252 0.86173 0.0
C719 C 0.8594 0.90277 0.82477 0.0
C720 C 0.90481 0.87372 0.84553 0.0
C721 C 0.83858 0.91207 0.84251 0.0
C722 C 0.03953 0.82457 0.77265 0.0
C723 C 0.91385 0.87463 0.80639 0.0
H724 H 0.18597 0.81918 0.62798 0.0
H725 H 0.16508 0.81467 0.69272 0.0
H726 H 0.20722 0.80252 0.66179 0.0
H727 H 0.07612 0.86214 0.65579 0.0
H728 H 0.83389 0.91002 0.87535 0.0
H729 H 0.84918 0.91072 0.81006 0.0
H730 H 0.93031 0.85891 0.8468 0.0
H731 H 0.81293 0.92678 0.84136 0.0
Eu732 Eu 0.45165 0.63985 0.23137 0.0
C733 C 0.66258 0.65979 0.25798 0.0
N734 N 0.6398 0.63736 0.25973 0.0
C735 C 0.70721 0.61463 0.24984 0.0
C736 C 0.7086 0.66046 0.25125 0.0
C737 C 0.66177 0.61496 0.25666 0.0
C738 C 0.7306 0.63752 0.24687 0.0
C739 C 0.66335 0.70561 0.2617 0.0
C740 C 0.64014 0.68211 0.26332 0.0
C741 C 0.70889 0.70635 0.25466 0.0
C742 C 0.73145 0.68385 0.24947 0.0
Eu743 Eu 0.56379 0.63919 0.27155 0.0
N744 N 0.59587 0.68086 0.2701 0.0
C745 C 0.64029 0.72773 0.26734 0.0
C746 C 0.57363 0.70249 0.27593 0.0
C747 C 0.59535 0.72613 0.27456 0.0
H748 H 0.64473 0.59739 0.26025 0.0
H749 H 0.57739 0.74313 0.27918 0.0
H750 H 0.37399 0.68552 0.2403 0.0
H751 H 0.41762 0.5405 0.21223 0.0
H752 H 0.53929 0.70203 0.2818 0.0
H753 H 0.65699 0.7461 0.26636 0.0
H754 H 0.4627 0.58014 0.21435 0.0
H755 H 0.72437 0.59675 0.24723 0.0
H756 H 0.72713 0.72424 0.25334 0.0
H757 H 0.76677 0.68472 0.2443 0.0
H758 H 0.29396 0.6892 0.25264 0.0
H759 H 0.76595 0.63724 0.24172 0.0
H760 H 0.33778 0.53953 0.22518 0.0
N761 N 0.37333 0.64527 0.24035 0.0
C762 C 0.34689 0.62404 0.2413 0.0
C763 C 0.30859 0.67069 0.24979 0.0
C764 C 0.30056 0.62516 0.2475 0.0
C765 C 0.3541 0.66855 0.2432 0.0
C766 C 0.28193 0.64883 0.25237 0.0
N767 N 0.40958 0.60133 0.22826 0.0
C768 C 0.42795 0.57997 0.21973 0.0
C769 C 0.33818 0.5792 0.23397 0.0
C770 C 0.36535 0.60142 0.23468 0.0
C771 C 0.35745 0.557 0.22596 0.0
C772 C 0.40245 0.55747 0.21863 0.0
H773 H 0.24655 0.65052 0.25728 0.0
H774 H 0.23853 0.60327 0.2529 0.0
H775 H 0.27158 0.56294 0.24101 0.0
O776 O 0.45224 0.63268 0.19779 0.0
O777 O 0.45801 0.60641 0.25366 0.0
O778 O 0.4939 0.62473 0.28145 0.0
O779 O 0.43037 0.66879 0.20944 0.0
O780 O 0.51871 0.62141 0.22187 0.0
O781 O 0.55523 0.60466 0.25065 0.0
O782 O 0.58956 0.64795 0.30282 0.0
O783 O 0.57336 0.65536 0.23939 0.0
O784 O 0.50211 0.67165 0.23783 0.0
O785 O 0.59204 0.60907 0.29065 0.0
O786 O 0.50335 0.66229 0.28218 0.0
O787 O 0.44267 0.66711 0.25869 0.0
C788 C 0.46961 0.60631 0.27331 0.0
C789 C 0.39896 0.65621 0.17722 0.0
C790 C 0.37603 0.65511 0.14084 0.0
C791 C 0.33352 0.66551 0.14633 0.0
C792 C 0.35568 0.66614 0.18226 0.0
C793 C 0.32334 0.67077 0.16689 0.0
C794 C 0.40873 0.65027 0.1564 0.0
C795 C 0.54369 0.60382 0.2309 0.0
C796 C 0.43538 0.65473 0.19314 0.0
C797 C 0.27399 0.60284 0.24792 0.0
C798 C 0.29274 0.5799 0.24109 0.0
C799 C 0.54403 0.67079 0.23075 0.0
C800 C 0.62349 0.6152 0.32487 0.0
C801 C 0.63186 0.61363 0.36236 0.0
C802 C 0.66771 0.59617 0.35996 0.0
C803 C 0.65923 0.59764 0.32293 0.0
C804 C 0.61012 0.62356 0.34469 0.0
C805 C 0.6814 0.58836 0.34039 0.0
C806 C 0.46369 0.67202 0.27643 0.0
C807 C 0.60079 0.62437 0.306 0.0
H808 H 0.30795 0.66943 0.13462 0.0
H809 H 0.34713 0.67096 0.19802 0.0
H810 H 0.29041 0.67877 0.1709 0.0
H811 H 0.44202 0.64277 0.15224 0.0
H812 H 0.68528 0.5886 0.37333 0.0
H813 H 0.67028 0.59122 0.30785 0.0
H814 H 0.58245 0.63706 0.34637 0.0
H815 H 0.70918 0.57497 0.33876 0.0
C816 C 0.1466 0.01484 0.35942 0.0
C817 C 0.15946 0.99113 0.35136 0.0
C818 C 0.13023 0.03421 0.34662 0.0
C819 C 0.1295 0.03054 0.32502 0.0
C820 C 0.14603 0.00763 0.31655 0.0
C821 C 0.15945 0.98794 0.32979 0.0
C822 C 0.11099 0.05792 0.35637 0.0
C823 C 0.1489 0.00377 0.29348 0.0
C824 C 0.03983 0.06372 0.29279 0.0
C825 C 0.06209 0.08637 0.28765 0.0
C826 C 0.06085 0.04586 0.30559 0.0
C827 C 0.10712 0.04956 0.31152 0.0
C828 C 0.13117 0.07151 0.30484 0.0
C829 C 0.10771 0.09017 0.29359 0.0
C830 C 0.03322 0.02326 0.31294 0.0
C831 C 0.18145 0.07532 0.30951 0.0
H832 H 0.14821 0.01827 0.37586 0.0
H833 H 0.16872 0.96991 0.32305 0.0
H834 H 0.12584 0.07516 0.34917 0.0
H835 H 0.07338 0.05847 0.35376 0.0
H836 H 0.11746 0.05872 0.37325 0.0
H837 H 0.16518 0.98544 0.28935 0.0
H838 H 0.1142 0.00426 0.28652 0.0
H839 H 0.16903 0.01946 0.28641 0.0
H840 H 0.00609 0.05977 0.2867 0.0
H841 H 0.12519 0.10754 0.28916 0.0
H842 H 0.0359 0.02141 0.32996 0.0
H843 H 0.04687 0.00558 0.30607 0.0
H844 H 0.9964 0.02479 0.30874 0.0
H845 H 0.18577 0.08123 0.32581 0.0
H846 H 0.19702 0.09019 0.29952 0.0
H847 H 0.20062 0.05737 0.30734 0.0
C848 C 0.35219 0.51609 0.82588 0.0
C849 C 0.34702 0.51409 0.8474 0.0
C850 C 0.3715 0.49649 0.8143 0.0
C851 C 0.38894 0.47495 0.82454 0.0
C852 C 0.38667 0.47333 0.84631 0.0
C853 C 0.36471 0.49261 0.85745 0.0
C854 C 0.37234 0.49866 0.79104 0.0
C855 C 0.40812 0.45146 0.85781 0.0
C856 C 0.40135 0.41405 0.79404 0.0
C857 C 0.44625 0.4164 0.78674 0.0
C858 C 0.38207 0.43309 0.80635 0.0
C859 C 0.40938 0.45417 0.81229 0.0
C860 C 0.45522 0.4562 0.80531 0.0
C861 C 0.47237 0.43776 0.79191 0.0
C862 C 0.33244 0.4308 0.81275 0.0
C863 C 0.48621 0.47789 0.81165 0.0
H864 H 0.34094 0.53298 0.81786 0.0
H865 H 0.36112 0.49058 0.87399 0.0
H866 H 0.40821 0.49887 0.7854 0.0
H867 H 0.35509 0.48192 0.78406 0.0
H868 H 0.3551 0.5161 0.78542 0.0
H869 H 0.40277 0.45279 0.87474 0.0
H870 H 0.39381 0.43314 0.85231 0.0
H871 H 0.44555 0.45116 0.85468 0.0
H872 H 0.38153 0.39726 0.79028 0.0
H873 H 0.50612 0.44023 0.78533 0.0
H874 H 0.31335 0.44788 0.80769 0.0
H875 H 0.32983 0.42983 0.82981 0.0
H876 H 0.31556 0.41372 0.80611 0.0
H877 H 0.48034 0.49435 0.80133 0.0
H878 H 0.52293 0.47259 0.81038 0.0
H879 H 0.47933 0.48401 0.82773 0.0
C880 C 0.65565 0.51094 0.67265 0.0
C881 C 0.65074 0.50834 0.65105 0.0
C882 C 0.63922 0.49243 0.68646 0.0
C883 C 0.61511 0.47114 0.67882 0.0
C884 C 0.60895 0.46833 0.65733 0.0
C885 C 0.62772 0.48643 0.64379 0.0
C886 C 0.64773 0.49567 0.70932 0.0
C887 C 0.58176 0.44631 0.64861 0.0
C888 C 0.60334 0.4123 0.71247 0.0
C889 C 0.55879 0.41499 0.72031 0.0
C890 C 0.62213 0.43043 0.69898 0.0
C891 C 0.59589 0.45189 0.69332 0.0
C892 C 0.55106 0.45483 0.70136 0.0
C893 C 0.53303 0.43632 0.71471 0.0
C894 C 0.66984 0.42644 0.69056 0.0
C895 C 0.52218 0.4776 0.69596 0.0
H896 H 0.67184 0.52747 0.67924 0.0
H897 H 0.62394 0.48291 0.6275 0.0
H898 H 0.61479 0.49532 0.71787 0.0
H899 H 0.66856 0.47961 0.71513 0.0
H900 H 0.66602 0.51366 0.71295 0.0
H901 H 0.58212 0.44596 0.63147 0.0
H902 H 0.59546 0.42805 0.65442 0.0
H903 H 0.54559 0.44761 0.65383 0.0
H904 H 0.62328 0.39573 0.7165 0.0
H905 H 0.4987 0.43862 0.72083 0.0
H906 H 0.69216 0.44274 0.69477 0.0
H907 H 0.66872 0.42552 0.67347 0.0
H908 H 0.6857 0.40874 0.69648 0.0
H909 H 0.53821 0.49498 0.70244 0.0
H910 H 0.4867 0.47597 0.70209 0.0
H911 H 0.52043 0.48008 0.67898 0.0
C912 C 0.82037 0.01169 0.15708 0.0
C913 C 0.84189 0.98819 0.15485 0.0
C914 C 0.84054 0.03099 0.16904 0.0
C915 C 0.88311 0.02653 0.17892 0.0
C916 C 0.90533 0.0029 0.17626 0.0
C917 C 0.88432 0.98396 0.16426 0.0
C918 C 0.81594 0.05595 0.17145 0.0
C919 C 0.95037 0.99724 0.18674 0.0
C920 C 0.95373 0.08237 0.19871 0.0
C921 C 0.94126 0.08279 0.21955 0.0
C922 C 0.93479 0.06429 0.1852 0.0
C923 C 0.90328 0.04603 0.1929 0.0
C924 C 0.89146 0.04618 0.21411 0.0
C925 C 0.91061 0.06463 0.22714 0.0
C926 C 0.94831 0.06478 0.16272 0.0
C927 C 0.85835 0.02701 0.22309 0.0
H928 H 0.78734 0.01473 0.14983 0.0
H929 H 0.90054 0.9656 0.16259 0.0
H930 H 0.80887 0.05962 0.188 0.0
H931 H 0.83808 0.07166 0.1658 0.0
H932 H 0.78298 0.05635 0.16287 0.0
H933 H 0.9651 0.97888 0.18163 0.0
H934 H 0.97565 0.01256 0.1836 0.0
H935 H 0.94513 0.99649 0.20369 0.0
H936 H 0.97783 0.09642 0.19294 0.0
H937 H 0.90258 0.06445 0.24339 0.0
H938 H 0.91743 0.06752 0.15299 0.0
H939 H 0.9636 0.04633 0.15828 0.0
H940 H 0.97335 0.08014 0.15922 0.0
H941 H 0.82321 0.03118 0.21752 0.0
H942 H 0.85804 0.02742 0.24023 0.0
H943 H 0.86706 0.00754 0.21797 0.0
C944 C 0.89649 0.01157 0.65919 0.0
C945 C 0.84889 0.01335 0.65704 0.0
C946 C 0.91597 0.99188 0.67076 0.0
C947 C 0.887 0.97333 0.67983 0.0
C948 C 0.8389 0.97474 0.67716 0.0
C949 C 0.82035 0.99499 0.66597 0.0
C950 C 0.96734 0.99122 0.67364 0.0
C951 C 0.80701 0.95522 0.68653 0.0
C952 C 0.93931 0.91052 0.69554 0.0
C953 C 0.94414 0.91373 0.71689 0.0
C954 C 0.92064 0.92978 0.68326 0.0
C955 C 0.90684 0.95279 0.69259 0.0
C956 C 0.91161 0.95612 0.71414 0.0
C957 C 0.93022 0.93653 0.72605 0.0
C958 C 0.91549 0.9255 0.66034 0.0
C959 C 0.89794 0.98056 0.7246 0.0
H960 H 0.91827 0.02606 0.65237 0.0
H961 H 0.78349 0.99659 0.66426 0.0
H962 H 0.97587 0.99093 0.69032 0.0
H963 H 0.98136 0.97361 0.66677 0.0
H964 H 0.98474 0.00779 0.66641 0.0
H965 H 0.77107 0.95759 0.68121 0.0
H966 H 0.81849 0.93577 0.68258 0.0
H967 H 0.8077 0.9569 0.70359 0.0
H968 H 0.94996 0.89289 0.68842 0.0
H969 H 0.93452 0.93925 0.74252 0.0
H970 H 0.93542 0.94002 0.65171 0.0
H971 H 0.87901 0.92763 0.65582 0.0
H972 H 0.92738 0.9064 0.65554 0.0
H973 H 0.92066 0.99618 0.71924 0.0
H974 H 0.90035 0.9793 0.74168 0.0
H975 H 0.86232 0.98573 0.7204 0.0
C976 C 0.62662 0.47976 0.17274 0.0
C977 C 0.65819 0.48437 0.15691 0.0
C978 C 0.60672 0.49986 0.18361 0.0
C979 C 0.61989 0.52512 0.17891 0.0
C980 C 0.65159 0.52987 0.16276 0.0
C981 C 0.66993 0.50935 0.15173 0.0
C982 C 0.57164 0.49405 0.20013 0.0
C983 C 0.66815 0.55639 0.15789 0.0
C984 C 0.5469 0.58007 0.19736 0.0
C985 C 0.56388 0.58395 0.21743 0.0
C986 C 0.56371 0.56046 0.18488 0.0
C987 C 0.60196 0.5463 0.19163 0.0
C988 C 0.62146 0.55139 0.21118 0.0
C989 C 0.60035 0.56895 0.22428 0.0
C990 C 0.53953 0.55435 0.16486 0.0
C991 C 0.6643 0.53814 0.21852 0.0
H992 H 0.61736 0.46035 0.17653 0.0
H993 H 0.69467 0.51276 0.13953 0.0
H994 H 0.58495 0.49984 0.21545 0.0
H995 H 0.5399 0.50505 0.19727 0.0
H996 H 0.56274 0.47355 0.2008 0.0
H997 H 0.68826 0.55714 0.14333 0.0
H998 H 0.63906 0.56975 0.1566 0.0
H999 H 0.69025 0.56322 0.1707 0.0
H1000 H 0.51916 0.59169 0.19161 0.0
H1001 H 0.61286 0.57089 0.23981 0.0
H1002 H 0.52917 0.53405 0.16472 0.0
H1003 H 0.56298 0.55737 0.15162 0.0
H1004 H 0.50845 0.56612 0.16252 0.0
H1005 H 0.65516 0.51924 0.22487 0.0
H1006 H 0.68182 0.54913 0.23088 0.0
H1007 H 0.68884 0.53529 0.20564 0.0
C1008 C 0.33501 0.51383 0.35228 0.0
C1009 C 0.35233 0.48918 0.35065 0.0
C1010 C 0.35481 0.53397 0.34103 0.0
C1011 C 0.39305 0.52928 0.32806 0.0
C1012 C 0.4116 0.50449 0.3271 0.0
C1013 C 0.39074 0.48471 0.33826 0.0
C1014 C 0.33357 0.55997 0.34233 0.0
C1015 C 0.45301 0.49876 0.31395 0.0
C1016 C 0.41512 0.5702 0.28064 0.0
C1017 C 0.44998 0.58662 0.28736 0.0
C1018 C 0.39537 0.55212 0.29392 0.0
C1019 C 0.41187 0.54968 0.31438 0.0
C1020 C 0.44757 0.56592 0.32126 0.0
C1021 C 0.46578 0.58436 0.30778 0.0
C1022 C 0.3569 0.53548 0.286 0.0
C1023 C 0.46658 0.56386 0.34286 0.0
H1024 H 0.30509 0.51715 0.36182 0.0
H1025 H 0.40409 0.46559 0.33713 0.0
H1026 H 0.36029 0.57464 0.34504 0.0
H1027 H 0.31671 0.56453 0.32744 0.0
H1028 H 0.30756 0.56118 0.35482 0.0
H1029 H 0.46378 0.47863 0.31521 0.0
H1030 H 0.44544 0.50297 0.29752 0.0
H1031 H 0.48213 0.51111 0.31863 0.0
H1032 H 0.40299 0.57149 0.26499 0.0
H1033 H 0.49288 0.59682 0.31321 0.0
H1034 H 0.32644 0.53729 0.29615 0.0
H1035 H 0.36751 0.5153 0.28634 0.0
H1036 H 0.3467 0.5404 0.27 0.0
H1037 H 0.44024 0.57003 0.35412 0.0
H1038 H 0.49776 0.57575 0.34505 0.0
H1039 H 0.47517 0.54386 0.34652 0.0
C1040 C 0.14896 0.9883 0.857 0.0
C1041 C 0.15651 0.01179 0.84729 0.0
C1042 C 0.12787 0.96811 0.84643 0.0
C1043 C 0.11516 0.97129 0.82552 0.0
C1044 C 0.12191 0.99501 0.81574 0.0
C1045 C 0.1418 0.01504 0.82683 0.0
C1046 C 0.12011 0.94325 0.85751 0.0
C1047 C 0.10843 0.99922 0.79349 0.0
C1048 C 0.1076 0.91396 0.79028 0.0
C1049 C 0.0601 0.91128 0.7878 0.0
C1050 C 0.12598 0.9332 0.80278 0.0
C1051 C 0.09608 0.94968 0.81351 0.0
C1052 C 0.04808 0.94634 0.81182 0.0
C1053 C 0.03067 0.92724 0.79892 0.0
C1054 C 0.17739 0.93642 0.80394 0.0
C1055 C 0.01506 0.96301 0.82352 0.0
H1056 H 0.16037 0.98543 0.87273 0.0
H1057 H 0.14592 0.03332 0.81936 0.0
H1058 H 0.08449 0.93641 0.85506 0.0
H1059 H 0.14348 0.92866 0.85115 0.0
H1060 H 0.12641 0.94487 0.87437 0.0
H1061 H 0.11862 0.01832 0.7878 0.0
H1062 H 0.12457 0.98469 0.78348 0.0
H1063 H 0.07074 0.99715 0.79181 0.0
H1064 H 0.13058 0.90137 0.7822 0.0
H1065 H 0.99385 0.92498 0.79746 0.0
H1066 H 0.1889 0.93554 0.82023 0.0
H1067 H 0.18726 0.95536 0.79785 0.0
H1068 H 0.19589 0.92169 0.79499 0.0
H1069 H 0.01938 0.95987 0.84033 0.0
H1070 H 0.97874 0.95907 0.81939 0.0
H1071 H 0.02246 0.98334 0.82047 0.0
C1072 C 0.12724 0.1127 0.01962 0.0
C1073 C 0.17027 0.12151 0.01283 0.0
C1074 C 0.1142 0.11441 0.04043 0.0
C1075 C 0.14464 0.12555 0.05484 0.0
C1076 C 0.18688 0.13592 0.04788 0.0
C1077 C 0.19926 0.1337 0.02699 0.0
C1078 C 0.06848 0.1036 0.04708 0.0
C1079 C 0.22028 0.14803 0.06274 0.0
C1080 C 0.11268 0.14381 0.10985 0.0
C1081 C 0.13262 0.12389 0.12095 0.0
C1082 C 0.11379 0.14403 0.08812 0.0
C1083 C 0.13526 0.12384 0.07743 0.0
C1084 C 0.15219 0.1028 0.08867 0.0
C1085 C 0.15083 0.10316 0.11029 0.0
C1086 C 0.09464 0.16658 0.07671 0.0
C1087 C 0.17374 0.08041 0.07789 0.0
H1088 H 0.10397 0.10395 0.00866 0.0
H1089 H 0.23256 0.14052 0.02196 0.0
H1090 H 0.07338 0.08912 0.0593 0.0
H1091 H 0.04702 0.11887 0.05373 0.0
H1092 H 0.04951 0.09473 0.03406 0.0
H1093 H 0.24917 0.15761 0.05466 0.0
H1094 H 0.20259 0.16216 0.07258 0.0
H1095 H 0.23453 0.13326 0.0731 0.0
H1096 H 0.09863 0.15984 0.11816 0.0
H1097 H 0.16575 0.08765 0.11896 0.0
H1098 H 0.0735 0.16029 0.06342 0.0
H1099 H 0.1233 0.17819 0.07047 0.0
H1100 H 0.07341 0.17877 0.08687 0.0
H1101 H 0.14842 0.07148 0.06735 0.0
H1102 H 0.18601 0.0658 0.08892 0.0
H1103 H 0.20318 0.08684 0.06834 0.0
C1104 C 0.32267 0.39409 0.52908 0.0
C1105 C 0.32365 0.37416 0.51476 0.0
C1106 C 0.33512 0.39031 0.54973 0.0
C1107 C 0.34851 0.36586 0.55646 0.0
C1108 C 0.34818 0.34538 0.54231 0.0
C1109 C 0.33574 0.34977 0.5216 0.0
C1110 C 0.33505 0.41275 0.56424 0.0
C1111 C 0.36152 0.31898 0.54896 0.0
C1112 C 0.42094 0.3738 0.60426 0.0
C1113 C 0.38734 0.37265 0.61963 0.0
C1114 C 0.40988 0.36859 0.58359 0.0
C1115 C 0.36396 0.36257 0.57824 0.0
C1116 C 0.33112 0.35883 0.5941 0.0
C1117 C 0.3432 0.36408 0.61466 0.0
C1118 C 0.44635 0.3721 0.5673 0.0
C1119 C 0.28199 0.352 0.58927 0.0
H1120 H 0.31238 0.41286 0.52411 0.0
H1121 H 0.33676 0.33425 0.51064 0.0
H1122 H 0.31437 0.4084 0.57819 0.0
H1123 H 0.3706 0.41684 0.56941 0.0
H1124 H 0.32107 0.43014 0.55692 0.0
H1125 H 0.3611 0.30531 0.53592 0.0
H1126 H 0.39632 0.31922 0.55587 0.0
H1127 H 0.33751 0.31209 0.56103 0.0
H1128 H 0.45513 0.38034 0.60822 0.0
H1129 H 0.31729 0.36316 0.62665 0.0
H1130 H 0.44185 0.39086 0.5598 0.0
H1131 H 0.44338 0.35736 0.55516 0.0
H1132 H 0.48137 0.37138 0.57401 0.0
H1133 H 0.26292 0.36958 0.58548 0.0
H1134 H 0.26493 0.34283 0.60269 0.0
H1135 H 0.27959 0.33911 0.57579 0.0
C1136 C 0.69465 0.36209 0.97723 0.0
C1137 C 0.66538 0.3747 0.99096 0.0
C1138 C 0.68182 0.35776 0.95662 0.0
C1139 C 0.63884 0.36651 0.94933 0.0
C1140 C 0.60906 0.37924 0.96308 0.0
C1141 C 0.6225 0.38297 0.98371 0.0
C1142 C 0.71453 0.34391 0.94255 0.0
C1143 C 0.56275 0.38863 0.95612 0.0
C1144 C 0.63638 0.37064 0.89071 0.0
C1145 C 0.61897 0.34661 0.88561 0.0
C1146 C 0.6396 0.37837 0.9115 0.0
C1147 C 0.62526 0.36161 0.92742 0.0
C1148 C 0.60351 0.33844 0.9221 0.0
C1149 C 0.60089 0.33119 0.90128 0.0
C1150 C 0.66155 0.40361 0.91649 0.0
C1151 C 0.58688 0.32005 0.93836 0.0
H1152 H 0.72803 0.35589 0.98251 0.0
H1153 H 0.59908 0.39224 0.99425 0.0
H1154 H 0.6971 0.32733 0.93542 0.0
H1155 H 0.72557 0.35669 0.92986 0.0
H1156 H 0.74551 0.33714 0.95082 0.0
H1157 H 0.54628 0.40095 0.96786 0.0
H1158 H 0.56593 0.39942 0.94148 0.0
H1159 H 0.5398 0.37219 0.95313 0.0
H1160 H 0.65045 0.38259 0.87863 0.0
H1161 H 0.58723 0.31264 0.89733 0.0
H1162 H 0.69671 0.40046 0.92249 0.0
H1163 H 0.64192 0.41357 0.92869 0.0
H1164 H 0.66387 0.41609 0.9027 0.0
H1165 H 0.61641 0.30883 0.94404 0.0
H1166 H 0.56092 0.30665 0.93204 0.0
H1167 H 0.57175 0.33007 0.95174 0.0
C1168 C 0.81125 0.13743 0.47822 0.0
C1169 C 0.84003 0.12491 0.49221 0.0
C1170 C 0.82465 0.14133 0.45759 0.0
C1171 C 0.86767 0.13222 0.45062 0.0
C1172 C 0.89696 0.11966 0.46466 0.0
C1173 C 0.88306 0.11645 0.48527 0.0
C1174 C 0.79251 0.15504 0.44317 0.0
C1175 C 0.94317 0.1098 0.458 0.0
C1176 C 0.87276 0.12658 0.39212 0.0
C1177 C 0.89147 0.15023 0.38677 0.0
C1178 C 0.86802 0.11948 0.41299 0.0
C1179 C 0.882 0.13655 0.42874 0.0
C1180 C 0.90494 0.15932 0.42325 0.0
C1181 C 0.90927 0.16588 0.40234 0.0
C1182 C 0.84484 0.09463 0.41819 0.0
C1183 C 0.92095 0.17806 0.43934 0.0
H1184 H 0.77781 0.1438 0.48326 0.0
H1185 H 0.90619 0.10732 0.49602 0.0
H1186 H 0.81048 0.17127 0.43575 0.0
H1187 H 0.78129 0.14199 0.43071 0.0
H1188 H 0.76162 0.1623 0.45123 0.0
H1189 H 0.95939 0.09784 0.47006 0.0
H1190 H 0.93987 0.09848 0.44364 0.0
H1191 H 0.96641 0.126 0.4546 0.0
H1192 H 0.85867 0.11454 0.38011 0.0
H1193 H 0.9236 0.18421 0.39818 0.0
H1194 H 0.80953 0.09833 0.42377 0.0
H1195 H 0.86346 0.08476 0.43077 0.0
H1196 H 0.84275 0.08183 0.4046 0.0
H1197 H 0.89116 0.18931 0.44469 0.0
H1198 H 0.94705 0.19138 0.43302 0.0
H1199 H 0.93566 0.1683 0.45296 0.0
C1200 C 0.80783 0.88803 0.97332 0.0
C1201 C 0.83045 0.87662 0.9899 0.0
C1202 C 0.82372 0.88494 0.95301 0.0
C1203 C 0.86365 0.87036 0.9492 0.0
C1204 C 0.88632 0.85855 0.96598 0.0
C1205 C 0.86932 0.86178 0.98616 0.0
C1206 C 0.79818 0.89772 0.93562 0.0
C1207 C 0.92939 0.84332 0.96276 0.0
C1208 C 0.87021 0.85318 0.89248 0.0
C1209 C 0.89402 0.87423 0.88464 0.0
C1210 C 0.86412 0.85005 0.9139 0.0
C1211 C 0.88186 0.86857 0.92766 0.0
C1212 C 0.91048 0.88815 0.91983 0.0
C1213 C 0.91604 0.89078 0.89839 0.0
C1214 C 0.83459 0.82846 0.9216 0.0
C1215 C 0.93085 0.90815 0.93378 0.0
H1216 H 0.77797 0.89964 0.97632 0.0
H1217 H 0.88713 0.85331 0.99912 0.0
H1218 H 0.82128 0.91117 0.92744 0.0
H1219 H 0.78671 0.88332 0.92422 0.0
H1220 H 0.7677 0.9083 0.94114 0.0
H1221 H 0.93926 0.8326 0.97683 0.0
H1222 H 0.92499 0.82978 0.9498 0.0
H1223 H 0.95801 0.85631 0.95862 0.0
H1224 H 0.85274 0.84052 0.88186 0.0
H1225 H 0.93408 0.90722 0.89232 0.0
H1226 H 0.79994 0.83573 0.92537 0.0
H1227 H 0.84912 0.82014 0.93589 0.0
H1228 H 0.83092 0.81325 0.90984 0.0
H1229 H 0.90448 0.92271 0.93708 0.0
H1230 H 0.96067 0.91775 0.92643 0.0
H1231 H 0.94195 0.89992 0.94871 0.0
C1232 C 0.70488 0.62105 0.4725 0.0
C1233 C 0.67687 0.62803 0.48902 0.0
C1234 C 0.68768 0.6205 0.45226 0.0
C1235 C 0.64163 0.62772 0.44842 0.0
C1236 C 0.61327 0.63496 0.46516 0.0
C1237 C 0.63115 0.63472 0.48534 0.0
C1238 C 0.71886 0.61206 0.43498 0.0
C1239 C 0.5641 0.6427 0.4618 0.0
C1240 C 0.63127 0.64424 0.39182 0.0
C1241 C 0.6185 0.62065 0.38366 0.0
C1242 C 0.63379 0.64787 0.41333 0.0
C1243 C 0.62399 0.62729 0.42678 0.0
C1244 C 0.60561 0.60453 0.41852 0.0
C1245 C 0.60316 0.60151 0.39704 0.0
C1246 C 0.65141 0.67285 0.42155 0.0
C1247 C 0.5938 0.58207 0.43198 0.0
H1248 H 0.74011 0.61568 0.47549 0.0
H1249 H 0.60955 0.63993 0.49826 0.0
H1250 H 0.70227 0.59667 0.42594 0.0
H1251 H 0.72526 0.62816 0.42431 0.0
H1252 H 0.75239 0.6051 0.44075 0.0
H1253 H 0.54823 0.65037 0.47607 0.0
H1254 H 0.56197 0.65726 0.44946 0.0
H1255 H 0.54371 0.62605 0.45665 0.0
H1256 H 0.64306 0.65909 0.38149 0.0
H1257 H 0.59302 0.58329 0.39068 0.0
H1258 H 0.68818 0.67094 0.42565 0.0
H1259 H 0.63264 0.67835 0.43575 0.0
H1260 H 0.64814 0.68828 0.40997 0.0
H1261 H 0.6246 0.56993 0.43358 0.0
H1262 H 0.56618 0.57039 0.42487 0.0
H1263 H 0.58274 0.58784 0.44764 0.0
C1264 C 0.38155 0.62706 0.01799 0.0
C1265 C 0.33477 0.62614 0.013 0.0
C1266 C 0.39623 0.63145 0.03836 0.0
C1267 C 0.36324 0.6343 0.05423 0.0
C1268 C 0.31588 0.63308 0.04922 0.0
C1269 C 0.30223 0.62933 0.02863 0.0
C1270 C 0.44696 0.63275 0.04283 0.0
C1271 C 0.27955 0.63574 0.06567 0.0
C1272 C 0.38652 0.62472 0.11153 0.0
C1273 C 0.38481 0.64977 0.1187 0.0
C1274 C 0.38285 0.61933 0.09029 0.0
C1275 C 0.37746 0.63951 0.076 0.0
C1276 C 0.37995 0.66489 0.08311 0.0
C1277 C 0.38325 0.6697 0.10438 0.0
C1278 C 0.38117 0.59202 0.08335 0.0
C1279 C 0.37635 0.68696 0.06834 0.0
H1280 H 0.40672 0.6245 0.00586 0.0
H1281 H 0.26608 0.62829 0.0248 0.0
H1282 H 0.45517 0.64928 0.05278 0.0
H1283 H 0.45745 0.61542 0.0513 0.0
H1284 H 0.4677 0.6341 0.02848 0.0
H1285 H 0.24438 0.63294 0.05947 0.0
H1286 H 0.28536 0.62171 0.07816 0.0
H1287 H 0.28175 0.65491 0.07269 0.0
H1288 H 0.38755 0.60931 0.12261 0.0
H1289 H 0.38224 0.68909 0.10995 0.0
H1290 H 0.40316 0.58918 0.06959 0.0
H1291 H 0.34552 0.58702 0.07889 0.0
H1292 H 0.39239 0.57881 0.09571 0.0
H1293 H 0.40298 0.68538 0.05618 0.0
H1294 H 0.38046 0.70554 0.07622 0.0
H1295 H 0.3425 0.68656 0.06052 0.0
C1296 C 0.20441 0.8736 0.53065 0.0
C1297 C 0.17347 0.87464 0.51419 0.0
C1298 C 0.18881 0.87315 0.55116 0.0
C1299 C 0.14102 0.87305 0.55529 0.0
C1300 C 0.10972 0.87548 0.53869 0.0
C1301 C 0.12638 0.87644 0.51833 0.0
C1302 C 0.22351 0.87143 0.56837 0.0
C1303 C 0.05867 0.87623 0.54242 0.0
C1304 C 0.11572 0.83261 0.60203 0.0
C1305 C 0.1174 0.85049 0.61804 0.0
C1306 C 0.12002 0.83997 0.58135 0.0
C1307 C 0.12466 0.86602 0.57639 0.0
C1308 C 0.12028 0.8844 0.59226 0.0
C1309 C 0.11725 0.8764 0.61303 0.0
C1310 C 0.12411 0.81962 0.56504 0.0
C1311 C 0.12248 0.91242 0.58761 0.0
H1312 H 0.24088 0.87283 0.52746 0.0
H1313 H 0.10245 0.87758 0.50556 0.0
H1314 H 0.2162 0.88585 0.58038 0.0
H1315 H 0.22112 0.85248 0.57579 0.0
H1316 H 0.25917 0.87432 0.56278 0.0
H1317 H 0.03886 0.8775 0.52781 0.0
H1318 H 0.04738 0.85902 0.55092 0.0
H1319 H 0.05023 0.89285 0.55218 0.0
H1320 H 0.11484 0.81257 0.60583 0.0
H1321 H 0.11813 0.89037 0.62531 0.0
H1322 H 0.1596 0.81953 0.55884 0.0
H1323 H 0.10065 0.82357 0.55197 0.0
H1324 H 0.1162 0.80041 0.57118 0.0
H1325 H 0.15881 0.91875 0.58769 0.0
H1326 H 0.1038 0.92353 0.59948 0.0
H1327 H 0.10787 0.91678 0.57221 0.0
C1328 C 0.12307 0.29177 0.33998 0.0
C1329 C 0.15243 0.28469 0.35615 0.0
C1330 C 0.1043 0.27357 0.3265 0.0
C1331 C 0.11461 0.24757 0.32936 0.0
C1332 C 0.14384 0.24026 0.34576 0.0
C1333 C 0.16251 0.25887 0.35887 0.0
C1334 C 0.07357 0.28222 0.30915 0.0
C1335 C 0.15608 0.21278 0.34923 0.0
C1336 C 0.0336 0.199 0.30519 0.0
C1337 C 0.05851 0.19115 0.28783 0.0
C1338 C 0.05179 0.21694 0.31906 0.0
C1339 C 0.09529 0.228 0.31508 0.0
C1340 C 0.12046 0.22022 0.29751 0.0
C1341 C 0.10214 0.20153 0.28439 0.0
C1342 C 0.02455 0.22392 0.33802 0.0
C1343 C 0.16611 0.23216 0.29214 0.0
H1344 H 0.11453 0.3116 0.3379 0.0
H1345 H 0.1858 0.2532 0.37103 0.0
H1346 H 0.08632 0.27482 0.29419 0.0
H1347 H 0.03849 0.27449 0.31144 0.0
H1348 H 0.07144 0.30323 0.30815 0.0
H1349 H 0.1759 0.20996 0.36368 0.0
H1350 H 0.12457 0.20092 0.34992 0.0
H1351 H 0.17694 0.20583 0.33609 0.0
H1352 H 1.00005 0.19082 0.30812 0.0
H1353 H 0.12165 0.19555 0.27118 0.0
H1354 H 0.01603 0.24441 0.33765 0.0
H1355 H 0.04543 0.22059 0.35207 0.0
H1356 H 0.99217 0.21283 0.33932 0.0
H1357 H 0.16058 0.2521 0.28724 0.0
H1358 H 0.18371 0.22198 0.27941 0.0
H1359 H 0.18909 0.23259 0.30576 0.0
C1360 C 0.39866 0.21003 0.84889 0.0
C1361 C 0.35494 0.21388 0.85721 0.0
C1362 C 0.41811 0.22773 0.83518 0.0
C1363 C 0.39275 0.24948 0.82943 0.0
C1364 C 0.34807 0.25307 0.83749 0.0
C1365 C 0.32987 0.23533 0.85148 0.0
C1366 C 0.4659 0.22329 0.82703 0.0
C1367 C 0.31921 0.27542 0.83102 0.0
C1368 C 0.45476 0.30853 0.81015 0.0
C1369 C 0.44901 0.30655 0.78873 0.0
C1370 C 0.43733 0.28984 0.82351 0.0
C1371 C 0.41313 0.26878 0.8153 0.0
C1372 C 0.40767 0.26651 0.79368 0.0
C1373 C 0.42628 0.28522 0.78068 0.0
C1374 C 0.44434 0.29277 0.84647 0.0
C1375 C 0.38233 0.24434 0.7842 0.0
H1376 H 0.41767 0.19322 0.85324 0.0
H1377 H 0.29562 0.2379 0.85763 0.0
H1378 H 0.46597 0.22386 0.80993 0.0
H1379 H 0.48906 0.23866 0.83246 0.0
H1380 H 0.48004 0.20478 0.83213 0.0
H1381 H 0.28553 0.27578 0.83903 0.0
H1382 H 0.33765 0.29344 0.83428 0.0
H1383 H 0.31307 0.27466 0.81412 0.0
H1384 H 0.47272 0.32478 0.81654 0.0
H1385 H 0.42283 0.28306 0.76417 0.0
H1386 H 0.46181 0.27578 0.85275 0.0
H1387 H 0.41062 0.29421 0.85431 0.0
H1388 H 0.46507 0.30985 0.85037 0.0
H1389 H 0.40308 0.22688 0.78595 0.0
H1390 H 0.37546 0.24726 0.76751 0.0
H1391 H 0.3492 0.24103 0.7922 0.0
C1392 C 0.6085 0.22161 0.64753 0.0
C1393 C 0.65455 0.21461 0.6494 0.0
C1394 C 0.58825 0.23801 0.66199 0.0
C1395 C 0.6152 0.24814 0.67826 0.0
C1396 C 0.66181 0.24112 0.68009 0.0
C1397 C 0.68074 0.2242 0.66578 0.0
C1398 C 0.53816 0.24458 0.65979 0.0
C1399 C 0.6918 0.25166 0.69709 0.0
C1400 C 0.57966 0.3115 0.70065 0.0
C1401 C 0.56145 0.3044 0.7198 0.0
C1402 C 0.5974 0.29336 0.68708 0.0
C1403 C 0.59578 0.26737 0.69258 0.0
C1404 C 0.57707 0.26006 0.71191 0.0
C1405 C 0.56061 0.27877 0.72546 0.0
C1406 C 0.61822 0.30205 0.66692 0.0
C1407 C 0.57318 0.2325 0.71803 0.0
H1408 H 0.58813 0.2138 0.63504 0.0
H1409 H 0.71631 0.21857 0.66727 0.0
H1410 H 0.52041 0.24306 0.67489 0.0
H1411 H 0.53489 0.2645 0.65447 0.0
H1412 H 0.5204 0.23207 0.64851 0.0
H1413 H 0.72778 0.245 0.69592 0.0
H1414 H 0.69174 0.27272 0.69658 0.0
H1415 H 0.67794 0.24591 0.71234 0.0
H1416 H 0.58047 0.3314 0.69635 0.0
H1417 H 0.54572 0.27333 0.74015 0.0
H1418 H 0.5991 0.29362 0.6538 0.0
H1419 H 0.6542 0.29541 0.6658 0.0
H1420 H 0.61793 0.32303 0.66524 0.0
H1421 H 0.54789 0.22291 0.70785 0.0
H1422 H 0.5619 0.23014 0.7343 0.0
H1423 H 0.60645 0.22272 0.71596 0.0
C1424 C 0.83574 0.25788 0.14676 0.0
C1425 C 0.85445 0.28228 0.14486 0.0
C1426 C 0.85414 0.24034 0.16078 0.0
C1427 C 0.89279 0.24725 0.17281 0.0
C1428 C 0.9127 0.27165 0.17045 0.0
C1429 C 0.89288 0.289 0.15667 0.0
C1430 C 0.8313 0.21474 0.16321 0.0
C1431 C 0.95524 0.27929 0.18224 0.0
C1432 C 0.91694 0.21228 0.22297 0.0
C1433 C 0.94523 0.19251 0.21624 0.0
C1434 C 0.89861 0.22983 0.20892 0.0
C1435 C 0.91214 0.22895 0.18794 0.0
C1436 C 0.94352 0.21026 0.18135 0.0
C1437 C 0.95837 0.19179 0.19537 0.0
C1438 C 0.86406 0.24896 0.21647 0.0
C1439 C 0.96117 0.20951 0.15944 0.0
H1440 H 0.80567 0.25284 0.13779 0.0
H1441 H 0.90745 0.30787 0.15507 0.0
H1442 H 0.85632 0.19936 0.16035 0.0
H1443 H 0.81881 0.21251 0.1793 0.0
H1444 H 0.8019 0.2122 0.15251 0.0
H1445 H 0.96536 0.29931 0.17925 0.0
H1446 H 0.94986 0.27684 0.19906 0.0
H1447 H 0.98408 0.26677 0.17777 0.0
H1448 H 0.90854 0.214 0.23916 0.0
H1449 H 0.98115 0.17704 0.18998 0.0
H1450 H 0.83226 0.24759 0.20711 0.0
H1451 H 0.87781 0.26847 0.21455 0.0
H1452 H 0.855 0.24607 0.23296 0.0
H1453 H 0.93418 0.20177 0.14914 0.0
H1454 H 0.99205 0.19736 0.15798 0.0
H1455 H 0.96992 0.22887 0.15391 0.0
C1456 C 0.8824 0.72743 0.64159 0.0
C1457 C 0.8465 0.71283 0.64989 0.0
C1458 C 0.90132 0.74792 0.65273 0.0
C1459 C 0.8841 0.75372 0.67265 0.0
C1460 C 0.84661 0.7397 0.68064 0.0
C1461 C 0.82809 0.71966 0.6691 0.0
C1462 C 0.94082 0.76267 0.64353 0.0
C1463 C 0.82702 0.74529 0.70174 0.0
C1464 C 0.96182 0.78345 0.71302 0.0
C1465 C 0.94392 0.80799 0.71455 0.0
C1466 C 0.94329 0.76579 0.69911 0.0
C1467 C 0.90685 0.7731 0.68596 0.0
C1468 C 0.88962 0.79818 0.68702 0.0
C1469 C 0.90788 0.81523 0.70158 0.0
C1470 C 0.96177 0.73906 0.69897 0.0
C1471 C 0.85225 0.80703 0.67265 0.0
H1472 H 0.89679 0.72228 0.62675 0.0
H1473 H 0.79954 0.70889 0.67537 0.0
H1474 H 0.93632 0.78334 0.64601 0.0
H1475 H 0.97317 0.75705 0.65125 0.0
H1476 H 0.94452 0.75904 0.62672 0.0
H1477 H 0.79857 0.73217 0.70593 0.0
H1478 H 0.85426 0.74374 0.71363 0.0
H1479 H 0.81395 0.76501 0.70225 0.0
H1480 H 0.98964 0.77785 0.72312 0.0
H1481 H 0.89463 0.83439 0.70254 0.0
H1482 H 0.9743 0.73415 0.68333 0.0
H1483 H 0.93392 0.72545 0.70288 0.0
H1484 H 0.99028 0.73648 0.71013 0.0
H1485 H 0.86464 0.80603 0.65648 0.0
H1486 H 0.8415 0.82682 0.67594 0.0
H1487 H 0.82181 0.79442 0.67383 0.0
C1488 C 0.61529 0.76696 0.13916 0.0
C1489 C 0.65075 0.78314 0.14584 0.0
C1490 C 0.59696 0.74808 0.15222 0.0
C1491 C 0.61386 0.7455 0.17262 0.0
C1492 C 0.64954 0.76174 0.17947 0.0
C1493 C 0.6678 0.78009 0.16599 0.0
C1494 C 0.55926 0.731 0.14421 0.0
C1495 C 0.66871 0.75967 0.20107 0.0
C1496 C 0.53904 0.71312 0.21325 0.0
C1497 C 0.56043 0.68949 0.21529 0.0
C1498 C 0.55599 0.7315 0.19941 0.0
C1499 C 0.59445 0.72584 0.18687 0.0
C1500 C 0.61544 0.70173 0.18856 0.0
C1501 C 0.59855 0.68399 0.20293 0.0
C1502 C 0.53356 0.75724 0.19865 0.0
C1503 C 0.65555 0.69457 0.17507 0.0
H1504 H 0.60135 0.76924 0.12378 0.0
H1505 H 0.69591 0.79194 0.17125 0.0
H1506 H 0.56792 0.71081 0.14702 0.0
H1507 H 0.52694 0.73496 0.15261 0.0
H1508 H 0.55307 0.73372 0.12745 0.0
H1509 H 0.69316 0.77527 0.20469 0.0
H1510 H 0.64057 0.75995 0.2126 0.0
H1511 H 0.68683 0.74133 0.20285 0.0
H1512 H 0.50984 0.71756 0.22293 0.0
H1513 H 0.61499 0.66566 0.20437 0.0
H1514 H 0.52125 0.76125 0.18279 0.0
H1515 H 0.55906 0.77217 0.20262 0.0
H1516 H 0.50413 0.75871 0.20946 0.0
H1517 H 0.64471 0.69464 0.15865 0.0
H1518 H 0.66923 0.67549 0.17889 0.0
H1519 H 0.68363 0.7087 0.17666 0.0
C1520 C 0.39283 0.79231 0.34238 0.0
C1521 C 0.35637 0.78778 0.35604 0.0
C1522 C 0.41193 0.77257 0.3308 0.0
C1523 C 0.39397 0.74772 0.3329 0.0
C1524 C 0.35907 0.74274 0.34758 0.0
C1525 C 0.3407 0.76288 0.35906 0.0
C1526 C 0.44978 0.77859 0.31562 0.0
C1527 C 0.33992 0.71632 0.3505 0.0
C1528 C 0.40603 0.7056 0.28575 0.0
C1529 C 0.44319 0.69028 0.29123 0.0
C1530 C 0.38884 0.72387 0.29942 0.0
C1531 C 0.40996 0.72729 0.31891 0.0
C1532 C 0.44725 0.71183 0.32466 0.0
C1533 C 0.46305 0.69339 0.31088 0.0
C1534 C 0.34868 0.73993 0.29282 0.0
C1535 C 0.47183 0.71542 0.34498 0.0
H1536 H 0.4055 0.81152 0.34028 0.0
H1537 H 0.31251 0.75934 0.36959 0.0
H1538 H 0.478 0.76465 0.31696 0.0
H1539 H 0.43615 0.77732 0.29967 0.0
H1540 H 0.46412 0.79796 0.31793 0.0
H1541 H 0.31305 0.71556 0.36264 0.0
H1542 H 0.32498 0.7094 0.33578 0.0
H1543 H 0.36784 0.7031 0.35478 0.0
H1544 H 0.39099 0.70387 0.27063 0.0
H1545 H 0.49191 0.68179 0.31545 0.0
H1546 H 0.35967 0.76005 0.29144 0.0
H1547 H 0.32121 0.73909 0.30465 0.0
H1548 H 0.33416 0.73374 0.27778 0.0
H1549 H 0.4919 0.73335 0.34447 0.0
H1550 H 0.49576 0.69961 0.34836 0.0
H1551 H 0.44703 0.71702 0.35788 0.0
C1552 C 0.17164 0.71786 0.83661 0.0
C1553 C 0.14993 0.71337 0.85562 0.0
C1554 C 0.15368 0.73517 0.82233 0.0
C1555 C 0.11295 0.74837 0.82715 0.0
C1556 C 0.09054 0.74375 0.84621 0.0
C1557 C 0.10949 0.72641 0.8603 0.0
C1558 C 0.17879 0.73968 0.80226 0.0
C1559 C 0.04622 0.75688 0.85157 0.0
C1560 C 0.08984 0.81192 0.80164 0.0
C1561 C 0.06066 0.80491 0.78551 0.0
C1562 C 0.10809 0.79355 0.81494 0.0
C1563 C 0.09494 0.76779 0.8126 0.0
C1564 C 0.06503 0.76072 0.79632 0.0
C1565 C 0.0494 0.77934 0.78253 0.0
C1566 C 0.14127 0.80172 0.83157 0.0
C1567 C 0.04907 0.73364 0.79354 0.0
H1568 H 0.20315 0.70798 0.83298 0.0
H1569 H 0.0922 0.72267 0.8748 0.0
H1570 H 0.15534 0.73675 0.789 0.0
H1571 H 0.19097 0.75965 0.80158 0.0
H1572 H 0.20873 0.72693 0.80041 0.0
H1573 H 0.03348 0.75156 0.86715 0.0
H1574 H 0.0509 0.77777 0.85099 0.0
H1575 H 0.0196 0.75187 0.84001 0.0
H1576 H 0.09865 0.83178 0.8037 0.0
H1577 H 0.02661 0.7741 0.77 0.0
H1578 H 0.17367 0.7909 0.83014 0.0
H1579 H 0.12666 0.79745 0.84699 0.0
H1580 H 0.14941 0.82232 0.83077 0.0
H1581 H 0.07745 0.72215 0.78712 0.0
H1582 H 0.01937 0.73226 0.78285 0.0
H1583 H 0.03915 0.72514 0.80857 0.0
loop_
_geom_bond_atom_site_label_1
_geom_bond_atom_site_label_2
_geom_bond_distance
_geom_bond_site_symmetry_2
_ccdc_geom_bond_type
C0 C1 1.391 . S
C0 C4 1.391 . S
C0 H42 0.948 . S
C1 C0 1.391 . S
C1 C2 1.391 . S
C2 C1 1.391 . S
C2 H58 0.947 . S
C2 C59 1.392 . S
C3 C4 1.391 . S
C3 C7 1.397 . S
C3 C59 1.419 . S
C4 C0 1.391 . S
C4 C3 1.391 . S
C4 C5 1.399 . S
C5 C4 1.399 . S
C5 C8 1.396 . S
C5 C17 1.453 . S
C5 C18 1.684 . S
H6 C30 0.948 . S
C7 C3 1.397 . S
C7 C8 1.394 . S
C7 C26 1.723 . S
C8 C5 1.396 . S
C8 C7 1.394 . S
C8 C38 1.723 . S
H9 C32 0.947 . S
H10 C33 0.948 . S
H11 C39 0.982 . S
H12 C40 0.979 . S
H13 C40 0.980 . S
H14 C40 0.983 . S
H15 C39 0.979 . S
H16 C39 0.977 . S
C17 C5 1.453 . S
C17 H46 0.982 . S
C17 H47 0.979 . S
C17 H48 0.977 . S
C18 C5 1.684 . S
C18 H43 0.979 . S
C18 H44 0.980 . S
C18 H45 0.983 . S
C19 C20 1.391 . S
C19 C24 1.391 . S
C19 H49 0.948 . S
C20 C19 1.391 . S
C20 C21 1.391 . S
C21 C20 1.391 . S
C21 C22 1.392 . S
C21 H50 0.947 . S
C22 C21 1.392 . S
C22 C23 1.419 . S
C22 H51 0.948 . S
C23 C22 1.419 . S
C23 C24 1.391 . S
C23 C27 1.397 . S
C24 C19 1.391 . S
C24 C23 1.391 . S
C24 C25 1.399 . S
C25 C24 1.399 . S
C25 C26 1.396 . S
C25 C28 1.453 . S
C25 C29 1.684 . S
C26 C7 1.723 . S
C26 C25 1.396 . S
C26 C27 1.394 . S
C27 C23 1.397 . S
C27 C26 1.394 . S
C27 C37 1.723 . S
C28 C25 1.453 . S
C28 H52 0.982 . S
C28 H53 0.979 . S
C28 H54 0.977 . S
C29 C25 1.684 . S
C29 H55 0.979 . S
C29 H56 0.980 . S
C29 H57 0.983 . S
C30 H6 0.948 . S
C30 C31 1.391 . S
C30 C35 1.391 . S
C31 C30 1.391 . S
C31 C32 1.391 . S
C32 H9 0.947 . S
C32 C31 1.391 . S
C32 C33 1.392 . S
C33 H10 0.948 . S
C33 C32 1.392 . S
C33 C34 1.419 . S
C34 C33 1.419 . S
C34 C35 1.391 . S
C34 C38 1.397 . S
C35 C30 1.391 . S
C35 C34 1.391 . S
C35 C36 1.399 . S
C36 C35 1.399 . S
C36 C37 1.396 . S
C36 C39 1.453 . S
C36 C40 1.684 . S
C37 C27 1.723 . S
C37 C36 1.396 . S
C37 C38 1.394 . S
C38 C8 1.723 . S
C38 C34 1.397 . S
C38 C37 1.394 . S
C39 H11 0.982 . S
C39 H15 0.979 . S
C39 H16 0.977 . S
C39 C36 1.453 . S
C40 H12 0.979 . S
C40 H13 0.980 . S
C40 H14 0.983 . S
C40 C36 1.684 . S
H41 C59 0.948 . S
H42 C0 0.948 . S
H43 C18 0.979 . S
H44 C18 0.980 . S
H45 C18 0.983 . S
H46 C17 0.982 . S
H47 C17 0.979 . S
H48 C17 0.977 . S
H49 C19 0.948 . S
H50 C21 0.947 . S
H51 C22 0.948 . S
H52 C28 0.982 . S
H53 C28 0.979 . S
H54 C28 0.977 . S
H55 C29 0.979 . S
H56 C29 0.980 . S
H57 C29 0.983 . S
H58 C2 0.947 . S
C59 C2 1.392 . S
C59 C3 1.419 . S
C59 H41 0.948 . S
C60 C61 1.391 . S
C60 C64 1.391 . S
C60 H102 0.948 . S
C61 C60 1.391 . S
C61 C62 1.391 . S
C62 C61 1.391 . S
C62 H118 0.947 . S
C62 C119 1.392 . S
C63 C64 1.391 . S
C63 C67 1.397 . S
C63 C119 1.419 . S
C64 C60 1.391 . S
C64 C63 1.391 . S
C64 C65 1.399 . S
C65 C64 1.399 . S
C65 C68 1.396 . S
C65 C77 1.453 . S
C65 C78 1.684 . S
H66 C90 0.948 . S
C67 C63 1.397 . S
C67 C68 1.394 . S
C67 C86 1.723 . S
C68 C65 1.396 . S
C68 C67 1.394 . S
C68 C98 1.723 . S
H69 C92 0.947 . S
H70 C93 0.948 . S
H71 C99 0.982 . S
H72 C100 0.979 . S
H73 C100 0.980 . S
H74 C100 0.983 . S
H75 C99 0.979 . S
H76 C99 0.977 . S
C77 C65 1.453 . S
C77 H106 0.982 . S
C77 H107 0.979 . S
C77 H108 0.977 . S
C78 C65 1.684 . S
C78 H103 0.979 . S
C78 H104 0.980 . S
C78 H105 0.983 . S
C79 C80 1.391 . S
C79 C84 1.391 . S
C79 H109 0.948 . S
C80 C79 1.391 . S
C80 C81 1.391 . S
C81 C80 1.391 . S
C81 C82 1.392 . S
C81 H110 0.947 . S
C82 C81 1.392 . S
C82 C83 1.419 . S
C82 H111 0.948 . S
C83 C82 1.419 . S
C83 C84 1.391 . S
C83 C87 1.397 . S
C84 C79 1.391 . S
C84 C83 1.391 . S
C84 C85 1.399 . S
C85 C84 1.399 . S
C85 C86 1.396 . S
C85 C88 1.453 . S
C85 C89 1.684 . S
C86 C67 1.723 . S
C86 C85 1.396 . S
C86 C87 1.394 . S
C87 C83 1.397 . S
C87 C86 1.394 . S
C87 C97 1.723 . S
C88 C85 1.453 . S
C88 H112 0.982 . S
C88 H113 0.979 . S
C88 H114 0.977 . S
C89 C85 1.684 . S
C89 H115 0.979 . S
C89 H116 0.980 . S
C89 H117 0.983 . S
C90 H66 0.948 . S
C90 C91 1.391 . S
C90 C95 1.391 . S
C91 C90 1.391 . S
C91 C92 1.391 . S
C92 H69 0.947 . S
C92 C91 1.391 . S
C92 C93 1.392 . S
C93 H70 0.948 . S
C93 C92 1.392 . S
C93 C94 1.419 . S
C94 C93 1.419 . S
C94 C95 1.391 . S
C94 C98 1.397 . S
C95 C90 1.391 . S
C95 C94 1.391 . S
C95 C96 1.399 . S
C96 C95 1.399 . S
C96 C97 1.396 . S
C96 C99 1.453 . S
C96 C100 1.684 . S
C97 C87 1.723 . S
C97 C96 1.396 . S
C97 C98 1.394 . S
C98 C68 1.723 . S
C98 C94 1.397 . S
C98 C97 1.394 . S
C99 H71 0.982 . S
C99 H75 0.979 . S
C99 H76 0.977 . S
C99 C96 1.453 . S
C100 H72 0.979 . S
C100 H73 0.980 . S
C100 H74 0.983 . S
C100 C96 1.684 . S
H101 C119 0.948 . S
H102 C60 0.948 . S
H103 C78 0.979 . S
H104 C78 0.980 . S
H105 C78 0.983 . S
H106 C77 0.982 . S
H107 C77 0.979 . S
H108 C77 0.977 . S
H109 C79 0.948 . S
H110 C81 0.947 . S
H111 C82 0.948 . S
H112 C88 0.982 . S
H113 C88 0.979 . S
H114 C88 0.977 . S
H115 C89 0.979 . S
H116 C89 0.980 . S
H117 C89 0.983 . S
H118 C62 0.947 . S
C119 C62 1.392 . S
C119 C63 1.419 . S
C119 H101 0.948 . S
C120 C121 1.391 . S
C120 C124 1.391 . S
C120 H162 0.948 . S
C121 C120 1.391 . S
C121 C122 1.391 . S
C122 C121 1.391 . S
C122 H178 0.947 . S
C122 C179 1.392 . S
C123 C124 1.391 . S
C123 C127 1.397 . S
C123 C179 1.419 . S
C124 C120 1.391 . S
C124 C123 1.391 . S
C124 C125 1.399 . S
C125 C124 1.399 . S
C125 C128 1.396 . S
C125 C137 1.453 . S
C125 C138 1.684 . S
H126 C150 0.948 . S
C127 C123 1.397 . S
C127 C128 1.394 . S
C127 C146 1.723 . S
C128 C125 1.396 . S
C128 C127 1.394 . S
C128 C158 1.723 . S
H129 C152 0.947 . S
H130 C153 0.948 . S
H131 C159 0.982 . S
H132 C160 0.979 . S
H133 C160 0.980 . S
H134 C160 0.983 . S
H135 C159 0.979 . S
H136 C159 0.977 . S
C137 C125 1.453 . S
C137 H166 0.982 . S
C137 H167 0.979 . S
C137 H168 0.977 . S
C138 C125 1.684 . S
C138 H163 0.979 . S
C138 H164 0.980 . S
C138 H165 0.983 . S
C139 C140 1.391 . S
C139 C144 1.391 . S
C139 H169 0.948 . S
C140 C139 1.391 . S
C140 C141 1.391 . S
C141 C140 1.391 . S
C141 C142 1.392 . S
C141 H170 0.947 . S
C142 C141 1.392 . S
C142 C143 1.419 . S
C142 H171 0.948 . S
C143 C142 1.419 . S
C143 C144 1.391 . S
C143 C147 1.397 . S
C144 C139 1.391 . S
C144 C143 1.391 . S
C144 C145 1.399 . S
C145 C144 1.399 . S
C145 C146 1.396 . S
C145 C148 1.453 . S
C145 C149 1.684 . S
C146 C127 1.723 . S
C146 C145 1.396 . S
C146 C147 1.394 . S
C147 C143 1.397 . S
C147 C146 1.394 . S
C147 C157 1.723 . S
C148 C145 1.453 . S
C148 H172 0.982 . S
C148 H173 0.979 . S
C148 H174 0.977 . S
C149 C145 1.684 . S
C149 H175 0.979 . S
C149 H176 0.980 . S
C149 H177 0.983 . S
C150 H126 0.948 . S
C150 C151 1.391 . S
C150 C155 1.391 . S
C151 C150 1.391 . S
C151 C152 1.391 . S
C152 H129 0.947 . S
C152 C151 1.391 . S
C152 C153 1.392 . S
C153 H130 0.948 . S
C153 C152 1.392 . S
C153 C154 1.419 . S
C154 C153 1.419 . S
C154 C155 1.391 . S
C154 C158 1.397 . S
C155 C150 1.391 . S
C155 C154 1.391 . S
C155 C156 1.399 . S
C156 C155 1.399 . S
C156 C157 1.396 . S
C156 C159 1.453 . S
C156 C160 1.684 . S
C157 C147 1.723 . S
C157 C156 1.396 . S
C157 C158 1.394 . S
C158 C128 1.723 . S
C158 C154 1.397 . S
C158 C157 1.394 . S
C159 H131 0.982 . S
C159 H135 0.979 . S
C159 H136 0.977 . S
C159 C156 1.453 . S
C160 H132 0.979 . S
C160 H133 0.980 . S
C160 H134 0.983 . S
C160 C156 1.684 . S
H161 C179 0.948 . S
H162 C120 0.948 . S
H163 C138 0.979 . S
H164 C138 0.980 . S
H165 C138 0.983 . S
H166 C137 0.982 . S
H167 C137 0.979 . S
H168 C137 0.977 . S
H169 C139 0.948 . S
H170 C141 0.947 . S
H171 C142 0.948 . S
H172 C148 0.982 . S
H173 C148 0.979 . S
H174 C148 0.977 . S
H175 C149 0.979 . S
H176 C149 0.980 . S
H177 C149 0.983 . S
H178 C122 0.947 . S
C179 C122 1.392 . S
C179 C123 1.419 . S
C179 H161 0.948 . S
C180 C181 1.391 . S
C180 C184 1.391 . S
C180 H222 0.948 . S
C181 C180 1.391 . S
C181 C182 1.391 . S
C182 C181 1.391 . S
C182 H238 0.947 . S
C182 C239 1.392 . S
C183 C184 1.391 . S
C183 C187 1.397 . S
C183 C239 1.419 . S
C184 C180 1.391 . S
C184 C183 1.391 . S
C184 C185 1.399 . S
C185 C184 1.399 . S
C185 C188 1.396 . S
C185 C197 1.453 . S
C185 C198 1.684 . S
H186 C210 0.948 . S
C187 C183 1.397 . S
C187 C188 1.394 . S
C187 C206 1.723 . S
C188 C185 1.396 . S
C188 C187 1.394 . S
C188 C218 1.723 . S
H189 C212 0.947 . S
H190 C213 0.948 . S
H191 C219 0.982 . S
H192 C220 0.979 . S
H193 C220 0.980 . S
H194 C220 0.983 . S
H195 C219 0.979 . S
H196 C219 0.977 . S
C197 C185 1.453 . S
C197 H226 0.982 . S
C197 H227 0.979 . S
C197 H228 0.977 . S
C198 C185 1.684 . S
C198 H223 0.979 . S
C198 H224 0.980 . S
C198 H225 0.983 . S
C199 C200 1.391 . S
C199 C204 1.391 . S
C199 H229 0.948 . S
C200 C199 1.391 . S
C200 C201 1.391 . S
C201 C200 1.391 . S
C201 C202 1.392 . S
C201 H230 0.947 . S
C202 C201 1.392 . S
C202 C203 1.419 . S
C202 H231 0.948 . S
C203 C202 1.419 . S
C203 C204 1.391 . S
C203 C207 1.397 . S
C204 C199 1.391 . S
C204 C203 1.391 . S
C204 C205 1.399 . S
C205 C204 1.399 . S
C205 C206 1.396 . S
C205 C208 1.453 . S
C205 C209 1.684 . S
C206 C187 1.723 . S
C206 C205 1.396 . S
C206 C207 1.394 . S
C207 C203 1.397 . S
C207 C206 1.394 . S
C207 C217 1.723 . S
C208 C205 1.453 . S
C208 H232 0.982 . S
C208 H233 0.979 . S
C208 H234 0.977 . S
C209 C205 1.684 . S
C209 H235 0.979 . S
C209 H236 0.980 . S
C209 H237 0.983 . S
C210 H186 0.948 . S
C210 C211 1.391 . S
C210 C215 1.391 . S
C211 C210 1.391 . S
C211 C212 1.391 . S
C212 H189 0.947 . S
C212 C211 1.391 . S
C212 C213 1.392 . S
C213 H190 0.948 . S
C213 C212 1.392 . S
C213 C214 1.419 . S
C214 C213 1.419 . S
C214 C215 1.391 . S
C214 C218 1.397 . S
C215 C210 1.391 . S
C215 C214 1.391 . S
C215 C216 1.399 . S
C216 C215 1.399 . S
C216 C217 1.396 . S
C216 C219 1.453 . S
C216 C220 1.684 . S
C217 C207 1.723 . S
C217 C216 1.396 . S
C217 C218 1.394 . S
C218 C188 1.723 . S
C218 C214 1.397 . S
C218 C217 1.394 . S
C219 H191 0.982 . S
C219 H195 0.979 . S
C219 H196 0.977 . S
C219 C216 1.453 . S
C220 H192 0.979 . S
C220 H193 0.980 . S
C220 H194 0.983 . S
C220 C216 1.684 . S
H221 C239 0.948 . S
H222 C180 0.948 . S
H223 C198 0.979 . S
H224 C198 0.980 . S
H225 C198 0.983 . S
H226 C197 0.982 . S
H227 C197 0.979 . S
H228 C197 0.977 . S
H229 C199 0.948 . S
H230 C201 0.947 . S
H231 C202 0.948 . S
H232 C208 0.982 . S
H233 C208 0.979 . S
H234 C208 0.977 . S
H235 C209 0.979 . S
H236 C209 0.980 . S
H237 C209 0.983 . S
H238 C182 0.947 . S
C239 C182 1.392 . S
C239 C183 1.419 . S
C239 H221 0.948 . S
C240 C241 1.391 . S
C240 C244 1.391 . S
C240 H282 0.948 . S
C241 C240 1.391 . S
C241 C242 1.391 . S
C242 C241 1.391 . S
C242 H298 0.947 . S
C242 C299 1.392 . S
C243 C244 1.391 . S
C243 C247 1.397 . S
C243 C299 1.419 . S
C244 C240 1.391 . S
C244 C243 1.391 . S
C244 C245 1.399 . S
C245 C244 1.399 . S
C245 C248 1.396 . S
C245 C257 1.453 . S
C245 C258 1.684 . S
H246 C270 0.948 . S
C247 C243 1.397 . S
C247 C248 1.394 . S
C247 C266 1.723 . S
C248 C245 1.396 . S
C248 C247 1.394 . S
C248 C278 1.723 . S
H249 C272 0.947 . S
H250 C273 0.948 . S
H251 C279 0.982 . S
H252 C280 0.979 . S
H253 C280 0.980 . S
H254 C280 0.983 . S
H255 C279 0.979 . S
H256 C279 0.977 . S
C257 C245 1.453 . S
C257 H286 0.982 . S
C257 H287 0.979 . S
C257 H288 0.977 . S
C258 C245 1.684 . S
C258 H283 0.979 . S
C258 H284 0.980 . S
C258 H285 0.983 . S
C259 C260 1.391 . S
C259 C264 1.391 . S
C259 H289 0.948 . S
C260 C259 1.391 . S
C260 C261 1.391 . S
C261 C260 1.391 . S
C261 C262 1.392 . S
C261 H290 0.947 . S
C262 C261 1.392 . S
C262 C263 1.419 . S
C262 H291 0.948 . S
C263 C262 1.419 . S
C263 C264 1.391 . S
C263 C267 1.397 . S
C264 C259 1.391 . S
C264 C263 1.391 . S
C264 C265 1.399 . S
C265 C264 1.399 . S
C265 C266 1.396 . S
C265 C268 1.453 . S
C265 C269 1.684 . S
C266 C247 1.723 . S
C266 C265 1.396 . S
C266 C267 1.394 . S
C267 C263 1.397 . S
C267 C266 1.394 . S
C267 C277 1.723 . S
C268 C265 1.453 . S
C268 H292 0.982 . S
C268 H293 0.979 . S
C268 H294 0.977 . S
C269 C265 1.684 . S
C269 H295 0.979 . S
C269 H296 0.980 . S
C269 H297 0.983 . S
C270 H246 0.948 . S
C270 C271 1.391 . S
C270 C275 1.391 . S
C271 C270 1.391 . S
C271 C272 1.391 . S
C272 H249 0.947 . S
C272 C271 1.391 . S
C272 C273 1.392 . S
C273 H250 0.948 . S
C273 C272 1.392 . S
C273 C274 1.419 . S
C274 C273 1.419 . S
C274 C275 1.391 . S
C274 C278 1.397 . S
C275 C270 1.391 . S
C275 C274 1.391 . S
C275 C276 1.399 . S
C276 C275 1.399 . S
C276 C277 1.396 . S
C276 C279 1.453 . S
C276 C280 1.684 . S
C277 C267 1.723 . S
C277 C276 1.396 . S
C277 C278 1.394 . S
C278 C248 1.723 . S
C278 C274 1.397 . S
C278 C277 1.394 . S
C279 H251 0.982 . S
C279 H255 0.979 . S
C279 H256 0.977 . S
C279 C276 1.453 . S
C280 H252 0.979 . S
C280 H253 0.980 . S
C280 H254 0.983 . S
C280 C276 1.684 . S
H281 C299 0.948 . S
H282 C240 0.948 . S
H283 C258 0.979 . S
H284 C258 0.980 . S
H285 C258 0.983 . S
H286 C257 0.982 . S
H287 C257 0.979 . S
H288 C257 0.977 . S
H289 C259 0.948 . S
H290 C261 0.947 . S
H291 C262 0.948 . S
H292 C268 0.982 . S
H293 C268 0.979 . S
H294 C268 0.977 . S
H295 C269 0.979 . S
H296 C269 0.980 . S
H297 C269 0.983 . S
H298 C242 0.947 . S
C299 C242 1.392 . S
C299 C243 1.419 . S
C299 H281 0.948 . S
C300 C301 1.391 . S
C300 C304 1.391 . S
C300 H342 0.948 . S
C301 C300 1.391 . S
C301 C302 1.391 . S
C302 C301 1.391 . S
C302 H358 0.947 . S
C302 C359 1.392 . S
C303 C304 1.391 . S
C303 C307 1.397 . S
C303 C359 1.419 . S
C304 C300 1.391 . S
C304 C303 1.391 . S
C304 C305 1.399 . S
C305 C304 1.399 . S
C305 C308 1.396 . S
C305 C317 1.453 . S
C305 C318 1.684 . S
H306 C330 0.948 . S
C307 C303 1.397 . S
C307 C308 1.394 . S
C307 C326 1.723 . S
C308 C305 1.396 . S
C308 C307 1.394 . S
C308 C338 1.723 . S
H309 C332 0.947 . S
H310 C333 0.948 . S
H311 C339 0.982 . S
H312 C340 0.979 . S
H313 C340 0.980 . S
H314 C340 0.983 . S
H315 C339 0.979 . S
H316 C339 0.977 . S
C317 C305 1.453 . S
C317 H346 0.982 . S
C317 H347 0.979 . S
C317 H348 0.977 . S
C318 C305 1.684 . S
C318 H343 0.979 . S
C318 H344 0.980 . S
C318 H345 0.983 . S
C319 C320 1.391 . S
C319 C324 1.391 . S
C319 H349 0.948 . S
C320 C319 1.391 . S
C320 C321 1.391 . S
C321 C320 1.391 . S
C321 C322 1.392 . S
C321 H350 0.947 . S
C322 C321 1.392 . S
C322 C323 1.419 . S
C322 H351 0.948 . S
C323 C322 1.419 . S
C323 C324 1.391 . S
C323 C327 1.397 . S
C324 C319 1.391 . S
C324 C323 1.391 . S
C324 C325 1.399 . S
C325 C324 1.399 . S
C325 C326 1.396 . S
C325 C328 1.453 . S
C325 C329 1.684 . S
C326 C307 1.723 . S
C326 C325 1.396 . S
C326 C327 1.394 . S
C327 C323 1.397 . S
C327 C326 1.394 . S
C327 C337 1.723 . S
C328 C325 1.453 . S
C328 H352 0.982 . S
C328 H353 0.979 . S
C328 H354 0.977 . S
C329 C325 1.684 . S
C329 H355 0.979 . S
C329 H356 0.980 . S
C329 H357 0.983 . S
C330 H306 0.948 . S
C330 C331 1.391 . S
C330 C335 1.391 . S
C331 C330 1.391 . S
C331 C332 1.391 . S
C332 H309 0.947 . S
C332 C331 1.391 . S
C332 C333 1.392 . S
C333 H310 0.948 . S
C333 C332 1.392 . S
C333 C334 1.419 . S
C334 C333 1.419 . S
C334 C335 1.391 . S
C334 C338 1.397 . S
C335 C330 1.391 . S
C335 C334 1.391 . S
C335 C336 1.399 . S
C336 C335 1.399 . S
C336 C337 1.396 . S
C336 C339 1.453 . S
C336 C340 1.684 . S
C337 C327 1.723 . S
C337 C336 1.396 . S
C337 C338 1.394 . S
C338 C308 1.723 . S
C338 C334 1.397 . S
C338 C337 1.394 . S
C339 H311 0.982 . S
C339 H315 0.979 . S
C339 H316 0.977 . S
C339 C336 1.453 . S
C340 H312 0.979 . S
C340 H313 0.980 . S
C340 H314 0.983 . S
C340 C336 1.684 . S
H341 C359 0.948 . S
H342 C300 0.948 . S
H343 C318 0.979 . S
H344 C318 0.980 . S
H345 C318 0.983 . S
H346 C317 0.982 . S
H347 C317 0.979 . S
H348 C317 0.977 . S
H349 C319 0.948 . S
H350 C321 0.947 . S
H351 C322 0.948 . S
H352 C328 0.982 . S
H353 C328 0.979 . S
H354 C328 0.977 . S
H355 C329 0.979 . S
H356 C329 0.980 . S
H357 C329 0.983 . S
H358 C302 0.947 . S
C359 C302 1.392 . S
C359 C303 1.419 . S
C359 H341 0.948 . S
C360 C361 1.391 . S
C360 C364 1.391 . S
C360 H402 0.948 . S
C361 C360 1.391 . S
C361 C362 1.391 . S
C362 C361 1.391 . S
C362 H418 0.947 . S
C362 C419 1.392 . S
C363 C364 1.391 . S
C363 C367 1.397 . S
C363 C419 1.419 . S
C364 C360 1.391 . S
C364 C363 1.391 . S
C364 C365 1.399 . S
C365 C364 1.399 . S
C365 C368 1.396 . S
C365 C377 1.453 . S
C365 C378 1.684 . S
H366 C390 0.948 . S
C367 C363 1.397 . S
C367 C368 1.394 . S
C367 C386 1.723 . S
C368 C365 1.396 . S
C368 C367 1.394 . S
C368 C398 1.723 . S
H369 C392 0.947 . S
H370 C393 0.948 . S
H371 C399 0.982 . S
H372 C400 0.979 . S
H373 C400 0.980 . S
H374 C400 0.983 . S
H375 C399 0.979 . S
H376 C399 0.977 . S
C377 C365 1.453 . S
C377 H406 0.982 . S
C377 H407 0.979 . S
C377 H408 0.977 . S
C378 C365 1.684 . S
C378 H403 0.979 . S
C378 H404 0.980 . S
C378 H405 0.983 . S
C379 C380 1.391 . S
C379 C384 1.391 . S
C379 H409 0.948 . S
C380 C379 1.391 . S
C380 C381 1.391 . S
C381 C380 1.391 . S
C381 C382 1.392 . S
C381 H410 0.947 . S
C382 C381 1.392 . S
C382 C383 1.419 . S
C382 H411 0.948 . S
C383 C382 1.419 . S
C383 C384 1.391 . S
C383 C387 1.397 . S
C384 C379 1.391 . S
C384 C383 1.391 . S
C384 C385 1.399 . S
C385 C384 1.399 . S
C385 C386 1.396 . S
C385 C388 1.453 . S
C385 C389 1.684 . S
C386 C367 1.723 . S
C386 C385 1.396 . S
C386 C387 1.394 . S
C387 C383 1.397 . S
C387 C386 1.394 . S
C387 C397 1.723 . S
C388 C385 1.453 . S
C388 H412 0.982 . S
C388 H413 0.979 . S
C388 H414 0.977 . S
C389 C385 1.684 . S
C389 H415 0.979 . S
C389 H416 0.980 . S
C389 H417 0.983 . S
C390 H366 0.948 . S
C390 C391 1.391 . S
C390 C395 1.391 . S
C391 C390 1.391 . S
C391 C392 1.391 . S
C392 H369 0.947 . S
C392 C391 1.391 . S
C392 C393 1.392 . S
C393 H370 0.948 . S
C393 C392 1.392 . S
C393 C394 1.419 . S
C394 C393 1.419 . S
C394 C395 1.391 . S
C394 C398 1.397 . S
C395 C390 1.391 . S
C395 C394 1.391 . S
C395 C396 1.399 . S
C396 C395 1.399 . S
C396 C397 1.396 . S
C396 C399 1.453 . S
C396 C400 1.684 . S
C397 C387 1.723 . S
C397 C396 1.396 . S
C397 C398 1.394 . S
C398 C368 1.723 . S
C398 C394 1.397 . S
C398 C397 1.394 . S
C399 H371 0.982 . S
C399 H375 0.979 . S
C399 H376 0.977 . S
C399 C396 1.453 . S
C400 H372 0.979 . S
C400 H373 0.980 . S
C400 H374 0.983 . S
C400 C396 1.684 . S
H401 C419 0.948 . S
H402 C360 0.948 . S
H403 C378 0.979 . S
H404 C378 0.980 . S
H405 C378 0.983 . S
H406 C377 0.982 . S
H407 C377 0.979 . S
H408 C377 0.977 . S
H409 C379 0.948 . S
H410 C381 0.947 . S
H411 C382 0.948 . S
H412 C388 0.982 . S
H413 C388 0.979 . S
H414 C388 0.977 . S
H415 C389 0.979 . S
H416 C389 0.980 . S
H417 C389 0.983 . S
H418 C362 0.947 . S
C419 C362 1.392 . S
C419 C363 1.419 . S
C419 H401 0.948 . S
C420 C421 1.391 . S
C420 C424 1.391 . S
C420 H462 0.948 . S
C421 C420 1.391 . S
C421 C422 1.391 . S
C422 C421 1.391 . S
C422 H478 0.947 . S
C422 C479 1.392 . S
C423 C424 1.391 . S
C423 C427 1.397 . S
C423 C479 1.419 . S
C424 C420 1.391 . S
C424 C423 1.391 . S
C424 C425 1.399 . S
C425 C424 1.399 . S
C425 C428 1.396 . S
C425 C437 1.453 . S
C425 C438 1.684 . S
H426 C450 0.948 . S
C427 C423 1.397 . S
C427 C428 1.394 . S
C427 C446 1.723 . S
C428 C425 1.396 . S
C428 C427 1.394 . S
C428 C458 1.723 . S
H429 C452 0.947 . S
H430 C453 0.948 . S
H431 C459 0.982 . S
H432 C460 0.979 . S
H433 C460 0.980 . S
H434 C460 0.983 . S
H435 C459 0.979 . S
H436 C459 0.977 . S
C437 C425 1.453 . S
C437 H466 0.982 . S
C437 H467 0.979 . S
C437 H468 0.977 . S
C438 C425 1.684 . S
C438 H463 0.979 . S
C438 H464 0.980 . S
C438 H465 0.983 . S
C439 C440 1.391 . S
C439 C444 1.391 . S
C439 H469 0.948 . S
C440 C439 1.391 . S
C440 C441 1.391 . S
C441 C440 1.391 . S
C441 C442 1.392 . S
C441 H470 0.947 . S
C442 C441 1.392 . S
C442 C443 1.419 . S
C442 H471 0.948 . S
C443 C442 1.419 . S
C443 C444 1.391 . S
C443 C447 1.397 . S
C444 C439 1.391 . S
C444 C443 1.391 . S
C444 C445 1.399 . S
C445 C444 1.399 . S
C445 C446 1.396 . S
C445 C448 1.453 . S
C445 C449 1.684 . S
C446 C427 1.723 . S
C446 C445 1.396 . S
C446 C447 1.394 . S
C447 C443 1.397 . S
C447 C446 1.394 . S
C447 C457 1.723 . S
C448 C445 1.453 . S
C448 H472 0.982 . S
C448 H473 0.979 . S
C448 H474 0.977 . S
C449 C445 1.684 . S
C449 H475 0.979 . S
C449 H476 0.980 . S
C449 H477 0.983 . S
C450 H426 0.948 . S
C450 C451 1.391 . S
C450 C455 1.391 . S
C451 C450 1.391 . S
C451 C452 1.391 . S
C452 H429 0.947 . S
C452 C451 1.391 . S
C452 C453 1.392 . S
C453 H430 0.948 . S
C453 C452 1.392 . S
C453 C454 1.419 . S
C454 C453 1.419 . S
C454 C455 1.391 . S
C454 C458 1.397 . S
C455 C450 1.391 . S
C455 C454 1.391 . S
C455 C456 1.399 . S
C456 C455 1.399 . S
C456 C457 1.396 . S
C456 C459 1.453 . S
C456 C460 1.684 . S
C457 C447 1.723 . S
C457 C456 1.396 . S
C457 C458 1.394 . S
C458 C428 1.723 . S
C458 C454 1.397 . S
C458 C457 1.394 . S
C459 H431 0.982 . S
C459 H435 0.979 . S
C459 H436 0.977 . S
C459 C456 1.453 . S
C460 H432 0.979 . S
C460 H433 0.980 . S
C460 H434 0.983 . S
C460 C456 1.684 . S
H461 C479 0.948 . S
H462 C420 0.948 . S
H463 C438 0.979 . S
H464 C438 0.980 . S
H465 C438 0.983 . S
H466 C437 0.982 . S
H467 C437 0.979 . S
H468 C437 0.977 . S
H469 C439 0.948 . S
H470 C441 0.947 . S
H471 C442 0.948 . S
H472 C448 0.982 . S
H473 C448 0.979 . S
H474 C448 0.977 . S
H475 C449 0.979 . S
H476 C449 0.980 . S
H477 C449 0.983 . S
H478 C422 0.947 . S
C479 C422 1.392 . S
C479 C423 1.419 . S
C479 H461 0.948 . S
Eu480 N509 2.600 . S
Eu480 N515 2.562 . S
Eu480 O524 2.462 . S
Eu480 O525 2.373 . S
Eu480 O527 2.432 . S
Eu480 O528 2.291 . S
Eu480 O532 2.335 . S
Eu480 O535 2.372 . S
Eu480 C544 2.787 . S
C481 N482 1.365 . S
C481 C484 1.405 . S
C481 C488 1.448 . S
N482 C481 1.365 . S
N482 C485 1.319 . S
N482 Eu491 2.600 . S
C483 C485 1.397 . S
C483 C486 1.367 . S
C483 H503 0.931 . S
C484 C481 1.405 . S
C484 C486 1.403 . S
C484 C490 1.439 . S
C485 N482 1.319 . S
C485 C483 1.397 . S
C485 H496 0.930 . S
C486 C483 1.367 . S
C486 C484 1.403 . S
C486 H507 0.929 . S
C487 C488 1.430 . S
C487 C489 1.387 . S
C487 C493 1.404 . S
C488 C481 1.448 . S
C488 C487 1.430 . S
C488 N492 1.351 . S
C489 C487 1.387 . S
C489 C490 1.374 . S
C489 H504 0.931 . S
C490 C484 1.439 . S
C490 C489 1.374 . S
C490 H505 0.931 . S
Eu491 N482 2.600 . S
Eu491 N492 2.562 . S
Eu491 O526 2.320 1_655 S
Eu491 O529 2.372 . S
Eu491 O530 2.462 . S
Eu491 O531 2.373 . S
Eu491 O533 2.432 . S
Eu491 O534 2.291 1_655 S
Eu491 C555 2.787 . S
N492 C488 1.351 . S
N492 Eu491 2.562 . S
N492 C494 1.325 . S
C493 C487 1.404 . S
C493 C495 1.366 . S
C493 H501 0.930 . S
C494 N492 1.325 . S
C494 C495 1.416 . S
C494 H500 0.929 . S
C495 C493 1.366 . S
C495 C494 1.416 . S
C495 H497 0.930 . S
H496 C485 0.930 . S
H497 C495 0.930 . S
H498 C513 0.930 . S
H499 C520 0.930 . S
H500 C494 0.929 . S
H501 C493 0.930 . S
H502 C516 0.929 . S
H503 C483 0.931 . S
H504 C489 0.931 . S
H505 C490 0.931 . S
H506 C511 0.931 . S
H507 C486 0.929 . S
H508 C519 0.930 . S
N509 Eu480 2.600 . S
N509 C510 1.365 . S
N509 C513 1.319 . S
C510 N509 1.365 . S
C510 C512 1.405 . S
C510 C518 1.448 . S
C511 H506 0.931 . S
C511 C513 1.397 . S
C511 C514 1.367 . S
C512 C510 1.405 . S
C512 C514 1.403 . S
C512 C545 1.439 . S
C513 H498 0.930 . S
C513 N509 1.319 . S
C513 C511 1.397 . S
C514 C511 1.367 . S
C514 C512 1.403 . S
C514 H521 0.929 . S
N515 Eu480 2.562 . S
N515 C516 1.325 . S
N515 C518 1.351 . S
C516 H502 0.929 . S
C516 N515 1.325 . S
C516 C520 1.416 . S
C517 C518 1.430 . S
C517 C519 1.404 . S
C517 C546 1.387 . S
C518 C510 1.448 . S
C518 N515 1.351 . S
C518 C517 1.430 . S
C519 H508 0.930 . S
C519 C517 1.404 . S
C519 C520 1.366 . S
C520 H499 0.930 . S
C520 C516 1.416 . S
C520 C519 1.366 . S
H521 C514 0.929 . S
H522 C545 0.931 . S
H523 C546 0.931 . S
O524 Eu480 2.462 . S
O524 C544 1.252 . S
O525 Eu480 2.373 . S
O525 C536 1.249 . S
O526 Eu491 2.320 1_455 S
O526 C536 1.282 . S
O527 Eu480 2.432 . S
O527 C544 1.268 . S
O528 Eu480 2.291 . S
O528 C543 1.255 1_455 S
O529 Eu491 2.372 . S
O529 C543 1.257 . S
O530 Eu491 2.462 . S
O530 C555 1.252 . S
O531 Eu491 2.373 . S
O531 C547 1.249 . S
O532 Eu480 2.335 . S
O532 C547 1.264 1_455 S
O533 Eu491 2.432 . S
O533 C555 1.268 . S
O534 Eu491 2.291 1_455 S
O534 C554 1.255 . S
O535 Eu480 2.372 . S
O535 C554 1.257 . S
C536 O525 1.249 . S
C536 O526 1.282 . S
C537 C540 1.382 . S
C537 C542 1.390 . S
C537 C544 1.506 . S
C538 C539 1.398 . S
C538 C542 1.392 . S
C539 C538 1.398 . S
C539 C541 1.372 . S
C539 H556 0.931 . S
C540 C537 1.382 . S
C540 C541 1.390 . S
C540 H557 0.931 . S
C541 C539 1.372 . S
C541 C540 1.390 . S
C541 H558 0.929 . S
C542 C537 1.390 . S
C542 C538 1.392 . S
C542 H559 0.930 . S
C543 O528 1.255 1_655 S
C543 O529 1.257 . S
C544 Eu480 2.787 . S
C544 O524 1.252 . S
C544 O527 1.268 . S
C544 C537 1.506 . S
C545 C512 1.439 . S
C545 H522 0.931 . S
C545 C546 1.374 . S
C546 C517 1.387 . S
C546 H523 0.931 . S
C546 C545 1.374 . S
C547 O531 1.249 . S
C547 O532 1.264 1_655 S
C548 C551 1.382 . S
C548 C552 1.390 . S
C548 C555 1.506 . S
C549 C550 1.398 . S
C549 C552 1.392 . S
C550 C549 1.398 . S
C550 C553 1.372 . S
C550 H560 0.931 . S
C551 C548 1.382 . S
C551 C553 1.390 . S
C551 H561 0.931 . S
C552 C548 1.390 . S
C552 C549 1.392 . S
C552 H562 0.930 . S
C553 C550 1.372 . S
C553 C551 1.390 . S
C553 H563 0.929 . S
C554 O534 1.255 . S
C554 O535 1.257 . S
C555 Eu491 2.787 . S
C555 O530 1.252 . S
C555 O533 1.268 . S
C555 C548 1.506 . S
H556 C539 0.931 . S
H557 C540 0.931 . S
H558 C541 0.929 . S
H559 C542 0.930 . S
H560 C550 0.931 . S
H561 C551 0.931 . S
H562 C552 0.930 . S
H563 C553 0.929 . S
Eu564 N593 2.600 . S
Eu564 N599 2.562 . S
Eu564 O608 2.462 . S
Eu564 O609 2.373 . S
Eu564 O611 2.432 . S
Eu564 O612 2.291 . S
Eu564 O616 2.335 . S
Eu564 O619 2.372 . S
Eu564 C628 2.787 . S
C565 N566 1.365 . S
C565 C568 1.405 . S
C565 C572 1.448 . S
N566 C565 1.365 . S
N566 C569 1.319 . S
N566 Eu575 2.600 . S
C567 C569 1.397 . S
C567 C570 1.367 . S
C567 H587 0.931 . S
C568 C565 1.405 . S
C568 C570 1.403 . S
C568 C574 1.439 . S
C569 N566 1.319 . S
C569 C567 1.397 . S
C569 H580 0.930 . S
C570 C567 1.367 . S
C570 C568 1.403 . S
C570 H591 0.929 . S
C571 C572 1.430 . S
C571 C573 1.387 . S
C571 C577 1.404 . S
C572 C565 1.448 . S
C572 C571 1.430 . S
C572 N576 1.351 . S
C573 C571 1.387 . S
C573 C574 1.374 . S
C573 H588 0.931 . S
C574 C568 1.439 . S
C574 C573 1.374 . S
C574 H589 0.931 . S
Eu575 N566 2.600 . S
Eu575 N576 2.562 . S
Eu575 O610 2.335 . S
Eu575 O613 2.372 . S
Eu575 O614 2.462 . S
Eu575 O615 2.373 . S
Eu575 O617 2.432 . S
Eu575 O618 2.291 . S
Eu575 C639 2.787 . S
N576 C572 1.351 . S
N576 Eu575 2.562 . S
N576 C578 1.325 . S
C577 C571 1.404 . S
C577 C579 1.366 . S
C577 H585 0.930 . S
C578 N576 1.325 . S
C578 C579 1.416 . S
C578 H584 0.929 . S
C579 C577 1.366 . S
C579 C578 1.416 . S
C579 H581 0.930 . S
H580 C569 0.930 . S
H581 C579 0.930 . S
H582 C597 0.930 . S
H583 C604 0.930 . S
H584 C578 0.929 . S
H585 C577 0.930 . S
H586 C600 0.929 . S
H587 C567 0.931 . S
H588 C573 0.931 . S
H589 C574 0.931 . S
H590 C595 0.931 . S
H591 C570 0.929 . S
H592 C603 0.930 . S
N593 Eu564 2.600 . S
N593 C594 1.365 . S
N593 C597 1.319 . S
C594 N593 1.365 . S
C594 C596 1.405 . S
C594 C602 1.448 . S
C595 H590 0.931 . S
C595 C597 1.397 . S
C595 C598 1.367 . S
C596 C594 1.405 . S
C596 C598 1.403 . S
C596 C629 1.439 . S
C597 H582 0.930 . S
C597 N593 1.319 . S
C597 C595 1.397 . S
C598 C595 1.367 . S
C598 C596 1.403 . S
C598 H605 0.929 . S
N599 Eu564 2.562 . S
N599 C600 1.325 . S
N599 C602 1.351 . S
C600 H586 0.929 . S
C600 N599 1.325 . S
C600 C604 1.416 . S
C601 C602 1.430 . S
C601 C603 1.404 . S
C601 C630 1.387 . S
C602 C594 1.448 . S
C602 N599 1.351 . S
C602 C601 1.430 . S
C603 H592 0.930 . S
C603 C601 1.404 . S
C603 C604 1.366 . S
C604 H583 0.930 . S
C604 C600 1.416 . S
C604 C603 1.366 . S
H605 C598 0.929 . S
H606 C629 0.931 . S
H607 C630 0.931 . S
O608 Eu564 2.462 . S
O608 C628 1.252 . S
O609 Eu564 2.373 . S
O609 C620 1.249 . S
O610 Eu575 2.335 . S
O610 C620 1.264 . S
O611 Eu564 2.432 . S
O611 C628 1.268 . S
O612 Eu564 2.291 . S
O612 C627 1.255 . S
O613 Eu575 2.372 . S
O613 C627 1.257 . S
O614 Eu575 2.462 . S
O614 C639 1.252 . S
O615 Eu575 2.373 . S
O615 C631 1.249 . S
O616 Eu564 2.335 . S
O616 C631 1.264 . S
O617 Eu575 2.432 . S
O617 C639 1.268 . S
O618 Eu575 2.291 . S
O618 C638 1.255 . S
O619 Eu564 2.372 . S
O619 C638 1.257 . S
C620 O609 1.249 . S
C620 O610 1.264 . S
C621 C624 1.382 . S
C621 C626 1.390 . S
C621 C628 1.506 . S
C622 C623 1.398 . S
C622 C626 1.392 . S
C623 C622 1.398 . S
C623 C625 1.372 . S
C623 H640 0.931 . S
C624 C621 1.382 . S
C624 C625 1.390 . S
C624 H641 0.931 . S
C625 C623 1.372 . S
C625 C624 1.390 . S
C625 H642 0.929 . S
C626 C621 1.390 . S
C626 C622 1.392 . S
C626 H643 0.930 . S
C627 O612 1.255 . S
C627 O613 1.257 . S
C628 Eu564 2.787 . S
C628 O608 1.252 . S
C628 O611 1.268 . S
C628 C621 1.506 . S
C629 C596 1.439 . S
C629 H606 0.931 . S
C629 C630 1.374 . S
C630 C601 1.387 . S
C630 H607 0.931 . S
C630 C629 1.374 . S
C631 O615 1.249 . S
C631 O616 1.264 . S
C632 C635 1.382 . S
C632 C636 1.390 . S
C632 C639 1.506 . S
C633 C634 1.398 . S
C633 C636 1.392 . S
C634 C633 1.398 . S
C634 C637 1.372 . S
C634 H644 0.931 . S
C635 C632 1.382 . S
C635 C637 1.390 . S
C635 H645 0.931 . S
C636 C632 1.390 . S
C636 C633 1.392 . S
C636 H646 0.930 . S
C637 C634 1.372 . S
C637 C635 1.390 . S
C637 H647 0.929 . S
C638 O618 1.255 . S
C638 O619 1.257 . S
C639 Eu575 2.787 . S
C639 O614 1.252 . S
C639 O617 1.268 . S
C639 C632 1.506 . S
H640 C623 0.931 . S
H641 C624 0.931 . S
H642 C625 0.929 . S
H643 C626 0.930 . S
H644 C634 0.931 . S
H645 C635 0.931 . S
H646 C636 0.930 . S
H647 C637 0.929 . S
Eu648 N677 2.600 . S
Eu648 N683 2.562 . S
Eu648 O692 2.462 . S
Eu648 O693 2.373 . S
Eu648 O695 2.432 . S
Eu648 O696 2.291 . S
Eu648 O700 2.335 . S
Eu648 O703 2.372 . S
Eu648 C712 2.787 . S
C649 N650 1.365 . S
C649 C652 1.405 . S
C649 C656 1.448 . S
N650 C649 1.365 . S
N650 C653 1.319 . S
N650 Eu659 2.600 . S
C651 C653 1.397 . S
C651 C654 1.367 . S
C651 H671 0.931 . S
C652 C649 1.405 . S
C652 C654 1.403 . S
C652 C658 1.439 . S
C653 N650 1.319 . S
C653 C651 1.397 . S
C653 H664 0.930 . S
C654 C651 1.367 . S
C654 C652 1.403 . S
C654 H675 0.929 . S
C655 C656 1.430 . S
C655 C657 1.387 . S
C655 C661 1.404 . S
C656 C649 1.448 . S
C656 C655 1.430 . S
C656 N660 1.351 . S
C657 C655 1.387 . S
C657 C658 1.374 . S
C657 H672 0.931 . S
C658 C652 1.439 . S
C658 C657 1.374 . S
C658 H673 0.931 . S
Eu659 N650 2.600 . S
Eu659 N660 2.562 . S
Eu659 O694 2.335 1_655 S
Eu659 O697 2.372 . S
Eu659 O698 2.462 . S
Eu659 O699 2.373 . S
Eu659 O701 2.432 . S
Eu659 O702 2.291 1_655 S
Eu659 C723 2.787 . S
N660 C656 1.351 . S
N660 Eu659 2.562 . S
N660 C662 1.325 . S
C661 C655 1.404 . S
C661 C663 1.366 . S
C661 H669 0.930 . S
C662 N660 1.325 . S
C662 C663 1.416 . S
C662 H668 0.929 . S
C663 C661 1.366 . S
C663 C662 1.416 . S
C663 H665 0.930 . S
H664 C653 0.930 . S
H665 C663 0.930 . S
H666 C681 0.930 . S
H667 C688 0.930 . S
H668 C662 0.929 . S
H669 C661 0.930 . S
H670 C684 0.929 . S
H671 C651 0.931 . S
H672 C657 0.931 . S
H673 C658 0.931 . S
H674 C679 0.931 . S
H675 C654 0.929 . S
H676 C687 0.930 . S
N677 Eu648 2.600 . S
N677 C678 1.365 . S
N677 C681 1.319 . S
C678 N677 1.365 . S
C678 C680 1.405 . S
C678 C686 1.448 . S
C679 H674 0.931 . S
C679 C681 1.397 . S
C679 C682 1.367 . S
C680 C678 1.405 . S
C680 C682 1.403 . S
C680 C713 1.439 . S
C681 H666 0.930 . S
C681 N677 1.319 . S
C681 C679 1.397 . S
C682 C679 1.367 . S
C682 C680 1.403 . S
C682 H689 0.929 . S
N683 Eu648 2.562 . S
N683 C684 1.325 . S
N683 C686 1.351 . S
C684 H670 0.929 . S
C684 N683 1.325 . S
C684 C688 1.416 . S
C685 C686 1.430 . S
C685 C687 1.404 . S
C685 C714 1.387 . S
C686 C678 1.448 . S
C686 N683 1.351 . S
C686 C685 1.430 . S
C687 H676 0.930 . S
C687 C685 1.404 . S
C687 C688 1.366 . S
C688 H667 0.930 . S
C688 C684 1.416 . S
C688 C687 1.366 . S
H689 C682 0.929 . S
H690 C713 0.931 . S
H691 C714 0.931 . S
O692 Eu648 2.462 . S
O692 C712 1.252 . S
O693 Eu648 2.373 . S
O693 C704 1.249 . S
O694 Eu659 2.335 1_455 S
O694 C704 1.264 . S
O695 Eu648 2.432 . S
O695 C712 1.268 . S
O696 Eu648 2.291 . S
O696 C711 1.255 1_455 S
O697 Eu659 2.372 . S
O697 C711 1.257 . S
O698 Eu659 2.462 . S
O698 C723 1.252 . S
O699 Eu659 2.373 . S
O699 C715 1.249 . S
O700 Eu648 2.335 . S
O700 C715 1.264 1_455 S
O701 Eu659 2.432 . S
O701 C723 1.268 . S
O702 Eu659 2.291 1_455 S
O702 C722 1.255 . S
O703 Eu648 2.372 . S
O703 C722 1.257 . S
C704 O693 1.249 . S
C704 O694 1.264 . S
C705 C708 1.382 . S
C705 C710 1.390 . S
C705 C712 1.506 . S
C706 C707 1.398 . S
C706 C710 1.392 . S
C707 C706 1.398 . S
C707 C709 1.372 . S
C707 H724 0.931 . S
C708 C705 1.382 . S
C708 C709 1.390 . S
C708 H725 0.931 . S
C709 C707 1.372 . S
C709 C708 1.390 . S
C709 H726 0.929 . S
C710 C705 1.390 . S
C710 C706 1.392 . S
C710 H727 0.930 . S
C711 O696 1.255 1_655 S
C711 O697 1.257 . S
C712 Eu648 2.787 . S
C712 O692 1.252 . S
C712 O695 1.268 . S
C712 C705 1.506 . S
C713 C680 1.439 . S
C713 H690 0.931 . S
C713 C714 1.374 . S
C714 C685 1.387 . S
C714 H691 0.931 . S
C714 C713 1.374 . S
C715 O699 1.249 . S
C715 O700 1.264 1_655 S
C716 C719 1.382 . S
C716 C720 1.390 . S
C716 C723 1.506 . S
C717 C718 1.398 . S
C717 C720 1.392 . S
C718 C717 1.398 . S
C718 C721 1.372 . S
C718 H728 0.931 . S
C719 C716 1.382 . S
C719 C721 1.390 . S
C719 H729 0.931 . S
C720 C716 1.390 . S
C720 C717 1.392 . S
C720 H730 0.930 . S
C721 C718 1.372 . S
C721 C719 1.390 . S
C721 H731 0.929 . S
C722 O702 1.255 . S
C722 O703 1.257 . S
C723 Eu659 2.787 . S
C723 O698 1.252 . S
C723 O701 1.268 . S
C723 C716 1.506 . S
H724 C707 0.931 . S
H725 C708 0.931 . S
H726 C709 0.929 . S
H727 C710 0.930 . S
H728 C718 0.931 . S
H729 C719 0.931 . S
H730 C720 0.930 . S
H731 C721 0.929 . S
Eu732 N761 2.600 . S
Eu732 N767 2.562 . S
Eu732 O776 2.462 . S
Eu732 O777 2.373 . S
Eu732 O779 2.432 . S
Eu732 O780 2.291 . S
Eu732 O784 2.335 . S
Eu732 O787 2.372 . S
Eu732 C796 2.787 . S
C733 N734 1.365 . S
C733 C736 1.405 . S
C733 C740 1.448 . S
N734 C733 1.365 . S
N734 C737 1.319 . S
N734 Eu743 2.600 . S
C735 C737 1.397 . S
C735 C738 1.367 . S
C735 H755 0.931 . S
C736 C733 1.405 . S
C736 C738 1.403 . S
C736 C742 1.439 . S
C737 N734 1.319 . S
C737 C735 1.397 . S
C737 H748 0.930 . S
C738 C735 1.367 . S
C738 C736 1.403 . S
C738 H759 0.929 . S
C739 C740 1.430 . S
C739 C741 1.387 . S
C739 C745 1.404 . S
C740 C733 1.448 . S
C740 C739 1.430 . S
C740 N744 1.351 . S
C741 C739 1.387 . S
C741 C742 1.374 . S
C741 H756 0.931 . S
C742 C736 1.439 . S
C742 C741 1.374 . S
C742 H757 0.931 . S
Eu743 N734 2.600 . S
Eu743 N744 2.562 . S
Eu743 O778 2.335 . S
Eu743 O781 2.372 . S
Eu743 O782 2.462 . S
Eu743 O783 2.373 . S
Eu743 O785 2.432 . S
Eu743 O786 2.291 . S
Eu743 C807 2.787 . S
N744 C740 1.351 . S
N744 Eu743 2.562 . S
N744 C746 1.325 . S
C745 C739 1.404 . S
C745 C747 1.366 . S
C745 H753 0.930 . S
C746 N744 1.325 . S
C746 C747 1.416 . S
C746 H752 0.929 . S
C747 C745 1.366 . S
C747 C746 1.416 . S
C747 H749 0.930 . S
H748 C737 0.930 . S
H749 C747 0.930 . S
H750 C765 0.930 . S
H751 C772 0.930 . S
H752 C746 0.929 . S
H753 C745 0.930 . S
H754 C768 0.929 . S
H755 C735 0.931 . S
H756 C741 0.931 . S
H757 C742 0.931 . S
H758 C763 0.931 . S
H759 C738 0.929 . S
H760 C771 0.930 . S
N761 Eu732 2.600 . S
N761 C762 1.365 . S
N761 C765 1.319 . S
C762 N761 1.365 . S
C762 C764 1.405 . S
C762 C770 1.448 . S
C763 H758 0.931 . S
C763 C765 1.397 . S
C763 C766 1.367 . S
C764 C762 1.405 . S
C764 C766 1.403 . S
C764 C797 1.439 . S
C765 H750 0.930 . S
C765 N761 1.319 . S
C765 C763 1.397 . S
C766 C763 1.367 . S
C766 C764 1.403 . S
C766 H773 0.929 . S
N767 Eu732 2.562 . S
N767 C768 1.325 . S
N767 C770 1.351 . S
C768 H754 0.929 . S
C768 N767 1.325 . S
C768 C772 1.416 . S
C769 C770 1.430 . S
C769 C771 1.404 . S
C769 C798 1.387 . S
C770 C762 1.448 . S
C770 N767 1.351 . S
C770 C769 1.430 . S
C771 H760 0.930 . S
C771 C769 1.404 . S
C771 C772 1.366 . S
C772 H751 0.930 . S
C772 C768 1.416 . S
C772 C771 1.366 . S
H773 C766 0.929 . S
H774 C797 0.931 . S
H775 C798 0.931 . S
O776 Eu732 2.462 . S
O776 C796 1.252 . S
O777 Eu732 2.373 . S
O777 C788 1.249 . S
O778 Eu743 2.335 . S
O778 C788 1.264 . S
O779 Eu732 2.432 . S
O779 C796 1.268 . S
O780 Eu732 2.291 . S
O780 C795 1.255 . S
O781 Eu743 2.372 . S
O781 C795 1.257 . S
O782 Eu743 2.462 . S
O782 C807 1.252 . S
O783 Eu743 2.373 . S
O783 C799 1.249 . S
O784 Eu732 2.335 . S
O784 C799 1.264 . S
O785 Eu743 2.432 . S
O785 C807 1.268 . S
O786 Eu743 2.291 . S
O786 C806 1.255 . S
O787 Eu732 2.372 . S
O787 C806 1.257 . S
C788 O777 1.249 . S
C788 O778 1.264 . S
C789 C792 1.382 . S
C789 C794 1.390 . S
C789 C796 1.506 . S
C790 C791 1.398 . S
C790 C794 1.392 . S
C791 C790 1.398 . S
C791 C793 1.372 . S
C791 H808 0.931 . S
C792 C789 1.382 . S
C792 C793 1.390 . S
C792 H809 0.931 . S
C793 C791 1.372 . S
C793 C792 1.390 . S
C793 H810 0.929 . S
C794 C789 1.390 . S
C794 C790 1.392 . S
C794 H811 0.930 . S
C795 O780 1.255 . S
C795 O781 1.257 . S
C796 Eu732 2.787 . S
C796 O776 1.252 . S
C796 O779 1.268 . S
C796 C789 1.506 . S
C797 C764 1.439 . S
C797 H774 0.931 . S
C797 C798 1.374 . S
C798 C769 1.387 . S
C798 H775 0.931 . S
C798 C797 1.374 . S
C799 O783 1.249 . S
C799 O784 1.264 . S
C800 C803 1.382 . S
C800 C804 1.390 . S
C800 C807 1.506 . S
C801 C802 1.398 . S
C801 C804 1.392 . S
C802 C801 1.398 . S
C802 C805 1.372 . S
C802 H812 0.931 . S
C803 C800 1.382 . S
C803 C805 1.390 . S
C803 H813 0.931 . S
C804 C800 1.390 . S
C804 C801 1.392 . S
C804 H814 0.930 . S
C805 C802 1.372 . S
C805 C803 1.390 . S
C805 H815 0.929 . S
C806 O786 1.255 . S
C806 O787 1.257 . S
C807 Eu743 2.787 . S
C807 O782 1.252 . S
C807 O785 1.268 . S
C807 C800 1.506 . S
H808 C791 0.931 . S
H809 C792 0.931 . S
H810 C793 0.929 . S
H811 C794 0.930 . S
H812 C802 0.931 . S
H813 C803 0.931 . S
H814 C804 0.930 . S
H815 C805 0.929 . S
C816 C817 1.391 1_545 S
C816 C818 1.394 . S
C816 H832 0.931 . S
C817 C816 1.391 1_565 S
C817 C821 1.376 . S
C818 C816 1.394 . S
C818 C819 1.369 . S
C818 C822 1.531 . S
C819 C818 1.369 . S
C819 C820 1.410 . S
C819 C827 1.503 . S
C820 C819 1.410 . S
C820 C821 1.392 1_545 S
C820 C823 1.511 . S
C821 C817 1.376 . S
C821 C820 1.392 1_565 S
C821 H833 0.929 . S
C822 C818 1.531 . S
C822 H834 0.960 . S
C822 H835 0.962 . S
C822 H836 0.960 . S
C823 C820 1.511 . S
C823 H837 0.961 1_545 S
C823 H838 0.961 . S
C823 H839 0.961 . S
C824 C825 1.370 . S
C824 C826 1.363 . S
C824 H840 0.931 . S
C825 C824 1.370 . S
C825 C829 1.408 . S
C826 C824 1.363 . S
C826 C827 1.370 . S
C826 C830 1.524 . S
C827 C819 1.503 . S
C827 C826 1.370 . S
C827 C828 1.403 . S
C828 C827 1.403 . S
C828 C829 1.404 . S
C828 C831 1.539 . S
C829 C825 1.408 . S
C829 C828 1.404 . S
C829 H841 0.930 . S
C830 C826 1.524 . S
C830 H842 0.956 . S
C830 H843 0.961 . S
C830 H844 0.984 . S
C831 C828 1.539 . S
C831 H845 0.958 . S
C831 H846 0.961 . S
C831 H847 0.960 . S
H832 C816 0.931 . S
H833 C821 0.929 . S
H834 C822 0.960 . S
H835 C822 0.962 . S
H836 C822 0.960 . S
H837 C823 0.961 1_565 S
H838 C823 0.961 . S
H839 C823 0.961 . S
H840 C824 0.931 . S
H841 C829 0.930 . S
H842 C830 0.956 . S
H843 C830 0.961 . S
H844 C830 0.984 . S
H845 C831 0.958 . S
H846 C831 0.961 . S
H847 C831 0.960 . S
C848 C849 1.391 . S
C848 C850 1.394 . S
C848 H864 0.931 . S
C849 C848 1.391 . S
C849 C853 1.376 . S
C850 C848 1.394 . S
C850 C851 1.369 . S
C850 C854 1.531 . S
C851 C850 1.369 . S
C851 C852 1.410 . S
C851 C859 1.503 . S
C852 C851 1.410 . S
C852 C853 1.392 . S
C852 C855 1.511 . S
C853 C849 1.376 . S
C853 C852 1.392 . S
C853 H865 0.929 . S
C854 C850 1.531 . S
C854 H866 0.960 . S
C854 H867 0.962 . S
C854 H868 0.960 . S
C855 C852 1.511 . S
C855 H869 0.961 . S
C855 H870 0.961 . S
C855 H871 0.961 . S
C856 C857 1.370 . S
C856 C858 1.363 . S
C856 H872 0.931 . S
C857 C856 1.370 . S
C857 C861 1.408 . S
C858 C856 1.363 . S
C858 C859 1.370 . S
C858 C862 1.524 . S
C859 C851 1.503 . S
C859 C858 1.370 . S
C859 C860 1.403 . S
C860 C859 1.403 . S
C860 C861 1.404 . S
C860 C863 1.539 . S
C861 C857 1.408 . S
C861 C860 1.404 . S
C861 H873 0.930 . S
C862 C858 1.524 . S
C862 H874 0.956 . S
C862 H875 0.961 . S
C862 H876 0.961 . S
C863 C860 1.539 . S
C863 H877 0.958 . S
C863 H878 0.961 . S
C863 H879 0.960 . S
H864 C848 0.931 . S
H865 C853 0.929 . S
H866 C854 0.960 . S
H867 C854 0.962 . S
H868 C854 0.960 . S
H869 C855 0.961 . S
H870 C855 0.961 . S
H871 C855 0.961 . S
H872 C856 0.931 . S
H873 C861 0.930 . S
H874 C862 0.956 . S
H875 C862 0.961 . S
H876 C862 0.961 . S
H877 C863 0.958 . S
H878 C863 0.961 . S
H879 C863 0.960 . S
C880 C881 1.391 . S
C880 C882 1.394 . S
C880 H896 0.931 . S
C881 C880 1.391 . S
C881 C885 1.376 . S
C882 C880 1.394 . S
C882 C883 1.369 . S
C882 C886 1.531 . S
C883 C882 1.369 . S
C883 C884 1.410 . S
C883 C891 1.503 . S
C884 C883 1.410 . S
C884 C885 1.392 . S
C884 C887 1.511 . S
C885 C881 1.376 . S
C885 C884 1.392 . S
C885 H897 0.929 . S
C886 C882 1.531 . S
C886 H898 0.960 . S
C886 H899 0.962 . S
C886 H900 0.960 . S
C887 C884 1.511 . S
C887 H901 0.961 . S
C887 H902 0.961 . S
C887 H903 0.961 . S
C888 C889 1.370 . S
C888 C890 1.363 . S
C888 H904 0.931 . S
C889 C888 1.370 . S
C889 C893 1.408 . S
C890 C888 1.363 . S
C890 C891 1.370 . S
C890 C894 1.524 . S
C891 C883 1.503 . S
C891 C890 1.370 . S
C891 C892 1.403 . S
C892 C891 1.403 . S
C892 C893 1.404 . S
C892 C895 1.539 . S
C893 C889 1.408 . S
C893 C892 1.404 . S
C893 H905 0.930 . S
C894 C890 1.524 . S
C894 H906 0.956 . S
C894 H907 0.961 . S
C894 H908 0.961 . S
C895 C892 1.539 . S
C895 H909 0.958 . S
C895 H910 0.961 . S
C895 H911 0.960 . S
H896 C880 0.931 . S
H897 C885 0.929 . S
H898 C886 0.960 . S
H899 C886 0.962 . S
H900 C886 0.960 . S
H901 C887 0.961 . S
H902 C887 0.961 . S
H903 C887 0.961 . S
H904 C888 0.931 . S
H905 C893 0.930 . S
H906 C894 0.956 . S
H907 C894 0.961 . S
H908 C894 0.961 . S
H909 C895 0.958 . S
H910 C895 0.961 . S
H911 C895 0.960 . S
C912 C913 1.391 1_545 S
C912 C914 1.394 . S
C912 H928 0.931 . S
C913 C912 1.391 1_565 S
C913 C917 1.376 . S
C914 C912 1.394 . S
C914 C915 1.369 . S
C914 C918 1.531 . S
C915 C914 1.369 . S
C915 C916 1.410 . S
C915 C923 1.503 . S
C916 C915 1.410 . S
C916 C917 1.392 1_545 S
C916 C919 1.511 1_545 S
C917 C913 1.376 . S
C917 C916 1.392 1_565 S
C917 H929 0.929 . S
C918 C914 1.531 . S
C918 H930 0.960 . S
C918 H931 0.962 . S
C918 H932 0.960 . S
C919 C916 1.511 1_565 S
C919 H933 0.961 . S
C919 H934 0.961 1_565 S
C919 H935 0.961 . S
C920 C921 1.370 . S
C920 C922 1.363 . S
C920 H936 0.931 . S
C921 C920 1.370 . S
C921 C925 1.408 . S
C922 C920 1.363 . S
C922 C923 1.370 . S
C922 C926 1.524 . S
C923 C915 1.503 . S
C923 C922 1.370 . S
C923 C924 1.403 . S
C924 C923 1.403 . S
C924 C925 1.404 . S
C924 C927 1.539 . S
C925 C921 1.408 . S
C925 C924 1.404 . S
C925 H937 0.930 . S
C926 C922 1.524 . S
C926 H938 0.956 . S
C926 H939 0.961 . S
C926 H940 0.961 . S
C927 C924 1.539 . S
C927 H941 0.958 . S
C927 H942 0.961 . S
C927 H943 0.960 . S
H928 C912 0.931 . S
H929 C917 0.929 . S
H930 C918 0.960 . S
H931 C918 0.962 . S
H932 C918 0.960 . S
H933 C919 0.961 . S
H934 C919 0.961 1_545 S
H935 C919 0.961 . S
H936 C920 0.931 . S
H937 C925 0.930 . S
H938 C926 0.956 . S
H939 C926 0.961 . S
H940 C926 0.961 . S
H941 C927 0.958 . S
H942 C927 0.961 . S
H943 C927 0.960 . S
C944 C945 1.391 . S
C944 C946 1.394 1_545 S
C944 H960 0.931 . S
C945 C944 1.391 . S
C945 C949 1.376 1_545 S
C946 C944 1.394 1_565 S
C946 C947 1.369 . S
C946 C950 1.531 . S
C947 C946 1.369 . S
C947 C948 1.410 . S
C947 C955 1.503 . S
C948 C947 1.410 . S
C948 C949 1.392 . S
C948 C951 1.511 . S
C949 C945 1.376 1_565 S
C949 C948 1.392 . S
C949 H961 0.929 . S
C950 C946 1.531 . S
C950 H962 0.960 . S
C950 H963 0.962 . S
C950 H964 0.960 1_565 S
C951 C948 1.511 . S
C951 H965 0.961 . S
C951 H966 0.961 . S
C951 H967 0.961 . S
C952 C953 1.370 . S
C952 C954 1.363 . S
C952 H968 0.931 . S
C953 C952 1.370 . S
C953 C957 1.408 . S
C954 C952 1.363 . S
C954 C955 1.370 . S
C954 C958 1.524 . S
C955 C947 1.503 . S
C955 C954 1.370 . S
C955 C956 1.403 . S
C956 C955 1.403 . S
C956 C957 1.404 . S
C956 C959 1.539 . S
C957 C953 1.408 . S
C957 C956 1.404 . S
C957 H969 0.930 . S
C958 C954 1.524 . S
C958 H970 0.956 . S
C958 H971 0.961 . S
C958 H972 0.961 . S
C959 C956 1.539 . S
C959 H973 0.958 . S
C959 H974 0.961 . S
C959 H975 0.960 . S
H960 C944 0.931 . S
H961 C949 0.929 . S
H962 C950 0.960 . S
H963 C950 0.962 . S
H964 C950 0.960 1_545 S
H965 C951 0.961 . S
H966 C951 0.961 . S
H967 C951 0.961 . S
H968 C952 0.931 . S
H969 C957 0.930 . S
H970 C958 0.956 . S
H971 C958 0.961 . S
H972 C958 0.961 . S
H973 C959 0.958 . S
H974 C959 0.961 . S
H975 C959 0.960 . S
C976 C977 1.391 . S
C976 C978 1.394 . S
C976 H992 0.931 . S
C977 C976 1.391 . S
C977 C981 1.376 . S
C978 C976 1.394 . S
C978 C979 1.369 . S
C978 C982 1.531 . S
C979 C978 1.369 . S
C979 C980 1.410 . S
C979 C987 1.503 . S
C980 C979 1.410 . S
C980 C981 1.392 . S
C980 C983 1.511 . S
C981 C977 1.376 . S
C981 C980 1.392 . S
C981 H993 0.929 . S
C982 C978 1.531 . S
C982 H994 0.960 . S
C982 H995 0.962 . S
C982 H996 0.960 . S
C983 C980 1.511 . S
C983 H997 0.961 . S
C983 H998 0.961 . S
C983 H999 0.961 . S
C984 C985 1.370 . S
C984 C986 1.363 . S
C984 H1000 0.931 . S
C985 C984 1.370 . S
C985 C989 1.408 . S
C986 C984 1.363 . S
C986 C987 1.370 . S
C986 C990 1.524 . S
C987 C979 1.503 . S
C987 C986 1.370 . S
C987 C988 1.403 . S
C988 C987 1.403 . S
C988 C989 1.404 . S
C988 C991 1.539 . S
C989 C985 1.408 . S
C989 C988 1.404 . S
C989 H1001 0.930 . S
C990 C986 1.524 . S
C990 H1002 0.956 . S
C990 H1003 0.961 . S
C990 H1004 0.961 . S
C991 C988 1.539 . S
C991 H1005 0.958 . S
C991 H1006 0.961 . S
C991 H1007 0.960 . S
H992 C976 0.931 . S
H993 C981 0.929 . S
H994 C982 0.960 . S
H995 C982 0.962 . S
H996 C982 0.960 . S
H997 C983 0.961 . S
H998 C983 0.961 . S
H999 C983 0.961 . S
H1000 C984 0.931 . S
H1001 C989 0.930 . S
H1002 C990 0.956 . S
H1003 C990 0.961 . S
H1004 C990 0.961 . S
H1005 C991 0.958 . S
H1006 C991 0.961 . S
H1007 C991 0.960 . S
C1008 C1009 1.391 . S
C1008 C1010 1.394 . S
C1008 H1024 0.931 . S
C1009 C1008 1.391 . S
C1009 C1013 1.376 . S
C1010 C1008 1.394 . S
C1010 C1011 1.369 . S
C1010 C1014 1.531 . S
C1011 C1010 1.369 . S
C1011 C1012 1.410 . S
C1011 C1019 1.503 . S
C1012 C1011 1.410 . S
C1012 C1013 1.392 . S
C1012 C1015 1.511 . S
C1013 C1009 1.376 . S
C1013 C1012 1.392 . S
C1013 H1025 0.929 . S
C1014 C1010 1.531 . S
C1014 H1026 0.960 . S
C1014 H1027 0.962 . S
C1014 H1028 0.960 . S
C1015 C1012 1.511 . S
C1015 H1029 0.961 . S
C1015 H1030 0.961 . S
C1015 H1031 0.961 . S
C1016 C1017 1.370 . S
C1016 C1018 1.363 . S
C1016 H1032 0.931 . S
C1017 C1016 1.370 . S
C1017 C1021 1.408 . S
C1018 C1016 1.363 . S
C1018 C1019 1.370 . S
C1018 C1022 1.524 . S
C1019 C1011 1.503 . S
C1019 C1018 1.370 . S
C1019 C1020 1.403 . S
C1020 C1019 1.403 . S
C1020 C1021 1.404 . S
C1020 C1023 1.539 . S
C1021 C1017 1.408 . S
C1021 C1020 1.404 . S
C1021 H1033 0.930 . S
C1022 C1018 1.524 . S
C1022 H1034 0.956 . S
C1022 H1035 0.961 . S
C1022 H1036 0.961 . S
C1023 C1020 1.539 . S
C1023 H1037 0.958 . S
C1023 H1038 0.961 . S
C1023 H1039 0.960 . S
H1024 C1008 0.931 . S
H1025 C1013 0.929 . S
H1026 C1014 0.960 . S
H1027 C1014 0.962 . S
H1028 C1014 0.960 . S
H1029 C1015 0.961 . S
H1030 C1015 0.961 . S
H1031 C1015 0.961 . S
H1032 C1016 0.931 . S
H1033 C1021 0.930 . S
H1034 C1022 0.956 . S
H1035 C1022 0.961 . S
H1036 C1022 0.961 . S
H1037 C1023 0.958 . S
H1038 C1023 0.961 . S
H1039 C1023 0.960 . S
C1040 C1041 1.391 1_565 S
C1040 C1042 1.394 . S
C1040 H1056 0.931 . S
C1041 C1040 1.391 1_545 S
C1041 C1045 1.376 . S
C1042 C1040 1.394 . S
C1042 C1043 1.369 . S
C1042 C1046 1.531 . S
C1043 C1042 1.369 . S
C1043 C1044 1.410 . S
C1043 C1051 1.503 . S
C1044 C1043 1.410 . S
C1044 C1045 1.392 1_565 S
C1044 C1047 1.511 1_565 S
C1045 C1041 1.376 . S
C1045 C1044 1.392 1_545 S
C1045 H1057 0.929 . S
C1046 C1042 1.531 . S
C1046 H1058 0.960 . S
C1046 H1059 0.962 . S
C1046 H1060 0.960 . S
C1047 C1044 1.511 1_545 S
C1047 H1061 0.961 . S
C1047 H1062 0.961 1_545 S
C1047 H1063 0.961 . S
C1048 C1049 1.370 . S
C1048 C1050 1.363 . S
C1048 H1064 0.931 . S
C1049 C1048 1.370 . S
C1049 C1053 1.408 . S
C1050 C1048 1.363 . S
C1050 C1051 1.370 . S
C1050 C1054 1.524 . S
C1051 C1043 1.503 . S
C1051 C1050 1.370 . S
C1051 C1052 1.403 . S
C1052 C1051 1.403 . S
C1052 C1053 1.404 . S
C1052 C1055 1.539 . S
C1053 C1049 1.408 . S
C1053 C1052 1.404 . S
C1053 H1065 0.930 1_455 S
C1054 C1050 1.524 . S
C1054 H1066 0.956 . S
C1054 H1067 0.961 . S
C1054 H1068 0.961 . S
C1055 C1052 1.539 . S
C1055 H1069 0.958 . S
C1055 H1070 0.961 1_455 S
C1055 H1071 0.960 . S
H1056 C1040 0.931 . S
H1057 C1045 0.929 . S
H1058 C1046 0.960 . S
H1059 C1046 0.962 . S
H1060 C1046 0.960 . S
H1061 C1047 0.961 . S
H1062 C1047 0.961 1_565 S
H1063 C1047 0.961 . S
H1064 C1048 0.931 . S
H1065 C1053 0.930 1_655 S
H1066 C1054 0.956 . S
H1067 C1054 0.961 . S
H1068 C1054 0.961 . S
H1069 C1055 0.958 . S
H1070 C1055 0.961 1_655 S
H1071 C1055 0.960 . S
C1072 C1073 1.391 . S
C1072 C1074 1.394 . S
C1072 H1088 0.931 . S
C1073 C1072 1.391 . S
C1073 C1077 1.376 . S
C1074 C1072 1.394 . S
C1074 C1075 1.369 . S
C1074 C1078 1.531 . S
C1075 C1074 1.369 . S
C1075 C1076 1.410 . S
C1075 C1083 1.503 . S
C1076 C1075 1.410 . S
C1076 C1077 1.392 . S
C1076 C1079 1.511 . S
C1077 C1073 1.376 . S
C1077 C1076 1.392 . S
C1077 H1089 0.929 . S
C1078 C1074 1.531 . S
C1078 H1090 0.960 . S
C1078 H1091 0.962 . S
C1078 H1092 0.960 . S
C1079 C1076 1.511 . S
C1079 H1093 0.961 . S
C1079 H1094 0.961 . S
C1079 H1095 0.961 . S
C1080 C1081 1.370 . S
C1080 C1082 1.363 . S
C1080 H1096 0.931 . S
C1081 C1080 1.370 . S
C1081 C1085 1.408 . S
C1082 C1080 1.363 . S
C1082 C1083 1.370 . S
C1082 C1086 1.524 . S
C1083 C1075 1.503 . S
C1083 C1082 1.370 . S
C1083 C1084 1.403 . S
C1084 C1083 1.403 . S
C1084 C1085 1.404 . S
C1084 C1087 1.539 . S
C1085 C1081 1.408 . S
C1085 C1084 1.404 . S
C1085 H1097 0.930 . S
C1086 C1082 1.524 . S
C1086 H1098 0.956 . S
C1086 H1099 0.961 . S
C1086 H1100 0.961 . S
C1087 C1084 1.539 . S
C1087 H1101 0.958 . S
C1087 H1102 0.961 . S
C1087 H1103 0.960 . S
H1088 C1072 0.931 . S
H1089 C1077 0.929 . S
H1090 C1078 0.960 . S
H1091 C1078 0.962 . S
H1092 C1078 0.960 . S
H1093 C1079 0.961 . S
H1094 C1079 0.961 . S
H1095 C1079 0.961 . S
H1096 C1080 0.931 . S
H1097 C1085 0.930 . S
H1098 C1086 0.956 . S
H1099 C1086 0.961 . S
H1100 C1086 0.961 . S
H1101 C1087 0.958 . S
H1102 C1087 0.961 . S
H1103 C1087 0.960 . S
C1104 C1105 1.391 . S
C1104 C1106 1.394 . S
C1104 H1120 0.931 . S
C1105 C1104 1.391 . S
C1105 C1109 1.376 . S
C1106 C1104 1.394 . S
C1106 C1107 1.369 . S
C1106 C1110 1.531 . S
C1107 C1106 1.369 . S
C1107 C1108 1.410 . S
C1107 C1115 1.503 . S
C1108 C1107 1.410 . S
C1108 C1109 1.392 . S
C1108 C1111 1.511 . S
C1109 C1105 1.376 . S
C1109 C1108 1.392 . S
C1109 H1121 0.929 . S
C1110 C1106 1.531 . S
C1110 H1122 0.960 . S
C1110 H1123 0.962 . S
C1110 H1124 0.960 . S
C1111 C1108 1.511 . S
C1111 H1125 0.961 . S
C1111 H1126 0.961 . S
C1111 H1127 0.961 . S
C1112 C1113 1.370 . S
C1112 C1114 1.363 . S
C1112 H1128 0.931 . S
C1113 C1112 1.370 . S
C1113 C1117 1.408 . S
C1114 C1112 1.363 . S
C1114 C1115 1.370 . S
C1114 C1118 1.524 . S
C1115 C1107 1.503 . S
C1115 C1114 1.370 . S
C1115 C1116 1.403 . S
C1116 C1115 1.403 . S
C1116 C1117 1.404 . S
C1116 C1119 1.539 . S
C1117 C1113 1.408 . S
C1117 C1116 1.404 . S
C1117 H1129 0.930 . S
C1118 C1114 1.524 . S
C1118 H1130 0.956 . S
C1118 H1131 0.961 . S
C1118 H1132 0.961 . S
C1119 C1116 1.539 . S
C1119 H1133 0.958 . S
C1119 H1134 0.961 . S
C1119 H1135 0.960 . S
H1120 C1104 0.931 . S
H1121 C1109 0.929 . S
H1122 C1110 0.960 . S
H1123 C1110 0.962 . S
H1124 C1110 0.960 . S
H1125 C1111 0.961 . S
H1126 C1111 0.961 . S
H1127 C1111 0.961 . S
H1128 C1112 0.931 . S
H1129 C1117 0.930 . S
H1130 C1118 0.956 . S
H1131 C1118 0.961 . S
H1132 C1118 0.961 . S
H1133 C1119 0.958 . S
H1134 C1119 0.961 . S
H1135 C1119 0.960 . S
C1136 C1137 1.391 . S
C1136 C1138 1.394 . S
C1136 H1152 0.931 . S
C1137 C1136 1.391 . S
C1137 C1141 1.376 . S
C1138 C1136 1.394 . S
C1138 C1139 1.369 . S
C1138 C1142 1.531 . S
C1139 C1138 1.369 . S
C1139 C1140 1.410 . S
C1139 C1147 1.503 . S
C1140 C1139 1.410 . S
C1140 C1141 1.392 . S
C1140 C1143 1.511 . S
C1141 C1137 1.376 . S
C1141 C1140 1.392 . S
C1141 H1153 0.929 . S
C1142 C1138 1.531 . S
C1142 H1154 0.960 . S
C1142 H1155 0.962 . S
C1142 H1156 0.960 . S
C1143 C1140 1.511 . S
C1143 H1157 0.961 . S
C1143 H1158 0.961 . S
C1143 H1159 0.961 . S
C1144 C1145 1.370 . S
C1144 C1146 1.363 . S
C1144 H1160 0.931 . S
C1145 C1144 1.370 . S
C1145 C1149 1.408 . S
C1146 C1144 1.363 . S
C1146 C1147 1.370 . S
C1146 C1150 1.524 . S
C1147 C1139 1.503 . S
C1147 C1146 1.370 . S
C1147 C1148 1.403 . S
C1148 C1147 1.403 . S
C1148 C1149 1.404 . S
C1148 C1151 1.539 . S
C1149 C1145 1.408 . S
C1149 C1148 1.404 . S
C1149 H1161 0.930 . S
C1150 C1146 1.524 . S
C1150 H1162 0.956 . S
C1150 H1163 0.961 . S
C1150 H1164 0.961 . S
C1151 C1148 1.539 . S
C1151 H1165 0.958 . S
C1151 H1166 0.961 . S
C1151 H1167 0.960 . S
H1152 C1136 0.931 . S
H1153 C1141 0.929 . S
H1154 C1142 0.960 . S
H1155 C1142 0.962 . S
H1156 C1142 0.960 . S
H1157 C1143 0.961 . S
H1158 C1143 0.961 . S
H1159 C1143 0.961 . S
H1160 C1144 0.931 . S
H1161 C1149 0.930 . S
H1162 C1150 0.956 . S
H1163 C1150 0.961 . S
H1164 C1150 0.961 . S
H1165 C1151 0.958 . S
H1166 C1151 0.961 . S
H1167 C1151 0.960 . S
C1168 C1169 1.391 . S
C1168 C1170 1.394 . S
C1168 H1184 0.931 . S
C1169 C1168 1.391 . S
C1169 C1173 1.376 . S
C1170 C1168 1.394 . S
C1170 C1171 1.369 . S
C1170 C1174 1.531 . S
C1171 C1170 1.369 . S
C1171 C1172 1.410 . S
C1171 C1179 1.503 . S
C1172 C1171 1.410 . S
C1172 C1173 1.392 . S
C1172 C1175 1.511 . S
C1173 C1169 1.376 . S
C1173 C1172 1.392 . S
C1173 H1185 0.929 . S
C1174 C1170 1.531 . S
C1174 H1186 0.960 . S
C1174 H1187 0.962 . S
C1174 H1188 0.960 . S
C1175 C1172 1.511 . S
C1175 H1189 0.961 . S
C1175 H1190 0.961 . S
C1175 H1191 0.961 . S
C1176 C1177 1.370 . S
C1176 C1178 1.363 . S
C1176 H1192 0.931 . S
C1177 C1176 1.370 . S
C1177 C1181 1.408 . S
C1178 C1176 1.363 . S
C1178 C1179 1.370 . S
C1178 C1182 1.524 . S
C1179 C1171 1.503 . S
C1179 C1178 1.370 . S
C1179 C1180 1.403 . S
C1180 C1179 1.403 . S
C1180 C1181 1.404 . S
C1180 C1183 1.539 . S
C1181 C1177 1.408 . S
C1181 C1180 1.404 . S
C1181 H1193 0.930 . S
C1182 C1178 1.524 . S
C1182 H1194 0.956 . S
C1182 H1195 0.961 . S
C1182 H1196 0.961 . S
C1183 C1180 1.539 . S
C1183 H1197 0.958 . S
C1183 H1198 0.961 . S
C1183 H1199 0.960 . S
H1184 C1168 0.931 . S
H1185 C1173 0.929 . S
H1186 C1174 0.960 . S
H1187 C1174 0.962 . S
H1188 C1174 0.960 . S
H1189 C1175 0.961 . S
H1190 C1175 0.961 . S
H1191 C1175 0.961 . S
H1192 C1176 0.931 . S
H1193 C1181 0.930 . S
H1194 C1182 0.956 . S
H1195 C1182 0.961 . S
H1196 C1182 0.961 . S
H1197 C1183 0.958 . S
H1198 C1183 0.961 . S
H1199 C1183 0.960 . S
C1200 C1201 1.391 . S
C1200 C1202 1.394 . S
C1200 H1216 0.931 . S
C1201 C1200 1.391 . S
C1201 C1205 1.376 . S
C1202 C1200 1.394 . S
C1202 C1203 1.369 . S
C1202 C1206 1.531 . S
C1203 C1202 1.369 . S
C1203 C1204 1.410 . S
C1203 C1211 1.503 . S
C1204 C1203 1.410 . S
C1204 C1205 1.392 . S
C1204 C1207 1.511 . S
C1205 C1201 1.376 . S
C1205 C1204 1.392 . S
C1205 H1217 0.929 . S
C1206 C1202 1.531 . S
C1206 H1218 0.960 . S
C1206 H1219 0.962 . S
C1206 H1220 0.960 . S
C1207 C1204 1.511 . S
C1207 H1221 0.961 . S
C1207 H1222 0.961 . S
C1207 H1223 0.961 . S
C1208 C1209 1.370 . S
C1208 C1210 1.363 . S
C1208 H1224 0.931 . S
C1209 C1208 1.370 . S
C1209 C1213 1.408 . S
C1210 C1208 1.363 . S
C1210 C1211 1.370 . S
C1210 C1214 1.524 . S
C1211 C1203 1.503 . S
C1211 C1210 1.370 . S
C1211 C1212 1.403 . S
C1212 C1211 1.403 . S
C1212 C1213 1.404 . S
C1212 C1215 1.539 . S
C1213 C1209 1.408 . S
C1213 C1212 1.404 . S
C1213 H1225 0.930 . S
C1214 C1210 1.524 . S
C1214 H1226 0.956 . S
C1214 H1227 0.961 . S
C1214 H1228 0.961 . S
C1215 C1212 1.539 . S
C1215 H1229 0.958 . S
C1215 H1230 0.961 . S
C1215 H1231 0.960 . S
H1216 C1200 0.931 . S
H1217 C1205 0.929 . S
H1218 C1206 0.960 . S
H1219 C1206 0.962 . S
H1220 C1206 0.960 . S
H1221 C1207 0.961 . S
H1222 C1207 0.961 . S
H1223 C1207 0.961 . S
H1224 C1208 0.931 . S
H1225 C1213 0.930 . S
H1226 C1214 0.956 . S
H1227 C1214 0.961 . S
H1228 C1214 0.961 . S
H1229 C1215 0.958 . S
H1230 C1215 0.961 . S
H1231 C1215 0.960 . S
C1232 C1233 1.391 . S
C1232 C1234 1.394 . S
C1232 H1248 0.931 . S
C1233 C1232 1.391 . S
C1233 C1237 1.376 . S
C1234 C1232 1.394 . S
C1234 C1235 1.369 . S
C1234 C1238 1.531 . S
C1235 C1234 1.369 . S
C1235 C1236 1.410 . S
C1235 C1243 1.503 . S
C1236 C1235 1.410 . S
C1236 C1237 1.392 . S
C1236 C1239 1.511 . S
C1237 C1233 1.376 . S
C1237 C1236 1.392 . S
C1237 H1249 0.929 . S
C1238 C1234 1.531 . S
C1238 H1250 0.960 . S
C1238 H1251 0.962 . S
C1238 H1252 0.960 . S
C1239 C1236 1.511 . S
C1239 H1253 0.961 . S
C1239 H1254 0.961 . S
C1239 H1255 0.961 . S
C1240 C1241 1.370 . S
C1240 C1242 1.363 . S
C1240 H1256 0.931 . S
C1241 C1240 1.370 . S
C1241 C1245 1.408 . S
C1242 C1240 1.363 . S
C1242 C1243 1.370 . S
C1242 C1246 1.524 . S
C1243 C1235 1.503 . S
C1243 C1242 1.370 . S
C1243 C1244 1.403 . S
C1244 C1243 1.403 . S
C1244 C1245 1.404 . S
C1244 C1247 1.539 . S
C1245 C1241 1.408 . S
C1245 C1244 1.404 . S
C1245 H1257 0.930 . S
C1246 C1242 1.524 . S
C1246 H1258 0.956 . S
C1246 H1259 0.961 . S
C1246 H1260 0.961 . S
C1247 C1244 1.539 . S
C1247 H1261 0.958 . S
C1247 H1262 0.961 . S
C1247 H1263 0.960 . S
H1248 C1232 0.931 . S
H1249 C1237 0.929 . S
H1250 C1238 0.960 . S
H1251 C1238 0.962 . S
H1252 C1238 0.960 . S
H1253 C1239 0.961 . S
H1254 C1239 0.961 . S
H1255 C1239 0.961 . S
H1256 C1240 0.931 . S
H1257 C1245 0.930 . S
H1258 C1246 0.956 . S
H1259 C1246 0.961 . S
H1260 C1246 0.961 . S
H1261 C1247 0.958 . S
H1262 C1247 0.961 . S
H1263 C1247 0.960 . S
C1264 C1265 1.391 . S
C1264 C1266 1.394 . S
C1264 H1280 0.931 . S
C1265 C1264 1.391 . S
C1265 C1269 1.376 . S
C1266 C1264 1.394 . S
C1266 C1267 1.369 . S
C1266 C1270 1.531 . S
C1267 C1266 1.369 . S
C1267 C1268 1.410 . S
C1267 C1275 1.503 . S
C1268 C1267 1.410 . S
C1268 C1269 1.392 . S
C1268 C1271 1.511 . S
C1269 C1265 1.376 . S
C1269 C1268 1.392 . S
C1269 H1281 0.929 . S
C1270 C1266 1.531 . S
C1270 H1282 0.960 . S
C1270 H1283 0.962 . S
C1270 H1284 0.960 . S
C1271 C1268 1.511 . S
C1271 H1285 0.961 . S
C1271 H1286 0.961 . S
C1271 H1287 0.961 . S
C1272 C1273 1.370 . S
C1272 C1274 1.363 . S
C1272 H1288 0.931 . S
C1273 C1272 1.370 . S
C1273 C1277 1.408 . S
C1274 C1272 1.363 . S
C1274 C1275 1.370 . S
C1274 C1278 1.524 . S
C1275 C1267 1.503 . S
C1275 C1274 1.370 . S
C1275 C1276 1.403 . S
C1276 C1275 1.403 . S
C1276 C1277 1.404 . S
C1276 C1279 1.539 . S
C1277 C1273 1.408 . S
C1277 C1276 1.404 . S
C1277 H1289 0.930 . S
C1278 C1274 1.524 . S
C1278 H1290 0.956 . S
C1278 H1291 0.961 . S
C1278 H1292 0.961 . S
C1279 C1276 1.539 . S
C1279 H1293 0.958 . S
C1279 H1294 0.961 . S
C1279 H1295 0.960 . S
H1280 C1264 0.931 . S
H1281 C1269 0.929 . S
H1282 C1270 0.960 . S
H1283 C1270 0.962 . S
H1284 C1270 0.960 . S
H1285 C1271 0.961 . S
H1286 C1271 0.961 . S
H1287 C1271 0.961 . S
H1288 C1272 0.931 . S
H1289 C1277 0.930 . S
H1290 C1278 0.956 . S
H1291 C1278 0.961 . S
H1292 C1278 0.961 . S
H1293 C1279 0.958 . S
H1294 C1279 0.961 . S
H1295 C1279 0.960 . S
C1296 C1297 1.391 . S
C1296 C1298 1.394 . S
C1296 H1312 0.931 . S
C1297 C1296 1.391 . S
C1297 C1301 1.376 . S
C1298 C1296 1.394 . S
C1298 C1299 1.369 . S
C1298 C1302 1.531 . S
C1299 C1298 1.369 . S
C1299 C1300 1.410 . S
C1299 C1307 1.503 . S
C1300 C1299 1.410 . S
C1300 C1301 1.392 . S
C1300 C1303 1.511 . S
C1301 C1297 1.376 . S
C1301 C1300 1.392 . S
C1301 H1313 0.929 . S
C1302 C1298 1.531 . S
C1302 H1314 0.960 . S
C1302 H1315 0.962 . S
C1302 H1316 0.960 . S
C1303 C1300 1.511 . S
C1303 H1317 0.961 . S
C1303 H1318 0.961 . S
C1303 H1319 0.961 . S
C1304 C1305 1.370 . S
C1304 C1306 1.363 . S
C1304 H1320 0.931 . S
C1305 C1304 1.370 . S
C1305 C1309 1.408 . S
C1306 C1304 1.363 . S
C1306 C1307 1.370 . S
C1306 C1310 1.524 . S
C1307 C1299 1.503 . S
C1307 C1306 1.370 . S
C1307 C1308 1.403 . S
C1308 C1307 1.403 . S
C1308 C1309 1.404 . S
C1308 C1311 1.539 . S
C1309 C1305 1.408 . S
C1309 C1308 1.404 . S
C1309 H1321 0.930 . S
C1310 C1306 1.524 . S
C1310 H1322 0.956 . S
C1310 H1323 0.961 . S
C1310 H1324 0.961 . S
C1311 C1308 1.539 . S
C1311 H1325 0.958 . S
C1311 H1326 0.961 . S
C1311 H1327 0.960 . S
H1312 C1296 0.931 . S
H1313 C1301 0.929 . S
H1314 C1302 0.960 . S
H1315 C1302 0.962 . S
H1316 C1302 0.960 . S
H1317 C1303 0.961 . S
H1318 C1303 0.961 . S
H1319 C1303 0.961 . S
H1320 C1304 0.931 . S
H1321 C1309 0.930 . S
H1322 C1310 0.956 . S
H1323 C1310 0.961 . S
H1324 C1310 0.961 . S
H1325 C1311 0.958 . S
H1326 C1311 0.961 . S
H1327 C1311 0.960 . S
C1328 C1329 1.391 . S
C1328 C1330 1.394 . S
C1328 H1344 0.931 . S
C1329 C1328 1.391 . S
C1329 C1333 1.376 . S
C1330 C1328 1.394 . S
C1330 C1331 1.369 . S
C1330 C1334 1.531 . S
C1331 C1330 1.369 . S
C1331 C1332 1.410 . S
C1331 C1339 1.503 . S
C1332 C1331 1.410 . S
C1332 C1333 1.392 . S
C1332 C1335 1.511 . S
C1333 C1329 1.376 . S
C1333 C1332 1.392 . S
C1333 H1345 0.929 . S
C1334 C1330 1.531 . S
C1334 H1346 0.960 . S
C1334 H1347 0.962 . S
C1334 H1348 0.960 . S
C1335 C1332 1.511 . S
C1335 H1349 0.961 . S
C1335 H1350 0.961 . S
C1335 H1351 0.961 . S
C1336 C1337 1.370 . S
C1336 C1338 1.363 . S
C1336 H1352 0.931 . S
C1337 C1336 1.370 . S
C1337 C1341 1.408 . S
C1338 C1336 1.363 . S
C1338 C1339 1.370 . S
C1338 C1342 1.524 . S
C1339 C1331 1.503 . S
C1339 C1338 1.370 . S
C1339 C1340 1.403 . S
C1340 C1339 1.403 . S
C1340 C1341 1.404 . S
C1340 C1343 1.539 . S
C1341 C1337 1.408 . S
C1341 C1340 1.404 . S
C1341 H1353 0.930 . S
C1342 C1338 1.524 . S
C1342 H1354 0.956 . S
C1342 H1355 0.961 . S
C1342 H1356 0.961 . S
C1343 C1340 1.539 . S
C1343 H1357 0.958 . S
C1343 H1358 0.961 . S
C1343 H1359 0.960 . S
H1344 C1328 0.931 . S
H1345 C1333 0.929 . S
H1346 C1334 0.960 . S
H1347 C1334 0.962 . S
H1348 C1334 0.960 . S
H1349 C1335 0.961 . S
H1350 C1335 0.961 . S
H1351 C1335 0.961 . S
H1352 C1336 0.931 . S
H1353 C1341 0.930 . S
H1354 C1342 0.956 . S
H1355 C1342 0.961 . S
H1356 C1342 0.961 . S
H1357 C1343 0.958 . S
H1358 C1343 0.961 . S
H1359 C1343 0.960 . S
C1360 C1361 1.391 . S
C1360 C1362 1.394 . S
C1360 H1376 0.931 . S
C1361 C1360 1.391 . S
C1361 C1365 1.376 . S
C1362 C1360 1.394 . S
C1362 C1363 1.369 . S
C1362 C1366 1.531 . S
C1363 C1362 1.369 . S
C1363 C1364 1.410 . S
C1363 C1371 1.503 . S
C1364 C1363 1.410 . S
C1364 C1365 1.392 . S
C1364 C1367 1.511 . S
C1365 C1361 1.376 . S
C1365 C1364 1.392 . S
C1365 H1377 0.929 . S
C1366 C1362 1.531 . S
C1366 H1378 0.960 . S
C1366 H1379 0.962 . S
C1366 H1380 0.960 . S
C1367 C1364 1.511 . S
C1367 H1381 0.961 . S
C1367 H1382 0.961 . S
C1367 H1383 0.961 . S
C1368 C1369 1.370 . S
C1368 C1370 1.363 . S
C1368 H1384 0.931 . S
C1369 C1368 1.370 . S
C1369 C1373 1.408 . S
C1370 C1368 1.363 . S
C1370 C1371 1.370 . S
C1370 C1374 1.524 . S
C1371 C1363 1.503 . S
C1371 C1370 1.370 . S
C1371 C1372 1.403 . S
C1372 C1371 1.403 . S
C1372 C1373 1.404 . S
C1372 C1375 1.539 . S
C1373 C1369 1.408 . S
C1373 C1372 1.404 . S
C1373 H1385 0.930 . S
C1374 C1370 1.524 . S
C1374 H1386 0.956 . S
C1374 H1387 0.961 . S
C1374 H1388 0.961 . S
C1375 C1372 1.539 . S
C1375 H1389 0.958 . S
C1375 H1390 0.961 . S
C1375 H1391 0.960 . S
H1376 C1360 0.931 . S
H1377 C1365 0.929 . S
H1378 C1366 0.960 . S
H1379 C1366 0.962 . S
H1380 C1366 0.960 . S
H1381 C1367 0.961 . S
H1382 C1367 0.961 . S
H1383 C1367 0.961 . S
H1384 C1368 0.931 . S
H1385 C1373 0.930 . S
H1386 C1374 0.956 . S
H1387 C1374 0.961 . S
H1388 C1374 0.961 . S
H1389 C1375 0.958 . S
H1390 C1375 0.961 . S
H1391 C1375 0.960 . S
C1392 C1393 1.391 . S
C1392 C1394 1.394 . S
C1392 H1408 0.931 . S
C1393 C1392 1.391 . S
C1393 C1397 1.376 . S
C1394 C1392 1.394 . S
C1394 C1395 1.369 . S
C1394 C1398 1.531 . S
C1395 C1394 1.369 . S
C1395 C1396 1.410 . S
C1395 C1403 1.503 . S
C1396 C1395 1.410 . S
C1396 C1397 1.392 . S
C1396 C1399 1.511 . S
C1397 C1393 1.376 . S
C1397 C1396 1.392 . S
C1397 H1409 0.929 . S
C1398 C1394 1.531 . S
C1398 H1410 0.960 . S
C1398 H1411 0.962 . S
C1398 H1412 0.960 . S
C1399 C1396 1.511 . S
C1399 H1413 0.961 . S
C1399 H1414 0.961 . S
C1399 H1415 0.961 . S
C1400 C1401 1.370 . S
C1400 C1402 1.363 . S
C1400 H1416 0.931 . S
C1401 C1400 1.370 . S
C1401 C1405 1.408 . S
C1402 C1400 1.363 . S
C1402 C1403 1.370 . S
C1402 C1406 1.524 . S
C1403 C1395 1.503 . S
C1403 C1402 1.370 . S
C1403 C1404 1.403 . S
C1404 C1403 1.403 . S
C1404 C1405 1.404 . S
C1404 C1407 1.539 . S
C1405 C1401 1.408 . S
C1405 C1404 1.404 . S
C1405 H1417 0.930 . S
C1406 C1402 1.524 . S
C1406 H1418 0.956 . S
C1406 H1419 0.961 . S
C1406 H1420 0.961 . S
C1407 C1404 1.539 . S
C1407 H1421 0.958 . S
C1407 H1422 0.961 . S
C1407 H1423 0.960 . S
H1408 C1392 0.931 . S
H1409 C1397 0.929 . S
H1410 C1398 0.960 . S
H1411 C1398 0.962 . S
H1412 C1398 0.960 . S
H1413 C1399 0.961 . S
H1414 C1399 0.961 . S
H1415 C1399 0.961 . S
H1416 C1400 0.931 . S
H1417 C1405 0.930 . S
H1418 C1406 0.956 . S
H1419 C1406 0.961 . S
H1420 C1406 0.961 . S
H1421 C1407 0.958 . S
H1422 C1407 0.961 . S
H1423 C1407 0.960 . S
C1424 C1425 1.391 . S
C1424 C1426 1.394 . S
C1424 H1440 0.931 . S
C1425 C1424 1.391 . S
C1425 C1429 1.376 . S
C1426 C1424 1.394 . S
C1426 C1427 1.369 . S
C1426 C1430 1.531 . S
C1427 C1426 1.369 . S
C1427 C1428 1.410 . S
C1427 C1435 1.503 . S
C1428 C1427 1.410 . S
C1428 C1429 1.392 . S
C1428 C1431 1.511 . S
C1429 C1425 1.376 . S
C1429 C1428 1.392 . S
C1429 H1441 0.929 . S
C1430 C1426 1.531 . S
C1430 H1442 0.960 . S
C1430 H1443 0.962 . S
C1430 H1444 0.960 . S
C1431 C1428 1.511 . S
C1431 H1445 0.961 . S
C1431 H1446 0.961 . S
C1431 H1447 0.961 . S
C1432 C1433 1.370 . S
C1432 C1434 1.363 . S
C1432 H1448 0.931 . S
C1433 C1432 1.370 . S
C1433 C1437 1.408 . S
C1434 C1432 1.363 . S
C1434 C1435 1.370 . S
C1434 C1438 1.524 . S
C1435 C1427 1.503 . S
C1435 C1434 1.370 . S
C1435 C1436 1.403 . S
C1436 C1435 1.403 . S
C1436 C1437 1.404 . S
C1436 C1439 1.539 . S
C1437 C1433 1.408 . S
C1437 C1436 1.404 . S
C1437 H1449 0.930 . S
C1438 C1434 1.524 . S
C1438 H1450 0.956 . S
C1438 H1451 0.961 . S
C1438 H1452 0.961 . S
C1439 C1436 1.539 . S
C1439 H1453 0.958 . S
C1439 H1454 0.961 1_655 S
C1439 H1455 0.960 . S
H1440 C1424 0.931 . S
H1441 C1429 0.929 . S
H1442 C1430 0.960 . S
H1443 C1430 0.962 . S
H1444 C1430 0.960 . S
H1445 C1431 0.961 . S
H1446 C1431 0.961 . S
H1447 C1431 0.961 . S
H1448 C1432 0.931 . S
H1449 C1437 0.930 . S
H1450 C1438 0.956 . S
H1451 C1438 0.961 . S
H1452 C1438 0.961 . S
H1453 C1439 0.958 . S
H1454 C1439 0.961 1_455 S
H1455 C1439 0.960 . S
C1456 C1457 1.391 . S
C1456 C1458 1.394 . S
C1456 H1472 0.931 . S
C1457 C1456 1.391 . S
C1457 C1461 1.376 . S
C1458 C1456 1.394 . S
C1458 C1459 1.369 . S
C1458 C1462 1.531 . S
C1459 C1458 1.369 . S
C1459 C1460 1.410 . S
C1459 C1467 1.503 . S
C1460 C1459 1.410 . S
C1460 C1461 1.392 . S
C1460 C1463 1.511 . S
C1461 C1457 1.376 . S
C1461 C1460 1.392 . S
C1461 H1473 0.929 . S
C1462 C1458 1.531 . S
C1462 H1474 0.960 . S
C1462 H1475 0.962 . S
C1462 H1476 0.960 . S
C1463 C1460 1.511 . S
C1463 H1477 0.961 . S
C1463 H1478 0.961 . S
C1463 H1479 0.961 . S
C1464 C1465 1.370 . S
C1464 C1466 1.363 . S
C1464 H1480 0.931 . S
C1465 C1464 1.370 . S
C1465 C1469 1.408 . S
C1466 C1464 1.363 . S
C1466 C1467 1.370 . S
C1466 C1470 1.524 . S
C1467 C1459 1.503 . S
C1467 C1466 1.370 . S
C1467 C1468 1.403 . S
C1468 C1467 1.403 . S
C1468 C1469 1.404 . S
C1468 C1471 1.539 . S
C1469 C1465 1.408 . S
C1469 C1468 1.404 . S
C1469 H1481 0.930 . S
C1470 C1466 1.524 . S
C1470 H1482 0.956 . S
C1470 H1483 0.961 . S
C1470 H1484 0.961 . S
C1471 C1468 1.539 . S
C1471 H1485 0.958 . S
C1471 H1486 0.961 . S
C1471 H1487 0.960 . S
H1472 C1456 0.931 . S
H1473 C1461 0.929 . S
H1474 C1462 0.960 . S
H1475 C1462 0.962 . S
H1476 C1462 0.960 . S
H1477 C1463 0.961 . S
H1478 C1463 0.961 . S
H1479 C1463 0.961 . S
H1480 C1464 0.931 . S
H1481 C1469 0.930 . S
H1482 C1470 0.956 . S
H1483 C1470 0.961 . S
H1484 C1470 0.961 . S
H1485 C1471 0.958 . S
H1486 C1471 0.961 . S
H1487 C1471 0.960 . S
C1488 C1489 1.391 . S
C1488 C1490 1.394 . S
C1488 H1504 0.931 . S
C1489 C1488 1.391 . S
C1489 C1493 1.376 . S
C1490 C1488 1.394 . S
C1490 C1491 1.369 . S
C1490 C1494 1.531 . S
C1491 C1490 1.369 . S
C1491 C1492 1.410 . S
C1491 C1499 1.503 . S
C1492 C1491 1.410 . S
C1492 C1493 1.392 . S
C1492 C1495 1.511 . S
C1493 C1489 1.376 . S
C1493 C1492 1.392 . S
C1493 H1505 0.929 . S
C1494 C1490 1.531 . S
C1494 H1506 0.960 . S
C1494 H1507 0.962 . S
C1494 H1508 0.960 . S
C1495 C1492 1.511 . S
C1495 H1509 0.961 . S
C1495 H1510 0.961 . S
C1495 H1511 0.961 . S
C1496 C1497 1.370 . S
C1496 C1498 1.363 . S
C1496 H1512 0.931 . S
C1497 C1496 1.370 . S
C1497 C1501 1.408 . S
C1498 C1496 1.363 . S
C1498 C1499 1.370 . S
C1498 C1502 1.524 . S
C1499 C1491 1.503 . S
C1499 C1498 1.370 . S
C1499 C1500 1.403 . S
C1500 C1499 1.403 . S
C1500 C1501 1.404 . S
C1500 C1503 1.539 . S
C1501 C1497 1.408 . S
C1501 C1500 1.404 . S
C1501 H1513 0.930 . S
C1502 C1498 1.524 . S
C1502 H1514 0.956 . S
C1502 H1515 0.961 . S
C1502 H1516 0.961 . S
C1503 C1500 1.539 . S
C1503 H1517 0.958 . S
C1503 H1518 0.961 . S
C1503 H1519 0.960 . S
H1504 C1488 0.931 . S
H1505 C1493 0.929 . S
H1506 C1494 0.960 . S
H1507 C1494 0.962 . S
H1508 C1494 0.960 . S
H1509 C1495 0.961 . S
H1510 C1495 0.961 . S
H1511 C1495 0.961 . S
H1512 C1496 0.931 . S
H1513 C1501 0.930 . S
H1514 C1502 0.956 . S
H1515 C1502 0.961 . S
H1516 C1502 0.961 . S
H1517 C1503 0.958 . S
H1518 C1503 0.961 . S
H1519 C1503 0.960 . S
C1520 C1521 1.391 . S
C1520 C1522 1.394 . S
C1520 H1536 0.931 . S
C1521 C1520 1.391 . S
C1521 C1525 1.376 . S
C1522 C1520 1.394 . S
C1522 C1523 1.369 . S
C1522 C1526 1.531 . S
C1523 C1522 1.369 . S
C1523 C1524 1.410 . S
C1523 C1531 1.503 . S
C1524 C1523 1.410 . S
C1524 C1525 1.392 . S
C1524 C1527 1.511 . S
C1525 C1521 1.376 . S
C1525 C1524 1.392 . S
C1525 H1537 0.929 . S
C1526 C1522 1.531 . S
C1526 H1538 0.960 . S
C1526 H1539 0.962 . S
C1526 H1540 0.960 . S
C1527 C1524 1.511 . S
C1527 H1541 0.961 . S
C1527 H1542 0.961 . S
C1527 H1543 0.961 . S
C1528 C1529 1.370 . S
C1528 C1530 1.363 . S
C1528 H1544 0.931 . S
C1529 C1528 1.370 . S
C1529 C1533 1.408 . S
C1530 C1528 1.363 . S
C1530 C1531 1.370 . S
C1530 C1534 1.524 . S
C1531 C1523 1.503 . S
C1531 C1530 1.370 . S
C1531 C1532 1.403 . S
C1532 C1531 1.403 . S
C1532 C1533 1.404 . S
C1532 C1535 1.539 . S
C1533 C1529 1.408 . S
C1533 C1532 1.404 . S
C1533 H1545 0.930 . S
C1534 C1530 1.524 . S
C1534 H1546 0.956 . S
C1534 H1547 0.961 . S
C1534 H1548 0.961 . S
C1535 C1532 1.539 . S
C1535 H1549 0.958 . S
C1535 H1550 0.961 . S
C1535 H1551 0.960 . S
H1536 C1520 0.931 . S
H1537 C1525 0.929 . S
H1538 C1526 0.960 . S
H1539 C1526 0.962 . S
H1540 C1526 0.960 . S
H1541 C1527 0.961 . S
H1542 C1527 0.961 . S
H1543 C1527 0.961 . S
H1544 C1528 0.931 . S
H1545 C1533 0.930 . S
H1546 C1534 0.956 . S
H1547 C1534 0.961 . S
H1548 C1534 0.961 . S
H1549 C1535 0.958 . S
H1550 C1535 0.961 . S
H1551 C1535 0.960 . S
C1552 C1553 1.391 . S
C1552 C1554 1.394 . S
C1552 H1568 0.931 . S
C1553 C1552 1.391 . S
C1553 C1557 1.376 . S
C1554 C1552 1.394 . S
C1554 C1555 1.369 . S
C1554 C1558 1.531 . S
C1555 C1554 1.369 . S
C1555 C1556 1.410 . S
C1555 C1563 1.503 . S
C1556 C1555 1.410 . S
C1556 C1557 1.392 . S
C1556 C1559 1.511 . S
C1557 C1553 1.376 . S
C1557 C1556 1.392 . S
C1557 H1569 0.929 . S
C1558 C1554 1.531 . S
C1558 H1570 0.960 . S
C1558 H1571 0.962 . S
C1558 H1572 0.960 . S
C1559 C1556 1.511 . S
C1559 H1573 0.961 . S
C1559 H1574 0.961 . S
C1559 H1575 0.961 . S
C1560 C1561 1.370 . S
C1560 C1562 1.363 . S
C1560 H1576 0.931 . S
C1561 C1560 1.370 . S
C1561 C1565 1.408 . S
C1562 C1560 1.363 . S
C1562 C1563 1.370 . S
C1562 C1566 1.524 . S
C1563 C1555 1.503 . S
C1563 C1562 1.370 . S
C1563 C1564 1.403 . S
C1564 C1563 1.403 . S
C1564 C1565 1.404 . S
C1564 C1567 1.539 . S
C1565 C1561 1.408 . S
C1565 C1564 1.404 . S
C1565 H1577 0.930 . S
C1566 C1562 1.524 . S
C1566 H1578 0.956 . S
C1566 H1579 0.961 . S
C1566 H1580 0.961 . S
C1567 C1564 1.539 . S
C1567 H1581 0.958 . S
C1567 H1582 0.961 . S
C1567 H1583 0.960 . S
H1568 C1552 0.931 . S
H1569 C1557 0.929 . S
H1570 C1558 0.960 . S
H1571 C1558 0.962 . S
H1572 C1558 0.960 . S
H1573 C1559 0.961 . S
H1574 C1559 0.961 . S
H1575 C1559 0.961 . S
H1576 C1560 0.931 . S
H1577 C1565 0.930 . S
H1578 C1566 0.956 . S
H1579 C1566 0.961 . S
H1580 C1566 0.961 . S
H1581 C1567 0.958 . S
H1582 C1567 0.961 . S
H1583 C1567 0.960 . S
C817 C361 1.461 . S
C825 C554 1.454 . S
C857 C638 1.456 . S
C849 C451 1.455 . S
C889 C631 1.465 . S
C881 C241 1.411 . S
C913 C331 1.419 . S
C921 C547 1.465 . S
C953 C711 1.447 . S
C945 C140 1.404 . S
C985 C795 1.451 . S
C977 C211 1.424 . S
C1009 C20 1.436 . S
C1017 C788 1.461 . S
C1041 C91 1.412 . S
C1049 C704 1.465 . S
C1081 C538 1.316 . S
C1073 C80 1.483 1_554 S
C1113 C622 1.327 . S
C1105 C1 1.501 . S
C1145 C633 1.404 . S
C1137 C200 1.489 1_556 S
C1177 C549 1.404 . S
C1169 C121 1.489 . S
C1209 C717 1.339 . S
C1201 C320 1.474 1_556 S
C1233 C260 1.503 . S
C1241 C801 1.333 . S
C1273 C790 1.388 . S
C1265 C440 1.533 1_554 S
C1297 C380 1.525 . S
C1305 C706 1.419 . S
C1337 C536 1.581 . S
C1329 C31 1.544 . S
C1369 C620 1.583 . S
C1361 C61 1.557 . S
C1393 C151 1.562 . S
C1401 C627 1.555 . S
C1433 C543 1.566 . S
C1425 C181 1.549 . S
C1465 C715 1.577 . S
C1457 C271 1.515 . S
C1489 C301 1.573 . S
C1497 C799 1.577 . S
C1521 C391 1.539 . S
C1529 C806 1.566 . S
C1553 C421 1.571 . S
C1561 C722 1.557 . S
