# Generated by pormake.
# Topology cml, (3,6)-cn, num edge types: 1
# Building blocks:
#     Node 0, Type 0, BuildingBlock: QEWDON_clean_linker_0, # of connection points: 3
#     Node 1, Type 0, BuildingBlock: QEWDON_clean_linker_0, # of connection points: 3
#     Node 2, Type 0, BuildingBlock: QEWDON_clean_linker_0, # of connection points: 3
#     Node 3, Type 0, BuildingBlock: QEWDON_clean_linker_0, # of connection points: 3
#     Node 4, Type 0, BuildingBlock: QEWDON_clean_linker_0, # of connection points: 3
#     Node 5, Type 0, BuildingBlock: QEWDON_clean_linker_0, # of connection points: 3
#     Node 6, Type 0, BuildingBlock: QEWDON_clean_linker_0, # of connection points: 3
#     Node 7, Type 0, BuildingBlock: QEWDON_clean_linker_0, # of connection points: 3
#     Node 8, Type 1, BuildingBlock: OJICUG_clean_sbu_0, # of connection points: 6
#     Node 9, Type 1, BuildingBlock: OJICUG_clean_sbu_0, # of connection points: 6
#     Node 10, Type 1, BuildingBlock: OJICUG_clean_sbu_0, # of connection points: 6
#     Node 11, Type 1, BuildingBlock: OJICUG_clean_sbu_0, # of connection points: 6
#     Edge 12, Type (0, 1), BuildingBlock: MIFKUJ_clean_linker_0, # of connection points: 2
#     Edge 13, Type (0, 1), BuildingBlock: MIFKUJ_clean_linker_0, # of connection points: 2
#     Edge 14, Type (0, 1), BuildingBlock: MIFKUJ_clean_linker_0, # of connection points: 2
#     Edge 15, Type (0, 1), BuildingBlock: MIFKUJ_clean_linker_0, # of connection points: 2
#     Edge 16, Type (0, 1), BuildingBlock: MIFKUJ_clean_linker_0, # of connection points: 2
#     Edge 17, Type (0, 1), BuildingBlock: MIFKUJ_clean_linker_0, # of connection points: 2
#     Edge 18, Type (0, 1), BuildingBlock: MIFKUJ_clean_linker_0, # of connection points: 2
#     Edge 19, Type (0, 1), BuildingBlock: MIFKUJ_clean_linker_0, # of connection points: 2
#     Edge 20, Type (0, 1), BuildingBlock: MIFKUJ_clean_linker_0, # of connection points: 2
#     Edge 21, Type (0, 1), BuildingBlock: MIFKUJ_clean_linker_0, # of connection points: 2
#     Edge 22, Type (0, 1), BuildingBlock: MIFKUJ_clean_linker_0, # of connection points: 2
#     Edge 23, Type (0, 1), BuildingBlock: MIFKUJ_clean_linker_0, # of connection points: 2
#     Edge 24, Type (0, 1), BuildingBlock: MIFKUJ_clean_linker_0, # of connection points: 2
#     Edge 25, Type (0, 1), BuildingBlock: MIFKUJ_clean_linker_0, # of connection points: 2
#     Edge 26, Type (0, 1), BuildingBlock: MIFKUJ_clean_linker_0, # of connection points: 2
#     Edge 27, Type (0, 1), BuildingBlock: MIFKUJ_clean_linker_0, # of connection points: 2
#     Edge 28, Type (0, 1), BuildingBlock: MIFKUJ_clean_linker_0, # of connection points: 2
#     Edge 29, Type (0, 1), BuildingBlock: MIFKUJ_clean_linker_0, # of connection points: 2
#     Edge 30, Type (0, 1), BuildingBlock: MIFKUJ_clean_linker_0, # of connection points: 2
#     Edge 31, Type (0, 1), BuildingBlock: MIFKUJ_clean_linker_0, # of connection points: 2
#     Edge 32, Type (0, 1), BuildingBlock: MIFKUJ_clean_linker_0, # of connection points: 2
#     Edge 33, Type (0, 1), BuildingBlock: MIFKUJ_clean_linker_0, # of connection points: 2
#     Edge 34, Type (0, 1), BuildingBlock: MIFKUJ_clean_linker_0, # of connection points: 2
#     Edge 35, Type (0, 1), BuildingBlock: MIFKUJ_clean_linker_0, # of connection points: 2
# Relax obj value: 0.004
# Max RMSD: 0.112
# Mean RMSD: 0.081
data_MOF--net-cml--node1-OJICUG_clean_sbu_0--node2-QEWDON_clean_linker_0--edge1-MIFKUJ_clean_linker_0
_symmetry_space_group_name_H-M    P1
_symmetry_Int_Tables_number       1
_symmetry_cell_setting            triclinic
loop_
_symmetry_equiv_pos_as_xyz
'x, y, z'
_cell_length_a     54.915308
_cell_length_b     52.23942
_cell_length_c     45.859923
_cell_angle_alpha  90.014381
_cell_angle_beta   89.995401
_cell_angle_gamma 90.04924
loop_
_atom_site_label
_atom_site_type_symbol
_atom_site_fract_x
_atom_site_fract_y
_atom_site_fract_z
_atom_type_partial_charge
H0 H 0.25988 0.40786 0.97497 0.0
C1 C 0.27132 0.40272 0.99332 0.0
C2 C 0.2962 0.40903 0.99306 0.0
C3 C 0.26101 0.39069 0.01781 0.0
H4 H 0.32972 0.40829 0.0175 0.0
C5 C 0.31062 0.40299 0.01737 0.0
C6 C 0.30053 0.39126 0.04206 0.0
C7 C 0.2757 0.38496 0.04205 0.0
C8 C 0.23451 0.38613 0.01941 0.0
H9 H 0.26758 0.37636 0.06126 0.0
C10 C 0.22294 0.369 0.0002 0.0
C11 C 0.19777 0.36412 0.00276 0.0
C12 C 0.22079 0.39862 0.04093 0.0
H13 H 0.22942 0.41187 0.05591 0.0
C14 C 0.19584 0.39421 0.04324 0.0
H15 H 0.23358 0.3593 0.98364 0.0
C16 C 0.18438 0.37704 0.02441 0.0
H17 H 0.16511 0.37342 0.0273 0.0
H18 H 0.18538 0.40389 0.05993 0.0
H19 H 0.7403 0.59264 0.47764 0.0
C20 C 0.73081 0.59765 0.49757 0.0
C21 C 0.70592 0.5919 0.50062 0.0
C22 C 0.74377 0.60885 0.52071 0.0
H23 H 0.67516 0.59303 0.52983 0.0
C24 C 0.69421 0.59787 0.52698 0.0
C25 C 0.707 0.60885 0.55033 0.0
C26 C 0.7318 0.61452 0.54699 0.0
C27 C 0.77043 0.61144 0.51885 0.0
H28 H 0.74204 0.62232 0.56516 0.0
C29 C 0.78127 0.6314 0.50288 0.0
C30 C 0.80681 0.63311 0.50091 0.0
C31 C 0.78515 0.59337 0.533 0.0
H32 H 0.77702 0.5779 0.54539 0.0
C33 C 0.81044 0.59496 0.531 0.0
H34 H 0.7699 0.64539 0.49197 0.0
C35 C 0.82124 0.61464 0.51502 0.0
H36 H 0.84093 0.61567 0.51406 0.0
H37 H 0.8217 0.58092 0.54191 0.0
H38 H 0.69191 0.36552 0.95 0.0
C39 C 0.69352 0.36551 0.97355 0.0
C40 C 0.6845 0.3862 0.98994 0.0
C41 C 0.70337 0.3439 0.98742 0.0
H42 H 0.67842 0.40042 0.03344 0.0
C43 C 0.68566 0.38484 0.02055 0.0
C44 C 0.69415 0.36276 0.03481 0.0
C45 C 0.70376 0.34266 0.01798 0.0
C46 C 0.70971 0.32101 0.97011 0.0
H47 H 0.71019 0.32537 0.02854 0.0
C48 C 0.7337 0.31159 0.96931 0.0
C49 C 0.73907 0.28911 0.95364 0.0
C50 C 0.69126 0.30797 0.95499 0.0
H51 H 0.67267 0.31491 0.95545 0.0
C52 C 0.69653 0.28558 0.93967 0.0
H53 H 0.74805 0.32164 0.98084 0.0
C54 C 0.72026 0.2761 0.93909 0.0
H55 H 0.72404 0.2588 0.92685 0.0
H56 H 0.68217 0.27553 0.92823 0.0
H57 H 0.31328 0.63579 0.45165 0.0
C58 C 0.3123 0.63684 0.47523 0.0
C59 C 0.32238 0.61719 0.49227 0.0
C60 C 0.30215 0.65871 0.48827 0.0
H61 H 0.33013 0.60493 0.53609 0.0
C62 C 0.32192 0.6197 0.52279 0.0
C63 C 0.31253 0.64179 0.53627 0.0
C64 C 0.30209 0.66101 0.51877 0.0
C65 C 0.29478 0.68051 0.46968 0.0
H66 H 0.29512 0.67836 0.5287 0.0
C67 C 0.27078 0.69004 0.46991 0.0
C68 C 0.264 0.70975 0.45054 0.0
C69 C 0.31205 0.69141 0.45081 0.0
H70 H 0.33063 0.68446 0.45047 0.0
C71 C 0.30556 0.71139 0.43228 0.0
H72 H 0.25729 0.68148 0.48416 0.0
C73 C 0.28171 0.72044 0.432 0.0
H74 H 0.27707 0.73587 0.41723 0.0
H75 H 0.31902 0.71975 0.41789 0.0
H76 H 0.76032 0.91296 0.98394 0.0
C77 C 0.7707 0.90512 0.00195 0.0
C78 C 0.79493 0.91282 0.00624 0.0
C79 C 0.75934 0.88881 0.02223 0.0
H80 H 0.82654 0.90966 0.03363 0.0
C81 C 0.80781 0.90363 0.03039 0.0
C82 C 0.7967 0.88749 0.05087 0.0
C83 C 0.77247 0.87986 0.04651 0.0
C84 C 0.73276 0.88502 0.02119 0.0
H85 H 0.76338 0.86823 0.0628 0.0
C86 C 0.72219 0.86488 0.00519 0.0
C87 C 0.69667 0.8615 0.00514 0.0
C88 C 0.71787 0.90174 0.03709 0.0
H89 H 0.72579 0.91727 0.04957 0.0
C90 C 0.6927 0.89848 0.03719 0.0
H91 H 0.73377 0.85208 0.99281 0.0
C92 C 0.68215 0.87851 0.02146 0.0
H93 H 0.66257 0.87615 0.0225 0.0
H94 H 0.68133 0.91136 0.04969 0.0
H95 H 0.23243 0.09885 0.4762 0.0
C96 C 0.22323 0.10645 0.49523 0.0
C97 C 0.19807 0.10236 0.49909 0.0
C98 C 0.23685 0.11939 0.51656 0.0
H99 H 0.16761 0.10844 0.52818 0.0
C100 C 0.18673 0.11226 0.52418 0.0
C101 C 0.2002 0.12518 0.54559 0.0
C102 C 0.22532 0.12852 0.54178 0.0
C103 C 0.26361 0.12052 0.51445 0.0
H104 H 0.23599 0.13774 0.5587 0.0
C105 C 0.27531 0.13956 0.49787 0.0
C106 C 0.30097 0.14085 0.49701 0.0
C107 C 0.27752 0.10267 0.53 0.0
H108 H 0.26872 0.08798 0.54294 0.0
C109 C 0.30286 0.10373 0.5291 0.0
H110 H 0.26444 0.15326 0.48583 0.0
C111 C 0.31454 0.12268 0.51287 0.0
H112 H 0.33424 0.1234 0.51327 0.0
H113 H 0.3135 0.08997 0.54129 0.0
H114 H 0.20665 0.8657 0.95429 0.0
C115 C 0.20182 0.86663 0.97718 0.0
C116 C 0.19438 0.89001 0.98952 0.0
C117 C 0.20176 0.84414 0.99398 0.0
H118 H 0.18184 0.90863 0.02865 0.0
C119 C 0.18776 0.89072 0.01913 0.0
C120 C 0.1871 0.86834 0.03606 0.0
C121 C 0.19434 0.84515 0.02328 0.0
C122 C 0.20741 0.81904 0.98063 0.0
H123 H 0.19341 0.82756 0.03577 0.0
C124 C 0.22992 0.81459 0.96688 0.0
C125 C 0.23591 0.78994 0.95644 0.0
C126 C 0.19048 0.79899 0.98293 0.0
H127 H 0.17298 0.80206 0.99328 0.0
C128 C 0.19602 0.77478 0.97213 0.0
H129 H 0.24285 0.83017 0.965 0.0
C130 C 0.21859 0.77016 0.95928 0.0
H131 H 0.22263 0.75083 0.95231 0.0
H132 H 0.18294 0.75938 0.97425 0.0
H133 H 0.80052 0.13737 0.46298 0.0
C134 C 0.80314 0.13514 0.48628 0.0
C135 C 0.81422 0.11292 0.49721 0.0
C136 C 0.79766 0.15551 0.5052 0.0
H137 H 0.82685 0.09332 0.53543 0.0
C138 C 0.81852 0.1107 0.52723 0.0
C139 C 0.81384 0.13113 0.5463 0.0
C140 C 0.8031 0.15344 0.53506 0.0
C141 C 0.79006 0.18055 0.4935 0.0
H142 H 0.80022 0.16984 0.54912 0.0
C143 C 0.76617 0.18471 0.48355 0.0
C144 C 0.75881 0.20944 0.47504 0.0
C145 C 0.80671 0.20095 0.494 0.0
H146 H 0.82517 0.19803 0.50166 0.0
C147 C 0.79963 0.22528 0.48489 0.0
H148 H 0.75316 0.16909 0.48359 0.0
C149 C 0.7758 0.22959 0.47566 0.0
H150 H 0.77061 0.24871 0.46896 0.0
H151 H 0.81257 0.24092 0.48533 0.0
Sc152 Sc 0.00137 0.83637 0.32844 0.0
Sc153 Sc 0.99773 0.90341 0.32283 0.0
Sc154 Sc 0.99722 0.87416 0.39222 0.0
O155 O 0.99874 0.8713 0.34787 0.0
C156 C 0.9645 0.82458 0.38076 0.0
C157 C 0.96377 0.8651 0.28661 0.0
C158 C 0.95901 0.91697 0.37261 0.0
C159 C 0.03658 0.86983 0.28819 0.0
C160 C 0.03744 0.83049 0.38272 0.0
C161 C 0.03196 0.9212 0.37535 0.0
O162 O 0.97426 0.81952 0.35631 0.0
O163 O 0.97109 0.88734 0.29375 0.0
O164 O 0.96742 0.90121 0.39123 0.0
O165 O 0.02923 0.8486 0.29843 0.0
O166 O 0.0271 0.84753 0.39826 0.0
O167 O 0.02448 0.92274 0.34918 0.0
O168 O 0.03021 0.82469 0.35721 0.0
O169 O 0.027 0.89112 0.295 0.0
O170 O 0.02368 0.90488 0.39344 0.0
O171 O 0.97274 0.84472 0.2974 0.0
O172 O 0.97051 0.84389 0.39608 0.0
O173 O 0.9682 0.91972 0.34737 0.0
Sc174 Sc 0.00237 0.16256 0.83033 0.0
Sc175 Sc 0.00532 0.09551 0.8262 0.0
Sc176 Sc 0.00562 0.12608 0.89464 0.0
O177 O 0.00448 0.12802 0.85043 0.0
C178 C 0.04025 0.17411 0.88061 0.0
C179 C 0.03865 0.13192 0.78818 0.0
C180 C 0.04358 0.08284 0.87693 0.0
C181 C 0.96565 0.12967 0.79278 0.0
C182 C 0.96723 0.17058 0.88542 0.0
C183 C 0.97051 0.07899 0.87818 0.0
O184 O 0.03291 0.17711 0.85454 0.0
O185 O 0.0338 0.10996 0.79856 0.0
O186 O 0.03648 0.10046 0.89411 0.0
O187 O 0.97154 0.15071 0.80478 0.0
O188 O 0.97477 0.15119 0.89948 0.0
O189 O 0.97705 0.0778 0.85162 0.0
O190 O 0.97669 0.17774 0.86146 0.0
O191 O 0.97731 0.10891 0.79678 0.0
O192 O 0.98006 0.0945 0.89632 0.0
O193 O 0.0276 0.15214 0.79613 0.0
O194 O 0.03103 0.15777 0.89804 0.0
O195 O 0.03327 0.07825 0.85265 0.0
Sc196 Sc 0.50214 0.33327 0.32154 0.0
Sc197 Sc 0.50562 0.4006 0.31829 0.0
Sc198 Sc 0.50359 0.36958 0.38653 0.0
O199 O 0.50375 0.36782 0.34214 0.0
C200 C 0.465 0.32478 0.37435 0.0
C201 C 0.46802 0.36737 0.28078 0.0
C202 C 0.46933 0.41676 0.36961 0.0
C203 C 0.54104 0.36358 0.28256 0.0
C204 C 0.53796 0.3213 0.37482 0.0
C205 C 0.54184 0.4136 0.37075 0.0
O206 O 0.4731 0.31955 0.34906 0.0
O207 O 0.47766 0.38843 0.2885 0.0
O208 O 0.47695 0.39985 0.38736 0.0
O209 O 0.5311 0.34306 0.29165 0.0
O210 O 0.53051 0.33977 0.39053 0.0
O211 O 0.53392 0.41679 0.34499 0.0
O212 O 0.52938 0.31661 0.34961 0.0
O213 O 0.53392 0.3857 0.29043 0.0
O214 O 0.53283 0.39723 0.38825 0.0
O215 O 0.47471 0.34588 0.29104 0.0
O216 O 0.47417 0.34225 0.3903 0.0
O217 O 0.47761 0.41912 0.34382 0.0
Sc218 Sc 0.50236 0.66842 0.8241 0.0
Sc219 Sc 0.49773 0.60129 0.81889 0.0
Sc220 Sc 0.49883 0.63085 0.88796 0.0
O221 O 0.4997 0.63351 0.84369 0.0
C222 C 0.53821 0.67539 0.87841 0.0
C223 C 0.53651 0.63475 0.78327 0.0
C224 C 0.53341 0.58405 0.87012 0.0
C225 C 0.46319 0.63953 0.78395 0.0
C226 C 0.46498 0.67943 0.87599 0.0
C227 C 0.46075 0.58729 0.87032 0.0
O228 O 0.53068 0.6813 0.85308 0.0
O229 O 0.5257 0.61394 0.78943 0.0
O230 O 0.52518 0.6002 0.88844 0.0
O231 O 0.47406 0.65955 0.79297 0.0
O232 O 0.47199 0.66075 0.89167 0.0
O233 O 0.46956 0.58417 0.84498 0.0
O234 O 0.47441 0.68467 0.85137 0.0
O235 O 0.46936 0.61708 0.79177 0.0
O236 O 0.46905 0.6038 0.88811 0.0
O237 O 0.53065 0.65607 0.79464 0.0
O238 O 0.52854 0.65766 0.89353 0.0
O239 O 0.52574 0.5825 0.84398 0.0
H240 H 0.15303 0.36761 0.97688 0.0
H241 H 0.13037 0.33372 0.95222 0.0
H242 H 0.19202 0.28314 0.96082 0.0
H243 H 0.2145 0.31673 0.98656 0.0
H244 H 0.13499 0.30578 0.90446 0.0
H245 H 0.17076 0.22287 0.97544 0.0
H246 H 0.18867 0.21583 0.02416 0.0
H247 H 0.15244 0.28293 0.05639 0.0
H248 H 0.13408 0.29015 0.00801 0.0
H249 H 0.0783 0.19383 0.84961 0.0
H250 H 0.10966 0.22349 0.86679 0.0
H251 H 0.0769 0.22338 0.95241 0.0
H252 H 0.04651 0.19248 0.93572 0.0
H253 H 0.12247 0.22497 0.95931 0.0
H254 H 0.06724 0.27294 0.89743 0.0
H255 H 0.04536 0.28173 0.8515 0.0
H256 H 0.11346 0.2883 0.80606 0.0
H257 H 0.13572 0.27938 0.8517 0.0
C258 C 0.16181 0.34929 0.97347 0.0
C259 C 0.18545 0.34476 0.98408 0.0
C260 C 0.14891 0.33 0.95911 0.0
C261 C 0.15934 0.30575 0.95505 0.0
C262 C 0.18347 0.3016 0.96409 0.0
C263 C 0.19638 0.3209 0.97857 0.0
C264 C 0.14429 0.28454 0.94312 0.0
C265 C 0.13238 0.28803 0.91634 0.0
C266 C 0.14059 0.2615 0.95877 0.0
C267 C 0.15133 0.2572 0.98803 0.0
C268 C 0.16659 0.23607 0.99296 0.0
C269 C 0.17682 0.23205 0.02051 0.0
C270 C 0.17178 0.24898 0.04332 0.0
C271 C 0.15642 0.2699 0.03868 0.0
C272 C 0.14612 0.27397 0.0112 0.0
C273 C 0.07795 0.20002 0.87215 0.0
C274 C 0.05989 0.19102 0.89131 0.0
C275 C 0.09579 0.2171 0.88193 0.0
C276 C 0.09538 0.22625 0.91076 0.0
C277 C 0.07768 0.21669 0.93007 0.0
C278 C 0.06025 0.19907 0.92051 0.0
C279 C 0.1128 0.24629 0.92077 0.0
C280 C 0.12526 0.24256 0.94717 0.0
C281 C 0.11646 0.26942 0.90516 0.0
C282 C 0.10311 0.27529 0.87789 0.0
C283 C 0.07752 0.2762 0.87761 0.0
C284 C 0.06507 0.28121 0.85165 0.0
C285 C 0.07802 0.28552 0.82587 0.0
C286 C 0.10346 0.28495 0.82604 0.0
C287 C 0.116 0.27997 0.85195 0.0
H288 H 0.06834 0.28935 0.80578 0.0
H289 H 0.17973 0.24585 0.06462 0.0
H290 H 0.84245 0.62926 0.45997 0.0
H291 H 0.86602 0.66398 0.43806 0.0
H292 H 0.82244 0.71939 0.48434 0.0
H293 H 0.79833 0.68453 0.5058 0.0
H294 H 0.83407 0.73692 0.4307 0.0
H295 H 0.87723 0.70092 0.51125 0.0
H296 H 0.8952 0.66646 0.54101 0.0
H297 H 0.94272 0.64625 0.47032 0.0
H298 H 0.92477 0.68034 0.43996 0.0
H299 H 0.92911 0.83369 0.42178 0.0
H300 H 0.89919 0.80306 0.44102 0.0
H301 H 0.92857 0.7442 0.38533 0.0
H302 H 0.9581 0.77459 0.36564 0.0
H303 H 0.92332 0.7309 0.44649 0.0
H304 H 0.87886 0.76724 0.36596 0.0
H305 H 0.86162 0.80296 0.3377 0.0
H306 H 0.81691 0.82412 0.41065 0.0
H307 H 0.83439 0.78882 0.43964 0.0
C308 C 0.83772 0.64886 0.46518 0.0
C309 C 0.81879 0.65425 0.48482 0.0
C310 C 0.85121 0.66868 0.45272 0.0
C311 C 0.84639 0.69427 0.46012 0.0
C312 C 0.82658 0.69979 0.47845 0.0
C313 C 0.81282 0.6799 0.49067 0.0
C314 C 0.86304 0.71492 0.45012 0.0
C315 C 0.85353 0.73579 0.43452 0.0
C316 C 0.88849 0.71343 0.45495 0.0
C317 C 0.89951 0.69305 0.47325 0.0
C318 C 0.8914 0.68902 0.50198 0.0
C319 C 0.90159 0.66956 0.51896 0.0
C320 C 0.92005 0.65414 0.50754 0.0
C321 C 0.92841 0.65819 0.47913 0.0
C322 C 0.91824 0.67759 0.46203 0.0
C323 C 0.92912 0.81424 0.41358 0.0
C324 C 0.94597 0.80657 0.39218 0.0
C325 C 0.91199 0.79684 0.42451 0.0
C326 C 0.91172 0.77144 0.41452 0.0
C327 C 0.92852 0.76374 0.39327 0.0
C328 C 0.94531 0.78118 0.38198 0.0
C329 C 0.8944 0.75252 0.42668 0.0
C330 C 0.90382 0.73205 0.44283 0.0
C331 C 0.86895 0.75458 0.42259 0.0
C332 C 0.85817 0.77558 0.4051 0.0
C333 C 0.86554 0.77966 0.37609 0.0
C334 C 0.85568 0.79981 0.35991 0.0
C335 C 0.83819 0.81584 0.37237 0.0
C336 C 0.83049 0.81171 0.40104 0.0
C337 C 0.84038 0.79164 0.41736 0.0
H338 H 0.83057 0.83143 0.3598 0.0
H339 H 0.92792 0.63909 0.52072 0.0
H340 H 0.75557 0.24211 0.96973 0.0
H341 H 0.79638 0.22421 0.96174 0.0
H342 H 0.81954 0.29552 0.92331 0.0
H343 H 0.77889 0.31374 0.93205 0.0
H344 H 0.82716 0.24635 0.88903 0.0
H345 H 0.84228 0.28622 0.98246 0.0
H346 H 0.83385 0.29492 0.03433 0.0
H347 H 0.8418 0.21501 0.05407 0.0
H348 H 0.84991 0.20578 0.0022 0.0
H349 H 0.95059 0.21737 0.86765 0.0
H350 H 0.91337 0.23907 0.88271 0.0
H351 H 0.89732 0.17746 0.94233 0.0
H352 H 0.93492 0.15581 0.92786 0.0
H353 H 0.88597 0.22225 0.96647 0.0
H354 H 0.86959 0.1805 0.87637 0.0
H355 H 0.87692 0.16852 0.8251 0.0
H356 H 0.86884 0.24701 0.79915 0.0
H357 H 0.86186 0.25956 0.85038 0.0
C358 C 0.76953 0.25404 0.96001 0.0
C359 C 0.76426 0.27928 0.9516 0.0
C360 C 0.79274 0.24383 0.95545 0.0
C361 C 0.81087 0.25857 0.94191 0.0
C362 C 0.80574 0.2839 0.93382 0.0
C363 C 0.78266 0.29431 0.93896 0.0
C364 C 0.8348 0.24702 0.93506 0.0
C365 C 0.84025 0.24147 0.90586 0.0
C366 C 0.85131 0.23977 0.95721 0.0
C367 C 0.84643 0.24528 0.98839 0.0
C368 C 0.84197 0.27046 0.9978 0.0
C369 C 0.83731 0.2755 0.02722 0.0
C370 C 0.83722 0.25552 0.04747 0.0
C371 C 0.84184 0.23047 0.03835 0.0
C372 C 0.84649 0.22533 0.00895 0.0
C373 C 0.93928 0.20848 0.88414 0.0
C374 C 0.94569 0.18473 0.89639 0.0
C375 C 0.91794 0.2209 0.89266 0.0
C376 C 0.90232 0.20968 0.91326 0.0
C377 C 0.90907 0.18645 0.92634 0.0
C378 C 0.93057 0.17408 0.91801 0.0
C379 C 0.87858 0.2218 0.92032 0.0
C380 C 0.87303 0.22728 0.94955 0.0
C381 C 0.8617 0.2285 0.89823 0.0
C382 C 0.86544 0.22101 0.86729 0.0
C383 C 0.86953 0.19524 0.85977 0.0
C384 C 0.87361 0.18835 0.83072 0.0
C385 C 0.87341 0.20701 0.80891 0.0
C386 C 0.86903 0.23259 0.81609 0.0
C387 C 0.86499 0.23961 0.84514 0.0
H388 H 0.87659 0.20163 0.78645 0.0
H389 H 0.83362 0.25946 0.07024 0.0
H390 H 0.237 0.71528 0.40146 0.0
H391 H 0.19715 0.73537 0.39651 0.0
H392 H 0.19342 0.74558 0.48975 0.0
H393 H 0.23354 0.725 0.49486 0.0
H394 H 0.14846 0.73271 0.4659 0.0
H395 H 0.21006 0.795 0.44945 0.0
H396 H 0.24788 0.81265 0.42859 0.0
H397 H 0.21769 0.80685 0.34248 0.0
H398 H 0.17981 0.78876 0.36277 0.0
H399 H 0.05425 0.82862 0.43928 0.0
H400 H 0.09143 0.80766 0.45705 0.0
H401 H 0.10757 0.78221 0.36974 0.0
H402 H 0.07065 0.80271 0.35188 0.0
H403 H 0.14675 0.80688 0.39828 0.0
H404 H 0.08639 0.74072 0.41604 0.0
H405 H 0.04875 0.72358 0.43793 0.0
H406 H 0.07678 0.73879 0.52362 0.0
H407 H 0.11448 0.75637 0.50219 0.0
C408 C 0.22762 0.72162 0.42095 0.0
C409 C 0.23851 0.71897 0.4485 0.0
C410 C 0.20485 0.7331 0.41811 0.0
C411 C 0.19256 0.74252 0.44269 0.0
C412 C 0.20269 0.7386 0.47048 0.0
C413 C 0.22554 0.72685 0.47338 0.0
C414 C 0.16991 0.75767 0.4387 0.0
C415 C 0.14814 0.74923 0.45157 0.0
C416 C 0.16947 0.77923 0.41998 0.0
C417 C 0.19214 0.79036 0.40764 0.0
C418 C 0.21154 0.79733 0.42605 0.0
C419 C 0.23299 0.80743 0.41432 0.0
C420 C 0.23521 0.81083 0.38422 0.0
C421 C 0.21595 0.80419 0.36579 0.0
C422 C 0.19447 0.79404 0.3774 0.0
C423 C 0.06567 0.81846 0.42391 0.0
C424 C 0.05942 0.81734 0.39415 0.0
C425 C 0.08684 0.80644 0.43412 0.0
C426 C 0.10219 0.79337 0.41469 0.0
C427 C 0.09597 0.79221 0.38507 0.0
C428 C 0.07476 0.80388 0.37494 0.0
C429 C 0.12521 0.78141 0.42465 0.0
C430 C 0.14712 0.79059 0.41296 0.0
C431 C 0.12573 0.76079 0.44465 0.0
C432 C 0.10311 0.75016 0.45751 0.0
C433 C 0.08443 0.74065 0.43954 0.0
C434 C 0.06311 0.7308 0.45186 0.0
C435 C 0.06034 0.73018 0.48214 0.0
C436 C 0.07893 0.73933 0.50016 0.0
C437 C 0.10028 0.74923 0.48794 0.0
H438 H 0.04382 0.72254 0.49165 0.0
H439 H 0.25183 0.81865 0.37519 0.0
H440 H 0.65457 0.86313 0.97342 0.0
H441 H 0.63222 0.82728 0.95228 0.0
H442 H 0.68955 0.77568 0.97794 0.0
H443 H 0.7119 0.8115 1e-05 0.0
H444 H 0.66951 0.76633 0.92031 0.0
H445 H 0.64378 0.77621 0.01951 0.0
H446 H 0.62949 0.8004 0.06239 0.0
H447 H 0.56477 0.82215 0.0161 0.0
H448 H 0.57887 0.79842 0.97276 0.0
H449 H 0.55756 0.67206 0.93353 0.0
H450 H 0.58942 0.69882 0.95501 0.0
H451 H 0.59665 0.73985 0.87387 0.0
H452 H 0.56511 0.7131 0.85211 0.0
H453 H 0.58838 0.74917 0.9639 0.0
H454 H 0.65471 0.76185 0.86635 0.0
H455 H 0.66984 0.737 0.82437 0.0
H456 H 0.6548 0.66689 0.86977 0.0
H457 H 0.63992 0.6913 0.91222 0.0
C458 C 0.6625 0.84418 0.97462 0.0
C459 C 0.68486 0.84015 0.98889 0.0
C460 C 0.64974 0.82374 0.96236 0.0
C461 C 0.65909 0.79881 0.9639 0.0
C462 C 0.68204 0.79481 0.97659 0.0
C463 C 0.6948 0.81531 0.9891 0.0
C464 C 0.64402 0.77698 0.9538 0.0
C465 C 0.65182 0.76243 0.92985 0.0
C466 C 0.62116 0.77164 0.96668 0.0
C467 C 0.61248 0.78569 0.99282 0.0
C468 C 0.62658 0.78631 0.0184 0.0
C469 C 0.61851 0.79991 0.0428 0.0
C470 C 0.59626 0.81284 0.04195 0.0
C471 C 0.58201 0.81214 0.01672 0.0
C472 C 0.59003 0.79859 0.99224 0.0
C473 C 0.56609 0.68658 0.92011 0.0
C474 C 0.55863 0.69044 0.89108 0.0
C475 C 0.5843 0.70189 0.93247 0.0
C476 C 0.59557 0.72123 0.91601 0.0
C477 C 0.58851 0.7248 0.88688 0.0
C478 C 0.57031 0.70955 0.87453 0.0
C479 C 0.61348 0.73884 0.92976 0.0
C480 C 0.60617 0.75273 0.95445 0.0
C481 C 0.63685 0.74335 0.91767 0.0
C482 C 0.64603 0.72844 0.8924 0.0
C483 C 0.65475 0.74114 0.86745 0.0
C484 C 0.66325 0.72713 0.84356 0.0
C485 C 0.66323 0.7004 0.8444 0.0
C486 C 0.65473 0.6876 0.86914 0.0
C487 C 0.64623 0.70152 0.89311 0.0
H488 H 0.66986 0.68963 0.82591 0.0
H489 H 0.59004 0.82337 0.06087 0.0
H490 H 0.34259 0.13661 0.4645 0.0
H491 H 0.36666 0.17107 0.44301 0.0
H492 H 0.31272 0.22609 0.46999 0.0
H493 H 0.28872 0.19174 0.4924 0.0
H494 H 0.33232 0.23472 0.41234 0.0
H495 H 0.35897 0.22157 0.51095 0.0
H496 H 0.3728 0.19576 0.55279 0.0
H497 H 0.4356 0.17163 0.50429 0.0
H498 H 0.42194 0.19698 0.46197 0.0
H499 H 0.44548 0.32595 0.42943 0.0
H500 H 0.41355 0.29844 0.44937 0.0
H501 H 0.40645 0.26063 0.36621 0.0
H502 H 0.43819 0.28811 0.34596 0.0
H503 H 0.41444 0.24733 0.45531 0.0
H504 H 0.34743 0.24038 0.35792 0.0
H505 H 0.33295 0.26724 0.31724 0.0
H506 H 0.34956 0.33508 0.36626 0.0
H507 H 0.36381 0.30865 0.40737 0.0
C508 C 0.33578 0.15602 0.46591 0.0
C509 C 0.31387 0.16142 0.48062 0.0
C510 C 0.3495 0.17567 0.45343 0.0
C511 C 0.34159 0.20113 0.45521 0.0
C512 C 0.31911 0.20653 0.46839 0.0
C513 C 0.3054 0.18685 0.48111 0.0
C514 C 0.35771 0.2221 0.44506 0.0
C515 C 0.35026 0.23757 0.42171 0.0
C516 C 0.38091 0.22606 0.45769 0.0
C517 C 0.38932 0.211 0.48321 0.0
C518 C 0.37564 0.2106 0.50913 0.0
C519 C 0.38345 0.19608 0.53295 0.0
C520 C 0.40504 0.18202 0.53118 0.0
C521 C 0.41888 0.18251 0.50562 0.0
C522 C 0.41111 0.19697 0.48172 0.0
C523 C 0.43699 0.31197 0.41524 0.0
C524 C 0.44454 0.30923 0.38607 0.0
C525 C 0.41875 0.29622 0.42673 0.0
C526 C 0.4075 0.27758 0.40926 0.0
C527 C 0.41463 0.27511 0.38001 0.0
C528 C 0.43292 0.29078 0.36851 0.0
C529 C 0.38936 0.25971 0.42206 0.0
C530 C 0.39646 0.2447 0.44595 0.0
C531 C 0.36579 0.25641 0.41006 0.0
C532 C 0.35689 0.2725 0.38563 0.0
C533 C 0.34788 0.26103 0.36007 0.0
C534 C 0.33973 0.27618 0.33692 0.0
C535 C 0.3404 0.30285 0.33913 0.0
C536 C 0.34913 0.31443 0.36453 0.0
C537 C 0.35728 0.29936 0.38775 0.0
H538 H 0.3341 0.31455 0.32117 0.0
H539 H 0.41106 0.17079 0.54965 0.0
H540 H 0.24775 0.75651 0.91237 0.0
H541 H 0.2881 0.74183 0.8984 0.0
H542 H 0.32055 0.7971 0.95658 0.0
H543 H 0.28021 0.81025 0.97277 0.0
H544 H 0.32617 0.75782 0.87403 0.0
H545 H 0.37197 0.77468 0.98625 0.0
H546 H 0.36066 0.77729 0.03826 0.0
H547 H 0.29809 0.72997 0.02233 0.0
H548 H 0.30919 0.72682 0.97033 0.0
H549 H 0.45048 0.72664 0.85664 0.0
H550 H 0.41357 0.74995 0.8701 0.0
H551 H 0.39428 0.68965 0.93015 0.0
H552 H 0.43148 0.66672 0.91759 0.0
H553 H 0.38294 0.7329 0.95323 0.0
H554 H 0.37109 0.69382 0.86043 0.0
H555 H 0.38098 0.68423 0.80916 0.0
H556 H 0.37027 0.76315 0.78651 0.0
H557 H 0.36124 0.77344 0.83791 0.0
C558 C 0.26341 0.76542 0.9225 0.0
C559 C 0.26053 0.78416 0.94432 0.0
C560 C 0.28657 0.75722 0.91412 0.0
C561 C 0.30747 0.76787 0.92692 0.0
C562 C 0.30473 0.78804 0.94695 0.0
C563 C 0.28154 0.79584 0.95588 0.0
C564 C 0.33186 0.75677 0.92054 0.0
C565 C 0.33862 0.75252 0.89136 0.0
C566 C 0.34798 0.74921 0.94309 0.0
C567 C 0.34126 0.75079 0.97437 0.0
C568 C 0.35583 0.76479 0.99389 0.0
C569 C 0.34946 0.76636 0.02335 0.0
C570 C 0.32862 0.75388 0.03357 0.0
C571 C 0.31417 0.73971 0.01437 0.0
C572 C 0.32048 0.73804 0.9849 0.0
C573 C 0.43851 0.71848 0.87295 0.0
C574 C 0.44386 0.69474 0.88591 0.0
C575 C 0.41737 0.73179 0.88054 0.0
C576 C 0.40091 0.72135 0.90075 0.0
C577 C 0.40667 0.69811 0.91449 0.0
C578 C 0.42797 0.68499 0.90724 0.0
C579 C 0.3772 0.73396 0.9068 0.0
C580 C 0.37059 0.73848 0.93589 0.0
C581 C 0.36079 0.74068 0.8842 0.0
C582 C 0.36575 0.73447 0.85314 0.0
C583 C 0.37103 0.70919 0.84458 0.0
C584 C 0.37648 0.70361 0.81549 0.0
C585 C 0.37619 0.72304 0.79458 0.0
C586 C 0.3705 0.74811 0.80274 0.0
C587 C 0.36529 0.75385 0.83188 0.0
H588 H 0.38036 0.71866 0.77205 0.0
H589 H 0.3237 0.75515 0.05638 0.0
H590 H 0.7292 0.24638 0.49674 0.0
H591 H 0.68845 0.25816 0.48003 0.0
H592 H 0.69027 0.19697 0.41689 0.0
H593 H 0.73125 0.18494 0.43382 0.0
H594 H 0.67731 0.24527 0.39354 0.0
H595 H 0.65314 0.19051 0.47159 0.0
H596 H 0.65328 0.17347 0.52171 0.0
H597 H 0.62987 0.24639 0.55454 0.0
H598 H 0.62993 0.264 0.50465 0.0
H599 H 0.55719 0.27794 0.35005 0.0
H600 H 0.5914 0.25238 0.36762 0.0
H601 H 0.59844 0.30201 0.44234 0.0
H602 H 0.56401 0.32739 0.42531 0.0
H603 H 0.60496 0.253 0.45778 0.0
H604 H 0.63373 0.30924 0.38237 0.0
H605 H 0.63336 0.32791 0.33309 0.0
H606 H 0.64962 0.25432 0.29616 0.0
H607 H 0.64931 0.23503 0.3453 0.0
C608 C 0.72081 0.23529 0.47948 0.0
C609 C 0.73333 0.21483 0.46646 0.0
C610 C 0.69751 0.24194 0.47006 0.0
C611 C 0.68632 0.22836 0.44732 0.0
C612 C 0.6986 0.20762 0.43454 0.0
C613 C 0.72187 0.20071 0.44427 0.0
C614 C 0.66245 0.23706 0.43598 0.0
C615 C 0.66129 0.2464 0.40733 0.0
C616 C 0.6418 0.23914 0.45428 0.0
C617 C 0.64171 0.22863 0.48436 0.0
C618 C 0.64822 0.20298 0.48951 0.0
C619 C 0.64822 0.19321 0.51789 0.0
C620 C 0.64163 0.20885 0.5413 0.0
C621 C 0.63498 0.23429 0.53638 0.0
C622 C 0.63496 0.24417 0.50805 0.0
C623 C 0.56588 0.28336 0.37033 0.0
C624 C 0.55792 0.30491 0.38612 0.0
C625 C 0.58547 0.26871 0.38033 0.0
C626 C 0.59767 0.27545 0.40612 0.0
C627 C 0.58929 0.29642 0.42239 0.0
C628 C 0.56965 0.31101 0.41251 0.0
C629 C 0.61993 0.26158 0.41549 0.0
C630 C 0.62082 0.2514 0.44379 0.0
C631 C 0.64044 0.25899 0.39698 0.0
C632 C 0.64119 0.27063 0.36748 0.0
C633 C 0.63704 0.29699 0.36373 0.0
C634 C 0.63696 0.30769 0.33581 0.0
C635 C 0.64147 0.29232 0.31147 0.0
C636 C 0.64609 0.2662 0.31503 0.0
C637 C 0.64599 0.25536 0.34291 0.0
H638 H 0.64141 0.30064 0.28986 0.0
H639 H 0.64164 0.20124 0.56325 0.0
H640 H 0.33862 0.3999 0.96413 0.0
H641 H 0.36225 0.43111 0.93624 0.0
H642 H 0.30276 0.48472 0.94144 0.0
H643 H 0.279 0.45353 0.96956 0.0
H644 H 0.33192 0.48761 0.8876 0.0
H645 H 0.33969 0.48919 0.99236 0.0
H646 H 0.34553 0.46821 0.04 0.0
H647 H 0.41625 0.44225 0.01319 0.0
H648 H 0.4106 0.46268 0.96512 0.0
H649 H 0.43336 0.5904 0.9203 0.0
H650 H 0.40087 0.56151 0.93609 0.0
H651 H 0.41023 0.51665 0.85791 0.0
H652 H 0.44223 0.54565 0.84164 0.0
H653 H 0.40253 0.5125 0.94911 0.0
H654 H 0.35696 0.48883 0.83829 0.0
H655 H 0.35018 0.5096 0.79069 0.0
H656 H 0.35289 0.58355 0.83146 0.0
H657 H 0.35922 0.56323 0.87937 0.0
C658 C 0.33029 0.41803 0.95851 0.0
C659 C 0.30715 0.42447 0.96933 0.0
C660 C 0.34377 0.4358 0.94255 0.0
C661 C 0.33436 0.46032 0.93725 0.0
C662 C 0.31029 0.46587 0.94534 0.0
C663 C 0.29674 0.44803 0.96135 0.0
C664 C 0.35096 0.4811 0.92791 0.0
C665 C 0.34737 0.49313 0.90094 0.0
C666 C 0.37073 0.48864 0.94576 0.0
C667 C 0.37464 0.47729 0.97507 0.0
C668 C 0.35644 0.47891 0.99658 0.0
C669 C 0.35971 0.4671 0.02365 0.0
C670 C 0.38122 0.45384 0.0296 0.0
C671 C 0.39957 0.4525 0.00854 0.0
C672 C 0.39636 0.46421 0.98138 0.0
C673 C 0.42839 0.57451 0.90634 0.0
C674 C 0.44043 0.57042 0.87966 0.0
C675 C 0.40983 0.55798 0.91543 0.0
C676 C 0.40292 0.53705 0.89806 0.0
C677 C 0.41488 0.53294 0.87143 0.0
C678 C 0.4333 0.54953 0.86222 0.0
C679 C 0.38394 0.51887 0.90833 0.0
C680 C 0.38706 0.50724 0.93566 0.0
C681 C 0.36358 0.51206 0.89093 0.0
C682 C 0.35878 0.52448 0.8624 0.0
C683 C 0.3559 0.50951 0.83714 0.0
C684 C 0.35216 0.52121 0.8101 0.0
C685 C 0.35117 0.54788 0.80804 0.0
C686 C 0.3537 0.5629 0.83307 0.0
C687 C 0.35738 0.5513 0.86018 0.0
H688 H 0.34847 0.55687 0.78705 0.0
H689 H 0.38368 0.44465 0.05055 0.0
H690 H 0.65925 0.59947 0.48154 0.0
H691 H 0.63425 0.5695 0.45377 0.0
H692 H 0.69695 0.52124 0.44015 0.0
H693 H 0.72181 0.55051 0.46923 0.0
H694 H 0.63116 0.54845 0.4022 0.0
H695 H 0.68017 0.45918 0.44812 0.0
H696 H 0.70538 0.44711 0.4905 0.0
H697 H 0.67248 0.50686 0.54132 0.0
H698 H 0.64685 0.51901 0.49941 0.0
H699 H 0.57464 0.44043 0.33787 0.0
H700 H 0.60553 0.47062 0.35493 0.0
H701 H 0.584 0.45622 0.44395 0.0
H702 H 0.55376 0.42529 0.42709 0.0
H703 H 0.63041 0.46026 0.44239 0.0
H704 H 0.5646 0.51006 0.40387 0.0
H705 H 0.53501 0.52404 0.3667 0.0
H706 H 0.5935 0.54679 0.31024 0.0
H707 H 0.62349 0.5325 0.34684 0.0
C708 C 0.66779 0.58261 0.47236 0.0
C709 C 0.69241 0.57712 0.4781 0.0
C710 C 0.65351 0.56558 0.45627 0.0
C711 C 0.66358 0.54281 0.44544 0.0
C712 C 0.68867 0.53845 0.44882 0.0
C713 C 0.70295 0.55537 0.46518 0.0
C714 C 0.64734 0.52269 0.43328 0.0
C715 C 0.63114 0.5291 0.41079 0.0
C716 C 0.64679 0.49761 0.44504 0.0
C717 C 0.66183 0.49018 0.47052 0.0
C718 C 0.67828 0.46967 0.46838 0.0
C719 C 0.69264 0.46282 0.49231 0.0
C720 C 0.6906 0.47627 0.51855 0.0
C721 C 0.67411 0.49651 0.52096 0.0
C722 C 0.65967 0.50339 0.49712 0.0
C723 C 0.57661 0.44357 0.3611 0.0
C724 C 0.56164 0.43057 0.38113 0.0
C725 C 0.59421 0.46093 0.37082 0.0
C726 C 0.59682 0.46611 0.40071 0.0
C727 C 0.58235 0.4526 0.42077 0.0
C728 C 0.56503 0.43492 0.4111 0.0
C729 C 0.61421 0.48594 0.41117 0.0
C730 C 0.63063 0.47948 0.43344 0.0
C731 C 0.6143 0.51122 0.39993 0.0
C732 C 0.59629 0.51995 0.37797 0.0
C733 C 0.57116 0.51787 0.38344 0.0
C734 C 0.55431 0.52587 0.3625 0.0
C735 C 0.56236 0.53626 0.33613 0.0
C736 C 0.58729 0.53871 0.33066 0.0
C737 C 0.60422 0.53065 0.35149 0.0
H738 H 0.54928 0.54246 0.31995 0.0
H739 H 0.70176 0.47096 0.53703 0.0
H740 H 0.64483 0.41294 0.01015 0.0
H741 H 0.62321 0.44754 0.98686 0.0
H742 H 0.67024 0.44183 0.91179 0.0
H743 H 0.69402 0.4087 0.93651 0.0
H744 H 0.65998 0.48948 0.91957 0.0
H745 H 0.61107 0.41482 0.91357 0.0
H746 H 0.59037 0.37587 0.93115 0.0
H747 H 0.54615 0.42123 0.98849 0.0
H748 H 0.56682 0.46045 0.97156 0.0
H749 H 0.56509 0.55587 0.83683 0.0
H750 H 0.59373 0.52301 0.85369 0.0
H751 H 0.57158 0.53665 0.94252 0.0
H752 H 0.54331 0.56973 0.92608 0.0
H753 H 0.5698 0.48309 0.9209 0.0
H754 H 0.6229 0.55797 0.92574 0.0
H755 H 0.64296 0.59546 0.90353 0.0
H756 H 0.6782 0.54666 0.84113 0.0
H757 H 0.65807 0.5089 0.86274 0.0
C758 C 0.65129 0.41939 0.98911 0.0
C759 C 0.67149 0.40788 0.97545 0.0
C760 C 0.63842 0.43896 0.97545 0.0
C761 C 0.64455 0.44685 0.94715 0.0
C762 C 0.66496 0.4359 0.93353 0.0
C763 C 0.67837 0.41671 0.94759 0.0
C764 C 0.6292 0.46616 0.93194 0.0
C765 C 0.64029 0.48782 0.91946 0.0
C766 C 0.60344 0.46407 0.93151 0.0
C767 C 0.59061 0.44057 0.9414 0.0
C768 C 0.597 0.41649 0.93002 0.0
C769 C 0.58528 0.39436 0.93987 0.0
C770 C 0.56699 0.39607 0.96096 0.0
C771 C 0.56032 0.41994 0.97216 0.0
C772 C 0.57201 0.44213 0.96241 0.0
C773 C 0.56647 0.55201 0.85998 0.0
C774 C 0.55189 0.56537 0.88012 0.0
C775 C 0.58286 0.53331 0.86953 0.0
C776 C 0.58467 0.52747 0.8993 0.0
C777 C 0.57039 0.54095 0.91945 0.0
C778 C 0.55433 0.5599 0.91 0.0
C779 C 0.60059 0.50652 0.90956 0.0
C780 C 0.58952 0.4845 0.92087 0.0
C781 C 0.62625 0.50802 0.90817 0.0
C782 C 0.63878 0.53065 0.89565 0.0
C783 C 0.63478 0.55525 0.90715 0.0
C784 C 0.6462 0.57655 0.89469 0.0
C785 C 0.66178 0.57346 0.87087 0.0
C786 C 0.66609 0.54904 0.85955 0.0
C787 C 0.65471 0.52768 0.87192 0.0
H788 H 0.67055 0.58997 0.86121 0.0
H789 H 0.55796 0.37891 0.9686 0.0
H790 H 0.31062 0.59157 0.44159 0.0
H791 H 0.33349 0.55744 0.41767 0.0
H792 H 0.38563 0.55801 0.48808 0.0
H793 H 0.36422 0.59343 0.51069 0.0
H794 H 0.40916 0.55464 0.44136 0.0
H795 H 0.33927 0.51004 0.47825 0.0
H796 H 0.29558 0.50096 0.48526 0.0
H797 H 0.287 0.4895 0.39311 0.0
H798 H 0.3306 0.49883 0.38551 0.0
H799 H 0.45953 0.42999 0.42592 0.0
H800 H 0.43201 0.46344 0.44328 0.0
H801 H 0.41006 0.47929 0.3549 0.0
H802 H 0.43808 0.44616 0.3371 0.0
H803 H 0.37066 0.47441 0.40621 0.0
H804 H 0.44355 0.51878 0.37233 0.0
H805 H 0.48804 0.52475 0.36977 0.0
H806 H 0.49112 0.5333 0.46284 0.0
H807 H 0.44665 0.52699 0.46595 0.0
C808 C 0.32707 0.5846 0.45188 0.0
C809 C 0.33535 0.59526 0.4783 0.0
C810 C 0.33998 0.56479 0.43834 0.0
C811 C 0.36115 0.55477 0.45123 0.0
C812 C 0.36933 0.56528 0.47765 0.0
C813 C 0.35676 0.58537 0.49087 0.0
C814 C 0.37533 0.5339 0.43702 0.0
C815 C 0.40063 0.53708 0.43393 0.0
C816 C 0.36435 0.511 0.42678 0.0
C817 C 0.33813 0.50543 0.43128 0.0
C818 C 0.32802 0.50579 0.45946 0.0
C819 C 0.30328 0.50056 0.46354 0.0
C820 C 0.28851 0.49474 0.43963 0.0
C821 C 0.29846 0.49406 0.4116 0.0
C822 C 0.32318 0.4993 0.40739 0.0
C823 C 0.44867 0.44035 0.41013 0.0
C824 C 0.45105 0.43547 0.3801 0.0
C825 C 0.43299 0.45946 0.42012 0.0
C826 C 0.4191 0.47375 0.40034 0.0
C827 C 0.42064 0.46835 0.37044 0.0
C828 C 0.43671 0.44953 0.36034 0.0
C829 C 0.40415 0.49531 0.41104 0.0
C830 C 0.37889 0.49219 0.41346 0.0
C831 C 0.41515 0.51804 0.42127 0.0
C832 C 0.44183 0.52215 0.41939 0.0
C833 C 0.45375 0.5217 0.39226 0.0
C834 C 0.47896 0.52519 0.39071 0.0
C835 C 0.49242 0.52933 0.41614 0.0
C836 C 0.48068 0.53006 0.44316 0.0
C837 C 0.45547 0.52655 0.44483 0.0
H838 H 0.51194 0.53203 0.41493 0.0
H839 H 0.26936 0.49069 0.44284 0.0
H840 H 0.80517 0.90983 0.94791 0.0
H841 H 0.83107 0.93936 0.91974 0.0
H842 H 0.83737 0.9885 0.99501 0.0
H843 H 0.81171 0.95915 0.02296 0.0
H844 H 0.83361 0.01625 0.9443 0.0
H845 H 0.87989 0.9454 0.98282 0.0
H846 H 0.88949 0.89974 0.99001 0.0
H847 H 0.89919 0.89038 0.8977 0.0
H848 H 0.88923 0.93595 0.88993 0.0
H849 H 0.94642 0.08011 0.93052 0.0
H850 H 0.91303 0.05258 0.94648 0.0
H851 H 0.91582 0.01174 0.86483 0.0
H852 H 0.94933 0.03911 0.84862 0.0
H853 H 0.91253 0.97943 0.91236 0.0
H854 H 0.87124 0.0534 0.8757 0.0
H855 H 0.86335 0.09968 0.87102 0.0
H856 H 0.84558 0.10387 0.96207 0.0
H857 H 0.85373 0.05767 0.96741 0.0
C858 C 0.81166 0.92727 0.95806 0.0
C859 C 0.80664 0.93228 0.98751 0.0
C860 C 0.8265 0.94402 0.94209 0.0
C861 C 0.83633 0.96599 0.95541 0.0
C862 C 0.82997 0.97172 0.98429 0.0
C863 C 0.8154 0.95494 0.00025 0.0
C864 C 0.85498 0.98186 0.94051 0.0
C865 C 0.85087 0.00823 0.93731 0.0
C866 C 0.8774 0.97133 0.93113 0.0
C867 C 0.88351 0.94398 0.93575 0.0
C868 C 0.88386 0.93355 0.96403 0.0
C869 C 0.8894 0.9077 0.96822 0.0
C870 C 0.89488 0.89215 0.94431 0.0
C871 C 0.89488 0.90244 0.91618 0.0
C872 C 0.88929 0.92827 0.91187 0.0
C873 C 0.94002 0.06526 0.91593 0.0
C874 C 0.95059 0.0619 0.88824 0.0
C875 C 0.92082 0.04962 0.92504 0.0
C876 C 0.91176 0.03031 0.9067 0.0
C877 C 0.92249 0.02659 0.87927 0.0
C878 C 0.94161 0.04232 0.87004 0.0
C879 C 0.89126 0.01387 0.91638 0.0
C880 C 0.89509 0.9874 0.91875 0.0
C881 C 0.86868 0.02437 0.92524 0.0
C882 C 0.86327 0.05208 0.92199 0.0
C883 C 0.86578 0.06421 0.89477 0.0
C884 C 0.86125 0.09043 0.89199 0.0
C885 C 0.85402 0.10472 0.91624 0.0
C886 C 0.8512 0.09278 0.9433 0.0
C887 C 0.85574 0.06657 0.94621 0.0
H888 H 0.85057 0.12502 0.91406 0.0
H889 H 0.89918 0.87214 0.94759 0.0
H890 H 0.21306 0.05814 0.47214 0.0
H891 H 0.18831 0.02798 0.44431 0.0
H892 H 0.12578 0.07708 0.45489 0.0
H893 H 0.15076 0.10809 0.48093 0.0
H894 H 0.15299 1.00053 0.46161 0.0
H895 H 0.08407 0.06832 0.40319 0.0
H896 H 0.084 0.11054 0.37913 0.0
H897 H 0.16059 0.10374 0.362 0.0
H898 H 0.16107 0.06134 0.38559 0.0
H899 H 0.04453 0.93388 0.43133 0.0
H900 H 0.07544 0.96452 0.44713 0.0
H901 H 0.09413 0.97965 0.35737 0.0
H902 H 0.06264 0.94975 0.3414 0.0
H903 H 0.09319 0.02231 0.38449 0.0
H904 H 0.13091 0.94227 0.40324 0.0
H905 H 0.1346 0.89837 0.42248 0.0
H906 H 0.12755 0.9268 0.50993 0.0
H907 H 0.12346 0.97085 0.49119 0.0
C908 C 0.19425 0.06298 0.46772 0.0
C909 C 0.18394 0.08561 0.4789 0.0
C910 C 0.18001 0.0455 0.4521 0.0
C911 C 0.15513 0.05018 0.44738 0.0
C912 C 0.14498 0.07311 0.45775 0.0
C913 C 0.15926 0.09074 0.47301 0.0
C914 C 0.13939 0.03037 0.43353 0.0
C915 C 0.14004 0.0053 0.44461 0.0
C916 C 0.1228 0.0363 0.41088 0.0
C917 C 0.12263 0.06172 0.3964 0.0
C918 C 0.10088 0.07577 0.39417 0.0
C919 C 0.10077 0.09975 0.38064 0.0
C920 C 0.12228 0.10984 0.36912 0.0
C921 C 0.14395 0.09594 0.37103 0.0
C922 C 0.14416 0.07195 0.38452 0.0
C923 C 0.05528 0.94365 0.41495 0.0
C924 C 0.05112 0.93931 0.3851 0.0
C925 C 0.07305 0.96111 0.42401 0.0
C926 C 0.08743 0.97417 0.40347 0.0
C927 C 0.0833 0.96986 0.37366 0.0
C928 C 0.06529 0.95269 0.36456 0.0
C929 C 0.10643 0.9927 0.41308 0.0
C930 C 0.10633 0.01751 0.40128 0.0
C931 C 0.12409 0.9863 0.43436 0.0
C932 C 0.12669 0.95985 0.44578 0.0
C933 C 0.12999 0.93914 0.42656 0.0
C934 C 0.13217 0.91423 0.43738 0.0
C935 C 0.13126 0.90979 0.4674 0.0
C936 C 0.12823 0.93026 0.48667 0.0
C937 C 0.12601 0.95521 0.47597 0.0
H938 H 0.13295 0.89049 0.47573 0.0
H939 H 0.12216 0.12842 0.35866 0.0
H940 H 0.17221 0.89199 0.93626 0.0
H941 H 0.15521 0.92987 0.9127 0.0
H942 H 0.18773 0.97787 0.97858 0.0
H943 H 0.20525 0.94006 0.00198 0.0
H944 H 0.13812 0.98253 0.97584 0.0
H945 H 0.20478 0.98499 0.90917 0.0
H946 H 0.23394 0.96766 0.87339 0.0
H947 H 0.17509 0.94922 0.81542 0.0
H948 H 0.14552 0.96611 0.85103 0.0
H949 H 0.07656 0.09113 0.92093 0.0
H950 H 0.10976 0.06305 0.93629 0.0
H951 H 0.09056 0.00924 0.86868 0.0
H952 H 0.05791 0.03749 0.85263 0.0
H953 H 0.1381 0.01163 0.87291 0.0
H954 H 0.07176 0.00174 0.94072 0.0
H955 H 0.04103 0.01618 0.97632 0.0
H956 H 0.09765 0.04517 0.03186 0.0
H957 H 0.12872 0.03118 0.99638 0.0
C958 C 0.17663 0.91067 0.94506 0.0
C959 C 0.18985 0.91299 0.9712 0.0
C960 C 0.1668 0.93233 0.93161 0.0
C961 C 0.17006 0.95667 0.94402 0.0
C962 C 0.18489 0.95925 0.96875 0.0
C963 C 0.19484 0.93762 0.98211 0.0
C964 C 0.15518 0.97858 0.93378 0.0
C965 C 0.13854 0.98935 0.95349 0.0
C966 C 0.15518 0.98681 0.90442 0.0
C967 C 0.17291 0.97667 0.88289 0.0
C968 C 0.19803 0.97706 0.8889 0.0
C969 C 0.21464 0.96734 0.86862 0.0
C970 C 0.20637 0.9573 0.84218 0.0
C971 C 0.18147 0.957 0.83592 0.0
C972 C 0.16478 0.96667 0.85613 0.0
C973 C 0.07947 0.07338 0.90923 0.0
C974 C 0.06439 0.06647 0.88572 0.0
C975 C 0.09846 0.05732 0.91806 0.0
C976 C 0.10245 0.03382 0.90393 0.0
C977 C 0.08789 0.02727 0.87992 0.0
C978 C 0.06911 0.04343 0.87086 0.0
C979 C 0.1209 0.01538 0.91494 0.0
C980 C 0.13805 0.00516 0.89539 0.0
C981 C 0.12116 0.00728 0.9444 0.0
C982 C 0.10253 0.01571 0.96574 0.0
C983 C 0.07764 0.01138 0.96042 0.0
C984 C 0.06017 0.01945 0.98059 0.0
C985 C 0.06738 0.03166 0.00629 0.0
C986 C 0.09209 0.03576 0.01191 0.0
C987 C 0.10964 0.02776 0.99179 0.0
H988 H 0.05383 0.03789 0.02189 0.0
H989 H 0.21925 0.94979 0.82651 0.0
H990 H 0.79195 0.08223 0.45624 0.0
H991 H 0.81131 0.04775 0.42761 0.0
H992 H 0.88077 0.06659 0.46612 0.0
H993 H 0.86166 0.10063 0.49432 0.0
H994 H 0.8853 0.05739 0.40867 0.0
H995 H 0.84688 0.01866 0.49324 0.0
H996 H 0.8119 0.00787 0.52468 0.0
H997 H 0.77736 0.96914 0.45315 0.0
H998 H 0.81204 0.98001 0.42118 0.0
H999 H 0.93895 0.92376 0.4269 0.0
H1000 H 0.90863 0.95555 0.44133 0.0
H1001 H 0.90191 0.98006 0.3519 0.0
H1002 H 0.93246 0.94868 0.3373 0.0
H1003 H 0.86173 0.96732 0.42848 0.0
H1004 H 0.89822 0.0452 0.3513 0.0
H1005 H 0.93587 0.05632 0.32475 0.0
H1006 H 0.97852 0.01718 0.3893 0.0
H1007 H 0.94116 0.00614 0.4164 0.0
C1008 C 0.81138 0.07908 0.45813 0.0
C1009 C 0.82535 0.09381 0.47754 0.0
C1010 C 0.82238 0.05941 0.44196 0.0
C1011 C 0.84747 0.05454 0.4449 0.0
C1012 C 0.86144 0.07002 0.46343 0.0
C1013 C 0.8505 0.08937 0.47963 0.0
C1014 C 0.85946 0.03269 0.43006 0.0
C1015 C 0.87988 0.0377 0.41258 0.0
C1016 C 0.85265 0.007 0.43555 0.0
C1017 C 0.83187 1.00043 0.45475 0.0
C1018 C 0.83173 0.00803 0.48416 0.0
C1019 C 0.81198 0.00187 0.50208 0.0
C1020 C 0.79238 0.9879 0.49089 0.0
C1021 C 0.79253 0.98001 0.46177 0.0
C1022 C 0.81222 0.98616 0.44374 0.0
C1023 C 0.93081 0.93566 0.41021 0.0
C1024 C 0.93848 0.93391 0.381 0.0
C1025 C 0.91338 0.95376 0.41849 0.0
C1026 C 0.90326 0.97042 0.39776 0.0
C1027 C 0.90975 0.96766 0.36833 0.0
C1028 C 0.92727 0.9497 0.36005 0.0
C1029 C 0.88771 0.99208 0.40736 0.0
C1030 C 0.86671 0.98701 0.42385 0.0
C1031 C 0.89427 0.0178 0.40153 0.0
C1032 C 0.91688 0.02458 0.38562 0.0
C1033 C 0.91565 0.03903 0.35983 0.0
C1034 C 0.93693 0.04532 0.3447 0.0
C1035 C 0.95957 0.03738 0.35526 0.0
C1036 C 0.96098 0.02323 0.38107 0.0
C1037 C 0.93975 0.01693 0.3963 0.0
H1038 H 0.97602 0.04224 0.3435 0.0
H1039 H 0.77712 0.98313 0.5048 0.0
H1040 H 0.30366 0.34828 0.07616 0.0
H1041 H 0.33058 0.34132 0.11812 0.0
H1042 H 0.35836 0.41824 0.1091 0.0
H1043 H 0.3318 0.42512 0.06724 0.0
H1044 H 0.39449 0.38599 0.11551 0.0
H1045 H 0.31784 0.40066 0.16377 0.0
H1046 H 0.27448 0.39289 0.17467 0.0
H1047 H 0.2912 0.31622 0.20179 0.0
H1048 H 0.33464 0.32343 0.19066 0.0
H1049 H 0.4528 0.40858 0.24891 0.0
H1050 H 0.42289 0.40932 0.20969 0.0
H1051 H 0.4095 0.32866 0.22162 0.0
H1052 H 0.43953 0.32762 0.26113 0.0
H1053 H 0.36658 0.35807 0.21339 0.0
H1054 H 0.44407 0.34515 0.16763 0.0
H1055 H 0.48735 0.35417 0.15764 0.0
H1056 H 0.46866 0.42906 0.12627 0.0
H1057 H 0.42528 0.42064 0.1365 0.0
C1058 C 0.31537 0.36373 0.08337 0.0
C1059 C 0.31579 0.38716 0.06832 0.0
C1060 C 0.33071 0.35976 0.10733 0.0
C1061 C 0.34644 0.3793 0.11684 0.0
C1062 C 0.34652 0.40282 0.10207 0.0
C1063 C 0.33137 0.40672 0.0781 0.0
C1064 C 0.36346 0.37525 0.14156 0.0
C1065 C 0.38831 0.38013 0.13697 0.0
C1066 C 0.35554 0.36685 0.16936 0.0
C1067 C 0.32944 0.36249 0.17606 0.0
C1068 C 0.31224 0.38207 0.17182 0.0
C1069 C 0.28766 0.37778 0.17808 0.0
C1070 C 0.28008 0.35405 0.18882 0.0
C1071 C 0.29709 0.33458 0.19341 0.0
C1072 C 0.32169 0.33876 0.18714 0.0
C1073 C 0.44345 0.39096 0.24342 0.0
C1074 C 0.44877 0.36798 0.25809 0.0
C1075 C 0.42638 0.39144 0.22092 0.0
C1076 C 0.41423 0.36899 0.21257 0.0
C1077 C 0.41878 0.34617 0.22772 0.0
C1078 C 0.43601 0.34562 0.2502 0.0
C1079 C 0.39738 0.36942 0.18736 0.0
C1080 C 0.37268 0.36376 0.19184 0.0
C1081 C 0.40537 0.37726 0.15944 0.0
C1082 C 0.43144 0.38233 0.15308 0.0
C1083 C 0.44921 0.36362 0.15882 0.0
C1084 C 0.47376 0.36861 0.15308 0.0
C1085 C 0.48076 0.39219 0.14139 0.0
C1086 C 0.46321 0.41081 0.13535 0.0
C1087 C 0.43864 0.40593 0.14109 0.0
H1088 H 0.49978 0.39602 0.13695 0.0
H1089 H 0.26104 0.35077 0.19367 0.0
H1090 H 0.67846 0.57478 0.57923 0.0
H1091 H 0.65311 0.58264 0.62198 0.0
H1092 H 0.68164 0.65937 0.62839 0.0
H1093 H 0.70716 0.65163 0.58513 0.0
H1094 H 0.67414 0.63248 0.68427 0.0
H1095 H 0.63108 0.65485 0.59649 0.0
H1096 H 0.61677 0.64725 0.54626 0.0
H1097 H 0.57739 0.58079 0.57484 0.0
H1098 H 0.5918 0.58776 0.62518 0.0
H1099 H 0.57041 0.67199 0.771 0.0
H1100 H 0.60286 0.67033 0.73428 0.0
H1101 H 0.58019 0.59421 0.70996 0.0
H1102 H 0.54796 0.59557 0.74642 0.0
H1103 H 0.58572 0.62629 0.66282 0.0
H1104 H 0.62962 0.60118 0.74857 0.0
H1105 H 0.64523 0.60543 0.79874 0.0
H1106 H 0.68335 0.67406 0.77472 0.0
H1107 H 0.66759 0.67047 0.7245 0.0
C1108 C 0.67948 0.59329 0.58983 0.0
C1109 C 0.69438 0.6128 0.57854 0.0
C1110 C 0.6651 0.59769 0.61433 0.0
C1111 C 0.66527 0.62169 0.628 0.0
C1112 C 0.68128 0.64074 0.61802 0.0
C1113 C 0.69577 0.63632 0.59338 0.0
C1114 C 0.64704 0.62721 0.65089 0.0
C1115 C 0.65479 0.63169 0.67959 0.0
C1116 C 0.62184 0.62563 0.64471 0.0
C1117 C 0.61265 0.62174 0.61458 0.0
C1118 C 0.61948 0.63854 0.59204 0.0
C1119 C 0.61135 0.63434 0.56354 0.0
C1120 C 0.59622 0.61353 0.55735 0.0
C1121 C 0.58912 0.59691 0.57967 0.0
C1122 C 0.59724 0.60099 0.60819 0.0
C1123 C 0.57237 0.65489 0.75786 0.0
C1124 C 0.55652 0.63395 0.76161 0.0
C1125 C 0.59098 0.65394 0.73702 0.0
C1126 C 0.5939 0.63213 0.71949 0.0
C1127 C 0.5782 0.61123 0.72327 0.0
C1128 C 0.55981 0.61204 0.7442 0.0
C1129 C 0.61273 0.63117 0.69642 0.0
C1130 C 0.60504 0.62755 0.66756 0.0
C1131 C 0.63791 0.63336 0.70258 0.0
C1132 C 0.64714 0.63576 0.73286 0.0
C1133 C 0.64107 0.61737 0.75407 0.0
C1134 C 0.64999 0.61962 0.78251 0.0
C1135 C 0.66518 0.64006 0.78995 0.0
C1136 C 0.67151 0.65828 0.76896 0.0
C1137 C 0.66258 0.65616 0.7405 0.0
H1138 H 0.67213 0.6417 0.81196 0.0
H1139 H 0.58996 0.6103 0.53528 0.0
H1140 H 0.67712 0.31962 0.06179 0.0
H1141 H 0.65792 0.31703 0.10951 0.0
H1142 H 0.67711 0.39569 0.12651 0.0
H1143 H 0.69769 0.39805 0.0793 0.0
H1144 H 0.67589 0.36906 0.17667 0.0
H1145 H 0.62354 0.38196 0.0952 0.0
H1146 H 0.60629 0.3731 0.0466 0.0
H1147 H 0.5811 0.29973 0.07623 0.0
H1148 H 0.5986 0.30799 0.12492 0.0
H1149 H 0.57152 0.40184 0.26382 0.0
H1150 H 0.60353 0.39902 0.2269 0.0
H1151 H 0.58888 0.31845 0.21638 0.0
H1152 H 0.55685 0.32099 0.25326 0.0
H1153 H 0.58891 0.34551 0.16428 0.0
H1154 H 0.64113 0.3369 0.24899 0.0
H1155 H 0.65817 0.35003 0.29648 0.0
H1156 H 0.68116 0.4216 0.25972 0.0
H1157 H 0.66431 0.40893 0.21198 0.0
C1158 C 0.67826 0.33608 0.07607 0.0
C1159 C 0.68858 0.35923 0.06637 0.0
C1160 C 0.66697 0.33464 0.1033 0.0
C1161 C 0.66538 0.35641 0.12116 0.0
C1162 C 0.67782 0.37874 0.11292 0.0
C1163 C 0.68941 0.38011 0.0858 0.0
C1164 C 0.64832 0.35681 0.1463 0.0
C1165 C 0.65685 0.36402 0.17396 0.0
C1166 C 0.62341 0.35042 0.14275 0.0
C1167 C 0.61262 0.34547 0.11361 0.0
C1168 C 0.61448 0.36385 0.0913 0.0
C1169 C 0.60465 0.35895 0.06374 0.0
C1170 C 0.59266 0.33583 0.05831 0.0
C1171 C 0.59043 0.31761 0.08046 0.0
C1172 C 0.60031 0.32239 0.10804 0.0
C1173 C 0.57519 0.38345 0.25384 0.0
C1174 C 0.56145 0.36167 0.26142 0.0
C1175 C 0.59364 0.38185 0.23288 0.0
C1176 C 0.59868 0.35849 0.21904 0.0
C1177 C 0.58531 0.33665 0.22688 0.0
C1178 C 0.567 0.33816 0.24798 0.0
C1179 C 0.61654 0.35722 0.19481 0.0
C1180 C 0.60803 0.35015 0.16713 0.0
C1181 C 0.64124 0.3644 0.19827 0.0
C1182 C 0.65128 0.37205 0.22699 0.0
C1183 C 0.64966 0.35551 0.25109 0.0
C1184 C 0.65932 0.36284 0.27804 0.0
C1185 C 0.6706 0.38666 0.28117 0.0
C1186 C 0.67238 0.40317 0.25729 0.0
C1187 C 0.66285 0.39589 0.23026 0.0
H1188 H 0.67804 0.3923 0.30206 0.0
H1189 H 0.58505 0.33207 0.03697 0.0
H1190 H 0.32749 0.68606 0.56281 0.0
H1191 H 0.34529 0.69022 0.61124 0.0
H1192 H 0.3285 0.61112 0.62917 0.0
H1193 H 0.30933 0.60718 0.5813 0.0
H1194 H 0.32761 0.63848 0.67882 0.0
H1195 H 0.38226 0.62722 0.59819 0.0
H1196 H 0.39994 0.63746 0.55016 0.0
H1197 H 0.42158 0.71153 0.58156 0.0
H1198 H 0.40363 0.70186 0.62968 0.0
H1199 H 0.43169 0.60256 0.76416 0.0
H1200 H 0.39909 0.60736 0.72829 0.0
H1201 H 0.41503 0.68796 0.72125 0.0
H1202 H 0.44765 0.68344 0.75707 0.0
H1203 H 0.41449 0.66301 0.66829 0.0
H1204 H 0.36336 0.66919 0.75303 0.0
H1205 H 0.3455 0.65572 0.79998 0.0
H1206 H 0.31867 0.58682 0.76039 0.0
H1207 H 0.33666 0.59958 0.71334 0.0
C1208 C 0.32659 0.66982 0.57742 0.0
C1209 C 0.3174 0.6461 0.56786 0.0
C1210 C 0.33705 0.67216 0.60507 0.0
C1211 C 0.33893 0.65076 0.62346 0.0
C1212 C 0.32754 0.62782 0.61522 0.0
C1213 C 0.31678 0.62554 0.58771 0.0
C1214 C 0.35545 0.65124 0.64912 0.0
C1215 C 0.34663 0.64375 0.67657 0.0
C1216 C 0.38027 0.65819 0.64618 0.0
C1217 C 0.39137 0.66394 0.61741 0.0
C1218 C 0.39065 0.64576 0.59479 0.0
C1219 C 0.40072 0.65145 0.56756 0.0
C1220 C 0.41182 0.67516 0.56279 0.0
C1221 C 0.41293 0.69319 0.58527 0.0
C1222 C 0.40281 0.68762 0.61253 0.0
C1223 C 0.42819 0.62137 0.75517 0.0
C1224 C 0.44254 0.64255 0.76331 0.0
C1225 C 0.40938 0.6241 0.73484 0.0
C1226 C 0.40456 0.64804 0.72223 0.0
C1227 C 0.41843 0.66932 0.73078 0.0
C1228 C 0.43712 0.66666 0.75123 0.0
C1229 C 0.38669 0.6504 0.69814 0.0
C1230 C 0.39538 0.65818 0.67079 0.0
C1231 C 0.36195 0.64319 0.70117 0.0
C1232 C 0.35158 0.63525 0.72967 0.0
C1233 C 0.35393 0.65101 0.7544 0.0
C1234 C 0.34375 0.64352 0.78103 0.0
C1235 C 0.33111 0.62039 0.78319 0.0
C1236 C 0.32856 0.60469 0.75872 0.0
C1237 C 0.33872 0.61205 0.73206 0.0
H1238 H 0.32318 0.61468 0.8038 0.0
H1239 H 0.41962 0.67954 0.54169 0.0
H1240 H 0.82133 0.91982 0.08644 0.0
H1241 H 0.84756 0.90894 0.12744 0.0
H1242 H 0.82873 0.82922 0.11773 0.0
H1243 H 0.80218 0.84011 0.0762 0.0
H1244 H 0.83223 0.84696 0.17762 0.0
H1245 H 0.87961 0.84572 0.09036 0.0
H1246 H 0.89375 0.86233 0.04297 0.0
H1247 H 0.9227 0.92913 0.08515 0.0
H1248 H 0.90833 0.91316 0.13275 0.0
H1249 H 0.93896 0.82213 0.26817 0.0
H1250 H 0.90842 0.81947 0.2292 0.0
H1251 H 0.91464 0.90081 0.21507 0.0
H1252 H 0.94487 0.90374 0.25364 0.0
H1253 H 0.91848 0.87295 0.16437 0.0
H1254 H 0.86669 0.87706 0.2498 0.0
H1255 H 0.85005 0.86253 0.29694 0.0
H1256 H 0.82893 0.79104 0.25824 0.0
H1257 H 0.8458 0.80499 0.21094 0.0
C1258 C 0.82267 0.89997 0.09308 0.0
C1259 C 0.81013 0.88072 0.07781 0.0
C1260 C 0.83758 0.8938 0.11656 0.0
C1261 C 0.84042 0.86824 0.12522 0.0
C1262 C 0.82684 0.84905 0.11121 0.0
C1263 C 0.81174 0.85526 0.08757 0.0
C1264 C 0.85884 0.86198 0.14768 0.0
C1265 C 0.85123 0.85204 0.1746 0.0
C1266 C 0.88353 0.86886 0.14367 0.0
C1267 C 0.89277 0.87827 0.11515 0.0
C1268 C 0.88888 0.86402 0.08953 0.0
C1269 C 0.89693 0.87332 0.06262 0.0
C1270 C 0.90909 0.89678 0.06104 0.0
C1271 C 0.91328 0.91095 0.0864 0.0
C1272 C 0.90521 0.90177 0.11336 0.0
C1273 C 0.93374 0.83946 0.25684 0.0
C1274 C 0.94449 0.86313 0.26402 0.0
C1275 C 0.91623 0.8379 0.23466 0.0
C1276 C 0.90932 0.85994 0.21925 0.0
C1277 C 0.9198 0.88355 0.22662 0.0
C1278 C 0.93707 0.88517 0.2488 0.0
C1279 C 0.89177 0.85875 0.19474 0.0
C1280 C 0.89963 0.86727 0.16729 0.0
C1281 C 0.86738 0.85053 0.19834 0.0
C1282 C 0.85781 0.84193 0.22693 0.0
C1283 C 0.8588 0.85811 0.25143 0.0
C1284 C 0.84925 0.85001 0.27815 0.0
C1285 C 0.83848 0.82587 0.28058 0.0
C1286 C 0.83732 0.80972 0.25633 0.0
C1287 C 0.84687 0.81771 0.22957 0.0
H1288 H 0.8309 0.81972 0.3012 0.0
H1289 H 0.91529 0.90397 0.04019 0.0
H1290 H 0.21268 0.11059 0.60046 0.0
H1291 H 0.18858 0.11622 0.64507 0.0
H1292 H 0.13637 0.16141 0.59738 0.0
H1293 H 0.16013 0.1553 0.55253 0.0
H1294 H 0.15058 0.17808 0.6606 0.0
H1295 H 0.12049 0.10745 0.6002 0.0
H1296 H 0.12682 0.06779 0.57203 0.0
H1297 H 0.15524 0.03065 0.6483 0.0
H1298 H 0.14949 0.0703 0.67677 0.0
H1299 H 0.04364 0.16876 0.74631 0.0
H1300 H 0.07434 0.17102 0.70787 0.0
H1301 H 0.10835 0.10264 0.74152 0.0
H1302 H 0.07696 0.09962 0.77911 0.0
H1303 H 0.1062 0.09851 0.68677 0.0
H1304 H 0.13332 0.1654 0.74942 0.0
H1305 H 0.12992 0.20447 0.77933 0.0
H1306 H 0.1111 0.24805 0.70324 0.0
H1307 H 0.11403 0.20916 0.67292 0.0
C1308 C 0.19641 0.12229 0.59973 0.0
C1309 C 0.18817 0.13252 0.57319 0.0
C1310 C 0.18269 0.12546 0.62513 0.0
C1311 C 0.16077 0.13923 0.62439 0.0
C1312 C 0.15334 0.15088 0.59833 0.0
C1313 C 0.16682 0.1473 0.5728 0.0
C1314 C 0.14411 0.13863 0.64969 0.0
C1315 C 0.14067 0.16083 0.66633 0.0
C1316 C 0.13183 0.11586 0.65746 0.0
C1317 C 0.13483 0.0919 0.6405 0.0
C1318 C 0.12829 0.09089 0.61088 0.0
C1319 C 0.13174 0.06841 0.59487 0.0
C1320 C 0.14149 0.04673 0.60834 0.0
C1321 C 0.14773 0.04747 0.63788 0.0
C1322 C 0.14438 0.06994 0.65396 0.0
C1323 C 0.05776 0.1543 0.7456 0.0
C1324 C 0.05787 0.13399 0.76569 0.0
C1325 C 0.07543 0.1557 0.72372 0.0
C1326 C 0.09398 0.13723 0.72198 0.0
C1327 C 0.09425 0.11712 0.74232 0.0
C1328 C 0.07631 0.11542 0.76382 0.0
C1329 C 0.11234 0.13811 0.69812 0.0
C1330 C 0.11613 0.11587 0.68151 0.0
C1331 C 0.12524 0.16078 0.69082 0.0
C1332 C 0.12369 0.18429 0.70892 0.0
C1333 C 0.1283 0.18328 0.73908 0.0
C1334 C 0.12647 0.2054 0.75611 0.0
C1335 C 0.12024 0.22871 0.74321 0.0
C1336 C 0.1159 0.22997 0.71322 0.0
C1337 C 0.11766 0.20789 0.69609 0.0
H1338 H 0.11882 0.24581 0.75644 0.0
H1339 H 0.14415 0.02933 0.59592 0.0
H1340 H 0.14861 0.89682 0.05587 0.0
H1341 H 0.13043 0.89669 0.10419 0.0
H1342 H 0.18188 0.83958 0.13238 0.0
H1343 H 0.20131 0.84051 0.08424 0.0
H1344 H 0.12979 0.82876 0.14258 0.0
H1345 H 0.18995 0.89322 0.16058 0.0
H1346 H 0.21326 0.93246 0.14984 0.0
H1347 H 0.14749 0.97677 0.15292 0.0
H1348 H 0.12372 0.93774 0.16324 0.0
H1349 H 0.07217 0.83374 0.28108 0.0
H1350 H 0.10411 0.83287 0.2439 0.0
H1351 H 0.07734 0.90416 0.20876 0.0
H1352 H 0.04621 0.90571 0.24664 0.0
H1353 H 0.12387 0.90505 0.20666 0.0
H1354 H 0.06302 0.84266 0.17921 0.0
H1355 H 0.03711 0.80453 0.18603 0.0
H1356 H 0.10076 0.75772 0.19652 0.0
H1357 H 0.12704 0.79567 0.19009 0.0
C1358 C 0.15666 0.88473 0.07244 0.0
C1359 C 0.17669 0.86885 0.06608 0.0
C1360 C 0.14605 0.88456 0.10004 0.0
C1361 C 0.15494 0.86827 0.12181 0.0
C1362 C 0.17484 0.85233 0.11577 0.0
C1363 C 0.18579 0.85279 0.08821 0.0
C1364 C 0.14235 0.86719 0.15026 0.0
C1365 C 0.12891 0.84518 0.15705 0.0
C1366 C 0.14077 0.88892 0.16851 0.0
C1367 C 0.15503 0.9125 0.16251 0.0
C1368 C 0.18043 0.9113 0.15875 0.0
C1369 C 0.19373 0.93352 0.15278 0.0
C1370 C 0.18186 0.95709 0.15066 0.0
C1371 C 0.15666 0.9585 0.15457 0.0
C1372 C 0.14327 0.93633 0.16052 0.0
C1373 C 0.07322 0.84928 0.2655 0.0
C1374 C 0.05658 0.8697 0.26662 0.0
C1375 C 0.09143 0.84873 0.2442 0.0
C1376 C 0.09289 0.86821 0.22313 0.0
C1377 C 0.07664 0.88891 0.22475 0.0
C1378 C 0.05879 0.88974 0.24637 0.0
C1379 C 0.11065 0.86679 0.19873 0.0
C1380 C 0.12506 0.88838 0.19262 0.0
C1381 C 0.11273 0.84483 0.18071 0.0
C1382 C 0.09696 0.82203 0.18453 0.0
C1383 C 0.07147 0.82426 0.18318 0.0
C1384 C 0.05673 0.80269 0.18694 0.0
C1385 C 0.06728 0.77874 0.19181 0.0
C1386 C 0.09261 0.7763 0.19282 0.0
C1387 C 0.10743 0.79782 0.18911 0.0
H1388 H 0.05583 0.76205 0.19471 0.0
H1389 H 0.19219 0.97427 0.14603 0.0
H1390 H 0.85634 0.10997 0.56566 0.0
H1391 H 0.87234 0.10913 0.61493 0.0
H1392 H 0.80991 0.15117 0.64569 0.0
H1393 H 0.79287 0.15113 0.59612 0.0
H1394 H 0.85745 0.17105 0.66302 0.0
H1395 H 0.81185 0.09381 0.66727 0.0
H1396 H 0.79636 0.05235 0.64946 0.0
H1397 H 0.86911 0.02234 0.64795 0.0
H1398 H 0.88511 0.06373 0.66533 0.0
H1399 H 0.92436 0.15875 0.796 0.0
H1400 H 0.88969 0.1584 0.76238 0.0
H1401 H 0.92538 0.10043 0.71061 0.0
H1402 H 0.9592 0.09965 0.74503 0.0
H1403 H 0.88003 0.08998 0.7124 0.0
H1404 H 0.92575 0.16921 0.69499 0.0
H1405 H 0.94289 0.21082 0.71019 0.0
H1406 H 0.87152 0.23694 0.73422 0.0
H1407 H 0.85402 0.19538 0.7194 0.0
C1408 C 0.8455 0.11843 0.58287 0.0
C1409 C 0.82301 0.13023 0.57685 0.0
C1410 C 0.85484 0.1181 0.61106 0.0
C1411 C 0.84216 0.1298 0.63394 0.0
C1412 C 0.81986 0.1419 0.62825 0.0
C1413 C 0.81025 0.14195 0.59993 0.0
C1414 C 0.85326 0.13009 0.66331 0.0
C1415 C 0.86187 0.15342 0.67435 0.0
C1416 C 0.85922 0.10703 0.67773 0.0
C1417 C 0.84968 0.08195 0.66754 0.0
C1418 C 0.82457 0.07843 0.66298 0.0
C1419 C 0.81569 0.05492 0.65297 0.0
C1420 C 0.83174 0.03473 0.64755 0.0
C1421 C 0.8567 0.03799 0.65218 0.0
C1422 C 0.86567 0.06146 0.66216 0.0
C1423 C 0.92468 0.14588 0.77746 0.0
C1424 C 0.94452 0.12936 0.77292 0.0
C1425 C 0.90491 0.14575 0.75823 0.0
C1426 C 0.90506 0.12974 0.73359 0.0
C1427 C 0.92473 0.11293 0.72945 0.0
C1428 C 0.94414 0.11256 0.74905 0.0
C1429 C 0.88543 0.13084 0.71129 0.0
C1430 C 0.87512 0.10773 0.70163 0.0
C1431 C 0.87817 0.15409 0.69792 0.0
C1432 C 0.88864 0.17915 0.70639 0.0
C1433 C 0.91375 0.18382 0.70362 0.0
C1434 C 0.92352 0.20738 0.71216 0.0
C1435 C 0.90831 0.22649 0.72324 0.0
C1436 C 0.88328 0.22212 0.72565 0.0
C1437 C 0.87343 0.19858 0.71718 0.0
H1438 H 0.91591 0.2447 0.72989 0.0
H1439 H 0.82483 0.01655 0.6398 0.0
loop_
_geom_bond_atom_site_label_1
_geom_bond_atom_site_label_2
_geom_bond_distance
_geom_bond_site_symmetry_2
_ccdc_geom_bond_type
H0 C1 0.949 . S
C1 H0 0.949 . S
C1 C2 1.395 1_556 S
C1 C3 1.391 1_556 S
C2 C1 1.395 1_554 S
C2 C5 1.390 . S
C3 C1 1.391 1_554 S
C3 C7 1.387 . S
C3 C8 1.491 . S
H4 C5 0.950 . S
C5 C2 1.390 . S
C5 H4 0.950 . S
C5 C6 1.378 . S
C6 C5 1.378 . S
C6 C7 1.409 . S
C7 C3 1.387 . S
C7 C6 1.409 . S
C7 H9 0.951 . S
C8 C3 1.491 . S
C8 C10 1.382 1_554 S
C8 C12 1.404 . S
H9 C7 0.951 . S
C10 C8 1.382 1_556 S
C10 C11 1.390 . S
C10 H15 0.949 . S
C11 C10 1.390 . S
C11 C16 1.399 1_556 S
C12 C8 1.404 . S
C12 H13 0.950 . S
C12 C14 1.375 . S
H13 C12 0.950 . S
C14 C12 1.375 . S
C14 C16 1.382 . S
C14 H18 0.950 . S
H15 C10 0.949 . S
C16 C11 1.399 1_554 S
C16 C14 1.382 . S
C16 H17 0.952 . S
H17 C16 0.952 . S
H18 C14 0.950 . S
H19 C20 0.949 . S
C20 H19 0.949 . S
C20 C21 1.395 . S
C20 C22 1.391 . S
C21 C20 1.395 . S
C21 C24 1.390 . S
C22 C20 1.391 . S
C22 C26 1.387 . S
C22 C27 1.491 . S
H23 C24 0.950 . S
C24 C21 1.390 . S
C24 H23 0.950 . S
C24 C25 1.378 . S
C25 C24 1.378 . S
C25 C26 1.409 . S
C26 C22 1.387 . S
C26 C25 1.409 . S
C26 H28 0.951 . S
C27 C22 1.491 . S
C27 C29 1.382 . S
C27 C31 1.404 . S
H28 C26 0.951 . S
C29 C27 1.382 . S
C29 C30 1.390 . S
C29 H34 0.949 . S
C30 C29 1.390 . S
C30 C35 1.399 . S
C31 C27 1.404 . S
C31 H32 0.950 . S
C31 C33 1.375 . S
H32 C31 0.950 . S
C33 C31 1.375 . S
C33 C35 1.382 . S
C33 H37 0.950 . S
H34 C29 0.949 . S
C35 C30 1.399 . S
C35 C33 1.382 . S
C35 H36 0.952 . S
H36 C35 0.952 . S
H37 C33 0.950 . S
H38 C39 0.949 . S
C39 H38 0.949 . S
C39 C40 1.395 1_556 S
C39 C41 1.391 1_556 S
C40 C39 1.395 1_554 S
C40 C43 1.390 . S
C41 C39 1.391 1_554 S
C41 C45 1.387 . S
C41 C46 1.491 . S
H42 C43 0.950 . S
C43 C40 1.390 . S
C43 H42 0.950 . S
C43 C44 1.378 . S
C44 C43 1.378 . S
C44 C45 1.409 . S
C45 C41 1.387 . S
C45 C44 1.409 . S
C45 H47 0.951 . S
C46 C41 1.491 . S
C46 C48 1.382 1_554 S
C46 C50 1.404 . S
H47 C45 0.951 . S
C48 C46 1.382 1_556 S
C48 C49 1.390 . S
C48 H53 0.949 . S
C49 C48 1.390 . S
C49 C54 1.399 . S
C50 C46 1.404 . S
C50 H51 0.950 . S
C50 C52 1.375 . S
H51 C50 0.950 . S
C52 C50 1.375 . S
C52 C54 1.382 1_554 S
C52 H56 0.950 . S
H53 C48 0.949 . S
C54 C49 1.399 . S
C54 C52 1.382 1_556 S
C54 H55 0.952 . S
H55 C54 0.952 . S
H56 C52 0.950 . S
H57 C58 0.949 . S
C58 H57 0.949 . S
C58 C59 1.395 . S
C58 C60 1.391 . S
C59 C58 1.395 . S
C59 C62 1.390 . S
C60 C58 1.391 . S
C60 C64 1.387 . S
C60 C65 1.491 . S
H61 C62 0.950 . S
C62 C59 1.390 . S
C62 H61 0.950 . S
C62 C63 1.378 . S
C63 C62 1.378 . S
C63 C64 1.409 . S
C64 C60 1.387 . S
C64 C63 1.409 . S
C64 H66 0.951 . S
C65 C60 1.491 . S
C65 C67 1.382 . S
C65 C69 1.404 . S
H66 C64 0.951 . S
C67 C65 1.382 . S
C67 C68 1.390 . S
C67 H72 0.949 . S
C68 C67 1.390 . S
C68 C73 1.399 . S
C69 C65 1.404 . S
C69 H70 0.950 . S
C69 C71 1.375 . S
H70 C69 0.950 . S
C71 C69 1.375 . S
C71 C73 1.382 . S
C71 H75 0.950 . S
H72 C67 0.949 . S
C73 C68 1.399 . S
C73 C71 1.382 . S
C73 H74 0.952 . S
H74 C73 0.952 . S
H75 C71 0.950 . S
H76 C77 0.949 . S
C77 H76 0.949 . S
C77 C78 1.395 1_556 S
C77 C79 1.391 1_556 S
C78 C77 1.395 1_554 S
C78 C81 1.390 . S
C79 C77 1.391 1_554 S
C79 C83 1.387 . S
C79 C84 1.491 . S
H80 C81 0.950 . S
C81 C78 1.390 . S
C81 H80 0.950 . S
C81 C82 1.378 . S
C82 C81 1.378 . S
C82 C83 1.409 . S
C83 C79 1.387 . S
C83 C82 1.409 . S
C83 H85 0.951 . S
C84 C79 1.491 . S
C84 C86 1.382 1_554 S
C84 C88 1.404 . S
H85 C83 0.951 . S
C86 C84 1.382 1_556 S
C86 C87 1.390 . S
C86 H91 0.949 . S
C87 C86 1.390 . S
C87 C92 1.399 1_556 S
C88 C84 1.404 . S
C88 H89 0.950 . S
C88 C90 1.375 . S
H89 C88 0.950 . S
C90 C88 1.375 . S
C90 C92 1.382 . S
C90 H94 0.950 . S
H91 C86 0.949 . S
C92 C87 1.399 1_554 S
C92 C90 1.382 . S
C92 H93 0.952 . S
H93 C92 0.952 . S
H94 C90 0.950 . S
H95 C96 0.949 . S
C96 H95 0.949 . S
C96 C97 1.395 . S
C96 C98 1.391 . S
C97 C96 1.395 . S
C97 C100 1.390 . S
C98 C96 1.391 . S
C98 C102 1.387 . S
C98 C103 1.491 . S
H99 C100 0.950 . S
C100 C97 1.390 . S
C100 H99 0.950 . S
C100 C101 1.378 . S
C101 C100 1.378 . S
C101 C102 1.409 . S
C102 C98 1.387 . S
C102 C101 1.409 . S
C102 H104 0.951 . S
C103 C98 1.491 . S
C103 C105 1.382 . S
C103 C107 1.404 . S
H104 C102 0.951 . S
C105 C103 1.382 . S
C105 C106 1.390 . S
C105 H110 0.949 . S
C106 C105 1.390 . S
C106 C111 1.399 . S
C107 C103 1.404 . S
C107 H108 0.950 . S
C107 C109 1.375 . S
H108 C107 0.950 . S
C109 C107 1.375 . S
C109 C111 1.382 . S
C109 H113 0.950 . S
H110 C105 0.949 . S
C111 C106 1.399 . S
C111 C109 1.382 . S
C111 H112 0.952 . S
H112 C111 0.952 . S
H113 C109 0.950 . S
H114 C115 0.949 . S
C115 H114 0.949 . S
C115 C116 1.395 1_556 S
C115 C117 1.391 1_556 S
C116 C115 1.395 1_554 S
C116 C119 1.390 . S
C117 C115 1.391 1_554 S
C117 C121 1.387 . S
C117 C122 1.491 . S
H118 C119 0.950 . S
C119 C116 1.390 . S
C119 H118 0.950 . S
C119 C120 1.378 . S
C120 C119 1.378 . S
C120 C121 1.409 . S
C121 C117 1.387 . S
C121 C120 1.409 . S
C121 H123 0.951 . S
C122 C117 1.491 . S
C122 C124 1.382 1_554 S
C122 C126 1.404 . S
H123 C121 0.951 . S
C124 C122 1.382 1_556 S
C124 C125 1.390 . S
C124 H129 0.949 . S
C125 C124 1.390 . S
C125 C130 1.399 . S
C126 C122 1.404 . S
C126 H127 0.950 . S
C126 C128 1.375 . S
H127 C126 0.950 . S
C128 C126 1.375 . S
C128 C130 1.382 1_554 S
C128 H132 0.950 . S
H129 C124 0.949 . S
C130 C125 1.399 . S
C130 C128 1.382 1_556 S
C130 H131 0.952 . S
H131 C130 0.952 . S
H132 C128 0.950 . S
H133 C134 0.949 . S
C134 H133 0.949 . S
C134 C135 1.395 . S
C134 C136 1.391 . S
C135 C134 1.395 . S
C135 C138 1.390 . S
C136 C134 1.391 . S
C136 C140 1.387 . S
C136 C141 1.491 . S
H137 C138 0.950 . S
C138 C135 1.390 . S
C138 H137 0.950 . S
C138 C139 1.378 . S
C139 C138 1.378 . S
C139 C140 1.409 . S
C140 C136 1.387 . S
C140 C139 1.409 . S
C140 H142 0.951 . S
C141 C136 1.491 . S
C141 C143 1.382 . S
C141 C145 1.404 . S
H142 C140 0.951 . S
C143 C141 1.382 . S
C143 C144 1.390 . S
C143 H148 0.949 . S
C144 C143 1.390 . S
C144 C149 1.399 . S
C145 C141 1.404 . S
C145 H146 0.950 . S
C145 C147 1.375 . S
H146 C145 0.950 . S
C147 C145 1.375 . S
C147 C149 1.382 . S
C147 H151 0.950 . S
H148 C143 0.949 . S
C149 C144 1.399 . S
C149 C147 1.382 . S
C149 H150 0.952 . S
H150 C149 0.952 . S
H151 C147 0.950 . S
Sc152 O155 2.025 . S
Sc152 O162 2.105 1_455 S
Sc152 O165 2.105 . S
Sc152 O168 2.105 . S
Sc152 O171 2.105 1_455 S
Sc153 O155 2.025 . S
Sc153 O163 2.105 1_455 S
Sc153 O167 2.105 . S
Sc153 O169 2.105 . S
Sc153 O173 2.105 1_455 S
Sc154 O155 2.025 . S
Sc154 O164 2.105 1_455 S
Sc154 O166 2.105 . S
Sc154 O170 2.105 . S
Sc154 O172 2.105 1_455 S
O155 Sc152 2.025 . S
O155 Sc153 2.025 . S
O155 Sc154 2.025 . S
C156 O162 1.268 . S
C156 O172 1.268 . S
C157 O163 1.268 . S
C157 O171 1.268 . S
C158 O164 1.268 . S
C158 O173 1.268 . S
C159 O165 1.268 . S
C159 O169 1.268 . S
C160 O166 1.268 . S
C160 O168 1.268 . S
C161 O167 1.268 . S
C161 O170 1.268 . S
O162 Sc152 2.105 1_655 S
O162 C156 1.268 . S
O163 Sc153 2.105 1_655 S
O163 C157 1.268 . S
O164 Sc154 2.105 1_655 S
O164 C158 1.268 . S
O165 Sc152 2.105 . S
O165 C159 1.268 . S
O166 Sc154 2.105 . S
O166 C160 1.268 . S
O167 Sc153 2.105 . S
O167 C161 1.268 . S
O168 Sc152 2.105 . S
O168 C160 1.268 . S
O169 Sc153 2.105 . S
O169 C159 1.268 . S
O170 Sc154 2.105 . S
O170 C161 1.268 . S
O171 Sc152 2.105 1_655 S
O171 C157 1.268 . S
O172 Sc154 2.105 1_655 S
O172 C156 1.268 . S
O173 Sc153 2.105 1_655 S
O173 C158 1.268 . S
Sc174 O177 2.025 . S
Sc174 O184 2.105 . S
Sc174 O187 2.105 1_455 S
Sc174 O190 2.105 1_455 S
Sc174 O193 2.105 . S
Sc175 O177 2.025 . S
Sc175 O185 2.105 . S
Sc175 O189 2.105 1_455 S
Sc175 O191 2.105 1_455 S
Sc175 O195 2.105 . S
Sc176 O177 2.025 . S
Sc176 O186 2.105 . S
Sc176 O188 2.105 1_455 S
Sc176 O192 2.105 1_455 S
Sc176 O194 2.105 . S
O177 Sc174 2.025 . S
O177 Sc175 2.025 . S
O177 Sc176 2.025 . S
C178 O184 1.268 . S
C178 O194 1.268 . S
C179 O185 1.268 . S
C179 O193 1.268 . S
C180 O186 1.268 . S
C180 O195 1.268 . S
C181 O187 1.268 . S
C181 O191 1.268 . S
C182 O188 1.268 . S
C182 O190 1.268 . S
C183 O189 1.268 . S
C183 O192 1.268 . S
O184 Sc174 2.105 . S
O184 C178 1.268 . S
O185 Sc175 2.105 . S
O185 C179 1.268 . S
O186 Sc176 2.105 . S
O186 C180 1.268 . S
O187 Sc174 2.105 1_655 S
O187 C181 1.268 . S
O188 Sc176 2.105 1_655 S
O188 C182 1.268 . S
O189 Sc175 2.105 1_655 S
O189 C183 1.268 . S
O190 Sc174 2.105 1_655 S
O190 C182 1.268 . S
O191 Sc175 2.105 1_655 S
O191 C181 1.268 . S
O192 Sc176 2.105 1_655 S
O192 C183 1.268 . S
O193 Sc174 2.105 . S
O193 C179 1.268 . S
O194 Sc176 2.105 . S
O194 C178 1.268 . S
O195 Sc175 2.105 . S
O195 C180 1.268 . S
Sc196 O199 2.025 . S
Sc196 O206 2.105 . S
Sc196 O209 2.105 . S
Sc196 O212 2.105 . S
Sc196 O215 2.105 . S
Sc197 O199 2.025 . S
Sc197 O207 2.105 . S
Sc197 O211 2.105 . S
Sc197 O213 2.105 . S
Sc197 O217 2.105 . S
Sc198 O199 2.025 . S
Sc198 O208 2.105 . S
Sc198 O210 2.105 . S
Sc198 O214 2.105 . S
Sc198 O216 2.105 . S
O199 Sc196 2.025 . S
O199 Sc197 2.025 . S
O199 Sc198 2.025 . S
C200 O206 1.268 . S
C200 O216 1.268 . S
C201 O207 1.268 . S
C201 O215 1.268 . S
C202 O208 1.268 . S
C202 O217 1.268 . S
C203 O209 1.268 . S
C203 O213 1.268 . S
C204 O210 1.268 . S
C204 O212 1.268 . S
C205 O211 1.268 . S
C205 O214 1.268 . S
O206 Sc196 2.105 . S
O206 C200 1.268 . S
O207 Sc197 2.105 . S
O207 C201 1.268 . S
O208 Sc198 2.105 . S
O208 C202 1.268 . S
O209 Sc196 2.105 . S
O209 C203 1.268 . S
O210 Sc198 2.105 . S
O210 C204 1.268 . S
O211 Sc197 2.105 . S
O211 C205 1.268 . S
O212 Sc196 2.105 . S
O212 C204 1.268 . S
O213 Sc197 2.105 . S
O213 C203 1.268 . S
O214 Sc198 2.105 . S
O214 C205 1.268 . S
O215 Sc196 2.105 . S
O215 C201 1.268 . S
O216 Sc198 2.105 . S
O216 C200 1.268 . S
O217 Sc197 2.105 . S
O217 C202 1.268 . S
Sc218 O221 2.025 . S
Sc218 O228 2.105 . S
Sc218 O231 2.105 . S
Sc218 O234 2.105 . S
Sc218 O237 2.105 . S
Sc219 O221 2.025 . S
Sc219 O229 2.105 . S
Sc219 O233 2.105 . S
Sc219 O235 2.105 . S
Sc219 O239 2.105 . S
Sc220 O221 2.025 . S
Sc220 O230 2.105 . S
Sc220 O232 2.105 . S
Sc220 O236 2.105 . S
Sc220 O238 2.105 . S
O221 Sc218 2.025 . S
O221 Sc219 2.025 . S
O221 Sc220 2.025 . S
C222 O228 1.268 . S
C222 O238 1.268 . S
C223 O229 1.268 . S
C223 O237 1.268 . S
C224 O230 1.268 . S
C224 O239 1.268 . S
C225 O231 1.268 . S
C225 O235 1.268 . S
C226 O232 1.268 . S
C226 O234 1.268 . S
C227 O233 1.268 . S
C227 O236 1.268 . S
O228 Sc218 2.105 . S
O228 C222 1.268 . S
O229 Sc219 2.105 . S
O229 C223 1.268 . S
O230 Sc220 2.105 . S
O230 C224 1.268 . S
O231 Sc218 2.105 . S
O231 C225 1.268 . S
O232 Sc220 2.105 . S
O232 C226 1.268 . S
O233 Sc219 2.105 . S
O233 C227 1.268 . S
O234 Sc218 2.105 . S
O234 C226 1.268 . S
O235 Sc219 2.105 . S
O235 C225 1.268 . S
O236 Sc220 2.105 . S
O236 C227 1.268 . S
O237 Sc218 2.105 . S
O237 C223 1.268 . S
O238 Sc220 2.105 . S
O238 C222 1.268 . S
O239 Sc219 2.105 . S
O239 C224 1.268 . S
H240 C258 0.951 . S
H241 C260 0.951 . S
H242 C262 0.950 . S
H243 C263 0.950 . S
H244 C265 0.950 . S
H245 C268 0.950 1_556 S
H246 C269 0.950 . S
H247 C271 0.950 . S
H248 C272 0.950 . S
H249 C273 0.951 . S
H250 C275 0.951 . S
H251 C277 0.950 . S
H252 C278 0.950 . S
H253 C280 0.950 . S
H254 C283 0.950 . S
H255 C284 0.950 . S
H256 C286 0.950 . S
H257 C287 0.950 . S
C258 H240 0.951 . S
C258 C259 1.366 . S
C258 C260 1.388 . S
C259 C258 1.366 . S
C259 C263 1.385 . S
C260 H241 0.951 . S
C260 C258 1.388 . S
C260 C261 1.366 . S
C261 C260 1.366 . S
C261 C262 1.414 . S
C261 C264 1.499 . S
C262 H242 0.950 . S
C262 C261 1.414 . S
C262 C263 1.374 . S
C263 H243 0.950 . S
C263 C259 1.385 . S
C263 C262 1.374 . S
C264 C261 1.499 . S
C264 C265 1.373 . S
C264 C266 1.389 . S
C265 H244 0.950 . S
C265 C264 1.373 . S
C265 C281 1.377 . S
C266 C264 1.389 . S
C266 C267 1.524 . S
C266 C280 1.377 . S
C267 C266 1.524 . S
C267 C268 1.397 1_556 S
C267 C272 1.363 . S
C268 H245 0.950 1_554 S
C268 C267 1.397 1_554 S
C268 C269 1.334 . S
C269 H246 0.950 . S
C269 C268 1.334 . S
C269 C270 1.287 . S
C270 C269 1.287 . S
C270 C271 1.524 . S
C270 H289 0.913 . S
C271 H247 0.950 . S
C271 C270 1.524 . S
C271 C272 1.415 1_554 S
C272 H248 0.950 . S
C272 C267 1.363 . S
C272 C271 1.415 1_556 S
C273 H249 0.951 . S
C273 C274 1.366 . S
C273 C275 1.388 . S
C274 C273 1.366 . S
C274 C278 1.385 . S
C275 H250 0.951 . S
C275 C273 1.388 . S
C275 C276 1.366 . S
C276 C275 1.366 . S
C276 C277 1.414 . S
C276 C279 1.499 . S
C277 H251 0.950 . S
C277 C276 1.414 . S
C277 C278 1.374 . S
C278 H252 0.950 . S
C278 C274 1.385 . S
C278 C277 1.374 . S
C279 C276 1.499 . S
C279 C280 1.373 . S
C279 C281 1.389 . S
C280 H253 0.950 . S
C280 C266 1.377 . S
C280 C279 1.373 . S
C281 C265 1.377 . S
C281 C279 1.389 . S
C281 C282 1.524 . S
C282 C281 1.524 . S
C282 C283 1.397 . S
C282 C287 1.363 . S
C283 H254 0.950 . S
C283 C282 1.397 . S
C283 C284 1.334 . S
C284 H255 0.950 . S
C284 C283 1.334 . S
C284 C285 1.287 . S
C285 C284 1.287 . S
C285 C286 1.524 . S
C285 H288 0.999 . S
C286 H256 0.950 . S
C286 C285 1.524 . S
C286 C287 1.415 . S
C287 H257 0.950 . S
C287 C282 1.363 . S
C287 C286 1.415 . S
H288 C285 0.999 . S
H289 C270 0.913 . S
H290 C308 0.951 . S
H291 C310 0.951 . S
H292 C312 0.950 . S
H293 C313 0.950 . S
H294 C315 0.950 . S
H295 C318 0.950 . S
H296 C319 0.950 . S
H297 C321 0.950 . S
H298 C322 0.950 . S
H299 C323 0.951 . S
H300 C325 0.951 . S
H301 C327 0.950 . S
H302 C328 0.950 . S
H303 C330 0.950 . S
H304 C333 0.950 . S
H305 C334 0.950 . S
H306 C336 0.950 . S
H307 C337 0.950 . S
C308 H290 0.951 . S
C308 C309 1.366 . S
C308 C310 1.388 . S
C309 C308 1.366 . S
C309 C313 1.385 . S
C310 H291 0.951 . S
C310 C308 1.388 . S
C310 C311 1.366 . S
C311 C310 1.366 . S
C311 C312 1.414 . S
C311 C314 1.499 . S
C312 H292 0.950 . S
C312 C311 1.414 . S
C312 C313 1.374 . S
C313 H293 0.950 . S
C313 C309 1.385 . S
C313 C312 1.374 . S
C314 C311 1.499 . S
C314 C315 1.373 . S
C314 C316 1.389 . S
C315 H294 0.950 . S
C315 C314 1.373 . S
C315 C331 1.377 . S
C316 C314 1.389 . S
C316 C317 1.524 . S
C316 C330 1.377 . S
C317 C316 1.524 . S
C317 C318 1.397 . S
C317 C322 1.363 . S
C318 H295 0.950 . S
C318 C317 1.397 . S
C318 C319 1.334 . S
C319 H296 0.950 . S
C319 C318 1.334 . S
C319 C320 1.287 . S
C320 C319 1.287 . S
C320 C321 1.524 . S
C320 H339 0.913 . S
C321 H297 0.950 . S
C321 C320 1.524 . S
C321 C322 1.415 . S
C322 H298 0.950 . S
C322 C317 1.363 . S
C322 C321 1.415 . S
C323 H299 0.951 . S
C323 C324 1.366 . S
C323 C325 1.388 . S
C324 C323 1.366 . S
C324 C328 1.385 . S
C325 H300 0.951 . S
C325 C323 1.388 . S
C325 C326 1.366 . S
C326 C325 1.366 . S
C326 C327 1.414 . S
C326 C329 1.499 . S
C327 H301 0.950 . S
C327 C326 1.414 . S
C327 C328 1.374 . S
C328 H302 0.950 . S
C328 C324 1.385 . S
C328 C327 1.374 . S
C329 C326 1.499 . S
C329 C330 1.373 . S
C329 C331 1.389 . S
C330 H303 0.950 . S
C330 C316 1.377 . S
C330 C329 1.373 . S
C331 C315 1.377 . S
C331 C329 1.389 . S
C331 C332 1.524 . S
C332 C331 1.524 . S
C332 C333 1.397 . S
C332 C337 1.363 . S
C333 H304 0.950 . S
C333 C332 1.397 . S
C333 C334 1.334 . S
C334 H305 0.950 . S
C334 C333 1.334 . S
C334 C335 1.287 . S
C335 C334 1.287 . S
C335 C336 1.524 . S
C335 H338 0.999 . S
C336 H306 0.950 . S
C336 C335 1.524 . S
C336 C337 1.415 . S
C337 H307 0.950 . S
C337 C332 1.363 . S
C337 C336 1.415 . S
H338 C335 0.999 . S
H339 C320 0.913 . S
H340 C358 0.985 . S
H341 C360 0.951 . S
H342 C362 0.950 . S
H343 C363 0.950 . S
H344 C365 0.950 . S
H345 C368 0.950 . S
H346 C369 0.950 . S
H347 C371 0.950 . S
H348 C372 0.955 . S
H349 C373 0.951 . S
H350 C375 0.951 . S
H351 C377 0.950 . S
H352 C378 0.950 . S
H353 C380 0.950 . S
H354 C383 0.950 . S
H355 C384 0.950 . S
H356 C386 0.950 . S
H357 C387 0.950 . S
C358 H340 0.985 . S
C358 C359 1.366 . S
C358 C360 1.388 . S
C359 C358 1.366 . S
C359 C363 1.385 . S
C360 H341 0.951 . S
C360 C358 1.388 . S
C360 C361 1.366 . S
C361 C360 1.366 . S
C361 C362 1.414 . S
C361 C364 1.499 . S
C362 H342 0.950 . S
C362 C361 1.414 . S
C362 C363 1.374 . S
C363 H343 0.950 . S
C363 C359 1.385 . S
C363 C362 1.374 . S
C364 C361 1.499 . S
C364 C365 1.373 . S
C364 C366 1.389 . S
C365 H344 0.950 . S
C365 C364 1.373 . S
C365 C381 1.377 . S
C366 C364 1.389 . S
C366 C367 1.524 . S
C366 C380 1.377 . S
C367 C366 1.524 . S
C367 C368 1.397 . S
C367 C372 1.363 1_556 S
C368 H345 0.950 . S
C368 C367 1.397 . S
C368 C369 1.334 1_556 S
C369 H346 0.950 . S
C369 C368 1.334 1_554 S
C369 C370 1.287 . S
C370 C369 1.287 . S
C370 C371 1.524 . S
C370 H389 0.913 . S
C371 H347 0.950 . S
C371 C370 1.524 . S
C371 C372 1.415 . S
C372 H348 0.955 . S
C372 C367 1.363 1_554 S
C372 C371 1.415 . S
C373 H349 0.951 . S
C373 C374 1.366 . S
C373 C375 1.388 . S
C374 C373 1.366 . S
C374 C378 1.385 . S
C375 H350 0.951 . S
C375 C373 1.388 . S
C375 C376 1.366 . S
C376 C375 1.366 . S
C376 C377 1.414 . S
C376 C379 1.499 . S
C377 H351 0.950 . S
C377 C376 1.414 . S
C377 C378 1.374 . S
C378 H352 0.950 . S
C378 C374 1.385 . S
C378 C377 1.374 . S
C379 C376 1.499 . S
C379 C380 1.373 . S
C379 C381 1.389 . S
C380 H353 0.950 . S
C380 C366 1.377 . S
C380 C379 1.373 . S
C381 C365 1.377 . S
C381 C379 1.389 . S
C381 C382 1.524 . S
C382 C381 1.524 . S
C382 C383 1.397 . S
C382 C387 1.363 . S
C383 H354 0.950 . S
C383 C382 1.397 . S
C383 C384 1.334 . S
C384 H355 0.950 . S
C384 C383 1.334 . S
C384 C385 1.287 . S
C385 C384 1.287 . S
C385 C386 1.524 . S
C385 H388 0.999 . S
C386 H356 0.950 . S
C386 C385 1.524 . S
C386 C387 1.415 . S
C387 H357 0.950 . S
C387 C382 1.363 . S
C387 C386 1.415 . S
H388 C385 0.999 . S
H389 C370 0.913 . S
H390 C408 0.951 . S
H391 C410 0.951 . S
H392 C412 0.950 . S
H393 C413 0.950 . S
H394 C415 0.950 . S
H395 C418 0.950 . S
H396 C419 0.950 . S
H397 C421 0.950 . S
H398 C422 0.950 . S
H399 C423 0.951 . S
H400 C425 0.951 . S
H401 C427 0.950 . S
H402 C428 0.950 . S
H403 C430 0.950 . S
H404 C433 0.950 . S
H405 C434 0.950 . S
H406 C436 0.950 . S
H407 C437 0.950 . S
C408 H390 0.951 . S
C408 C409 1.366 . S
C408 C410 1.388 . S
C409 C408 1.366 . S
C409 C413 1.385 . S
C410 H391 0.951 . S
C410 C408 1.388 . S
C410 C411 1.366 . S
C411 C410 1.366 . S
C411 C412 1.414 . S
C411 C414 1.499 . S
C412 H392 0.950 . S
C412 C411 1.414 . S
C412 C413 1.374 . S
C413 H393 0.950 . S
C413 C409 1.385 . S
C413 C412 1.374 . S
C414 C411 1.499 . S
C414 C415 1.373 . S
C414 C416 1.389 . S
C415 H394 0.950 . S
C415 C414 1.373 . S
C415 C431 1.377 . S
C416 C414 1.389 . S
C416 C417 1.524 . S
C416 C430 1.377 . S
C417 C416 1.524 . S
C417 C418 1.397 . S
C417 C422 1.363 . S
C418 H395 0.950 . S
C418 C417 1.397 . S
C418 C419 1.334 . S
C419 H396 0.950 . S
C419 C418 1.334 . S
C419 C420 1.287 . S
C420 C419 1.287 . S
C420 C421 1.524 . S
C420 H439 0.913 . S
C421 H397 0.950 . S
C421 C420 1.524 . S
C421 C422 1.415 . S
C422 H398 0.950 . S
C422 C417 1.363 . S
C422 C421 1.415 . S
C423 H399 0.951 . S
C423 C424 1.366 . S
C423 C425 1.388 . S
C424 C423 1.366 . S
C424 C428 1.385 . S
C425 H400 0.951 . S
C425 C423 1.388 . S
C425 C426 1.366 . S
C426 C425 1.366 . S
C426 C427 1.414 . S
C426 C429 1.499 . S
C427 H401 0.950 . S
C427 C426 1.414 . S
C427 C428 1.374 . S
C428 H402 0.950 . S
C428 C424 1.385 . S
C428 C427 1.374 . S
C429 C426 1.499 . S
C429 C430 1.373 . S
C429 C431 1.389 . S
C430 H403 0.950 . S
C430 C416 1.377 . S
C430 C429 1.373 . S
C431 C415 1.377 . S
C431 C429 1.389 . S
C431 C432 1.524 . S
C432 C431 1.524 . S
C432 C433 1.397 . S
C432 C437 1.363 . S
C433 H404 0.950 . S
C433 C432 1.397 . S
C433 C434 1.334 . S
C434 H405 0.950 . S
C434 C433 1.334 . S
C434 C435 1.287 . S
C435 C434 1.287 . S
C435 C436 1.524 . S
C435 H438 0.999 . S
C436 H406 0.950 . S
C436 C435 1.524 . S
C436 C437 1.415 . S
C437 H407 0.950 . S
C437 C432 1.363 . S
C437 C436 1.415 . S
H438 C435 0.999 . S
H439 C420 0.913 . S
H440 C458 0.951 . S
H441 C460 0.951 . S
H442 C462 0.950 . S
H443 C463 0.950 . S
H444 C465 0.950 . S
H445 C468 0.950 1_556 S
H446 C469 0.950 . S
H447 C471 0.950 . S
H448 C472 0.950 . S
H449 C473 0.951 . S
H450 C475 0.951 . S
H451 C477 0.950 . S
H452 C478 0.950 . S
H453 C480 0.950 . S
H454 C483 0.950 . S
H455 C484 0.950 . S
H456 C486 0.950 . S
H457 C487 0.950 . S
C458 H440 0.951 . S
C458 C459 1.366 . S
C458 C460 1.388 . S
C459 C458 1.366 . S
C459 C463 1.385 . S
C460 H441 0.951 . S
C460 C458 1.388 . S
C460 C461 1.366 . S
C461 C460 1.366 . S
C461 C462 1.414 . S
C461 C464 1.499 . S
C462 H442 0.950 . S
C462 C461 1.414 . S
C462 C463 1.374 . S
C463 H443 0.950 . S
C463 C459 1.385 . S
C463 C462 1.374 . S
C464 C461 1.499 . S
C464 C465 1.373 . S
C464 C466 1.389 . S
C465 H444 0.950 . S
C465 C464 1.373 . S
C465 C481 1.377 . S
C466 C464 1.389 . S
C466 C467 1.524 . S
C466 C480 1.377 . S
C467 C466 1.524 . S
C467 C468 1.397 1_556 S
C467 C472 1.363 . S
C468 H445 0.950 1_554 S
C468 C467 1.397 1_554 S
C468 C469 1.334 . S
C469 H446 0.950 . S
C469 C468 1.334 . S
C469 C470 1.287 . S
C470 C469 1.287 . S
C470 C471 1.524 . S
C470 H489 0.913 . S
C471 H447 0.950 . S
C471 C470 1.524 . S
C471 C472 1.415 1_554 S
C472 H448 0.950 . S
C472 C467 1.363 . S
C472 C471 1.415 1_556 S
C473 H449 0.951 . S
C473 C474 1.366 . S
C473 C475 1.388 . S
C474 C473 1.366 . S
C474 C478 1.385 . S
C475 H450 0.951 . S
C475 C473 1.388 . S
C475 C476 1.366 . S
C476 C475 1.366 . S
C476 C477 1.414 . S
C476 C479 1.499 . S
C477 H451 0.950 . S
C477 C476 1.414 . S
C477 C478 1.374 . S
C478 H452 0.950 . S
C478 C474 1.385 . S
C478 C477 1.374 . S
C479 C476 1.499 . S
C479 C480 1.373 . S
C479 C481 1.389 . S
C480 H453 0.950 . S
C480 C466 1.377 . S
C480 C479 1.373 . S
C481 C465 1.377 . S
C481 C479 1.389 . S
C481 C482 1.524 . S
C482 C481 1.524 . S
C482 C483 1.397 . S
C482 C487 1.363 . S
C483 H454 0.950 . S
C483 C482 1.397 . S
C483 C484 1.334 . S
C484 H455 0.950 . S
C484 C483 1.334 . S
C484 C485 1.287 . S
C485 C484 1.287 . S
C485 C486 1.524 . S
C485 H488 0.999 . S
C486 H456 0.950 . S
C486 C485 1.524 . S
C486 C487 1.415 . S
C487 H457 0.950 . S
C487 C482 1.363 . S
C487 C486 1.415 . S
H488 C485 0.999 . S
H489 C470 0.913 . S
H490 C508 0.951 . S
H491 C510 0.951 . S
H492 C512 0.950 . S
H493 C513 0.950 . S
H494 C515 0.950 . S
H495 C518 0.950 . S
H496 C519 0.950 . S
H497 C521 0.950 . S
H498 C522 0.950 . S
H499 C523 0.951 . S
H500 C525 0.951 . S
H501 C527 0.950 . S
H502 C528 0.950 . S
H503 C530 0.950 . S
H504 C533 0.950 . S
H505 C534 0.950 . S
H506 C536 0.950 . S
H507 C537 0.950 . S
C508 H490 0.951 . S
C508 C509 1.366 . S
C508 C510 1.388 . S
C509 C508 1.366 . S
C509 C513 1.385 . S
C510 H491 0.951 . S
C510 C508 1.388 . S
C510 C511 1.366 . S
C511 C510 1.366 . S
C511 C512 1.414 . S
C511 C514 1.499 . S
C512 H492 0.950 . S
C512 C511 1.414 . S
C512 C513 1.374 . S
C513 H493 0.950 . S
C513 C509 1.385 . S
C513 C512 1.374 . S
C514 C511 1.499 . S
C514 C515 1.373 . S
C514 C516 1.389 . S
C515 H494 0.950 . S
C515 C514 1.373 . S
C515 C531 1.377 . S
C516 C514 1.389 . S
C516 C517 1.524 . S
C516 C530 1.377 . S
C517 C516 1.524 . S
C517 C518 1.397 . S
C517 C522 1.363 . S
C518 H495 0.950 . S
C518 C517 1.397 . S
C518 C519 1.334 . S
C519 H496 0.950 . S
C519 C518 1.334 . S
C519 C520 1.287 . S
C520 C519 1.287 . S
C520 C521 1.524 . S
C520 H539 0.913 . S
C521 H497 0.950 . S
C521 C520 1.524 . S
C521 C522 1.415 . S
C522 H498 0.950 . S
C522 C517 1.363 . S
C522 C521 1.415 . S
C523 H499 0.951 . S
C523 C524 1.366 . S
C523 C525 1.388 . S
C524 C523 1.366 . S
C524 C528 1.385 . S
C525 H500 0.951 . S
C525 C523 1.388 . S
C525 C526 1.366 . S
C526 C525 1.366 . S
C526 C527 1.414 . S
C526 C529 1.499 . S
C527 H501 0.950 . S
C527 C526 1.414 . S
C527 C528 1.374 . S
C528 H502 0.950 . S
C528 C524 1.385 . S
C528 C527 1.374 . S
C529 C526 1.499 . S
C529 C530 1.373 . S
C529 C531 1.389 . S
C530 H503 0.950 . S
C530 C516 1.377 . S
C530 C529 1.373 . S
C531 C515 1.377 . S
C531 C529 1.389 . S
C531 C532 1.524 . S
C532 C531 1.524 . S
C532 C533 1.397 . S
C532 C537 1.363 . S
C533 H504 0.950 . S
C533 C532 1.397 . S
C533 C534 1.334 . S
C534 H505 0.950 . S
C534 C533 1.334 . S
C534 C535 1.287 . S
C535 C534 1.287 . S
C535 C536 1.524 . S
C535 H538 0.999 . S
C536 H506 0.950 . S
C536 C535 1.524 . S
C536 C537 1.415 . S
C537 H507 0.950 . S
C537 C532 1.363 . S
C537 C536 1.415 . S
H538 C535 0.999 . S
H539 C520 0.913 . S
H540 C558 0.951 . S
H541 C560 0.951 . S
H542 C562 0.950 . S
H543 C563 0.950 . S
H544 C565 0.950 . S
H545 C568 0.950 1_556 S
H546 C569 0.950 . S
H547 C571 0.950 . S
H548 C572 0.950 . S
H549 C573 0.951 . S
H550 C575 0.951 . S
H551 C577 0.950 . S
H552 C578 0.950 . S
H553 C580 0.950 . S
H554 C583 0.950 . S
H555 C584 0.950 . S
H556 C586 0.950 . S
H557 C587 0.950 . S
C558 H540 0.951 . S
C558 C559 1.366 . S
C558 C560 1.388 . S
C559 C558 1.366 . S
C559 C563 1.385 . S
C560 H541 0.951 . S
C560 C558 1.388 . S
C560 C561 1.366 . S
C561 C560 1.366 . S
C561 C562 1.414 . S
C561 C564 1.499 . S
C562 H542 0.950 . S
C562 C561 1.414 . S
C562 C563 1.374 . S
C563 H543 0.950 . S
C563 C559 1.385 . S
C563 C562 1.374 . S
C564 C561 1.499 . S
C564 C565 1.373 . S
C564 C566 1.389 . S
C565 H544 0.950 . S
C565 C564 1.373 . S
C565 C581 1.377 . S
C566 C564 1.389 . S
C566 C567 1.524 . S
C566 C580 1.377 . S
C567 C566 1.524 . S
C567 C568 1.397 1_556 S
C567 C572 1.363 . S
C568 H545 0.950 1_554 S
C568 C567 1.397 1_554 S
C568 C569 1.334 . S
C569 H546 0.950 . S
C569 C568 1.334 . S
C569 C570 1.287 . S
C570 C569 1.287 . S
C570 C571 1.524 . S
C570 H589 0.913 . S
C571 H547 0.950 . S
C571 C570 1.524 . S
C571 C572 1.415 1_554 S
C572 H548 0.950 . S
C572 C567 1.363 . S
C572 C571 1.415 1_556 S
C573 H549 0.951 . S
C573 C574 1.366 . S
C573 C575 1.388 . S
C574 C573 1.366 . S
C574 C578 1.385 . S
C575 H550 0.951 . S
C575 C573 1.388 . S
C575 C576 1.366 . S
C576 C575 1.366 . S
C576 C577 1.414 . S
C576 C579 1.499 . S
C577 H551 0.950 . S
C577 C576 1.414 . S
C577 C578 1.374 . S
C578 H552 0.950 . S
C578 C574 1.385 . S
C578 C577 1.374 . S
C579 C576 1.499 . S
C579 C580 1.373 . S
C579 C581 1.389 . S
C580 H553 0.950 . S
C580 C566 1.377 . S
C580 C579 1.373 . S
C581 C565 1.377 . S
C581 C579 1.389 . S
C581 C582 1.524 . S
C582 C581 1.524 . S
C582 C583 1.397 . S
C582 C587 1.363 . S
C583 H554 0.950 . S
C583 C582 1.397 . S
C583 C584 1.334 . S
C584 H555 0.950 . S
C584 C583 1.334 . S
C584 C585 1.287 . S
C585 C584 1.287 . S
C585 C586 1.524 . S
C585 H588 0.999 . S
C586 H556 0.950 . S
C586 C585 1.524 . S
C586 C587 1.415 . S
C587 H557 0.950 . S
C587 C582 1.363 . S
C587 C586 1.415 . S
H588 C585 0.999 . S
H589 C570 0.913 . S
H590 C608 0.951 . S
H591 C610 0.951 . S
H592 C612 0.950 . S
H593 C613 0.950 . S
H594 C615 0.950 . S
H595 C618 0.950 . S
H596 C619 0.950 . S
H597 C621 0.950 . S
H598 C622 0.950 . S
H599 C623 0.951 . S
H600 C625 0.951 . S
H601 C627 0.950 . S
H602 C628 0.950 . S
H603 C630 0.950 . S
H604 C633 0.950 . S
H605 C634 0.950 . S
H606 C636 0.950 . S
H607 C637 0.950 . S
C608 H590 0.951 . S
C608 C609 1.366 . S
C608 C610 1.388 . S
C609 C608 1.366 . S
C609 C613 1.385 . S
C610 H591 0.951 . S
C610 C608 1.388 . S
C610 C611 1.366 . S
C611 C610 1.366 . S
C611 C612 1.414 . S
C611 C614 1.499 . S
C612 H592 0.950 . S
C612 C611 1.414 . S
C612 C613 1.374 . S
C613 H593 0.950 . S
C613 C609 1.385 . S
C613 C612 1.374 . S
C614 C611 1.499 . S
C614 C615 1.373 . S
C614 C616 1.389 . S
C615 H594 0.950 . S
C615 C614 1.373 . S
C615 C631 1.377 . S
C616 C614 1.389 . S
C616 C617 1.524 . S
C616 C630 1.377 . S
C617 C616 1.524 . S
C617 C618 1.397 . S
C617 C622 1.363 . S
C618 H595 0.950 . S
C618 C617 1.397 . S
C618 C619 1.334 . S
C619 H596 0.950 . S
C619 C618 1.334 . S
C619 C620 1.287 . S
C620 C619 1.287 . S
C620 C621 1.524 . S
C620 H639 0.913 . S
C621 H597 0.950 . S
C621 C620 1.524 . S
C621 C622 1.415 . S
C622 H598 0.950 . S
C622 C617 1.363 . S
C622 C621 1.415 . S
C623 H599 0.951 . S
C623 C624 1.366 . S
C623 C625 1.388 . S
C624 C623 1.366 . S
C624 C628 1.385 . S
C625 H600 0.951 . S
C625 C623 1.388 . S
C625 C626 1.366 . S
C626 C625 1.366 . S
C626 C627 1.414 . S
C626 C629 1.499 . S
C627 H601 0.950 . S
C627 C626 1.414 . S
C627 C628 1.374 . S
C628 H602 0.950 . S
C628 C624 1.385 . S
C628 C627 1.374 . S
C629 C626 1.499 . S
C629 C630 1.373 . S
C629 C631 1.389 . S
C630 H603 0.950 . S
C630 C616 1.377 . S
C630 C629 1.373 . S
C631 C615 1.377 . S
C631 C629 1.389 . S
C631 C632 1.524 . S
C632 C631 1.524 . S
C632 C633 1.397 . S
C632 C637 1.363 . S
C633 H604 0.950 . S
C633 C632 1.397 . S
C633 C634 1.334 . S
C634 H605 0.950 . S
C634 C633 1.334 . S
C634 C635 1.287 . S
C635 C634 1.287 . S
C635 C636 1.524 . S
C635 H638 0.999 . S
C636 H606 0.950 . S
C636 C635 1.524 . S
C636 C637 1.415 . S
C637 H607 0.950 . S
C637 C632 1.363 . S
C637 C636 1.415 . S
H638 C635 0.999 . S
H639 C620 0.913 . S
H640 C658 0.951 . S
H641 C660 0.951 . S
H642 C662 0.950 . S
H643 C663 0.950 . S
H644 C665 0.950 . S
H645 C668 0.950 . S
H646 C669 0.950 . S
H647 C671 0.950 . S
H648 C672 0.950 1_556 S
H649 C673 0.951 . S
H650 C675 0.951 . S
H651 C677 0.950 . S
H652 C678 0.950 . S
H653 C680 0.950 . S
H654 C683 0.950 . S
H655 C684 0.950 . S
H656 C686 0.950 . S
H657 C687 0.950 . S
C658 H640 0.951 . S
C658 C659 1.366 . S
C658 C660 1.388 . S
C659 C658 1.366 . S
C659 C663 1.385 . S
C660 H641 0.951 . S
C660 C658 1.388 . S
C660 C661 1.366 . S
C661 C660 1.366 . S
C661 C662 1.414 . S
C661 C664 1.499 . S
C662 H642 0.950 . S
C662 C661 1.414 . S
C662 C663 1.374 . S
C663 H643 0.950 . S
C663 C659 1.385 . S
C663 C662 1.374 . S
C664 C661 1.499 . S
C664 C665 1.373 . S
C664 C666 1.389 . S
C665 H644 0.950 . S
C665 C664 1.373 . S
C665 C681 1.377 . S
C666 C664 1.389 . S
C666 C667 1.524 . S
C666 C680 1.377 . S
C667 C666 1.524 . S
C667 C668 1.397 1_556 S
C667 C672 1.363 1_556 S
C668 H645 0.950 . S
C668 C667 1.397 1_554 S
C668 C669 1.334 . S
C669 H646 0.950 . S
C669 C668 1.334 . S
C669 C670 1.287 . S
C670 C669 1.287 . S
C670 C671 1.524 . S
C670 H689 0.913 . S
C671 H647 0.950 . S
C671 C670 1.524 . S
C671 C672 1.415 . S
C672 H648 0.950 1_554 S
C672 C667 1.363 1_554 S
C672 C671 1.415 . S
C673 H649 0.951 . S
C673 C674 1.366 . S
C673 C675 1.388 . S
C674 C673 1.366 . S
C674 C678 1.385 . S
C675 H650 0.951 . S
C675 C673 1.388 . S
C675 C676 1.366 . S
C676 C675 1.366 . S
C676 C677 1.414 . S
C676 C679 1.499 . S
C677 H651 0.950 . S
C677 C676 1.414 . S
C677 C678 1.374 . S
C678 H652 0.950 . S
C678 C674 1.385 . S
C678 C677 1.374 . S
C679 C676 1.499 . S
C679 C680 1.373 . S
C679 C681 1.389 . S
C680 H653 0.950 . S
C680 C666 1.377 . S
C680 C679 1.373 . S
C681 C665 1.377 . S
C681 C679 1.389 . S
C681 C682 1.524 . S
C682 C681 1.524 . S
C682 C683 1.397 . S
C682 C687 1.363 . S
C683 H654 0.950 . S
C683 C682 1.397 . S
C683 C684 1.334 . S
C684 H655 0.950 . S
C684 C683 1.334 . S
C684 C685 1.287 . S
C685 C684 1.287 . S
C685 C686 1.524 . S
C685 H688 0.999 . S
C686 H656 0.950 . S
C686 C685 1.524 . S
C686 C687 1.415 . S
C687 H657 0.950 . S
C687 C682 1.363 . S
C687 C686 1.415 . S
H688 C685 0.999 . S
H689 C670 0.913 . S
H690 C708 0.951 . S
H691 C710 0.951 . S
H692 C712 0.950 . S
H693 C713 0.950 . S
H694 C715 0.950 . S
H695 C718 0.950 . S
H696 C719 0.950 . S
H697 C721 0.950 . S
H698 C722 0.950 . S
H699 C723 0.951 . S
H700 C725 0.951 . S
H701 C727 0.950 . S
H702 C728 0.950 . S
H703 C730 0.950 . S
H704 C733 0.950 . S
H705 C734 0.950 . S
H706 C736 0.950 . S
H707 C737 0.950 . S
C708 H690 0.951 . S
C708 C709 1.366 . S
C708 C710 1.388 . S
C709 C708 1.366 . S
C709 C713 1.385 . S
C710 H691 0.951 . S
C710 C708 1.388 . S
C710 C711 1.366 . S
C711 C710 1.366 . S
C711 C712 1.414 . S
C711 C714 1.499 . S
C712 H692 0.950 . S
C712 C711 1.414 . S
C712 C713 1.374 . S
C713 H693 0.950 . S
C713 C709 1.385 . S
C713 C712 1.374 . S
C714 C711 1.499 . S
C714 C715 1.373 . S
C714 C716 1.389 . S
C715 H694 0.950 . S
C715 C714 1.373 . S
C715 C731 1.377 . S
C716 C714 1.389 . S
C716 C717 1.524 . S
C716 C730 1.377 . S
C717 C716 1.524 . S
C717 C718 1.397 . S
C717 C722 1.363 . S
C718 H695 0.950 . S
C718 C717 1.397 . S
C718 C719 1.334 . S
C719 H696 0.950 . S
C719 C718 1.334 . S
C719 C720 1.287 . S
C720 C719 1.287 . S
C720 C721 1.524 . S
C720 H739 0.913 . S
C721 H697 0.950 . S
C721 C720 1.524 . S
C721 C722 1.415 . S
C722 H698 0.950 . S
C722 C717 1.363 . S
C722 C721 1.415 . S
C723 H699 0.951 . S
C723 C724 1.366 . S
C723 C725 1.388 . S
C724 C723 1.366 . S
C724 C728 1.385 . S
C725 H700 0.951 . S
C725 C723 1.388 . S
C725 C726 1.366 . S
C726 C725 1.366 . S
C726 C727 1.414 . S
C726 C729 1.499 . S
C727 H701 0.950 . S
C727 C726 1.414 . S
C727 C728 1.374 . S
C728 H702 0.950 . S
C728 C724 1.385 . S
C728 C727 1.374 . S
C729 C726 1.499 . S
C729 C730 1.373 . S
C729 C731 1.389 . S
C730 H703 0.950 . S
C730 C716 1.377 . S
C730 C729 1.373 . S
C731 C715 1.377 . S
C731 C729 1.389 . S
C731 C732 1.524 . S
C732 C731 1.524 . S
C732 C733 1.397 . S
C732 C737 1.363 . S
C733 H704 0.950 . S
C733 C732 1.397 . S
C733 C734 1.334 . S
C734 H705 0.950 . S
C734 C733 1.334 . S
C734 C735 1.287 . S
C735 C734 1.287 . S
C735 C736 1.524 . S
C735 H738 0.999 . S
C736 H706 0.950 . S
C736 C735 1.524 . S
C736 C737 1.415 . S
C737 H707 0.950 . S
C737 C732 1.363 . S
C737 C736 1.415 . S
H738 C735 0.999 . S
H739 C720 0.913 . S
H740 C758 0.951 1_554 S
H741 C760 0.951 . S
H742 C762 0.950 . S
H743 C763 0.950 . S
H744 C765 0.950 . S
H745 C768 0.950 . S
H746 C769 0.950 . S
H747 C771 0.950 . S
H748 C772 0.950 . S
H749 C773 0.951 . S
H750 C775 0.951 . S
H751 C777 0.950 . S
H752 C778 0.950 . S
H753 C780 0.950 . S
H754 C783 0.950 . S
H755 C784 0.950 . S
H756 C786 0.950 . S
H757 C787 0.950 . S
C758 H740 0.951 1_556 S
C758 C759 1.366 . S
C758 C760 1.388 . S
C759 C758 1.366 . S
C759 C763 1.385 . S
C760 H741 0.951 . S
C760 C758 1.388 . S
C760 C761 1.366 . S
C761 C760 1.366 . S
C761 C762 1.414 . S
C761 C764 1.499 . S
C762 H742 0.950 . S
C762 C761 1.414 . S
C762 C763 1.374 . S
C763 H743 0.950 . S
C763 C759 1.385 . S
C763 C762 1.374 . S
C764 C761 1.499 . S
C764 C765 1.373 . S
C764 C766 1.389 . S
C765 H744 0.950 . S
C765 C764 1.373 . S
C765 C781 1.377 . S
C766 C764 1.389 . S
C766 C767 1.524 . S
C766 C780 1.377 . S
C767 C766 1.524 . S
C767 C768 1.397 . S
C767 C772 1.363 . S
C768 H745 0.950 . S
C768 C767 1.397 . S
C768 C769 1.334 . S
C769 H746 0.950 . S
C769 C768 1.334 . S
C769 C770 1.287 . S
C770 C769 1.287 . S
C770 C771 1.524 . S
C770 H789 0.913 . S
C771 H747 0.950 . S
C771 C770 1.524 . S
C771 C772 1.415 . S
C772 H748 0.950 . S
C772 C767 1.363 . S
C772 C771 1.415 . S
C773 H749 0.951 . S
C773 C774 1.366 . S
C773 C775 1.388 . S
C774 C773 1.366 . S
C774 C778 1.385 . S
C775 H750 0.951 . S
C775 C773 1.388 . S
C775 C776 1.366 . S
C776 C775 1.366 . S
C776 C777 1.414 . S
C776 C779 1.499 . S
C777 H751 0.950 . S
C777 C776 1.414 . S
C777 C778 1.374 . S
C778 H752 0.950 . S
C778 C774 1.385 . S
C778 C777 1.374 . S
C779 C776 1.499 . S
C779 C780 1.373 . S
C779 C781 1.389 . S
C780 H753 0.950 . S
C780 C766 1.377 . S
C780 C779 1.373 . S
C781 C765 1.377 . S
C781 C779 1.389 . S
C781 C782 1.524 . S
C782 C781 1.524 . S
C782 C783 1.397 . S
C782 C787 1.363 . S
C783 H754 0.950 . S
C783 C782 1.397 . S
C783 C784 1.334 . S
C784 H755 0.950 . S
C784 C783 1.334 . S
C784 C785 1.287 . S
C785 C784 1.287 . S
C785 C786 1.524 . S
C785 H788 0.999 . S
C786 H756 0.950 . S
C786 C785 1.524 . S
C786 C787 1.415 . S
C787 H757 0.950 . S
C787 C782 1.363 . S
C787 C786 1.415 . S
H788 C785 0.999 . S
H789 C770 0.913 . S
H790 C808 0.951 . S
H791 C810 0.951 . S
H792 C812 0.950 . S
H793 C813 0.950 . S
H794 C815 0.950 . S
H795 C818 0.950 . S
H796 C819 0.950 . S
H797 C821 0.950 . S
H798 C822 0.950 . S
H799 C823 0.951 . S
H800 C825 0.951 . S
H801 C827 0.950 . S
H802 C828 0.950 . S
H803 C830 0.950 . S
H804 C833 0.950 . S
H805 C834 0.950 . S
H806 C836 0.950 . S
H807 C837 0.950 . S
C808 H790 0.951 . S
C808 C809 1.366 . S
C808 C810 1.388 . S
C809 C808 1.366 . S
C809 C813 1.385 . S
C810 H791 0.951 . S
C810 C808 1.388 . S
C810 C811 1.366 . S
C811 C810 1.366 . S
C811 C812 1.414 . S
C811 C814 1.499 . S
C812 H792 0.950 . S
C812 C811 1.414 . S
C812 C813 1.374 . S
C813 H793 0.950 . S
C813 C809 1.385 . S
C813 C812 1.374 . S
C814 C811 1.499 . S
C814 C815 1.373 . S
C814 C816 1.389 . S
C815 H794 0.950 . S
C815 C814 1.373 . S
C815 C831 1.377 . S
C816 C814 1.389 . S
C816 C817 1.524 . S
C816 C830 1.377 . S
C817 C816 1.524 . S
C817 C818 1.397 . S
C817 C822 1.363 . S
C818 H795 0.950 . S
C818 C817 1.397 . S
C818 C819 1.334 . S
C819 H796 0.950 . S
C819 C818 1.334 . S
C819 C820 1.287 . S
C820 C819 1.287 . S
C820 C821 1.524 . S
C820 H839 0.913 . S
C821 H797 0.950 . S
C821 C820 1.524 . S
C821 C822 1.415 . S
C822 H798 0.950 . S
C822 C817 1.363 . S
C822 C821 1.415 . S
C823 H799 0.951 . S
C823 C824 1.366 . S
C823 C825 1.388 . S
C824 C823 1.366 . S
C824 C828 1.385 . S
C825 H800 0.951 . S
C825 C823 1.388 . S
C825 C826 1.366 . S
C826 C825 1.366 . S
C826 C827 1.414 . S
C826 C829 1.499 . S
C827 H801 0.950 . S
C827 C826 1.414 . S
C827 C828 1.374 . S
C828 H802 0.950 . S
C828 C824 1.385 . S
C828 C827 1.374 . S
C829 C826 1.499 . S
C829 C830 1.373 . S
C829 C831 1.389 . S
C830 H803 0.950 . S
C830 C816 1.377 . S
C830 C829 1.373 . S
C831 C815 1.377 . S
C831 C829 1.389 . S
C831 C832 1.524 . S
C832 C831 1.524 . S
C832 C833 1.397 . S
C832 C837 1.363 . S
C833 H804 0.950 . S
C833 C832 1.397 . S
C833 C834 1.334 . S
C834 H805 0.950 . S
C834 C833 1.334 . S
C834 C835 1.287 . S
C835 C834 1.287 . S
C835 C836 1.524 . S
C835 H838 0.999 . S
C836 H806 0.950 . S
C836 C835 1.524 . S
C836 C837 1.415 . S
C837 H807 0.950 . S
C837 C832 1.363 . S
C837 C836 1.415 . S
H838 C835 0.999 . S
H839 C820 0.913 . S
H840 C858 0.951 . S
H841 C860 0.951 . S
H842 C862 0.951 . S
H843 C863 0.946 1_554 S
H844 C865 0.950 . S
H845 C868 0.950 . S
H846 C869 0.950 . S
H847 C871 0.950 . S
H848 C872 0.950 . S
H849 C873 0.951 . S
H850 C875 0.951 . S
H851 C877 0.950 . S
H852 C878 0.950 . S
H853 C880 0.950 . S
H854 C883 0.950 . S
H855 C884 0.950 . S
H856 C886 0.954 . S
H857 C887 0.950 . S
C858 H840 0.951 . S
C858 C859 1.366 . S
C858 C860 1.388 . S
C859 C858 1.366 . S
C859 C863 1.387 . S
C860 H841 0.951 . S
C860 C858 1.388 . S
C860 C861 1.366 . S
C861 C860 1.366 . S
C861 C862 1.414 . S
C861 C864 1.499 . S
C862 H842 0.951 . S
C862 C861 1.414 . S
C862 C863 1.375 . S
C863 H843 0.946 1_556 S
C863 C859 1.387 . S
C863 C862 1.375 . S
C864 C861 1.499 . S
C864 C865 1.373 . S
C864 C866 1.389 . S
C865 H844 0.950 . S
C865 C864 1.373 . S
C865 C881 1.377 1_565 S
C866 C864 1.389 . S
C866 C867 1.524 . S
C866 C880 1.377 . S
C867 C866 1.524 . S
C867 C868 1.397 . S
C867 C872 1.363 . S
C868 H845 0.950 . S
C868 C867 1.397 . S
C868 C869 1.334 . S
C869 H846 0.950 . S
C869 C868 1.334 . S
C869 C870 1.287 . S
C870 C869 1.287 . S
C870 C871 1.524 . S
C870 H889 0.913 . S
C871 H847 0.950 . S
C871 C870 1.524 . S
C871 C872 1.415 . S
C872 H848 0.950 . S
C872 C867 1.363 . S
C872 C871 1.415 . S
C873 H849 0.951 . S
C873 C874 1.366 . S
C873 C875 1.388 . S
C874 C873 1.366 . S
C874 C878 1.385 . S
C875 H850 0.951 . S
C875 C873 1.388 . S
C875 C876 1.366 . S
C876 C875 1.366 . S
C876 C877 1.414 . S
C876 C879 1.499 . S
C877 H851 0.950 . S
C877 C876 1.414 . S
C877 C878 1.374 . S
C878 H852 0.950 . S
C878 C874 1.385 . S
C878 C877 1.374 . S
C879 C876 1.499 . S
C879 C880 1.373 1_545 S
C879 C881 1.389 . S
C880 H853 0.950 . S
C880 C866 1.377 . S
C880 C879 1.373 1_565 S
C881 C865 1.377 1_545 S
C881 C879 1.389 . S
C881 C882 1.524 . S
C882 C881 1.524 . S
C882 C883 1.397 . S
C882 C887 1.363 . S
C883 H854 0.950 . S
C883 C882 1.397 . S
C883 C884 1.334 . S
C884 H855 0.950 . S
C884 C883 1.334 . S
C884 C885 1.287 . S
C885 C884 1.287 . S
C885 C886 1.521 1_556 S
C885 H888 0.999 . S
C886 H856 0.954 . S
C886 C885 1.521 1_554 S
C886 C887 1.413 1_554 S
C887 H857 0.950 . S
C887 C882 1.363 . S
C887 C886 1.413 1_556 S
H888 C885 0.999 . S
H889 C870 0.913 . S
H890 C908 0.951 . S
H891 C910 0.951 . S
H892 C912 0.950 . S
H893 C913 0.950 . S
H894 C915 0.950 . S
H895 C918 0.950 . S
H896 C919 0.950 . S
H897 C921 0.950 . S
H898 C922 0.950 . S
H899 C923 0.951 . S
H900 C925 0.951 . S
H901 C927 0.950 . S
H902 C928 0.950 . S
H903 C930 0.950 . S
H904 C933 0.950 . S
H905 C934 0.950 . S
H906 C936 0.950 . S
H907 C937 0.950 1_545 S
C908 H890 0.951 . S
C908 C909 1.366 . S
C908 C910 1.388 . S
C909 C908 1.366 . S
C909 C913 1.385 . S
C910 H891 0.951 . S
C910 C908 1.388 . S
C910 C911 1.366 . S
C911 C910 1.366 . S
C911 C912 1.414 . S
C911 C914 1.499 . S
C912 H892 0.950 . S
C912 C911 1.414 . S
C912 C913 1.374 . S
C913 H893 0.950 . S
C913 C909 1.385 . S
C913 C912 1.374 . S
C914 C911 1.499 . S
C914 C915 1.373 . S
C914 C916 1.389 . S
C915 H894 0.950 . S
C915 C914 1.373 . S
C915 C931 1.377 1_545 S
C916 C914 1.389 . S
C916 C917 1.524 . S
C916 C930 1.377 . S
C917 C916 1.524 . S
C917 C918 1.397 . S
C917 C922 1.363 . S
C918 H895 0.950 . S
C918 C917 1.397 . S
C918 C919 1.334 . S
C919 H896 0.950 . S
C919 C918 1.334 . S
C919 C920 1.287 . S
C920 C919 1.287 . S
C920 C921 1.524 . S
C920 H939 0.913 . S
C921 H897 0.950 . S
C921 C920 1.524 . S
C921 C922 1.415 . S
C922 H898 0.950 . S
C922 C917 1.363 . S
C922 C921 1.415 . S
C923 H899 0.951 . S
C923 C924 1.366 . S
C923 C925 1.388 . S
C924 C923 1.366 . S
C924 C928 1.385 . S
C925 H900 0.951 . S
C925 C923 1.388 . S
C925 C926 1.366 . S
C926 C925 1.366 . S
C926 C927 1.414 . S
C926 C929 1.499 . S
C927 H901 0.950 . S
C927 C926 1.414 . S
C927 C928 1.374 . S
C928 H902 0.950 . S
C928 C924 1.385 . S
C928 C927 1.374 . S
C929 C926 1.499 . S
C929 C930 1.373 1_565 S
C929 C931 1.389 . S
C930 H903 0.950 . S
C930 C916 1.377 . S
C930 C929 1.373 1_545 S
C931 C915 1.377 1_565 S
C931 C929 1.389 . S
C931 C932 1.524 . S
C932 C931 1.524 . S
C932 C933 1.397 . S
C932 C937 1.363 . S
C933 H904 0.950 . S
C933 C932 1.397 . S
C933 C934 1.334 . S
C934 H905 0.950 . S
C934 C933 1.334 . S
C934 C935 1.287 . S
C935 C934 1.287 . S
C935 C936 1.524 . S
C935 H938 0.999 . S
C936 H906 0.950 . S
C936 C935 1.524 . S
C936 C937 1.415 . S
C937 H907 0.950 1_565 S
C937 C932 1.363 . S
C937 C936 1.415 . S
H938 C935 0.999 . S
H939 C920 0.913 . S
H940 C958 0.951 . S
H941 C960 0.951 . S
H942 C962 0.971 . S
H943 C963 0.927 1_554 S
H944 C965 0.950 . S
H945 C968 0.950 . S
H946 C969 0.950 1_545 S
H947 C971 0.950 . S
H948 C972 0.950 . S
H949 C973 0.951 . S
H950 C975 0.951 . S
H951 C977 0.950 . S
H952 C978 0.950 . S
H953 C980 0.941 1_545 S
H954 C983 0.950 . S
H955 C984 0.950 . S
H956 C986 0.950 . S
H957 C987 0.944 1_554 S
C958 H940 0.951 . S
C958 C959 1.366 . S
C958 C960 1.388 . S
C959 C958 1.366 . S
C959 C963 1.398 . S
C960 H941 0.951 . S
C960 C958 1.388 . S
C960 C961 1.366 . S
C961 C960 1.366 . S
C961 C962 1.414 . S
C961 C964 1.499 . S
C962 H942 0.971 . S
C962 C961 1.414 . S
C962 C963 1.384 . S
C963 H943 0.927 1_556 S
C963 C959 1.398 . S
C963 C962 1.384 . S
C964 C961 1.499 . S
C964 C965 1.373 . S
C964 C966 1.389 . S
C965 H944 0.950 . S
C965 C964 1.373 . S
C965 C981 1.377 . S
C966 C964 1.389 . S
C966 C967 1.524 . S
C966 C980 1.387 . S
C967 C966 1.524 . S
C967 C968 1.397 . S
C967 C972 1.363 . S
C968 H945 0.950 . S
C968 C967 1.397 . S
C968 C969 1.334 . S
C969 H946 0.950 1_565 S
C969 C968 1.334 . S
C969 C970 1.287 . S
C970 C969 1.287 . S
C970 C971 1.524 . S
C970 H989 0.913 . S
C971 H947 0.950 . S
C971 C970 1.524 . S
C971 C972 1.415 . S
C972 H948 0.950 . S
C972 C967 1.363 . S
C972 C971 1.415 . S
C973 H949 0.951 . S
C973 C974 1.366 . S
C973 C975 1.388 . S
C974 C973 1.366 . S
C974 C978 1.385 . S
C975 H950 0.951 . S
C975 C973 1.388 . S
C975 C976 1.366 . S
C976 C975 1.366 . S
C976 C977 1.414 . S
C976 C979 1.499 . S
C977 H951 0.950 . S
C977 C976 1.414 . S
C977 C978 1.374 . S
C978 H952 0.950 . S
C978 C974 1.385 . S
C978 C977 1.374 . S
C979 C976 1.499 . S
C979 C980 1.372 1_545 S
C979 C981 1.389 1_545 S
C980 H953 0.941 1_565 S
C980 C966 1.387 . S
C980 C979 1.372 1_565 S
C981 C965 1.377 . S
C981 C979 1.389 1_565 S
C981 C982 1.524 . S
C982 C981 1.524 . S
C982 C983 1.397 . S
C982 C987 1.363 . S
C983 H954 0.950 . S
C983 C982 1.397 . S
C983 C984 1.334 . S
C984 H955 0.950 . S
C984 C983 1.334 . S
C984 C985 1.287 . S
C985 C984 1.287 . S
C985 C986 1.524 1_556 S
C985 H988 0.999 . S
C986 H956 0.950 . S
C986 C985 1.524 1_554 S
C986 C987 1.415 1_554 S
C987 H957 0.944 1_556 S
C987 C982 1.363 . S
C987 C986 1.415 1_556 S
H988 C985 0.999 . S
H989 C970 0.913 . S
H990 C1008 0.951 . S
H991 C1010 0.951 . S
H992 C1012 0.950 . S
H993 C1013 0.950 . S
H994 C1015 0.950 . S
H995 C1018 0.967 . S
H996 C1019 0.950 . S
H997 C1021 0.950 . S
H998 C1022 0.950 . S
H999 C1023 0.951 . S
H1000 C1025 0.951 . S
H1001 C1027 0.950 . S
H1002 C1028 0.950 . S
H1003 C1030 0.950 . S
H1004 C1033 0.950 . S
H1005 C1034 0.950 . S
H1006 C1036 0.950 . S
H1007 C1037 0.950 . S
C1008 H990 0.951 . S
C1008 C1009 1.366 . S
C1008 C1010 1.388 . S
C1009 C1008 1.366 . S
C1009 C1013 1.385 . S
C1010 H991 0.951 . S
C1010 C1008 1.388 . S
C1010 C1011 1.366 . S
C1011 C1010 1.366 . S
C1011 C1012 1.414 . S
C1011 C1014 1.499 . S
C1012 H992 0.950 . S
C1012 C1011 1.414 . S
C1012 C1013 1.374 . S
C1013 H993 0.950 . S
C1013 C1009 1.385 . S
C1013 C1012 1.374 . S
C1014 C1011 1.499 . S
C1014 C1015 1.373 . S
C1014 C1016 1.389 . S
C1015 H994 0.950 . S
C1015 C1014 1.373 . S
C1015 C1031 1.377 . S
C1016 C1014 1.389 . S
C1016 C1017 1.524 1_545 S
C1016 C1030 1.377 1_545 S
C1017 C1016 1.524 1_565 S
C1017 C1018 1.397 . S
C1017 C1022 1.363 . S
C1018 H995 0.967 . S
C1018 C1017 1.397 . S
C1018 C1019 1.334 . S
C1019 H996 0.950 . S
C1019 C1018 1.334 . S
C1019 C1020 1.287 . S
C1020 C1019 1.287 . S
C1020 C1021 1.524 . S
C1020 H1039 0.913 . S
C1021 H997 0.950 . S
C1021 C1020 1.524 . S
C1021 C1022 1.415 . S
C1022 H998 0.950 . S
C1022 C1017 1.363 . S
C1022 C1021 1.415 . S
C1023 H999 0.951 . S
C1023 C1024 1.366 . S
C1023 C1025 1.388 . S
C1024 C1023 1.366 . S
C1024 C1028 1.385 . S
C1025 H1000 0.951 . S
C1025 C1023 1.388 . S
C1025 C1026 1.366 . S
C1026 C1025 1.366 . S
C1026 C1027 1.414 . S
C1026 C1029 1.499 . S
C1027 H1001 0.950 . S
C1027 C1026 1.414 . S
C1027 C1028 1.374 . S
C1028 H1002 0.950 . S
C1028 C1024 1.385 . S
C1028 C1027 1.374 . S
C1029 C1026 1.499 . S
C1029 C1030 1.373 . S
C1029 C1031 1.389 1_565 S
C1030 H1003 0.950 . S
C1030 C1016 1.377 1_565 S
C1030 C1029 1.373 . S
C1031 C1015 1.377 . S
C1031 C1029 1.389 1_545 S
C1031 C1032 1.524 . S
C1032 C1031 1.524 . S
C1032 C1033 1.397 . S
C1032 C1037 1.363 . S
C1033 H1004 0.950 . S
C1033 C1032 1.397 . S
C1033 C1034 1.334 . S
C1034 H1005 0.950 . S
C1034 C1033 1.334 . S
C1034 C1035 1.287 . S
C1035 C1034 1.287 . S
C1035 C1036 1.524 . S
C1035 H1038 0.999 . S
C1036 H1006 0.950 . S
C1036 C1035 1.524 . S
C1036 C1037 1.415 . S
C1037 H1007 0.950 . S
C1037 C1032 1.363 . S
C1037 C1036 1.415 . S
H1038 C1035 0.999 . S
H1039 C1020 0.913 . S
H1040 C1058 0.951 . S
H1041 C1060 0.951 . S
H1042 C1062 0.950 . S
H1043 C1063 0.950 . S
H1044 C1065 0.950 . S
H1045 C1068 0.950 . S
H1046 C1069 0.950 . S
H1047 C1071 0.950 . S
H1048 C1072 0.950 . S
H1049 C1073 0.951 . S
H1050 C1075 0.951 . S
H1051 C1077 0.950 . S
H1052 C1078 0.950 . S
H1053 C1080 0.950 . S
H1054 C1083 0.950 . S
H1055 C1084 0.950 . S
H1056 C1086 0.950 . S
H1057 C1087 0.950 . S
C1058 H1040 0.951 . S
C1058 C1059 1.366 . S
C1058 C1060 1.388 . S
C1059 C1058 1.366 . S
C1059 C1063 1.385 . S
C1060 H1041 0.951 . S
C1060 C1058 1.388 . S
C1060 C1061 1.366 . S
C1061 C1060 1.366 . S
C1061 C1062 1.414 . S
C1061 C1064 1.499 . S
C1062 H1042 0.950 . S
C1062 C1061 1.414 . S
C1062 C1063 1.374 . S
C1063 H1043 0.950 . S
C1063 C1059 1.385 . S
C1063 C1062 1.374 . S
C1064 C1061 1.499 . S
C1064 C1065 1.373 . S
C1064 C1066 1.389 . S
C1065 H1044 0.950 . S
C1065 C1064 1.373 . S
C1065 C1081 1.377 . S
C1066 C1064 1.389 . S
C1066 C1067 1.524 . S
C1066 C1080 1.377 . S
C1067 C1066 1.524 . S
C1067 C1068 1.397 . S
C1067 C1072 1.363 . S
C1068 H1045 0.950 . S
C1068 C1067 1.397 . S
C1068 C1069 1.334 . S
C1069 H1046 0.950 . S
C1069 C1068 1.334 . S
C1069 C1070 1.287 . S
C1070 C1069 1.287 . S
C1070 C1071 1.524 . S
C1070 H1089 0.913 . S
C1071 H1047 0.950 . S
C1071 C1070 1.524 . S
C1071 C1072 1.415 . S
C1072 H1048 0.950 . S
C1072 C1067 1.363 . S
C1072 C1071 1.415 . S
C1073 H1049 0.951 . S
C1073 C1074 1.366 . S
C1073 C1075 1.388 . S
C1074 C1073 1.366 . S
C1074 C1078 1.385 . S
C1075 H1050 0.951 . S
C1075 C1073 1.388 . S
C1075 C1076 1.366 . S
C1076 C1075 1.366 . S
C1076 C1077 1.414 . S
C1076 C1079 1.499 . S
C1077 H1051 0.950 . S
C1077 C1076 1.414 . S
C1077 C1078 1.374 . S
C1078 H1052 0.950 . S
C1078 C1074 1.385 . S
C1078 C1077 1.374 . S
C1079 C1076 1.499 . S
C1079 C1080 1.373 . S
C1079 C1081 1.389 . S
C1080 H1053 0.950 . S
C1080 C1066 1.377 . S
C1080 C1079 1.373 . S
C1081 C1065 1.377 . S
C1081 C1079 1.389 . S
C1081 C1082 1.524 . S
C1082 C1081 1.524 . S
C1082 C1083 1.397 . S
C1082 C1087 1.363 . S
C1083 H1054 0.950 . S
C1083 C1082 1.397 . S
C1083 C1084 1.334 . S
C1084 H1055 0.950 . S
C1084 C1083 1.334 . S
C1084 C1085 1.287 . S
C1085 C1084 1.287 . S
C1085 C1086 1.524 . S
C1085 H1088 0.999 . S
C1086 H1056 0.950 . S
C1086 C1085 1.524 . S
C1086 C1087 1.415 . S
C1087 H1057 0.950 . S
C1087 C1082 1.363 . S
C1087 C1086 1.415 . S
H1088 C1085 0.999 . S
H1089 C1070 0.913 . S
H1090 C1108 0.951 . S
H1091 C1110 0.951 . S
H1092 C1112 0.950 . S
H1093 C1113 0.950 . S
H1094 C1115 0.950 . S
H1095 C1118 0.950 . S
H1096 C1119 0.950 . S
H1097 C1121 0.950 . S
H1098 C1122 0.950 . S
H1099 C1123 0.951 . S
H1100 C1125 0.951 . S
H1101 C1127 0.950 . S
H1102 C1128 0.950 . S
H1103 C1130 0.950 . S
H1104 C1133 0.950 . S
H1105 C1134 0.950 . S
H1106 C1136 0.950 . S
H1107 C1137 0.950 . S
C1108 H1090 0.951 . S
C1108 C1109 1.366 . S
C1108 C1110 1.388 . S
C1109 C1108 1.366 . S
C1109 C1113 1.385 . S
C1110 H1091 0.951 . S
C1110 C1108 1.388 . S
C1110 C1111 1.366 . S
C1111 C1110 1.366 . S
C1111 C1112 1.414 . S
C1111 C1114 1.499 . S
C1112 H1092 0.950 . S
C1112 C1111 1.414 . S
C1112 C1113 1.374 . S
C1113 H1093 0.950 . S
C1113 C1109 1.385 . S
C1113 C1112 1.374 . S
C1114 C1111 1.499 . S
C1114 C1115 1.373 . S
C1114 C1116 1.389 . S
C1115 H1094 0.950 . S
C1115 C1114 1.373 . S
C1115 C1131 1.377 . S
C1116 C1114 1.389 . S
C1116 C1117 1.524 . S
C1116 C1130 1.377 . S
C1117 C1116 1.524 . S
C1117 C1118 1.397 . S
C1117 C1122 1.363 . S
C1118 H1095 0.950 . S
C1118 C1117 1.397 . S
C1118 C1119 1.334 . S
C1119 H1096 0.950 . S
C1119 C1118 1.334 . S
C1119 C1120 1.287 . S
C1120 C1119 1.287 . S
C1120 C1121 1.524 . S
C1120 H1139 0.913 . S
C1121 H1097 0.950 . S
C1121 C1120 1.524 . S
C1121 C1122 1.415 . S
C1122 H1098 0.950 . S
C1122 C1117 1.363 . S
C1122 C1121 1.415 . S
C1123 H1099 0.951 . S
C1123 C1124 1.366 . S
C1123 C1125 1.388 . S
C1124 C1123 1.366 . S
C1124 C1128 1.385 . S
C1125 H1100 0.951 . S
C1125 C1123 1.388 . S
C1125 C1126 1.366 . S
C1126 C1125 1.366 . S
C1126 C1127 1.414 . S
C1126 C1129 1.499 . S
C1127 H1101 0.950 . S
C1127 C1126 1.414 . S
C1127 C1128 1.374 . S
C1128 H1102 0.950 . S
C1128 C1124 1.385 . S
C1128 C1127 1.374 . S
C1129 C1126 1.499 . S
C1129 C1130 1.373 . S
C1129 C1131 1.389 . S
C1130 H1103 0.950 . S
C1130 C1116 1.377 . S
C1130 C1129 1.373 . S
C1131 C1115 1.377 . S
C1131 C1129 1.389 . S
C1131 C1132 1.524 . S
C1132 C1131 1.524 . S
C1132 C1133 1.397 . S
C1132 C1137 1.363 . S
C1133 H1104 0.950 . S
C1133 C1132 1.397 . S
C1133 C1134 1.334 . S
C1134 H1105 0.950 . S
C1134 C1133 1.334 . S
C1134 C1135 1.287 . S
C1135 C1134 1.287 . S
C1135 C1136 1.524 . S
C1135 H1138 0.999 . S
C1136 H1106 0.950 . S
C1136 C1135 1.524 . S
C1136 C1137 1.415 . S
C1137 H1107 0.950 . S
C1137 C1132 1.363 . S
C1137 C1136 1.415 . S
H1138 C1135 0.999 . S
H1139 C1120 0.913 . S
H1140 C1158 0.951 . S
H1141 C1160 0.951 . S
H1142 C1162 0.950 . S
H1143 C1163 0.950 . S
H1144 C1165 0.950 . S
H1145 C1168 0.950 . S
H1146 C1169 0.950 . S
H1147 C1171 0.950 . S
H1148 C1172 0.950 . S
H1149 C1173 0.951 . S
H1150 C1175 0.951 . S
H1151 C1177 0.950 . S
H1152 C1178 0.950 . S
H1153 C1180 0.950 . S
H1154 C1183 0.950 . S
H1155 C1184 0.950 . S
H1156 C1186 0.950 . S
H1157 C1187 0.950 . S
C1158 H1140 0.951 . S
C1158 C1159 1.366 . S
C1158 C1160 1.388 . S
C1159 C1158 1.366 . S
C1159 C1163 1.385 . S
C1160 H1141 0.951 . S
C1160 C1158 1.388 . S
C1160 C1161 1.366 . S
C1161 C1160 1.366 . S
C1161 C1162 1.414 . S
C1161 C1164 1.499 . S
C1162 H1142 0.950 . S
C1162 C1161 1.414 . S
C1162 C1163 1.374 . S
C1163 H1143 0.950 . S
C1163 C1159 1.385 . S
C1163 C1162 1.374 . S
C1164 C1161 1.499 . S
C1164 C1165 1.373 . S
C1164 C1166 1.389 . S
C1165 H1144 0.950 . S
C1165 C1164 1.373 . S
C1165 C1181 1.377 . S
C1166 C1164 1.389 . S
C1166 C1167 1.524 . S
C1166 C1180 1.377 . S
C1167 C1166 1.524 . S
C1167 C1168 1.397 . S
C1167 C1172 1.363 . S
C1168 H1145 0.950 . S
C1168 C1167 1.397 . S
C1168 C1169 1.334 . S
C1169 H1146 0.950 . S
C1169 C1168 1.334 . S
C1169 C1170 1.287 . S
C1170 C1169 1.287 . S
C1170 C1171 1.524 . S
C1170 H1189 0.913 . S
C1171 H1147 0.950 . S
C1171 C1170 1.524 . S
C1171 C1172 1.415 . S
C1172 H1148 0.950 . S
C1172 C1167 1.363 . S
C1172 C1171 1.415 . S
C1173 H1149 0.951 . S
C1173 C1174 1.366 . S
C1173 C1175 1.388 . S
C1174 C1173 1.366 . S
C1174 C1178 1.385 . S
C1175 H1150 0.951 . S
C1175 C1173 1.388 . S
C1175 C1176 1.366 . S
C1176 C1175 1.366 . S
C1176 C1177 1.414 . S
C1176 C1179 1.499 . S
C1177 H1151 0.950 . S
C1177 C1176 1.414 . S
C1177 C1178 1.374 . S
C1178 H1152 0.950 . S
C1178 C1174 1.385 . S
C1178 C1177 1.374 . S
C1179 C1176 1.499 . S
C1179 C1180 1.373 . S
C1179 C1181 1.389 . S
C1180 H1153 0.950 . S
C1180 C1166 1.377 . S
C1180 C1179 1.373 . S
C1181 C1165 1.377 . S
C1181 C1179 1.389 . S
C1181 C1182 1.524 . S
C1182 C1181 1.524 . S
C1182 C1183 1.397 . S
C1182 C1187 1.363 . S
C1183 H1154 0.950 . S
C1183 C1182 1.397 . S
C1183 C1184 1.334 . S
C1184 H1155 0.950 . S
C1184 C1183 1.334 . S
C1184 C1185 1.287 . S
C1185 C1184 1.287 . S
C1185 C1186 1.524 . S
C1185 H1188 0.999 . S
C1186 H1156 0.950 . S
C1186 C1185 1.524 . S
C1186 C1187 1.415 . S
C1187 H1157 0.950 . S
C1187 C1182 1.363 . S
C1187 C1186 1.415 . S
H1188 C1185 0.999 . S
H1189 C1170 0.913 . S
H1190 C1208 0.951 . S
H1191 C1210 0.951 . S
H1192 C1212 0.950 . S
H1193 C1213 0.950 . S
H1194 C1215 0.950 . S
H1195 C1218 0.950 . S
H1196 C1219 0.950 . S
H1197 C1221 0.950 . S
H1198 C1222 0.950 . S
H1199 C1223 0.951 . S
H1200 C1225 0.951 . S
H1201 C1227 0.950 . S
H1202 C1228 0.950 . S
H1203 C1230 0.950 . S
H1204 C1233 0.950 . S
H1205 C1234 0.950 . S
H1206 C1236 0.950 . S
H1207 C1237 0.950 . S
C1208 H1190 0.951 . S
C1208 C1209 1.366 . S
C1208 C1210 1.388 . S
C1209 C1208 1.366 . S
C1209 C1213 1.385 . S
C1210 H1191 0.951 . S
C1210 C1208 1.388 . S
C1210 C1211 1.366 . S
C1211 C1210 1.366 . S
C1211 C1212 1.414 . S
C1211 C1214 1.499 . S
C1212 H1192 0.950 . S
C1212 C1211 1.414 . S
C1212 C1213 1.374 . S
C1213 H1193 0.950 . S
C1213 C1209 1.385 . S
C1213 C1212 1.374 . S
C1214 C1211 1.499 . S
C1214 C1215 1.373 . S
C1214 C1216 1.389 . S
C1215 H1194 0.950 . S
C1215 C1214 1.373 . S
C1215 C1231 1.377 . S
C1216 C1214 1.389 . S
C1216 C1217 1.524 . S
C1216 C1230 1.377 . S
C1217 C1216 1.524 . S
C1217 C1218 1.397 . S
C1217 C1222 1.363 . S
C1218 H1195 0.950 . S
C1218 C1217 1.397 . S
C1218 C1219 1.334 . S
C1219 H1196 0.950 . S
C1219 C1218 1.334 . S
C1219 C1220 1.287 . S
C1220 C1219 1.287 . S
C1220 C1221 1.524 . S
C1220 H1239 0.913 . S
C1221 H1197 0.950 . S
C1221 C1220 1.524 . S
C1221 C1222 1.415 . S
C1222 H1198 0.950 . S
C1222 C1217 1.363 . S
C1222 C1221 1.415 . S
C1223 H1199 0.951 . S
C1223 C1224 1.366 . S
C1223 C1225 1.388 . S
C1224 C1223 1.366 . S
C1224 C1228 1.385 . S
C1225 H1200 0.951 . S
C1225 C1223 1.388 . S
C1225 C1226 1.366 . S
C1226 C1225 1.366 . S
C1226 C1227 1.414 . S
C1226 C1229 1.499 . S
C1227 H1201 0.950 . S
C1227 C1226 1.414 . S
C1227 C1228 1.374 . S
C1228 H1202 0.950 . S
C1228 C1224 1.385 . S
C1228 C1227 1.374 . S
C1229 C1226 1.499 . S
C1229 C1230 1.373 . S
C1229 C1231 1.389 . S
C1230 H1203 0.950 . S
C1230 C1216 1.377 . S
C1230 C1229 1.373 . S
C1231 C1215 1.377 . S
C1231 C1229 1.389 . S
C1231 C1232 1.524 . S
C1232 C1231 1.524 . S
C1232 C1233 1.397 . S
C1232 C1237 1.363 . S
C1233 H1204 0.950 . S
C1233 C1232 1.397 . S
C1233 C1234 1.334 . S
C1234 H1205 0.950 . S
C1234 C1233 1.334 . S
C1234 C1235 1.287 . S
C1235 C1234 1.287 . S
C1235 C1236 1.524 . S
C1235 H1238 0.999 . S
C1236 H1206 0.950 . S
C1236 C1235 1.524 . S
C1236 C1237 1.415 . S
C1237 H1207 0.950 . S
C1237 C1232 1.363 . S
C1237 C1236 1.415 . S
H1238 C1235 0.999 . S
H1239 C1220 0.913 . S
H1240 C1258 0.951 . S
H1241 C1260 0.951 . S
H1242 C1262 0.950 . S
H1243 C1263 0.950 . S
H1244 C1265 0.950 . S
H1245 C1268 0.950 . S
H1246 C1269 0.950 . S
H1247 C1271 0.950 . S
H1248 C1272 0.950 . S
H1249 C1273 0.951 . S
H1250 C1275 0.951 . S
H1251 C1277 0.950 . S
H1252 C1278 0.950 . S
H1253 C1280 0.950 . S
H1254 C1283 0.950 . S
H1255 C1284 0.950 . S
H1256 C1286 0.950 . S
H1257 C1287 0.950 . S
C1258 H1240 0.951 . S
C1258 C1259 1.366 . S
C1258 C1260 1.388 . S
C1259 C1258 1.366 . S
C1259 C1263 1.385 . S
C1260 H1241 0.951 . S
C1260 C1258 1.388 . S
C1260 C1261 1.366 . S
C1261 C1260 1.366 . S
C1261 C1262 1.414 . S
C1261 C1264 1.499 . S
C1262 H1242 0.950 . S
C1262 C1261 1.414 . S
C1262 C1263 1.374 . S
C1263 H1243 0.950 . S
C1263 C1259 1.385 . S
C1263 C1262 1.374 . S
C1264 C1261 1.499 . S
C1264 C1265 1.373 . S
C1264 C1266 1.389 . S
C1265 H1244 0.950 . S
C1265 C1264 1.373 . S
C1265 C1281 1.377 . S
C1266 C1264 1.389 . S
C1266 C1267 1.524 . S
C1266 C1280 1.377 . S
C1267 C1266 1.524 . S
C1267 C1268 1.397 . S
C1267 C1272 1.363 . S
C1268 H1245 0.950 . S
C1268 C1267 1.397 . S
C1268 C1269 1.334 . S
C1269 H1246 0.950 . S
C1269 C1268 1.334 . S
C1269 C1270 1.287 . S
C1270 C1269 1.287 . S
C1270 C1271 1.524 . S
C1270 H1289 0.913 . S
C1271 H1247 0.950 . S
C1271 C1270 1.524 . S
C1271 C1272 1.415 . S
C1272 H1248 0.950 . S
C1272 C1267 1.363 . S
C1272 C1271 1.415 . S
C1273 H1249 0.951 . S
C1273 C1274 1.366 . S
C1273 C1275 1.388 . S
C1274 C1273 1.366 . S
C1274 C1278 1.385 . S
C1275 H1250 0.951 . S
C1275 C1273 1.388 . S
C1275 C1276 1.366 . S
C1276 C1275 1.366 . S
C1276 C1277 1.414 . S
C1276 C1279 1.499 . S
C1277 H1251 0.950 . S
C1277 C1276 1.414 . S
C1277 C1278 1.374 . S
C1278 H1252 0.950 . S
C1278 C1274 1.385 . S
C1278 C1277 1.374 . S
C1279 C1276 1.499 . S
C1279 C1280 1.373 . S
C1279 C1281 1.389 . S
C1280 H1253 0.950 . S
C1280 C1266 1.377 . S
C1280 C1279 1.373 . S
C1281 C1265 1.377 . S
C1281 C1279 1.389 . S
C1281 C1282 1.524 . S
C1282 C1281 1.524 . S
C1282 C1283 1.397 . S
C1282 C1287 1.363 . S
C1283 H1254 0.950 . S
C1283 C1282 1.397 . S
C1283 C1284 1.334 . S
C1284 H1255 0.950 . S
C1284 C1283 1.334 . S
C1284 C1285 1.287 . S
C1285 C1284 1.287 . S
C1285 C1286 1.524 . S
C1285 H1288 0.999 . S
C1286 H1256 0.950 . S
C1286 C1285 1.524 . S
C1286 C1287 1.415 . S
C1287 H1257 0.950 . S
C1287 C1282 1.363 . S
C1287 C1286 1.415 . S
H1288 C1285 0.999 . S
H1289 C1270 0.913 . S
H1290 C1308 0.951 . S
H1291 C1310 0.951 . S
H1292 C1312 0.950 . S
H1293 C1313 0.950 . S
H1294 C1315 0.950 . S
H1295 C1318 0.950 . S
H1296 C1319 0.950 . S
H1297 C1321 0.950 . S
H1298 C1322 0.950 . S
H1299 C1323 0.951 . S
H1300 C1325 0.951 . S
H1301 C1327 0.950 . S
H1302 C1328 0.950 . S
H1303 C1330 0.950 . S
H1304 C1333 0.950 . S
H1305 C1334 0.950 . S
H1306 C1336 0.950 . S
H1307 C1337 0.950 . S
C1308 H1290 0.951 . S
C1308 C1309 1.366 . S
C1308 C1310 1.388 . S
C1309 C1308 1.366 . S
C1309 C1313 1.385 . S
C1310 H1291 0.951 . S
C1310 C1308 1.388 . S
C1310 C1311 1.366 . S
C1311 C1310 1.366 . S
C1311 C1312 1.414 . S
C1311 C1314 1.499 . S
C1312 H1292 0.950 . S
C1312 C1311 1.414 . S
C1312 C1313 1.374 . S
C1313 H1293 0.950 . S
C1313 C1309 1.385 . S
C1313 C1312 1.374 . S
C1314 C1311 1.499 . S
C1314 C1315 1.373 . S
C1314 C1316 1.389 . S
C1315 H1294 0.950 . S
C1315 C1314 1.373 . S
C1315 C1331 1.377 . S
C1316 C1314 1.389 . S
C1316 C1317 1.524 . S
C1316 C1330 1.377 . S
C1317 C1316 1.524 . S
C1317 C1318 1.397 . S
C1317 C1322 1.363 . S
C1318 H1295 0.950 . S
C1318 C1317 1.397 . S
C1318 C1319 1.334 . S
C1319 H1296 0.950 . S
C1319 C1318 1.334 . S
C1319 C1320 1.287 . S
C1320 C1319 1.287 . S
C1320 C1321 1.524 . S
C1320 H1339 0.913 . S
C1321 H1297 0.950 . S
C1321 C1320 1.524 . S
C1321 C1322 1.415 . S
C1322 H1298 0.950 . S
C1322 C1317 1.363 . S
C1322 C1321 1.415 . S
C1323 H1299 0.951 . S
C1323 C1324 1.366 . S
C1323 C1325 1.388 . S
C1324 C1323 1.366 . S
C1324 C1328 1.385 . S
C1325 H1300 0.951 . S
C1325 C1323 1.388 . S
C1325 C1326 1.366 . S
C1326 C1325 1.366 . S
C1326 C1327 1.414 . S
C1326 C1329 1.499 . S
C1327 H1301 0.950 . S
C1327 C1326 1.414 . S
C1327 C1328 1.374 . S
C1328 H1302 0.950 . S
C1328 C1324 1.385 . S
C1328 C1327 1.374 . S
C1329 C1326 1.499 . S
C1329 C1330 1.373 . S
C1329 C1331 1.389 . S
C1330 H1303 0.950 . S
C1330 C1316 1.377 . S
C1330 C1329 1.373 . S
C1331 C1315 1.377 . S
C1331 C1329 1.389 . S
C1331 C1332 1.524 . S
C1332 C1331 1.524 . S
C1332 C1333 1.397 . S
C1332 C1337 1.363 . S
C1333 H1304 0.950 . S
C1333 C1332 1.397 . S
C1333 C1334 1.334 . S
C1334 H1305 0.950 . S
C1334 C1333 1.334 . S
C1334 C1335 1.287 . S
C1335 C1334 1.287 . S
C1335 C1336 1.524 . S
C1335 H1338 0.999 . S
C1336 H1306 0.950 . S
C1336 C1335 1.524 . S
C1336 C1337 1.415 . S
C1337 H1307 0.950 . S
C1337 C1332 1.363 . S
C1337 C1336 1.415 . S
H1338 C1335 0.999 . S
H1339 C1320 0.913 . S
H1340 C1358 0.951 . S
H1341 C1360 0.951 . S
H1342 C1362 0.950 . S
H1343 C1363 0.950 . S
H1344 C1365 0.950 . S
H1345 C1368 0.950 . S
H1346 C1369 0.950 . S
H1347 C1371 0.950 . S
H1348 C1372 0.950 . S
H1349 C1373 0.951 . S
H1350 C1375 0.951 . S
H1351 C1377 0.950 . S
H1352 C1378 0.950 . S
H1353 C1380 0.950 . S
H1354 C1383 0.950 . S
H1355 C1384 0.950 . S
H1356 C1386 0.950 . S
H1357 C1387 0.950 . S
C1358 H1340 0.951 . S
C1358 C1359 1.366 . S
C1358 C1360 1.388 . S
C1359 C1358 1.366 . S
C1359 C1363 1.385 . S
C1360 H1341 0.951 . S
C1360 C1358 1.388 . S
C1360 C1361 1.366 . S
C1361 C1360 1.366 . S
C1361 C1362 1.414 . S
C1361 C1364 1.499 . S
C1362 H1342 0.950 . S
C1362 C1361 1.414 . S
C1362 C1363 1.374 . S
C1363 H1343 0.950 . S
C1363 C1359 1.385 . S
C1363 C1362 1.374 . S
C1364 C1361 1.499 . S
C1364 C1365 1.373 . S
C1364 C1366 1.389 . S
C1365 H1344 0.950 . S
C1365 C1364 1.373 . S
C1365 C1381 1.377 . S
C1366 C1364 1.389 . S
C1366 C1367 1.524 . S
C1366 C1380 1.377 . S
C1367 C1366 1.524 . S
C1367 C1368 1.397 . S
C1367 C1372 1.363 . S
C1368 H1345 0.950 . S
C1368 C1367 1.397 . S
C1368 C1369 1.334 . S
C1369 H1346 0.950 . S
C1369 C1368 1.334 . S
C1369 C1370 1.287 . S
C1370 C1369 1.287 . S
C1370 C1371 1.524 . S
C1370 H1389 0.913 . S
C1371 H1347 0.950 . S
C1371 C1370 1.524 . S
C1371 C1372 1.415 . S
C1372 H1348 0.950 . S
C1372 C1367 1.363 . S
C1372 C1371 1.415 . S
C1373 H1349 0.951 . S
C1373 C1374 1.366 . S
C1373 C1375 1.388 . S
C1374 C1373 1.366 . S
C1374 C1378 1.385 . S
C1375 H1350 0.951 . S
C1375 C1373 1.388 . S
C1375 C1376 1.366 . S
C1376 C1375 1.366 . S
C1376 C1377 1.414 . S
C1376 C1379 1.499 . S
C1377 H1351 0.950 . S
C1377 C1376 1.414 . S
C1377 C1378 1.374 . S
C1378 H1352 0.950 . S
C1378 C1374 1.385 . S
C1378 C1377 1.374 . S
C1379 C1376 1.499 . S
C1379 C1380 1.373 . S
C1379 C1381 1.389 . S
C1380 H1353 0.950 . S
C1380 C1366 1.377 . S
C1380 C1379 1.373 . S
C1381 C1365 1.377 . S
C1381 C1379 1.389 . S
C1381 C1382 1.524 . S
C1382 C1381 1.524 . S
C1382 C1383 1.397 . S
C1382 C1387 1.363 . S
C1383 H1354 0.950 . S
C1383 C1382 1.397 . S
C1383 C1384 1.334 . S
C1384 H1355 0.950 . S
C1384 C1383 1.334 . S
C1384 C1385 1.287 . S
C1385 C1384 1.287 . S
C1385 C1386 1.524 . S
C1385 H1388 0.999 . S
C1386 H1356 0.950 . S
C1386 C1385 1.524 . S
C1386 C1387 1.415 . S
C1387 H1357 0.950 . S
C1387 C1382 1.363 . S
C1387 C1386 1.415 . S
H1388 C1385 0.999 . S
H1389 C1370 0.913 . S
H1390 C1408 0.951 . S
H1391 C1410 0.951 . S
H1392 C1412 0.950 . S
H1393 C1413 0.950 . S
H1394 C1415 0.950 . S
H1395 C1418 0.950 . S
H1396 C1419 0.950 . S
H1397 C1421 0.950 . S
H1398 C1422 0.950 . S
H1399 C1423 0.951 . S
H1400 C1425 0.951 . S
H1401 C1427 0.950 . S
H1402 C1428 0.950 . S
H1403 C1430 0.950 . S
H1404 C1433 0.950 . S
H1405 C1434 0.950 . S
H1406 C1436 0.950 . S
H1407 C1437 0.950 . S
C1408 H1390 0.951 . S
C1408 C1409 1.366 . S
C1408 C1410 1.388 . S
C1409 C1408 1.366 . S
C1409 C1413 1.385 . S
C1410 H1391 0.951 . S
C1410 C1408 1.388 . S
C1410 C1411 1.366 . S
C1411 C1410 1.366 . S
C1411 C1412 1.414 . S
C1411 C1414 1.499 . S
C1412 H1392 0.950 . S
C1412 C1411 1.414 . S
C1412 C1413 1.374 . S
C1413 H1393 0.950 . S
C1413 C1409 1.385 . S
C1413 C1412 1.374 . S
C1414 C1411 1.499 . S
C1414 C1415 1.373 . S
C1414 C1416 1.389 . S
C1415 H1394 0.950 . S
C1415 C1414 1.373 . S
C1415 C1431 1.377 . S
C1416 C1414 1.389 . S
C1416 C1417 1.524 . S
C1416 C1430 1.377 . S
C1417 C1416 1.524 . S
C1417 C1418 1.397 . S
C1417 C1422 1.363 . S
C1418 H1395 0.950 . S
C1418 C1417 1.397 . S
C1418 C1419 1.334 . S
C1419 H1396 0.950 . S
C1419 C1418 1.334 . S
C1419 C1420 1.287 . S
C1420 C1419 1.287 . S
C1420 C1421 1.524 . S
C1420 H1439 0.913 . S
C1421 H1397 0.950 . S
C1421 C1420 1.524 . S
C1421 C1422 1.415 . S
C1422 H1398 0.950 . S
C1422 C1417 1.363 . S
C1422 C1421 1.415 . S
C1423 H1399 0.951 . S
C1423 C1424 1.366 . S
C1423 C1425 1.388 . S
C1424 C1423 1.366 . S
C1424 C1428 1.385 . S
C1425 H1400 0.951 . S
C1425 C1423 1.388 . S
C1425 C1426 1.366 . S
C1426 C1425 1.366 . S
C1426 C1427 1.414 . S
C1426 C1429 1.499 . S
C1427 H1401 0.950 . S
C1427 C1426 1.414 . S
C1427 C1428 1.374 . S
C1428 H1402 0.950 . S
C1428 C1424 1.385 . S
C1428 C1427 1.374 . S
C1429 C1426 1.499 . S
C1429 C1430 1.373 . S
C1429 C1431 1.389 . S
C1430 H1403 0.950 . S
C1430 C1416 1.377 . S
C1430 C1429 1.373 . S
C1431 C1415 1.377 . S
C1431 C1429 1.389 . S
C1431 C1432 1.524 . S
C1432 C1431 1.524 . S
C1432 C1433 1.397 . S
C1432 C1437 1.363 . S
C1433 H1404 0.950 . S
C1433 C1432 1.397 . S
C1433 C1434 1.334 . S
C1434 H1405 0.950 . S
C1434 C1433 1.334 . S
C1434 C1435 1.287 . S
C1435 C1434 1.287 . S
C1435 C1436 1.524 . S
C1435 H1438 0.999 . S
C1436 H1406 0.950 . S
C1436 C1435 1.524 . S
C1436 C1437 1.415 . S
C1437 H1407 0.950 . S
C1437 C1432 1.363 . S
C1437 C1436 1.415 . S
H1438 C1435 0.999 . S
H1439 C1420 0.913 . S
C259 C11 1.476 . S
C274 C178 1.544 . S
C324 C156 1.547 . S
C309 C30 1.478 . S
C374 C182 1.547 . S
C359 C49 1.407 . S
C424 C160 1.548 . S
C409 C68 1.401 . S
C474 C222 1.547 . S
C459 C87 1.476 . S
C524 C200 1.547 . S
C509 C106 1.476 . S
C559 C125 1.404 . S
C574 C226 1.547 . S
C624 C204 1.547 . S
C609 C144 1.403 . S
C659 C2 1.540 1_556 S
C674 C227 1.575 . S
C724 C205 1.575 . S
C709 C21 1.539 . S
C759 C40 1.538 1_556 S
C774 C224 1.575 . S
C809 C59 1.538 . S
C824 C202 1.576 . S
C874 C183 1.575 . S
C859 C78 1.542 1_556 S
C909 C97 1.539 . S
C924 C161 1.572 . S
C974 C180 1.576 . S
C959 C116 1.536 1_556 S
C1024 C158 1.575 . S
C1009 C135 1.540 . S
C1074 C201 1.518 . S
C1059 C6 1.527 . S
C1124 C223 1.517 . S
C1109 C25 1.527 . S
C1159 C44 1.524 . S
C1174 C203 1.517 . S
C1224 C225 1.517 . S
C1209 C63 1.524 . S
C1274 C157 1.517 . S
C1259 C82 1.530 . S
C1309 C101 1.527 . S
C1324 C179 1.514 . S
C1359 C120 1.524 . S
C1374 C159 1.514 . S
C1409 C139 1.524 . S
C1424 C181 1.521 . S
